# Generated by pormake.
# Topology anh, (6,3)-cn, num edge types: 1
# Building blocks:
#     Node 0, Type 0, BuildingBlock: BETDIP_clean_sbu_0, # of connection points: 6
#     Node 1, Type 0, BuildingBlock: BETDIP_clean_sbu_0, # of connection points: 6
#     Node 2, Type 0, BuildingBlock: BETDIP_clean_sbu_0, # of connection points: 6
#     Node 3, Type 1, BuildingBlock: ESEHIV_clean_linker_0, # of connection points: 3
#     Node 4, Type 1, BuildingBlock: ESEHIV_clean_linker_0, # of connection points: 3
#     Node 5, Type 1, BuildingBlock: ESEHIV_clean_linker_0, # of connection points: 3
#     Node 6, Type 1, BuildingBlock: ESEHIV_clean_linker_0, # of connection points: 3
#     Node 7, Type 1, BuildingBlock: ESEHIV_clean_linker_0, # of connection points: 3
#     Node 8, Type 1, BuildingBlock: ESEHIV_clean_linker_0, # of connection points: 3
#     Edge 9, Type (0, 1), BuildingBlock: EZIPEK_clean_linker_0, # of connection points: 2
#     Edge 10, Type (0, 1), BuildingBlock: EZIPEK_clean_linker_0, # of connection points: 2
#     Edge 11, Type (0, 1), BuildingBlock: EZIPEK_clean_linker_0, # of connection points: 2
#     Edge 12, Type (0, 1), BuildingBlock: EZIPEK_clean_linker_0, # of connection points: 2
#     Edge 13, Type (0, 1), BuildingBlock: EZIPEK_clean_linker_0, # of connection points: 2
#     Edge 14, Type (0, 1), BuildingBlock: EZIPEK_clean_linker_0, # of connection points: 2
#     Edge 15, Type (0, 1), BuildingBlock: EZIPEK_clean_linker_0, # of connection points: 2
#     Edge 16, Type (0, 1), BuildingBlock: EZIPEK_clean_linker_0, # of connection points: 2
#     Edge 17, Type (0, 1), BuildingBlock: EZIPEK_clean_linker_0, # of connection points: 2
#     Edge 18, Type (0, 1), BuildingBlock: EZIPEK_clean_linker_0, # of connection points: 2
#     Edge 19, Type (0, 1), BuildingBlock: EZIPEK_clean_linker_0, # of connection points: 2
#     Edge 20, Type (0, 1), BuildingBlock: EZIPEK_clean_linker_0, # of connection points: 2
#     Edge 21, Type (0, 1), BuildingBlock: EZIPEK_clean_linker_0, # of connection points: 2
#     Edge 22, Type (0, 1), BuildingBlock: EZIPEK_clean_linker_0, # of connection points: 2
#     Edge 23, Type (0, 1), BuildingBlock: EZIPEK_clean_linker_0, # of connection points: 2
#     Edge 24, Type (0, 1), BuildingBlock: EZIPEK_clean_linker_0, # of connection points: 2
#     Edge 25, Type (0, 1), BuildingBlock: EZIPEK_clean_linker_0, # of connection points: 2
#     Edge 26, Type (0, 1), BuildingBlock: EZIPEK_clean_linker_0, # of connection points: 2
# Relax obj value: 0.454
# Max RMSD: 0.212
# Mean RMSD: 0.179
data_MOF--net-anh--node1-BETDIP_clean_sbu_0--node2-ESEHIV_clean_linker_0--edge1-EZIPEK_clean_linker_0
_symmetry_space_group_name_H-M    P1
_symmetry_Int_Tables_number       1
_symmetry_cell_setting            triclinic
loop_
_symmetry_equiv_pos_as_xyz
'x, y, z'
_cell_length_a     19.722271
_cell_length_b     19.660984
_cell_length_c     36.877821
_cell_angle_alpha  89.673565
_cell_angle_beta   90.243391
_cell_angle_gamma 120.04599
loop_
_atom_site_label
_atom_site_type_symbol
_atom_site_fract_x
_atom_site_fract_y
_atom_site_fract_z
_atom_type_partial_charge
Tb0 Tb 0.31382 0.69851 0.15237 0.0
Tb1 Tb 0.23246 0.53091 0.16507 0.0
C2 C 0.37466 0.84486 0.15496 0.0
C3 C 0.35538 0.9035 0.16745 0.0
C4 C 0.2784 0.88386 0.17639 0.0
C5 C 0.26341 0.94125 0.19025 0.0
C6 C 0.32562 1.018 0.19564 0.0
C7 C 0.40158 1.03756 0.18507 0.0
C8 C 0.41639 0.98081 0.17118 0.0
C9 C 0.29606 0.61442 0.09346 0.0
C10 C 0.41707 0.61571 0.15375 0.0
C11 C 1.13701 0.38599 0.1663 0.0
C12 C 1.05159 0.3438 0.16043 0.0
C13 C 1.01864 0.3605 0.13013 0.0
C14 C 0.94013 0.34144 0.13064 0.0
C15 C 0.89451 0.30651 0.16158 0.0
C16 C 0.92488 0.28208 0.19 0.0
C17 C 1.00284 0.30022 0.18934 0.0
C18 C 0.28658 0.61531 0.22558 0.0
C19 C 1.12738 0.61358 0.15033 0.0
O20 O 0.38414 0.8033 0.18032 0.0
O21 O 0.33476 0.80267 0.12713 0.0
O22 O 0.24737 0.5992 0.11838 0.0
O23 O 0.35621 0.68221 0.10016 0.0
O24 O 0.4145 0.67962 0.1632 0.0
O25 O 0.34948 0.54886 0.14927 0.0
O26 O 1.18199 0.42186 0.13836 0.0
O27 O 1.15898 0.43026 0.19513 0.0
O28 O 0.25431 0.62897 0.19905 0.0
O29 O 0.29254 0.55457 0.21748 0.0
O30 O 1.12906 0.54734 0.15594 0.0
O31 O 1.19406 0.68171 0.14962 0.0
H32 H 0.23052 0.82431 0.17327 0.0
H33 H 1.20421 0.92537 0.19771 0.0
H34 H 0.44998 1.09677 0.18859 0.0
H35 H 0.4759 0.99699 0.16407 0.0
H36 H 1.05472 0.39347 0.10731 0.0
H37 H 0.91677 0.35915 0.10824 0.0
H38 H 0.88997 0.25423 0.21393 0.0
H39 H 1.02686 0.28655 0.21293 0.0
Tb40 Tb 0.77807 1.13458 0.4802 0.0
Tb41 Tb 0.70944 0.21275 0.50709 0.0
C42 C 0.81367 1.03242 0.46597 0.0
C43 C 0.76494 0.94782 0.45889 0.0
C44 C 0.71407 0.89686 0.48553 0.0
C45 C 0.68312 0.81627 0.48222 0.0
C46 C 0.70544 0.78601 0.45284 0.0
C47 C 0.73981 0.83533 0.42253 0.0
C48 C 0.77207 0.91647 0.42604 0.0
C49 C 0.72872 0.19512 0.42829 0.0
C50 C 0.59228 1.03411 0.48876 0.0
C51 C 0.67646 0.31431 0.52717 0.0
C52 C 0.72474 0.37826 0.55206 0.0
C53 C 0.73245 0.45227 0.54687 0.0
C54 C 0.79606 0.5183 0.56206 0.0
C55 C 0.8528 0.51106 0.58227 0.0
C56 C 0.84195 0.43641 0.58952 0.0
C57 C 0.77794 0.37031 0.57473 0.0
C58 C 0.74935 0.15107 0.56138 0.0
C59 C 0.89732 0.30983 0.48517 0.0
O60 O 0.81201 1.05558 0.499 0.0
O61 O 0.81125 1.07905 0.44143 0.0
O62 O 0.6926 0.15972 0.45625 0.0
O63 O 0.79532 0.19755 0.42851 0.0
O64 O 0.65863 1.03277 0.48972 0.0
O65 O 0.59801 1.10459 0.49071 0.0
O66 O 0.71158 0.31889 0.49666 0.0
O67 O 0.64389 0.24378 0.54099 0.0
O68 O 0.79172 0.18651 0.53391 0.0
O69 O 0.68228 0.14547 0.5566 0.0
O70 O 0.83147 0.31185 0.49132 0.0
O71 O 0.89219 0.24063 0.48471 0.0
H72 H 0.7037 0.91915 0.51042 0.0
H73 H 0.65267 0.78035 0.50554 0.0
H74 H 0.75225 0.81322 0.39819 0.0
H75 H 0.80749 0.95476 0.40421 0.0
H76 H 0.69322 0.45979 0.52878 0.0
H77 H 0.80484 0.57586 0.55554 0.0
H78 H 0.88562 0.42979 0.60451 0.0
H79 H 0.7738 0.31372 0.57843 0.0
Tb80 Tb 0.66549 0.62664 0.83478 0.0
Tb81 Tb 0.83618 0.6997 0.82214 0.0
C82 C 0.54324 0.6124 0.86083 0.0
C83 C 0.52235 0.6745 0.85966 0.0
C84 C 0.49798 0.69578 0.89098 0.0
C85 C 0.47657 0.75355 0.88926 0.0
C86 C 0.47724 0.78967 0.85573 0.0
C87 C 0.51337 0.77632 0.82597 0.0
C88 C 0.53337 0.71786 0.82759 0.0
C89 C 0.70625 0.64192 0.76654 0.0
C90 C 0.76942 0.81779 0.82564 0.0
C91 C 0.96449 0.74895 0.79167 0.0
C92 C 0.9977 0.69761 0.78483 0.0
C93 C 1.06395 0.71018 0.80442 0.0
C94 C 1.07229 0.64616 0.81434 0.0
C95 C 1.01351 0.56937 0.80533 0.0
C96 C 0.95507 0.55855 0.78065 0.0
C97 C 0.94885 0.62294 0.7694 0.0
C98 C 0.79088 0.64622 0.88986 0.0
C99 C 0.72954 0.50964 0.8198 0.0
O100 O 0.60393 0.62766 0.88102 0.0
O101 O 0.54488 0.58267 0.82943 0.0
O102 O 0.74101 0.68869 0.79186 0.0
O103 O 0.64086 0.58411 0.77854 0.0
O104 O 0.69911 0.75273 0.82604 0.0
O105 O 0.83369 0.81141 0.82767 0.0
O106 O 0.89991 0.72981 0.77372 0.0
O107 O 0.95907 0.763 0.8261 0.0
O108 O 0.76547 0.68007 0.86935 0.0
O109 O 0.84953 0.64819 0.87317 0.0
O110 O 0.7938 0.57397 0.8084 0.0
O111 O 0.67298 0.51678 0.8361 0.0
H112 H 0.4927 0.66574 0.91644 0.0
H113 H 0.45269 0.7639 0.91358 0.0
H114 H 0.51859 0.8052 0.80021 0.0
H115 H 0.55543 0.70523 0.80324 0.0
H116 H 1.10298 0.76709 0.81622 0.0
H117 H 1.11833 0.65574 0.83327 0.0
H118 H 0.90949 0.49995 0.77323 0.0
H119 H 0.8986 0.61157 0.753 0.0
H120 H 0.49621 0.21982 0.31437 0.0
H121 H 0.72061 0.29089 0.26953 0.0
H122 H 0.53773 0.26686 0.19915 0.0
C123 C 0.53376 0.24066 0.29097 0.0
C124 C 0.50518 0.24663 0.25653 0.0
C125 C 0.61087 0.2562 0.29556 0.0
C126 C 0.66165 0.28098 0.26608 0.0
C127 C 0.63454 0.28388 0.23148 0.0
C128 C 0.55742 0.26801 0.22667 0.0
H129 H 0.74795 0.74848 0.59302 0.0
H130 H 0.942 0.77634 0.65663 0.0
H131 H 0.94181 0.75126 0.54055 0.0
C132 C 0.80698 0.75789 0.59421 0.0
C133 C 0.84401 0.7546 0.56241 0.0
C134 C 0.84152 0.76202 0.62799 0.0
C135 C 0.91767 0.77411 0.63 0.0
C136 C 0.95401 0.76566 0.59905 0.0
C137 C 0.91717 0.75921 0.56519 0.0
H138 H 1.10853 0.41951 0.9451 0.0
H139 H 0.31636 0.64616 0.93613 0.0
H140 H 1.15221 0.56015 0.84923 0.0
C141 C 1.14781 0.46973 0.92866 0.0
C142 C 1.12571 0.47855 0.89355 0.0
C143 C 0.2154 0.53186 0.94428 0.0
C144 C 0.26444 0.59863 0.92364 0.0
C145 C 0.2417 0.60887 0.88895 0.0
C146 C 1.17255 0.54899 0.87451 0.0
H147 H 1.1549 0.55588 0.38397 0.0
H148 H 0.36855 0.7769 0.38645 0.0
H149 H 0.25628 0.66537 0.48709 0.0
C150 C 1.19985 0.60334 0.39988 0.0
C151 C 1.19433 0.60007 0.4383 0.0
C152 C 0.26401 0.66429 0.3813 0.0
C153 C 0.32077 0.7289 0.40103 0.0
C154 C 0.31776 0.73245 0.43915 0.0
C155 C 0.25596 0.66567 0.45775 0.0
H156 H 0.75667 0.27152 0.71953 0.0
H157 H 0.77648 1.06444 0.72546 0.0
H158 H 0.74342 0.16242 0.82379 0.0
C159 C 0.75803 0.22634 0.73597 0.0
C160 C 0.74794 0.22619 0.77413 0.0
C161 C 0.76725 0.16774 0.71842 0.0
C162 C 0.76959 1.10906 0.73938 0.0
C163 C 0.76291 1.10577 0.77747 0.0
C164 C 0.75048 0.16445 0.79464 0.0
H165 H 0.66732 0.62829 0.05418 0.0
H166 H 0.88608 0.63131 0.05218 0.0
H167 H 0.77002 0.60799 0.1547 0.0
C168 C 0.71374 0.6257 0.06885 0.0
C169 C 0.70984 0.61899 0.10706 0.0
C170 C 0.77676 0.63007 0.04913 0.0
C171 C 0.8379 0.62773 0.06778 0.0
C172 C 0.8372 0.61849 0.10586 0.0
C173 C 0.77206 0.61434 0.12549 0.0
C174 C 0.5597 0.68588 0.12757 0.0
C175 C 0.4967 0.62003 0.14594 0.0
C176 C 0.57737 0.55406 0.14234 0.0
C177 C 0.64107 0.62142 0.12583 0.0
N178 N 0.69868 0.75917 0.11285 0.0
N179 N 0.4599 0.5011 0.1796 0.0
C180 C 0.63376 0.68954 0.12185 0.0
C181 C 0.50983 0.55691 0.15577 0.0
N182 N 0.54851 0.74358 0.11309 0.0
N183 N 0.57971 0.48594 0.14427 0.0
H184 H 0.41317 0.50302 0.19164 0.0
H185 H 0.47065 0.45877 0.19081 0.0
H186 H 0.62793 0.48201 0.13565 0.0
H187 H 0.53181 0.43239 0.15199 0.0
H188 H 0.58858 0.78693 0.0957 0.0
H189 H 0.4966 0.74452 0.11498 0.0
H190 H 0.70011 0.81287 0.11333 0.0
H191 H 0.75345 0.76436 0.10888 0.0
C192 C 1.02336 0.38479 0.44623 0.0
C193 C 0.9769 0.38436 0.47603 0.0
C194 C 1.07879 0.52589 0.48566 0.0
C195 C 1.12434 0.52515 0.45565 0.0
N196 N 1.1542 0.43883 0.42185 0.0
N197 N 0.9765 0.45009 0.53063 0.0
C198 C 1.10076 0.44996 0.44041 0.0
C199 C 1.01005 0.4537 0.4979 0.0
N200 N 0.99351 0.32436 0.42205 0.0
N201 N 1.10007 0.59549 0.50222 0.0
H202 H 0.92786 0.39891 0.54 0.0
H203 H 1.0004 0.49445 0.5499 0.0
H204 H 1.13576 0.64952 0.48984 0.0
H205 H 1.08075 0.60034 0.52763 0.0
H206 H 1.0221 0.32632 0.398 0.0
H207 H 0.93738 0.27629 0.4238 0.0
H208 H 1.14256 0.38377 0.41294 0.0
H209 H 0.21298 0.48241 0.41975 0.0
C210 C 0.72173 0.91829 0.8345 0.0
C211 C 0.77461 0.8978 0.81794 0.0
C212 C 0.8344 1.0277 0.78687 0.0
C213 C 0.77143 1.04004 0.79688 0.0
N214 N 0.64834 0.98725 0.82856 0.0
N215 N 0.87188 0.93188 0.77091 0.0
C216 C 0.71348 0.98286 0.82055 0.0
C217 C 0.82887 0.95258 0.79233 0.0
N218 N 0.68097 0.87788 0.86451 0.0
N219 N 0.90078 1.08848 0.77229 0.0
H220 H 0.8659 0.8762 0.77121 0.0
H221 H 0.9064 0.96707 0.74958 0.0
H222 H 0.90859 0.14482 0.76944 0.0
H223 H 0.9509 1.08496 0.76719 0.0
H224 H 0.64786 0.89482 0.87998 0.0
H225 H 0.68724 0.83281 0.87611 0.0
H226 H 0.60165 0.94445 0.84349 0.0
H227 H 0.63787 1.03019 0.81779 0.0
C228 C 1.02693 0.66078 0.1601 0.0
C229 C 1.04937 0.61108 0.14184 0.0
C230 C 0.92223 0.55344 0.10877 0.0
C231 C 0.90515 0.6108 0.12277 0.0
N232 N 0.95094 0.72764 0.15882 0.0
N233 N 1.02234 0.52237 0.09185 0.0
C234 C 0.96002 0.6665 0.14786 0.0
C235 C 0.99782 0.5606 0.11437 0.0
N236 N 1.06813 0.70116 0.19001 0.0
N237 N 0.86512 0.49034 0.09052 0.0
H238 H 1.07764 0.52799 0.0937 0.0
H239 H 0.99095 0.49177 0.06896 0.0
H240 H 0.80852 0.48111 0.08733 0.0
H241 H 0.87134 0.44322 0.08221 0.0
H242 H 1.0507 0.73222 0.20667 0.0
H243 H 1.11544 0.69716 0.20019 0.0
H244 H 0.99323 0.77494 0.17366 0.0
H245 H 0.90412 0.73445 0.1505 0.0
C246 C 0.4594 0.95481 0.45442 0.0
C247 C 0.51509 0.95739 0.48018 0.0
C248 C 0.43926 0.81029 0.48085 0.0
C249 C 0.38046 0.80848 0.45764 0.0
N250 N 0.32635 0.88299 0.43089 0.0
N251 N 0.54238 0.8839 0.52475 0.0
C252 C 0.38804 0.88213 0.44739 0.0
C253 C 0.50016 0.88389 0.49536 0.0
N254 N 0.47632 1.01988 0.43424 0.0
N255 N 0.43969 0.7423 0.48793 0.0
H256 H 0.58347 0.93556 0.53738 0.0
H257 H 0.53019 0.83311 0.53899 0.0
H258 H 0.39708 0.68794 0.47795 0.0
H259 H 0.486 0.74105 0.50102 0.0
H260 H 0.44162 1.01873 0.4126 0.0
H261 H 0.52911 1.07255 0.43595 0.0
H262 H 0.32515 0.93459 0.42585 0.0
H263 H 0.27318 0.83178 0.42597 0.0
C264 C 0.76653 0.4023 0.83339 0.0
C265 C 0.72199 0.42804 0.81286 0.0
C266 C 0.6755 0.30646 0.77559 0.0
C267 C 0.73362 0.29103 0.79072 0.0
N268 N 0.83372 0.32652 0.83605 0.0
N269 N 0.62482 0.39596 0.76648 0.0
C270 C 0.77793 0.33898 0.8206 0.0
C271 C 0.67362 0.37719 0.78467 0.0
N272 N 0.7959 0.43691 0.86603 0.0
N273 N 0.6182 0.25045 0.75421 0.0
H274 H 0.61545 0.44112 0.77483 0.0
H275 H 0.59649 0.36933 0.74239 0.0
H276 H 0.61411 0.19635 0.74921 0.0
H277 H 0.56986 0.2533 0.74481 0.0
H278 H 0.81786 0.41416 0.88533 0.0
H279 H 0.79071 0.48405 0.87533 0.0
H280 H 0.86507 0.35517 0.85903 0.0
H281 H 0.85246 0.29043 0.82473 0.0
C282 C 0.68364 0.67077 0.48923 0.0
C283 C 0.72599 0.72391 0.4611 0.0
C284 C 0.84553 0.77771 0.49475 0.0
C285 C 0.80334 0.73663 0.52641 0.0
N286 N 0.68769 0.61841 0.54838 0.0
N287 N 0.84697 0.76641 0.42957 0.0
C288 C 0.72383 0.67408 0.52208 0.0
C289 C 0.80711 0.75372 0.46117 0.0
N290 N 0.6044 0.62611 0.48591 0.0
N291 N 0.91815 0.84295 0.49645 0.0
H292 H 0.81732 0.74691 0.40492 0.0
H293 H 0.90729 0.78809 0.42902 0.0
H294 H 0.94497 0.86985 0.52078 0.0
H295 H 0.94692 0.87521 0.47332 0.0
H296 H 0.56739 0.59271 0.50694 0.0
H297 H 0.57661 0.62643 0.46176 0.0
H298 H 0.63228 0.56932 0.54516 0.0
H299 H 0.71591 0.61713 0.57202 0.0
C300 C 0.98406 0.50554 0.86625 0.0
C301 C 1.00236 0.50368 0.82905 0.0
C302 C 1.04001 0.40584 0.8436 0.0
C303 C 1.0449 0.42868 0.88011 0.0
N304 N 0.97133 0.44739 0.92608 0.0
N305 N 1.02716 0.43671 0.78068 0.0
C306 C 0.99704 0.45841 0.8912 0.0
C307 C 1.02111 0.44654 0.81688 0.0
N308 N 0.95938 0.5554 0.87781 0.0
N309 N 1.0631 0.35323 0.83513 0.0
H310 H 1.01471 0.46723 0.76102 0.0
H311 H 1.04386 0.39839 0.77009 0.0
H312 H 1.0804 0.32803 0.85557 0.0
H313 H 1.06209 0.33276 0.80907 0.0
H314 H 0.95405 0.56529 0.9051 0.0
H315 H 0.94487 0.58732 0.85985 0.0
H316 H 0.93318 0.46532 0.93571 0.0
H317 H 0.98392 0.41404 0.94412 0.0
C318 C 0.34253 0.15118 0.19645 0.0
C319 C 0.31676 1.07889 0.21489 0.0
C320 C 0.36429 0.15104 0.27115 0.0
C321 C 0.41867 0.21557 0.25026 0.0
N322 N 0.42276 0.29421 0.19986 0.0
N323 N 0.28254 1.00975 0.27226 0.0
C324 C 0.39339 0.22182 0.21519 0.0
C325 C 0.31854 1.07855 0.2533 0.0
N326 N 0.32561 0.15042 0.16055 0.0
N327 N 0.35334 0.16083 0.3067 0.0
H328 H 0.24649 0.95598 0.25976 0.0
H329 H 0.29022 1.00682 0.3001 0.0
H330 H 0.38232 0.21657 0.31848 0.0
H331 H 0.3103 1.11619 0.32261 0.0
H332 H 0.3475 0.20061 0.14442 0.0
H333 H 0.28864 1.09765 0.14729 0.0
H334 H 0.40609 0.3043 0.17449 0.0
H335 H 0.46191 0.34425 0.21436 0.0
C336 C 0.9478 0.6092 0.62758 0.0
C337 C 0.92762 0.58271 0.59108 0.0
C338 C 1.02957 0.71217 0.57111 0.0
C339 C 1.01499 0.74075 0.6031 0.0
N340 N 1.0356 0.72106 0.66536 0.0
N341 N 0.95944 0.6096 0.52703 0.0
C342 C 1.00172 0.69039 0.63284 0.0
C343 C 0.97422 0.6333 0.56229 0.0
N344 N 0.91155 0.56055 0.6563 0.0
N345 N 1.08425 0.76287 0.54737 0.0
H346 H 0.92024 0.55166 0.5197 0.0
H347 H 0.98553 0.6483 0.50535 0.0
H348 H 1.11903 0.82231 0.55384 0.0
H349 H 1.09701 0.74447 0.52318 0.0
H350 H 0.92001 0.58052 0.68296 0.0
H351 H 0.87035 0.50125 0.65327 0.0
H352 H 1.03032 0.68646 0.68788 0.0
H353 H 1.07269 0.78162 0.66822 0.0
C354 C 0.36609 0.76955 0.82149 0.0
C355 C 0.41924 0.8166 0.84836 0.0
C356 C 0.31171 0.75687 0.8907 0.0
C357 C 0.28502 0.68628 0.8702 0.0
N358 N 0.28708 0.63117 0.81075 0.0
N359 N 0.42026 0.89175 0.89896 0.0
C360 C 0.30856 0.69387 0.83302 0.0
C361 C 0.38213 0.8249 0.87909 0.0
N362 N 0.37929 0.79124 0.78605 0.0
N363 N 0.27164 0.75729 0.92065 0.0
H364 H 0.47385 0.93826 0.89004 0.0
H365 H 0.39977 0.90033 0.92349 0.0
H366 H 0.21846 0.70819 0.92799 0.0
H367 H 0.28816 0.80692 0.9364 0.0
H368 H 0.34083 0.75692 0.76558 0.0
H369 H 0.42597 0.8461 0.77853 0.0
H370 H 0.30931 0.63799 0.78453 0.0
H371 H 0.25497 0.57298 0.81922 0.0
C372 C 0.81924 0.37311 0.17918 0.0
C373 C 0.81916 0.30442 0.16722 0.0
C374 C 0.68401 0.22278 0.18734 0.0
C375 C 0.68538 0.29119 0.20053 0.0
N376 N 0.74174 0.43117 0.19815 0.0
N377 N 0.74613 0.16881 0.1496 0.0
C378 C 0.74861 0.36644 0.19219 0.0
C379 C 0.74913 0.2309 0.16746 0.0
N380 N 0.88782 0.44313 0.1813 0.0
N381 N 0.62357 0.15011 0.19635 0.0
H382 H 0.79386 0.17397 0.1351 0.0
H383 H 0.69481 1.11507 0.14633 0.0
H384 H 0.57514 0.14214 0.21107 0.0
H385 H 0.62367 1.09812 0.19126 0.0
H386 H 0.89243 0.49284 0.1936 0.0
H387 H 0.9415 0.45025 0.17314 0.0
H388 H 0.78364 0.48753 0.18984 0.0
H389 H 0.69009 0.4266 0.20808 0.0
C390 C 0.30308 0.54571 0.03764 0.0
C391 C 0.2719 0.58734 0.05593 0.0
C392 C 1.18923 0.57286 1.00365 0.0
C393 C 0.22595 0.53825 0.98403 0.0
N394 N 0.3207 0.49566 0.98043 0.0
N395 N 1.19884 0.65594 0.0536 0.0
C396 C 0.28335 0.52515 1.00059 0.0
C397 C 0.21798 0.60443 0.03838 0.0
N398 N 0.35121 0.52569 0.05571 0.0
N399 N 1.12786 0.57726 0.98878 0.0
H400 H 0.22175 0.68422 0.07815 0.0
H401 H 1.16666 0.67729 0.04024 0.0
H402 H 1.10788 0.55999 0.9624 0.0
H403 H 1.0925 0.59229 1.00363 0.0
H404 H 0.36909 0.48807 0.04536 0.0
H405 H 0.37024 0.54359 0.08213 0.0
H406 H 0.36965 0.49333 0.98933 0.0
H407 H 0.30462 0.4766 0.95378 0.0
C408 C 0.65206 0.24758 0.39568 0.0
C409 C 0.68902 0.20153 0.39508 0.0
C410 C 0.65542 0.17553 0.33063 0.0
C411 C 0.63569 0.23592 0.33011 0.0
N412 N 0.62556 0.33737 0.36199 0.0
N413 N 0.71952 1.11455 0.36188 0.0
C414 C 0.637 0.27435 0.3626 0.0
C415 C 0.68952 0.16386 0.3624 0.0
N416 N 0.62667 0.26178 0.4275 0.0
N417 N 0.63715 1.12627 0.30162 0.0
H418 H 0.73303 1.09399 0.38532 0.0
H419 H 0.73203 1.09495 0.33801 0.0
H420 H 0.60798 1.12993 0.27871 0.0
H421 H 0.6432 1.07661 0.30171 0.0
H422 H 0.59504 0.29114 0.42893 0.0
H423 H 0.62557 0.23282 0.45129 0.0
H424 H 0.6334 0.37164 0.38481 0.0
H425 H 0.61575 0.35985 0.33811 0.0
C426 C 0.74428 0.62055 0.70498 0.0
C427 C 0.72436 0.66487 0.72811 0.0
C428 C 0.77241 0.77158 0.68328 0.0
C429 C 0.79123 0.72647 0.66013 0.0
N430 N 0.7748 0.59988 0.64428 0.0
N431 N 0.69754 0.77105 0.73529 0.0
C432 C 0.76975 0.64795 0.66939 0.0
C433 C 0.73159 0.73702 0.716 0.0
N434 N 0.74475 0.55549 0.71774 0.0
N435 N 0.79561 0.84776 0.67457 0.0
H436 H 0.66296 0.7441 0.75801 0.0
H437 H 0.69625 0.82092 0.72667 0.0
H438 H 0.82343 0.87351 0.65014 0.0
H439 H 0.79147 0.88647 0.69236 0.0
H440 H 0.76792 0.5263 0.70342 0.0
H441 H 0.72846 0.53492 0.74404 0.0
H442 H 0.75141 0.53972 0.64829 0.0
H443 H 0.79656 0.61869 0.61827 0.0
C444 C 0.83429 0.21723 0.61805 0.0
C445 C 0.77381 0.14982 0.6002 0.0
C446 C 0.71057 1.09672 0.65916 0.0
C447 C 0.77024 0.16352 0.67746 0.0
N448 N 0.89852 0.27888 0.67506 0.0
N449 N 0.67412 1.01453 0.60573 0.0
C450 C 0.83512 0.2214 0.65707 0.0
C451 C 0.71874 1.08609 0.62162 0.0
N452 N 0.89018 0.27764 0.59797 0.0
N453 N 0.6437 1.04504 0.67713 0.0
H454 H 0.6822 1.00505 0.57867 0.0
H455 H 0.63707 0.96362 0.62021 0.0
H456 H 0.6333 1.05223 0.70416 0.0
H457 H 0.59516 0.99967 0.6642 0.0
H458 H 0.92976 0.33235 0.60864 0.0
H459 H 0.89659 0.27331 0.57025 0.0
H460 H 0.95086 0.31842 0.66244 0.0
H461 H 0.90111 0.28329 0.70326 0.0
C462 C 0.82263 0.71282 0.95164 0.0
C463 C 0.78385 0.6428 0.93068 0.0
C464 C 0.74351 0.56476 0.98741 0.0
C465 C 0.77789 0.63477 0.00825 0.0
N466 N 0.84032 0.77575 0.01035 0.0
N467 N 0.69538 0.50306 0.92895 0.0
C468 C 0.81443 0.70891 0.99034 0.0
C469 C 0.74103 0.56906 0.94873 0.0
N470 N 0.86981 0.78298 0.93469 0.0
N471 N 0.7146 0.4938 1.00461 0.0
H472 H 0.69154 0.5041 0.90088 0.0
H473 H 0.65602 0.44889 0.94036 0.0
H474 H 0.71279 0.48789 0.03277 0.0
H475 H 0.69768 0.44134 0.99108 0.0
H476 H 0.90671 0.83471 0.94845 0.0
H477 H 0.87677 0.78864 0.90662 0.0
H478 H 0.85943 0.831 0.999 0.0
H479 H 0.83718 0.7752 0.0386 0.0
C480 C 0.21573 0.6354 0.27937 0.0
C481 C 0.28306 0.63619 0.26465 0.0
C482 C 0.33618 0.6517 0.32678 0.0
C483 C 0.27285 0.65876 0.34083 0.0
N484 N 1.16279 0.67663 0.32837 0.0
N485 N 0.41496 0.66232 0.27437 0.0
C486 C 0.21609 0.65688 0.31639 0.0
C487 C 0.34559 0.64979 0.28843 0.0
N488 N 1.14883 0.60852 0.25927 0.0
N489 N 0.38537 0.64271 0.34999 0.0
H490 H 0.42466 0.66244 0.24657 0.0
H491 H 0.46519 0.6804 0.29002 0.0
H492 H 0.3796 0.64145 0.3781 0.0
H493 H 0.42716 0.6288 0.34131 0.0
H494 H 1.09632 0.59983 0.27006 0.0
H495 H 1.14213 0.58577 0.23329 0.0
H496 H 1.12522 0.68417 0.311 0.0
H497 H 1.16178 0.69342 0.35507 0.0
loop_
_geom_bond_atom_site_label_1
_geom_bond_atom_site_label_2
_geom_bond_distance
_geom_bond_site_symmetry_2
_ccdc_geom_bond_type
Tb0 C2 2.809 . S
Tb0 O20 2.484 . S
Tb0 O21 2.440 . S
Tb0 O22 2.658 . S
Tb0 O23 2.409 . S
Tb0 O24 2.378 . S
Tb0 O28 2.325 . S
Tb0 O31 2.341 1_455 S
Tb1 C11 2.809 . S
Tb1 O22 2.325 1_655 S
Tb1 O25 2.341 1_655 S
Tb1 O26 2.484 . S
Tb1 O27 2.440 . S
Tb1 O28 2.658 1_655 S
Tb1 O29 2.409 . S
Tb1 O30 2.378 . S
C2 Tb0 2.809 . S
C2 C3 1.514 . S
C2 O20 1.248 . S
C2 O21 1.266 . S
C3 C2 1.514 . S
C3 C4 1.359 . S
C3 C8 1.348 . S
C4 C3 1.359 . S
C4 C5 1.380 . S
C4 H32 0.929 . S
C5 C4 1.380 . S
C5 C6 1.347 . S
C5 H33 0.931 . S
C6 C5 1.347 . S
C6 C7 1.369 . S
C7 C6 1.369 . S
C7 C8 1.408 . S
C7 H34 0.930 . S
C8 C3 1.348 . S
C8 C7 1.408 . S
C8 H35 0.930 . S
C9 O22 1.281 . S
C9 O23 1.254 . S
C10 O24 1.236 . S
C10 O25 1.266 . S
C11 Tb1 2.809 . S
C11 C12 1.514 . S
C11 O26 1.248 . S
C11 O27 1.266 . S
C12 C11 1.514 . S
C12 C13 1.359 . S
C12 C17 1.348 . S
C13 C12 1.359 . S
C13 C14 1.380 . S
C13 H36 0.929 . S
C14 C13 1.380 . S
C14 C15 1.347 . S
C14 H37 0.931 . S
C15 C14 1.347 . S
C15 C16 1.369 . S
C16 C15 1.369 . S
C16 C17 1.408 . S
C16 H38 0.930 . S
C17 C12 1.348 . S
C17 C16 1.408 . S
C17 H39 0.930 . S
C18 O28 1.281 . S
C18 O29 1.254 1_455 S
C19 O30 1.236 . S
C19 O31 1.266 . S
O20 Tb0 2.484 . S
O20 C2 1.248 . S
O21 Tb0 2.440 . S
O21 C2 1.266 . S
O22 Tb0 2.658 . S
O22 Tb1 2.325 1_455 S
O22 C9 1.281 . S
O23 Tb0 2.409 . S
O23 C9 1.254 . S
O24 Tb0 2.378 . S
O24 C10 1.236 . S
O25 Tb1 2.341 1_455 S
O25 C10 1.266 . S
O26 Tb1 2.484 . S
O26 C11 1.248 . S
O27 Tb1 2.440 . S
O27 C11 1.266 . S
O28 Tb0 2.325 . S
O28 Tb1 2.658 1_455 S
O28 C18 1.281 . S
O29 Tb1 2.409 . S
O29 C18 1.254 1_655 S
O30 Tb1 2.378 . S
O30 C19 1.236 . S
O31 Tb0 2.341 1_655 S
O31 C19 1.266 . S
H32 C4 0.929 . S
H33 C5 0.931 . S
H34 C7 0.930 . S
H35 C8 0.930 . S
H36 C13 0.929 . S
H37 C14 0.931 . S
H38 C16 0.930 . S
H39 C17 0.930 . S
Tb40 C42 2.809 . S
Tb40 O60 2.484 . S
Tb40 O61 2.440 . S
Tb40 O62 2.658 1_565 S
Tb40 O63 2.409 . S
Tb40 O64 2.378 . S
Tb40 O68 2.325 1_565 S
Tb40 O71 2.341 1_565 S
Tb41 C51 2.809 . S
Tb41 O62 2.325 . S
Tb41 O65 2.341 1_545 S
Tb41 O66 2.484 . S
Tb41 O67 2.440 . S
Tb41 O68 2.658 . S
Tb41 O69 2.409 . S
Tb41 O70 2.378 . S
C42 Tb40 2.809 . S
C42 C43 1.514 . S
C42 O60 1.248 . S
C42 O61 1.266 . S
C43 C42 1.514 . S
C43 C44 1.359 . S
C43 C48 1.348 . S
C44 C43 1.359 . S
C44 C45 1.380 . S
C44 H72 0.929 . S
C45 C44 1.380 . S
C45 C46 1.347 . S
C45 H73 0.931 . S
C46 C45 1.347 . S
C46 C47 1.369 . S
C47 C46 1.369 . S
C47 C48 1.408 . S
C47 H74 0.930 . S
C48 C43 1.348 . S
C48 C47 1.408 . S
C48 H75 0.930 . S
C49 O62 1.281 . S
C49 O63 1.254 1_545 S
C50 O64 1.236 . S
C50 O65 1.266 . S
C51 Tb41 2.809 . S
C51 C52 1.514 . S
C51 O66 1.248 . S
C51 O67 1.266 . S
C52 C51 1.514 . S
C52 C53 1.359 . S
C52 C57 1.348 . S
C53 C52 1.359 . S
C53 C54 1.380 . S
C53 H76 0.929 . S
C54 C53 1.380 . S
C54 C55 1.347 . S
C54 H77 0.931 . S
C55 C54 1.347 . S
C55 C56 1.369 . S
C56 C55 1.369 . S
C56 C57 1.408 . S
C56 H78 0.930 . S
C57 C52 1.348 . S
C57 C56 1.408 . S
C57 H79 0.930 . S
C58 O68 1.281 . S
C58 O69 1.254 . S
C59 O70 1.236 . S
C59 O71 1.266 . S
O60 Tb40 2.484 . S
O60 C42 1.248 . S
O61 Tb40 2.440 . S
O61 C42 1.266 . S
O62 Tb40 2.658 1_545 S
O62 Tb41 2.325 . S
O62 C49 1.281 . S
O63 Tb40 2.409 . S
O63 C49 1.254 1_565 S
O64 Tb40 2.378 . S
O64 C50 1.236 . S
O65 Tb41 2.341 1_565 S
O65 C50 1.266 . S
O66 Tb41 2.484 . S
O66 C51 1.248 . S
O67 Tb41 2.440 . S
O67 C51 1.266 . S
O68 Tb40 2.325 1_545 S
O68 Tb41 2.658 . S
O68 C58 1.281 . S
O69 Tb41 2.409 . S
O69 C58 1.254 . S
O70 Tb41 2.378 . S
O70 C59 1.236 . S
O71 Tb40 2.341 1_545 S
O71 C59 1.266 . S
H72 C44 0.929 . S
H73 C45 0.931 . S
H74 C47 0.930 . S
H75 C48 0.930 . S
H76 C53 0.929 . S
H77 C54 0.931 . S
H78 C56 0.930 . S
H79 C57 0.930 . S
Tb80 C82 2.809 . S
Tb80 O100 2.484 . S
Tb80 O101 2.440 . S
Tb80 O102 2.658 . S
Tb80 O103 2.409 . S
Tb80 O104 2.378 . S
Tb80 O108 2.325 . S
Tb80 O111 2.341 . S
Tb81 C91 2.809 . S
Tb81 O102 2.325 . S
Tb81 O105 2.341 . S
Tb81 O106 2.484 . S
Tb81 O107 2.440 . S
Tb81 O108 2.658 . S
Tb81 O109 2.409 . S
Tb81 O110 2.378 . S
C82 Tb80 2.809 . S
C82 C83 1.514 . S
C82 O100 1.248 . S
C82 O101 1.266 . S
C83 C82 1.514 . S
C83 C84 1.359 . S
C83 C88 1.348 . S
C84 C83 1.359 . S
C84 C85 1.380 . S
C84 H112 0.929 . S
C85 C84 1.380 . S
C85 C86 1.347 . S
C85 H113 0.931 . S
C86 C85 1.347 . S
C86 C87 1.369 . S
C87 C86 1.369 . S
C87 C88 1.408 . S
C87 H114 0.930 . S
C88 C83 1.348 . S
C88 C87 1.408 . S
C88 H115 0.930 . S
C89 O102 1.281 . S
C89 O103 1.254 . S
C90 O104 1.236 . S
C90 O105 1.266 . S
C91 Tb81 2.809 . S
C91 C92 1.514 . S
C91 O106 1.248 . S
C91 O107 1.266 . S
C92 C91 1.514 . S
C92 C93 1.359 . S
C92 C97 1.348 . S
C93 C92 1.359 . S
C93 C94 1.380 . S
C93 H116 0.929 . S
C94 C93 1.380 . S
C94 C95 1.347 . S
C94 H117 0.931 . S
C95 C94 1.347 . S
C95 C96 1.369 . S
C96 C95 1.369 . S
C96 C97 1.408 . S
C96 H118 0.930 . S
C97 C92 1.348 . S
C97 C96 1.408 . S
C97 H119 0.930 . S
C98 O108 1.281 . S
C98 O109 1.254 . S
C99 O110 1.236 . S
C99 O111 1.266 . S
O100 Tb80 2.484 . S
O100 C82 1.248 . S
O101 Tb80 2.440 . S
O101 C82 1.266 . S
O102 Tb80 2.658 . S
O102 Tb81 2.325 . S
O102 C89 1.281 . S
O103 Tb80 2.409 . S
O103 C89 1.254 . S
O104 Tb80 2.378 . S
O104 C90 1.236 . S
O105 Tb81 2.341 . S
O105 C90 1.266 . S
O106 Tb81 2.484 . S
O106 C91 1.248 . S
O107 Tb81 2.440 . S
O107 C91 1.266 . S
O108 Tb80 2.325 . S
O108 Tb81 2.658 . S
O108 C98 1.281 . S
O109 Tb81 2.409 . S
O109 C98 1.254 . S
O110 Tb81 2.378 . S
O110 C99 1.236 . S
O111 Tb80 2.341 . S
O111 C99 1.266 . S
H112 C84 0.929 . S
H113 C85 0.931 . S
H114 C87 0.930 . S
H115 C88 0.930 . S
H116 C93 0.929 . S
H117 C94 0.931 . S
H118 C96 0.930 . S
H119 C97 0.930 . S
H120 C123 0.932 1_565 S
H121 C126 0.928 . S
H122 C128 0.930 . S
C123 H120 0.932 1_545 S
C123 C124 1.413 . S
C123 C125 1.359 . S
C124 C123 1.413 . S
C124 C128 1.429 . S
C125 C123 1.359 . S
C125 C126 1.372 . S
C126 H121 0.928 . S
C126 C125 1.372 . S
C126 C127 1.404 . S
C127 C126 1.404 . S
C127 C128 1.391 . S
C128 H122 0.930 . S
C128 C124 1.429 . S
C128 C127 1.391 . S
H129 C132 0.931 . S
H130 C135 0.928 . S
H131 C137 0.930 . S
C132 H129 0.931 . S
C132 C133 1.413 . S
C132 C134 1.360 . S
C133 C132 1.413 . S
C133 C137 1.429 . S
C134 C132 1.360 . S
C134 C135 1.372 . S
C135 H130 0.928 . S
C135 C134 1.372 . S
C135 C136 1.404 . S
C136 C135 1.404 . S
C136 C137 1.391 . S
C137 H131 0.930 . S
C137 C133 1.429 . S
C137 C136 1.391 . S
H138 C141 0.931 . S
H139 C144 0.928 . S
H140 C146 0.930 . S
C141 H138 0.931 . S
C141 C142 1.413 . S
C141 C143 1.360 1_655 S
C142 C141 1.413 . S
C142 C146 1.429 1_655 S
C143 C141 1.360 1_455 S
C143 C144 1.372 . S
C144 H139 0.928 . S
C144 C143 1.372 . S
C144 C145 1.404 . S
C145 C144 1.404 . S
C145 C146 1.391 . S
C146 H140 0.930 . S
C146 C142 1.429 1_455 S
C146 C145 1.391 . S
H147 C150 0.931 . S
H148 C153 0.928 . S
H149 C155 0.930 . S
C150 H147 0.931 . S
C150 C151 1.413 1_655 S
C150 C152 1.360 1_655 S
C151 C150 1.413 1_455 S
C151 C155 1.434 . S
C152 C150 1.360 1_455 S
C152 C153 1.372 . S
C153 H148 0.928 . S
C153 C152 1.372 . S
C153 C154 1.404 . S
C154 C153 1.404 . S
C154 C155 1.391 . S
C155 H149 0.930 . S
C155 C151 1.434 . S
C155 C154 1.391 . S
H156 C159 0.931 . S
H157 C162 0.928 . S
H158 C164 0.930 . S
C159 H156 0.931 . S
C159 C160 1.413 . S
C159 C161 1.360 . S
C160 C159 1.413 . S
C160 C164 1.449 . S
C161 C159 1.360 . S
C161 C162 1.372 1_545 S
C162 H157 0.928 . S
C162 C161 1.372 1_565 S
C162 C163 1.404 . S
C163 C162 1.404 . S
C163 C164 1.371 1_565 S
C164 H158 0.930 . S
C164 C160 1.449 . S
C164 C163 1.371 1_545 S
H165 C168 0.931 . S
H166 C171 0.928 . S
H167 C173 0.930 . S
C168 H165 0.931 . S
C168 C169 1.413 . S
C168 C170 1.360 . S
C169 C168 1.413 . S
C169 C173 1.429 . S
C170 C168 1.360 . S
C170 C171 1.372 . S
C171 H166 0.928 . S
C171 C170 1.372 . S
C171 C172 1.404 . S
C172 C171 1.404 . S
C172 C173 1.391 . S
C173 H167 0.930 . S
C173 C169 1.429 . S
C173 C172 1.391 . S
C174 C175 1.363 . S
C174 C180 1.379 . S
C174 N182 1.356 . S
C175 C174 1.363 . S
C175 C181 1.363 . S
C176 C177 1.363 . S
C176 C181 1.379 . S
C176 N183 1.356 . S
C177 C176 1.363 . S
C177 C180 1.363 . S
N178 C180 1.356 . S
N178 H190 0.984 . S
N178 H191 0.985 . S
N179 C181 1.356 . S
N179 H184 0.984 . S
N179 H185 0.985 . S
C180 C174 1.379 . S
C180 C177 1.363 . S
C180 N178 1.356 . S
C181 C175 1.363 . S
C181 C176 1.379 . S
C181 N179 1.356 . S
N182 C174 1.356 . S
N182 H188 0.984 . S
N182 H189 0.984 . S
N183 C176 1.356 . S
N183 H186 0.984 . S
N183 H187 0.985 . S
H184 N179 0.984 . S
H185 N179 0.985 . S
H186 N183 0.984 . S
H187 N183 0.985 . S
H188 N182 0.984 . S
H189 N182 0.984 . S
H190 N178 0.984 . S
H191 N178 0.985 . S
C192 C193 1.363 . S
C192 C198 1.379 . S
C192 N200 1.356 . S
C193 C192 1.363 . S
C193 C199 1.363 . S
C194 C195 1.363 . S
C194 C199 1.379 . S
C194 N201 1.356 . S
C195 C194 1.363 . S
C195 C198 1.363 . S
N196 C198 1.356 . S
N196 H208 0.984 . S
N196 H209 0.985 . S
N197 C199 1.356 . S
N197 H202 0.984 . S
N197 H203 0.985 . S
C198 C192 1.379 . S
C198 C195 1.363 . S
C198 N196 1.356 . S
C199 C193 1.363 . S
C199 C194 1.379 . S
C199 N197 1.356 . S
N200 C192 1.356 . S
N200 H206 0.984 . S
N200 H207 0.984 . S
N201 C194 1.356 . S
N201 H204 0.984 . S
N201 H205 0.985 . S
H202 N197 0.984 . S
H203 N197 0.985 . S
H204 N201 0.984 . S
H205 N201 0.985 . S
H206 N200 0.984 . S
H207 N200 0.984 . S
H208 N196 0.984 . S
H209 N196 0.985 . S
C210 C211 1.363 . S
C210 C216 1.379 . S
C210 N218 1.356 . S
C211 C210 1.363 . S
C211 C217 1.363 . S
C212 C213 1.363 . S
C212 C217 1.379 . S
C212 N219 1.356 . S
C213 C212 1.363 . S
C213 C216 1.363 . S
N214 C216 1.356 . S
N214 H226 0.984 . S
N214 H227 0.985 . S
N215 C217 1.356 . S
N215 H220 0.984 . S
N215 H221 0.985 . S
C216 C210 1.379 . S
C216 C213 1.363 . S
C216 N214 1.356 . S
C217 C211 1.363 . S
C217 C212 1.379 . S
C217 N215 1.356 . S
N218 C210 1.356 . S
N218 H224 0.984 . S
N218 H225 0.984 . S
N219 C212 1.356 . S
N219 H222 0.984 . S
N219 H223 0.985 . S
H220 N215 0.984 . S
H221 N215 0.985 . S
H222 N219 0.984 . S
H223 N219 0.985 . S
H224 N218 0.984 . S
H225 N218 0.984 . S
H226 N214 0.984 . S
H227 N214 0.985 . S
C228 C229 1.363 . S
C228 C234 1.379 . S
C228 N236 1.356 . S
C229 C228 1.363 . S
C229 C235 1.363 . S
C230 C231 1.363 . S
C230 C235 1.379 . S
C230 N237 1.356 . S
C231 C230 1.363 . S
C231 C234 1.363 . S
N232 C234 1.356 . S
N232 H244 0.984 . S
N232 H245 0.985 . S
N233 C235 1.356 . S
N233 H238 0.984 . S
N233 H239 0.985 . S
C234 C228 1.379 . S
C234 C231 1.363 . S
C234 N232 1.356 . S
C235 C229 1.363 . S
C235 C230 1.379 . S
C235 N233 1.356 . S
N236 C228 1.356 . S
N236 H242 0.984 . S
N236 H243 0.984 . S
N237 C230 1.356 . S
N237 H240 0.984 . S
N237 H241 0.985 . S
H238 N233 0.984 . S
H239 N233 0.985 . S
H240 N237 0.984 . S
H241 N237 0.985 . S
H242 N236 0.984 . S
H243 N236 0.984 . S
H244 N232 0.984 . S
H245 N232 0.985 . S
C246 C247 1.363 . S
C246 C252 1.379 . S
C246 N254 1.356 . S
C247 C246 1.363 . S
C247 C253 1.363 . S
C248 C249 1.363 . S
C248 C253 1.379 . S
C248 N255 1.356 . S
C249 C248 1.363 . S
C249 C252 1.363 . S
N250 C252 1.356 . S
N250 H262 0.984 . S
N250 H263 0.985 . S
N251 C253 1.356 . S
N251 H256 0.984 . S
N251 H257 0.985 . S
C252 C246 1.379 . S
C252 C249 1.363 . S
C252 N250 1.356 . S
C253 C247 1.363 . S
C253 C248 1.379 . S
C253 N251 1.356 . S
N254 C246 1.356 . S
N254 H260 0.984 . S
N254 H261 0.984 . S
N255 C248 1.356 . S
N255 H258 0.984 . S
N255 H259 0.985 . S
H256 N251 0.984 . S
H257 N251 0.985 . S
H258 N255 0.984 . S
H259 N255 0.985 . S
H260 N254 0.984 . S
H261 N254 0.984 . S
H262 N250 0.984 . S
H263 N250 0.985 . S
C264 C265 1.363 . S
C264 C270 1.379 . S
C264 N272 1.356 . S
C265 C264 1.363 . S
C265 C271 1.363 . S
C266 C267 1.363 . S
C266 C271 1.379 . S
C266 N273 1.356 . S
C267 C266 1.363 . S
C267 C270 1.363 . S
N268 C270 1.356 . S
N268 H280 0.984 . S
N268 H281 0.985 . S
N269 C271 1.356 . S
N269 H274 0.984 . S
N269 H275 0.985 . S
C270 C264 1.379 . S
C270 C267 1.363 . S
C270 N268 1.356 . S
C271 C265 1.363 . S
C271 C266 1.379 . S
C271 N269 1.356 . S
N272 C264 1.356 . S
N272 H278 0.984 . S
N272 H279 0.984 . S
N273 C266 1.356 . S
N273 H276 0.984 . S
N273 H277 0.985 . S
H274 N269 0.984 . S
H275 N269 0.985 . S
H276 N273 0.984 . S
H277 N273 0.985 . S
H278 N272 0.984 . S
H279 N272 0.984 . S
H280 N268 0.984 . S
H281 N268 0.985 . S
C282 C283 1.363 . S
C282 C288 1.379 . S
C282 N290 1.356 . S
C283 C282 1.363 . S
C283 C289 1.363 . S
C284 C285 1.363 . S
C284 C289 1.379 . S
C284 N291 1.356 . S
C285 C284 1.363 . S
C285 C288 1.363 . S
N286 C288 1.356 . S
N286 H298 0.984 . S
N286 H299 0.985 . S
N287 C289 1.356 . S
N287 H292 0.984 . S
N287 H293 0.985 . S
C288 C282 1.379 . S
C288 C285 1.363 . S
C288 N286 1.356 . S
C289 C283 1.363 . S
C289 C284 1.379 . S
C289 N287 1.356 . S
N290 C282 1.356 . S
N290 H296 0.984 . S
N290 H297 0.984 . S
N291 C284 1.356 . S
N291 H294 0.984 . S
N291 H295 0.985 . S
H292 N287 0.984 . S
H293 N287 0.985 . S
H294 N291 0.984 . S
H295 N291 0.985 . S
H296 N290 0.984 . S
H297 N290 0.984 . S
H298 N286 0.984 . S
H299 N286 0.985 . S
C300 C301 1.363 . S
C300 C306 1.379 . S
C300 N308 1.356 . S
C301 C300 1.363 . S
C301 C307 1.363 . S
C302 C303 1.363 . S
C302 C307 1.379 . S
C302 N309 1.356 . S
C303 C302 1.363 . S
C303 C306 1.363 . S
N304 C306 1.356 1_455 S
N304 H316 0.984 . S
N304 H317 0.985 . S
N305 C307 1.356 . S
N305 H310 0.984 . S
N305 H311 0.985 . S
C306 C300 1.379 . S
C306 C303 1.363 . S
C306 N304 1.356 1_655 S
C307 C301 1.363 . S
C307 C302 1.379 . S
C307 N305 1.356 . S
N308 C300 1.356 . S
N308 H314 0.984 1_655 S
N308 H315 0.984 . S
N309 C302 1.356 . S
N309 H312 0.984 . S
N309 H313 0.985 . S
H310 N305 0.984 . S
H311 N305 0.985 . S
H312 N309 0.984 . S
H313 N309 0.985 . S
H314 N308 0.984 1_455 S
H315 N308 0.984 . S
H316 N304 0.984 . S
H317 N304 0.985 . S
C318 C319 1.363 . S
C318 C324 1.379 . S
C318 N326 1.356 . S
C319 C318 1.363 . S
C319 C325 1.363 . S
C320 C321 1.363 . S
C320 C325 1.379 . S
C320 N327 1.356 . S
C321 C320 1.363 . S
C321 C324 1.363 . S
N322 C324 1.356 1_545 S
N322 H334 0.984 . S
N322 H335 0.985 . S
N323 C325 1.356 . S
N323 H328 0.984 . S
N323 H329 0.985 . S
C324 C318 1.379 . S
C324 C321 1.363 . S
C324 N322 1.356 1_565 S
C325 C319 1.363 . S
C325 C320 1.379 . S
C325 N323 1.356 . S
N326 C318 1.356 . S
N326 H332 0.984 1_565 S
N326 H333 0.984 . S
N327 C320 1.356 . S
N327 H330 0.984 . S
N327 H331 0.985 . S
H328 N323 0.984 . S
H329 N323 0.985 . S
H330 N327 0.984 . S
H331 N327 0.985 . S
H332 N326 0.984 1_545 S
H333 N326 0.984 . S
H334 N322 0.984 . S
H335 N322 0.985 . S
C336 C337 1.363 . S
C336 C342 1.379 . S
C336 N344 1.356 . S
C337 C336 1.363 . S
C337 C343 1.363 . S
C338 C339 1.363 . S
C338 C343 1.379 . S
C338 N345 1.356 . S
C339 C338 1.363 . S
C339 C342 1.363 . S
N340 C342 1.356 . S
N340 H352 0.984 . S
N340 H353 0.985 . S
N341 C343 1.356 . S
N341 H346 0.984 . S
N341 H347 0.985 . S
C342 C336 1.379 . S
C342 C339 1.363 . S
C342 N340 1.356 . S
C343 C337 1.363 . S
C343 C338 1.379 . S
C343 N341 1.356 . S
N344 C336 1.356 . S
N344 H350 0.984 . S
N344 H351 0.984 . S
N345 C338 1.356 . S
N345 H348 0.984 . S
N345 H349 0.985 . S
H346 N341 0.984 . S
H347 N341 0.985 . S
H348 N345 0.984 . S
H349 N345 0.985 . S
H350 N344 0.984 . S
H351 N344 0.984 . S
H352 N340 0.984 . S
H353 N340 0.985 . S
C354 C355 1.363 . S
C354 C360 1.379 . S
C354 N362 1.356 . S
C355 C354 1.363 . S
C355 C361 1.363 . S
C356 C357 1.363 . S
C356 C361 1.379 . S
C356 N363 1.356 . S
C357 C356 1.363 . S
C357 C360 1.363 . S
N358 C360 1.356 . S
N358 H370 0.984 1_455 S
N358 H371 0.983 1_455 S
N359 C361 1.356 . S
N359 H364 0.984 . S
N359 H365 0.985 . S
C360 C354 1.379 . S
C360 C357 1.363 . S
C360 N358 1.356 . S
C361 C355 1.363 . S
C361 C356 1.379 . S
C361 N359 1.356 . S
N362 C354 1.356 . S
N362 H368 0.984 . S
N362 H369 0.984 . S
N363 C356 1.356 . S
N363 H366 0.984 . S
N363 H367 0.985 . S
H364 N359 0.984 . S
H365 N359 0.985 . S
H366 N363 0.984 . S
H367 N363 0.985 . S
H368 N362 0.984 . S
H369 N362 0.984 . S
H370 N358 0.984 1_655 S
H371 N358 0.983 1_655 S
C372 C373 1.363 . S
C372 C378 1.379 . S
C372 N380 1.356 . S
C373 C372 1.363 . S
C373 C379 1.363 . S
C374 C375 1.363 . S
C374 C379 1.379 . S
C374 N381 1.356 . S
C375 C374 1.363 . S
C375 C378 1.363 . S
N376 C378 1.356 . S
N376 H388 0.984 . S
N376 H389 0.985 . S
N377 C379 1.356 . S
N377 H382 0.984 . S
N377 H383 0.985 . S
C378 C372 1.379 . S
C378 C375 1.363 . S
C378 N376 1.356 . S
C379 C373 1.363 . S
C379 C374 1.379 . S
C379 N377 1.356 . S
N380 C372 1.356 . S
N380 H386 0.984 . S
N380 H387 0.984 . S
N381 C374 1.356 . S
N381 H384 0.984 . S
N381 H385 0.985 . S
H382 N377 0.984 . S
H383 N377 0.985 . S
H384 N381 0.984 . S
H385 N381 0.985 . S
H386 N380 0.984 . S
H387 N380 0.984 . S
H388 N376 0.984 . S
H389 N376 0.985 . S
C390 C391 1.363 . S
C390 C396 1.379 . S
C390 N398 1.356 . S
C391 C390 1.363 . S
C391 C397 1.363 . S
C392 C393 1.362 1_554 S
C392 C397 1.382 . S
C392 N399 1.354 1_454 S
C393 C392 1.362 1_556 S
C393 C396 1.363 1_556 S
N394 C396 1.356 1_556 S
N394 H406 0.984 1_556 S
N394 H407 0.985 . S
N395 C397 1.356 . S
N395 H400 0.984 . S
N395 H401 0.985 . S
C396 C390 1.379 . S
C396 C393 1.363 1_554 S
C396 N394 1.356 1_554 S
C397 C391 1.363 . S
C397 C392 1.382 . S
C397 N395 1.356 . S
N398 C390 1.356 . S
N398 H404 0.984 . S
N398 H405 0.984 . S
N399 C392 1.354 1_656 S
N399 H402 0.985 . S
N399 H403 0.984 . S
H400 N395 0.984 . S
H401 N395 0.985 . S
H402 N399 0.985 . S
H403 N399 0.984 . S
H404 N398 0.984 . S
H405 N398 0.984 . S
H406 N394 0.984 1_554 S
H407 N394 0.985 . S
C408 C409 1.363 . S
C408 C414 1.379 . S
C408 N416 1.356 . S
C409 C408 1.363 . S
C409 C415 1.363 1_545 S
C410 C411 1.363 . S
C410 C415 1.379 1_545 S
C410 N417 1.356 1_545 S
C411 C410 1.363 . S
C411 C414 1.363 . S
N412 C414 1.356 . S
N412 H424 0.984 . S
N412 H425 0.985 . S
N413 C415 1.356 . S
N413 H418 0.984 . S
N413 H419 0.985 . S
C414 C408 1.379 . S
C414 C411 1.363 . S
C414 N412 1.356 . S
C415 C409 1.363 1_565 S
C415 C410 1.379 1_565 S
C415 N413 1.356 . S
N416 C408 1.356 . S
N416 H422 0.984 . S
N416 H423 0.984 . S
N417 C410 1.356 1_565 S
N417 H420 0.984 . S
N417 H421 0.985 . S
H418 N413 0.984 . S
H419 N413 0.985 . S
H420 N417 0.984 . S
H421 N417 0.985 . S
H422 N416 0.984 . S
H423 N416 0.984 . S
H424 N412 0.984 . S
H425 N412 0.985 . S
C426 C427 1.363 . S
C426 C432 1.379 . S
C426 N434 1.356 . S
C427 C426 1.363 . S
C427 C433 1.363 . S
C428 C429 1.363 . S
C428 C433 1.379 . S
C428 N435 1.356 . S
C429 C428 1.363 . S
C429 C432 1.363 . S
N430 C432 1.356 . S
N430 H442 0.984 . S
N430 H443 0.985 . S
N431 C433 1.356 . S
N431 H436 0.984 . S
N431 H437 0.985 . S
C432 C426 1.379 . S
C432 C429 1.363 . S
C432 N430 1.356 . S
C433 C427 1.363 . S
C433 C428 1.379 . S
C433 N431 1.356 . S
N434 C426 1.356 . S
N434 H440 0.984 . S
N434 H441 0.984 . S
N435 C428 1.356 . S
N435 H438 0.984 . S
N435 H439 0.985 . S
H436 N431 0.984 . S
H437 N431 0.985 . S
H438 N435 0.984 . S
H439 N435 0.985 . S
H440 N434 0.984 . S
H441 N434 0.984 . S
H442 N430 0.984 . S
H443 N430 0.985 . S
C444 C445 1.363 . S
C444 C450 1.379 . S
C444 N452 1.356 . S
C445 C444 1.363 . S
C445 C451 1.363 1_545 S
C446 C447 1.363 1_565 S
C446 C451 1.379 . S
C446 N453 1.356 . S
C447 C446 1.363 1_545 S
C447 C450 1.363 . S
N448 C450 1.356 . S
N448 H460 0.984 . S
N448 H461 0.985 . S
N449 C451 1.356 . S
N449 H454 0.984 . S
N449 H455 0.985 . S
C450 C444 1.379 . S
C450 C447 1.363 . S
C450 N448 1.356 . S
C451 C445 1.363 1_565 S
C451 C446 1.379 . S
C451 N449 1.356 . S
N452 C444 1.356 . S
N452 H458 0.984 . S
N452 H459 0.984 . S
N453 C446 1.356 . S
N453 H456 0.984 . S
N453 H457 0.985 . S
H454 N449 0.984 . S
H455 N449 0.985 . S
H456 N453 0.984 . S
H457 N453 0.985 . S
H458 N452 0.984 . S
H459 N452 0.984 . S
H460 N448 0.984 . S
H461 N448 0.985 . S
C462 C463 1.363 . S
C462 C468 1.379 . S
C462 N470 1.356 . S
C463 C462 1.363 . S
C463 C469 1.363 . S
C464 C465 1.363 1_556 S
C464 C469 1.379 . S
C464 N471 1.356 1_556 S
C465 C464 1.363 1_554 S
C465 C468 1.363 1_554 S
N466 C468 1.356 1_554 S
N466 H478 0.984 . S
N466 H479 0.985 . S
N467 C469 1.356 . S
N467 H472 0.984 . S
N467 H473 0.985 . S
C468 C462 1.379 . S
C468 C465 1.363 1_556 S
C468 N466 1.356 1_556 S
C469 C463 1.363 . S
C469 C464 1.379 . S
C469 N467 1.356 . S
N470 C462 1.356 . S
N470 H476 0.984 . S
N470 H477 0.984 . S
N471 C464 1.356 1_554 S
N471 H474 0.984 . S
N471 H475 0.985 . S
H472 N467 0.984 . S
H473 N467 0.985 . S
H474 N471 0.984 . S
H475 N471 0.985 . S
H476 N470 0.984 . S
H477 N470 0.984 . S
H478 N466 0.984 . S
H479 N466 0.985 . S
C480 C481 1.363 1_655 S
C480 C486 1.379 . S
C480 N488 1.356 . S
C481 C480 1.363 1_455 S
C481 C487 1.363 . S
C482 C483 1.363 . S
C482 C487 1.379 . S
C482 N489 1.356 . S
C483 C482 1.363 . S
C483 C486 1.363 1_455 S
N484 C486 1.356 . S
N484 H496 0.984 . S
N484 H497 0.985 . S
N485 C487 1.356 . S
N485 H490 0.984 . S
N485 H491 0.985 . S
C486 C480 1.379 . S
C486 C483 1.363 1_655 S
C486 N484 1.356 . S
C487 C481 1.363 . S
C487 C482 1.379 . S
C487 N485 1.356 . S
N488 C480 1.356 . S
N488 H494 0.984 . S
N488 H495 0.984 . S
N489 C482 1.356 . S
N489 H492 0.984 . S
N489 H493 0.985 . S
H490 N485 0.984 . S
H491 N485 0.985 . S
H492 N489 0.984 . S
H493 N489 0.985 . S
H494 N488 0.984 . S
H495 N488 0.984 . S
H496 N484 0.984 . S
H497 N484 0.985 . S
C175 C10 2.963 . S
C177 C169 2.970 . S
C193 C59 3.045 . S
C195 C151 3.012 1_655 S
C211 C90 2.953 . S
C213 C163 2.949 . S
C229 C19 3.033 . S
C231 C172 2.996 . S
C249 C154 2.948 . S
C247 C50 2.953 . S
C267 C160 3.016 . S
C265 C99 3.045 . S
C283 C46 0.929 . S
C285 C133 1.016 . S
C301 C95 0.950 . S
C303 C142 1.077 . S
C319 C6 0.928 . S
C321 C124 1.014 1_565 S
C339 C136 1.073 . S
C337 C55 0.943 . S
C357 C145 1.006 . S
C355 C86 0.921 . S
C373 C15 0.943 . S
C375 C127 1.074 . S
C393 C143 0.879 . S
C391 C9 0.876 . S
C409 C49 0.877 . S
C411 C125 0.881 . S
C427 C89 0.878 . S
C429 C134 0.882 . S
C447 C161 1.842 . S
C445 C58 1.745 . S
C465 C170 1.840 . S
C463 C98 1.747 . S
C481 C18 1.745 . S
C483 C152 1.842 . S
