# Generated by pormake.
# Topology pts, (4,4)-cn, num edge types: 1
# Building blocks:
#     Node 0, Type 0, BuildingBlock: MIFKUJ_clean_linker_1, # of connection points: 4
#     Node 1, Type 0, BuildingBlock: MIFKUJ_clean_linker_1, # of connection points: 4
#     Node 2, Type 1, BuildingBlock: AZAVOO_clean_sbu_0, # of connection points: 4
#     Node 3, Type 1, BuildingBlock: AZAVOO_clean_sbu_0, # of connection points: 4
#     Edge 4, Type (0, 1), BuildingBlock: XIVTED_clean_linker_0, # of connection points: 2
#     Edge 5, Type (0, 1), BuildingBlock: XIVTED_clean_linker_0, # of connection points: 2
#     Edge 6, Type (0, 1), BuildingBlock: XIVTED_clean_linker_0, # of connection points: 2
#     Edge 7, Type (0, 1), BuildingBlock: XIVTED_clean_linker_0, # of connection points: 2
#     Edge 8, Type (0, 1), BuildingBlock: XIVTED_clean_linker_0, # of connection points: 2
#     Edge 9, Type (0, 1), BuildingBlock: XIVTED_clean_linker_0, # of connection points: 2
#     Edge 10, Type (0, 1), BuildingBlock: XIVTED_clean_linker_0, # of connection points: 2
#     Edge 11, Type (0, 1), BuildingBlock: XIVTED_clean_linker_0, # of connection points: 2
# Relax obj value: 0.003
# Max RMSD: 0.043
# Mean RMSD: 0.032
data_MOF--net-pts--node1-AZAVOO_clean_sbu_0--node2-MIFKUJ_clean_linker_1--edge1-XIVTED_clean_linker_0
_symmetry_space_group_name_H-M    P1
_symmetry_Int_Tables_number       1
_symmetry_cell_setting            triclinic
loop_
_symmetry_equiv_pos_as_xyz
'x, y, z'
_cell_length_a     29.688485
_cell_length_b     30.674811
_cell_length_c     41.724985
_cell_angle_alpha  89.899106
_cell_angle_beta   96.227107
_cell_angle_gamma 89.883605
loop_
_atom_site_label
_atom_site_type_symbol
_atom_site_fract_x
_atom_site_fract_y
_atom_site_fract_z
_atom_type_partial_charge
H0 H 0.59429 0.99029 0.06937 0.0
H1 H 0.66605 0.97609 0.10133 0.0
H2 H 0.72794 0.08027 0.05155 0.0
H3 H 0.65471 0.09675 0.02163 0.0
H4 H 0.53884 0.05222 0.06611 0.0
H5 H 0.62421 0.98545 0.98916 0.0
H6 H 0.68722 0.97368 0.9571 0.0
H7 H 0.66383 0.10087 0.91365 0.0
H8 H 0.60153 0.11295 0.94664 0.0
H9 H 0.45463 0.12507 0.94554 0.0
H10 H 0.38327 0.12333 0.91017 0.0
H11 H 0.34909 0.00114 0.9531 0.0
H12 H 0.42036 0.00307 0.9883 0.0
H13 H 0.52299 0.06563 0.94701 0.0
H14 H 0.42089 0.11742 0.02335 0.0
H15 H 0.35444 0.11106 0.05324 0.0
H16 H 0.40874 0.99112 0.09629 0.0
H17 H 0.47355 -0.00331 0.06559 0.0
C18 C 0.6189 0.04444 0.04283 0.0
C19 C 0.62315 0.01046 0.06555 0.0
C20 C 0.66466 0.00187 0.0835 0.0
C21 C 0.70335 0.02658 0.07888 0.0
C22 C 0.699 0.0607 0.05609 0.0
C23 C 0.65713 0.06985 0.03857 0.0
C24 C 0.57436 0.05278 0.02373 0.0
C25 C 0.5354 0.05493 0.04003 0.0
C26 C 0.56975 0.05695 0.98972 0.0
C27 C 0.60849 0.05029 0.97056 0.0
C28 C 0.63301 0.01103 0.97303 0.0
C29 C 0.66878 0.0042 0.95446 0.0
C30 C 0.68054 0.03633 0.93276 0.0
C31 C 0.65603 0.07572 0.93043 0.0
C32 C 0.62019 0.08253 0.94904 0.0
C33 C 0.44265 0.06447 0.96979 0.0
C34 C 0.43153 0.09814 0.94751 0.0
C35 C 0.39082 0.09702 0.92727 0.0
C36 C 0.3605 0.06208 0.92882 0.0
C37 C 0.37131 0.02886 0.95165 0.0
C38 C 0.4121 0.02991 0.97178 0.0
C39 C 0.48747 0.06391 0.98937 0.0
C40 C 0.52654 0.06365 0.97313 0.0
C41 C 0.49196 0.05958 0.02334 0.0
C42 C 0.45209 0.05732 0.04199 0.0
C43 C 0.41819 0.0896 0.03905 0.0
C44 C 0.38042 0.08612 0.05634 0.0
C45 C 0.37598 0.05035 0.07692 0.0
C46 C 0.41046 0.01861 0.08015 0.0
C47 C 0.44793 0.02203 0.06287 0.0
H48 H 0.08641 0.42689 0.45657 0.0
H49 H 0.07962 0.36407 0.42062 0.0
H50 H 0.93816 0.35218 0.43551 0.0
H51 H 0.946 0.41402 0.47254 0.0
H52 H 0.03756 0.50503 0.45128 0.0
H53 H 0.06224 0.38377 0.52258 0.0
H54 H 0.04724 0.31552 0.54944 0.0
H55 H 0.92954 0.37324 0.58503 0.0
H56 H 0.94419 0.44159 0.55743 0.0
H57 H 0.97119 0.5698 0.56759 0.0
H58 H 0.98335 0.62868 0.60675 0.0
H59 H 0.11941 0.64577 0.58094 0.0
H60 H 0.1066 0.58717 0.54132 0.0
H61 H 0.01427 0.49431 0.56687 0.0
H62 H 0.99032 0.61668 0.49788 0.0
H63 H 0.99861 0.68234 0.46615 0.0
H64 H 0.10967 0.62205 0.42352 0.0
H65 H 0.10325 0.55787 0.45703 0.0
C66 C 0.01683 0.4247 0.46739 0.0
C67 C 0.05398 0.41065 0.45202 0.0
C68 C 0.04988 0.37495 0.43125 0.0
C69 C 0.0083 0.35298 0.42504 0.0
C70 C 0.9709 0.36776 0.44013 0.0
C71 C 0.97521 0.40319 0.46122 0.0
C72 C 0.02163 0.46254 0.48936 0.0
C73 C 0.03325 0.50276 0.47673 0.0
C74 C 0.01402 0.45951 0.52214 0.0
C75 C 0.00384 0.41755 0.53744 0.0
C76 C 0.03262 0.38154 0.53552 0.0
C77 C 0.02409 0.34259 0.551 0.0
C78 C 0.98701 0.33904 0.56913 0.0
C79 C 0.95842 0.37518 0.57131 0.0
C80 C 0.96671 0.4141 0.55551 0.0
C81 C 0.03783 0.5744 0.55137 0.0
C82 C 0.0036 0.58632 0.57034 0.0
C83 C 0.01078 0.61971 0.59293 0.0
C84 C 0.05251 0.64169 0.59719 0.0
C85 C 0.08674 0.62977 0.57805 0.0
C86 C 0.07946 0.59639 0.55534 0.0
C87 C 0.0308 0.53715 0.52892 0.0
C88 C 0.01865 0.4969 0.54145 0.0
C89 C 0.03769 0.5403 0.49596 0.0
C90 C 0.04634 0.58232 0.48006 0.0
C91 C 0.01743 0.61814 0.48252 0.0
C92 C 0.02169 0.65544 0.46384 0.0
C93 C 0.05439 0.65739 0.44183 0.0
C94 C 0.08438 0.62206 0.44035 0.0
C95 C 0.08051 0.58508 0.45936 0.0
Mg96 Mg 0.0738 -0.00607 0.27605 0.0
O97 O 0.00865 0.9868 0.241 0.0
O98 O 0.95266 0.96891 0.27044 0.0
Mg99 Mg 0.98009 0.96724 0.32362 0.0
C100 C 0.96728 0.97712 0.24341 0.0
C101 C 0.14731 -0.00146 0.2317 0.0
O102 O 0.15714 0.96498 0.25078 0.0
O103 O 0.04908 0.06087 0.29102 0.0
O104 O 0.9949 0.04029 0.32116 0.0
O105 O 0.08841 0.92193 0.2752 0.0
O106 O 0.04723 0.95318 0.30955 0.0
C107 C 0.01844 0.06989 0.30931 0.0
C108 C 0.06407 0.91816 0.2989 0.0
O109 O 0.11265 0.02146 0.23583 0.0
Mg110 Mg 0.99111 0.98119 0.73931 0.0
O111 O 0.05918 -0.00022 0.76802 0.0
O112 O 0.11073 -0.00377 0.73275 0.0
Mg113 Mg 0.07867 0.97147 0.68401 0.0
C114 C 0.09979 0.00421 0.76093 0.0
C115 C 0.91779 0.98015 0.78324 0.0
O116 O 0.91314 0.94448 0.7658 0.0
O117 O 0.98795 0.04718 0.71289 0.0
O118 O 0.03694 0.03372 0.67692 0.0
O119 O 0.00227 0.90988 0.75091 0.0
O120 O 0.02467 0.9427 0.70849 0.0
C121 C 0.00729 0.05788 0.6881 0.0
C122 C 0.02272 0.90764 0.72512 0.0
O123 O 0.94992 0.00605 0.77875 0.0
H124 H 0.33083 0.11397 0.10771 0.0
H125 H 0.20065 0.94106 0.20427 0.0
H126 H 0.32954 0.97588 0.08786 0.0
H127 H 0.15906 0.076 0.19968 0.0
H128 H 0.25099 0.95507 0.16326 0.0
H129 H 0.26974 0.10309 0.14217 0.0
C130 C 0.31739 0.08151 0.11023 0.0
C131 C 0.33597 0.04565 0.09528 0.0
C132 C 0.23069 0.98167 0.17095 0.0
C133 C 0.26675 0.03305 0.13493 0.0
C134 C 0.20206 0.97374 0.19454 0.0
C135 C 0.17579 0.00748 0.20552 0.0
C136 C 0.2339 0.0239 0.15845 0.0
C137 C 0.17876 0.04909 0.19181 0.0
C138 C 0.28264 0.07535 0.12997 0.0
C139 C 0.31728 0.00432 0.09957 0.0
N140 N 0.20782 0.05633 0.16918 0.0
N141 N 0.28416 -0.00086 0.11922 0.0
H142 H 0.96716 0.32785 0.63142 0.0
H143 H 0.00964 0.07191 0.62444 0.0
H144 H 0.98934 0.25649 0.5455 0.0
H145 H 0.97575 0.13565 0.71079 0.0
H146 H 0.99544 0.13932 0.59477 0.0
H147 H 0.96299 0.25848 0.6604 0.0
C148 C 0.97045 0.29757 0.61856 0.0
C149 C 0.97924 0.29781 0.58615 0.0
C150 C 0.99077 0.13883 0.62015 0.0
C151 C 0.97484 0.21876 0.61905 0.0
C152 C 0.99908 0.10026 0.63719 0.0
C153 C 0.99454 0.09839 0.67025 0.0
C154 C 0.97839 0.17636 0.63626 0.0
C155 C 0.97987 0.1359 0.68533 0.0
C156 C 0.96825 0.25807 0.63512 0.0
C157 C 0.98345 0.25779 0.57065 0.0
N158 N 0.97289 0.17371 0.66827 0.0
N159 N 0.98155 0.21999 0.58729 0.0
H160 H 0.77044 0.08456 0.10145 0.0
H161 H 0.89234 0.92651 0.23016 0.0
H162 H 0.73769 0.94728 0.10121 0.0
H163 H 0.9658 0.0321 0.19162 0.0
H164 H 0.83208 0.93574 0.18572 0.0
H165 H 0.83973 0.06885 0.13668 0.0
C166 C 0.77788 0.05106 0.10832 0.0
C167 C 0.74749 0.01732 0.09844 0.0
C168 C 0.8617 0.95645 0.18674 0.0
C169 C 0.82637 -0.00046 0.13962 0.0
C170 C 0.89598 0.95128 0.21208 0.0
C171 C 0.93399 0.97861 0.21449 0.0
C172 C 0.86487 0.99 0.1642 0.0
C173 C 0.93711 0.01022 0.19047 0.0
C174 C 0.81746 0.04222 0.12858 0.0
C175 C 0.75909 0.97467 0.10884 0.0
N176 N 0.90253 0.01563 0.16658 0.0
N177 N 0.79719 0.96713 0.12921 0.0
H178 H 0.09595 0.71929 0.59034 0.0
H179 H 0.00906 0.82477 0.74709 0.0
H180 H 0.02489 0.6466 0.65786 0.0
H181 H 0.0749 0.89545 0.6758 0.0
H182 H 0.02633 0.75646 0.72049 0.0
H183 H 0.10049 0.7811 0.62705 0.0
C184 C 0.08188 0.71605 0.61311 0.0
C185 C 0.05945 0.67786 0.62079 0.0
C186 C 0.03761 0.78699 0.71106 0.0
C187 C 0.06374 0.749 0.66279 0.0
C188 C 0.02795 0.82596 0.7263 0.0
C189 C 0.04004 0.86604 0.71345 0.0
C190 C 0.05953 0.78831 0.68284 0.0
C191 C 0.06445 0.8656 0.68648 0.0
C192 C 0.08424 0.75151 0.63403 0.0
C193 C 0.04152 0.67581 0.65058 0.0
N194 N 0.07294 0.82746 0.67192 0.0
N195 N 0.0436 0.71107 0.67035 0.0
H196 H 0.27474 0.03624 0.93974 0.0
H197 H 0.1846 0.03293 0.75235 0.0
H198 H 0.35257 0.07964 0.86419 0.0
H199 H 0.09798 0.00676 0.82682 0.0
H200 H 0.24583 0.05124 0.79359 0.0
H201 H 0.2091 0.02608 0.89949 0.0
C202 C 0.27797 0.04379 0.91473 0.0
C203 C 0.31928 0.05875 0.90533 0.0
C204 C 0.21341 0.04175 0.80101 0.0
C205 C 0.24439 0.04724 0.85921 0.0
C206 C 0.17835 0.03114 0.77741 0.0
C207 C 0.13605 0.01797 0.78608 0.0
C208 C 0.20652 0.03885 0.8337 0.0
C209 C 0.13001 0.0167 0.81901 0.0
C210 C 0.24045 0.03818 0.89181 0.0
C211 C 0.32136 0.06851 0.87265 0.0
N212 N 0.16501 0.02665 0.84166 0.0
N213 N 0.28461 0.0623 0.85081 0.0
H214 H 0.95907 0.27871 0.43205 0.0
H215 H 0.06936 0.14275 0.29887 0.0
H216 H 0.04917 0.33763 0.36984 0.0
H217 H 0.95215 0.10082 0.34361 0.0
H218 H 0.06261 0.2149 0.32319 0.0
H219 H 0.95618 0.2135 0.39896 0.0
C220 C 0.97778 0.27829 0.41118 0.0
C221 C 0.00449 0.3139 0.40387 0.0
C222 C 0.03811 0.18995 0.32729 0.0
C223 C 0.00219 0.23844 0.36615 0.0
C224 C 0.04189 0.14881 0.31338 0.0
C225 C 0.01172 0.11541 0.31958 0.0
C226 C 0.00415 0.19747 0.34763 0.0
C227 C 0.97668 0.12523 0.33851 0.0
C228 C 0.9763 0.24082 0.39234 0.0
C229 C 0.02879 0.31074 0.37682 0.0
N230 N 0.97422 0.16511 0.35212 0.0
N231 N 0.02738 0.27351 0.3591 0.0
H232 H 0.69756 0.96103 0.90121 0.0
H233 H 0.91014 0.05432 0.81963 0.0
H234 H 0.74661 0.09255 0.91634 0.0
H235 H 0.85112 0.9272 0.80067 0.0
H236 H 0.85364 0.06857 0.85723 0.0
H237 H 0.75695 0.94751 0.86655 0.0
C238 C 0.72109 0.98701 0.89746 0.0
C239 C 0.71711 0.02796 0.91184 0.0
C240 C 0.85321 0.03757 0.84483 0.0
C241 C 0.78518 0.01285 0.87162 0.0
C242 C 0.88548 0.02939 0.82344 0.0
C243 C 0.8853 0.98956 0.80688 0.0
C244 C 0.82076 0.00559 0.84974 0.0
C245 C 0.85254 0.95846 0.81274 0.0
C246 C 0.75489 0.97936 0.87745 0.0
C247 C 0.74814 0.06062 0.90552 0.0
N248 N 0.8217 0.96715 0.8336 0.0
N249 N 0.78091 0.05236 0.88589 0.0
H250 H 0.12877 0.6957 0.41931 0.0
H251 H 0.99244 0.89053 0.3297 0.0
H252 H 0.98273 0.70444 0.41227 0.0
H253 H 0.12351 0.85014 0.30497 0.0
H254 H 0.98927 0.82524 0.36284 0.0
H255 H 0.12919 0.75544 0.38055 0.0
C256 C 0.09677 0.70993 0.40958 0.0
C257 C 0.05564 0.6949 0.41928 0.0
C258 C 0.01853 0.83043 0.34991 0.0
C259 C 0.05611 0.76381 0.37527 0.0
C260 C 0.02043 0.86781 0.33109 0.0
C261 C 0.05847 0.87593 0.31484 0.0
C262 C 0.05536 0.80143 0.35301 0.0
C263 C 0.09349 0.84495 0.31708 0.0
C264 C 0.0971 0.74408 0.38747 0.0
C265 C 0.01536 0.71537 0.40617 0.0
N266 N 0.09143 0.80929 0.33626 0.0
N267 N 0.01665 0.74889 0.385 0.0
loop_
_geom_bond_atom_site_label_1
_geom_bond_atom_site_label_2
_geom_bond_distance
_geom_bond_site_symmetry_2
_ccdc_geom_bond_type
H0 C19 0.949 . S
H1 C20 0.950 . S
H2 C22 0.950 . S
H3 C23 0.950 . S
H4 C25 0.946 1_565 S
H5 C28 0.950 . S
H6 C29 0.950 . S
H7 C31 0.951 . S
H8 C32 0.949 . S
H9 C34 0.949 . S
H10 C35 0.950 . S
H11 C37 0.950 . S
H12 C38 0.950 . S
H13 C40 0.950 . S
H14 C43 0.950 . S
H15 C44 0.950 . S
H16 C46 0.951 . S
H17 C47 0.949 . S
C18 C19 1.376 1_545 S
C18 C23 1.386 . S
C18 C24 1.483 . S
C19 H0 0.949 . S
C19 C18 1.376 1_565 S
C19 C20 1.397 . S
C20 H1 0.950 . S
C20 C19 1.397 . S
C20 C21 1.391 1_565 S
C21 C20 1.391 1_545 S
C21 C22 1.405 . S
C22 H2 0.950 . S
C22 C21 1.405 . S
C22 C23 1.367 . S
C23 H3 0.950 . S
C23 C18 1.386 . S
C23 C22 1.367 . S
C24 C18 1.483 . S
C24 C25 1.384 . S
C24 C26 1.403 1_554 S
C25 H4 0.946 1_545 S
C25 C24 1.384 . S
C25 C41 1.413 . S
C26 C24 1.403 1_556 S
C26 C27 1.489 . S
C26 C40 1.411 . S
C27 C26 1.489 . S
C27 C28 1.383 1_545 S
C27 C32 1.382 . S
C28 H5 0.950 . S
C28 C27 1.383 1_565 S
C28 C29 1.395 . S
C29 H6 0.950 . S
C29 C28 1.395 . S
C29 C30 1.288 1_565 S
C30 C29 1.288 1_545 S
C30 C31 1.392 . S
C31 H7 0.951 . S
C31 C30 1.392 . S
C31 C32 1.392 . S
C32 H8 0.949 . S
C32 C27 1.382 . S
C32 C31 1.392 . S
C33 C34 1.376 . S
C33 C38 1.386 1_545 S
C33 C39 1.483 . S
C34 H9 0.949 . S
C34 C33 1.376 . S
C34 C35 1.397 . S
C35 H10 0.950 . S
C35 C34 1.397 . S
C35 C36 1.391 . S
C36 C35 1.391 . S
C36 C37 1.405 1_545 S
C37 H11 0.950 . S
C37 C36 1.405 1_565 S
C37 C38 1.367 . S
C38 H12 0.950 . S
C38 C33 1.386 1_565 S
C38 C37 1.367 . S
C39 C33 1.483 . S
C39 C40 1.382 . S
C39 C41 1.403 1_556 S
C40 H13 0.950 . S
C40 C26 1.411 . S
C40 C39 1.382 . S
C41 C25 1.413 . S
C41 C39 1.403 1_554 S
C41 C42 1.489 . S
C42 C41 1.489 . S
C42 C43 1.383 . S
C42 C47 1.382 1_545 S
C43 H14 0.950 . S
C43 C42 1.383 . S
C43 C44 1.395 . S
C44 H15 0.950 . S
C44 C43 1.395 . S
C44 C45 1.288 . S
C45 C44 1.288 . S
C45 C46 1.392 1_545 S
C46 H16 0.951 . S
C46 C45 1.392 1_565 S
C46 C47 1.392 . S
C47 H17 0.949 . S
C47 C42 1.382 1_565 S
C47 C46 1.392 . S
H48 C67 0.949 . S
H49 C68 0.950 . S
H50 C70 0.950 . S
H51 C71 0.950 . S
H52 C73 0.950 . S
H53 C76 0.950 . S
H54 C77 0.950 . S
H55 C79 0.951 . S
H56 C80 0.949 . S
H57 C82 0.949 . S
H58 C83 0.950 . S
H59 C85 0.950 . S
H60 C86 0.950 . S
H61 C88 0.950 . S
H62 C91 0.950 1_655 S
H63 C92 0.950 1_655 S
H64 C94 0.951 . S
H65 C95 0.949 . S
C66 C67 1.376 . S
C66 C71 1.386 1_455 S
C66 C72 1.483 . S
C67 H48 0.949 . S
C67 C66 1.376 . S
C67 C68 1.397 . S
C68 H49 0.950 . S
C68 C67 1.397 . S
C68 C69 1.391 . S
C69 C68 1.391 . S
C69 C70 1.405 1_455 S
C70 H50 0.950 . S
C70 C69 1.405 1_655 S
C70 C71 1.367 . S
C71 H51 0.950 . S
C71 C66 1.386 1_655 S
C71 C70 1.367 . S
C72 C66 1.483 . S
C72 C73 1.382 . S
C72 C74 1.403 . S
C73 H52 0.950 . S
C73 C72 1.382 . S
C73 C89 1.411 . S
C74 C72 1.403 . S
C74 C75 1.489 . S
C74 C88 1.411 . S
C75 C74 1.489 . S
C75 C76 1.383 . S
C75 C80 1.382 1_455 S
C76 H53 0.950 . S
C76 C75 1.383 . S
C76 C77 1.395 . S
C77 H54 0.950 . S
C77 C76 1.395 . S
C77 C78 1.288 . S
C78 C77 1.288 . S
C78 C79 1.392 1_455 S
C79 H55 0.951 . S
C79 C78 1.392 1_655 S
C79 C80 1.392 . S
C80 H56 0.949 . S
C80 C75 1.382 1_655 S
C80 C79 1.392 . S
C81 C82 1.376 1_455 S
C81 C86 1.386 . S
C81 C87 1.483 . S
C82 H57 0.949 . S
C82 C81 1.376 1_655 S
C82 C83 1.397 . S
C83 H58 0.950 . S
C83 C82 1.397 . S
C83 C84 1.391 1_655 S
C84 C83 1.391 1_455 S
C84 C85 1.405 . S
C85 H59 0.950 . S
C85 C84 1.405 . S
C85 C86 1.367 . S
C86 H60 0.950 . S
C86 C81 1.386 . S
C86 C85 1.367 . S
C87 C81 1.483 . S
C87 C88 1.382 . S
C87 C89 1.403 . S
C88 H61 0.950 . S
C88 C74 1.411 . S
C88 C87 1.382 . S
C89 C73 1.411 . S
C89 C87 1.403 . S
C89 C90 1.489 . S
C90 C89 1.489 . S
C90 C91 1.383 . S
C90 C95 1.382 . S
C91 H62 0.950 1_455 S
C91 C90 1.383 . S
C91 C92 1.395 . S
C92 H63 0.950 1_455 S
C92 C91 1.395 . S
C92 C93 1.288 . S
C93 C92 1.288 . S
C93 C94 1.392 . S
C94 H64 0.951 . S
C94 C93 1.392 . S
C94 C95 1.392 . S
C95 H65 0.949 . S
C95 C90 1.382 . S
C95 C94 1.392 . S
Mg96 O97 2.028 . S
Mg96 O103 1.986 . S
Mg96 O105 2.114 1_545 S
Mg96 O106 2.251 1_545 S
Mg96 O109 2.010 . S
O97 Mg96 2.028 . S
O97 C100 1.250 1_455 S
O98 Mg99 2.028 . S
O98 C100 1.248 . S
Mg99 O98 2.028 . S
Mg99 O104 2.032 1_655 S
Mg99 O106 2.079 1_645 S
C100 O97 1.250 1_655 S
C100 O98 1.248 . S
C101 O102 1.264 . S
C101 O109 1.249 . S
O102 C101 1.264 . S
O103 Mg96 1.986 . S
O103 C107 1.246 . S
O104 Mg99 2.032 1_455 S
O104 C107 1.259 . S
O105 Mg96 2.114 1_565 S
O105 C108 1.252 . S
O106 Mg96 2.251 1_565 S
O106 Mg99 2.079 1_465 S
O106 C108 1.273 . S
C107 O103 1.246 . S
C107 O104 1.259 . S
C108 O105 1.252 . S
C108 O106 1.273 . S
O109 Mg96 2.010 . S
O109 C101 1.249 . S
Mg110 O111 2.028 1_655 S
Mg110 O117 1.986 . S
Mg110 O119 2.114 1_545 S
Mg110 O120 2.251 1_645 S
Mg110 O123 2.010 . S
O111 Mg110 2.028 1_455 S
O111 C114 1.250 . S
O112 Mg113 2.028 . S
O112 C114 1.248 . S
Mg113 O112 2.028 . S
Mg113 O118 2.032 . S
Mg113 O120 2.079 1_545 S
C114 O111 1.250 . S
C114 O112 1.248 . S
C115 O116 1.264 . S
C115 O123 1.249 . S
O116 C115 1.264 . S
O117 Mg110 1.986 . S
O117 C121 1.246 1_655 S
O118 Mg113 2.032 . S
O118 C121 1.259 . S
O119 Mg110 2.114 1_565 S
O119 C122 1.252 1_655 S
O120 Mg110 2.251 1_465 S
O120 Mg113 2.079 1_565 S
O120 C122 1.273 . S
C121 O117 1.246 1_455 S
C121 O118 1.259 . S
C122 O119 1.252 1_455 S
C122 O120 1.273 . S
O123 Mg110 2.010 . S
O123 C115 1.249 . S
H124 C130 0.930 . S
H125 C134 0.930 . S
H126 C139 0.929 . S
H127 C137 0.929 . S
H128 C132 0.929 . S
H129 C138 0.929 . S
C130 H124 0.930 . S
C130 C131 1.367 . S
C130 C138 1.378 . S
C131 C130 1.367 . S
C131 C139 1.433 1_545 S
C132 H128 0.929 . S
C132 C134 1.378 . S
C132 C136 1.350 1_565 S
C133 C136 1.463 . S
C133 C138 1.350 . S
C133 N141 1.427 1_545 S
C134 H125 0.930 . S
C134 C132 1.378 . S
C134 C135 1.367 1_565 S
C135 C134 1.367 1_545 S
C135 C137 1.433 . S
C136 C132 1.350 1_545 S
C136 C133 1.463 . S
C136 N140 1.427 . S
C137 H127 0.929 . S
C137 C135 1.433 . S
C137 N140 1.384 . S
C138 H129 0.929 . S
C138 C130 1.378 . S
C138 C133 1.350 . S
C139 H126 0.929 . S
C139 C131 1.433 1_565 S
C139 N141 1.384 . S
N140 C136 1.427 . S
N140 C137 1.384 . S
N141 C133 1.427 1_565 S
N141 C139 1.384 . S
H142 C148 0.930 . S
H143 C152 0.931 1_655 S
H144 C157 0.929 . S
H145 C155 0.929 . S
H146 C150 0.929 . S
H147 C156 0.929 . S
C148 H142 0.930 . S
C148 C149 1.367 . S
C148 C156 1.378 . S
C149 C148 1.367 . S
C149 C157 1.433 . S
C150 H146 0.929 . S
C150 C152 1.378 . S
C150 C154 1.350 . S
C151 C154 1.463 . S
C151 C156 1.350 . S
C151 N159 1.427 . S
C152 H143 0.931 1_455 S
C152 C150 1.378 . S
C152 C153 1.367 . S
C153 C152 1.367 . S
C153 C155 1.433 . S
C154 C150 1.350 . S
C154 C151 1.463 . S
C154 N158 1.427 . S
C155 H145 0.929 . S
C155 C153 1.433 . S
C155 N158 1.384 . S
C156 H147 0.929 . S
C156 C148 1.378 . S
C156 C151 1.350 . S
C157 H144 0.929 . S
C157 C149 1.433 . S
C157 N159 1.384 . S
N158 C154 1.427 . S
N158 C155 1.384 . S
N159 C151 1.427 . S
N159 C157 1.384 . S
H160 C166 0.930 . S
H161 C170 0.930 . S
H162 C175 0.929 . S
H163 C173 0.929 . S
H164 C168 0.929 . S
H165 C174 0.929 . S
C166 H160 0.930 . S
C166 C167 1.367 . S
C166 C174 1.378 . S
C167 C166 1.367 . S
C167 C175 1.433 1_545 S
C168 H164 0.929 . S
C168 C170 1.378 . S
C168 C172 1.350 1_565 S
C169 C172 1.463 . S
C169 C174 1.350 . S
C169 N177 1.427 1_545 S
C170 H161 0.930 . S
C170 C168 1.378 . S
C170 C171 1.367 1_565 S
C171 C170 1.367 1_545 S
C171 C173 1.433 . S
C172 C168 1.350 1_545 S
C172 C169 1.463 . S
C172 N176 1.427 . S
C173 H163 0.929 . S
C173 C171 1.433 . S
C173 N176 1.384 . S
C174 H165 0.929 . S
C174 C166 1.378 . S
C174 C169 1.350 . S
C175 H162 0.929 . S
C175 C167 1.433 1_565 S
C175 N177 1.384 . S
N176 C172 1.427 . S
N176 C173 1.384 . S
N177 C169 1.427 1_565 S
N177 C175 1.384 . S
H178 C184 0.930 . S
H179 C188 0.930 . S
H180 C193 0.929 . S
H181 C191 0.929 . S
H182 C186 0.929 . S
H183 C192 0.929 . S
C184 H178 0.930 . S
C184 C185 1.367 . S
C184 C192 1.378 . S
C185 C184 1.367 . S
C185 C193 1.433 . S
C186 H182 0.929 . S
C186 C188 1.378 . S
C186 C190 1.350 . S
C187 C190 1.463 . S
C187 C192 1.350 . S
C187 N195 1.427 . S
C188 H179 0.930 . S
C188 C186 1.378 . S
C188 C189 1.367 . S
C189 C188 1.367 . S
C189 C191 1.433 . S
C190 C186 1.350 . S
C190 C187 1.463 . S
C190 N194 1.427 . S
C191 H181 0.929 . S
C191 C189 1.433 . S
C191 N194 1.384 . S
C192 H183 0.929 . S
C192 C184 1.378 . S
C192 C187 1.350 . S
C193 H180 0.929 . S
C193 C185 1.433 . S
C193 N195 1.384 . S
N194 C190 1.427 . S
N194 C191 1.384 . S
N195 C187 1.427 . S
N195 C193 1.384 . S
H196 C202 0.930 . S
H197 C206 0.930 . S
H198 C211 0.929 . S
H199 C209 0.929 . S
H200 C204 0.929 . S
H201 C210 0.929 . S
C202 H196 0.930 . S
C202 C203 1.367 1_565 S
C202 C210 1.378 . S
C203 C202 1.367 1_545 S
C203 C211 1.433 . S
C204 H200 0.929 . S
C204 C206 1.378 . S
C204 C208 1.350 . S
C205 C208 1.463 . S
C205 C210 1.350 1_545 S
C205 N213 1.427 . S
C206 H197 0.930 . S
C206 C204 1.378 . S
C206 C207 1.367 . S
C207 C206 1.367 . S
C207 C209 1.433 1_545 S
C208 C204 1.350 . S
C208 C205 1.463 . S
C208 N212 1.427 1_545 S
C209 H199 0.929 . S
C209 C207 1.433 1_565 S
C209 N212 1.384 . S
C210 H201 0.929 . S
C210 C202 1.378 . S
C210 C205 1.350 1_565 S
C211 H198 0.929 . S
C211 C203 1.433 . S
C211 N213 1.384 . S
N212 C208 1.427 1_565 S
N212 C209 1.384 . S
N213 C205 1.427 . S
N213 C211 1.384 . S
H214 C220 0.930 1_655 S
H215 C224 0.930 . S
H216 C229 0.929 . S
H217 C227 0.929 1_655 S
H218 C222 0.929 . S
H219 C228 0.929 1_655 S
C220 H214 0.930 1_455 S
C220 C221 1.367 . S
C220 C228 1.378 . S
C221 C220 1.367 . S
C221 C229 1.433 . S
C222 H218 0.929 . S
C222 C224 1.378 . S
C222 C226 1.350 . S
C223 C226 1.463 . S
C223 C228 1.350 . S
C223 N231 1.427 . S
C224 H215 0.930 . S
C224 C222 1.378 . S
C224 C225 1.367 . S
C225 C224 1.367 . S
C225 C227 1.433 . S
C226 C222 1.350 . S
C226 C223 1.463 . S
C226 N230 1.427 . S
C227 H217 0.929 1_455 S
C227 C225 1.433 . S
C227 N230 1.384 . S
C228 H219 0.929 1_455 S
C228 C220 1.378 . S
C228 C223 1.350 . S
C229 H216 0.929 . S
C229 C221 1.433 . S
C229 N231 1.384 . S
N230 C226 1.427 . S
N230 C227 1.384 . S
N231 C223 1.427 . S
N231 C229 1.384 . S
H232 C238 0.930 . S
H233 C242 0.930 . S
H234 C247 0.929 . S
H235 C245 0.929 . S
H236 C240 0.929 . S
H237 C246 0.929 . S
C238 H232 0.930 . S
C238 C239 1.367 1_565 S
C238 C246 1.378 . S
C239 C238 1.367 1_545 S
C239 C247 1.433 . S
C240 H236 0.929 . S
C240 C242 1.378 . S
C240 C244 1.350 . S
C241 C244 1.463 . S
C241 C246 1.350 1_545 S
C241 N249 1.427 . S
C242 H233 0.930 . S
C242 C240 1.378 . S
C242 C243 1.367 . S
C243 C242 1.367 . S
C243 C245 1.433 1_545 S
C244 C240 1.350 . S
C244 C241 1.463 . S
C244 N248 1.427 1_545 S
C245 H235 0.929 . S
C245 C243 1.433 1_565 S
C245 N248 1.384 . S
C246 H237 0.929 . S
C246 C238 1.378 . S
C246 C241 1.350 1_565 S
C247 H234 0.929 . S
C247 C239 1.433 . S
C247 N249 1.384 . S
N248 C244 1.427 1_565 S
N248 C245 1.384 . S
N249 C241 1.427 . S
N249 C247 1.384 . S
H250 C256 0.930 . S
H251 C260 0.930 1_655 S
H252 C265 0.929 1_655 S
H253 C263 0.929 . S
H254 C258 0.929 1_655 S
H255 C264 0.929 . S
C256 H250 0.930 . S
C256 C257 1.367 . S
C256 C264 1.378 . S
C257 C256 1.367 . S
C257 C265 1.433 . S
C258 H254 0.929 1_455 S
C258 C260 1.378 . S
C258 C262 1.350 . S
C259 C262 1.463 . S
C259 C264 1.350 . S
C259 N267 1.427 . S
C260 H251 0.930 1_455 S
C260 C258 1.378 . S
C260 C261 1.367 . S
C261 C260 1.367 . S
C261 C263 1.433 . S
C262 C258 1.350 . S
C262 C259 1.463 . S
C262 N266 1.427 . S
C263 H253 0.929 . S
C263 C261 1.433 . S
C263 N266 1.384 . S
C264 H255 0.929 . S
C264 C256 1.378 . S
C264 C259 1.350 . S
C265 H252 0.929 1_455 S
C265 C257 1.433 . S
C265 N267 1.384 . S
N266 C262 1.427 . S
N266 C263 1.384 . S
N267 C259 1.427 . S
N267 C265 1.384 . S
C135 C101 1.273 . S
C131 C45 1.526 . S
C153 C121 1.490 . S
C149 C78 1.512 . S
C171 C100 1.477 . S
C167 C21 1.521 . S
C189 C122 1.525 . S
C185 C84 1.523 . S
C207 C114 1.473 . S
C203 C36 1.520 . S
C225 C107 1.497 . S
C221 C69 1.517 . S
C243 C115 1.272 . S
C239 C30 1.522 . S
C257 C93 1.518 . S
C261 C108 1.525 . S
