# Generated by pormake.
# Topology ptr, (4,4)-cn, num edge types: 1
# Building blocks:
#     Node 0, Type 0, BuildingBlock: TATPOV_clean_sbu_0, # of connection points: 4
#     Node 1, Type 0, BuildingBlock: TATPOV_clean_sbu_0, # of connection points: 4
#     Node 2, Type 0, BuildingBlock: TATPOV_clean_sbu_0, # of connection points: 4
#     Node 3, Type 0, BuildingBlock: TATPOV_clean_sbu_0, # of connection points: 4
#     Node 4, Type 0, BuildingBlock: TATPOV_clean_sbu_0, # of connection points: 4
#     Node 5, Type 0, BuildingBlock: TATPOV_clean_sbu_0, # of connection points: 4
#     Node 6, Type 0, BuildingBlock: TATPOV_clean_sbu_0, # of connection points: 4
#     Node 7, Type 0, BuildingBlock: TATPOV_clean_sbu_0, # of connection points: 4
#     Node 8, Type 0, BuildingBlock: TATPOV_clean_sbu_0, # of connection points: 4
#     Node 9, Type 0, BuildingBlock: TATPOV_clean_sbu_0, # of connection points: 4
#     Node 10, Type 0, BuildingBlock: TATPOV_clean_sbu_0, # of connection points: 4
#     Node 11, Type 0, BuildingBlock: TATPOV_clean_sbu_0, # of connection points: 4
#     Node 12, Type 0, BuildingBlock: TATPOV_clean_sbu_0, # of connection points: 4
#     Node 13, Type 0, BuildingBlock: TATPOV_clean_sbu_0, # of connection points: 4
#     Node 14, Type 0, BuildingBlock: TATPOV_clean_sbu_0, # of connection points: 4
#     Node 15, Type 0, BuildingBlock: TATPOV_clean_sbu_0, # of connection points: 4
#     Node 16, Type 0, BuildingBlock: TATPOV_clean_sbu_0, # of connection points: 4
#     Node 17, Type 0, BuildingBlock: TATPOV_clean_sbu_0, # of connection points: 4
#     Node 18, Type 1, BuildingBlock: GIZVER_clean_linker_0, # of connection points: 4
#     Node 19, Type 1, BuildingBlock: GIZVER_clean_linker_0, # of connection points: 4
#     Node 20, Type 1, BuildingBlock: GIZVER_clean_linker_0, # of connection points: 4
#     Node 21, Type 1, BuildingBlock: GIZVER_clean_linker_0, # of connection points: 4
#     Node 22, Type 1, BuildingBlock: GIZVER_clean_linker_0, # of connection points: 4
#     Node 23, Type 1, BuildingBlock: GIZVER_clean_linker_0, # of connection points: 4
#     Node 24, Type 1, BuildingBlock: GIZVER_clean_linker_0, # of connection points: 4
#     Node 25, Type 1, BuildingBlock: GIZVER_clean_linker_0, # of connection points: 4
#     Node 26, Type 1, BuildingBlock: GIZVER_clean_linker_0, # of connection points: 4
#     Node 27, Type 1, BuildingBlock: GIZVER_clean_linker_0, # of connection points: 4
#     Node 28, Type 1, BuildingBlock: GIZVER_clean_linker_0, # of connection points: 4
#     Node 29, Type 1, BuildingBlock: GIZVER_clean_linker_0, # of connection points: 4
#     Node 30, Type 1, BuildingBlock: GIZVER_clean_linker_0, # of connection points: 4
#     Node 31, Type 1, BuildingBlock: GIZVER_clean_linker_0, # of connection points: 4
#     Node 32, Type 1, BuildingBlock: GIZVER_clean_linker_0, # of connection points: 4
#     Node 33, Type 1, BuildingBlock: GIZVER_clean_linker_0, # of connection points: 4
#     Node 34, Type 1, BuildingBlock: GIZVER_clean_linker_0, # of connection points: 4
#     Node 35, Type 1, BuildingBlock: GIZVER_clean_linker_0, # of connection points: 4
#     Edge 36, Type (0, 1), BuildingBlock: ZUJKAS_clean_linker_0, # of connection points: 2
#     Edge 37, Type (0, 1), BuildingBlock: ZUJKAS_clean_linker_0, # of connection points: 2
#     Edge 38, Type (0, 1), BuildingBlock: ZUJKAS_clean_linker_0, # of connection points: 2
#     Edge 39, Type (0, 1), BuildingBlock: ZUJKAS_clean_linker_0, # of connection points: 2
#     Edge 40, Type (0, 1), BuildingBlock: ZUJKAS_clean_linker_0, # of connection points: 2
#     Edge 41, Type (0, 1), BuildingBlock: ZUJKAS_clean_linker_0, # of connection points: 2
#     Edge 42, Type (0, 1), BuildingBlock: ZUJKAS_clean_linker_0, # of connection points: 2
#     Edge 43, Type (0, 1), BuildingBlock: ZUJKAS_clean_linker_0, # of connection points: 2
#     Edge 44, Type (0, 1), BuildingBlock: ZUJKAS_clean_linker_0, # of connection points: 2
#     Edge 45, Type (0, 1), BuildingBlock: ZUJKAS_clean_linker_0, # of connection points: 2
#     Edge 46, Type (0, 1), BuildingBlock: ZUJKAS_clean_linker_0, # of connection points: 2
#     Edge 47, Type (0, 1), BuildingBlock: ZUJKAS_clean_linker_0, # of connection points: 2
#     Edge 48, Type (0, 1), BuildingBlock: ZUJKAS_clean_linker_0, # of connection points: 2
#     Edge 49, Type (0, 1), BuildingBlock: ZUJKAS_clean_linker_0, # of connection points: 2
#     Edge 50, Type (0, 1), BuildingBlock: ZUJKAS_clean_linker_0, # of connection points: 2
#     Edge 51, Type (0, 1), BuildingBlock: ZUJKAS_clean_linker_0, # of connection points: 2
#     Edge 52, Type (0, 1), BuildingBlock: ZUJKAS_clean_linker_0, # of connection points: 2
#     Edge 53, Type (0, 1), BuildingBlock: ZUJKAS_clean_linker_0, # of connection points: 2
#     Edge 54, Type (0, 1), BuildingBlock: ZUJKAS_clean_linker_0, # of connection points: 2
#     Edge 55, Type (0, 1), BuildingBlock: ZUJKAS_clean_linker_0, # of connection points: 2
#     Edge 56, Type (0, 1), BuildingBlock: ZUJKAS_clean_linker_0, # of connection points: 2
#     Edge 57, Type (0, 1), BuildingBlock: ZUJKAS_clean_linker_0, # of connection points: 2
#     Edge 58, Type (0, 1), BuildingBlock: ZUJKAS_clean_linker_0, # of connection points: 2
#     Edge 59, Type (0, 1), BuildingBlock: ZUJKAS_clean_linker_0, # of connection points: 2
#     Edge 60, Type (0, 1), BuildingBlock: ZUJKAS_clean_linker_0, # of connection points: 2
#     Edge 61, Type (0, 1), BuildingBlock: ZUJKAS_clean_linker_0, # of connection points: 2
#     Edge 62, Type (0, 1), BuildingBlock: ZUJKAS_clean_linker_0, # of connection points: 2
#     Edge 63, Type (0, 1), BuildingBlock: ZUJKAS_clean_linker_0, # of connection points: 2
#     Edge 64, Type (0, 1), BuildingBlock: ZUJKAS_clean_linker_0, # of connection points: 2
#     Edge 65, Type (0, 1), BuildingBlock: ZUJKAS_clean_linker_0, # of connection points: 2
#     Edge 66, Type (0, 1), BuildingBlock: ZUJKAS_clean_linker_0, # of connection points: 2
#     Edge 67, Type (0, 1), BuildingBlock: ZUJKAS_clean_linker_0, # of connection points: 2
#     Edge 68, Type (0, 1), BuildingBlock: ZUJKAS_clean_linker_0, # of connection points: 2
#     Edge 69, Type (0, 1), BuildingBlock: ZUJKAS_clean_linker_0, # of connection points: 2
#     Edge 70, Type (0, 1), BuildingBlock: ZUJKAS_clean_linker_0, # of connection points: 2
#     Edge 71, Type (0, 1), BuildingBlock: ZUJKAS_clean_linker_0, # of connection points: 2
#     Edge 72, Type (0, 1), BuildingBlock: ZUJKAS_clean_linker_0, # of connection points: 2
#     Edge 73, Type (0, 1), BuildingBlock: ZUJKAS_clean_linker_0, # of connection points: 2
#     Edge 74, Type (0, 1), BuildingBlock: ZUJKAS_clean_linker_0, # of connection points: 2
#     Edge 75, Type (0, 1), BuildingBlock: ZUJKAS_clean_linker_0, # of connection points: 2
#     Edge 76, Type (0, 1), BuildingBlock: ZUJKAS_clean_linker_0, # of connection points: 2
#     Edge 77, Type (0, 1), BuildingBlock: ZUJKAS_clean_linker_0, # of connection points: 2
#     Edge 78, Type (0, 1), BuildingBlock: ZUJKAS_clean_linker_0, # of connection points: 2
#     Edge 79, Type (0, 1), BuildingBlock: ZUJKAS_clean_linker_0, # of connection points: 2
#     Edge 80, Type (0, 1), BuildingBlock: ZUJKAS_clean_linker_0, # of connection points: 2
#     Edge 81, Type (0, 1), BuildingBlock: ZUJKAS_clean_linker_0, # of connection points: 2
#     Edge 82, Type (0, 1), BuildingBlock: ZUJKAS_clean_linker_0, # of connection points: 2
#     Edge 83, Type (0, 1), BuildingBlock: ZUJKAS_clean_linker_0, # of connection points: 2
#     Edge 84, Type (0, 1), BuildingBlock: ZUJKAS_clean_linker_0, # of connection points: 2
#     Edge 85, Type (0, 1), BuildingBlock: ZUJKAS_clean_linker_0, # of connection points: 2
#     Edge 86, Type (0, 1), BuildingBlock: ZUJKAS_clean_linker_0, # of connection points: 2
#     Edge 87, Type (0, 1), BuildingBlock: ZUJKAS_clean_linker_0, # of connection points: 2
#     Edge 88, Type (0, 1), BuildingBlock: ZUJKAS_clean_linker_0, # of connection points: 2
#     Edge 89, Type (0, 1), BuildingBlock: ZUJKAS_clean_linker_0, # of connection points: 2
#     Edge 90, Type (0, 1), BuildingBlock: ZUJKAS_clean_linker_0, # of connection points: 2
#     Edge 91, Type (0, 1), BuildingBlock: ZUJKAS_clean_linker_0, # of connection points: 2
#     Edge 92, Type (0, 1), BuildingBlock: ZUJKAS_clean_linker_0, # of connection points: 2
#     Edge 93, Type (0, 1), BuildingBlock: ZUJKAS_clean_linker_0, # of connection points: 2
#     Edge 94, Type (0, 1), BuildingBlock: ZUJKAS_clean_linker_0, # of connection points: 2
#     Edge 95, Type (0, 1), BuildingBlock: ZUJKAS_clean_linker_0, # of connection points: 2
#     Edge 96, Type (0, 1), BuildingBlock: ZUJKAS_clean_linker_0, # of connection points: 2
#     Edge 97, Type (0, 1), BuildingBlock: ZUJKAS_clean_linker_0, # of connection points: 2
#     Edge 98, Type (0, 1), BuildingBlock: ZUJKAS_clean_linker_0, # of connection points: 2
#     Edge 99, Type (0, 1), BuildingBlock: ZUJKAS_clean_linker_0, # of connection points: 2
#     Edge 100, Type (0, 1), BuildingBlock: ZUJKAS_clean_linker_0, # of connection points: 2
#     Edge 101, Type (0, 1), BuildingBlock: ZUJKAS_clean_linker_0, # of connection points: 2
#     Edge 102, Type (0, 1), BuildingBlock: ZUJKAS_clean_linker_0, # of connection points: 2
#     Edge 103, Type (0, 1), BuildingBlock: ZUJKAS_clean_linker_0, # of connection points: 2
#     Edge 104, Type (0, 1), BuildingBlock: ZUJKAS_clean_linker_0, # of connection points: 2
#     Edge 105, Type (0, 1), BuildingBlock: ZUJKAS_clean_linker_0, # of connection points: 2
#     Edge 106, Type (0, 1), BuildingBlock: ZUJKAS_clean_linker_0, # of connection points: 2
#     Edge 107, Type (0, 1), BuildingBlock: ZUJKAS_clean_linker_0, # of connection points: 2
# Relax obj value: 0.071
# Max RMSD: 0.189
# Mean RMSD: 0.113
data_MOF--net-ptr--node1-TATPOV_clean_sbu_0--node2-GIZVER_clean_linker_0--edge1-ZUJKAS_clean_linker_0
_symmetry_space_group_name_H-M    P1
_symmetry_Int_Tables_number       1
_symmetry_cell_setting            triclinic
loop_
_symmetry_equiv_pos_as_xyz
'x, y, z'
_cell_length_a     102.72381
_cell_length_b     104.13141
_cell_length_c     60.648251
_cell_angle_alpha  89.779686
_cell_angle_beta   91.137123
_cell_angle_gamma 121.33087
loop_
_atom_site_label
_atom_site_type_symbol
_atom_site_fract_x
_atom_site_fract_y
_atom_site_fract_z
_atom_type_partial_charge
Zn0 Zn 0.9711 0.36763 0.01393 0.0
Zn1 Zn 0.99797 0.36977 0.0138 0.0
O2 O 0.98156 0.3468 0.01184 0.0
O3 O 0.95937 0.34514 0.01327 0.0
O4 O 0.01753 0.36936 0.01607 0.0
O5 O 0.97623 0.37885 0.04275 0.0
O6 O 0.99888 0.38142 0.04212 0.0
C7 C 0.96702 0.33881 0.01201 0.0
C8 C 0.98988 0.38474 0.97711 0.0
O9 O 0.99966 0.38214 0.98595 0.0
O10 O 0.97688 0.3794 0.98557 0.0
C11 C 0.02038 0.36181 0.00262 0.0
O12 O 0.01089 0.35492 0.98595 0.0
C13 C 0.98939 0.38402 0.05127 0.0
Zn14 Zn 0.64581 0.61424 0.00415 0.0
Zn15 Zn 0.64493 0.63839 0.01438 0.0
O16 O 0.66822 0.646 0.01224 0.0
O17 O 0.66851 0.62554 0.00453 0.0
O18 O 0.64494 0.65749 0.02118 0.0
O19 O 0.63458 0.60422 0.03173 0.0
O20 O 0.63384 0.62431 0.0407 0.0
C21 C 0.67564 0.63951 0.00852 0.0
C22 C 0.62855 0.61971 0.97242 0.0
O23 O 0.63168 0.63047 0.9857 0.0
O24 O 0.6339 0.61134 0.97605 0.0
C25 C 0.65164 0.66879 0.0085 0.0
O26 O 0.65853 0.66785 0.99109 0.0
C27 C 0.63058 0.61093 0.04482 0.0
Zn28 Zn 0.36207 0.97526 0.01501 0.0
Zn29 Zn 0.36482 0.00199 0.01359 0.0
O30 O 0.34149 0.98612 0.01353 0.0
O31 O 0.33931 0.96398 0.01399 0.0
O32 O 0.36457 0.02132 0.01153 0.0
O33 O 0.37377 0.97985 0.98706 0.0
O34 O 0.37665 0.00232 0.98609 0.0
C35 C 0.33315 0.97179 0.01351 0.0
C36 C 0.37952 0.9943 0.05182 0.0
O37 O 0.37708 0.0038 0.04219 0.0
O38 O 0.37381 0.98118 0.04387 0.0
C39 C 0.37473 0.0342 0.0189 0.0
O40 O 0.38697 0.03581 0.02885 0.0
C41 C 0.37917 0.99254 0.97798 0.0
Zn42 Zn 0.03598 0.63735 0.02115 0.0
Zn43 Zn 0.00965 0.63556 0.01368 0.0
O44 O 0.02586 0.65847 0.01504 0.0
O45 O 0.04789 0.65966 0.01684 0.0
O46 O 0.99004 0.63541 0.00819 0.0
O47 O 0.03175 0.62352 0.99551 0.0
O48 O 0.01086 0.62368 0.98722 0.0
C49 C 0.04041 0.66619 0.0154 0.0
C50 C 0.01502 0.62253 0.05595 0.0
O51 O 0.00599 0.62393 0.04281 0.0
O52 O 0.02892 0.62832 0.05122 0.0
C53 C 0.98661 0.64291 0.02079 0.0
O54 O 0.99579 0.65039 0.0375 0.0
C55 C 0.02019 0.61943 0.98305 0.0
Zn56 Zn 0.36089 0.39667 0.02169 0.0
Zn57 Zn 0.36136 0.37201 0.01187 0.0
O58 O 0.33828 0.36453 0.01522 0.0
O59 O 0.33836 0.38477 0.02592 0.0
O60 O 0.36117 0.35285 0.00485 0.0
O61 O 0.36969 0.40528 0.99204 0.0
O62 O 0.3715 0.38554 0.98493 0.0
C63 C 0.33113 0.37088 0.02131 0.0
C64 C 0.37991 0.39214 0.05167 0.0
O65 O 0.3754 0.38041 0.0398 0.0
O66 O 0.37516 0.40094 0.04739 0.0
C67 C 0.35486 0.34159 0.01765 0.0
O68 O 0.34847 0.34253 0.03564 0.0
C69 C 0.37381 0.3984 0.97948 0.0
Zn70 Zn 0.64456 0.03415 0.0027 0.0
Zn71 Zn 0.64232 0.00803 0.00947 0.0
O72 O 0.66561 0.02373 0.00614 0.0
O73 O 0.66722 0.04541 0.00104 0.0
O74 O 0.64243 0.98885 0.01562 0.0
O75 O 0.63441 0.03248 0.0314 0.0
O76 O 0.63226 0.01058 0.03711 0.0
C77 C 0.67366 0.03791 0.00307 0.0
C78 C 0.62536 0.01206 0.97017 0.0
O79 O 0.62824 0.00349 0.98168 0.0
O80 O 0.63152 0.02582 0.97532 0.0
C81 C 0.64304 0.98067 0.00061 0.0
O82 O 0.64294 0.98428 0.97985 0.0
C83 C 0.6299 0.02092 0.04318 0.0
Zn84 Zn 0.63751 0.70161 0.33543 0.0
Zn85 Zn 0.66358 0.70284 0.34464 0.0
O86 O 0.6471 0.68005 0.34075 0.0
O87 O 0.62549 0.67911 0.33428 0.0
O88 O 0.68259 0.70204 0.35124 0.0
O89 O 0.64003 0.71278 0.36388 0.0
O90 O 0.66139 0.71345 0.37183 0.0
C91 C 0.63273 0.67242 0.33698 0.0
C92 C 0.66065 0.7191 0.30413 0.0
O93 O 0.66887 0.71635 0.31701 0.0
O94 O 0.64662 0.71344 0.30777 0.0
C95 C 0.68723 0.69635 0.33715 0.0
O96 O 0.67986 0.69163 0.31814 0.0
C97 C 0.65141 0.71672 0.37668 0.0
Zn98 Zn 0.30911 0.94505 0.33746 0.0
Zn99 Zn 0.30864 0.96857 0.35122 0.0
O100 O 0.33179 0.97619 0.34755 0.0
O101 O 0.33179 0.95572 0.33872 0.0
O102 O 0.30911 0.98763 0.36013 0.0
O103 O 0.2971 0.93345 0.36355 0.0
O104 O 0.29812 0.95357 0.377 0.0
C105 C 0.33905 0.96963 0.34319 0.0
C106 C 0.29203 0.95186 0.30796 0.0
O107 O 0.29484 0.9616 0.32292 0.0
O108 O 0.29785 0.94376 0.30947 0.0
C109 C 0.31198 0.99758 0.34561 0.0
O110 O 0.31445 0.99515 0.3253 0.0
C111 C 0.29395 0.93971 0.37863 0.0
Zn112 Zn 0.03446 0.31185 0.3372 0.0
Zn113 Zn 0.03685 0.33836 0.34302 0.0
O114 O 0.01359 0.32222 0.34415 0.0
O115 O 0.01179 0.30041 0.33961 0.0
O116 O 0.03746 0.35819 0.34539 0.0
O117 O 0.04397 0.318 0.30757 0.0
O118 O 0.04796 0.34061 0.31376 0.0
C119 C 0.00546 0.30791 0.34258 0.0
C120 C 0.05317 0.32854 0.37528 0.0
O121 O 0.04958 0.33816 0.36971 0.0
O122 O 0.04812 0.31655 0.36412 0.0
C123 C 0.02689 0.3594 0.33621 0.0
O124 O 0.01581 0.34776 0.32555 0.0
C125 C 0.04955 0.33152 0.30173 0.0
Zn126 Zn 0.70111 0.96941 0.34924 0.0
Zn127 Zn 0.67442 0.96761 0.34234 0.0
O128 O 0.69058 0.99051 0.34471 0.0
O129 O 0.71262 0.99195 0.34892 0.0
O130 O 0.65493 0.96766 0.33661 0.0
O131 O 0.69772 0.95764 0.32121 0.0
O132 O 0.6758 0.95628 0.31538 0.0
C133 C 0.70507 0.99838 0.34698 0.0
C134 C 0.67934 0.95284 0.38296 0.0
O135 O 0.67058 0.95529 0.37084 0.0
O136 O 0.6931 0.9582 0.37777 0.0
C137 C 0.64755 0.96911 0.35204 0.0
O138 O 0.65242 0.97015 0.37253 0.0
C139 C 0.68571 0.95314 0.30958 0.0
Zn140 Zn 0.02967 0.73188 0.36372 0.0
Zn141 Zn 0.03125 0.70871 0.35052 0.0
O142 O 0.00785 0.70035 0.35361 0.0
O143 O 0.00705 0.72001 0.36468 0.0
O144 O 0.0318 0.69021 0.34141 0.0
O145 O 0.04004 0.74303 0.33629 0.0
O146 O 0.04155 0.72379 0.32495 0.0
C147 C 1.00018 0.70627 0.35923 0.0
C148 C 0.04819 0.72654 0.39294 0.0
O149 O 0.04502 0.71617 0.37888 0.0
O150 O 0.04239 0.73463 0.39071 0.0
C151 C 0.02775 0.67942 0.35487 0.0
O152 O 0.02327 0.68051 0.37455 0.0
C153 C 0.04422 0.7371 0.32208 0.0
Zn154 Zn 0.30865 0.36704 0.3357 0.0
Zn155 Zn 0.30691 0.34113 0.34367 0.0
O156 O 0.33009 0.35715 0.34 0.0
O157 O 0.33133 0.37861 0.33427 0.0
O158 O 0.30767 0.32229 0.35041 0.0
O159 O 0.29841 0.36545 0.36429 0.0
O160 O 0.29687 0.34393 0.37116 0.0
C161 C 0.33796 0.3713 0.33665 0.0
C162 C 0.28977 0.34436 0.30376 0.0
O163 O 0.29275 0.3361 0.31587 0.0
O164 O 0.29576 0.35819 0.30827 0.0
C165 C 0.30354 0.31122 0.33732 0.0
O166 O 0.29768 0.31122 0.31787 0.0
C167 C 0.29427 0.3542 0.37665 0.0
Zn168 Zn 0.30403 0.03515 0.67295 0.0
Zn169 Zn 0.32988 0.03582 0.67975 0.0
O170 O 0.31293 0.01306 0.67744 0.0
O171 O 0.2914 0.01268 0.67372 0.0
O172 O 0.34881 0.03472 0.68578 0.0
O173 O 0.30779 0.04744 0.70041 0.0
O174 O 0.32908 0.04763 0.70667 0.0
C175 C 0.29841 0.00569 0.67549 0.0
C176 C 0.32578 0.05108 0.63903 0.0
O177 O 0.33436 0.04832 0.65109 0.0
O178 O 0.31209 0.04601 0.64432 0.0
C179 C 0.35337 0.02886 0.67185 0.0
O180 O 0.34599 0.02404 0.65286 0.0
C181 C 0.31966 0.05152 0.71216 0.0
Zn182 Zn 0.98158 0.28004 0.67087 0.0
Zn183 Zn 0.97992 0.30394 0.68058 0.0
O184 O 0.00326 0.31198 0.67921 0.0
O185 O 0.00432 0.29176 0.67287 0.0
O186 O 0.9796 0.32287 0.68729 0.0
O187 O 0.96952 0.2697 0.69775 0.0
O188 O 0.96857 0.28968 0.70657 0.0
C189 C 0.01104 0.30575 0.67652 0.0
C190 C 0.96467 0.28538 0.63817 0.0
O191 O 0.96718 0.29587 0.65157 0.0
O192 O 0.97038 0.27734 0.64203 0.0
C193 C 0.98161 0.33219 0.67213 0.0
O194 O 0.98371 0.32929 0.65188 0.0
C195 C 0.96522 0.27627 0.71059 0.0
Zn196 Zn 0.69789 0.64294 0.68599 0.0
Zn197 Zn 0.7015 0.66983 0.68069 0.0
O198 O 0.67799 0.65485 0.68276 0.0
O199 O 0.67521 0.63251 0.68571 0.0
O200 O 0.70277 0.68979 0.6762 0.0
O201 O 0.70877 0.64525 0.65785 0.0
O202 O 0.7118 0.66762 0.65309 0.0
C203 C 0.66938 0.6406 0.68432 0.0
C204 C 0.71658 0.66366 0.72023 0.0
O205 O 0.71458 0.67288 0.70891 0.0
O206 O 0.71005 0.64999 0.71438 0.0
C207 C 0.69534 0.6936 0.68832 0.0
O208 O 0.68726 0.68466 0.7044 0.0
C209 C 0.71384 0.65714 0.64665 0.0
Zn210 Zn 0.37101 0.30479 0.68462 0.0
Zn211 Zn 0.34406 0.30271 0.67862 0.0
O212 O 0.36019 0.32563 0.67952 0.0
O213 O 0.38236 0.32735 0.68346 0.0
O214 O 0.3243 0.30239 0.6741 0.0
O215 O 0.36689 0.29251 0.65684 0.0
O216 O 0.3448 0.29092 0.65188 0.0
C217 C 0.37469 0.33364 0.68128 0.0
C218 C 0.34998 0.28865 0.7193 0.0
O219 O 0.34099 0.29094 0.70747 0.0
O220 O 0.36364 0.29398 0.71359 0.0
C221 C 0.32142 0.31054 0.6862 0.0
O222 O 0.33125 0.31877 0.70189 0.0
C223 C 0.35461 0.28773 0.64577 0.0
Zn224 Zn 0.69606 0.06355 0.68852 0.0
Zn225 Zn 0.69596 0.03873 0.6794 0.0
O226 O 0.67289 0.03174 0.68216 0.0
O227 O 0.67339 0.05273 0.68895 0.0
O228 O 0.69532 0.01931 0.67254 0.0
O229 O 0.70697 0.07293 0.66053 0.0
O230 O 0.70695 0.05231 0.6526 0.0
C231 C 0.66588 0.03867 0.68573 0.0
C232 C 0.71313 0.05791 0.72055 0.0
O233 O 0.70948 0.04672 0.70788 0.0
O234 O 0.70826 0.06661 0.71631 0.0
C235 C 0.68857 0.00792 0.68503 0.0
O236 O 0.68196 0.00884 0.70279 0.0
C237 C 0.71052 0.06569 0.64779 0.0
Zn238 Zn 0.97284 0.69679 0.66445 0.0
Zn239 Zn 0.97057 0.67066 0.67184 0.0
O240 O 0.99404 0.68636 0.66989 0.0
O241 O 0.99554 0.70795 0.66411 0.0
O242 O 0.96976 0.65091 0.67716 0.0
O243 O 0.96193 0.69483 0.69251 0.0
O244 O 0.95985 0.67302 0.69889 0.0
C245 C 1.00205 0.70056 0.66686 0.0
C246 C 0.95482 0.67512 0.63115 0.0
O247 O 0.95746 0.66661 0.64319 0.0
O248 O 0.96065 0.68884 0.63629 0.0
C249 C 0.97804 0.64758 0.66614 0.0
O250 O 0.98697 0.657 0.6511 0.0
C251 C 0.95728 0.68331 0.70444 0.0
H252 H 0.14528 0.32142 0.14031 0.0
H253 H 0.13525 0.31715 0.07044 0.0
H254 H 0.12712 0.34625 0.10997 0.0
H255 H 0.13825 0.29751 0.11623 0.0
H256 H 0.14153 0.30035 0.08745 0.0
H257 H 0.15996 0.31053 0.14389 0.0
H258 H 0.20393 0.32318 0.11984 0.0
H259 H 0.16719 0.31219 0.07373 0.0
C260 C 0.14189 0.32493 0.12558 0.0
C261 C 0.13685 0.33509 0.12748 0.0
C262 C 0.14174 0.31863 0.10499 0.0
C263 C 0.1362 0.32249 0.08618 0.0
C264 C 0.13119 0.33271 0.08788 0.0
C265 C 0.13186 0.33911 0.10846 0.0
C266 C 0.14518 0.30615 0.10376 0.0
C267 C 0.16183 0.31154 0.10824 0.0
C268 C 0.16744 0.31302 0.13012 0.0
C269 C 0.18272 0.31749 0.13424 0.0
C270 C 0.19219 0.31993 0.1165 0.0
C271 C 0.18665 0.3176 0.09467 0.0
C272 C 0.17157 0.31393 0.09055 0.0
H273 H 0.69459 0.83716 0.1308 0.0
H274 H 0.67608 0.82335 0.06471 0.0
H275 H 0.67033 0.79042 0.11253 0.0
H276 H 0.7034 0.85535 0.10002 0.0
H277 H 0.69504 0.84959 0.07308 0.0
H278 H 0.68359 0.85273 0.13121 0.0
H279 H 0.66172 0.87628 0.10897 0.0
H280 H 0.68084 0.8605 0.0618 0.0
C281 C 0.68789 0.82833 0.11882 0.0
C282 C 0.68272 0.81332 0.12426 0.0
C283 C 0.68522 0.83207 0.09746 0.0
C284 C 0.6775 0.82056 0.08147 0.0
C285 C 0.67209 0.80551 0.08696 0.0
C286 C 0.67441 0.80205 0.10843 0.0
C287 C 0.69236 0.84842 0.09093 0.0
C288 C 0.68244 0.85486 0.09583 0.0
C289 C 0.67946 0.85668 0.11784 0.0
C290 C 0.67181 0.86423 0.12272 0.0
C291 C 0.667 0.86983 0.10537 0.0
C292 C 0.67025 0.86857 0.0835 0.0
C293 C 0.67791 0.86104 0.0787 0.0
H294 H 0.15554 0.83949 0.15074 0.0
H295 H 0.15068 0.82172 0.08513 0.0
H296 H 0.11158 0.80522 0.1261 0.0
H297 H 0.17727 0.83965 0.12914 0.0
H298 H 0.17541 0.83786 0.09996 0.0
H299 H 0.17997 0.86191 0.14821 0.0
H300 H 0.2001 0.90208 0.10948 0.0
H301 H 0.18036 0.85899 0.07754 0.0
C302 C 0.14833 0.83256 0.13716 0.0
C303 C 0.13271 0.8227 0.14052 0.0
C304 C 0.15482 0.83274 0.11684 0.0
C305 C 0.14553 0.82251 0.10009 0.0
C306 C 0.12996 0.81228 0.10355 0.0
C307 C 0.12356 0.81315 0.12329 0.0
C308 C 0.17193 0.84176 0.11453 0.0
C309 C 0.17829 0.85848 0.11295 0.0
C310 C 0.18211 0.86729 0.13227 0.0
C311 C 0.19009 0.88306 0.13113 0.0
C312 C 0.19358 0.88991 0.11037 0.0
C313 C 0.19047 0.8814 0.091 0.0
C314 C 0.18246 0.86563 0.09235 0.0
H315 H 0.34885 0.18777 0.88635 0.0
H316 H 0.35925 0.20258 0.9541 0.0
H317 H 0.33149 0.21355 0.91423 0.0
H318 H 0.37384 0.19357 0.90862 0.0
H319 H 0.37262 0.19237 0.93777 0.0
H320 H 0.35686 0.1709 0.88463 0.0
H321 H 0.34608 0.12925 0.91445 0.0
H322 H 0.36044 0.16819 0.95532 0.0
C323 C 0.34714 0.1929 0.9006 0.0
C324 C 0.33868 0.19996 0.89812 0.0
C325 C 0.35432 0.19341 0.9209 0.0
C326 C 0.35305 0.2013 0.93879 0.0
C327 C 0.34459 0.20838 0.93653 0.0
C328 C 0.33718 0.20729 0.91636 0.0
C329 C 0.36566 0.18823 0.92225 0.0
C330 C 0.35849 0.17133 0.92033 0.0
C331 C 0.35505 0.16434 0.89938 0.0
C332 C 0.35057 0.14917 0.89729 0.0
C333 C 0.34913 0.14087 0.91624 0.0
C334 C 0.35265 0.14756 0.93722 0.0
C335 C 0.35723 0.16281 0.93923 0.0
H336 H 0.86941 0.16408 0.88056 0.0
H337 H 0.87369 0.17038 0.95122 0.0
H338 H 0.89003 0.20846 0.90859 0.0
H339 H 0.86826 0.1444 0.90653 0.0
H340 H 0.86677 0.14618 0.93551 0.0
H341 H 0.84646 0.13918 0.88066 0.0
H342 H 0.80217 0.11663 0.90945 0.0
H343 H 0.84212 0.13752 0.95148 0.0
C344 C 0.87263 0.17138 0.89488 0.0
C345 C 0.87959 0.18698 0.89198 0.0
C346 C 0.87015 0.16521 0.91621 0.0
C347 C 0.87504 0.1749 0.93473 0.0
C348 C 0.88209 0.19048 0.93187 0.0
C349 C 0.8841 0.19635 0.9106 0.0
C350 C 0.86348 0.14851 0.91906 0.0
C351 C 0.84631 0.13982 0.91637 0.0
C352 C 0.83944 0.13597 0.89513 0.0
C353 C 0.8235 0.1278 0.89256 0.0
C354 C 0.81448 0.12342 0.91131 0.0
C355 C 0.82108 0.12672 0.9325 0.0
C356 C 0.837 0.13503 0.93506 0.0
H357 H 0.84699 0.66625 0.88155 0.0
H358 H 0.85071 0.65476 0.94889 0.0
H359 H 0.88874 0.67093 0.90603 0.0
H360 H 0.82408 0.64612 0.90493 0.0
H361 H 0.82629 0.64749 0.93407 0.0
H362 H 0.82343 0.66594 0.88303 0.0
H363 H 0.80669 0.68992 0.91811 0.0
H364 H 0.82401 0.66613 0.95406 0.0
C365 C 0.85377 0.66594 0.89521 0.0
C366 C 0.86889 0.66991 0.89166 0.0
C367 C 0.84718 0.66083 0.91603 0.0
C368 C 0.85589 0.6595 0.93321 0.0
C369 C 0.87082 0.66298 0.92949 0.0
C370 C 0.87732 0.66858 0.90897 0.0
C371 C 0.83024 0.65421 0.9187 0.0
C372 C 0.82557 0.66582 0.91857 0.0
C373 C 0.82203 0.67027 0.89844 0.0
C374 C 0.81508 0.67886 0.89825 0.0
C375 C 0.81248 0.68369 0.91832 0.0
C376 C 0.81537 0.67898 0.93852 0.0
C377 C 0.82223 0.67028 0.93857 0.0
H378 H 0.80734 0.64603 0.47038 0.0
H379 H 0.80228 0.65086 0.40063 0.0
H380 H 0.78944 0.67294 0.4474 0.0
H381 H 0.80512 0.62703 0.44169 0.0
H382 H 0.80766 0.63213 0.41331 0.0
H383 H 0.82712 0.64081 0.46921 0.0
H384 H 0.87156 0.65934 0.44187 0.0
H385 H 0.83302 0.6466 0.39879 0.0
C386 C 0.80465 0.65116 0.45689 0.0
C387 C 0.79879 0.66039 0.46149 0.0
C388 C 0.80633 0.64794 0.43497 0.0
C389 C 0.80175 0.65385 0.41754 0.0
C390 C 0.79587 0.6631 0.42199 0.0
C391 C 0.79477 0.66652 0.44394 0.0
C392 C 0.81116 0.63673 0.43036 0.0
C393 C 0.82815 0.6435 0.43369 0.0
C394 C 0.83443 0.64469 0.45505 0.0
C395 C 0.85015 0.65066 0.4581 0.0
C396 C 0.85949 0.65523 0.43969 0.0
C397 C 0.85341 0.65365 0.41837 0.0
C398 C 0.83775 0.64792 0.41534 0.0
H399 H 0.35445 0.16812 0.46763 0.0
H400 H 0.33778 0.15264 0.40124 0.0
H401 H 0.33068 0.12107 0.45239 0.0
H402 H 0.36421 0.18545 0.43465 0.0
H403 H 0.35487 0.17913 0.40839 0.0
H404 H 0.34634 0.18467 0.46723 0.0
H405 H 0.32291 0.20681 0.44614 0.0
H406 H 0.34001 0.1896 0.39783 0.0
C407 C 0.34799 0.15907 0.45589 0.0
C408 C 0.3421 0.14418 0.46265 0.0
C409 C 0.34585 0.16225 0.43392 0.0
C410 C 0.33867 0.15031 0.41845 0.0
C411 C 0.33317 0.1354 0.42506 0.0
C412 C 0.33454 0.13249 0.44727 0.0
C413 C 0.35286 0.17843 0.42643 0.0
C414 C 0.3433 0.18522 0.43189 0.0
C415 C 0.34144 0.18792 0.45404 0.0
C416 C 0.33389 0.1955 0.4593 0.0
C417 C 0.3281 0.20032 0.44223 0.0
C418 C 0.33034 0.19835 0.42012 0.0
C419 C 0.33791 0.19076 0.41494 0.0
H420 H 0.8247 0.1619 0.47726 0.0
H421 H 0.82111 0.15477 0.40694 0.0
H422 H 0.78112 0.13234 0.44638 0.0
H423 H 0.84676 0.16542 0.4542 0.0
H424 H 0.84558 0.16618 0.42497 0.0
H425 H 0.84755 0.18581 0.47779 0.0
H426 H 0.87255 0.2293 0.44798 0.0
H427 H 0.85329 0.1896 0.40747 0.0
C428 C 0.81777 0.15713 0.46243 0.0
C429 C 0.80196 0.1473 0.46416 0.0
C430 C 0.82476 0.16017 0.44177 0.0
C431 C 0.81574 0.1531 0.42275 0.0
C432 C 0.79992 0.14317 0.4243 0.0
C433 C 0.79316 0.14065 0.44497 0.0
C434 C 0.84195 0.16895 0.44051 0.0
C435 C 0.84881 0.18577 0.44229 0.0
C436 C 0.85134 0.19268 0.46314 0.0
C437 C 0.85969 0.20843 0.46528 0.0
C438 C 0.8652 0.21721 0.44626 0.0
C439 C 0.86309 0.21058 0.42539 0.0
C440 C 0.85461 0.19482 0.42345 0.0
H441 H 0.02038 0.52522 0.22019 0.0
H442 H 0.03541 0.54239 0.28629 0.0
H443 H 0.00535 0.55232 0.25036 0.0
H444 H 0.04687 0.53136 0.23997 0.0
H445 H 0.04629 0.52984 0.26916 0.0
H446 H 0.02945 0.50926 0.21582 0.0
H447 H 0.01364 0.46614 0.24462 0.0
H448 H 0.03243 0.50534 0.28637 0.0
C449 C 0.0198 0.53097 0.23459 0.0
C450 C 0.01134 0.53808 0.23329 0.0
C451 C 0.02821 0.53204 0.25388 0.0
C452 C 0.02831 0.5407 0.27183 0.0
C453 C 0.01982 0.54781 0.27072 0.0
C454 C 0.01115 0.54611 0.25165 0.0
C455 C 0.03898 0.52615 0.25396 0.0
C456 C 0.03095 0.50919 0.25153 0.0
C457 C 0.02699 0.50241 0.23041 0.0
C458 C 0.02033 0.48682 0.22801 0.0
C459 C 0.01797 0.47805 0.24674 0.0
C460 C 0.0225 0.48458 0.2678 0.0
C461 C 0.02875 0.50017 0.27018 0.0
H462 H 0.53297 0.49715 0.21306 0.0
H463 H 0.53699 0.50499 0.28329 0.0
H464 H 0.55061 0.54174 0.23877 0.0
H465 H 0.53483 0.47961 0.24071 0.0
H466 H 0.53216 0.48133 0.26925 0.0
H467 H 0.5131 0.46967 0.21374 0.0
H468 H 0.46859 0.44258 0.24103 0.0
H469 H 0.50652 0.47194 0.28348 0.0
C470 C 0.53555 0.50467 0.22695 0.0
C471 C 0.54156 0.52007 0.22325 0.0
C472 C 0.53354 0.49904 0.24858 0.0
C473 C 0.53781 0.50906 0.26659 0.0
C474 C 0.54372 0.52444 0.26303 0.0
C475 C 0.54525 0.52974 0.24141 0.0
C476 C 0.52873 0.48281 0.25235 0.0
C477 C 0.51176 0.47225 0.24894 0.0
C478 C 0.50568 0.46631 0.22778 0.0
C479 C 0.49014 0.45544 0.22497 0.0
C480 C 0.48063 0.45095 0.24317 0.0
C481 C 0.48641 0.45689 0.26416 0.0
C482 C 0.50198 0.46755 0.26712 0.0
H483 H 0.51339 0.9959 0.21233 0.0
H484 H 0.51449 0.98632 0.28132 0.0
H485 H 0.55514 0.00473 0.2433 0.0
H486 H 0.48986 0.97563 0.23369 0.0
H487 H 0.49048 0.97675 0.26296 0.0
H488 H 0.49028 0.99585 0.21078 0.0
H489 H 0.46971 0.01779 0.24166 0.0
H490 H 0.48579 0.99439 0.28133 0.0
C491 C 0.51972 0.99639 0.22711 0.0
C492 C 0.53534 1.00164 0.22577 0.0
C493 C 0.51214 0.99112 0.24722 0.0
C494 C 0.52036 0.99093 0.26601 0.0
C495 C 0.53597 0.99598 0.26478 0.0
C496 C 0.54333 1.00155 0.2447 0.0
C497 C 0.49498 0.98364 0.24782 0.0
C498 C 0.48959 0.99468 0.24635 0.0
C499 C 0.48736 0.99947 0.22562 0.0
C500 C 0.48042 0.00806 0.22384 0.0
C501 C 0.47599 0.01206 0.24308 0.0
C502 C 0.47771 0.00709 0.26384 0.0
C503 C 0.4848 0.99863 0.26543 0.0
H504 H 0.47796 0.98643 0.81089 0.0
H505 H 0.46983 0.98652 0.74091 0.0
H506 H 0.4588 0.01154 0.78489 0.0
H507 H 0.47364 0.96504 0.78403 0.0
H508 H 0.47654 0.96927 0.75541 0.0
H509 H 0.49533 0.97781 0.81146 0.0
H510 H 0.54009 0.99612 0.7854 0.0
H511 H 0.50222 0.98429 0.7413 0.0
C512 C 0.47463 0.9906 0.79684 0.0
C513 C 0.46888 1.00004 0.80035 0.0
C514 C 0.47538 0.98592 0.7754 0.0
C515 C 0.47 0.99062 0.75737 0.0
C516 C 0.46424 1.0001 0.76071 0.0
C517 C 0.46404 0.00495 0.78216 0.0
C518 C 0.47996 0.97437 0.7722 0.0
C519 C 0.49688 0.9809 0.77602 0.0
C520 C 0.50284 0.98176 0.79751 0.0
C521 C 0.51849 0.9875 0.80098 0.0
C522 C 0.5281 0.9922 0.78287 0.0
C523 C 0.52232 0.9909 0.76138 0.0
C524 C 0.50672 0.98538 0.75796 0.0
H525 H 0.01167 0.49894 0.80105 0.0
H526 H 0.0055 0.48505 0.73269 0.0
H527 H 0.99522 0.45301 0.78427 0.0
H528 H 0.02697 0.51666 0.76735 0.0
H529 H 0.01812 0.51105 0.74084 0.0
H530 H 0.0138 0.52161 0.79822 0.0
H531 H 0.98804 0.54101 0.77586 0.0
H532 H 0.99962 0.5174 0.7299 0.0
C533 C 0.00769 0.49023 0.78859 0.0
C534 C 1.00258 0.47544 0.79517 0.0
C535 C 0.00825 0.4938 0.76598 0.0
C536 C 0.00421 0.48235 0.75009 0.0
C537 C 0.99977 0.46771 0.7567 0.0
C538 C 0.9985 0.4643 0.77917 0.0
C539 C 0.01568 0.51008 0.75877 0.0
C540 C 0.00658 0.5174 0.76389 0.0
C541 C 0.0072 0.52296 0.7853 0.0
C542 C 1.00058 0.53153 0.78962 0.0
C543 C 0.9929 0.53415 0.77254 0.0
C544 C 0.99266 0.52936 0.75091 0.0
C545 C 0.99938 0.5208 0.74667 0.0
H546 H 0.48764 0.49329 0.81098 0.0
H547 H 0.48787 0.49148 0.74002 0.0
H548 H 0.44593 0.46551 0.77442 0.0
H549 H 0.51113 0.50021 0.79044 0.0
H550 H 0.51134 0.50141 0.76119 0.0
H551 H 0.51089 0.51998 0.81352 0.0
H552 H 0.53533 0.56384 0.78453 0.0
H553 H 0.51773 0.52455 0.74347 0.0
C554 C 0.48148 0.48961 0.79533 0.0
C555 C 0.46577 0.47899 0.79501 0.0
C556 C 0.48953 0.49443 0.77549 0.0
C557 C 0.48163 0.48856 0.75526 0.0
C558 C 0.46585 0.47818 0.7548 0.0
C559 C 0.45802 0.47389 0.77467 0.0
C560 C 0.50674 0.50369 0.77615 0.0
C561 C 0.51288 0.52036 0.77812 0.0
C562 C 0.5148 0.52702 0.79903 0.0
C563 C 0.52273 0.54276 0.80145 0.0
C564 C 0.52828 0.55173 0.7826 0.0
C565 C 0.52666 0.54533 0.76165 0.0
C566 C 0.51865 0.52959 0.75947 0.0
H567 H 0.67655 0.85215 0.55083 0.0
H568 H 0.6878 0.86634 0.61876 0.0
H569 H 0.66135 0.87943 0.5798 0.0
H570 H 0.70072 0.85571 0.57251 0.0
H571 H 0.69996 0.85495 0.60175 0.0
H572 H 0.68111 0.83324 0.54945 0.0
H573 H 0.66727 0.79089 0.57965 0.0
H574 H 0.68776 0.83098 0.61948 0.0
C575 C 0.67529 0.85743 0.56526 0.0
C576 C 0.66746 0.86514 0.56319 0.0
C577 C 0.68233 0.85738 0.58543 0.0
C578 C 0.68169 0.86551 0.60354 0.0
C579 C 0.67391 0.8733 0.60164 0.0
C580 C 0.66656 0.8727 0.58163 0.0
C581 C 0.69272 0.85104 0.58647 0.0
C582 C 0.68433 0.83401 0.58492 0.0
C583 C 0.67936 0.82673 0.56422 0.0
C584 C 0.67284 0.81111 0.56232 0.0
C585 C 0.67145 0.8028 0.58127 0.0
C586 C 0.67695 0.80984 0.60184 0.0
C587 C 0.68319 0.82544 0.60369 0.0
H588 H 0.20685 0.82878 0.55756 0.0
H589 H 0.20282 0.83502 0.62694 0.0
H590 H 0.22725 0.87328 0.58505 0.0
H591 H 0.20027 0.80829 0.58468 0.0
H592 H 0.19728 0.81063 0.6129 0.0
H593 H 0.18093 0.80625 0.55525 0.0
H594 H 0.13482 0.78341 0.57757 0.0
H595 H 0.17183 0.80134 0.62496 0.0
C596 C 0.20881 0.83612 0.57147 0.0
C597 C 0.21764 0.85178 0.56877 0.0
C598 C 0.20328 0.82991 0.59241 0.0
C599 C 0.20659 0.83961 0.61064 0.0
C600 C 0.21526 0.85524 0.60786 0.0
C601 C 0.22049 0.86116 0.58697 0.0
C602 C 0.19531 0.8131 0.5957 0.0
C603 C 0.17839 0.80531 0.59069 0.0
C604 C 0.17296 0.8026 0.56864 0.0
C605 C 0.15725 0.79487 0.56387 0.0
C606 C 0.14698 0.78987 0.58121 0.0
C607 C 0.15212 0.79201 0.60319 0.0
C608 C 0.16784 0.79982 0.60794 0.0
H609 H 0.18096 0.33166 0.55009 0.0
H610 H 0.18169 0.31827 0.61728 0.0
H611 H 0.2223 0.33772 0.57934 0.0
H612 H 0.15716 0.31022 0.57079 0.0
H613 H 0.15785 0.31101 0.60008 0.0
H614 H 0.15423 0.3281 0.54905 0.0
H615 H 0.14027 0.35492 0.58313 0.0
H616 H 0.15752 0.33137 0.61984 0.0
C617 C 0.18721 0.33118 0.56436 0.0
C618 C 0.20272 0.33599 0.56256 0.0
C619 C 0.17957 0.32509 0.58424 0.0
C620 C 0.18759 0.32367 0.60229 0.0
C621 C 0.20303 0.32837 0.6005 0.0
C622 C 0.21054 0.33474 0.58085 0.0
C623 C 0.16249 0.31804 0.58509 0.0
C624 C 0.15768 0.32953 0.58438 0.0
C625 C 0.15347 0.3332 0.56413 0.0
C626 C 0.14688 0.34213 0.56357 0.0
C627 C 0.14549 0.34817 0.58342 0.0
C628 C 0.14885 0.34404 0.6038 0.0
C629 C 0.15529 0.33498 0.60417 0.0
H630 H 0.01827 0.4047 0.0664 0.0
H631 H 0.0253 0.42346 0.09588 0.0
H632 H 0.97777 0.40511 0.10913 0.0
H633 H 0.97065 0.3865 0.07977 0.0
H634 H 0.01295 0.44476 0.09722 0.0
H635 H 1.00012 0.4081 0.17046 0.0
H636 H 0.00459 0.40358 0.144 0.0
H637 H 0.98606 0.40078 0.14842 0.0
C638 C 0.00934 0.40451 0.07585 0.0
C639 C 0.9939 0.39411 0.07076 0.0
C640 C 0.01337 0.41528 0.09256 0.0
C641 C 1.00204 0.41562 0.10463 0.0
C642 C 0.98667 0.40497 0.10005 0.0
H643 H 0.99346 0.46336 0.2126 0.0
H644 H 0.98956 0.44743 0.18057 0.0
C645 C 0.98264 0.39435 0.08325 0.0
C646 C 0.00604 0.42741 0.12152 0.0
H647 H 0.00418 0.43236 0.17664 0.0
C648 C 0.01122 0.44216 0.11464 0.0
C649 C 0.00364 0.42388 0.14413 0.0
C650 C 0.9984 0.40826 0.15233 0.0
C651 C 0.01354 0.4534 0.12979 0.0
C652 C 0.0109 0.4498 0.15243 0.0
C653 C 0.00609 0.4351 0.15928 0.0
C654 C 0.01278 0.46091 0.16944 0.0
C655 C 0.01822 0.46882 0.12131 0.0
C656 C 0.02697 0.4741 0.17341 0.0
C657 C 0.02912 0.48337 0.19154 0.0
C658 C 0.01718 0.47944 0.20611 0.0
C659 C 1.0028 0.46666 0.20149 0.0
C660 C 1.00061 0.45752 0.1833 0.0
H661 H 0.01573 0.4686 0.10336 0.0
H662 H 0.01231 0.47359 0.13018 0.0
H663 H 0.03068 0.47644 0.12401 0.0
H664 H 0.03661 0.47681 0.16325 0.0
H665 H 0.04038 0.493 0.19502 0.0
H666 H 0.614 0.61814 0.07177 0.0
H667 H 0.59735 0.60292 0.10187 0.0
H668 H 0.60967 0.56971 0.09113 0.0
H669 H 0.62623 0.5847 0.06138 0.0
H670 H 0.57199 0.57155 0.0981 0.0
H671 H 0.6169 0.57903 0.15819 0.0
H672 H 0.62072 0.59162 0.13535 0.0
H673 H 0.61903 0.57374 0.13095 0.0
C674 C 0.6133 0.6077 0.07604 0.0
C675 C 0.62146 0.60266 0.0642 0.0
C676 C 0.60373 0.59899 0.09313 0.0
C677 C 0.60239 0.58527 0.09878 0.0
C678 C 0.61069 0.58036 0.0872 0.0
H679 H 0.5568 0.51403 0.19258 0.0
H680 H 0.56972 0.52906 0.16023 0.0
C681 C 0.62013 0.58895 0.07013 0.0
C682 C 0.59202 0.57569 0.11632 0.0
H683 H 0.5916 0.55923 0.16525 0.0
C684 C 0.57623 0.56895 0.11292 0.0
C685 C 0.59763 0.57229 0.13553 0.0
C686 C 0.6145 0.57964 0.14039 0.0
C687 C 0.56585 0.55849 0.12796 0.0
C688 C 0.57148 0.55488 0.14697 0.0
C689 C 0.58729 0.56187 0.15052 0.0
C690 C 0.56132 0.54416 0.16381 0.0
C691 C 0.54899 0.55106 0.12306 0.0
C692 C 0.55187 0.54732 0.17606 0.0
C693 C 0.54433 0.53864 0.19441 0.0
C694 C 0.54625 0.52674 0.20098 0.0
C695 C 0.55492 0.52299 0.18782 0.0
C696 C 0.56244 0.53166 0.16945 0.0
H697 H 0.54662 0.55195 0.10534 0.0
H698 H 0.54287 0.539 0.12765 0.0
H699 H 0.54434 0.5567 0.13285 0.0
H700 H 0.551 0.55702 0.17223 0.0
H701 H 0.53767 0.54175 0.20419 0.0
H702 H 0.38476 0.97596 0.07765 0.0
H703 H 0.40499 0.98323 0.10525 0.0
H704 H 0.41932 0.02985 0.09685 0.0
H705 H 0.39899 0.02269 0.06886 0.0
H706 H 0.43818 0.00561 0.0943 0.0
H707 H 0.41568 0.02057 0.16645 0.0
H708 H 0.40305 0.00765 0.14534 0.0
H709 H 0.41464 0.02729 0.1394 0.0
C710 C 0.39204 0.98777 0.08181 0.0
C711 C 0.39028 0.99876 0.07092 0.0
C712 C 0.40363 0.99189 0.09757 0.0
C713 C 0.41366 0.00705 0.10296 0.0
C714 C 0.41163 0.01807 0.09291 0.0
H715 H 0.48223 0.03386 0.20919 0.0
H716 H 0.46869 0.03632 0.17729 0.0
C717 C 0.39999 0.01395 0.07699 0.0
C718 C 0.42662 0.01109 0.11831 0.0
H719 H 0.43799 0.01987 0.17216 0.0
C720 C 0.4383 0.00895 0.11126 0.0
C721 C 0.42677 0.01556 0.14029 0.0
C722 C 0.41439 0.0179 0.14853 0.0
C723 C 0.44986 0.01065 0.12588 0.0
C724 C 0.44951 0.01422 0.14825 0.0
C725 C 0.43824 0.0171 0.15502 0.0
C726 C 0.45974 0.01364 0.16535 0.0
C727 C 0.46221 0.00839 0.11726 0.0
C728 C 0.45954 1.0002 0.16892 0.0
C729 C 0.4673 0.99878 0.18705 0.0
C730 C 0.47529 0.01073 0.20213 0.0
C731 C 0.47614 0.02444 0.19788 0.0
C732 C 0.46839 0.02586 0.1797 0.0
H733 H 0.46402 0.01105 0.09941 0.0
H734 H 0.47318 0.01551 0.12635 0.0
H735 H 0.45874 0.99643 0.11927 0.0
H736 H 0.45265 0.99048 0.15841 0.0
H737 H 0.46614 0.98798 0.19007 0.0
H738 H 0.39782 0.02008 0.95887 0.0
H739 H 0.41696 0.02603 0.93065 0.0
H740 H 0.40305 0.97924 0.92677 0.0
H741 H 0.38409 0.97321 0.95477 0.0
H742 H 0.43542 1.00009 0.93346 0.0
H743 H 0.41034 0.01549 0.86338 0.0
H744 H 0.41245 0.0244 0.88968 0.0
H745 H 0.3991 0.00463 0.88643 0.0
C746 C 0.39869 0.01104 0.95174 0.0
C747 C 0.38944 0.99617 0.95912 0.0
C748 C 0.40963 0.01446 0.93566 0.0
C749 C 0.41141 0.00306 0.9267 0.0
C750 C 0.4019 0.9882 0.93359 0.0
H751 H 0.45558 0.98003 0.83378 0.0
H752 H 0.4448 0.9835 0.86709 0.0
C753 C 0.39103 0.98478 0.94956 0.0
C754 C 0.4234 0.00639 0.91062 0.0
H755 H 0.43238 0.01484 0.85657 0.0
C756 C 0.4349 0.00352 0.9167 0.0
C757 C 0.42274 0.01097 0.88889 0.0
C758 C 0.41048 0.014 0.88151 0.0
C759 C 0.44545 0.00456 0.90137 0.0
C760 C 0.44427 0.00831 0.8793 0.0
C761 C 0.43326 0.01195 0.87351 0.0
C762 C 0.45323 0.00708 0.86145 0.0
C763 C 0.4576 1.0014 0.90887 0.0
C764 C 0.4618 0.01924 0.84739 0.0
C765 C 0.468 0.01728 0.82831 0.0
C766 C 0.46561 0.00307 0.82286 0.0
C767 C 0.45784 0.99116 0.83768 0.0
C768 C 0.45165 0.99314 0.85675 0.0
H769 H 0.46028 0.00382 0.92676 0.0
H770 H 0.45341 0.98932 0.90612 0.0
H771 H 0.46824 0.00817 0.89953 0.0
H772 H 0.46314 0.03009 0.8507 0.0
H773 H 0.47402 0.02668 0.81724 0.0
H774 H 0.97011 0.38688 0.94916 0.0
H775 H 0.97592 0.40561 0.92077 0.0
H776 H 0.02402 0.42498 0.93384 0.0
H777 H 0.01825 0.40593 0.9622 0.0
H778 H 0.99092 0.43612 0.92773 0.0
H779 H 0.02141 0.42196 0.86671 0.0
H780 H 0.01034 0.40928 0.88843 0.0
H781 H 0.02891 0.42529 0.89451 0.0
C782 C 0.98195 0.39497 0.94582 0.0
C783 C 0.99372 0.39491 0.95797 0.0
C784 C 0.98525 0.40572 0.92961 0.0
C785 C 1.0004 0.41671 0.92514 0.0
C786 C 0.01225 0.41647 0.93677 0.0
H787 H 0.02751 0.48559 0.82231 0.0
H788 H 0.02888 0.474 0.85703 0.0
C789 C 0.00894 0.40558 0.95297 0.0
C790 C 0.00346 0.4287 0.909 0.0
H791 H 0.01826 0.44228 0.85833 0.0
C792 C 0.99703 0.43755 0.91265 0.0
C793 C 0.01154 0.43067 0.88941 0.0
C794 C 0.01837 0.42125 0.88434 0.0
C795 C 0.99797 0.44791 0.89692 0.0
C796 C 0.00546 0.4494 0.87695 0.0
C797 C 0.01255 0.44112 0.87372 0.0
C798 C 0.00458 0.45814 0.85821 0.0
C799 C 0.99069 0.45697 0.90158 0.0
C800 C 0.99045 0.4533 0.84773 0.0
C801 C 0.98968 0.45985 0.82799 0.0
C802 C 1.003 0.47144 0.81848 0.0
C803 C 0.01706 0.47688 0.8296 0.0
C804 C 0.01786 0.47019 0.84927 0.0
H805 H 0.98934 0.4578 0.91956 0.0
H806 H 0.99753 0.46849 0.89479 0.0
H807 H 0.97919 0.45139 0.89362 0.0
H808 H 0.9801 0.44387 0.85413 0.0
H809 H 0.97876 0.45531 0.81948 0.0
H810 H 0.60653 0.62702 0.96756 0.0
H811 H 0.58553 0.61664 0.94007 0.0
H812 H 0.60426 0.59288 0.90869 0.0
H813 H 0.6251 0.60304 0.93596 0.0
H814 H 0.593 0.60896 0.87956 0.0
H815 H 0.55192 0.56933 0.94097 0.0
H816 H 0.56377 0.58898 0.94811 0.0
H817 H 0.57225 0.57782 0.94485 0.0
C818 C 0.60633 0.61983 0.95452 0.0
C819 C 0.61742 0.61577 0.95399 0.0
C820 C 0.59428 0.61385 0.93896 0.0
C821 C 0.5933 0.60388 0.92258 0.0
C822 C 0.60481 0.60051 0.92129 0.0
H823 H 0.53437 0.53459 0.83591 0.0
H824 H 0.54898 0.55017 0.86762 0.0
C825 C 0.61671 0.60633 0.93689 0.0
C826 C 0.57996 0.59618 0.90733 0.0
H827 H 0.54359 0.56586 0.9039 0.0
C828 C 0.58207 0.59975 0.88488 0.0
C829 C 0.56582 0.58406 0.91441 0.0
C830 C 0.56318 0.57969 0.93837 0.0
C831 C 0.57056 0.59117 0.86914 0.0
C832 C 0.55657 0.57875 0.87613 0.0
C833 C 0.55428 0.57547 0.89867 0.0
C834 C 0.545 0.56816 0.85993 0.0
C835 C 0.57375 0.59493 0.84503 0.0
C836 C 0.53724 0.57277 0.84583 0.0
C837 C 0.52873 0.56381 0.82778 0.0
C838 C 0.52791 0.55012 0.82349 0.0
C839 C 0.53462 0.54497 0.8388 0.0
C840 C 0.54308 0.55392 0.85688 0.0
H841 H 0.58588 0.60359 0.84222 0.0
H842 H 0.57078 0.5847 0.83534 0.0
H843 H 0.56659 0.59928 0.83863 0.0
H844 H 0.53843 0.58365 0.84812 0.0
H845 H 0.52354 0.56799 0.81642 0.0
H846 H 0.03521 0.6049 0.97446 0.0
H847 H 0.03143 0.58856 0.94333 0.0
H848 H 0.99569 0.59473 0.91734 0.0
H849 H 0.99916 0.61097 0.94895 0.0
H850 H 0.98857 0.56488 0.91506 0.0
H851 H 0.04581 0.60387 0.88148 0.0
H852 H 0.04631 0.59876 0.90964 0.0
H853 H 0.0376 0.60945 0.90265 0.0
C854 C 0.02654 0.60285 0.96214 0.0
C855 C 0.01759 0.60941 0.96407 0.0
C856 C 0.02444 0.59351 0.94431 0.0
C857 C 0.0135 0.59067 0.92782 0.0
C858 C 0.00427 0.59687 0.92987 0.0
H859 H 0.00964 0.56084 0.79583 0.0
H860 H 0.01235 0.57391 0.83032 0.0
C861 C 0.00629 0.60617 0.94788 0.0
C862 C 0.01195 0.58142 0.90832 0.0
H863 H 0.03169 0.5797 0.86498 0.0
C864 C 0.99797 0.56809 0.90406 0.0
C865 C 0.02423 0.58571 0.89397 0.0
C866 C 0.03929 0.6003 0.897 0.0
C867 C 0.99593 0.55894 0.88576 0.0
C868 C 0.0083 0.56312 0.87164 0.0
C869 C 0.02229 0.57641 0.87601 0.0
C870 C 0.00663 0.55478 0.851 0.0
C871 C 0.98045 0.54514 0.8813 0.0
C872 C 1.00275 0.53968 0.85115 0.0
C873 C 1.00102 0.53206 0.83126 0.0
C874 C 0.00315 0.53946 0.81103 0.0
C875 C 0.00753 0.5547 0.81111 0.0
C876 C 0.0092 0.56224 0.83083 0.0
H877 H 0.97143 0.54521 0.89104 0.0
H878 H 0.97727 0.54425 0.86352 0.0
H879 H 0.98077 0.53498 0.88584 0.0
H880 H 1.00106 0.53382 0.8666 0.0
H881 H 0.99775 0.52035 0.83167 0.0
H882 H 0.37691 0.42357 0.96035 0.0
H883 H 0.39283 0.43755 0.92932 0.0
H884 H 0.40619 0.40482 0.92226 0.0
H885 H 0.39023 0.39066 0.95341 0.0
H886 H 0.43104 0.43708 0.92442 0.0
H887 H 0.38512 0.42452 0.86255 0.0
H888 H 0.38314 0.43064 0.88932 0.0
H889 H 0.382 0.41293 0.88645 0.0
C890 C 0.3831 0.41923 0.95209 0.0
C891 C 0.38229 0.40598 0.95935 0.0
C892 C 0.39217 0.42724 0.93434 0.0
C893 C 0.40063 0.42218 0.92353 0.0
C894 C 0.39971 0.40887 0.93045 0.0
H895 H 0.44726 0.44902 0.80147 0.0
H896 H 0.43232 0.43626 0.83374 0.0
C897 C 0.39053 0.40076 0.94814 0.0
C898 C 0.41072 0.43106 0.90536 0.0
H899 H 0.41035 0.44241 0.85264 0.0
C900 C 0.42656 0.43828 0.90871 0.0
C901 C 0.40477 0.43254 0.88496 0.0
C902 C 0.38783 0.42468 0.88041 0.0
C903 C 0.43666 0.447 0.89207 0.0
C904 C 0.4307 0.44854 0.87171 0.0
C905 C 0.41486 0.44131 0.8684 0.0
C906 C 0.4406 0.4566 0.85293 0.0
C907 C 0.45359 0.45422 0.8961 0.0
C908 C 0.45035 0.47231 0.85316 0.0
C909 C 0.45889 0.47972 0.83454 0.0
C910 C 0.45764 0.47149 0.81547 0.0
C911 C 0.44818 0.45572 0.81569 0.0
C912 C 0.4397 0.44839 0.83416 0.0
H913 H 0.45625 0.45018 0.91154 0.0
H914 H 0.45885 0.45188 0.88207 0.0
H915 H 0.45889 0.46659 0.89739 0.0
H916 H 0.45109 0.47884 0.86751 0.0
H917 H 0.4661 0.49186 0.83481 0.0
H918 H 0.62168 0.02796 0.93767 0.0
H919 H 0.60004 0.01937 0.91223 0.0
H920 H 0.58051 0.97417 0.93644 0.0
H921 H 0.60236 0.98272 0.96221 0.0
H922 H 0.57869 0.9777 0.88781 0.0
H923 H 0.55744 0.00771 0.93656 0.0
H924 H 0.57724 0.01918 0.92999 0.0
H925 H 0.57101 0.00315 0.94758 0.0
C926 C 0.61291 0.01613 0.93745 0.0
C927 C 0.61367 0.00605 0.95217 0.0
C928 C 0.60051 0.01127 0.92295 0.0
C929 C 0.58852 0.99623 0.92286 0.0
C930 C 0.58961 0.98587 0.93647 0.0
H931 H 0.50995 0.9641 0.82942 0.0
H932 H 0.52445 0.9638 0.86203 0.0
C933 C 0.60212 0.99075 0.95107 0.0
C934 C 0.57474 0.99178 0.90901 0.0
H935 H 0.54781 1.00112 0.89933 0.0
C936 C 0.57168 0.9825 0.89054 0.0
C937 C 0.56558 0.99802 0.91273 0.0
C938 C 0.56786 0.00746 0.93291 0.0
C939 C 0.56037 0.98017 0.87483 0.0
C940 C 0.55187 0.9872 0.87789 0.0
C941 C 0.55436 0.99577 0.89701 0.0
C942 C 0.54182 0.98741 0.86017 0.0
C943 C 0.55825 0.97102 0.85439 0.0
C944 C 0.54642 1.00089 0.84902 0.0
C945 C 0.53819 1.00108 0.83058 0.0
C946 C 0.5251 0.98782 0.82306 0.0
C947 C 0.51992 0.97449 0.83504 0.0
C948 C 0.52827 0.97428 0.85347 0.0
H949 H 0.56693 0.96775 0.85335 0.0
H950 H 0.54679 0.96062 0.85443 0.0
H951 H 0.55887 0.97746 0.83939 0.0
H952 H 0.5568 0.01115 0.85398 0.0
H953 H 0.54241 0.01148 0.82159 0.0
H954 H 0.62421 0.04148 0.06092 0.0
H955 H 0.60757 0.03804 0.09132 0.0
H956 H 0.59813 0.99293 0.10058 0.0
H957 H 0.61493 0.99628 0.07008 0.0
H958 H 0.57615 0.01595 0.09346 0.0
H959 H 0.60989 0.01191 0.16309 0.0
H960 H 0.61802 0.01938 0.13656 0.0
H961 H 0.606 0.99944 0.14015 0.0
C962 C 0.61875 0.03085 0.06952 0.0
C963 C 0.62093 0.01914 0.06304 0.0
C964 C 0.60919 0.02891 0.08686 0.0
C965 C 0.60165 0.01526 0.09822 0.0
C966 C 0.60399 0.00362 0.09216 0.0
H967 H 0.52559 0.98566 0.1871 0.0
H968 H 0.54092 0.98931 0.15459 0.0
C969 C 0.61359 0.00555 0.07473 0.0
C970 C 0.59103 0.01323 0.11594 0.0
H971 H 0.58577 0.00812 0.17137 0.0
C972 C 0.57821 0.0142 0.11051 0.0
C973 C 0.59386 0.01109 0.13814 0.0
C974 C 0.60774 0.0105 0.14498 0.0
C975 C 0.56812 0.01309 0.12674 0.0
C976 C 0.57088 0.01083 0.14891 0.0
C977 C 0.58368 0.00983 0.15432 0.0
C978 C 0.56082 0.0097 0.16695 0.0
C979 C 0.5548 0.0147 0.12015 0.0
C980 C 0.56682 0.02011 0.18443 0.0
C981 C 0.55809 0.01807 0.20293 0.0
C982 C 0.54322 0.00552 0.20436 0.0
C983 C 0.53692 0.99555 0.18631 0.0
C984 C 0.54569 0.99759 0.16777 0.0
H985 H 0.55621 0.01973 0.10353 0.0
H986 H 0.54423 0.00342 0.11978 0.0
H987 H 0.5533 0.02177 0.13228 0.0
H988 H 0.57845 0.02954 0.18408 0.0
H989 H 0.56319 0.02596 0.21657 0.0
H990 H 0.98598 0.59912 0.06315 0.0
H991 H 0.97781 0.58063 0.09301 0.0
H992 H 0.0229 0.60549 0.12247 0.0
H993 H 0.03117 0.6238 0.09275 0.0
H994 H 0.99375 0.56395 0.10219 0.0
H995 H 0.99259 0.59584 0.17435 0.0
H996 H 0.99059 0.60054 0.14625 0.0
H997 H 0.00912 0.60619 0.15762 0.0
C998 C 0.99403 0.60081 0.07629 0.0
C999 C 0.00923 0.61289 0.07563 0.0
C1000 C 0.98937 0.59021 0.09323 0.0
C1001 C 0.99975 0.59176 0.10994 0.0
C1002 C 0.01469 0.60419 0.10984 0.0
H1003 H 0.02453 0.5445 0.19293 0.0
H1004 H 0.01719 0.55367 0.16085 0.0
C1005 C 0.0194 0.61463 0.09282 0.0
C1006 C 0.99565 0.57988 0.12653 0.0
H1007 H 0.99557 0.57488 0.18209 0.0
C1008 C 0.99377 0.56614 0.11966 0.0
C1009 C 0.99555 0.58274 0.14923 0.0
C1010 C 0.99693 0.59707 0.15736 0.0
C1011 C 0.9929 0.55563 0.13507 0.0
C1012 C 0.99404 0.55904 0.15783 0.0
C1013 C 0.99477 0.57229 0.16462 0.0
C1014 C 0.99633 0.55009 0.17482 0.0
C1015 C 0.99126 0.5412 0.12688 0.0
C1016 C 0.98681 0.54459 0.19309 0.0
C1017 C 0.99095 0.53924 0.21145 0.0
C1018 C 0.00481 0.53952 0.21199 0.0
C1019 C 0.0137 0.54393 0.19297 0.0
C1020 C 0.00951 0.54921 0.17458 0.0
H1021 H 0.98558 0.53802 0.11034 0.0
H1022 H 1.00276 0.54278 0.12539 0.0
H1023 H 0.98463 0.53183 0.13848 0.0
H1024 H 0.97661 0.5452 0.19362 0.0
H1025 H 0.9838 0.53578 0.22579 0.0
H1026 H 0.38887 0.41429 0.08241 0.0
H1027 H 0.40949 0.42305 0.1097 0.0
H1028 H 0.41805 0.38857 0.08908 0.0
H1029 H 0.39735 0.37971 0.06129 0.0
H1030 H 0.41285 0.4071 0.14457 0.0
H1031 H 0.46027 0.4283 0.08526 0.0
H1032 H 0.44141 0.42407 0.07717 0.0
H1033 H 0.44494 0.4091 0.08177 0.0
C1034 C 0.39506 0.40847 0.08365 0.0
C1035 C 0.39149 0.39632 0.06956 0.0
C1036 C 0.40686 0.41353 0.09929 0.0
C1037 C 0.41545 0.40662 0.10117 0.0
C1038 C 0.41172 0.39422 0.0876 0.0
H1039 H 0.47545 0.42572 0.21525 0.0
H1040 H 0.45884 0.41303 0.18314 0.0
C1041 C 0.39981 0.38909 0.0719 0.0
C1042 C 0.42814 0.4125 0.11764 0.0
H1043 H 0.46699 0.43155 0.12318 0.0
C1044 C 0.42468 0.41231 0.13993 0.0
C1045 C 0.44356 0.41947 0.11144 0.0
C1046 C 0.44788 0.4204 0.08761 0.0
C1047 C 0.43621 0.41907 0.1562 0.0
C1048 C 0.45163 0.42601 0.15005 0.0
C1049 C 0.45515 0.42611 0.12779 0.0
C1050 C 0.46412 0.43361 0.16671 0.0
C1051 C 0.4318 0.41915 0.17979 0.0
C1052 C 0.47325 0.44938 0.16742 0.0
C1053 C 0.48288 0.45666 0.18569 0.0
C1054 C 0.48339 0.44821 0.20341 0.0
C1055 C 0.47518 0.43244 0.20178 0.0
C1056 C 0.46567 0.4252 0.18352 0.0
H1057 H 0.41975 0.4161 0.18102 0.0
H1058 H 0.43323 0.41086 0.1894 0.0
H1059 H 0.43925 0.43039 0.18751 0.0
H1060 H 0.47219 0.45605 0.15455 0.0
H1061 H 0.48904 0.46882 0.1867 0.0
H1062 H 0.63182 0.72485 0.39175 0.0
H1063 H 0.6359 0.74185 0.4222 0.0
H1064 H 0.67966 0.74704 0.43666 0.0
H1065 H 0.67565 0.72987 0.40616 0.0
H1066 H 0.66199 0.74256 0.47418 0.0
H1067 H 0.66533 0.78767 0.42116 0.0
H1068 H 0.64852 0.76956 0.41627 0.0
H1069 H 0.66693 0.77241 0.41041 0.0
C1070 C 0.64232 0.72953 0.40142 0.0
C1071 C 0.65347 0.72605 0.39639 0.0
C1072 C 0.64466 0.73934 0.41873 0.0
C1073 C 0.65821 0.74596 0.43135 0.0
C1074 C 0.66917 0.74215 0.42694 0.0
H1075 H 0.6905 0.81994 0.52566 0.0
H1076 H 0.68685 0.80467 0.49281 0.0
C1077 C 0.66685 0.73231 0.40955 0.0
C1078 C 0.66079 0.75672 0.44929 0.0
H1079 H 0.66314 0.79011 0.45978 0.0
C1080 C 0.66233 0.75299 0.47104 0.0
C1081 C 0.66142 0.77042 0.4451 0.0
C1082 C 0.66061 0.77536 0.42196 0.0
C1083 C 0.66405 0.7624 0.48879 0.0
C1084 C 0.66401 0.77578 0.48468 0.0
C1085 C 0.66294 0.77974 0.46289 0.0
C1086 C 0.66521 0.7858 0.50292 0.0
C1087 C 0.666 0.75799 0.5118 0.0
C1088 C 0.65389 0.78053 0.51888 0.0
C1089 C 0.6559 0.78924 0.53754 0.0
C1090 C 0.66924 0.80342 0.54052 0.0
C1091 C 0.68006 0.80912 0.52374 0.0
C1092 C 0.67804 0.80037 0.50505 0.0
H1093 H 0.66953 0.74956 0.51161 0.0
H1094 H 0.67461 0.76797 0.52147 0.0
H1095 H 0.65498 0.75296 0.52039 0.0
H1096 H 0.64375 0.76945 0.51728 0.0
H1097 H 0.64731 0.78464 0.5501 0.0
H1098 H 0.28821 0.94911 0.41778 0.0
H1099 H 0.2744 0.93335 0.44942 0.0
H1100 H 0.26575 0.89387 0.41366 0.0
H1101 H 0.27962 0.90935 0.38246 0.0
H1102 H 0.24425 0.90866 0.453 0.0
H1103 H 0.28643 0.89171 0.4704 0.0
H1104 H 0.29034 0.90709 0.45238 0.0
H1105 H 0.27922 0.888 0.4425 0.0
C1106 C 0.28337 0.93708 0.41671 0.0
C1107 C 0.28522 0.93054 0.39771 0.0
C1108 C 0.27546 0.92809 0.43475 0.0
C1109 C 0.26932 0.91248 0.43401 0.0
C1110 C 0.27072 0.90592 0.41479 0.0
H1111 H 0.20452 0.84594 0.52718 0.0
H1112 H 0.21642 0.85979 0.4932 0.0
C1113 C 0.27865 0.91484 0.39693 0.0
C1114 C 0.26158 0.90292 0.45331 0.0
H1115 H 0.26305 0.87838 0.48928 0.0
C1116 C 0.24836 0.90207 0.46101 0.0
C1117 C 0.26704 0.8944 0.46379 0.0
C1118 C 0.28161 0.89542 0.45701 0.0
C1119 C 0.24038 0.89282 0.47886 0.0
C1120 C 0.24564 0.88402 0.48896 0.0
C1121 C 0.2589 0.88495 0.48129 0.0
C1122 C 0.23841 0.87481 0.50877 0.0
C1123 C 0.22665 0.89286 0.48713 0.0
C1124 C 0.24699 0.87822 0.52845 0.0
C1125 C 0.24032 0.87026 0.5476 0.0
C1126 C 0.22488 0.85872 0.54757 0.0
C1127 C 0.21642 0.85481 0.52765 0.0
C1128 C 0.22315 0.86282 0.50835 0.0
H1129 H 0.22608 0.90257 0.48072 0.0
H1130 H 0.21614 0.8824 0.48158 0.0
H1131 H 0.22678 0.89322 0.50543 0.0
H1132 H 0.25881 0.88731 0.52912 0.0
H1133 H 0.2472 0.87336 0.56264 0.0
H1134 H 0.06537 0.31178 0.38771 0.0
H1135 H 0.08264 0.31606 0.41863 0.0
H1136 H 0.08223 0.35579 0.43707 0.0
H1137 H 0.06501 0.35176 0.40563 0.0
H1138 H 0.11165 0.35949 0.43903 0.0
H1139 H 0.06917 0.30807 0.48259 0.0
H1140 H 0.07221 0.30449 0.45482 0.0
H1141 H 0.06402 0.31583 0.45977 0.0
C1142 C 0.06887 0.32144 0.39832 0.0
C1143 C 0.06364 0.33134 0.39431 0.0
C1144 C 0.07876 0.32384 0.41603 0.0
C1145 C 0.08351 0.33608 0.43035 0.0
C1146 C 0.07861 0.34622 0.42623 0.0
H1147 H 0.11938 0.34022 0.56071 0.0
H1148 H 0.10566 0.34063 0.52808 0.0
C1149 C 0.06874 0.34387 0.40834 0.0
C1150 C 0.09334 0.33799 0.44981 0.0
H1151 H 0.0947 0.32004 0.49615 0.0
C1152 C 0.10795 0.35094 0.45163 0.0
C1153 C 0.08841 0.32686 0.46629 0.0
C1154 C 0.07254 0.3131 0.46594 0.0
C1155 C 0.11786 0.35293 0.46941 0.0
C1156 C 0.11309 0.34155 0.4855 0.0
C1157 C 0.09842 0.32869 0.4837 0.0
C1158 C 0.12261 0.34297 0.50516 0.0
C1159 C 0.1332 0.3673 0.47105 0.0
C1160 C 0.13689 0.34431 0.50323 0.0
C1161 C 0.14506 0.34442 0.52213 0.0
C1162 C 0.13902 0.34309 0.54323 0.0
C1163 C 0.12472 0.34178 0.54491 0.0
C1164 C 0.1167 0.34183 0.52617 0.0
H1165 H 0.13363 0.37629 0.46058 0.0
H1166 H 0.13601 0.37143 0.48836 0.0
H1167 H 0.1421 0.36514 0.46538 0.0
H1168 H 0.14152 0.34487 0.48714 0.0
H1169 H 0.156 0.34539 0.52023 0.0
H1170 H 0.07408 0.35965 0.29422 0.0
H1171 H 0.09305 0.36667 0.26531 0.0
H1172 H 0.06622 0.32226 0.23686 0.0
H1173 H 0.04744 0.31509 0.26574 0.0
H1174 H 0.10703 0.34611 0.2584 0.0
H1175 H 0.0799 0.35551 0.18485 0.0
H1176 H 0.07612 0.35858 0.21274 0.0
H1177 H 0.0676 0.33981 0.20201 0.0
C1178 C 0.07205 0.35153 0.28145 0.0
C1179 C 0.05931 0.33682 0.28221 0.0
C1180 C 0.08293 0.35553 0.26509 0.0
C1181 C 0.08097 0.34496 0.24906 0.0
C1182 C 0.06785 0.33057 0.24907 0.0
H1183 H 0.1248 0.3177 0.16405 0.0
H1184 H 0.1149 0.32358 0.19622 0.0
C1185 C 0.05715 0.3265 0.26556 0.0
C1186 C 0.09311 0.34823 0.23336 0.0
H1187 H 0.10005 0.35111 0.17831 0.0
C1188 C 0.10574 0.34755 0.24093 0.0
C1189 C 0.09134 0.35011 0.21068 0.0
C1190 C 0.07807 0.35116 0.20198 0.0
C1191 C 0.11621 0.34782 0.22611 0.0
C1192 C 0.1139 0.34875 0.20326 0.0
C1193 C 0.10179 0.35037 0.19587 0.0
C1194 C 0.12282 0.34647 0.18652 0.0
C1195 C 0.12937 0.34663 0.23491 0.0
C1196 C 0.13096 0.35755 0.17075 0.0
C1197 C 0.1368 0.35427 0.15243 0.0
C1198 C 0.13434 0.33977 0.14936 0.0
C1199 C 0.1271 0.32904 0.16601 0.0
C1200 C 0.12137 0.33237 0.18441 0.0
H1201 H 0.13205 0.35028 0.25245 0.0
H1202 H 0.12631 0.33474 0.23389 0.0
H1203 H 0.13973 0.35353 0.22504 0.0
H1204 H 0.13217 0.36849 0.17209 0.0
H1205 H 0.14248 0.36283 0.14002 0.0
H1206 H 0.64785 0.71767 0.26407 0.0
H1207 H 0.65674 0.73748 0.23653 0.0
H1208 H 0.69684 0.76564 0.27684 0.0
H1209 H 0.6883 0.74539 0.30392 0.0
H1210 H 0.65963 0.7635 0.24266 0.0
H1211 H 0.71591 0.77352 0.21794 0.0
H1212 H 0.70279 0.75739 0.23382 0.0
H1213 H 0.71435 0.77545 0.24699 0.0
C1214 C 0.65878 0.72793 0.26673 0.0
C1215 C 0.66744 0.72998 0.28601 0.0
C1216 C 0.66381 0.7393 0.25107 0.0
C1217 C 0.67748 0.75311 0.25452 0.0
C1218 C 0.68643 0.75502 0.27349 0.0
H1219 H 0.68142 0.82287 0.16611 0.0
H1220 H 0.68347 0.81204 0.20117 0.0
C1221 C 0.68154 0.74344 0.28898 0.0
C1222 C 0.68149 0.76568 0.23896 0.0
H1223 H 0.70846 0.78978 0.20311 0.0
C1224 C 0.67034 0.76928 0.23404 0.0
C1225 C 0.69552 0.77333 0.22787 0.0
C1226 C 0.70779 0.76967 0.23174 0.0
C1227 C 0.67237 0.77957 0.21748 0.0
C1228 C 0.68631 0.78709 0.20611 0.0
C1229 C 0.69782 0.78412 0.21191 0.0
C1230 C 0.68819 0.79611 0.18599 0.0
C1231 C 0.65912 0.78145 0.21141 0.0
C1232 C 0.69145 0.79171 0.16605 0.0
C1233 C 0.69075 0.79816 0.14625 0.0
C1234 C 0.68648 0.809 0.1458 0.0
C1235 C 0.68451 0.81438 0.16591 0.0
C1236 C 0.68549 0.80806 0.18591 0.0
H1237 H 0.64827 0.77245 0.21848 0.0
H1238 H 0.66137 0.79237 0.21793 0.0
H1239 H 0.65754 0.78132 0.19323 0.0
H1240 H 0.69377 0.78268 0.16558 0.0
H1241 H 0.69285 0.79412 0.1311 0.0
H1242 H 0.27077 0.96036 0.30505 0.0
H1243 H 0.24935 0.95095 0.27836 0.0
H1244 H 0.26624 0.92649 0.24414 0.0
H1245 H 0.28745 0.93568 0.27051 0.0
H1246 H 0.24796 0.95165 0.23001 0.0
H1247 H 0.22233 0.89403 0.26291 0.0
H1248 H 0.23666 0.91045 0.27797 0.0
H1249 H 0.24212 0.90224 0.25672 0.0
C1250 C 0.27005 0.9532 0.2916 0.0
C1251 C 0.2807 0.94861 0.29005 0.0
C1252 C 0.25778 0.94778 0.27646 0.0
C1253 C 0.25604 0.93773 0.25968 0.0
C1254 C 0.2672 0.93396 0.25731 0.0
H1255 H 0.21905 0.90696 0.13614 0.0
H1256 H 0.23167 0.92133 0.16928 0.0
C1257 C 0.27936 0.93929 0.27235 0.0
C1258 C 0.24245 0.93063 0.24482 0.0
H1259 H 0.21474 0.89608 0.22582 0.0
C1260 C 0.24045 0.93953 0.22935 0.0
C1261 C 0.2324 0.91486 0.24437 0.0
C1262 C 0.23336 0.90484 0.26154 0.0
C1263 C 0.2295 0.93291 0.21221 0.0
C1264 C 0.2206 0.91704 0.21036 0.0
C1265 C 0.22168 0.90824 0.22703 0.0
C1266 C 0.21194 0.90935 0.18986 0.0
C1267 C 0.22796 0.94299 0.19581 0.0
C1268 C 0.19663 0.89753 0.19038 0.0
C1269 C 0.18927 0.88916 0.17123 0.0
C1270 C 0.19715 0.89247 0.1513 0.0
C1271 C 0.21243 0.90439 0.15094 0.0
C1272 C 0.21971 0.91269 0.16995 0.0
H1273 H 0.23066 0.95373 0.20373 0.0
H1274 H 0.2362 0.94578 0.18241 0.0
H1275 H 0.21629 0.93748 0.18841 0.0
H1276 H 0.19048 0.8946 0.20568 0.0
H1277 H 0.17752 0.88002 0.17205 0.0
H1278 H 0.70565 0.94669 0.29103 0.0
H1279 H 0.70079 0.92928 0.26081 0.0
H1280 H 0.65466 0.91963 0.25418 0.0
H1281 H 0.6595 0.93729 0.28433 0.0
H1282 H 0.67937 0.89873 0.25894 0.0
H1283 H 0.66974 0.92905 0.19101 0.0
H1284 H 0.67821 0.93784 0.21726 0.0
H1285 H 0.65796 0.92519 0.21456 0.0
C1286 C 0.6945 0.941 0.28304 0.0
C1287 C 0.68297 0.94343 0.29008 0.0
C1288 C 0.69173 0.931 0.2658 0.0
C1289 C 0.67741 0.92323 0.25516 0.0
C1290 C 0.66589 0.9257 0.26194 0.0
H1291 H 0.64709 0.86246 0.14194 0.0
H1292 H 0.64697 0.87465 0.1763 0.0
C1293 C 0.66866 0.93578 0.27919 0.0
C1294 C 0.67458 0.91231 0.23733 0.0
H1295 H 0.66624 0.90539 0.18233 0.0
C1296 C 0.67644 0.90014 0.24219 0.0
C1297 C 0.67074 0.91417 0.21552 0.0
C1298 C 0.66916 0.92732 0.20914 0.0
C1299 C 0.67466 0.88983 0.22578 0.0
C1300 C 0.67109 0.89185 0.20391 0.0
C1301 C 0.66891 0.90383 0.19915 0.0
C1302 C 0.67037 0.88225 0.18536 0.0
C1303 C 0.67656 0.87685 0.232 0.0
C1304 C 0.68343 0.88209 0.17941 0.0
C1305 C 0.68352 0.87512 0.15979 0.0
C1306 C 0.67059 0.86832 0.1457 0.0
C1307 C 0.65724 0.8677 0.15241 0.0
C1308 C 0.65716 0.87466 0.17201 0.0
H1309 H 0.67485 0.87439 0.24991 0.0
H1310 H 0.66843 0.86654 0.22254 0.0
H1311 H 0.68831 0.87977 0.22817 0.0
H1312 H 0.69384 0.88811 0.18924 0.0
H1313 H 0.69404 0.87599 0.15491 0.0
H1314 H 0.05917 0.7305 0.29114 0.0
H1315 H 0.0755 0.74698 0.2618 0.0
H1316 H 0.06538 0.7807 0.28065 0.0
H1317 H 0.04926 0.76452 0.30994 0.0
H1318 H 0.06872 0.75987 0.22613 0.0
H1319 H 0.1121 0.80385 0.28237 0.0
H1320 H 0.09804 0.7853 0.2917 0.0
H1321 H 0.09299 0.79928 0.28741 0.0
C1322 C 0.06036 0.74138 0.28894 0.0
C1323 C 0.05301 0.74623 0.30301 0.0
C1324 C 0.06973 0.7508 0.27224 0.0
C1325 C 0.07192 0.76519 0.26943 0.0
C1326 C 0.06417 0.7698 0.28292 0.0
H1327 H 0.10615 0.82039 0.15303 0.0
H1328 H 0.0919 0.80788 0.18622 0.0
C1329 C 0.05486 0.76046 0.29957 0.0
C1330 C 0.08213 0.77539 0.25221 0.0
H1331 H 0.11365 0.81017 0.24428 0.0
C1332 C 0.07858 0.77083 0.23008 0.0
C1333 C 0.09508 0.78963 0.25747 0.0
C1334 C 0.0999 0.79478 0.28104 0.0
C1335 C 0.08744 0.78028 0.213 0.0
C1336 C 0.10003 0.79476 0.21821 0.0
C1337 C 0.10382 0.79918 0.24036 0.0
C1338 C 0.1097 0.80512 0.20074 0.0
C1339 C 0.08339 0.77458 0.18952 0.0
C1340 C 0.1248 0.80868 0.19878 0.0
C1341 C 0.13302 0.81596 0.17997 0.0
C1342 C 0.12621 0.81976 0.16287 0.0
C1343 C 0.11162 0.81749 0.16592 0.0
C1344 C 0.10344 0.81026 0.18475 0.0
H1345 H 0.07573 0.76216 0.18872 0.0
H1346 H 0.0774 0.77968 0.18132 0.0
H1347 H 0.0938 0.77779 0.18009 0.0
H1348 H 0.12986 0.80489 0.21105 0.0
H1349 H 0.14416 0.81742 0.17798 0.0
H1350 H 0.26588 0.31522 0.29812 0.0
H1351 H 0.24495 0.3061 0.27054 0.0
H1352 H 0.26688 0.35008 0.24118 0.0
H1353 H 0.2876 0.35921 0.26842 0.0
H1354 H 0.22592 0.31935 0.26404 0.0
H1355 H 0.25592 0.32087 0.18831 0.0
H1356 H 0.26283 0.32009 0.21562 0.0
H1357 H 0.2663 0.33767 0.20474 0.0
C1358 C 0.26637 0.32282 0.28545 0.0
C1359 C 0.27839 0.33793 0.28541 0.0
C1360 C 0.25437 0.31763 0.26985 0.0
C1361 C 0.25442 0.32741 0.25377 0.0
C1362 C 0.2667 0.3423 0.25327 0.0
H1363 H 0.20646 0.3422 0.15347 0.0
H1364 H 0.22181 0.34268 0.18519 0.0
C1365 C 0.27853 0.34751 0.2689 0.0
C1366 C 0.24139 0.32262 0.23815 0.0
H1367 H 0.2333 0.32204 0.18321 0.0
C1368 C 0.22736 0.31958 0.24635 0.0
C1369 C 0.24332 0.32293 0.21511 0.0
C1370 C 0.25786 0.32542 0.20539 0.0
C1371 C 0.21557 0.31782 0.23203 0.0
C1372 C 0.21791 0.31907 0.20906 0.0
C1373 C 0.23161 0.32127 0.20088 0.0
C1374 C 0.20688 0.31921 0.19308 0.0
C1375 C 0.20103 0.31547 0.24148 0.0
C1376 C 0.19305 0.30599 0.18761 0.0
C1377 C 0.18417 0.30575 0.16955 0.0
C1378 C 0.1891 0.31869 0.15675 0.0
C1379 C 0.20237 0.33213 0.16325 0.0
C1380 C 0.21117 0.33238 0.18124 0.0
H1381 H 0.20156 0.31619 0.25978 0.0
H1382 H 0.1986 0.32398 0.23484 0.0
H1383 H 0.19138 0.30421 0.23644 0.0
H1384 H 0.18963 0.29566 0.19639 0.0
H1385 H 0.17413 0.29519 0.16458 0.0
H1386 H 0.28912 0.37522 0.39403 0.0
H1387 H 0.27323 0.37255 0.42507 0.0
H1388 H 0.26338 0.32738 0.43548 0.0
H1389 H 0.27949 0.33 0.40438 0.0
H1390 H 0.24225 0.35162 0.42916 0.0
H1391 H 0.27645 0.34668 0.49713 0.0
H1392 H 0.28402 0.3534 0.4701 0.0
H1393 H 0.27153 0.33362 0.47469 0.0
C1394 C 0.28372 0.36474 0.403 0.0
C1395 C 0.2856 0.35281 0.3967 0.0
C1396 C 0.27459 0.36323 0.42072 0.0
C1397 C 0.26719 0.34981 0.43264 0.0
C1398 C 0.26918 0.33792 0.42668 0.0
H1399 H 0.19237 0.32152 0.52286 0.0
H1400 H 0.20743 0.32564 0.48992 0.0
C1401 C 0.27837 0.33943 0.40889 0.0
C1402 C 0.25706 0.34825 0.45086 0.0
H1403 H 0.2525 0.34304 0.50638 0.0
C1404 C 0.24447 0.34974 0.44607 0.0
C1405 C 0.2601 0.34598 0.47289 0.0
C1406 C 0.27382 0.34495 0.47914 0.0
C1407 C 0.23478 0.34894 0.46273 0.0
C1408 C 0.23767 0.3464 0.48471 0.0
C1409 C 0.25029 0.34496 0.48949 0.0
C1410 C 0.22782 0.34519 0.50313 0.0
C1411 C 0.22173 0.35112 0.45677 0.0
C1412 C 0.23418 0.35498 0.5213 0.0
C1413 C 0.22561 0.35266 0.5401 0.0
C1414 C 0.21052 0.34044 0.54111 0.0
C1415 C 0.20388 0.33116 0.52242 0.0
C1416 C 0.2125 0.33347 0.50361 0.0
H1417 H 0.2234 0.35676 0.44058 0.0
H1418 H 0.21102 0.33998 0.45565 0.0
H1419 H 0.22034 0.3579 0.46955 0.0
H1420 H 0.24598 0.36411 0.52125 0.0
H1421 H 0.23099 0.36 0.55424 0.0
H1422 H 0.64979 0.93073 0.39101 0.0
H1423 H 0.64096 0.91202 0.42068 0.0
H1424 H 0.68672 0.93357 0.44775 0.0
H1425 H 0.69565 0.95205 0.4182 0.0
H1426 H 0.65663 0.89337 0.42959 0.0
H1427 H 0.65596 0.92685 0.50021 0.0
H1428 H 0.6534 0.93073 0.47188 0.0
H1429 H 0.67209 0.93641 0.48247 0.0
C1430 C 0.65789 0.93161 0.40352 0.0
C1431 C 0.67342 0.94283 0.40227 0.0
C1432 C 0.65285 0.92089 0.42035 0.0
C1433 C 0.66321 0.92148 0.43633 0.0
C1434 C 0.67856 0.933 0.43559 0.0
H1435 H 0.68272 0.8721 0.52439 0.0
H1436 H 0.67751 0.88228 0.49139 0.0
C1437 C 0.68363 0.94353 0.41868 0.0
C1438 C 0.65847 0.90966 0.45319 0.0
H1439 H 0.65677 0.90492 0.5089 0.0
C1440 C 0.6563 0.89571 0.44692 0.0
C1441 C 0.65799 0.91276 0.47568 0.0
C1442 C 0.65986 0.92746 0.48307 0.0
C1443 C 0.65462 0.88511 0.4628 0.0
C1444 C 0.65522 0.88866 0.48542 0.0
C1445 C 0.65636 0.90222 0.49155 0.0
C1446 C 0.65639 0.87941 0.50307 0.0
C1447 C 0.65266 0.87041 0.45529 0.0
C1448 C 0.64603 0.87402 0.52037 0.0
C1449 C 0.64892 0.86807 0.53924 0.0
C1450 C 0.66236 0.86762 0.54129 0.0
C1451 C 0.67216 0.87205 0.52326 0.0
C1452 C 0.66921 0.87792 0.50435 0.0
H1453 H 0.64769 0.86741 0.43831 0.0
H1454 H 0.66398 0.87148 0.45515 0.0
H1455 H 0.64525 0.86114 0.46659 0.0
H1456 H 0.63609 0.8751 0.51972 0.0
H1457 H 0.64108 0.86461 0.55276 0.0
H1458 H 0.06975 0.71844 0.39631 0.0
H1459 H 0.09189 0.72919 0.4218 0.0
H1460 H 0.07554 0.75478 0.45411 0.0
H1461 H 0.05358 0.74425 0.4289 0.0
H1462 H 0.1067 0.77181 0.43714 0.0
H1463 H 0.09557 0.72339 0.49019 0.0
H1464 H 0.0933 0.72074 0.46071 0.0
H1465 H 0.08033 0.7239 0.47564 0.0
C1466 C 0.0707 0.72608 0.40919 0.0
C1467 C 0.05996 0.73057 0.41049 0.0
C1468 C 0.08337 0.73223 0.42368 0.0
C1469 C 0.08535 0.74283 0.43973 0.0
C1470 C 0.07424 0.74668 0.44174 0.0
H1471 H 0.13675 0.80011 0.54337 0.0
H1472 H 0.12219 0.78826 0.50945 0.0
C1473 C 0.06167 0.74061 0.42734 0.0
C1474 C 0.09941 0.75083 0.45359 0.0
H1475 H 0.11672 0.74708 0.49965 0.0
C1476 C 0.10905 0.76638 0.45061 0.0
C1477 C 0.10252 0.74367 0.47093 0.0
C1478 C 0.09241 0.72701 0.47477 0.0
C1479 C 0.1213 0.77509 0.46522 0.0
C1480 C 0.12381 0.7681 0.48346 0.0
C1481 C 0.11475 0.75241 0.48565 0.0
C1482 C 0.13434 0.77701 0.5019 0.0
C1483 C 0.1312 0.79177 0.46134 0.0
C1484 C 0.14616 0.77479 0.50877 0.0
C1485 C 0.15458 0.78166 0.52815 0.0
C1486 C 0.15108 0.79061 0.54106 0.0
C1487 C 0.13972 0.79335 0.53359 0.0
C1488 C 0.13144 0.78661 0.5142 0.0
H1489 H 0.1312 0.79447 0.4436 0.0
H1490 H 0.12664 0.79769 0.47063 0.0
H1491 H 0.14313 0.79614 0.46705 0.0
H1492 H 0.14849 0.76732 0.49959 0.0
H1493 H 0.16312 0.7792 0.53377 0.0
H1494 H 0.30297 0.06353 0.72543 0.0
H1495 H 0.30901 0.08166 0.75499 0.0
H1496 H 0.34938 0.08061 0.77217 0.0
H1497 H 0.34364 0.06266 0.74209 0.0
H1498 H 0.31179 0.07969 0.79875 0.0
H1499 H 0.36661 0.1253 0.76609 0.0
H1500 H 0.35349 0.10893 0.7499 0.0
H1501 H 0.36606 0.10793 0.76997 0.0
C1502 C 0.31316 0.0671 0.73549 0.0
C1503 C 0.32289 0.06167 0.73128 0.0
C1504 C 0.31658 0.07751 0.75238 0.0
C1505 C 0.32979 0.08274 0.76552 0.0
C1506 C 0.33932 0.07703 0.76185 0.0
H1507 H 0.36559 0.13589 0.88298 0.0
H1508 H 0.36053 0.121 0.84935 0.0
C1509 C 0.33596 0.06666 0.74479 0.0
C1510 C 0.33333 0.09396 0.78326 0.0
H1511 H 0.36059 0.12874 0.80252 0.0
C1512 C 0.3224 0.09047 0.79945 0.0
C1513 C 0.34714 0.10808 0.78407 0.0
C1514 C 0.35894 0.11288 0.76647 0.0
C1515 C 0.3251 0.1005 0.81679 0.0
C1516 C 0.33903 0.11445 0.81786 0.0
C1517 C 0.34989 0.11805 0.80156 0.0
C1518 C 0.343 0.12485 0.83681 0.0
C1519 C 0.31324 0.09594 0.83426 0.0
C1520 C 0.33513 0.13233 0.84053 0.0
C1521 C 0.33808 0.14096 0.85974 0.0
C1522 C 0.34883 0.14205 0.87547 0.0
C1523 C 0.35714 0.1351 0.87116 0.0
C1524 C 0.3543 0.12663 0.85197 0.0
H1525 H 0.3041 0.0839 0.83281 0.0
H1526 H 0.3186 0.098 0.85098 0.0
H1527 H 0.30792 0.10284 0.83266 0.0
H1528 H 0.32646 0.13119 0.82886 0.0
H1529 H 0.33153 0.14622 0.86276 0.0
H1530 H 0.9588 0.2489 0.72538 0.0
H1531 H 0.94154 0.23385 0.75445 0.0
H1532 H 0.93221 0.26892 0.7676 0.0
H1533 H 0.94974 0.2843 0.73846 0.0
H1534 H 0.93753 0.25678 0.80558 0.0
H1535 H 0.89507 0.21142 0.75035 0.0
H1536 H 0.91408 0.21532 0.74668 0.0
H1537 H 0.90963 0.22951 0.74022 0.0
C1538 C 0.95312 0.25349 0.73442 0.0
C1539 C 0.95558 0.26779 0.72945 0.0
C1540 C 0.94315 0.24478 0.75093 0.0
C1541 C 0.93529 0.25009 0.76276 0.0
C1542 C 0.93804 0.26455 0.75843 0.0
H1543 H 0.87582 0.2093 0.87547 0.0
H1544 H 0.8876 0.22442 0.84265 0.0
C1545 C 0.94809 0.27334 0.74185 0.0
C1546 C 0.92455 0.24057 0.78002 0.0
H1547 H 0.89343 0.20569 0.7889 0.0
C1548 C 0.92775 0.24571 0.80193 0.0
C1549 C 0.9118 0.22612 0.77516 0.0
C1550 C 0.90733 0.22031 0.75179 0.0
C1551 C 0.91893 0.23651 0.81926 0.0
C1552 C 0.90647 0.22188 0.81445 0.0
C1553 C 0.90302 0.21689 0.7925 0.0
C1554 C 0.89737 0.21144 0.83222 0.0
C1555 C 0.92339 0.24227 0.84266 0.0
C1556 C 0.89829 0.19867 0.83648 0.0
C1557 C 0.89153 0.18998 0.85518 0.0
C1558 C 0.88376 0.19395 0.86986 0.0
C1559 C 0.88193 0.2061 0.8646 0.0
C1560 C 0.88867 0.21477 0.84593 0.0
H1561 H 0.93494 0.25254 0.84381 0.0
H1562 H 0.9151 0.24507 0.84903 0.0
H1563 H 0.92315 0.23353 0.85351 0.0
H1564 H 0.90491 0.1959 0.82599 0.0
H1565 H 0.89323 0.18076 0.85888 0.0
H1566 H 0.71788 0.64661 0.75316 0.0
H1567 H 0.73806 0.65396 0.78087 0.0
H1568 H 0.76101 0.69951 0.75701 0.0
H1569 H 0.74054 0.69225 0.72929 0.0
H1570 H 0.76835 0.66515 0.7714 0.0
H1571 H 0.76189 0.70513 0.82398 0.0
H1572 H 0.74718 0.69245 0.80473 0.0
H1573 H 0.76394 0.70891 0.79489 0.0
C1574 C 0.72707 0.65826 0.75401 0.0
C1575 C 0.72762 0.66885 0.73901 0.0
C1576 C 0.73864 0.66243 0.76981 0.0
C1577 C 0.75107 0.67726 0.77098 0.0
C1578 C 0.75144 0.68804 0.75656 0.0
H1579 H 0.82751 0.68832 0.85711 0.0
H1580 H 0.81479 0.69077 0.82383 0.0
C1581 C 0.73973 0.68388 0.74077 0.0
C1582 C 0.76378 0.68096 0.78677 0.0
H1583 H 0.78059 0.69973 0.83486 0.0
C1584 C 0.77121 0.67287 0.78514 0.0
C1585 C 0.7675 0.69108 0.80457 0.0
C1586 C 0.75968 0.69985 0.80736 0.0
C1587 C 0.78159 0.67394 0.80151 0.0
C1588 C 0.78486 0.68361 0.81979 0.0
C1589 C 0.7781 0.69237 0.82076 0.0
C1590 C 0.79324 0.68304 0.83962 0.0
C1591 C 0.78818 0.66397 0.79983 0.0
C1592 C 0.78543 0.6781 0.85947 0.0
C1593 C 0.79262 0.67679 0.87828 0.0
C1594 C 0.80787 0.68049 0.8778 0.0
C1595 C 0.81576 0.68541 0.85791 0.0
C1596 C 0.80851 0.68679 0.83895 0.0
H1597 H 0.78261 0.65545 0.78643 0.0
H1598 H 0.80052 0.67099 0.79636 0.0
H1599 H 0.78694 0.65805 0.81563 0.0
H1600 H 0.77361 0.67497 0.86033 0.0
H1601 H 0.78611 0.67263 0.8932 0.0
H1602 H 0.71657 0.63552 0.62607 0.0
H1603 H 0.73297 0.6385 0.59559 0.0
H1604 H 0.74805 0.68558 0.59175 0.0
H1605 H 0.73163 0.68274 0.62262 0.0
H1606 H 0.73293 0.64912 0.5523 0.0
H1607 H 0.78813 0.68471 0.59753 0.0
H1608 H 0.77027 0.6739 0.61155 0.0
H1609 H 0.77475 0.69094 0.59771 0.0
C1610 C 0.72331 0.64653 0.61876 0.0
C1611 C 0.72284 0.65892 0.62687 0.0
C1612 C 0.73269 0.6482 0.60133 0.0
C1613 C 0.74188 0.66229 0.59168 0.0
C1614 C 0.74121 0.67465 0.59927 0.0
H1615 H 0.80335 0.68587 0.48185 0.0
H1616 H 0.79066 0.68707 0.51487 0.0
C1617 C 0.73174 0.67299 0.61675 0.0
C1618 C 0.752 0.66376 0.57356 0.0
H1619 H 0.78933 0.67841 0.56058 0.0
C1620 C 0.74526 0.65557 0.55406 0.0
C1621 C 0.76807 0.6722 0.57596 0.0
C1622 C 0.77582 0.68088 0.59684 0.0
C1623 C 0.75416 0.6555 0.5369 0.0
C1624 C 0.77022 0.66359 0.53952 0.0
C1625 C 0.77701 0.6721 0.55878 0.0
C1626 C 0.78003 0.66339 0.52213 0.0
C1627 C 0.74629 0.64686 0.51602 0.0
C1628 C 0.77888 0.64985 0.51604 0.0
C1629 C 0.78606 0.64911 0.49717 0.0
C1630 C 0.79455 0.66194 0.48416 0.0
C1631 C 0.79674 0.67577 0.49143 0.0
C1632 C 0.78953 0.67648 0.51029 0.0
H1633 H 0.7344 0.64437 0.51453 0.0
H1634 H 0.7526 0.6532 0.50124 0.0
H1635 H 0.74588 0.636 0.51615 0.0
H1636 H 0.77177 0.63967 0.52523 0.0
H1637 H 0.78407 0.63828 0.49196 0.0
H1638 H 0.35572 0.07181 0.62968 0.0
H1639 H 0.36484 0.09171 0.6017 0.0
H1640 H 0.31867 0.07383 0.57817 0.0
H1641 H 0.30949 0.05407 0.60575 0.0
H1642 H 0.35349 0.08696 0.54774 0.0
H1643 H 0.34137 0.12153 0.60374 0.0
H1644 H 0.34711 0.10881 0.61388 0.0
H1645 H 0.32808 0.10151 0.60335 0.0
C1646 C 0.34757 0.07193 0.6182 0.0
C1647 C 0.33186 0.06143 0.62004 0.0
C1648 C 0.35279 0.08333 0.60233 0.0
C1649 C 0.34238 0.08426 0.58812 0.0
C1650 C 0.32685 0.07332 0.58913 0.0
H1651 H 0.32069 0.12682 0.49223 0.0
H1652 H 0.32431 0.1153 0.52522 0.0
C1653 C 0.32164 0.06203 0.60491 0.0
C1654 C 0.34721 0.09706 0.57297 0.0
H1655 H 0.34407 0.12787 0.56573 0.0
C1656 C 0.35189 0.09618 0.55177 0.0
C1657 C 0.34499 0.10896 0.57836 0.0
C1658 C 0.3402 0.11041 0.60111 0.0
C1659 C 0.35349 0.10644 0.53534 0.0
C1660 C 0.35038 0.11784 0.5404 0.0
C1661 C 0.34652 0.11918 0.56196 0.0
C1662 C 0.34885 0.12691 0.52281 0.0
C1663 C 0.35743 0.10441 0.51229 0.0
C1664 C 0.36153 0.13774 0.51113 0.0
C1665 C 0.35947 0.14449 0.49241 0.0
C1666 C 0.34471 0.14039 0.48516 0.0
C1667 C 0.33217 0.13024 0.49767 0.0
C1668 C 0.33423 0.12364 0.51642 0.0
H1669 H 0.35818 0.09419 0.51066 0.0
H1670 H 0.34874 0.1036 0.50027 0.0
H1671 H 0.36858 0.11434 0.50786 0.0
H1672 H 0.3729 0.14046 0.5159 0.0
H1673 H 0.36927 0.15213 0.4828 0.0
H1674 H 0.9427 0.2926 0.63198 0.0
H1675 H 0.92213 0.28213 0.60385 0.0
H1676 H 0.94135 0.25828 0.5742 0.0
H1677 H 0.96179 0.26854 0.60213 0.0
H1678 H 0.93053 0.27419 0.54401 0.0
H1679 H 0.88848 0.23493 0.60475 0.0
H1680 H 0.90019 0.25459 0.61183 0.0
H1681 H 0.90876 0.24345 0.60932 0.0
C1682 C 0.9427 0.28537 0.6192 0.0
C1683 C 0.95381 0.28131 0.61935 0.0
C1684 C 0.9309 0.27933 0.60327 0.0
C1685 C 0.93017 0.26931 0.58718 0.0
C1686 C 0.9417 0.26594 0.58657 0.0
H1687 H 0.87115 0.20008 0.49977 0.0
H1688 H 0.88592 0.2156 0.53147 0.0
C1689 C 0.95337 0.27182 0.60254 0.0
C1690 C 0.91705 0.26158 0.57157 0.0
H1691 H 0.88052 0.23159 0.56751 0.0
C1692 C 0.91948 0.26508 0.54913 0.0
C1693 C 0.90276 0.24959 0.57841 0.0
C1694 C 0.89977 0.24528 0.60236 0.0
C1695 C 0.90811 0.25657 0.53318 0.0
C1696 C 0.89395 0.24431 0.53994 0.0
C1697 C 0.89136 0.24108 0.56246 0.0
C1698 C 0.88242 0.23387 0.52359 0.0
C1699 C 0.9116 0.26027 0.50912 0.0
C1700 C 0.87491 0.2387 0.50937 0.0
C1701 C 0.86633 0.22979 0.49133 0.0
C1702 C 0.86517 0.21593 0.48719 0.0
C1703 C 0.87167 0.21061 0.50256 0.0
C1704 C 0.88021 0.21951 0.52063 0.0
H1705 H 0.92382 0.26877 0.50653 0.0
H1706 H 0.90855 0.24997 0.49954 0.0
H1707 H 0.90467 0.2648 0.50239 0.0
H1708 H 0.87634 0.24969 0.51158 0.0
H1709 H 0.86129 0.23411 0.47992 0.0
H1710 H 0.32819 0.27228 0.62086 0.0
H1711 H 0.32257 0.25406 0.59122 0.0
H1712 H 0.36814 0.26218 0.59775 0.0
H1713 H 0.3738 0.28018 0.62742 0.0
H1714 H 0.33681 0.25784 0.55107 0.0
H1715 H 0.34186 0.21651 0.60265 0.0
H1716 H 0.34027 0.23155 0.61432 0.0
H1717 H 0.3583 0.23516 0.60462 0.0
C1718 C 0.33703 0.27023 0.61593 0.0
C1719 C 0.35141 0.27762 0.62664 0.0
C1720 C 0.33378 0.25978 0.59905 0.0
C1721 C 0.34482 0.25651 0.59268 0.0
C1722 C 0.35932 0.26423 0.60284 0.0
H1723 H 0.35765 0.20864 0.48911 0.0
H1724 H 0.35889 0.22177 0.52322 0.0
C1725 C 0.36256 0.27462 0.61969 0.0
C1726 C 0.34142 0.24532 0.57502 0.0
H1727 H 0.34142 0.21321 0.56359 0.0
C1728 C 0.33762 0.24797 0.55385 0.0
C1729 C 0.3425 0.23247 0.57872 0.0
C1730 C 0.34581 0.22865 0.60135 0.0
C1731 C 0.33543 0.23842 0.53607 0.0
C1732 C 0.33683 0.22575 0.53967 0.0
C1733 C 0.34036 0.22293 0.56091 0.0
C1734 C 0.33531 0.21573 0.52127 0.0
C1735 C 0.33219 0.24226 0.51339 0.0
C1736 C 0.32145 0.20736 0.50957 0.0
C1737 C 0.32068 0.19978 0.49018 0.0
C1738 C 0.33377 0.20041 0.48221 0.0
C1739 C 0.34735 0.20783 0.49491 0.0
C1740 C 0.3481 0.21543 0.51431 0.0
H1741 H 0.33456 0.25395 0.51263 0.0
H1742 H 0.33913 0.24092 0.50084 0.0
H1743 H 0.31999 0.2345 0.50896 0.0
H1744 H 0.31138 0.20723 0.51493 0.0
H1745 H 0.31002 0.194 0.48085 0.0
H1746 H 0.71688 0.09262 0.63116 0.0
H1747 H 0.73336 0.10643 0.60067 0.0
H1748 H 0.74159 0.07041 0.58942 0.0
H1749 H 0.72488 0.0563 0.62001 0.0
H1750 H 0.7644 0.11604 0.59746 0.0
H1751 H 0.72956 0.07836 0.5278 0.0
H1752 H 0.72179 0.07718 0.55469 0.0
H1753 H 0.73374 0.06962 0.55019 0.0
C1754 C 0.72206 0.08751 0.62213 0.0
C1755 C 0.71955 0.07333 0.62805 0.0
C1756 C 0.73152 0.09547 0.60473 0.0
C1757 C 0.73866 0.08944 0.59277 0.0
C1758 C 0.73603 0.07518 0.59831 0.0
H1759 H 0.81228 0.13883 0.49999 0.0
H1760 H 0.79789 0.1257 0.53277 0.0
C1761 C 0.72649 0.06714 0.61578 0.0
C1762 C 0.74912 0.09841 0.57492 0.0
H1763 H 0.75333 0.09966 0.51914 0.0
C1764 C 0.76205 0.11244 0.58033 0.0
C1765 C 0.74591 0.09371 0.55262 0.0
C1766 C 0.73195 0.07895 0.54583 0.0
C1767 C 0.77181 0.12196 0.56397 0.0
C1768 C 0.76858 0.11727 0.5417 0.0
C1769 C 0.75575 0.10319 0.53629 0.0
C1770 C 0.77811 0.12691 0.52357 0.0
C1771 C 0.78527 0.13713 0.57049 0.0
C1772 C 0.77187 0.13223 0.50787 0.0
C1773 C 0.78009 0.13984 0.48928 0.0
C1774 C 0.79466 0.14213 0.48592 0.0
C1775 C 0.80119 0.13745 0.50225 0.0
C1776 C 0.79296 0.12987 0.52092 0.0
H1777 H 0.78468 0.14013 0.58786 0.0
H1778 H 0.79592 0.137 0.56869 0.0
H1779 H 0.78593 0.14601 0.55951 0.0
H1780 H 0.76044 0.1301 0.5097 0.0
H1781 H 0.77481 0.14342 0.47706 0.0
H1782 H 0.93155 0.64599 0.62338 0.0
H1783 H 0.91147 0.63724 0.59452 0.0
H1784 H 0.93337 0.68201 0.56787 0.0
H1785 H 0.95326 0.69078 0.59639 0.0
H1786 H 0.89207 0.65001 0.58775 0.0
H1787 H 0.92466 0.65443 0.51351 0.0
H1788 H 0.93087 0.65305 0.54105 0.0
H1789 H 0.93422 0.67078 0.53103 0.0
C1790 C 0.93223 0.65386 0.61105 0.0
C1791 C 0.94399 0.66907 0.61213 0.0
C1792 C 0.92072 0.64888 0.5947 0.0
C1793 C 0.92101 0.65897 0.57901 0.0
C1794 C 0.93303 0.674 0.57965 0.0
H1795 H 0.87461 0.67485 0.4774 0.0
H1796 H 0.88987 0.67478 0.5088 0.0
C1797 C 0.94438 0.679 0.59601 0.0
C1798 C 0.90839 0.65435 0.56268 0.0
H1799 H 0.90178 0.65498 0.50747 0.0
C1800 C 0.89402 0.65075 0.57016 0.0
C1801 C 0.91102 0.65532 0.53979 0.0
C1802 C 0.92599 0.65846 0.53082 0.0
C1803 C 0.88253 0.64907 0.55531 0.0
C1804 C 0.88551 0.65094 0.53251 0.0
C1805 C 0.89958 0.65371 0.52501 0.0
C1806 C 0.87477 0.65123 0.51611 0.0
C1807 C 0.8676 0.64616 0.56409 0.0
C1808 C 0.86093 0.63812 0.51034 0.0
C1809 C 0.8521 0.63818 0.49243 0.0
C1810 C 0.85712 0.65131 0.48001 0.0
C1811 C 0.8705 0.66459 0.48671 0.0
C1812 C 0.87924 0.66454 0.50457 0.0
H1813 H 0.8678 0.64687 0.58238 0.0
H1814 H 0.86484 0.65436 0.55713 0.0
H1815 H 0.85834 0.63474 0.55892 0.0
H1816 H 0.85737 0.62769 0.5189 0.0
H1817 H 0.84194 0.62775 0.48738 0.0
H1818 H 0.94175 0.65873 0.73136 0.0
H1819 H 0.92488 0.65576 0.76162 0.0
H1820 H 0.93516 0.70111 0.75181 0.0
H1821 H 0.95181 0.70416 0.72166 0.0
H1822 H 0.9311 0.67226 0.80075 0.0
H1823 H 0.88851 0.67661 0.749 0.0
H1824 H 0.90264 0.67335 0.7375 0.0
H1825 H 0.90764 0.69203 0.74542 0.0
C1826 C 0.94047 0.66808 0.73573 0.0
C1827 C 0.94805 0.68163 0.72395 0.0
C1828 C 0.93079 0.66635 0.75295 0.0
C1829 C 0.92849 0.6781 0.75857 0.0
C1830 C 0.93644 0.69176 0.74734 0.0
H1831 H 0.89662 0.69336 0.87996 0.0
H1832 H 0.91022 0.69539 0.8462 0.0
C1833 C 0.94606 0.69351 0.73019 0.0
C1834 C 0.91809 0.67632 0.77651 0.0
H1835 H 0.88712 0.67899 0.78799 0.0
C1836 C 0.92141 0.6736 0.79794 0.0
C1837 C 0.90533 0.67789 0.77275 0.0
C1838 C 0.9007 0.67998 0.74989 0.0
C1839 C 0.91265 0.67294 0.81584 0.0
C1840 C 0.90038 0.6753 0.81225 0.0
C1841 C 0.89669 0.67745 0.79073 0.0
C1842 C 0.89134 0.67554 0.83081 0.0
C1843 C 0.91657 0.66968 0.83848 0.0
C1844 C 0.87591 0.66429 0.83265 0.0
C1845 C 0.86806 0.66321 0.85185 0.0
C1846 C 0.87556 0.67338 0.86941 0.0
C1847 C 0.89062 0.68533 0.86671 0.0
C1848 C 0.89842 0.68643 0.84753 0.0
H1849 H 0.92358 0.66442 0.83758 0.0
H1850 H 0.92322 0.68037 0.8479 0.0
H1851 H 0.90609 0.66211 0.84775 0.0
H1852 H 0.87022 0.65585 0.81981 0.0
H1853 H 0.85651 0.65381 0.85359 0.0
H1854 H 0.32057 0.26657 0.72806 0.0
H1855 H 0.31217 0.24767 0.75738 0.0
H1856 H 0.35825 0.26909 0.78312 0.0
H1857 H 0.36678 0.28779 0.75386 0.0
H1858 H 0.32898 0.22933 0.76477 0.0
H1859 H 0.32701 0.26139 0.83644 0.0
H1860 H 0.32393 0.26521 0.80832 0.0
H1861 H 0.34287 0.27141 0.81832 0.0
C1862 C 0.32885 0.2674 0.74022 0.0
C1863 C 0.34434 0.27864 0.73865 0.0
C1864 C 0.32404 0.25656 0.75685 0.0
C1865 C 0.33462 0.25704 0.77231 0.0
C1866 C 0.34994 0.2686 0.77132 0.0
H1867 H 0.35461 0.20764 0.85989 0.0
H1868 H 0.34962 0.21798 0.8269 0.0
C1869 C 0.35478 0.27926 0.7546 0.0
C1870 C 0.33011 0.24505 0.78883 0.0
H1871 H 0.32778 0.2394 0.84435 0.0
C1872 C 0.32838 0.23135 0.78215 0.0
C1873 C 0.32928 0.24774 0.81139 0.0
C1874 C 0.33075 0.26219 0.81917 0.0
C1875 C 0.32672 0.22059 0.7977 0.0
C1876 C 0.3269 0.22371 0.82041 0.0
C1877 C 0.32767 0.23703 0.82693 0.0
C1878 C 0.32799 0.21426 0.83781 0.0
C1879 C 0.32524 0.20617 0.78978 0.0
C1880 C 0.31726 0.20828 0.85461 0.0
C1881 C 0.32002 0.20221 0.87345 0.0
C1882 C 0.33371 0.20226 0.876 0.0
C1883 C 0.34387 0.20722 0.85838 0.0
C1884 C 0.34105 0.21319 0.83948 0.0
H1885 H 0.32067 0.20343 0.77257 0.0
H1886 H 0.33666 0.20745 0.79011 0.0
H1887 H 0.31767 0.19662 0.80059 0.0
H1888 H 0.30713 0.20902 0.85364 0.0
H1889 H 0.3119 0.19834 0.88665 0.0
H1890 H 0.73383 0.04902 0.72739 0.0
H1891 H 0.75422 0.05859 0.75584 0.0
H1892 H 0.73774 0.08545 0.78362 0.0
H1893 H 0.71752 0.07604 0.75553 0.0
H1894 H 0.77694 0.09045 0.7628 0.0
H1895 H 0.74311 0.06383 0.8373 0.0
H1896 H 0.73602 0.05675 0.80976 0.0
H1897 H 0.73546 0.07259 0.82024 0.0
C1898 C 0.73439 0.05672 0.73986 0.0
C1899 C 0.72406 0.06177 0.73924 0.0
C1900 C 0.74608 0.06224 0.75598 0.0
C1901 C 0.7474 0.07264 0.77188 0.0
C1902 C 0.73681 0.07728 0.77167 0.0
H1903 H 0.80102 0.13138 0.87532 0.0
H1904 H 0.7842 0.11787 0.84381 0.0
C1905 C 0.72527 0.07191 0.75555 0.0
C1906 C 0.76028 0.07951 0.78805 0.0
H1907 H 0.76789 0.08576 0.84325 0.0
C1908 C 0.77508 0.08923 0.78042 0.0
C1909 C 0.75777 0.07787 0.81098 0.0
C1910 C 0.74225 0.06708 0.8201 0.0
C1911 C 0.78728 0.09806 0.79517 0.0
C1912 C 0.78455 0.09698 0.81805 0.0
C1913 C 0.76991 0.08669 0.82566 0.0
C1914 C 0.79637 0.10696 0.83449 0.0
C1915 C 0.80278 0.10902 0.78622 0.0
C1916 C 0.80912 0.10573 0.83918 0.0
C1917 C 0.81884 0.11357 0.85714 0.0
C1918 C 0.81581 0.12259 0.8707 0.0
C1919 C 0.80359 0.12449 0.86511 0.0
C1920 C 0.79396 0.11674 0.84719 0.0
H1921 H 0.80244 0.11017 0.76803 0.0
H1922 H 0.80748 0.12027 0.79398 0.0
H1923 H 0.8107 0.10507 0.79028 0.0
H1924 H 0.81107 0.0981 0.82974 0.0
H1925 H 0.82807 0.11176 0.8613 0.0
H1926 H 0.03018 0.34717 0.97657 0.0
H1927 H 0.05018 0.34164 0.98517 0.0
H1928 H 0.05988 0.36568 0.04683 0.0
H1929 H 0.03996 0.37129 0.03842 0.0
H1930 H 0.08288 0.36202 0.99695 0.0
H1931 H 0.04906 0.32196 0.06298 0.0
H1932 H 0.0406 0.32793 0.04205 0.0
H1933 H 0.05101 0.34011 0.06495 0.0
C1934 C 0.03665 0.3514 0.99188 0.0
C1935 C 0.03338 0.35959 0.00687 0.0
C1936 C 0.04809 0.34824 0.99674 0.0
C1937 C 0.05637 0.35309 0.01674 0.0
C1938 C 0.05349 0.36168 0.03141 0.0
H1939 H 0.13635 0.35952 0.07227 0.0
H1940 H 0.11855 0.36356 0.05042 0.0
C1941 C 0.04212 0.36492 0.02652 0.0
C1942 C 0.06765 0.34875 0.02274 0.0
H1943 H 0.07491 0.32881 0.06062 0.0
C1944 C 0.08112 0.35467 0.01075 0.0
C1945 C 0.06519 0.33895 0.04048 0.0
C1946 C 0.05064 0.33173 0.05329 0.0
C1947 C 0.09249 0.35151 0.01667 0.0
C1948 C 0.09033 0.34227 0.03511 0.0
C1949 C 0.07659 0.3359 0.0465 0.0
C1950 C 0.10252 0.33992 0.04407 0.0
C1951 C 0.10672 0.35812 0.00322 0.0
C1952 C 0.09968 0.32531 0.04733 0.0
C1953 C 0.10989 0.32298 0.05981 0.0
C1954 C 0.12302 0.33523 0.06948 0.0
C1955 C 0.12637 0.34988 0.06488 0.0
C1956 C 0.11621 0.3522 0.05234 0.0
H1957 H 0.10468 0.36083 0.98623 0.0
H1958 H 0.11573 0.36872 0.01117 0.0
H1959 H 0.11101 0.35032 0.0022 0.0
H1960 H 0.08915 0.31566 0.04121 0.0
H1961 H 0.1069 0.31157 0.06336 0.0
H1962 H 0.63729 0.67415 0.0417 0.0
H1963 H 0.63824 0.69762 0.04996 0.0
H1964 H 0.66786 0.71893 0.99504 0.0
H1965 H 0.66672 0.69546 0.9864 0.0
H1966 H 0.66304 0.72443 0.06136 0.0
H1967 H 0.6368 0.73127 0.98489 0.0
H1968 H 0.63566 0.71384 0.99181 0.0
H1969 H 0.65267 0.72901 0.97998 0.0
C1970 C 0.6439 0.68379 0.03125 0.0
C1971 C 0.6519 0.68289 0.01335 0.0
C1972 C 0.64442 0.6972 0.03598 0.0
C1973 C 0.65291 0.71 0.0229 0.0
C1974 C 0.6609 0.70913 0.00503 0.0
H1975 H 0.68585 0.80384 0.05008 0.0
H1976 H 0.67981 0.78052 0.03108 0.0
C1977 C 0.66034 0.69571 0.00023 0.0
C1978 C 0.65419 0.72447 0.02889 0.0
H1979 H 0.64881 0.75235 0.00951 0.0
C1980 C 0.65982 0.73046 0.05004 0.0
C1981 C 0.65005 0.73239 0.0141 0.0
C1982 C 0.64332 0.72625 0.9915 0.0
C1983 C 0.6616 0.74417 0.05671 0.0
C1984 C 0.65753 0.75211 0.04192 0.0
C1985 C 0.65193 0.74622 0.02075 0.0
C1986 C 0.65901 0.76647 0.04871 0.0
C1987 C 0.66795 0.75021 0.07952 0.0
C1988 C 0.64885 0.76637 0.06392 0.0
C1989 C 0.65223 0.77964 0.07465 0.0
C1990 C 0.66582 0.79322 0.07031 0.0
C1991 C 0.6752 0.79357 0.05347 0.0
C1992 C 0.67182 0.78024 0.04274 0.0
H1993 H 0.67258 0.74384 0.08778 0.0
H1994 H 0.67713 0.76224 0.07874 0.0
H1995 H 0.65877 0.74946 0.08983 0.0
H1996 H 0.63891 0.75584 0.06871 0.0
H1997 H 0.64489 0.77906 0.08768 0.0
H1998 H 0.31265 0.94169 0.01023 0.0
H1999 H 0.2851 0.92862 0.01323 0.0
H2000 H 0.28755 0.97106 0.01964 0.0
H2001 H 0.3154 0.98436 0.01694 0.0
H2002 H 0.27154 0.95162 0.05224 0.0
H2003 H 0.25049 0.92187 0.97245 0.0
H2004 H 0.26459 0.91866 0.98463 0.0
H2005 H 0.26982 0.9374 0.9766 0.0
C2006 C 0.30738 0.94832 0.01197 0.0
C2007 C 0.31628 0.9641 0.01346 0.0
C2008 C 0.29155 0.9408 0.01341 0.0
C2009 C 0.2842 0.94885 0.0162 0.0
C2010 C 0.29298 0.96463 0.01722 0.0
H2011 H 0.19282 0.90641 0.07176 0.0
H2012 H 0.21344 0.92392 0.04779 0.0
C2013 C 0.30889 0.97221 0.01572 0.0
C2014 C 0.26765 0.94057 0.0208 0.0
H2015 H 0.23353 0.91045 0.00343 0.0
C2016 C 0.26312 0.9429 0.04132 0.0
C2017 C 0.25668 0.92918 0.00653 0.0
C2018 C 0.26063 0.92674 0.98373 0.0
C2019 C 0.24824 0.93339 0.04872 0.0
C2020 C 0.2375 0.9214 0.03499 0.0
C2021 C 0.24176 0.91963 0.01391 0.0
C2022 C 0.22263 0.90954 0.04362 0.0
C2023 C 0.24448 0.9356 0.07183 0.0
C2024 C 0.22023 0.8952 0.04763 0.0
C2025 C 0.2084 0.88514 0.06111 0.0
C2026 C 0.19882 0.88931 0.07085 0.0
C2027 C 0.20014 0.90298 0.06465 0.0
C2028 C 0.21195 0.91301 0.05107 0.0
H2029 H 0.25477 0.94388 0.08147 0.0
H2030 H 0.2365 0.93976 0.07101 0.0
H2031 H 0.23883 0.92478 0.08086 0.0
H2032 H 0.22831 0.89227 0.04195 0.0
H2033 H 0.20778 0.87477 0.06567 0.0
H2034 H 0.35035 0.03442 0.00033 0.0
H2035 H 0.34745 0.05602 0.99432 0.0
H2036 H 0.39152 0.08518 0.02497 0.0
H2037 H 0.39461 0.06362 0.03094 0.0
H2038 H 0.3485 0.07758 0.02518 0.0
H2039 H 0.39448 0.10372 0.96343 0.0
H2040 H 0.38609 0.08439 0.97182 0.0
H2041 H 0.39957 0.09932 0.9897 0.0
C2042 C 0.35944 0.04541 0.00585 0.0
C2043 C 0.37278 0.04728 0.01595 0.0
C2044 C 0.35772 0.05774 0.00247 0.0
C2045 C 0.36932 0.07222 0.009 0.0
C2046 C 0.38251 0.07412 0.01954 0.0
H2047 H 0.37649 0.15589 0.96617 0.0
H2048 H 0.38072 0.13901 0.98938 0.0
C2049 C 0.38424 0.06177 0.02298 0.0
C2050 C 0.36772 0.08532 0.004 0.0
H2051 H 0.38149 0.11613 0.971 0.0
C2052 C 0.3558 0.08611 0.0135 0.0
C2053 C 0.3773 0.09647 0.98885 0.0
C2054 C 0.39003 0.09597 0.97768 0.0
C2055 C 0.35302 0.09761 0.00793 0.0
C2056 C 0.36221 0.10842 0.99209 0.0
C2057 C 0.37448 0.10792 0.98323 0.0
C2058 C 0.35847 0.11935 0.98259 0.0
C2059 C 0.3402 0.098 0.01899 0.0
C2060 C 0.34435 0.11409 0.97179 0.0
C2061 C 0.34188 0.12375 0.95876 0.0
C2062 C 0.35353 0.13883 0.95602 0.0
C2063 C 0.36724 0.14438 0.96818 0.0
C2064 C 0.36971 0.13471 0.98129 0.0
H2065 H 0.33817 0.09294 0.03567 0.0
H2066 H 0.34261 0.10966 0.02053 0.0
H2067 H 0.32956 0.0913 0.00903 0.0
H2068 H 0.3356 0.10228 0.9721 0.0
H2069 H 0.33122 0.11915 0.94952 0.0
H2070 H 0.97881 0.321 0.00267 0.0
H2071 H 0.96443 0.29379 0.99516 0.0
H2072 H 0.92247 0.29196 0.00865 0.0
H2073 H 0.93656 0.31892 0.01606 0.0
H2074 H 0.94049 0.26722 0.0221 0.0
H2075 H 0.91941 0.27744 0.94277 0.0
H2076 H 0.93599 0.29205 0.95743 0.0
H2077 H 0.91722 0.28629 0.96661 0.0
C2078 C 0.96654 0.31476 0.00432 0.0
C2079 C 0.95883 0.32219 0.00971 0.0
C2080 C 0.95836 0.29923 7e-05 0.0
C2081 C 0.94239 0.29094 0.00116 0.0
C2082 C 0.93478 0.29819 0.00755 0.0
H2083 H 0.87019 0.20521 0.95185 0.0
H2084 H 0.88461 0.22863 0.9732 0.0
C2085 C 0.94288 0.31364 0.01174 0.0
C2086 C 0.93344 0.27498 0.99399 0.0
H2087 H 0.90839 0.25222 0.95382 0.0
C2088 C 0.9335 0.26388 0.00714 0.0
C2089 C 0.92436 0.27071 0.97448 0.0
C2090 C 0.92427 0.28222 0.95936 0.0
C2091 C 0.92436 0.24853 0.00151 0.0
C2092 C 0.91513 0.24426 0.98209 0.0
C2093 C 0.91528 0.25544 0.96887 0.0
C2094 C 0.90557 0.22841 0.97438 0.0
C2095 C 0.9244 0.23702 0.01662 0.0
C2096 C 0.91234 0.22013 0.96882 0.0
C2097 C 0.90401 0.20662 0.95697 0.0
C2098 C 0.88884 0.20126 0.9504 0.0
C2099 C 0.88177 0.20898 0.95721 0.0
C2100 C 0.89005 0.22241 0.96921 0.0
H2101 H 0.92834 0.24158 0.03358 0.0
H2102 H 0.91287 0.22675 0.01745 0.0
H2103 H 0.93232 0.23375 0.01019 0.0
H2104 H 0.92437 0.22467 0.9721 0.0
H2105 H 0.90978 0.20104 0.95131 0.0
H2106 H 0.69582 0.67023 0.01097 0.0
H2107 H 0.72381 0.68355 0.00922 0.0
H2108 H 0.72145 0.64107 0.00472 0.0
H2109 H 0.69386 0.62781 0.00666 0.0
H2110 H 0.74505 0.66225 0.03371 0.0
H2111 H 0.74543 0.68616 0.9511 0.0
H2112 H 0.7365 0.68993 0.9733 0.0
H2113 H 0.7281 0.67114 0.96268 0.0
C2114 C 0.70131 0.66376 0.00977 0.0
C2115 C 0.69257 0.64795 0.00871 0.0
C2116 C 0.71728 0.67138 0.00873 0.0
C2117 C 0.72469 0.66329 0.00666 0.0
C2118 C 0.71599 0.64755 0.00636 0.0
H2119 H 0.79673 0.65665 0.96636 0.0
H2120 H 0.77749 0.65649 0.98929 0.0
C2121 C 0.70016 0.63998 0.00732 0.0
C2122 C 0.74136 0.67083 0.00336 0.0
H2123 H 0.76786 0.68775 0.9634 0.0
C2124 C 0.75017 0.66814 0.01856 0.0
C2125 C 0.74806 0.67859 0.98368 0.0
C2126 C 0.7391 0.68162 0.96662 0.0
C2127 C 0.7652 0.67221 0.01399 0.0
C2128 C 0.77148 0.6789 0.99352 0.0
C2129 C 0.76306 0.68261 0.97909 0.0
C2130 C 0.7856 0.68014 0.98514 0.0
C2131 C 0.77402 0.66889 0.03085 0.0
C2132 C 0.79702 0.69361 0.97579 0.0
C2133 C 0.80808 0.69371 0.96258 0.0
C2134 C 0.80785 0.68031 0.95834 0.0
C2135 C 0.79739 0.66721 0.96955 0.0
C2136 C 0.78631 0.6671 0.9827 0.0
H2137 H 0.77052 0.66951 0.04784 0.0
H2138 H 0.77154 0.65728 0.02818 0.0
H2139 H 0.7865 0.67682 0.02957 0.0
H2140 H 0.79671 0.70381 0.97741 0.0
H2141 H 0.81602 0.70397 0.95418 0.0
H2142 H 0.97699 0.65915 0.04326 0.0
H2143 H 0.95485 0.66136 0.03481 0.0
H2144 H 0.94308 0.63117 0.97944 0.0
H2145 H 0.96509 0.62877 0.98785 0.0
H2146 H 0.94922 0.67215 0.99628 0.0
H2147 H 0.90248 0.61366 0.01071 0.0
H2148 H 0.92174 0.62086 0.02078 0.0
H2149 H 0.91659 0.61474 0.99255 0.0
C2150 C 0.96961 0.65284 0.02941 0.0
C2151 C 0.97281 0.64375 0.01625 0.0
C2152 C 0.95696 0.65414 0.02462 0.0
C2153 C 0.94717 0.64626 0.00672 0.0
C2154 C 0.95027 0.63709 0.99365 0.0
H2155 H 0.88025 0.64357 0.92249 0.0
H2156 H 0.89748 0.63946 0.94554 0.0
C2157 C 0.96293 0.63581 -0.00161 0.0
C2158 C 0.93428 0.64834 0.00075 0.0
H2159 H 0.89605 0.62902 0.98895 0.0
C2160 C 0.93753 0.66278 0.99507 0.0
C2161 C 0.91905 0.63611 -0.00068 0.0
C2162 C 0.91471 0.62049 0.00638 0.0
C2163 C 0.92613 0.66517 0.98663 0.0
C2164 C 0.91101 0.65281 0.98417 0.0
C2165 C 0.90764 0.63849 0.99087 0.0
C2166 C 0.8991 0.65415 0.97197 0.0
C2167 C 0.93051 0.68074 0.97916 0.0
C2168 C 0.89385 0.6634 0.97951 0.0
C2169 C 0.88391 0.66575 0.96629 0.0
C2170 C 0.87918 0.6589 0.9454 0.0
C2171 C 0.88382 0.64905 0.9385 0.0
C2172 C 0.89364 0.64667 0.95166 0.0
H2173 H 0.94306 0.68855 0.97909 0.0
H2174 H 0.92585 0.6803 0.96231 0.0
H2175 H 0.92561 0.68541 0.99047 0.0
H2176 H 0.89777 0.6691 0.99531 0.0
H2177 H 0.88047 0.67339 0.9719 0.0
H2178 H 0.34098 0.31509 0.04036 0.0
H2179 H 0.33966 0.29165 0.03084 0.0
H2180 H 0.36655 0.31261 0.97338 0.0
H2181 H 0.36771 0.33605 0.98256 0.0
H2182 H 0.34134 0.28535 0.96394 0.0
H2183 H 0.37208 0.28049 0.03665 0.0
H2184 H 0.35637 0.28259 0.04354 0.0
H2185 H 0.37258 0.29765 0.03001 0.0
C2186 C 0.34671 0.31477 0.02577 0.0
C2187 C 0.35447 0.32749 0.01224 0.0
C2188 C 0.34604 0.30136 0.02044 0.0
C2189 C 0.35322 0.30041 0.00159 0.0
C2190 C 0.361 0.3131 0.98808 0.0
H2191 H 0.37008 0.23176 0.956 0.0
H2192 H 0.37185 0.25347 0.97467 0.0
C2193 C 0.36165 0.3265 0.99336 0.0
C2194 C 0.35193 0.286 0.99523 0.0
H2195 H 0.3595 0.2592 0.01266 0.0
C2196 C 0.34533 0.27965 0.9746 0.0
C2197 C 0.35726 0.27863 0.00906 0.0
C2198 C 0.3651 0.28524 0.03097 0.0
C2199 C 0.34381 0.26612 0.96746 0.0
C2200 C 0.34874 0.25852 0.98152 0.0
C2201 C 0.35551 0.26492 0.00207 0.0
C2202 C 0.3475 0.24425 0.97453 0.0
C2203 C 0.33724 0.26027 0.94466 0.0
C2204 C 0.33319 0.23152 0.96947 0.0
C2205 C 0.33216 0.21911 0.95885 0.0
C2206 C 0.34542 0.21916 0.9533 0.0
C2207 C 0.35967 0.23133 0.96026 0.0
C2208 C 0.3607 0.24379 0.97079 0.0
H2209 H 0.33742 0.26912 0.93414 0.0
H2210 H 0.34363 0.25582 0.93631 0.0
H2211 H 0.3252 0.25096 0.94602 0.0
H2212 H 0.32285 0.23151 0.97262 0.0
H2213 H 0.32103 0.20986 0.95373 0.0
H2214 H 0.69311 0.06738 0.99351 0.0
H2215 H 0.72066 0.08076 0.99069 0.0
H2216 H 0.7204 0.04034 0.00744 0.0
H2217 H 0.69248 0.02661 0.00987 0.0
H2218 H 0.74309 0.08603 0.02135 0.0
H2219 H 0.74364 0.05275 0.95001 0.0
H2220 H 0.72637 0.05153 0.95888 0.0
H2221 H 0.73434 0.0424 0.97436 0.0
C2222 C 0.69883 0.06125 0.99661 0.0
C2223 C 0.69052 0.04585 0.00178 0.0
C2224 C 0.71464 0.06898 0.99507 0.0
C2225 C 0.72261 0.06156 -0.00133 0.0
C2226 C 0.71446 0.04624 0.00424 0.0
H2227 H 0.81797 0.10427 0.95902 0.0
H2228 H 0.79576 0.08798 0.98163 0.0
C2229 C 0.69852 0.03842 0.00568 0.0
C2230 C 0.73939 0.07005 0.99585 0.0
H2231 H 0.76687 0.07386 0.96101 0.0
C2232 C 0.74835 0.08323 0.0084 0.0
C2233 C 0.74628 0.06636 0.97904 0.0
C2234 C 0.73721 0.05256 0.96465 0.0
C2235 C 0.76378 0.0932 0.00382 0.0
C2236 C 0.7704 0.08996 0.98615 0.0
C2237 C 0.76176 0.0763 0.97459 0.0
C2238 C 0.78539 0.10137 0.97723 0.0
C2239 C 0.77275 0.10737 0.01745 0.0
C2240 C 0.78714 0.11453 0.96789 0.0
C2241 C 0.79973 0.12376 0.95499 0.0
C2242 C 0.81083 0.12004 0.95135 0.0
C2243 C 0.8097 0.10751 0.96203 0.0
C2244 C 0.79698 0.09816 0.97477 0.0
H2245 H 0.76796 0.10592 0.03417 0.0
H2246 H 0.78492 0.11076 0.0191 0.0
H2247 H 0.77216 0.11661 0.00925 0.0
H2248 H 0.7782 0.11706 0.96914 0.0
H2249 H 0.80025 0.13319 0.94653 0.0
H2250 H 0.64095 0.95883 0.97311 0.0
H2251 H 0.64403 0.93769 0.98276 0.0
H2252 H 0.65248 0.95235 0.05072 0.0
H2253 H 0.64892 0.97317 0.04135 0.0
H2254 H 0.66767 0.93678 -0.00101 0.0
H2255 H 0.62079 0.90893 0.05807 0.0
H2256 H 0.62304 0.92387 0.04037 0.0
H2257 H 0.63391 0.92812 0.06582 0.0
C2258 C 0.64332 0.95747 0.99016 0.0
C2259 C 0.64455 0.96763 0.00649 0.0
C2260 C 0.64512 0.94539 0.99564 0.0
C2261 C 0.64821 0.94321 0.01755 0.0
C2262 C 0.64965 0.95348 0.03382 0.0
H2263 H 0.6906 0.896 0.06771 0.0
H2264 H 0.68484 0.91317 0.04839 0.0
C2265 C 0.6477 0.96546 0.0284 0.0
C2266 C 0.65041 0.93051 0.02333 0.0
H2267 H 0.6394 0.90163 0.05953 0.0
C2268 C 0.66136 0.92898 0.01206 0.0
C2269 C 0.64197 0.92008 0.04004 0.0
C2270 C 0.62916 0.92022 0.05159 0.0
C2271 C 0.6645 0.91771 0.01761 0.0
C2272 C 0.6568 0.90794 0.03536 0.0
C2273 C 0.64545 0.90915 0.04605 0.0
C2274 C 0.66071 0.89687 0.04395 0.0
C2275 C 0.67596 0.91636 0.00422 0.0
C2276 C 0.64914 0.88192 0.04799 0.0
C2277 C 0.65243 0.87218 0.05941 0.0
C2278 C 0.66738 0.87715 0.06665 0.0
C2279 C 0.67907 0.89181 0.06166 0.0
C2280 C 0.67576 0.90162 0.05058 0.0
H2281 H 0.6764 0.92043 0.98713 0.0
H2282 H 0.68747 0.92346 0.01188 0.0
H2283 H 0.67327 0.90457 0.00343 0.0
H2284 H 0.63743 0.87797 0.0432 0.0
H2285 H 0.64319 0.86103 0.06357 0.0
H2286 H 0.06846 0.68524 -0.00096 0.0
H2287 H 0.08426 0.71241 0.00492 0.0
H2288 H 0.04754 0.71171 0.03932 0.0
H2289 H 0.0314 0.68455 0.03252 0.0
H2290 H 0.06449 0.73797 0.0159 0.0
H2291 H 0.1023 0.72538 0.06621 0.0
H2292 H 0.1003 0.71971 0.03785 0.0
H2293 H 0.08405 0.71081 0.05546 0.0
C2294 C 0.06366 0.69094 0.00746 0.0
C2295 C 0.04881 0.68278 0.01566 0.0
C2296 C 0.07271 0.70645 0.01087 0.0
C2297 C 0.06725 0.71401 0.02313 0.0
C2298 C 0.05203 0.70608 0.02993 0.0
H2299 H 0.1112 0.78333 0.11603 0.0
H2300 H 0.09658 0.76118 0.09305 0.0
C2301 C 0.04282 0.69057 0.02608 0.0
C2302 C 0.07781 0.72965 0.03099 0.0
H2303 H 0.10934 0.75062 0.06384 0.0
C2304 C 0.07439 0.74081 0.02621 0.0
C2305 C 0.09066 0.73328 0.04461 0.0
C2306 C 0.09451 0.72166 0.05154 0.0
C2307 C 0.08326 0.7554 0.0352 0.0
C2308 C 0.09594 0.7589 0.04902 0.0
C2309 C 0.09967 0.74791 0.05306 0.0
C2310 C 0.1042 0.773 0.06216 0.0
C2311 C 0.07859 0.76673 0.03081 0.0
C2312 C 0.11335 0.78713 0.0524 0.0
C2313 C 0.12167 0.80007 0.06566 0.0
C2314 C 0.1209 0.79899 0.0888 0.0
C2315 C 0.11173 0.78474 0.0983 0.0
C2316 C 0.10345 0.77198 0.08517 0.0
H2317 H 0.06741 0.76168 0.02194 0.0
H2318 H 0.0779 0.77174 0.04656 0.0
H2319 H 0.08732 0.77597 0.02063 0.0
H2320 H 0.11427 0.78811 0.03465 0.0
H2321 H 0.12869 0.81086 0.05787 0.0
H2322 H 0.30989 0.34754 0.99515 0.0
H2323 H 0.28202 0.33591 0.99582 0.0
H2324 H 0.28701 0.36306 0.05264 0.0
H2325 H 0.31459 0.37516 0.05121 0.0
H2326 H 0.26048 0.31963 0.02263 0.0
H2327 H 0.2612 0.37246 0.01528 0.0
H2328 H 0.27809 0.37163 0.01113 0.0
H2329 H 0.27314 0.37433 0.03844 0.0
C2330 C 0.30495 0.35095 0.00776 0.0
C2331 C 0.31436 0.36238 0.02294 0.0
C2332 C 0.28906 0.34437 0.00808 0.0
C2333 C 0.2824 0.34902 0.02376 0.0
C2334 C 0.29184 0.35978 0.03971 0.0
H2335 H 0.20455 0.30554 0.09511 0.0
H2336 H 0.22527 0.31128 0.07091 0.0
C2337 C 0.30762 0.36656 0.03907 0.0
C2338 C 0.26561 0.34249 0.02427 0.0
H2339 H 0.23971 0.35252 0.03567 0.0
C2340 C 0.25587 0.32681 0.02496 0.0
C2341 C 0.25928 0.3517 0.02615 0.0
C2342 C 0.2685 0.36844 0.0224 0.0
C2343 C 0.24037 0.32025 0.02988 0.0
C2344 C 0.23466 0.32963 0.03533 0.0
C2345 C 0.24402 0.3452 0.0322 0.0
C2346 C 0.22022 0.32399 0.04751 0.0
C2347 C 0.23043 0.30333 0.0296 0.0
C2348 C 0.2103 0.32926 0.04283 0.0
C2349 C 0.19867 0.32648 0.0574 0.0
C2350 C 0.19678 0.31836 0.07685 0.0
C2351 C 0.20592 0.31212 0.08051 0.0
C2352 C 0.21764 0.31514 0.06631 0.0
H2353 H 0.23354 0.29855 0.01574 0.0
H2354 H 0.23239 0.29881 0.04507 0.0
H2355 H 0.21814 0.29946 0.02789 0.0
H2356 H 0.21202 0.33615 0.02847 0.0
H2357 H 0.19178 0.3314 0.05412 0.0
H2358 H 0.70346 0.70255 0.37613 0.0
H2359 H 0.72377 0.69764 0.38539 0.0
H2360 H 0.7204 0.68014 0.31985 0.0
H2361 H 0.70015 0.68508 0.31037 0.0
H2362 H 0.72104 0.66926 0.38411 0.0
H2363 H 0.76664 0.70988 0.32908 0.0
H2364 H 0.75039 0.7113 0.3359 0.0
H2365 H 0.74842 0.69771 0.31587 0.0
C2366 C 0.70713 0.6978 0.36359 0.0
C2367 C 0.70016 0.69422 0.34249 0.0
C2368 C 0.71874 0.69499 0.36892 0.0
C2369 C 0.72372 0.68867 0.35324 0.0
C2370 C 0.71693 0.68526 0.33209 0.0
H2371 H 0.77399 0.64502 0.39163 0.0
H2372 H 0.75702 0.651 0.37102 0.0
C2373 C 0.70529 0.68802 0.32675 0.0
C2374 C 0.73539 0.68489 0.35948 0.0
H2375 H 0.77147 0.69302 0.34876 0.0
C2376 C 0.73204 0.67441 0.37633 0.0
C2377 C 0.74976 0.69168 0.34936 0.0
C2378 C 0.75414 0.70337 0.33166 0.0
C2379 C 0.74267 0.67058 0.38342 0.0
C2380 C 0.757 0.67726 0.37319 0.0
C2381 C 0.76039 0.68775 0.35632 0.0
C2382 C 0.76897 0.67435 0.38126 0.0
C2383 C 0.73866 0.65974 0.4023 0.0
C2384 C 0.78183 0.68571 0.39264 0.0
C2385 C 0.79157 0.68235 0.40426 0.0
C2386 C 0.78865 0.66758 0.40459 0.0
C2387 C 0.77659 0.65652 0.3915 0.0
C2388 C 0.7668 0.65989 0.37993 0.0
H2389 H 0.72835 0.65775 0.41097 0.0
H2390 H 0.73639 0.64879 0.39586 0.0
H2391 H 0.74828 0.66402 0.41446 0.0
H2392 H 0.78375 0.69695 0.3938 0.0
H2393 H 0.80079 0.69108 0.41422 0.0
H2394 H 0.30992 0.00755 0.38649 0.0
H2395 H 0.31194 0.03142 0.39574 0.0
H2396 H 0.31811 0.04385 0.32717 0.0
H2397 H 0.31606 0.02005 0.31774 0.0
H2398 H 0.33707 0.06074 0.3874 0.0
H2399 H 0.2839 0.05105 0.34605 0.0
H2400 H 0.28714 0.03596 0.35234 0.0
H2401 H 0.29616 0.0479 0.32914 0.0
C2402 C 0.3116 0.01531 0.37335 0.0
C2403 C 0.3128 0.01185 0.35137 0.0
C2404 C 0.31277 0.02895 0.37867 0.0
C2405 C 0.31499 0.03933 0.36211 0.0
C2406 C 0.31613 0.0359 0.34016 0.0
H2407 H 0.34816 0.13404 0.38939 0.0
H2408 H 0.3432 0.11105 0.37054 0.0
C2409 C 0.31504 0.0223 0.33484 0.0
C2410 C 0.31675 0.05402 0.36795 0.0
H2411 H 0.30055 0.07537 0.36107 0.0
C2412 C 0.32911 0.06396 0.38159 0.0
C2413 C 0.3063 0.05815 0.36043 0.0
C2414 C 0.29254 0.04769 0.34632 0.0
C2415 C 0.33133 0.07793 0.38794 0.0
C2416 C 0.32099 0.08216 0.38024 0.0
C2417 C 0.30858 0.0722 0.36665 0.0
C2418 C 0.32234 0.09637 0.38771 0.0
C2419 C 0.3445 0.08791 0.40335 0.0
C2420 C 0.31177 0.09584 0.40253 0.0
C2421 C 0.31453 0.10894 0.41318 0.0
C2422 C 0.32786 0.12281 0.40905 0.0
C2423 C 0.33772 0.12354 0.39269 0.0
C2424 C 0.33498 0.11039 0.38212 0.0
H2425 H 0.34977 0.08189 0.41084 0.0
H2426 H 0.35338 0.09764 0.39405 0.0
H2427 H 0.3407 0.09235 0.4168 0.0
H2428 H 0.30192 0.08516 0.40702 0.0
H2429 H 0.30678 0.10808 0.42578 0.0
H2430 H 0.98529 0.27787 0.33736 0.0
H2431 H 0.95804 0.264 0.34361 0.0
H2432 H 0.95995 0.30536 0.35894 0.0
H2433 H 0.98754 0.31947 0.35296 0.0
H2434 H 0.94562 0.28398 0.39028 0.0
H2435 H 0.92159 0.25852 0.30863 0.0
H2436 H 0.93637 0.25517 0.31718 0.0
H2437 H 0.94091 0.27414 0.31238 0.0
C2438 C 0.97996 0.28411 0.34178 0.0
C2439 C 0.98866 0.29981 0.34474 0.0
C2440 C 0.96428 0.27614 0.34511 0.0
C2441 C 0.95686 0.28364 0.3513 0.0
C2442 C 0.96542 0.29936 0.3539 0.0
H2443 H 0.86677 0.23743 0.412 0.0
H2444 H 0.88765 0.25644 0.3898 0.0
C2445 C 0.98118 0.3074 0.35053 0.0
C2446 C 0.94057 0.27475 0.35738 0.0
H2447 H 0.90597 0.24529 0.34009 0.0
C2448 C 0.93684 0.27579 0.37916 0.0
C2449 C 0.92913 0.26405 0.34284 0.0
C2450 C 0.93218 0.26301 0.31889 0.0
C2451 C 0.9223 0.26571 0.38726 0.0
C2452 C 0.9111 0.25444 0.37305 0.0
C2453 C 0.91457 0.25391 0.35094 0.0
C2454 C 0.89645 0.24219 0.38169 0.0
C2455 C 0.91935 0.26657 0.41135 0.0
C2456 C 0.89387 0.2276 0.38313 0.0
C2457 C 0.88192 0.2167 0.39565 0.0
C2458 C 0.87236 0.22026 0.40695 0.0
C2459 C 0.87406 0.23443 0.40364 0.0
C2460 C 0.886 0.24531 0.39106 0.0
H2461 H 0.92996 0.27433 0.42082 0.0
H2462 H 0.91139 0.2707 0.41288 0.0
H2463 H 0.91398 0.25528 0.41898 0.0
H2464 H 0.90179 0.22496 0.37595 0.0
H2465 H 0.88102 0.20595 0.39802 0.0
H2466 H 0.0503 0.38729 0.34974 0.0
H2467 H 0.05099 0.41119 0.3479 0.0
H2468 H 0.00494 0.38794 0.32168 0.0
H2469 H 0.00414 0.36414 0.32344 0.0
H2470 H 0.04673 0.42339 0.3085 0.0
H2471 H 0.00402 0.41509 0.3701 0.0
H2472 H 0.01292 0.404 0.36975 0.0
H2473 H 0.99729 0.39963 0.35109 0.0
C2474 C 0.04026 0.38725 0.34387 0.0
C2475 C 0.02718 0.3738 0.3367 0.0
C2476 C 0.04067 0.40091 0.34284 0.0
C2477 C 0.02793 0.40132 0.33498 0.0
C2478 C 0.01478 0.38787 0.32825 0.0
H2479 H 0.99942 0.45674 0.2797 0.0
H2480 H 1.0021 0.43828 0.30105 0.0
C2481 C 0.0144 0.37427 0.32909 0.0
C2482 C 0.0287 0.41585 0.33176 0.0
H2483 H 0.01 0.43418 0.34296 0.0
C2484 C 0.03895 0.42595 0.31637 0.0
C2485 C 0.01848 0.4191 0.342 0.0
C2486 C 0.00764 0.40895 0.35932 0.0
C2487 C 0.03859 0.43873 0.30985 0.0
C2488 C 0.02795 0.44171 0.31947 0.0
C2489 C 0.01819 0.43195 0.33566 0.0
C2490 C 0.02558 0.45377 0.31093 0.0
C2491 C 0.04892 0.44833 0.29163 0.0
C2492 C 0.03756 0.46887 0.31057 0.0
C2493 C 0.03608 0.47946 0.29819 0.0
C2494 C 0.02254 0.4751 0.28617 0.0
C2495 C 0.01005 0.46038 0.2886 0.0
C2496 C 0.01157 0.44982 0.30081 0.0
H2497 H 0.05417 0.44278 0.28302 0.0
H2498 H 0.04255 0.45095 0.27924 0.0
H2499 H 0.05827 0.45909 0.29873 0.0
H2500 H 0.04836 0.47227 0.31873 0.0
H2501 H 0.04592 0.4907 0.29662 0.0
H2502 H 0.64346 0.6534 0.34485 0.0
H2503 H 0.6292 0.62589 0.34123 0.0
H2504 H 0.58894 0.62642 0.32133 0.0
H2505 H 0.60285 0.65363 0.32541 0.0
H2506 H 0.58241 0.60401 0.35068 0.0
H2507 H 0.61787 0.60328 0.28299 0.0
H2508 H 0.6279 0.61214 0.30828 0.0
H2509 H 0.61926 0.62039 0.29224 0.0
C2510 C 0.63156 0.64763 0.33975 0.0
C2511 C 0.62434 0.65576 0.3353 0.0
C2512 C 0.62344 0.63192 0.3376 0.0
C2513 C 0.60804 0.6241 0.33072 0.0
C2514 C 0.6008 0.63219 0.32667 0.0
H2515 H 0.53677 0.54548 0.27367 0.0
H2516 H 0.55244 0.56812 0.29603 0.0
C2517 C 0.60882 0.6478 0.32895 0.0
C2518 C 0.59934 0.60755 0.32702 0.0
H2519 H 0.5966 0.58022 0.29285 0.0
C2520 C 0.58562 0.59876 0.33824 0.0
C2521 C 0.60355 0.60068 0.31086 0.0
C2522 C 0.61787 0.60958 0.29774 0.0
C2523 C 0.57573 0.58348 0.33307 0.0
C2524 C 0.5796 0.57683 0.31618 0.0
C2525 C 0.59369 0.58536 0.30586 0.0
C2526 C 0.5685 0.56175 0.3069 0.0
C2527 C 0.56102 0.57466 0.34532 0.0
C2528 C 0.57208 0.55046 0.30603 0.0
C2529 C 0.56301 0.53742 0.2934 0.0
C2530 C 0.55041 0.53564 0.28119 0.0
C2531 C 0.54632 0.54652 0.28317 0.0
C2532 C 0.55527 0.55945 0.29595 0.0
H2533 H 0.56186 0.57969 0.36181 0.0
H2534 H 0.55177 0.57478 0.33575 0.0
H2535 H 0.55782 0.56278 0.34744 0.0
H2536 H 0.58232 0.55209 0.31419 0.0
H2537 H 0.56654 0.52931 0.29181 0.0
H2538 H 0.35709 0.95776 0.34581 0.0
H2539 H 0.38453 0.97053 0.34171 0.0
H2540 H 0.38702 0.01303 0.33569 0.0
H2541 H 0.35921 1.00017 0.33979 0.0
H2542 H 0.40063 0.0067 0.30145 0.0
H2543 H 0.42124 0.99773 0.38136 0.0
H2544 H 0.40521 0.98062 0.37073 0.0
H2545 H 0.4029 0.99607 0.37796 0.0
C2546 C 0.36344 0.96986 0.34394 0.0
C2547 C 0.35594 0.97794 0.34299 0.0
C2548 C 0.3792 0.97718 0.34186 0.0
C2549 C 0.38788 0.99277 0.33879 0.0
C2550 C 0.38053 1.001 0.33834 0.0
H2551 H 0.47772 0.03203 0.27815 0.0
H2552 H 0.45837 0.03211 0.30107 0.0
C2553 C 0.36467 0.99365 0.34066 0.0
C2554 C 0.40422 0.99984 0.33335 0.0
H2555 H 0.43669 1.00068 0.34964 0.0
C2556 C 0.4087 0.00582 0.31219 0.0
C2557 C 0.4147 0.99863 0.34738 0.0
C2558 C 0.41081 0.99305 0.37071 0.0
C2559 C 0.4229 0.00943 0.30399 0.0
C2560 C 0.43302 0.00731 0.31756 0.0
C2561 C 0.42892 0.00227 0.33925 0.0
C2562 C 0.44686 0.00838 0.30846 0.0
C2563 C 0.42642 0.01437 0.2803 0.0
C2564 C 0.44751 0.99529 0.30647 0.0
C2565 C 0.45865 0.99526 0.29367 0.0
C2566 C 0.46932 0.00832 0.28257 0.0
C2567 C 0.46956 0.02177 0.28638 0.0
C2568 C 0.45845 0.02181 0.29932 0.0
H2569 H 0.41629 0.0129 0.27101 0.0
H2570 H 0.43543 0.02646 0.27987 0.0
H2571 H 0.43068 0.00793 0.27167 0.0
H2572 H 0.43871 0.98481 0.31347 0.0
H2573 H 0.45807 0.9847 0.29091 0.0
H2574 H 0.62748 0.96924 0.38099 0.0
H2575 H 0.60557 0.97184 0.37248 0.0
H2576 H 0.61552 0.97491 0.30323 0.0
H2577 H 0.63713 0.97189 0.31152 0.0
H2578 H 0.60421 0.99441 0.35412 0.0
H2579 H 0.57085 0.94385 0.30176 0.0
H2580 H 0.587 0.94691 0.31841 0.0
H2581 H 0.58977 0.95548 0.29167 0.0
C2582 C 0.62491 0.97032 0.36392 0.0
C2583 C 0.63401 0.97025 0.34691 0.0
C2584 C 0.61238 0.97182 0.35909 0.0
C2585 C 0.60869 0.97329 0.33718 0.0
C2586 C 0.61784 0.97336 0.32021 0.0
H2587 H 0.56497 0.0156 0.27987 0.0
H2588 H 0.58103 0.00948 0.30203 0.0
C2589 C 0.63028 0.97173 0.325 0.0
C2590 C 0.59571 0.97542 0.33202 0.0
H2591 H 0.56468 0.96312 0.29771 0.0
C2592 C 0.59543 0.98742 0.34203 0.0
C2593 C 0.58399 0.9661 0.31668 0.0
C2594 C 0.58281 0.95227 0.30672 0.0
C2595 C 0.58428 0.99086 0.33617 0.0
C2596 C 0.57335 0.98232 0.31943 0.0
C2597 C 0.57313 0.96981 0.31037 0.0
C2598 C 0.56293 0.98684 0.30957 0.0
C2599 C 0.58442 0.00368 0.34792 0.0
C2600 C 0.54729 0.97626 0.30655 0.0
C2601 C 0.5381 0.97966 0.29346 0.0
C2602 C 0.54442 0.99371 0.28309 0.0
C2603 C 0.55979 0.00464 0.28753 0.0
C2604 C 0.56898 1.0012 0.30042 0.0
H2605 H 0.589 0.00499 0.36505 0.0
H2606 H 0.59199 0.01431 0.33912 0.0
H2607 H 0.57284 0.002 0.34852 0.0
H2608 H 0.54236 0.96508 0.31338 0.0
H2609 H 0.52636 0.97093 0.29019 0.0
H2610 H 0.03657 0.67339 0.31572 0.0
H2611 H 0.03605 0.65045 0.30517 0.0
H2612 H 0.01845 0.63135 0.36879 0.0
H2613 H 0.01914 0.6543 0.3796 0.0
H2614 H 0.04128 0.62641 0.35537 0.0
H2615 H 0.99732 0.61064 0.28926 0.0
H2616 H 0.01378 0.62914 0.28633 0.0
H2617 H 1.00162 0.62502 0.30954 0.0
C2618 C 0.0326 0.66432 0.32749 0.0
C2619 C 0.02779 0.66567 0.34846 0.0
C2620 C 0.03225 0.65118 0.3214 0.0
C2621 C 0.02699 0.63908 0.33607 0.0
C2622 C 0.02251 0.64052 0.35717 0.0
H2623 H 0.99722 0.5485 0.29235 0.0
H2624 H 0.99928 0.57008 0.31174 0.0
C2625 C 0.02287 0.65365 0.36329 0.0
C2626 C 0.02594 0.62483 0.32934 0.0
H2627 H 0.00921 0.59633 0.29137 0.0
C2628 C 0.03423 0.61978 0.34143 0.0
C2629 C 0.01655 0.61606 0.31137 0.0
C2630 C 0.00669 0.62038 0.29848 0.0
C2631 C 0.03361 0.60637 0.33575 0.0
C2632 C 0.02461 0.59788 0.31731 0.0
C2633 C 0.01615 0.60283 0.30547 0.0
C2634 C 0.02383 0.58392 0.30961 0.0
C2635 C 0.04241 0.60132 0.34974 0.0
C2636 C 0.03699 0.58424 0.30273 0.0
C2637 C 0.03583 0.57179 0.29193 0.0
C2638 C 0.02147 0.5589 0.28756 0.0
C2639 C 0.00843 0.55826 0.29566 0.0
C2640 C 0.00959 0.57063 0.3066 0.0
H2641 H 0.04488 0.60639 0.36654 0.0
H2642 H 0.03607 0.58889 0.35127 0.0
H2643 H 0.05346 0.60495 0.34191 0.0
H2644 H 0.04807 0.59443 0.30443 0.0
H2645 H 0.04603 0.57271 0.28546 0.0
H2646 H 0.3569 0.35995 0.34064 0.0
H2647 H 0.38479 0.37388 0.3377 0.0
H2648 H 0.38484 0.41482 0.32644 0.0
H2649 H 0.35731 0.40121 0.32967 0.0
H2650 H 0.40153 0.3893 0.30227 0.0
H2651 H 0.41842 0.42872 0.37251 0.0
H2652 H 0.39957 0.4122 0.36968 0.0
H2653 H 0.40429 0.42923 0.35535 0.0
C2654 C 0.36289 0.37194 0.33777 0.0
C2655 C 0.35484 0.37944 0.33545 0.0
C2656 C 0.37882 0.37989 0.33615 0.0
C2657 C 0.38695 0.39547 0.33238 0.0
C2658 C 0.3789 0.40291 0.33005 0.0
H2659 H 0.46543 0.46402 0.27453 0.0
H2660 H 0.44268 0.44869 0.29647 0.0
C2661 C 0.36308 0.39504 0.33167 0.0
C2662 C 0.40366 0.4039 0.32892 0.0
H2663 H 0.43649 0.43676 0.34274 0.0
C2664 C 0.40927 0.39946 0.31148 0.0
C2665 C 0.41378 0.41717 0.34098 0.0
C2666 C 0.40872 0.42201 0.36082 0.0
C2667 C 0.42443 0.40847 0.30478 0.0
C2668 C 0.43426 0.4222 0.31598 0.0
C2669 C 0.4289 0.42625 0.33416 0.0
C2670 C 0.44947 0.43316 0.30731 0.0
C2671 C 0.42956 0.40372 0.28488 0.0
C2672 C 0.46116 0.42994 0.30713 0.0
C2673 C 0.47424 0.43882 0.29481 0.0
C2674 C 0.47576 0.45099 0.28262 0.0
C2675 C 0.46461 0.45486 0.2842 0.0
C2676 C 0.4516 0.44606 0.29659 0.0
H2677 H 0.41998 0.39372 0.27641 0.0
H2678 H 0.43496 0.41307 0.27287 0.0
H2679 H 0.4382 0.40092 0.29011 0.0
H2680 H 0.45973 0.42006 0.31538 0.0
H2681 H 0.48257 0.43547 0.29341 0.0
H2682 H 0.31955 0.30982 0.37298 0.0
H2683 H 0.32396 0.28957 0.38274 0.0
H2684 H 0.2969 0.26389 0.32619 0.0
H2685 H 0.29284 0.2843 0.31594 0.0
H2686 H 0.30473 0.26148 0.39389 0.0
H2687 H 0.33403 0.26101 0.31849 0.0
H2688 H 0.33047 0.27586 0.32453 0.0
H2689 H 0.31559 0.25836 0.31272 0.0
C2690 C 0.31458 0.2999 0.36255 0.0
C2691 C 0.30589 0.29874 0.34361 0.0
C2692 C 0.31712 0.28831 0.36815 0.0
C2693 C 0.31102 0.27527 0.35499 0.0
C2694 C 0.30212 0.27398 0.33627 0.0
H2695 H 0.30229 0.19352 0.40937 0.0
H2696 H 0.2969 0.21116 0.3905 0.0
C2697 C 0.29969 0.28563 0.33054 0.0
C2698 C 0.31349 0.26285 0.36146 0.0
H2699 H 0.32668 0.24066 0.34329 0.0
C2700 C 0.30955 0.25696 0.3828 0.0
C2701 C 0.31999 0.25705 0.34715 0.0
C2702 C 0.32542 0.26349 0.32453 0.0
C2703 C 0.31182 0.24546 0.39019 0.0
C2704 C 0.31776 0.23924 0.37561 0.0
C2705 C 0.32186 0.24521 0.35433 0.0
C2706 C 0.32044 0.22706 0.38269 0.0
C2707 C 0.30828 0.24043 0.41385 0.0
C2708 C 0.33524 0.22948 0.38293 0.0
C2709 C 0.33825 0.21917 0.39316 0.0
C2710 C 0.3265 0.20631 0.40333 0.0
C2711 C 0.31151 0.2033 0.40149 0.0
C2712 C 0.30847 0.21349 0.39101 0.0
H2713 H 0.3079 0.24899 0.42426 0.0
H2714 H 0.29693 0.22994 0.41446 0.0
H2715 H 0.31688 0.23815 0.42112 0.0
H2716 H 0.34464 0.23981 0.3765 0.0
H2717 H 0.34993 0.22186 0.39468 0.0
H2718 H 0.7358 0.01798 0.34908 0.0
H2719 H 0.74946 0.04517 0.35386 0.0
H2720 H 0.7069 0.04404 0.35189 0.0
H2721 H 0.69297 0.01659 0.34736 0.0
H2722 H 0.75031 0.06857 0.32848 0.0
H2723 H 0.72638 0.06386 0.41184 0.0
H2724 H 0.72479 0.04787 0.3977 0.0
H2725 H 0.71293 0.05507 0.38933 0.0
C2726 C 0.72928 0.02346 0.34953 0.0
C2727 C 0.71325 0.01505 0.3481 0.0
C2728 C 0.73714 0.03904 0.35215 0.0
C2729 C 0.7292 0.04661 0.35347 0.0
C2730 C 0.71323 0.03838 0.35121 0.0
H2731 H 0.77186 0.13692 0.40967 0.0
H2732 H 0.75374 0.11535 0.38687 0.0
C2733 C 0.7053 0.02271 0.34856 0.0
C2734 C 0.7378 0.06294 0.35863 0.0
H2735 H 0.74529 0.08775 0.40053 0.0
C2736 C 0.74907 0.07284 0.34409 0.0
C2737 C 0.73613 0.06849 0.37896 0.0
C2738 C 0.72449 0.05831 0.39549 0.0
C2739 C 0.75907 0.08805 0.34967 0.0
C2740 C 0.75794 0.0934 0.37051 0.0
C2741 C 0.74615 0.08367 0.38453 0.0
C2742 C 0.76971 0.10842 0.37935 0.0
C2743 C 0.7709 0.09816 0.33335 0.0
C2744 C 0.7849 0.1121 0.38193 0.0
C2745 C 0.79529 0.12448 0.39481 0.0
C2746 C 0.79061 0.13328 0.4056 0.0
C2747 C 0.77575 0.1303 0.40156 0.0
C2748 C 0.76539 0.11797 0.38859 0.0
H2749 H 0.76692 0.09425 0.31615 0.0
H2750 H 0.77376 0.10997 0.33499 0.0
H2751 H 0.78144 0.09787 0.33635 0.0
H2752 H 0.78844 0.10474 0.37543 0.0
H2753 H 0.80657 0.12633 0.3979 0.0
H2754 H 0.98158 0.71621 0.37134 0.0
H2755 H 0.95395 0.70265 0.37086 0.0
H2756 H 0.95229 0.66307 0.34601 0.0
H2757 H 0.98035 0.67667 0.34662 0.0
H2758 H 0.93335 0.68869 0.3346 0.0
H2759 H 0.92527 0.64823 0.40121 0.0
H2760 H 0.94354 0.66499 0.39666 0.0
H2761 H 0.93632 0.64943 0.37778 0.0
C2762 C 0.97545 0.70461 0.36577 0.0
C2763 C 0.98325 0.69753 0.35908 0.0
C2764 C 0.95959 0.69689 0.36542 0.0
C2765 C 0.95105 0.68186 0.35844 0.0
C2766 C 0.95868 0.67465 0.35164 0.0
H2767 H 0.85418 0.6335 0.39103 0.0
H2768 H 0.87607 0.63809 0.36916 0.0
C2769 C 0.9747 0.68243 0.35199 0.0
C2770 C 0.93418 0.67402 0.35901 0.0
H2771 H 0.90411 0.64969 0.3904 0.0
C2772 C 0.92685 0.6799 0.34644 0.0
C2773 C 0.92569 0.6625 0.37433 0.0
C2774 C 0.93303 0.65589 0.3884 0.0
C2775 C 0.91155 0.67528 0.34985 0.0
C2776 C 0.90343 0.66465 0.36642 0.0
C2777 C 0.91037 0.65788 0.37772 0.0
C2778 C 0.88881 0.66214 0.37479 0.0
C2779 C 0.90439 0.68227 0.3363 0.0
C2780 C 0.8885 0.67418 0.38457 0.0
C2781 C 0.87606 0.67157 0.39701 0.0
C2782 C 0.86369 0.65689 0.39977 0.0
C2783 C 0.86346 0.64495 0.38867 0.0
C2784 C 0.87599 0.64755 0.37636 0.0
H2785 H 0.90972 0.68577 0.31989 0.0
H2786 H 0.89194 0.67438 0.33392 0.0
H2787 H 0.90621 0.69247 0.34495 0.0
H2788 H 0.89837 0.68548 0.38406 0.0
H2789 H 0.87661 0.68086 0.40587 0.0
H2790 H 0.36654 0.01773 0.64527 0.0
H2791 H 0.3866 0.01257 0.65523 0.0
H2792 H 0.38928 0.02963 0.72085 0.0
H2793 H 0.36922 0.03481 0.71112 0.0
H2794 H 0.41728 0.03238 0.67245 0.0
H2795 H 0.38096 0.98639 0.72995 0.0
H2796 H 0.37319 0.99353 0.70976 0.0
H2797 H 0.38169 0.00375 0.73498 0.0
C2798 C 0.37143 0.02045 0.66181 0.0
C2799 C 0.36618 0.0266 0.67745 0.0
C2800 C 0.38292 0.01751 0.66744 0.0
C2801 C 0.38928 0.02053 0.68885 0.0
C2802 C 0.38436 0.02701 0.70433 0.0
H2803 H 0.46829 0.02735 0.74973 0.0
H2804 H 0.45073 0.03184 0.72806 0.0
C2805 C 0.37293 0.03002 0.69869 0.0
C2806 C 0.40086 0.01664 0.69521 0.0
H2807 H 0.40739 0.99499 0.73074 0.0
C2808 C 0.4151 0.02412 0.68507 0.0
C2809 C 0.39791 0.00568 0.71138 0.0
C2810 C 0.38257 0.99675 0.72204 0.0
C2811 C 0.42669 0.02135 0.69135 0.0
C2812 C 0.42396 0.01091 0.70828 0.0
C2813 C 0.40951 0.00303 0.71779 0.0
C2814 C 0.43613 0.00866 0.71762 0.0
C2815 C 0.44174 0.02966 0.67984 0.0
C2816 C 0.43401 0.9942 0.71859 0.0
C2817 C 0.44407 0.99162 0.73099 0.0
C2818 C 0.45632 0.00343 0.74286 0.0
C2819 C 0.45898 0.01806 0.74066 0.0
C2820 C 0.44897 0.02064 0.72821 0.0
H2821 H 0.4405 0.03348 0.66322 0.0
H2822 H 0.44982 0.03976 0.68971 0.0
H2823 H 0.44676 0.0225 0.67809 0.0
H2824 H 0.42413 0.98477 0.71064 0.0
H2825 H 0.44161 0.98021 0.73264 0.0
H2826 H 0.98401 0.35353 0.6432 0.0
H2827 H 0.98569 0.37729 0.65174 0.0
H2828 H 0.98226 0.3669 0.72105 0.0
H2829 H 0.98027 0.34297 0.71265 0.0
H2830 H 0.96441 0.37843 0.7081 0.0
H2831 H 0.02341 0.41414 0.67776 0.0
H2832 H 0.00985 0.401 0.65792 0.0
H2833 H 0.01474 0.39421 0.68206 0.0
C2834 C 0.98359 0.35627 0.66028 0.0
C2835 C 0.98212 0.34637 0.67726 0.0
C2836 C 0.98462 0.36991 0.66512 0.0
C2837 C 0.98436 0.37401 0.68706 0.0
C2838 C 0.98254 0.364 0.704 0.0
H2839 H 0.01724 0.45542 0.75629 0.0
H2840 H 0.0128 0.43342 0.73553 0.0
C2841 C 0.98144 0.35033 0.69917 0.0
C2842 C 0.9862 0.38878 0.69253 0.0
H2843 H 0.01157 0.42667 0.69121 0.0
C2844 C 0.97465 0.389 0.70423 0.0
C2845 C 0.99961 0.40255 0.68755 0.0
C2846 C 0.01269 0.40305 0.6758 0.0
C2847 C 0.97633 0.40257 0.71163 0.0
C2848 C 0.98982 0.41633 0.70685 0.0
C2849 C 1.00117 0.41613 0.69459 0.0
C2850 C 0.99329 0.43076 0.71706 0.0
C2851 C 0.964 0.40201 0.72547 0.0
C2852 C 0.98413 0.43696 0.71302 0.0
C2853 C 0.9867 0.44964 0.72494 0.0
C2854 C 0.99845 0.45622 0.74098 0.0
C2855 C 0.00808 0.4505 0.74403 0.0
C2856 C 0.00555 0.43794 0.73217 0.0
H2857 H 0.95557 0.3904 0.73076 0.0
H2858 H 0.96902 0.40923 0.7404 0.0
H2859 H 0.95784 0.40633 0.71573 0.0
H2860 H 0.97475 0.43174 0.70115 0.0
H2861 H 0.97912 0.45386 0.72239 0.0
H2862 H 0.64844 0.61079 0.67959 0.0
H2863 H 0.62103 0.59801 0.68391 0.0
H2864 H 0.62447 0.64058 0.69493 0.0
H2865 H 0.65225 0.65362 0.69074 0.0
H2866 H 0.60887 0.61973 0.72724 0.0
H2867 H 0.58594 0.5934 0.64575 0.0
H2868 H 0.60035 0.58983 0.65549 0.0
H2869 H 0.60532 0.60884 0.64985 0.0
C2870 C 0.64341 0.61753 0.68263 0.0
C2871 C 0.65257 0.63324 0.68494 0.0
C2872 C 0.62766 0.61018 0.68483 0.0
C2873 C 0.62063 0.61834 0.68931 0.0
C2874 C 0.62966 0.63408 0.69118 0.0
H2875 H 0.5299 0.57207 0.7485 0.0
H2876 H 0.55064 0.59141 0.72646 0.0
C2877 C 0.64551 0.64151 0.68882 0.0
C2878 C 0.60421 0.61006 0.69466 0.0
H2879 H 0.5698 0.5805 0.67705 0.0
C2880 C 0.60019 0.61145 0.71609 0.0
C2881 C 0.59292 0.59926 0.68006 0.0
C2882 C 0.59633 0.59785 0.65643 0.0
C2883 C 0.58553 0.60149 0.72395 0.0
C2884 C 0.57453 0.59001 0.70979 0.0
C2885 C 0.57825 0.58927 0.68789 0.0
C2886 C 0.55996 0.57759 0.71843 0.0
C2887 C 0.58232 0.60263 0.74783 0.0
C2888 C 0.55772 0.56312 0.71985 0.0
C2889 C 0.54584 0.55204 0.73226 0.0
C2890 C 0.53602 0.55527 0.74348 0.0
C2891 C 0.53741 0.56933 0.74023 0.0
C2892 C 0.54928 0.58039 0.72774 0.0
H2893 H 0.59281 0.61063 0.75737 0.0
H2894 H 0.5742 0.6066 0.74877 0.0
H2895 H 0.57704 0.59145 0.75582 0.0
H2896 H 0.56582 0.56072 0.71273 0.0
H2897 H 0.54519 0.54141 0.73458 0.0
H2898 H 0.71055 0.71456 0.65631 0.0
H2899 H 0.70847 0.73632 0.647 0.0
H2900 H 0.67676 0.72535 0.69958 0.0
H2901 H 0.67896 0.70374 0.70924 0.0
H2902 H 0.68266 0.73541 0.63328 0.0
H2903 H 0.70558 0.7703 0.7092 0.0
H2904 H 0.70837 0.75491 0.70339 0.0
H2905 H 0.69059 0.75129 0.71415 0.0
C2906 C 0.70328 0.71688 0.66609 0.0
C2907 C 0.69492 0.70738 0.68353 0.0
C2908 C 0.70211 0.72933 0.66075 0.0
C2909 C 0.69261 0.73261 0.67277 0.0
C2910 C 0.68443 0.72328 0.69038 0.0
H2911 H 0.65437 0.78324 0.61829 0.0
H2912 H 0.65791 0.76497 0.63894 0.0
C2913 C 0.68562 0.71084 0.69578 0.0
C2914 C 0.69037 0.74504 0.66573 0.0
H2915 H 0.69285 0.77749 0.6831 0.0
C2916 C 0.68495 0.74463 0.64417 0.0
C2917 C 0.69346 0.75714 0.67989 0.0
C2918 C 0.69996 0.75857 0.70288 0.0
C2919 C 0.68235 0.75584 0.63645 0.0
C2920 C 0.68496 0.76768 0.6508 0.0
C2921 C 0.69063 0.76828 0.67226 0.0
C2922 C 0.6823 0.77973 0.64323 0.0
C2923 C 0.67705 0.75503 0.61281 0.0
C2924 C 0.69466 0.79441 0.64025 0.0
C2925 C 0.69262 0.80494 0.6287 0.0
C2926 C 0.67819 0.80088 0.61995 0.0
C2927 C 0.66561 0.78664 0.62484 0.0
C2928 C 0.66764 0.77617 0.63647 0.0
H2929 H 0.679 0.74734 0.60267 0.0
H2930 H 0.66465 0.75075 0.61237 0.0
H2931 H 0.68302 0.76633 0.60515 0.0
H2932 H 0.70606 0.7974 0.64542 0.0
H2933 H 0.70254 0.81577 0.62496 0.0
H2934 H 0.30911 0.98634 0.67348 0.0
H2935 H 0.29394 0.95887 0.66877 0.0
H2936 H 0.25261 0.95996 0.67086 0.0
H2937 H 0.2675 0.98719 0.67539 0.0
H2938 H 0.26832 0.93473 0.69505 0.0
H2939 H 0.25175 0.94105 0.60974 0.0
H2940 H 0.2677 0.95627 0.62459 0.0
H2941 H 0.24858 0.9513 0.63056 0.0
C2942 C 0.29679 0.9807 0.67315 0.0
C2943 C 0.28954 0.98901 0.67454 0.0
C2944 C 0.28815 0.96502 0.67052 0.0
C2945 C 0.27217 0.95744 0.66923 0.0
C2946 C 0.26493 0.96562 0.67156 0.0
H2947 H 0.20157 0.86974 0.62282 0.0
H2948 H 0.2145 0.89375 0.64295 0.0
C2949 C 0.2735 0.98122 0.67413 0.0
C2950 C 0.26295 0.94115 0.66398 0.0
H2951 H 0.23943 0.91653 0.62413 0.0
C2952 C 0.26201 0.9307 0.67955 0.0
C2953 C 0.25474 0.93596 0.64376 0.0
C2954 C 0.25579 0.9467 0.62608 0.0
C2955 C 0.25279 0.91512 0.67553 0.0
C2956 C 0.24451 0.90994 0.65531 0.0
C2957 C 0.24558 0.92047 0.63977 0.0
C2958 C 0.23536 0.89378 0.64899 0.0
C2959 C 0.25181 0.90436 0.69307 0.0
C2960 C 0.24248 0.88545 0.64669 0.0
C2961 C 0.23499 0.87163 0.63553 0.0
C2962 C 0.22031 0.86598 0.62643 0.0
C2963 C 0.21273 0.8737 0.63022 0.0
C2964 C 0.22018 0.88748 0.6415 0.0
H2965 H 0.25479 0.90974 0.70967 0.0
H2966 H 0.2402 0.89417 0.69348 0.0
H2967 H 0.26 0.90079 0.68941 0.0
H2968 H 0.25427 0.89018 0.65181 0.0
H2969 H 0.24119 0.86605 0.6322 0.0
H2970 H 0.02991 0.29494 0.68178 0.0
H2971 H 0.05753 0.3086 0.67983 0.0
H2972 H 0.05842 0.35017 0.67113 0.0
H2973 H 0.03044 0.33642 0.67303 0.0
H2974 H 0.07381 0.34461 0.63904 0.0
H2975 H 0.09253 0.33681 0.72122 0.0
H2976 H 0.07727 0.31936 0.71014 0.0
H2977 H 0.07397 0.33436 0.71612 0.0
C2978 C 0.03593 0.30702 0.67976 0.0
C2979 C 0.02794 0.31458 0.67742 0.0
C2980 C 0.05179 0.31486 0.67893 0.0
C2981 C 0.06009 0.33045 0.67577 0.0
C2982 C 0.05223 0.33815 0.6739 0.0
H2983 H 0.15073 0.36986 0.61857 0.0
H2984 H 0.13193 0.37073 0.64181 0.0
C2985 C 0.03627 0.33029 0.67494 0.0
C2986 C 0.07667 0.33805 0.67157 0.0
H2987 H 0.10908 0.33987 0.69078 0.0
C2988 C 0.0817 0.34404 0.65056 0.0
C2989 C 0.08692 0.33726 0.68664 0.0
C2990 C 0.08243 0.33173 0.70987 0.0
C2991 C 0.09624 0.34796 0.64347 0.0
C2992 C 0.10614 0.34617 0.65805 0.0
C2993 C 0.1015 0.34122 0.67963 0.0
C2994 C 0.12015 0.3471 0.64994 0.0
C2995 C 0.10034 0.35279 0.61984 0.0
C2996 C 0.12062 0.33389 0.64854 0.0
C2997 C 0.13146 0.33342 0.63558 0.0
C2998 C 0.14196 0.34616 0.62372 0.0
C2999 C 0.14267 0.35985 0.62738 0.0
C3000 C 0.13186 0.36033 0.64049 0.0
H3001 H 0.09045 0.35128 0.60985 0.0
H3002 H 0.10939 0.36486 0.61947 0.0
H3003 H 0.10479 0.34627 0.6119 0.0
H3004 H 0.11175 0.32357 0.65582 0.0
H3005 H 0.13053 0.32269 0.633 0.0
H3006 H 0.29814 0.29429 0.65627 0.0
H3007 H 0.27613 0.29682 0.64811 0.0
H3008 H 0.29137 0.33116 0.69828 0.0
H3009 H 0.31341 0.32875 0.70661 0.0
H3010 H 0.25254 0.29484 0.67896 0.0
H3011 H 0.28784 0.35056 0.63904 0.0
H3012 H 0.29454 0.33775 0.64304 0.0
H3013 H 0.29388 0.34818 0.666 0.0
C3014 C 0.29678 0.30233 0.66567 0.0
C3015 C 0.30761 0.31139 0.682 0.0
C3016 C 0.28417 0.30372 0.66102 0.0
C3017 C 0.28221 0.31426 0.67248 0.0
C3018 C 0.29277 0.32306 0.68914 0.0
H3019 H 0.22105 0.34594 0.63471 0.0
H3020 H 0.23893 0.34197 0.65693 0.0
C3021 C 0.30534 0.32163 0.69388 0.0
C3022 C 0.26944 0.31642 0.66636 0.0
H3023 H 0.26149 0.34066 0.64008 0.0
C3024 C 0.25446 0.30489 0.67059 0.0
C3025 C 0.27202 0.3296 0.65566 0.0
C3026 C 0.28791 0.34224 0.65049 0.0
C3027 C 0.24193 0.30612 0.66414 0.0
C3028 C 0.24446 0.31905 0.65261 0.0
C3029 C 0.25951 0.33076 0.64897 0.0
C3030 C 0.23182 0.32024 0.64244 0.0
C3031 C 0.22614 0.29356 0.66988 0.0
C3032 C 0.22161 0.30923 0.62732 0.0
C3033 C 0.21127 0.31139 0.61502 0.0
C3034 C 0.21106 0.32467 0.61741 0.0
C3035 C 0.22083 0.33547 0.63303 0.0
C3036 C 0.23109 0.33324 0.64554 0.0
H3037 H 0.22639 0.28772 0.68512 0.0
H3038 H 0.2183 0.29776 0.6723 0.0
H3039 H 0.22149 0.28513 0.6563 0.0
H3040 H 0.22223 0.29935 0.62403 0.0
H3041 H 0.20411 0.30312 0.6026 0.0
H3042 H 0.67396 0.98122 0.70724 0.0
H3043 H 0.67211 0.95757 0.69739 0.0
H3044 H 0.69977 0.97863 0.64061 0.0
H3045 H 0.70149 0.00228 0.65013 0.0
H3046 H 0.67412 0.95178 0.63048 0.0
H3047 H 0.70364 0.94517 0.70325 0.0
H3048 H 0.68824 0.94779 0.71007 0.0
H3049 H 0.70477 0.96267 0.69689 0.0
C3050 C 0.67976 0.98088 0.69273 0.0
C3051 C 0.68789 0.99369 0.67948 0.0
C3052 C 0.67878 0.96735 0.68722 0.0
C3053 C 0.68601 0.96636 0.66845 0.0
C3054 C 0.69418 0.97914 0.65525 0.0
H3055 H 0.69995 0.89602 0.62106 0.0
H3056 H 0.70269 0.91803 0.64019 0.0
C3057 C 0.69514 0.99266 0.66071 0.0
C3058 C 0.68433 0.95182 0.66182 0.0
H3059 H 0.6907 0.92413 0.67883 0.0
C3060 C 0.67777 0.94576 0.64105 0.0
C3061 C 0.68922 0.94402 0.67554 0.0
C3062 C 0.69699 0.95029 0.6976 0.0
C3063 C 0.67583 0.9321 0.6337 0.0
C3064 C 0.68031 0.92407 0.64765 0.0
C3065 C 0.68707 0.93019 0.66831 0.0
C3066 C 0.67849 0.90958 0.64046 0.0
C3067 C 0.66926 0.92652 0.61081 0.0
C3068 C 0.66395 0.89717 0.63548 0.0
C3069 C 0.66236 0.8846 0.62463 0.0
C3070 C 0.6753 0.88416 0.61872 0.0
C3071 C 0.68978 0.89598 0.6256 0.0
C3072 C 0.69136 0.90861 0.63638 0.0
H3073 H 0.66979 0.93558 0.60043 0.0
H3074 H 0.67542 0.92184 0.60239 0.0
H3075 H 0.65712 0.91744 0.61202 0.0
H3076 H 0.65385 0.89757 0.63886 0.0
H3077 H 0.65107 0.87563 0.61957 0.0
H3078 H 0.0214 0.73015 0.658 0.0
H3079 H 0.04898 0.7438 0.65582 0.0
H3080 H 0.04906 0.70355 0.67259 0.0
H3081 H 0.02109 0.68953 0.67432 0.0
H3082 H 0.07107 0.74932 0.68672 0.0
H3083 H 0.07315 0.71644 0.61606 0.0
H3084 H 0.05562 0.71484 0.62442 0.0
H3085 H 0.06371 0.70597 0.64026 0.0
C3086 C 0.02719 0.7241 0.66124 0.0
C3087 C 0.01896 0.70867 0.6662 0.0
C3088 C 0.04303 0.73198 0.66007 0.0
C3089 C 0.05112 0.72471 0.66384 0.0
C3090 C 0.04304 0.70935 0.66924 0.0
H3091 H 0.14801 0.76922 0.62993 0.0
H3092 H 0.12491 0.75235 0.65057 0.0
C3093 C 0.02706 0.70137 0.67031 0.0
C3094 C 0.06796 0.73342 0.66144 0.0
H3095 H 0.09613 0.73769 0.62762 0.0
C3096 C 0.0766 0.74664 0.67404 0.0
C3097 C 0.07521 0.7299 0.64496 0.0
C3098 C 0.06649 0.71609 0.6305 0.0
C3099 C 0.09206 0.7568 0.66983 0.0
C3100 C 0.09904 0.75369 0.65253 0.0
C3101 C 0.09072 0.74002 0.64091 0.0
C3102 C 0.11418 0.76522 0.64417 0.0
C3103 C 0.10067 0.77101 0.68343 0.0
C3104 C 0.11595 0.77823 0.63425 0.0
C3105 C 0.12903 0.78777 0.62244 0.0
C3106 C 0.14063 0.78454 0.62049 0.0
C3107 C 0.13934 0.77208 0.63161 0.0
C3108 C 0.12613 0.7624 0.64323 0.0
H3109 H 0.09544 0.76967 0.69979 0.0
H3110 H 0.11278 0.77437 0.68592 0.0
H3111 H 0.10037 0.78024 0.67468 0.0
H3112 H 0.10677 0.78048 0.63439 0.0
H3113 H 0.12968 0.79717 0.61367 0.0
H3114 H 0.99686 0.63906 0.64896 0.0
H3115 H 0.99761 0.61643 0.65713 0.0
H3116 H 0.96022 0.60165 0.70145 0.0
H3117 H 0.95938 0.6243 0.69342 0.0
H3118 H 1.0023 0.60806 0.70043 0.0
H3119 H 0.94759 0.56409 0.6618 0.0
H3120 H 0.95673 0.58373 0.65456 0.0
H3121 H 0.94637 0.57715 0.67969 0.0
C3122 C 0.98869 0.63095 0.66031 0.0
C3123 C 0.97805 0.63352 0.67054 0.0
C3124 C 0.98914 0.61801 0.66495 0.0
C3125 C 0.97884 0.60725 0.67967 0.0
C3126 C 0.96809 0.60967 0.68974 0.0
H3127 H 0.96648 0.53011 0.74831 0.0
H3128 H 0.96285 0.54806 0.72713 0.0
C3129 C 0.9677 0.62268 0.68524 0.0
C3130 C 0.98006 0.59404 0.68562 0.0
H3131 H 0.96064 0.55562 0.68474 0.0
C3132 C 0.99328 0.59659 0.69679 0.0
C3133 C 0.96823 0.57911 0.68093 0.0
C3134 C 0.95396 0.57577 0.66843 0.0
C3135 C 0.9948 0.58461 0.70416 0.0
C3136 C 0.98293 0.56961 0.6996 0.0
C3137 C 0.96979 0.56708 0.68805 0.0
C3138 C 0.98346 0.55653 0.7085 0.0
C3139 C 0.0088 0.58819 0.71772 0.0
C3140 C 0.99566 0.5545 0.70398 0.0
C3141 C 0.99782 0.54428 0.71623 0.0
C3142 C 0.9877 0.53581 0.73302 0.0
C3143 C 0.97454 0.53659 0.73562 0.0
C3144 C 0.97247 0.54688 0.72353 0.0
H3145 H 0.01494 0.59993 0.72409 0.0
H3146 H 0.00574 0.58047 0.73196 0.0
H3147 H 0.01675 0.58682 0.70729 0.0
H3148 H 0.00406 0.56151 0.69197 0.0
H3149 H 0.00808 0.54398 0.71385 0.0
H3150 H 0.40537 0.35353 0.6837 0.0
H3151 H 0.41874 0.38082 0.6867 0.0
H3152 H 0.37593 0.3791 0.68178 0.0
H3153 H 0.36231 0.35157 0.67911 0.0
H3154 H 0.41978 0.40338 0.65935 0.0
H3155 H 0.39438 0.40064 0.74086 0.0
H3156 H 0.39307 0.38436 0.72819 0.0
H3157 H 0.38125 0.39123 0.71822 0.0
C3158 C 0.39874 0.3589 0.68314 0.0
C3159 C 0.38272 0.35031 0.68143 0.0
C3160 C 0.40644 0.37454 0.68473 0.0
C3161 C 0.39834 0.38198 0.68471 0.0
C3162 C 0.38239 0.37355 0.68215 0.0
H3163 H 0.43881 0.47278 0.73699 0.0
H3164 H 0.42158 0.45137 0.71327 0.0
C3165 C 0.37463 0.35782 0.68057 0.0
C3166 C 0.40671 0.39844 0.68887 0.0
H3167 H 0.41312 0.42429 0.72859 0.0
C3168 C 0.41818 0.40803 0.67432 0.0
C3169 C 0.40459 0.40449 0.70836 0.0
C3170 C 0.39275 0.39469 0.72494 0.0
C3171 C 0.42794 0.42341 0.67914 0.0
C3172 C 0.42632 0.42928 0.6992 0.0
C3173 C 0.41433 0.41983 0.71315 0.0
C3174 C 0.43785 0.44453 0.7076 0.0
C3175 C 0.44002 0.43314 0.66287 0.0
C3176 C 0.453 0.44833 0.71127 0.0
C3177 C 0.46291 0.46066 0.72461 0.0
C3178 C 0.45774 0.46926 0.73475 0.0
C3179 C 0.44307 0.46634 0.72931 0.0
C3180 C 0.43321 0.45407 0.71585 0.0
H3181 H 0.43631 0.42881 0.64576 0.0
H3182 H 0.44282 0.44497 0.66361 0.0
H3183 H 0.45053 0.43296 0.66675 0.0
H3184 H 0.4568 0.441 0.70553 0.0
H3185 H 0.47405 0.46249 0.7288 0.0
H3186 H 0.64501 0.0081 0.68339 0.0
H3187 H 0.61713 0.99544 0.6861 0.0
H3188 H 0.621 0.03853 0.69268 0.0
H3189 H 0.64843 0.05112 0.68968 0.0
H3190 H 0.60129 0.99648 0.7208 0.0
H3191 H 0.58675 0.01851 0.64775 0.0
H3192 H 0.60484 0.01964 0.65088 0.0
H3193 H 0.60196 0.03365 0.66331 0.0
C3194 C 0.63986 0.01484 0.6851 0.0
C3195 C 0.64898 0.03063 0.6863 0.0
C3196 C 0.62394 0.00761 0.68661 0.0
C3197 C 0.61693 0.01605 0.68906 0.0
C3198 C 0.62605 0.03177 0.69009 0.0
H3199 H 0.5476 0.01756 0.75171 0.0
H3200 H 0.56858 0.02124 0.72867 0.0
C3201 C 0.64183 0.03896 0.68863 0.0
C3202 C 0.60031 0.00874 0.6928 0.0
H3203 H 0.56971 0.01197 0.67902 0.0
C3204 C 0.59421 0.99946 0.71126 0.0
C3205 C 0.59103 0.01256 0.68028 0.0
C3206 C 0.59646 0.02151 0.65932 0.0
C3207 C 0.57959 0.99501 0.71862 0.0
C3208 C 0.57086 0.99994 0.70716 0.0
C3209 C 0.57649 0.00831 0.68783 0.0
C3210 C 0.55696 0.99824 0.71688 0.0
C3211 C 0.57394 0.98596 0.73948 0.0
C3212 C 0.54326 0.98426 0.71701 0.0
C3213 C 0.53117 0.98221 0.72993 0.0
C3214 C 0.53275 0.99409 0.74295 0.0
C3215 C 0.54609 0.00831 0.74158 0.0
C3216 C 0.55806 0.01039 0.72852 0.0
H3217 H 0.58233 0.98342 0.74685 0.0
H3218 H 0.57144 0.9922 0.75183 0.0
H3219 H 0.56317 0.97519 0.73587 0.0
H3220 H 0.54225 0.97476 0.70816 0.0
H3221 H 0.52108 0.97109 0.73107 0.0
loop_
_geom_bond_atom_site_label_1
_geom_bond_atom_site_label_2
_geom_bond_distance
_geom_bond_site_symmetry_2
_ccdc_geom_bond_type
Zn0 O3 2.031 1_554 S
Zn0 O5 2.049 . S
Zn0 O10 2.067 1_554 S
Zn1 O2 1.962 1_455 S
Zn1 O4 1.986 . S
Zn1 O6 1.996 1_455 S
Zn1 O9 1.943 1_554 S
O2 Zn1 1.962 1_655 S
O2 C7 1.254 . S
O3 Zn0 2.031 1_556 S
O3 C7 1.269 1_556 S
O4 Zn1 1.986 . S
O4 C11 1.262 . S
O5 Zn0 2.049 . S
O5 C13 1.260 . S
O6 Zn1 1.996 1_655 S
O6 C13 1.257 . S
C7 O2 1.254 . S
C7 O3 1.269 1_554 S
C8 O9 1.249 . S
C8 O10 1.270 1_455 S
O9 Zn1 1.943 1_556 S
O9 C8 1.249 . S
O10 Zn0 2.067 1_556 S
O10 C8 1.270 1_655 S
C11 O4 1.262 . S
C11 O12 1.232 . S
O12 C11 1.232 . S
C13 O5 1.260 . S
C13 O6 1.257 . S
Zn14 O17 2.031 1_554 S
Zn14 O19 2.049 . S
Zn14 O24 2.067 1_554 S
Zn15 O16 1.962 . S
Zn15 O18 1.986 . S
Zn15 O20 1.996 . S
Zn15 O23 1.943 1_554 S
O16 Zn15 1.962 . S
O16 C21 1.254 . S
O17 Zn14 2.031 1_556 S
O17 C21 1.269 1_556 S
O18 Zn15 1.986 . S
O18 C25 1.262 . S
O19 Zn14 2.049 . S
O19 C27 1.260 . S
O20 Zn15 1.996 . S
O20 C27 1.257 . S
C21 O16 1.254 . S
C21 O17 1.269 1_554 S
C22 O23 1.249 . S
C22 O24 1.270 . S
O23 Zn15 1.943 1_556 S
O23 C22 1.249 . S
O24 Zn14 2.067 1_556 S
O24 C22 1.270 . S
C25 O18 1.262 . S
C25 O26 1.232 . S
O26 C25 1.232 . S
C27 O19 1.260 . S
C27 O20 1.257 . S
Zn28 O31 2.031 . S
Zn28 O33 2.049 1_554 S
Zn28 O38 2.067 . S
Zn29 O30 1.962 1_545 S
Zn29 O32 1.986 1_554 S
Zn29 O34 1.996 1_544 S
Zn29 O37 1.943 . S
O30 Zn29 1.962 1_565 S
O30 C35 1.254 . S
O31 Zn28 2.031 . S
O31 C35 1.269 . S
O32 Zn29 1.986 1_556 S
O32 C39 1.252 1_556 S
O33 Zn28 2.049 1_556 S
O33 C41 1.260 . S
O34 Zn29 1.996 1_566 S
O34 C41 1.257 . S
C35 O30 1.254 . S
C35 O31 1.269 . S
C36 O37 1.249 . S
C36 O38 1.270 1_545 S
O37 Zn29 1.943 . S
O37 C36 1.249 . S
O38 Zn28 2.067 . S
O38 C36 1.270 1_565 S
C39 O32 1.252 1_554 S
C39 O40 1.247 . S
O40 C39 1.247 . S
C41 O33 1.260 . S
C41 O34 1.257 . S
Zn42 O45 2.031 . S
Zn42 O47 2.049 1_554 S
Zn42 O52 2.067 . S
Zn43 O44 1.962 1_655 S
Zn43 O46 1.986 1_554 S
Zn43 O48 1.996 1_654 S
Zn43 O51 1.943 . S
O44 Zn43 1.962 1_455 S
O44 C49 1.254 . S
O45 Zn42 2.031 . S
O45 C49 1.269 . S
O46 Zn43 1.986 1_556 S
O46 C53 1.275 . S
O47 Zn42 2.049 1_556 S
O47 C55 1.260 . S
O48 Zn43 1.996 1_456 S
O48 C55 1.257 . S
C49 O44 1.254 . S
C49 O45 1.269 . S
C50 O51 1.249 . S
C50 O52 1.270 1_655 S
O51 Zn43 1.943 . S
O51 C50 1.249 . S
O52 Zn42 2.067 . S
O52 C50 1.270 1_455 S
C53 O46 1.275 . S
C53 O54 1.214 1_556 S
O54 C53 1.214 1_554 S
C55 O47 1.260 . S
C55 O48 1.257 . S
Zn56 O59 2.031 . S
Zn56 O61 2.049 1_554 S
Zn56 O66 2.067 . S
Zn57 O58 1.962 . S
Zn57 O60 1.986 1_554 S
Zn57 O62 1.996 1_554 S
Zn57 O65 1.943 . S
O58 Zn57 1.962 . S
O58 C63 1.254 . S
O59 Zn56 2.031 . S
O59 C63 1.269 . S
O60 Zn57 1.986 1_556 S
O60 C67 1.239 1_556 S
O61 Zn56 2.049 1_556 S
O61 C69 1.260 . S
O62 Zn57 1.996 1_556 S
O62 C69 1.257 . S
C63 O58 1.254 . S
C63 O59 1.269 . S
C64 O65 1.249 . S
C64 O66 1.270 . S
O65 Zn57 1.943 . S
O65 C64 1.249 . S
O66 Zn56 2.067 . S
O66 C64 1.270 . S
C67 O60 1.239 1_554 S
C67 O68 1.266 . S
O68 C67 1.266 . S
C69 O61 1.260 . S
C69 O62 1.257 . S
Zn70 O73 2.031 1_554 S
Zn70 O75 2.049 . S
Zn70 O80 2.067 1_554 S
Zn71 O72 1.962 1_565 S
Zn71 O74 1.986 . S
Zn71 O76 1.996 1_565 S
Zn71 O79 1.943 1_554 S
O72 Zn71 1.962 1_545 S
O72 C77 1.254 . S
O73 Zn70 2.031 1_556 S
O73 C77 1.269 1_556 S
O74 Zn71 1.986 . S
O74 C81 1.262 . S
O75 Zn70 2.049 . S
O75 C83 1.260 . S
O76 Zn71 1.996 1_545 S
O76 C83 1.257 . S
C77 O72 1.254 . S
C77 O73 1.269 1_554 S
C78 O79 1.249 . S
C78 O80 1.270 1_565 S
O79 Zn71 1.943 1_556 S
O79 C78 1.249 . S
O80 Zn70 2.067 1_556 S
O80 C78 1.270 1_545 S
C81 O74 1.262 . S
C81 O82 1.232 . S
O82 C81 1.232 . S
C83 O75 1.260 . S
C83 O76 1.257 . S
Zn84 O87 2.031 . S
Zn84 O89 2.049 . S
Zn84 O94 2.067 . S
Zn85 O86 1.962 . S
Zn85 O88 1.986 . S
Zn85 O90 1.996 . S
Zn85 O93 1.943 . S
O86 Zn85 1.962 . S
O86 C91 1.254 . S
O87 Zn84 2.031 . S
O87 C91 1.269 . S
O88 Zn85 1.986 . S
O88 C95 1.262 . S
O89 Zn84 2.049 . S
O89 C97 1.260 . S
O90 Zn85 1.996 . S
O90 C97 1.257 . S
C91 O86 1.254 . S
C91 O87 1.269 . S
C92 O93 1.249 . S
C92 O94 1.270 . S
O93 Zn85 1.943 . S
O93 C92 1.249 . S
O94 Zn84 2.067 . S
O94 C92 1.270 . S
C95 O88 1.262 . S
C95 O96 1.232 . S
O96 C95 1.232 . S
C97 O89 1.260 . S
C97 O90 1.257 . S
Zn98 O101 2.031 . S
Zn98 O103 2.049 . S
Zn98 O108 2.067 . S
Zn99 O100 1.962 . S
Zn99 O102 1.986 1_565 S
Zn99 O104 1.996 . S
Zn99 O107 1.943 . S
O100 Zn99 1.962 . S
O100 C105 1.254 . S
O101 Zn98 2.031 . S
O101 C105 1.269 . S
O102 Zn99 1.986 1_545 S
O102 C109 1.262 . S
O103 Zn98 2.049 . S
O103 C111 1.260 . S
O104 Zn99 1.996 . S
O104 C111 1.257 . S
C105 O100 1.254 . S
C105 O101 1.269 . S
C106 O107 1.249 . S
C106 O108 1.270 . S
O107 Zn99 1.943 . S
O107 C106 1.249 . S
O108 Zn98 2.067 . S
O108 C106 1.270 . S
C109 O102 1.262 . S
C109 O110 1.232 . S
O110 C109 1.232 . S
C111 O103 1.260 . S
C111 O104 1.257 . S
Zn112 O115 2.031 . S
Zn112 O117 2.049 . S
Zn112 O122 2.067 . S
Zn113 O114 1.962 1_455 S
Zn113 O116 1.986 . S
Zn113 O118 1.996 . S
Zn113 O121 1.943 . S
O114 Zn113 1.962 1_655 S
O114 C119 1.254 . S
O115 Zn112 2.031 . S
O115 C119 1.269 1_455 S
O116 Zn113 1.986 . S
O116 C123 1.262 . S
O117 Zn112 2.049 . S
O117 C125 1.260 . S
O118 Zn113 1.996 . S
O118 C125 1.257 . S
C119 O114 1.254 . S
C119 O115 1.269 1_655 S
C120 O121 1.249 . S
C120 O122 1.270 . S
O121 Zn113 1.943 . S
O121 C120 1.249 . S
O122 Zn112 2.067 . S
O122 C120 1.270 . S
C123 O116 1.262 . S
C123 O124 1.232 . S
O124 C123 1.232 . S
C125 O117 1.260 . S
C125 O118 1.257 . S
Zn126 O129 2.031 . S
Zn126 O131 2.049 . S
Zn126 O136 2.067 . S
Zn127 O128 1.962 1_565 S
Zn127 O130 1.986 . S
Zn127 O132 1.996 . S
Zn127 O135 1.943 . S
O128 Zn127 1.962 1_545 S
O128 C133 1.254 . S
O129 Zn126 2.031 . S
O129 C133 1.269 1_565 S
O130 Zn127 1.986 . S
O130 C137 1.262 . S
O131 Zn126 2.049 . S
O131 C139 1.260 . S
O132 Zn127 1.996 . S
O132 C139 1.257 . S
C133 O128 1.254 . S
C133 O129 1.269 1_545 S
C134 O135 1.249 . S
C134 O136 1.270 . S
O135 Zn127 1.943 . S
O135 C134 1.249 . S
O136 Zn126 2.067 . S
O136 C134 1.270 . S
C137 O130 1.262 . S
C137 O138 1.232 . S
O138 C137 1.232 . S
C139 O131 1.260 . S
C139 O132 1.257 . S
Zn140 O143 2.031 . S
Zn140 O145 2.049 . S
Zn140 O150 2.067 . S
Zn141 O142 1.962 1_455 S
Zn141 O144 1.986 . S
Zn141 O146 1.996 . S
Zn141 O149 1.943 . S
O142 Zn141 1.962 1_655 S
O142 C147 1.254 . S
O143 Zn140 2.031 . S
O143 C147 1.269 1_455 S
O144 Zn141 1.986 . S
O144 C151 1.262 . S
O145 Zn140 2.049 . S
O145 C153 1.260 . S
O146 Zn141 1.996 . S
O146 C153 1.257 . S
C147 O142 1.254 . S
C147 O143 1.269 1_655 S
C148 O149 1.249 . S
C148 O150 1.270 . S
O149 Zn141 1.943 . S
O149 C148 1.249 . S
O150 Zn140 2.067 . S
O150 C148 1.270 . S
C151 O144 1.262 . S
C151 O152 1.232 . S
O152 C151 1.232 . S
C153 O145 1.260 . S
C153 O146 1.257 . S
Zn154 O157 2.031 . S
Zn154 O159 2.049 . S
Zn154 O164 2.067 . S
Zn155 O156 1.962 . S
Zn155 O158 1.986 . S
Zn155 O160 1.996 . S
Zn155 O163 1.943 . S
O156 Zn155 1.962 . S
O156 C161 1.254 . S
O157 Zn154 2.031 . S
O157 C161 1.269 . S
O158 Zn155 1.986 . S
O158 C165 1.262 . S
O159 Zn154 2.049 . S
O159 C167 1.260 . S
O160 Zn155 1.996 . S
O160 C167 1.257 . S
C161 O156 1.254 . S
C161 O157 1.269 . S
C162 O163 1.249 . S
C162 O164 1.270 . S
O163 Zn155 1.943 . S
O163 C162 1.249 . S
O164 Zn154 2.067 . S
O164 C162 1.270 . S
C165 O158 1.262 . S
C165 O166 1.232 . S
O166 C165 1.232 . S
C167 O159 1.260 . S
C167 O160 1.257 . S
Zn168 O171 2.031 . S
Zn168 O173 2.049 . S
Zn168 O178 2.067 . S
Zn169 O170 1.962 1_545 S
Zn169 O172 1.986 . S
Zn169 O174 1.996 . S
Zn169 O177 1.943 . S
O170 Zn169 1.962 1_565 S
O170 C175 1.254 . S
O171 Zn168 2.031 . S
O171 C175 1.269 1_545 S
O172 Zn169 1.986 . S
O172 C179 1.262 . S
O173 Zn168 2.049 . S
O173 C181 1.260 . S
O174 Zn169 1.996 . S
O174 C181 1.257 . S
C175 O170 1.254 . S
C175 O171 1.269 1_565 S
C176 O177 1.249 . S
C176 O178 1.270 . S
O177 Zn169 1.943 . S
O177 C176 1.249 . S
O178 Zn168 2.067 . S
O178 C176 1.270 . S
C179 O172 1.262 . S
C179 O180 1.232 . S
O180 C179 1.232 . S
C181 O173 1.260 . S
C181 O174 1.257 . S
Zn182 O185 2.031 . S
Zn182 O187 2.049 . S
Zn182 O192 2.067 . S
Zn183 O184 1.962 1_655 S
Zn183 O186 1.986 . S
Zn183 O188 1.996 . S
Zn183 O191 1.943 . S
O184 Zn183 1.962 1_455 S
O184 C189 1.254 . S
O185 Zn182 2.031 . S
O185 C189 1.269 1_655 S
O186 Zn183 1.986 . S
O186 C193 1.262 . S
O187 Zn182 2.049 . S
O187 C195 1.260 . S
O188 Zn183 1.996 . S
O188 C195 1.257 . S
C189 O184 1.254 . S
C189 O185 1.269 1_455 S
C190 O191 1.249 . S
C190 O192 1.270 . S
O191 Zn183 1.943 . S
O191 C190 1.249 . S
O192 Zn182 2.067 . S
O192 C190 1.270 . S
C193 O186 1.262 . S
C193 O194 1.232 . S
O194 C193 1.232 . S
C195 O187 1.260 . S
C195 O188 1.257 . S
Zn196 O199 2.031 . S
Zn196 O201 2.049 . S
Zn196 O206 2.067 . S
Zn197 O198 1.962 . S
Zn197 O200 1.986 . S
Zn197 O202 1.996 . S
Zn197 O205 1.943 . S
O198 Zn197 1.962 . S
O198 C203 1.254 . S
O199 Zn196 2.031 . S
O199 C203 1.269 . S
O200 Zn197 1.986 . S
O200 C207 1.262 . S
O201 Zn196 2.049 . S
O201 C209 1.260 . S
O202 Zn197 1.996 . S
O202 C209 1.257 . S
C203 O198 1.254 . S
C203 O199 1.269 . S
C204 O205 1.249 . S
C204 O206 1.270 . S
O205 Zn197 1.943 . S
O205 C204 1.249 . S
O206 Zn196 2.067 . S
O206 C204 1.270 . S
C207 O200 1.262 . S
C207 O208 1.232 . S
O208 C207 1.232 . S
C209 O201 1.260 . S
C209 O202 1.257 . S
Zn210 O213 2.031 . S
Zn210 O215 2.049 . S
Zn210 O220 2.067 . S
Zn211 O212 1.962 . S
Zn211 O214 1.986 . S
Zn211 O216 1.996 . S
Zn211 O219 1.943 . S
O212 Zn211 1.962 . S
O212 C217 1.254 . S
O213 Zn210 2.031 . S
O213 C217 1.269 . S
O214 Zn211 1.986 . S
O214 C221 1.262 . S
O215 Zn210 2.049 . S
O215 C223 1.260 . S
O216 Zn211 1.996 . S
O216 C223 1.257 . S
C217 O212 1.254 . S
C217 O213 1.269 . S
C218 O219 1.249 . S
C218 O220 1.270 . S
O219 Zn211 1.943 . S
O219 C218 1.249 . S
O220 Zn210 2.067 . S
O220 C218 1.270 . S
C221 O214 1.262 . S
C221 O222 1.232 . S
O222 C221 1.232 . S
C223 O215 1.260 . S
C223 O216 1.257 . S
Zn224 O227 2.031 . S
Zn224 O229 2.049 . S
Zn224 O234 2.067 . S
Zn225 O226 1.962 . S
Zn225 O228 1.931 1_545 S
Zn225 O230 1.996 . S
Zn225 O233 1.943 . S
O226 Zn225 1.962 . S
O226 C231 1.254 . S
O227 Zn224 2.031 . S
O227 C231 1.269 . S
O228 Zn225 1.931 1_565 S
O228 C235 1.310 . S
O229 Zn224 2.049 . S
O229 C237 1.260 . S
O230 Zn225 1.996 . S
O230 C237 1.257 . S
C231 O226 1.254 . S
C231 O227 1.269 . S
C232 O233 1.249 . S
C232 O234 1.270 . S
O233 Zn225 1.943 . S
O233 C232 1.249 . S
O234 Zn224 2.067 . S
O234 C232 1.270 . S
C235 O228 1.310 . S
C235 O236 1.232 . S
O236 C235 1.232 . S
C237 O229 1.260 . S
C237 O230 1.257 . S
Zn238 O241 2.031 . S
Zn238 O243 2.049 . S
Zn238 O248 2.067 . S
Zn239 O240 1.962 1_655 S
Zn239 O242 1.986 . S
Zn239 O244 1.996 . S
Zn239 O247 1.943 . S
O240 Zn239 1.962 1_455 S
O240 C245 1.254 . S
O241 Zn238 2.031 . S
O241 C245 1.269 1_655 S
O242 Zn239 1.986 . S
O242 C249 1.262 . S
O243 Zn238 2.049 . S
O243 C251 1.260 . S
O244 Zn239 1.996 . S
O244 C251 1.257 . S
C245 O240 1.254 . S
C245 O241 1.269 1_455 S
C246 O247 1.249 . S
C246 O248 1.270 . S
O247 Zn239 1.943 . S
O247 C246 1.249 . S
O248 Zn238 2.067 . S
O248 C246 1.270 . S
C249 O242 1.262 . S
C249 O250 1.232 . S
O250 C249 1.232 . S
C251 O243 1.260 . S
C251 O244 1.257 . S
H252 C260 0.930 . S
H253 C263 0.930 . S
H254 C265 0.930 . S
H255 C266 0.970 . S
H256 C266 0.970 . S
H257 C268 0.930 . S
H258 C270 0.930 . S
H259 C272 0.930 . S
C260 H252 0.930 . S
C260 C261 1.382 . S
C260 C262 1.426 . S
C261 C260 1.382 . S
C261 C265 1.389 . S
C262 C260 1.426 . S
C262 C263 1.375 . S
C262 C266 1.532 . S
C263 H253 0.930 . S
C263 C262 1.375 . S
C263 C264 1.416 . S
C264 C263 1.416 . S
C264 C265 1.371 . S
C265 H254 0.930 . S
C265 C261 1.389 . S
C265 C264 1.371 . S
C266 H255 0.970 . S
C266 H256 0.970 . S
C266 C262 1.532 . S
C266 C267 1.499 . S
C267 C266 1.499 . S
C267 C268 1.370 . S
C267 C272 1.415 . S
C268 H257 0.930 . S
C268 C267 1.370 . S
C268 C269 1.407 . S
C269 C268 1.407 . S
C269 C270 1.365 . S
C270 H258 0.930 . S
C270 C269 1.365 . S
C270 C271 1.393 . S
C271 C270 1.393 . S
C271 C272 1.387 . S
C272 H259 0.930 . S
C272 C267 1.415 . S
C272 C271 1.387 . S
H273 C281 0.930 . S
H274 C284 0.930 . S
H275 C286 0.930 . S
H276 C287 0.970 . S
H277 C287 0.970 . S
H278 C289 0.930 . S
H279 C291 0.930 . S
H280 C293 0.930 . S
C281 H273 0.930 . S
C281 C282 1.382 . S
C281 C283 1.426 . S
C282 C281 1.382 . S
C282 C286 1.389 . S
C283 C281 1.426 . S
C283 C284 1.375 . S
C283 C287 1.532 . S
C284 H274 0.930 . S
C284 C283 1.375 . S
C284 C285 1.416 . S
C285 C284 1.416 . S
C285 C286 1.371 . S
C286 H275 0.930 . S
C286 C282 1.389 . S
C286 C285 1.371 . S
C287 H276 0.970 . S
C287 H277 0.970 . S
C287 C283 1.532 . S
C287 C288 1.499 . S
C288 C287 1.499 . S
C288 C289 1.370 . S
C288 C293 1.415 . S
C289 H278 0.930 . S
C289 C288 1.370 . S
C289 C290 1.407 . S
C290 C289 1.407 . S
C290 C291 1.365 . S
C291 H279 0.930 . S
C291 C290 1.365 . S
C291 C292 1.393 . S
C292 C291 1.393 . S
C292 C293 1.387 . S
C293 H280 0.930 . S
C293 C288 1.415 . S
C293 C292 1.387 . S
H294 C302 0.930 . S
H295 C305 0.930 . S
H296 C307 0.930 . S
H297 C308 0.970 . S
H298 C308 0.970 . S
H299 C310 0.930 . S
H300 C312 0.930 . S
H301 C314 0.930 . S
C302 H294 0.930 . S
C302 C303 1.382 . S
C302 C304 1.426 . S
C303 C302 1.382 . S
C303 C307 1.389 . S
C304 C302 1.426 . S
C304 C305 1.375 . S
C304 C308 1.532 . S
C305 H295 0.930 . S
C305 C304 1.375 . S
C305 C306 1.416 . S
C306 C305 1.416 . S
C306 C307 1.371 . S
C307 H296 0.930 . S
C307 C303 1.389 . S
C307 C306 1.371 . S
C308 H297 0.970 . S
C308 H298 0.970 . S
C308 C304 1.532 . S
C308 C309 1.499 . S
C309 C308 1.499 . S
C309 C310 1.370 . S
C309 C314 1.415 . S
C310 H299 0.930 . S
C310 C309 1.370 . S
C310 C311 1.407 . S
C311 C310 1.407 . S
C311 C312 1.365 . S
C312 H300 0.930 . S
C312 C311 1.365 . S
C312 C313 1.393 . S
C313 C312 1.393 . S
C313 C314 1.387 . S
C314 H301 0.930 . S
C314 C309 1.415 . S
C314 C313 1.387 . S
H315 C323 0.930 . S
H316 C326 0.930 . S
H317 C328 0.930 . S
H318 C329 0.970 . S
H319 C329 0.970 . S
H320 C331 0.930 . S
H321 C333 0.930 . S
H322 C335 0.930 . S
C323 H315 0.930 . S
C323 C324 1.382 . S
C323 C325 1.426 . S
C324 C323 1.382 . S
C324 C328 1.389 . S
C325 C323 1.426 . S
C325 C326 1.375 . S
C325 C329 1.532 . S
C326 H316 0.930 . S
C326 C325 1.375 . S
C326 C327 1.416 . S
C327 C326 1.416 . S
C327 C328 1.371 . S
C328 H317 0.930 . S
C328 C324 1.389 . S
C328 C327 1.371 . S
C329 H318 0.970 . S
C329 H319 0.970 . S
C329 C325 1.532 . S
C329 C330 1.499 . S
C330 C329 1.499 . S
C330 C331 1.370 . S
C330 C335 1.415 . S
C331 H320 0.930 . S
C331 C330 1.370 . S
C331 C332 1.407 . S
C332 C331 1.407 . S
C332 C333 1.365 . S
C333 H321 0.930 . S
C333 C332 1.365 . S
C333 C334 1.393 . S
C334 C333 1.393 . S
C334 C335 1.387 . S
C335 H322 0.930 . S
C335 C330 1.415 . S
C335 C334 1.387 . S
H336 C344 0.930 . S
H337 C347 0.930 . S
H338 C349 0.930 . S
H339 C350 0.970 . S
H340 C350 0.970 . S
H341 C352 0.930 . S
H342 C354 0.930 . S
H343 C356 0.930 . S
C344 H336 0.930 . S
C344 C345 1.382 . S
C344 C346 1.426 . S
C345 C344 1.382 . S
C345 C349 1.389 . S
C346 C344 1.426 . S
C346 C347 1.375 . S
C346 C350 1.532 . S
C347 H337 0.930 . S
C347 C346 1.375 . S
C347 C348 1.416 . S
C348 C347 1.416 . S
C348 C349 1.371 . S
C349 H338 0.930 . S
C349 C345 1.389 . S
C349 C348 1.371 . S
C350 H339 0.970 . S
C350 H340 0.970 . S
C350 C346 1.532 . S
C350 C351 1.499 . S
C351 C350 1.499 . S
C351 C352 1.370 . S
C351 C356 1.415 . S
C352 H341 0.930 . S
C352 C351 1.370 . S
C352 C353 1.407 . S
C353 C352 1.407 . S
C353 C354 1.365 . S
C354 H342 0.930 . S
C354 C353 1.365 . S
C354 C355 1.393 . S
C355 C354 1.393 . S
C355 C356 1.387 . S
C356 H343 0.930 . S
C356 C351 1.415 . S
C356 C355 1.387 . S
H357 C365 0.930 . S
H358 C368 0.930 . S
H359 C370 0.930 . S
H360 C371 0.970 . S
H361 C371 0.970 . S
H362 C373 0.930 . S
H363 C375 0.930 . S
H364 C377 0.930 . S
C365 H357 0.930 . S
C365 C366 1.382 . S
C365 C367 1.426 . S
C366 C365 1.382 . S
C366 C370 1.389 . S
C367 C365 1.426 . S
C367 C368 1.375 . S
C367 C371 1.532 . S
C368 H358 0.930 . S
C368 C367 1.375 . S
C368 C369 1.416 . S
C369 C368 1.416 . S
C369 C370 1.371 . S
C370 H359 0.930 . S
C370 C366 1.389 . S
C370 C369 1.371 . S
C371 H360 0.970 . S
C371 H361 0.970 . S
C371 C367 1.532 . S
C371 C372 1.499 . S
C372 C371 1.499 . S
C372 C373 1.370 . S
C372 C377 1.415 . S
C373 H362 0.930 . S
C373 C372 1.370 . S
C373 C374 1.407 . S
C374 C373 1.407 . S
C374 C375 1.365 . S
C375 H363 0.930 . S
C375 C374 1.365 . S
C375 C376 1.393 . S
C376 C375 1.393 . S
C376 C377 1.387 . S
C377 H364 0.930 . S
C377 C372 1.415 . S
C377 C376 1.387 . S
H378 C386 0.930 . S
H379 C389 0.930 . S
H380 C391 0.930 . S
H381 C392 0.970 . S
H382 C392 0.970 . S
H383 C394 0.930 . S
H384 C396 0.930 . S
H385 C398 0.930 . S
C386 H378 0.930 . S
C386 C387 1.382 . S
C386 C388 1.426 . S
C387 C386 1.382 . S
C387 C391 1.389 . S
C388 C386 1.426 . S
C388 C389 1.375 . S
C388 C392 1.532 . S
C389 H379 0.930 . S
C389 C388 1.375 . S
C389 C390 1.416 . S
C390 C389 1.416 . S
C390 C391 1.371 . S
C391 H380 0.930 . S
C391 C387 1.389 . S
C391 C390 1.371 . S
C392 H381 0.970 . S
C392 H382 0.970 . S
C392 C388 1.532 . S
C392 C393 1.499 . S
C393 C392 1.499 . S
C393 C394 1.370 . S
C393 C398 1.415 . S
C394 H383 0.930 . S
C394 C393 1.370 . S
C394 C395 1.407 . S
C395 C394 1.407 . S
C395 C396 1.365 . S
C396 H384 0.930 . S
C396 C395 1.365 . S
C396 C397 1.393 . S
C397 C396 1.393 . S
C397 C398 1.387 . S
C398 H385 0.930 . S
C398 C393 1.415 . S
C398 C397 1.387 . S
H399 C407 0.930 . S
H400 C410 0.930 . S
H401 C412 0.930 . S
H402 C413 0.970 . S
H403 C413 0.970 . S
H404 C415 0.930 . S
H405 C417 0.930 . S
H406 C419 0.930 . S
C407 H399 0.930 . S
C407 C408 1.382 . S
C407 C409 1.426 . S
C408 C407 1.382 . S
C408 C412 1.389 . S
C409 C407 1.426 . S
C409 C410 1.375 . S
C409 C413 1.532 . S
C410 H400 0.930 . S
C410 C409 1.375 . S
C410 C411 1.416 . S
C411 C410 1.416 . S
C411 C412 1.371 . S
C412 H401 0.930 . S
C412 C408 1.389 . S
C412 C411 1.371 . S
C413 H402 0.970 . S
C413 H403 0.970 . S
C413 C409 1.532 . S
C413 C414 1.499 . S
C414 C413 1.499 . S
C414 C415 1.370 . S
C414 C419 1.415 . S
C415 H404 0.930 . S
C415 C414 1.370 . S
C415 C416 1.407 . S
C416 C415 1.407 . S
C416 C417 1.365 . S
C417 H405 0.930 . S
C417 C416 1.365 . S
C417 C418 1.393 . S
C418 C417 1.393 . S
C418 C419 1.387 . S
C419 H406 0.930 . S
C419 C414 1.415 . S
C419 C418 1.387 . S
H420 C428 0.930 . S
H421 C431 0.930 . S
H422 C433 0.930 . S
H423 C434 0.970 . S
H424 C434 0.970 . S
H425 C436 0.930 . S
H426 C438 0.930 . S
H427 C440 0.930 . S
C428 H420 0.930 . S
C428 C429 1.382 . S
C428 C430 1.426 . S
C429 C428 1.382 . S
C429 C433 1.389 . S
C430 C428 1.426 . S
C430 C431 1.375 . S
C430 C434 1.532 . S
C431 H421 0.930 . S
C431 C430 1.375 . S
C431 C432 1.416 . S
C432 C431 1.416 . S
C432 C433 1.371 . S
C433 H422 0.930 . S
C433 C429 1.389 . S
C433 C432 1.371 . S
C434 H423 0.970 . S
C434 H424 0.970 . S
C434 C430 1.532 . S
C434 C435 1.499 . S
C435 C434 1.499 . S
C435 C436 1.370 . S
C435 C440 1.415 . S
C436 H425 0.930 . S
C436 C435 1.370 . S
C436 C437 1.407 . S
C437 C436 1.407 . S
C437 C438 1.365 . S
C438 H426 0.930 . S
C438 C437 1.365 . S
C438 C439 1.393 . S
C439 C438 1.393 . S
C439 C440 1.387 . S
C440 H427 0.930 . S
C440 C435 1.415 . S
C440 C439 1.387 . S
H441 C449 0.930 . S
H442 C452 0.930 . S
H443 C454 0.930 . S
H444 C455 0.970 . S
H445 C455 0.970 . S
H446 C457 0.930 . S
H447 C459 0.930 . S
H448 C461 0.930 . S
C449 H441 0.930 . S
C449 C450 1.382 . S
C449 C451 1.426 . S
C450 C449 1.382 . S
C450 C454 1.389 1_455 S
C451 C449 1.426 . S
C451 C452 1.375 . S
C451 C455 1.532 . S
C452 H442 0.930 . S
C452 C451 1.375 . S
C452 C453 1.416 . S
C453 C452 1.416 . S
C453 C454 1.371 1_455 S
C454 H443 0.930 . S
C454 C450 1.389 1_655 S
C454 C453 1.371 1_655 S
C455 H444 0.970 . S
C455 H445 0.970 . S
C455 C451 1.532 . S
C455 C456 1.499 . S
C456 C455 1.499 . S
C456 C457 1.370 . S
C456 C461 1.415 . S
C457 H446 0.930 . S
C457 C456 1.370 . S
C457 C458 1.410 . S
C458 C457 1.410 . S
C458 C459 1.371 1_455 S
C459 H447 0.930 . S
C459 C458 1.371 1_655 S
C459 C460 1.393 1_655 S
C460 C459 1.393 1_455 S
C460 C461 1.387 . S
C461 H448 0.930 . S
C461 C456 1.415 . S
C461 C460 1.387 . S
H462 C470 0.930 . S
H463 C473 0.930 . S
H464 C475 0.930 . S
H465 C476 0.970 . S
H466 C476 0.970 . S
H467 C478 0.930 . S
H468 C480 0.930 . S
H469 C482 0.930 . S
C470 H462 0.930 . S
C470 C471 1.382 . S
C470 C472 1.426 . S
C471 C470 1.382 . S
C471 C475 1.389 . S
C472 C470 1.426 . S
C472 C473 1.375 . S
C472 C476 1.532 . S
C473 H463 0.930 . S
C473 C472 1.375 . S
C473 C474 1.416 . S
C474 C473 1.416 . S
C474 C475 1.371 . S
C475 H464 0.930 . S
C475 C471 1.389 . S
C475 C474 1.371 . S
C476 H465 0.970 . S
C476 H466 0.970 . S
C476 C472 1.532 . S
C476 C477 1.499 . S
C477 C476 1.499 . S
C477 C478 1.370 . S
C477 C482 1.415 . S
C478 H467 0.930 . S
C478 C477 1.370 . S
C478 C479 1.407 . S
C479 C478 1.407 . S
C479 C480 1.365 . S
C480 H468 0.930 . S
C480 C479 1.365 . S
C480 C481 1.393 . S
C481 C480 1.393 . S
C481 C482 1.387 . S
C482 H469 0.930 . S
C482 C477 1.415 . S
C482 C481 1.387 . S
H483 C491 0.930 . S
H484 C494 0.930 . S
H485 C496 0.933 . S
H486 C497 0.970 . S
H487 C497 0.970 . S
H488 C499 0.930 . S
H489 C501 0.930 . S
H490 C503 0.930 . S
C491 H483 0.930 . S
C491 C492 1.382 . S
C491 C493 1.426 . S
C492 C491 1.382 . S
C492 C496 1.391 1_565 S
C493 C491 1.426 . S
C493 C494 1.375 . S
C493 C497 1.532 . S
C494 H484 0.930 . S
C494 C493 1.375 . S
C494 C495 1.416 . S
C495 C494 1.416 . S
C495 C496 1.372 1_565 S
C496 H485 0.933 . S
C496 C492 1.391 1_545 S
C496 C495 1.372 1_545 S
C497 H486 0.970 . S
C497 H487 0.970 . S
C497 C493 1.532 . S
C497 C498 1.499 . S
C498 C497 1.499 . S
C498 C499 1.370 . S
C498 C503 1.415 . S
C499 H488 0.930 . S
C499 C498 1.370 . S
C499 C500 1.401 . S
C500 C499 1.401 . S
C500 C501 1.367 1_565 S
C501 H489 0.930 . S
C501 C500 1.367 1_545 S
C501 C502 1.393 1_545 S
C502 C501 1.393 1_565 S
C502 C503 1.387 . S
C503 H490 0.930 . S
C503 C498 1.415 . S
C503 C502 1.387 . S
H504 C512 0.930 . S
H505 C515 0.930 . S
H506 C517 0.930 . S
H507 C518 0.970 . S
H508 C518 0.970 . S
H509 C520 0.930 . S
H510 C522 0.930 . S
H511 C524 0.930 . S
C512 H504 0.930 . S
C512 C513 1.382 . S
C512 C514 1.426 . S
C513 C512 1.382 . S
C513 C517 1.389 1_565 S
C514 C512 1.426 . S
C514 C515 1.375 . S
C514 C518 1.532 . S
C515 H505 0.930 . S
C515 C514 1.375 . S
C515 C516 1.454 . S
C516 C515 1.454 . S
C516 C517 1.356 1_565 S
C517 H506 0.930 . S
C517 C513 1.389 1_545 S
C517 C516 1.356 1_545 S
C518 H507 0.970 . S
C518 H508 0.970 . S
C518 C514 1.532 . S
C518 C519 1.499 . S
C519 C518 1.499 . S
C519 C520 1.370 . S
C519 C524 1.415 . S
C520 H509 0.930 . S
C520 C519 1.370 . S
C520 C521 1.407 . S
C521 C520 1.407 . S
C521 C522 1.365 1_565 S
C522 H510 0.930 . S
C522 C521 1.365 1_545 S
C522 C523 1.393 1_545 S
C523 C522 1.393 1_565 S
C523 C524 1.387 . S
C524 H511 0.930 . S
C524 C519 1.415 . S
C524 C523 1.387 . S
H525 C533 0.930 . S
H526 C536 0.930 . S
H527 C538 0.930 . S
H528 C539 0.970 . S
H529 C539 0.970 . S
H530 C541 0.930 . S
H531 C543 0.930 . S
H532 C545 0.930 . S
C533 H525 0.930 . S
C533 C534 1.382 . S
C533 C535 1.426 . S
C534 C533 1.382 . S
C534 C538 1.389 1_455 S
C535 C533 1.426 . S
C535 C536 1.375 . S
C535 C539 1.532 . S
C536 H526 0.930 . S
C536 C535 1.375 . S
C536 C537 1.416 . S
C537 C536 1.416 . S
C537 C538 1.371 1_455 S
C538 H527 0.930 . S
C538 C534 1.389 1_655 S
C538 C537 1.371 1_655 S
C539 H528 0.970 . S
C539 H529 0.970 . S
C539 C535 1.532 . S
C539 C540 1.499 . S
C540 C539 1.499 . S
C540 C541 1.370 . S
C540 C545 1.415 . S
C541 H530 0.930 . S
C541 C540 1.370 . S
C541 C542 1.407 . S
C542 C541 1.407 . S
C542 C543 1.365 1_455 S
C543 H531 0.930 . S
C543 C542 1.365 1_655 S
C543 C544 1.393 1_655 S
C544 C543 1.393 1_455 S
C544 C545 1.387 . S
C545 H532 0.930 . S
C545 C540 1.415 . S
C545 C544 1.387 . S
H546 C554 0.930 . S
H547 C557 0.930 . S
H548 C559 0.930 . S
H549 C560 0.970 . S
H550 C560 0.970 . S
H551 C562 0.930 . S
H552 C564 0.930 . S
H553 C566 0.930 . S
C554 H546 0.930 . S
C554 C555 1.382 . S
C554 C556 1.426 . S
C555 C554 1.382 . S
C555 C559 1.389 . S
C556 C554 1.426 . S
C556 C557 1.375 . S
C556 C560 1.532 . S
C557 H547 0.930 . S
C557 C556 1.375 . S
C557 C558 1.416 . S
C558 C557 1.416 . S
C558 C559 1.371 . S
C559 H548 0.930 . S
C559 C555 1.389 . S
C559 C558 1.371 . S
C560 H549 0.970 . S
C560 H550 0.970 . S
C560 C556 1.532 . S
C560 C561 1.499 . S
C561 C560 1.499 . S
C561 C562 1.370 . S
C561 C566 1.415 . S
C562 H551 0.930 . S
C562 C561 1.370 . S
C562 C563 1.407 . S
C563 C562 1.407 . S
C563 C564 1.365 . S
C564 H552 0.930 . S
C564 C563 1.365 . S
C564 C565 1.393 . S
C565 C564 1.393 . S
C565 C566 1.387 . S
C566 H553 0.930 . S
C566 C561 1.415 . S
C566 C565 1.387 . S
H567 C575 0.930 . S
H568 C578 0.930 . S
H569 C580 0.930 . S
H570 C581 0.970 . S
H571 C581 0.970 . S
H572 C583 0.930 . S
H573 C585 0.930 . S
H574 C587 0.930 . S
C575 H567 0.930 . S
C575 C576 1.382 . S
C575 C577 1.426 . S
C576 C575 1.382 . S
C576 C580 1.389 . S
C577 C575 1.426 . S
C577 C578 1.375 . S
C577 C581 1.532 . S
C578 H568 0.930 . S
C578 C577 1.375 . S
C578 C579 1.416 . S
C579 C578 1.416 . S
C579 C580 1.371 . S
C580 H569 0.930 . S
C580 C576 1.389 . S
C580 C579 1.371 . S
C581 H570 0.970 . S
C581 H571 0.970 . S
C581 C577 1.532 . S
C581 C582 1.499 . S
C582 C581 1.499 . S
C582 C583 1.370 . S
C582 C587 1.415 . S
C583 H572 0.930 . S
C583 C582 1.370 . S
C583 C584 1.407 . S
C584 C583 1.407 . S
C584 C585 1.365 . S
C585 H573 0.930 . S
C585 C584 1.365 . S
C585 C586 1.393 . S
C586 C585 1.393 . S
C586 C587 1.387 . S
C587 H574 0.930 . S
C587 C582 1.415 . S
C587 C586 1.387 . S
H588 C596 0.930 . S
H589 C599 0.930 . S
H590 C601 0.930 . S
H591 C602 0.970 . S
H592 C602 0.970 . S
H593 C604 0.930 . S
H594 C606 0.930 . S
H595 C608 0.930 . S
C596 H588 0.930 . S
C596 C597 1.382 . S
C596 C598 1.426 . S
C597 C596 1.382 . S
C597 C601 1.389 . S
C598 C596 1.426 . S
C598 C599 1.375 . S
C598 C602 1.532 . S
C599 H589 0.930 . S
C599 C598 1.375 . S
C599 C600 1.416 . S
C600 C599 1.416 . S
C600 C601 1.371 . S
C601 H590 0.930 . S
C601 C597 1.389 . S
C601 C600 1.371 . S
C602 H591 0.970 . S
C602 H592 0.970 . S
C602 C598 1.532 . S
C602 C603 1.499 . S
C603 C602 1.499 . S
C603 C604 1.370 . S
C603 C608 1.415 . S
C604 H593 0.930 . S
C604 C603 1.370 . S
C604 C605 1.407 . S
C605 C604 1.407 . S
C605 C606 1.365 . S
C606 H594 0.930 . S
C606 C605 1.365 . S
C606 C607 1.393 . S
C607 C606 1.393 . S
C607 C608 1.387 . S
C608 H595 0.930 . S
C608 C603 1.415 . S
C608 C607 1.387 . S
H609 C617 0.930 . S
H610 C620 0.930 . S
H611 C622 0.930 . S
H612 C623 0.970 . S
H613 C623 0.970 . S
H614 C625 0.930 . S
H615 C627 0.930 . S
H616 C629 0.930 . S
C617 H609 0.930 . S
C617 C618 1.382 . S
C617 C619 1.426 . S
C618 C617 1.382 . S
C618 C622 1.389 . S
C619 C617 1.426 . S
C619 C620 1.375 . S
C619 C623 1.532 . S
C620 H610 0.930 . S
C620 C619 1.375 . S
C620 C621 1.416 . S
C621 C620 1.416 . S
C621 C622 1.371 . S
C622 H611 0.930 . S
C622 C618 1.389 . S
C622 C621 1.371 . S
C623 H612 0.970 . S
C623 H613 0.970 . S
C623 C619 1.532 . S
C623 C624 1.499 . S
C624 C623 1.499 . S
C624 C625 1.370 . S
C624 C629 1.415 . S
C625 H614 0.930 . S
C625 C624 1.370 . S
C625 C626 1.407 . S
C626 C625 1.407 . S
C626 C627 1.365 . S
C627 H615 0.930 . S
C627 C626 1.365 . S
C627 C628 1.393 . S
C628 C627 1.393 . S
C628 C629 1.387 . S
C629 H616 0.930 . S
C629 C624 1.415 . S
C629 C628 1.387 . S
H630 C638 0.929 . S
H631 C640 0.930 . S
H632 C642 0.930 . S
H633 C645 0.929 . S
H634 C648 0.930 . S
H635 C650 0.960 . S
H636 C650 0.960 . S
H637 C650 0.960 . S
C638 H630 0.929 . S
C638 C639 1.377 1_455 S
C638 C640 1.384 . S
C639 C638 1.377 1_655 S
C639 C645 1.390 . S
C640 H631 0.930 . S
C640 C638 1.384 . S
C640 C641 1.372 1_455 S
C641 C640 1.372 1_655 S
C641 C642 1.400 . S
C641 C646 1.490 . S
C642 H632 0.930 . S
C642 C641 1.400 . S
C642 C645 1.386 . S
H643 C659 0.930 . S
H644 C660 0.931 . S
C645 H633 0.929 . S
C645 C639 1.390 . S
C645 C642 1.386 . S
C646 C641 1.490 . S
C646 C648 1.395 1_655 S
C646 C649 1.403 . S
H647 C653 0.930 . S
C648 H634 0.930 . S
C648 C646 1.395 1_455 S
C648 C651 1.403 . S
C649 C646 1.403 . S
C649 C650 1.524 . S
C649 C653 1.400 . S
C650 H635 0.960 . S
C650 H636 0.960 . S
C650 H637 0.960 . S
C650 C649 1.524 . S
C651 C648 1.403 . S
C651 C652 1.399 1_455 S
C651 C655 1.495 . S
C652 C651 1.399 1_655 S
C652 C653 1.382 . S
C652 C654 1.473 1_655 S
C653 H647 0.930 . S
C653 C649 1.400 . S
C653 C652 1.382 . S
C654 C652 1.473 1_455 S
C654 C656 1.379 . S
C654 C660 1.387 1_455 S
C655 C651 1.495 . S
C655 H661 0.959 . S
C655 H662 0.961 . S
C655 H663 0.960 . S
C656 C654 1.379 . S
C656 C657 1.394 . S
C656 H664 0.930 . S
C657 C656 1.394 . S
C657 C658 1.383 1_455 S
C657 H665 0.929 . S
C658 C657 1.383 1_655 S
C658 C659 1.377 . S
C659 H643 0.930 . S
C659 C658 1.377 . S
C659 C660 1.379 . S
C660 H644 0.931 . S
C660 C654 1.387 1_655 S
C660 C659 1.379 . S
H661 C655 0.959 . S
H662 C655 0.961 . S
H663 C655 0.960 . S
H664 C656 0.930 . S
H665 C657 0.929 . S
H666 C674 0.929 . S
H667 C676 0.930 . S
H668 C678 0.930 . S
H669 C681 0.929 . S
H670 C684 0.930 . S
H671 C686 0.960 . S
H672 C686 0.960 . S
H673 C686 0.960 . S
C674 H666 0.929 . S
C674 C675 1.377 . S
C674 C676 1.384 . S
C675 C674 1.377 . S
C675 C681 1.390 . S
C676 H667 0.930 . S
C676 C674 1.384 . S
C676 C677 1.372 . S
C677 C676 1.372 . S
C677 C678 1.400 . S
C677 C682 1.490 . S
C678 H668 0.930 . S
C678 C677 1.400 . S
C678 C681 1.386 . S
H679 C695 0.930 . S
H680 C696 0.931 . S
C681 H669 0.929 . S
C681 C675 1.390 . S
C681 C678 1.386 . S
C682 C677 1.490 . S
C682 C684 1.395 . S
C682 C685 1.403 . S
H683 C689 0.930 . S
C684 H670 0.930 . S
C684 C682 1.395 . S
C684 C687 1.403 . S
C685 C682 1.403 . S
C685 C686 1.524 . S
C685 C689 1.400 . S
C686 H671 0.960 . S
C686 H672 0.960 . S
C686 H673 0.960 . S
C686 C685 1.524 . S
C687 C684 1.403 . S
C687 C688 1.392 . S
C687 C691 1.495 . S
C688 C687 1.392 . S
C688 C689 1.385 . S
C688 C690 1.478 . S
C689 H683 0.930 . S
C689 C685 1.400 . S
C689 C688 1.385 . S
C690 C688 1.478 . S
C690 C692 1.381 . S
C690 C696 1.383 . S
C691 C687 1.495 . S
C691 H697 0.959 . S
C691 H698 0.961 . S
C691 H699 0.960 . S
C692 C690 1.381 . S
C692 C693 1.394 . S
C692 H700 0.930 . S
C693 C692 1.394 . S
C693 C694 1.383 . S
C693 H701 0.929 . S
C694 C693 1.383 . S
C694 C695 1.377 . S
C695 H679 0.930 . S
C695 C694 1.377 . S
C695 C696 1.379 . S
C696 H680 0.931 . S
C696 C690 1.383 . S
C696 C695 1.379 . S
H697 C691 0.959 . S
H698 C691 0.961 . S
H699 C691 0.960 . S
H700 C692 0.930 . S
H701 C693 0.929 . S
H702 C710 0.929 . S
H703 C712 0.930 . S
H704 C714 0.930 . S
H705 C717 0.929 . S
H706 C720 0.930 . S
H707 C722 0.960 . S
H708 C722 0.960 . S
H709 C722 0.960 1_545 S
C710 H702 0.929 . S
C710 C711 1.377 1_565 S
C710 C712 1.384 . S
C711 C710 1.377 1_545 S
C711 C717 1.390 . S
C712 H703 0.930 . S
C712 C710 1.384 . S
C712 C713 1.372 1_565 S
C713 C712 1.372 1_545 S
C713 C714 1.400 . S
C713 C718 1.490 . S
C714 H704 0.930 . S
C714 C713 1.400 . S
C714 C717 1.386 . S
H715 C731 0.930 . S
H716 C732 0.931 . S
C717 H705 0.929 . S
C717 C711 1.390 . S
C717 C714 1.386 . S
C718 C713 1.490 . S
C718 C720 1.395 . S
C718 C721 1.403 . S
H719 C725 0.933 . S
C720 H706 0.930 . S
C720 C718 1.395 . S
C720 C723 1.403 . S
C721 C718 1.403 . S
C721 C722 1.524 1_545 S
C721 C725 1.400 . S
C722 H707 0.960 . S
C722 H708 0.960 . S
C722 H709 0.960 1_565 S
C722 C721 1.524 1_565 S
C723 C720 1.403 . S
C723 C724 1.392 . S
C723 C727 1.495 . S
C724 C723 1.392 . S
C724 C725 1.385 . S
C724 C726 1.478 . S
C725 H719 0.933 . S
C725 C721 1.400 . S
C725 C724 1.385 . S
C726 C724 1.478 . S
C726 C728 1.381 1_545 S
C726 C732 1.383 . S
C727 C723 1.495 . S
C727 H733 0.959 . S
C727 H734 0.961 . S
C727 H735 0.960 . S
C728 C726 1.381 1_565 S
C728 C729 1.394 . S
C728 H736 0.930 . S
C729 C728 1.394 . S
C729 C730 1.383 1_565 S
C729 H737 0.929 . S
C730 C729 1.383 1_545 S
C730 C731 1.377 . S
C731 H715 0.930 . S
C731 C730 1.377 . S
C731 C732 1.379 . S
C732 H716 0.931 . S
C732 C726 1.383 . S
C732 C731 1.379 . S
H733 C727 0.959 . S
H734 C727 0.961 . S
H735 C727 0.960 . S
H736 C728 0.930 . S
H737 C729 0.929 . S
H738 C746 0.929 . S
H739 C748 0.930 . S
H740 C750 0.930 . S
H741 C753 0.929 . S
H742 C756 0.930 . S
H743 C758 0.960 . S
H744 C758 0.960 . S
H745 C758 0.960 . S
C746 H738 0.929 . S
C746 C747 1.377 1_545 S
C746 C748 1.384 . S
C747 C746 1.377 1_565 S
C747 C753 1.390 . S
C748 H739 0.930 . S
C748 C746 1.384 . S
C748 C749 1.309 1_545 S
C749 C748 1.309 1_565 S
C749 C750 1.435 . S
C749 C754 1.492 . S
C750 H740 0.930 . S
C750 C749 1.435 . S
C750 C753 1.386 . S
H751 C767 0.930 . S
H752 C768 0.931 . S
C753 H741 0.929 . S
C753 C747 1.390 . S
C753 C750 1.386 . S
C754 C749 1.492 . S
C754 C756 1.410 1_565 S
C754 C757 1.418 . S
H755 C761 0.930 . S
C756 H742 0.930 . S
C756 C754 1.410 1_545 S
C756 C759 1.403 . S
C757 C754 1.418 . S
C757 C758 1.524 . S
C757 C761 1.400 . S
C758 H743 0.960 . S
C758 H744 0.960 . S
C758 H745 0.960 . S
C758 C757 1.524 . S
C759 C756 1.403 . S
C759 C760 1.382 1_545 S
C759 C763 1.495 . S
C760 C759 1.382 1_565 S
C760 C761 1.375 . S
C760 C762 1.501 . S
C761 H755 0.930 . S
C761 C757 1.400 . S
C761 C760 1.375 . S
C762 C760 1.501 . S
C762 C764 1.381 1_565 S
C762 C768 1.383 . S
C763 C759 1.495 . S
C763 H769 0.959 . S
C763 H770 1.026 . S
C763 H771 0.960 . S
C764 C762 1.381 1_545 S
C764 C765 1.394 . S
C764 H772 0.930 . S
C765 C764 1.394 . S
C765 C766 1.383 1_545 S
C765 H773 0.929 . S
C766 C765 1.383 1_565 S
C766 C767 1.377 . S
C767 H751 0.930 . S
C767 C766 1.377 . S
C767 C768 1.379 . S
C768 H752 0.931 . S
C768 C762 1.383 . S
C768 C767 1.379 . S
H769 C763 0.959 . S
H770 C763 1.026 . S
H771 C763 0.960 . S
H772 C764 0.930 . S
H773 C765 0.929 . S
H774 C782 0.929 . S
H775 C784 0.930 . S
H776 C786 0.930 . S
H777 C789 0.929 . S
H778 C792 0.930 . S
H779 C794 0.960 . S
H780 C794 0.960 . S
H781 C794 0.960 . S
C782 H774 0.929 . S
C782 C783 1.377 1_655 S
C782 C784 1.384 . S
C783 C782 1.377 1_455 S
C783 C789 1.390 . S
C784 H775 0.930 . S
C784 C782 1.384 . S
C784 C785 1.372 1_655 S
C785 C784 1.372 1_455 S
C785 C786 1.400 . S
C785 C790 1.490 . S
C786 H776 0.930 . S
C786 C785 1.400 . S
C786 C789 1.386 . S
H787 C803 0.930 . S
H788 C804 0.931 . S
C789 H777 0.929 . S
C789 C783 1.390 . S
C789 C786 1.386 . S
C790 C785 1.490 . S
C790 C792 1.395 1_455 S
C790 C793 1.403 . S
H791 C797 0.930 . S
C792 H778 0.930 . S
C792 C790 1.395 1_655 S
C792 C795 1.403 . S
C793 C790 1.403 . S
C793 C794 1.524 . S
C793 C797 1.400 . S
C794 H779 0.960 . S
C794 H780 0.960 . S
C794 H781 0.960 . S
C794 C793 1.524 . S
C795 C792 1.403 . S
C795 C796 1.392 1_655 S
C795 C799 1.495 . S
C796 C795 1.392 1_455 S
C796 C797 1.385 . S
C796 C798 1.478 . S
C797 H791 0.930 . S
C797 C793 1.400 . S
C797 C796 1.385 . S
C798 C796 1.478 . S
C798 C800 1.381 1_455 S
C798 C804 1.383 . S
C799 C795 1.495 . S
C799 H805 0.959 . S
C799 H806 0.961 . S
C799 H807 0.960 . S
C800 C798 1.381 1_655 S
C800 C801 1.394 . S
C800 H808 0.930 . S
C801 C800 1.394 . S
C801 C802 1.383 1_655 S
C801 H809 0.929 . S
C802 C801 1.383 1_455 S
C802 C803 1.377 . S
C803 H787 0.930 . S
C803 C802 1.377 . S
C803 C804 1.379 . S
C804 H788 0.931 . S
C804 C798 1.383 . S
C804 C803 1.379 . S
H805 C799 0.959 . S
H806 C799 0.961 . S
H807 C799 0.960 . S
H808 C800 0.930 . S
H809 C801 0.929 . S
H810 C818 0.929 . S
H811 C820 0.930 . S
H812 C822 0.930 . S
H813 C825 0.929 . S
H814 C828 0.930 . S
H815 C830 0.960 . S
H816 C830 0.960 . S
H817 C830 0.960 . S
C818 H810 0.929 . S
C818 C819 1.377 . S
C818 C820 1.384 . S
C819 C818 1.377 . S
C819 C825 1.390 . S
C820 H811 0.930 . S
C820 C818 1.384 . S
C820 C821 1.372 . S
C821 C820 1.372 . S
C821 C822 1.400 . S
C821 C826 1.490 . S
C822 H812 0.930 . S
C822 C821 1.400 . S
C822 C825 1.386 . S
H823 C839 0.930 . S
H824 C840 0.931 . S
C825 H813 0.929 . S
C825 C819 1.390 . S
C825 C822 1.386 . S
C826 C821 1.490 . S
C826 C828 1.395 . S
C826 C829 1.403 . S
H827 C833 0.930 . S
C828 H814 0.930 . S
C828 C826 1.395 . S
C828 C831 1.403 . S
C829 C826 1.403 . S
C829 C830 1.524 . S
C829 C833 1.400 . S
C830 H815 0.960 . S
C830 H816 0.960 . S
C830 H817 0.960 . S
C830 C829 1.524 . S
C831 C828 1.403 . S
C831 C832 1.392 . S
C831 C835 1.495 . S
C832 C831 1.392 . S
C832 C833 1.385 . S
C832 C834 1.478 . S
C833 H827 0.930 . S
C833 C829 1.400 . S
C833 C832 1.385 . S
C834 C832 1.478 . S
C834 C836 1.381 . S
C834 C840 1.383 . S
C835 C831 1.495 . S
C835 H841 0.959 . S
C835 H842 0.961 . S
C835 H843 0.960 . S
C836 C834 1.381 . S
C836 C837 1.394 . S
C836 H844 0.930 . S
C837 C836 1.394 . S
C837 C838 1.383 . S
C837 H845 0.929 . S
C838 C837 1.383 . S
C838 C839 1.377 . S
C839 H823 0.930 . S
C839 C838 1.377 . S
C839 C840 1.379 . S
C840 H824 0.931 . S
C840 C834 1.383 . S
C840 C839 1.379 . S
H841 C835 0.959 . S
H842 C835 0.961 . S
H843 C835 0.960 . S
H844 C836 0.930 . S
H845 C837 0.929 . S
H846 C854 0.929 . S
H847 C856 0.930 . S
H848 C858 0.930 . S
H849 C861 0.929 . S
H850 C864 0.930 . S
H851 C866 0.960 . S
H852 C866 0.960 . S
H853 C866 0.960 . S
C854 H846 0.929 . S
C854 C855 1.377 . S
C854 C856 1.384 . S
C855 C854 1.377 . S
C855 C861 1.390 . S
C856 H847 0.930 . S
C856 C854 1.384 . S
C856 C857 1.372 . S
C857 C856 1.372 . S
C857 C858 1.400 . S
C857 C862 1.490 . S
C858 H848 0.930 . S
C858 C857 1.400 . S
C858 C861 1.386 . S
H859 C875 0.930 . S
H860 C876 0.931 . S
C861 H849 0.929 . S
C861 C855 1.390 . S
C861 C858 1.386 . S
C862 C857 1.490 . S
C862 C864 1.395 1_455 S
C862 C865 1.403 . S
H863 C869 0.930 . S
C864 H850 0.930 . S
C864 C862 1.395 1_655 S
C864 C867 1.403 . S
C865 C862 1.403 . S
C865 C866 1.524 . S
C865 C869 1.400 . S
C866 H851 0.960 . S
C866 H852 0.960 . S
C866 H853 0.960 . S
C866 C865 1.524 . S
C867 C864 1.403 . S
C867 C868 1.384 1_655 S
C867 C871 1.495 . S
C868 C867 1.384 1_455 S
C868 C869 1.389 . S
C868 C870 1.505 1_455 S
C869 H863 0.930 . S
C869 C865 1.400 . S
C869 C868 1.389 . S
C870 C868 1.505 1_655 S
C870 C872 1.348 1_655 S
C870 C876 1.393 . S
C871 C867 1.495 . S
C871 H877 0.959 . S
C871 H878 0.961 . S
C871 H879 0.960 . S
C872 C870 1.348 1_455 S
C872 C873 1.394 . S
C872 H880 0.930 . S
C873 C872 1.394 . S
C873 C874 1.382 1_455 S
C873 H881 0.929 . S
C874 C873 1.382 1_655 S
C874 C875 1.382 . S
C875 H859 0.930 . S
C875 C874 1.382 . S
C875 C876 1.379 . S
C876 H860 0.931 . S
C876 C870 1.393 . S
C876 C875 1.379 . S
H877 C871 0.959 . S
H878 C871 0.961 . S
H879 C871 0.960 . S
H880 C872 0.930 . S
H881 C873 0.929 . S
H882 C890 0.929 . S
H883 C892 0.930 . S
H884 C894 0.930 . S
H885 C897 0.929 . S
H886 C900 0.930 . S
H887 C902 0.960 . S
H888 C902 0.960 . S
H889 C902 0.960 . S
C890 H882 0.929 . S
C890 C891 1.377 . S
C890 C892 1.384 . S
C891 C890 1.377 . S
C891 C897 1.390 . S
C892 H883 0.930 . S
C892 C890 1.384 . S
C892 C893 1.372 . S
C893 C892 1.372 . S
C893 C894 1.400 . S
C893 C898 1.490 . S
C894 H884 0.930 . S
C894 C893 1.400 . S
C894 C897 1.386 . S
H895 C911 0.930 . S
H896 C912 0.931 . S
C897 H885 0.929 . S
C897 C891 1.390 . S
C897 C894 1.386 . S
C898 C893 1.490 . S
C898 C900 1.395 . S
C898 C901 1.403 . S
H899 C905 0.930 . S
C900 H886 0.930 . S
C900 C898 1.395 . S
C900 C903 1.403 . S
C901 C898 1.403 . S
C901 C902 1.524 . S
C901 C905 1.400 . S
C902 H887 0.960 . S
C902 H888 0.960 . S
C902 H889 0.960 . S
C902 C901 1.524 . S
C903 C900 1.403 . S
C903 C904 1.392 . S
C903 C907 1.495 . S
C904 C903 1.392 . S
C904 C905 1.385 . S
C904 C906 1.478 . S
C905 H899 0.930 . S
C905 C901 1.400 . S
C905 C904 1.385 . S
C906 C904 1.478 . S
C906 C908 1.381 . S
C906 C912 1.383 . S
C907 C903 1.495 . S
C907 H913 0.959 . S
C907 H914 0.961 . S
C907 H915 0.960 . S
C908 C906 1.381 . S
C908 C909 1.394 . S
C908 H916 0.930 . S
C909 C908 1.394 . S
C909 C910 1.383 . S
C909 H917 0.929 . S
C910 C909 1.383 . S
C910 C911 1.377 . S
C911 H895 0.930 . S
C911 C910 1.377 . S
C911 C912 1.379 . S
C912 H896 0.931 . S
C912 C906 1.383 . S
C912 C911 1.379 . S
H913 C907 0.959 . S
H914 C907 0.961 . S
H915 C907 0.960 . S
H916 C908 0.930 . S
H917 C909 0.929 . S
H918 C926 0.929 . S
H919 C928 0.930 . S
H920 C930 0.930 . S
H921 C933 0.929 . S
H922 C936 0.930 . S
H923 C938 0.960 . S
H924 C938 0.960 . S
H925 C938 0.960 . S
C926 H918 0.929 . S
C926 C927 1.377 1_545 S
C926 C928 1.384 . S
C927 C926 1.377 1_565 S
C927 C933 1.390 . S
C928 H919 0.930 . S
C928 C926 1.384 . S
C928 C929 1.372 1_545 S
C929 C928 1.372 1_565 S
C929 C930 1.400 . S
C929 C934 1.490 . S
C930 H920 0.930 . S
C930 C929 1.400 . S
C930 C933 1.386 . S
H931 C947 0.930 . S
H932 C948 0.931 . S
C933 H921 0.929 . S
C933 C927 1.390 . S
C933 C930 1.386 . S
C934 C929 1.490 . S
C934 C936 1.395 . S
C934 C937 1.403 1_565 S
H935 C941 0.930 . S
C936 H922 0.930 . S
C936 C934 1.395 . S
C936 C939 1.403 . S
C937 C934 1.403 1_545 S
C937 C938 1.524 . S
C937 C941 1.400 . S
C938 H923 0.960 . S
C938 H924 0.960 . S
C938 H925 0.960 . S
C938 C937 1.524 . S
C939 C936 1.403 . S
C939 C940 1.392 . S
C939 C943 1.495 . S
C940 C939 1.392 . S
C940 C941 1.385 1_565 S
C940 C942 1.478 . S
C941 H935 0.930 . S
C941 C937 1.400 . S
C941 C940 1.385 1_545 S
C942 C940 1.478 . S
C942 C944 1.381 1_565 S
C942 C948 1.383 . S
C943 C939 1.495 . S
C943 H949 0.959 . S
C943 H950 0.961 . S
C943 H951 0.960 . S
C944 C942 1.381 1_545 S
C944 C945 1.394 . S
C944 H952 0.930 . S
C945 C944 1.394 . S
C945 C946 1.383 1_545 S
C945 H953 0.929 . S
C946 C945 1.383 1_565 S
C946 C947 1.377 . S
C947 H931 0.930 . S
C947 C946 1.377 . S
C947 C948 1.379 . S
C948 H932 0.931 . S
C948 C942 1.383 . S
C948 C947 1.379 . S
H949 C943 0.959 . S
H950 C943 0.961 . S
H951 C943 0.960 . S
H952 C944 0.930 . S
H953 C945 0.929 . S
H954 C962 0.929 . S
H955 C964 0.930 . S
H956 C966 0.930 . S
H957 C969 0.929 . S
H958 C972 0.930 . S
H959 C974 0.960 . S
H960 C974 0.960 . S
H961 C974 0.960 . S
C962 H954 0.929 . S
C962 C963 1.377 . S
C962 C964 1.384 . S
C963 C962 1.377 . S
C963 C969 1.390 1_545 S
C964 H955 0.930 . S
C964 C962 1.384 . S
C964 C965 1.372 . S
C965 C964 1.372 . S
C965 C966 1.400 1_545 S
C965 C970 1.490 . S
C966 H956 0.930 . S
C966 C965 1.400 1_565 S
C966 C969 1.386 . S
H967 C983 0.930 . S
H968 C984 0.931 . S
C969 H957 0.929 . S
C969 C963 1.390 1_565 S
C969 C966 1.386 . S
C970 C965 1.490 . S
C970 C972 1.395 . S
C970 C973 1.403 1_545 S
H971 C977 0.930 . S
C972 H958 0.930 . S
C972 C970 1.395 . S
C972 C975 1.403 . S
C973 C970 1.403 1_565 S
C973 C974 1.524 . S
C973 C977 1.400 . S
C974 H959 0.960 . S
C974 H960 0.960 . S
C974 H961 0.960 . S
C974 C973 1.524 . S
C975 C972 1.403 . S
C975 C976 1.392 . S
C975 C979 1.495 . S
C976 C975 1.392 . S
C976 C977 1.385 1_545 S
C976 C978 1.478 . S
C977 H971 0.930 . S
C977 C973 1.400 . S
C977 C976 1.385 1_565 S
C978 C976 1.478 . S
C978 C980 1.381 . S
C978 C984 1.383 1_545 S
C979 C975 1.495 . S
C979 H985 0.959 . S
C979 H986 0.961 . S
C979 H987 0.960 . S
C980 C978 1.381 . S
C980 C981 1.394 . S
C980 H988 0.930 . S
C981 C980 1.394 . S
C981 C982 1.383 . S
C981 H989 0.929 . S
C982 C981 1.383 . S
C982 C983 1.377 1_545 S
C983 H967 0.930 . S
C983 C982 1.377 1_565 S
C983 C984 1.379 . S
C984 H968 0.931 . S
C984 C978 1.383 1_565 S
C984 C983 1.379 . S
H985 C979 0.959 . S
H986 C979 0.961 . S
H987 C979 0.960 . S
H988 C980 0.930 . S
H989 C981 0.929 . S
H990 C998 0.929 . S
H991 C1000 0.930 . S
H992 C1002 0.930 . S
H993 C1005 0.929 . S
H994 C1008 0.930 . S
H995 C1010 0.960 . S
H996 C1010 0.960 . S
H997 C1010 0.960 . S
C998 H990 0.929 . S
C998 C999 1.377 . S
C998 C1000 1.384 . S
C999 C998 1.377 . S
C999 C1005 1.390 1_655 S
C1000 H991 0.930 . S
C1000 C998 1.384 . S
C1000 C1001 1.372 . S
C1001 C1000 1.372 . S
C1001 C1002 1.400 1_655 S
C1001 C1006 1.490 . S
C1002 H992 0.930 . S
C1002 C1001 1.400 1_455 S
C1002 C1005 1.386 . S
H1003 C1019 0.930 . S
H1004 C1020 0.931 . S
C1005 H993 0.929 . S
C1005 C999 1.390 1_455 S
C1005 C1002 1.386 . S
C1006 C1001 1.490 . S
C1006 C1008 1.395 1_655 S
C1006 C1009 1.403 . S
H1007 C1013 0.930 . S
C1008 H994 0.930 . S
C1008 C1006 1.395 1_455 S
C1008 C1011 1.403 . S
C1009 C1006 1.403 . S
C1009 C1010 1.524 . S
C1009 C1013 1.400 . S
C1010 H995 0.960 . S
C1010 H996 0.960 . S
C1010 H997 0.960 . S
C1010 C1009 1.524 . S
C1011 C1008 1.403 . S
C1011 C1012 1.392 1_455 S
C1011 C1015 1.495 . S
C1012 C1011 1.392 1_655 S
C1012 C1013 1.385 . S
C1012 C1014 1.494 . S
C1013 H1007 0.930 . S
C1013 C1009 1.400 . S
C1013 C1012 1.385 . S
C1014 C1012 1.494 . S
C1014 C1016 1.386 . S
C1014 C1020 1.364 1_655 S
C1015 C1011 1.495 . S
C1015 H1021 0.959 . S
C1015 H1022 0.961 . S
C1015 H1023 0.960 . S
C1016 C1014 1.386 . S
C1016 C1017 1.394 . S
C1016 H1024 0.930 . S
C1017 C1016 1.394 . S
C1017 C1018 1.400 . S
C1017 H1025 0.929 . S
C1018 C1017 1.400 . S
C1018 C1019 1.373 1_655 S
C1019 H1003 0.930 . S
C1019 C1018 1.373 1_455 S
C1019 C1020 1.379 . S
C1020 H1004 0.931 . S
C1020 C1014 1.364 1_455 S
C1020 C1019 1.379 . S
H1021 C1015 0.959 . S
H1022 C1015 0.961 . S
H1023 C1015 0.960 . S
H1024 C1016 0.930 . S
H1025 C1017 0.929 . S
H1026 C1034 0.929 . S
H1027 C1036 0.930 . S
H1028 C1038 0.930 . S
H1029 C1041 0.929 . S
H1030 C1044 0.930 . S
H1031 C1046 0.960 . S
H1032 C1046 0.960 . S
H1033 C1046 0.960 . S
C1034 H1026 0.929 . S
C1034 C1035 1.377 . S
C1034 C1036 1.384 . S
C1035 C1034 1.377 . S
C1035 C1041 1.390 . S
C1036 H1027 0.930 . S
C1036 C1034 1.384 . S
C1036 C1037 1.372 . S
C1037 C1036 1.372 . S
C1037 C1038 1.400 . S
C1037 C1042 1.490 . S
C1038 H1028 0.930 . S
C1038 C1037 1.400 . S
C1038 C1041 1.386 . S
H1039 C1055 0.930 . S
H1040 C1056 0.931 . S
C1041 H1029 0.929 . S
C1041 C1035 1.390 . S
C1041 C1038 1.386 . S
C1042 C1037 1.490 . S
C1042 C1044 1.395 . S
C1042 C1045 1.403 . S
H1043 C1049 0.930 . S
C1044 H1030 0.930 . S
C1044 C1042 1.395 . S
C1044 C1047 1.403 . S
C1045 C1042 1.403 . S
C1045 C1046 1.524 . S
C1045 C1049 1.400 . S
C1046 H1031 0.960 . S
C1046 H1032 0.960 . S
C1046 H1033 0.960 . S
C1046 C1045 1.524 . S
C1047 C1044 1.403 . S
C1047 C1048 1.392 . S
C1047 C1051 1.495 . S
C1048 C1047 1.392 . S
C1048 C1049 1.385 . S
C1048 C1050 1.478 . S
C1049 H1043 0.930 . S
C1049 C1045 1.400 . S
C1049 C1048 1.385 . S
C1050 C1048 1.478 . S
C1050 C1052 1.381 . S
C1050 C1056 1.383 . S
C1051 C1047 1.495 . S
C1051 H1057 0.959 . S
C1051 H1058 0.961 . S
C1051 H1059 0.960 . S
C1052 C1050 1.381 . S
C1052 C1053 1.394 . S
C1052 H1060 0.930 . S
C1053 C1052 1.394 . S
C1053 C1054 1.383 . S
C1053 H1061 0.929 . S
C1054 C1053 1.383 . S
C1054 C1055 1.377 . S
C1055 H1039 0.930 . S
C1055 C1054 1.377 . S
C1055 C1056 1.379 . S
C1056 H1040 0.931 . S
C1056 C1050 1.383 . S
C1056 C1055 1.379 . S
H1057 C1051 0.959 . S
H1058 C1051 0.961 . S
H1059 C1051 0.960 . S
H1060 C1052 0.930 . S
H1061 C1053 0.929 . S
H1062 C1070 0.929 . S
H1063 C1072 0.930 . S
H1064 C1074 0.930 . S
H1065 C1077 0.929 . S
H1066 C1080 0.930 . S
H1067 C1082 0.960 . S
H1068 C1082 0.960 . S
H1069 C1082 0.960 . S
C1070 H1062 0.929 . S
C1070 C1071 1.377 . S
C1070 C1072 1.384 . S
C1071 C1070 1.377 . S
C1071 C1077 1.390 . S
C1072 H1063 0.930 . S
C1072 C1070 1.384 . S
C1072 C1073 1.372 . S
C1073 C1072 1.372 . S
C1073 C1074 1.400 . S
C1073 C1078 1.490 . S
C1074 H1064 0.930 . S
C1074 C1073 1.400 . S
C1074 C1077 1.386 . S
H1075 C1091 0.930 . S
H1076 C1092 0.931 . S
C1077 H1065 0.929 . S
C1077 C1071 1.390 . S
C1077 C1074 1.386 . S
C1078 C1073 1.490 . S
C1078 C1080 1.395 . S
C1078 C1081 1.403 . S
H1079 C1085 0.930 . S
C1080 H1066 0.930 . S
C1080 C1078 1.395 . S
C1080 C1083 1.403 . S
C1081 C1078 1.403 . S
C1081 C1082 1.524 . S
C1081 C1085 1.400 . S
C1082 H1067 0.960 . S
C1082 H1068 0.960 . S
C1082 H1069 0.960 . S
C1082 C1081 1.524 . S
C1083 C1080 1.403 . S
C1083 C1084 1.392 . S
C1083 C1087 1.495 . S
C1084 C1083 1.392 . S
C1084 C1085 1.385 . S
C1084 C1086 1.478 . S
C1085 H1079 0.930 . S
C1085 C1081 1.400 . S
C1085 C1084 1.385 . S
C1086 C1084 1.478 . S
C1086 C1088 1.381 . S
C1086 C1092 1.383 . S
C1087 C1083 1.495 . S
C1087 H1093 0.959 . S
C1087 H1094 0.961 . S
C1087 H1095 0.960 . S
C1088 C1086 1.381 . S
C1088 C1089 1.394 . S
C1088 H1096 0.930 . S
C1089 C1088 1.394 . S
C1089 C1090 1.383 . S
C1089 H1097 0.929 . S
C1090 C1089 1.383 . S
C1090 C1091 1.377 . S
C1091 H1075 0.930 . S
C1091 C1090 1.377 . S
C1091 C1092 1.379 . S
C1092 H1076 0.931 . S
C1092 C1086 1.383 . S
C1092 C1091 1.379 . S
H1093 C1087 0.959 . S
H1094 C1087 0.961 . S
H1095 C1087 0.960 . S
H1096 C1088 0.930 . S
H1097 C1089 0.929 . S
H1098 C1106 0.929 . S
H1099 C1108 0.930 . S
H1100 C1110 0.930 . S
H1101 C1113 0.929 . S
H1102 C1116 0.930 . S
H1103 C1118 0.960 . S
H1104 C1118 0.960 . S
H1105 C1118 0.960 . S
C1106 H1098 0.929 . S
C1106 C1107 1.377 . S
C1106 C1108 1.384 . S
C1107 C1106 1.377 . S
C1107 C1113 1.390 . S
C1108 H1099 0.930 . S
C1108 C1106 1.384 . S
C1108 C1109 1.372 . S
C1109 C1108 1.372 . S
C1109 C1110 1.400 . S
C1109 C1114 1.490 . S
C1110 H1100 0.930 . S
C1110 C1109 1.400 . S
C1110 C1113 1.386 . S
H1111 C1127 0.930 . S
H1112 C1128 0.931 . S
C1113 H1101 0.929 . S
C1113 C1107 1.390 . S
C1113 C1110 1.386 . S
C1114 C1109 1.490 . S
C1114 C1116 1.395 . S
C1114 C1117 1.403 . S
H1115 C1121 0.930 . S
C1116 H1102 0.930 . S
C1116 C1114 1.395 . S
C1116 C1119 1.403 . S
C1117 C1114 1.403 . S
C1117 C1118 1.524 . S
C1117 C1121 1.400 . S
C1118 H1103 0.960 . S
C1118 H1104 0.960 . S
C1118 H1105 0.960 . S
C1118 C1117 1.524 . S
C1119 C1116 1.403 . S
C1119 C1120 1.392 . S
C1119 C1123 1.495 . S
C1120 C1119 1.392 . S
C1120 C1121 1.385 . S
C1120 C1122 1.478 . S
C1121 H1115 0.930 . S
C1121 C1117 1.400 . S
C1121 C1120 1.385 . S
C1122 C1120 1.478 . S
C1122 C1124 1.381 . S
C1122 C1128 1.383 . S
C1123 C1119 1.495 . S
C1123 H1129 0.959 . S
C1123 H1130 0.961 . S
C1123 H1131 0.960 . S
C1124 C1122 1.381 . S
C1124 C1125 1.394 . S
C1124 H1132 0.930 . S
C1125 C1124 1.394 . S
C1125 C1126 1.383 . S
C1125 H1133 0.929 . S
C1126 C1125 1.383 . S
C1126 C1127 1.377 . S
C1127 H1111 0.930 . S
C1127 C1126 1.377 . S
C1127 C1128 1.379 . S
C1128 H1112 0.931 . S
C1128 C1122 1.383 . S
C1128 C1127 1.379 . S
H1129 C1123 0.959 . S
H1130 C1123 0.961 . S
H1131 C1123 0.960 . S
H1132 C1124 0.930 . S
H1133 C1125 0.929 . S
H1134 C1142 0.929 . S
H1135 C1144 0.930 . S
H1136 C1146 0.930 . S
H1137 C1149 0.929 . S
H1138 C1152 0.930 . S
H1139 C1154 0.960 . S
H1140 C1154 0.960 . S
H1141 C1154 0.960 . S
C1142 H1134 0.929 . S
C1142 C1143 1.377 . S
C1142 C1144 1.384 . S
C1143 C1142 1.377 . S
C1143 C1149 1.390 . S
C1144 H1135 0.930 . S
C1144 C1142 1.384 . S
C1144 C1145 1.372 . S
C1145 C1144 1.372 . S
C1145 C1146 1.400 . S
C1145 C1150 1.490 . S
C1146 H1136 0.930 . S
C1146 C1145 1.400 . S
C1146 C1149 1.386 . S
H1147 C1163 0.930 . S
H1148 C1164 0.931 . S
C1149 H1137 0.929 . S
C1149 C1143 1.390 . S
C1149 C1146 1.386 . S
C1150 C1145 1.490 . S
C1150 C1152 1.395 . S
C1150 C1153 1.403 . S
H1151 C1157 0.930 . S
C1152 H1138 0.930 . S
C1152 C1150 1.395 . S
C1152 C1155 1.403 . S
C1153 C1150 1.403 . S
C1153 C1154 1.524 . S
C1153 C1157 1.400 . S
C1154 H1139 0.960 . S
C1154 H1140 0.960 . S
C1154 H1141 0.960 . S
C1154 C1153 1.524 . S
C1155 C1152 1.403 . S
C1155 C1156 1.392 . S
C1155 C1159 1.495 . S
C1156 C1155 1.392 . S
C1156 C1157 1.385 . S
C1156 C1158 1.478 . S
C1157 H1151 0.930 . S
C1157 C1153 1.400 . S
C1157 C1156 1.385 . S
C1158 C1156 1.478 . S
C1158 C1160 1.381 . S
C1158 C1164 1.383 . S
C1159 C1155 1.495 . S
C1159 H1165 0.959 . S
C1159 H1166 0.961 . S
C1159 H1167 0.960 . S
C1160 C1158 1.381 . S
C1160 C1161 1.394 . S
C1160 H1168 0.930 . S
C1161 C1160 1.394 . S
C1161 C1162 1.383 . S
C1161 H1169 0.929 . S
C1162 C1161 1.383 . S
C1162 C1163 1.377 . S
C1163 H1147 0.930 . S
C1163 C1162 1.377 . S
C1163 C1164 1.379 . S
C1164 H1148 0.931 . S
C1164 C1158 1.383 . S
C1164 C1163 1.379 . S
H1165 C1159 0.959 . S
H1166 C1159 0.961 . S
H1167 C1159 0.960 . S
H1168 C1160 0.930 . S
H1169 C1161 0.929 . S
H1170 C1178 0.929 . S
H1171 C1180 0.930 . S
H1172 C1182 0.930 . S
H1173 C1185 0.929 . S
H1174 C1188 0.930 . S
H1175 C1190 0.960 . S
H1176 C1190 0.960 . S
H1177 C1190 0.960 . S
C1178 H1170 0.929 . S
C1178 C1179 1.377 . S
C1178 C1180 1.384 . S
C1179 C1178 1.377 . S
C1179 C1185 1.390 . S
C1180 H1171 0.930 . S
C1180 C1178 1.384 . S
C1180 C1181 1.372 . S
C1181 C1180 1.372 . S
C1181 C1182 1.400 . S
C1181 C1186 1.490 . S
C1182 H1172 0.930 . S
C1182 C1181 1.400 . S
C1182 C1185 1.386 . S
H1183 C1199 0.930 . S
H1184 C1200 0.931 . S
C1185 H1173 0.929 . S
C1185 C1179 1.390 . S
C1185 C1182 1.386 . S
C1186 C1181 1.490 . S
C1186 C1188 1.395 . S
C1186 C1189 1.403 . S
H1187 C1193 0.930 . S
C1188 H1174 0.930 . S
C1188 C1186 1.395 . S
C1188 C1191 1.403 . S
C1189 C1186 1.403 . S
C1189 C1190 1.524 . S
C1189 C1193 1.400 . S
C1190 H1175 0.960 . S
C1190 H1176 0.960 . S
C1190 H1177 0.960 . S
C1190 C1189 1.524 . S
C1191 C1188 1.403 . S
C1191 C1192 1.392 . S
C1191 C1195 1.495 . S
C1192 C1191 1.392 . S
C1192 C1193 1.385 . S
C1192 C1194 1.478 . S
C1193 H1187 0.930 . S
C1193 C1189 1.400 . S
C1193 C1192 1.385 . S
C1194 C1192 1.478 . S
C1194 C1196 1.381 . S
C1194 C1200 1.383 . S
C1195 C1191 1.495 . S
C1195 H1201 0.959 . S
C1195 H1202 0.961 . S
C1195 H1203 0.960 . S
C1196 C1194 1.381 . S
C1196 C1197 1.394 . S
C1196 H1204 0.930 . S
C1197 C1196 1.394 . S
C1197 C1198 1.383 . S
C1197 H1205 0.929 . S
C1198 C1197 1.383 . S
C1198 C1199 1.377 . S
C1199 H1183 0.930 . S
C1199 C1198 1.377 . S
C1199 C1200 1.379 . S
C1200 H1184 0.931 . S
C1200 C1194 1.383 . S
C1200 C1199 1.379 . S
H1201 C1195 0.959 . S
H1202 C1195 0.961 . S
H1203 C1195 0.960 . S
H1204 C1196 0.930 . S
H1205 C1197 0.929 . S
H1206 C1214 0.929 . S
H1207 C1216 0.930 . S
H1208 C1218 0.930 . S
H1209 C1221 0.929 . S
H1210 C1224 0.930 . S
H1211 C1226 0.960 . S
H1212 C1226 0.960 . S
H1213 C1226 0.960 . S
C1214 H1206 0.929 . S
C1214 C1215 1.377 . S
C1214 C1216 1.384 . S
C1215 C1214 1.377 . S
C1215 C1221 1.390 . S
C1216 H1207 0.930 . S
C1216 C1214 1.384 . S
C1216 C1217 1.372 . S
C1217 C1216 1.372 . S
C1217 C1218 1.400 . S
C1217 C1222 1.490 . S
C1218 H1208 0.930 . S
C1218 C1217 1.400 . S
C1218 C1221 1.386 . S
H1219 C1235 0.930 . S
H1220 C1236 0.931 . S
C1221 H1209 0.929 . S
C1221 C1215 1.390 . S
C1221 C1218 1.386 . S
C1222 C1217 1.490 . S
C1222 C1224 1.395 . S
C1222 C1225 1.403 . S
H1223 C1229 0.930 . S
C1224 H1210 0.930 . S
C1224 C1222 1.395 . S
C1224 C1227 1.403 . S
C1225 C1222 1.403 . S
C1225 C1226 1.524 . S
C1225 C1229 1.400 . S
C1226 H1211 0.960 . S
C1226 H1212 0.960 . S
C1226 H1213 0.960 . S
C1226 C1225 1.524 . S
C1227 C1224 1.403 . S
C1227 C1228 1.392 . S
C1227 C1231 1.495 . S
C1228 C1227 1.392 . S
C1228 C1229 1.385 . S
C1228 C1230 1.478 . S
C1229 H1223 0.930 . S
C1229 C1225 1.400 . S
C1229 C1228 1.385 . S
C1230 C1228 1.478 . S
C1230 C1232 1.381 . S
C1230 C1236 1.383 . S
C1231 C1227 1.495 . S
C1231 H1237 0.959 . S
C1231 H1238 0.961 . S
C1231 H1239 0.960 . S
C1232 C1230 1.381 . S
C1232 C1233 1.394 . S
C1232 H1240 0.930 . S
C1233 C1232 1.394 . S
C1233 C1234 1.383 . S
C1233 H1241 0.929 . S
C1234 C1233 1.383 . S
C1234 C1235 1.377 . S
C1235 H1219 0.930 . S
C1235 C1234 1.377 . S
C1235 C1236 1.379 . S
C1236 H1220 0.931 . S
C1236 C1230 1.383 . S
C1236 C1235 1.379 . S
H1237 C1231 0.959 . S
H1238 C1231 0.961 . S
H1239 C1231 0.960 . S
H1240 C1232 0.930 . S
H1241 C1233 0.929 . S
H1242 C1250 0.929 . S
H1243 C1252 0.930 . S
H1244 C1254 0.930 . S
H1245 C1257 0.929 . S
H1246 C1260 0.930 . S
H1247 C1262 0.960 . S
H1248 C1262 0.960 . S
H1249 C1262 0.960 . S
C1250 H1242 0.929 . S
C1250 C1251 1.377 . S
C1250 C1252 1.384 . S
C1251 C1250 1.377 . S
C1251 C1257 1.390 . S
C1252 H1243 0.930 . S
C1252 C1250 1.384 . S
C1252 C1253 1.372 . S
C1253 C1252 1.372 . S
C1253 C1254 1.400 . S
C1253 C1258 1.490 . S
C1254 H1244 0.930 . S
C1254 C1253 1.400 . S
C1254 C1257 1.386 . S
H1255 C1271 0.930 . S
H1256 C1272 0.931 . S
C1257 H1245 0.929 . S
C1257 C1251 1.390 . S
C1257 C1254 1.386 . S
C1258 C1253 1.490 . S
C1258 C1260 1.395 . S
C1258 C1261 1.403 . S
H1259 C1265 0.930 . S
C1260 H1246 0.930 . S
C1260 C1258 1.395 . S
C1260 C1263 1.403 . S
C1261 C1258 1.403 . S
C1261 C1262 1.524 . S
C1261 C1265 1.400 . S
C1262 H1247 0.960 . S
C1262 H1248 0.960 . S
C1262 H1249 0.960 . S
C1262 C1261 1.524 . S
C1263 C1260 1.403 . S
C1263 C1264 1.392 . S
C1263 C1267 1.495 . S
C1264 C1263 1.392 . S
C1264 C1265 1.385 . S
C1264 C1266 1.478 . S
C1265 H1259 0.930 . S
C1265 C1261 1.400 . S
C1265 C1264 1.385 . S
C1266 C1264 1.478 . S
C1266 C1268 1.381 . S
C1266 C1272 1.383 . S
C1267 C1263 1.495 . S
C1267 H1273 0.959 . S
C1267 H1274 0.961 . S
C1267 H1275 0.960 . S
C1268 C1266 1.381 . S
C1268 C1269 1.394 . S
C1268 H1276 0.930 . S
C1269 C1268 1.394 . S
C1269 C1270 1.383 . S
C1269 H1277 0.929 . S
C1270 C1269 1.383 . S
C1270 C1271 1.377 . S
C1271 H1255 0.930 . S
C1271 C1270 1.377 . S
C1271 C1272 1.379 . S
C1272 H1256 0.931 . S
C1272 C1266 1.383 . S
C1272 C1271 1.379 . S
H1273 C1267 0.959 . S
H1274 C1267 0.961 . S
H1275 C1267 0.960 . S
H1276 C1268 0.930 . S
H1277 C1269 0.929 . S
H1278 C1286 0.929 . S
H1279 C1288 0.930 . S
H1280 C1290 0.930 . S
H1281 C1293 0.929 . S
H1282 C1296 0.930 . S
H1283 C1298 0.960 . S
H1284 C1298 0.960 . S
H1285 C1298 0.960 . S
C1286 H1278 0.929 . S
C1286 C1287 1.377 . S
C1286 C1288 1.384 . S
C1287 C1286 1.377 . S
C1287 C1293 1.390 . S
C1288 H1279 0.930 . S
C1288 C1286 1.384 . S
C1288 C1289 1.372 . S
C1289 C1288 1.372 . S
C1289 C1290 1.400 . S
C1289 C1294 1.490 . S
C1290 H1280 0.930 . S
C1290 C1289 1.400 . S
C1290 C1293 1.386 . S
H1291 C1307 0.930 . S
H1292 C1308 0.931 . S
C1293 H1281 0.929 . S
C1293 C1287 1.390 . S
C1293 C1290 1.386 . S
C1294 C1289 1.490 . S
C1294 C1296 1.395 . S
C1294 C1297 1.403 . S
H1295 C1301 0.930 . S
C1296 H1282 0.930 . S
C1296 C1294 1.395 . S
C1296 C1299 1.403 . S
C1297 C1294 1.403 . S
C1297 C1298 1.524 . S
C1297 C1301 1.400 . S
C1298 H1283 0.960 . S
C1298 H1284 0.960 . S
C1298 H1285 0.960 . S
C1298 C1297 1.524 . S
C1299 C1296 1.403 . S
C1299 C1300 1.392 . S
C1299 C1303 1.495 . S
C1300 C1299 1.392 . S
C1300 C1301 1.385 . S
C1300 C1302 1.478 . S
C1301 H1295 0.930 . S
C1301 C1297 1.400 . S
C1301 C1300 1.385 . S
C1302 C1300 1.478 . S
C1302 C1304 1.381 . S
C1302 C1308 1.383 . S
C1303 C1299 1.495 . S
C1303 H1309 0.959 . S
C1303 H1310 0.961 . S
C1303 H1311 0.960 . S
C1304 C1302 1.381 . S
C1304 C1305 1.394 . S
C1304 H1312 0.930 . S
C1305 C1304 1.394 . S
C1305 C1306 1.383 . S
C1305 H1313 0.929 . S
C1306 C1305 1.383 . S
C1306 C1307 1.377 . S
C1307 H1291 0.930 . S
C1307 C1306 1.377 . S
C1307 C1308 1.379 . S
C1308 H1292 0.931 . S
C1308 C1302 1.383 . S
C1308 C1307 1.379 . S
H1309 C1303 0.959 . S
H1310 C1303 0.961 . S
H1311 C1303 0.960 . S
H1312 C1304 0.930 . S
H1313 C1305 0.929 . S
H1314 C1322 0.929 . S
H1315 C1324 0.930 . S
H1316 C1326 0.930 . S
H1317 C1329 0.929 . S
H1318 C1332 0.930 . S
H1319 C1334 0.960 . S
H1320 C1334 0.960 . S
H1321 C1334 0.960 . S
C1322 H1314 0.929 . S
C1322 C1323 1.377 . S
C1322 C1324 1.384 . S
C1323 C1322 1.377 . S
C1323 C1329 1.390 . S
C1324 H1315 0.930 . S
C1324 C1322 1.384 . S
C1324 C1325 1.372 . S
C1325 C1324 1.372 . S
C1325 C1326 1.400 . S
C1325 C1330 1.490 . S
C1326 H1316 0.930 . S
C1326 C1325 1.400 . S
C1326 C1329 1.386 . S
H1327 C1343 0.930 . S
H1328 C1344 0.931 . S
C1329 H1317 0.929 . S
C1329 C1323 1.390 . S
C1329 C1326 1.386 . S
C1330 C1325 1.490 . S
C1330 C1332 1.395 . S
C1330 C1333 1.403 . S
H1331 C1337 0.930 . S
C1332 H1318 0.930 . S
C1332 C1330 1.395 . S
C1332 C1335 1.403 . S
C1333 C1330 1.403 . S
C1333 C1334 1.524 . S
C1333 C1337 1.400 . S
C1334 H1319 0.960 . S
C1334 H1320 0.960 . S
C1334 H1321 0.960 . S
C1334 C1333 1.524 . S
C1335 C1332 1.403 . S
C1335 C1336 1.392 . S
C1335 C1339 1.495 . S
C1336 C1335 1.392 . S
C1336 C1337 1.385 . S
C1336 C1338 1.478 . S
C1337 H1331 0.930 . S
C1337 C1333 1.400 . S
C1337 C1336 1.385 . S
C1338 C1336 1.478 . S
C1338 C1340 1.381 . S
C1338 C1344 1.383 . S
C1339 C1335 1.495 . S
C1339 H1345 0.959 . S
C1339 H1346 0.961 . S
C1339 H1347 0.960 . S
C1340 C1338 1.381 . S
C1340 C1341 1.394 . S
C1340 H1348 0.930 . S
C1341 C1340 1.394 . S
C1341 C1342 1.383 . S
C1341 H1349 0.929 . S
C1342 C1341 1.383 . S
C1342 C1343 1.377 . S
C1343 H1327 0.930 . S
C1343 C1342 1.377 . S
C1343 C1344 1.379 . S
C1344 H1328 0.931 . S
C1344 C1338 1.383 . S
C1344 C1343 1.379 . S
H1345 C1339 0.959 . S
H1346 C1339 0.961 . S
H1347 C1339 0.960 . S
H1348 C1340 0.930 . S
H1349 C1341 0.929 . S
H1350 C1358 0.929 . S
H1351 C1360 0.930 . S
H1352 C1362 0.930 . S
H1353 C1365 0.929 . S
H1354 C1368 0.930 . S
H1355 C1370 0.960 . S
H1356 C1370 0.960 . S
H1357 C1370 0.960 . S
C1358 H1350 0.929 . S
C1358 C1359 1.377 . S
C1358 C1360 1.384 . S
C1359 C1358 1.377 . S
C1359 C1365 1.390 . S
C1360 H1351 0.930 . S
C1360 C1358 1.384 . S
C1360 C1361 1.372 . S
C1361 C1360 1.372 . S
C1361 C1362 1.400 . S
C1361 C1366 1.490 . S
C1362 H1352 0.930 . S
C1362 C1361 1.400 . S
C1362 C1365 1.386 . S
H1363 C1379 0.930 . S
H1364 C1380 0.931 . S
C1365 H1353 0.929 . S
C1365 C1359 1.390 . S
C1365 C1362 1.386 . S
C1366 C1361 1.490 . S
C1366 C1368 1.395 . S
C1366 C1369 1.403 . S
H1367 C1373 0.930 . S
C1368 H1354 0.930 . S
C1368 C1366 1.395 . S
C1368 C1371 1.403 . S
C1369 C1366 1.403 . S
C1369 C1370 1.524 . S
C1369 C1373 1.400 . S
C1370 H1355 0.960 . S
C1370 H1356 0.960 . S
C1370 H1357 0.960 . S
C1370 C1369 1.524 . S
C1371 C1368 1.403 . S
C1371 C1372 1.392 . S
C1371 C1375 1.495 . S
C1372 C1371 1.392 . S
C1372 C1373 1.385 . S
C1372 C1374 1.478 . S
C1373 H1367 0.930 . S
C1373 C1369 1.400 . S
C1373 C1372 1.385 . S
C1374 C1372 1.478 . S
C1374 C1376 1.381 . S
C1374 C1380 1.383 . S
C1375 C1371 1.495 . S
C1375 H1381 0.959 . S
C1375 H1382 0.961 . S
C1375 H1383 0.960 . S
C1376 C1374 1.381 . S
C1376 C1377 1.394 . S
C1376 H1384 0.930 . S
C1377 C1376 1.394 . S
C1377 C1378 1.383 . S
C1377 H1385 0.929 . S
C1378 C1377 1.383 . S
C1378 C1379 1.377 . S
C1379 H1363 0.930 . S
C1379 C1378 1.377 . S
C1379 C1380 1.379 . S
C1380 H1364 0.931 . S
C1380 C1374 1.383 . S
C1380 C1379 1.379 . S
H1381 C1375 0.959 . S
H1382 C1375 0.961 . S
H1383 C1375 0.960 . S
H1384 C1376 0.930 . S
H1385 C1377 0.929 . S
H1386 C1394 0.929 . S
H1387 C1396 0.930 . S
H1388 C1398 0.930 . S
H1389 C1401 0.929 . S
H1390 C1404 0.930 . S
H1391 C1406 0.960 . S
H1392 C1406 0.960 . S
H1393 C1406 0.960 . S
C1394 H1386 0.929 . S
C1394 C1395 1.377 . S
C1394 C1396 1.384 . S
C1395 C1394 1.377 . S
C1395 C1401 1.390 . S
C1396 H1387 0.930 . S
C1396 C1394 1.384 . S
C1396 C1397 1.372 . S
C1397 C1396 1.372 . S
C1397 C1398 1.400 . S
C1397 C1402 1.490 . S
C1398 H1388 0.930 . S
C1398 C1397 1.400 . S
C1398 C1401 1.386 . S
H1399 C1415 0.930 . S
H1400 C1416 0.931 . S
C1401 H1389 0.929 . S
C1401 C1395 1.390 . S
C1401 C1398 1.386 . S
C1402 C1397 1.490 . S
C1402 C1404 1.395 . S
C1402 C1405 1.403 . S
H1403 C1409 0.930 . S
C1404 H1390 0.930 . S
C1404 C1402 1.395 . S
C1404 C1407 1.403 . S
C1405 C1402 1.403 . S
C1405 C1406 1.524 . S
C1405 C1409 1.400 . S
C1406 H1391 0.960 . S
C1406 H1392 0.960 . S
C1406 H1393 0.960 . S
C1406 C1405 1.524 . S
C1407 C1404 1.403 . S
C1407 C1408 1.392 . S
C1407 C1411 1.495 . S
C1408 C1407 1.392 . S
C1408 C1409 1.385 . S
C1408 C1410 1.478 . S
C1409 H1403 0.930 . S
C1409 C1405 1.400 . S
C1409 C1408 1.385 . S
C1410 C1408 1.478 . S
C1410 C1412 1.381 . S
C1410 C1416 1.383 . S
C1411 C1407 1.495 . S
C1411 H1417 0.959 . S
C1411 H1418 0.961 . S
C1411 H1419 0.960 . S
C1412 C1410 1.381 . S
C1412 C1413 1.394 . S
C1412 H1420 0.930 . S
C1413 C1412 1.394 . S
C1413 C1414 1.383 . S
C1413 H1421 0.929 . S
C1414 C1413 1.383 . S
C1414 C1415 1.377 . S
C1415 H1399 0.930 . S
C1415 C1414 1.377 . S
C1415 C1416 1.379 . S
C1416 H1400 0.931 . S
C1416 C1410 1.383 . S
C1416 C1415 1.379 . S
H1417 C1411 0.959 . S
H1418 C1411 0.961 . S
H1419 C1411 0.960 . S
H1420 C1412 0.930 . S
H1421 C1413 0.929 . S
H1422 C1430 0.929 . S
H1423 C1432 0.930 . S
H1424 C1434 0.930 . S
H1425 C1437 0.929 . S
H1426 C1440 0.930 . S
H1427 C1442 0.960 . S
H1428 C1442 0.960 . S
H1429 C1442 0.960 . S
C1430 H1422 0.929 . S
C1430 C1431 1.377 . S
C1430 C1432 1.384 . S
C1431 C1430 1.377 . S
C1431 C1437 1.390 . S
C1432 H1423 0.930 . S
C1432 C1430 1.384 . S
C1432 C1433 1.372 . S
C1433 C1432 1.372 . S
C1433 C1434 1.400 . S
C1433 C1438 1.490 . S
C1434 H1424 0.930 . S
C1434 C1433 1.400 . S
C1434 C1437 1.386 . S
H1435 C1451 0.930 . S
H1436 C1452 0.931 . S
C1437 H1425 0.929 . S
C1437 C1431 1.390 . S
C1437 C1434 1.386 . S
C1438 C1433 1.490 . S
C1438 C1440 1.395 . S
C1438 C1441 1.403 . S
H1439 C1445 0.930 . S
C1440 H1426 0.930 . S
C1440 C1438 1.395 . S
C1440 C1443 1.403 . S
C1441 C1438 1.403 . S
C1441 C1442 1.524 . S
C1441 C1445 1.400 . S
C1442 H1427 0.960 . S
C1442 H1428 0.960 . S
C1442 H1429 0.960 . S
C1442 C1441 1.524 . S
C1443 C1440 1.403 . S
C1443 C1444 1.392 . S
C1443 C1447 1.495 . S
C1444 C1443 1.392 . S
C1444 C1445 1.385 . S
C1444 C1446 1.478 . S
C1445 H1439 0.930 . S
C1445 C1441 1.400 . S
C1445 C1444 1.385 . S
C1446 C1444 1.478 . S
C1446 C1448 1.381 . S
C1446 C1452 1.383 . S
C1447 C1443 1.495 . S
C1447 H1453 0.959 . S
C1447 H1454 0.961 . S
C1447 H1455 0.960 . S
C1448 C1446 1.381 . S
C1448 C1449 1.394 . S
C1448 H1456 0.930 . S
C1449 C1448 1.394 . S
C1449 C1450 1.383 . S
C1449 H1457 0.929 . S
C1450 C1449 1.383 . S
C1450 C1451 1.377 . S
C1451 H1435 0.930 . S
C1451 C1450 1.377 . S
C1451 C1452 1.379 . S
C1452 H1436 0.931 . S
C1452 C1446 1.383 . S
C1452 C1451 1.379 . S
H1453 C1447 0.959 . S
H1454 C1447 0.961 . S
H1455 C1447 0.960 . S
H1456 C1448 0.930 . S
H1457 C1449 0.929 . S
H1458 C1466 0.929 . S
H1459 C1468 0.930 . S
H1460 C1470 0.930 . S
H1461 C1473 0.929 . S
H1462 C1476 0.930 . S
H1463 C1478 0.960 . S
H1464 C1478 0.960 . S
H1465 C1478 0.960 . S
C1466 H1458 0.929 . S
C1466 C1467 1.377 . S
C1466 C1468 1.384 . S
C1467 C1466 1.377 . S
C1467 C1473 1.390 . S
C1468 H1459 0.930 . S
C1468 C1466 1.384 . S
C1468 C1469 1.372 . S
C1469 C1468 1.372 . S
C1469 C1470 1.400 . S
C1469 C1474 1.490 . S
C1470 H1460 0.930 . S
C1470 C1469 1.400 . S
C1470 C1473 1.386 . S
H1471 C1487 0.930 . S
H1472 C1488 0.931 . S
C1473 H1461 0.929 . S
C1473 C1467 1.390 . S
C1473 C1470 1.386 . S
C1474 C1469 1.490 . S
C1474 C1476 1.395 . S
C1474 C1477 1.403 . S
H1475 C1481 0.930 . S
C1476 H1462 0.930 . S
C1476 C1474 1.395 . S
C1476 C1479 1.403 . S
C1477 C1474 1.403 . S
C1477 C1478 1.524 . S
C1477 C1481 1.400 . S
C1478 H1463 0.960 . S
C1478 H1464 0.960 . S
C1478 H1465 0.960 . S
C1478 C1477 1.524 . S
C1479 C1476 1.403 . S
C1479 C1480 1.392 . S
C1479 C1483 1.495 . S
C1480 C1479 1.392 . S
C1480 C1481 1.385 . S
C1480 C1482 1.478 . S
C1481 H1475 0.930 . S
C1481 C1477 1.400 . S
C1481 C1480 1.385 . S
C1482 C1480 1.478 . S
C1482 C1484 1.381 . S
C1482 C1488 1.383 . S
C1483 C1479 1.495 . S
C1483 H1489 0.959 . S
C1483 H1490 0.961 . S
C1483 H1491 0.960 . S
C1484 C1482 1.381 . S
C1484 C1485 1.394 . S
C1484 H1492 0.930 . S
C1485 C1484 1.394 . S
C1485 C1486 1.383 . S
C1485 H1493 0.929 . S
C1486 C1485 1.383 . S
C1486 C1487 1.377 . S
C1487 H1471 0.930 . S
C1487 C1486 1.377 . S
C1487 C1488 1.379 . S
C1488 H1472 0.931 . S
C1488 C1482 1.383 . S
C1488 C1487 1.379 . S
H1489 C1483 0.959 . S
H1490 C1483 0.961 . S
H1491 C1483 0.960 . S
H1492 C1484 0.930 . S
H1493 C1485 0.929 . S
H1494 C1502 0.929 . S
H1495 C1504 0.930 . S
H1496 C1506 0.930 . S
H1497 C1509 0.929 . S
H1498 C1512 0.930 . S
H1499 C1514 0.960 . S
H1500 C1514 0.960 . S
H1501 C1514 0.960 . S
C1502 H1494 0.929 . S
C1502 C1503 1.377 . S
C1502 C1504 1.384 . S
C1503 C1502 1.377 . S
C1503 C1509 1.390 . S
C1504 H1495 0.930 . S
C1504 C1502 1.384 . S
C1504 C1505 1.372 . S
C1505 C1504 1.372 . S
C1505 C1506 1.400 . S
C1505 C1510 1.490 . S
C1506 H1496 0.930 . S
C1506 C1505 1.400 . S
C1506 C1509 1.386 . S
H1507 C1523 0.930 . S
H1508 C1524 0.931 . S
C1509 H1497 0.929 . S
C1509 C1503 1.390 . S
C1509 C1506 1.386 . S
C1510 C1505 1.490 . S
C1510 C1512 1.395 . S
C1510 C1513 1.403 . S
H1511 C1517 0.930 . S
C1512 H1498 0.930 . S
C1512 C1510 1.395 . S
C1512 C1515 1.403 . S
C1513 C1510 1.403 . S
C1513 C1514 1.524 . S
C1513 C1517 1.400 . S
C1514 H1499 0.960 . S
C1514 H1500 0.960 . S
C1514 H1501 0.960 . S
C1514 C1513 1.524 . S
C1515 C1512 1.403 . S
C1515 C1516 1.392 . S
C1515 C1519 1.495 . S
C1516 C1515 1.392 . S
C1516 C1517 1.385 . S
C1516 C1518 1.478 . S
C1517 H1511 0.930 . S
C1517 C1513 1.400 . S
C1517 C1516 1.385 . S
C1518 C1516 1.478 . S
C1518 C1520 1.381 . S
C1518 C1524 1.383 . S
C1519 C1515 1.495 . S
C1519 H1525 0.959 . S
C1519 H1526 0.961 . S
C1519 H1527 0.960 . S
C1520 C1518 1.381 . S
C1520 C1521 1.394 . S
C1520 H1528 0.930 . S
C1521 C1520 1.394 . S
C1521 C1522 1.383 . S
C1521 H1529 0.929 . S
C1522 C1521 1.383 . S
C1522 C1523 1.377 . S
C1523 H1507 0.930 . S
C1523 C1522 1.377 . S
C1523 C1524 1.379 . S
C1524 H1508 0.931 . S
C1524 C1518 1.383 . S
C1524 C1523 1.379 . S
H1525 C1519 0.959 . S
H1526 C1519 0.961 . S
H1527 C1519 0.960 . S
H1528 C1520 0.930 . S
H1529 C1521 0.929 . S
H1530 C1538 0.929 . S
H1531 C1540 0.930 . S
H1532 C1542 0.930 . S
H1533 C1545 0.929 . S
H1534 C1548 0.930 . S
H1535 C1550 0.960 . S
H1536 C1550 0.960 . S
H1537 C1550 0.960 . S
C1538 H1530 0.929 . S
C1538 C1539 1.377 . S
C1538 C1540 1.384 . S
C1539 C1538 1.377 . S
C1539 C1545 1.390 . S
C1540 H1531 0.930 . S
C1540 C1538 1.384 . S
C1540 C1541 1.372 . S
C1541 C1540 1.372 . S
C1541 C1542 1.400 . S
C1541 C1546 1.490 . S
C1542 H1532 0.930 . S
C1542 C1541 1.400 . S
C1542 C1545 1.386 . S
H1543 C1559 0.930 . S
H1544 C1560 0.931 . S
C1545 H1533 0.929 . S
C1545 C1539 1.390 . S
C1545 C1542 1.386 . S
C1546 C1541 1.490 . S
C1546 C1548 1.395 . S
C1546 C1549 1.403 . S
H1547 C1553 0.930 . S
C1548 H1534 0.930 . S
C1548 C1546 1.395 . S
C1548 C1551 1.403 . S
C1549 C1546 1.403 . S
C1549 C1550 1.524 . S
C1549 C1553 1.400 . S
C1550 H1535 0.960 . S
C1550 H1536 0.960 . S
C1550 H1537 0.960 . S
C1550 C1549 1.524 . S
C1551 C1548 1.403 . S
C1551 C1552 1.392 . S
C1551 C1555 1.495 . S
C1552 C1551 1.392 . S
C1552 C1553 1.385 . S
C1552 C1554 1.478 . S
C1553 H1547 0.930 . S
C1553 C1549 1.400 . S
C1553 C1552 1.385 . S
C1554 C1552 1.478 . S
C1554 C1556 1.381 . S
C1554 C1560 1.383 . S
C1555 C1551 1.495 . S
C1555 H1561 0.959 . S
C1555 H1562 0.961 . S
C1555 H1563 0.960 . S
C1556 C1554 1.381 . S
C1556 C1557 1.394 . S
C1556 H1564 0.930 . S
C1557 C1556 1.394 . S
C1557 C1558 1.383 . S
C1557 H1565 0.929 . S
C1558 C1557 1.383 . S
C1558 C1559 1.377 . S
C1559 H1543 0.930 . S
C1559 C1558 1.377 . S
C1559 C1560 1.379 . S
C1560 H1544 0.931 . S
C1560 C1554 1.383 . S
C1560 C1559 1.379 . S
H1561 C1555 0.959 . S
H1562 C1555 0.961 . S
H1563 C1555 0.960 . S
H1564 C1556 0.930 . S
H1565 C1557 0.929 . S
H1566 C1574 0.929 . S
H1567 C1576 0.930 . S
H1568 C1578 0.930 . S
H1569 C1581 0.929 . S
H1570 C1584 0.930 . S
H1571 C1586 0.960 . S
H1572 C1586 0.960 . S
H1573 C1586 0.960 . S
C1574 H1566 0.929 . S
C1574 C1575 1.377 . S
C1574 C1576 1.384 . S
C1575 C1574 1.377 . S
C1575 C1581 1.390 . S
C1576 H1567 0.930 . S
C1576 C1574 1.384 . S
C1576 C1577 1.372 . S
C1577 C1576 1.372 . S
C1577 C1578 1.400 . S
C1577 C1582 1.490 . S
C1578 H1568 0.930 . S
C1578 C1577 1.400 . S
C1578 C1581 1.386 . S
H1579 C1595 0.930 . S
H1580 C1596 0.931 . S
C1581 H1569 0.929 . S
C1581 C1575 1.390 . S
C1581 C1578 1.386 . S
C1582 C1577 1.490 . S
C1582 C1584 1.395 . S
C1582 C1585 1.403 . S
H1583 C1589 0.930 . S
C1584 H1570 0.930 . S
C1584 C1582 1.395 . S
C1584 C1587 1.403 . S
C1585 C1582 1.403 . S
C1585 C1586 1.524 . S
C1585 C1589 1.400 . S
C1586 H1571 0.960 . S
C1586 H1572 0.960 . S
C1586 H1573 0.960 . S
C1586 C1585 1.524 . S
C1587 C1584 1.403 . S
C1587 C1588 1.392 . S
C1587 C1591 1.495 . S
C1588 C1587 1.392 . S
C1588 C1589 1.385 . S
C1588 C1590 1.478 . S
C1589 H1583 0.930 . S
C1589 C1585 1.400 . S
C1589 C1588 1.385 . S
C1590 C1588 1.478 . S
C1590 C1592 1.381 . S
C1590 C1596 1.383 . S
C1591 C1587 1.495 . S
C1591 H1597 0.959 . S
C1591 H1598 0.961 . S
C1591 H1599 0.960 . S
C1592 C1590 1.381 . S
C1592 C1593 1.394 . S
C1592 H1600 0.930 . S
C1593 C1592 1.394 . S
C1593 C1594 1.383 . S
C1593 H1601 0.929 . S
C1594 C1593 1.383 . S
C1594 C1595 1.377 . S
C1595 H1579 0.930 . S
C1595 C1594 1.377 . S
C1595 C1596 1.379 . S
C1596 H1580 0.931 . S
C1596 C1590 1.383 . S
C1596 C1595 1.379 . S
H1597 C1591 0.959 . S
H1598 C1591 0.961 . S
H1599 C1591 0.960 . S
H1600 C1592 0.930 . S
H1601 C1593 0.929 . S
H1602 C1610 0.929 . S
H1603 C1612 0.930 . S
H1604 C1614 0.930 . S
H1605 C1617 0.929 . S
H1606 C1620 0.930 . S
H1607 C1622 0.960 . S
H1608 C1622 0.960 . S
H1609 C1622 0.960 . S
C1610 H1602 0.929 . S
C1610 C1611 1.377 . S
C1610 C1612 1.384 . S
C1611 C1610 1.377 . S
C1611 C1617 1.390 . S
C1612 H1603 0.930 . S
C1612 C1610 1.384 . S
C1612 C1613 1.372 . S
C1613 C1612 1.372 . S
C1613 C1614 1.400 . S
C1613 C1618 1.490 . S
C1614 H1604 0.930 . S
C1614 C1613 1.400 . S
C1614 C1617 1.386 . S
H1615 C1631 0.930 . S
H1616 C1632 0.931 . S
C1617 H1605 0.929 . S
C1617 C1611 1.390 . S
C1617 C1614 1.386 . S
C1618 C1613 1.490 . S
C1618 C1620 1.395 . S
C1618 C1621 1.403 . S
H1619 C1625 0.930 . S
C1620 H1606 0.930 . S
C1620 C1618 1.395 . S
C1620 C1623 1.403 . S
C1621 C1618 1.403 . S
C1621 C1622 1.524 . S
C1621 C1625 1.400 . S
C1622 H1607 0.960 . S
C1622 H1608 0.960 . S
C1622 H1609 0.960 . S
C1622 C1621 1.524 . S
C1623 C1620 1.403 . S
C1623 C1624 1.392 . S
C1623 C1627 1.495 . S
C1624 C1623 1.392 . S
C1624 C1625 1.385 . S
C1624 C1626 1.478 . S
C1625 H1619 0.930 . S
C1625 C1621 1.400 . S
C1625 C1624 1.385 . S
C1626 C1624 1.478 . S
C1626 C1628 1.381 . S
C1626 C1632 1.383 . S
C1627 C1623 1.495 . S
C1627 H1633 0.959 . S
C1627 H1634 0.961 . S
C1627 H1635 0.960 . S
C1628 C1626 1.381 . S
C1628 C1629 1.394 . S
C1628 H1636 0.930 . S
C1629 C1628 1.394 . S
C1629 C1630 1.383 . S
C1629 H1637 0.929 . S
C1630 C1629 1.383 . S
C1630 C1631 1.377 . S
C1631 H1615 0.930 . S
C1631 C1630 1.377 . S
C1631 C1632 1.379 . S
C1632 H1616 0.931 . S
C1632 C1626 1.383 . S
C1632 C1631 1.379 . S
H1633 C1627 0.959 . S
H1634 C1627 0.961 . S
H1635 C1627 0.960 . S
H1636 C1628 0.930 . S
H1637 C1629 0.929 . S
H1638 C1646 0.929 . S
H1639 C1648 0.930 . S
H1640 C1650 0.930 . S
H1641 C1653 0.929 . S
H1642 C1656 0.930 . S
H1643 C1658 0.960 . S
H1644 C1658 0.960 . S
H1645 C1658 0.960 . S
C1646 H1638 0.929 . S
C1646 C1647 1.377 . S
C1646 C1648 1.384 . S
C1647 C1646 1.377 . S
C1647 C1653 1.390 . S
C1648 H1639 0.930 . S
C1648 C1646 1.384 . S
C1648 C1649 1.372 . S
C1649 C1648 1.372 . S
C1649 C1650 1.400 . S
C1649 C1654 1.490 . S
C1650 H1640 0.930 . S
C1650 C1649 1.400 . S
C1650 C1653 1.386 . S
H1651 C1667 0.930 . S
H1652 C1668 0.931 . S
C1653 H1641 0.929 . S
C1653 C1647 1.390 . S
C1653 C1650 1.386 . S
C1654 C1649 1.490 . S
C1654 C1656 1.395 . S
C1654 C1657 1.403 . S
H1655 C1661 0.930 . S
C1656 H1642 0.930 . S
C1656 C1654 1.395 . S
C1656 C1659 1.403 . S
C1657 C1654 1.403 . S
C1657 C1658 1.524 . S
C1657 C1661 1.400 . S
C1658 H1643 0.960 . S
C1658 H1644 0.960 . S
C1658 H1645 0.960 . S
C1658 C1657 1.524 . S
C1659 C1656 1.403 . S
C1659 C1660 1.392 . S
C1659 C1663 1.495 . S
C1660 C1659 1.392 . S
C1660 C1661 1.385 . S
C1660 C1662 1.478 . S
C1661 H1655 0.930 . S
C1661 C1657 1.400 . S
C1661 C1660 1.385 . S
C1662 C1660 1.478 . S
C1662 C1664 1.381 . S
C1662 C1668 1.383 . S
C1663 C1659 1.495 . S
C1663 H1669 0.959 . S
C1663 H1670 0.961 . S
C1663 H1671 0.960 . S
C1664 C1662 1.381 . S
C1664 C1665 1.394 . S
C1664 H1672 0.930 . S
C1665 C1664 1.394 . S
C1665 C1666 1.383 . S
C1665 H1673 0.929 . S
C1666 C1665 1.383 . S
C1666 C1667 1.377 . S
C1667 H1651 0.930 . S
C1667 C1666 1.377 . S
C1667 C1668 1.379 . S
C1668 H1652 0.931 . S
C1668 C1662 1.383 . S
C1668 C1667 1.379 . S
H1669 C1663 0.959 . S
H1670 C1663 0.961 . S
H1671 C1663 0.960 . S
H1672 C1664 0.930 . S
H1673 C1665 0.929 . S
H1674 C1682 0.929 . S
H1675 C1684 0.930 . S
H1676 C1686 0.930 . S
H1677 C1689 0.929 . S
H1678 C1692 0.930 . S
H1679 C1694 0.960 . S
H1680 C1694 0.960 . S
H1681 C1694 0.960 . S
C1682 H1674 0.929 . S
C1682 C1683 1.377 . S
C1682 C1684 1.384 . S
C1683 C1682 1.377 . S
C1683 C1689 1.390 . S
C1684 H1675 0.930 . S
C1684 C1682 1.384 . S
C1684 C1685 1.372 . S
C1685 C1684 1.372 . S
C1685 C1686 1.400 . S
C1685 C1690 1.490 . S
C1686 H1676 0.930 . S
C1686 C1685 1.400 . S
C1686 C1689 1.386 . S
H1687 C1703 0.930 . S
H1688 C1704 0.931 . S
C1689 H1677 0.929 . S
C1689 C1683 1.390 . S
C1689 C1686 1.386 . S
C1690 C1685 1.490 . S
C1690 C1692 1.395 . S
C1690 C1693 1.403 . S
H1691 C1697 0.930 . S
C1692 H1678 0.930 . S
C1692 C1690 1.395 . S
C1692 C1695 1.403 . S
C1693 C1690 1.403 . S
C1693 C1694 1.524 . S
C1693 C1697 1.400 . S
C1694 H1679 0.960 . S
C1694 H1680 0.960 . S
C1694 H1681 0.960 . S
C1694 C1693 1.524 . S
C1695 C1692 1.403 . S
C1695 C1696 1.392 . S
C1695 C1699 1.495 . S
C1696 C1695 1.392 . S
C1696 C1697 1.385 . S
C1696 C1698 1.478 . S
C1697 H1691 0.930 . S
C1697 C1693 1.400 . S
C1697 C1696 1.385 . S
C1698 C1696 1.478 . S
C1698 C1700 1.381 . S
C1698 C1704 1.383 . S
C1699 C1695 1.495 . S
C1699 H1705 0.959 . S
C1699 H1706 0.961 . S
C1699 H1707 0.960 . S
C1700 C1698 1.381 . S
C1700 C1701 1.394 . S
C1700 H1708 0.930 . S
C1701 C1700 1.394 . S
C1701 C1702 1.383 . S
C1701 H1709 0.929 . S
C1702 C1701 1.383 . S
C1702 C1703 1.377 . S
C1703 H1687 0.930 . S
C1703 C1702 1.377 . S
C1703 C1704 1.379 . S
C1704 H1688 0.931 . S
C1704 C1698 1.383 . S
C1704 C1703 1.379 . S
H1705 C1699 0.959 . S
H1706 C1699 0.961 . S
H1707 C1699 0.960 . S
H1708 C1700 0.930 . S
H1709 C1701 0.929 . S
H1710 C1718 0.929 . S
H1711 C1720 0.930 . S
H1712 C1722 0.930 . S
H1713 C1725 0.929 . S
H1714 C1728 0.930 . S
H1715 C1730 0.960 . S
H1716 C1730 0.960 . S
H1717 C1730 0.960 . S
C1718 H1710 0.929 . S
C1718 C1719 1.377 . S
C1718 C1720 1.384 . S
C1719 C1718 1.377 . S
C1719 C1725 1.390 . S
C1720 H1711 0.930 . S
C1720 C1718 1.384 . S
C1720 C1721 1.372 . S
C1721 C1720 1.372 . S
C1721 C1722 1.400 . S
C1721 C1726 1.490 . S
C1722 H1712 0.930 . S
C1722 C1721 1.400 . S
C1722 C1725 1.386 . S
H1723 C1739 0.930 . S
H1724 C1740 0.931 . S
C1725 H1713 0.929 . S
C1725 C1719 1.390 . S
C1725 C1722 1.386 . S
C1726 C1721 1.490 . S
C1726 C1728 1.395 . S
C1726 C1729 1.403 . S
H1727 C1733 0.930 . S
C1728 H1714 0.930 . S
C1728 C1726 1.395 . S
C1728 C1731 1.403 . S
C1729 C1726 1.403 . S
C1729 C1730 1.524 . S
C1729 C1733 1.400 . S
C1730 H1715 0.960 . S
C1730 H1716 0.960 . S
C1730 H1717 0.960 . S
C1730 C1729 1.524 . S
C1731 C1728 1.403 . S
C1731 C1732 1.392 . S
C1731 C1735 1.495 . S
C1732 C1731 1.392 . S
C1732 C1733 1.385 . S
C1732 C1734 1.478 . S
C1733 H1727 0.930 . S
C1733 C1729 1.400 . S
C1733 C1732 1.385 . S
C1734 C1732 1.478 . S
C1734 C1736 1.381 . S
C1734 C1740 1.383 . S
C1735 C1731 1.495 . S
C1735 H1741 0.959 . S
C1735 H1742 0.961 . S
C1735 H1743 0.960 . S
C1736 C1734 1.381 . S
C1736 C1737 1.394 . S
C1736 H1744 0.930 . S
C1737 C1736 1.394 . S
C1737 C1738 1.383 . S
C1737 H1745 0.929 . S
C1738 C1737 1.383 . S
C1738 C1739 1.377 . S
C1739 H1723 0.930 . S
C1739 C1738 1.377 . S
C1739 C1740 1.379 . S
C1740 H1724 0.931 . S
C1740 C1734 1.383 . S
C1740 C1739 1.379 . S
H1741 C1735 0.959 . S
H1742 C1735 0.961 . S
H1743 C1735 0.960 . S
H1744 C1736 0.930 . S
H1745 C1737 0.929 . S
H1746 C1754 0.929 . S
H1747 C1756 0.930 . S
H1748 C1758 0.930 . S
H1749 C1761 0.929 . S
H1750 C1764 0.930 . S
H1751 C1766 0.960 . S
H1752 C1766 0.960 . S
H1753 C1766 0.960 . S
C1754 H1746 0.929 . S
C1754 C1755 1.377 . S
C1754 C1756 1.384 . S
C1755 C1754 1.377 . S
C1755 C1761 1.390 . S
C1756 H1747 0.930 . S
C1756 C1754 1.384 . S
C1756 C1757 1.372 . S
C1757 C1756 1.372 . S
C1757 C1758 1.400 . S
C1757 C1762 1.490 . S
C1758 H1748 0.930 . S
C1758 C1757 1.400 . S
C1758 C1761 1.386 . S
H1759 C1775 0.930 . S
H1760 C1776 0.931 . S
C1761 H1749 0.929 . S
C1761 C1755 1.390 . S
C1761 C1758 1.386 . S
C1762 C1757 1.490 . S
C1762 C1764 1.395 . S
C1762 C1765 1.403 . S
H1763 C1769 0.930 . S
C1764 H1750 0.930 . S
C1764 C1762 1.395 . S
C1764 C1767 1.403 . S
C1765 C1762 1.403 . S
C1765 C1766 1.524 . S
C1765 C1769 1.400 . S
C1766 H1751 0.960 . S
C1766 H1752 0.960 . S
C1766 H1753 0.960 . S
C1766 C1765 1.524 . S
C1767 C1764 1.403 . S
C1767 C1768 1.392 . S
C1767 C1771 1.495 . S
C1768 C1767 1.392 . S
C1768 C1769 1.385 . S
C1768 C1770 1.478 . S
C1769 H1763 0.930 . S
C1769 C1765 1.400 . S
C1769 C1768 1.385 . S
C1770 C1768 1.478 . S
C1770 C1772 1.381 . S
C1770 C1776 1.383 . S
C1771 C1767 1.495 . S
C1771 H1777 0.959 . S
C1771 H1778 0.961 . S
C1771 H1779 0.960 . S
C1772 C1770 1.381 . S
C1772 C1773 1.394 . S
C1772 H1780 0.930 . S
C1773 C1772 1.394 . S
C1773 C1774 1.383 . S
C1773 H1781 0.929 . S
C1774 C1773 1.383 . S
C1774 C1775 1.377 . S
C1775 H1759 0.930 . S
C1775 C1774 1.377 . S
C1775 C1776 1.379 . S
C1776 H1760 0.931 . S
C1776 C1770 1.383 . S
C1776 C1775 1.379 . S
H1777 C1771 0.959 . S
H1778 C1771 0.961 . S
H1779 C1771 0.960 . S
H1780 C1772 0.930 . S
H1781 C1773 0.929 . S
H1782 C1790 0.929 . S
H1783 C1792 0.930 . S
H1784 C1794 0.930 . S
H1785 C1797 0.929 . S
H1786 C1800 0.930 . S
H1787 C1802 0.960 . S
H1788 C1802 0.960 . S
H1789 C1802 0.960 . S
C1790 H1782 0.929 . S
C1790 C1791 1.377 . S
C1790 C1792 1.384 . S
C1791 C1790 1.377 . S
C1791 C1797 1.390 . S
C1792 H1783 0.930 . S
C1792 C1790 1.384 . S
C1792 C1793 1.372 . S
C1793 C1792 1.372 . S
C1793 C1794 1.400 . S
C1793 C1798 1.490 . S
C1794 H1784 0.930 . S
C1794 C1793 1.400 . S
C1794 C1797 1.386 . S
H1795 C1811 0.930 . S
H1796 C1812 0.931 . S
C1797 H1785 0.929 . S
C1797 C1791 1.390 . S
C1797 C1794 1.386 . S
C1798 C1793 1.490 . S
C1798 C1800 1.395 . S
C1798 C1801 1.403 . S
H1799 C1805 0.930 . S
C1800 H1786 0.930 . S
C1800 C1798 1.395 . S
C1800 C1803 1.403 . S
C1801 C1798 1.403 . S
C1801 C1802 1.524 . S
C1801 C1805 1.400 . S
C1802 H1787 0.960 . S
C1802 H1788 0.960 . S
C1802 H1789 0.960 . S
C1802 C1801 1.524 . S
C1803 C1800 1.403 . S
C1803 C1804 1.392 . S
C1803 C1807 1.495 . S
C1804 C1803 1.392 . S
C1804 C1805 1.385 . S
C1804 C1806 1.478 . S
C1805 H1799 0.930 . S
C1805 C1801 1.400 . S
C1805 C1804 1.385 . S
C1806 C1804 1.478 . S
C1806 C1808 1.381 . S
C1806 C1812 1.383 . S
C1807 C1803 1.495 . S
C1807 H1813 0.959 . S
C1807 H1814 0.961 . S
C1807 H1815 0.960 . S
C1808 C1806 1.381 . S
C1808 C1809 1.394 . S
C1808 H1816 0.930 . S
C1809 C1808 1.394 . S
C1809 C1810 1.383 . S
C1809 H1817 0.929 . S
C1810 C1809 1.383 . S
C1810 C1811 1.377 . S
C1811 H1795 0.930 . S
C1811 C1810 1.377 . S
C1811 C1812 1.379 . S
C1812 H1796 0.931 . S
C1812 C1806 1.383 . S
C1812 C1811 1.379 . S
H1813 C1807 0.959 . S
H1814 C1807 0.961 . S
H1815 C1807 0.960 . S
H1816 C1808 0.930 . S
H1817 C1809 0.929 . S
H1818 C1826 0.929 . S
H1819 C1828 0.930 . S
H1820 C1830 0.930 . S
H1821 C1833 0.929 . S
H1822 C1836 0.930 . S
H1823 C1838 0.960 . S
H1824 C1838 0.960 . S
H1825 C1838 0.960 . S
C1826 H1818 0.929 . S
C1826 C1827 1.377 . S
C1826 C1828 1.384 . S
C1827 C1826 1.377 . S
C1827 C1833 1.390 . S
C1828 H1819 0.930 . S
C1828 C1826 1.384 . S
C1828 C1829 1.372 . S
C1829 C1828 1.372 . S
C1829 C1830 1.400 . S
C1829 C1834 1.490 . S
C1830 H1820 0.930 . S
C1830 C1829 1.400 . S
C1830 C1833 1.386 . S
H1831 C1847 0.930 . S
H1832 C1848 0.931 . S
C1833 H1821 0.929 . S
C1833 C1827 1.390 . S
C1833 C1830 1.386 . S
C1834 C1829 1.490 . S
C1834 C1836 1.395 . S
C1834 C1837 1.403 . S
H1835 C1841 0.930 . S
C1836 H1822 0.930 . S
C1836 C1834 1.395 . S
C1836 C1839 1.403 . S
C1837 C1834 1.403 . S
C1837 C1838 1.524 . S
C1837 C1841 1.400 . S
C1838 H1823 0.960 . S
C1838 H1824 0.960 . S
C1838 H1825 0.960 . S
C1838 C1837 1.524 . S
C1839 C1836 1.403 . S
C1839 C1840 1.392 . S
C1839 C1843 1.495 . S
C1840 C1839 1.392 . S
C1840 C1841 1.385 . S
C1840 C1842 1.478 . S
C1841 H1835 0.930 . S
C1841 C1837 1.400 . S
C1841 C1840 1.385 . S
C1842 C1840 1.478 . S
C1842 C1844 1.381 . S
C1842 C1848 1.383 . S
C1843 C1839 1.495 . S
C1843 H1849 0.959 . S
C1843 H1850 0.961 . S
C1843 H1851 0.960 . S
C1844 C1842 1.381 . S
C1844 C1845 1.394 . S
C1844 H1852 0.930 . S
C1845 C1844 1.394 . S
C1845 C1846 1.383 . S
C1845 H1853 0.929 . S
C1846 C1845 1.383 . S
C1846 C1847 1.377 . S
C1847 H1831 0.930 . S
C1847 C1846 1.377 . S
C1847 C1848 1.379 . S
C1848 H1832 0.931 . S
C1848 C1842 1.383 . S
C1848 C1847 1.379 . S
H1849 C1843 0.959 . S
H1850 C1843 0.961 . S
H1851 C1843 0.960 . S
H1852 C1844 0.930 . S
H1853 C1845 0.929 . S
H1854 C1862 0.929 . S
H1855 C1864 0.930 . S
H1856 C1866 0.930 . S
H1857 C1869 0.929 . S
H1858 C1872 0.930 . S
H1859 C1874 0.960 . S
H1860 C1874 0.960 . S
H1861 C1874 0.960 . S
C1862 H1854 0.929 . S
C1862 C1863 1.377 . S
C1862 C1864 1.384 . S
C1863 C1862 1.377 . S
C1863 C1869 1.390 . S
C1864 H1855 0.930 . S
C1864 C1862 1.384 . S
C1864 C1865 1.372 . S
C1865 C1864 1.372 . S
C1865 C1866 1.400 . S
C1865 C1870 1.490 . S
C1866 H1856 0.930 . S
C1866 C1865 1.400 . S
C1866 C1869 1.386 . S
H1867 C1883 0.930 . S
H1868 C1884 0.931 . S
C1869 H1857 0.929 . S
C1869 C1863 1.390 . S
C1869 C1866 1.386 . S
C1870 C1865 1.490 . S
C1870 C1872 1.395 . S
C1870 C1873 1.403 . S
H1871 C1877 0.930 . S
C1872 H1858 0.930 . S
C1872 C1870 1.395 . S
C1872 C1875 1.403 . S
C1873 C1870 1.403 . S
C1873 C1874 1.524 . S
C1873 C1877 1.400 . S
C1874 H1859 0.960 . S
C1874 H1860 0.960 . S
C1874 H1861 0.960 . S
C1874 C1873 1.524 . S
C1875 C1872 1.403 . S
C1875 C1876 1.392 . S
C1875 C1879 1.495 . S
C1876 C1875 1.392 . S
C1876 C1877 1.385 . S
C1876 C1878 1.478 . S
C1877 H1871 0.930 . S
C1877 C1873 1.400 . S
C1877 C1876 1.385 . S
C1878 C1876 1.478 . S
C1878 C1880 1.381 . S
C1878 C1884 1.383 . S
C1879 C1875 1.495 . S
C1879 H1885 0.959 . S
C1879 H1886 0.961 . S
C1879 H1887 0.960 . S
C1880 C1878 1.381 . S
C1880 C1881 1.394 . S
C1880 H1888 0.930 . S
C1881 C1880 1.394 . S
C1881 C1882 1.383 . S
C1881 H1889 0.929 . S
C1882 C1881 1.383 . S
C1882 C1883 1.377 . S
C1883 H1867 0.930 . S
C1883 C1882 1.377 . S
C1883 C1884 1.379 . S
C1884 H1868 0.931 . S
C1884 C1878 1.383 . S
C1884 C1883 1.379 . S
H1885 C1879 0.959 . S
H1886 C1879 0.961 . S
H1887 C1879 0.960 . S
H1888 C1880 0.930 . S
H1889 C1881 0.929 . S
H1890 C1898 0.929 . S
H1891 C1900 0.930 . S
H1892 C1902 0.930 . S
H1893 C1905 0.929 . S
H1894 C1908 0.930 . S
H1895 C1910 0.960 . S
H1896 C1910 0.960 . S
H1897 C1910 0.960 . S
C1898 H1890 0.929 . S
C1898 C1899 1.377 . S
C1898 C1900 1.384 . S
C1899 C1898 1.377 . S
C1899 C1905 1.390 . S
C1900 H1891 0.930 . S
C1900 C1898 1.384 . S
C1900 C1901 1.372 . S
C1901 C1900 1.372 . S
C1901 C1902 1.400 . S
C1901 C1906 1.490 . S
C1902 H1892 0.930 . S
C1902 C1901 1.400 . S
C1902 C1905 1.386 . S
H1903 C1919 0.930 . S
H1904 C1920 0.931 . S
C1905 H1893 0.929 . S
C1905 C1899 1.390 . S
C1905 C1902 1.386 . S
C1906 C1901 1.490 . S
C1906 C1908 1.395 . S
C1906 C1909 1.403 . S
H1907 C1913 0.930 . S
C1908 H1894 0.930 . S
C1908 C1906 1.395 . S
C1908 C1911 1.403 . S
C1909 C1906 1.403 . S
C1909 C1910 1.524 . S
C1909 C1913 1.400 . S
C1910 H1895 0.960 . S
C1910 H1896 0.960 . S
C1910 H1897 0.960 . S
C1910 C1909 1.524 . S
C1911 C1908 1.403 . S
C1911 C1912 1.392 . S
C1911 C1915 1.495 . S
C1912 C1911 1.392 . S
C1912 C1913 1.385 . S
C1912 C1914 1.478 . S
C1913 H1907 0.930 . S
C1913 C1909 1.400 . S
C1913 C1912 1.385 . S
C1914 C1912 1.478 . S
C1914 C1916 1.381 . S
C1914 C1920 1.383 . S
C1915 C1911 1.495 . S
C1915 H1921 0.959 . S
C1915 H1922 0.961 . S
C1915 H1923 0.960 . S
C1916 C1914 1.381 . S
C1916 C1917 1.394 . S
C1916 H1924 0.930 . S
C1917 C1916 1.394 . S
C1917 C1918 1.383 . S
C1917 H1925 0.929 . S
C1918 C1917 1.383 . S
C1918 C1919 1.377 . S
C1919 H1903 0.930 . S
C1919 C1918 1.377 . S
C1919 C1920 1.379 . S
C1920 H1904 0.931 . S
C1920 C1914 1.383 . S
C1920 C1919 1.379 . S
H1921 C1915 0.959 . S
H1922 C1915 0.961 . S
H1923 C1915 0.960 . S
H1924 C1916 0.930 . S
H1925 C1917 0.929 . S
H1926 C1934 0.929 . S
H1927 C1936 0.930 . S
H1928 C1938 0.930 . S
H1929 C1941 0.929 . S
H1930 C1944 0.930 . S
H1931 C1946 0.960 . S
H1932 C1946 0.960 . S
H1933 C1946 0.960 . S
C1934 H1926 0.929 . S
C1934 C1935 1.377 . S
C1934 C1936 1.384 . S
C1935 C1934 1.377 . S
C1935 C1941 1.390 . S
C1936 H1927 0.930 . S
C1936 C1934 1.384 . S
C1936 C1937 1.372 . S
C1937 C1936 1.372 . S
C1937 C1938 1.400 . S
C1937 C1942 1.490 . S
C1938 H1928 0.930 . S
C1938 C1937 1.400 . S
C1938 C1941 1.386 . S
H1939 C1955 0.930 . S
H1940 C1956 0.931 . S
C1941 H1929 0.929 . S
C1941 C1935 1.390 . S
C1941 C1938 1.386 . S
C1942 C1937 1.490 . S
C1942 C1944 1.395 . S
C1942 C1945 1.403 . S
H1943 C1949 0.930 . S
C1944 H1930 0.930 . S
C1944 C1942 1.395 . S
C1944 C1947 1.403 . S
C1945 C1942 1.403 . S
C1945 C1946 1.524 . S
C1945 C1949 1.400 . S
C1946 H1931 0.960 . S
C1946 H1932 0.960 . S
C1946 H1933 0.960 . S
C1946 C1945 1.524 . S
C1947 C1944 1.403 . S
C1947 C1948 1.392 . S
C1947 C1951 1.495 . S
C1948 C1947 1.392 . S
C1948 C1949 1.385 . S
C1948 C1950 1.478 . S
C1949 H1943 0.930 . S
C1949 C1945 1.400 . S
C1949 C1948 1.385 . S
C1950 C1948 1.478 . S
C1950 C1952 1.381 . S
C1950 C1956 1.383 . S
C1951 C1947 1.495 . S
C1951 H1957 0.959 . S
C1951 H1958 0.961 . S
C1951 H1959 0.960 . S
C1952 C1950 1.381 . S
C1952 C1953 1.394 . S
C1952 H1960 0.930 . S
C1953 C1952 1.394 . S
C1953 C1954 1.383 . S
C1953 H1961 0.929 . S
C1954 C1953 1.383 . S
C1954 C1955 1.377 . S
C1955 H1939 0.930 . S
C1955 C1954 1.377 . S
C1955 C1956 1.379 . S
C1956 H1940 0.931 . S
C1956 C1950 1.383 . S
C1956 C1955 1.379 . S
H1957 C1951 0.959 . S
H1958 C1951 0.961 . S
H1959 C1951 0.960 . S
H1960 C1952 0.930 . S
H1961 C1953 0.929 . S
H1962 C1970 0.929 . S
H1963 C1972 0.930 . S
H1964 C1974 0.930 . S
H1965 C1977 0.929 . S
H1966 C1980 0.930 . S
H1967 C1982 0.960 . S
H1968 C1982 0.960 . S
H1969 C1982 0.960 . S
C1970 H1962 0.929 . S
C1970 C1971 1.377 . S
C1970 C1972 1.384 . S
C1971 C1970 1.377 . S
C1971 C1977 1.390 . S
C1972 H1963 0.930 . S
C1972 C1970 1.384 . S
C1972 C1973 1.372 . S
C1973 C1972 1.372 . S
C1973 C1974 1.400 . S
C1973 C1978 1.490 . S
C1974 H1964 0.930 . S
C1974 C1973 1.400 . S
C1974 C1977 1.386 . S
H1975 C1991 0.930 . S
H1976 C1992 0.931 . S
C1977 H1965 0.929 . S
C1977 C1971 1.390 . S
C1977 C1974 1.386 . S
C1978 C1973 1.490 . S
C1978 C1980 1.395 . S
C1978 C1981 1.403 . S
H1979 C1985 0.930 . S
C1980 H1966 0.930 . S
C1980 C1978 1.395 . S
C1980 C1983 1.403 . S
C1981 C1978 1.403 . S
C1981 C1982 1.524 . S
C1981 C1985 1.400 . S
C1982 H1967 0.960 . S
C1982 H1968 0.960 . S
C1982 H1969 0.960 . S
C1982 C1981 1.524 . S
C1983 C1980 1.403 . S
C1983 C1984 1.392 . S
C1983 C1987 1.495 . S
C1984 C1983 1.392 . S
C1984 C1985 1.385 . S
C1984 C1986 1.478 . S
C1985 H1979 0.930 . S
C1985 C1981 1.400 . S
C1985 C1984 1.385 . S
C1986 C1984 1.478 . S
C1986 C1988 1.381 . S
C1986 C1992 1.383 . S
C1987 C1983 1.495 . S
C1987 H1993 0.959 . S
C1987 H1994 0.961 . S
C1987 H1995 0.960 . S
C1988 C1986 1.381 . S
C1988 C1989 1.394 . S
C1988 H1996 0.930 . S
C1989 C1988 1.394 . S
C1989 C1990 1.383 . S
C1989 H1997 0.929 . S
C1990 C1989 1.383 . S
C1990 C1991 1.377 . S
C1991 H1975 0.930 . S
C1991 C1990 1.377 . S
C1991 C1992 1.379 . S
C1992 H1976 0.931 . S
C1992 C1986 1.383 . S
C1992 C1991 1.379 . S
H1993 C1987 0.959 . S
H1994 C1987 0.961 . S
H1995 C1987 0.960 . S
H1996 C1988 0.930 . S
H1997 C1989 0.929 . S
H1998 C2006 0.929 . S
H1999 C2008 0.930 . S
H2000 C2010 0.930 . S
H2001 C2013 0.929 . S
H2002 C2016 0.930 . S
H2003 C2018 0.960 . S
H2004 C2018 0.960 . S
H2005 C2018 0.960 . S
C2006 H1998 0.929 . S
C2006 C2007 1.377 . S
C2006 C2008 1.384 . S
C2007 C2006 1.377 . S
C2007 C2013 1.390 . S
C2008 H1999 0.930 . S
C2008 C2006 1.384 . S
C2008 C2009 1.372 . S
C2009 C2008 1.372 . S
C2009 C2010 1.400 . S
C2009 C2014 1.490 . S
C2010 H2000 0.930 . S
C2010 C2009 1.400 . S
C2010 C2013 1.386 . S
H2011 C2027 0.930 . S
H2012 C2028 0.931 . S
C2013 H2001 0.929 . S
C2013 C2007 1.390 . S
C2013 C2010 1.386 . S
C2014 C2009 1.490 . S
C2014 C2016 1.395 . S
C2014 C2017 1.403 . S
H2015 C2021 0.930 . S
C2016 H2002 0.930 . S
C2016 C2014 1.395 . S
C2016 C2019 1.403 . S
C2017 C2014 1.403 . S
C2017 C2018 1.524 . S
C2017 C2021 1.400 . S
C2018 H2003 0.960 . S
C2018 H2004 0.960 . S
C2018 H2005 0.960 . S
C2018 C2017 1.524 . S
C2019 C2016 1.403 . S
C2019 C2020 1.392 . S
C2019 C2023 1.495 . S
C2020 C2019 1.392 . S
C2020 C2021 1.385 . S
C2020 C2022 1.478 . S
C2021 H2015 0.930 . S
C2021 C2017 1.400 . S
C2021 C2020 1.385 . S
C2022 C2020 1.478 . S
C2022 C2024 1.381 . S
C2022 C2028 1.383 . S
C2023 C2019 1.495 . S
C2023 H2029 0.959 . S
C2023 H2030 0.961 . S
C2023 H2031 0.960 . S
C2024 C2022 1.381 . S
C2024 C2025 1.394 . S
C2024 H2032 0.930 . S
C2025 C2024 1.394 . S
C2025 C2026 1.383 . S
C2025 H2033 0.929 . S
C2026 C2025 1.383 . S
C2026 C2027 1.377 . S
C2027 H2011 0.930 . S
C2027 C2026 1.377 . S
C2027 C2028 1.379 . S
C2028 H2012 0.931 . S
C2028 C2022 1.383 . S
C2028 C2027 1.379 . S
H2029 C2023 0.959 . S
H2030 C2023 0.961 . S
H2031 C2023 0.960 . S
H2032 C2024 0.930 . S
H2033 C2025 0.929 . S
H2034 C2042 0.929 . S
H2035 C2044 0.930 . S
H2036 C2046 0.946 . S
H2037 C2049 0.929 . S
H2038 C2052 0.930 . S
H2039 C2054 0.960 . S
H2040 C2054 0.960 . S
H2041 C2054 0.960 . S
C2042 H2034 0.929 . S
C2042 C2043 1.377 . S
C2042 C2044 1.384 . S
C2043 C2042 1.377 . S
C2043 C2049 1.390 1_556 S
C2044 H2035 0.930 . S
C2044 C2042 1.384 . S
C2044 C2045 1.372 . S
C2045 C2044 1.372 . S
C2045 C2046 1.400 . S
C2045 C2050 1.490 . S
C2046 H2036 0.946 . S
C2046 C2045 1.400 . S
C2046 C2049 1.386 1_556 S
H2047 C2063 0.930 . S
H2048 C2064 0.931 . S
C2049 H2037 0.929 . S
C2049 C2043 1.390 1_554 S
C2049 C2046 1.386 1_554 S
C2050 C2045 1.490 . S
C2050 C2052 1.395 . S
C2050 C2053 1.403 . S
H2051 C2057 0.930 . S
C2052 H2038 0.930 . S
C2052 C2050 1.395 . S
C2052 C2055 1.403 . S
C2053 C2050 1.403 . S
C2053 C2054 1.524 . S
C2053 C2057 1.400 . S
C2054 H2039 0.960 . S
C2054 H2040 0.960 . S
C2054 H2041 0.960 . S
C2054 C2053 1.524 . S
C2055 C2052 1.403 . S
C2055 C2056 1.392 . S
C2055 C2059 1.495 . S
C2056 C2055 1.392 . S
C2056 C2057 1.385 . S
C2056 C2058 1.478 . S
C2057 H2051 0.930 . S
C2057 C2053 1.400 . S
C2057 C2056 1.385 . S
C2058 C2056 1.478 . S
C2058 C2060 1.381 . S
C2058 C2064 1.383 . S
C2059 C2055 1.495 . S
C2059 H2065 0.959 . S
C2059 H2066 0.961 . S
C2059 H2067 0.960 . S
C2060 C2058 1.381 . S
C2060 C2061 1.394 . S
C2060 H2068 0.930 . S
C2061 C2060 1.394 . S
C2061 C2062 1.383 . S
C2061 H2069 0.929 . S
C2062 C2061 1.383 . S
C2062 C2063 1.377 . S
C2063 H2047 0.930 . S
C2063 C2062 1.377 . S
C2063 C2064 1.379 . S
C2064 H2048 0.931 . S
C2064 C2058 1.383 . S
C2064 C2063 1.379 . S
H2065 C2059 0.959 . S
H2066 C2059 0.961 . S
H2067 C2059 0.960 . S
H2068 C2060 0.930 . S
H2069 C2061 0.929 . S
H2070 C2078 0.929 . S
H2071 C2080 0.930 . S
H2072 C2082 0.930 1_554 S
H2073 C2085 0.929 . S
H2074 C2088 0.930 . S
H2075 C2090 0.960 . S
H2076 C2090 0.960 . S
H2077 C2090 0.960 . S
C2078 H2070 0.929 . S
C2078 C2079 1.377 . S
C2078 C2080 1.384 . S
C2079 C2078 1.377 . S
C2079 C2085 1.390 1_556 S
C2080 H2071 0.930 . S
C2080 C2078 1.384 . S
C2080 C2081 1.372 . S
C2081 C2080 1.372 . S
C2081 C2082 1.400 . S
C2081 C2086 1.490 . S
C2082 H2072 0.930 1_556 S
C2082 C2081 1.400 . S
C2082 C2085 1.386 1_556 S
H2083 C2099 0.930 . S
H2084 C2100 0.931 . S
C2085 H2073 0.929 . S
C2085 C2079 1.390 1_554 S
C2085 C2082 1.386 1_554 S
C2086 C2081 1.490 . S
C2086 C2088 1.395 . S
C2086 C2089 1.403 . S
H2087 C2093 0.930 . S
C2088 H2074 0.930 . S
C2088 C2086 1.395 . S
C2088 C2091 1.403 . S
C2089 C2086 1.403 . S
C2089 C2090 1.524 . S
C2089 C2093 1.400 . S
C2090 H2075 0.960 . S
C2090 H2076 0.960 . S
C2090 H2077 0.960 . S
C2090 C2089 1.524 . S
C2091 C2088 1.403 . S
C2091 C2092 1.392 . S
C2091 C2095 1.495 . S
C2092 C2091 1.392 . S
C2092 C2093 1.385 . S
C2092 C2094 1.478 . S
C2093 H2087 0.930 . S
C2093 C2089 1.400 . S
C2093 C2092 1.385 . S
C2094 C2092 1.478 . S
C2094 C2096 1.381 . S
C2094 C2100 1.383 . S
C2095 C2091 1.495 . S
C2095 H2101 0.959 . S
C2095 H2102 0.961 . S
C2095 H2103 0.960 . S
C2096 C2094 1.381 . S
C2096 C2097 1.394 . S
C2096 H2104 0.930 . S
C2097 C2096 1.394 . S
C2097 C2098 1.383 . S
C2097 H2105 0.929 . S
C2098 C2097 1.383 . S
C2098 C2099 1.377 . S
C2099 H2083 0.930 . S
C2099 C2098 1.377 . S
C2099 C2100 1.379 . S
C2100 H2084 0.931 . S
C2100 C2094 1.383 . S
C2100 C2099 1.379 . S
H2101 C2095 0.959 . S
H2102 C2095 0.961 . S
H2103 C2095 0.960 . S
H2104 C2096 0.930 . S
H2105 C2097 0.929 . S
H2106 C2114 0.929 . S
H2107 C2116 0.930 . S
H2108 C2118 0.930 . S
H2109 C2121 0.929 . S
H2110 C2124 0.930 . S
H2111 C2126 0.960 . S
H2112 C2126 0.960 . S
H2113 C2126 0.960 . S
C2114 H2106 0.929 . S
C2114 C2115 1.377 1_554 S
C2114 C2116 1.384 . S
C2115 C2114 1.377 1_556 S
C2115 C2121 1.390 . S
C2116 H2107 0.930 . S
C2116 C2114 1.384 . S
C2116 C2117 1.372 1_554 S
C2117 C2116 1.372 1_556 S
C2117 C2118 1.400 . S
C2117 C2122 1.490 . S
C2118 H2108 0.930 . S
C2118 C2117 1.400 . S
C2118 C2121 1.386 . S
H2119 C2135 0.930 . S
H2120 C2136 0.931 . S
C2121 H2109 0.929 . S
C2121 C2115 1.390 . S
C2121 C2118 1.386 . S
C2122 C2117 1.490 . S
C2122 C2124 1.395 . S
C2122 C2125 1.403 . S
H2123 C2129 0.930 . S
C2124 H2110 0.930 . S
C2124 C2122 1.395 . S
C2124 C2127 1.403 . S
C2125 C2122 1.403 . S
C2125 C2126 1.524 . S
C2125 C2129 1.400 . S
C2126 H2111 0.960 . S
C2126 H2112 0.960 . S
C2126 H2113 0.960 . S
C2126 C2125 1.524 . S
C2127 C2124 1.403 . S
C2127 C2128 1.392 . S
C2127 C2131 1.495 . S
C2128 C2127 1.392 . S
C2128 C2129 1.385 . S
C2128 C2130 1.478 . S
C2129 H2123 0.930 . S
C2129 C2125 1.400 . S
C2129 C2128 1.385 . S
C2130 C2128 1.478 . S
C2130 C2132 1.381 . S
C2130 C2136 1.383 . S
C2131 C2127 1.495 . S
C2131 H2137 0.959 . S
C2131 H2138 0.961 . S
C2131 H2139 0.960 . S
C2132 C2130 1.381 . S
C2132 C2133 1.394 . S
C2132 H2140 0.930 . S
C2133 C2132 1.394 . S
C2133 C2134 1.383 . S
C2133 H2141 0.929 . S
C2134 C2133 1.383 . S
C2134 C2135 1.377 . S
C2135 H2119 0.930 . S
C2135 C2134 1.377 . S
C2135 C2136 1.379 . S
C2136 H2120 0.931 . S
C2136 C2130 1.383 . S
C2136 C2135 1.379 . S
H2137 C2131 0.959 . S
H2138 C2131 0.961 . S
H2139 C2131 0.960 . S
H2140 C2132 0.930 . S
H2141 C2133 0.929 . S
H2142 C2150 0.929 . S
H2143 C2152 0.899 1_554 S
H2144 C2154 0.930 . S
H2145 C2157 0.929 . S
H2146 C2160 0.930 . S
H2147 C2162 0.960 . S
H2148 C2162 0.960 . S
H2149 C2162 0.960 . S
C2150 H2142 0.929 . S
C2150 C2151 1.377 1_554 S
C2150 C2152 1.369 1_554 S
C2151 C2150 1.377 1_556 S
C2151 C2157 1.390 . S
C2152 H2143 0.899 1_556 S
C2152 C2150 1.369 1_556 S
C2152 C2153 1.419 . S
C2153 C2152 1.419 . S
C2153 C2154 1.400 . S
C2153 C2158 1.490 . S
C2154 H2144 0.930 . S
C2154 C2153 1.400 . S
C2154 C2157 1.386 . S
H2155 C2171 0.930 . S
H2156 C2172 0.931 . S
C2157 H2145 0.929 . S
C2157 C2151 1.390 . S
C2157 C2154 1.386 . S
C2158 C2153 1.490 . S
C2158 C2160 1.395 . S
C2158 C2161 1.403 . S
H2159 C2165 0.930 . S
C2160 H2146 0.930 . S
C2160 C2158 1.395 . S
C2160 C2163 1.403 . S
C2161 C2158 1.403 . S
C2161 C2162 1.524 . S
C2161 C2165 1.400 . S
C2162 H2147 0.960 . S
C2162 H2148 0.960 . S
C2162 H2149 0.960 . S
C2162 C2161 1.524 . S
C2163 C2160 1.403 . S
C2163 C2164 1.392 . S
C2163 C2167 1.495 . S
C2164 C2163 1.392 . S
C2164 C2165 1.385 . S
C2164 C2166 1.478 . S
C2165 H2159 0.930 . S
C2165 C2161 1.400 . S
C2165 C2164 1.385 . S
C2166 C2164 1.478 . S
C2166 C2168 1.381 . S
C2166 C2172 1.383 . S
C2167 C2163 1.495 . S
C2167 H2173 0.959 . S
C2167 H2174 0.961 . S
C2167 H2175 0.960 . S
C2168 C2166 1.381 . S
C2168 C2169 1.394 . S
C2168 H2176 0.930 . S
C2169 C2168 1.394 . S
C2169 C2170 1.383 . S
C2169 H2177 0.929 . S
C2170 C2169 1.383 . S
C2170 C2171 1.377 . S
C2171 H2155 0.930 . S
C2171 C2170 1.377 . S
C2171 C2172 1.379 . S
C2172 H2156 0.931 . S
C2172 C2166 1.383 . S
C2172 C2171 1.379 . S
H2173 C2167 0.959 . S
H2174 C2167 0.961 . S
H2175 C2167 0.960 . S
H2176 C2168 0.930 . S
H2177 C2169 0.929 . S
H2178 C2186 0.929 . S
H2179 C2188 0.930 . S
H2180 C2190 0.930 . S
H2181 C2193 0.929 . S
H2182 C2196 0.930 . S
H2183 C2198 0.960 . S
H2184 C2198 0.960 . S
H2185 C2198 0.960 . S
C2186 H2178 0.929 . S
C2186 C2187 1.377 . S
C2186 C2188 1.384 . S
C2187 C2186 1.377 . S
C2187 C2193 1.390 . S
C2188 H2179 0.930 . S
C2188 C2186 1.384 . S
C2188 C2189 1.372 . S
C2189 C2188 1.372 . S
C2189 C2190 1.400 . S
C2189 C2194 1.490 . S
C2190 H2180 0.930 . S
C2190 C2189 1.400 . S
C2190 C2193 1.386 . S
H2191 C2207 0.930 . S
H2192 C2208 0.931 . S
C2193 H2181 0.929 . S
C2193 C2187 1.390 . S
C2193 C2190 1.386 . S
C2194 C2189 1.490 . S
C2194 C2196 1.395 . S
C2194 C2197 1.403 . S
H2195 C2201 0.930 . S
C2196 H2182 0.930 . S
C2196 C2194 1.395 . S
C2196 C2199 1.403 . S
C2197 C2194 1.403 . S
C2197 C2198 1.524 1_556 S
C2197 C2201 1.400 . S
C2198 H2183 0.960 . S
C2198 H2184 0.960 . S
C2198 H2185 0.960 . S
C2198 C2197 1.524 1_554 S
C2199 C2196 1.403 . S
C2199 C2200 1.392 . S
C2199 C2203 1.495 . S
C2200 C2199 1.392 . S
C2200 C2201 1.385 . S
C2200 C2202 1.478 . S
C2201 H2195 0.930 . S
C2201 C2197 1.400 . S
C2201 C2200 1.385 . S
C2202 C2200 1.478 . S
C2202 C2204 1.381 . S
C2202 C2208 1.383 . S
C2203 C2199 1.495 . S
C2203 H2209 0.959 . S
C2203 H2210 0.961 . S
C2203 H2211 0.960 . S
C2204 C2202 1.381 . S
C2204 C2205 1.394 . S
C2204 H2212 0.930 . S
C2205 C2204 1.394 . S
C2205 C2206 1.383 . S
C2205 H2213 0.929 . S
C2206 C2205 1.383 . S
C2206 C2207 1.377 . S
C2207 H2191 0.930 . S
C2207 C2206 1.377 . S
C2207 C2208 1.379 . S
C2208 H2192 0.931 . S
C2208 C2202 1.383 . S
C2208 C2207 1.379 . S
H2209 C2203 0.959 . S
H2210 C2203 0.961 . S
H2211 C2203 0.960 . S
H2212 C2204 0.930 . S
H2213 C2205 0.929 . S
H2214 C2222 0.929 . S
H2215 C2224 0.930 . S
H2216 C2226 0.930 . S
H2217 C2229 0.929 . S
H2218 C2232 0.930 . S
H2219 C2234 0.960 . S
H2220 C2234 0.960 . S
H2221 C2234 0.960 . S
C2222 H2214 0.929 . S
C2222 C2223 1.377 . S
C2222 C2224 1.384 . S
C2223 C2222 1.377 . S
C2223 C2229 1.390 1_556 S
C2224 H2215 0.930 . S
C2224 C2222 1.384 . S
C2224 C2225 1.372 . S
C2225 C2224 1.372 . S
C2225 C2226 1.400 . S
C2225 C2230 1.490 . S
C2226 H2216 0.930 . S
C2226 C2225 1.400 . S
C2226 C2229 1.386 1_556 S
H2227 C2243 0.930 . S
H2228 C2244 0.931 . S
C2229 H2217 0.929 . S
C2229 C2223 1.390 1_554 S
C2229 C2226 1.386 1_554 S
C2230 C2225 1.490 . S
C2230 C2232 1.395 . S
C2230 C2233 1.403 . S
H2231 C2237 0.930 . S
C2232 H2218 0.930 . S
C2232 C2230 1.395 . S
C2232 C2235 1.403 . S
C2233 C2230 1.403 . S
C2233 C2234 1.524 . S
C2233 C2237 1.400 . S
C2234 H2219 0.960 . S
C2234 H2220 0.960 . S
C2234 H2221 0.960 . S
C2234 C2233 1.524 . S
C2235 C2232 1.403 . S
C2235 C2236 1.392 . S
C2235 C2239 1.495 . S
C2236 C2235 1.392 . S
C2236 C2237 1.385 . S
C2236 C2238 1.478 . S
C2237 H2231 0.930 . S
C2237 C2233 1.400 . S
C2237 C2236 1.385 . S
C2238 C2236 1.478 . S
C2238 C2240 1.381 . S
C2238 C2244 1.383 . S
C2239 C2235 1.495 . S
C2239 H2245 0.959 . S
C2239 H2246 0.961 . S
C2239 H2247 0.960 . S
C2240 C2238 1.381 . S
C2240 C2241 1.394 . S
C2240 H2248 0.930 . S
C2241 C2240 1.394 . S
C2241 C2242 1.383 . S
C2241 H2249 0.929 . S
C2242 C2241 1.383 . S
C2242 C2243 1.377 . S
C2243 H2227 0.930 . S
C2243 C2242 1.377 . S
C2243 C2244 1.379 . S
C2244 H2228 0.931 . S
C2244 C2238 1.383 . S
C2244 C2243 1.379 . S
H2245 C2239 0.959 . S
H2246 C2239 0.961 . S
H2247 C2239 0.960 . S
H2248 C2240 0.930 . S
H2249 C2241 0.929 . S
H2250 C2258 0.929 . S
H2251 C2260 0.930 . S
H2252 C2262 0.930 . S
H2253 C2265 0.929 . S
H2254 C2268 0.930 . S
H2255 C2270 0.960 . S
H2256 C2270 0.960 . S
H2257 C2270 0.960 . S
C2258 H2250 0.929 . S
C2258 C2259 1.377 . S
C2258 C2260 1.384 . S
C2259 C2258 1.377 . S
C2259 C2265 1.390 . S
C2260 H2251 0.930 . S
C2260 C2258 1.384 . S
C2260 C2261 1.372 . S
C2261 C2260 1.372 . S
C2261 C2262 1.400 . S
C2261 C2266 1.490 . S
C2262 H2252 0.930 . S
C2262 C2261 1.400 . S
C2262 C2265 1.386 . S
H2263 C2279 0.930 . S
H2264 C2280 0.931 . S
C2265 H2253 0.929 . S
C2265 C2259 1.390 . S
C2265 C2262 1.386 . S
C2266 C2261 1.490 . S
C2266 C2268 1.395 . S
C2266 C2269 1.403 . S
H2267 C2273 0.930 . S
C2268 H2254 0.930 . S
C2268 C2266 1.395 . S
C2268 C2271 1.403 . S
C2269 C2266 1.403 . S
C2269 C2270 1.524 . S
C2269 C2273 1.400 . S
C2270 H2255 0.960 . S
C2270 H2256 0.960 . S
C2270 H2257 0.960 . S
C2270 C2269 1.524 . S
C2271 C2268 1.403 . S
C2271 C2272 1.392 . S
C2271 C2275 1.495 . S
C2272 C2271 1.392 . S
C2272 C2273 1.385 . S
C2272 C2274 1.478 . S
C2273 H2267 0.930 . S
C2273 C2269 1.400 . S
C2273 C2272 1.385 . S
C2274 C2272 1.478 . S
C2274 C2276 1.381 . S
C2274 C2280 1.383 . S
C2275 C2271 1.495 . S
C2275 H2281 0.959 . S
C2275 H2282 0.961 . S
C2275 H2283 0.960 . S
C2276 C2274 1.381 . S
C2276 C2277 1.394 . S
C2276 H2284 0.930 . S
C2277 C2276 1.394 . S
C2277 C2278 1.383 . S
C2277 H2285 0.929 . S
C2278 C2277 1.383 . S
C2278 C2279 1.377 . S
C2279 H2263 0.930 . S
C2279 C2278 1.377 . S
C2279 C2280 1.379 . S
C2280 H2264 0.931 . S
C2280 C2274 1.383 . S
C2280 C2279 1.379 . S
H2281 C2275 0.959 . S
H2282 C2275 0.961 . S
H2283 C2275 0.960 . S
H2284 C2276 0.930 . S
H2285 C2277 0.929 . S
H2286 C2294 0.929 . S
H2287 C2296 0.930 . S
H2288 C2298 0.930 . S
H2289 C2301 0.929 . S
H2290 C2304 0.930 . S
H2291 C2306 0.960 . S
H2292 C2306 0.960 . S
H2293 C2306 0.960 . S
C2294 H2286 0.929 . S
C2294 C2295 1.377 . S
C2294 C2296 1.384 . S
C2295 C2294 1.377 . S
C2295 C2301 1.390 . S
C2296 H2287 0.930 . S
C2296 C2294 1.384 . S
C2296 C2297 1.372 . S
C2297 C2296 1.372 . S
C2297 C2298 1.400 . S
C2297 C2302 1.490 . S
C2298 H2288 0.930 . S
C2298 C2297 1.400 . S
C2298 C2301 1.386 . S
H2299 C2315 0.930 . S
H2300 C2316 0.931 . S
C2301 H2289 0.929 . S
C2301 C2295 1.390 . S
C2301 C2298 1.386 . S
C2302 C2297 1.490 . S
C2302 C2304 1.395 . S
C2302 C2305 1.403 . S
H2303 C2309 0.930 . S
C2304 H2290 0.930 . S
C2304 C2302 1.395 . S
C2304 C2307 1.403 . S
C2305 C2302 1.403 . S
C2305 C2306 1.524 . S
C2305 C2309 1.400 . S
C2306 H2291 0.960 . S
C2306 H2292 0.960 . S
C2306 H2293 0.960 . S
C2306 C2305 1.524 . S
C2307 C2304 1.403 . S
C2307 C2308 1.392 . S
C2307 C2311 1.495 . S
C2308 C2307 1.392 . S
C2308 C2309 1.385 . S
C2308 C2310 1.478 . S
C2309 H2303 0.930 . S
C2309 C2305 1.400 . S
C2309 C2308 1.385 . S
C2310 C2308 1.478 . S
C2310 C2312 1.381 . S
C2310 C2316 1.383 . S
C2311 C2307 1.495 . S
C2311 H2317 0.959 . S
C2311 H2318 0.961 . S
C2311 H2319 0.960 . S
C2312 C2310 1.381 . S
C2312 C2313 1.394 . S
C2312 H2320 0.930 . S
C2313 C2312 1.394 . S
C2313 C2314 1.383 . S
C2313 H2321 0.929 . S
C2314 C2313 1.383 . S
C2314 C2315 1.377 . S
C2315 H2299 0.930 . S
C2315 C2314 1.377 . S
C2315 C2316 1.379 . S
C2316 H2300 0.931 . S
C2316 C2310 1.383 . S
C2316 C2315 1.379 . S
H2317 C2311 0.959 . S
H2318 C2311 0.961 . S
H2319 C2311 0.960 . S
H2320 C2312 0.930 . S
H2321 C2313 0.929 . S
H2322 C2330 0.929 . S
H2323 C2332 0.930 . S
H2324 C2334 0.930 . S
H2325 C2337 0.929 . S
H2326 C2340 0.930 . S
H2327 C2342 0.960 . S
H2328 C2342 0.960 . S
H2329 C2342 0.960 . S
C2330 H2322 0.929 . S
C2330 C2331 1.377 . S
C2330 C2332 1.384 . S
C2331 C2330 1.377 . S
C2331 C2337 1.390 . S
C2332 H2323 0.930 . S
C2332 C2330 1.384 . S
C2332 C2333 1.372 . S
C2333 C2332 1.372 . S
C2333 C2334 1.400 . S
C2333 C2338 1.490 . S
C2334 H2324 0.930 . S
C2334 C2333 1.400 . S
C2334 C2337 1.386 . S
H2335 C2351 0.930 . S
H2336 C2352 0.931 . S
C2337 H2325 0.929 . S
C2337 C2331 1.390 . S
C2337 C2334 1.386 . S
C2338 C2333 1.490 . S
C2338 C2340 1.395 . S
C2338 C2341 1.403 . S
H2339 C2345 0.930 . S
C2340 H2326 0.930 . S
C2340 C2338 1.395 . S
C2340 C2343 1.403 . S
C2341 C2338 1.403 . S
C2341 C2342 1.524 . S
C2341 C2345 1.400 . S
C2342 H2327 0.960 . S
C2342 H2328 0.960 . S
C2342 H2329 0.960 . S
C2342 C2341 1.524 . S
C2343 C2340 1.403 . S
C2343 C2344 1.392 . S
C2343 C2347 1.495 . S
C2344 C2343 1.392 . S
C2344 C2345 1.385 . S
C2344 C2346 1.478 . S
C2345 H2339 0.930 . S
C2345 C2341 1.400 . S
C2345 C2344 1.385 . S
C2346 C2344 1.478 . S
C2346 C2348 1.381 . S
C2346 C2352 1.383 . S
C2347 C2343 1.495 . S
C2347 H2353 0.959 . S
C2347 H2354 0.961 . S
C2347 H2355 0.960 . S
C2348 C2346 1.381 . S
C2348 C2349 1.394 . S
C2348 H2356 0.930 . S
C2349 C2348 1.394 . S
C2349 C2350 1.383 . S
C2349 H2357 0.929 . S
C2350 C2349 1.383 . S
C2350 C2351 1.377 . S
C2351 H2335 0.930 . S
C2351 C2350 1.377 . S
C2351 C2352 1.379 . S
C2352 H2336 0.931 . S
C2352 C2346 1.383 . S
C2352 C2351 1.379 . S
H2353 C2347 0.959 . S
H2354 C2347 0.961 . S
H2355 C2347 0.960 . S
H2356 C2348 0.930 . S
H2357 C2349 0.929 . S
H2358 C2366 0.929 . S
H2359 C2368 0.930 . S
H2360 C2370 0.930 . S
H2361 C2373 0.929 . S
H2362 C2376 0.930 . S
H2363 C2378 0.960 . S
H2364 C2378 0.960 . S
H2365 C2378 0.960 . S
C2366 H2358 0.929 . S
C2366 C2367 1.377 . S
C2366 C2368 1.384 . S
C2367 C2366 1.377 . S
C2367 C2373 1.390 . S
C2368 H2359 0.930 . S
C2368 C2366 1.384 . S
C2368 C2369 1.372 . S
C2369 C2368 1.372 . S
C2369 C2370 1.400 . S
C2369 C2374 1.490 . S
C2370 H2360 0.930 . S
C2370 C2369 1.400 . S
C2370 C2373 1.386 . S
H2371 C2387 0.930 . S
H2372 C2388 0.931 . S
C2373 H2361 0.929 . S
C2373 C2367 1.390 . S
C2373 C2370 1.386 . S
C2374 C2369 1.490 . S
C2374 C2376 1.395 . S
C2374 C2377 1.403 . S
H2375 C2381 0.930 . S
C2376 H2362 0.930 . S
C2376 C2374 1.395 . S
C2376 C2379 1.403 . S
C2377 C2374 1.403 . S
C2377 C2378 1.524 . S
C2377 C2381 1.400 . S
C2378 H2363 0.960 . S
C2378 H2364 0.960 . S
C2378 H2365 0.960 . S
C2378 C2377 1.524 . S
C2379 C2376 1.403 . S
C2379 C2380 1.392 . S
C2379 C2383 1.495 . S
C2380 C2379 1.392 . S
C2380 C2381 1.385 . S
C2380 C2382 1.478 . S
C2381 H2375 0.930 . S
C2381 C2377 1.400 . S
C2381 C2380 1.385 . S
C2382 C2380 1.478 . S
C2382 C2384 1.381 . S
C2382 C2388 1.383 . S
C2383 C2379 1.495 . S
C2383 H2389 0.959 . S
C2383 H2390 0.961 . S
C2383 H2391 0.960 . S
C2384 C2382 1.381 . S
C2384 C2385 1.394 . S
C2384 H2392 0.930 . S
C2385 C2384 1.394 . S
C2385 C2386 1.383 . S
C2385 H2393 0.929 . S
C2386 C2385 1.383 . S
C2386 C2387 1.377 . S
C2387 H2371 0.930 . S
C2387 C2386 1.377 . S
C2387 C2388 1.379 . S
C2388 H2372 0.931 . S
C2388 C2382 1.383 . S
C2388 C2387 1.379 . S
H2389 C2383 0.959 . S
H2390 C2383 0.961 . S
H2391 C2383 0.960 . S
H2392 C2384 0.930 . S
H2393 C2385 0.929 . S
H2394 C2402 0.929 . S
H2395 C2404 0.930 . S
H2396 C2406 0.930 . S
H2397 C2409 0.929 . S
H2398 C2412 0.930 . S
H2399 C2414 0.960 . S
H2400 C2414 0.960 . S
H2401 C2414 0.960 . S
C2402 H2394 0.929 . S
C2402 C2403 1.377 . S
C2402 C2404 1.384 . S
C2403 C2402 1.377 . S
C2403 C2409 1.390 . S
C2404 H2395 0.930 . S
C2404 C2402 1.384 . S
C2404 C2405 1.372 . S
C2405 C2404 1.372 . S
C2405 C2406 1.400 . S
C2405 C2410 1.490 . S
C2406 H2396 0.930 . S
C2406 C2405 1.400 . S
C2406 C2409 1.386 . S
H2407 C2423 0.930 . S
H2408 C2424 0.931 . S
C2409 H2397 0.929 . S
C2409 C2403 1.390 . S
C2409 C2406 1.386 . S
C2410 C2405 1.490 . S
C2410 C2412 1.395 . S
C2410 C2413 1.403 . S
H2411 C2417 0.930 . S
C2412 H2398 0.930 . S
C2412 C2410 1.395 . S
C2412 C2415 1.403 . S
C2413 C2410 1.403 . S
C2413 C2414 1.524 . S
C2413 C2417 1.400 . S
C2414 H2399 0.960 . S
C2414 H2400 0.960 . S
C2414 H2401 0.960 . S
C2414 C2413 1.524 . S
C2415 C2412 1.403 . S
C2415 C2416 1.392 . S
C2415 C2419 1.495 . S
C2416 C2415 1.392 . S
C2416 C2417 1.385 . S
C2416 C2418 1.478 . S
C2417 H2411 0.930 . S
C2417 C2413 1.400 . S
C2417 C2416 1.385 . S
C2418 C2416 1.478 . S
C2418 C2420 1.381 . S
C2418 C2424 1.383 . S
C2419 C2415 1.495 . S
C2419 H2425 0.959 . S
C2419 H2426 0.961 . S
C2419 H2427 0.960 . S
C2420 C2418 1.381 . S
C2420 C2421 1.394 . S
C2420 H2428 0.930 . S
C2421 C2420 1.394 . S
C2421 C2422 1.383 . S
C2421 H2429 0.929 . S
C2422 C2421 1.383 . S
C2422 C2423 1.377 . S
C2423 H2407 0.930 . S
C2423 C2422 1.377 . S
C2423 C2424 1.379 . S
C2424 H2408 0.931 . S
C2424 C2418 1.383 . S
C2424 C2423 1.379 . S
H2425 C2419 0.959 . S
H2426 C2419 0.961 . S
H2427 C2419 0.960 . S
H2428 C2420 0.930 . S
H2429 C2421 0.929 . S
H2430 C2438 0.929 . S
H2431 C2440 0.930 . S
H2432 C2442 0.930 . S
H2433 C2445 0.929 . S
H2434 C2448 0.930 . S
H2435 C2450 0.960 . S
H2436 C2450 0.960 . S
H2437 C2450 0.960 . S
C2438 H2430 0.929 . S
C2438 C2439 1.377 . S
C2438 C2440 1.384 . S
C2439 C2438 1.377 . S
C2439 C2445 1.390 . S
C2440 H2431 0.930 . S
C2440 C2438 1.384 . S
C2440 C2441 1.372 . S
C2441 C2440 1.372 . S
C2441 C2442 1.400 . S
C2441 C2446 1.490 . S
C2442 H2432 0.930 . S
C2442 C2441 1.400 . S
C2442 C2445 1.386 . S
H2443 C2459 0.930 . S
H2444 C2460 0.931 . S
C2445 H2433 0.929 . S
C2445 C2439 1.390 . S
C2445 C2442 1.386 . S
C2446 C2441 1.490 . S
C2446 C2448 1.395 . S
C2446 C2449 1.403 . S
H2447 C2453 0.930 . S
C2448 H2434 0.930 . S
C2448 C2446 1.395 . S
C2448 C2451 1.403 . S
C2449 C2446 1.403 . S
C2449 C2450 1.524 . S
C2449 C2453 1.400 . S
C2450 H2435 0.960 . S
C2450 H2436 0.960 . S
C2450 H2437 0.960 . S
C2450 C2449 1.524 . S
C2451 C2448 1.403 . S
C2451 C2452 1.392 . S
C2451 C2455 1.495 . S
C2452 C2451 1.392 . S
C2452 C2453 1.385 . S
C2452 C2454 1.478 . S
C2453 H2447 0.930 . S
C2453 C2449 1.400 . S
C2453 C2452 1.385 . S
C2454 C2452 1.478 . S
C2454 C2456 1.381 . S
C2454 C2460 1.383 . S
C2455 C2451 1.495 . S
C2455 H2461 0.959 . S
C2455 H2462 0.961 . S
C2455 H2463 0.960 . S
C2456 C2454 1.381 . S
C2456 C2457 1.394 . S
C2456 H2464 0.930 . S
C2457 C2456 1.394 . S
C2457 C2458 1.383 . S
C2457 H2465 0.929 . S
C2458 C2457 1.383 . S
C2458 C2459 1.377 . S
C2459 H2443 0.930 . S
C2459 C2458 1.377 . S
C2459 C2460 1.379 . S
C2460 H2444 0.931 . S
C2460 C2454 1.383 . S
C2460 C2459 1.379 . S
H2461 C2455 0.959 . S
H2462 C2455 0.961 . S
H2463 C2455 0.960 . S
H2464 C2456 0.930 . S
H2465 C2457 0.929 . S
H2466 C2474 0.929 . S
H2467 C2476 0.930 . S
H2468 C2478 0.930 1_655 S
H2469 C2481 0.929 1_655 S
H2470 C2484 0.930 . S
H2471 C2486 0.960 . S
H2472 C2486 0.960 1_455 S
H2473 C2486 0.960 . S
C2474 H2466 0.929 . S
C2474 C2475 1.377 . S
C2474 C2476 1.384 . S
C2475 C2474 1.377 . S
C2475 C2481 1.390 . S
C2476 H2467 0.930 . S
C2476 C2474 1.384 . S
C2476 C2477 1.372 . S
C2477 C2476 1.372 . S
C2477 C2478 1.400 . S
C2477 C2482 1.490 . S
C2478 H2468 0.930 1_455 S
C2478 C2477 1.400 . S
C2478 C2481 1.386 . S
H2479 C2495 0.930 . S
H2480 C2496 0.931 . S
C2481 H2469 0.929 1_455 S
C2481 C2475 1.390 . S
C2481 C2478 1.386 . S
C2482 C2477 1.490 . S
C2482 C2484 1.395 . S
C2482 C2485 1.403 . S
H2483 C2489 0.865 1_655 S
C2484 H2470 0.930 . S
C2484 C2482 1.395 . S
C2484 C2487 1.403 . S
C2485 C2482 1.403 . S
C2485 C2486 1.524 1_455 S
C2485 C2489 1.400 . S
C2486 H2471 0.960 . S
C2486 H2472 0.960 1_655 S
C2486 H2473 0.960 . S
C2486 C2485 1.524 1_655 S
C2487 C2484 1.403 . S
C2487 C2488 1.392 . S
C2487 C2491 1.495 . S
C2488 C2487 1.392 . S
C2488 C2489 1.385 . S
C2488 C2490 1.478 . S
C2489 H2483 0.865 1_455 S
C2489 C2485 1.400 . S
C2489 C2488 1.385 . S
C2490 C2488 1.478 . S
C2490 C2492 1.381 . S
C2490 C2496 1.383 1_455 S
C2491 C2487 1.495 . S
C2491 H2497 0.959 . S
C2491 H2498 0.961 . S
C2491 H2499 0.960 . S
C2492 C2490 1.381 . S
C2492 C2493 1.394 . S
C2492 H2500 0.930 . S
C2493 C2492 1.394 . S
C2493 C2494 1.383 . S
C2493 H2501 0.929 . S
C2494 C2493 1.383 . S
C2494 C2495 1.377 1_455 S
C2495 H2479 0.930 . S
C2495 C2494 1.377 1_655 S
C2495 C2496 1.379 . S
C2496 H2480 0.931 . S
C2496 C2490 1.383 1_655 S
C2496 C2495 1.379 . S
H2497 C2491 0.959 . S
H2498 C2491 0.961 . S
H2499 C2491 0.960 . S
H2500 C2492 0.930 . S
H2501 C2493 0.929 . S
H2502 C2510 0.929 . S
H2503 C2512 0.930 . S
H2504 C2514 0.930 . S
H2505 C2517 0.929 . S
H2506 C2520 0.930 . S
H2507 C2522 0.960 . S
H2508 C2522 0.960 . S
H2509 C2522 0.960 . S
C2510 H2502 0.929 . S
C2510 C2511 1.377 . S
C2510 C2512 1.384 . S
C2511 C2510 1.377 . S
C2511 C2517 1.390 . S
C2512 H2503 0.930 . S
C2512 C2510 1.384 . S
C2512 C2513 1.372 . S
C2513 C2512 1.372 . S
C2513 C2514 1.400 . S
C2513 C2518 1.490 . S
C2514 H2504 0.930 . S
C2514 C2513 1.400 . S
C2514 C2517 1.386 . S
H2515 C2531 0.930 . S
H2516 C2532 0.931 . S
C2517 H2505 0.929 . S
C2517 C2511 1.390 . S
C2517 C2514 1.386 . S
C2518 C2513 1.490 . S
C2518 C2520 1.395 . S
C2518 C2521 1.403 . S
H2519 C2525 0.930 . S
C2520 H2506 0.930 . S
C2520 C2518 1.395 . S
C2520 C2523 1.403 . S
C2521 C2518 1.403 . S
C2521 C2522 1.524 . S
C2521 C2525 1.400 . S
C2522 H2507 0.960 . S
C2522 H2508 0.960 . S
C2522 H2509 0.960 . S
C2522 C2521 1.524 . S
C2523 C2520 1.403 . S
C2523 C2524 1.392 . S
C2523 C2527 1.495 . S
C2524 C2523 1.392 . S
C2524 C2525 1.385 . S
C2524 C2526 1.478 . S
C2525 H2519 0.930 . S
C2525 C2521 1.400 . S
C2525 C2524 1.385 . S
C2526 C2524 1.478 . S
C2526 C2528 1.381 . S
C2526 C2532 1.383 . S
C2527 C2523 1.495 . S
C2527 H2533 0.959 . S
C2527 H2534 0.961 . S
C2527 H2535 0.960 . S
C2528 C2526 1.381 . S
C2528 C2529 1.394 . S
C2528 H2536 0.930 . S
C2529 C2528 1.394 . S
C2529 C2530 1.383 . S
C2529 H2537 0.929 . S
C2530 C2529 1.383 . S
C2530 C2531 1.377 . S
C2531 H2515 0.930 . S
C2531 C2530 1.377 . S
C2531 C2532 1.379 . S
C2532 H2516 0.931 . S
C2532 C2526 1.383 . S
C2532 C2531 1.379 . S
H2533 C2527 0.959 . S
H2534 C2527 0.961 . S
H2535 C2527 0.960 . S
H2536 C2528 0.930 . S
H2537 C2529 0.929 . S
H2538 C2546 0.929 . S
H2539 C2548 0.930 . S
H2540 C2550 0.930 1_545 S
H2541 C2553 0.929 1_545 S
H2542 C2556 0.930 . S
H2543 C2558 0.960 . S
H2544 C2558 0.960 . S
H2545 C2558 0.960 . S
C2546 H2538 0.929 . S
C2546 C2547 1.377 . S
C2546 C2548 1.384 . S
C2547 C2546 1.377 . S
C2547 C2553 1.390 . S
C2548 H2539 0.930 . S
C2548 C2546 1.384 . S
C2548 C2549 1.372 . S
C2549 C2548 1.372 . S
C2549 C2550 1.400 . S
C2549 C2554 1.490 . S
C2550 H2540 0.930 1_565 S
C2550 C2549 1.400 . S
C2550 C2553 1.386 . S
H2551 C2567 0.930 . S
H2552 C2568 0.931 . S
C2553 H2541 0.929 1_565 S
C2553 C2547 1.390 . S
C2553 C2550 1.386 . S
C2554 C2549 1.490 . S
C2554 C2556 1.395 . S
C2554 C2557 1.403 . S
H2555 C2561 0.930 . S
C2556 H2542 0.930 . S
C2556 C2554 1.395 . S
C2556 C2559 1.403 . S
C2557 C2554 1.403 . S
C2557 C2558 1.524 . S
C2557 C2561 1.400 . S
C2558 H2543 0.960 . S
C2558 H2544 0.960 . S
C2558 H2545 0.960 . S
C2558 C2557 1.524 . S
C2559 C2556 1.403 . S
C2559 C2560 1.392 . S
C2559 C2563 1.495 1_565 S
C2560 C2559 1.392 . S
C2560 C2561 1.385 . S
C2560 C2562 1.478 . S
C2561 H2555 0.930 . S
C2561 C2557 1.400 . S
C2561 C2560 1.385 . S
C2562 C2560 1.478 . S
C2562 C2564 1.381 . S
C2562 C2568 1.383 1_565 S
C2563 C2559 1.495 1_545 S
C2563 H2569 0.959 . S
C2563 H2570 0.961 . S
C2563 H2571 0.960 1_545 S
C2564 C2562 1.381 . S
C2564 C2565 1.394 . S
C2564 H2572 0.930 . S
C2565 C2564 1.394 . S
C2565 C2566 1.383 . S
C2565 H2573 0.929 . S
C2566 C2565 1.383 . S
C2566 C2567 1.377 1_565 S
C2567 H2551 0.930 . S
C2567 C2566 1.377 1_545 S
C2567 C2568 1.379 . S
C2568 H2552 0.931 . S
C2568 C2562 1.383 1_545 S
C2568 C2567 1.379 . S
H2569 C2563 0.959 . S
H2570 C2563 0.961 . S
H2571 C2563 0.960 1_565 S
H2572 C2564 0.930 . S
H2573 C2565 0.929 . S
H2574 C2582 0.929 . S
H2575 C2584 0.930 . S
H2576 C2586 0.916 1_545 S
H2577 C2589 0.929 . S
H2578 C2592 0.930 . S
H2579 C2594 0.960 . S
H2580 C2594 0.960 . S
H2581 C2594 0.960 . S
C2582 H2574 0.929 . S
C2582 C2583 1.377 . S
C2582 C2584 1.384 . S
C2583 C2582 1.377 . S
C2583 C2589 1.390 . S
C2584 H2575 0.930 . S
C2584 C2582 1.384 . S
C2584 C2585 1.372 . S
C2585 C2584 1.372 . S
C2585 C2586 1.400 . S
C2585 C2590 1.490 . S
C2586 H2576 0.916 1_565 S
C2586 C2585 1.400 . S
C2586 C2589 1.386 . S
H2587 C2603 0.930 . S
H2588 C2604 0.931 . S
C2589 H2577 0.929 . S
C2589 C2583 1.390 . S
C2589 C2586 1.386 . S
C2590 C2585 1.490 . S
C2590 C2592 1.395 . S
C2590 C2593 1.403 . S
H2591 C2597 0.930 . S
C2592 H2578 0.930 . S
C2592 C2590 1.395 . S
C2592 C2595 1.403 . S
C2593 C2590 1.403 . S
C2593 C2594 1.524 . S
C2593 C2597 1.400 . S
C2594 H2579 0.960 . S
C2594 H2580 0.960 . S
C2594 H2581 0.960 . S
C2594 C2593 1.524 . S
C2595 C2592 1.403 . S
C2595 C2596 1.392 . S
C2595 C2599 1.495 1_565 S
C2596 C2595 1.392 . S
C2596 C2597 1.385 . S
C2596 C2598 1.478 . S
C2597 H2591 0.930 . S
C2597 C2593 1.400 . S
C2597 C2596 1.385 . S
C2598 C2596 1.478 . S
C2598 C2600 1.381 . S
C2598 C2604 1.383 1_565 S
C2599 C2595 1.495 1_545 S
C2599 H2605 0.959 . S
C2599 H2606 0.961 . S
C2599 H2607 0.960 1_545 S
C2600 C2598 1.381 . S
C2600 C2601 1.394 . S
C2600 H2608 0.930 . S
C2601 C2600 1.394 . S
C2601 C2602 1.383 . S
C2601 H2609 0.929 . S
C2602 C2601 1.383 . S
C2602 C2603 1.377 1_565 S
C2603 H2587 0.930 . S
C2603 C2602 1.377 1_545 S
C2603 C2604 1.379 . S
C2604 H2588 0.931 . S
C2604 C2598 1.383 1_545 S
C2604 C2603 1.379 . S
H2605 C2599 0.959 . S
H2606 C2599 0.961 . S
H2607 C2599 0.960 1_565 S
H2608 C2600 0.930 . S
H2609 C2601 0.929 . S
H2610 C2618 0.929 . S
H2611 C2620 0.930 . S
H2612 C2622 0.930 . S
H2613 C2625 0.929 . S
H2614 C2628 0.930 . S
H2615 C2630 0.960 . S
H2616 C2630 0.960 . S
H2617 C2630 0.960 . S
C2618 H2610 0.929 . S
C2618 C2619 1.377 . S
C2618 C2620 1.384 . S
C2619 C2618 1.377 . S
C2619 C2625 1.390 . S
C2620 H2611 0.930 . S
C2620 C2618 1.384 . S
C2620 C2621 1.372 . S
C2621 C2620 1.372 . S
C2621 C2622 1.400 . S
C2621 C2626 1.490 . S
C2622 H2612 0.930 . S
C2622 C2621 1.400 . S
C2622 C2625 1.386 . S
H2623 C2639 0.930 . S
H2624 C2640 0.931 . S
C2625 H2613 0.929 . S
C2625 C2619 1.390 . S
C2625 C2622 1.386 . S
C2626 C2621 1.490 . S
C2626 C2628 1.395 . S
C2626 C2629 1.403 1_455 S
H2627 C2633 0.930 . S
C2628 H2614 0.930 . S
C2628 C2626 1.395 . S
C2628 C2631 1.403 . S
C2629 C2626 1.403 1_655 S
C2629 C2630 1.524 . S
C2629 C2633 1.400 . S
C2630 H2615 0.960 . S
C2630 H2616 0.960 . S
C2630 H2617 0.960 . S
C2630 C2629 1.524 . S
C2631 C2628 1.403 . S
C2631 C2632 1.392 . S
C2631 C2635 1.495 . S
C2632 C2631 1.392 . S
C2632 C2633 1.385 1_455 S
C2632 C2634 1.478 . S
C2633 H2627 0.930 . S
C2633 C2629 1.400 . S
C2633 C2632 1.385 1_655 S
C2634 C2632 1.478 . S
C2634 C2636 1.381 . S
C2634 C2640 1.383 . S
C2635 C2631 1.495 . S
C2635 H2641 0.959 . S
C2635 H2642 0.961 . S
C2635 H2643 0.960 . S
C2636 C2634 1.381 . S
C2636 C2637 1.404 1_455 S
C2636 H2644 0.970 . S
C2637 C2636 1.404 1_655 S
C2637 C2638 1.369 1_655 S
C2637 H2645 0.934 . S
C2638 C2637 1.369 1_455 S
C2638 C2639 1.377 . S
C2639 H2623 0.930 . S
C2639 C2638 1.377 . S
C2639 C2640 1.379 . S
C2640 H2624 0.931 . S
C2640 C2634 1.383 . S
C2640 C2639 1.379 . S
H2641 C2635 0.959 . S
H2642 C2635 0.961 . S
H2643 C2635 0.960 . S
H2644 C2636 0.970 . S
H2645 C2637 0.934 . S
H2646 C2654 0.929 . S
H2647 C2656 0.930 . S
H2648 C2658 0.930 . S
H2649 C2661 0.929 . S
H2650 C2664 0.930 . S
H2651 C2666 0.960 . S
H2652 C2666 0.960 . S
H2653 C2666 0.960 . S
C2654 H2646 0.929 . S
C2654 C2655 1.377 . S
C2654 C2656 1.384 . S
C2655 C2654 1.377 . S
C2655 C2661 1.390 . S
C2656 H2647 0.930 . S
C2656 C2654 1.384 . S
C2656 C2657 1.372 . S
C2657 C2656 1.372 . S
C2657 C2658 1.400 . S
C2657 C2662 1.490 . S
C2658 H2648 0.930 . S
C2658 C2657 1.400 . S
C2658 C2661 1.386 . S
H2659 C2675 0.930 . S
H2660 C2676 0.931 . S
C2661 H2649 0.929 . S
C2661 C2655 1.390 . S
C2661 C2658 1.386 . S
C2662 C2657 1.490 . S
C2662 C2664 1.395 . S
C2662 C2665 1.403 . S
H2663 C2669 0.930 . S
C2664 H2650 0.930 . S
C2664 C2662 1.395 . S
C2664 C2667 1.403 . S
C2665 C2662 1.403 . S
C2665 C2666 1.524 . S
C2665 C2669 1.400 . S
C2666 H2651 0.960 . S
C2666 H2652 0.960 . S
C2666 H2653 0.960 . S
C2666 C2665 1.524 . S
C2667 C2664 1.403 . S
C2667 C2668 1.392 . S
C2667 C2671 1.495 . S
C2668 C2667 1.392 . S
C2668 C2669 1.385 . S
C2668 C2670 1.478 . S
C2669 H2663 0.930 . S
C2669 C2665 1.400 . S
C2669 C2668 1.385 . S
C2670 C2668 1.478 . S
C2670 C2672 1.381 . S
C2670 C2676 1.383 . S
C2671 C2667 1.495 . S
C2671 H2677 0.959 . S
C2671 H2678 0.961 . S
C2671 H2679 0.960 . S
C2672 C2670 1.381 . S
C2672 C2673 1.394 . S
C2672 H2680 0.930 . S
C2673 C2672 1.394 . S
C2673 C2674 1.383 . S
C2673 H2681 0.929 . S
C2674 C2673 1.383 . S
C2674 C2675 1.377 . S
C2675 H2659 0.930 . S
C2675 C2674 1.377 . S
C2675 C2676 1.379 . S
C2676 H2660 0.931 . S
C2676 C2670 1.383 . S
C2676 C2675 1.379 . S
H2677 C2671 0.959 . S
H2678 C2671 0.961 . S
H2679 C2671 0.960 . S
H2680 C2672 0.930 . S
H2681 C2673 0.929 . S
H2682 C2690 0.929 . S
H2683 C2692 0.930 . S
H2684 C2694 0.930 . S
H2685 C2697 0.929 . S
H2686 C2700 0.930 . S
H2687 C2702 0.960 . S
H2688 C2702 0.960 . S
H2689 C2702 0.960 . S
C2690 H2682 0.929 . S
C2690 C2691 1.377 . S
C2690 C2692 1.384 . S
C2691 C2690 1.377 . S
C2691 C2697 1.390 . S
C2692 H2683 0.930 . S
C2692 C2690 1.384 . S
C2692 C2693 1.372 . S
C2693 C2692 1.372 . S
C2693 C2694 1.400 . S
C2693 C2698 1.490 . S
C2694 H2684 0.930 . S
C2694 C2693 1.400 . S
C2694 C2697 1.386 . S
H2695 C2711 0.930 . S
H2696 C2712 0.931 . S
C2697 H2685 0.929 . S
C2697 C2691 1.390 . S
C2697 C2694 1.386 . S
C2698 C2693 1.490 . S
C2698 C2700 1.395 . S
C2698 C2701 1.403 . S
H2699 C2705 0.930 . S
C2700 H2686 0.930 . S
C2700 C2698 1.395 . S
C2700 C2703 1.403 . S
C2701 C2698 1.403 . S
C2701 C2702 1.524 . S
C2701 C2705 1.400 . S
C2702 H2687 0.960 . S
C2702 H2688 0.960 . S
C2702 H2689 0.960 . S
C2702 C2701 1.524 . S
C2703 C2700 1.403 . S
C2703 C2704 1.392 . S
C2703 C2707 1.495 . S
C2704 C2703 1.392 . S
C2704 C2705 1.385 . S
C2704 C2706 1.478 . S
C2705 H2699 0.930 . S
C2705 C2701 1.400 . S
C2705 C2704 1.385 . S
C2706 C2704 1.478 . S
C2706 C2708 1.381 . S
C2706 C2712 1.383 . S
C2707 C2703 1.495 . S
C2707 H2713 0.959 . S
C2707 H2714 0.961 . S
C2707 H2715 0.960 . S
C2708 C2706 1.381 . S
C2708 C2709 1.394 . S
C2708 H2716 0.930 . S
C2709 C2708 1.394 . S
C2709 C2710 1.383 . S
C2709 H2717 0.929 . S
C2710 C2709 1.383 . S
C2710 C2711 1.377 . S
C2711 H2695 0.930 . S
C2711 C2710 1.377 . S
C2711 C2712 1.379 . S
C2712 H2696 0.931 . S
C2712 C2706 1.383 . S
C2712 C2711 1.379 . S
H2713 C2707 0.959 . S
H2714 C2707 0.961 . S
H2715 C2707 0.960 . S
H2716 C2708 0.930 . S
H2717 C2709 0.929 . S
H2718 C2726 0.929 . S
H2719 C2728 0.930 . S
H2720 C2730 0.930 . S
H2721 C2733 0.929 . S
H2722 C2736 0.930 . S
H2723 C2738 0.960 . S
H2724 C2738 0.960 . S
H2725 C2738 0.960 . S
C2726 H2718 0.929 . S
C2726 C2727 1.377 . S
C2726 C2728 1.384 . S
C2727 C2726 1.377 . S
C2727 C2733 1.390 . S
C2728 H2719 0.930 . S
C2728 C2726 1.384 . S
C2728 C2729 1.372 . S
C2729 C2728 1.372 . S
C2729 C2730 1.400 . S
C2729 C2734 1.490 . S
C2730 H2720 0.930 . S
C2730 C2729 1.400 . S
C2730 C2733 1.386 . S
H2731 C2747 0.930 . S
H2732 C2748 0.931 . S
C2733 H2721 0.929 . S
C2733 C2727 1.390 . S
C2733 C2730 1.386 . S
C2734 C2729 1.490 . S
C2734 C2736 1.395 . S
C2734 C2737 1.403 . S
H2735 C2741 0.930 . S
C2736 H2722 0.930 . S
C2736 C2734 1.395 . S
C2736 C2739 1.403 . S
C2737 C2734 1.403 . S
C2737 C2738 1.524 . S
C2737 C2741 1.400 . S
C2738 H2723 0.960 . S
C2738 H2724 0.960 . S
C2738 H2725 0.960 . S
C2738 C2737 1.524 . S
C2739 C2736 1.403 . S
C2739 C2740 1.392 . S
C2739 C2743 1.495 . S
C2740 C2739 1.392 . S
C2740 C2741 1.385 . S
C2740 C2742 1.478 . S
C2741 H2735 0.930 . S
C2741 C2737 1.400 . S
C2741 C2740 1.385 . S
C2742 C2740 1.478 . S
C2742 C2744 1.381 . S
C2742 C2748 1.383 . S
C2743 C2739 1.495 . S
C2743 H2749 0.959 . S
C2743 H2750 0.961 . S
C2743 H2751 0.960 . S
C2744 C2742 1.381 . S
C2744 C2745 1.394 . S
C2744 H2752 0.930 . S
C2745 C2744 1.394 . S
C2745 C2746 1.383 . S
C2745 H2753 0.929 . S
C2746 C2745 1.383 . S
C2746 C2747 1.377 . S
C2747 H2731 0.930 . S
C2747 C2746 1.377 . S
C2747 C2748 1.379 . S
C2748 H2732 0.931 . S
C2748 C2742 1.383 . S
C2748 C2747 1.379 . S
H2749 C2743 0.959 . S
H2750 C2743 0.961 . S
H2751 C2743 0.960 . S
H2752 C2744 0.930 . S
H2753 C2745 0.929 . S
H2754 C2762 0.929 . S
H2755 C2764 0.930 . S
H2756 C2766 0.930 . S
H2757 C2769 0.929 . S
H2758 C2772 0.930 . S
H2759 C2774 0.960 . S
H2760 C2774 0.960 . S
H2761 C2774 0.960 . S
C2762 H2754 0.929 . S
C2762 C2763 1.377 . S
C2762 C2764 1.384 . S
C2763 C2762 1.377 . S
C2763 C2769 1.390 . S
C2764 H2755 0.930 . S
C2764 C2762 1.384 . S
C2764 C2765 1.372 . S
C2765 C2764 1.372 . S
C2765 C2766 1.400 . S
C2765 C2770 1.490 . S
C2766 H2756 0.930 . S
C2766 C2765 1.400 . S
C2766 C2769 1.386 . S
H2767 C2783 0.930 . S
H2768 C2784 0.931 . S
C2769 H2757 0.929 . S
C2769 C2763 1.390 . S
C2769 C2766 1.386 . S
C2770 C2765 1.490 . S
C2770 C2772 1.395 . S
C2770 C2773 1.403 . S
H2771 C2777 0.930 . S
C2772 H2758 0.930 . S
C2772 C2770 1.395 . S
C2772 C2775 1.403 . S
C2773 C2770 1.403 . S
C2773 C2774 1.524 . S
C2773 C2777 1.400 . S
C2774 H2759 0.960 . S
C2774 H2760 0.960 . S
C2774 H2761 0.960 . S
C2774 C2773 1.524 . S
C2775 C2772 1.403 . S
C2775 C2776 1.392 . S
C2775 C2779 1.495 . S
C2776 C2775 1.392 . S
C2776 C2777 1.385 . S
C2776 C2778 1.478 . S
C2777 H2771 0.930 . S
C2777 C2773 1.400 . S
C2777 C2776 1.385 . S
C2778 C2776 1.478 . S
C2778 C2780 1.381 . S
C2778 C2784 1.383 . S
C2779 C2775 1.495 . S
C2779 H2785 0.959 . S
C2779 H2786 0.961 . S
C2779 H2787 0.960 . S
C2780 C2778 1.381 . S
C2780 C2781 1.394 . S
C2780 H2788 0.930 . S
C2781 C2780 1.394 . S
C2781 C2782 1.383 . S
C2781 H2789 0.929 . S
C2782 C2781 1.383 . S
C2782 C2783 1.377 . S
C2783 H2767 0.930 . S
C2783 C2782 1.377 . S
C2783 C2784 1.379 . S
C2784 H2768 0.931 . S
C2784 C2778 1.383 . S
C2784 C2783 1.379 . S
H2785 C2779 0.959 . S
H2786 C2779 0.961 . S
H2787 C2779 0.960 . S
H2788 C2780 0.930 . S
H2789 C2781 0.929 . S
H2790 C2798 0.929 . S
H2791 C2800 0.930 1_565 S
H2792 C2802 0.930 . S
H2793 C2805 0.929 . S
H2794 C2808 0.930 . S
H2795 C2810 0.960 . S
H2796 C2810 0.960 1_565 S
H2797 C2810 0.960 . S
C2798 H2790 0.929 . S
C2798 C2799 1.377 . S
C2798 C2800 1.384 . S
C2799 C2798 1.377 . S
C2799 C2805 1.390 . S
C2800 H2791 0.930 1_545 S
C2800 C2798 1.384 . S
C2800 C2801 1.372 . S
C2801 C2800 1.372 . S
C2801 C2802 1.400 . S
C2801 C2806 1.490 . S
C2802 H2792 0.930 . S
C2802 C2801 1.400 . S
C2802 C2805 1.386 . S
H2803 C2819 0.930 . S
H2804 C2820 0.931 . S
C2805 H2793 0.929 . S
C2805 C2799 1.390 . S
C2805 C2802 1.386 . S
C2806 C2801 1.490 . S
C2806 C2808 1.395 . S
C2806 C2809 1.403 . S
H2807 C2813 0.930 . S
C2808 H2794 0.930 . S
C2808 C2806 1.395 . S
C2808 C2811 1.403 . S
C2809 C2806 1.403 . S
C2809 C2810 1.524 . S
C2809 C2813 1.400 . S
C2810 H2795 0.960 . S
C2810 H2796 0.960 1_545 S
C2810 H2797 0.960 . S
C2810 C2809 1.524 . S
C2811 C2808 1.403 . S
C2811 C2812 1.392 . S
C2811 C2815 1.495 . S
C2812 C2811 1.392 . S
C2812 C2813 1.385 . S
C2812 C2814 1.478 . S
C2813 H2807 0.930 . S
C2813 C2809 1.400 . S
C2813 C2812 1.385 . S
C2814 C2812 1.478 . S
C2814 C2816 1.381 1_545 S
C2814 C2820 1.383 . S
C2815 C2811 1.495 . S
C2815 H2821 0.959 . S
C2815 H2822 0.961 . S
C2815 H2823 0.960 . S
C2816 C2814 1.381 1_565 S
C2816 C2817 1.394 . S
C2816 H2824 0.930 . S
C2817 C2816 1.394 . S
C2817 C2818 1.383 1_565 S
C2817 H2825 0.929 . S
C2818 C2817 1.383 1_545 S
C2818 C2819 1.377 . S
C2819 H2803 0.930 . S
C2819 C2818 1.377 . S
C2819 C2820 1.379 . S
C2820 H2804 0.931 . S
C2820 C2814 1.383 . S
C2820 C2819 1.379 . S
H2821 C2815 0.959 . S
H2822 C2815 0.961 . S
H2823 C2815 0.960 . S
H2824 C2816 0.930 . S
H2825 C2817 0.929 . S
H2826 C2834 0.929 . S
H2827 C2836 0.930 . S
H2828 C2838 0.944 . S
H2829 C2841 0.929 . S
H2830 C2844 0.930 . S
H2831 C2846 0.960 . S
H2832 C2846 0.960 . S
H2833 C2846 0.960 . S
C2834 H2826 0.929 . S
C2834 C2835 1.377 . S
C2834 C2836 1.384 . S
C2835 C2834 1.377 . S
C2835 C2841 1.390 . S
C2836 H2827 0.930 . S
C2836 C2834 1.384 . S
C2836 C2837 1.372 . S
C2837 C2836 1.372 . S
C2837 C2838 1.400 . S
C2837 C2842 1.490 . S
C2838 H2828 0.944 . S
C2838 C2837 1.400 . S
C2838 C2841 1.386 . S
H2839 C2855 0.917 1_455 S
H2840 C2856 0.952 . S
C2841 H2829 0.929 . S
C2841 C2835 1.390 . S
C2841 C2838 1.386 . S
C2842 C2837 1.490 . S
C2842 C2844 1.395 . S
C2842 C2845 1.403 1_655 S
H2843 C2849 0.930 . S
C2844 H2830 0.930 . S
C2844 C2842 1.395 . S
C2844 C2847 1.403 . S
C2845 C2842 1.403 1_455 S
C2845 C2846 1.524 . S
C2845 C2849 1.400 . S
C2846 H2831 0.960 . S
C2846 H2832 0.960 . S
C2846 H2833 0.960 . S
C2846 C2845 1.524 . S
C2847 C2844 1.403 . S
C2847 C2848 1.392 . S
C2847 C2851 1.495 . S
C2848 C2847 1.392 . S
C2848 C2849 1.385 1_655 S
C2848 C2850 1.478 . S
C2849 H2843 0.930 . S
C2849 C2845 1.400 . S
C2849 C2848 1.385 1_455 S
C2850 C2848 1.478 . S
C2850 C2852 1.381 . S
C2850 C2856 1.383 . S
C2851 C2847 1.495 . S
C2851 H2857 0.959 . S
C2851 H2858 0.961 . S
C2851 H2859 0.960 . S
C2852 C2850 1.381 . S
C2852 C2853 1.394 . S
C2852 H2860 0.930 . S
C2853 C2852 1.394 . S
C2853 C2854 1.383 . S
C2853 H2861 0.929 . S
C2854 C2853 1.383 . S
C2854 C2855 1.411 . S
C2855 H2839 0.917 1_655 S
C2855 C2854 1.411 . S
C2855 C2856 1.361 . S
C2856 H2840 0.952 . S
C2856 C2850 1.383 . S
C2856 C2855 1.361 . S
H2857 C2851 0.959 . S
H2858 C2851 0.961 . S
H2859 C2851 0.960 . S
H2860 C2852 0.930 . S
H2861 C2853 0.929 . S
H2862 C2870 0.929 . S
H2863 C2872 0.930 . S
H2864 C2874 0.930 . S
H2865 C2877 0.929 . S
H2866 C2880 0.930 . S
H2867 C2882 0.960 . S
H2868 C2882 0.960 . S
H2869 C2882 0.960 . S
C2870 H2862 0.929 . S
C2870 C2871 1.377 . S
C2870 C2872 1.384 . S
C2871 C2870 1.377 . S
C2871 C2877 1.390 . S
C2872 H2863 0.930 . S
C2872 C2870 1.384 . S
C2872 C2873 1.372 . S
C2873 C2872 1.372 . S
C2873 C2874 1.400 . S
C2873 C2878 1.490 . S
C2874 H2864 0.930 . S
C2874 C2873 1.400 . S
C2874 C2877 1.386 . S
H2875 C2891 0.930 . S
H2876 C2892 0.931 . S
C2877 H2865 0.929 . S
C2877 C2871 1.390 . S
C2877 C2874 1.386 . S
C2878 C2873 1.490 . S
C2878 C2880 1.395 . S
C2878 C2881 1.403 . S
H2879 C2885 0.930 . S
C2880 H2866 0.930 . S
C2880 C2878 1.395 . S
C2880 C2883 1.403 . S
C2881 C2878 1.403 . S
C2881 C2882 1.524 . S
C2881 C2885 1.400 . S
C2882 H2867 0.960 . S
C2882 H2868 0.960 . S
C2882 H2869 0.960 . S
C2882 C2881 1.524 . S
C2883 C2880 1.403 . S
C2883 C2884 1.392 . S
C2883 C2887 1.495 . S
C2884 C2883 1.392 . S
C2884 C2885 1.385 . S
C2884 C2886 1.478 . S
C2885 H2879 0.930 . S
C2885 C2881 1.400 . S
C2885 C2884 1.385 . S
C2886 C2884 1.478 . S
C2886 C2888 1.381 . S
C2886 C2892 1.383 . S
C2887 C2883 1.495 . S
C2887 H2893 0.959 . S
C2887 H2894 0.961 . S
C2887 H2895 0.960 . S
C2888 C2886 1.381 . S
C2888 C2889 1.394 . S
C2888 H2896 0.930 . S
C2889 C2888 1.394 . S
C2889 C2890 1.383 . S
C2889 H2897 0.929 . S
C2890 C2889 1.383 . S
C2890 C2891 1.377 . S
C2891 H2875 0.930 . S
C2891 C2890 1.377 . S
C2891 C2892 1.379 . S
C2892 H2876 0.931 . S
C2892 C2886 1.383 . S
C2892 C2891 1.379 . S
H2893 C2887 0.959 . S
H2894 C2887 0.961 . S
H2895 C2887 0.960 . S
H2896 C2888 0.930 . S
H2897 C2889 0.929 . S
H2898 C2906 0.929 . S
H2899 C2908 0.930 . S
H2900 C2910 0.930 . S
H2901 C2913 0.929 . S
H2902 C2916 0.930 . S
H2903 C2918 0.960 . S
H2904 C2918 0.960 . S
H2905 C2918 0.960 . S
C2906 H2898 0.929 . S
C2906 C2907 1.377 . S
C2906 C2908 1.384 . S
C2907 C2906 1.377 . S
C2907 C2913 1.390 . S
C2908 H2899 0.930 . S
C2908 C2906 1.384 . S
C2908 C2909 1.372 . S
C2909 C2908 1.372 . S
C2909 C2910 1.400 . S
C2909 C2914 1.490 . S
C2910 H2900 0.930 . S
C2910 C2909 1.400 . S
C2910 C2913 1.386 . S
H2911 C2927 0.930 . S
H2912 C2928 0.931 . S
C2913 H2901 0.929 . S
C2913 C2907 1.390 . S
C2913 C2910 1.386 . S
C2914 C2909 1.490 . S
C2914 C2916 1.395 . S
C2914 C2917 1.403 . S
H2915 C2921 0.930 . S
C2916 H2902 0.930 . S
C2916 C2914 1.395 . S
C2916 C2919 1.403 . S
C2917 C2914 1.403 . S
C2917 C2918 1.524 . S
C2917 C2921 1.400 . S
C2918 H2903 0.960 . S
C2918 H2904 0.960 . S
C2918 H2905 0.960 . S
C2918 C2917 1.524 . S
C2919 C2916 1.403 . S
C2919 C2920 1.392 . S
C2919 C2923 1.495 . S
C2920 C2919 1.392 . S
C2920 C2921 1.385 . S
C2920 C2922 1.478 . S
C2921 H2915 0.930 . S
C2921 C2917 1.400 . S
C2921 C2920 1.385 . S
C2922 C2920 1.478 . S
C2922 C2924 1.381 . S
C2922 C2928 1.383 . S
C2923 C2919 1.495 . S
C2923 H2929 0.959 . S
C2923 H2930 0.961 . S
C2923 H2931 0.960 . S
C2924 C2922 1.381 . S
C2924 C2925 1.394 . S
C2924 H2932 0.930 . S
C2925 C2924 1.394 . S
C2925 C2926 1.383 . S
C2925 H2933 0.929 . S
C2926 C2925 1.383 . S
C2926 C2927 1.377 . S
C2927 H2911 0.930 . S
C2927 C2926 1.377 . S
C2927 C2928 1.379 . S
C2928 H2912 0.931 . S
C2928 C2922 1.383 . S
C2928 C2927 1.379 . S
H2929 C2923 0.959 . S
H2930 C2923 0.961 . S
H2931 C2923 0.960 . S
H2932 C2924 0.930 . S
H2933 C2925 0.929 . S
H2934 C2942 0.929 . S
H2935 C2944 0.930 . S
H2936 C2946 0.930 . S
H2937 C2949 0.929 . S
H2938 C2952 0.930 . S
H2939 C2954 0.960 . S
H2940 C2954 0.960 . S
H2941 C2954 0.960 . S
C2942 H2934 0.929 . S
C2942 C2943 1.377 . S
C2942 C2944 1.384 . S
C2943 C2942 1.377 . S
C2943 C2949 1.390 . S
C2944 H2935 0.930 . S
C2944 C2942 1.384 . S
C2944 C2945 1.372 . S
C2945 C2944 1.372 . S
C2945 C2946 1.400 . S
C2945 C2950 1.490 . S
C2946 H2936 0.930 . S
C2946 C2945 1.400 . S
C2946 C2949 1.386 . S
H2947 C2963 0.930 . S
H2948 C2964 0.931 . S
C2949 H2937 0.929 . S
C2949 C2943 1.390 . S
C2949 C2946 1.386 . S
C2950 C2945 1.490 . S
C2950 C2952 1.395 . S
C2950 C2953 1.403 . S
H2951 C2957 0.930 . S
C2952 H2938 0.930 . S
C2952 C2950 1.395 . S
C2952 C2955 1.403 . S
C2953 C2950 1.403 . S
C2953 C2954 1.524 . S
C2953 C2957 1.400 . S
C2954 H2939 0.960 . S
C2954 H2940 0.960 . S
C2954 H2941 0.960 . S
C2954 C2953 1.524 . S
C2955 C2952 1.403 . S
C2955 C2956 1.392 . S
C2955 C2959 1.495 . S
C2956 C2955 1.392 . S
C2956 C2957 1.385 . S
C2956 C2958 1.478 . S
C2957 H2951 0.930 . S
C2957 C2953 1.400 . S
C2957 C2956 1.385 . S
C2958 C2956 1.478 . S
C2958 C2960 1.381 . S
C2958 C2964 1.383 . S
C2959 C2955 1.495 . S
C2959 H2965 0.959 . S
C2959 H2966 0.961 . S
C2959 H2967 0.960 . S
C2960 C2958 1.381 . S
C2960 C2961 1.394 . S
C2960 H2968 0.930 . S
C2961 C2960 1.394 . S
C2961 C2962 1.383 . S
C2961 H2969 0.929 . S
C2962 C2961 1.383 . S
C2962 C2963 1.377 . S
C2963 H2947 0.930 . S
C2963 C2962 1.377 . S
C2963 C2964 1.379 . S
C2964 H2948 0.931 . S
C2964 C2958 1.383 . S
C2964 C2963 1.379 . S
H2965 C2959 0.959 . S
H2966 C2959 0.961 . S
H2967 C2959 0.960 . S
H2968 C2960 0.930 . S
H2969 C2961 0.929 . S
H2970 C2978 0.929 . S
H2971 C2980 0.930 . S
H2972 C2982 0.930 . S
H2973 C2985 0.929 . S
H2974 C2988 0.930 . S
H2975 C2990 0.960 . S
H2976 C2990 0.960 . S
H2977 C2990 0.960 . S
C2978 H2970 0.929 . S
C2978 C2979 1.377 . S
C2978 C2980 1.384 . S
C2979 C2978 1.377 . S
C2979 C2985 1.390 . S
C2980 H2971 0.930 . S
C2980 C2978 1.384 . S
C2980 C2981 1.372 . S
C2981 C2980 1.372 . S
C2981 C2982 1.400 . S
C2981 C2986 1.490 . S
C2982 H2972 0.930 . S
C2982 C2981 1.400 . S
C2982 C2985 1.386 . S
H2983 C2999 0.930 . S
H2984 C3000 0.931 . S
C2985 H2973 0.929 . S
C2985 C2979 1.390 . S
C2985 C2982 1.386 . S
C2986 C2981 1.490 . S
C2986 C2988 1.395 . S
C2986 C2989 1.403 . S
H2987 C2993 0.930 . S
C2988 H2974 0.930 . S
C2988 C2986 1.395 . S
C2988 C2991 1.403 . S
C2989 C2986 1.403 . S
C2989 C2990 1.524 . S
C2989 C2993 1.400 . S
C2990 H2975 0.960 . S
C2990 H2976 0.960 . S
C2990 H2977 0.960 . S
C2990 C2989 1.524 . S
C2991 C2988 1.403 . S
C2991 C2992 1.392 . S
C2991 C2995 1.495 . S
C2992 C2991 1.392 . S
C2992 C2993 1.385 . S
C2992 C2994 1.478 . S
C2993 H2987 0.930 . S
C2993 C2989 1.400 . S
C2993 C2992 1.385 . S
C2994 C2992 1.478 . S
C2994 C2996 1.381 . S
C2994 C3000 1.383 . S
C2995 C2991 1.495 . S
C2995 H3001 0.959 . S
C2995 H3002 0.961 . S
C2995 H3003 0.960 . S
C2996 C2994 1.381 . S
C2996 C2997 1.394 . S
C2996 H3004 0.930 . S
C2997 C2996 1.394 . S
C2997 C2998 1.383 . S
C2997 H3005 0.929 . S
C2998 C2997 1.383 . S
C2998 C2999 1.377 . S
C2999 H2983 0.930 . S
C2999 C2998 1.377 . S
C2999 C3000 1.379 . S
C3000 H2984 0.931 . S
C3000 C2994 1.383 . S
C3000 C2999 1.379 . S
H3001 C2995 0.959 . S
H3002 C2995 0.961 . S
H3003 C2995 0.960 . S
H3004 C2996 0.930 . S
H3005 C2997 0.929 . S
H3006 C3014 0.929 . S
H3007 C3016 0.930 . S
H3008 C3018 0.930 . S
H3009 C3021 0.929 . S
H3010 C3024 0.930 . S
H3011 C3026 0.960 . S
H3012 C3026 0.960 . S
H3013 C3026 0.960 . S
C3014 H3006 0.929 . S
C3014 C3015 1.377 . S
C3014 C3016 1.384 . S
C3015 C3014 1.377 . S
C3015 C3021 1.390 . S
C3016 H3007 0.930 . S
C3016 C3014 1.384 . S
C3016 C3017 1.372 . S
C3017 C3016 1.372 . S
C3017 C3018 1.400 . S
C3017 C3022 1.490 . S
C3018 H3008 0.930 . S
C3018 C3017 1.400 . S
C3018 C3021 1.386 . S
H3019 C3035 0.930 . S
H3020 C3036 0.931 . S
C3021 H3009 0.929 . S
C3021 C3015 1.390 . S
C3021 C3018 1.386 . S
C3022 C3017 1.490 . S
C3022 C3024 1.395 . S
C3022 C3025 1.403 . S
H3023 C3029 0.930 . S
C3024 H3010 0.930 . S
C3024 C3022 1.395 . S
C3024 C3027 1.403 . S
C3025 C3022 1.403 . S
C3025 C3026 1.524 . S
C3025 C3029 1.400 . S
C3026 H3011 0.960 . S
C3026 H3012 0.960 . S
C3026 H3013 0.960 . S
C3026 C3025 1.524 . S
C3027 C3024 1.403 . S
C3027 C3028 1.392 . S
C3027 C3031 1.495 . S
C3028 C3027 1.392 . S
C3028 C3029 1.385 . S
C3028 C3030 1.478 . S
C3029 H3023 0.930 . S
C3029 C3025 1.400 . S
C3029 C3028 1.385 . S
C3030 C3028 1.478 . S
C3030 C3032 1.381 . S
C3030 C3036 1.383 . S
C3031 C3027 1.495 . S
C3031 H3037 0.959 . S
C3031 H3038 0.961 . S
C3031 H3039 0.960 . S
C3032 C3030 1.381 . S
C3032 C3033 1.394 . S
C3032 H3040 0.930 . S
C3033 C3032 1.394 . S
C3033 C3034 1.383 . S
C3033 H3041 0.929 . S
C3034 C3033 1.383 . S
C3034 C3035 1.377 . S
C3035 H3019 0.930 . S
C3035 C3034 1.377 . S
C3035 C3036 1.379 . S
C3036 H3020 0.931 . S
C3036 C3030 1.383 . S
C3036 C3035 1.379 . S
H3037 C3031 0.959 . S
H3038 C3031 0.961 . S
H3039 C3031 0.960 . S
H3040 C3032 0.930 . S
H3041 C3033 0.929 . S
H3042 C3050 0.929 . S
H3043 C3052 0.930 . S
H3044 C3054 0.930 . S
H3045 C3057 0.929 . S
H3046 C3060 0.930 . S
H3047 C3062 0.960 . S
H3048 C3062 0.960 . S
H3049 C3062 0.960 . S
C3050 H3042 0.929 . S
C3050 C3051 1.377 . S
C3050 C3052 1.384 . S
C3051 C3050 1.377 . S
C3051 C3057 1.390 . S
C3052 H3043 0.930 . S
C3052 C3050 1.384 . S
C3052 C3053 1.372 . S
C3053 C3052 1.372 . S
C3053 C3054 1.400 . S
C3053 C3058 1.490 . S
C3054 H3044 0.930 . S
C3054 C3053 1.400 . S
C3054 C3057 1.386 . S
H3055 C3071 0.930 . S
H3056 C3072 0.931 . S
C3057 H3045 0.929 . S
C3057 C3051 1.390 . S
C3057 C3054 1.386 . S
C3058 C3053 1.490 . S
C3058 C3060 1.395 . S
C3058 C3061 1.403 . S
H3059 C3065 0.930 . S
C3060 H3046 0.930 . S
C3060 C3058 1.395 . S
C3060 C3063 1.403 . S
C3061 C3058 1.403 . S
C3061 C3062 1.524 . S
C3061 C3065 1.400 . S
C3062 H3047 0.960 . S
C3062 H3048 0.960 . S
C3062 H3049 0.960 . S
C3062 C3061 1.524 . S
C3063 C3060 1.403 . S
C3063 C3064 1.392 . S
C3063 C3067 1.495 . S
C3064 C3063 1.392 . S
C3064 C3065 1.385 . S
C3064 C3066 1.478 . S
C3065 H3059 0.930 . S
C3065 C3061 1.400 . S
C3065 C3064 1.385 . S
C3066 C3064 1.478 . S
C3066 C3068 1.381 . S
C3066 C3072 1.383 . S
C3067 C3063 1.495 . S
C3067 H3073 0.959 . S
C3067 H3074 0.961 . S
C3067 H3075 0.960 . S
C3068 C3066 1.381 . S
C3068 C3069 1.394 . S
C3068 H3076 0.930 . S
C3069 C3068 1.394 . S
C3069 C3070 1.383 . S
C3069 H3077 0.929 . S
C3070 C3069 1.383 . S
C3070 C3071 1.377 . S
C3071 H3055 0.930 . S
C3071 C3070 1.377 . S
C3071 C3072 1.379 . S
C3072 H3056 0.931 . S
C3072 C3066 1.383 . S
C3072 C3071 1.379 . S
H3073 C3067 0.959 . S
H3074 C3067 0.961 . S
H3075 C3067 0.960 . S
H3076 C3068 0.930 . S
H3077 C3069 0.929 . S
H3078 C3086 0.929 . S
H3079 C3088 0.930 . S
H3080 C3090 0.930 . S
H3081 C3093 0.929 . S
H3082 C3096 0.930 . S
H3083 C3098 0.960 . S
H3084 C3098 0.960 . S
H3085 C3098 0.960 . S
C3086 H3078 0.929 . S
C3086 C3087 1.377 . S
C3086 C3088 1.384 . S
C3087 C3086 1.377 . S
C3087 C3093 1.390 . S
C3088 H3079 0.930 . S
C3088 C3086 1.384 . S
C3088 C3089 1.372 . S
C3089 C3088 1.372 . S
C3089 C3090 1.400 . S
C3089 C3094 1.490 . S
C3090 H3080 0.930 . S
C3090 C3089 1.400 . S
C3090 C3093 1.386 . S
H3091 C3107 0.930 . S
H3092 C3108 0.931 . S
C3093 H3081 0.929 . S
C3093 C3087 1.390 . S
C3093 C3090 1.386 . S
C3094 C3089 1.490 . S
C3094 C3096 1.395 . S
C3094 C3097 1.403 . S
H3095 C3101 0.930 . S
C3096 H3082 0.930 . S
C3096 C3094 1.395 . S
C3096 C3099 1.403 . S
C3097 C3094 1.403 . S
C3097 C3098 1.524 . S
C3097 C3101 1.400 . S
C3098 H3083 0.960 . S
C3098 H3084 0.960 . S
C3098 H3085 0.960 . S
C3098 C3097 1.524 . S
C3099 C3096 1.403 . S
C3099 C3100 1.392 . S
C3099 C3103 1.495 . S
C3100 C3099 1.392 . S
C3100 C3101 1.385 . S
C3100 C3102 1.478 . S
C3101 H3095 0.930 . S
C3101 C3097 1.400 . S
C3101 C3100 1.385 . S
C3102 C3100 1.478 . S
C3102 C3104 1.381 . S
C3102 C3108 1.383 . S
C3103 C3099 1.495 . S
C3103 H3109 0.959 . S
C3103 H3110 0.961 . S
C3103 H3111 0.960 . S
C3104 C3102 1.381 . S
C3104 C3105 1.394 . S
C3104 H3112 0.930 . S
C3105 C3104 1.394 . S
C3105 C3106 1.383 . S
C3105 H3113 0.929 . S
C3106 C3105 1.383 . S
C3106 C3107 1.377 . S
C3107 H3091 0.930 . S
C3107 C3106 1.377 . S
C3107 C3108 1.379 . S
C3108 H3092 0.931 . S
C3108 C3102 1.383 . S
C3108 C3107 1.379 . S
H3109 C3103 0.959 . S
H3110 C3103 0.961 . S
H3111 C3103 0.960 . S
H3112 C3104 0.930 . S
H3113 C3105 0.929 . S
H3114 C3122 0.929 . S
H3115 C3124 0.975 . S
H3116 C3126 0.930 . S
H3117 C3129 0.929 . S
H3118 C3132 0.930 . S
H3119 C3134 0.960 . S
H3120 C3134 0.960 . S
H3121 C3134 0.960 . S
C3122 H3114 0.929 . S
C3122 C3123 1.377 . S
C3122 C3124 1.384 . S
C3123 C3122 1.377 . S
C3123 C3129 1.390 . S
C3124 H3115 0.975 . S
C3124 C3122 1.384 . S
C3124 C3125 1.372 . S
C3125 C3124 1.372 . S
C3125 C3126 1.400 . S
C3125 C3130 1.490 . S
C3126 H3116 0.930 . S
C3126 C3125 1.400 . S
C3126 C3129 1.386 . S
H3127 C3143 0.930 . S
H3128 C3144 0.931 . S
C3129 H3117 0.929 . S
C3129 C3123 1.390 . S
C3129 C3126 1.386 . S
C3130 C3125 1.490 . S
C3130 C3132 1.395 1_655 S
C3130 C3133 1.403 . S
H3131 C3137 0.930 . S
C3132 H3118 0.930 . S
C3132 C3130 1.395 1_455 S
C3132 C3135 1.403 . S
C3133 C3130 1.403 . S
C3133 C3134 1.524 . S
C3133 C3137 1.400 . S
C3134 H3119 0.960 . S
C3134 H3120 0.960 . S
C3134 H3121 0.960 . S
C3134 C3133 1.524 . S
C3135 C3132 1.403 . S
C3135 C3136 1.392 1_455 S
C3135 C3139 1.495 . S
C3136 C3135 1.392 1_655 S
C3136 C3137 1.385 . S
C3136 C3138 1.478 . S
C3137 H3131 0.930 . S
C3137 C3133 1.400 . S
C3137 C3136 1.385 . S
C3138 C3136 1.478 . S
C3138 C3140 1.381 1_655 S
C3138 C3144 1.383 . S
C3139 C3135 1.495 . S
C3139 H3145 0.959 . S
C3139 H3146 0.961 . S
C3139 H3147 0.960 . S
C3140 C3138 1.381 1_455 S
C3140 C3141 1.394 . S
C3140 H3148 0.930 . S
C3141 C3140 1.394 . S
C3141 C3142 1.374 1_455 S
C3141 H3149 0.929 . S
C3142 C3141 1.374 1_655 S
C3142 C3143 1.415 . S
C3143 H3127 0.930 . S
C3143 C3142 1.415 . S
C3143 C3144 1.379 . S
C3144 H3128 0.931 . S
C3144 C3138 1.383 . S
C3144 C3143 1.379 . S
H3145 C3139 0.959 . S
H3146 C3139 0.961 . S
H3147 C3139 0.960 . S
H3148 C3140 0.930 . S
H3149 C3141 0.929 . S
H3150 C3158 0.929 . S
H3151 C3160 0.930 . S
H3152 C3162 0.930 . S
H3153 C3165 0.929 . S
H3154 C3168 0.930 . S
H3155 C3170 0.960 . S
H3156 C3170 0.960 . S
H3157 C3170 0.960 . S
C3158 H3150 0.929 . S
C3158 C3159 1.377 . S
C3158 C3160 1.384 . S
C3159 C3158 1.377 . S
C3159 C3165 1.390 . S
C3160 H3151 0.930 . S
C3160 C3158 1.384 . S
C3160 C3161 1.372 . S
C3161 C3160 1.372 . S
C3161 C3162 1.400 . S
C3161 C3166 1.490 . S
C3162 H3152 0.930 . S
C3162 C3161 1.400 . S
C3162 C3165 1.386 . S
H3163 C3179 0.930 . S
H3164 C3180 0.931 . S
C3165 H3153 0.929 . S
C3165 C3159 1.390 . S
C3165 C3162 1.386 . S
C3166 C3161 1.490 . S
C3166 C3168 1.395 . S
C3166 C3169 1.403 . S
H3167 C3173 0.930 . S
C3168 H3154 0.930 . S
C3168 C3166 1.395 . S
C3168 C3171 1.403 . S
C3169 C3166 1.403 . S
C3169 C3170 1.524 . S
C3169 C3173 1.400 . S
C3170 H3155 0.960 . S
C3170 H3156 0.960 . S
C3170 H3157 0.960 . S
C3170 C3169 1.524 . S
C3171 C3168 1.403 . S
C3171 C3172 1.392 . S
C3171 C3175 1.495 . S
C3172 C3171 1.392 . S
C3172 C3173 1.385 . S
C3172 C3174 1.478 . S
C3173 H3167 0.930 . S
C3173 C3169 1.400 . S
C3173 C3172 1.385 . S
C3174 C3172 1.478 . S
C3174 C3176 1.381 . S
C3174 C3180 1.383 . S
C3175 C3171 1.495 . S
C3175 H3181 0.959 . S
C3175 H3182 0.961 . S
C3175 H3183 0.960 . S
C3176 C3174 1.381 . S
C3176 C3177 1.394 . S
C3176 H3184 0.930 . S
C3177 C3176 1.394 . S
C3177 C3178 1.383 . S
C3177 H3185 0.929 . S
C3178 C3177 1.383 . S
C3178 C3179 1.377 . S
C3179 H3163 0.930 . S
C3179 C3178 1.377 . S
C3179 C3180 1.379 . S
C3180 H3164 0.931 . S
C3180 C3174 1.383 . S
C3180 C3179 1.379 . S
H3181 C3175 0.959 . S
H3182 C3175 0.961 . S
H3183 C3175 0.960 . S
H3184 C3176 0.930 . S
H3185 C3177 0.929 . S
H3186 C3194 0.929 1_565 S
H3187 C3196 0.977 . S
H3188 C3198 0.930 . S
H3189 C3201 0.929 . S
H3190 C3204 0.930 . S
H3191 C3206 0.960 . S
H3192 C3206 0.960 . S
H3193 C3206 0.960 . S
C3194 H3186 0.929 1_545 S
C3194 C3195 1.377 . S
C3194 C3196 1.411 1_545 S
C3195 C3194 1.377 . S
C3195 C3201 1.390 . S
C3196 H3187 0.977 . S
C3196 C3194 1.411 1_565 S
C3196 C3197 1.301 1_565 S
C3197 C3196 1.301 1_545 S
C3197 C3198 1.400 . S
C3197 C3202 1.490 . S
C3198 H3188 0.930 . S
C3198 C3197 1.400 . S
C3198 C3201 1.386 . S
H3199 C3215 0.930 . S
H3200 C3216 0.931 . S
C3201 H3189 0.929 . S
C3201 C3195 1.390 . S
C3201 C3198 1.386 . S
C3202 C3197 1.490 . S
C3202 C3204 1.395 . S
C3202 C3205 1.403 . S
H3203 C3209 0.930 . S
C3204 H3190 0.930 . S
C3204 C3202 1.395 . S
C3204 C3207 1.403 . S
C3205 C3202 1.403 . S
C3205 C3206 1.524 . S
C3205 C3209 1.400 . S
C3206 H3191 0.960 . S
C3206 H3192 0.960 . S
C3206 H3193 0.960 . S
C3206 C3205 1.524 . S
C3207 C3204 1.403 . S
C3207 C3208 1.392 . S
C3207 C3211 1.495 1_545 S
C3208 C3207 1.392 . S
C3208 C3209 1.385 . S
C3208 C3210 1.478 . S
C3209 H3203 0.930 . S
C3209 C3205 1.400 . S
C3209 C3208 1.385 . S
C3210 C3208 1.478 . S
C3210 C3212 1.381 1_545 S
C3210 C3216 1.383 . S
C3211 C3207 1.495 1_565 S
C3211 H3217 0.959 . S
C3211 H3218 0.961 1_565 S
C3211 H3219 0.960 . S
C3212 C3210 1.381 1_565 S
C3212 C3213 1.394 . S
C3212 H3220 0.930 . S
C3213 C3212 1.394 . S
C3213 C3214 1.338 1_565 S
C3213 H3221 0.929 . S
C3214 C3213 1.338 1_545 S
C3214 C3215 1.404 . S
C3215 H3199 0.930 . S
C3215 C3214 1.404 . S
C3215 C3216 1.379 . S
C3216 H3200 0.931 . S
C3216 C3210 1.383 . S
C3216 C3215 1.379 . S
H3217 C3211 0.959 . S
H3218 C3211 0.961 1_545 S
H3219 C3211 0.960 . S
H3220 C3212 0.930 . S
H3221 C3213 0.929 . S
C639 C13 1.502 . S
C658 C458 1.524 1_655 S
C675 C27 1.379 . S
C694 C471 1.440 . S
C730 C500 1.527 1_545 S
C711 C36 1.461 . S
C747 C41 1.463 . S
C766 C513 1.526 . S
C783 C8 1.585 . S
C802 C534 1.658 . S
C819 C22 1.461 . S
C838 C563 1.465 . S
C855 C55 1.489 . S
C874 C542 1.534 1_655 S
C910 C555 1.394 . S
C891 C69 1.362 . S
C946 C521 1.492 . S
C927 C78 1.471 . S
C963 C83 1.454 . S
C982 C492 1.512 1_545 S
C1018 C450 1.623 1_655 S
C999 C50 1.588 . S
C1035 C64 1.448 . S
C1054 C479 1.508 . S
C1071 C97 1.527 . S
C1090 C584 1.548 . S
C1107 C111 1.393 . S
C1126 C597 1.448 . S
C1162 C626 1.551 . S
C1143 C120 1.507 . S
C1179 C125 1.487 . S
C1198 C261 1.562 . S
C1215 C92 1.653 . S
C1234 C282 1.702 . S
C1251 C106 1.479 . S
C1270 C311 1.527 . S
C1287 C139 1.503 . S
C1306 C290 1.575 . S
C1323 C153 1.393 . S
C1342 C303 1.403 . S
C1378 C269 1.571 . S
C1359 C162 1.510 . S
C1414 C618 1.549 . S
C1395 C167 1.489 . S
C1450 C576 1.666 . S
C1431 C134 1.630 . S
C1486 C605 1.546 . S
C1467 C148 1.487 . S
C1503 C181 1.519 . S
C1522 C332 1.566 . S
C1539 C195 1.381 . S
C1558 C345 1.409 . S
C1575 C204 1.522 . S
C1594 C374 1.510 . S
C1611 C209 1.486 . S
C1630 C387 1.536 . S
C1666 C408 1.687 . S
C1647 C176 1.653 . S
C1702 C437 1.516 . S
C1683 C190 1.487 . S
C1738 C416 1.568 . S
C1719 C223 1.528 . S
C1774 C429 1.457 . S
C1755 C237 1.399 . S
C1791 C246 1.500 . S
C1810 C395 1.555 . S
C1846 C366 1.494 . S
C1827 C251 1.472 . S
C1863 C218 1.634 . S
C1882 C324 1.663 . S
C1918 C353 1.528 . S
C1899 C232 1.488 . S
C1954 C264 1.300 . S
C1935 C11 1.353 . S
C1971 C25 1.216 . S
C1990 C285 1.088 . S
C2026 C313 1.189 . S
C2007 C35 1.326 . S
C2062 C334 1.248 . S
C2043 C39 1.312 1_556 S
C2098 C348 1.294 . S
C2079 C7 1.440 1_556 S
C2134 C376 1.222 . S
C2115 C21 1.312 1_556 S
C2151 C53 1.389 . S
C2170 C369 1.280 . S
C2187 C67 1.215 1_556 S
C2206 C327 1.071 . S
C2223 C77 1.317 1_556 S
C2242 C355 1.276 . S
C2259 C81 1.360 . S
C2278 C292 1.294 . S
C2314 C306 1.321 . S
C2295 C49 1.441 . S
C2331 C63 1.327 . S
C2350 C271 1.241 . S
C2386 C390 1.205 . S
C2367 C95 1.348 . S
C2403 C109 1.263 . S
C2422 C411 1.138 . S
C2439 C119 1.386 . S
C2458 C439 1.260 . S
C2494 C460 1.122 . S
C2475 C123 1.257 . S
C2511 C91 1.437 . S
C2530 C474 1.356 . S
C2547 C105 1.269 . S
C2566 C502 1.163 . S
C2583 C137 1.319 . S
C2602 C495 1.237 . S
C2619 C151 1.167 . S
C2638 C453 1.022 . S
C2674 C481 1.263 . S
C2655 C161 1.350 . S
C2691 C165 1.341 . S
C2710 C418 1.239 . S
C2727 C133 1.480 . S
C2746 C432 1.308 . S
C2782 C397 1.341 . S
C2763 C147 1.383 . S
C2818 C516 1.233 1_545 S
C2799 C179 1.316 . S
C2835 C193 1.158 . S
C2854 C537 1.096 1_655 S
C2871 C203 1.329 . S
C2890 C565 1.227 . S
C2926 C586 1.163 . S
C2907 C207 1.315 . S
C2962 C600 1.317 . S
C2943 C175 1.472 . S
C2979 C189 1.370 . S
C2998 C628 1.249 . S
C3015 C221 1.367 . S
C3034 C621 1.184 . S
C3051 C235 1.275 . S
C3070 C579 1.147 . S
C3106 C607 1.327 . S
C3087 C245 1.388 . S
C3142 C544 1.128 1_655 S
C3123 C249 1.251 . S
C3178 C558 1.303 . S
C3159 C217 1.451 . S
C3195 C231 1.293 . S
C3214 C523 1.190 1_545 S
