# Generated by pormake.
# Topology ptr, (4,4)-cn, num edge types: 1
# Building blocks:
#     Node 0, Type 0, BuildingBlock: AZAVOO_clean_sbu_0, # of connection points: 4
#     Node 1, Type 0, BuildingBlock: AZAVOO_clean_sbu_0, # of connection points: 4
#     Node 2, Type 0, BuildingBlock: AZAVOO_clean_sbu_0, # of connection points: 4
#     Node 3, Type 0, BuildingBlock: AZAVOO_clean_sbu_0, # of connection points: 4
#     Node 4, Type 0, BuildingBlock: AZAVOO_clean_sbu_0, # of connection points: 4
#     Node 5, Type 0, BuildingBlock: AZAVOO_clean_sbu_0, # of connection points: 4
#     Node 6, Type 0, BuildingBlock: AZAVOO_clean_sbu_0, # of connection points: 4
#     Node 7, Type 0, BuildingBlock: AZAVOO_clean_sbu_0, # of connection points: 4
#     Node 8, Type 0, BuildingBlock: AZAVOO_clean_sbu_0, # of connection points: 4
#     Node 9, Type 0, BuildingBlock: AZAVOO_clean_sbu_0, # of connection points: 4
#     Node 10, Type 0, BuildingBlock: AZAVOO_clean_sbu_0, # of connection points: 4
#     Node 11, Type 0, BuildingBlock: AZAVOO_clean_sbu_0, # of connection points: 4
#     Node 12, Type 0, BuildingBlock: AZAVOO_clean_sbu_0, # of connection points: 4
#     Node 13, Type 0, BuildingBlock: AZAVOO_clean_sbu_0, # of connection points: 4
#     Node 14, Type 0, BuildingBlock: AZAVOO_clean_sbu_0, # of connection points: 4
#     Node 15, Type 0, BuildingBlock: AZAVOO_clean_sbu_0, # of connection points: 4
#     Node 16, Type 0, BuildingBlock: AZAVOO_clean_sbu_0, # of connection points: 4
#     Node 17, Type 0, BuildingBlock: AZAVOO_clean_sbu_0, # of connection points: 4
#     Node 18, Type 1, BuildingBlock: AZAVOO_clean_linker_0, # of connection points: 4
#     Node 19, Type 1, BuildingBlock: AZAVOO_clean_linker_0, # of connection points: 4
#     Node 20, Type 1, BuildingBlock: AZAVOO_clean_linker_0, # of connection points: 4
#     Node 21, Type 1, BuildingBlock: AZAVOO_clean_linker_0, # of connection points: 4
#     Node 22, Type 1, BuildingBlock: AZAVOO_clean_linker_0, # of connection points: 4
#     Node 23, Type 1, BuildingBlock: AZAVOO_clean_linker_0, # of connection points: 4
#     Node 24, Type 1, BuildingBlock: AZAVOO_clean_linker_0, # of connection points: 4
#     Node 25, Type 1, BuildingBlock: AZAVOO_clean_linker_0, # of connection points: 4
#     Node 26, Type 1, BuildingBlock: AZAVOO_clean_linker_0, # of connection points: 4
#     Node 27, Type 1, BuildingBlock: AZAVOO_clean_linker_0, # of connection points: 4
#     Node 28, Type 1, BuildingBlock: AZAVOO_clean_linker_0, # of connection points: 4
#     Node 29, Type 1, BuildingBlock: AZAVOO_clean_linker_0, # of connection points: 4
#     Node 30, Type 1, BuildingBlock: AZAVOO_clean_linker_0, # of connection points: 4
#     Node 31, Type 1, BuildingBlock: AZAVOO_clean_linker_0, # of connection points: 4
#     Node 32, Type 1, BuildingBlock: AZAVOO_clean_linker_0, # of connection points: 4
#     Node 33, Type 1, BuildingBlock: AZAVOO_clean_linker_0, # of connection points: 4
#     Node 34, Type 1, BuildingBlock: AZAVOO_clean_linker_0, # of connection points: 4
#     Node 35, Type 1, BuildingBlock: AZAVOO_clean_linker_0, # of connection points: 4
#     Edge 36, Type (0, 1), BuildingBlock: XIVTED_clean_linker_0, # of connection points: 2
#     Edge 37, Type (0, 1), BuildingBlock: XIVTED_clean_linker_0, # of connection points: 2
#     Edge 38, Type (0, 1), BuildingBlock: XIVTED_clean_linker_0, # of connection points: 2
#     Edge 39, Type (0, 1), BuildingBlock: XIVTED_clean_linker_0, # of connection points: 2
#     Edge 40, Type (0, 1), BuildingBlock: XIVTED_clean_linker_0, # of connection points: 2
#     Edge 41, Type (0, 1), BuildingBlock: XIVTED_clean_linker_0, # of connection points: 2
#     Edge 42, Type (0, 1), BuildingBlock: XIVTED_clean_linker_0, # of connection points: 2
#     Edge 43, Type (0, 1), BuildingBlock: XIVTED_clean_linker_0, # of connection points: 2
#     Edge 44, Type (0, 1), BuildingBlock: XIVTED_clean_linker_0, # of connection points: 2
#     Edge 45, Type (0, 1), BuildingBlock: XIVTED_clean_linker_0, # of connection points: 2
#     Edge 46, Type (0, 1), BuildingBlock: XIVTED_clean_linker_0, # of connection points: 2
#     Edge 47, Type (0, 1), BuildingBlock: XIVTED_clean_linker_0, # of connection points: 2
#     Edge 48, Type (0, 1), BuildingBlock: XIVTED_clean_linker_0, # of connection points: 2
#     Edge 49, Type (0, 1), BuildingBlock: XIVTED_clean_linker_0, # of connection points: 2
#     Edge 50, Type (0, 1), BuildingBlock: XIVTED_clean_linker_0, # of connection points: 2
#     Edge 51, Type (0, 1), BuildingBlock: XIVTED_clean_linker_0, # of connection points: 2
#     Edge 52, Type (0, 1), BuildingBlock: XIVTED_clean_linker_0, # of connection points: 2
#     Edge 53, Type (0, 1), BuildingBlock: XIVTED_clean_linker_0, # of connection points: 2
#     Edge 54, Type (0, 1), BuildingBlock: XIVTED_clean_linker_0, # of connection points: 2
#     Edge 55, Type (0, 1), BuildingBlock: XIVTED_clean_linker_0, # of connection points: 2
#     Edge 56, Type (0, 1), BuildingBlock: XIVTED_clean_linker_0, # of connection points: 2
#     Edge 57, Type (0, 1), BuildingBlock: XIVTED_clean_linker_0, # of connection points: 2
#     Edge 58, Type (0, 1), BuildingBlock: XIVTED_clean_linker_0, # of connection points: 2
#     Edge 59, Type (0, 1), BuildingBlock: XIVTED_clean_linker_0, # of connection points: 2
#     Edge 60, Type (0, 1), BuildingBlock: XIVTED_clean_linker_0, # of connection points: 2
#     Edge 61, Type (0, 1), BuildingBlock: XIVTED_clean_linker_0, # of connection points: 2
#     Edge 62, Type (0, 1), BuildingBlock: XIVTED_clean_linker_0, # of connection points: 2
#     Edge 63, Type (0, 1), BuildingBlock: XIVTED_clean_linker_0, # of connection points: 2
#     Edge 64, Type (0, 1), BuildingBlock: XIVTED_clean_linker_0, # of connection points: 2
#     Edge 65, Type (0, 1), BuildingBlock: XIVTED_clean_linker_0, # of connection points: 2
#     Edge 66, Type (0, 1), BuildingBlock: XIVTED_clean_linker_0, # of connection points: 2
#     Edge 67, Type (0, 1), BuildingBlock: XIVTED_clean_linker_0, # of connection points: 2
#     Edge 68, Type (0, 1), BuildingBlock: XIVTED_clean_linker_0, # of connection points: 2
#     Edge 69, Type (0, 1), BuildingBlock: XIVTED_clean_linker_0, # of connection points: 2
#     Edge 70, Type (0, 1), BuildingBlock: XIVTED_clean_linker_0, # of connection points: 2
#     Edge 71, Type (0, 1), BuildingBlock: XIVTED_clean_linker_0, # of connection points: 2
#     Edge 72, Type (0, 1), BuildingBlock: XIVTED_clean_linker_0, # of connection points: 2
#     Edge 73, Type (0, 1), BuildingBlock: XIVTED_clean_linker_0, # of connection points: 2
#     Edge 74, Type (0, 1), BuildingBlock: XIVTED_clean_linker_0, # of connection points: 2
#     Edge 75, Type (0, 1), BuildingBlock: XIVTED_clean_linker_0, # of connection points: 2
#     Edge 76, Type (0, 1), BuildingBlock: XIVTED_clean_linker_0, # of connection points: 2
#     Edge 77, Type (0, 1), BuildingBlock: XIVTED_clean_linker_0, # of connection points: 2
#     Edge 78, Type (0, 1), BuildingBlock: XIVTED_clean_linker_0, # of connection points: 2
#     Edge 79, Type (0, 1), BuildingBlock: XIVTED_clean_linker_0, # of connection points: 2
#     Edge 80, Type (0, 1), BuildingBlock: XIVTED_clean_linker_0, # of connection points: 2
#     Edge 81, Type (0, 1), BuildingBlock: XIVTED_clean_linker_0, # of connection points: 2
#     Edge 82, Type (0, 1), BuildingBlock: XIVTED_clean_linker_0, # of connection points: 2
#     Edge 83, Type (0, 1), BuildingBlock: XIVTED_clean_linker_0, # of connection points: 2
#     Edge 84, Type (0, 1), BuildingBlock: XIVTED_clean_linker_0, # of connection points: 2
#     Edge 85, Type (0, 1), BuildingBlock: XIVTED_clean_linker_0, # of connection points: 2
#     Edge 86, Type (0, 1), BuildingBlock: XIVTED_clean_linker_0, # of connection points: 2
#     Edge 87, Type (0, 1), BuildingBlock: XIVTED_clean_linker_0, # of connection points: 2
#     Edge 88, Type (0, 1), BuildingBlock: XIVTED_clean_linker_0, # of connection points: 2
#     Edge 89, Type (0, 1), BuildingBlock: XIVTED_clean_linker_0, # of connection points: 2
#     Edge 90, Type (0, 1), BuildingBlock: XIVTED_clean_linker_0, # of connection points: 2
#     Edge 91, Type (0, 1), BuildingBlock: XIVTED_clean_linker_0, # of connection points: 2
#     Edge 92, Type (0, 1), BuildingBlock: XIVTED_clean_linker_0, # of connection points: 2
#     Edge 93, Type (0, 1), BuildingBlock: XIVTED_clean_linker_0, # of connection points: 2
#     Edge 94, Type (0, 1), BuildingBlock: XIVTED_clean_linker_0, # of connection points: 2
#     Edge 95, Type (0, 1), BuildingBlock: XIVTED_clean_linker_0, # of connection points: 2
#     Edge 96, Type (0, 1), BuildingBlock: XIVTED_clean_linker_0, # of connection points: 2
#     Edge 97, Type (0, 1), BuildingBlock: XIVTED_clean_linker_0, # of connection points: 2
#     Edge 98, Type (0, 1), BuildingBlock: XIVTED_clean_linker_0, # of connection points: 2
#     Edge 99, Type (0, 1), BuildingBlock: XIVTED_clean_linker_0, # of connection points: 2
#     Edge 100, Type (0, 1), BuildingBlock: XIVTED_clean_linker_0, # of connection points: 2
#     Edge 101, Type (0, 1), BuildingBlock: XIVTED_clean_linker_0, # of connection points: 2
#     Edge 102, Type (0, 1), BuildingBlock: XIVTED_clean_linker_0, # of connection points: 2
#     Edge 103, Type (0, 1), BuildingBlock: XIVTED_clean_linker_0, # of connection points: 2
#     Edge 104, Type (0, 1), BuildingBlock: XIVTED_clean_linker_0, # of connection points: 2
#     Edge 105, Type (0, 1), BuildingBlock: XIVTED_clean_linker_0, # of connection points: 2
#     Edge 106, Type (0, 1), BuildingBlock: XIVTED_clean_linker_0, # of connection points: 2
#     Edge 107, Type (0, 1), BuildingBlock: XIVTED_clean_linker_0, # of connection points: 2
# Relax obj value: 0.122
# Max RMSD: 0.324
# Mean RMSD: 0.192
data_MOF--net-ptr--node1-AZAVOO_clean_sbu_0--node2-AZAVOO_clean_linker_0--edge1-XIVTED_clean_linker_0
_symmetry_space_group_name_H-M    P1
_symmetry_Int_Tables_number       1
_symmetry_cell_setting            triclinic
loop_
_symmetry_equiv_pos_as_xyz
'x, y, z'
_cell_length_a     82.895979
_cell_length_b     80.495811
_cell_length_c     67.056089
_cell_angle_alpha  93.635207
_cell_angle_beta   93.581404
_cell_angle_gamma 120.10341
loop_
_atom_site_label
_atom_site_type_symbol
_atom_site_fract_x
_atom_site_fract_y
_atom_site_fract_z
_atom_type_partial_charge
Mg0 Mg 0.01519 0.35288 0.99777 0.0
O1 O 0.00043 0.36239 0.01999 0.0
O2 O 0.97932 0.36644 0.00186 0.0
Mg3 Mg 0.97915 0.35787 0.96875 0.0
C4 C 0.98781 0.3671 0.0187 0.0
C5 C 0.02986 0.32999 0.02023 0.0
O6 O 0.02295 0.3196 0.00266 0.0
O7 O 0.98992 0.32224 0.99281 0.0
O8 O 0.96894 0.32655 0.9748 0.0
O9 O 0.03524 0.3841 0.9943 0.0
O10 O 0.00849 0.36552 0.97517 0.0
C11 C 0.97372 0.31566 0.98329 0.0
C12 C 0.02305 0.38234 0.98001 0.0
O13 O 0.02877 0.34512 0.02346 0.0
Mg14 Mg 0.64354 0.63181 0.09554 0.0
O15 O 0.62192 0.62643 0.06912 0.0
O16 O 0.59538 0.62092 0.08135 0.0
Mg17 Mg 0.60029 0.62335 0.1157 0.0
C18 C 0.60493 0.62255 0.06661 0.0
C19 C 0.68216 0.65893 0.07991 0.0
O20 O 0.68523 0.66827 0.09781 0.0
O21 O 0.64812 0.66177 0.10348 0.0
O22 O 0.62214 0.65582 0.11723 0.0
O23 O 0.6331 0.60014 0.09447 0.0
O24 O 0.62188 0.61538 0.11229 0.0
C25 C 0.63835 0.66759 0.11223 0.0
C26 C 0.62081 0.59939 0.10595 0.0
O27 O 0.66658 0.64344 0.0748 0.0
Mg28 Mg 0.36768 0.98624 0.0034 0.0
O29 O 0.38843 0.99669 0.03182 0.0
O30 O 0.41319 0.02522 0.02765 0.0
Mg31 Mg 0.4089 0.03186 0.9956 0.0
C32 C 0.40435 0.01142 0.0383 0.0
C33 C 0.32818 0.9632 0.01489 0.0
O34 O 0.32625 0.97093 0.99889 0.0
O35 O 0.36003 0.00902 0.01094 0.0
O36 O 0.38456 0.03636 0.00371 0.0
O37 O 0.38105 0.97054 0.99023 0.0
O38 O 0.38938 0.00074 0.98615 0.0
C39 C 0.36808 0.02704 0.00922 0.0
C40 C 0.39205 0.98643 0.98282 0.0
O41 O 0.34424 0.96574 0.02061 0.0
Mg42 Mg 0.97875 0.64653 0.07542 0.0
O43 O 0.99474 0.63821 0.0542 0.0
O44 O 0.01405 0.63182 0.07244 0.0
Mg45 Mg 0.01053 0.63644 0.10569 0.0
C46 C 0.00703 0.63308 0.0555 0.0
C47 C 0.96641 0.67178 0.05412 0.0
O48 O 0.97038 0.67957 0.07289 0.0
O49 O 0.00466 0.67644 0.08457 0.0
O50 O 0.02227 0.66887 0.10425 0.0
O51 O 0.95719 0.61498 0.07474 0.0
O52 O 0.98212 0.63096 0.09719 0.0
C53 C 0.01937 0.68135 0.09646 0.0
C54 C 0.96746 0.61491 0.09007 0.0
O55 O 0.96865 0.65753 0.0497 0.0
Mg56 Mg 0.36309 0.37874 0.97859 0.0
O57 O 0.38529 0.38399 0.00421 0.0
O58 O 0.41184 0.39079 0.99113 0.0
Mg59 Mg 0.40632 0.38962 0.95695 0.0
C60 C 0.40243 0.38832 0.00617 0.0
C61 C 0.32403 0.35206 0.99276 0.0
O62 O 0.32002 0.34639 0.97338 0.0
O63 O 0.35945 0.3495 0.96909 0.0
O64 O 0.38519 0.35677 0.95414 0.0
O65 O 0.37237 0.41016 0.98126 0.0
O66 O 0.38417 0.39645 0.96197 0.0
C67 C 0.36928 0.34443 0.95935 0.0
C68 C 0.38469 0.41191 0.96931 0.0
O69 O 0.34052 0.36538 0.99949 0.0
Mg70 Mg 0.64059 0.02186 0.06871 0.0
O71 O 0.61926 0.01134 0.04073 0.0
O72 O 0.59332 0.98446 0.0465 0.0
Mg73 Mg 0.59848 0.97743 0.07791 0.0
C74 C 0.60259 0.99746 0.03519 0.0
C75 C 0.67959 0.04307 0.05518 0.0
O76 O 0.68192 0.03555 0.07118 0.0
O77 O 0.64681 0.99812 0.06078 0.0
O78 O 0.62141 0.97146 0.06784 0.0
O79 O 0.62831 0.03861 0.08245 0.0
O80 O 0.61925 0.00829 0.08667 0.0
C81 C 0.63779 0.98 0.06198 0.0
C82 C 0.61713 0.02294 0.09008 0.0
O83 O 0.66366 0.04126 0.05043 0.0
Mg84 Mg 0.68085 0.69439 0.32768 0.0
O85 O 0.66742 0.70264 0.35256 0.0
O86 O 0.64612 0.70853 0.33772 0.0
Mg87 Mg 0.64692 0.70552 0.3037 0.0
C88 C 0.65477 0.70725 0.35345 0.0
C89 C 0.70242 0.69185 0.36636 0.0
O90 O 0.70501 0.70923 0.37065 0.0
O91 O 0.65418 0.6649 0.31979 0.0
O92 O 0.63517 0.67299 0.30364 0.0
O93 O 0.70319 0.72543 0.32801 0.0
O94 O 0.67591 0.71156 0.30923 0.0
C95 C 0.6386 0.66027 0.30984 0.0
C96 C 0.6916 0.72701 0.31553 0.0
O97 O 0.69284 0.68201 0.34996 0.0
Mg98 Mg 0.30356 0.96365 0.42677 0.0
O99 O 0.28288 0.95718 0.39909 0.0
O100 O 0.25742 0.95683 0.40864 0.0
Mg101 Mg 0.26223 0.9636 0.44293 0.0
C102 C 0.26671 0.95517 0.39497 0.0
C103 C 0.34272 0.98252 0.41037 0.0
O104 O 0.34732 0.9941 0.42707 0.0
O105 O 0.31189 0.99525 0.42932 0.0
O106 O 0.28645 0.99435 0.44001 0.0
O107 O 0.28956 0.93234 0.4309 0.0
O108 O 0.28192 0.95272 0.44485 0.0
C109 C 0.30314 0.00367 0.43502 0.0
C110 C 0.27884 0.93536 0.44199 0.0
O111 O 0.32592 0.96872 0.40619 0.0
Mg112 Mg 0.05101 0.32711 0.33971 0.0
O113 O 0.07122 0.33625 0.36846 0.0
O114 O 0.09884 0.3609 0.3625 0.0
Mg115 Mg 0.09696 0.36543 0.32926 0.0
C116 C 0.08818 0.34931 0.37429 0.0
C117 C 0.01125 0.31179 0.35178 0.0
O118 O 0.0108 0.32027 0.33581 0.0
O119 O 0.0499 0.35458 0.34442 0.0
O120 O 0.07719 0.37712 0.33521 0.0
O121 O 0.05827 0.30517 0.3289 0.0
O122 O 0.07303 0.33559 0.32236 0.0
C123 C 0.06106 0.37189 0.34099 0.0
C124 C 0.07152 0.31884 0.32048 0.0
O125 O 0.02613 0.31171 0.35742 0.0
Mg126 Mg 0.65409 0.97215 0.40691 0.0
O127 O 0.67089 0.96495 0.38543 0.0
O128 O 0.69086 0.95979 0.40434 0.0
Mg129 Mg 0.6873 0.96396 0.43751 0.0
C130 C 0.68379 0.96068 0.38723 0.0
C131 C 0.63078 0.96987 0.36753 0.0
O132 O 0.62637 0.95176 0.36764 0.0
O133 O 0.67944 0.00252 0.41559 0.0
O134 O 0.69773 0.99618 0.43578 0.0
O135 O 0.63275 0.94062 0.40672 0.0
O136 O 0.6585 0.95639 0.42795 0.0
C137 C 0.69424 0.00813 0.42761 0.0
C138 C 0.64377 0.94028 0.42101 0.0
O139 O 0.64255 0.98233 0.38147 0.0
Mg140 Mg 0.03778 0.71637 0.32088 0.0
O141 O 0.05812 0.72324 0.34898 0.0
O142 O 0.0862 0.73102 0.3395 0.0
Mg143 Mg 0.084 0.73069 0.30513 0.0
C144 C 0.07529 0.72819 0.35316 0.0
C145 C 0.9969 0.68956 0.33117 0.0
O146 O 0.99388 0.68568 0.31151 0.0
O147 O 0.03676 0.68805 0.31277 0.0
O148 O 0.06422 0.69763 0.30062 0.0
O149 O 0.04483 0.74711 0.32237 0.0
O150 O 0.05996 0.73529 0.30613 0.0
C151 C 0.04809 0.6843 0.30428 0.0
C152 C 0.05851 0.74998 0.31201 0.0
O153 O 0.01335 0.70161 0.33933 0.0
Mg154 Mg 0.29159 0.34986 0.3993 0.0
O155 O 0.269 0.33619 0.37254 0.0
O156 O 0.24432 0.30943 0.38054 0.0
Mg157 Mg 0.25101 0.30684 0.41348 0.0
C158 C 0.25269 0.32141 0.36796 0.0
C159 C 0.32847 0.38198 0.38301 0.0
O160 O 0.33245 0.39059 0.40143 0.0
O161 O 0.29833 0.32612 0.39437 0.0
O162 O 0.274 0.30047 0.40468 0.0
O163 O 0.27955 0.36754 0.411 0.0
O164 O 0.27138 0.33832 0.41894 0.0
C165 C 0.28997 0.3085 0.39784 0.0
C166 C 0.26914 0.35303 0.42063 0.0
O167 O 0.31285 0.36654 0.37807 0.0
Mg168 Mg 0.35321 0.03257 0.66627 0.0
O169 O 0.33857 0.04137 0.68892 0.0
O170 O 0.31577 0.04368 0.67201 0.0
Mg171 Mg 0.31737 0.03852 0.63828 0.0
C172 C 0.32496 0.0446 0.68847 0.0
C173 C 0.3679 0.00912 0.6894 0.0
O174 O 0.36091 0.99773 0.67241 0.0
O175 O 0.32769 0.002 0.66046 0.0
O176 O 0.30794 0.00663 0.64055 0.0
O177 O 0.3741 0.06362 0.66419 0.0
O178 O 0.34701 0.047 0.64508 0.0
C179 C 0.31236 0.99551 0.6491 0.0
C180 C 0.36211 0.06331 0.65062 0.0
O181 O 0.36657 0.02418 0.6915 0.0
Mg182 Mg 0.96734 0.29343 0.7524 0.0
O183 O 0.94763 0.2875 0.72392 0.0
O184 O 0.91931 0.27921 0.7331 0.0
Mg185 Mg 0.92077 0.2787 0.76735 0.0
C186 C 0.93047 0.28257 0.7196 0.0
C187 C 0.0085 0.31245 0.74337 0.0
O188 O 0.00952 0.30687 0.76118 0.0
O189 O 0.96819 0.32151 0.76098 0.0
O190 O 0.94045 0.31184 0.77248 0.0
O191 O 0.9603 0.26267 0.75032 0.0
O192 O 0.94476 0.27406 0.76637 0.0
C193 C 0.95671 0.3252 0.76919 0.0
C194 C 0.94642 0.25951 0.76047 0.0
O195 O 0.99268 0.3089 0.73525 0.0
Mg196 Mg 0.71139 0.65355 0.67302 0.0
O197 O 0.73427 0.66789 0.69952 0.0
O198 O 0.75801 0.69515 0.69098 0.0
Mg199 Mg 0.75087 0.69676 0.65781 0.0
C200 C 0.75028 0.68319 0.70378 0.0
C201 C 0.67361 0.62427 0.68795 0.0
O202 O 0.66866 0.62008 0.66847 0.0
O203 O 0.70385 0.67671 0.6775 0.0
O204 O 0.72728 0.70245 0.66618 0.0
O205 O 0.72346 0.63604 0.66163 0.0
O206 O 0.7313 0.66503 0.65302 0.0
C207 C 0.71147 0.69411 0.67333 0.0
C208 C 0.73359 0.65032 0.65159 0.0
O209 O 0.69053 0.63652 0.69439 0.0
Mg210 Mg 0.326 0.31349 0.73944 0.0
O211 O 0.34131 0.30498 0.71697 0.0
O212 O 0.36232 0.30058 0.73484 0.0
Mg213 Mg 0.36202 0.30816 0.76808 0.0
C214 C 0.35402 0.3004 0.71807 0.0
C215 C 0.29637 0.30968 0.70539 0.0
O216 O 0.28775 0.29209 0.71073 0.0
O217 O 0.35099 0.34427 0.7452 0.0
O218 O 0.37198 0.33963 0.76276 0.0
O219 O 0.306 0.28208 0.74202 0.0
O220 O 0.33254 0.30006 0.76158 0.0
C221 C 0.36719 0.3507 0.7547 0.0
C222 C 0.31798 0.28333 0.75625 0.0
O223 O 0.31263 0.32184 0.71401 0.0
Mg224 Mg 0.70081 0.04262 0.64155 0.0
O225 O 0.72365 0.04987 0.66691 0.0
O226 O 0.74905 0.05256 0.65433 0.0
Mg227 Mg 0.74251 0.04853 0.61991 0.0
C228 C 0.74032 0.05287 0.66923 0.0
C229 C 0.66232 0.02328 0.65899 0.0
O230 O 0.6565 0.01704 0.63987 0.0
O231 O 0.69509 0.01185 0.6357 0.0
O232 O 0.7201 0.01667 0.62047 0.0
O233 O 0.71199 0.07413 0.63993 0.0
O234 O 0.72074 0.05647 0.62215 0.0
C235 C 0.70424 0.00542 0.62655 0.0
C236 C 0.72251 0.07306 0.62701 0.0
O237 O 0.67978 0.03401 0.66439 0.0
Mg238 Mg 0.95122 0.67511 0.73019 0.0
O239 O 0.9301 0.66508 0.70219 0.0
O240 O 0.90303 0.6401 0.70881 0.0
Mg241 Mg 0.90656 0.63543 0.74177 0.0
C242 C 0.91312 0.65185 0.6968 0.0
C243 C 0.99054 0.7054 0.71866 0.0
O244 O 0.99213 0.71303 0.73711 0.0
O245 O 0.95364 0.64854 0.72498 0.0
O246 O 0.92703 0.62494 0.73432 0.0
O247 O 0.94279 0.696 0.74179 0.0
O248 O 0.92985 0.66567 0.74845 0.0
C249 C 0.94315 0.631 0.72814 0.0
C250 C 0.93038 0.68194 0.7506 0.0
O251 O 0.97514 0.69062 0.71135 0.0
H252 H 0.15986 0.31844 0.01601 0.0
H253 H 0.26633 0.27268 0.17316 0.0
H254 H 0.1589 0.32814 0.1263 0.0
H255 H 0.13403 0.33286 0.11145 0.0
H256 H 0.09359 0.27274 0.11503 0.0
H257 H 0.11878 0.26814 0.12977 0.0
H258 H 0.18677 0.32571 0.10063 0.0
H259 H 0.17986 0.3282 0.0653 0.0
H260 H 0.13313 0.26948 0.05929 0.0
H261 H 0.14034 0.26713 0.0946 0.0
H262 H 0.2185 0.32569 0.12799 0.0
H263 H 0.24178 0.33157 0.10472 0.0
H264 H 0.20486 0.27493 0.07274 0.0
H265 H 0.18145 0.2692 0.09627 0.0
H266 H 0.22039 0.32105 0.17078 0.0
H267 H 0.24836 0.31969 0.18183 0.0
H268 H 0.22261 0.26172 0.15163 0.0
H269 H 0.19464 0.26319 0.14086 0.0
H270 H 0.18895 0.32452 0.18953 0.0
H271 H 0.20017 0.32868 0.22505 0.0
H272 H 0.18913 0.27001 0.21997 0.0
H273 H 0.17739 0.26581 0.18439 0.0
H274 H 0.15564 0.3238 0.16822 0.0
H275 H 0.14026 0.32672 0.19702 0.0
H276 H 0.12434 0.26841 0.20829 0.0
H277 H 0.13897 0.26534 0.17883 0.0
O278 O 0.16239 0.31712 0.02992 0.0
O279 O 0.13847 0.28691 0.02764 0.0
O280 O 0.26801 0.3034 0.18437 0.0
O281 O 0.25542 0.27359 0.16903 0.0
C282 C 0.15626 0.29478 0.13569 0.0
C283 C 0.16823 0.29476 0.12158 0.0
C284 C 0.1844 0.29405 0.12804 0.0
C285 C 0.18841 0.29291 0.14851 0.0
C286 C 0.17653 0.29305 0.16262 0.0
C287 C 0.16029 0.29371 0.15618 0.0
C288 C 0.14061 0.29781 0.12906 0.0
C289 C 0.14461 0.31607 0.12416 0.0
C290 C 0.13037 0.31875 0.11578 0.0
C291 C 0.11183 0.30316 0.11205 0.0
C292 C 0.10776 0.28498 0.11758 0.0
C293 C 0.12206 0.28234 0.12611 0.0
C294 C 0.16414 0.2962 0.10009 0.0
C295 C 0.17514 0.31337 0.0916 0.0
C296 C 0.17111 0.31476 0.07144 0.0
C297 C 0.15595 0.29902 0.05945 0.0
C298 C 0.14492 0.28185 0.06808 0.0
C299 C 0.14899 0.28047 0.08823 0.0
C300 C 0.1984 0.29697 0.1139 0.0
C301 C 0.21552 0.31447 0.1161 0.0
C302 C 0.22882 0.31776 0.10283 0.0
C303 C 0.22522 0.30363 0.08701 0.0
C304 C 0.20798 0.2861 0.08475 0.0
C305 C 0.19465 0.28277 0.09816 0.0
C306 C 0.20543 0.29214 0.1552 0.0
C307 C 0.22077 0.30802 0.1667 0.0
C308 C 0.23675 0.30723 0.17293 0.0
C309 C 0.2377 0.29057 0.16765 0.0
C310 C 0.22233 0.27475 0.15599 0.0
C311 C 0.20634 0.27555 0.14981 0.0
C312 C 0.18231 0.29485 0.18443 0.0
C313 C 0.18871 0.31248 0.19616 0.0
C314 C 0.19527 0.31488 0.21639 0.0
C315 C 0.19567 0.29972 0.22527 0.0
C316 C 0.18885 0.28189 0.21358 0.0
C317 C 0.18225 0.2795 0.19328 0.0
C318 C 0.14826 0.2943 0.17133 0.0
C319 C 0.14828 0.31145 0.1765 0.0
C320 C 0.13978 0.3132 0.1932 0.0
C321 C 0.13132 0.29789 0.20516 0.0
C322 C 0.13059 0.28041 0.19935 0.0
C323 C 0.13895 0.27863 0.18254 0.0
C324 C 0.15168 0.30057 0.03805 0.0
C325 C 0.25465 0.28965 0.17422 0.0
H326 H 0.69043 0.83816 0.05266 0.0
H327 H 0.73939 0.00759 0.20333 0.0
H328 H 0.67887 0.84053 0.16221 0.0
H329 H 0.66708 0.80644 0.15218 0.0
H330 H 0.72204 0.81489 0.16945 0.0
H331 H 0.73389 0.84943 0.1792 0.0
H332 H 0.68447 0.8655 0.13325 0.0
H333 H 0.68162 0.85296 0.09823 0.0
H334 H 0.73821 0.86339 0.1072 0.0
H335 H 0.74093 0.87611 0.14216 0.0
H336 H 0.68466 0.89826 0.15878 0.0
H337 H 0.67514 0.90994 0.13033 0.0
H338 H 0.72882 0.92901 0.10801 0.0
H339 H 0.73837 0.91715 0.13689 0.0
H340 H 0.69237 0.91163 0.20222 0.0
H341 H 0.6943 0.94272 0.20997 0.0
H342 H 0.74886 0.97174 0.18818 0.0
H343 H 0.74685 0.94055 0.18073 0.0
H344 H 0.68986 0.87713 0.2256 0.0
H345 H 0.68795 0.88935 0.25914 0.0
H346 H 0.74318 0.93905 0.25885 0.0
H347 H 0.74558 0.92614 0.22562 0.0
H348 H 0.68477 0.84304 0.20583 0.0
H349 H 0.68263 0.82161 0.23091 0.0
H350 H 0.74171 0.85907 0.25069 0.0
H351 H 0.74382 0.88011 0.22481 0.0
O352 O 0.69188 0.84324 0.06655 0.0
O353 O 0.721 0.8488 0.07197 0.0
O354 O 0.71025 0.9795 0.21161 0.0
O355 O 0.73829 0.9951 0.20047 0.0
C356 C 0.71382 0.8681 0.17687 0.0
C357 C 0.71482 0.87958 0.16144 0.0
C358 C 0.71652 0.89774 0.16619 0.0
C359 C 0.71844 0.90499 0.18648 0.0
C360 C 0.71821 0.89382 0.20209 0.0
C361 C 0.71585 0.8753 0.19721 0.0
C362 C 0.70722 0.84739 0.17134 0.0
C363 C 0.68839 0.83503 0.16379 0.0
C364 C 0.68165 0.81554 0.15823 0.0
C365 C 0.69361 0.80796 0.16015 0.0
C366 C 0.71255 0.82039 0.16771 0.0
C367 C 0.71931 0.84002 0.17336 0.0
C368 C 0.71301 0.87196 0.14013 0.0
C369 C 0.69629 0.86523 0.12756 0.0
C370 C 0.69467 0.85799 0.10759 0.0
C371 C 0.70971 0.85723 0.09988 0.0
C372 C 0.72638 0.86383 0.11263 0.0
C373 C 0.72799 0.87111 0.13259 0.0
C374 C 0.71224 0.90703 0.14996 0.0
C375 C 0.69449 0.9052 0.14792 0.0
C376 C 0.68898 0.91159 0.13151 0.0
C377 C 0.70113 0.92002 0.1168 0.0
C378 C 0.71919 0.92244 0.11912 0.0
C379 C 0.72467 0.91581 0.13557 0.0
C380 C 0.71957 0.92387 0.19115 0.0
C381 C 0.70479 0.92473 0.19928 0.0
C382 C 0.7059 0.9425 0.20362 0.0
C383 C 0.72177 0.95973 0.19975 0.0
C384 C 0.73647 0.95877 0.1914 0.0
C385 C 0.73536 0.94098 0.18712 0.0
C386 C 0.718 0.90053 0.22324 0.0
C387 C 0.70185 0.89029 0.23301 0.0
C388 C 0.70069 0.89735 0.25207 0.0
C389 C 0.71543 0.91508 0.26147 0.0
C390 C 0.73166 0.92532 0.25183 0.0
C391 C 0.73304 0.91796 0.23294 0.0
C392 C 0.71451 0.86296 0.2133 0.0
C393 C 0.69727 0.84656 0.2155 0.0
C394 C 0.69604 0.83448 0.23005 0.0
C395 C 0.712 0.83864 0.24288 0.0
C396 C 0.72921 0.85534 0.2409 0.0
C397 C 0.73043 0.86742 0.22623 0.0
C398 C 0.70794 0.84952 0.07866 0.0
C399 C 0.72302 0.97866 0.20432 0.0
H400 H 0.13084 0.85144 0.041 0.0
H401 H 0.29854 0.98745 0.18999 0.0
H402 H 0.1269 0.86622 0.14721 0.0
H403 H 0.09962 0.83384 0.1371 0.0
H404 H 0.13003 0.80865 0.16382 0.0
H405 H 0.15685 0.84078 0.17389 0.0
H406 H 0.15984 0.8972 0.11963 0.0
H407 H 0.14701 0.88247 0.08506 0.0
H408 H 0.15385 0.83415 0.09752 0.0
H409 H 0.16685 0.84917 0.13196 0.0
H410 H 0.20316 0.93253 0.13414 0.0
H411 H 0.22561 0.94257 0.10887 0.0
H412 H 0.22666 0.88955 0.11088 0.0
H413 H 0.2047 0.87992 0.13626 0.0
H414 H 0.20529 0.94524 0.1845 0.0
H415 H 0.23631 0.97438 0.19145 0.0
H416 H 0.2621 0.94037 0.17773 0.0
H417 H 0.23101 0.91134 0.17103 0.0
H418 H 0.17727 0.9198 0.21702 0.0
H419 H 0.19095 0.93126 0.25214 0.0
H420 H 0.2282 0.90906 0.24339 0.0
H421 H 0.21468 0.89804 0.20843 0.0
H422 H 0.13882 0.88419 0.1996 0.0
H423 H 0.12203 0.86806 0.22772 0.0
H424 H 0.15881 0.84486 0.23642 0.0
H425 H 0.17592 0.86185 0.20914 0.0
O426 O 0.13603 0.85705 0.05471 0.0
O427 O 0.13978 0.83252 0.0619 0.0
O428 O 0.27216 0.99297 0.19434 0.0
O429 O 0.28611 0.97616 0.18736 0.0
C430 C 0.16118 0.875 0.16545 0.0
C431 C 0.17169 0.88319 0.14932 0.0
C432 C 0.18983 0.89965 0.15317 0.0
C433 C 0.19704 0.90867 0.173 0.0
C434 C 0.18649 0.90057 0.18913 0.0
C435 C 0.16864 0.88367 0.18535 0.0
C436 C 0.14372 0.85584 0.1616 0.0
C437 C 0.12743 0.85366 0.15121 0.0
C438 C 0.11196 0.83518 0.14529 0.0
C439 C 0.1126 0.81863 0.14971 0.0
C440 C 0.12885 0.82102 0.16054 0.0
C441 C 0.14422 0.83941 0.16638 0.0
C442 C 0.16406 0.87415 0.12833 0.0
C443 C 0.15855 0.88344 0.11484 0.0
C444 C 0.15122 0.87498 0.09512 0.0
C445 C 0.14933 0.85708 0.08854 0.0
C446 C 0.15504 0.8479 0.10211 0.0
C447 C 0.1624 0.8564 0.12181 0.0
C448 C 0.20231 0.9055 0.13693 0.0
C449 C 0.20818 0.92309 0.12896 0.0
C450 C 0.2209 0.92873 0.11452 0.0
C451 C 0.22795 0.91687 0.108 0.0
C452 C 0.22169 0.8991 0.1158 0.0
C453 C 0.20902 0.8935 0.13014 0.0
C454 C 0.21592 0.92625 0.17707 0.0
C455 C 0.21767 0.94414 0.18299 0.0
C456 C 0.23539 0.96074 0.18695 0.0
C457 C 0.25169 0.95971 0.18508 0.0
C458 C 0.24985 0.94169 0.17924 0.0
C459 C 0.23212 0.9251 0.17533 0.0
C460 C 0.19514 0.9083 0.21017 0.0
C461 C 0.18849 0.91759 0.22273 0.0
C462 C 0.19623 0.924 0.24279 0.0
C463 C 0.21075 0.92116 0.25058 0.0
C464 C 0.21733 0.91185 0.23783 0.0
C465 C 0.2096 0.90549 0.21785 0.0
C466 C 0.1585 0.8741 0.2024 0.0
C467 C 0.14325 0.87572 0.20777 0.0
C468 C 0.13366 0.86642 0.22377 0.0
C469 C 0.13904 0.85513 0.23445 0.0
C470 C 0.15448 0.85374 0.22896 0.0
C471 C 0.16418 0.86326 0.2132 0.0
C472 C 0.14144 0.84808 0.06761 0.0
C473 C 0.27056 0.97731 0.18923 0.0
H474 H 0.28975 0.17327 0.01542 0.0
H475 H 0.29392 0.01494 0.88787 0.0
H476 H 0.27543 0.16023 0.90739 0.0
H477 H 0.28595 0.19452 0.91561 0.0
H478 H 0.34061 0.20976 0.89798 0.0
H479 H 0.32985 0.17568 0.8895 0.0
H480 H 0.26919 0.12642 0.93771 0.0
H481 H 0.27236 0.14241 0.97121 0.0
H482 H 0.33092 0.18228 0.96606 0.0
H483 H 0.3276 0.16601 0.93269 0.0
H484 H 0.26822 0.08562 0.92751 0.0
H485 H 0.27465 0.07063 0.95534 0.0
H486 H 0.33335 0.11488 0.96019 0.0
H487 H 0.32662 0.12985 0.93313 0.0
H488 H 0.26091 0.07446 0.87485 0.0
H489 H 0.25619 0.04181 0.87122 0.0
H490 H 0.31297 0.06427 0.89831 0.0
H491 H 0.31759 0.09684 0.90158 0.0
H492 H 0.26931 0.10545 0.83859 0.0
H493 H 0.27347 0.0932 0.80606 0.0
H494 H 0.32467 0.09784 0.83272 0.0
H495 H 0.3211 0.11134 0.86439 0.0
H496 H 0.26857 0.1434 0.86038 0.0
H497 H 0.27178 0.16489 0.83478 0.0
H498 H 0.3265 0.17326 0.82613 0.0
H499 H 0.32325 0.15193 0.85201 0.0
O500 O 0.28883 0.16711 0.00218 0.0
O501 O 0.31884 0.18729 0.99875 0.0
O502 O 0.26641 0.01691 0.87499 0.0
O503 O 0.29543 0.02771 0.88904 0.0
C504 C 0.2966 0.14492 0.89514 0.0
C505 C 0.29599 0.13546 0.91234 0.0
C506 C 0.29397 0.11696 0.91025 0.0
C507 C 0.29213 0.10769 0.89092 0.0
C508 C 0.29305 0.11728 0.87366 0.0
C509 C 0.29484 0.13574 0.87579 0.0
C510 C 0.30185 0.16553 0.89773 0.0
C511 C 0.28955 0.17106 0.90497 0.0
C512 C 0.29564 0.19062 0.90982 0.0
C513 C 0.31416 0.20491 0.90753 0.0
C514 C 0.32619 0.19923 0.89962 0.0
C515 C 0.32008 0.17974 0.89477 0.0
C516 C 0.2981 0.14518 0.93272 0.0
C517 C 0.28268 0.1386 0.94387 0.0
C518 C 0.28453 0.14777 0.96298 0.0
C519 C 0.30188 0.16367 0.97129 0.0
C520 C 0.31735 0.17012 0.96009 0.0
C521 C 0.31548 0.16091 0.941 0.0
C522 C 0.29696 0.10879 0.92837 0.0
C523 C 0.28236 0.0922 0.93495 0.0
C524 C 0.2861 0.08365 0.95076 0.0
C525 C 0.30455 0.09151 0.96008 0.0
C526 C 0.31892 0.1086 0.95382 0.0
C527 C 0.31514 0.11715 0.93819 0.0
C528 C 0.2895 0.08797 0.88869 0.0
C529 C 0.27231 0.07228 0.87998 0.0
C530 C 0.26965 0.05366 0.87794 0.0
C531 C 0.28419 0.05042 0.88456 0.0
C532 C 0.30146 0.06623 0.89314 0.0
C533 C 0.30411 0.08484 0.89512 0.0
C534 C 0.29483 0.10918 0.85392 0.0
C535 C 0.28146 0.10391 0.83727 0.0
C536 C 0.28379 0.09674 0.81874 0.0
C537 C 0.29947 0.09456 0.81662 0.0
C538 C 0.31265 0.09968 0.83351 0.0
C539 C 0.31048 0.10712 0.8518 0.0
C540 C 0.29566 0.1461 0.858 0.0
C541 C 0.28106 0.14955 0.85262 0.0
C542 C 0.2829 0.16176 0.83794 0.0
C543 C 0.29943 0.17084 0.8285 0.0
C544 C 0.31367 0.16661 0.83329 0.0
C545 C 0.31179 0.15432 0.84792 0.0
C546 C 0.30377 0.17345 0.99155 0.0
C547 C 0.2814 0.03065 0.88253 0.0
H548 H 0.85899 0.16836 0.02013 0.0
H549 H 0.72579 0.98905 0.85911 0.0
H550 H 0.84665 0.15848 0.89394 0.0
H551 H 0.87129 0.19024 0.90917 0.0
H552 H 0.89932 0.16412 0.93904 0.0
H553 H 0.8749 0.13228 0.92281 0.0
H554 H 0.83258 0.14676 0.93442 0.0
H555 H 0.8429 0.16039 0.96961 0.0
H556 H 0.85151 0.11311 0.98178 0.0
H557 H 0.84141 0.09979 0.94644 0.0
H558 H 0.795 0.1154 0.92465 0.0
H559 H 0.77274 0.10584 0.94967 0.0
H560 H 0.7773 0.05519 0.956 0.0
H561 H 0.80004 0.06519 0.93095 0.0
H562 H 0.77142 0.08316 0.89148 0.0
H563 H 0.74185 0.05269 0.88258 0.0
H564 H 0.77277 0.02416 0.86821 0.0
H565 H 0.80225 0.05469 0.8774 0.0
H566 H 0.78775 0.09819 0.85736 0.0
H567 H 0.77561 0.08973 0.82204 0.0
H568 H 0.82066 0.0795 0.80953 0.0
H569 H 0.83189 0.08663 0.84546 0.0
H570 H 0.8274 0.13829 0.85827 0.0
H571 H 0.84511 0.1581 0.83284 0.0
H572 H 0.88513 0.13889 0.84156 0.0
H573 H 0.86773 0.12001 0.868 0.0
O574 O 0.85496 0.16272 0.00628 0.0
O575 O 0.85898 0.13801 0.0118 0.0
O576 O 0.72204 0.01662 0.87042 0.0
O577 O 0.73728 0.00129 0.86279 0.0
C578 C 0.84201 0.12381 0.90134 0.0
C579 C 0.83053 0.1143 0.91639 0.0
C580 C 0.81279 0.09759 0.91103 0.0
C581 C 0.80701 0.08949 0.89078 0.0
C582 C 0.81827 0.09914 0.87561 0.0
C583 C 0.83569 0.11642 0.88091 0.0
C584 C 0.85907 0.14306 0.90705 0.0
C585 C 0.8585 0.15965 0.90306 0.0
C586 C 0.87241 0.17776 0.91214 0.0
C587 C 0.88704 0.17965 0.92567 0.0
C588 C 0.88825 0.16315 0.92868 0.0
C589 C 0.87435 0.14497 0.91939 0.0
C590 C 0.8365 0.12244 0.93785 0.0
C591 C 0.83684 0.13946 0.94468 0.0
C592 C 0.84267 0.14717 0.96481 0.0
C593 C 0.8481 0.13788 0.9785 0.0
C594 C 0.84749 0.12066 0.97162 0.0
C595 C 0.84171 0.11301 0.95146 0.0
C596 C 0.7991 0.09098 0.92606 0.0
C597 C 0.79121 0.10224 0.93146 0.0
C598 C 0.7784 0.09668 0.94563 0.0
C599 C 0.77319 0.0797 0.9547 0.0
C600 C 0.78117 0.06842 0.94933 0.0
C601 C 0.79403 0.07401 0.93501 0.0
C602 C 0.78898 0.07107 0.88535 0.0
C603 C 0.77178 0.07027 0.88662 0.0
C604 C 0.75491 0.05287 0.88142 0.0
C605 C 0.75495 0.03596 0.87475 0.0
C606 C 0.77223 0.03688 0.87335 0.0
C607 C 0.78909 0.0543 0.87858 0.0
C608 C 0.81058 0.09281 0.85408 0.0
C609 C 0.79475 0.09366 0.84709 0.0
C610 C 0.78804 0.08916 0.82676 0.0
C611 C 0.79729 0.08419 0.81276 0.0
C612 C 0.81306 0.08309 0.81985 0.0
C613 C 0.81959 0.08729 0.84035 0.0
C614 C 0.84636 0.12783 0.86499 0.0
C615 C 0.84001 0.13839 0.85464 0.0
C616 C 0.85008 0.14954 0.83991 0.0
C617 C 0.86659 0.15009 0.83493 0.0
C618 C 0.87269 0.13912 0.84516 0.0
C619 C 0.86274 0.12822 0.86019 0.0
C620 C 0.85434 0.14613 0.99986 0.0
C621 C 0.73707 0.01742 0.86921 0.0
H622 H 0.87956 0.73858 0.05877 0.0
H623 H 0.72105 0.70401 0.90454 0.0
H624 H 0.88473 0.74462 0.95198 0.0
H625 H 0.90979 0.74066 0.96788 0.0
H626 H 0.87865 0.67994 0.94575 0.0
H627 H 0.85398 0.68423 0.92953 0.0
H628 H 0.85398 0.7473 0.97889 0.0
H629 H 0.86581 0.74916 0.01382 0.0
H630 H 0.85302 0.68999 0.00355 0.0
H631 H 0.84097 0.68825 0.96877 0.0
H632 H 0.81315 0.74154 0.96234 0.0
H633 H 0.78944 0.73413 0.98596 0.0
H634 H 0.78106 0.67668 0.98652 0.0
H635 H 0.80436 0.68405 0.96288 0.0
H636 H 0.81436 0.74618 0.91158 0.0
H637 H 0.78587 0.7475 0.90327 0.0
H638 H 0.75234 0.68936 0.9191 0.0
H639 H 0.7809 0.68815 0.92712 0.0
H640 H 0.84303 0.74002 0.88095 0.0
H641 H 0.83167 0.73495 0.84524 0.0
H642 H 0.78307 0.68075 0.85478 0.0
H643 H 0.79514 0.68542 0.88998 0.0
H644 H 0.87797 0.73992 0.90235 0.0
H645 H 0.89225 0.73476 0.87339 0.0
H646 H 0.84446 0.67692 0.85976 0.0
H647 H 0.83081 0.68199 0.88904 0.0
O648 O 0.87464 0.73747 0.04497 0.0
O649 O 0.86795 0.70707 0.03885 0.0
O650 O 0.7504 0.7337 0.89965 0.0
O651 O 0.73253 0.70387 0.90768 0.0
C652 C 0.8506 0.71604 0.93441 0.0
C653 C 0.84018 0.71694 0.94994 0.0
C654 C 0.82318 0.71658 0.94521 0.0
C655 C 0.81709 0.71651 0.92505 0.0
C656 C 0.82735 0.71541 0.90947 0.0
C657 C 0.84391 0.71475 0.91416 0.0
C658 C 0.86755 0.71471 0.93964 0.0
C659 C 0.88366 0.73062 0.95004 0.0
C660 C 0.89784 0.72826 0.9593 0.0
C661 C 0.89609 0.7099 0.95841 0.0
C662 C 0.88056 0.6943 0.94665 0.0
C663 C 0.86642 0.69671 0.93732 0.0
C664 C 0.84681 0.71772 0.97128 0.0
C665 C 0.85368 0.73474 0.98426 0.0
C666 C 0.86047 0.73577 0.00418 0.0
C667 C 0.86045 0.71975 0.01146 0.0
C668 C 0.85331 0.70262 0.99842 0.0
C669 C 0.84647 0.7016 0.97853 0.0
C670 C 0.81044 0.71332 0.96096 0.0
C671 C 0.8063 0.72746 0.96779 0.0
C672 C 0.79283 0.72323 0.98126 0.0
C673 C 0.7833 0.70477 0.98788 0.0
C674 C 0.78797 0.69092 0.98143 0.0
C675 C 0.8014 0.69516 0.9681 0.0
C676 C 0.7997 0.71716 0.92012 0.0
C677 C 0.80084 0.73376 0.91324 0.0
C678 C 0.78456 0.73447 0.90852 0.0
C679 C 0.76682 0.71854 0.91059 0.0
C680 C 0.76576 0.70189 0.91741 0.0
C681 C 0.78205 0.70119 0.92208 0.0
C682 C 0.81986 0.71316 0.8881 0.0
C683 C 0.82993 0.72708 0.87526 0.0
C684 C 0.82334 0.7242 0.85489 0.0
C685 C 0.80646 0.70739 0.84704 0.0
C686 C 0.79628 0.69368 0.86014 0.0
C687 C 0.803 0.69646 0.88038 0.0
C688 C 0.85338 0.71133 0.89772 0.0
C689 C 0.87079 0.72607 0.89322 0.0
C690 C 0.87878 0.72317 0.87657 0.0
C691 C 0.86945 0.70545 0.8642 0.0
C692 C 0.85216 0.69064 0.86908 0.0
C693 C 0.84427 0.69352 0.88574 0.0
C694 C 0.86788 0.72097 0.03256 0.0
C695 C 0.74948 0.71923 0.90562 0.0
H696 H 0.8291 0.66355 0.34574 0.0
H697 H 0.9285 0.60846 0.50084 0.0
H698 H 0.82737 0.67156 0.45592 0.0
H699 H 0.80358 0.67865 0.44287 0.0
H700 H 0.76053 0.61939 0.44607 0.0
H701 H 0.78467 0.61238 0.45901 0.0
H702 H 0.85462 0.66826 0.43032 0.0
H703 H 0.84847 0.67173 0.39511 0.0
H704 H 0.79976 0.61418 0.38806 0.0
H705 H 0.8062 0.61083 0.42324 0.0
H706 H 0.88505 0.66638 0.458 0.0
H707 H 0.90895 0.67143 0.4358 0.0
H708 H 0.87093 0.61593 0.40216 0.0
H709 H 0.84691 0.61099 0.42465 0.0
H710 H 0.88584 0.66013 0.50061 0.0
H711 H 0.9129 0.65711 0.51148 0.0
H712 H 0.88569 0.59992 0.47908 0.0
H713 H 0.85863 0.60305 0.4685 0.0
H714 H 0.85477 0.66418 0.51977 0.0
H715 H 0.8651 0.66636 0.55527 0.0
H716 H 0.85161 0.6069 0.54714 0.0
H717 H 0.8409 0.60475 0.51159 0.0
H718 H 0.82143 0.66512 0.49829 0.0
H719 H 0.8048 0.66672 0.52646 0.0
H720 H 0.78852 0.60777 0.53536 0.0
H721 H 0.8041 0.60598 0.50634 0.0
O722 O 0.8313 0.66185 0.3596 0.0
O723 O 0.80635 0.63223 0.35679 0.0
O724 O 0.93132 0.63946 0.51327 0.0
O725 O 0.91796 0.61001 0.49681 0.0
C726 C 0.82264 0.63725 0.46472 0.0
C727 C 0.83461 0.63715 0.45063 0.0
C728 C 0.85028 0.63553 0.45701 0.0
C729 C 0.85376 0.63353 0.47734 0.0
C730 C 0.84185 0.63366 0.49141 0.0
C731 C 0.82611 0.63523 0.48506 0.0
C732 C 0.80772 0.64147 0.45836 0.0
C733 C 0.81278 0.66015 0.45397 0.0
C734 C 0.79915 0.66419 0.44664 0.0
C735 C 0.78015 0.64959 0.44348 0.0
C736 C 0.77507 0.6309 0.44823 0.0
C737 C 0.78877 0.62689 0.45571 0.0
C738 C 0.83094 0.63924 0.42925 0.0
C739 C 0.84271 0.65638 0.42109 0.0
C740 C 0.83912 0.65834 0.401 0.0
C741 C 0.82363 0.64322 0.38875 0.0
C742 C 0.81182 0.62609 0.39706 0.0
C743 C 0.81545 0.62414 0.41714 0.0
C744 C 0.86436 0.63826 0.44303 0.0
C745 C 0.88192 0.65525 0.44591 0.0
C746 C 0.89556 0.65807 0.43327 0.0
C747 C 0.89188 0.64396 0.41739 0.0
C748 C 0.87412 0.62705 0.41427 0.0
C749 C 0.86044 0.62418 0.42707 0.0
C750 C 0.87022 0.63174 0.48393 0.0
C751 C 0.8857 0.64691 0.49601 0.0
C752 C 0.90116 0.64518 0.50213 0.0
C753 C 0.90144 0.62825 0.49618 0.0
C754 C 0.88593 0.61313 0.48396 0.0
C755 C 0.87046 0.61488 0.47788 0.0
C756 C 0.84707 0.63431 0.51316 0.0
C757 C 0.85384 0.65156 0.52572 0.0
C758 C 0.85988 0.65282 0.54593 0.0
C759 C 0.85929 0.63684 0.55395 0.0
C760 C 0.85209 0.6194 0.54141 0.0
C761 C 0.84607 0.61817 0.52113 0.0
C762 C 0.81382 0.63538 0.50014 0.0
C763 C 0.81373 0.65237 0.50592 0.0
C764 C 0.80452 0.65335 0.5223 0.0
C765 C 0.7955 0.63746 0.53342 0.0
C766 C 0.79509 0.62023 0.52708 0.0
C767 C 0.80405 0.61918 0.51051 0.0
C768 C 0.81984 0.64536 0.36742 0.0
C769 C 0.91783 0.62632 0.50264 0.0
H770 H 0.34562 0.16571 0.38477 0.0
H771 H 0.3954 0.33673 0.53615 0.0
H772 H 0.34184 0.16939 0.50141 0.0
H773 H 0.33188 0.13687 0.48667 0.0
H774 H 0.3898 0.15361 0.48213 0.0
H775 H 0.39969 0.18614 0.49798 0.0
H776 H 0.34344 0.19162 0.46754 0.0
H777 H 0.33868 0.1786 0.4323 0.0
H778 H 0.3983 0.20071 0.43342 0.0
H779 H 0.40283 0.21371 0.46866 0.0
H780 H 0.34317 0.22557 0.49128 0.0
H781 H 0.33097 0.23625 0.46408 0.0
H782 H 0.38436 0.26087 0.43978 0.0
H783 H 0.3966 0.25004 0.46743 0.0
H784 H 0.35282 0.24087 0.53474 0.0
H785 H 0.35327 0.2711 0.54331 0.0
H786 H 0.40658 0.30259 0.51934 0.0
H787 H 0.40607 0.27226 0.5111 0.0
H788 H 0.35337 0.20838 0.55789 0.0
H789 H 0.35226 0.22143 0.59136 0.0
H790 H 0.40654 0.2717 0.58837 0.0
H791 H 0.40817 0.25802 0.55524 0.0
H792 H 0.34832 0.17551 0.53816 0.0
H793 H 0.34732 0.15427 0.56287 0.0
H794 H 0.40717 0.191 0.57882 0.0
H795 H 0.40809 0.21166 0.55301 0.0
O796 O 0.34782 0.17103 0.39869 0.0
O797 O 0.37857 0.18271 0.40004 0.0
O798 O 0.36753 0.30771 0.5452 0.0
O799 O 0.39489 0.32456 0.53295 0.0
C800 C 0.37669 0.20018 0.50718 0.0
C801 C 0.37632 0.21134 0.49198 0.0
C802 C 0.37695 0.22889 0.49711 0.0
C803 C 0.37937 0.23608 0.51749 0.0
C804 C 0.38043 0.22525 0.53286 0.0
C805 C 0.3788 0.2071 0.52764 0.0
C806 C 0.37147 0.17994 0.50117 0.0
C807 C 0.35241 0.16586 0.49783 0.0
C808 C 0.34674 0.14739 0.48901 0.0
C809 C 0.36002 0.14271 0.48288 0.0
C810 C 0.37923 0.15672 0.48679 0.0
C811 C 0.38492 0.17525 0.49588 0.0
C812 C 0.37348 0.20367 0.47054 0.0
C813 C 0.35544 0.1937 0.46009 0.0
C814 C 0.35277 0.18625 0.43999 0.0
C815 C 0.36812 0.18863 0.43003 0.0
C816 C 0.38619 0.19864 0.44063 0.0
C817 C 0.38883 0.20609 0.46073 0.0
C818 C 0.37078 0.23723 0.48139 0.0
C819 C 0.35231 0.23344 0.48021 0.0
C820 C 0.34529 0.23929 0.46451 0.0
C821 C 0.35664 0.24909 0.44964 0.0
C822 C 0.37533 0.25327 0.45103 0.0
C823 C 0.38234 0.24721 0.46677 0.0
C824 C 0.37954 0.25442 0.52254 0.0
C825 C 0.36465 0.25433 0.5315 0.0
C826 C 0.36491 0.27161 0.5363 0.0
C827 C 0.38 0.28928 0.53207 0.0
C828 C 0.39478 0.28926 0.52286 0.0
C829 C 0.39452 0.27196 0.51812 0.0
C830 C 0.38102 0.23203 0.55421 0.0
C831 C 0.3654 0.2218 0.56474 0.0
C832 C 0.36467 0.22936 0.58375 0.0
C833 C 0.3793 0.24754 0.59231 0.0
C834 C 0.39509 0.25766 0.58199 0.0
C835 C 0.39605 0.24983 0.56318 0.0
C836 C 0.37833 0.19487 0.54348 0.0
C837 C 0.36126 0.17882 0.54678 0.0
C838 C 0.36069 0.16688 0.56121 0.0
C839 C 0.37717 0.17091 0.57294 0.0
C840 C 0.39425 0.1873 0.56988 0.0
C841 C 0.39481 0.19918 0.55524 0.0
C842 C 0.36523 0.18065 0.4087 0.0
C843 C 0.38036 0.30769 0.53716 0.0
H844 H 0.80919 0.18116 0.36252 0.0
H845 H 0.96689 0.32556 0.51586 0.0
H846 H 0.79984 0.1945 0.46647 0.0
H847 H 0.77352 0.16139 0.45745 0.0
H848 H 0.80481 0.13968 0.48942 0.0
H849 H 0.83067 0.17262 0.49856 0.0
H850 H 0.83295 0.22733 0.44093 0.0
H851 H 0.82213 0.21223 0.4062 0.0
H852 H 0.83151 0.16607 0.42126 0.0
H853 H 0.84249 0.18144 0.45587 0.0
H854 H 0.87414 0.2655 0.45878 0.0
H855 H 0.89862 0.27876 0.4359 0.0
H856 H 0.90334 0.22768 0.43641 0.0
H857 H 0.87944 0.21492 0.45961 0.0
H858 H 0.87328 0.27642 0.50808 0.0
H859 H 0.90297 0.30704 0.51575 0.0
H860 H 0.93323 0.27742 0.50301 0.0
H861 H 0.90346 0.24691 0.49562 0.0
H862 H 0.84409 0.24801 0.53962 0.0
H863 H 0.85648 0.25988 0.57506 0.0
H864 H 0.89962 0.2455 0.56751 0.0
H865 H 0.88727 0.23386 0.53237 0.0
H866 H 0.80458 0.20679 0.51284 0.0
H867 H 0.7842 0.18663 0.53695 0.0
H868 H 0.8295 0.18052 0.56338 0.0
H869 H 0.84952 0.19976 0.53864 0.0
O870 O 0.81361 0.18694 0.3763 0.0
O871 O 0.81866 0.16354 0.38482 0.0
O872 O 0.93874 0.32816 0.51951 0.0
O873 O 0.95495 0.31365 0.51299 0.0
C874 C 0.83374 0.20574 0.48764 0.0
C875 C 0.8447 0.2146 0.47202 0.0
C876 C 0.86203 0.23202 0.47648 0.0
C877 C 0.86811 0.24102 0.49645 0.0
C878 C 0.85717 0.23223 0.51212 0.0
C879 C 0.8399 0.21463 0.50769 0.0
C880 C 0.8171 0.18595 0.48329 0.0
C881 C 0.80084 0.18255 0.47167 0.0
C882 C 0.7859 0.16363 0.46643 0.0
C883 C 0.787 0.14784 0.47273 0.0
C884 C 0.80327 0.15145 0.48462 0.0
C885 C 0.81812 0.17028 0.48984 0.0
C886 C 0.83832 0.20538 0.45093 0.0
C887 C 0.83267 0.21397 0.43667 0.0
C888 C 0.82648 0.2053 0.41686 0.0
C889 C 0.82588 0.1879 0.41097 0.0
C890 C 0.83172 0.17943 0.42531 0.0
C891 C 0.83794 0.18814 0.4451 0.0
C892 C 0.87505 0.23927 0.46081 0.0
C893 C 0.88035 0.25714 0.45372 0.0
C894 C 0.89425 0.26463 0.44063 0.0
C895 C 0.903 0.25432 0.43454 0.0
C896 C 0.89707 0.23609 0.44111 0.0
C897 C 0.88328 0.22869 0.45416 0.0
C898 C 0.88622 0.25951 0.50112 0.0
C899 C 0.88634 0.2766 0.50697 0.0
C900 C 0.90332 0.29405 0.51133 0.0
C901 C 0.92048 0.29469 0.50993 0.0
C902 C 0.92028 0.27747 0.50417 0.0
C903 C 0.9033 0.26003 0.49987 0.0
C904 C 0.8649 0.24027 0.53337 0.0
C905 C 0.8563 0.24759 0.54566 0.0
C906 C 0.86333 0.25426 0.56588 0.0
C907 C 0.87912 0.25375 0.57409 0.0
C908 C 0.8877 0.24649 0.56162 0.0
C909 C 0.88065 0.2398 0.54151 0.0
C910 C 0.82856 0.20483 0.52404 0.0
C911 C 0.81018 0.20133 0.52402 0.0
C912 C 0.79862 0.18992 0.53777 0.0
C913 C 0.80545 0.18228 0.55202 0.0
C914 C 0.82411 0.18658 0.5527 0.0
C915 C 0.83552 0.19758 0.53863 0.0
C916 C 0.81919 0.17867 0.38994 0.0
C917 C 0.93855 0.3132 0.51445 0.0
H918 H 0.00423 0.5334 0.34244 0.0
H919 H 0.00048 0.37282 0.18845 0.0
H920 H 0.96328 0.5045 0.23179 0.0
H921 H 0.97188 0.53786 0.24294 0.0
H922 H 0.02958 0.55702 0.23378 0.0
H923 H 0.02071 0.52394 0.22227 0.0
H924 H 0.96896 0.48674 0.26502 0.0
H925 H 0.9784 0.50479 0.29851 0.0
H926 H 0.03623 0.5224 0.29198 0.0
H927 H 0.02658 0.5044 0.25844 0.0
H928 H 0.97301 0.44964 0.26797 0.0
H929 H 0.98483 0.4386 0.29561 0.0
H930 H 0.03547 0.45549 0.26722 0.0
H931 H 0.02372 0.46672 0.24006 0.0
H932 H 0.96223 0.4213 0.22833 0.0
H933 H 0.96262 0.39118 0.2225 0.0
H934 H 0.01072 0.42017 0.18938 0.0
H935 H 0.01032 0.45024 0.19555 0.0
H936 H 0.95186 0.42867 0.18421 0.0
H937 H 0.94887 0.41043 0.15201 0.0
H938 H -0.00071 0.45937 0.1365 0.0
H939 H 0.00285 0.47705 0.16901 0.0
H940 H 0.94726 0.47544 0.19113 0.0
H941 H 0.93908 0.49255 0.16708 0.0
H942 H 0.99689 0.52467 0.15494 0.0
H943 H 0.00506 0.50802 0.17948 0.0
O944 O 0.0008 0.52632 0.32919 0.0
O945 O 0.03031 0.53491 0.32512 0.0
O946 O 0.97539 0.37035 0.20832 0.0
O947 O 4e-05 0.38455 0.19104 0.0
C948 C 0.98727 0.49178 0.22276 0.0
C949 C 0.99129 0.4836 0.23893 0.0
C950 C 0.99076 0.4659 0.23546 0.0
C951 C 0.98585 0.45613 0.21584 0.0
C952 C 0.98128 0.46406 0.19964 0.0
C953 C 0.98189 0.48188 0.20321 0.0
C954 C 0.99138 0.51194 0.22614 0.0
C955 C 0.97765 0.51606 0.23174 0.0
C956 C 0.98265 0.53505 0.2383 0.0
C957 C 0.00145 0.55012 0.23936 0.0
C958 C 0.01494 0.54589 0.23289 0.0
C959 C 0.00993 0.52699 0.22632 0.0
C960 C 0.99709 0.49423 0.25941 0.0
C961 C 0.98365 0.49449 0.27089 0.0
C962 C 0.98909 0.50481 0.29 0.0
C963 C 0.00808 0.51503 0.29794 0.0
C964 C 0.0215 0.51468 0.28633 0.0
C965 C 0.01603 0.50437 0.26721 0.0
C966 C 0.99747 0.45878 0.252 0.0
C967 C 0.98665 0.45094 0.26783 0.0
C968 C 0.99341 0.44467 0.28355 0.0
C969 C 0.01114 0.44633 0.28366 0.0
C970 C 0.02193 0.45436 0.26779 0.0
C971 C 0.01516 0.46054 0.25213 0.0
C972 C 0.98616 0.43789 0.21225 0.0
C973 C 0.97285 0.42111 0.21985 0.0
C974 C 0.97309 0.40393 0.21647 0.0
C975 C 0.98668 0.40326 0.20542 0.0
C976 C 4e-05 0.42017 0.1979 0.0
C977 C -0.00018 0.43734 0.20135 0.0
C978 C 0.97741 0.45435 0.17886 0.0
C979 C 0.96207 0.43556 0.1737 0.0
C980 C 0.96042 0.42515 0.15542 0.0
C981 C 0.97383 0.43358 0.14185 0.0
C982 C 0.98865 0.45268 0.14662 0.0
C983 C 0.99056 0.46287 0.16508 0.0
C984 C 0.97667 0.49028 0.18675 0.0
C985 C 0.95805 0.4859 0.18297 0.0
C986 C 0.95343 0.49567 0.16932 0.0
C987 C 0.96734 0.50975 0.15906 0.0
C988 C 0.98587 0.51362 0.16239 0.0
C989 C 0.99054 0.50414 0.17634 0.0
C990 C 0.01381 0.52603 0.31821 0.0
C991 C 0.98697 0.38503 0.20173 0.0
H992 H 0.49645 0.49191 0.36236 0.0
H993 H 0.37663 0.33389 0.1956 0.0
H994 H 0.49515 0.49596 0.25326 0.0
H995 H 0.52049 0.52833 0.26578 0.0
H996 H 0.56104 0.51074 0.25575 0.0
H997 H 0.53523 0.47786 0.24372 0.0
H998 H 0.46959 0.47104 0.27671 0.0
H999 H 0.47704 0.48159 0.31278 0.0
H1000 H 0.51766 0.46283 0.31543 0.0
H1001 H 0.50988 0.4521 0.27937 0.0
H1002 H 0.4381 0.44329 0.24683 0.0
H1003 H 0.4149 0.43322 0.27108 0.0
H1004 H 0.43953 0.40325 0.29947 0.0
H1005 H 0.46308 0.41376 0.27528 0.0
H1006 H 0.43473 0.42926 0.2016 0.0
H1007 H 0.40466 0.40059 0.18879 0.0
H1008 H 0.42113 0.36499 0.21974 0.0
H1009 H 0.45123 0.39376 0.23226 0.0
H1010 H 0.47054 0.46033 0.18307 0.0
H1011 H 0.4609 0.44958 0.14719 0.0
H1012 H 0.46069 0.39678 0.15579 0.0
H1013 H 0.4713 0.40806 0.19167 0.0
H1014 H 0.49981 0.49324 0.20962 0.0
H1015 H 0.52038 0.51313 0.18586 0.0
H1016 H 0.53614 0.47025 0.17253 0.0
H1017 H 0.51584 0.45064 0.19703 0.0
O1018 O 0.49365 0.48755 0.34813 0.0
O1019 O 0.51441 0.47774 0.34867 0.0
O1020 O 0.38066 0.36439 0.18473 0.0
O1021 O 0.38842 0.34546 0.20044 0.0
C1022 C 0.49743 0.46498 0.24021 0.0
C1023 C 0.48456 0.45411 0.25358 0.0
C1024 C 0.46733 0.43753 0.24606 0.0
C1025 C 0.46352 0.43091 0.22537 0.0
C1026 C 0.47673 0.44132 0.21199 0.0
C1027 C 0.4936 0.45854 0.21942 0.0
C1028 C 0.51335 0.48454 0.24772 0.0
C1029 C 0.50949 0.49902 0.25393 0.0
C1030 C 0.52401 0.51757 0.26089 0.0
C1031 C 0.5428 0.52216 0.26161 0.0
C1032 C 0.54669 0.50759 0.25549 0.0
C1033 C 0.53203 0.48889 0.24852 0.0
C1034 C 0.489 0.46055 0.2755 0.0
C1035 C 0.47993 0.46902 0.28515 0.0
C1036 C 0.4843 0.47513 0.30574 0.0
C1037 C 0.49791 0.473 0.31702 0.0
C1038 C 0.50707 0.46464 0.30722 0.0
C1039 C 0.50266 0.45849 0.28663 0.0
C1040 C 0.45216 0.42917 0.25931 0.0
C1041 C 0.43833 0.43433 0.25812 0.0
C1042 C 0.42525 0.42875 0.27204 0.0
C1043 C 0.42561 0.41763 0.28716 0.0
C1044 C 0.43902 0.41182 0.28789 0.0
C1045 C 0.45237 0.41772 0.27413 0.0
C1046 C 0.4452 0.41354 0.2177 0.0
C1047 C 0.43185 0.41524 0.20549 0.0
C1048 C 0.41467 0.39885 0.19825 0.0
C1049 C 0.41051 0.38048 0.20321 0.0
C1050 C 0.42389 0.3789 0.2156 0.0
C1051 C 0.44108 0.3953 0.2228 0.0
C1052 C 0.47195 0.43514 0.18998 0.0
C1053 C 0.46897 0.4467 0.17716 0.0
C1054 C 0.46337 0.44051 0.15671 0.0
C1055 C 0.46014 0.4224 0.14879 0.0
C1056 C 0.4631 0.4108 0.16159 0.0
C1057 C 0.46916 0.41722 0.182 0.0
C1058 C 0.50652 0.47063 0.20522 0.0
C1059 C 0.50788 0.48825 0.20177 0.0
C1060 C 0.51944 0.49945 0.18796 0.0
C1061 C 0.52977 0.49318 0.17716 0.0
C1062 C 0.52845 0.47552 0.1807 0.0
C1063 C 0.51686 0.4643 0.19462 0.0
C1064 C 0.50254 0.47954 0.33888 0.0
C1065 C 0.39228 0.36302 0.19553 0.0
H1066 H 0.52093 0.00988 0.385 0.0
H1067 H 0.37523 0.00034 0.23159 0.0
H1068 H 0.53522 0.03465 0.28526 0.0
H1069 H 0.55975 0.02889 0.29876 0.0
H1070 H 0.53502 0.97547 0.25933 0.0
H1071 H 0.50984 0.98082 0.24696 0.0
H1072 H 0.504 0.03369 0.30964 0.0
H1073 H 0.51227 0.02903 0.34367 0.0
H1074 H 0.49976 0.97158 0.32213 0.0
H1075 H 0.49131 0.97634 0.28823 0.0
H1076 H 0.4704 0.03711 0.28935 0.0
H1077 H 0.44865 0.03329 0.31424 0.0
H1078 H 0.43236 0.97315 0.31403 0.0
H1079 H 0.45383 0.97704 0.2889 0.0
H1080 H 0.46855 0.04211 0.24086 0.0
H1081 H 0.44035 0.04408 0.23309 0.0
H1082 H 0.40597 0.98455 0.24451 0.0
H1083 H 0.43426 0.98272 0.25199 0.0
H1084 H 0.49796 0.04039 0.21138 0.0
H1085 H 0.48652 0.04043 0.17683 0.0
H1086 H 0.43822 0.98384 0.17966 0.0
H1087 H 0.4504 0.98351 0.21353 0.0
H1088 H 0.53322 0.04037 0.23575 0.0
H1089 H 0.55207 0.0423 0.20831 0.0
H1090 H 0.50759 0.98627 0.18111 0.0
H1091 H 0.48918 0.98424 0.2089 0.0
O1092 O 0.51751 0.01138 0.37145 0.0
O1093 O 0.511 0.982 0.35959 0.0
O1094 O 0.40491 0.0305 0.22879 0.0
O1095 O 0.38661 -4e-05 0.23456 0.0
C1096 C 0.50364 0.00959 0.26043 0.0
C1097 C 0.49223 0.00831 0.2758 0.0
C1098 C 0.47587 0.00929 0.27142 0.0
C1099 C 0.47064 0.0112 0.25164 0.0
C1100 C 0.48163 0.01184 0.2361 0.0
C1101 C 0.49827 0.01128 0.24055 0.0
C1102 C 0.52062 0.00809 0.26526 0.0
C1103 C 0.53528 0.02185 0.27933 0.0
C1104 C 0.54939 0.01856 0.28695 0.0
C1105 C 0.54931 0.00154 0.28038 0.0
C1106 C 0.53532 0.98849 0.26514 0.0
C1107 C 0.52104 0.99166 0.25778 0.0
C1108 C 0.49711 0.00538 0.29649 0.0
C1109 C 0.50298 0.02009 0.31234 0.0
C1110 C 0.50774 0.0174 0.33174 0.0
C1111 C 0.50671 -6e-05 0.33562 0.0
C1112 C 0.50074 0.9852 0.31967 0.0
C1113 C 0.49594 0.9879 0.30029 0.0
C1114 C 0.46363 0.00735 0.28737 0.0
C1115 C 0.46218 0.02317 0.29481 0.0
C1116 C 0.44986 0.02098 0.30906 0.0
C1117 C 0.43877 0.0029 0.31602 0.0
C1118 C 0.44055 0.98718 0.30876 0.0
C1119 C 0.45288 0.9894 0.29456 0.0
C1120 C 0.45345 0.01233 0.2471 0.0
C1121 C 0.45491 0.02952 0.24166 0.0
C1122 C 0.43878 0.0306 0.23725 0.0
C1123 C 0.42089 0.01447 0.23822 0.0
C1124 C 0.41951 0.99725 0.24366 0.0
C1125 C 0.43565 0.99618 0.24802 0.0
C1126 C 0.475 0.01197 0.21499 0.0
C1127 C 0.48503 0.02794 0.20439 0.0
C1128 C 0.47834 0.028 0.18471 0.0
C1129 C 0.46139 0.01215 0.17536 0.0
C1130 C 0.45147 0.99617 0.18613 0.0
C1131 C 0.4583 0.99603 0.20562 0.0
C1132 C 0.50988 0.01217 0.22428 0.0
C1133 C 0.52766 0.02849 0.2239 0.0
C1134 C 0.53829 0.02964 0.20813 0.0
C1135 C 0.53129 0.01447 0.19249 0.0
C1136 C 0.51347 0.99811 0.19302 0.0
C1137 C 0.50289 0.99695 0.20881 0.0
C1138 C 0.51185 0.99716 0.35623 0.0
C1139 C 0.40371 0.01554 0.23356 0.0
H1140 H 0.50576 0.01972 0.69237 0.0
H1141 H 0.61902 0.97864 0.84591 0.0
H1142 H 0.50268 0.02488 0.80179 0.0
H1143 H 0.47596 0.02609 0.786 0.0
H1144 H 0.44033 0.96492 0.7897 0.0
H1145 H 0.46734 0.96386 0.8053 0.0
H1146 H 0.53366 0.02568 0.77635 0.0
H1147 H 0.52626 0.02877 0.74137 0.0
H1148 H 0.48051 0.9695 0.73439 0.0
H1149 H 0.48822 0.96655 0.76934 0.0
H1150 H 0.56688 0.02467 0.79988 0.0
H1151 H 0.58856 0.02794 0.77524 0.0
H1152 H 0.54874 0.97029 0.74728 0.0
H1153 H 0.52706 0.96729 0.77193 0.0
H1154 H 0.56733 0.02091 0.84666 0.0
H1155 H 0.59636 0.02147 0.8575 0.0
H1156 H 0.57483 0.96554 0.82382 0.0
H1157 H 0.54578 0.96505 0.81329 0.0
H1158 H 0.53287 0.01767 0.86948 0.0
H1159 H 0.54345 0.01696 0.90424 0.0
H1160 H 0.53902 0.96208 0.88741 0.0
H1161 H 0.52738 0.96226 0.85289 0.0
H1162 H 0.50404 0.02098 0.84694 0.0
H1163 H 0.48534 0.02066 0.87375 0.0
H1164 H 0.46464 0.95967 0.87585 0.0
H1165 H 0.48417 0.96049 0.84959 0.0
O1166 O 0.5085 0.01816 0.70613 0.0
O1167 O 0.4851 0.98765 0.70335 0.0
O1168 O 0.61806 0.00748 0.85902 0.0
O1169 O 0.60768 0.97879 0.84185 0.0
C1170 C 0.50375 0.99314 0.811 0.0
C1171 C 0.51589 0.99415 0.79664 0.0
C1172 C 0.5324 0.99392 0.80262 0.0
C1173 C 0.53674 0.99254 0.82292 0.0
C1174 C 0.52444 0.99118 0.83726 0.0
C1175 C 0.50795 0.99152 0.83126 0.0
C1176 C 0.48691 0.99428 0.80463 0.0
C1177 C 0.48901 0.01184 0.79956 0.0
C1178 C 0.47371 0.01249 0.7906 0.0
C1179 C 0.45603 0.99557 0.7865 0.0
C1180 C 0.45382 0.97815 0.79246 0.0
C1181 C 0.46915 0.97753 0.80152 0.0
C1182 C 0.51149 0.99589 0.77533 0.0
C1183 C 0.52211 0.01336 0.76719 0.0
C1184 C 0.51782 0.01509 0.74723 0.0
C1185 C 0.50278 -0.00062 0.73508 0.0
C1186 C 0.49218 0.98188 0.74333 0.0
C1187 C 0.49653 0.98016 0.76328 0.0
C1188 C 0.54547 0.99574 0.78767 0.0
C1189 C 0.56291 0.01275 0.78846 0.0
C1190 C 0.57527 0.01453 0.77444 0.0
C1191 C 0.57038 -0.00067 0.75936 0.0
C1192 C 0.55282 0.98232 0.75859 0.0
C1193 C 0.54047 0.98054 0.77266 0.0
C1194 C 0.55446 0.99293 0.82923 0.0
C1195 C 0.5689 0.00877 0.84169 0.0
C1196 C 0.58547 0.00907 0.84783 0.0
C1197 C 0.58791 0.99353 0.84153 0.0
C1198 C 0.57341 0.97773 0.82894 0.0
C1199 C 0.55683 0.97743 0.82287 0.0
C1200 C 0.52923 0.98996 0.85866 0.0
C1201 C 0.53362 0.00522 0.8734 0.0
C1202 C 0.53976 0.00487 0.89317 0.0
C1203 C 0.54204 0.98949 0.89832 0.0
C1204 C 0.53737 0.97409 0.88368 0.0
C1205 C 0.53076 0.97419 0.86405 0.0
C1206 C 0.49538 0.99076 0.84635 0.0
C1207 C 0.49533 0.00755 0.85312 0.0
C1208 C 0.48457 0.00728 0.86841 0.0
C1209 C 0.47343 0.99012 0.87703 0.0
C1210 C 0.47328 0.97321 0.86985 0.0
C1211 C 0.48425 0.97357 0.85471 0.0
C1212 C 0.4982 0.00129 0.7139 0.0
C1213 C 0.60548 0.99376 0.84803 0.0
H1214 H 0.9811 0.47873 0.72866 0.0
H1215 H 0.04926 0.66025 0.87111 0.0
H1216 H 0.98523 0.48926 0.84302 0.0
H1217 H 0.9749 0.45578 0.83132 0.0
H1218 H 0.03277 0.47011 0.83338 0.0
H1219 H 0.04296 0.50389 0.84471 0.0
H1220 H 0.98588 0.51277 0.81009 0.0
H1221 H 0.97842 0.49721 0.77556 0.0
H1222 H 0.03563 0.50979 0.77531 0.0
H1223 H 0.04292 0.52547 0.8098 0.0
H1224 H 0.98971 0.54942 0.83304 0.0
H1225 H 0.97817 0.55974 0.80494 0.0
H1226 H 0.02848 0.5745 0.77673 0.0
H1227 H 0.04017 0.56435 0.80539 0.0
H1228 H 0.00051 0.56483 0.87428 0.0
H1229 H 0.00363 0.59656 0.88125 0.0
H1230 H 0.0569 0.62296 0.85655 0.0
H1231 H 0.05372 0.59113 0.84993 0.0
H1232 H 0.99841 0.5338 0.89739 0.0
H1233 H 0.99801 0.5495 0.9296 0.0
H1234 H 0.05625 0.59287 0.92874 0.0
H1235 H 0.05657 0.5769 0.89638 0.0
H1236 H 0.99474 0.50062 0.88617 0.0
H1237 H 0.99507 0.47817 0.90887 0.0
H1238 H 0.05543 0.50675 0.91064 0.0
H1239 H 0.05494 0.52947 0.88825 0.0
O1240 O 0.98438 0.48503 0.74229 0.0
O1241 O 0.01393 0.49178 0.74296 0.0
O1242 O 0.02033 0.63326 0.88132 0.0
O1243 O 0.04772 0.64752 0.86863 0.0
C1244 C 0.02053 0.51948 0.84923 0.0
C1245 C 0.01945 0.52965 0.83335 0.0
C1246 C 0.02137 0.54797 0.83756 0.0
C1247 C 0.02518 0.55649 0.85765 0.0
C1248 C 0.02647 0.54636 0.87361 0.0
C1249 C 0.02419 0.52786 0.86933 0.0
C1250 C 0.0148 0.49889 0.84472 0.0
C1251 C 0.99566 0.48507 0.84123 0.0
C1252 C 0.9898 0.46594 0.83463 0.0
C1253 C 0.00302 0.46026 0.83139 0.0
C1254 C 0.02226 0.47409 0.83551 0.0
C1255 C 0.02811 0.49331 0.84214 0.0
C1256 C 0.01497 0.52039 0.81232 0.0
C1257 C 0.9968 0.51227 0.80248 0.0
C1258 C 0.99257 0.50333 0.78279 0.0
C1259 C 0.00644 0.50229 0.77265 0.0
C1260 C 0.02463 0.51038 0.78266 0.0
C1261 C 0.02884 0.51935 0.80233 0.0
C1262 C 0.01585 0.55637 0.82134 0.0
C1263 C 0.99839 0.55518 0.82097 0.0
C1264 C 0.99169 0.56076 0.80473 0.0
C1265 C 0.00228 0.56759 0.78847 0.0
C1266 C 0.02002 0.56924 0.78905 0.0
C1267 C 0.02674 0.56355 0.80538 0.0
C1268 C 0.02702 0.57574 0.86187 0.0
C1269 C 0.01293 0.5775 0.87059 0.0
C1270 C 0.01471 0.59564 0.87446 0.0
C1271 C 0.03056 0.61232 0.86951 0.0
C1272 C 0.04455 0.61043 0.8606 0.0
C1273 C 0.04278 0.59228 0.85679 0.0
C1274 C 0.02757 0.55409 0.89466 0.0
C1275 C 0.01125 0.54634 0.90443 0.0
C1276 C 0.01098 0.55547 0.92268 0.0
C1277 C 0.02705 0.5725 0.93155 0.0
C1278 C 0.0437 0.57971 0.92227 0.0
C1279 C 0.04392 0.57062 0.90385 0.0
C1280 C 0.02481 0.51666 0.8857 0.0
C1281 C 0.00806 0.50233 0.89192 0.0
C1282 C 0.00828 0.48944 0.90471 0.0
C1283 C 0.02527 0.49055 0.91135 0.0
C1284 C 0.04215 0.50562 0.90592 0.0
C1285 C 0.04191 0.51857 0.89313 0.0
C1286 C 0.00188 0.49274 0.75175 0.0
C1287 C 0.03249 0.63162 0.87354 0.0
H1288 H 0.487 0.52623 0.70908 0.0
H1289 H 0.64142 0.64798 0.88281 0.0
H1290 H 0.47243 0.53378 0.81466 0.0
H1291 H 0.44728 0.50237 0.79805 0.0
H1292 H 0.47603 0.47494 0.82333 0.0
H1293 H 0.50125 0.50621 0.83888 0.0
H1294 H 0.50759 0.56623 0.79057 0.0
H1295 H 0.4982 0.5539 0.75494 0.0
H1296 H 0.50644 0.50615 0.76591 0.0
H1297 H 0.51605 0.5188 0.80142 0.0
H1298 H 0.55042 0.60093 0.8086 0.0
H1299 H 0.57393 0.61145 0.78441 0.0
H1300 H 0.57552 0.55884 0.78741 0.0
H1301 H 0.5526 0.54876 0.81189 0.0
H1302 H 0.55183 0.61299 0.84784 0.0
H1303 H 0.58318 0.64074 0.85859 0.0
H1304 H 0.60331 0.60177 0.87088 0.0
H1305 H 0.57189 0.57418 0.86004 0.0
H1306 H 0.5324 0.59815 0.88169 0.0
H1307 H 0.5444 0.61032 0.91724 0.0
H1308 H 0.55044 0.56077 0.92461 0.0
H1309 H 0.53951 0.54928 0.88897 0.0
H1310 H 0.48509 0.55495 0.87191 0.0
H1311 H 0.4654 0.53767 0.89798 0.0
H1312 H 0.49007 0.50138 0.89852 0.0
H1313 H 0.50996 0.51911 0.87327 0.0
O1314 O 0.49083 0.53091 0.7232 0.0
O1315 O 0.49521 0.5066 0.72966 0.0
O1316 O 0.61785 0.65669 0.87191 0.0
O1317 O 0.6289 0.63728 0.87846 0.0
C1318 C 0.50559 0.54125 0.83469 0.0
C1319 C 0.51777 0.55083 0.82022 0.0
C1320 C 0.53557 0.56723 0.82632 0.0
C1321 C 0.54071 0.57493 0.84671 0.0
C1322 C 0.52841 0.56564 0.8612 0.0
C1323 C 0.51094 0.54863 0.8552 0.0
C1324 C 0.48847 0.52222 0.82836 0.0
C1325 C 0.47297 0.52087 0.817 0.0
C1326 C 0.45867 0.50295 0.80749 0.0
C1327 C 0.4598 0.48622 0.80917 0.0
C1328 C 0.47489 0.48759 0.82145 0.0
C1329 C 0.48913 0.50541 0.83078 0.0
C1330 C 0.51226 0.54328 0.79859 0.0
C1331 C 0.50736 0.55312 0.78522 0.0
C1332 C 0.50199 0.54603 0.76489 0.0
C1333 C 0.50149 0.52898 0.75758 0.0
C1334 C 0.50659 0.51926 0.77105 0.0
C1335 C 0.512 0.5264 0.79135 0.0
C1336 C 0.54985 0.5741 0.81192 0.0
C1337 C 0.556 0.59182 0.80413 0.0
C1338 C 0.56933 0.59775 0.79035 0.0
C1339 C 0.57636 0.58584 0.784 0.0
C1340 C 0.57013 0.56813 0.79187 0.0
C1341 C 0.55711 0.56241 0.80585 0.0
C1342 C 0.55969 0.59167 0.85315 0.0
C1343 C 0.56307 0.61052 0.85283 0.0
C1344 C 0.58096 0.62631 0.85899 0.0
C1345 C 0.59577 0.62347 0.86559 0.0
C1346 C 0.59225 0.60448 0.86588 0.0
C1347 C 0.57434 0.58871 0.85971 0.0
C1348 C 0.53473 0.57263 0.88286 0.0
C1349 C 0.5363 0.58994 0.89101 0.0
C1350 C 0.54314 0.59686 0.91122 0.0
C1351 C 0.54811 0.58633 0.92358 0.0
C1352 C 0.54641 0.56897 0.91541 0.0
C1353 C 0.54006 0.56234 0.89514 0.0
C1354 C 0.49872 0.53806 0.87056 0.0
C1355 C 0.48616 0.54326 0.87775 0.0
C1356 C 0.47495 0.53337 0.89258 0.0
C1357 C 0.47623 0.51821 0.90043 0.0
C1358 C 0.48894 0.5132 0.89313 0.0
C1359 C 0.50012 0.52309 0.87844 0.0
C1360 C 0.49567 0.52143 0.736 0.0
C1361 C 0.6148 0.64019 0.87216 0.0
H1362 H 0.62157 0.83247 0.68371 0.0
H1363 H 0.63596 0.68149 0.55386 0.0
H1364 H 0.60591 0.81974 0.57508 0.0
H1365 H 0.61531 0.85371 0.5841 0.0
H1366 H 0.67072 0.87124 0.56729 0.0
H1367 H 0.66117 0.83764 0.55823 0.0
H1368 H 0.60221 0.78646 0.60563 0.0
H1369 H 0.60493 0.80191 0.6393 0.0
H1370 H 0.66284 0.84394 0.6339 0.0
H1371 H 0.65998 0.82822 0.60037 0.0
H1372 H 0.60546 0.74765 0.59683 0.0
H1373 H 0.61502 0.73463 0.62435 0.0
H1374 H 0.67231 0.78144 0.62511 0.0
H1375 H 0.66245 0.79449 0.59849 0.0
H1376 H 0.59645 0.73559 0.54351 0.0
H1377 H 0.59404 0.70395 0.5396 0.0
H1378 H 0.65211 0.7303 0.56415 0.0
H1379 H 0.65439 0.76185 0.56769 0.0
H1380 H 0.60167 0.76549 0.50689 0.0
H1381 H 0.60559 0.75312 0.47436 0.0
H1382 H 0.65924 0.76231 0.49935 0.0
H1383 H 0.65585 0.7761 0.53093 0.0
H1384 H 0.59733 0.79769 0.52488 0.0
H1385 H 0.59752 0.81711 0.49827 0.0
H1386 H 0.65717 0.83995 0.49741 0.0
H1387 H 0.65631 0.81927 0.52284 0.0
O1388 O 0.62082 0.82655 0.6704 0.0
O1389 O 0.65051 0.84786 0.66683 0.0
O1390 O 0.60679 0.68101 0.54245 0.0
O1391 O 0.63654 0.69383 0.55516 0.0
C1392 C 0.62845 0.80602 0.56291 0.0
C1393 C 0.62897 0.79692 0.58005 0.0
C1394 C 0.62846 0.77914 0.57784 0.0
C1395 C 0.62673 0.77006 0.55845 0.0
C1396 C 0.62645 0.77927 0.54123 0.0
C1397 C 0.62697 0.79711 0.54349 0.0
C1398 C 0.63276 0.82631 0.56564 0.0
C1399 C 0.61991 0.83103 0.57292 0.0
C1400 C 0.62536 0.85038 0.57825 0.0
C1401 C 0.64375 0.86521 0.57633 0.0
C1402 C 0.65634 0.86029 0.56852 0.0
C1403 C 0.6509 0.84107 0.56326 0.0
C1404 C 0.63082 0.80636 0.6005 0.0
C1405 C 0.61546 0.79901 0.61177 0.0
C1406 C 0.61705 0.80787 0.63098 0.0
C1407 C 0.63408 0.82422 0.63927 0.0
C1408 C 0.64951 0.83143 0.62795 0.0
C1409 C 0.6479 0.82253 0.60876 0.0
C1410 C 0.63329 0.77199 0.59575 0.0
C1411 C 0.61997 0.75521 0.60333 0.0
C1412 C 0.62551 0.74777 0.61895 0.0
C1413 C 0.64448 0.75694 0.62703 0.0
C1414 C 0.65754 0.77416 0.61973 0.0
C1415 C 0.65197 0.78162 0.60435 0.0
C1416 C 0.62551 0.75096 0.55611 0.0
C1417 C 0.60862 0.73448 0.54803 0.0
C1418 C 0.60729 0.71644 0.54583 0.0
C1419 C 0.62287 0.71459 0.55166 0.0
C1420 C 0.63982 0.73119 0.55961 0.0
C1421 C 0.64114 0.74922 0.56175 0.0
C1422 C 0.62842 0.77161 0.52133 0.0
C1423 C 0.61435 0.76503 0.50517 0.0
C1424 C 0.61654 0.75773 0.48665 0.0
C1425 C 0.63276 0.75663 0.48407 0.0
C1426 C 0.64674 0.76324 0.50045 0.0
C1427 C 0.64471 0.77088 0.51871 0.0
C1428 C 0.6268 0.80713 0.52575 0.0
C1429 C 0.61031 0.8066 0.51854 0.0
C1430 C 0.61055 0.81794 0.50351 0.0
C1431 C 0.62743 0.83047 0.49575 0.0
C1432 C 0.64381 0.83038 0.50265 0.0
C1433 C 0.64343 0.81865 0.51734 0.0
C1434 C 0.63571 0.83364 0.65964 0.0
C1435 C 0.62151 0.69545 0.54944 0.0
H1436 H 0.1765 0.81692 0.71525 0.0
H1437 H 0.05111 0.66869 0.54338 0.0
H1438 H 0.17114 0.831 0.61181 0.0
H1439 H 0.19866 0.86232 0.6242 0.0
H1440 H 0.23418 0.84505 0.59611 0.0
H1441 H 0.20662 0.81311 0.5847 0.0
H1442 H 0.14438 0.80332 0.63159 0.0
H1443 H 0.15405 0.8107 0.66776 0.0
H1444 H 0.19475 0.79279 0.66033 0.0
H1445 H 0.18474 0.78519 0.62418 0.0
H1446 H 0.11273 0.78011 0.60018 0.0
H1447 H 0.08905 0.76787 0.62375 0.0
H1448 H 0.11102 0.733 0.64554 0.0
H1449 H 0.13516 0.74573 0.62197 0.0
H1450 H 0.10444 0.76487 0.55624 0.0
H1451 H 0.07462 0.73576 0.54369 0.0
H1452 H 0.09644 0.70048 0.56498 0.0
H1453 H 0.12625 0.72973 0.57725 0.0
H1454 H 0.13381 0.79524 0.53742 0.0
H1455 H 0.12197 0.78596 0.50175 0.0
H1456 H 0.13619 0.74112 0.50071 0.0
H1457 H 0.14813 0.75062 0.53652 0.0
H1458 H 0.16578 0.82896 0.56186 0.0
H1459 H 0.18324 0.85132 0.53796 0.0
H1460 H 0.20623 0.81544 0.52034 0.0
H1461 H 0.18792 0.7927 0.54379 0.0
O1462 O 0.17282 0.81381 0.7009 0.0
O1463 O 0.19358 0.80452 0.69626 0.0
O1464 O 0.05223 0.69922 0.53743 0.0
O1465 O 0.06276 0.68044 0.54815 0.0
C1466 C 0.16987 0.80079 0.58978 0.0
C1467 C 0.15787 0.78886 0.6033 0.0
C1468 C 0.14037 0.77258 0.59585 0.0
C1469 C 0.13566 0.76699 0.57499 0.0
C1470 C 0.14781 0.77856 0.56142 0.0
C1471 C 0.16462 0.79575 0.56881 0.0
C1472 C 0.18685 0.81961 0.59759 0.0
C1473 C 0.18488 0.83372 0.60878 0.0
C1474 C 0.20057 0.8516 0.61579 0.0
C1475 C 0.21847 0.85594 0.61122 0.0
C1476 C 0.22049 0.84194 0.59987 0.0
C1477 C 0.2048 0.82379 0.59332 0.0
C1478 C 0.16367 0.79345 0.6253 0.0
C1479 C 0.15521 0.80076 0.63783 0.0
C1480 C 0.16086 0.80509 0.65848 0.0
C1481 C 0.17514 0.80228 0.66696 0.0
C1482 C 0.18368 0.79508 0.6543 0.0
C1483 C 0.17799 0.79073 0.63366 0.0
C1484 C 0.12559 0.76378 0.60944 0.0
C1485 C 0.11239 0.76977 0.60998 0.0
C1486 C 0.09901 0.7629 0.62351 0.0
C1487 C 0.0984 0.74968 0.63652 0.0
C1488 C 0.11131 0.74324 0.63563 0.0
C1489 C 0.125 0.75042 0.62224 0.0
C1490 C 0.11754 0.74937 0.56742 0.0
C1491 C 0.10279 0.75084 0.55801 0.0
C1492 C 0.08576 0.73419 0.55094 0.0
C1493 C 0.08316 0.71578 0.55328 0.0
C1494 C 0.09797 0.71442 0.56288 0.0
C1495 C 0.11501 0.73108 0.56991 0.0
C1496 C 0.1419 0.77365 0.53948 0.0
C1497 C 0.13457 0.78357 0.52942 0.0
C1498 C 0.12768 0.77815 0.50912 0.0
C1499 C 0.12807 0.76275 0.49848 0.0
C1500 C 0.13584 0.75313 0.5085 0.0
C1501 C 0.14261 0.75848 0.5289 0.0
C1502 C 0.17574 0.80936 0.5546 0.0
C1503 C 0.17463 0.826 0.55283 0.0
C1504 C 0.18471 0.83879 0.53923 0.0
C1505 C 0.19629 0.83529 0.52729 0.0
C1506 C 0.19729 0.81848 0.5291 0.0
C1507 C 0.18699 0.80556 0.54258 0.0
C1508 C 0.18112 0.80691 0.6889 0.0
C1509 C 0.0651 0.69804 0.54579 0.0
H1510 H 0.20707 0.37888 0.72912 0.0
H1511 H 0.05482 0.36569 0.58278 0.0
H1512 H 0.21399 0.38965 0.62599 0.0
H1513 H 0.23632 0.38022 0.6382 0.0
H1514 H 0.20278 0.32455 0.60308 0.0
H1515 H 0.18006 0.33375 0.59193 0.0
H1516 H 0.18483 0.39567 0.65193 0.0
H1517 H 0.19561 0.39417 0.68622 0.0
H1518 H 0.18001 0.33469 0.67028 0.0
H1519 H 0.16905 0.33631 0.63613 0.0
H1520 H 0.14615 0.39581 0.634 0.0
H1521 H 0.12436 0.39101 0.65928 0.0
H1522 H 0.11362 0.33293 0.66224 0.0
H1523 H 0.13476 0.33755 0.63666 0.0
H1524 H 0.1472 0.40166 0.58555 0.0
H1525 H 0.11992 0.40553 0.57925 0.0
H1526 H 0.08389 0.34755 0.59429 0.0
H1527 H 0.11124 0.3438 0.6003 0.0
H1528 H 0.17433 0.39524 0.55402 0.0
H1529 H 0.16321 0.3925 0.51867 0.0
H1530 H 0.11231 0.33956 0.5263 0.0
H1531 H 0.12424 0.34172 0.56105 0.0
H1532 H 0.20823 0.39298 0.57547 0.0
H1533 H 0.22316 0.39072 0.54579 0.0
H1534 H 0.17437 0.33493 0.52546 0.0
H1535 H 0.15988 0.3371 0.5554 0.0
O1536 O 0.20263 0.37913 0.7155 0.0
O1537 O 0.19444 0.34861 0.70652 0.0
O1538 O 0.08495 0.39418 0.57736 0.0
O1539 O 0.06583 0.36452 0.58509 0.0
C1540 C 0.17972 0.36629 0.60446 0.0
C1541 C 0.16996 0.3673 0.62067 0.0
C1542 C 0.15387 0.36897 0.61706 0.0
C1543 C 0.14788 0.37033 0.59734 0.0
C1544 C 0.15754 0.36927 0.58112 0.0
C1545 C 0.17341 0.36716 0.58469 0.0
C1546 C 0.19532 0.36236 0.60818 0.0
C1547 C 0.21169 0.37556 0.62065 0.0
C1548 C 0.22448 0.37015 0.62755 0.0
C1549 C 0.22123 0.35148 0.62188 0.0
C1550 C 0.20552 0.33886 0.60814 0.0
C1551 C 0.19264 0.3442 0.60147 0.0
C1552 C 0.17631 0.36617 0.64152 0.0
C1553 C 0.18372 0.38233 0.6559 0.0
C1554 C 0.18989 0.38143 0.67546 0.0
C1555 C 0.18874 0.36433 0.68098 0.0
C1556 C 0.18116 0.3481 0.66652 0.0
C1557 C 0.17494 0.34901 0.64699 0.0
C1558 C 0.14211 0.36706 0.63358 0.0
C1559 C 0.13916 0.38212 0.64023 0.0
C1560 C 0.12675 0.37937 0.6546 0.0
C1561 C 0.11745 0.36165 0.66276 0.0
C1562 C 0.12085 0.34683 0.65644 0.0
C1563 C 0.13292 0.34945 0.64186 0.0
C1564 C 0.13121 0.37252 0.59352 0.0
C1565 C 0.1334 0.38981 0.58745 0.0
C1566 C 0.1178 0.39198 0.58388 0.0
C1567 C 0.09972 0.37686 0.58632 0.0
C1568 C 0.0976 0.3595 0.59232 0.0
C1569 C 0.11321 0.35734 0.59583 0.0
C1570 C 0.1501 0.3687 0.56014 0.0
C1571 C 0.16079 0.38306 0.54799 0.0
C1572 C 0.15431 0.38153 0.52782 0.0
C1573 C 0.13685 0.36574 0.51948 0.0
C1574 C 0.12598 0.3517 0.53197 0.0
C1575 C 0.13263 0.35307 0.55198 0.0
C1576 C 0.183 0.36522 0.56752 0.0
C1577 C 0.20091 0.3802 0.56468 0.0
C1578 C 0.2093 0.37898 0.54764 0.0
C1579 C 0.19989 0.3627 0.53322 0.0
C1580 C 0.18206 0.34758 0.53636 0.0
C1581 C 0.17373 0.34881 0.55339 0.0
C1582 C 0.19541 0.36347 0.70174 0.0
C1583 C 0.08312 0.37912 0.58263 0.0
H1584 H 0.99539 0.3632 0.05809 0.0
H1585 H 0.9742 0.44272 0.10334 0.0
H1586 H 0.97107 0.38887 0.02123 0.0
H1587 H 0.97268 0.39905 0.13853 0.0
H1588 H 0.97586 0.42499 0.07317 0.0
H1589 H 0.98997 0.37795 0.08818 0.0
C1590 C 0.98883 0.37184 0.05632 0.0
C1591 C 0.98369 0.37481 0.03711 0.0
C1592 C 0.97497 0.41918 0.08746 0.0
C1593 C 0.97772 0.39187 0.07136 0.0
C1594 C 0.97406 0.42929 0.10462 0.0
C1595 C 0.9732 0.42222 0.12332 0.0
C1596 C 0.97546 0.40213 0.08912 0.0
C1597 C 0.97313 0.40482 0.12429 0.0
C1598 C 0.98569 0.38017 0.07347 0.0
C1599 C 0.9752 0.38611 0.03571 0.0
N1600 N 0.97447 0.39545 0.10743 0.0
N1601 N 0.97268 0.39439 0.05259 0.0
H1602 H 0.58437 0.58862 0.10918 0.0
H1603 H 0.56527 0.50104 0.17084 0.0
H1604 H 0.62339 0.56822 0.11529 0.0
H1605 H 0.52217 0.513 0.15007 0.0
H1606 H 0.58637 0.52415 0.1493 0.0
H1607 H 0.56099 0.55997 0.1229 0.0
C1608 C 0.58799 0.57806 0.11341 0.0
C1609 C 0.6059 0.58092 0.11152 0.0
C1610 C 0.57221 0.52152 0.14928 0.0
C1611 C 0.57925 0.54804 0.12728 0.0
C1612 C 0.56014 0.50829 0.16153 0.0
C1613 C 0.54203 0.50534 0.16253 0.0
C1614 C 0.56614 0.53193 0.13811 0.0
C1615 C 0.53617 0.51521 0.1502 0.0
C1616 C 0.57459 0.5616 0.12109 0.0
C1617 C 0.6097 0.56651 0.11663 0.0
N1618 N 0.54825 0.52821 0.1387 0.0
N1619 N 0.59656 0.55078 0.12463 0.0
H1620 H 0.43314 0.04295 0.06166 0.0
H1621 H 0.44238 0.98166 0.14572 0.0
H1622 H 0.39554 0.98157 0.06107 0.0
H1623 H 0.46314 0.04284 0.15744 0.0
H1624 H 0.42854 0.98171 0.11259 0.0
H1625 H 0.44766 0.0435 0.09487 0.0
C1626 C 0.42794 0.0296 0.06849 0.0
C1627 C 0.41307 0.01219 0.05857 0.0
C1628 C 0.43613 0.99511 0.12244 0.0
C1629 C 0.42977 0.01272 0.09639 0.0
C1630 C 0.44398 0.99511 0.14144 0.0
C1631 C 0.45384 0.01225 0.15462 0.0
C1632 C 0.43831 0.01241 0.11634 0.0
C1633 C 0.45587 0.02931 0.14781 0.0
C1634 C 0.4362 0.02995 0.08745 0.0
C1635 C 0.40689 0.99534 0.06818 0.0
N1636 N 0.44819 0.02896 0.12915 0.0
N1637 N 0.41534 0.99601 0.08648 0.0
H1638 H 0.40375 0.96041 0.97524 0.0
H1639 H 0.45482 0.01008 0.88156 0.0
H1640 H 0.41237 0.01546 0.96023 0.0
H1641 H 0.46609 0.96975 0.91008 0.0
H1642 H 0.43693 0.01021 0.90893 0.0
H1643 H 0.42471 0.96169 0.95032 0.0
C1644 C 0.41021 0.97284 0.96689 0.0
C1645 C 0.40628 0.98782 0.96977 0.0
C1646 C 0.44339 0.0014 0.90923 0.0
C1647 C 0.42987 0.98919 0.94113 0.0
C1648 C 0.4537 0.00136 0.89363 0.0
C1649 C 0.46212 0.98996 0.89347 0.0
C1650 C 0.4412 0.98975 0.92473 0.0
C1651 C 0.45965 0.97856 0.90935 0.0
C1652 C 0.42213 0.97355 0.95269 0.0
C1653 C 0.415 0.00359 0.95854 0.0
N1654 N 0.44934 0.97867 0.9243 0.0
N1655 N 0.42621 0.00375 0.94457 0.0
H1656 H 0.0477 0.42122 0.99113 0.0
H1657 H 0.00115 0.45183 0.9033 0.0
H1658 H 0.00224 0.38145 0.94662 0.0
H1659 H 0.04929 0.49373 0.94371 0.0
H1660 H 0.00117 0.42609 0.92026 0.0
H1661 H 0.04877 0.44826 0.97488 0.0
C1662 C 0.03799 0.41818 0.97796 0.0
C1663 C 0.02472 0.39906 0.97035 0.0
C1664 C 0.01174 0.44089 0.92553 0.0
C1665 C 0.02582 0.42975 0.95182 0.0
C1666 C 0.01161 0.45564 0.91594 0.0
C1667 C 0.02511 0.47499 0.92223 0.0
C1668 C 0.02548 0.4454 0.9416 0.0
C1669 C 0.03865 0.47898 0.93835 0.0
C1670 C 0.03858 0.43359 0.96873 0.0
C1671 C 0.0125 0.39592 0.95324 0.0
N1672 N 0.03848 0.46429 0.94754 0.0
N1673 N 0.01333 0.41106 0.94464 0.0
H1674 H 0.56746 0.60118 0.05359 0.0
H1675 H 0.57857 0.62098 0.93878 0.0
H1676 H 0.62156 0.63567 0.03245 0.0
H1677 H 0.53458 0.56778 0.95654 0.0
H1678 H 0.5921 0.63143 0.97413 0.0
H1679 H 0.55277 0.59367 0.01885 0.0
C1680 C 0.57622 0.60734 0.04168 0.0
C1681 C 0.59578 0.61898 0.04589 0.0
C1682 C 0.57941 0.61755 0.97025 0.0
C1683 C 0.57903 0.6106 0.00626 0.0
C1684 C 0.57166 0.61165 0.9502 0.0
C1685 C 0.55552 0.59351 0.94489 0.0
C1686 C 0.5707 0.60534 0.98505 0.0
C1687 C 0.54711 0.58184 0.96012 0.0
C1688 C 0.56784 0.60297 0.02189 0.0
C1689 C 0.60645 0.6265 0.02984 0.0
N1690 N 0.55477 0.58798 0.97956 0.0
N1691 N 0.59793 0.62223 0.01071 0.0
H1692 H 0.99205 0.62966 0.01684 0.0
H1693 H 0.05132 0.58785 0.96632 0.0
H1694 H 0.03353 0.62242 0.0512 0.0
H1695 H 0.00032 0.58186 0.93778 0.0
H1696 H 0.04826 0.60483 0.99634 0.0
H1697 H 0.99842 0.61675 0.98643 0.0
C1698 C 0.00263 0.62553 0.01801 0.0
C1699 C 0.01215 0.62701 0.03671 0.0
C1700 C 0.03777 0.59981 0.98348 0.0
C1701 C 0.01947 0.6121 0.00177 0.0
C1702 C 0.03955 0.5902 0.96636 0.0
C1703 C 0.02593 0.58326 0.94968 0.0
C1704 C 0.02242 0.60272 0.98372 0.0
C1705 C 0.01095 0.58667 0.95047 0.0
C1706 C 0.0062 0.61807 0.0006 0.0
C1707 C 0.02575 0.62143 0.03716 0.0
N1708 N 0.0096 0.59614 0.96717 0.0
N1709 N 0.02895 0.61415 0.01996 0.0
H1710 H 0.38036 0.44214 0.96051 0.0
H1711 H 0.48544 0.50447 0.93294 0.0
H1712 H 0.42167 0.42475 0.96703 0.0
H1713 H 0.43901 0.50634 0.90247 0.0
H1714 H 0.46391 0.4815 0.95413 0.0
H1715 H 0.40375 0.47197 0.9477 0.0
C1716 C 0.39444 0.44479 0.95955 0.0
C1717 C 0.3991 0.43092 0.96441 0.0
C1718 C 0.45852 0.48716 0.94296 0.0
C1719 C 0.42572 0.46477 0.95018 0.0
C1720 C 0.47075 0.50018 0.93079 0.0
C1721 C 0.46394 0.50698 0.91555 0.0
C1722 C 0.43937 0.48102 0.94003 0.0
C1723 C 0.44487 0.50143 0.91396 0.0
C1724 C 0.40769 0.46169 0.9522 0.0
C1725 C 0.41744 0.4349 0.96295 0.0
N1726 N 0.43317 0.48857 0.92591 0.0
N1727 N 0.4301 0.45146 0.9559 0.0
H1728 H 0.61988 0.01136 0.00168 0.0
H1729 H 0.52876 0.99136 0.93414 0.0
H1730 H 0.56522 0.98117 0.02277 0.0
H1731 H 0.57419 0.98932 0.90842 0.0
H1732 H 0.5434 0.99311 0.96789 0.0
H1733 H 0.60484 0.00907 0.96814 0.0
C1734 C 0.60473 0.00433 0.99927 0.0
C1735 C 0.59375 0.99639 0.01497 0.0
C1736 C 0.55009 0.99221 0.95482 0.0
C1737 C 0.57659 0.99398 0.97687 0.0
C1738 C 0.5418 0.99127 0.93568 0.0
C1739 C 0.5503 0.99008 0.91866 0.0
C1740 C 0.56718 0.99248 0.95685 0.0
C1741 C 0.56719 0.99005 0.92128 0.0
C1742 C 0.59619 0.00295 0.98015 0.0
C1743 C 0.57417 0.98736 0.01102 0.0
N1744 N 0.5752 0.99141 0.94006 0.0
N1745 N 0.5662 0.98654 0.99237 0.0
H1746 H 0.60922 0.05131 0.10164 0.0
H1747 H 0.53555 0.98553 0.17497 0.0
H1748 H 0.59252 0.99193 0.108 0.0
H1749 H 0.55302 0.04562 0.17231 0.0
H1750 H 0.55463 0.9873 0.14817 0.0
H1751 H 0.58703 0.04926 0.12534 0.0
C1752 C 0.60076 0.0378 0.1078 0.0
C1753 C 0.60272 0.02175 0.10277 0.0
C1754 C 0.55429 0.00012 0.15336 0.0
C1755 C 0.5775 0.01935 0.12987 0.0
C1756 C 0.54328 0.99907 0.16862 0.0
C1757 C 0.54268 0.01545 0.17592 0.0
C1758 C 0.56489 0.0177 0.14531 0.0
C1759 C 0.55328 0.03271 0.16732 0.0
C1760 C 0.58815 0.03666 0.12135 0.0
C1761 C 0.59145 0.00464 0.11126 0.0
N1762 N 0.564 0.0334 0.15248 0.0
N1763 N 0.57942 0.00394 0.1244 0.0
H1764 H 0.96917 0.61082 0.12954 0.0
H1765 H 0.975 0.51735 0.12039 0.0
H1766 H 0.95694 0.57917 0.07098 0.0
H1767 H 0.95056 0.53005 0.16976 0.0
H1768 H 0.97121 0.54083 0.10184 0.0
H1769 H 0.96533 0.58253 0.14502 0.0
C1770 C 0.96548 0.59778 0.11998 0.0
C1771 C 0.96327 0.59718 0.09903 0.0
C1772 C 0.96638 0.53816 0.11658 0.0
C1773 C 0.95936 0.56504 0.11655 0.0
C1774 C 0.9686 0.52489 0.12716 0.0
C1775 C 0.96307 0.52184 0.14658 0.0
C1776 C 0.95909 0.54875 0.12578 0.0
C1777 C 0.95488 0.53193 0.15476 0.0
C1778 C 0.96323 0.58167 0.12879 0.0
C1779 C 0.95858 0.58003 0.08723 0.0
N1780 N 0.95345 0.54521 0.14447 0.0
N1781 N 0.9571 0.56465 0.09616 0.0
H1782 H 0.44005 0.40961 0.01875 0.0
H1783 H 0.42917 0.38826 0.13336 0.0
H1784 H 0.38633 0.37423 0.04029 0.0
H1785 H 0.47432 0.44081 0.1158 0.0
H1786 H 0.41565 0.3782 0.09805 0.0
H1787 H 0.45513 0.41647 0.05326 0.0
C1788 C 0.43145 0.40311 0.03069 0.0
C1789 C 0.41189 0.39142 0.02666 0.0
C1790 C 0.42859 0.39185 0.10194 0.0
C1791 C 0.42906 0.39909 0.06604 0.0
C1792 C 0.43635 0.39752 0.122 0.0
C1793 C 0.45282 0.41539 0.1274 0.0
C1794 C 0.43755 0.40401 0.08721 0.0
C1795 C 0.46152 0.42698 0.1122 0.0
C1796 C 0.44006 0.40711 0.05036 0.0
C1797 C 0.40143 0.38345 0.04275 0.0
N1798 N 0.4538 0.42108 0.09275 0.0
N1799 N 0.41015 0.38741 0.06174 0.0
H1800 H 0.6779 0.72054 0.38876 0.0
H1801 H 0.60567 0.72748 0.45634 0.0
H1802 H 0.62275 0.70624 0.36331 0.0
H1803 H 0.66547 0.76742 0.46689 0.0
H1804 H 0.6104 0.71438 0.42474 0.0
H1805 H 0.67209 0.73192 0.42077 0.0
C1806 C 0.66449 0.71957 0.38997 0.0
C1807 C 0.65081 0.71252 0.37333 0.0
C1808 C 0.62242 0.726 0.43409 0.0
C1809 C 0.64409 0.72539 0.40986 0.0
C1810 C 0.61977 0.73362 0.45207 0.0
C1811 C 0.63519 0.74862 0.46452 0.0
C1812 C 0.64064 0.73313 0.42868 0.0
C1813 C 0.65315 0.75559 0.4582 0.0
C1814 C 0.66125 0.72618 0.40817 0.0
C1815 C 0.63372 0.7117 0.37573 0.0
N1816 N 0.65537 0.7477 0.44083 0.0
N1817 N 0.6308 0.71801 0.3937 0.0
H1818 H 0.25776 0.93877 0.46976 0.0
H1819 H 0.20435 0.82789 0.48961 0.0
H1820 H 0.26687 0.8966 0.43739 0.0
H1821 H 0.21379 0.87478 0.53296 0.0
H1822 H 0.22295 0.85156 0.46707 0.0
H1823 H 0.23635 0.91381 0.48919 0.0
C1824 C 0.25508 0.9242 0.46653 0.0
C1825 C 0.26421 0.91978 0.452 0.0
C1826 C 0.22085 0.85657 0.48151 0.0
C1827 C 0.23979 0.89116 0.47437 0.0
C1828 C 0.21035 0.84311 0.49445 0.0
C1829 C 0.20742 0.84931 0.51325 0.0
C1830 C 0.22828 0.87632 0.48732 0.0
C1831 C 0.21529 0.86923 0.5185 0.0
C1832 C 0.24294 0.90998 0.47775 0.0
C1833 C 0.26019 0.90063 0.44854 0.0
N1834 N 0.2253 0.88199 0.5056 0.0
N1835 N 0.2483 0.88699 0.45973 0.0
H1836 H 0.07472 0.3225 0.40124 0.0
H1837 H 0.14186 0.39434 0.49568 0.0
H1838 H 0.11838 0.38088 0.39574 0.0
H1839 H 0.11646 0.33236 0.49362 0.0
H1840 H 0.13062 0.39035 0.46015 0.0
H1841 H 0.08687 0.32652 0.43652 0.0
C1842 C 0.08686 0.33616 0.40744 0.0
C1843 C 0.09558 0.35136 0.39551 0.0
C1844 C 0.12756 0.37767 0.46754 0.0
C1845 C 0.10937 0.3561 0.43586 0.0
C1846 C 0.13404 0.37991 0.48782 0.0
C1847 C 0.1301 0.36367 0.49783 0.0
C1848 C 0.11682 0.35906 0.45723 0.0
C1849 C 0.11954 0.34531 0.48679 0.0
C1850 C 0.0938 0.33841 0.42754 0.0
C1851 C 0.11129 0.36873 0.40435 0.0
N1852 N 0.11319 0.34351 0.46716 0.0
N1853 N 0.1176 0.37068 0.42404 0.0
H1854 H 0.06586 0.28376 0.30524 0.0
H1855 H 0.14686 0.32995 0.2327 0.0
H1856 H 0.10338 0.34507 0.30534 0.0
H1857 H 0.09963 0.27172 0.22114 0.0
H1858 H 0.13451 0.33444 0.26336 0.0
H1859 H 0.08206 0.27783 0.27884 0.0
C1860 C 0.07773 0.29596 0.30001 0.0
C1861 C 0.08318 0.31496 0.30737 0.0
C1862 C 0.12689 0.32066 0.25414 0.0
C1863 C 0.10162 0.30828 0.27718 0.0
C1864 C 0.13382 0.31813 0.23652 0.0
C1865 C 0.12411 0.30053 0.22411 0.0
C1866 C 0.11016 0.30545 0.25952 0.0
C1867 C 0.10761 0.28553 0.23024 0.0
C1868 C 0.08686 0.29256 0.28485 0.0
C1869 C 0.0986 0.33021 0.30001 0.0
N1870 N 0.1011 0.28836 0.24748 0.0
N1871 N 0.10721 0.32655 0.28523 0.0
H1872 H 0.72606 0.7575 0.31076 0.0
H1873 H 0.68359 0.81915 0.26619 0.0
H1874 H 0.66729 0.73944 0.30537 0.0
H1875 H 0.7373 0.82721 0.25329 0.0
H1876 H 0.67979 0.79401 0.28718 0.0
H1877 H 0.73267 0.7873 0.29628 0.0
C1878 C 0.71459 0.7599 0.30673 0.0
C1879 C 0.69604 0.74583 0.30887 0.0
C1880 C 0.69248 0.8014 0.27988 0.0
C1881 C 0.70347 0.77975 0.29257 0.0
C1882 C 0.69463 0.8157 0.26782 0.0
C1883 C 0.71065 0.8251 0.25765 0.0
C1884 C 0.70647 0.79648 0.28193 0.0
C1885 C 0.72473 0.82038 0.26084 0.0
C1886 C 0.71835 0.77682 0.29841 0.0
C1887 C 0.6817 0.74962 0.30348 0.0
N1888 N 0.72225 0.80628 0.27258 0.0
N1889 N 0.6857 0.76619 0.29553 0.0
H1890 H 0.28382 0.95489 0.3614 0.0
H1891 H 0.19243 0.91912 0.28398 0.0
H1892 H 0.23118 0.94569 0.37979 0.0
H1893 H 0.24757 0.93766 0.26605 0.0
H1894 H 0.206 0.92826 0.31914 0.0
H1895 H 0.27035 0.94767 0.32641 0.0
C1896 C 0.26941 0.95134 0.35811 0.0
C1897 C 0.25863 0.95087 0.37363 0.0
C1898 C 0.21513 0.93039 0.30749 0.0
C1899 C 0.24307 0.94255 0.33343 0.0
C1900 C 0.20741 0.92528 0.28739 0.0
C1901 C 0.21884 0.92752 0.27198 0.0
C1902 C 0.23442 0.93772 0.31225 0.0
C1903 C 0.23813 0.93533 0.27739 0.0
C1904 C 0.26174 0.94727 0.33808 0.0
C1905 C 0.24005 0.94624 0.36835 0.0
N1906 N 0.24527 0.94005 0.29704 0.0
N1907 N 0.23284 0.94219 0.34871 0.0
H1908 H 0.68137 0.97067 0.34923 0.0
H1909 H 0.70832 0.89859 0.29652 0.0
H1910 H 0.70064 0.93909 0.38346 0.0
H1911 H 0.71709 0.9495 0.27002 0.0
H1912 H 0.70217 0.911 0.32776 0.0
H1913 H 0.69104 0.96092 0.31892 0.0
C1914 C 0.68767 0.96175 0.35038 0.0
C1915 C 0.69021 0.95569 0.3689 0.0
C1916 C 0.70562 0.91954 0.31518 0.0
C1917 C 0.70101 0.94432 0.33434 0.0
C1918 C 0.70909 0.91246 0.29741 0.0
C1919 C 0.71329 0.92314 0.28085 0.0
C1920 C 0.7059 0.93716 0.31616 0.0
C1921 C 0.71406 0.94098 0.28261 0.0
C1922 C 0.69325 0.95628 0.33313 0.0
C1923 C 0.6985 0.94417 0.36953 0.0
N1924 N 0.71016 0.94736 0.29991 0.0
N1925 N 0.70341 0.93868 0.35246 0.0
H1926 H 0.05043 0.77743 0.30191 0.0
H1927 H 0.15199 0.84711 0.26923 0.0
H1928 H 0.09591 0.76598 0.3086 0.0
H1929 H 0.10093 0.83741 0.23636 0.0
H1930 H 0.13319 0.82448 0.29238 0.0
H1931 H 0.07094 0.80694 0.28671 0.0
C1932 C 0.06485 0.78137 0.30057 0.0
C1933 C 0.07148 0.76919 0.30617 0.0
C1934 C 0.12621 0.82758 0.28023 0.0
C1935 C 0.09485 0.80274 0.28916 0.0
C1936 C 0.13687 0.84037 0.2669 0.0
C1937 C 0.12806 0.8439 0.25045 0.0
C1938 C 0.10661 0.81853 0.27736 0.0
C1939 C 0.10842 0.83524 0.24876 0.0
C1940 C 0.07645 0.79807 0.29183 0.0
C1941 C 0.09019 0.77481 0.30408 0.0
N1942 N 0.09834 0.82283 0.26195 0.0
N1943 N 0.10125 0.79118 0.29567 0.0
H1944 H 0.21903 0.2904 0.3509 0.0
H1945 H 0.22759 0.33125 0.24387 0.0
H1946 H 0.26539 0.34451 0.33763 0.0
H1947 H 0.18256 0.27534 0.25478 0.0
H1948 H 0.24093 0.33659 0.27869 0.0
H1949 H 0.20476 0.28486 0.31627 0.0
C1950 C 0.2262 0.30114 0.34077 0.0
C1951 C 0.24348 0.31795 0.34724 0.0
C1952 C 0.22812 0.32314 0.27353 0.0
C1953 C 0.22721 0.31166 0.30758 0.0
C1954 C 0.22043 0.32013 0.25365 0.0
C1955 C 0.20387 0.30286 0.24643 0.0
C1956 C 0.21922 0.3088 0.28638 0.0
C1957 C 0.19542 0.28881 0.25969 0.0
C1958 C 0.21804 0.29794 0.32098 0.0
C1959 C 0.25209 0.33133 0.33338 0.0
N1960 N 0.20317 0.29211 0.27907 0.0
N1961 N 0.24387 0.32789 0.31426 0.0
H1962 H 0.24411 0.32378 0.44039 0.0
H1963 H 0.21978 0.39116 0.50927 0.0
H1964 H 0.26461 0.38365 0.43234 0.0
H1965 H 0.19996 0.33111 0.51571 0.0
H1966 H 0.23463 0.38852 0.47972 0.0
H1967 H 0.22558 0.3258 0.46601 0.0
C1968 C 0.24453 0.33732 0.44379 0.0
C1969 C 0.25601 0.35359 0.4342 0.0
C1970 C 0.22694 0.37592 0.48755 0.0
C1971 C 0.23499 0.35613 0.46402 0.0
C1972 C 0.21859 0.37744 0.5045 0.0
C1973 C 0.20867 0.36135 0.51504 0.0
C1974 C 0.22541 0.35818 0.48115 0.0
C1975 C 0.20729 0.34385 0.50797 0.0
C1976 C 0.23398 0.33849 0.45855 0.0
C1977 C 0.25597 0.37075 0.43937 0.0
N1978 N 0.21562 0.34277 0.49155 0.0
N1979 N 0.24576 0.37164 0.4541 0.0
H1980 H 0.61015 0.91068 0.42903 0.0
H1981 H 0.65034 0.84485 0.46543 0.0
H1982 H 0.66872 0.9285 0.43033 0.0
H1983 H 0.60644 0.84831 0.49362 0.0
H1984 H 0.65344 0.87017 0.44497 0.0
H1985 H 0.60467 0.88184 0.44498 0.0
C1986 C 0.62178 0.90838 0.43248 0.0
C1987 C 0.63996 0.92207 0.42872 0.0
C1988 C 0.64303 0.86516 0.45555 0.0
C1989 C 0.63378 0.88921 0.44649 0.0
C1990 C 0.64131 0.8508 0.46737 0.0
C1991 C 0.62822 0.84441 0.48158 0.0
C1992 C 0.63134 0.87294 0.45757 0.0
C1993 C 0.61655 0.85241 0.48278 0.0
C1994 C 0.61868 0.89205 0.44162 0.0
C1995 C 0.65459 0.9185 0.43343 0.0
N1996 N 0.6184 0.86623 0.47096 0.0
N1997 N 0.65119 0.90237 0.44204 0.0
H1998 H 0.11022 0.73611 0.36878 0.0
H1999 H 0.09461 0.75725 0.48186 0.0
H2000 H 0.05784 0.72826 0.38652 0.0
H2001 H 0.14277 0.75388 0.46668 0.0
H2002 H 0.08148 0.74768 0.44665 0.0
H2003 H 0.12289 0.74343 0.40423 0.0
C2004 C 0.10134 0.73584 0.38009 0.0
C2005 C 0.08293 0.73162 0.37459 0.0
C2006 C 0.09489 0.74897 0.45099 0.0
C2007 C 0.09742 0.74011 0.41519 0.0
C2008 C 0.10245 0.75455 0.47107 0.0
C2009 C 0.11986 0.75648 0.47717 0.0
C2010 C 0.10487 0.74541 0.43679 0.0
C2011 C 0.12927 0.75248 0.46261 0.0
C2012 C 0.10859 0.74 0.40034 0.0
C2013 C 0.0721 0.73143 0.38997 0.0
N2014 N 0.12171 0.74726 0.44305 0.0
N2015 N 0.07954 0.73574 0.40951 0.0
H2016 H 0.34729 0.05946 0.7242 0.0
H2017 H 0.27281 0.06693 0.78739 0.0
H2018 H 0.29249 0.04396 0.6963 0.0
H2019 H 0.33267 0.10521 0.80081 0.0
H2020 H 0.27832 0.05426 0.75596 0.0
H2021 H 0.34054 0.07143 0.75508 0.0
C2022 C 0.33377 0.05841 0.7246 0.0
C2023 C 0.32045 0.05074 0.7076 0.0
C2024 C 0.29018 0.06545 0.76586 0.0
C2025 C 0.31266 0.0644 0.74296 0.0
C2026 C 0.28708 0.0728 0.78375 0.0
C2027 C 0.3023 0.08709 0.79701 0.0
C2028 C 0.30862 0.07221 0.76133 0.0
C2029 C 0.32048 0.09385 0.79147 0.0
C2030 C 0.32999 0.06537 0.7422 0.0
C2031 C 0.3032 0.04986 0.70902 0.0
N2032 N 0.32312 0.08625 0.77419 0.0
N2033 N 0.29975 0.05655 0.72645 0.0
H2034 H 0.95487 0.23211 0.76966 0.0
H2035 H 0.85374 0.15914 0.80074 0.0
H2036 H 0.90911 0.24325 0.76478 0.0
H2037 H 0.90498 0.17017 0.83442 0.0
H2038 H 0.87247 0.1834 0.77892 0.0
H2039 H 0.93477 0.2023 0.78459 0.0
C2040 C 0.94048 0.22806 0.77134 0.0
C2041 C 0.93364 0.2402 0.76626 0.0
C2042 C 0.87951 0.18025 0.79098 0.0
C2043 C 0.91072 0.20628 0.78298 0.0
C2044 C 0.86888 0.16654 0.80358 0.0
C2045 C 0.87772 0.16279 0.81983 0.0
C2046 C 0.89912 0.19 0.79432 0.0
C2047 C 0.89744 0.17239 0.82212 0.0
C2048 C 0.92912 0.21118 0.77995 0.0
C2049 C 0.91497 0.23441 0.76883 0.0
N2050 N 0.90748 0.18562 0.80957 0.0
N2051 N 0.90412 0.21784 0.77705 0.0
H2052 H 0.77912 0.71767 0.72268 0.0
H2053 H 0.78876 0.67305 0.82261 0.0
H2054 H 0.74343 0.65779 0.73173 0.0
H2055 H 0.80841 0.73384 0.82167 0.0
H2056 H 0.77598 0.66733 0.7875 0.0
H2057 H 0.794 0.72392 0.75723 0.0
C2058 C 0.77449 0.70583 0.73187 0.0
C2059 C 0.75995 0.68719 0.72432 0.0
C2060 C 0.7831 0.68192 0.795 0.0
C2061 C 0.77698 0.69423 0.7637 0.0
C2062 C 0.79032 0.68521 0.81511 0.0
C2063 C 0.79949 0.70395 0.82531 0.0
C2064 C 0.78522 0.69748 0.78482 0.0
C2065 C 0.80157 0.71918 0.81446 0.0
C2066 C 0.78293 0.70943 0.75158 0.0
C2067 C 0.75448 0.67241 0.73694 0.0
N2068 N 0.79447 0.71561 0.79481 0.0
N2069 N 0.76303 0.67624 0.75597 0.0
H2070 H 0.76175 0.67967 0.63447 0.0
H2071 H 0.76368 0.60964 0.54789 0.0
H2072 H 0.73279 0.61784 0.63562 0.0
H2073 H 0.80864 0.6689 0.56169 0.0
H2074 H 0.75089 0.61259 0.57885 0.0
H2075 H 0.77825 0.67644 0.6069 0.0
C2076 C 0.75905 0.66544 0.62912 0.0
C2077 C 0.74582 0.64899 0.63729 0.0
C2078 C 0.76361 0.6249 0.57511 0.0
C2079 C 0.76433 0.64516 0.6055 0.0
C2080 C 0.77096 0.62324 0.55743 0.0
C2081 C 0.78726 0.63907 0.55202 0.0
C2082 C 0.77244 0.64258 0.58735 0.0
C2083 C 0.79582 0.65642 0.56492 0.0
C2084 C 0.76847 0.66361 0.61338 0.0
C2085 C 0.7429 0.63091 0.62978 0.0
N2086 N 0.78824 0.65775 0.58189 0.0
N2087 N 0.75187 0.62944 0.61407 0.0
H2088 H 0.39573 0.09463 0.64514 0.0
H2089 H 0.34971 0.15169 0.59748 0.0
H2090 H 0.33614 0.07258 0.637 0.0
H2091 H 0.40291 0.15974 0.58239 0.0
H2092 H 0.3469 0.12705 0.61871 0.0
H2093 H 0.40081 0.12307 0.62871 0.0
C2094 C 0.38374 0.09585 0.64004 0.0
C2095 C 0.36546 0.08109 0.64211 0.0
C2096 C 0.35924 0.13432 0.61084 0.0
C2097 C 0.37116 0.11351 0.62368 0.0
C2098 C 0.36083 0.14833 0.59862 0.0
C2099 C 0.37642 0.15761 0.58778 0.0
C2100 C 0.37342 0.12967 0.61249 0.0
C2101 C 0.39066 0.15305 0.59047 0.0
C2102 C 0.38665 0.11199 0.63063 0.0
C2103 C 0.35041 0.08336 0.6353 0.0
N2104 N 0.38877 0.13931 0.60247 0.0
N2105 N 0.35359 0.09926 0.62641 0.0
H2106 H 0.95019 0.29095 0.68671 0.0
H2107 H 0.85913 0.24749 0.60677 0.0
H2108 H 0.89412 0.26876 0.70356 0.0
H2109 H 0.91579 0.27456 0.5907 0.0
H2110 H 0.87159 0.25615 0.64229 0.0
H2111 H 0.93778 0.28574 0.6515 0.0
C2112 C 0.93527 0.28503 0.68304 0.0
C2113 C 0.92319 0.28021 0.69819 0.0
C2114 C 0.88129 0.26029 0.63098 0.0
C2115 C 0.90885 0.27415 0.65774 0.0
C2116 C 0.87419 0.25546 0.61069 0.0
C2117 C 0.88642 0.26018 0.59569 0.0
C2118 C 0.90077 0.26989 0.63636 0.0
C2119 C 0.90581 0.2703 0.60172 0.0
C2120 C 0.92819 0.28209 0.66289 0.0
C2121 C 0.90398 0.27267 0.69244 0.0
N2122 N 0.91236 0.27471 0.62154 0.0
N2123 N 0.8974 0.26978 0.67268 0.0
H2124 H 0.34914 0.30793 0.67945 0.0
H2125 H 0.37307 0.23257 0.62827 0.0
H2126 H 0.36974 0.27777 0.71427 0.0
H2127 H 0.38075 0.282 0.59938 0.0
H2128 H 0.36789 0.24637 0.65923 0.0
H2129 H 0.35669 0.29602 0.64885 0.0
C2130 C 0.35525 0.29884 0.68066 0.0
C2131 C 0.35885 0.29386 0.69943 0.0
C2132 C 0.37085 0.25425 0.64616 0.0
C2133 C 0.36722 0.28005 0.6646 0.0
C2134 C 0.37377 0.24639 0.62856 0.0
C2135 C 0.37745 0.25628 0.61143 0.0
C2136 C 0.37117 0.27188 0.64643 0.0
C2137 C 0.37814 0.27409 0.61242 0.0
C2138 C 0.35962 0.29214 0.66324 0.0
C2139 C 0.36683 0.28207 0.70014 0.0
N2140 N 0.37482 0.28126 0.6296 0.0
N2141 N 0.37058 0.27541 0.68296 0.0
H2142 H 0.73648 0.07271 0.59167 0.0
H2143 H 0.80787 0.18353 0.59308 0.0
H2144 H 0.73799 0.11164 0.64008 0.0
H2145 H 0.77432 0.14815 0.53876 0.0
H2146 H 0.78741 0.15743 0.6128 0.0
H2147 H 0.75632 0.10038 0.57412 0.0
C2148 C 0.74116 0.08711 0.59871 0.0
C2149 C 0.73557 0.08994 0.61731 0.0
C2150 C 0.78449 0.15558 0.59658 0.0
C2151 C 0.75833 0.12155 0.59736 0.0
C2152 C 0.79608 0.17034 0.58541 0.0
C2153 C 0.79256 0.16788 0.56439 0.0
C2154 C 0.7698 0.13819 0.58649 0.0
C2155 C 0.77729 0.15059 0.55498 0.0
C2156 C 0.75234 0.10283 0.58862 0.0
C2157 C 0.74196 0.10891 0.62569 0.0
N2158 N 0.7666 0.13626 0.56609 0.0
N2159 N 0.75318 0.12412 0.61568 0.0
H2160 H 0.92906 0.67568 0.66763 0.0
H2161 H 0.84408 0.61114 0.58187 0.0
H2162 H 0.87877 0.62358 0.6781 0.0
H2163 H 0.89159 0.66663 0.57424 0.0
H2164 H 0.85693 0.61467 0.61681 0.0
H2165 H 0.91583 0.67195 0.63304 0.0
C2166 C 0.91522 0.66345 0.66269 0.0
C2167 C 0.90503 0.64992 0.67586 0.0
C2168 C 0.86451 0.62608 0.60749 0.0
C2169 C 0.88979 0.64554 0.63611 0.0
C2170 C 0.85724 0.62402 0.58754 0.0
C2171 C 0.86675 0.63864 0.57516 0.0
C2172 C 0.88149 0.64282 0.61506 0.0
C2173 C 0.88365 0.65512 0.58332 0.0
C2174 C 0.90766 0.66135 0.6429 0.0
C2175 C 0.88714 0.63439 0.66853 0.0
N2176 N 0.89049 0.65674 0.60272 0.0
N2177 N 0.88011 0.6326 0.64913 0.0
H2178 H 0.90336 0.65497 0.77079 0.0
H2179 H 0.88781 0.73096 0.8369 0.0
H2180 H 0.93047 0.7154 0.76191 0.0
H2181 H 0.86953 0.67277 0.85039 0.0
H2182 H 0.90074 0.7251 0.80717 0.0
H2183 H 0.88715 0.66057 0.79699 0.0
C2184 C 0.90571 0.66939 0.77412 0.0
C2185 C 0.9184 0.68476 0.76419 0.0
C2186 C 0.89384 0.71363 0.81663 0.0
C2187 C 0.90006 0.69137 0.79458 0.0
C2188 C 0.88659 0.717 0.83369 0.0
C2189 C 0.87757 0.70234 0.8462 0.0
C2190 C 0.892 0.69545 0.81204 0.0
C2191 C 0.8761 0.68442 0.84107 0.0
C2192 C 0.89652 0.67261 0.78923 0.0
C2193 C 0.92085 0.70315 0.76924 0.0
N2194 N 0.88324 0.68151 0.82443 0.0
N2195 N 0.91188 0.70599 0.78423 0.0
H2196 H 0.34052 0.28222 0.78694 0.0
H2197 H 0.2747 0.17053 0.7989 0.0
H2198 H 0.28993 0.24535 0.74713 0.0
H2199 H 0.33102 0.20601 0.82842 0.0
H2200 H 0.27939 0.19736 0.77983 0.0
H2201 H 0.33666 0.2542 0.80247 0.0
C2202 C 0.32868 0.2682 0.78127 0.0
C2203 C 0.31565 0.26616 0.76552 0.0
C2204 C 0.29076 0.19916 0.79033 0.0
C2205 C 0.31091 0.23384 0.78364 0.0
C2206 C 0.28808 0.1839 0.80125 0.0
C2207 C 0.3025 0.18603 0.81526 0.0
C2208 C 0.30789 0.21674 0.79365 0.0
C2209 C 0.3196 0.20361 0.81761 0.0
C2210 C 0.32645 0.25215 0.79023 0.0
C2211 C 0.30035 0.24759 0.75919 0.0
N2212 N 0.32175 0.2183 0.80705 0.0
N2213 N 0.29834 0.23212 0.76835 0.0
H2214 H 0.76959 0.04829 0.68343 0.0
H2215 H 0.78267 0.10256 0.7916 0.0
H2216 H 0.73282 0.06836 0.70209 0.0
H2217 H 0.7969 0.05791 0.78377 0.0
H2218 H 0.76962 0.09509 0.75651 0.0
H2219 H 0.78485 0.05641 0.71818 0.0
C2220 C 0.76478 0.05444 0.69479 0.0
C2221 C 0.74988 0.05759 0.6899 0.0
C2222 C 0.77562 0.08695 0.7625 0.0
C2223 C 0.76738 0.06714 0.72931 0.0
C2224 C 0.78297 0.09109 0.7826 0.0
C2225 C 0.79058 0.08058 0.79091 0.0
C2226 C 0.77612 0.07242 0.75037 0.0
C2227 C 0.79123 0.06643 0.77809 0.0
C2228 C 0.77342 0.05898 0.71456 0.0
C2229 C 0.74415 0.06555 0.7052 0.0
N2230 N 0.78405 0.06273 0.75843 0.0
N2231 N 0.75299 0.07017 0.72415 0.0
H2232 H 0.03227 0.29732 0.0188 0.0
H2233 H 0.10541 0.33338 0.11749 0.0
H2234 H 0.04973 0.35034 0.05636 0.0
H2235 H 0.08519 0.27897 0.08144 0.0
H2236 H 0.08364 0.33896 0.09668 0.0
H2237 H 0.05004 0.28947 0.04289 0.0
C2238 C 0.03977 0.30729 0.03218 0.0
C2239 C 0.03961 0.3246 0.03548 0.0
C2240 C 0.08383 0.32571 0.09344 0.0
C2241 C 0.06011 0.3157 0.06316 0.0
C2242 C 0.0963 0.32255 0.10528 0.0
C2243 C 0.09721 0.30573 0.10113 0.0
C2244 C 0.07225 0.31203 0.07723 0.0
C2245 C 0.08487 0.29206 0.0853 0.0
C2246 C 0.04991 0.30277 0.04596 0.0
C2247 C 0.04951 0.33687 0.05316 0.0
N2248 N 0.07305 0.29559 0.07383 0.0
N2249 N 0.05947 0.33226 0.06626 0.0
H2250 H 0.67277 0.69743 0.10534 0.0
H2251 H 0.6604 0.77751 0.16806 0.0
H2252 H 0.62274 0.68558 0.13264 0.0
H2253 H 0.70961 0.79105 0.13839 0.0
H2254 H 0.64689 0.74356 0.15578 0.0
H2255 H 0.68678 0.73164 0.11736 0.0
C2256 C 0.66467 0.702 0.11374 0.0
C2257 C 0.64654 0.68854 0.11802 0.0
C2258 C 0.66066 0.7539 0.15194 0.0
C2259 C 0.66258 0.72768 0.13195 0.0
C2260 C 0.66836 0.77331 0.15893 0.0
C2261 C 0.68609 0.78714 0.15409 0.0
C2262 C 0.67073 0.74819 0.14001 0.0
C2263 C 0.69595 0.78083 0.14255 0.0
C2264 C 0.67272 0.72154 0.12065 0.0
C2265 C 0.63675 0.69537 0.12898 0.0
N2266 N 0.68809 0.7618 0.13581 0.0
N2267 N 0.64492 0.71441 0.13561 0.0
H2268 H 0.32716 0.94585 0.04904 0.0
H2269 H 0.22873 0.93368 0.07347 0.0
H2270 H 0.29376 0.96006 0.0095 0.0
H2271 H 0.25959 0.91426 0.10975 0.0
H2272 H 0.25246 0.94358 0.04982 0.0
H2273 H 0.30228 0.9337 0.07121 0.0
C2274 C 0.31453 0.94626 0.04493 0.0
C2275 C 0.31257 0.95404 0.02743 0.0
C2276 C 0.254 0.93708 0.06292 0.0
C2277 C 0.28412 0.94036 0.05283 0.0
C2278 C 0.24053 0.93156 0.07647 0.0
C2279 C 0.24218 0.9231 0.09355 0.0
C2280 C 0.26928 0.93424 0.06657 0.0
C2281 C 0.25765 0.9205 0.09663 0.0
C2282 C 0.30034 0.93936 0.05761 0.0
C2283 C 0.29589 0.9542 0.02285 0.0
N2284 N 0.27061 0.92609 0.08331 0.0
N2285 N 0.28236 0.94759 0.03554 0.0
H2286 H 0.33037 0.01039 0.01233 0.0
H2287 H 0.28941 0.05234 0.95984 0.0
H2288 H 0.38014 0.06564 0.00918 0.0
H2289 H 0.33117 0.10662 0.99307 0.0
H2290 H 0.30206 0.03596 0.97885 0.0
H2291 H 0.31126 0.02527 0.00691 0.0
C2292 C 0.33734 0.02572 0.01085 0.0
C2293 C 0.3569 0.03668 0.01065 0.0
C2294 C 0.30809 0.05137 0.98248 0.0
C2295 C 0.33503 0.05363 0.00414 0.0
C2296 C 0.30084 0.06079 0.97158 0.0
C2297 C 0.3094 0.081 0.97456 0.0
C2298 C 0.32418 0.06223 0.99628 0.0
C2299 C 0.32445 0.0911 0.9898 0.0
C2300 C 0.32637 0.03413 0.00758 0.0
C2301 C 0.3651 0.05653 0.00899 0.0
N2302 N 0.33167 0.08168 0.99971 0.0
N2303 N 0.35409 0.06433 0.00555 0.0
H2304 H 0.93567 0.29709 0.97615 0.0
H2305 H 0.92528 0.19699 0.93545 0.0
H2306 H 0.98172 0.28644 0.98262 0.0
H2307 H 0.87835 0.20516 0.9434 0.0
H2308 H 0.94629 0.22907 0.95373 0.0
H2309 H 0.91439 0.26288 0.96542 0.0
C2310 C 0.94126 0.28747 0.97556 0.0
C2311 C 0.9605 0.29462 0.98013 0.0
C2312 C 0.93137 0.22374 0.95157 0.0
C2313 C 0.93625 0.25541 0.96744 0.0
C2314 C 0.91938 0.20545 0.94115 0.0
C2315 C 0.90008 0.19855 0.93751 0.0
C2316 C 0.92396 0.23516 0.95833 0.0
C2317 C 0.8932 0.21012 0.94528 0.0
C2318 C 0.9291 0.26791 0.96942 0.0
C2319 C 0.96696 0.28148 0.97923 0.0
N2320 N 0.90513 0.22787 0.95514 0.0
N2321 N 0.9549 0.26252 0.97266 0.0
H2322 H 0.68067 0.64248 0.04241 0.0
H2323 H 0.78287 0.72551 0.02179 0.0
H2324 H 0.71649 0.69232 0.08513 0.0
H2325 H 0.74896 0.67201 0.98343 0.0
H2326 H 0.75777 0.71525 0.04391 0.0
H2327 H 0.70473 0.65463 0.01941 0.0
C2328 C 0.6936 0.656 0.04696 0.0
C2329 C 0.69661 0.66634 0.06579 0.0
C2330 C 0.75584 0.7058 0.03062 0.0
C2331 C 0.72427 0.68039 0.03944 0.0
C2332 C 0.77009 0.71169 0.01797 0.0
C2333 C 0.76803 0.69949 0.0009 0.0
C2334 C 0.73941 0.68766 0.02604 0.0
C2335 C 0.75124 0.6817 0.99664 0.0
C2336 C 0.70736 0.66294 0.0338 0.0
C2337 C 0.71362 0.68382 0.07081 0.0
N2338 N 0.73762 0.67632 0.00914 0.0
N2339 N 0.72685 0.69029 0.05772 0.0
H2340 H 0.9551 0.65826 0.01406 0.0
H2341 H 0.91146 0.72575 0.997 0.0
H2342 H 0.95938 0.70142 0.05916 0.0
H2343 H 0.91027 0.68603 0.94972 0.0
H2344 H 0.93065 0.71819 0.01922 0.0
H2345 H 0.94008 0.6691 0.98968 0.0
C2346 C 0.95299 0.67008 0.01881 0.0
C2347 C 0.95839 0.67885 0.03874 0.0
C2348 C 0.92636 0.71123 0.00393 0.0
C2349 C 0.94118 0.69128 0.01094 0.0
C2350 C 0.91551 0.71569 0.99112 0.0
C2351 C 0.90925 0.70658 0.97136 0.0
C2352 C 0.93093 0.6974 0.99708 0.0
C2353 C 0.91459 0.69326 0.96488 0.0
C2354 C 0.94442 0.67627 0.00488 0.0
C2355 C 0.95536 0.69414 0.04401 0.0
N2356 N 0.92503 0.68899 0.97774 0.0
N2357 N 0.94688 0.69978 0.03025 0.0
H2358 H 0.33886 0.3134 0.9719 0.0
H2359 H 0.33828 0.23682 0.8898 0.0
H2360 H 0.38155 0.32813 0.93152 0.0
H2361 H 0.3067 0.22021 0.94107 0.0
H2362 H 0.352 0.27069 0.90289 0.0
H2363 H 0.32487 0.27938 0.95906 0.0
C2364 C 0.34536 0.30949 0.96042 0.0
C2365 C 0.36143 0.32367 0.95278 0.0
C2366 C 0.34205 0.25962 0.91125 0.0
C2367 C 0.34531 0.28479 0.93786 0.0
C2368 C 0.33422 0.24027 0.90381 0.0
C2369 C 0.32137 0.22558 0.91439 0.0
C2370 C 0.33691 0.26439 0.92933 0.0
C2371 C 0.31636 0.231 0.93225 0.0
C2372 C 0.33735 0.29007 0.9531 0.0
C2373 C 0.36922 0.31772 0.93791 0.0
N2374 N 0.32415 0.24996 0.93917 0.0
N2375 N 0.36101 0.29875 0.93085 0.0
H2376 H 0.67888 0.05805 0.01977 0.0
H2377 H 0.77469 0.06609 0.99084 0.0
H2378 H 0.71363 0.04518 0.0589 0.0
H2379 H 0.74062 0.08061 0.95285 0.0
H2380 H 0.75256 0.05839 0.01609 0.0
H2381 H 0.70189 0.0673 0.99549 0.0
C2382 C 0.69143 0.05735 0.02335 0.0
C2383 C 0.69429 0.05076 0.04137 0.0
C2384 C 0.74994 0.06328 0.00223 0.0
C2385 C 0.7206 0.06111 0.01353 0.0
C2386 C 0.76248 0.06751 0.98776 0.0
C2387 C 0.75951 0.07404 0.96976 0.0
C2388 C 0.73429 0.06552 0.99861 0.0
C2389 C 0.74358 0.07586 0.96664 0.0
C2390 C 0.70455 0.06256 0.00944 0.0
C2391 C 0.71083 0.05014 0.04519 0.0
N2392 N 0.73159 0.07163 0.98091 0.0
N2393 N 0.7233 0.05514 0.03133 0.0
H2394 H 0.62295 0.94079 0.05865 0.0
H2395 H 0.71951 0.95518 0.10221 0.0
H2396 H 0.6754 0.99452 0.06017 0.0
H2397 H 0.66812 0.90005 0.09256 0.0
H2398 H 0.70535 0.96825 0.07964 0.0
H2399 H 0.64034 0.92407 0.06341 0.0
C2400 C 0.63812 0.94902 0.05959 0.0
C2401 C 0.64772 0.96916 0.05961 0.0
C2402 C 0.6973 0.95316 0.08206 0.0
C2403 C 0.66778 0.95019 0.06548 0.0
C2404 C 0.70543 0.9457 0.09488 0.0
C2405 C 0.69476 0.92669 0.09961 0.0
C2406 C 0.67836 0.94152 0.07416 0.0
C2407 C 0.67661 0.91497 0.08969 0.0
C2408 C 0.64808 0.93947 0.0623 0.0
C2409 C 0.66739 0.97902 0.06047 0.0
N2410 N 0.66885 0.92267 0.07776 0.0
N2411 N 0.67679 0.96951 0.06389 0.0
H2412 H 0.02164 0.71343 0.08104 0.0
H2413 H 0.09861 0.78634 0.16957 0.0
H2414 H 0.04769 0.69657 0.12707 0.0
H2415 H 0.09078 0.80578 0.11315 0.0
H2416 H 0.07551 0.75329 0.15607 0.0
H2417 H 0.04321 0.74747 0.09408 0.0
C2418 C 0.03191 0.71684 0.09378 0.0
C2419 C 0.03285 0.70208 0.10293 0.0
C2420 C 0.0788 0.76479 0.14664 0.0
C2421 C 0.05716 0.74078 0.11806 0.0
C2422 C 0.09202 0.78368 0.15433 0.0
C2423 C 0.09689 0.79887 0.14239 0.0
C2424 C 0.07019 0.76096 0.12689 0.0
C2425 C 0.08743 0.79454 0.12293 0.0
C2426 C 0.04416 0.73624 0.10119 0.0
C2427 C 0.04642 0.70738 0.11942 0.0
N2428 N 0.07457 0.77594 0.11572 0.0
N2429 N 0.0579 0.72622 0.1265 0.0
H2430 H 0.32881 0.35742 0.03379 0.0
H2431 H 0.21952 0.29579 0.0459 0.0
H2432 H 0.28639 0.32633 0.98344 0.0
H2433 H 0.2632 0.32069 0.09568 0.0
H2434 H 0.24356 0.30558 0.02264 0.0
H2435 H 0.30477 0.34333 0.0566 0.0
C2436 C 0.31443 0.3476 0.02752 0.0
C2437 C 0.30958 0.34315 0.00667 0.0
C2438 C 0.24786 0.30876 0.03866 0.0
C2439 C 0.28192 0.32694 0.03275 0.0
C2440 C 0.23415 0.30307 0.05194 0.0
C2441 C 0.23938 0.30762 0.07275 0.0
C2442 C 0.26691 0.31911 0.04627 0.0
C2443 C 0.25854 0.31724 0.07974 0.0
C2444 C 0.3007 0.3395 0.04057 0.0
C2445 C 0.29073 0.33022 0.99942 0.0
N2446 N 0.2716 0.32278 0.06654 0.0
N2447 N 0.27754 0.32265 0.01245 0.0
H2448 H 0.72476 0.70958 0.40186 0.0
H2449 H 0.75131 0.62755 0.41381 0.0
H2450 H 0.70107 0.65705 0.36142 0.0
H2451 H 0.7769 0.68143 0.45223 0.0
H2452 H 0.73024 0.63643 0.3967 0.0
H2453 H 0.74155 0.69796 0.42253 0.0
C2454 C 0.72298 0.69555 0.39738 0.0
C2455 C 0.7116 0.68436 0.37977 0.0
C2456 C 0.74037 0.64625 0.40898 0.0
C2457 C 0.73086 0.67096 0.40338 0.0
C2458 C 0.75231 0.64112 0.41885 0.0
C2459 C 0.76599 0.65383 0.43438 0.0
C2460 C 0.74209 0.66422 0.41468 0.0
C2461 C 0.76678 0.67133 0.44011 0.0
C2462 C 0.7326 0.68892 0.40919 0.0
C2463 C 0.70978 0.66623 0.37479 0.0
N2464 N 0.75509 0.67605 0.4302 0.0
N2465 N 0.7194 0.66016 0.38646 0.0
H2466 H 0.34099 0.02904 0.44183 0.0
H2467 H 0.33003 0.12202 0.45427 0.0
H2468 H 0.28778 0.02673 0.43438 0.0
H2469 H 0.37539 0.11943 0.48638 0.0
H2470 H 0.31743 0.08894 0.43921 0.0
H2471 H 0.35667 0.06415 0.45044 0.0
C2472 C 0.33265 0.03596 0.44166 0.0
C2473 C 0.31304 0.02497 0.43756 0.0
C2474 C 0.3302 0.09567 0.44946 0.0
C2475 C 0.33085 0.06493 0.44723 0.0
C2476 C 0.33735 0.11451 0.45819 0.0
C2477 C 0.35355 0.12338 0.47204 0.0
C2478 C 0.33941 0.08564 0.45437 0.0
C2479 C 0.36283 0.11315 0.47587 0.0
C2480 C 0.34159 0.05592 0.44669 0.0
C2481 C 0.3029 0.03463 0.43765 0.0
N2482 N 0.35554 0.09472 0.46719 0.0
N2483 N 0.31192 0.05406 0.44245 0.0
H2484 H 0.97796 0.31104 0.34494 0.0
H2485 H 0.93581 0.25416 0.43974 0.0
H2486 H 0.00734 0.29271 0.38509 0.0
H2487 H 0.90656 0.27401 0.40152 0.0
H2488 H 0.96184 0.26772 0.41928 0.0
H2489 H 0.95137 0.29709 0.36486 0.0
C2490 C 0.97881 0.30404 0.35791 0.0
C2491 C 0.9949 0.30304 0.36337 0.0
C2492 C 0.94975 0.26912 0.41531 0.0
C2493 C 0.96457 0.2871 0.38623 0.0
C2494 C 0.93481 0.26127 0.42693 0.0
C2495 C 0.91892 0.26282 0.42222 0.0
C2496 C 0.94885 0.27864 0.39883 0.0
C2497 C 0.91859 0.27258 0.40572 0.0
C2498 C 0.96364 0.29611 0.36929 0.0
C2499 C 0.99523 0.29383 0.38033 0.0
N2500 N 0.93334 0.28008 0.39456 0.0
N2501 N 0.9803 0.28623 0.39115 0.0
H2502 H 0.02547 0.36456 0.34543 0.0
H2503 H 0.04665 0.46287 0.30305 0.0
H2504 H 0.08074 0.41053 0.33646 0.0
H2505 H 0.99148 0.41236 0.3002 0.0
H2506 H 0.05907 0.44734 0.32421 0.0
H2507 H 0.01297 0.38552 0.33816 0.0
C2508 C 0.03507 0.37918 0.34234 0.0
C2509 C 0.05414 0.38563 0.34106 0.0
C2510 C 0.04419 0.43978 0.31922 0.0
C2511 C 0.03984 0.40961 0.33265 0.0
C2512 C 0.03711 0.4486 0.30709 0.0
C2513 C 0.01808 0.4387 0.29949 0.0
C2514 C 0.03218 0.42091 0.32373 0.0
C2515 C 0.00626 0.42047 0.30564 0.0
C2516 C 0.02789 0.39112 0.33813 0.0
C2517 C 0.06589 0.4048 0.33722 0.0
N2518 N 0.01356 0.41202 0.31715 0.0
N2519 N 0.0585 0.41602 0.33284 0.0
H2520 H 0.60385 0.64549 0.28949 0.0
H2521 H 0.57534 0.5345 0.2866 0.0
H2522 H 0.64068 0.62792 0.31691 0.0
H2523 H 0.54499 0.55561 0.25209 0.0
H2524 H 0.59905 0.56803 0.29918 0.0
H2525 H 0.58128 0.61198 0.27784 0.0
C2526 C 0.6072 0.63458 0.29317 0.0
C2527 C 0.62431 0.63963 0.30415 0.0
C2528 C 0.5872 0.56526 0.28882 0.0
C2529 C 0.59833 0.60091 0.29062 0.0
C2530 C 0.57374 0.54616 0.28155 0.0
C2531 C 0.55805 0.54224 0.26844 0.0
C2532 C 0.58488 0.58045 0.28293 0.0
C2533 C 0.55662 0.55789 0.2625 0.0
C2534 C 0.59428 0.61537 0.28641 0.0
C2535 C 0.6277 0.62472 0.30847 0.0
N2536 N 0.56978 0.57623 0.26984 0.0
N2537 N 0.61484 0.606 0.30165 0.0
H2538 H 0.33806 0.96029 0.37553 0.0
H2539 H 0.44335 0.02682 0.34958 0.0
H2540 H 0.37957 0.01146 0.41351 0.0
H2541 H 0.40272 0.973 0.31491 0.0
H2542 H 0.42005 0.02213 0.37271 0.0
H2543 H 0.36149 0.96533 0.35272 0.0
C2544 C 0.35212 0.9726 0.37909 0.0
C2545 C 0.35687 0.98547 0.39649 0.0
C2546 C 0.41626 0.01133 0.36006 0.0
C2547 C 0.3838 0.99134 0.37035 0.0
C2548 C 0.42951 0.01405 0.34681 0.0
C2549 C 0.42497 0.00025 0.33034 0.0
C2550 C 0.39832 0.99475 0.35673 0.0
C2551 C 0.4069 0.98387 0.32757 0.0
C2552 C 0.36551 0.97546 0.36605 0.0
C2553 C 0.37531 0.00116 0.40029 0.0
N2554 N 0.39424 0.9816 0.34061 0.0
N2555 N 0.38811 0.00368 0.38731 0.0
H2556 H 0.63747 0.00611 0.3611 0.0
H2557 H 0.54291 0.9659 0.28878 0.0
H2558 H 0.60114 0.94575 0.3397 0.0
H2559 H 0.58634 0.02611 0.29574 0.0
H2560 H 0.56406 0.95843 0.30765 0.0
H2561 H 0.61897 0.01404 0.33781 0.0
C2562 C 0.6257 0.99454 0.35142 0.0
C2563 C 0.62079 0.97521 0.35246 0.0
C2564 C 0.56904 0.97326 0.3049 0.0
C2565 C 0.59949 0.98418 0.32592 0.0
C2566 C 0.55699 0.97756 0.29393 0.0
C2567 C 0.56276 0.99671 0.29054 0.0
C2568 C 0.58699 0.98821 0.31286 0.0
C2569 C 0.58109 0.01118 0.29821 0.0
C2570 C 0.61517 0.99909 0.33811 0.0
C2571 C 0.60544 0.96084 0.33949 0.0
N2572 N 0.59248 0.00666 0.30914 0.0
N2573 N 0.59525 0.9656 0.32693 0.0
H2574 H 0.01647 0.65125 0.31192 0.0
H2575 H 0.0275 0.58459 0.2272 0.0
H2576 H 0.06474 0.67116 0.27874 0.0
H2577 H 0.98912 0.56098 0.27208 0.0
H2578 H 0.03925 0.61694 0.24401 0.0
H2579 H 0.00453 0.61838 0.29608 0.0
C2580 C 0.02464 0.64871 0.30146 0.0
C2581 C 0.04163 0.66404 0.29664 0.0
C2582 C 0.02824 0.60468 0.25018 0.0
C2583 C 0.02788 0.62655 0.27825 0.0
C2584 C 0.02153 0.58619 0.24059 0.0
C2585 C 0.00737 0.56998 0.24829 0.0
C2586 C 0.02068 0.60708 0.26753 0.0
C2587 C -0.00011 0.57303 0.26546 0.0
C2588 C 0.0178 0.62995 0.29241 0.0
C2589 C 0.0516 0.65985 0.28297 0.0
N2590 N 0.00666 0.59123 0.27452 0.0
N2591 N 0.0445 0.64155 0.27414 0.0
H2592 H 0.36089 0.41715 0.38428 0.0
H2593 H 0.40169 0.38176 0.29754 0.0
H2594 H 0.32907 0.36107 0.3498 0.0
H2595 H 0.41899 0.44186 0.31086 0.0
H2596 H 0.3781 0.37343 0.32132 0.0
H2597 H 0.38539 0.42624 0.36144 0.0
C2598 C 0.35903 0.40681 0.37189 0.0
C2599 C 0.3429 0.38838 0.36888 0.0
C2600 C 0.38711 0.38844 0.31905 0.0
C2601 C 0.37088 0.39849 0.34315 0.0
C2602 C 0.40059 0.39317 0.30563 0.0
C2603 C 0.41212 0.41247 0.30226 0.0
C2604 C 0.38544 0.40316 0.32937 0.0
C2605 C 0.41017 0.42678 0.31299 0.0
C2606 C 0.37296 0.412 0.35891 0.0
C2607 C 0.34119 0.3755 0.35262 0.0
N2608 N 0.39709 0.42186 0.32616 0.0
N2609 N 0.35508 0.38074 0.34048 0.0
H2610 H 0.32709 0.32289 0.39299 0.0
H2611 H 0.32287 0.22804 0.42676 0.0
H2612 H 0.27614 0.26981 0.39954 0.0
H2613 H 0.3725 0.28468 0.43586 0.0
H2614 H 0.30714 0.24073 0.40601 0.0
H2615 H 0.34482 0.30645 0.39792 0.0
C2616 C 0.31955 0.30767 0.39502 0.0
C2617 C 0.30013 0.29782 0.39637 0.0
C2618 C 0.32159 0.2503 0.41222 0.0
C2619 C 0.32038 0.27902 0.402 0.0
C2620 C 0.33055 0.24309 0.42406 0.0
C2621 C 0.34882 0.25548 0.43342 0.0
C2622 C 0.33094 0.27006 0.40982 0.0
C2623 C 0.35834 0.27471 0.42906 0.0
C2624 C 0.32972 0.29834 0.39788 0.0
C2625 C 0.29113 0.27808 0.39882 0.0
N2626 N 0.34915 0.28153 0.41786 0.0
N2627 N 0.30137 0.2694 0.40185 0.0
H2628 H 0.69666 0.03904 0.40946 0.0
H2629 H 0.77363 0.11715 0.4951 0.0
H2630 H 0.72165 0.025 0.45919 0.0
H2631 H 0.76522 0.13225 0.43625 0.0
H2632 H 0.7506 0.08346 0.48384 0.0
H2633 H 0.71818 0.07353 0.42053 0.0
C2634 C 0.70665 0.04317 0.42265 0.0
C2635 C 0.70738 0.02907 0.43336 0.0
C2636 C 0.75377 0.09415 0.47339 0.0
C2637 C 0.73171 0.06835 0.4462 0.0
C2638 C 0.76697 0.1134 0.47979 0.0
C2639 C 0.77163 0.12759 0.46654 0.0
C2640 C 0.74492 0.08893 0.45362 0.0
C2641 C 0.76204 0.12186 0.44704 0.0
C2642 C 0.71891 0.06283 0.42893 0.0
C2643 C 0.72061 0.03528 0.45035 0.0
N2644 N 0.74918 0.10294 0.44113 0.0
N2645 N 0.73214 0.0544 0.45628 0.0
H2646 H -0.00085 0.69156 0.37211 0.0
H2647 H 0.88831 0.63736 0.37623 0.0
H2648 H 0.9592 0.66681 0.31896 0.0
H2649 H 0.92908 0.65811 0.42852 0.0
H2650 H 0.91367 0.64604 0.35478 0.0
H2651 H 0.97335 0.67781 0.39284 0.0
C2652 C 0.98493 0.68318 0.36478 0.0
C2653 C 0.98132 0.68046 0.34376 0.0
C2654 C 0.91703 0.64854 0.37095 0.0
C2655 C 0.95162 0.66466 0.36748 0.0
C2656 C 0.90256 0.6435 0.38318 0.0
C2657 C 0.90664 0.64725 0.40417 0.0
C2658 C 0.93567 0.6574 0.37981 0.0
C2659 C 0.92535 0.65534 0.4124 0.0
C2660 C 0.97018 0.67527 0.37665 0.0
C2661 C 0.96262 0.66932 0.33512 0.0
N2662 N 0.93916 0.66027 0.40021 0.0
N2663 N 0.94843 0.66194 0.34703 0.0
H2664 H 0.37361 0.97842 0.68984 0.0
H2665 H 0.44532 0.02274 0.79017 0.0
H2666 H 0.38622 0.03103 0.72526 0.0
H2667 H 0.43156 0.9694 0.75554 0.0
H2668 H 0.42194 0.02477 0.76801 0.0
H2669 H 0.39291 0.97357 0.71516 0.0
C2670 C 0.38033 0.9889 0.703 0.0
C2671 C 0.3784 0.00524 0.70533 0.0
C2672 C 0.42391 0.01252 0.76536 0.0
C2673 C 0.40061 -0.00019 0.73438 0.0
C2674 C 0.43729 0.01139 0.77798 0.0
C2675 C 0.44048 0.99593 0.77466 0.0
C2676 C 0.41369 0.99816 0.74919 0.0
C2677 C 0.42948 0.98149 0.75879 0.0
C2678 C 0.39136 0.98612 0.71747 0.0
C2679 C 0.38738 0.01827 0.72276 0.0
N2680 N 0.4167 0.98305 0.74656 0.0
N2681 N 0.39819 0.01534 0.73653 0.0
H2682 H 0.98908 0.35802 0.76286 0.0
H2683 H 0.97309 0.4266 0.84047 0.0
H2684 H 0.939 0.33865 0.79287 0.0
H2685 H 0.01811 0.44815 0.80259 0.0
H2686 H 0.96131 0.39398 0.82435 0.0
H2687 H 0.00059 0.39095 0.778 0.0
C2688 C 0.98042 0.36068 0.77251 0.0
C2689 C 0.96304 0.34548 0.77664 0.0
C2690 C 0.97377 0.40584 0.81957 0.0
C2691 C 0.97629 0.38315 0.79419 0.0
C2692 C 0.9805 0.42448 0.82875 0.0
C2693 C 0.99659 0.44018 0.82284 0.0
C2694 C 0.98322 0.40278 0.80439 0.0
C2695 C 0.0058 0.43648 0.80782 0.0
C2696 C 0.98704 0.3795 0.78117 0.0
C2697 C 0.95247 0.34987 0.78923 0.0
N2698 N 0.99897 0.41816 0.79909 0.0
N2699 N 0.95931 0.36827 0.79766 0.0
H2700 H 0.63704 0.59472 0.68082 0.0
H2701 H 0.60903 0.62028 0.78505 0.0
H2702 H 0.67744 0.63782 0.72733 0.0
H2703 H 0.57545 0.56482 0.74995 0.0
H2704 H 0.63291 0.62913 0.76163 0.0
H2705 H 0.61293 0.58516 0.70404 0.0
C2706 C 0.64087 0.60207 0.69594 0.0
C2707 C 0.65926 0.61707 0.70216 0.0
C2708 C 0.6203 0.61503 0.75906 0.0
C2709 C 0.63177 0.60649 0.72855 0.0
C2710 C 0.60665 0.61006 0.77229 0.0
C2711 C 0.59034 0.59181 0.76938 0.0
C2712 C 0.61746 0.60173 0.74268 0.0
C2713 C 0.58795 0.57898 0.75275 0.0
C2714 C 0.62712 0.59662 0.70914 0.0
C2715 C 0.66346 0.62612 0.72191 0.0
N2716 N 0.60135 0.58421 0.73995 0.0
N2717 N 0.64977 0.62081 0.73434 0.0
H2718 H 0.67368 0.67768 0.67467 0.0
H2719 H 0.6731 0.77452 0.65808 0.0
H2720 H 0.72415 0.73287 0.67392 0.0
H2721 H 0.63151 0.71825 0.62848 0.0
H2722 H 0.68847 0.75956 0.67559 0.0
H2723 H 0.65507 0.69322 0.66971 0.0
C2724 C 0.68089 0.69314 0.67395 0.0
C2725 C 0.70051 0.70397 0.67435 0.0
C2726 C 0.67575 0.75053 0.66555 0.0
C2727 C 0.67927 0.72171 0.6689 0.0
C2728 C 0.66701 0.75902 0.65544 0.0
C2729 C 0.65123 0.74773 0.64128 0.0
C2730 C 0.66845 0.73059 0.66182 0.0
C2731 C 0.64362 0.72761 0.63915 0.0
C2732 C 0.67024 0.70194 0.67106 0.0
C2733 C 0.70906 0.72395 0.67337 0.0
N2734 N 0.65243 0.71972 0.64912 0.0
N2735 N 0.69836 0.73218 0.67051 0.0
H2736 H 0.30656 0.96672 0.67282 0.0
H2737 H 0.24185 0.88118 0.58697 0.0
H2738 H 0.28972 0.9764 0.61454 0.0
H2739 H 0.23142 0.87518 0.64903 0.0
H2740 H 0.26631 0.91505 0.59665 0.0
H2741 H 0.28511 0.93171 0.66404 0.0
C2742 C 0.29842 0.96148 0.65821 0.0
C2743 C 0.29974 0.97443 0.64445 0.0
C2744 C 0.25879 0.90622 0.60815 0.0
C2745 C 0.27581 0.93474 0.63423 0.0
C2746 C 0.24499 0.88694 0.60267 0.0
C2747 C 0.23468 0.87553 0.61726 0.0
C2748 C 0.2625 0.91396 0.62838 0.0
C2749 C 0.23908 0.88365 0.63739 0.0
C2750 C 0.28623 0.9416 0.65325 0.0
C2751 C 0.28894 0.96693 0.62569 0.0
N2752 N 0.25273 0.90243 0.64241 0.0
N2753 N 0.27754 0.94758 0.62107 0.0
H2754 H 0.01218 0.3292 0.70834 0.0
H2755 H 0.11434 0.34593 0.69822 0.0
H2756 H 0.04337 0.31801 0.7542 0.0
H2757 H 0.0884 0.36862 0.65933 0.0
H2758 H 0.08871 0.33618 0.71933 0.0
H2759 H 0.04002 0.34407 0.69034 0.0
C2760 C 0.0249 0.32993 0.71466 0.0
C2761 C 0.02541 0.32222 0.73273 0.0
C2762 C 0.08871 0.34349 0.70632 0.0
C2763 C 0.05729 0.33918 0.71218 0.0
C2764 C 0.1033 0.34901 0.69427 0.0
C2765 C 0.10339 0.35799 0.677 0.0
C2766 C 0.07394 0.34672 0.7009 0.0
C2767 C 0.08887 0.36181 0.6726 0.0
C2768 C 0.04081 0.33849 0.70441 0.0
C2769 C 0.04231 0.32369 0.74028 0.0
N2770 N 0.07459 0.35594 0.68434 0.0
N2771 N 0.05752 0.33185 0.72988 0.0
H2772 H 0.30951 0.34511 0.69132 0.0
H2773 H 0.20996 0.31572 0.63392 0.0
H2774 H 0.26086 0.28777 0.6861 0.0
H2775 H 0.25953 0.37155 0.6327 0.0
H2776 H 0.22894 0.30509 0.65189 0.0
H2777 H 0.29206 0.35497 0.66899 0.0
C2778 C 0.29522 0.33455 0.68538 0.0
C2779 C 0.28661 0.3156 0.69072 0.0
C2780 C 0.23574 0.31963 0.64757 0.0
C2781 C 0.26654 0.32683 0.66523 0.0
C2782 C 0.22491 0.32569 0.63711 0.0
C2783 C 0.23312 0.34459 0.63165 0.0
C2784 C 0.25499 0.33255 0.65286 0.0
C2785 C 0.25252 0.35694 0.63678 0.0
C2786 C 0.28526 0.3402 0.67263 0.0
C2787 C 0.26807 0.30255 0.68251 0.0
N2788 N 0.26277 0.35073 0.64718 0.0
N2789 N 0.25864 0.30843 0.67031 0.0
H2790 H 0.71677 0.98714 0.60178 0.0
H2791 H 0.63585 0.87976 0.61023 0.0
H2792 H 0.67171 0.97568 0.63805 0.0
H2793 H 0.66699 0.89741 0.55876 0.0
H2794 H 0.65011 0.91386 0.62341 0.0
H2795 H 0.70088 0.95302 0.58958 0.0
C2796 C 0.70361 0.97745 0.60736 0.0
C2797 C 0.69553 0.98437 0.62091 0.0
C2798 C 0.65366 0.91018 0.60917 0.0
C2799 C 0.67718 0.94513 0.6068 0.0
C2800 C 0.64544 0.89076 0.60155 0.0
C2801 C 0.65038 0.88568 0.58343 0.0
C2802 C 0.66703 0.92451 0.59871 0.0
C2803 C 0.66309 0.90058 0.57299 0.0
C2804 C 0.69447 0.95795 0.60023 0.0
C2805 C 0.67841 0.97099 0.62755 0.0
N2806 N 0.6711 0.91927 0.58087 0.0
N2807 N 0.66978 0.95195 0.62042 0.0
H2808 H 0.02372 0.73992 0.72578 0.0
H2809 H 0.07289 0.71236 0.64148 0.0
H2810 H 0.99499 0.6868 0.6859 0.0
H2811 H 0.09139 0.77132 0.66355 0.0
H2812 H 0.04698 0.70138 0.66258 0.0
H2813 H 0.05129 0.75056 0.7073 0.0
C2814 C 0.0232 0.73053 0.71313 0.0
C2815 C 0.00702 0.71252 0.70727 0.0
C2816 C 0.0568 0.71671 0.66289 0.0
C2817 C 0.03849 0.7244 0.68642 0.0
C2818 C 0.07161 0.72293 0.65102 0.0
C2819 C 0.08412 0.74272 0.65079 0.0
C2820 C 0.05472 0.73041 0.67475 0.0
C2821 C 0.08187 0.75592 0.66325 0.0
C2822 C 0.03891 0.7366 0.70263 0.0
C2823 C 0.00711 0.70088 0.69082 0.0
N2824 N 0.06742 0.74953 0.67475 0.0
N2825 N 0.02264 0.70698 0.68103 0.0
H2826 H 0.9252 0.59214 0.73172 0.0
H2827 H 0.02071 0.60013 0.76925 0.0
H2828 H 0.9793 0.64055 0.72346 0.0
H2829 H 0.96676 0.5485 0.76903 0.0
H2830 H 0.00632 0.61257 0.7462 0.0
H2831 H 0.94014 0.57337 0.7388 0.0
C2832 C 0.94017 0.59872 0.73101 0.0
C2833 C 0.95107 0.61813 0.72756 0.0
C2834 C 0.99768 0.59834 0.75087 0.0
C2835 C 0.96833 0.59682 0.73599 0.0
C2836 C 0.00592 0.59122 0.76397 0.0
C2837 C 0.99479 0.57351 0.77146 0.0
C2838 C 0.97818 0.58773 0.74543 0.0
C2839 C 0.97572 0.56252 0.7641 0.0
C2840 C 0.94872 0.58798 0.73506 0.0
C2841 C 0.97036 0.62575 0.72645 0.0
N2842 N 0.96794 0.56997 0.75179 0.0
N2843 N 0.97844 0.61522 0.73112 0.0
H2844 H 0.35967 0.38033 0.7558 0.0
H2845 H 0.46709 0.4608 0.78867 0.0
H2846 H 0.40524 0.36886 0.76127 0.0
H2847 H 0.42133 0.46924 0.80231 0.0
H2848 H 0.44457 0.4289 0.7717 0.0
H2849 H 0.38221 0.41477 0.76594 0.0
C2850 C 0.37443 0.3851 0.75878 0.0
C2851 C 0.3806 0.37172 0.75788 0.0
C2852 C 0.43943 0.43773 0.77834 0.0
C2853 C 0.4063 0.41088 0.76937 0.0
C2854 C 0.45227 0.45591 0.78815 0.0
C2855 C 0.44606 0.46752 0.79738 0.0
C2856 C 0.42016 0.43104 0.77759 0.0
C2857 C 0.42671 0.4607 0.79553 0.0
C2858 C 0.38723 0.40469 0.76468 0.0
C2859 C 0.39985 0.37864 0.76199 0.0
N2860 N 0.41439 0.44278 0.78599 0.0
N2861 N 0.41198 0.3977 0.76761 0.0
H2862 H 0.66991 0.03269 0.69972 0.0
H2863 H 0.5623 0.98805 0.71879 0.0
H2864 H 0.62391 0.00291 0.65257 0.0
H2865 H 0.60845 0.0152 0.76595 0.0
H2866 H 0.58445 0.99246 0.69437 0.0
H2867 H 0.64744 0.02568 0.72424 0.0
C2868 C 0.65507 0.02463 0.69451 0.0
C2869 C 0.64878 0.01845 0.67403 0.0
C2870 C 0.58972 0.9974 0.71007 0.0
C2871 C 0.62294 0.0104 0.70209 0.0
C2872 C 0.57707 0.99479 0.72403 0.0
C2873 C 0.58354 0.00135 0.74443 0.0
C2874 C 0.60898 0.00663 0.71655 0.0
C2875 C 0.60287 0.01021 0.75033 0.0
C2876 C 0.64223 0.02061 0.70855 0.0
C2877 C 0.62938 0.00799 0.6682 0.0
N2878 N 0.6149 0.01264 0.73645 0.0
N2879 N 0.61714 0.00436 0.68216 0.0
loop_
_geom_bond_atom_site_label_1
_geom_bond_atom_site_label_2
_geom_bond_distance
_geom_bond_site_symmetry_2
_ccdc_geom_bond_type
Mg0 O1 2.028 . S
Mg0 O7 1.986 1_455 S
Mg0 O9 2.114 . S
Mg0 O10 2.251 1_554 S
Mg0 O13 2.010 . S
O1 Mg0 2.028 . S
O1 C4 1.250 1_455 S
O2 Mg3 2.028 . S
O2 C4 1.248 . S
Mg3 O2 2.028 . S
Mg3 O8 2.032 . S
Mg3 O10 2.079 1_654 S
C4 O1 1.250 1_655 S
C4 O2 1.248 . S
C5 O6 1.264 . S
C5 O13 1.249 . S
O6 C5 1.264 . S
O7 Mg0 1.986 1_655 S
O7 C11 1.246 . S
O8 Mg3 2.032 . S
O8 C11 1.259 . S
O9 Mg0 2.114 . S
O9 C12 1.252 1_554 S
O10 Mg0 2.251 1_556 S
O10 Mg3 2.079 1_456 S
O10 C12 1.273 . S
C11 O7 1.246 . S
C11 O8 1.259 . S
C12 O9 1.252 1_556 S
C12 O10 1.273 . S
O13 Mg0 2.010 . S
O13 C5 1.249 . S
Mg14 O15 2.028 . S
Mg14 O21 1.986 . S
Mg14 O23 2.114 . S
Mg14 O24 2.251 . S
Mg14 O27 2.010 . S
O15 Mg14 2.028 . S
O15 C18 1.250 . S
O16 Mg17 2.028 . S
O16 C18 1.248 . S
Mg17 O16 2.028 . S
Mg17 O22 2.032 . S
Mg17 O24 2.079 . S
C18 O15 1.250 . S
C18 O16 1.248 . S
C19 O20 1.264 . S
C19 O27 1.249 . S
O20 C19 1.264 . S
O21 Mg14 1.986 . S
O21 C25 1.246 . S
O22 Mg17 2.032 . S
O22 C25 1.259 . S
O23 Mg14 2.114 . S
O23 C26 1.252 . S
O24 Mg14 2.251 . S
O24 Mg17 2.079 . S
O24 C26 1.273 . S
C25 O21 1.246 . S
C25 O22 1.259 . S
C26 O23 1.252 . S
C26 O24 1.273 . S
O27 Mg14 2.010 . S
O27 C19 1.249 . S
Mg28 O29 2.028 1_565 S
Mg28 O35 1.986 1_565 S
Mg28 O37 2.114 . S
Mg28 O38 2.251 1_564 S
Mg28 O41 2.010 . S
O29 Mg28 2.028 1_545 S
O29 C32 1.250 . S
O30 Mg31 2.028 . S
O30 C32 1.248 . S
Mg31 O30 2.028 . S
Mg31 O36 2.032 . S
Mg31 O38 2.079 1_554 S
C32 O29 1.250 . S
C32 O30 1.248 . S
C33 O34 1.264 . S
C33 O41 1.249 . S
O34 C33 1.264 . S
O35 Mg28 1.986 1_545 S
O35 C39 1.246 . S
O36 Mg31 2.032 . S
O36 C39 1.259 . S
O37 Mg28 2.114 . S
O37 C40 1.252 1_554 S
O38 Mg28 2.251 1_546 S
O38 Mg31 2.079 1_556 S
O38 C40 1.273 1_545 S
C39 O35 1.246 . S
C39 O36 1.259 . S
C40 O37 1.252 1_556 S
C40 O38 1.273 1_565 S
O41 Mg28 2.010 . S
O41 C33 1.249 . S
Mg42 O43 2.017 1_655 S
Mg42 O49 1.986 1_655 S
Mg42 O51 2.114 . S
Mg42 O52 2.251 1_655 S
Mg42 O55 2.010 . S
O43 Mg42 2.017 1_455 S
O43 C46 1.276 . S
O44 Mg45 2.028 . S
O44 C46 1.248 . S
Mg45 O44 2.028 . S
Mg45 O50 2.032 . S
Mg45 O52 2.079 . S
C46 O43 1.276 . S
C46 O44 1.248 . S
C47 O48 1.264 . S
C47 O55 1.249 . S
O48 C47 1.264 . S
O49 Mg42 1.986 1_455 S
O49 C53 1.246 . S
O50 Mg45 2.032 . S
O50 C53 1.259 . S
O51 Mg42 2.114 . S
O51 C54 1.252 . S
O52 Mg42 2.251 1_455 S
O52 Mg45 2.079 . S
O52 C54 1.273 1_455 S
C53 O49 1.246 . S
C53 O50 1.259 . S
C54 O51 1.252 . S
C54 O52 1.273 1_655 S
O55 Mg42 2.010 . S
O55 C47 1.249 . S
Mg56 O57 1.992 1_556 S
Mg56 O63 1.989 . S
Mg56 O65 2.128 . S
Mg56 O66 2.279 . S
Mg56 O69 1.991 1_556 S
O57 Mg56 1.992 1_554 S
O57 C60 1.250 . S
O58 Mg59 2.028 1_554 S
O58 C60 1.248 . S
Mg59 O58 2.028 1_556 S
Mg59 O64 2.032 . S
Mg59 O66 2.079 . S
C60 O57 1.250 . S
C60 O58 1.248 . S
C61 O62 1.264 . S
C61 O69 1.249 . S
O62 C61 1.264 . S
O63 Mg56 1.989 . S
O63 C67 1.246 . S
O64 Mg59 2.032 . S
O64 C67 1.259 . S
O65 Mg56 2.128 . S
O65 C68 1.252 . S
O66 Mg56 2.279 . S
O66 Mg59 2.079 . S
O66 C68 1.273 . S
C67 O63 1.246 . S
C67 O64 1.259 . S
C68 O65 1.252 . S
C68 O66 1.273 . S
O69 Mg56 1.991 1_554 S
O69 C61 1.249 . S
Mg70 O71 2.028 . S
Mg70 O77 1.986 1_545 S
Mg70 O79 2.114 . S
Mg70 O80 2.251 . S
Mg70 O83 2.010 . S
O71 Mg70 2.028 . S
O71 C74 1.250 . S
O72 Mg73 2.028 . S
O72 C74 1.248 1_565 S
Mg73 O72 2.028 . S
Mg73 O78 2.032 . S
Mg73 O80 2.079 1_565 S
C74 O71 1.250 . S
C74 O72 1.248 1_545 S
C75 O76 1.264 . S
C75 O83 1.249 . S
O76 C75 1.264 . S
O77 Mg70 1.986 1_565 S
O77 C81 1.246 . S
O78 Mg73 2.032 . S
O78 C81 1.259 . S
O79 Mg70 2.114 . S
O79 C82 1.252 . S
O80 Mg70 2.251 . S
O80 Mg73 2.079 1_545 S
O80 C82 1.273 . S
C81 O77 1.246 . S
C81 O78 1.259 . S
C82 O79 1.252 . S
C82 O80 1.273 . S
O83 Mg70 2.010 . S
O83 C75 1.249 . S
Mg84 O85 2.028 . S
Mg84 O91 1.986 . S
Mg84 O93 2.114 . S
Mg84 O94 2.251 . S
Mg84 O97 2.010 . S
O85 Mg84 2.028 . S
O85 C88 1.250 . S
O86 Mg87 2.028 . S
O86 C88 1.248 . S
Mg87 O86 2.028 . S
Mg87 O92 2.032 . S
Mg87 O94 2.079 . S
C88 O85 1.250 . S
C88 O86 1.248 . S
C89 O90 1.264 . S
C89 O97 1.249 . S
O90 C89 1.264 . S
O91 Mg84 1.986 . S
O91 C95 1.246 . S
O92 Mg87 2.032 . S
O92 C95 1.259 . S
O93 Mg84 2.114 . S
O93 C96 1.252 . S
O94 Mg84 2.251 . S
O94 Mg87 2.079 . S
O94 C96 1.273 . S
C95 O91 1.246 . S
C95 O92 1.259 . S
C96 O93 1.252 . S
C96 O94 1.273 . S
O97 Mg84 2.010 . S
O97 C89 1.249 . S
Mg98 O99 2.028 . S
Mg98 O105 1.986 . S
Mg98 O107 2.114 . S
Mg98 O108 2.251 . S
Mg98 O111 2.010 . S
O99 Mg98 2.028 . S
O99 C102 1.250 . S
O100 Mg101 2.028 . S
O100 C102 1.248 . S
Mg101 O100 2.028 . S
Mg101 O106 2.032 . S
Mg101 O108 2.079 . S
C102 O99 1.250 . S
C102 O100 1.248 . S
C103 O104 1.264 . S
C103 O111 1.249 . S
O104 C103 1.264 . S
O105 Mg98 1.986 . S
O105 C109 1.246 1_565 S
O106 Mg101 2.032 . S
O106 C109 1.259 1_565 S
O107 Mg98 2.114 . S
O107 C110 1.252 . S
O108 Mg98 2.251 . S
O108 Mg101 2.079 . S
O108 C110 1.273 . S
C109 O105 1.246 1_545 S
C109 O106 1.259 1_545 S
C110 O107 1.252 . S
C110 O108 1.273 . S
O111 Mg98 2.010 . S
O111 C103 1.249 . S
Mg112 O113 2.028 . S
Mg112 O119 1.986 . S
Mg112 O121 2.114 . S
Mg112 O122 2.251 . S
Mg112 O125 2.010 . S
O113 Mg112 2.028 . S
O113 C116 1.250 . S
O114 Mg115 2.028 . S
O114 C116 1.248 . S
Mg115 O114 2.028 . S
Mg115 O120 2.032 . S
Mg115 O122 2.079 . S
C116 O113 1.250 . S
C116 O114 1.248 . S
C117 O118 1.264 . S
C117 O125 1.249 1_655 S
O118 C117 1.264 . S
O119 Mg112 1.986 . S
O119 C123 1.246 . S
O120 Mg115 2.032 . S
O120 C123 1.259 . S
O121 Mg112 2.114 . S
O121 C124 1.252 . S
O122 Mg112 2.251 . S
O122 Mg115 2.079 . S
O122 C124 1.273 . S
C123 O119 1.246 . S
C123 O120 1.259 . S
C124 O121 1.252 . S
C124 O122 1.273 . S
O125 Mg112 2.010 . S
O125 C117 1.249 1_455 S
Mg126 O127 2.028 . S
Mg126 O133 1.986 . S
Mg126 O135 2.114 . S
Mg126 O136 2.251 . S
Mg126 O139 2.010 . S
O127 Mg126 2.028 . S
O127 C130 1.250 . S
O128 Mg129 2.028 . S
O128 C130 1.248 . S
Mg129 O128 2.028 . S
Mg129 O134 2.032 . S
Mg129 O136 2.079 . S
C130 O127 1.250 . S
C130 O128 1.248 . S
C131 O132 1.264 . S
C131 O139 1.249 . S
O132 C131 1.264 . S
O133 Mg126 1.986 . S
O133 C137 1.246 1_565 S
O134 Mg129 2.032 . S
O134 C137 1.258 1_565 S
O135 Mg126 2.114 . S
O135 C138 1.252 . S
O136 Mg126 2.251 . S
O136 Mg129 2.079 . S
O136 C138 1.273 . S
C137 O133 1.246 1_545 S
C137 O134 1.258 1_545 S
C138 O135 1.252 . S
C138 O136 1.273 . S
O139 Mg126 2.010 . S
O139 C131 1.249 . S
Mg140 O141 2.028 . S
Mg140 O147 1.986 . S
Mg140 O149 2.114 . S
Mg140 O150 2.251 . S
Mg140 O153 2.010 . S
O141 Mg140 2.028 . S
O141 C144 1.250 . S
O142 Mg143 2.028 . S
O142 C144 1.248 . S
Mg143 O142 2.028 . S
Mg143 O148 2.032 . S
Mg143 O150 2.079 . S
C144 O141 1.250 . S
C144 O142 1.248 . S
C145 O146 1.264 . S
C145 O153 1.249 1_655 S
O146 C145 1.264 . S
O147 Mg140 1.986 . S
O147 C151 1.246 . S
O148 Mg143 2.032 . S
O148 C151 1.259 . S
O149 Mg140 2.114 . S
O149 C152 1.252 . S
O150 Mg140 2.251 . S
O150 Mg143 2.079 . S
O150 C152 1.273 . S
C151 O147 1.246 . S
C151 O148 1.259 . S
C152 O149 1.252 . S
C152 O150 1.273 . S
O153 Mg140 2.010 . S
O153 C145 1.249 1_455 S
Mg154 O155 2.028 . S
Mg154 O161 1.986 . S
Mg154 O163 2.114 . S
Mg154 O164 2.251 . S
Mg154 O167 2.010 . S
O155 Mg154 2.028 . S
O155 C158 1.250 . S
O156 Mg157 2.028 . S
O156 C158 1.248 . S
Mg157 O156 2.028 . S
Mg157 O162 2.032 . S
Mg157 O164 2.079 . S
C158 O155 1.250 . S
C158 O156 1.248 . S
C159 O160 1.264 . S
C159 O167 1.249 . S
O160 C159 1.264 . S
O161 Mg154 1.986 . S
O161 C165 1.246 . S
O162 Mg157 2.032 . S
O162 C165 1.259 . S
O163 Mg154 2.114 . S
O163 C166 1.252 . S
O164 Mg154 2.251 . S
O164 Mg157 2.079 . S
O164 C166 1.273 . S
C165 O161 1.246 . S
C165 O162 1.259 . S
C166 O163 1.252 . S
C166 O164 1.273 . S
O167 Mg154 2.010 . S
O167 C159 1.249 . S
Mg168 O169 2.028 . S
Mg168 O175 1.986 . S
Mg168 O177 2.114 . S
Mg168 O178 2.251 . S
Mg168 O181 2.010 . S
O169 Mg168 2.028 . S
O169 C172 1.250 . S
O170 Mg171 2.028 . S
O170 C172 1.248 . S
Mg171 O170 2.028 . S
Mg171 O176 2.032 . S
Mg171 O178 2.079 . S
C172 O169 1.250 . S
C172 O170 1.248 . S
C173 O174 1.264 . S
C173 O181 1.249 . S
O174 C173 1.264 . S
O175 Mg168 1.986 . S
O175 C179 1.246 . S
O176 Mg171 2.032 . S
O176 C179 1.259 . S
O177 Mg168 2.114 . S
O177 C180 1.252 . S
O178 Mg168 2.251 . S
O178 Mg171 2.079 . S
O178 C180 1.273 . S
C179 O175 1.246 . S
C179 O176 1.259 . S
C180 O177 1.252 . S
C180 O178 1.273 . S
O181 Mg168 2.010 . S
O181 C173 1.249 . S
Mg182 O183 2.028 . S
Mg182 O189 1.986 . S
Mg182 O191 2.114 . S
Mg182 O192 2.251 . S
Mg182 O195 2.010 . S
O183 Mg182 2.028 . S
O183 C186 1.250 . S
O184 Mg185 2.028 . S
O184 C186 1.248 . S
Mg185 O184 2.028 . S
Mg185 O190 2.032 . S
Mg185 O192 2.079 . S
C186 O183 1.250 . S
C186 O184 1.248 . S
C187 O188 1.264 . S
C187 O195 1.249 1_455 S
O188 C187 1.264 . S
O189 Mg182 1.986 . S
O189 C193 1.246 . S
O190 Mg185 2.032 . S
O190 C193 1.259 . S
O191 Mg182 2.114 . S
O191 C194 1.252 . S
O192 Mg182 2.251 . S
O192 Mg185 2.079 . S
O192 C194 1.273 . S
C193 O189 1.246 . S
C193 O190 1.259 . S
C194 O191 1.252 . S
C194 O192 1.273 . S
O195 Mg182 2.010 . S
O195 C187 1.249 1_655 S
Mg196 O197 2.028 . S
Mg196 O203 1.986 . S
Mg196 O205 2.114 . S
Mg196 O206 2.251 . S
Mg196 O209 2.010 . S
O197 Mg196 2.028 . S
O197 C200 1.250 . S
O198 Mg199 2.028 . S
O198 C200 1.248 . S
Mg199 O198 2.028 . S
Mg199 O204 2.032 . S
Mg199 O206 2.079 . S
C200 O197 1.250 . S
C200 O198 1.248 . S
C201 O202 1.264 . S
C201 O209 1.249 . S
O202 C201 1.264 . S
O203 Mg196 1.986 . S
O203 C207 1.246 . S
O204 Mg199 2.032 . S
O204 C207 1.259 . S
O205 Mg196 2.114 . S
O205 C208 1.252 . S
O206 Mg196 2.251 . S
O206 Mg199 2.079 . S
O206 C208 1.273 . S
C207 O203 1.246 . S
C207 O204 1.259 . S
C208 O205 1.252 . S
C208 O206 1.273 . S
O209 Mg196 2.010 . S
O209 C201 1.249 . S
Mg210 O211 2.028 . S
Mg210 O217 1.986 . S
Mg210 O219 2.114 . S
Mg210 O220 2.251 . S
Mg210 O223 2.010 . S
O211 Mg210 2.028 . S
O211 C214 1.250 . S
O212 Mg213 2.028 . S
O212 C214 1.248 . S
Mg213 O212 2.028 . S
Mg213 O218 2.032 . S
Mg213 O220 2.079 . S
C214 O211 1.250 . S
C214 O212 1.248 . S
C215 O216 1.264 . S
C215 O223 1.249 . S
O216 C215 1.264 . S
O217 Mg210 1.986 . S
O217 C221 1.246 . S
O218 Mg213 2.032 . S
O218 C221 1.259 . S
O219 Mg210 2.114 . S
O219 C222 1.252 . S
O220 Mg210 2.251 . S
O220 Mg213 2.079 . S
O220 C222 1.273 . S
C221 O217 1.246 . S
C221 O218 1.259 . S
C222 O219 1.252 . S
C222 O220 1.273 . S
O223 Mg210 2.010 . S
O223 C215 1.249 . S
Mg224 O225 2.028 . S
Mg224 O231 1.986 . S
Mg224 O233 2.114 . S
Mg224 O234 2.251 . S
Mg224 O237 2.010 . S
O225 Mg224 2.028 . S
O225 C228 1.250 . S
O226 Mg227 2.028 . S
O226 C228 1.248 . S
Mg227 O226 2.028 . S
Mg227 O232 2.032 . S
Mg227 O234 2.079 . S
C228 O225 1.250 . S
C228 O226 1.248 . S
C229 O230 1.264 . S
C229 O237 1.249 . S
O230 C229 1.264 . S
O231 Mg224 1.986 . S
O231 C235 1.246 . S
O232 Mg227 2.032 . S
O232 C235 1.259 . S
O233 Mg224 2.114 . S
O233 C236 1.252 . S
O234 Mg224 2.251 . S
O234 Mg227 2.079 . S
O234 C236 1.273 . S
C235 O231 1.246 . S
C235 O232 1.259 . S
C236 O233 1.252 . S
C236 O234 1.273 . S
O237 Mg224 2.010 . S
O237 C229 1.249 . S
Mg238 O239 2.028 . S
Mg238 O245 1.986 . S
Mg238 O247 2.114 . S
Mg238 O248 2.251 . S
Mg238 O251 2.010 . S
O239 Mg238 2.028 . S
O239 C242 1.250 . S
O240 Mg241 2.028 . S
O240 C242 1.248 . S
Mg241 O240 2.028 . S
Mg241 O246 2.032 . S
Mg241 O248 2.079 . S
C242 O239 1.250 . S
C242 O240 1.248 . S
C243 O244 1.264 . S
C243 O251 1.249 1_455 S
O244 C243 1.264 . S
O245 Mg238 1.986 . S
O245 C249 1.246 . S
O246 Mg241 2.032 . S
O246 C249 1.259 . S
O247 Mg238 2.114 . S
O247 C250 1.252 . S
O248 Mg238 2.251 . S
O248 Mg241 2.079 . S
O248 C250 1.273 . S
C249 O245 1.246 . S
C249 O246 1.259 . S
C250 O247 1.252 . S
C250 O248 1.273 . S
O251 Mg238 2.010 . S
O251 C243 1.249 1_655 S
H252 O278 0.856 . S
H253 O281 0.854 . S
H254 C289 0.930 . S
H255 C290 0.930 . S
H256 C292 0.930 . S
H257 C293 0.930 . S
H258 C295 0.931 . S
H259 C296 0.930 . S
H260 C298 0.930 . S
H261 C299 0.929 . S
H262 C301 0.930 . S
H263 C302 0.931 . S
H264 C304 0.930 . S
H265 C305 0.929 . S
H266 C307 0.931 . S
H267 C308 0.930 . S
H268 C310 0.930 . S
H269 C311 0.932 . S
H270 C313 0.930 . S
H271 C314 0.929 . S
H272 C316 0.931 . S
H273 C317 0.930 . S
H274 C319 0.929 . S
H275 C320 0.931 . S
H276 C322 0.930 . S
H277 C323 0.929 . S
O278 H252 0.856 . S
O278 C324 1.300 . S
O279 C324 1.209 . S
O280 C325 1.199 . S
O281 H253 0.854 . S
O281 C325 1.297 . S
C282 C283 1.404 . S
C282 C287 1.397 . S
C282 C288 1.492 . S
C283 C282 1.404 . S
C283 C284 1.396 . S
C283 C294 1.492 . S
C284 C283 1.396 . S
C284 C285 1.397 . S
C284 C300 1.509 . S
C285 C284 1.397 . S
C285 C286 1.412 . S
C285 C306 1.485 . S
C286 C285 1.412 . S
C286 C287 1.388 . S
C286 C312 1.490 . S
C287 C282 1.397 . S
C287 C286 1.388 . S
C287 C318 1.519 . S
C288 C282 1.492 . S
C288 C289 1.363 . S
C288 C293 1.390 . S
C289 H254 0.930 . S
C289 C288 1.363 . S
C289 C290 1.372 . S
C290 H255 0.930 . S
C290 C289 1.372 . S
C290 C291 1.383 . S
C291 C290 1.383 . S
C291 C292 1.395 . S
C292 H256 0.930 . S
C292 C291 1.395 . S
C292 C293 1.362 . S
C293 H257 0.930 . S
C293 C288 1.390 . S
C293 C292 1.362 . S
C294 C283 1.492 . S
C294 C295 1.377 . S
C294 C299 1.397 . S
C295 H258 0.931 . S
C295 C294 1.377 . S
C295 C296 1.376 . S
C296 H259 0.930 . S
C296 C295 1.376 . S
C296 C297 1.376 . S
C297 C296 1.376 . S
C297 C298 1.378 . S
C297 C324 1.486 . S
C298 H260 0.930 . S
C298 C297 1.378 . S
C298 C299 1.376 . S
C299 H261 0.929 . S
C299 C294 1.397 . S
C299 C298 1.376 . S
C300 C284 1.509 . S
C300 C301 1.391 . S
C300 C305 1.386 . S
C301 H262 0.930 . S
C301 C300 1.391 . S
C301 C302 1.375 . S
C302 H263 0.931 . S
C302 C301 1.375 . S
C302 C303 1.375 . S
C303 C302 1.375 . S
C303 C304 1.361 . S
C304 H264 0.930 . S
C304 C303 1.361 . S
C304 C305 1.399 . S
C305 H265 0.929 . S
C305 C300 1.386 . S
C305 C304 1.399 . S
C306 C285 1.485 . S
C306 C307 1.394 . S
C306 C311 1.360 . S
C307 H266 0.931 . S
C307 C306 1.394 . S
C307 C308 1.372 . S
C308 H267 0.930 . S
C308 C307 1.372 . S
C308 C309 1.397 . S
C309 C308 1.397 . S
C309 C310 1.390 . S
C309 C325 1.476 . S
C310 H268 0.930 . S
C310 C309 1.390 . S
C310 C311 1.366 . S
C311 H269 0.932 . S
C311 C306 1.360 . S
C311 C310 1.366 . S
C312 C286 1.490 . S
C312 C313 1.380 . S
C312 C317 1.386 . S
C313 H270 0.930 . S
C313 C312 1.380 . S
C313 C314 1.381 . S
C314 H271 0.929 . S
C314 C313 1.381 . S
C314 C315 1.371 . S
C315 C314 1.371 . S
C315 C316 1.380 . S
C316 H272 0.931 . S
C316 C315 1.380 . S
C316 C317 1.387 . S
C317 H273 0.930 . S
C317 C312 1.386 . S
C317 C316 1.387 . S
C318 C287 1.519 . S
C318 C319 1.377 . S
C318 C323 1.361 . S
C319 H274 0.929 . S
C319 C318 1.377 . S
C319 C320 1.386 . S
C320 H275 0.931 . S
C320 C319 1.386 . S
C320 C321 1.363 . S
C321 C320 1.363 . S
C321 C322 1.385 . S
C322 H276 0.930 . S
C322 C321 1.385 . S
C322 C323 1.396 . S
C323 H277 0.929 . S
C323 C318 1.361 . S
C323 C322 1.396 . S
C324 O278 1.300 . S
C324 O279 1.209 . S
C324 C297 1.486 . S
C325 O280 1.199 . S
C325 O281 1.297 . S
C325 C309 1.476 . S
H326 O352 0.856 . S
H327 O355 0.854 . S
H328 C363 0.930 . S
H329 C364 0.930 . S
H330 C366 0.930 . S
H331 C367 0.930 . S
H332 C369 0.931 . S
H333 C370 0.930 . S
H334 C372 0.930 . S
H335 C373 0.929 . S
H336 C375 0.930 . S
H337 C376 0.931 . S
H338 C378 0.930 . S
H339 C379 0.929 . S
H340 C381 0.931 . S
H341 C382 0.930 . S
H342 C384 0.930 . S
H343 C385 0.932 . S
H344 C387 0.930 . S
H345 C388 0.929 . S
H346 C390 0.931 . S
H347 C391 0.930 . S
H348 C393 0.929 . S
H349 C394 0.931 . S
H350 C396 0.930 . S
H351 C397 0.929 . S
O352 H326 0.856 . S
O352 C398 1.300 . S
O353 C398 1.209 . S
O354 C399 1.199 . S
O355 H327 0.854 . S
O355 C399 1.297 . S
C356 C357 1.404 . S
C356 C361 1.397 . S
C356 C362 1.492 . S
C357 C356 1.404 . S
C357 C358 1.396 . S
C357 C368 1.492 . S
C358 C357 1.396 . S
C358 C359 1.397 . S
C358 C374 1.509 . S
C359 C358 1.397 . S
C359 C360 1.412 . S
C359 C380 1.485 . S
C360 C359 1.412 . S
C360 C361 1.388 . S
C360 C386 1.490 . S
C361 C356 1.397 . S
C361 C360 1.388 . S
C361 C392 1.519 . S
C362 C356 1.492 . S
C362 C363 1.363 . S
C362 C367 1.390 . S
C363 H328 0.930 . S
C363 C362 1.363 . S
C363 C364 1.372 . S
C364 H329 0.930 . S
C364 C363 1.372 . S
C364 C365 1.383 . S
C365 C364 1.383 . S
C365 C366 1.395 . S
C366 H330 0.930 . S
C366 C365 1.395 . S
C366 C367 1.362 . S
C367 H331 0.930 . S
C367 C362 1.390 . S
C367 C366 1.362 . S
C368 C357 1.492 . S
C368 C369 1.377 . S
C368 C373 1.397 . S
C369 H332 0.931 . S
C369 C368 1.377 . S
C369 C370 1.376 . S
C370 H333 0.930 . S
C370 C369 1.376 . S
C370 C371 1.376 . S
C371 C370 1.376 . S
C371 C372 1.378 . S
C371 C398 1.486 . S
C372 H334 0.930 . S
C372 C371 1.378 . S
C372 C373 1.376 . S
C373 H335 0.929 . S
C373 C368 1.397 . S
C373 C372 1.376 . S
C374 C358 1.509 . S
C374 C375 1.391 . S
C374 C379 1.386 . S
C375 H336 0.930 . S
C375 C374 1.391 . S
C375 C376 1.375 . S
C376 H337 0.931 . S
C376 C375 1.375 . S
C376 C377 1.375 . S
C377 C376 1.375 . S
C377 C378 1.361 . S
C378 H338 0.930 . S
C378 C377 1.361 . S
C378 C379 1.399 . S
C379 H339 0.929 . S
C379 C374 1.386 . S
C379 C378 1.399 . S
C380 C359 1.485 . S
C380 C381 1.394 . S
C380 C385 1.360 . S
C381 H340 0.931 . S
C381 C380 1.394 . S
C381 C382 1.372 . S
C382 H341 0.930 . S
C382 C381 1.372 . S
C382 C383 1.397 . S
C383 C382 1.397 . S
C383 C384 1.390 . S
C383 C399 1.476 . S
C384 H342 0.930 . S
C384 C383 1.390 . S
C384 C385 1.366 . S
C385 H343 0.932 . S
C385 C380 1.360 . S
C385 C384 1.366 . S
C386 C360 1.490 . S
C386 C387 1.380 . S
C386 C391 1.386 . S
C387 H344 0.930 . S
C387 C386 1.380 . S
C387 C388 1.381 . S
C388 H345 0.929 . S
C388 C387 1.381 . S
C388 C389 1.371 . S
C389 C388 1.371 . S
C389 C390 1.380 . S
C390 H346 0.931 . S
C390 C389 1.380 . S
C390 C391 1.387 . S
C391 H347 0.930 . S
C391 C386 1.386 . S
C391 C390 1.387 . S
C392 C361 1.519 . S
C392 C393 1.377 . S
C392 C397 1.361 . S
C393 H348 0.929 . S
C393 C392 1.377 . S
C393 C394 1.386 . S
C394 H349 0.931 . S
C394 C393 1.386 . S
C394 C395 1.363 . S
C395 C394 1.363 . S
C395 C396 1.385 . S
C396 H350 0.930 . S
C396 C395 1.385 . S
C396 C397 1.396 . S
C397 H351 0.929 . S
C397 C392 1.361 . S
C397 C396 1.396 . S
C398 O352 1.300 . S
C398 O353 1.209 . S
C398 C371 1.486 . S
C399 O354 1.199 . S
C399 O355 1.297 . S
C399 C383 1.476 . S
H400 O426 0.856 . S
H401 O429 0.854 . S
H402 C437 0.930 . S
H403 C438 0.930 . S
H404 C440 0.930 . S
H405 C441 0.930 . S
H406 C443 0.931 . S
H407 C444 0.930 . S
H408 C446 0.930 . S
H409 C447 0.929 . S
H410 C449 0.930 . S
H411 C450 0.931 . S
H412 C452 0.930 . S
H413 C453 0.929 . S
H414 C455 0.931 . S
H415 C456 0.930 . S
H416 C458 0.930 . S
H417 C459 0.932 . S
H418 C461 0.930 . S
H419 C462 0.929 . S
H420 C464 0.931 . S
H421 C465 0.930 . S
H422 C467 0.929 . S
H423 C468 0.931 . S
H424 C470 0.930 . S
H425 C471 0.929 . S
O426 H400 0.856 . S
O426 C472 1.300 . S
O427 C472 1.209 . S
O428 C473 1.199 . S
O429 H401 0.854 . S
O429 C473 1.297 . S
C430 C431 1.404 . S
C430 C435 1.397 . S
C430 C436 1.492 . S
C431 C430 1.404 . S
C431 C432 1.396 . S
C431 C442 1.492 . S
C432 C431 1.396 . S
C432 C433 1.397 . S
C432 C448 1.509 . S
C433 C432 1.397 . S
C433 C434 1.412 . S
C433 C454 1.485 . S
C434 C433 1.412 . S
C434 C435 1.388 . S
C434 C460 1.490 . S
C435 C430 1.397 . S
C435 C434 1.388 . S
C435 C466 1.519 . S
C436 C430 1.492 . S
C436 C437 1.363 . S
C436 C441 1.390 . S
C437 H402 0.930 . S
C437 C436 1.363 . S
C437 C438 1.372 . S
C438 H403 0.930 . S
C438 C437 1.372 . S
C438 C439 1.383 . S
C439 C438 1.383 . S
C439 C440 1.395 . S
C440 H404 0.930 . S
C440 C439 1.395 . S
C440 C441 1.362 . S
C441 H405 0.930 . S
C441 C436 1.390 . S
C441 C440 1.362 . S
C442 C431 1.492 . S
C442 C443 1.377 . S
C442 C447 1.397 . S
C443 H406 0.931 . S
C443 C442 1.377 . S
C443 C444 1.376 . S
C444 H407 0.930 . S
C444 C443 1.376 . S
C444 C445 1.376 . S
C445 C444 1.376 . S
C445 C446 1.378 . S
C445 C472 1.486 . S
C446 H408 0.930 . S
C446 C445 1.378 . S
C446 C447 1.376 . S
C447 H409 0.929 . S
C447 C442 1.397 . S
C447 C446 1.376 . S
C448 C432 1.509 . S
C448 C449 1.391 . S
C448 C453 1.386 . S
C449 H410 0.930 . S
C449 C448 1.391 . S
C449 C450 1.375 . S
C450 H411 0.931 . S
C450 C449 1.375 . S
C450 C451 1.375 . S
C451 C450 1.375 . S
C451 C452 1.361 . S
C452 H412 0.930 . S
C452 C451 1.361 . S
C452 C453 1.399 . S
C453 H413 0.929 . S
C453 C448 1.386 . S
C453 C452 1.399 . S
C454 C433 1.485 . S
C454 C455 1.394 . S
C454 C459 1.360 . S
C455 H414 0.931 . S
C455 C454 1.394 . S
C455 C456 1.372 . S
C456 H415 0.930 . S
C456 C455 1.372 . S
C456 C457 1.397 . S
C457 C456 1.397 . S
C457 C458 1.390 . S
C457 C473 1.476 . S
C458 H416 0.930 . S
C458 C457 1.390 . S
C458 C459 1.366 . S
C459 H417 0.932 . S
C459 C454 1.360 . S
C459 C458 1.366 . S
C460 C434 1.490 . S
C460 C461 1.380 . S
C460 C465 1.386 . S
C461 H418 0.930 . S
C461 C460 1.380 . S
C461 C462 1.381 . S
C462 H419 0.929 . S
C462 C461 1.381 . S
C462 C463 1.371 . S
C463 C462 1.371 . S
C463 C464 1.380 . S
C464 H420 0.931 . S
C464 C463 1.380 . S
C464 C465 1.387 . S
C465 H421 0.930 . S
C465 C460 1.386 . S
C465 C464 1.387 . S
C466 C435 1.519 . S
C466 C467 1.377 . S
C466 C471 1.361 . S
C467 H422 0.929 . S
C467 C466 1.377 . S
C467 C468 1.386 . S
C468 H423 0.931 . S
C468 C467 1.386 . S
C468 C469 1.363 . S
C469 C468 1.363 . S
C469 C470 1.385 . S
C470 H424 0.930 . S
C470 C469 1.385 . S
C470 C471 1.396 . S
C471 H425 0.929 . S
C471 C466 1.361 . S
C471 C470 1.396 . S
C472 O426 1.300 . S
C472 O427 1.209 . S
C472 C445 1.486 . S
C473 O428 1.199 . S
C473 O429 1.297 . S
C473 C457 1.476 . S
H474 O500 0.856 . S
H475 O503 0.854 . S
H476 C511 0.930 . S
H477 C512 0.930 . S
H478 C514 0.930 . S
H479 C515 0.930 . S
H480 C517 0.931 . S
H481 C518 0.930 . S
H482 C520 0.930 . S
H483 C521 0.929 . S
H484 C523 0.930 . S
H485 C524 0.931 . S
H486 C526 0.930 . S
H487 C527 0.929 . S
H488 C529 0.931 . S
H489 C530 0.930 . S
H490 C532 0.930 . S
H491 C533 0.932 . S
H492 C535 0.930 . S
H493 C536 0.929 . S
H494 C538 0.931 . S
H495 C539 0.930 . S
H496 C541 0.929 . S
H497 C542 0.931 . S
H498 C544 0.930 . S
H499 C545 0.929 . S
O500 H474 0.856 . S
O500 C546 1.294 1_554 S
O501 C546 1.207 1_554 S
O502 C547 1.199 . S
O503 H475 0.854 . S
O503 C547 1.297 . S
C504 C505 1.404 . S
C504 C509 1.397 . S
C504 C510 1.492 . S
C505 C504 1.404 . S
C505 C506 1.396 . S
C505 C516 1.492 . S
C506 C505 1.396 . S
C506 C507 1.397 . S
C506 C522 1.509 . S
C507 C506 1.397 . S
C507 C508 1.412 . S
C507 C528 1.485 . S
C508 C507 1.412 . S
C508 C509 1.388 . S
C508 C534 1.490 . S
C509 C504 1.397 . S
C509 C508 1.388 . S
C509 C540 1.519 . S
C510 C504 1.492 . S
C510 C511 1.363 . S
C510 C515 1.390 . S
C511 H476 0.930 . S
C511 C510 1.363 . S
C511 C512 1.372 . S
C512 H477 0.930 . S
C512 C511 1.372 . S
C512 C513 1.383 . S
C513 C512 1.383 . S
C513 C514 1.395 . S
C514 H478 0.930 . S
C514 C513 1.395 . S
C514 C515 1.362 . S
C515 H479 0.930 . S
C515 C510 1.390 . S
C515 C514 1.362 . S
C516 C505 1.492 . S
C516 C517 1.377 . S
C516 C521 1.397 . S
C517 H480 0.931 . S
C517 C516 1.377 . S
C517 C518 1.376 . S
C518 H481 0.930 . S
C518 C517 1.376 . S
C518 C519 1.376 . S
C519 C518 1.376 . S
C519 C520 1.378 . S
C519 C546 1.493 . S
C520 H482 0.930 . S
C520 C519 1.378 . S
C520 C521 1.376 . S
C521 H483 0.929 . S
C521 C516 1.397 . S
C521 C520 1.376 . S
C522 C506 1.509 . S
C522 C523 1.391 . S
C522 C527 1.386 . S
C523 H484 0.930 . S
C523 C522 1.391 . S
C523 C524 1.375 . S
C524 H485 0.931 . S
C524 C523 1.375 . S
C524 C525 1.375 . S
C525 C524 1.375 . S
C525 C526 1.361 . S
C526 H486 0.930 . S
C526 C525 1.361 . S
C526 C527 1.399 . S
C527 H487 0.929 . S
C527 C522 1.386 . S
C527 C526 1.399 . S
C528 C507 1.485 . S
C528 C529 1.394 . S
C528 C533 1.360 . S
C529 H488 0.931 . S
C529 C528 1.394 . S
C529 C530 1.372 . S
C530 H489 0.930 . S
C530 C529 1.372 . S
C530 C531 1.397 . S
C531 C530 1.397 . S
C531 C532 1.390 . S
C531 C547 1.476 . S
C532 H490 0.930 . S
C532 C531 1.390 . S
C532 C533 1.366 . S
C533 H491 0.932 . S
C533 C528 1.360 . S
C533 C532 1.366 . S
C534 C508 1.490 . S
C534 C535 1.380 . S
C534 C539 1.386 . S
C535 H492 0.930 . S
C535 C534 1.380 . S
C535 C536 1.381 . S
C536 H493 0.929 . S
C536 C535 1.381 . S
C536 C537 1.371 . S
C537 C536 1.371 . S
C537 C538 1.380 . S
C538 H494 0.931 . S
C538 C537 1.380 . S
C538 C539 1.387 . S
C539 H495 0.930 . S
C539 C534 1.386 . S
C539 C538 1.387 . S
C540 C509 1.519 . S
C540 C541 1.377 . S
C540 C545 1.361 . S
C541 H496 0.929 . S
C541 C540 1.377 . S
C541 C542 1.386 . S
C542 H497 0.931 . S
C542 C541 1.386 . S
C542 C543 1.363 . S
C543 C542 1.363 . S
C543 C544 1.385 . S
C544 H498 0.930 . S
C544 C543 1.385 . S
C544 C545 1.396 . S
C545 H499 0.929 . S
C545 C540 1.361 . S
C545 C544 1.396 . S
C546 O500 1.294 1_556 S
C546 O501 1.207 1_556 S
C546 C519 1.493 . S
C547 O502 1.199 . S
C547 O503 1.297 . S
C547 C531 1.476 . S
H548 O574 0.856 . S
H549 O577 0.854 . S
H550 C585 0.930 . S
H551 C586 0.930 . S
H552 C588 0.930 . S
H553 C589 0.930 . S
H554 C591 0.931 . S
H555 C592 0.930 . S
H556 C594 0.930 . S
H557 C595 0.929 . S
H558 C597 0.930 . S
H559 C598 0.931 . S
H560 C600 0.930 . S
H561 C601 0.929 . S
H562 C603 0.931 . S
H563 C604 0.930 . S
H564 C606 0.930 . S
H565 C607 0.932 . S
H566 C609 0.930 . S
H567 C610 0.929 . S
H568 C612 0.931 . S
H569 C613 0.930 . S
H570 C615 0.929 . S
H571 C616 0.931 . S
H572 C618 0.930 . S
H573 C619 0.929 . S
O574 H548 0.856 . S
O574 C620 1.300 . S
O575 C620 1.209 . S
O576 C621 1.199 . S
O577 H549 0.854 . S
O577 C621 1.297 . S
C578 C579 1.404 . S
C578 C583 1.397 . S
C578 C584 1.492 . S
C579 C578 1.404 . S
C579 C580 1.396 . S
C579 C590 1.492 . S
C580 C579 1.396 . S
C580 C581 1.397 . S
C580 C596 1.509 . S
C581 C580 1.397 . S
C581 C582 1.412 . S
C581 C602 1.485 . S
C582 C581 1.412 . S
C582 C583 1.388 . S
C582 C608 1.490 . S
C583 C578 1.397 . S
C583 C582 1.388 . S
C583 C614 1.519 . S
C584 C578 1.492 . S
C584 C585 1.363 . S
C584 C589 1.390 . S
C585 H550 0.930 . S
C585 C584 1.363 . S
C585 C586 1.372 . S
C586 H551 0.930 . S
C586 C585 1.372 . S
C586 C587 1.383 . S
C587 C586 1.383 . S
C587 C588 1.395 . S
C588 H552 0.930 . S
C588 C587 1.395 . S
C588 C589 1.362 . S
C589 H553 0.930 . S
C589 C584 1.390 . S
C589 C588 1.362 . S
C590 C579 1.492 . S
C590 C591 1.377 . S
C590 C595 1.397 . S
C591 H554 0.931 . S
C591 C590 1.377 . S
C591 C592 1.376 . S
C592 H555 0.930 . S
C592 C591 1.376 . S
C592 C593 1.376 . S
C593 C592 1.376 . S
C593 C594 1.378 . S
C593 C620 1.486 1_556 S
C594 H556 0.930 . S
C594 C593 1.378 . S
C594 C595 1.376 . S
C595 H557 0.929 . S
C595 C590 1.397 . S
C595 C594 1.376 . S
C596 C580 1.509 . S
C596 C597 1.391 . S
C596 C601 1.386 . S
C597 H558 0.930 . S
C597 C596 1.391 . S
C597 C598 1.375 . S
C598 H559 0.931 . S
C598 C597 1.375 . S
C598 C599 1.375 . S
C599 C598 1.375 . S
C599 C600 1.361 . S
C600 H560 0.930 . S
C600 C599 1.361 . S
C600 C601 1.399 . S
C601 H561 0.929 . S
C601 C596 1.386 . S
C601 C600 1.399 . S
C602 C581 1.485 . S
C602 C603 1.394 . S
C602 C607 1.360 . S
C603 H562 0.931 . S
C603 C602 1.394 . S
C603 C604 1.372 . S
C604 H563 0.930 . S
C604 C603 1.372 . S
C604 C605 1.397 . S
C605 C604 1.397 . S
C605 C606 1.390 . S
C605 C621 1.476 . S
C606 H564 0.930 . S
C606 C605 1.390 . S
C606 C607 1.366 . S
C607 H565 0.932 . S
C607 C602 1.360 . S
C607 C606 1.366 . S
C608 C582 1.490 . S
C608 C609 1.380 . S
C608 C613 1.386 . S
C609 H566 0.930 . S
C609 C608 1.380 . S
C609 C610 1.381 . S
C610 H567 0.929 . S
C610 C609 1.381 . S
C610 C611 1.371 . S
C611 C610 1.371 . S
C611 C612 1.380 . S
C612 H568 0.931 . S
C612 C611 1.380 . S
C612 C613 1.387 . S
C613 H569 0.930 . S
C613 C608 1.386 . S
C613 C612 1.387 . S
C614 C583 1.519 . S
C614 C615 1.377 . S
C614 C619 1.361 . S
C615 H570 0.929 . S
C615 C614 1.377 . S
C615 C616 1.386 . S
C616 H571 0.931 . S
C616 C615 1.386 . S
C616 C617 1.363 . S
C617 C616 1.363 . S
C617 C618 1.385 . S
C618 H572 0.930 . S
C618 C617 1.385 . S
C618 C619 1.396 . S
C619 H573 0.929 . S
C619 C614 1.361 . S
C619 C618 1.396 . S
C620 O574 1.300 . S
C620 O575 1.209 . S
C620 C593 1.486 1_554 S
C621 O576 1.199 . S
C621 O577 1.297 . S
C621 C605 1.476 . S
H622 O648 0.856 . S
H623 O651 0.854 . S
H624 C659 0.930 . S
H625 C660 0.930 . S
H626 C662 0.930 . S
H627 C663 0.930 . S
H628 C665 0.931 . S
H629 C666 0.930 1_554 S
H630 C668 0.930 . S
H631 C669 0.929 . S
H632 C671 0.930 . S
H633 C672 0.931 . S
H634 C674 0.930 . S
H635 C675 0.929 . S
H636 C677 0.931 . S
H637 C678 0.930 . S
H638 C680 0.930 . S
H639 C681 0.932 . S
H640 C683 0.930 . S
H641 C684 0.929 . S
H642 C686 0.931 . S
H643 C687 0.930 . S
H644 C689 0.929 . S
H645 C690 0.931 . S
H646 C692 0.930 . S
H647 C693 0.929 . S
O648 H622 0.856 . S
O648 C694 1.300 . S
O649 C694 1.209 . S
O650 C695 1.199 . S
O651 H623 0.854 . S
O651 C695 1.297 . S
C652 C653 1.404 . S
C652 C657 1.397 . S
C652 C658 1.492 . S
C653 C652 1.404 . S
C653 C654 1.396 . S
C653 C664 1.492 . S
C654 C653 1.396 . S
C654 C655 1.397 . S
C654 C670 1.509 . S
C655 C654 1.397 . S
C655 C656 1.412 . S
C655 C676 1.485 . S
C656 C655 1.412 . S
C656 C657 1.388 . S
C656 C682 1.490 . S
C657 C652 1.397 . S
C657 C656 1.388 . S
C657 C688 1.519 . S
C658 C652 1.492 . S
C658 C659 1.363 . S
C658 C663 1.390 . S
C659 H624 0.930 . S
C659 C658 1.363 . S
C659 C660 1.372 . S
C660 H625 0.930 . S
C660 C659 1.372 . S
C660 C661 1.383 . S
C661 C660 1.383 . S
C661 C662 1.395 . S
C662 H626 0.930 . S
C662 C661 1.395 . S
C662 C663 1.362 . S
C663 H627 0.930 . S
C663 C658 1.390 . S
C663 C662 1.362 . S
C664 C653 1.492 . S
C664 C665 1.377 . S
C664 C669 1.397 . S
C665 H628 0.931 . S
C665 C664 1.377 . S
C665 C666 1.376 . S
C666 H629 0.930 1_556 S
C666 C665 1.376 . S
C666 C667 1.376 . S
C667 C666 1.376 . S
C667 C668 1.378 . S
C667 C694 1.486 1_556 S
C668 H630 0.930 . S
C668 C667 1.378 . S
C668 C669 1.376 . S
C669 H631 0.929 . S
C669 C664 1.397 . S
C669 C668 1.376 . S
C670 C654 1.509 . S
C670 C671 1.391 . S
C670 C675 1.386 . S
C671 H632 0.930 . S
C671 C670 1.391 . S
C671 C672 1.375 . S
C672 H633 0.931 . S
C672 C671 1.375 . S
C672 C673 1.375 . S
C673 C672 1.375 . S
C673 C674 1.361 . S
C674 H634 0.930 . S
C674 C673 1.361 . S
C674 C675 1.399 . S
C675 H635 0.929 . S
C675 C670 1.386 . S
C675 C674 1.399 . S
C676 C655 1.485 . S
C676 C677 1.394 . S
C676 C681 1.360 . S
C677 H636 0.931 . S
C677 C676 1.394 . S
C677 C678 1.372 . S
C678 H637 0.930 . S
C678 C677 1.372 . S
C678 C679 1.397 . S
C679 C678 1.397 . S
C679 C680 1.390 . S
C679 C695 1.476 . S
C680 H638 0.930 . S
C680 C679 1.390 . S
C680 C681 1.366 . S
C681 H639 0.932 . S
C681 C676 1.360 . S
C681 C680 1.366 . S
C682 C656 1.490 . S
C682 C683 1.380 . S
C682 C687 1.386 . S
C683 H640 0.930 . S
C683 C682 1.380 . S
C683 C684 1.381 . S
C684 H641 0.929 . S
C684 C683 1.381 . S
C684 C685 1.371 . S
C685 C684 1.371 . S
C685 C686 1.380 . S
C686 H642 0.931 . S
C686 C685 1.380 . S
C686 C687 1.387 . S
C687 H643 0.930 . S
C687 C682 1.386 . S
C687 C686 1.387 . S
C688 C657 1.519 . S
C688 C689 1.377 . S
C688 C693 1.361 . S
C689 H644 0.929 . S
C689 C688 1.377 . S
C689 C690 1.386 . S
C690 H645 0.931 . S
C690 C689 1.386 . S
C690 C691 1.363 . S
C691 C690 1.363 . S
C691 C692 1.385 . S
C692 H646 0.930 . S
C692 C691 1.385 . S
C692 C693 1.396 . S
C693 H647 0.929 . S
C693 C688 1.361 . S
C693 C692 1.396 . S
C694 O648 1.300 . S
C694 O649 1.209 . S
C694 C667 1.486 1_554 S
C695 O650 1.199 . S
C695 O651 1.297 . S
C695 C679 1.476 . S
H696 O722 0.856 . S
H697 O725 0.854 . S
H698 C733 0.930 . S
H699 C734 0.930 . S
H700 C736 0.930 . S
H701 C737 0.930 . S
H702 C739 0.931 . S
H703 C740 0.930 . S
H704 C742 0.930 . S
H705 C743 0.929 . S
H706 C745 0.930 . S
H707 C746 0.931 . S
H708 C748 0.930 . S
H709 C749 0.929 . S
H710 C751 0.931 . S
H711 C752 0.930 . S
H712 C754 0.930 . S
H713 C755 0.932 . S
H714 C757 0.930 . S
H715 C758 0.929 . S
H716 C760 0.931 . S
H717 C761 0.930 . S
H718 C763 0.929 . S
H719 C764 0.931 . S
H720 C766 0.930 . S
H721 C767 0.929 . S
O722 H696 0.856 . S
O722 C768 1.300 . S
O723 C768 1.209 . S
O724 C769 1.199 . S
O725 H697 0.854 . S
O725 C769 1.297 . S
C726 C727 1.404 . S
C726 C731 1.397 . S
C726 C732 1.492 . S
C727 C726 1.404 . S
C727 C728 1.396 . S
C727 C738 1.492 . S
C728 C727 1.396 . S
C728 C729 1.397 . S
C728 C744 1.509 . S
C729 C728 1.397 . S
C729 C730 1.412 . S
C729 C750 1.485 . S
C730 C729 1.412 . S
C730 C731 1.388 . S
C730 C756 1.490 . S
C731 C726 1.397 . S
C731 C730 1.388 . S
C731 C762 1.519 . S
C732 C726 1.492 . S
C732 C733 1.363 . S
C732 C737 1.390 . S
C733 H698 0.930 . S
C733 C732 1.363 . S
C733 C734 1.372 . S
C734 H699 0.930 . S
C734 C733 1.372 . S
C734 C735 1.383 . S
C735 C734 1.383 . S
C735 C736 1.395 . S
C736 H700 0.930 . S
C736 C735 1.395 . S
C736 C737 1.362 . S
C737 H701 0.930 . S
C737 C732 1.390 . S
C737 C736 1.362 . S
C738 C727 1.492 . S
C738 C739 1.377 . S
C738 C743 1.397 . S
C739 H702 0.931 . S
C739 C738 1.377 . S
C739 C740 1.376 . S
C740 H703 0.930 . S
C740 C739 1.376 . S
C740 C741 1.376 . S
C741 C740 1.376 . S
C741 C742 1.378 . S
C741 C768 1.486 . S
C742 H704 0.930 . S
C742 C741 1.378 . S
C742 C743 1.376 . S
C743 H705 0.929 . S
C743 C738 1.397 . S
C743 C742 1.376 . S
C744 C728 1.509 . S
C744 C745 1.391 . S
C744 C749 1.386 . S
C745 H706 0.930 . S
C745 C744 1.391 . S
C745 C746 1.375 . S
C746 H707 0.931 . S
C746 C745 1.375 . S
C746 C747 1.375 . S
C747 C746 1.375 . S
C747 C748 1.361 . S
C748 H708 0.930 . S
C748 C747 1.361 . S
C748 C749 1.399 . S
C749 H709 0.929 . S
C749 C744 1.386 . S
C749 C748 1.399 . S
C750 C729 1.485 . S
C750 C751 1.394 . S
C750 C755 1.360 . S
C751 H710 0.931 . S
C751 C750 1.394 . S
C751 C752 1.372 . S
C752 H711 0.930 . S
C752 C751 1.372 . S
C752 C753 1.397 . S
C753 C752 1.397 . S
C753 C754 1.390 . S
C753 C769 1.476 . S
C754 H712 0.930 . S
C754 C753 1.390 . S
C754 C755 1.366 . S
C755 H713 0.932 . S
C755 C750 1.360 . S
C755 C754 1.366 . S
C756 C730 1.490 . S
C756 C757 1.380 . S
C756 C761 1.386 . S
C757 H714 0.930 . S
C757 C756 1.380 . S
C757 C758 1.381 . S
C758 H715 0.929 . S
C758 C757 1.381 . S
C758 C759 1.371 . S
C759 C758 1.371 . S
C759 C760 1.380 . S
C760 H716 0.931 . S
C760 C759 1.380 . S
C760 C761 1.387 . S
C761 H717 0.930 . S
C761 C756 1.386 . S
C761 C760 1.387 . S
C762 C731 1.519 . S
C762 C763 1.377 . S
C762 C767 1.361 . S
C763 H718 0.929 . S
C763 C762 1.377 . S
C763 C764 1.386 . S
C764 H719 0.931 . S
C764 C763 1.386 . S
C764 C765 1.363 . S
C765 C764 1.363 . S
C765 C766 1.385 . S
C766 H720 0.930 . S
C766 C765 1.385 . S
C766 C767 1.396 . S
C767 H721 0.929 . S
C767 C762 1.361 . S
C767 C766 1.396 . S
C768 O722 1.300 . S
C768 O723 1.209 . S
C768 C741 1.486 . S
C769 O724 1.199 . S
C769 O725 1.297 . S
C769 C753 1.476 . S
H770 O796 0.856 . S
H771 O799 0.854 . S
H772 C807 0.930 . S
H773 C808 0.930 . S
H774 C810 0.930 . S
H775 C811 0.930 . S
H776 C813 0.931 . S
H777 C814 0.930 . S
H778 C816 0.930 . S
H779 C817 0.929 . S
H780 C819 0.930 . S
H781 C820 0.931 . S
H782 C822 0.930 . S
H783 C823 0.929 . S
H784 C825 0.931 . S
H785 C826 0.930 . S
H786 C828 0.930 . S
H787 C829 0.932 . S
H788 C831 0.930 . S
H789 C832 0.929 . S
H790 C834 0.931 . S
H791 C835 0.930 . S
H792 C837 0.929 . S
H793 C838 0.931 . S
H794 C840 0.930 . S
H795 C841 0.929 . S
O796 H770 0.856 . S
O796 C842 1.300 . S
O797 C842 1.209 . S
O798 C843 1.199 . S
O799 H771 0.854 . S
O799 C843 1.297 . S
C800 C801 1.404 . S
C800 C805 1.397 . S
C800 C806 1.492 . S
C801 C800 1.404 . S
C801 C802 1.396 . S
C801 C812 1.492 . S
C802 C801 1.396 . S
C802 C803 1.397 . S
C802 C818 1.509 . S
C803 C802 1.397 . S
C803 C804 1.412 . S
C803 C824 1.485 . S
C804 C803 1.412 . S
C804 C805 1.388 . S
C804 C830 1.490 . S
C805 C800 1.397 . S
C805 C804 1.388 . S
C805 C836 1.519 . S
C806 C800 1.492 . S
C806 C807 1.363 . S
C806 C811 1.390 . S
C807 H772 0.930 . S
C807 C806 1.363 . S
C807 C808 1.372 . S
C808 H773 0.930 . S
C808 C807 1.372 . S
C808 C809 1.383 . S
C809 C808 1.383 . S
C809 C810 1.395 . S
C810 H774 0.930 . S
C810 C809 1.395 . S
C810 C811 1.362 . S
C811 H775 0.930 . S
C811 C806 1.390 . S
C811 C810 1.362 . S
C812 C801 1.492 . S
C812 C813 1.377 . S
C812 C817 1.397 . S
C813 H776 0.931 . S
C813 C812 1.377 . S
C813 C814 1.376 . S
C814 H777 0.930 . S
C814 C813 1.376 . S
C814 C815 1.376 . S
C815 C814 1.376 . S
C815 C816 1.378 . S
C815 C842 1.486 . S
C816 H778 0.930 . S
C816 C815 1.378 . S
C816 C817 1.376 . S
C817 H779 0.929 . S
C817 C812 1.397 . S
C817 C816 1.376 . S
C818 C802 1.509 . S
C818 C819 1.391 . S
C818 C823 1.386 . S
C819 H780 0.930 . S
C819 C818 1.391 . S
C819 C820 1.375 . S
C820 H781 0.931 . S
C820 C819 1.375 . S
C820 C821 1.375 . S
C821 C820 1.375 . S
C821 C822 1.361 . S
C822 H782 0.930 . S
C822 C821 1.361 . S
C822 C823 1.399 . S
C823 H783 0.929 . S
C823 C818 1.386 . S
C823 C822 1.399 . S
C824 C803 1.485 . S
C824 C825 1.394 . S
C824 C829 1.360 . S
C825 H784 0.931 . S
C825 C824 1.394 . S
C825 C826 1.372 . S
C826 H785 0.930 . S
C826 C825 1.372 . S
C826 C827 1.397 . S
C827 C826 1.397 . S
C827 C828 1.390 . S
C827 C843 1.476 . S
C828 H786 0.930 . S
C828 C827 1.390 . S
C828 C829 1.366 . S
C829 H787 0.932 . S
C829 C824 1.360 . S
C829 C828 1.366 . S
C830 C804 1.490 . S
C830 C831 1.380 . S
C830 C835 1.386 . S
C831 H788 0.930 . S
C831 C830 1.380 . S
C831 C832 1.381 . S
C832 H789 0.929 . S
C832 C831 1.381 . S
C832 C833 1.371 . S
C833 C832 1.371 . S
C833 C834 1.380 . S
C834 H790 0.931 . S
C834 C833 1.380 . S
C834 C835 1.387 . S
C835 H791 0.930 . S
C835 C830 1.386 . S
C835 C834 1.387 . S
C836 C805 1.519 . S
C836 C837 1.377 . S
C836 C841 1.361 . S
C837 H792 0.929 . S
C837 C836 1.377 . S
C837 C838 1.386 . S
C838 H793 0.931 . S
C838 C837 1.386 . S
C838 C839 1.363 . S
C839 C838 1.363 . S
C839 C840 1.385 . S
C840 H794 0.930 . S
C840 C839 1.385 . S
C840 C841 1.396 . S
C841 H795 0.929 . S
C841 C836 1.361 . S
C841 C840 1.396 . S
C842 O796 1.300 . S
C842 O797 1.209 . S
C842 C815 1.486 . S
C843 O798 1.199 . S
C843 O799 1.297 . S
C843 C827 1.476 . S
H844 O870 0.856 . S
H845 O873 0.854 . S
H846 C881 0.930 . S
H847 C882 0.930 . S
H848 C884 0.930 . S
H849 C885 0.930 . S
H850 C887 0.931 . S
H851 C888 0.930 . S
H852 C890 0.930 . S
H853 C891 0.929 . S
H854 C893 0.930 . S
H855 C894 0.931 . S
H856 C896 0.930 . S
H857 C897 0.929 . S
H858 C899 0.931 . S
H859 C900 0.930 . S
H860 C902 0.930 . S
H861 C903 0.932 . S
H862 C905 0.930 . S
H863 C906 0.929 . S
H864 C908 0.931 . S
H865 C909 0.930 . S
H866 C911 0.929 . S
H867 C912 0.931 . S
H868 C914 0.930 . S
H869 C915 0.929 . S
O870 H844 0.856 . S
O870 C916 1.300 . S
O871 C916 1.209 . S
O872 C917 1.199 . S
O873 H845 0.854 . S
O873 C917 1.297 . S
C874 C875 1.404 . S
C874 C879 1.397 . S
C874 C880 1.492 . S
C875 C874 1.404 . S
C875 C876 1.396 . S
C875 C886 1.492 . S
C876 C875 1.396 . S
C876 C877 1.397 . S
C876 C892 1.509 . S
C877 C876 1.397 . S
C877 C878 1.412 . S
C877 C898 1.485 . S
C878 C877 1.412 . S
C878 C879 1.388 . S
C878 C904 1.490 . S
C879 C874 1.397 . S
C879 C878 1.388 . S
C879 C910 1.519 . S
C880 C874 1.492 . S
C880 C881 1.363 . S
C880 C885 1.390 . S
C881 H846 0.930 . S
C881 C880 1.363 . S
C881 C882 1.372 . S
C882 H847 0.930 . S
C882 C881 1.372 . S
C882 C883 1.383 . S
C883 C882 1.383 . S
C883 C884 1.395 . S
C884 H848 0.930 . S
C884 C883 1.395 . S
C884 C885 1.362 . S
C885 H849 0.930 . S
C885 C880 1.390 . S
C885 C884 1.362 . S
C886 C875 1.492 . S
C886 C887 1.377 . S
C886 C891 1.397 . S
C887 H850 0.931 . S
C887 C886 1.377 . S
C887 C888 1.376 . S
C888 H851 0.930 . S
C888 C887 1.376 . S
C888 C889 1.376 . S
C889 C888 1.376 . S
C889 C890 1.378 . S
C889 C916 1.486 . S
C890 H852 0.930 . S
C890 C889 1.378 . S
C890 C891 1.376 . S
C891 H853 0.929 . S
C891 C886 1.397 . S
C891 C890 1.376 . S
C892 C876 1.509 . S
C892 C893 1.391 . S
C892 C897 1.386 . S
C893 H854 0.930 . S
C893 C892 1.391 . S
C893 C894 1.375 . S
C894 H855 0.931 . S
C894 C893 1.375 . S
C894 C895 1.375 . S
C895 C894 1.375 . S
C895 C896 1.361 . S
C896 H856 0.930 . S
C896 C895 1.361 . S
C896 C897 1.399 . S
C897 H857 0.929 . S
C897 C892 1.386 . S
C897 C896 1.399 . S
C898 C877 1.485 . S
C898 C899 1.394 . S
C898 C903 1.360 . S
C899 H858 0.931 . S
C899 C898 1.394 . S
C899 C900 1.372 . S
C900 H859 0.930 . S
C900 C899 1.372 . S
C900 C901 1.397 . S
C901 C900 1.397 . S
C901 C902 1.390 . S
C901 C917 1.476 . S
C902 H860 0.930 . S
C902 C901 1.390 . S
C902 C903 1.366 . S
C903 H861 0.932 . S
C903 C898 1.360 . S
C903 C902 1.366 . S
C904 C878 1.490 . S
C904 C905 1.380 . S
C904 C909 1.386 . S
C905 H862 0.930 . S
C905 C904 1.380 . S
C905 C906 1.381 . S
C906 H863 0.929 . S
C906 C905 1.381 . S
C906 C907 1.371 . S
C907 C906 1.371 . S
C907 C908 1.380 . S
C908 H864 0.931 . S
C908 C907 1.380 . S
C908 C909 1.387 . S
C909 H865 0.930 . S
C909 C904 1.386 . S
C909 C908 1.387 . S
C910 C879 1.519 . S
C910 C911 1.377 . S
C910 C915 1.361 . S
C911 H866 0.929 . S
C911 C910 1.377 . S
C911 C912 1.386 . S
C912 H867 0.931 . S
C912 C911 1.386 . S
C912 C913 1.363 . S
C913 C912 1.363 . S
C913 C914 1.385 . S
C914 H868 0.930 . S
C914 C913 1.385 . S
C914 C915 1.396 . S
C915 H869 0.929 . S
C915 C910 1.361 . S
C915 C914 1.396 . S
C916 O870 1.300 . S
C916 O871 1.209 . S
C916 C889 1.486 . S
C917 O872 1.199 . S
C917 O873 1.297 . S
C917 C901 1.476 . S
H918 O944 0.856 . S
H919 O947 0.854 . S
H920 C955 0.930 . S
H921 C956 0.930 . S
H922 C958 0.930 . S
H923 C959 0.930 . S
H924 C961 0.931 . S
H925 C962 0.931 1_655 S
H926 C964 0.930 . S
H927 C965 0.929 . S
H928 C967 0.930 . S
H929 C968 0.932 . S
H930 C970 0.930 . S
H931 C971 0.929 . S
H932 C973 0.931 . S
H933 C974 0.930 . S
H934 C976 0.930 . S
H935 C977 0.932 . S
H936 C979 0.930 . S
H937 C980 0.929 . S
H938 C982 0.931 . S
H939 C983 0.930 . S
H940 C985 0.929 . S
H941 C986 0.931 . S
H942 C988 0.930 . S
H943 C989 0.929 . S
O944 H918 0.856 . S
O944 C990 1.300 . S
O945 C990 1.209 . S
O946 C991 1.199 1_655 S
O947 H919 0.854 . S
O947 C991 1.297 . S
C948 C949 1.404 . S
C948 C953 1.393 . S
C948 C954 1.492 . S
C949 C948 1.404 . S
C949 C950 1.396 . S
C949 C960 1.492 . S
C950 C949 1.396 . S
C950 C951 1.397 . S
C950 C966 1.509 . S
C951 C950 1.397 . S
C951 C952 1.426 . S
C951 C972 1.485 . S
C952 C951 1.426 . S
C952 C953 1.400 . S
C952 C978 1.491 1_455 S
C953 C948 1.393 . S
C953 C952 1.400 . S
C953 C984 1.496 1_455 S
C954 C948 1.492 . S
C954 C955 1.363 1_455 S
C954 C959 1.390 . S
C955 H920 0.930 . S
C955 C954 1.363 1_655 S
C955 C956 1.372 . S
C956 H921 0.930 . S
C956 C955 1.372 . S
C956 C957 1.383 . S
C957 C956 1.383 . S
C957 C958 1.395 1_655 S
C958 H922 0.930 . S
C958 C957 1.395 1_455 S
C958 C959 1.362 . S
C959 H923 0.930 . S
C959 C954 1.390 . S
C959 C958 1.362 . S
C960 C949 1.492 . S
C960 C961 1.377 1_455 S
C960 C965 1.397 . S
C961 H924 0.931 . S
C961 C960 1.377 1_655 S
C961 C962 1.375 1_655 S
C962 H925 0.931 1_455 S
C962 C961 1.375 1_455 S
C962 C963 1.375 . S
C963 C962 1.375 . S
C963 C964 1.378 . S
C963 C990 1.486 . S
C964 H926 0.930 . S
C964 C963 1.378 . S
C964 C965 1.376 . S
C965 H927 0.929 . S
C965 C960 1.397 . S
C965 C964 1.376 . S
C966 C950 1.509 . S
C966 C967 1.391 1_455 S
C966 C971 1.386 . S
C967 H928 0.930 . S
C967 C966 1.391 1_655 S
C967 C968 1.376 . S
C968 H929 0.932 . S
C968 C967 1.376 . S
C968 C969 1.372 1_655 S
C969 C968 1.372 1_455 S
C969 C970 1.361 . S
C970 H930 0.930 . S
C970 C969 1.361 . S
C970 C971 1.399 . S
C971 H931 0.929 . S
C971 C966 1.386 . S
C971 C970 1.399 . S
C972 C951 1.485 . S
C972 C973 1.394 1_455 S
C972 C977 1.360 . S
C973 H932 0.931 . S
C973 C972 1.394 1_655 S
C973 C974 1.372 . S
C974 H933 0.930 . S
C974 C973 1.372 . S
C974 C975 1.397 1_655 S
C975 C974 1.397 1_455 S
C975 C976 1.390 . S
C975 C991 1.476 . S
C976 H934 0.930 . S
C976 C975 1.390 . S
C976 C977 1.366 . S
C977 H935 0.932 . S
C977 C972 1.360 . S
C977 C976 1.366 . S
C978 C952 1.491 1_655 S
C978 C979 1.380 . S
C978 C983 1.386 1_655 S
C979 H936 0.930 . S
C979 C978 1.380 . S
C979 C980 1.381 . S
C980 H937 0.929 . S
C980 C979 1.381 . S
C980 C981 1.371 . S
C981 C980 1.371 . S
C981 C982 1.380 1_655 S
C982 H938 0.931 . S
C982 C981 1.380 1_455 S
C982 C983 1.387 . S
C983 H939 0.930 . S
C983 C978 1.386 1_455 S
C983 C982 1.387 . S
C984 C953 1.496 1_655 S
C984 C985 1.393 . S
C984 C989 1.350 1_655 S
C985 H940 0.929 . S
C985 C984 1.393 . S
C985 C986 1.386 . S
C986 H941 0.931 . S
C986 C985 1.386 . S
C986 C987 1.360 1_655 S
C987 C986 1.360 1_455 S
C987 C988 1.390 . S
C988 H942 0.930 . S
C988 C987 1.390 . S
C988 C989 1.396 . S
C989 H943 0.929 . S
C989 C984 1.350 1_455 S
C989 C988 1.396 . S
C990 O944 1.300 . S
C990 O945 1.209 . S
C990 C963 1.486 . S
C991 O946 1.199 1_455 S
C991 O947 1.297 . S
C991 C975 1.476 . S
H992 O1018 0.856 . S
H993 O1021 0.854 . S
H994 C1029 0.930 . S
H995 C1030 0.930 . S
H996 C1032 0.930 . S
H997 C1033 0.930 . S
H998 C1035 0.931 . S
H999 C1036 0.930 . S
H1000 C1038 0.930 . S
H1001 C1039 0.929 . S
H1002 C1041 0.930 . S
H1003 C1042 0.931 . S
H1004 C1044 0.930 . S
H1005 C1045 0.929 . S
H1006 C1047 0.931 . S
H1007 C1048 0.930 . S
H1008 C1050 0.930 . S
H1009 C1051 0.932 . S
H1010 C1053 0.930 . S
H1011 C1054 0.929 . S
H1012 C1056 0.931 . S
H1013 C1057 0.930 . S
H1014 C1059 0.929 . S
H1015 C1060 0.931 . S
H1016 C1062 0.930 . S
H1017 C1063 0.929 . S
O1018 H992 0.856 . S
O1018 C1064 1.300 . S
O1019 C1064 1.209 . S
O1020 C1065 1.199 . S
O1021 H993 0.854 . S
O1021 C1065 1.297 . S
C1022 C1023 1.404 . S
C1022 C1027 1.397 . S
C1022 C1028 1.492 . S
C1023 C1022 1.404 . S
C1023 C1024 1.396 . S
C1023 C1034 1.492 . S
C1024 C1023 1.396 . S
C1024 C1025 1.397 . S
C1024 C1040 1.509 . S
C1025 C1024 1.397 . S
C1025 C1026 1.412 . S
C1025 C1046 1.485 . S
C1026 C1025 1.412 . S
C1026 C1027 1.388 . S
C1026 C1052 1.490 . S
C1027 C1022 1.397 . S
C1027 C1026 1.388 . S
C1027 C1058 1.519 . S
C1028 C1022 1.492 . S
C1028 C1029 1.363 . S
C1028 C1033 1.390 . S
C1029 H994 0.930 . S
C1029 C1028 1.363 . S
C1029 C1030 1.372 . S
C1030 H995 0.930 . S
C1030 C1029 1.372 . S
C1030 C1031 1.383 . S
C1031 C1030 1.383 . S
C1031 C1032 1.395 . S
C1032 H996 0.930 . S
C1032 C1031 1.395 . S
C1032 C1033 1.362 . S
C1033 H997 0.930 . S
C1033 C1028 1.390 . S
C1033 C1032 1.362 . S
C1034 C1023 1.492 . S
C1034 C1035 1.377 . S
C1034 C1039 1.397 . S
C1035 H998 0.931 . S
C1035 C1034 1.377 . S
C1035 C1036 1.376 . S
C1036 H999 0.930 . S
C1036 C1035 1.376 . S
C1036 C1037 1.376 . S
C1037 C1036 1.376 . S
C1037 C1038 1.378 . S
C1037 C1064 1.486 . S
C1038 H1000 0.930 . S
C1038 C1037 1.378 . S
C1038 C1039 1.376 . S
C1039 H1001 0.929 . S
C1039 C1034 1.397 . S
C1039 C1038 1.376 . S
C1040 C1024 1.509 . S
C1040 C1041 1.391 . S
C1040 C1045 1.386 . S
C1041 H1002 0.930 . S
C1041 C1040 1.391 . S
C1041 C1042 1.375 . S
C1042 H1003 0.931 . S
C1042 C1041 1.375 . S
C1042 C1043 1.375 . S
C1043 C1042 1.375 . S
C1043 C1044 1.361 . S
C1044 H1004 0.930 . S
C1044 C1043 1.361 . S
C1044 C1045 1.399 . S
C1045 H1005 0.929 . S
C1045 C1040 1.386 . S
C1045 C1044 1.399 . S
C1046 C1025 1.485 . S
C1046 C1047 1.394 . S
C1046 C1051 1.360 . S
C1047 H1006 0.931 . S
C1047 C1046 1.394 . S
C1047 C1048 1.372 . S
C1048 H1007 0.930 . S
C1048 C1047 1.372 . S
C1048 C1049 1.397 . S
C1049 C1048 1.397 . S
C1049 C1050 1.390 . S
C1049 C1065 1.476 . S
C1050 H1008 0.930 . S
C1050 C1049 1.390 . S
C1050 C1051 1.366 . S
C1051 H1009 0.932 . S
C1051 C1046 1.360 . S
C1051 C1050 1.366 . S
C1052 C1026 1.490 . S
C1052 C1053 1.380 . S
C1052 C1057 1.386 . S
C1053 H1010 0.930 . S
C1053 C1052 1.380 . S
C1053 C1054 1.381 . S
C1054 H1011 0.929 . S
C1054 C1053 1.381 . S
C1054 C1055 1.371 . S
C1055 C1054 1.371 . S
C1055 C1056 1.380 . S
C1056 H1012 0.931 . S
C1056 C1055 1.380 . S
C1056 C1057 1.387 . S
C1057 H1013 0.930 . S
C1057 C1052 1.386 . S
C1057 C1056 1.387 . S
C1058 C1027 1.519 . S
C1058 C1059 1.377 . S
C1058 C1063 1.361 . S
C1059 H1014 0.929 . S
C1059 C1058 1.377 . S
C1059 C1060 1.386 . S
C1060 H1015 0.931 . S
C1060 C1059 1.386 . S
C1060 C1061 1.363 . S
C1061 C1060 1.363 . S
C1061 C1062 1.385 . S
C1062 H1016 0.930 . S
C1062 C1061 1.385 . S
C1062 C1063 1.396 . S
C1063 H1017 0.929 . S
C1063 C1058 1.361 . S
C1063 C1062 1.396 . S
C1064 O1018 1.300 . S
C1064 O1019 1.209 . S
C1064 C1037 1.486 . S
C1065 O1020 1.199 . S
C1065 O1021 1.297 . S
C1065 C1049 1.476 . S
H1066 O1092 0.856 . S
H1067 O1095 0.854 . S
H1068 C1103 0.930 . S
H1069 C1104 0.930 . S
H1070 C1106 0.930 . S
H1071 C1107 0.930 . S
H1072 C1109 0.931 . S
H1073 C1110 0.931 1_545 S
H1074 C1112 0.930 . S
H1075 C1113 0.929 . S
H1076 C1115 0.930 . S
H1077 C1116 0.940 . S
H1078 C1118 0.930 . S
H1079 C1119 0.929 . S
H1080 C1121 0.931 . S
H1081 C1122 0.930 . S
H1082 C1124 0.930 . S
H1083 C1125 0.932 . S
H1084 C1127 0.930 . S
H1085 C1128 0.929 . S
H1086 C1130 0.931 . S
H1087 C1131 0.930 . S
H1088 C1133 0.929 . S
H1089 C1134 0.931 . S
H1090 C1136 0.930 . S
H1091 C1137 0.929 . S
O1092 H1066 0.856 . S
O1092 C1138 1.300 . S
O1093 C1138 1.209 . S
O1094 C1139 1.199 1_545 S
O1095 H1067 0.854 . S
O1095 C1139 1.297 . S
C1096 C1097 1.404 . S
C1096 C1101 1.415 . S
C1096 C1102 1.492 . S
C1097 C1096 1.404 . S
C1097 C1098 1.396 . S
C1097 C1108 1.492 . S
C1098 C1097 1.396 . S
C1098 C1099 1.397 . S
C1098 C1114 1.509 . S
C1099 C1098 1.397 . S
C1099 C1100 1.408 . S
C1099 C1120 1.485 . S
C1100 C1099 1.408 . S
C1100 C1101 1.375 . S
C1100 C1126 1.481 1_565 S
C1101 C1096 1.415 . S
C1101 C1100 1.375 . S
C1101 C1132 1.538 1_565 S
C1102 C1096 1.492 . S
C1102 C1103 1.363 1_565 S
C1102 C1107 1.390 . S
C1103 H1068 0.930 . S
C1103 C1102 1.363 1_545 S
C1103 C1104 1.372 . S
C1104 H1069 0.930 . S
C1104 C1103 1.372 . S
C1104 C1105 1.383 . S
C1105 C1104 1.383 . S
C1105 C1106 1.395 1_545 S
C1106 H1070 0.930 . S
C1106 C1105 1.395 1_565 S
C1106 C1107 1.362 . S
C1107 H1071 0.930 . S
C1107 C1102 1.390 . S
C1107 C1106 1.362 . S
C1108 C1097 1.492 . S
C1108 C1109 1.377 1_565 S
C1108 C1113 1.397 . S
C1109 H1072 0.931 . S
C1109 C1108 1.377 1_545 S
C1109 C1110 1.377 1_545 S
C1110 H1073 0.931 1_565 S
C1110 C1109 1.377 1_565 S
C1110 C1111 1.374 . S
C1111 C1110 1.374 . S
C1111 C1112 1.378 . S
C1111 C1138 1.486 . S
C1112 H1074 0.930 . S
C1112 C1111 1.378 . S
C1112 C1113 1.376 . S
C1113 H1075 0.929 . S
C1113 C1108 1.397 . S
C1113 C1112 1.376 . S
C1114 C1098 1.509 . S
C1114 C1115 1.391 1_565 S
C1114 C1119 1.386 . S
C1115 H1076 0.930 . S
C1115 C1114 1.391 1_545 S
C1115 C1116 1.373 . S
C1116 H1077 0.940 . S
C1116 C1115 1.373 . S
C1116 C1117 1.368 1_545 S
C1117 C1116 1.368 1_565 S
C1117 C1118 1.361 . S
C1118 H1078 0.930 . S
C1118 C1117 1.361 . S
C1118 C1119 1.399 . S
C1119 H1079 0.929 . S
C1119 C1114 1.386 . S
C1119 C1118 1.399 . S
C1120 C1099 1.485 . S
C1120 C1121 1.394 1_565 S
C1120 C1125 1.360 . S
C1121 H1080 0.931 . S
C1121 C1120 1.394 1_545 S
C1121 C1122 1.372 . S
C1122 H1081 0.930 . S
C1122 C1121 1.372 . S
C1122 C1123 1.397 1_545 S
C1123 C1122 1.397 1_565 S
C1123 C1124 1.390 . S
C1123 C1139 1.476 . S
C1124 H1082 0.930 . S
C1124 C1123 1.390 . S
C1124 C1125 1.366 . S
C1125 H1083 0.932 . S
C1125 C1120 1.360 . S
C1125 C1124 1.366 . S
C1126 C1100 1.481 1_545 S
C1126 C1127 1.380 . S
C1126 C1131 1.386 1_545 S
C1127 H1084 0.930 . S
C1127 C1126 1.380 . S
C1127 C1128 1.381 . S
C1128 H1085 0.929 . S
C1128 C1127 1.381 . S
C1128 C1129 1.371 . S
C1129 C1128 1.371 . S
C1129 C1130 1.380 1_545 S
C1130 H1086 0.931 . S
C1130 C1129 1.380 1_565 S
C1130 C1131 1.387 . S
C1131 H1087 0.930 . S
C1131 C1126 1.386 1_565 S
C1131 C1130 1.387 . S
C1132 C1101 1.538 1_545 S
C1132 C1133 1.383 . S
C1132 C1137 1.350 1_545 S
C1133 H1088 0.929 . S
C1133 C1132 1.383 . S
C1133 C1134 1.386 . S
C1134 H1089 0.931 . S
C1134 C1133 1.386 . S
C1134 C1135 1.357 1_545 S
C1135 C1134 1.357 1_565 S
C1135 C1136 1.388 . S
C1136 H1090 0.930 . S
C1136 C1135 1.388 . S
C1136 C1137 1.396 . S
C1137 H1091 0.929 . S
C1137 C1132 1.350 1_565 S
C1137 C1136 1.396 . S
C1138 O1092 1.300 . S
C1138 O1093 1.209 . S
C1138 C1111 1.486 . S
C1139 O1094 1.199 1_565 S
C1139 O1095 1.297 . S
C1139 C1123 1.476 . S
H1140 O1166 0.856 . S
H1141 O1169 0.854 . S
H1142 C1177 0.930 . S
H1143 C1178 0.930 . S
H1144 C1180 0.930 . S
H1145 C1181 0.930 . S
H1146 C1183 0.931 . S
H1147 C1184 0.930 . S
H1148 C1186 0.930 . S
H1149 C1187 0.929 . S
H1150 C1189 0.930 . S
H1151 C1190 0.931 . S
H1152 C1192 0.930 . S
H1153 C1193 0.929 . S
H1154 C1195 0.931 . S
H1155 C1196 0.930 . S
H1156 C1198 0.930 . S
H1157 C1199 0.932 . S
H1158 C1201 0.930 . S
H1159 C1202 0.929 . S
H1160 C1204 0.931 . S
H1161 C1205 0.930 . S
H1162 C1207 0.929 . S
H1163 C1208 0.931 . S
H1164 C1210 0.930 . S
H1165 C1211 0.929 . S
O1166 H1140 0.856 . S
O1166 C1212 1.300 . S
O1167 C1212 1.209 1_565 S
O1168 C1213 1.199 1_545 S
O1169 H1141 0.854 . S
O1169 C1213 1.297 . S
C1170 C1171 1.404 . S
C1170 C1175 1.397 1_545 S
C1170 C1176 1.492 . S
C1171 C1170 1.404 . S
C1171 C1172 1.425 . S
C1171 C1182 1.492 . S
C1172 C1171 1.425 . S
C1172 C1173 1.383 1_545 S
C1172 C1188 1.503 . S
C1173 C1172 1.383 1_565 S
C1173 C1174 1.415 . S
C1173 C1194 1.490 . S
C1174 C1173 1.415 . S
C1174 C1175 1.378 . S
C1174 C1200 1.493 . S
C1175 C1170 1.397 1_565 S
C1175 C1174 1.378 . S
C1175 C1206 1.519 . S
C1176 C1170 1.492 . S
C1176 C1177 1.363 . S
C1176 C1181 1.390 1_545 S
C1177 H1142 0.930 . S
C1177 C1176 1.363 . S
C1177 C1178 1.372 . S
C1178 H1143 0.930 . S
C1178 C1177 1.372 . S
C1178 C1179 1.383 . S
C1179 C1178 1.383 . S
C1179 C1180 1.395 1_545 S
C1180 H1144 0.930 . S
C1180 C1179 1.395 1_565 S
C1180 C1181 1.362 . S
C1181 H1145 0.930 . S
C1181 C1176 1.390 1_565 S
C1181 C1180 1.362 . S
C1182 C1171 1.492 . S
C1182 C1183 1.377 . S
C1182 C1187 1.397 1_545 S
C1183 H1146 0.931 . S
C1183 C1182 1.377 . S
C1183 C1184 1.376 . S
C1184 H1147 0.930 . S
C1184 C1183 1.376 . S
C1184 C1185 1.376 . S
C1185 C1184 1.376 . S
C1185 C1186 1.378 1_545 S
C1185 C1212 1.486 . S
C1186 H1148 0.930 . S
C1186 C1185 1.378 1_565 S
C1186 C1187 1.376 . S
C1187 H1149 0.929 . S
C1187 C1182 1.397 1_565 S
C1187 C1186 1.376 . S
C1188 C1172 1.503 . S
C1188 C1189 1.406 . S
C1188 C1193 1.361 1_545 S
C1189 H1150 0.930 . S
C1189 C1188 1.406 . S
C1189 C1190 1.375 . S
C1190 H1151 0.931 . S
C1190 C1189 1.375 . S
C1190 C1191 1.371 . S
C1191 C1190 1.371 . S
C1191 C1192 1.364 1_545 S
C1192 H1152 0.930 . S
C1192 C1191 1.364 1_565 S
C1192 C1193 1.399 . S
C1193 H1153 0.929 . S
C1193 C1188 1.361 1_565 S
C1193 C1192 1.399 . S
C1194 C1173 1.490 . S
C1194 C1195 1.394 1_565 S
C1194 C1199 1.360 . S
C1195 H1154 0.931 . S
C1195 C1194 1.394 1_545 S
C1195 C1196 1.372 . S
C1196 H1155 0.930 . S
C1196 C1195 1.372 . S
C1196 C1197 1.397 1_545 S
C1197 C1196 1.397 1_565 S
C1197 C1198 1.390 . S
C1197 C1213 1.476 . S
C1198 H1156 0.930 . S
C1198 C1197 1.390 . S
C1198 C1199 1.366 . S
C1199 H1157 0.932 . S
C1199 C1194 1.360 . S
C1199 C1198 1.366 . S
C1200 C1174 1.493 . S
C1200 C1201 1.377 1_565 S
C1200 C1205 1.390 . S
C1201 H1158 0.930 . S
C1201 C1200 1.377 1_545 S
C1201 C1202 1.381 . S
C1202 H1159 0.929 . S
C1202 C1201 1.381 . S
C1202 C1203 1.371 . S
C1203 C1202 1.371 . S
C1203 C1204 1.380 1_545 S
C1204 H1160 0.931 . S
C1204 C1203 1.380 1_565 S
C1204 C1205 1.387 . S
C1205 H1161 0.930 . S
C1205 C1200 1.390 . S
C1205 C1204 1.387 . S
C1206 C1175 1.519 . S
C1206 C1207 1.377 1_565 S
C1206 C1211 1.361 . S
C1207 H1162 0.929 . S
C1207 C1206 1.377 1_545 S
C1207 C1208 1.386 . S
C1208 H1163 0.931 . S
C1208 C1207 1.386 . S
C1208 C1209 1.363 1_545 S
C1209 C1208 1.363 1_565 S
C1209 C1210 1.385 . S
C1210 H1164 0.930 . S
C1210 C1209 1.385 . S
C1210 C1211 1.396 . S
C1211 H1165 0.929 . S
C1211 C1206 1.361 . S
C1211 C1210 1.396 . S
C1212 O1166 1.300 . S
C1212 O1167 1.209 1_545 S
C1212 C1185 1.486 . S
C1213 O1168 1.199 1_565 S
C1213 O1169 1.297 . S
C1213 C1197 1.476 . S
H1214 O1240 0.856 . S
H1215 O1243 0.854 . S
H1216 C1251 0.930 . S
H1217 C1252 0.930 . S
H1218 C1254 0.930 . S
H1219 C1255 0.930 . S
H1220 C1257 0.931 . S
H1221 C1258 0.930 . S
H1222 C1260 0.930 . S
H1223 C1261 0.929 . S
H1224 C1263 0.930 . S
H1225 C1264 0.931 . S
H1226 C1266 0.930 . S
H1227 C1267 0.929 . S
H1228 C1269 0.931 . S
H1229 C1270 0.930 . S
H1230 C1272 0.930 . S
H1231 C1273 0.932 . S
H1232 C1275 0.930 . S
H1233 C1276 0.929 . S
H1234 C1278 0.931 . S
H1235 C1279 0.930 . S
H1236 C1281 0.929 . S
H1237 C1282 0.931 . S
H1238 C1284 0.930 . S
H1239 C1285 0.929 . S
O1240 H1214 0.856 . S
O1240 C1286 1.300 . S
O1241 C1286 1.209 1_455 S
O1242 C1287 1.199 1_655 S
O1243 H1215 0.854 . S
O1243 C1287 1.297 . S
C1244 C1245 1.404 . S
C1244 C1249 1.396 1_655 S
C1244 C1250 1.492 . S
C1245 C1244 1.404 . S
C1245 C1246 1.396 . S
C1245 C1256 1.492 . S
C1246 C1245 1.396 . S
C1246 C1247 1.397 . S
C1246 C1262 1.509 . S
C1247 C1246 1.397 . S
C1247 C1248 1.398 1_655 S
C1247 C1268 1.487 1_655 S
C1248 C1247 1.398 1_455 S
C1248 C1249 1.412 . S
C1248 C1274 1.485 . S
C1249 C1244 1.396 1_455 S
C1249 C1248 1.412 . S
C1249 C1280 1.515 . S
C1250 C1244 1.492 . S
C1250 C1251 1.363 . S
C1250 C1255 1.390 1_655 S
C1251 H1216 0.930 . S
C1251 C1250 1.363 . S
C1251 C1252 1.372 . S
C1252 H1217 0.930 . S
C1252 C1251 1.372 . S
C1252 C1253 1.383 . S
C1253 C1252 1.383 . S
C1253 C1254 1.395 1_655 S
C1254 H1218 0.930 . S
C1254 C1253 1.395 1_455 S
C1254 C1255 1.362 . S
C1255 H1219 0.930 . S
C1255 C1250 1.390 1_455 S
C1255 C1254 1.362 . S
C1256 C1245 1.492 . S
C1256 C1257 1.377 . S
C1256 C1261 1.397 1_655 S
C1257 H1220 0.931 . S
C1257 C1256 1.377 . S
C1257 C1258 1.376 . S
C1258 H1221 0.930 . S
C1258 C1257 1.376 . S
C1258 C1259 1.376 . S
C1259 C1258 1.376 . S
C1259 C1260 1.378 1_655 S
C1259 C1286 1.486 . S
C1260 H1222 0.930 . S
C1260 C1259 1.378 1_455 S
C1260 C1261 1.376 . S
C1261 H1223 0.929 . S
C1261 C1256 1.397 1_455 S
C1261 C1260 1.376 . S
C1262 C1246 1.509 . S
C1262 C1263 1.391 . S
C1262 C1267 1.386 1_655 S
C1263 H1224 0.930 . S
C1263 C1262 1.391 . S
C1263 C1264 1.375 . S
C1264 H1225 0.931 . S
C1264 C1263 1.375 . S
C1264 C1265 1.375 . S
C1265 C1264 1.375 . S
C1265 C1266 1.361 1_655 S
C1266 H1226 0.930 . S
C1266 C1265 1.361 1_455 S
C1266 C1267 1.399 . S
C1267 H1227 0.929 . S
C1267 C1262 1.386 1_455 S
C1267 C1266 1.399 . S
C1268 C1247 1.487 1_455 S
C1268 C1269 1.394 1_455 S
C1268 C1273 1.360 . S
C1269 H1228 0.931 . S
C1269 C1268 1.394 1_655 S
C1269 C1270 1.372 . S
C1270 H1229 0.930 . S
C1270 C1269 1.372 . S
C1270 C1271 1.397 1_655 S
C1271 C1270 1.397 1_455 S
C1271 C1272 1.390 . S
C1271 C1287 1.476 . S
C1272 H1230 0.930 . S
C1272 C1271 1.390 . S
C1272 C1273 1.366 . S
C1273 H1231 0.932 . S
C1273 C1268 1.360 . S
C1273 C1272 1.366 . S
C1274 C1248 1.485 . S
C1274 C1275 1.380 1_455 S
C1274 C1279 1.386 . S
C1275 H1232 0.930 . S
C1275 C1274 1.380 1_655 S
C1275 C1276 1.381 . S
C1276 H1233 0.929 . S
C1276 C1275 1.381 . S
C1276 C1277 1.371 1_655 S
C1277 C1276 1.371 1_455 S
C1277 C1278 1.380 . S
C1278 H1234 0.931 . S
C1278 C1277 1.380 . S
C1278 C1279 1.387 . S
C1279 H1235 0.930 . S
C1279 C1274 1.386 . S
C1279 C1278 1.387 . S
C1280 C1249 1.515 . S
C1280 C1281 1.377 1_455 S
C1280 C1285 1.361 . S
C1281 H1236 0.929 . S
C1281 C1280 1.377 1_655 S
C1281 C1282 1.386 . S
C1282 H1237 0.931 . S
C1282 C1281 1.386 . S
C1282 C1283 1.363 1_655 S
C1283 C1282 1.363 1_455 S
C1283 C1284 1.385 . S
C1284 H1238 0.930 . S
C1284 C1283 1.385 . S
C1284 C1285 1.396 . S
C1285 H1239 0.929 . S
C1285 C1280 1.361 . S
C1285 C1284 1.396 . S
C1286 O1240 1.300 . S
C1286 O1241 1.209 1_655 S
C1286 C1259 1.486 . S
C1287 O1242 1.199 1_455 S
C1287 O1243 1.297 . S
C1287 C1271 1.476 . S
H1288 O1314 0.856 . S
H1289 O1317 0.854 . S
H1290 C1325 0.930 . S
H1291 C1326 0.930 . S
H1292 C1328 0.930 . S
H1293 C1329 0.930 . S
H1294 C1331 0.931 . S
H1295 C1332 0.930 . S
H1296 C1334 0.930 . S
H1297 C1335 0.929 . S
H1298 C1337 0.930 . S
H1299 C1338 0.931 . S
H1300 C1340 0.930 . S
H1301 C1341 0.929 . S
H1302 C1343 0.931 . S
H1303 C1344 0.930 . S
H1304 C1346 0.930 . S
H1305 C1347 0.932 . S
H1306 C1349 0.930 . S
H1307 C1350 0.929 . S
H1308 C1352 0.931 . S
H1309 C1353 0.930 . S
H1310 C1355 0.929 . S
H1311 C1356 0.931 . S
H1312 C1358 0.930 . S
H1313 C1359 0.929 . S
O1314 H1288 0.856 . S
O1314 C1360 1.300 . S
O1315 C1360 1.209 . S
O1316 C1361 1.199 . S
O1317 H1289 0.854 . S
O1317 C1361 1.297 . S
C1318 C1319 1.404 . S
C1318 C1323 1.397 . S
C1318 C1324 1.492 . S
C1319 C1318 1.404 . S
C1319 C1320 1.396 . S
C1319 C1330 1.492 . S
C1320 C1319 1.396 . S
C1320 C1321 1.397 . S
C1320 C1336 1.509 . S
C1321 C1320 1.397 . S
C1321 C1322 1.412 . S
C1321 C1342 1.485 . S
C1322 C1321 1.412 . S
C1322 C1323 1.388 . S
C1322 C1348 1.490 . S
C1323 C1318 1.397 . S
C1323 C1322 1.388 . S
C1323 C1354 1.519 . S
C1324 C1318 1.492 . S
C1324 C1325 1.363 . S
C1324 C1329 1.390 . S
C1325 H1290 0.930 . S
C1325 C1324 1.363 . S
C1325 C1326 1.372 . S
C1326 H1291 0.930 . S
C1326 C1325 1.372 . S
C1326 C1327 1.383 . S
C1327 C1326 1.383 . S
C1327 C1328 1.395 . S
C1328 H1292 0.930 . S
C1328 C1327 1.395 . S
C1328 C1329 1.362 . S
C1329 H1293 0.930 . S
C1329 C1324 1.390 . S
C1329 C1328 1.362 . S
C1330 C1319 1.492 . S
C1330 C1331 1.377 . S
C1330 C1335 1.397 . S
C1331 H1294 0.931 . S
C1331 C1330 1.377 . S
C1331 C1332 1.376 . S
C1332 H1295 0.930 . S
C1332 C1331 1.376 . S
C1332 C1333 1.376 . S
C1333 C1332 1.376 . S
C1333 C1334 1.378 . S
C1333 C1360 1.486 . S
C1334 H1296 0.930 . S
C1334 C1333 1.378 . S
C1334 C1335 1.376 . S
C1335 H1297 0.929 . S
C1335 C1330 1.397 . S
C1335 C1334 1.376 . S
C1336 C1320 1.509 . S
C1336 C1337 1.391 . S
C1336 C1341 1.386 . S
C1337 H1298 0.930 . S
C1337 C1336 1.391 . S
C1337 C1338 1.375 . S
C1338 H1299 0.931 . S
C1338 C1337 1.375 . S
C1338 C1339 1.375 . S
C1339 C1338 1.375 . S
C1339 C1340 1.361 . S
C1340 H1300 0.930 . S
C1340 C1339 1.361 . S
C1340 C1341 1.399 . S
C1341 H1301 0.929 . S
C1341 C1336 1.386 . S
C1341 C1340 1.399 . S
C1342 C1321 1.485 . S
C1342 C1343 1.394 . S
C1342 C1347 1.360 . S
C1343 H1302 0.931 . S
C1343 C1342 1.394 . S
C1343 C1344 1.372 . S
C1344 H1303 0.930 . S
C1344 C1343 1.372 . S
C1344 C1345 1.397 . S
C1345 C1344 1.397 . S
C1345 C1346 1.390 . S
C1345 C1361 1.476 . S
C1346 H1304 0.930 . S
C1346 C1345 1.390 . S
C1346 C1347 1.366 . S
C1347 H1305 0.932 . S
C1347 C1342 1.360 . S
C1347 C1346 1.366 . S
C1348 C1322 1.490 . S
C1348 C1349 1.380 . S
C1348 C1353 1.386 . S
C1349 H1306 0.930 . S
C1349 C1348 1.380 . S
C1349 C1350 1.381 . S
C1350 H1307 0.929 . S
C1350 C1349 1.381 . S
C1350 C1351 1.371 . S
C1351 C1350 1.371 . S
C1351 C1352 1.380 . S
C1352 H1308 0.931 . S
C1352 C1351 1.380 . S
C1352 C1353 1.387 . S
C1353 H1309 0.930 . S
C1353 C1348 1.386 . S
C1353 C1352 1.387 . S
C1354 C1323 1.519 . S
C1354 C1355 1.377 . S
C1354 C1359 1.361 . S
C1355 H1310 0.929 . S
C1355 C1354 1.377 . S
C1355 C1356 1.386 . S
C1356 H1311 0.931 . S
C1356 C1355 1.386 . S
C1356 C1357 1.363 . S
C1357 C1356 1.363 . S
C1357 C1358 1.385 . S
C1358 H1312 0.930 . S
C1358 C1357 1.385 . S
C1358 C1359 1.396 . S
C1359 H1313 0.929 . S
C1359 C1354 1.361 . S
C1359 C1358 1.396 . S
C1360 O1314 1.300 . S
C1360 O1315 1.209 . S
C1360 C1333 1.486 . S
C1361 O1316 1.199 . S
C1361 O1317 1.297 . S
C1361 C1345 1.476 . S
H1362 O1388 0.856 . S
H1363 O1391 0.854 . S
H1364 C1399 0.930 . S
H1365 C1400 0.930 . S
H1366 C1402 0.930 . S
H1367 C1403 0.930 . S
H1368 C1405 0.931 . S
H1369 C1406 0.930 . S
H1370 C1408 0.930 . S
H1371 C1409 0.929 . S
H1372 C1411 0.930 . S
H1373 C1412 0.931 . S
H1374 C1414 0.930 . S
H1375 C1415 0.929 . S
H1376 C1417 0.931 . S
H1377 C1418 0.930 . S
H1378 C1420 0.930 . S
H1379 C1421 0.932 . S
H1380 C1423 0.930 . S
H1381 C1424 0.929 . S
H1382 C1426 0.931 . S
H1383 C1427 0.930 . S
H1384 C1429 0.929 . S
H1385 C1430 0.931 . S
H1386 C1432 0.930 . S
H1387 C1433 0.929 . S
O1388 H1362 0.856 . S
O1388 C1434 1.300 . S
O1389 C1434 1.209 . S
O1390 C1435 1.199 . S
O1391 H1363 0.854 . S
O1391 C1435 1.297 . S
C1392 C1393 1.404 . S
C1392 C1397 1.397 . S
C1392 C1398 1.492 . S
C1393 C1392 1.404 . S
C1393 C1394 1.396 . S
C1393 C1404 1.492 . S
C1394 C1393 1.396 . S
C1394 C1395 1.397 . S
C1394 C1410 1.509 . S
C1395 C1394 1.397 . S
C1395 C1396 1.412 . S
C1395 C1416 1.485 . S
C1396 C1395 1.412 . S
C1396 C1397 1.388 . S
C1396 C1422 1.490 . S
C1397 C1392 1.397 . S
C1397 C1396 1.388 . S
C1397 C1428 1.519 . S
C1398 C1392 1.492 . S
C1398 C1399 1.363 . S
C1398 C1403 1.390 . S
C1399 H1364 0.930 . S
C1399 C1398 1.363 . S
C1399 C1400 1.372 . S
C1400 H1365 0.930 . S
C1400 C1399 1.372 . S
C1400 C1401 1.383 . S
C1401 C1400 1.383 . S
C1401 C1402 1.395 . S
C1402 H1366 0.930 . S
C1402 C1401 1.395 . S
C1402 C1403 1.362 . S
C1403 H1367 0.930 . S
C1403 C1398 1.390 . S
C1403 C1402 1.362 . S
C1404 C1393 1.492 . S
C1404 C1405 1.377 . S
C1404 C1409 1.397 . S
C1405 H1368 0.931 . S
C1405 C1404 1.377 . S
C1405 C1406 1.376 . S
C1406 H1369 0.930 . S
C1406 C1405 1.376 . S
C1406 C1407 1.376 . S
C1407 C1406 1.376 . S
C1407 C1408 1.378 . S
C1407 C1434 1.486 . S
C1408 H1370 0.930 . S
C1408 C1407 1.378 . S
C1408 C1409 1.376 . S
C1409 H1371 0.929 . S
C1409 C1404 1.397 . S
C1409 C1408 1.376 . S
C1410 C1394 1.509 . S
C1410 C1411 1.391 . S
C1410 C1415 1.386 . S
C1411 H1372 0.930 . S
C1411 C1410 1.391 . S
C1411 C1412 1.375 . S
C1412 H1373 0.931 . S
C1412 C1411 1.375 . S
C1412 C1413 1.375 . S
C1413 C1412 1.375 . S
C1413 C1414 1.361 . S
C1414 H1374 0.930 . S
C1414 C1413 1.361 . S
C1414 C1415 1.399 . S
C1415 H1375 0.929 . S
C1415 C1410 1.386 . S
C1415 C1414 1.399 . S
C1416 C1395 1.485 . S
C1416 C1417 1.394 . S
C1416 C1421 1.360 . S
C1417 H1376 0.931 . S
C1417 C1416 1.394 . S
C1417 C1418 1.372 . S
C1418 H1377 0.930 . S
C1418 C1417 1.372 . S
C1418 C1419 1.397 . S
C1419 C1418 1.397 . S
C1419 C1420 1.390 . S
C1419 C1435 1.476 . S
C1420 H1378 0.930 . S
C1420 C1419 1.390 . S
C1420 C1421 1.366 . S
C1421 H1379 0.932 . S
C1421 C1416 1.360 . S
C1421 C1420 1.366 . S
C1422 C1396 1.490 . S
C1422 C1423 1.380 . S
C1422 C1427 1.386 . S
C1423 H1380 0.930 . S
C1423 C1422 1.380 . S
C1423 C1424 1.381 . S
C1424 H1381 0.929 . S
C1424 C1423 1.381 . S
C1424 C1425 1.371 . S
C1425 C1424 1.371 . S
C1425 C1426 1.380 . S
C1426 H1382 0.931 . S
C1426 C1425 1.380 . S
C1426 C1427 1.387 . S
C1427 H1383 0.930 . S
C1427 C1422 1.386 . S
C1427 C1426 1.387 . S
C1428 C1397 1.519 . S
C1428 C1429 1.377 . S
C1428 C1433 1.361 . S
C1429 H1384 0.929 . S
C1429 C1428 1.377 . S
C1429 C1430 1.386 . S
C1430 H1385 0.931 . S
C1430 C1429 1.386 . S
C1430 C1431 1.363 . S
C1431 C1430 1.363 . S
C1431 C1432 1.385 . S
C1432 H1386 0.930 . S
C1432 C1431 1.385 . S
C1432 C1433 1.396 . S
C1433 H1387 0.929 . S
C1433 C1428 1.361 . S
C1433 C1432 1.396 . S
C1434 O1388 1.300 . S
C1434 O1389 1.209 . S
C1434 C1407 1.486 . S
C1435 O1390 1.199 . S
C1435 O1391 1.297 . S
C1435 C1419 1.476 . S
H1436 O1462 0.856 . S
H1437 O1465 0.854 . S
H1438 C1473 0.930 . S
H1439 C1474 0.930 . S
H1440 C1476 0.930 . S
H1441 C1477 0.930 . S
H1442 C1479 0.931 . S
H1443 C1480 0.930 . S
H1444 C1482 0.930 . S
H1445 C1483 0.929 . S
H1446 C1485 0.930 . S
H1447 C1486 0.931 . S
H1448 C1488 0.930 . S
H1449 C1489 0.929 . S
H1450 C1491 0.931 . S
H1451 C1492 0.930 . S
H1452 C1494 0.930 . S
H1453 C1495 0.932 . S
H1454 C1497 0.930 . S
H1455 C1498 0.929 . S
H1456 C1500 0.931 . S
H1457 C1501 0.930 . S
H1458 C1503 0.929 . S
H1459 C1504 0.931 . S
H1460 C1506 0.930 . S
H1461 C1507 0.929 . S
O1462 H1436 0.856 . S
O1462 C1508 1.300 . S
O1463 C1508 1.209 . S
O1464 C1509 1.199 . S
O1465 H1437 0.854 . S
O1465 C1509 1.297 . S
C1466 C1467 1.404 . S
C1466 C1471 1.397 . S
C1466 C1472 1.492 . S
C1467 C1466 1.404 . S
C1467 C1468 1.396 . S
C1467 C1478 1.492 . S
C1468 C1467 1.396 . S
C1468 C1469 1.397 . S
C1468 C1484 1.509 . S
C1469 C1468 1.397 . S
C1469 C1470 1.412 . S
C1469 C1490 1.485 . S
C1470 C1469 1.412 . S
C1470 C1471 1.388 . S
C1470 C1496 1.490 . S
C1471 C1466 1.397 . S
C1471 C1470 1.388 . S
C1471 C1502 1.519 . S
C1472 C1466 1.492 . S
C1472 C1473 1.363 . S
C1472 C1477 1.390 . S
C1473 H1438 0.930 . S
C1473 C1472 1.363 . S
C1473 C1474 1.372 . S
C1474 H1439 0.930 . S
C1474 C1473 1.372 . S
C1474 C1475 1.383 . S
C1475 C1474 1.383 . S
C1475 C1476 1.395 . S
C1476 H1440 0.930 . S
C1476 C1475 1.395 . S
C1476 C1477 1.362 . S
C1477 H1441 0.930 . S
C1477 C1472 1.390 . S
C1477 C1476 1.362 . S
C1478 C1467 1.492 . S
C1478 C1479 1.377 . S
C1478 C1483 1.397 . S
C1479 H1442 0.931 . S
C1479 C1478 1.377 . S
C1479 C1480 1.376 . S
C1480 H1443 0.930 . S
C1480 C1479 1.376 . S
C1480 C1481 1.376 . S
C1481 C1480 1.376 . S
C1481 C1482 1.378 . S
C1481 C1508 1.486 . S
C1482 H1444 0.930 . S
C1482 C1481 1.378 . S
C1482 C1483 1.376 . S
C1483 H1445 0.929 . S
C1483 C1478 1.397 . S
C1483 C1482 1.376 . S
C1484 C1468 1.509 . S
C1484 C1485 1.391 . S
C1484 C1489 1.386 . S
C1485 H1446 0.930 . S
C1485 C1484 1.391 . S
C1485 C1486 1.375 . S
C1486 H1447 0.931 . S
C1486 C1485 1.375 . S
C1486 C1487 1.375 . S
C1487 C1486 1.375 . S
C1487 C1488 1.361 . S
C1488 H1448 0.930 . S
C1488 C1487 1.361 . S
C1488 C1489 1.399 . S
C1489 H1449 0.929 . S
C1489 C1484 1.386 . S
C1489 C1488 1.399 . S
C1490 C1469 1.485 . S
C1490 C1491 1.394 . S
C1490 C1495 1.360 . S
C1491 H1450 0.931 . S
C1491 C1490 1.394 . S
C1491 C1492 1.372 . S
C1492 H1451 0.930 . S
C1492 C1491 1.372 . S
C1492 C1493 1.397 . S
C1493 C1492 1.397 . S
C1493 C1494 1.390 . S
C1493 C1509 1.476 . S
C1494 H1452 0.930 . S
C1494 C1493 1.390 . S
C1494 C1495 1.366 . S
C1495 H1453 0.932 . S
C1495 C1490 1.360 . S
C1495 C1494 1.366 . S
C1496 C1470 1.490 . S
C1496 C1497 1.380 . S
C1496 C1501 1.386 . S
C1497 H1454 0.930 . S
C1497 C1496 1.380 . S
C1497 C1498 1.381 . S
C1498 H1455 0.929 . S
C1498 C1497 1.381 . S
C1498 C1499 1.371 . S
C1499 C1498 1.371 . S
C1499 C1500 1.380 . S
C1500 H1456 0.931 . S
C1500 C1499 1.380 . S
C1500 C1501 1.387 . S
C1501 H1457 0.930 . S
C1501 C1496 1.386 . S
C1501 C1500 1.387 . S
C1502 C1471 1.519 . S
C1502 C1503 1.377 . S
C1502 C1507 1.361 . S
C1503 H1458 0.929 . S
C1503 C1502 1.377 . S
C1503 C1504 1.386 . S
C1504 H1459 0.931 . S
C1504 C1503 1.386 . S
C1504 C1505 1.363 . S
C1505 C1504 1.363 . S
C1505 C1506 1.385 . S
C1506 H1460 0.930 . S
C1506 C1505 1.385 . S
C1506 C1507 1.396 . S
C1507 H1461 0.929 . S
C1507 C1502 1.361 . S
C1507 C1506 1.396 . S
C1508 O1462 1.300 . S
C1508 O1463 1.209 . S
C1508 C1481 1.486 . S
C1509 O1464 1.199 . S
C1509 O1465 1.297 . S
C1509 C1493 1.476 . S
H1510 O1536 0.856 . S
H1511 O1539 0.854 . S
H1512 C1547 0.930 . S
H1513 C1548 0.930 . S
H1514 C1550 0.930 . S
H1515 C1551 0.930 . S
H1516 C1553 0.931 . S
H1517 C1554 0.930 . S
H1518 C1556 0.930 . S
H1519 C1557 0.929 . S
H1520 C1559 0.930 . S
H1521 C1560 0.931 . S
H1522 C1562 0.930 . S
H1523 C1563 0.929 . S
H1524 C1565 0.931 . S
H1525 C1566 0.930 . S
H1526 C1568 0.930 . S
H1527 C1569 0.932 . S
H1528 C1571 0.930 . S
H1529 C1572 0.929 . S
H1530 C1574 0.931 . S
H1531 C1575 0.930 . S
H1532 C1577 0.929 . S
H1533 C1578 0.931 . S
H1534 C1580 0.930 . S
H1535 C1581 0.929 . S
O1536 H1510 0.856 . S
O1536 C1582 1.300 . S
O1537 C1582 1.209 . S
O1538 C1583 1.199 . S
O1539 H1511 0.854 . S
O1539 C1583 1.297 . S
C1540 C1541 1.404 . S
C1540 C1545 1.397 . S
C1540 C1546 1.492 . S
C1541 C1540 1.404 . S
C1541 C1542 1.396 . S
C1541 C1552 1.492 . S
C1542 C1541 1.396 . S
C1542 C1543 1.397 . S
C1542 C1558 1.509 . S
C1543 C1542 1.397 . S
C1543 C1544 1.412 . S
C1543 C1564 1.485 . S
C1544 C1543 1.412 . S
C1544 C1545 1.388 . S
C1544 C1570 1.490 . S
C1545 C1540 1.397 . S
C1545 C1544 1.388 . S
C1545 C1576 1.519 . S
C1546 C1540 1.492 . S
C1546 C1547 1.363 . S
C1546 C1551 1.390 . S
C1547 H1512 0.930 . S
C1547 C1546 1.363 . S
C1547 C1548 1.372 . S
C1548 H1513 0.930 . S
C1548 C1547 1.372 . S
C1548 C1549 1.383 . S
C1549 C1548 1.383 . S
C1549 C1550 1.395 . S
C1550 H1514 0.930 . S
C1550 C1549 1.395 . S
C1550 C1551 1.362 . S
C1551 H1515 0.930 . S
C1551 C1546 1.390 . S
C1551 C1550 1.362 . S
C1552 C1541 1.492 . S
C1552 C1553 1.377 . S
C1552 C1557 1.397 . S
C1553 H1516 0.931 . S
C1553 C1552 1.377 . S
C1553 C1554 1.376 . S
C1554 H1517 0.930 . S
C1554 C1553 1.376 . S
C1554 C1555 1.376 . S
C1555 C1554 1.376 . S
C1555 C1556 1.378 . S
C1555 C1582 1.486 . S
C1556 H1518 0.930 . S
C1556 C1555 1.378 . S
C1556 C1557 1.376 . S
C1557 H1519 0.929 . S
C1557 C1552 1.397 . S
C1557 C1556 1.376 . S
C1558 C1542 1.509 . S
C1558 C1559 1.391 . S
C1558 C1563 1.386 . S
C1559 H1520 0.930 . S
C1559 C1558 1.391 . S
C1559 C1560 1.375 . S
C1560 H1521 0.931 . S
C1560 C1559 1.375 . S
C1560 C1561 1.375 . S
C1561 C1560 1.375 . S
C1561 C1562 1.361 . S
C1562 H1522 0.930 . S
C1562 C1561 1.361 . S
C1562 C1563 1.399 . S
C1563 H1523 0.929 . S
C1563 C1558 1.386 . S
C1563 C1562 1.399 . S
C1564 C1543 1.485 . S
C1564 C1565 1.394 . S
C1564 C1569 1.360 . S
C1565 H1524 0.931 . S
C1565 C1564 1.394 . S
C1565 C1566 1.372 . S
C1566 H1525 0.930 . S
C1566 C1565 1.372 . S
C1566 C1567 1.397 . S
C1567 C1566 1.397 . S
C1567 C1568 1.390 . S
C1567 C1583 1.476 . S
C1568 H1526 0.930 . S
C1568 C1567 1.390 . S
C1568 C1569 1.366 . S
C1569 H1527 0.932 . S
C1569 C1564 1.360 . S
C1569 C1568 1.366 . S
C1570 C1544 1.490 . S
C1570 C1571 1.380 . S
C1570 C1575 1.386 . S
C1571 H1528 0.930 . S
C1571 C1570 1.380 . S
C1571 C1572 1.381 . S
C1572 H1529 0.929 . S
C1572 C1571 1.381 . S
C1572 C1573 1.371 . S
C1573 C1572 1.371 . S
C1573 C1574 1.380 . S
C1574 H1530 0.931 . S
C1574 C1573 1.380 . S
C1574 C1575 1.387 . S
C1575 H1531 0.930 . S
C1575 C1570 1.386 . S
C1575 C1574 1.387 . S
C1576 C1545 1.519 . S
C1576 C1577 1.377 . S
C1576 C1581 1.361 . S
C1577 H1532 0.929 . S
C1577 C1576 1.377 . S
C1577 C1578 1.386 . S
C1578 H1533 0.931 . S
C1578 C1577 1.386 . S
C1578 C1579 1.363 . S
C1579 C1578 1.363 . S
C1579 C1580 1.385 . S
C1580 H1534 0.930 . S
C1580 C1579 1.385 . S
C1580 C1581 1.396 . S
C1581 H1535 0.929 . S
C1581 C1576 1.361 . S
C1581 C1580 1.396 . S
C1582 O1536 1.300 . S
C1582 O1537 1.209 . S
C1582 C1555 1.486 . S
C1583 O1538 1.199 . S
C1583 O1539 1.297 . S
C1583 C1567 1.476 . S
H1584 C1590 0.930 . S
H1585 C1594 0.930 . S
H1586 C1599 0.929 . S
H1587 C1597 0.929 . S
H1588 C1592 0.923 1_455 S
H1589 C1598 0.929 . S
C1590 H1584 0.930 . S
C1590 C1591 1.367 . S
C1590 C1598 1.378 . S
C1591 C1590 1.367 . S
C1591 C1599 1.433 1_655 S
C1592 H1588 0.923 1_655 S
C1592 C1594 1.378 . S
C1592 C1596 1.350 . S
C1593 C1596 1.463 . S
C1593 C1598 1.350 . S
C1593 N1601 1.413 1_655 S
C1594 H1585 0.930 . S
C1594 C1592 1.378 . S
C1594 C1595 1.367 . S
C1595 C1594 1.367 . S
C1595 C1597 1.433 . S
C1596 C1592 1.350 . S
C1596 C1593 1.463 . S
C1596 N1600 1.427 . S
C1597 H1587 0.929 . S
C1597 C1595 1.433 . S
C1597 N1600 1.384 . S
C1598 H1589 0.929 . S
C1598 C1590 1.378 . S
C1598 C1593 1.350 . S
C1599 H1586 0.929 . S
C1599 C1591 1.433 1_455 S
C1599 N1601 1.413 . S
N1600 C1596 1.427 . S
N1600 C1597 1.384 . S
N1601 C1593 1.413 1_455 S
N1601 C1599 1.413 . S
H1602 C1608 0.930 . S
H1603 C1612 0.930 . S
H1604 C1617 0.929 . S
H1605 C1615 0.929 . S
H1606 C1610 0.929 . S
H1607 C1616 0.929 . S
C1608 H1602 0.930 . S
C1608 C1609 1.367 . S
C1608 C1616 1.378 . S
C1609 C1608 1.367 . S
C1609 C1617 1.433 . S
C1610 H1606 0.929 . S
C1610 C1612 1.378 . S
C1610 C1614 1.350 . S
C1611 C1614 1.463 . S
C1611 C1616 1.350 . S
C1611 N1619 1.427 . S
C1612 H1603 0.930 . S
C1612 C1610 1.378 . S
C1612 C1613 1.367 . S
C1613 C1612 1.367 . S
C1613 C1615 1.433 . S
C1614 C1610 1.350 . S
C1614 C1611 1.463 . S
C1614 N1618 1.427 . S
C1615 H1605 0.929 . S
C1615 C1613 1.433 . S
C1615 N1618 1.384 . S
C1616 H1607 0.929 . S
C1616 C1608 1.378 . S
C1616 C1611 1.350 . S
C1617 H1604 0.929 . S
C1617 C1609 1.433 . S
C1617 N1619 1.384 . S
N1618 C1614 1.427 . S
N1618 C1615 1.384 . S
N1619 C1611 1.427 . S
N1619 C1617 1.384 . S
H1620 C1626 0.930 . S
H1621 C1630 0.930 1_565 S
H1622 C1635 0.929 1_565 S
H1623 C1633 0.929 . S
H1624 C1628 0.929 1_565 S
H1625 C1634 0.929 . S
C1626 H1620 0.930 . S
C1626 C1627 1.367 . S
C1626 C1634 1.378 . S
C1627 C1626 1.367 . S
C1627 C1635 1.433 . S
C1628 H1624 0.929 1_545 S
C1628 C1630 1.378 . S
C1628 C1632 1.350 . S
C1629 C1632 1.463 . S
C1629 C1634 1.350 . S
C1629 N1637 1.427 . S
C1630 H1621 0.930 1_545 S
C1630 C1628 1.378 . S
C1630 C1631 1.367 . S
C1631 C1630 1.367 . S
C1631 C1633 1.433 . S
C1632 C1628 1.350 . S
C1632 C1629 1.463 . S
C1632 N1636 1.427 . S
C1633 H1623 0.929 . S
C1633 C1631 1.433 . S
C1633 N1636 1.384 . S
C1634 H1625 0.929 . S
C1634 C1626 1.378 . S
C1634 C1629 1.350 . S
C1635 H1622 0.929 1_545 S
C1635 C1627 1.433 . S
C1635 N1637 1.384 . S
N1636 C1632 1.427 . S
N1636 C1633 1.384 . S
N1637 C1629 1.427 . S
N1637 C1635 1.384 . S
H1638 C1644 0.930 . S
H1639 C1648 0.930 . S
H1640 C1653 0.929 . S
H1641 C1651 0.929 . S
H1642 C1646 0.929 . S
H1643 C1652 0.929 . S
C1644 H1638 0.930 . S
C1644 C1645 1.367 . S
C1644 C1652 1.378 . S
C1645 C1644 1.367 . S
C1645 C1653 1.433 . S
C1646 H1642 0.929 . S
C1646 C1648 1.378 . S
C1646 C1650 1.350 . S
C1647 C1650 1.463 . S
C1647 C1652 1.350 . S
C1647 N1655 1.427 . S
C1648 H1639 0.930 . S
C1648 C1646 1.378 . S
C1648 C1649 1.367 . S
C1649 C1648 1.367 . S
C1649 C1651 1.433 . S
C1650 C1646 1.350 . S
C1650 C1647 1.463 . S
C1650 N1654 1.427 . S
C1651 H1641 0.929 . S
C1651 C1649 1.433 . S
C1651 N1654 1.384 . S
C1652 H1643 0.929 . S
C1652 C1644 1.378 . S
C1652 C1647 1.350 . S
C1653 H1640 0.929 . S
C1653 C1645 1.433 . S
C1653 N1655 1.384 . S
N1654 C1650 1.427 . S
N1654 C1651 1.384 . S
N1655 C1647 1.427 . S
N1655 C1653 1.384 . S
H1656 C1662 0.930 . S
H1657 C1666 0.930 1_655 S
H1658 C1671 0.929 1_655 S
H1659 C1669 0.929 . S
H1660 C1664 0.929 1_655 S
H1661 C1670 0.929 . S
C1662 H1656 0.930 . S
C1662 C1663 1.367 . S
C1662 C1670 1.378 . S
C1663 C1662 1.367 . S
C1663 C1671 1.433 . S
C1664 H1660 0.929 1_455 S
C1664 C1666 1.378 . S
C1664 C1668 1.350 . S
C1665 C1668 1.463 . S
C1665 C1670 1.350 . S
C1665 N1673 1.427 . S
C1666 H1657 0.930 1_455 S
C1666 C1664 1.378 . S
C1666 C1667 1.367 . S
C1667 C1666 1.367 . S
C1667 C1669 1.433 . S
C1668 C1664 1.350 . S
C1668 C1665 1.463 . S
C1668 N1672 1.427 . S
C1669 H1659 0.929 . S
C1669 C1667 1.433 . S
C1669 N1672 1.384 . S
C1670 H1661 0.929 . S
C1670 C1662 1.378 . S
C1670 C1665 1.350 . S
C1671 H1658 0.929 1_455 S
C1671 C1663 1.433 . S
C1671 N1673 1.384 . S
N1672 C1668 1.427 . S
N1672 C1669 1.384 . S
N1673 C1665 1.427 . S
N1673 C1671 1.384 . S
H1674 C1680 0.930 . S
H1675 C1684 0.930 . S
H1676 C1689 0.929 . S
H1677 C1687 0.929 . S
H1678 C1682 0.929 . S
H1679 C1688 0.929 . S
C1680 H1674 0.930 . S
C1680 C1681 1.367 . S
C1680 C1688 1.378 . S
C1681 C1680 1.367 . S
C1681 C1689 1.433 . S
C1682 H1678 0.929 . S
C1682 C1684 1.378 . S
C1682 C1686 1.350 . S
C1683 C1686 1.463 . S
C1683 C1688 1.350 1_556 S
C1683 N1691 1.427 . S
C1684 H1675 0.930 . S
C1684 C1682 1.378 . S
C1684 C1685 1.367 . S
C1685 C1684 1.367 . S
C1685 C1687 1.433 . S
C1686 C1682 1.350 . S
C1686 C1683 1.463 . S
C1686 N1690 1.427 . S
C1687 H1677 0.929 . S
C1687 C1685 1.433 . S
C1687 N1690 1.384 . S
C1688 H1679 0.929 . S
C1688 C1680 1.378 . S
C1688 C1683 1.350 1_554 S
C1689 H1676 0.929 . S
C1689 C1681 1.433 . S
C1689 N1691 1.384 1_554 S
N1690 C1686 1.427 . S
N1690 C1687 1.384 . S
N1691 C1683 1.427 . S
N1691 C1689 1.384 1_556 S
H1692 C1698 0.930 . S
H1693 C1702 0.930 . S
H1694 C1707 0.929 . S
H1695 C1705 0.929 . S
H1696 C1700 0.929 . S
H1697 C1706 0.929 . S
C1698 H1692 0.930 . S
C1698 C1699 1.367 1_656 S
C1698 C1706 1.378 . S
C1699 C1698 1.367 1_454 S
C1699 C1707 1.433 . S
C1700 H1696 0.929 . S
C1700 C1702 1.378 . S
C1700 C1704 1.350 . S
C1701 C1704 1.463 . S
C1701 C1706 1.350 1_455 S
C1701 N1709 1.441 . S
C1702 H1693 0.930 . S
C1702 C1700 1.378 . S
C1702 C1703 1.367 . S
C1703 C1702 1.367 . S
C1703 C1705 1.433 1_455 S
C1704 C1700 1.350 . S
C1704 C1701 1.463 . S
C1704 N1708 1.427 1_455 S
C1705 H1695 0.929 . S
C1705 C1703 1.433 1_655 S
C1705 N1708 1.384 . S
C1706 H1697 0.929 . S
C1706 C1698 1.378 . S
C1706 C1701 1.350 1_655 S
C1707 H1694 0.929 . S
C1707 C1699 1.433 . S
C1707 N1709 1.372 1_554 S
N1708 C1704 1.427 1_655 S
N1708 C1705 1.384 . S
N1709 C1701 1.441 . S
N1709 C1707 1.372 1_556 S
H1710 C1716 0.930 . S
H1711 C1720 0.930 . S
H1712 C1725 0.929 . S
H1713 C1723 0.929 . S
H1714 C1718 0.929 . S
H1715 C1724 0.929 . S
C1716 H1710 0.930 . S
C1716 C1717 1.367 . S
C1716 C1724 1.378 . S
C1717 C1716 1.367 . S
C1717 C1725 1.433 . S
C1718 H1714 0.929 . S
C1718 C1720 1.378 . S
C1718 C1722 1.350 . S
C1719 C1722 1.463 . S
C1719 C1724 1.350 . S
C1719 N1727 1.427 . S
C1720 H1711 0.930 . S
C1720 C1718 1.378 . S
C1720 C1721 1.367 . S
C1721 C1720 1.367 . S
C1721 C1723 1.433 . S
C1722 C1718 1.350 . S
C1722 C1719 1.463 . S
C1722 N1726 1.427 . S
C1723 H1713 0.929 . S
C1723 C1721 1.433 . S
C1723 N1726 1.384 . S
C1724 H1715 0.929 . S
C1724 C1716 1.378 . S
C1724 C1719 1.350 . S
C1725 H1712 0.929 . S
C1725 C1717 1.433 . S
C1725 N1727 1.384 . S
N1726 C1722 1.427 . S
N1726 C1723 1.384 . S
N1727 C1719 1.427 . S
N1727 C1725 1.384 . S
H1728 C1734 0.930 . S
H1729 C1738 0.930 . S
H1730 C1743 0.929 . S
H1731 C1741 0.929 . S
H1732 C1736 0.929 . S
H1733 C1742 0.929 . S
C1734 H1728 0.930 . S
C1734 C1735 1.367 1_566 S
C1734 C1742 1.378 . S
C1735 C1734 1.367 1_544 S
C1735 C1743 1.433 . S
C1736 H1732 0.929 . S
C1736 C1738 1.378 . S
C1736 C1740 1.350 . S
C1737 C1740 1.463 . S
C1737 C1742 1.350 1_545 S
C1737 N1745 1.427 . S
C1738 H1729 0.930 . S
C1738 C1736 1.378 . S
C1738 C1739 1.367 . S
C1739 C1738 1.367 . S
C1739 C1741 1.433 1_545 S
C1740 C1736 1.350 . S
C1740 C1737 1.463 . S
C1740 N1744 1.427 1_545 S
C1741 H1731 0.929 . S
C1741 C1739 1.433 1_565 S
C1741 N1744 1.384 . S
C1742 H1733 0.929 . S
C1742 C1734 1.378 . S
C1742 C1737 1.350 1_565 S
C1743 H1730 0.929 . S
C1743 C1735 1.433 . S
C1743 N1745 1.384 1_554 S
N1744 C1740 1.427 1_565 S
N1744 C1741 1.384 . S
N1745 C1737 1.427 . S
N1745 C1743 1.384 1_556 S
H1746 C1752 0.930 . S
H1747 C1756 0.930 . S
H1748 C1761 0.929 1_565 S
H1749 C1759 0.929 . S
H1750 C1754 0.929 . S
H1751 C1760 0.929 . S
C1752 H1746 0.930 . S
C1752 C1753 1.367 . S
C1752 C1760 1.378 . S
C1753 C1752 1.367 . S
C1753 C1761 1.433 . S
C1754 H1750 0.929 . S
C1754 C1756 1.378 . S
C1754 C1758 1.350 1_565 S
C1755 C1758 1.463 . S
C1755 C1760 1.350 . S
C1755 N1763 1.427 . S
C1756 H1747 0.930 . S
C1756 C1754 1.378 . S
C1756 C1757 1.367 1_565 S
C1757 C1756 1.367 1_545 S
C1757 C1759 1.433 . S
C1758 C1754 1.350 1_545 S
C1758 C1755 1.463 . S
C1758 N1762 1.427 . S
C1759 H1749 0.929 . S
C1759 C1757 1.433 . S
C1759 N1762 1.384 . S
C1760 H1751 0.929 . S
C1760 C1752 1.378 . S
C1760 C1755 1.350 . S
C1761 H1748 0.929 1_545 S
C1761 C1753 1.433 . S
C1761 N1763 1.384 . S
N1762 C1758 1.427 . S
N1762 C1759 1.384 . S
N1763 C1755 1.427 . S
N1763 C1761 1.384 . S
H1764 C1770 0.930 . S
H1765 C1774 0.930 . S
H1766 C1779 0.929 . S
H1767 C1777 0.931 1_455 S
H1768 C1772 0.929 . S
H1769 C1778 0.929 . S
C1770 H1764 0.930 . S
C1770 C1771 1.367 . S
C1770 C1778 1.378 . S
C1771 C1770 1.367 . S
C1771 C1779 1.433 . S
C1772 H1768 0.929 . S
C1772 C1774 1.378 . S
C1772 C1776 1.350 . S
C1773 C1776 1.463 . S
C1773 C1778 1.350 . S
C1773 N1781 1.427 . S
C1774 H1765 0.930 . S
C1774 C1772 1.378 . S
C1774 C1775 1.364 . S
C1775 C1774 1.364 . S
C1775 C1777 1.442 . S
C1776 C1772 1.350 . S
C1776 C1773 1.463 . S
C1776 N1780 1.427 . S
C1777 H1767 0.931 1_655 S
C1777 C1775 1.442 . S
C1777 N1780 1.390 . S
C1778 H1769 0.929 . S
C1778 C1770 1.378 . S
C1778 C1773 1.350 . S
C1779 H1766 0.929 . S
C1779 C1771 1.433 . S
C1779 N1781 1.384 . S
N1780 C1776 1.427 . S
N1780 C1777 1.390 . S
N1781 C1773 1.427 . S
N1781 C1779 1.384 . S
H1782 C1788 0.930 . S
H1783 C1792 0.930 . S
H1784 C1797 0.929 . S
H1785 C1795 0.929 . S
H1786 C1790 0.929 . S
H1787 C1796 0.929 . S
C1788 H1782 0.930 . S
C1788 C1789 1.367 . S
C1788 C1796 1.378 . S
C1789 C1788 1.367 . S
C1789 C1797 1.433 . S
C1790 H1786 0.929 . S
C1790 C1792 1.378 . S
C1790 C1794 1.350 . S
C1791 C1794 1.463 . S
C1791 C1796 1.350 . S
C1791 N1799 1.427 . S
C1792 H1783 0.930 . S
C1792 C1790 1.378 . S
C1792 C1793 1.367 . S
C1793 C1792 1.367 . S
C1793 C1795 1.433 . S
C1794 C1790 1.350 . S
C1794 C1791 1.463 . S
C1794 N1798 1.427 . S
C1795 H1785 0.929 . S
C1795 C1793 1.433 . S
C1795 N1798 1.384 . S
C1796 H1787 0.929 . S
C1796 C1788 1.378 . S
C1796 C1791 1.350 . S
C1797 H1784 0.929 . S
C1797 C1789 1.433 . S
C1797 N1799 1.384 . S
N1798 C1794 1.427 . S
N1798 C1795 1.384 . S
N1799 C1791 1.427 . S
N1799 C1797 1.384 . S
H1800 C1806 0.930 . S
H1801 C1810 0.930 . S
H1802 C1815 0.929 . S
H1803 C1813 0.929 . S
H1804 C1808 0.929 . S
H1805 C1814 0.929 . S
C1806 H1800 0.930 . S
C1806 C1807 1.367 . S
C1806 C1814 1.378 . S
C1807 C1806 1.367 . S
C1807 C1815 1.433 . S
C1808 H1804 0.929 . S
C1808 C1810 1.378 . S
C1808 C1812 1.350 . S
C1809 C1812 1.463 . S
C1809 C1814 1.350 . S
C1809 N1817 1.427 . S
C1810 H1801 0.930 . S
C1810 C1808 1.378 . S
C1810 C1811 1.367 . S
C1811 C1810 1.367 . S
C1811 C1813 1.433 . S
C1812 C1808 1.350 . S
C1812 C1809 1.463 . S
C1812 N1816 1.427 . S
C1813 H1803 0.929 . S
C1813 C1811 1.433 . S
C1813 N1816 1.384 . S
C1814 H1805 0.929 . S
C1814 C1806 1.378 . S
C1814 C1809 1.350 . S
C1815 H1802 0.929 . S
C1815 C1807 1.433 . S
C1815 N1817 1.384 . S
N1816 C1812 1.427 . S
N1816 C1813 1.384 . S
N1817 C1809 1.427 . S
N1817 C1815 1.384 . S
H1818 C1824 0.930 . S
H1819 C1828 0.930 . S
H1820 C1833 0.929 . S
H1821 C1831 0.929 . S
H1822 C1826 0.929 . S
H1823 C1832 0.929 . S
C1824 H1818 0.930 . S
C1824 C1825 1.367 . S
C1824 C1832 1.378 . S
C1825 C1824 1.367 . S
C1825 C1833 1.433 . S
C1826 H1822 0.929 . S
C1826 C1828 1.378 . S
C1826 C1830 1.350 . S
C1827 C1830 1.463 . S
C1827 C1832 1.350 . S
C1827 N1835 1.427 . S
C1828 H1819 0.930 . S
C1828 C1826 1.378 . S
C1828 C1829 1.367 . S
C1829 C1828 1.367 . S
C1829 C1831 1.433 . S
C1830 C1826 1.350 . S
C1830 C1827 1.463 . S
C1830 N1834 1.427 . S
C1831 H1821 0.929 . S
C1831 C1829 1.433 . S
C1831 N1834 1.384 . S
C1832 H1823 0.929 . S
C1832 C1824 1.378 . S
C1832 C1827 1.350 . S
C1833 H1820 0.929 . S
C1833 C1825 1.433 . S
C1833 N1835 1.384 . S
N1834 C1830 1.427 . S
N1834 C1831 1.384 . S
N1835 C1827 1.427 . S
N1835 C1833 1.384 . S
H1836 C1842 0.930 . S
H1837 C1846 0.930 . S
H1838 C1851 0.929 . S
H1839 C1849 0.929 . S
H1840 C1844 0.929 . S
H1841 C1850 0.929 . S
C1842 H1836 0.930 . S
C1842 C1843 1.367 . S
C1842 C1850 1.378 . S
C1843 C1842 1.367 . S
C1843 C1851 1.433 . S
C1844 H1840 0.929 . S
C1844 C1846 1.378 . S
C1844 C1848 1.350 . S
C1845 C1848 1.463 . S
C1845 C1850 1.350 . S
C1845 N1853 1.427 . S
C1846 H1837 0.930 . S
C1846 C1844 1.378 . S
C1846 C1847 1.367 . S
C1847 C1846 1.367 . S
C1847 C1849 1.433 . S
C1848 C1844 1.350 . S
C1848 C1845 1.463 . S
C1848 N1852 1.427 . S
C1849 H1839 0.929 . S
C1849 C1847 1.433 . S
C1849 N1852 1.384 . S
C1850 H1841 0.929 . S
C1850 C1842 1.378 . S
C1850 C1845 1.350 . S
C1851 H1838 0.929 . S
C1851 C1843 1.433 . S
C1851 N1853 1.384 . S
N1852 C1848 1.427 . S
N1852 C1849 1.384 . S
N1853 C1845 1.427 . S
N1853 C1851 1.384 . S
H1854 C1860 0.930 . S
H1855 C1864 0.930 . S
H1856 C1869 0.929 . S
H1857 C1867 0.929 . S
H1858 C1862 0.929 . S
H1859 C1868 0.929 . S
C1860 H1854 0.930 . S
C1860 C1861 1.367 . S
C1860 C1868 1.378 . S
C1861 C1860 1.367 . S
C1861 C1869 1.433 . S
C1862 H1858 0.929 . S
C1862 C1864 1.378 . S
C1862 C1866 1.350 . S
C1863 C1866 1.463 . S
C1863 C1868 1.350 . S
C1863 N1871 1.427 . S
C1864 H1855 0.930 . S
C1864 C1862 1.378 . S
C1864 C1865 1.367 . S
C1865 C1864 1.367 . S
C1865 C1867 1.433 . S
C1866 C1862 1.350 . S
C1866 C1863 1.463 . S
C1866 N1870 1.427 . S
C1867 H1857 0.929 . S
C1867 C1865 1.433 . S
C1867 N1870 1.384 . S
C1868 H1859 0.929 . S
C1868 C1860 1.378 . S
C1868 C1863 1.350 . S
C1869 H1856 0.929 . S
C1869 C1861 1.433 . S
C1869 N1871 1.384 . S
N1870 C1866 1.427 . S
N1870 C1867 1.384 . S
N1871 C1863 1.427 . S
N1871 C1869 1.384 . S
H1872 C1878 0.930 . S
H1873 C1882 0.930 . S
H1874 C1887 0.929 . S
H1875 C1885 0.929 . S
H1876 C1880 0.929 . S
H1877 C1886 0.929 . S
C1878 H1872 0.930 . S
C1878 C1879 1.367 . S
C1878 C1886 1.378 . S
C1879 C1878 1.367 . S
C1879 C1887 1.433 . S
C1880 H1876 0.929 . S
C1880 C1882 1.378 . S
C1880 C1884 1.350 . S
C1881 C1884 1.463 . S
C1881 C1886 1.350 . S
C1881 N1889 1.427 . S
C1882 H1873 0.930 . S
C1882 C1880 1.378 . S
C1882 C1883 1.367 . S
C1883 C1882 1.367 . S
C1883 C1885 1.433 . S
C1884 C1880 1.350 . S
C1884 C1881 1.463 . S
C1884 N1888 1.427 . S
C1885 H1875 0.929 . S
C1885 C1883 1.433 . S
C1885 N1888 1.384 . S
C1886 H1877 0.929 . S
C1886 C1878 1.378 . S
C1886 C1881 1.350 . S
C1887 H1874 0.929 . S
C1887 C1879 1.433 . S
C1887 N1889 1.384 . S
N1888 C1884 1.427 . S
N1888 C1885 1.384 . S
N1889 C1881 1.427 . S
N1889 C1887 1.384 . S
H1890 C1896 0.930 . S
H1891 C1900 0.930 . S
H1892 C1905 0.929 . S
H1893 C1903 0.929 . S
H1894 C1898 0.929 . S
H1895 C1904 0.929 . S
C1896 H1890 0.930 . S
C1896 C1897 1.367 . S
C1896 C1904 1.378 . S
C1897 C1896 1.367 . S
C1897 C1905 1.433 . S
C1898 H1894 0.929 . S
C1898 C1900 1.378 . S
C1898 C1902 1.350 . S
C1899 C1902 1.463 . S
C1899 C1904 1.350 . S
C1899 N1907 1.427 . S
C1900 H1891 0.930 . S
C1900 C1898 1.378 . S
C1900 C1901 1.367 . S
C1901 C1900 1.367 . S
C1901 C1903 1.433 . S
C1902 C1898 1.350 . S
C1902 C1899 1.463 . S
C1902 N1906 1.427 . S
C1903 H1893 0.929 . S
C1903 C1901 1.433 . S
C1903 N1906 1.384 . S
C1904 H1895 0.929 . S
C1904 C1896 1.378 . S
C1904 C1899 1.350 . S
C1905 H1892 0.929 . S
C1905 C1897 1.433 . S
C1905 N1907 1.384 . S
N1906 C1902 1.427 . S
N1906 C1903 1.384 . S
N1907 C1899 1.427 . S
N1907 C1905 1.384 . S
H1908 C1914 0.930 . S
H1909 C1918 0.930 . S
H1910 C1923 0.929 . S
H1911 C1921 0.929 . S
H1912 C1916 0.929 . S
H1913 C1922 0.929 . S
C1914 H1908 0.930 . S
C1914 C1915 1.367 . S
C1914 C1922 1.378 . S
C1915 C1914 1.367 . S
C1915 C1923 1.433 . S
C1916 H1912 0.929 . S
C1916 C1918 1.378 . S
C1916 C1920 1.350 . S
C1917 C1920 1.463 . S
C1917 C1922 1.350 . S
C1917 N1925 1.427 . S
C1918 H1909 0.930 . S
C1918 C1916 1.378 . S
C1918 C1919 1.367 . S
C1919 C1918 1.367 . S
C1919 C1921 1.433 . S
C1920 C1916 1.350 . S
C1920 C1917 1.463 . S
C1920 N1924 1.427 . S
C1921 H1911 0.929 . S
C1921 C1919 1.433 . S
C1921 N1924 1.384 . S
C1922 H1913 0.929 . S
C1922 C1914 1.378 . S
C1922 C1917 1.350 . S
C1923 H1910 0.929 . S
C1923 C1915 1.433 . S
C1923 N1925 1.384 . S
N1924 C1920 1.427 . S
N1924 C1921 1.384 . S
N1925 C1917 1.427 . S
N1925 C1923 1.384 . S
H1926 C1932 0.930 . S
H1927 C1936 0.930 . S
H1928 C1941 0.929 . S
H1929 C1939 0.929 . S
H1930 C1934 0.929 . S
H1931 C1940 0.929 . S
C1932 H1926 0.930 . S
C1932 C1933 1.367 . S
C1932 C1940 1.378 . S
C1933 C1932 1.367 . S
C1933 C1941 1.433 . S
C1934 H1930 0.929 . S
C1934 C1936 1.378 . S
C1934 C1938 1.350 . S
C1935 C1938 1.463 . S
C1935 C1940 1.350 . S
C1935 N1943 1.427 . S
C1936 H1927 0.930 . S
C1936 C1934 1.378 . S
C1936 C1937 1.367 . S
C1937 C1936 1.367 . S
C1937 C1939 1.433 . S
C1938 C1934 1.350 . S
C1938 C1935 1.463 . S
C1938 N1942 1.427 . S
C1939 H1929 0.929 . S
C1939 C1937 1.433 . S
C1939 N1942 1.384 . S
C1940 H1931 0.929 . S
C1940 C1932 1.378 . S
C1940 C1935 1.350 . S
C1941 H1928 0.929 . S
C1941 C1933 1.433 . S
C1941 N1943 1.384 . S
N1942 C1938 1.427 . S
N1942 C1939 1.384 . S
N1943 C1935 1.427 . S
N1943 C1941 1.384 . S
H1944 C1950 0.930 . S
H1945 C1954 0.930 . S
H1946 C1959 0.929 . S
H1947 C1957 0.929 . S
H1948 C1952 0.929 . S
H1949 C1958 0.929 . S
C1950 H1944 0.930 . S
C1950 C1951 1.367 . S
C1950 C1958 1.378 . S
C1951 C1950 1.367 . S
C1951 C1959 1.433 . S
C1952 H1948 0.929 . S
C1952 C1954 1.378 . S
C1952 C1956 1.350 . S
C1953 C1956 1.463 . S
C1953 C1958 1.350 . S
C1953 N1961 1.427 . S
C1954 H1945 0.930 . S
C1954 C1952 1.378 . S
C1954 C1955 1.367 . S
C1955 C1954 1.367 . S
C1955 C1957 1.433 . S
C1956 C1952 1.350 . S
C1956 C1953 1.463 . S
C1956 N1960 1.427 . S
C1957 H1947 0.929 . S
C1957 C1955 1.433 . S
C1957 N1960 1.384 . S
C1958 H1949 0.929 . S
C1958 C1950 1.378 . S
C1958 C1953 1.350 . S
C1959 H1946 0.929 . S
C1959 C1951 1.433 . S
C1959 N1961 1.384 . S
N1960 C1956 1.427 . S
N1960 C1957 1.384 . S
N1961 C1953 1.427 . S
N1961 C1959 1.384 . S
H1962 C1968 0.930 . S
H1963 C1972 0.930 . S
H1964 C1977 0.929 . S
H1965 C1975 0.929 . S
H1966 C1970 0.929 . S
H1967 C1976 0.929 . S
C1968 H1962 0.930 . S
C1968 C1969 1.367 . S
C1968 C1976 1.378 . S
C1969 C1968 1.367 . S
C1969 C1977 1.433 . S
C1970 H1966 0.929 . S
C1970 C1972 1.378 . S
C1970 C1974 1.350 . S
C1971 C1974 1.463 . S
C1971 C1976 1.350 . S
C1971 N1979 1.427 . S
C1972 H1963 0.930 . S
C1972 C1970 1.378 . S
C1972 C1973 1.367 . S
C1973 C1972 1.367 . S
C1973 C1975 1.433 . S
C1974 C1970 1.350 . S
C1974 C1971 1.463 . S
C1974 N1978 1.427 . S
C1975 H1965 0.929 . S
C1975 C1973 1.433 . S
C1975 N1978 1.384 . S
C1976 H1967 0.929 . S
C1976 C1968 1.378 . S
C1976 C1971 1.350 . S
C1977 H1964 0.929 . S
C1977 C1969 1.433 . S
C1977 N1979 1.384 . S
N1978 C1974 1.427 . S
N1978 C1975 1.384 . S
N1979 C1971 1.427 . S
N1979 C1977 1.384 . S
H1980 C1986 0.930 . S
H1981 C1990 0.930 . S
H1982 C1995 0.929 . S
H1983 C1993 0.929 . S
H1984 C1988 0.929 . S
H1985 C1994 0.929 . S
C1986 H1980 0.930 . S
C1986 C1987 1.367 . S
C1986 C1994 1.378 . S
C1987 C1986 1.367 . S
C1987 C1995 1.433 . S
C1988 H1984 0.929 . S
C1988 C1990 1.378 . S
C1988 C1992 1.350 . S
C1989 C1992 1.463 . S
C1989 C1994 1.350 . S
C1989 N1997 1.427 . S
C1990 H1981 0.930 . S
C1990 C1988 1.378 . S
C1990 C1991 1.367 . S
C1991 C1990 1.367 . S
C1991 C1993 1.433 . S
C1992 C1988 1.350 . S
C1992 C1989 1.463 . S
C1992 N1996 1.427 . S
C1993 H1983 0.929 . S
C1993 C1991 1.433 . S
C1993 N1996 1.384 . S
C1994 H1985 0.929 . S
C1994 C1986 1.378 . S
C1994 C1989 1.350 . S
C1995 H1982 0.929 . S
C1995 C1987 1.433 . S
C1995 N1997 1.384 . S
N1996 C1992 1.427 . S
N1996 C1993 1.384 . S
N1997 C1989 1.427 . S
N1997 C1995 1.384 . S
H1998 C2004 0.930 . S
H1999 C2008 0.930 . S
H2000 C2013 0.929 . S
H2001 C2011 0.929 . S
H2002 C2006 0.929 . S
H2003 C2012 0.929 . S
C2004 H1998 0.930 . S
C2004 C2005 1.367 . S
C2004 C2012 1.378 . S
C2005 C2004 1.367 . S
C2005 C2013 1.433 . S
C2006 H2002 0.929 . S
C2006 C2008 1.378 . S
C2006 C2010 1.350 . S
C2007 C2010 1.463 . S
C2007 C2012 1.350 . S
C2007 N2015 1.427 . S
C2008 H1999 0.930 . S
C2008 C2006 1.378 . S
C2008 C2009 1.367 . S
C2009 C2008 1.367 . S
C2009 C2011 1.433 . S
C2010 C2006 1.350 . S
C2010 C2007 1.463 . S
C2010 N2014 1.427 . S
C2011 H2001 0.929 . S
C2011 C2009 1.433 . S
C2011 N2014 1.384 . S
C2012 H2003 0.929 . S
C2012 C2004 1.378 . S
C2012 C2007 1.350 . S
C2013 H2000 0.929 . S
C2013 C2005 1.433 . S
C2013 N2015 1.384 . S
N2014 C2010 1.427 . S
N2014 C2011 1.384 . S
N2015 C2007 1.427 . S
N2015 C2013 1.384 . S
H2016 C2022 0.930 . S
H2017 C2026 0.930 . S
H2018 C2031 0.929 . S
H2019 C2029 0.929 . S
H2020 C2024 0.929 . S
H2021 C2030 0.929 . S
C2022 H2016 0.930 . S
C2022 C2023 1.367 . S
C2022 C2030 1.378 . S
C2023 C2022 1.367 . S
C2023 C2031 1.433 . S
C2024 H2020 0.929 . S
C2024 C2026 1.378 . S
C2024 C2028 1.350 . S
C2025 C2028 1.463 . S
C2025 C2030 1.350 . S
C2025 N2033 1.427 . S
C2026 H2017 0.930 . S
C2026 C2024 1.378 . S
C2026 C2027 1.367 . S
C2027 C2026 1.367 . S
C2027 C2029 1.433 . S
C2028 C2024 1.350 . S
C2028 C2025 1.463 . S
C2028 N2032 1.427 . S
C2029 H2019 0.929 . S
C2029 C2027 1.433 . S
C2029 N2032 1.384 . S
C2030 H2021 0.929 . S
C2030 C2022 1.378 . S
C2030 C2025 1.350 . S
C2031 H2018 0.929 . S
C2031 C2023 1.433 . S
C2031 N2033 1.384 . S
N2032 C2028 1.427 . S
N2032 C2029 1.384 . S
N2033 C2025 1.427 . S
N2033 C2031 1.384 . S
H2034 C2040 0.930 . S
H2035 C2044 0.930 . S
H2036 C2049 0.929 . S
H2037 C2047 0.929 . S
H2038 C2042 0.929 . S
H2039 C2048 0.929 . S
C2040 H2034 0.930 . S
C2040 C2041 1.367 . S
C2040 C2048 1.378 . S
C2041 C2040 1.367 . S
C2041 C2049 1.433 . S
C2042 H2038 0.929 . S
C2042 C2044 1.378 . S
C2042 C2046 1.350 . S
C2043 C2046 1.463 . S
C2043 C2048 1.350 . S
C2043 N2051 1.427 . S
C2044 H2035 0.930 . S
C2044 C2042 1.378 . S
C2044 C2045 1.367 . S
C2045 C2044 1.367 . S
C2045 C2047 1.433 . S
C2046 C2042 1.350 . S
C2046 C2043 1.463 . S
C2046 N2050 1.427 . S
C2047 H2037 0.929 . S
C2047 C2045 1.433 . S
C2047 N2050 1.384 . S
C2048 H2039 0.929 . S
C2048 C2040 1.378 . S
C2048 C2043 1.350 . S
C2049 H2036 0.929 . S
C2049 C2041 1.433 . S
C2049 N2051 1.384 . S
N2050 C2046 1.427 . S
N2050 C2047 1.384 . S
N2051 C2043 1.427 . S
N2051 C2049 1.384 . S
H2052 C2058 0.930 . S
H2053 C2062 0.930 . S
H2054 C2067 0.929 . S
H2055 C2065 0.929 . S
H2056 C2060 0.929 . S
H2057 C2066 0.929 . S
C2058 H2052 0.930 . S
C2058 C2059 1.367 . S
C2058 C2066 1.378 . S
C2059 C2058 1.367 . S
C2059 C2067 1.433 . S
C2060 H2056 0.929 . S
C2060 C2062 1.378 . S
C2060 C2064 1.350 . S
C2061 C2064 1.463 . S
C2061 C2066 1.350 . S
C2061 N2069 1.427 . S
C2062 H2053 0.930 . S
C2062 C2060 1.378 . S
C2062 C2063 1.367 . S
C2063 C2062 1.367 . S
C2063 C2065 1.433 . S
C2064 C2060 1.350 . S
C2064 C2061 1.463 . S
C2064 N2068 1.427 . S
C2065 H2055 0.929 . S
C2065 C2063 1.433 . S
C2065 N2068 1.384 . S
C2066 H2057 0.929 . S
C2066 C2058 1.378 . S
C2066 C2061 1.350 . S
C2067 H2054 0.929 . S
C2067 C2059 1.433 . S
C2067 N2069 1.384 . S
N2068 C2064 1.427 . S
N2068 C2065 1.384 . S
N2069 C2061 1.427 . S
N2069 C2067 1.384 . S
H2070 C2076 0.930 . S
H2071 C2080 0.930 . S
H2072 C2085 0.929 . S
H2073 C2083 0.929 . S
H2074 C2078 0.929 . S
H2075 C2084 0.929 . S
C2076 H2070 0.930 . S
C2076 C2077 1.367 . S
C2076 C2084 1.378 . S
C2077 C2076 1.367 . S
C2077 C2085 1.433 . S
C2078 H2074 0.929 . S
C2078 C2080 1.378 . S
C2078 C2082 1.350 . S
C2079 C2082 1.463 . S
C2079 C2084 1.350 . S
C2079 N2087 1.427 . S
C2080 H2071 0.930 . S
C2080 C2078 1.378 . S
C2080 C2081 1.367 . S
C2081 C2080 1.367 . S
C2081 C2083 1.433 . S
C2082 C2078 1.350 . S
C2082 C2079 1.463 . S
C2082 N2086 1.427 . S
C2083 H2073 0.929 . S
C2083 C2081 1.433 . S
C2083 N2086 1.384 . S
C2084 H2075 0.929 . S
C2084 C2076 1.378 . S
C2084 C2079 1.350 . S
C2085 H2072 0.929 . S
C2085 C2077 1.433 . S
C2085 N2087 1.384 . S
N2086 C2082 1.427 . S
N2086 C2083 1.384 . S
N2087 C2079 1.427 . S
N2087 C2085 1.384 . S
H2088 C2094 0.930 . S
H2089 C2098 0.930 . S
H2090 C2103 0.929 . S
H2091 C2101 0.929 . S
H2092 C2096 0.929 . S
H2093 C2102 0.929 . S
C2094 H2088 0.930 . S
C2094 C2095 1.367 . S
C2094 C2102 1.378 . S
C2095 C2094 1.367 . S
C2095 C2103 1.433 . S
C2096 H2092 0.929 . S
C2096 C2098 1.378 . S
C2096 C2100 1.350 . S
C2097 C2100 1.463 . S
C2097 C2102 1.350 . S
C2097 N2105 1.427 . S
C2098 H2089 0.930 . S
C2098 C2096 1.378 . S
C2098 C2099 1.367 . S
C2099 C2098 1.367 . S
C2099 C2101 1.433 . S
C2100 C2096 1.350 . S
C2100 C2097 1.463 . S
C2100 N2104 1.427 . S
C2101 H2091 0.929 . S
C2101 C2099 1.433 . S
C2101 N2104 1.384 . S
C2102 H2093 0.929 . S
C2102 C2094 1.378 . S
C2102 C2097 1.350 . S
C2103 H2090 0.929 . S
C2103 C2095 1.433 . S
C2103 N2105 1.384 . S
N2104 C2100 1.427 . S
N2104 C2101 1.384 . S
N2105 C2097 1.427 . S
N2105 C2103 1.384 . S
H2106 C2112 0.930 . S
H2107 C2116 0.930 . S
H2108 C2121 0.929 . S
H2109 C2119 0.929 . S
H2110 C2114 0.929 . S
H2111 C2120 0.929 . S
C2112 H2106 0.930 . S
C2112 C2113 1.367 . S
C2112 C2120 1.378 . S
C2113 C2112 1.367 . S
C2113 C2121 1.433 . S
C2114 H2110 0.929 . S
C2114 C2116 1.378 . S
C2114 C2118 1.350 . S
C2115 C2118 1.463 . S
C2115 C2120 1.350 . S
C2115 N2123 1.427 . S
C2116 H2107 0.930 . S
C2116 C2114 1.378 . S
C2116 C2117 1.367 . S
C2117 C2116 1.367 . S
C2117 C2119 1.433 . S
C2118 C2114 1.350 . S
C2118 C2115 1.463 . S
C2118 N2122 1.427 . S
C2119 H2109 0.929 . S
C2119 C2117 1.433 . S
C2119 N2122 1.384 . S
C2120 H2111 0.929 . S
C2120 C2112 1.378 . S
C2120 C2115 1.350 . S
C2121 H2108 0.929 . S
C2121 C2113 1.433 . S
C2121 N2123 1.384 . S
N2122 C2118 1.427 . S
N2122 C2119 1.384 . S
N2123 C2115 1.427 . S
N2123 C2121 1.384 . S
H2124 C2130 0.930 . S
H2125 C2134 0.930 . S
H2126 C2139 0.929 . S
H2127 C2137 0.929 . S
H2128 C2132 0.929 . S
H2129 C2138 0.929 . S
C2130 H2124 0.930 . S
C2130 C2131 1.367 . S
C2130 C2138 1.378 . S
C2131 C2130 1.367 . S
C2131 C2139 1.433 . S
C2132 H2128 0.929 . S
C2132 C2134 1.378 . S
C2132 C2136 1.350 . S
C2133 C2136 1.463 . S
C2133 C2138 1.350 . S
C2133 N2141 1.427 . S
C2134 H2125 0.930 . S
C2134 C2132 1.378 . S
C2134 C2135 1.367 . S
C2135 C2134 1.367 . S
C2135 C2137 1.433 . S
C2136 C2132 1.350 . S
C2136 C2133 1.463 . S
C2136 N2140 1.427 . S
C2137 H2127 0.929 . S
C2137 C2135 1.433 . S
C2137 N2140 1.384 . S
C2138 H2129 0.929 . S
C2138 C2130 1.378 . S
C2138 C2133 1.350 . S
C2139 H2126 0.929 . S
C2139 C2131 1.433 . S
C2139 N2141 1.384 . S
N2140 C2136 1.427 . S
N2140 C2137 1.384 . S
N2141 C2133 1.427 . S
N2141 C2139 1.384 . S
H2142 C2148 0.930 . S
H2143 C2152 0.930 . S
H2144 C2157 0.929 . S
H2145 C2155 0.929 . S
H2146 C2150 0.929 . S
H2147 C2156 0.929 . S
C2148 H2142 0.930 . S
C2148 C2149 1.367 . S
C2148 C2156 1.378 . S
C2149 C2148 1.367 . S
C2149 C2157 1.433 . S
C2150 H2146 0.929 . S
C2150 C2152 1.378 . S
C2150 C2154 1.350 . S
C2151 C2154 1.463 . S
C2151 C2156 1.350 . S
C2151 N2159 1.427 . S
C2152 H2143 0.930 . S
C2152 C2150 1.378 . S
C2152 C2153 1.367 . S
C2153 C2152 1.367 . S
C2153 C2155 1.433 . S
C2154 C2150 1.350 . S
C2154 C2151 1.463 . S
C2154 N2158 1.427 . S
C2155 H2145 0.929 . S
C2155 C2153 1.433 . S
C2155 N2158 1.384 . S
C2156 H2147 0.929 . S
C2156 C2148 1.378 . S
C2156 C2151 1.350 . S
C2157 H2144 0.929 . S
C2157 C2149 1.433 . S
C2157 N2159 1.384 . S
N2158 C2154 1.427 . S
N2158 C2155 1.384 . S
N2159 C2151 1.427 . S
N2159 C2157 1.384 . S
H2160 C2166 0.930 . S
H2161 C2170 0.930 . S
H2162 C2175 0.929 . S
H2163 C2173 0.929 . S
H2164 C2168 0.929 . S
H2165 C2174 0.929 . S
C2166 H2160 0.930 . S
C2166 C2167 1.367 . S
C2166 C2174 1.378 . S
C2167 C2166 1.367 . S
C2167 C2175 1.433 . S
C2168 H2164 0.929 . S
C2168 C2170 1.378 . S
C2168 C2172 1.350 . S
C2169 C2172 1.463 . S
C2169 C2174 1.350 . S
C2169 N2177 1.427 . S
C2170 H2161 0.930 . S
C2170 C2168 1.378 . S
C2170 C2171 1.367 . S
C2171 C2170 1.367 . S
C2171 C2173 1.433 . S
C2172 C2168 1.350 . S
C2172 C2169 1.463 . S
C2172 N2176 1.427 . S
C2173 H2163 0.929 . S
C2173 C2171 1.433 . S
C2173 N2176 1.384 . S
C2174 H2165 0.929 . S
C2174 C2166 1.378 . S
C2174 C2169 1.350 . S
C2175 H2162 0.929 . S
C2175 C2167 1.433 . S
C2175 N2177 1.384 . S
N2176 C2172 1.427 . S
N2176 C2173 1.384 . S
N2177 C2169 1.427 . S
N2177 C2175 1.384 . S
H2178 C2184 0.930 . S
H2179 C2188 0.930 . S
H2180 C2193 0.929 . S
H2181 C2191 0.929 . S
H2182 C2186 0.929 . S
H2183 C2192 0.929 . S
C2184 H2178 0.930 . S
C2184 C2185 1.367 . S
C2184 C2192 1.378 . S
C2185 C2184 1.367 . S
C2185 C2193 1.433 . S
C2186 H2182 0.929 . S
C2186 C2188 1.378 . S
C2186 C2190 1.350 . S
C2187 C2190 1.463 . S
C2187 C2192 1.350 . S
C2187 N2195 1.427 . S
C2188 H2179 0.930 . S
C2188 C2186 1.378 . S
C2188 C2189 1.367 . S
C2189 C2188 1.367 . S
C2189 C2191 1.433 . S
C2190 C2186 1.350 . S
C2190 C2187 1.463 . S
C2190 N2194 1.427 . S
C2191 H2181 0.929 . S
C2191 C2189 1.433 . S
C2191 N2194 1.384 . S
C2192 H2183 0.929 . S
C2192 C2184 1.378 . S
C2192 C2187 1.350 . S
C2193 H2180 0.929 . S
C2193 C2185 1.433 . S
C2193 N2195 1.384 . S
N2194 C2190 1.427 . S
N2194 C2191 1.384 . S
N2195 C2187 1.427 . S
N2195 C2193 1.384 . S
H2196 C2202 0.930 . S
H2197 C2206 0.930 . S
H2198 C2211 0.929 . S
H2199 C2209 0.929 . S
H2200 C2204 0.929 . S
H2201 C2210 0.929 . S
C2202 H2196 0.930 . S
C2202 C2203 1.367 . S
C2202 C2210 1.378 . S
C2203 C2202 1.367 . S
C2203 C2211 1.433 . S
C2204 H2200 0.929 . S
C2204 C2206 1.378 . S
C2204 C2208 1.350 . S
C2205 C2208 1.463 . S
C2205 C2210 1.350 . S
C2205 N2213 1.427 . S
C2206 H2197 0.930 . S
C2206 C2204 1.378 . S
C2206 C2207 1.367 . S
C2207 C2206 1.367 . S
C2207 C2209 1.433 . S
C2208 C2204 1.350 . S
C2208 C2205 1.463 . S
C2208 N2212 1.427 . S
C2209 H2199 0.929 . S
C2209 C2207 1.433 . S
C2209 N2212 1.384 . S
C2210 H2201 0.929 . S
C2210 C2202 1.378 . S
C2210 C2205 1.350 . S
C2211 H2198 0.929 . S
C2211 C2203 1.433 . S
C2211 N2213 1.384 . S
N2212 C2208 1.427 . S
N2212 C2209 1.384 . S
N2213 C2205 1.427 . S
N2213 C2211 1.384 . S
H2214 C2220 0.930 . S
H2215 C2224 0.930 . S
H2216 C2229 0.929 . S
H2217 C2227 0.929 . S
H2218 C2222 0.929 . S
H2219 C2228 0.929 . S
C2220 H2214 0.930 . S
C2220 C2221 1.367 . S
C2220 C2228 1.378 . S
C2221 C2220 1.367 . S
C2221 C2229 1.433 . S
C2222 H2218 0.929 . S
C2222 C2224 1.378 . S
C2222 C2226 1.350 . S
C2223 C2226 1.463 . S
C2223 C2228 1.350 . S
C2223 N2231 1.427 . S
C2224 H2215 0.930 . S
C2224 C2222 1.378 . S
C2224 C2225 1.367 . S
C2225 C2224 1.367 . S
C2225 C2227 1.433 . S
C2226 C2222 1.350 . S
C2226 C2223 1.463 . S
C2226 N2230 1.427 . S
C2227 H2217 0.929 . S
C2227 C2225 1.433 . S
C2227 N2230 1.384 . S
C2228 H2219 0.929 . S
C2228 C2220 1.378 . S
C2228 C2223 1.350 . S
C2229 H2216 0.929 . S
C2229 C2221 1.433 . S
C2229 N2231 1.384 . S
N2230 C2226 1.427 . S
N2230 C2227 1.384 . S
N2231 C2223 1.427 . S
N2231 C2229 1.384 . S
H2232 C2238 0.930 . S
H2233 C2242 0.930 . S
H2234 C2247 0.929 . S
H2235 C2245 0.929 . S
H2236 C2240 0.929 . S
H2237 C2246 0.929 . S
C2238 H2232 0.930 . S
C2238 C2239 1.367 . S
C2238 C2246 1.378 . S
C2239 C2238 1.367 . S
C2239 C2247 1.433 . S
C2240 H2236 0.929 . S
C2240 C2242 1.378 . S
C2240 C2244 1.350 . S
C2241 C2244 1.463 . S
C2241 C2246 1.350 . S
C2241 N2249 1.427 . S
C2242 H2233 0.930 . S
C2242 C2240 1.378 . S
C2242 C2243 1.367 . S
C2243 C2242 1.367 . S
C2243 C2245 1.433 . S
C2244 C2240 1.350 . S
C2244 C2241 1.463 . S
C2244 N2248 1.427 . S
C2245 H2235 0.929 . S
C2245 C2243 1.433 . S
C2245 N2248 1.384 . S
C2246 H2237 0.929 . S
C2246 C2238 1.378 . S
C2246 C2241 1.350 . S
C2247 H2234 0.929 . S
C2247 C2239 1.433 . S
C2247 N2249 1.384 . S
N2248 C2244 1.427 . S
N2248 C2245 1.384 . S
N2249 C2241 1.427 . S
N2249 C2247 1.384 . S
H2250 C2256 0.930 . S
H2251 C2260 0.930 . S
H2252 C2265 0.929 . S
H2253 C2263 0.929 . S
H2254 C2258 0.929 . S
H2255 C2264 0.929 . S
C2256 H2250 0.930 . S
C2256 C2257 1.367 . S
C2256 C2264 1.378 . S
C2257 C2256 1.367 . S
C2257 C2265 1.433 . S
C2258 H2254 0.929 . S
C2258 C2260 1.378 . S
C2258 C2262 1.350 . S
C2259 C2262 1.463 . S
C2259 C2264 1.350 . S
C2259 N2267 1.427 . S
C2260 H2251 0.930 . S
C2260 C2258 1.378 . S
C2260 C2261 1.367 . S
C2261 C2260 1.367 . S
C2261 C2263 1.433 . S
C2262 C2258 1.350 . S
C2262 C2259 1.463 . S
C2262 N2266 1.427 . S
C2263 H2253 0.929 . S
C2263 C2261 1.433 . S
C2263 N2266 1.384 . S
C2264 H2255 0.929 . S
C2264 C2256 1.378 . S
C2264 C2259 1.350 . S
C2265 H2252 0.929 . S
C2265 C2257 1.433 . S
C2265 N2267 1.384 . S
N2266 C2262 1.427 . S
N2266 C2263 1.384 . S
N2267 C2259 1.427 . S
N2267 C2265 1.384 . S
H2268 C2274 0.930 . S
H2269 C2278 0.930 . S
H2270 C2283 0.929 . S
H2271 C2281 0.929 . S
H2272 C2276 0.929 . S
H2273 C2282 0.929 . S
C2274 H2268 0.930 . S
C2274 C2275 1.367 . S
C2274 C2282 1.378 . S
C2275 C2274 1.367 . S
C2275 C2283 1.433 . S
C2276 H2272 0.929 . S
C2276 C2278 1.378 . S
C2276 C2280 1.350 . S
C2277 C2280 1.463 . S
C2277 C2282 1.350 . S
C2277 N2285 1.427 . S
C2278 H2269 0.930 . S
C2278 C2276 1.378 . S
C2278 C2279 1.367 . S
C2279 C2278 1.367 . S
C2279 C2281 1.433 . S
C2280 C2276 1.350 . S
C2280 C2277 1.463 . S
C2280 N2284 1.427 . S
C2281 H2271 0.929 . S
C2281 C2279 1.433 . S
C2281 N2284 1.384 . S
C2282 H2273 0.929 . S
C2282 C2274 1.378 . S
C2282 C2277 1.350 . S
C2283 H2270 0.929 . S
C2283 C2275 1.433 . S
C2283 N2285 1.384 . S
N2284 C2280 1.427 . S
N2284 C2281 1.384 . S
N2285 C2277 1.427 . S
N2285 C2283 1.384 . S
H2286 C2292 0.930 . S
H2287 C2296 0.930 . S
H2288 C2301 0.929 . S
H2289 C2299 0.929 . S
H2290 C2294 0.929 . S
H2291 C2300 0.929 . S
C2292 H2286 0.930 . S
C2292 C2293 1.367 . S
C2292 C2300 1.378 . S
C2293 C2292 1.367 . S
C2293 C2301 1.433 1_554 S
C2294 H2290 0.929 . S
C2294 C2296 1.378 . S
C2294 C2298 1.350 . S
C2295 C2298 1.463 . S
C2295 C2300 1.350 1_556 S
C2295 N2303 1.427 . S
C2296 H2287 0.930 . S
C2296 C2294 1.378 . S
C2296 C2297 1.367 . S
C2297 C2296 1.367 . S
C2297 C2299 1.433 . S
C2298 C2294 1.350 . S
C2298 C2295 1.463 . S
C2298 N2302 1.427 . S
C2299 H2289 0.929 . S
C2299 C2297 1.433 . S
C2299 N2302 1.384 . S
C2300 H2291 0.929 . S
C2300 C2292 1.378 . S
C2300 C2295 1.350 1_554 S
C2301 H2288 0.929 . S
C2301 C2293 1.433 1_556 S
C2301 N2303 1.384 . S
N2302 C2298 1.427 . S
N2302 C2299 1.384 . S
N2303 C2295 1.427 . S
N2303 C2301 1.384 . S
H2304 C2310 0.930 . S
H2305 C2314 0.930 . S
H2306 C2319 0.929 . S
H2307 C2317 0.929 . S
H2308 C2312 0.929 . S
H2309 C2318 0.929 . S
C2310 H2304 0.930 . S
C2310 C2311 1.367 1_554 S
C2310 C2318 1.378 1_554 S
C2311 C2310 1.367 1_556 S
C2311 C2319 1.433 . S
C2312 H2308 0.929 . S
C2312 C2314 1.378 . S
C2312 C2316 1.350 . S
C2313 C2316 1.463 . S
C2313 C2318 1.350 . S
C2313 N2321 1.427 . S
C2314 H2305 0.930 . S
C2314 C2312 1.378 . S
C2314 C2315 1.367 . S
C2315 C2314 1.367 . S
C2315 C2317 1.433 . S
C2316 C2312 1.350 . S
C2316 C2313 1.463 . S
C2316 N2320 1.427 . S
C2317 H2307 0.929 . S
C2317 C2315 1.433 . S
C2317 N2320 1.384 . S
C2318 H2309 0.929 . S
C2318 C2310 1.378 1_556 S
C2318 C2313 1.350 . S
C2319 H2306 0.929 . S
C2319 C2311 1.433 . S
C2319 N2321 1.384 . S
N2320 C2316 1.427 . S
N2320 C2317 1.384 . S
N2321 C2313 1.427 . S
N2321 C2319 1.384 . S
H2322 C2328 0.930 . S
H2323 C2332 0.930 . S
H2324 C2337 0.929 . S
H2325 C2335 0.929 . S
H2326 C2330 0.929 . S
H2327 C2336 0.929 1_556 S
C2328 H2322 0.930 . S
C2328 C2329 1.367 . S
C2328 C2336 1.378 . S
C2329 C2328 1.367 . S
C2329 C2337 1.433 . S
C2330 H2326 0.929 . S
C2330 C2332 1.378 . S
C2330 C2334 1.350 . S
C2331 C2334 1.463 . S
C2331 C2336 1.350 . S
C2331 N2339 1.427 . S
C2332 H2323 0.930 . S
C2332 C2330 1.378 . S
C2332 C2333 1.367 1_554 S
C2333 C2332 1.367 1_556 S
C2333 C2335 1.433 . S
C2334 C2330 1.350 . S
C2334 C2331 1.463 . S
C2334 N2338 1.427 1_554 S
C2335 H2325 0.929 . S
C2335 C2333 1.433 . S
C2335 N2338 1.384 . S
C2336 H2327 0.929 1_554 S
C2336 C2328 1.378 . S
C2336 C2331 1.350 . S
C2337 H2324 0.929 . S
C2337 C2329 1.433 . S
C2337 N2339 1.384 . S
N2338 C2334 1.427 1_556 S
N2338 C2335 1.384 . S
N2339 C2331 1.427 . S
N2339 C2337 1.384 . S
H2340 C2346 0.930 . S
H2341 C2350 0.930 . S
H2342 C2355 0.929 . S
H2343 C2353 0.929 . S
H2344 C2348 0.965 . S
H2345 C2354 0.929 . S
C2346 H2340 0.930 . S
C2346 C2347 1.367 1_556 S
C2346 C2354 1.378 . S
C2347 C2346 1.367 1_554 S
C2347 C2355 1.433 . S
C2348 H2344 0.965 . S
C2348 C2350 1.378 . S
C2348 C2352 1.350 . S
C2349 C2352 1.463 . S
C2349 C2354 1.350 . S
C2349 N2357 1.427 1_556 S
C2350 H2341 0.930 . S
C2350 C2348 1.378 . S
C2350 C2351 1.367 . S
C2351 C2350 1.367 . S
C2351 C2353 1.433 . S
C2352 C2348 1.350 . S
C2352 C2349 1.463 . S
C2352 N2356 1.427 . S
C2353 H2343 0.929 . S
C2353 C2351 1.433 . S
C2353 N2356 1.384 . S
C2354 H2345 0.929 . S
C2354 C2346 1.378 . S
C2354 C2349 1.350 . S
C2355 H2342 0.929 . S
C2355 C2347 1.433 . S
C2355 N2357 1.384 . S
N2356 C2352 1.427 . S
N2356 C2353 1.384 . S
N2357 C2349 1.427 1_554 S
N2357 C2355 1.384 . S
H2358 C2364 0.949 . S
H2359 C2368 0.930 . S
H2360 C2373 0.929 . S
H2361 C2371 0.929 . S
H2362 C2366 0.929 . S
H2363 C2372 0.929 . S
C2364 H2358 0.949 . S
C2364 C2365 1.367 . S
C2364 C2372 1.378 . S
C2365 C2364 1.367 . S
C2365 C2373 1.433 . S
C2366 H2362 0.929 . S
C2366 C2368 1.378 . S
C2366 C2370 1.350 . S
C2367 C2370 1.463 . S
C2367 C2372 1.350 . S
C2367 N2375 1.427 . S
C2368 H2359 0.930 . S
C2368 C2366 1.378 . S
C2368 C2369 1.367 . S
C2369 C2368 1.367 . S
C2369 C2371 1.433 . S
C2370 C2366 1.350 . S
C2370 C2367 1.463 . S
C2370 N2374 1.427 . S
C2371 H2361 0.929 . S
C2371 C2369 1.433 . S
C2371 N2374 1.384 . S
C2372 H2363 0.929 . S
C2372 C2364 1.378 . S
C2372 C2367 1.350 . S
C2373 H2360 0.929 . S
C2373 C2365 1.433 . S
C2373 N2375 1.384 . S
N2374 C2370 1.427 . S
N2374 C2371 1.384 . S
N2375 C2367 1.427 . S
N2375 C2373 1.384 . S
H2376 C2382 0.930 . S
H2377 C2386 0.928 1_554 S
H2378 C2391 0.929 . S
H2379 C2389 0.929 . S
H2380 C2384 0.929 . S
H2381 C2390 0.961 . S
C2382 H2376 0.930 . S
C2382 C2383 1.367 . S
C2382 C2390 1.356 1_554 S
C2383 C2382 1.367 . S
C2383 C2391 1.433 . S
C2384 H2380 0.929 . S
C2384 C2386 1.378 1_554 S
C2384 C2388 1.350 1_554 S
C2385 C2388 1.463 1_554 S
C2385 C2390 1.340 1_554 S
C2385 N2393 1.427 . S
C2386 H2377 0.928 1_556 S
C2386 C2384 1.378 1_556 S
C2386 C2387 1.367 . S
C2387 C2386 1.367 . S
C2387 C2389 1.433 . S
C2388 C2384 1.350 1_556 S
C2388 C2385 1.463 1_556 S
C2388 N2392 1.427 . S
C2389 H2379 0.929 . S
C2389 C2387 1.433 . S
C2389 N2392 1.384 . S
C2390 H2381 0.961 . S
C2390 C2382 1.356 1_556 S
C2390 C2385 1.340 1_556 S
C2391 H2378 0.929 . S
C2391 C2383 1.433 . S
C2391 N2393 1.384 . S
N2392 C2388 1.427 . S
N2392 C2389 1.384 . S
N2393 C2385 1.427 . S
N2393 C2391 1.384 . S
H2394 C2400 0.930 . S
H2395 C2404 0.930 . S
H2396 C2409 0.929 . S
H2397 C2407 0.929 . S
H2398 C2402 0.929 . S
H2399 C2408 0.929 . S
C2400 H2394 0.930 . S
C2400 C2401 1.367 . S
C2400 C2408 1.378 . S
C2401 C2400 1.367 . S
C2401 C2409 1.433 . S
C2402 H2398 0.929 . S
C2402 C2404 1.378 . S
C2402 C2406 1.350 . S
C2403 C2406 1.463 . S
C2403 C2408 1.350 . S
C2403 N2411 1.427 . S
C2404 H2395 0.930 . S
C2404 C2402 1.378 . S
C2404 C2405 1.367 . S
C2405 C2404 1.367 . S
C2405 C2407 1.433 . S
C2406 C2402 1.350 . S
C2406 C2403 1.463 . S
C2406 N2410 1.427 . S
C2407 H2397 0.929 . S
C2407 C2405 1.433 . S
C2407 N2410 1.384 . S
C2408 H2399 0.929 . S
C2408 C2400 1.378 . S
C2408 C2403 1.350 . S
C2409 H2396 0.929 . S
C2409 C2401 1.433 . S
C2409 N2411 1.384 . S
N2410 C2406 1.427 . S
N2410 C2407 1.384 . S
N2411 C2403 1.427 . S
N2411 C2409 1.384 . S
H2412 C2418 0.930 . S
H2413 C2422 0.930 . S
H2414 C2427 0.929 . S
H2415 C2425 0.929 . S
H2416 C2420 0.929 . S
H2417 C2426 0.929 . S
C2418 H2412 0.930 . S
C2418 C2419 1.367 . S
C2418 C2426 1.378 . S
C2419 C2418 1.367 . S
C2419 C2427 1.433 . S
C2420 H2416 0.929 . S
C2420 C2422 1.378 . S
C2420 C2424 1.350 . S
C2421 C2424 1.463 . S
C2421 C2426 1.350 . S
C2421 N2429 1.427 . S
C2422 H2413 0.930 . S
C2422 C2420 1.378 . S
C2422 C2423 1.367 . S
C2423 C2422 1.367 . S
C2423 C2425 1.433 . S
C2424 C2420 1.350 . S
C2424 C2421 1.463 . S
C2424 N2428 1.427 . S
C2425 H2415 0.929 . S
C2425 C2423 1.433 . S
C2425 N2428 1.384 . S
C2426 H2417 0.929 . S
C2426 C2418 1.378 . S
C2426 C2421 1.350 . S
C2427 H2414 0.929 . S
C2427 C2419 1.433 . S
C2427 N2429 1.384 . S
N2428 C2424 1.427 . S
N2428 C2425 1.384 . S
N2429 C2421 1.427 . S
N2429 C2427 1.384 . S
H2430 C2436 0.930 . S
H2431 C2440 0.930 . S
H2432 C2445 0.929 . S
H2433 C2443 0.929 . S
H2434 C2438 0.929 . S
H2435 C2444 0.929 . S
C2436 H2430 0.930 . S
C2436 C2437 1.367 . S
C2436 C2444 1.378 . S
C2437 C2436 1.367 . S
C2437 C2445 1.433 . S
C2438 H2434 0.929 . S
C2438 C2440 1.378 . S
C2438 C2442 1.350 . S
C2439 C2442 1.463 . S
C2439 C2444 1.350 . S
C2439 N2447 1.427 . S
C2440 H2431 0.930 . S
C2440 C2438 1.378 . S
C2440 C2441 1.367 . S
C2441 C2440 1.367 . S
C2441 C2443 1.433 . S
C2442 C2438 1.350 . S
C2442 C2439 1.463 . S
C2442 N2446 1.427 . S
C2443 H2433 0.929 . S
C2443 C2441 1.433 . S
C2443 N2446 1.384 . S
C2444 H2435 0.929 . S
C2444 C2436 1.378 . S
C2444 C2439 1.350 . S
C2445 H2432 0.929 . S
C2445 C2437 1.433 . S
C2445 N2447 1.384 . S
N2446 C2442 1.427 . S
N2446 C2443 1.384 . S
N2447 C2439 1.427 . S
N2447 C2445 1.384 . S
H2448 C2454 0.930 . S
H2449 C2458 0.930 . S
H2450 C2463 0.929 . S
H2451 C2461 0.929 . S
H2452 C2456 0.929 . S
H2453 C2462 0.929 . S
C2454 H2448 0.930 . S
C2454 C2455 1.367 . S
C2454 C2462 1.378 . S
C2455 C2454 1.367 . S
C2455 C2463 1.433 . S
C2456 H2452 0.929 . S
C2456 C2458 1.378 . S
C2456 C2460 1.350 . S
C2457 C2460 1.463 . S
C2457 C2462 1.350 . S
C2457 N2465 1.427 . S
C2458 H2449 0.930 . S
C2458 C2456 1.378 . S
C2458 C2459 1.367 . S
C2459 C2458 1.367 . S
C2459 C2461 1.433 . S
C2460 C2456 1.350 . S
C2460 C2457 1.463 . S
C2460 N2464 1.427 . S
C2461 H2451 0.929 . S
C2461 C2459 1.433 . S
C2461 N2464 1.384 . S
C2462 H2453 0.929 . S
C2462 C2454 1.378 . S
C2462 C2457 1.350 . S
C2463 H2450 0.929 . S
C2463 C2455 1.433 . S
C2463 N2465 1.384 . S
N2464 C2460 1.427 . S
N2464 C2461 1.384 . S
N2465 C2457 1.427 . S
N2465 C2463 1.384 . S
H2466 C2472 0.930 . S
H2467 C2476 0.930 . S
H2468 C2481 0.929 . S
H2469 C2479 0.929 . S
H2470 C2474 0.929 . S
H2471 C2480 0.929 . S
C2472 H2466 0.930 . S
C2472 C2473 1.367 . S
C2472 C2480 1.378 . S
C2473 C2472 1.367 . S
C2473 C2481 1.433 . S
C2474 H2470 0.929 . S
C2474 C2476 1.378 . S
C2474 C2478 1.350 . S
C2475 C2478 1.463 . S
C2475 C2480 1.350 . S
C2475 N2483 1.427 . S
C2476 H2467 0.930 . S
C2476 C2474 1.378 . S
C2476 C2477 1.367 . S
C2477 C2476 1.367 . S
C2477 C2479 1.433 . S
C2478 C2474 1.350 . S
C2478 C2475 1.463 . S
C2478 N2482 1.427 . S
C2479 H2469 0.929 . S
C2479 C2477 1.433 . S
C2479 N2482 1.384 . S
C2480 H2471 0.929 . S
C2480 C2472 1.378 . S
C2480 C2475 1.350 . S
C2481 H2468 0.929 . S
C2481 C2473 1.433 . S
C2481 N2483 1.384 . S
N2482 C2478 1.427 . S
N2482 C2479 1.384 . S
N2483 C2475 1.427 . S
N2483 C2481 1.384 . S
H2484 C2490 0.930 . S
H2485 C2494 0.930 . S
H2486 C2499 0.867 1_455 S
H2487 C2497 0.929 . S
H2488 C2492 0.929 . S
H2489 C2498 0.929 . S
C2490 H2484 0.930 . S
C2490 C2491 1.367 . S
C2490 C2498 1.378 . S
C2491 C2490 1.367 . S
C2491 C2499 1.433 . S
C2492 H2488 0.929 . S
C2492 C2494 1.378 . S
C2492 C2496 1.350 . S
C2493 C2496 1.463 . S
C2493 C2498 1.350 . S
C2493 N2501 1.427 . S
C2494 H2485 0.930 . S
C2494 C2492 1.378 . S
C2494 C2495 1.367 . S
C2495 C2494 1.367 . S
C2495 C2497 1.433 . S
C2496 C2492 1.350 . S
C2496 C2493 1.463 . S
C2496 N2500 1.427 . S
C2497 H2487 0.929 . S
C2497 C2495 1.433 . S
C2497 N2500 1.384 . S
C2498 H2489 0.929 . S
C2498 C2490 1.378 . S
C2498 C2493 1.350 . S
C2499 H2486 0.867 1_655 S
C2499 C2491 1.433 . S
C2499 N2501 1.384 . S
N2500 C2496 1.427 . S
N2500 C2497 1.384 . S
N2501 C2493 1.427 . S
N2501 C2499 1.384 . S
H2502 C2508 0.930 . S
H2503 C2512 0.930 . S
H2504 C2517 0.929 . S
H2505 C2515 0.894 1_655 S
H2506 C2510 0.929 . S
H2507 C2516 0.929 . S
C2508 H2502 0.930 . S
C2508 C2509 1.367 . S
C2508 C2516 1.378 . S
C2509 C2508 1.367 . S
C2509 C2517 1.433 . S
C2510 H2506 0.929 . S
C2510 C2512 1.378 . S
C2510 C2514 1.350 . S
C2511 C2514 1.463 . S
C2511 C2516 1.350 . S
C2511 N2519 1.427 . S
C2512 H2503 0.930 . S
C2512 C2510 1.378 . S
C2512 C2513 1.367 . S
C2513 C2512 1.367 . S
C2513 C2515 1.433 . S
C2514 C2510 1.350 . S
C2514 C2511 1.463 . S
C2514 N2518 1.427 . S
C2515 H2505 0.894 1_455 S
C2515 C2513 1.433 . S
C2515 N2518 1.384 . S
C2516 H2507 0.929 . S
C2516 C2508 1.378 . S
C2516 C2511 1.350 . S
C2517 H2504 0.929 . S
C2517 C2509 1.433 . S
C2517 N2519 1.384 . S
N2518 C2514 1.427 . S
N2518 C2515 1.384 . S
N2519 C2511 1.427 . S
N2519 C2517 1.384 . S
H2520 C2526 0.930 . S
H2521 C2530 0.930 . S
H2522 C2535 0.929 . S
H2523 C2533 0.929 . S
H2524 C2528 0.929 . S
H2525 C2534 0.929 . S
C2526 H2520 0.930 . S
C2526 C2527 1.367 . S
C2526 C2534 1.378 . S
C2527 C2526 1.367 . S
C2527 C2535 1.433 . S
C2528 H2524 0.929 . S
C2528 C2530 1.378 . S
C2528 C2532 1.350 . S
C2529 C2532 1.463 . S
C2529 C2534 1.350 . S
C2529 N2537 1.427 . S
C2530 H2521 0.930 . S
C2530 C2528 1.378 . S
C2530 C2531 1.367 . S
C2531 C2530 1.367 . S
C2531 C2533 1.433 . S
C2532 C2528 1.350 . S
C2532 C2529 1.463 . S
C2532 N2536 1.427 . S
C2533 H2523 0.929 . S
C2533 C2531 1.433 . S
C2533 N2536 1.384 . S
C2534 H2525 0.929 . S
C2534 C2526 1.378 . S
C2534 C2529 1.350 . S
C2535 H2522 0.929 . S
C2535 C2527 1.433 . S
C2535 N2537 1.384 . S
N2536 C2532 1.427 . S
N2536 C2533 1.384 . S
N2537 C2529 1.427 . S
N2537 C2535 1.384 . S
H2538 C2544 0.930 . S
H2539 C2548 0.930 1_545 S
H2540 C2553 0.929 . S
H2541 C2551 0.929 . S
H2542 C2546 0.926 1_545 S
H2543 C2552 0.929 . S
C2544 H2538 0.930 . S
C2544 C2545 1.367 . S
C2544 C2552 1.378 . S
C2545 C2544 1.367 . S
C2545 C2553 1.433 . S
C2546 H2542 0.926 1_565 S
C2546 C2548 1.378 . S
C2546 C2550 1.350 . S
C2547 C2550 1.463 . S
C2547 C2552 1.350 . S
C2547 N2555 1.427 . S
C2548 H2539 0.930 1_565 S
C2548 C2546 1.378 . S
C2548 C2549 1.367 . S
C2549 C2548 1.367 . S
C2549 C2551 1.433 . S
C2550 C2546 1.350 . S
C2550 C2547 1.463 . S
C2550 N2554 1.427 . S
C2551 H2541 0.929 . S
C2551 C2549 1.433 . S
C2551 N2554 1.384 . S
C2552 H2543 0.929 . S
C2552 C2544 1.378 . S
C2552 C2547 1.350 . S
C2553 H2540 0.929 . S
C2553 C2545 1.433 . S
C2553 N2555 1.384 . S
N2554 C2550 1.427 . S
N2554 C2551 1.384 . S
N2555 C2547 1.427 . S
N2555 C2553 1.384 . S
H2556 C2562 0.946 . S
H2557 C2566 0.930 . S
H2558 C2571 0.929 . S
H2559 C2569 0.929 . S
H2560 C2564 0.929 . S
H2561 C2570 0.929 1_545 S
C2562 H2556 0.946 . S
C2562 C2563 1.367 . S
C2562 C2570 1.378 . S
C2563 C2562 1.367 . S
C2563 C2571 1.433 . S
C2564 H2560 0.929 . S
C2564 C2566 1.378 . S
C2564 C2568 1.350 . S
C2565 C2568 1.463 . S
C2565 C2570 1.350 . S
C2565 N2573 1.427 . S
C2566 H2557 0.930 . S
C2566 C2564 1.378 . S
C2566 C2567 1.402 . S
C2567 C2566 1.402 . S
C2567 C2569 1.424 1_565 S
C2568 C2564 1.350 . S
C2568 C2565 1.463 . S
C2568 N2572 1.427 1_565 S
C2569 H2559 0.929 . S
C2569 C2567 1.424 1_545 S
C2569 N2572 1.384 . S
C2570 H2561 0.929 1_565 S
C2570 C2562 1.378 . S
C2570 C2565 1.350 . S
C2571 H2558 0.929 . S
C2571 C2563 1.433 . S
C2571 N2573 1.384 . S
N2572 C2568 1.427 1_545 S
N2572 C2569 1.384 . S
N2573 C2565 1.427 . S
N2573 C2571 1.384 . S
H2574 C2580 0.930 . S
H2575 C2584 0.932 . S
H2576 C2589 0.929 . S
H2577 C2587 0.932 1_655 S
H2578 C2582 0.929 . S
H2579 C2588 0.929 . S
C2580 H2574 0.930 . S
C2580 C2581 1.367 . S
C2580 C2588 1.378 . S
C2581 C2580 1.367 . S
C2581 C2589 1.433 . S
C2582 H2578 0.929 . S
C2582 C2584 1.378 . S
C2582 C2586 1.350 . S
C2583 C2586 1.463 . S
C2583 C2588 1.350 . S
C2583 N2591 1.427 . S
C2584 H2575 0.932 . S
C2584 C2582 1.378 . S
C2584 C2585 1.384 1_455 S
C2585 C2584 1.384 1_655 S
C2585 C2587 1.429 1_655 S
C2586 C2582 1.350 . S
C2586 C2583 1.463 . S
C2586 N2590 1.427 . S
C2587 H2577 0.932 1_455 S
C2587 C2585 1.429 1_455 S
C2587 N2590 1.384 . S
C2588 H2579 0.929 . S
C2588 C2580 1.378 . S
C2588 C2583 1.350 . S
C2589 H2576 0.929 . S
C2589 C2581 1.433 . S
C2589 N2591 1.384 . S
N2590 C2586 1.427 . S
N2590 C2587 1.384 . S
N2591 C2583 1.427 . S
N2591 C2589 1.384 . S
H2592 C2598 0.930 . S
H2593 C2602 0.930 . S
H2594 C2607 0.929 . S
H2595 C2605 0.929 . S
H2596 C2600 0.929 . S
H2597 C2606 0.929 . S
C2598 H2592 0.930 . S
C2598 C2599 1.367 . S
C2598 C2606 1.378 . S
C2599 C2598 1.367 . S
C2599 C2607 1.433 . S
C2600 H2596 0.929 . S
C2600 C2602 1.378 . S
C2600 C2604 1.350 . S
C2601 C2604 1.463 . S
C2601 C2606 1.350 . S
C2601 N2609 1.427 . S
C2602 H2593 0.930 . S
C2602 C2600 1.378 . S
C2602 C2603 1.367 . S
C2603 C2602 1.367 . S
C2603 C2605 1.433 . S
C2604 C2600 1.350 . S
C2604 C2601 1.463 . S
C2604 N2608 1.427 . S
C2605 H2595 0.929 . S
C2605 C2603 1.433 . S
C2605 N2608 1.384 . S
C2606 H2597 0.929 . S
C2606 C2598 1.378 . S
C2606 C2601 1.350 . S
C2607 H2594 0.929 . S
C2607 C2599 1.433 . S
C2607 N2609 1.384 . S
N2608 C2604 1.427 . S
N2608 C2605 1.384 . S
N2609 C2601 1.427 . S
N2609 C2607 1.384 . S
H2610 C2616 0.930 . S
H2611 C2620 0.930 . S
H2612 C2625 0.929 . S
H2613 C2623 0.929 . S
H2614 C2618 0.929 . S
H2615 C2624 0.929 . S
C2616 H2610 0.930 . S
C2616 C2617 1.367 . S
C2616 C2624 1.378 . S
C2617 C2616 1.367 . S
C2617 C2625 1.433 . S
C2618 H2614 0.929 . S
C2618 C2620 1.378 . S
C2618 C2622 1.350 . S
C2619 C2622 1.463 . S
C2619 C2624 1.350 . S
C2619 N2627 1.427 . S
C2620 H2611 0.930 . S
C2620 C2618 1.378 . S
C2620 C2621 1.367 . S
C2621 C2620 1.367 . S
C2621 C2623 1.433 . S
C2622 C2618 1.350 . S
C2622 C2619 1.463 . S
C2622 N2626 1.427 . S
C2623 H2613 0.929 . S
C2623 C2621 1.433 . S
C2623 N2626 1.384 . S
C2624 H2615 0.929 . S
C2624 C2616 1.378 . S
C2624 C2619 1.350 . S
C2625 H2612 0.929 . S
C2625 C2617 1.433 . S
C2625 N2627 1.384 . S
N2626 C2622 1.427 . S
N2626 C2623 1.384 . S
N2627 C2619 1.427 . S
N2627 C2625 1.384 . S
H2628 C2634 0.930 . S
H2629 C2638 0.930 . S
H2630 C2643 0.929 . S
H2631 C2641 0.929 . S
H2632 C2636 0.929 . S
H2633 C2642 0.929 . S
C2634 H2628 0.930 . S
C2634 C2635 1.367 . S
C2634 C2642 1.378 . S
C2635 C2634 1.367 . S
C2635 C2643 1.433 . S
C2636 H2632 0.929 . S
C2636 C2638 1.378 . S
C2636 C2640 1.350 . S
C2637 C2640 1.463 . S
C2637 C2642 1.350 . S
C2637 N2645 1.427 . S
C2638 H2629 0.930 . S
C2638 C2636 1.378 . S
C2638 C2639 1.367 . S
C2639 C2638 1.367 . S
C2639 C2641 1.433 . S
C2640 C2636 1.350 . S
C2640 C2637 1.463 . S
C2640 N2644 1.427 . S
C2641 H2631 0.929 . S
C2641 C2639 1.433 . S
C2641 N2644 1.384 . S
C2642 H2633 0.929 . S
C2642 C2634 1.378 . S
C2642 C2637 1.350 . S
C2643 H2630 0.929 . S
C2643 C2635 1.433 . S
C2643 N2645 1.384 . S
N2644 C2640 1.427 . S
N2644 C2641 1.384 . S
N2645 C2637 1.427 . S
N2645 C2643 1.384 . S
H2646 C2652 0.930 . S
H2647 C2656 0.930 . S
H2648 C2661 0.929 . S
H2649 C2659 0.929 . S
H2650 C2654 0.929 . S
H2651 C2660 0.929 . S
C2652 H2646 0.930 . S
C2652 C2653 1.367 . S
C2652 C2660 1.378 . S
C2653 C2652 1.367 . S
C2653 C2661 1.433 . S
C2654 H2650 0.929 . S
C2654 C2656 1.378 . S
C2654 C2658 1.350 . S
C2655 C2658 1.463 . S
C2655 C2660 1.350 . S
C2655 N2663 1.427 . S
C2656 H2647 0.930 . S
C2656 C2654 1.378 . S
C2656 C2657 1.367 . S
C2657 C2656 1.367 . S
C2657 C2659 1.433 . S
C2658 C2654 1.350 . S
C2658 C2655 1.463 . S
C2658 N2662 1.427 . S
C2659 H2649 0.929 . S
C2659 C2657 1.433 . S
C2659 N2662 1.384 . S
C2660 H2651 0.929 . S
C2660 C2652 1.378 . S
C2660 C2655 1.350 . S
C2661 H2648 0.929 . S
C2661 C2653 1.433 . S
C2661 N2663 1.384 . S
N2662 C2658 1.427 . S
N2662 C2659 1.384 . S
N2663 C2655 1.427 . S
N2663 C2661 1.384 . S
H2664 C2670 0.930 . S
H2665 C2674 0.930 . S
H2666 C2679 0.929 . S
H2667 C2677 0.929 1_565 S
H2668 C2672 0.929 . S
H2669 C2678 0.929 . S
C2670 H2664 0.930 . S
C2670 C2671 1.367 . S
C2670 C2678 1.378 . S
C2671 C2670 1.367 . S
C2671 C2679 1.433 . S
C2672 H2668 0.929 . S
C2672 C2674 1.378 . S
C2672 C2676 1.350 . S
C2673 C2676 1.463 . S
C2673 C2678 1.350 . S
C2673 N2681 1.427 . S
C2674 H2665 0.930 . S
C2674 C2672 1.378 . S
C2674 C2675 1.367 . S
C2675 C2674 1.367 . S
C2675 C2677 1.433 . S
C2676 C2672 1.350 . S
C2676 C2673 1.463 . S
C2676 N2680 1.427 . S
C2677 H2667 0.929 1_545 S
C2677 C2675 1.433 . S
C2677 N2680 1.384 . S
C2678 H2669 0.929 . S
C2678 C2670 1.378 . S
C2678 C2673 1.350 . S
C2679 H2666 0.929 . S
C2679 C2671 1.433 . S
C2679 N2681 1.384 . S
N2680 C2676 1.427 . S
N2680 C2677 1.384 . S
N2681 C2673 1.427 . S
N2681 C2679 1.384 . S
H2682 C2688 0.930 . S
H2683 C2692 0.930 . S
H2684 C2697 0.929 . S
H2685 C2695 0.929 . S
H2686 C2690 0.929 . S
H2687 C2696 0.929 1_455 S
C2688 H2682 0.930 . S
C2688 C2689 1.367 . S
C2688 C2696 1.378 . S
C2689 C2688 1.367 . S
C2689 C2697 1.433 . S
C2690 H2686 0.929 . S
C2690 C2692 1.378 . S
C2690 C2694 1.350 . S
C2691 C2694 1.463 . S
C2691 C2696 1.350 . S
C2691 N2699 1.427 . S
C2692 H2683 0.930 . S
C2692 C2690 1.378 . S
C2692 C2693 1.367 . S
C2693 C2692 1.367 . S
C2693 C2695 1.433 1_655 S
C2694 C2690 1.350 . S
C2694 C2691 1.463 . S
C2694 N2698 1.427 . S
C2695 H2685 0.929 . S
C2695 C2693 1.433 1_455 S
C2695 N2698 1.384 1_455 S
C2696 H2687 0.929 1_655 S
C2696 C2688 1.378 . S
C2696 C2691 1.350 . S
C2697 H2684 0.929 . S
C2697 C2689 1.433 . S
C2697 N2699 1.384 . S
N2698 C2694 1.427 . S
N2698 C2695 1.384 1_655 S
N2699 C2691 1.427 . S
N2699 C2697 1.384 . S
H2700 C2706 0.930 . S
H2701 C2710 0.930 . S
H2702 C2715 0.929 . S
H2703 C2713 0.929 . S
H2704 C2708 0.929 . S
H2705 C2714 0.929 . S
C2706 H2700 0.930 . S
C2706 C2707 1.367 . S
C2706 C2714 1.378 . S
C2707 C2706 1.367 . S
C2707 C2715 1.433 . S
C2708 H2704 0.929 . S
C2708 C2710 1.378 . S
C2708 C2712 1.350 . S
C2709 C2712 1.463 . S
C2709 C2714 1.350 . S
C2709 N2717 1.427 . S
C2710 H2701 0.930 . S
C2710 C2708 1.378 . S
C2710 C2711 1.367 . S
C2711 C2710 1.367 . S
C2711 C2713 1.433 . S
C2712 C2708 1.350 . S
C2712 C2709 1.463 . S
C2712 N2716 1.427 . S
C2713 H2703 0.929 . S
C2713 C2711 1.433 . S
C2713 N2716 1.384 . S
C2714 H2705 0.929 . S
C2714 C2706 1.378 . S
C2714 C2709 1.350 . S
C2715 H2702 0.929 . S
C2715 C2707 1.433 . S
C2715 N2717 1.384 . S
N2716 C2712 1.427 . S
N2716 C2713 1.384 . S
N2717 C2709 1.427 . S
N2717 C2715 1.384 . S
H2718 C2724 0.930 . S
H2719 C2728 0.930 . S
H2720 C2733 0.929 . S
H2721 C2731 0.929 . S
H2722 C2726 0.929 . S
H2723 C2732 0.929 . S
C2724 H2718 0.930 . S
C2724 C2725 1.367 . S
C2724 C2732 1.378 . S
C2725 C2724 1.367 . S
C2725 C2733 1.433 . S
C2726 H2722 0.929 . S
C2726 C2728 1.378 . S
C2726 C2730 1.350 . S
C2727 C2730 1.463 . S
C2727 C2732 1.350 . S
C2727 N2735 1.427 . S
C2728 H2719 0.930 . S
C2728 C2726 1.378 . S
C2728 C2729 1.367 . S
C2729 C2728 1.367 . S
C2729 C2731 1.433 . S
C2730 C2726 1.350 . S
C2730 C2727 1.463 . S
C2730 N2734 1.427 . S
C2731 H2721 0.929 . S
C2731 C2729 1.433 . S
C2731 N2734 1.384 . S
C2732 H2723 0.929 . S
C2732 C2724 1.378 . S
C2732 C2727 1.350 . S
C2733 H2720 0.929 . S
C2733 C2725 1.433 . S
C2733 N2735 1.384 . S
N2734 C2730 1.427 . S
N2734 C2731 1.384 . S
N2735 C2727 1.427 . S
N2735 C2733 1.384 . S
H2736 C2742 0.930 . S
H2737 C2746 0.930 . S
H2738 C2751 0.929 . S
H2739 C2749 0.929 . S
H2740 C2744 0.929 . S
H2741 C2750 0.929 . S
C2742 H2736 0.930 . S
C2742 C2743 1.367 . S
C2742 C2750 1.378 . S
C2743 C2742 1.367 . S
C2743 C2751 1.433 . S
C2744 H2740 0.929 . S
C2744 C2746 1.378 . S
C2744 C2748 1.350 . S
C2745 C2748 1.463 . S
C2745 C2750 1.350 . S
C2745 N2753 1.427 . S
C2746 H2737 0.930 . S
C2746 C2744 1.378 . S
C2746 C2747 1.367 . S
C2747 C2746 1.367 . S
C2747 C2749 1.433 . S
C2748 C2744 1.350 . S
C2748 C2745 1.463 . S
C2748 N2752 1.427 . S
C2749 H2739 0.929 . S
C2749 C2747 1.433 . S
C2749 N2752 1.384 . S
C2750 H2741 0.929 . S
C2750 C2742 1.378 . S
C2750 C2745 1.350 . S
C2751 H2738 0.929 . S
C2751 C2743 1.433 . S
C2751 N2753 1.384 . S
N2752 C2748 1.427 . S
N2752 C2749 1.384 . S
N2753 C2745 1.427 . S
N2753 C2751 1.384 . S
H2754 C2760 0.930 . S
H2755 C2764 0.930 . S
H2756 C2769 0.929 . S
H2757 C2767 0.929 . S
H2758 C2762 0.929 . S
H2759 C2768 0.929 . S
C2760 H2754 0.930 . S
C2760 C2761 1.367 . S
C2760 C2768 1.378 . S
C2761 C2760 1.367 . S
C2761 C2769 1.433 . S
C2762 H2758 0.929 . S
C2762 C2764 1.378 . S
C2762 C2766 1.350 . S
C2763 C2766 1.463 . S
C2763 C2768 1.350 . S
C2763 N2771 1.427 . S
C2764 H2755 0.930 . S
C2764 C2762 1.378 . S
C2764 C2765 1.367 . S
C2765 C2764 1.367 . S
C2765 C2767 1.433 . S
C2766 C2762 1.350 . S
C2766 C2763 1.463 . S
C2766 N2770 1.427 . S
C2767 H2757 0.929 . S
C2767 C2765 1.433 . S
C2767 N2770 1.384 . S
C2768 H2759 0.929 . S
C2768 C2760 1.378 . S
C2768 C2763 1.350 . S
C2769 H2756 0.929 . S
C2769 C2761 1.433 . S
C2769 N2771 1.384 . S
N2770 C2766 1.427 . S
N2770 C2767 1.384 . S
N2771 C2763 1.427 . S
N2771 C2769 1.384 . S
H2772 C2778 0.930 . S
H2773 C2782 0.930 . S
H2774 C2787 0.929 . S
H2775 C2785 0.929 . S
H2776 C2780 0.929 . S
H2777 C2786 0.929 . S
C2778 H2772 0.930 . S
C2778 C2779 1.367 . S
C2778 C2786 1.378 . S
C2779 C2778 1.367 . S
C2779 C2787 1.433 . S
C2780 H2776 0.929 . S
C2780 C2782 1.378 . S
C2780 C2784 1.350 . S
C2781 C2784 1.463 . S
C2781 C2786 1.350 . S
C2781 N2789 1.427 . S
C2782 H2773 0.930 . S
C2782 C2780 1.378 . S
C2782 C2783 1.367 . S
C2783 C2782 1.367 . S
C2783 C2785 1.433 . S
C2784 C2780 1.350 . S
C2784 C2781 1.463 . S
C2784 N2788 1.427 . S
C2785 H2775 0.929 . S
C2785 C2783 1.433 . S
C2785 N2788 1.384 . S
C2786 H2777 0.929 . S
C2786 C2778 1.378 . S
C2786 C2781 1.350 . S
C2787 H2774 0.929 . S
C2787 C2779 1.433 . S
C2787 N2789 1.384 . S
N2788 C2784 1.427 . S
N2788 C2785 1.384 . S
N2789 C2781 1.427 . S
N2789 C2787 1.384 . S
H2790 C2796 0.930 . S
H2791 C2800 0.930 . S
H2792 C2805 0.929 . S
H2793 C2803 0.929 . S
H2794 C2798 0.929 . S
H2795 C2804 0.929 . S
C2796 H2790 0.930 . S
C2796 C2797 1.367 . S
C2796 C2804 1.378 . S
C2797 C2796 1.367 . S
C2797 C2805 1.433 . S
C2798 H2794 0.929 . S
C2798 C2800 1.378 . S
C2798 C2802 1.350 . S
C2799 C2802 1.463 . S
C2799 C2804 1.350 . S
C2799 N2807 1.427 . S
C2800 H2791 0.930 . S
C2800 C2798 1.378 . S
C2800 C2801 1.367 . S
C2801 C2800 1.367 . S
C2801 C2803 1.433 . S
C2802 C2798 1.350 . S
C2802 C2799 1.463 . S
C2802 N2806 1.427 . S
C2803 H2793 0.929 . S
C2803 C2801 1.433 . S
C2803 N2806 1.384 . S
C2804 H2795 0.929 . S
C2804 C2796 1.378 . S
C2804 C2799 1.350 . S
C2805 H2792 0.929 . S
C2805 C2797 1.433 . S
C2805 N2807 1.384 . S
N2806 C2802 1.427 . S
N2806 C2803 1.384 . S
N2807 C2799 1.427 . S
N2807 C2805 1.384 . S
H2808 C2814 0.930 . S
H2809 C2818 0.930 . S
H2810 C2823 0.929 . S
H2811 C2821 0.929 . S
H2812 C2816 0.929 . S
H2813 C2822 0.929 . S
C2814 H2808 0.930 . S
C2814 C2815 1.367 . S
C2814 C2822 1.378 . S
C2815 C2814 1.367 . S
C2815 C2823 1.433 . S
C2816 H2812 0.929 . S
C2816 C2818 1.378 . S
C2816 C2820 1.350 . S
C2817 C2820 1.463 . S
C2817 C2822 1.350 . S
C2817 N2825 1.427 . S
C2818 H2809 0.930 . S
C2818 C2816 1.378 . S
C2818 C2819 1.367 . S
C2819 C2818 1.367 . S
C2819 C2821 1.433 . S
C2820 C2816 1.350 . S
C2820 C2817 1.463 . S
C2820 N2824 1.427 . S
C2821 H2811 0.929 . S
C2821 C2819 1.433 . S
C2821 N2824 1.384 . S
C2822 H2813 0.929 . S
C2822 C2814 1.378 . S
C2822 C2817 1.350 . S
C2823 H2810 0.929 . S
C2823 C2815 1.433 . S
C2823 N2825 1.384 . S
N2824 C2820 1.427 . S
N2824 C2821 1.384 . S
N2825 C2817 1.427 . S
N2825 C2823 1.384 . S
H2826 C2832 0.930 . S
H2827 C2836 0.930 . S
H2828 C2841 0.929 . S
H2829 C2839 0.929 . S
H2830 C2834 0.929 . S
H2831 C2840 0.929 . S
C2832 H2826 0.930 . S
C2832 C2833 1.367 . S
C2832 C2840 1.378 . S
C2833 C2832 1.367 . S
C2833 C2841 1.433 . S
C2834 H2830 0.929 . S
C2834 C2836 1.378 . S
C2834 C2838 1.350 1_455 S
C2835 C2838 1.463 . S
C2835 C2840 1.350 . S
C2835 N2843 1.427 . S
C2836 H2827 0.930 . S
C2836 C2834 1.378 . S
C2836 C2837 1.367 1_455 S
C2837 C2836 1.367 1_655 S
C2837 C2839 1.433 . S
C2838 C2834 1.350 1_655 S
C2838 C2835 1.463 . S
C2838 N2842 1.427 . S
C2839 H2829 0.929 . S
C2839 C2837 1.433 . S
C2839 N2842 1.384 . S
C2840 H2831 0.929 . S
C2840 C2832 1.378 . S
C2840 C2835 1.350 . S
C2841 H2828 0.929 . S
C2841 C2833 1.433 . S
C2841 N2843 1.384 . S
N2842 C2838 1.427 . S
N2842 C2839 1.384 . S
N2843 C2835 1.427 . S
N2843 C2841 1.384 . S
H2844 C2850 0.930 . S
H2845 C2854 0.930 . S
H2846 C2859 0.929 . S
H2847 C2857 0.929 . S
H2848 C2852 0.929 . S
H2849 C2858 0.929 . S
C2850 H2844 0.930 . S
C2850 C2851 1.367 . S
C2850 C2858 1.378 . S
C2851 C2850 1.367 . S
C2851 C2859 1.433 . S
C2852 H2848 0.929 . S
C2852 C2854 1.378 . S
C2852 C2856 1.350 . S
C2853 C2856 1.463 . S
C2853 C2858 1.350 . S
C2853 N2861 1.427 . S
C2854 H2845 0.930 . S
C2854 C2852 1.378 . S
C2854 C2855 1.367 . S
C2855 C2854 1.367 . S
C2855 C2857 1.433 . S
C2856 C2852 1.350 . S
C2856 C2853 1.463 . S
C2856 N2860 1.427 . S
C2857 H2847 0.929 . S
C2857 C2855 1.433 . S
C2857 N2860 1.384 . S
C2858 H2849 0.929 . S
C2858 C2850 1.378 . S
C2858 C2853 1.350 . S
C2859 H2846 0.929 . S
C2859 C2851 1.433 . S
C2859 N2861 1.384 . S
N2860 C2856 1.427 . S
N2860 C2857 1.384 . S
N2861 C2853 1.427 . S
N2861 C2859 1.384 . S
H2862 C2868 0.930 . S
H2863 C2872 0.930 . S
H2864 C2877 0.929 . S
H2865 C2875 0.929 . S
H2866 C2870 0.929 1_565 S
H2867 C2876 0.929 . S
C2868 H2862 0.930 . S
C2868 C2869 1.367 . S
C2868 C2876 1.378 . S
C2869 C2868 1.367 . S
C2869 C2877 1.433 . S
C2870 H2866 0.929 1_545 S
C2870 C2872 1.378 1_545 S
C2870 C2874 1.350 . S
C2871 C2874 1.463 . S
C2871 C2876 1.350 . S
C2871 N2879 1.427 . S
C2872 H2863 0.930 . S
C2872 C2870 1.378 1_565 S
C2872 C2873 1.367 1_565 S
C2873 C2872 1.367 1_545 S
C2873 C2875 1.433 . S
C2874 C2870 1.350 . S
C2874 C2871 1.463 . S
C2874 N2878 1.427 . S
C2875 H2865 0.929 . S
C2875 C2873 1.433 . S
C2875 N2878 1.384 . S
C2876 H2867 0.929 . S
C2876 C2868 1.378 . S
C2876 C2871 1.350 . S
C2877 H2864 0.929 . S
C2877 C2869 1.433 . S
C2877 N2879 1.384 . S
N2878 C2874 1.427 . S
N2878 C2875 1.384 . S
N2879 C2871 1.427 . S
N2879 C2877 1.384 . S
C1591 C4 1.192 . S
C1595 C981 1.167 . S
C1609 C26 1.590 . S
C1613 C1061 1.561 . S
C1631 C1129 1.241 . S
C1627 C32 1.265 . S
C1645 C40 1.623 . S
C1649 C1209 1.638 . S
C1663 C12 1.464 . S
C1667 C1283 1.473 . S
C1681 C18 1.522 . S
C1685 C1351 1.477 . S
C1699 C46 1.110 . S
C1703 C1277 1.097 . S
C1721 C1357 1.452 . S
C1717 C68 1.446 . S
C1739 C1203 1.284 . S
C1735 C74 1.291 . S
C1753 C82 1.618 . S
C1757 C1135 1.656 1_545 S
C1775 C987 1.476 1_655 S
C1771 C54 1.472 . S
C1789 C60 1.374 . S
C1793 C1055 1.369 . S
C1807 C88 1.389 . S
C1811 C1425 1.340 . S
C1825 C110 1.627 . S
C1829 C1505 1.578 . S
C1847 C1573 1.525 . S
C1843 C116 1.587 . S
C1861 C124 1.746 . S
C1865 C321 1.708 . S
C1879 C96 1.635 . S
C1883 C395 1.590 . S
C1897 C102 1.552 . S
C1901 C463 1.493 . S
C1915 C130 1.114 . S
C1919 C389 1.111 . S
C1933 C152 1.524 . S
C1937 C469 1.523 . S
C1955 C315 1.390 . S
C1951 C158 1.397 . S
C1973 C1579 1.717 . S
C1969 C166 1.704 . S
C1991 C1431 1.453 . S
C1987 C138 1.454 . S
C2009 C1499 1.422 . S
C2005 C144 1.423 . S
C2023 C172 1.318 . S
C2027 C537 1.268 . S
C2041 C194 1.670 . S
C2045 C617 1.609 . S
C2059 C200 1.589 . S
C2063 C685 1.518 . S
C2077 C208 1.806 . S
C2081 C765 1.777 . S
C2099 C839 1.571 . S
C2095 C180 1.618 . S
C2117 C907 1.539 . S
C2113 C186 1.595 . S
C2135 C833 1.239 . S
C2131 C214 1.238 . S
C2153 C913 1.487 . S
C2149 C236 1.488 . S
C2167 C242 1.354 . S
C2171 C759 1.351 . S
C2189 C691 1.618 . S
C2185 C250 1.601 . S
C2203 C222 1.507 . S
C2207 C543 1.513 . S
C2225 C611 1.391 . S
C2221 C228 1.396 . S
C2243 C291 1.911 . S
C2239 C5 1.747 . S
C2257 C25 1.393 . S
C2261 C365 1.377 . S
C2279 C451 1.523 . S
C2275 C33 1.341 . S
C2297 C525 1.106 . S
C2293 C39 1.126 . S
C2315 C587 1.515 . S
C2311 C11 1.529 1_556 S
C2333 C673 1.494 . S
C2329 C19 1.308 . S
C2347 C47 1.945 . S
C2351 C661 2.064 . S
C2365 C67 1.618 . S
C2369 C513 1.513 . S
C2383 C75 1.559 . S
C2387 C599 1.737 . S
C2401 C81 1.448 . S
C2405 C377 1.370 . S
C2423 C439 1.650 . S
C2419 C53 1.758 . S
C2437 C61 1.484 . S
C2441 C303 1.676 . S
C2459 C735 1.845 . S
C2455 C89 1.675 . S
C2473 C109 1.499 . S
C2477 C809 1.480 . S
C2491 C117 1.286 . S
C2495 C895 1.505 . S
C2513 C969 0.964 . S
C2509 C123 0.963 . S
C2527 C95 1.406 . S
C2531 C1031 1.395 . S
C2545 C103 1.191 . S
C2549 C1117 1.319 . S
C2563 C131 1.559 . S
C2567 C1105 1.656 1_565 S
C2581 C151 1.329 . S
C2585 C957 1.259 . S
C2603 C1043 1.602 . S
C2599 C159 1.398 . S
C2617 C165 1.434 . S
C2621 C821 1.341 . S
C2635 C137 1.759 . S
C2639 C883 1.659 . S
C2657 C747 1.737 . S
C2653 C145 1.538 . S
C2675 C1179 1.685 . S
C2671 C173 1.527 . S
C2689 C193 1.156 . S
C2693 C1253 1.157 . S
C2707 C201 1.196 . S
C2711 C1339 1.393 . S
C2729 C1413 1.110 . S
C2725 C207 1.129 . S
C2747 C1475 1.542 . S
C2743 C179 1.554 1_565 S
C2761 C187 1.364 . S
C2765 C1561 1.558 . S
C2779 C215 1.859 . S
C2783 C1549 1.995 . S
C2797 C235 1.714 1_565 S
C2801 C1401 1.622 . S
C2819 C1487 1.693 . S
C2815 C243 1.481 . S
C2837 C1265 1.021 . S
C2833 C249 1.034 . S
C2855 C1327 1.542 . S
C2851 C221 1.633 . S
C2869 C229 1.270 . S
C2873 C1191 1.432 . S
