# Generated by pormake.
# Topology pyr, (3,6)-cn, num edge types: 1
# Building blocks:
#     Node 0, Type 0, BuildingBlock: BELTOD_clean_linker_0, # of connection points: 3
#     Node 1, Type 0, BuildingBlock: BELTOD_clean_linker_0, # of connection points: 3
#     Node 2, Type 0, BuildingBlock: BELTOD_clean_linker_0, # of connection points: 3
#     Node 3, Type 0, BuildingBlock: BELTOD_clean_linker_0, # of connection points: 3
#     Node 4, Type 0, BuildingBlock: BELTOD_clean_linker_0, # of connection points: 3
#     Node 5, Type 0, BuildingBlock: BELTOD_clean_linker_0, # of connection points: 3
#     Node 6, Type 0, BuildingBlock: BELTOD_clean_linker_0, # of connection points: 3
#     Node 7, Type 0, BuildingBlock: BELTOD_clean_linker_0, # of connection points: 3
#     Node 8, Type 1, BuildingBlock: PAMTOO_clean_sbu_0, # of connection points: 6
#     Node 9, Type 1, BuildingBlock: PAMTOO_clean_sbu_0, # of connection points: 6
#     Node 10, Type 1, BuildingBlock: PAMTOO_clean_sbu_0, # of connection points: 6
#     Node 11, Type 1, BuildingBlock: PAMTOO_clean_sbu_0, # of connection points: 6
#     Edge 12, Type (0, 1), BuildingBlock: EZIPEK_clean_linker_0, # of connection points: 2
#     Edge 13, Type (0, 1), BuildingBlock: EZIPEK_clean_linker_0, # of connection points: 2
#     Edge 14, Type (0, 1), BuildingBlock: EZIPEK_clean_linker_0, # of connection points: 2
#     Edge 15, Type (0, 1), BuildingBlock: EZIPEK_clean_linker_0, # of connection points: 2
#     Edge 16, Type (0, 1), BuildingBlock: EZIPEK_clean_linker_0, # of connection points: 2
#     Edge 17, Type (0, 1), BuildingBlock: EZIPEK_clean_linker_0, # of connection points: 2
#     Edge 18, Type (0, 1), BuildingBlock: EZIPEK_clean_linker_0, # of connection points: 2
#     Edge 19, Type (0, 1), BuildingBlock: EZIPEK_clean_linker_0, # of connection points: 2
#     Edge 20, Type (0, 1), BuildingBlock: EZIPEK_clean_linker_0, # of connection points: 2
#     Edge 21, Type (0, 1), BuildingBlock: EZIPEK_clean_linker_0, # of connection points: 2
#     Edge 22, Type (0, 1), BuildingBlock: EZIPEK_clean_linker_0, # of connection points: 2
#     Edge 23, Type (0, 1), BuildingBlock: EZIPEK_clean_linker_0, # of connection points: 2
#     Edge 24, Type (0, 1), BuildingBlock: EZIPEK_clean_linker_0, # of connection points: 2
#     Edge 25, Type (0, 1), BuildingBlock: EZIPEK_clean_linker_0, # of connection points: 2
#     Edge 26, Type (0, 1), BuildingBlock: EZIPEK_clean_linker_0, # of connection points: 2
#     Edge 27, Type (0, 1), BuildingBlock: EZIPEK_clean_linker_0, # of connection points: 2
#     Edge 28, Type (0, 1), BuildingBlock: EZIPEK_clean_linker_0, # of connection points: 2
#     Edge 29, Type (0, 1), BuildingBlock: EZIPEK_clean_linker_0, # of connection points: 2
#     Edge 30, Type (0, 1), BuildingBlock: EZIPEK_clean_linker_0, # of connection points: 2
#     Edge 31, Type (0, 1), BuildingBlock: EZIPEK_clean_linker_0, # of connection points: 2
#     Edge 32, Type (0, 1), BuildingBlock: EZIPEK_clean_linker_0, # of connection points: 2
#     Edge 33, Type (0, 1), BuildingBlock: EZIPEK_clean_linker_0, # of connection points: 2
#     Edge 34, Type (0, 1), BuildingBlock: EZIPEK_clean_linker_0, # of connection points: 2
#     Edge 35, Type (0, 1), BuildingBlock: EZIPEK_clean_linker_0, # of connection points: 2
# Relax obj value: 0.148
# Max RMSD: 0.180
# Mean RMSD: 0.076
data_MOF--net-pyr--node1-PAMTOO_clean_sbu_0--node2-BELTOD_clean_linker_0--edge1-EZIPEK_clean_linker_0
_symmetry_space_group_name_H-M    P1
_symmetry_Int_Tables_number       1
_symmetry_cell_setting            triclinic
loop_
_symmetry_equiv_pos_as_xyz
'x, y, z'
_cell_length_a     31.980745
_cell_length_b     34.439642
_cell_length_c     33.62203
_cell_angle_alpha  89.954871
_cell_angle_beta   90.122401
_cell_angle_gamma 104.52431
loop_
_atom_site_label
_atom_site_type_symbol
_atom_site_fract_x
_atom_site_fract_y
_atom_site_fract_z
_atom_type_partial_charge
P0 P 0.41522 0.32807 0.25955 0.0
H1 H 0.41396 0.29823 0.17695 0.0
H2 H 0.44226 0.24461 0.14803 0.0
H3 H 0.50593 0.23243 0.25881 0.0
H4 H 0.47738 0.28586 0.28798 0.0
H5 H 0.38917 0.402 0.24184 0.0
H6 H 0.32176 0.4135 0.21516 0.0
H7 H 0.27422 0.28684 0.19273 0.0
H8 H 0.34156 0.27524 0.21927 0.0
H9 H 0.3962 0.35684 0.33804 0.0
H10 H 0.37624 0.24391 0.27603 0.0
O11 O 0.45083 0.37073 0.27174 0.0
H12 H 0.35255 0.32217 0.39401 0.0
H13 H 0.3331 0.20981 0.33141 0.0
C14 C 0.4428 0.29533 0.2349 0.0
C15 C 0.43431 0.28441 0.19496 0.0
C16 C 0.45052 0.25394 0.17842 0.0
C17 C 0.47558 0.23438 0.20157 0.0
C18 C 0.48638 0.24709 0.24068 0.0
C19 C 0.47021 0.27755 0.25718 0.0
C20 C 0.37077 0.33788 0.23176 0.0
C21 C 0.36485 0.37683 0.23015 0.0
C22 C 0.32636 0.38339 0.21518 0.0
C23 C 0.29324 0.35099 0.20199 0.0
C24 C 0.29961 0.31218 0.20254 0.0
C25 C 0.33808 0.30566 0.21747 0.0
C26 C 0.39034 0.30278 0.3034 0.0
C27 C 0.38346 0.32462 0.33691 0.0
C28 C 0.35855 0.305 0.36863 0.0
C29 C 0.34 0.26355 0.36662 0.0
C30 C 0.34756 0.24177 0.33345 0.0
C31 C 0.37236 0.26125 0.30199 0.0
P32 P 0.21025 0.84181 0.72683 0.0
H33 H 0.27264 0.87265 0.78898 0.0
H34 H 0.26509 0.88431 0.85986 0.0
H35 H 0.12892 0.82697 0.85315 0.0
H36 H 0.13636 0.81516 0.7816 0.0
H37 H 0.20395 0.80303 0.64933 0.0
H38 H 0.24197 0.75461 0.62368 0.0
H39 H 0.27969 0.73254 0.74308 0.0
H40 H 0.24166 0.78042 0.76873 0.0
H41 H 0.19981 0.9171 0.69562 0.0
H42 H 0.12107 0.79619 0.70908 0.0
O43 O 0.25458 0.87661 0.7138 0.0
H44 H 0.13823 0.93787 0.66823 0.0
H45 H 0.05824 0.81768 0.68279 0.0
C46 C 0.20483 0.84425 0.77982 0.0
C47 C 0.24117 0.86224 0.8026 0.0
C48 C 0.23694 0.86869 0.84304 0.0
C49 C 0.19638 0.85696 0.86133 0.0
C50 C 0.16037 0.83641 0.83926 0.0
C51 C 0.16464 0.82997 0.79852 0.0
C52 C 0.21966 0.79508 0.71094 0.0
C53 C 0.21846 0.78624 0.67018 0.0
C54 C 0.24028 0.75881 0.65551 0.0
C55 C 0.26386 0.74048 0.68157 0.0
C56 C 0.26155 0.74642 0.72264 0.0
C57 C 0.23967 0.7737 0.73725 0.0
C58 C 0.16516 0.85492 0.70355 0.0
C59 C 0.16938 0.89487 0.6923 0.0
C60 C 0.13417 0.90686 0.67701 0.0
C61 C 0.09391 0.87926 0.67338 0.0
C62 C 0.08926 0.83926 0.6852 0.0
C63 C 0.12496 0.82705 0.69994 0.0
P64 P 0.67604 0.34707 0.846 0.0
H65 H 0.76396 0.39397 0.83023 0.0
H66 H 0.82144 0.43186 0.87347 0.0
H67 H 0.73213 0.41558 0.97164 0.0
H68 H 0.67362 0.38042 0.92735 0.0
H69 H 0.58807 0.29316 0.835 0.0
H70 H 0.54768 0.23426 0.87272 0.0
H71 H 0.64921 0.25459 0.96039 0.0
H72 H 0.6901 0.31152 0.92232 0.0
H73 H 0.71066 0.38684 0.77282 0.0
H74 H 0.59008 0.36638 0.83628 0.0
O75 O 0.70496 0.32136 0.82058 0.0
H76 H 0.68106 0.42033 0.71944 0.0
H77 H 0.55998 0.39955 0.78192 0.0
C78 C 0.71477 0.38298 0.87584 0.0
C79 C 0.75628 0.39946 0.86072 0.0
C80 C 0.7892 0.42103 0.88549 0.0
C81 C 0.78151 0.42578 0.92615 0.0
C82 C 0.73908 0.41198 0.94054 0.0
C83 C 0.70573 0.39165 0.91527 0.0
C84 C 0.64109 0.30891 0.87694 0.0
C85 C 0.60097 0.28593 0.86304 0.0
C86 C 0.57805 0.25204 0.88439 0.0
C87 C 0.59502 0.24047 0.91989 0.0
C88 C 0.63496 0.26343 0.93368 0.0
C89 C 0.65803 0.29658 0.91208 0.0
C90 C 0.65241 0.3732 0.80836 0.0
C91 C 0.67773 0.38946 0.77535 0.0
C92 C 0.66089 0.40868 0.74476 0.0
C93 C 0.61822 0.41224 0.7464 0.0
C94 C 0.59295 0.39693 0.77989 0.0
C95 C 0.61006 0.37785 0.81084 0.0
P96 P 0.84479 0.70122 0.33771 0.0
H97 H 0.87678 0.7842 0.31011 0.0
H98 H 0.90947 0.84681 0.34536 0.0
H99 H 0.92163 0.77944 0.45097 0.0
H100 H 0.88842 0.71661 0.41575 0.0
H101 H 0.81086 0.62772 0.29275 0.0
H102 H 0.84236 0.5917 0.24279 0.0
H103 H 0.96731 0.67241 0.26266 0.0
H104 H 0.93573 0.70849 0.31311 0.0
H105 H 0.78693 0.7276 0.39139 0.0
H106 H 0.82159 0.61662 0.3677 0.0
O107 O 0.81322 0.71783 0.30577 0.0
H108 H 0.73092 0.69267 0.4376 0.0
H109 H 0.76455 0.5814 0.41347 0.0
C110 C 0.87969 0.74559 0.36033 0.0
C111 C 0.88727 0.78266 0.34057 0.0
C112 C 0.90584 0.8185 0.36073 0.0
C113 C 0.91757 0.81794 0.40097 0.0
C114 C 0.91265 0.78065 0.42 0.0
C115 C 0.8939 0.74477 0.39982 0.0
C116 C 0.87101 0.67027 0.30764 0.0
C117 C 0.84532 0.63703 0.28739 0.0
C118 C 0.86321 0.61659 0.25857 0.0
C119 C 0.90725 0.6292 0.24893 0.0
C120 C 0.93333 0.66192 0.26977 0.0
C121 C 0.91532 0.6824 0.29874 0.0
C122 C 0.80824 0.67476 0.37564 0.0
C123 C 0.78289 0.69581 0.39647 0.0
C124 C 0.75095 0.67592 0.42292 0.0
C125 C 0.74345 0.63443 0.42895 0.0
C126 C 0.76987 0.61346 0.40932 0.0
C127 C 0.80223 0.63355 0.38296 0.0
P128 P 0.70717 0.85149 0.88064 0.0
H129 H 0.68998 0.88734 0.9547 0.0
H130 H 0.62632 0.90746 0.97855 0.0
H131 H 0.55117 0.8437 0.88143 0.0
H132 H 0.61528 0.82395 0.85698 0.0
H133 H 0.77403 0.81819 0.84833 0.0
H134 H 0.81598 0.77446 0.87633 0.0
H135 H 0.73571 0.75646 0.98097 0.0
H136 H 0.6934 0.80082 0.95288 0.0
H137 H 0.72735 0.91222 0.81881 0.0
H138 H 0.67366 0.78427 0.82572 0.0
O139 O 0.74382 0.89411 0.89109 0.0
H140 H 0.72927 0.90793 0.74647 0.0
H141 H 0.67443 0.78016 0.75243 0.0
C142 C 0.65757 0.85493 0.90365 0.0
C143 C 0.65966 0.87689 0.93895 0.0
C144 C 0.62343 0.88843 0.95251 0.0
C145 C 0.58452 0.87775 0.93118 0.0
C146 C 0.58119 0.85253 0.89792 0.0
C147 C 0.61774 0.84129 0.88408 0.0
C148 C 0.73005 0.81207 0.89817 0.0
C149 C 0.76448 0.80397 0.87677 0.0
C150 C 0.7886 0.77925 0.89278 0.0
C151 C 0.77886 0.76242 0.93059 0.0
C152 C 0.74339 0.76914 0.95159 0.0
C153 C 0.71926 0.79424 0.93554 0.0
C154 C 0.70143 0.84842 0.8275 0.0
C155 C 0.71547 0.88326 0.80476 0.0
C156 C 0.71637 0.88085 0.7635 0.0
C157 C 0.70271 0.84365 0.74433 0.0
C158 C 0.68558 0.80901 0.76687 0.0
C159 C 0.6852 0.81139 0.80846 0.0
P160 P 0.91623 0.32508 0.34107 0.0
H161 H 0.89682 0.39914 0.37046 0.0
H162 H 0.83041 0.41267 0.39735 0.0
H163 H 0.76714 0.28657 0.39115 0.0
H164 H 0.83336 0.27294 0.36466 0.0
H165 H 0.98728 0.28956 0.32303 0.0
H166 H 0.01192 0.23474 0.35442 0.0
H167 H 0.92444 0.23387 0.45199 0.0
H168 H 0.89992 0.28857 0.42094 0.0
H169 H 0.89633 0.35326 0.2627 0.0
H170 H 0.88664 0.23992 0.3217 0.0
O171 O 0.95262 0.36769 0.3303 0.0
H172 H 0.85584 0.3174 0.2056 0.0
H173 H 0.84691 0.20469 0.26511 0.0
C174 C 0.86999 0.33504 0.36558 0.0
C175 C 0.86891 0.37435 0.37539 0.0
C176 C 0.83111 0.38208 0.39062 0.0
C177 C 0.79403 0.35058 0.39604 0.0
C178 C 0.79549 0.31119 0.38715 0.0
C179 C 0.83322 0.30349 0.37204 0.0
C180 C 0.94153 0.29287 0.36944 0.0
C181 C 0.97428 0.27832 0.35171 0.0
C182 C 0.98819 0.24703 0.36944 0.0
C183 C 0.9697 0.23028 0.40527 0.0
C184 C 0.93892 0.24651 0.42425 0.0
C185 C 0.92493 0.2777 0.40646 0.0
C186 C 0.89541 0.29926 0.29602 0.0
C187 C 0.8868 0.32079 0.26285 0.0
C188 C 0.86375 0.30046 0.23043 0.0
C189 C 0.84885 0.25852 0.23131 0.0
C190 C 0.85869 0.23705 0.26387 0.0
C191 C 0.88159 0.25725 0.29608 0.0
P192 P 0.39004 0.67525 0.22857 0.0
H193 H 0.3688 0.65258 0.14603 0.0
H194 H 0.30066 0.62605 0.1105 0.0
H195 H 0.23039 0.62514 0.2199 0.0
H196 H 0.29892 0.65232 0.2556 0.0
H197 H 0.47089 0.73798 0.23696 0.0
H198 H 0.49244 0.8083 0.21554 0.0
H199 H 0.3614 0.80161 0.17959 0.0
H200 H 0.33933 0.73213 0.20278 0.0
H201 H 0.34835 0.59897 0.26749 0.0
H202 H 0.44203 0.708 0.29958 0.0
O203 O 0.42769 0.65957 0.20347 0.0
H204 H 0.36324 0.56778 0.32972 0.0
H205 H 0.45796 0.67615 0.36118 0.0
C206 C 0.33914 0.6533 0.20376 0.0
C207 C 0.33887 0.64625 0.16262 0.0
C208 C 0.29997 0.6313 0.14223 0.0
C209 C 0.26045 0.62327 0.16256 0.0
C210 C 0.26055 0.63083 0.20369 0.0
C211 C 0.29961 0.64609 0.22408 0.0
C212 C 0.40336 0.72945 0.22197 0.0
C213 C 0.44637 0.75195 0.22594 0.0
C214 C 0.4588 0.79207 0.21331 0.0
C215 C 0.42867 0.81028 0.19552 0.0
C216 C 0.38529 0.78832 0.19311 0.0
C217 C 0.37271 0.74846 0.20647 0.0
C218 C 0.39302 0.65649 0.27896 0.0
C219 C 0.37107 0.61679 0.28835 0.0
C220 C 0.37989 0.5987 0.3238 0.0
C221 C 0.41179 0.61952 0.35022 0.0
C222 C 0.4331 0.6595 0.34139 0.0
C223 C 0.4238 0.67778 0.30616 0.0
P224 P 0.17558 0.34488 0.7655 0.0
H225 H 0.19718 0.27296 0.73672 0.0
H226 H 0.15868 0.21569 0.6967 0.0
H227 H 0.04676 0.26399 0.69331 0.0
H228 H 0.08572 0.32195 0.73345 0.0
H229 H 0.25549 0.40715 0.77774 0.0
H230 H 0.3131 0.44125 0.73238 0.0
H231 H 0.23802 0.38387 0.63234 0.0
H232 H 0.17976 0.35082 0.67746 0.0
H233 H 0.10585 0.31758 0.82247 0.0
H234 H 0.18361 0.43079 0.78182 0.0
O235 O 0.20594 0.32721 0.79781 0.0
H236 H 0.07461 0.351 0.87268 0.0
H237 H 0.15322 0.46486 0.83183 0.0
C238 C 0.14407 0.30138 0.7389 0.0
C239 C 0.16413 0.27109 0.72794 0.0
C240 C 0.14225 0.23843 0.70492 0.0
C241 C 0.09977 0.23535 0.69208 0.0
C242 C 0.07946 0.26564 0.70303 0.0
C243 C 0.10159 0.29859 0.72605 0.0
C244 C 0.21323 0.37625 0.73121 0.0
C245 C 0.25081 0.40271 0.74599 0.0
C246 C 0.28378 0.42207 0.72012 0.0
C247 C 0.28006 0.41491 0.67895 0.0
C248 C 0.24162 0.38986 0.66395 0.0
C249 C 0.20836 0.37093 0.68984 0.0
C250 C 0.14483 0.37153 0.79594 0.0
C251 C 0.11396 0.35007 0.82253 0.0
C252 C 0.09504 0.36993 0.85121 0.0
C253 C 0.10449 0.41247 0.85339 0.0
C254 C 0.13872 0.43324 0.8285 0.0
C255 C 0.15761 0.41332 0.79982 0.0
Dy256 Dy 0.04995 0.03734 0.52645 0.0
Dy257 Dy 0.94943 1.02909 0.55319 0.0
C258 C 0.02728 0.09786 0.58989 0.0
O259 O 0.03979 1.00189 0.58268 0.0
O260 O 0.96634 0.97589 0.58062 0.0
O261 O 0.117 0.04796 0.54299 0.0
O262 O 0.09759 0.03522 0.48156 0.0
O263 O 0.94695 0.98972 0.4993 0.0
O264 O 0.01363 0.97686 0.50448 0.0
O265 O 0.96855 0.08517 0.51758 0.0
O266 O 0.02131 0.06909 0.47974 0.0
O267 O 0.88292 1.0238 0.53637 0.0
O268 O 0.90173 1.02811 0.59852 0.0
C269 C 1.00482 0.97502 0.5934 0.0
O270 O 0.05091 0.09437 0.55888 0.0
O271 O 0.99072 0.07124 0.59734 0.0
C272 C 0.16315 0.08265 0.49323 0.0
C273 C 0.22265 0.15008 0.46261 0.0
C274 C 0.19215 0.15492 0.49083 0.0
C275 C 0.16239 0.12136 0.50594 0.0
C276 C 0.19448 0.07785 0.46594 0.0
C277 C 0.22412 0.11141 0.4507 0.0
C278 C 0.12975 0.04748 0.50622 0.0
C279 C 0.97379 0.9675 0.49092 0.0
C280 C 0.99417 0.09118 0.48663 0.0
C281 C 0.83325 0.98723 0.58372 0.0
C282 C 0.77373 0.91897 0.61286 0.0
C283 C 0.79215 0.91797 0.57515 0.0
C284 C 0.82209 0.95197 0.56071 0.0
C285 C 0.81219 0.98884 0.61991 0.0
C286 C 0.78276 0.95496 0.63442 0.0
C287 C 0.86976 1.02104 0.57322 0.0
H288 H 0.19063 0.18464 0.50016 0.0
H289 H 0.13825 0.12569 0.52687 0.0
H290 H 0.19535 0.04823 0.45572 0.0
H291 H 0.24752 0.10733 0.42887 0.0
H292 H 0.78527 0.89041 0.55811 0.0
H293 H 0.83771 0.95014 0.5325 0.0
H294 H 0.82019 1.01576 0.63798 0.0
H295 H 0.76861 0.95623 0.6635 0.0
Dy296 Dy 0.45096 1.02983 0.05945 0.0
Dy297 Dy 0.55494 0.03686 0.08052 0.0
C298 C 0.48026 0.96631 0.11704 0.0
O299 O 0.46798 0.07382 0.10924 0.0
O300 O 0.54227 0.0886 0.1132 0.0
O301 O 0.3858 1.01255 0.08265 0.0
O302 O 0.3983 0.03943 1.02416 0.0
O303 O 0.55717 0.08562 1.03573 0.0
O304 O 0.48533 0.08238 1.02258 0.0
O305 O 0.53479 0.98643 1.03742 0.0
O306 O 0.47004 0.99332 1.01129 0.0
O307 O 0.61977 0.04078 0.05985 0.0
O308 O 0.60523 0.03543 0.12287 0.0
C309 C 0.50519 0.09609 0.12187 0.0
O310 O 0.45376 0.97208 0.08909 0.0
O311 O 0.51705 0.9925 0.12411 0.0
C312 C 0.33337 0.99022 1.03294 0.0
C313 C 0.26422 0.93661 0.99519 0.0
C314 C 0.30682 0.93903 0.98334 0.0
C315 C 0.3412 0.96545 1.00223 0.0
C316 C 0.29099 0.98622 1.04642 0.0
C317 C 0.25646 0.95915 1.02786 0.0
C318 C 0.36901 1.02141 0.04955 0.0
C319 C 0.52683 0.09879 1.01765 0.0
C320 C 0.50312 0.97719 1.01146 0.0
C321 C 0.67148 0.07756 0.10461 0.0
C322 C 0.73338 0.14456 0.13298 0.0
C323 C 0.6999 0.14982 0.10819 0.0
C324 C 0.66889 0.11644 0.09427 0.0
C325 C 0.70626 0.07235 0.12756 0.0
C326 C 0.73711 0.10572 0.14169 0.0
C327 C 0.63543 0.04295 0.09589 0.0
H328 H 0.31334 0.92152 0.9584 0.0
H329 H 0.37376 0.9676 0.99186 0.0
H330 H 0.28453 1.00486 0.07042 0.0
H331 H 0.22372 0.95729 1.0375 0.0
H332 H 0.69654 0.17965 0.10146 0.0
H333 H 0.6419 0.121 0.07696 0.0
H334 H 0.70845 0.04257 0.13606 0.0
H335 H 0.76272 0.10129 0.16095 0.0
Dy336 Dy 0.51091 0.4755 0.52431 0.0
Dy337 Dy 0.51327 0.55664 0.57629 0.0
C338 C 0.55295 0.48663 0.61094 0.0
O339 O 0.45486 0.45805 0.56631 0.0
O340 O 0.44465 0.5205 0.57905 0.0
O341 O 0.50981 0.41252 0.52185 0.0
O342 O 0.5133 0.44671 0.46758 0.0
O343 O 0.49121 0.56882 0.51506 0.0
O344 O 0.46521 0.50454 0.49178 0.0
O345 O 0.58126 0.56546 0.55428 0.0
O346 O 0.56535 0.52372 0.50027 0.0
O347 O 0.52492 0.62103 0.58118 0.0
O348 O 0.50341 0.5834 0.6324 0.0
C349 C 0.43186 0.48123 0.58135 0.0
O350 O 0.55807 0.47591 0.57413 0.0
O351 O 0.53104 0.51318 0.61885 0.0
C352 C 0.55699 0.40175 0.47219 0.0
C353 C 0.63326 0.38234 0.44787 0.0
C354 C 0.63518 0.41428 0.47418 0.0
C355 C 0.59731 0.42395 0.48623 0.0
C356 C 0.55493 0.36957 0.44613 0.0
C357 C 0.59295 0.35986 0.43402 0.0
C358 C 0.51776 0.41363 0.48382 0.0
C359 C 0.4695 0.54346 0.48861 0.0
C360 C 0.59144 0.5533 0.51938 0.0
C361 C 0.47356 0.63793 0.62317 0.0
C362 C 0.40185 0.66891 0.63763 0.0
C363 C 0.40217 0.64432 0.60451 0.0
C364 C 0.43777 0.62876 0.59745 0.0
C365 C 0.4734 0.66275 0.6561 0.0
C366 C 0.43769 0.67823 0.66329 0.0
C367 C 0.50939 0.61912 0.61716 0.0
H368 H 0.66603 0.43196 0.48499 0.0
H369 H 0.59949 0.44909 0.50616 0.0
H370 H 0.52409 0.35232 0.43489 0.0
H371 H 0.59105 0.33516 0.4136 0.0
H372 H 0.37483 0.63704 0.58436 0.0
H373 H 0.43728 0.60921 0.5722 0.0
H374 H 0.50058 0.66972 0.67644 0.0
H375 H 0.43789 0.69737 0.68888 0.0
Dy376 Dy 0.01744 0.56475 1.02814 0.0
Dy377 Dy 0.0132 0.48324 0.08091 0.0
C378 C 0.97581 0.55397 0.11628 0.0
O379 O 0.08595 0.57004 1.04682 0.0
O380 O 0.07149 0.52935 0.10178 0.0
O381 O 0.03385 0.62935 1.02287 0.0
O382 O 1.00525 0.59239 0.97306 0.0
O383 O 0.05624 0.47954 1.02872 0.0
O384 O 0.03129 0.5198 0.98525 0.0
O385 O 0.95514 0.46718 1.04099 0.0
O386 O 0.94816 0.5303 1.02556 0.0
O387 O 1.00984 0.41979 0.08458 0.0
O388 O 0.01508 0.45517 0.13814 0.0
C389 C 0.09759 0.55748 0.08102 0.0
O390 O 0.99857 0.57849 0.08984 0.0
O391 O 0.96994 0.51484 0.1135 0.0
C392 C 0.98179 0.65055 0.9843 0.0
C393 C 0.9121 0.6857 0.97448 0.0
C394 C 0.92089 0.67176 1.01198 0.0
C395 C 0.95555 0.65429 1.01686 0.0
C396 C 0.97322 0.66498 0.94694 0.0
C397 C 0.93858 0.6825 0.94206 0.0
C398 C 0.01533 0.62833 0.98816 0.0
C399 C 0.0507 0.49109 0.99219 0.0
C400 C 0.93354 0.49107 1.02476 0.0
C401 C 0.05643 0.40803 0.13446 0.0
C402 C 0.13112 0.38423 0.15646 0.0
C403 C 0.1346 0.4215 0.13824 0.0
C404 C 0.09753 0.43325 0.12729 0.0
C405 C 0.05276 0.37061 0.1525 0.0
C406 C 0.09002 0.35871 0.16345 0.0
C407 C 0.018 0.4213 0.12259 0.0
H408 H 0.90072 0.67409 1.03727 0.0
H409 H 0.96146 0.64316 1.04589 0.0
H410 H 0.99281 0.66197 0.92142 0.0
H411 H 0.93212 0.69322 0.91295 0.0
H412 H 0.16603 0.44152 0.13267 0.0
H413 H 0.10082 0.46215 0.11333 0.0
H414 H 0.02126 0.35075 0.15813 0.0
H415 H 0.08689 0.32981 0.17751 0.0
C416 C 0.26498 0.23628 0.39103 0.0
C417 C 0.30994 0.24243 0.39752 0.0
C418 C 0.29601 0.19645 0.45425 0.0
C419 C 0.25172 0.18536 0.44348 0.0
N420 N 0.19336 0.193 0.40094 0.0
N421 N 0.36938 0.22934 0.43466 0.0
C422 C 0.23581 0.20529 0.4121 0.0
C423 C 0.32582 0.22322 0.42938 0.0
N424 N 0.25038 0.25996 0.36443 0.0
N425 N 0.30928 0.18145 0.48836 0.0
H426 H 0.39194 0.25008 0.41795 0.0
H427 H 0.38328 0.2127 0.4542 0.0
H428 H 0.288 0.16173 0.50707 0.0
H429 H 0.3404 0.19098 0.4999 0.0
H430 H 0.21795 0.25971 0.36106 0.0
H431 H 0.27111 0.28256 0.34812 0.0
H432 H 0.18095 0.20298 0.37534 0.0
H433 H 0.17075 0.17069 0.41585 0.0
C434 C 0.18828 0.90966 0.90827 0.0
C435 C 0.19267 0.87023 0.90266 0.0
C436 C 0.22254 0.87051 0.96955 0.0
C437 C 0.2287 0.91267 0.97041 0.0
N438 N 0.21505 0.97292 0.94229 0.0
N439 N 0.20743 0.81023 0.92884 0.0
C440 C 0.20955 0.93228 0.94095 0.0
C441 C 0.20672 0.84936 0.93414 0.0
N442 N 0.1654 0.92575 0.88129 0.0
N443 N 0.23331 0.85144 1.00217 0.0
H444 H 0.19438 0.79414 0.9035 0.0
H445 H 0.22159 0.79414 0.94873 0.0
H446 H 0.24494 0.86699 1.02821 0.0
H447 H 0.2275 0.82043 1.00467 0.0
H448 H 0.15804 0.95329 0.88514 0.0
H449 H 0.15016 0.90957 0.85681 0.0
H450 H 0.20686 0.98958 0.91902 0.0
H451 H 0.22979 0.99056 0.96604 0.0
C452 C 0.61058 0.47367 0.70847 0.0
C453 C 0.60026 0.43124 0.71229 0.0
C454 C 0.55744 0.42498 0.65051 0.0
C455 C 0.57074 0.46729 0.64489 0.0
N456 N 0.61621 0.53117 0.66505 0.0
N457 N 0.56961 0.36615 0.68376 0.0
C458 C 0.59894 0.49145 0.67304 0.0
C459 C 0.57533 0.40682 0.68235 0.0
N460 N 0.63079 0.49705 0.73916 0.0
N461 N 0.52609 0.40218 0.62664 0.0
H462 H 0.58118 0.35162 0.70699 0.0
H463 H 0.55636 0.34707 0.66045 0.0
H464 H 0.51174 0.41402 0.60331 0.0
H465 H 0.5114 0.37209 0.63214 0.0
H466 H 0.63505 0.52801 0.74022 0.0
H467 H 0.64014 0.4851 0.76525 0.0
H468 H 0.64038 0.54955 0.6822 0.0
H469 H 0.60938 0.54499 0.63907 0.0
C470 C 0.95058 0.58214 0.22276 0.0
C471 C 0.92507 0.60969 0.21514 0.0
C472 C 0.92823 0.59643 0.14331 0.0
C473 C 0.95696 0.57169 0.15059 0.0
N474 N 1.00149 0.54663 0.1971 0.0
N475 N 0.89547 0.64817 0.16774 0.0
C476 C 0.96963 0.56591 0.19033 0.0
C477 C 0.91552 0.61822 0.17526 0.0
N478 N 0.95582 0.57073 0.261 0.0
N479 N 0.91171 0.598 0.10599 0.0
H480 H 0.88559 0.66476 0.19019 0.0
H481 H 0.892 0.65898 0.13931 0.0
H482 H 0.92012 0.58255 0.08189 0.0
H483 H 0.88696 0.61175 0.09955 0.0
H484 H 0.96986 0.54745 0.26832 0.0
H485 H 0.94298 0.5824 0.28542 0.0
H486 H 0.01555 0.54535 0.22487 0.0
H487 H 0.01671 0.53487 0.17434 0.0
C488 C 0.46354 0.15979 0.19576 0.0
C489 C 0.48802 0.19881 0.18547 0.0
C490 C 0.5287 0.17059 0.13648 0.0
C491 C 0.50438 0.13131 0.14707 0.0
N492 N 0.45888 0.0885 0.19491 0.0
N493 N 0.5506 0.24116 0.15411 0.0
C494 C 0.47497 0.12594 0.17932 0.0
C495 C 0.5229 0.2041 0.15849 0.0
N496 N 0.42832 0.15502 0.21997 0.0
N497 N 0.55526 0.17641 0.10404 0.0
H498 H 0.5468 0.26637 0.16948 0.0
H499 H 0.57937 0.24622 0.13822 0.0
H500 H 0.56066 0.15329 0.08654 0.0
H501 H 0.56936 0.2046 0.09222 0.0
H502 H 0.40635 0.12745 0.22467 0.0
H503 H 0.41908 0.179 0.2331 0.0
H504 H 0.44041 0.08316 0.22074 0.0
H505 H 0.46796 0.06327 0.18448 0.0
C506 C 0.04435 0.88504 0.61693 0.0
C507 C 0.0574 0.89356 0.65699 0.0
C508 C 0.02049 0.94782 0.65901 0.0
C509 C 0.01076 0.94136 0.61816 0.0
N510 N 0.9984 0.89588 0.56281 0.0
N511 N 0.0475 0.92391 0.71954 0.0
C512 C 0.01742 0.907 0.59877 0.0
C513 C 0.0416 0.92183 0.67927 0.0
N514 N 0.0602 0.85827 0.59539 0.0
N515 N 0.01101 0.97973 0.67772 0.0
H516 H 0.06264 0.90475 0.73477 0.0
H517 H 0.03443 0.94196 0.7381 0.0
H518 H 0.99301 0.99735 0.66386 0.0
H519 H 0.02164 0.98928 0.70619 0.0
H520 H 0.05613 0.85462 0.56476 0.0
H521 H 0.07975 0.84127 0.60763 0.0
H522 H 0.99917 0.86937 0.54828 0.0
H523 H 0.97766 0.91118 0.54986 0.0
C524 C 0.85285 0.42197 0.95566 0.0
C525 C 0.81877 0.44156 0.95382 0.0
C526 C 0.85611 0.48871 1.00504 0.0
C527 C 0.89317 0.47316 1.00163 0.0
N528 N 0.92958 0.43175 0.96361 0.0
N529 N 0.79199 0.49866 0.97227 0.0
C530 C 0.89232 0.44151 0.97428 0.0
C531 C 0.82143 0.4764 0.97732 0.0
N532 N 0.84745 0.38428 0.94038 0.0
N533 N 0.85313 0.51395 1.03558 0.0
H534 H 0.7669 0.49128 0.9516 0.0
H535 H 0.79506 0.52644 0.98584 0.0
H536 H 0.87646 0.52127 0.05787 0.0
H537 H 0.82535 0.52362 1.04129 0.0
H538 H 0.8703 0.36764 0.94413 0.0
H539 H 0.81834 0.368 0.92811 0.0
H540 H 0.93074 0.4111 0.94124 0.0
H541 H 0.95991 0.44801 0.97307 0.0
C542 C 0.71016 0.59816 0.4915 0.0
C543 C 0.70512 0.61282 0.4527 0.0
C544 C 0.62643 0.59446 0.46132 0.0
C545 C 0.63107 0.57599 0.49828 0.0
N546 N 0.67713 0.55561 0.54656 0.0
N547 N 0.65819 0.61766 0.39762 0.0
C548 C 0.67294 0.57668 0.51297 0.0
C549 C 0.66314 0.60884 0.43675 0.0
N550 N 0.75036 0.60569 0.50823 0.0
N551 N 0.5871 0.59989 0.45037 0.0
H552 H 0.68419 0.62787 0.3784 0.0
H553 H 0.62834 0.61115 0.38326 0.0
H554 H 0.5598 0.59125 0.46828 0.0
H555 H 0.58254 0.61669 0.42571 0.0
H556 H 0.7558 0.59963 0.53786 0.0
H557 H 0.7782 0.62083 0.4932 0.0
H558 H 0.7065 0.55123 0.55643 0.0
H559 H 0.6507 0.53991 0.56309 0.0
C560 C 0.22199 0.36394 0.22024 0.0
C561 C 0.25067 0.35737 0.19029 0.0
C562 C 0.19737 0.36139 0.13895 0.0
C563 C 0.17098 0.37256 0.1685 0.0
N564 N 0.16035 0.38981 0.23663 0.0
N565 N 0.26842 0.35405 0.12095 0.0
C566 C 0.18377 0.37513 0.20904 0.0
C567 C 0.23906 0.35708 0.14953 0.0
N568 N 0.23077 0.35848 0.25938 0.0
N569 N 0.1821 0.35407 0.10096 0.0
H570 H 0.2991 0.35047 0.12764 0.0
H571 H 0.26372 0.35812 0.09074 0.0
H572 H 0.15168 0.35691 0.09223 0.0
H573 H 0.19784 0.34189 0.07897 0.0
H574 H 0.20888 0.35853 0.28225 0.0
H575 H 0.2585 0.35035 0.2688 0.0
H576 H 0.1708 0.39682 0.2657 0.0
H577 H 0.13194 0.39803 0.22972 0.0
C578 C 0.5892 0.16785 0.93668 0.0
C579 C 0.57339 0.20262 0.94141 0.0
C580 C 0.52557 0.16913 0.99532 0.0
C581 C 0.54068 0.13389 0.98997 0.0
N582 N 0.57981 0.09693 0.94978 0.0
N583 N 0.52142 0.23426 0.96999 0.0
C584 C 0.57055 0.13253 0.95901 0.0
C585 C 0.53977 0.20245 0.96897 0.0
N586 N 0.62278 0.16884 0.91126 0.0
N587 N 0.49967 0.17183 1.02698 0.0
H588 H 0.53209 0.25971 0.9523 0.0
H589 H 0.49359 0.23428 0.98594 0.0
H590 H 0.48875 0.14866 1.04725 0.0
H591 H 0.49188 0.19824 1.03541 0.0
H592 H 0.63987 0.14677 0.91041 0.0
H593 H 0.63533 0.19293 0.89233 0.0
H594 H 0.59732 0.0927 0.92482 0.0
H595 H 0.56669 0.07036 0.96506 0.0
C596 C 0.9043 0.86655 0.45288 0.0
C597 C 0.93196 0.85644 0.4238 0.0
C598 C 0.98346 0.92193 0.43438 0.0
C599 C 0.9584 0.92986 0.46689 0.0
N600 N 0.89862 0.90497 0.51186 0.0
N601 N 1.00119 0.87191 0.39122 0.0
C602 C 0.91969 0.90096 0.47737 0.0
C603 C 0.97253 0.88343 0.4158 0.0
N604 N 0.86271 0.84399 0.45641 0.0
N605 N 0.01655 0.95176 0.41992 0.0
H606 H 0.99439 0.844 0.37721 0.0
H607 H 0.03301 0.88849 0.3876 0.0
H608 H 0.02437 0.98082 0.43141 0.0
H609 H 0.03321 0.94897 0.39393 0.0
H610 H 0.8397 0.85251 0.47394 0.0
H611 H 0.84994 0.81878 0.43893 0.0
H612 H 0.87318 0.88256 0.52307 0.0
H613 H 0.90912 0.92872 0.53158 0.0
C614 C 0.3367 0.74564 0.65179 0.0
C615 C 0.29698 0.72113 0.66604 0.0
C616 C 0.32563 0.66168 0.66116 0.0
C617 C 0.36446 0.68602 0.64507 0.0
N618 N 0.40325 0.74883 0.61629 0.0
N619 N 0.25033 0.65554 0.67767 0.0
C620 C 0.36878 0.7273 0.63759 0.0
C621 C 0.29039 0.67896 0.6686 0.0
N622 N 0.34474 0.78653 0.6537 0.0
N623 N 0.32311 0.62259 0.67081 0.0
H624 H 0.22404 0.66751 0.68345 0.0
H625 H 0.24222 0.62435 0.67622 0.0
H626 H 0.34816 0.60885 0.66555 0.0
H627 H 0.29751 0.60453 0.68657 0.0
H628 H 0.37497 0.80567 0.64819 0.0
H629 H 0.32237 0.80153 0.66407 0.0
H630 H 0.40574 0.77793 0.60624 0.0
H631 H 0.42748 0.73634 0.60537 0.0
C632 C 0.68503 0.86002 0.67526 0.0
C633 C 0.71014 0.84239 0.70095 0.0
C634 C 0.7709 0.85873 0.65495 0.0
C635 C 0.74844 0.88229 0.63291 0.0
N636 N 0.68118 0.89505 0.61289 0.0
N637 N 0.76901 0.81128 0.70886 0.0
C638 C 0.70402 0.87877 0.63971 0.0
C639 C 0.7502 0.83655 0.68813 0.0
N640 N 0.64437 0.86106 0.68664 0.0
N641 N 0.81309 0.86054 0.64631 0.0
H642 H 0.75437 0.79522 0.73357 0.0
H643 H 0.79679 0.80336 0.69965 0.0
H644 H 0.82869 0.87548 0.62144 0.0
H645 H 0.83314 0.84841 0.66426 0.0
H646 H 0.6253 0.87668 0.67154 0.0
H647 H 0.62998 0.84614 0.71211 0.0
H648 H 0.64813 0.89244 0.61477 0.0
H649 H 0.69538 0.90883 0.58685 0.0
C650 C 0.83485 0.2203 0.1671 0.0
C651 C 0.81873 0.23658 0.20074 0.0
C652 C 0.74576 0.19572 0.18743 0.0
C653 C 0.76176 0.17927 0.15371 0.0
N654 N 0.8185 0.18145 0.1062 0.0
N655 N 0.75833 0.24796 0.23753 0.0
C656 C 0.80544 0.19347 0.1418 0.0
C657 C 0.77388 0.22708 0.20894 0.0
N658 N 0.87835 0.22933 0.16036 0.0
N659 N 0.70446 0.17975 0.20034 0.0
H660 H 0.77824 0.27075 0.25431 0.0
H661 H 0.72555 0.24532 0.24215 0.0
H662 H 0.68258 0.15674 0.18554 0.0
H663 H 0.69271 0.18714 0.2274 0.0
H664 H 0.89279 0.21494 0.13915 0.0
H665 H 0.90044 0.25011 0.1775 0.0
H666 H 0.8489 0.19336 0.09398 0.0
H667 H 0.79755 0.16172 0.0872 0.0
C668 C 0.40956 0.60433 0.42422 0.0
C669 C 0.425 0.59857 0.38561 0.0
C670 C 0.4691 0.55603 0.41434 0.0
C671 C 0.45198 0.56012 0.45272 0.0
N672 N 0.40073 0.58261 0.49322 0.0
N673 N 0.46514 0.5649 0.34287 0.0
C674 C 0.42082 0.58286 0.45736 0.0
C675 C 0.45332 0.57304 0.38041 0.0
N676 N 0.38451 0.63081 0.42929 0.0
N677 N 0.50231 0.53785 0.41049 0.0
H678 H 0.45676 0.57862 0.31746 0.0
H679 H 0.48092 0.54262 0.33651 0.0
H680 H 0.51476 0.52481 0.43422 0.0
H681 H 0.52006 0.53842 0.3845 0.0
H682 H 0.37635 0.64017 0.45698 0.0
H683 H 0.37396 0.64552 0.40562 0.0
H684 H 0.37471 0.5951 0.49799 0.0
H685 H 0.40771 0.56674 0.5177 0.0
C686 C 0.09481 0.47671 0.88916 0.0
C687 C 0.08318 0.43426 0.88464 0.0
C688 C 0.0455 0.42935 0.94914 0.0
C689 C 0.0647 0.47061 0.95696 0.0
N690 N 0.11158 0.53302 0.93447 0.0
N691 N 0.01899 0.38183 0.89678 0.0
C692 C 0.09044 0.49409 0.92693 0.0
C693 C 0.05061 0.41306 0.91099 0.0
N694 N 0.10187 0.50059 0.85624 0.0
N695 N 0.02142 0.40546 0.97748 0.0
H696 H 0.01649 0.3748 0.86652 0.0
H697 H 0.99193 0.36759 0.9133 0.0
H698 H 0.01437 0.41602 1.005 0.0
H699 H 0.01074 0.37442 0.97424 0.0
H700 H 0.10671 0.53165 0.85748 0.0
H701 H 0.09561 0.48859 0.8277 0.0
H702 H 0.13374 0.55017 0.91462 0.0
H703 H 0.11022 0.54666 0.96197 0.0
C704 C 0.52347 0.88167 0.97613 0.0
C705 C 0.54923 0.89642 0.94251 0.0
C706 C 0.52611 0.95908 0.94483 0.0
C707 C 0.50601 0.94653 0.98166 0.0
N708 N 0.47147 0.89279 1.02482 0.0
N709 N 0.5675 0.94407 0.8888 0.0
C710 C 0.49984 0.9065 0.99465 0.0
C711 C 0.54744 0.93333 0.92446 0.0
N712 N 0.52371 0.84494 0.99139 0.0
N713 N 0.52627 0.99633 0.93073 0.0
H714 H 0.58381 0.92598 0.87361 0.0
H715 H 0.56648 0.96976 0.87299 0.0
H716 H 0.5085 1.01421 0.94437 0.0
H717 H 0.54324 1.00961 0.90587 0.0
H718 H 0.50964 0.83405 1.01836 0.0
H719 H 0.53932 0.82559 0.97718 0.0
H720 H 0.46304 0.86318 1.03461 0.0
H721 H 0.45354 0.91088 1.03786 0.0
C722 C 0.94842 0.1561 0.41611 0.0
C723 C 0.97934 0.19331 0.42123 0.0
C724 C 0.02587 0.15986 0.459 0.0
C725 C 0.99192 0.12422 0.45927 0.0
N726 N 0.92095 0.0874 0.4383 0.0
N727 N 0.04642 0.23193 0.44899 0.0
C728 C 0.95329 0.12199 0.43763 0.0
C729 C 0.01811 0.1955 0.44261 0.0
N730 N 0.91492 0.15332 0.39 0.0
N731 N 0.06532 0.15976 0.47468 0.0
H732 H 0.04205 0.25858 0.43699 0.0
H733 H 0.07264 0.23628 0.46835 0.0
H734 H 0.07185 0.13462 0.488 0.0
H735 H 0.0926 0.18353 0.47171 0.0
H736 H 0.89366 0.12634 0.38189 0.0
H737 H 0.91045 0.17773 0.37364 0.0
H738 H 0.88988 0.08532 0.42762 0.0
H739 H 0.92465 0.0609 0.45121 0.0
C740 C 0.20912 0.56722 0.12552 0.0
C741 C 0.21909 0.60709 0.14044 0.0
C742 C 0.14946 0.61515 0.11519 0.0
C743 C 0.14092 0.57624 0.09812 0.0
N744 N 0.16672 0.51902 0.0792 0.0
N745 N 0.20275 0.67172 0.14279 0.0
C746 C 0.17202 0.55339 0.10098 0.0
C747 C 0.19038 0.63188 0.13332 0.0
N748 N 0.23418 0.542 0.13604 0.0
N749 N 0.1179 0.63557 0.11542 0.0
H750 H 0.23242 0.68507 0.15598 0.0
H751 H 0.18531 0.69224 0.1345 0.0
H752 H 0.08792 0.62474 0.10177 0.0
H753 H 0.12024 0.66185 0.13151 0.0
H754 H 0.22594 0.51144 0.12964 0.0
H755 H 0.26132 0.55081 0.15429 0.0
H756 H 0.19024 0.503 0.0769 0.0
H757 H 0.14034 0.50858 0.06034 0.0
C758 C 0.35585 0.41686 0.65711 0.0
C759 C 0.31796 0.43078 0.65226 0.0
C760 C 0.3524 0.47266 0.59618 0.0
C761 C 0.39206 0.4628 0.6047 0.0
N762 N 0.43339 0.43249 0.65011 0.0
N763 N 0.28235 0.47674 0.62081 0.0
C764 C 0.3943 0.43666 0.63694 0.0
C765 C 0.31678 0.46003 0.62272 0.0
N766 N 0.35498 0.38403 0.68026 0.0
N767 N 0.34821 0.49275 0.56196 0.0
H768 H 0.25589 0.46845 0.63985 0.0
H769 H 0.28176 0.50119 0.60275 0.0
H770 H 0.37296 0.50077 0.5411 0.0
H771 H 0.31898 0.49766 0.55231 0.0
H772 H 0.3805 0.37026 0.68154 0.0
H773 H 0.32726 0.36803 0.69489 0.0
H774 H 0.43704 0.41693 0.67595 0.0
H775 H 0.46264 0.44829 0.638 0.0
C776 C 0.84479 0.7624 0.97054 0.0
C777 C 0.80851 0.74048 0.9487 0.0
C778 C 0.83611 0.68028 0.95202 0.0
C779 C 0.87502 0.70373 0.96883 0.0
N780 N 0.91816 0.76721 0.99267 0.0
N781 N 0.76909 0.6793 0.91747 0.0
C782 C 0.87966 0.74473 0.97821 0.0
C783 C 0.80377 0.69944 0.93946 0.0
N784 N 0.84582 0.80016 0.98382 0.0
N785 N 0.83003 0.63968 0.94859 0.0
H786 H 0.74386 0.69196 0.90946 0.0
H787 H 0.7662 0.65089 0.9055 0.0
H788 H 0.85327 0.62483 0.9573 0.0
H789 H 0.80089 0.62024 0.94017 0.0
H790 H 0.86909 0.81619 1.00337 0.0
H791 H 0.82131 0.81441 0.97789 0.0
H792 H 0.92554 0.79826 0.99565 0.0
H793 H 0.94416 0.75514 0.99944 0.0
C794 C 0.42779 0.88381 0.19123 0.0
C795 C 0.44306 0.85108 0.17672 0.0
C796 C 0.48854 0.89631 0.12833 0.0
C797 C 0.46931 0.92762 0.13946 0.0
N798 N 0.41735 0.95034 0.17895 0.0
N799 N 0.48103 0.82468 0.12545 0.0
C800 C 0.43785 0.92106 0.17013 0.0
C801 C 0.4717 0.85696 0.14371 0.0
N802 N 0.40506 0.87978 0.226 0.0
N803 N 0.52319 0.90408 0.10323 0.0
H804 H 0.46819 0.79518 0.13463 0.0
H805 H 0.49785 0.82676 0.09872 0.0
H806 H 0.53623 0.93227 0.09095 0.0
H807 H 0.54126 0.88344 0.09732 0.0
H808 H 0.39672 0.90358 0.24027 0.0
H809 H 0.39784 0.85332 0.24256 0.0
H810 H 0.39068 0.94584 0.1977 0.0
H811 H 0.42533 0.97855 0.1655 0.0
C812 C 0.06541 0.16131 0.68312 0.0
C813 C 0.0774 0.20053 0.66659 0.0
C814 C 0.04928 0.17273 0.60165 0.0
C815 C 0.04248 0.13315 0.61696 0.0
N816 N 0.05053 0.08968 0.67117 0.0
N817 N 0.08662 0.24296 0.60849 0.0
C818 C 0.05201 0.12739 0.65752 0.0
C819 C 0.07081 0.2061 0.62539 0.0
N820 N 0.06611 0.1565 0.72344 0.0
N821 N 0.03372 0.1786 0.56486 0.0
H822 H 0.10253 0.26815 0.62471 0.0
H823 H 0.08723 0.24782 0.57789 0.0
H824 H 0.0165 0.15503 0.54734 0.0
H825 H 0.03394 0.20679 0.55349 0.0
H826 H 0.0536 0.12915 0.73759 0.0
H827 H 0.0755 0.18061 0.74305 0.0
H828 H 0.06157 0.08397 0.69919 0.0
H829 H 0.04199 0.06428 0.65318 0.0
C830 C 0.73812 0.34902 0.44881 0.0
C831 C 0.7529 0.35885 0.40943 0.0
C832 C 0.69041 0.38605 0.39596 0.0
C833 C 0.67387 0.37324 0.4342 0.0
N834 N 0.67801 0.33717 0.49495 0.0
N835 N 0.73993 0.38022 0.34317 0.0
C836 C 0.69662 0.35317 0.46008 0.0
C837 C 0.72815 0.37558 0.38231 0.0
N838 N 0.76435 0.3369 0.47575 0.0
N839 N 0.67083 0.40936 0.3732 0.0
H840 H 0.76743 0.37301 0.33198 0.0
H841 H 0.72061 0.38802 0.32112 0.0
H842 H 0.64286 0.41735 0.38196 0.0
H843 H 0.68417 0.42346 0.34711 0.0
H844 H 0.75744 0.33342 0.50598 0.0
H845 H 0.7949 0.33343 0.46849 0.0
H846 H 0.69082 0.31851 0.51311 0.0
H847 H 0.64774 0.33982 0.50423 0.0
loop_
_geom_bond_atom_site_label_1
_geom_bond_atom_site_label_2
_geom_bond_distance
_geom_bond_site_symmetry_2
_ccdc_geom_bond_type
P0 O11 1.490 . S
P0 C14 1.812 . S
P0 C20 1.803 . S
P0 C26 1.819 . S
H1 C15 0.941 . S
H2 C16 0.939 . S
H3 C18 0.940 . S
H4 C19 0.940 . S
H5 C21 0.939 . S
H6 C22 0.942 . S
H7 C24 0.940 . S
H8 C25 0.939 . S
H9 C27 0.941 . S
H10 C31 0.939 . S
O11 P0 1.490 . S
H12 C28 0.939 . S
H13 C30 0.940 . S
C14 P0 1.812 . S
C14 C15 1.389 . S
C14 C19 1.391 . S
C15 H1 0.941 . S
C15 C14 1.389 . S
C15 C16 1.397 . S
C16 H2 0.939 . S
C16 C15 1.397 . S
C16 C17 1.378 . S
C17 C16 1.378 . S
C17 C18 1.378 . S
C18 H3 0.940 . S
C18 C17 1.378 . S
C18 C19 1.396 . S
C19 H4 0.940 . S
C19 C14 1.391 . S
C19 C18 1.396 . S
C20 P0 1.803 . S
C20 C21 1.378 . S
C20 C25 1.400 . S
C21 H5 0.939 . S
C21 C20 1.378 . S
C21 C22 1.361 . S
C22 H6 0.942 . S
C22 C21 1.361 . S
C22 C23 1.369 . S
C23 C22 1.369 . S
C23 C24 1.404 . S
C24 H7 0.940 . S
C24 C23 1.404 . S
C24 C25 1.389 . S
C25 H8 0.939 . S
C25 C20 1.400 . S
C25 C24 1.389 . S
C26 P0 1.819 . S
C26 C27 1.391 . S
C26 C31 1.391 . S
C27 H9 0.941 . S
C27 C26 1.391 . S
C27 C28 1.396 . S
C28 H12 0.939 . S
C28 C27 1.396 . S
C28 C29 1.397 . S
C29 C28 1.397 . S
C29 C30 1.385 . S
C30 H13 0.940 . S
C30 C29 1.385 . S
C30 C31 1.388 . S
C31 H10 0.939 . S
C31 C26 1.391 . S
C31 C30 1.388 . S
P32 O43 1.490 . S
P32 C46 1.812 . S
P32 C52 1.803 . S
P32 C58 1.819 . S
H33 C47 0.941 . S
H34 C48 0.939 . S
H35 C50 0.940 . S
H36 C51 0.940 . S
H37 C53 0.939 . S
H38 C54 0.942 . S
H39 C56 0.940 . S
H40 C57 0.939 . S
H41 C59 0.941 . S
H42 C63 0.939 . S
O43 P32 1.490 . S
H44 C60 0.939 . S
H45 C62 0.940 . S
C46 P32 1.812 . S
C46 C47 1.389 . S
C46 C51 1.391 . S
C47 H33 0.941 . S
C47 C46 1.389 . S
C47 C48 1.397 . S
C48 H34 0.939 . S
C48 C47 1.397 . S
C48 C49 1.378 . S
C49 C48 1.378 . S
C49 C50 1.378 . S
C50 H35 0.940 . S
C50 C49 1.378 . S
C50 C51 1.396 . S
C51 H36 0.940 . S
C51 C46 1.391 . S
C51 C50 1.396 . S
C52 P32 1.803 . S
C52 C53 1.378 . S
C52 C57 1.400 . S
C53 H37 0.939 . S
C53 C52 1.378 . S
C53 C54 1.361 . S
C54 H38 0.942 . S
C54 C53 1.361 . S
C54 C55 1.369 . S
C55 C54 1.369 . S
C55 C56 1.404 . S
C56 H39 0.940 . S
C56 C55 1.404 . S
C56 C57 1.389 . S
C57 H40 0.939 . S
C57 C52 1.400 . S
C57 C56 1.389 . S
C58 P32 1.819 . S
C58 C59 1.391 . S
C58 C63 1.391 . S
C59 H41 0.941 . S
C59 C58 1.391 . S
C59 C60 1.396 . S
C60 H44 0.939 . S
C60 C59 1.396 . S
C60 C61 1.397 . S
C61 C60 1.397 . S
C61 C62 1.385 . S
C62 H45 0.940 . S
C62 C61 1.385 . S
C62 C63 1.388 . S
C63 H42 0.939 . S
C63 C58 1.391 . S
C63 C62 1.388 . S
P64 O75 1.490 . S
P64 C78 1.812 . S
P64 C84 1.803 . S
P64 C90 1.819 . S
H65 C79 0.941 . S
H66 C80 0.939 . S
H67 C82 0.940 . S
H68 C83 0.940 . S
H69 C85 0.939 . S
H70 C86 0.942 . S
H71 C88 0.940 . S
H72 C89 0.939 . S
H73 C91 0.941 . S
H74 C95 0.939 . S
O75 P64 1.490 . S
H76 C92 0.939 . S
H77 C94 0.940 . S
C78 P64 1.812 . S
C78 C79 1.389 . S
C78 C83 1.391 . S
C79 H65 0.941 . S
C79 C78 1.389 . S
C79 C80 1.397 . S
C80 H66 0.939 . S
C80 C79 1.397 . S
C80 C81 1.378 . S
C81 C80 1.378 . S
C81 C82 1.378 . S
C82 H67 0.940 . S
C82 C81 1.378 . S
C82 C83 1.396 . S
C83 H68 0.940 . S
C83 C78 1.391 . S
C83 C82 1.396 . S
C84 P64 1.803 . S
C84 C85 1.378 . S
C84 C89 1.400 . S
C85 H69 0.939 . S
C85 C84 1.378 . S
C85 C86 1.361 . S
C86 H70 0.942 . S
C86 C85 1.361 . S
C86 C87 1.369 . S
C87 C86 1.369 . S
C87 C88 1.404 . S
C88 H71 0.940 . S
C88 C87 1.404 . S
C88 C89 1.389 . S
C89 H72 0.939 . S
C89 C84 1.400 . S
C89 C88 1.389 . S
C90 P64 1.819 . S
C90 C91 1.391 . S
C90 C95 1.391 . S
C91 H73 0.941 . S
C91 C90 1.391 . S
C91 C92 1.396 . S
C92 H76 0.939 . S
C92 C91 1.396 . S
C92 C93 1.397 . S
C93 C92 1.397 . S
C93 C94 1.385 . S
C94 H77 0.940 . S
C94 C93 1.385 . S
C94 C95 1.388 . S
C95 H74 0.939 . S
C95 C90 1.391 . S
C95 C94 1.388 . S
P96 O107 1.490 . S
P96 C110 1.812 . S
P96 C116 1.803 . S
P96 C122 1.819 . S
H97 C111 0.941 . S
H98 C112 0.939 . S
H99 C114 0.940 . S
H100 C115 0.940 . S
H101 C117 0.939 . S
H102 C118 0.942 . S
H103 C120 0.940 . S
H104 C121 0.939 . S
H105 C123 0.941 . S
H106 C127 0.939 . S
O107 P96 1.490 . S
H108 C124 0.939 . S
H109 C126 0.940 . S
C110 P96 1.812 . S
C110 C111 1.389 . S
C110 C115 1.391 . S
C111 H97 0.941 . S
C111 C110 1.389 . S
C111 C112 1.397 . S
C112 H98 0.939 . S
C112 C111 1.397 . S
C112 C113 1.378 . S
C113 C112 1.378 . S
C113 C114 1.378 . S
C114 H99 0.940 . S
C114 C113 1.378 . S
C114 C115 1.396 . S
C115 H100 0.940 . S
C115 C110 1.391 . S
C115 C114 1.396 . S
C116 P96 1.803 . S
C116 C117 1.378 . S
C116 C121 1.400 . S
C117 H101 0.939 . S
C117 C116 1.378 . S
C117 C118 1.361 . S
C118 H102 0.942 . S
C118 C117 1.361 . S
C118 C119 1.369 . S
C119 C118 1.369 . S
C119 C120 1.404 . S
C120 H103 0.940 . S
C120 C119 1.404 . S
C120 C121 1.389 . S
C121 H104 0.939 . S
C121 C116 1.400 . S
C121 C120 1.389 . S
C122 P96 1.819 . S
C122 C123 1.391 . S
C122 C127 1.391 . S
C123 H105 0.941 . S
C123 C122 1.391 . S
C123 C124 1.396 . S
C124 H108 0.939 . S
C124 C123 1.396 . S
C124 C125 1.397 . S
C125 C124 1.397 . S
C125 C126 1.385 . S
C126 H109 0.940 . S
C126 C125 1.385 . S
C126 C127 1.388 . S
C127 H106 0.939 . S
C127 C122 1.391 . S
C127 C126 1.388 . S
P128 O139 1.490 . S
P128 C142 1.812 . S
P128 C148 1.803 . S
P128 C154 1.819 . S
H129 C143 0.941 . S
H130 C144 0.939 . S
H131 C146 0.940 . S
H132 C147 0.940 . S
H133 C149 0.939 . S
H134 C150 0.942 . S
H135 C152 0.940 . S
H136 C153 0.939 . S
H137 C155 0.941 . S
H138 C159 0.939 . S
O139 P128 1.490 . S
H140 C156 0.939 . S
H141 C158 0.940 . S
C142 P128 1.812 . S
C142 C143 1.389 . S
C142 C147 1.391 . S
C143 H129 0.941 . S
C143 C142 1.389 . S
C143 C144 1.397 . S
C144 H130 0.939 . S
C144 C143 1.397 . S
C144 C145 1.378 . S
C145 C144 1.378 . S
C145 C146 1.378 . S
C146 H131 0.940 . S
C146 C145 1.378 . S
C146 C147 1.396 . S
C147 H132 0.940 . S
C147 C142 1.391 . S
C147 C146 1.396 . S
C148 P128 1.803 . S
C148 C149 1.378 . S
C148 C153 1.400 . S
C149 H133 0.939 . S
C149 C148 1.378 . S
C149 C150 1.361 . S
C150 H134 0.942 . S
C150 C149 1.361 . S
C150 C151 1.369 . S
C151 C150 1.369 . S
C151 C152 1.404 . S
C152 H135 0.940 . S
C152 C151 1.404 . S
C152 C153 1.389 . S
C153 H136 0.939 . S
C153 C148 1.400 . S
C153 C152 1.389 . S
C154 P128 1.819 . S
C154 C155 1.391 . S
C154 C159 1.391 . S
C155 H137 0.941 . S
C155 C154 1.391 . S
C155 C156 1.396 . S
C156 H140 0.939 . S
C156 C155 1.396 . S
C156 C157 1.397 . S
C157 C156 1.397 . S
C157 C158 1.385 . S
C158 H141 0.940 . S
C158 C157 1.385 . S
C158 C159 1.388 . S
C159 H138 0.939 . S
C159 C154 1.391 . S
C159 C158 1.388 . S
P160 O171 1.490 . S
P160 C174 1.812 . S
P160 C180 1.803 . S
P160 C186 1.819 . S
H161 C175 0.941 . S
H162 C176 0.939 . S
H163 C178 0.940 . S
H164 C179 0.940 . S
H165 C181 0.939 . S
H166 C182 0.942 1_455 S
H167 C184 0.940 . S
H168 C185 0.939 . S
H169 C187 0.941 . S
H170 C191 0.939 . S
O171 P160 1.490 . S
H172 C188 0.939 . S
H173 C190 0.940 . S
C174 P160 1.812 . S
C174 C175 1.389 . S
C174 C179 1.391 . S
C175 H161 0.941 . S
C175 C174 1.389 . S
C175 C176 1.397 . S
C176 H162 0.939 . S
C176 C175 1.397 . S
C176 C177 1.378 . S
C177 C176 1.378 . S
C177 C178 1.378 . S
C178 H163 0.940 . S
C178 C177 1.378 . S
C178 C179 1.396 . S
C179 H164 0.940 . S
C179 C174 1.391 . S
C179 C178 1.396 . S
C180 P160 1.803 . S
C180 C181 1.378 . S
C180 C185 1.400 . S
C181 H165 0.939 . S
C181 C180 1.378 . S
C181 C182 1.361 . S
C182 H166 0.942 1_655 S
C182 C181 1.361 . S
C182 C183 1.369 . S
C183 C182 1.369 . S
C183 C184 1.404 . S
C184 H167 0.940 . S
C184 C183 1.404 . S
C184 C185 1.389 . S
C185 H168 0.939 . S
C185 C180 1.400 . S
C185 C184 1.389 . S
C186 P160 1.819 . S
C186 C187 1.391 . S
C186 C191 1.391 . S
C187 H169 0.941 . S
C187 C186 1.391 . S
C187 C188 1.396 . S
C188 H172 0.939 . S
C188 C187 1.396 . S
C188 C189 1.397 . S
C189 C188 1.397 . S
C189 C190 1.385 . S
C190 H173 0.940 . S
C190 C189 1.385 . S
C190 C191 1.388 . S
C191 H170 0.939 . S
C191 C186 1.391 . S
C191 C190 1.388 . S
P192 O203 1.490 . S
P192 C206 1.812 . S
P192 C212 1.803 . S
P192 C218 1.819 . S
H193 C207 0.941 . S
H194 C208 0.939 . S
H195 C210 0.940 . S
H196 C211 0.940 . S
H197 C213 0.939 . S
H198 C214 0.942 . S
H199 C216 0.940 . S
H200 C217 0.939 . S
H201 C219 0.941 . S
H202 C223 0.939 . S
O203 P192 1.490 . S
H204 C220 0.939 . S
H205 C222 0.940 . S
C206 P192 1.812 . S
C206 C207 1.389 . S
C206 C211 1.391 . S
C207 H193 0.941 . S
C207 C206 1.389 . S
C207 C208 1.397 . S
C208 H194 0.939 . S
C208 C207 1.397 . S
C208 C209 1.378 . S
C209 C208 1.378 . S
C209 C210 1.378 . S
C210 H195 0.940 . S
C210 C209 1.378 . S
C210 C211 1.396 . S
C211 H196 0.940 . S
C211 C206 1.391 . S
C211 C210 1.396 . S
C212 P192 1.803 . S
C212 C213 1.378 . S
C212 C217 1.400 . S
C213 H197 0.939 . S
C213 C212 1.378 . S
C213 C214 1.361 . S
C214 H198 0.942 . S
C214 C213 1.361 . S
C214 C215 1.369 . S
C215 C214 1.369 . S
C215 C216 1.404 . S
C216 H199 0.940 . S
C216 C215 1.404 . S
C216 C217 1.389 . S
C217 H200 0.939 . S
C217 C212 1.400 . S
C217 C216 1.389 . S
C218 P192 1.819 . S
C218 C219 1.391 . S
C218 C223 1.391 . S
C219 H201 0.941 . S
C219 C218 1.391 . S
C219 C220 1.396 . S
C220 H204 0.939 . S
C220 C219 1.396 . S
C220 C221 1.397 . S
C221 C220 1.397 . S
C221 C222 1.385 . S
C222 H205 0.940 . S
C222 C221 1.385 . S
C222 C223 1.388 . S
C223 H202 0.939 . S
C223 C218 1.391 . S
C223 C222 1.388 . S
P224 O235 1.490 . S
P224 C238 1.812 . S
P224 C244 1.803 . S
P224 C250 1.819 . S
H225 C239 0.941 . S
H226 C240 0.939 . S
H227 C242 0.940 . S
H228 C243 0.940 . S
H229 C245 0.939 . S
H230 C246 0.942 . S
H231 C248 0.940 . S
H232 C249 0.939 . S
H233 C251 0.941 . S
H234 C255 0.939 . S
O235 P224 1.490 . S
H236 C252 0.939 . S
H237 C254 0.940 . S
C238 P224 1.812 . S
C238 C239 1.389 . S
C238 C243 1.391 . S
C239 H225 0.941 . S
C239 C238 1.389 . S
C239 C240 1.397 . S
C240 H226 0.939 . S
C240 C239 1.397 . S
C240 C241 1.378 . S
C241 C240 1.378 . S
C241 C242 1.378 . S
C242 H227 0.940 . S
C242 C241 1.378 . S
C242 C243 1.396 . S
C243 H228 0.940 . S
C243 C238 1.391 . S
C243 C242 1.396 . S
C244 P224 1.803 . S
C244 C245 1.378 . S
C244 C249 1.400 . S
C245 H229 0.939 . S
C245 C244 1.378 . S
C245 C246 1.361 . S
C246 H230 0.942 . S
C246 C245 1.361 . S
C246 C247 1.369 . S
C247 C246 1.369 . S
C247 C248 1.404 . S
C248 H231 0.940 . S
C248 C247 1.404 . S
C248 C249 1.389 . S
C249 H232 0.939 . S
C249 C244 1.400 . S
C249 C248 1.389 . S
C250 P224 1.819 . S
C250 C251 1.391 . S
C250 C255 1.391 . S
C251 H233 0.941 . S
C251 C250 1.391 . S
C251 C252 1.396 . S
C252 H236 0.939 . S
C252 C251 1.396 . S
C252 C253 1.397 . S
C253 C252 1.397 . S
C253 C254 1.385 . S
C254 H237 0.940 . S
C254 C253 1.385 . S
C254 C255 1.388 . S
C255 H234 0.939 . S
C255 C250 1.391 . S
C255 C254 1.388 . S
Dy256 O259 2.307 1_545 S
Dy256 O261 2.395 . S
Dy256 O262 2.379 . S
Dy256 O264 2.339 1_545 S
Dy256 O266 2.298 . S
Dy256 O270 2.275 . S
Dy256 C278 2.738 . S
Dy257 O260 2.298 1_655 S
Dy257 O263 2.275 . S
Dy257 O265 2.307 1_565 S
Dy257 O267 2.395 . S
Dy257 O268 2.379 . S
Dy257 O271 2.339 1_565 S
Dy257 C287 2.738 . S
C258 O270 1.254 . S
C258 O271 1.257 1_455 S
O259 Dy256 2.307 1_565 S
O259 C269 1.266 . S
O260 Dy257 2.298 1_455 S
O260 C269 1.236 . S
O261 Dy256 2.395 . S
O261 C278 1.255 . S
O262 Dy256 2.379 . S
O262 C278 1.249 . S
O263 Dy257 2.275 . S
O263 C279 1.254 . S
O264 Dy256 2.339 1_565 S
O264 C279 1.257 1_455 S
O265 Dy257 2.307 1_545 S
O265 C280 1.266 . S
O266 Dy256 2.298 . S
O266 C280 1.236 1_455 S
O267 Dy257 2.395 . S
O267 C287 1.255 . S
O268 Dy257 2.379 . S
O268 C287 1.249 . S
C269 O259 1.266 . S
C269 O260 1.236 . S
O270 Dy256 2.275 . S
O270 C258 1.254 . S
O271 Dy257 2.339 1_545 S
O271 C258 1.257 1_655 S
C272 C275 1.344 . S
C272 C276 1.328 . S
C272 C278 1.516 . S
C273 C274 1.304 . S
C273 C277 1.323 . S
C274 C273 1.304 . S
C274 C275 1.371 . S
C274 H288 0.930 . S
C275 C272 1.344 . S
C275 C274 1.371 . S
C275 H289 0.931 . S
C276 C272 1.328 . S
C276 C277 1.433 . S
C276 H290 0.931 . S
C277 C273 1.323 . S
C277 C276 1.433 . S
C277 H291 0.933 . S
C278 Dy256 2.738 . S
C278 O261 1.255 . S
C278 O262 1.249 . S
C278 C272 1.516 . S
C279 O263 1.254 . S
C279 O264 1.257 1_655 S
C280 O265 1.266 . S
C280 O266 1.236 1_655 S
C281 C284 1.344 . S
C281 C285 1.328 . S
C281 C287 1.516 . S
C282 C283 1.304 . S
C282 C286 1.323 . S
C283 C282 1.304 . S
C283 C284 1.371 . S
C283 H292 0.930 . S
C284 C281 1.344 . S
C284 C283 1.371 . S
C284 H293 0.931 . S
C285 C281 1.328 . S
C285 C286 1.433 . S
C285 H294 0.931 . S
C286 C282 1.323 . S
C286 C285 1.433 . S
C286 H295 0.933 . S
C287 Dy257 2.738 . S
C287 O267 1.255 . S
C287 O268 1.249 . S
C287 C281 1.516 . S
H288 C274 0.930 . S
H289 C275 0.931 . S
H290 C276 0.931 . S
H291 C277 0.933 . S
H292 C283 0.930 . S
H293 C284 0.931 . S
H294 C285 0.931 . S
H295 C286 0.933 . S
Dy296 O299 2.317 1_556 S
Dy296 O301 2.383 1_545 S
Dy296 O302 2.377 1_545 S
Dy296 O304 2.350 . S
Dy296 O306 2.289 1_545 S
Dy296 O310 2.266 1_546 S
Dy296 C318 2.731 1_545 S
Dy297 O300 2.298 . S
Dy297 O303 2.275 1_554 S
Dy297 O305 2.307 1_544 S
Dy297 O307 2.395 . S
Dy297 O308 2.379 . S
Dy297 O311 2.339 1_545 S
Dy297 C327 2.738 . S
C298 O310 1.254 . S
C298 O311 1.257 . S
O299 Dy296 2.317 1_554 S
O299 C309 1.266 . S
O300 Dy297 2.298 . S
O300 C309 1.236 . S
O301 Dy296 2.383 1_565 S
O301 C318 1.255 . S
O302 Dy296 2.377 1_565 S
O302 C318 1.249 . S
O303 Dy297 2.275 1_556 S
O303 C319 1.254 . S
O304 Dy296 2.350 . S
O304 C319 1.257 . S
O305 Dy297 2.307 1_566 S
O305 C320 1.266 . S
O306 Dy296 2.289 1_565 S
O306 C320 1.236 . S
O307 Dy297 2.395 . S
O307 C327 1.255 . S
O308 Dy297 2.379 . S
O308 C327 1.249 . S
C309 O299 1.266 . S
C309 O300 1.236 . S
O310 Dy296 2.266 1_564 S
O310 C298 1.254 . S
O311 Dy297 2.339 1_565 S
O311 C298 1.257 . S
C312 C315 1.344 . S
C312 C316 1.328 . S
C312 C318 1.516 . S
C313 C314 1.304 . S
C313 C317 1.323 . S
C314 C313 1.304 . S
C314 C315 1.371 . S
C314 H328 0.930 . S
C315 C312 1.344 . S
C315 C314 1.371 . S
C315 H329 0.931 . S
C316 C312 1.328 . S
C316 C317 1.433 . S
C316 H330 0.931 . S
C317 C313 1.323 . S
C317 C316 1.433 . S
C317 H331 0.933 . S
C318 Dy296 2.731 1_565 S
C318 O301 1.255 . S
C318 O302 1.249 . S
C318 C312 1.516 . S
C319 O303 1.254 . S
C319 O304 1.257 . S
C320 O305 1.266 . S
C320 O306 1.236 . S
C321 C324 1.344 . S
C321 C325 1.328 . S
C321 C327 1.516 . S
C322 C323 1.304 . S
C322 C326 1.323 . S
C323 C322 1.304 . S
C323 C324 1.371 . S
C323 H332 0.930 . S
C324 C321 1.344 . S
C324 C323 1.371 . S
C324 H333 0.931 . S
C325 C321 1.328 . S
C325 C326 1.433 . S
C325 H334 0.931 . S
C326 C322 1.323 . S
C326 C325 1.433 . S
C326 H335 0.933 . S
C327 Dy297 2.738 . S
C327 O307 1.255 . S
C327 O308 1.249 . S
C327 C321 1.516 . S
H328 C314 0.930 . S
H329 C315 0.931 . S
H330 C316 0.931 . S
H331 C317 0.933 . S
H332 C323 0.930 . S
H333 C324 0.931 . S
H334 C325 0.931 . S
H335 C326 0.933 . S
Dy336 O339 2.307 . S
Dy336 O341 2.395 . S
Dy336 O342 2.379 . S
Dy336 O344 2.339 . S
Dy336 O346 2.298 . S
Dy336 O350 2.275 . S
Dy336 C358 2.738 . S
Dy337 O340 2.298 . S
Dy337 O343 2.275 . S
Dy337 O345 2.307 . S
Dy337 O347 2.395 . S
Dy337 O348 2.379 . S
Dy337 O351 2.339 . S
Dy337 C367 2.738 . S
C338 O350 1.254 . S
C338 O351 1.257 . S
O339 Dy336 2.307 . S
O339 C349 1.266 . S
O340 Dy337 2.298 . S
O340 C349 1.236 . S
O341 Dy336 2.395 . S
O341 C358 1.255 . S
O342 Dy336 2.379 . S
O342 C358 1.249 . S
O343 Dy337 2.275 . S
O343 C359 1.254 . S
O344 Dy336 2.339 . S
O344 C359 1.257 . S
O345 Dy337 2.307 . S
O345 C360 1.266 . S
O346 Dy336 2.298 . S
O346 C360 1.236 . S
O347 Dy337 2.395 . S
O347 C367 1.255 . S
O348 Dy337 2.379 . S
O348 C367 1.249 . S
C349 O339 1.266 . S
C349 O340 1.236 . S
O350 Dy336 2.275 . S
O350 C338 1.254 . S
O351 Dy337 2.339 . S
O351 C338 1.257 . S
C352 C355 1.344 . S
C352 C356 1.328 . S
C352 C358 1.516 . S
C353 C354 1.304 . S
C353 C357 1.323 . S
C354 C353 1.304 . S
C354 C355 1.371 . S
C354 H368 0.930 . S
C355 C352 1.344 . S
C355 C354 1.371 . S
C355 H369 0.931 . S
C356 C352 1.328 . S
C356 C357 1.433 . S
C356 H370 0.931 . S
C357 C353 1.323 . S
C357 C356 1.433 . S
C357 H371 0.933 . S
C358 Dy336 2.738 . S
C358 O341 1.255 . S
C358 O342 1.249 . S
C358 C352 1.516 . S
C359 O343 1.254 . S
C359 O344 1.257 . S
C360 O345 1.266 . S
C360 O346 1.236 . S
C361 C364 1.344 . S
C361 C365 1.328 . S
C361 C367 1.516 . S
C362 C363 1.304 . S
C362 C366 1.323 . S
C363 C362 1.304 . S
C363 C364 1.371 . S
C363 H372 0.930 . S
C364 C361 1.344 . S
C364 C363 1.371 . S
C364 H373 0.931 . S
C365 C361 1.328 . S
C365 C366 1.433 . S
C365 H374 0.931 . S
C366 C362 1.323 . S
C366 C365 1.433 . S
C366 H375 0.933 . S
C367 Dy337 2.738 . S
C367 O347 1.255 . S
C367 O348 1.249 . S
C367 C361 1.516 . S
H368 C354 0.930 . S
H369 C355 0.931 . S
H370 C356 0.931 . S
H371 C357 0.933 . S
H372 C363 0.930 . S
H373 C364 0.931 . S
H374 C365 0.931 . S
H375 C366 0.933 . S
Dy376 O379 2.307 1_656 S
Dy376 O381 2.395 . S
Dy376 O382 2.379 . S
Dy376 O384 2.339 1_655 S
Dy376 O386 2.298 . S
Dy376 O390 2.275 1_556 S
Dy376 C398 2.738 . S
Dy377 O380 2.298 . S
Dy377 O383 2.275 1_554 S
Dy377 O385 2.307 1_455 S
Dy377 O387 2.395 . S
Dy377 O388 2.379 . S
Dy377 O391 2.339 1_455 S
Dy377 C407 2.738 . S
C378 O390 1.254 . S
C378 O391 1.257 . S
O379 Dy376 2.307 1_454 S
O379 C389 1.266 . S
O380 Dy377 2.298 . S
O380 C389 1.236 . S
O381 Dy376 2.395 . S
O381 C398 1.255 . S
O382 Dy376 2.379 . S
O382 C398 1.249 . S
O383 Dy377 2.275 1_556 S
O383 C399 1.254 . S
O384 Dy376 2.339 1_455 S
O384 C399 1.257 . S
O385 Dy377 2.307 1_655 S
O385 C400 1.266 1_554 S
O386 Dy376 2.298 . S
O386 C400 1.236 . S
O387 Dy377 2.395 . S
O387 C407 1.255 . S
O388 Dy377 2.379 . S
O388 C407 1.249 . S
C389 O379 1.266 . S
C389 O380 1.236 . S
O390 Dy376 2.275 1_554 S
O390 C378 1.254 . S
O391 Dy377 2.339 1_655 S
O391 C378 1.257 . S
C392 C395 1.344 . S
C392 C396 1.328 . S
C392 C398 1.516 . S
C393 C394 1.304 . S
C393 C397 1.323 . S
C394 C393 1.304 . S
C394 C395 1.371 . S
C394 H408 0.930 . S
C395 C392 1.344 . S
C395 C394 1.371 . S
C395 H409 0.931 . S
C396 C392 1.328 . S
C396 C397 1.433 . S
C396 H410 0.931 . S
C397 C393 1.323 . S
C397 C396 1.433 . S
C397 H411 0.933 . S
C398 Dy376 2.738 . S
C398 O381 1.255 . S
C398 O382 1.249 . S
C398 C392 1.516 . S
C399 O383 1.254 . S
C399 O384 1.257 . S
C400 O385 1.266 1_556 S
C400 O386 1.236 . S
C401 C404 1.344 . S
C401 C405 1.328 . S
C401 C407 1.516 . S
C402 C403 1.304 . S
C402 C406 1.323 . S
C403 C402 1.304 . S
C403 C404 1.371 . S
C403 H412 0.930 . S
C404 C401 1.344 . S
C404 C403 1.371 . S
C404 H413 0.931 . S
C405 C401 1.328 . S
C405 C406 1.433 . S
C405 H414 0.931 . S
C406 C402 1.323 . S
C406 C405 1.433 . S
C406 H415 0.933 . S
C407 Dy377 2.738 . S
C407 O387 1.255 . S
C407 O388 1.249 . S
C407 C401 1.516 . S
H408 C394 0.930 . S
H409 C395 0.931 . S
H410 C396 0.931 . S
H411 C397 0.933 . S
H412 C403 0.930 . S
H413 C404 0.931 . S
H414 C405 0.931 . S
H415 C406 0.933 . S
C416 C417 1.363 . S
C416 C422 1.379 . S
C416 N424 1.356 . S
C417 C416 1.363 . S
C417 C423 1.363 . S
C418 C419 1.363 . S
C418 C423 1.379 . S
C418 N425 1.356 . S
C419 C418 1.363 . S
C419 C422 1.363 . S
N420 C422 1.356 . S
N420 H432 0.984 . S
N420 H433 0.985 . S
N421 C423 1.356 . S
N421 H426 0.984 . S
N421 H427 0.985 . S
C422 C416 1.379 . S
C422 C419 1.363 . S
C422 N420 1.356 . S
C423 C417 1.363 . S
C423 C418 1.379 . S
C423 N421 1.356 . S
N424 C416 1.356 . S
N424 H430 0.984 . S
N424 H431 0.984 . S
N425 C418 1.356 . S
N425 H428 0.984 . S
N425 H429 0.985 . S
H426 N421 0.984 . S
H427 N421 0.985 . S
H428 N425 0.984 . S
H429 N425 0.985 . S
H430 N424 0.984 . S
H431 N424 0.984 . S
H432 N420 0.984 . S
H433 N420 0.985 . S
C434 C435 1.363 . S
C434 C440 1.379 . S
C434 N442 1.356 . S
C435 C434 1.363 . S
C435 C441 1.363 . S
C436 C437 1.363 . S
C436 C441 1.379 . S
C436 N443 1.356 . S
C437 C436 1.363 . S
C437 C440 1.363 . S
N438 C440 1.356 . S
N438 H450 0.984 . S
N438 H451 0.985 . S
N439 C441 1.356 . S
N439 H444 0.984 . S
N439 H445 0.985 . S
C440 C434 1.379 . S
C440 C437 1.363 . S
C440 N438 1.356 . S
C441 C435 1.363 . S
C441 C436 1.379 . S
C441 N439 1.356 . S
N442 C434 1.356 . S
N442 H448 0.984 . S
N442 H449 0.984 . S
N443 C436 1.356 . S
N443 H446 0.984 . S
N443 H447 0.985 . S
H444 N439 0.984 . S
H445 N439 0.985 . S
H446 N443 0.984 . S
H447 N443 0.985 . S
H448 N442 0.984 . S
H449 N442 0.984 . S
H450 N438 0.984 . S
H451 N438 0.985 . S
C452 C453 1.363 . S
C452 C458 1.379 . S
C452 N460 1.356 . S
C453 C452 1.363 . S
C453 C459 1.363 . S
C454 C455 1.363 . S
C454 C459 1.379 . S
C454 N461 1.356 . S
C455 C454 1.363 . S
C455 C458 1.363 . S
N456 C458 1.356 . S
N456 H468 0.984 . S
N456 H469 0.985 . S
N457 C459 1.356 . S
N457 H462 0.984 . S
N457 H463 0.985 . S
C458 C452 1.379 . S
C458 C455 1.363 . S
C458 N456 1.356 . S
C459 C453 1.363 . S
C459 C454 1.379 . S
C459 N457 1.356 . S
N460 C452 1.356 . S
N460 H466 0.984 . S
N460 H467 0.984 . S
N461 C454 1.356 . S
N461 H464 0.984 . S
N461 H465 0.985 . S
H462 N457 0.984 . S
H463 N457 0.985 . S
H464 N461 0.984 . S
H465 N461 0.985 . S
H466 N460 0.984 . S
H467 N460 0.984 . S
H468 N456 0.984 . S
H469 N456 0.985 . S
C470 C471 1.363 . S
C470 C476 1.379 . S
C470 N478 1.356 . S
C471 C470 1.363 . S
C471 C477 1.363 . S
C472 C473 1.363 . S
C472 C477 1.379 . S
C472 N479 1.356 . S
C473 C472 1.363 . S
C473 C476 1.363 . S
N474 C476 1.356 . S
N474 H486 0.979 1_655 S
N474 H487 0.985 . S
N475 C477 1.356 . S
N475 H480 0.984 . S
N475 H481 0.985 . S
C476 C470 1.379 . S
C476 C473 1.363 . S
C476 N474 1.356 . S
C477 C471 1.363 . S
C477 C472 1.379 . S
C477 N475 1.356 . S
N478 C470 1.356 . S
N478 H484 0.984 . S
N478 H485 0.984 . S
N479 C472 1.356 . S
N479 H482 0.984 . S
N479 H483 0.985 . S
H480 N475 0.984 . S
H481 N475 0.985 . S
H482 N479 0.984 . S
H483 N479 0.985 . S
H484 N478 0.984 . S
H485 N478 0.984 . S
H486 N474 0.979 1_455 S
H487 N474 0.985 . S
C488 C489 1.363 . S
C488 C494 1.379 . S
C488 N496 1.356 . S
C489 C488 1.363 . S
C489 C495 1.363 . S
C490 C491 1.363 . S
C490 C495 1.379 . S
C490 N497 1.356 . S
C491 C490 1.363 . S
C491 C494 1.363 . S
N492 C494 1.356 . S
N492 H504 0.984 . S
N492 H505 0.985 . S
N493 C495 1.356 . S
N493 H498 0.984 . S
N493 H499 0.985 . S
C494 C488 1.379 . S
C494 C491 1.363 . S
C494 N492 1.356 . S
C495 C489 1.363 . S
C495 C490 1.379 . S
C495 N493 1.356 . S
N496 C488 1.356 . S
N496 H502 0.984 . S
N496 H503 0.984 . S
N497 C490 1.356 . S
N497 H500 0.984 . S
N497 H501 0.985 . S
H498 N493 0.984 . S
H499 N493 0.985 . S
H500 N497 0.984 . S
H501 N497 0.985 . S
H502 N496 0.984 . S
H503 N496 0.984 . S
H504 N492 0.984 . S
H505 N492 0.985 . S
C506 C507 1.363 . S
C506 C512 1.379 . S
C506 N514 1.356 . S
C507 C506 1.363 . S
C507 C513 1.363 . S
C508 C509 1.363 . S
C508 C513 1.379 . S
C508 N515 1.356 . S
C509 C508 1.363 . S
C509 C512 1.363 . S
N510 C512 1.356 . S
N510 H522 0.984 . S
N510 H523 0.985 . S
N511 C513 1.356 . S
N511 H516 0.984 . S
N511 H517 0.985 1_455 S
C512 C506 1.379 . S
C512 C509 1.363 . S
C512 N510 1.356 . S
C513 C507 1.363 . S
C513 C508 1.379 . S
C513 N511 1.356 . S
N514 C506 1.356 . S
N514 H520 0.984 . S
N514 H521 0.984 . S
N515 C508 1.356 . S
N515 H518 0.984 . S
N515 H519 0.981 1_455 S
H516 N511 0.984 . S
H517 N511 0.985 1_655 S
H518 N515 0.984 . S
H519 N515 0.981 1_655 S
H520 N514 0.984 . S
H521 N514 0.984 . S
H522 N510 0.984 . S
H523 N510 0.985 . S
C524 C525 1.363 . S
C524 C530 1.379 . S
C524 N532 1.356 . S
C525 C524 1.363 . S
C525 C531 1.363 . S
C526 C527 1.363 . S
C526 C531 1.379 . S
C526 N533 1.356 . S
C527 C526 1.363 . S
C527 C530 1.363 . S
N528 C530 1.356 . S
N528 H540 0.984 . S
N528 H541 0.983 1_556 S
N529 C531 1.356 . S
N529 H534 0.984 . S
N529 H535 0.985 . S
C530 C524 1.379 . S
C530 C527 1.363 . S
C530 N528 1.356 . S
C531 C525 1.363 . S
C531 C526 1.379 . S
C531 N529 1.356 . S
N532 C524 1.356 . S
N532 H538 0.984 . S
N532 H539 0.984 . S
N533 C526 1.356 . S
N533 H536 0.984 . S
N533 H537 0.985 . S
H534 N529 0.984 . S
H535 N529 0.985 . S
H536 N533 0.984 . S
H537 N533 0.985 . S
H538 N532 0.984 . S
H539 N532 0.984 . S
H540 N528 0.984 . S
H541 N528 0.983 1_554 S
C542 C543 1.363 . S
C542 C548 1.379 . S
C542 N550 1.356 . S
C543 C542 1.363 . S
C543 C549 1.363 . S
C544 C545 1.363 . S
C544 C549 1.379 . S
C544 N551 1.356 . S
C545 C544 1.363 . S
C545 C548 1.363 . S
N546 C548 1.356 . S
N546 H558 0.984 . S
N546 H559 0.985 . S
N547 C549 1.356 . S
N547 H552 0.984 . S
N547 H553 0.985 . S
C548 C542 1.379 . S
C548 C545 1.363 . S
C548 N546 1.356 . S
C549 C543 1.363 . S
C549 C544 1.379 . S
C549 N547 1.356 . S
N550 C542 1.356 . S
N550 H556 0.984 . S
N550 H557 0.984 . S
N551 C544 1.356 . S
N551 H554 0.984 . S
N551 H555 0.985 . S
H552 N547 0.984 . S
H553 N547 0.985 . S
H554 N551 0.984 . S
H555 N551 0.985 . S
H556 N550 0.984 . S
H557 N550 0.984 . S
H558 N546 0.984 . S
H559 N546 0.985 . S
C560 C561 1.363 . S
C560 C566 1.379 . S
C560 N568 1.356 . S
C561 C560 1.363 . S
C561 C567 1.363 . S
C562 C563 1.363 . S
C562 C567 1.379 . S
C562 N569 1.356 . S
C563 C562 1.363 . S
C563 C566 1.363 . S
N564 C566 1.356 . S
N564 H576 0.984 . S
N564 H577 0.985 . S
N565 C567 1.356 . S
N565 H570 0.984 . S
N565 H571 0.985 . S
C566 C560 1.379 . S
C566 C563 1.363 . S
C566 N564 1.356 . S
C567 C561 1.363 . S
C567 C562 1.379 . S
C567 N565 1.356 . S
N568 C560 1.356 . S
N568 H574 0.984 . S
N568 H575 0.984 . S
N569 C562 1.356 . S
N569 H572 0.984 . S
N569 H573 0.985 . S
H570 N565 0.984 . S
H571 N565 0.985 . S
H572 N569 0.984 . S
H573 N569 0.985 . S
H574 N568 0.984 . S
H575 N568 0.984 . S
H576 N564 0.984 . S
H577 N564 0.985 . S
C578 C579 1.363 . S
C578 C584 1.379 . S
C578 N586 1.356 . S
C579 C578 1.363 . S
C579 C585 1.363 . S
C580 C581 1.363 . S
C580 C585 1.379 . S
C580 N587 1.356 . S
C581 C580 1.363 . S
C581 C584 1.363 . S
N582 C584 1.356 . S
N582 H594 0.984 . S
N582 H595 0.985 . S
N583 C585 1.356 . S
N583 H588 0.984 . S
N583 H589 0.985 . S
C584 C578 1.379 . S
C584 C581 1.363 . S
C584 N582 1.356 . S
C585 C579 1.363 . S
C585 C580 1.379 . S
C585 N583 1.356 . S
N586 C578 1.356 . S
N586 H592 0.984 . S
N586 H593 0.984 . S
N587 C580 1.356 . S
N587 H590 0.984 . S
N587 H591 0.985 . S
H588 N583 0.984 . S
H589 N583 0.985 . S
H590 N587 0.984 . S
H591 N587 0.985 . S
H592 N586 0.984 . S
H593 N586 0.984 . S
H594 N582 0.984 . S
H595 N582 0.985 . S
C596 C597 1.363 . S
C596 C602 1.379 . S
C596 N604 1.356 . S
C597 C596 1.363 . S
C597 C603 1.363 . S
C598 C599 1.363 . S
C598 C603 1.379 . S
C598 N605 1.356 1_655 S
C599 C598 1.363 . S
C599 C602 1.363 . S
N600 C602 1.356 . S
N600 H612 0.984 . S
N600 H613 0.985 . S
N601 C603 1.356 . S
N601 H606 0.984 . S
N601 H607 0.985 1_655 S
C602 C596 1.379 . S
C602 C599 1.363 . S
C602 N600 1.356 . S
C603 C597 1.363 . S
C603 C598 1.379 . S
C603 N601 1.356 . S
N604 C596 1.356 . S
N604 H610 0.984 . S
N604 H611 0.984 . S
N605 C598 1.356 1_455 S
N605 H608 0.984 . S
N605 H609 0.985 . S
H606 N601 0.984 . S
H607 N601 0.985 1_455 S
H608 N605 0.984 . S
H609 N605 0.985 . S
H610 N604 0.984 . S
H611 N604 0.984 . S
H612 N600 0.984 . S
H613 N600 0.985 . S
C614 C615 1.363 . S
C614 C620 1.379 . S
C614 N622 1.356 . S
C615 C614 1.363 . S
C615 C621 1.363 . S
C616 C617 1.363 . S
C616 C621 1.379 . S
C616 N623 1.356 . S
C617 C616 1.363 . S
C617 C620 1.363 . S
N618 C620 1.356 . S
N618 H630 0.984 . S
N618 H631 0.985 . S
N619 C621 1.356 . S
N619 H624 0.984 . S
N619 H625 0.985 . S
C620 C614 1.379 . S
C620 C617 1.363 . S
C620 N618 1.356 . S
C621 C615 1.363 . S
C621 C616 1.379 . S
C621 N619 1.356 . S
N622 C614 1.356 . S
N622 H628 0.984 . S
N622 H629 0.984 . S
N623 C616 1.356 . S
N623 H626 0.984 . S
N623 H627 0.985 . S
H624 N619 0.984 . S
H625 N619 0.985 . S
H626 N623 0.984 . S
H627 N623 0.985 . S
H628 N622 0.984 . S
H629 N622 0.984 . S
H630 N618 0.984 . S
H631 N618 0.985 . S
C632 C633 1.363 . S
C632 C638 1.379 . S
C632 N640 1.356 . S
C633 C632 1.363 . S
C633 C639 1.363 . S
C634 C635 1.363 . S
C634 C639 1.379 . S
C634 N641 1.356 . S
C635 C634 1.363 . S
C635 C638 1.363 . S
N636 C638 1.356 . S
N636 H648 0.984 . S
N636 H649 0.985 . S
N637 C639 1.356 . S
N637 H642 0.984 . S
N637 H643 0.985 . S
C638 C632 1.379 . S
C638 C635 1.363 . S
C638 N636 1.356 . S
C639 C633 1.363 . S
C639 C634 1.379 . S
C639 N637 1.356 . S
N640 C632 1.356 . S
N640 H646 0.984 . S
N640 H647 0.984 . S
N641 C634 1.356 . S
N641 H644 0.984 . S
N641 H645 0.985 . S
H642 N637 0.984 . S
H643 N637 0.985 . S
H644 N641 0.984 . S
H645 N641 0.985 . S
H646 N640 0.984 . S
H647 N640 0.984 . S
H648 N636 0.984 . S
H649 N636 0.985 . S
C650 C651 1.363 . S
C650 C656 1.379 . S
C650 N658 1.356 . S
C651 C650 1.363 . S
C651 C657 1.363 . S
C652 C653 1.363 . S
C652 C657 1.379 . S
C652 N659 1.356 . S
C653 C652 1.363 . S
C653 C656 1.363 . S
N654 C656 1.356 . S
N654 H666 0.984 . S
N654 H667 0.985 . S
N655 C657 1.356 . S
N655 H660 0.984 . S
N655 H661 0.985 . S
C656 C650 1.379 . S
C656 C653 1.363 . S
C656 N654 1.356 . S
C657 C651 1.363 . S
C657 C652 1.379 . S
C657 N655 1.356 . S
N658 C650 1.356 . S
N658 H664 0.984 . S
N658 H665 0.984 . S
N659 C652 1.356 . S
N659 H662 0.984 . S
N659 H663 0.985 . S
H660 N655 0.984 . S
H661 N655 0.985 . S
H662 N659 0.984 . S
H663 N659 0.985 . S
H664 N658 0.984 . S
H665 N658 0.984 . S
H666 N654 0.984 . S
H667 N654 0.985 . S
C668 C669 1.363 . S
C668 C674 1.379 . S
C668 N676 1.356 . S
C669 C668 1.363 . S
C669 C675 1.363 . S
C670 C671 1.363 . S
C670 C675 1.379 . S
C670 N677 1.356 . S
C671 C670 1.363 . S
C671 C674 1.363 . S
N672 C674 1.356 . S
N672 H684 0.984 . S
N672 H685 0.985 . S
N673 C675 1.356 . S
N673 H678 0.984 . S
N673 H679 0.985 . S
C674 C668 1.379 . S
C674 C671 1.363 . S
C674 N672 1.356 . S
C675 C669 1.363 . S
C675 C670 1.379 . S
C675 N673 1.356 . S
N676 C668 1.356 . S
N676 H682 0.984 . S
N676 H683 0.984 . S
N677 C670 1.356 . S
N677 H680 0.984 . S
N677 H681 0.985 . S
H678 N673 0.984 . S
H679 N673 0.985 . S
H680 N677 0.984 . S
H681 N677 0.985 . S
H682 N676 0.984 . S
H683 N676 0.984 . S
H684 N672 0.984 . S
H685 N672 0.985 . S
C686 C687 1.363 . S
C686 C692 1.379 . S
C686 N694 1.356 . S
C687 C686 1.363 . S
C687 C693 1.363 . S
C688 C689 1.363 . S
C688 C693 1.379 . S
C688 N695 1.356 . S
C689 C688 1.363 . S
C689 C692 1.363 . S
N690 C692 1.356 . S
N690 H702 0.984 . S
N690 H703 0.985 . S
N691 C693 1.356 . S
N691 H696 0.984 . S
N691 H697 0.985 . S
C692 C686 1.379 . S
C692 C689 1.363 . S
C692 N690 1.356 . S
C693 C687 1.363 . S
C693 C688 1.379 . S
C693 N691 1.356 . S
N694 C686 1.356 . S
N694 H700 0.984 . S
N694 H701 0.984 . S
N695 C688 1.356 . S
N695 H698 0.984 . S
N695 H699 0.985 . S
H696 N691 0.984 . S
H697 N691 0.985 . S
H698 N695 0.984 . S
H699 N695 0.985 . S
H700 N694 0.984 . S
H701 N694 0.984 . S
H702 N690 0.984 . S
H703 N690 0.985 . S
C704 C705 1.363 . S
C704 C710 1.379 . S
C704 N712 1.356 . S
C705 C704 1.363 . S
C705 C711 1.363 . S
C706 C707 1.363 . S
C706 C711 1.379 . S
C706 N713 1.356 . S
C707 C706 1.363 . S
C707 C710 1.363 . S
N708 C710 1.356 . S
N708 H720 0.984 . S
N708 H721 0.985 . S
N709 C711 1.356 . S
N709 H714 0.984 . S
N709 H715 0.985 . S
C710 C704 1.379 . S
C710 C707 1.363 . S
C710 N708 1.356 . S
C711 C705 1.363 . S
C711 C706 1.379 . S
C711 N709 1.356 . S
N712 C704 1.356 . S
N712 H718 0.984 . S
N712 H719 0.984 . S
N713 C706 1.356 . S
N713 H716 0.984 . S
N713 H717 0.985 . S
H714 N709 0.984 . S
H715 N709 0.985 . S
H716 N713 0.984 . S
H717 N713 0.985 . S
H718 N712 0.984 . S
H719 N712 0.984 . S
H720 N708 0.984 . S
H721 N708 0.985 . S
C722 C723 1.363 . S
C722 C728 1.379 . S
C722 N730 1.356 . S
C723 C722 1.363 . S
C723 C729 1.363 1_655 S
C724 C725 1.363 1_455 S
C724 C729 1.379 . S
C724 N731 1.356 . S
C725 C724 1.363 1_655 S
C725 C728 1.363 . S
N726 C728 1.356 . S
N726 H738 0.984 . S
N726 H739 0.985 . S
N727 C729 1.356 . S
N727 H732 0.984 . S
N727 H733 0.985 . S
C728 C722 1.379 . S
C728 C725 1.363 . S
C728 N726 1.356 . S
C729 C723 1.363 1_455 S
C729 C724 1.379 . S
C729 N727 1.356 . S
N730 C722 1.356 . S
N730 H736 0.984 . S
N730 H737 0.984 . S
N731 C724 1.356 . S
N731 H734 0.984 . S
N731 H735 0.985 . S
H732 N727 0.984 . S
H733 N727 0.985 . S
H734 N731 0.984 . S
H735 N731 0.985 . S
H736 N730 0.984 . S
H737 N730 0.984 . S
H738 N726 0.984 . S
H739 N726 0.985 . S
C740 C741 1.363 . S
C740 C746 1.379 . S
C740 N748 1.356 . S
C741 C740 1.363 . S
C741 C747 1.363 . S
C742 C743 1.363 . S
C742 C747 1.379 . S
C742 N749 1.356 . S
C743 C742 1.363 . S
C743 C746 1.363 . S
N744 C746 1.356 . S
N744 H756 0.984 . S
N744 H757 0.985 . S
N745 C747 1.356 . S
N745 H750 0.984 . S
N745 H751 0.985 . S
C746 C740 1.379 . S
C746 C743 1.363 . S
C746 N744 1.356 . S
C747 C741 1.363 . S
C747 C742 1.379 . S
C747 N745 1.356 . S
N748 C740 1.356 . S
N748 H754 0.984 . S
N748 H755 0.984 . S
N749 C742 1.356 . S
N749 H752 0.984 . S
N749 H753 0.985 . S
H750 N745 0.984 . S
H751 N745 0.985 . S
H752 N749 0.984 . S
H753 N749 0.985 . S
H754 N748 0.984 . S
H755 N748 0.984 . S
H756 N744 0.984 . S
H757 N744 0.985 . S
C758 C759 1.363 . S
C758 C764 1.379 . S
C758 N766 1.356 . S
C759 C758 1.363 . S
C759 C765 1.363 . S
C760 C761 1.363 . S
C760 C765 1.379 . S
C760 N767 1.356 . S
C761 C760 1.363 . S
C761 C764 1.363 . S
N762 C764 1.356 . S
N762 H774 0.984 . S
N762 H775 0.985 . S
N763 C765 1.356 . S
N763 H768 0.984 . S
N763 H769 0.985 . S
C764 C758 1.379 . S
C764 C761 1.363 . S
C764 N762 1.356 . S
C765 C759 1.363 . S
C765 C760 1.379 . S
C765 N763 1.356 . S
N766 C758 1.356 . S
N766 H772 0.984 . S
N766 H773 0.984 . S
N767 C760 1.356 . S
N767 H770 0.984 . S
N767 H771 0.985 . S
H768 N763 0.984 . S
H769 N763 0.985 . S
H770 N767 0.984 . S
H771 N767 0.985 . S
H772 N766 0.984 . S
H773 N766 0.984 . S
H774 N762 0.984 . S
H775 N762 0.985 . S
C776 C777 1.363 . S
C776 C782 1.379 . S
C776 N784 1.356 . S
C777 C776 1.363 . S
C777 C783 1.363 . S
C778 C779 1.363 . S
C778 C783 1.379 . S
C778 N785 1.356 . S
C779 C778 1.363 . S
C779 C782 1.363 . S
N780 C782 1.356 . S
N780 H792 0.984 . S
N780 H793 0.985 . S
N781 C783 1.356 . S
N781 H786 0.984 . S
N781 H787 0.985 . S
C782 C776 1.379 . S
C782 C779 1.363 . S
C782 N780 1.356 . S
C783 C777 1.363 . S
C783 C778 1.379 . S
C783 N781 1.356 . S
N784 C776 1.356 . S
N784 H790 0.984 . S
N784 H791 0.984 . S
N785 C778 1.356 . S
N785 H788 0.984 . S
N785 H789 0.985 . S
H786 N781 0.984 . S
H787 N781 0.985 . S
H788 N785 0.984 . S
H789 N785 0.985 . S
H790 N784 0.984 . S
H791 N784 0.984 . S
H792 N780 0.984 . S
H793 N780 0.985 . S
C794 C795 1.363 . S
C794 C800 1.379 . S
C794 N802 1.356 . S
C795 C794 1.363 . S
C795 C801 1.363 . S
C796 C797 1.363 . S
C796 C801 1.379 . S
C796 N803 1.356 . S
C797 C796 1.363 . S
C797 C800 1.363 . S
N798 C800 1.356 . S
N798 H810 0.984 . S
N798 H811 0.985 . S
N799 C801 1.356 . S
N799 H804 0.984 . S
N799 H805 0.985 . S
C800 C794 1.379 . S
C800 C797 1.363 . S
C800 N798 1.356 . S
C801 C795 1.363 . S
C801 C796 1.379 . S
C801 N799 1.356 . S
N802 C794 1.356 . S
N802 H808 0.984 . S
N802 H809 0.984 . S
N803 C796 1.356 . S
N803 H806 0.984 . S
N803 H807 0.985 . S
H804 N799 0.984 . S
H805 N799 0.985 . S
H806 N803 0.984 . S
H807 N803 0.985 . S
H808 N802 0.984 . S
H809 N802 0.984 . S
H810 N798 0.984 . S
H811 N798 0.985 . S
C812 C813 1.363 . S
C812 C818 1.379 . S
C812 N820 1.356 . S
C813 C812 1.363 . S
C813 C819 1.363 . S
C814 C815 1.363 . S
C814 C819 1.379 . S
C814 N821 1.356 . S
C815 C814 1.363 . S
C815 C818 1.363 . S
N816 C818 1.356 . S
N816 H828 0.984 . S
N816 H829 0.985 . S
N817 C819 1.356 . S
N817 H822 0.984 . S
N817 H823 0.977 1_455 S
C818 C812 1.379 . S
C818 C815 1.363 . S
C818 N816 1.356 . S
C819 C813 1.363 . S
C819 C814 1.379 . S
C819 N817 1.356 . S
N820 C812 1.356 . S
N820 H826 0.984 . S
N820 H827 0.984 . S
N821 C814 1.356 . S
N821 H824 0.984 . S
N821 H825 0.985 1_455 S
H822 N817 0.984 . S
H823 N817 0.977 1_655 S
H824 N821 0.984 . S
H825 N821 0.985 1_655 S
H826 N820 0.984 . S
H827 N820 0.984 . S
H828 N816 0.984 . S
H829 N816 0.985 . S
C830 C831 1.363 . S
C830 C836 1.379 . S
C830 N838 1.356 . S
C831 C830 1.363 . S
C831 C837 1.363 . S
C832 C833 1.363 . S
C832 C837 1.379 . S
C832 N839 1.356 . S
C833 C832 1.363 . S
C833 C836 1.363 . S
N834 C836 1.356 . S
N834 H846 0.984 . S
N834 H847 0.985 . S
N835 C837 1.356 . S
N835 H840 0.984 . S
N835 H841 0.985 . S
C836 C830 1.379 . S
C836 C833 1.363 . S
C836 N834 1.356 . S
C837 C831 1.363 . S
C837 C832 1.379 . S
C837 N835 1.356 . S
N838 C830 1.356 . S
N838 H844 0.984 . S
N838 H845 0.984 . S
N839 C832 1.356 . S
N839 H842 0.984 . S
N839 H843 0.985 . S
H840 N835 0.984 . S
H841 N835 0.985 . S
H842 N839 0.984 . S
H843 N839 0.985 . S
H844 N838 0.984 . S
H845 N838 0.984 . S
H846 N834 0.984 . S
H847 N834 0.985 . S
C417 C29 1.263 . S
C419 C273 1.267 . S
C435 C49 1.052 . S
C437 C313 1.228 . S
C455 C338 2.491 . S
C453 C93 2.499 . S
C471 C119 2.418 . S
C473 C378 2.403 . S
C491 C309 1.804 . S
C489 C17 1.770 . S
C509 C269 1.857 . S
C507 C61 1.539 . S
C527 C400 1.804 . S
C525 C81 1.799 . S
C545 C360 1.809 . S
C543 C125 1.829 . S
C561 C23 1.554 . S
C563 C402 1.512 . S
C581 C319 2.195 . S
C579 C87 2.183 . S
C597 C113 2.237 . S
C599 C279 2.225 . S
C615 C55 1.334 . S
C617 C362 1.548 . S
C635 C282 1.273 . S
C633 C157 1.067 . S
C651 C189 1.292 . S
C653 C322 1.272 . S
C669 C221 2.498 . S
C671 C359 2.459 . S
C687 C253 2.472 . S
C689 C399 2.481 . S
C705 C145 1.596 . S
C707 C320 1.883 . S
C725 C280 1.849 . S
C723 C183 1.818 . S
C743 C389 1.830 . S
C741 C209 1.811 . S
C761 C349 1.790 . S
C759 C247 1.795 . S
C777 C151 1.364 . S
C779 C393 1.535 . S
C797 C298 2.187 . S
C795 C215 2.212 . S
C815 C258 2.215 . S
C813 C241 2.198 . S
C831 C177 1.583 . S
C833 C353 1.539 . S
