# Generated by pormake.
# Topology zzz, (3,6)-cn, num edge types: 1
# Building blocks:
#     Node 0, Type 0, BuildingBlock: KAKCAD_clean_linker_0, # of connection points: 3
#     Node 1, Type 0, BuildingBlock: KAKCAD_clean_linker_0, # of connection points: 3
#     Node 2, Type 0, BuildingBlock: KAKCAD_clean_linker_0, # of connection points: 3
#     Node 3, Type 0, BuildingBlock: KAKCAD_clean_linker_0, # of connection points: 3
#     Node 4, Type 0, BuildingBlock: KAKCAD_clean_linker_0, # of connection points: 3
#     Node 5, Type 0, BuildingBlock: KAKCAD_clean_linker_0, # of connection points: 3
#     Node 6, Type 0, BuildingBlock: KAKCAD_clean_linker_0, # of connection points: 3
#     Node 7, Type 0, BuildingBlock: KAKCAD_clean_linker_0, # of connection points: 3
#     Node 8, Type 1, BuildingBlock: NUHQIS_clean_sbu_0, # of connection points: 6
#     Node 9, Type 1, BuildingBlock: NUHQIS_clean_sbu_0, # of connection points: 6
#     Node 10, Type 1, BuildingBlock: NUHQIS_clean_sbu_0, # of connection points: 6
#     Node 11, Type 1, BuildingBlock: NUHQIS_clean_sbu_0, # of connection points: 6
#     Edge 12, Type (0, 1), BuildingBlock: MIFKUJ_clean_linker_0, # of connection points: 2
#     Edge 13, Type (0, 1), BuildingBlock: MIFKUJ_clean_linker_0, # of connection points: 2
#     Edge 14, Type (0, 1), BuildingBlock: MIFKUJ_clean_linker_0, # of connection points: 2
#     Edge 15, Type (0, 1), BuildingBlock: MIFKUJ_clean_linker_0, # of connection points: 2
#     Edge 16, Type (0, 1), BuildingBlock: MIFKUJ_clean_linker_0, # of connection points: 2
#     Edge 17, Type (0, 1), BuildingBlock: MIFKUJ_clean_linker_0, # of connection points: 2
#     Edge 18, Type (0, 1), BuildingBlock: MIFKUJ_clean_linker_0, # of connection points: 2
#     Edge 19, Type (0, 1), BuildingBlock: MIFKUJ_clean_linker_0, # of connection points: 2
#     Edge 20, Type (0, 1), BuildingBlock: MIFKUJ_clean_linker_0, # of connection points: 2
#     Edge 21, Type (0, 1), BuildingBlock: MIFKUJ_clean_linker_0, # of connection points: 2
#     Edge 22, Type (0, 1), BuildingBlock: MIFKUJ_clean_linker_0, # of connection points: 2
#     Edge 23, Type (0, 1), BuildingBlock: MIFKUJ_clean_linker_0, # of connection points: 2
#     Edge 24, Type (0, 1), BuildingBlock: MIFKUJ_clean_linker_0, # of connection points: 2
#     Edge 25, Type (0, 1), BuildingBlock: MIFKUJ_clean_linker_0, # of connection points: 2
#     Edge 26, Type (0, 1), BuildingBlock: MIFKUJ_clean_linker_0, # of connection points: 2
#     Edge 27, Type (0, 1), BuildingBlock: MIFKUJ_clean_linker_0, # of connection points: 2
#     Edge 28, Type (0, 1), BuildingBlock: MIFKUJ_clean_linker_0, # of connection points: 2
#     Edge 29, Type (0, 1), BuildingBlock: MIFKUJ_clean_linker_0, # of connection points: 2
#     Edge 30, Type (0, 1), BuildingBlock: MIFKUJ_clean_linker_0, # of connection points: 2
#     Edge 31, Type (0, 1), BuildingBlock: MIFKUJ_clean_linker_0, # of connection points: 2
#     Edge 32, Type (0, 1), BuildingBlock: MIFKUJ_clean_linker_0, # of connection points: 2
#     Edge 33, Type (0, 1), BuildingBlock: MIFKUJ_clean_linker_0, # of connection points: 2
#     Edge 34, Type (0, 1), BuildingBlock: MIFKUJ_clean_linker_0, # of connection points: 2
#     Edge 35, Type (0, 1), BuildingBlock: MIFKUJ_clean_linker_0, # of connection points: 2
# Relax obj value: 0.385
# Max RMSD: 0.257
# Mean RMSD: 0.230
data_MOF--net-zzz--node1-NUHQIS_clean_sbu_0--node2-KAKCAD_clean_linker_0--edge1-MIFKUJ_clean_linker_0
_symmetry_space_group_name_H-M    P1
_symmetry_Int_Tables_number       1
_symmetry_cell_setting            triclinic
loop_
_symmetry_equiv_pos_as_xyz
'x, y, z'
_cell_length_a     74.838518
_cell_length_b     74.879192
_cell_length_c     23.661134
_cell_angle_alpha  89.918208
_cell_angle_beta   89.959969
_cell_angle_gamma 90.057426
loop_
_atom_site_label
_atom_site_type_symbol
_atom_site_fract_x
_atom_site_fract_y
_atom_site_fract_z
_atom_type_partial_charge
C0 C 0.74825 0.48888 1.00224 0.0
C1 C 0.75868 0.47331 1.00078 0.0
C2 C 0.74089 0.49478 0.0531 0.0
C3 C 0.74399 0.4853 0.10344 0.0
C4 C 0.7538 0.46934 0.10154 0.0
C5 C 0.76102 0.46335 0.0506 0.0
C6 C 0.73763 0.49246 0.15809 0.0
C7 C 0.72016 0.49869 0.16348 0.0
C8 C 0.71399 0.50578 0.21463 0.0
C9 C 0.72567 0.50683 0.26151 0.0
C10 C 0.74344 0.50048 0.25658 0.0
C11 C 0.74914 0.49339 0.20455 0.0
C12 C 0.75671 0.50122 0.30367 0.0
C13 C 0.76053 0.51727 0.3321 0.0
C14 C 0.76775 0.48634 0.31375 0.0
C15 C 0.78306 0.48784 0.34716 0.0
C16 C 0.78764 0.50418 0.37225 0.0
C17 C 0.69496 0.51111 0.21612 0.0
C18 C 0.6898 0.52693 0.1886 0.0
C19 C 0.68203 0.49788 0.226 0.0
C20 C 0.66476 0.49965 0.20386 0.0
C21 C 0.66008 0.51471 0.17139 0.0
C22 C 0.67249 0.52877 0.16675 0.0
C23 C 0.77586 0.51872 0.36633 0.0
H24 H 0.74631 0.49679 0.96437 0.0
H25 H 0.7334 0.50716 0.05349 0.0
H26 H 0.7562 0.4617 0.1397 0.0
H27 H 0.76923 0.45144 0.05077 0.0
H28 H 0.71114 0.49775 0.12772 0.0
H29 H 0.76285 0.48898 0.1996 0.0
H30 H 0.72095 0.51225 0.30122 0.0
H31 H 0.75236 0.52899 0.32496 0.0
H32 H 0.76506 0.47371 0.29315 0.0
H33 H 0.79171 0.47633 0.35171 0.0
H34 H 0.69967 0.5371 0.17905 0.0
H35 H 0.68578 0.48539 0.24585 0.0
H36 H 0.77907 0.53148 0.3853 0.0
H37 H 0.66939 0.54049 0.14177 0.0
H38 H 0.65544 0.48868 0.20883 0.0
C39 C 0.03595 0.75662 0.04923 0.0
C40 C 0.04944 0.76892 0.06293 0.0
C41 C 0.02699 0.74728 0.09174 0.0
C42 C 0.03137 0.75003 0.14883 0.0
C43 C 0.04567 0.76145 0.16225 0.0
C44 C 0.05464 0.77079 0.11968 0.0
C45 C 0.02008 0.74218 0.194 0.0
C46 C 0.01374 0.72466 0.1894 0.0
C47 C 1.00165 0.71765 0.22897 0.0
C48 C 0.99584 0.72839 0.27444 0.0
C49 C 1.00255 0.74593 0.28018 0.0
C50 C 0.01457 0.75263 0.23988 0.0
C51 C 0.99731 0.75805 0.32677 0.0
C52 C 0.98269 0.76958 0.31991 0.0
C53 C 0.00945 0.76131 0.37077 0.0
C54 C 0.00755 0.77634 0.40539 0.0
C55 C 0.99358 0.78861 0.39638 0.0
C56 C 0.99533 0.69916 0.21939 0.0
C57 C 0.97916 0.69619 0.19079 0.0
C58 C 0.00763 0.68509 0.22399 0.0
C59 C 0.0045 0.66883 0.1967 0.0
C60 C 0.98904 0.66632 0.16382 0.0
C61 C 0.976 0.67987 0.16341 0.0
C62 C 0.98079 0.78467 0.35452 0.0
H63 H 0.03178 0.75481 0.00578 0.0
H64 H 0.01599 0.73864 0.07998 0.0
H65 H 0.04951 0.76362 0.20583 0.0
H66 H 0.0649 0.78027 0.13158 0.0
H67 H 0.01805 0.71643 0.15426 0.0
H68 H 0.0192 0.76631 0.24347 0.0
H69 H 0.98641 0.72314 0.30501 0.0
H70 H 0.97345 0.76761 0.28525 0.0
H71 H 0.02103 0.75281 0.37609 0.0
H72 H 0.01749 0.77875 0.43776 0.0
H73 H 0.96968 0.70699 0.1855 0.0
H74 H 0.02032 0.68717 0.245 0.0
H75 H 0.96995 0.79385 0.34592 0.0
H76 H 0.96401 0.67842 0.13824 0.0
H77 H 0.01468 0.65858 0.19862 0.0
C78 C 0.74742 0.03683 0.05467 0.0
C79 C 0.7358 0.05113 0.06568 0.0
C80 C 0.75717 0.02901 0.09836 0.0
C81 C 0.75557 0.0354 0.15399 0.0
C82 C 0.74497 0.05054 0.16422 0.0
C83 C 0.73517 0.05834 0.12044 0.0
C84 C 0.76351 0.02517 0.20149 0.0
C85 C 0.78038 0.01737 0.19598 0.0
C86 C 0.78702 0.00569 0.23724 0.0
C87 C 0.77663 1.00195 0.28586 0.0
C88 C 0.75978 0.01029 0.29293 0.0
C89 C 0.75346 0.02175 0.25028 0.0
C90 C 0.74774 0.00687 0.34217 0.0
C91 C 0.74196 0.98952 0.35571 0.0
C92 C 0.73939 0.02138 0.36903 0.0
C93 C 0.7248 0.01879 0.40511 0.0
C94 C 0.71812 1.00154 0.41594 0.0
C95 C 0.80448 0.9972 0.22492 0.0
C96 C 0.80506 0.9833 0.18518 0.0
C97 C 0.82037 0.00632 0.23788 0.0
C98 C 0.83627 1.00243 0.20879 0.0
C99 C 0.83648 0.98954 0.1655 0.0
C100 C 0.82087 0.97951 0.15581 0.0
C101 C 0.72732 0.98688 0.39219 0.0
H102 H 0.74831 0.03113 0.0127 0.0
H103 H 0.76512 0.01731 0.08902 0.0
H104 H 0.7437 0.05592 0.2065 0.0
H105 H 0.72626 0.0693 0.13028 0.0
H106 H 0.78831 0.02006 0.15851 0.0
H107 H 0.74015 0.02733 0.25388 0.0
H108 H 0.78157 0.99275 0.31756 0.0
H109 H 0.74802 0.97807 0.33541 0.0
H110 H 0.74352 0.03493 0.35944 0.0
H111 H 0.71815 0.03049 0.4217 0.0
H112 H 0.7929 0.97638 0.17337 0.0
H113 H 0.82016 0.01745 0.26707 0.0
H114 H 0.72287 0.97335 0.40027 0.0
H115 H 0.82061 0.96936 0.12324 0.0
H116 H 0.84801 0.01048 0.2171 0.0
C117 C 0.50681 0.72537 0.39667 0.0
C118 C 0.5208 0.71339 0.40945 0.0
C119 C 0.50951 0.73969 0.35908 0.0
C120 C 0.52624 0.74234 0.33344 0.0
C121 C 0.54049 0.7312 0.34936 0.0
C122 C 0.53782 0.71693 0.38662 0.0
C123 C 0.52811 0.75383 0.28225 0.0
C124 C 0.52276 0.77196 0.28037 0.0
C125 C 0.52396 0.78159 0.22903 0.0
C126 C 0.52998 0.77296 0.18009 0.0
C127 C 0.53486 0.75498 0.18126 0.0
C128 C 0.53425 0.74565 0.23247 0.0
C129 C 0.53796 0.74515 0.12806 0.0
C130 C 0.52522 0.74618 0.08469 0.0
C131 C 0.55203 0.73287 0.12343 0.0
C132 C 0.55251 0.72081 0.07845 0.0
C133 C 0.53871 0.72061 0.03805 0.0
C134 C 0.51818 0.80037 0.22241 0.0
C135 C 0.50191 0.80382 0.195 0.0
C136 C 0.53087 0.81414 0.2264 0.0
C137 C 0.52789 0.83063 0.19975 0.0
C138 C 0.51226 0.83351 0.16794 0.0
C139 C 0.49897 0.82021 0.16808 0.0
C140 C 0.52553 0.73399 0.04028 0.0
H141 H 0.49359 0.72333 0.41415 0.0
H142 H 0.49823 0.74794 0.34722 0.0
H143 H 0.55353 0.73286 0.33009 0.0
H144 H 0.54894 0.70804 0.3946 0.0
H145 H 0.51765 0.77841 0.318 0.0
H146 H 0.53743 0.73152 0.2328 0.0
H147 H 0.53036 0.78019 0.14031 0.0
H148 H 0.51414 0.75544 0.0875 0.0
H149 H 0.56212 0.73199 0.15611 0.0
H150 H 0.56306 0.71093 0.0773 0.0
H151 H 0.4921 0.79327 0.1902 0.0
H152 H 0.54372 0.81162 0.24587 0.0
H153 H 0.51453 0.73417 0.01062 0.0
H154 H 0.48671 0.82209 0.14451 0.0
H155 H 0.53844 0.84053 0.20018 0.0
C156 C 0.24111 0.51185 0.33071 0.0
C157 C 0.22705 0.50031 0.34583 0.0
C158 C 0.24987 0.50984 0.27896 0.0
C159 C 0.24456 0.49643 0.24116 0.0
C160 C 0.23112 0.4844 0.25709 0.0
C161 C 0.22259 0.48619 0.30921 0.0
C162 C 0.25244 0.49557 0.18409 0.0
C163 C 0.27089 0.49442 0.17737 0.0
C164 C 0.2786 0.49405 0.12341 0.0
C165 C 0.26757 0.49524 0.07503 0.0
C166 C 0.24881 0.49681 0.08151 0.0
C167 C 0.24149 0.49657 0.13634 0.0
C168 C 0.23629 0.4991 0.03293 0.0
C169 C 0.22275 0.51208 0.03643 0.0
C170 C 0.23601 0.48708 0.98727 0.0
C171 C 0.22175 0.48727 0.94846 0.0
C172 C 0.20752 0.49941 0.955 0.0
C173 C 0.29829 0.49262 0.12124 0.0
C174 C 0.30863 0.50814 0.12787 0.0
C175 C 0.30617 0.47597 0.13227 0.0
C176 C 0.32347 0.47495 0.15449 0.0
C177 C 0.33323 0.49058 0.16637 0.0
C178 C 0.32598 0.50713 0.14994 0.0
C179 C 0.20853 0.51216 0.99829 0.0
H180 H 0.24477 0.52301 0.3574 0.0
H181 H 0.26022 0.51928 0.26731 0.0
H182 H 0.22703 0.47379 0.22879 0.0
H183 H 0.21212 0.47679 0.32007 0.0
H184 H 0.27936 0.49368 0.21454 0.0
H185 H 0.22714 0.4975 0.14207 0.0
H186 H 0.27349 0.49528 0.03325 0.0
H187 H 0.22272 0.52172 0.07053 0.0
H188 H 0.24621 0.47689 0.98356 0.0
H189 H 0.22132 0.4773 0.91536 0.0
H190 H 0.30267 0.52115 0.1212 0.0
H191 H 0.29832 0.46385 0.12877 0.0
H192 H 0.19796 0.52188 0.0038 0.0
H193 H 0.33306 0.51944 0.15878 0.0
H194 H 0.32875 0.46197 0.16586 0.0
C195 C 0.96216 0.24335 0.30341 0.0
C196 C 0.96477 0.22493 0.31013 0.0
C197 C 0.96961 0.25229 0.25708 0.0
C198 C 0.98008 0.24301 0.21723 0.0
C199 C 0.98288 0.2246 0.22496 0.0
C200 C 0.97518 0.21565 0.27059 0.0
C201 C 0.9883 0.25246 0.16825 0.0
C202 C 0.99502 0.26983 0.17429 0.0
C203 C 1.00324 0.27869 0.12896 0.0
C204 C 0.00527 0.26986 0.07672 0.0
C205 C 0.99856 0.25235 0.07002 0.0
C206 C 0.98991 0.24398 0.11561 0.0
C207 C 1.00103 0.24185 0.01737 0.0
C208 C 0.98602 0.2349 0.98924 0.0
C209 C 0.01806 0.23565 1.0022 0.0
C210 C 0.01995 0.22189 0.96241 0.0
C211 C 0.00483 0.21419 0.93659 0.0
C212 C 0.00926 0.29727 0.13882 0.0
C213 C 0.99763 0.31148 0.127 0.0
C214 C 0.02416 0.30036 0.17339 0.0
C215 C 0.02677 0.31705 0.19868 0.0
C216 C 0.01438 0.33097 0.19058 0.0
C217 C 1.00018 0.32819 0.15248 0.0
C218 C 0.9879 0.22133 0.94898 0.0
H219 H 0.95407 0.25072 0.33332 0.0
H220 H 0.96695 0.26641 0.25216 0.0
H221 H 0.99122 0.21707 0.19617 0.0
H222 H 0.97755 0.20145 0.27542 0.0
H223 H 0.99406 0.27654 0.21475 0.0
H224 H 0.98463 0.23061 0.11003 0.0
H225 H 0.01191 0.2765 0.04183 0.0
H226 H 0.97272 0.23927 1.00081 0.0
H227 H 0.02981 0.24057 0.02393 0.0
H228 H 0.03319 0.2168 0.95344 0.0
H229 H 0.98579 0.30927 0.10164 0.0
H230 H 0.03312 0.28949 0.18394 0.0
H231 H 0.97597 0.21564 0.93035 0.0
H232 H 0.99029 0.3385 0.14549 0.0
H233 H 0.03805 0.31878 0.22683 0.0
C234 C 0.25922 0.03562 0.31174 0.0
C235 C 0.27616 0.04375 0.30891 0.0
C236 C 0.24861 0.03417 0.26345 0.0
C237 C 0.25436 0.04144 0.21159 0.0
C238 C 0.26999 0.05186 0.21107 0.0
C239 C 0.28089 0.05278 0.25878 0.0
C240 C 0.2455 0.03621 0.15761 0.0
C241 C 0.22724 0.03222 0.15608 0.0
C242 C 0.21945 0.02428 0.10847 0.0
C243 C 0.22996 0.02106 0.05983 0.0
C244 C 0.2482 0.02609 0.05935 0.0
C245 C 0.25575 0.03324 0.10877 0.0
C246 C 0.26023 0.02359 0.00952 0.0
C247 C 0.26265 0.00679 0.98428 0.0
C248 C 0.27161 0.03765 0.9932 0.0
C249 C 0.28576 0.03478 0.95572 0.0
C250 C 0.28898 0.01775 0.93274 0.0
C251 C 0.20064 0.01838 0.11456 0.0
C252 C 0.19721 1.00185 0.14053 0.0
C253 C 0.18685 0.03107 0.1119 0.0
C254 C 0.17034 0.02775 0.13804 0.0
C255 C 0.16744 0.01181 0.16829 0.0
C256 C 0.1808 0.99861 0.1672 0.0
C257 C 0.27687 0.0039 0.94633 0.0
H258 H 0.25468 0.02917 0.35012 0.0
H259 H 0.2366 0.02617 0.26625 0.0
H260 H 0.27448 0.05836 0.17269 0.0
H261 H 0.29368 0.05935 0.25425 0.0
H262 H 0.21901 0.03467 0.19299 0.0
H263 H 0.27002 0.03569 0.10967 0.0
H264 H 0.22402 0.01487 0.02299 0.0
H265 H 0.25419 0.99566 0.99624 0.0
H266 H 0.27011 0.05077 0.01188 0.0
H267 H 0.29475 0.04581 0.94736 0.0
H268 H 0.20778 0.99205 0.1445 0.0
H269 H 0.18936 0.04411 0.09367 0.0
H270 H 0.27863 0.99066 0.92886 0.0
H271 H 0.17893 0.98613 0.18966 0.0
H272 H 0.16039 0.03825 0.1384 0.0
C273 C 0.48342 0.27737 0.95625 0.0
C274 C 0.49856 0.28631 0.93474 0.0
C275 C 0.48526 0.26301 0.99408 0.0
C276 C 0.50228 0.2574 0.01164 0.0
C277 C 0.5174 0.26571 0.98798 0.0
C278 C 0.51558 0.27988 0.94972 0.0
C279 C 0.50436 0.24576 0.06224 0.0
C280 C 0.49821 0.22788 0.06429 0.0
C281 C 0.50013 0.21784 0.11459 0.0
C282 C 0.50764 0.22587 0.16246 0.0
C283 C 0.51374 0.24348 0.16076 0.0
C284 C 0.51229 0.25327 0.11053 0.0
C285 C 0.52107 0.25185 0.21222 0.0
C286 C 0.5111 0.25175 0.26251 0.0
C287 C 0.53777 0.2604 0.21101 0.0
C288 C 0.54422 0.26907 0.25912 0.0
C289 C 0.5339 0.26956 0.30867 0.0
C290 C 0.49529 0.19872 0.11969 0.0
C291 C 0.4795 0.19389 0.14806 0.0
C292 C 0.5087 0.18583 0.11257 0.0
C293 C 0.50697 0.16887 0.13706 0.0
C294 C 0.49176 0.16444 0.16919 0.0
C295 C 0.47768 0.17685 0.17216 0.0
C296 C 0.51739 0.2607 0.31022 0.0
H297 H 0.47011 0.28186 0.94521 0.0
H298 H 0.4734 0.25703 0.01234 0.0
H299 H 0.53068 0.26181 1.0014 0.0
H300 H 0.52753 0.2865 0.93454 0.0
H301 H 0.49225 0.22183 0.02726 0.0
H302 H 0.51677 0.26705 0.10963 0.0
H303 H 0.50902 0.21821 0.2012 0.0
H304 H 0.49815 0.24528 0.26426 0.0
H305 H 0.5457 0.26055 0.17269 0.0
H306 H 0.55689 0.27605 0.25689 0.0
H307 H 0.4692 0.20377 0.15556 0.0
H308 H 0.52118 0.18938 0.09215 0.0
H309 H 0.50919 0.26105 0.34797 0.0
H310 H 0.46585 0.17393 0.19693 0.0
H311 H 0.51798 0.15956 0.13348 0.0
Tb312 Tb 0.01597 0.99754 0.70352 0.0
Eu313 Eu 0.9834 0.00773 0.61758 0.0
C314 C 0.02383 0.0069 0.57768 0.0
C315 C 1.00324 0.03784 0.69288 0.0
C316 C 0.04581 0.9699 0.7884 0.0
C317 C 0.06588 0.95011 0.83887 0.0
C318 C 0.06119 0.96731 0.82109 0.0
C319 C 0.03517 0.95524 0.7736 0.0
C320 C 0.03986 0.93812 0.79099 0.0
C321 C 0.05524 0.93534 0.82396 0.0
C322 C 0.04112 0.98766 0.76734 0.0
O323 O 0.9913 0.98864 0.74477 0.0
O324 O 0.9728 0.00952 0.70624 0.0
O325 O 0.98294 0.97765 0.62112 0.0
O326 O 0.01159 0.97337 0.65348 0.0
C327 C 0.97639 0.99791 0.74609 0.0
O328 O 0.95505 0.00782 0.59576 0.0
O329 O 0.97426 0.02059 0.54019 0.0
O330 O 0.00764 1.00168 0.56436 0.0
O331 O 0.02784 0.01077 0.63031 0.0
O332 O 0.01031 0.02532 0.72493 0.0
O333 O 0.99494 0.03406 0.64551 0.0
C334 C 0.99679 0.96727 0.63041 0.0
O335 O 0.04266 0.98958 0.71289 0.0
O336 O 0.02604 0.9941 0.78574 0.0
C337 C 0.94765 0.03597 0.55665 0.0
C338 C 0.9359 0.07172 0.56285 0.0
C339 C 0.93724 0.06127 0.61208 0.0
C340 C 0.94319 0.04361 0.60907 0.0
C341 C 0.94542 0.04601 0.50727 0.0
C342 C 0.9397 0.06371 0.51028 0.0
C343 C 0.95745 0.01897 0.55392 0.0
H344 H 0.07771 0.94839 0.86462 0.0
H345 H 0.06956 0.97853 0.83259 0.0
H346 H 0.02329 0.95701 0.74807 0.0
H347 H 0.03157 0.92702 0.77786 0.0
H348 H 0.93422 0.06687 0.65315 0.0
H349 H 0.94505 0.03622 0.64801 0.0
H350 H 0.9491 0.04049 0.46659 0.0
H351 H 0.93923 0.07136 0.47145 0.0
Tb352 Tb 0.50649 0.01374 0.7091 0.0
Eu353 Eu 0.4968 0.98205 0.61934 0.0
C354 C 0.49697 0.02269 0.58353 0.0
C355 C 0.46667 1.00119 0.69601 0.0
C356 C 0.53362 0.04357 0.79544 0.0
C357 C 0.55364 0.06513 0.83863 0.0
C358 C 0.53634 0.0599 0.82302 0.0
C359 C 0.54831 0.03267 0.78317 0.0
C360 C 0.56548 0.03796 0.79761 0.0
C361 C 0.5684 0.05412 0.82629 0.0
C362 C 0.51569 0.03772 0.77852 0.0
O363 O 0.50226 0.98924 0.75807 0.0
O364 O 0.50964 0.96803 0.69259 0.0
O365 O 0.52575 0.98864 0.60271 0.0
O366 O 0.53267 0.00332 0.68503 0.0
C367 C 0.50722 0.97288 0.74527 0.0
O368 O 0.48187 0.95807 0.59606 0.0
O369 O 0.5001 0.97011 0.53605 0.0
O370 O 0.48735 0.00809 0.58185 0.0
O371 O 0.50863 0.02509 0.62426 0.0
O372 O 0.47738 0.01503 0.70178 0.0
O373 O 0.47245 0.98607 0.67462 0.0
C374 C 0.53749 0.99575 0.63727 0.0
O375 O 0.51141 0.04091 0.72622 0.0
O376 O 0.51165 0.02143 0.79278 0.0
C377 C 0.47202 0.96084 0.50272 0.0
C378 C 0.43943 0.96714 0.44705 0.0
C379 C 0.44353 0.94999 0.46778 0.0
C380 C 0.45972 0.94689 0.49565 0.0
C381 C 0.46848 0.97757 0.47837 0.0
C382 C 0.45238 0.98069 0.4509 0.0
C383 C 0.48677 0.95909 0.54323 0.0
H384 H 0.55541 0.07759 0.8611 0.0
H385 H 0.52512 0.06848 0.83285 0.0
H386 H 0.54653 0.01994 0.76271 0.0
H387 H 0.57649 0.02932 0.78611 0.0
H388 H 0.43391 0.93923 0.46483 0.0
H389 H 0.46219 0.93392 0.51446 0.0
H390 H 0.47762 0.98866 0.48369 0.0
H391 H 0.44963 0.99414 0.43649 0.0
Tb392 Tb 0.48273 0.50391 0.70462 0.0
Eu393 Eu 0.51572 0.4944 0.62046 0.0
C394 C 0.4753 0.49529 0.57906 0.0
C395 C 0.49582 0.46351 0.69141 0.0
C396 C 0.45786 0.52871 0.81042 0.0
C397 C 0.44364 0.55639 0.83935 0.0
C398 C 0.44292 0.54001 0.81093 0.0
C399 C 0.47317 0.53353 0.8411 0.0
C400 C 0.47387 0.54975 0.86945 0.0
C401 C 0.45932 0.5616 0.86768 0.0
C402 C 0.45846 0.51326 0.77215 0.0
O403 O 0.50715 0.51296 0.74648 0.0
O404 O 0.52529 0.49152 0.71017 0.0
O405 O 0.51681 0.52429 0.62911 0.0
O406 O 0.48759 0.52836 0.65554 0.0
C407 C 0.52172 0.50326 0.74961 0.0
O408 O 0.54429 0.49361 0.60149 0.0
O409 O 0.52512 0.48426 0.53961 0.0
O410 O 0.49147 0.50107 0.56761 0.0
O411 O 0.47087 0.4911 0.63111 0.0
O412 O 0.48838 0.47585 0.72328 0.0
O413 O 0.50453 0.46758 0.64496 0.0
C414 C 0.50285 0.53464 0.63602 0.0
O415 O 0.45833 0.51716 0.71846 0.0
O416 O 0.47045 0.5012 0.78385 0.0
C417 C 0.5514 0.46755 0.54882 0.0
C418 C 0.56371 0.432 0.54075 0.0
C419 C 0.56612 0.44178 0.59092 0.0
C420 C 0.5599 0.45935 0.59508 0.0
C421 C 0.54996 0.4582 0.49783 0.0
C422 C 0.55586 0.44061 0.49395 0.0
C423 C 0.54187 0.48466 0.55476 0.0
H424 H 0.43223 0.56525 0.83733 0.0
H425 H 0.43105 0.53658 0.78714 0.0
H426 H 0.48501 0.52523 0.84085 0.0
H427 H 0.48633 0.55348 0.88953 0.0
H428 H 0.57237 0.43575 0.62751 0.0
H429 H 0.56117 0.46622 0.63512 0.0
H430 H 0.54335 0.46419 0.46174 0.0
H431 H 0.55336 0.43354 0.45489 0.0
Tb432 Tb 0.99338 0.49093 0.69539 0.0
Eu433 Eu 0.00614 0.52184 0.60785 0.0
C434 C 0.00554 0.48088 0.57396 0.0
C435 C 0.03414 0.5019 0.68963 0.0
C436 C 0.9614 0.46514 0.77317 0.0
C437 C 0.93636 0.44635 0.79987 0.0
C438 C 0.95481 0.44889 0.79382 0.0
C439 C 0.94946 0.47886 0.75912 0.0
C440 C 0.93114 0.47629 0.76443 0.0
C441 C 0.92432 0.46 0.78468 0.0
C442 C 0.98032 0.46741 0.75922 0.0
O443 O 0.98393 0.51623 0.73018 0.0
O444 O 0.00679 0.53298 0.69608 0.0
O445 O 0.97607 0.52394 0.60661 0.0
O446 O 0.97055 0.49563 0.6398 0.0
C447 C 0.9941 0.53047 0.73331 0.0
O448 O 0.01322 0.54977 0.59204 0.0
O449 O 0.01545 0.53043 0.52474 0.0
O450 O 1.00085 0.4969 0.55727 0.0
O451 O 0.00801 0.47755 0.6279 0.0
O452 O 0.02076 0.49671 0.72195 0.0
O453 O 0.03137 0.50852 0.6389 0.0
C454 C 0.96512 0.51046 0.61537 0.0
O455 O 0.98397 0.46475 0.70611 0.0
O456 O 0.98773 0.48203 0.77783 0.0
C457 C 0.03991 0.54965 0.54028 0.0
C458 C 0.07662 0.55475 0.55888 0.0
C459 C 0.06499 0.56942 0.56016 0.0
C460 C 0.04664 0.56685 0.55123 0.0
C461 C 0.05189 0.53525 0.53618 0.0
C462 C 0.07003 0.5378 0.54538 0.0
C463 C 0.02059 0.54598 0.54358 0.0
H464 H 0.93153 0.43372 0.8162 0.0
H465 H 0.96386 0.43809 0.80414 0.0
H466 H 0.9543 0.49142 0.74226 0.0
H467 H 0.92233 0.48696 0.75112 0.0
H468 H 0.06999 0.58263 0.57005 0.0
H469 H 0.03762 0.57808 0.55536 0.0
H470 H 0.04721 0.52177 0.52863 0.0
H471 H 0.07891 0.5264 0.54348 0.0
H472 H 0.1321 0.01893 0.14493 0.0
H473 H 0.10662 0.01735 0.21 0.0
H474 H 0.14178 0.99978 0.34342 0.0
H475 H 0.16701 1.0007 0.2781 0.0
H476 H 0.11299 0.9823 0.35364 0.0
H477 H 0.12527 0.04469 0.32846 0.0
H478 H 0.1298 0.07267 0.27522 0.0
H479 H 0.07647 0.06909 0.20935 0.0
H480 H 0.0717 0.04094 0.26166 0.0
H481 H 0.06011 0.00746 0.59188 0.0
H482 H 0.08325 0.00774 0.5186 0.0
H483 H 0.04264 0.00928 0.38964 0.0
H484 H 0.01936 0.00865 0.46271 0.0
H485 H 0.07259 0.03437 0.37449 0.0
H486 H 0.06081 0.97196 0.40832 0.0
H487 H 0.05722 0.94529 0.46854 0.0
H488 H 0.11139 0.95062 0.52582 0.0
H489 H 0.11521 0.97752 0.46665 0.0
C490 C 0.13433 0.01462 0.18806 0.0
C491 C 0.15158 0.00987 0.2062 0.0
C492 C 0.11977 0.01383 0.22545 0.0
C493 C 0.12221 0.00875 0.2823 0.0
C494 C 0.13941 0.00371 0.29999 0.0
C495 C 0.15387 0.0042 0.26245 0.0
C496 C 0.10703 0.00886 0.32371 0.0
C497 C 0.10432 0.9938 0.35836 0.0
C498 C 0.09538 0.02369 0.32988 0.0
C499 C 0.0982 0.04061 0.29846 0.0
C500 C 0.11456 0.0498 0.30229 0.0
C501 C 0.11716 0.0657 0.27234 0.0
C502 C 0.10345 0.07262 0.23879 0.0
C503 C 0.08709 0.06369 0.23526 0.0
C504 C 0.08442 0.04777 0.26507 0.0
C505 C 0.05607 0.00797 0.54796 0.0
C506 C 0.03786 0.00801 0.53321 0.0
C507 C 0.06933 0.00807 0.50611 0.0
C508 C 0.06468 0.00847 0.44862 0.0
C509 C 0.04653 0.00898 0.43372 0.0
C510 C 0.03325 0.00856 0.47555 0.0
C511 C 0.07881 0.00795 0.40422 0.0
C512 C 0.08127 0.02289 0.36924 0.0
C513 C 0.09043 0.99317 0.39845 0.0
C514 C 0.08824 0.97685 0.43344 0.0
C515 C 0.07191 0.96753 0.4341 0.0
C516 C 0.06984 0.95236 0.46799 0.0
C517 C 0.08405 0.94629 0.50109 0.0
C518 C 0.10039 0.95535 0.50022 0.0
C519 C 0.10252 0.97055 0.46647 0.0
H520 H 0.08242 0.93454 0.52731 0.0
H521 H 0.10549 0.08494 0.21564 0.0
H522 H 0.46451 0.14006 0.18402 0.0
H523 H 0.46401 0.1142 0.24779 0.0
H524 H 0.51772 0.12653 0.30147 0.0
H525 H 0.51845 0.15185 0.23665 0.0
H526 H 0.51543 0.09279 0.29313 0.0
H527 H 0.47782 0.13716 0.38044 0.0
H528 H 0.45254 0.1582 0.38582 0.0
H529 H 0.41562 0.11506 0.35976 0.0
H530 H 0.44071 0.09378 0.35351 0.0
H531 H 0.51907 0.05104 0.56192 0.0
H532 H 0.51672 0.07311 0.4861 0.0
H533 H 0.46875 0.04757 0.42585 0.0
H534 H 0.47108 0.02522 0.50148 0.0
H535 H 0.46632 0.08558 0.43221 0.0
H536 H 0.50506 0.04101 0.35426 0.0
H537 H 0.53095 0.02067 0.35386 0.0
H538 H 0.56657 0.06544 0.36754 0.0
H539 H 0.54087 0.08604 0.3689 0.0
C540 C 0.47623 0.13715 0.2092 0.0
C541 C 0.49155 0.14799 0.20498 0.0
C542 C 0.47591 0.12241 0.24598 0.0
C543 C 0.49073 0.11846 0.28049 0.0
C544 C 0.50611 0.12914 0.27543 0.0
C545 C 0.50653 0.14365 0.23811 0.0
C546 C 0.49034 0.10345 0.32248 0.0
C547 C 0.50473 0.09138 0.32377 0.0
C548 C 0.47623 0.10116 0.36198 0.0
C549 C 0.46114 0.11392 0.36586 0.0
C550 C 0.46431 0.13218 0.37546 0.0
C551 C 0.45002 0.14415 0.37872 0.0
C552 C 0.43249 0.13798 0.37296 0.0
C553 C 0.42921 0.11982 0.36409 0.0
C554 C 0.44346 0.1078 0.36071 0.0
C555 C 0.50798 0.05008 0.53268 0.0
C556 C 0.49528 0.0363 0.53786 0.0
C557 C 0.5067 0.06271 0.48917 0.0
C558 C 0.49262 0.06195 0.44999 0.0
C559 C 0.47973 0.04841 0.45553 0.0
C560 C 0.48113 0.03561 0.49871 0.0
C561 C 0.49155 0.07532 0.40329 0.0
C562 C 0.4769 0.08699 0.40116 0.0
C563 C 0.50552 0.0774 0.36349 0.0
C564 C 0.52102 0.06506 0.36215 0.0
C565 C 0.5184 0.04651 0.35762 0.0
C566 C 0.53305 0.03494 0.35715 0.0
C567 C 0.55039 0.04176 0.3608 0.0
C568 C 0.55313 0.06017 0.36477 0.0
C569 C 0.53853 0.07181 0.36533 0.0
H570 H 0.56171 0.03277 0.36045 0.0
H571 H 0.42144 0.14726 0.3755 0.0
H572 H 0.36487 0.50918 0.15476 0.0
H573 H 0.39023 0.50969 0.22069 0.0
H574 H 0.36342 0.47127 0.32695 0.0
H575 H 0.33815 0.47075 0.26183 0.0
H576 H 0.37587 0.50073 0.38629 0.0
H577 H 0.39808 0.45843 0.24932 0.0
H578 H 0.40653 0.44838 0.15378 0.0
H579 H 0.44485 0.49093 0.14152 0.0
H580 H 0.43644 0.50139 0.23675 0.0
H581 H 0.44287 0.47836 0.58224 0.0
H582 H 0.42013 0.47725 0.50841 0.0
H583 H 0.45382 0.50887 0.39913 0.0
H584 H 0.47693 0.5095 0.47227 0.0
H585 H 0.43831 0.48443 0.33862 0.0
H586 H 0.41729 0.52701 0.47263 0.0
H587 H 0.40905 0.53859 0.5666 0.0
H588 H 0.36863 0.49815 0.58238 0.0
H589 H 0.3768 0.48616 0.4888 0.0
C590 C 0.36448 0.50073 0.19191 0.0
C591 C 0.34952 0.48981 0.20268 0.0
C592 C 0.379 0.50099 0.22947 0.0
C593 C 0.37875 0.49048 0.27877 0.0
C594 C 0.36394 0.47947 0.28921 0.0
C595 C 0.34956 0.47905 0.25153 0.0
C596 C 0.39353 0.4914 0.32088 0.0
C597 C 0.38949 0.49697 0.37606 0.0
C598 C 0.41141 0.48711 0.30707 0.0
C599 C 0.41649 0.48081 0.2499 0.0
C600 C 0.40819 0.46574 0.22605 0.0
C601 C 0.413 0.45995 0.172 0.0
C602 C 0.42618 0.46904 0.14153 0.0
C603 C 0.43462 0.48392 0.16513 0.0
C604 C 0.42985 0.48978 0.21916 0.0
C605 C 0.44549 0.48505 0.54246 0.0
C606 C 0.46171 0.49411 0.53339 0.0
C607 C 0.4324 0.48449 0.50026 0.0
C608 C 0.43503 0.49329 0.44835 0.0
C609 C 0.45139 0.50202 0.43874 0.0
C610 C 0.4646 0.50239 0.48072 0.0
C611 C 0.42064 0.49352 0.40454 0.0
C612 C 0.42472 0.48825 0.34898 0.0
C613 C 0.4028 0.49836 0.41772 0.0
C614 C 0.39777 0.50558 0.47391 0.0
C615 C 0.40673 0.52051 0.49631 0.0
C616 C 0.40206 0.52715 0.54948 0.0
C617 C 0.38836 0.51908 0.5805 0.0
C618 C 0.37926 0.50437 0.55833 0.0
C619 C 0.38389 0.49765 0.5052 0.0
H620 H 0.38476 0.52425 0.62166 0.0
H621 H 0.42988 0.46453 0.09969 0.0
H622 H 0.00721 0.36583 0.1599 0.0
H623 H 0.0062 0.39216 0.22132 0.0
H624 H 0.02218 0.35974 0.36328 0.0
H625 H 0.02271 0.33341 0.30289 0.0
H626 H 0.99448 0.38048 0.39084 0.0
H627 H 0.05131 0.38902 0.29824 0.0
H628 H 0.07147 0.39238 0.21643 0.0
H629 H 0.04217 0.43853 0.16167 0.0
H630 H 0.02168 0.43531 0.2428 0.0
H631 H 0.0157 0.44623 0.59295 0.0
H632 H 0.01782 0.42196 0.5244 0.0
H633 H 1.00197 0.45793 0.3911 0.0
H634 H 1.00008 0.48239 0.45934 0.0
H635 H 0.02842 0.43634 0.35561 0.0
H636 H 0.97222 0.42875 0.44837 0.0
H637 H 0.95191 0.4259 0.53 0.0
H638 H 0.97909 0.37824 0.5826 0.0
H639 H 0.99983 0.38099 0.50194 0.0
C640 C 0.01055 0.36431 0.20416 0.0
C641 C 0.01515 0.34745 0.22618 0.0
C642 C 0.01009 0.37942 0.2392 0.0
C643 C 0.01422 0.378 0.29701 0.0
C644 C 0.01896 0.36123 0.31888 0.0
C645 C 0.01946 0.34618 0.28399 0.0
C646 C 0.01309 0.39376 0.33542 0.0
C647 C 1.00209 0.3926 0.38343 0.0
C648 C 0.02253 0.40985 0.325 0.0
C649 C 0.03485 0.4118 0.27625 0.0
C650 C 0.04907 0.39979 0.26849 0.0
C651 C 0.06058 0.40169 0.2223 0.0
C652 C 0.05807 0.41563 0.18378 0.0
C653 C 0.04408 0.42773 0.19148 0.0
C654 C 0.03253 0.42588 0.23758 0.0
C655 C 0.01274 0.44904 0.54904 0.0
C656 C 0.00763 0.46629 0.53183 0.0
C657 C 0.01389 0.4351 0.50984 0.0
C658 C 0.0098 0.43801 0.45259 0.0
C659 C 0.00515 0.45531 0.435 0.0
C660 C 0.00403 0.46929 0.47418 0.0
C661 C 0.01006 0.42291 0.41149 0.0
C662 C 0.0208 0.42422 0.36293 0.0
C663 C 1.00028 0.40698 0.42114 0.0
C664 C 0.98769 0.40517 0.46935 0.0
C665 C 0.97396 0.41773 0.47755 0.0
C666 C 0.96235 0.41613 0.52362 0.0
C667 C 0.96422 0.40191 0.56146 0.0
C668 C 0.97768 0.38925 0.55327 0.0
C669 C 0.98936 0.39083 0.50738 0.0
H670 H 0.95522 0.4007 0.5971 0.0
H671 H 0.067 0.41708 0.14805 0.0
H672 H 0.83585 0.98843 0.05041 0.0
H673 H 0.86094 0.98773 0.9849 0.0
H674 H 0.89771 0.98669 0.12524 0.0
H675 H 0.87241 0.98804 0.19135 0.0
H676 H 0.9106 0.00784 0.05072 0.0
H677 H 0.88856 0.94863 0.03816 0.0
H678 H 0.8664 0.9245 0.02722 0.0
H679 H 0.85402 0.9431 0.86005 0.0
H680 H 0.87594 0.9675 0.87025 0.0
H681 H 0.982 0.98481 0.85339 0.0
H682 H 0.95985 0.98147 0.92967 0.0
H683 H 0.91864 1.00101 0.81859 0.0
H684 H 0.94065 0.00487 0.74306 0.0
H685 H 0.91054 0.96771 0.88406 0.0
H686 H 0.93222 0.02865 0.90507 0.0
H687 H 0.95587 0.05119 0.91864 0.0
H688 H 0.97096 0.02627 0.07503 0.0
H689 H 0.94755 0.0034 0.06189 0.0
C690 C 0.84926 0.98777 0.06748 0.0
C691 C 0.85208 0.98803 0.12626 0.0
C692 C 0.86367 0.98734 0.02982 0.0
C693 C 0.88137 0.98673 0.0497 0.0
C694 C 0.88425 0.98706 0.10852 0.0
C695 C 0.86977 0.98778 0.14636 0.0
C696 C 0.8967 0.98636 0.00882 0.0
C697 C 0.91069 0.99879 0.01498 0.0
C698 C 0.897 0.97467 0.96162 0.0
C699 C 0.88381 0.95999 0.95516 0.0
C700 C 0.88103 0.94765 0.9992 0.0
C701 C 0.86852 0.93391 0.99311 0.0
C702 C 0.85878 0.93229 0.94302 0.0
C703 C 0.86157 0.94438 0.89885 0.0
C704 C 0.87405 0.95816 0.90473 0.0
C705 C 0.96821 0.98834 0.84524 0.0
C706 C 0.96311 0.99515 0.79216 0.0
C707 C 0.95559 0.98646 0.88887 0.0
C708 C 0.93759 0.991 0.87982 0.0
C709 C 0.93244 0.99741 0.82653 0.0
C710 C 0.94507 0.99967 0.78344 0.0
C711 C 0.92404 0.98934 0.92575 0.0
C712 C 0.91045 0.97654 0.92037 0.0
C713 C 0.92431 1.00041 0.97414 0.0
C714 C 0.9383 0.01419 0.98214 0.0
C715 C 0.9407 0.02787 0.94206 0.0
C716 C 0.95404 0.04073 0.94973 0.0
C717 C 0.96496 0.04012 0.99757 0.0
C718 C 0.96252 0.02669 0.03793 0.0
C719 C 0.94922 0.01379 0.0304 0.0
H720 H 0.97527 0.05009 0.00345 0.0
H721 H 0.84911 0.92164 0.93839 0.0
H722 H 0.50208 0.83336 0.05742 0.0
H723 H 0.50181 0.85827 0.99063 0.0
H724 H 0.51933 0.89396 0.12221 0.0
H725 H 0.51976 0.86891 0.18969 0.0
H726 H 0.49018 0.90734 0.04898 0.0
H727 H 0.54918 0.88201 0.037 0.0
H728 H 0.57084 0.85745 0.02634 0.0
H729 H 0.54927 0.84517 0.86281 0.0
H730 H 0.52729 0.8695 0.87288 0.0
H731 H 0.50991 0.97854 0.85939 0.0
H732 H 0.51152 0.95619 0.93464 0.0
H733 H 0.50888 0.91416 0.81032 0.0
H734 H 0.50799 0.93644 0.7349 0.0
H735 H 0.5316 0.90491 0.88531 0.0
H736 H 0.47192 0.92787 0.89562 0.0
H737 H 0.44865 0.95102 0.90384 0.0
H738 H 0.46915 0.96622 0.06627 0.0
H739 H 0.49271 0.94332 0.05866 0.0
C740 C 0.5056 0.84655 0.07253 0.0
C741 C 0.51084 0.84916 0.12907 0.0
C742 C 0.50556 0.86076 0.03413 0.0
C743 C 0.51062 0.87796 0.05132 0.0
C744 C 0.51538 0.88078 0.10807 0.0
C745 C 0.51567 0.86647 0.14648 0.0
C746 C 0.51147 0.89273 0.0092 0.0
C747 C 0.49943 0.90701 0.01366 0.0
C748 C 0.52318 0.89202 0.96228 0.0
C749 C 0.53649 0.87747 0.95593 0.0
C750 C 0.54896 0.87398 0.99897 0.0
C751 C 0.56131 0.86011 0.993 0.0
C752 C 0.56141 0.84973 0.94398 0.0
C753 C 0.54917 0.85322 0.90078 0.0
C754 C 0.53677 0.86705 0.90657 0.0
C755 C 0.50972 0.96453 0.84805 0.0
C756 C 0.50875 0.95931 0.79102 0.0
C757 C 0.51053 0.95173 0.89124 0.0
C758 C 0.50998 0.93339 0.87856 0.0
C759 C 0.50931 0.92818 0.82151 0.0
C760 C 0.50877 0.94097 0.77828 0.0
C761 C 0.51013 0.91959 0.92439 0.0
C762 C 0.52238 0.90541 0.92068 0.0
C763 C 0.49839 0.92027 0.97149 0.0
C764 C 0.4842 0.93401 0.97629 0.0
C765 C 0.47155 0.93624 0.93291 0.0
C766 C 0.45829 0.9493 0.93748 0.0
C767 C 0.45745 0.96012 0.98548 0.0
C768 C 0.46984 0.95786 0.02908 0.0
C769 C 0.48314 0.94483 0.02467 0.0
H770 H 0.44718 0.97022 0.98895 0.0
H771 H 0.57098 0.839 0.93944 0.0
H772 H 0.63583 0.54187 0.15296 0.0
H773 H 0.61075 0.54201 0.08576 0.0
H774 H 0.62272 0.48763 0.04001 0.0
H775 H 0.64758 0.48735 0.10673 0.0
H776 H 0.61968 0.51134 0.94689 0.0
H777 H 0.58752 0.49527 0.11754 0.0
H778 H 0.57734 0.49991 0.21555 0.0
H779 H 0.55259 0.54933 0.16717 0.0
H780 H 0.56285 0.5451 0.06896 0.0
H781 H 0.54925 0.48139 0.77957 0.0
H782 H 0.57102 0.48557 0.85483 0.0
H783 H 0.54563 0.53509 0.90173 0.0
H784 H 0.52327 0.53065 0.82716 0.0
H785 H 0.55543 0.51794 0.99412 0.0
H786 H 0.58527 0.53445 0.82512 0.0
H787 H 0.59553 0.53162 0.72651 0.0
H788 H 0.62526 0.48457 0.77014 0.0
H789 H 0.61497 0.48696 0.8689 0.0
C790 C 0.63295 0.52989 0.12904 0.0
C791 C 0.64364 0.51455 0.13564 0.0
C792 C 0.61861 0.52998 0.09076 0.0
C793 C 0.61485 0.51482 0.05783 0.0
C794 C 0.62534 0.49946 0.06497 0.0
C795 C 0.63947 0.49928 0.10362 0.0
C796 C 0.6006 0.51502 0.01389 0.0
C797 C 0.60561 0.51262 0.95725 0.0
C798 C 0.58231 0.51745 0.02708 0.0
C799 C 0.57615 0.51998 0.08607 0.0
C800 C 0.58006 0.50722 0.12791 0.0
C801 C 0.57424 0.50975 0.18348 0.0
C802 C 0.56437 0.52494 0.19763 0.0
C803 C 0.56027 0.53759 0.15618 0.0
C804 C 0.56607 0.53513 0.10056 0.0
C805 C 0.54823 0.49319 0.80584 0.0
C806 C 0.53458 0.50576 0.79688 0.0
C807 C 0.56079 0.49561 0.84885 0.0
C808 C 0.5603 0.51086 0.8834 0.0
C809 C 0.5464 0.52326 0.87556 0.0
C810 C 0.53364 0.52072 0.83279 0.0
C811 C 0.57446 0.51373 0.92704 0.0
C812 C 0.56948 0.5168 0.98353 0.0
C813 C 0.59287 0.51225 0.91366 0.0
C814 C 0.59923 0.51081 0.85437 0.0
C815 C 0.5939 0.52343 0.81363 0.0
C816 C 0.59973 0.52191 0.7577 0.0
C817 C 0.61101 0.5079 0.74204 0.0
C818 C 0.61651 0.49541 0.78233 0.0
C819 C 0.6107 0.49685 0.83831 0.0
H820 H 0.6155 0.50675 0.69872 0.0
H821 H 0.55987 0.52687 0.24066 0.0
H822 H 0.01519 0.65292 0.09594 0.0
H823 H 0.01297 0.62906 0.02623 0.0
H824 H 0.95773 0.62081 0.07091 0.0
H825 H 0.95985 0.64488 0.14141 0.0
H826 H 0.97918 0.58804 0.05545 0.0
H827 H 0.96397 0.64228 0.95844 0.0
H828 H 0.96822 0.6737 0.93017 0.0
H829 H 0.01833 0.66036 0.85256 0.0
H830 H 0.01451 0.62889 0.88116 0.0
H831 H 0.96646 0.53299 0.80985 0.0
H832 H 0.96269 0.55524 0.88486 0.0
H833 H 0.01267 0.57976 0.83701 0.0
H834 H 0.01619 0.55805 0.76132 0.0
H835 H 0.9898 0.60463 0.85513 0.0
H836 H 0.00716 0.55174 0.95744 0.0
H837 H 0.00471 0.52035 0.98816 0.0
H838 H 0.9527 0.53078 0.05737 0.0
H839 H 0.95476 0.5622 0.02639 0.0
C840 C 1.00262 0.64586 0.09184 0.0
C841 C 0.98772 0.65077 0.12461 0.0
C842 C 1.00135 0.63229 0.0516 0.0
C843 C 0.98517 0.62321 0.04313 0.0
C844 C 0.97035 0.62765 0.07679 0.0
C845 C 0.97156 0.64144 0.11682 0.0
C846 C 0.98378 0.60967 0.99732 0.0
C847 C 0.98116 0.59165 0.01147 0.0
C848 C 0.98675 0.61436 0.94013 0.0
C849 C 0.98901 0.63325 0.92234 0.0
C850 C 0.97596 0.64607 0.93573 0.0
C851 C 0.97828 0.66389 0.91958 0.0
C852 C 0.99355 0.66903 0.88969 0.0
C853 C 0.00651 0.65636 0.87575 0.0
C854 C 0.00426 0.63852 0.89187 0.0
C855 C 0.97663 0.54313 0.81537 0.0
C856 C 0.99162 0.54372 0.77943 0.0
C857 C 0.97451 0.55582 0.85852 0.0
C858 C 0.98748 0.56916 0.86724 0.0
C859 C 1.00242 0.5697 0.83127 0.0
C860 C 0.00444 0.5572 0.78792 0.0
C861 C 0.9856 0.58277 0.91306 0.0
C862 C 0.98761 0.60091 0.89892 0.0
C863 C 0.98227 0.57812 0.97028 0.0
C864 C 0.98103 0.55926 0.98901 0.0
C865 C 0.99515 0.5473 0.97882 0.0
C866 C 0.99384 0.52951 0.99634 0.0
C867 C 0.97853 0.52356 0.02454 0.0
C868 C 0.96453 0.5354 0.03542 0.0
C869 C 0.96577 0.5532 0.01792 0.0
H870 H 0.97754 0.50978 0.03808 0.0
H871 H 0.99533 0.68283 0.87723 0.0
H872 H 0.94354 0.19575 0.30374 0.0
H873 H 0.93261 0.1773 0.38151 0.0
H874 H 0.9569 0.21319 0.50166 0.0
H875 H 0.9678 0.23191 0.42316 0.0
H876 H 0.96682 0.17801 0.51684 0.0
H877 H 0.91293 0.20964 0.50744 0.0
H878 H 0.88746 0.22509 0.46319 0.0
H879 H 0.87001 0.1758 0.38886 0.0
H880 H 0.89552 0.16008 0.43188 0.0
H881 H 0.9463 0.09572 0.64503 0.0
H882 H 0.94436 0.12821 0.64092 0.0
H883 H 0.91675 0.12441 0.48115 0.0
H884 H 0.9169 0.09215 0.48806 0.0
H885 H 0.90582 0.15237 0.52914 0.0
H886 H 0.96756 0.12645 0.50728 0.0
H887 H 0.9943 0.11165 0.54666 0.0
H888 H 0.99721 0.1511 0.6779 0.0
H889 H 0.97039 0.166 0.63958 0.0
C890 C 0.94627 0.19986 0.34678 0.0
C891 C 0.95653 0.21514 0.35769 0.0
C892 C 0.9399 0.18942 0.39119 0.0
C893 C 0.94377 0.194 0.4474 0.0
C894 C 0.95363 0.20956 0.45859 0.0
C895 C 0.95981 0.2202 0.41392 0.0
C896 C 0.93926 0.18112 0.49274 0.0
C897 C 0.95338 0.1727 0.52104 0.0
C898 C 0.92173 0.17436 0.49873 0.0
C899 C 0.90617 0.18366 0.47309 0.0
C900 C 0.90371 0.20209 0.48148 0.0
C901 C 0.88925 0.21091 0.4566 0.0
C902 C 0.87712 0.20143 0.42327 0.0
C903 C 0.8794 0.18312 0.41481 0.0
C904 C 0.89384 0.17423 0.43958 0.0
C905 C 0.93919 0.10176 0.61007 0.0
C906 C 0.93215 0.09123 0.566 0.0
C907 C 0.93834 0.12043 0.6074 0.0
C908 C 0.93102 0.12887 0.55968 0.0
C909 C 0.92268 0.11834 0.51824 0.0
C910 C 0.92305 0.09978 0.5217 0.0
C911 C 0.93367 0.14824 0.5481 0.0
C912 C 0.91914 0.15805 0.52683 0.0
C913 C 0.95088 0.15623 0.54817 0.0
C914 C 0.96689 0.14717 0.57104 0.0
C915 C 0.97388 0.1319 0.54465 0.0
C916 C 0.98904 0.12351 0.56676 0.0
C917 C 0.99743 0.13044 0.61473 0.0
C918 C 0.99069 0.14576 0.64075 0.0
C919 C 0.97551 0.15416 0.6189 0.0
H920 H 0.00916 0.12395 0.63174 0.0
H921 H 0.86594 0.20829 0.40401 0.0
H922 H 0.27933 0.01363 0.37488 0.0
H923 H 0.30634 1.00289 0.41916 0.0
H924 H 0.33274 0.05262 0.38169 0.0
H925 H 0.30515 0.06438 0.34128 0.0
H926 H 0.33955 0.01434 0.31709 0.0
H927 H 0.33935 0.04769 0.48998 0.0
H928 H 0.32905 0.05844 0.58274 0.0
H929 H 0.32961 0.00482 0.6471 0.0
H930 H 0.33939 0.99365 0.55419 0.0
H931 H 0.42938 0.98988 0.362 0.0
H932 H 0.40007 0.00323 0.34916 0.0
H933 H 0.37824 0.96795 0.47621 0.0
H934 H 0.40787 0.9556 0.49272 0.0
H935 H 0.36843 0.99924 0.49912 0.0
H936 H 0.36739 0.96548 0.32962 0.0
H937 H 0.3782 0.95353 0.2388 0.0
H938 H 0.37992 0.00653 0.16954 0.0
H939 H 0.36936 0.01885 0.26022 0.0
C940 C 0.29037 0.02288 0.3788 0.0
C941 C 0.29007 0.03978 0.35237 0.0
C942 C 0.30592 0.01658 0.40428 0.0
C943 C 0.32148 0.02691 0.40316 0.0
C944 C 0.32076 0.04449 0.38299 0.0
C945 C 0.30503 0.05104 0.35897 0.0
C946 C 0.33879 0.01773 0.40742 0.0
C947 C 0.34618 0.01136 0.3568 0.0
C948 C 0.34673 0.0132 0.45954 0.0
C949 C 0.33973 0.01977 0.51447 0.0
C950 C 0.33682 0.03811 0.52334 0.0
C951 C 0.33117 0.0443 0.57614 0.0
C952 C 0.32855 0.03231 0.62068 0.0
C953 C 0.33152 0.01409 0.61246 0.0
C954 C 0.33709 0.00782 0.55968 0.0
C955 C 0.41831 0.98483 0.38686 0.0
C956 C 0.42105 0.97183 0.4289 0.0
C957 C 0.40147 0.99233 0.37897 0.0
C958 C 0.38689 0.98657 0.4116 0.0
C959 C 0.38931 0.97267 0.45069 0.0
C960 C 0.40625 0.96541 0.45947 0.0
C961 C 0.36962 0.99619 0.40871 0.0
C962 C 0.36204 1.00242 0.45936 0.0
C963 C 0.36136 1.00046 0.35668 0.0
C964 C 0.36773 0.99311 0.30198 0.0
C965 C 0.37021 0.97461 0.29519 0.0
C966 C 0.37627 0.96777 0.24369 0.0
C967 C 0.3798 0.97927 0.19849 0.0
C968 C 0.37721 0.99764 0.20463 0.0
C969 C 0.37116 0.00456 0.25605 0.0
H970 H 0.3845 0.97394 0.15868 0.0
H971 H 0.32433 0.03714 0.66166 0.0
H972 H 0.51521 0.2969 0.35303 0.0
H973 H 0.52567 0.31918 0.42012 0.0
H974 H 0.57517 0.29016 0.43999 0.0
H975 H 0.56499 0.26837 0.36941 0.0
H976 H 0.53504 0.32262 0.52124 0.0
H977 H 0.60892 0.31932 0.46244 0.0
H978 H 0.62855 0.30866 0.38561 0.0
H979 H 0.58648 0.31711 0.26517 0.0
H980 H 0.56671 0.32799 0.3412 0.0
H981 H 0.56121 0.40667 0.62546 0.0
H982 H 0.56345 0.37435 0.61547 0.0
H983 H 0.57582 0.38098 0.43828 0.0
H984 H 0.5759 0.41302 0.44967 0.0
H985 H 0.59084 0.35381 0.46613 0.0
H986 H 0.53003 0.37534 0.50774 0.0
H987 H 0.50562 0.3877 0.56604 0.0
H988 H 0.51479 0.34742 0.69202 0.0
H989 H 0.53951 0.33509 0.63508 0.0
C990 C 0.5282 0.29515 0.37245 0.0
C991 C 0.53939 0.2811 0.35598 0.0
C992 C 0.53418 0.30783 0.41105 0.0
C993 C 0.55135 0.30655 0.43469 0.0
C994 C 0.56204 0.29169 0.42142 0.0
C995 C 0.55623 0.27923 0.38141 0.0
C996 C 0.55837 0.32183 0.46803 0.0
C997 C 0.54735 0.32937 0.50965 0.0
C998 C 0.57452 0.33059 0.45352 0.0
C999 C 0.58631 0.32419 0.40754 0.0
C1000 C 0.6039 0.3189 0.41953 0.0
C1001 C 0.61504 0.31284 0.37615 0.0
C1002 C 0.60874 0.31213 0.32059 0.0
C1003 C 0.59132 0.31759 0.30824 0.0
C1004 C 0.58015 0.3237 0.35143 0.0
C1005 C 0.5651 0.40128 0.58485 0.0
C1006 C 0.56789 0.41257 0.5379 0.0
C1007 C 0.56606 0.3827 0.57898 0.0
C1008 C 0.56912 0.37506 0.52564 0.0
C1009 C 0.57324 0.38636 0.47997 0.0
C1010 C 0.57295 0.40483 0.48626 0.0
C1011 C 0.56651 0.35564 0.51477 0.0
C1012 C 0.57868 0.34697 0.47878 0.0
C1013 C 0.55086 0.34636 0.53189 0.0
C1014 C 0.53678 0.35449 0.56762 0.0
C1015 C 0.527 0.3693 0.54826 0.0
C1016 C 0.5131 0.37627 0.581 0.0
C1017 C 0.50869 0.36835 0.63268 0.0
C1018 C 0.51827 0.35357 0.65207 0.0
C1019 C 0.53227 0.34663 0.61971 0.0
H1020 H 0.49778 0.3736 0.65755 0.0
H1021 H 0.61737 0.30741 0.28709 0.0
H1022 H 0.19094 0.49709 0.35409 0.0
H1023 H 0.17175 0.50666 0.43048 0.0
H1024 H 0.21773 0.52309 0.52726 0.0
H1025 H 0.2374 0.51298 0.45054 0.0
H1026 H 0.16785 0.49862 0.54168 0.0
H1027 H 0.20288 0.56276 0.59438 0.0
H1028 H 0.22645 0.58287 0.55814 0.0
H1029 H 0.21202 0.56958 0.38763 0.0
H1030 H 0.18827 0.54956 0.42297 0.0
H1031 H 0.0937 0.54286 0.65223 0.0
H1032 H 0.12559 0.53591 0.65807 0.0
H1033 H 0.13409 0.56202 0.49758 0.0
H1034 H 0.10228 0.56911 0.49225 0.0
H1035 H 0.16351 0.56446 0.55932 0.0
H1036 H 0.11954 0.51754 0.5133 0.0
H1037 H 0.09564 0.49553 0.53131 0.0
H1038 H 0.12618 0.47302 0.66746 0.0
H1039 H 0.15018 0.4949 0.65039 0.0
C1040 C 0.19714 0.50215 0.39217 0.0
C1041 C 0.21577 0.50421 0.39602 0.0
C1042 C 0.18609 0.5077 0.43593 0.0
C1043 C 0.19331 0.51559 0.48454 0.0
C1044 C 0.21192 0.51707 0.48996 0.0
C1045 C 0.22309 0.51139 0.44596 0.0
C1046 C 0.18082 0.52374 0.52553 0.0
C1047 C 0.16712 0.51299 0.54728 0.0
C1048 C 0.17999 0.54244 0.53311 0.0
C1049 C 0.19403 0.55453 0.51131 0.0
C1050 C 0.20476 0.56416 0.54919 0.0
C1051 C 0.21813 0.57554 0.52881 0.0
C1052 C 0.22078 0.57745 0.47062 0.0
C1053 C 0.21 0.56804 0.43268 0.0
C1054 C 0.1966 0.55668 0.45285 0.0
C1055 C 0.10262 0.54778 0.61964 0.0
C1056 C 0.09574 0.55642 0.57168 0.0
C1057 C 0.12079 0.54377 0.62293 0.0
C1058 C 0.13219 0.54812 0.57786 0.0
C1059 C 0.12557 0.55852 0.53295 0.0
C1060 C 0.10741 0.56262 0.52983 0.0
C1061 C 0.14983 0.53939 0.57135 0.0
C1062 C 0.16461 0.55003 0.55689 0.0
C1063 C 0.15144 0.52052 0.56897 0.0
C1064 C 0.13645 0.50816 0.58151 0.0
C1065 C 0.12102 0.50807 0.54764 0.0
C1066 C 0.10751 0.49552 0.55739 0.0
C1067 C 0.10939 0.48286 0.60042 0.0
C1068 C 0.12471 0.48282 0.63413 0.0
C1069 C 0.13824 0.49533 0.62456 0.0
H1070 H 0.09892 0.47315 0.60785 0.0
H1071 H 0.23114 0.58624 0.45494 0.0
H1072 H 0.02986 0.78708 0.98572 0.0
H1073 H 0.03943 0.81177 0.92684 0.0
H1074 H 0.09378 0.80469 0.98377 0.0
H1075 H 0.08402 0.77995 0.04458 0.0
H1076 H 0.08532 0.83721 0.99675 0.0
H1077 H 0.08143 0.79964 0.83934 0.0
H1078 H 0.06975 0.77657 0.77497 0.0
H1079 H 0.02347 0.80873 0.74172 0.0
H1080 H 0.03466 0.83187 0.80659 0.0
H1081 H 0.08846 0.9198 0.82695 0.0
H1082 H 0.09566 0.88886 0.85308 0.0
H1083 H 0.03993 0.87862 0.88622 0.0
H1084 H 0.0327 0.90948 0.86263 0.0
H1085 H 0.06006 0.85298 0.80947 0.0
H1086 H 0.06227 0.88481 0.9928 0.0
H1087 H 0.07506 0.90772 0.05578 0.0
H1088 H 0.12734 0.88521 0.03317 0.0
H1089 H 0.11484 0.8623 0.96942 0.0
C1090 C 0.04397 0.79033 0.98435 0.0
C1091 C 0.0562 0.78156 0.01973 0.0
C1092 C 0.04948 0.80447 0.95031 0.0
C1093 C 0.06741 0.80999 0.95002 0.0
C1094 C 0.07988 0.80063 0.9831 0.0
C1095 C 0.07431 0.78655 0.01784 0.0
C1096 C 0.07222 0.82708 0.92198 0.0
C1097 C 0.08032 0.84043 0.95494 0.0
C1098 C 0.06583 0.83141 0.86728 0.0
C1099 C 0.05892 0.81752 0.82805 0.0
C1100 C 0.0687 0.80176 0.81862 0.0
C1101 C 0.06216 0.78867 0.78198 0.0
C1102 C 0.04588 0.79118 0.75429 0.0
C1103 C 0.03609 0.80681 0.76315 0.0
C1104 C 0.04256 0.81994 0.79978 0.0
C1105 C 0.07779 0.91101 0.8406 0.0
C1106 C 0.05998 0.91703 0.84232 0.0
C1107 C 0.08192 0.89336 0.85495 0.0
C1108 C 0.06827 0.88154 0.8707 0.0
C1109 C 0.05058 0.88757 0.87336 0.0
C1110 C 0.04648 0.90518 0.8598 0.0
C1111 C 0.07209 0.86285 0.88574 0.0
C1112 C 0.06567 0.84936 0.85018 0.0
C1113 C 0.08026 0.8583 0.93746 0.0
C1114 C 0.08769 0.87203 0.97579 0.0
C1115 C 0.07652 0.88487 1.00082 0.0
C1116 C 0.0837 0.89782 0.03675 0.0
C1117 C 0.10201 0.89796 0.0483 0.0
C1118 C 0.11316 0.88511 0.02407 0.0
C1119 C 0.10604 0.87215 0.98806 0.0
H1120 H 0.10755 0.908 0.07615 0.0
H1121 H 0.04084 0.78103 0.72594 0.0
H1122 H 0.71582 0.02959 0.99895 0.0
H1123 H 0.69086 0.03788 0.93935 0.0
H1124 H 0.70024 0.09357 0.97595 0.0
H1125 H 0.72532 0.08519 0.03733 0.0
H1126 H 0.66712 0.08622 0.9934 0.0
H1127 H 0.70504 0.07593 0.83773 0.0
H1128 H 0.72756 0.06094 0.77839 0.0
H1129 H 0.69301 0.01548 0.76071 0.0
H1130 H 0.67042 0.03001 0.82073 0.0
H1131 H 0.5842 0.0874 0.82688 0.0
H1132 H 0.61523 0.09461 0.85208 0.0
H1133 H 0.62518 0.03904 0.88797 0.0
H1134 H 0.59433 0.03184 0.866 0.0
H1135 H 0.65084 0.05659 0.8133 0.0
H1136 H 0.61863 0.06425 0.99318 0.0
H1137 H 0.59609 0.07891 0.05341 0.0
H1138 H 0.62052 0.12987 0.02178 0.0
H1139 H 0.64308 0.1155 0.96073 0.0
C1140 C 0.71299 0.04366 0.99297 0.0
C1141 C 0.7226 0.05675 0.02261 0.0
C1142 C 0.6987 0.04841 0.95858 0.0
C1143 C 0.69382 0.0664 0.95218 0.0
C1144 C 0.70384 0.07962 0.97995 0.0
C1145 C 0.71811 0.07483 0.01502 0.0
C1146 C 0.67689 0.07081 0.92277 0.0
C1147 C 0.66378 0.08024 0.95303 0.0
C1148 C 0.67242 0.063 0.87013 0.0
C1149 C 0.68601 0.05411 0.83393 0.0
C1150 C 0.70228 0.06269 0.82152 0.0
C1151 C 0.71506 0.05427 0.78771 0.0
C1152 C 0.71172 0.03727 0.76581 0.0
C1153 C 0.69558 0.02866 0.77765 0.0
C1154 C 0.68276 0.037 0.8115 0.0
C1155 C 0.59294 0.07678 0.84095 0.0
C1156 C 0.58681 0.05901 0.84376 0.0
C1157 C 0.61065 0.08091 0.85478 0.0
C1158 C 0.62243 0.06729 0.87104 0.0
C1159 C 0.6163 0.04966 0.87462 0.0
C1160 C 0.59866 0.04558 0.86176 0.0
C1161 C 0.64121 0.07101 0.8856 0.0
C1162 C 0.65456 0.06316 0.85241 0.0
C1163 C 0.64592 0.08028 0.93527 0.0
C1164 C 0.63235 0.08886 0.97178 0.0
C1165 C 0.61907 0.0786 0.99861 0.0
C1166 C 0.60632 0.08685 0.033 0.0
C1167 C 0.60682 0.10532 0.04123 0.0
C1168 C 0.62011 0.11557 0.01523 0.0
C1169 C 0.63288 0.10739 0.98074 0.0
H1170 H 0.59695 0.11168 0.0679 0.0
H1171 H 0.72163 0.03078 0.73963 0.0
H1172 H 0.52565 0.71973 0.92918 0.0
H1173 H 0.51252 0.69365 0.88275 0.0
H1174 H 0.53232 0.65983 0.01632 0.0
H1175 H 0.54485 0.68561 0.06381 0.0
H1176 H 0.53156 0.64278 0.91034 0.0
H1177 H 0.49347 0.67891 0.03351 0.0
H1178 H 0.47935 0.70736 0.06099 0.0
H1179 H 0.45324 0.7103 0.89967 0.0
H1180 H 0.46751 0.68201 0.87088 0.0
H1181 H 0.47592 0.57248 0.96465 0.0
H1182 H 0.48868 0.60203 0.98101 0.0
H1183 H 0.46144 0.62224 0.83377 0.0
H1184 H 0.44883 0.59259 0.81648 0.0
H1185 H 0.46551 0.6476 0.92644 0.0
H1186 H 0.50069 0.60994 0.80657 0.0
H1187 H 0.51396 0.58101 0.77974 0.0
H1188 H 0.54514 0.58097 0.93208 0.0
H1189 H 0.53176 0.60977 0.96011 0.0
C1190 C 0.52757 0.70668 0.94799 0.0
C1191 C 0.53595 0.70487 1.00095 0.0
C1192 C 0.52015 0.69181 0.92121 0.0
C1193 C 0.52118 0.67494 0.94684 0.0
C1194 C 0.53137 0.67277 0.99599 0.0
C1195 C 0.53863 0.68761 0.02301 0.0
C1196 C 0.50942 0.6602 0.92872 0.0
C1197 C 0.51714 0.64386 0.91349 0.0
C1198 C 0.49057 0.66172 0.93208 0.0
C1199 C 0.48171 0.67849 0.94982 0.0
C1200 C 0.48481 0.6857 0.00379 0.0
C1201 C 0.47678 0.70178 0.0196 0.0
C1202 C 0.46544 0.71066 0.98204 0.0
C1203 C 0.46206 0.70343 0.92866 0.0
C1204 C 0.47013 0.68738 0.91256 0.0
C1205 C 0.47228 0.58331 0.93652 0.0
C1206 C 0.46186 0.58011 0.8882 0.0
C1207 C 0.47955 0.60016 0.94596 0.0
C1208 C 0.4764 0.61406 0.90748 0.0
C1209 C 0.46417 0.61156 0.86344 0.0
C1210 C 0.45691 0.59462 0.85382 0.0
C1211 C 0.48771 0.63018 0.90938 0.0
C1212 C 0.4799 0.64668 0.92174 0.0
C1213 C 0.50647 0.62886 0.90302 0.0
C1214 C 0.51511 0.6119 0.88558 0.0
C1215 C 0.51028 0.60368 0.83443 0.0
C1216 C 0.51783 0.58732 0.81902 0.0
C1217 C 0.53036 0.57913 0.85428 0.0
C1218 C 0.53543 0.58733 0.90484 0.0
C1219 C 0.52788 0.60369 0.92046 0.0
H1220 H 0.53617 0.56645 0.84237 0.0
H1221 H 0.45923 0.72311 0.99434 0.0
H1222 H 0.76225 0.44074 0.94917 0.0
H1223 H 0.78508 0.43254 0.87943 0.0
H1224 H 0.80246 0.48751 0.87209 0.0
H1225 H 0.77939 0.49575 0.93945 0.0
H1226 H 0.80872 0.47282 0.77505 0.0
H1227 H 0.81877 0.45636 0.97299 0.0
H1228 H 0.81129 0.4402 0.06088 0.0
H1229 H 0.81441 0.39022 0.97263 0.0
H1230 H 0.82168 0.40614 0.88403 0.0
H1231 H 0.89951 0.48443 0.81862 0.0
H1232 H 0.86725 0.48086 0.82311 0.0
H1233 H 0.87215 0.42618 0.76841 0.0
H1234 H 0.90468 0.42982 0.76138 0.0
H1235 H 0.85159 0.43186 0.86874 0.0
H1236 H 0.85391 0.45306 0.67925 0.0
H1237 H 0.86374 0.47273 0.60154 0.0
H1238 H 0.83975 0.51778 0.68362 0.0
H1239 H 0.83008 0.49853 0.76251 0.0
C1240 C 0.77063 0.45109 0.93114 0.0
C1241 C 0.76926 0.46882 0.95005 0.0
C1242 C 0.78364 0.44642 0.89143 0.0
C1243 C 0.79578 0.45933 0.87163 0.0
C1244 C 0.79329 0.47729 0.8867 0.0
C1245 C 0.7801 0.482 0.92539 0.0
C1246 C 0.81267 0.45418 0.84329 0.0
C1247 C 0.81806 0.46373 0.79506 0.0
C1248 C 0.82473 0.44199 0.8687 0.0
C1249 C 0.82051 0.43242 0.92189 0.0
C1250 C 0.81777 0.44193 0.97236 0.0
C1251 C 0.81357 0.43282 0.02225 0.0
C1252 C 0.81232 0.4142 0.02229 0.0
C1253 C 0.81533 0.40464 0.97248 0.0
C1254 C 0.81947 0.4137 0.92241 0.0
C1255 C 0.89379 0.47172 0.80637 0.0
C1256 C 0.90471 0.45745 0.78923 0.0
C1257 C 0.87533 0.46972 0.80895 0.0
C1258 C 0.86736 0.45338 0.79497 0.0
C1259 C 0.87812 0.43896 0.77868 0.0
C1260 C 0.89667 0.44101 0.77536 0.0
C1261 C 0.84791 0.45128 0.80265 0.0
C1262 C 0.84205 0.44034 0.84699 0.0
C1263 C 0.83565 0.46265 0.77482 0.0
C1264 C 0.84125 0.47429 0.72696 0.0
C1265 C 0.8508 0.46717 0.68096 0.0
C1266 C 0.85635 0.47825 0.63667 0.0
C1267 C 0.85236 0.49646 0.63768 0.0
C1268 C 0.8428 0.50366 0.68291 0.0
C1269 C 0.83726 0.49266 0.7274 0.0
H1270 H 0.85668 0.505 0.60348 0.0
H1271 H 0.80907 0.40717 0.06096 0.0
H1272 H 0.98818 0.20625 0.83592 0.0
H1273 H 0.98881 0.17791 0.7841 0.0
H1274 H 0.02496 0.15612 0.90824 0.0
H1275 H 0.02475 0.18447 0.95898 0.0
H1276 H 0.03468 0.14498 0.80968 0.0
H1277 H 0.97769 0.14902 0.90557 0.0
H1278 H 0.94837 0.16229 0.92776 0.0
H1279 H 0.93245 0.15684 0.75428 0.0
H1280 H 0.96173 0.14371 0.73101 0.0
H1281 H 0.02168 0.05183 0.7828 0.0
H1282 H 0.02265 0.08288 0.81416 0.0
H1283 H 0.98788 0.09798 0.67689 0.0
H1284 H 0.98674 0.06696 0.64545 0.0
H1285 H 0.97754 0.11383 0.77007 0.0
H1286 H 0.03359 0.10732 0.67615 0.0
H1287 H 0.06272 0.09367 0.65426 0.0
H1288 H 0.08025 0.10305 0.8244 0.0
H1289 H 0.05112 0.11655 0.84757 0.0
C1290 C 0.99637 0.19544 0.85184 0.0
C1291 C 0.00641 0.19765 0.90166 0.0
C1292 C 0.99666 0.1792 0.82232 0.0
C1293 C 0.00667 0.16464 0.84268 0.0
C1294 C 0.01712 0.16706 0.89143 0.0
C1295 C 0.01703 0.18334 0.92043 0.0
C1296 C 0.006 0.14674 0.81466 0.0
C1297 C 0.02216 0.13812 0.80157 0.0
C1298 C 0.98969 0.13789 0.80214 0.0
C1299 C 0.97204 0.1457 0.81632 0.0
C1300 C 0.968 0.15081 0.87206 0.0
C1301 C 0.95137 0.15827 0.88486 0.0
C1302 C 0.93859 0.1605 0.84241 0.0
C1303 C 0.94238 0.15519 0.78709 0.0
C1304 C 0.959 0.14776 0.77406 0.0
C1305 C 0.01433 0.06175 0.75897 0.0
C1306 C 0.00426 0.05683 0.71126 0.0
C1307 C 0.01498 0.07957 0.7768 0.0
C1308 C 0.00566 0.09295 0.74725 0.0
C1309 C 0.99541 0.08803 0.70003 0.0
C1310 C 0.9948 0.07022 0.68203 0.0
C1311 C 0.00622 0.11191 0.76673 0.0
C1312 C 0.99005 0.12074 0.77788 0.0
C1313 C 0.02251 0.12093 0.77761 0.0
C1314 C 0.04009 0.11287 0.76369 0.0
C1315 C 0.0436 0.10639 0.70901 0.0
C1316 C 0.06013 0.09869 0.69636 0.0
C1317 C 0.07332 0.09747 0.73793 0.0
C1318 C 0.07002 0.10399 0.79223 0.0
C1319 C 0.05351 0.1117 0.80513 0.0
H1320 H 0.08611 0.09149 0.72805 0.0
H1321 H 0.92572 0.16627 0.85242 0.0
H1322 H 0.31001 0.98747 0.92963 0.0
H1323 H 0.33863 0.98336 0.88214 0.0
H1324 H 0.33527 0.03667 0.81388 0.0
H1325 H 0.30605 0.04043 0.85782 0.0
H1326 H 0.35045 0.01728 0.73935 0.0
H1327 H 0.36044 0.02522 0.93754 0.0
H1328 H 0.35685 0.01898 0.03931 0.0
H1329 H 0.37747 0.96605 0.0153 0.0
H1330 H 0.38096 0.97188 0.91318 0.0
H1331 H 0.446 0.03125 0.70925 0.0
H1332 H 0.41487 0.03296 0.74199 0.0
H1333 H 0.41356 0.97573 0.7609 0.0
H1334 H 0.44442 0.97386 0.72682 0.0
H1335 H 0.40092 0.99646 0.85817 0.0
H1336 H 0.39332 0.99138 0.6571 0.0
H1337 H 0.39818 1.00023 0.55796 0.0
H1338 H 0.37381 0.05108 0.59029 0.0
H1339 H 0.3693 0.04276 0.69016 0.0
C1340 C 0.31507 0.99821 0.90345 0.0
C1341 C 0.30562 0.01442 0.89857 0.0
C1342 C 0.33168 0.99593 0.87688 0.0
C1343 C 0.33954 0.00989 0.84561 0.0
C1344 C 0.32974 0.02572 0.83823 0.0
C1345 C 0.31301 0.02793 0.86409 0.0
C1346 C 0.35817 0.0083 0.82244 0.0
C1347 C 0.36148 0.0129 0.76565 0.0
C1348 C 0.37272 1.00244 0.85618 0.0
C1349 C 0.37076 0.99892 0.91761 0.0
C1350 C 0.3641 0.0122 0.9539 0.0
C1351 C 0.36209 0.00875 0.01164 0.0
C1352 C 0.36686 0.99211 0.03369 0.0
C1353 C 0.37373 0.97891 0.99811 0.0
C1354 C 0.37574 0.98229 0.9403 0.0
C1355 C 0.43906 0.01903 0.72016 0.0
C1356 C 0.44773 1.00242 0.71528 0.0
C1357 C 0.42125 0.02002 0.73871 0.0
C1358 C 0.41184 0.00446 0.75379 0.0
C1359 C 0.42051 0.9879 0.74942 0.0
C1360 C 0.43816 0.98686 0.72973 0.0
C1361 C 0.39311 0.00545 0.77547 0.0
C1362 C 0.38983 1.00077 0.83199 0.0
C1363 C 0.37872 0.01159 0.74179 0.0
C1364 C 0.38125 0.01654 0.6815 0.0
C1365 C 0.38924 0.00455 0.64337 0.0
C1366 C 0.39193 0.00948 0.587 0.0
C1367 C 0.38641 0.02625 0.56793 0.0
C1368 C 0.37817 0.03813 0.6052 0.0
C1369 C 0.37558 0.03332 0.66174 0.0
H1370 H 0.38839 0.03 0.52417 0.0
H1371 H 0.36523 0.98944 0.07835 0.0
H1372 H 0.51734 0.29655 0.8399 0.0
H1373 H 0.51618 0.3253 0.79047 0.0
H1374 H 0.47516 0.34324 0.9052 0.0
H1375 H 0.47601 0.31445 0.95382 0.0
H1376 H 0.46758 0.35473 0.80426 0.0
H1377 H 0.52111 0.35445 0.91762 0.0
H1378 H 0.55032 0.34315 0.94986 0.0
H1379 H 0.57168 0.34979 0.78264 0.0
H1380 H 0.54255 0.36096 0.74927 0.0
H1381 H 0.47579 0.44887 0.77698 0.0
H1382 H 0.47571 0.41795 0.8102 0.0
H1383 H 0.51446 0.40412 0.68262 0.0
H1384 H 0.51462 0.43501 0.64907 0.0
H1385 H 0.52344 0.38973 0.78188 0.0
H1386 H 0.47033 0.39195 0.67027 0.0
H1387 H 0.44122 0.40359 0.63872 0.0
H1388 H 0.41913 0.3939 0.80348 0.0
H1389 H 0.44821 0.38241 0.83632 0.0
C1390 C 0.508 0.30659 0.85439 0.0
C1391 C 0.4968 0.30315 0.90102 0.0
C1392 C 0.50739 0.32308 0.82618 0.0
C1393 C 0.49583 0.3367 0.8446 0.0
C1394 C 0.48423 0.33305 0.88998 0.0
C1395 C 0.48468 0.31651 0.91775 0.0
C1396 C 0.49603 0.35487 0.81791 0.0
C1397 C 0.47979 0.36242 0.80001 0.0
C1398 C 0.51199 0.36487 0.81064 0.0
C1399 C 0.52955 0.35827 0.83075 0.0
C1400 C 0.53199 0.35335 0.88762 0.0
C1401 C 0.54855 0.347 0.90612 0.0
C1402 C 0.56282 0.34567 0.86827 0.0
C1403 C 0.56059 0.35077 0.81188 0.0
C1404 C 0.54406 0.3571 0.79314 0.0
C1405 C 0.4842 0.43924 0.75561 0.0
C1406 C 0.49512 0.44449 0.71003 0.0
C1407 C 0.48409 0.4215 0.77457 0.0
C1408 C 0.49487 0.40853 0.74849 0.0
C1409 C 0.50587 0.41376 0.7032 0.0
C1410 C 0.5059 0.43147 0.68391 0.0
C1411 C 0.49496 0.38968 0.76943 0.0
C1412 C 0.51125 0.38199 0.786 0.0
C1413 C 0.47905 0.37958 0.77564 0.0
C1414 C 0.46152 0.38643 0.7559 0.0
C1415 C 0.45931 0.3924 0.69993 0.0
C1416 C 0.4428 0.39896 0.68178 0.0
C1417 C 0.42834 0.39952 0.7191 0.0
C1418 C 0.43035 0.39347 0.77463 0.0
C1419 C 0.44684 0.38691 0.79301 0.0
H1420 H 0.41557 0.4046 0.70497 0.0
H1421 H 0.57563 0.34076 0.88268 0.0
H1422 H 0.20404 0.49839 0.83897 0.0
H1423 H 0.17604 0.49752 0.78403 0.0
H1424 H 0.14571 0.4962 0.93894 0.0
H1425 H 0.17342 0.49734 0.99356 0.0
H1426 H 0.13478 0.47037 0.85321 0.0
H1427 H 0.14535 0.53555 0.87491 0.0
H1428 H 0.16481 0.56201 0.86427 0.0
H1429 H 0.17192 0.55013 0.68812 0.0
H1430 H 0.15274 0.52352 0.69823 0.0
H1431 H 0.04536 0.49091 0.79451 0.0
H1432 H 0.07582 0.48964 0.83077 0.0
H1433 H 0.09583 0.50931 0.67148 0.0
H1434 H 0.06536 0.5107 0.63499 0.0
H1435 H 0.11445 0.52364 0.74651 0.0
H1436 H 0.09819 0.46318 0.71697 0.0
H1437 H 0.08014 0.43573 0.7231 0.0
H1438 H 0.08633 0.43522 0.90348 0.0
H1439 H 0.10426 0.46282 0.89853 0.0
C1440 C 0.19138 0.49783 0.8611 0.0
C1441 C 0.1909 0.49806 0.92054 0.0
C1442 C 0.17541 0.49739 0.82977 0.0
C1443 C 0.15877 0.49684 0.85743 0.0
C1444 C 0.15837 0.49662 0.91669 0.0
C1445 C 0.17421 0.49736 0.94784 0.0
C1446 C 0.14163 0.49683 0.82544 0.0
C1447 C 0.13026 0.48199 0.82988 0.0
C1448 C 0.13605 0.5117 0.7932 0.0
C1449 C 0.14752 0.52768 0.78714 0.0
C1450 C 0.15108 0.53862 0.83397 0.0
C1451 C 0.16209 0.55362 0.82808 0.0
C1452 C 0.16956 0.55778 0.77551 0.0
C1453 C 0.16608 0.54694 0.72877 0.0
C1454 C 0.15512 0.53192 0.73455 0.0
C1455 C 0.05624 0.49479 0.76681 0.0
C1456 C 0.05282 0.50068 0.7114 0.0
C1457 C 0.07375 0.49396 0.78761 0.0
C1458 C 0.08839 0.49872 0.75329 0.0
C1459 C 0.08494 0.5051 0.69849 0.0
C1460 C 0.06742 0.50593 0.67761 0.0
C1461 C 0.10717 0.49721 0.77493 0.0
C1462 C 0.11893 0.51178 0.76858 0.0
C1463 C 0.1133 0.48181 0.80415 0.0
C1464 C 0.10253 0.46516 0.80735 0.0
C1465 C 0.09566 0.45728 0.75797 0.0
C1466 C 0.08544 0.44168 0.76124 0.0
C1467 C 0.08207 0.43374 0.81365 0.0
C1468 C 0.08895 0.44138 0.8629 0.0
C1469 C 0.09917 0.45699 0.85988 0.0
H1470 H 0.07415 0.42167 0.8161 0.0
H1471 H 0.17807 0.5694 0.77103 0.0
H1472 H 0.96461 0.80704 0.43879 0.0
H1473 H 0.96443 0.83655 0.48338 0.0
H1474 H 0.02173 0.8396 0.46618 0.0
H1475 H 0.02201 0.81022 0.42191 0.0
H1476 H 0.01245 0.85189 0.56571 0.0
H1477 H 0.99269 0.86193 0.37527 0.0
H1478 H 0.97355 0.85753 0.29162 0.0
H1479 H 0.92762 0.87414 0.38679 0.0
H1480 H 0.94646 0.87841 0.47127 0.0
H1481 H 0.02487 0.94515 0.60648 0.0
H1482 H 0.02386 0.91453 0.57146 0.0
H1483 H 0.96624 0.91546 0.57924 0.0
H1484 H 0.96722 0.9465 0.61126 0.0
H1485 H 0.97485 0.90049 0.4877 0.0
H1486 H 0.99632 0.89165 0.67913 0.0
H1487 H 0.01668 0.89571 0.76019 0.0
H1488 H 0.06074 0.87705 0.66021 0.0
H1489 H 0.04072 0.87301 0.5785 0.0
C1490 C 0.97717 0.81399 0.44449 0.0
C1491 C 0.99332 0.80614 0.42675 0.0
C1492 C 0.97706 0.83091 0.46998 0.0
C1493 C 0.99305 0.84049 0.47768 0.0
C1494 C 0.0092 0.83253 0.46101 0.0
C1495 C 0.00934 0.81562 0.43583 0.0
C1496 C 0.99308 0.85889 0.5023 0.0
C1497 C 0.00432 0.86256 0.54838 0.0
C1498 C 0.98229 0.87281 0.48049 0.0
C1499 C 0.97095 0.8703 0.42974 0.0
C1500 C 0.97848 0.86451 0.37847 0.0
C1501 C 0.9677 0.86206 0.33089 0.0
C1502 C 0.94937 0.8655 0.33393 0.0
C1503 C 0.94181 0.87145 0.38453 0.0
C1504 C 0.95254 0.87389 0.43226 0.0
C1505 C 0.01198 0.9388 0.60108 0.0
C1506 C 0.99612 0.9483 0.61181 0.0
C1507 C 0.0114 0.92116 0.5814 0.0
C1508 C 0.99497 0.91234 0.57364 0.0
C1509 C 0.97912 0.92182 0.58483 0.0
C1510 C 0.97968 0.9396 0.6033 0.0
C1511 C 0.99421 0.89359 0.55154 0.0
C1512 C 0.98286 0.88983 0.50567 0.0
C1513 C 0.00502 0.87961 0.57334 0.0
C1514 C 0.01703 0.88217 0.62256 0.0
C1515 C 0.01037 0.88853 0.67434 0.0
C1516 C 0.02185 0.89081 0.72041 0.0
C1517 C 0.03999 0.8867 0.71521 0.0
C1518 C 0.04669 0.88025 0.6641 0.0
C1519 C 0.03528 0.87794 0.61796 0.0
H1520 H 0.0489 0.88846 0.75068 0.0
H1521 H 0.94104 0.8636 0.29705 0.0
H1522 H 0.69157 0.97659 0.39824 0.0
H1523 H 0.66227 0.9748 0.44282 0.0
H1524 H 0.67526 0.02005 0.54756 0.0
H1525 H 0.70508 0.0212 0.50588 0.0
H1526 H 0.65583 0.99874 0.60695 0.0
H1527 H 0.6494 0.0237 0.42331 0.0
H1528 H 0.65261 0.02582 0.31979 0.0
H1529 H 0.6225 0.97739 0.29989 0.0
H1530 H 0.61931 0.97485 0.40341 0.0
H1531 H 0.56412 0.0184 0.67237 0.0
H1532 H 0.59522 0.01929 0.64096 0.0
H1533 H 0.5857 0.97354 0.53439 0.0
H1534 H 0.55441 0.97312 0.56395 0.0
H1535 H 0.6037 0.99657 0.47792 0.0
H1536 H 0.61031 0.97359 0.67003 0.0
H1537 H 0.60632 0.97533 0.77341 0.0
H1538 H 0.63545 0.02475 0.77709 0.0
H1539 H 0.63945 0.0234 0.67367 0.0
C1540 C 0.68846 0.98592 0.43171 0.0
C1541 C 0.70084 0.99918 0.44769 0.0
C1542 C 0.67148 0.98505 0.4567 0.0
C1543 C 0.6662 0.99761 0.49764 0.0
C1544 C 0.6788 0.0103 0.51571 0.0
C1545 C 0.69588 0.01105 0.49123 0.0
C1546 C 0.64742 0.99788 0.51993 0.0
C1547 C 0.64444 0.9984 0.57864 0.0
C1548 C 0.6324 0.99754 0.48342 0.0
C1549 C 0.63428 0.99899 0.42114 0.0
C1550 C 0.64358 0.01343 0.39688 0.0
C1551 C 0.64538 0.01472 0.3382 0.0
C1552 C 0.63781 1.00172 0.3033 0.0
C1553 C 0.62838 0.98743 0.327 0.0
C1554 C 0.62657 0.98607 0.38566 0.0
C1555 C 0.5687 0.00839 0.64281 0.0
C1556 C 0.55674 0.9956 0.62105 0.0
C1557 C 0.58658 0.00887 0.62491 0.0
C1558 C 0.5931 0.99628 0.58585 0.0
C1559 C 0.58116 0.98342 0.56456 0.0
C1560 C 0.56322 0.98314 0.58163 0.0
C1561 C 0.61205 0.99686 0.565 0.0
C1562 C 0.61506 0.9967 0.50634 0.0
C1563 C 0.62704 0.99796 0.60164 0.0
C1564 C 0.62505 0.99846 0.66403 0.0
C1565 C 0.61582 0.98485 0.69287 0.0
C1566 C 0.61355 0.98578 0.75148 0.0
C1567 C 0.62057 1.00017 0.78177 0.0
C1568 C 0.62999 0.01362 0.75358 0.0
C1569 C 0.63228 0.01277 0.69498 0.0
H1570 H 0.61875 1.0009 0.82709 0.0
H1571 H 0.63921 1.00274 0.25787 0.0
H1572 H 0.54329 0.69633 0.48449 0.0
H1573 H 0.53955 0.66683 0.52716 0.0
H1574 H 0.48719 0.66249 0.45283 0.0
H1575 H 0.49101 0.69172 0.40826 0.0
H1576 H 0.48865 0.64986 0.56562 0.0
H1577 H 0.52041 0.64225 0.39008 0.0
H1578 H 0.54462 0.64827 0.32191 0.0
H1579 H 0.58353 0.63119 0.44379 0.0
H1580 H 0.55954 0.62531 0.51302 0.0
H1581 H 0.47604 0.55614 0.59674 0.0
H1582 H 0.4784 0.58682 0.56191 0.0
H1583 H 0.53467 0.58707 0.60191 0.0
H1584 H 0.5325 0.55601 0.6335 0.0
H1585 H 0.53117 0.6025 0.50777 0.0
H1586 H 0.49947 0.60808 0.68228 0.0
H1587 H 0.47532 0.60129 0.74941 0.0
H1588 H 0.4367 0.62321 0.6347 0.0
H1589 H 0.46054 0.62926 0.56524 0.0
C1590 C 0.53096 0.68916 0.47698 0.0
C1591 C 0.51755 0.6965 0.44216 0.0
C1592 C 0.52881 0.67228 0.50174 0.0
C1593 C 0.51317 0.66231 0.49271 0.0
C1594 C 0.49938 0.66991 0.46046 0.0
C1595 C 0.50157 0.68675 0.43522 0.0
C1596 C 0.51157 0.64366 0.51454 0.0
C1597 C 0.49782 0.63943 0.55265 0.0
C1598 C 0.52377 0.63013 0.49862 0.0
C1599 C 0.5382 0.63352 0.45691 0.0
C1600 C 0.53414 0.63991 0.40249 0.0
C1601 C 0.54781 0.64328 0.36364 0.0
C1602 C 0.5656 0.64016 0.37856 0.0
C1603 C 0.56974 0.63362 0.43232 0.0
C1604 C 0.55611 0.63026 0.47137 0.0
C1605 C 0.48889 0.56279 0.59841 0.0
C1606 C 0.50407 0.55366 0.61812 0.0
C1607 C 0.49023 0.58041 0.57866 0.0
C1608 C 0.50667 0.58958 0.58003 0.0
C1609 C 0.52181 0.58044 0.60018 0.0
C1610 C 0.52056 0.56267 0.61852 0.0
C1611 C 0.50823 0.60851 0.55952 0.0
C1612 C 0.522 0.61285 0.52137 0.0
C1613 C 0.49609 0.62215 0.57588 0.0
C1614 C 0.4818 0.61897 0.61826 0.0
C1615 C 0.48582 0.61135 0.67111 0.0
C1616 C 0.47217 0.60762 0.70963 0.0
C1617 C 0.45449 0.61194 0.69661 0.0
C1618 C 0.45041 0.61989 0.64478 0.0
C1619 C 0.46398 0.62338 0.60566 0.0
H1620 H 0.44393 0.60911 0.72658 0.0
H1621 H 0.57618 0.64277 0.34842 0.0
H1622 H 0.79553 0.5168 0.47877 0.0
H1623 H 0.82508 0.51862 0.52374 0.0
H1624 H 0.84944 0.49867 0.37094 0.0
H1625 H 0.82 0.49604 0.32748 0.0
H1626 H 0.86461 0.48324 0.45168 0.0
H1627 H 0.8507 0.54513 0.41669 0.0
H1628 H 0.83255 0.57255 0.42286 0.0
H1629 H 0.83603 0.57107 0.60397 0.0
H1630 H 0.85403 0.54352 0.59886 0.0
H1631 H 0.94956 0.53586 0.54693 0.0
H1632 H 0.91912 0.53588 0.5087 0.0
H1633 H 0.90745 0.48746 0.60058 0.0
H1634 H 0.93786 0.48706 0.63744 0.0
H1635 H 0.88631 0.53761 0.54955 0.0
H1636 H 0.88003 0.46051 0.52174 0.0
H1637 H 0.89966 0.4346 0.50546 0.0
H1638 H 0.93905 0.4688 0.4296 0.0
H1639 H 0.91957 0.49489 0.4448 0.0
C1640 C 0.80724 0.51288 0.45495 0.0
C1641 C 0.80545 0.50621 0.39972 0.0
C1642 C 0.82417 0.514 0.4805 0.0
C1643 C 0.8397 0.50898 0.45071 0.0
C1644 C 0.8378 0.50253 0.39526 0.0
C1645 C 0.82094 0.50107 0.37029 0.0
C1646 C 0.85791 0.51007 0.47688 0.0
C1647 C 0.86928 0.49515 0.47313 0.0
C1648 C 0.86433 0.52565 0.50425 0.0
C1649 C 0.85359 0.54222 0.50739 0.0
C1650 C 0.84751 0.55061 0.45782 0.0
C1651 C 0.83726 0.56618 0.46113 0.0
C1652 C 0.83311 0.57353 0.51378 0.0
C1653 C 0.83924 0.56536 0.56323 0.0
C1654 C 0.84948 0.54979 0.56015 0.0
C1655 C 0.9405 0.52525 0.55919 0.0
C1656 C 0.94629 0.51137 0.59488 0.0
C1657 C 0.92305 0.52531 0.53743 0.0
C1658 C 0.91099 0.51151 0.55093 0.0
C1659 C 0.91654 0.49806 0.58844 0.0
C1660 C 0.93399 0.4979 0.60972 0.0
C1661 C 0.89288 0.51079 0.52431 0.0
C1662 C 0.88158 0.52572 0.52811 0.0
C1663 C 0.8867 0.49541 0.4954 0.0
C1664 C 0.89842 0.47972 0.48534 0.0
C1665 C 0.89287 0.46252 0.50165 0.0
C1666 C 0.90397 0.44779 0.49253 0.0
C1667 C 0.92062 0.45007 0.46673 0.0
C1668 C 0.92618 0.46707 0.44982 0.0
C1669 C 0.91512 0.48183 0.45875 0.0
H1670 H 0.92917 0.43864 0.45958 0.0
H1671 H 0.82517 0.58558 0.51625 0.0
loop_
_geom_bond_atom_site_label_1
_geom_bond_atom_site_label_2
_geom_bond_distance
_geom_bond_site_symmetry_2
_ccdc_geom_bond_type
C0 C1 1.386 . S
C0 C2 1.397 . S
C0 H24 0.931 . S
C1 C0 1.386 . S
C1 C5 1.397 . S
C2 C0 1.397 . S
C2 C3 1.384 . S
C2 H25 0.930 . S
C3 C2 1.384 . S
C3 C4 1.377 . S
C3 C6 1.481 . S
C4 C3 1.377 . S
C4 C5 1.389 . S
C4 H26 0.929 . S
C5 C1 1.397 . S
C5 C4 1.389 . S
C5 H27 0.931 . S
C6 C3 1.481 . S
C6 C7 1.387 . S
C6 C11 1.390 . S
C7 C6 1.387 . S
C7 C8 1.401 . S
C7 H28 0.930 . S
C8 C7 1.401 . S
C8 C9 1.376 . S
C8 C17 1.511 . S
C9 C8 1.376 . S
C9 C10 1.392 . S
C9 H30 0.931 . S
C10 C9 1.392 . S
C10 C11 1.361 . S
C10 C12 1.500 . S
C11 C6 1.390 . S
C11 C10 1.361 . S
C11 H29 0.931 . S
C12 C10 1.500 . S
C12 C13 1.371 . S
C12 C14 1.365 . S
C13 C12 1.371 . S
C13 C23 1.386 . S
C13 H31 0.931 . S
C14 C12 1.365 . S
C14 C15 1.409 . S
C14 H32 0.929 . S
C15 C14 1.409 . S
C15 C16 1.380 . S
C15 H33 0.930 . S
C16 C15 1.380 . S
C16 C23 1.357 . S
C17 C8 1.511 . S
C17 C18 1.341 . S
C17 C19 1.371 . S
C18 C17 1.341 . S
C18 C22 1.394 . S
C18 H34 0.930 . S
C19 C17 1.371 . S
C19 C20 1.392 . S
C19 H35 0.931 . S
C20 C19 1.392 . S
C20 C21 1.331 . S
C20 H38 0.932 . S
C21 C20 1.331 . S
C21 C22 1.336 . S
C22 C18 1.394 . S
C22 C21 1.336 . S
C22 H37 0.929 . S
C23 C13 1.386 . S
C23 C16 1.357 . S
C23 H36 0.928 . S
H24 C0 0.931 . S
H25 C2 0.930 . S
H26 C4 0.929 . S
H27 C5 0.931 . S
H28 C7 0.930 . S
H29 C11 0.931 . S
H30 C9 0.931 . S
H31 C13 0.931 . S
H32 C14 0.929 . S
H33 C15 0.930 . S
H34 C18 0.930 . S
H35 C19 0.931 . S
H36 C23 0.928 . S
H37 C22 0.929 . S
H38 C20 0.932 . S
C39 C40 1.394 . S
C39 C41 1.397 . S
C39 H63 0.931 . S
C40 C39 1.394 . S
C40 C44 1.389 1_655 S
C41 C39 1.397 . S
C41 C42 1.389 . S
C41 H64 0.930 . S
C42 C41 1.389 . S
C42 C43 1.373 1_655 S
C42 C45 1.480 . S
C43 C42 1.373 1_455 S
C43 C44 1.389 . S
C43 H65 0.929 . S
C44 C40 1.389 1_455 S
C44 C43 1.389 . S
C44 H66 0.931 . S
C45 C42 1.480 . S
C45 C46 1.388 . S
C45 C50 1.390 . S
C46 C45 1.388 . S
C46 C47 1.402 . S
C46 H67 0.930 . S
C47 C46 1.402 . S
C47 C48 1.376 . S
C47 C56 1.513 . S
C48 C47 1.376 . S
C48 C49 1.392 . S
C48 H69 0.934 . S
C49 C48 1.392 . S
C49 C50 1.361 . S
C49 C51 1.499 1_655 S
C50 C45 1.390 . S
C50 C49 1.361 . S
C50 H68 0.931 . S
C51 C49 1.499 1_455 S
C51 C52 1.364 1_455 S
C51 C53 1.373 . S
C52 C51 1.364 1_655 S
C52 C62 1.386 . S
C52 H70 0.931 . S
C53 C51 1.373 . S
C53 C54 1.409 . S
C53 H71 0.929 . S
C54 C53 1.409 . S
C54 C55 1.378 . S
C54 H72 0.930 . S
C55 C54 1.378 . S
C55 C62 1.360 1_455 S
C56 C47 1.513 . S
C56 C57 1.341 . S
C56 C58 1.371 1_655 S
C57 C56 1.341 . S
C57 C61 1.394 . S
C57 H73 0.930 . S
C58 C56 1.371 1_455 S
C58 C59 1.392 . S
C58 H74 0.931 . S
C59 C58 1.392 . S
C59 C60 1.322 1_455 S
C59 H77 0.932 . S
C60 C59 1.322 1_655 S
C60 C61 1.345 . S
C61 C57 1.394 . S
C61 C60 1.345 . S
C61 H76 0.929 . S
C62 C52 1.386 . S
C62 C55 1.360 1_655 S
C62 H75 0.928 . S
H63 C39 0.931 . S
H64 C41 0.930 . S
H65 C43 0.929 . S
H66 C44 0.931 . S
H67 C46 0.930 . S
H68 C50 0.931 . S
H69 C48 0.934 . S
H70 C52 0.931 . S
H71 C53 0.929 . S
H72 C54 0.930 . S
H73 C57 0.930 . S
H74 C58 0.931 . S
H75 C62 0.928 . S
H76 C61 0.929 . S
H77 C59 0.932 . S
C78 C79 1.394 . S
C78 C80 1.397 . S
C78 H102 0.931 . S
C79 C78 1.394 . S
C79 C83 1.389 1_565 S
C80 C78 1.397 . S
C80 C81 1.389 . S
C80 H103 0.930 . S
C81 C80 1.389 . S
C81 C82 1.373 1_565 S
C81 C84 1.480 . S
C82 C81 1.373 1_545 S
C82 C83 1.389 . S
C82 H104 0.929 . S
C83 C79 1.389 1_545 S
C83 C82 1.389 . S
C83 H105 0.931 . S
C84 C81 1.480 . S
C84 C85 1.388 . S
C84 C89 1.390 . S
C85 C84 1.388 . S
C85 C86 1.402 . S
C85 H106 0.930 . S
C86 C85 1.402 . S
C86 C87 1.376 . S
C86 C95 1.513 . S
C87 C86 1.376 . S
C87 C88 1.392 . S
C87 H108 0.934 . S
C88 C87 1.392 . S
C88 C89 1.361 . S
C88 C90 1.499 1_565 S
C89 C84 1.390 . S
C89 C88 1.361 . S
C89 H107 0.931 . S
C90 C88 1.499 1_545 S
C90 C91 1.364 1_545 S
C90 C92 1.373 . S
C91 C90 1.364 1_565 S
C91 C101 1.386 . S
C91 H109 0.931 . S
C92 C90 1.373 . S
C92 C93 1.409 . S
C92 H110 0.929 . S
C93 C92 1.409 . S
C93 C94 1.378 . S
C93 H111 0.930 . S
C94 C93 1.378 . S
C94 C101 1.360 1_545 S
C95 C86 1.513 . S
C95 C96 1.341 . S
C95 C97 1.371 1_565 S
C96 C95 1.341 . S
C96 C100 1.394 . S
C96 H112 0.930 . S
C97 C95 1.371 1_545 S
C97 C98 1.392 . S
C97 H113 0.931 . S
C98 C97 1.392 . S
C98 C99 1.322 1_545 S
C98 H116 0.932 . S
C99 C98 1.322 1_565 S
C99 C100 1.345 . S
C100 C96 1.394 . S
C100 C99 1.345 . S
C100 H115 0.929 . S
C101 C91 1.386 . S
C101 C94 1.360 1_565 S
C101 H114 0.928 . S
H102 C78 0.931 . S
H103 C80 0.930 . S
H104 C82 0.929 . S
H105 C83 0.931 . S
H106 C85 0.930 . S
H107 C89 0.931 . S
H108 C87 0.934 . S
H109 C91 0.931 . S
H110 C92 0.929 . S
H111 C93 0.930 . S
H112 C96 0.930 . S
H113 C97 0.931 . S
H114 C101 0.928 . S
H115 C100 0.929 . S
H116 C98 0.932 . S
C117 C118 1.386 . S
C117 C119 1.397 . S
C117 H141 0.931 . S
C118 C117 1.386 . S
C118 C122 1.397 . S
C119 C117 1.397 . S
C119 C120 1.384 . S
C119 H142 0.930 . S
C120 C119 1.384 . S
C120 C121 1.377 . S
C120 C123 1.481 . S
C121 C120 1.377 . S
C121 C122 1.389 . S
C121 H143 0.929 . S
C122 C118 1.397 . S
C122 C121 1.389 . S
C122 H144 0.931 . S
C123 C120 1.481 . S
C123 C124 1.387 . S
C123 C128 1.390 . S
C124 C123 1.387 . S
C124 C125 1.401 . S
C124 H145 0.930 . S
C125 C124 1.401 . S
C125 C126 1.376 . S
C125 C134 1.511 . S
C126 C125 1.376 . S
C126 C127 1.392 . S
C126 H147 0.931 . S
C127 C126 1.392 . S
C127 C128 1.361 . S
C127 C129 1.500 . S
C128 C123 1.390 . S
C128 C127 1.361 . S
C128 H146 0.931 . S
C129 C127 1.500 . S
C129 C130 1.371 . S
C129 C131 1.365 . S
C130 C129 1.371 . S
C130 C140 1.386 . S
C130 H148 0.931 . S
C131 C129 1.365 . S
C131 C132 1.409 . S
C131 H149 0.929 . S
C132 C131 1.409 . S
C132 C133 1.380 . S
C132 H150 0.930 . S
C133 C132 1.380 . S
C133 C140 1.357 . S
C134 C125 1.511 . S
C134 C135 1.341 . S
C134 C136 1.371 . S
C135 C134 1.341 . S
C135 C139 1.394 . S
C135 H151 0.930 . S
C136 C134 1.371 . S
C136 C137 1.392 . S
C136 H152 0.931 . S
C137 C136 1.392 . S
C137 C138 1.331 . S
C137 H155 0.932 . S
C138 C137 1.331 . S
C138 C139 1.336 . S
C139 C135 1.394 . S
C139 C138 1.336 . S
C139 H154 0.929 . S
C140 C130 1.386 . S
C140 C133 1.357 . S
C140 H153 0.928 . S
H141 C117 0.931 . S
H142 C119 0.930 . S
H143 C121 0.929 . S
H144 C122 0.931 . S
H145 C124 0.930 . S
H146 C128 0.931 . S
H147 C126 0.931 . S
H148 C130 0.931 . S
H149 C131 0.929 . S
H150 C132 0.930 . S
H151 C135 0.930 . S
H152 C136 0.931 . S
H153 C140 0.928 . S
H154 C139 0.929 . S
H155 C137 0.932 . S
C156 C157 1.386 . S
C156 C158 1.397 . S
C156 H180 0.931 . S
C157 C156 1.386 . S
C157 C161 1.397 . S
C158 C156 1.397 . S
C158 C159 1.384 . S
C158 H181 0.930 . S
C159 C158 1.384 . S
C159 C160 1.377 . S
C159 C162 1.481 . S
C160 C159 1.377 . S
C160 C161 1.389 . S
C160 H182 0.929 . S
C161 C157 1.397 . S
C161 C160 1.389 . S
C161 H183 0.931 . S
C162 C159 1.481 . S
C162 C163 1.387 . S
C162 C167 1.390 . S
C163 C162 1.387 . S
C163 C164 1.401 . S
C163 H184 0.930 . S
C164 C163 1.401 . S
C164 C165 1.376 . S
C164 C173 1.511 . S
C165 C164 1.376 . S
C165 C166 1.392 1_554 S
C165 H186 0.931 1_554 S
C166 C165 1.392 1_556 S
C166 C167 1.361 1_556 S
C166 C168 1.500 . S
C167 C162 1.390 . S
C167 C166 1.361 1_554 S
C167 H185 0.931 . S
C168 C166 1.500 . S
C168 C169 1.371 . S
C168 C170 1.365 . S
C169 C168 1.371 . S
C169 C179 1.386 . S
C169 H187 0.931 . S
C170 C168 1.365 . S
C170 C171 1.409 . S
C170 H188 0.929 . S
C171 C170 1.409 . S
C171 C172 1.380 . S
C171 H189 0.930 . S
C172 C171 1.380 . S
C172 C179 1.357 . S
C173 C164 1.511 . S
C173 C174 1.341 . S
C173 C175 1.371 . S
C174 C173 1.341 . S
C174 C178 1.394 . S
C174 H190 0.930 . S
C175 C173 1.371 . S
C175 C176 1.392 . S
C175 H191 0.923 1_554 S
C176 C175 1.392 . S
C176 C177 1.331 . S
C176 H194 0.932 . S
C177 C176 1.331 . S
C177 C178 1.336 . S
C178 C174 1.394 . S
C178 C177 1.336 . S
C178 H193 0.929 . S
C179 C169 1.386 . S
C179 C172 1.357 . S
C179 H192 0.928 . S
H180 C156 0.931 . S
H181 C158 0.930 . S
H182 C160 0.929 . S
H183 C161 0.931 . S
H184 C163 0.930 . S
H185 C167 0.931 . S
H186 C165 0.931 1_556 S
H187 C169 0.931 . S
H188 C170 0.929 . S
H189 C171 0.930 . S
H190 C174 0.930 . S
H191 C175 0.923 1_556 S
H192 C179 0.928 . S
H193 C178 0.929 . S
H194 C176 0.932 . S
C195 C196 1.386 . S
C195 C197 1.397 . S
C195 H219 0.931 . S
C196 C195 1.386 . S
C196 C200 1.398 1_655 S
C197 C195 1.397 . S
C197 C198 1.389 1_655 S
C197 H220 0.930 . S
C198 C197 1.389 1_455 S
C198 C199 1.373 . S
C198 C201 1.480 1_455 S
C199 C198 1.373 . S
C199 C200 1.389 . S
C199 H221 0.929 . S
C200 C196 1.398 1_455 S
C200 C199 1.389 . S
C200 H222 0.931 . S
C201 C198 1.480 1_655 S
C201 C202 1.386 . S
C201 C206 1.390 . S
C202 C201 1.386 . S
C202 C203 1.400 . S
C202 H223 0.935 . S
C203 C202 1.400 . S
C203 C204 1.376 . S
C203 C212 1.512 . S
C204 C203 1.376 . S
C204 C205 1.392 1_654 S
C204 H225 0.933 1_554 S
C205 C204 1.392 1_456 S
C205 C206 1.361 1_456 S
C205 C207 1.499 . S
C206 C201 1.390 . S
C206 C205 1.361 1_654 S
C206 H224 0.931 1_655 S
C207 C205 1.499 . S
C207 C208 1.357 1_455 S
C207 C209 1.380 . S
C208 C207 1.357 1_655 S
C208 C218 1.386 . S
C208 H226 0.931 . S
C209 C207 1.380 . S
C209 C210 1.409 . S
C209 H227 0.929 . S
C210 C209 1.409 . S
C210 C211 1.384 . S
C210 H228 0.930 . S
C211 C210 1.384 . S
C211 C218 1.353 1_455 S
C212 C203 1.512 . S
C212 C213 1.341 . S
C212 C214 1.371 1_655 S
C213 C212 1.341 . S
C213 C217 1.394 . S
C213 H229 0.930 . S
C214 C212 1.371 1_455 S
C214 C215 1.392 . S
C214 H230 0.920 1_554 S
C215 C214 1.392 . S
C215 C216 1.326 1_455 S
C215 H233 0.932 . S
C216 C215 1.326 1_655 S
C216 C217 1.341 . S
C217 C213 1.394 . S
C217 C216 1.341 . S
C217 H232 0.929 . S
C218 C208 1.386 . S
C218 C211 1.353 1_655 S
C218 H231 0.928 . S
H219 C195 0.931 . S
H220 C197 0.930 . S
H221 C199 0.929 . S
H222 C200 0.931 . S
H223 C202 0.935 . S
H224 C206 0.931 1_455 S
H225 C204 0.933 1_556 S
H226 C208 0.931 . S
H227 C209 0.929 . S
H228 C210 0.930 . S
H229 C213 0.930 . S
H230 C214 0.920 1_556 S
H231 C218 0.928 . S
H232 C217 0.929 . S
H233 C215 0.932 . S
C234 C235 1.386 . S
C234 C236 1.397 . S
C234 H258 0.931 . S
C235 C234 1.386 . S
C235 C239 1.398 1_565 S
C236 C234 1.397 . S
C236 C237 1.389 1_565 S
C236 H259 0.930 . S
C237 C236 1.389 1_545 S
C237 C238 1.373 . S
C237 C240 1.480 1_545 S
C238 C237 1.373 . S
C238 C239 1.389 . S
C238 H260 0.929 . S
C239 C235 1.398 1_545 S
C239 C238 1.389 . S
C239 H261 0.931 . S
C240 C237 1.480 1_565 S
C240 C241 1.386 . S
C240 C245 1.390 . S
C241 C240 1.386 . S
C241 C242 1.400 . S
C241 H262 0.935 . S
C242 C241 1.400 . S
C242 C243 1.376 . S
C242 C251 1.512 . S
C243 C242 1.376 . S
C243 C244 1.392 1_564 S
C243 H264 0.933 1_554 S
C244 C243 1.392 1_546 S
C244 C245 1.361 1_546 S
C244 C246 1.499 . S
C245 C240 1.390 . S
C245 C244 1.361 1_564 S
C245 H263 0.931 1_565 S
C246 C244 1.499 . S
C246 C247 1.357 1_545 S
C246 C248 1.380 . S
C247 C246 1.357 1_565 S
C247 C257 1.386 . S
C247 H265 0.931 . S
C248 C246 1.380 . S
C248 C249 1.409 . S
C248 H266 0.929 . S
C249 C248 1.409 . S
C249 C250 1.384 . S
C249 H267 0.930 . S
C250 C249 1.384 . S
C250 C257 1.353 1_545 S
C251 C242 1.512 . S
C251 C252 1.341 . S
C251 C253 1.371 1_565 S
C252 C251 1.341 . S
C252 C256 1.394 . S
C252 H268 0.930 . S
C253 C251 1.371 1_545 S
C253 C254 1.392 . S
C253 H269 0.925 1_554 S
C254 C253 1.392 . S
C254 C255 1.327 1_545 S
C254 H272 0.932 . S
C255 C254 1.327 1_565 S
C255 C256 1.341 . S
C256 C252 1.394 . S
C256 C255 1.341 . S
C256 H271 0.929 . S
C257 C247 1.386 . S
C257 C250 1.353 1_565 S
C257 H270 0.928 . S
H258 C234 0.931 . S
H259 C236 0.930 . S
H260 C238 0.929 . S
H261 C239 0.931 . S
H262 C241 0.935 . S
H263 C245 0.931 1_545 S
H264 C243 0.933 1_556 S
H265 C247 0.931 . S
H266 C248 0.929 . S
H267 C249 0.930 . S
H268 C252 0.930 . S
H269 C253 0.925 1_556 S
H270 C257 0.928 . S
H271 C256 0.929 . S
H272 C254 0.932 . S
C273 C274 1.386 . S
C273 C275 1.397 . S
C273 H297 0.931 . S
C274 C273 1.386 . S
C274 C278 1.397 . S
C275 C273 1.397 . S
C275 C276 1.384 . S
C275 H298 0.930 . S
C276 C275 1.384 . S
C276 C277 1.377 . S
C276 C279 1.481 . S
C277 C276 1.377 . S
C277 C278 1.389 . S
C277 H299 0.929 . S
C278 C274 1.397 . S
C278 C277 1.389 . S
C278 H300 0.931 . S
C279 C276 1.481 . S
C279 C280 1.387 1_556 S
C279 C284 1.390 1_556 S
C280 C279 1.387 1_554 S
C280 C281 1.401 . S
C280 H301 0.930 1_554 S
C281 C280 1.401 . S
C281 C282 1.376 . S
C281 C290 1.511 . S
C282 C281 1.376 . S
C282 C283 1.392 . S
C282 H303 0.931 . S
C283 C282 1.392 . S
C283 C284 1.361 . S
C283 C285 1.500 . S
C284 C279 1.390 1_554 S
C284 C283 1.361 . S
C284 H302 0.931 . S
C285 C283 1.500 . S
C285 C286 1.371 . S
C285 C287 1.365 . S
C286 C285 1.371 . S
C286 C296 1.386 . S
C286 H304 0.931 . S
C287 C285 1.365 . S
C287 C288 1.409 . S
C287 H305 0.929 . S
C288 C287 1.409 . S
C288 C289 1.380 . S
C288 H306 0.930 . S
C289 C288 1.380 . S
C289 C296 1.357 . S
C290 C281 1.511 . S
C290 C291 1.341 . S
C290 C292 1.371 . S
C291 C290 1.341 . S
C291 C295 1.394 . S
C291 H307 0.930 . S
C292 C290 1.371 . S
C292 C293 1.392 . S
C292 H308 0.931 . S
C293 C292 1.392 . S
C293 C294 1.331 . S
C293 H311 0.932 . S
C294 C293 1.331 . S
C294 C295 1.336 . S
C295 C291 1.394 . S
C295 C294 1.336 . S
C295 H310 0.929 . S
C296 C286 1.386 . S
C296 C289 1.357 . S
C296 H309 0.928 . S
H297 C273 0.931 . S
H298 C275 0.930 . S
H299 C277 0.929 . S
H300 C278 0.931 . S
H301 C280 0.930 1_556 S
H302 C284 0.931 . S
H303 C282 0.931 . S
H304 C286 0.931 . S
H305 C287 0.929 . S
H306 C288 0.930 . S
H307 C291 0.930 . S
H308 C292 0.931 . S
H309 C296 0.928 . S
H310 C295 0.929 . S
H311 C293 0.932 . S
Tb312 C322 2.825 . S
Tb312 O323 2.347 1_455 S
Tb312 O326 2.366 . S
Tb312 O331 2.418 . S
Tb312 O332 2.384 1_565 S
Tb312 O335 2.479 . S
Tb312 O336 2.471 . S
Eu313 O324 2.418 . S
Eu313 O325 2.384 1_545 S
Eu313 O328 2.479 . S
Eu313 O329 2.471 . S
Eu313 O330 2.347 1_655 S
Eu313 O333 2.366 . S
Eu313 C343 2.825 . S
C314 O330 1.259 1_565 S
C314 O331 1.265 . S
C315 O332 1.255 . S
C315 O333 1.265 1_455 S
C316 C318 1.380 . S
C316 C319 1.374 . S
C316 C322 1.507 . S
C317 C318 1.384 . S
C317 C321 1.387 . S
C317 H344 0.930 . S
C318 C316 1.380 . S
C318 C317 1.384 . S
C318 H345 0.931 . S
C319 C316 1.374 . S
C319 C320 1.390 . S
C319 H346 0.930 1_455 S
C320 C319 1.390 . S
C320 C321 1.391 . S
C320 H347 0.930 1_455 S
C321 C317 1.387 . S
C321 C320 1.391 . S
C322 Tb312 2.825 . S
C322 C316 1.507 . S
C322 O335 1.238 . S
C322 O336 1.247 . S
O323 Tb312 2.347 1_655 S
O323 C327 1.259 1_565 S
O324 Eu313 2.418 . S
O324 C327 1.265 . S
O325 Eu313 2.384 1_565 S
O325 C334 1.255 . S
O326 Tb312 2.366 . S
O326 C334 1.265 1_455 S
C327 O323 1.259 1_545 S
C327 O324 1.265 . S
O328 Eu313 2.479 . S
O328 C343 1.238 . S
O329 Eu313 2.471 . S
O329 C343 1.247 . S
O330 Eu313 2.347 1_455 S
O330 C314 1.259 1_545 S
O331 Tb312 2.418 . S
O331 C314 1.265 . S
O332 Tb312 2.384 1_545 S
O332 C315 1.255 . S
O333 Eu313 2.366 . S
O333 C315 1.265 1_655 S
C334 O325 1.255 . S
C334 O326 1.265 1_655 S
O335 Tb312 2.479 . S
O335 C322 1.238 . S
O336 Tb312 2.471 . S
O336 C322 1.247 . S
C337 C340 1.380 . S
C337 C341 1.374 . S
C337 C343 1.507 . S
C338 C339 1.387 . S
C338 C342 1.391 . S
C339 C338 1.387 . S
C339 C340 1.384 . S
C339 H348 0.930 . S
C340 C337 1.380 . S
C340 C339 1.384 . S
C340 H349 0.931 . S
C341 C337 1.374 . S
C341 C342 1.390 . S
C341 H350 0.930 1_655 S
C342 C338 1.391 . S
C342 C341 1.390 . S
C342 H351 0.930 1_655 S
C343 Eu313 2.825 . S
C343 O328 1.238 . S
C343 O329 1.247 . S
C343 C337 1.507 . S
H344 C317 0.930 . S
H345 C318 0.931 . S
H346 C319 0.930 1_655 S
H347 C320 0.930 1_655 S
H348 C339 0.930 . S
H349 C340 0.931 . S
H350 C341 0.930 1_455 S
H351 C342 0.930 1_455 S
Tb352 C362 2.825 . S
Tb352 O363 2.347 1_545 S
Tb352 O366 2.366 . S
Tb352 O371 2.418 . S
Tb352 O372 2.384 . S
Tb352 O375 2.479 . S
Tb352 O376 2.471 . S
Eu353 O364 2.418 . S
Eu353 O365 2.384 . S
Eu353 O368 2.479 . S
Eu353 O369 2.471 . S
Eu353 O370 2.347 1_565 S
Eu353 O373 2.366 . S
Eu353 C383 2.825 . S
C354 O370 1.259 . S
C354 O371 1.265 . S
C355 O372 1.255 . S
C355 O373 1.265 1_545 S
C356 C358 1.380 . S
C356 C359 1.374 . S
C356 C362 1.507 . S
C357 C358 1.384 . S
C357 C361 1.387 . S
C357 H384 0.930 . S
C358 C356 1.380 . S
C358 C357 1.384 . S
C358 H385 0.931 . S
C359 C356 1.374 . S
C359 C360 1.390 . S
C359 H386 0.930 1_545 S
C360 C359 1.390 . S
C360 C361 1.391 . S
C360 H387 0.930 1_545 S
C361 C357 1.387 . S
C361 C360 1.391 . S
C362 Tb352 2.825 . S
C362 C356 1.507 . S
C362 O375 1.238 . S
C362 O376 1.247 . S
O363 Tb352 2.347 1_565 S
O363 C367 1.259 . S
O364 Eu353 2.418 . S
O364 C367 1.265 . S
O365 Eu353 2.384 . S
O365 C374 1.255 . S
O366 Tb352 2.366 . S
O366 C374 1.265 1_545 S
C367 O363 1.259 . S
C367 O364 1.265 . S
O368 Eu353 2.479 . S
O368 C383 1.238 . S
O369 Eu353 2.471 . S
O369 C383 1.247 . S
O370 Eu353 2.347 1_545 S
O370 C354 1.259 . S
O371 Tb352 2.418 . S
O371 C354 1.265 . S
O372 Tb352 2.384 . S
O372 C355 1.255 . S
O373 Eu353 2.366 . S
O373 C355 1.265 1_565 S
C374 O365 1.255 . S
C374 O366 1.265 1_565 S
O375 Tb352 2.479 . S
O375 C362 1.238 . S
O376 Tb352 2.471 . S
O376 C362 1.247 . S
C377 C380 1.380 . S
C377 C381 1.374 . S
C377 C383 1.507 . S
C378 C379 1.387 . S
C378 C382 1.391 . S
C379 C378 1.387 . S
C379 C380 1.384 . S
C379 H388 0.930 . S
C380 C377 1.380 . S
C380 C379 1.384 . S
C380 H389 0.931 . S
C381 C377 1.374 . S
C381 C382 1.390 . S
C381 H390 0.930 1_565 S
C382 C378 1.391 . S
C382 C381 1.390 . S
C382 H391 0.930 1_565 S
C383 Eu353 2.825 . S
C383 O368 1.238 . S
C383 O369 1.247 . S
C383 C377 1.507 . S
H384 C357 0.930 . S
H385 C358 0.931 . S
H386 C359 0.930 1_565 S
H387 C360 0.930 1_565 S
H388 C379 0.930 . S
H389 C380 0.931 . S
H390 C381 0.930 1_545 S
H391 C382 0.930 1_545 S
Tb392 C402 2.825 . S
Tb392 O403 2.347 . S
Tb392 O406 2.366 . S
Tb392 O411 2.418 . S
Tb392 O412 2.384 . S
Tb392 O415 2.479 . S
Tb392 O416 2.471 . S
Eu393 O404 2.418 . S
Eu393 O405 2.384 . S
Eu393 O408 2.479 . S
Eu393 O409 2.471 . S
Eu393 O410 2.347 . S
Eu393 O413 2.366 . S
Eu393 C423 2.825 . S
C394 O410 1.259 . S
C394 O411 1.265 . S
C395 O412 1.255 . S
C395 O413 1.265 . S
C396 C398 1.380 . S
C396 C399 1.374 . S
C396 C402 1.507 . S
C397 C398 1.384 . S
C397 C401 1.387 . S
C397 H424 0.930 . S
C398 C396 1.380 . S
C398 C397 1.384 . S
C398 H425 0.931 . S
C399 C396 1.374 . S
C399 C400 1.390 . S
C399 H426 0.930 . S
C400 C399 1.390 . S
C400 C401 1.391 . S
C400 H427 0.930 . S
C401 C397 1.387 . S
C401 C400 1.391 . S
C402 Tb392 2.825 . S
C402 C396 1.507 . S
C402 O415 1.238 . S
C402 O416 1.247 . S
O403 Tb392 2.347 . S
O403 C407 1.259 . S
O404 Eu393 2.418 . S
O404 C407 1.265 . S
O405 Eu393 2.384 . S
O405 C414 1.255 . S
O406 Tb392 2.366 . S
O406 C414 1.265 . S
C407 O403 1.259 . S
C407 O404 1.265 . S
O408 Eu393 2.479 . S
O408 C423 1.238 . S
O409 Eu393 2.471 . S
O409 C423 1.247 . S
O410 Eu393 2.347 . S
O410 C394 1.259 . S
O411 Tb392 2.418 . S
O411 C394 1.265 . S
O412 Tb392 2.384 . S
O412 C395 1.255 . S
O413 Eu393 2.366 . S
O413 C395 1.265 . S
C414 O405 1.255 . S
C414 O406 1.265 . S
O415 Tb392 2.479 . S
O415 C402 1.238 . S
O416 Tb392 2.471 . S
O416 C402 1.247 . S
C417 C420 1.380 . S
C417 C421 1.374 . S
C417 C423 1.507 . S
C418 C419 1.387 . S
C418 C422 1.391 . S
C419 C418 1.387 . S
C419 C420 1.384 . S
C419 H428 0.930 . S
C420 C417 1.380 . S
C420 C419 1.384 . S
C420 H429 0.931 . S
C421 C417 1.374 . S
C421 C422 1.390 . S
C421 H430 0.930 . S
C422 C418 1.391 . S
C422 C421 1.390 . S
C422 H431 0.930 . S
C423 Eu393 2.825 . S
C423 O408 1.238 . S
C423 O409 1.247 . S
C423 C417 1.507 . S
H424 C397 0.930 . S
H425 C398 0.931 . S
H426 C399 0.930 . S
H427 C400 0.930 . S
H428 C419 0.930 . S
H429 C420 0.931 . S
H430 C421 0.930 . S
H431 C422 0.930 . S
Tb432 C442 2.825 . S
Tb432 O443 2.347 . S
Tb432 O446 2.366 . S
Tb432 O451 2.418 . S
Tb432 O452 2.384 1_655 S
Tb432 O455 2.479 . S
Tb432 O456 2.471 . S
Eu433 O444 2.418 . S
Eu433 O445 2.384 1_455 S
Eu433 O448 2.479 . S
Eu433 O449 2.471 . S
Eu433 O450 2.347 . S
Eu433 O453 2.366 . S
Eu433 C463 2.825 . S
C434 O450 1.259 1_655 S
C434 O451 1.265 . S
C435 O452 1.255 . S
C435 O453 1.265 . S
C436 C438 1.380 . S
C436 C439 1.374 . S
C436 C442 1.507 . S
C437 C438 1.384 . S
C437 C441 1.387 . S
C437 H464 0.930 . S
C438 C436 1.380 . S
C438 C437 1.384 . S
C438 H465 0.931 . S
C439 C436 1.374 . S
C439 C440 1.390 . S
C439 H466 0.930 . S
C440 C439 1.390 . S
C440 C441 1.391 . S
C440 H467 0.930 . S
C441 C437 1.387 . S
C441 C440 1.391 . S
C442 Tb432 2.825 . S
C442 C436 1.507 . S
C442 O455 1.238 . S
C442 O456 1.247 . S
O443 Tb432 2.347 . S
O443 C447 1.259 1_655 S
O444 Eu433 2.418 . S
O444 C447 1.265 . S
O445 Eu433 2.384 1_655 S
O445 C454 1.255 . S
O446 Tb432 2.366 . S
O446 C454 1.265 . S
C447 O443 1.259 1_455 S
C447 O444 1.265 . S
O448 Eu433 2.479 . S
O448 C463 1.238 . S
O449 Eu433 2.471 . S
O449 C463 1.247 . S
O450 Eu433 2.347 . S
O450 C434 1.259 1_455 S
O451 Tb432 2.418 . S
O451 C434 1.265 . S
O452 Tb432 2.384 1_455 S
O452 C435 1.255 . S
O453 Eu433 2.366 . S
O453 C435 1.265 . S
C454 O445 1.255 . S
C454 O446 1.265 . S
O455 Tb432 2.479 . S
O455 C442 1.238 . S
O456 Tb432 2.471 . S
O456 C442 1.247 . S
C457 C460 1.380 . S
C457 C461 1.374 . S
C457 C463 1.507 . S
C458 C459 1.387 . S
C458 C462 1.391 . S
C459 C458 1.387 . S
C459 C460 1.384 . S
C459 H468 0.930 . S
C460 C457 1.380 . S
C460 C459 1.384 . S
C460 H469 0.931 . S
C461 C457 1.374 . S
C461 C462 1.390 . S
C461 H470 0.930 . S
C462 C458 1.391 . S
C462 C461 1.390 . S
C462 H471 0.930 . S
C463 Eu433 2.825 . S
C463 O448 1.238 . S
C463 O449 1.247 . S
C463 C457 1.507 . S
H464 C437 0.930 . S
H465 C438 0.931 . S
H466 C439 0.930 . S
H467 C440 0.930 . S
H468 C459 0.930 . S
H469 C460 0.931 . S
H470 C461 0.930 . S
H471 C462 0.930 . S
H472 C490 0.954 . S
H473 C492 0.950 . S
H474 C494 0.950 . S
H475 C495 0.950 . S
H476 C497 0.950 . S
H477 C500 0.950 . S
H478 C501 0.950 . S
H479 C503 0.950 . S
H480 C504 0.950 . S
H481 C505 0.951 . S
H482 C507 0.955 . S
H483 C509 0.953 . S
H484 C510 0.949 . S
H485 C512 0.950 . S
H486 C515 0.950 . S
H487 C516 0.950 . S
H488 C518 0.950 . S
H489 C519 0.950 . S
C490 H472 0.954 . S
C490 C491 1.365 1_565 S
C490 C492 1.387 . S
C491 C490 1.365 1_545 S
C491 C495 1.385 . S
C492 H473 0.950 . S
C492 C490 1.387 . S
C492 C493 1.366 1_565 S
C493 C492 1.366 1_545 S
C493 C494 1.414 . S
C493 C496 1.499 . S
C494 H474 0.950 . S
C494 C493 1.414 . S
C494 C495 1.374 . S
C495 H475 0.950 . S
C495 C491 1.385 . S
C495 C494 1.374 . S
C496 C493 1.499 . S
C496 C497 1.373 1_545 S
C496 C498 1.389 . S
C497 H476 0.950 . S
C497 C496 1.373 1_565 S
C497 C513 1.377 . S
C498 C496 1.389 . S
C498 C499 1.524 . S
C498 C512 1.377 . S
C499 C498 1.524 . S
C499 C500 1.397 . S
C499 C504 1.363 . S
C500 H477 0.950 . S
C500 C499 1.397 . S
C500 C501 1.334 . S
C501 H478 0.950 . S
C501 C500 1.334 . S
C501 C502 1.287 . S
C502 C501 1.287 . S
C502 C503 1.524 . S
C502 H521 0.913 . S
C503 H479 0.950 . S
C503 C502 1.524 . S
C503 C504 1.415 . S
C504 H480 0.950 . S
C504 C499 1.363 . S
C504 C503 1.415 . S
C505 H481 0.951 . S
C505 C506 1.368 . S
C505 C507 1.391 . S
C506 C505 1.368 . S
C506 C510 1.382 1_545 S
C507 H482 0.955 . S
C507 C505 1.391 . S
C507 C508 1.362 1_545 S
C508 C507 1.362 1_565 S
C508 C509 1.414 . S
C508 C511 1.499 . S
C509 H483 0.953 . S
C509 C508 1.414 . S
C509 C510 1.373 . S
C510 H484 0.949 . S
C510 C506 1.382 1_565 S
C510 C509 1.373 . S
C511 C508 1.499 . S
C511 C512 1.351 1_565 S
C511 C513 1.410 . S
C512 H485 0.950 . S
C512 C498 1.377 . S
C512 C511 1.351 1_545 S
C513 C497 1.377 . S
C513 C511 1.410 . S
C513 C514 1.524 . S
C514 C513 1.524 . S
C514 C515 1.397 . S
C514 C519 1.363 . S
C515 H486 0.950 . S
C515 C514 1.397 . S
C515 C516 1.334 . S
C516 H487 0.950 . S
C516 C515 1.334 . S
C516 C517 1.287 . S
C517 C516 1.287 . S
C517 C518 1.524 . S
C517 H520 0.999 . S
C518 H488 0.950 . S
C518 C517 1.524 . S
C518 C519 1.415 . S
C519 H489 0.950 . S
C519 C514 1.363 . S
C519 C518 1.415 . S
H520 C517 0.999 . S
H521 C502 0.913 . S
H522 C540 0.951 . S
H523 C542 0.951 . S
H524 C544 0.950 . S
H525 C545 0.950 . S
H526 C547 0.950 . S
H527 C550 0.950 . S
H528 C551 0.950 . S
H529 C553 0.950 . S
H530 C554 0.950 . S
H531 C555 0.951 . S
H532 C557 0.951 . S
H533 C559 0.950 . S
H534 C560 0.950 . S
H535 C562 0.950 . S
H536 C565 0.950 . S
H537 C566 0.950 . S
H538 C568 0.950 . S
H539 C569 0.950 . S
C540 H522 0.951 . S
C540 C541 1.366 . S
C540 C542 1.388 . S
C541 C540 1.366 . S
C541 C545 1.385 . S
C542 H523 0.951 . S
C542 C540 1.388 . S
C542 C543 1.366 . S
C543 C542 1.366 . S
C543 C544 1.414 . S
C543 C546 1.499 . S
C544 H524 0.950 . S
C544 C543 1.414 . S
C544 C545 1.374 . S
C545 H525 0.950 . S
C545 C541 1.385 . S
C545 C544 1.374 . S
C546 C543 1.499 . S
C546 C547 1.373 . S
C546 C548 1.389 . S
C547 H526 0.950 . S
C547 C546 1.373 . S
C547 C563 1.377 . S
C548 C546 1.389 . S
C548 C549 1.524 . S
C548 C562 1.377 . S
C549 C548 1.524 . S
C549 C550 1.397 . S
C549 C554 1.363 . S
C550 H527 0.950 . S
C550 C549 1.397 . S
C550 C551 1.334 . S
C551 H528 0.950 . S
C551 C550 1.334 . S
C551 C552 1.287 . S
C552 C551 1.287 . S
C552 C553 1.524 . S
C552 H571 0.913 . S
C553 H529 0.950 . S
C553 C552 1.524 . S
C553 C554 1.415 . S
C554 H530 0.950 . S
C554 C549 1.363 . S
C554 C553 1.415 . S
C555 H531 0.951 . S
C555 C556 1.366 . S
C555 C557 1.388 . S
C556 C555 1.366 . S
C556 C560 1.385 . S
C557 H532 0.951 . S
C557 C555 1.388 . S
C557 C558 1.366 . S
C558 C557 1.366 . S
C558 C559 1.414 . S
C558 C561 1.499 . S
C559 H533 0.950 . S
C559 C558 1.414 . S
C559 C560 1.374 . S
C560 H534 0.950 . S
C560 C556 1.385 . S
C560 C559 1.374 . S
C561 C558 1.499 . S
C561 C562 1.373 . S
C561 C563 1.389 . S
C562 H535 0.950 . S
C562 C548 1.377 . S
C562 C561 1.373 . S
C563 C547 1.377 . S
C563 C561 1.389 . S
C563 C564 1.524 . S
C564 C563 1.524 . S
C564 C565 1.397 . S
C564 C569 1.363 . S
C565 H536 0.950 . S
C565 C564 1.397 . S
C565 C566 1.334 . S
C566 H537 0.950 . S
C566 C565 1.334 . S
C566 C567 1.287 . S
C567 C566 1.287 . S
C567 C568 1.524 . S
C567 H570 0.999 . S
C568 H538 0.950 . S
C568 C567 1.524 . S
C568 C569 1.415 . S
C569 H539 0.950 . S
C569 C564 1.363 . S
C569 C568 1.415 . S
H570 C567 0.999 . S
H571 C552 0.913 . S
H572 C590 0.951 . S
H573 C592 0.951 . S
H574 C594 0.950 . S
H575 C595 0.950 . S
H576 C597 0.950 . S
H577 C600 0.950 . S
H578 C601 0.950 . S
H579 C603 0.950 . S
H580 C604 0.950 . S
H581 C605 0.951 . S
H582 C607 0.951 . S
H583 C609 0.950 . S
H584 C610 0.950 . S
H585 C612 0.950 . S
H586 C615 0.950 . S
H587 C616 0.950 . S
H588 C618 0.950 . S
H589 C619 0.950 . S
C590 H572 0.951 . S
C590 C591 1.366 . S
C590 C592 1.388 . S
C591 C590 1.366 . S
C591 C595 1.385 . S
C592 H573 0.951 . S
C592 C590 1.388 . S
C592 C593 1.366 . S
C593 C592 1.366 . S
C593 C594 1.414 . S
C593 C596 1.499 . S
C594 H574 0.950 . S
C594 C593 1.414 . S
C594 C595 1.374 . S
C595 H575 0.950 . S
C595 C591 1.385 . S
C595 C594 1.374 . S
C596 C593 1.499 . S
C596 C597 1.373 . S
C596 C598 1.389 . S
C597 H576 0.950 . S
C597 C596 1.373 . S
C597 C613 1.377 . S
C598 C596 1.389 . S
C598 C599 1.524 . S
C598 C612 1.377 . S
C599 C598 1.524 . S
C599 C600 1.397 . S
C599 C604 1.363 . S
C600 H577 0.950 . S
C600 C599 1.397 . S
C600 C601 1.334 . S
C601 H578 0.950 . S
C601 C600 1.334 . S
C601 C602 1.287 . S
C602 C601 1.287 . S
C602 C603 1.524 . S
C602 H621 0.913 . S
C603 H579 0.950 . S
C603 C602 1.524 . S
C603 C604 1.415 . S
C604 H580 0.950 . S
C604 C599 1.363 . S
C604 C603 1.415 . S
C605 H581 0.951 . S
C605 C606 1.366 . S
C605 C607 1.388 . S
C606 C605 1.366 . S
C606 C610 1.385 . S
C607 H582 0.951 . S
C607 C605 1.388 . S
C607 C608 1.366 . S
C608 C607 1.366 . S
C608 C609 1.414 . S
C608 C611 1.499 . S
C609 H583 0.950 . S
C609 C608 1.414 . S
C609 C610 1.374 . S
C610 H584 0.950 . S
C610 C606 1.385 . S
C610 C609 1.374 . S
C611 C608 1.499 . S
C611 C612 1.373 . S
C611 C613 1.389 . S
C612 H585 0.950 . S
C612 C598 1.377 . S
C612 C611 1.373 . S
C613 C597 1.377 . S
C613 C611 1.389 . S
C613 C614 1.524 . S
C614 C613 1.524 . S
C614 C615 1.397 . S
C614 C619 1.363 . S
C615 H586 0.950 . S
C615 C614 1.397 . S
C615 C616 1.334 . S
C616 H587 0.950 . S
C616 C615 1.334 . S
C616 C617 1.287 . S
C617 C616 1.287 . S
C617 C618 1.524 . S
C617 H620 0.999 . S
C618 H588 0.950 . S
C618 C617 1.524 . S
C618 C619 1.415 . S
C619 H589 0.950 . S
C619 C614 1.363 . S
C619 C618 1.415 . S
H620 C617 0.999 . S
H621 C602 0.913 . S
H622 C640 0.951 . S
H623 C642 0.951 . S
H624 C644 0.950 . S
H625 C645 0.950 . S
H626 C647 0.950 . S
H627 C650 0.950 . S
H628 C651 0.950 . S
H629 C653 0.950 . S
H630 C654 0.950 . S
H631 C655 0.951 . S
H632 C657 0.951 . S
H633 C659 0.950 . S
H634 C660 0.950 . S
H635 C662 0.950 . S
H636 C665 0.950 . S
H637 C666 0.950 . S
H638 C668 0.950 . S
H639 C669 0.950 . S
C640 H622 0.951 . S
C640 C641 1.365 1_655 S
C640 C642 1.388 . S
C641 C640 1.365 1_455 S
C641 C645 1.386 . S
C642 H623 0.951 . S
C642 C640 1.388 . S
C642 C643 1.366 1_655 S
C643 C642 1.366 1_455 S
C643 C644 1.414 . S
C643 C646 1.499 . S
C644 H624 0.950 . S
C644 C643 1.414 . S
C644 C645 1.374 . S
C645 H625 0.950 . S
C645 C641 1.386 . S
C645 C644 1.374 . S
C646 C643 1.499 . S
C646 C647 1.373 1_455 S
C646 C648 1.389 . S
C647 H626 0.950 . S
C647 C646 1.373 1_655 S
C647 C663 1.377 . S
C648 C646 1.389 . S
C648 C649 1.524 . S
C648 C662 1.377 . S
C649 C648 1.524 . S
C649 C650 1.397 . S
C649 C654 1.363 . S
C650 H627 0.950 . S
C650 C649 1.397 . S
C650 C651 1.334 . S
C651 H628 0.950 . S
C651 C650 1.334 . S
C651 C652 1.287 . S
C652 C651 1.287 . S
C652 C653 1.524 . S
C652 H671 0.913 . S
C653 H629 0.950 . S
C653 C652 1.524 . S
C653 C654 1.415 . S
C654 H630 0.950 . S
C654 C649 1.363 . S
C654 C653 1.415 . S
C655 H631 0.951 . S
C655 C656 1.381 . S
C655 C657 1.388 . S
C656 C655 1.381 . S
C656 C660 1.370 1_455 S
C657 H632 0.951 . S
C657 C655 1.388 . S
C657 C658 1.361 1_455 S
C658 C657 1.361 1_655 S
C658 C659 1.418 . S
C658 C661 1.498 . S
C659 H633 0.950 . S
C659 C658 1.418 . S
C659 C660 1.374 . S
C660 H634 0.950 . S
C660 C656 1.370 1_655 S
C660 C659 1.374 . S
C661 C658 1.498 . S
C661 C662 1.356 1_655 S
C661 C663 1.406 . S
C662 H635 0.950 . S
C662 C648 1.377 . S
C662 C661 1.356 1_455 S
C663 C647 1.377 . S
C663 C661 1.406 . S
C663 C664 1.524 . S
C664 C663 1.524 . S
C664 C665 1.397 . S
C664 C669 1.363 . S
C665 H636 0.950 . S
C665 C664 1.397 . S
C665 C666 1.334 . S
C666 H637 0.950 . S
C666 C665 1.334 . S
C666 C667 1.287 . S
C667 C666 1.287 . S
C667 C668 1.524 . S
C667 H670 0.999 . S
C668 H638 0.950 . S
C668 C667 1.524 . S
C668 C669 1.415 . S
C669 H639 0.950 . S
C669 C664 1.363 . S
C669 C668 1.415 . S
H670 C667 0.999 . S
H671 C652 0.913 . S
H672 C690 0.951 . S
H673 C692 0.951 . S
H674 C694 0.950 . S
H675 C695 0.950 . S
H676 C697 0.950 . S
H677 C700 0.950 . S
H678 C701 0.950 . S
H679 C703 0.950 . S
H680 C704 0.950 . S
H681 C705 0.951 . S
H682 C707 0.951 . S
H683 C709 0.950 . S
H684 C710 0.950 . S
H685 C712 0.950 . S
H686 C715 0.950 . S
H687 C716 0.950 . S
H688 C718 0.957 . S
H689 C719 0.950 . S
C690 H672 0.951 . S
C690 C691 1.366 1_565 S
C690 C692 1.388 . S
C691 C690 1.366 1_545 S
C691 C695 1.384 . S
C692 H673 0.951 . S
C692 C690 1.388 . S
C692 C693 1.366 . S
C693 C692 1.366 . S
C693 C694 1.414 1_565 S
C693 C696 1.499 . S
C694 H674 0.950 . S
C694 C693 1.414 1_545 S
C694 C695 1.374 . S
C695 H675 0.950 . S
C695 C691 1.384 . S
C695 C694 1.374 . S
C696 C693 1.499 . S
C696 C697 1.373 1_565 S
C696 C698 1.389 1_554 S
C697 H676 0.950 . S
C697 C696 1.373 1_545 S
C697 C713 1.377 1_554 S
C698 C696 1.389 1_556 S
C698 C699 1.524 1_556 S
C698 C712 1.377 . S
C699 C698 1.524 1_554 S
C699 C700 1.397 . S
C699 C704 1.363 1_554 S
C700 H677 0.950 . S
C700 C699 1.397 . S
C700 C701 1.334 . S
C701 H678 0.950 . S
C701 C700 1.334 . S
C701 C702 1.287 . S
C702 C701 1.287 . S
C702 C703 1.524 1_554 S
C702 H721 0.913 . S
C703 H679 0.950 . S
C703 C702 1.524 1_556 S
C703 C704 1.415 . S
C704 H680 0.950 . S
C704 C699 1.363 1_556 S
C704 C703 1.415 . S
C705 H681 0.951 . S
C705 C706 1.361 1_545 S
C705 C707 1.388 . S
C706 C705 1.361 1_565 S
C706 C710 1.390 . S
C707 H682 0.951 . S
C707 C705 1.388 . S
C707 C708 1.370 . S
C708 C707 1.370 . S
C708 C709 1.408 1_545 S
C708 C711 1.499 . S
C709 H683 0.950 . S
C709 C708 1.408 1_565 S
C709 C710 1.374 . S
C710 H684 0.950 . S
C710 C706 1.390 . S
C710 C709 1.374 . S
C711 C708 1.499 . S
C711 C712 1.345 1_545 S
C711 C713 1.417 . S
C712 H685 0.950 . S
C712 C698 1.377 . S
C712 C711 1.345 1_565 S
C713 C697 1.377 1_556 S
C713 C711 1.417 . S
C713 C714 1.524 . S
C714 C713 1.524 . S
C714 C715 1.397 . S
C714 C719 1.363 1_556 S
C715 H686 0.950 . S
C715 C714 1.397 . S
C715 C716 1.334 . S
C716 H687 0.950 . S
C716 C715 1.334 . S
C716 C717 1.287 . S
C717 C716 1.287 . S
C717 C718 1.514 1_556 S
C717 H720 0.999 . S
C718 H688 0.957 . S
C718 C717 1.514 1_554 S
C718 C719 1.416 . S
C719 H689 0.950 . S
C719 C714 1.363 1_554 S
C719 C718 1.416 . S
H720 C717 0.999 . S
H721 C702 0.913 . S
H722 C740 0.951 . S
H723 C742 0.951 . S
H724 C744 0.950 . S
H725 C745 0.950 . S
H726 C747 0.950 . S
H727 C750 0.950 . S
H728 C751 0.950 . S
H729 C753 0.950 . S
H730 C754 0.950 . S
H731 C755 0.951 . S
H732 C757 0.951 . S
H733 C759 0.950 . S
H734 C760 0.950 . S
H735 C762 0.950 . S
H736 C765 0.950 . S
H737 C766 0.950 . S
H738 C768 0.950 . S
H739 C769 0.950 . S
C740 H722 0.951 . S
C740 C741 1.366 . S
C740 C742 1.388 . S
C741 C740 1.366 . S
C741 C745 1.385 . S
C742 H723 0.951 . S
C742 C740 1.388 . S
C742 C743 1.366 . S
C743 C742 1.366 . S
C743 C744 1.414 . S
C743 C746 1.499 . S
C744 H724 0.950 . S
C744 C743 1.414 . S
C744 C745 1.374 . S
C745 H725 0.950 . S
C745 C741 1.385 . S
C745 C744 1.374 . S
C746 C743 1.499 . S
C746 C747 1.373 . S
C746 C748 1.389 1_554 S
C747 H726 0.950 . S
C747 C746 1.373 . S
C747 C763 1.377 1_554 S
C748 C746 1.389 1_556 S
C748 C749 1.524 . S
C748 C762 1.377 . S
C749 C748 1.524 . S
C749 C750 1.397 1_556 S
C749 C754 1.363 . S
C750 H727 0.950 . S
C750 C749 1.397 1_554 S
C750 C751 1.334 . S
C751 H728 0.950 . S
C751 C750 1.334 . S
C751 C752 1.287 1_554 S
C752 C751 1.287 1_556 S
C752 C753 1.524 . S
C752 H771 0.913 . S
C753 H729 0.950 . S
C753 C752 1.524 . S
C753 C754 1.415 . S
C754 H730 0.950 . S
C754 C749 1.363 . S
C754 C753 1.415 . S
C755 H731 0.951 . S
C755 C756 1.366 . S
C755 C757 1.388 . S
C756 C755 1.366 . S
C756 C760 1.385 . S
C757 H732 0.951 . S
C757 C755 1.388 . S
C757 C758 1.366 . S
C758 C757 1.366 . S
C758 C759 1.414 . S
C758 C761 1.499 . S
C759 H733 0.950 . S
C759 C758 1.414 . S
C759 C760 1.374 . S
C760 H734 0.950 . S
C760 C756 1.385 . S
C760 C759 1.374 . S
C761 C758 1.499 . S
C761 C762 1.373 . S
C761 C763 1.389 . S
C762 H735 0.950 . S
C762 C748 1.377 . S
C762 C761 1.373 . S
C763 C747 1.377 1_556 S
C763 C761 1.389 . S
C763 C764 1.524 . S
C764 C763 1.524 . S
C764 C765 1.397 . S
C764 C769 1.363 1_556 S
C765 H736 0.950 . S
C765 C764 1.397 . S
C765 C766 1.334 . S
C766 H737 0.950 . S
C766 C765 1.334 . S
C766 C767 1.287 . S
C767 C766 1.287 . S
C767 C768 1.524 1_556 S
C767 H770 0.999 . S
C768 H738 0.950 . S
C768 C767 1.524 1_554 S
C768 C769 1.415 . S
C769 H739 0.950 . S
C769 C764 1.363 1_554 S
C769 C768 1.415 . S
H770 C767 0.999 . S
H771 C752 0.913 . S
H772 C790 0.951 . S
H773 C792 0.951 . S
H774 C794 0.950 . S
H775 C795 0.950 . S
H776 C797 0.950 . S
H777 C800 0.950 . S
H778 C801 0.950 . S
H779 C803 0.950 . S
H780 C804 0.950 . S
H781 C805 0.951 . S
H782 C807 0.951 . S
H783 C809 0.950 . S
H784 C810 0.950 . S
H785 C812 0.950 . S
H786 C815 0.950 . S
H787 C816 0.950 . S
H788 C818 0.950 . S
H789 C819 0.950 . S
C790 H772 0.951 . S
C790 C791 1.366 . S
C790 C792 1.388 . S
C791 C790 1.366 . S
C791 C795 1.385 . S
C792 H773 0.951 . S
C792 C790 1.388 . S
C792 C793 1.366 . S
C793 C792 1.366 . S
C793 C794 1.414 . S
C793 C796 1.499 . S
C794 H774 0.950 . S
C794 C793 1.414 . S
C794 C795 1.374 . S
C795 H775 0.950 . S
C795 C791 1.385 . S
C795 C794 1.374 . S
C796 C793 1.499 . S
C796 C797 1.373 1_554 S
C796 C798 1.389 . S
C797 H776 0.950 . S
C797 C796 1.373 1_556 S
C797 C813 1.377 . S
C798 C796 1.389 . S
C798 C799 1.524 . S
C798 C812 1.377 1_554 S
C799 C798 1.524 . S
C799 C800 1.397 . S
C799 C804 1.363 . S
C800 H777 0.950 . S
C800 C799 1.397 . S
C800 C801 1.334 . S
C801 H778 0.950 . S
C801 C800 1.334 . S
C801 C802 1.287 . S
C802 C801 1.287 . S
C802 C803 1.524 . S
C802 H821 0.913 . S
C803 H779 0.950 . S
C803 C802 1.524 . S
C803 C804 1.415 . S
C804 H780 0.950 . S
C804 C799 1.363 . S
C804 C803 1.415 . S
C805 H781 0.951 . S
C805 C806 1.366 . S
C805 C807 1.388 . S
C806 C805 1.366 . S
C806 C810 1.385 . S
C807 H782 0.951 . S
C807 C805 1.388 . S
C807 C808 1.366 . S
C808 C807 1.366 . S
C808 C809 1.414 . S
C808 C811 1.499 . S
C809 H783 0.950 . S
C809 C808 1.414 . S
C809 C810 1.374 . S
C810 H784 0.950 . S
C810 C806 1.385 . S
C810 C809 1.374 . S
C811 C808 1.499 . S
C811 C812 1.373 . S
C811 C813 1.389 . S
C812 H785 0.950 . S
C812 C798 1.377 1_556 S
C812 C811 1.373 . S
C813 C797 1.377 . S
C813 C811 1.389 . S
C813 C814 1.524 . S
C814 C813 1.524 . S
C814 C815 1.397 . S
C814 C819 1.363 . S
C815 H786 0.950 . S
C815 C814 1.397 . S
C815 C816 1.334 . S
C816 H787 0.950 . S
C816 C815 1.334 . S
C816 C817 1.287 . S
C817 C816 1.287 . S
C817 C818 1.524 . S
C817 H820 0.999 . S
C818 H788 0.950 . S
C818 C817 1.524 . S
C818 C819 1.415 . S
C819 H789 0.950 . S
C819 C814 1.363 . S
C819 C818 1.415 . S
H820 C817 0.999 . S
H821 C802 0.913 . S
H822 C840 0.951 . S
H823 C842 0.951 . S
H824 C844 0.950 . S
H825 C845 0.950 . S
H826 C847 0.949 . S
H827 C850 0.950 1_554 S
H828 C851 0.950 1_554 S
H829 C853 0.949 . S
H830 C854 0.950 . S
H831 C855 0.951 . S
H832 C857 0.951 . S
H833 C859 0.950 . S
H834 C860 0.950 . S
H835 C862 0.950 . S
H836 C865 0.950 . S
H837 C866 0.950 . S
H838 C868 0.950 . S
H839 C869 0.950 . S
C840 H822 0.951 . S
C840 C841 1.363 1_455 S
C840 C842 1.388 . S
C841 C840 1.363 1_655 S
C841 C845 1.387 . S
C842 H823 0.951 . S
C842 C840 1.388 . S
C842 C843 1.366 1_455 S
C843 C842 1.366 1_655 S
C843 C844 1.414 . S
C843 C846 1.499 . S
C844 H824 0.950 . S
C844 C843 1.414 . S
C844 C845 1.374 . S
C845 H825 0.950 . S
C845 C841 1.387 . S
C845 C844 1.374 . S
C846 C843 1.499 . S
C846 C847 1.371 1_655 S
C846 C848 1.389 1_554 S
C847 H826 0.949 . S
C847 C846 1.371 1_455 S
C847 C863 1.378 1_554 S
C848 C846 1.389 1_556 S
C848 C849 1.524 . S
C848 C862 1.377 . S
C849 C848 1.524 . S
C849 C850 1.397 . S
C849 C854 1.363 1_655 S
C850 H827 0.950 1_556 S
C850 C849 1.397 . S
C850 C851 1.334 . S
C851 H828 0.950 1_556 S
C851 C850 1.334 . S
C851 C852 1.287 . S
C852 C851 1.287 . S
C852 C853 1.524 1_655 S
C852 H871 0.913 . S
C853 H829 0.949 . S
C853 C852 1.524 1_455 S
C853 C854 1.415 . S
C854 H830 0.950 . S
C854 C849 1.363 1_455 S
C854 C853 1.415 . S
C855 H831 0.951 . S
C855 C856 1.397 . S
C855 C857 1.388 . S
C856 C855 1.397 . S
C856 C860 1.354 1_655 S
C857 H832 0.951 . S
C857 C855 1.388 . S
C857 C858 1.366 1_655 S
C858 C857 1.366 1_455 S
C858 C859 1.414 . S
C858 C861 1.498 . S
C859 H833 0.950 . S
C859 C858 1.414 . S
C859 C860 1.374 . S
C860 H834 0.950 . S
C860 C856 1.354 1_455 S
C860 C859 1.374 . S
C861 C858 1.498 . S
C861 C862 1.370 1_455 S
C861 C863 1.392 . S
C862 H835 0.950 . S
C862 C848 1.377 . S
C862 C861 1.370 1_655 S
C863 C847 1.378 1_556 S
C863 C861 1.392 . S
C863 C864 1.523 1_556 S
C864 C863 1.523 1_554 S
C864 C865 1.392 1_554 S
C864 C869 1.370 1_455 S
C865 H836 0.950 . S
C865 C864 1.392 1_556 S
C865 C866 1.334 . S
C866 H837 0.950 . S
C866 C865 1.334 . S
C866 C867 1.287 1_556 S
C867 C866 1.287 1_554 S
C867 C868 1.524 1_455 S
C867 H870 0.999 . S
C868 H838 0.950 . S
C868 C867 1.524 1_655 S
C868 C869 1.415 . S
C869 H839 0.950 . S
C869 C864 1.370 1_655 S
C869 C868 1.415 . S
H870 C867 0.999 . S
H871 C852 0.913 . S
H872 C890 0.951 . S
H873 C892 0.951 . S
H874 C894 0.950 . S
H875 C895 0.950 . S
H876 C897 0.950 . S
H877 C900 0.950 . S
H878 C901 0.950 . S
H879 C903 0.950 . S
H880 C904 0.955 1_455 S
H881 C905 0.951 . S
H882 C907 0.951 . S
H883 C909 0.950 . S
H884 C910 0.950 . S
H885 C912 0.950 . S
H886 C915 0.950 . S
H887 C916 0.950 . S
H888 C918 0.950 . S
H889 C919 0.950 . S
C890 H872 0.951 . S
C890 C891 1.366 . S
C890 C892 1.388 . S
C891 C890 1.366 . S
C891 C895 1.385 1_455 S
C892 H873 0.951 . S
C892 C890 1.388 . S
C892 C893 1.366 1_455 S
C893 C892 1.366 1_655 S
C893 C894 1.414 . S
C893 C896 1.499 . S
C894 H874 0.950 . S
C894 C893 1.414 . S
C894 C895 1.374 . S
C895 H875 0.950 . S
C895 C891 1.385 1_655 S
C895 C894 1.374 . S
C896 C893 1.499 . S
C896 C897 1.373 . S
C896 C898 1.389 . S
C897 H876 0.950 . S
C897 C896 1.373 . S
C897 C913 1.377 . S
C898 C896 1.389 . S
C898 C899 1.524 . S
C898 C912 1.377 . S
C899 C898 1.524 . S
C899 C900 1.397 . S
C899 C904 1.363 . S
C900 H877 0.950 . S
C900 C899 1.397 . S
C900 C901 1.334 . S
C901 H878 0.950 . S
C901 C900 1.334 . S
C901 C902 1.287 . S
C902 C901 1.287 . S
C902 C903 1.524 . S
C902 H921 0.913 . S
C903 H879 0.950 . S
C903 C902 1.524 . S
C903 C904 1.415 . S
C904 H880 0.955 1_655 S
C904 C899 1.363 . S
C904 C903 1.415 . S
C905 H881 0.951 . S
C905 C906 1.366 . S
C905 C907 1.388 . S
C906 C905 1.366 . S
C906 C910 1.385 . S
C907 H882 0.951 . S
C907 C905 1.388 . S
C907 C908 1.366 . S
C908 C907 1.366 . S
C908 C909 1.414 . S
C908 C911 1.499 . S
C909 H883 0.950 . S
C909 C908 1.414 . S
C909 C910 1.374 . S
C910 H884 0.950 . S
C910 C906 1.385 . S
C910 C909 1.374 . S
C911 C908 1.499 . S
C911 C912 1.373 . S
C911 C913 1.389 . S
C912 H885 0.950 . S
C912 C898 1.377 . S
C912 C911 1.373 . S
C913 C897 1.377 . S
C913 C911 1.389 . S
C913 C914 1.524 . S
C914 C913 1.524 . S
C914 C915 1.397 1_655 S
C914 C919 1.363 . S
C915 H886 0.950 . S
C915 C914 1.397 1_455 S
C915 C916 1.334 . S
C916 H887 0.950 . S
C916 C915 1.334 . S
C916 C917 1.287 . S
C917 C916 1.287 . S
C917 C918 1.524 1_455 S
C917 H920 0.999 . S
C918 H888 0.950 . S
C918 C917 1.524 1_655 S
C918 C919 1.415 . S
C919 H889 0.950 . S
C919 C914 1.363 . S
C919 C918 1.415 . S
H920 C917 0.999 . S
H921 C902 0.913 . S
H922 C940 0.951 . S
H923 C942 0.951 . S
H924 C944 0.950 . S
H925 C945 0.950 . S
H926 C947 0.950 . S
H927 C950 0.950 . S
H928 C951 0.950 . S
H929 C953 0.950 . S
H930 C954 0.950 . S
H931 C955 0.951 . S
H932 C957 0.951 1_545 S
H933 C959 0.950 . S
H934 C960 0.950 . S
H935 C962 0.950 . S
H936 C965 0.950 . S
H937 C966 0.950 . S
H938 C968 0.950 . S
H939 C969 0.950 1_545 S
C940 H922 0.951 . S
C940 C941 1.366 1_565 S
C940 C942 1.388 . S
C941 C940 1.366 1_545 S
C941 C945 1.385 . S
C942 H923 0.951 . S
C942 C940 1.388 . S
C942 C943 1.366 . S
C943 C942 1.366 . S
C943 C944 1.414 1_565 S
C943 C946 1.499 . S
C944 H924 0.950 . S
C944 C943 1.414 1_545 S
C944 C945 1.374 . S
C945 H925 0.950 . S
C945 C941 1.385 . S
C945 C944 1.374 . S
C946 C943 1.499 . S
C946 C947 1.373 . S
C946 C948 1.389 . S
C947 H926 0.950 . S
C947 C946 1.373 . S
C947 C963 1.377 . S
C948 C946 1.389 . S
C948 C949 1.524 . S
C948 C962 1.377 . S
C949 C948 1.524 . S
C949 C950 1.397 1_565 S
C949 C954 1.363 . S
C950 H927 0.950 . S
C950 C949 1.397 1_545 S
C950 C951 1.334 . S
C951 H928 0.950 . S
C951 C950 1.334 . S
C951 C952 1.287 . S
C952 C951 1.287 . S
C952 C953 1.524 1_545 S
C952 H971 0.913 . S
C953 H929 0.950 . S
C953 C952 1.524 1_565 S
C953 C954 1.415 . S
C954 H930 0.950 . S
C954 C949 1.363 . S
C954 C953 1.415 . S
C955 H931 0.951 . S
C955 C956 1.366 . S
C955 C957 1.388 . S
C956 C955 1.366 . S
C956 C960 1.385 . S
C957 H932 0.951 1_565 S
C957 C955 1.388 . S
C957 C958 1.366 . S
C958 C957 1.366 . S
C958 C959 1.414 . S
C958 C961 1.499 . S
C959 H933 0.950 . S
C959 C958 1.414 . S
C959 C960 1.374 . S
C960 H934 0.950 . S
C960 C956 1.385 . S
C960 C959 1.374 . S
C961 C958 1.499 . S
C961 C962 1.373 . S
C961 C963 1.389 . S
C962 H935 0.950 . S
C962 C948 1.377 . S
C962 C961 1.373 . S
C963 C947 1.377 . S
C963 C961 1.389 . S
C963 C964 1.524 . S
C964 C963 1.524 . S
C964 C965 1.397 . S
C964 C969 1.363 . S
C965 H936 0.950 . S
C965 C964 1.397 . S
C965 C966 1.334 . S
C966 H937 0.950 . S
C966 C965 1.334 . S
C966 C967 1.287 . S
C967 C966 1.287 . S
C967 C968 1.524 . S
C967 H970 0.999 . S
C968 H938 0.950 . S
C968 C967 1.524 . S
C968 C969 1.415 . S
C969 H939 0.950 1_565 S
C969 C964 1.363 . S
C969 C968 1.415 . S
H970 C967 0.999 . S
H971 C952 0.913 . S
H972 C990 0.951 . S
H973 C992 0.951 . S
H974 C994 0.950 . S
H975 C995 0.950 . S
H976 C997 0.950 . S
H977 C1000 0.950 . S
H978 C1001 0.950 . S
H979 C1003 0.950 . S
H980 C1004 0.950 . S
H981 C1005 0.951 . S
H982 C1007 0.951 . S
H983 C1009 0.950 . S
H984 C1010 0.950 . S
H985 C1012 0.950 . S
H986 C1015 0.950 . S
H987 C1016 0.950 . S
H988 C1018 0.950 . S
H989 C1019 0.950 . S
C990 H972 0.951 . S
C990 C991 1.366 . S
C990 C992 1.388 . S
C991 C990 1.366 . S
C991 C995 1.385 . S
C992 H973 0.951 . S
C992 C990 1.388 . S
C992 C993 1.366 . S
C993 C992 1.366 . S
C993 C994 1.414 . S
C993 C996 1.499 . S
C994 H974 0.950 . S
C994 C993 1.414 . S
C994 C995 1.374 . S
C995 H975 0.950 . S
C995 C991 1.385 . S
C995 C994 1.374 . S
C996 C993 1.499 . S
C996 C997 1.373 . S
C996 C998 1.389 . S
C997 H976 0.950 . S
C997 C996 1.373 . S
C997 C1013 1.377 . S
C998 C996 1.389 . S
C998 C999 1.524 . S
C998 C1012 1.377 . S
C999 C998 1.524 . S
C999 C1000 1.397 . S
C999 C1004 1.363 . S
C1000 H977 0.950 . S
C1000 C999 1.397 . S
C1000 C1001 1.334 . S
C1001 H978 0.950 . S
C1001 C1000 1.334 . S
C1001 C1002 1.287 . S
C1002 C1001 1.287 . S
C1002 C1003 1.524 . S
C1002 H1021 0.913 . S
C1003 H979 0.950 . S
C1003 C1002 1.524 . S
C1003 C1004 1.415 . S
C1004 H980 0.950 . S
C1004 C999 1.363 . S
C1004 C1003 1.415 . S
C1005 H981 0.951 . S
C1005 C1006 1.366 . S
C1005 C1007 1.388 . S
C1006 C1005 1.366 . S
C1006 C1010 1.385 . S
C1007 H982 0.951 . S
C1007 C1005 1.388 . S
C1007 C1008 1.366 . S
C1008 C1007 1.366 . S
C1008 C1009 1.414 . S
C1008 C1011 1.499 . S
C1009 H983 0.950 . S
C1009 C1008 1.414 . S
C1009 C1010 1.374 . S
C1010 H984 0.950 . S
C1010 C1006 1.385 . S
C1010 C1009 1.374 . S
C1011 C1008 1.499 . S
C1011 C1012 1.373 . S
C1011 C1013 1.389 . S
C1012 H985 0.950 . S
C1012 C998 1.377 . S
C1012 C1011 1.373 . S
C1013 C997 1.377 . S
C1013 C1011 1.389 . S
C1013 C1014 1.524 . S
C1014 C1013 1.524 . S
C1014 C1015 1.397 . S
C1014 C1019 1.363 . S
C1015 H986 0.950 . S
C1015 C1014 1.397 . S
C1015 C1016 1.334 . S
C1016 H987 0.950 . S
C1016 C1015 1.334 . S
C1016 C1017 1.287 . S
C1017 C1016 1.287 . S
C1017 C1018 1.524 . S
C1017 H1020 0.999 . S
C1018 H988 0.950 . S
C1018 C1017 1.524 . S
C1018 C1019 1.415 . S
C1019 H989 0.950 . S
C1019 C1014 1.363 . S
C1019 C1018 1.415 . S
H1020 C1017 0.999 . S
H1021 C1002 0.913 . S
H1022 C1040 0.951 . S
H1023 C1042 0.951 . S
H1024 C1044 0.950 . S
H1025 C1045 0.950 . S
H1026 C1047 0.950 . S
H1027 C1050 0.950 . S
H1028 C1051 0.950 . S
H1029 C1053 0.950 . S
H1030 C1054 0.950 . S
H1031 C1055 0.951 . S
H1032 C1057 0.951 . S
H1033 C1059 0.950 . S
H1034 C1060 0.950 . S
H1035 C1062 0.950 . S
H1036 C1065 0.950 . S
H1037 C1066 0.950 . S
H1038 C1068 0.950 . S
H1039 C1069 0.950 . S
C1040 H1022 0.951 . S
C1040 C1041 1.366 . S
C1040 C1042 1.388 . S
C1041 C1040 1.366 . S
C1041 C1045 1.385 . S
C1042 H1023 0.951 . S
C1042 C1040 1.388 . S
C1042 C1043 1.366 . S
C1043 C1042 1.366 . S
C1043 C1044 1.414 . S
C1043 C1046 1.499 . S
C1044 H1024 0.950 . S
C1044 C1043 1.414 . S
C1044 C1045 1.374 . S
C1045 H1025 0.950 . S
C1045 C1041 1.385 . S
C1045 C1044 1.374 . S
C1046 C1043 1.499 . S
C1046 C1047 1.373 . S
C1046 C1048 1.389 . S
C1047 H1026 0.950 . S
C1047 C1046 1.373 . S
C1047 C1063 1.377 . S
C1048 C1046 1.389 . S
C1048 C1049 1.524 . S
C1048 C1062 1.377 . S
C1049 C1048 1.524 . S
C1049 C1050 1.397 . S
C1049 C1054 1.363 . S
C1050 H1027 0.950 . S
C1050 C1049 1.397 . S
C1050 C1051 1.334 . S
C1051 H1028 0.950 . S
C1051 C1050 1.334 . S
C1051 C1052 1.287 . S
C1052 C1051 1.287 . S
C1052 C1053 1.524 . S
C1052 H1071 0.913 . S
C1053 H1029 0.950 . S
C1053 C1052 1.524 . S
C1053 C1054 1.415 . S
C1054 H1030 0.950 . S
C1054 C1049 1.363 . S
C1054 C1053 1.415 . S
C1055 H1031 0.951 . S
C1055 C1056 1.366 . S
C1055 C1057 1.388 . S
C1056 C1055 1.366 . S
C1056 C1060 1.385 . S
C1057 H1032 0.951 . S
C1057 C1055 1.388 . S
C1057 C1058 1.366 . S
C1058 C1057 1.366 . S
C1058 C1059 1.414 . S
C1058 C1061 1.499 . S
C1059 H1033 0.950 . S
C1059 C1058 1.414 . S
C1059 C1060 1.374 . S
C1060 H1034 0.950 . S
C1060 C1056 1.385 . S
C1060 C1059 1.374 . S
C1061 C1058 1.499 . S
C1061 C1062 1.373 . S
C1061 C1063 1.389 . S
C1062 H1035 0.950 . S
C1062 C1048 1.377 . S
C1062 C1061 1.373 . S
C1063 C1047 1.377 . S
C1063 C1061 1.389 . S
C1063 C1064 1.524 . S
C1064 C1063 1.524 . S
C1064 C1065 1.397 . S
C1064 C1069 1.363 . S
C1065 H1036 0.950 . S
C1065 C1064 1.397 . S
C1065 C1066 1.334 . S
C1066 H1037 0.950 . S
C1066 C1065 1.334 . S
C1066 C1067 1.287 . S
C1067 C1066 1.287 . S
C1067 C1068 1.524 . S
C1067 H1070 0.999 . S
C1068 H1038 0.950 . S
C1068 C1067 1.524 . S
C1068 C1069 1.415 . S
C1069 H1039 0.950 . S
C1069 C1064 1.363 . S
C1069 C1068 1.415 . S
H1070 C1067 0.999 . S
H1071 C1052 0.913 . S
H1072 C1090 0.951 . S
H1073 C1092 0.951 . S
H1074 C1094 0.950 1_556 S
H1075 C1095 0.950 . S
H1076 C1097 0.950 . S
H1077 C1100 0.950 1_556 S
H1078 C1101 0.950 . S
H1079 C1103 0.950 . S
H1080 C1104 0.950 . S
H1081 C1105 0.951 . S
H1082 C1107 0.951 . S
H1083 C1109 0.950 . S
H1084 C1110 0.950 . S
H1085 C1112 0.950 . S
H1086 C1115 0.950 . S
H1087 C1116 0.950 . S
H1088 C1118 0.950 . S
H1089 C1119 0.950 . S
C1090 H1072 0.951 . S
C1090 C1091 1.366 . S
C1090 C1092 1.388 . S
C1091 C1090 1.366 . S
C1091 C1095 1.385 1_655 S
C1092 H1073 0.951 . S
C1092 C1090 1.388 . S
C1092 C1093 1.366 1_655 S
C1093 C1092 1.366 1_455 S
C1093 C1094 1.414 . S
C1093 C1096 1.499 . S
C1094 H1074 0.950 1_554 S
C1094 C1093 1.414 . S
C1094 C1095 1.374 . S
C1095 H1075 0.950 . S
C1095 C1091 1.385 1_455 S
C1095 C1094 1.374 . S
C1096 C1093 1.499 . S
C1096 C1097 1.373 1_554 S
C1096 C1098 1.389 1_455 S
C1097 H1076 0.950 . S
C1097 C1096 1.373 1_556 S
C1097 C1113 1.377 . S
C1098 C1096 1.389 1_655 S
C1098 C1099 1.524 . S
C1098 C1112 1.377 1_554 S
C1099 C1098 1.524 . S
C1099 C1100 1.397 . S
C1099 C1104 1.363 . S
C1100 H1077 0.950 1_554 S
C1100 C1099 1.397 . S
C1100 C1101 1.334 . S
C1101 H1078 0.950 . S
C1101 C1100 1.334 . S
C1101 C1102 1.287 . S
C1102 C1101 1.287 . S
C1102 C1103 1.524 . S
C1102 H1121 0.913 . S
C1103 H1079 0.950 . S
C1103 C1102 1.524 . S
C1103 C1104 1.415 . S
C1104 H1080 0.950 . S
C1104 C1099 1.363 . S
C1104 C1103 1.415 . S
C1105 H1081 0.951 . S
C1105 C1106 1.366 . S
C1105 C1107 1.388 . S
C1106 C1105 1.366 . S
C1106 C1110 1.385 . S
C1107 H1082 0.951 . S
C1107 C1105 1.388 . S
C1107 C1108 1.366 . S
C1108 C1107 1.366 . S
C1108 C1109 1.414 . S
C1108 C1111 1.499 . S
C1109 H1083 0.950 . S
C1109 C1108 1.414 . S
C1109 C1110 1.374 . S
C1110 H1084 0.950 . S
C1110 C1106 1.385 . S
C1110 C1109 1.374 . S
C1111 C1108 1.499 . S
C1111 C1112 1.373 1_455 S
C1111 C1113 1.389 . S
C1112 H1085 0.950 . S
C1112 C1098 1.377 1_556 S
C1112 C1111 1.373 1_655 S
C1113 C1097 1.377 . S
C1113 C1111 1.389 . S
C1113 C1114 1.524 . S
C1114 C1113 1.524 . S
C1114 C1115 1.397 . S
C1114 C1119 1.363 . S
C1115 H1086 0.950 . S
C1115 C1114 1.397 . S
C1115 C1116 1.334 . S
C1116 H1087 0.950 . S
C1116 C1115 1.334 . S
C1116 C1117 1.287 . S
C1117 C1116 1.287 . S
C1117 C1118 1.524 . S
C1117 H1120 0.999 . S
C1118 H1088 0.950 . S
C1118 C1117 1.524 . S
C1118 C1119 1.415 . S
C1119 H1089 0.950 . S
C1119 C1114 1.363 . S
C1119 C1118 1.415 . S
H1120 C1117 0.999 . S
H1121 C1102 0.913 . S
H1122 C1140 0.951 . S
H1123 C1142 0.951 . S
H1124 C1144 0.934 1_556 S
H1125 C1145 0.950 . S
H1126 C1147 0.954 . S
H1127 C1150 0.950 . S
H1128 C1151 0.950 . S
H1129 C1153 0.950 . S
H1130 C1154 0.950 . S
H1131 C1155 0.951 . S
H1132 C1157 0.951 . S
H1133 C1159 0.954 1_565 S
H1134 C1160 0.950 . S
H1135 C1162 0.950 . S
H1136 C1165 0.950 1_554 S
H1137 C1166 0.950 1_554 S
H1138 C1168 0.950 . S
H1139 C1169 0.950 . S
C1140 H1122 0.951 . S
C1140 C1141 1.366 . S
C1140 C1142 1.388 . S
C1141 C1140 1.366 . S
C1141 C1145 1.385 1_565 S
C1142 H1123 0.951 . S
C1142 C1140 1.388 . S
C1142 C1143 1.366 1_565 S
C1143 C1142 1.366 1_545 S
C1143 C1144 1.414 . S
C1143 C1146 1.499 . S
C1144 H1124 0.934 1_554 S
C1144 C1143 1.414 . S
C1144 C1145 1.374 . S
C1145 H1125 0.950 . S
C1145 C1141 1.385 1_545 S
C1145 C1144 1.374 . S
C1146 C1143 1.499 . S
C1146 C1147 1.375 . S
C1146 C1148 1.389 1_544 S
C1147 H1126 0.954 . S
C1147 C1146 1.375 . S
C1147 C1163 1.371 1_554 S
C1148 C1146 1.389 1_566 S
C1148 C1149 1.524 . S
C1148 C1162 1.377 . S
C1149 C1148 1.524 . S
C1149 C1150 1.397 . S
C1149 C1154 1.363 1_556 S
C1150 H1127 0.950 . S
C1150 C1149 1.397 . S
C1150 C1151 1.334 . S
C1151 H1128 0.950 . S
C1151 C1150 1.334 . S
C1151 C1152 1.287 . S
C1152 C1151 1.287 . S
C1152 C1153 1.524 1_556 S
C1152 H1171 0.913 . S
C1153 H1129 0.950 . S
C1153 C1152 1.524 1_554 S
C1153 C1154 1.415 . S
C1154 H1130 0.950 . S
C1154 C1149 1.363 1_554 S
C1154 C1153 1.415 . S
C1155 H1131 0.951 . S
C1155 C1156 1.366 . S
C1155 C1157 1.388 . S
C1156 C1155 1.366 . S
C1156 C1160 1.385 . S
C1157 H1132 0.951 . S
C1157 C1155 1.388 . S
C1157 C1158 1.366 . S
C1158 C1157 1.366 . S
C1158 C1159 1.414 . S
C1158 C1161 1.499 . S
C1159 H1133 0.954 1_545 S
C1159 C1158 1.414 . S
C1159 C1160 1.374 . S
C1160 H1134 0.950 . S
C1160 C1156 1.385 . S
C1160 C1159 1.374 . S
C1161 C1158 1.499 . S
C1161 C1162 1.373 1_545 S
C1161 C1163 1.389 . S
C1162 H1135 0.950 . S
C1162 C1148 1.377 . S
C1162 C1161 1.373 1_565 S
C1163 C1147 1.371 1_556 S
C1163 C1161 1.389 . S
C1163 C1164 1.524 . S
C1164 C1163 1.524 . S
C1164 C1165 1.397 . S
C1164 C1169 1.363 . S
C1165 H1136 0.950 1_556 S
C1165 C1164 1.397 . S
C1165 C1166 1.334 . S
C1166 H1137 0.950 1_556 S
C1166 C1165 1.334 . S
C1166 C1167 1.287 . S
C1167 C1166 1.287 . S
C1167 C1168 1.524 . S
C1167 H1170 0.999 . S
C1168 H1138 0.950 . S
C1168 C1167 1.524 . S
C1168 C1169 1.415 . S
C1169 H1139 0.950 . S
C1169 C1164 1.363 . S
C1169 C1168 1.415 . S
H1170 C1167 0.999 . S
H1171 C1152 0.913 . S
H1172 C1190 0.951 . S
H1173 C1192 0.951 1_556 S
H1174 C1194 0.950 . S
H1175 C1195 0.950 . S
H1176 C1197 0.950 . S
H1177 C1200 0.950 . S
H1178 C1201 0.950 . S
H1179 C1203 0.950 . S
H1180 C1204 0.950 . S
H1181 C1205 0.951 . S
H1182 C1207 0.951 . S
H1183 C1209 0.950 . S
H1184 C1210 0.950 . S
H1185 C1212 0.950 . S
H1186 C1215 0.950 . S
H1187 C1216 0.950 . S
H1188 C1218 0.950 . S
H1189 C1219 0.950 . S
C1190 H1172 0.951 . S
C1190 C1191 1.366 . S
C1190 C1192 1.388 . S
C1191 C1190 1.366 . S
C1191 C1195 1.385 . S
C1192 H1173 0.951 1_554 S
C1192 C1190 1.388 . S
C1192 C1193 1.366 . S
C1193 C1192 1.366 . S
C1193 C1194 1.414 . S
C1193 C1196 1.499 . S
C1194 H1174 0.950 . S
C1194 C1193 1.414 . S
C1194 C1195 1.374 . S
C1195 H1175 0.950 . S
C1195 C1191 1.385 . S
C1195 C1194 1.374 . S
C1196 C1193 1.499 . S
C1196 C1197 1.373 . S
C1196 C1198 1.389 1_554 S
C1197 H1176 0.950 . S
C1197 C1196 1.373 . S
C1197 C1213 1.377 1_554 S
C1198 C1196 1.389 1_556 S
C1198 C1199 1.524 . S
C1198 C1212 1.377 . S
C1199 C1198 1.524 . S
C1199 C1200 1.397 1_556 S
C1199 C1204 1.363 . S
C1200 H1177 0.950 . S
C1200 C1199 1.397 1_554 S
C1200 C1201 1.334 . S
C1201 H1178 0.950 . S
C1201 C1200 1.334 . S
C1201 C1202 1.287 . S
C1202 C1201 1.287 . S
C1202 C1203 1.524 1_554 S
C1202 H1221 0.913 . S
C1203 H1179 0.950 . S
C1203 C1202 1.524 1_556 S
C1203 C1204 1.415 . S
C1204 H1180 0.950 . S
C1204 C1199 1.363 . S
C1204 C1203 1.415 . S
C1205 H1181 0.951 . S
C1205 C1206 1.366 . S
C1205 C1207 1.388 . S
C1206 C1205 1.366 . S
C1206 C1210 1.385 . S
C1207 H1182 0.951 . S
C1207 C1205 1.388 . S
C1207 C1208 1.366 . S
C1208 C1207 1.366 . S
C1208 C1209 1.414 . S
C1208 C1211 1.499 . S
C1209 H1183 0.950 . S
C1209 C1208 1.414 . S
C1209 C1210 1.374 . S
C1210 H1184 0.950 . S
C1210 C1206 1.385 . S
C1210 C1209 1.374 . S
C1211 C1208 1.499 . S
C1211 C1212 1.373 . S
C1211 C1213 1.389 . S
C1212 H1185 0.950 . S
C1212 C1198 1.377 . S
C1212 C1211 1.373 . S
C1213 C1197 1.377 1_556 S
C1213 C1211 1.389 . S
C1213 C1214 1.524 . S
C1214 C1213 1.524 . S
C1214 C1215 1.397 . S
C1214 C1219 1.363 1_556 S
C1215 H1186 0.950 . S
C1215 C1214 1.397 . S
C1215 C1216 1.334 . S
C1216 H1187 0.950 . S
C1216 C1215 1.334 . S
C1216 C1217 1.287 . S
C1217 C1216 1.287 . S
C1217 C1218 1.524 1_556 S
C1217 H1220 0.999 . S
C1218 H1188 0.950 . S
C1218 C1217 1.524 1_554 S
C1218 C1219 1.415 . S
C1219 H1189 0.950 . S
C1219 C1214 1.363 1_554 S
C1219 C1218 1.415 . S
H1220 C1217 0.999 . S
H1221 C1202 0.913 . S
H1222 C1240 0.951 . S
H1223 C1242 0.951 . S
H1224 C1244 0.950 . S
H1225 C1245 0.950 . S
H1226 C1247 0.950 . S
H1227 C1250 0.950 . S
H1228 C1251 0.950 . S
H1229 C1253 0.950 . S
H1230 C1254 0.950 . S
H1231 C1255 0.951 . S
H1232 C1257 0.951 . S
H1233 C1259 0.950 . S
H1234 C1260 0.950 . S
H1235 C1262 0.951 . S
H1236 C1265 0.950 . S
H1237 C1266 0.950 . S
H1238 C1268 0.950 . S
H1239 C1269 0.950 . S
C1240 H1222 0.951 . S
C1240 C1241 1.366 . S
C1240 C1242 1.388 . S
C1241 C1240 1.366 . S
C1241 C1245 1.385 . S
C1242 H1223 0.951 . S
C1242 C1240 1.388 . S
C1242 C1243 1.366 . S
C1243 C1242 1.366 . S
C1243 C1244 1.414 . S
C1243 C1246 1.499 . S
C1244 H1224 0.950 . S
C1244 C1243 1.414 . S
C1244 C1245 1.374 . S
C1245 H1225 0.950 . S
C1245 C1241 1.385 . S
C1245 C1244 1.374 . S
C1246 C1243 1.499 . S
C1246 C1247 1.373 1_554 S
C1246 C1248 1.389 . S
C1247 H1226 0.950 . S
C1247 C1246 1.373 1_556 S
C1247 C1263 1.377 . S
C1248 C1246 1.389 . S
C1248 C1249 1.524 . S
C1248 C1262 1.377 1_554 S
C1249 C1248 1.524 . S
C1249 C1250 1.397 . S
C1249 C1254 1.363 . S
C1250 H1227 0.950 . S
C1250 C1249 1.397 . S
C1250 C1251 1.334 . S
C1251 H1228 0.950 . S
C1251 C1250 1.334 . S
C1251 C1252 1.287 . S
C1252 C1251 1.287 . S
C1252 C1253 1.524 . S
C1252 H1271 0.913 . S
C1253 H1229 0.950 . S
C1253 C1252 1.524 . S
C1253 C1254 1.415 . S
C1254 H1230 0.950 . S
C1254 C1249 1.363 . S
C1254 C1253 1.415 . S
C1255 H1231 0.951 . S
C1255 C1256 1.366 . S
C1255 C1257 1.388 . S
C1256 C1255 1.366 . S
C1256 C1260 1.385 . S
C1257 H1232 0.951 . S
C1257 C1255 1.388 . S
C1257 C1258 1.366 . S
C1258 C1257 1.366 . S
C1258 C1259 1.414 . S
C1258 C1261 1.499 . S
C1259 H1233 0.950 . S
C1259 C1258 1.414 . S
C1259 C1260 1.374 . S
C1260 H1234 0.950 . S
C1260 C1256 1.385 . S
C1260 C1259 1.374 . S
C1261 C1258 1.499 . S
C1261 C1262 1.373 . S
C1261 C1263 1.389 . S
C1262 H1235 0.951 . S
C1262 C1248 1.377 1_556 S
C1262 C1261 1.373 . S
C1263 C1247 1.377 . S
C1263 C1261 1.389 . S
C1263 C1264 1.524 . S
C1264 C1263 1.524 . S
C1264 C1265 1.397 . S
C1264 C1269 1.363 . S
C1265 H1236 0.950 . S
C1265 C1264 1.397 . S
C1265 C1266 1.334 . S
C1266 H1237 0.950 . S
C1266 C1265 1.334 . S
C1266 C1267 1.287 . S
C1267 C1266 1.287 . S
C1267 C1268 1.524 . S
C1267 H1270 0.999 . S
C1268 H1238 0.950 . S
C1268 C1267 1.524 . S
C1268 C1269 1.415 . S
C1269 H1239 0.950 . S
C1269 C1264 1.363 . S
C1269 C1268 1.415 . S
H1270 C1267 0.999 . S
H1271 C1252 0.913 . S
H1272 C1290 0.949 1_655 S
H1273 C1292 0.950 . S
H1274 C1294 0.950 . S
H1275 C1295 0.950 . S
H1276 C1297 0.950 . S
H1277 C1300 0.950 . S
H1278 C1301 0.950 . S
H1279 C1303 0.950 . S
H1280 C1304 0.950 . S
H1281 C1305 0.951 . S
H1282 C1307 0.951 . S
H1283 C1309 0.950 . S
H1284 C1310 0.950 . S
H1285 C1312 0.950 . S
H1286 C1315 0.950 . S
H1287 C1316 0.950 . S
H1288 C1318 0.950 . S
H1289 C1319 0.950 . S
C1290 H1272 0.949 1_455 S
C1290 C1291 1.367 . S
C1290 C1292 1.388 . S
C1291 C1290 1.367 . S
C1291 C1295 1.385 . S
C1292 H1273 0.950 . S
C1292 C1290 1.388 . S
C1292 C1293 1.368 . S
C1293 C1292 1.368 . S
C1293 C1294 1.414 . S
C1293 C1296 1.499 . S
C1294 H1274 0.950 . S
C1294 C1293 1.414 . S
C1294 C1295 1.374 . S
C1295 H1275 0.950 . S
C1295 C1291 1.385 . S
C1295 C1294 1.374 . S
C1296 C1293 1.499 . S
C1296 C1297 1.373 . S
C1296 C1298 1.389 1_455 S
C1297 H1276 0.950 . S
C1297 C1296 1.373 . S
C1297 C1313 1.377 . S
C1298 C1296 1.389 1_655 S
C1298 C1299 1.524 . S
C1298 C1312 1.377 . S
C1299 C1298 1.524 . S
C1299 C1300 1.397 . S
C1299 C1304 1.363 . S
C1300 H1277 0.950 . S
C1300 C1299 1.397 . S
C1300 C1301 1.334 . S
C1301 H1278 0.950 . S
C1301 C1300 1.334 . S
C1301 C1302 1.287 . S
C1302 C1301 1.287 . S
C1302 C1303 1.524 . S
C1302 H1321 0.913 . S
C1303 H1279 0.950 . S
C1303 C1302 1.524 . S
C1303 C1304 1.415 . S
C1304 H1280 0.950 . S
C1304 C1299 1.363 . S
C1304 C1303 1.415 . S
C1305 H1281 0.951 . S
C1305 C1306 1.366 . S
C1305 C1307 1.388 . S
C1306 C1305 1.366 . S
C1306 C1310 1.385 . S
C1307 H1282 0.951 . S
C1307 C1305 1.388 . S
C1307 C1308 1.366 . S
C1308 C1307 1.366 . S
C1308 C1309 1.414 . S
C1308 C1311 1.499 . S
C1309 H1283 0.950 . S
C1309 C1308 1.414 . S
C1309 C1310 1.374 . S
C1310 H1284 0.950 . S
C1310 C1306 1.385 . S
C1310 C1309 1.374 . S
C1311 C1308 1.499 . S
C1311 C1312 1.373 1_455 S
C1311 C1313 1.389 . S
C1312 H1285 0.950 . S
C1312 C1298 1.377 . S
C1312 C1311 1.373 1_655 S
C1313 C1297 1.377 . S
C1313 C1311 1.389 . S
C1313 C1314 1.524 . S
C1314 C1313 1.524 . S
C1314 C1315 1.397 . S
C1314 C1319 1.363 . S
C1315 H1286 0.950 . S
C1315 C1314 1.397 . S
C1315 C1316 1.334 . S
C1316 H1287 0.950 . S
C1316 C1315 1.334 . S
C1316 C1317 1.287 . S
C1317 C1316 1.287 . S
C1317 C1318 1.524 . S
C1317 H1320 0.999 . S
C1318 H1288 0.950 . S
C1318 C1317 1.524 . S
C1318 C1319 1.415 . S
C1319 H1289 0.950 . S
C1319 C1314 1.363 . S
C1319 C1318 1.415 . S
H1320 C1317 0.999 . S
H1321 C1302 0.913 . S
H1322 C1340 0.951 . S
H1323 C1342 0.951 . S
H1324 C1344 0.950 . S
H1325 C1345 0.950 . S
H1326 C1347 0.950 . S
H1327 C1350 0.950 1_545 S
H1328 C1351 0.950 . S
H1329 C1353 0.950 . S
H1330 C1354 0.950 . S
H1331 C1355 0.951 . S
H1332 C1357 0.951 . S
H1333 C1359 0.950 . S
H1334 C1360 0.950 . S
H1335 C1362 0.950 . S
H1336 C1365 0.906 1_565 S
H1337 C1366 0.950 . S
H1338 C1368 0.950 . S
H1339 C1369 0.950 . S
C1340 H1322 0.951 . S
C1340 C1341 1.366 1_565 S
C1340 C1342 1.388 . S
C1341 C1340 1.366 1_545 S
C1341 C1345 1.385 . S
C1342 H1323 0.951 . S
C1342 C1340 1.388 . S
C1342 C1343 1.366 1_565 S
C1343 C1342 1.366 1_545 S
C1343 C1344 1.414 . S
C1343 C1346 1.499 . S
C1344 H1324 0.950 . S
C1344 C1343 1.414 . S
C1344 C1345 1.374 . S
C1345 H1325 0.950 . S
C1345 C1341 1.385 . S
C1345 C1344 1.374 . S
C1346 C1343 1.499 . S
C1346 C1347 1.373 . S
C1346 C1348 1.389 1_545 S
C1347 H1326 0.950 . S
C1347 C1346 1.373 . S
C1347 C1363 1.377 . S
C1348 C1346 1.389 1_565 S
C1348 C1349 1.524 . S
C1348 C1362 1.377 . S
C1349 C1348 1.524 . S
C1349 C1350 1.397 . S
C1349 C1354 1.363 . S
C1350 H1327 0.950 1_565 S
C1350 C1349 1.397 . S
C1350 C1351 1.334 . S
C1351 H1328 0.950 . S
C1351 C1350 1.334 . S
C1351 C1352 1.287 . S
C1352 C1351 1.287 . S
C1352 C1353 1.524 . S
C1352 H1371 0.913 . S
C1353 H1329 0.950 . S
C1353 C1352 1.524 . S
C1353 C1354 1.415 . S
C1354 H1330 0.950 . S
C1354 C1349 1.363 . S
C1354 C1353 1.415 . S
C1355 H1331 0.951 . S
C1355 C1356 1.366 . S
C1355 C1357 1.388 . S
C1356 C1355 1.366 . S
C1356 C1360 1.385 1_545 S
C1357 H1332 0.951 . S
C1357 C1355 1.388 . S
C1357 C1358 1.366 . S
C1358 C1357 1.366 . S
C1358 C1359 1.414 1_545 S
C1358 C1361 1.499 . S
C1359 H1333 0.950 . S
C1359 C1358 1.414 1_565 S
C1359 C1360 1.374 . S
C1360 H1334 0.950 . S
C1360 C1356 1.385 1_565 S
C1360 C1359 1.374 . S
C1361 C1358 1.499 . S
C1361 C1362 1.373 1_545 S
C1361 C1363 1.389 . S
C1362 H1335 0.950 . S
C1362 C1348 1.377 . S
C1362 C1361 1.373 1_565 S
C1363 C1347 1.377 . S
C1363 C1361 1.389 . S
C1363 C1364 1.524 . S
C1364 C1363 1.524 . S
C1364 C1365 1.397 . S
C1364 C1369 1.363 . S
C1365 H1336 0.906 1_545 S
C1365 C1364 1.397 . S
C1365 C1366 1.334 . S
C1366 H1337 0.950 . S
C1366 C1365 1.334 . S
C1366 C1367 1.287 . S
C1367 C1366 1.287 . S
C1367 C1368 1.524 . S
C1367 H1370 0.999 . S
C1368 H1338 0.950 . S
C1368 C1367 1.524 . S
C1368 C1369 1.415 . S
C1369 H1339 0.950 . S
C1369 C1364 1.363 . S
C1369 C1368 1.415 . S
H1370 C1367 0.999 . S
H1371 C1352 0.913 . S
H1372 C1390 0.951 . S
H1373 C1392 0.951 . S
H1374 C1394 0.950 . S
H1375 C1395 0.950 . S
H1376 C1397 0.950 . S
H1377 C1400 0.950 . S
H1378 C1401 0.950 . S
H1379 C1403 0.950 . S
H1380 C1404 0.950 . S
H1381 C1405 0.951 . S
H1382 C1407 0.951 . S
H1383 C1409 0.950 . S
H1384 C1410 0.950 . S
H1385 C1412 0.950 . S
H1386 C1415 0.950 . S
H1387 C1416 0.950 . S
H1388 C1418 0.950 . S
H1389 C1419 0.950 . S
C1390 H1372 0.951 . S
C1390 C1391 1.366 . S
C1390 C1392 1.388 . S
C1391 C1390 1.366 . S
C1391 C1395 1.385 . S
C1392 H1373 0.951 . S
C1392 C1390 1.388 . S
C1392 C1393 1.366 . S
C1393 C1392 1.366 . S
C1393 C1394 1.414 . S
C1393 C1396 1.499 . S
C1394 H1374 0.950 . S
C1394 C1393 1.414 . S
C1394 C1395 1.374 . S
C1395 H1375 0.950 . S
C1395 C1391 1.385 . S
C1395 C1394 1.374 . S
C1396 C1393 1.499 . S
C1396 C1397 1.373 . S
C1396 C1398 1.389 . S
C1397 H1376 0.950 . S
C1397 C1396 1.373 . S
C1397 C1413 1.377 . S
C1398 C1396 1.389 . S
C1398 C1399 1.524 . S
C1398 C1412 1.377 . S
C1399 C1398 1.524 . S
C1399 C1400 1.397 . S
C1399 C1404 1.363 . S
C1400 H1377 0.950 . S
C1400 C1399 1.397 . S
C1400 C1401 1.334 . S
C1401 H1378 0.950 . S
C1401 C1400 1.334 . S
C1401 C1402 1.287 . S
C1402 C1401 1.287 . S
C1402 C1403 1.524 . S
C1402 H1421 0.913 . S
C1403 H1379 0.950 . S
C1403 C1402 1.524 . S
C1403 C1404 1.415 . S
C1404 H1380 0.950 . S
C1404 C1399 1.363 . S
C1404 C1403 1.415 . S
C1405 H1381 0.951 . S
C1405 C1406 1.366 . S
C1405 C1407 1.388 . S
C1406 C1405 1.366 . S
C1406 C1410 1.385 . S
C1407 H1382 0.951 . S
C1407 C1405 1.388 . S
C1407 C1408 1.366 . S
C1408 C1407 1.366 . S
C1408 C1409 1.414 . S
C1408 C1411 1.499 . S
C1409 H1383 0.950 . S
C1409 C1408 1.414 . S
C1409 C1410 1.374 . S
C1410 H1384 0.950 . S
C1410 C1406 1.385 . S
C1410 C1409 1.374 . S
C1411 C1408 1.499 . S
C1411 C1412 1.373 . S
C1411 C1413 1.389 . S
C1412 H1385 0.950 . S
C1412 C1398 1.377 . S
C1412 C1411 1.373 . S
C1413 C1397 1.377 . S
C1413 C1411 1.389 . S
C1413 C1414 1.524 . S
C1414 C1413 1.524 . S
C1414 C1415 1.397 . S
C1414 C1419 1.363 . S
C1415 H1386 0.950 . S
C1415 C1414 1.397 . S
C1415 C1416 1.334 . S
C1416 H1387 0.950 . S
C1416 C1415 1.334 . S
C1416 C1417 1.287 . S
C1417 C1416 1.287 . S
C1417 C1418 1.524 . S
C1417 H1420 0.999 . S
C1418 H1388 0.950 . S
C1418 C1417 1.524 . S
C1418 C1419 1.415 . S
C1419 H1389 0.950 . S
C1419 C1414 1.363 . S
C1419 C1418 1.415 . S
H1420 C1417 0.999 . S
H1421 C1402 0.913 . S
H1422 C1440 0.951 . S
H1423 C1442 0.951 . S
H1424 C1444 0.950 . S
H1425 C1445 0.950 . S
H1426 C1447 0.950 . S
H1427 C1450 0.950 . S
H1428 C1451 0.950 . S
H1429 C1453 0.950 . S
H1430 C1454 0.950 . S
H1431 C1455 0.951 . S
H1432 C1457 0.951 . S
H1433 C1459 0.950 . S
H1434 C1460 0.950 . S
H1435 C1462 0.950 . S
H1436 C1465 0.950 . S
H1437 C1466 0.950 . S
H1438 C1468 0.950 . S
H1439 C1469 0.950 . S
C1440 H1422 0.951 . S
C1440 C1441 1.366 . S
C1440 C1442 1.388 . S
C1441 C1440 1.366 . S
C1441 C1445 1.385 . S
C1442 H1423 0.951 . S
C1442 C1440 1.388 . S
C1442 C1443 1.366 . S
C1443 C1442 1.366 . S
C1443 C1444 1.414 . S
C1443 C1446 1.499 . S
C1444 H1424 0.950 . S
C1444 C1443 1.414 . S
C1444 C1445 1.374 . S
C1445 H1425 0.950 . S
C1445 C1441 1.385 . S
C1445 C1444 1.374 . S
C1446 C1443 1.499 . S
C1446 C1447 1.373 . S
C1446 C1448 1.389 . S
C1447 H1426 0.950 . S
C1447 C1446 1.373 . S
C1447 C1463 1.377 . S
C1448 C1446 1.389 . S
C1448 C1449 1.524 . S
C1448 C1462 1.377 . S
C1449 C1448 1.524 . S
C1449 C1450 1.397 . S
C1449 C1454 1.363 . S
C1450 H1427 0.950 . S
C1450 C1449 1.397 . S
C1450 C1451 1.334 . S
C1451 H1428 0.950 . S
C1451 C1450 1.334 . S
C1451 C1452 1.287 . S
C1452 C1451 1.287 . S
C1452 C1453 1.524 . S
C1452 H1471 0.913 . S
C1453 H1429 0.950 . S
C1453 C1452 1.524 . S
C1453 C1454 1.415 . S
C1454 H1430 0.950 . S
C1454 C1449 1.363 . S
C1454 C1453 1.415 . S
C1455 H1431 0.951 . S
C1455 C1456 1.366 . S
C1455 C1457 1.388 . S
C1456 C1455 1.366 . S
C1456 C1460 1.385 . S
C1457 H1432 0.951 . S
C1457 C1455 1.388 . S
C1457 C1458 1.366 . S
C1458 C1457 1.366 . S
C1458 C1459 1.414 . S
C1458 C1461 1.499 . S
C1459 H1433 0.950 . S
C1459 C1458 1.414 . S
C1459 C1460 1.374 . S
C1460 H1434 0.950 . S
C1460 C1456 1.385 . S
C1460 C1459 1.374 . S
C1461 C1458 1.499 . S
C1461 C1462 1.373 . S
C1461 C1463 1.389 . S
C1462 H1435 0.950 . S
C1462 C1448 1.377 . S
C1462 C1461 1.373 . S
C1463 C1447 1.377 . S
C1463 C1461 1.389 . S
C1463 C1464 1.524 . S
C1464 C1463 1.524 . S
C1464 C1465 1.397 . S
C1464 C1469 1.363 . S
C1465 H1436 0.950 . S
C1465 C1464 1.397 . S
C1465 C1466 1.334 . S
C1466 H1437 0.950 . S
C1466 C1465 1.334 . S
C1466 C1467 1.287 . S
C1467 C1466 1.287 . S
C1467 C1468 1.524 . S
C1467 H1470 0.999 . S
C1468 H1438 0.950 . S
C1468 C1467 1.524 . S
C1468 C1469 1.415 . S
C1469 H1439 0.950 . S
C1469 C1464 1.363 . S
C1469 C1468 1.415 . S
H1470 C1467 0.999 . S
H1471 C1452 0.913 . S
H1472 C1490 0.951 . S
H1473 C1492 0.951 . S
H1474 C1494 0.950 . S
H1475 C1495 0.950 . S
H1476 C1497 0.950 . S
H1477 C1500 0.950 . S
H1478 C1501 0.950 . S
H1479 C1503 0.950 . S
H1480 C1504 0.950 . S
H1481 C1505 0.951 . S
H1482 C1507 0.951 . S
H1483 C1509 0.950 . S
H1484 C1510 0.950 . S
H1485 C1512 0.950 . S
H1486 C1515 0.950 . S
H1487 C1516 0.950 . S
H1488 C1518 0.950 . S
H1489 C1519 0.950 . S
C1490 H1472 0.951 . S
C1490 C1491 1.366 . S
C1490 C1492 1.388 . S
C1491 C1490 1.366 . S
C1491 C1495 1.385 1_655 S
C1492 H1473 0.951 . S
C1492 C1490 1.388 . S
C1492 C1493 1.366 . S
C1493 C1492 1.366 . S
C1493 C1494 1.414 1_655 S
C1493 C1496 1.499 . S
C1494 H1474 0.950 . S
C1494 C1493 1.414 1_455 S
C1494 C1495 1.374 . S
C1495 H1475 0.950 . S
C1495 C1491 1.385 1_455 S
C1495 C1494 1.374 . S
C1496 C1493 1.499 . S
C1496 C1497 1.373 1_655 S
C1496 C1498 1.389 . S
C1497 H1476 0.950 . S
C1497 C1496 1.373 1_455 S
C1497 C1513 1.377 . S
C1498 C1496 1.389 . S
C1498 C1499 1.524 . S
C1498 C1512 1.377 . S
C1499 C1498 1.524 . S
C1499 C1500 1.397 . S
C1499 C1504 1.363 . S
C1500 H1477 0.950 . S
C1500 C1499 1.397 . S
C1500 C1501 1.334 . S
C1501 H1478 0.950 . S
C1501 C1500 1.334 . S
C1501 C1502 1.287 . S
C1502 C1501 1.287 . S
C1502 C1503 1.524 . S
C1502 H1521 0.913 . S
C1503 H1479 0.950 . S
C1503 C1502 1.524 . S
C1503 C1504 1.415 . S
C1504 H1480 0.950 . S
C1504 C1499 1.363 . S
C1504 C1503 1.415 . S
C1505 H1481 0.951 . S
C1505 C1506 1.366 1_455 S
C1505 C1507 1.388 . S
C1506 C1505 1.366 1_655 S
C1506 C1510 1.385 . S
C1507 H1482 0.951 . S
C1507 C1505 1.388 . S
C1507 C1508 1.366 1_455 S
C1508 C1507 1.366 1_655 S
C1508 C1509 1.414 . S
C1508 C1511 1.499 . S
C1509 H1483 0.950 . S
C1509 C1508 1.414 . S
C1509 C1510 1.374 . S
C1510 H1484 0.950 . S
C1510 C1506 1.385 . S
C1510 C1509 1.374 . S
C1511 C1508 1.499 . S
C1511 C1512 1.373 . S
C1511 C1513 1.389 1_655 S
C1512 H1485 0.950 . S
C1512 C1498 1.377 . S
C1512 C1511 1.373 . S
C1513 C1497 1.377 . S
C1513 C1511 1.389 1_455 S
C1513 C1514 1.524 . S
C1514 C1513 1.524 . S
C1514 C1515 1.397 . S
C1514 C1519 1.363 . S
C1515 H1486 0.950 . S
C1515 C1514 1.397 . S
C1515 C1516 1.334 . S
C1516 H1487 0.950 . S
C1516 C1515 1.334 . S
C1516 C1517 1.287 . S
C1517 C1516 1.287 . S
C1517 C1518 1.524 . S
C1517 H1520 0.999 . S
C1518 H1488 0.950 . S
C1518 C1517 1.524 . S
C1518 C1519 1.415 . S
C1519 H1489 0.950 . S
C1519 C1514 1.363 . S
C1519 C1518 1.415 . S
H1520 C1517 0.999 . S
H1521 C1502 0.913 . S
H1522 C1540 0.951 . S
H1523 C1542 0.951 . S
H1524 C1544 0.950 . S
H1525 C1545 0.950 . S
H1526 C1547 0.960 . S
H1527 C1550 0.950 . S
H1528 C1551 0.950 . S
H1529 C1553 0.950 . S
H1530 C1554 0.950 . S
H1531 C1555 0.951 . S
H1532 C1557 0.951 . S
H1533 C1559 0.950 . S
H1534 C1560 0.950 . S
H1535 C1562 0.950 . S
H1536 C1565 0.950 . S
H1537 C1566 0.950 . S
H1538 C1568 0.950 . S
H1539 C1569 0.950 . S
C1540 H1522 0.951 . S
C1540 C1541 1.415 . S
C1540 C1542 1.388 . S
C1541 C1540 1.415 . S
C1541 C1545 1.338 1_565 S
C1542 H1523 0.951 . S
C1542 C1540 1.388 . S
C1542 C1543 1.366 . S
C1543 C1542 1.366 . S
C1543 C1544 1.414 1_565 S
C1543 C1546 1.499 . S
C1544 H1524 0.950 . S
C1544 C1543 1.414 1_545 S
C1544 C1545 1.374 . S
C1545 H1525 0.950 . S
C1545 C1541 1.338 1_545 S
C1545 C1544 1.374 . S
C1546 C1543 1.499 . S
C1546 C1547 1.368 1_565 S
C1546 C1548 1.389 . S
C1547 H1526 0.960 . S
C1547 C1546 1.368 1_545 S
C1547 C1563 1.373 1_545 S
C1548 C1546 1.389 . S
C1548 C1549 1.524 . S
C1548 C1562 1.377 . S
C1549 C1548 1.524 . S
C1549 C1550 1.397 1_565 S
C1549 C1554 1.363 . S
C1550 H1527 0.950 . S
C1550 C1549 1.397 1_545 S
C1550 C1551 1.334 . S
C1551 H1528 0.950 . S
C1551 C1550 1.334 . S
C1551 C1552 1.287 1_545 S
C1552 C1551 1.287 1_565 S
C1552 C1553 1.524 . S
C1552 H1571 0.913 . S
C1553 H1529 0.950 . S
C1553 C1552 1.524 . S
C1553 C1554 1.415 . S
C1554 H1530 0.950 . S
C1554 C1549 1.363 . S
C1554 C1553 1.415 . S
C1555 H1531 0.951 . S
C1555 C1556 1.366 1_545 S
C1555 C1557 1.388 . S
C1556 C1555 1.366 1_565 S
C1556 C1560 1.385 . S
C1557 H1532 0.951 . S
C1557 C1555 1.388 . S
C1557 C1558 1.366 1_545 S
C1558 C1557 1.366 1_565 S
C1558 C1559 1.414 . S
C1558 C1561 1.499 . S
C1559 H1533 0.950 . S
C1559 C1558 1.414 . S
C1559 C1560 1.374 . S
C1560 H1534 0.950 . S
C1560 C1556 1.385 . S
C1560 C1559 1.374 . S
C1561 C1558 1.499 . S
C1561 C1562 1.373 . S
C1561 C1563 1.389 . S
C1562 H1535 0.950 . S
C1562 C1548 1.377 . S
C1562 C1561 1.373 . S
C1563 C1547 1.373 1_565 S
C1563 C1561 1.389 . S
C1563 C1564 1.522 1_565 S
C1564 C1563 1.522 1_545 S
C1564 C1565 1.373 1_545 S
C1564 C1569 1.387 . S
C1565 H1536 0.950 . S
C1565 C1564 1.373 1_565 S
C1565 C1566 1.334 . S
C1566 H1537 0.950 . S
C1566 C1565 1.334 . S
C1566 C1567 1.329 . S
C1567 C1566 1.329 . S
C1567 C1568 1.480 1_565 S
C1567 H1570 0.997 1_565 S
C1568 H1538 0.950 . S
C1568 C1567 1.480 1_545 S
C1568 C1569 1.415 . S
C1569 H1539 0.950 . S
C1569 C1564 1.387 . S
C1569 C1568 1.415 . S
H1570 C1567 0.997 1_545 S
H1571 C1552 0.913 . S
H1572 C1590 0.951 . S
H1573 C1592 0.951 . S
H1574 C1594 0.950 . S
H1575 C1595 0.950 . S
H1576 C1597 0.950 . S
H1577 C1600 0.950 . S
H1578 C1601 0.950 . S
H1579 C1603 0.950 . S
H1580 C1604 0.950 . S
H1581 C1605 0.951 . S
H1582 C1607 0.951 . S
H1583 C1609 0.950 . S
H1584 C1610 0.950 . S
H1585 C1612 0.950 . S
H1586 C1615 0.950 . S
H1587 C1616 0.950 . S
H1588 C1618 0.950 . S
H1589 C1619 0.950 . S
C1590 H1572 0.951 . S
C1590 C1591 1.366 . S
C1590 C1592 1.388 . S
C1591 C1590 1.366 . S
C1591 C1595 1.385 . S
C1592 H1573 0.951 . S
C1592 C1590 1.388 . S
C1592 C1593 1.366 . S
C1593 C1592 1.366 . S
C1593 C1594 1.414 . S
C1593 C1596 1.499 . S
C1594 H1574 0.950 . S
C1594 C1593 1.414 . S
C1594 C1595 1.374 . S
C1595 H1575 0.950 . S
C1595 C1591 1.385 . S
C1595 C1594 1.374 . S
C1596 C1593 1.499 . S
C1596 C1597 1.373 . S
C1596 C1598 1.389 . S
C1597 H1576 0.950 . S
C1597 C1596 1.373 . S
C1597 C1613 1.377 . S
C1598 C1596 1.389 . S
C1598 C1599 1.524 . S
C1598 C1612 1.377 . S
C1599 C1598 1.524 . S
C1599 C1600 1.397 . S
C1599 C1604 1.363 . S
C1600 H1577 0.950 . S
C1600 C1599 1.397 . S
C1600 C1601 1.334 . S
C1601 H1578 0.950 . S
C1601 C1600 1.334 . S
C1601 C1602 1.287 . S
C1602 C1601 1.287 . S
C1602 C1603 1.524 . S
C1602 H1621 0.913 . S
C1603 H1579 0.950 . S
C1603 C1602 1.524 . S
C1603 C1604 1.415 . S
C1604 H1580 0.950 . S
C1604 C1599 1.363 . S
C1604 C1603 1.415 . S
C1605 H1581 0.951 . S
C1605 C1606 1.366 . S
C1605 C1607 1.388 . S
C1606 C1605 1.366 . S
C1606 C1610 1.385 . S
C1607 H1582 0.951 . S
C1607 C1605 1.388 . S
C1607 C1608 1.366 . S
C1608 C1607 1.366 . S
C1608 C1609 1.414 . S
C1608 C1611 1.499 . S
C1609 H1583 0.950 . S
C1609 C1608 1.414 . S
C1609 C1610 1.374 . S
C1610 H1584 0.950 . S
C1610 C1606 1.385 . S
C1610 C1609 1.374 . S
C1611 C1608 1.499 . S
C1611 C1612 1.373 . S
C1611 C1613 1.389 . S
C1612 H1585 0.950 . S
C1612 C1598 1.377 . S
C1612 C1611 1.373 . S
C1613 C1597 1.377 . S
C1613 C1611 1.389 . S
C1613 C1614 1.524 . S
C1614 C1613 1.524 . S
C1614 C1615 1.397 . S
C1614 C1619 1.363 . S
C1615 H1586 0.950 . S
C1615 C1614 1.397 . S
C1615 C1616 1.334 . S
C1616 H1587 0.950 . S
C1616 C1615 1.334 . S
C1616 C1617 1.287 . S
C1617 C1616 1.287 . S
C1617 C1618 1.524 . S
C1617 H1620 0.999 . S
C1618 H1588 0.950 . S
C1618 C1617 1.524 . S
C1618 C1619 1.415 . S
C1619 H1589 0.950 . S
C1619 C1614 1.363 . S
C1619 C1618 1.415 . S
H1620 C1617 0.999 . S
H1621 C1602 0.913 . S
H1622 C1640 0.951 . S
H1623 C1642 0.951 . S
H1624 C1644 0.950 . S
H1625 C1645 0.950 . S
H1626 C1647 0.950 . S
H1627 C1650 0.950 . S
H1628 C1651 0.950 . S
H1629 C1653 0.950 . S
H1630 C1654 0.950 . S
H1631 C1655 0.951 . S
H1632 C1657 0.951 . S
H1633 C1659 0.950 . S
H1634 C1660 0.950 . S
H1635 C1662 0.950 . S
H1636 C1665 0.950 . S
H1637 C1666 0.950 . S
H1638 C1668 0.950 . S
H1639 C1669 0.950 . S
C1640 H1622 0.951 . S
C1640 C1641 1.366 . S
C1640 C1642 1.388 . S
C1641 C1640 1.366 . S
C1641 C1645 1.385 . S
C1642 H1623 0.951 . S
C1642 C1640 1.388 . S
C1642 C1643 1.366 . S
C1643 C1642 1.366 . S
C1643 C1644 1.414 . S
C1643 C1646 1.499 . S
C1644 H1624 0.950 . S
C1644 C1643 1.414 . S
C1644 C1645 1.374 . S
C1645 H1625 0.950 . S
C1645 C1641 1.385 . S
C1645 C1644 1.374 . S
C1646 C1643 1.499 . S
C1646 C1647 1.373 . S
C1646 C1648 1.389 . S
C1647 H1626 0.950 . S
C1647 C1646 1.373 . S
C1647 C1663 1.377 . S
C1648 C1646 1.389 . S
C1648 C1649 1.524 . S
C1648 C1662 1.377 . S
C1649 C1648 1.524 . S
C1649 C1650 1.397 . S
C1649 C1654 1.363 . S
C1650 H1627 0.950 . S
C1650 C1649 1.397 . S
C1650 C1651 1.334 . S
C1651 H1628 0.950 . S
C1651 C1650 1.334 . S
C1651 C1652 1.287 . S
C1652 C1651 1.287 . S
C1652 C1653 1.524 . S
C1652 H1671 0.913 . S
C1653 H1629 0.950 . S
C1653 C1652 1.524 . S
C1653 C1654 1.415 . S
C1654 H1630 0.950 . S
C1654 C1649 1.363 . S
C1654 C1653 1.415 . S
C1655 H1631 0.951 . S
C1655 C1656 1.366 . S
C1655 C1657 1.388 . S
C1656 C1655 1.366 . S
C1656 C1660 1.385 . S
C1657 H1632 0.951 . S
C1657 C1655 1.388 . S
C1657 C1658 1.366 . S
C1658 C1657 1.366 . S
C1658 C1659 1.414 . S
C1658 C1661 1.499 . S
C1659 H1633 0.950 . S
C1659 C1658 1.414 . S
C1659 C1660 1.374 . S
C1660 H1634 0.950 . S
C1660 C1656 1.385 . S
C1660 C1659 1.374 . S
C1661 C1658 1.499 . S
C1661 C1662 1.373 . S
C1661 C1663 1.389 . S
C1662 H1635 0.950 . S
C1662 C1648 1.377 . S
C1662 C1661 1.373 . S
C1663 C1647 1.377 . S
C1663 C1661 1.389 . S
C1663 C1664 1.524 . S
C1664 C1663 1.524 . S
C1664 C1665 1.397 . S
C1664 C1669 1.363 . S
C1665 H1636 0.950 . S
C1665 C1664 1.397 . S
C1665 C1666 1.334 . S
C1666 H1637 0.950 . S
C1666 C1665 1.334 . S
C1666 C1667 1.287 . S
C1667 C1666 1.287 . S
C1667 C1668 1.524 . S
C1667 H1670 0.999 . S
C1668 H1638 0.950 . S
C1668 C1667 1.524 . S
C1668 C1669 1.415 . S
C1669 H1639 0.950 . S
C1669 C1664 1.363 . S
C1669 C1668 1.415 . S
H1670 C1667 0.999 . S
H1671 C1652 0.913 . S
C491 C255 1.951 1_545 S
C506 C314 2.061 1_545 S
C556 C354 2.078 . S
C541 C294 1.933 . S
C606 C394 2.071 . S
C591 C177 1.954 . S
C656 C434 2.074 1_455 S
C641 C216 1.959 1_455 S
C706 C327 2.068 1_565 S
C691 C99 1.959 1_545 S
C741 C138 1.940 . S
C756 C367 2.083 . S
C791 C21 1.954 . S
C806 C407 2.070 . S
C841 C60 1.959 . S
C856 C447 2.074 1_655 S
C906 C338 0.193 . S
C891 C196 0.242 1_455 S
C956 C378 0.194 . S
C941 C235 0.238 1_545 S
C1006 C418 0.190 . S
C991 C289 0.241 . S
C1041 C157 0.239 . S
C1056 C458 0.190 . S
C1091 C40 0.231 . S
C1106 C321 0.186 . S
C1156 C361 0.192 . S
C1141 C79 0.225 . S
C1206 C401 0.192 . S
C1191 C133 0.232 . S
C1241 C1 0.228 . S
C1256 C441 0.199 . S
C1291 C211 2.519 . S
C1306 C315 2.828 . S
C1341 C250 2.510 . S
C1356 C355 2.825 . S
C1406 C395 2.830 . S
C1391 C274 2.519 . S
C1456 C435 2.827 . S
C1441 C172 2.503 . S
C1491 C55 2.520 1_655 S
C1506 C334 2.844 . S
C1556 C374 2.826 . S
C1541 C94 2.509 1_565 S
C1606 C414 2.830 . S
C1591 C118 2.520 . S
C1641 C16 2.510 . S
C1656 C454 2.834 . S
