# Generated by pormake.
# Topology pyr, (3,6)-cn, num edge types: 1
# Building blocks:
#     Node 0, Type 0, BuildingBlock: KAKCAD_clean_linker_0, # of connection points: 3
#     Node 1, Type 0, BuildingBlock: KAKCAD_clean_linker_0, # of connection points: 3
#     Node 2, Type 0, BuildingBlock: KAKCAD_clean_linker_0, # of connection points: 3
#     Node 3, Type 0, BuildingBlock: KAKCAD_clean_linker_0, # of connection points: 3
#     Node 4, Type 0, BuildingBlock: KAKCAD_clean_linker_0, # of connection points: 3
#     Node 5, Type 0, BuildingBlock: KAKCAD_clean_linker_0, # of connection points: 3
#     Node 6, Type 0, BuildingBlock: KAKCAD_clean_linker_0, # of connection points: 3
#     Node 7, Type 0, BuildingBlock: KAKCAD_clean_linker_0, # of connection points: 3
#     Node 8, Type 1, BuildingBlock: MIDCAF_clean_sbu_0, # of connection points: 6
#     Node 9, Type 1, BuildingBlock: MIDCAF_clean_sbu_0, # of connection points: 6
#     Node 10, Type 1, BuildingBlock: MIDCAF_clean_sbu_0, # of connection points: 6
#     Node 11, Type 1, BuildingBlock: MIDCAF_clean_sbu_0, # of connection points: 6
#     Edge 12, Type (0, 1), BuildingBlock: ZUJKAS_clean_linker_0, # of connection points: 2
#     Edge 13, Type (0, 1), BuildingBlock: ZUJKAS_clean_linker_0, # of connection points: 2
#     Edge 14, Type (0, 1), BuildingBlock: ZUJKAS_clean_linker_0, # of connection points: 2
#     Edge 15, Type (0, 1), BuildingBlock: ZUJKAS_clean_linker_0, # of connection points: 2
#     Edge 16, Type (0, 1), BuildingBlock: ZUJKAS_clean_linker_0, # of connection points: 2
#     Edge 17, Type (0, 1), BuildingBlock: ZUJKAS_clean_linker_0, # of connection points: 2
#     Edge 18, Type (0, 1), BuildingBlock: ZUJKAS_clean_linker_0, # of connection points: 2
#     Edge 19, Type (0, 1), BuildingBlock: ZUJKAS_clean_linker_0, # of connection points: 2
#     Edge 20, Type (0, 1), BuildingBlock: ZUJKAS_clean_linker_0, # of connection points: 2
#     Edge 21, Type (0, 1), BuildingBlock: ZUJKAS_clean_linker_0, # of connection points: 2
#     Edge 22, Type (0, 1), BuildingBlock: ZUJKAS_clean_linker_0, # of connection points: 2
#     Edge 23, Type (0, 1), BuildingBlock: ZUJKAS_clean_linker_0, # of connection points: 2
#     Edge 24, Type (0, 1), BuildingBlock: ZUJKAS_clean_linker_0, # of connection points: 2
#     Edge 25, Type (0, 1), BuildingBlock: ZUJKAS_clean_linker_0, # of connection points: 2
#     Edge 26, Type (0, 1), BuildingBlock: ZUJKAS_clean_linker_0, # of connection points: 2
#     Edge 27, Type (0, 1), BuildingBlock: ZUJKAS_clean_linker_0, # of connection points: 2
#     Edge 28, Type (0, 1), BuildingBlock: ZUJKAS_clean_linker_0, # of connection points: 2
#     Edge 29, Type (0, 1), BuildingBlock: ZUJKAS_clean_linker_0, # of connection points: 2
#     Edge 30, Type (0, 1), BuildingBlock: ZUJKAS_clean_linker_0, # of connection points: 2
#     Edge 31, Type (0, 1), BuildingBlock: ZUJKAS_clean_linker_0, # of connection points: 2
#     Edge 32, Type (0, 1), BuildingBlock: ZUJKAS_clean_linker_0, # of connection points: 2
#     Edge 33, Type (0, 1), BuildingBlock: ZUJKAS_clean_linker_0, # of connection points: 2
#     Edge 34, Type (0, 1), BuildingBlock: ZUJKAS_clean_linker_0, # of connection points: 2
#     Edge 35, Type (0, 1), BuildingBlock: ZUJKAS_clean_linker_0, # of connection points: 2
# Relax obj value: 0.019
# Max RMSD: 0.063
# Mean RMSD: 0.024
data_MOF--net-pry--node1-MIDCAF_clean_sbu_0--node2-KAKCAD_clean_linker_0--edge1-ZUJKAS_clean_linker_0
_symmetry_space_group_name_H-M    P1
_symmetry_Int_Tables_number       1
_symmetry_cell_setting            triclinic
loop_
_symmetry_equiv_pos_as_xyz
'x, y, z'
_cell_length_a     54.59588
_cell_length_b     54.605005
_cell_length_c     54.539857
_cell_angle_alpha  90.226187
_cell_angle_beta   89.915877
_cell_angle_gamma 90.321549
loop_
_atom_site_label
_atom_site_type_symbol
_atom_site_fract_x
_atom_site_fract_y
_atom_site_fract_z
_atom_type_partial_charge
C0 C 0.17662 0.20678 0.29656 0.0
C1 C 0.18925 0.1986 0.3174 0.0
C2 C 0.18933 0.21676 0.27666 0.0
C3 C 0.21502 0.21887 0.27708 0.0
C4 C 0.22766 0.21083 0.29798 0.0
C5 C 0.21493 0.20081 0.3179 0.0
C6 C 0.22852 0.22916 0.25566 0.0
C7 C 0.21909 0.24931 0.24281 0.0
C8 C 0.23125 0.25869 0.22215 0.0
C9 C 0.25314 0.24779 0.21432 0.0
C10 C 0.26272 0.22738 0.2266 0.0
C11 C 0.25042 0.21837 0.24742 0.0
C12 C 0.28464 0.21459 0.21672 0.0
C13 C 0.28685 0.21027 0.19139 0.0
C14 C 0.30318 0.20611 0.23239 0.0
C15 C 0.32342 0.19353 0.2229 0.0
C16 C 0.32541 0.18897 0.19758 0.0
C17 C 0.22042 0.27903 0.20792 0.0
C18 C 0.19584 0.27774 0.20046 0.0
C19 C 0.23465 0.29945 0.2011 0.0
C20 C 0.22443 0.31825 0.18711 0.0
C21 C 0.19996 0.31671 0.17929 0.0
C22 C 0.18577 0.2963 0.18614 0.0
C23 C 0.30695 0.19764 0.18196 0.0
H24 H 0.15689 0.20495 0.29536 0.0
H25 H 0.17902 0.22234 0.2607 0.0
H26 H 0.2474 0.21248 0.29906 0.0
H27 H 0.22521 0.19498 0.33378 0.0
H28 H 0.20233 0.25792 0.249 0.0
H29 H 0.25732 0.20223 0.25656 0.0
H30 H 0.26241 0.25488 0.19823 0.0
H31 H 0.27278 0.21626 0.17883 0.0
H32 H 0.30208 0.20928 0.25198 0.0
H33 H 0.33725 0.18696 0.23543 0.0
H34 H 0.18453 0.26213 0.20529 0.0
H35 H 0.25363 0.30089 0.20669 0.0
H36 H 0.30806 0.1947 0.16233 0.0
H37 H 0.16679 0.29476 0.18055 0.0
H38 H 0.23575 0.33377 0.18202 0.0
C39 C 0.33245 0.84701 0.8161 0.0
C40 C 0.35822 0.84775 0.81653 0.0
C41 C 0.31994 0.83838 0.79539 0.0
C42 C 0.33291 0.83023 0.77465 0.0
C43 C 0.35865 0.83098 0.77509 0.0
C44 C 0.37114 0.83964 0.79574 0.0
C45 C 0.31977 0.8209 0.75259 0.0
C46 C 0.29907 0.83308 0.74349 0.0
C47 C 0.28714 0.82473 0.72215 0.0
C48 C 0.29615 0.80381 0.71002 0.0
C49 C 0.31685 0.79144 0.7188 0.0
C50 C 0.32836 0.80004 0.74021 0.0
C51 C 0.32691 0.76991 0.70536 0.0
C52 C 0.3113 0.7521 0.69497 0.0
C53 C 0.35238 0.76709 0.70279 0.0
C54 C 0.36201 0.74687 0.69044 0.0
C55 C 0.34644 0.729 0.6802 0.0
C56 C 0.2657 0.83818 0.71212 0.0
C57 C 0.24771 0.84797 0.7278 0.0
C58 C 0.26308 0.84136 0.68667 0.0
C59 C 0.2429 0.8537 0.67714 0.0
C60 C 0.22485 0.86333 0.69278 0.0
C61 C 0.22755 0.86046 0.71824 0.0
C62 C 0.32097 0.7319 0.68247 0.0
H63 H 0.32191 0.85285 0.8319 0.0
H64 H 0.30011 0.83777 0.79573 0.0
H65 H 0.3692 0.82524 0.75926 0.0
H66 H 0.39096 0.84041 0.79521 0.0
H67 H 0.2928 0.84959 0.75256 0.0
H68 H 0.34394 0.79025 0.74749 0.0
H69 H 0.28718 0.79728 0.69353 0.0
H70 H 0.29161 0.75356 0.69684 0.0
H71 H 0.36494 0.7807 0.71008 0.0
H72 H 0.3817 0.74543 0.68859 0.0
H73 H 0.24898 0.84563 0.74746 0.0
H74 H 0.27683 0.83459 0.67406 0.0
H75 H 0.30851 0.71832 0.67495 0.0
H76 H 0.21384 0.86749 0.73075 0.0
H77 H 0.2416 0.856 0.65747 0.0
C78 C 0.80446 0.36631 0.82807 0.0
C79 C 0.82395 0.35276 0.83785 0.0
C80 C 0.78431 0.35445 0.81752 0.0
C81 C 0.7831 0.32873 0.81649 0.0
C82 C 0.80287 0.31518 0.82569 0.0
C83 C 0.8231 0.32706 0.8362 0.0
C84 C 0.7608 0.31623 0.80682 0.0
C85 C 0.74875 0.32532 0.786 0.0
C86 C 0.72664 0.3148 0.7778 0.0
C87 C 0.71668 0.29484 0.79067 0.0
C88 C 0.72853 0.28538 0.81139 0.0
C89 C 0.75067 0.29601 0.81921 0.0
C90 C 0.71705 0.26527 0.82565 0.0
C91 C 0.6923 0.26671 0.83256 0.0
C92 C 0.7307 0.24471 0.83269 0.0
C93 C 0.7197 0.22583 0.84618 0.0
C94 C 0.69499 0.22741 0.85324 0.0
C95 C 0.71351 0.32521 0.75636 0.0
C96 C 0.71157 0.3507 0.75356 0.0
C97 C 0.70242 0.30981 0.73882 0.0
C98 C 0.68963 0.31969 0.71899 0.0
C99 C 0.68763 0.3452 0.71625 0.0
C100 C 0.69879 0.36057 0.73378 0.0
C101 C 0.68144 0.24806 0.84633 0.0
H102 H 0.80466 0.38613 0.82881 0.0
H103 H 0.76931 0.36546 0.81083 0.0
H104 H 0.80262 0.29535 0.82497 0.0
H105 H 0.83771 0.31608 0.84373 0.0
H106 H 0.75669 0.34058 0.77606 0.0
H107 H 0.75938 0.28926 0.83569 0.0
H108 H 0.69941 0.28687 0.78481 0.0
H109 H 0.68141 0.28245 0.82758 0.0
H110 H 0.7498 0.24314 0.82753 0.0
H111 H 0.73058 0.21015 0.85134 0.0
H112 H 0.7195 0.36308 0.76697 0.0
H113 H 0.70382 0.29009 0.74029 0.0
H114 H 0.6623 0.24966 0.85133 0.0
H115 H 0.69723 0.38029 0.73252 0.0
H116 H 0.68153 0.30733 0.70567 0.0
C117 C 0.8276 0.69888 0.21382 0.0
C118 C 0.85334 0.699 0.21236 0.0
C119 C 0.81566 0.70795 0.23468 0.0
C120 C 0.82917 0.71739 0.25456 0.0
C121 C 0.85488 0.71788 0.25289 0.0
C122 C 0.86679 0.70887 0.23206 0.0
C123 C 0.81668 0.72617 0.27725 0.0
C124 C 0.79667 0.71315 0.28711 0.0
C125 C 0.78566 0.72057 0.30925 0.0
C126 C 0.79497 0.74134 0.32154 0.0
C127 C 0.81499 0.75459 0.31206 0.0
C128 C 0.82545 0.74701 0.28973 0.0
C129 C 0.82564 0.7757 0.32596 0.0
C130 C 0.81056 0.79213 0.33888 0.0
C131 C 0.85116 0.77922 0.32689 0.0
C132 C 0.86134 0.7985 0.34043 0.0
C133 C 0.84632 0.8147 0.35369 0.0
C134 C 0.76494 0.70624 0.31997 0.0
C135 C 0.74631 0.69649 0.30495 0.0
C136 C 0.76364 0.70219 0.34539 0.0
C137 C 0.74409 0.68908 0.35557 0.0
C138 C 0.72539 0.67952 0.3406 0.0
C139 C 0.72679 0.68323 0.31514 0.0
C140 C 0.82076 0.81134 0.35262 0.0
H141 H 0.81666 0.69122 0.1991 0.0
H142 H 0.79583 0.70752 0.23524 0.0
H143 H 0.86591 0.72474 0.26793 0.0
H144 H 0.88661 0.70954 0.23147 0.0
H145 H 0.79028 0.69663 0.27804 0.0
H146 H 0.84044 0.75748 0.28192 0.0
H147 H 0.78681 0.74699 0.33874 0.0
H148 H 0.79081 0.79021 0.33837 0.0
H149 H 0.86342 0.76679 0.31748 0.0
H150 H 0.88106 0.8007 0.34042 0.0
H151 H 0.74657 0.69947 0.28533 0.0
H152 H 0.77791 0.70891 0.35749 0.0
H153 H 0.80861 0.8233 0.36274 0.0
H154 H 0.71256 0.67628 0.30314 0.0
H155 H 0.7438 0.68615 0.3752 0.0
C156 C 0.94863 0.89229 0.81552 0.0
C157 C 0.95112 0.91682 0.80809 0.0
C158 C 0.93557 0.8863 0.83675 0.0
C159 C 0.92483 0.90469 0.8513 0.0
C160 C 0.92784 0.92926 0.84421 0.0
C161 C 0.9407 0.93524 0.82285 0.0
C162 C 0.90998 0.89819 0.87334 0.0
C163 C 0.91675 0.87849 0.88837 0.0
C164 C 0.90221 0.87146 0.90847 0.0
C165 C 0.88083 0.88466 0.91376 0.0
C166 C 0.87377 0.90449 0.89906 0.0
C167 C 0.88845 0.91113 0.87895 0.0
C168 C 0.85057 0.91769 0.90413 0.0
C169 C 0.82895 0.90459 0.90914 0.0
C170 C 0.84981 0.94341 0.90371 0.0
C171 C 0.82791 0.95577 0.90847 0.0
C172 C 0.80623 0.94267 0.91357 0.0
C173 C 0.90895 0.84977 0.92333 0.0
C174 C 0.91639 0.82804 0.9117 0.0
C175 C 0.9078 0.85045 0.94909 0.0
C176 C 0.91414 0.82987 0.9629 0.0
C177 C 0.92147 0.80811 0.9512 0.0
C178 C 0.92252 0.80746 0.92545 0.0
C179 C 0.80704 0.91691 0.91369 0.0
H180 H 0.95668 0.87762 0.80486 0.0
H181 H 0.93343 0.86715 0.84142 0.0
H182 H 0.92015 0.94395 0.85511 0.0
H183 H 0.94191 0.95431 0.81762 0.0
H184 H 0.93354 0.86867 0.8846 0.0
H185 H 0.88251 0.92582 0.86709 0.0
H186 H 0.86945 0.87926 0.92914 0.0
H187 H 0.82887 0.88475 0.90915 0.0
H188 H 0.86625 0.95399 0.90008 0.0
H189 H 0.82809 0.9756 0.90856 0.0
H190 H 0.91723 0.82686 0.89188 0.0
H191 H 0.90226 0.86699 0.95857 0.0
H192 H 0.79064 0.90617 0.91702 0.0
H193 H 0.92841 0.79109 0.91589 0.0
H194 H 0.91308 0.83089 0.98271 0.0
C195 C 0.58842 0.09309 0.33439 0.0
C196 C 0.58005 0.11045 0.31739 0.0
C197 C 0.60232 0.10039 0.35469 0.0
C198 C 0.60813 0.12522 0.3585 0.0
C199 C 0.59948 0.14261 0.3417 0.0
C200 C 0.58562 0.13532 0.3214 0.0
C201 C 0.62338 0.13298 0.37975 0.0
C202 C 0.64434 0.11963 0.38633 0.0
C203 C 0.6593 0.12737 0.4059 0.0
C204 C 0.65268 0.14835 0.41936 0.0
C205 C 0.63202 0.16192 0.41284 0.0
C206 C 0.6175 0.15425 0.39306 0.0
C207 C 0.6262 0.18484 0.42593 0.0
C208 C 0.61853 0.18444 0.45046 0.0
C209 C 0.62813 0.20727 0.41372 0.0
C210 C 0.62224 0.22907 0.42577 0.0
C211 C 0.61369 0.22885 0.45016 0.0
C212 C 0.68256 0.11448 0.41143 0.0
C213 C 0.68381 0.08875 0.41125 0.0
C214 C 0.70391 0.12803 0.41659 0.0
C215 C 0.72588 0.11621 0.42175 0.0
C216 C 0.72712 0.0905 0.42191 0.0
C217 C 0.70587 0.07688 0.41644 0.0
C218 C 0.6121 0.20621 0.46242 0.0
H219 H 0.58419 0.07382 0.33203 0.0
H220 H 0.60841 0.08659 0.36749 0.0
H221 H 0.60393 0.16185 0.3439 0.0
H222 H 0.57986 0.14913 0.30846 0.0
H223 H 0.6496 0.10381 0.37551 0.0
H224 H 0.60146 0.1648 0.38822 0.0
H225 H 0.66387 0.15449 0.43462 0.0
H226 H 0.61691 0.16722 0.46015 0.0
H227 H 0.63433 0.20793 0.39484 0.0
H228 H 0.62439 0.24608 0.41585 0.0
H229 H 0.66764 0.0778 0.40748 0.0
H230 H 0.70376 0.14786 0.4163 0.0
H231 H 0.60529 0.20515 0.48103 0.0
H232 H 0.70618 0.05705 0.41661 0.0
H233 H 0.74202 0.12727 0.42534 0.0
C234 C 0.32166 0.5873 0.14052 0.0
C235 C 0.31427 0.5848 0.11597 0.0
C236 C 0.34323 0.59988 0.14645 0.0
C237 C 0.35797 0.61021 0.12797 0.0
C238 C 0.3509 0.60719 0.10336 0.0
C239 C 0.32931 0.59462 0.09743 0.0
C240 C 0.38006 0.62491 0.13454 0.0
C241 C 0.39543 0.61737 0.1537 0.0
C242 C 0.41507 0.63215 0.16169 0.0
C243 C 0.41955 0.65447 0.1497 0.0
C244 C 0.40475 0.66208 0.13012 0.0
C245 C 0.38508 0.64717 0.12262 0.0
C246 C 0.40945 0.68604 0.11813 0.0
C247 C 0.41471 0.70689 0.13239 0.0
C248 C 0.40914 0.68821 0.09245 0.0
C249 C 0.41463 0.71063 0.08127 0.0
C250 C 0.42047 0.73134 0.09557 0.0
C251 C 0.43017 0.6248 0.18319 0.0
C252 C 0.41927 0.61268 0.20319 0.0
C253 C 0.45538 0.6304 0.1843 0.0
C254 C 0.46916 0.6244 0.20502 0.0
C255 C 0.45815 0.61226 0.22483 0.0
C256 C 0.43314 0.60632 0.22365 0.0
C257 C 0.4201 0.72925 0.12126 0.0
H258 H 0.31034 0.58029 0.15526 0.0
H259 H 0.34791 0.60219 0.16561 0.0
H260 H 0.36203 0.61461 0.08868 0.0
H261 H 0.32432 0.59269 0.07831 0.0
H262 H 0.39205 0.59986 0.16237 0.0
H263 H 0.37304 0.65345 0.10819 0.0
H264 H 0.4344 0.66621 0.1558 0.0
H265 H 0.41457 0.70594 0.15222 0.0
H266 H 0.40528 0.67241 0.08098 0.0
H267 H 0.41494 0.71156 0.06144 0.0
H268 H 0.39985 0.60856 0.20337 0.0
H269 H 0.46455 0.63933 0.16913 0.0
H270 H 0.42395 0.74496 0.13285 0.0
H271 H 0.42415 0.59726 0.23887 0.0
H272 H 0.48848 0.62902 0.20547 0.0
C273 C 0.13388 0.32473 0.58724 0.0
C274 C 0.10916 0.31811 0.58489 0.0
C275 C 0.14055 0.3459 0.60019 0.0
C276 C 0.12256 0.36118 0.61063 0.0
C277 C 0.09773 0.35478 0.60747 0.0
C278 C 0.09114 0.33335 0.59499 0.0
C279 C 0.12964 0.38327 0.62531 0.0
C280 C 0.15066 0.39697 0.61925 0.0
C281 C 0.15818 0.41704 0.63367 0.0
C282 C 0.14384 0.424 0.65392 0.0
C283 C 0.12257 0.41077 0.66019 0.0
C284 C 0.11579 0.39034 0.64592 0.0
C285 C 0.1078 0.41774 0.68209 0.0
C286 C 0.11936 0.42481 0.70403 0.0
C287 C 0.08204 0.41703 0.68134 0.0
C288 C 0.06819 0.42323 0.70204 0.0
C289 C 0.07979 0.43035 0.72395 0.0
C290 C 0.18154 0.43001 0.62804 0.0
C291 C 0.20247 0.41655 0.62164 0.0
C292 C 0.18328 0.45571 0.6292 0.0
C293 C 0.2054 0.46764 0.62373 0.0
C294 C 0.22622 0.45412 0.617 0.0
C295 C 0.2245 0.42843 0.61621 0.0
C296 C 0.10554 0.43104 0.72468 0.0
H297 H 0.14808 0.31308 0.57977 0.0
H298 H 0.15985 0.34986 0.60254 0.0
H299 H 0.0833 0.36628 0.61467 0.0
H300 H 0.07191 0.32865 0.5932 0.0
H301 H 0.16122 0.39217 0.60312 0.0
H302 H 0.10011 0.37944 0.65145 0.0
H303 H 0.14945 0.43954 0.66502 0.0
H304 H 0.13915 0.4251 0.70541 0.0
H305 H 0.07255 0.41195 0.66463 0.0
H306 H 0.0484 0.42277 0.70079 0.0
H307 H 0.20193 0.39672 0.62111 0.0
H308 H 0.16743 0.46661 0.63392 0.0
H309 H 0.11506 0.436 0.7414 0.0
H310 H 0.24031 0.41741 0.61164 0.0
H311 H 0.20605 0.48746 0.62432 0.0
Zn312 Zn 0.98794 0.05475 0.54847 0.0
Zn313 Zn 0.04603 0.9967 0.49219 0.0
Zn314 Zn 0.01648 0.02568 0.52028 0.0
C315 C 0.05959 0.04581 0.48394 0.0
C316 C 0.99689 0.98741 0.47878 0.0
O317 O 0.01899 0.01352 0.55896 0.0
O318 O 0.99603 0.03927 0.58031 0.0
C319 C 0.02164 0.08493 0.52452 0.0
O320 O 0.04228 0.04945 0.49964 0.0
O321 O 0.06519 0.02429 0.47753 0.0
O322 O 0.01854 0.98125 0.47344 0.0
O323 O 0.99293 0.0039 0.4953 0.0
O324 O 0.00377 0.08618 0.53916 0.0
O325 O 0.02872 0.06414 0.51588 0.0
O326 O 0.97833 0.02186 0.50697 0.0
O327 O 0.95682 0.04552 0.53197 0.0
C328 C 0.95774 0.03117 0.51378 0.0
O329 O 0.03722 0.00139 0.54509 0.0
O330 O 0.06033 0.97879 0.52054 0.0
C331 C 0.00975 0.02074 0.57952 0.0
C332 C 0.05357 0.98471 0.54192 0.0
Zn333 Zn 0.49419 0.04511 0.99531 0.0
Zn334 Zn 0.557 0.99268 0.05057 0.0
Zn335 Zn 0.52576 0.01904 0.02342 0.0
C336 C 0.58468 0.01421 0.01357 0.0
C337 C 0.52087 0.96057 0.03219 0.0
O338 O 0.50609 0.04504 0.0477 0.0
O339 O 0.47882 0.0626 0.02347 0.0
C340 C 0.54267 0.05575 0.98009 0.0
O341 O 0.56356 0.02328 0.00829 0.0
O342 O 0.58693 0.99992 0.03155 0.0
O343 O 0.53975 0.96076 0.04557 0.0
O344 O 0.51348 0.98045 0.02197 0.0
O345 O 0.52066 0.06125 0.97567 0.0
O346 O 0.54785 0.04005 0.99687 0.0
O347 O 0.5006 0.99343 0.00387 0.0
O348 O 0.4766 0.01661 0.98104 0.0
C349 C 0.48324 0.99566 0.98802 0.0
O350 O 0.52278 0.03178 0.06196 0.0
O351 O 0.55168 0.0112 0.08143 0.0
C352 C 0.48807 0.05985 0.04449 0.0
C353 C 0.53485 0.02695 0.08164 0.0
Zn354 Zn 0.54581 0.5466 0.54384 0.0
Zn355 Zn 0.4858 0.48947 0.48812 0.0
Zn356 Zn 0.51561 0.51783 0.51558 0.0
C357 C 0.5185 0.45852 0.51194 0.0
C358 C 0.5095 0.52225 0.45648 0.0
O359 O 0.49266 0.54027 0.54028 0.0
O360 O 0.51858 0.56257 0.56236 0.0
C361 C 0.55771 0.49713 0.55219 0.0
O362 O 0.52655 0.4792 0.52017 0.0
O363 O 0.50028 0.45764 0.49774 0.0
O364 O 0.49473 0.50437 0.45618 0.0
O365 O 0.51916 0.52948 0.47685 0.0
O366 O 0.56387 0.51857 0.55858 0.0
O367 O 0.54045 0.49371 0.53641 0.0
O368 O 0.53751 0.54143 0.49084 0.0
O369 O 0.56088 0.564 0.51539 0.0
C370 C 0.5543 0.55784 0.49402 0.0
O371 O 0.47739 0.52261 0.52884 0.0
O372 O 0.45484 0.4995 0.50411 0.0
C373 C 0.49685 0.55673 0.55679 0.0
C374 C 0.4564 0.51391 0.5222 0.0
Zn375 Zn 0.05563 0.54536 0.9836 0.0
Zn376 Zn 0.99677 0.49768 0.04586 0.0
Zn377 Zn 0.0251 0.52252 0.01425 0.0
C378 C 0.04492 0.48628 0.0574 0.0
C379 C 0.98556 0.48133 0.99808 0.0
O380 O 0.01518 0.56175 0.0157 0.0
O381 O 0.03875 0.57746 0.98656 0.0
C382 C 0.08447 0.52727 0.02096 0.0
O383 O 0.04864 0.50192 0.0401 0.0
O384 O 0.02336 0.48066 0.06373 0.0
O385 O 0.97798 0.47979 0.01993 0.0
O386 O 0.00359 0.49566 0.99265 0.0
O387 O 0.08647 0.54001 0.0018 0.0
O388 O 0.06335 0.51891 0.02766 0.0
O389 O 0.0197 0.50761 0.97648 0.0
O390 O 0.04922 0.52483 0.95446 0.0
C391 C 0.03135 0.51019 0.95605 0.0
O392 O 1.00028 0.54917 0.03281 0.0
O393 O 0.98193 0.5268 0.06133 0.0
C394 C 0.02227 0.58011 0.00263 0.0
C395 C 0.98555 0.54726 0.05124 0.0
H396 H 0.20202 0.15823 0.34409 0.0
H397 H 0.17868 0.13832 0.37679 0.0
H398 H 0.12243 0.19303 0.37055 0.0
H399 H 0.14572 0.21318 0.33788 0.0
H400 H 0.1612 0.1561 0.4226 0.0
H401 H 0.08506 0.12828 0.36052 0.0
H402 H 0.11419 0.1391 0.3491 0.0
H403 H 0.09227 0.16042 0.36114 0.0
C404 C 0.18484 0.16624 0.34986 0.0
C405 C 0.17567 0.18722 0.33821 0.0
C406 C 0.17149 0.15479 0.36852 0.0
C407 C 0.14867 0.16399 0.37587 0.0
C408 C 0.13978 0.18534 0.36483 0.0
H409 H 0.04105 0.09015 0.47038 0.0
H410 H 0.06229 0.12293 0.44804 0.0
C411 C 0.1531 0.1968 0.34613 0.0
C412 C 0.13396 0.15069 0.39453 0.0
H413 H 0.08168 0.11686 0.40186 0.0
C414 C 0.14372 0.14768 0.41814 0.0
C415 C 0.11109 0.13983 0.38873 0.0
C416 C 0.10003 0.14184 0.36347 0.0
C417 C 0.13143 0.13368 0.43594 0.0
C418 C 0.10901 0.12206 0.42983 0.0
C419 C 0.09883 0.12584 0.40654 0.0
C420 C 0.09699 0.10402 0.44629 0.0
C421 C 0.14273 0.13128 0.46103 0.0
C422 C 0.10947 0.08264 0.45292 0.0
C423 C 0.09745 0.06412 0.4659 0.0
C424 C 0.07272 0.06661 0.47254 0.0
C425 C 0.06033 0.08817 0.46628 0.0
C426 C 0.07237 0.10675 0.45327 0.0
H427 H 0.15395 0.14768 0.46571 0.0
H428 H 0.12859 0.12869 0.47545 0.0
H429 H 0.155 0.11515 0.46114 0.0
H430 H 0.12827 0.07985 0.44724 0.0
H431 H 0.10738 0.04759 0.47028 0.0
H432 H 0.34647 0.88738 0.84511 0.0
H433 H 0.36976 0.9047 0.87933 0.0
H434 H 0.42381 0.84798 0.87126 0.0
H435 H 0.40044 0.83024 0.83719 0.0
H436 H 0.38644 0.88241 0.92494 0.0
H437 H 0.46276 0.9133 0.86433 0.0
H438 H 0.43315 0.90457 0.85236 0.0
H439 H 0.45407 0.88153 0.86257 0.0
C440 C 0.36309 0.87832 0.85083 0.0
C441 C 0.37165 0.8575 0.83826 0.0
C442 C 0.37643 0.88831 0.87034 0.0
C443 C 0.39862 0.87778 0.87763 0.0
C444 C 0.4069 0.8566 0.86566 0.0
H445 H 0.50382 0.95159 0.97582 0.0
H446 H 0.48439 0.91793 0.95277 0.0
C447 C 0.39356 0.84655 0.84615 0.0
C448 C 0.41346 0.88971 0.89707 0.0
H449 H 0.46514 0.92409 0.9059 0.0
C450 C 0.40379 0.89129 0.92088 0.0
C451 C 0.43621 0.90105 0.89177 0.0
C452 C 0.44721 0.90026 0.86637 0.0
C453 C 0.41592 0.90461 0.93935 0.0
C454 C 0.43797 0.91709 0.93367 0.0
C455 C 0.44824 0.91448 0.91021 0.0
C456 C 0.44897 0.93539 0.95059 0.0
C457 C 0.40484 0.90557 0.96468 0.0
C458 C 0.43546 0.9562 0.95712 0.0
C459 C 0.44647 0.97531 0.97017 0.0
C460 C 0.47121 0.97399 0.97702 0.0
C461 C 0.48461 0.95286 0.97111 0.0
C462 C 0.47357 0.93372 0.95789 0.0
H463 H 0.39329 0.88915 0.9683 0.0
H464 H 0.41923 0.90687 0.97901 0.0
H465 H 0.39297 0.92193 0.9662 0.0
H466 H 0.41665 0.95818 0.95119 0.0
H467 H 0.43577 0.99145 0.97436 0.0
H468 H 0.69971 0.38523 0.68858 0.0
H469 H 0.6755 0.40442 0.65636 0.0
H470 H 0.62028 0.34817 0.66381 0.0
H471 H 0.64399 0.32929 0.69672 0.0
H472 H 0.65807 0.38616 0.61113 0.0
H473 H 0.58174 0.41163 0.67389 0.0
H474 H 0.61107 0.40158 0.68509 0.0
H475 H 0.58954 0.37971 0.67296 0.0
C476 C 0.68234 0.377 0.68351 0.0
C477 C 0.67367 0.35587 0.69546 0.0
C478 C 0.66863 0.38787 0.66492 0.0
C479 C 0.64594 0.37791 0.65792 0.0
C480 C 0.63757 0.35637 0.6692 0.0
H481 H 0.53821 0.45288 0.56552 0.0
H482 H 0.55893 0.41952 0.58708 0.0
C483 C 0.65127 0.34547 0.68784 0.0
C484 C 0.63087 0.39073 0.6394 0.0
H485 H 0.57848 0.42391 0.63288 0.0
C486 C 0.64054 0.39421 0.6158 0.0
C487 C 0.60793 0.40109 0.64547 0.0
C488 C 0.59694 0.39854 0.67075 0.0
C489 C 0.62823 0.40837 0.59831 0.0
C490 C 0.60584 0.41964 0.60475 0.0
C491 C 0.59562 0.41522 0.62796 0.0
C492 C 0.59401 0.43812 0.58885 0.0
C493 C 0.63961 0.41145 0.57329 0.0
C494 C 0.60685 0.45953 0.58256 0.0
C495 C 0.59515 0.47836 0.57 0.0
C496 C 0.57036 0.47617 0.56348 0.0
C497 C 0.55754 0.45465 0.56954 0.0
C498 C 0.56929 0.43573 0.58209 0.0
H499 H 0.65018 0.39492 0.56796 0.0
H500 H 0.62563 0.415 0.559 0.0
H501 H 0.65256 0.42718 0.57379 0.0
H502 H 0.62573 0.46208 0.58813 0.0
H503 H 0.6054 0.49486 0.56576 0.0
H504 H 0.89438 0.67056 0.21271 0.0
H505 H 0.91486 0.65121 0.1779 0.0
H506 H 0.86174 0.68198 0.12867 0.0
H507 H 0.84127 0.70205 0.16345 0.0
H508 H 0.87914 0.61984 0.13712 0.0
H509 H 0.94341 0.69345 0.10692 0.0
H510 H 0.93635 0.69036 0.13913 0.0
H511 H 0.91307 0.70022 0.11834 0.0
C512 C 0.88726 0.67368 0.19447 0.0
C513 C 0.86619 0.68796 0.19091 0.0
C514 C 0.89895 0.6625 0.17462 0.0
C515 C 0.88987 0.66536 0.1508 0.0
C516 C 0.86904 0.67973 0.14697 0.0
H517 H 0.95766 0.58194 0.02811 0.0
H518 H 0.93281 0.61398 0.04818 0.0
C519 C 0.8573 0.69099 0.16687 0.0
C520 C 0.90143 0.65172 0.13042 0.0
H521 H 0.95004 0.65356 0.09091 0.0
C522 C 0.89426 0.62734 0.12658 0.0
C523 C 0.92109 0.66166 0.11676 0.0
C524 C 0.92906 0.6879 0.12028 0.0
C525 C 0.90714 0.61219 0.1103 0.0
C526 C 0.9278 0.62164 0.09779 0.0
C527 C 0.93414 0.64643 0.10053 0.0
C528 C 0.94477 0.60499 0.08486 0.0
C529 C 0.8994 0.58576 0.10751 0.0
C530 C 0.96002 0.58995 0.09882 0.0
C531 C 0.97405 0.57192 0.08752 0.0
C532 C 0.97332 0.56873 0.06199 0.0
C533 C 0.95872 0.58434 0.0478 0.0
C534 C 0.94456 0.60252 0.05921 0.0
H535 H 0.88042 0.58261 0.11423 0.0
H536 H 0.90057 0.57991 0.08802 0.0
H537 H 0.91194 0.57405 0.11829 0.0
H538 H 0.96038 0.59161 0.11863 0.0
H539 H 0.98505 0.55997 0.09882 0.0
H540 H 0.37426 0.19297 0.20924 0.0
H541 H 0.40861 0.17057 0.1908 0.0
H542 H 0.35813 0.13113 0.14425 0.0
H543 H 0.32384 0.15292 0.16284 0.0
H544 H 0.39482 0.10143 0.16727 0.0
H545 H 0.43423 0.18308 0.12007 0.0
H546 H 0.42894 0.18521 0.15259 0.0
H547 H 0.40339 0.18283 0.13207 0.0
C548 C 0.3705 0.17934 0.19524 0.0
C549 C 0.34634 0.17489 0.18733 0.0
C550 C 0.39014 0.16672 0.1846 0.0
C551 C 0.38592 0.14942 0.16595 0.0
C552 C 0.3618 0.1445 0.15853 0.0
H553 H 0.43976 0.06182 0.05394 0.0
H554 H 0.4191 0.08288 0.08764 0.0
C555 C 0.34223 0.15711 0.16905 0.0
C556 C 0.40638 0.13658 0.15354 0.0
H557 H 0.45125 0.14485 0.11057 0.0
C558 C 0.40746 0.11097 0.15521 0.0
C559 C 0.42299 0.14906 0.13798 0.0
C560 C 0.42241 0.17655 0.13534 0.0
C561 C 0.42385 0.09742 0.14077 0.0
C562 C 0.43925 0.10977 0.12397 0.0
C563 C 0.43936 0.13546 0.12347 0.0
C564 C 0.45248 0.09632 0.10442 0.0
C565 C 0.42394 0.06989 0.14296 0.0
C566 C 0.47813 0.09731 0.1024 0.0
C567 C 0.49002 0.08514 0.08308 0.0
C568 C 0.47633 0.07216 0.06549 0.0
C569 C 0.45071 0.07157 0.06741 0.0
C570 C 0.43892 0.08343 0.08672 0.0
H571 H 0.41748 0.06394 0.16134 0.0
H572 H 0.41135 0.06194 0.12906 0.0
H573 H 0.44253 0.06239 0.13968 0.0
H574 H 0.48887 0.10745 0.11571 0.0
H575 H 0.50979 0.08617 0.08168 0.0
H576 H 0.20418 0.90627 0.7086 0.0
H577 H 0.16988 0.92837 0.69007 0.0
H578 H 0.16317 0.87206 0.6348 0.0
H579 H 0.19703 0.84974 0.65338 0.0
H580 H 0.16859 0.94606 0.64167 0.0
H581 H 0.09225 0.88108 0.65835 0.0
H582 H 0.12078 0.87988 0.67504 0.0
H583 H 0.11856 0.8668 0.64479 0.0
C584 C 0.1951 0.89841 0.69274 0.0
C585 C 0.20333 0.87627 0.68243 0.0
C586 C 0.17559 0.9111 0.68214 0.0
C587 C 0.16375 0.90168 0.66128 0.0
C588 C 0.17172 0.87943 0.65117 0.0
H589 H 0.0711 0.93839 0.54406 0.0
H590 H 0.09534 0.92004 0.57675 0.0
C591 C 0.19128 0.86684 0.66164 0.0
C592 C 0.14426 0.9158 0.64885 0.0
H593 H 0.08598 0.91083 0.62664 0.0
C594 C 0.15035 0.93863 0.63875 0.0
C595 C 0.12048 0.90606 0.64516 0.0
C596 C 0.1125 0.88221 0.65661 0.0
C597 C 0.13384 0.95126 0.62373 0.0
C598 C 0.11044 0.94096 0.61909 0.0
C599 C 0.10394 0.91868 0.63017 0.0
C600 C 0.09358 0.95164 0.60073 0.0
C601 C 0.14211 0.9748 0.61179 0.0
C602 C 0.08403 0.97532 0.60361 0.0
C603 C 0.07029 0.98594 0.58479 0.0
C604 C 0.06558 0.97288 0.56303 0.0
C605 C 0.07441 0.94887 0.56065 0.0
C606 C 0.08817 0.93833 0.57935 0.0
H607 H 0.16215 0.97788 0.61372 0.0
H608 H 0.13745 0.97474 0.59197 0.0
H609 H 0.13254 0.99044 0.62054 0.0
H610 H 0.08772 0.9858 0.6201 0.0
H611 H 0.06413 0.00463 0.58693 0.0
H612 H 0.82068 0.39074 0.87032 0.0
H613 H 0.85371 0.41034 0.89348 0.0
H614 H 0.90632 0.36276 0.85899 0.0
H615 H 0.87328 0.34308 0.83536 0.0
H616 H 0.88979 0.37795 0.92472 0.0
H617 H 0.93167 0.43938 0.85456 0.0
H618 H 0.89955 0.43127 0.85318 0.0
H619 H 0.92224 0.40863 0.84655 0.0
C620 C 0.83931 0.3847 0.86727 0.0
C621 C 0.84435 0.36538 0.85092 0.0
C622 C 0.85813 0.39586 0.88061 0.0
C623 C 0.88239 0.38808 0.87777 0.0
C624 C 0.88768 0.3691 0.86124 0.0
H625 H 0.00535 0.45477 0.96026 0.0
H626 H 0.98302 0.43028 0.92944 0.0
C627 C 0.86879 0.35779 0.84793 0.0
C628 C 0.90167 0.3989 0.89352 0.0
H629 H 0.94561 0.44365 0.89528 0.0
C630 C 0.90223 0.39209 0.91825 0.0
C631 C 0.91802 0.41706 0.88487 0.0
C632 C 0.91804 0.42468 0.85835 0.0
C633 C 0.9181 0.40369 0.93486 0.0
C634 C 0.93334 0.42303 0.92661 0.0
C635 C 0.93375 0.42896 0.90158 0.0
C636 C 0.94716 0.43859 0.94416 0.0
C637 C 0.91809 0.39539 0.96122 0.0
C638 C 0.93438 0.45176 0.96219 0.0
C639 C 0.94701 0.46576 0.97951 0.0
C640 C 0.97266 0.46722 0.97891 0.0
C641 C 0.98552 0.45438 0.96067 0.0
C642 C 0.97283 0.44027 0.94325 0.0
H643 H 0.91178 0.37608 0.96286 0.0
H644 H 0.93662 0.39706 0.96945 0.0
H645 H 0.90532 0.40698 0.97197 0.0
H646 H 0.91456 0.45109 0.96294 0.0
H647 H 0.93669 0.47553 0.99339 0.0
H648 H 0.6994 0.69138 0.38176 0.0
H649 H 0.66638 0.66798 0.40119 0.0
H650 H 0.6707 0.61359 0.34387 0.0
H651 H 0.70408 0.63677 0.32442 0.0
H652 H 0.6193 0.65138 0.37989 0.0
H653 H 0.68002 0.57546 0.4099 0.0
H654 H 0.69202 0.60505 0.40117 0.0
H655 H 0.68106 0.58421 0.37813 0.0
C656 C 0.69341 0.67439 0.37332 0.0
C657 C 0.70451 0.66582 0.35166 0.0
C658 C 0.67442 0.66115 0.38434 0.0
C659 C 0.66626 0.63898 0.37407 0.0
C660 C 0.6769 0.63057 0.35218 0.0
H661 H 0.56773 0.53622 0.45073 0.0
H662 H 0.5918 0.55469 0.41737 0.0
C663 C 0.69583 0.64391 0.34103 0.0
C664 C 0.64712 0.62451 0.38688 0.0
H665 H 0.639 0.57396 0.4227 0.0
C666 C 0.62349 0.6343 0.38903 0.0
C667 C 0.65259 0.60213 0.39856 0.0
C668 C 0.6778 0.59102 0.39705 0.0
C669 C 0.60539 0.62265 0.4032 0.0
C670 C 0.61129 0.601 0.41601 0.0
C671 C 0.63455 0.59059 0.4129 0.0
C672 C 0.59461 0.59033 0.43468 0.0
C673 C 0.58019 0.63376 0.40459 0.0
C674 C 0.58824 0.60421 0.45542 0.0
C675 C 0.57456 0.59375 0.47435 0.0
C676 C 0.56688 0.56921 0.4729 0.0
C677 C 0.57303 0.55532 0.45205 0.0
C678 C 0.58683 0.5658 0.43308 0.0
H679 H 0.57628 0.64509 0.38819 0.0
H680 H 0.56582 0.61938 0.40622 0.0
H681 H 0.57911 0.64583 0.42097 0.0
H682 H 0.59455 0.62296 0.45734 0.0
H683 H 0.57028 0.60477 0.49034 0.0
H684 H 0.17454 0.3111 0.13672 0.0
H685 H 0.15374 0.34271 0.11305 0.0
H686 H 0.179 0.39772 0.16427 0.0
H687 H 0.20055 0.36615 0.18752 0.0
H688 H 0.11719 0.36879 0.12833 0.0
H689 H 0.19109 0.43293 0.10105 0.0
H690 H 0.1973 0.40288 0.11316 0.0
H691 H 0.19041 0.42795 0.13352 0.0
C692 C 0.17591 0.33 0.14271 0.0
C693 C 0.18906 0.3362 0.16398 0.0
C694 C 0.1641 0.34807 0.12915 0.0
C695 C 0.16498 0.3727 0.13666 0.0
C696 C 0.17856 0.379 0.15766 0.0
H697 H 0.04807 0.47322 0.10517 0.0
H698 H 0.07933 0.44776 0.1243 0.0
C699 C 0.19072 0.36093 0.17106 0.0
C700 C 0.14956 0.39113 0.124 0.0
H701 H 0.14995 0.44778 0.0974 0.0
C702 C 0.12448 0.38594 0.12139 0.0
C703 C 0.15901 0.41347 0.11469 0.0
C704 C 0.18598 0.41955 0.1155 0.0
C705 C 0.10856 0.40249 0.11017 0.0
C706 C 0.11774 0.42534 0.10201 0.0
C707 C 0.14289 0.43042 0.10404 0.0
C708 C 0.10121 0.44397 0.0914 0.0
C709 C 0.08205 0.39514 0.10691 0.0
C710 C 0.10391 0.45147 0.06693 0.0
C711 C 0.08615 0.46628 0.05602 0.0
C712 C 0.06556 0.47386 0.0695 0.0
C713 C 0.06366 0.46744 0.09433 0.0
C714 C 0.08146 0.45287 0.10525 0.0
H715 H 0.07961 0.37493 0.10752 0.0
H716 H 0.07101 0.40316 0.122 0.0
H717 H 0.0747 0.40188 0.08922 0.0
H718 H 0.1191 0.44491 0.05597 0.0
H719 H 0.08792 0.47082 0.03678 0.0
H720 H 0.69622 0.17806 0.84445 0.0
H721 H 0.6734 0.14585 0.86608 0.0
H722 H 0.64484 0.19984 0.91634 0.0
H723 H 0.66705 0.23207 0.89443 0.0
H724 H 0.67224 0.12875 0.91315 0.0
H725 H 0.58289 0.16976 0.88922 0.0
H726 H 0.61128 0.17998 0.87569 0.0
H727 H 0.60234 0.19065 0.90567 0.0
C728 C 0.68522 0.18297 0.86025 0.0
C729 C 0.6831 0.20758 0.86757 0.0
C730 C 0.6722 0.16459 0.87258 0.0
C731 C 0.65696 0.17051 0.89248 0.0
C732 C 0.65591 0.19492 0.9006 0.0
H733 H 0.58663 0.0727 0.99722 0.0
H734 H 0.61628 0.09837 0.9752 0.0
C735 C 0.66865 0.21331 0.88812 0.0
C736 C 0.6414 0.15144 0.90418 0.0
H737 H 0.58209 0.13795 0.91877 0.0
C738 C 0.6525 0.13063 0.91426 0.0
C739 C 0.61561 0.15368 0.9052 0.0
C740 C 0.60229 0.17458 0.89314 0.0
C741 C 0.63851 0.11228 0.92585 0.0
C742 C 0.61283 0.11514 0.92788 0.0
C743 C 0.60178 0.13577 0.91739 0.0
C744 C 0.59674 0.09716 0.94064 0.0
C745 C 0.65139 0.08995 0.93553 0.0
C746 C 0.57581 0.088 0.9287 0.0
C747 C 0.55866 0.07386 0.94141 0.0
C748 C 0.56226 0.06824 0.96622 0.0
C749 C 0.58365 0.07651 0.97798 0.0
C750 C 0.60066 0.09105 0.96535 0.0
H751 H 0.66907 0.08683 0.92594 0.0
H752 H 0.65543 0.09282 0.95526 0.0
H753 H 0.63985 0.07325 0.93362 0.0
H754 H 0.57235 0.09243 0.90968 0.0
H755 H 0.54232 0.06767 0.93194 0.0
H756 H 0.88834 0.81328 0.38109 0.0
H757 H 0.90754 0.84643 0.40414 0.0
H758 H 0.84825 0.89451 0.38488 0.0
H759 H 0.82955 0.86172 0.36044 0.0
H760 H 0.89068 0.91723 0.3793 0.0
H761 H 0.89077 0.87338 0.4702 0.0
H762 H 0.90555 0.85408 0.44811 0.0
H763 H 0.87349 0.86107 0.44475 0.0
C764 C 0.8794 0.83092 0.38154 0.0
C765 C 0.85738 0.83476 0.36876 0.0
C766 C 0.89022 0.84979 0.39514 0.0
C767 C 0.87908 0.87285 0.39676 0.0
C768 C 0.85706 0.8768 0.38414 0.0
H769 H 0.95157 0.97649 0.4975 0.0
H770 H 0.91881 0.9527 0.47776 0.0
C771 C 0.8463 0.85795 0.3703 0.0
C772 C 0.8913 0.8931 0.41048 0.0
H773 H 0.92036 0.90607 0.46441 0.0
C774 C 0.89681 0.91494 0.39806 0.0
C775 C 0.89878 0.89051 0.43518 0.0
C776 C 0.89157 0.86859 0.45039 0.0
C777 C 0.9109 0.93352 0.40912 0.0
C778 C 0.92036 0.92986 0.43297 0.0
C779 C 0.91352 0.90874 0.44596 0.0
C780 C 0.93887 0.94662 0.44402 0.0
C781 C 0.91568 0.95679 0.39504 0.0
C782 C 0.961 0.95118 0.43167 0.0
C783 C 0.97948 0.9651 0.44273 0.0
C784 C 0.97632 0.97462 0.46648 0.0
C785 C 0.9542 0.97005 0.4789 0.0
C786 C 0.93558 0.95626 0.46772 0.0
H787 H 0.90058 0.96054 0.38197 0.0
H788 H 0.91778 0.97279 0.40751 0.0
H789 H 0.93277 0.95475 0.3842 0.0
H790 H 0.96435 0.94332 0.41372 0.0
H791 H 0.99647 0.96803 0.43285 0.0
H792 H 0.33165 0.70866 0.63657 0.0
H793 H 0.35061 0.67456 0.61424 0.0
H794 H 0.40419 0.66729 0.67174 0.0
H795 H 0.38513 0.7009 0.6943 0.0
H796 H 0.39916 0.67364 0.59754 0.0
H797 H 0.3812 0.59651 0.66075 0.0
H798 H 0.36455 0.62497 0.66236 0.0
H799 H 0.39452 0.62265 0.67582 0.0
C800 C 0.3472 0.69948 0.64464 0.0
C801 C 0.35693 0.70749 0.66718 0.0
C802 C 0.35805 0.68009 0.63183 0.0
C803 C 0.37858 0.66817 0.6415 0.0
C804 C 0.38807 0.6759 0.66416 0.0
H805 H 0.49568 0.57489 0.60321 0.0
H806 H 0.46371 0.59989 0.6221 0.0
C807 C 0.37734 0.69531 0.67689 0.0
C808 C 0.39138 0.64893 0.62722 0.0
H809 H 0.41344 0.59069 0.63127 0.0
C810 C 0.40193 0.65534 0.60465 0.0
C811 C 0.39491 0.62508 0.63656 0.0
C812 C 0.38299 0.61678 0.66009 0.0
C813 C 0.41714 0.63902 0.59185 0.0
C814 C 0.42152 0.61552 0.60173 0.0
C815 C 0.4101 0.60874 0.62377 0.0
C816 C 0.43964 0.59864 0.59063 0.0
C817 C 0.42945 0.64755 0.56858 0.0
C818 C 0.4365 0.58927 0.56682 0.0
C819 C 0.45487 0.57513 0.55592 0.0
C820 C 0.47645 0.56981 0.56881 0.0
C821 C 0.47921 0.57865 0.59287 0.0
C822 C 0.46092 0.59283 0.60371 0.0
H823 H 0.42779 0.66764 0.56599 0.0
H824 H 0.44919 0.64273 0.56865 0.0
H825 H 0.42078 0.63829 0.55263 0.0
H826 H 0.42008 0.5933 0.55651 0.0
H827 H 0.45249 0.56897 0.53717 0.0
H828 H 0.94986 0.89146 0.76455 0.0
H829 H 0.96807 0.9031 0.72543 0.0
H830 H 0.99722 0.96894 0.75848 0.0
H831 H 0.98039 0.95671 0.79805 0.0
H832 H 0.95615 0.94151 0.69959 0.0
H833 H 0.05528 0.94799 0.71899 0.0
H834 H 0.03404 0.93332 0.73974 0.0
H835 H 0.03786 0.96612 0.74014 0.0
C836 C 0.96077 0.90806 0.76376 0.0
C837 C 0.96361 0.92312 0.78459 0.0
C838 C 0.97104 0.91478 0.74127 0.0
C839 C 0.98434 0.93673 0.73901 0.0
C840 C 0.98758 0.95162 0.75982 0.0
H841 H 0.01266 0.03828 0.62606 0.0
H842 H 0.0106 0.01466 0.66407 0.0
C843 C 0.97753 0.94479 0.7824 0.0
C844 C 0.99252 0.9453 0.71447 0.0
H845 H 0.04111 0.96978 0.68319 0.0
C846 C 0.97485 0.9472 0.69589 0.0
C847 C 0.01694 0.95275 0.70957 0.0
C848 C 0.03715 0.94969 0.72811 0.0
C849 C 0.98063 0.95737 0.67303 0.0
C850 C 0.00472 0.96582 0.66857 0.0
C851 C 0.02265 0.96327 0.68675 0.0
C852 C 0.01069 0.9794 0.64592 0.0
C853 C 0.96069 0.96005 0.6541 0.0
C854 C 0.01221 0.96727 0.62323 0.0
C855 C 0.01343 0.98074 0.60147 0.0
C856 C 0.01314 0.00647 0.60218 0.0
C857 C 0.01293 0.01847 0.62502 0.0
C858 C 0.01187 0.00503 0.64671 0.0
H859 H 0.94242 0.9545 0.66124 0.0
H860 H 0.95972 0.97934 0.6478 0.0
H861 H 0.96501 0.94848 0.6379 0.0
H862 H 0.01126 0.94747 0.62232 0.0
H863 H 0.01325 0.97106 0.5841 0.0
H864 H 0.54056 0.13253 0.29567 0.0
H865 H 0.52074 0.12119 0.25694 0.0
H866 H 0.56946 0.05969 0.24962 0.0
H867 H 0.58939 0.07093 0.28803 0.0
H868 H 0.54241 0.11958 0.21222 0.0
H869 H 0.50402 0.02838 0.23328 0.0
H870 H 0.51367 0.04955 0.25695 0.0
H871 H 0.53567 0.03016 0.24184 0.0
C872 C 0.54693 0.11649 0.28588 0.0
C873 C 0.56656 0.10261 0.29499 0.0
C874 C 0.53547 0.10996 0.26384 0.0
C875 C 0.54329 0.08933 0.25061 0.0
C876 C 0.5626 0.07525 0.25986 0.0
H877 H 0.56855 0.05212 0.10726 0.0
H878 H 0.56395 0.07101 0.14762 0.0
C879 C 0.57404 0.08174 0.28184 0.0
C880 C 0.53317 0.08373 0.22597 0.0
H881 H 0.51373 0.03596 0.19033 0.0
C882 C 0.53554 0.10148 0.20755 0.0
C883 C 0.52367 0.06032 0.21989 0.0
C884 C 0.51885 0.04113 0.23913 0.0
C885 C 0.53082 0.09571 0.18291 0.0
C886 C 0.52392 0.07151 0.17655 0.0
C887 C 0.51934 0.05444 0.19518 0.0
C888 C 0.52528 0.06258 0.15091 0.0
C889 C 0.53434 0.11528 0.16377 0.0
C890 C 0.50509 0.05136 0.13939 0.0
C891 C 0.50773 0.04058 0.11615 0.0
C892 C 0.53065 0.0407 0.10444 0.0
C893 C 0.55065 0.05212 0.11588 0.0
C894 C 0.54798 0.06305 0.13883 0.0
H895 H 0.53081 0.13377 0.17154 0.0
H896 H 0.55359 0.11495 0.15721 0.0
H897 H 0.52207 0.11225 0.14782 0.0
H898 H 0.48751 0.05053 0.14858 0.0
H899 H 0.49216 0.03152 0.1077 0.0
H900 H 0.48685 0.64281 0.25244 0.0
H901 H 0.5066 0.63348 0.2918 0.0
H902 H 0.481 0.55882 0.28647 0.0
H903 H 0.461 0.56809 0.24745 0.0
H904 H 0.47565 0.61134 0.3333 0.0
H905 H 0.55721 0.55712 0.30657 0.0
H906 H 0.54354 0.57968 0.28669 0.0
H907 H 0.52941 0.55014 0.2902 0.0
C908 C 0.48587 0.62432 0.2595 0.0
C909 C 0.47238 0.60615 0.24704 0.0
C910 C 0.4971 0.61905 0.28192 0.0
C911 C 0.49542 0.59543 0.29182 0.0
C912 C 0.48274 0.57707 0.27892 0.0
H913 H 0.50907 0.50295 0.41066 0.0
H914 H 0.51076 0.52486 0.37185 0.0
C915 C 0.47122 0.58241 0.25677 0.0
C916 C 0.50444 0.59026 0.31678 0.0
H917 H 0.5434 0.55307 0.34793 0.0
C918 C 0.49081 0.59906 0.3367 0.0
C919 C 0.52417 0.57423 0.32091 0.0
C920 C 0.53962 0.56483 0.30001 0.0
C921 C 0.49514 0.59069 0.3606 0.0
C922 C 0.51416 0.57361 0.36466 0.0
C923 C 0.52886 0.56615 0.34484 0.0
C924 C 0.51661 0.56055 0.38835 0.0
C925 C 0.47807 0.59878 0.38084 0.0
C926 C 0.52002 0.5732 0.41058 0.0
C927 C 0.51847 0.5607 0.43291 0.0
C928 C 0.51432 0.53528 0.43327 0.0
C929 C 0.51231 0.52254 0.41095 0.0
C930 C 0.51344 0.53504 0.38874 0.0
H931 H 0.46158 0.60815 0.37362 0.0
H932 H 0.47195 0.58289 0.39197 0.0
H933 H 0.48782 0.61182 0.3931 0.0
H934 H 0.52299 0.59282 0.41073 0.0
H935 H 0.51958 0.57106 0.44984 0.0
H936 H 0.03875 0.40743 0.74221 0.0
H937 H 0.01629 0.41738 0.77991 0.0
H938 H 0.06609 0.47744 0.7937 0.0
H939 H 0.08802 0.46815 0.75588 0.0
H940 H 0.03376 0.41654 0.82627 0.0
H941 H 1.00087 0.50957 0.80657 0.0
H942 H 0.01163 0.48922 0.78273 0.0
H943 H 0.033 0.50757 0.80015 0.0
C944 C 0.04458 0.42307 0.75303 0.0
C945 C 0.06522 0.43698 0.74606 0.0
C946 C 0.03178 0.42866 0.77461 0.0
C947 C 0.03921 0.44843 0.78942 0.0
C948 C 0.0596 0.46249 0.78229 0.0
H949 H 0.06203 0.48053 0.93186 0.0
H950 H 0.05559 0.46092 0.89215 0.0
C951 C 0.07238 0.45692 0.76082 0.0
C952 C 0.02736 0.45326 0.81346 0.0
H953 H 0.00858 0.50056 0.84982 0.0
C954 C 0.0276 0.43474 0.83126 0.0
C955 C 0.0186 0.47677 0.81992 0.0
C956 C 0.01574 0.4968 0.8012 0.0
C957 C 0.02184 0.43987 0.85584 0.0
C958 C 0.01617 0.46415 0.8628 0.0
C959 C 0.01333 0.48199 0.84458 0.0
C960 C 0.01785 0.47242 0.88866 0.0
C961 C 0.02309 0.41951 0.87439 0.0
C962 C 0.99874 0.48541 0.90003 0.0
C963 C 0.00246 0.49665 0.92292 0.0
C964 C 0.0254 0.49521 0.93442 0.0
C965 C 0.04413 0.48161 0.92339 0.0
C966 C 0.04037 0.47025 0.9008 0.0
H967 H 0.01841 0.40159 0.86584 0.0
H968 H 0.04206 0.41827 0.88155 0.0
H969 H 0.01049 0.42285 0.89003 0.0
H970 H 0.98132 0.48753 0.89083 0.0
H971 H 0.98788 0.50733 0.93107 0.0
H972 H 0.77122 0.93033 0.94739 0.0
H973 H 0.73258 0.9509 0.95584 0.0
H974 H 0.74984 0.00568 0.90175 0.0
H975 H 0.78841 0.98474 0.89248 0.0
H976 H 0.73264 0.02351 0.95042 0.0
H977 H 0.67182 0.95345 0.90841 0.0
H978 H 0.69483 0.94099 0.92825 0.0
H979 H 0.70389 0.9564 0.90059 0.0
C980 C 0.76673 0.94651 0.93694 0.0
C981 C 0.78291 0.95569 0.91905 0.0
C982 C 0.74465 0.95831 0.9419 0.0
C983 C 0.73825 0.97959 0.92918 0.0
C984 C 0.75444 0.98918 0.91165 0.0
H985 H 0.58701 0.02001 0.96367 0.0
H986 H 0.62419 0.01929 0.93826 0.0
C987 C 0.77653 0.97726 0.90652 0.0
C988 C 0.71477 0.99183 0.93485 0.0
H989 H 0.65343 0.98031 0.93794 0.0
C990 C 0.71522 0.01438 0.94724 0.0
C991 C 0.69208 0.98014 0.93027 0.0
C992 C 0.6905 0.95651 0.91594 0.0
C993 C 0.69368 0.02456 0.95695 0.0
C994 C 0.67122 0.0117 0.9543 0.0
C995 C 0.67059 0.99018 0.94011 0.0
C996 C 0.64917 0.01783 0.96903 0.0
C997 C 0.6955 0.04847 0.97075 0.0
C998 C 0.65086 0.01797 0.99469 0.0
C999 C 0.62977 0.01855 0.00911 0.0
C1000 C 0.60649 0.01891 0.99821 0.0
C1001 C 0.60473 0.02017 0.97254 0.0
C1002 C 0.62595 0.0196 0.95804 0.0
H1003 H 0.70896 0.0609 0.96181 0.0
H1004 H 0.67761 0.05791 0.97198 0.0
H1005 H 0.70217 0.04488 0.9896 0.0
H1006 H 0.66843 0.01603 0.00365 0.0
H1007 H 0.63165 0.01747 0.02885 0.0
H1008 H 0.7477 0.05014 0.39983 0.0
H1009 H 0.78753 0.03157 0.40895 0.0
H1010 H 0.79927 0.08468 0.46649 0.0
H1011 H 0.75962 0.10306 0.45782 0.0
H1012 H 0.83855 0.07963 0.43067 0.0
H1013 H 0.80809 0.99094 0.47108 0.0
H1014 H 0.79516 1.00025 0.44223 0.0
H1015 H 0.78806 0.01711 0.46957 0.0
C1016 C 0.75863 0.05762 0.41466 0.0
C1017 C 0.75057 0.0782 0.42799 0.0
C1018 C 0.78137 0.04701 0.4198 0.0
C1019 C 0.79627 0.05676 0.4384 0.0
C1020 C 0.78806 0.07697 0.45198 0.0
H1021 H 0.91161 0.02853 0.53185 0.0
H1022 H 0.87339 0.02937 0.50874 0.0
C1023 C 0.76545 0.08753 0.4469 0.0
C1024 C 0.8209 0.04679 0.44349 0.0
H1025 H 0.8502 1.00005 0.47248 0.0
C1026 C 0.84125 0.06203 0.43937 0.0
C1027 C 0.8242 0.02383 0.45484 0.0
C1028 C 0.8028 0.007 0.45987 0.0
C1029 C 0.86467 0.05555 0.44754 0.0
C1030 C 0.86786 0.03302 0.45985 0.0
C1031 C 0.84771 0.01719 0.46284 0.0
C1032 C 0.89087 0.02767 0.47314 0.0
C1033 C 0.88545 0.07365 0.44443 0.0
C1034 C 0.91337 0.02548 0.4608 0.0
C1035 C 0.93534 0.02522 0.47404 0.0
C1036 C 0.93501 0.02681 0.49977 0.0
C1037 C 0.91239 0.02734 0.51203 0.0
C1038 C 0.89054 0.02768 0.49885 0.0
H1039 H 0.87904 0.09169 0.43769 0.0
H1040 H 0.89516 0.07654 0.46209 0.0
H1041 H 0.89881 0.06631 0.43097 0.0
H1042 H 0.91398 0.02516 0.44095 0.0
H1043 H 0.95255 0.02505 0.46414 0.0
H1044 H 0.28065 0.60016 0.08246 0.0
H1045 H 0.24049 0.58243 0.07364 0.0
H1046 H 0.2529 0.52598 0.12718 0.0
H1047 H 0.2936 0.54331 0.13577 0.0
H1048 H 0.23223 0.50874 0.08211 0.0
H1049 H 0.18104 0.5874 0.12015 0.0
H1050 H 0.20406 0.59669 0.09851 0.0
H1051 H 0.21302 0.58228 0.12671 0.0
C1052 C 0.27504 0.58379 0.09216 0.0
C1053 C 0.29033 0.57319 0.10986 0.0
C1054 C 0.25194 0.57385 0.0873 0.0
C1055 C 0.24356 0.55319 0.1001 0.0
C1056 C 0.25896 0.54209 0.1173 0.0
H1057 H 0.08795 0.52463 0.07096 0.0
H1058 H 0.12577 0.52417 0.0953 0.0
C1059 C 0.28212 0.55208 0.12225 0.0
C1060 C 0.21868 0.5434 0.0952 0.0
H1061 H 0.15914 0.56154 0.09171 0.0
C1062 C 0.21614 0.52005 0.08463 0.0
C1063 C 0.19763 0.55788 0.09912 0.0
C1064 C 0.19899 0.58235 0.112 0.0
C1065 C 0.19332 0.51167 0.07602 0.0
C1066 C 0.17276 0.52724 0.07773 0.0
C1067 C 0.17496 0.54969 0.09015 0.0
C1068 C 0.14991 0.52246 0.06382 0.0
C1069 C 0.19157 0.48658 0.0645 0.0
C1070 C 0.15095 0.52123 0.03814 0.0
C1071 C 0.1295 0.52157 0.02431 0.0
C1072 C 0.10657 0.52306 0.03588 0.0
C1073 C 0.1054 0.52312 0.06162 0.0
C1074 C 0.12696 0.52292 0.0755 0.0
H1075 H 0.20538 0.47401 0.07242 0.0
H1076 H 0.17305 0.47843 0.06701 0.0
H1077 H 0.1953 0.48805 0.04455 0.0
H1078 H 0.16841 0.52147 0.02869 0.0
H1079 H 0.1309 0.52157 0.00449 0.0
H1080 H 0.2481 0.49369 0.63967 0.0
H1081 H 0.28793 0.51241 0.62987 0.0
H1082 H 0.2972 0.4611 0.57035 0.0
H1083 H 0.2575 0.44262 0.57968 0.0
H1084 H 0.33749 0.46487 0.60548 0.0
H1085 H 0.30767 0.55475 0.56815 0.0
H1086 H 0.29505 0.5446 0.59694 0.0
H1087 H 0.28731 0.52858 0.56924 0.0
C1088 C 0.25847 0.48665 0.62427 0.0
C1089 C 0.24969 0.46653 0.61056 0.0
C1090 C 0.28121 0.49734 0.61874 0.0
C1091 C 0.29544 0.48813 0.59938 0.0
C1092 C 0.28652 0.46839 0.58544 0.0
H1093 H 0.41025 0.51784 0.50462 0.0
H1094 H 0.37218 0.517 0.52814 0.0
C1095 C 0.26388 0.45776 0.59089 0.0
C1096 C 0.32012 0.4981 0.59391 0.0
H1097 H 0.34962 0.54551 0.56556 0.0
C1098 C 0.3403 0.48269 0.59718 0.0
C1099 C 0.32356 0.52134 0.58309 0.0
C1100 C 0.30233 0.53837 0.57897 0.0
C1101 C 0.36368 0.48932 0.58874 0.0
C1102 C 0.36702 0.51218 0.577 0.0
C1103 C 0.34704 0.52812 0.57479 0.0
C1104 C 0.38997 0.51787 0.56356 0.0
C1105 C 0.38425 0.47108 0.59098 0.0
C1106 C 0.4126 0.5197 0.57568 0.0
C1107 C 0.43448 0.52001 0.56221 0.0
C1108 C 0.43392 0.51878 0.53647 0.0
C1109 C 0.41119 0.51875 0.52445 0.0
C1110 C 0.38943 0.51839 0.53786 0.0
H1111 H 0.37767 0.45288 0.5973 0.0
H1112 H 0.39368 0.46868 0.57308 0.0
H1113 H 0.3979 0.478 0.60441 0.0
H1114 H 0.41339 0.5196 0.59552 0.0
H1115 H 0.45177 0.5198 0.57193 0.0
H1116 H 0.90847 0.76051 0.94259 0.0
H1117 H 0.9236 0.72401 0.9632 0.0
H1118 H 0.96529 0.76936 0.01304 0.0
H1119 H 0.95054 0.80609 0.99208 0.0
H1120 H 0.9931 0.73458 0.99055 0.0
H1121 H 0.90998 0.69082 0.02853 0.0
H1122 H 0.90587 0.69879 0.99693 0.0
H1123 H 0.91081 0.7226 0.01937 0.0
C1124 C 0.92065 0.76273 0.9581 0.0
C1125 C 0.92845 0.78617 0.9656 0.0
C1126 C 0.92902 0.74185 0.9701 0.0
C1127 C 0.94527 0.74393 0.98993 0.0
C1128 C 0.95252 0.76734 0.99796 0.0
H1129 H 0.00812 0.60433 0.04458 0.0
H1130 H 0.98934 0.64526 0.04726 0.0
C1131 C 0.94405 0.7883 0.98601 0.0
C1132 C 0.95693 0.72162 0.99994 0.0
H1133 H 0.94393 0.66349 0.01918 0.0
C1134 C 0.9824 0.71927 0.99743 0.0
C1135 C 0.94308 0.70171 0.00922 0.0
C1136 C 0.91594 0.70369 0.01393 0.0
C1137 C 0.99404 0.69692 0.00196 0.0
C1138 C 0.97984 0.67641 0.00899 0.0
C1139 C 0.95472 0.67922 0.01351 0.0
C1140 C 0.99017 0.65145 0.0081 0.0
C1141 C 0.02132 0.69504 0.99799 0.0
C1142 C 0.99637 0.64139 0.98526 0.0
C1143 C 0.00655 0.61811 0.98371 0.0
C1144 C 0.0106 0.6043 0.00497 0.0
C1145 C 0.00444 0.61434 0.02791 0.0
C1146 C 0.99399 0.63773 0.02947 0.0
H1147 H 0.03041 0.71326 0.99921 0.0
H1148 H 0.02972 0.68262 0.01165 0.0
H1149 H 0.02485 0.68742 0.97943 0.0
H1150 H 0.99337 0.65164 0.96857 0.0
H1151 H 0.01121 0.61084 0.9658 0.0
H1152 H 0.40016 0.7534 0.05517 0.0
H1153 H 0.41167 0.79293 0.03704 0.0
H1154 H 0.46802 0.80208 0.09166 0.0
H1155 H 0.45701 0.76267 0.10958 0.0
H1156 H 0.43489 0.84307 0.08554 0.0
H1157 H 0.47593 0.81014 0.99788 0.0
H1158 H 0.44607 0.79878 0.00635 0.0
H1159 H 0.47228 0.79036 0.02412 0.0
C1160 C 0.4152 0.76371 0.06312 0.0
C1161 C 0.42756 0.75494 0.08394 0.0
C1162 C 0.4217 0.78628 0.05276 0.0
C1163 C 0.44072 0.80034 0.063 0.0
C1164 C 0.45321 0.79153 0.08356 0.0
H1165 H 0.53857 0.91425 0.03295 0.0
H1166 H 0.51511 0.87613 0.03576 0.0
C1167 C 0.44679 0.76906 0.09387 0.0
C1168 C 0.44747 0.82463 0.05301 0.0
H1169 H 0.47856 0.85236 0.00627 0.0
C1170 C 0.44406 0.84524 0.06802 0.0
C1171 C 0.45947 0.82725 0.03018 0.0
C1172 C 0.46385 0.80552 0.01363 0.0
C1173 C 0.45332 0.86828 0.06135 0.0
C1174 C 0.46607 0.8708 0.03888 0.0
C1175 C 0.46859 0.85037 0.02337 0.0
C1176 C 0.47973 0.89355 0.033 0.0
C1177 C 0.45069 0.88941 0.07909 0.0
C1178 C 0.46761 0.91592 0.02975 0.0
C1179 C 0.48102 0.9378 0.02837 0.0
C1180 C 0.50672 0.93755 0.02987 0.0
C1181 C 0.51878 0.91499 0.03177 0.0
C1182 C 0.50541 0.89319 0.03323 0.0
H1183 H 0.44366 0.88342 0.09725 0.0
H1184 H 0.46858 0.8988 0.08183 0.0
H1185 H 0.43768 0.90292 0.07148 0.0
H1186 H 0.44779 0.91654 0.02931 0.0
H1187 H 0.47124 0.95496 0.0273 0.0
H1188 H 0.11976 0.30262 0.53832 0.0
H1189 H 0.10637 0.26428 0.51849 0.0
H1190 H 0.07098 0.24225 0.58578 0.0
H1191 H 0.08317 0.28092 0.605 0.0
H1192 H 0.11423 0.2177 0.52565 0.0
H1193 H 0.0157 0.2333 0.53969 0.0
H1194 H 0.03817 0.25694 0.54536 0.0
H1195 H 0.03092 0.23468 0.5687 0.0
C1196 C 0.10898 0.28955 0.5487 0.0
C1197 C 0.10209 0.29475 0.57299 0.0
C1198 C 0.10139 0.26769 0.53743 0.0
C1199 C 0.08705 0.25064 0.5504 0.0
C1200 C 0.08117 0.25548 0.57505 0.0
H1201 H 0.06804 0.09716 0.53731 0.0
H1202 H 0.08579 0.13836 0.53709 0.0
C1203 C 0.08827 0.27748 0.58609 0.0
C1204 C 0.07826 0.22764 0.53856 0.0
H1205 H 0.02771 0.19109 0.53425 0.0
C1206 C 0.09522 0.21202 0.52713 0.0
C1207 C 0.05331 0.22051 0.53952 0.0
C1208 C 0.03349 0.23743 0.54871 0.0
C1209 C 0.08816 0.18882 0.5182 0.0
C1210 C 0.06375 0.18064 0.52178 0.0
C1211 C 0.04656 0.19696 0.53178 0.0
C1212 C 0.05573 0.15488 0.51723 0.0
C1213 C 0.10692 0.17346 0.50497 0.0
C1214 C 0.03299 0.15012 0.50602 0.0
C1215 C 0.02246 0.12679 0.50711 0.0
C1216 C 0.03484 0.10763 0.51865 0.0
C1217 C 0.05839 0.11171 0.52803 0.0
C1218 C 0.06862 0.13525 0.52766 0.0
H1219 H 0.12022 0.18523 0.49496 0.0
H1220 H 0.11743 0.16269 0.51854 0.0
H1221 H 0.09821 0.16068 0.49167 0.0
H1222 H 0.02268 0.16482 0.49774 0.0
H1223 H 0.0042 0.12394 0.49984 0.0
H1224 H 0.61753 0.24221 0.49895 0.0
H1225 H 0.60174 0.27925 0.51868 0.0
H1226 H 0.57757 0.30578 0.44844 0.0
H1227 H 0.59128 0.26829 0.42897 0.0
H1228 H 0.61151 0.3268 0.51492 0.0
H1229 H 0.51581 0.31142 0.48674 0.0
H1230 H 0.53887 0.28816 0.48324 0.0
H1231 H 0.53516 0.3115 0.46022 0.0
C1232 C 0.60846 0.25571 0.48773 0.0
C1233 C 0.60555 0.25198 0.4623 0.0
C1234 C 0.59969 0.27702 0.49904 0.0
C1235 C 0.58793 0.29506 0.48515 0.0
C1236 C 0.58592 0.29183 0.45969 0.0
H1237 H 0.56626 0.44758 0.50386 0.0
H1238 H 0.58427 0.40666 0.50394 0.0
C1239 C 0.59424 0.27045 0.44847 0.0
C1240 C 0.57761 0.31731 0.49692 0.0
H1241 H 0.52685 0.35321 0.49638 0.0
C1242 C 0.59286 0.33244 0.51126 0.0
C1243 C 0.55303 0.32431 0.49297 0.0
C1244 C 0.53474 0.3078 0.48021 0.0
C1245 C 0.58462 0.35512 0.52032 0.0
C1246 C 0.56085 0.36325 0.51404 0.0
C1247 C 0.54522 0.34736 0.501 0.0
C1248 C 0.55211 0.38859 0.51896 0.0
C1249 C 0.60148 0.36999 0.5365 0.0
C1250 C 0.52812 0.39236 0.52756 0.0
C1251 C 0.51756 0.41555 0.52651 0.0
C1252 C 0.53106 0.43554 0.51763 0.0
C1253 C 0.55565 0.43236 0.51099 0.0
C1254 C 0.56601 0.40898 0.5113 0.0
H1255 H 0.61346 0.35789 0.54752 0.0
H1256 H 0.61357 0.38149 0.52486 0.0
H1257 H 0.59112 0.38207 0.5492 0.0
H1258 H 0.51701 0.37705 0.53369 0.0
H1259 H 0.49854 0.4177 0.53174 0.0
loop_
_geom_bond_atom_site_label_1
_geom_bond_atom_site_label_2
_geom_bond_distance
_geom_bond_site_symmetry_2
_ccdc_geom_bond_type
C0 C1 1.386 . S
C0 C2 1.397 . S
C0 H24 0.931 . S
C1 C0 1.386 . S
C1 C5 1.397 . S
C2 C0 1.397 . S
C2 C3 1.384 . S
C2 H25 0.930 . S
C3 C2 1.384 . S
C3 C4 1.377 . S
C3 C6 1.481 . S
C4 C3 1.377 . S
C4 C5 1.389 . S
C4 H26 0.929 . S
C5 C1 1.397 . S
C5 C4 1.389 . S
C5 H27 0.931 . S
C6 C3 1.481 . S
C6 C7 1.387 . S
C6 C11 1.390 . S
C7 C6 1.387 . S
C7 C8 1.401 . S
C7 H28 0.930 . S
C8 C7 1.401 . S
C8 C9 1.376 . S
C8 C17 1.511 . S
C9 C8 1.376 . S
C9 C10 1.392 . S
C9 H30 0.931 . S
C10 C9 1.392 . S
C10 C11 1.361 . S
C10 C12 1.500 . S
C11 C6 1.390 . S
C11 C10 1.361 . S
C11 H29 0.931 . S
C12 C10 1.500 . S
C12 C13 1.371 . S
C12 C14 1.365 . S
C13 C12 1.371 . S
C13 C23 1.386 . S
C13 H31 0.931 . S
C14 C12 1.365 . S
C14 C15 1.409 . S
C14 H32 0.929 . S
C15 C14 1.409 . S
C15 C16 1.380 . S
C15 H33 0.930 . S
C16 C15 1.380 . S
C16 C23 1.357 . S
C17 C8 1.511 . S
C17 C18 1.341 . S
C17 C19 1.371 . S
C18 C17 1.341 . S
C18 C22 1.394 . S
C18 H34 0.930 . S
C19 C17 1.371 . S
C19 C20 1.392 . S
C19 H35 0.931 . S
C20 C19 1.392 . S
C20 C21 1.331 . S
C20 H38 0.932 . S
C21 C20 1.331 . S
C21 C22 1.336 . S
C22 C18 1.394 . S
C22 C21 1.336 . S
C22 H37 0.929 . S
C23 C13 1.386 . S
C23 C16 1.357 . S
C23 H36 0.928 . S
H24 C0 0.931 . S
H25 C2 0.930 . S
H26 C4 0.929 . S
H27 C5 0.931 . S
H28 C7 0.930 . S
H29 C11 0.931 . S
H30 C9 0.931 . S
H31 C13 0.931 . S
H32 C14 0.929 . S
H33 C15 0.930 . S
H34 C18 0.930 . S
H35 C19 0.931 . S
H36 C23 0.928 . S
H37 C22 0.929 . S
H38 C20 0.932 . S
C39 C40 1.386 . S
C39 C41 1.397 . S
C39 H63 0.931 . S
C40 C39 1.386 . S
C40 C44 1.397 . S
C41 C39 1.397 . S
C41 C42 1.384 . S
C41 H64 0.930 . S
C42 C41 1.384 . S
C42 C43 1.377 . S
C42 C45 1.481 . S
C43 C42 1.377 . S
C43 C44 1.389 . S
C43 H65 0.929 . S
C44 C40 1.397 . S
C44 C43 1.389 . S
C44 H66 0.931 . S
C45 C42 1.481 . S
C45 C46 1.387 . S
C45 C50 1.390 . S
C46 C45 1.387 . S
C46 C47 1.401 . S
C46 H67 0.930 . S
C47 C46 1.401 . S
C47 C48 1.376 . S
C47 C56 1.511 . S
C48 C47 1.376 . S
C48 C49 1.392 . S
C48 H69 0.931 . S
C49 C48 1.392 . S
C49 C50 1.361 . S
C49 C51 1.500 . S
C50 C45 1.390 . S
C50 C49 1.361 . S
C50 H68 0.931 . S
C51 C49 1.500 . S
C51 C52 1.371 . S
C51 C53 1.365 . S
C52 C51 1.371 . S
C52 C62 1.386 . S
C52 H70 0.931 . S
C53 C51 1.365 . S
C53 C54 1.409 . S
C53 H71 0.929 . S
C54 C53 1.409 . S
C54 C55 1.380 . S
C54 H72 0.930 . S
C55 C54 1.380 . S
C55 C62 1.357 . S
C56 C47 1.511 . S
C56 C57 1.341 . S
C56 C58 1.371 . S
C57 C56 1.341 . S
C57 C61 1.394 . S
C57 H73 0.930 . S
C58 C56 1.371 . S
C58 C59 1.392 . S
C58 H74 0.931 . S
C59 C58 1.392 . S
C59 C60 1.331 . S
C59 H77 0.932 . S
C60 C59 1.331 . S
C60 C61 1.336 . S
C61 C57 1.394 . S
C61 C60 1.336 . S
C61 H76 0.929 . S
C62 C52 1.386 . S
C62 C55 1.357 . S
C62 H75 0.928 . S
H63 C39 0.931 . S
H64 C41 0.930 . S
H65 C43 0.929 . S
H66 C44 0.931 . S
H67 C46 0.930 . S
H68 C50 0.931 . S
H69 C48 0.931 . S
H70 C52 0.931 . S
H71 C53 0.929 . S
H72 C54 0.930 . S
H73 C57 0.930 . S
H74 C58 0.931 . S
H75 C62 0.928 . S
H76 C61 0.929 . S
H77 C59 0.932 . S
C78 C79 1.386 . S
C78 C80 1.397 . S
C78 H102 0.931 . S
C79 C78 1.386 . S
C79 C83 1.397 . S
C80 C78 1.397 . S
C80 C81 1.384 . S
C80 H103 0.930 . S
C81 C80 1.384 . S
C81 C82 1.377 . S
C81 C84 1.481 . S
C82 C81 1.377 . S
C82 C83 1.389 . S
C82 H104 0.929 . S
C83 C79 1.397 . S
C83 C82 1.389 . S
C83 H105 0.931 . S
C84 C81 1.481 . S
C84 C85 1.387 . S
C84 C89 1.390 . S
C85 C84 1.387 . S
C85 C86 1.401 . S
C85 H106 0.930 . S
C86 C85 1.401 . S
C86 C87 1.376 . S
C86 C95 1.511 . S
C87 C86 1.376 . S
C87 C88 1.392 . S
C87 H108 0.931 . S
C88 C87 1.392 . S
C88 C89 1.361 . S
C88 C90 1.500 . S
C89 C84 1.390 . S
C89 C88 1.361 . S
C89 H107 0.931 . S
C90 C88 1.500 . S
C90 C91 1.371 . S
C90 C92 1.365 . S
C91 C90 1.371 . S
C91 C101 1.386 . S
C91 H109 0.931 . S
C92 C90 1.365 . S
C92 C93 1.409 . S
C92 H110 0.929 . S
C93 C92 1.409 . S
C93 C94 1.380 . S
C93 H111 0.930 . S
C94 C93 1.380 . S
C94 C101 1.357 . S
C95 C86 1.511 . S
C95 C96 1.341 . S
C95 C97 1.371 . S
C96 C95 1.341 . S
C96 C100 1.394 . S
C96 H112 0.930 . S
C97 C95 1.371 . S
C97 C98 1.392 . S
C97 H113 0.931 . S
C98 C97 1.392 . S
C98 C99 1.331 . S
C98 H116 0.932 . S
C99 C98 1.331 . S
C99 C100 1.336 . S
C100 C96 1.394 . S
C100 C99 1.336 . S
C100 H115 0.929 . S
C101 C91 1.386 . S
C101 C94 1.357 . S
C101 H114 0.928 . S
H102 C78 0.931 . S
H103 C80 0.930 . S
H104 C82 0.929 . S
H105 C83 0.931 . S
H106 C85 0.930 . S
H107 C89 0.931 . S
H108 C87 0.931 . S
H109 C91 0.931 . S
H110 C92 0.929 . S
H111 C93 0.930 . S
H112 C96 0.930 . S
H113 C97 0.931 . S
H114 C101 0.928 . S
H115 C100 0.929 . S
H116 C98 0.932 . S
C117 C118 1.386 . S
C117 C119 1.397 . S
C117 H141 0.931 . S
C118 C117 1.386 . S
C118 C122 1.397 . S
C119 C117 1.397 . S
C119 C120 1.384 . S
C119 H142 0.930 . S
C120 C119 1.384 . S
C120 C121 1.377 . S
C120 C123 1.481 . S
C121 C120 1.377 . S
C121 C122 1.389 . S
C121 H143 0.929 . S
C122 C118 1.397 . S
C122 C121 1.389 . S
C122 H144 0.931 . S
C123 C120 1.481 . S
C123 C124 1.387 . S
C123 C128 1.390 . S
C124 C123 1.387 . S
C124 C125 1.401 . S
C124 H145 0.930 . S
C125 C124 1.401 . S
C125 C126 1.376 . S
C125 C134 1.511 . S
C126 C125 1.376 . S
C126 C127 1.392 . S
C126 H147 0.931 . S
C127 C126 1.392 . S
C127 C128 1.361 . S
C127 C129 1.500 . S
C128 C123 1.390 . S
C128 C127 1.361 . S
C128 H146 0.931 . S
C129 C127 1.500 . S
C129 C130 1.371 . S
C129 C131 1.365 . S
C130 C129 1.371 . S
C130 C140 1.386 . S
C130 H148 0.931 . S
C131 C129 1.365 . S
C131 C132 1.409 . S
C131 H149 0.929 . S
C132 C131 1.409 . S
C132 C133 1.380 . S
C132 H150 0.930 . S
C133 C132 1.380 . S
C133 C140 1.357 . S
C134 C125 1.511 . S
C134 C135 1.341 . S
C134 C136 1.371 . S
C135 C134 1.341 . S
C135 C139 1.394 . S
C135 H151 0.930 . S
C136 C134 1.371 . S
C136 C137 1.392 . S
C136 H152 0.931 . S
C137 C136 1.392 . S
C137 C138 1.331 . S
C137 H155 0.932 . S
C138 C137 1.331 . S
C138 C139 1.336 . S
C139 C135 1.394 . S
C139 C138 1.336 . S
C139 H154 0.929 . S
C140 C130 1.386 . S
C140 C133 1.357 . S
C140 H153 0.928 . S
H141 C117 0.931 . S
H142 C119 0.930 . S
H143 C121 0.929 . S
H144 C122 0.931 . S
H145 C124 0.930 . S
H146 C128 0.931 . S
H147 C126 0.931 . S
H148 C130 0.931 . S
H149 C131 0.929 . S
H150 C132 0.930 . S
H151 C135 0.930 . S
H152 C136 0.931 . S
H153 C140 0.928 . S
H154 C139 0.929 . S
H155 C137 0.932 . S
C156 C157 1.386 . S
C156 C158 1.397 . S
C156 H180 0.931 . S
C157 C156 1.386 . S
C157 C161 1.397 . S
C158 C156 1.397 . S
C158 C159 1.384 . S
C158 H181 0.930 . S
C159 C158 1.384 . S
C159 C160 1.377 . S
C159 C162 1.481 . S
C160 C159 1.377 . S
C160 C161 1.389 . S
C160 H182 0.929 . S
C161 C157 1.397 . S
C161 C160 1.389 . S
C161 H183 0.931 1_565 S
C162 C159 1.481 . S
C162 C163 1.387 . S
C162 C167 1.390 . S
C163 C162 1.387 . S
C163 C164 1.401 . S
C163 H184 0.930 . S
C164 C163 1.401 . S
C164 C165 1.376 . S
C164 C173 1.511 . S
C165 C164 1.376 . S
C165 C166 1.392 . S
C165 H186 0.931 . S
C166 C165 1.392 . S
C166 C167 1.361 . S
C166 C168 1.500 . S
C167 C162 1.390 . S
C167 C166 1.361 . S
C167 H185 0.931 . S
C168 C166 1.500 . S
C168 C169 1.371 . S
C168 C170 1.365 . S
C169 C168 1.371 . S
C169 C179 1.386 . S
C169 H187 0.931 . S
C170 C168 1.365 . S
C170 C171 1.409 . S
C170 H188 0.929 . S
C171 C170 1.409 . S
C171 C172 1.380 . S
C171 H189 0.930 1_565 S
C172 C171 1.380 . S
C172 C179 1.357 . S
C173 C164 1.511 . S
C173 C174 1.341 . S
C173 C175 1.371 . S
C174 C173 1.341 . S
C174 C178 1.394 . S
C174 H190 0.930 . S
C175 C173 1.371 . S
C175 C176 1.392 . S
C175 H191 0.931 . S
C176 C175 1.392 . S
C176 C177 1.331 . S
C176 H194 0.907 1_556 S
C177 C176 1.331 . S
C177 C178 1.336 . S
C178 C174 1.394 . S
C178 C177 1.336 . S
C178 H193 0.929 . S
C179 C169 1.386 . S
C179 C172 1.357 . S
C179 H192 0.928 . S
H180 C156 0.931 . S
H181 C158 0.930 . S
H182 C160 0.929 . S
H183 C161 0.931 1_545 S
H184 C163 0.930 . S
H185 C167 0.931 . S
H186 C165 0.931 . S
H187 C169 0.931 . S
H188 C170 0.929 . S
H189 C171 0.930 1_545 S
H190 C174 0.930 . S
H191 C175 0.931 . S
H192 C179 0.928 . S
H193 C178 0.929 . S
H194 C176 0.907 1_554 S
C195 C196 1.386 . S
C195 C197 1.397 . S
C195 H219 0.931 . S
C196 C195 1.386 . S
C196 C200 1.397 . S
C197 C195 1.397 . S
C197 C198 1.384 . S
C197 H220 0.930 . S
C198 C197 1.384 . S
C198 C199 1.377 . S
C198 C201 1.481 . S
C199 C198 1.377 . S
C199 C200 1.389 . S
C199 H221 0.929 . S
C200 C196 1.397 . S
C200 C199 1.389 . S
C200 H222 0.931 . S
C201 C198 1.481 . S
C201 C202 1.387 . S
C201 C206 1.390 . S
C202 C201 1.387 . S
C202 C203 1.401 . S
C202 H223 0.930 . S
C203 C202 1.401 . S
C203 C204 1.376 . S
C203 C212 1.511 . S
C204 C203 1.376 . S
C204 C205 1.392 . S
C204 H225 0.931 . S
C205 C204 1.392 . S
C205 C206 1.361 . S
C205 C207 1.500 . S
C206 C201 1.390 . S
C206 C205 1.361 . S
C206 H224 0.931 . S
C207 C205 1.500 . S
C207 C208 1.371 . S
C207 C209 1.365 . S
C208 C207 1.371 . S
C208 C218 1.386 . S
C208 H226 0.931 . S
C209 C207 1.365 . S
C209 C210 1.409 . S
C209 H227 0.929 . S
C210 C209 1.409 . S
C210 C211 1.380 . S
C210 H228 0.930 . S
C211 C210 1.380 . S
C211 C218 1.357 . S
C212 C203 1.511 . S
C212 C213 1.341 . S
C212 C214 1.371 . S
C213 C212 1.341 . S
C213 C217 1.394 . S
C213 H229 0.930 . S
C214 C212 1.371 . S
C214 C215 1.392 . S
C214 H230 0.931 . S
C215 C214 1.392 . S
C215 C216 1.331 . S
C215 H233 0.932 . S
C216 C215 1.331 . S
C216 C217 1.336 . S
C217 C213 1.394 . S
C217 C216 1.336 . S
C217 H232 0.929 . S
C218 C208 1.386 . S
C218 C211 1.357 . S
C218 H231 0.928 . S
H219 C195 0.931 . S
H220 C197 0.930 . S
H221 C199 0.929 . S
H222 C200 0.931 . S
H223 C202 0.930 . S
H224 C206 0.931 . S
H225 C204 0.931 . S
H226 C208 0.931 . S
H227 C209 0.929 . S
H228 C210 0.930 . S
H229 C213 0.930 . S
H230 C214 0.931 . S
H231 C218 0.928 . S
H232 C217 0.929 . S
H233 C215 0.932 . S
C234 C235 1.386 . S
C234 C236 1.397 . S
C234 H258 0.931 . S
C235 C234 1.386 . S
C235 C239 1.397 . S
C236 C234 1.397 . S
C236 C237 1.384 . S
C236 H259 0.930 . S
C237 C236 1.384 . S
C237 C238 1.377 . S
C237 C240 1.481 . S
C238 C237 1.377 . S
C238 C239 1.389 . S
C238 H260 0.929 . S
C239 C235 1.397 . S
C239 C238 1.389 . S
C239 H261 0.931 . S
C240 C237 1.481 . S
C240 C241 1.387 . S
C240 C245 1.390 . S
C241 C240 1.387 . S
C241 C242 1.401 . S
C241 H262 0.930 . S
C242 C241 1.401 . S
C242 C243 1.376 . S
C242 C251 1.511 . S
C243 C242 1.376 . S
C243 C244 1.392 . S
C243 H264 0.931 . S
C244 C243 1.392 . S
C244 C245 1.361 . S
C244 C246 1.500 . S
C245 C240 1.390 . S
C245 C244 1.361 . S
C245 H263 0.931 . S
C246 C244 1.500 . S
C246 C247 1.371 . S
C246 C248 1.365 . S
C247 C246 1.371 . S
C247 C257 1.386 . S
C247 H265 0.931 . S
C248 C246 1.365 . S
C248 C249 1.409 . S
C248 H266 0.929 . S
C249 C248 1.409 . S
C249 C250 1.380 . S
C249 H267 0.930 . S
C250 C249 1.380 . S
C250 C257 1.357 . S
C251 C242 1.511 . S
C251 C252 1.341 . S
C251 C253 1.371 . S
C252 C251 1.341 . S
C252 C256 1.394 . S
C252 H268 0.930 . S
C253 C251 1.371 . S
C253 C254 1.392 . S
C253 H269 0.931 . S
C254 C253 1.392 . S
C254 C255 1.331 . S
C254 H272 0.932 . S
C255 C254 1.331 . S
C255 C256 1.336 . S
C256 C252 1.394 . S
C256 C255 1.336 . S
C256 H271 0.929 . S
C257 C247 1.386 . S
C257 C250 1.357 . S
C257 H270 0.928 . S
H258 C234 0.931 . S
H259 C236 0.930 . S
H260 C238 0.929 . S
H261 C239 0.931 . S
H262 C241 0.930 . S
H263 C245 0.931 . S
H264 C243 0.931 . S
H265 C247 0.931 . S
H266 C248 0.929 . S
H267 C249 0.930 . S
H268 C252 0.930 . S
H269 C253 0.931 . S
H270 C257 0.928 . S
H271 C256 0.929 . S
H272 C254 0.932 . S
C273 C274 1.386 . S
C273 C275 1.397 . S
C273 H297 0.931 . S
C274 C273 1.386 . S
C274 C278 1.397 . S
C275 C273 1.397 . S
C275 C276 1.384 . S
C275 H298 0.930 . S
C276 C275 1.384 . S
C276 C277 1.377 . S
C276 C279 1.481 . S
C277 C276 1.377 . S
C277 C278 1.389 . S
C277 H299 0.929 . S
C278 C274 1.397 . S
C278 C277 1.389 . S
C278 H300 0.931 . S
C279 C276 1.481 . S
C279 C280 1.387 . S
C279 C284 1.390 . S
C280 C279 1.387 . S
C280 C281 1.401 . S
C280 H301 0.930 . S
C281 C280 1.401 . S
C281 C282 1.376 . S
C281 C290 1.511 . S
C282 C281 1.376 . S
C282 C283 1.392 . S
C282 H303 0.931 . S
C283 C282 1.392 . S
C283 C284 1.361 . S
C283 C285 1.500 . S
C284 C279 1.390 . S
C284 C283 1.361 . S
C284 H302 0.931 . S
C285 C283 1.500 . S
C285 C286 1.371 . S
C285 C287 1.365 . S
C286 C285 1.371 . S
C286 C296 1.386 . S
C286 H304 0.931 . S
C287 C285 1.365 . S
C287 C288 1.409 . S
C287 H305 0.929 . S
C288 C287 1.409 . S
C288 C289 1.380 . S
C288 H306 0.930 . S
C289 C288 1.380 . S
C289 C296 1.357 . S
C290 C281 1.511 . S
C290 C291 1.341 . S
C290 C292 1.371 . S
C291 C290 1.341 . S
C291 C295 1.394 . S
C291 H307 0.930 . S
C292 C290 1.371 . S
C292 C293 1.392 . S
C292 H308 0.931 . S
C293 C292 1.392 . S
C293 C294 1.331 . S
C293 H311 0.932 . S
C294 C293 1.331 . S
C294 C295 1.336 . S
C295 C291 1.394 . S
C295 C294 1.336 . S
C295 H310 0.929 . S
C296 C286 1.386 . S
C296 C289 1.357 . S
C296 H309 0.928 . S
H297 C273 0.931 . S
H298 C275 0.930 . S
H299 C277 0.929 . S
H300 C278 0.931 . S
H301 C280 0.930 . S
H302 C284 0.931 . S
H303 C282 0.931 . S
H304 C286 0.931 . S
H305 C287 0.929 . S
H306 C288 0.930 . S
H307 C291 0.930 . S
H308 C292 0.931 . S
H309 C296 0.928 . S
H310 C295 0.929 . S
H311 C293 0.932 . S
Zn312 O318 1.920 . S
Zn312 O324 1.898 . S
Zn312 O327 1.905 . S
Zn313 O321 1.905 1_565 S
Zn313 O322 1.898 . S
Zn313 O330 1.920 . S
Zn314 O317 2.080 1_455 S
Zn314 O320 2.114 . S
Zn314 O323 2.120 1_445 S
Zn314 O325 2.120 . S
Zn314 O326 2.114 1_455 S
Zn314 O329 2.080 . S
C315 O320 1.166 . S
C315 O321 1.182 . S
C316 O322 1.167 1_655 S
C316 O323 1.299 . S
O317 Zn314 2.080 1_655 S
O317 C331 1.305 . S
O318 Zn312 1.920 . S
O318 C331 1.234 . S
C319 O324 1.167 1_455 S
C319 O325 1.299 . S
O320 Zn314 2.114 . S
O320 C315 1.166 . S
O321 Zn313 1.905 1_545 S
O321 C315 1.182 . S
O322 Zn313 1.898 . S
O322 C316 1.167 1_455 S
O323 Zn314 2.120 1_665 S
O323 C316 1.299 . S
O324 Zn312 1.898 . S
O324 C319 1.167 1_655 S
O325 Zn314 2.120 . S
O325 C319 1.299 . S
O326 Zn314 2.114 1_655 S
O326 C328 1.166 . S
O327 Zn312 1.905 . S
O327 C328 1.182 . S
C328 O326 1.166 . S
C328 O327 1.182 . S
O329 Zn314 2.080 . S
O329 C332 1.305 . S
O330 Zn313 1.920 . S
O330 C332 1.234 1_565 S
C331 O317 1.305 . S
C331 O318 1.234 . S
C332 O329 1.305 . S
C332 O330 1.234 1_545 S
Zn333 O339 1.920 1_556 S
Zn333 O345 1.898 . S
Zn333 O348 1.905 . S
Zn334 O342 1.905 . S
Zn334 O343 1.898 . S
Zn334 O351 1.920 . S
Zn335 O338 2.080 . S
Zn335 O341 2.114 1_545 S
Zn335 O344 2.120 1_545 S
Zn335 O346 2.120 . S
Zn335 O347 2.114 1_544 S
Zn335 O350 2.080 . S
C336 O341 1.166 . S
C336 O342 1.182 . S
C337 O343 1.167 . S
C337 O344 1.299 . S
O338 Zn335 2.080 . S
O338 C352 1.305 . S
O339 Zn333 1.920 1_554 S
O339 C352 1.234 . S
C340 O345 1.167 . S
C340 O346 1.299 1_556 S
O341 Zn335 2.114 1_565 S
O341 C336 1.166 . S
O342 Zn334 1.905 . S
O342 C336 1.182 . S
O343 Zn334 1.898 . S
O343 C337 1.167 . S
O344 Zn335 2.120 1_565 S
O344 C337 1.299 . S
O345 Zn333 1.898 . S
O345 C340 1.167 . S
O346 Zn335 2.120 . S
O346 C340 1.299 1_554 S
O347 Zn335 2.114 1_566 S
O347 C349 1.166 . S
O348 Zn333 1.905 . S
O348 C349 1.182 1_545 S
C349 O347 1.166 . S
C349 O348 1.182 1_565 S
O350 Zn335 2.080 . S
O350 C353 1.305 . S
O351 Zn334 1.920 . S
O351 C353 1.234 1_565 S
C352 O338 1.305 . S
C352 O339 1.234 . S
C353 O350 1.305 . S
C353 O351 1.234 1_545 S
Zn354 O360 1.920 . S
Zn354 O366 1.898 . S
Zn354 O369 1.905 . S
Zn355 O363 1.905 . S
Zn355 O364 1.898 . S
Zn355 O372 1.920 . S
Zn356 O359 2.080 . S
Zn356 O362 2.114 . S
Zn356 O365 2.120 . S
Zn356 O367 2.120 . S
Zn356 O368 2.114 . S
Zn356 O371 2.080 . S
C357 O362 1.166 . S
C357 O363 1.182 . S
C358 O364 1.167 . S
C358 O365 1.299 . S
O359 Zn356 2.080 . S
O359 C373 1.305 . S
O360 Zn354 1.920 . S
O360 C373 1.234 . S
C361 O366 1.167 . S
C361 O367 1.299 . S
O362 Zn356 2.114 . S
O362 C357 1.166 . S
O363 Zn355 1.905 . S
O363 C357 1.182 . S
O364 Zn355 1.898 . S
O364 C358 1.167 . S
O365 Zn356 2.120 . S
O365 C358 1.299 . S
O366 Zn354 1.898 . S
O366 C361 1.167 . S
O367 Zn356 2.120 . S
O367 C361 1.299 . S
O368 Zn356 2.114 . S
O368 C370 1.166 . S
O369 Zn354 1.905 . S
O369 C370 1.182 . S
C370 O368 1.166 . S
C370 O369 1.182 . S
O371 Zn356 2.080 . S
O371 C374 1.305 . S
O372 Zn355 1.920 . S
O372 C374 1.234 . S
C373 O359 1.305 . S
C373 O360 1.234 . S
C374 O371 1.305 . S
C374 O372 1.234 . S
Zn375 O381 1.920 . S
Zn375 O387 1.898 . S
Zn375 O390 1.905 . S
Zn376 O384 1.905 1_655 S
Zn376 O385 1.898 . S
Zn376 O393 1.920 . S
Zn377 O380 2.080 1_554 S
Zn377 O383 2.114 . S
Zn377 O386 2.120 1_454 S
Zn377 O388 2.120 . S
Zn377 O389 2.114 1_554 S
Zn377 O392 2.080 . S
C378 O383 1.166 . S
C378 O384 1.182 . S
C379 O385 1.167 1_556 S
C379 O386 1.299 . S
O380 Zn377 2.080 1_556 S
O380 C394 1.305 . S
O381 Zn375 1.920 . S
O381 C394 1.234 . S
C382 O387 1.167 1_554 S
C382 O388 1.299 . S
O383 Zn377 2.114 . S
O383 C378 1.166 . S
O384 Zn376 1.905 1_455 S
O384 C378 1.182 . S
O385 Zn376 1.898 . S
O385 C379 1.167 1_554 S
O386 Zn377 2.120 1_656 S
O386 C379 1.299 . S
O387 Zn375 1.898 . S
O387 C382 1.167 1_556 S
O388 Zn377 2.120 . S
O388 C382 1.299 . S
O389 Zn377 2.114 1_556 S
O389 C391 1.166 . S
O390 Zn375 1.905 . S
O390 C391 1.182 . S
C391 O389 1.166 . S
C391 O390 1.182 . S
O392 Zn377 2.080 . S
O392 C395 1.271 1_455 S
O393 Zn376 1.920 . S
O393 C395 1.260 . S
C394 O380 1.305 . S
C394 O381 1.234 . S
C395 O392 1.271 1_655 S
C395 O393 1.260 . S
H396 C404 0.929 . S
H397 C406 0.930 . S
H398 C408 0.930 . S
H399 C411 0.929 . S
H400 C414 0.930 . S
H401 C416 0.960 . S
H402 C416 0.960 . S
H403 C416 0.960 . S
C404 H396 0.929 . S
C404 C405 1.377 . S
C404 C406 1.384 . S
C405 C404 1.377 . S
C405 C411 1.390 . S
C406 H397 0.930 . S
C406 C404 1.384 . S
C406 C407 1.372 . S
C407 C406 1.372 . S
C407 C408 1.400 . S
C407 C412 1.490 . S
C408 H398 0.930 . S
C408 C407 1.400 . S
C408 C411 1.386 . S
H409 C425 0.930 . S
H410 C426 0.931 . S
C411 H399 0.929 . S
C411 C405 1.390 . S
C411 C408 1.386 . S
C412 C407 1.490 . S
C412 C414 1.395 . S
C412 C415 1.403 . S
H413 C419 0.930 . S
C414 H400 0.930 . S
C414 C412 1.395 . S
C414 C417 1.403 . S
C415 C412 1.403 . S
C415 C416 1.524 . S
C415 C419 1.400 . S
C416 H401 0.960 . S
C416 H402 0.960 . S
C416 H403 0.960 . S
C416 C415 1.524 . S
C417 C414 1.403 . S
C417 C418 1.392 . S
C417 C421 1.495 . S
C418 C417 1.392 . S
C418 C419 1.385 . S
C418 C420 1.478 . S
C419 H413 0.930 . S
C419 C415 1.400 . S
C419 C418 1.385 . S
C420 C418 1.478 . S
C420 C422 1.381 . S
C420 C426 1.383 . S
C421 C417 1.495 . S
C421 H427 0.959 . S
C421 H428 0.961 . S
C421 H429 0.960 . S
C422 C420 1.381 . S
C422 C423 1.394 . S
C422 H430 0.930 . S
C423 C422 1.394 . S
C423 C424 1.383 . S
C423 H431 0.929 . S
C424 C423 1.383 . S
C424 C425 1.377 . S
C425 H409 0.930 . S
C425 C424 1.377 . S
C425 C426 1.379 . S
C426 H410 0.931 . S
C426 C420 1.383 . S
C426 C425 1.379 . S
H427 C421 0.959 . S
H428 C421 0.961 . S
H429 C421 0.960 . S
H430 C422 0.930 . S
H431 C423 0.929 . S
H432 C440 0.929 . S
H433 C442 0.930 . S
H434 C444 0.930 . S
H435 C447 0.929 . S
H436 C450 0.930 . S
H437 C452 0.960 . S
H438 C452 0.960 . S
H439 C452 0.960 . S
C440 H432 0.929 . S
C440 C441 1.377 . S
C440 C442 1.384 . S
C441 C440 1.377 . S
C441 C447 1.390 . S
C442 H433 0.930 . S
C442 C440 1.384 . S
C442 C443 1.372 . S
C443 C442 1.372 . S
C443 C444 1.400 . S
C443 C448 1.490 . S
C444 H434 0.930 . S
C444 C443 1.400 . S
C444 C447 1.386 . S
H445 C461 0.930 . S
H446 C462 0.931 . S
C447 H435 0.929 . S
C447 C441 1.390 . S
C447 C444 1.386 . S
C448 C443 1.490 . S
C448 C450 1.395 . S
C448 C451 1.403 . S
H449 C455 0.930 . S
C450 H436 0.930 . S
C450 C448 1.395 . S
C450 C453 1.403 . S
C451 C448 1.403 . S
C451 C452 1.524 . S
C451 C455 1.400 . S
C452 H437 0.960 . S
C452 H438 0.960 . S
C452 H439 0.960 . S
C452 C451 1.524 . S
C453 C450 1.403 . S
C453 C454 1.392 . S
C453 C457 1.495 . S
C454 C453 1.392 . S
C454 C455 1.385 . S
C454 C456 1.478 . S
C455 H449 0.930 . S
C455 C451 1.400 . S
C455 C454 1.385 . S
C456 C454 1.478 . S
C456 C458 1.381 . S
C456 C462 1.383 . S
C457 C453 1.495 . S
C457 H463 0.959 . S
C457 H464 0.961 . S
C457 H465 0.960 . S
C458 C456 1.381 . S
C458 C459 1.394 . S
C458 H466 0.930 . S
C459 C458 1.394 . S
C459 C460 1.383 . S
C459 H467 0.929 1_565 S
C460 C459 1.383 . S
C460 C461 1.377 . S
C461 H445 0.930 . S
C461 C460 1.377 . S
C461 C462 1.379 . S
C462 H446 0.931 . S
C462 C456 1.383 . S
C462 C461 1.379 . S
H463 C457 0.959 . S
H464 C457 0.961 . S
H465 C457 0.960 . S
H466 C458 0.930 . S
H467 C459 0.929 1_545 S
H468 C476 0.929 . S
H469 C478 0.930 . S
H470 C480 0.930 . S
H471 C483 0.929 . S
H472 C486 0.930 . S
H473 C488 0.960 . S
H474 C488 0.960 . S
H475 C488 0.960 . S
C476 H468 0.929 . S
C476 C477 1.377 . S
C476 C478 1.384 . S
C477 C476 1.377 . S
C477 C483 1.390 . S
C478 H469 0.930 . S
C478 C476 1.384 . S
C478 C479 1.372 . S
C479 C478 1.372 . S
C479 C480 1.400 . S
C479 C484 1.490 . S
C480 H470 0.930 . S
C480 C479 1.400 . S
C480 C483 1.386 . S
H481 C497 0.930 . S
H482 C498 0.931 . S
C483 H471 0.929 . S
C483 C477 1.390 . S
C483 C480 1.386 . S
C484 C479 1.490 . S
C484 C486 1.395 . S
C484 C487 1.403 . S
H485 C491 0.930 . S
C486 H472 0.930 . S
C486 C484 1.395 . S
C486 C489 1.403 . S
C487 C484 1.403 . S
C487 C488 1.524 . S
C487 C491 1.400 . S
C488 H473 0.960 . S
C488 H474 0.960 . S
C488 H475 0.960 . S
C488 C487 1.524 . S
C489 C486 1.403 . S
C489 C490 1.392 . S
C489 C493 1.495 . S
C490 C489 1.392 . S
C490 C491 1.385 . S
C490 C492 1.478 . S
C491 H485 0.930 . S
C491 C487 1.400 . S
C491 C490 1.385 . S
C492 C490 1.478 . S
C492 C494 1.381 . S
C492 C498 1.383 . S
C493 C489 1.495 . S
C493 H499 0.959 . S
C493 H500 0.961 . S
C493 H501 0.960 . S
C494 C492 1.381 . S
C494 C495 1.394 . S
C494 H502 0.930 . S
C495 C494 1.394 . S
C495 C496 1.383 . S
C495 H503 0.929 . S
C496 C495 1.383 . S
C496 C497 1.377 . S
C497 H481 0.930 . S
C497 C496 1.377 . S
C497 C498 1.379 . S
C498 H482 0.931 . S
C498 C492 1.383 . S
C498 C497 1.379 . S
H499 C493 0.959 . S
H500 C493 0.961 . S
H501 C493 0.960 . S
H502 C494 0.930 . S
H503 C495 0.929 . S
H504 C512 0.929 . S
H505 C514 0.930 . S
H506 C516 0.930 . S
H507 C519 0.929 . S
H508 C522 0.930 . S
H509 C524 0.960 . S
H510 C524 0.960 . S
H511 C524 0.960 . S
C512 H504 0.929 . S
C512 C513 1.377 . S
C512 C514 1.384 . S
C513 C512 1.377 . S
C513 C519 1.390 . S
C514 H505 0.930 . S
C514 C512 1.384 . S
C514 C515 1.372 . S
C515 C514 1.372 . S
C515 C516 1.400 . S
C515 C520 1.490 . S
C516 H506 0.930 . S
C516 C515 1.400 . S
C516 C519 1.386 . S
H517 C533 0.930 . S
H518 C534 0.931 . S
C519 H507 0.929 . S
C519 C513 1.390 . S
C519 C516 1.386 . S
C520 C515 1.490 . S
C520 C522 1.395 . S
C520 C523 1.403 . S
H521 C527 0.930 . S
C522 H508 0.930 . S
C522 C520 1.395 . S
C522 C525 1.403 . S
C523 C520 1.403 . S
C523 C524 1.524 . S
C523 C527 1.400 . S
C524 H509 0.960 . S
C524 H510 0.960 . S
C524 H511 0.960 . S
C524 C523 1.524 . S
C525 C522 1.403 . S
C525 C526 1.392 . S
C525 C529 1.495 . S
C526 C525 1.392 . S
C526 C527 1.385 . S
C526 C528 1.478 . S
C527 H521 0.930 . S
C527 C523 1.400 . S
C527 C526 1.385 . S
C528 C526 1.478 . S
C528 C530 1.381 . S
C528 C534 1.383 . S
C529 C525 1.495 . S
C529 H535 0.959 . S
C529 H536 0.961 . S
C529 H537 0.960 . S
C530 C528 1.381 . S
C530 C531 1.394 . S
C530 H538 0.930 . S
C531 C530 1.394 . S
C531 C532 1.383 . S
C531 H539 0.929 1_655 S
C532 C531 1.383 . S
C532 C533 1.377 . S
C533 H517 0.930 . S
C533 C532 1.377 . S
C533 C534 1.379 . S
C534 H518 0.931 . S
C534 C528 1.383 . S
C534 C533 1.379 . S
H535 C529 0.959 . S
H536 C529 0.961 . S
H537 C529 0.960 . S
H538 C530 0.930 . S
H539 C531 0.929 1_455 S
H540 C548 0.929 . S
H541 C550 0.930 . S
H542 C552 0.930 . S
H543 C555 0.929 . S
H544 C558 0.930 . S
H545 C560 0.960 . S
H546 C560 0.960 . S
H547 C560 0.960 . S
C548 H540 0.929 . S
C548 C549 1.377 . S
C548 C550 1.384 . S
C549 C548 1.377 . S
C549 C555 1.390 . S
C550 H541 0.930 . S
C550 C548 1.384 . S
C550 C551 1.372 . S
C551 C550 1.372 . S
C551 C552 1.400 . S
C551 C556 1.490 . S
C552 H542 0.930 . S
C552 C551 1.400 . S
C552 C555 1.386 . S
H553 C569 0.930 . S
H554 C570 0.931 . S
C555 H543 0.929 . S
C555 C549 1.390 . S
C555 C552 1.386 . S
C556 C551 1.490 . S
C556 C558 1.395 . S
C556 C559 1.403 . S
H557 C563 0.930 . S
C558 H544 0.930 . S
C558 C556 1.395 . S
C558 C561 1.403 . S
C559 C556 1.403 . S
C559 C560 1.524 . S
C559 C563 1.400 . S
C560 H545 0.960 . S
C560 H546 0.960 . S
C560 H547 0.960 . S
C560 C559 1.524 . S
C561 C558 1.403 . S
C561 C562 1.392 . S
C561 C565 1.495 . S
C562 C561 1.392 . S
C562 C563 1.385 . S
C562 C564 1.478 . S
C563 H557 0.930 . S
C563 C559 1.400 . S
C563 C562 1.385 . S
C564 C562 1.478 . S
C564 C566 1.381 . S
C564 C570 1.383 . S
C565 C561 1.495 . S
C565 H571 0.959 . S
C565 H572 0.961 . S
C565 H573 0.960 . S
C566 C564 1.381 . S
C566 C567 1.394 . S
C566 H574 0.930 . S
C567 C566 1.394 . S
C567 C568 1.383 . S
C567 H575 0.929 . S
C568 C567 1.383 . S
C568 C569 1.377 . S
C569 H553 0.930 . S
C569 C568 1.377 . S
C569 C570 1.379 . S
C570 H554 0.931 . S
C570 C564 1.383 . S
C570 C569 1.379 . S
H571 C565 0.959 . S
H572 C565 0.961 . S
H573 C565 0.960 . S
H574 C566 0.930 . S
H575 C567 0.929 . S
H576 C584 0.929 . S
H577 C586 0.930 . S
H578 C588 0.930 . S
H579 C591 0.929 . S
H580 C594 0.930 . S
H581 C596 0.960 . S
H582 C596 0.960 . S
H583 C596 0.960 . S
C584 H576 0.929 . S
C584 C585 1.377 . S
C584 C586 1.384 . S
C585 C584 1.377 . S
C585 C591 1.390 . S
C586 H577 0.930 . S
C586 C584 1.384 . S
C586 C587 1.372 . S
C587 C586 1.372 . S
C587 C588 1.400 . S
C587 C592 1.490 . S
C588 H578 0.930 . S
C588 C587 1.400 . S
C588 C591 1.386 . S
H589 C605 0.930 . S
H590 C606 0.931 . S
C591 H579 0.929 . S
C591 C585 1.390 . S
C591 C588 1.386 . S
C592 C587 1.490 . S
C592 C594 1.395 . S
C592 C595 1.403 . S
H593 C599 0.930 . S
C594 H580 0.930 . S
C594 C592 1.395 . S
C594 C597 1.403 . S
C595 C592 1.403 . S
C595 C596 1.524 . S
C595 C599 1.400 . S
C596 H581 0.960 . S
C596 H582 0.960 . S
C596 H583 0.960 . S
C596 C595 1.524 . S
C597 C594 1.403 . S
C597 C598 1.392 . S
C597 C601 1.468 1_565 S
C598 C597 1.392 . S
C598 C599 1.385 . S
C598 C600 1.478 . S
C599 H593 0.930 . S
C599 C595 1.400 . S
C599 C598 1.385 . S
C600 C598 1.478 . S
C600 C602 1.381 . S
C600 C606 1.383 . S
C601 C597 1.468 1_545 S
C601 H607 0.967 . S
C601 H608 0.960 1_545 S
C601 H609 0.981 . S
C602 C600 1.381 . S
C602 C603 1.394 1_565 S
C602 H610 0.930 1_565 S
C603 C602 1.394 1_545 S
C603 C604 1.383 1_545 S
C603 H611 0.929 . S
C604 C603 1.383 1_565 S
C604 C605 1.377 . S
C605 H589 0.930 . S
C605 C604 1.377 . S
C605 C606 1.379 . S
C606 H590 0.931 . S
C606 C600 1.383 . S
C606 C605 1.379 . S
H607 C601 0.967 . S
H608 C601 0.960 1_565 S
H609 C601 0.981 . S
H610 C602 0.930 1_545 S
H611 C603 0.929 . S
H612 C620 0.929 . S
H613 C622 0.930 . S
H614 C624 0.930 . S
H615 C627 0.929 . S
H616 C630 0.930 . S
H617 C632 0.960 . S
H618 C632 0.960 . S
H619 C632 0.960 . S
C620 H612 0.929 . S
C620 C621 1.377 . S
C620 C622 1.384 . S
C621 C620 1.377 . S
C621 C627 1.390 . S
C622 H613 0.930 . S
C622 C620 1.384 . S
C622 C623 1.372 . S
C623 C622 1.372 . S
C623 C624 1.400 . S
C623 C628 1.490 . S
C624 H614 0.930 . S
C624 C623 1.400 . S
C624 C627 1.386 . S
H625 C641 0.930 . S
H626 C642 0.931 . S
C627 H615 0.929 . S
C627 C621 1.390 . S
C627 C624 1.386 . S
C628 C623 1.490 . S
C628 C630 1.395 . S
C628 C631 1.403 . S
H629 C635 0.930 . S
C630 H616 0.930 . S
C630 C628 1.395 . S
C630 C633 1.403 . S
C631 C628 1.403 . S
C631 C632 1.524 . S
C631 C635 1.400 . S
C632 H617 0.960 . S
C632 H618 0.960 . S
C632 H619 0.960 . S
C632 C631 1.524 . S
C633 C630 1.403 . S
C633 C634 1.392 . S
C633 C637 1.495 . S
C634 C633 1.392 . S
C634 C635 1.385 . S
C634 C636 1.478 . S
C635 H629 0.930 . S
C635 C631 1.400 . S
C635 C634 1.385 . S
C636 C634 1.478 . S
C636 C638 1.381 . S
C636 C642 1.383 . S
C637 C633 1.495 . S
C637 H643 0.959 . S
C637 H644 0.961 . S
C637 H645 0.960 . S
C638 C636 1.381 . S
C638 C639 1.394 . S
C638 H646 0.930 . S
C639 C638 1.394 . S
C639 C640 1.383 . S
C639 H647 0.929 1_556 S
C640 C639 1.383 . S
C640 C641 1.377 . S
C641 H625 0.930 . S
C641 C640 1.377 . S
C641 C642 1.379 . S
C642 H626 0.931 . S
C642 C636 1.383 . S
C642 C641 1.379 . S
H643 C637 0.959 . S
H644 C637 0.961 . S
H645 C637 0.960 . S
H646 C638 0.930 . S
H647 C639 0.929 1_554 S
H648 C656 0.929 . S
H649 C658 0.930 . S
H650 C660 0.930 . S
H651 C663 0.929 . S
H652 C666 0.930 . S
H653 C668 0.960 . S
H654 C668 0.960 . S
H655 C668 0.960 . S
C656 H648 0.929 . S
C656 C657 1.377 . S
C656 C658 1.384 . S
C657 C656 1.377 . S
C657 C663 1.390 . S
C658 H649 0.930 . S
C658 C656 1.384 . S
C658 C659 1.372 . S
C659 C658 1.372 . S
C659 C660 1.400 . S
C659 C664 1.490 . S
C660 H650 0.930 . S
C660 C659 1.400 . S
C660 C663 1.386 . S
H661 C677 0.930 . S
H662 C678 0.931 . S
C663 H651 0.929 . S
C663 C657 1.390 . S
C663 C660 1.386 . S
C664 C659 1.490 . S
C664 C666 1.395 . S
C664 C667 1.403 . S
H665 C671 0.930 . S
C666 H652 0.930 . S
C666 C664 1.395 . S
C666 C669 1.403 . S
C667 C664 1.403 . S
C667 C668 1.524 . S
C667 C671 1.400 . S
C668 H653 0.960 . S
C668 H654 0.960 . S
C668 H655 0.960 . S
C668 C667 1.524 . S
C669 C666 1.403 . S
C669 C670 1.392 . S
C669 C673 1.495 . S
C670 C669 1.392 . S
C670 C671 1.385 . S
C670 C672 1.478 . S
C671 H665 0.930 . S
C671 C667 1.400 . S
C671 C670 1.385 . S
C672 C670 1.478 . S
C672 C674 1.381 . S
C672 C678 1.383 . S
C673 C669 1.495 . S
C673 H679 0.959 . S
C673 H680 0.961 . S
C673 H681 0.960 . S
C674 C672 1.381 . S
C674 C675 1.394 . S
C674 H682 0.930 . S
C675 C674 1.394 . S
C675 C676 1.383 . S
C675 H683 0.929 . S
C676 C675 1.383 . S
C676 C677 1.377 . S
C677 H661 0.930 . S
C677 C676 1.377 . S
C677 C678 1.379 . S
C678 H662 0.931 . S
C678 C672 1.383 . S
C678 C677 1.379 . S
H679 C673 0.959 . S
H680 C673 0.961 . S
H681 C673 0.960 . S
H682 C674 0.930 . S
H683 C675 0.929 . S
H684 C692 0.929 . S
H685 C694 0.930 . S
H686 C696 0.930 . S
H687 C699 0.929 . S
H688 C702 0.930 . S
H689 C704 0.960 . S
H690 C704 0.960 . S
H691 C704 0.960 . S
C692 H684 0.929 . S
C692 C693 1.377 . S
C692 C694 1.384 . S
C693 C692 1.377 . S
C693 C699 1.390 . S
C694 H685 0.930 . S
C694 C692 1.384 . S
C694 C695 1.372 . S
C695 C694 1.372 . S
C695 C696 1.400 . S
C695 C700 1.490 . S
C696 H686 0.930 . S
C696 C695 1.400 . S
C696 C699 1.386 . S
H697 C713 0.930 . S
H698 C714 0.931 . S
C699 H687 0.929 . S
C699 C693 1.390 . S
C699 C696 1.386 . S
C700 C695 1.490 . S
C700 C702 1.395 . S
C700 C703 1.403 . S
H701 C707 0.930 . S
C702 H688 0.930 . S
C702 C700 1.395 . S
C702 C705 1.403 . S
C703 C700 1.403 . S
C703 C704 1.524 . S
C703 C707 1.400 . S
C704 H689 0.960 . S
C704 H690 0.960 . S
C704 H691 0.960 . S
C704 C703 1.524 . S
C705 C702 1.403 . S
C705 C706 1.392 . S
C705 C709 1.495 . S
C706 C705 1.392 . S
C706 C707 1.385 . S
C706 C708 1.478 . S
C707 H701 0.930 . S
C707 C703 1.400 . S
C707 C706 1.385 . S
C708 C706 1.478 . S
C708 C710 1.381 . S
C708 C714 1.383 . S
C709 C705 1.495 . S
C709 H715 0.959 . S
C709 H716 0.961 . S
C709 H717 0.960 . S
C710 C708 1.381 . S
C710 C711 1.394 . S
C710 H718 0.930 . S
C711 C710 1.394 . S
C711 C712 1.383 . S
C711 H719 0.929 . S
C712 C711 1.383 . S
C712 C713 1.377 . S
C713 H697 0.930 . S
C713 C712 1.377 . S
C713 C714 1.379 . S
C714 H698 0.931 . S
C714 C708 1.383 . S
C714 C713 1.379 . S
H715 C709 0.959 . S
H716 C709 0.961 . S
H717 C709 0.960 . S
H718 C710 0.930 . S
H719 C711 0.929 . S
H720 C728 0.929 . S
H721 C730 0.930 . S
H722 C732 0.930 . S
H723 C735 0.929 . S
H724 C738 0.930 . S
H725 C740 0.960 . S
H726 C740 0.960 . S
H727 C740 0.960 . S
C728 H720 0.929 . S
C728 C729 1.377 . S
C728 C730 1.384 . S
C729 C728 1.377 . S
C729 C735 1.390 . S
C730 H721 0.930 . S
C730 C728 1.384 . S
C730 C731 1.372 . S
C731 C730 1.372 . S
C731 C732 1.400 . S
C731 C736 1.490 . S
C732 H722 0.930 . S
C732 C731 1.400 . S
C732 C735 1.386 . S
H733 C749 0.920 1_554 S
H734 C750 0.931 . S
C735 H723 0.929 . S
C735 C729 1.390 . S
C735 C732 1.386 . S
C736 C731 1.490 . S
C736 C738 1.395 . S
C736 C739 1.403 . S
H737 C743 0.930 . S
C738 H724 0.930 . S
C738 C736 1.395 . S
C738 C741 1.403 . S
C739 C736 1.403 . S
C739 C740 1.524 . S
C739 C743 1.400 . S
C740 H725 0.960 . S
C740 H726 0.960 . S
C740 H727 0.960 . S
C740 C739 1.524 . S
C741 C738 1.403 . S
C741 C742 1.392 . S
C741 C745 1.495 . S
C742 C741 1.392 . S
C742 C743 1.385 . S
C742 C744 1.478 . S
C743 H737 0.930 . S
C743 C739 1.400 . S
C743 C742 1.385 . S
C744 C742 1.478 . S
C744 C746 1.381 . S
C744 C750 1.383 . S
C745 C741 1.495 . S
C745 H751 0.959 . S
C745 H752 0.961 1_556 S
C745 H753 0.960 . S
C746 C744 1.381 . S
C746 C747 1.394 . S
C746 H754 0.930 . S
C747 C746 1.394 . S
C747 C748 1.383 . S
C747 H755 0.929 . S
C748 C747 1.383 . S
C748 C749 1.377 . S
C749 H733 0.920 1_556 S
C749 C748 1.377 . S
C749 C750 1.379 . S
C750 H734 0.931 . S
C750 C744 1.383 . S
C750 C749 1.379 . S
H751 C745 0.959 . S
H752 C745 0.961 1_554 S
H753 C745 0.960 . S
H754 C746 0.930 . S
H755 C747 0.929 . S
H756 C764 0.929 . S
H757 C766 0.930 . S
H758 C768 0.930 . S
H759 C771 0.929 . S
H760 C774 0.930 . S
H761 C776 0.960 . S
H762 C776 0.960 . S
H763 C776 0.960 . S
C764 H756 0.929 . S
C764 C765 1.377 . S
C764 C766 1.384 . S
C765 C764 1.377 . S
C765 C771 1.390 . S
C766 H757 0.930 . S
C766 C764 1.384 . S
C766 C767 1.372 . S
C767 C766 1.372 . S
C767 C768 1.400 . S
C767 C772 1.490 . S
C768 H758 0.930 . S
C768 C767 1.400 . S
C768 C771 1.386 . S
H769 C785 0.930 . S
H770 C786 0.931 . S
C771 H759 0.929 . S
C771 C765 1.390 . S
C771 C768 1.386 . S
C772 C767 1.490 . S
C772 C774 1.395 . S
C772 C775 1.403 . S
H773 C779 0.930 . S
C774 H760 0.930 . S
C774 C772 1.395 . S
C774 C777 1.403 . S
C775 C772 1.403 . S
C775 C776 1.524 . S
C775 C779 1.400 . S
C776 H761 0.960 . S
C776 H762 0.960 . S
C776 H763 0.960 . S
C776 C775 1.524 . S
C777 C774 1.403 . S
C777 C778 1.392 . S
C777 C781 1.495 . S
C778 C777 1.392 . S
C778 C779 1.385 . S
C778 C780 1.478 . S
C779 H773 0.930 . S
C779 C775 1.400 . S
C779 C778 1.385 . S
C780 C778 1.478 . S
C780 C782 1.381 . S
C780 C786 1.383 . S
C781 C777 1.495 . S
C781 H787 0.959 . S
C781 H788 0.961 . S
C781 H789 0.960 . S
C782 C780 1.381 . S
C782 C783 1.394 . S
C782 H790 0.930 . S
C783 C782 1.394 . S
C783 C784 1.383 . S
C783 H791 0.929 1_655 S
C784 C783 1.383 . S
C784 C785 1.377 . S
C785 H769 0.930 . S
C785 C784 1.377 . S
C785 C786 1.379 . S
C786 H770 0.931 . S
C786 C780 1.383 . S
C786 C785 1.379 . S
H787 C781 0.959 . S
H788 C781 0.961 . S
H789 C781 0.960 . S
H790 C782 0.930 . S
H791 C783 0.929 1_455 S
H792 C800 0.929 . S
H793 C802 0.930 . S
H794 C804 0.930 . S
H795 C807 0.929 . S
H796 C810 0.930 . S
H797 C812 0.960 . S
H798 C812 0.960 . S
H799 C812 0.960 . S
C800 H792 0.929 . S
C800 C801 1.377 . S
C800 C802 1.384 . S
C801 C800 1.377 . S
C801 C807 1.390 . S
C802 H793 0.930 . S
C802 C800 1.384 . S
C802 C803 1.372 . S
C803 C802 1.372 . S
C803 C804 1.400 . S
C803 C808 1.490 . S
C804 H794 0.930 . S
C804 C803 1.400 . S
C804 C807 1.386 . S
H805 C821 0.930 . S
H806 C822 0.931 . S
C807 H795 0.929 . S
C807 C801 1.390 . S
C807 C804 1.386 . S
C808 C803 1.490 . S
C808 C810 1.395 . S
C808 C811 1.403 . S
H809 C815 0.930 . S
C810 H796 0.930 . S
C810 C808 1.395 . S
C810 C813 1.403 . S
C811 C808 1.403 . S
C811 C812 1.524 . S
C811 C815 1.400 . S
C812 H797 0.960 . S
C812 H798 0.960 . S
C812 H799 0.960 . S
C812 C811 1.524 . S
C813 C810 1.403 . S
C813 C814 1.392 . S
C813 C817 1.495 . S
C814 C813 1.392 . S
C814 C815 1.385 . S
C814 C816 1.478 . S
C815 H809 0.930 . S
C815 C811 1.400 . S
C815 C814 1.385 . S
C816 C814 1.478 . S
C816 C818 1.381 . S
C816 C822 1.383 . S
C817 C813 1.495 . S
C817 H823 0.959 . S
C817 H824 0.961 . S
C817 H825 0.960 . S
C818 C816 1.381 . S
C818 C819 1.394 . S
C818 H826 0.930 . S
C819 C818 1.394 . S
C819 C820 1.383 . S
C819 H827 0.929 . S
C820 C819 1.383 . S
C820 C821 1.377 . S
C821 H805 0.930 . S
C821 C820 1.377 . S
C821 C822 1.379 . S
C822 H806 0.931 . S
C822 C816 1.383 . S
C822 C821 1.379 . S
H823 C817 0.959 . S
H824 C817 0.961 . S
H825 C817 0.960 . S
H826 C818 0.930 . S
H827 C819 0.929 . S
H828 C836 0.929 1_545 S
H829 C838 0.930 . S
H830 C840 0.930 1_455 S
H831 C843 0.929 1_455 S
H832 C846 0.930 . S
H833 C848 0.960 . S
H834 C848 0.960 . S
H835 C848 0.960 . S
C836 H828 0.929 1_565 S
C836 C837 1.377 . S
C836 C838 1.384 1_565 S
C837 C836 1.377 . S
C837 C843 1.390 . S
C838 H829 0.930 . S
C838 C836 1.384 1_545 S
C838 C839 1.372 1_545 S
C839 C838 1.372 1_565 S
C839 C840 1.400 . S
C839 C844 1.493 . S
C840 H830 0.930 1_655 S
C840 C839 1.400 . S
C840 C843 1.386 . S
H841 C857 0.930 . S
H842 C858 0.931 . S
C843 H831 0.929 1_655 S
C843 C837 1.390 . S
C843 C840 1.386 . S
C844 C839 1.493 . S
C844 C846 1.377 1_565 S
C844 C847 1.416 . S
H845 C851 0.930 . S
C846 H832 0.930 . S
C846 C844 1.377 1_545 S
C846 C849 1.403 . S
C847 C844 1.416 . S
C847 C848 1.524 . S
C847 C851 1.400 . S
C848 H833 0.960 . S
C848 H834 0.960 . S
C848 H835 0.960 . S
C848 C847 1.524 . S
C849 C846 1.403 . S
C849 C850 1.392 . S
C849 C853 1.495 . S
C850 C849 1.392 . S
C850 C851 1.385 1_545 S
C850 C852 1.478 . S
C851 H845 0.930 . S
C851 C847 1.400 . S
C851 C850 1.385 1_565 S
C852 C850 1.478 . S
C852 C854 1.381 . S
C852 C858 1.383 1_655 S
C853 C849 1.495 . S
C853 H859 0.959 . S
C853 H860 0.961 . S
C853 H861 0.960 . S
C854 C852 1.381 . S
C854 C855 1.394 . S
C854 H862 0.930 . S
C855 C854 1.394 . S
C855 C856 1.383 . S
C855 H863 0.929 . S
C856 C855 1.383 . S
C856 C857 1.377 1_655 S
C857 H841 0.930 . S
C857 C856 1.377 1_455 S
C857 C858 1.379 . S
C858 H842 0.931 . S
C858 C852 1.383 1_455 S
C858 C857 1.379 . S
H859 C853 0.959 . S
H860 C853 0.961 . S
H861 C853 0.960 . S
H862 C854 0.930 . S
H863 C855 0.929 . S
H864 C872 0.929 . S
H865 C874 0.930 . S
H866 C876 0.930 . S
H867 C879 0.929 . S
H868 C882 0.930 . S
H869 C884 0.960 . S
H870 C884 0.960 . S
H871 C884 0.960 . S
C872 H864 0.929 . S
C872 C873 1.377 . S
C872 C874 1.384 . S
C873 C872 1.377 . S
C873 C879 1.390 . S
C874 H865 0.930 . S
C874 C872 1.384 . S
C874 C875 1.372 . S
C875 C874 1.372 . S
C875 C876 1.400 . S
C875 C880 1.490 . S
C876 H866 0.930 . S
C876 C875 1.400 . S
C876 C879 1.386 . S
H877 C893 0.930 . S
H878 C894 0.931 . S
C879 H867 0.929 . S
C879 C873 1.390 . S
C879 C876 1.386 . S
C880 C875 1.490 . S
C880 C882 1.395 . S
C880 C883 1.403 . S
H881 C887 0.930 . S
C882 H868 0.930 . S
C882 C880 1.395 . S
C882 C885 1.403 . S
C883 C880 1.403 . S
C883 C884 1.524 1_545 S
C883 C887 1.400 . S
C884 H869 0.960 . S
C884 H870 0.960 . S
C884 H871 0.960 . S
C884 C883 1.524 1_565 S
C885 C882 1.403 . S
C885 C886 1.392 . S
C885 C889 1.495 . S
C886 C885 1.392 . S
C886 C887 1.385 . S
C886 C888 1.478 . S
C887 H881 0.930 . S
C887 C883 1.400 . S
C887 C886 1.385 . S
C888 C886 1.478 . S
C888 C890 1.381 . S
C888 C894 1.383 . S
C889 C885 1.495 . S
C889 H895 0.959 . S
C889 H896 0.961 . S
C889 H897 0.960 . S
C890 C888 1.381 . S
C890 C891 1.394 . S
C890 H898 0.930 . S
C891 C890 1.394 . S
C891 C892 1.383 . S
C891 H899 0.929 . S
C892 C891 1.383 . S
C892 C893 1.377 . S
C893 H877 0.930 . S
C893 C892 1.377 . S
C893 C894 1.379 . S
C894 H878 0.931 . S
C894 C888 1.383 . S
C894 C893 1.379 . S
H895 C889 0.959 . S
H896 C889 0.961 . S
H897 C889 0.960 . S
H898 C890 0.930 . S
H899 C891 0.929 . S
H900 C908 0.929 . S
H901 C910 0.930 . S
H902 C912 0.930 . S
H903 C915 0.929 . S
H904 C918 0.930 . S
H905 C920 0.960 . S
H906 C920 0.960 . S
H907 C920 0.960 . S
C908 H900 0.929 . S
C908 C909 1.377 . S
C908 C910 1.384 . S
C909 C908 1.377 . S
C909 C915 1.390 . S
C910 H901 0.930 . S
C910 C908 1.384 . S
C910 C911 1.372 . S
C911 C910 1.372 . S
C911 C912 1.400 . S
C911 C916 1.490 . S
C912 H902 0.930 . S
C912 C911 1.400 . S
C912 C915 1.386 . S
H913 C929 0.930 . S
H914 C930 0.931 . S
C915 H903 0.929 . S
C915 C909 1.390 . S
C915 C912 1.386 . S
C916 C911 1.490 . S
C916 C918 1.395 . S
C916 C919 1.403 . S
H917 C923 0.930 . S
C918 H904 0.930 . S
C918 C916 1.395 . S
C918 C921 1.403 . S
C919 C916 1.403 . S
C919 C920 1.524 . S
C919 C923 1.400 . S
C920 H905 0.960 . S
C920 H906 0.960 . S
C920 H907 0.960 . S
C920 C919 1.524 . S
C921 C918 1.403 . S
C921 C922 1.392 . S
C921 C925 1.495 . S
C922 C921 1.392 . S
C922 C923 1.385 . S
C922 C924 1.478 . S
C923 H917 0.930 . S
C923 C919 1.400 . S
C923 C922 1.385 . S
C924 C922 1.478 . S
C924 C926 1.381 . S
C924 C930 1.383 . S
C925 C921 1.495 . S
C925 H931 0.959 . S
C925 H932 0.961 . S
C925 H933 0.960 . S
C926 C924 1.381 . S
C926 C927 1.394 . S
C926 H934 0.930 . S
C927 C926 1.394 . S
C927 C928 1.383 . S
C927 H935 0.929 . S
C928 C927 1.383 . S
C928 C929 1.377 . S
C929 H913 0.930 . S
C929 C928 1.377 . S
C929 C930 1.379 . S
C930 H914 0.931 . S
C930 C924 1.383 . S
C930 C929 1.379 . S
H931 C925 0.959 . S
H932 C925 0.961 . S
H933 C925 0.960 . S
H934 C926 0.930 . S
H935 C927 0.929 . S
H936 C944 0.929 . S
H937 C946 0.930 . S
H938 C948 0.930 . S
H939 C951 0.929 . S
H940 C954 0.930 . S
H941 C956 0.960 . S
H942 C956 0.960 . S
H943 C956 0.960 . S
C944 H936 0.929 . S
C944 C945 1.377 . S
C944 C946 1.384 . S
C945 C944 1.377 . S
C945 C951 1.390 . S
C946 H937 0.930 . S
C946 C944 1.384 . S
C946 C947 1.372 . S
C947 C946 1.372 . S
C947 C948 1.400 . S
C947 C952 1.490 . S
C948 H938 0.930 . S
C948 C947 1.400 . S
C948 C951 1.386 . S
H949 C965 0.930 . S
H950 C966 0.931 . S
C951 H939 0.929 . S
C951 C945 1.390 . S
C951 C948 1.386 . S
C952 C947 1.490 . S
C952 C954 1.395 . S
C952 C955 1.403 . S
H953 C959 0.930 . S
C954 H940 0.930 . S
C954 C952 1.395 . S
C954 C957 1.403 . S
C955 C952 1.403 . S
C955 C956 1.524 . S
C955 C959 1.400 . S
C956 H941 0.960 . S
C956 H942 0.960 . S
C956 H943 0.960 . S
C956 C955 1.524 . S
C957 C954 1.403 . S
C957 C958 1.392 . S
C957 C961 1.495 . S
C958 C957 1.392 . S
C958 C959 1.385 . S
C958 C960 1.478 . S
C959 H953 0.930 . S
C959 C955 1.400 . S
C959 C958 1.385 . S
C960 C958 1.478 . S
C960 C962 1.381 . S
C960 C966 1.383 . S
C961 C957 1.495 . S
C961 H967 0.959 . S
C961 H968 0.961 . S
C961 H969 0.960 . S
C962 C960 1.381 . S
C962 C963 1.394 . S
C962 H970 0.930 . S
C963 C962 1.394 . S
C963 C964 1.383 . S
C963 H971 0.929 . S
C964 C963 1.383 . S
C964 C965 1.377 . S
C965 H949 0.930 . S
C965 C964 1.377 . S
C965 C966 1.379 . S
C966 H950 0.931 . S
C966 C960 1.383 . S
C966 C965 1.379 . S
H967 C961 0.959 . S
H968 C961 0.961 . S
H969 C961 0.960 . S
H970 C962 0.930 . S
H971 C963 0.929 . S
H972 C980 0.929 . S
H973 C982 0.930 . S
H974 C984 0.930 . S
H975 C987 0.929 . S
H976 C990 0.930 . S
H977 C992 0.960 . S
H978 C992 0.960 . S
H979 C992 0.960 . S
C980 H972 0.929 . S
C980 C981 1.377 1_554 S
C980 C982 1.384 . S
C981 C980 1.377 1_556 S
C981 C987 1.390 . S
C982 H973 0.930 . S
C982 C980 1.384 . S
C982 C983 1.372 1_554 S
C983 C982 1.372 1_556 S
C983 C984 1.400 . S
C983 C988 1.490 . S
C984 H974 0.930 . S
C984 C983 1.400 . S
C984 C987 1.386 . S
H985 C1001 0.930 . S
H986 C1002 0.931 . S
C987 H975 0.929 . S
C987 C981 1.390 . S
C987 C984 1.386 . S
C988 C983 1.490 . S
C988 C990 1.395 1_566 S
C988 C991 1.403 . S
H989 C995 0.930 . S
C990 H976 0.930 . S
C990 C988 1.395 1_544 S
C990 C993 1.403 . S
C991 C988 1.403 . S
C991 C992 1.524 . S
C991 C995 1.400 . S
C992 H977 0.960 . S
C992 H978 0.960 . S
C992 H979 0.960 . S
C992 C991 1.524 . S
C993 C990 1.403 . S
C993 C994 1.392 1_545 S
C993 C997 1.495 . S
C994 C993 1.392 1_565 S
C994 C995 1.385 1_554 S
C994 C996 1.478 . S
C995 H989 0.930 . S
C995 C991 1.400 . S
C995 C994 1.385 1_556 S
C996 C994 1.478 . S
C996 C998 1.381 . S
C996 C1002 1.383 1_564 S
C997 C993 1.495 . S
C997 H1003 0.959 . S
C997 H1004 0.961 . S
C997 H1005 0.960 . S
C998 C996 1.381 . S
C998 C999 1.394 . S
C998 H1006 0.930 . S
C999 C998 1.394 . S
C999 C1000 1.383 . S
C999 H1007 0.929 . S
C1000 C999 1.383 . S
C1000 C1001 1.377 1_564 S
C1001 H985 0.930 . S
C1001 C1000 1.377 1_546 S
C1001 C1002 1.379 . S
C1002 H986 0.931 . S
C1002 C996 1.383 1_546 S
C1002 C1001 1.379 . S
H1003 C997 0.959 . S
H1004 C997 0.961 . S
H1005 C997 0.960 . S
H1006 C998 0.930 . S
H1007 C999 0.929 . S
H1008 C1016 0.929 . S
H1009 C1018 0.930 . S
H1010 C1020 0.930 . S
H1011 C1023 0.929 . S
H1012 C1026 0.930 . S
H1013 C1028 0.960 . S
H1014 C1028 0.960 . S
H1015 C1028 0.960 . S
C1016 H1008 0.929 . S
C1016 C1017 1.377 . S
C1016 C1018 1.384 . S
C1017 C1016 1.377 . S
C1017 C1023 1.390 . S
C1018 H1009 0.930 . S
C1018 C1016 1.384 . S
C1018 C1019 1.372 . S
C1019 C1018 1.372 . S
C1019 C1020 1.400 . S
C1019 C1024 1.490 . S
C1020 H1010 0.930 . S
C1020 C1019 1.400 . S
C1020 C1023 1.386 . S
H1021 C1037 0.930 . S
H1022 C1038 0.931 . S
C1023 H1011 0.929 . S
C1023 C1017 1.390 . S
C1023 C1020 1.386 . S
C1024 C1019 1.490 . S
C1024 C1026 1.395 . S
C1024 C1027 1.403 . S
H1025 C1031 0.930 . S
C1026 H1012 0.930 . S
C1026 C1024 1.395 . S
C1026 C1029 1.403 . S
C1027 C1024 1.403 . S
C1027 C1028 1.524 . S
C1027 C1031 1.400 . S
C1028 H1013 0.960 . S
C1028 H1014 0.960 . S
C1028 H1015 0.960 . S
C1028 C1027 1.524 . S
C1029 C1026 1.403 . S
C1029 C1030 1.392 . S
C1029 C1033 1.495 . S
C1030 C1029 1.392 . S
C1030 C1031 1.385 . S
C1030 C1032 1.478 . S
C1031 H1025 0.930 . S
C1031 C1027 1.400 . S
C1031 C1030 1.385 . S
C1032 C1030 1.478 . S
C1032 C1034 1.381 . S
C1032 C1038 1.383 . S
C1033 C1029 1.495 . S
C1033 H1039 0.959 . S
C1033 H1040 0.961 . S
C1033 H1041 0.960 . S
C1034 C1032 1.381 . S
C1034 C1035 1.394 . S
C1034 H1042 0.930 . S
C1035 C1034 1.394 . S
C1035 C1036 1.383 . S
C1035 H1043 0.929 . S
C1036 C1035 1.383 . S
C1036 C1037 1.377 . S
C1037 H1021 0.930 . S
C1037 C1036 1.377 . S
C1037 C1038 1.379 . S
C1038 H1022 0.931 . S
C1038 C1032 1.383 . S
C1038 C1037 1.379 . S
H1039 C1033 0.959 . S
H1040 C1033 0.961 . S
H1041 C1033 0.960 . S
H1042 C1034 0.930 . S
H1043 C1035 0.929 . S
H1044 C1052 0.929 . S
H1045 C1054 0.930 . S
H1046 C1056 0.930 . S
H1047 C1059 0.929 . S
H1048 C1062 0.930 . S
H1049 C1064 0.960 . S
H1050 C1064 0.960 . S
H1051 C1064 0.960 . S
C1052 H1044 0.929 . S
C1052 C1053 1.377 . S
C1052 C1054 1.384 . S
C1053 C1052 1.377 . S
C1053 C1059 1.390 . S
C1054 H1045 0.930 . S
C1054 C1052 1.384 . S
C1054 C1055 1.372 . S
C1055 C1054 1.372 . S
C1055 C1056 1.400 . S
C1055 C1060 1.490 . S
C1056 H1046 0.930 . S
C1056 C1055 1.400 . S
C1056 C1059 1.386 . S
H1057 C1073 0.930 . S
H1058 C1074 0.931 . S
C1059 H1047 0.929 . S
C1059 C1053 1.390 . S
C1059 C1056 1.386 . S
C1060 C1055 1.490 . S
C1060 C1062 1.395 . S
C1060 C1063 1.403 . S
H1061 C1067 0.930 . S
C1062 H1048 0.930 . S
C1062 C1060 1.395 . S
C1062 C1065 1.403 . S
C1063 C1060 1.403 . S
C1063 C1064 1.524 . S
C1063 C1067 1.400 . S
C1064 H1049 0.960 . S
C1064 H1050 0.960 . S
C1064 H1051 0.960 . S
C1064 C1063 1.524 . S
C1065 C1062 1.403 . S
C1065 C1066 1.392 . S
C1065 C1069 1.495 . S
C1066 C1065 1.392 . S
C1066 C1067 1.385 . S
C1066 C1068 1.478 . S
C1067 H1061 0.930 . S
C1067 C1063 1.400 . S
C1067 C1066 1.385 . S
C1068 C1066 1.478 . S
C1068 C1070 1.424 . S
C1068 C1074 1.383 . S
C1069 C1065 1.495 . S
C1069 H1075 0.959 1_554 S
C1069 H1076 0.961 . S
C1069 H1077 0.960 1_554 S
C1070 C1068 1.424 . S
C1070 C1071 1.390 1_554 S
C1070 H1078 0.892 1_554 S
C1071 C1070 1.390 1_556 S
C1071 C1072 1.383 1_556 S
C1071 H1079 0.929 . S
C1072 C1071 1.383 1_554 S
C1072 C1073 1.377 . S
C1073 H1057 0.930 . S
C1073 C1072 1.377 . S
C1073 C1074 1.379 . S
C1074 H1058 0.931 . S
C1074 C1068 1.383 . S
C1074 C1073 1.379 . S
H1075 C1069 0.959 1_556 S
H1076 C1069 0.961 . S
H1077 C1069 0.960 1_556 S
H1078 C1070 0.892 1_556 S
H1079 C1071 0.929 . S
H1080 C1088 0.929 . S
H1081 C1090 0.930 . S
H1082 C1092 0.930 . S
H1083 C1095 0.929 . S
H1084 C1098 0.930 . S
H1085 C1100 0.960 . S
H1086 C1100 0.960 . S
H1087 C1100 0.960 . S
C1088 H1080 0.929 . S
C1088 C1089 1.377 . S
C1088 C1090 1.384 . S
C1089 C1088 1.377 . S
C1089 C1095 1.390 . S
C1090 H1081 0.930 . S
C1090 C1088 1.384 . S
C1090 C1091 1.372 . S
C1091 C1090 1.372 . S
C1091 C1092 1.400 . S
C1091 C1096 1.490 . S
C1092 H1082 0.930 . S
C1092 C1091 1.400 . S
C1092 C1095 1.386 . S
H1093 C1109 0.930 . S
H1094 C1110 0.931 . S
C1095 H1083 0.929 . S
C1095 C1089 1.390 . S
C1095 C1092 1.386 . S
C1096 C1091 1.490 . S
C1096 C1098 1.395 . S
C1096 C1099 1.403 . S
H1097 C1103 0.930 . S
C1098 H1084 0.930 . S
C1098 C1096 1.395 . S
C1098 C1101 1.403 . S
C1099 C1096 1.403 . S
C1099 C1100 1.524 . S
C1099 C1103 1.400 . S
C1100 H1085 0.960 . S
C1100 H1086 0.960 . S
C1100 H1087 0.960 . S
C1100 C1099 1.524 . S
C1101 C1098 1.403 . S
C1101 C1102 1.392 . S
C1101 C1105 1.495 . S
C1102 C1101 1.392 . S
C1102 C1103 1.385 . S
C1102 C1104 1.478 . S
C1103 H1097 0.930 . S
C1103 C1099 1.400 . S
C1103 C1102 1.385 . S
C1104 C1102 1.478 . S
C1104 C1106 1.381 . S
C1104 C1110 1.383 . S
C1105 C1101 1.495 . S
C1105 H1111 0.959 . S
C1105 H1112 0.961 . S
C1105 H1113 0.960 . S
C1106 C1104 1.381 . S
C1106 C1107 1.394 . S
C1106 H1114 0.930 . S
C1107 C1106 1.394 . S
C1107 C1108 1.383 . S
C1107 H1115 0.929 . S
C1108 C1107 1.383 . S
C1108 C1109 1.377 . S
C1109 H1093 0.930 . S
C1109 C1108 1.377 . S
C1109 C1110 1.379 . S
C1110 H1094 0.931 . S
C1110 C1104 1.383 . S
C1110 C1109 1.379 . S
H1111 C1105 0.959 . S
H1112 C1105 0.961 . S
H1113 C1105 0.960 . S
H1114 C1106 0.930 . S
H1115 C1107 0.929 . S
H1116 C1124 0.929 . S
H1117 C1126 0.930 . S
H1118 C1128 0.954 . S
H1119 C1131 0.900 1_554 S
H1120 C1134 0.930 . S
H1121 C1136 0.960 . S
H1122 C1136 0.960 1_556 S
H1123 C1136 0.960 . S
C1124 H1116 0.929 . S
C1124 C1125 1.377 . S
C1124 C1126 1.384 . S
C1125 C1124 1.377 . S
C1125 C1131 1.421 . S
C1126 H1117 0.930 . S
C1126 C1124 1.384 . S
C1126 C1127 1.372 . S
C1127 C1126 1.372 . S
C1127 C1128 1.377 1_556 S
C1127 C1132 1.490 . S
C1128 H1118 0.954 . S
C1128 C1127 1.377 1_554 S
C1128 C1131 1.383 1_554 S
H1129 C1145 0.930 . S
H1130 C1146 0.931 . S
C1131 H1119 0.900 1_556 S
C1131 C1125 1.421 . S
C1131 C1128 1.383 1_556 S
C1132 C1127 1.490 . S
C1132 C1134 1.395 1_655 S
C1132 C1135 1.403 . S
H1133 C1139 0.930 1_554 S
C1134 H1120 0.930 . S
C1134 C1132 1.395 1_455 S
C1134 C1137 1.403 . S
C1135 C1132 1.403 . S
C1135 C1136 1.524 1_556 S
C1135 C1139 1.400 . S
C1136 H1121 0.960 . S
C1136 H1122 0.960 1_554 S
C1136 H1123 0.960 . S
C1136 C1135 1.524 1_554 S
C1137 C1134 1.403 . S
C1137 C1138 1.392 . S
C1137 C1141 1.495 . S
C1138 C1137 1.392 . S
C1138 C1139 1.385 1_455 S
C1138 C1140 1.478 . S
C1139 H1133 0.930 1_556 S
C1139 C1135 1.400 . S
C1139 C1138 1.385 1_655 S
C1140 C1138 1.478 . S
C1140 C1142 1.381 . S
C1140 C1146 1.383 1_556 S
C1141 C1137 1.495 . S
C1141 H1147 0.959 . S
C1141 H1148 0.961 . S
C1141 H1149 0.960 . S
C1142 C1140 1.381 . S
C1142 C1143 1.394 . S
C1142 H1150 0.930 . S
C1143 C1142 1.394 . S
C1143 C1144 1.383 . S
C1143 H1151 0.929 . S
C1144 C1143 1.383 . S
C1144 C1145 1.377 1_556 S
C1145 H1129 0.930 . S
C1145 C1144 1.377 1_554 S
C1145 C1146 1.379 . S
C1146 H1130 0.931 . S
C1146 C1140 1.383 1_554 S
C1146 C1145 1.379 . S
H1147 C1141 0.959 . S
H1148 C1141 0.961 . S
H1149 C1141 0.960 . S
H1150 C1142 0.930 . S
H1151 C1143 0.929 . S
H1152 C1160 0.929 . S
H1153 C1162 0.930 . S
H1154 C1164 0.930 . S
H1155 C1167 0.929 . S
H1156 C1170 0.930 . S
H1157 C1172 0.960 . S
H1158 C1172 0.960 . S
H1159 C1172 0.960 . S
C1160 H1152 0.929 . S
C1160 C1161 1.377 . S
C1160 C1162 1.384 . S
C1161 C1160 1.377 . S
C1161 C1167 1.390 . S
C1162 H1153 0.930 . S
C1162 C1160 1.384 . S
C1162 C1163 1.372 . S
C1163 C1162 1.372 . S
C1163 C1164 1.400 . S
C1163 C1168 1.490 . S
C1164 H1154 0.930 . S
C1164 C1163 1.400 . S
C1164 C1167 1.386 . S
H1165 C1181 0.930 . S
H1166 C1182 0.931 . S
C1167 H1155 0.929 . S
C1167 C1161 1.390 . S
C1167 C1164 1.386 . S
C1168 C1163 1.490 . S
C1168 C1170 1.395 . S
C1168 C1171 1.403 . S
H1169 C1175 0.930 . S
C1170 H1156 0.930 . S
C1170 C1168 1.395 . S
C1170 C1173 1.403 . S
C1171 C1168 1.403 . S
C1171 C1172 1.524 . S
C1171 C1175 1.400 . S
C1172 H1157 0.960 . S
C1172 H1158 0.960 . S
C1172 H1159 0.960 . S
C1172 C1171 1.524 . S
C1173 C1170 1.403 . S
C1173 C1174 1.392 . S
C1173 C1177 1.495 . S
C1174 C1173 1.392 . S
C1174 C1175 1.385 . S
C1174 C1176 1.478 . S
C1175 H1169 0.930 . S
C1175 C1171 1.400 . S
C1175 C1174 1.385 . S
C1176 C1174 1.478 . S
C1176 C1178 1.381 . S
C1176 C1182 1.383 . S
C1177 C1173 1.495 . S
C1177 H1183 0.959 . S
C1177 H1184 0.961 . S
C1177 H1185 0.960 . S
C1178 C1176 1.381 . S
C1178 C1179 1.394 . S
C1178 H1186 0.930 . S
C1179 C1178 1.394 . S
C1179 C1180 1.383 . S
C1179 H1187 0.929 . S
C1180 C1179 1.383 . S
C1180 C1181 1.377 . S
C1181 H1165 0.930 . S
C1181 C1180 1.377 . S
C1181 C1182 1.379 . S
C1182 H1166 0.931 . S
C1182 C1176 1.383 . S
C1182 C1181 1.379 . S
H1183 C1177 0.959 . S
H1184 C1177 0.961 . S
H1185 C1177 0.960 . S
H1186 C1178 0.930 . S
H1187 C1179 0.929 . S
H1188 C1196 0.929 . S
H1189 C1198 0.930 . S
H1190 C1200 0.930 . S
H1191 C1203 0.929 . S
H1192 C1206 0.930 . S
H1193 C1208 0.960 . S
H1194 C1208 0.966 . S
H1195 C1208 0.960 . S
C1196 H1188 0.929 . S
C1196 C1197 1.377 . S
C1196 C1198 1.384 . S
C1197 C1196 1.377 . S
C1197 C1203 1.390 . S
C1198 H1189 0.930 . S
C1198 C1196 1.384 . S
C1198 C1199 1.372 . S
C1199 C1198 1.372 . S
C1199 C1200 1.400 . S
C1199 C1204 1.490 . S
C1200 H1190 0.930 . S
C1200 C1199 1.400 . S
C1200 C1203 1.386 . S
H1201 C1217 0.930 . S
H1202 C1218 0.931 . S
C1203 H1191 0.929 . S
C1203 C1197 1.390 . S
C1203 C1200 1.386 . S
C1204 C1199 1.490 . S
C1204 C1206 1.395 . S
C1204 C1207 1.403 . S
H1205 C1211 0.930 . S
C1206 H1192 0.930 . S
C1206 C1204 1.395 . S
C1206 C1209 1.403 . S
C1207 C1204 1.403 . S
C1207 C1208 1.524 1_455 S
C1207 C1211 1.400 . S
C1208 H1193 0.960 . S
C1208 H1194 0.966 . S
C1208 H1195 0.960 . S
C1208 C1207 1.524 1_655 S
C1209 C1206 1.403 . S
C1209 C1210 1.392 . S
C1209 C1213 1.495 . S
C1210 C1209 1.392 . S
C1210 C1211 1.385 . S
C1210 C1212 1.478 . S
C1211 H1205 0.930 . S
C1211 C1207 1.400 . S
C1211 C1210 1.385 . S
C1212 C1210 1.478 . S
C1212 C1214 1.381 . S
C1212 C1218 1.383 . S
C1213 C1209 1.495 . S
C1213 H1219 0.959 . S
C1213 H1220 0.961 . S
C1213 H1221 0.960 . S
C1214 C1212 1.381 . S
C1214 C1215 1.394 . S
C1214 H1222 0.930 . S
C1215 C1214 1.394 . S
C1215 C1216 1.383 . S
C1215 H1223 0.929 . S
C1216 C1215 1.383 . S
C1216 C1217 1.377 . S
C1217 H1201 0.930 . S
C1217 C1216 1.377 . S
C1217 C1218 1.379 . S
C1218 H1202 0.931 . S
C1218 C1212 1.383 . S
C1218 C1217 1.379 . S
H1219 C1213 0.959 . S
H1220 C1213 0.961 . S
H1221 C1213 0.960 . S
H1222 C1214 0.930 . S
H1223 C1215 0.929 . S
H1224 C1232 0.929 . S
H1225 C1234 0.930 . S
H1226 C1236 0.930 . S
H1227 C1239 0.929 . S
H1228 C1242 0.930 . S
H1229 C1244 0.960 . S
H1230 C1244 0.960 . S
H1231 C1244 0.960 . S
C1232 H1224 0.929 . S
C1232 C1233 1.377 . S
C1232 C1234 1.384 . S
C1233 C1232 1.377 . S
C1233 C1239 1.390 . S
C1234 H1225 0.930 . S
C1234 C1232 1.384 . S
C1234 C1235 1.372 . S
C1235 C1234 1.372 . S
C1235 C1236 1.400 . S
C1235 C1240 1.490 . S
C1236 H1226 0.930 . S
C1236 C1235 1.400 . S
C1236 C1239 1.386 . S
H1237 C1253 0.930 . S
H1238 C1254 0.931 . S
C1239 H1227 0.929 . S
C1239 C1233 1.390 . S
C1239 C1236 1.386 . S
C1240 C1235 1.490 . S
C1240 C1242 1.395 . S
C1240 C1243 1.403 . S
H1241 C1247 0.930 . S
C1242 H1228 0.930 . S
C1242 C1240 1.395 . S
C1242 C1245 1.403 . S
C1243 C1240 1.403 . S
C1243 C1244 1.524 . S
C1243 C1247 1.400 . S
C1244 H1229 0.960 . S
C1244 H1230 0.960 . S
C1244 H1231 0.960 . S
C1244 C1243 1.524 . S
C1245 C1242 1.403 . S
C1245 C1246 1.392 . S
C1245 C1249 1.495 . S
C1246 C1245 1.392 . S
C1246 C1247 1.385 . S
C1246 C1248 1.478 . S
C1247 H1241 0.930 . S
C1247 C1243 1.400 . S
C1247 C1246 1.385 . S
C1248 C1246 1.478 . S
C1248 C1250 1.381 . S
C1248 C1254 1.383 . S
C1249 C1245 1.495 . S
C1249 H1255 0.959 . S
C1249 H1256 0.961 . S
C1249 H1257 0.960 . S
C1250 C1248 1.381 . S
C1250 C1251 1.394 . S
C1250 H1258 0.930 . S
C1251 C1250 1.394 . S
C1251 C1252 1.383 . S
C1251 H1259 0.929 . S
C1252 C1251 1.383 . S
C1252 C1253 1.377 . S
C1253 H1237 0.930 . S
C1253 C1252 1.377 . S
C1253 C1254 1.379 . S
C1254 H1238 0.931 . S
C1254 C1248 1.383 . S
C1254 C1253 1.379 . S
H1255 C1249 0.959 . S
H1256 C1249 0.961 . S
H1257 C1249 0.960 . S
H1258 C1250 0.930 . S
H1259 C1251 0.929 . S
C405 C1 1.554 . S
C424 C315 1.462 . S
C441 C40 1.513 . S
C460 C349 1.416 . S
C496 C361 1.404 . S
C477 C99 1.504 . S
C513 C118 1.507 . S
C532 C395 1.378 . S
C568 C352 1.456 . S
C549 C16 1.546 . S
C604 C332 1.389 1_565 S
C585 C60 1.510 . S
C640 C379 1.363 . S
C621 C79 1.508 . S
C676 C370 1.381 . S
C657 C138 1.490 . S
C693 C21 1.538 . S
C712 C378 1.390 . S
C748 C340 1.438 . S
C729 C94 1.520 . S
C765 C133 1.496 . S
C784 C316 1.359 . S
C801 C55 1.522 . S
C820 C373 1.425 . S
C856 C331 1.591 . S
C837 C157 1.713 . S
C873 C196 1.706 . S
C892 C353 1.629 . S
C909 C255 1.715 . S
C928 C358 1.629 . S
C945 C289 1.723 . S
C964 C391 1.650 . S
C981 C172 1.729 . S
C1000 C336 1.633 . S
C1036 C328 1.651 . S
C1017 C216 1.741 . S
C1072 C382 1.644 . S
C1053 C235 1.740 . S
C1108 C374 1.606 . S
C1089 C294 1.674 . S
C1125 C177 1.678 . S
C1144 C394 1.559 . S
C1180 C337 1.640 . S
C1161 C250 1.746 . S
C1216 C319 1.609 . S
C1197 C274 1.693 . S
C1233 C211 1.703 . S
C1252 C357 1.630 . S
