# Generated by pormake.
# Topology pth, (4,4)-cn, num edge types: 1
# Building blocks:
#     Node 0, Type 0, BuildingBlock: TATPOV_clean_sbu_0, # of connection points: 4
#     Node 1, Type 0, BuildingBlock: TATPOV_clean_sbu_0, # of connection points: 4
#     Node 2, Type 0, BuildingBlock: TATPOV_clean_sbu_0, # of connection points: 4
#     Node 3, Type 1, BuildingBlock: NAHDIM_clean_linker_0, # of connection points: 4
#     Node 4, Type 1, BuildingBlock: NAHDIM_clean_linker_0, # of connection points: 4
#     Node 5, Type 1, BuildingBlock: NAHDIM_clean_linker_0, # of connection points: 4
#     Edge 6, Type (0, 1), BuildingBlock: ZUJKAS_clean_linker_0, # of connection points: 2
#     Edge 7, Type (0, 1), BuildingBlock: ZUJKAS_clean_linker_0, # of connection points: 2
#     Edge 8, Type (0, 1), BuildingBlock: ZUJKAS_clean_linker_0, # of connection points: 2
#     Edge 9, Type (0, 1), BuildingBlock: ZUJKAS_clean_linker_0, # of connection points: 2
#     Edge 10, Type (0, 1), BuildingBlock: ZUJKAS_clean_linker_0, # of connection points: 2
#     Edge 11, Type (0, 1), BuildingBlock: ZUJKAS_clean_linker_0, # of connection points: 2
#     Edge 12, Type (0, 1), BuildingBlock: ZUJKAS_clean_linker_0, # of connection points: 2
#     Edge 13, Type (0, 1), BuildingBlock: ZUJKAS_clean_linker_0, # of connection points: 2
#     Edge 14, Type (0, 1), BuildingBlock: ZUJKAS_clean_linker_0, # of connection points: 2
#     Edge 15, Type (0, 1), BuildingBlock: ZUJKAS_clean_linker_0, # of connection points: 2
#     Edge 16, Type (0, 1), BuildingBlock: ZUJKAS_clean_linker_0, # of connection points: 2
#     Edge 17, Type (0, 1), BuildingBlock: ZUJKAS_clean_linker_0, # of connection points: 2
# Relax obj value: 0.053
# Max RMSD: 0.173
# Mean RMSD: 0.111
data_MOF--net-pth--node1-TATPOV_clean_sbu_0--node2-NAHDIM_clean_linker_0--edge1-ZUJKAS_clean_linker_0
_symmetry_space_group_name_H-M    P1
_symmetry_Int_Tables_number       1
_symmetry_cell_setting            triclinic
loop_
_symmetry_equiv_pos_as_xyz
'x, y, z'
_cell_length_a     38.806922
_cell_length_b     38.392853
_cell_length_c     95.916267
_cell_angle_alpha  92.062267
_cell_angle_beta   92.437333
_cell_angle_gamma 121.00518
loop_
_atom_site_label
_atom_site_type_symbol
_atom_site_fract_x
_atom_site_fract_y
_atom_site_fract_z
_atom_type_partial_charge
Zn0 Zn 0.14687 0.03795 0.05429 0.0
Zn1 Zn 0.11027 0.07499 0.06527 0.0
O2 O 0.11885 0.04589 0.0815 0.0
O3 O 0.14972 0.01622 0.0729 0.0
O4 O 0.09251 0.11038 0.07471 0.0
O5 O 0.19316 0.09051 0.04808 0.0
O6 O 0.15876 0.11779 0.05536 0.0
C7 C 0.13415 0.02368 0.08305 0.0
C8 C 0.06419 0.00955 0.04235 0.0
O9 O 0.06426 0.03493 0.0513 0.0
O10 O 0.09505 0.00635 0.04162 0.0
C11 C 0.07005 0.10046 0.08489 0.0
O12 O 0.05452 0.06362 0.08926 0.0
C13 C 0.18874 0.12088 0.04932 0.0
Zn14 Zn 0.10483 0.11412 0.37125 0.0
Zn15 Zn 0.03833 0.08934 0.38542 0.0
O16 O 0.08266 0.10162 0.40068 0.0
O17 O 0.13788 0.12444 0.38946 0.0
O18 O 0.99066 0.07651 0.39657 0.0
O19 O 0.09953 0.15879 0.3633 0.0
O20 O 0.04503 0.1381 0.37475 0.0
C21 C 0.1204 0.11553 0.40076 0.0
C22 C 0.04049 0.0306 0.36375 0.0
O23 O 0.02171 0.03741 0.37303 0.0
O24 O 0.07556 0.05826 0.36108 0.0
C25 C 0.98104 0.05421 0.40689 0.0
O26 O 0.00138 0.03649 0.41009 0.0
C27 C 0.07013 0.16232 0.36649 0.0
Zn28 Zn 0.05733 0.97639 0.74369 0.0
Zn29 Zn 0.0117 0.99602 0.72841 0.0
O30 O 0.04218 0.98408 0.71369 0.0
O31 O 0.07945 0.96724 0.72628 0.0
O32 O 0.97534 0.0078 0.71655 0.0
O33 O 0.00903 0.93043 0.75147 0.0
O34 O 0.97114 0.94737 0.7393 0.0
C35 C 0.06807 0.9731 0.71449 0.0
C36 C 0.07522 0.05817 0.75026 0.0
O37 O 0.04808 0.0493 0.74052 0.0
O38 O 0.08415 0.03205 0.75366 0.0
C39 C 0.98787 0.04115 0.71076 0.0
O40 O 0.02609 0.06982 0.71271 0.0
C41 C 0.97461 0.92471 0.74797 0.0
C42 C 0.88453 0.60418 0.30966 0.0
C43 C 0.92375 0.63389 0.30326 0.0
C44 C 0.94182 0.62241 0.2804 0.0
C45 C 0.98378 0.64838 0.2817 0.0
C46 C 0.00846 0.64084 0.27337 0.0
C47 C 0.99073 0.60585 0.2639 0.0
C48 C 0.94817 0.58007 0.26244 0.0
C49 C 0.92427 0.58947 0.27046 0.0
C50 C 0.0535 0.66977 0.27498 0.0
C51 C 0.92777 0.54161 0.25289 0.0
C52 C 0.15483 0.55617 0.32697 0.0
C53 C 0.12174 0.52708 0.31594 0.0
C54 C 0.11839 0.5366 0.29118 0.0
C55 C 0.07705 0.50976 0.28792 0.0
C56 C 0.05716 0.51557 0.27651 0.0
C57 C 0.07896 0.54961 0.26846 0.0
C58 C 0.12117 0.57541 0.27131 0.0
C59 C 0.14047 0.56788 0.28248 0.0
C60 C 0.01251 0.48637 0.27347 0.0
C61 C 0.14558 0.61241 0.26318 0.0
C62 C 0.09381 0.47319 0.18003 0.0
C63 C 0.0542 0.45687 0.1839 0.0
C64 C 0.04186 0.48203 0.19005 0.0
C65 C 0.06976 0.52439 0.19235 0.0
C66 C 0.10925 0.54113 0.18793 0.0
C67 C 0.12065 0.51525 0.18167 0.0
C68 C 0.99909 0.4633 0.1942 0.0
C69 C 0.13957 0.58616 0.1901 0.0
C70 C 0.92079 0.70214 0.17784 0.0
C71 C 0.96288 0.70849 0.17699 0.0
C72 C 0.97803 0.65434 0.17617 0.0
C73 C 0.95689 0.61183 0.17549 0.0
C74 C 0.97318 0.59084 0.18204 0.0
C75 C 0.0121 0.61315 0.18903 0.0
C76 C 0.03497 0.6561 0.18868 0.0
C77 C 0.0175 0.67631 0.18237 0.0
C78 C 0.94809 0.54503 0.18205 0.0
C79 C 0.07727 0.6808 0.19545 0.0
C80 C 0.01651 0.59368 0.2567 0.0
C81 C 0.03585 0.57846 0.26483 0.0
C82 C 0.05689 0.56196 0.25877 0.0
C83 C 0.05735 0.55893 0.24405 0.0
C84 C 0.07477 0.53901 0.23747 0.0
C85 C 0.0748 0.5361 0.22295 0.0
C86 C 0.0581 0.55372 0.21449 0.0
C87 C 0.05763 0.55069 0.19972 0.0
C88 C 0.043 0.57068 0.19169 0.0
C89 C 0.02705 0.59224 0.19799 0.0
C90 C 0.02476 0.59321 0.21268 0.0
C91 C 0.00635 0.61219 0.21929 0.0
C92 C 0.00384 0.61263 0.23371 0.0
C93 C 0.01985 0.59436 0.24209 0.0
C94 C 0.03952 0.57605 0.23571 0.0
C95 C 0.04099 0.57451 0.22095 0.0
C96 C 0.13744 0.42173 0.18875 0.0
C97 C 0.1 0.41317 0.17979 0.0
O98 O 0.91766 0.62799 0.28881 0.0
O99 O 0.95931 0.67326 0.17099 0.0
O100 O 0.10671 0.44919 0.1745 0.0
O101 O 0.13739 0.53396 0.30292 0.0
H102 H 0.94687 0.62671 0.30702 0.0
H103 H 0.87524 0.57239 0.30625 0.0
H104 H 0.86005 0.60962 0.30626 0.0
H105 H 0.88878 0.60765 0.32126 0.0
H106 H 0.99714 0.67443 0.28924 0.0
H107 H 0.89174 0.56985 0.26952 0.0
H108 H 0.06745 0.65633 0.2815 0.0
H109 H 0.0616 0.69964 0.28016 0.0
H110 H 0.06657 0.67487 0.26464 0.0
H111 H 0.89553 0.52149 0.25489 0.0
H112 H 0.94321 0.52421 0.25418 0.0
H113 H 0.92927 0.54965 0.24185 0.0
H114 H 0.09732 0.53426 0.31621 0.0
H115 H 0.14288 0.55152 0.3375 0.0
H116 H 0.16585 0.58817 0.32455 0.0
H117 H 0.18067 0.55125 0.32714 0.0
H118 H 0.0602 0.48473 0.29445 0.0
H119 H 0.17253 0.58801 0.28503 0.0
H120 H 0.9958 0.4999 0.27797 0.0
H121 H 0.00234 0.45683 0.27816 0.0
H122 H 0.00458 0.48063 0.26202 0.0
H123 H 0.17727 0.63141 0.26761 0.0
H124 H 0.13172 0.63152 0.26307 0.0
H125 H 0.14586 0.60265 0.25218 0.0
H126 H 0.07452 0.4008 0.18671 0.0
H127 H 0.0328 0.42452 0.18203 0.0
H128 H 0.15096 0.52761 0.1784 0.0
H129 H 0.99918 0.46651 0.20576 0.0
H130 H 0.98026 0.43046 0.19073 0.0
H131 H 0.98502 0.47962 0.18966 0.0
H132 H 0.16928 0.59437 0.18626 0.0
H133 H 0.1438 0.59583 0.2014 0.0
H134 H 0.12804 0.6034 0.18455 0.0
H135 H 0.97637 0.71458 0.18796 0.0
H136 H 0.92277 0.72984 0.18275 0.0
H137 H 0.9026 0.67621 0.18432 0.0
H138 H 0.90509 0.69527 0.16724 0.0
H139 H 0.92671 0.5952 0.17043 0.0
H140 H 0.03445 0.70925 0.18243 0.0
H141 H 0.94434 0.53571 0.19297 0.0
H142 H 0.96383 0.53145 0.17682 0.0
H143 H 0.91779 0.53235 0.17658 0.0
H144 H 0.09354 0.71235 0.192 0.0
H145 H 0.09469 0.66602 0.19299 0.0
H146 H 0.07602 0.68247 0.20698 0.0
H147 H 0.03419 0.57913 0.2761 0.0
H148 H 0.08812 0.52504 0.2435 0.0
H149 H 0.0884 0.52018 0.21844 0.0
H150 H 0.04338 0.56883 0.18039 0.0
H151 H 0.99321 0.62654 0.21339 0.0
H152 H 0.98928 0.62756 0.23823 0.0
H153 H 0.16427 0.43461 0.18248 0.0
H154 H 0.13271 0.39325 0.1931 0.0
H155 H 0.14345 0.44401 0.19762 0.0
C156 C 0.35743 0.95381 0.63227 0.0
C157 C 0.35778 0.99165 0.62754 0.0
C158 C 0.3914 0.00679 0.6061 0.0
C159 C 0.42142 0.04807 0.60788 0.0
C160 C 0.45696 0.06333 0.60088 0.0
C161 C 0.46256 0.03644 0.59211 0.0
C162 C 0.43205 0.99466 0.59032 0.0
C163 C 0.39642 0.98057 0.59715 0.0
C164 C 0.48847 0.10808 0.60284 0.0
C165 C 0.43717 0.96474 0.58133 0.0
C166 C 0.72747 0.04772 0.63606 0.0
C167 C 0.69184 0.03777 0.62657 0.0
C168 C 0.66309 0.07002 0.6128 0.0
C169 C 0.6332 0.03357 0.60552 0.0
C170 C 0.60335 0.0328 0.59653 0.0
C171 C 0.60318 0.06913 0.59479 0.0
C172 C 0.63361 0.10603 0.60186 0.0
C173 C 0.66337 0.10601 0.61073 0.0
C174 C 0.5715 0.99294 0.58905 0.0
C175 C 0.6342 0.14524 0.60022 0.0
C176 C 0.67741 0.10035 0.50716 0.0
C177 C 0.64848 0.06128 0.51077 0.0
C178 C 0.61366 0.05447 0.51702 0.0
C179 C 0.60792 0.08756 0.5198 0.0
C180 C 0.63635 0.12667 0.51566 0.0
C181 C 0.67058 0.13243 0.50922 0.0
C182 C 0.58326 0.01203 0.52081 0.0
C183 C 0.631 0.1625 0.51835 0.0
C184 C 0.29622 0.00632 0.51867 0.0
C185 C 0.3287 0.03948 0.51041 0.0
C186 C 0.38931 0.03646 0.50763 0.0
C187 C 0.39995 0.00685 0.50796 0.0
C188 C 0.43854 0.01684 0.51313 0.0
C189 C 0.4672 0.05762 0.51781 0.0
C190 C 0.45776 0.08834 0.51622 0.0
C191 C 0.4188 0.07742 0.51113 0.0
C192 C 0.44787 0.98344 0.51442 0.0
C193 C 0.48809 0.13229 0.52068 0.0
C194 C 0.50037 0.05175 0.58488 0.0
C195 C 0.5344 0.05723 0.59256 0.0
C196 C 0.56986 0.06778 0.58614 0.0
C197 C 0.57169 0.07316 0.57162 0.0
C198 C 0.60658 0.08298 0.56476 0.0
C199 C 0.60738 0.08645 0.55035 0.0
C200 C 0.57323 0.07999 0.54225 0.0
C201 C 0.573 0.08142 0.52751 0.0
C202 C 0.5385 0.07493 0.51979 0.0
C203 C 0.50395 0.06676 0.52643 0.0
C204 C 0.50358 0.06501 0.54113 0.0
C205 C 0.46911 0.05647 0.54809 0.0
C206 C 0.46835 0.05311 0.56246 0.0
C207 C 0.50182 0.05771 0.57042 0.0
C208 C 0.53739 0.06781 0.56373 0.0
C209 C 0.5382 0.07131 0.54904 0.0
C210 C 0.77008 0.13074 0.51707 0.0
C211 C 0.73782 0.0962 0.50708 0.0
O212 O 0.35752 0.99165 0.61309 0.0
O213 O 0.35034 0.02442 0.50409 0.0
O214 O 0.71186 0.10774 0.50153 0.0
O215 O 0.69166 0.0715 0.62196 0.0
H216 H 0.38569 0.01906 0.63236 0.0
H217 H 0.3847 0.95414 0.62899 0.0
H218 H 0.33031 0.92563 0.62753 0.0
H219 H 0.35755 0.95333 0.64385 0.0
H220 H 0.41686 0.06828 0.61468 0.0
H221 H 0.3728 0.94872 0.59587 0.0
H222 H 0.51595 0.11204 0.60851 0.0
H223 H 0.47785 0.12558 0.60888 0.0
H224 H 0.4971 0.12104 0.59251 0.0
H225 H 0.4137 0.93267 0.58282 0.0
H226 H 0.46729 0.96875 0.58374 0.0
H227 H 0.4351 0.97039 0.57015 0.0
H228 H 0.66222 0.01443 0.63028 0.0
H229 H 0.71479 0.03603 0.64637 0.0
H230 H 0.74204 0.08085 0.63973 0.0
H231 H 0.75728 0.02481 0.62463 0.0
H232 H 0.63277 0.00549 0.60684 0.0
H233 H 0.6866 0.13403 0.61631 0.0
H234 H 0.57009 0.99644 0.57763 0.0
H235 H 0.54156 0.98413 0.59279 0.0
H236 H 0.57728 0.96789 0.5908 0.0
H237 H 0.66028 0.17155 0.60625 0.0
H238 H 0.60594 0.14207 0.60381 0.0
H239 H 0.63543 0.1517 0.589 0.0
H240 H 0.72128 0.06891 0.5132 0.0
H241 H 0.65296 0.03605 0.50862 0.0
H242 H 0.69284 0.16234 0.50616 0.0
H243 H 0.5836 0.01107 0.53237 0.0
H244 H 0.5897 0.9889 0.51648 0.0
H245 H 0.55244 0.0037 0.51689 0.0
H246 H 0.65644 0.19122 0.51488 0.0
H247 H 0.62838 0.16667 0.5297 0.0
H248 H 0.60261 0.15645 0.51275 0.0
H249 H 0.3483 0.06543 0.51814 0.0
H250 H 0.27804 0.01756 0.5236 0.0
H251 H 0.31067 0.99794 0.52708 0.0
H252 H 0.27589 0.97853 0.51179 0.0
H253 H 0.3772 0.97547 0.50488 0.0
H254 H 0.41121 0.10075 0.51016 0.0
H255 H 0.4522 0.97952 0.52565 0.0
H256 H 0.4764 0.99197 0.50955 0.0
H257 H 0.42343 0.95385 0.5094 0.0
H258 H 0.47832 0.15313 0.51693 0.0
H259 H 0.51778 0.14128 0.51665 0.0
H260 H 0.49219 0.13605 0.53227 0.0
H261 H 0.53283 0.05188 0.60362 0.0
H262 H 0.63354 0.08774 0.57044 0.0
H263 H 0.63501 0.09384 0.54564 0.0
H264 H 0.53828 0.07548 0.50849 0.0
H265 H 0.44208 0.05187 0.54253 0.0
H266 H 0.44093 0.04632 0.56721 0.0
H267 H 0.79116 0.12205 0.52165 0.0
H268 H 0.75561 0.13709 0.52576 0.0
H269 H 0.78744 0.15901 0.51151 0.0
C270 C 0.69347 0.54564 0.80316 0.0
C271 C 0.68672 0.57516 0.81206 0.0
C272 C 0.67491 0.57112 0.83674 0.0
C273 C 0.65526 0.59309 0.83763 0.0
C274 C 0.62892 0.58647 0.84816 0.0
C275 C 0.62148 0.55658 0.85777 0.0
C276 C 0.64271 0.53565 0.85722 0.0
C277 C 0.66998 0.54403 0.84687 0.0
C278 C 0.6078 0.61022 0.84864 0.0
C279 C 0.6351 0.50289 0.86703 0.0
C280 C 0.32327 0.3335 0.8215 0.0
C281 C 0.357 0.35201 0.83251 0.0
C282 C 0.40318 0.41695 0.8453 0.0
C283 C 0.42784 0.40374 0.85133 0.0
C284 C 0.46374 0.43105 0.85921 0.0
C285 C 0.47545 0.47249 0.86105 0.0
C286 C 0.45053 0.48588 0.8552 0.0
C287 C 0.41448 0.45777 0.84746 0.0
C288 C 0.48961 0.41575 0.86535 0.0
C289 C 0.46242 0.52997 0.85695 0.0
C290 C 0.43062 0.48638 0.95092 0.0
C291 C 0.44409 0.46069 0.94625 0.0
C292 C 0.47934 0.47609 0.93906 0.0
C293 C 0.5007 0.51776 0.93615 0.0
C294 C 0.48771 0.54386 0.94126 0.0
C295 C 0.45317 0.52786 0.94882 0.0
C296 C 0.49331 0.4477 0.93439 0.0
C297 C 0.50975 0.58847 0.93849 0.0
C298 C 0.8331 0.70923 0.93726 0.0
C299 C 0.79654 0.70903 0.94274 0.0
C300 C 0.72983 0.64818 0.94335 0.0
C301 C 0.71116 0.60581 0.94236 0.0
C302 C 0.67077 0.58109 0.93722 0.0
C303 C 0.64861 0.59943 0.93318 0.0
C304 C 0.66652 0.64216 0.93511 0.0
C305 C 0.70699 0.66615 0.94022 0.0
C306 C 0.6523 0.53554 0.93553 0.0
C307 C 0.6433 0.66251 0.93128 0.0
C308 C 0.58752 0.54316 0.86693 0.0
C309 C 0.54869 0.51823 0.8606 0.0
C310 C 0.51493 0.50195 0.86843 0.0
C311 C 0.51964 0.51089 0.88303 0.0
C312 C 0.48619 0.49519 0.89119 0.0
C313 C 0.49121 0.50327 0.90562 0.0
C314 C 0.52992 0.52663 0.91249 0.0
C315 C 0.53542 0.53374 0.92723 0.0
C316 C 0.57436 0.55726 0.93368 0.0
C317 C 0.60811 0.57441 0.92579 0.0
C318 C 0.60322 0.56776 0.91104 0.0
C319 C 0.63657 0.58485 0.90278 0.0
C320 C 0.63151 0.57752 0.8883 0.0
C321 C 0.59297 0.5524 0.88156 0.0
C322 C 0.55886 0.53579 0.88965 0.0
C323 C 0.564 0.54345 0.9044 0.0
C324 C 0.3262 0.44426 0.95305 0.0
C325 C 0.36054 0.43563 0.95414 0.0
O326 O 0.69765 0.57442 0.82595 0.0
O327 O 0.76993 0.6707 0.94708 0.0
O328 O 0.3962 0.4722 0.95759 0.0
O329 O 0.3689 0.39146 0.83717 0.0
H330 H 0.65387 0.56403 0.81069 0.0
H331 H 0.67482 0.51433 0.80665 0.0
H332 H 0.72565 0.55443 0.80419 0.0
H333 H 0.68455 0.54538 0.79198 0.0
H334 H 0.66004 0.61493 0.82996 0.0
H335 H 0.68577 0.52763 0.84613 0.0
H336 H 0.57622 0.59047 0.8442 0.0
H337 H 0.62273 0.63761 0.8425 0.0
H338 H 0.60693 0.61988 0.85961 0.0
H339 H 0.65061 0.48638 0.86415 0.0
H340 H 0.60229 0.48048 0.86704 0.0
H341 H 0.64609 0.51677 0.87784 0.0
H342 H 0.35335 0.33214 0.84122 0.0
H343 H 0.34949 0.32538 0.80386 0.0
H344 H 0.30917 0.35287 0.82165 0.0
H345 H 0.2976 0.30728 0.82641 0.0
H346 H 0.41954 0.37223 0.84984 0.0
H347 H 0.39532 0.46771 0.8428 0.0
H348 H 0.49609 0.4243 0.87675 0.0
H349 H 0.51889 0.43033 0.86047 0.0
H350 H 0.47509 0.38217 0.86369 0.0
H351 H 0.43941 0.53543 0.85196 0.0
H352 H 0.49154 0.54924 0.85224 0.0
H353 H 0.46695 0.53976 0.86824 0.0
H354 H 0.36139 0.42257 0.94368 0.0
H355 H 0.42724 0.42873 0.94831 0.0
H356 H 0.44272 0.54745 0.9527 0.0
H357 H 0.48654 0.44046 0.92293 0.0
H358 H 0.47808 0.41867 0.93965 0.0
H359 H 0.52641 0.46243 0.93655 0.0
H360 H 0.49345 0.60365 0.94196 0.0
H361 H 0.51406 0.59225 0.92715 0.0
H362 H 0.54005 0.60414 0.94414 0.0
H363 H 0.78266 0.71619 0.93373 0.0
H364 H 0.85512 0.73986 0.93386 0.0
H365 H 0.82329 0.68682 0.92812 0.0
H366 H 0.84822 0.70085 0.94543 0.0
H367 H 0.72886 0.59223 0.94507 0.0
H368 H 0.72083 0.69889 0.94159 0.0
H369 H 0.6452 0.52537 0.92425 0.0
H370 H 0.62355 0.52003 0.94074 0.0
H371 H 0.67267 0.52581 0.93998 0.0
H372 H 0.66066 0.69573 0.93426 0.0
H373 H 0.61459 0.64834 0.93652 0.0
H374 H 0.63555 0.65794 0.91982 0.0
H375 H 0.54473 0.51039 0.84942 0.0
H376 H 0.45573 0.47649 0.88649 0.0
H377 H 0.46429 0.49052 0.91132 0.0
H378 H 0.57844 0.56258 0.94498 0.0
H379 H 0.66705 0.60398 0.9074 0.0
H380 H 0.65819 0.5914 0.88246 0.0
H381 H 0.32314 0.45643 0.96331 0.0
H382 H 0.29719 0.41613 0.94958 0.0
H383 H 0.33254 0.46715 0.94524 0.0
H384 H 0.10332 0.18073 0.07971 0.0
H385 H 0.10296 0.23414 0.09423 0.0
H386 H 0.02749 0.14538 0.12245 0.0
H387 H 0.02757 0.09149 0.10798 0.0
H388 H 0.00682 0.20799 0.11503 0.0
H389 H 0.16708 0.27125 0.13371 0.0
H390 H 0.15607 0.26323 0.11507 0.0
H391 H 0.13584 0.22029 0.12567 0.0
C392 C 0.08622 0.17237 0.08891 0.0
C393 C 0.06579 0.13184 0.09276 0.0
C394 C 0.08616 0.20299 0.0972 0.0
C395 C 0.06566 0.19372 0.10948 0.0
C396 C 0.04361 0.1531 0.11302 0.0
H397 H 0.04445 0.33135 0.17855 0.0
H398 H 0.03385 0.27889 0.16072 0.0
C399 C 0.04375 0.12238 0.10475 0.0
C400 C 0.0692 0.22676 0.11902 0.0
H401 H 0.13648 0.30741 0.14118 0.0
C402 C 0.0351 0.22978 0.12077 0.0
C403 C 0.10619 0.25508 0.12644 0.0
C404 C 0.1434 0.25234 0.12526 0.0
C405 C 0.03719 0.26084 0.12966 0.0
C406 C 0.07416 0.28898 0.13718 0.0
C407 C 0.10823 0.28595 0.13536 0.0
C408 C 0.07811 0.32109 0.14736 0.0
C409 C 2e-05 0.26365 0.13074 0.0
C410 C 0.10695 0.3622 0.1459 0.0
C411 C 0.1132 0.3922 0.15612 0.0
C412 C 0.09065 0.38162 0.16799 0.0
C413 C 0.06165 0.34046 0.16937 0.0
C414 C 0.05544 0.3105 0.15916 0.0
H415 H 0.97826 0.24798 0.1215 0.0
H416 H 0.98476 0.24872 0.14017 0.0
H417 H 0.0079 0.29589 0.13172 0.0
H418 H 0.12512 0.37099 0.13696 0.0
H419 H 0.1363 0.42356 0.15492 0.0
H420 H 0.95385 0.01048 0.43004 0.0
H421 H 0.90661 0.0108 0.44608 0.0
H422 H 0.89198 0.09348 0.42075 0.0
H423 H 0.93843 0.09273 0.40454 0.0
H424 H 0.9166 0.07664 0.46146 0.0
H425 H 0.7761 0.01017 0.42701 0.0
H426 H 0.81898 0.00688 0.42235 0.0
H427 H 0.81805 0.05265 0.41987 0.0
C428 C 0.9401 0.02823 0.42776 0.0
C429 C 0.94991 0.05154 0.41598 0.0
C430 C 0.91314 0.02842 0.43695 0.0
C431 C 0.89533 0.05172 0.43452 0.0
C432 C 0.90457 0.07449 0.42266 0.0
H433 H 0.76467 0.13469 0.48263 0.0
H434 H 0.80126 0.12158 0.46497 0.0
C435 C 0.93139 0.07423 0.41345 0.0
C436 C 0.8695 0.05469 0.44491 0.0
H437 H 0.77742 0.0441 0.44863 0.0
C438 C 0.88601 0.06907 0.45869 0.0
C439 C 0.82962 0.04495 0.44128 0.0
C440 C 0.80947 0.02742 0.42686 0.0
C441 C 0.86414 0.07499 0.46882 0.0
C442 C 0.82458 0.06592 0.46511 0.0
C443 C 0.80784 0.05115 0.4514 0.0
C444 C 0.8004 0.07208 0.47535 0.0
C445 C 0.88385 0.09193 0.48334 0.0
C446 C 0.78737 0.04817 0.48689 0.0
C447 C 0.76626 0.05537 0.49691 0.0
C448 C 0.75749 0.08639 0.49551 0.0
C449 C 0.7703 0.11007 0.48385 0.0
C450 C 0.79127 0.10271 0.47379 0.0
H451 H 0.91692 0.10473 0.48374 0.0
H452 H 0.87818 0.11613 0.48709 0.0
H453 H 0.87073 0.06722 0.49064 0.0
H454 H 0.79396 0.02424 0.48823 0.0
H455 H 0.75729 0.03709 0.5059 0.0
H456 H 0.97378 0.87434 0.76736 0.0
H457 H 0.9161 0.82122 0.77826 0.0
H458 H 0.83684 0.84792 0.75435 0.0
H459 H 0.89486 0.90161 0.7432 0.0
H460 H 0.85824 0.82999 0.79404 0.0
H461 H 0.78953 0.72273 0.74656 0.0
H462 H 0.84141 0.76408 0.74779 0.0
H463 H 0.80156 0.77444 0.74529 0.0
C464 C 0.94416 0.86905 0.76434 0.0
C465 C 0.93896 0.89218 0.75434 0.0
C466 C 0.91123 0.83871 0.77064 0.0
C467 C 0.8723 0.83061 0.76707 0.0
C468 C 0.86672 0.85358 0.75714 0.0
H469 H 0.66051 0.61396 0.79508 0.0
H470 H 0.70084 0.67982 0.78496 0.0
C471 C 0.89985 0.88421 0.75081 0.0
C472 C 0.83804 0.79753 0.77376 0.0
H473 H 0.76173 0.69861 0.76786 0.0
C474 C 0.83666 0.80144 0.7883 0.0
C475 C 0.80988 0.76053 0.76622 0.0
C476 C 0.81049 0.75478 0.7506 0.0
C477 C 0.80886 0.76864 0.7956 0.0
C478 C 0.78239 0.73081 0.78817 0.0
C479 C 0.78222 0.72762 0.77353 0.0
C480 C 0.75727 0.69326 0.79542 0.0
C481 C 0.80862 0.77462 0.81122 0.0
C482 C 0.77565 0.67905 0.80465 0.0
C483 C 0.75272 0.64161 0.81046 0.0
C484 C 0.71096 0.61766 0.80711 0.0
C485 C 0.69254 0.63214 0.79799 0.0
C486 C 0.71551 0.66962 0.79219 0.0
H487 H 0.8201 0.80703 0.8145 0.0
H488 H 0.77784 0.75558 0.81481 0.0
H489 H 0.82866 0.76577 0.81653 0.0
H490 H 0.80799 0.69624 0.80698 0.0
H491 H 0.76776 0.63078 0.81723 0.0
H492 H 0.09871 0.02887 0.10654 0.0
H493 H 0.07878 0.98369 0.12577 0.0
H494 H 0.13527 0.92272 0.10771 0.0
H495 H 0.15608 0.96816 0.08869 0.0
H496 H 0.02743 0.90337 0.12173 0.0
H497 H 0.16861 0.92978 0.14855 0.0
H498 H 0.16766 0.96503 0.13679 0.0
H499 H 0.16726 0.92045 0.13002 0.0
C500 C 0.10788 0.0066 0.10686 0.0
C501 C 0.12878 0.002 0.096 0.0
C502 C 0.09639 0.98074 0.11785 0.0
C503 C 0.10574 0.94996 0.11824 0.0
C504 C 0.12844 0.94675 0.10782 0.0
H505 H 0.96264 0.71168 0.14835 0.0
H506 H 0.99912 0.77174 0.13486 0.0
C507 C 0.1401 0.97267 0.09687 0.0
C508 C 0.08743 0.918 0.12838 0.0
H509 H 0.10849 0.86539 0.15182 0.0
C510 C 0.04524 0.89548 0.12845 0.0
C511 C 0.11061 0.90785 0.13724 0.0
C512 C 0.15606 0.93236 0.13827 0.0
C513 C 0.02555 0.86218 0.13671 0.0
C514 C 0.04862 0.85051 0.14491 0.0
C515 C 0.09086 0.87398 0.14532 0.0
C516 C 0.02919 0.8138 0.15302 0.0
C517 C 0.98016 0.83976 0.13657 0.0
C518 C 0.0352 0.81737 0.16765 0.0
C519 C 0.01471 0.78305 0.17535 0.0
C520 C 0.98827 0.74453 0.16853 0.0
C521 C 0.98316 0.74091 0.15385 0.0
C522 C 0.00368 0.7752 0.14616 0.0
H523 H 0.96811 0.85889 0.13297 0.0
H524 H 0.96714 0.81221 0.12926 0.0
H525 H 0.96982 0.82994 0.14712 0.0
H526 H 0.0548 0.84689 0.17312 0.0
H527 H 0.01882 0.78673 0.18666 0.0
H528 H 0.09127 0.07471 0.42426 0.0
H529 H 0.13032 0.07125 0.44424 0.0
H530 H 0.24062 0.15934 0.42689 0.0
H531 H 0.20174 0.16159 0.40659 0.0
H532 H 0.24434 0.09622 0.43317 0.0
H533 H 0.19032 0.14168 0.47871 0.0
H534 H 0.14916 0.10068 0.46816 0.0
H535 H 0.17936 0.14943 0.46101 0.0
C536 C 0.12381 0.09397 0.42485 0.0
C537 C 0.14348 0.11824 0.41383 0.0
C538 C 0.14613 0.09219 0.43634 0.0
C539 C 0.18846 0.1154 0.43717 0.0
C540 C 0.20801 0.14116 0.42648 0.0
H541 H 0.3331 0.11313 0.50948 0.0
H542 H 0.30186 0.13466 0.49171 0.0
C543 C 0.18576 0.14243 0.41489 0.0
C544 C 0.21235 0.1094 0.4483 0.0
H545 H 0.22322 0.10411 0.48353 0.0
C546 C 0.24007 0.09853 0.44419 0.0
C547 C 0.20725 0.11287 0.46271 0.0
C548 C 0.18021 0.12724 0.46791 0.0
C549 C 0.26181 0.08974 0.45402 0.0
C550 C 0.25471 0.09055 0.46833 0.0
C551 C 0.22814 0.10287 0.47253 0.0
C552 C 0.27385 0.07774 0.47904 0.0
C553 C 0.29229 0.07986 0.44894 0.0
C554 C 0.26808 0.0385 0.47787 0.0
C555 C 0.28621 0.02636 0.48788 0.0
C556 C 0.30996 0.05304 0.49938 0.0
C557 C 0.31517 0.09209 0.50067 0.0
C558 C 0.29726 0.10434 0.49057 0.0
H559 H 0.30335 0.09318 0.43881 0.0
H560 H 0.31857 0.09132 0.45667 0.0
H561 H 0.27789 0.04633 0.44729 0.0
H562 H 0.2493 0.01711 0.46924 0.0
H563 H 0.28146 0.996 0.48671 0.0
H564 H 0.11521 0.07886 0.77582 0.0
H565 H 0.16024 0.1468 0.78666 0.0
H566 H 0.13293 0.199 0.75192 0.0
H567 H 0.08724 0.13018 0.74085 0.0
H568 H 0.21535 0.2305 0.75788 0.0
H569 H 0.14581 0.23334 0.80642 0.0
H570 H 0.14491 0.18635 0.8041 0.0
H571 H 0.11718 0.19825 0.79154 0.0
C572 C 0.1181 0.10467 0.77057 0.0
C573 C 0.09787 0.09924 0.75746 0.0
C574 C 0.14356 0.14353 0.77686 0.0
C575 C 0.14939 0.17793 0.77022 0.0
C576 C 0.12836 0.17275 0.75729 0.0
H577 H 0.39061 0.41573 0.80962 0.0
H578 H 0.31641 0.37375 0.79174 0.0
C579 C 0.10232 0.13353 0.751 0.0
C580 C 0.18154 0.21857 0.77617 0.0
H581 H 0.22025 0.26944 0.80811 0.0
C582 C 0.21597 0.24028 0.76868 0.0
C583 C 0.18221 0.23142 0.79023 0.0
C584 C 0.14529 0.21128 0.79846 0.0
C585 C 0.25244 0.27135 0.77543 0.0
C586 C 0.25406 0.28056 0.78989 0.0
C587 C 0.21878 0.26192 0.797 0.0
C588 C 0.29257 0.30215 0.7983 0.0
C589 C 0.28991 0.29117 0.76747 0.0
C590 C 0.30644 0.27133 0.80801 0.0
C591 C 0.35259 0.29437 0.81887 0.0
C592 C 0.37891 0.35071 0.82143 0.0
C593 C 0.37222 0.38283 0.80873 0.0
C594 C 0.32521 0.35663 0.79815 0.0
H595 H 0.2832 0.2822 0.75609 0.0
H596 H 0.30503 0.3248 0.769 0.0
H597 H 0.31134 0.28238 0.7716 0.0
H598 H 0.28661 0.2386 0.80736 0.0
H599 H 0.35932 0.27648 0.82569 0.0
H600 H 0.9089 0.98559 0.70305 0.0
H601 H 0.86342 0.99344 0.68693 0.0
H602 H 0.95709 0.11722 0.68155 0.0
H603 H 0.0033 0.10937 0.69751 0.0
H604 H 0.83643 0.04756 0.68816 0.0
H605 H 0.92369 0.06819 0.64139 0.0
H606 H 0.93376 0.05054 0.65736 0.0
H607 H 0.95067 0.10351 0.6562 0.0
C608 C 0.91993 0.01454 0.69847 0.0
C609 C 0.95986 0.04675 0.70148 0.0
C610 C 0.89383 0.01899 0.68927 0.0
C611 C 0.90704 0.0557 0.68288 0.0
C612 C 0.94655 0.08835 0.68614 0.0
H613 H 0.76334 0.09261 0.60835 0.0
H614 H 0.82519 0.1106 0.6303 0.0
C615 C 0.97282 0.08386 0.69531 0.0
C616 C 0.87918 0.05903 0.67273 0.0
H617 H 0.86286 0.0672 0.63804 0.0
C618 C 0.84233 0.05215 0.67722 0.0
C619 C 0.88717 0.06557 0.65849 0.0
C620 C 0.9258 0.07209 0.65299 0.0
C621 C 0.81266 0.0501 0.66776 0.0
C622 C 0.81991 0.05458 0.65345 0.0
C623 C 0.85749 0.06373 0.64905 0.0
C624 C 0.78768 0.04566 0.64272 0.0
C625 C 0.77387 0.04321 0.6732 0.0
C626 C 0.74272 0.99563 0.64164 0.0
C627 C 0.70363 0.98099 0.62799 0.0
C628 C 0.7097 0.02329 0.61746 0.0
C629 C 0.75954 0.07021 0.61563 0.0
C630 C 0.79687 0.08186 0.62972 0.0
H631 H 0.77786 0.05287 0.68451 0.0
H632 H 0.76252 0.06018 0.66738 0.0
H633 H 0.75072 0.01028 0.67192 0.0
H634 H 0.7395 0.97387 0.6491 0.0
H635 H 0.67527 0.95241 0.62792 0.0
H636 H 0.05816 0.95905 0.02053 0.0
H637 H 0.99961 0.91491 0.00466 0.0
H638 H 0.9299 0.95564 0.02609 0.0
H639 H 0.9889 0.00036 0.04226 0.0
H640 H 0.89097 0.86851 0.02075 0.0
H641 H 0.95058 0.95018 0.97312 0.0
H642 H 0.98652 0.94163 0.98233 0.0
H643 H 0.97082 0.97364 0.99053 0.0
C644 C 0.03054 0.95893 0.0219 0.0
C645 C 0.02831 0.98341 0.03265 0.0
C646 C 0.99712 0.93379 0.01274 0.0
C647 C 0.9607 0.93256 0.01406 0.0
C648 C 0.95795 0.95653 0.02485 0.0
H649 H 0.79635 0.78049 0.94306 0.0
H650 H 0.8252 0.83592 0.96145 0.0
C651 C 0.99165 0.98204 0.03404 0.0
C652 C 0.92562 0.9048 0.00433 0.0
H653 H 0.9011 0.87817 0.9695 0.0
C654 C 0.89253 0.87099 0.00954 0.0
C655 C 0.92721 0.90861 0.98974 0.0
C656 C 0.96051 0.94574 0.9836 0.0
C657 C 0.8628 0.83906 0.00045 0.0
C658 C 0.86696 0.84078 0.98586 0.0
C659 C 0.8981 0.87637 0.98068 0.0
C660 C 0.84277 0.80475 0.97587 0.0
C661 C 0.82794 0.80338 0.00662 0.0
C662 C 0.84238 0.7685 0.97793 0.0
C663 C 0.82558 0.73675 0.96751 0.0
C664 C 0.80947 0.74088 0.95472 0.0
C665 C 0.80857 0.77653 0.95283 0.0
C666 C 0.82499 0.80815 0.96333 0.0
H667 H 0.82015 0.81326 0.01642 0.0
H668 H 0.80078 0.78807 0.99918 0.0
H669 H 0.83667 0.78097 0.00933 0.0
H670 H 0.85695 0.7655 0.9873 0.0
H671 H 0.82679 0.70963 0.9692 0.0
H672 H 0.05749 0.01322 0.33819 0.0
H673 H 0.0335 0.94627 0.32662 0.0
H674 H 0.96118 0.88929 0.36116 0.0
H675 H 0.98393 0.95656 0.37255 0.0
H676 H 0.04699 0.8906 0.33547 0.0
H677 H 0.88181 0.82387 0.32893 0.0
H678 H 0.91633 0.87722 0.33375 0.0
H679 H 0.90132 0.84032 0.34676 0.0
C680 C 0.03594 0.98643 0.34322 0.0
C681 C 0.02256 0.99007 0.35627 0.0
C682 C 0.02228 0.94817 0.33659 0.0
C683 C 0.99528 0.91267 0.34294 0.0
C684 C 0.98123 0.91619 0.35588 0.0
H685 H 0.97328 0.67857 0.32616 0.0
H686 H 0.99086 0.74639 0.3354 0.0
C687 C 0.99439 0.95463 0.36242 0.0
C688 C 0.98453 0.87231 0.33645 0.0
H689 H 0.90545 0.77799 0.32536 0.0
C690 C 0.016 0.8661 0.33317 0.0
C691 C 0.94414 0.84045 0.33328 0.0
C692 C 0.90898 0.84587 0.33573 0.0
C693 C 0.00828 0.82889 0.32699 0.0
C694 C 0.96792 0.79646 0.3244 0.0
C695 C 0.93639 0.80277 0.32747 0.0
C696 C 0.95779 0.75563 0.31866 0.0
C697 C 0.04349 0.82502 0.32307 0.0
C698 C 0.93245 0.73779 0.30638 0.0
C699 C 0.92201 0.69884 0.30117 0.0
C700 C 0.9371 0.67722 0.30809 0.0
C701 C 0.96214 0.69502 0.32044 0.0
C702 C 0.97227 0.73378 0.3257 0.0
H703 H 0.0705 0.85525 0.32163 0.0
H704 H 0.05151 0.81113 0.33159 0.0
H705 H 0.03601 0.80542 0.31328 0.0
H706 H 0.9206 0.75395 0.30086 0.0
H707 H 0.90183 0.68545 0.29184 0.0
H708 H 0.11928 0.9448 0.71264 0.0
H709 H 0.15685 0.94592 0.69284 0.0
H710 H 0.09781 0.99391 0.66783 0.0
H711 H 0.06021 0.99359 0.68783 0.0
H712 H 0.1332 0.90996 0.66566 0.0
H713 H 0.21828 0.07949 0.66662 0.0
H714 H 0.18813 0.05227 0.68068 0.0
H715 H 0.16421 0.05365 0.66444 0.0
C716 C 0.11392 0.95534 0.70292 0.0
C717 C 0.08707 0.96957 0.70188 0.0
C718 C 0.13536 0.9558 0.69158 0.0
C719 C 0.13053 0.97051 0.67894 0.0
C720 C 0.10242 0.98304 0.67758 0.0
H721 H 0.28031 0.95454 0.61496 0.0
H722 H 0.22093 0.95075 0.62453 0.0
C723 C 0.08083 0.98262 0.68899 0.0
C724 C 0.15697 0.97451 0.66765 0.0
H725 H 0.24015 0.04525 0.65222 0.0
C726 C 0.15615 0.93943 0.66247 0.0
C727 C 0.18694 0.0131 0.66362 0.0
C728 C 0.18985 0.05191 0.66915 0.0
C729 C 0.18597 0.94201 0.65405 0.0
C730 C 0.21693 0.98076 0.65048 0.0
C731 C 0.21631 0.01563 0.65497 0.0
C732 C 0.25295 0.98623 0.64377 0.0
C733 C 0.1856 0.90352 0.64986 0.0
C734 C 0.29082 0.00867 0.65118 0.0
C735 C 0.32475 0.01147 0.64565 0.0
C736 C 0.32159 0.99212 0.63255 0.0
C737 C 0.28375 0.97028 0.62499 0.0
C738 C 0.24977 0.96777 0.6305 0.0
H739 H 0.16396 0.87729 0.65564 0.0
H740 H 0.17663 0.89563 0.63853 0.0
H741 H 0.21605 0.90791 0.65178 0.0
H742 H 0.29391 0.02297 0.66147 0.0
H743 H 0.35337 0.0279 0.65178 0.0
H744 H 0.17223 0.17815 0.04115 0.0
H745 H 0.21123 0.23414 0.02651 0.0
H746 H 0.30524 0.20555 0.02727 0.0
H747 H 0.26503 0.1477 0.04131 0.0
H748 H 0.28011 0.30093 0.02889 0.0
H749 H 0.28483 0.20218 0.98625 0.0
H750 H 0.25517 0.18166 0.00104 0.0
H751 H 0.30859 0.20128 0.00256 0.0
C752 C 0.20137 0.18394 0.03831 0.0
C753 C 0.21539 0.15825 0.04226 0.0
C754 C 0.22368 0.21601 0.02992 0.0
C755 C 0.26079 0.22355 0.02546 0.0
C756 C 0.27608 0.19952 0.03015 0.0
H757 H 0.39745 0.44697 0.98095 0.0
H758 H 0.3794 0.39662 0.99838 0.0
C759 C 0.25329 0.16674 0.0383 0.0
C760 C 0.28239 0.25584 0.01561 0.0
H761 H 0.31921 0.27261 0.98324 0.0
C762 C 0.28878 0.29476 0.01892 0.0
C763 C 0.29328 0.24768 0.00251 0.0
C764 C 0.28479 0.20586 0.99779 0.0
C765 C 0.30442 0.32527 0.00938 0.0
C766 C 0.31592 0.31733 0.99637 0.0
C767 C 0.31073 0.27882 0.99324 0.0
C768 C 0.33016 0.34722 0.98541 0.0
C769 C 0.30629 0.3648 0.01308 0.0
C770 C 0.31022 0.33571 0.97199 0.0
C771 C 0.32141 0.36406 0.96183 0.0
C772 C 0.35244 0.40473 0.9649 0.0
C773 C 0.37328 0.41598 0.97821 0.0
C774 C 0.36266 0.38729 0.98827 0.0
H775 H 0.28609 0.36152 0.02146 0.0
H776 H 0.3375 0.38821 0.01698 0.0
H777 H 0.29765 0.37596 0.00383 0.0
H778 H 0.28518 0.30496 0.96947 0.0
H779 H 0.30495 0.35452 0.95167 0.0
H780 H 0.01404 0.18342 0.37209 0.0
H781 H 0.00789 0.2383 0.36224 0.0
H782 H 0.10926 0.26911 0.33773 0.0
H783 H 0.11548 0.21466 0.34732 0.0
H784 H 0.06719 0.32137 0.36427 0.0
H785 H 0.02546 0.26307 0.30885 0.0
H786 H 0.02075 0.23087 0.32282 0.0
H787 H 0.0687 0.26205 0.31565 0.0
C788 C 0.03477 0.20168 0.36451 0.0
C789 C 0.06523 0.19462 0.36049 0.0
C790 C 0.03116 0.23293 0.35889 0.0
C791 C 0.05762 0.25717 0.34906 0.0
C792 C 0.08789 0.25008 0.34503 0.0
H793 H 0.15543 0.48008 0.31153 0.0
H794 H 0.13235 0.41174 0.31921 0.0
C795 C 0.09161 0.21912 0.35064 0.0
C796 C 0.05604 0.29196 0.34366 0.0
H797 H 0.05601 0.33576 0.31333 0.0
C798 C 0.06384 0.32426 0.35316 0.0
C799 C 0.05151 0.29547 0.32916 0.0
C800 C 0.04072 0.26081 0.31855 0.0
C801 C 0.07009 0.36116 0.34847 0.0
C802 C 0.06793 0.36548 0.33393 0.0
C803 C 0.05794 0.3324 0.32447 0.0
C804 C 0.07943 0.40515 0.32835 0.0
C805 C 0.08127 0.39603 0.35906 0.0
C806 C 0.05683 0.42357 0.33072 0.0
C807 C 0.06995 0.46254 0.32633 0.0
C808 C 0.10561 0.48344 0.31938 0.0
C809 C 0.1276 0.46442 0.31671 0.0
C810 C 0.11448 0.4255 0.3211 0.0
H811 H 0.08806 0.38976 0.36973 0.0
H812 H 0.10794 0.42444 0.35599 0.0
H813 H 0.05581 0.40137 0.35947 0.0
H814 H 0.02949 0.40813 0.33618 0.0
H815 H 0.05264 0.47668 0.3286 0.0
loop_
_geom_bond_atom_site_label_1
_geom_bond_atom_site_label_2
_geom_bond_distance
_geom_bond_site_symmetry_2
_ccdc_geom_bond_type
Zn0 O3 2.024 1_545 S
Zn0 O5 2.049 . S
Zn0 O10 2.067 . S
Zn1 O2 1.962 . S
Zn1 O4 1.986 . S
Zn1 O6 1.996 . S
Zn1 O9 1.943 . S
O2 Zn1 1.962 . S
O2 C7 1.254 . S
O3 Zn0 2.024 1_565 S
O3 C7 1.260 1_565 S
O4 Zn1 1.986 . S
O4 C11 1.262 . S
O5 Zn0 2.049 . S
O5 C13 1.260 . S
O6 Zn1 1.996 . S
O6 C13 1.257 . S
C7 O2 1.254 . S
C7 O3 1.260 1_545 S
C8 O9 1.249 . S
C8 O10 1.270 . S
O9 Zn1 1.943 . S
O9 C8 1.249 . S
O10 Zn0 2.067 . S
O10 C8 1.270 . S
C11 O4 1.262 . S
C11 O12 1.232 . S
O12 C11 1.232 . S
C13 O5 1.260 . S
C13 O6 1.257 . S
Zn14 O17 2.031 . S
Zn14 O19 2.049 . S
Zn14 O24 2.067 . S
Zn15 O16 1.962 . S
Zn15 O18 1.986 1_455 S
Zn15 O20 1.996 . S
Zn15 O23 1.943 . S
O16 Zn15 1.962 . S
O16 C21 1.254 . S
O17 Zn14 2.031 . S
O17 C21 1.269 . S
O18 Zn15 1.986 1_655 S
O18 C25 1.262 . S
O19 Zn14 2.049 . S
O19 C27 1.260 . S
O20 Zn15 1.996 . S
O20 C27 1.257 . S
C21 O16 1.254 . S
C21 O17 1.269 . S
C22 O23 1.249 . S
C22 O24 1.270 . S
O23 Zn15 1.943 . S
O23 C22 1.249 . S
O24 Zn14 2.067 . S
O24 C22 1.270 . S
C25 O18 1.262 . S
C25 O26 1.232 . S
O26 C25 1.232 . S
C27 O19 1.260 . S
C27 O20 1.257 . S
Zn28 O31 2.031 1_565 S
Zn28 O33 2.049 . S
Zn28 O38 2.067 1_565 S
Zn29 O30 1.968 . S
Zn29 O32 1.986 1_455 S
Zn29 O34 1.996 1_445 S
Zn29 O37 1.943 . S
O30 Zn29 1.968 . S
O30 C35 1.250 . S
O31 Zn28 2.031 1_545 S
O31 C35 1.269 . S
O32 Zn29 1.986 1_655 S
O32 C39 1.262 . S
O33 Zn28 2.049 . S
O33 C41 1.260 1_455 S
O34 Zn29 1.996 1_665 S
O34 C41 1.257 . S
C35 O30 1.250 . S
C35 O31 1.269 . S
C36 O37 1.249 . S
C36 O38 1.270 . S
O37 Zn29 1.943 . S
O37 C36 1.249 . S
O38 Zn28 2.067 1_545 S
O38 C36 1.270 . S
C39 O32 1.262 . S
C39 O40 1.232 1_655 S
O40 C39 1.232 1_455 S
C41 O33 1.260 1_655 S
C41 O34 1.257 . S
C42 C43 1.560 1_655 S
C42 H103 0.959 . S
C42 H104 0.959 . S
C42 H105 0.960 . S
C43 C42 1.560 1_455 S
C43 O98 1.426 1_455 S
C43 H102 0.980 . S
C44 C45 1.407 . S
C44 C49 1.418 1_455 S
C44 O98 1.334 1_455 S
C45 C44 1.407 . S
C45 C46 1.360 . S
C45 H106 0.929 . S
C46 C45 1.360 . S
C46 C47 1.401 . S
C46 C50 1.527 . S
C47 C46 1.401 . S
C47 C48 1.405 . S
C47 C80 1.587 . S
C48 C47 1.405 . S
C48 C49 1.332 1_455 S
C48 C51 1.496 1_455 S
C49 C44 1.418 1_655 S
C49 C48 1.332 1_655 S
C49 H107 0.929 . S
C50 C46 1.527 . S
C50 H108 0.959 . S
C50 H109 0.961 . S
C50 H110 0.961 . S
C51 C48 1.496 1_655 S
C51 H111 0.960 . S
C51 H112 0.960 . S
C51 H113 0.961 . S
C52 C53 1.517 . S
C52 H115 0.961 . S
C52 H116 0.960 . S
C52 H117 0.959 . S
C53 C52 1.517 . S
C53 O101 1.468 . S
C53 H114 0.980 . S
C54 C55 1.349 . S
C54 C59 1.367 . S
C54 O101 1.408 . S
C55 C54 1.349 . S
C55 C56 1.407 . S
C55 H118 0.930 . S
C56 C55 1.407 . S
C56 C57 1.449 . S
C56 C60 1.535 . S
C57 C56 1.449 . S
C57 C58 1.384 . S
C57 C82 1.553 . S
C58 C57 1.384 . S
C58 C59 1.364 . S
C58 C61 1.450 . S
C59 C54 1.367 . S
C59 C58 1.364 . S
C59 H119 0.931 . S
C60 C56 1.535 . S
C60 H120 0.959 . S
C60 H121 0.961 1_455 S
C60 H122 0.959 1_455 S
C61 C58 1.450 . S
C61 H123 0.960 . S
C61 H124 0.960 . S
C61 H125 0.960 . S
C62 C63 1.309 . S
C62 C67 1.304 . S
C62 O100 1.435 . S
C63 C62 1.309 . S
C63 C64 1.476 . S
C63 H127 0.930 . S
C64 C63 1.476 . S
C64 C65 1.400 . S
C64 C68 1.552 1_455 S
C65 C64 1.400 . S
C65 C66 1.373 . S
C65 C87 1.432 . S
C66 C65 1.373 . S
C66 C67 1.339 . S
C66 C69 1.530 . S
C67 C62 1.304 . S
C67 C66 1.339 . S
C67 H128 0.930 . S
C68 C64 1.552 1_655 S
C68 H129 0.965 1_655 S
C68 H130 0.961 . S
C68 H131 0.967 . S
C69 C66 1.530 . S
C69 H132 0.961 . S
C69 H133 0.960 . S
C69 H134 0.960 . S
C70 C71 1.530 . S
C70 H136 0.961 . S
C70 H137 0.964 1_455 S
C70 H138 0.959 . S
C71 C70 1.530 . S
C71 O99 1.412 . S
C71 H135 0.980 . S
C72 C73 1.288 1_455 S
C72 C77 1.377 . S
C72 O99 1.393 . S
C73 C72 1.288 1_655 S
C73 C74 1.369 1_655 S
C73 H139 0.931 . S
C74 C73 1.369 1_455 S
C74 C75 1.398 . S
C74 C78 1.527 1_455 S
C75 C74 1.398 . S
C75 C76 1.380 . S
C75 C89 1.497 . S
C76 C75 1.380 . S
C76 C77 1.383 . S
C76 C79 1.603 . S
C77 C72 1.377 . S
C77 C76 1.383 . S
C77 H140 0.929 . S
C78 C74 1.527 1_655 S
C78 H141 0.961 . S
C78 H142 0.959 . S
C78 H143 0.959 . S
C79 C76 1.603 . S
C79 H144 0.960 . S
C79 H145 0.962 . S
C79 H146 0.961 . S
C80 C47 1.587 . S
C80 C81 1.360 . S
C80 C93 1.412 . S
C81 C80 1.360 . S
C81 C82 1.365 . S
C81 H147 0.929 . S
C82 C57 1.553 . S
C82 C81 1.365 . S
C82 C83 1.404 . S
C83 C82 1.404 . S
C83 C84 1.395 . S
C83 C94 1.451 . S
C84 C83 1.395 . S
C84 C85 1.322 . S
C84 H148 0.930 . S
C85 C84 1.322 . S
C85 C86 1.459 . S
C85 H149 0.929 . S
C86 C85 1.459 . S
C86 C87 1.445 . S
C86 C95 1.395 . S
C87 C65 1.432 . S
C87 C86 1.445 . S
C87 C88 1.370 . S
C88 C87 1.370 . S
C88 C89 1.438 . S
C88 H150 0.930 . S
C89 C75 1.497 . S
C89 C88 1.438 . S
C89 C90 1.360 . S
C90 C89 1.360 . S
C90 C91 1.401 . S
C90 C95 1.446 . S
C91 C90 1.401 . S
C91 C92 1.347 . S
C91 H151 0.929 . S
C92 C91 1.347 . S
C92 C93 1.455 . S
C92 H152 0.930 . S
C93 C80 1.412 . S
C93 C92 1.455 . S
C93 C94 1.331 . S
C94 C83 1.451 . S
C94 C93 1.331 . S
C94 C95 1.497 . S
C95 C86 1.395 . S
C95 C90 1.446 . S
C95 C94 1.497 . S
C96 C97 1.582 . S
C96 H153 0.962 . S
C96 H154 0.959 . S
C96 H155 0.958 . S
C97 C96 1.582 . S
C97 O100 1.458 . S
C97 H126 0.980 . S
O98 C43 1.426 1_655 S
O98 C44 1.334 1_655 S
O99 C71 1.412 . S
O99 C72 1.393 . S
O100 C62 1.435 . S
O100 C97 1.458 . S
O101 C53 1.468 . S
O101 C54 1.408 . S
H102 C43 0.980 . S
H103 C42 0.959 . S
H104 C42 0.959 . S
H105 C42 0.960 . S
H106 C45 0.929 . S
H107 C49 0.929 . S
H108 C50 0.959 . S
H109 C50 0.961 . S
H110 C50 0.961 . S
H111 C51 0.960 . S
H112 C51 0.960 . S
H113 C51 0.961 . S
H114 C53 0.980 . S
H115 C52 0.961 . S
H116 C52 0.960 . S
H117 C52 0.959 . S
H118 C55 0.930 . S
H119 C59 0.931 . S
H120 C60 0.959 . S
H121 C60 0.961 1_655 S
H122 C60 0.959 1_655 S
H123 C61 0.960 . S
H124 C61 0.960 . S
H125 C61 0.960 . S
H126 C97 0.980 . S
H127 C63 0.930 . S
H128 C67 0.930 . S
H129 C68 0.965 1_455 S
H130 C68 0.961 . S
H131 C68 0.967 . S
H132 C69 0.961 . S
H133 C69 0.960 . S
H134 C69 0.960 . S
H135 C71 0.980 . S
H136 C70 0.961 . S
H137 C70 0.964 1_655 S
H138 C70 0.959 . S
H139 C73 0.931 . S
H140 C77 0.929 . S
H141 C78 0.961 . S
H142 C78 0.959 . S
H143 C78 0.959 . S
H144 C79 0.960 . S
H145 C79 0.962 . S
H146 C79 0.961 . S
H147 C81 0.929 . S
H148 C84 0.930 . S
H149 C85 0.929 . S
H150 C88 0.930 . S
H151 C91 0.929 . S
H152 C92 0.930 . S
H153 C96 0.962 . S
H154 C96 0.959 . S
H155 C96 0.958 . S
C156 C157 1.560 1_565 S
C156 H217 0.959 . S
C156 H218 0.959 . S
C156 H219 0.960 . S
C157 C156 1.560 1_545 S
C157 O212 1.412 1_545 S
C157 H216 0.980 . S
C158 C159 1.407 . S
C158 C163 1.418 1_545 S
C158 O212 1.334 1_545 S
C159 C158 1.407 . S
C159 C160 1.360 . S
C159 H220 0.929 . S
C160 C159 1.360 . S
C160 C161 1.401 . S
C160 C164 1.527 . S
C161 C160 1.401 . S
C161 C162 1.405 . S
C161 C194 1.587 . S
C162 C161 1.405 . S
C162 C163 1.332 1_545 S
C162 C165 1.496 1_545 S
C163 C158 1.418 1_565 S
C163 C162 1.332 1_565 S
C163 H221 0.929 . S
C164 C160 1.527 . S
C164 H222 0.959 . S
C164 H223 0.961 . S
C164 H224 0.961 . S
C165 C162 1.496 1_565 S
C165 H225 0.960 . S
C165 H226 0.960 . S
C165 H227 0.961 . S
C166 C167 1.517 . S
C166 H229 0.961 . S
C166 H230 0.960 . S
C166 H231 0.959 . S
C167 C166 1.517 . S
C167 O215 1.468 . S
C167 H228 0.980 . S
C168 C169 1.349 . S
C168 C173 1.367 . S
C168 O215 1.408 . S
C169 C168 1.349 . S
C169 C170 1.407 . S
C169 H232 0.930 . S
C170 C169 1.407 . S
C170 C171 1.449 . S
C170 C174 1.535 . S
C171 C170 1.449 . S
C171 C172 1.384 . S
C171 C196 1.553 . S
C172 C171 1.384 . S
C172 C173 1.364 . S
C172 C175 1.450 . S
C173 C168 1.367 . S
C173 C172 1.364 . S
C173 H233 0.931 . S
C174 C170 1.535 . S
C174 H234 0.959 . S
C174 H235 0.961 1_545 S
C174 H236 0.959 1_545 S
C175 C172 1.450 . S
C175 H237 0.960 . S
C175 H238 0.960 . S
C175 H239 0.960 . S
C176 C177 1.309 . S
C176 C181 1.304 . S
C176 O214 1.435 . S
C177 C176 1.309 . S
C177 C178 1.476 . S
C177 H241 0.930 . S
C178 C177 1.476 . S
C178 C179 1.400 . S
C178 C182 1.567 . S
C179 C178 1.400 . S
C179 C180 1.373 . S
C179 C201 1.432 . S
C180 C179 1.373 . S
C180 C181 1.339 . S
C180 C183 1.530 . S
C181 C176 1.304 . S
C181 C180 1.339 . S
C181 H242 0.930 . S
C182 C178 1.567 . S
C182 H243 0.961 . S
C182 H244 0.960 1_545 S
C182 H245 0.958 1_545 S
C183 C180 1.530 . S
C183 H246 0.961 . S
C183 H247 0.960 . S
C183 H248 0.960 . S
C184 C185 1.530 . S
C184 H250 0.961 . S
C184 H251 0.961 . S
C184 H252 0.959 . S
C185 C184 1.530 . S
C185 O213 1.412 . S
C185 H249 0.980 . S
C186 C187 1.288 . S
C186 C191 1.377 . S
C186 O213 1.393 . S
C187 C186 1.288 . S
C187 C188 1.369 . S
C187 H253 0.932 1_545 S
C188 C187 1.369 . S
C188 C189 1.398 . S
C188 C192 1.527 1_545 S
C189 C188 1.398 . S
C189 C190 1.380 . S
C189 C203 1.497 . S
C190 C189 1.380 . S
C190 C191 1.383 . S
C190 C193 1.603 . S
C191 C186 1.377 . S
C191 C190 1.383 . S
C191 H254 0.929 . S
C192 C188 1.527 1_565 S
C192 H255 0.961 . S
C192 H256 0.959 . S
C192 H257 0.959 . S
C193 C190 1.603 . S
C193 H258 0.960 . S
C193 H259 0.962 . S
C193 H260 0.961 . S
C194 C161 1.587 . S
C194 C195 1.360 . S
C194 C207 1.412 . S
C195 C194 1.360 . S
C195 C196 1.365 . S
C195 H261 0.929 . S
C196 C171 1.553 . S
C196 C195 1.365 . S
C196 C197 1.404 . S
C197 C196 1.404 . S
C197 C198 1.395 . S
C197 C208 1.451 . S
C198 C197 1.395 . S
C198 C199 1.322 . S
C198 H262 0.930 . S
C199 C198 1.322 . S
C199 C200 1.459 . S
C199 H263 0.929 . S
C200 C199 1.459 . S
C200 C201 1.445 . S
C200 C209 1.395 . S
C201 C179 1.432 . S
C201 C200 1.445 . S
C201 C202 1.370 . S
C202 C201 1.370 . S
C202 C203 1.438 . S
C202 H264 0.930 . S
C203 C189 1.497 . S
C203 C202 1.438 . S
C203 C204 1.360 . S
C204 C203 1.360 . S
C204 C205 1.401 . S
C204 C209 1.446 . S
C205 C204 1.401 . S
C205 C206 1.347 . S
C205 H265 0.929 . S
C206 C205 1.347 . S
C206 C207 1.455 . S
C206 H266 0.930 . S
C207 C194 1.412 . S
C207 C206 1.455 . S
C207 C208 1.331 . S
C208 C197 1.451 . S
C208 C207 1.331 . S
C208 C209 1.497 . S
C209 C200 1.395 . S
C209 C204 1.446 . S
C209 C208 1.497 . S
C210 C211 1.582 . S
C210 H267 0.962 . S
C210 H268 0.959 . S
C210 H269 0.958 . S
C211 C210 1.582 . S
C211 O214 1.458 . S
C211 H240 0.980 . S
O212 C157 1.412 1_565 S
O212 C158 1.334 1_565 S
O213 C185 1.412 . S
O213 C186 1.393 . S
O214 C176 1.435 . S
O214 C211 1.458 . S
O215 C167 1.468 . S
O215 C168 1.408 . S
H216 C157 0.980 . S
H217 C156 0.959 . S
H218 C156 0.959 . S
H219 C156 0.960 . S
H220 C159 0.929 . S
H221 C163 0.929 . S
H222 C164 0.959 . S
H223 C164 0.961 . S
H224 C164 0.961 . S
H225 C165 0.960 . S
H226 C165 0.960 . S
H227 C165 0.961 . S
H228 C167 0.980 . S
H229 C166 0.961 . S
H230 C166 0.960 . S
H231 C166 0.959 . S
H232 C169 0.930 . S
H233 C173 0.931 . S
H234 C174 0.959 . S
H235 C174 0.961 1_565 S
H236 C174 0.959 1_565 S
H237 C175 0.960 . S
H238 C175 0.960 . S
H239 C175 0.960 . S
H240 C211 0.980 . S
H241 C177 0.930 . S
H242 C181 0.930 . S
H243 C182 0.961 . S
H244 C182 0.960 1_565 S
H245 C182 0.958 1_565 S
H246 C183 0.961 . S
H247 C183 0.960 . S
H248 C183 0.960 . S
H249 C185 0.980 . S
H250 C184 0.961 . S
H251 C184 0.961 . S
H252 C184 0.959 . S
H253 C187 0.932 1_565 S
H254 C191 0.929 . S
H255 C192 0.961 . S
H256 C192 0.959 . S
H257 C192 0.959 . S
H258 C193 0.960 . S
H259 C193 0.962 . S
H260 C193 0.961 . S
H261 C195 0.929 . S
H262 C198 0.930 . S
H263 C199 0.929 . S
H264 C202 0.930 . S
H265 C205 0.929 . S
H266 C206 0.930 . S
H267 C210 0.962 . S
H268 C210 0.959 . S
H269 C210 0.958 . S
C270 C271 1.560 . S
C270 H331 0.959 . S
C270 H332 0.959 . S
C270 H333 0.960 . S
C271 C270 1.560 . S
C271 O326 1.426 . S
C271 H330 0.980 . S
C272 C273 1.407 . S
C272 C277 1.418 . S
C272 O326 1.334 . S
C273 C272 1.407 . S
C273 C274 1.360 . S
C273 H334 0.929 . S
C274 C273 1.360 . S
C274 C275 1.401 . S
C274 C278 1.527 . S
C275 C274 1.401 . S
C275 C276 1.405 . S
C275 C308 1.587 . S
C276 C275 1.405 . S
C276 C277 1.332 . S
C276 C279 1.496 . S
C277 C272 1.418 . S
C277 C276 1.332 . S
C277 H335 0.929 . S
C278 C274 1.527 . S
C278 H336 0.959 . S
C278 H337 0.961 . S
C278 H338 0.961 . S
C279 C276 1.496 . S
C279 H339 0.960 . S
C279 H340 0.960 . S
C279 H341 0.961 . S
C280 C281 1.517 . S
C280 H343 0.961 . S
C280 H344 0.960 . S
C280 H345 0.959 . S
C281 C280 1.517 . S
C281 O329 1.468 . S
C281 H342 0.980 . S
C282 C283 1.349 . S
C282 C287 1.367 . S
C282 O329 1.408 . S
C283 C282 1.349 . S
C283 C284 1.407 . S
C283 H346 0.930 . S
C284 C283 1.407 . S
C284 C285 1.449 . S
C284 C288 1.535 . S
C285 C284 1.449 . S
C285 C286 1.384 . S
C285 C310 1.553 . S
C286 C285 1.384 . S
C286 C287 1.364 . S
C286 C289 1.450 . S
C287 C282 1.367 . S
C287 C286 1.364 . S
C287 H347 0.931 . S
C288 C284 1.535 . S
C288 H348 0.959 . S
C288 H349 0.961 . S
C288 H350 0.959 . S
C289 C286 1.450 . S
C289 H351 0.960 . S
C289 H352 0.960 . S
C289 H353 0.960 . S
C290 C291 1.309 . S
C290 C295 1.304 . S
C290 O328 1.435 . S
C291 C290 1.309 . S
C291 C292 1.476 . S
C291 H355 0.930 . S
C292 C291 1.476 . S
C292 C293 1.400 . S
C292 C296 1.567 . S
C293 C292 1.400 . S
C293 C294 1.373 . S
C293 C315 1.432 . S
C294 C293 1.373 . S
C294 C295 1.339 . S
C294 C297 1.530 . S
C295 C290 1.304 . S
C295 C294 1.339 . S
C295 H356 0.930 . S
C296 C292 1.567 . S
C296 H357 0.961 . S
C296 H358 0.960 . S
C296 H359 0.958 . S
C297 C294 1.530 . S
C297 H360 0.961 . S
C297 H361 0.960 . S
C297 H362 0.960 . S
C298 C299 1.530 . S
C298 H364 0.961 . S
C298 H365 0.961 . S
C298 H366 0.959 . S
C299 C298 1.530 . S
C299 O327 1.412 . S
C299 H363 0.980 . S
C300 C301 1.288 . S
C300 C305 1.377 . S
C300 O327 1.393 . S
C301 C300 1.288 . S
C301 C302 1.369 . S
C301 H367 0.932 . S
C302 C301 1.369 . S
C302 C303 1.398 . S
C302 C306 1.527 . S
C303 C302 1.398 . S
C303 C304 1.380 . S
C303 C317 1.497 . S
C304 C303 1.380 . S
C304 C305 1.383 . S
C304 C307 1.603 . S
C305 C300 1.377 . S
C305 C304 1.383 . S
C305 H368 0.929 . S
C306 C302 1.527 . S
C306 H369 0.961 . S
C306 H370 0.959 . S
C306 H371 0.959 . S
C307 C304 1.603 . S
C307 H372 0.960 . S
C307 H373 0.962 . S
C307 H374 0.961 . S
C308 C275 1.587 . S
C308 C309 1.360 . S
C308 C321 1.412 . S
C309 C308 1.360 . S
C309 C310 1.365 . S
C309 H375 0.929 . S
C310 C285 1.553 . S
C310 C309 1.365 . S
C310 C311 1.404 . S
C311 C310 1.404 . S
C311 C312 1.395 . S
C311 C322 1.451 . S
C312 C311 1.395 . S
C312 C313 1.322 . S
C312 H376 0.930 . S
C313 C312 1.322 . S
C313 C314 1.459 . S
C313 H377 0.929 . S
C314 C313 1.459 . S
C314 C315 1.445 . S
C314 C323 1.395 . S
C315 C293 1.432 . S
C315 C314 1.445 . S
C315 C316 1.370 . S
C316 C315 1.370 . S
C316 C317 1.438 . S
C316 H378 0.930 . S
C317 C303 1.497 . S
C317 C316 1.438 . S
C317 C318 1.360 . S
C318 C317 1.360 . S
C318 C319 1.401 . S
C318 C323 1.446 . S
C319 C318 1.401 . S
C319 C320 1.347 . S
C319 H379 0.929 . S
C320 C319 1.347 . S
C320 C321 1.455 . S
C320 H380 0.930 . S
C321 C308 1.412 . S
C321 C320 1.455 . S
C321 C322 1.331 . S
C322 C311 1.451 . S
C322 C321 1.331 . S
C322 C323 1.497 . S
C323 C314 1.395 . S
C323 C318 1.446 . S
C323 C322 1.497 . S
C324 C325 1.582 . S
C324 H381 0.962 . S
C324 H382 0.959 . S
C324 H383 0.958 . S
C325 C324 1.582 . S
C325 O328 1.458 . S
C325 H354 0.980 . S
O326 C271 1.426 . S
O326 C272 1.334 . S
O327 C299 1.412 . S
O327 C300 1.393 . S
O328 C290 1.435 . S
O328 C325 1.458 . S
O329 C281 1.468 . S
O329 C282 1.408 . S
H330 C271 0.980 . S
H331 C270 0.959 . S
H332 C270 0.959 . S
H333 C270 0.960 . S
H334 C273 0.929 . S
H335 C277 0.929 . S
H336 C278 0.959 . S
H337 C278 0.961 . S
H338 C278 0.961 . S
H339 C279 0.960 . S
H340 C279 0.960 . S
H341 C279 0.961 . S
H342 C281 0.980 . S
H343 C280 0.961 . S
H344 C280 0.960 . S
H345 C280 0.959 . S
H346 C283 0.930 . S
H347 C287 0.931 . S
H348 C288 0.959 . S
H349 C288 0.961 . S
H350 C288 0.959 . S
H351 C289 0.960 . S
H352 C289 0.960 . S
H353 C289 0.960 . S
H354 C325 0.980 . S
H355 C291 0.930 . S
H356 C295 0.930 . S
H357 C296 0.961 . S
H358 C296 0.960 . S
H359 C296 0.958 . S
H360 C297 0.961 . S
H361 C297 0.960 . S
H362 C297 0.960 . S
H363 C299 0.980 . S
H364 C298 0.961 . S
H365 C298 0.961 . S
H366 C298 0.959 . S
H367 C301 0.932 . S
H368 C305 0.929 . S
H369 C306 0.961 . S
H370 C306 0.959 . S
H371 C306 0.959 . S
H372 C307 0.960 . S
H373 C307 0.962 . S
H374 C307 0.961 . S
H375 C309 0.929 . S
H376 C312 0.930 . S
H377 C313 0.929 . S
H378 C316 0.930 . S
H379 C319 0.929 . S
H380 C320 0.930 . S
H381 C324 0.962 . S
H382 C324 0.959 . S
H383 C324 0.958 . S
H384 C392 0.929 . S
H385 C394 0.930 . S
H386 C396 0.930 . S
H387 C399 0.929 . S
H388 C402 0.930 . S
H389 C404 0.960 . S
H390 C404 0.960 . S
H391 C404 0.960 . S
C392 H384 0.929 . S
C392 C393 1.377 . S
C392 C394 1.384 . S
C393 C392 1.377 . S
C393 C399 1.390 . S
C394 H385 0.930 . S
C394 C392 1.384 . S
C394 C395 1.372 . S
C395 C394 1.372 . S
C395 C396 1.400 . S
C395 C400 1.490 . S
C396 H386 0.930 . S
C396 C395 1.400 . S
C396 C399 1.386 . S
H397 C413 0.930 . S
H398 C414 0.931 . S
C399 H387 0.929 . S
C399 C393 1.390 . S
C399 C396 1.386 . S
C400 C395 1.490 . S
C400 C402 1.395 . S
C400 C403 1.403 . S
H401 C407 0.930 . S
C402 H388 0.930 . S
C402 C400 1.395 . S
C402 C405 1.403 . S
C403 C400 1.403 . S
C403 C404 1.524 . S
C403 C407 1.400 . S
C404 H389 0.960 . S
C404 H390 0.960 . S
C404 H391 0.960 . S
C404 C403 1.524 . S
C405 C402 1.403 . S
C405 C406 1.392 . S
C405 C409 1.495 1_455 S
C406 C405 1.392 . S
C406 C407 1.385 . S
C406 C408 1.478 . S
C407 H401 0.930 . S
C407 C403 1.400 . S
C407 C406 1.385 . S
C408 C406 1.478 . S
C408 C410 1.381 . S
C408 C414 1.383 . S
C409 C405 1.495 1_655 S
C409 H415 0.959 . S
C409 H416 0.961 . S
C409 H417 0.960 . S
C410 C408 1.381 . S
C410 C411 1.394 . S
C410 H418 0.930 . S
C411 C410 1.394 . S
C411 C412 1.383 . S
C411 H419 0.929 . S
C412 C411 1.383 . S
C412 C413 1.377 . S
C413 H397 0.930 . S
C413 C412 1.377 . S
C413 C414 1.379 . S
C414 H398 0.931 . S
C414 C408 1.383 . S
C414 C413 1.379 . S
H415 C409 0.959 . S
H416 C409 0.961 . S
H417 C409 0.960 . S
H418 C410 0.930 . S
H419 C411 0.929 . S
H420 C428 0.929 . S
H421 C430 0.930 . S
H422 C432 0.930 . S
H423 C435 0.929 . S
H424 C438 0.930 . S
H425 C440 0.960 1_565 S
H426 C440 0.960 1_565 S
H427 C440 0.960 . S
C428 H420 0.929 . S
C428 C429 1.377 . S
C428 C430 1.384 . S
C429 C428 1.377 . S
C429 C435 1.390 . S
C430 H421 0.930 . S
C430 C428 1.384 . S
C430 C431 1.372 . S
C431 C430 1.372 . S
C431 C432 1.400 . S
C431 C436 1.490 . S
C432 H422 0.930 . S
C432 C431 1.400 . S
C432 C435 1.386 . S
H433 C449 0.930 . S
H434 C450 0.931 . S
C435 H423 0.929 . S
C435 C429 1.390 . S
C435 C432 1.386 . S
C436 C431 1.490 . S
C436 C438 1.395 . S
C436 C439 1.403 . S
H437 C443 0.930 . S
C438 H424 0.930 . S
C438 C436 1.395 . S
C438 C441 1.403 . S
C439 C436 1.403 . S
C439 C440 1.524 . S
C439 C443 1.400 . S
C440 H425 0.960 1_545 S
C440 H426 0.960 1_545 S
C440 H427 0.960 . S
C440 C439 1.524 . S
C441 C438 1.403 . S
C441 C442 1.392 . S
C441 C445 1.495 . S
C442 C441 1.392 . S
C442 C443 1.385 . S
C442 C444 1.478 . S
C443 H437 0.930 . S
C443 C439 1.400 . S
C443 C442 1.385 . S
C444 C442 1.478 . S
C444 C446 1.381 . S
C444 C450 1.383 . S
C445 C441 1.495 . S
C445 H451 0.959 . S
C445 H452 0.961 . S
C445 H453 0.960 . S
C446 C444 1.381 . S
C446 C447 1.394 . S
C446 H454 0.930 . S
C447 C446 1.394 . S
C447 C448 1.383 . S
C447 H455 0.929 . S
C448 C447 1.383 . S
C448 C449 1.377 . S
C449 H433 0.930 . S
C449 C448 1.377 . S
C449 C450 1.379 . S
C450 H434 0.931 . S
C450 C444 1.383 . S
C450 C449 1.379 . S
H451 C445 0.959 . S
H452 C445 0.961 . S
H453 C445 0.960 . S
H454 C446 0.930 . S
H455 C447 0.929 . S
H456 C464 0.929 1_455 S
H457 C466 0.930 . S
H458 C468 0.930 . S
H459 C471 0.929 . S
H460 C474 0.930 . S
H461 C476 0.960 . S
H462 C476 0.960 . S
H463 C476 0.960 . S
C464 H456 0.929 1_655 S
C464 C465 1.377 . S
C464 C466 1.384 . S
C465 C464 1.377 . S
C465 C471 1.390 . S
C466 H457 0.930 . S
C466 C464 1.384 . S
C466 C467 1.372 . S
C467 C466 1.372 . S
C467 C468 1.400 . S
C467 C472 1.490 . S
C468 H458 0.930 . S
C468 C467 1.400 . S
C468 C471 1.386 . S
H469 C485 0.930 . S
H470 C486 0.931 . S
C471 H459 0.929 . S
C471 C465 1.390 . S
C471 C468 1.386 . S
C472 C467 1.490 . S
C472 C474 1.395 . S
C472 C475 1.403 . S
H473 C479 0.930 . S
C474 H460 0.930 . S
C474 C472 1.395 . S
C474 C477 1.403 . S
C475 C472 1.403 . S
C475 C476 1.524 . S
C475 C479 1.400 . S
C476 H461 0.960 . S
C476 H462 0.960 . S
C476 H463 0.960 . S
C476 C475 1.524 . S
C477 C474 1.403 . S
C477 C478 1.392 . S
C477 C481 1.495 . S
C478 C477 1.392 . S
C478 C479 1.385 . S
C478 C480 1.478 . S
C479 H473 0.930 . S
C479 C475 1.400 . S
C479 C478 1.385 . S
C480 C478 1.478 . S
C480 C482 1.381 . S
C480 C486 1.383 . S
C481 C477 1.495 . S
C481 H487 0.959 . S
C481 H488 0.961 . S
C481 H489 0.960 . S
C482 C480 1.381 . S
C482 C483 1.394 . S
C482 H490 0.930 . S
C483 C482 1.394 . S
C483 C484 1.383 . S
C483 H491 0.929 . S
C484 C483 1.383 . S
C484 C485 1.377 . S
C485 H469 0.930 . S
C485 C484 1.377 . S
C485 C486 1.379 . S
C486 H470 0.931 . S
C486 C480 1.383 . S
C486 C485 1.379 . S
H487 C481 0.959 . S
H488 C481 0.961 . S
H489 C481 0.960 . S
H490 C482 0.930 . S
H491 C483 0.929 . S
H492 C500 0.929 . S
H493 C502 0.930 . S
H494 C504 0.930 . S
H495 C507 0.929 . S
H496 C510 0.930 . S
H497 C512 0.960 . S
H498 C512 0.960 . S
H499 C512 0.960 . S
C500 H492 0.929 . S
C500 C501 1.377 . S
C500 C502 1.384 . S
C501 C500 1.377 . S
C501 C507 1.390 . S
C502 H493 0.930 . S
C502 C500 1.384 . S
C502 C503 1.372 . S
C503 C502 1.372 . S
C503 C504 1.400 . S
C503 C508 1.490 . S
C504 H494 0.930 . S
C504 C503 1.400 . S
C504 C507 1.386 . S
H505 C521 0.930 . S
H506 C522 0.931 . S
C507 H495 0.929 . S
C507 C501 1.390 . S
C507 C504 1.386 . S
C508 C503 1.490 . S
C508 C510 1.395 . S
C508 C511 1.403 . S
H509 C515 0.930 . S
C510 H496 0.930 . S
C510 C508 1.395 . S
C510 C513 1.403 . S
C511 C508 1.403 . S
C511 C512 1.524 . S
C511 C515 1.400 . S
C512 H497 0.960 . S
C512 H498 0.960 . S
C512 H499 0.960 . S
C512 C511 1.524 . S
C513 C510 1.403 . S
C513 C514 1.392 . S
C513 C517 1.495 1_455 S
C514 C513 1.392 . S
C514 C515 1.385 . S
C514 C516 1.478 . S
C515 H509 0.930 . S
C515 C511 1.400 . S
C515 C514 1.385 . S
C516 C514 1.478 . S
C516 C518 1.381 . S
C516 C522 1.383 . S
C517 C513 1.495 1_655 S
C517 H523 0.959 . S
C517 H524 0.961 . S
C517 H525 0.960 . S
C518 C516 1.381 . S
C518 C519 1.394 . S
C518 H526 0.930 . S
C519 C518 1.394 . S
C519 C520 1.383 . S
C519 H527 0.929 . S
C520 C519 1.383 . S
C520 C521 1.377 . S
C521 H505 0.930 . S
C521 C520 1.377 . S
C521 C522 1.379 . S
C522 H506 0.931 . S
C522 C516 1.383 . S
C522 C521 1.379 . S
H523 C517 0.959 . S
H524 C517 0.961 . S
H525 C517 0.960 . S
H526 C518 0.930 . S
H527 C519 0.929 . S
H528 C536 0.929 . S
H529 C538 0.930 . S
H530 C540 0.930 . S
H531 C543 0.929 . S
H532 C546 0.930 . S
H533 C548 0.960 . S
H534 C548 0.960 . S
H535 C548 0.960 . S
C536 H528 0.929 . S
C536 C537 1.377 . S
C536 C538 1.384 . S
C537 C536 1.377 . S
C537 C543 1.390 . S
C538 H529 0.930 . S
C538 C536 1.384 . S
C538 C539 1.372 . S
C539 C538 1.372 . S
C539 C540 1.400 . S
C539 C544 1.490 . S
C540 H530 0.930 . S
C540 C539 1.400 . S
C540 C543 1.386 . S
H541 C557 0.930 . S
H542 C558 0.931 . S
C543 H531 0.929 . S
C543 C537 1.390 . S
C543 C540 1.386 . S
C544 C539 1.490 . S
C544 C546 1.395 . S
C544 C547 1.403 . S
H545 C551 0.930 . S
C546 H532 0.930 . S
C546 C544 1.395 . S
C546 C549 1.403 . S
C547 C544 1.403 . S
C547 C548 1.524 . S
C547 C551 1.400 . S
C548 H533 0.960 . S
C548 H534 0.960 . S
C548 H535 0.960 . S
C548 C547 1.524 . S
C549 C546 1.403 . S
C549 C550 1.392 . S
C549 C553 1.495 . S
C550 C549 1.392 . S
C550 C551 1.385 . S
C550 C552 1.478 . S
C551 H545 0.930 . S
C551 C547 1.400 . S
C551 C550 1.385 . S
C552 C550 1.478 . S
C552 C554 1.381 . S
C552 C558 1.383 . S
C553 C549 1.495 . S
C553 H559 0.959 . S
C553 H560 0.961 . S
C553 H561 0.960 . S
C554 C552 1.381 . S
C554 C555 1.394 . S
C554 H562 0.930 . S
C555 C554 1.394 . S
C555 C556 1.383 . S
C555 H563 0.929 . S
C556 C555 1.383 . S
C556 C557 1.377 . S
C557 H541 0.930 . S
C557 C556 1.377 . S
C557 C558 1.379 . S
C558 H542 0.931 . S
C558 C552 1.383 . S
C558 C557 1.379 . S
H559 C553 0.959 . S
H560 C553 0.961 . S
H561 C553 0.960 . S
H562 C554 0.930 . S
H563 C555 0.929 . S
H564 C572 0.929 . S
H565 C574 0.930 . S
H566 C576 0.930 . S
H567 C579 0.929 . S
H568 C582 0.930 . S
H569 C584 0.960 . S
H570 C584 0.960 . S
H571 C584 0.960 . S
C572 H564 0.929 . S
C572 C573 1.377 . S
C572 C574 1.384 . S
C573 C572 1.377 . S
C573 C579 1.390 . S
C574 H565 0.930 . S
C574 C572 1.384 . S
C574 C575 1.372 . S
C575 C574 1.372 . S
C575 C576 1.400 . S
C575 C580 1.490 . S
C576 H566 0.930 . S
C576 C575 1.400 . S
C576 C579 1.386 . S
H577 C593 0.930 . S
H578 C594 0.931 . S
C579 H567 0.929 . S
C579 C573 1.390 . S
C579 C576 1.386 . S
C580 C575 1.490 . S
C580 C582 1.395 . S
C580 C583 1.403 . S
H581 C587 0.930 . S
C582 H568 0.930 . S
C582 C580 1.395 . S
C582 C585 1.403 . S
C583 C580 1.403 . S
C583 C584 1.524 . S
C583 C587 1.400 . S
C584 H569 0.960 . S
C584 H570 0.960 . S
C584 H571 0.960 . S
C584 C583 1.524 . S
C585 C582 1.403 . S
C585 C586 1.392 . S
C585 C589 1.495 . S
C586 C585 1.392 . S
C586 C587 1.385 . S
C586 C588 1.478 . S
C587 H581 0.930 . S
C587 C583 1.400 . S
C587 C586 1.385 . S
C588 C586 1.478 . S
C588 C590 1.381 . S
C588 C594 1.383 . S
C589 C585 1.495 . S
C589 H595 0.959 . S
C589 H596 0.961 . S
C589 H597 0.960 . S
C590 C588 1.381 . S
C590 C591 1.394 . S
C590 H598 0.930 . S
C591 C590 1.394 . S
C591 C592 1.383 . S
C591 H599 0.929 . S
C592 C591 1.383 . S
C592 C593 1.377 . S
C593 H577 0.930 . S
C593 C592 1.377 . S
C593 C594 1.379 . S
C594 H578 0.931 . S
C594 C588 1.383 . S
C594 C593 1.379 . S
H595 C589 0.959 . S
H596 C589 0.961 . S
H597 C589 0.960 . S
H598 C590 0.930 . S
H599 C591 0.929 . S
H600 C608 0.929 1_565 S
H601 C610 0.930 1_565 S
H602 C612 0.930 . S
H603 C615 0.929 . S
H604 C618 0.930 . S
H605 C620 0.960 . S
H606 C620 0.960 . S
H607 C620 0.960 . S
C608 H600 0.929 1_545 S
C608 C609 1.377 . S
C608 C610 1.384 . S
C609 C608 1.377 . S
C609 C615 1.390 . S
C610 H601 0.930 1_545 S
C610 C608 1.384 . S
C610 C611 1.372 . S
C611 C610 1.372 . S
C611 C612 1.400 . S
C611 C616 1.490 . S
C612 H602 0.930 . S
C612 C611 1.400 . S
C612 C615 1.386 . S
H613 C629 0.930 . S
H614 C630 0.931 . S
C615 H603 0.929 . S
C615 C609 1.390 . S
C615 C612 1.386 . S
C616 C611 1.490 . S
C616 C618 1.395 . S
C616 C619 1.403 . S
H617 C623 0.930 . S
C618 H604 0.930 . S
C618 C616 1.395 . S
C618 C621 1.403 . S
C619 C616 1.403 . S
C619 C620 1.524 . S
C619 C623 1.400 . S
C620 H605 0.960 . S
C620 H606 0.960 . S
C620 H607 0.960 . S
C620 C619 1.524 . S
C621 C618 1.403 . S
C621 C622 1.392 . S
C621 C625 1.495 . S
C622 C621 1.392 . S
C622 C623 1.385 . S
C622 C624 1.478 . S
C623 H617 0.930 . S
C623 C619 1.400 . S
C623 C622 1.385 . S
C624 C622 1.478 . S
C624 C626 1.381 . S
C624 C630 1.383 . S
C625 C621 1.495 . S
C625 H631 0.959 . S
C625 H632 0.961 . S
C625 H633 0.960 . S
C626 C624 1.381 . S
C626 C627 1.394 . S
C626 H634 0.930 1_545 S
C627 C626 1.394 . S
C627 C628 1.383 . S
C627 H635 0.929 1_545 S
C628 C627 1.383 . S
C628 C629 1.377 . S
C629 H613 0.930 . S
C629 C628 1.377 . S
C629 C630 1.379 . S
C630 H614 0.931 . S
C630 C624 1.383 . S
C630 C629 1.379 . S
H631 C625 0.959 . S
H632 C625 0.961 . S
H633 C625 0.960 . S
H634 C626 0.930 1_565 S
H635 C627 0.929 1_565 S
H636 C644 0.896 1_455 S
H637 C646 0.930 . S
H638 C648 0.930 . S
H639 C651 0.929 . S
H640 C654 0.930 . S
H641 C656 0.960 . S
H642 C656 0.960 . S
H643 C656 0.907 1_554 S
C644 H636 0.896 1_655 S
C644 C645 1.401 . S
C644 C646 1.393 . S
C645 C644 1.401 . S
C645 C651 1.390 . S
C646 H637 0.930 . S
C646 C644 1.393 . S
C646 C647 1.372 . S
C647 C646 1.372 . S
C647 C648 1.400 . S
C647 C652 1.490 . S
C648 H638 0.930 . S
C648 C647 1.400 . S
C648 C651 1.386 . S
H649 C665 0.930 . S
H650 C666 0.931 . S
C651 H639 0.929 . S
C651 C645 1.390 . S
C651 C648 1.386 . S
C652 C647 1.490 . S
C652 C654 1.395 . S
C652 C655 1.349 1_554 S
H653 C659 0.930 . S
C654 H640 0.930 . S
C654 C652 1.395 . S
C654 C657 1.403 . S
C655 C652 1.349 1_556 S
C655 C656 1.550 . S
C655 C659 1.432 . S
C656 H641 0.960 . S
C656 H642 0.960 . S
C656 H643 0.907 1_556 S
C656 C655 1.550 . S
C657 C654 1.403 . S
C657 C658 1.392 1_554 S
C657 C661 1.495 . S
C658 C657 1.392 1_556 S
C658 C659 1.385 . S
C658 C660 1.478 . S
C659 H653 0.930 . S
C659 C655 1.432 . S
C659 C658 1.385 . S
C660 C658 1.478 . S
C660 C662 1.381 . S
C660 C666 1.383 . S
C661 C657 1.495 . S
C661 H667 0.959 . S
C661 H668 0.961 . S
C661 H669 0.960 . S
C662 C660 1.381 . S
C662 C663 1.394 . S
C662 H670 0.930 . S
C663 C662 1.394 . S
C663 C664 1.383 . S
C663 H671 0.929 . S
C664 C663 1.383 . S
C664 C665 1.377 . S
C665 H649 0.930 . S
C665 C664 1.377 . S
C665 C666 1.379 . S
C666 H650 0.931 . S
C666 C660 1.383 . S
C666 C665 1.379 . S
H667 C661 0.959 . S
H668 C661 0.961 . S
H669 C661 0.960 . S
H670 C662 0.930 . S
H671 C663 0.929 . S
H672 C680 0.929 1_545 S
H673 C682 0.930 . S
H674 C684 0.930 . S
H675 C687 0.929 . S
H676 C690 0.930 . S
H677 C692 0.960 . S
H678 C692 0.960 . S
H679 C692 0.960 . S
C680 H672 0.929 1_565 S
C680 C681 1.377 . S
C680 C682 1.384 . S
C681 C680 1.377 . S
C681 C687 1.390 . S
C682 H673 0.930 . S
C682 C680 1.384 . S
C682 C683 1.372 . S
C683 C682 1.372 . S
C683 C684 1.400 . S
C683 C688 1.490 . S
C684 H674 0.930 . S
C684 C683 1.400 . S
C684 C687 1.386 . S
H685 C701 0.930 . S
H686 C702 0.931 . S
C687 H675 0.929 . S
C687 C681 1.390 . S
C687 C684 1.386 . S
C688 C683 1.490 . S
C688 C690 1.395 . S
C688 C691 1.403 1_455 S
H689 C695 0.932 . S
C690 H676 0.930 . S
C690 C688 1.395 . S
C690 C693 1.403 . S
C691 C688 1.403 1_655 S
C691 C692 1.524 . S
C691 C695 1.407 . S
C692 H677 0.960 . S
C692 H678 0.960 . S
C692 H679 0.960 . S
C692 C691 1.524 . S
C693 C690 1.403 . S
C693 C694 1.392 . S
C693 C697 1.495 . S
C694 C693 1.392 . S
C694 C695 1.377 1_455 S
C694 C696 1.478 . S
C695 H689 0.932 . S
C695 C691 1.407 . S
C695 C694 1.377 1_655 S
C696 C694 1.478 . S
C696 C698 1.381 . S
C696 C702 1.383 . S
C697 C693 1.495 . S
C697 H703 0.959 . S
C697 H704 0.961 . S
C697 H705 0.960 . S
C698 C696 1.381 . S
C698 C699 1.394 . S
C698 H706 0.930 . S
C699 C698 1.394 . S
C699 C700 1.383 . S
C699 H707 0.929 . S
C700 C699 1.383 . S
C700 C701 1.377 . S
C701 H685 0.930 . S
C701 C700 1.377 . S
C701 C702 1.379 . S
C702 H686 0.931 . S
C702 C696 1.383 . S
C702 C701 1.379 . S
H703 C697 0.959 . S
H704 C697 0.961 . S
H705 C697 0.960 . S
H706 C698 0.930 . S
H707 C699 0.929 . S
H708 C716 0.929 . S
H709 C718 0.930 . S
H710 C720 0.930 . S
H711 C723 0.929 . S
H712 C726 0.930 . S
H713 C728 0.960 . S
H714 C728 0.960 . S
H715 C728 0.960 . S
C716 H708 0.929 . S
C716 C717 1.377 1_565 S
C716 C718 1.384 . S
C717 C716 1.377 1_545 S
C717 C723 1.390 . S
C718 H709 0.930 . S
C718 C716 1.384 . S
C718 C719 1.372 1_565 S
C719 C718 1.372 1_545 S
C719 C720 1.400 . S
C719 C724 1.490 . S
C720 H710 0.930 . S
C720 C719 1.400 . S
C720 C723 1.386 . S
H721 C737 0.930 . S
H722 C738 0.931 . S
C723 H711 0.929 . S
C723 C717 1.390 . S
C723 C720 1.386 . S
C724 C719 1.490 . S
C724 C726 1.395 1_545 S
C724 C727 1.403 . S
H725 C731 0.930 . S
C726 H712 0.930 . S
C726 C724 1.395 1_565 S
C726 C729 1.403 . S
C727 C724 1.403 . S
C727 C728 1.524 . S
C727 C731 1.400 . S
C728 H713 0.960 . S
C728 H714 0.960 . S
C728 H715 0.960 . S
C728 C727 1.524 . S
C729 C726 1.403 . S
C729 C730 1.392 1_565 S
C729 C733 1.495 . S
C730 C729 1.392 1_545 S
C730 C731 1.385 . S
C730 C732 1.478 . S
C731 H725 0.930 . S
C731 C727 1.400 . S
C731 C730 1.385 . S
C732 C730 1.478 . S
C732 C734 1.381 1_545 S
C732 C738 1.383 . S
C733 C729 1.495 . S
C733 H739 0.959 . S
C733 H740 0.961 . S
C733 H741 0.960 . S
C734 C732 1.381 1_565 S
C734 C735 1.395 . S
C734 H742 0.930 . S
C735 C734 1.395 . S
C735 C736 1.385 1_565 S
C735 H743 0.926 . S
C736 C735 1.385 1_545 S
C736 C737 1.377 . S
C737 H721 0.930 . S
C737 C736 1.377 . S
C737 C738 1.379 . S
C738 H722 0.931 . S
C738 C732 1.383 . S
C738 C737 1.379 . S
H739 C733 0.959 . S
H740 C733 0.961 . S
H741 C733 0.960 . S
H742 C734 0.930 . S
H743 C735 0.926 . S
H744 C752 0.929 . S
H745 C754 0.930 . S
H746 C756 0.930 . S
H747 C759 0.929 . S
H748 C762 0.930 . S
H749 C764 0.960 1_556 S
H750 C764 0.954 1_556 S
H751 C764 0.960 . S
C752 H744 0.929 . S
C752 C753 1.377 . S
C752 C754 1.384 . S
C753 C752 1.377 . S
C753 C759 1.390 . S
C754 H745 0.930 . S
C754 C752 1.384 . S
C754 C755 1.372 . S
C755 C754 1.372 . S
C755 C756 1.400 . S
C755 C760 1.490 . S
C756 H746 0.930 . S
C756 C755 1.400 . S
C756 C759 1.386 . S
H757 C773 0.930 . S
H758 C774 0.931 . S
C759 H747 0.929 . S
C759 C753 1.390 . S
C759 C756 1.386 . S
C760 C755 1.490 . S
C760 C762 1.395 . S
C760 C763 1.434 . S
H761 C767 0.930 . S
C762 H748 0.930 . S
C762 C760 1.395 . S
C762 C765 1.403 1_554 S
C763 C760 1.434 . S
C763 C764 1.536 . S
C763 C767 1.356 1_554 S
C764 H749 0.960 1_554 S
C764 H750 0.954 1_554 S
C764 H751 0.960 . S
C764 C763 1.536 . S
C765 C762 1.403 1_556 S
C765 C766 1.392 . S
C765 C769 1.495 . S
C766 C765 1.392 . S
C766 C767 1.385 . S
C766 C768 1.478 . S
C767 H761 0.930 . S
C767 C763 1.356 1_556 S
C767 C766 1.385 . S
C768 C766 1.478 . S
C768 C770 1.381 . S
C768 C774 1.383 . S
C769 C765 1.495 . S
C769 H775 0.959 . S
C769 H776 0.961 . S
C769 H777 0.960 . S
C770 C768 1.381 . S
C770 C771 1.394 . S
C770 H778 0.930 . S
C771 C770 1.394 . S
C771 C772 1.383 . S
C771 H779 0.929 . S
C772 C771 1.383 . S
C772 C773 1.377 . S
C773 H757 0.930 . S
C773 C772 1.377 . S
C773 C774 1.379 . S
C774 H758 0.931 . S
C774 C768 1.383 . S
C774 C773 1.379 . S
H775 C769 0.959 . S
H776 C769 0.961 . S
H777 C769 0.960 . S
H778 C770 0.930 . S
H779 C771 0.929 . S
H780 C788 0.929 . S
H781 C790 0.930 . S
H782 C792 0.930 . S
H783 C795 0.929 . S
H784 C798 0.930 . S
H785 C800 0.960 . S
H786 C800 0.960 1_655 S
H787 C800 0.960 . S
C788 H780 0.929 . S
C788 C789 1.377 . S
C788 C790 1.384 . S
C789 C788 1.377 . S
C789 C795 1.390 . S
C790 H781 0.930 . S
C790 C788 1.384 . S
C790 C791 1.372 . S
C791 C790 1.372 . S
C791 C792 1.400 . S
C791 C796 1.490 . S
C792 H782 0.930 . S
C792 C791 1.400 . S
C792 C795 1.386 . S
H793 C809 0.930 . S
H794 C810 0.931 . S
C795 H783 0.929 . S
C795 C789 1.390 . S
C795 C792 1.386 . S
C796 C791 1.490 . S
C796 C798 1.395 . S
C796 C799 1.403 . S
H797 C803 0.930 . S
C798 H784 0.930 . S
C798 C796 1.395 . S
C798 C801 1.403 . S
C799 C796 1.403 . S
C799 C800 1.524 . S
C799 C803 1.400 . S
C800 H785 0.960 . S
C800 H786 0.960 1_455 S
C800 H787 0.960 . S
C800 C799 1.524 . S
C801 C798 1.403 . S
C801 C802 1.392 . S
C801 C805 1.495 . S
C802 C801 1.392 . S
C802 C803 1.385 . S
C802 C804 1.478 . S
C803 H797 0.930 . S
C803 C799 1.400 . S
C803 C802 1.385 . S
C804 C802 1.478 . S
C804 C806 1.381 . S
C804 C810 1.383 . S
C805 C801 1.495 . S
C805 H811 0.959 . S
C805 H812 0.961 . S
C805 H813 0.960 . S
C806 C804 1.381 . S
C806 C807 1.394 . S
C806 H814 0.930 . S
C807 C806 1.394 . S
C807 C808 1.383 . S
C807 H815 0.929 . S
C808 C807 1.383 . S
C808 C809 1.377 . S
C809 H793 0.930 . S
C809 C808 1.377 . S
C809 C810 1.379 . S
C810 H794 0.931 . S
C810 C804 1.383 . S
C810 C809 1.379 . S
H811 C805 0.959 . S
H812 C805 0.961 . S
H813 C805 0.960 . S
H814 C806 0.930 . S
H815 C807 0.929 . S
C412 C97 1.076 . S
C393 C11 1.340 . S
C429 C25 1.423 . S
C448 C211 0.991 . S
C465 C41 1.159 . S
C484 C271 1.062 . S
C501 C7 1.227 1_565 S
C520 C71 0.983 . S
C556 C185 1.104 . S
C537 C21 1.305 . S
C573 C36 1.347 . S
C592 C281 0.816 . S
C628 C167 0.754 . S
C609 C39 1.316 . S
C645 C8 1.275 1_665 S
C664 C299 1.113 . S
C700 C43 1.101 . S
C681 C22 1.261 1_565 S
C736 C157 0.958 . S
C717 C35 1.207 . S
C772 C325 1.012 . S
C753 C13 1.396 . S
C789 C27 1.366 . S
C808 C53 0.785 . S
