# Generated by pormake.
# Topology wbl, (4,4)-cn, num edge types: 1
# Building blocks:
#     Node 0, Type 0, BuildingBlock: MIFKUJ_clean_linker_1, # of connection points: 4
#     Node 1, Type 0, BuildingBlock: MIFKUJ_clean_linker_1, # of connection points: 4
#     Node 2, Type 0, BuildingBlock: MIFKUJ_clean_linker_1, # of connection points: 4
#     Node 3, Type 0, BuildingBlock: MIFKUJ_clean_linker_1, # of connection points: 4
#     Node 4, Type 0, BuildingBlock: MIFKUJ_clean_linker_1, # of connection points: 4
#     Node 5, Type 0, BuildingBlock: MIFKUJ_clean_linker_1, # of connection points: 4
#     Node 6, Type 0, BuildingBlock: MIFKUJ_clean_linker_1, # of connection points: 4
#     Node 7, Type 0, BuildingBlock: MIFKUJ_clean_linker_1, # of connection points: 4
#     Node 8, Type 1, BuildingBlock: GALJAG_clean_sbu_0, # of connection points: 4
#     Node 9, Type 1, BuildingBlock: GALJAG_clean_sbu_0, # of connection points: 4
#     Node 10, Type 1, BuildingBlock: GALJAG_clean_sbu_0, # of connection points: 4
#     Node 11, Type 1, BuildingBlock: GALJAG_clean_sbu_0, # of connection points: 4
#     Node 12, Type 1, BuildingBlock: GALJAG_clean_sbu_0, # of connection points: 4
#     Node 13, Type 1, BuildingBlock: GALJAG_clean_sbu_0, # of connection points: 4
#     Node 14, Type 1, BuildingBlock: GALJAG_clean_sbu_0, # of connection points: 4
#     Node 15, Type 1, BuildingBlock: GALJAG_clean_sbu_0, # of connection points: 4
#     Edge 16, Type (0, 1), BuildingBlock: UVAHIK_clean_linker_0, # of connection points: 2
#     Edge 17, Type (0, 1), BuildingBlock: UVAHIK_clean_linker_0, # of connection points: 2
#     Edge 18, Type (0, 1), BuildingBlock: UVAHIK_clean_linker_0, # of connection points: 2
#     Edge 19, Type (0, 1), BuildingBlock: UVAHIK_clean_linker_0, # of connection points: 2
#     Edge 20, Type (0, 1), BuildingBlock: UVAHIK_clean_linker_0, # of connection points: 2
#     Edge 21, Type (0, 1), BuildingBlock: UVAHIK_clean_linker_0, # of connection points: 2
#     Edge 22, Type (0, 1), BuildingBlock: UVAHIK_clean_linker_0, # of connection points: 2
#     Edge 23, Type (0, 1), BuildingBlock: UVAHIK_clean_linker_0, # of connection points: 2
#     Edge 24, Type (0, 1), BuildingBlock: UVAHIK_clean_linker_0, # of connection points: 2
#     Edge 25, Type (0, 1), BuildingBlock: UVAHIK_clean_linker_0, # of connection points: 2
#     Edge 26, Type (0, 1), BuildingBlock: UVAHIK_clean_linker_0, # of connection points: 2
#     Edge 27, Type (0, 1), BuildingBlock: UVAHIK_clean_linker_0, # of connection points: 2
#     Edge 28, Type (0, 1), BuildingBlock: UVAHIK_clean_linker_0, # of connection points: 2
#     Edge 29, Type (0, 1), BuildingBlock: UVAHIK_clean_linker_0, # of connection points: 2
#     Edge 30, Type (0, 1), BuildingBlock: UVAHIK_clean_linker_0, # of connection points: 2
#     Edge 31, Type (0, 1), BuildingBlock: UVAHIK_clean_linker_0, # of connection points: 2
#     Edge 32, Type (0, 1), BuildingBlock: UVAHIK_clean_linker_0, # of connection points: 2
#     Edge 33, Type (0, 1), BuildingBlock: UVAHIK_clean_linker_0, # of connection points: 2
#     Edge 34, Type (0, 1), BuildingBlock: UVAHIK_clean_linker_0, # of connection points: 2
#     Edge 35, Type (0, 1), BuildingBlock: UVAHIK_clean_linker_0, # of connection points: 2
#     Edge 36, Type (0, 1), BuildingBlock: UVAHIK_clean_linker_0, # of connection points: 2
#     Edge 37, Type (0, 1), BuildingBlock: UVAHIK_clean_linker_0, # of connection points: 2
#     Edge 38, Type (0, 1), BuildingBlock: UVAHIK_clean_linker_0, # of connection points: 2
#     Edge 39, Type (0, 1), BuildingBlock: UVAHIK_clean_linker_0, # of connection points: 2
#     Edge 40, Type (0, 1), BuildingBlock: UVAHIK_clean_linker_0, # of connection points: 2
#     Edge 41, Type (0, 1), BuildingBlock: UVAHIK_clean_linker_0, # of connection points: 2
#     Edge 42, Type (0, 1), BuildingBlock: UVAHIK_clean_linker_0, # of connection points: 2
#     Edge 43, Type (0, 1), BuildingBlock: UVAHIK_clean_linker_0, # of connection points: 2
#     Edge 44, Type (0, 1), BuildingBlock: UVAHIK_clean_linker_0, # of connection points: 2
#     Edge 45, Type (0, 1), BuildingBlock: UVAHIK_clean_linker_0, # of connection points: 2
#     Edge 46, Type (0, 1), BuildingBlock: UVAHIK_clean_linker_0, # of connection points: 2
#     Edge 47, Type (0, 1), BuildingBlock: UVAHIK_clean_linker_0, # of connection points: 2
# Relax obj value: 0.140
# Max RMSD: 0.144
# Mean RMSD: 0.131
data_MOF--net-wbl--node1-GALJAG_clean_sbu_0--node2-MIFKUJ_clean_linker_1--edge1-UVAHIK_clean_linker_0
_symmetry_space_group_name_H-M    P1
_symmetry_Int_Tables_number       1
_symmetry_cell_setting            triclinic
loop_
_symmetry_equiv_pos_as_xyz
'x, y, z'
_cell_length_a     55.660262
_cell_length_b     55.799853
_cell_length_c     101.9929
_cell_angle_alpha  90.040283
_cell_angle_beta   90.00269
_cell_angle_gamma 90.020243
loop_
_atom_site_label
_atom_site_type_symbol
_atom_site_fract_x
_atom_site_fract_y
_atom_site_fract_z
_atom_type_partial_charge
H0 H 0.00793 0.05307 0.36435 0.0
H1 H 0.98499 0.07788 0.37962 0.0
H2 H 0.91908 0.04601 0.3656 0.0
H3 H 0.94212 0.02106 0.35038 0.0
H4 H 0.01086 0.0063 0.36527 0.0
H5 H 0.98737 0.06329 0.33306 0.0
H6 H 0.96019 0.08877 0.32043 0.0
H7 H 0.92279 0.0258 0.3065 0.0
H8 H 0.95014 0.00042 0.3191 0.0
H9 H 0.00217 0.94418 0.32053 0.0
H10 H 0.02681 0.91675 0.30732 0.0
H11 H 0.09038 0.9565 0.31821 0.0
H12 H 0.06576 0.98379 0.33129 0.0
H13 H 0.99756 0.99427 0.31764 0.0
H14 H 0.02273 0.9378 0.35095 0.0
H15 H 0.04876 0.91454 0.36551 0.0
H16 H 0.08526 0.97961 0.37704 0.0
H17 H 0.05899 0.00273 0.36264 0.0
C18 C 0.97676 0.03519 0.35623 0.0
C19 C 0.98852 0.05162 0.36445 0.0
C20 C 0.97541 0.06575 0.37318 0.0
C21 C 0.95028 0.06372 0.37387 0.0
C22 C 0.93842 0.04809 0.3652 0.0
C23 C 0.95157 0.03384 0.3565 0.0
C24 C 0.99102 0.01801 0.34831 0.0
C25 C 0.0082 0.00398 0.3548 0.0
C26 C 0.98714 0.01451 0.33474 0.0
C27 C 0.9706 0.02997 0.32713 0.0
C28 C 0.97319 0.055 0.32736 0.0
C29 C 0.95765 0.06954 0.32014 0.0
C30 C 0.93932 0.05931 0.31247 0.0
C31 C 0.93693 0.03422 0.31217 0.0
C32 C 0.95246 0.01969 0.3194 0.0
C33 C 0.0322 0.96588 0.32692 0.0
C34 C 0.02142 0.94689 0.32006 0.0
C35 C 0.03548 0.93121 0.3126 0.0
C36 C 0.06044 0.9346 0.31173 0.0
C37 C 0.07114 0.95364 0.31862 0.0
C38 C 0.05714 0.96911 0.32616 0.0
C39 C 0.01743 0.98279 0.33463 0.0
C40 C 0.00016 0.99668 0.3281 0.0
C41 C 0.0215 0.98649 0.34814 0.0
C42 C 0.03891 0.97199 0.35574 0.0
C43 C 0.03663 0.94697 0.35644 0.0
C44 C 0.05155 0.9337 0.36475 0.0
C45 C 0.06893 0.94527 0.37252 0.0
C46 C 0.07176 0.97022 0.37137 0.0
C47 C 0.05683 0.98345 0.36311 0.0
H48 H 0.9938 0.45214 0.56574 0.0
H49 H 0.9686 0.42497 0.55286 0.0
H50 H 0.90506 0.45981 0.56802 0.0
H51 H 0.93031 0.48684 0.58087 0.0
H52 H -0.00045 0.49913 0.56538 0.0
H53 H 0.9773 0.4422 0.59784 0.0
H54 H 0.95357 0.41654 0.61239 0.0
H55 H 0.91434 0.47854 0.62598 0.0
H56 H 0.93803 0.5041 0.61136 0.0
H57 H 0.98955 0.55883 0.61097 0.0
H58 H 0.0122 0.58403 0.62619 0.0
H59 H 0.07774 0.54799 0.61488 0.0
H60 H 0.05498 0.52306 0.59955 0.0
H61 H 0.98635 0.51025 0.61309 0.0
H62 H 0.01004 0.56665 0.57924 0.0
H63 H 0.03837 0.59087 0.56651 0.0
H64 H 0.0785 0.52706 0.55676 0.0
H65 H 0.04998 0.50285 0.56948 0.0
C66 C 0.96394 0.47129 0.57439 0.0
C67 C 0.97444 0.45396 0.56624 0.0
C68 C 0.96003 0.43853 0.55885 0.0
C69 C 0.93484 0.44023 0.55945 0.0
C70 C 0.92439 0.45781 0.56751 0.0
C71 C 0.9388 0.47325 0.57486 0.0
C72 C 0.97917 0.48769 0.58224 0.0
C73 C 0.99687 0.5013 0.57585 0.0
C74 C 0.97554 0.4908 0.59585 0.0
C75 C 0.95937 0.47503 0.60351 0.0
C76 C 0.96326 0.45019 0.60376 0.0
C77 C 0.94983 0.43559 0.61213 0.0
C78 C 0.93218 0.44558 0.62033 0.0
C79 C 0.92766 0.47033 0.61968 0.0
C80 C 0.94127 0.48496 0.6114 0.0
C81 C 0.02058 0.53911 0.60413 0.0
C82 C 0.00885 0.55661 0.61164 0.0
C83 C 0.0218 0.57091 0.62037 0.0
C84 C 0.04674 0.56785 0.62184 0.0
C85 C 0.0586 0.55098 0.61389 0.0
C86 C 0.04562 0.53669 0.60513 0.0
C87 C 0.00632 0.522 0.5962 0.0
C88 C 0.9889 0.50814 0.60261 0.0
C89 C 0.01049 0.51838 0.58268 0.0
C90 C 0.02802 0.53303 0.57532 0.0
C91 C 0.02501 0.55792 0.57441 0.0
C92 C 0.04108 0.57167 0.56709 0.0
C93 C 0.06053 0.56077 0.56064 0.0
C94 C 0.06371 0.53588 0.5617 0.0
C95 C 0.04742 0.52207 0.56889 0.0
H96 H 0.49906 0.55786 0.86524 0.0
H97 H 0.47115 0.58041 0.879 0.0
H98 H 0.4115 0.5425 0.86149 0.0
H99 H 0.43968 0.51978 0.84778 0.0
H100 H 0.50363 0.50898 0.8665 0.0
H101 H 0.48222 0.56854 0.83545 0.0
H102 H 0.45484 0.5924 0.82227 0.0
H103 H 0.43599 0.52918 0.79991 0.0
H104 H 0.46156 0.50507 0.81402 0.0
H105 H 0.5091 0.45648 0.81732 0.0
H106 H 0.536 0.42814 0.80628 0.0
H107 H 0.59568 0.45512 0.82889 0.0
H108 H 0.56916 0.48429 0.83943 0.0
H109 H 0.50584 0.5023 0.81806 0.0
H110 H 0.52168 0.44238 0.85171 0.0
H111 H 0.54425 0.41827 0.86758 0.0
H112 H 0.57448 0.48298 0.88405 0.0
H113 H 0.55185 0.50688 0.86827 0.0
C114 C 0.47142 0.53722 0.85549 0.0
C115 C 0.47995 0.55466 0.86424 0.0
C116 C 0.46397 0.56762 0.87203 0.0
C117 C 0.43914 0.56321 0.87132 0.0
C118 C 0.43056 0.54616 0.86229 0.0
C119 C 0.44659 0.53331 0.85441 0.0
C120 C 0.4887 0.52178 0.84838 0.0
C121 C 0.50433 0.50773 0.85589 0.0
C122 C 0.48916 0.51988 0.83454 0.0
C123 C 0.47352 0.53482 0.82601 0.0
C124 C 0.47178 0.5597 0.8279 0.0
C125 C 0.45641 0.57347 0.82014 0.0
C126 C 0.44295 0.56281 0.81001 0.0
C127 C 0.4455 0.53802 0.80781 0.0
C128 C 0.46043 0.52419 0.81578 0.0
C129 C 0.53697 0.47226 0.82941 0.0
C130 C 0.52801 0.45649 0.81982 0.0
C131 C 0.54332 0.44029 0.81355 0.0
C132 C 0.56775 0.43937 0.81689 0.0
C133 C 0.57679 0.4553 0.82633 0.0
C134 C 0.56162 0.47185 0.83239 0.0
C135 C 0.5205 0.48912 0.83622 0.0
C136 C 0.50508 0.50351 0.82867 0.0
C137 C 0.52008 0.49134 0.85004 0.0
C138 C 0.53512 0.47642 0.85882 0.0
C139 C 0.53345 0.45131 0.85863 0.0
C140 C 0.54637 0.43757 0.86768 0.0
C141 C 0.56098 0.44876 0.87713 0.0
C142 C 0.56306 0.47386 0.87704 0.0
C143 C 0.55022 0.48754 0.868 0.0
H144 H 0.49534 0.95239 0.06778 0.0
H145 H 0.46846 0.92598 0.0555 0.0
H146 H 0.4071 0.9611 0.07293 0.0
H147 H 0.43406 0.98764 0.08511 0.0
H148 H 0.50228 -0.00127 0.06765 0.0
H149 H 0.47901 0.94169 0.09998 0.0
H150 H 0.45367 0.91713 0.11424 0.0
H151 H 0.42161 0.98131 0.13025 0.0
H152 H 0.44661 0.00575 0.11575 0.0
H153 H 0.50063 0.05672 0.11446 0.0
H154 H 0.52669 0.08064 0.12863 0.0
H155 H 0.5887 0.04303 0.11356 0.0
H156 H 0.56243 0.01864 0.09972 0.0
H157 H 0.49469 0.00872 0.11581 0.0
H158 H 0.51599 0.06491 0.08098 0.0
H159 H 0.54458 0.08851 0.06804 0.0
H160 H 0.58349 0.02394 0.05837 0.0
H161 H 0.55453 0.0003 0.07116 0.0
C162 C 0.46674 0.9718 0.07749 0.0
C163 C 0.4761 0.9545 0.0689 0.0
C164 C 0.46073 0.93948 0.06186 0.0
C165 C 0.43568 0.94147 0.06327 0.0
C166 C 0.42633 0.95895 0.07178 0.0
C167 C 0.44171 0.97408 0.07875 0.0
C168 C 0.48315 0.98761 0.08501 0.0
C169 C 0.50076 0.00065 0.0782 0.0
C170 C 0.48105 0.99046 0.09875 0.0
C171 C 0.46459 0.97554 0.10675 0.0
C172 C 0.46623 0.95044 0.1064 0.0
C173 C 0.4519 0.93645 0.11463 0.0
C174 C 0.43569 0.9473 0.12338 0.0
C175 C 0.43372 0.97242 0.12351 0.0
C176 C 0.44812 0.9864 0.11531 0.0
C177 C 0.52958 0.036 0.10599 0.0
C178 C 0.51987 0.0538 0.11413 0.0
C179 C 0.53481 0.06759 0.12214 0.0
C180 C 0.55978 0.06373 0.12222 0.0
C181 C 0.56953 0.04629 0.1138 0.0
C182 C 0.55456 0.03251 0.10579 0.0
C183 C 0.51346 0.01999 0.09843 0.0
C184 C 0.49602 0.00684 0.10524 0.0
C185 C 0.51589 0.01679 0.08476 0.0
C186 C 0.53324 0.03093 0.07701 0.0
C187 C 0.53066 0.05586 0.07605 0.0
C188 C 0.5469 0.06926 0.06865 0.0
C189 C 0.56614 0.05796 0.06222 0.0
C190 C 0.56883 0.03302 0.06328 0.0
C191 C 0.55231 0.01955 0.07051 0.0
H192 H 0.00046 0.55964 0.89143 0.0
H193 H 0.02781 0.58247 0.8774 0.0
H194 H 0.08822 0.5446 0.89404 0.0
H195 H 0.06074 0.5217 0.90802 0.0
H196 H 0.99395 0.51163 0.89079 0.0
H197 H 0.01405 0.57032 0.92165 0.0
H198 H 0.04006 0.59714 0.93416 0.0
H199 H 0.07243 0.53605 0.95325 0.0
H200 H 0.04643 0.50919 0.94058 0.0
H201 H 0.9928 0.45135 0.93571 0.0
H202 H 0.96507 0.42555 0.94808 0.0
H203 H 0.90571 0.47043 0.93624 0.0
H204 H 0.93338 0.49595 0.92388 0.0
H205 H -0.00082 0.50342 0.93915 0.0
H206 H 0.97738 0.4455 0.90478 0.0
H207 H 0.95163 0.42314 0.88966 0.0
H208 H 0.91714 0.4893 0.87812 0.0
H209 H 0.9435 0.51149 0.89292 0.0
C210 C 0.02859 0.53901 0.90075 0.0
C211 C 0.01962 0.55646 0.89215 0.0
C212 C 0.03526 0.5696 0.88422 0.0
C213 C 0.06012 0.56528 0.88463 0.0
C214 C 0.06912 0.54819 0.89348 0.0
C215 C 0.05348 0.53522 0.90151 0.0
C216 C 0.01184 0.52369 0.90831 0.0
C217 C 0.99493 0.51008 0.90138 0.0
C218 C 0.0132 0.52157 0.92211 0.0
C219 C 0.02862 0.53772 0.93001 0.0
C220 C 0.0269 0.56266 0.92844 0.0
C221 C 0.04172 0.57798 0.9356 0.0
C222 C 0.05836 0.56868 0.94462 0.0
C223 C 0.05963 0.54373 0.94644 0.0
C224 C 0.04487 0.52837 0.93919 0.0
C225 C 0.96505 0.47544 0.92888 0.0
C226 C 0.9738 0.45553 0.93579 0.0
C227 C 0.95799 0.44081 0.94278 0.0
C228 C 0.93333 0.44611 0.94313 0.0
C229 C 0.92469 0.4661 0.93621 0.0
C230 C 0.94041 0.48058 0.92911 0.0
C231 C 0.98162 0.49118 0.92156 0.0
C232 C 0.9984 0.50492 0.92855 0.0
C233 C 0.97969 0.494 0.90785 0.0
C234 C 0.96235 0.48012 0.89991 0.0
C235 C 0.96402 0.45508 0.89911 0.0
C236 C 0.94922 0.44234 0.89049 0.0
C237 C 0.93245 0.45445 0.88257 0.0
C238 C 0.9302 0.47946 0.88385 0.0
C239 C 0.94513 0.49217 0.89236 0.0
H240 H 0.4966 0.55178 0.18627 0.0
H241 H 0.46884 0.57829 0.19789 0.0
H242 H 0.40873 0.53929 0.18154 0.0
H243 H 0.43661 0.51321 0.16978 0.0
H244 H 0.50308 0.50319 0.18742 0.0
H245 H 0.48216 0.5612 0.1547 0.0
H246 H 0.4577 0.5857 0.13993 0.0
H247 H 0.4261 0.5214 0.12374 0.0
H248 H 0.45012 0.4971 0.13873 0.0
H249 H 0.49906 0.44763 0.13964 0.0
H250 H 0.5228 0.42069 0.12612 0.0
H251 H 0.58777 0.44735 0.14429 0.0
H252 H 0.56388 0.47554 0.15715 0.0
H253 H 0.49774 0.49373 0.13915 0.0
H254 H 0.51425 0.43607 0.1735 0.0
H255 H 0.54038 0.41052 0.18681 0.0
H256 H 0.58051 0.47284 0.19917 0.0
H257 H 0.55422 0.49838 0.18582 0.0
C258 C 0.46865 0.53077 0.17704 0.0
C259 C 0.47744 0.54895 0.18524 0.0
C260 C 0.46154 0.56399 0.19192 0.0
C261 C 0.43654 0.56096 0.19062 0.0
C262 C 0.42785 0.5424 0.18258 0.0
C263 C 0.44375 0.52745 0.17587 0.0
C264 C 0.48543 0.51504 0.16977 0.0
C265 C 0.50215 0.50138 0.17684 0.0
C266 C 0.48397 0.51236 0.15602 0.0
C267 C 0.46789 0.52734 0.14784 0.0
C268 C 0.46964 0.55243 0.14813 0.0
C269 C 0.45582 0.56638 0.13961 0.0
C270 C 0.44002 0.55547 0.13065 0.0
C271 C 0.43788 0.53036 0.13063 0.0
C272 C 0.45173 0.51644 0.13911 0.0
C273 C 0.52961 0.46357 0.14948 0.0
C274 C 0.51843 0.44768 0.14073 0.0
C275 C 0.53207 0.43202 0.1331 0.0
C276 C 0.55728 0.43169 0.13412 0.0
C277 C 0.56843 0.44727 0.14312 0.0
C278 C 0.55475 0.46319 0.15064 0.0
C279 C 0.51488 0.48128 0.15681 0.0
C280 C 0.49867 0.49552 0.14973 0.0
C281 C 0.51671 0.48437 0.17054 0.0
C282 C 0.53244 0.46904 0.17865 0.0
C283 C 0.52869 0.4442 0.17907 0.0
C284 C 0.54351 0.42968 0.18672 0.0
C285 C 0.56241 0.43976 0.19401 0.0
C286 C 0.56616 0.46465 0.19357 0.0
C287 C 0.55112 0.47921 0.18602 0.0
H288 H 0.50504 0.94643 0.3916 0.0
H289 H 0.48253 0.92092 0.37652 0.0
H290 H 0.41629 0.95382 0.38931 0.0
H291 H 0.439 0.97943 0.40444 0.0
H292 H 0.50785 0.99362 0.39017 0.0
H293 H 0.47987 0.93628 0.42096 0.0
H294 H 0.45125 0.91221 0.43327 0.0
H295 H 0.42356 0.97659 0.45149 0.0
H296 H 0.45065 0.00063 0.43821 0.0
H297 H 0.50115 0.05426 0.43583 0.0
H298 H 0.52657 0.0805 0.4493 0.0
H299 H 0.58927 0.0409 0.43691 0.0
H300 H 0.56386 0.01469 0.42363 0.0
H301 H 0.4957 0.00479 0.43793 0.0
H302 H 0.51999 0.0614 0.40421 0.0
H303 H 0.546 0.08447 0.38956 0.0
H304 H 0.58352 0.01942 0.37896 0.0
H305 H 0.55697 0.9965 0.3933 0.0
C306 C 0.47372 0.96486 0.39912 0.0
C307 C 0.48565 0.94802 0.39125 0.0
C308 C 0.47278 0.93351 0.38261 0.0
C309 C 0.44768 0.93556 0.38164 0.0
C310 C 0.43561 0.95175 0.38991 0.0
C311 C 0.44855 0.96638 0.39855 0.0
C312 C 0.48793 0.98196 0.40712 0.0
C313 C 0.50531 0.9958 0.40066 0.0
C314 C 0.48424 0.98525 0.42075 0.0
C315 C 0.46708 0.97038 0.42839 0.0
C316 C 0.46722 0.94527 0.42736 0.0
C317 C 0.4511 0.93144 0.43463 0.0
C318 C 0.43492 0.94235 0.44341 0.0
C319 C 0.43528 0.96749 0.44464 0.0
C320 C 0.45102 0.98131 0.43715 0.0
C321 C 0.53068 0.03268 0.42868 0.0
C322 C 0.52039 0.05134 0.43601 0.0
C323 C 0.5349 0.06634 0.44363 0.0
C324 C 0.55985 0.06265 0.44418 0.0
C325 C 0.57006 0.04399 0.43678 0.0
C326 C 0.55561 0.02915 0.42911 0.0
C327 C 0.51538 0.01628 0.42092 0.0
C328 C 0.49794 0.00258 0.42743 0.0
C329 C 0.51905 0.01287 0.40737 0.0
C330 C 0.53652 0.02726 0.39977 0.0
C331 C 0.53406 0.05223 0.39886 0.0
C332 C 0.54901 0.06538 0.39051 0.0
C333 C 0.5667 0.05377 0.38297 0.0
C334 C 0.56974 0.02887 0.38439 0.0
C335 C 0.55469 0.01575 0.39264 0.0
H336 H 0.00019 0.04313 0.68931 0.0
H337 H 0.97607 0.07047 0.70242 0.0
H338 H 0.91204 0.04596 0.6824 0.0
H339 H 0.93601 0.01703 0.67032 0.0
H340 H 0.00375 0.9985 0.68805 0.0
H341 H 0.9843 0.05703 0.65534 0.0
H342 H 0.96009 0.08324 0.64131 0.0
H343 H 0.9212 0.02155 0.62694 0.0
H344 H 0.94521 0.99553 0.64108 0.0
H345 H 0.9935 0.93859 0.64329 0.0
H346 H 0.01552 0.91072 0.62926 0.0
H347 H 0.0821 0.9459 0.63967 0.0
H348 H 0.05993 0.97325 0.65397 0.0
H349 H 0.99288 0.9884 0.64009 0.0
H350 H 0.01226 0.93096 0.67435 0.0
H351 H 0.03949 0.90556 0.68708 0.0
H352 H 0.08193 0.9677 0.69719 0.0
H353 H 0.05455 0.99309 0.68443 0.0
C354 C 0.97006 0.02826 0.67862 0.0
C355 C 0.98092 0.04347 0.68784 0.0
C356 C 0.96707 0.05937 0.69523 0.0
C357 C 0.94202 0.06075 0.69342 0.0
C358 C 0.93118 0.04533 0.68423 0.0
C359 C 0.94499 0.02904 0.67707 0.0
C360 C 0.98484 0.01114 0.6709 0.0
C361 C 0.00158 0.99667 0.67752 0.0
C362 C 0.98195 0.00831 0.65719 0.0
C363 C 0.96647 0.02436 0.64928 0.0
C364 C 0.97035 0.04922 0.64928 0.0
C365 C 0.95663 0.06414 0.64122 0.0
C366 C 0.93875 0.05443 0.63304 0.0
C367 C 0.93464 0.02958 0.63325 0.0
C368 C 0.94846 0.01468 0.64124 0.0
C369 C 0.0251 0.95793 0.64965 0.0
C370 C 0.01287 0.94009 0.64263 0.0
C371 C 0.02548 0.92427 0.63457 0.0
C372 C 0.05057 0.9262 0.63323 0.0
C373 C 0.06284 0.94371 0.64058 0.0
C374 C 0.0502 0.95942 0.64873 0.0
C375 C 0.01137 0.97586 0.65728 0.0
C376 C 0.99497 0.99046 0.65061 0.0
C377 C 0.01489 0.97916 0.67086 0.0
C378 C 0.03151 0.96383 0.67843 0.0
C379 C 0.02748 0.93908 0.67928 0.0
C380 C 0.04292 0.92465 0.6866 0.0
C381 C 0.06275 0.93472 0.69313 0.0
C382 C 0.06686 0.9595 0.69219 0.0
C383 C 0.05122 0.97399 0.68497 0.0
In384 In 0.30397 0.69677 0.00204 0.0
O385 O 0.29914 0.73028 0.01473 0.0
O386 O 0.32001 0.7333 0.99741 0.0
C387 C 0.2562 0.69348 0.9977 0.0
C388 C 0.32605 0.67391 0.02205 0.0
C389 C 0.323 0.67461 0.98087 0.0
O390 O 0.27052 0.70201 0.98934 0.0
O391 O 0.26586 0.68746 0.00837 0.0
O392 O 0.31128 0.66351 0.98953 0.0
O393 O 0.32533 0.69675 0.98297 0.0
C394 C 0.31187 0.7435 0.0075 0.0
O395 O 0.30451 0.67006 0.01891 0.0
O396 O 0.3367 0.68908 0.01497 0.0
In397 In 0.30483 0.80406 0.25234 0.0
O398 O 0.29735 0.76979 0.24081 0.0
O399 O 0.32222 0.76786 0.25654 0.0
C400 C 0.25878 0.81667 0.25661 0.0
C401 C 0.32245 0.82404 0.23023 0.0
C402 C 0.32682 0.82113 0.27409 0.0
O403 O 0.26592 0.7953 0.25777 0.0
O404 O 0.27481 0.83143 0.25326 0.0
O405 O 0.33291 0.8271 0.26266 0.0
O406 O 0.30967 0.80641 0.27461 0.0
C407 C 0.31183 0.75706 0.24727 0.0
O408 O 0.30067 0.82581 0.23351 0.0
O409 O 0.3353 0.81221 0.23808 0.0
In410 In 0.1932 0.80145 0.503 0.0
O411 O 0.16118 0.81438 0.51489 0.0
O412 O 0.1941 0.80931 0.52503 0.0
C413 C 0.17571 0.82105 0.4808 0.0
C414 C 0.18393 0.75413 0.50485 0.0
C415 C 0.23848 0.81798 0.50045 0.0
O416 O 0.17341 0.83065 0.49192 0.0
O417 O 0.18669 0.80126 0.48082 0.0
O418 O 0.23286 0.7967 0.49755 0.0
O419 O 0.22148 0.83048 0.50489 0.0
C420 C 0.17229 0.81536 0.52565 0.0
O421 O 0.20272 0.76342 0.50956 0.0
O422 O 0.17031 0.76859 0.49895 0.0
In423 In 0.19488 0.69156 0.7521 0.0
O424 O 0.18365 0.66025 0.76499 0.0
O425 O 0.18294 0.695 0.77349 0.0
C426 C 0.17248 0.67408 0.73062 0.0
C427 C 0.24161 0.6796 0.75449 0.0
C428 C 0.18388 0.73818 0.74871 0.0
O429 O 0.16312 0.67388 0.74187 0.0
O430 O 0.19325 0.68308 0.73015 0.0
O431 O 0.20361 0.72943 0.74491 0.0
O432 O 0.17011 0.72353 0.75438 0.0
C433 C 0.17939 0.67283 0.77499 0.0
O434 O 0.23338 0.69906 0.75894 0.0
O435 O 0.22645 0.66671 0.74862 0.0
In436 In 0.80526 0.1924 0.50356 0.0
O437 O 0.79975 0.22829 0.51391 0.0
O438 O 0.82215 0.22766 0.49709 0.0
C439 C 0.75914 0.17909 0.50009 0.0
C440 C 0.82376 0.17517 0.52614 0.0
C441 C 0.82646 0.17298 0.48222 0.0
O442 O 0.76585 0.20061 0.49899 0.0
O443 O 0.77561 0.16454 0.50304 0.0
O444 O 0.83256 0.16778 0.49377 0.0
O445 O 0.80966 0.18804 0.48139 0.0
C446 C 0.81326 0.23987 0.50628 0.0
O447 O 0.80163 0.17425 0.52352 0.0
O448 O 0.83652 0.18481 0.51739 0.0
In449 In 0.80754 0.30694 0.75291 0.0
O450 O 0.83793 0.32255 0.74076 0.0
O451 O 0.80335 0.32099 0.73195 0.0
C452 C 0.82451 0.32969 0.77438 0.0
C453 C 0.82176 0.26135 0.74866 0.0
C454 C 0.7605 0.31275 0.75836 0.0
O455 O 0.82027 0.34044 0.76375 0.0
O456 O 0.82031 0.3075 0.77415 0.0
O457 O 0.77335 0.29726 0.764 0.0
O458 O 0.77117 0.32471 0.74962 0.0
C459 C 0.8252 0.32667 0.73079 0.0
O460 O 0.80124 0.2687 0.74527 0.0
O461 O 0.83461 0.27678 0.75431 0.0
In462 In 0.69355 0.29965 0.00419 0.0
O463 O 0.70459 0.26303 0.01237 0.0
O464 O 0.67453 0.26472 0.99958 0.0
C465 C 0.7385 0.31595 -4e-05 0.0
C466 C 0.67469 0.31351 0.02736 0.0
C467 C 0.67165 0.32022 0.98338 0.0
O468 O 0.73207 0.29516 0.99653 0.0
O469 O 0.72249 0.328 0.00569 0.0
O470 O 0.66928 0.32786 0.99493 0.0
O471 O 0.68489 0.30201 0.98229 0.0
C472 C 0.68777 0.25188 0.00673 0.0
O473 O 0.66213 0.30464 0.01828 0.0
O474 O 0.69679 0.31525 0.02481 0.0
In475 In 0.69554 0.19637 0.25319 0.0
O476 O 0.68153 0.1644 0.26469 0.0
O477 O 0.68362 0.19782 0.27463 0.0
C478 C 0.67597 0.17801 0.23116 0.0
C479 C 0.74233 0.18526 0.25666 0.0
C480 C 0.68293 0.24269 0.24988 0.0
O481 O 0.66639 0.17586 0.24231 0.0
O482 O 0.69548 0.18954 0.23108 0.0
O483 O 0.70361 0.23504 0.24704 0.0
O484 O 0.66895 0.22712 0.25455 0.0
C485 C 0.67823 0.17588 0.2752 0.0
O486 O 0.73203 0.20161 0.26308 0.0
O487 O 0.72924 0.17508 0.24826 0.0
C488 C 0.09266 0.92845 0.29504 0.0
C489 C 0.07545 0.91862 0.30354 0.0
C490 C 0.10795 0.91359 0.2879 0.0
C491 C 0.13644 0.85511 0.28956 0.0
H492 H 0.15688 0.87104 0.25427 0.0
C493 C 0.21728 0.80818 0.26494 0.0
C494 C 0.23393 0.82422 0.25945 0.0
C495 C 0.19433 0.81609 0.26851 0.0
C496 C 0.15133 0.86633 0.26411 0.0
H497 H 0.06026 0.88557 0.31101 0.0
H498 H 0.08726 0.85942 0.29851 0.0
H499 H 0.12248 0.89168 0.26388 0.0
H500 H 0.23943 0.8608 0.25294 0.0
H501 H 0.19965 0.87459 0.25921 0.0
H502 H 0.16593 0.83053 0.29001 0.0
C503 C 0.08885 0.87866 0.29741 0.0
C504 C 0.13164 0.87812 0.26961 0.0
C505 C 0.07335 0.89358 0.30448 0.0
C506 C 0.22698 0.84803 0.25717 0.0
C507 C 0.20409 0.85588 0.26067 0.0
C508 C 0.15619 0.84334 0.28407 0.0
C509 C 0.10646 0.88856 0.28914 0.0
C510 C 0.12449 0.87319 0.28253 0.0
C511 C 0.18761 0.84011 0.26655 0.0
C512 C 0.16432 0.84941 0.27145 0.0
H513 H 0.09448 0.94769 0.29404 0.0
H514 H 0.12153 0.92177 0.28174 0.0
H515 H 0.13146 0.85106 0.29958 0.0
H516 H 0.22216 0.78969 0.26678 0.0
H517 H 0.18195 0.8035 0.27295 0.0
C518 C 0.1022 0.57342 0.55436 0.0
C519 C 0.07722 0.57542 0.5527 0.0
C520 C 0.1178 0.58834 0.54736 0.0
C521 C 0.12173 0.62771 0.51842 0.0
H522 H 0.16612 0.66508 0.53942 0.0
C523 C 0.15454 0.72062 0.50298 0.0
C524 C 0.17705 0.72895 0.50718 0.0
C525 C 0.14638 0.69799 0.50669 0.0
C526 C 0.15431 0.65445 0.5333 0.0
H527 H 0.04897 0.59372 0.54207 0.0
H528 H 0.07616 0.61967 0.52979 0.0
H529 H 0.14425 0.63202 0.54942 0.0
H530 H 0.20936 0.71959 0.51788 0.0
H531 H 0.1953 0.67974 0.52418 0.0
H532 H 0.13137 0.65037 0.50236 0.0
C533 C 0.08371 0.60664 0.5365 0.0
C534 C 0.14172 0.63553 0.53907 0.0
C535 C 0.06815 0.59199 0.54361 0.0
C536 C 0.19185 0.71368 0.51457 0.0
C537 C 0.18372 0.69092 0.51824 0.0
C538 C 0.13449 0.64647 0.51262 0.0
C539 C 0.10866 0.6052 0.53843 0.0
C540 C 0.12475 0.6225 0.53179 0.0
C541 C 0.16061 0.68307 0.51464 0.0
C542 C 0.15033 0.66059 0.5201 0.0
H543 H 0.10961 0.56082 0.56135 0.0
H544 H 0.13697 0.58686 0.54901 0.0
H545 H 0.109 0.61768 0.51255 0.0
H546 H 0.14272 0.73199 0.49728 0.0
H547 H 0.12837 0.69275 0.50388 0.0
C548 C 0.4043 0.56708 0.79742 0.0
C549 C 0.42587 0.57729 0.802 0.0
C550 C 0.38798 0.58068 0.79019 0.0
C551 C 0.36426 0.63955 0.78687 0.0
H552 H 0.33961 0.61776 0.75336 0.0
C553 C 0.28355 0.68666 0.76259 0.0
C554 C 0.26638 0.67136 0.75697 0.0
C555 C 0.30623 0.6779 0.76608 0.0
C556 C 0.34612 0.62403 0.76276 0.0
H557 H 0.44717 0.60998 0.80221 0.0
H558 H 0.41783 0.63398 0.79017 0.0
H559 H 0.37312 0.59666 0.76358 0.0
H560 H 0.25959 0.63511 0.75026 0.0
H561 H 0.29844 0.61964 0.75674 0.0
H562 H 0.33637 0.66581 0.78664 0.0
C563 C 0.41396 0.61529 0.79212 0.0
C564 C 0.36542 0.61203 0.76853 0.0
C565 C 0.4306 0.60155 0.79911 0.0
C566 C 0.2725 0.64738 0.75452 0.0
C567 C 0.29495 0.63855 0.75816 0.0
C568 C 0.34463 0.65128 0.78124 0.0
C569 C 0.39256 0.60492 0.7876 0.0
C570 C 0.37431 0.61942 0.78074 0.0
C571 C 0.31203 0.65357 0.76417 0.0
C572 C 0.33492 0.64331 0.76925 0.0
H573 H 0.39963 0.54871 0.79967 0.0
H574 H 0.37137 0.57243 0.78696 0.0
H575 H 0.37077 0.64543 0.79636 0.0
H576 H 0.27933 0.70528 0.76452 0.0
H577 H 0.31904 0.69012 0.77046 0.0
C578 C 0.42378 0.91953 0.04283 0.0
C579 C 0.41945 0.92502 0.05606 0.0
C580 C 0.40934 0.90296 0.03625 0.0
C581 C 0.35151 0.86986 0.03812 0.0
H582 H 0.38552 0.82315 0.01697 0.0
C583 C 0.31256 0.77751 0.02349 0.0
C584 C 0.31889 0.7681 0.01119 0.0
C585 C 0.32208 0.79939 0.0277 0.0
C586 C 0.37564 0.83628 0.02264 0.0
H587 H 0.39637 0.9178 0.07272 0.0
H588 H 0.37132 0.88864 0.06129 0.0
H589 H 0.40749 0.85627 0.02671 0.0
H590 H 0.33888 0.77483 0.99332 0.0
H591 H 0.35526 0.81311 0.0006 0.0
H592 H 0.31972 0.84931 0.03428 0.0
C593 C 0.3856 0.89743 0.05592 0.0
C594 C 0.38826 0.8553 0.02823 0.0
C595 C 0.39999 0.91409 0.06248 0.0
C596 C 0.33384 0.78155 0.00289 0.0
C597 C 0.34332 0.80341 0.00709 0.0
C598 C 0.33886 0.85075 0.03253 0.0
C599 C 0.39033 0.89142 0.04278 0.0
C600 C 0.37641 0.87219 0.03615 0.0
C601 C 0.3381 0.81224 0.01968 0.0
C602 C 0.35086 0.83363 0.02483 0.0
H603 H 0.4384 0.92799 0.03757 0.0
H604 H 0.4132 0.89905 0.02606 0.0
H605 H 0.3418 0.88276 0.04403 0.0
H606 H 0.30107 0.76752 0.03008 0.0
H607 H 0.31784 0.80562 0.03748 0.0
C608 C 0.07914 0.58167 0.96526 0.0
C609 C 0.07473 0.58496 0.95183 0.0
C610 C 0.09517 0.59665 0.97191 0.0
C611 C 0.12826 0.65442 0.96912 0.0
H612 H 0.17353 0.6233 0.99243 0.0
C613 C 0.22165 0.69231 0.98208 0.0
C614 C 0.2309 0.68791 0.99465 0.0
C615 C 0.19917 0.68329 0.97848 0.0
C616 C 0.16075 0.6324 0.98616 0.0
H617 H 0.08361 0.60647 0.93481 0.0
H618 H 0.11184 0.63232 0.94631 0.0
H619 H 0.14076 0.60023 0.98301 0.0
H620 H 0.22324 0.67214 0.01363 0.0
H621 H 0.18395 0.6565 0.00736 0.0
H622 H 0.14899 0.6864 0.97191 0.0
C623 C 0.10252 0.61858 0.95182 0.0
C624 C 0.14193 0.61916 0.98075 0.0
C625 C 0.08641 0.60371 0.94521 0.0
C626 C 0.21663 0.67568 0.00383 0.0
C627 C 0.1942 0.66661 0.00023 0.0
C628 C 0.14719 0.66766 0.97449 0.0
C629 C 0.10724 0.61513 0.96523 0.0
C630 C 0.12571 0.62989 0.97198 0.0
C631 C 0.18559 0.66966 0.98739 0.0
C632 C 0.16386 0.65667 0.98289 0.0
H633 H 0.07012 0.56757 0.97065 0.0
H634 H 0.09815 0.59371 0.98228 0.0
H635 H 0.11581 0.66334 0.96258 0.0
H636 H 0.23224 0.7017 0.9748 0.0
H637 H 0.1931 0.68581 0.96849 0.0
C638 C 0.4243 0.58552 0.21018 0.0
C639 C 0.41961 0.57744 0.19737 0.0
C640 C 0.40895 0.60192 0.21626 0.0
C641 C 0.36487 0.64867 0.20809 0.0
H642 H 0.35146 0.64721 0.2454 0.0
C643 C 0.30793 0.72207 0.23213 0.0
C644 C 0.31822 0.73241 0.24336 0.0
C645 C 0.31655 0.7003 0.22728 0.0
C646 C 0.35508 0.64784 0.23497 0.0
H647 H 0.39484 0.58002 0.181 0.0
H648 H 0.36778 0.60813 0.19172 0.0
H649 H 0.37388 0.61436 0.23531 0.0
H650 H 0.3446 0.72745 0.25877 0.0
H651 H 0.35978 0.68955 0.25024 0.0
H652 H 0.34658 0.6823 0.20775 0.0
C653 C 0.38351 0.60203 0.19701 0.0
C654 C 0.36796 0.62908 0.2292 0.0
C655 C 0.39889 0.5857 0.19091 0.0
C656 C 0.33634 0.71992 0.25007 0.0
C657 C 0.34495 0.69814 0.24522 0.0
C658 C 0.35198 0.66735 0.21384 0.0
C659 C 0.38853 0.61059 0.20968 0.0
C660 C 0.37329 0.62946 0.21572 0.0
C661 C 0.33562 0.68844 0.23356 0.0
C662 C 0.34721 0.66733 0.22737 0.0
H663 H 0.43992 0.57926 0.2155 0.0
H664 H 0.41349 0.60832 0.22598 0.0
H665 H 0.36901 0.64977 0.19773 0.0
H666 H 0.29383 0.73123 0.22679 0.0
H667 H 0.30873 0.69307 0.21839 0.0
C668 C 0.39464 0.93665 0.45416 0.0
C669 C 0.41765 0.92769 0.45118 0.0
C670 C 0.37844 0.92306 0.46147 0.0
C671 C 0.35953 0.86319 0.46808 0.0
H672 H 0.32918 0.88984 0.49905 0.0
C673 C 0.28162 0.81372 0.49376 0.0
C674 C 0.26241 0.82826 0.4978 0.0
C675 C 0.30355 0.82403 0.4901 0.0
C676 C 0.3373 0.88218 0.49036 0.0
H677 H 0.44152 0.89721 0.45378 0.0
H678 H 0.41254 0.87305 0.46599 0.0
H679 H 0.36161 0.91175 0.48833 0.0
H680 H 0.25119 0.86485 0.5015 0.0
H681 H 0.28879 0.88281 0.49472 0.0
H682 H 0.33434 0.83442 0.46948 0.0
C683 C 0.40741 0.8908 0.46273 0.0
C684 C 0.35597 0.89468 0.48431 0.0
C685 C 0.42387 0.9046 0.45564 0.0
C686 C 0.26572 0.85316 0.49849 0.0
C687 C 0.28744 0.86346 0.49469 0.0
C688 C 0.34052 0.85088 0.47399 0.0
C689 C 0.38465 0.90001 0.46575 0.0
C690 C 0.36691 0.88549 0.47299 0.0
C691 C 0.30657 0.84909 0.49027 0.0
C692 C 0.32879 0.86049 0.48504 0.0
H693 H 0.38888 0.95403 0.45066 0.0
H694 H 0.3608 0.93035 0.46354 0.0
H695 H 0.36767 0.85587 0.4593 0.0
H696 H 0.27958 0.79444 0.49321 0.0
H697 H 0.31799 0.81236 0.48698 0.0
C698 C 0.06931 0.9026 0.7098 0.0
C699 C 0.07893 0.91932 0.70096 0.0
C700 C 0.08438 0.88723 0.71677 0.0
C701 C 0.142 0.8573 0.71418 0.0
H702 H 0.13034 0.84097 0.75058 0.0
C703 C 0.19148 0.77855 0.73878 0.0
C704 C 0.1765 0.76305 0.74591 0.0
C705 C 0.18324 0.8012 0.73498 0.0
C706 C 0.1338 0.84529 0.74041 0.0
H707 H 0.11182 0.93341 0.69261 0.0
H708 H 0.1383 0.9062 0.70472 0.0
H709 H 0.10866 0.87434 0.74063 0.0
H710 H 0.14158 0.75941 0.75513 0.0
H711 H 0.12709 0.79849 0.74834 0.0
H712 H 0.16619 0.82757 0.7137 0.0
C713 C 0.11908 0.90512 0.70627 0.0
C714 C 0.12144 0.86442 0.73473 0.0
C715 C 0.10398 0.92072 0.69941 0.0
C716 C 0.15356 0.77096 0.74963 0.0
C717 C 0.14531 0.7935 0.74582 0.0
C718 C 0.15424 0.83803 0.71982 0.0
C719 C 0.10939 0.88811 0.71495 0.0
C720 C 0.12496 0.8702 0.72148 0.0
C721 C 0.15987 0.80873 0.73823 0.0
C722 C 0.14978 0.83138 0.7329 0.0
H723 H 0.05007 0.90131 0.71126 0.0
H724 H 0.0764 0.87412 0.72327 0.0
H725 H 0.14492 0.86124 0.70391 0.0
H726 H 0.20931 0.77295 0.73583 0.0
H727 H 0.19502 0.81262 0.72929 0.0
C728 C 0.58609 0.42116 0.79685 0.0
C729 C 0.58389 0.42188 0.81055 0.0
C730 C 0.60252 0.40562 0.79093 0.0
C731 C 0.65757 0.3709 0.79885 0.0
H732 H 0.6477 0.34473 0.76401 0.0
C733 C 0.72752 0.30976 0.77483 0.0
C734 C 0.73599 0.31865 0.76281 0.0
C735 C 0.70621 0.31855 0.78023 0.0
C736 C 0.65059 0.35188 0.77377 0.0
H737 H 0.59603 0.40631 0.8288 0.0
H738 H 0.62394 0.37837 0.81852 0.0
H739 H 0.61539 0.36717 0.77465 0.0
H740 H 0.72804 0.34237 0.74655 0.0
H741 H 0.69052 0.35744 0.75591 0.0
H742 H 0.69267 0.35541 0.79797 0.0
C743 C 0.61377 0.39037 0.8123 0.0
C744 C 0.63219 0.36488 0.77984 0.0
C745 C 0.5977 0.40624 0.81821 0.0
C746 C 0.72195 0.33526 0.75585 0.0
C747 C 0.70045 0.34381 0.76117 0.0
C748 C 0.67573 0.35759 0.79288 0.0
C749 C 0.61679 0.39018 0.79859 0.0
C750 C 0.63557 0.37486 0.7924 0.0
C751 C 0.69283 0.33611 0.77361 0.0
C752 C 0.67254 0.34822 0.78023 0.0
H753 H 0.57566 0.43319 0.79077 0.0
H754 H 0.60454 0.40632 0.78038 0.0
H755 H 0.66117 0.37871 0.80836 0.0
H756 H 0.73795 0.29695 0.78041 0.0
H757 H 0.70058 0.31222 0.78979 0.0
C758 C 0.57473 0.08835 0.04492 0.0
C759 C 0.58327 0.07232 0.05443 0.0
C760 C 0.59068 0.10294 0.03801 0.0
C761 C 0.64706 0.1337 0.04191 0.0
H762 H 0.64152 0.14515 0.00454 0.0
C763 C 0.69644 0.21284 0.01792 0.0
C764 C 0.68218 0.22648 0.00936 0.0
C765 C 0.68908 0.18992 0.02178 0.0
C766 C 0.64327 0.14224 0.01499 0.0
H767 H 0.61504 0.05857 0.0641 0.0
H768 H 0.64307 0.08466 0.05219 0.0
H769 H 0.61903 0.11239 0.01458 0.0
H770 H 0.64973 0.22641 0.9976 0.0
H771 H 0.63659 0.18701 0.00454 0.0
H772 H 0.66995 0.16439 0.04259 0.0
C773 C 0.62405 0.08568 0.05 0.0
C774 C 0.63048 0.12341 0.0207 0.0
C775 C 0.60809 0.07076 0.05676 0.0
C776 C 0.66112 0.21633 0.00421 0.0
C777 C 0.65368 0.19358 0.00813 0.0
C778 C 0.6596 0.15275 0.03624 0.0
C779 C 0.61544 0.10201 0.04064 0.0
C780 C 0.63177 0.11938 0.03427 0.0
C781 C 0.66724 0.18029 0.01721 0.0
C782 C 0.6573 0.1577 0.02277 0.0
H783 H 0.55566 0.08975 0.04291 0.0
H784 H 0.58356 0.11556 0.03095 0.0
H785 H 0.6482 0.13108 0.05242 0.0
H786 H 0.71286 0.22018 0.02198 0.0
H787 H 0.70019 0.18003 0.0286 0.0
C788 C 0.91533 0.06823 0.29222 0.0
C789 C 0.92255 0.07473 0.30494 0.0
C790 C 0.8987 0.08216 0.28537 0.0
C791 C 0.86972 0.14187 0.28452 0.0
H792 H 0.81761 0.10738 0.26775 0.0
C793 C 0.77901 0.18537 0.2708 0.0
C794 C 0.76684 0.17685 0.25968 0.0
C795 C 0.80066 0.1749 0.27472 0.0
C796 C 0.83225 0.11734 0.27215 0.0
H797 H 0.91814 0.10111 0.32039 0.0
H798 H 0.88909 0.1254 0.30843 0.0
H799 H 0.85049 0.08519 0.27764 0.0
H800 H 0.76847 0.1518 0.24344 0.0
H801 H 0.80646 0.13384 0.25013 0.0
H802 H 0.85115 0.17405 0.27921 0.0
C803 C 0.89656 0.10971 0.30368 0.0
C804 C 0.8511 0.10459 0.27784 0.0
C805 C 0.91318 0.09577 0.31054 0.0
C806 C 0.77736 0.1586 0.25213 0.0
C807 C 0.79904 0.14822 0.25601 0.0
C808 C 0.85085 0.15466 0.27878 0.0
C809 C 0.88892 0.1029 0.29108 0.0
C810 C 0.86989 0.11668 0.28423 0.0
C811 C 0.81059 0.15577 0.26755 0.0
C812 C 0.83175 0.14252 0.27267 0.0
H813 H 0.92256 0.05236 0.28754 0.0
H814 H 0.89343 0.07664 0.2756 0.0
H815 H 0.88412 0.15169 0.28923 0.0
H816 H 0.7713 0.1994 0.27682 0.0
H817 H 0.80896 0.18103 0.28372 0.0
C818 C 0.92545 0.41716 0.53894 0.0
C819 C 0.91951 0.42342 0.55189 0.0
C820 C 0.91153 0.40057 0.53204 0.0
C821 C 0.85255 0.36956 0.53206 0.0
H822 H 0.88751 0.3196 0.51379 0.0
C823 C 0.81276 0.27672 0.5202 0.0
C824 C 0.82032 0.26496 0.50875 0.0
C825 C 0.8223 0.29907 0.52353 0.0
C826 C 0.87739 0.33365 0.5186 0.0
H827 H 0.89422 0.41732 0.56772 0.0
H828 H 0.87003 0.3883 0.55572 0.0
H829 H 0.90934 0.35309 0.52329 0.0
H830 H 0.84254 0.26796 0.49136 0.0
H831 H 0.85898 0.30712 0.4971 0.0
H832 H 0.82063 0.34965 0.52766 0.0
C833 C 0.88518 0.39651 0.5508 0.0
C834 C 0.88994 0.35286 0.52407 0.0
C835 C 0.89908 0.41311 0.55769 0.0
C836 C 0.83652 0.27654 0.50031 0.0
C837 C 0.84603 0.29889 0.50363 0.0
C838 C 0.83998 0.35031 0.52658 0.0
C839 C 0.89139 0.38987 0.53795 0.0
C840 C 0.87771 0.37081 0.53106 0.0
C841 C 0.83956 0.31008 0.51546 0.0
C842 C 0.85232 0.33193 0.51999 0.0
H843 H 0.94086 0.42511 0.53413 0.0
H844 H 0.91659 0.39606 0.52209 0.0
H845 H 0.84259 0.38332 0.53721 0.0
H846 H 0.80028 0.26821 0.52689 0.0
H847 H 0.81708 0.30709 0.53277 0.0
C848 C 0.57313 0.10299 0.45235 0.0
C849 C 0.57533 0.0779 0.45254 0.0
C850 C 0.58891 0.11729 0.45963 0.0
C851 C 0.63304 0.11541 0.4868 0.0
H852 H 0.66542 0.16586 0.46754 0.0
C853 C 0.72806 0.14699 0.49926 0.0
C854 C 0.73432 0.17114 0.49748 0.0
C855 C 0.70526 0.1388 0.4958 0.0
C856 C 0.65623 0.15221 0.47319 0.0
H857 H 0.59491 0.04806 0.46094 0.0
H858 H 0.6225 0.07292 0.47353 0.0
H859 H 0.631 0.14561 0.45776 0.0
H860 H 0.72137 0.20589 0.49115 0.0
H861 H 0.68132 0.19153 0.48509 0.0
H862 H 0.65875 0.12146 0.50204 0.0
C863 C 0.6086 0.0816 0.46782 0.0
C864 C 0.6365 0.14059 0.46757 0.0
C865 C 0.593 0.06737 0.46049 0.0
C866 C 0.71704 0.18715 0.49258 0.0
C867 C 0.69418 0.17892 0.48907 0.0
C868 C 0.65271 0.12705 0.49243 0.0
C869 C 0.60696 0.10671 0.46734 0.0
C870 C 0.6252 0.12157 0.47415 0.0
C871 C 0.68817 0.15457 0.49047 0.0
C872 C 0.66499 0.14505 0.4855 0.0
H873 H 0.55969 0.11156 0.44627 0.0
H874 H 0.58717 0.1366 0.45912 0.0
H875 H 0.62439 0.10109 0.4922 0.0
H876 H 0.741 0.13423 0.50303 0.0
H877 H 0.70137 0.11988 0.49683 0.0
C878 C 0.90353 0.07312 0.70464 0.0
C879 C 0.92736 0.07838 0.70094 0.0
C880 C 0.88965 0.09004 0.71134 0.0
C881 C 0.89296 0.14034 0.73342 0.0
H882 H 0.83683 0.16656 0.71608 0.0
C883 C 0.85543 0.23223 0.74715 0.0
C884 C 0.83091 0.23722 0.74553 0.0
C885 C 0.86485 0.2102 0.7433 0.0
C886 C 0.85207 0.15911 0.72126 0.0
H887 H 0.955 0.10592 0.70143 0.0
H888 H 0.93112 0.13477 0.71368 0.0
H889 H 0.85768 0.13231 0.70647 0.0
H890 H 0.79676 0.22278 0.73908 0.0
H891 H 0.81306 0.18377 0.73273 0.0
H892 H 0.88748 0.16673 0.74828 0.0
C893 C 0.92331 0.11752 0.71129 0.0
C894 C 0.86405 0.13958 0.71569 0.0
C895 C 0.937 0.10088 0.70434 0.0
C896 C 0.81578 0.21942 0.74037 0.0
C897 C 0.82517 0.19715 0.73667 0.0
C898 C 0.88075 0.15952 0.73913 0.0
C899 C 0.89951 0.1123 0.71475 0.0
C900 C 0.88496 0.13055 0.72155 0.0
C901 C 0.84992 0.19239 0.73791 0.0
C902 C 0.86061 0.1697 0.7329 0.0
H903 H 0.89556 0.05587 0.70246 0.0
H904 H 0.87131 0.08568 0.71398 0.0
H905 H 0.90895 0.13342 0.73815 0.0
H906 H 0.86758 0.24565 0.75102 0.0
H907 H 0.88405 0.20753 0.74415 0.0
C908 C 0.91622 0.40608 0.94929 0.0
C909 C 0.91649 0.4311 0.95077 0.0
C910 C 0.89894 0.39224 0.95577 0.0
C911 C 0.83877 0.39866 0.97067 0.0
H912 H 0.85091 0.33514 0.9846 0.0
C913 C 0.76749 0.34989 0.0006 0.0
C914 C 0.76205 0.32642 0.99659 0.0
C915 C 0.78822 0.36125 0.99612 0.0
C916 C 0.84731 0.35281 0.98068 0.0
H917 H 0.90002 0.46118 0.96074 0.0
H918 H 0.87033 0.43713 0.97231 0.0
H919 H 0.8839 0.35799 0.97475 0.0
H920 H 0.77468 0.29594 0.98535 0.0
H921 H 0.81114 0.31595 0.97747 0.0
H922 H 0.80234 0.39364 0.97662 0.0
C923 C 0.88284 0.42816 0.96583 0.0
C924 C 0.86613 0.36587 0.97502 0.0
C925 C 0.89989 0.44195 0.95925 0.0
C926 C 0.77842 0.31406 0.98857 0.0
C927 C 0.79929 0.32547 0.9841 0.0
C928 C 0.82011 0.38574 0.97639 0.0
C929 C 0.88177 0.4032 0.96394 0.0
C930 C 0.86207 0.38902 0.97001 0.0
C931 C 0.80399 0.34941 0.98755 0.0
C932 C 0.82417 0.36276 0.98152 0.0
H933 H 0.9288 0.39732 0.94275 0.0
H934 H 0.89852 0.37311 0.95402 0.0
H935 H 0.8348 0.41612 0.96659 0.0
H936 H 0.75534 0.35981 0.00687 0.0
H937 H 0.79162 0.37957 0.99912 0.0
C938 C 0.56797 0.40674 0.21027 0.0
C939 C 0.5781 0.42421 0.20205 0.0
C940 C 0.58265 0.39119 0.21736 0.0
C941 C 0.64116 0.36261 0.21596 0.0
H942 H 0.62601 0.34349 0.25156 0.0
C943 C 0.69025 0.28381 0.24085 0.0
C944 C 0.67496 0.26739 0.24712 0.0
C945 C 0.6817 0.30638 0.23711 0.0
C946 C 0.63046 0.3486 0.24161 0.0
H947 H 0.61148 0.43942 0.19495 0.0
H948 H 0.63727 0.41192 0.2073 0.0
H949 H 0.60462 0.37703 0.2416 0.0
H950 H 0.63908 0.26199 0.25486 0.0
H951 H 0.6241 0.30098 0.2482 0.0
H952 H 0.66615 0.33353 0.21569 0.0
C953 C 0.61795 0.41038 0.20826 0.0
C954 C 0.61825 0.36782 0.23593 0.0
C955 C 0.60323 0.42616 0.20126 0.0
C956 C 0.6513 0.27426 0.25004 0.0
C957 C 0.64276 0.29673 0.2463 0.0
C958 C 0.65327 0.34326 0.2216 0.0
C959 C 0.60777 0.39264 0.2163 0.0
C960 C 0.62304 0.37461 0.22294 0.0
C961 C 0.65771 0.31292 0.23959 0.0
C962 C 0.64758 0.33562 0.23437 0.0
H963 H 0.54864 0.405 0.21113 0.0
H964 H 0.57429 0.37751 0.22336 0.0
H965 H 0.64508 0.36733 0.20588 0.0
H966 H 0.70861 0.27901 0.23852 0.0
H967 H 0.69375 0.31855 0.2321 0.0
C968 C 0.08646 0.94146 0.39501 0.0
C969 C 0.08293 0.93171 0.38245 0.0
C970 C 0.09886 0.92865 0.40459 0.0
C971 C 0.11601 0.86751 0.4142 0.0
H972 H 0.15801 0.90135 0.43826 0.0
C973 C 0.16792 0.82073 0.45657 0.0
C974 C 0.16663 0.83251 0.46873 0.0
C975 C 0.15949 0.83194 0.44519 0.0
C976 C 0.14626 0.89168 0.43164 0.0
H977 H 0.08991 0.90089 0.37007 0.0
H978 H 0.1117 0.87841 0.38688 0.0
H979 H 0.1406 0.92262 0.4197 0.0
H980 H 0.15549 0.86516 0.47854 0.0
H981 H 0.14086 0.88466 0.45875 0.0
H982 H 0.12157 0.8366 0.4263 0.0
C983 C 0.10464 0.89594 0.38931 0.0
C984 C 0.13627 0.90385 0.42102 0.0
C985 C 0.09218 0.90881 0.37969 0.0
C986 C 0.15677 0.85564 0.46931 0.0
C987 C 0.14853 0.86688 0.45796 0.0
C988 C 0.12611 0.85528 0.42482 0.0
C989 C 0.10808 0.90574 0.40188 0.0
C990 C 0.1206 0.89206 0.41234 0.0
C991 C 0.14986 0.85521 0.44577 0.0
C992 C 0.14093 0.86739 0.43381 0.0
H993 H 0.0791 0.95881 0.39757 0.0
H994 H 0.1007 0.93652 0.41425 0.0
H995 H 0.10386 0.85796 0.40775 0.0
H996 H 0.17544 0.80288 0.45584 0.0
H997 H 0.16082 0.82257 0.43591 0.0
C998 C 0.0496 0.58321 0.64484 0.0
C999 C 0.05992 0.58082 0.63233 0.0
C1000 C 0.06232 0.59406 0.65502 0.0
C1001 C 0.11307 0.63423 0.66241 0.0
H1002 H 0.11025 0.60333 0.69643 0.0
C1003 C 0.17145 0.66403 0.70667 0.0
C1004 C 0.16011 0.66429 0.71898 0.0
C1005 C 0.15977 0.65428 0.69576 0.0
C1006 C 0.11103 0.61234 0.68703 0.0
H1007 H 0.09152 0.58849 0.62062 0.0
H1008 H 0.11393 0.6073 0.63853 0.0
H1009 H 0.08888 0.5858 0.67795 0.0
H1010 H 0.12756 0.65496 0.72949 0.0
H1011 H 0.10712 0.63824 0.71046 0.0
H1012 H 0.13519 0.66086 0.67157 0.0
C1013 C 0.0959 0.60086 0.64039 0.0
C1014 C 0.09878 0.60228 0.67644 0.0
C1015 C 0.08315 0.58992 0.63018 0.0
C1016 C 0.13682 0.65488 0.72014 0.0
C1017 C 0.12516 0.64517 0.70925 0.0
C1018 C 0.12533 0.64435 0.67304 0.0
C1019 C 0.08571 0.60276 0.65296 0.0
C1020 C 0.09947 0.61322 0.66404 0.0
C1021 C 0.13655 0.64459 0.69695 0.0
C1022 C 0.12425 0.63361 0.6855 0.0
H1023 H 0.03188 0.57613 0.64689 0.0
H1024 H 0.05385 0.59554 0.66454 0.0
H1025 H 0.11379 0.64317 0.65299 0.0
H1026 H 0.18942 0.67115 0.7055 0.0
H1027 H 0.16911 0.65391 0.68644 0.0
C1028 C 0.40539 0.56173 0.88755 0.0
C1029 C 0.42263 0.57517 0.88068 0.0
C1030 C 0.39179 0.57233 0.89751 0.0
C1031 C 0.37264 0.63051 0.91135 0.0
H1032 H 0.37041 0.59559 0.94419 0.0
C1033 C 0.34666 0.67591 0.96007 0.0
C1034 C 0.3328 0.66281 0.96907 0.0
C1035 C 0.35576 0.6649 0.94881 0.0
C1036 C 0.3705 0.60545 0.93505 0.0
H1037 H 0.43829 0.61048 0.87836 0.0
H1038 H 0.41459 0.62899 0.89578 0.0
H1039 H 0.38861 0.57706 0.92499 0.0
H1040 H 0.3174 0.62798 0.97331 0.0
H1041 H 0.33301 0.60879 0.95355 0.0
H1042 H 0.35466 0.65897 0.92142 0.0
C1043 C 0.41156 0.61028 0.89347 0.0
C1044 C 0.38094 0.59481 0.92404 0.0
C1045 C 0.42526 0.59965 0.88357 0.0
C1046 C 0.32815 0.63849 0.96658 0.0
C1047 C 0.33717 0.62749 0.95529 0.0
C1048 C 0.36209 0.64111 0.92235 0.0
C1049 C 0.39504 0.59661 0.90073 0.0
C1050 C 0.38236 0.60732 0.91211 0.0
C1051 C 0.35111 0.64056 0.94627 0.0
C1052 C 0.36115 0.62882 0.93438 0.0
H1053 H 0.40309 0.54278 0.88561 0.0
H1054 H 0.37901 0.56141 0.90284 0.0
H1055 H 0.37321 0.64047 0.90224 0.0
H1056 H 0.3506 0.69467 0.96175 0.0
H1057 H 0.36676 0.67541 0.94221 0.0
C1058 C 0.4331 0.91391 0.13973 0.0
C1059 C 0.42182 0.93259 0.13285 0.0
C1060 C 0.4206 0.90097 0.14925 0.0
C1061 C 0.36844 0.90586 0.1714 0.0
H1062 H 0.37981 0.83794 0.17654 0.0
C1063 C 0.31787 0.85031 0.21051 0.0
C1064 C 0.33223 0.83519 0.21824 0.0
C1065 C 0.32736 0.86133 0.19935 0.0
C1066 C 0.37655 0.85693 0.17525 0.0
H1067 H 0.38834 0.95183 0.13025 0.0
H1068 H 0.36636 0.92905 0.14681 0.0
H1069 H 0.39862 0.85851 0.15811 0.0
H1070 H 0.36764 0.81945 0.22027 0.0
H1071 H 0.38421 0.83866 0.20078 0.0
H1072 H 0.34645 0.90424 0.1886 0.0
C1073 C 0.38504 0.92471 0.14501 0.0
C1074 C 0.38735 0.86873 0.16471 0.0
C1075 C 0.39759 0.93772 0.13551 0.0
C1076 C 0.35615 0.83102 0.2145 0.0
C1077 C 0.36559 0.8419 0.2033 0.0
C1078 C 0.35755 0.89401 0.18191 0.0
C1079 C 0.39647 0.90634 0.15209 0.0
C1080 C 0.38368 0.89341 0.16276 0.0
C1081 C 0.35134 0.85728 0.19564 0.0
C1082 C 0.36173 0.8695 0.18404 0.0
H1083 H 0.45187 0.90977 0.13805 0.0
H1084 H 0.43011 0.88724 0.15466 0.0
H1085 H 0.36551 0.92493 0.17032 0.0
H1086 H 0.29934 0.85382 0.21315 0.0
H1087 H 0.3159 0.87293 0.19357 0.0
C1088 C 0.09287 0.56375 0.86788 0.0
C1089 C 0.07629 0.5773 0.87516 0.0
C1090 C 0.10639 0.57447 0.85796 0.0
C1091 C 0.12857 0.63179 0.84514 0.0
H1092 H 0.1257 0.59968 0.81144 0.0
C1093 C 0.16014 0.67697 0.79705 0.0
C1094 C 0.17035 0.66237 0.78732 0.0
C1095 C 0.15036 0.66677 0.80838 0.0
C1096 C 0.12713 0.60872 0.82081 0.0
H1097 H 0.06163 0.61285 0.8782 0.0
H1098 H 0.08552 0.63169 0.86087 0.0
H1099 H 0.10643 0.58158 0.83039 0.0
H1100 H 0.17929 0.62585 0.78199 0.0
H1101 H 0.16309 0.60812 0.80191 0.0
H1102 H 0.14953 0.65882 0.83561 0.0
C1103 C 0.08794 0.61277 0.86284 0.0
C1104 C 0.11598 0.59834 0.83166 0.0
C1105 C 0.07419 0.60198 0.87267 0.0
C1106 C 0.17128 0.63751 0.78928 0.0
C1107 C 0.16183 0.62735 0.80067 0.0
C1108 C 0.14002 0.64206 0.8343 0.0
C1109 C 0.1038 0.599 0.85521 0.0
C1110 C 0.11649 0.6098 0.84391 0.0
C1111 C 0.15088 0.64179 0.81028 0.0
C1112 C 0.13935 0.6307 0.82197 0.0
H1113 H 0.09471 0.54466 0.86951 0.0
H1114 H 0.11863 0.5635 0.85229 0.0
H1115 H 0.12934 0.64091 0.85451 0.0
H1116 H 0.15912 0.69621 0.79575 0.0
H1117 H 0.14181 0.67845 0.81546 0.0
C1118 C 0.4386 0.58845 0.11399 0.0
C1119 C 0.42684 0.56998 0.12081 0.0
C1120 C 0.42691 0.60074 0.10391 0.0
C1121 C 0.37753 0.59323 0.08025 0.0
H1122 H 0.38622 0.66139 0.07454 0.0
C1123 C 0.32476 0.64518 0.0408 0.0
C1124 C 0.33757 0.66207 0.03336 0.0
C1125 C 0.33532 0.63437 0.05171 0.0
C1126 C 0.38382 0.64229 0.07594 0.0
H1127 H 0.39323 0.5507 0.12284 0.0
H1128 H 0.37274 0.57227 0.1053 0.0
H1129 H 0.40466 0.64234 0.09359 0.0
H1130 H 0.37148 0.68086 0.03146 0.0
H1131 H 0.39005 0.66181 0.05049 0.0
H1132 H 0.35678 0.59314 0.0626 0.0
C1133 C 0.39117 0.57691 0.10756 0.0
C1134 C 0.39435 0.63139 0.08686 0.0
C1135 C 0.40288 0.56459 0.11762 0.0
C1136 C 0.36118 0.66789 0.03701 0.0
C1137 C 0.37174 0.65712 0.04796 0.0
C1138 C 0.36698 0.60413 0.06936 0.0
C1139 C 0.40319 0.59486 0.10045 0.0
C1140 C 0.39137 0.60672 0.08912 0.0
C1141 C 0.35891 0.64026 0.05544 0.0
C1142 C 0.37006 0.62876 0.06706 0.0
H1143 H 0.45717 0.59281 0.1161 0.0
H1144 H 0.43678 0.61426 0.09853 0.0
H1145 H 0.37525 0.5741 0.08156 0.0
H1146 H 0.30648 0.6404 0.03824 0.0
H1147 H 0.32486 0.62166 0.05735 0.0
C1148 C 0.44378 0.92061 0.35865 0.0
C1149 C 0.43451 0.9219 0.37144 0.0
C1150 C 0.43162 0.90797 0.34891 0.0
C1151 C 0.372 0.88385 0.34001 0.0
H1152 H 0.40924 0.84873 0.31423 0.0
C1153 C 0.32919 0.82674 0.29843 0.0
C1154 C 0.33877 0.8308 0.28588 0.0
C1155 C 0.3404 0.83634 0.30954 0.0
C1156 C 0.39861 0.85853 0.32133 0.0
H1157 H 0.40517 0.91097 0.38406 0.0
H1158 H 0.38393 0.88848 0.367 0.0
H1159 H 0.42959 0.86787 0.3326 0.0
H1160 H 0.36762 0.84791 0.27509 0.0
H1161 H 0.3873 0.86443 0.29446 0.0
H1162 H 0.341 0.87433 0.32865 0.0
C1163 C 0.40051 0.89754 0.36449 0.0
C1164 C 0.41025 0.86957 0.33184 0.0
C1165 C 0.41267 0.91037 0.37426 0.0
C1166 C 0.35984 0.84445 0.28464 0.0
C1167 C 0.37117 0.85381 0.29573 0.0
C1168 C 0.36031 0.87261 0.32953 0.0
C1169 C 0.40991 0.89615 0.3517 0.0
C1170 C 0.39716 0.88277 0.34117 0.0
C1171 C 0.36156 0.84989 0.30828 0.0
C1172 C 0.37358 0.86022 0.31996 0.0
H1173 H 0.4603 0.92976 0.3561 0.0
H1174 H 0.43909 0.90782 0.3391 0.0
H1175 H 0.36138 0.89404 0.34694 0.0
H1176 H 0.31293 0.8163 0.29967 0.0
H1177 H 0.33269 0.83295 0.31911 0.0
C1178 C 0.08671 0.90202 0.62637 0.0
C1179 C 0.06362 0.91097 0.62361 0.0
C1180 C 0.09925 0.88867 0.61698 0.0
C1181 C 0.09073 0.85352 0.5866 0.0
H1182 H 0.15672 0.87108 0.57908 0.0
C1183 C 0.13629 0.8299 0.53784 0.0
C1184 C 0.16062 0.82332 0.5379 0.0
C1185 C 0.12522 0.83798 0.54929 0.0
C1186 C 0.13844 0.86565 0.5812 0.0
H1187 H 0.03579 0.91302 0.60874 0.0
H1188 H 0.05746 0.88958 0.59253 0.0
H1189 H 0.13591 0.88965 0.59754 0.0
H1190 H 0.19243 0.81972 0.55001 0.0
H1191 H 0.17299 0.83375 0.57011 0.0
H1192 H 0.09306 0.82983 0.57016 0.0
C1193 C 0.06573 0.89257 0.60201 0.0
C1194 C 0.12653 0.8763 0.59178 0.0
C1195 C 0.05329 0.90599 0.61133 0.0
C1196 C 0.17365 0.82474 0.54968 0.0
C1197 C 0.16255 0.83286 0.56116 0.0
C1198 C 0.10263 0.84284 0.57607 0.0
C1199 C 0.0889 0.88389 0.60468 0.0
C1200 C 0.10238 0.87072 0.59441 0.0
C1201 C 0.13822 0.83964 0.56108 0.0
C1202 C 0.12645 0.84916 0.57307 0.0
H1203 H 0.09508 0.90529 0.63579 0.0
H1204 H 0.11701 0.88203 0.61935 0.0
H1205 H 0.07225 0.84854 0.58854 0.0
H1206 H 0.12579 0.82906 0.52891 0.0
H1207 H 0.10657 0.84344 0.54883 0.0
C1208 C 0.57296 0.44263 0.90052 0.0
C1209 C 0.57315 0.43454 0.88747 0.0
C1210 C 0.5844 0.42955 0.91034 0.0
C1211 C 0.607 0.3693 0.91857 0.0
H1212 H 0.64183 0.40406 0.94549 0.0
C1213 C 0.66298 0.32275 0.95931 0.0
C1214 C 0.66037 0.33214 0.97202 0.0
C1215 C 0.65286 0.33455 0.94855 0.0
C1216 C 0.63201 0.39411 0.9381 0.0
H1217 H 0.58543 0.40631 0.87449 0.0
H1218 H 0.60562 0.38339 0.89172 0.0
H1219 H 0.62365 0.42591 0.92738 0.0
H1220 H 0.64491 0.36105 0.98347 0.0
H1221 H 0.62724 0.38159 0.96472 0.0
H1222 H 0.61544 0.33746 0.92938 0.0
C1223 C 0.59638 0.39978 0.89434 0.0
C1224 C 0.62158 0.40662 0.92773 0.0
C1225 C 0.58485 0.4129 0.88448 0.0
C1226 C 0.64728 0.35341 0.97379 0.0
C1227 C 0.63729 0.36525 0.96304 0.0
C1228 C 0.61753 0.35674 0.92896 0.0
C1229 C 0.59637 0.40805 0.90737 0.0
C1230 C 0.60866 0.39442 0.91794 0.0
C1231 C 0.64009 0.35605 0.9503 0.0
C1232 C 0.62987 0.36907 0.93892 0.0
H1233 H 0.56365 0.45896 0.90319 0.0
H1234 H 0.58356 0.43615 0.92032 0.0
H1235 H 0.59698 0.35939 0.91125 0.0
H1236 H 0.67299 0.30638 0.95767 0.0
H1237 H 0.65544 0.32712 0.93884 0.0
C1238 C 0.5715 0.10115 0.13438 0.0
C1239 C 0.57528 0.07672 0.13171 0.0
C1240 C 0.58462 0.11271 0.14422 0.0
C1241 C 0.61635 0.09921 0.17483 0.0
H1242 H 0.63921 0.16468 0.17208 0.0
C1243 C 0.6442 0.15371 0.22013 0.0
C1244 C 0.66532 0.16739 0.21924 0.0
C1245 C 0.63436 0.14306 0.20897 0.0
C1246 C 0.63309 0.14633 0.17295 0.0
H1247 H 0.59624 0.04544 0.13706 0.0
H1248 H 0.61937 0.06571 0.15405 0.0
H1249 H 0.62108 0.14522 0.15299 0.0
H1250 H 0.69254 0.18093 0.20597 0.0
H1251 H 0.67531 0.16222 0.18641 0.0
H1252 H 0.62833 0.10021 0.19474 0.0
C1253 C 0.60609 0.07586 0.14863 0.0
C1254 C 0.62253 0.13527 0.16206 0.0
C1255 C 0.59303 0.06432 0.13879 0.0
C1256 C 0.67625 0.17048 0.20694 0.0
C1257 C 0.66633 0.15987 0.19574 0.0
C1258 C 0.62678 0.11027 0.1857 0.0
C1259 C 0.60173 0.10006 0.15162 0.0
C1260 C 0.61395 0.11162 0.16291 0.0
C1261 C 0.64538 0.14589 0.19667 0.0
C1262 C 0.63509 0.13401 0.18492 0.0
H1263 H 0.55813 0.11125 0.129 0.0
H1264 H 0.58074 0.13134 0.14634 0.0
H1265 H 0.60966 0.08108 0.17585 0.0
H1266 H 0.63532 0.15109 0.22947 0.0
H1267 H 0.618 0.1327 0.20997 0.0
C1268 C 0.94542 0.076 0.39726 0.0
C1269 C 0.93678 0.07634 0.38432 0.0
C1270 C 0.93234 0.08669 0.40735 0.0
C1271 C 0.88678 0.13197 0.41455 0.0
H1272 H 0.87871 0.0958 0.44671 0.0
C1273 C 0.82912 0.16646 0.45796 0.0
C1274 C 0.8381 0.16221 0.47062 0.0
C1275 C 0.84007 0.15596 0.44704 0.0
C1276 C 0.88102 0.10628 0.43787 0.0
H1277 H 0.90789 0.08852 0.37173 0.0
H1278 H 0.88496 0.10748 0.38947 0.0
H1279 H 0.89997 0.07787 0.4283 0.0
H1280 H 0.86574 0.144 0.48179 0.0
H1281 H 0.88517 0.12617 0.46277 0.0
H1282 H 0.8683 0.16061 0.42422 0.0
C1283 C 0.90189 0.09887 0.39174 0.0
C1284 C 0.89313 0.09595 0.42731 0.0
C1285 C 0.91491 0.08793 0.38164 0.0
C1286 C 0.85832 0.14746 0.47215 0.0
C1287 C 0.86935 0.13711 0.46125 0.0
C1288 C 0.87479 0.14241 0.42517 0.0
C1289 C 0.91038 0.09809 0.40472 0.0
C1290 C 0.89637 0.10877 0.4156 0.0
C1291 C 0.86029 0.1411 0.44856 0.0
C1292 C 0.87201 0.12977 0.43701 0.0
H1293 H 0.96206 0.06695 0.39966 0.0
H1294 H 0.93943 0.08604 0.41723 0.0
H1295 H 0.88917 0.1423 0.40565 0.0
H1296 H 0.81349 0.17771 0.45651 0.0
H1297 H 0.83247 0.1592 0.43743 0.0
C1298 C 0.9334 0.41537 0.63839 0.0
C1299 C 0.91991 0.43066 0.63031 0.0
C1300 C 0.92241 0.40293 0.64863 0.0
C1301 C 0.8651 0.38031 0.66109 0.0
H1302 H 0.89537 0.38698 0.69514 0.0
C1303 C 0.8202 0.34662 0.70895 0.0
C1304 C 0.83528 0.33738 0.71876 0.0
C1305 C 0.82998 0.3574 0.69778 0.0
C1306 C 0.88685 0.38454 0.68569 0.0
H1307 H 0.8842 0.44423 0.62626 0.0
H1308 H 0.86483 0.42214 0.64414 0.0
H1309 H 0.91344 0.40595 0.67609 0.0
H1310 H 0.87233 0.33142 0.72441 0.0
H1311 H 0.88939 0.34936 0.7048 0.0
H1312 H 0.83874 0.35847 0.67062 0.0
C1313 C 0.88395 0.41992 0.64255 0.0
C1314 C 0.89719 0.39552 0.67479 0.0
C1315 C 0.89502 0.43264 0.63239 0.0
C1316 C 0.86026 0.33864 0.71707 0.0
C1317 C 0.87003 0.34909 0.70585 0.0
C1318 C 0.85488 0.36902 0.672 0.0
C1319 C 0.89764 0.40532 0.65091 0.0
C1320 C 0.88646 0.39349 0.66238 0.0
C1321 C 0.85505 0.3589 0.69612 0.0
C1322 C 0.86567 0.37096 0.68445 0.0
H1323 H 0.95265 0.41367 0.6371 0.0
H1324 H 0.93333 0.39163 0.65487 0.0
H1325 H 0.85656 0.37838 0.65161 0.0
H1326 H 0.80085 0.34593 0.71003 0.0
H1327 H 0.81787 0.365 0.69059 0.0
C1328 C 0.5891 0.09063 0.37552 0.0
C1329 C 0.58092 0.0672 0.37305 0.0
C1330 C 0.60169 0.10336 0.3659 0.0
C1331 C 0.63683 0.09489 0.33557 0.0
H1332 H 0.61782 0.16008 0.3275 0.0
C1333 C 0.66244 0.14006 0.28702 0.0
C1334 C 0.66876 0.16441 0.28717 0.0
C1335 C 0.65341 0.12906 0.29828 0.0
C1336 C 0.62362 0.14203 0.32976 0.0
H1337 H 0.57923 0.03902 0.35838 0.0
H1338 H 0.60139 0.061 0.34178 0.0
H1339 H 0.59938 0.13931 0.34602 0.0
H1340 H 0.67069 0.19638 0.29922 0.0
H1341 H 0.65509 0.17708 0.31898 0.0
H1342 H 0.66087 0.09742 0.31928 0.0
C1343 C 0.59841 0.06941 0.35122 0.0
C1344 C 0.61305 0.13014 0.34036 0.0
C1345 C 0.58574 0.05678 0.36077 0.0
C1346 C 0.66591 0.17758 0.29882 0.0
C1347 C 0.65688 0.16655 0.3101 0.0
C1348 C 0.64744 0.10677 0.32501 0.0
C1349 C 0.60646 0.09284 0.35365 0.0
C1350 C 0.61923 0.10629 0.34322 0.0
C1351 C 0.65055 0.14215 0.30996 0.0
C1352 C 0.64064 0.13031 0.32183 0.0
H1353 H 0.58589 0.0991 0.38492 0.0
H1354 H 0.60784 0.12134 0.36807 0.0
H1355 H 0.64227 0.07665 0.33768 0.0
H1356 H 0.66433 0.12946 0.27818 0.0
H1357 H 0.64831 0.11036 0.29775 0.0
C1358 C 0.90033 0.06686 0.62214 0.0
C1359 C 0.92519 0.06992 0.62384 0.0
C1360 C 0.8879 0.08023 0.61275 0.0
C1361 C 0.89283 0.13369 0.59113 0.0
H1362 H 0.84623 0.09936 0.56998 0.0
C1363 C 0.85858 0.16805 0.54112 0.0
C1364 C 0.83402 0.16525 0.53833 0.0
C1365 C 0.86848 0.158 0.55244 0.0
C1366 C 0.85895 0.10929 0.57592 0.0
H1367 H 0.95647 0.08957 0.61716 0.0
H1368 H 0.9349 0.11267 0.60068 0.0
H1369 H 0.86566 0.07912 0.58827 0.0
H1370 H 0.80049 0.15009 0.54528 0.0
H1371 H 0.81783 0.13244 0.56505 0.0
H1372 H 0.8865 0.16368 0.57849 0.0
C1373 C 0.92486 0.10031 0.60675 0.0
C1374 C 0.87006 0.09771 0.58642 0.0
C1375 C 0.93725 0.08704 0.61619 0.0
C1376 C 0.81949 0.15248 0.54716 0.0
C1377 C 0.82943 0.1423 0.55844 0.0
C1378 C 0.8818 0.14522 0.58057 0.0
C1379 C 0.90008 0.09684 0.6048 0.0
C1380 C 0.88729 0.1097 0.5941 0.0
C1381 C 0.85406 0.14483 0.56116 0.0
C1382 C 0.86489 0.13308 0.57279 0.0
H1383 H 0.8905 0.05402 0.62803 0.0
H1384 H 0.86874 0.07743 0.61169 0.0
H1385 H 0.90572 0.14357 0.59697 0.0
H1386 H 0.87021 0.17781 0.53449 0.0
H1387 H 0.88757 0.16003 0.55419 0.0
C1388 C 0.90941 0.41821 0.87483 0.0
C1389 C 0.91842 0.44135 0.87243 0.0
C1390 C 0.89719 0.40566 0.865 0.0
C1391 C 0.86459 0.41402 0.83385 0.0
H1392 H 0.88326 0.34835 0.82674 0.0
C1393 C 0.83969 0.36648 0.78565 0.0
C1394 C 0.83362 0.34209 0.78616 0.0
C1395 C 0.84848 0.37817 0.79677 0.0
C1396 C 0.87754 0.36655 0.82871 0.0
H1397 H 0.9218 0.46927 0.85772 0.0
H1398 H 0.90022 0.44759 0.84074 0.0
H1399 H 0.90081 0.36948 0.84536 0.0
H1400 H 0.83169 0.31082 0.79872 0.0
H1401 H 0.84667 0.3313 0.81822 0.0
H1402 H 0.8414 0.41121 0.81721 0.0
C1403 C 0.90233 0.43927 0.85027 0.0
C1404 C 0.88762 0.37864 0.83938 0.0
C1405 C 0.91466 0.45173 0.86004 0.0
C1406 C 0.83634 0.32962 0.79803 0.0
C1407 C 0.84504 0.34133 0.80917 0.0
C1408 C 0.85442 0.40191 0.82323 0.0
C1409 C 0.8936 0.41606 0.85261 0.0
C1410 C 0.8815 0.40261 0.84195 0.0
C1411 C 0.85127 0.36574 0.80867 0.0
C1412 C 0.86103 0.37814 0.82042 0.0
H1413 H 0.91173 0.4098 0.88431 0.0
H1414 H 0.89045 0.38786 0.8671 0.0
H1415 H 0.85927 0.43238 0.83572 0.0
H1416 H 0.83785 0.37653 0.77661 0.0
H1417 H 0.85347 0.39687 0.79597 0.0
C1418 C 0.5936 0.4242 0.11999 0.0
C1419 C 0.57174 0.41603 0.1253 0.0
C1420 C 0.60604 0.41043 0.11077 0.0
C1421 C 0.59493 0.36796 0.08479 0.0
H1422 H 0.66331 0.355 0.08607 0.0
C1423 C 0.64104 0.31486 0.04353 0.0
C1424 C 0.66415 0.32214 0.03976 0.0
C1425 C 0.63057 0.32394 0.05495 0.0
C1426 C 0.64426 0.35872 0.08546 0.0
H1427 H 0.54667 0.38619 0.12558 0.0
H1428 H 0.56797 0.36267 0.10911 0.0
H1429 H 0.64393 0.37555 0.10439 0.0
H1430 H 0.69457 0.34442 0.04495 0.0
H1431 H 0.67599 0.36114 0.06453 0.0
H1432 H 0.59516 0.3524 0.06569 0.0
C1433 C 0.57535 0.37979 0.11211 0.0
C1434 C 0.63318 0.37034 0.096 0.0
C1435 C 0.5631 0.39336 0.12148 0.0
C1436 C 0.67676 0.33841 0.04769 0.0
C1437 C 0.66613 0.34785 0.05898 0.0
C1438 C 0.60603 0.35674 0.07416 0.0
C1439 C 0.59672 0.38836 0.10654 0.0
C1440 C 0.60844 0.37509 0.09573 0.0
C1441 C 0.64278 0.34091 0.06271 0.0
C1442 C 0.63088 0.35201 0.07432 0.0
H1443 H 0.60068 0.44168 0.12252 0.0
H1444 H 0.6224 0.41751 0.10651 0.0
H1445 H 0.57586 0.37175 0.08427 0.0
H1446 H 0.63102 0.30214 0.03765 0.0
H1447 H 0.61283 0.31769 0.05763 0.0
loop_
_geom_bond_atom_site_label_1
_geom_bond_atom_site_label_2
_geom_bond_distance
_geom_bond_site_symmetry_2
_ccdc_geom_bond_type
H0 C19 0.949 . S
H1 C20 0.950 . S
H2 C22 0.950 . S
H3 C23 0.950 . S
H4 C25 0.950 . S
H5 C28 0.950 . S
H6 C29 0.950 . S
H7 C31 0.951 . S
H8 C32 0.949 1_565 S
H9 C34 0.949 . S
H10 C35 0.950 . S
H11 C37 0.950 . S
H12 C38 0.950 . S
H13 C40 0.950 . S
H14 C43 0.950 . S
H15 C44 0.950 . S
H16 C46 0.951 . S
H17 C47 0.949 1_545 S
C18 C19 1.376 . S
C18 C23 1.386 . S
C18 C24 1.483 . S
C19 H0 0.949 . S
C19 C18 1.376 . S
C19 C20 1.397 . S
C20 H1 0.950 . S
C20 C19 1.397 . S
C20 C21 1.391 . S
C21 C20 1.391 . S
C21 C22 1.405 . S
C22 H2 0.950 . S
C22 C21 1.405 . S
C22 C23 1.367 . S
C23 H3 0.950 . S
C23 C18 1.386 . S
C23 C22 1.367 . S
C24 C18 1.483 . S
C24 C25 1.382 1_655 S
C24 C26 1.403 . S
C25 H4 0.950 . S
C25 C24 1.382 1_455 S
C25 C41 1.411 1_545 S
C26 C24 1.403 . S
C26 C27 1.489 . S
C26 C40 1.414 1_545 S
C27 C26 1.489 . S
C27 C28 1.383 . S
C27 C32 1.382 . S
C28 H5 0.950 . S
C28 C27 1.383 . S
C28 C29 1.395 . S
C29 H6 0.950 . S
C29 C28 1.395 . S
C29 C30 1.288 . S
C30 C29 1.288 . S
C30 C31 1.392 . S
C31 H7 0.951 . S
C31 C30 1.392 . S
C31 C32 1.392 . S
C32 H8 0.949 1_545 S
C32 C27 1.382 . S
C32 C31 1.392 . S
C33 C34 1.376 . S
C33 C38 1.386 . S
C33 C39 1.483 . S
C34 H9 0.949 . S
C34 C33 1.376 . S
C34 C35 1.397 . S
C35 H10 0.950 . S
C35 C34 1.397 . S
C35 C36 1.391 . S
C36 C35 1.391 . S
C36 C37 1.405 . S
C37 H11 0.950 . S
C37 C36 1.405 . S
C37 C38 1.367 . S
C38 H12 0.950 . S
C38 C33 1.386 . S
C38 C37 1.367 . S
C39 C33 1.483 . S
C39 C40 1.379 1_455 S
C39 C41 1.403 . S
C40 H13 0.950 . S
C40 C26 1.414 1_565 S
C40 C39 1.379 1_655 S
C41 C25 1.411 1_565 S
C41 C39 1.403 . S
C41 C42 1.489 . S
C42 C41 1.489 . S
C42 C43 1.383 . S
C42 C47 1.382 . S
C43 H14 0.950 . S
C43 C42 1.383 . S
C43 C44 1.395 . S
C44 H15 0.950 . S
C44 C43 1.395 . S
C44 C45 1.288 . S
C45 C44 1.288 . S
C45 C46 1.392 . S
C46 H16 0.951 . S
C46 C45 1.392 . S
C46 C47 1.392 . S
C47 H17 0.949 1_565 S
C47 C42 1.382 . S
C47 C46 1.392 . S
H48 C67 0.949 1_455 S
H49 C68 0.950 . S
H50 C70 0.950 . S
H51 C71 0.950 . S
H52 C73 0.950 . S
H53 C76 0.950 . S
H54 C77 0.950 . S
H55 C79 0.951 . S
H56 C80 0.949 . S
H57 C82 0.949 1_655 S
H58 C83 0.950 . S
H59 C85 0.950 . S
H60 C86 0.950 . S
H61 C88 0.950 . S
H62 C91 0.950 . S
H63 C92 0.950 . S
H64 C94 0.951 . S
H65 C95 0.949 . S
C66 C67 1.376 . S
C66 C71 1.386 . S
C66 C72 1.483 . S
C67 H48 0.949 1_655 S
C67 C66 1.376 . S
C67 C68 1.397 . S
C68 H49 0.950 . S
C68 C67 1.397 . S
C68 C69 1.391 . S
C69 C68 1.391 . S
C69 C70 1.405 . S
C70 H50 0.950 . S
C70 C69 1.405 . S
C70 C71 1.367 . S
C71 H51 0.950 . S
C71 C66 1.386 . S
C71 C70 1.367 . S
C72 C66 1.483 . S
C72 C73 1.382 1_655 S
C72 C74 1.403 . S
C73 H52 0.950 . S
C73 C72 1.382 1_455 S
C73 C89 1.411 . S
C74 C72 1.403 . S
C74 C75 1.489 . S
C74 C88 1.411 . S
C75 C74 1.489 . S
C75 C76 1.383 . S
C75 C80 1.382 . S
C76 H53 0.950 . S
C76 C75 1.383 . S
C76 C77 1.395 . S
C77 H54 0.950 . S
C77 C76 1.395 . S
C77 C78 1.288 . S
C78 C77 1.288 . S
C78 C79 1.392 . S
C79 H55 0.951 . S
C79 C78 1.392 . S
C79 C80 1.392 . S
C80 H56 0.949 . S
C80 C75 1.382 . S
C80 C79 1.392 . S
C81 C82 1.376 . S
C81 C86 1.386 . S
C81 C87 1.483 . S
C82 H57 0.949 1_455 S
C82 C81 1.376 . S
C82 C83 1.397 . S
C83 H58 0.950 . S
C83 C82 1.397 . S
C83 C84 1.391 . S
C84 C83 1.391 . S
C84 C85 1.405 . S
C85 H59 0.950 . S
C85 C84 1.405 . S
C85 C86 1.367 . S
C86 H60 0.950 . S
C86 C81 1.386 . S
C86 C85 1.367 . S
C87 C81 1.483 . S
C87 C88 1.382 1_455 S
C87 C89 1.403 . S
C88 H61 0.950 . S
C88 C74 1.411 . S
C88 C87 1.382 1_655 S
C89 C73 1.411 . S
C89 C87 1.403 . S
C89 C90 1.489 . S
C90 C89 1.489 . S
C90 C91 1.383 . S
C90 C95 1.382 . S
C91 H62 0.950 . S
C91 C90 1.383 . S
C91 C92 1.395 . S
C92 H63 0.950 . S
C92 C91 1.395 . S
C92 C93 1.288 . S
C93 C92 1.288 . S
C93 C94 1.392 . S
C94 H64 0.951 . S
C94 C93 1.392 . S
C94 C95 1.392 . S
C95 H65 0.949 . S
C95 C90 1.382 . S
C95 C94 1.392 . S
H96 C115 0.949 . S
H97 C116 0.950 . S
H98 C118 0.950 . S
H99 C119 0.950 . S
H100 C121 0.950 . S
H101 C124 0.950 . S
H102 C125 0.950 . S
H103 C127 0.951 . S
H104 C128 0.949 . S
H105 C130 0.949 . S
H106 C131 0.950 . S
H107 C133 0.950 . S
H108 C134 0.950 . S
H109 C136 0.950 . S
H110 C139 0.950 . S
H111 C140 0.950 . S
H112 C142 0.951 . S
H113 C143 0.949 . S
C114 C115 1.376 . S
C114 C119 1.386 . S
C114 C120 1.483 . S
C115 H96 0.949 . S
C115 C114 1.376 . S
C115 C116 1.397 . S
C116 H97 0.950 . S
C116 C115 1.397 . S
C116 C117 1.391 . S
C117 C116 1.391 . S
C117 C118 1.405 . S
C118 H98 0.950 . S
C118 C117 1.405 . S
C118 C119 1.367 . S
C119 H99 0.950 . S
C119 C114 1.386 . S
C119 C118 1.367 . S
C120 C114 1.483 . S
C120 C121 1.382 . S
C120 C122 1.403 . S
C121 H100 0.950 . S
C121 C120 1.382 . S
C121 C137 1.411 . S
C122 C120 1.403 . S
C122 C123 1.489 . S
C122 C136 1.411 . S
C123 C122 1.489 . S
C123 C124 1.383 . S
C123 C128 1.382 . S
C124 H101 0.950 . S
C124 C123 1.383 . S
C124 C125 1.395 . S
C125 H102 0.950 . S
C125 C124 1.395 . S
C125 C126 1.288 . S
C126 C125 1.288 . S
C126 C127 1.392 . S
C127 H103 0.951 . S
C127 C126 1.392 . S
C127 C128 1.392 . S
C128 H104 0.949 . S
C128 C123 1.382 . S
C128 C127 1.392 . S
C129 C130 1.376 . S
C129 C134 1.386 . S
C129 C135 1.483 . S
C130 H105 0.949 . S
C130 C129 1.376 . S
C130 C131 1.397 . S
C131 H106 0.950 . S
C131 C130 1.397 . S
C131 C132 1.391 . S
C132 C131 1.391 . S
C132 C133 1.405 . S
C133 H107 0.950 . S
C133 C132 1.405 . S
C133 C134 1.367 . S
C134 H108 0.950 . S
C134 C129 1.386 . S
C134 C133 1.367 . S
C135 C129 1.483 . S
C135 C136 1.382 . S
C135 C137 1.403 . S
C136 H109 0.950 . S
C136 C122 1.411 . S
C136 C135 1.382 . S
C137 C121 1.411 . S
C137 C135 1.403 . S
C137 C138 1.489 . S
C138 C137 1.489 . S
C138 C139 1.383 . S
C138 C143 1.382 . S
C139 H110 0.950 . S
C139 C138 1.383 . S
C139 C140 1.395 . S
C140 H111 0.950 . S
C140 C139 1.395 . S
C140 C141 1.288 . S
C141 C140 1.288 . S
C141 C142 1.392 . S
C142 H112 0.951 . S
C142 C141 1.392 . S
C142 C143 1.392 . S
C143 H113 0.949 . S
C143 C138 1.382 . S
C143 C142 1.392 . S
H144 C163 0.949 . S
H145 C164 0.950 . S
H146 C166 0.950 . S
H147 C167 0.950 . S
H148 C169 0.950 . S
H149 C172 0.950 . S
H150 C173 0.950 . S
H151 C175 0.951 . S
H152 C176 0.949 . S
H153 C178 0.949 . S
H154 C179 0.950 . S
H155 C181 0.950 . S
H156 C182 0.950 . S
H157 C184 0.950 . S
H158 C187 0.950 . S
H159 C188 0.950 . S
H160 C190 0.951 . S
H161 C191 0.949 . S
C162 C163 1.376 . S
C162 C167 1.386 . S
C162 C168 1.483 . S
C163 H144 0.949 . S
C163 C162 1.376 . S
C163 C164 1.397 . S
C164 H145 0.950 . S
C164 C163 1.397 . S
C164 C165 1.391 . S
C165 C164 1.391 . S
C165 C166 1.405 . S
C166 H146 0.950 . S
C166 C165 1.405 . S
C166 C167 1.367 . S
C167 H147 0.950 . S
C167 C162 1.386 . S
C167 C166 1.367 . S
C168 C162 1.483 . S
C168 C169 1.382 . S
C168 C170 1.403 . S
C169 H148 0.950 . S
C169 C168 1.382 . S
C169 C185 1.411 1_565 S
C170 C168 1.403 . S
C170 C171 1.489 . S
C170 C184 1.411 1_565 S
C171 C170 1.489 . S
C171 C172 1.383 . S
C171 C176 1.382 . S
C172 H149 0.950 . S
C172 C171 1.383 . S
C172 C173 1.395 . S
C173 H150 0.950 . S
C173 C172 1.395 . S
C173 C174 1.288 . S
C174 C173 1.288 . S
C174 C175 1.392 . S
C175 H151 0.951 . S
C175 C174 1.392 . S
C175 C176 1.392 . S
C176 H152 0.949 . S
C176 C171 1.382 . S
C176 C175 1.392 . S
C177 C178 1.376 . S
C177 C182 1.386 . S
C177 C183 1.483 . S
C178 H153 0.949 . S
C178 C177 1.376 . S
C178 C179 1.397 . S
C179 H154 0.950 . S
C179 C178 1.397 . S
C179 C180 1.391 . S
C180 C179 1.391 . S
C180 C181 1.405 . S
C181 H155 0.950 . S
C181 C180 1.405 . S
C181 C182 1.367 . S
C182 H156 0.950 . S
C182 C177 1.386 . S
C182 C181 1.367 . S
C183 C177 1.483 . S
C183 C184 1.382 . S
C183 C185 1.403 . S
C184 H157 0.950 . S
C184 C170 1.411 1_545 S
C184 C183 1.382 . S
C185 C169 1.411 1_545 S
C185 C183 1.403 . S
C185 C186 1.489 . S
C186 C185 1.489 . S
C186 C187 1.383 . S
C186 C191 1.382 . S
C187 H158 0.950 . S
C187 C186 1.383 . S
C187 C188 1.395 . S
C188 H159 0.950 . S
C188 C187 1.395 . S
C188 C189 1.288 . S
C189 C188 1.288 . S
C189 C190 1.392 . S
C190 H160 0.951 . S
C190 C189 1.392 . S
C190 C191 1.392 . S
C191 H161 0.949 . S
C191 C186 1.382 . S
C191 C190 1.392 . S
H192 C211 0.949 . S
H193 C212 0.950 . S
H194 C214 0.950 . S
H195 C215 0.950 . S
H196 C217 0.950 . S
H197 C220 0.950 . S
H198 C221 0.950 . S
H199 C223 0.951 . S
H200 C224 0.949 . S
H201 C226 0.949 . S
H202 C227 0.950 . S
H203 C229 0.950 . S
H204 C230 0.950 . S
H205 C232 0.950 . S
H206 C235 0.950 . S
H207 C236 0.950 . S
H208 C238 0.951 . S
H209 C239 0.949 . S
C210 C211 1.376 . S
C210 C215 1.386 . S
C210 C216 1.483 . S
C211 H192 0.949 . S
C211 C210 1.376 . S
C211 C212 1.397 . S
C212 H193 0.950 . S
C212 C211 1.397 . S
C212 C213 1.391 . S
C213 C212 1.391 . S
C213 C214 1.405 . S
C214 H194 0.950 . S
C214 C213 1.405 . S
C214 C215 1.367 . S
C215 H195 0.950 . S
C215 C210 1.386 . S
C215 C214 1.367 . S
C216 C210 1.483 . S
C216 C217 1.382 1_455 S
C216 C218 1.403 . S
C217 H196 0.950 . S
C217 C216 1.382 1_655 S
C217 C233 1.411 . S
C218 C216 1.403 . S
C218 C219 1.489 . S
C218 C232 1.411 . S
C219 C218 1.489 . S
C219 C220 1.383 . S
C219 C224 1.382 . S
C220 H197 0.950 . S
C220 C219 1.383 . S
C220 C221 1.395 . S
C221 H198 0.950 . S
C221 C220 1.395 . S
C221 C222 1.288 . S
C222 C221 1.288 . S
C222 C223 1.392 . S
C223 H199 0.951 . S
C223 C222 1.392 . S
C223 C224 1.392 . S
C224 H200 0.949 . S
C224 C219 1.382 . S
C224 C223 1.392 . S
C225 C226 1.376 . S
C225 C230 1.386 . S
C225 C231 1.483 . S
C226 H201 0.949 . S
C226 C225 1.376 . S
C226 C227 1.397 . S
C227 H202 0.950 . S
C227 C226 1.397 . S
C227 C228 1.391 . S
C228 C227 1.391 . S
C228 C229 1.405 . S
C229 H203 0.950 . S
C229 C228 1.405 . S
C229 C230 1.367 . S
C230 H204 0.950 . S
C230 C225 1.386 . S
C230 C229 1.367 . S
C231 C225 1.483 . S
C231 C232 1.382 1_655 S
C231 C233 1.403 . S
C232 H205 0.950 . S
C232 C218 1.411 . S
C232 C231 1.382 1_455 S
C233 C217 1.411 . S
C233 C231 1.403 . S
C233 C234 1.489 . S
C234 C233 1.489 . S
C234 C235 1.383 . S
C234 C239 1.382 . S
C235 H206 0.950 . S
C235 C234 1.383 . S
C235 C236 1.395 . S
C236 H207 0.950 . S
C236 C235 1.395 . S
C236 C237 1.288 . S
C237 C236 1.288 . S
C237 C238 1.392 . S
C238 H208 0.951 . S
C238 C237 1.392 . S
C238 C239 1.392 . S
C239 H209 0.949 . S
C239 C234 1.382 . S
C239 C238 1.392 . S
H240 C259 0.949 . S
H241 C260 0.950 . S
H242 C262 0.950 . S
H243 C263 0.950 . S
H244 C265 0.950 . S
H245 C268 0.950 . S
H246 C269 0.950 . S
H247 C271 0.951 . S
H248 C272 0.949 . S
H249 C274 0.949 . S
H250 C275 0.950 . S
H251 C277 0.950 . S
H252 C278 0.950 . S
H253 C280 0.950 . S
H254 C283 0.950 . S
H255 C284 0.950 . S
H256 C286 0.951 . S
H257 C287 0.949 . S
C258 C259 1.376 . S
C258 C263 1.386 . S
C258 C264 1.483 . S
C259 H240 0.949 . S
C259 C258 1.376 . S
C259 C260 1.397 . S
C260 H241 0.950 . S
C260 C259 1.397 . S
C260 C261 1.391 . S
C261 C260 1.391 . S
C261 C262 1.405 . S
C262 H242 0.950 . S
C262 C261 1.405 . S
C262 C263 1.367 . S
C263 H243 0.950 . S
C263 C258 1.386 . S
C263 C262 1.367 . S
C264 C258 1.483 . S
C264 C265 1.382 . S
C264 C266 1.403 . S
C265 H244 0.950 . S
C265 C264 1.382 . S
C265 C281 1.411 . S
C266 C264 1.403 . S
C266 C267 1.489 . S
C266 C280 1.411 . S
C267 C266 1.489 . S
C267 C268 1.383 . S
C267 C272 1.382 . S
C268 H245 0.950 . S
C268 C267 1.383 . S
C268 C269 1.395 . S
C269 H246 0.950 . S
C269 C268 1.395 . S
C269 C270 1.288 . S
C270 C269 1.288 . S
C270 C271 1.392 . S
C271 H247 0.951 . S
C271 C270 1.392 . S
C271 C272 1.392 . S
C272 H248 0.949 . S
C272 C267 1.382 . S
C272 C271 1.392 . S
C273 C274 1.376 . S
C273 C278 1.386 . S
C273 C279 1.483 . S
C274 H249 0.949 . S
C274 C273 1.376 . S
C274 C275 1.397 . S
C275 H250 0.950 . S
C275 C274 1.397 . S
C275 C276 1.391 . S
C276 C275 1.391 . S
C276 C277 1.405 . S
C277 H251 0.950 . S
C277 C276 1.405 . S
C277 C278 1.367 . S
C278 H252 0.950 . S
C278 C273 1.386 . S
C278 C277 1.367 . S
C279 C273 1.483 . S
C279 C280 1.382 . S
C279 C281 1.403 . S
C280 H253 0.950 . S
C280 C266 1.411 . S
C280 C279 1.382 . S
C281 C265 1.411 . S
C281 C279 1.403 . S
C281 C282 1.489 . S
C282 C281 1.489 . S
C282 C283 1.383 . S
C282 C287 1.382 . S
C283 H254 0.950 . S
C283 C282 1.383 . S
C283 C284 1.395 . S
C284 H255 0.950 . S
C284 C283 1.395 . S
C284 C285 1.288 . S
C285 C284 1.288 . S
C285 C286 1.392 . S
C286 H256 0.951 . S
C286 C285 1.392 . S
C286 C287 1.392 . S
C287 H257 0.949 . S
C287 C282 1.382 . S
C287 C286 1.392 . S
H288 C307 0.949 . S
H289 C308 0.950 . S
H290 C310 0.950 . S
H291 C311 0.950 . S
H292 C313 0.950 . S
H293 C316 0.950 . S
H294 C317 0.950 . S
H295 C319 0.951 . S
H296 C320 0.949 1_545 S
H297 C322 0.949 . S
H298 C323 0.950 . S
H299 C325 0.950 . S
H300 C326 0.950 . S
H301 C328 0.950 . S
H302 C331 0.950 . S
H303 C332 0.950 . S
H304 C334 0.951 . S
H305 C335 0.949 1_565 S
C306 C307 1.376 . S
C306 C311 1.386 . S
C306 C312 1.483 . S
C307 H288 0.949 . S
C307 C306 1.376 . S
C307 C308 1.397 . S
C308 H289 0.950 . S
C308 C307 1.397 . S
C308 C309 1.391 . S
C309 C308 1.391 . S
C309 C310 1.405 . S
C310 H290 0.950 . S
C310 C309 1.405 . S
C310 C311 1.367 . S
C311 H291 0.950 . S
C311 C306 1.386 . S
C311 C310 1.367 . S
C312 C306 1.483 . S
C312 C313 1.382 . S
C312 C314 1.403 . S
C313 H292 0.950 . S
C313 C312 1.382 . S
C313 C329 1.411 1_565 S
C314 C312 1.403 . S
C314 C315 1.489 . S
C314 C328 1.411 1_565 S
C315 C314 1.489 . S
C315 C316 1.383 . S
C315 C320 1.382 . S
C316 H293 0.950 . S
C316 C315 1.383 . S
C316 C317 1.395 . S
C317 H294 0.950 . S
C317 C316 1.395 . S
C317 C318 1.288 . S
C318 C317 1.288 . S
C318 C319 1.392 . S
C319 H295 0.951 . S
C319 C318 1.392 . S
C319 C320 1.392 . S
C320 H296 0.949 1_565 S
C320 C315 1.382 . S
C320 C319 1.392 . S
C321 C322 1.376 . S
C321 C326 1.386 . S
C321 C327 1.483 . S
C322 H297 0.949 . S
C322 C321 1.376 . S
C322 C323 1.397 . S
C323 H298 0.950 . S
C323 C322 1.397 . S
C323 C324 1.391 . S
C324 C323 1.391 . S
C324 C325 1.405 . S
C325 H299 0.950 . S
C325 C324 1.405 . S
C325 C326 1.367 . S
C326 H300 0.950 . S
C326 C321 1.386 . S
C326 C325 1.367 . S
C327 C321 1.483 . S
C327 C328 1.382 . S
C327 C329 1.403 . S
C328 H301 0.950 . S
C328 C314 1.411 1_545 S
C328 C327 1.382 . S
C329 C313 1.411 1_545 S
C329 C327 1.403 . S
C329 C330 1.489 . S
C330 C329 1.489 . S
C330 C331 1.383 . S
C330 C335 1.382 . S
C331 H302 0.950 . S
C331 C330 1.383 . S
C331 C332 1.395 . S
C332 H303 0.950 . S
C332 C331 1.395 . S
C332 C333 1.288 . S
C333 C332 1.288 . S
C333 C334 1.392 . S
C334 H304 0.951 . S
C334 C333 1.392 . S
C334 C335 1.392 . S
C335 H305 0.949 1_545 S
C335 C330 1.382 . S
C335 C334 1.392 . S
H336 C355 0.949 1_455 S
H337 C356 0.950 . S
H338 C358 0.950 . S
H339 C359 0.950 . S
H340 C361 0.950 . S
H341 C364 0.950 . S
H342 C365 0.950 . S
H343 C367 0.951 . S
H344 C368 0.949 . S
H345 C370 0.949 1_655 S
H346 C371 0.950 . S
H347 C373 0.950 . S
H348 C374 0.950 . S
H349 C376 0.950 . S
H350 C379 0.950 . S
H351 C380 0.950 . S
H352 C382 0.951 . S
H353 C383 0.949 . S
C354 C355 1.376 . S
C354 C359 1.386 . S
C354 C360 1.483 . S
C355 H336 0.949 1_655 S
C355 C354 1.376 . S
C355 C356 1.397 . S
C356 H337 0.950 . S
C356 C355 1.397 . S
C356 C357 1.391 . S
C357 C356 1.391 . S
C357 C358 1.405 . S
C358 H338 0.950 . S
C358 C357 1.405 . S
C358 C359 1.367 . S
C359 H339 0.950 . S
C359 C354 1.386 . S
C359 C358 1.367 . S
C360 C354 1.483 . S
C360 C361 1.382 1_655 S
C360 C362 1.403 . S
C361 H340 0.950 . S
C361 C360 1.382 1_455 S
C361 C377 1.411 1_545 S
C362 C360 1.403 . S
C362 C363 1.489 . S
C362 C376 1.411 1_545 S
C363 C362 1.489 . S
C363 C364 1.383 . S
C363 C368 1.382 . S
C364 H341 0.950 . S
C364 C363 1.383 . S
C364 C365 1.395 . S
C365 H342 0.950 . S
C365 C364 1.395 . S
C365 C366 1.288 . S
C366 C365 1.288 . S
C366 C367 1.392 . S
C367 H343 0.951 . S
C367 C366 1.392 . S
C367 C368 1.392 . S
C368 H344 0.949 . S
C368 C363 1.382 . S
C368 C367 1.392 . S
C369 C370 1.376 . S
C369 C374 1.386 . S
C369 C375 1.483 . S
C370 H345 0.949 1_455 S
C370 C369 1.376 . S
C370 C371 1.397 . S
C371 H346 0.950 . S
C371 C370 1.397 . S
C371 C372 1.391 . S
C372 C371 1.391 . S
C372 C373 1.405 . S
C373 H347 0.950 . S
C373 C372 1.405 . S
C373 C374 1.367 . S
C374 H348 0.950 . S
C374 C369 1.386 . S
C374 C373 1.367 . S
C375 C369 1.483 . S
C375 C376 1.382 1_455 S
C375 C377 1.403 . S
C376 H349 0.950 . S
C376 C362 1.411 1_565 S
C376 C375 1.382 1_655 S
C377 C361 1.411 1_565 S
C377 C375 1.403 . S
C377 C378 1.489 . S
C378 C377 1.489 . S
C378 C379 1.383 . S
C378 C383 1.382 . S
C379 H350 0.950 . S
C379 C378 1.383 . S
C379 C380 1.395 . S
C380 H351 0.950 . S
C380 C379 1.395 . S
C380 C381 1.288 . S
C381 C380 1.288 . S
C381 C382 1.392 . S
C382 H352 0.951 . S
C382 C381 1.392 . S
C382 C383 1.392 . S
C383 H353 0.949 . S
C383 C378 1.382 . S
C383 C382 1.392 . S
In384 O385 2.294 . S
In384 O386 2.326 . S
In384 O390 2.266 1_554 S
In384 O391 2.326 1_554 S
In384 O392 2.266 1_554 S
In384 O393 2.326 1_554 S
In384 O395 2.294 . S
In384 O396 2.326 . S
O385 In384 2.294 . S
O385 C394 1.240 . S
O386 In384 2.326 . S
O386 C394 1.252 . S
C387 O390 1.252 . S
C387 O391 1.260 . S
C388 O395 1.240 . S
C388 O396 1.252 . S
C389 O392 1.252 . S
C389 O393 1.260 . S
O390 In384 2.266 1_556 S
O390 C387 1.252 . S
O391 In384 2.326 1_556 S
O391 C387 1.260 . S
O392 In384 2.266 1_556 S
O392 C389 1.252 . S
O393 In384 2.326 1_556 S
O393 C389 1.260 . S
C394 O385 1.240 . S
C394 O386 1.252 . S
O395 In384 2.294 . S
O395 C388 1.240 . S
O396 In384 2.326 . S
O396 C388 1.252 . S
In397 O398 2.294 . S
In397 O399 2.326 . S
In397 O403 2.266 . S
In397 O404 2.326 . S
In397 O405 2.266 . S
In397 O406 2.326 . S
In397 O408 2.294 . S
In397 O409 2.326 . S
O398 In397 2.294 . S
O398 C407 1.240 . S
O399 In397 2.326 . S
O399 C407 1.252 . S
C400 O403 1.252 . S
C400 O404 1.260 . S
C401 O408 1.240 . S
C401 O409 1.252 . S
C402 O405 1.252 . S
C402 O406 1.260 . S
O403 In397 2.266 . S
O403 C400 1.252 . S
O404 In397 2.326 . S
O404 C400 1.260 . S
O405 In397 2.266 . S
O405 C402 1.252 . S
O406 In397 2.326 . S
O406 C402 1.260 . S
C407 O398 1.240 . S
C407 O399 1.252 . S
O408 In397 2.294 . S
O408 C401 1.240 . S
O409 In397 2.326 . S
O409 C401 1.252 . S
In410 O411 2.294 . S
In410 O412 2.326 . S
In410 O416 2.266 . S
In410 O417 2.326 . S
In410 O418 2.266 . S
In410 O419 2.326 . S
In410 O421 2.294 . S
In410 O422 2.326 . S
O411 In410 2.294 . S
O411 C420 1.240 . S
O412 In410 2.326 . S
O412 C420 1.252 . S
C413 O416 1.252 . S
C413 O417 1.260 . S
C414 O421 1.240 . S
C414 O422 1.252 . S
C415 O418 1.252 . S
C415 O419 1.260 . S
O416 In410 2.266 . S
O416 C413 1.252 . S
O417 In410 2.326 . S
O417 C413 1.260 . S
O418 In410 2.266 . S
O418 C415 1.252 . S
O419 In410 2.326 . S
O419 C415 1.260 . S
C420 O411 1.240 . S
C420 O412 1.252 . S
O421 In410 2.294 . S
O421 C414 1.240 . S
O422 In410 2.326 . S
O422 C414 1.252 . S
In423 O424 2.294 . S
In423 O425 2.326 . S
In423 O429 2.266 . S
In423 O430 2.326 . S
In423 O431 2.266 . S
In423 O432 2.326 . S
In423 O434 2.294 . S
In423 O435 2.326 . S
O424 In423 2.294 . S
O424 C433 1.240 . S
O425 In423 2.326 . S
O425 C433 1.252 . S
C426 O429 1.252 . S
C426 O430 1.260 . S
C427 O434 1.240 . S
C427 O435 1.252 . S
C428 O431 1.252 . S
C428 O432 1.260 . S
O429 In423 2.266 . S
O429 C426 1.252 . S
O430 In423 2.326 . S
O430 C426 1.260 . S
O431 In423 2.266 . S
O431 C428 1.252 . S
O432 In423 2.326 . S
O432 C428 1.260 . S
C433 O424 1.240 . S
C433 O425 1.252 . S
O434 In423 2.294 . S
O434 C427 1.240 . S
O435 In423 2.326 . S
O435 C427 1.252 . S
In436 O437 2.294 . S
In436 O438 2.326 . S
In436 O442 2.266 . S
In436 O443 2.326 . S
In436 O444 2.266 . S
In436 O445 2.326 . S
In436 O447 2.294 . S
In436 O448 2.326 . S
O437 In436 2.294 . S
O437 C446 1.240 . S
O438 In436 2.326 . S
O438 C446 1.252 . S
C439 O442 1.252 . S
C439 O443 1.260 . S
C440 O447 1.240 . S
C440 O448 1.252 . S
C441 O444 1.252 . S
C441 O445 1.260 . S
O442 In436 2.266 . S
O442 C439 1.252 . S
O443 In436 2.326 . S
O443 C439 1.260 . S
O444 In436 2.266 . S
O444 C441 1.252 . S
O445 In436 2.326 . S
O445 C441 1.260 . S
C446 O437 1.240 . S
C446 O438 1.252 . S
O447 In436 2.294 . S
O447 C440 1.240 . S
O448 In436 2.326 . S
O448 C440 1.252 . S
In449 O450 2.294 . S
In449 O451 2.326 . S
In449 O455 2.266 . S
In449 O456 2.326 . S
In449 O457 2.266 . S
In449 O458 2.326 . S
In449 O460 2.294 . S
In449 O461 2.326 . S
O450 In449 2.294 . S
O450 C459 1.240 . S
O451 In449 2.326 . S
O451 C459 1.252 . S
C452 O455 1.252 . S
C452 O456 1.260 . S
C453 O460 1.240 . S
C453 O461 1.252 . S
C454 O457 1.252 . S
C454 O458 1.260 . S
O455 In449 2.266 . S
O455 C452 1.252 . S
O456 In449 2.326 . S
O456 C452 1.260 . S
O457 In449 2.266 . S
O457 C454 1.252 . S
O458 In449 2.326 . S
O458 C454 1.260 . S
C459 O450 1.240 . S
C459 O451 1.252 . S
O460 In449 2.294 . S
O460 C453 1.240 . S
O461 In449 2.326 . S
O461 C453 1.252 . S
In462 O463 2.294 . S
In462 O464 2.326 . S
In462 O468 2.266 1_554 S
In462 O469 2.326 1_554 S
In462 O470 2.266 1_554 S
In462 O471 2.326 1_554 S
In462 O473 2.294 . S
In462 O474 2.326 . S
O463 In462 2.294 . S
O463 C472 1.240 . S
O464 In462 2.326 . S
O464 C472 1.252 . S
C465 O468 1.252 . S
C465 O469 1.260 . S
C466 O473 1.240 . S
C466 O474 1.252 . S
C467 O470 1.252 . S
C467 O471 1.260 . S
O468 In462 2.266 1_556 S
O468 C465 1.252 . S
O469 In462 2.326 1_556 S
O469 C465 1.260 . S
O470 In462 2.266 1_556 S
O470 C467 1.252 . S
O471 In462 2.326 1_556 S
O471 C467 1.260 . S
C472 O463 1.240 . S
C472 O464 1.252 . S
O473 In462 2.294 . S
O473 C466 1.240 . S
O474 In462 2.326 . S
O474 C466 1.252 . S
In475 O476 2.294 . S
In475 O477 2.326 . S
In475 O481 2.266 . S
In475 O482 2.326 . S
In475 O483 2.266 . S
In475 O484 2.326 . S
In475 O486 2.294 . S
In475 O487 2.326 . S
O476 In475 2.294 . S
O476 C485 1.240 . S
O477 In475 2.326 . S
O477 C485 1.252 . S
C478 O481 1.252 . S
C478 O482 1.260 . S
C479 O486 1.240 . S
C479 O487 1.252 . S
C480 O483 1.252 . S
C480 O484 1.260 . S
O481 In475 2.266 . S
O481 C478 1.252 . S
O482 In475 2.326 . S
O482 C478 1.260 . S
O483 In475 2.266 . S
O483 C480 1.252 . S
O484 In475 2.326 . S
O484 C480 1.260 . S
C485 O476 1.240 . S
C485 O477 1.252 . S
O486 In475 2.294 . S
O486 C479 1.240 . S
O487 In475 2.326 . S
O487 C479 1.252 . S
C488 C489 1.349 . S
C488 C490 1.327 . S
C488 H513 0.950 . S
C489 C488 1.349 . S
C489 C505 1.349 . S
C490 C488 1.327 . S
C490 C509 1.429 . S
C490 H514 0.950 . S
C491 C508 1.574 . S
C491 C510 1.368 . S
C491 H515 0.949 . S
H492 C496 0.949 . S
C493 C494 1.349 . S
C493 C495 1.327 . S
C493 H516 0.950 . S
C494 C493 1.349 . S
C494 C506 1.349 . S
C495 C493 1.327 . S
C495 C511 1.429 . S
C495 H517 0.950 . S
C496 H492 0.949 . S
C496 C504 1.574 . S
C496 C512 1.368 . S
H497 C505 0.950 . S
H498 C503 0.950 . S
H499 C504 0.949 . S
H500 C506 0.950 . S
H501 C507 0.950 . S
H502 C508 0.949 . S
C503 H498 0.950 . S
C503 C505 1.327 . S
C503 C509 1.429 . S
C504 C496 1.574 . S
C504 H499 0.949 . S
C504 C510 1.368 . S
C505 C489 1.349 . S
C505 H497 0.950 . S
C505 C503 1.327 . S
C506 C494 1.349 . S
C506 H500 0.950 . S
C506 C507 1.327 . S
C507 H501 0.950 . S
C507 C506 1.327 . S
C507 C511 1.429 . S
C508 C491 1.574 . S
C508 H502 0.949 . S
C508 C512 1.368 . S
C509 C490 1.429 . S
C509 C503 1.429 . S
C509 C510 1.523 . S
C510 C491 1.368 . S
C510 C504 1.368 . S
C510 C509 1.523 . S
C511 C495 1.429 . S
C511 C507 1.429 . S
C511 C512 1.523 . S
C512 C496 1.368 . S
C512 C508 1.368 . S
C512 C511 1.523 . S
H513 C488 0.950 . S
H514 C490 0.950 . S
H515 C491 0.949 . S
H516 C493 0.950 . S
H517 C495 0.950 . S
C518 C519 1.349 . S
C518 C520 1.327 . S
C518 H543 0.950 . S
C519 C518 1.349 . S
C519 C535 1.349 . S
C520 C518 1.327 . S
C520 C539 1.429 . S
C520 H544 0.950 . S
C521 C538 1.574 . S
C521 C540 1.368 . S
C521 H545 0.949 . S
H522 C526 0.949 . S
C523 C524 1.349 . S
C523 C525 1.327 . S
C523 H546 0.950 . S
C524 C523 1.349 . S
C524 C536 1.349 . S
C525 C523 1.327 . S
C525 C541 1.429 . S
C525 H547 0.950 . S
C526 H522 0.949 . S
C526 C534 1.574 . S
C526 C542 1.368 . S
H527 C535 0.950 . S
H528 C533 0.950 . S
H529 C534 0.949 . S
H530 C536 0.950 . S
H531 C537 0.950 . S
H532 C538 0.949 . S
C533 H528 0.950 . S
C533 C535 1.327 . S
C533 C539 1.429 . S
C534 C526 1.574 . S
C534 H529 0.949 . S
C534 C540 1.368 . S
C535 C519 1.349 . S
C535 H527 0.950 . S
C535 C533 1.327 . S
C536 C524 1.349 . S
C536 H530 0.950 . S
C536 C537 1.327 . S
C537 H531 0.950 . S
C537 C536 1.327 . S
C537 C541 1.429 . S
C538 C521 1.574 . S
C538 H532 0.949 . S
C538 C542 1.368 . S
C539 C520 1.429 . S
C539 C533 1.429 . S
C539 C540 1.523 . S
C540 C521 1.368 . S
C540 C534 1.368 . S
C540 C539 1.523 . S
C541 C525 1.429 . S
C541 C537 1.429 . S
C541 C542 1.523 . S
C542 C526 1.368 . S
C542 C538 1.368 . S
C542 C541 1.523 . S
H543 C518 0.950 . S
H544 C520 0.950 . S
H545 C521 0.949 . S
H546 C523 0.950 . S
H547 C525 0.950 . S
C548 C549 1.349 . S
C548 C550 1.327 . S
C548 H573 0.950 . S
C549 C548 1.349 . S
C549 C565 1.349 . S
C550 C548 1.327 . S
C550 C569 1.429 . S
C550 H574 0.950 . S
C551 C568 1.574 . S
C551 C570 1.368 . S
C551 H575 0.949 . S
H552 C556 0.949 . S
C553 C554 1.349 . S
C553 C555 1.327 . S
C553 H576 0.950 . S
C554 C553 1.349 . S
C554 C566 1.349 . S
C555 C553 1.327 . S
C555 C571 1.429 . S
C555 H577 0.950 . S
C556 H552 0.949 . S
C556 C564 1.574 . S
C556 C572 1.368 . S
H557 C565 0.950 . S
H558 C563 0.950 . S
H559 C564 0.949 . S
H560 C566 0.950 . S
H561 C567 0.950 . S
H562 C568 0.949 . S
C563 H558 0.950 . S
C563 C565 1.327 . S
C563 C569 1.429 . S
C564 C556 1.574 . S
C564 H559 0.949 . S
C564 C570 1.368 . S
C565 C549 1.349 . S
C565 H557 0.950 . S
C565 C563 1.327 . S
C566 C554 1.349 . S
C566 H560 0.950 . S
C566 C567 1.327 . S
C567 H561 0.950 . S
C567 C566 1.327 . S
C567 C571 1.429 . S
C568 C551 1.574 . S
C568 H562 0.949 . S
C568 C572 1.368 . S
C569 C550 1.429 . S
C569 C563 1.429 . S
C569 C570 1.523 . S
C570 C551 1.368 . S
C570 C564 1.368 . S
C570 C569 1.523 . S
C571 C555 1.429 . S
C571 C567 1.429 . S
C571 C572 1.523 . S
C572 C556 1.368 . S
C572 C568 1.368 . S
C572 C571 1.523 . S
H573 C548 0.950 . S
H574 C550 0.950 . S
H575 C551 0.949 . S
H576 C553 0.950 . S
H577 C555 0.950 . S
C578 C579 1.349 . S
C578 C580 1.327 . S
C578 H603 0.950 . S
C579 C578 1.349 . S
C579 C595 1.349 . S
C580 C578 1.327 . S
C580 C599 1.429 . S
C580 H604 0.950 . S
C581 C598 1.574 . S
C581 C600 1.368 . S
C581 H605 0.949 . S
H582 C586 0.949 . S
C583 C584 1.349 . S
C583 C585 1.327 . S
C583 H606 0.950 . S
C584 C583 1.349 . S
C584 C596 1.349 . S
C585 C583 1.327 . S
C585 C601 1.429 . S
C585 H607 0.950 . S
C586 H582 0.949 . S
C586 C594 1.574 . S
C586 C602 1.368 . S
H587 C595 0.950 . S
H588 C593 0.950 . S
H589 C594 0.949 . S
H590 C596 0.950 . S
H591 C597 0.950 . S
H592 C598 0.949 . S
C593 H588 0.950 . S
C593 C595 1.327 . S
C593 C599 1.429 . S
C594 C586 1.574 . S
C594 H589 0.949 . S
C594 C600 1.368 . S
C595 C579 1.349 . S
C595 H587 0.950 . S
C595 C593 1.327 . S
C596 C584 1.349 . S
C596 H590 0.950 . S
C596 C597 1.327 . S
C597 H591 0.950 . S
C597 C596 1.327 . S
C597 C601 1.429 . S
C598 C581 1.574 . S
C598 H592 0.949 . S
C598 C602 1.368 . S
C599 C580 1.429 . S
C599 C593 1.429 . S
C599 C600 1.523 . S
C600 C581 1.368 . S
C600 C594 1.368 . S
C600 C599 1.523 . S
C601 C585 1.429 . S
C601 C597 1.429 . S
C601 C602 1.523 . S
C602 C586 1.368 . S
C602 C598 1.368 . S
C602 C601 1.523 . S
H603 C578 0.950 . S
H604 C580 0.950 . S
H605 C581 0.949 . S
H606 C583 0.950 . S
H607 C585 0.950 . S
C608 C609 1.349 . S
C608 C610 1.327 . S
C608 H633 0.950 . S
C609 C608 1.349 . S
C609 C625 1.349 . S
C610 C608 1.327 . S
C610 C629 1.429 . S
C610 H634 0.950 . S
C611 C628 1.574 . S
C611 C630 1.368 . S
C611 H635 0.949 . S
H612 C616 0.949 . S
C613 C614 1.349 . S
C613 C615 1.327 . S
C613 H636 0.950 . S
C614 C613 1.349 . S
C614 C626 1.349 . S
C615 C613 1.327 . S
C615 C631 1.429 . S
C615 H637 0.950 . S
C616 H612 0.949 . S
C616 C624 1.574 . S
C616 C632 1.368 . S
H617 C625 0.950 . S
H618 C623 0.950 . S
H619 C624 0.949 . S
H620 C626 0.950 1_554 S
H621 C627 0.950 . S
H622 C628 0.949 . S
C623 H618 0.950 . S
C623 C625 1.327 . S
C623 C629 1.429 . S
C624 C616 1.574 . S
C624 H619 0.949 . S
C624 C630 1.368 . S
C625 C609 1.349 . S
C625 H617 0.950 . S
C625 C623 1.327 . S
C626 C614 1.349 . S
C626 H620 0.950 1_556 S
C626 C627 1.327 . S
C627 H621 0.950 . S
C627 C626 1.327 . S
C627 C631 1.429 . S
C628 C611 1.574 . S
C628 H622 0.949 . S
C628 C632 1.368 . S
C629 C610 1.429 . S
C629 C623 1.429 . S
C629 C630 1.523 . S
C630 C611 1.368 . S
C630 C624 1.368 . S
C630 C629 1.523 . S
C631 C615 1.429 . S
C631 C627 1.429 . S
C631 C632 1.523 . S
C632 C616 1.368 . S
C632 C628 1.368 . S
C632 C631 1.523 . S
H633 C608 0.950 . S
H634 C610 0.950 . S
H635 C611 0.949 . S
H636 C613 0.950 . S
H637 C615 0.950 . S
C638 C639 1.349 . S
C638 C640 1.327 . S
C638 H663 0.950 . S
C639 C638 1.349 . S
C639 C655 1.349 . S
C640 C638 1.327 . S
C640 C659 1.429 . S
C640 H664 0.950 . S
C641 C658 1.574 . S
C641 C660 1.368 . S
C641 H665 0.949 . S
H642 C646 0.949 . S
C643 C644 1.349 . S
C643 C645 1.327 . S
C643 H666 0.950 . S
C644 C643 1.349 . S
C644 C656 1.349 . S
C645 C643 1.327 . S
C645 C661 1.429 . S
C645 H667 0.950 . S
C646 H642 0.949 . S
C646 C654 1.574 . S
C646 C662 1.368 . S
H647 C655 0.950 . S
H648 C653 0.950 . S
H649 C654 0.949 . S
H650 C656 0.950 . S
H651 C657 0.950 . S
H652 C658 0.949 . S
C653 H648 0.950 . S
C653 C655 1.327 . S
C653 C659 1.429 . S
C654 C646 1.574 . S
C654 H649 0.949 . S
C654 C660 1.368 . S
C655 C639 1.349 . S
C655 H647 0.950 . S
C655 C653 1.327 . S
C656 C644 1.349 . S
C656 H650 0.950 . S
C656 C657 1.327 . S
C657 H651 0.950 . S
C657 C656 1.327 . S
C657 C661 1.429 . S
C658 C641 1.574 . S
C658 H652 0.949 . S
C658 C662 1.368 . S
C659 C640 1.429 . S
C659 C653 1.429 . S
C659 C660 1.523 . S
C660 C641 1.368 . S
C660 C654 1.368 . S
C660 C659 1.523 . S
C661 C645 1.429 . S
C661 C657 1.429 . S
C661 C662 1.523 . S
C662 C646 1.368 . S
C662 C658 1.368 . S
C662 C661 1.523 . S
H663 C638 0.950 . S
H664 C640 0.950 . S
H665 C641 0.949 . S
H666 C643 0.950 . S
H667 C645 0.950 . S
C668 C669 1.349 . S
C668 C670 1.327 . S
C668 H693 0.950 . S
C669 C668 1.349 . S
C669 C685 1.349 . S
C670 C668 1.327 . S
C670 C689 1.429 . S
C670 H694 0.950 . S
C671 C688 1.574 . S
C671 C690 1.368 . S
C671 H695 0.949 . S
H672 C676 0.949 . S
C673 C674 1.349 . S
C673 C675 1.327 . S
C673 H696 0.950 . S
C674 C673 1.349 . S
C674 C686 1.349 . S
C675 C673 1.327 . S
C675 C691 1.429 . S
C675 H697 0.950 . S
C676 H672 0.949 . S
C676 C684 1.574 . S
C676 C692 1.368 . S
H677 C685 0.950 . S
H678 C683 0.950 . S
H679 C684 0.949 . S
H680 C686 0.950 . S
H681 C687 0.950 . S
H682 C688 0.949 . S
C683 H678 0.950 . S
C683 C685 1.327 . S
C683 C689 1.429 . S
C684 C676 1.574 . S
C684 H679 0.949 . S
C684 C690 1.368 . S
C685 C669 1.349 . S
C685 H677 0.950 . S
C685 C683 1.327 . S
C686 C674 1.349 . S
C686 H680 0.950 . S
C686 C687 1.327 . S
C687 H681 0.950 . S
C687 C686 1.327 . S
C687 C691 1.429 . S
C688 C671 1.574 . S
C688 H682 0.949 . S
C688 C692 1.368 . S
C689 C670 1.429 . S
C689 C683 1.429 . S
C689 C690 1.523 . S
C690 C671 1.368 . S
C690 C684 1.368 . S
C690 C689 1.523 . S
C691 C675 1.429 . S
C691 C687 1.429 . S
C691 C692 1.523 . S
C692 C676 1.368 . S
C692 C688 1.368 . S
C692 C691 1.523 . S
H693 C668 0.950 . S
H694 C670 0.950 . S
H695 C671 0.949 . S
H696 C673 0.950 . S
H697 C675 0.950 . S
C698 C699 1.349 . S
C698 C700 1.327 . S
C698 H723 0.950 . S
C699 C698 1.349 . S
C699 C715 1.349 . S
C700 C698 1.327 . S
C700 C719 1.429 . S
C700 H724 0.950 . S
C701 C718 1.574 . S
C701 C720 1.368 . S
C701 H725 0.949 . S
H702 C706 0.949 . S
C703 C704 1.349 . S
C703 C705 1.327 . S
C703 H726 0.950 . S
C704 C703 1.349 . S
C704 C716 1.349 . S
C705 C703 1.327 . S
C705 C721 1.429 . S
C705 H727 0.950 . S
C706 H702 0.949 . S
C706 C714 1.574 . S
C706 C722 1.368 . S
H707 C715 0.950 . S
H708 C713 0.950 . S
H709 C714 0.949 . S
H710 C716 0.950 . S
H711 C717 0.950 . S
H712 C718 0.949 . S
C713 H708 0.950 . S
C713 C715 1.327 . S
C713 C719 1.429 . S
C714 C706 1.574 . S
C714 H709 0.949 . S
C714 C720 1.368 . S
C715 C699 1.349 . S
C715 H707 0.950 . S
C715 C713 1.327 . S
C716 C704 1.349 . S
C716 H710 0.950 . S
C716 C717 1.327 . S
C717 H711 0.950 . S
C717 C716 1.327 . S
C717 C721 1.429 . S
C718 C701 1.574 . S
C718 H712 0.949 . S
C718 C722 1.368 . S
C719 C700 1.429 . S
C719 C713 1.429 . S
C719 C720 1.523 . S
C720 C701 1.368 . S
C720 C714 1.368 . S
C720 C719 1.523 . S
C721 C705 1.429 . S
C721 C717 1.429 . S
C721 C722 1.523 . S
C722 C706 1.368 . S
C722 C718 1.368 . S
C722 C721 1.523 . S
H723 C698 0.950 . S
H724 C700 0.950 . S
H725 C701 0.949 . S
H726 C703 0.950 . S
H727 C705 0.950 . S
C728 C729 1.349 . S
C728 C730 1.327 . S
C728 H753 0.950 . S
C729 C728 1.349 . S
C729 C745 1.349 . S
C730 C728 1.327 . S
C730 C749 1.429 . S
C730 H754 0.950 . S
C731 C748 1.574 . S
C731 C750 1.368 . S
C731 H755 0.949 . S
H732 C736 0.949 . S
C733 C734 1.349 . S
C733 C735 1.327 . S
C733 H756 0.950 . S
C734 C733 1.349 . S
C734 C746 1.349 . S
C735 C733 1.327 . S
C735 C751 1.429 . S
C735 H757 0.950 . S
C736 H732 0.949 . S
C736 C744 1.574 . S
C736 C752 1.368 . S
H737 C745 0.950 . S
H738 C743 0.950 . S
H739 C744 0.949 . S
H740 C746 0.950 . S
H741 C747 0.950 . S
H742 C748 0.949 . S
C743 H738 0.950 . S
C743 C745 1.327 . S
C743 C749 1.429 . S
C744 C736 1.574 . S
C744 H739 0.949 . S
C744 C750 1.368 . S
C745 C729 1.349 . S
C745 H737 0.950 . S
C745 C743 1.327 . S
C746 C734 1.349 . S
C746 H740 0.950 . S
C746 C747 1.327 . S
C747 H741 0.950 . S
C747 C746 1.327 . S
C747 C751 1.429 . S
C748 C731 1.574 . S
C748 H742 0.949 . S
C748 C752 1.368 . S
C749 C730 1.429 . S
C749 C743 1.429 . S
C749 C750 1.523 . S
C750 C731 1.368 . S
C750 C744 1.368 . S
C750 C749 1.523 . S
C751 C735 1.429 . S
C751 C747 1.429 . S
C751 C752 1.523 . S
C752 C736 1.368 . S
C752 C748 1.368 . S
C752 C751 1.523 . S
H753 C728 0.950 . S
H754 C730 0.950 . S
H755 C731 0.949 . S
H756 C733 0.950 . S
H757 C735 0.950 . S
C758 C759 1.349 . S
C758 C760 1.327 . S
C758 H783 0.950 . S
C759 C758 1.349 . S
C759 C775 1.349 . S
C760 C758 1.327 . S
C760 C779 1.429 . S
C760 H784 0.950 . S
C761 C778 1.574 . S
C761 C780 1.368 . S
C761 H785 0.949 . S
H762 C766 0.949 . S
C763 C764 1.349 . S
C763 C765 1.327 . S
C763 H786 0.950 . S
C764 C763 1.349 . S
C764 C776 1.349 . S
C765 C763 1.327 . S
C765 C781 1.429 . S
C765 H787 0.950 . S
C766 H762 0.949 . S
C766 C774 1.574 . S
C766 C782 1.368 . S
H767 C775 0.950 . S
H768 C773 0.950 . S
H769 C774 0.949 . S
H770 C776 0.950 1_556 S
H771 C777 0.950 . S
H772 C778 0.949 . S
C773 H768 0.950 . S
C773 C775 1.327 . S
C773 C779 1.429 . S
C774 C766 1.574 . S
C774 H769 0.949 . S
C774 C780 1.368 . S
C775 C759 1.349 . S
C775 H767 0.950 . S
C775 C773 1.327 . S
C776 C764 1.349 . S
C776 H770 0.950 1_554 S
C776 C777 1.327 . S
C777 H771 0.950 . S
C777 C776 1.327 . S
C777 C781 1.429 . S
C778 C761 1.574 . S
C778 H772 0.949 . S
C778 C782 1.368 . S
C779 C760 1.429 . S
C779 C773 1.429 . S
C779 C780 1.523 . S
C780 C761 1.368 . S
C780 C774 1.368 . S
C780 C779 1.523 . S
C781 C765 1.429 . S
C781 C777 1.429 . S
C781 C782 1.523 . S
C782 C766 1.368 . S
C782 C778 1.368 . S
C782 C781 1.523 . S
H783 C758 0.950 . S
H784 C760 0.950 . S
H785 C761 0.949 . S
H786 C763 0.950 . S
H787 C765 0.950 . S
C788 C789 1.349 . S
C788 C790 1.327 . S
C788 H813 0.950 . S
C789 C788 1.349 . S
C789 C805 1.349 . S
C790 C788 1.327 . S
C790 C809 1.429 . S
C790 H814 0.950 . S
C791 C808 1.574 . S
C791 C810 1.368 . S
C791 H815 0.949 . S
H792 C796 0.949 . S
C793 C794 1.349 . S
C793 C795 1.327 . S
C793 H816 0.950 . S
C794 C793 1.349 . S
C794 C806 1.349 . S
C795 C793 1.327 . S
C795 C811 1.429 . S
C795 H817 0.950 . S
C796 H792 0.949 . S
C796 C804 1.574 . S
C796 C812 1.368 . S
H797 C805 0.950 . S
H798 C803 0.950 . S
H799 C804 0.949 . S
H800 C806 0.950 . S
H801 C807 0.950 . S
H802 C808 0.949 . S
C803 H798 0.950 . S
C803 C805 1.327 . S
C803 C809 1.429 . S
C804 C796 1.574 . S
C804 H799 0.949 . S
C804 C810 1.368 . S
C805 C789 1.349 . S
C805 H797 0.950 . S
C805 C803 1.327 . S
C806 C794 1.349 . S
C806 H800 0.950 . S
C806 C807 1.327 . S
C807 H801 0.950 . S
C807 C806 1.327 . S
C807 C811 1.429 . S
C808 C791 1.574 . S
C808 H802 0.949 . S
C808 C812 1.368 . S
C809 C790 1.429 . S
C809 C803 1.429 . S
C809 C810 1.523 . S
C810 C791 1.368 . S
C810 C804 1.368 . S
C810 C809 1.523 . S
C811 C795 1.429 . S
C811 C807 1.429 . S
C811 C812 1.523 . S
C812 C796 1.368 . S
C812 C808 1.368 . S
C812 C811 1.523 . S
H813 C788 0.950 . S
H814 C790 0.950 . S
H815 C791 0.949 . S
H816 C793 0.950 . S
H817 C795 0.950 . S
C818 C819 1.349 . S
C818 C820 1.327 . S
C818 H843 0.950 . S
C819 C818 1.349 . S
C819 C835 1.349 . S
C820 C818 1.327 . S
C820 C839 1.429 . S
C820 H844 0.950 . S
C821 C838 1.574 . S
C821 C840 1.368 . S
C821 H845 0.949 . S
H822 C826 0.949 . S
C823 C824 1.349 . S
C823 C825 1.327 . S
C823 H846 0.950 . S
C824 C823 1.349 . S
C824 C836 1.349 . S
C825 C823 1.327 . S
C825 C841 1.429 . S
C825 H847 0.950 . S
C826 H822 0.949 . S
C826 C834 1.574 . S
C826 C842 1.368 . S
H827 C835 0.950 . S
H828 C833 0.950 . S
H829 C834 0.949 . S
H830 C836 0.950 . S
H831 C837 0.950 . S
H832 C838 0.949 . S
C833 H828 0.950 . S
C833 C835 1.327 . S
C833 C839 1.429 . S
C834 C826 1.574 . S
C834 H829 0.949 . S
C834 C840 1.368 . S
C835 C819 1.349 . S
C835 H827 0.950 . S
C835 C833 1.327 . S
C836 C824 1.349 . S
C836 H830 0.950 . S
C836 C837 1.327 . S
C837 H831 0.950 . S
C837 C836 1.327 . S
C837 C841 1.429 . S
C838 C821 1.574 . S
C838 H832 0.949 . S
C838 C842 1.368 . S
C839 C820 1.429 . S
C839 C833 1.429 . S
C839 C840 1.523 . S
C840 C821 1.368 . S
C840 C834 1.368 . S
C840 C839 1.523 . S
C841 C825 1.429 . S
C841 C837 1.429 . S
C841 C842 1.523 . S
C842 C826 1.368 . S
C842 C838 1.368 . S
C842 C841 1.523 . S
H843 C818 0.950 . S
H844 C820 0.950 . S
H845 C821 0.949 . S
H846 C823 0.950 . S
H847 C825 0.950 . S
C848 C849 1.349 . S
C848 C850 1.327 . S
C848 H873 0.950 . S
C849 C848 1.349 . S
C849 C865 1.349 . S
C850 C848 1.327 . S
C850 C869 1.429 . S
C850 H874 0.950 . S
C851 C868 1.574 . S
C851 C870 1.368 . S
C851 H875 0.949 . S
H852 C856 0.949 . S
C853 C854 1.349 . S
C853 C855 1.327 . S
C853 H876 0.950 . S
C854 C853 1.349 . S
C854 C866 1.349 . S
C855 C853 1.327 . S
C855 C871 1.429 . S
C855 H877 0.950 . S
C856 H852 0.949 . S
C856 C864 1.574 . S
C856 C872 1.368 . S
H857 C865 0.950 . S
H858 C863 0.950 . S
H859 C864 0.949 . S
H860 C866 0.950 . S
H861 C867 0.950 . S
H862 C868 0.949 . S
C863 H858 0.950 . S
C863 C865 1.327 . S
C863 C869 1.429 . S
C864 C856 1.574 . S
C864 H859 0.949 . S
C864 C870 1.368 . S
C865 C849 1.349 . S
C865 H857 0.950 . S
C865 C863 1.327 . S
C866 C854 1.349 . S
C866 H860 0.950 . S
C866 C867 1.327 . S
C867 H861 0.950 . S
C867 C866 1.327 . S
C867 C871 1.429 . S
C868 C851 1.574 . S
C868 H862 0.949 . S
C868 C872 1.368 . S
C869 C850 1.429 . S
C869 C863 1.429 . S
C869 C870 1.523 . S
C870 C851 1.368 . S
C870 C864 1.368 . S
C870 C869 1.523 . S
C871 C855 1.429 . S
C871 C867 1.429 . S
C871 C872 1.523 . S
C872 C856 1.368 . S
C872 C868 1.368 . S
C872 C871 1.523 . S
H873 C848 0.950 . S
H874 C850 0.950 . S
H875 C851 0.949 . S
H876 C853 0.950 . S
H877 C855 0.950 . S
C878 C879 1.349 . S
C878 C880 1.327 . S
C878 H903 0.950 . S
C879 C878 1.349 . S
C879 C895 1.349 . S
C880 C878 1.327 . S
C880 C899 1.429 . S
C880 H904 0.950 . S
C881 C898 1.574 . S
C881 C900 1.368 . S
C881 H905 0.949 . S
H882 C886 0.949 . S
C883 C884 1.349 . S
C883 C885 1.327 . S
C883 H906 0.950 . S
C884 C883 1.349 . S
C884 C896 1.349 . S
C885 C883 1.327 . S
C885 C901 1.429 . S
C885 H907 0.950 . S
C886 H882 0.949 . S
C886 C894 1.574 . S
C886 C902 1.368 . S
H887 C895 0.950 . S
H888 C893 0.950 . S
H889 C894 0.949 . S
H890 C896 0.950 . S
H891 C897 0.950 . S
H892 C898 0.949 . S
C893 H888 0.950 . S
C893 C895 1.327 . S
C893 C899 1.429 . S
C894 C886 1.574 . S
C894 H889 0.949 . S
C894 C900 1.368 . S
C895 C879 1.349 . S
C895 H887 0.950 . S
C895 C893 1.327 . S
C896 C884 1.349 . S
C896 H890 0.950 . S
C896 C897 1.327 . S
C897 H891 0.950 . S
C897 C896 1.327 . S
C897 C901 1.429 . S
C898 C881 1.574 . S
C898 H892 0.949 . S
C898 C902 1.368 . S
C899 C880 1.429 . S
C899 C893 1.429 . S
C899 C900 1.523 . S
C900 C881 1.368 . S
C900 C894 1.368 . S
C900 C899 1.523 . S
C901 C885 1.429 . S
C901 C897 1.429 . S
C901 C902 1.523 . S
C902 C886 1.368 . S
C902 C898 1.368 . S
C902 C901 1.523 . S
H903 C878 0.950 . S
H904 C880 0.950 . S
H905 C881 0.949 . S
H906 C883 0.950 . S
H907 C885 0.950 . S
C908 C909 1.349 . S
C908 C910 1.327 . S
C908 H933 0.950 . S
C909 C908 1.349 . S
C909 C925 1.349 . S
C910 C908 1.327 . S
C910 C929 1.429 . S
C910 H934 0.950 . S
C911 C928 1.574 . S
C911 C930 1.368 . S
C911 H935 0.949 . S
H912 C916 0.949 . S
C913 C914 1.349 . S
C913 C915 1.327 . S
C913 H936 0.950 . S
C914 C913 1.349 . S
C914 C926 1.349 . S
C915 C913 1.327 . S
C915 C931 1.429 . S
C915 H937 0.950 . S
C916 H912 0.949 . S
C916 C924 1.574 . S
C916 C932 1.368 . S
H917 C925 0.950 . S
H918 C923 0.950 . S
H919 C924 0.949 . S
H920 C926 0.950 . S
H921 C927 0.950 . S
H922 C928 0.949 . S
C923 H918 0.950 . S
C923 C925 1.327 . S
C923 C929 1.429 . S
C924 C916 1.574 . S
C924 H919 0.949 . S
C924 C930 1.368 . S
C925 C909 1.349 . S
C925 H917 0.950 . S
C925 C923 1.327 . S
C926 C914 1.349 . S
C926 H920 0.950 . S
C926 C927 1.327 . S
C927 H921 0.950 . S
C927 C926 1.327 . S
C927 C931 1.429 . S
C928 C911 1.574 . S
C928 H922 0.949 . S
C928 C932 1.368 . S
C929 C910 1.429 . S
C929 C923 1.429 . S
C929 C930 1.523 . S
C930 C911 1.368 . S
C930 C924 1.368 . S
C930 C929 1.523 . S
C931 C915 1.429 . S
C931 C927 1.429 . S
C931 C932 1.523 . S
C932 C916 1.368 . S
C932 C928 1.368 . S
C932 C931 1.523 . S
H933 C908 0.950 . S
H934 C910 0.950 . S
H935 C911 0.949 . S
H936 C913 0.950 . S
H937 C915 0.950 . S
C938 C939 1.349 . S
C938 C940 1.327 . S
C938 H963 0.950 . S
C939 C938 1.349 . S
C939 C955 1.349 . S
C940 C938 1.327 . S
C940 C959 1.429 . S
C940 H964 0.950 . S
C941 C958 1.574 . S
C941 C960 1.368 . S
C941 H965 0.949 . S
H942 C946 0.949 . S
C943 C944 1.349 . S
C943 C945 1.327 . S
C943 H966 0.950 . S
C944 C943 1.349 . S
C944 C956 1.349 . S
C945 C943 1.327 . S
C945 C961 1.429 . S
C945 H967 0.950 . S
C946 H942 0.949 . S
C946 C954 1.574 . S
C946 C962 1.368 . S
H947 C955 0.950 . S
H948 C953 0.950 . S
H949 C954 0.949 . S
H950 C956 0.950 . S
H951 C957 0.950 . S
H952 C958 0.949 . S
C953 H948 0.950 . S
C953 C955 1.327 . S
C953 C959 1.429 . S
C954 C946 1.574 . S
C954 H949 0.949 . S
C954 C960 1.368 . S
C955 C939 1.349 . S
C955 H947 0.950 . S
C955 C953 1.327 . S
C956 C944 1.349 . S
C956 H950 0.950 . S
C956 C957 1.327 . S
C957 H951 0.950 . S
C957 C956 1.327 . S
C957 C961 1.429 . S
C958 C941 1.574 . S
C958 H952 0.949 . S
C958 C962 1.368 . S
C959 C940 1.429 . S
C959 C953 1.429 . S
C959 C960 1.523 . S
C960 C941 1.368 . S
C960 C954 1.368 . S
C960 C959 1.523 . S
C961 C945 1.429 . S
C961 C957 1.429 . S
C961 C962 1.523 . S
C962 C946 1.368 . S
C962 C958 1.368 . S
C962 C961 1.523 . S
H963 C938 0.950 . S
H964 C940 0.950 . S
H965 C941 0.949 . S
H966 C943 0.950 . S
H967 C945 0.950 . S
C968 C969 1.349 . S
C968 C970 1.327 . S
C968 H993 0.950 . S
C969 C968 1.349 . S
C969 C985 1.349 . S
C970 C968 1.327 . S
C970 C989 1.429 . S
C970 H994 0.950 . S
C971 C988 1.574 . S
C971 C990 1.368 . S
C971 H995 0.949 . S
H972 C976 0.949 . S
C973 C974 1.349 . S
C973 C975 1.327 . S
C973 H996 0.950 . S
C974 C973 1.349 . S
C974 C986 1.349 . S
C975 C973 1.327 . S
C975 C991 1.429 . S
C975 H997 0.950 . S
C976 H972 0.949 . S
C976 C984 1.574 . S
C976 C992 1.368 . S
H977 C985 0.950 . S
H978 C983 0.950 . S
H979 C984 0.949 . S
H980 C986 0.950 . S
H981 C987 0.950 . S
H982 C988 0.949 . S
C983 H978 0.950 . S
C983 C985 1.327 . S
C983 C989 1.429 . S
C984 C976 1.574 . S
C984 H979 0.949 . S
C984 C990 1.368 . S
C985 C969 1.349 . S
C985 H977 0.950 . S
C985 C983 1.327 . S
C986 C974 1.349 . S
C986 H980 0.950 . S
C986 C987 1.327 . S
C987 H981 0.950 . S
C987 C986 1.327 . S
C987 C991 1.429 . S
C988 C971 1.574 . S
C988 H982 0.949 . S
C988 C992 1.368 . S
C989 C970 1.429 . S
C989 C983 1.429 . S
C989 C990 1.523 . S
C990 C971 1.368 . S
C990 C984 1.368 . S
C990 C989 1.523 . S
C991 C975 1.429 . S
C991 C987 1.429 . S
C991 C992 1.523 . S
C992 C976 1.368 . S
C992 C988 1.368 . S
C992 C991 1.523 . S
H993 C968 0.950 . S
H994 C970 0.950 . S
H995 C971 0.949 . S
H996 C973 0.950 . S
H997 C975 0.950 . S
C998 C999 1.349 . S
C998 C1000 1.327 . S
C998 H1023 0.950 . S
C999 C998 1.349 . S
C999 C1015 1.349 . S
C1000 C998 1.327 . S
C1000 C1019 1.429 . S
C1000 H1024 0.950 . S
C1001 C1018 1.574 . S
C1001 C1020 1.368 . S
C1001 H1025 0.949 . S
H1002 C1006 0.949 . S
C1003 C1004 1.349 . S
C1003 C1005 1.327 . S
C1003 H1026 0.950 . S
C1004 C1003 1.349 . S
C1004 C1016 1.349 . S
C1005 C1003 1.327 . S
C1005 C1021 1.429 . S
C1005 H1027 0.950 . S
C1006 H1002 0.949 . S
C1006 C1014 1.574 . S
C1006 C1022 1.368 . S
H1007 C1015 0.950 . S
H1008 C1013 0.950 . S
H1009 C1014 0.949 . S
H1010 C1016 0.950 . S
H1011 C1017 0.950 . S
H1012 C1018 0.949 . S
C1013 H1008 0.950 . S
C1013 C1015 1.327 . S
C1013 C1019 1.429 . S
C1014 C1006 1.574 . S
C1014 H1009 0.949 . S
C1014 C1020 1.368 . S
C1015 C999 1.349 . S
C1015 H1007 0.950 . S
C1015 C1013 1.327 . S
C1016 C1004 1.349 . S
C1016 H1010 0.950 . S
C1016 C1017 1.327 . S
C1017 H1011 0.950 . S
C1017 C1016 1.327 . S
C1017 C1021 1.429 . S
C1018 C1001 1.574 . S
C1018 H1012 0.949 . S
C1018 C1022 1.368 . S
C1019 C1000 1.429 . S
C1019 C1013 1.429 . S
C1019 C1020 1.523 . S
C1020 C1001 1.368 . S
C1020 C1014 1.368 . S
C1020 C1019 1.523 . S
C1021 C1005 1.429 . S
C1021 C1017 1.429 . S
C1021 C1022 1.523 . S
C1022 C1006 1.368 . S
C1022 C1018 1.368 . S
C1022 C1021 1.523 . S
H1023 C998 0.950 . S
H1024 C1000 0.950 . S
H1025 C1001 0.949 . S
H1026 C1003 0.950 . S
H1027 C1005 0.950 . S
C1028 C1029 1.349 . S
C1028 C1030 1.327 . S
C1028 H1053 0.950 . S
C1029 C1028 1.349 . S
C1029 C1045 1.349 . S
C1030 C1028 1.327 . S
C1030 C1049 1.429 . S
C1030 H1054 0.950 . S
C1031 C1048 1.574 . S
C1031 C1050 1.368 . S
C1031 H1055 0.949 . S
H1032 C1036 0.949 . S
C1033 C1034 1.349 . S
C1033 C1035 1.327 . S
C1033 H1056 0.950 . S
C1034 C1033 1.349 . S
C1034 C1046 1.349 . S
C1035 C1033 1.327 . S
C1035 C1051 1.429 . S
C1035 H1057 0.950 . S
C1036 H1032 0.949 . S
C1036 C1044 1.574 . S
C1036 C1052 1.368 . S
H1037 C1045 0.950 . S
H1038 C1043 0.950 . S
H1039 C1044 0.949 . S
H1040 C1046 0.950 . S
H1041 C1047 0.950 . S
H1042 C1048 0.949 . S
C1043 H1038 0.950 . S
C1043 C1045 1.327 . S
C1043 C1049 1.429 . S
C1044 C1036 1.574 . S
C1044 H1039 0.949 . S
C1044 C1050 1.368 . S
C1045 C1029 1.349 . S
C1045 H1037 0.950 . S
C1045 C1043 1.327 . S
C1046 C1034 1.349 . S
C1046 H1040 0.950 . S
C1046 C1047 1.327 . S
C1047 H1041 0.950 . S
C1047 C1046 1.327 . S
C1047 C1051 1.429 . S
C1048 C1031 1.574 . S
C1048 H1042 0.949 . S
C1048 C1052 1.368 . S
C1049 C1030 1.429 . S
C1049 C1043 1.429 . S
C1049 C1050 1.523 . S
C1050 C1031 1.368 . S
C1050 C1044 1.368 . S
C1050 C1049 1.523 . S
C1051 C1035 1.429 . S
C1051 C1047 1.429 . S
C1051 C1052 1.523 . S
C1052 C1036 1.368 . S
C1052 C1048 1.368 . S
C1052 C1051 1.523 . S
H1053 C1028 0.950 . S
H1054 C1030 0.950 . S
H1055 C1031 0.949 . S
H1056 C1033 0.950 . S
H1057 C1035 0.950 . S
C1058 C1059 1.349 . S
C1058 C1060 1.327 . S
C1058 H1083 0.950 . S
C1059 C1058 1.349 . S
C1059 C1075 1.349 . S
C1060 C1058 1.327 . S
C1060 C1079 1.429 . S
C1060 H1084 0.950 . S
C1061 C1078 1.574 . S
C1061 C1080 1.368 . S
C1061 H1085 0.949 . S
H1062 C1066 0.949 . S
C1063 C1064 1.349 . S
C1063 C1065 1.327 . S
C1063 H1086 0.950 . S
C1064 C1063 1.349 . S
C1064 C1076 1.349 . S
C1065 C1063 1.327 . S
C1065 C1081 1.429 . S
C1065 H1087 0.950 . S
C1066 H1062 0.949 . S
C1066 C1074 1.574 . S
C1066 C1082 1.368 . S
H1067 C1075 0.950 . S
H1068 C1073 0.950 . S
H1069 C1074 0.949 . S
H1070 C1076 0.950 . S
H1071 C1077 0.950 . S
H1072 C1078 0.949 . S
C1073 H1068 0.950 . S
C1073 C1075 1.327 . S
C1073 C1079 1.429 . S
C1074 C1066 1.574 . S
C1074 H1069 0.949 . S
C1074 C1080 1.368 . S
C1075 C1059 1.349 . S
C1075 H1067 0.950 . S
C1075 C1073 1.327 . S
C1076 C1064 1.349 . S
C1076 H1070 0.950 . S
C1076 C1077 1.327 . S
C1077 H1071 0.950 . S
C1077 C1076 1.327 . S
C1077 C1081 1.429 . S
C1078 C1061 1.574 . S
C1078 H1072 0.949 . S
C1078 C1082 1.368 . S
C1079 C1060 1.429 . S
C1079 C1073 1.429 . S
C1079 C1080 1.523 . S
C1080 C1061 1.368 . S
C1080 C1074 1.368 . S
C1080 C1079 1.523 . S
C1081 C1065 1.429 . S
C1081 C1077 1.429 . S
C1081 C1082 1.523 . S
C1082 C1066 1.368 . S
C1082 C1078 1.368 . S
C1082 C1081 1.523 . S
H1083 C1058 0.950 . S
H1084 C1060 0.950 . S
H1085 C1061 0.949 . S
H1086 C1063 0.950 . S
H1087 C1065 0.950 . S
C1088 C1089 1.349 . S
C1088 C1090 1.327 . S
C1088 H1113 0.950 . S
C1089 C1088 1.349 . S
C1089 C1105 1.349 . S
C1090 C1088 1.327 . S
C1090 C1109 1.429 . S
C1090 H1114 0.950 . S
C1091 C1108 1.574 . S
C1091 C1110 1.368 . S
C1091 H1115 0.949 . S
H1092 C1096 0.949 . S
C1093 C1094 1.349 . S
C1093 C1095 1.327 . S
C1093 H1116 0.950 . S
C1094 C1093 1.349 . S
C1094 C1106 1.349 . S
C1095 C1093 1.327 . S
C1095 C1111 1.429 . S
C1095 H1117 0.950 . S
C1096 H1092 0.949 . S
C1096 C1104 1.574 . S
C1096 C1112 1.368 . S
H1097 C1105 0.950 . S
H1098 C1103 0.950 . S
H1099 C1104 0.949 . S
H1100 C1106 0.950 . S
H1101 C1107 0.950 . S
H1102 C1108 0.949 . S
C1103 H1098 0.950 . S
C1103 C1105 1.327 . S
C1103 C1109 1.429 . S
C1104 C1096 1.574 . S
C1104 H1099 0.949 . S
C1104 C1110 1.368 . S
C1105 C1089 1.349 . S
C1105 H1097 0.950 . S
C1105 C1103 1.327 . S
C1106 C1094 1.349 . S
C1106 H1100 0.950 . S
C1106 C1107 1.327 . S
C1107 H1101 0.950 . S
C1107 C1106 1.327 . S
C1107 C1111 1.429 . S
C1108 C1091 1.574 . S
C1108 H1102 0.949 . S
C1108 C1112 1.368 . S
C1109 C1090 1.429 . S
C1109 C1103 1.429 . S
C1109 C1110 1.523 . S
C1110 C1091 1.368 . S
C1110 C1104 1.368 . S
C1110 C1109 1.523 . S
C1111 C1095 1.429 . S
C1111 C1107 1.429 . S
C1111 C1112 1.523 . S
C1112 C1096 1.368 . S
C1112 C1108 1.368 . S
C1112 C1111 1.523 . S
H1113 C1088 0.950 . S
H1114 C1090 0.950 . S
H1115 C1091 0.949 . S
H1116 C1093 0.950 . S
H1117 C1095 0.950 . S
C1118 C1119 1.349 . S
C1118 C1120 1.327 . S
C1118 H1143 0.950 . S
C1119 C1118 1.349 . S
C1119 C1135 1.349 . S
C1120 C1118 1.327 . S
C1120 C1139 1.429 . S
C1120 H1144 0.950 . S
C1121 C1138 1.574 . S
C1121 C1140 1.368 . S
C1121 H1145 0.949 . S
H1122 C1126 0.949 . S
C1123 C1124 1.349 . S
C1123 C1125 1.327 . S
C1123 H1146 0.950 . S
C1124 C1123 1.349 . S
C1124 C1136 1.349 . S
C1125 C1123 1.327 . S
C1125 C1141 1.429 . S
C1125 H1147 0.950 . S
C1126 H1122 0.949 . S
C1126 C1134 1.574 . S
C1126 C1142 1.368 . S
H1127 C1135 0.950 . S
H1128 C1133 0.950 . S
H1129 C1134 0.949 . S
H1130 C1136 0.950 . S
H1131 C1137 0.950 . S
H1132 C1138 0.949 . S
C1133 H1128 0.950 . S
C1133 C1135 1.327 . S
C1133 C1139 1.429 . S
C1134 C1126 1.574 . S
C1134 H1129 0.949 . S
C1134 C1140 1.368 . S
C1135 C1119 1.349 . S
C1135 H1127 0.950 . S
C1135 C1133 1.327 . S
C1136 C1124 1.349 . S
C1136 H1130 0.950 . S
C1136 C1137 1.327 . S
C1137 H1131 0.950 . S
C1137 C1136 1.327 . S
C1137 C1141 1.429 . S
C1138 C1121 1.574 . S
C1138 H1132 0.949 . S
C1138 C1142 1.368 . S
C1139 C1120 1.429 . S
C1139 C1133 1.429 . S
C1139 C1140 1.523 . S
C1140 C1121 1.368 . S
C1140 C1134 1.368 . S
C1140 C1139 1.523 . S
C1141 C1125 1.429 . S
C1141 C1137 1.429 . S
C1141 C1142 1.523 . S
C1142 C1126 1.368 . S
C1142 C1138 1.368 . S
C1142 C1141 1.523 . S
H1143 C1118 0.950 . S
H1144 C1120 0.950 . S
H1145 C1121 0.949 . S
H1146 C1123 0.950 . S
H1147 C1125 0.950 . S
C1148 C1149 1.349 . S
C1148 C1150 1.327 . S
C1148 H1173 0.950 . S
C1149 C1148 1.349 . S
C1149 C1165 1.349 . S
C1150 C1148 1.327 . S
C1150 C1169 1.429 . S
C1150 H1174 0.950 . S
C1151 C1168 1.574 . S
C1151 C1170 1.368 . S
C1151 H1175 0.949 . S
H1152 C1156 0.949 . S
C1153 C1154 1.349 . S
C1153 C1155 1.327 . S
C1153 H1176 0.950 . S
C1154 C1153 1.349 . S
C1154 C1166 1.349 . S
C1155 C1153 1.327 . S
C1155 C1171 1.429 . S
C1155 H1177 0.950 . S
C1156 H1152 0.949 . S
C1156 C1164 1.574 . S
C1156 C1172 1.368 . S
H1157 C1165 0.950 . S
H1158 C1163 0.950 . S
H1159 C1164 0.949 . S
H1160 C1166 0.950 . S
H1161 C1167 0.950 . S
H1162 C1168 0.949 . S
C1163 H1158 0.950 . S
C1163 C1165 1.327 . S
C1163 C1169 1.429 . S
C1164 C1156 1.574 . S
C1164 H1159 0.949 . S
C1164 C1170 1.368 . S
C1165 C1149 1.349 . S
C1165 H1157 0.950 . S
C1165 C1163 1.327 . S
C1166 C1154 1.349 . S
C1166 H1160 0.950 . S
C1166 C1167 1.327 . S
C1167 H1161 0.950 . S
C1167 C1166 1.327 . S
C1167 C1171 1.429 . S
C1168 C1151 1.574 . S
C1168 H1162 0.949 . S
C1168 C1172 1.368 . S
C1169 C1150 1.429 . S
C1169 C1163 1.429 . S
C1169 C1170 1.523 . S
C1170 C1151 1.368 . S
C1170 C1164 1.368 . S
C1170 C1169 1.523 . S
C1171 C1155 1.429 . S
C1171 C1167 1.429 . S
C1171 C1172 1.523 . S
C1172 C1156 1.368 . S
C1172 C1168 1.368 . S
C1172 C1171 1.523 . S
H1173 C1148 0.950 . S
H1174 C1150 0.950 . S
H1175 C1151 0.949 . S
H1176 C1153 0.950 . S
H1177 C1155 0.950 . S
C1178 C1179 1.349 . S
C1178 C1180 1.327 . S
C1178 H1203 0.950 . S
C1179 C1178 1.349 . S
C1179 C1195 1.349 . S
C1180 C1178 1.327 . S
C1180 C1199 1.429 . S
C1180 H1204 0.950 . S
C1181 C1198 1.574 . S
C1181 C1200 1.368 . S
C1181 H1205 0.949 . S
H1182 C1186 0.949 . S
C1183 C1184 1.349 . S
C1183 C1185 1.327 . S
C1183 H1206 0.950 . S
C1184 C1183 1.349 . S
C1184 C1196 1.349 . S
C1185 C1183 1.327 . S
C1185 C1201 1.429 . S
C1185 H1207 0.950 . S
C1186 H1182 0.949 . S
C1186 C1194 1.574 . S
C1186 C1202 1.368 . S
H1187 C1195 0.950 . S
H1188 C1193 0.950 . S
H1189 C1194 0.949 . S
H1190 C1196 0.950 . S
H1191 C1197 0.950 . S
H1192 C1198 0.949 . S
C1193 H1188 0.950 . S
C1193 C1195 1.327 . S
C1193 C1199 1.429 . S
C1194 C1186 1.574 . S
C1194 H1189 0.949 . S
C1194 C1200 1.368 . S
C1195 C1179 1.349 . S
C1195 H1187 0.950 . S
C1195 C1193 1.327 . S
C1196 C1184 1.349 . S
C1196 H1190 0.950 . S
C1196 C1197 1.327 . S
C1197 H1191 0.950 . S
C1197 C1196 1.327 . S
C1197 C1201 1.429 . S
C1198 C1181 1.574 . S
C1198 H1192 0.949 . S
C1198 C1202 1.368 . S
C1199 C1180 1.429 . S
C1199 C1193 1.429 . S
C1199 C1200 1.523 . S
C1200 C1181 1.368 . S
C1200 C1194 1.368 . S
C1200 C1199 1.523 . S
C1201 C1185 1.429 . S
C1201 C1197 1.429 . S
C1201 C1202 1.523 . S
C1202 C1186 1.368 . S
C1202 C1198 1.368 . S
C1202 C1201 1.523 . S
H1203 C1178 0.950 . S
H1204 C1180 0.950 . S
H1205 C1181 0.949 . S
H1206 C1183 0.950 . S
H1207 C1185 0.950 . S
C1208 C1209 1.349 . S
C1208 C1210 1.327 . S
C1208 H1233 0.950 . S
C1209 C1208 1.349 . S
C1209 C1225 1.349 . S
C1210 C1208 1.327 . S
C1210 C1229 1.429 . S
C1210 H1234 0.950 . S
C1211 C1228 1.574 . S
C1211 C1230 1.368 . S
C1211 H1235 0.949 . S
H1212 C1216 0.949 . S
C1213 C1214 1.349 . S
C1213 C1215 1.327 . S
C1213 H1236 0.950 . S
C1214 C1213 1.349 . S
C1214 C1226 1.349 . S
C1215 C1213 1.327 . S
C1215 C1231 1.429 . S
C1215 H1237 0.950 . S
C1216 H1212 0.949 . S
C1216 C1224 1.574 . S
C1216 C1232 1.368 . S
H1217 C1225 0.950 . S
H1218 C1223 0.950 . S
H1219 C1224 0.949 . S
H1220 C1226 0.950 . S
H1221 C1227 0.950 . S
H1222 C1228 0.949 . S
C1223 H1218 0.950 . S
C1223 C1225 1.327 . S
C1223 C1229 1.429 . S
C1224 C1216 1.574 . S
C1224 H1219 0.949 . S
C1224 C1230 1.368 . S
C1225 C1209 1.349 . S
C1225 H1217 0.950 . S
C1225 C1223 1.327 . S
C1226 C1214 1.349 . S
C1226 H1220 0.950 . S
C1226 C1227 1.327 . S
C1227 H1221 0.950 . S
C1227 C1226 1.327 . S
C1227 C1231 1.429 . S
C1228 C1211 1.574 . S
C1228 H1222 0.949 . S
C1228 C1232 1.368 . S
C1229 C1210 1.429 . S
C1229 C1223 1.429 . S
C1229 C1230 1.523 . S
C1230 C1211 1.368 . S
C1230 C1224 1.368 . S
C1230 C1229 1.523 . S
C1231 C1215 1.429 . S
C1231 C1227 1.429 . S
C1231 C1232 1.523 . S
C1232 C1216 1.368 . S
C1232 C1228 1.368 . S
C1232 C1231 1.523 . S
H1233 C1208 0.950 . S
H1234 C1210 0.950 . S
H1235 C1211 0.949 . S
H1236 C1213 0.950 . S
H1237 C1215 0.950 . S
C1238 C1239 1.349 . S
C1238 C1240 1.327 . S
C1238 H1263 0.950 . S
C1239 C1238 1.349 . S
C1239 C1255 1.349 . S
C1240 C1238 1.327 . S
C1240 C1259 1.429 . S
C1240 H1264 0.950 . S
C1241 C1258 1.574 . S
C1241 C1260 1.368 . S
C1241 H1265 0.949 . S
H1242 C1246 0.949 . S
C1243 C1244 1.349 . S
C1243 C1245 1.327 . S
C1243 H1266 0.950 . S
C1244 C1243 1.349 . S
C1244 C1256 1.349 . S
C1245 C1243 1.327 . S
C1245 C1261 1.429 . S
C1245 H1267 0.950 . S
C1246 H1242 0.949 . S
C1246 C1254 1.574 . S
C1246 C1262 1.368 . S
H1247 C1255 0.950 . S
H1248 C1253 0.950 . S
H1249 C1254 0.949 . S
H1250 C1256 0.950 . S
H1251 C1257 0.950 . S
H1252 C1258 0.949 . S
C1253 H1248 0.950 . S
C1253 C1255 1.327 . S
C1253 C1259 1.429 . S
C1254 C1246 1.574 . S
C1254 H1249 0.949 . S
C1254 C1260 1.368 . S
C1255 C1239 1.349 . S
C1255 H1247 0.950 . S
C1255 C1253 1.327 . S
C1256 C1244 1.349 . S
C1256 H1250 0.950 . S
C1256 C1257 1.327 . S
C1257 H1251 0.950 . S
C1257 C1256 1.327 . S
C1257 C1261 1.429 . S
C1258 C1241 1.574 . S
C1258 H1252 0.949 . S
C1258 C1262 1.368 . S
C1259 C1240 1.429 . S
C1259 C1253 1.429 . S
C1259 C1260 1.523 . S
C1260 C1241 1.368 . S
C1260 C1254 1.368 . S
C1260 C1259 1.523 . S
C1261 C1245 1.429 . S
C1261 C1257 1.429 . S
C1261 C1262 1.523 . S
C1262 C1246 1.368 . S
C1262 C1258 1.368 . S
C1262 C1261 1.523 . S
H1263 C1238 0.950 . S
H1264 C1240 0.950 . S
H1265 C1241 0.949 . S
H1266 C1243 0.950 . S
H1267 C1245 0.950 . S
C1268 C1269 1.349 . S
C1268 C1270 1.327 . S
C1268 H1293 0.950 . S
C1269 C1268 1.349 . S
C1269 C1285 1.349 . S
C1270 C1268 1.327 . S
C1270 C1289 1.429 . S
C1270 H1294 0.950 . S
C1271 C1288 1.574 . S
C1271 C1290 1.368 . S
C1271 H1295 0.949 . S
H1272 C1276 0.949 . S
C1273 C1274 1.349 . S
C1273 C1275 1.327 . S
C1273 H1296 0.950 . S
C1274 C1273 1.349 . S
C1274 C1286 1.349 . S
C1275 C1273 1.327 . S
C1275 C1291 1.429 . S
C1275 H1297 0.950 . S
C1276 H1272 0.949 . S
C1276 C1284 1.574 . S
C1276 C1292 1.368 . S
H1277 C1285 0.950 . S
H1278 C1283 0.950 . S
H1279 C1284 0.949 . S
H1280 C1286 0.950 . S
H1281 C1287 0.950 . S
H1282 C1288 0.949 . S
C1283 H1278 0.950 . S
C1283 C1285 1.327 . S
C1283 C1289 1.429 . S
C1284 C1276 1.574 . S
C1284 H1279 0.949 . S
C1284 C1290 1.368 . S
C1285 C1269 1.349 . S
C1285 H1277 0.950 . S
C1285 C1283 1.327 . S
C1286 C1274 1.349 . S
C1286 H1280 0.950 . S
C1286 C1287 1.327 . S
C1287 H1281 0.950 . S
C1287 C1286 1.327 . S
C1287 C1291 1.429 . S
C1288 C1271 1.574 . S
C1288 H1282 0.949 . S
C1288 C1292 1.368 . S
C1289 C1270 1.429 . S
C1289 C1283 1.429 . S
C1289 C1290 1.523 . S
C1290 C1271 1.368 . S
C1290 C1284 1.368 . S
C1290 C1289 1.523 . S
C1291 C1275 1.429 . S
C1291 C1287 1.429 . S
C1291 C1292 1.523 . S
C1292 C1276 1.368 . S
C1292 C1288 1.368 . S
C1292 C1291 1.523 . S
H1293 C1268 0.950 . S
H1294 C1270 0.950 . S
H1295 C1271 0.949 . S
H1296 C1273 0.950 . S
H1297 C1275 0.950 . S
C1298 C1299 1.349 . S
C1298 C1300 1.327 . S
C1298 H1323 0.950 . S
C1299 C1298 1.349 . S
C1299 C1315 1.349 . S
C1300 C1298 1.327 . S
C1300 C1319 1.429 . S
C1300 H1324 0.950 . S
C1301 C1318 1.574 . S
C1301 C1320 1.368 . S
C1301 H1325 0.949 . S
H1302 C1306 0.949 . S
C1303 C1304 1.349 . S
C1303 C1305 1.327 . S
C1303 H1326 0.950 . S
C1304 C1303 1.349 . S
C1304 C1316 1.349 . S
C1305 C1303 1.327 . S
C1305 C1321 1.429 . S
C1305 H1327 0.950 . S
C1306 H1302 0.949 . S
C1306 C1314 1.574 . S
C1306 C1322 1.368 . S
H1307 C1315 0.950 . S
H1308 C1313 0.950 . S
H1309 C1314 0.949 . S
H1310 C1316 0.950 . S
H1311 C1317 0.950 . S
H1312 C1318 0.949 . S
C1313 H1308 0.950 . S
C1313 C1315 1.327 . S
C1313 C1319 1.429 . S
C1314 C1306 1.574 . S
C1314 H1309 0.949 . S
C1314 C1320 1.368 . S
C1315 C1299 1.349 . S
C1315 H1307 0.950 . S
C1315 C1313 1.327 . S
C1316 C1304 1.349 . S
C1316 H1310 0.950 . S
C1316 C1317 1.327 . S
C1317 H1311 0.950 . S
C1317 C1316 1.327 . S
C1317 C1321 1.429 . S
C1318 C1301 1.574 . S
C1318 H1312 0.949 . S
C1318 C1322 1.368 . S
C1319 C1300 1.429 . S
C1319 C1313 1.429 . S
C1319 C1320 1.523 . S
C1320 C1301 1.368 . S
C1320 C1314 1.368 . S
C1320 C1319 1.523 . S
C1321 C1305 1.429 . S
C1321 C1317 1.429 . S
C1321 C1322 1.523 . S
C1322 C1306 1.368 . S
C1322 C1318 1.368 . S
C1322 C1321 1.523 . S
H1323 C1298 0.950 . S
H1324 C1300 0.950 . S
H1325 C1301 0.949 . S
H1326 C1303 0.950 . S
H1327 C1305 0.950 . S
C1328 C1329 1.349 . S
C1328 C1330 1.327 . S
C1328 H1353 0.950 . S
C1329 C1328 1.349 . S
C1329 C1345 1.349 . S
C1330 C1328 1.327 . S
C1330 C1349 1.429 . S
C1330 H1354 0.950 . S
C1331 C1348 1.574 . S
C1331 C1350 1.368 . S
C1331 H1355 0.949 . S
H1332 C1336 0.949 . S
C1333 C1334 1.349 . S
C1333 C1335 1.327 . S
C1333 H1356 0.950 . S
C1334 C1333 1.349 . S
C1334 C1346 1.349 . S
C1335 C1333 1.327 . S
C1335 C1351 1.429 . S
C1335 H1357 0.950 . S
C1336 H1332 0.949 . S
C1336 C1344 1.574 . S
C1336 C1352 1.368 . S
H1337 C1345 0.950 . S
H1338 C1343 0.950 . S
H1339 C1344 0.949 . S
H1340 C1346 0.950 . S
H1341 C1347 0.950 . S
H1342 C1348 0.949 . S
C1343 H1338 0.950 . S
C1343 C1345 1.327 . S
C1343 C1349 1.429 . S
C1344 C1336 1.574 . S
C1344 H1339 0.949 . S
C1344 C1350 1.368 . S
C1345 C1329 1.349 . S
C1345 H1337 0.950 . S
C1345 C1343 1.327 . S
C1346 C1334 1.349 . S
C1346 H1340 0.950 . S
C1346 C1347 1.327 . S
C1347 H1341 0.950 . S
C1347 C1346 1.327 . S
C1347 C1351 1.429 . S
C1348 C1331 1.574 . S
C1348 H1342 0.949 . S
C1348 C1352 1.368 . S
C1349 C1330 1.429 . S
C1349 C1343 1.429 . S
C1349 C1350 1.523 . S
C1350 C1331 1.368 . S
C1350 C1344 1.368 . S
C1350 C1349 1.523 . S
C1351 C1335 1.429 . S
C1351 C1347 1.429 . S
C1351 C1352 1.523 . S
C1352 C1336 1.368 . S
C1352 C1348 1.368 . S
C1352 C1351 1.523 . S
H1353 C1328 0.950 . S
H1354 C1330 0.950 . S
H1355 C1331 0.949 . S
H1356 C1333 0.950 . S
H1357 C1335 0.950 . S
C1358 C1359 1.349 . S
C1358 C1360 1.327 . S
C1358 H1383 0.950 . S
C1359 C1358 1.349 . S
C1359 C1375 1.349 . S
C1360 C1358 1.327 . S
C1360 C1379 1.429 . S
C1360 H1384 0.950 . S
C1361 C1378 1.574 . S
C1361 C1380 1.368 . S
C1361 H1385 0.949 . S
H1362 C1366 0.949 . S
C1363 C1364 1.349 . S
C1363 C1365 1.327 . S
C1363 H1386 0.950 . S
C1364 C1363 1.349 . S
C1364 C1376 1.349 . S
C1365 C1363 1.327 . S
C1365 C1381 1.429 . S
C1365 H1387 0.950 . S
C1366 H1362 0.949 . S
C1366 C1374 1.574 . S
C1366 C1382 1.368 . S
H1367 C1375 0.950 . S
H1368 C1373 0.950 . S
H1369 C1374 0.949 . S
H1370 C1376 0.950 . S
H1371 C1377 0.950 . S
H1372 C1378 0.949 . S
C1373 H1368 0.950 . S
C1373 C1375 1.327 . S
C1373 C1379 1.429 . S
C1374 C1366 1.574 . S
C1374 H1369 0.949 . S
C1374 C1380 1.368 . S
C1375 C1359 1.349 . S
C1375 H1367 0.950 . S
C1375 C1373 1.327 . S
C1376 C1364 1.349 . S
C1376 H1370 0.950 . S
C1376 C1377 1.327 . S
C1377 H1371 0.950 . S
C1377 C1376 1.327 . S
C1377 C1381 1.429 . S
C1378 C1361 1.574 . S
C1378 H1372 0.949 . S
C1378 C1382 1.368 . S
C1379 C1360 1.429 . S
C1379 C1373 1.429 . S
C1379 C1380 1.523 . S
C1380 C1361 1.368 . S
C1380 C1374 1.368 . S
C1380 C1379 1.523 . S
C1381 C1365 1.429 . S
C1381 C1377 1.429 . S
C1381 C1382 1.523 . S
C1382 C1366 1.368 . S
C1382 C1378 1.368 . S
C1382 C1381 1.523 . S
H1383 C1358 0.950 . S
H1384 C1360 0.950 . S
H1385 C1361 0.949 . S
H1386 C1363 0.950 . S
H1387 C1365 0.950 . S
C1388 C1389 1.349 . S
C1388 C1390 1.327 . S
C1388 H1413 0.950 . S
C1389 C1388 1.349 . S
C1389 C1405 1.349 . S
C1390 C1388 1.327 . S
C1390 C1409 1.429 . S
C1390 H1414 0.950 . S
C1391 C1408 1.574 . S
C1391 C1410 1.368 . S
C1391 H1415 0.949 . S
H1392 C1396 0.949 . S
C1393 C1394 1.349 . S
C1393 C1395 1.327 . S
C1393 H1416 0.950 . S
C1394 C1393 1.349 . S
C1394 C1406 1.349 . S
C1395 C1393 1.327 . S
C1395 C1411 1.429 . S
C1395 H1417 0.950 . S
C1396 H1392 0.949 . S
C1396 C1404 1.574 . S
C1396 C1412 1.368 . S
H1397 C1405 0.950 . S
H1398 C1403 0.950 . S
H1399 C1404 0.949 . S
H1400 C1406 0.950 . S
H1401 C1407 0.950 . S
H1402 C1408 0.949 . S
C1403 H1398 0.950 . S
C1403 C1405 1.327 . S
C1403 C1409 1.429 . S
C1404 C1396 1.574 . S
C1404 H1399 0.949 . S
C1404 C1410 1.368 . S
C1405 C1389 1.349 . S
C1405 H1397 0.950 . S
C1405 C1403 1.327 . S
C1406 C1394 1.349 . S
C1406 H1400 0.950 . S
C1406 C1407 1.327 . S
C1407 H1401 0.950 . S
C1407 C1406 1.327 . S
C1407 C1411 1.429 . S
C1408 C1391 1.574 . S
C1408 H1402 0.949 . S
C1408 C1412 1.368 . S
C1409 C1390 1.429 . S
C1409 C1403 1.429 . S
C1409 C1410 1.523 . S
C1410 C1391 1.368 . S
C1410 C1404 1.368 . S
C1410 C1409 1.523 . S
C1411 C1395 1.429 . S
C1411 C1407 1.429 . S
C1411 C1412 1.523 . S
C1412 C1396 1.368 . S
C1412 C1408 1.368 . S
C1412 C1411 1.523 . S
H1413 C1388 0.950 . S
H1414 C1390 0.950 . S
H1415 C1391 0.949 . S
H1416 C1393 0.950 . S
H1417 C1395 0.950 . S
C1418 C1419 1.349 . S
C1418 C1420 1.327 . S
C1418 H1443 0.950 . S
C1419 C1418 1.349 . S
C1419 C1435 1.349 . S
C1420 C1418 1.327 . S
C1420 C1439 1.429 . S
C1420 H1444 0.950 . S
C1421 C1438 1.574 . S
C1421 C1440 1.368 . S
C1421 H1445 0.949 . S
H1422 C1426 0.949 . S
C1423 C1424 1.349 . S
C1423 C1425 1.327 . S
C1423 H1446 0.950 . S
C1424 C1423 1.349 . S
C1424 C1436 1.349 . S
C1425 C1423 1.327 . S
C1425 C1441 1.429 . S
C1425 H1447 0.950 . S
C1426 H1422 0.949 . S
C1426 C1434 1.574 . S
C1426 C1442 1.368 . S
H1427 C1435 0.950 . S
H1428 C1433 0.950 . S
H1429 C1434 0.949 . S
H1430 C1436 0.950 . S
H1431 C1437 0.950 . S
H1432 C1438 0.949 . S
C1433 H1428 0.950 . S
C1433 C1435 1.327 . S
C1433 C1439 1.429 . S
C1434 C1426 1.574 . S
C1434 H1429 0.949 . S
C1434 C1440 1.368 . S
C1435 C1419 1.349 . S
C1435 H1427 0.950 . S
C1435 C1433 1.327 . S
C1436 C1424 1.349 . S
C1436 H1430 0.950 . S
C1436 C1437 1.327 . S
C1437 H1431 0.950 . S
C1437 C1436 1.327 . S
C1437 C1441 1.429 . S
C1438 C1421 1.574 . S
C1438 H1432 0.949 . S
C1438 C1442 1.368 . S
C1439 C1420 1.429 . S
C1439 C1433 1.429 . S
C1439 C1440 1.523 . S
C1440 C1421 1.368 . S
C1440 C1434 1.368 . S
C1440 C1439 1.523 . S
C1441 C1425 1.429 . S
C1441 C1437 1.429 . S
C1441 C1442 1.523 . S
C1442 C1426 1.368 . S
C1442 C1438 1.368 . S
C1442 C1441 1.523 . S
H1443 C1418 0.950 . S
H1444 C1420 0.950 . S
H1445 C1421 0.949 . S
H1446 C1423 0.950 . S
H1447 C1425 0.950 . S
C494 C400 1.287 . S
C489 C36 1.278 . S
C524 C414 1.281 . S
C519 C93 1.280 . S
C554 C427 1.287 . S
C549 C126 1.277 . S
C579 C165 1.276 . S
C584 C394 1.289 . S
C609 C222 1.287 . S
C614 C387 1.298 . S
C639 C261 1.279 . S
C644 C407 1.291 . S
C674 C415 1.287 . S
C669 C318 1.278 . S
C704 C428 1.292 . S
C699 C381 1.291 . S
C729 C132 1.278 . S
C734 C454 1.286 . S
C764 C472 1.280 . S
C759 C189 1.280 . S
C789 C30 1.276 . S
C794 C479 1.286 . S
C824 C446 1.289 . S
C819 C69 1.276 . S
C849 C324 1.289 . S
C854 C439 1.297 . S
C879 C357 1.279 . S
C884 C453 1.291 . S
C914 C465 1.287 . S
C909 C228 1.279 . S
C939 C285 1.292 . S
C944 C480 1.292 . S
C974 C413 1.802 . S
C969 C45 1.808 . S
C1004 C426 1.807 . S
C999 C84 1.822 . S
C1029 C117 1.808 . S
C1034 C389 1.800 . S
C1059 C174 1.780 . S
C1064 C401 1.789 . S
C1089 C213 1.797 . S
C1094 C433 1.783 . S
C1124 C388 1.785 . S
C1119 C270 1.776 . S
C1154 C402 1.800 . S
C1149 C309 1.808 . S
C1184 C420 1.789 . S
C1179 C372 1.811 . S
C1214 C467 1.803 . S
C1209 C141 1.809 . S
C1244 C478 1.806 . S
C1239 C180 1.822 . S
C1269 C21 1.807 . S
C1274 C441 1.799 . S
C1304 C459 1.788 . S
C1299 C78 1.779 . S
C1334 C485 1.782 . S
C1329 C333 1.794 . S
C1359 C366 1.776 . S
C1364 C440 1.785 . S
C1394 C452 1.799 . S
C1389 C237 1.805 . S
C1424 C466 1.789 . S
C1419 C276 1.810 . S
