# Generated by pormake.
# Topology anh, (6,3)-cn, num edge types: 1
# Building blocks:
#     Node 0, Type 0, BuildingBlock: PAMTOO_clean_sbu_0, # of connection points: 6
#     Node 1, Type 0, BuildingBlock: PAMTOO_clean_sbu_0, # of connection points: 6
#     Node 2, Type 0, BuildingBlock: PAMTOO_clean_sbu_0, # of connection points: 6
#     Node 3, Type 1, BuildingBlock: KAKCAD_clean_linker_0, # of connection points: 3
#     Node 4, Type 1, BuildingBlock: KAKCAD_clean_linker_0, # of connection points: 3
#     Node 5, Type 1, BuildingBlock: KAKCAD_clean_linker_0, # of connection points: 3
#     Node 6, Type 1, BuildingBlock: KAKCAD_clean_linker_0, # of connection points: 3
#     Node 7, Type 1, BuildingBlock: KAKCAD_clean_linker_0, # of connection points: 3
#     Node 8, Type 1, BuildingBlock: KAKCAD_clean_linker_0, # of connection points: 3
#     Edge 9, Type (0, 1), BuildingBlock: UVAHIK_clean_linker_0, # of connection points: 2
#     Edge 10, Type (0, 1), BuildingBlock: UVAHIK_clean_linker_0, # of connection points: 2
#     Edge 11, Type (0, 1), BuildingBlock: UVAHIK_clean_linker_0, # of connection points: 2
#     Edge 12, Type (0, 1), BuildingBlock: UVAHIK_clean_linker_0, # of connection points: 2
#     Edge 13, Type (0, 1), BuildingBlock: UVAHIK_clean_linker_0, # of connection points: 2
#     Edge 14, Type (0, 1), BuildingBlock: UVAHIK_clean_linker_0, # of connection points: 2
#     Edge 15, Type (0, 1), BuildingBlock: UVAHIK_clean_linker_0, # of connection points: 2
#     Edge 16, Type (0, 1), BuildingBlock: UVAHIK_clean_linker_0, # of connection points: 2
#     Edge 17, Type (0, 1), BuildingBlock: UVAHIK_clean_linker_0, # of connection points: 2
#     Edge 18, Type (0, 1), BuildingBlock: UVAHIK_clean_linker_0, # of connection points: 2
#     Edge 19, Type (0, 1), BuildingBlock: UVAHIK_clean_linker_0, # of connection points: 2
#     Edge 20, Type (0, 1), BuildingBlock: UVAHIK_clean_linker_0, # of connection points: 2
#     Edge 21, Type (0, 1), BuildingBlock: UVAHIK_clean_linker_0, # of connection points: 2
#     Edge 22, Type (0, 1), BuildingBlock: UVAHIK_clean_linker_0, # of connection points: 2
#     Edge 23, Type (0, 1), BuildingBlock: UVAHIK_clean_linker_0, # of connection points: 2
#     Edge 24, Type (0, 1), BuildingBlock: UVAHIK_clean_linker_0, # of connection points: 2
#     Edge 25, Type (0, 1), BuildingBlock: UVAHIK_clean_linker_0, # of connection points: 2
#     Edge 26, Type (0, 1), BuildingBlock: UVAHIK_clean_linker_0, # of connection points: 2
# Relax obj value: 0.160
# Max RMSD: 0.187
# Mean RMSD: 0.150
data_MOF--net-anh--node1-PAMTOO_clean_sbu_0--node2-KAKCAD_clean_linker_0--edge1-UVAHIK_clean_linker_0
_symmetry_space_group_name_H-M    P1
_symmetry_Int_Tables_number       1
_symmetry_cell_setting            triclinic
loop_
_symmetry_equiv_pos_as_xyz
'x, y, z'
_cell_length_a     45.422937
_cell_length_b     44.125296
_cell_length_c     82.364233
_cell_angle_alpha  90.101113
_cell_angle_beta   95.001519
_cell_angle_gamma 108.19782
loop_
_atom_site_label
_atom_site_type_symbol
_atom_site_fract_x
_atom_site_fract_y
_atom_site_fract_z
_atom_type_partial_charge
Dy0 Dy 0.0556 0.59761 0.1493 0.0
Dy1 Dy 1.02863 0.52106 0.1397 0.0
C2 C 0.05058 0.57319 0.1128 0.0
O3 O 1.00461 0.58763 0.14101 0.0
O4 O 0.98785 0.53464 0.14695 0.0
O5 O 0.06332 0.64695 0.14318 0.0
O6 O 0.0785 0.63494 0.16731 0.0
O7 O 0.04017 0.52521 0.16674 0.0
O8 O 1.03346 0.5737 0.17091 0.0
O9 O 0.07968 0.53463 0.13635 0.0
O10 O 0.09656 0.57905 0.15343 0.0
O11 O 1.02887 0.47253 0.14306 0.0
O12 O 0.99593 0.48255 0.12501 0.0
C13 C 0.98195 0.56146 0.14371 0.0
O14 O 0.06844 0.59272 0.12421 0.0
O15 O 1.02889 0.54714 0.11636 0.0
C16 C 0.10956 0.68205 0.15657 0.0
C17 C 0.16958 0.72719 0.15789 0.0
C18 C 0.16254 0.69832 0.14881 0.0
C19 C 0.1328 0.67589 0.1482 0.0
C20 C 0.1162 0.71095 0.16535 0.0
C21 C 0.14591 0.73332 0.16602 0.0
C22 C 0.07906 0.65771 0.15716 0.0
C23 C 1.03543 0.54652 0.17642 0.0
C24 C 0.10229 0.55645 0.14496 0.0
C25 C 0.97873 0.43504 0.1391 0.0
C26 C 0.92817 0.38662 0.15011 0.0
C27 C 0.93772 0.41755 0.15729 0.0
C28 C 0.96275 0.44154 0.15183 0.0
C29 C 0.96956 0.40428 0.13199 0.0
C30 C 0.94452 0.38024 0.13745 0.0
C31 C 1.00423 0.46052 0.13289 0.0
H32 H 0.18004 0.69294 0.14225 0.0
H33 H 0.12809 0.65354 0.14143 0.0
H34 H 0.09859 0.71591 0.17201 0.0
H35 H 0.15057 0.75498 0.17336 0.0
H36 H 0.92596 0.42319 0.16721 0.0
H37 H 0.96955 0.46523 0.15746 0.0
H38 H 0.98155 0.39894 0.12209 0.0
H39 H 0.93756 0.35683 0.13152 0.0
Dy40 Dy 0.54426 0.01788 0.51389 0.0
Dy41 Dy 0.6212 0.03944 0.51799 0.0
C42 C 0.58214 0.02617 0.54842 0.0
O43 O 0.5593 0.07039 0.51022 0.0
O44 O 0.60955 0.08421 0.52225 0.0
O45 O 0.50076 -0.0011 0.52448 0.0
O46 O 0.50091 0.01336 0.49935 0.0
O47 O 0.60628 0.04981 0.49267 0.0
O48 O 0.56026 0.00935 0.48991 0.0
O49 O 0.60634 0.98688 0.51263 0.0
O50 O 0.5551 0.9725 0.51839 0.0
O51 O 0.66467 0.04136 0.50865 0.0
O52 O 0.6645 0.0623 0.53246 0.0
C53 C 0.58515 0.0919 0.51625 0.0
O54 O 0.56072 0.03477 0.53965 0.0
O55 O 0.60433 0.01943 0.54149 0.0
C56 C 0.45925 0.9691 0.50598 0.0
C57 C 0.4107 0.91201 0.49737 0.0
C58 C 0.43942 0.91116 0.50494 0.0
C59 C 0.4635 0.93943 0.50915 0.0
C60 C 0.43085 0.97014 0.49829 0.0
C61 C 0.4068 0.94187 0.49399 0.0
C62 C 0.48404 -0.00096 0.5108 0.0
C63 C 0.58338 0.02999 0.48342 0.0
C64 C 0.58007 0.96515 0.51543 0.0
C65 C 0.70494 0.08855 0.51672 0.0
C66 C 0.75022 0.14566 0.5093 0.0
C67 C 0.7187 0.13976 0.5037 0.0
C68 C 0.69625 0.11148 0.50741 0.0
C69 C 0.73622 0.09421 0.52234 0.0
C70 C 0.75871 0.12253 0.51867 0.0
C71 C 0.68136 0.05913 0.52093 0.0
H72 H 0.44316 0.88867 0.50791 0.0
H73 H 0.4853 0.9381 0.51504 0.0
H74 H 0.42724 0.99284 0.49566 0.0
H75 H 0.38522 0.94344 0.48792 0.0
H76 H 0.71139 0.15683 0.49628 0.0
H77 H 0.67209 0.10748 0.50303 0.0
H78 H 0.74323 0.07681 0.52966 0.0
H79 H 0.78267 0.1265 0.52338 0.0
Dy80 Dy 0.55278 0.46169 0.84493 0.0
Dy81 Dy 0.4773 0.43259 0.83574 0.0
C82 C 0.52387 0.4532 0.80876 0.0
O83 O 0.53645 0.50429 0.84655 0.0
O84 O 0.48757 0.48507 0.83282 0.0
O85 O 0.59326 0.49109 0.85981 0.0
O86 O 0.59842 0.46163 0.83983 0.0
O87 O 0.48527 0.4517 0.86147 0.0
O88 O 0.53172 0.44271 0.86771 0.0
O89 O 0.49148 0.39057 0.84377 0.0
O90 O 0.54253 0.40998 0.83837 0.0
O91 O 0.43058 0.40876 0.84199 0.0
O92 O 0.43875 0.42264 0.81716 0.0
C93 C 0.51105 0.50871 0.83949 0.0
O94 O 0.54269 0.47396 0.81936 0.0
O95 O 0.50173 0.42897 0.81368 0.0
C96 C 0.63711 0.51084 0.84504 0.0
C97 C 0.68554 0.55937 0.83266 0.0
C98 C 0.65464 0.55321 0.82593 0.0
C99 C 0.63057 0.52906 0.83207 0.0
C100 C 0.66768 0.51741 0.85204 0.0
C101 C 0.6917 0.54151 0.84594 0.0
C102 C 0.61255 0.48395 0.8508 0.0
C103 C 0.50667 0.44777 0.8723 0.0
C104 C 0.51801 0.38613 0.84135 0.0
C105 C 0.39421 0.42844 0.82703 0.0
C106 C 0.35103 0.4625 0.82362 0.0
C107 C 0.37879 0.47444 0.83389 0.0
C108 C 0.40024 0.45763 0.83552 0.0
C109 C 0.36644 0.41613 0.81697 0.0
C110 C 0.34496 0.433 0.81529 0.0
C111 C 0.41804 0.41238 0.82755 0.0
H112 H 0.64918 0.56645 0.81567 0.0
H113 H 0.60697 0.52418 0.82653 0.0
H114 H 0.67305 0.5036 0.86208 0.0
H115 H 0.71516 0.54612 0.85163 0.0
H116 H 0.38399 0.4968 0.84069 0.0
H117 H 0.42177 0.46767 0.84321 0.0
H118 H 0.36169 0.39383 0.81016 0.0
H119 H 0.32399 0.42332 0.80715 0.0
C120 C 0.58903 0.07372 0.30052 0.0
C121 C 0.5827 0.04444 0.30841 0.0
C122 C 0.5878 0.07462 0.2835 0.0
C123 C 0.58024 0.04626 0.274 0.0
C124 C 0.57447 0.01706 0.28192 0.0
C125 C 0.57564 0.01615 0.29891 0.0
C126 C 0.57765 0.04696 0.25589 0.0
C127 C 0.59928 0.0704 0.24772 0.0
C128 C 0.59678 0.07116 0.23058 0.0
C129 C 0.5722 0.04793 0.22159 0.0
C130 C 0.5504 0.02422 0.22958 0.0
C131 C 0.55328 0.02411 0.2467 0.0
C132 C 0.52413 -0.00035 0.22033 0.0
C133 C 0.50602 0.00808 0.20747 0.0
C134 C 0.51579 0.96772 0.22506 0.0
C135 C 0.48919 0.94504 0.21766 0.0
C136 C 0.47022 0.95369 0.20533 0.0
C137 C 0.62021 0.09606 0.22223 0.0
C138 C 0.63063 0.12782 0.22826 0.0
C139 C 0.63318 0.08815 0.20857 0.0
C140 C 0.65654 0.11134 0.20135 0.0
C141 C 0.66733 0.14299 0.20758 0.0
C142 C 0.65387 0.15099 0.22103 0.0
C143 C 0.4793 0.98531 0.20004 0.0
H144 H 0.5942 0.09591 0.30748 0.0
H145 H 0.59201 0.09748 0.27777 0.0
H146 H 0.56916 0.99482 0.27499 0.0
H147 H 0.57121 0.99326 0.30462 0.0
H148 H 0.61861 0.08764 0.25472 0.0
H149 H 0.53594 0.00656 0.25294 0.0
H150 H 0.57004 0.04829 0.20839 0.0
H151 H 0.51176 0.03254 0.20362 0.0
H152 H 0.52963 0.96034 0.23471 0.0
H153 H 0.48326 0.92074 0.22176 0.0
H154 H 0.62088 0.13477 0.23866 0.0
H155 H 0.62582 0.06386 0.2037 0.0
H156 H 0.46509 0.99276 0.19062 0.0
H157 H 0.66181 0.17504 0.22624 0.0
H158 H 0.66619 0.10447 0.1909 0.0
C159 C 0.54363 0.52449 0.62899 0.0
C160 C 0.55977 0.50711 0.6383 0.0
C161 C 0.54764 0.52893 0.61242 0.0
C162 C 0.56829 0.51653 0.6049 0.0
C163 C 0.58501 0.49986 0.61445 0.0
C164 C 0.58055 0.49494 0.63091 0.0
C165 C 0.57189 0.52022 0.58712 0.0
C166 C 0.57068 0.54813 0.5793 0.0
C167 C 0.57349 0.55139 0.56246 0.0
C168 C 0.57833 0.52649 0.55343 0.0
C169 C 0.58015 0.49866 0.56114 0.0
C170 C 0.5764 0.4956 0.57786 0.0
C171 C 0.58579 0.47225 0.55205 0.0
C172 C 0.5678 0.45923 0.53746 0.0
C173 C 0.60767 0.45816 0.55876 0.0
C174 C 0.61053 0.43075 0.55153 0.0
C175 C 0.59155 0.41669 0.53737 0.0
C176 C 0.57165 0.58111 0.55455 0.0
C177 C 0.54948 0.59523 0.55878 0.0
C178 C 0.59274 0.59637 0.54334 0.0
C179 C 0.59227 0.6256 0.53692 0.0
C180 C 0.57061 0.64014 0.54152 0.0
C181 C 0.549 0.62436 0.55238 0.0
C182 C 0.57056 0.43159 0.53022 0.0
H183 H 0.52734 0.53394 0.63444 0.0
H184 H 0.534 0.54147 0.60545 0.0
H185 H 0.6017 0.49064 0.60925 0.0
H186 H 0.59359 0.48183 0.63793 0.0
H187 H 0.56822 0.56773 0.58641 0.0
H188 H 0.57639 0.4735 0.58358 0.0
H189 H 0.58073 0.52875 0.54048 0.0
H190 H 0.55069 0.46959 0.53206 0.0
H191 H 0.62204 0.46787 0.56992 0.0
H192 H 0.62669 0.41979 0.55748 0.0
H193 H 0.53263 0.5839 0.56721 0.0
H194 H 0.61021 0.58619 0.53989 0.0
H195 H 0.55583 0.42152 0.51922 0.0
H196 H 0.53222 0.63496 0.55636 0.0
H197 H 0.60902 0.63693 0.52844 0.0
C198 C 0.10906 0.6959 0.94184 0.0
C199 C 0.08245 0.67333 0.94701 0.0
C200 C 0.10964 0.70516 0.92559 0.0
C201 C 0.08331 0.69259 0.91446 0.0
C202 C 0.05657 0.67044 0.91974 0.0
C203 C 0.05625 0.66066 0.93584 0.0
C204 C 0.08375 0.70125 0.89715 0.0
C205 C 0.10508 0.69449 0.88759 0.0
C206 C 0.10257 0.69782 0.87059 0.0
C207 C 0.07889 0.709 0.86332 0.0
C208 C 0.05742 0.71606 0.87278 0.0
C209 C 0.06039 0.71251 0.88975 0.0
C210 C 1.02986 0.72342 0.86482 0.0
C211 C 1.03203 0.74232 0.85094 0.0
C212 C 1.00053 0.70973 0.87059 0.0
C213 C 0.97405 0.71435 0.86263 0.0
C214 C 0.97601 0.73259 0.84857 0.0
C215 C 0.12221 0.68579 0.86041 0.0
C216 C 0.15382 0.691 0.86539 0.0
C217 C 0.10871 0.66641 0.84643 0.0
C218 C 0.12602 0.65131 0.83812 0.0
C219 C 0.15717 0.65517 0.84363 0.0
C220 C 0.17113 0.67586 0.85709 0.0
C221 C 1.00529 0.74672 0.84283 0.0
H222 H 0.12953 0.70587 0.9503 0.0
H223 H 0.13051 0.72218 0.92172 0.0
H224 H 1.03612 0.6602 0.9113 0.0
H225 H 1.03547 0.64331 0.93961 0.0
H226 H 0.1222 0.6844 0.89327 0.0
H227 H 0.04396 0.71762 0.89725 0.0
H228 H 0.07632 0.71072 0.85018 0.0
H229 H 0.0543 0.75342 0.84624 0.0
H230 H 0.9977 0.69427 0.88093 0.0
H231 H 0.95175 0.70238 0.86712 0.0
H232 H 0.16494 0.70603 0.87602 0.0
H233 H 0.08433 0.66161 0.84235 0.0
H234 H 1.00746 0.76088 0.83201 0.0
H235 H 0.19501 0.67916 0.86174 0.0
H236 H 0.11472 0.63583 0.82767 0.0
C237 C 1.01784 0.51226 0.35953 0.0
C238 C 0.04302 0.51481 0.35028 0.0
C239 C 1.02201 0.51308 0.37656 0.0
C240 C 0.05152 0.51682 0.38465 0.0
C241 C 0.07666 0.51919 0.37539 0.0
C242 C 0.07242 0.51805 0.35838 0.0
C243 C 0.05621 0.51859 0.40271 0.0
C244 C 1.03544 0.49664 0.41196 0.0
C245 C 0.03993 0.49797 0.42907 0.0
C246 C 0.06552 0.52177 0.43693 0.0
C247 C 0.08638 0.54422 0.42785 0.0
C248 C 0.08151 0.54232 0.41073 0.0
C249 C 0.11287 0.57016 0.43609 0.0
C250 C 0.10899 0.58649 0.45001 0.0
C251 C 0.14193 0.5797 0.42965 0.0
C252 C 0.1662 0.60556 0.43663 0.0
C253 C 0.16212 0.62244 0.4503 0.0
C254 C 1.01802 0.47409 0.4386 0.0
C255 C 0.98576 0.46586 0.43449 0.0
C256 C 1.02918 0.45849 0.45143 0.0
C257 C 1.00851 0.43448 0.45966 0.0
C258 C 0.97627 0.4258 0.45532 0.0
C259 C 0.96511 0.44204 0.44278 0.0
C260 C 0.13334 0.6123 0.45705 0.0
H261 H 0.99488 0.50955 0.3536 0.0
H262 H 1.00227 0.51138 0.38341 0.0
H263 H 0.0996 0.52182 0.38132 0.0
H264 H 0.09231 0.52035 0.35155 0.0
H265 H 1.01619 0.47791 0.40579 0.0
H266 H 0.09694 0.55993 0.40359 0.0
H267 H 0.0691 0.52285 0.45013 0.0
H268 H 0.08684 0.57994 0.45521 0.0
H269 H 0.14588 0.56735 0.41908 0.0
H270 H 0.18789 0.61285 0.43099 0.0
H271 H 0.97648 0.47771 0.42476 0.0
H272 H 0.05393 0.46421 0.4548 0.0
H273 H 0.12952 0.62446 0.46771 0.0
H274 H 0.94043 0.43571 0.43905 0.0
H275 H 1.01777 0.42258 0.46937 0.0
C276 C 0.53263 0.94933 0.7251 0.0
C277 C 0.55723 0.97507 0.72032 0.0
C278 C 0.52831 0.94429 0.74159 0.0
C279 C 0.54837 0.96497 0.75368 0.0
C280 C 0.57321 0.99044 0.74894 0.0
C281 C 0.57764 0.99538 0.73246 0.0
C282 C 0.54269 0.96065 0.77113 0.0
C283 C 0.53498 0.9302 0.77778 0.0
C284 C 0.52852 0.92582 0.79418 0.0
C285 C 0.52953 0.95248 0.80391 0.0
C286 C 0.5375 0.98306 0.79739 0.0
C287 C 0.54423 0.98698 0.7811 0.0
C288 C 0.538 0.01127 0.80718 0.0
C289 C 0.51017 0.01489 0.81163 0.0
C290 C 0.56584 0.03644 0.81032 0.0
C291 C 0.56573 0.0653 0.81726 0.0
C292 C 0.53761 0.06989 0.82082 0.0
C293 C 0.52149 0.89345 0.80106 0.0
C294 C 0.50234 0.86657 0.79184 0.0
C295 C 0.53527 0.88892 0.81643 0.0
C296 C 0.53091 0.85813 0.82218 0.0
C297 C 0.5126 0.83119 0.8127 0.0
C298 C 0.49797 0.83585 0.79757 0.0
C299 C 0.50992 0.044 0.8183 0.0
H300 H 0.51618 0.93349 0.71609 0.0
H301 H 0.50871 0.92471 0.74486 0.0
H302 H 0.5893 0.00652 0.75801 0.0
H303 H 0.59717 0.01508 0.72924 0.0
H304 H 0.53475 0.90996 0.77024 0.0
H305 H 0.54967 0.01057 0.77604 0.0
H306 H 0.52412 0.94953 0.81648 0.0
H307 H 0.48839 0.99581 0.8091 0.0
H308 H 0.58757 0.03404 0.80697 0.0
H309 H 0.58764 0.08429 0.81942 0.0
H310 H 0.49105 0.86926 0.78003 0.0
H311 H 0.55028 0.90911 0.8238 0.0
H312 H 0.48776 0.0466 0.82069 0.0
H313 H 0.48394 0.8157 0.78987 0.0
H314 H 0.5422 0.85541 0.83397 0.0
C315 C 0.52428 0.49372 0.05502 0.0
C316 C 0.51073 0.51098 0.04403 0.0
C317 C 0.5293 0.50193 0.07165 0.0
C318 C 0.52079 0.52752 0.07769 0.0
C319 C 0.50694 0.54458 0.06674 0.0
C320 C 0.50203 0.53645 0.05008 0.0
C321 C 0.52666 0.53656 0.09535 0.0
C322 C 0.55503 0.53783 0.10396 0.0
C323 C 0.56117 0.54631 0.12065 0.0
C324 C 0.53791 0.55353 0.12892 0.0
C325 C 0.50901 0.55221 0.12032 0.0
C326 C 0.50395 0.54389 0.10361 0.0
C327 C 0.48297 0.5588 0.12805 0.0
C328 C 0.46463 0.53652 0.13823 0.0
C329 C 0.47212 0.5837 0.12225 0.0
C330 C 0.44304 0.58542 0.12582 0.0
C331 C 0.4236 0.56203 0.13514 0.0
C332 C 0.59237 0.54729 0.12861 0.0
C333 C 0.60202 0.52007 0.12752 0.0
C334 C 0.61471 0.57631 0.13409 0.0
C335 C 0.64629 0.57835 0.13743 0.0
C336 C 0.65625 0.55143 0.13529 0.0
C337 C 0.63337 0.52206 0.13086 0.0
C338 C 0.43533 0.53813 0.14176 0.0
H339 H 0.53153 0.47419 0.05073 0.0
H340 H 0.53973 0.48813 0.07981 0.0
H341 H 0.50034 0.56456 0.071 0.0
H342 H 0.49129 0.55003 0.04195 0.0
H343 H 0.57291 0.53281 0.09751 0.0
H344 H 0.48174 0.54239 0.09706 0.0
H345 H 0.54217 0.55998 0.1418 0.0
H346 H 0.47202 0.51664 0.14256 0.0
H347 H 0.48553 0.60099 0.1142 0.0
H348 H 0.43539 0.60465 0.12079 0.0
H349 H 0.58543 0.49741 0.12324 0.0
H350 H 0.60813 0.59782 0.13475 0.0
H351 H 0.42116 0.51955 0.14891 0.0
H352 H 0.63981 0.50062 0.12945 0.0
H353 H 0.66311 0.60141 0.14078 0.0
C354 C 0.14216 0.53212 0.13605 0.0
C355 C 0.13521 0.55613 0.14477 0.0
C356 C 0.17304 0.53222 0.13553 0.0
C357 C 0.25364 0.56668 0.15636 0.0
H358 H 0.27815 0.54059 0.11606 0.0
C359 C 0.37641 0.55209 0.15145 0.0
C360 C 0.39069 0.56155 0.13695 0.0
C361 C 0.34545 0.55121 0.15281 0.0
C362 C 0.27191 0.5482 0.12741 0.0
H363 H 0.15594 0.5992 0.15982 0.0
H364 H 0.20956 0.59952 0.15881 0.0
H365 H 0.22474 0.54008 0.11759 0.0
H366 H 0.3826 0.57688 0.1124 0.0
H367 H 0.32947 0.57604 0.11489 0.0
H368 H 0.30109 0.57543 0.16606 0.0
C369 C 0.19109 0.58025 0.15253 0.0
C370 C 0.24097 0.5475 0.12836 0.0
C371 C 0.16018 0.58016 0.15304 0.0
C372 C 0.37288 0.56998 0.12389 0.0
C373 C 0.34202 0.56903 0.12523 0.0
C374 C 0.28462 0.5673 0.15543 0.0
C375 C 0.19809 0.55636 0.1437 0.0
C376 C 0.23126 0.55681 0.14283 0.0
C377 C 0.32766 0.55954 0.13968 0.0
C378 C 0.29434 0.55822 0.1409 0.0
H379 H 0.1237 0.51314 0.12955 0.0
H380 H 0.17722 0.5131 0.1288 0.0
H381 H 0.2472 0.57371 0.16779 0.0
H382 H 0.38923 0.54557 0.16183 0.0
H383 H 0.3353 0.54349 0.16411 0.0
C384 C 0.76768 0.20493 0.50541 0.0
C385 C 0.77412 0.17575 0.50532 0.0
C386 C 0.78994 0.23309 0.50136 0.0
C387 C 0.87411 0.26963 0.49812 0.0
H388 H 0.84787 0.32614 0.46831 0.0
C389 C 0.96117 0.37034 0.46593 0.0
C390 C 0.95435 0.39899 0.46329 0.0
C391 C 0.93964 0.34427 0.47238 0.0
C392 C 0.85555 0.31093 0.47685 0.0
H393 H 0.80906 0.15339 0.50083 0.0
H394 H 0.84794 0.20257 0.4939 0.0
H395 H 0.80938 0.27849 0.47709 0.0
H396 H 0.92014 0.42319 0.46596 0.0
H397 H 0.88266 0.3778 0.4774 0.0
H398 H 0.9203 0.302 0.49785 0.0
C399 C 0.82577 0.20368 0.49728 0.0
C400 C 0.83347 0.28357 0.48186 0.0
C401 C 0.80348 0.1755 0.50126 0.0
C402 C 0.92586 0.40127 0.46764 0.0
C403 C 0.90438 0.37524 0.47416 0.0
C404 C 0.89619 0.29707 0.49316 0.0
C405 C 0.81919 0.23275 0.4972 0.0
C406 C 0.84253 0.26248 0.49244 0.0
C407 C 0.91084 0.34628 0.47641 0.0
C408 C 0.88722 0.31792 0.48236 0.0
H409 H 0.74552 0.20609 0.50876 0.0
H410 H 0.78434 0.2552 0.50162 0.0
H411 H 0.88173 0.25406 0.50647 0.0
H412 H 0.98274 0.3677 0.46249 0.0
H413 H 0.94521 0.32222 0.47372 0.0
C414 C 0.53533 0.56801 0.84344 0.0
C415 C 0.50916 0.54163 0.83862 0.0
C416 C 0.53388 0.5991 0.84205 0.0
C417 C 0.4892 0.64551 0.81973 0.0
H418 H 0.53282 0.71164 0.85222 0.0
C419 C 0.4817 0.7734 0.81527 0.0
C420 C 0.50998 0.79833 0.81808 0.0
C421 C 0.47994 0.74206 0.8191 0.0
C422 C 0.52068 0.69348 0.84299 0.0
H423 H 0.46064 0.52734 0.82894 0.0
H424 H 0.45805 0.5815 0.82672 0.0
H425 H 0.5327 0.65687 0.85643 0.0
H426 H 0.55849 0.80977 0.82738 0.0
H427 H 0.55536 0.7552 0.83415 0.0
H428 H 0.4774 0.68212 0.80623 0.0
C429 C 0.47988 0.57818 0.8313 0.0
C430 C 0.52063 0.66208 0.84539 0.0
C431 C 0.48135 0.54708 0.83265 0.0
C432 C 0.53622 0.79127 0.82527 0.0
C433 C 0.53444 0.75994 0.82913 0.0
C434 C 0.48918 0.67686 0.81735 0.0
C435 C 0.50621 0.60459 0.83585 0.0
C436 C 0.50511 0.63775 0.83372 0.0
C437 C 0.50639 0.73488 0.82588 0.0
C438 C 0.50513 0.70128 0.82889 0.0
H439 H 0.55718 0.56473 0.84804 0.0
H440 H 0.55473 0.61886 0.84547 0.0
H441 H 0.47744 0.62752 0.81035 0.0
H442 H 0.46091 0.77807 0.81 0.0
H443 H 0.45784 0.72339 0.8167 0.0
C444 C 0.94068 0.58906 0.13873 0.0
C445 C 0.949 0.56192 0.14339 0.0
C446 C 0.90954 0.58889 0.13824 0.0
C447 C 0.82785 0.53268 0.13681 0.0
H448 H 0.80745 0.60879 0.14767 0.0
C449 C 0.70153 0.53697 0.12547 0.0
C450 C 0.69025 0.55398 0.1366 0.0
C451 C 0.73304 0.53886 0.1265 0.0
C452 C 0.81259 0.58717 0.14473 0.0
H453 H 0.93061 0.51341 0.15149 0.0
H454 H 0.87702 0.51332 0.15094 0.0
H455 H 0.86181 0.61025 0.14942 0.0
H456 H 0.7041 0.58672 0.15755 0.0
H457 H 0.75904 0.58974 0.1595 0.0
H458 H 0.7788 0.50931 0.13254 0.0
C459 C 0.89428 0.53463 0.14728 0.0
C460 C 0.84398 0.58813 0.14552 0.0
C461 C 0.92528 0.53476 0.14771 0.0
C462 C 0.71179 0.57336 0.1487 0.0
C463 C 0.74344 0.57515 0.14978 0.0
C464 C 0.79656 0.5317 0.13606 0.0
C465 C 0.88574 0.56159 0.14243 0.0
C466 C 0.85218 0.56087 0.14157 0.0
C467 C 0.75459 0.55775 0.13874 0.0
C468 C 0.7883 0.55894 0.13993 0.0
H469 H 0.95818 0.61042 0.13529 0.0
H470 H 0.9041 0.61005 0.13425 0.0
H471 H 0.83288 0.51122 0.13344 0.0
H472 H 0.68601 0.52243 0.1157 0.0
H473 H 0.74054 0.52571 0.11747 0.0
C474 C 0.39089 0.85473 0.48726 0.0
C475 C 0.38484 0.88192 0.49318 0.0
C476 C 0.36662 0.8264 0.4835 0.0
C477 C 0.28239 0.79549 0.4723 0.0
H478 H 0.29121 0.71446 0.48595 0.0
C479 C 0.18045 0.67838 0.46225 0.0
C480 C 0.1874 0.65123 0.45704 0.0
C481 C 0.20426 0.70611 0.46765 0.0
C482 C 0.28849 0.73683 0.48189 0.0
H483 H 0.3484 0.90032 0.49999 0.0
H484 H 0.30605 0.85103 0.49313 0.0
H485 H 0.33346 0.76376 0.49312 0.0
H486 H 0.22497 0.63172 0.45397 0.0
H487 H 0.26647 0.68034 0.46287 0.0
H488 H 0.23777 0.76871 0.46079 0.0
C489 C 0.3296 0.85179 0.49131 0.0
C490 C 0.31268 0.76507 0.48602 0.0
C491 C 0.35389 0.88006 0.49518 0.0
C492 C 0.21876 0.65232 0.45768 0.0
C493 C 0.24258 0.68011 0.46299 0.0
C494 C 0.25829 0.76726 0.46807 0.0
C495 C 0.33571 0.82465 0.48545 0.0
C496 C 0.3099 0.79468 0.48125 0.0
C497 C 0.23564 0.70747 0.46789 0.0
C498 C 0.26104 0.73755 0.47278 0.0
H499 H 0.41436 0.85543 0.48531 0.0
H500 H 0.37198 0.80599 0.47878 0.0
H501 H 0.27975 0.81792 0.46827 0.0
H502 H 0.1566 0.67856 0.46177 0.0
H503 H 0.19803 0.72656 0.47157 0.0
C504 C 0.49695 0.32802 0.84757 0.0
C505 C 0.52025 0.35334 0.84149 0.0
C506 C 0.4991 0.29706 0.84753 0.0
C507 C 0.55543 0.25215 0.84307 0.0
H508 H 0.48072 0.18075 0.83208 0.0
C509 C 0.5568 0.12974 0.8195 0.0
C510 C 0.53692 0.10211 0.82596 0.0
C511 C 0.55525 0.15992 0.8235 0.0
C512 C 0.50171 0.20042 0.83538 0.0
H513 H 0.56402 0.36593 0.83049 0.0
H514 H 0.5673 0.31207 0.82994 0.0
H515 H 0.47686 0.23441 0.83483 0.0
H516 H 0.50018 0.08504 0.84207 0.0
H517 H 0.49688 0.13789 0.84861 0.0
H518 H 0.58032 0.21814 0.84293 0.0
C519 C 0.54774 0.31609 0.83518 0.0
C520 C 0.49954 0.2312 0.837 0.0
C521 C 0.54575 0.34703 0.83539 0.0
C522 C 0.51556 0.10564 0.83665 0.0
C523 C 0.51371 0.13589 0.84047 0.0
C524 C 0.55761 0.22146 0.84126 0.0
C525 C 0.52447 0.29065 0.84126 0.0
C526 C 0.52644 0.25756 0.84064 0.0
C527 C 0.53349 0.1633 0.83387 0.0
C528 C 0.53083 0.19535 0.8372 0.0
H529 H 0.4771 0.33211 0.85247 0.0
H530 H 0.48096 0.27821 0.85252 0.0
H531 H 0.57657 0.27168 0.84627 0.0
H532 H 0.57302 0.12814 0.81091 0.0
H533 H 0.57044 0.18059 0.81803 0.0
C534 C 0.54997 0.90696 0.51611 0.0
C535 C 0.57867 0.93112 0.51572 0.0
C536 C 0.54865 0.87496 0.51712 0.0
C537 C 0.59455 0.81944 0.51207 0.0
H538 H 0.53683 0.76675 0.54048 0.0
C539 C 0.59968 0.69657 0.53473 0.0
C540 C 0.57123 0.67224 0.53568 0.0
C541 C 0.60021 0.7275 0.53066 0.0
C542 C 0.55279 0.78101 0.53233 0.0
H543 H 0.6285 0.94045 0.51586 0.0
H544 H 0.62627 0.88472 0.51799 0.0
H545 H 0.53857 0.82189 0.53663 0.0
H546 H 0.52103 0.66108 0.5322 0.0
H547 H 0.522 0.71505 0.52526 0.0
H548 H 0.6092 0.77849 0.50813 0.0
C549 C 0.60468 0.89042 0.51722 0.0
C550 C 0.55377 0.81266 0.53009 0.0
C551 C 0.60598 0.92245 0.51608 0.0
C552 C 0.54335 0.67937 0.53191 0.0
C553 C 0.54389 0.71029 0.52792 0.0
C554 C 0.59369 0.78776 0.5144 0.0
C555 C 0.57601 0.86629 0.51791 0.0
C556 C 0.57467 0.83234 0.51995 0.0
C557 C 0.57231 0.73483 0.52751 0.0
C558 C 0.57281 0.76821 0.52457 0.0
H559 H 0.52842 0.9127 0.51568 0.0
H560 H 0.5261 0.85701 0.51729 0.0
H561 H 0.61063 0.83373 0.504 0.0
H562 H 0.62159 0.69207 0.53775 0.0
H563 H 0.62248 0.74596 0.5306 0.0
C564 C 0.73971 0.57781 0.82426 0.0
C565 C 0.71156 0.58393 0.82585 0.0
C566 C 0.76537 0.60164 0.81943 0.0
C567 C 0.79836 0.68865 0.82123 0.0
H568 H 0.86511 0.66671 0.80302 0.0
C569 C 0.9225 0.73714 0.84791 0.0
C570 C 0.9469 0.734 0.83941 0.0
C571 C 0.89245 0.72972 0.84021 0.0
C572 C 0.84673 0.67393 0.80773 0.0
H573 H 0.68765 0.61934 0.82263 0.0
H574 H 0.73254 0.66104 0.81387 0.0
H575 H 0.81265 0.63008 0.79926 0.0
H576 H 0.95987 0.72474 0.81563 0.0
H577 H 0.9075 0.71289 0.80196 0.0
H578 H 0.8325 0.73245 0.8298 0.0
C579 C 0.73486 0.63788 0.81664 0.0
C580 C 0.81658 0.65253 0.80579 0.0
C581 C 0.70909 0.61393 0.82156 0.0
C582 C 0.94145 0.72713 0.82254 0.0
C583 C 0.91133 0.71997 0.81476 0.0
C584 C 0.82845 0.71037 0.82291 0.0
C585 C 0.76355 0.63223 0.8159 0.0
C586 C 0.79252 0.65863 0.81351 0.0
C587 C 0.88613 0.71928 0.82374 0.0
C588 C 0.85341 0.70225 0.81721 0.0
H589 H 0.74218 0.55474 0.82713 0.0
H590 H 0.78709 0.59639 0.81927 0.0
H591 H 0.78039 0.69441 0.82721 0.0
H592 H 0.92618 0.74307 0.86086 0.0
H593 H 0.8739 0.7295 0.84766 0.0
C594 C 0.20673 0.7833 0.16007 0.0
C595 C 0.20174 0.75018 0.15957 0.0
C596 C 0.2368 0.80479 0.163 0.0
C597 C 0.31467 0.80857 0.18188 0.0
H598 H 0.33976 0.89192 0.16271 0.0
C599 C 0.42106 0.90974 0.20926 0.0
C600 C 0.44033 0.93008 0.19868 0.0
C601 C 0.39292 0.88748 0.20325 0.0
C602 C 0.33328 0.86861 0.16804 0.0
H603 H 0.22481 0.71387 0.16136 0.0
H604 H 0.2772 0.75131 0.16595 0.0
H605 H 0.28937 0.85339 0.15361 0.0
H606 H 0.44504 0.94298 0.17344 0.0
H607 H 0.39581 0.9038 0.16286 0.0
H608 H 0.35862 0.82353 0.19615 0.0
C609 C 0.25779 0.76068 0.16438 0.0
C610 C 0.30422 0.84664 0.16296 0.0
C611 C 0.22771 0.73918 0.16152 0.0
C612 C 0.43062 0.92779 0.18191 0.0
C613 C 0.4024 0.90537 0.17587 0.0
C614 C 0.34369 0.83046 0.18691 0.0
C615 C 0.26268 0.79374 0.16545 0.0
C616 C 0.29439 0.81646 0.16996 0.0
C617 C 0.38327 0.88486 0.18647 0.0
C618 C 0.3532 0.86093 0.18024 0.0
H619 H 0.18733 0.79266 0.15838 0.0
H620 H 0.2396 0.83005 0.16387 0.0
H621 H 0.30782 0.78574 0.1877 0.0
H622 H 0.42748 0.91136 0.22228 0.0
H623 H 0.37848 0.87264 0.21183 0.0
C624 C 0.55993 0.13493 0.51285 0.0
C625 C 0.58687 0.126 0.51637 0.0
C626 C 0.5615 0.16709 0.51329 0.0
C627 C 0.61121 0.24578 0.53057 0.0
H628 H 0.55918 0.27819 0.50004 0.0
C629 C 0.6206 0.37871 0.53104 0.0
C630 C 0.59227 0.38538 0.53099 0.0
C631 C 0.62096 0.34795 0.52727 0.0
C632 C 0.57375 0.26944 0.50868 0.0
H633 H 0.63679 0.14404 0.52266 0.0
H634 H 0.63961 0.20003 0.52315 0.0
H635 H 0.55803 0.22267 0.49743 0.0
H636 H 0.54216 0.36512 0.52623 0.0
H637 H 0.54284 0.31152 0.51948 0.0
H638 H 0.62684 0.29244 0.54186 0.0
C639 C 0.61711 0.18217 0.52041 0.0
C640 C 0.57304 0.2376 0.50723 0.0
C641 C 0.61551 0.15002 0.52007 0.0
C642 C 0.56441 0.36093 0.52622 0.0
C643 C 0.56479 0.33016 0.52239 0.0
C644 C 0.61204 0.27759 0.53196 0.0
C645 C 0.59009 0.19113 0.51716 0.0
C646 C 0.59161 0.2253 0.51824 0.0
C647 C 0.59302 0.32315 0.52328 0.0
C648 C 0.59319 0.28975 0.52111 0.0
H649 H 0.53746 0.11706 0.50999 0.0
H650 H 0.54015 0.17303 0.51095 0.0
H651 H 0.62539 0.23705 0.53946 0.0
H652 H 0.64251 0.39714 0.53436 0.0
H653 H 0.64313 0.34345 0.52775 0.0
C654 C 0.33955 0.51438 0.82073 0.0
C655 C 0.3287 0.48095 0.82162 0.0
C656 C 0.31874 0.53198 0.81978 0.0
C657 C 0.24028 0.52655 0.83024 0.0
H658 H 0.25454 0.60464 0.80625 0.0
C659 C 0.15914 0.60283 0.83281 0.0
C660 C 0.17417 0.63548 0.83639 0.0
C661 C 0.17583 0.58322 0.82793 0.0
C662 C 0.25032 0.5829 0.81302 0.0
H663 H 0.28733 0.43974 0.82169 0.0
H664 H 0.25095 0.4704 0.81962 0.0
H665 H 0.2876 0.57102 0.80323 0.0
H666 H 0.21815 0.67348 0.83672 0.0
H667 H 0.24747 0.63908 0.82843 0.0
H668 H 0.20342 0.53862 0.84025 0.0
C669 C 0.27563 0.48305 0.81995 0.0
C670 C 0.26925 0.56368 0.81132 0.0
C671 C 0.29646 0.46544 0.82096 0.0
C672 C 0.206 0.64835 0.83423 0.0
C673 C 0.22271 0.62871 0.82932 0.0
C674 C 0.22132 0.54566 0.83188 0.0
C675 C 0.28656 0.51657 0.81961 0.0
C676 C 0.26476 0.53553 0.82012 0.0
C677 C 0.20794 0.59579 0.82652 0.0
C678 C 0.2264 0.57428 0.82348 0.0
H679 H 0.3642 0.52704 0.82089 0.0
H680 H 0.32801 0.55776 0.8197 0.0
H681 H 0.23649 0.50537 0.83742 0.0
H682 H 0.13472 0.59206 0.83449 0.0
H683 H 0.16375 0.55801 0.82567 0.0
C684 C 0.90159 0.32971 0.15721 0.0
C685 C 0.90105 0.36127 0.15567 0.0
C686 C 0.87604 0.30593 0.16239 0.0
C687 C 0.80606 0.29449 0.18448 0.0
H688 H 0.77926 0.21006 0.16383 0.0
C689 C 0.69227 0.19884 0.19851 0.0
C690 C 0.6931 0.16746 0.20043 0.0
C691 C 0.71716 0.22222 0.19253 0.0
C692 C 0.78663 0.23341 0.16984 0.0
H693 H 0.87283 0.39236 0.1581 0.0
H694 H 0.82836 0.35096 0.16716 0.0
H695 H 0.82374 0.25132 0.15458 0.0
H696 H 0.72083 0.13607 0.1975 0.0
H697 H 0.76425 0.17684 0.18708 0.0
H698 H 0.76908 0.27662 0.19978 0.0
C699 C 0.84875 0.34468 0.16461 0.0
C700 C 0.81214 0.25707 0.16454 0.0
C701 C 0.87428 0.36844 0.15942 0.0
C702 C 0.71923 0.1599 0.19596 0.0
C703 C 0.74415 0.18329 0.18999 0.0
C704 C 0.78058 0.27085 0.18978 0.0
C705 C 0.84931 0.31313 0.16617 0.0
C706 C 0.82217 0.28791 0.17179 0.0
C707 C 0.74353 0.21481 0.18833 0.0
C708 C 0.77052 0.24001 0.18253 0.0
H709 H 0.92199 0.32344 0.15466 0.0
H710 H 0.87744 0.28198 0.1637 0.0
H711 H 0.81345 0.31782 0.19052 0.0
H712 H 0.67229 0.20535 0.20158 0.0
H713 H 0.71565 0.2461 0.19112 0.0
C714 C 0.08411 0.59993 0.09124 0.0
C715 C 0.05495 0.58111 0.09559 0.0
C716 C 0.0882 0.60853 0.07508 0.0
C717 C 0.04993 0.59027 0.03254 0.0
H718 H 0.10849 0.6729 0.02484 0.0
C719 C 0.07565 0.63028 0.96727 0.0
C720 C 0.08183 0.66273 0.964 0.0
C721 C 0.07384 0.61996 0.98328 0.0
C722 C 0.0917 0.64992 0.0267 0.0
H723 H 1.00717 0.55652 0.08655 0.0
H724 H 1.01374 0.57279 0.0585 0.0
H725 H 0.10126 0.65589 0.05253 0.0
H726 H 0.09077 0.70992 0.97466 0.0
H727 H 0.08613 0.69198 0.00259 0.0
H728 H 1.03884 0.58523 0.00676 0.0
C729 C 1.03386 0.58006 0.06737 0.0
C730 C 0.08797 0.63982 0.04267 0.0
C731 C 1.02997 0.57085 0.08348 0.0
C732 C 0.08627 0.68478 0.97696 0.0
C733 C 0.08379 0.67442 0.99296 0.0
C734 C 0.05318 0.60066 0.01658 0.0
C735 C 0.06303 0.59917 0.06294 0.0
C736 C 0.06709 0.6098 0.04584 0.0
C737 C 0.07746 0.64182 0.99637 0.0
C738 C 0.07417 0.63062 0.01341 0.0
H739 H 0.10389 0.60785 0.10032 0.0
H740 H 0.11121 0.62248 0.07217 0.0
H741 H 1.03397 0.56681 0.03438 0.0
H742 H 0.07237 0.61291 0.95741 0.0
H743 H 0.06971 0.59482 0.98536 0.0
C744 C 0.60743 0.05421 0.45832 0.0
C745 C 0.58351 0.03128 0.46545 0.0
C746 C 0.60743 0.05571 0.44137 0.0
C747 C 0.55558 0.03182 0.40322 0.0
H748 H 0.63307 0.04783 0.38329 0.0
C749 C 0.55969 0.01979 0.33372 0.0
C750 C 0.58295 0.04327 0.32645 0.0
C751 C 0.55981 0.0186 0.35067 0.0
C752 C 0.6113 0.04369 0.38868 0.0
H753 H 0.54091 0.99177 0.46033 0.0
H754 H 0.54115 0.99414 0.43078 0.0
H755 H 0.6332 0.04488 0.41286 0.0
H756 H 0.62471 0.08379 0.33132 0.0
H757 H 0.62472 0.08192 0.36095 0.0
H758 H 0.53368 0.03048 0.37902 0.0
C759 C 0.55968 0.01129 0.43829 0.0
C760 C 0.61135 0.04201 0.40563 0.0
C761 C 0.55964 0.00981 0.45525 0.0
C762 C 0.60633 0.06556 0.33654 0.0
C763 C 0.60651 0.06429 0.35351 0.0
C764 C 0.55552 0.03344 0.38627 0.0
C765 C 0.58355 0.0343 0.43115 0.0
C766 C 0.58349 0.03604 0.41311 0.0
C767 C 0.58323 0.0408 0.36077 0.0
C768 C 0.58337 0.03937 0.3788 0.0
H769 H 0.62612 0.07121 0.46581 0.0
H770 H 0.62594 0.07401 0.43628 0.0
H771 H 0.53379 0.02773 0.40859 0.0
H772 H 0.54115 0.00249 0.32629 0.0
H773 H 0.54171 2e-05 0.35588 0.0
C774 C 0.51433 0.43257 0.77977 0.0
C775 C 0.52722 0.4579 0.7912 0.0
C776 C 0.51769 0.43739 0.76316 0.0
C777 C 0.56396 0.4954 0.73474 0.0
H778 H 0.49775 0.44889 0.7025 0.0
C779 C 0.55802 0.52686 0.66659 0.0
C780 C 0.55478 0.50131 0.65567 0.0
C781 C 0.5543 0.52137 0.68311 0.0
C782 C 0.51642 0.46193 0.71141 0.0
H783 H 0.55311 0.50829 0.79421 0.0
H784 H 0.55779 0.51706 0.76535 0.0
H785 H 0.49182 0.43979 0.73143 0.0
H786 H 0.54439 0.45006 0.65323 0.0
H787 H 0.53709 0.44037 0.68212 0.0
H788 H 0.58796 0.51827 0.71459 0.0
C789 C 0.54608 0.49315 0.76912 0.0
C790 C 0.51319 0.4566 0.72798 0.0
C791 C 0.54322 0.48818 0.78571 0.0
C792 C 0.54716 0.47014 0.66146 0.0
C793 C 0.54283 0.46459 0.67791 0.0
C794 C 0.5669 0.50113 0.7182 0.0
C795 C 0.53353 0.4678 0.75759 0.0
C796 C 0.53695 0.47323 0.73989 0.0
C797 C 0.54665 0.49019 0.68889 0.0
C798 C 0.54321 0.4844 0.7064 0.0
H799 H 0.50202 0.40892 0.78368 0.0
H800 H 0.50816 0.41714 0.75473 0.0
H801 H 0.58309 0.50816 0.74345 0.0
H802 H 0.564 0.5511 0.66239 0.0
H803 H 0.55721 0.54145 0.69136 0.0
C804 C 0.55484 0.02546 0.57367 0.0
C805 C 0.5808 0.02311 0.56625 0.0
C806 C 0.55309 0.02125 0.59042 0.0
C807 C 0.58562 0.98563 0.62548 0.0
H808 H 0.54929 0.03649 0.65086 0.0
C809 C 0.55587 0.95556 0.69147 0.0
C810 C 0.56117 0.98107 0.70275 0.0
C811 C 0.55888 0.9612 0.67491 0.0
C812 C 0.55978 0.02228 0.644 0.0
H813 H 0.62561 0.01525 0.5707 0.0
H814 H 0.62282 0.00856 0.5999 0.0
H815 H 0.55419 0.0464 0.62199 0.0
H816 H 0.5737 0.03261 0.70537 0.0
H817 H 0.57988 0.04248 0.67661 0.0
H818 H 0.59193 0.96205 0.64755 0.0
C819 C 0.60349 0.01296 0.59275 0.0
C820 C 0.56222 0.02769 0.62738 0.0
C821 C 0.60517 0.01699 0.576 0.0
C822 C 0.5698 0.01239 0.69707 0.0
C823 C 0.57293 0.01804 0.68052 0.0
C824 C 0.58329 0.98031 0.6421 0.0
C825 C 0.57732 0.01476 0.60015 0.0
C826 C 0.5751 0.00938 0.6179 0.0
C827 C 0.56739 0.99252 0.66922 0.0
C828 C 0.57025 -0.00151 0.65156 0.0
H829 H 0.53559 0.03 0.56651 0.0
H830 H 0.5324 0.02239 0.59567 0.0
H831 H 0.59531 0.9708 0.61852 0.0
H832 H 0.54953 0.93116 0.69543 0.0
H833 H 0.55409 0.94094 0.66653 0.0
C834 C 0.52696 0.44807 0.90159 0.0
C835 C 0.50343 0.45069 0.88993 0.0
C836 C 0.52482 0.45242 0.91819 0.0
C837 C 0.48728 0.4904 0.94644 0.0
H838 H 0.51669 0.43951 0.97839 0.0
C839 C 0.51349 0.52696 0.01481 0.0
C840 C 0.50629 0.50279 0.02628 0.0
C841 C 0.51048 0.51928 -0.00185 0.0
C842 C 0.50804 0.45372 0.96965 0.0
H843 H 0.45883 0.45932 0.88665 0.0
H844 H 0.45495 0.46655 0.91568 0.0
H845 H 0.5155 0.42732 0.94945 0.0
H846 H 0.48932 0.4516 0.02919 0.0
H847 H 0.4839 0.43816 0.0001 0.0
H848 H 0.47952 0.5166 0.96665 0.0
C849 C 0.47528 0.46156 0.91194 0.0
C850 C 0.50771 0.44697 0.95304 0.0
C851 C 0.47742 0.45722 0.8953 0.0
C852 C 0.49552 0.47076 0.02068 0.0
C853 C 0.49243 0.46307 0.00401 0.0
C854 C 0.48758 0.49714 0.96306 0.0
C855 C 0.49908 0.45945 0.92357 0.0
C856 C 0.49765 0.46543 0.94123 0.0
C857 C 0.50012 0.48723 0.99255 0.0
C858 C 0.49826 0.47909 0.97487 0.0
H859 H 0.54737 0.44317 0.8979 0.0
H860 H 0.54379 0.45107 0.92679 0.0
H861 H 0.47964 0.50529 0.93768 0.0
H862 H 0.52225 0.55186 0.01874 0.0
H863 H 0.51708 0.53848 0.9897 0.0
C864 C 1.02126 0.55945 0.20364 0.0
C865 C 1.03269 0.54022 0.19394 0.0
C866 C 1.01999 0.55471 0.22034 0.0
C867 C 1.02382 0.49693 0.25266 0.0
H868 H 0.04583 0.57265 0.28087 0.0
C869 C 0.052 0.49699 0.32271 0.0
C870 C 0.03893 0.51504 0.33223 0.0
C871 C 0.04925 0.49833 0.30571 0.0
C872 C 0.03931 0.55127 0.27314 0.0
H873 H 0.05128 0.50054 0.19411 0.0
H874 H 0.0499 0.49278 0.22338 0.0
H875 H 0.04502 0.57816 0.25147 0.0
H876 H 1.0126 0.54846 0.33144 0.0
H877 H 1.00788 0.55089 0.30173 0.0
H878 H 1.01899 0.4702 0.27453 0.0
C879 C 0.04132 0.51116 0.21803 0.0
C880 C 1.03874 0.55438 0.25627 0.0
C881 C 0.04228 0.5157 0.20125 0.0
C882 C 1.02271 0.53412 0.32441 0.0
C883 C 1.02024 0.53571 0.30743 0.0
C884 C 1.02469 0.49385 0.26958 0.0
C885 C 1.03047 0.53085 0.22781 0.0
C886 C 1.03089 0.52726 0.24579 0.0
C887 C 1.03367 0.51802 0.29792 0.0
C888 C 1.03237 0.521 0.27997 0.0
H889 H 1.01332 0.57831 0.19834 0.0
H890 H 1.0108 0.56984 0.2274 0.0
H891 H 1.01726 0.47551 0.24497 0.0
H892 H 0.06442 0.48189 0.32842 0.0
H893 H 0.05999 0.48459 0.29868 0.0
loop_
_geom_bond_atom_site_label_1
_geom_bond_atom_site_label_2
_geom_bond_distance
_geom_bond_site_symmetry_2
_ccdc_geom_bond_type
Dy0 O3 2.307 1_455 S
Dy0 O5 2.395 . S
Dy0 O6 2.379 . S
Dy0 O8 2.339 . S
Dy0 O10 2.298 . S
Dy0 O14 2.275 . S
Dy0 C22 2.738 . S
Dy1 O4 2.298 . S
Dy1 O7 2.275 1_655 S
Dy1 O9 2.307 1_655 S
Dy1 O11 2.395 . S
Dy1 O12 2.379 . S
Dy1 O15 2.339 . S
Dy1 C31 2.738 . S
C2 O14 1.254 . S
C2 O15 1.257 1_455 S
O3 Dy0 2.307 1_655 S
O3 C13 1.266 . S
O4 Dy1 2.298 . S
O4 C13 1.236 . S
O5 Dy0 2.395 . S
O5 C22 1.255 . S
O6 Dy0 2.379 . S
O6 C22 1.249 . S
O7 Dy1 2.275 1_455 S
O7 C23 1.254 . S
O8 Dy0 2.339 . S
O8 C23 1.257 . S
O9 Dy1 2.307 1_455 S
O9 C24 1.266 . S
O10 Dy0 2.298 . S
O10 C24 1.236 . S
O11 Dy1 2.395 . S
O11 C31 1.255 . S
O12 Dy1 2.379 . S
O12 C31 1.249 . S
C13 O3 1.266 . S
C13 O4 1.236 . S
O14 Dy0 2.275 . S
O14 C2 1.254 . S
O15 Dy1 2.339 . S
O15 C2 1.257 1_655 S
C16 C19 1.344 . S
C16 C20 1.328 . S
C16 C22 1.516 . S
C17 C18 1.304 . S
C17 C21 1.323 . S
C18 C17 1.304 . S
C18 C19 1.371 . S
C18 H32 0.930 . S
C19 C16 1.344 . S
C19 C18 1.371 . S
C19 H33 0.931 . S
C20 C16 1.328 . S
C20 C21 1.433 . S
C20 H34 0.931 . S
C21 C17 1.323 . S
C21 C20 1.433 . S
C21 H35 0.933 . S
C22 Dy0 2.738 . S
C22 O5 1.255 . S
C22 O6 1.249 . S
C22 C16 1.516 . S
C23 O7 1.254 . S
C23 O8 1.257 . S
C24 O9 1.266 . S
C24 O10 1.236 . S
C25 C28 1.344 . S
C25 C29 1.328 . S
C25 C31 1.516 . S
C26 C27 1.304 . S
C26 C30 1.323 . S
C27 C26 1.304 . S
C27 C28 1.371 . S
C27 H36 0.930 . S
C28 C25 1.344 . S
C28 C27 1.371 . S
C28 H37 0.931 . S
C29 C25 1.328 . S
C29 C30 1.433 . S
C29 H38 0.931 . S
C30 C26 1.323 . S
C30 C29 1.433 . S
C30 H39 0.933 . S
C31 Dy1 2.738 . S
C31 O11 1.255 . S
C31 O12 1.249 . S
C31 C25 1.516 . S
H32 C18 0.930 . S
H33 C19 0.931 . S
H34 C20 0.931 . S
H35 C21 0.933 . S
H36 C27 0.930 . S
H37 C28 0.931 . S
H38 C29 0.931 . S
H39 C30 0.933 . S
Dy40 O43 2.307 . S
Dy40 O45 2.395 1_545 S
Dy40 O46 2.379 1_545 S
Dy40 O48 2.339 . S
Dy40 O50 2.298 1_545 S
Dy40 O54 2.275 . S
Dy40 C62 2.738 1_545 S
Dy41 O44 2.298 . S
Dy41 O47 2.275 . S
Dy41 O49 2.307 1_545 S
Dy41 O51 2.395 . S
Dy41 O52 2.379 . S
Dy41 O55 2.339 . S
Dy41 C71 2.738 . S
C42 O54 1.254 . S
C42 O55 1.257 . S
O43 Dy40 2.307 . S
O43 C53 1.266 . S
O44 Dy41 2.298 . S
O44 C53 1.236 . S
O45 Dy40 2.395 1_565 S
O45 C62 1.255 . S
O46 Dy40 2.379 1_565 S
O46 C62 1.249 . S
O47 Dy41 2.275 . S
O47 C63 1.254 . S
O48 Dy40 2.339 . S
O48 C63 1.257 . S
O49 Dy41 2.307 1_565 S
O49 C64 1.266 . S
O50 Dy40 2.298 1_565 S
O50 C64 1.236 . S
O51 Dy41 2.395 . S
O51 C71 1.255 . S
O52 Dy41 2.379 . S
O52 C71 1.249 . S
C53 O43 1.266 . S
C53 O44 1.236 . S
O54 Dy40 2.275 . S
O54 C42 1.254 . S
O55 Dy41 2.339 . S
O55 C42 1.257 . S
C56 C59 1.344 . S
C56 C60 1.328 . S
C56 C62 1.516 . S
C57 C58 1.304 . S
C57 C61 1.323 . S
C58 C57 1.304 . S
C58 C59 1.371 . S
C58 H72 0.930 . S
C59 C56 1.344 . S
C59 C58 1.371 . S
C59 H73 0.931 . S
C60 C56 1.328 . S
C60 C61 1.433 . S
C60 H74 0.931 . S
C61 C57 1.323 . S
C61 C60 1.433 . S
C61 H75 0.933 . S
C62 Dy40 2.738 1_565 S
C62 O45 1.255 . S
C62 O46 1.249 . S
C62 C56 1.516 . S
C63 O47 1.254 . S
C63 O48 1.257 . S
C64 O49 1.266 . S
C64 O50 1.236 . S
C65 C68 1.344 . S
C65 C69 1.328 . S
C65 C71 1.516 . S
C66 C67 1.304 . S
C66 C70 1.323 . S
C67 C66 1.304 . S
C67 C68 1.371 . S
C67 H76 0.930 . S
C68 C65 1.344 . S
C68 C67 1.371 . S
C68 H77 0.931 . S
C69 C65 1.328 . S
C69 C70 1.433 . S
C69 H78 0.931 . S
C70 C66 1.323 . S
C70 C69 1.433 . S
C70 H79 0.933 . S
C71 Dy41 2.738 . S
C71 O51 1.255 . S
C71 O52 1.249 . S
C71 C65 1.516 . S
H72 C58 0.930 . S
H73 C59 0.931 . S
H74 C60 0.931 . S
H75 C61 0.933 . S
H76 C67 0.930 . S
H77 C68 0.931 . S
H78 C69 0.931 . S
H79 C70 0.933 . S
Dy80 O83 2.307 . S
Dy80 O85 2.395 . S
Dy80 O86 2.379 . S
Dy80 O88 2.339 . S
Dy80 O90 2.298 . S
Dy80 O94 2.275 . S
Dy80 C102 2.738 . S
Dy81 O84 2.298 . S
Dy81 O87 2.275 . S
Dy81 O89 2.307 . S
Dy81 O91 2.395 . S
Dy81 O92 2.379 . S
Dy81 O95 2.339 . S
Dy81 C111 2.738 . S
C82 O94 1.254 . S
C82 O95 1.257 . S
O83 Dy80 2.307 . S
O83 C93 1.266 . S
O84 Dy81 2.298 . S
O84 C93 1.236 . S
O85 Dy80 2.395 . S
O85 C102 1.255 . S
O86 Dy80 2.379 . S
O86 C102 1.249 . S
O87 Dy81 2.275 . S
O87 C103 1.254 . S
O88 Dy80 2.339 . S
O88 C103 1.257 . S
O89 Dy81 2.307 . S
O89 C104 1.266 . S
O90 Dy80 2.298 . S
O90 C104 1.236 . S
O91 Dy81 2.395 . S
O91 C111 1.255 . S
O92 Dy81 2.379 . S
O92 C111 1.249 . S
C93 O83 1.266 . S
C93 O84 1.236 . S
O94 Dy80 2.275 . S
O94 C82 1.254 . S
O95 Dy81 2.339 . S
O95 C82 1.257 . S
C96 C99 1.344 . S
C96 C100 1.328 . S
C96 C102 1.516 . S
C97 C98 1.304 . S
C97 C101 1.323 . S
C98 C97 1.304 . S
C98 C99 1.371 . S
C98 H112 0.930 . S
C99 C96 1.344 . S
C99 C98 1.371 . S
C99 H113 0.931 . S
C100 C96 1.328 . S
C100 C101 1.433 . S
C100 H114 0.931 . S
C101 C97 1.323 . S
C101 C100 1.433 . S
C101 H115 0.933 . S
C102 Dy80 2.738 . S
C102 O85 1.255 . S
C102 O86 1.249 . S
C102 C96 1.516 . S
C103 O87 1.254 . S
C103 O88 1.257 . S
C104 O89 1.266 . S
C104 O90 1.236 . S
C105 C108 1.344 . S
C105 C109 1.328 . S
C105 C111 1.516 . S
C106 C107 1.304 . S
C106 C110 1.323 . S
C107 C106 1.304 . S
C107 C108 1.371 . S
C107 H116 0.930 . S
C108 C105 1.344 . S
C108 C107 1.371 . S
C108 H117 0.931 . S
C109 C105 1.328 . S
C109 C110 1.433 . S
C109 H118 0.931 . S
C110 C106 1.323 . S
C110 C109 1.433 . S
C110 H119 0.933 . S
C111 Dy81 2.738 . S
C111 O91 1.255 . S
C111 O92 1.249 . S
C111 C105 1.516 . S
H112 C98 0.930 . S
H113 C99 0.931 . S
H114 C100 0.931 . S
H115 C101 0.933 . S
H116 C107 0.930 . S
H117 C108 0.931 . S
H118 C109 0.931 . S
H119 C110 0.933 . S
C120 C121 1.386 . S
C120 C122 1.397 . S
C120 H144 0.931 . S
C121 C120 1.386 . S
C121 C125 1.397 . S
C122 C120 1.397 . S
C122 C123 1.384 . S
C122 H145 0.930 . S
C123 C122 1.384 . S
C123 C124 1.377 . S
C123 C126 1.481 . S
C124 C123 1.377 . S
C124 C125 1.389 . S
C124 H146 0.929 . S
C125 C121 1.397 . S
C125 C124 1.389 . S
C125 H147 0.931 . S
C126 C123 1.481 . S
C126 C127 1.387 . S
C126 C131 1.390 . S
C127 C126 1.387 . S
C127 C128 1.401 . S
C127 H148 0.930 . S
C128 C127 1.401 . S
C128 C129 1.376 . S
C128 C137 1.511 . S
C129 C128 1.376 . S
C129 C130 1.392 . S
C129 H150 0.931 . S
C130 C129 1.392 . S
C130 C131 1.361 . S
C130 C132 1.500 . S
C131 C126 1.390 . S
C131 C130 1.361 . S
C131 H149 0.931 . S
C132 C130 1.500 . S
C132 C133 1.371 . S
C132 C134 1.365 1_545 S
C133 C132 1.371 . S
C133 C143 1.386 1_545 S
C133 H151 0.931 . S
C134 C132 1.365 1_565 S
C134 C135 1.409 . S
C134 H152 0.929 . S
C135 C134 1.409 . S
C135 C136 1.380 . S
C135 H153 0.930 . S
C136 C135 1.380 . S
C136 C143 1.357 . S
C137 C128 1.511 . S
C137 C138 1.341 . S
C137 C139 1.371 . S
C138 C137 1.341 . S
C138 C142 1.394 . S
C138 H154 0.930 . S
C139 C137 1.371 . S
C139 C140 1.392 . S
C139 H155 0.931 . S
C140 C139 1.392 . S
C140 C141 1.331 . S
C140 H158 0.932 . S
C141 C140 1.331 . S
C141 C142 1.336 . S
C142 C138 1.394 . S
C142 C141 1.336 . S
C142 H157 0.929 . S
C143 C133 1.386 1_565 S
C143 C136 1.357 . S
C143 H156 0.916 1_565 S
H144 C120 0.931 . S
H145 C122 0.930 . S
H146 C124 0.929 . S
H147 C125 0.931 . S
H148 C127 0.930 . S
H149 C131 0.931 . S
H150 C129 0.931 . S
H151 C133 0.931 . S
H152 C134 0.929 . S
H153 C135 0.930 . S
H154 C138 0.930 . S
H155 C139 0.931 . S
H156 C143 0.916 1_545 S
H157 C142 0.929 . S
H158 C140 0.932 . S
C159 C160 1.386 . S
C159 C161 1.397 . S
C159 H183 0.931 . S
C160 C159 1.386 . S
C160 C164 1.397 . S
C161 C159 1.397 . S
C161 C162 1.384 . S
C161 H184 0.930 . S
C162 C161 1.384 . S
C162 C163 1.377 . S
C162 C165 1.481 . S
C163 C162 1.377 . S
C163 C164 1.389 . S
C163 H185 0.929 . S
C164 C160 1.397 . S
C164 C163 1.389 . S
C164 H186 0.931 . S
C165 C162 1.481 . S
C165 C166 1.387 . S
C165 C170 1.390 . S
C166 C165 1.387 . S
C166 C167 1.401 . S
C166 H187 0.930 . S
C167 C166 1.401 . S
C167 C168 1.376 . S
C167 C176 1.511 . S
C168 C167 1.376 . S
C168 C169 1.392 . S
C168 H189 0.931 . S
C169 C168 1.392 . S
C169 C170 1.361 . S
C169 C171 1.500 . S
C170 C165 1.390 . S
C170 C169 1.361 . S
C170 H188 0.931 . S
C171 C169 1.500 . S
C171 C172 1.371 . S
C171 C173 1.365 . S
C172 C171 1.371 . S
C172 C182 1.386 . S
C172 H190 0.931 . S
C173 C171 1.365 . S
C173 C174 1.409 . S
C173 H191 0.929 . S
C174 C173 1.409 . S
C174 C175 1.380 . S
C174 H192 0.930 . S
C175 C174 1.380 . S
C175 C182 1.357 . S
C176 C167 1.511 . S
C176 C177 1.341 . S
C176 C178 1.371 . S
C177 C176 1.341 . S
C177 C181 1.394 . S
C177 H193 0.930 . S
C178 C176 1.371 . S
C178 C179 1.392 . S
C178 H194 0.931 . S
C179 C178 1.392 . S
C179 C180 1.331 . S
C179 H197 0.932 . S
C180 C179 1.331 . S
C180 C181 1.336 . S
C181 C177 1.394 . S
C181 C180 1.336 . S
C181 H196 0.929 . S
C182 C172 1.386 . S
C182 C175 1.357 . S
C182 H195 0.928 . S
H183 C159 0.931 . S
H184 C161 0.930 . S
H185 C163 0.929 . S
H186 C164 0.931 . S
H187 C166 0.930 . S
H188 C170 0.931 . S
H189 C168 0.931 . S
H190 C172 0.931 . S
H191 C173 0.929 . S
H192 C174 0.930 . S
H193 C177 0.930 . S
H194 C178 0.931 . S
H195 C182 0.928 . S
H196 C181 0.929 . S
H197 C179 0.932 . S
C198 C199 1.386 . S
C198 C200 1.397 . S
C198 H222 0.931 . S
C199 C198 1.386 . S
C199 C203 1.397 . S
C200 C198 1.397 . S
C200 C201 1.384 . S
C200 H223 0.930 . S
C201 C200 1.384 . S
C201 C202 1.377 . S
C201 C204 1.481 . S
C202 C201 1.377 . S
C202 C203 1.389 . S
C202 H224 0.929 1_455 S
C203 C199 1.397 . S
C203 C202 1.389 . S
C203 H225 0.931 1_455 S
C204 C201 1.481 . S
C204 C205 1.387 . S
C204 C209 1.390 1_455 S
C205 C204 1.387 . S
C205 C206 1.401 . S
C205 H226 0.930 . S
C206 C205 1.401 . S
C206 C207 1.376 . S
C206 C215 1.511 . S
C207 C206 1.376 . S
C207 C208 1.392 1_455 S
C207 H228 0.931 . S
C208 C207 1.392 1_655 S
C208 C209 1.361 . S
C208 C210 1.500 . S
C209 C204 1.390 1_655 S
C209 C208 1.361 . S
C209 H227 0.931 . S
C210 C208 1.500 . S
C210 C211 1.371 . S
C210 C212 1.365 . S
C211 C210 1.371 . S
C211 C221 1.386 . S
C211 H229 0.931 . S
C212 C210 1.365 . S
C212 C213 1.409 . S
C212 H230 0.929 . S
C213 C212 1.409 . S
C213 C214 1.380 . S
C213 H231 0.930 . S
C214 C213 1.380 . S
C214 C221 1.357 . S
C215 C206 1.511 . S
C215 C216 1.341 . S
C215 C217 1.371 . S
C216 C215 1.341 . S
C216 C220 1.394 . S
C216 H232 0.930 . S
C217 C215 1.371 . S
C217 C218 1.392 . S
C217 H233 0.931 . S
C218 C217 1.392 . S
C218 C219 1.331 . S
C218 H236 0.932 . S
C219 C218 1.331 . S
C219 C220 1.336 . S
C220 C216 1.394 . S
C220 C219 1.336 . S
C220 H235 0.929 . S
C221 C211 1.386 . S
C221 C214 1.357 . S
C221 H234 0.928 . S
H222 C198 0.931 . S
H223 C200 0.930 . S
H224 C202 0.929 1_655 S
H225 C203 0.931 1_655 S
H226 C205 0.930 . S
H227 C209 0.931 . S
H228 C207 0.931 . S
H229 C211 0.931 . S
H230 C212 0.929 . S
H231 C213 0.930 . S
H232 C216 0.930 . S
H233 C217 0.931 . S
H234 C221 0.928 . S
H235 C220 0.929 . S
H236 C218 0.932 . S
C237 C238 1.370 1_655 S
C237 C239 1.397 . S
C237 H261 0.931 . S
C238 C237 1.370 1_455 S
C238 C242 1.413 . S
C239 C237 1.397 . S
C239 C240 1.384 1_655 S
C239 H262 0.930 . S
C240 C239 1.384 1_455 S
C240 C241 1.377 . S
C240 C243 1.481 . S
C241 C240 1.377 . S
C241 C242 1.389 . S
C241 H263 0.929 . S
C242 C238 1.413 . S
C242 C241 1.389 . S
C242 H264 0.931 . S
C243 C240 1.481 . S
C243 C244 1.387 1_455 S
C243 C248 1.390 . S
C244 C243 1.387 1_655 S
C244 C245 1.401 . S
C244 H265 0.930 . S
C245 C244 1.401 . S
C245 C246 1.376 1_655 S
C245 C254 1.511 . S
C246 C245 1.376 1_455 S
C246 C247 1.392 . S
C246 H267 0.931 . S
C247 C246 1.392 . S
C247 C248 1.361 . S
C247 C249 1.500 . S
C248 C243 1.390 . S
C248 C247 1.361 . S
C248 H266 0.931 . S
C249 C247 1.500 . S
C249 C250 1.371 . S
C249 C251 1.365 . S
C250 C249 1.371 . S
C250 C260 1.386 . S
C250 H268 0.931 . S
C251 C249 1.365 . S
C251 C252 1.409 . S
C251 H269 0.929 . S
C252 C251 1.409 . S
C252 C253 1.380 . S
C252 H270 0.930 . S
C253 C252 1.380 . S
C253 C260 1.357 . S
C254 C245 1.511 . S
C254 C255 1.341 . S
C254 C256 1.371 . S
C255 C254 1.341 . S
C255 C259 1.394 . S
C255 H271 0.930 . S
C256 C254 1.371 . S
C256 C257 1.392 . S
C256 H272 0.931 . S
C257 C256 1.392 . S
C257 C258 1.331 . S
C257 H275 0.932 . S
C258 C257 1.331 . S
C258 C259 1.336 . S
C259 C255 1.394 . S
C259 C258 1.336 . S
C259 H274 0.929 . S
C260 C250 1.386 . S
C260 C253 1.357 . S
C260 H273 0.928 . S
H261 C237 0.931 . S
H262 C239 0.930 . S
H263 C241 0.929 . S
H264 C242 0.931 . S
H265 C244 0.930 . S
H266 C248 0.931 . S
H267 C246 0.931 . S
H268 C250 0.931 . S
H269 C251 0.929 . S
H270 C252 0.930 . S
H271 C255 0.930 . S
H272 C256 0.931 . S
H273 C260 0.928 . S
H274 C259 0.929 . S
H275 C257 0.932 . S
C276 C277 1.386 1_565 S
C276 C278 1.397 . S
C276 H300 0.931 . S
C277 C276 1.386 1_545 S
C277 C281 1.397 . S
C278 C276 1.397 . S
C278 C279 1.384 1_565 S
C278 H301 0.930 . S
C279 C278 1.384 1_545 S
C279 C280 1.377 . S
C279 C282 1.481 . S
C280 C279 1.377 . S
C280 C281 1.389 . S
C280 H302 0.929 . S
C281 C277 1.397 . S
C281 C280 1.389 . S
C281 H303 0.931 . S
C282 C279 1.481 . S
C282 C283 1.387 1_545 S
C282 C287 1.390 . S
C283 C282 1.387 1_565 S
C283 C284 1.401 . S
C283 H304 0.930 . S
C284 C283 1.401 . S
C284 C285 1.376 1_565 S
C284 C293 1.511 . S
C285 C284 1.376 1_545 S
C285 C286 1.392 . S
C285 H306 0.931 . S
C286 C285 1.392 . S
C286 C287 1.361 . S
C286 C288 1.500 . S
C287 C282 1.390 . S
C287 C286 1.361 . S
C287 H305 0.931 . S
C288 C286 1.500 . S
C288 C289 1.371 . S
C288 C290 1.365 . S
C289 C288 1.371 . S
C289 C299 1.386 . S
C289 H307 0.931 . S
C290 C288 1.365 . S
C290 C291 1.409 . S
C290 H308 0.929 . S
C291 C290 1.409 . S
C291 C292 1.380 . S
C291 H309 0.930 . S
C292 C291 1.380 . S
C292 C299 1.357 . S
C293 C284 1.511 . S
C293 C294 1.341 . S
C293 C295 1.371 . S
C294 C293 1.341 . S
C294 C298 1.394 . S
C294 H310 0.930 . S
C295 C293 1.371 . S
C295 C296 1.392 . S
C295 H311 0.931 . S
C296 C295 1.392 . S
C296 C297 1.331 . S
C296 H314 0.932 . S
C297 C296 1.331 . S
C297 C298 1.336 . S
C298 C294 1.394 . S
C298 C297 1.336 . S
C298 H313 0.929 . S
C299 C289 1.386 . S
C299 C292 1.357 . S
C299 H312 0.928 . S
H300 C276 0.931 . S
H301 C278 0.930 . S
H302 C280 0.929 . S
H303 C281 0.931 . S
H304 C283 0.930 . S
H305 C287 0.931 . S
H306 C285 0.931 . S
H307 C289 0.931 . S
H308 C290 0.929 . S
H309 C291 0.930 . S
H310 C294 0.930 . S
H311 C295 0.931 . S
H312 C299 0.928 . S
H313 C298 0.929 . S
H314 C296 0.932 . S
C315 C316 1.386 . S
C315 C317 1.397 . S
C315 H339 0.931 . S
C316 C315 1.386 . S
C316 C320 1.397 . S
C317 C315 1.397 . S
C317 C318 1.384 . S
C317 H340 0.930 . S
C318 C317 1.384 . S
C318 C319 1.377 . S
C318 C321 1.481 . S
C319 C318 1.377 . S
C319 C320 1.389 . S
C319 H341 0.929 . S
C320 C316 1.397 . S
C320 C319 1.389 . S
C320 H342 0.931 . S
C321 C318 1.481 . S
C321 C322 1.387 . S
C321 C326 1.390 . S
C322 C321 1.387 . S
C322 C323 1.401 . S
C322 H343 0.930 . S
C323 C322 1.401 . S
C323 C324 1.376 . S
C323 C332 1.511 . S
C324 C323 1.376 . S
C324 C325 1.392 . S
C324 H345 0.931 . S
C325 C324 1.392 . S
C325 C326 1.361 . S
C325 C327 1.500 . S
C326 C321 1.390 . S
C326 C325 1.361 . S
C326 H344 0.931 . S
C327 C325 1.500 . S
C327 C328 1.371 . S
C327 C329 1.365 . S
C328 C327 1.371 . S
C328 C338 1.386 . S
C328 H346 0.931 . S
C329 C327 1.365 . S
C329 C330 1.409 . S
C329 H347 0.929 . S
C330 C329 1.409 . S
C330 C331 1.380 . S
C330 H348 0.930 . S
C331 C330 1.380 . S
C331 C338 1.357 . S
C332 C323 1.511 . S
C332 C333 1.341 . S
C332 C334 1.371 . S
C333 C332 1.341 . S
C333 C337 1.394 . S
C333 H349 0.930 . S
C334 C332 1.371 . S
C334 C335 1.392 . S
C334 H350 0.931 . S
C335 C334 1.392 . S
C335 C336 1.331 . S
C335 H353 0.932 . S
C336 C335 1.331 . S
C336 C337 1.336 . S
C337 C333 1.394 . S
C337 C336 1.336 . S
C337 H352 0.929 . S
C338 C328 1.386 . S
C338 C331 1.357 . S
C338 H351 0.928 . S
H339 C315 0.931 . S
H340 C317 0.930 . S
H341 C319 0.929 . S
H342 C320 0.931 . S
H343 C322 0.930 . S
H344 C326 0.931 . S
H345 C324 0.931 . S
H346 C328 0.931 . S
H347 C329 0.929 . S
H348 C330 0.930 . S
H349 C333 0.930 . S
H350 C334 0.931 . S
H351 C338 0.928 . S
H352 C337 0.929 . S
H353 C335 0.932 . S
C354 C355 1.349 . S
C354 C356 1.327 . S
C354 H379 0.950 . S
C355 C354 1.349 . S
C355 C371 1.349 . S
C356 C354 1.327 . S
C356 C375 1.429 . S
C356 H380 0.950 . S
C357 C374 1.574 . S
C357 C376 1.368 . S
C357 H381 0.949 . S
H358 C362 0.949 . S
C359 C360 1.349 . S
C359 C361 1.327 . S
C359 H382 0.950 . S
C360 C359 1.349 . S
C360 C372 1.349 . S
C361 C359 1.327 . S
C361 C377 1.429 . S
C361 H383 0.950 . S
C362 H358 0.949 . S
C362 C370 1.574 . S
C362 C378 1.368 . S
H363 C371 0.950 . S
H364 C369 0.950 . S
H365 C370 0.949 . S
H366 C372 0.950 . S
H367 C373 0.950 . S
H368 C374 0.949 . S
C369 H364 0.950 . S
C369 C371 1.327 . S
C369 C375 1.429 . S
C370 C362 1.574 . S
C370 H365 0.949 . S
C370 C376 1.368 . S
C371 C355 1.349 . S
C371 H363 0.950 . S
C371 C369 1.327 . S
C372 C360 1.349 . S
C372 H366 0.950 . S
C372 C373 1.327 . S
C373 H367 0.950 . S
C373 C372 1.327 . S
C373 C377 1.429 . S
C374 C357 1.574 . S
C374 H368 0.949 . S
C374 C378 1.368 . S
C375 C356 1.429 . S
C375 C369 1.429 . S
C375 C376 1.523 . S
C376 C357 1.368 . S
C376 C370 1.368 . S
C376 C375 1.523 . S
C377 C361 1.429 . S
C377 C373 1.429 . S
C377 C378 1.523 . S
C378 C362 1.368 . S
C378 C374 1.368 . S
C378 C377 1.523 . S
H379 C354 0.950 . S
H380 C356 0.950 . S
H381 C357 0.949 . S
H382 C359 0.950 . S
H383 C361 0.950 . S
C384 C385 1.349 . S
C384 C386 1.327 . S
C384 H409 0.950 . S
C385 C384 1.349 . S
C385 C401 1.349 . S
C386 C384 1.327 . S
C386 C405 1.429 . S
C386 H410 0.950 . S
C387 C404 1.574 . S
C387 C406 1.368 . S
C387 H411 0.949 . S
H388 C392 0.949 . S
C389 C390 1.349 . S
C389 C391 1.327 . S
C389 H412 0.950 . S
C390 C389 1.349 . S
C390 C402 1.349 . S
C391 C389 1.327 . S
C391 C407 1.429 . S
C391 H413 0.950 . S
C392 H388 0.949 . S
C392 C400 1.574 . S
C392 C408 1.368 . S
H393 C401 0.950 . S
H394 C399 0.950 . S
H395 C400 0.949 . S
H396 C402 0.950 . S
H397 C403 0.950 . S
H398 C404 0.949 . S
C399 H394 0.950 . S
C399 C401 1.327 . S
C399 C405 1.429 . S
C400 C392 1.574 . S
C400 H395 0.949 . S
C400 C406 1.368 . S
C401 C385 1.349 . S
C401 H393 0.950 . S
C401 C399 1.327 . S
C402 C390 1.349 . S
C402 H396 0.950 . S
C402 C403 1.327 . S
C403 H397 0.950 . S
C403 C402 1.327 . S
C403 C407 1.429 . S
C404 C387 1.574 . S
C404 H398 0.949 . S
C404 C408 1.368 . S
C405 C386 1.429 . S
C405 C399 1.429 . S
C405 C406 1.523 . S
C406 C387 1.368 . S
C406 C400 1.368 . S
C406 C405 1.523 . S
C407 C391 1.429 . S
C407 C403 1.429 . S
C407 C408 1.523 . S
C408 C392 1.368 . S
C408 C404 1.368 . S
C408 C407 1.523 . S
H409 C384 0.950 . S
H410 C386 0.950 . S
H411 C387 0.949 . S
H412 C389 0.950 . S
H413 C391 0.950 . S
C414 C415 1.349 . S
C414 C416 1.327 . S
C414 H439 0.950 . S
C415 C414 1.349 . S
C415 C431 1.349 . S
C416 C414 1.327 . S
C416 C435 1.429 . S
C416 H440 0.950 . S
C417 C434 1.574 . S
C417 C436 1.368 . S
C417 H441 0.949 . S
H418 C422 0.949 . S
C419 C420 1.349 . S
C419 C421 1.327 . S
C419 H442 0.950 . S
C420 C419 1.349 . S
C420 C432 1.349 . S
C421 C419 1.327 . S
C421 C437 1.429 . S
C421 H443 0.950 . S
C422 H418 0.949 . S
C422 C430 1.574 . S
C422 C438 1.368 . S
H423 C431 0.950 . S
H424 C429 0.950 . S
H425 C430 0.949 . S
H426 C432 0.950 . S
H427 C433 0.950 . S
H428 C434 0.949 . S
C429 H424 0.950 . S
C429 C431 1.327 . S
C429 C435 1.429 . S
C430 C422 1.574 . S
C430 H425 0.949 . S
C430 C436 1.368 . S
C431 C415 1.349 . S
C431 H423 0.950 . S
C431 C429 1.327 . S
C432 C420 1.349 . S
C432 H426 0.950 . S
C432 C433 1.327 . S
C433 H427 0.950 . S
C433 C432 1.327 . S
C433 C437 1.429 . S
C434 C417 1.574 . S
C434 H428 0.949 . S
C434 C438 1.368 . S
C435 C416 1.429 . S
C435 C429 1.429 . S
C435 C436 1.523 . S
C436 C417 1.368 . S
C436 C430 1.368 . S
C436 C435 1.523 . S
C437 C421 1.429 . S
C437 C433 1.429 . S
C437 C438 1.523 . S
C438 C422 1.368 . S
C438 C434 1.368 . S
C438 C437 1.523 . S
H439 C414 0.950 . S
H440 C416 0.950 . S
H441 C417 0.949 . S
H442 C419 0.950 . S
H443 C421 0.950 . S
C444 C445 1.349 . S
C444 C446 1.327 . S
C444 H469 0.950 . S
C445 C444 1.349 . S
C445 C461 1.349 . S
C446 C444 1.327 . S
C446 C465 1.429 . S
C446 H470 0.950 . S
C447 C464 1.574 . S
C447 C466 1.368 . S
C447 H471 0.949 . S
H448 C452 0.949 . S
C449 C450 1.349 . S
C449 C451 1.327 . S
C449 H472 0.950 . S
C450 C449 1.349 . S
C450 C462 1.349 . S
C451 C449 1.327 . S
C451 C467 1.429 . S
C451 H473 0.950 . S
C452 H448 0.949 . S
C452 C460 1.574 . S
C452 C468 1.368 . S
H453 C461 0.950 . S
H454 C459 0.950 . S
H455 C460 0.949 . S
H456 C462 0.950 . S
H457 C463 0.950 . S
H458 C464 0.949 . S
C459 H454 0.950 . S
C459 C461 1.327 . S
C459 C465 1.429 . S
C460 C452 1.574 . S
C460 H455 0.949 . S
C460 C466 1.368 . S
C461 C445 1.349 . S
C461 H453 0.950 . S
C461 C459 1.327 . S
C462 C450 1.349 . S
C462 H456 0.950 . S
C462 C463 1.327 . S
C463 H457 0.950 . S
C463 C462 1.327 . S
C463 C467 1.429 . S
C464 C447 1.574 . S
C464 H458 0.949 . S
C464 C468 1.368 . S
C465 C446 1.429 . S
C465 C459 1.429 . S
C465 C466 1.523 . S
C466 C447 1.368 . S
C466 C460 1.368 . S
C466 C465 1.523 . S
C467 C451 1.429 . S
C467 C463 1.429 . S
C467 C468 1.523 . S
C468 C452 1.368 . S
C468 C464 1.368 . S
C468 C467 1.523 . S
H469 C444 0.950 . S
H470 C446 0.950 . S
H471 C447 0.949 . S
H472 C449 0.950 . S
H473 C451 0.950 . S
C474 C475 1.349 . S
C474 C476 1.327 . S
C474 H499 0.950 . S
C475 C474 1.349 . S
C475 C491 1.349 . S
C476 C474 1.327 . S
C476 C495 1.429 . S
C476 H500 0.950 . S
C477 C494 1.574 . S
C477 C496 1.368 . S
C477 H501 0.949 . S
H478 C482 0.949 . S
C479 C480 1.349 . S
C479 C481 1.327 . S
C479 H502 0.950 . S
C480 C479 1.349 . S
C480 C492 1.349 . S
C481 C479 1.327 . S
C481 C497 1.429 . S
C481 H503 0.950 . S
C482 H478 0.949 . S
C482 C490 1.574 . S
C482 C498 1.368 . S
H483 C491 0.950 . S
H484 C489 0.950 . S
H485 C490 0.949 . S
H486 C492 0.950 . S
H487 C493 0.950 . S
H488 C494 0.949 . S
C489 H484 0.950 . S
C489 C491 1.327 . S
C489 C495 1.429 . S
C490 C482 1.574 . S
C490 H485 0.949 . S
C490 C496 1.368 . S
C491 C475 1.349 . S
C491 H483 0.950 . S
C491 C489 1.327 . S
C492 C480 1.349 . S
C492 H486 0.950 . S
C492 C493 1.327 . S
C493 H487 0.950 . S
C493 C492 1.327 . S
C493 C497 1.429 . S
C494 C477 1.574 . S
C494 H488 0.949 . S
C494 C498 1.368 . S
C495 C476 1.429 . S
C495 C489 1.429 . S
C495 C496 1.523 . S
C496 C477 1.368 . S
C496 C490 1.368 . S
C496 C495 1.523 . S
C497 C481 1.429 . S
C497 C493 1.429 . S
C497 C498 1.523 . S
C498 C482 1.368 . S
C498 C494 1.368 . S
C498 C497 1.523 . S
H499 C474 0.950 . S
H500 C476 0.950 . S
H501 C477 0.949 . S
H502 C479 0.950 . S
H503 C481 0.950 . S
C504 C505 1.349 . S
C504 C506 1.327 . S
C504 H529 0.950 . S
C505 C504 1.349 . S
C505 C521 1.349 . S
C506 C504 1.327 . S
C506 C525 1.429 . S
C506 H530 0.950 . S
C507 C524 1.574 . S
C507 C526 1.368 . S
C507 H531 0.949 . S
H508 C512 0.949 . S
C509 C510 1.349 . S
C509 C511 1.327 . S
C509 H532 0.950 . S
C510 C509 1.349 . S
C510 C522 1.349 . S
C511 C509 1.327 . S
C511 C527 1.429 . S
C511 H533 0.950 . S
C512 H508 0.949 . S
C512 C520 1.574 . S
C512 C528 1.368 . S
H513 C521 0.950 . S
H514 C519 0.950 . S
H515 C520 0.949 . S
H516 C522 0.950 . S
H517 C523 0.950 . S
H518 C524 0.949 . S
C519 H514 0.950 . S
C519 C521 1.327 . S
C519 C525 1.429 . S
C520 C512 1.574 . S
C520 H515 0.949 . S
C520 C526 1.368 . S
C521 C505 1.349 . S
C521 H513 0.950 . S
C521 C519 1.327 . S
C522 C510 1.349 . S
C522 H516 0.950 . S
C522 C523 1.327 . S
C523 H517 0.950 . S
C523 C522 1.327 . S
C523 C527 1.429 . S
C524 C507 1.574 . S
C524 H518 0.949 . S
C524 C528 1.368 . S
C525 C506 1.429 . S
C525 C519 1.429 . S
C525 C526 1.523 . S
C526 C507 1.368 . S
C526 C520 1.368 . S
C526 C525 1.523 . S
C527 C511 1.429 . S
C527 C523 1.429 . S
C527 C528 1.523 . S
C528 C512 1.368 . S
C528 C524 1.368 . S
C528 C527 1.523 . S
H529 C504 0.950 . S
H530 C506 0.950 . S
H531 C507 0.949 . S
H532 C509 0.950 . S
H533 C511 0.950 . S
C534 C535 1.349 . S
C534 C536 1.327 . S
C534 H559 0.950 . S
C535 C534 1.349 . S
C535 C551 1.349 . S
C536 C534 1.327 . S
C536 C555 1.429 . S
C536 H560 0.950 . S
C537 C554 1.574 . S
C537 C556 1.368 . S
C537 H561 0.949 . S
H538 C542 0.949 . S
C539 C540 1.349 . S
C539 C541 1.327 . S
C539 H562 0.950 . S
C540 C539 1.349 . S
C540 C552 1.349 . S
C541 C539 1.327 . S
C541 C557 1.429 . S
C541 H563 0.950 . S
C542 H538 0.949 . S
C542 C550 1.574 . S
C542 C558 1.368 . S
H543 C551 0.950 . S
H544 C549 0.950 . S
H545 C550 0.949 . S
H546 C552 0.950 . S
H547 C553 0.950 . S
H548 C554 0.949 . S
C549 H544 0.950 . S
C549 C551 1.327 . S
C549 C555 1.429 . S
C550 C542 1.574 . S
C550 H545 0.949 . S
C550 C556 1.368 . S
C551 C535 1.349 . S
C551 H543 0.950 . S
C551 C549 1.327 . S
C552 C540 1.349 . S
C552 H546 0.950 . S
C552 C553 1.327 . S
C553 H547 0.950 . S
C553 C552 1.327 . S
C553 C557 1.429 . S
C554 C537 1.574 . S
C554 H548 0.949 . S
C554 C558 1.368 . S
C555 C536 1.429 . S
C555 C549 1.429 . S
C555 C556 1.523 . S
C556 C537 1.368 . S
C556 C550 1.368 . S
C556 C555 1.523 . S
C557 C541 1.429 . S
C557 C553 1.429 . S
C557 C558 1.523 . S
C558 C542 1.368 . S
C558 C554 1.368 . S
C558 C557 1.523 . S
H559 C534 0.950 . S
H560 C536 0.950 . S
H561 C537 0.949 . S
H562 C539 0.950 . S
H563 C541 0.950 . S
C564 C565 1.349 . S
C564 C566 1.327 . S
C564 H589 0.950 . S
C565 C564 1.349 . S
C565 C581 1.349 . S
C566 C564 1.327 . S
C566 C585 1.429 . S
C566 H590 0.950 . S
C567 C584 1.574 . S
C567 C586 1.368 . S
C567 H591 0.949 . S
H568 C572 0.949 . S
C569 C570 1.349 . S
C569 C571 1.327 . S
C569 H592 0.950 . S
C570 C569 1.349 . S
C570 C582 1.349 . S
C571 C569 1.327 . S
C571 C587 1.429 . S
C571 H593 0.950 . S
C572 H568 0.949 . S
C572 C580 1.574 . S
C572 C588 1.368 . S
H573 C581 0.950 . S
H574 C579 0.950 . S
H575 C580 0.949 . S
H576 C582 0.950 . S
H577 C583 0.950 . S
H578 C584 0.949 . S
C579 H574 0.950 . S
C579 C581 1.327 . S
C579 C585 1.429 . S
C580 C572 1.574 . S
C580 H575 0.949 . S
C580 C586 1.368 . S
C581 C565 1.349 . S
C581 H573 0.950 . S
C581 C579 1.327 . S
C582 C570 1.349 . S
C582 H576 0.950 . S
C582 C583 1.327 . S
C583 H577 0.950 . S
C583 C582 1.327 . S
C583 C587 1.429 . S
C584 C567 1.574 . S
C584 H578 0.949 . S
C584 C588 1.368 . S
C585 C566 1.429 . S
C585 C579 1.429 . S
C585 C586 1.523 . S
C586 C567 1.368 . S
C586 C580 1.368 . S
C586 C585 1.523 . S
C587 C571 1.429 . S
C587 C583 1.429 . S
C587 C588 1.523 . S
C588 C572 1.368 . S
C588 C584 1.368 . S
C588 C587 1.523 . S
H589 C564 0.950 . S
H590 C566 0.950 . S
H591 C567 0.949 . S
H592 C569 0.950 . S
H593 C571 0.950 . S
C594 C595 1.349 . S
C594 C596 1.327 . S
C594 H619 0.950 . S
C595 C594 1.349 . S
C595 C611 1.349 . S
C596 C594 1.327 . S
C596 C615 1.429 . S
C596 H620 0.950 . S
C597 C614 1.574 . S
C597 C616 1.368 . S
C597 H621 0.949 . S
H598 C602 0.949 . S
C599 C600 1.349 . S
C599 C601 1.327 . S
C599 H622 0.950 . S
C600 C599 1.349 . S
C600 C612 1.349 . S
C601 C599 1.327 . S
C601 C617 1.429 . S
C601 H623 0.950 . S
C602 H598 0.949 . S
C602 C610 1.574 . S
C602 C618 1.368 . S
H603 C611 0.950 . S
H604 C609 0.950 . S
H605 C610 0.949 . S
H606 C612 0.950 . S
H607 C613 0.950 . S
H608 C614 0.949 . S
C609 H604 0.950 . S
C609 C611 1.327 . S
C609 C615 1.429 . S
C610 C602 1.574 . S
C610 H605 0.949 . S
C610 C616 1.368 . S
C611 C595 1.349 . S
C611 H603 0.950 . S
C611 C609 1.327 . S
C612 C600 1.349 . S
C612 H606 0.950 . S
C612 C613 1.327 . S
C613 H607 0.950 . S
C613 C612 1.327 . S
C613 C617 1.429 . S
C614 C597 1.574 . S
C614 H608 0.949 . S
C614 C618 1.368 . S
C615 C596 1.429 . S
C615 C609 1.429 . S
C615 C616 1.523 . S
C616 C597 1.368 . S
C616 C610 1.368 . S
C616 C615 1.523 . S
C617 C601 1.429 . S
C617 C613 1.429 . S
C617 C618 1.523 . S
C618 C602 1.368 . S
C618 C614 1.368 . S
C618 C617 1.523 . S
H619 C594 0.950 . S
H620 C596 0.950 . S
H621 C597 0.949 . S
H622 C599 0.950 . S
H623 C601 0.950 . S
C624 C625 1.349 . S
C624 C626 1.327 . S
C624 H649 0.950 . S
C625 C624 1.349 . S
C625 C641 1.349 . S
C626 C624 1.327 . S
C626 C645 1.429 . S
C626 H650 0.950 . S
C627 C644 1.574 . S
C627 C646 1.368 . S
C627 H651 0.949 . S
H628 C632 0.949 . S
C629 C630 1.349 . S
C629 C631 1.327 . S
C629 H652 0.950 . S
C630 C629 1.349 . S
C630 C642 1.349 . S
C631 C629 1.327 . S
C631 C647 1.429 . S
C631 H653 0.950 . S
C632 H628 0.949 . S
C632 C640 1.574 . S
C632 C648 1.368 . S
H633 C641 0.950 . S
H634 C639 0.950 . S
H635 C640 0.949 . S
H636 C642 0.950 . S
H637 C643 0.950 . S
H638 C644 0.949 . S
C639 H634 0.950 . S
C639 C641 1.327 . S
C639 C645 1.429 . S
C640 C632 1.574 . S
C640 H635 0.949 . S
C640 C646 1.368 . S
C641 C625 1.349 . S
C641 H633 0.950 . S
C641 C639 1.327 . S
C642 C630 1.349 . S
C642 H636 0.950 . S
C642 C643 1.327 . S
C643 H637 0.950 . S
C643 C642 1.327 . S
C643 C647 1.429 . S
C644 C627 1.574 . S
C644 H638 0.949 . S
C644 C648 1.368 . S
C645 C626 1.429 . S
C645 C639 1.429 . S
C645 C646 1.523 . S
C646 C627 1.368 . S
C646 C640 1.368 . S
C646 C645 1.523 . S
C647 C631 1.429 . S
C647 C643 1.429 . S
C647 C648 1.523 . S
C648 C632 1.368 . S
C648 C644 1.368 . S
C648 C647 1.523 . S
H649 C624 0.950 . S
H650 C626 0.950 . S
H651 C627 0.949 . S
H652 C629 0.950 . S
H653 C631 0.950 . S
C654 C655 1.349 . S
C654 C656 1.327 . S
C654 H679 0.950 . S
C655 C654 1.349 . S
C655 C671 1.349 . S
C656 C654 1.327 . S
C656 C675 1.429 . S
C656 H680 0.950 . S
C657 C674 1.574 . S
C657 C676 1.368 . S
C657 H681 0.949 . S
H658 C662 0.949 . S
C659 C660 1.349 . S
C659 C661 1.327 . S
C659 H682 0.950 . S
C660 C659 1.349 . S
C660 C672 1.349 . S
C661 C659 1.327 . S
C661 C677 1.429 . S
C661 H683 0.950 . S
C662 H658 0.949 . S
C662 C670 1.574 . S
C662 C678 1.368 . S
H663 C671 0.950 . S
H664 C669 0.950 . S
H665 C670 0.949 . S
H666 C672 0.950 . S
H667 C673 0.950 . S
H668 C674 0.949 . S
C669 H664 0.950 . S
C669 C671 1.327 . S
C669 C675 1.429 . S
C670 C662 1.574 . S
C670 H665 0.949 . S
C670 C676 1.368 . S
C671 C655 1.349 . S
C671 H663 0.950 . S
C671 C669 1.327 . S
C672 C660 1.349 . S
C672 H666 0.950 . S
C672 C673 1.327 . S
C673 H667 0.950 . S
C673 C672 1.327 . S
C673 C677 1.429 . S
C674 C657 1.574 . S
C674 H668 0.949 . S
C674 C678 1.368 . S
C675 C656 1.429 . S
C675 C669 1.429 . S
C675 C676 1.523 . S
C676 C657 1.368 . S
C676 C670 1.368 . S
C676 C675 1.523 . S
C677 C661 1.429 . S
C677 C673 1.429 . S
C677 C678 1.523 . S
C678 C662 1.368 . S
C678 C674 1.368 . S
C678 C677 1.523 . S
H679 C654 0.950 . S
H680 C656 0.950 . S
H681 C657 0.949 . S
H682 C659 0.950 . S
H683 C661 0.950 . S
C684 C685 1.349 . S
C684 C686 1.327 . S
C684 H709 0.950 . S
C685 C684 1.349 . S
C685 C701 1.349 . S
C686 C684 1.327 . S
C686 C705 1.429 . S
C686 H710 0.950 . S
C687 C704 1.574 . S
C687 C706 1.368 . S
C687 H711 0.949 . S
H688 C692 0.949 . S
C689 C690 1.349 . S
C689 C691 1.327 . S
C689 H712 0.950 . S
C690 C689 1.349 . S
C690 C702 1.349 . S
C691 C689 1.327 . S
C691 C707 1.429 . S
C691 H713 0.950 . S
C692 H688 0.949 . S
C692 C700 1.574 . S
C692 C708 1.368 . S
H693 C701 0.950 . S
H694 C699 0.950 . S
H695 C700 0.949 . S
H696 C702 0.950 . S
H697 C703 0.950 . S
H698 C704 0.949 . S
C699 H694 0.950 . S
C699 C701 1.327 . S
C699 C705 1.429 . S
C700 C692 1.574 . S
C700 H695 0.949 . S
C700 C706 1.368 . S
C701 C685 1.349 . S
C701 H693 0.950 . S
C701 C699 1.327 . S
C702 C690 1.349 . S
C702 H696 0.950 . S
C702 C703 1.327 . S
C703 H697 0.950 . S
C703 C702 1.327 . S
C703 C707 1.429 . S
C704 C687 1.574 . S
C704 H698 0.949 . S
C704 C708 1.368 . S
C705 C686 1.429 . S
C705 C699 1.429 . S
C705 C706 1.523 . S
C706 C687 1.368 . S
C706 C700 1.368 . S
C706 C705 1.523 . S
C707 C691 1.429 . S
C707 C703 1.429 . S
C707 C708 1.523 . S
C708 C692 1.368 . S
C708 C704 1.368 . S
C708 C707 1.523 . S
H709 C684 0.950 . S
H710 C686 0.950 . S
H711 C687 0.949 . S
H712 C689 0.950 . S
H713 C691 0.950 . S
C714 C715 1.349 . S
C714 C716 1.327 . S
C714 H739 0.950 . S
C715 C714 1.349 . S
C715 C731 1.349 1_455 S
C716 C714 1.327 . S
C716 C735 1.429 . S
C716 H740 0.950 . S
C717 C734 1.574 . S
C717 C736 1.368 1_655 S
C717 H741 0.949 . S
H718 C722 0.949 . S
C719 C720 1.349 . S
C719 C721 1.327 1_556 S
C719 H742 0.950 1_455 S
C720 C719 1.349 . S
C720 C732 1.349 . S
C721 C719 1.327 1_554 S
C721 C737 1.429 . S
C721 H743 0.950 1_455 S
C722 H718 0.949 . S
C722 C730 1.574 . S
C722 C738 1.368 . S
H723 C731 0.950 . S
H724 C729 0.950 . S
H725 C730 0.949 . S
H726 C732 0.950 . S
H727 C733 0.950 . S
H728 C734 0.949 . S
C729 H724 0.950 . S
C729 C731 1.327 . S
C729 C735 1.429 1_655 S
C730 C722 1.574 . S
C730 H725 0.949 . S
C730 C736 1.368 . S
C731 C715 1.349 1_655 S
C731 H723 0.950 . S
C731 C729 1.327 . S
C732 C720 1.349 . S
C732 H726 0.950 . S
C732 C733 1.327 1_556 S
C733 H727 0.950 . S
C733 C732 1.327 1_554 S
C733 C737 1.429 . S
C734 C717 1.574 . S
C734 H728 0.949 . S
C734 C738 1.368 1_655 S
C735 C716 1.429 . S
C735 C729 1.429 1_455 S
C735 C736 1.523 . S
C736 C717 1.368 1_455 S
C736 C730 1.368 . S
C736 C735 1.523 . S
C737 C721 1.429 . S
C737 C733 1.429 . S
C737 C738 1.523 . S
C738 C722 1.368 . S
C738 C734 1.368 1_455 S
C738 C737 1.523 . S
H739 C714 0.950 . S
H740 C716 0.950 . S
H741 C717 0.949 . S
H742 C719 0.950 1_655 S
H743 C721 0.950 1_655 S
C744 C745 1.349 . S
C744 C746 1.327 . S
C744 H769 0.950 . S
C745 C744 1.349 . S
C745 C761 1.349 . S
C746 C744 1.327 . S
C746 C765 1.429 . S
C746 H770 0.950 . S
C747 C764 1.574 . S
C747 C766 1.368 . S
C747 H771 0.949 . S
H748 C752 0.949 . S
C749 C750 1.349 . S
C749 C751 1.327 . S
C749 H772 0.950 . S
C750 C749 1.349 . S
C750 C762 1.349 . S
C751 C749 1.327 . S
C751 C767 1.429 . S
C751 H773 0.950 . S
C752 H748 0.949 . S
C752 C760 1.574 . S
C752 C768 1.368 . S
H753 C761 0.950 . S
H754 C759 0.950 . S
H755 C760 0.949 . S
H756 C762 0.950 . S
H757 C763 0.950 . S
H758 C764 0.949 . S
C759 H754 0.950 . S
C759 C761 1.327 . S
C759 C765 1.429 . S
C760 C752 1.574 . S
C760 H755 0.949 . S
C760 C766 1.368 . S
C761 C745 1.349 . S
C761 H753 0.950 . S
C761 C759 1.327 . S
C762 C750 1.349 . S
C762 H756 0.950 . S
C762 C763 1.327 . S
C763 H757 0.950 . S
C763 C762 1.327 . S
C763 C767 1.429 . S
C764 C747 1.574 . S
C764 H758 0.949 . S
C764 C768 1.368 . S
C765 C746 1.429 . S
C765 C759 1.429 . S
C765 C766 1.523 . S
C766 C747 1.368 . S
C766 C760 1.368 . S
C766 C765 1.523 . S
C767 C751 1.429 . S
C767 C763 1.429 . S
C767 C768 1.523 . S
C768 C752 1.368 . S
C768 C764 1.368 . S
C768 C767 1.523 . S
H769 C744 0.950 . S
H770 C746 0.950 . S
H771 C747 0.949 . S
H772 C749 0.950 . S
H773 C751 0.950 . S
C774 C775 1.349 . S
C774 C776 1.327 . S
C774 H799 0.950 . S
C775 C774 1.349 . S
C775 C791 1.349 . S
C776 C774 1.327 . S
C776 C795 1.429 . S
C776 H800 0.950 . S
C777 C794 1.574 . S
C777 C796 1.368 . S
C777 H801 0.949 . S
H778 C782 0.949 . S
C779 C780 1.349 . S
C779 C781 1.327 . S
C779 H802 0.950 . S
C780 C779 1.349 . S
C780 C792 1.349 . S
C781 C779 1.327 . S
C781 C797 1.429 . S
C781 H803 0.950 . S
C782 H778 0.949 . S
C782 C790 1.574 . S
C782 C798 1.368 . S
H783 C791 0.950 . S
H784 C789 0.950 . S
H785 C790 0.949 . S
H786 C792 0.950 . S
H787 C793 0.950 . S
H788 C794 0.949 . S
C789 H784 0.950 . S
C789 C791 1.327 . S
C789 C795 1.429 . S
C790 C782 1.574 . S
C790 H785 0.949 . S
C790 C796 1.368 . S
C791 C775 1.349 . S
C791 H783 0.950 . S
C791 C789 1.327 . S
C792 C780 1.349 . S
C792 H786 0.950 . S
C792 C793 1.327 . S
C793 H787 0.950 . S
C793 C792 1.327 . S
C793 C797 1.429 . S
C794 C777 1.574 . S
C794 H788 0.949 . S
C794 C798 1.368 . S
C795 C776 1.429 . S
C795 C789 1.429 . S
C795 C796 1.523 . S
C796 C777 1.368 . S
C796 C790 1.368 . S
C796 C795 1.523 . S
C797 C781 1.429 . S
C797 C793 1.429 . S
C797 C798 1.523 . S
C798 C782 1.368 . S
C798 C794 1.368 . S
C798 C797 1.523 . S
H799 C774 0.950 . S
H800 C776 0.950 . S
H801 C777 0.949 . S
H802 C779 0.950 . S
H803 C781 0.950 . S
C804 C805 1.349 . S
C804 C806 1.327 . S
C804 H829 0.950 . S
C805 C804 1.349 . S
C805 C821 1.349 1_545 S
C806 C804 1.327 . S
C806 C825 1.429 . S
C806 H830 0.950 . S
C807 C824 1.574 . S
C807 C826 1.368 1_565 S
C807 H831 0.949 . S
H808 C812 0.949 . S
C809 C810 1.349 1_565 S
C809 C811 1.327 . S
C809 H832 0.950 . S
C810 C809 1.349 1_545 S
C810 C822 1.349 . S
C811 C809 1.327 . S
C811 C827 1.429 1_565 S
C811 H833 0.950 . S
C812 H808 0.949 . S
C812 C820 1.574 . S
C812 C828 1.368 . S
H813 C821 0.950 . S
H814 C819 0.950 . S
H815 C820 0.949 . S
H816 C822 0.950 . S
H817 C823 0.950 . S
H818 C824 0.949 . S
C819 H814 0.950 . S
C819 C821 1.327 . S
C819 C825 1.429 1_565 S
C820 C812 1.574 . S
C820 H815 0.949 . S
C820 C826 1.368 . S
C821 C805 1.349 1_565 S
C821 H813 0.950 . S
C821 C819 1.327 . S
C822 C810 1.349 . S
C822 H816 0.950 . S
C822 C823 1.327 . S
C823 H817 0.950 . S
C823 C822 1.327 . S
C823 C827 1.429 . S
C824 C807 1.574 . S
C824 H818 0.949 . S
C824 C828 1.368 1_565 S
C825 C806 1.429 . S
C825 C819 1.429 1_545 S
C825 C826 1.523 . S
C826 C807 1.368 1_545 S
C826 C820 1.368 . S
C826 C825 1.523 . S
C827 C811 1.429 1_545 S
C827 C823 1.429 . S
C827 C828 1.523 . S
C828 C812 1.368 . S
C828 C824 1.368 1_545 S
C828 C827 1.523 . S
H829 C804 0.950 . S
H830 C806 0.950 . S
H831 C807 0.949 . S
H832 C809 0.950 . S
H833 C811 0.950 . S
C834 C835 1.349 . S
C834 C836 1.327 . S
C834 H859 0.950 . S
C835 C834 1.349 . S
C835 C851 1.349 . S
C836 C834 1.327 . S
C836 C855 1.429 . S
C836 H860 0.950 . S
C837 C854 1.574 . S
C837 C856 1.368 . S
C837 H861 0.949 . S
H838 C842 0.949 . S
C839 C840 1.349 . S
C839 C841 1.327 1_554 S
C839 H862 0.950 . S
C840 C839 1.349 . S
C840 C852 1.349 . S
C841 C839 1.327 1_556 S
C841 C857 1.429 . S
C841 H863 0.950 . S
C842 H838 0.949 . S
C842 C850 1.574 . S
C842 C858 1.368 . S
H843 C851 0.950 . S
H844 C849 0.950 . S
H845 C850 0.949 . S
H846 C852 0.950 . S
H847 C853 0.950 . S
H848 C854 0.949 . S
C849 H844 0.950 . S
C849 C851 1.327 . S
C849 C855 1.429 . S
C850 C842 1.574 . S
C850 H845 0.949 . S
C850 C856 1.368 . S
C851 C835 1.349 . S
C851 H843 0.950 . S
C851 C849 1.327 . S
C852 C840 1.349 . S
C852 H846 0.950 . S
C852 C853 1.327 1_554 S
C853 H847 0.950 . S
C853 C852 1.327 1_556 S
C853 C857 1.429 . S
C854 C837 1.574 . S
C854 H848 0.949 . S
C854 C858 1.368 . S
C855 C836 1.429 . S
C855 C849 1.429 . S
C855 C856 1.523 . S
C856 C837 1.368 . S
C856 C850 1.368 . S
C856 C855 1.523 . S
C857 C841 1.429 . S
C857 C853 1.429 . S
C857 C858 1.523 . S
C858 C842 1.368 . S
C858 C854 1.368 . S
C858 C857 1.523 . S
H859 C834 0.950 . S
H860 C836 0.950 . S
H861 C837 0.949 . S
H862 C839 0.950 . S
H863 C841 0.950 . S
C864 C865 1.349 . S
C864 C866 1.327 . S
C864 H889 0.949 1_455 S
C865 C864 1.349 . S
C865 C881 1.349 . S
C866 C864 1.327 . S
C866 C885 1.429 . S
C866 H890 0.950 1_455 S
C867 C884 1.574 . S
C867 C886 1.368 . S
C867 H891 0.949 . S
H868 C872 0.949 . S
C869 C870 1.347 . S
C869 C871 1.327 . S
C869 H892 0.950 . S
C870 C869 1.347 . S
C870 C882 1.350 1_455 S
C871 C869 1.327 . S
C871 C887 1.429 . S
C871 H893 0.950 . S
C872 H868 0.949 . S
C872 C880 1.575 . S
C872 C888 1.368 1_655 S
H873 C881 0.950 . S
H874 C879 0.950 . S
H875 C880 0.955 . S
H876 C882 0.950 . S
H877 C883 0.950 . S
H878 C884 0.949 . S
C879 H874 0.950 . S
C879 C881 1.327 . S
C879 C885 1.429 . S
C880 C872 1.575 . S
C880 H875 0.955 . S
C880 C886 1.360 1_655 S
C881 C865 1.349 . S
C881 H873 0.950 . S
C881 C879 1.327 . S
C882 C870 1.350 1_655 S
C882 H876 0.950 . S
C882 C883 1.327 . S
C883 H877 0.950 . S
C883 C882 1.327 . S
C883 C887 1.429 1_655 S
C884 C867 1.574 . S
C884 H878 0.949 . S
C884 C888 1.368 . S
C885 C866 1.429 . S
C885 C879 1.429 . S
C885 C886 1.523 . S
C886 C867 1.368 . S
C886 C880 1.360 1_455 S
C886 C885 1.523 . S
C887 C871 1.429 . S
C887 C883 1.429 1_455 S
C887 C888 1.523 . S
C888 C872 1.368 1_455 S
C888 C884 1.368 . S
C888 C887 1.523 . S
H889 C864 0.949 1_655 S
H890 C866 0.950 1_655 S
H891 C867 0.949 . S
H892 C869 0.950 . S
H893 C871 0.950 . S
C355 C24 2.861 . S
C360 C331 2.825 . S
C385 C66 1.036 . S
C390 C258 1.052 . S
C415 C93 1.737 . S
C420 C297 1.712 . S
C445 C13 2.998 . S
C450 C336 2.955 . S
C480 C253 1.224 . S
C475 C57 1.234 . S
C510 C292 1.862 . S
C505 C104 1.904 . S
C535 C64 1.903 . S
C540 C180 1.859 . S
C565 C97 0.388 . S
C570 C214 0.402 . S
C595 C17 1.206 . S
C600 C136 1.207 . S
C630 C175 1.707 . S
C625 C53 1.737 . S
C660 C219 0.123 . S
C655 C106 0.304 . S
C685 C26 1.055 . S
C690 C141 1.067 . S
C720 C199 1.098 . S
C715 C2 1.081 . S
C745 C63 1.462 . S
C750 C121 1.504 . S
C775 C82 1.372 . S
C780 C160 1.392 . S
C810 C277 1.408 . S
C805 C42 1.385 . S
C840 C316 1.780 . S
C835 C103 1.734 . S
C865 C23 1.471 . S
C870 C238 1.507 . S
