# Generated by pormake.
# Topology apo, (3,6)-cn, num edge types: 1
# Building blocks:
#     Node 0, Type 0, BuildingBlock: BELTOD_clean_linker_0, # of connection points: 3
#     Node 1, Type 0, BuildingBlock: BELTOD_clean_linker_0, # of connection points: 3
#     Node 2, Type 0, BuildingBlock: BELTOD_clean_linker_0, # of connection points: 3
#     Node 3, Type 0, BuildingBlock: BELTOD_clean_linker_0, # of connection points: 3
#     Node 4, Type 0, BuildingBlock: BELTOD_clean_linker_0, # of connection points: 3
#     Node 5, Type 0, BuildingBlock: BELTOD_clean_linker_0, # of connection points: 3
#     Node 6, Type 0, BuildingBlock: BELTOD_clean_linker_0, # of connection points: 3
#     Node 7, Type 0, BuildingBlock: BELTOD_clean_linker_0, # of connection points: 3
#     Node 8, Type 1, BuildingBlock: KUMJIN_clean_sbu_1, # of connection points: 6
#     Node 9, Type 1, BuildingBlock: KUMJIN_clean_sbu_1, # of connection points: 6
#     Node 10, Type 1, BuildingBlock: KUMJIN_clean_sbu_1, # of connection points: 6
#     Node 11, Type 1, BuildingBlock: KUMJIN_clean_sbu_1, # of connection points: 6
#     Edge 12, Type (0, 1), BuildingBlock: MIFKUJ_clean_linker_0, # of connection points: 2
#     Edge 13, Type (0, 1), BuildingBlock: MIFKUJ_clean_linker_0, # of connection points: 2
#     Edge 14, Type (0, 1), BuildingBlock: MIFKUJ_clean_linker_0, # of connection points: 2
#     Edge 15, Type (0, 1), BuildingBlock: MIFKUJ_clean_linker_0, # of connection points: 2
#     Edge 16, Type (0, 1), BuildingBlock: MIFKUJ_clean_linker_0, # of connection points: 2
#     Edge 17, Type (0, 1), BuildingBlock: MIFKUJ_clean_linker_0, # of connection points: 2
#     Edge 18, Type (0, 1), BuildingBlock: MIFKUJ_clean_linker_0, # of connection points: 2
#     Edge 19, Type (0, 1), BuildingBlock: MIFKUJ_clean_linker_0, # of connection points: 2
#     Edge 20, Type (0, 1), BuildingBlock: MIFKUJ_clean_linker_0, # of connection points: 2
#     Edge 21, Type (0, 1), BuildingBlock: MIFKUJ_clean_linker_0, # of connection points: 2
#     Edge 22, Type (0, 1), BuildingBlock: MIFKUJ_clean_linker_0, # of connection points: 2
#     Edge 23, Type (0, 1), BuildingBlock: MIFKUJ_clean_linker_0, # of connection points: 2
#     Edge 24, Type (0, 1), BuildingBlock: MIFKUJ_clean_linker_0, # of connection points: 2
#     Edge 25, Type (0, 1), BuildingBlock: MIFKUJ_clean_linker_0, # of connection points: 2
#     Edge 26, Type (0, 1), BuildingBlock: MIFKUJ_clean_linker_0, # of connection points: 2
#     Edge 27, Type (0, 1), BuildingBlock: MIFKUJ_clean_linker_0, # of connection points: 2
#     Edge 28, Type (0, 1), BuildingBlock: MIFKUJ_clean_linker_0, # of connection points: 2
#     Edge 29, Type (0, 1), BuildingBlock: MIFKUJ_clean_linker_0, # of connection points: 2
#     Edge 30, Type (0, 1), BuildingBlock: MIFKUJ_clean_linker_0, # of connection points: 2
#     Edge 31, Type (0, 1), BuildingBlock: MIFKUJ_clean_linker_0, # of connection points: 2
#     Edge 32, Type (0, 1), BuildingBlock: MIFKUJ_clean_linker_0, # of connection points: 2
#     Edge 33, Type (0, 1), BuildingBlock: MIFKUJ_clean_linker_0, # of connection points: 2
#     Edge 34, Type (0, 1), BuildingBlock: MIFKUJ_clean_linker_0, # of connection points: 2
#     Edge 35, Type (0, 1), BuildingBlock: MIFKUJ_clean_linker_0, # of connection points: 2
# Relax obj value: 0.010
# Max RMSD: 0.098
# Mean RMSD: 0.073
data_MOF--net-apo--node1-KUMJIN_clean_sbu_1--node2-BELTOD_clean_linker_0--edge1-MIFKUJ_clean_linker_0
_symmetry_space_group_name_H-M    P1
_symmetry_Int_Tables_number       1
_symmetry_cell_setting            triclinic
loop_
_symmetry_equiv_pos_as_xyz
'x, y, z'
_cell_length_a     34.444369
_cell_length_b     61.520269
_cell_length_c     73.713572
_cell_angle_alpha  89.666749
_cell_angle_beta   89.989849
_cell_angle_gamma 90.084312
loop_
_atom_site_label
_atom_site_type_symbol
_atom_site_fract_x
_atom_site_fract_y
_atom_site_fract_z
_atom_type_partial_charge
P0 P 0.34027 0.35906 0.41002 0.0
H1 H 0.31302 0.33163 0.43984 0.0
H2 H 0.31453 0.3368 0.47275 0.0
H3 H 0.34839 0.4038 0.46457 0.0
H4 H 0.34759 0.39842 0.4319 0.0
H5 H 0.35003 0.32004 0.38841 0.0
H6 H 0.30507 0.2967 0.37239 0.0
H7 H 0.20912 0.33601 0.39107 0.0
H8 H 0.25464 0.35841 0.40834 0.0
H9 H 0.40755 0.38273 0.39616 0.0
H10 H 0.28316 0.39064 0.39605 0.0
O11 O 0.38336 0.34668 0.41005 0.0
H12 H 0.41474 0.4165 0.37918 0.0
H13 H 0.29003 0.42424 0.37846 0.0
C14 C 0.32965 0.36468 0.4334 0.0
C15 C 0.31952 0.3476 0.44515 0.0
C16 C 0.32046 0.35058 0.46396 0.0
C17 C 0.332 0.37066 0.47125 0.0
C18 C 0.33993 0.38805 0.45937 0.0
C19 C 0.33903 0.38505 0.44063 0.0
C20 C 0.30575 0.34105 0.39953 0.0
C21 C 0.31929 0.32351 0.38931 0.0
C22 C 0.29341 0.31029 0.37989 0.0
C23 C 0.25329 0.31462 0.38005 0.0
C24 C 0.2397 0.33203 0.39066 0.0
C25 C 0.26574 0.34503 0.40041 0.0
C26 C 0.34475 0.38382 0.39699 0.0
C27 C 0.38167 0.39155 0.39226 0.0
C28 C 0.38575 0.41089 0.38247 0.0
C29 C 0.35294 0.42296 0.37721 0.0
C30 C 0.31592 0.41538 0.38231 0.0
C31 C 0.31191 0.39601 0.3922 0.0
P32 P 0.28462 0.09822 0.91799 0.0
H33 H 0.31253 0.06931 0.88995 0.0
H34 H 0.28002 0.04634 0.86778 0.0
H35 H 0.16866 0.0675 0.88827 0.0
H36 H 0.20169 0.09139 0.90965 0.0
H37 H 0.35759 0.11036 0.90079 0.0
H38 H 0.37818 0.14207 0.8834 0.0
H39 H 0.26527 0.17117 0.89136 0.0
H40 H 0.24446 0.13877 0.90827 0.0
H41 H 0.23112 0.07143 0.93922 0.0
H42 H 0.27995 0.13587 0.94226 0.0
O43 O 0.32411 0.08479 0.92481 0.0
H44 H 0.19959 0.0766 0.96852 0.0
H45 H 0.24801 0.14132 0.97147 0.0
C46 C 0.25952 0.08145 0.90184 0.0
C47 C 0.2811 0.06894 0.88967 0.0
C48 C 0.2624 0.05571 0.87704 0.0
C49 C 0.22159 0.0547 0.87635 0.0
C50 C 0.20008 0.06788 0.88827 0.0
C51 C 0.21892 0.08135 0.90073 0.0
C52 C 0.29986 0.1225 0.90624 0.0
C53 C 0.33738 0.12366 0.89898 0.0
C54 C 0.34918 0.1419 0.88908 0.0
C55 C 0.32361 0.15939 0.88615 0.0
C56 C 0.28572 0.15801 0.89327 0.0
C57 C 0.27386 0.13961 0.9031 0.0
C58 C 0.25666 0.10356 0.93817 0.0
C59 C 0.23408 0.08696 0.94592 0.0
C60 C 0.21611 0.08993 0.96272 0.0
C61 C 0.22099 0.10945 0.9723 0.0
C62 C 0.24369 0.12607 0.96448 0.0
C63 C 0.26158 0.12308 0.94763 0.0
P64 P 0.84387 0.14212 0.59569 0.0
H65 H 0.87885 0.17075 0.56872 0.0
H66 H 0.87969 0.17059 0.53577 0.0
H67 H 0.80008 0.11615 0.53581 0.0
H68 H 0.8006 0.116 0.5691 0.0
H69 H 0.82063 0.14198 0.63346 0.0
H70 H 0.77412 0.16319 0.65071 0.0
H71 H 0.73958 0.19668 0.60158 0.0
H72 H 0.78529 0.1745 0.58422 0.0
H73 H 0.90862 0.11195 0.59695 0.0
H74 H 0.78689 0.11083 0.61051 0.0
O75 O 0.88521 0.15441 0.60152 0.0
H76 H 0.91654 0.07588 0.61034 0.0
H77 H 0.79484 0.07516 0.62479 0.0
C78 C 0.8401 0.14321 0.57134 0.0
C79 C 0.86144 0.15881 0.56168 0.0
C80 C 0.86164 0.1588 0.54275 0.0
C81 C 0.84002 0.14331 0.53304 0.0
C82 C 0.81758 0.12808 0.54283 0.0
C83 C 0.81758 0.12807 0.56185 0.0
C84 C 0.80574 0.15624 0.60749 0.0
C85 C 0.80238 0.1535 0.6263 0.0
C86 C 0.7761 0.16592 0.63621 0.0
C87 C 0.75319 0.18182 0.62759 0.0
C88 C 0.75634 0.18439 0.60864 0.0
C89 C 0.78253 0.17174 0.59868 0.0
C90 C 0.84751 0.11433 0.6033 0.0
C91 C 0.88358 0.10391 0.60284 0.0
C92 C 0.8881 0.08334 0.61064 0.0
C93 C 0.85656 0.0728 0.6191 0.0
C94 C 0.8198 0.08277 0.61846 0.0
C95 C 0.81526 0.10329 0.61045 0.0
P96 P 0.78029 0.40053 0.08466 0.0
H97 H 0.79914 0.44341 0.09915 0.0
H98 H 0.76133 0.47038 0.11565 0.0
H99 H 0.66177 0.42774 0.11476 0.0
H100 H 0.69952 0.40087 0.09759 0.0
H101 H 0.83797 0.36691 0.07941 0.0
H102 H 0.85785 0.33546 0.09736 0.0
H103 H 0.76506 0.34818 0.13537 0.0
H104 H 0.74658 0.38014 0.11775 0.0
H105 H 0.77275 0.42583 0.05164 0.0
H106 H 0.73459 0.36321 0.07129 0.0
O107 O 0.82296 0.41191 0.07952 0.0
H108 H 0.74374 0.4184 0.0221 0.0
H109 H 0.70589 0.35545 0.04157 0.0
C110 C 0.75222 0.42003 0.09725 0.0
C111 C 0.76918 0.43979 0.10241 0.0
C112 C 0.74754 0.45526 0.1118 0.0
C113 C 0.70871 0.4511 0.11645 0.0
C114 C 0.69176 0.43124 0.1114 0.0
C115 C 0.71325 0.41593 0.10164 0.0
C116 C 0.79114 0.37608 0.09731 0.0
C117 C 0.82183 0.36287 0.09159 0.0
C118 C 0.83297 0.34474 0.10182 0.0
C119 C 0.81325 0.33924 0.11794 0.0
C120 C 0.78146 0.35212 0.12325 0.0
C121 C 0.77057 0.37038 0.11305 0.0
C122 C 0.75645 0.39492 0.06349 0.0
C123 C 0.75815 0.41044 0.04955 0.0
C124 C 0.74171 0.40613 0.03265 0.0
C125 C 0.72296 0.38621 0.02939 0.0
C126 C 0.72006 0.37096 0.04365 0.0
C127 C 0.73665 0.37531 0.06061 0.0
P128 P 0.77705 0.60356 0.58474 0.0
H129 H 0.80938 0.61393 0.54937 0.0
H130 H 0.78003 0.6198 0.51961 0.0
H131 H 0.66586 0.61577 0.54365 0.0
H132 H 0.6956 0.60988 0.57358 0.0
H133 H 0.82658 0.60697 0.61619 0.0
H134 H 0.84973 0.6376 0.6341 0.0
H135 H 0.78207 0.68149 0.60083 0.0
H136 H 0.75852 0.65054 0.58307 0.0
H137 H 0.75856 0.55803 0.5796 0.0
H138 H 0.72802 0.60853 0.61729 0.0
O139 O 0.81772 0.5901 0.57984 0.0
H140 H 0.72164 0.53163 0.59755 0.0
H141 H 0.69157 0.58213 0.63555 0.0
C142 C 0.75464 0.61098 0.56356 0.0
C143 C 0.77804 0.61445 0.54829 0.0
C144 C 0.76124 0.61774 0.53129 0.0
C145 C 0.72066 0.61787 0.52928 0.0
C146 C 0.6972 0.6157 0.54481 0.0
C147 C 0.71414 0.61225 0.56187 0.0
C148 C 0.79126 0.62653 0.59822 0.0
C149 C 0.81665 0.62319 0.61279 0.0
C150 C 0.83003 0.64073 0.62294 0.0
C151 C 0.81815 0.66203 0.61875 0.0
C152 C 0.79168 0.66527 0.60443 0.0
C153 C 0.77833 0.64762 0.59422 0.0
C154 C 0.74664 0.58508 0.59733 0.0
C155 C 0.74383 0.56342 0.59175 0.0
C156 C 0.72288 0.54834 0.60207 0.0
C157 C 0.70412 0.55471 0.61812 0.0
C158 C 0.7056 0.57671 0.62324 0.0
C159 C 0.72665 0.5918 0.61288 0.0
P160 P 0.82231 0.86264 0.0936 0.0
H161 H 0.88073 0.87338 0.1208 0.0
H162 H 0.89417 0.90602 0.13813 0.0
H163 H 0.79571 0.93778 0.11305 0.0
H164 H 0.78361 0.90511 0.09505 0.0
H165 H 0.79951 0.81732 0.09 0.0
H166 H 0.75058 0.79493 0.10528 0.0
H167 H 0.70945 0.85142 0.13392 0.0
H168 H 0.75792 0.8738 0.11845 0.0
H169 H 0.85404 0.89727 0.07091 0.0
H170 H 0.77966 0.84146 0.06386 0.0
O171 O 0.86174 0.84699 0.0949 0.0
H172 H 0.85533 0.90299 0.03825 0.0
H173 H 0.78233 0.84648 0.03106 0.0
C174 C 0.83137 0.88689 0.10654 0.0
C175 C 0.86213 0.88738 0.11893 0.0
C176 C 0.86956 0.90607 0.129 0.0
C177 C 0.84593 0.9246 0.1271 0.0
C178 C 0.81486 0.92397 0.1147 0.0
C179 C 0.80772 0.90527 0.10448 0.0
C180 C 0.78257 0.84722 0.10309 0.0
C181 C 0.77945 0.82499 0.09929 0.0
C182 C 0.75142 0.81221 0.10798 0.0
C183 C 0.72632 0.82144 0.12083 0.0
C184 C 0.72863 0.84388 0.12417 0.0
C185 C 0.75636 0.8567 0.11527 0.0
C186 C 0.81613 0.86919 0.06994 0.0
C187 C 0.83727 0.88649 0.06239 0.0
C188 C 0.83848 0.88955 0.04363 0.0
C189 C 0.81933 0.87503 0.03198 0.0
C190 C 0.7971 0.8581 0.03962 0.0
C191 C 0.79563 0.85518 0.05844 0.0
P192 P 0.27006 0.89403 0.41927 0.0
H193 H 0.30087 0.87349 0.45164 0.0
H194 H 0.27293 0.86469 0.48116 0.0
H195 H 0.16042 0.88598 0.4621 0.0
H196 H 0.1891 0.89538 0.43269 0.0
H197 H 0.3284 0.88996 0.3912 0.0
H198 H 0.34989 0.85976 0.37238 0.0
H199 H 0.26259 0.81846 0.39685 0.0
H200 H 0.24092 0.84901 0.41558 0.0
H201 H 0.2678 0.94135 0.41924 0.0
H202 H 0.20788 0.8892 0.39222 0.0
O203 O 0.31116 0.90657 0.42513 0.0
H204 H 0.23213 0.96791 0.40124 0.0
H205 H 0.1707 0.91579 0.37448 0.0
C206 C 0.24722 0.88532 0.44007 0.0
C207 C 0.27012 0.87613 0.45379 0.0
C208 C 0.25398 0.87097 0.47065 0.0
C209 C 0.21436 0.87469 0.47411 0.0
C210 C 0.19116 0.88325 0.46004 0.0
C211 C 0.20746 0.8885 0.44315 0.0
C212 C 0.28363 0.87159 0.40502 0.0
C213 C 0.31389 0.8744 0.39253 0.0
C214 C 0.32626 0.85708 0.38184 0.0
C215 C 0.30834 0.83659 0.38329 0.0
C216 C 0.27699 0.83403 0.3954 0.0
C217 C 0.26471 0.85143 0.40618 0.0
C218 C 0.24102 0.91332 0.4068 0.0
C219 C 0.24668 0.93562 0.40949 0.0
C220 C 0.2259 0.95083 0.39928 0.0
C221 C 0.19852 0.94407 0.3863 0.0
C222 C 0.19203 0.92161 0.38409 0.0
C223 C 0.2131 0.90637 0.39428 0.0
P224 P 0.33201 0.63892 0.90717 0.0
H225 H 0.3588 0.62697 0.87139 0.0
H226 H 0.37085 0.5923 0.85674 0.0
H227 H 0.33805 0.55865 0.90614 0.0
H228 H 0.32397 0.59358 0.92034 0.0
H229 H 0.29363 0.67984 0.91542 0.0
H230 H 0.24531 0.70137 0.89886 0.0
H231 H 0.2303 0.64877 0.86097 0.0
H232 H 0.27795 0.62729 0.87761 0.0
H233 H 0.3932 0.63937 0.93417 0.0
H234 H 0.26857 0.63311 0.93366 0.0
O235 O 0.36962 0.6548 0.90174 0.0
H236 H 0.39326 0.63757 0.96716 0.0
H237 H 0.2683 0.63057 0.96689 0.0
C238 C 0.34086 0.61286 0.89697 0.0
C239 C 0.35421 0.6121 0.87906 0.0
C240 C 0.36139 0.59221 0.87075 0.0
C241 C 0.35599 0.57255 0.8803 0.0
C242 C 0.34225 0.5734 0.89829 0.0
C243 C 0.33449 0.5934 0.90651 0.0
C244 C 0.28962 0.65198 0.89777 0.0
C245 C 0.27913 0.67272 0.90385 0.0
C246 C 0.25154 0.68501 0.89436 0.0
C247 C 0.23438 0.67684 0.87849 0.0
C248 C 0.24347 0.65561 0.873 0.0
C249 C 0.27073 0.64327 0.88259 0.0
C250 C 0.33083 0.63689 0.93154 0.0
C251 C 0.36577 0.63755 0.94121 0.0
C252 C 0.36578 0.63625 0.96011 0.0
C253 C 0.33077 0.63394 0.96977 0.0
C254 C 0.29574 0.6327 0.95993 0.0
C255 C 0.29581 0.63409 0.94095 0.0
Eu256 Eu 0.04862 0.13556 0.23347 0.0
C257 C 0.87812 0.11506 0.25194 0.0
N258 N 0.89567 0.13474 0.24995 0.0
C259 C 0.84284 0.14758 0.23172 0.0
C260 C 0.84219 0.1108 0.24349 0.0
C261 C 0.87846 0.15106 0.24029 0.0
C262 C 0.82469 0.12733 0.23324 0.0
C263 C 0.87904 0.0784 0.26424 0.0
C264 C 0.89671 0.09895 0.26207 0.0
C265 C 0.84313 0.07421 0.25595 0.0
C266 C 0.82489 0.09028 0.24551 0.0
Eu267 Eu 0.95437 0.13943 0.26575 0.0
N268 N 0.9315 0.10346 0.27006 0.0
C269 C 0.89757 0.06279 0.27503 0.0
C270 C 0.94817 0.08877 0.28157 0.0
C271 C 0.93217 0.06804 0.28379 0.0
H272 H 0.89187 0.16688 0.23946 0.0
H273 H 0.94608 0.05628 0.2926 0.0
H274 H 0.10614 0.0948 0.24749 0.0
H275 H 0.07953 0.22234 0.2257 0.0
H276 H 0.97288 0.09308 0.28967 0.0
H277 H 0.88482 0.04688 0.27715 0.0
H278 H 0.03936 0.18924 0.22453 0.0
H279 H 0.82922 0.16057 0.2241 0.0
H280 H 0.82886 0.0587 0.25775 0.0
H281 H 0.79723 0.08672 0.23918 0.0
H282 H 0.17325 0.08981 0.25858 0.0
H283 H 0.79707 0.12468 0.22657 0.0
H284 H 0.14799 0.22 0.23566 0.0
N285 N 0.1121 0.12893 0.24392 0.0
C286 C 0.13606 0.14648 0.24461 0.0
C287 C 0.1631 0.10584 0.25478 0.0
C288 C 0.17475 0.14433 0.25061 0.0
C289 C 0.12501 0.10874 0.2487 0.0
C290 C 0.18808 0.1237 0.25577 0.0
N291 N 0.08371 0.16854 0.23465 0.0
C292 C 0.06874 0.18806 0.22931 0.0
C293 C 0.14579 0.1853 0.24036 0.0
C294 C 0.12168 0.16678 0.23959 0.0
C295 C 0.13027 0.20546 0.23538 0.0
C296 C 0.09163 0.20684 0.22978 0.0
H297 H 0.21759 0.12139 0.26047 0.0
H298 H 0.22859 0.16141 0.25596 0.0
H299 H 0.20326 0.19724 0.24697 0.0
O300 O 0.04423 0.14106 0.20422 0.0
O301 O 0.05689 0.15451 0.25962 0.0
O302 O 0.9965 0.16751 0.26775 0.0
O303 O 0.08737 0.11887 0.2147 0.0
O304 O 0.99611 0.15451 0.2232 0.0
O305 O 0.96475 0.16894 0.24809 0.0
O306 O 0.94148 0.13874 0.29525 0.0
O307 O 0.95032 0.1236 0.2378 0.0
O308 O 0.00874 0.1065 0.23516 0.0
O309 O 0.90944 0.1601 0.27682 0.0
O310 O 0.00923 0.12389 0.27749 0.0
O311 O 0.03772 0.10747 0.25275 0.0
C312 C 0.03449 0.1674 0.26919 0.0
C313 C 0.06224 0.11175 0.1856 0.0
C314 C 0.06777 0.10129 0.15376 0.0
C315 C 0.04546 0.0826 0.1576 0.0
C316 C 0.04022 0.09304 0.1891 0.0
C317 C 0.03173 0.07859 0.17513 0.0
C318 C 0.07587 0.11588 0.16796 0.0
C319 C 0.9734 0.16912 0.23073 0.0
C320 C 0.07125 0.12706 0.20024 0.0
C321 C 0.1988 0.16276 0.25137 0.0
C322 C 0.18439 0.18317 0.24624 0.0
C323 C 0.9712 0.10707 0.23236 0.0
C324 C 0.89027 0.16188 0.30832 0.0
C325 C 0.8741 0.16495 0.34048 0.0
C326 C 0.84533 0.18026 0.33603 0.0
C327 C 0.86118 0.17719 0.30428 0.0
C328 C 0.89636 0.15555 0.32652 0.0
C329 C 0.83887 0.18624 0.31805 0.0
C330 C 0.03266 0.10927 0.27038 0.0
C331 C 0.91425 0.15327 0.29336 0.0
H332 H 0.03916 0.07083 0.14713 0.0
H333 H 0.0299 0.08959 0.20264 0.0
H334 H 0.01476 0.06413 0.17794 0.0
H335 H 0.0925 0.13053 0.16532 0.0
H336 H 0.82756 0.1875 0.34651 0.0
H337 H 0.85568 0.18233 0.29044 0.0
H338 H 0.91872 0.14382 0.32987 0.0
H339 H 0.81659 0.19801 0.31478 0.0
Eu340 Eu 0.45913 0.3643 0.73804 0.0
C341 C 0.62325 0.39296 0.75679 0.0
N342 N 0.6106 0.37204 0.75606 0.0
C343 C 0.6666 0.36188 0.73884 0.0
C344 C 0.65817 0.39918 0.74822 0.0
C345 C 0.63187 0.35643 0.74757 0.0
C346 C 0.67976 0.38336 0.7391 0.0
C347 C 0.61365 0.42998 0.76702 0.0
C348 C 0.60076 0.40825 0.76587 0.0
C349 C 0.64842 0.4362 0.75846 0.0
C350 C 0.67044 0.4209 0.74898 0.0
Eu351 Eu 0.55251 0.3643 0.77158 0.0
N352 N 0.5672 0.40177 0.77411 0.0
C353 C 0.5919 0.44466 0.77727 0.0
C354 C 0.54807 0.41557 0.78542 0.0
C355 C 0.55932 0.43733 0.78674 0.0
H356 H 0.62207 0.3398 0.74759 0.0
H357 H 0.54352 0.44826 0.7955 0.0
H358 H 0.40594 0.40846 0.74793 0.0
H359 H 0.41626 0.27906 0.73358 0.0
H360 H 0.52533 0.40972 0.79417 0.0
H361 H 0.60093 0.46143 0.77863 0.0
H362 H 0.46064 0.31052 0.73066 0.0
H363 H 0.68327 0.3495 0.73198 0.0
H364 H 0.65906 0.4527 0.75938 0.0
H365 H 0.6972 0.42599 0.74249 0.0
H366 H 0.33992 0.41689 0.75893 0.0
H367 H 0.70669 0.38753 0.73233 0.0
H368 H 0.34914 0.28446 0.74463 0.0
N369 N 0.39641 0.37431 0.74762 0.0
C370 C 0.37051 0.3578 0.74976 0.0
C371 C 0.34822 0.4002 0.75651 0.0
C372 C 0.33231 0.36191 0.7557 0.0
C373 C 0.38569 0.39536 0.75047 0.0
C374 C 0.32148 0.3834 0.75924 0.0
N375 N 0.41929 0.33322 0.74041 0.0
C376 C 0.43144 0.31298 0.73551 0.0
C377 C 0.35574 0.31927 0.74761 0.0
C378 C 0.38203 0.33672 0.74576 0.0
C379 C 0.36844 0.2983 0.74333 0.0
C380 C 0.40636 0.29518 0.73713 0.0
H381 H 0.29242 0.38722 0.76385 0.0
H382 H 0.27672 0.34737 0.76238 0.0
H383 H 0.29724 0.31006 0.75533 0.0
O384 O 0.47265 0.35991 0.70934 0.0
O385 O 0.45289 0.34246 0.76278 0.0
O386 O 0.51254 0.33576 0.77671 0.0
O387 O 0.4198 0.37633 0.7171 0.0
O388 O 0.50938 0.34215 0.73053 0.0
O389 O 0.54963 0.33353 0.75506 0.0
O390 O 0.56736 0.37016 0.79998 0.0
O391 O 0.55561 0.37646 0.74221 0.0
O392 O 0.49786 0.39382 0.73929 0.0
O393 O 0.59858 0.34583 0.785 0.0
O394 O 0.49418 0.37653 0.78222 0.0
O395 O 0.46985 0.39253 0.7566 0.0
C396 C 0.47534 0.33183 0.77421 0.0
C397 C 0.44826 0.38668 0.68941 0.0
C398 C 0.44206 0.39749 0.65767 0.0
C399 C 0.45944 0.41758 0.66185 0.0
C400 C 0.46495 0.40687 0.69338 0.0
C401 C 0.47081 0.42218 0.67961 0.0
C402 C 0.43683 0.38203 0.67161 0.0
C403 C 0.5362 0.33013 0.73854 0.0
C404 C 0.44202 0.37044 0.70374 0.0
C405 C 0.30614 0.34453 0.75777 0.0
C406 C 0.31781 0.32328 0.75373 0.0
C407 C 0.53505 0.39272 0.73585 0.0
C408 C 0.58888 0.3397 0.81649 0.0
C409 C 0.59312 0.33351 0.84922 0.0
C410 C 0.57886 0.3123 0.84669 0.0
C411 C 0.57514 0.3184 0.81428 0.0
C412 C 0.59795 0.34717 0.83397 0.0
C413 C 0.56991 0.30485 0.82933 0.0
C414 C 0.47006 0.39011 0.77424 0.0
C415 C 0.59267 0.35454 0.80081 0.0
H416 H 0.46355 0.42991 0.65148 0.0
H417 H 0.47303 0.41077 0.70713 0.0
H418 H 0.4838 0.43775 0.68274 0.0
H419 H 0.42405 0.36634 0.66863 0.0
H420 H 0.57536 0.3013 0.85809 0.0
H421 H 0.56855 0.31226 0.80093 0.0
H422 H 0.60829 0.36368 0.8357 0.0
H423 H 0.55914 0.28847 0.82753 0.0
Eu424 Eu 0.04642 0.86747 0.73428 0.0
C425 C 0.8673 0.84923 0.75009 0.0
N426 N 0.88784 0.86779 0.75296 0.0
C427 C 0.83487 0.88924 0.74184 0.0
C428 C 0.82972 0.85003 0.74252 0.0
C429 C 0.87206 0.88766 0.74929 0.0
C430 C 0.8137 0.87035 0.7383 0.0
C431 C 0.86338 0.80981 0.75168 0.0
C432 C 0.88393 0.8293 0.75467 0.0
C433 C 0.82609 0.81057 0.74401 0.0
C434 C 0.80932 0.83061 0.73945 0.0
Eu435 Eu 0.95042 0.86326 0.76528 0.0
N436 N 0.92068 0.82896 0.76151 0.0
C437 C 0.88102 0.79009 0.75642 0.0
C438 C 0.93742 0.80986 0.76675 0.0
C439 C 0.91803 0.79016 0.76415 0.0
H440 H 0.88783 0.90232 0.7525 0.0
H441 H 0.93162 0.77507 0.76822 0.0
H442 H 0.1184 0.84357 0.75718 0.0
H443 H 0.02988 0.95298 0.71406 0.0
H444 H 0.96561 0.80965 0.773 0.0
H445 H 0.86618 0.77477 0.75435 0.0
H446 H 0.01783 0.91371 0.71235 0.0
H447 H 0.82247 0.90502 0.739 0.0
H448 H 0.80996 0.79574 0.74155 0.0
H449 H 0.78047 0.83091 0.73359 0.0
H450 H 0.17783 0.85411 0.77378 0.0
H451 H 0.78488 0.87165 0.73251 0.0
H452 H 0.0824 0.96692 0.73372 0.0
N453 N 0.10356 0.87604 0.75028 0.0
C454 C 0.11345 0.89742 0.75103 0.0
C455 C 0.15982 0.86644 0.76759 0.0
C456 C 0.14675 0.90418 0.76061 0.0
C457 C 0.12622 0.86052 0.7582 0.0
C458 C 0.17 0.88836 0.76893 0.0
N459 N 0.05782 0.90556 0.73326 0.0
C460 C 0.03835 0.9196 0.72214 0.0
C461 C 0.099 0.93492 0.7433 0.0
C462 C 0.08953 0.91261 0.7426 0.0
C463 C 0.0761 0.94966 0.73355 0.0
C464 C 0.04623 0.94189 0.72256 0.0
H465 H 0.19585 0.89289 0.77639 0.0
H466 H 0.18065 0.93194 0.76929 0.0
H467 H 0.13898 0.95885 0.75407 0.0
O468 O 0.0569 0.87227 0.70522 0.0
O469 O 0.04677 0.87807 0.76389 0.0
O470 O 0.98727 0.89363 0.7669 0.0
O471 O 0.09696 0.85319 0.72106 0.0
O472 O 0.98842 0.87964 0.72328 0.0
O473 O 0.95847 0.89364 0.74845 0.0
O474 O 0.95537 0.85882 0.79469 0.0
O475 O 0.9488 0.846 0.73809 0.0
O476 O 0.01162 0.83655 0.7304 0.0
O477 O 0.9039 0.87346 0.7833 0.0
O478 O 0.00308 0.84376 0.77471 0.0
O479 O 0.04453 0.83616 0.75051 0.0
C480 C 0.02418 0.89284 0.77107 0.0
C481 C 0.08739 0.84297 0.69056 0.0
C482 C 0.09795 0.83302 0.6589 0.0
C483 C 0.08825 0.81139 0.66328 0.0
C484 C 0.07793 0.82129 0.69461 0.0
C485 C 0.0782 0.80563 0.68101 0.0
C486 C 0.09713 0.84882 0.67265 0.0
C487 C 0.96295 0.89277 0.73079 0.0
C488 C 0.08705 0.85958 0.70487 0.0
C489 C 0.15545 0.92643 0.76181 0.0
C490 C 0.13159 0.94176 0.75322 0.0
C491 C 0.97382 0.83395 0.72922 0.0
C492 C 0.9231 0.88541 0.81197 0.0
C493 C 0.9101 0.89686 0.8429 0.0
C494 C 0.92084 0.91815 0.83811 0.0
C495 C 0.93448 0.90669 0.80748 0.0
C496 C 0.91091 0.88051 0.82969 0.0
C497 C 0.93334 0.92298 0.82054 0.0
C498 C 0.03163 0.83266 0.76716 0.0
C499 C 0.92251 0.86849 0.79806 0.0
H500 H 0.08809 0.79895 0.65294 0.0
H501 H 0.0705 0.81645 0.70832 0.0
H502 H 0.07069 0.78896 0.68423 0.0
H503 H 0.1047 0.86554 0.66952 0.0
H504 H 0.91894 0.93109 0.84793 0.0
H505 H 0.9435 0.91074 0.79382 0.0
H506 H 0.90231 0.86405 0.83322 0.0
H507 H 0.94176 0.93943 0.81699 0.0
Eu508 Eu 0.44175 0.63842 0.23321 0.0
C509 C 0.62138 0.64479 0.25734 0.0
N510 N 0.59674 0.6276 0.25581 0.0
C511 C 0.64804 0.60596 0.24338 0.0
C512 C 0.6603 0.64332 0.25151 0.0
C513 C 0.6099 0.60811 0.24956 0.0
C514 C 0.67328 0.62371 0.24417 0.0
C515 C 0.63368 0.68116 0.26863 0.0
C516 C 0.60846 0.66339 0.26597 0.0
C517 C 0.67206 0.68003 0.2623 0.0
C518 C 0.68537 0.66114 0.2538 0.0
Eu519 Eu 0.53384 0.63224 0.26815 0.0
N520 N 0.57126 0.66398 0.27205 0.0
C521 C 0.61962 0.69945 0.27774 0.0
C522 C 0.55785 0.68136 0.28161 0.0
C523 C 0.58156 0.69951 0.28431 0.0
H524 H 0.59149 0.59394 0.24994 0.0
H525 H 0.57061 0.71343 0.2916 0.0
H526 H 0.37456 0.66095 0.25959 0.0
H527 H 0.44212 0.5594 0.19914 0.0
H528 H 0.52879 0.68122 0.28705 0.0
H529 H 0.63803 0.71348 0.27996 0.0
H530 H 0.4652 0.59624 0.20546 0.0
H531 H 0.65818 0.59046 0.23839 0.0
H532 H 0.69185 0.69354 0.26416 0.0
H533 H 0.7153 0.66032 0.24933 0.0
H534 H 0.31095 0.65116 0.27316 0.0
H535 H 0.70302 0.6219 0.23964 0.0
H536 H 0.3818 0.5459 0.21347 0.0
N537 N 0.38224 0.63017 0.24726 0.0
C538 C 0.36692 0.61029 0.24365 0.0
C539 C 0.32646 0.63951 0.26495 0.0
C540 C 0.33062 0.60414 0.25089 0.0
C541 C 0.36241 0.64498 0.25735 0.0
C542 C 0.31055 0.61898 0.26175 0.0
N543 N 0.42232 0.60266 0.22555 0.0
C544 C 0.44076 0.59012 0.21299 0.0
C545 C 0.37222 0.57543 0.22865 0.0
C546 C 0.38777 0.59606 0.23274 0.0
C547 C 0.39278 0.56186 0.21693 0.0
C548 C 0.42694 0.56936 0.20889 0.0
H549 H 0.28261 0.61481 0.26759 0.0
H550 H 0.28715 0.57877 0.25204 0.0
H551 H 0.32357 0.5536 0.23259 0.0
O552 O 0.41796 0.63844 0.20557 0.0
O553 O 0.43381 0.62252 0.26099 0.0
O554 O 0.49142 0.605 0.26273 0.0
O555 O 0.40788 0.66619 0.22336 0.0
O556 O 0.49772 0.62425 0.22179 0.0
O557 O 0.52462 0.60679 0.24646 0.0
O558 O 0.53117 0.63332 0.298 0.0
O559 O 0.5361 0.66184 0.24915 0.0
O560 O 0.49773 0.65406 0.22411 0.0
O561 O 0.56623 0.60924 0.28475 0.0
O562 O 0.47971 0.64962 0.27803 0.0
O563 O 0.45208 0.66626 0.25279 0.0
C564 C 0.45464 0.6062 0.26688 0.0
C565 C 0.38077 0.66862 0.19277 0.0
C566 C 0.35836 0.67073 0.16122 0.0
C567 C 0.34312 0.69148 0.16483 0.0
C568 C 0.36473 0.6892 0.19596 0.0
C569 C 0.34616 0.70053 0.18205 0.0
C570 C 0.37747 0.65938 0.17533 0.0
C571 C 0.52207 0.61008 0.22888 0.0
C572 C 0.40285 0.65766 0.20739 0.0
C573 C 0.31532 0.58359 0.24689 0.0
C574 C 0.33608 0.56926 0.23584 0.0
C575 C 0.52509 0.6653 0.23224 0.0
C576 C 0.59049 0.62293 0.3122 0.0
C577 C 0.61879 0.62426 0.34249 0.0
C578 C 0.65514 0.62903 0.3348 0.0
C579 C 0.62733 0.62749 0.30484 0.0
C580 C 0.58626 0.6215 0.33116 0.0
C581 C 0.65928 0.63072 0.31608 0.0
C582 C 0.45962 0.66545 0.27035 0.0
C583 C 0.55737 0.61825 0.30008 0.0
H584 H 0.32925 0.70093 0.15423 0.0
H585 H 0.36707 0.69676 0.20915 0.0
H586 H 0.33438 0.71653 0.18458 0.0
H587 H 0.3897 0.64348 0.17273 0.0
H588 H 0.68043 0.6313 0.34334 0.0
H589 H 0.63177 0.62808 0.29038 0.0
H590 H 0.55823 0.61758 0.33703 0.0
H591 H 0.68746 0.63419 0.31023 0.0
H592 H 0.17939 0.94115 0.35022 0.0
H593 H 0.149 0.96876 0.33106 0.0
H594 H 0.14266 0.01216 0.37671 0.0
H595 H 0.171 0.98419 0.39621 0.0
H596 H 0.07902 0.01556 0.35761 0.0
H597 H 0.215 0.01656 0.34371 0.0
H598 H 0.27805 0.00104 0.33468 0.0
H599 H 0.22969 0.98162 0.28359 0.0
H600 H 0.16618 0.99676 0.29241 0.0
H601 H 0.04854 0.11262 0.30657 0.0
H602 H 0.07567 0.08466 0.32663 0.0
H603 H 0.08177 0.04024 0.28162 0.0
H604 H 0.05564 0.06827 0.26148 0.0
H605 H 0.14557 0.0377 0.30073 0.0
H606 H 0.00833 0.03742 0.31554 0.0
H607 H 0.9465 0.05387 0.32541 0.0
H608 H 0.99934 0.07375 0.37534 0.0
H609 H 0.06144 0.05744 0.36584 0.0
C610 C 0.17089 0.95639 0.35631 0.0
C611 C 0.17799 0.96043 0.37479 0.0
C612 C 0.15395 0.97231 0.34525 0.0
C613 C 0.14425 0.99275 0.35233 0.0
C614 C 0.15014 0.9966 0.37088 0.0
C615 C 0.16675 0.98063 0.38198 0.0
C616 C 0.12862 0.01026 0.34039 0.0
C617 C 0.09381 0.02055 0.34527 0.0
C618 C 0.14757 0.01666 0.32415 0.0
C619 C 0.18575 0.00761 0.31879 0.0
C620 C 0.21774 0.00884 0.3306 0.0
C621 C 0.25357 1.00013 0.32552 0.0
C622 C 0.25784 0.9903 0.30859 0.0
C623 C 0.22632 0.98921 0.2967 0.0
C624 C 0.19041 0.99786 0.30173 0.0
C625 C 0.05577 0.09689 0.30098 0.0
C626 C 0.05011 0.09266 0.28246 0.0
C627 C 0.07104 0.08088 0.31247 0.0
C628 C 0.08022 0.06018 0.30572 0.0
C629 C 0.07493 0.05605 0.28717 0.0
C630 C 0.06007 0.07212 0.27565 0.0
C631 C 0.09578 0.04286 0.31786 0.0
C632 C 0.13068 0.03265 0.31303 0.0
C633 C 0.07706 0.03668 0.33421 0.0
C634 C 0.03961 0.04635 0.33992 0.0
C635 C 0.00681 0.04539 0.32859 0.0
C636 C 0.97174 0.05468 0.33411 0.0
C637 C 0.96909 0.06494 0.35092 0.0
C638 C 0.00145 0.06583 0.36231 0.0
C639 C 0.03655 0.05651 0.35689 0.0
H640 H 0.94192 0.07215 0.35514 0.0
H641 H 0.2856 0.98357 0.30468 0.0
H642 H 0.41461 0.56354 0.85633 0.0
H643 H 0.42604 0.52986 0.83993 0.0
H644 H 0.33085 0.49934 0.86821 0.0
H645 H 0.31754 0.53342 0.88409 0.0
H646 H 0.41403 0.47559 0.86375 0.0
H647 H 0.30429 0.50915 0.83226 0.0
H648 H 0.27181 0.54055 0.81791 0.0
H649 H 0.3665 0.54743 0.7804 0.0
H650 H 0.3998 0.51627 0.79473 0.0
H651 H 0.4313 0.3841 0.80614 0.0
H652 H 0.40247 0.41227 0.82531 0.0
H653 H 0.44005 0.46142 0.787 0.0
H654 H 0.46542 0.4332 0.76725 0.0
H655 H 0.37713 0.47382 0.7987 0.0
H656 H 0.49074 0.44561 0.82911 0.0
H657 H 0.53095 0.4166 0.84265 0.0
H658 H 0.44083 0.40247 0.88124 0.0
H659 H 0.39988 0.43123 0.86776 0.0
C660 C 0.39569 0.54982 0.85899 0.0
C661 C 0.36474 0.5514 0.8714 0.0
C662 C 0.40262 0.5305 0.84973 0.0
C663 C 0.37924 0.51224 0.85289 0.0
C664 C 0.34928 0.51332 0.86571 0.0
C665 C 0.34186 0.5328 0.8748 0.0
C666 C 0.38523 0.49247 0.84197 0.0
C667 C 0.40538 0.4749 0.84961 0.0
C668 C 0.37496 0.49203 0.82344 0.0
C669 C 0.35463 0.5105 0.81465 0.0
C670 C 0.3183 0.51747 0.82105 0.0
C671 C 0.29973 0.5352 0.8129 0.0
C672 C 0.31712 0.54601 0.79828 0.0
C673 C 0.35307 0.53906 0.79173 0.0
C674 C 0.37178 0.52135 0.79985 0.0
C675 C 0.43274 0.40094 0.80181 0.0
C676 C 0.45056 0.4066 0.78534 0.0
C677 C 0.41664 0.41705 0.8128 0.0
C678 C 0.41989 0.43914 0.8079 0.0
C679 C 0.43696 0.44459 0.79116 0.0
C680 C 0.45157 0.42846 0.77987 0.0
C681 C 0.40688 0.45676 0.82026 0.0
C682 C 0.38541 0.4741 0.8129 0.0
C683 C 0.41711 0.45726 0.83891 0.0
C684 C 0.44214 0.44042 0.84734 0.0
C685 C 0.47949 0.43628 0.84046 0.0
C686 C 0.50239 0.41988 0.84811 0.0
C687 C 0.48842 0.40767 0.86277 0.0
C688 C 0.45159 0.41192 0.86987 0.0
C689 C 0.42853 0.42827 0.86224 0.0
H690 H 0.50615 0.39494 0.86865 0.0
H691 H 0.3027 0.55974 0.79199 0.0
H692 H 0.7301 0.51416 0.62713 0.0
H693 H 0.69917 0.48734 0.6469 0.0
H694 H 0.6033 0.53111 0.65563 0.0
H695 H 0.63431 0.55816 0.63585 0.0
H696 H 0.62514 0.51402 0.68658 0.0
H697 H 0.59363 0.4858 0.62874 0.0
H698 H 0.60475 0.47336 0.59744 0.0
H699 H 0.6796 0.42271 0.61716 0.0
H700 H 0.66939 0.43506 0.64858 0.0
H701 H 0.50852 0.43394 0.73064 0.0
H702 H 0.53564 0.46206 0.71099 0.0
H703 H 0.63198 0.42005 0.69814 0.0
H704 H 0.60304 0.39116 0.71668 0.0
H705 H 0.60621 0.43715 0.6687 0.0
H706 H 0.64336 0.47172 0.72693 0.0
H707 H 0.63077 0.48715 0.75731 0.0
H708 H 0.53811 0.52576 0.73553 0.0
H709 H 0.55117 0.51135 0.70495 0.0
C710 C 0.70216 0.51798 0.63304 0.0
C711 C 0.68455 0.53826 0.62982 0.0
C712 C 0.68449 0.50261 0.64435 0.0
C713 C 0.64862 0.50706 0.65257 0.0
C714 C 0.63096 0.5273 0.64942 0.0
C715 C 0.64874 0.54276 0.63816 0.0
C716 C 0.63039 0.49084 0.66495 0.0
C717 C 0.62058 0.49726 0.68257 0.0
C718 C 0.62467 0.46893 0.65985 0.0
C719 C 0.63105 0.46149 0.64099 0.0
C720 C 0.61275 0.47213 0.62639 0.0
C721 C 0.61883 0.46507 0.60863 0.0
C722 C 0.64295 0.44729 0.60531 0.0
C723 C 0.66097 0.4365 0.61975 0.0
C724 C 0.65502 0.44351 0.63754 0.0
C725 C 0.53552 0.43069 0.72362 0.0
C726 C 0.55359 0.4103 0.72514 0.0
C727 C 0.55138 0.44696 0.7126 0.0
C728 C 0.58636 0.44345 0.70329 0.0
C729 C 0.60502 0.42324 0.7052 0.0
C730 C 0.58865 0.40677 0.71592 0.0
C731 C 0.60203 0.46016 0.69054 0.0
C732 C 0.61104 0.45386 0.67275 0.0
C733 C 0.60647 0.48227 0.69538 0.0
C734 C 0.5979 0.49028 0.71379 0.0
C735 C 0.62014 0.48337 0.72869 0.0
C736 C 0.61302 0.49197 0.7459 0.0
C737 C 0.58331 0.5071 0.74839 0.0
C738 C 0.56098 0.51395 0.73362 0.0
C739 C 0.56844 0.50574 0.71633 0.0
H740 H 0.5778 0.51363 0.76174 0.0
H741 H 0.6476 0.44184 0.59155 0.0
H742 H 0.83925 0.96756 0.11687 0.0
H743 H 0.85402 0.99972 0.13494 0.0
H744 H 0.88735 0.95854 0.17988 0.0
H745 H 0.87029 0.92651 0.16241 0.0
H746 H 0.84902 0.9905 0.19237 0.0
H747 H 0.95419 0.98369 0.14986 0.0
H748 H 0.985 0.98149 0.11972 0.0
H749 H 0.94021 0.04454 0.10586 0.0
H750 H 0.90863 0.04696 0.13582 0.0
H751 H 0.00013 0.06624 0.22877 0.0
H752 H 0.97306 0.03625 0.21129 0.0
H753 H 0.87291 0.07513 0.19807 0.0
H754 H 0.90104 0.1059 0.21465 0.0
H755 H 0.94095 0.04637 0.1694 0.0
H756 H 0.80621 0.02384 0.21052 0.0
H757 H 0.78261 0.01976 0.24199 0.0
H758 H 0.89946 0.00968 0.26051 0.0
H759 H 0.92352 0.01338 0.22917 0.0
C760 C 0.84912 0.96534 0.1307 0.0
C761 C 0.85388 0.94436 0.1381 0.0
C762 C 0.85803 0.98377 0.14094 0.0
C763 C 0.87244 0.98159 0.15869 0.0
C764 C 0.87643 0.9607 0.1662 0.0
C765 C 0.8671 0.94233 0.15608 0.0
C766 C 0.88369 0.00089 0.16955 0.0
C767 C 0.86893 0.00276 0.18722 0.0
C768 C 0.90995 0.01689 0.16301 0.0
C769 C 0.92861 0.01536 0.14496 0.0
C770 C 0.9506 0.99698 0.14031 0.0
C771 C 0.96825 0.99572 0.12327 0.0
C772 C 0.96444 0.01283 0.11086 0.0
C773 C 0.94304 0.03127 0.11547 0.0
C774 C 0.92525 0.03259 0.13247 0.0
C775 C 0.9723 0.06847 0.22217 0.0
C776 C 0.95273 0.08848 0.22306 0.0
C777 C 0.95679 0.05125 0.21231 0.0
C778 C 0.92087 0.05345 0.20363 0.0
C779 C 0.90052 0.07312 0.2049 0.0
C780 C 0.91648 0.09059 0.21446 0.0
C781 C 0.90641 0.03568 0.19207 0.0
C782 C 0.92045 0.03426 0.17428 0.0
C783 C 0.8805 0.01972 0.19864 0.0
C784 C 0.8667 0.01942 0.21761 0.0
C785 C 0.82683 0.021 0.22136 0.0
C786 C 0.81335 0.01855 0.23914 0.0
C787 C 0.83952 0.01443 0.25324 0.0
C788 C 0.87923 0.01294 0.2496 0.0
C789 C 0.89283 0.01535 0.23184 0.0
H790 H 0.82904 0.01251 0.267 0.0
H791 H 0.97816 0.01183 0.09768 0.0
H792 H 0.91865 0.06179 0.6403 0.0
H793 H 0.92906 0.0283 0.65735 0.0
H794 H 0.81836 0.00385 0.63927 0.0
H795 H 0.80798 0.03726 0.62164 0.0
H796 H 0.83022 0.99706 0.67603 0.0
H797 H 0.89657 0.98364 0.62071 0.0
H798 H 0.94099 0.99135 0.59524 0.0
H799 H 0.03736 0.99401 0.63211 0.0
H800 H 0.9934 0.98665 0.65785 0.0
H801 H 0.94675 0.88858 0.69488 0.0
H802 H 0.91925 0.91599 0.67449 0.0
H803 H 0.90648 0.95995 0.71952 0.0
H804 H 0.93345 0.93244 0.73999 0.0
H805 H 0.94924 0.95335 0.66609 0.0
H806 H 0.83539 0.99546 0.712 0.0
H807 H 0.78751 0.98555 0.73555 0.0
H808 H 0.77952 0.92107 0.71386 0.0
H809 H 0.82741 0.93057 0.69024 0.0
C810 C 0.89671 0.04919 0.63963 0.0
C811 C 0.86265 0.05217 0.62937 0.0
C812 C 0.90263 0.0301 0.64952 0.0
C813 C 0.87465 0.01353 0.64944 0.0
C814 C 0.8403 0.01648 0.6395 0.0
C815 C 0.83441 0.03559 0.62947 0.0
C816 C 0.8817 0.99319 0.65979 0.0
C817 C 0.85612 0.98741 0.67382 0.0
C818 C 0.91501 0.98034 0.65664 0.0
C819 C 0.94162 0.98477 0.64122 0.0
C820 C 0.92718 0.98605 0.6234 0.0
C821 C 0.95229 0.99033 0.60891 0.0
C822 C 0.99196 0.99321 0.61206 0.0
C823 C 0.00661 0.99179 0.6297 0.0
C824 C 0.98162 0.98755 0.64424 0.0
C825 C 0.93748 0.90397 0.70046 0.0
C826 C 0.94216 0.90838 0.71901 0.0
C827 C 0.92182 0.91962 0.68881 0.0
C828 C 0.91058 0.94 0.69546 0.0
C829 C 0.91422 0.94421 0.7141 0.0
C830 C 0.92969 0.92849 0.7258 0.0
C831 C 0.8983 0.95745 0.68271 0.0
C832 C 0.92307 0.96279 0.66823 0.0
C833 C 0.86384 0.96956 0.68524 0.0
C834 C 0.83516 0.9637 0.69944 0.0
C835 C 0.82337 0.97918 0.71225 0.0
C836 C 0.79632 0.97361 0.72565 0.0
C837 C 0.78062 0.95266 0.72625 0.0
C838 C 0.79189 0.93725 0.71345 0.0
C839 C 0.81911 0.94268 0.70011 0.0
H840 H 0.75965 0.94839 0.73662 0.0
H841 H 0.01135 0.99651 0.60082 0.0
H842 H 0.66908 0.44534 0.14812 0.0
H843 H 0.63576 0.473 0.16603 0.0
H844 H 0.66363 0.52135 0.12534 0.0
H845 H 0.69869 0.49386 0.10795 0.0
H846 H 0.6754 0.53832 0.15573 0.0
H847 H 0.56824 0.49859 0.13201 0.0
H848 H 0.52847 0.46638 0.12494 0.0
H849 H 0.5152 0.45274 0.1818 0.0
H850 H 0.55535 0.48472 0.18921 0.0
H851 H 0.5454 0.61702 0.19393 0.0
H852 H 0.57567 0.59072 0.1734 0.0
H853 H 0.5714 0.54188 0.2156 0.0
H854 H 0.54089 0.56793 0.23602 0.0
H855 H 0.54526 0.52661 0.18291 0.0
H856 H 0.65822 0.56654 0.20515 0.0
H857 H 0.6976 0.59947 0.21041 0.0
H858 H 0.69472 0.61456 0.15353 0.0
H859 H 0.65582 0.58156 0.14786 0.0
C860 C 0.66772 0.46185 0.14298 0.0
C861 C 0.68628 0.4675 0.12667 0.0
C862 C 0.64851 0.47766 0.15316 0.0
C863 C 0.64648 0.4993 0.14694 0.0
C864 C 0.66472 0.50484 0.13049 0.0
C865 C 0.68464 0.48913 0.12052 0.0
C866 C 0.62674 0.51632 0.1579 0.0
C867 C 0.64664 0.53582 0.16138 0.0
C868 C 0.58936 0.51316 0.16553 0.0
C869 C 0.56511 0.49394 0.16115 0.0
C870 C 0.55707 0.48864 0.143 0.0
C871 C 0.53443 0.47043 0.13894 0.0
C872 C 0.5194 0.45749 0.15291 0.0
C873 C 0.5269 0.46276 0.17099 0.0
C874 C 0.54957 0.48094 0.17513 0.0
C875 C 0.55108 0.60067 0.19879 0.0
C876 C 0.54124 0.59455 0.2166 0.0
C877 C 0.56848 0.58572 0.18711 0.0
C878 C 0.57611 0.56441 0.19304 0.0
C879 C 0.56591 0.55826 0.21077 0.0
C880 C 0.54875 0.5732 0.22246 0.0
C881 C 0.59415 0.54829 0.18077 0.0
C882 C 0.57389 0.52902 0.17708 0.0
C883 C 0.6308 0.55183 0.17265 0.0
C884 C 0.65384 0.57173 0.17611 0.0
C885 C 0.66577 0.57697 0.19379 0.0
C886 C 0.68803 0.59561 0.19685 0.0
C887 C 0.69831 0.6092 0.18236 0.0
C888 C 0.68664 0.60406 0.16475 0.0
C889 C 0.66465 0.58535 0.16159 0.0
H890 H 0.71549 0.62364 0.18478 0.0
H891 H 0.50188 0.4434 0.14974 0.0
H892 H 0.4034 0.43039 0.34928 0.0
H893 H 0.41394 0.46409 0.33246 0.0
H894 H 0.3233 0.49519 0.36315 0.0
H895 H 0.31298 0.46146 0.38043 0.0
H896 H 0.31992 0.50458 0.32596 0.0
H897 H 0.41282 0.50728 0.37357 0.0
H898 H 0.46466 0.49343 0.39356 0.0
H899 H 0.53994 0.48578 0.34761 0.0
H900 H 0.48832 0.49926 0.32729 0.0
H901 H 0.38714 0.60688 0.2868 0.0
H902 H 0.36178 0.57784 0.30651 0.0
H903 H 0.45562 0.53606 0.28978 0.0
H904 H 0.48143 0.56502 0.27065 0.0
H905 H 0.45224 0.53645 0.32471 0.0
H906 H 0.35255 0.52324 0.27746 0.0
H907 H 0.29737 0.5324 0.25747 0.0
H908 H 0.23634 0.56008 0.30254 0.0
H909 H 0.29054 0.55024 0.32293 0.0
C910 C 0.3859 0.44442 0.35262 0.0
C911 C 0.35768 0.44328 0.36638 0.0
C912 C 0.39187 0.46366 0.34293 0.0
C913 C 0.3698 0.48222 0.34676 0.0
C914 C 0.34071 0.48104 0.36005 0.0
C915 C 0.33479 0.46174 0.36985 0.0
C916 C 0.37781 0.50277 0.33684 0.0
C917 C 0.34866 0.51184 0.32592 0.0
C918 C 0.41532 0.51213 0.33673 0.0
C919 C 0.44659 0.50415 0.3489 0.0
C920 C 0.44033 0.5025 0.36771 0.0
C921 C 0.46969 0.49473 0.3791 0.0
C922 C 0.50555 0.4887 0.37185 0.0
C923 C 0.51215 0.49046 0.3532 0.0
C924 C 0.48286 0.49818 0.34174 0.0
C925 C 0.40199 0.59138 0.28721 0.0
C926 C 0.43658 0.58831 0.27741 0.0
C927 C 0.38735 0.57474 0.29839 0.0
C928 C 0.40681 0.55471 0.2997 0.0
C929 C 0.44028 0.55141 0.28919 0.0
C930 C 0.45508 0.56802 0.27826 0.0
C931 C 0.39492 0.53766 0.313 0.0
C932 C 0.42336 0.52939 0.32482 0.0
C933 C 0.35683 0.52908 0.31392 0.0
C934 C 0.32565 0.53632 0.30159 0.0
C935 C 0.32748 0.53147 0.28303 0.0
C936 C 0.2963 0.53662 0.27168 0.0
C937 C 0.26354 0.54701 0.27869 0.0
C938 C 0.26176 0.5521 0.29712 0.0
C939 C 0.29255 0.54659 0.3086 0.0
H940 H 0.2395 0.55105 0.26985 0.0
H941 H 0.52825 0.48269 0.3807 0.0
H942 H 0.24474 0.01391 0.86596 0.0
H943 H 0.21095 0.98859 0.84611 0.0
H944 H 0.1187 0.03503 0.83859 0.0
H945 H 0.15301 0.06095 0.85784 0.0
H946 H 0.09347 0.99394 0.84951 0.0
H947 H 0.17674 0.02499 0.80446 0.0
H948 H 0.23886 0.03659 0.79091 0.0
H949 H 0.27926 0.9706 0.79168 0.0
H950 H 0.2176 0.95863 0.80553 0.0
H951 H 0.99578 0.93323 0.77919 0.0
H952 H 0.02732 0.96145 0.79739 0.0
H953 H 0.12356 0.9184 0.80774 0.0
H954 H 0.09133 0.88981 0.79041 0.0
H955 H 0.14575 0.95945 0.79403 0.0
H956 H 0.07021 0.92852 0.84149 0.0
H957 H 0.01633 0.91642 0.86105 0.0
H958 H 0.96618 0.98022 0.8586 0.0
H959 H 0.01962 0.99267 0.83882 0.0
C960 C 0.21775 0.01905 0.85977 0.0
C961 C 0.20169 0.03958 0.86359 0.0
C962 C 0.1984 0.00447 0.84845 0.0
C963 C 0.16246 0.00999 0.84079 0.0
C964 C 0.14646 0.03048 0.84437 0.0
C965 C 0.166 0.0452 0.85552 0.0
C966 C 0.14026 0.99372 0.83022 0.0
C967 C 0.1044 0.98676 0.8371 0.0
C968 C 0.15545 0.98378 0.81449 0.0
C969 C 0.19266 0.99095 0.80623 0.0
C970 C 0.19901 0.01298 0.80193 0.0
C971 C 0.23412 0.01962 0.79415 0.0
C972 C 0.26304 0.00436 0.79048 0.0
C973 C 0.25686 0.98241 0.79456 0.0
C974 C 0.22182 0.97569 0.80236 0.0
C975 C 0.02325 0.92963 0.78567 0.0
C976 C 0.04133 0.90939 0.78319 0.0
C977 C 0.0413 0.94579 0.796 0.0
C978 C 0.07787 0.94204 0.80381 0.0
C979 C 0.09544 0.92166 0.80174 0.0
C980 C 0.07708 0.9054 0.79175 0.0
C981 C 0.09882 0.95969 0.81333 0.0
C982 C 0.13447 0.96689 0.80625 0.0
C983 C 0.08372 0.96969 0.82903 0.0
C984 C 0.04871 0.96146 0.83851 0.0
C985 C 0.0472 0.93983 0.84473 0.0
C986 C 0.01693 0.93297 0.85602 0.0
C987 C 0.98812 0.94763 0.86123 0.0
C988 C 0.98871 0.96896 0.85466 0.0
C989 C 0.01892 0.9759 0.84338 0.0
H990 H 0.96531 0.94252 0.8704 0.0
H991 H 0.29019 0.00953 0.78444 0.0
H992 H 0.25495 0.12751 0.00226 0.0
H993 H 0.22862 0.12965 0.03299 0.0
H994 H 0.12323 0.0985 0.0151 0.0
H995 H 0.14892 0.09686 0.98418 0.0
H996 H 0.10836 0.13201 0.0383 0.0
H997 H 0.19316 0.06953 0.0365 0.0
H998 H 0.25522 0.05076 0.03094 0.0
H999 H 0.31176 0.09161 0.06993 0.0
H1000 H 0.2501 0.11083 0.07554 0.0
H1001 H 0.0313 0.0936 0.12134 0.0
H1002 H 0.05763 0.09795 0.09084 0.0
H1003 H 0.16423 0.12322 0.11314 0.0
H1004 H 0.13886 0.1178 0.14379 0.0
H1005 H 0.18035 0.09514 0.08796 0.0
H1006 H 0.09631 0.15645 0.09137 0.0
H1007 H 0.03528 0.17617 0.09701 0.0
H1008 H 0.97853 0.13938 0.05537 0.0
H1009 H 0.03911 0.1192 0.04965 0.0
C1010 C 0.2259 0.12145 0.00477 0.0
C1011 C 0.20409 0.11193 0.99076 0.0
C1012 C 0.21103 0.12251 0.02239 0.0
C1013 C 0.17415 0.11399 0.02639 0.0
C1014 C 0.15181 0.10511 0.01233 0.0
C1015 C 0.16667 0.10402 0.99471 0.0
C1016 C 0.15934 0.11361 0.04531 0.0
C1017 C 0.12386 0.12378 0.04914 0.0
C1018 C 0.18015 0.10341 0.05955 0.0
C1019 C 0.21713 0.09175 0.05631 0.0
C1020 C 0.2189 0.07461 0.0438 0.0
C1021 C 0.25398 0.06388 0.04065 0.0
C1022 C 0.28744 0.07003 0.05004 0.0
C1023 C 0.28584 0.08689 0.06265 0.0
C1024 C 0.25083 0.09769 0.06582 0.0
C1025 C 0.06046 0.09996 0.11981 0.0
C1026 C 0.08295 0.10527 0.13509 0.0
C1027 C 0.07531 0.10272 0.1023 0.0
C1028 C 0.11277 0.1112 0.09963 0.0
C1029 C 0.13519 0.11673 0.11483 0.0
C1030 C 0.12046 0.11382 0.13237 0.0
C1031 C 0.12907 0.11342 0.08101 0.0
C1032 C 0.16487 0.10356 0.0772 0.0
C1033 C 0.10867 0.12406 0.06683 0.0
C1034 C 0.07218 0.13618 0.07019 0.0
C1035 C 0.07074 0.15245 0.08351 0.0
C1036 C 0.03624 0.16373 0.08671 0.0
C1037 C 0.00302 0.159 0.07659 0.0
C1038 C 0.00427 0.14301 0.06321 0.0
C1039 C 0.0387 0.13166 0.05998 0.0
H1040 H 0.97634 0.16775 0.07908 0.0
H1041 H 0.31457 0.0617 0.04759 0.0
H1042 H 0.28799 0.35566 0.49984 0.0
H1043 H 0.30341 0.35802 0.53229 0.0
H1044 H 0.40886 0.39276 0.51945 0.0
H1045 H 0.39412 0.39013 0.4872 0.0
H1046 H 0.42116 0.35991 0.54374 0.0
H1047 H 0.33078 0.41934 0.5355 0.0
H1048 H 0.26824 0.43576 0.5267 0.0
H1049 H 0.20879 0.39489 0.56514 0.0
H1050 H 0.27099 0.37802 0.57399 0.0
H1051 H 0.47973 0.40702 0.62593 0.0
H1052 H 0.45752 0.40026 0.59503 0.0
H1053 H 0.35341 0.37008 0.61587 0.0
H1054 H 0.37482 0.37751 0.64688 0.0
H1055 H 0.33657 0.3969 0.58841 0.0
H1056 H 0.42594 0.33921 0.59846 0.0
H1057 H 0.48764 0.32204 0.60752 0.0
H1058 H 0.54785 0.3579 0.566 0.0
H1059 H 0.48656 0.37553 0.55685 0.0
C1060 C 0.31441 0.36382 0.50398 0.0
C1061 C 0.33965 0.37288 0.49097 0.0
C1062 C 0.32308 0.36524 0.52249 0.0
C1063 C 0.3572 0.37566 0.52826 0.0
C1064 C 0.38237 0.38468 0.51529 0.0
C1065 C 0.37367 0.38336 0.49687 0.0
C1066 C 0.36736 0.37701 0.54775 0.0
C1067 C 0.40284 0.36815 0.55349 0.0
C1068 C 0.3428 0.3871 0.56056 0.0
C1069 C 0.30545 0.39724 0.55525 0.0
C1070 C 0.30433 0.41372 0.54196 0.0
C1071 C 0.26896 0.42313 0.53699 0.0
C1072 C 0.23455 0.41632 0.54532 0.0
C1073 C 0.23546 0.40012 0.55868 0.0
C1074 C 0.27076 0.39063 0.56368 0.0
C1075 C 0.45198 0.39908 0.62395 0.0
C1076 C 0.42907 0.39279 0.63887 0.0
C1077 C 0.4395 0.39502 0.60628 0.0
C1078 C 0.40401 0.38441 0.60315 0.0
C1079 C 0.38096 0.37819 0.61799 0.0
C1080 C 0.39341 0.38228 0.63569 0.0
C1081 C 0.39083 0.38022 0.58433 0.0
C1082 C 0.35477 0.38847 0.57872 0.0
C1083 C 0.41472 0.36941 0.57164 0.0
C1084 C 0.45168 0.35882 0.57707 0.0
C1085 C 0.45238 0.34356 0.59135 0.0
C1086 C 0.48727 0.33373 0.59649 0.0
C1087 C 0.52166 0.33891 0.58737 0.0
C1088 C 0.52119 0.35391 0.57306 0.0
C1089 C 0.48637 0.36381 0.56788 0.0
H1090 H 0.54864 0.33127 0.59137 0.0
H1091 H 0.20719 0.42364 0.54146 0.0
H1092 H 0.75732 0.3944 0.99666 0.0
H1093 H 0.73203 0.38675 0.96646 0.0
H1094 H 0.62853 0.35909 0.99019 0.0
H1095 H 0.65382 0.36665 0.02057 0.0
H1096 H 0.65456 0.33416 0.96351 0.0
H1097 H 0.62789 0.40995 0.97027 0.0
H1098 H 0.64297 0.44828 0.97693 0.0
H1099 H 0.72561 0.44972 0.93332 0.0
H1100 H 0.71142 0.41129 0.92656 0.0
H1101 H 0.55228 0.32757 0.88067 0.0
H1102 H 0.57108 0.33797 0.91133 0.0
H1103 H 0.67653 0.3666 0.89043 0.0
H1104 H 0.65743 0.35653 0.85961 0.0
H1105 H 0.64642 0.39158 0.91611 0.0
H1106 H 0.6749 0.31526 0.91034 0.0
H1107 H 0.65941 0.27698 0.90364 0.0
H1108 H 0.57279 0.2767 0.94555 0.0
H1109 H 0.58742 0.31508 0.95233 0.0
C1110 C 0.72898 0.38689 0.99548 0.0
C1111 C 0.70744 0.3813 0.01104 0.0
C1112 C 0.71455 0.38253 0.97818 0.0
C1113 C 0.67807 0.37267 0.97602 0.0
C1114 C 0.6567 0.36676 0.99152 0.0
C1115 C 0.67122 0.37104 0.00887 0.0
C1116 C 0.66269 0.36818 0.95758 0.0
C1117 C 0.65219 0.34679 0.95324 0.0
C1118 C 0.66035 0.38455 0.94404 0.0
C1119 C 0.66882 0.40769 0.94801 0.0
C1120 C 0.64948 0.4184 0.96218 0.0
C1121 C 0.65784 0.44014 0.96596 0.0
C1122 C 0.68529 0.45141 0.95558 0.0
C1123 C 0.70438 0.44097 0.94136 0.0
C1124 C 0.69617 0.41921 0.93754 0.0
C1125 C 0.5794 0.33612 0.88258 0.0
C1126 C 0.60346 0.34109 0.86771 0.0
C1127 C 0.59018 0.34203 0.90014 0.0
C1128 C 0.62559 0.35271 0.90325 0.0
C1129 C 0.64911 0.35832 0.88837 0.0
C1130 C 0.63813 0.35259 0.87076 0.0
C1131 C 0.63856 0.35754 0.92203 0.0
C1132 C 0.64863 0.37898 0.92642 0.0
C1133 C 0.64049 0.34122 0.93563 0.0
C1134 C 0.63201 0.31808 0.93172 0.0
C1135 C 0.65239 0.30706 0.91805 0.0
C1136 C 0.64378 0.28535 0.91424 0.0
C1137 C 0.61507 0.27443 0.92413 0.0
C1138 C 0.59499 0.28519 0.93788 0.0
C1139 C 0.60345 0.30691 0.94172 0.0
H1140 H 0.60843 0.25762 0.92116 0.0
H1141 H 0.69172 0.46825 0.95853 0.0
H1142 H 0.84155 0.10777 0.51053 0.0
H1143 H 0.84765 0.10752 0.47747 0.0
H1144 H 0.85093 0.17764 0.47688 0.0
H1145 H 0.84258 0.17805 0.50966 0.0
H1146 H 0.80747 0.16425 0.45062 0.0
H1147 H 0.93472 0.14413 0.47314 0.0
H1148 H 0.98099 0.12146 0.49036 0.0
H1149 H 0.9485 0.06576 0.45894 0.0
H1150 H 0.90167 0.08806 0.44169 0.0
H1151 H 0.88772 0.19276 0.36809 0.0
H1152 H 0.88457 0.18489 0.40056 0.0
H1153 H 0.86918 0.11671 0.38919 0.0
H1154 H 0.87288 0.12458 0.35644 0.0
H1155 H 0.91463 0.12448 0.42047 0.0
H1156 H 0.79126 0.14569 0.39633 0.0
H1157 H 0.74682 0.16894 0.37862 0.0
H1158 H 0.77275 0.22296 0.41323 0.0
H1159 H 0.81789 0.20012 0.43096 0.0
C1160 C 0.84292 0.12315 0.50334 0.0
C1161 C 0.84184 0.14294 0.51284 0.0
C1162 C 0.84696 0.12297 0.48443 0.0
C1163 C 0.8505 0.14255 0.47467 0.0
C1164 C 0.84851 0.16229 0.48409 0.0
C1165 C 0.8441 0.1625 0.5029 0.0
C1166 C 0.85612 0.1428 0.45465 0.0
C1167 C 0.83112 0.15567 0.44411 0.0
C1168 C 0.88619 0.13105 0.44596 0.0
C1169 C 0.91441 0.11769 0.45628 0.0
C1170 C 0.93725 0.12701 0.47 0.0
C1171 C 0.9636 0.11424 0.47975 0.0
C1172 C 0.96759 0.09217 0.47579 0.0
C1173 C 0.94532 0.08284 0.46203 0.0
C1174 C 0.91889 0.09554 0.45225 0.0
C1175 C 0.88447 0.17604 0.37253 0.0
C1176 C 0.88008 0.1593 0.35982 0.0
C1177 C 0.88259 0.17156 0.39106 0.0
C1178 C 0.87573 0.15029 0.39726 0.0
C1179 C 0.87424 0.13325 0.38466 0.0
C1180 C 0.87644 0.13773 0.366 0.0
C1181 C 0.86676 0.14647 0.41671 0.0
C1182 C 0.89085 0.13287 0.42705 0.0
C1183 C 0.83589 0.15757 0.42529 0.0
C1184 C 0.80814 0.17123 0.4149 0.0
C1185 C 0.78765 0.16256 0.4001 0.0
C1186 C 0.76233 0.17566 0.39006 0.0
C1187 C 0.75701 0.19742 0.39478 0.0
C1188 C 0.77692 0.2061 0.40959 0.0
C1189 C 0.80234 0.19308 0.41965 0.0
H1190 H 0.73742 0.20754 0.38698 0.0
H1191 H 0.98801 0.0823 0.48336 0.0
H1192 H 0.88601 0.88499 0.01369 0.0
H1193 H 0.89559 0.88793 0.98105 0.0
H1194 H 0.77563 0.87096 0.97212 0.0
H1195 H 0.7654 0.86841 0.005 0.0
H1196 H 0.82726 0.84884 0.94931 0.0
H1197 H 0.80104 0.9221 0.96698 0.0
H1198 H 0.8088 0.95513 0.98542 0.0
H1199 H 0.92824 0.96 0.96917 0.0
H1200 H 0.92136 0.9268 0.95084 0.0
H1201 H 0.84197 0.87908 0.85498 0.0
H1202 H 0.82144 0.87414 0.88667 0.0
H1203 H 0.93257 0.8983 0.90474 0.0
H1204 H 0.95255 0.90353 0.87323 0.0
H1205 H 0.87731 0.91754 0.92251 0.0
H1206 H 0.90607 0.84332 0.90697 0.0
H1207 H 0.90039 0.80965 0.88917 0.0
H1208 H 0.77879 0.80597 0.9017 0.0
H1209 H 0.78366 0.8398 0.91938 0.0
C1210 C 0.8614 0.88222 0.00486 0.0
C1211 C 0.82475 0.87677 0.01201 0.0
C1212 C 0.86704 0.88376 0.98618 0.0
C1213 C 0.83621 0.87991 0.9742 0.0
C1214 C 0.79976 0.87403 0.98118 0.0
C1215 C 0.79401 0.87255 0.99995 0.0
C1216 C 0.84248 0.8822 0.95441 0.0
C1217 C 0.83754 0.86395 0.94333 0.0
C1218 C 0.85658 0.9018 0.94676 0.0
C1219 C 0.86074 0.92188 0.95764 0.0
C1220 C 0.82903 0.93013 0.96744 0.0
C1221 C 0.83327 0.9489 0.97785 0.0
C1222 C 0.86901 0.95964 0.97849 0.0
C1223 C 0.90058 0.95166 0.96867 0.0
C1224 C 0.89651 0.93288 0.95825 0.0
C1225 C 0.86199 0.88309 0.86579 0.0
C1226 C 0.89863 0.89192 0.86179 0.0
C1227 C 0.85034 0.88024 0.88385 0.0
C1228 C 0.87549 0.88582 0.89811 0.0
C1229 C 0.91252 0.89406 0.894 0.0
C1230 C 0.92393 0.89709 0.87603 0.0
C1231 C 0.8631 0.884 0.91736 0.0
C1232 C 0.86674 0.90243 0.92837 0.0
C1233 C 0.84809 0.86452 0.92493 0.0
C1234 C 0.84513 0.84421 0.9143 0.0
C1235 C 0.87806 0.83543 0.90579 0.0
C1236 C 0.875 0.8163 0.89576 0.0
C1237 C 0.83923 0.80571 0.89426 0.0
C1238 C 0.80646 0.81421 0.90284 0.0
C1239 C 0.80935 0.83335 0.91288 0.0
H1240 H 0.83692 0.7909 0.88648 0.0
H1241 H 0.87222 0.97416 0.98657 0.0
H1242 H 0.6603 0.64337 0.51731 0.0
H1243 H 0.63429 0.64573 0.48633 0.0
H1244 H 0.71548 0.59658 0.46916 0.0
H1245 H 0.74184 0.59454 0.49978 0.0
H1246 H 0.71668 0.62896 0.44641 0.0
H1247 H 0.61514 0.58697 0.4759 0.0
H1248 H 0.56412 0.58045 0.49878 0.0
H1249 H 0.5031 0.63729 0.48043 0.0
H1250 H 0.55405 0.6443 0.45758 0.0
H1251 H 0.65547 0.59404 0.36282 0.0
H1252 H 0.66284 0.59367 0.3958 0.0
H1253 H 0.58586 0.6487 0.39984 0.0
H1254 H 0.57778 0.64876 0.36663 0.0
H1255 H 0.57857 0.61861 0.42928 0.0
H1256 H 0.6779 0.65888 0.39835 0.0
H1257 H 0.72803 0.66459 0.37492 0.0
H1258 H 0.79332 0.61077 0.39617 0.0
H1259 H 0.7432 0.60448 0.41954 0.0
C1260 C 0.67231 0.63301 0.5069 0.0
C1261 C 0.70334 0.61894 0.51088 0.0
C1262 C 0.65738 0.63431 0.48923 0.0
C1263 C 0.67282 0.62127 0.4754 0.0
C1264 C 0.70326 0.60693 0.47954 0.0
C1265 C 0.71838 0.60581 0.49705 0.0
C1266 C 0.65882 0.62292 0.45638 0.0
C1267 C 0.6865 0.6265 0.44272 0.0
C1268 C 0.61923 0.62055 0.45152 0.0
C1269 C 0.58861 0.61629 0.4652 0.0
C1270 C 0.591 0.59817 0.47685 0.0
C1271 C 0.56206 0.59437 0.48979 0.0
C1272 C 0.53045 0.60849 0.4911 0.0
C1273 C 0.52764 0.6264 0.47942 0.0
C1274 C 0.55652 0.63028 0.46647 0.0
C1275 C 0.63931 0.60566 0.37082 0.0
C1276 C 0.61625 0.62149 0.36233 0.0
C1277 C 0.64359 0.60549 0.38961 0.0
C1278 C 0.62549 0.62143 0.40019 0.0
C1279 C 0.60012 0.63631 0.39188 0.0
C1280 C 0.5955 0.63634 0.37298 0.0
C1281 C 0.63673 0.62378 0.41948 0.0
C1282 C 0.60864 0.6212 0.43309 0.0
C1283 C 0.676 0.62707 0.42439 0.0
C1284 C 0.70666 0.63113 0.41062 0.0
C1285 C 0.70285 0.64819 0.39797 0.0
C1286 C 0.73125 0.65153 0.38469 0.0
C1287 C 0.76381 0.63803 0.38404 0.0
C1288 C 0.76807 0.62121 0.39669 0.0
C1289 C 0.73969 0.61775 0.40996 0.0
H1290 H 0.78576 0.64064 0.37375 0.0
H1291 H 0.50808 0.60552 0.50112 0.0
H1292 H 0.38356 0.61431 0.99246 0.0
H1293 H 0.38765 0.617 0.02541 0.0
H1294 H 0.28213 0.65469 0.02602 0.0
H1295 H 0.27894 0.65304 0.99298 0.0
H1296 H 0.33443 0.67357 0.04595 0.0
H1297 H 0.28676 0.60065 0.04136 0.0
H1298 H 0.28593 0.5627 0.0308 0.0
H1299 H 0.39771 0.55182 0.05496 0.0
H1300 H 0.39945 0.58982 0.06546 0.0
H1301 H 0.29506 0.67232 0.139 0.0
H1302 H 0.29111 0.66227 0.10712 0.0
H1303 H 0.4083 0.63792 0.10915 0.0
H1304 H 0.41296 0.64849 0.14119 0.0
H1305 H 0.35294 0.61143 0.0883 0.0
H1306 H 0.39963 0.68491 0.09258 0.0
H1307 H 0.39859 0.72268 0.10357 0.0
H1308 H 0.28595 0.73205 0.07985 0.0
H1309 H 0.28606 0.69419 0.06896 0.0
C1310 C 0.36122 0.62322 0.99958 0.0
C1311 C 0.33104 0.63359 0.98999 0.0
C1312 C 0.36335 0.62451 0.01848 0.0
C1313 C 0.33504 0.63591 0.02827 0.0
C1314 C 0.30432 0.64578 0.01879 0.0
C1315 C 0.30232 0.64464 0.99987 0.0
C1316 C 0.33866 0.63871 0.04824 0.0
C1317 C 0.33789 0.6599 0.05517 0.0
C1318 C 0.34438 0.62098 0.06033 0.0
C1319 C 0.34339 0.59814 0.05405 0.0
C1320 C 0.3113 0.59021 0.0443 0.0
C1321 C 0.31064 0.56869 0.03834 0.0
C1322 C 0.34179 0.55487 0.04216 0.0
C1323 C 0.37363 0.56255 0.05199 0.0
C1324 C 0.37445 0.58407 0.05796 0.0
C1325 C 0.32006 0.66478 0.13274 0.0
C1326 C 0.35458 0.66158 0.14261 0.0
C1327 C 0.31763 0.65893 0.11452 0.0
C1328 C 0.34955 0.6496 0.10573 0.0
C1329 C 0.38334 0.64512 0.11573 0.0
C1330 C 0.38591 0.65112 0.13403 0.0
C1331 C 0.34815 0.64618 0.08583 0.0
C1332 C 0.34947 0.62498 0.07896 0.0
C1333 C 0.34272 0.66386 0.07374 0.0
C1334 C 0.34271 0.68667 0.08012 0.0
C1335 C 0.37451 0.69497 0.08984 0.0
C1336 C 0.37411 0.7164 0.09603 0.0
C1337 C 0.34218 0.72974 0.09245 0.0
C1338 C 0.31063 0.72169 0.08263 0.0
C1339 C 0.31086 0.70025 0.07644 0.0
H1340 H 0.34192 0.74633 0.09726 0.0
H1341 H 0.34122 0.53821 0.03754 0.0
H1342 H 0.16035 0.89861 0.49283 0.0
H1343 H 0.13611 0.89227 0.52356 0.0
H1344 H 0.20819 0.83523 0.52816 0.0
H1345 H 0.23101 0.84079 0.49716 0.0
H1346 H 0.13963 0.82744 0.54252 0.0
H1347 H 0.23378 0.88565 0.54696 0.0
H1348 H 0.26124 0.92165 0.53946 0.0
H1349 H 0.1564 0.95238 0.55754 0.0
H1350 H 0.12813 0.91653 0.56494 0.0
H1351 H 0.14794 0.81142 0.63674 0.0
H1352 H 0.16405 0.81964 0.60519 0.0
H1353 H 0.08906 0.87573 0.60661 0.0
H1354 H 0.07337 0.86774 0.63843 0.0
H1355 H 0.15348 0.88523 0.58876 0.0
H1356 H 0.06053 0.82761 0.58607 0.0
H1357 H 0.03243 0.79182 0.59369 0.0
H1358 H 0.13334 0.76017 0.57218 0.0
H1359 H 0.1623 0.79579 0.56466 0.0
C1360 C 0.17057 0.88449 0.50024 0.0
C1361 C 0.1979 0.87029 0.49249 0.0
C1362 C 0.15702 0.88105 0.51793 0.0
C1363 C 0.17086 0.8635 0.52834 0.0
C1364 C 0.19726 0.84897 0.52047 0.0
C1365 C 0.21059 0.8523 0.50276 0.0
C1366 C 0.15835 0.86028 0.5475 0.0
C1367 C 0.14303 0.84002 0.55266 0.0
C1368 C 0.16162 0.87688 0.56066 0.0
C1369 C 0.17872 0.89842 0.55633 0.0
C1370 C 0.2165 0.90008 0.54922 0.0
C1371 C 0.23222 0.92046 0.545 0.0
C1372 C 0.21054 0.93929 0.54798 0.0
C1373 C 0.17314 0.93779 0.55522 0.0
C1374 C 0.15726 0.91745 0.55944 0.0
C1375 C 0.1348 0.82548 0.63032 0.0
C1376 C 0.10908 0.83881 0.64 0.0
C1377 C 0.14396 0.83015 0.61226 0.0
C1378 C 0.12711 0.84804 0.60336 0.0
C1379 C 0.10227 0.86177 0.61315 0.0
C1380 C 0.09338 0.85722 0.63132 0.0
C1381 C 0.13543 0.85225 0.58384 0.0
C1382 C 0.14985 0.8727 0.5786 0.0
C1383 C 0.1312 0.83585 0.57057 0.0
C1384 C 0.11369 0.81438 0.57492 0.0
C1385 C 0.07683 0.81302 0.58306 0.0
C1386 C 0.06074 0.79276 0.58736 0.0
C1387 C 0.08112 0.77373 0.58345 0.0
C1388 C 0.11759 0.77492 0.57521 0.0
C1389 C 0.13384 0.79514 0.5709 0.0
H1390 H 0.06861 0.75806 0.58679 0.0
H1391 H 0.22276 0.95505 0.5447 0.0
H1392 H 0.17776 0.30241 0.38767 0.0
H1393 H 0.13463 0.28008 0.36922 0.0
H1394 H 0.22519 0.27295 0.32924 0.0
H1395 H 0.26705 0.29669 0.34669 0.0
H1396 H 0.16236 0.27733 0.31234 0.0
H1397 H 0.20051 0.23255 0.36293 0.0
H1398 H 0.20806 0.22262 0.39519 0.0
H1399 H 0.08444 0.22533 0.40243 0.0
H1400 H 0.07622 0.23557 0.37024 0.0
H1401 H 0.11212 0.17266 0.27625 0.0
H1402 H 0.14283 0.2002 0.29507 0.0
H1403 H 0.03038 0.22482 0.31012 0.0
H1404 H 0.99916 0.19813 0.29035 0.0
H1405 H 0.09684 0.21319 0.33975 0.0
H1406 H 0.06209 0.25574 0.28653 0.0
H1407 H 0.05958 0.26241 0.25355 0.0
H1408 H 0.18406 0.26039 0.25089 0.0
H1409 H 0.18725 0.25315 0.28382 0.0
C1410 C 0.18834 0.29642 0.37481 0.0
C1411 C 0.22628 0.30121 0.36887 0.0
C1412 C 0.16374 0.28335 0.36437 0.0
C1413 C 0.17683 0.27436 0.34798 0.0
C1414 C 0.21433 0.27952 0.34186 0.0
C1415 C 0.23857 0.29289 0.35207 0.0
C1416 C 0.15195 0.25945 0.33715 0.0
C1417 C 0.14825 0.26329 0.31841 0.0
C1418 C 0.13291 0.24119 0.34495 0.0
C1419 C 0.1378 0.23508 0.36427 0.0
C1420 C 0.17498 0.2312 0.37145 0.0
C1421 C 0.17937 0.22549 0.38971 0.0
C1422 C 0.14676 0.22342 0.40087 0.0
C1423 C 0.10968 0.22699 0.39378 0.0
C1424 C 0.10513 0.23274 0.37553 0.0
C1425 C 0.09379 0.1842 0.28314 0.0
C1426 C 0.05315 0.18354 0.28127 0.0
C1427 C 0.11145 0.19977 0.29409 0.0
C1428 C 0.0888 0.21456 0.30382 0.0
C1429 C 0.04825 0.21355 0.30259 0.0
C1430 C 0.03054 0.19831 0.29126 0.0
C1431 C 0.1079 0.23113 0.31518 0.0
C1432 C 0.11059 0.22748 0.33389 0.0
C1433 C 0.12671 0.24927 0.30734 0.0
C1434 C 0.12487 0.25369 0.28759 0.0
C1435 C 0.0889 0.25646 0.27888 0.0
C1436 C 0.08736 0.26041 0.26021 0.0
C1437 C 0.12164 0.26187 0.25014 0.0
C1438 C 0.15753 0.25932 0.25872 0.0
C1439 C 0.15922 0.25526 0.27738 0.0
H1440 H 0.12039 0.26491 0.23568 0.0
H1441 H 0.15022 0.21899 0.41501 0.0
H1442 H 0.2815 0.18336 0.86149 0.0
H1443 H 0.30382 0.21396 0.84298 0.0
H1444 H 0.41759 0.20899 0.86711 0.0
H1445 H 0.39492 0.17926 0.8864 0.0
H1446 H 0.40028 0.24974 0.86342 0.0
H1447 H 0.3962 0.18789 0.82448 0.0
H1448 H 0.36722 0.15614 0.80934 0.0
H1449 H 0.28287 0.19741 0.78366 0.0
H1450 H 0.31103 0.2294 0.79887 0.0
H1451 H 0.51136 0.29772 0.79107 0.0
H1452 H 0.48198 0.26992 0.81055 0.0
H1453 H 0.36875 0.29706 0.8003 0.0
H1454 H 0.39826 0.32601 0.78204 0.0
H1455 H 0.38327 0.24657 0.79661 0.0
H1456 H 0.39262 0.30902 0.83603 0.0
H1457 H 0.42811 0.3396 0.84977 0.0
H1458 H 0.50931 0.29498 0.87372 0.0
H1459 H 0.47499 0.26419 0.85963 0.0
C1460 C 0.31108 0.189 0.86312 0.0
C1461 C 0.33647 0.17867 0.87537 0.0
C1462 C 0.32395 0.20636 0.85234 0.0
C1463 C 0.36263 0.21355 0.85339 0.0
C1464 C 0.38769 0.20368 0.86596 0.0
C1465 C 0.37476 0.18649 0.87686 0.0
C1466 C 0.37731 0.23105 0.84117 0.0
C1467 C 0.39671 0.2489 0.84882 0.0
C1468 C 0.37251 0.23018 0.82209 0.0
C1469 C 0.35543 0.21099 0.81297 0.0
C1470 C 0.37126 0.19017 0.81573 0.0
C1471 C 0.35502 0.17213 0.80711 0.0
C1472 C 0.32315 0.17475 0.79559 0.0
C1473 C 0.30751 0.19541 0.79262 0.0
C1474 C 0.3236 0.2135 0.80123 0.0
C1475 C 0.48036 0.29806 0.79323 0.0
C1476 C 0.45729 0.31424 0.78512 0.0
C1477 C 0.46357 0.282 0.80415 0.0
C1478 C 0.42329 0.28152 0.8068 0.0
C1479 C 0.39992 0.29716 0.7983 0.0
C1480 C 0.41683 0.31358 0.78776 0.0
C1481 C 0.40589 0.265 0.81894 0.0
C1482 C 0.38629 0.24737 0.81125 0.0
C1483 C 0.41109 0.26587 0.83792 0.0
C1484 C 0.43149 0.28433 0.8466 0.0
C1485 C 0.41834 0.30576 0.84403 0.0
C1486 C 0.43824 0.32313 0.85189 0.0
C1487 C 0.47108 0.31927 0.86253 0.0
C1488 C 0.48401 0.29799 0.86539 0.0
C1489 C 0.46436 0.28057 0.85746 0.0
H1490 H 0.48634 0.33276 0.86862 0.0
H1491 H 0.31063 0.16076 0.78891 0.0
H1492 H 0.68022 0.19714 0.61912 0.0
H1493 H 0.63876 0.22078 0.63745 0.0
H1494 H 0.7263 0.22234 0.67923 0.0
H1495 H 0.76816 0.19929 0.66093 0.0
H1496 H 0.65272 0.21482 0.69297 0.0
H1497 H 0.71549 0.26445 0.65069 0.0
H1498 H 0.73253 0.27815 0.6202 0.0
H1499 H 0.61162 0.28588 0.60752 0.0
H1500 H 0.59387 0.2719 0.63785 0.0
H1501 H 0.59721 0.30336 0.74766 0.0
H1502 H 0.62957 0.27692 0.72841 0.0
H1503 H 0.54593 0.28905 0.68597 0.0
H1504 H 0.51488 0.31648 0.70467 0.0
H1505 H 0.61249 0.28791 0.67143 0.0
H1506 H 0.54756 0.2408 0.71286 0.0
H1507 H 0.52717 0.2264 0.74266 0.0
H1508 H 0.64586 0.2123 0.75605 0.0
H1509 H 0.66703 0.22693 0.72643 0.0
C1510 C 0.6908 0.20267 0.63213 0.0
C1511 C 0.72752 0.19617 0.63856 0.0
C1512 C 0.66699 0.2161 0.64263 0.0
C1513 C 0.67948 0.22332 0.65971 0.0
C1514 C 0.71595 0.21681 0.66616 0.0
C1515 C 0.73979 0.20353 0.65568 0.0
C1516 C 0.65497 0.23785 0.67091 0.0
C1517 C 0.64412 0.23089 0.68835 0.0
C1518 C 0.64263 0.25847 0.66463 0.0
C1519 C 0.65337 0.2669 0.64644 0.0
C1520 C 0.69255 0.26889 0.64134 0.0
C1521 C 0.70233 0.27673 0.6241 0.0
C1522 C 0.67317 0.28281 0.61191 0.0
C1523 C 0.63417 0.28111 0.61695 0.0
C1524 C 0.62424 0.27324 0.63416 0.0
C1525 C 0.58568 0.30049 0.73422 0.0
C1526 C 0.55372 0.31239 0.72768 0.0
C1527 C 0.60401 0.28512 0.72327 0.0
C1528 C 0.59006 0.28075 0.70573 0.0
C1529 C 0.55745 0.29214 0.69939 0.0
C1530 C 0.53958 0.30781 0.71018 0.0
C1531 C 0.61043 0.26506 0.69371 0.0
C1532 C 0.62059 0.27178 0.67608 0.0
C1533 C 0.62152 0.24405 0.69971 0.0
C1534 C 0.6089 0.23512 0.71749 0.0
C1535 C 0.56934 0.23477 0.72222 0.0
C1536 C 0.55764 0.22655 0.73907 0.0
C1537 C 0.58521 0.21849 0.75126 0.0
C1538 C 0.62454 0.21857 0.7466 0.0
C1539 C 0.6364 0.2268 0.72978 0.0
H1540 H 0.57609 0.21213 0.76431 0.0
H1541 H 0.68081 0.28889 0.59857 0.0
H1542 H 0.815 0.3366 0.15513 0.0
H1543 H 0.83993 0.30708 0.17396 0.0
H1544 H 0.86969 0.27095 0.12597 0.0
H1545 H 0.84262 0.29985 0.107 0.0
H1546 H 0.84192 0.24424 0.15033 0.0
H1547 H 0.93866 0.3 0.15069 0.0
H1548 H 0.96477 0.33702 0.15463 0.0
H1549 H 0.932 0.33564 0.21083 0.0
H1550 H 0.90519 0.29871 0.20716 0.0
H1551 H 0.97478 0.17195 0.19363 0.0
H1552 H 0.94649 0.2003 0.17444 0.0
H1553 H 0.90563 0.23376 0.22199 0.0
H1554 H 0.93419 0.20562 0.24133 0.0
H1555 H 0.93955 0.26143 0.19762 0.0
H1556 H 0.84334 0.2042 0.19621 0.0
H1557 H 0.8203 0.16672 0.19118 0.0
H1558 H 0.8569 0.17036 0.13558 0.0
H1559 H 0.88041 0.20781 0.14028 0.0
C1560 C 0.82612 0.32223 0.14852 0.0
C1561 C 0.82689 0.32075 0.12948 0.0
C1562 C 0.84092 0.30544 0.15935 0.0
C1563 C 0.85748 0.28694 0.15141 0.0
C1564 C 0.85734 0.28511 0.13243 0.0
C1565 C 0.84218 0.3018 0.12159 0.0
C1566 C 0.87542 0.26966 0.16287 0.0
C1567 C 0.86361 0.248 0.16051 0.0
C1568 C 0.90343 0.2745 0.17634 0.0
C1569 C 0.91958 0.29668 0.1786 0.0
C1570 C 0.93676 0.30766 0.16386 0.0
C1571 C 0.95172 0.32861 0.16605 0.0
C1572 C 0.94995 0.33869 0.18296 0.0
C1573 C 0.9333 0.32782 0.19773 0.0
C1574 C 0.91824 0.30687 0.19561 0.0
C1575 C 0.95983 0.18534 0.20004 0.0
C1576 C 0.95661 0.18643 0.21904 0.0
C1577 C 0.9435 0.20148 0.18903 0.0
C1578 C 0.92354 0.21902 0.19677 0.0
C1579 C 0.92079 0.22034 0.21573 0.0
C1580 C 0.93704 0.20418 0.22676 0.0
C1581 C 0.90584 0.23612 0.18514 0.0
C1582 C 0.91779 0.25773 0.18745 0.0
C1583 C 0.87837 0.23118 0.17148 0.0
C1584 C 0.86392 0.20874 0.16863 0.0
C1585 C 0.8467 0.19696 0.18294 0.0
C1586 C 0.83354 0.17573 0.18015 0.0
C1587 C 0.83729 0.16614 0.16311 0.0
C1588 C 0.85406 0.1778 0.14879 0.0
C1589 C 0.86724 0.19903 0.15149 0.0
H1590 H 0.8271 0.1497 0.16099 0.0
H1591 H 0.96156 0.35492 0.18463 0.0
H1592 H 0.77924 0.69772 0.63152 0.0
H1593 H 0.80558 0.7276 0.6496 0.0
H1594 H 0.9192 0.6983 0.64753 0.0
H1595 H 0.89312 0.66847 0.62953 0.0
H1596 H 0.90245 0.71039 0.68113 0.0
H1597 H 0.89607 0.74368 0.62199 0.0
H1598 H 0.86422 0.75525 0.59359 0.0
H1599 H 0.78432 0.79446 0.62383 0.0
H1600 H 0.81539 0.78288 0.65245 0.0
H1601 H 0.01168 0.79819 0.7161 0.0
H1602 H 0.98539 0.76976 0.6966 0.0
H1603 H 0.87354 0.80129 0.6972 0.0
H1604 H 0.90034 0.83045 0.71564 0.0
H1605 H 0.88878 0.7882 0.66435 0.0
H1606 H 0.89138 0.75377 0.72321 0.0
H1607 H 0.92047 0.74134 0.75203 0.0
H1608 H 0.0058 0.70481 0.72272 0.0
H1609 H 0.97683 0.71675 0.69371 0.0
C1610 C 0.80991 0.69779 0.63475 0.0
C1611 C 0.83404 0.68067 0.62915 0.0
C1612 C 0.82494 0.71487 0.64509 0.0
C1613 C 0.86445 0.71527 0.64984 0.0
C1614 C 0.88861 0.69829 0.64411 0.0
C1615 C 0.87361 0.68122 0.63386 0.0
C1616 C 0.8806 0.733 0.66119 0.0
C1617 C 0.89989 0.72739 0.67731 0.0
C1618 C 0.8764 0.75522 0.65653 0.0
C1619 C 0.8578 0.76225 0.63935 0.0
C1620 C 0.87152 0.75464 0.62259 0.0
C1621 C 0.85364 0.76122 0.60645 0.0
C1622 C 0.8222 0.77553 0.60691 0.0
C1623 C 0.80864 0.78335 0.6235 0.0
C1624 C 0.82639 0.7768 0.63968 0.0
C1625 C 0.98168 0.79924 0.71186 0.0
C1626 C 0.95817 0.8166 0.71745 0.0
C1627 C 0.96648 0.7828 0.70092 0.0
C1628 C 0.92726 0.78316 0.69565 0.0
C1629 C 0.90383 0.80058 0.70112 0.0
C1630 C 0.91915 0.81715 0.71183 0.0
C1631 C 0.91069 0.76557 0.68426 0.0
C1632 C 0.89132 0.7712 0.66815 0.0
C1633 C 0.91458 0.74335 0.68897 0.0
C1634 C 0.9322 0.7363 0.70634 0.0
C1635 C 0.9165 0.7432 0.72293 0.0
C1636 C 0.93292 0.73622 0.73929 0.0
C1637 C 0.96518 0.72248 0.73921 0.0
C1638 C 0.98088 0.71551 0.72276 0.0
C1639 C 0.96436 0.72227 0.70637 0.0
H1640 H 0.97789 0.71714 0.7519 0.0
H1641 H 0.8084 0.78061 0.5944 0.0
H1642 H 0.71723 0.82136 0.15748 0.0
H1643 H 0.67957 0.79579 0.17596 0.0
H1644 H 0.63938 0.76387 0.12753 0.0
H1645 H 0.67732 0.78943 0.10888 0.0
H1646 H 0.58045 0.77054 0.15585 0.0
H1647 H 0.70777 0.7408 0.14692 0.0
H1648 H 0.77934 0.74137 0.14682 0.0
H1649 H 0.78003 0.75351 0.20412 0.0
H1650 H 0.7084 0.7534 0.2045 0.0
H1651 H 0.51813 0.67211 0.1958 0.0
H1652 H 0.54956 0.69954 0.17712 0.0
H1653 H 0.6089 0.72449 0.22414 0.0
H1654 H 0.5772 0.6969 0.24309 0.0
H1655 H 0.65716 0.72178 0.19598 0.0
H1656 H 0.52943 0.75104 0.20508 0.0
H1657 H 0.45789 0.74948 0.20527 0.0
H1658 H 0.45735 0.73787 0.1479 0.0
H1659 H 0.52897 0.7391 0.1474 0.0
C1660 C 0.6998 0.80916 0.15074 0.0
C1661 C 0.7002 0.80735 0.13175 0.0
C1662 C 0.67847 0.79452 0.16131 0.0
C1663 C 0.65692 0.77791 0.15309 0.0
C1664 C 0.65584 0.77661 0.1341 0.0
C1665 C 0.67763 0.7911 0.1235 0.0
C1666 C 0.63776 0.76113 0.16445 0.0
C1667 C 0.59713 0.7597 0.1645 0.0
C1668 C 0.65963 0.74728 0.1759 0.0
C1669 C 0.70271 0.74734 0.1757 0.0
C1670 C 0.72317 0.74382 0.15947 0.0
C1671 C 0.76375 0.74402 0.15936 0.0
C1672 C 0.78422 0.74754 0.17544 0.0
C1673 C 0.76414 0.75083 0.19167 0.0
C1674 C 0.72355 0.75069 0.19184 0.0
C1675 C 0.53779 0.68338 0.20231 0.0
C1676 C 0.54524 0.6821 0.22107 0.0
C1677 C 0.55564 0.69919 0.19153 0.0
C1678 C 0.58111 0.71434 0.19923 0.0
C1679 C 0.58921 0.713 0.2179 0.0
C1680 C 0.57126 0.69711 0.22873 0.0
C1681 C 0.59966 0.73127 0.18766 0.0
C1682 C 0.64031 0.73268 0.18746 0.0
C1683 C 0.57772 0.74508 0.17609 0.0
C1684 C 0.5346 0.74499 0.17624 0.0
C1685 C 0.51407 0.74808 0.19252 0.0
C1686 C 0.4735 0.74725 0.19268 0.0
C1687 C 0.45309 0.74352 0.17662 0.0
C1688 C 0.47321 0.74074 0.16033 0.0
C1689 C 0.51379 0.74154 0.1601 0.0
H1690 H 0.42168 0.7428 0.17678 0.0
H1691 H 0.81564 0.74766 0.17534 0.0
H1692 H 0.26613 0.80585 0.3649 0.0
H1693 H 0.29089 0.77605 0.3463 0.0
H1694 H 0.40834 0.7955 0.35856 0.0
H1695 H 0.38382 0.8253 0.37701 0.0
H1696 H 0.4027 0.78738 0.32396 0.0
H1697 H 0.36495 0.75039 0.37864 0.0
H1698 H 0.32022 0.73954 0.40321 0.0
H1699 H 0.24381 0.71021 0.36435 0.0
H1700 H 0.28785 0.72115 0.33951 0.0
H1701 H 0.46205 0.6675 0.30747 0.0
H1702 H 0.43544 0.69572 0.32702 0.0
H1703 H 0.39207 0.72996 0.28003 0.0
H1704 H 0.41887 0.70191 0.2603 0.0
H1705 H 0.36222 0.7106 0.33276 0.0
H1706 H 0.40179 0.78431 0.28746 0.0
H1707 H 0.45073 0.79454 0.26449 0.0
H1708 H 0.53166 0.74946 0.28801 0.0
H1709 H 0.48341 0.73918 0.31126 0.0
C1710 C 0.29722 0.80364 0.36375 0.0
C1711 C 0.32298 0.81801 0.37239 0.0
C1712 C 0.31136 0.7866 0.35311 0.0
C1713 C 0.35155 0.7834 0.35109 0.0
C1714 C 0.37725 0.79767 0.3598 0.0
C1715 C 0.36316 0.81474 0.37033 0.0
C1716 C 0.36704 0.76547 0.33969 0.0
C1717 C 0.39371 0.77062 0.32589 0.0
C1718 C 0.35588 0.7435 0.3423 0.0
C1719 C 0.32951 0.73677 0.35721 0.0
C1720 C 0.33848 0.74176 0.37532 0.0
C1721 C 0.31327 0.73558 0.3893 0.0
C1722 C 0.27915 0.72425 0.38534 0.0
C1723 C 0.27022 0.71901 0.36739 0.0
C1724 C 0.29531 0.72518 0.35336 0.0
C1725 C 0.44683 0.681 0.30124 0.0
C1726 C 0.44282 0.68244 0.28225 0.0
C1727 C 0.43145 0.69708 0.31248 0.0
C1728 C 0.41198 0.71503 0.305 0.0
C1729 C 0.40736 0.71637 0.28609 0.0
C1730 C 0.42267 0.70027 0.27483 0.0
C1731 C 0.39738 0.73262 0.31695 0.0
C1732 C 0.37096 0.72741 0.33081 0.0
C1733 C 0.40932 0.75448 0.31465 0.0
C1734 C 0.43884 0.76084 0.30097 0.0
C1735 C 0.43009 0.77666 0.28777 0.0
C1736 C 0.4577 0.78244 0.27469 0.0
C1737 C 0.49423 0.77259 0.27475 0.0
C1738 C 0.5033 0.757 0.28794 0.0
C1739 C 0.47582 0.75118 0.30105 0.0
H1740 H 0.51553 0.77707 0.2646 0.0
H1741 H 0.25966 0.71948 0.39618 0.0
H1742 H 0.17461 0.70355 0.88877 0.0
H1743 H 0.13733 0.72859 0.86943 0.0
H1744 H 0.20242 0.70757 0.82275 0.0
H1745 H 0.23959 0.68258 0.84192 0.0
H1746 H 0.19893 0.75281 0.82644 0.0
H1747 H 0.11261 0.69137 0.82674 0.0
H1748 H 0.0723 0.66269 0.84074 0.0
H1749 H 0.00277 0.71115 0.86694 0.0
H1750 H 0.04306 0.74013 0.8533 0.0
H1751 H 0.0901 0.80482 0.75715 0.0
H1752 H 0.12246 0.7775 0.77597 0.0
H1753 H 0.04864 0.79405 0.82106 0.0
H1754 H 0.01605 0.82135 0.80242 0.0
H1755 H 0.05597 0.75079 0.81837 0.0
H1756 H 0.14158 0.81188 0.82004 0.0
H1757 H 0.18281 0.8415 0.80817 0.0
H1758 H 0.25355 0.79508 0.78015 0.0
H1759 H 0.21255 0.76517 0.7918 0.0
C1760 C 0.18073 0.7042 0.87436 0.0
C1761 C 0.20985 0.69103 0.86684 0.0
C1762 C 0.15934 0.71841 0.86333 0.0
C1763 C 0.16704 0.71985 0.84465 0.0
C1764 C 0.19596 0.70665 0.83712 0.0
C1765 C 0.21696 0.69228 0.84807 0.0
C1766 C 0.14614 0.73575 0.83303 0.0
C1767 C 0.16773 0.75218 0.82444 0.0
C1768 C 0.10533 0.7353 0.83092 0.0
C1769 C 0.08114 0.71791 0.83917 0.0
C1770 C 0.08897 0.69591 0.83563 0.0
C1771 C 0.06607 0.6796 0.84347 0.0
C1772 C 0.03507 0.68509 0.85477 0.0
C1773 C 0.02684 0.70691 0.85821 0.0
C1774 C 0.04968 0.72329 0.85042 0.0
C1775 C 0.08071 0.80271 0.77107 0.0
C1776 C 0.05061 0.81548 0.77827 0.0
C1777 C 0.09933 0.78709 0.78183 0.0
C1778 C 0.08829 0.7839 0.8 0.0
C1779 C 0.0577 0.79624 0.80709 0.0
C1780 C 0.03916 0.81191 0.79638 0.0
C1781 C 0.10881 0.76782 0.81166 0.0
C1782 C 0.08718 0.75139 0.8203 0.0
C1783 C 0.14959 0.76838 0.814 0.0
C1784 C 0.17376 0.78632 0.80663 0.0
C1785 C 0.1657 0.80801 0.81121 0.0
C1786 C 0.18912 0.82483 0.80458 0.0
C1787 C 0.22075 0.82017 0.79339 0.0
C1788 C 0.22903 0.79867 0.78881 0.0
C1789 C 0.20575 0.78176 0.79545 0.0
H1790 H 0.23886 0.83323 0.78827 0.0
H1791 H 0.01735 0.67244 0.86081 0.0
loop_
_geom_bond_atom_site_label_1
_geom_bond_atom_site_label_2
_geom_bond_distance
_geom_bond_site_symmetry_2
_ccdc_geom_bond_type
P0 O11 1.490 . S
P0 C14 1.812 . S
P0 C20 1.803 . S
P0 C26 1.819 . S
H1 C15 0.941 . S
H2 C16 0.939 . S
H3 C18 0.940 . S
H4 C19 0.940 . S
H5 C21 0.939 . S
H6 C22 0.942 . S
H7 C24 0.940 . S
H8 C25 0.939 . S
H9 C27 0.941 . S
H10 C31 0.939 . S
O11 P0 1.490 . S
H12 C28 0.939 . S
H13 C30 0.940 . S
C14 P0 1.812 . S
C14 C15 1.389 . S
C14 C19 1.391 . S
C15 H1 0.941 . S
C15 C14 1.389 . S
C15 C16 1.397 . S
C16 H2 0.939 . S
C16 C15 1.397 . S
C16 C17 1.378 . S
C17 C16 1.378 . S
C17 C18 1.378 . S
C18 H3 0.940 . S
C18 C17 1.378 . S
C18 C19 1.396 . S
C19 H4 0.940 . S
C19 C14 1.391 . S
C19 C18 1.396 . S
C20 P0 1.803 . S
C20 C21 1.378 . S
C20 C25 1.400 . S
C21 H5 0.939 . S
C21 C20 1.378 . S
C21 C22 1.361 . S
C22 H6 0.942 . S
C22 C21 1.361 . S
C22 C23 1.369 . S
C23 C22 1.369 . S
C23 C24 1.404 . S
C24 H7 0.940 . S
C24 C23 1.404 . S
C24 C25 1.389 . S
C25 H8 0.939 . S
C25 C20 1.400 . S
C25 C24 1.389 . S
C26 P0 1.819 . S
C26 C27 1.391 . S
C26 C31 1.391 . S
C27 H9 0.941 . S
C27 C26 1.391 . S
C27 C28 1.396 . S
C28 H12 0.939 . S
C28 C27 1.396 . S
C28 C29 1.397 . S
C29 C28 1.397 . S
C29 C30 1.385 . S
C30 H13 0.940 . S
C30 C29 1.385 . S
C30 C31 1.388 . S
C31 H10 0.939 . S
C31 C26 1.391 . S
C31 C30 1.388 . S
P32 O43 1.490 . S
P32 C46 1.812 . S
P32 C52 1.803 . S
P32 C58 1.819 . S
H33 C47 0.941 . S
H34 C48 0.939 . S
H35 C50 0.940 . S
H36 C51 0.940 . S
H37 C53 0.939 . S
H38 C54 0.942 . S
H39 C56 0.940 . S
H40 C57 0.939 . S
H41 C59 0.941 . S
H42 C63 0.939 . S
O43 P32 1.490 . S
H44 C60 0.939 . S
H45 C62 0.940 . S
C46 P32 1.812 . S
C46 C47 1.389 . S
C46 C51 1.391 . S
C47 H33 0.941 . S
C47 C46 1.389 . S
C47 C48 1.397 . S
C48 H34 0.939 . S
C48 C47 1.397 . S
C48 C49 1.378 . S
C49 C48 1.378 . S
C49 C50 1.378 . S
C50 H35 0.940 . S
C50 C49 1.378 . S
C50 C51 1.396 . S
C51 H36 0.940 . S
C51 C46 1.391 . S
C51 C50 1.396 . S
C52 P32 1.803 . S
C52 C53 1.378 . S
C52 C57 1.400 . S
C53 H37 0.939 . S
C53 C52 1.378 . S
C53 C54 1.361 . S
C54 H38 0.942 . S
C54 C53 1.361 . S
C54 C55 1.369 . S
C55 C54 1.369 . S
C55 C56 1.404 . S
C56 H39 0.940 . S
C56 C55 1.404 . S
C56 C57 1.389 . S
C57 H40 0.939 . S
C57 C52 1.400 . S
C57 C56 1.389 . S
C58 P32 1.819 . S
C58 C59 1.391 . S
C58 C63 1.391 . S
C59 H41 0.941 . S
C59 C58 1.391 . S
C59 C60 1.396 . S
C60 H44 0.939 . S
C60 C59 1.396 . S
C60 C61 1.397 . S
C61 C60 1.397 . S
C61 C62 1.385 . S
C62 H45 0.940 . S
C62 C61 1.385 . S
C62 C63 1.388 . S
C63 H42 0.939 . S
C63 C58 1.391 . S
C63 C62 1.388 . S
P64 O75 1.490 . S
P64 C78 1.812 . S
P64 C84 1.803 . S
P64 C90 1.819 . S
H65 C79 0.941 . S
H66 C80 0.939 . S
H67 C82 0.940 . S
H68 C83 0.940 . S
H69 C85 0.939 . S
H70 C86 0.942 . S
H71 C88 0.940 . S
H72 C89 0.939 . S
H73 C91 0.941 . S
H74 C95 0.939 . S
O75 P64 1.490 . S
H76 C92 0.939 . S
H77 C94 0.940 . S
C78 P64 1.812 . S
C78 C79 1.389 . S
C78 C83 1.391 . S
C79 H65 0.941 . S
C79 C78 1.389 . S
C79 C80 1.397 . S
C80 H66 0.939 . S
C80 C79 1.397 . S
C80 C81 1.378 . S
C81 C80 1.378 . S
C81 C82 1.378 . S
C82 H67 0.940 . S
C82 C81 1.378 . S
C82 C83 1.396 . S
C83 H68 0.940 . S
C83 C78 1.391 . S
C83 C82 1.396 . S
C84 P64 1.803 . S
C84 C85 1.378 . S
C84 C89 1.400 . S
C85 H69 0.939 . S
C85 C84 1.378 . S
C85 C86 1.361 . S
C86 H70 0.942 . S
C86 C85 1.361 . S
C86 C87 1.369 . S
C87 C86 1.369 . S
C87 C88 1.404 . S
C88 H71 0.940 . S
C88 C87 1.404 . S
C88 C89 1.389 . S
C89 H72 0.939 . S
C89 C84 1.400 . S
C89 C88 1.389 . S
C90 P64 1.819 . S
C90 C91 1.391 . S
C90 C95 1.391 . S
C91 H73 0.941 . S
C91 C90 1.391 . S
C91 C92 1.396 . S
C92 H76 0.939 . S
C92 C91 1.396 . S
C92 C93 1.397 . S
C93 C92 1.397 . S
C93 C94 1.385 . S
C94 H77 0.940 . S
C94 C93 1.385 . S
C94 C95 1.388 . S
C95 H74 0.939 . S
C95 C90 1.391 . S
C95 C94 1.388 . S
P96 O107 1.490 . S
P96 C110 1.812 . S
P96 C116 1.803 . S
P96 C122 1.819 . S
H97 C111 0.941 . S
H98 C112 0.939 . S
H99 C114 0.940 . S
H100 C115 0.940 . S
H101 C117 0.939 . S
H102 C118 0.942 . S
H103 C120 0.940 . S
H104 C121 0.939 . S
H105 C123 0.941 . S
H106 C127 0.939 . S
O107 P96 1.490 . S
H108 C124 0.939 . S
H109 C126 0.940 . S
C110 P96 1.812 . S
C110 C111 1.389 . S
C110 C115 1.391 . S
C111 H97 0.941 . S
C111 C110 1.389 . S
C111 C112 1.397 . S
C112 H98 0.939 . S
C112 C111 1.397 . S
C112 C113 1.378 . S
C113 C112 1.378 . S
C113 C114 1.378 . S
C114 H99 0.940 . S
C114 C113 1.378 . S
C114 C115 1.396 . S
C115 H100 0.940 . S
C115 C110 1.391 . S
C115 C114 1.396 . S
C116 P96 1.803 . S
C116 C117 1.378 . S
C116 C121 1.400 . S
C117 H101 0.939 . S
C117 C116 1.378 . S
C117 C118 1.361 . S
C118 H102 0.942 . S
C118 C117 1.361 . S
C118 C119 1.369 . S
C119 C118 1.369 . S
C119 C120 1.404 . S
C120 H103 0.940 . S
C120 C119 1.404 . S
C120 C121 1.389 . S
C121 H104 0.939 . S
C121 C116 1.400 . S
C121 C120 1.389 . S
C122 P96 1.819 . S
C122 C123 1.391 . S
C122 C127 1.391 . S
C123 H105 0.941 . S
C123 C122 1.391 . S
C123 C124 1.396 . S
C124 H108 0.939 . S
C124 C123 1.396 . S
C124 C125 1.397 . S
C125 C124 1.397 . S
C125 C126 1.385 . S
C126 H109 0.940 . S
C126 C125 1.385 . S
C126 C127 1.388 . S
C127 H106 0.939 . S
C127 C122 1.391 . S
C127 C126 1.388 . S
P128 O139 1.490 . S
P128 C142 1.812 . S
P128 C148 1.803 . S
P128 C154 1.819 . S
H129 C143 0.941 . S
H130 C144 0.939 . S
H131 C146 0.940 . S
H132 C147 0.940 . S
H133 C149 0.939 . S
H134 C150 0.942 . S
H135 C152 0.940 . S
H136 C153 0.939 . S
H137 C155 0.941 . S
H138 C159 0.939 . S
O139 P128 1.490 . S
H140 C156 0.939 . S
H141 C158 0.940 . S
C142 P128 1.812 . S
C142 C143 1.389 . S
C142 C147 1.391 . S
C143 H129 0.941 . S
C143 C142 1.389 . S
C143 C144 1.397 . S
C144 H130 0.939 . S
C144 C143 1.397 . S
C144 C145 1.378 . S
C145 C144 1.378 . S
C145 C146 1.378 . S
C146 H131 0.940 . S
C146 C145 1.378 . S
C146 C147 1.396 . S
C147 H132 0.940 . S
C147 C142 1.391 . S
C147 C146 1.396 . S
C148 P128 1.803 . S
C148 C149 1.378 . S
C148 C153 1.400 . S
C149 H133 0.939 . S
C149 C148 1.378 . S
C149 C150 1.361 . S
C150 H134 0.942 . S
C150 C149 1.361 . S
C150 C151 1.369 . S
C151 C150 1.369 . S
C151 C152 1.404 . S
C152 H135 0.940 . S
C152 C151 1.404 . S
C152 C153 1.389 . S
C153 H136 0.939 . S
C153 C148 1.400 . S
C153 C152 1.389 . S
C154 P128 1.819 . S
C154 C155 1.391 . S
C154 C159 1.391 . S
C155 H137 0.941 . S
C155 C154 1.391 . S
C155 C156 1.396 . S
C156 H140 0.939 . S
C156 C155 1.396 . S
C156 C157 1.397 . S
C157 C156 1.397 . S
C157 C158 1.385 . S
C158 H141 0.940 . S
C158 C157 1.385 . S
C158 C159 1.388 . S
C159 H138 0.939 . S
C159 C154 1.391 . S
C159 C158 1.388 . S
P160 O171 1.490 . S
P160 C174 1.812 . S
P160 C180 1.803 . S
P160 C186 1.819 . S
H161 C175 0.941 . S
H162 C176 0.939 . S
H163 C178 0.940 . S
H164 C179 0.940 . S
H165 C181 0.939 . S
H166 C182 0.942 . S
H167 C184 0.940 . S
H168 C185 0.939 . S
H169 C187 0.941 . S
H170 C191 0.939 . S
O171 P160 1.490 . S
H172 C188 0.939 . S
H173 C190 0.940 . S
C174 P160 1.812 . S
C174 C175 1.389 . S
C174 C179 1.391 . S
C175 H161 0.941 . S
C175 C174 1.389 . S
C175 C176 1.397 . S
C176 H162 0.939 . S
C176 C175 1.397 . S
C176 C177 1.378 . S
C177 C176 1.378 . S
C177 C178 1.378 . S
C178 H163 0.940 . S
C178 C177 1.378 . S
C178 C179 1.396 . S
C179 H164 0.940 . S
C179 C174 1.391 . S
C179 C178 1.396 . S
C180 P160 1.803 . S
C180 C181 1.378 . S
C180 C185 1.400 . S
C181 H165 0.939 . S
C181 C180 1.378 . S
C181 C182 1.361 . S
C182 H166 0.942 . S
C182 C181 1.361 . S
C182 C183 1.369 . S
C183 C182 1.369 . S
C183 C184 1.404 . S
C184 H167 0.940 . S
C184 C183 1.404 . S
C184 C185 1.389 . S
C185 H168 0.939 . S
C185 C180 1.400 . S
C185 C184 1.389 . S
C186 P160 1.819 . S
C186 C187 1.391 . S
C186 C191 1.391 . S
C187 H169 0.941 . S
C187 C186 1.391 . S
C187 C188 1.396 . S
C188 H172 0.939 . S
C188 C187 1.396 . S
C188 C189 1.397 . S
C189 C188 1.397 . S
C189 C190 1.385 . S
C190 H173 0.940 . S
C190 C189 1.385 . S
C190 C191 1.388 . S
C191 H170 0.939 . S
C191 C186 1.391 . S
C191 C190 1.388 . S
P192 O203 1.490 . S
P192 C206 1.812 . S
P192 C212 1.803 . S
P192 C218 1.819 . S
H193 C207 0.941 . S
H194 C208 0.939 . S
H195 C210 0.940 . S
H196 C211 0.940 . S
H197 C213 0.939 . S
H198 C214 0.942 . S
H199 C216 0.940 . S
H200 C217 0.939 . S
H201 C219 0.941 . S
H202 C223 0.939 . S
O203 P192 1.490 . S
H204 C220 0.939 . S
H205 C222 0.940 . S
C206 P192 1.812 . S
C206 C207 1.389 . S
C206 C211 1.391 . S
C207 H193 0.941 . S
C207 C206 1.389 . S
C207 C208 1.397 . S
C208 H194 0.939 . S
C208 C207 1.397 . S
C208 C209 1.378 . S
C209 C208 1.378 . S
C209 C210 1.378 . S
C210 H195 0.940 . S
C210 C209 1.378 . S
C210 C211 1.396 . S
C211 H196 0.940 . S
C211 C206 1.391 . S
C211 C210 1.396 . S
C212 P192 1.803 . S
C212 C213 1.378 . S
C212 C217 1.400 . S
C213 H197 0.939 . S
C213 C212 1.378 . S
C213 C214 1.361 . S
C214 H198 0.942 . S
C214 C213 1.361 . S
C214 C215 1.369 . S
C215 C214 1.369 . S
C215 C216 1.404 . S
C216 H199 0.940 . S
C216 C215 1.404 . S
C216 C217 1.389 . S
C217 H200 0.939 . S
C217 C212 1.400 . S
C217 C216 1.389 . S
C218 P192 1.819 . S
C218 C219 1.391 . S
C218 C223 1.391 . S
C219 H201 0.941 . S
C219 C218 1.391 . S
C219 C220 1.396 . S
C220 H204 0.939 . S
C220 C219 1.396 . S
C220 C221 1.397 . S
C221 C220 1.397 . S
C221 C222 1.385 . S
C222 H205 0.940 . S
C222 C221 1.385 . S
C222 C223 1.388 . S
C223 H202 0.939 . S
C223 C218 1.391 . S
C223 C222 1.388 . S
P224 O235 1.490 . S
P224 C238 1.812 . S
P224 C244 1.803 . S
P224 C250 1.819 . S
H225 C239 0.941 . S
H226 C240 0.939 . S
H227 C242 0.940 . S
H228 C243 0.940 . S
H229 C245 0.939 . S
H230 C246 0.942 . S
H231 C248 0.940 . S
H232 C249 0.939 . S
H233 C251 0.941 . S
H234 C255 0.939 . S
O235 P224 1.490 . S
H236 C252 0.939 . S
H237 C254 0.940 . S
C238 P224 1.812 . S
C238 C239 1.389 . S
C238 C243 1.391 . S
C239 H225 0.941 . S
C239 C238 1.389 . S
C239 C240 1.397 . S
C240 H226 0.939 . S
C240 C239 1.397 . S
C240 C241 1.378 . S
C241 C240 1.378 . S
C241 C242 1.378 . S
C242 H227 0.940 . S
C242 C241 1.378 . S
C242 C243 1.396 . S
C243 H228 0.940 . S
C243 C238 1.391 . S
C243 C242 1.396 . S
C244 P224 1.803 . S
C244 C245 1.378 . S
C244 C249 1.400 . S
C245 H229 0.939 . S
C245 C244 1.378 . S
C245 C246 1.361 . S
C246 H230 0.942 . S
C246 C245 1.361 . S
C246 C247 1.369 . S
C247 C246 1.369 . S
C247 C248 1.404 . S
C248 H231 0.940 . S
C248 C247 1.404 . S
C248 C249 1.389 . S
C249 H232 0.939 . S
C249 C244 1.400 . S
C249 C248 1.389 . S
C250 P224 1.819 . S
C250 C251 1.391 . S
C250 C255 1.391 . S
C251 H233 0.941 . S
C251 C250 1.391 . S
C251 C252 1.396 . S
C252 H236 0.939 . S
C252 C251 1.396 . S
C252 C253 1.397 . S
C253 C252 1.397 . S
C253 C254 1.385 . S
C254 H237 0.940 . S
C254 C253 1.385 . S
C254 C255 1.388 . S
C255 H234 0.939 . S
C255 C250 1.391 . S
C255 C254 1.388 . S
Eu256 N285 2.600 . S
Eu256 N291 2.562 . S
Eu256 O300 2.462 . S
Eu256 O301 2.373 . S
Eu256 O303 2.432 . S
Eu256 O304 2.291 . S
Eu256 O308 2.335 . S
Eu256 O311 2.372 . S
Eu256 C320 2.787 . S
C257 N258 1.365 . S
C257 C260 1.405 . S
C257 C264 1.448 . S
N258 C257 1.365 . S
N258 C261 1.319 . S
N258 Eu267 2.600 . S
C259 C261 1.397 . S
C259 C262 1.367 . S
C259 H279 0.931 . S
C260 C257 1.405 . S
C260 C262 1.403 . S
C260 C266 1.439 . S
C261 N258 1.319 . S
C261 C259 1.397 . S
C261 H272 0.930 . S
C262 C259 1.367 . S
C262 C260 1.403 . S
C262 H283 0.929 . S
C263 C264 1.430 . S
C263 C265 1.387 . S
C263 C269 1.404 . S
C264 C257 1.448 . S
C264 C263 1.430 . S
C264 N268 1.351 . S
C265 C263 1.387 . S
C265 C266 1.374 . S
C265 H280 0.931 . S
C266 C260 1.439 . S
C266 C265 1.374 . S
C266 H281 0.931 . S
Eu267 N258 2.600 . S
Eu267 N268 2.562 . S
Eu267 O302 2.335 1_655 S
Eu267 O305 2.372 . S
Eu267 O306 2.462 . S
Eu267 O307 2.373 . S
Eu267 O309 2.432 . S
Eu267 O310 2.291 1_655 S
Eu267 C331 2.787 . S
N268 C264 1.351 . S
N268 Eu267 2.562 . S
N268 C270 1.325 . S
C269 C263 1.404 . S
C269 C271 1.366 . S
C269 H277 0.930 . S
C270 N268 1.325 . S
C270 C271 1.416 . S
C270 H276 0.929 . S
C271 C269 1.366 . S
C271 C270 1.416 . S
C271 H273 0.930 . S
H272 C261 0.930 . S
H273 C271 0.930 . S
H274 C289 0.930 . S
H275 C296 0.930 . S
H276 C270 0.929 . S
H277 C269 0.930 . S
H278 C292 0.929 . S
H279 C259 0.931 . S
H280 C265 0.931 . S
H281 C266 0.931 . S
H282 C287 0.931 . S
H283 C262 0.929 . S
H284 C295 0.930 . S
N285 Eu256 2.600 . S
N285 C286 1.365 . S
N285 C289 1.319 . S
C286 N285 1.365 . S
C286 C288 1.405 . S
C286 C294 1.448 . S
C287 H282 0.931 . S
C287 C289 1.397 . S
C287 C290 1.367 . S
C288 C286 1.405 . S
C288 C290 1.403 . S
C288 C321 1.439 . S
C289 H274 0.930 . S
C289 N285 1.319 . S
C289 C287 1.397 . S
C290 C287 1.367 . S
C290 C288 1.403 . S
C290 H297 0.929 . S
N291 Eu256 2.562 . S
N291 C292 1.325 . S
N291 C294 1.351 . S
C292 H278 0.929 . S
C292 N291 1.325 . S
C292 C296 1.416 . S
C293 C294 1.430 . S
C293 C295 1.404 . S
C293 C322 1.387 . S
C294 C286 1.448 . S
C294 N291 1.351 . S
C294 C293 1.430 . S
C295 H284 0.930 . S
C295 C293 1.404 . S
C295 C296 1.366 . S
C296 H275 0.930 . S
C296 C292 1.416 . S
C296 C295 1.366 . S
H297 C290 0.929 . S
H298 C321 0.931 . S
H299 C322 0.931 . S
O300 Eu256 2.462 . S
O300 C320 1.252 . S
O301 Eu256 2.373 . S
O301 C312 1.249 . S
O302 Eu267 2.335 1_455 S
O302 C312 1.264 . S
O303 Eu256 2.432 . S
O303 C320 1.268 . S
O304 Eu256 2.291 . S
O304 C319 1.255 1_455 S
O305 Eu267 2.372 . S
O305 C319 1.257 . S
O306 Eu267 2.462 . S
O306 C331 1.252 . S
O307 Eu267 2.373 . S
O307 C323 1.249 . S
O308 Eu256 2.335 . S
O308 C323 1.264 1_455 S
O309 Eu267 2.432 . S
O309 C331 1.268 . S
O310 Eu267 2.291 1_455 S
O310 C330 1.255 . S
O311 Eu256 2.372 . S
O311 C330 1.257 . S
C312 O301 1.249 . S
C312 O302 1.264 . S
C313 C316 1.382 . S
C313 C318 1.390 . S
C313 C320 1.506 . S
C314 C315 1.398 . S
C314 C318 1.392 . S
C315 C314 1.398 . S
C315 C317 1.372 . S
C315 H332 0.931 . S
C316 C313 1.382 . S
C316 C317 1.390 . S
C316 H333 0.931 . S
C317 C315 1.372 . S
C317 C316 1.390 . S
C317 H334 0.929 . S
C318 C313 1.390 . S
C318 C314 1.392 . S
C318 H335 0.930 . S
C319 O304 1.255 1_655 S
C319 O305 1.257 . S
C320 Eu256 2.787 . S
C320 O300 1.252 . S
C320 O303 1.268 . S
C320 C313 1.506 . S
C321 C288 1.439 . S
C321 H298 0.931 . S
C321 C322 1.374 . S
C322 C293 1.387 . S
C322 H299 0.931 . S
C322 C321 1.374 . S
C323 O307 1.249 . S
C323 O308 1.264 1_655 S
C324 C327 1.382 . S
C324 C328 1.390 . S
C324 C331 1.506 . S
C325 C326 1.398 . S
C325 C328 1.392 . S
C326 C325 1.398 . S
C326 C329 1.372 . S
C326 H336 0.931 . S
C327 C324 1.382 . S
C327 C329 1.390 . S
C327 H337 0.931 . S
C328 C324 1.390 . S
C328 C325 1.392 . S
C328 H338 0.930 . S
C329 C326 1.372 . S
C329 C327 1.390 . S
C329 H339 0.929 . S
C330 O310 1.255 . S
C330 O311 1.257 . S
C331 Eu267 2.787 . S
C331 O306 1.252 . S
C331 O309 1.268 . S
C331 C324 1.506 . S
H332 C315 0.931 . S
H333 C316 0.931 . S
H334 C317 0.929 . S
H335 C318 0.930 . S
H336 C326 0.931 . S
H337 C327 0.931 . S
H338 C328 0.930 . S
H339 C329 0.929 . S
Eu340 N369 2.600 . S
Eu340 N375 2.562 . S
Eu340 O384 2.462 . S
Eu340 O385 2.373 . S
Eu340 O387 2.432 . S
Eu340 O388 2.291 . S
Eu340 O392 2.335 . S
Eu340 O395 2.372 . S
Eu340 C404 2.787 . S
C341 N342 1.365 . S
C341 C344 1.405 . S
C341 C348 1.448 . S
N342 C341 1.365 . S
N342 C345 1.319 . S
N342 Eu351 2.600 . S
C343 C345 1.397 . S
C343 C346 1.367 . S
C343 H363 0.931 . S
C344 C341 1.405 . S
C344 C346 1.403 . S
C344 C350 1.439 . S
C345 N342 1.319 . S
C345 C343 1.397 . S
C345 H356 0.930 . S
C346 C343 1.367 . S
C346 C344 1.403 . S
C346 H367 0.929 . S
C347 C348 1.430 . S
C347 C349 1.387 . S
C347 C353 1.404 . S
C348 C341 1.448 . S
C348 C347 1.430 . S
C348 N352 1.351 . S
C349 C347 1.387 . S
C349 C350 1.374 . S
C349 H364 0.931 . S
C350 C344 1.439 . S
C350 C349 1.374 . S
C350 H365 0.931 . S
Eu351 N342 2.600 . S
Eu351 N352 2.562 . S
Eu351 O386 2.335 . S
Eu351 O389 2.372 . S
Eu351 O390 2.462 . S
Eu351 O391 2.373 . S
Eu351 O393 2.432 . S
Eu351 O394 2.291 . S
Eu351 C415 2.787 . S
N352 C348 1.351 . S
N352 Eu351 2.562 . S
N352 C354 1.325 . S
C353 C347 1.404 . S
C353 C355 1.366 . S
C353 H361 0.930 . S
C354 N352 1.325 . S
C354 C355 1.416 . S
C354 H360 0.929 . S
C355 C353 1.366 . S
C355 C354 1.416 . S
C355 H357 0.930 . S
H356 C345 0.930 . S
H357 C355 0.930 . S
H358 C373 0.930 . S
H359 C380 0.930 . S
H360 C354 0.929 . S
H361 C353 0.930 . S
H362 C376 0.929 . S
H363 C343 0.931 . S
H364 C349 0.931 . S
H365 C350 0.931 . S
H366 C371 0.931 . S
H367 C346 0.929 . S
H368 C379 0.930 . S
N369 Eu340 2.600 . S
N369 C370 1.365 . S
N369 C373 1.319 . S
C370 N369 1.365 . S
C370 C372 1.405 . S
C370 C378 1.448 . S
C371 H366 0.931 . S
C371 C373 1.397 . S
C371 C374 1.367 . S
C372 C370 1.405 . S
C372 C374 1.403 . S
C372 C405 1.439 . S
C373 H358 0.930 . S
C373 N369 1.319 . S
C373 C371 1.397 . S
C374 C371 1.367 . S
C374 C372 1.403 . S
C374 H381 0.929 . S
N375 Eu340 2.562 . S
N375 C376 1.325 . S
N375 C378 1.351 . S
C376 H362 0.929 . S
C376 N375 1.325 . S
C376 C380 1.416 . S
C377 C378 1.430 . S
C377 C379 1.404 . S
C377 C406 1.387 . S
C378 C370 1.448 . S
C378 N375 1.351 . S
C378 C377 1.430 . S
C379 H368 0.930 . S
C379 C377 1.404 . S
C379 C380 1.366 . S
C380 H359 0.930 . S
C380 C376 1.416 . S
C380 C379 1.366 . S
H381 C374 0.929 . S
H382 C405 0.931 . S
H383 C406 0.931 . S
O384 Eu340 2.462 . S
O384 C404 1.252 . S
O385 Eu340 2.373 . S
O385 C396 1.249 . S
O386 Eu351 2.335 . S
O386 C396 1.264 . S
O387 Eu340 2.432 . S
O387 C404 1.268 . S
O388 Eu340 2.291 . S
O388 C403 1.255 . S
O389 Eu351 2.372 . S
O389 C403 1.257 . S
O390 Eu351 2.462 . S
O390 C415 1.252 . S
O391 Eu351 2.373 . S
O391 C407 1.249 . S
O392 Eu340 2.335 . S
O392 C407 1.264 . S
O393 Eu351 2.432 . S
O393 C415 1.268 . S
O394 Eu351 2.291 . S
O394 C414 1.255 . S
O395 Eu340 2.372 . S
O395 C414 1.257 . S
C396 O385 1.249 . S
C396 O386 1.264 . S
C397 C400 1.382 . S
C397 C402 1.390 . S
C397 C404 1.506 . S
C398 C399 1.398 . S
C398 C402 1.392 . S
C399 C398 1.398 . S
C399 C401 1.372 . S
C399 H416 0.931 . S
C400 C397 1.382 . S
C400 C401 1.390 . S
C400 H417 0.931 . S
C401 C399 1.372 . S
C401 C400 1.390 . S
C401 H418 0.929 . S
C402 C397 1.390 . S
C402 C398 1.392 . S
C402 H419 0.930 . S
C403 O388 1.255 . S
C403 O389 1.257 . S
C404 Eu340 2.787 . S
C404 O384 1.252 . S
C404 O387 1.268 . S
C404 C397 1.506 . S
C405 C372 1.439 . S
C405 H382 0.931 . S
C405 C406 1.374 . S
C406 C377 1.387 . S
C406 H383 0.931 . S
C406 C405 1.374 . S
C407 O391 1.249 . S
C407 O392 1.264 . S
C408 C411 1.382 . S
C408 C412 1.390 . S
C408 C415 1.506 . S
C409 C410 1.398 . S
C409 C412 1.392 . S
C410 C409 1.398 . S
C410 C413 1.372 . S
C410 H420 0.931 . S
C411 C408 1.382 . S
C411 C413 1.390 . S
C411 H421 0.931 . S
C412 C408 1.390 . S
C412 C409 1.392 . S
C412 H422 0.930 . S
C413 C410 1.372 . S
C413 C411 1.390 . S
C413 H423 0.929 . S
C414 O394 1.255 . S
C414 O395 1.257 . S
C415 Eu351 2.787 . S
C415 O390 1.252 . S
C415 O393 1.268 . S
C415 C408 1.506 . S
H416 C399 0.931 . S
H417 C400 0.931 . S
H418 C401 0.929 . S
H419 C402 0.930 . S
H420 C410 0.931 . S
H421 C411 0.931 . S
H422 C412 0.930 . S
H423 C413 0.929 . S
Eu424 N453 2.600 . S
Eu424 N459 2.562 . S
Eu424 O468 2.462 . S
Eu424 O469 2.373 . S
Eu424 O471 2.432 . S
Eu424 O472 2.291 . S
Eu424 O476 2.335 . S
Eu424 O479 2.372 . S
Eu424 C488 2.787 . S
C425 N426 1.365 . S
C425 C428 1.405 . S
C425 C432 1.448 . S
N426 C425 1.365 . S
N426 C429 1.319 . S
N426 Eu435 2.600 . S
C427 C429 1.397 . S
C427 C430 1.367 . S
C427 H447 0.931 . S
C428 C425 1.405 . S
C428 C430 1.403 . S
C428 C434 1.439 . S
C429 N426 1.319 . S
C429 C427 1.397 . S
C429 H440 0.930 . S
C430 C427 1.367 . S
C430 C428 1.403 . S
C430 H451 0.929 . S
C431 C432 1.430 . S
C431 C433 1.387 . S
C431 C437 1.404 . S
C432 C425 1.448 . S
C432 C431 1.430 . S
C432 N436 1.351 . S
C433 C431 1.387 . S
C433 C434 1.374 . S
C433 H448 0.931 . S
C434 C428 1.439 . S
C434 C433 1.374 . S
C434 H449 0.931 . S
Eu435 N426 2.600 . S
Eu435 N436 2.562 . S
Eu435 O470 2.335 1_655 S
Eu435 O473 2.372 . S
Eu435 O474 2.462 . S
Eu435 O475 2.373 . S
Eu435 O477 2.432 . S
Eu435 O478 2.291 1_655 S
Eu435 C499 2.787 . S
N436 C432 1.351 . S
N436 Eu435 2.562 . S
N436 C438 1.325 . S
C437 C431 1.404 . S
C437 C439 1.366 . S
C437 H445 0.930 . S
C438 N436 1.325 . S
C438 C439 1.416 . S
C438 H444 0.929 . S
C439 C437 1.366 . S
C439 C438 1.416 . S
C439 H441 0.930 . S
H440 C429 0.930 . S
H441 C439 0.930 . S
H442 C457 0.930 . S
H443 C464 0.930 . S
H444 C438 0.929 . S
H445 C437 0.930 . S
H446 C460 0.929 . S
H447 C427 0.931 . S
H448 C433 0.931 . S
H449 C434 0.931 . S
H450 C455 0.931 . S
H451 C430 0.929 . S
H452 C463 0.930 . S
N453 Eu424 2.600 . S
N453 C454 1.365 . S
N453 C457 1.319 . S
C454 N453 1.365 . S
C454 C456 1.405 . S
C454 C462 1.448 . S
C455 H450 0.931 . S
C455 C457 1.397 . S
C455 C458 1.367 . S
C456 C454 1.405 . S
C456 C458 1.403 . S
C456 C489 1.439 . S
C457 H442 0.930 . S
C457 N453 1.319 . S
C457 C455 1.397 . S
C458 C455 1.367 . S
C458 C456 1.403 . S
C458 H465 0.929 . S
N459 Eu424 2.562 . S
N459 C460 1.325 . S
N459 C462 1.351 . S
C460 H446 0.929 . S
C460 N459 1.325 . S
C460 C464 1.416 . S
C461 C462 1.430 . S
C461 C463 1.404 . S
C461 C490 1.387 . S
C462 C454 1.448 . S
C462 N459 1.351 . S
C462 C461 1.430 . S
C463 H452 0.930 . S
C463 C461 1.404 . S
C463 C464 1.366 . S
C464 H443 0.930 . S
C464 C460 1.416 . S
C464 C463 1.366 . S
H465 C458 0.929 . S
H466 C489 0.931 . S
H467 C490 0.931 . S
O468 Eu424 2.462 . S
O468 C488 1.252 . S
O469 Eu424 2.373 . S
O469 C480 1.249 . S
O470 Eu435 2.335 1_455 S
O470 C480 1.264 . S
O471 Eu424 2.432 . S
O471 C488 1.268 . S
O472 Eu424 2.291 . S
O472 C487 1.255 1_455 S
O473 Eu435 2.372 . S
O473 C487 1.257 . S
O474 Eu435 2.462 . S
O474 C499 1.252 . S
O475 Eu435 2.373 . S
O475 C491 1.249 . S
O476 Eu424 2.335 . S
O476 C491 1.264 1_455 S
O477 Eu435 2.432 . S
O477 C499 1.268 . S
O478 Eu435 2.291 1_455 S
O478 C498 1.255 . S
O479 Eu424 2.372 . S
O479 C498 1.257 . S
C480 O469 1.249 . S
C480 O470 1.264 . S
C481 C484 1.382 . S
C481 C486 1.390 . S
C481 C488 1.506 . S
C482 C483 1.398 . S
C482 C486 1.392 . S
C483 C482 1.398 . S
C483 C485 1.372 . S
C483 H500 0.931 . S
C484 C481 1.382 . S
C484 C485 1.390 . S
C484 H501 0.931 . S
C485 C483 1.372 . S
C485 C484 1.390 . S
C485 H502 0.929 . S
C486 C481 1.390 . S
C486 C482 1.392 . S
C486 H503 0.930 . S
C487 O472 1.255 1_655 S
C487 O473 1.257 . S
C488 Eu424 2.787 . S
C488 O468 1.252 . S
C488 O471 1.268 . S
C488 C481 1.506 . S
C489 C456 1.439 . S
C489 H466 0.931 . S
C489 C490 1.374 . S
C490 C461 1.387 . S
C490 H467 0.931 . S
C490 C489 1.374 . S
C491 O475 1.249 . S
C491 O476 1.264 1_655 S
C492 C495 1.382 . S
C492 C496 1.390 . S
C492 C499 1.506 . S
C493 C494 1.398 . S
C493 C496 1.392 . S
C494 C493 1.398 . S
C494 C497 1.372 . S
C494 H504 0.931 . S
C495 C492 1.382 . S
C495 C497 1.390 . S
C495 H505 0.931 . S
C496 C492 1.390 . S
C496 C493 1.392 . S
C496 H506 0.930 . S
C497 C494 1.372 . S
C497 C495 1.390 . S
C497 H507 0.929 . S
C498 O478 1.255 . S
C498 O479 1.257 . S
C499 Eu435 2.787 . S
C499 O474 1.252 . S
C499 O477 1.268 . S
C499 C492 1.506 . S
H500 C483 0.931 . S
H501 C484 0.931 . S
H502 C485 0.929 . S
H503 C486 0.930 . S
H504 C494 0.931 . S
H505 C495 0.931 . S
H506 C496 0.930 . S
H507 C497 0.929 . S
Eu508 N537 2.600 . S
Eu508 N543 2.562 . S
Eu508 O552 2.462 . S
Eu508 O553 2.373 . S
Eu508 O555 2.432 . S
Eu508 O556 2.291 . S
Eu508 O560 2.335 . S
Eu508 O563 2.372 . S
Eu508 C572 2.787 . S
C509 N510 1.365 . S
C509 C512 1.405 . S
C509 C516 1.448 . S
N510 C509 1.365 . S
N510 C513 1.319 . S
N510 Eu519 2.600 . S
C511 C513 1.397 . S
C511 C514 1.367 . S
C511 H531 0.931 . S
C512 C509 1.405 . S
C512 C514 1.403 . S
C512 C518 1.439 . S
C513 N510 1.319 . S
C513 C511 1.397 . S
C513 H524 0.930 . S
C514 C511 1.367 . S
C514 C512 1.403 . S
C514 H535 0.929 . S
C515 C516 1.430 . S
C515 C517 1.387 . S
C515 C521 1.404 . S
C516 C509 1.448 . S
C516 C515 1.430 . S
C516 N520 1.351 . S
C517 C515 1.387 . S
C517 C518 1.374 . S
C517 H532 0.931 . S
C518 C512 1.439 . S
C518 C517 1.374 . S
C518 H533 0.931 . S
Eu519 N510 2.600 . S
Eu519 N520 2.562 . S
Eu519 O554 2.335 . S
Eu519 O557 2.372 . S
Eu519 O558 2.462 . S
Eu519 O559 2.373 . S
Eu519 O561 2.432 . S
Eu519 O562 2.291 . S
Eu519 C583 2.787 . S
N520 C516 1.351 . S
N520 Eu519 2.562 . S
N520 C522 1.325 . S
C521 C515 1.404 . S
C521 C523 1.366 . S
C521 H529 0.930 . S
C522 N520 1.325 . S
C522 C523 1.416 . S
C522 H528 0.929 . S
C523 C521 1.366 . S
C523 C522 1.416 . S
C523 H525 0.930 . S
H524 C513 0.930 . S
H525 C523 0.930 . S
H526 C541 0.930 . S
H527 C548 0.930 . S
H528 C522 0.929 . S
H529 C521 0.930 . S
H530 C544 0.929 . S
H531 C511 0.931 . S
H532 C517 0.931 . S
H533 C518 0.931 . S
H534 C539 0.931 . S
H535 C514 0.929 . S
H536 C547 0.930 . S
N537 Eu508 2.600 . S
N537 C538 1.365 . S
N537 C541 1.319 . S
C538 N537 1.365 . S
C538 C540 1.405 . S
C538 C546 1.448 . S
C539 H534 0.931 . S
C539 C541 1.397 . S
C539 C542 1.367 . S
C540 C538 1.405 . S
C540 C542 1.403 . S
C540 C573 1.439 . S
C541 H526 0.930 . S
C541 N537 1.319 . S
C541 C539 1.397 . S
C542 C539 1.367 . S
C542 C540 1.403 . S
C542 H549 0.929 . S
N543 Eu508 2.562 . S
N543 C544 1.325 . S
N543 C546 1.351 . S
C544 H530 0.929 . S
C544 N543 1.325 . S
C544 C548 1.416 . S
C545 C546 1.430 . S
C545 C547 1.404 . S
C545 C574 1.387 . S
C546 C538 1.448 . S
C546 N543 1.351 . S
C546 C545 1.430 . S
C547 H536 0.930 . S
C547 C545 1.404 . S
C547 C548 1.366 . S
C548 H527 0.930 . S
C548 C544 1.416 . S
C548 C547 1.366 . S
H549 C542 0.929 . S
H550 C573 0.931 . S
H551 C574 0.931 . S
O552 Eu508 2.462 . S
O552 C572 1.252 . S
O553 Eu508 2.373 . S
O553 C564 1.249 . S
O554 Eu519 2.335 . S
O554 C564 1.264 . S
O555 Eu508 2.432 . S
O555 C572 1.268 . S
O556 Eu508 2.291 . S
O556 C571 1.255 . S
O557 Eu519 2.372 . S
O557 C571 1.257 . S
O558 Eu519 2.462 . S
O558 C583 1.252 . S
O559 Eu519 2.373 . S
O559 C575 1.249 . S
O560 Eu508 2.335 . S
O560 C575 1.264 . S
O561 Eu519 2.432 . S
O561 C583 1.268 . S
O562 Eu519 2.291 . S
O562 C582 1.255 . S
O563 Eu508 2.372 . S
O563 C582 1.257 . S
C564 O553 1.249 . S
C564 O554 1.264 . S
C565 C568 1.382 . S
C565 C570 1.390 . S
C565 C572 1.506 . S
C566 C567 1.398 . S
C566 C570 1.392 . S
C567 C566 1.398 . S
C567 C569 1.372 . S
C567 H584 0.931 . S
C568 C565 1.382 . S
C568 C569 1.390 . S
C568 H585 0.931 . S
C569 C567 1.372 . S
C569 C568 1.390 . S
C569 H586 0.929 . S
C570 C565 1.390 . S
C570 C566 1.392 . S
C570 H587 0.930 . S
C571 O556 1.255 . S
C571 O557 1.257 . S
C572 Eu508 2.787 . S
C572 O552 1.252 . S
C572 O555 1.268 . S
C572 C565 1.506 . S
C573 C540 1.439 . S
C573 H550 0.931 . S
C573 C574 1.374 . S
C574 C545 1.387 . S
C574 H551 0.931 . S
C574 C573 1.374 . S
C575 O559 1.249 . S
C575 O560 1.264 . S
C576 C579 1.382 . S
C576 C580 1.390 . S
C576 C583 1.506 . S
C577 C578 1.398 . S
C577 C580 1.392 . S
C578 C577 1.398 . S
C578 C581 1.372 . S
C578 H588 0.931 . S
C579 C576 1.382 . S
C579 C581 1.390 . S
C579 H589 0.931 . S
C580 C576 1.390 . S
C580 C577 1.392 . S
C580 H590 0.930 . S
C581 C578 1.372 . S
C581 C579 1.390 . S
C581 H591 0.929 . S
C582 O562 1.255 . S
C582 O563 1.257 . S
C583 Eu519 2.787 . S
C583 O558 1.252 . S
C583 O561 1.268 . S
C583 C576 1.506 . S
H584 C567 0.931 . S
H585 C568 0.931 . S
H586 C569 0.929 . S
H587 C570 0.930 . S
H588 C578 0.931 . S
H589 C579 0.931 . S
H590 C580 0.930 . S
H591 C581 0.929 . S
H592 C610 0.951 . S
H593 C612 0.951 . S
H594 C614 0.950 1_545 S
H595 C615 0.950 . S
H596 C617 0.950 . S
H597 C620 0.950 1_545 S
H598 C621 0.950 . S
H599 C623 0.950 . S
H600 C624 0.950 . S
H601 C625 0.951 . S
H602 C627 0.951 . S
H603 C629 0.950 . S
H604 C630 0.950 . S
H605 C632 0.950 . S
H606 C635 0.950 . S
H607 C636 0.950 . S
H608 C638 0.950 . S
H609 C639 0.950 . S
C610 H592 0.951 . S
C610 C611 1.366 . S
C610 C612 1.388 . S
C611 C610 1.366 . S
C611 C615 1.385 . S
C612 H593 0.951 . S
C612 C610 1.388 . S
C612 C613 1.366 . S
C613 C612 1.366 . S
C613 C614 1.414 . S
C613 C616 1.499 1_565 S
C614 H594 0.950 1_565 S
C614 C613 1.414 . S
C614 C615 1.374 . S
C615 H595 0.950 . S
C615 C611 1.385 . S
C615 C614 1.374 . S
C616 C613 1.499 1_545 S
C616 C617 1.373 . S
C616 C618 1.389 . S
C617 H596 0.950 . S
C617 C616 1.373 . S
C617 C633 1.377 . S
C618 C616 1.389 . S
C618 C619 1.524 1_545 S
C618 C632 1.377 . S
C619 C618 1.524 1_565 S
C619 C620 1.397 . S
C619 C624 1.363 . S
C620 H597 0.950 1_565 S
C620 C619 1.397 . S
C620 C621 1.334 . S
C621 H598 0.950 . S
C621 C620 1.334 . S
C621 C622 1.287 . S
C622 C621 1.287 . S
C622 C623 1.524 . S
C622 H641 0.913 . S
C623 H599 0.950 . S
C623 C622 1.524 . S
C623 C624 1.415 . S
C624 H600 0.950 . S
C624 C619 1.363 . S
C624 C623 1.415 . S
C625 H601 0.951 . S
C625 C626 1.366 . S
C625 C627 1.388 . S
C626 C625 1.366 . S
C626 C630 1.385 . S
C627 H602 0.951 . S
C627 C625 1.388 . S
C627 C628 1.366 . S
C628 C627 1.366 . S
C628 C629 1.414 . S
C628 C631 1.499 . S
C629 H603 0.950 . S
C629 C628 1.414 . S
C629 C630 1.374 . S
C630 H604 0.950 . S
C630 C626 1.385 . S
C630 C629 1.374 . S
C631 C628 1.499 . S
C631 C632 1.373 . S
C631 C633 1.389 . S
C632 H605 0.950 . S
C632 C618 1.377 . S
C632 C631 1.373 . S
C633 C617 1.377 . S
C633 C631 1.389 . S
C633 C634 1.524 . S
C634 C633 1.524 . S
C634 C635 1.397 . S
C634 C639 1.363 . S
C635 H606 0.950 . S
C635 C634 1.397 . S
C635 C636 1.334 1_455 S
C636 H607 0.950 . S
C636 C635 1.334 1_655 S
C636 C637 1.287 . S
C637 C636 1.287 . S
C637 C638 1.524 1_655 S
C637 H640 0.999 . S
C638 H608 0.950 . S
C638 C637 1.524 1_455 S
C638 C639 1.415 . S
C639 H609 0.950 . S
C639 C634 1.363 . S
C639 C638 1.415 . S
H640 C637 0.999 . S
H641 C622 0.913 . S
H642 C660 0.951 . S
H643 C662 0.951 . S
H644 C664 0.950 . S
H645 C665 0.950 . S
H646 C667 0.950 . S
H647 C670 0.950 . S
H648 C671 0.950 . S
H649 C673 0.950 . S
H650 C674 0.950 . S
H651 C675 0.951 . S
H652 C677 0.951 . S
H653 C679 0.950 . S
H654 C680 0.950 . S
H655 C682 0.950 . S
H656 C685 0.950 . S
H657 C686 0.950 . S
H658 C688 0.950 . S
H659 C689 0.950 . S
C660 H642 0.951 . S
C660 C661 1.366 . S
C660 C662 1.388 . S
C661 C660 1.366 . S
C661 C665 1.385 . S
C662 H643 0.951 . S
C662 C660 1.388 . S
C662 C663 1.366 . S
C663 C662 1.366 . S
C663 C664 1.414 . S
C663 C666 1.499 . S
C664 H644 0.950 . S
C664 C663 1.414 . S
C664 C665 1.374 . S
C665 H645 0.950 . S
C665 C661 1.385 . S
C665 C664 1.374 . S
C666 C663 1.499 . S
C666 C667 1.373 . S
C666 C668 1.389 . S
C667 H646 0.950 . S
C667 C666 1.373 . S
C667 C683 1.377 . S
C668 C666 1.389 . S
C668 C669 1.524 . S
C668 C682 1.377 . S
C669 C668 1.524 . S
C669 C670 1.397 . S
C669 C674 1.363 . S
C670 H647 0.950 . S
C670 C669 1.397 . S
C670 C671 1.334 . S
C671 H648 0.950 . S
C671 C670 1.334 . S
C671 C672 1.287 . S
C672 C671 1.287 . S
C672 C673 1.524 . S
C672 H691 0.913 . S
C673 H649 0.950 . S
C673 C672 1.524 . S
C673 C674 1.415 . S
C674 H650 0.950 . S
C674 C669 1.363 . S
C674 C673 1.415 . S
C675 H651 0.951 . S
C675 C676 1.366 . S
C675 C677 1.388 . S
C676 C675 1.366 . S
C676 C680 1.385 . S
C677 H652 0.951 . S
C677 C675 1.388 . S
C677 C678 1.366 . S
C678 C677 1.366 . S
C678 C679 1.414 . S
C678 C681 1.499 . S
C679 H653 0.950 . S
C679 C678 1.414 . S
C679 C680 1.374 . S
C680 H654 0.950 . S
C680 C676 1.385 . S
C680 C679 1.374 . S
C681 C678 1.499 . S
C681 C682 1.373 . S
C681 C683 1.389 . S
C682 H655 0.950 . S
C682 C668 1.377 . S
C682 C681 1.373 . S
C683 C667 1.377 . S
C683 C681 1.389 . S
C683 C684 1.524 . S
C684 C683 1.524 . S
C684 C685 1.397 . S
C684 C689 1.363 . S
C685 H656 0.950 . S
C685 C684 1.397 . S
C685 C686 1.334 . S
C686 H657 0.950 . S
C686 C685 1.334 . S
C686 C687 1.287 . S
C687 C686 1.287 . S
C687 C688 1.524 . S
C687 H690 0.999 . S
C688 H658 0.950 . S
C688 C687 1.524 . S
C688 C689 1.415 . S
C689 H659 0.950 . S
C689 C684 1.363 . S
C689 C688 1.415 . S
H690 C687 0.999 . S
H691 C672 0.913 . S
H692 C710 0.951 . S
H693 C712 0.951 . S
H694 C714 0.950 . S
H695 C715 0.950 . S
H696 C717 0.950 . S
H697 C720 0.950 . S
H698 C721 0.950 . S
H699 C723 0.950 . S
H700 C724 0.950 . S
H701 C725 0.951 . S
H702 C727 0.951 . S
H703 C729 0.950 . S
H704 C730 0.950 . S
H705 C732 0.950 . S
H706 C735 0.950 . S
H707 C736 0.950 . S
H708 C738 0.950 . S
H709 C739 0.950 . S
C710 H692 0.951 . S
C710 C711 1.366 . S
C710 C712 1.388 . S
C711 C710 1.366 . S
C711 C715 1.385 . S
C712 H693 0.951 . S
C712 C710 1.388 . S
C712 C713 1.366 . S
C713 C712 1.366 . S
C713 C714 1.414 . S
C713 C716 1.499 . S
C714 H694 0.950 . S
C714 C713 1.414 . S
C714 C715 1.374 . S
C715 H695 0.950 . S
C715 C711 1.385 . S
C715 C714 1.374 . S
C716 C713 1.499 . S
C716 C717 1.373 . S
C716 C718 1.389 . S
C717 H696 0.950 . S
C717 C716 1.373 . S
C717 C733 1.377 . S
C718 C716 1.389 . S
C718 C719 1.524 . S
C718 C732 1.377 . S
C719 C718 1.524 . S
C719 C720 1.397 . S
C719 C724 1.363 . S
C720 H697 0.950 . S
C720 C719 1.397 . S
C720 C721 1.334 . S
C721 H698 0.950 . S
C721 C720 1.334 . S
C721 C722 1.287 . S
C722 C721 1.287 . S
C722 C723 1.524 . S
C722 H741 0.913 . S
C723 H699 0.950 . S
C723 C722 1.524 . S
C723 C724 1.415 . S
C724 H700 0.950 . S
C724 C719 1.363 . S
C724 C723 1.415 . S
C725 H701 0.951 . S
C725 C726 1.366 . S
C725 C727 1.388 . S
C726 C725 1.366 . S
C726 C730 1.385 . S
C727 H702 0.951 . S
C727 C725 1.388 . S
C727 C728 1.366 . S
C728 C727 1.366 . S
C728 C729 1.414 . S
C728 C731 1.499 . S
C729 H703 0.950 . S
C729 C728 1.414 . S
C729 C730 1.374 . S
C730 H704 0.950 . S
C730 C726 1.385 . S
C730 C729 1.374 . S
C731 C728 1.499 . S
C731 C732 1.373 . S
C731 C733 1.389 . S
C732 H705 0.950 . S
C732 C718 1.377 . S
C732 C731 1.373 . S
C733 C717 1.377 . S
C733 C731 1.389 . S
C733 C734 1.524 . S
C734 C733 1.524 . S
C734 C735 1.397 . S
C734 C739 1.363 . S
C735 H706 0.950 . S
C735 C734 1.397 . S
C735 C736 1.334 . S
C736 H707 0.950 . S
C736 C735 1.334 . S
C736 C737 1.287 . S
C737 C736 1.287 . S
C737 C738 1.524 . S
C737 H740 0.999 . S
C738 H708 0.950 . S
C738 C737 1.524 . S
C738 C739 1.415 . S
C739 H709 0.950 . S
C739 C734 1.363 . S
C739 C738 1.415 . S
H740 C737 0.999 . S
H741 C722 0.913 . S
H742 C760 0.951 . S
H743 C762 0.951 1_545 S
H744 C764 0.950 . S
H745 C765 0.950 . S
H746 C767 0.950 1_565 S
H747 C770 0.928 1_565 S
H748 C771 0.950 . S
H749 C773 0.950 . S
H750 C774 0.950 . S
H751 C775 0.951 . S
H752 C777 0.951 . S
H753 C779 0.950 . S
H754 C780 0.950 . S
H755 C782 0.950 . S
H756 C785 0.950 . S
H757 C786 0.950 . S
H758 C788 0.950 . S
H759 C789 0.989 . S
C760 H742 0.951 . S
C760 C761 1.366 . S
C760 C762 1.388 . S
C761 C760 1.366 . S
C761 C765 1.385 . S
C762 H743 0.951 1_565 S
C762 C760 1.388 . S
C762 C763 1.366 . S
C763 C762 1.366 . S
C763 C764 1.414 . S
C763 C766 1.499 1_565 S
C764 H744 0.950 . S
C764 C763 1.414 . S
C764 C765 1.374 . S
C765 H745 0.950 . S
C765 C761 1.385 . S
C765 C764 1.374 . S
C766 C763 1.499 1_545 S
C766 C767 1.373 . S
C766 C768 1.389 . S
C767 H746 0.950 1_545 S
C767 C766 1.373 . S
C767 C783 1.377 . S
C768 C766 1.389 . S
C768 C769 1.524 . S
C768 C782 1.377 . S
C769 C768 1.524 . S
C769 C770 1.397 . S
C769 C774 1.363 . S
C770 H747 0.928 1_545 S
C770 C769 1.397 . S
C770 C771 1.334 . S
C771 H748 0.950 . S
C771 C770 1.334 . S
C771 C772 1.287 . S
C772 C771 1.287 . S
C772 C773 1.524 . S
C772 H791 0.913 . S
C773 H749 0.950 . S
C773 C772 1.524 . S
C773 C774 1.415 . S
C774 H750 0.950 . S
C774 C769 1.363 . S
C774 C773 1.415 . S
C775 H751 0.951 . S
C775 C776 1.366 . S
C775 C777 1.388 . S
C776 C775 1.366 . S
C776 C780 1.385 . S
C777 H752 0.951 . S
C777 C775 1.388 . S
C777 C778 1.366 . S
C778 C777 1.366 . S
C778 C779 1.414 . S
C778 C781 1.499 . S
C779 H753 0.950 . S
C779 C778 1.414 . S
C779 C780 1.374 . S
C780 H754 0.950 . S
C780 C776 1.385 . S
C780 C779 1.374 . S
C781 C778 1.499 . S
C781 C782 1.373 . S
C781 C783 1.389 . S
C782 H755 0.950 . S
C782 C768 1.377 . S
C782 C781 1.373 . S
C783 C767 1.377 . S
C783 C781 1.389 . S
C783 C784 1.524 . S
C784 C783 1.524 . S
C784 C785 1.397 . S
C784 C789 1.318 1_545 S
C785 H756 0.950 . S
C785 C784 1.397 . S
C785 C786 1.334 . S
C786 H757 0.950 . S
C786 C785 1.334 . S
C786 C787 1.287 . S
C787 C786 1.287 . S
C787 C788 1.524 1_545 S
C787 H790 0.999 . S
C788 H758 0.950 . S
C788 C787 1.524 1_565 S
C788 C789 1.423 . S
C789 H759 0.989 . S
C789 C784 1.318 1_565 S
C789 C788 1.423 . S
H790 C787 0.999 . S
H791 C772 0.913 . S
H792 C810 0.951 . S
H793 C812 0.951 . S
H794 C814 0.950 . S
H795 C815 0.950 . S
H796 C817 0.950 . S
H797 C820 0.950 . S
H798 C821 0.950 . S
H799 C823 0.950 1_455 S
H800 C824 0.950 . S
H801 C825 0.951 . S
H802 C827 0.951 . S
H803 C829 0.950 . S
H804 C830 0.950 1_455 S
H805 C832 0.950 . S
H806 C835 0.950 . S
H807 C836 0.950 . S
H808 C838 0.950 . S
H809 C839 0.950 . S
C810 H792 0.951 . S
C810 C811 1.366 . S
C810 C812 1.388 . S
C811 C810 1.366 . S
C811 C815 1.385 . S
C812 H793 0.951 . S
C812 C810 1.388 . S
C812 C813 1.366 . S
C813 C812 1.366 . S
C813 C814 1.414 . S
C813 C816 1.499 1_545 S
C814 H794 0.950 . S
C814 C813 1.414 . S
C814 C815 1.374 . S
C815 H795 0.950 . S
C815 C811 1.385 . S
C815 C814 1.374 . S
C816 C813 1.499 1_565 S
C816 C817 1.373 . S
C816 C818 1.389 . S
C817 H796 0.950 . S
C817 C816 1.373 . S
C817 C833 1.377 . S
C818 C816 1.389 . S
C818 C819 1.524 . S
C818 C832 1.377 . S
C819 C818 1.524 . S
C819 C820 1.397 . S
C819 C824 1.363 . S
C820 H797 0.950 . S
C820 C819 1.397 . S
C820 C821 1.334 . S
C821 H798 0.950 . S
C821 C820 1.334 . S
C821 C822 1.287 . S
C822 C821 1.287 . S
C822 C823 1.524 . S
C822 H841 0.913 . S
C823 H799 0.950 1_655 S
C823 C822 1.524 . S
C823 C824 1.415 . S
C824 H800 0.950 . S
C824 C819 1.363 . S
C824 C823 1.415 . S
C825 H801 0.951 . S
C825 C826 1.366 . S
C825 C827 1.388 . S
C826 C825 1.366 . S
C826 C830 1.385 . S
C827 H802 0.951 . S
C827 C825 1.388 . S
C827 C828 1.366 . S
C828 C827 1.366 . S
C828 C829 1.414 . S
C828 C831 1.499 . S
C829 H803 0.950 . S
C829 C828 1.414 . S
C829 C830 1.374 . S
C830 H804 0.950 1_655 S
C830 C826 1.385 . S
C830 C829 1.374 . S
C831 C828 1.499 . S
C831 C832 1.373 . S
C831 C833 1.389 . S
C832 H805 0.950 . S
C832 C818 1.377 . S
C832 C831 1.373 . S
C833 C817 1.377 . S
C833 C831 1.389 . S
C833 C834 1.524 . S
C834 C833 1.524 . S
C834 C835 1.397 . S
C834 C839 1.363 . S
C835 H806 0.950 . S
C835 C834 1.397 . S
C835 C836 1.334 . S
C836 H807 0.950 . S
C836 C835 1.334 . S
C836 C837 1.287 . S
C837 C836 1.287 . S
C837 C838 1.524 . S
C837 H840 0.999 . S
C838 H808 0.950 . S
C838 C837 1.524 . S
C838 C839 1.415 . S
C839 H809 0.950 . S
C839 C834 1.363 . S
C839 C838 1.415 . S
H840 C837 0.999 . S
H841 C822 0.913 . S
H842 C860 0.951 . S
H843 C862 0.951 . S
H844 C864 0.950 . S
H845 C865 0.950 . S
H846 C867 0.950 . S
H847 C870 0.950 . S
H848 C871 0.950 . S
H849 C873 0.950 . S
H850 C874 0.950 . S
H851 C875 0.951 . S
H852 C877 0.951 . S
H853 C879 0.950 . S
H854 C880 0.950 . S
H855 C882 0.950 . S
H856 C885 0.950 . S
H857 C886 0.950 . S
H858 C888 0.950 . S
H859 C889 0.950 . S
C860 H842 0.951 . S
C860 C861 1.366 . S
C860 C862 1.388 . S
C861 C860 1.366 . S
C861 C865 1.385 . S
C862 H843 0.951 . S
C862 C860 1.388 . S
C862 C863 1.366 . S
C863 C862 1.366 . S
C863 C864 1.414 . S
C863 C866 1.499 . S
C864 H844 0.950 . S
C864 C863 1.414 . S
C864 C865 1.374 . S
C865 H845 0.950 . S
C865 C861 1.385 . S
C865 C864 1.374 . S
C866 C863 1.499 . S
C866 C867 1.373 . S
C866 C868 1.389 . S
C867 H846 0.950 . S
C867 C866 1.373 . S
C867 C883 1.377 . S
C868 C866 1.389 . S
C868 C869 1.524 . S
C868 C882 1.377 . S
C869 C868 1.524 . S
C869 C870 1.397 . S
C869 C874 1.363 . S
C870 H847 0.950 . S
C870 C869 1.397 . S
C870 C871 1.334 . S
C871 H848 0.950 . S
C871 C870 1.334 . S
C871 C872 1.287 . S
C872 C871 1.287 . S
C872 C873 1.524 . S
C872 H891 0.913 . S
C873 H849 0.950 . S
C873 C872 1.524 . S
C873 C874 1.415 . S
C874 H850 0.950 . S
C874 C869 1.363 . S
C874 C873 1.415 . S
C875 H851 0.951 . S
C875 C876 1.366 . S
C875 C877 1.388 . S
C876 C875 1.366 . S
C876 C880 1.385 . S
C877 H852 0.951 . S
C877 C875 1.388 . S
C877 C878 1.366 . S
C878 C877 1.366 . S
C878 C879 1.414 . S
C878 C881 1.499 . S
C879 H853 0.950 . S
C879 C878 1.414 . S
C879 C880 1.374 . S
C880 H854 0.950 . S
C880 C876 1.385 . S
C880 C879 1.374 . S
C881 C878 1.499 . S
C881 C882 1.373 . S
C881 C883 1.389 . S
C882 H855 0.950 . S
C882 C868 1.377 . S
C882 C881 1.373 . S
C883 C867 1.377 . S
C883 C881 1.389 . S
C883 C884 1.524 . S
C884 C883 1.524 . S
C884 C885 1.397 . S
C884 C889 1.363 . S
C885 H856 0.950 . S
C885 C884 1.397 . S
C885 C886 1.334 . S
C886 H857 0.950 . S
C886 C885 1.334 . S
C886 C887 1.287 . S
C887 C886 1.287 . S
C887 C888 1.524 . S
C887 H890 0.999 . S
C888 H858 0.950 . S
C888 C887 1.524 . S
C888 C889 1.415 . S
C889 H859 0.950 . S
C889 C884 1.363 . S
C889 C888 1.415 . S
H890 C887 0.999 . S
H891 C872 0.913 . S
H892 C910 0.951 . S
H893 C912 0.951 . S
H894 C914 0.950 . S
H895 C915 0.950 . S
H896 C917 0.950 . S
H897 C920 0.950 . S
H898 C921 0.950 . S
H899 C923 0.950 . S
H900 C924 0.950 . S
H901 C925 0.951 . S
H902 C927 0.951 . S
H903 C929 0.950 . S
H904 C930 0.950 . S
H905 C932 0.950 . S
H906 C935 0.950 . S
H907 C936 0.950 . S
H908 C938 0.950 . S
H909 C939 0.950 . S
C910 H892 0.951 . S
C910 C911 1.366 . S
C910 C912 1.388 . S
C911 C910 1.366 . S
C911 C915 1.385 . S
C912 H893 0.951 . S
C912 C910 1.388 . S
C912 C913 1.366 . S
C913 C912 1.366 . S
C913 C914 1.414 . S
C913 C916 1.499 . S
C914 H894 0.950 . S
C914 C913 1.414 . S
C914 C915 1.374 . S
C915 H895 0.950 . S
C915 C911 1.385 . S
C915 C914 1.374 . S
C916 C913 1.499 . S
C916 C917 1.373 . S
C916 C918 1.389 . S
C917 H896 0.950 . S
C917 C916 1.373 . S
C917 C933 1.377 . S
C918 C916 1.389 . S
C918 C919 1.524 . S
C918 C932 1.377 . S
C919 C918 1.524 . S
C919 C920 1.397 . S
C919 C924 1.363 . S
C920 H897 0.950 . S
C920 C919 1.397 . S
C920 C921 1.334 . S
C921 H898 0.950 . S
C921 C920 1.334 . S
C921 C922 1.287 . S
C922 C921 1.287 . S
C922 C923 1.524 . S
C922 H941 0.913 . S
C923 H899 0.950 . S
C923 C922 1.524 . S
C923 C924 1.415 . S
C924 H900 0.950 . S
C924 C919 1.363 . S
C924 C923 1.415 . S
C925 H901 0.951 . S
C925 C926 1.366 . S
C925 C927 1.388 . S
C926 C925 1.366 . S
C926 C930 1.385 . S
C927 H902 0.951 . S
C927 C925 1.388 . S
C927 C928 1.366 . S
C928 C927 1.366 . S
C928 C929 1.414 . S
C928 C931 1.499 . S
C929 H903 0.950 . S
C929 C928 1.414 . S
C929 C930 1.374 . S
C930 H904 0.950 . S
C930 C926 1.385 . S
C930 C929 1.374 . S
C931 C928 1.499 . S
C931 C932 1.373 . S
C931 C933 1.389 . S
C932 H905 0.950 . S
C932 C918 1.377 . S
C932 C931 1.373 . S
C933 C917 1.377 . S
C933 C931 1.389 . S
C933 C934 1.524 . S
C934 C933 1.524 . S
C934 C935 1.397 . S
C934 C939 1.363 . S
C935 H906 0.950 . S
C935 C934 1.397 . S
C935 C936 1.334 . S
C936 H907 0.950 . S
C936 C935 1.334 . S
C936 C937 1.287 . S
C937 C936 1.287 . S
C937 C938 1.524 . S
C937 H940 0.999 . S
C938 H908 0.950 . S
C938 C937 1.524 . S
C938 C939 1.415 . S
C939 H909 0.950 . S
C939 C934 1.363 . S
C939 C938 1.415 . S
H940 C937 0.999 . S
H941 C922 0.913 . S
H942 C960 0.951 . S
H943 C962 0.918 1_565 S
H944 C964 0.950 . S
H945 C965 0.950 . S
H946 C967 0.950 . S
H947 C970 0.950 . S
H948 C971 0.950 . S
H949 C973 0.950 1_565 S
H950 C974 0.950 . S
H951 C975 0.951 . S
H952 C977 0.951 . S
H953 C979 0.950 . S
H954 C980 0.950 . S
H955 C982 0.950 . S
H956 C985 0.950 . S
H957 C986 0.950 . S
H958 C988 0.950 . S
H959 C989 0.950 . S
C960 H942 0.951 . S
C960 C961 1.366 . S
C960 C962 1.388 . S
C961 C960 1.366 . S
C961 C965 1.385 . S
C962 H943 0.918 1_545 S
C962 C960 1.388 . S
C962 C963 1.366 . S
C963 C962 1.366 . S
C963 C964 1.414 . S
C963 C966 1.499 1_545 S
C964 H944 0.950 . S
C964 C963 1.414 . S
C964 C965 1.374 . S
C965 H945 0.950 . S
C965 C961 1.385 . S
C965 C964 1.374 . S
C966 C963 1.499 1_565 S
C966 C967 1.373 . S
C966 C968 1.389 . S
C967 H946 0.950 . S
C967 C966 1.373 . S
C967 C983 1.377 . S
C968 C966 1.389 . S
C968 C969 1.503 1_565 S
C968 C982 1.377 . S
C969 C968 1.503 1_545 S
C969 C970 1.438 . S
C969 C974 1.344 1_545 S
C970 H947 0.950 . S
C970 C969 1.438 . S
C970 C971 1.334 . S
C971 H948 0.950 . S
C971 C970 1.334 . S
C971 C972 1.287 . S
C972 C971 1.287 . S
C972 C973 1.524 . S
C972 H991 0.913 . S
C973 H949 0.950 1_545 S
C973 C972 1.524 . S
C973 C974 1.415 1_545 S
C974 H950 0.950 . S
C974 C969 1.344 1_565 S
C974 C973 1.415 1_565 S
C975 H951 0.951 . S
C975 C976 1.366 . S
C975 C977 1.388 . S
C976 C975 1.366 . S
C976 C980 1.385 . S
C977 H952 0.951 . S
C977 C975 1.388 . S
C977 C978 1.366 . S
C978 C977 1.366 . S
C978 C979 1.414 . S
C978 C981 1.499 . S
C979 H953 0.950 . S
C979 C978 1.414 . S
C979 C980 1.374 . S
C980 H954 0.950 . S
C980 C976 1.385 . S
C980 C979 1.374 . S
C981 C978 1.499 . S
C981 C982 1.373 . S
C981 C983 1.389 . S
C982 H955 0.950 . S
C982 C968 1.377 . S
C982 C981 1.373 . S
C983 C967 1.377 . S
C983 C981 1.389 . S
C983 C984 1.524 . S
C984 C983 1.524 . S
C984 C985 1.397 . S
C984 C989 1.363 . S
C985 H956 0.950 . S
C985 C984 1.397 . S
C985 C986 1.334 . S
C986 H957 0.950 . S
C986 C985 1.334 . S
C986 C987 1.287 . S
C987 C986 1.287 . S
C987 C988 1.524 1_455 S
C987 H990 0.999 1_455 S
C988 H958 0.950 . S
C988 C987 1.524 1_655 S
C988 C989 1.415 1_655 S
C989 H959 0.950 . S
C989 C984 1.363 . S
C989 C988 1.415 1_455 S
H990 C987 0.999 1_655 S
H991 C972 0.913 . S
H992 C1010 0.961 . S
H993 C1012 0.951 . S
H994 C1014 0.950 . S
H995 C1015 0.950 . S
H996 C1017 0.950 . S
H997 C1020 0.950 . S
H998 C1021 0.950 . S
H999 C1023 0.950 . S
H1000 C1024 0.950 . S
H1001 C1025 0.951 . S
H1002 C1027 0.951 . S
H1003 C1029 0.950 . S
H1004 C1030 0.950 . S
H1005 C1032 0.950 . S
H1006 C1035 0.950 . S
H1007 C1036 0.950 . S
H1008 C1038 0.950 1_655 S
H1009 C1039 0.950 . S
C1010 H992 0.961 . S
C1010 C1011 1.401 . S
C1010 C1012 1.344 1_556 S
C1011 C1010 1.401 . S
C1011 C1015 1.385 . S
C1012 H993 0.951 . S
C1012 C1010 1.344 1_554 S
C1012 C1013 1.366 . S
C1013 C1012 1.366 . S
C1013 C1014 1.414 . S
C1013 C1016 1.499 . S
C1014 H994 0.950 . S
C1014 C1013 1.414 . S
C1014 C1015 1.374 1_554 S
C1015 H995 0.950 . S
C1015 C1011 1.385 . S
C1015 C1014 1.374 1_556 S
C1016 C1013 1.499 . S
C1016 C1017 1.373 . S
C1016 C1018 1.389 . S
C1017 H996 0.950 . S
C1017 C1016 1.373 . S
C1017 C1033 1.377 . S
C1018 C1016 1.389 . S
C1018 C1019 1.524 . S
C1018 C1032 1.377 . S
C1019 C1018 1.524 . S
C1019 C1020 1.397 . S
C1019 C1024 1.363 . S
C1020 H997 0.950 . S
C1020 C1019 1.397 . S
C1020 C1021 1.334 . S
C1021 H998 0.950 . S
C1021 C1020 1.334 . S
C1021 C1022 1.287 . S
C1022 C1021 1.287 . S
C1022 C1023 1.524 . S
C1022 H1041 0.913 . S
C1023 H999 0.950 . S
C1023 C1022 1.524 . S
C1023 C1024 1.415 . S
C1024 H1000 0.950 . S
C1024 C1019 1.363 . S
C1024 C1023 1.415 . S
C1025 H1001 0.951 . S
C1025 C1026 1.366 . S
C1025 C1027 1.388 . S
C1026 C1025 1.366 . S
C1026 C1030 1.385 . S
C1027 H1002 0.951 . S
C1027 C1025 1.388 . S
C1027 C1028 1.366 . S
C1028 C1027 1.366 . S
C1028 C1029 1.414 . S
C1028 C1031 1.499 . S
C1029 H1003 0.950 . S
C1029 C1028 1.414 . S
C1029 C1030 1.374 . S
C1030 H1004 0.950 . S
C1030 C1026 1.385 . S
C1030 C1029 1.374 . S
C1031 C1028 1.499 . S
C1031 C1032 1.373 . S
C1031 C1033 1.389 . S
C1032 H1005 0.950 . S
C1032 C1018 1.377 . S
C1032 C1031 1.373 . S
C1033 C1017 1.377 . S
C1033 C1031 1.389 . S
C1033 C1034 1.524 . S
C1034 C1033 1.524 . S
C1034 C1035 1.397 . S
C1034 C1039 1.363 . S
C1035 H1006 0.950 . S
C1035 C1034 1.397 . S
C1035 C1036 1.334 . S
C1036 H1007 0.950 . S
C1036 C1035 1.334 . S
C1036 C1037 1.287 . S
C1037 C1036 1.287 . S
C1037 C1038 1.524 . S
C1037 H1040 0.999 1_455 S
C1038 H1008 0.950 1_455 S
C1038 C1037 1.524 . S
C1038 C1039 1.415 . S
C1039 H1009 0.950 . S
C1039 C1034 1.363 . S
C1039 C1038 1.415 . S
H1040 C1037 0.999 1_655 S
H1041 C1022 0.913 . S
H1042 C1060 0.951 . S
H1043 C1062 0.951 . S
H1044 C1064 0.950 . S
H1045 C1065 0.950 . S
H1046 C1067 0.950 . S
H1047 C1070 0.950 . S
H1048 C1071 0.950 . S
H1049 C1073 0.950 . S
H1050 C1074 0.950 . S
H1051 C1075 0.951 . S
H1052 C1077 0.951 . S
H1053 C1079 0.950 . S
H1054 C1080 0.950 . S
H1055 C1082 0.950 . S
H1056 C1085 0.950 . S
H1057 C1086 0.950 . S
H1058 C1088 0.950 . S
H1059 C1089 0.950 . S
C1060 H1042 0.951 . S
C1060 C1061 1.366 . S
C1060 C1062 1.388 . S
C1061 C1060 1.366 . S
C1061 C1065 1.385 . S
C1062 H1043 0.951 . S
C1062 C1060 1.388 . S
C1062 C1063 1.366 . S
C1063 C1062 1.366 . S
C1063 C1064 1.414 . S
C1063 C1066 1.499 . S
C1064 H1044 0.950 . S
C1064 C1063 1.414 . S
C1064 C1065 1.374 . S
C1065 H1045 0.950 . S
C1065 C1061 1.385 . S
C1065 C1064 1.374 . S
C1066 C1063 1.499 . S
C1066 C1067 1.373 . S
C1066 C1068 1.389 . S
C1067 H1046 0.950 . S
C1067 C1066 1.373 . S
C1067 C1083 1.377 . S
C1068 C1066 1.389 . S
C1068 C1069 1.524 . S
C1068 C1082 1.377 . S
C1069 C1068 1.524 . S
C1069 C1070 1.397 . S
C1069 C1074 1.363 . S
C1070 H1047 0.950 . S
C1070 C1069 1.397 . S
C1070 C1071 1.334 . S
C1071 H1048 0.950 . S
C1071 C1070 1.334 . S
C1071 C1072 1.287 . S
C1072 C1071 1.287 . S
C1072 C1073 1.524 . S
C1072 H1091 0.913 . S
C1073 H1049 0.950 . S
C1073 C1072 1.524 . S
C1073 C1074 1.415 . S
C1074 H1050 0.950 . S
C1074 C1069 1.363 . S
C1074 C1073 1.415 . S
C1075 H1051 0.951 . S
C1075 C1076 1.366 . S
C1075 C1077 1.388 . S
C1076 C1075 1.366 . S
C1076 C1080 1.385 . S
C1077 H1052 0.951 . S
C1077 C1075 1.388 . S
C1077 C1078 1.366 . S
C1078 C1077 1.366 . S
C1078 C1079 1.414 . S
C1078 C1081 1.499 . S
C1079 H1053 0.950 . S
C1079 C1078 1.414 . S
C1079 C1080 1.374 . S
C1080 H1054 0.950 . S
C1080 C1076 1.385 . S
C1080 C1079 1.374 . S
C1081 C1078 1.499 . S
C1081 C1082 1.373 . S
C1081 C1083 1.389 . S
C1082 H1055 0.950 . S
C1082 C1068 1.377 . S
C1082 C1081 1.373 . S
C1083 C1067 1.377 . S
C1083 C1081 1.389 . S
C1083 C1084 1.524 . S
C1084 C1083 1.524 . S
C1084 C1085 1.397 . S
C1084 C1089 1.363 . S
C1085 H1056 0.950 . S
C1085 C1084 1.397 . S
C1085 C1086 1.334 . S
C1086 H1057 0.950 . S
C1086 C1085 1.334 . S
C1086 C1087 1.287 . S
C1087 C1086 1.287 . S
C1087 C1088 1.524 . S
C1087 H1090 0.999 . S
C1088 H1058 0.950 . S
C1088 C1087 1.524 . S
C1088 C1089 1.415 . S
C1089 H1059 0.950 . S
C1089 C1084 1.363 . S
C1089 C1088 1.415 . S
H1090 C1087 0.999 . S
H1091 C1072 0.913 . S
H1092 C1110 0.951 . S
H1093 C1112 0.951 . S
H1094 C1114 0.950 . S
H1095 C1115 0.950 . S
H1096 C1117 0.950 . S
H1097 C1120 0.950 . S
H1098 C1121 0.950 . S
H1099 C1123 0.950 . S
H1100 C1124 0.950 . S
H1101 C1125 0.951 . S
H1102 C1127 0.951 . S
H1103 C1129 0.950 . S
H1104 C1130 0.950 . S
H1105 C1132 0.950 . S
H1106 C1135 0.950 . S
H1107 C1136 0.950 . S
H1108 C1138 0.950 . S
H1109 C1139 0.950 . S
C1110 H1092 0.951 . S
C1110 C1111 1.366 . S
C1110 C1112 1.388 1_554 S
C1111 C1110 1.366 . S
C1111 C1115 1.385 . S
C1112 H1093 0.951 . S
C1112 C1110 1.388 1_556 S
C1112 C1113 1.366 . S
C1113 C1112 1.366 . S
C1113 C1114 1.414 . S
C1113 C1116 1.499 . S
C1114 H1094 0.950 . S
C1114 C1113 1.414 . S
C1114 C1115 1.374 1_556 S
C1115 H1095 0.950 . S
C1115 C1111 1.385 . S
C1115 C1114 1.374 1_554 S
C1116 C1113 1.499 . S
C1116 C1117 1.373 . S
C1116 C1118 1.389 . S
C1117 H1096 0.950 . S
C1117 C1116 1.373 . S
C1117 C1133 1.377 . S
C1118 C1116 1.389 . S
C1118 C1119 1.524 . S
C1118 C1132 1.377 . S
C1119 C1118 1.524 . S
C1119 C1120 1.397 . S
C1119 C1124 1.363 . S
C1120 H1097 0.950 . S
C1120 C1119 1.397 . S
C1120 C1121 1.334 . S
C1121 H1098 0.950 . S
C1121 C1120 1.334 . S
C1121 C1122 1.287 . S
C1122 C1121 1.287 . S
C1122 C1123 1.524 . S
C1122 H1141 0.913 . S
C1123 H1099 0.950 . S
C1123 C1122 1.524 . S
C1123 C1124 1.415 . S
C1124 H1100 0.950 . S
C1124 C1119 1.363 . S
C1124 C1123 1.415 . S
C1125 H1101 0.951 . S
C1125 C1126 1.366 . S
C1125 C1127 1.388 . S
C1126 C1125 1.366 . S
C1126 C1130 1.385 . S
C1127 H1102 0.951 . S
C1127 C1125 1.388 . S
C1127 C1128 1.366 . S
C1128 C1127 1.366 . S
C1128 C1129 1.414 . S
C1128 C1131 1.499 . S
C1129 H1103 0.950 . S
C1129 C1128 1.414 . S
C1129 C1130 1.374 . S
C1130 H1104 0.950 . S
C1130 C1126 1.385 . S
C1130 C1129 1.374 . S
C1131 C1128 1.499 . S
C1131 C1132 1.373 . S
C1131 C1133 1.389 . S
C1132 H1105 0.950 . S
C1132 C1118 1.377 . S
C1132 C1131 1.373 . S
C1133 C1117 1.377 . S
C1133 C1131 1.389 . S
C1133 C1134 1.524 . S
C1134 C1133 1.524 . S
C1134 C1135 1.397 . S
C1134 C1139 1.363 . S
C1135 H1106 0.950 . S
C1135 C1134 1.397 . S
C1135 C1136 1.334 . S
C1136 H1107 0.950 . S
C1136 C1135 1.334 . S
C1136 C1137 1.287 . S
C1137 C1136 1.287 . S
C1137 C1138 1.524 . S
C1137 H1140 0.999 . S
C1138 H1108 0.950 . S
C1138 C1137 1.524 . S
C1138 C1139 1.415 . S
C1139 H1109 0.950 . S
C1139 C1134 1.363 . S
C1139 C1138 1.415 . S
H1140 C1137 0.999 . S
H1141 C1122 0.913 . S
H1142 C1160 0.951 . S
H1143 C1162 0.951 . S
H1144 C1164 0.950 . S
H1145 C1165 0.950 . S
H1146 C1167 0.950 . S
H1147 C1170 0.950 . S
H1148 C1171 0.950 . S
H1149 C1173 0.950 . S
H1150 C1174 0.950 . S
H1151 C1175 0.951 . S
H1152 C1177 0.951 . S
H1153 C1179 0.950 . S
H1154 C1180 0.950 . S
H1155 C1182 0.950 . S
H1156 C1185 0.950 . S
H1157 C1186 0.950 . S
H1158 C1188 0.950 . S
H1159 C1189 0.950 . S
C1160 H1142 0.951 . S
C1160 C1161 1.366 . S
C1160 C1162 1.388 . S
C1161 C1160 1.366 . S
C1161 C1165 1.385 . S
C1162 H1143 0.951 . S
C1162 C1160 1.388 . S
C1162 C1163 1.366 . S
C1163 C1162 1.366 . S
C1163 C1164 1.414 . S
C1163 C1166 1.499 . S
C1164 H1144 0.950 . S
C1164 C1163 1.414 . S
C1164 C1165 1.374 . S
C1165 H1145 0.950 . S
C1165 C1161 1.385 . S
C1165 C1164 1.374 . S
C1166 C1163 1.499 . S
C1166 C1167 1.373 . S
C1166 C1168 1.389 . S
C1167 H1146 0.950 . S
C1167 C1166 1.373 . S
C1167 C1183 1.377 . S
C1168 C1166 1.389 . S
C1168 C1169 1.524 . S
C1168 C1182 1.377 . S
C1169 C1168 1.524 . S
C1169 C1170 1.397 . S
C1169 C1174 1.363 . S
C1170 H1147 0.950 . S
C1170 C1169 1.397 . S
C1170 C1171 1.334 . S
C1171 H1148 0.950 . S
C1171 C1170 1.334 . S
C1171 C1172 1.287 . S
C1172 C1171 1.287 . S
C1172 C1173 1.524 . S
C1172 H1191 0.913 . S
C1173 H1149 0.950 . S
C1173 C1172 1.524 . S
C1173 C1174 1.415 . S
C1174 H1150 0.950 . S
C1174 C1169 1.363 . S
C1174 C1173 1.415 . S
C1175 H1151 0.951 . S
C1175 C1176 1.366 . S
C1175 C1177 1.388 . S
C1176 C1175 1.366 . S
C1176 C1180 1.385 . S
C1177 H1152 0.951 . S
C1177 C1175 1.388 . S
C1177 C1178 1.366 . S
C1178 C1177 1.366 . S
C1178 C1179 1.414 . S
C1178 C1181 1.499 . S
C1179 H1153 0.950 . S
C1179 C1178 1.414 . S
C1179 C1180 1.374 . S
C1180 H1154 0.950 . S
C1180 C1176 1.385 . S
C1180 C1179 1.374 . S
C1181 C1178 1.499 . S
C1181 C1182 1.373 . S
C1181 C1183 1.389 . S
C1182 H1155 0.950 . S
C1182 C1168 1.377 . S
C1182 C1181 1.373 . S
C1183 C1167 1.377 . S
C1183 C1181 1.389 . S
C1183 C1184 1.524 . S
C1184 C1183 1.524 . S
C1184 C1185 1.397 . S
C1184 C1189 1.363 . S
C1185 H1156 0.950 . S
C1185 C1184 1.397 . S
C1185 C1186 1.334 . S
C1186 H1157 0.950 . S
C1186 C1185 1.334 . S
C1186 C1187 1.287 . S
C1187 C1186 1.287 . S
C1187 C1188 1.524 . S
C1187 H1190 0.999 . S
C1188 H1158 0.950 . S
C1188 C1187 1.524 . S
C1188 C1189 1.415 . S
C1189 H1159 0.950 . S
C1189 C1184 1.363 . S
C1189 C1188 1.415 . S
H1190 C1187 0.999 . S
H1191 C1172 0.913 . S
H1192 C1210 0.951 . S
H1193 C1212 0.951 . S
H1194 C1214 0.950 . S
H1195 C1215 0.953 . S
H1196 C1217 0.950 . S
H1197 C1220 0.950 . S
H1198 C1221 0.950 . S
H1199 C1223 0.950 . S
H1200 C1224 0.950 . S
H1201 C1225 0.951 . S
H1202 C1227 0.951 . S
H1203 C1229 0.950 . S
H1204 C1230 0.950 . S
H1205 C1232 0.950 . S
H1206 C1235 0.950 . S
H1207 C1236 0.950 . S
H1208 C1238 0.950 . S
H1209 C1239 0.950 . S
C1210 H1192 0.951 . S
C1210 C1211 1.366 . S
C1210 C1212 1.388 1_554 S
C1211 C1210 1.366 . S
C1211 C1215 1.395 . S
C1212 H1193 0.951 . S
C1212 C1210 1.388 1_556 S
C1212 C1213 1.366 . S
C1213 C1212 1.366 . S
C1213 C1214 1.414 . S
C1213 C1216 1.499 . S
C1214 H1194 0.950 . S
C1214 C1213 1.414 . S
C1214 C1215 1.361 1_556 S
C1215 H1195 0.953 . S
C1215 C1211 1.395 . S
C1215 C1214 1.361 1_554 S
C1216 C1213 1.499 . S
C1216 C1217 1.373 . S
C1216 C1218 1.389 . S
C1217 H1196 0.950 . S
C1217 C1216 1.373 . S
C1217 C1233 1.377 . S
C1218 C1216 1.389 . S
C1218 C1219 1.524 . S
C1218 C1232 1.377 . S
C1219 C1218 1.524 . S
C1219 C1220 1.397 . S
C1219 C1224 1.363 . S
C1220 H1197 0.950 . S
C1220 C1219 1.397 . S
C1220 C1221 1.334 . S
C1221 H1198 0.950 . S
C1221 C1220 1.334 . S
C1221 C1222 1.287 . S
C1222 C1221 1.287 . S
C1222 C1223 1.524 . S
C1222 H1241 0.913 . S
C1223 H1199 0.950 . S
C1223 C1222 1.524 . S
C1223 C1224 1.415 . S
C1224 H1200 0.950 . S
C1224 C1219 1.363 . S
C1224 C1223 1.415 . S
C1225 H1201 0.951 . S
C1225 C1226 1.366 . S
C1225 C1227 1.388 . S
C1226 C1225 1.366 . S
C1226 C1230 1.385 . S
C1227 H1202 0.951 . S
C1227 C1225 1.388 . S
C1227 C1228 1.366 . S
C1228 C1227 1.366 . S
C1228 C1229 1.414 . S
C1228 C1231 1.499 . S
C1229 H1203 0.950 . S
C1229 C1228 1.414 . S
C1229 C1230 1.374 . S
C1230 H1204 0.950 . S
C1230 C1226 1.385 . S
C1230 C1229 1.374 . S
C1231 C1228 1.499 . S
C1231 C1232 1.373 . S
C1231 C1233 1.389 . S
C1232 H1205 0.950 . S
C1232 C1218 1.377 . S
C1232 C1231 1.373 . S
C1233 C1217 1.377 . S
C1233 C1231 1.389 . S
C1233 C1234 1.524 . S
C1234 C1233 1.524 . S
C1234 C1235 1.397 . S
C1234 C1239 1.363 . S
C1235 H1206 0.950 . S
C1235 C1234 1.397 . S
C1235 C1236 1.334 . S
C1236 H1207 0.950 . S
C1236 C1235 1.334 . S
C1236 C1237 1.287 . S
C1237 C1236 1.287 . S
C1237 C1238 1.524 . S
C1237 H1240 0.999 . S
C1238 H1208 0.950 . S
C1238 C1237 1.524 . S
C1238 C1239 1.415 . S
C1239 H1209 0.950 . S
C1239 C1234 1.363 . S
C1239 C1238 1.415 . S
H1240 C1237 0.999 . S
H1241 C1222 0.913 . S
H1242 C1260 0.951 . S
H1243 C1262 0.951 . S
H1244 C1264 0.950 . S
H1245 C1265 0.950 . S
H1246 C1267 0.950 . S
H1247 C1270 0.950 . S
H1248 C1271 0.950 . S
H1249 C1273 0.950 . S
H1250 C1274 0.950 . S
H1251 C1275 0.951 . S
H1252 C1277 0.951 . S
H1253 C1279 0.950 . S
H1254 C1280 0.950 . S
H1255 C1282 0.950 . S
H1256 C1285 0.950 . S
H1257 C1286 0.950 . S
H1258 C1288 0.950 . S
H1259 C1289 0.950 . S
C1260 H1242 0.951 . S
C1260 C1261 1.366 . S
C1260 C1262 1.388 . S
C1261 C1260 1.366 . S
C1261 C1265 1.385 . S
C1262 H1243 0.951 . S
C1262 C1260 1.388 . S
C1262 C1263 1.366 . S
C1263 C1262 1.366 . S
C1263 C1264 1.414 . S
C1263 C1266 1.499 . S
C1264 H1244 0.950 . S
C1264 C1263 1.414 . S
C1264 C1265 1.374 . S
C1265 H1245 0.950 . S
C1265 C1261 1.385 . S
C1265 C1264 1.374 . S
C1266 C1263 1.499 . S
C1266 C1267 1.373 . S
C1266 C1268 1.389 . S
C1267 H1246 0.950 . S
C1267 C1266 1.373 . S
C1267 C1283 1.377 . S
C1268 C1266 1.389 . S
C1268 C1269 1.524 . S
C1268 C1282 1.377 . S
C1269 C1268 1.524 . S
C1269 C1270 1.397 . S
C1269 C1274 1.363 . S
C1270 H1247 0.950 . S
C1270 C1269 1.397 . S
C1270 C1271 1.334 . S
C1271 H1248 0.950 . S
C1271 C1270 1.334 . S
C1271 C1272 1.287 . S
C1272 C1271 1.287 . S
C1272 C1273 1.524 . S
C1272 H1291 0.913 . S
C1273 H1249 0.950 . S
C1273 C1272 1.524 . S
C1273 C1274 1.415 . S
C1274 H1250 0.950 . S
C1274 C1269 1.363 . S
C1274 C1273 1.415 . S
C1275 H1251 0.951 . S
C1275 C1276 1.366 . S
C1275 C1277 1.388 . S
C1276 C1275 1.366 . S
C1276 C1280 1.385 . S
C1277 H1252 0.951 . S
C1277 C1275 1.388 . S
C1277 C1278 1.366 . S
C1278 C1277 1.366 . S
C1278 C1279 1.414 . S
C1278 C1281 1.499 . S
C1279 H1253 0.950 . S
C1279 C1278 1.414 . S
C1279 C1280 1.374 . S
C1280 H1254 0.950 . S
C1280 C1276 1.385 . S
C1280 C1279 1.374 . S
C1281 C1278 1.499 . S
C1281 C1282 1.373 . S
C1281 C1283 1.389 . S
C1282 H1255 0.950 . S
C1282 C1268 1.377 . S
C1282 C1281 1.373 . S
C1283 C1267 1.377 . S
C1283 C1281 1.389 . S
C1283 C1284 1.524 . S
C1284 C1283 1.524 . S
C1284 C1285 1.397 . S
C1284 C1289 1.363 . S
C1285 H1256 0.950 . S
C1285 C1284 1.397 . S
C1285 C1286 1.334 . S
C1286 H1257 0.950 . S
C1286 C1285 1.334 . S
C1286 C1287 1.287 . S
C1287 C1286 1.287 . S
C1287 C1288 1.524 . S
C1287 H1290 0.999 . S
C1288 H1258 0.950 . S
C1288 C1287 1.524 . S
C1288 C1289 1.415 . S
C1289 H1259 0.950 . S
C1289 C1284 1.363 . S
C1289 C1288 1.415 . S
H1290 C1287 0.999 . S
H1291 C1272 0.913 . S
H1292 C1310 0.951 . S
H1293 C1312 0.951 . S
H1294 C1314 0.950 . S
H1295 C1315 0.950 . S
H1296 C1317 0.950 . S
H1297 C1320 0.950 . S
H1298 C1321 0.950 . S
H1299 C1323 0.950 . S
H1300 C1324 0.950 . S
H1301 C1325 0.951 . S
H1302 C1327 0.951 . S
H1303 C1329 0.950 . S
H1304 C1330 0.950 . S
H1305 C1332 0.950 . S
H1306 C1335 0.950 . S
H1307 C1336 0.950 . S
H1308 C1338 0.950 . S
H1309 C1339 0.950 . S
C1310 H1292 0.951 . S
C1310 C1311 1.366 . S
C1310 C1312 1.388 1_556 S
C1311 C1310 1.366 . S
C1311 C1315 1.385 . S
C1312 H1293 0.951 . S
C1312 C1310 1.388 1_554 S
C1312 C1313 1.366 . S
C1313 C1312 1.366 . S
C1313 C1314 1.414 . S
C1313 C1316 1.499 . S
C1314 H1294 0.950 . S
C1314 C1313 1.414 . S
C1314 C1315 1.374 1_554 S
C1315 H1295 0.950 . S
C1315 C1311 1.385 . S
C1315 C1314 1.374 1_556 S
C1316 C1313 1.499 . S
C1316 C1317 1.373 . S
C1316 C1318 1.389 . S
C1317 H1296 0.950 . S
C1317 C1316 1.373 . S
C1317 C1333 1.377 . S
C1318 C1316 1.389 . S
C1318 C1319 1.524 . S
C1318 C1332 1.377 . S
C1319 C1318 1.524 . S
C1319 C1320 1.397 . S
C1319 C1324 1.363 . S
C1320 H1297 0.950 . S
C1320 C1319 1.397 . S
C1320 C1321 1.334 . S
C1321 H1298 0.950 . S
C1321 C1320 1.334 . S
C1321 C1322 1.287 . S
C1322 C1321 1.287 . S
C1322 C1323 1.524 . S
C1322 H1341 0.913 . S
C1323 H1299 0.950 . S
C1323 C1322 1.524 . S
C1323 C1324 1.415 . S
C1324 H1300 0.950 . S
C1324 C1319 1.363 . S
C1324 C1323 1.415 . S
C1325 H1301 0.951 . S
C1325 C1326 1.366 . S
C1325 C1327 1.388 . S
C1326 C1325 1.366 . S
C1326 C1330 1.385 . S
C1327 H1302 0.951 . S
C1327 C1325 1.388 . S
C1327 C1328 1.366 . S
C1328 C1327 1.366 . S
C1328 C1329 1.414 . S
C1328 C1331 1.499 . S
C1329 H1303 0.950 . S
C1329 C1328 1.414 . S
C1329 C1330 1.374 . S
C1330 H1304 0.950 . S
C1330 C1326 1.385 . S
C1330 C1329 1.374 . S
C1331 C1328 1.499 . S
C1331 C1332 1.373 . S
C1331 C1333 1.389 . S
C1332 H1305 0.950 . S
C1332 C1318 1.377 . S
C1332 C1331 1.373 . S
C1333 C1317 1.377 . S
C1333 C1331 1.389 . S
C1333 C1334 1.524 . S
C1334 C1333 1.524 . S
C1334 C1335 1.397 . S
C1334 C1339 1.363 . S
C1335 H1306 0.950 . S
C1335 C1334 1.397 . S
C1335 C1336 1.334 . S
C1336 H1307 0.950 . S
C1336 C1335 1.334 . S
C1336 C1337 1.287 . S
C1337 C1336 1.287 . S
C1337 C1338 1.524 . S
C1337 H1340 0.999 . S
C1338 H1308 0.950 . S
C1338 C1337 1.524 . S
C1338 C1339 1.415 . S
C1339 H1309 0.950 . S
C1339 C1334 1.363 . S
C1339 C1338 1.415 . S
H1340 C1337 0.999 . S
H1341 C1322 0.913 . S
H1342 C1360 0.951 . S
H1343 C1362 0.951 . S
H1344 C1364 0.950 . S
H1345 C1365 0.950 . S
H1346 C1367 0.950 . S
H1347 C1370 0.950 . S
H1348 C1371 0.950 . S
H1349 C1373 0.950 . S
H1350 C1374 0.950 . S
H1351 C1375 0.951 . S
H1352 C1377 0.951 . S
H1353 C1379 0.950 . S
H1354 C1380 0.950 . S
H1355 C1382 0.950 . S
H1356 C1385 0.950 . S
H1357 C1386 0.950 . S
H1358 C1388 0.950 . S
H1359 C1389 0.950 . S
C1360 H1342 0.951 . S
C1360 C1361 1.366 . S
C1360 C1362 1.388 . S
C1361 C1360 1.366 . S
C1361 C1365 1.385 . S
C1362 H1343 0.951 . S
C1362 C1360 1.388 . S
C1362 C1363 1.366 . S
C1363 C1362 1.366 . S
C1363 C1364 1.414 . S
C1363 C1366 1.499 . S
C1364 H1344 0.950 . S
C1364 C1363 1.414 . S
C1364 C1365 1.374 . S
C1365 H1345 0.950 . S
C1365 C1361 1.385 . S
C1365 C1364 1.374 . S
C1366 C1363 1.499 . S
C1366 C1367 1.373 . S
C1366 C1368 1.389 . S
C1367 H1346 0.950 . S
C1367 C1366 1.373 . S
C1367 C1383 1.377 . S
C1368 C1366 1.389 . S
C1368 C1369 1.524 . S
C1368 C1382 1.377 . S
C1369 C1368 1.524 . S
C1369 C1370 1.397 . S
C1369 C1374 1.363 . S
C1370 H1347 0.950 . S
C1370 C1369 1.397 . S
C1370 C1371 1.334 . S
C1371 H1348 0.950 . S
C1371 C1370 1.334 . S
C1371 C1372 1.287 . S
C1372 C1371 1.287 . S
C1372 C1373 1.524 . S
C1372 H1391 0.913 . S
C1373 H1349 0.950 . S
C1373 C1372 1.524 . S
C1373 C1374 1.415 . S
C1374 H1350 0.950 . S
C1374 C1369 1.363 . S
C1374 C1373 1.415 . S
C1375 H1351 0.951 . S
C1375 C1376 1.366 . S
C1375 C1377 1.388 . S
C1376 C1375 1.366 . S
C1376 C1380 1.385 . S
C1377 H1352 0.951 . S
C1377 C1375 1.388 . S
C1377 C1378 1.366 . S
C1378 C1377 1.366 . S
C1378 C1379 1.414 . S
C1378 C1381 1.499 . S
C1379 H1353 0.950 . S
C1379 C1378 1.414 . S
C1379 C1380 1.374 . S
C1380 H1354 0.950 . S
C1380 C1376 1.385 . S
C1380 C1379 1.374 . S
C1381 C1378 1.499 . S
C1381 C1382 1.373 . S
C1381 C1383 1.389 . S
C1382 H1355 0.950 . S
C1382 C1368 1.377 . S
C1382 C1381 1.373 . S
C1383 C1367 1.377 . S
C1383 C1381 1.389 . S
C1383 C1384 1.524 . S
C1384 C1383 1.524 . S
C1384 C1385 1.397 . S
C1384 C1389 1.363 . S
C1385 H1356 0.950 . S
C1385 C1384 1.397 . S
C1385 C1386 1.334 . S
C1386 H1357 0.950 . S
C1386 C1385 1.334 . S
C1386 C1387 1.287 . S
C1387 C1386 1.287 . S
C1387 C1388 1.524 . S
C1387 H1390 0.999 . S
C1388 H1358 0.950 . S
C1388 C1387 1.524 . S
C1388 C1389 1.415 . S
C1389 H1359 0.950 . S
C1389 C1384 1.363 . S
C1389 C1388 1.415 . S
H1390 C1387 0.999 . S
H1391 C1372 0.913 . S
H1392 C1410 0.951 . S
H1393 C1412 0.951 . S
H1394 C1414 0.950 . S
H1395 C1415 0.950 . S
H1396 C1417 0.950 . S
H1397 C1420 0.950 . S
H1398 C1421 0.950 . S
H1399 C1423 0.950 . S
H1400 C1424 0.950 . S
H1401 C1425 0.951 . S
H1402 C1427 0.951 . S
H1403 C1429 0.950 . S
H1404 C1430 0.950 . S
H1405 C1432 0.950 . S
H1406 C1435 0.950 . S
H1407 C1436 0.950 . S
H1408 C1438 0.950 . S
H1409 C1439 0.950 . S
C1410 H1392 0.951 . S
C1410 C1411 1.366 . S
C1410 C1412 1.388 . S
C1411 C1410 1.366 . S
C1411 C1415 1.385 . S
C1412 H1393 0.951 . S
C1412 C1410 1.388 . S
C1412 C1413 1.366 . S
C1413 C1412 1.366 . S
C1413 C1414 1.414 . S
C1413 C1416 1.499 . S
C1414 H1394 0.950 . S
C1414 C1413 1.414 . S
C1414 C1415 1.374 . S
C1415 H1395 0.950 . S
C1415 C1411 1.385 . S
C1415 C1414 1.374 . S
C1416 C1413 1.499 . S
C1416 C1417 1.373 . S
C1416 C1418 1.389 . S
C1417 H1396 0.950 . S
C1417 C1416 1.373 . S
C1417 C1433 1.377 . S
C1418 C1416 1.389 . S
C1418 C1419 1.524 . S
C1418 C1432 1.377 . S
C1419 C1418 1.524 . S
C1419 C1420 1.397 . S
C1419 C1424 1.363 . S
C1420 H1397 0.950 . S
C1420 C1419 1.397 . S
C1420 C1421 1.334 . S
C1421 H1398 0.950 . S
C1421 C1420 1.334 . S
C1421 C1422 1.287 . S
C1422 C1421 1.287 . S
C1422 C1423 1.524 . S
C1422 H1441 0.913 . S
C1423 H1399 0.950 . S
C1423 C1422 1.524 . S
C1423 C1424 1.415 . S
C1424 H1400 0.950 . S
C1424 C1419 1.363 . S
C1424 C1423 1.415 . S
C1425 H1401 0.951 . S
C1425 C1426 1.366 . S
C1425 C1427 1.388 . S
C1426 C1425 1.366 . S
C1426 C1430 1.385 . S
C1427 H1402 0.951 . S
C1427 C1425 1.388 . S
C1427 C1428 1.366 . S
C1428 C1427 1.366 . S
C1428 C1429 1.414 . S
C1428 C1431 1.499 . S
C1429 H1403 0.950 . S
C1429 C1428 1.414 . S
C1429 C1430 1.374 . S
C1430 H1404 0.950 . S
C1430 C1426 1.385 . S
C1430 C1429 1.374 . S
C1431 C1428 1.499 . S
C1431 C1432 1.373 . S
C1431 C1433 1.389 . S
C1432 H1405 0.950 . S
C1432 C1418 1.377 . S
C1432 C1431 1.373 . S
C1433 C1417 1.377 . S
C1433 C1431 1.389 . S
C1433 C1434 1.524 . S
C1434 C1433 1.524 . S
C1434 C1435 1.397 . S
C1434 C1439 1.363 . S
C1435 H1406 0.950 . S
C1435 C1434 1.397 . S
C1435 C1436 1.334 . S
C1436 H1407 0.950 . S
C1436 C1435 1.334 . S
C1436 C1437 1.287 . S
C1437 C1436 1.287 . S
C1437 C1438 1.524 . S
C1437 H1440 0.999 . S
C1438 H1408 0.950 . S
C1438 C1437 1.524 . S
C1438 C1439 1.415 . S
C1439 H1409 0.950 . S
C1439 C1434 1.363 . S
C1439 C1438 1.415 . S
H1440 C1437 0.999 . S
H1441 C1422 0.913 . S
H1442 C1460 0.951 . S
H1443 C1462 0.951 . S
H1444 C1464 0.950 . S
H1445 C1465 0.950 . S
H1446 C1467 0.950 . S
H1447 C1470 0.950 . S
H1448 C1471 0.950 . S
H1449 C1473 0.950 . S
H1450 C1474 0.950 . S
H1451 C1475 0.951 . S
H1452 C1477 0.951 . S
H1453 C1479 0.950 . S
H1454 C1480 0.950 . S
H1455 C1482 0.950 . S
H1456 C1485 0.950 . S
H1457 C1486 0.950 . S
H1458 C1488 0.950 . S
H1459 C1489 0.950 . S
C1460 H1442 0.951 . S
C1460 C1461 1.366 . S
C1460 C1462 1.388 . S
C1461 C1460 1.366 . S
C1461 C1465 1.385 . S
C1462 H1443 0.951 . S
C1462 C1460 1.388 . S
C1462 C1463 1.366 . S
C1463 C1462 1.366 . S
C1463 C1464 1.414 . S
C1463 C1466 1.499 . S
C1464 H1444 0.950 . S
C1464 C1463 1.414 . S
C1464 C1465 1.374 . S
C1465 H1445 0.950 . S
C1465 C1461 1.385 . S
C1465 C1464 1.374 . S
C1466 C1463 1.499 . S
C1466 C1467 1.373 . S
C1466 C1468 1.389 . S
C1467 H1446 0.950 . S
C1467 C1466 1.373 . S
C1467 C1483 1.377 . S
C1468 C1466 1.389 . S
C1468 C1469 1.524 . S
C1468 C1482 1.377 . S
C1469 C1468 1.524 . S
C1469 C1470 1.397 . S
C1469 C1474 1.363 . S
C1470 H1447 0.950 . S
C1470 C1469 1.397 . S
C1470 C1471 1.334 . S
C1471 H1448 0.950 . S
C1471 C1470 1.334 . S
C1471 C1472 1.287 . S
C1472 C1471 1.287 . S
C1472 C1473 1.524 . S
C1472 H1491 0.913 . S
C1473 H1449 0.950 . S
C1473 C1472 1.524 . S
C1473 C1474 1.415 . S
C1474 H1450 0.950 . S
C1474 C1469 1.363 . S
C1474 C1473 1.415 . S
C1475 H1451 0.951 . S
C1475 C1476 1.366 . S
C1475 C1477 1.388 . S
C1476 C1475 1.366 . S
C1476 C1480 1.385 . S
C1477 H1452 0.951 . S
C1477 C1475 1.388 . S
C1477 C1478 1.366 . S
C1478 C1477 1.366 . S
C1478 C1479 1.414 . S
C1478 C1481 1.499 . S
C1479 H1453 0.950 . S
C1479 C1478 1.414 . S
C1479 C1480 1.374 . S
C1480 H1454 0.950 . S
C1480 C1476 1.385 . S
C1480 C1479 1.374 . S
C1481 C1478 1.499 . S
C1481 C1482 1.373 . S
C1481 C1483 1.389 . S
C1482 H1455 0.950 . S
C1482 C1468 1.377 . S
C1482 C1481 1.373 . S
C1483 C1467 1.377 . S
C1483 C1481 1.389 . S
C1483 C1484 1.524 . S
C1484 C1483 1.524 . S
C1484 C1485 1.397 . S
C1484 C1489 1.363 . S
C1485 H1456 0.950 . S
C1485 C1484 1.397 . S
C1485 C1486 1.334 . S
C1486 H1457 0.950 . S
C1486 C1485 1.334 . S
C1486 C1487 1.287 . S
C1487 C1486 1.287 . S
C1487 C1488 1.524 . S
C1487 H1490 0.999 . S
C1488 H1458 0.950 . S
C1488 C1487 1.524 . S
C1488 C1489 1.415 . S
C1489 H1459 0.950 . S
C1489 C1484 1.363 . S
C1489 C1488 1.415 . S
H1490 C1487 0.999 . S
H1491 C1472 0.913 . S
H1492 C1510 0.951 . S
H1493 C1512 0.951 . S
H1494 C1514 0.950 . S
H1495 C1515 0.950 . S
H1496 C1517 0.950 . S
H1497 C1520 0.950 . S
H1498 C1521 0.950 . S
H1499 C1523 0.950 . S
H1500 C1524 0.950 . S
H1501 C1525 0.951 . S
H1502 C1527 0.951 . S
H1503 C1529 0.950 . S
H1504 C1530 0.950 . S
H1505 C1532 0.950 . S
H1506 C1535 0.950 . S
H1507 C1536 0.950 . S
H1508 C1538 0.950 . S
H1509 C1539 0.950 . S
C1510 H1492 0.951 . S
C1510 C1511 1.366 . S
C1510 C1512 1.388 . S
C1511 C1510 1.366 . S
C1511 C1515 1.385 . S
C1512 H1493 0.951 . S
C1512 C1510 1.388 . S
C1512 C1513 1.366 . S
C1513 C1512 1.366 . S
C1513 C1514 1.414 . S
C1513 C1516 1.499 . S
C1514 H1494 0.950 . S
C1514 C1513 1.414 . S
C1514 C1515 1.374 . S
C1515 H1495 0.950 . S
C1515 C1511 1.385 . S
C1515 C1514 1.374 . S
C1516 C1513 1.499 . S
C1516 C1517 1.373 . S
C1516 C1518 1.389 . S
C1517 H1496 0.950 . S
C1517 C1516 1.373 . S
C1517 C1533 1.377 . S
C1518 C1516 1.389 . S
C1518 C1519 1.524 . S
C1518 C1532 1.377 . S
C1519 C1518 1.524 . S
C1519 C1520 1.397 . S
C1519 C1524 1.363 . S
C1520 H1497 0.950 . S
C1520 C1519 1.397 . S
C1520 C1521 1.334 . S
C1521 H1498 0.950 . S
C1521 C1520 1.334 . S
C1521 C1522 1.287 . S
C1522 C1521 1.287 . S
C1522 C1523 1.524 . S
C1522 H1541 0.913 . S
C1523 H1499 0.950 . S
C1523 C1522 1.524 . S
C1523 C1524 1.415 . S
C1524 H1500 0.950 . S
C1524 C1519 1.363 . S
C1524 C1523 1.415 . S
C1525 H1501 0.951 . S
C1525 C1526 1.366 . S
C1525 C1527 1.388 . S
C1526 C1525 1.366 . S
C1526 C1530 1.385 . S
C1527 H1502 0.951 . S
C1527 C1525 1.388 . S
C1527 C1528 1.366 . S
C1528 C1527 1.366 . S
C1528 C1529 1.414 . S
C1528 C1531 1.499 . S
C1529 H1503 0.950 . S
C1529 C1528 1.414 . S
C1529 C1530 1.374 . S
C1530 H1504 0.950 . S
C1530 C1526 1.385 . S
C1530 C1529 1.374 . S
C1531 C1528 1.499 . S
C1531 C1532 1.373 . S
C1531 C1533 1.389 . S
C1532 H1505 0.950 . S
C1532 C1518 1.377 . S
C1532 C1531 1.373 . S
C1533 C1517 1.377 . S
C1533 C1531 1.389 . S
C1533 C1534 1.524 . S
C1534 C1533 1.524 . S
C1534 C1535 1.397 . S
C1534 C1539 1.363 . S
C1535 H1506 0.950 . S
C1535 C1534 1.397 . S
C1535 C1536 1.334 . S
C1536 H1507 0.950 . S
C1536 C1535 1.334 . S
C1536 C1537 1.287 . S
C1537 C1536 1.287 . S
C1537 C1538 1.524 . S
C1537 H1540 0.999 . S
C1538 H1508 0.950 . S
C1538 C1537 1.524 . S
C1538 C1539 1.415 . S
C1539 H1509 0.950 . S
C1539 C1534 1.363 . S
C1539 C1538 1.415 . S
H1540 C1537 0.999 . S
H1541 C1522 0.913 . S
H1542 C1560 0.951 . S
H1543 C1562 0.951 . S
H1544 C1564 0.950 . S
H1545 C1565 0.950 . S
H1546 C1567 0.950 . S
H1547 C1570 0.950 . S
H1548 C1571 0.950 . S
H1549 C1573 0.950 . S
H1550 C1574 0.950 . S
H1551 C1575 0.951 . S
H1552 C1577 0.951 . S
H1553 C1579 0.950 . S
H1554 C1580 0.950 . S
H1555 C1582 0.950 . S
H1556 C1585 0.950 . S
H1557 C1586 0.950 . S
H1558 C1588 0.950 . S
H1559 C1589 0.950 . S
C1560 H1542 0.951 . S
C1560 C1561 1.366 . S
C1560 C1562 1.388 . S
C1561 C1560 1.366 . S
C1561 C1565 1.385 . S
C1562 H1543 0.951 . S
C1562 C1560 1.388 . S
C1562 C1563 1.366 . S
C1563 C1562 1.366 . S
C1563 C1564 1.414 . S
C1563 C1566 1.499 . S
C1564 H1544 0.950 . S
C1564 C1563 1.414 . S
C1564 C1565 1.374 . S
C1565 H1545 0.950 . S
C1565 C1561 1.385 . S
C1565 C1564 1.374 . S
C1566 C1563 1.499 . S
C1566 C1567 1.373 . S
C1566 C1568 1.389 . S
C1567 H1546 0.950 . S
C1567 C1566 1.373 . S
C1567 C1583 1.377 . S
C1568 C1566 1.389 . S
C1568 C1569 1.524 . S
C1568 C1582 1.377 . S
C1569 C1568 1.524 . S
C1569 C1570 1.397 . S
C1569 C1574 1.363 . S
C1570 H1547 0.950 . S
C1570 C1569 1.397 . S
C1570 C1571 1.334 . S
C1571 H1548 0.950 . S
C1571 C1570 1.334 . S
C1571 C1572 1.287 . S
C1572 C1571 1.287 . S
C1572 C1573 1.524 . S
C1572 H1591 0.913 . S
C1573 H1549 0.950 . S
C1573 C1572 1.524 . S
C1573 C1574 1.415 . S
C1574 H1550 0.950 . S
C1574 C1569 1.363 . S
C1574 C1573 1.415 . S
C1575 H1551 0.951 . S
C1575 C1576 1.366 . S
C1575 C1577 1.388 . S
C1576 C1575 1.366 . S
C1576 C1580 1.385 . S
C1577 H1552 0.951 . S
C1577 C1575 1.388 . S
C1577 C1578 1.366 . S
C1578 C1577 1.366 . S
C1578 C1579 1.414 . S
C1578 C1581 1.499 . S
C1579 H1553 0.950 . S
C1579 C1578 1.414 . S
C1579 C1580 1.374 . S
C1580 H1554 0.950 . S
C1580 C1576 1.385 . S
C1580 C1579 1.374 . S
C1581 C1578 1.499 . S
C1581 C1582 1.373 . S
C1581 C1583 1.389 . S
C1582 H1555 0.950 . S
C1582 C1568 1.377 . S
C1582 C1581 1.373 . S
C1583 C1567 1.377 . S
C1583 C1581 1.389 . S
C1583 C1584 1.524 . S
C1584 C1583 1.524 . S
C1584 C1585 1.397 . S
C1584 C1589 1.363 . S
C1585 H1556 0.950 . S
C1585 C1584 1.397 . S
C1585 C1586 1.334 . S
C1586 H1557 0.950 . S
C1586 C1585 1.334 . S
C1586 C1587 1.287 . S
C1587 C1586 1.287 . S
C1587 C1588 1.524 . S
C1587 H1590 0.999 . S
C1588 H1558 0.950 . S
C1588 C1587 1.524 . S
C1588 C1589 1.415 . S
C1589 H1559 0.950 . S
C1589 C1584 1.363 . S
C1589 C1588 1.415 . S
H1590 C1587 0.999 . S
H1591 C1572 0.913 . S
H1592 C1610 0.951 . S
H1593 C1612 0.951 . S
H1594 C1614 0.950 . S
H1595 C1615 0.950 . S
H1596 C1617 0.950 . S
H1597 C1620 0.950 . S
H1598 C1621 0.950 . S
H1599 C1623 0.950 . S
H1600 C1624 0.950 . S
H1601 C1625 0.942 1_455 S
H1602 C1627 0.951 . S
H1603 C1629 0.950 . S
H1604 C1630 0.950 . S
H1605 C1632 0.950 . S
H1606 C1635 0.950 . S
H1607 C1636 0.950 . S
H1608 C1638 0.950 . S
H1609 C1639 0.950 . S
C1610 H1592 0.951 . S
C1610 C1611 1.366 . S
C1610 C1612 1.388 . S
C1611 C1610 1.366 . S
C1611 C1615 1.385 . S
C1612 H1593 0.951 . S
C1612 C1610 1.388 . S
C1612 C1613 1.366 . S
C1613 C1612 1.366 . S
C1613 C1614 1.414 . S
C1613 C1616 1.499 . S
C1614 H1594 0.950 . S
C1614 C1613 1.414 . S
C1614 C1615 1.374 . S
C1615 H1595 0.950 . S
C1615 C1611 1.385 . S
C1615 C1614 1.374 . S
C1616 C1613 1.499 . S
C1616 C1617 1.373 . S
C1616 C1618 1.389 . S
C1617 H1596 0.950 . S
C1617 C1616 1.373 . S
C1617 C1633 1.377 . S
C1618 C1616 1.389 . S
C1618 C1619 1.524 . S
C1618 C1632 1.377 . S
C1619 C1618 1.524 . S
C1619 C1620 1.397 . S
C1619 C1624 1.363 . S
C1620 H1597 0.950 . S
C1620 C1619 1.397 . S
C1620 C1621 1.334 . S
C1621 H1598 0.950 . S
C1621 C1620 1.334 . S
C1621 C1622 1.287 . S
C1622 C1621 1.287 . S
C1622 C1623 1.524 . S
C1622 H1641 0.913 . S
C1623 H1599 0.950 . S
C1623 C1622 1.524 . S
C1623 C1624 1.415 . S
C1624 H1600 0.950 . S
C1624 C1619 1.363 . S
C1624 C1623 1.415 . S
C1625 H1601 0.942 1_655 S
C1625 C1626 1.366 . S
C1625 C1627 1.388 . S
C1626 C1625 1.366 . S
C1626 C1630 1.385 . S
C1627 H1602 0.951 . S
C1627 C1625 1.388 . S
C1627 C1628 1.366 . S
C1628 C1627 1.366 . S
C1628 C1629 1.414 . S
C1628 C1631 1.499 . S
C1629 H1603 0.950 . S
C1629 C1628 1.414 . S
C1629 C1630 1.374 . S
C1630 H1604 0.950 . S
C1630 C1626 1.385 . S
C1630 C1629 1.374 . S
C1631 C1628 1.499 . S
C1631 C1632 1.373 . S
C1631 C1633 1.389 . S
C1632 H1605 0.950 . S
C1632 C1618 1.377 . S
C1632 C1631 1.373 . S
C1633 C1617 1.377 . S
C1633 C1631 1.389 . S
C1633 C1634 1.524 . S
C1634 C1633 1.524 . S
C1634 C1635 1.397 . S
C1634 C1639 1.363 . S
C1635 H1606 0.950 . S
C1635 C1634 1.397 . S
C1635 C1636 1.334 . S
C1636 H1607 0.950 . S
C1636 C1635 1.334 . S
C1636 C1637 1.287 1_655 S
C1637 C1636 1.287 1_455 S
C1637 C1638 1.524 . S
C1637 H1640 0.999 . S
C1638 H1608 0.950 . S
C1638 C1637 1.524 . S
C1638 C1639 1.415 1_455 S
C1639 H1609 0.950 . S
C1639 C1634 1.363 . S
C1639 C1638 1.415 1_655 S
H1640 C1637 0.999 . S
H1641 C1622 0.913 . S
H1642 C1660 0.951 . S
H1643 C1662 0.951 . S
H1644 C1664 0.950 . S
H1645 C1665 0.950 . S
H1646 C1667 0.950 . S
H1647 C1670 0.950 . S
H1648 C1671 0.950 . S
H1649 C1673 0.950 . S
H1650 C1674 0.950 . S
H1651 C1675 0.951 . S
H1652 C1677 0.951 . S
H1653 C1679 0.950 . S
H1654 C1680 0.950 . S
H1655 C1682 0.950 . S
H1656 C1685 0.950 . S
H1657 C1686 0.950 . S
H1658 C1688 0.950 . S
H1659 C1689 0.950 . S
C1660 H1642 0.951 . S
C1660 C1661 1.366 . S
C1660 C1662 1.388 . S
C1661 C1660 1.366 . S
C1661 C1665 1.385 . S
C1662 H1643 0.951 . S
C1662 C1660 1.388 . S
C1662 C1663 1.366 . S
C1663 C1662 1.366 . S
C1663 C1664 1.414 . S
C1663 C1666 1.499 . S
C1664 H1644 0.950 . S
C1664 C1663 1.414 . S
C1664 C1665 1.374 . S
C1665 H1645 0.950 . S
C1665 C1661 1.385 . S
C1665 C1664 1.374 . S
C1666 C1663 1.499 . S
C1666 C1667 1.373 . S
C1666 C1668 1.389 . S
C1667 H1646 0.950 . S
C1667 C1666 1.373 . S
C1667 C1683 1.377 . S
C1668 C1666 1.389 . S
C1668 C1669 1.524 . S
C1668 C1682 1.377 . S
C1669 C1668 1.524 . S
C1669 C1670 1.397 . S
C1669 C1674 1.363 . S
C1670 H1647 0.950 . S
C1670 C1669 1.397 . S
C1670 C1671 1.334 . S
C1671 H1648 0.950 . S
C1671 C1670 1.334 . S
C1671 C1672 1.287 . S
C1672 C1671 1.287 . S
C1672 C1673 1.524 . S
C1672 H1691 0.913 . S
C1673 H1649 0.950 . S
C1673 C1672 1.524 . S
C1673 C1674 1.415 . S
C1674 H1650 0.950 . S
C1674 C1669 1.363 . S
C1674 C1673 1.415 . S
C1675 H1651 0.951 . S
C1675 C1676 1.366 . S
C1675 C1677 1.388 . S
C1676 C1675 1.366 . S
C1676 C1680 1.385 . S
C1677 H1652 0.951 . S
C1677 C1675 1.388 . S
C1677 C1678 1.366 . S
C1678 C1677 1.366 . S
C1678 C1679 1.414 . S
C1678 C1681 1.499 . S
C1679 H1653 0.950 . S
C1679 C1678 1.414 . S
C1679 C1680 1.374 . S
C1680 H1654 0.950 . S
C1680 C1676 1.385 . S
C1680 C1679 1.374 . S
C1681 C1678 1.499 . S
C1681 C1682 1.373 . S
C1681 C1683 1.389 . S
C1682 H1655 0.950 . S
C1682 C1668 1.377 . S
C1682 C1681 1.373 . S
C1683 C1667 1.377 . S
C1683 C1681 1.389 . S
C1683 C1684 1.524 . S
C1684 C1683 1.524 . S
C1684 C1685 1.397 . S
C1684 C1689 1.363 . S
C1685 H1656 0.950 . S
C1685 C1684 1.397 . S
C1685 C1686 1.334 . S
C1686 H1657 0.950 . S
C1686 C1685 1.334 . S
C1686 C1687 1.287 . S
C1687 C1686 1.287 . S
C1687 C1688 1.524 . S
C1687 H1690 0.999 . S
C1688 H1658 0.950 . S
C1688 C1687 1.524 . S
C1688 C1689 1.415 . S
C1689 H1659 0.950 . S
C1689 C1684 1.363 . S
C1689 C1688 1.415 . S
H1690 C1687 0.999 . S
H1691 C1672 0.913 . S
H1692 C1710 0.951 . S
H1693 C1712 0.951 . S
H1694 C1714 0.950 . S
H1695 C1715 0.950 . S
H1696 C1717 0.950 . S
H1697 C1720 0.950 . S
H1698 C1721 0.950 . S
H1699 C1723 0.950 . S
H1700 C1724 0.950 . S
H1701 C1725 0.951 . S
H1702 C1727 0.951 . S
H1703 C1729 0.950 . S
H1704 C1730 0.950 . S
H1705 C1732 0.950 . S
H1706 C1735 0.950 . S
H1707 C1736 0.950 . S
H1708 C1738 0.950 . S
H1709 C1739 0.950 . S
C1710 H1692 0.951 . S
C1710 C1711 1.366 . S
C1710 C1712 1.388 . S
C1711 C1710 1.366 . S
C1711 C1715 1.385 . S
C1712 H1693 0.951 . S
C1712 C1710 1.388 . S
C1712 C1713 1.366 . S
C1713 C1712 1.366 . S
C1713 C1714 1.414 . S
C1713 C1716 1.499 . S
C1714 H1694 0.950 . S
C1714 C1713 1.414 . S
C1714 C1715 1.374 . S
C1715 H1695 0.950 . S
C1715 C1711 1.385 . S
C1715 C1714 1.374 . S
C1716 C1713 1.499 . S
C1716 C1717 1.373 . S
C1716 C1718 1.389 . S
C1717 H1696 0.950 . S
C1717 C1716 1.373 . S
C1717 C1733 1.377 . S
C1718 C1716 1.389 . S
C1718 C1719 1.524 . S
C1718 C1732 1.377 . S
C1719 C1718 1.524 . S
C1719 C1720 1.397 . S
C1719 C1724 1.363 . S
C1720 H1697 0.950 . S
C1720 C1719 1.397 . S
C1720 C1721 1.334 . S
C1721 H1698 0.950 . S
C1721 C1720 1.334 . S
C1721 C1722 1.287 . S
C1722 C1721 1.287 . S
C1722 C1723 1.524 . S
C1722 H1741 0.913 . S
C1723 H1699 0.950 . S
C1723 C1722 1.524 . S
C1723 C1724 1.415 . S
C1724 H1700 0.950 . S
C1724 C1719 1.363 . S
C1724 C1723 1.415 . S
C1725 H1701 0.951 . S
C1725 C1726 1.366 . S
C1725 C1727 1.388 . S
C1726 C1725 1.366 . S
C1726 C1730 1.385 . S
C1727 H1702 0.951 . S
C1727 C1725 1.388 . S
C1727 C1728 1.366 . S
C1728 C1727 1.366 . S
C1728 C1729 1.414 . S
C1728 C1731 1.499 . S
C1729 H1703 0.950 . S
C1729 C1728 1.414 . S
C1729 C1730 1.374 . S
C1730 H1704 0.950 . S
C1730 C1726 1.385 . S
C1730 C1729 1.374 . S
C1731 C1728 1.499 . S
C1731 C1732 1.373 . S
C1731 C1733 1.389 . S
C1732 H1705 0.950 . S
C1732 C1718 1.377 . S
C1732 C1731 1.373 . S
C1733 C1717 1.377 . S
C1733 C1731 1.389 . S
C1733 C1734 1.524 . S
C1734 C1733 1.524 . S
C1734 C1735 1.397 . S
C1734 C1739 1.363 . S
C1735 H1706 0.950 . S
C1735 C1734 1.397 . S
C1735 C1736 1.334 . S
C1736 H1707 0.950 . S
C1736 C1735 1.334 . S
C1736 C1737 1.287 . S
C1737 C1736 1.287 . S
C1737 C1738 1.524 . S
C1737 H1740 0.999 . S
C1738 H1708 0.950 . S
C1738 C1737 1.524 . S
C1738 C1739 1.415 . S
C1739 H1709 0.950 . S
C1739 C1734 1.363 . S
C1739 C1738 1.415 . S
H1740 C1737 0.999 . S
H1741 C1722 0.913 . S
H1742 C1760 0.951 . S
H1743 C1762 0.951 . S
H1744 C1764 0.950 . S
H1745 C1765 0.950 . S
H1746 C1767 0.950 . S
H1747 C1770 0.950 . S
H1748 C1771 0.950 . S
H1749 C1773 0.950 1_655 S
H1750 C1774 0.950 . S
H1751 C1775 0.951 . S
H1752 C1777 0.951 . S
H1753 C1779 0.950 . S
H1754 C1780 0.950 . S
H1755 C1782 0.950 . S
H1756 C1785 0.950 . S
H1757 C1786 0.950 . S
H1758 C1788 0.950 . S
H1759 C1789 0.950 . S
C1760 H1742 0.951 . S
C1760 C1761 1.366 . S
C1760 C1762 1.388 . S
C1761 C1760 1.366 . S
C1761 C1765 1.385 . S
C1762 H1743 0.951 . S
C1762 C1760 1.388 . S
C1762 C1763 1.366 . S
C1763 C1762 1.366 . S
C1763 C1764 1.414 . S
C1763 C1766 1.499 . S
C1764 H1744 0.950 . S
C1764 C1763 1.414 . S
C1764 C1765 1.374 . S
C1765 H1745 0.950 . S
C1765 C1761 1.385 . S
C1765 C1764 1.374 . S
C1766 C1763 1.499 . S
C1766 C1767 1.373 . S
C1766 C1768 1.389 . S
C1767 H1746 0.950 . S
C1767 C1766 1.373 . S
C1767 C1783 1.377 . S
C1768 C1766 1.389 . S
C1768 C1769 1.524 . S
C1768 C1782 1.377 . S
C1769 C1768 1.524 . S
C1769 C1770 1.397 . S
C1769 C1774 1.363 . S
C1770 H1747 0.950 . S
C1770 C1769 1.397 . S
C1770 C1771 1.334 . S
C1771 H1748 0.950 . S
C1771 C1770 1.334 . S
C1771 C1772 1.287 . S
C1772 C1771 1.287 . S
C1772 C1773 1.524 . S
C1772 H1791 0.913 . S
C1773 H1749 0.950 1_455 S
C1773 C1772 1.524 . S
C1773 C1774 1.415 . S
C1774 H1750 0.950 . S
C1774 C1769 1.363 . S
C1774 C1773 1.415 . S
C1775 H1751 0.951 . S
C1775 C1776 1.366 . S
C1775 C1777 1.388 . S
C1776 C1775 1.366 . S
C1776 C1780 1.385 . S
C1777 H1752 0.951 . S
C1777 C1775 1.388 . S
C1777 C1778 1.366 . S
C1778 C1777 1.366 . S
C1778 C1779 1.414 . S
C1778 C1781 1.499 . S
C1779 H1753 0.950 . S
C1779 C1778 1.414 . S
C1779 C1780 1.374 . S
C1780 H1754 0.950 . S
C1780 C1776 1.385 . S
C1780 C1779 1.374 . S
C1781 C1778 1.499 . S
C1781 C1782 1.373 . S
C1781 C1783 1.389 . S
C1782 H1755 0.950 . S
C1782 C1768 1.377 . S
C1782 C1781 1.373 . S
C1783 C1767 1.377 . S
C1783 C1781 1.389 . S
C1783 C1784 1.524 . S
C1784 C1783 1.524 . S
C1784 C1785 1.397 . S
C1784 C1789 1.363 . S
C1785 H1756 0.950 . S
C1785 C1784 1.397 . S
C1785 C1786 1.334 . S
C1786 H1757 0.950 . S
C1786 C1785 1.334 . S
C1786 C1787 1.287 . S
C1787 C1786 1.287 . S
C1787 C1788 1.524 . S
C1787 H1790 0.999 . S
C1788 H1758 0.950 . S
C1788 C1787 1.524 . S
C1788 C1789 1.415 . S
C1789 H1759 0.950 . S
C1789 C1784 1.363 . S
C1789 C1788 1.415 . S
H1790 C1787 0.999 . S
H1791 C1772 0.913 . S
C611 C221 1.467 . S
C626 C330 1.467 . S
C676 C414 1.469 . S
C661 C241 1.445 . S
C726 C407 1.473 . S
C711 C157 1.457 . S
C761 C177 1.433 . S
C776 C323 1.477 . S
C826 C487 1.467 . S
C811 C93 1.436 . S
C876 C571 1.469 . S
C861 C113 1.476 . S
C911 C29 1.423 . S
C926 C564 1.473 . S
C961 C49 1.469 . S
C976 C480 1.477 . S
C1026 C314 1.344 . S
C1011 C61 1.505 . S
C1076 C398 1.348 . S
C1061 C17 1.475 . S
C1126 C409 1.399 . S
C1111 C125 1.523 . S
C1176 C325 1.400 . S
C1161 C81 1.498 . S
C1226 C493 1.344 . S
C1211 C189 1.461 . S
C1261 C145 1.507 . S
C1276 C577 1.349 . S
C1326 C566 1.400 . S
C1311 C253 1.484 . S
C1361 C209 1.526 . S
C1376 C482 1.400 . S
C1426 C312 1.572 . S
C1411 C23 1.526 . S
C1476 C396 1.586 . S
C1461 C55 1.572 . S
C1511 C87 1.522 . S
C1526 C403 1.550 . S
C1576 C319 1.561 . S
C1561 C119 1.562 . S
C1626 C491 1.571 . S
C1611 C151 1.563 . S
C1661 C183 1.530 . S
C1676 C575 1.585 . S
C1711 C215 1.555 . S
C1726 C582 1.550 . S
C1761 C247 1.523 . S
C1776 C498 1.561 . S
