# Generated by pormake.
# Topology eea, (3,6)-cn, num edge types: 1
# Building blocks:
#     Node 0, Type 0, BuildingBlock: MIDCAF_clean_linker_0, # of connection points: 3
#     Node 1, Type 0, BuildingBlock: MIDCAF_clean_linker_0, # of connection points: 3
#     Node 2, Type 0, BuildingBlock: MIDCAF_clean_linker_0, # of connection points: 3
#     Node 3, Type 0, BuildingBlock: MIDCAF_clean_linker_0, # of connection points: 3
#     Node 4, Type 0, BuildingBlock: MIDCAF_clean_linker_0, # of connection points: 3
#     Node 5, Type 0, BuildingBlock: MIDCAF_clean_linker_0, # of connection points: 3
#     Node 6, Type 0, BuildingBlock: MIDCAF_clean_linker_0, # of connection points: 3
#     Node 7, Type 0, BuildingBlock: MIDCAF_clean_linker_0, # of connection points: 3
#     Node 8, Type 0, BuildingBlock: MIDCAF_clean_linker_0, # of connection points: 3
#     Node 9, Type 0, BuildingBlock: MIDCAF_clean_linker_0, # of connection points: 3
#     Node 10, Type 0, BuildingBlock: MIDCAF_clean_linker_0, # of connection points: 3
#     Node 11, Type 0, BuildingBlock: MIDCAF_clean_linker_0, # of connection points: 3
#     Node 12, Type 0, BuildingBlock: MIDCAF_clean_linker_0, # of connection points: 3
#     Node 13, Type 0, BuildingBlock: MIDCAF_clean_linker_0, # of connection points: 3
#     Node 14, Type 0, BuildingBlock: MIDCAF_clean_linker_0, # of connection points: 3
#     Node 15, Type 0, BuildingBlock: MIDCAF_clean_linker_0, # of connection points: 3
#     Node 16, Type 0, BuildingBlock: MIDCAF_clean_linker_0, # of connection points: 3
#     Node 17, Type 0, BuildingBlock: MIDCAF_clean_linker_0, # of connection points: 3
#     Node 18, Type 1, BuildingBlock: KUMBOL_clean_sbu_0, # of connection points: 6
#     Node 19, Type 1, BuildingBlock: KUMBOL_clean_sbu_0, # of connection points: 6
#     Node 20, Type 1, BuildingBlock: KUMBOL_clean_sbu_0, # of connection points: 6
#     Node 21, Type 1, BuildingBlock: KUMBOL_clean_sbu_0, # of connection points: 6
#     Node 22, Type 1, BuildingBlock: KUMBOL_clean_sbu_0, # of connection points: 6
#     Node 23, Type 1, BuildingBlock: KUMBOL_clean_sbu_0, # of connection points: 6
#     Node 24, Type 1, BuildingBlock: KUMBOL_clean_sbu_0, # of connection points: 6
#     Node 25, Type 1, BuildingBlock: KUMBOL_clean_sbu_0, # of connection points: 6
#     Node 26, Type 1, BuildingBlock: KUMBOL_clean_sbu_0, # of connection points: 6
#     Edge 27, Type (0, 1), BuildingBlock: KIFKEQ_clean_linker_1, # of connection points: 2
#     Edge 28, Type (0, 1), BuildingBlock: KIFKEQ_clean_linker_1, # of connection points: 2
#     Edge 29, Type (0, 1), BuildingBlock: KIFKEQ_clean_linker_1, # of connection points: 2
#     Edge 30, Type (0, 1), BuildingBlock: KIFKEQ_clean_linker_1, # of connection points: 2
#     Edge 31, Type (0, 1), BuildingBlock: KIFKEQ_clean_linker_1, # of connection points: 2
#     Edge 32, Type (0, 1), BuildingBlock: KIFKEQ_clean_linker_1, # of connection points: 2
#     Edge 33, Type (0, 1), BuildingBlock: KIFKEQ_clean_linker_1, # of connection points: 2
#     Edge 34, Type (0, 1), BuildingBlock: KIFKEQ_clean_linker_1, # of connection points: 2
#     Edge 35, Type (0, 1), BuildingBlock: KIFKEQ_clean_linker_1, # of connection points: 2
#     Edge 36, Type (0, 1), BuildingBlock: KIFKEQ_clean_linker_1, # of connection points: 2
#     Edge 37, Type (0, 1), BuildingBlock: KIFKEQ_clean_linker_1, # of connection points: 2
#     Edge 38, Type (0, 1), BuildingBlock: KIFKEQ_clean_linker_1, # of connection points: 2
#     Edge 39, Type (0, 1), BuildingBlock: KIFKEQ_clean_linker_1, # of connection points: 2
#     Edge 40, Type (0, 1), BuildingBlock: KIFKEQ_clean_linker_1, # of connection points: 2
#     Edge 41, Type (0, 1), BuildingBlock: KIFKEQ_clean_linker_1, # of connection points: 2
#     Edge 42, Type (0, 1), BuildingBlock: KIFKEQ_clean_linker_1, # of connection points: 2
#     Edge 43, Type (0, 1), BuildingBlock: KIFKEQ_clean_linker_1, # of connection points: 2
#     Edge 44, Type (0, 1), BuildingBlock: KIFKEQ_clean_linker_1, # of connection points: 2
#     Edge 45, Type (0, 1), BuildingBlock: KIFKEQ_clean_linker_1, # of connection points: 2
#     Edge 46, Type (0, 1), BuildingBlock: KIFKEQ_clean_linker_1, # of connection points: 2
#     Edge 47, Type (0, 1), BuildingBlock: KIFKEQ_clean_linker_1, # of connection points: 2
#     Edge 48, Type (0, 1), BuildingBlock: KIFKEQ_clean_linker_1, # of connection points: 2
#     Edge 49, Type (0, 1), BuildingBlock: KIFKEQ_clean_linker_1, # of connection points: 2
#     Edge 50, Type (0, 1), BuildingBlock: KIFKEQ_clean_linker_1, # of connection points: 2
#     Edge 51, Type (0, 1), BuildingBlock: KIFKEQ_clean_linker_1, # of connection points: 2
#     Edge 52, Type (0, 1), BuildingBlock: KIFKEQ_clean_linker_1, # of connection points: 2
#     Edge 53, Type (0, 1), BuildingBlock: KIFKEQ_clean_linker_1, # of connection points: 2
#     Edge 54, Type (0, 1), BuildingBlock: KIFKEQ_clean_linker_1, # of connection points: 2
#     Edge 55, Type (0, 1), BuildingBlock: KIFKEQ_clean_linker_1, # of connection points: 2
#     Edge 56, Type (0, 1), BuildingBlock: KIFKEQ_clean_linker_1, # of connection points: 2
#     Edge 57, Type (0, 1), BuildingBlock: KIFKEQ_clean_linker_1, # of connection points: 2
#     Edge 58, Type (0, 1), BuildingBlock: KIFKEQ_clean_linker_1, # of connection points: 2
#     Edge 59, Type (0, 1), BuildingBlock: KIFKEQ_clean_linker_1, # of connection points: 2
#     Edge 60, Type (0, 1), BuildingBlock: KIFKEQ_clean_linker_1, # of connection points: 2
#     Edge 61, Type (0, 1), BuildingBlock: KIFKEQ_clean_linker_1, # of connection points: 2
#     Edge 62, Type (0, 1), BuildingBlock: KIFKEQ_clean_linker_1, # of connection points: 2
#     Edge 63, Type (0, 1), BuildingBlock: KIFKEQ_clean_linker_1, # of connection points: 2
#     Edge 64, Type (0, 1), BuildingBlock: KIFKEQ_clean_linker_1, # of connection points: 2
#     Edge 65, Type (0, 1), BuildingBlock: KIFKEQ_clean_linker_1, # of connection points: 2
#     Edge 66, Type (0, 1), BuildingBlock: KIFKEQ_clean_linker_1, # of connection points: 2
#     Edge 67, Type (0, 1), BuildingBlock: KIFKEQ_clean_linker_1, # of connection points: 2
#     Edge 68, Type (0, 1), BuildingBlock: KIFKEQ_clean_linker_1, # of connection points: 2
#     Edge 69, Type (0, 1), BuildingBlock: KIFKEQ_clean_linker_1, # of connection points: 2
#     Edge 70, Type (0, 1), BuildingBlock: KIFKEQ_clean_linker_1, # of connection points: 2
#     Edge 71, Type (0, 1), BuildingBlock: KIFKEQ_clean_linker_1, # of connection points: 2
#     Edge 72, Type (0, 1), BuildingBlock: KIFKEQ_clean_linker_1, # of connection points: 2
#     Edge 73, Type (0, 1), BuildingBlock: KIFKEQ_clean_linker_1, # of connection points: 2
#     Edge 74, Type (0, 1), BuildingBlock: KIFKEQ_clean_linker_1, # of connection points: 2
#     Edge 75, Type (0, 1), BuildingBlock: KIFKEQ_clean_linker_1, # of connection points: 2
#     Edge 76, Type (0, 1), BuildingBlock: KIFKEQ_clean_linker_1, # of connection points: 2
#     Edge 77, Type (0, 1), BuildingBlock: KIFKEQ_clean_linker_1, # of connection points: 2
#     Edge 78, Type (0, 1), BuildingBlock: KIFKEQ_clean_linker_1, # of connection points: 2
#     Edge 79, Type (0, 1), BuildingBlock: KIFKEQ_clean_linker_1, # of connection points: 2
#     Edge 80, Type (0, 1), BuildingBlock: KIFKEQ_clean_linker_1, # of connection points: 2
# Relax obj value: 0.009
# Max RMSD: 0.094
# Mean RMSD: 0.061
data_MOF--net-eea--node1-KUMBOL_clean_sbu_0--node2-MIDCAF_clean_linker_0--edge1-KIFKEQ_clean_linker_1
_symmetry_space_group_name_H-M    P1
_symmetry_Int_Tables_number       1
_symmetry_cell_setting            triclinic
loop_
_symmetry_equiv_pos_as_xyz
'x, y, z'
_cell_length_a     63.048198
_cell_length_b     64.335552
_cell_length_c     89.135373
_cell_angle_alpha  90.110192
_cell_angle_beta   90.169794
_cell_angle_gamma 119.91198
loop_
_atom_site_label
_atom_site_type_symbol
_atom_site_fract_x
_atom_site_fract_y
_atom_site_fract_z
_atom_type_partial_charge
C0 C 0.24654 0.04731 0.40829 0.0
C1 C 0.24489 0.04576 0.39257 0.0
C2 C 0.25014 0.06628 0.38427 0.0
C3 C 0.25621 0.08779 0.39161 0.0
H4 H 0.26267 0.15473 0.38461 0.0
H5 H 0.25379 0.18262 0.37143 0.0
H6 H 0.24632 0.21077 0.41396 0.0
H7 H 0.25626 0.18362 0.42708 0.0
H8 H 0.29779 0.17804 0.45245 0.0
H9 H 0.31199 0.18458 0.47832 0.0
H10 H 0.2806 0.10808 0.4841 0.0
H11 H 0.26752 0.10173 0.45798 0.0
H12 H 0.25374 0.06934 0.42776 0.0
H13 H 0.24281 0.03178 0.41494 0.0
H14 H 0.24891 0.06552 0.37214 0.0
H15 H 0.25976 0.10322 0.3849 0.0
N16 N 0.26036 0.12883 0.40778 0.0
N17 N 0.27115 0.15241 0.4296 0.0
N18 N 0.26944 0.11514 0.4299 0.0
C19 C 0.26434 0.14914 0.41492 0.0
C20 C 0.27385 0.13553 0.43715 0.0
C21 C 0.26282 0.11173 0.41518 0.0
C22 C 0.26016 0.16693 0.4069 0.0
C23 C 0.25929 0.167 0.39114 0.0
C24 C 0.25403 0.18291 0.38358 0.0
C25 C 0.24917 0.19892 0.39159 0.0
C26 C 0.25035 0.19902 0.40737 0.0
C27 C 0.25595 0.18334 0.41492 0.0
C28 C 0.28161 0.13937 0.45311 0.0
C29 C 0.29388 0.16261 0.45926 0.0
C30 C 0.30189 0.16634 0.47417 0.0
C31 C 0.29751 0.14688 0.48342 0.0
C32 C 0.28481 0.12358 0.4773 0.0
C33 C 0.27715 0.1199 0.46231 0.0
C34 C 0.2575 0.08928 0.40738 0.0
C35 C 0.25293 0.06887 0.41562 0.0
C36 C 0.97281 0.19106 0.41252 0.0
C37 C 0.97568 0.18758 0.39722 0.0
C38 C 0.95655 0.1678 0.38976 0.0
C39 C 0.93523 0.15185 0.3974 0.0
H40 H 0.88042 0.07913 0.39762 0.0
H41 H 0.85107 0.04128 0.38573 0.0
H42 H 0.79588 0.03321 0.41743 0.0
H43 H 0.82517 0.07097 0.42945 0.0
H44 H 0.85571 0.09633 0.46385 0.0
H45 H 0.84688 0.10557 0.48885 0.0
H46 H 0.8934 0.18115 0.48041 0.0
H47 H 0.90264 0.172 0.45541 0.0
H48 H 0.94999 0.17842 0.43192 0.0
H49 H 0.9873 0.20582 0.41873 0.0
H50 H 0.95791 0.16473 0.37794 0.0
H51 H 0.92091 0.13685 0.39125 0.0
N52 N 0.89356 0.11701 0.41437 0.0
N53 N 0.8687 0.10661 0.43569 0.0
N54 N 0.90529 0.14353 0.43483 0.0
C55 C 0.87293 0.10112 0.42171 0.0
C56 C 0.88478 0.12775 0.44234 0.0
C57 C 0.90984 0.13825 0.42083 0.0
C58 C 0.85517 0.0781 0.4145 0.0
C59 C 0.86204 0.06932 0.40207 0.0
C60 C 0.84529 0.04759 0.3953 0.0
C61 C 0.82123 0.03435 0.40067 0.0
C62 C 0.81428 0.04316 0.41301 0.0
C63 C 0.83111 0.06471 0.41993 0.0
C64 C 0.87985 0.13344 0.45762 0.0
C65 C 0.86413 0.11493 0.46731 0.0
C66 C 0.85916 0.12018 0.48166 0.0
C67 C 0.86946 0.14406 0.48653 0.0
C68 C 0.88515 0.16259 0.47688 0.0
C69 C 0.89051 0.15733 0.46261 0.0
C70 C 0.93239 0.15535 0.41269 0.0
C71 C 0.95142 0.17522 0.42013 0.0
C72 C 0.81668 0.78842 0.41115 0.0
C73 C 0.81629 0.79019 0.39544 0.0
C74 C 0.83361 0.78753 0.38701 0.0
C75 C 0.85095 0.78329 0.39412 0.0
H76 H 0.91969 0.7902 0.38776 0.0
H77 H 0.95683 0.79769 0.37482 0.0
H78 H 0.98044 0.77587 0.41431 0.0
H79 H 0.94316 0.76788 0.42716 0.0
H80 H 0.90149 0.73879 0.45291 0.0
H81 H 0.89339 0.72236 0.47811 0.0
H82 H 0.84456 0.75037 0.48547 0.0
H83 H 0.85179 0.76573 0.45995 0.0
H84 H 0.83339 0.78243 0.43036 0.0
H85 H 0.80345 0.79017 0.41796 0.0
H86 H 0.8339 0.78896 0.37489 0.0
H87 H 0.864 0.78133 0.38725 0.0
N88 N 0.88938 0.77918 0.40992 0.0
N89 N 0.90172 0.76608 0.43103 0.0
N90 N 0.86559 0.76811 0.43179 0.0
C91 C 0.90583 0.77434 0.41667 0.0
C92 C 0.88168 0.76291 0.43868 0.0
C93 C 0.86921 0.77612 0.41738 0.0
C94 C 0.92828 0.77842 0.40857 0.0
C95 C 0.93272 0.78688 0.3937 0.0
C96 C 0.95415 0.79132 0.38627 0.0
C97 C 0.97175 0.78743 0.39348 0.0
C98 C 0.96719 0.77876 0.40829 0.0
C99 C 0.94579 0.77431 0.41572 0.0
C100 C 0.87726 0.75356 0.45432 0.0
C101 C 0.88904 0.74149 0.45991 0.0
C102 C 0.88449 0.73217 0.47448 0.0
C103 C 0.8683 0.73497 0.48403 0.0
C104 C 0.85677 0.74736 0.47847 0.0
C105 C 0.86104 0.75636 0.4638 0.0
C106 C 0.85118 0.78123 0.40983 0.0
C107 C 0.83378 0.78384 0.41825 0.0
C108 C 0.03344 0.21606 0.6013 0.0
C109 C 0.03192 0.21372 0.61701 0.0
C110 C 0.05234 0.21617 0.62496 0.0
C111 C 0.07368 0.22072 0.6174 0.0
H112 H 0.13075 0.20514 0.62008 0.0
H113 H 0.16054 0.19773 0.63292 0.0
H114 H 0.21343 0.23639 0.59833 0.0
H115 H 0.18369 0.24391 0.58545 0.0
H116 H 0.16495 0.25641 0.55527 0.0
H117 H 0.17354 0.27353 0.53022 0.0
H118 H 0.10298 0.26918 0.52895 0.0
H119 H 0.09412 0.25164 0.554 0.0
H120 H 0.05549 0.22283 0.58165 0.0
H121 H 0.0181 0.21447 0.59485 0.0
H122 H 0.05171 0.21431 0.63705 0.0
H123 H 0.089 0.22245 0.62394 0.0
N124 N 0.11524 0.22474 0.60077 0.0
N125 N 0.14057 0.2386 0.57963 0.0
N126 N 0.10268 0.23734 0.5795 0.0
C127 C 0.1364 0.22963 0.59382 0.0
C128 C 0.12383 0.2425 0.57235 0.0
C129 C 0.09827 0.22852 0.59374 0.0
C130 C 0.15471 0.22516 0.60168 0.0
C131 C 0.14872 0.21213 0.61518 0.0
C132 C 0.16578 0.20774 0.62253 0.0
C133 C 0.18941 0.21645 0.61668 0.0
C134 C 0.19548 0.22961 0.60324 0.0
C135 C 0.17834 0.2338 0.5958 0.0
C136 C 0.12883 0.25263 0.55682 0.0
C137 C 0.15116 0.25901 0.5497 0.0
C138 C 0.15619 0.26901 0.5353 0.0
C139 C 0.13905 0.27294 0.52751 0.0
C140 C 0.11656 0.26626 0.53451 0.0
C141 C 0.11154 0.2563 0.54896 0.0
C142 C 0.07535 0.22333 0.60169 0.0
C143 C 0.05494 0.221 0.59374 0.0
C144 C 0.76946 0.80868 0.59903 0.0
C145 C 0.78534 0.81612 0.61148 0.0
C146 C 0.79553 0.83988 0.61657 0.0
C147 C 0.78992 0.85585 0.60942 0.0
H148 H 0.80067 0.92383 0.61317 0.0
H149 H 0.8106 0.96116 0.62597 0.0
H150 H 0.76367 0.97169 0.59532 0.0
H151 H 0.75365 0.93437 0.58246 0.0
H152 H 0.7527 0.90758 0.54815 0.0
H153 H 0.73282 0.89877 0.52377 0.0
H154 H 0.70118 0.82283 0.53217 0.0
H155 H 0.72224 0.83183 0.55631 0.0
H156 H 0.75172 0.81841 0.5822 0.0
H157 H 0.76149 0.79051 0.59478 0.0
H158 H 0.80763 0.84607 0.62623 0.0
H159 H 0.79811 0.87401 0.6137 0.0
N160 N 0.77482 0.88706 0.59595 0.0
N161 N 0.75806 0.89739 0.57578 0.0
N162 N 0.75641 0.86012 0.57593 0.0
C163 C 0.76969 0.903 0.58927 0.0
C164 C 0.75141 0.87603 0.56902 0.0
C165 C 0.76825 0.86559 0.5894 0.0
C166 C 0.77631 0.92604 0.59678 0.0
C167 C 0.79247 0.93409 0.60912 0.0
C168 C 0.79828 0.95554 0.61642 0.0
C169 C 0.78785 0.96927 0.61166 0.0
C170 C 0.77179 0.96133 0.59931 0.0
C171 C 0.76619 0.94002 0.5919 0.0
C172 C 0.73903 0.8704 0.5542 0.0
C173 C 0.7415 0.88899 0.5448 0.0
C174 C 0.72991 0.88389 0.53081 0.0
C175 C 0.71514 0.86004 0.52593 0.0
C176 C 0.71267 0.84143 0.53538 0.0
C177 C 0.72464 0.84657 0.54929 0.0
C178 C 0.7741 0.84849 0.59692 0.0
C179 C 0.76399 0.82472 0.59178 0.0
C180 C 0.19294 0.95285 0.6027 0.0
C181 C 0.18831 0.95859 0.61712 0.0
C182 C 0.16652 0.94226 0.62434 0.0
C183 C 0.14978 0.92077 0.61735 0.0
H184 H 0.0906 0.85544 0.62663 0.0
H185 H 0.0534 0.82902 0.64037 0.0
H186 H 0.01896 0.79165 0.59927 0.0
H187 H 0.05625 0.81804 0.58542 0.0
H188 H 0.10297 0.82098 0.56167 0.0
H189 H 0.11147 0.81069 0.53685 0.0
H190 H 0.16337 0.88527 0.52875 0.0
H191 H 0.15513 0.89565 0.5536 0.0
H192 H 0.18037 0.9275 0.58459 0.0
H193 H 0.20968 0.9649 0.59688 0.0
H194 H 0.16217 0.94623 0.63534 0.0
H195 H 0.13318 0.90875 0.6233 0.0
N196 N 0.11572 0.87646 0.60297 0.0
N197 N 0.1031 0.84995 0.58251 0.0
N198 N 0.14024 0.88646 0.58152 0.0
C199 C 0.09897 0.85543 0.59655 0.0
C200 C 0.12373 0.86538 0.57491 0.0
C201 C 0.13636 0.89211 0.59558 0.0
C202 C 0.07644 0.83889 0.60489 0.0
C203 C 0.07513 0.8416 0.62048 0.0
C204 C 0.05386 0.82641 0.62839 0.0
C205 C 0.03327 0.80834 0.62089 0.0
C206 C 0.0345 0.8056 0.60532 0.0
C207 C 0.05592 0.8206 0.59741 0.0
C208 C 0.12839 0.85915 0.55967 0.0
C209 C 0.11614 0.83522 0.5546 0.0
C210 C 0.12109 0.82929 0.54042 0.0
C211 C 0.1381 0.84717 0.53087 0.0
C212 C 0.15006 0.87113 0.53582 0.0
C213 C 0.14542 0.87703 0.5501 0.0
C214 C 0.15434 0.91501 0.60291 0.0
C215 C 0.17616 0.93132 0.59568 0.0
C216 C 0.88931 0.36852 0.75251 0.0
C217 C 0.88805 0.36662 0.73675 0.0
C218 C 0.89246 0.38684 0.72831 0.0
C219 C 0.89779 0.40828 0.73541 0.0
H220 H 0.88036 0.46321 0.73237 0.0
H221 H 0.87086 0.49101 0.71977 0.0
H222 H 0.91506 0.54603 0.75212 0.0
H223 H 0.92391 0.5179 0.76508 0.0
H224 H 0.94971 0.50342 0.79228 0.0
H225 H 0.96855 0.51217 0.81723 0.0
H226 H 0.93607 0.43638 0.82579 0.0
H227 H 0.91747 0.42751 0.80082 0.0
H228 H 0.89587 0.39096 0.77175 0.0
H229 H 0.88558 0.35326 0.75942 0.0
H230 H 0.89218 0.3863 0.71617 0.0
H231 H 0.90121 0.4235 0.72854 0.0
N232 N 0.90182 0.44958 0.75123 0.0
N233 N 0.91768 0.47577 0.7718 0.0
N234 N 0.91494 0.43803 0.77266 0.0
C235 C 0.90776 0.47088 0.75778 0.0
C236 C 0.92126 0.45938 0.77931 0.0
C237 C 0.9054 0.4331 0.75856 0.0
C238 C 0.90287 0.48827 0.74979 0.0
C239 C 0.88816 0.48125 0.7368 0.0
C240 C 0.88279 0.49727 0.7295 0.0
C241 C 0.89216 0.5208 0.7349 0.0
C242 C 0.90717 0.52793 0.74778 0.0
C243 C 0.91238 0.51182 0.75517 0.0
C244 C 0.93213 0.46477 0.79456 0.0
C245 C 0.94651 0.48862 0.7995 0.0
C246 C 0.95739 0.49365 0.81373 0.0
C247 C 0.95373 0.47494 0.82339 0.0
C248 C 0.93905 0.45111 0.81857 0.0
C249 C 0.92853 0.44607 0.80426 0.0
C250 C 0.89928 0.41019 0.75113 0.0
C251 C 0.89506 0.39012 0.75961 0.0
C252 C 0.64223 0.52385 0.74243 0.0
C253 C 0.64334 0.52211 0.72676 0.0
C254 C 0.62286 0.50421 0.71908 0.0
C255 C 0.60176 0.4883 0.7269 0.0
H256 H 0.53631 0.42477 0.72131 0.0
H257 H 0.50606 0.38718 0.70945 0.0
H258 H 0.47241 0.36024 0.75249 0.0
H259 H 0.50243 0.39758 0.76438 0.0
H260 H 0.50997 0.43965 0.7874 0.0
H261 H 0.50102 0.44717 0.81251 0.0
H262 H 0.57634 0.50294 0.81832 0.0
H263 H 0.58523 0.49589 0.79271 0.0
H264 H 0.62073 0.50998 0.76232 0.0
H265 H 0.65768 0.53763 0.74863 0.0
H266 H 0.62325 0.50234 0.70701 0.0
H267 H 0.58635 0.47469 0.72059 0.0
N268 N 0.56092 0.45263 0.74389 0.0
N269 N 0.53664 0.44174 0.76542 0.0
N270 N 0.57419 0.47773 0.76515 0.0
C271 C 0.54024 0.4368 0.75117 0.0
C272 C 0.55337 0.46212 0.7725 0.0
C273 C 0.57803 0.47309 0.75078 0.0
C274 C 0.52185 0.41422 0.74381 0.0
C275 C 0.52247 0.41084 0.72825 0.0
C276 C 0.50509 0.38939 0.72143 0.0
C277 C 0.48697 0.3708 0.73007 0.0
C278 C 0.48634 0.37418 0.74559 0.0
C279 C 0.50348 0.39566 0.75237 0.0
C280 C 0.54839 0.46709 0.78799 0.0
C281 C 0.52475 0.4535 0.79398 0.0
C282 C 0.51961 0.45772 0.8085 0.0
C283 C 0.53799 0.47547 0.81759 0.0
C284 C 0.56167 0.48923 0.81161 0.0
C285 C 0.5668 0.48513 0.79695 0.0
C286 C 0.60053 0.49009 0.74258 0.0
C287 C 0.621 0.50811 0.75025 0.0
C288 C 0.48755 0.12318 0.74681 0.0
C289 C 0.48995 0.12982 0.73161 0.0
C290 C 0.51023 0.13202 0.72364 0.0
C291 C 0.52739 0.12735 0.73064 0.0
H292 H 0.60544 0.14693 0.73179 0.0
H293 H 0.64257 0.15356 0.71882 0.0
H294 H 0.64002 0.09411 0.74268 0.0
H295 H 0.60339 0.08786 0.75599 0.0
H296 H 0.58394 0.0952 0.79437 0.0
H297 H 0.57398 0.07713 0.81936 0.0
H298 H 0.49866 0.05847 0.81291 0.0
H299 H 0.5085 0.07663 0.78808 0.0
H300 H 0.50191 0.11324 0.76547 0.0
H301 H 0.47254 0.1218 0.75344 0.0
H302 H 0.51261 0.13686 0.71189 0.0
H303 H 0.54256 0.12895 0.72409 0.0
N304 N 0.56321 0.11865 0.74617 0.0
N305 N 0.57365 0.10264 0.76674 0.0
N306 N 0.53733 0.1043 0.76706 0.0
C307 C 0.57895 0.11276 0.75285 0.0
C308 C 0.55289 0.09843 0.77396 0.0
C309 C 0.54229 0.11442 0.7532 0.0
C310 C 0.60147 0.11688 0.74495 0.0
C311 C 0.61282 0.1353 0.73429 0.0
C312 C 0.63409 0.13916 0.7269 0.0
C313 C 0.64407 0.12429 0.72972 0.0
C314 C 0.63261 0.10575 0.74025 0.0
C315 C 0.61173 0.10227 0.74791 0.0
C316 C 0.54703 0.08738 0.78915 0.0
C317 C 0.56524 0.08723 0.79826 0.0
C318 C 0.55959 0.07701 0.81262 0.0
C319 C 0.53553 0.06633 0.8181 0.0
C320 C 0.51733 0.06638 0.80897 0.0
C321 C 0.52304 0.07692 0.79475 0.0
C322 C 0.52467 0.12028 0.74578 0.0
C323 C 0.50458 0.11841 0.75377 0.0
C324 C 0.69919 0.54428 0.93651 0.0
C325 C 0.69729 0.54177 0.9522 0.0
C326 C 0.71755 0.54428 0.96037 0.0
C327 C 0.73908 0.5489 0.95302 0.0
H328 H 0.80527 0.55085 0.95971 0.0
H329 H 0.83516 0.54384 0.97282 0.0
H330 H 0.8684 0.54398 0.93054 0.0
H331 H 0.83859 0.55108 0.91735 0.0
H332 H 0.81979 0.56642 0.88693 0.0
H333 H 0.82765 0.58215 0.86148 0.0
H334 H 0.77693 0.60815 0.86802 0.0
H335 H 0.76822 0.59132 0.8931 0.0
H336 H 0.72158 0.55106 0.91708 0.0
H337 H 0.68399 0.54269 0.92991 0.0
H338 H 0.71662 0.54232 0.97246 0.0
H339 H 0.75425 0.55057 0.95968 0.0
N340 N 0.78064 0.5523 0.9366 0.0
N341 N 0.80506 0.56375 0.91499 0.0
N342 N 0.76804 0.5642 0.91507 0.0
C343 C 0.80126 0.55593 0.92945 0.0
C344 C 0.78862 0.56809 0.90774 0.0
C345 C 0.76384 0.5562 0.92948 0.0
C346 C 0.81946 0.55155 0.93743 0.0
C347 C 0.8189 0.54935 0.95316 0.0
C348 C 0.83613 0.54546 0.96072 0.0
C349 C 0.85415 0.54333 0.95274 0.0
C350 C 0.85461 0.54532 0.93701 0.0
C351 C 0.8376 0.54955 0.92946 0.0
C352 C 0.79333 0.57752 0.89211 0.0
C353 C 0.81024 0.57541 0.8829 0.0
C354 C 0.81488 0.58463 0.86828 0.0
C355 C 0.80302 0.59659 0.8625 0.0
C356 C 0.78611 0.59868 0.87179 0.0
C357 C 0.7812 0.58912 0.88631 0.0
C358 C 0.74103 0.5515 0.93732 0.0
C359 C 0.72083 0.54925 0.92917 0.0
C360 C 0.41938 0.13108 0.9372 0.0
C361 C 0.43046 0.13813 0.95145 0.0
C362 C 0.43682 0.16105 0.95683 0.0
C363 C 0.43259 0.17667 0.94814 0.0
H364 H 0.45473 0.24745 0.94501 0.0
H365 H 0.46689 0.28607 0.95643 0.0
H366 H 0.4211 0.29697 0.92492 0.0
H367 H 0.40964 0.25852 0.91307 0.0
H368 H 0.41113 0.22731 0.87898 0.0
H369 H 0.39367 0.21696 0.8539 0.0
H370 H 0.3555 0.14189 0.86596 0.0
H371 H 0.37419 0.15232 0.89078 0.0
H372 H 0.40687 0.14085 0.91747 0.0
H373 H 0.41446 0.11362 0.93264 0.0
H374 H 0.44502 0.16694 0.96783 0.0
H375 H 0.43791 0.19421 0.95272 0.0
N376 N 0.42576 0.20939 0.92987 0.0
N377 N 0.41268 0.21946 0.90784 0.0
N378 N 0.4078 0.18095 0.91061 0.0
C379 C 0.42303 0.22568 0.92172 0.0
C380 C 0.40506 0.19713 0.90218 0.0
C381 C 0.41823 0.18703 0.9245 0.0
C382 C 0.43109 0.24979 0.92815 0.0
C383 C 0.44727 0.25808 0.94046 0.0
C384 C 0.45415 0.28023 0.9471 0.0
C385 C 0.4448 0.29463 0.94175 0.0
C386 C 0.4289 0.28652 0.92926 0.0
C387 C 0.42223 0.26441 0.92249 0.0
C388 C 0.39407 0.19066 0.88691 0.0
C389 C 0.39902 0.20859 0.87626 0.0
C390 C 0.38882 0.2026 0.86185 0.0
C391 C 0.37295 0.17852 0.85773 0.0
C392 C 0.36795 0.1606 0.86848 0.0
C393 C 0.37855 0.16658 0.88281 0.0
C394 C 0.42187 0.16984 0.93378 0.0
C395 C 0.41515 0.14676 0.92845 0.0
C396 C 0.85232 0.29629 0.93571 0.0
C397 C 0.85256 0.29846 0.95144 0.0
C398 C 0.83561 0.27853 0.95981 0.0
C399 C 0.81885 0.25714 0.95265 0.0
H400 H 0.74942 0.19827 0.95768 0.0
H401 H 0.71191 0.16992 0.97033 0.0
H402 H 0.68998 0.12345 0.93148 0.0
H403 H 0.7273 0.15202 0.91864 0.0
H404 H 0.75932 0.17288 0.88757 0.0
H405 H 0.7691 0.16624 0.86214 0.0
H406 H 0.8435 0.22386 0.86827 0.0
H407 H 0.83357 0.23102 0.89327 0.0
H408 H 0.83618 0.27389 0.91646 0.0
H409 H 0.86464 0.31131 0.92881 0.0
H410 H 0.83545 0.27927 0.97194 0.0
H411 H 0.80614 0.24216 0.95946 0.0
N412 N 0.78056 0.21588 0.93631 0.0
N413 N 0.76907 0.19095 0.91502 0.0
N414 N 0.80579 0.22778 0.91514 0.0
C415 C 0.76428 0.19518 0.92926 0.0
C416 C 0.78989 0.20717 0.90791 0.0
C417 C 0.8013 0.2323 0.92931 0.0
C418 C 0.74149 0.17755 0.93707 0.0
C419 C 0.73666 0.18202 0.95178 0.0
C420 C 0.71516 0.16566 0.95912 0.0
C421 C 0.69786 0.14438 0.95195 0.0
C422 C 0.70272 0.13982 0.93727 0.0
C423 C 0.72425 0.15618 0.92993 0.0
C424 C 0.79559 0.20257 0.89249 0.0
C425 C 0.77775 0.18415 0.88346 0.0
C426 C 0.7834 0.18027 0.86888 0.0
C427 C 0.80709 0.1946 0.86302 0.0
C428 C 0.82492 0.21281 0.87217 0.0
C429 C 0.81923 0.21682 0.88663 0.0
C430 C 0.81885 0.255 0.93696 0.0
C431 C 0.83583 0.27481 0.92858 0.0
C432 C 0.57857 0.70868 0.07481 0.0
C433 C 0.56188 0.69964 0.06277 0.0
C434 C 0.55163 0.7133 0.05745 0.0
C435 C 0.55772 0.73528 0.06411 0.0
H436 H 0.56934 0.80519 0.05452 0.0
H437 H 0.55893 0.83287 0.04228 0.0
H438 H 0.56238 0.86607 0.08503 0.0
H439 H 0.57291 0.83854 0.09733 0.0
H440 H 0.59718 0.82568 0.12548 0.0
H441 H 0.61432 0.83307 0.15077 0.0
H442 H 0.63412 0.77832 0.14432 0.0
H443 H 0.61635 0.7704 0.11934 0.0
H444 H 0.59725 0.73682 0.09088 0.0
H445 H 0.58723 0.69893 0.07901 0.0
H446 H 0.53844 0.70678 0.04835 0.0
H447 H 0.5492 0.74514 0.05986 0.0
N448 N 0.57378 0.78226 0.07726 0.0
N449 N 0.58824 0.80754 0.09836 0.0
N450 N 0.58985 0.77191 0.0978 0.0
C451 C 0.57815 0.80274 0.08437 0.0
C452 C 0.59424 0.79223 0.10512 0.0
C453 C 0.57953 0.76673 0.08392 0.0
C454 C 0.57193 0.81961 0.07693 0.0
C455 C 0.56787 0.81837 0.06134 0.0
C456 C 0.56205 0.83429 0.05429 0.0
C457 C 0.55981 0.85156 0.06271 0.0
C458 C 0.56379 0.85279 0.07829 0.0
C459 C 0.56996 0.8371 0.08531 0.0
C460 C 0.60526 0.79737 0.12037 0.0
C461 C 0.60521 0.81524 0.12945 0.0
C462 C 0.61515 0.81956 0.14395 0.0
C463 C 0.62553 0.80623 0.14966 0.0
C464 C 0.62584 0.7886 0.14046 0.0
C465 C 0.61575 0.78415 0.12605 0.0
C466 C 0.574 0.74403 0.07635 0.0
C467 C 0.58445 0.73052 0.08157 0.0
C468 C 0.30509 0.86134 0.08054 0.0
C469 C 0.30792 0.85737 0.06532 0.0
C470 C 0.28868 0.83745 0.05803 0.0
C471 C 0.2672 0.82201 0.06571 0.0
H472 H 0.21085 0.75054 0.06657 0.0
H473 H 0.18207 0.71201 0.05554 0.0
H474 H 0.1257 0.70652 0.08549 0.0
H475 H 0.15484 0.74471 0.09694 0.0
H476 H 0.1703 0.78461 0.12314 0.0
H477 H 0.16143 0.79612 0.14741 0.0
H478 H 0.23825 0.84653 0.15393 0.0
H479 H 0.24724 0.83521 0.12956 0.0
H480 H 0.28205 0.84969 0.09989 0.0
H481 H 0.31966 0.8762 0.08664 0.0
H482 H 0.28998 0.83397 0.04628 0.0
H483 H 0.25273 0.80699 0.05966 0.0
N484 N 0.2245 0.78882 0.08259 0.0
N485 N 0.19829 0.78083 0.10306 0.0
N486 N 0.23631 0.81637 0.10248 0.0
C487 C 0.20305 0.77408 0.0896 0.0
C488 C 0.21486 0.8019 0.10961 0.0
C489 C 0.2412 0.81002 0.0889 0.0
C490 C 0.18521 0.75078 0.08267 0.0
C491 C 0.19231 0.74117 0.07081 0.0
C492 C 0.1757 0.71906 0.0644 0.0
C493 C 0.15144 0.70605 0.06956 0.0
C494 C 0.14431 0.71577 0.08137 0.0
C495 C 0.16101 0.73779 0.08789 0.0
C496 C 0.2095 0.80899 0.12437 0.0
C497 C 0.18534 0.79815 0.12972 0.0
C498 C 0.18021 0.80483 0.14359 0.0
C499 C 0.19914 0.82223 0.15255 0.0
C500 C 0.22331 0.83296 0.14729 0.0
C501 C 0.22842 0.82656 0.1333 0.0
C502 C 0.26428 0.82616 0.08088 0.0
C503 C 0.28353 0.84602 0.0882 0.0
C504 C 0.15442 0.45599 0.07967 0.0
C505 C 0.15434 0.45833 0.06401 0.0
C506 C 0.17179 0.45595 0.05552 0.0
C507 C 0.18905 0.45151 0.06258 0.0
H508 H 0.25606 0.45422 0.05613 0.0
H509 H 0.2923 0.45952 0.04306 0.0
H510 H 0.31987 0.44707 0.08449 0.0
H511 H 0.2834 0.44111 0.09746 0.0
H512 H 0.25094 0.42991 0.12822 0.0
H513 H 0.24199 0.41442 0.15378 0.0
H514 H 0.16595 0.39351 0.14711 0.0
H515 H 0.17514 0.40992 0.12199 0.0
H516 H 0.17077 0.44945 0.09879 0.0
H517 H 0.14106 0.45747 0.08651 0.0
H518 H 0.17225 0.45777 0.04343 0.0
H519 H 0.20227 0.44983 0.05572 0.0
N520 N 0.22752 0.44747 0.07874 0.0
N521 N 0.23973 0.43492 0.10022 0.0
N522 N 0.20285 0.43554 0.10019 0.0
C523 C 0.2441 0.44313 0.08583 0.0
C524 C 0.21906 0.43095 0.10746 0.0
C525 C 0.20692 0.44385 0.08588 0.0
C526 C 0.2666 0.44708 0.07789 0.0
C527 C 0.26984 0.45263 0.06249 0.0
C528 C 0.29076 0.45583 0.05497 0.0
C529 C 0.30909 0.45364 0.06265 0.0
C530 C 0.30599 0.44844 0.0781 0.0
C531 C 0.28505 0.44514 0.08559 0.0
C532 C 0.21382 0.42131 0.12302 0.0
C533 C 0.23233 0.42206 0.13225 0.0
C534 C 0.22713 0.41302 0.14692 0.0
C535 C 0.2032 0.40271 0.15269 0.0
C536 C 0.18471 0.40179 0.14333 0.0
C537 C 0.18997 0.4111 0.12879 0.0
C538 C 0.18897 0.44896 0.07826 0.0
C539 C 0.17139 0.45122 0.0867 0.0
C540 C 0.37148 0.89284 0.26933 0.0
C541 C 0.3679 0.88432 0.28418 0.0
C542 C 0.38637 0.88132 0.29097 0.0
C543 C 0.40766 0.88648 0.28313 0.0
H544 H 0.47249 0.88708 0.28832 0.0
H545 H 0.50277 0.87971 0.30042 0.0
H546 H 0.54181 0.89355 0.25854 0.0
H547 H 0.51199 0.90165 0.24656 0.0
H548 H 0.4996 0.92851 0.22088 0.0
H549 H 0.50787 0.94627 0.19601 0.0
H550 H 0.43705 0.94137 0.1954 0.0
H551 H 0.42854 0.92326 0.22032 0.0
H552 H 0.39476 0.90437 0.25004 0.0
H553 H 0.35756 0.89508 0.26363 0.0
H554 H 0.38452 0.87517 0.30245 0.0
H555 H 0.42137 0.88389 0.28881 0.0
N556 N 0.45071 0.8956 0.26644 0.0
N557 N 0.47521 0.90927 0.24495 0.0
N558 N 0.43795 0.90922 0.24575 0.0
C559 C 0.47142 0.90008 0.25907 0.0
C560 C 0.45864 0.91394 0.23818 0.0
C561 C 0.43383 0.90004 0.25991 0.0
C562 C 0.48974 0.8951 0.26642 0.0
C563 C 0.48752 0.88856 0.28165 0.0
C564 C 0.50487 0.88416 0.28861 0.0
C565 C 0.52491 0.88605 0.28053 0.0
C566 C 0.52695 0.89233 0.26525 0.0
C567 C 0.50969 0.89687 0.25832 0.0
C568 C 0.46339 0.92444 0.22276 0.0
C569 C 0.48568 0.93112 0.2155 0.0
C570 C 0.49053 0.94149 0.20121 0.0
C571 C 0.47322 0.94545 0.19366 0.0
C572 C 0.45076 0.93845 0.20079 0.0
C573 C 0.44593 0.92817 0.21516 0.0
C574 C 0.41119 0.89485 0.26824 0.0
C575 C 0.39281 0.89804 0.26148 0.0
C576 C 0.07809 0.46172 0.2806 0.0
C577 C 0.09041 0.46839 0.29448 0.0
C578 C 0.09654 0.49078 0.30067 0.0
C579 C 0.09064 0.50624 0.29314 0.0
H580 H 0.07816 0.56342 0.30094 0.0
H581 H 0.08974 0.6018 0.31309 0.0
H582 H 0.09176 0.6329 0.2699 0.0
H583 H 0.07996 0.59465 0.25771 0.0
H584 H 0.04103 0.55177 0.23371 0.0
H585 H 0.02709 0.54578 0.20788 0.0
H586 H 0.04568 0.48993 0.20288 0.0
H587 H 0.05895 0.4954 0.22908 0.0
H588 H 0.06305 0.4717 0.26223 0.0
H589 H 0.07332 0.44464 0.27549 0.0
H590 H 0.1058 0.49631 0.31142 0.0
H591 H 0.09578 0.52338 0.29829 0.0
N592 N 0.07698 0.53716 0.27803 0.0
N593 N 0.06438 0.5488 0.25647 0.0
N594 N 0.06463 0.51243 0.25666 0.0
C595 C 0.07273 0.55328 0.27083 0.0
C596 C 0.06017 0.52841 0.2493 0.0
C597 C 0.07303 0.51671 0.27108 0.0
C598 C 0.07825 0.576 0.27834 0.0
C599 C 0.08091 0.5784 0.29404 0.0
C600 C 0.08741 0.60029 0.30102 0.0
C601 C 0.09177 0.62027 0.29241 0.0
C602 C 0.08869 0.61778 0.27677 0.0
C603 C 0.08182 0.59584 0.26982 0.0
C604 C 0.05123 0.52413 0.23352 0.0
C605 C 0.04218 0.53818 0.22715 0.0
C606 C 0.03432 0.53485 0.21224 0.0
C607 C 0.03548 0.51755 0.20316 0.0
C608 C 0.0443 0.50329 0.20955 0.0
C609 C 0.052 0.50648 0.22457 0.0
C610 C 0.07861 0.49979 0.27913 0.0
C611 C 0.07234 0.4773 0.27297 0.0
C612 C 0.51668 0.62852 0.26432 0.0
C613 C 0.51694 0.63141 0.27999 0.0
C614 C 0.50004 0.61189 0.28866 0.0
C615 C 0.48323 0.59022 0.28183 0.0
H616 H 0.41551 0.53136 0.28844 0.0
H617 H 0.37831 0.50422 0.30179 0.0
H618 H 0.35189 0.45804 0.26284 0.0
H619 H 0.38902 0.4854 0.2493 0.0
H620 H 0.42171 0.5037 0.21808 0.0
H621 H 0.43083 0.49581 0.19278 0.0
H622 H 0.50597 0.55218 0.19833 0.0
H623 H 0.49669 0.56059 0.22318 0.0
H624 H 0.5004 0.60525 0.24543 0.0
H625 H 0.52902 0.64321 0.25721 0.0
H626 H 0.49993 0.6132 0.30076 0.0
H627 H 0.47051 0.57559 0.28886 0.0
N628 N 0.44464 0.54854 0.2662 0.0
N629 N 0.43233 0.52262 0.24538 0.0
N630 N 0.46938 0.55916 0.24486 0.0
C631 C 0.428 0.52763 0.25954 0.0
C632 C 0.45311 0.5383 0.238 0.0
C633 C 0.4653 0.56443 0.25892 0.0
C634 C 0.40536 0.51068 0.26772 0.0
C635 C 0.40183 0.51544 0.28266 0.0
C636 C 0.38052 0.49978 0.29039 0.0
C637 C 0.36208 0.47895 0.28341 0.0
C638 C 0.36559 0.47409 0.2685 0.0
C639 C 0.38698 0.48973 0.26076 0.0
C640 C 0.45839 0.53288 0.22268 0.0
C641 C 0.44015 0.51442 0.21387 0.0
C642 C 0.44544 0.50982 0.19937 0.0
C643 C 0.46913 0.52345 0.19338 0.0
C644 C 0.48737 0.54167 0.20233 0.0
C645 C 0.48205 0.5464 0.2167 0.0
C646 C 0.48312 0.58737 0.26619 0.0
C647 C 0.50013 0.60674 0.25753 0.0
Gd648 Gd 0.51256 0.01755 0.02655 0.0
Gd649 Gd 0.49238 0.98576 0.99046 0.0
C650 C 0.41832 0.91639 0.99002 0.0
C651 C 0.43 0.88635 0.98483 0.0
C652 C 0.46092 0.92856 0.98635 0.0
C653 C 0.44317 0.93439 0.98951 0.0
C654 C 0.45452 0.90457 0.98347 0.0
C655 C 0.4119 0.89226 0.98813 0.0
C656 C 0.40066 0.92329 0.99183 0.0
C657 C 0.40795 0.94763 0.99251 0.0
N658 N 0.4501 0.95788 0.99104 0.0
C659 C 0.43287 0.96479 0.99199 0.0
H660 H 0.4382 0.98347 0.99277 0.0
C661 C 0.50175 0.94234 0.97909 0.0
N662 N 0.48425 0.94666 0.98487 0.0
C663 C 0.49643 0.91884 0.97619 0.0
C664 C 0.47279 0.8998 0.97866 0.0
H665 H 0.52005 0.95705 0.97719 0.0
H666 H 0.39294 0.87814 0.98867 0.0
H667 H 0.52948 0.99613 0.0552 0.0
H668 H 0.38137 0.91004 0.99229 0.0
H669 H 0.39443 0.95321 0.99361 0.0
H670 H 0.42473 0.86777 0.98285 0.0
H671 H 0.52688 0.06864 0.00797 0.0
H672 H 0.60733 0.03766 0.0604 0.0
H673 H 0.56747 0.00343 0.06808 0.0
H674 H 0.62876 0.10395 0.02749 0.0
H675 H 0.51054 0.91544 0.97205 0.0
H676 H 0.46865 0.88162 0.97631 0.0
H677 H 0.63015 0.07513 0.04502 0.0
H678 H 0.56312 0.10739 1.00249 0.0
N679 N 0.54804 0.02395 0.03934 0.0
C680 C 0.59078 0.0341 0.05451 0.0
C681 C 0.56835 0.01475 0.05886 0.0
C682 C 0.59134 0.04956 0.0433 0.0
C683 C 0.56924 0.04415 0.03604 0.0
C684 C 0.54696 0.0104 0.05142 0.0
N685 N 0.54632 0.05543 0.02068 0.0
C686 C 0.56833 0.06053 0.02649 0.0
C687 C 0.56487 0.09436 0.00924 0.0
C688 C 0.58777 0.09942 0.01461 0.0
C689 C 0.54424 0.07222 0.01242 0.0
C690 C 0.58969 0.08256 0.02351 0.0
H691 H 0.60374 0.11652 0.01205 0.0
O692 O 0.5107 0.04454 0.04043 0.0
O693 O 0.48057 0.99026 0.0132 0.0
O694 O 0.48133 0.01398 0.99137 0.0
O695 O 0.49085 0.03242 0.01493 0.0
O696 O 0.48602 0.98063 0.03459 0.0
O697 O 0.49472 0.00829 0.04834 0.0
O698 O 0.51133 0.99394 0.96895 0.0
O699 O 0.52097 0.01861 1.00223 0.0
O700 O 0.52685 0.99141 0.02476 0.0
O701 O 0.50368 0.96439 1.00549 0.0
O702 O 0.53268 0.99957 0.98909 0.0
O703 O 0.4768 0.99281 0.97067 0.0
C704 C 0.47203 0.97373 0.02294 0.0
C705 C 0.61211 0.08729 0.02982 0.0
C706 C 0.61292 0.07083 0.03974 0.0
C707 C 0.50185 0.03034 0.05196 0.0
C708 C 0.51519 0.03855 0.06649 0.0
C709 C 0.53802 0.05974 0.06722 0.0
C710 C 0.50605 0.02425 0.07952 0.0
C711 C 0.51984 0.03082 0.09298 0.0
C712 C 0.55149 0.06649 0.08053 0.0
C713 C 0.54258 0.05218 0.09328 0.0
C714 C 0.48147 0.02938 1.00123 0.0
C715 C 0.53972 0.01832 0.99736 0.0
C716 C 0.49423 0.99545 0.96175 0.0
C717 C 0.48658 0.98306 0.94715 0.0
C718 C 0.47029 0.95829 0.94647 0.0
C719 C 0.49488 0.99626 0.93374 0.0
C720 C 0.48649 0.98481 0.91971 0.0
C721 C 0.4622 0.94682 0.93261 0.0
C722 C 0.47009 0.95995 0.91933 0.0
C723 C 0.51873 0.97094 0.01723 0.0
H724 H 0.54574 0.07097 0.05743 0.0
H725 H 0.48866 0.00767 0.07903 0.0
H726 H 0.56907 0.08281 0.08094 0.0
H727 H 0.55349 0.05792 0.10345 0.0
H728 H 0.46361 0.94787 0.95663 0.0
H729 H 0.50729 0.01546 0.93424 0.0
H730 H 0.4496 0.92769 0.93217 0.0
H731 H 0.46348 0.95063 0.90872 0.0
Gd732 Gd 0.9823 0.49396 0.02793 0.0
Gd733 Gd 0.02316 0.50843 0.99503 0.0
C734 C 0.09452 0.50635 0.99635 0.0
C735 C 0.12507 0.54849 0.99382 0.0
C736 C 0.08175 0.53594 0.99369 0.0
C737 C 0.07589 0.51239 0.99563 0.0
C738 C 0.10638 0.55421 0.99237 0.0
C739 C 0.11915 0.52459 0.99583 0.0
C740 C 0.08782 0.48211 0.99711 0.0
C741 C 0.0631 0.46462 0.99655 0.0
N742 N 0.05192 0.49523 0.99592 0.0
C743 C 0.04531 0.47153 0.99575 0.0
H744 H 0.02629 0.4578 0.99542 0.0
C745 C 0.06796 0.56318 0.98818 0.0
N746 N 0.06323 0.54074 0.99214 0.0
C747 C 0.09209 0.58194 0.98683 0.0
C748 C 0.11141 0.57751 0.98913 0.0
H749 H 0.05312 0.56674 0.98646 0.0
H750 H 0.13372 0.52032 0.99653 0.0
H751 H 0.98102 0.54565 0.02793 0.0
H752 H 0.10156 0.47672 0.99774 0.0
H753 H 0.05772 0.44581 0.99683 0.0
H754 H 0.14412 0.5623 0.993 0.0
H755 H 0.9505 0.43535 0.03534 0.0
H756 H 0.90655 0.52894 0.02415 0.0
H757 H 0.95063 0.55888 0.02599 0.0
H758 H 0.86157 0.44315 0.02742 0.0
H759 H 0.09578 0.5998 0.98404 0.0
H760 H 0.13009 0.59206 0.98802 0.0
H761 H 0.8734 0.48563 0.0245 0.0
H762 H 0.90728 0.40293 0.03648 0.0
N763 N 0.9546 0.50844 0.02686 0.0
C764 C 0.91983 0.52299 0.02503 0.0
C765 C 0.94468 0.53993 0.02611 0.0
C766 C 0.91238 0.49856 0.02556 0.0
C767 C 0.93044 0.49179 0.02663 0.0
C768 C 0.9619 0.53231 0.02721 0.0
N769 N 0.9417 0.4624 0.03009 0.0
C770 C 0.92377 0.46797 0.02831 0.0
C771 C 0.91166 0.42114 0.03412 0.0
C772 C 0.89296 0.42641 0.03161 0.0
C773 C 0.93608 0.43951 0.03353 0.0
C774 C 0.89889 0.45013 0.0289 0.0
H775 H 0.87406 0.41216 0.03213 0.0
O776 O 0.98284 0.48024 0.05011 0.0
O777 O 0.01608 0.4966 0.01869 0.0
O778 O 0.99432 0.46865 0.99624 0.0
O779 O 0.96183 0.46686 0.00977 0.0
O780 O 0.99602 0.46797 0.03261 0.0
O781 O 0.99049 0.51685 0.0475 0.0
O782 O 0.01904 0.52016 0.97296 0.0
O783 O 0.98929 0.50571 1.00427 0.0
O784 O 0.01167 0.53353 0.02712 0.0
O785 O 0.04396 0.53613 0.01286 0.0
O786 O 0.00951 0.53446 0.99051 0.0
O787 O 0.01718 0.48581 0.97552 0.0
C788 C 0.01575 0.47883 0.02481 0.0
C789 C 0.8808 0.45662 0.02715 0.0
C790 C 0.88754 0.4808 0.02548 0.0
C791 C 0.98725 0.49998 0.05689 0.0
C792 C 0.97239 0.49728 0.07018 0.0
C793 C 0.94836 0.49291 0.0687 0.0
C794 C 0.98252 0.49948 0.08456 0.0
C795 C 0.96888 0.49772 0.09745 0.0
C796 C 0.93467 0.49097 0.08144 0.0
C797 C 0.94485 0.49345 0.09573 0.0
C798 C 0.97086 0.45774 1.00007 0.0
C799 C 0.98972 0.52362 0.99826 0.0
C800 C 0.01738 0.50146 0.96617 0.0
C801 C 0.03236 0.50639 0.95265 0.0
C802 C 0.05785 0.51675 0.95364 0.0
C803 C 0.02104 0.50161 0.93851 0.0
C804 C 0.03512 0.50757 0.92536 0.0
C805 C 0.07192 0.52261 0.94062 0.0
C806 C 0.06068 0.51822 0.92653 0.0
C807 C 0.03501 0.54478 0.02298 0.0
H808 H 0.94026 0.49114 0.05774 0.0
H809 H 1.00118 0.50306 0.08568 0.0
H810 H 0.91613 0.48762 0.08023 0.0
H811 H 0.93385 0.49182 0.10545 0.0
H812 H 0.06687 0.52046 0.96443 0.0
H813 H 1.00134 0.49378 0.93774 0.0
H814 H 0.09161 0.53068 0.94145 0.0
H815 H 0.0719 0.5229 0.91656 0.0
Gd816 Gd 0.48955 0.50245 0.9885 0.0
Gd817 Gd 0.51253 0.48671 0.02242 0.0
C818 C 0.58701 0.49083 0.0239 0.0
C819 C 0.57549 0.44888 0.02632 0.0
C820 C 0.54424 0.46047 0.02529 0.0
C821 C 0.56205 0.4842 0.0238 0.0
C822 C 0.55072 0.44255 0.02692 0.0
C823 C 0.59361 0.47299 0.0248 0.0
C824 C 0.60458 0.51522 0.02355 0.0
C825 C 0.59705 0.53227 0.02373 0.0
N826 N 0.55498 0.50093 0.02313 0.0
C827 C 0.57206 0.52478 0.02374 0.0
H828 H 0.56662 0.53821 0.0238 0.0
C829 C 0.5025 0.43229 0.02923 0.0
N830 N 0.52057 0.45506 0.02596 0.0
C831 C 0.50798 0.41386 0.03088 0.0
C832 C 0.53217 0.41894 0.02953 0.0
H833 H 0.48374 0.42823 0.03016 0.0
H834 H 0.61269 0.47771 0.02473 0.0
H835 H 0.43522 0.45129 0.98755 0.0
H836 H 0.62394 0.52107 0.02355 0.0
H837 H 0.61048 0.55119 0.02379 0.0
H838 H 0.58085 0.43535 0.02741 0.0
H839 H 0.51876 0.56084 0.9804 0.0
H840 H 0.37843 0.46921 0.98826 0.0
H841 H 0.39143 0.43874 0.98795 0.0
H842 H 0.42222 0.55487 0.98388 0.0
H843 H 0.49355 0.39574 0.03315 0.0
H844 H 0.53639 0.40465 0.03085 0.0
H845 H 0.39012 0.51268 0.98691 0.0
H846 H 0.50933 0.59358 0.97737 0.0
N847 N 0.4472 0.48864 0.98809 0.0
C848 C 0.39774 0.47486 0.98809 0.0
C849 C 0.40501 0.45761 0.98788 0.0
C850 C 0.41549 0.49918 0.98757 0.0
C851 C 0.44038 0.50555 0.98745 0.0
C852 C 0.42994 0.46485 0.98764 0.0
N853 N 0.48192 0.53436 0.98495 0.0
C854 C 0.45834 0.5292 0.98579 0.0
C855 C 0.49482 0.57557 0.9798 0.0
C856 C 0.47075 0.57076 0.98134 0.0
C857 C 0.50009 0.55699 0.98148 0.0
C858 C 0.45208 0.54728 0.98415 0.0
H859 H 0.4667 0.58516 0.98001 0.0
O860 O 0.50676 0.5158 0.96687 0.0
O861 O 0.51978 0.49922 0.99889 0.0
O862 O 0.52402 0.52639 0.02152 0.0
O863 O 0.49552 0.52959 0.00636 0.0
O864 O 0.52999 0.52873 0.98554 0.0
O865 O 0.4754 0.48001 0.96867 0.0
O866 O 0.49572 0.47298 0.04412 0.0
O867 O 0.48226 0.48984 0.01204 0.0
O868 O 0.47803 0.46283 0.9893 0.0
O869 O 0.50647 0.45951 1.00443 0.0
O870 O 0.47215 0.46025 0.02527 0.0
O871 O 0.52559 0.50953 0.04216 0.0
C872 C 0.53804 0.51745 0.99353 0.0
C873 C 0.4274 0.54122 0.98496 0.0
C874 C 0.40913 0.5172 0.98668 0.0
C875 C 0.49102 0.49652 0.95971 0.0
C876 C 0.4811 0.5002 0.94568 0.0
C877 C 0.46197 0.50536 0.94581 0.0
C878 C 0.49073 0.49812 0.93194 0.0
C879 C 0.48103 0.50074 0.9183 0.0
C880 C 0.45239 0.50818 0.93231 0.0
C881 C 0.46174 0.50577 0.91863 0.0
C882 C 0.5126 0.5379 0.01694 0.0
C883 C 0.46402 0.47155 0.01737 0.0
C884 C 0.51054 0.49276 0.05119 0.0
C885 C 0.52097 0.49026 0.06538 0.0
C886 C 0.54003 0.48498 0.06545 0.0
C887 C 0.5121 0.49379 0.07903 0.0
C888 C 0.52247 0.49248 0.09276 0.0
C889 C 0.55027 0.48347 0.07903 0.0
C890 C 0.54168 0.4873 0.0926 0.0
C891 C 0.48957 0.45137 0.99372 0.0
H892 H 0.45436 0.50705 0.95629 0.0
H893 H 0.50537 0.4939 0.93187 0.0
H894 H 0.43759 0.51213 0.93246 0.0
H895 H 0.45401 0.508 0.9083 0.0
H896 H 0.54706 0.48221 0.05504 0.0
H897 H 0.49752 0.4981 0.07894 0.0
H898 H 0.565 0.47943 0.07903 0.0
H899 H 0.54991 0.48603 0.10299 0.0
Gd900 Gd 0.1818 0.34787 0.35994 0.0
Gd901 Gd 0.15857 0.31763 0.32353 0.0
C902 C 0.09134 0.24237 0.32266 0.0
C903 C 0.10905 0.21756 0.31619 0.0
C904 C 0.13481 0.26086 0.31812 0.0
C905 C 0.11481 0.2629 0.32202 0.0
C906 C 0.13211 0.23824 0.31475 0.0
C907 C 0.08867 0.21962 0.32015 0.0
C908 C 0.07118 0.24542 0.32524 0.0
C909 C 0.07466 0.26854 0.32648 0.0
N910 N 0.11809 0.28518 0.32414 0.0
C911 C 0.09833 0.28833 0.32573 0.0
H912 H 0.10069 0.30606 0.32681 0.0
C913 C 0.17617 0.28048 0.31056 0.0
N914 N 0.15667 0.28125 0.31668 0.0
C915 C 0.17451 0.25847 0.3072 0.0
C916 C 0.15248 0.23721 0.30953 0.0
H917 H 0.19326 0.29684 0.30875 0.0
H918 H 0.07084 0.20361 0.32077 0.0
H919 H 0.19294 0.31573 0.38479 0.0
H920 H 0.05284 0.23012 0.32585 0.0
H921 H 0.05914 0.27115 0.32812 0.0
H922 H 0.10664 0.19998 0.31382 0.0
H923 H 0.20186 0.4032 0.34614 0.0
H924 H 0.26986 0.35213 0.39429 0.0
H925 H 0.2283 0.31757 0.39819 0.0
H926 H 0.29978 0.42647 0.36803 0.0
H927 H 0.1902 0.25792 0.30279 0.0
H928 H 0.15119 0.22019 0.30683 0.0
H929 H 0.29651 0.3927 0.3828 0.0
H930 H 0.24059 0.44119 0.34369 0.0
N931 N 0.21458 0.34821 0.3729 0.0
C932 C 0.25444 0.35131 0.38835 0.0
C933 C 0.23102 0.3318 0.3906 0.0
C934 C 0.25754 0.37004 0.37896 0.0
C935 C 0.23687 0.36809 0.37149 0.0
C936 C 0.21108 0.3308 0.38301 0.0
N937 N 0.21792 0.38511 0.35729 0.0
C938 C 0.23861 0.38714 0.36339 0.0
C939 C 0.24032 0.42611 0.34923 0.0
C940 C 0.26195 0.42811 0.35484 0.0
C941 C 0.21831 0.40444 0.35067 0.0
C942 C 0.26123 0.40863 0.36226 0.0
H943 H 0.27896 0.4449 0.35368 0.0
O944 O 0.17987 0.37415 0.37445 0.0
O945 O 0.14901 0.32102 0.34702 0.0
O946 O 0.14149 0.34041 0.32854 0.0
O947 O 0.1639 0.36646 0.34804 0.0
O948 O 0.15597 0.31021 0.36748 0.0
O949 O 0.16298 0.33735 0.38144 0.0
O950 O 0.17564 0.33089 0.30173 0.0
O951 O 0.18678 0.35094 0.33522 0.0
O952 O 0.20008 0.32634 0.35391 0.0
O953 O 0.17197 0.29696 0.33753 0.0
O954 O 0.19891 0.33547 0.31939 0.0
O955 O 0.13829 0.32183 0.30514 0.0
C956 C 0.14113 0.30392 0.35626 0.0
C957 C 0.2822 0.4102 0.36892 0.0
C958 C 0.28035 0.39095 0.3773 0.0
C959 C 0.17047 0.35926 0.38562 0.0
C960 C 0.18357 0.36646 0.40028 0.0
C961 C 0.20673 0.38721 0.40132 0.0
C962 C 0.17384 0.35175 0.4131 0.0
C963 C 0.18737 0.35751 0.42666 0.0
C964 C 0.21993 0.39316 0.41472 0.0
C965 C 0.21044 0.37847 0.42725 0.0
C966 C 0.14787 0.35971 0.33686 0.0
C967 C 0.20552 0.35297 0.32865 0.0
C968 C 0.15593 0.3285 0.29551 0.0
C969 C 0.1494 0.31666 0.2807 0.0
C970 C 0.13408 0.29174 0.27956 0.0
C971 C 0.15827 0.33042 0.26755 0.0
C972 C 0.15134 0.31941 0.2533 0.0
C973 C 0.12736 0.28073 0.26549 0.0
C974 C 0.13576 0.29443 0.25245 0.0
C975 C 0.19069 0.30528 0.34704 0.0
H976 H 0.2149 0.39877 0.39172 0.0
H977 H 0.15618 0.3355 0.41239 0.0
H978 H 0.23776 0.40916 0.41536 0.0
H979 H 0.22116 0.38361 0.43751 0.0
H980 H 0.12718 0.28083 0.28953 0.0
H981 H 0.17007 0.34969 0.26839 0.0
H982 H 0.11547 0.2615 0.26469 0.0
H983 H 0.13026 0.28547 0.24166 0.0
Gd984 Gd 0.6476 0.82826 0.35458 0.0
Gd985 Gd 0.68914 0.8414 0.32224 0.0
C986 C 0.75847 0.8357 0.32505 0.0
C987 C 0.79048 0.87729 0.32242 0.0
C988 C 0.74766 0.86655 0.32153 0.0
C989 C 0.74067 0.8428 0.3238 0.0
C990 C 0.77263 0.88404 0.32045 0.0
C991 C 0.78341 0.85314 0.32473 0.0
C992 C 0.75065 0.81123 0.32609 0.0
C993 C 0.7257 0.79454 0.32528 0.0
N994 N 0.71643 0.82644 0.32387 0.0
C995 C 0.70877 0.80249 0.32395 0.0
H996 H 0.68957 0.78935 0.32343 0.0
C997 C 0.73582 0.89506 0.31541 0.0
N998 N 0.72993 0.87235 0.31953 0.0
C999 C 0.76034 0.91307 0.31426 0.0
C1000 C 0.77884 0.90761 0.31698 0.0
H1001 H 0.7216 0.89944 0.31342 0.0
H1002 H 0.79734 0.84807 0.32584 0.0
H1003 H 0.64694 0.88016 0.35412 0.0
H1004 H 0.76372 0.80503 0.32713 0.0
H1005 H 0.71946 0.77554 0.32575 0.0
H1006 H 0.80977 0.89048 0.32179 0.0
H1007 H 0.61525 0.76956 0.36197 0.0
H1008 H 0.57266 0.86409 0.35005 0.0
H1009 H 0.61682 0.89378 0.35192 0.0
H1010 H 0.52699 0.77834 0.35347 0.0
H1011 H 0.76493 0.93115 0.31131 0.0
H1012 H 0.79781 0.92157 0.31605 0.0
H1013 H 0.53924 0.82091 0.35043 0.0
H1014 H 0.57191 0.73746 0.36298 0.0
N1015 N 0.62023 0.84305 0.35317 0.0
C1016 C 0.58581 0.85799 0.35105 0.0
C1017 C 0.61071 0.87479 0.35214 0.0
C1018 C 0.57814 0.83351 0.35168 0.0
C1019 C 0.59603 0.82653 0.3529 0.0
C1020 C 0.62775 0.86697 0.35339 0.0
N1021 N 0.60689 0.79684 0.35647 0.0
C1022 C 0.58912 0.80265 0.35458 0.0
C1023 C 0.5765 0.75571 0.36055 0.0
C1024 C 0.55799 0.7612 0.3579 0.0
C1025 C 0.601 0.77391 0.36001 0.0
C1026 C 0.56417 0.78497 0.35511 0.0
H1027 H 0.53903 0.74708 0.35837 0.0
O1028 O 0.6499 0.81543 0.37665 0.0
O1029 O 0.68144 0.83014 0.34596 0.0
O1030 O 0.6593 0.80202 0.32352 0.0
O1031 O 0.62687 0.80155 0.33631 0.0
O1032 O 0.66015 0.80146 0.35958 0.0
O1033 O 0.65282 0.85031 0.37429 0.0
O1034 O 0.6883 0.85396 0.29975 0.0
O1035 O 0.65572 0.84027 0.33098 0.0
O1036 O 0.67773 0.86755 0.3539 0.0
O1037 O 0.70993 0.869 0.34012 0.0
O1038 O 0.6771 0.86852 0.31714 0.0
O1039 O 0.68038 0.81742 0.30319 0.0
C1040 C 0.68035 0.81207 0.3522 0.0
C1041 C 0.54627 0.79168 0.35325 0.0
C1042 C 0.55324 0.81592 0.35152 0.0
C1043 C 0.6518 0.83416 0.38355 0.0
C1044 C 0.63649 0.82919 0.39692 0.0
C1045 C 0.611 0.81863 0.39571 0.0
C1046 C 0.64752 0.83392 0.41115 0.0
C1047 C 0.63317 0.82768 0.4242 0.0
C1048 C 0.59666 0.81252 0.40863 0.0
C1049 C 0.60762 0.81683 0.42281 0.0
C1050 C 0.63573 0.79182 0.32696 0.0
C1051 C 0.65715 0.8585 0.32476 0.0
C1052 C 0.68369 0.83384 0.29344 0.0
C1053 C 0.69841 0.83576 0.28024 0.0
C1054 C 0.7224 0.84005 0.28179 0.0
C1055 C 0.68813 0.83291 0.26589 0.0
C1056 C 0.70158 0.83403 0.25305 0.0
C1057 C 0.73592 0.8413 0.2691 0.0
C1058 C 0.72559 0.83823 0.2548 0.0
C1059 C 0.70119 0.87811 0.35007 0.0
H1060 H 0.6022 0.81488 0.38485 0.0
H1061 H 0.66722 0.84187 0.41207 0.0
H1062 H 0.57697 0.80427 0.40765 0.0
H1063 H 0.59618 0.81193 0.4327 0.0
H1064 H 0.73061 0.84229 0.29276 0.0
H1065 H 0.66948 0.82935 0.26474 0.0
H1066 H 0.75443 0.84461 0.27035 0.0
H1067 H 0.73644 0.83935 0.24511 0.0
Gd1068 Gd 0.1614 0.84051 0.32342 0.0
Gd1069 Gd 0.18019 0.82779 0.35947 0.0
C1070 C 0.26037 0.84587 0.35634 0.0
C1071 C 0.25625 0.8067 0.35246 0.0
C1072 C 0.22003 0.81057 0.35596 0.0
C1073 C 0.23462 0.83517 0.35715 0.0
C1074 C 0.23083 0.79602 0.35421 0.0
C1075 C 0.271 0.8316 0.35354 0.0
C1076 C 0.27476 0.87057 0.35861 0.0
C1077 C 0.26352 0.88388 0.36208 0.0
N1078 N 0.22376 0.84859 0.35958 0.0
C1079 C 0.23801 0.87256 0.36274 0.0
H1080 H 0.23025 0.88337 0.3661 0.0
C1081 C 0.18169 0.77665 0.36062 0.0
N1082 N 0.19553 0.80074 0.35781 0.0
C1083 C 0.19135 0.76145 0.35872 0.0
C1084 C 0.21593 0.77113 0.35504 0.0
H1085 H 0.1631 0.76899 0.36451 0.0
H1086 H 0.29067 0.83959 0.35259 0.0
H1087 H 0.11272 0.78463 0.3152 0.0
H1088 H 0.29454 0.87943 0.35807 0.0
H1089 H 0.27451 0.9029 0.36436 0.0
H1090 H 0.26476 0.79581 0.35084 0.0
H1091 H 0.17673 0.89914 0.31966 0.0
H1092 H 0.04682 0.78571 0.32274 0.0
H1093 H 0.06839 0.76377 0.31628 0.0
H1094 H 0.07361 0.86837 0.33155 0.0
H1095 H 0.17994 0.74233 0.36041 0.0
H1096 H 0.22351 0.75937 0.35377 0.0
H1097 H 0.04898 0.82462 0.32879 0.0
H1098 H 0.15841 0.92438 0.32405 0.0
N1099 N 0.11779 0.81855 0.3226 0.0
C1100 C 0.06664 0.79512 0.32258 0.0
C1101 C 0.07875 0.78267 0.31903 0.0
C1102 C 0.08025 0.81974 0.32537 0.0
C1103 C 0.1061 0.83118 0.32506 0.0
C1104 C 0.10431 0.79473 0.31882 0.0
N1105 N 0.1446 0.86636 0.32544 0.0
C1106 C 0.11994 0.85576 0.32679 0.0
C1107 C 0.14742 0.90512 0.32526 0.0
C1108 C 0.12258 0.89453 0.32843 0.0
C1109 C 0.15793 0.89066 0.32323 0.0
C1110 C 0.10831 0.86955 0.32864 0.0
H1111 H 0.11436 0.90573 0.3298 0.0
O1112 O 0.1802 0.86576 0.30528 0.0
O1113 O 0.19352 0.84417 0.33688 0.0
O1114 O 0.1894 0.86603 0.36033 0.0
O1115 O 0.18655 0.87588 0.33555 0.0
O1116 O 0.188 0.82942 0.31555 0.0
O1117 O 0.15182 0.8294 0.3003 0.0
O1118 O 0.16014 0.80399 0.3779 0.0
O1119 O 0.14824 0.82436 0.34599 0.0
O1120 O 0.15278 0.80237 0.32257 0.0
O1121 O 0.15493 0.79247 0.34742 0.0
O1122 O 0.15388 0.83939 0.36723 0.0
O1123 O 0.19173 0.83885 0.38249 0.0
C1124 C 0.20208 0.83598 0.32712 0.0
C1125 C 0.08276 0.85808 0.32987 0.0
C1126 C 0.06874 0.8332 0.32823 0.0
C1127 C 0.16754 0.8502 0.29485 0.0
C1128 C 0.15915 0.85832 0.28192 0.0
C1129 C 0.14269 0.86682 0.28355 0.0
C1130 C 0.16641 0.85563 0.2675 0.0
C1131 C 0.15702 0.86098 0.25467 0.0
C1132 C 0.13361 0.87258 0.27086 0.0
C1133 C 0.14057 0.86955 0.2565 0.0
C1134 C 0.19206 0.88162 0.3499 0.0
C1135 C 0.1398 0.83276 0.35566 0.0
C1136 C 0.17416 0.81916 0.38816 0.0
C1137 C 0.1799 0.80963 0.40158 0.0
C1138 C 0.191 0.79549 0.40061 0.0
C1139 C 0.17402 0.81501 0.41573 0.0
C1140 C 0.17865 0.80597 0.42898 0.0
C1141 C 0.19563 0.78636 0.41364 0.0
C1142 C 0.18941 0.79139 0.4277 0.0
C1143 C 0.14974 0.78674 0.33306 0.0
H1144 H 0.13655 0.8686 0.29454 0.0
H1145 H 0.17868 0.84849 0.26626 0.0
H1146 H 0.12086 0.8791 0.27216 0.0
H1147 H 0.13312 0.87391 0.24682 0.0
H1148 H 0.19606 0.79152 0.38986 0.0
H1149 H 0.1661 0.82656 0.41634 0.0
H1150 H 0.204 0.77524 0.41284 0.0
H1151 H 0.19284 0.78364 0.43753 0.0
Gd1152 Gd 0.84688 0.68512 0.6914 0.0
Gd1153 Gd 0.82738 0.64991 0.65582 0.0
C1154 C 0.75412 0.58039 0.65152 0.0
C1155 C 0.7669 0.5507 0.64837 0.0
C1156 C 0.79724 0.59295 0.65096 0.0
C1157 C 0.77889 0.59856 0.65239 0.0
C1158 C 0.79151 0.56904 0.64856 0.0
C1159 C 0.74823 0.55637 0.64987 0.0
C1160 C 0.73608 0.58699 0.65187 0.0
C1161 C 0.74299 0.61124 0.65245 0.0
N1162 N 0.78528 0.62196 0.65379 0.0
C1163 C 0.76783 0.6286 0.65318 0.0
H1164 H 0.77287 0.64726 0.6537 0.0
C1165 C 0.83943 0.60688 0.64782 0.0
N1166 N 0.82075 0.61113 0.65107 0.0
C1167 C 0.8347 0.58345 0.64542 0.0
C1168 C 0.81065 0.56439 0.646 0.0
H1169 H 0.85807 0.62151 0.64745 0.0
H1170 H 0.72931 0.54213 0.64933 0.0
H1171 H 0.90146 0.68797 0.69388 0.0
H1172 H 0.71684 0.57358 0.65129 0.0
H1173 H 0.72921 0.61659 0.6524 0.0
H1174 H 0.76211 0.53218 0.64669 0.0
H1175 H 0.81583 0.71331 0.69941 0.0
H1176 H 0.95724 0.76169 0.69667 0.0
H1177 H 0.94505 0.71874 0.69548 0.0
H1178 H 0.91164 0.8028 0.7009 0.0
H1179 H 0.8496 0.5801 0.64317 0.0
H1180 H 0.80702 0.54626 0.6441 0.0
H1181 H 0.94458 0.79301 0.69854 0.0
H1182 H 0.82409 0.75465 0.70368 0.0
N1183 N 0.88891 0.71316 0.69368 0.0
C1184 C 0.93803 0.74824 0.69595 0.0
C1185 C 0.93122 0.72402 0.69533 0.0
C1186 C 0.91992 0.75475 0.69617 0.0
C1187 C 0.89519 0.73653 0.69512 0.0
C1188 C 0.90642 0.7066 0.69443 0.0
N1189 N 0.85327 0.72381 0.69614 0.0
C1190 C 0.87675 0.74204 0.69642 0.0
C1191 C 0.83908 0.75137 0.70158 0.0
C1192 C 0.86311 0.77047 0.70121 0.0
C1193 C 0.83447 0.72798 0.69919 0.0
C1194 C 0.88236 0.76592 0.69883 0.0
H1195 H 0.86665 0.78857 0.70311 0.0
O1196 O 0.82655 0.67731 0.71224 0.0
O1197 O 0.818 0.65352 0.67926 0.0
O1198 O 0.81561 0.67806 0.65732 0.0
O1199 O 0.84241 0.70791 0.67388 0.0
O1200 O 0.80629 0.67165 0.6929 0.0
O1201 O 0.86012 0.67599 0.71152 0.0
O1202 O 0.84757 0.65766 0.63493 0.0
O1203 O 0.85633 0.68141 0.66798 0.0
O1204 O 0.85886 0.65716 0.68991 0.0
O1205 O 0.83236 0.62728 0.67323 0.0
O1206 O 0.86791 0.66325 0.65424 0.0
O1207 O 0.81396 0.65888 0.63572 0.0
C1208 C 0.79919 0.65335 0.68417 0.0
C1209 C 0.90694 0.78431 0.6992 0.0
C1210 C 0.9257 0.77873 0.69785 0.0
C1211 C 0.84232 0.6741 0.71988 0.0
C1212 C 0.84898 0.68553 0.73481 0.0
C1213 C 0.86169 0.71058 0.73619 0.0
C1214 C 0.84166 0.67126 0.74784 0.0
C1215 C 0.84651 0.682 0.76219 0.0
C1216 C 0.86674 0.7213 0.75036 0.0
C1217 C 0.85908 0.70717 0.76327 0.0
C1218 C 0.82655 0.70036 0.66259 0.0
C1219 C 0.87508 0.68144 0.66307 0.0
C1220 C 0.83167 0.66068 0.62731 0.0
C1221 C 0.82482 0.64895 0.61248 0.0
C1222 C 0.81196 0.62388 0.6113 0.0
C1223 C 0.83205 0.66293 0.59933 0.0
C1224 C 0.82694 0.65188 0.58507 0.0
C1225 C 0.80668 0.61285 0.59722 0.0
C1226 C 0.81422 0.6267 0.5842 0.0
C1227 C 0.84819 0.63492 0.68455 0.0
H1228 H 0.8675 0.72181 0.72633 0.0
H1229 H 0.83169 0.65189 0.7468 0.0
H1230 H 0.87649 0.74065 0.75135 0.0
H1231 H 0.86319 0.71592 0.77414 0.0
H1232 H 0.8062 0.61285 0.62125 0.0
H1233 H 0.84212 0.68233 0.60021 0.0
H1234 H 0.7968 0.59348 0.5964 0.0
H1235 H 0.8099 0.61771 0.5734 0.0
Gd1236 Gd 0.31438 0.15835 0.69206 0.0
Gd1237 Gd 0.35223 0.17216 0.65829 0.0
C1238 C 0.42012 0.16421 0.66257 0.0
C1239 C 0.45309 0.20538 0.65997 0.0
C1240 C 0.41067 0.19591 0.65859 0.0
C1241 C 0.40294 0.17203 0.661 0.0
C1242 C 0.43583 0.21277 0.65749 0.0
C1243 C 0.44524 0.18112 0.66251 0.0
C1244 C 0.41153 0.1396 0.66369 0.0
C1245 C 0.38642 0.12348 0.66285 0.0
N1246 N 0.37855 0.15626 0.66095 0.0
C1247 C 0.3701 0.13216 0.66144 0.0
H1248 H 0.35075 0.11949 0.66103 0.0
C1249 C 0.40012 0.22448 0.65047 0.0
N1250 N 0.39349 0.20226 0.65598 0.0
C1251 C 0.42484 0.24199 0.64939 0.0
C1252 C 0.4428 0.23624 0.65323 0.0
H1253 H 0.3862 0.22881 0.64733 0.0
H1254 H 0.45872 0.17551 0.66394 0.0
H1255 H 0.33503 0.19192 0.72278 0.0
H1256 H 0.42412 0.13285 0.6649 0.0
H1257 H 0.37959 0.10438 0.66348 0.0
H1258 H 0.47252 0.21812 0.65938 0.0
H1259 H 0.26367 0.12623 0.67115 0.0
H1260 H 0.29608 0.23012 0.72873 0.0
H1261 H 0.32846 0.22146 0.73689 0.0
H1262 H 0.23157 0.19315 0.69231 0.0
H1263 H 0.43 0.25983 0.64553 0.0
H1264 H 0.46194 0.24974 0.65224 0.0
H1265 H 0.26001 0.21964 0.71181 0.0
H1266 H 0.22583 0.12638 0.66471 0.0
N1267 N 0.30841 0.18594 0.70614 0.0
C1268 C 0.29926 0.21755 0.72238 0.0
C1269 C 0.31753 0.21271 0.72703 0.0
C1270 C 0.28431 0.20497 0.71016 0.0
C1271 C 0.28922 0.18879 0.70232 0.0
C1272 C 0.32138 0.19621 0.71898 0.0
N1273 N 0.27767 0.15721 0.68515 0.0
C1274 C 0.27319 0.17378 0.69152 0.0
C1275 C 0.23904 0.13989 0.67223 0.0
C1276 C 0.23483 0.15766 0.67807 0.0
C1277 C 0.26062 0.13988 0.67595 0.0
C1278 C 0.25181 0.17468 0.68803 0.0
H1279 H 0.21819 0.15773 0.67509 0.0
O1280 O 0.28381 0.12758 0.70264 0.0
O1281 O 0.34424 0.15496 0.68078 0.0
O1282 O 0.32205 0.1338 0.65663 0.0
O1283 O 0.29921 0.12396 0.67863 0.0
O1284 O 0.35039 0.16825 0.70277 0.0
O1285 O 0.31902 0.14504 0.71352 0.0
O1286 O 0.34767 0.1845 0.63644 0.0
O1287 O 0.31707 0.16701 0.66769 0.0
O1288 O 0.34106 0.19855 0.69182 0.0
O1289 O 0.37122 0.20376 0.67429 0.0
O1290 O 0.33856 0.19809 0.65542 0.0
O1291 O 0.35035 0.15251 0.63798 0.0
C1292 C 0.3594 0.16246 0.69165 0.0
C1293 C 0.24769 0.19195 0.695 0.0
C1294 C 0.26392 0.20707 0.70607 0.0
C1295 C 0.29595 0.12949 0.71489 0.0
C1296 C 0.28443 0.12934 0.72943 0.0
C1297 C 0.2594 0.12206 0.73011 0.0
C1298 C 0.29824 0.13566 0.74286 0.0
C1299 C 0.2871 0.13437 0.75677 0.0
C1300 C 0.24837 0.12096 0.74387 0.0
C1301 C 0.26204 0.12692 0.75712 0.0
C1302 C 0.30411 0.11847 0.66527 0.0
C1303 C 0.31827 0.18601 0.66257 0.0
C1304 C 0.34872 0.16762 0.62908 0.0
C1305 C 0.36432 0.17503 0.6157 0.0
C1306 C 0.38989 0.18674 0.61695 0.0
C1307 C 0.35339 0.17066 0.60143 0.0
C1308 C 0.36789 0.17836 0.58845 0.0
C1309 C 0.40439 0.19451 0.6041 0.0
C1310 C 0.39351 0.1905 0.58992 0.0
C1311 C 0.36281 0.21146 0.68537 0.0
H1312 H 0.24825 0.11705 0.72004 0.0
H1313 H 0.3175 0.14107 0.74256 0.0
H1314 H 0.22909 0.11533 0.74427 0.0
H1315 H 0.25307 0.12591 0.76766 0.0
H1316 H 0.39865 0.1899 0.62779 0.0
H1317 H 0.33361 0.16158 0.60046 0.0
H1318 H 0.42412 0.20363 0.60513 0.0
H1319 H 0.40508 0.19651 0.58009 0.0
Gd1320 Gd 0.82606 0.17457 0.65792 0.0
Gd1321 Gd 0.85116 0.16102 0.69174 0.0
C1322 C 0.92587 0.16561 0.69198 0.0
C1323 C 0.91476 0.12391 0.69534 0.0
C1324 C 0.88329 0.13522 0.6946 0.0
C1325 C 0.90088 0.15886 0.69241 0.0
C1326 C 0.89002 0.11751 0.69644 0.0
C1327 C 0.93266 0.14793 0.6931 0.0
C1328 C 0.94328 0.18998 0.6909 0.0
C1329 C 0.93562 0.20693 0.69089 0.0
N1330 N 0.89364 0.17545 0.69155 0.0
C1331 C 0.91062 0.19933 0.69145 0.0
H1332 H 0.90504 0.21267 0.69134 0.0
C1333 C 0.84187 0.10716 0.69961 0.0
N1334 N 0.85964 0.12975 0.69571 0.0
C1335 C 0.8476 0.08893 0.70149 0.0
C1336 C 0.87174 0.09405 0.69971 0.0
H1337 H 0.82315 0.10305 0.70087 0.0
H1338 H 0.95174 0.15273 0.69265 0.0
H1339 H 0.77221 0.12295 0.65804 0.0
H1340 H 0.96265 0.19591 0.69048 0.0
H1341 H 0.94895 0.22586 0.69038 0.0
H1342 H 0.92029 0.11053 0.69658 0.0
H1343 H 0.85468 0.23327 0.65039 0.0
H1344 H 0.71464 0.1398 0.65807 0.0
H1345 H 0.72827 0.1098 0.65845 0.0
H1346 H 0.75729 0.22543 0.6535 0.0
H1347 H 0.8334 0.07094 0.70426 0.0
H1348 H 0.87615 0.07992 0.70121 0.0
H1349 H 0.72566 0.18304 0.65638 0.0
H1350 H 0.84457 0.26559 0.64771 0.0
N1351 N 0.78363 0.16017 0.65778 0.0
C1352 C 0.73402 0.14571 0.65787 0.0
C1353 C 0.74163 0.12873 0.65806 0.0
C1354 C 0.75149 0.1701 0.65708 0.0
C1355 C 0.77648 0.17684 0.65694 0.0
C1356 C 0.76664 0.13629 0.65781 0.0
N1357 N 0.81795 0.20623 0.65466 0.0
C1358 C 0.79421 0.20064 0.65538 0.0
C1359 C 0.83024 0.24741 0.64993 0.0
C1360 C 0.80599 0.24214 0.65133 0.0
C1361 C 0.83589 0.22908 0.65141 0.0
C1362 C 0.78756 0.21845 0.65385 0.0
H1363 H 0.80165 0.25636 0.65011 0.0
O1364 O 0.84327 0.18695 0.63624 0.0
O1365 O 0.8571 0.17222 0.6679 0.0
O1366 O 0.86206 0.20048 0.68997 0.0
O1367 O 0.83151 0.20153 0.67575 0.0
O1368 O 0.86622 0.20124 0.65426 0.0
O1369 O 0.81025 0.15236 0.63806 0.0
O1370 O 0.8354 0.14874 0.71383 0.0
O1371 O 0.81998 0.16281 0.68161 0.0
O1372 O 0.81538 0.13518 0.65929 0.0
O1373 O 0.84471 0.13309 0.67427 0.0
O1374 O 0.81105 0.13441 0.69567 0.0
O1375 O 0.86559 0.18493 0.71093 0.0
C1376 C 0.87494 0.1904 0.66212 0.0
C1377 C 0.76276 0.21198 0.65453 0.0
C1378 C 0.74475 0.18785 0.65615 0.0
C1379 C 0.82652 0.16826 0.62907 0.0
C1380 C 0.81746 0.17325 0.61512 0.0
C1381 C 0.8023 0.18341 0.61542 0.0
C1382 C 0.82515 0.16892 0.60128 0.0
C1383 C 0.81818 0.17516 0.58777 0.0
C1384 C 0.79519 0.18951 0.60204 0.0
C1385 C 0.8032 0.18558 0.58828 0.0
C1386 C 0.84936 0.21089 0.6858 0.0
C1387 C 0.80218 0.14484 0.68757 0.0
C1388 C 0.85083 0.1688 0.72041 0.0
C1389 C 0.86175 0.1668 0.73452 0.0
C1390 C 0.88144 0.16245 0.73448 0.0
C1391 C 0.85256 0.16968 0.74824 0.0
C1392 C 0.86321 0.16866 0.76192 0.0
C1393 C 0.89199 0.16124 0.74801 0.0
C1394 C 0.88306 0.16443 0.76165 0.0
C1395 C 0.8274 0.12424 0.66382 0.0
H1396 H 0.79616 0.18683 0.62596 0.0
H1397 H 0.83706 0.16125 0.60104 0.0
H1398 H 0.78356 0.19744 0.60234 0.0
H1399 H 0.79751 0.19046 0.57803 0.0
H1400 H 0.88871 0.16014 0.72403 0.0
H1401 H 0.83745 0.17324 0.74823 0.0
H1402 H 0.90721 0.15791 0.74793 0.0
H1403 H 0.89152 0.16338 0.77199 0.0
H1404 H 0.33555 0.90626 0.06801 0.0
H1405 H 0.33213 0.84632 0.04389 0.0
H1406 H 0.37374 0.93323 0.05562 0.0
H1407 H 0.36966 0.87362 0.03072 0.0
H1408 H 0.45357 0.92615 0.02688 0.0
H1409 H 0.41248 0.89726 0.03555 0.0
H1410 H 0.39196 0.95206 0.0328 0.0
H1411 H 0.43339 0.98094 0.02472 0.0
C1412 C 0.34287 0.8988 0.06002 0.0
C1413 C 0.33076 0.87401 0.0571 0.0
C1414 C 0.36464 0.91438 0.05268 0.0
C1415 C 0.37484 0.90569 0.04208 0.0
C1416 C 0.36251 0.88095 0.03892 0.0
C1417 C 0.34079 0.86531 0.04636 0.0
C1418 C 0.43996 0.93169 0.02779 0.0
C1419 C 0.44623 0.95542 0.02473 0.0
C1420 C 0.41642 0.9152 0.03273 0.0
C1421 C 0.39883 0.9223 0.03497 0.0
C1422 C 0.40508 0.94601 0.03144 0.0
C1423 C 0.42865 0.96247 0.02659 0.0
H1424 H 0.14092 0.49112 0.0721 0.0
H1425 H 0.12587 0.43586 0.03937 0.0
H1426 H 0.10864 0.49691 0.06118 0.0
H1427 H 0.09355 0.44172 0.02838 0.0
H1428 H 0.01701 0.43793 0.02966 0.0
H1429 H 0.052 0.43394 0.03772 0.0
H1430 H 0.09792 0.51098 0.03725 0.0
H1431 H 0.06292 0.51488 0.02921 0.0
C1432 C 0.13077 0.48029 0.06252 0.0
C1433 C 0.13585 0.46294 0.05665 0.0
C1434 C 0.11243 0.48374 0.05619 0.0
C1435 C 0.0985 0.46971 0.04395 0.0
C1436 C 0.10386 0.45266 0.03789 0.0
C1437 C 0.12246 0.44943 0.0441 0.0
C1438 C 0.03468 0.45394 0.03112 0.0
C1439 C 0.03741 0.47665 0.0285 0.0
C1440 C 0.05471 0.45168 0.03565 0.0
C1441 C 0.07774 0.47214 0.03805 0.0
C1442 C 0.0804 0.4949 0.03552 0.0
C1443 C 0.06043 0.49713 0.03079 0.0
H1444 H 0.55481 0.65892 0.07702 0.0
H1445 H 0.55295 0.68639 0.03308 0.0
H1446 H 0.54336 0.62007 0.0659 0.0
H1447 H 0.54072 0.64721 0.02211 0.0
H1448 H 0.49146 0.56573 0.01261 0.0
H1449 H 0.5039 0.60501 0.02337 0.0
H1450 H 0.56165 0.60257 0.04803 0.0
H1451 H 0.54966 0.56349 0.03704 0.0
C1452 C 0.55219 0.6568 0.06498 0.0
C1453 C 0.5549 0.6759 0.05596 0.0
C1454 C 0.54553 0.63448 0.05864 0.0
C1455 C 0.54114 0.63064 0.04316 0.0
C1456 C 0.54372 0.64961 0.03411 0.0
C1457 C 0.55065 0.67203 0.04042 0.0
C1458 C 0.50705 0.57366 0.02013 0.0
C1459 C 0.5198 0.56156 0.02373 0.0
C1460 C 0.51411 0.59616 0.02633 0.0
C1461 C 0.5338 0.60687 0.03648 0.0
C1462 C 0.54631 0.59466 0.04029 0.0
C1463 C 0.53946 0.57229 0.03395 0.0
H1464 H 0.90001 0.33036 0.94342 0.0
H1465 H 0.84552 0.31887 0.97671 0.0
H1466 H 0.92814 0.36857 0.95499 0.0
H1467 H 0.87438 0.35615 0.98902 0.0
H1468 H 0.92112 0.43598 0.99817 0.0
H1469 H 0.893 0.39767 0.98663 0.0
H1470 H 0.95382 0.38726 0.97553 0.0
H1471 H 0.98203 0.42619 0.98652 0.0
C1472 C 0.89398 0.33589 0.95323 0.0
C1473 C 0.87029 0.32143 0.95901 0.0
C1474 C 0.91035 0.35773 0.96005 0.0
C1475 C 0.90367 0.36562 0.973 0.0
C1476 C 0.88014 0.35096 0.97893 0.0
C1477 C 0.86364 0.32928 0.97199 0.0
C1478 C 0.9285 0.42548 0.9933 0.0
C1479 C 0.95383 0.43414 0.99327 0.0
C1480 C 0.91231 0.40337 0.98674 0.0
C1481 C 0.921 0.38916 0.98013 0.0
C1482 C 0.9464 0.39781 0.98024 0.0
C1483 C 0.96263 0.4201 0.98663 0.0
H1484 H 0.6502 0.50866 0.94456 0.0
H1485 H 0.69237 0.56344 0.97741 0.0
H1486 H 0.61236 0.50161 0.95658 0.0
H1487 H 0.65446 0.55635 0.98945 0.0
H1488 H 0.54943 0.48184 0.9895 0.0
H1489 H 0.58858 0.48656 0.9811 0.0
H1490 H 0.61988 0.56347 0.98124 0.0
H1491 H 0.58075 0.55868 0.98957 0.0
C1492 C 0.65138 0.51914 0.95437 0.0
C1493 C 0.67429 0.5367 0.95997 0.0
C1494 C 0.62971 0.51493 0.96135 0.0
C1495 C 0.63042 0.52842 0.97397 0.0
C1496 C 0.65333 0.54575 0.9797 0.0
C1497 C 0.67502 0.54972 0.97286 0.0
C1498 C 0.56483 0.49973 0.98803 0.0
C1499 C 0.56222 0.51994 0.9904 0.0
C1500 C 0.58716 0.50244 0.98309 0.0
C1501 C 0.60733 0.5254 0.9805 0.0
C1502 C 0.60481 0.54557 0.98329 0.0
C1503 C 0.58242 0.54285 0.988 0.0
H1504 H 0.47175 0.1499 0.96789 0.0
H1505 H 0.40149 0.0897 0.95566 0.0
H1506 H 0.48151 0.12321 0.98187 0.0
H1507 H 0.41122 0.06298 0.96969 0.0
H1508 H 0.45273 0.02184 0.97665 0.0
H1509 H 0.43888 0.04774 0.96633 0.0
H1510 H 0.47177 0.09666 1.00362 0.0
H1511 H 0.48624 0.07064 0.01398 0.0
C1512 C 0.45821 0.13102 0.96838 0.0
C1513 C 0.43588 0.12193 0.96055 0.0
C1514 C 0.46379 0.11571 0.97644 0.0
C1515 C 0.4472 0.09093 0.97688 0.0
C1516 C 0.42459 0.08194 0.9694 0.0
C1517 C 0.41902 0.09723 0.96131 0.0
C1518 C 0.45692 0.03798 0.9828 0.0
C1519 C 0.47082 0.0442 0.99613 0.0
C1520 C 0.44873 0.05279 0.9769 0.0
C1521 C 0.4542 0.07433 0.98411 0.0
C1522 C 0.46746 0.08029 0.9977 0.0
C1523 C 0.4756 0.06531 1.0037 0.0
H1524 H 0.65172 0.11944 0.93996 0.0
H1525 H 0.69152 0.13031 0.98147 0.0
H1526 H 0.61404 0.09069 0.95232 0.0
H1527 H 0.65351 0.10215 0.99403 0.0
H1528 H 0.58538 0.02713 1.00433 0.0
H1529 H 0.62411 0.05906 0.99422 0.0
H1530 H 0.58478 0.0882 0.97069 0.0
H1531 H 0.54625 0.05601 0.98062 0.0
C1532 C 0.65246 0.1157 0.95173 0.0
C1533 C 0.67473 0.12714 0.95967 0.0
C1534 C 0.63075 0.09945 0.95889 0.0
C1535 C 0.63069 0.09417 0.97421 0.0
C1536 C 0.65293 0.10568 0.9822 0.0
C1537 C 0.67467 0.12199 0.97503 0.0
C1538 C 0.58525 0.04076 0.99727 0.0
C1539 C 0.5631 0.03972 0.99362 0.0
C1540 C 0.60735 0.05903 0.99148 0.0
C1541 C 0.60758 0.0762 0.9816 0.0
C1542 C 0.58528 0.07517 0.97813 0.0
C1543 C 0.56327 0.05699 0.98397 0.0
H1544 H 0.88067 0.56621 0.97791 0.0
H1545 H 0.86922 0.51126 0.94575 0.0
H1546 H 0.91184 0.56045 0.99061 0.0
H1547 H 0.90042 0.50556 0.95843 0.0
H1548 H 0.94271 0.48741 0.99309 0.0
H1549 H 0.90846 0.49126 0.98338 0.0
H1550 H 0.95426 0.56832 0.9834 0.0
H1551 H 0.98846 0.56439 0.9931 0.0
C1552 C 0.88466 0.55276 0.97363 0.0
C1553 C 0.87254 0.53926 0.96078 0.0
C1554 C 0.9026 0.54956 0.98086 0.0
C1555 C 0.90859 0.53255 0.97553 0.0
C1556 C 0.89607 0.51866 0.96289 0.0
C1557 C 0.87838 0.52209 0.95554 0.0
C1558 C 0.94528 0.50515 0.99132 0.0
C1559 C 0.96809 0.52565 0.99414 0.0
C1560 C 0.92576 0.50736 0.98561 0.0
C1561 C 0.92865 0.5301 0.98263 0.0
C1562 C 0.95135 0.55057 0.98574 0.0
C1563 C 0.97094 0.54834 0.99124 0.0
H1564 H 0.45133 0.30492 0.97188 0.0
H1565 H 0.45315 0.33693 0.92894 0.0
H1566 H 0.46274 0.34283 0.98432 0.0
H1567 H 0.46381 0.37464 0.94155 0.0
H1568 H 0.45446 0.42769 0.97222 0.0
H1569 H 0.444 0.39014 0.95962 0.0
H1570 H 0.49921 0.38504 0.98548 0.0
H1571 H 0.51014 0.42291 0.99792 0.0
C1572 C 0.45435 0.32004 0.96505 0.0
C1573 C 0.4514 0.31779 0.94935 0.0
C1574 C 0.46081 0.34176 0.97222 0.0
C1575 C 0.46419 0.36169 0.96391 0.0
C1576 C 0.46107 0.35948 0.94826 0.0
C1577 C 0.45486 0.33782 0.94105 0.0
C1578 C 0.46444 0.41865 0.97526 0.0
C1579 C 0.483 0.42828 0.98626 0.0
C1580 C 0.45847 0.39715 0.96797 0.0
C1581 C 0.47075 0.38464 0.97158 0.0
C1582 C 0.48924 0.39416 0.98259 0.0
C1583 C 0.49544 0.41584 0.98976 0.0
H1584 H 0.14734 0.69246 0.03997 0.0
H1585 H 0.11539 0.66591 0.08354 0.0
H1586 H 0.11933 0.65349 0.02891 0.0
H1587 H 0.08688 0.62723 0.07229 0.0
H1588 H 0.0237 0.57092 0.04241 0.0
H1589 H 0.05151 0.60984 0.05368 0.0
H1590 H 0.11227 0.61111 0.03065 0.0
H1591 H 0.08472 0.57201 0.01965 0.0
C1592 C 0.13448 0.67834 0.04723 0.0
C1593 C 0.13379 0.68243 0.0627 0.0
C1594 C 0.11837 0.65603 0.04086 0.0
C1595 C 0.10095 0.63733 0.04974 0.0
C1596 C 0.09995 0.64141 0.06514 0.0
C1597 C 0.11626 0.66364 0.07157 0.0
C1598 C 0.04298 0.57943 0.03974 0.0
C1599 C 0.05186 0.56842 0.0299 0.0
C1600 C 0.05891 0.60171 0.04624 0.0
C1601 C 0.08403 0.61357 0.04296 0.0
C1602 C 0.09294 0.60256 0.0332 0.0
C1603 C 0.07708 0.58016 0.02685 0.0
H1604 H 0.33561 0.48528 0.0401 0.0
H1605 H 0.33257 0.42792 0.06684 0.0
H1606 H 0.37147 0.48923 0.02706 0.0
H1607 H 0.36893 0.4327 0.05444 0.0
H1608 H 0.4216 0.43053 0.02214 0.0
H1609 H 0.38312 0.42592 0.03138 0.0
H1610 H 0.4144 0.50291 0.03094 0.0
H1611 H 0.45271 0.5073 0.02133 0.0
C1612 C 0.34251 0.47346 0.0432 0.0
C1613 C 0.33111 0.4563 0.0546 0.0
C1614 C 0.36327 0.47592 0.03581 0.0
C1615 C 0.37317 0.46126 0.03962 0.0
C1616 C 0.36169 0.44408 0.05098 0.0
C1617 C 0.34097 0.44158 0.05831 0.0
C1618 C 0.42005 0.44641 0.02379 0.0
C1619 C 0.44001 0.46921 0.02087 0.0
C1620 C 0.39808 0.44382 0.02921 0.0
C1621 C 0.39565 0.46405 0.03215 0.0
C1622 C 0.41546 0.4869 0.02872 0.0
C1623 C 0.43745 0.48946 0.0232 0.0
H1624 H 0.57961 0.87818 0.03741 0.0
H1625 H 0.52491 0.86221 0.07131 0.0
H1626 H 0.56972 0.90678 0.0259 0.0
H1627 H 0.51434 0.89003 0.05961 0.0
H1628 H 0.51959 0.9597 0.04636 0.0
H1629 H 0.53024 0.93139 0.05684 0.0
H1630 H 0.54005 0.9117 0.01205 0.0
H1631 H 0.5314 0.9419 1.00173 0.0
C1632 C 0.56526 0.88061 0.04227 0.0
C1633 C 0.55317 0.86817 0.05532 0.0
C1634 C 0.5595 0.8969 0.03566 0.0
C1635 C 0.54135 0.90092 0.04187 0.0
C1636 C 0.52885 0.88791 0.05471 0.0
C1637 C 0.53481 0.87188 0.06141 0.0
C1638 C 0.5248 0.94994 0.03879 0.0
C1639 C 0.52515 0.95341 0.02325 0.0
C1640 C 0.53031 0.93317 0.04477 0.0
C1641 C 0.53587 0.91903 0.03532 0.0
C1642 C 0.53609 0.92241 0.0197 0.0
C1643 C 0.5308 0.93947 0.01373 0.0
H1644 H 1.0002 0.17701 0.37579 0.0
H1645 H 0.0032 0.23641 0.40035 0.0
H1646 H 0.03827 0.20452 0.36321 0.0
H1647 H 0.0419 0.26359 0.38851 0.0
H1648 H 0.10276 0.31159 0.35809 0.0
H1649 H 0.06108 0.28291 0.3659 0.0
H1650 H 0.08092 0.22765 0.36897 0.0
H1651 H 0.12231 0.25636 0.36064 0.0
C1652 C 0.00887 0.19593 0.37847 0.0
C1653 C 0.9986 0.20442 0.38918 0.0
C1654 C 0.03089 0.21168 0.37137 0.0
C1655 C 0.04328 0.23631 0.37485 0.0
C1656 C 0.03278 0.24482 0.38536 0.0
C1657 C 0.01071 0.22913 0.39237 0.0
C1658 C 0.09787 0.29311 0.36006 0.0
C1659 C 0.11534 0.28586 0.35842 0.0
C1660 C 0.07415 0.27675 0.36472 0.0
C1661 C 0.0676 0.25295 0.36818 0.0
C1662 C 0.08512 0.24568 0.36619 0.0
C1663 C 0.10883 0.26207 0.36148 0.0
H1664 H 0.80248 0.82301 0.40298 0.0
H1665 H 0.78792 0.76705 0.37089 0.0
H1666 H 0.7708 0.829 0.39126 0.0
H1667 H 0.75622 0.77308 0.35915 0.0
H1668 H 0.68045 0.77085 0.35814 0.0
H1669 H 0.71445 0.76624 0.36749 0.0
H1670 H 0.76172 0.84308 0.36653 0.0
H1671 H 0.72771 0.8476 0.35716 0.0
C1672 C 0.79253 0.81201 0.39341 0.0
C1673 C 0.79766 0.79449 0.38791 0.0
C1674 C 0.77454 0.81559 0.38662 0.0
C1675 C 0.76098 0.80149 0.37429 0.0
C1676 C 0.76625 0.78411 0.36869 0.0
C1677 C 0.7845 0.78077 0.37535 0.0
C1678 C 0.69821 0.78669 0.35977 0.0
C1679 C 0.70158 0.80952 0.35663 0.0
C1680 C 0.71768 0.78407 0.36505 0.0
C1681 C 0.7408 0.80429 0.36771 0.0
C1682 C 0.74411 0.82716 0.36464 0.0
C1683 C 0.72471 0.82975 0.35914 0.0
H1684 H 0.26608 0.03648 0.36859 0.0
H1685 H 0.20544 0.00273 0.39928 0.0
H1686 H 0.25392 0.99737 0.35722 0.0
H1687 H 0.19279 0.96399 0.38773 0.0
H1688 H 0.19421 0.89664 0.37857 0.0
H1689 H 0.20744 0.93656 0.3877 0.0
H1690 H 0.22354 0.96373 0.3424 0.0
H1691 H 0.21168 0.92346 0.33321 0.0
C1692 C 0.24999 0.02072 0.37276 0.0
C1693 C 0.23691 0.0225 0.38496 0.0
C1694 C 0.24296 0.99836 0.36622 0.0
C1695 C 0.22259 0.97746 0.3717 0.0
C1696 C 0.20898 0.97958 0.38349 0.0
C1697 C 0.21616 0.00177 0.39011 0.0
C1698 C 0.20072 0.91104 0.37046 0.0
C1699 C 0.20134 0.90663 0.35505 0.0
C1700 C 0.20805 0.934 0.37573 0.0
C1701 C 0.21599 0.95333 0.36578 0.0
C1702 C 0.21737 0.9492 0.35038 0.0
C1703 C 0.21022 0.92606 0.34507 0.0
H1704 H 0.56443 0.66282 0.27186 0.0
H1705 H 0.50972 0.65301 0.30457 0.0
H1706 H 0.59261 0.70145 0.28295 0.0
H1707 H 0.53861 0.69073 0.31641 0.0
H1708 H 0.58608 0.77084 0.32454 0.0
H1709 H 0.55771 0.73229 0.31331 0.0
H1710 H 0.61798 0.72033 0.30362 0.0
H1711 H 0.64642 0.75939 0.3143 0.0
C1712 C 0.55837 0.66882 0.28143 0.0
C1713 C 0.53463 0.6547 0.28722 0.0
C1714 C 0.57475 0.69089 0.28798 0.0
C1715 C 0.56801 0.69935 0.30064 0.0
C1716 C 0.5444 0.68507 0.30655 0.0
C1717 C 0.5279 0.66315 0.29988 0.0
C1718 C 0.59327 0.75995 0.32004 0.0
C1719 C 0.61852 0.76819 0.32031 0.0
C1720 C 0.57695 0.73772 0.31366 0.0
C1721 C 0.58544 0.72302 0.30754 0.0
C1722 C 0.61074 0.73127 0.30795 0.0
C1723 C 0.62709 0.75365 0.31416 0.0
H1724 H 0.34171 0.8467 0.3034 0.0
H1725 H 0.34176 0.90812 0.28386 0.0
H1726 H 0.30375 0.83622 0.31642 0.0
H1727 H 0.30324 0.89702 0.29639 0.0
H1728 H 0.24184 0.8811 0.32893 0.0
H1729 H 0.28349 0.89378 0.32034 0.0
H1730 H 0.2613 0.82011 0.30972 0.0
H1731 H 0.22005 0.8077 0.31851 0.0
C1732 C 0.33377 0.85811 0.30194 0.0
C1733 C 0.34489 0.87825 0.29248 0.0
C1734 C 0.31181 0.85193 0.30931 0.0
C1735 C 0.30028 0.86569 0.30744 0.0
C1736 C 0.31166 0.88612 0.29824 0.0
C1737 C 0.33362 0.8923 0.29086 0.0
C1738 C 0.24621 0.86764 0.32519 0.0
C1739 C 0.22804 0.84335 0.32481 0.0
C1740 C 0.26992 0.87489 0.32005 0.0
C1741 C 0.27584 0.85799 0.3143 0.0
C1742 C 0.25763 0.83361 0.31428 0.0
C1743 C 0.23398 0.82645 0.3193 0.0
H1744 H 0.13418 0.48035 0.30775 0.0
H1745 H 0.06221 0.42011 0.29908 0.0
H1746 H 0.14622 0.45377 0.31974 0.0
H1747 H 0.07397 0.39351 0.31139 0.0
H1748 H 0.11408 0.35092 0.31495 0.0
H1749 H 0.09928 0.37694 0.30621 0.0
H1750 H 0.14132 0.42855 0.34078 0.0
H1751 H 0.15699 0.40264 0.34931 0.0
C1752 C 0.12081 0.46145 0.30862 0.0
C1753 C 0.0973 0.45228 0.30237 0.0
C1754 C 0.12767 0.44621 0.31557 0.0
C1755 C 0.11112 0.42144 0.31652 0.0
C1756 C 0.08736 0.41241 0.31062 0.0
C1757 C 0.08059 0.42763 0.30357 0.0
C1758 C 0.1201 0.36771 0.32084 0.0
C1759 C 0.13692 0.37471 0.33282 0.0
C1760 C 0.1114 0.38261 0.31586 0.0
C1761 C 0.11908 0.40492 0.32275 0.0
C1762 C 0.13528 0.41164 0.33506 0.0
C1763 C 0.14412 0.3967 0.34004 0.0
H1764 H 0.31504 0.45653 0.27276 0.0
H1765 H 0.35736 0.46411 0.31268 0.0
H1766 H 0.27774 0.42872 0.2859 0.0
H1767 H 0.31984 0.43679 0.326 0.0
H1768 H 0.25095 0.36094 0.33481 0.0
H1769 H 0.28952 0.39372 0.32523 0.0
H1770 H 0.25036 0.4265 0.30593 0.0
H1771 H 0.21188 0.39346 0.31543 0.0
C1772 C 0.31639 0.4523 0.28435 0.0
C1773 C 0.33924 0.46246 0.29162 0.0
C1774 C 0.29494 0.43661 0.29196 0.0
C1775 C 0.29577 0.43061 0.30704 0.0
C1776 C 0.31858 0.44095 0.31438 0.0
C1777 C 0.34006 0.45673 0.30676 0.0
C1778 C 0.25085 0.3756 0.32891 0.0
C1779 C 0.22874 0.3752 0.3262 0.0
C1780 C 0.27285 0.39435 0.32341 0.0
C1781 C 0.27301 0.41268 0.31473 0.0
C1782 C 0.25084 0.41254 0.31244 0.0
C1783 C 0.22888 0.39387 0.31803 0.0
H1784 H 0.57455 0.90982 0.27589 0.0
H1785 H 0.51828 0.85278 0.30225 0.0
H1786 H 0.60517 0.90261 0.28746 0.0
H1787 H 0.54929 0.84647 0.3145 0.0
H1788 H 0.60902 0.82452 0.31983 0.0
H1789 H 0.57656 0.83109 0.31004 0.0
H1790 H 0.62676 0.90755 0.31013 0.0
H1791 H 0.65915 0.90073 0.31955 0.0
C1792 C 0.56863 0.8957 0.28415 0.0
C1793 C 0.54377 0.88183 0.28801 0.0
C1794 C 0.58634 0.89181 0.291 0.0
C1795 C 0.57985 0.87402 0.30203 0.0
C1796 C 0.55501 0.86018 0.30597 0.0
C1797 C 0.53723 0.86402 0.29905 0.0
C1798 C 0.61291 0.84271 0.31801 0.0
C1799 C 0.63648 0.86217 0.32068 0.0
C1800 C 0.59432 0.84653 0.31237 0.0
C1801 C 0.59898 0.86988 0.30915 0.0
C1802 C 0.62252 0.88929 0.31217 0.0
C1803 C 0.64107 0.88545 0.3177 0.0
H1804 H 0.07208 0.6313 0.31639 0.0
H1805 H 0.13131 0.66249 0.28461 0.0
H1806 H 0.08551 0.67111 0.32707 0.0
H1807 H 0.14539 0.70192 0.29553 0.0
H1808 H 0.14757 0.77111 0.30451 0.0
H1809 H 0.13303 0.73075 0.29567 0.0
H1810 H 0.11616 0.70455 0.34118 0.0
H1811 H 0.12916 0.74521 0.34998 0.0
C1812 C 0.08815 0.64668 0.31184 0.0
C1813 C 0.10047 0.64397 0.29955 0.0
C1814 C 0.09592 0.66944 0.31798 0.0
C1815 C 0.11635 0.68983 0.31204 0.0
C1816 C 0.12917 0.68678 0.30012 0.0
C1817 C 0.1212 0.66418 0.29388 0.0
C1818 C 0.14062 0.75682 0.31271 0.0
C1819 C 0.14006 0.76159 0.32805 0.0
C1820 C 0.13254 0.73359 0.30762 0.0
C1821 C 0.12392 0.71436 0.31772 0.0
C1822 C 0.12276 0.71894 0.33307 0.0
C1823 C 0.1306 0.74232 0.33817 0.0
H1824 H 0.77449 0.02014 0.39174 0.0
H1825 H 0.82789 0.99688 0.39322 0.0
H1826 H 0.74547 0.98274 0.37931 0.0
H1827 H 0.79871 0.95907 0.38136 0.0
H1828 H 0.75093 0.90419 0.3468 0.0
H1829 H 0.7794 0.9421 0.3585 0.0
H1830 H 0.71976 0.94126 0.38286 0.0
H1831 H 0.69101 0.90404 0.37034 0.0
C1832 C 0.77988 0.00686 0.38954 0.0
C1833 C 0.80344 0.01141 0.39339 0.0
C1834 C 0.76324 0.98536 0.38248 0.0
C1835 C 0.76967 0.96778 0.37927 0.0
C1836 C 0.79322 0.97233 0.38332 0.0
C1837 C 0.80995 0.99395 0.3902 0.0
C1838 C 0.74376 0.91227 0.35442 0.0
C1839 C 0.71856 0.90119 0.35738 0.0
C1840 C 0.76021 0.93391 0.36135 0.0
C1841 C 0.75199 0.94487 0.37169 0.0
C1842 C 0.72678 0.93365 0.37477 0.0
C1843 C 0.71026 0.91214 0.36766 0.0
H1844 H 0.99615 0.762 0.39455 0.0
H1845 H 1.00027 0.82524 0.37491 0.0
H1846 H 0.03553 0.77245 0.38351 0.0
H1847 H 0.03919 0.83513 0.36334 0.0
H1848 H 0.12243 0.86149 0.36442 0.0
H1849 H 0.08074 0.84977 0.37193 0.0
H1850 H 0.05745 0.77617 0.36037 0.0
H1851 H 0.09949 0.78813 0.35304 0.0
C1852 C 0.00536 0.77808 0.38782 0.0
C1853 C 0.99502 0.79287 0.38577 0.0
C1854 C 0.02784 0.7839 0.38129 0.0
C1855 C 0.04066 0.8047 0.37255 0.0
C1856 C 0.03001 0.81914 0.37016 0.0
C1857 C 0.00751 0.81331 0.37667 0.0
C1858 C 0.10822 0.84291 0.36321 0.0
C1859 C 0.11392 0.82583 0.35774 0.0
C1860 C 0.08432 0.83616 0.36748 0.0
C1861 C 0.06561 0.81201 0.36673 0.0
C1862 C 0.07139 0.7949 0.36118 0.0
C1863 C 0.09534 0.80174 0.35678 0.0
H1864 H 0.2615 0.24507 0.39891 0.0
H1865 H 0.22112 0.18935 0.36611 0.0
H1866 H 0.24802 0.2703 0.38689 0.0
H1867 H 0.20921 0.21535 0.35338 0.0
H1868 H 0.16742 0.25641 0.3465 0.0
H1869 H 0.18268 0.23093 0.3562 0.0
H1870 H 0.25257 0.29388 0.36582 0.0
H1871 H 0.2369 0.31924 0.35663 0.0
C1872 C 0.24986 0.23821 0.38908 0.0
C1873 C 0.2423 0.21504 0.38358 0.0
C1874 C 0.24245 0.25289 0.382 0.0
C1875 C 0.22753 0.24495 0.36909 0.0
C1876 C 0.22041 0.22198 0.3634 0.0
C1877 C 0.22759 0.20717 0.37059 0.0
C1878 C 0.18613 0.26473 0.35052 0.0
C1879 C 0.20087 0.28978 0.35102 0.0
C1880 C 0.19495 0.25013 0.35605 0.0
C1881 C 0.21882 0.26031 0.36199 0.0
C1882 C 0.23391 0.2854 0.36172 0.0
C1883 C 0.22499 0.29996 0.35637 0.0
H1884 H 0.64621 0.54665 0.70114 0.0
H1885 H 0.69088 0.53592 0.73354 0.0
H1886 H 0.68312 0.57608 0.68806 0.0
H1887 H 0.72775 0.56541 0.7205 0.0
H1888 H 0.78892 0.6069 0.68723 0.0
H1889 H 0.75019 0.57272 0.69548 0.0
H1890 H 0.71719 0.61758 0.69571 0.0
H1891 H 0.75588 0.65165 0.6875 0.0
C1892 C 0.6639 0.55039 0.70536 0.0
C1893 C 0.66568 0.53911 0.71841 0.0
C1894 C 0.68499 0.56727 0.69791 0.0
C1895 C 0.70828 0.57299 0.70325 0.0
C1896 C 0.71004 0.56117 0.71603 0.0
C1897 C 0.68896 0.54451 0.72359 0.0
C1898 C 0.7732 0.60924 0.68867 0.0
C1899 C 0.77521 0.63178 0.68657 0.0
C1900 C 0.75113 0.58977 0.69352 0.0
C1901 C 0.73072 0.59253 0.69628 0.0
C1902 C 0.73252 0.61486 0.69353 0.0
C1903 C 0.75464 0.63435 0.68889 0.0
H1904 H 0.49685 0.16399 0.71054 0.0
H1905 H 0.44025 0.10527 0.73569 0.0
H1906 H 0.46597 0.17117 0.69888 0.0
H1907 H 0.40976 0.11326 0.72473 0.0
H1908 H 0.35604 0.11904 0.69435 0.0
H1909 H 0.38805 0.11059 0.70245 0.0
H1910 H 0.43934 0.18672 0.70509 0.0
H1911 H 0.40723 0.19486 0.69657 0.0
C1912 C 0.47785 0.15255 0.71356 0.0
C1913 C 0.47116 0.13411 0.72416 0.0
C1914 C 0.46015 0.15686 0.707 0.0
C1915 C 0.43529 0.14286 0.71086 0.0
C1916 C 0.42862 0.12425 0.7213 0.0
C1917 C 0.44624 0.11989 0.72779 0.0
C1918 C 0.37437 0.13387 0.69629 0.0
C1919 C 0.37954 0.15753 0.69427 0.0
C1920 C 0.39264 0.1291 0.70115 0.0
C1921 C 0.4164 0.14796 0.70446 0.0
C1922 C 0.42147 0.17171 0.70239 0.0
C1923 C 0.40312 0.17643 0.69754 0.0
H1924 H 0.90185 0.334 0.74517 0.0
H1925 H 0.86123 0.34723 0.711 0.0
H1926 H 0.89196 0.29647 0.73297 0.0
H1927 H 0.85314 0.31074 0.69811 0.0
H1928 H 0.82082 0.23169 0.68692 0.0
H1929 H 0.82992 0.26896 0.69928 0.0
H1930 H 0.90116 0.28031 0.71215 0.0
H1931 H 0.89149 0.24243 0.70039 0.0
C1932 C 0.89082 0.32897 0.73505 0.0
C1933 C 0.88231 0.34375 0.72914 0.0
C1934 C 0.8855 0.30757 0.72788 0.0
C1935 C 0.87184 0.30051 0.71447 0.0
C1936 C 0.86343 0.31535 0.70851 0.0
C1937 C 0.86844 0.33657 0.7158 0.0
C1938 C 0.83845 0.2422 0.69236 0.0
C1939 C 0.85542 0.23409 0.69272 0.0
C1940 C 0.84375 0.26368 0.6994 0.0
C1941 C 0.86629 0.27775 0.70678 0.0
C1942 C 0.88341 0.26976 0.70688 0.0
C1943 C 0.87795 0.2481 0.70003 0.0
H1944 H 0.21402 0.00304 0.60438 0.0
H1945 H 0.20235 0.96635 0.64671 0.0
H1946 H 0.24235 0.04085 0.61656 0.0
H1947 H 0.23064 0.0043 0.65892 0.0
H1948 H 0.26165 0.082 0.67723 0.0
H1949 H 0.23402 0.04299 0.6659 0.0
H1950 H 0.28282 0.06059 0.62819 0.0
H1951 H 0.31019 0.09947 0.63929 0.0
C1952 C 0.21769 0.00298 0.61625 0.0
C1953 C 0.20592 0.98162 0.62455 0.0
C1954 C 0.23392 0.02468 0.62325 0.0
C1955 C 0.2388 0.02559 0.63872 0.0
C1956 C 0.22704 0.00426 0.64703 0.0
C1957 C 0.21083 0.98252 0.64002 0.0
C1958 C 0.26659 0.07747 0.66658 0.0
C1959 C 0.28809 0.09401 0.65915 0.0
C1960 C 0.25077 0.05508 0.66011 0.0
C1961 C 0.25611 0.04877 0.64607 0.0
C1962 C 0.27792 0.06506 0.63887 0.0
C1963 C 0.2937 0.08735 0.64531 0.0
H1964 H 0.98434 0.18072 0.61012 0.0
H1965 H 0.02823 0.23617 0.6422 0.0
H1966 H 0.94713 0.17398 0.62294 0.0
H1967 H 0.991 0.22947 0.65497 0.0
H1968 H 0.91714 0.23157 0.6568 0.0
H1969 H 0.95569 0.23627 0.64736 0.0
H1970 H 0.92502 0.15948 0.64839 0.0
H1971 H 0.88648 0.15485 0.65799 0.0
C1972 C 0.98603 0.19144 0.61992 0.0
C1973 C 0.00925 0.20905 0.6251 0.0
C1974 C 0.96474 0.18742 0.62734 0.0
C1975 C 0.96612 0.20118 0.63998 0.0
C1976 C 0.98934 0.21864 0.64524 0.0
C1977 C 0.01065 0.22239 0.63796 0.0
C1978 C 0.91883 0.21575 0.65526 0.0
C1979 C 0.89897 0.19291 0.65834 0.0
C1980 C 0.94089 0.21843 0.64989 0.0
C1981 C 0.9434 0.19825 0.64709 0.0
C1982 C 0.9236 0.17535 0.65036 0.0
C1983 C 0.90162 0.17271 0.65598 0.0
H1984 H 0.75384 0.76981 0.61964 0.0
H1985 H 0.8302 0.82428 0.62079 0.0
H1986 H 0.76347 0.74214 0.63256 0.0
H1987 H 0.84001 0.79651 0.6334 0.0
H1988 H 0.84653 0.74851 0.66829 0.0
H1989 H 0.83596 0.77633 0.6566 0.0
H1990 H 0.7829 0.71904 0.62846 0.0
H1991 H 0.79258 0.69106 0.64062 0.0
C1992 C 0.77272 0.77577 0.62253 0.0
C1993 C 0.79126 0.79919 0.61919 0.0
C1994 C 0.77828 0.75992 0.62992 0.0
C1995 C 0.80255 0.76705 0.63403 0.0
C1996 C 0.82107 0.79051 0.63066 0.0
C1997 C 0.81548 0.80642 0.62337 0.0
C1998 C 0.83235 0.74176 0.65978 0.0
C1999 C 0.82022 0.71744 0.65556 0.0
C2000 C 0.82649 0.7578 0.65292 0.0
C2001 C 0.80853 0.74997 0.64158 0.0
C2002 C 0.7965 0.72566 0.63733 0.0
C2003 C 0.80222 0.70961 0.64425 0.0
H2004 H 0.02936 0.78489 0.64717 0.0
H2005 H 0.98618 0.79559 0.61365 0.0
H2006 H 0.99191 0.75685 0.66039 0.0
H2007 H 0.94878 0.76754 0.62685 0.0
H2008 H 0.88663 0.72827 0.6599 0.0
H2009 H 0.92607 0.76177 0.65185 0.0
H2010 H 0.95725 0.71535 0.65278 0.0
H2011 H 0.91789 0.68198 0.6607 0.0
C2012 C 0.01188 0.78146 0.64274 0.0
C2013 C 0.01066 0.79227 0.62932 0.0
C2014 C 0.99049 0.76539 0.65028 0.0
C2015 C 0.96747 0.76008 0.64467 0.0
C2016 C 0.96629 0.7715 0.63152 0.0
C2017 C 0.98765 0.78732 0.62387 0.0
C2018 C 0.90211 0.72547 0.65877 0.0
C2019 C 0.89941 0.70269 0.66107 0.0
C2020 C 0.92458 0.74454 0.65405 0.0
C2021 C 0.94468 0.74111 0.65165 0.0
C2022 C 0.94217 0.71858 0.65468 0.0
C2023 C 0.91968 0.69949 0.65916 0.0
H2024 H 0.23816 0.24781 0.62181 0.0
H2025 H 0.1819 0.17445 0.62935 0.0
H2026 H 0.26812 0.23989 0.6341 0.0
H2027 H 0.21184 0.16663 0.6418 0.0
H2028 H 0.28056 0.15684 0.64427 0.0
H2029 H 0.2487 0.16403 0.63402 0.0
H2030 H 0.27852 0.2301 0.65931 0.0
H2031 H 0.31038 0.22271 0.66951 0.0
C2032 C 0.23217 0.22999 0.62609 0.0
C2033 C 0.20761 0.21176 0.62453 0.0
C2034 C 0.2493 0.22552 0.63327 0.0
C2035 C 0.24239 0.20262 0.63894 0.0
C2036 C 0.21781 0.18441 0.63747 0.0
C2037 C 0.20061 0.18896 0.63043 0.0
C2038 C 0.27985 0.17256 0.64789 0.0
C2039 C 0.29722 0.18874 0.65813 0.0
C2040 C 0.2617 0.17676 0.642 0.0
C2041 C 0.26093 0.19758 0.64591 0.0
C2042 C 0.27859 0.21392 0.65604 0.0
C2043 C 0.29667 0.20962 0.66199 0.0
H2044 H 0.7558 0.9834 0.62097 0.0
H2045 H 0.83269 0.00568 0.62038 0.0
H2046 H 0.76497 0.02018 0.63418 0.0
H2047 H 0.84208 0.04286 0.6332 0.0
H2048 H 0.8492 0.09701 0.66832 0.0
H2049 H 0.83902 0.05907 0.65647 0.0
H2050 H 0.78263 0.06194 0.63039 0.0
H2051 H 0.79188 0.09915 0.64282 0.0
C2052 C 0.7747 0.99632 0.62355 0.0
C2053 C 0.79354 0.99172 0.61964 0.0
C2054 C 0.78 0.01744 0.63109 0.0
C2055 C 0.8043 0.03459 0.63475 0.0
C2056 C 0.82313 0.02991 0.63081 0.0
C2057 C 0.81778 0.00866 0.62341 0.0
C2058 C 0.83434 0.08937 0.66026 0.0
C2059 C 0.82116 0.10103 0.65671 0.0
C2060 C 0.82872 0.06772 0.65329 0.0
C2061 C 0.80998 0.05736 0.64245 0.0
C2062 C 0.79687 0.06911 0.63887 0.0
C2063 C 0.80232 0.09061 0.64595 0.0
H2064 H 0.47328 0.32568 0.73962 0.0
H2065 H 0.45985 0.36403 0.70463 0.0
H2066 H 0.44295 0.28772 0.72853 0.0
H2067 H 0.42884 0.326 0.69368 0.0
H2068 H 0.39238 0.25266 0.6701 0.0
H2069 H 0.42293 0.29124 0.68051 0.0
H2070 H 0.40026 0.26331 0.72529 0.0
H2071 H 0.37142 0.22439 0.71475 0.0
C2072 C 0.46363 0.32595 0.72961 0.0
C2073 C 0.46884 0.34778 0.72302 0.0
C2074 C 0.44614 0.30419 0.72328 0.0
C2075 C 0.43321 0.30373 0.71027 0.0
C2076 C 0.43861 0.32563 0.70359 0.0
C2077 C 0.45633 0.34743 0.70987 0.0
C2078 C 0.39422 0.25473 0.68214 0.0
C2079 C 0.37953 0.23548 0.69161 0.0
C2080 C 0.41144 0.27696 0.68814 0.0
C2081 C 0.41421 0.28044 0.70377 0.0
C2082 C 0.39897 0.26125 0.7132 0.0
C2083 C 0.38197 0.23901 0.70718 0.0
H2084 H 0.64958 0.09209 0.71271 0.0
H2085 H 0.68884 0.16494 0.7289 0.0
H2086 H 0.68643 0.09759 0.70031 0.0
H2087 H 0.72631 0.17025 0.71746 0.0
H2088 H 0.78907 0.17975 0.68887 0.0
H2089 H 0.75003 0.17514 0.69682 0.0
H2090 H 0.72307 0.09972 0.70481 0.0
H2091 H 0.76136 0.10424 0.69562 0.0
C2092 C 0.66625 0.10927 0.71368 0.0
C2093 C 0.66641 0.12806 0.72179 0.0
C2094 C 0.68752 0.11244 0.70667 0.0
C2095 C 0.70976 0.13433 0.70793 0.0
C2096 C 0.70967 0.15324 0.71593 0.0
C2097 C 0.68821 0.1502 0.72263 0.0
C2098 C 0.77448 0.16208 0.69186 0.0
C2099 C 0.77801 0.1422 0.69116 0.0
C2100 C 0.75215 0.15945 0.69674 0.0
C2101 C 0.73304 0.13701 0.70157 0.0
C2102 C 0.73683 0.1172 0.70088 0.0
C2103 C 0.75894 0.11978 0.69572 0.0
H2104 H 0.88236 0.55377 0.74784 0.0
H2105 H 0.8877 0.52596 0.70467 0.0
H2106 H 0.872 0.58123 0.73538 0.0
H2107 H 0.87666 0.55306 0.69229 0.0
H2108 H 0.82903 0.5869 0.67862 0.0
H2109 H 0.84002 0.55936 0.69044 0.0
H2110 H 0.89276 0.61696 0.71843 0.0
H2111 H 0.88219 0.64459 0.70655 0.0
C2112 C 0.88155 0.55363 0.7357 0.0
C2113 C 0.88596 0.53766 0.72728 0.0
C2114 C 0.8755 0.5693 0.72857 0.0
C2115 C 0.87352 0.56926 0.71287 0.0
C2116 C 0.87777 0.55327 0.70442 0.0
C2117 C 0.88405 0.53772 0.71154 0.0
C2118 C 0.84321 0.5938 0.68713 0.0
C2119 C 0.85487 0.61805 0.6915 0.0
C2120 C 0.84946 0.57799 0.69392 0.0
C2121 C 0.86722 0.58603 0.70536 0.0
C2122 C 0.87882 0.61022 0.70974 0.0
C2123 C 0.87279 0.62606 0.70287 0.0
H2124 H 0.44298 0.9342 0.16893 0.0
H2125 H 0.51635 0.98359 0.18417 0.0
H2126 H 0.45295 0.95301 0.14418 0.0
H2127 H 0.52622 0.00253 0.15967 0.0
H2128 H 0.54602 0.01753 0.11102 0.0
H2129 H 0.53387 0.99601 0.13468 0.0
H2130 H 0.46208 0.98838 0.1301 0.0
H2131 H 0.47427 0.00962 0.1061 0.0
C2132 C 0.46117 0.94919 0.16706 0.0
C2133 C 0.4789 0.9572 0.17857 0.0
C2134 C 0.4669 0.96002 0.15284 0.0
C2135 C 0.49051 0.97922 0.14976 0.0
C2136 C 0.50804 0.98743 0.16139 0.0
C2137 C 0.50235 0.97656 0.17553 0.0
C2138 C 0.52761 0.01122 0.11504 0.0
C2139 C 0.51122 0.01557 0.10673 0.0
C2140 C 0.52064 0.99895 0.12869 0.0
C2141 C 0.49708 0.99074 0.13456 0.0
C2142 C 0.48034 0.99429 0.12596 0.0
C2143 C 0.48731 0.00649 0.11219 0.0
H2144 H 0.01083 0.47579 0.1867 0.0
H2145 H 0.04209 0.55258 0.18313 0.0
H2146 H 0.99613 0.47111 0.16084 0.0
H2147 H 0.02677 0.54772 0.15752 0.0
H2148 H 0.96778 0.52509 0.1205 0.0
H2149 H 0.98497 0.5297 0.14568 0.0
H2150 H 0.01186 0.48184 0.13403 0.0
H2151 H 0.99449 0.47712 0.10877 0.0
C2152 C 0.01481 0.4917 0.1804 0.0
C2153 C 0.02747 0.51456 0.18713 0.0
C2154 C 0.00632 0.48898 0.16558 0.0
C2155 C 0.0101 0.50903 0.1572 0.0
C2156 C 0.02319 0.53189 0.16379 0.0
C2157 C 0.03188 0.53464 0.17851 0.0
C2158 C 0.97729 0.51549 0.12333 0.0
C2159 C 0.97975 0.50071 0.11268 0.0
C2160 C 0.9873 0.51828 0.1377 0.0
C2161 C 0.9998 0.50616 0.14182 0.0
C2162 C 1.00221 0.49129 0.13119 0.0
C2163 C 0.99244 0.48874 0.11673 0.0
H2164 H 0.49994 0.55623 0.17279 0.0
H2165 H 0.45185 0.48007 0.17883 0.0
H2166 H 0.51207 0.54859 0.14843 0.0
H2167 H 0.46349 0.47263 0.15413 0.0
H2168 H 0.47515 0.47383 0.10228 0.0
H2169 H 0.46093 0.48115 0.12624 0.0
H2170 H 0.53583 0.52859 0.13972 0.0
H2171 H 0.54999 0.5213 0.11585 0.0
C2172 C 0.49197 0.53784 0.16899 0.0
C2173 C 0.4751 0.51876 0.17796 0.0
C2174 C 0.49888 0.5335 0.15497 0.0
C2175 C 0.48887 0.51001 0.14941 0.0
C2176 C 0.47139 0.49095 0.15809 0.0
C2177 C 0.46467 0.49526 0.17223 0.0
C2178 C 0.48853 0.48589 0.11035 0.0
C2179 C 0.51368 0.49697 0.10721 0.0
C2180 C 0.48041 0.48994 0.12409 0.0
C2181 C 0.49727 0.50547 0.13484 0.0
C2182 C 0.5224 0.51668 0.13161 0.0
C2183 C 0.53051 0.51237 0.118 0.0
H2184 H 0.93216 0.45666 0.85032 0.0
H2185 H 1.00175 0.50499 0.83018 0.0
H2186 H 0.95148 0.4651 0.87502 0.0
H2187 H 0.0215 0.51266 0.85471 0.0
H2188 H 0.04662 0.53894 0.9022 0.0
H2189 H 0.02654 0.53166 0.87779 0.0
H2190 H 0.9772 0.45801 0.89036 0.0
H2191 H 0.99665 0.46586 0.915 0.0
C2192 C 0.95167 0.46895 0.85121 0.0
C2193 C 0.96548 0.48022 0.83839 0.0
C2194 C 0.96283 0.4737 0.86535 0.0
C2195 C 0.98816 0.48953 0.86695 0.0
C2196 C 1.00192 0.50074 0.85403 0.0
C2197 C 0.99066 0.49628 0.83994 0.0
C2198 C 0.03148 0.52122 0.89968 0.0
C2199 C 0.02315 0.50296 0.91044 0.0
C2200 C 0.02002 0.51696 0.88566 0.0
C2201 C 1.00019 0.4942 0.88199 0.0
C2202 C 0.99204 0.4759 0.89282 0.0
C2203 C 0.00326 0.4803 0.90692 0.0
H2204 H 0.50767 0.44181 0.83784 0.0
H2205 H 0.55496 0.51829 0.83273 0.0
H2206 H 0.49483 0.44842 0.86226 0.0
H2207 H 0.54259 0.52471 0.85751 0.0
H2208 H 0.5288 0.52058 0.9095 0.0
H2209 H 0.54428 0.51487 0.88553 0.0
H2210 H 0.47012 0.468 0.87049 0.0
H2211 H 0.45471 0.47371 0.89435 0.0
C2212 C 0.51534 0.46005 0.84188 0.0
C2213 C 0.53209 0.47954 0.83314 0.0
C2214 C 0.50802 0.46379 0.85592 0.0
C2215 C 0.51752 0.48708 0.86171 0.0
C2216 C 0.53505 0.50655 0.85333 0.0
C2217 C 0.54218 0.50284 0.83916 0.0
C2218 C 0.51587 0.50904 0.90106 0.0
C2219 C 0.49056 0.4976 0.90377 0.0
C2220 C 0.5247 0.5059 0.88734 0.0
C2221 C 0.5084 0.49094 0.87619 0.0
C2222 C 0.48312 0.47947 0.87894 0.0
C2223 C 0.47429 0.48289 0.89253 0.0
H2224 H 0.55935 0.08444 0.84487 0.0
H2225 H 0.49744 0.02232 0.8254 0.0
H2226 H 0.54786 0.06619 0.8697 0.0
H2227 H 0.48644 0.00355 0.84996 0.0
H2228 H 0.45735 0.98381 0.89678 0.0
H2229 H 0.46952 0.00435 0.8728 0.0
H2230 H 0.54555 0.03659 0.886 0.0
H2231 H 0.53302 0.01672 0.91035 0.0
C2232 C 0.54344 0.06674 0.8459 0.0
C2233 C 0.52921 0.0549 0.83319 0.0
C2234 C 0.53686 0.05619 0.86014 0.0
C2235 C 0.51604 0.03335 0.86201 0.0
C2236 C 0.50218 0.02138 0.84916 0.0
C2237 C 0.50856 0.03208 0.83501 0.0
C2238 C 0.47667 0.99537 0.89456 0.0
C2239 C 0.49423 0.99854 0.90542 0.0
C2240 C 0.48372 0.00706 0.88072 0.0
C2241 C 0.50863 0.02198 0.87721 0.0
C2242 C 0.5262 0.02551 0.88825 0.0
C2243 C 0.51907 0.01406 0.90222 0.0
H2244 H 0.18261 0.31026 0.51774 0.0
H2245 H 0.1088 0.26182 0.50275 0.0
H2246 H 0.19271 0.32867 0.49309 0.0
H2247 H 0.11898 0.28023 0.47789 0.0
H2248 H 0.14178 0.33733 0.43972 0.0
H2249 H 0.12907 0.31606 0.46371 0.0
H2250 H 0.19971 0.32101 0.46808 0.0
H2251 H 0.21236 0.34249 0.44442 0.0
C2252 C 0.16856 0.30331 0.50913 0.0
C2253 C 0.14491 0.28435 0.5123 0.0
C2254 C 0.17437 0.31389 0.49492 0.0
C2255 C 0.15678 0.30585 0.48332 0.0
C2256 C 0.13299 0.28709 0.48652 0.0
C2257 C 0.12714 0.2765 0.5008 0.0
C2258 C 0.15442 0.33356 0.44574 0.0
C2259 C 0.1782 0.34191 0.44024 0.0
C2260 C 0.14716 0.32136 0.45952 0.0
C2261 C 0.16348 0.31712 0.46807 0.0
C2262 C 0.18683 0.32451 0.46212 0.0
C2263 C 0.19407 0.33675 0.44847 0.0
H2264 H 0.69532 0.88447 0.51186 0.0
H2265 H 0.70592 0.82345 0.50616 0.0
H2266 H 0.67595 0.87669 0.48723 0.0
H2267 H 0.68534 0.81513 0.48184 0.0
H2268 H 0.62161 0.796 0.44723 0.0
H2269 H 0.64129 0.80341 0.47196 0.0
H2270 H 0.69058 0.87698 0.45966 0.0
H2271 H 0.67114 0.86949 0.43489 0.0
C2272 C 0.6937 0.86948 0.50539 0.0
C2273 C 0.70244 0.85471 0.51107 0.0
C2274 C 0.68244 0.86498 0.4913 0.0
C2275 C 0.6792 0.84535 0.48266 0.0
C2276 C 0.68745 0.83028 0.48836 0.0
C2277 C 0.69912 0.83501 0.50235 0.0
C2278 C 0.63661 0.81374 0.44986 0.0
C2279 C 0.64487 0.83219 0.4392 0.0
C2280 C 0.64794 0.81793 0.46393 0.0
C2281 C 0.6674 0.84076 0.46769 0.0
C2282 C 0.67551 0.85925 0.45706 0.0
C2283 C 0.6645 0.85495 0.4429 0.0
H2284 H 0.14858 0.81186 0.52404 0.0
H2285 H 0.14007 0.86824 0.50389 0.0
H2286 H 0.1582 0.80175 0.49944 0.0
H2287 H 0.14954 0.85803 0.47926 0.0
H2288 H 0.13956 0.81183 0.43654 0.0
H2289 H 0.12995 0.82211 0.46095 0.0
H2290 H 0.19297 0.82254 0.48025 0.0
H2291 H 0.2034 0.81334 0.45576 0.0
C2292 C 0.14864 0.82199 0.51433 0.0
C2293 C 0.14358 0.84084 0.51588 0.0
C2294 C 0.1543 0.81632 0.50028 0.0
C2295 C 0.15463 0.82911 0.48743 0.0
C2296 C 0.14928 0.84777 0.48895 0.0
C2297 C 0.14402 0.85371 0.50305 0.0
C2298 C 0.15168 0.81447 0.44588 0.0
C2299 C 0.17236 0.81176 0.44403 0.0
C2300 C 0.14604 0.82025 0.45991 0.0
C2301 C 0.16068 0.82309 0.47251 0.0
C2302 C 0.18119 0.82018 0.47077 0.0
C2303 C 0.18706 0.81477 0.4567 0.0
H2304 H 0.62281 0.77301 0.16994 0.0
H2305 H 0.65188 0.84924 0.16451 0.0
H2306 H 0.64127 0.78011 0.19481 0.0
H2307 H 0.66981 0.85617 0.18962 0.0
H2308 H 0.67549 0.8539 0.24156 0.0
H2309 H 0.65657 0.84733 0.2167 0.0
H2310 H 0.68382 0.79958 0.20549 0.0
H2311 H 0.70247 0.80593 0.23036 0.0
C2312 C 0.63324 0.7913 0.17398 0.0
C2313 C 0.63599 0.81056 0.16512 0.0
C2314 C 0.64375 0.79533 0.18827 0.0
C2315 C 0.65707 0.8187 0.19412 0.0
C2316 C 0.65945 0.83794 0.18544 0.0
C2317 C 0.64911 0.83394 0.17107 0.0
C2318 C 0.67733 0.84194 0.23378 0.0
C2319 C 0.69044 0.83042 0.23789 0.0
C2320 C 0.66668 0.83833 0.21953 0.0
C2321 C 0.66869 0.82291 0.20917 0.0
C2322 C 0.68179 0.8114 0.21329 0.0
C2323 C 0.69265 0.8152 0.22747 0.0
H2324 H 0.1639 0.83367 0.15911 0.0
H2325 H 0.22189 0.82613 0.1794 0.0
H2326 H 0.15446 0.84446 0.1834 0.0
H2327 H 0.21193 0.83593 0.20387 0.0
H2328 H 0.20259 0.87426 0.24388 0.0
H2329 H 0.21333 0.86625 0.21911 0.0
H2330 H 0.13675 0.82873 0.20662 0.0
H2331 H 0.12634 0.83767 0.23117 0.0
C2332 C 0.17449 0.83413 0.16883 0.0
C2333 C 0.19362 0.82905 0.16736 0.0
C2334 C 0.16902 0.8402 0.1828 0.0
C2335 C 0.18232 0.84102 0.19573 0.0
C2336 C 0.20153 0.83596 0.1942 0.0
C2337 C 0.20721 0.83022 0.18017 0.0
C2338 C 0.18812 0.86437 0.23579 0.0
C2339 C 0.16364 0.85666 0.23944 0.0
C2340 C 0.19422 0.85963 0.22159 0.0
C2341 C 0.17595 0.84674 0.21075 0.0
C2342 C 0.15144 0.8391 0.21448 0.0
C2343 C 0.1454 0.84414 0.2286 0.0
H2344 H 0.22325 0.37978 0.16857 0.0
H2345 H 0.16977 0.40289 0.17244 0.0
H2346 H 0.21211 0.36195 0.1935 0.0
H2347 H 0.15804 0.38409 0.197 0.0
H2348 H 0.12359 0.31855 0.22957 0.0
H2349 H 0.13738 0.34036 0.20591 0.0
H2350 H 0.21221 0.37406 0.22147 0.0
H2351 H 0.19829 0.35234 0.24531 0.0
C2352 C 0.20934 0.38135 0.17472 0.0
C2353 C 0.19731 0.39269 0.16828 0.0
C2354 C 0.20291 0.37102 0.18902 0.0
C2355 C 0.18408 0.37147 0.19716 0.0
C2356 C 0.17239 0.38316 0.1909 0.0
C2357 C 0.17904 0.3938 0.17674 0.0
C2358 C 0.14297 0.3307 0.22796 0.0
C2359 C 0.15987 0.33373 0.23928 0.0
C2360 C 0.15086 0.34328 0.21446 0.0
C2361 C 0.17588 0.35891 0.21182 0.0
C2362 C 0.19282 0.36204 0.22316 0.0
C2363 C 0.18487 0.34976 0.23682 0.0
H2364 H 0.77179 0.6008 0.84254 0.0
H2365 H 0.84671 0.61654 0.84703 0.0
H2366 H 0.78132 0.62006 0.81805 0.0
H2367 H 0.85568 0.63469 0.82219 0.0
H2368 H 0.85429 0.64529 0.77045 0.0
H2369 H 0.84313 0.62312 0.79421 0.0
H2370 H 0.8091 0.66344 0.80898 0.0
H2371 H 0.82052 0.68574 0.78539 0.0
C2372 C 0.7903 0.60836 0.83841 0.0
C2373 C 0.80847 0.60716 0.84702 0.0
C2374 C 0.79568 0.61926 0.82427 0.0
C2375 C 0.81924 0.6289 0.81818 0.0
C2376 C 0.83726 0.62718 0.82651 0.0
C2377 C 0.83202 0.61664 0.84077 0.0
C2378 C 0.84424 0.64923 0.77874 0.0
C2379 C 0.83832 0.66728 0.77609 0.0
C2380 C 0.83801 0.63667 0.79236 0.0
C2381 C 0.82526 0.64156 0.80347 0.0
C2382 C 0.81877 0.65916 0.80061 0.0
C2383 C 0.82542 0.672 0.78715 0.0
H2384 H 0.36116 0.13826 0.84069 0.0
H2385 H 0.3587 0.20427 0.83972 0.0
H2386 H 0.34135 0.12748 0.81613 0.0
H2387 H 0.34015 0.19387 0.81484 0.0
H2388 H 0.32972 0.17546 0.76364 0.0
H2389 H 0.35164 0.18642 0.78777 0.0
H2390 H 0.29841 0.11792 0.80598 0.0
H2391 H 0.27635 0.10719 0.78201 0.0
C2392 C 0.3564 0.1505 0.83535 0.0
C2393 C 0.36157 0.17218 0.84239 0.0
C2394 C 0.3452 0.14434 0.82119 0.0
C2395 C 0.3393 0.15987 0.81356 0.0
C2396 C 0.3448 0.18169 0.82039 0.0
C2397 C 0.35557 0.18767 0.83466 0.0
C2398 C 0.32287 0.16273 0.77279 0.0
C2399 C 0.30134 0.14051 0.771 0.0
C2400 C 0.3353 0.16903 0.78659 0.0
C2401 C 0.3267 0.15302 0.79874 0.0
C2402 C 0.30553 0.13055 0.79679 0.0
C2403 C 0.29286 0.12446 0.78311 0.0
H2404 H 0.79112 0.15182 0.84799 0.0
H2405 H 0.83748 0.22842 0.84278 0.0
H2406 H 0.80343 0.14558 0.82318 0.0
H2407 H 0.85026 0.22199 0.81829 0.0
H2408 H 0.88999 0.19746 0.78522 0.0
H2409 H 0.87516 0.20352 0.8092 0.0
H2410 H 0.8008 0.15447 0.79545 0.0
H2411 H 0.81569 0.14836 0.77138 0.0
C2412 C 0.8037 0.16735 0.84154 0.0
C2413 C 0.81345 0.19063 0.84754 0.0
C2414 C 0.8108 0.16374 0.82733 0.0
C2415 C 0.82799 0.18328 0.81885 0.0
C2416 C 0.83731 0.20655 0.82467 0.0
C2417 C 0.83003 0.21019 0.83876 0.0
C2418 C 0.87048 0.18791 0.78734 0.0
C2419 C 0.85401 0.17241 0.77643 0.0
C2420 C 0.86198 0.19152 0.80101 0.0
C2421 C 0.83681 0.1795 0.8042 0.0
C2422 C 0.8203 0.16388 0.79334 0.0
C2423 C 0.8288 0.16052 0.77954 0.0
H2424 H 0.30059 0.18095 0.50344 0.0
H2425 H 0.31503 0.12211 0.49949 0.0
H2426 H 0.31707 0.1886 0.52891 0.0
H2427 H 0.33037 0.12921 0.5252 0.0
H2428 H 0.33163 0.13584 0.57725 0.0
H2429 H 0.31351 0.1278 0.55206 0.0
H2430 H 0.36003 0.20228 0.54055 0.0
H2431 H 0.3783 0.21026 0.56568 0.0
C2432 C 0.3073 0.16967 0.50792 0.0
C2433 C 0.30651 0.15094 0.49927 0.0
C2434 C 0.3166 0.17401 0.52256 0.0
C2435 C 0.32496 0.15949 0.529 0.0
C2436 C 0.32378 0.14051 0.52055 0.0
C2437 C 0.31485 0.13639 0.50582 0.0
C2438 C 0.33784 0.15048 0.56935 0.0
C2439 C 0.35637 0.17365 0.57337 0.0
C2440 C 0.3276 0.14586 0.55494 0.0
C2441 C 0.33539 0.16443 0.54438 0.0
C2442 C 0.3536 0.18769 0.54851 0.0
C2443 C 0.36414 0.19221 0.56282 0.0
H2444 H 0.85326 0.17506 0.49336 0.0
H2445 H 0.87175 0.12522 0.51348 0.0
H2446 H 0.84116 0.1826 0.5178 0.0
H2447 H 0.86091 0.13353 0.53812 0.0
H2448 H 0.81525 0.13385 0.5775 0.0
H2449 H 0.82802 0.12666 0.55316 0.0
H2450 H 0.85437 0.20067 0.54112 0.0
H2451 H 0.84035 0.20726 0.56518 0.0
C2452 C 0.85509 0.16602 0.5031 0.0
C2453 C 0.86337 0.14953 0.50155 0.0
C2454 C 0.84828 0.1704 0.51716 0.0
C2455 C 0.84998 0.15869 0.53007 0.0
C2456 C 0.85878 0.14252 0.52847 0.0
C2457 C 0.86518 0.13785 0.51436 0.0
C2458 C 0.82383 0.14852 0.56961 0.0
C2459 C 0.82672 0.17106 0.57316 0.0
C2460 C 0.83132 0.1445 0.55567 0.0
C2461 C 0.84229 0.16306 0.54505 0.0
C2462 C 0.84553 0.18575 0.5488 0.0
C2463 C 0.83764 0.18963 0.56263 0.0
H2464 H 0.82526 0.7161 0.50009 0.0
H2465 H 0.89981 0.73039 0.50355 0.0
H2466 H 0.81691 0.69853 0.52509 0.0
H2467 H 0.89089 0.71175 0.52823 0.0
H2468 H 0.8521 0.64725 0.5617 0.0
H2469 H 0.86309 0.66898 0.53792 0.0
H2470 H 0.83034 0.71045 0.55276 0.0
H2471 H 0.81958 0.6888 0.57671 0.0
C2472 C 0.84 0.7158 0.50616 0.0
C2473 C 0.86325 0.72471 0.49959 0.0
C2474 C 0.83512 0.7056 0.52051 0.0
C2475 C 0.85321 0.70367 0.52862 0.0
C2476 C 0.87648 0.71273 0.52219 0.0
C2477 C 0.88151 0.72328 0.50795 0.0
C2478 C 0.84739 0.66112 0.55992 0.0
C2479 C 0.83494 0.6663 0.57105 0.0
C2480 C 0.85379 0.67364 0.54634 0.0
C2481 C 0.84753 0.69139 0.54344 0.0
C2482 C 0.83528 0.69676 0.55464 0.0
C2483 C 0.82927 0.68452 0.56837 0.0
loop_
_geom_bond_atom_site_label_1
_geom_bond_atom_site_label_2
_geom_bond_distance
_geom_bond_site_symmetry_2
_ccdc_geom_bond_type
C0 C1 1.384 . S
C0 H13 0.947 . S
C0 C35 1.382 . S
C1 C0 1.384 . S
C1 C2 1.378 . S
C2 C1 1.378 . S
C2 C3 1.378 . S
C2 H14 0.952 . S
C3 C2 1.378 . S
C3 H15 0.950 . S
C3 C34 1.383 . S
H4 C23 0.947 . S
H5 C24 0.946 . S
H6 C26 0.953 . S
H7 C27 0.945 . S
H8 C29 0.952 . S
H9 C30 0.949 . S
H10 C32 0.950 . S
H11 C33 0.948 . S
H12 C35 0.951 . S
H13 C0 0.947 . S
H14 C2 0.952 . S
H15 C3 0.950 . S
N16 C19 1.382 . S
N16 C21 1.363 . S
N17 C19 1.371 . S
N17 C20 1.372 . S
N18 C20 1.361 . S
N18 C21 1.377 . S
C19 N16 1.382 . S
C19 N17 1.371 . S
C19 C22 1.480 . S
C20 N17 1.372 . S
C20 N18 1.361 . S
C20 C28 1.457 . S
C21 N16 1.363 . S
C21 N18 1.377 . S
C21 C34 1.479 . S
C22 C19 1.480 . S
C22 C23 1.383 . S
C22 C27 1.385 . S
C23 H4 0.947 . S
C23 C22 1.383 . S
C23 C24 1.388 . S
C24 H5 0.946 . S
C24 C23 1.388 . S
C24 C25 1.384 . S
C25 C24 1.384 . S
C25 C26 1.377 . S
C26 H6 0.953 . S
C26 C25 1.377 . S
C26 C27 1.369 . S
C27 H7 0.945 . S
C27 C22 1.385 . S
C27 C26 1.369 . S
C28 C20 1.457 . S
C28 C29 1.372 . S
C28 C33 1.364 . S
C29 H8 0.952 . S
C29 C28 1.372 . S
C29 C30 1.389 . S
C30 H9 0.949 . S
C30 C29 1.389 . S
C30 C31 1.387 . S
C31 C30 1.387 . S
C31 C32 1.372 . S
C32 H10 0.950 . S
C32 C31 1.372 . S
C32 C33 1.379 . S
C33 H11 0.948 . S
C33 C28 1.364 . S
C33 C32 1.379 . S
C34 C3 1.383 . S
C34 C21 1.479 . S
C34 C35 1.398 . S
C35 C0 1.382 . S
C35 H12 0.951 . S
C35 C34 1.398 . S
C36 C37 1.384 . S
C36 H49 0.947 . S
C36 C71 1.382 . S
C37 C36 1.384 . S
C37 C38 1.378 . S
C38 C37 1.378 . S
C38 C39 1.378 . S
C38 H50 0.952 . S
C39 C38 1.378 . S
C39 H51 0.950 . S
C39 C70 1.383 . S
H40 C59 0.947 . S
H41 C60 0.946 . S
H42 C62 0.953 . S
H43 C63 0.945 . S
H44 C65 0.952 . S
H45 C66 0.949 . S
H46 C68 0.950 . S
H47 C69 0.948 . S
H48 C71 0.951 . S
H49 C36 0.947 . S
H50 C38 0.952 . S
H51 C39 0.950 . S
N52 C55 1.382 . S
N52 C57 1.363 . S
N53 C55 1.371 . S
N53 C56 1.372 . S
N54 C56 1.361 . S
N54 C57 1.377 . S
C55 N52 1.382 . S
C55 N53 1.371 . S
C55 C58 1.480 . S
C56 N53 1.372 . S
C56 N54 1.361 . S
C56 C64 1.457 . S
C57 N52 1.363 . S
C57 N54 1.377 . S
C57 C70 1.479 . S
C58 C55 1.480 . S
C58 C59 1.383 . S
C58 C63 1.385 . S
C59 H40 0.947 . S
C59 C58 1.383 . S
C59 C60 1.388 . S
C60 H41 0.946 . S
C60 C59 1.388 . S
C60 C61 1.384 . S
C61 C60 1.384 . S
C61 C62 1.377 . S
C62 H42 0.953 . S
C62 C61 1.377 . S
C62 C63 1.369 . S
C63 H43 0.945 . S
C63 C58 1.385 . S
C63 C62 1.369 . S
C64 C56 1.457 . S
C64 C65 1.372 . S
C64 C69 1.364 . S
C65 H44 0.952 . S
C65 C64 1.372 . S
C65 C66 1.389 . S
C66 H45 0.949 . S
C66 C65 1.389 . S
C66 C67 1.387 . S
C67 C66 1.387 . S
C67 C68 1.372 . S
C68 H46 0.950 . S
C68 C67 1.372 . S
C68 C69 1.379 . S
C69 H47 0.948 . S
C69 C64 1.364 . S
C69 C68 1.379 . S
C70 C39 1.383 . S
C70 C57 1.479 . S
C70 C71 1.398 . S
C71 C36 1.382 . S
C71 H48 0.951 . S
C71 C70 1.398 . S
C72 C73 1.384 . S
C72 H85 0.947 . S
C72 C107 1.382 . S
C73 C72 1.384 . S
C73 C74 1.378 . S
C74 C73 1.378 . S
C74 C75 1.378 . S
C74 H86 0.952 . S
C75 C74 1.378 . S
C75 H87 0.950 . S
C75 C106 1.383 . S
H76 C95 0.947 . S
H77 C96 0.946 . S
H78 C98 0.953 . S
H79 C99 0.945 . S
H80 C101 0.952 . S
H81 C102 0.949 . S
H82 C104 0.950 . S
H83 C105 0.948 . S
H84 C107 0.951 . S
H85 C72 0.947 . S
H86 C74 0.952 . S
H87 C75 0.950 . S
N88 C91 1.382 . S
N88 C93 1.363 . S
N89 C91 1.371 . S
N89 C92 1.372 . S
N90 C92 1.361 . S
N90 C93 1.377 . S
C91 N88 1.382 . S
C91 N89 1.371 . S
C91 C94 1.480 . S
C92 N89 1.372 . S
C92 N90 1.361 . S
C92 C100 1.457 . S
C93 N88 1.363 . S
C93 N90 1.377 . S
C93 C106 1.479 . S
C94 C91 1.480 . S
C94 C95 1.383 . S
C94 C99 1.385 . S
C95 H76 0.947 . S
C95 C94 1.383 . S
C95 C96 1.388 . S
C96 H77 0.946 . S
C96 C95 1.388 . S
C96 C97 1.384 . S
C97 C96 1.384 . S
C97 C98 1.377 . S
C98 H78 0.953 . S
C98 C97 1.377 . S
C98 C99 1.369 . S
C99 H79 0.945 . S
C99 C94 1.385 . S
C99 C98 1.369 . S
C100 C92 1.457 . S
C100 C101 1.372 . S
C100 C105 1.364 . S
C101 H80 0.952 . S
C101 C100 1.372 . S
C101 C102 1.389 . S
C102 H81 0.949 . S
C102 C101 1.389 . S
C102 C103 1.387 . S
C103 C102 1.387 . S
C103 C104 1.372 . S
C104 H82 0.950 . S
C104 C103 1.372 . S
C104 C105 1.379 . S
C105 H83 0.948 . S
C105 C100 1.364 . S
C105 C104 1.379 . S
C106 C75 1.383 . S
C106 C93 1.479 . S
C106 C107 1.398 . S
C107 C72 1.382 . S
C107 H84 0.951 . S
C107 C106 1.398 . S
C108 C109 1.384 . S
C108 H121 0.947 . S
C108 C143 1.382 . S
C109 C108 1.384 . S
C109 C110 1.378 . S
C110 C109 1.378 . S
C110 C111 1.378 . S
C110 H122 0.952 . S
C111 C110 1.378 . S
C111 H123 0.950 . S
C111 C142 1.383 . S
H112 C131 0.947 . S
H113 C132 0.946 . S
H114 C134 0.953 . S
H115 C135 0.945 . S
H116 C137 0.952 . S
H117 C138 0.949 . S
H118 C140 0.950 . S
H119 C141 0.948 . S
H120 C143 0.951 . S
H121 C108 0.947 . S
H122 C110 0.952 . S
H123 C111 0.950 . S
N124 C127 1.382 . S
N124 C129 1.363 . S
N125 C127 1.371 . S
N125 C128 1.372 . S
N126 C128 1.361 . S
N126 C129 1.377 . S
C127 N124 1.382 . S
C127 N125 1.371 . S
C127 C130 1.480 . S
C128 N125 1.372 . S
C128 N126 1.361 . S
C128 C136 1.457 . S
C129 N124 1.363 . S
C129 N126 1.377 . S
C129 C142 1.479 . S
C130 C127 1.480 . S
C130 C131 1.383 . S
C130 C135 1.385 . S
C131 H112 0.947 . S
C131 C130 1.383 . S
C131 C132 1.388 . S
C132 H113 0.946 . S
C132 C131 1.388 . S
C132 C133 1.384 . S
C133 C132 1.384 . S
C133 C134 1.377 . S
C134 H114 0.953 . S
C134 C133 1.377 . S
C134 C135 1.369 . S
C135 H115 0.945 . S
C135 C130 1.385 . S
C135 C134 1.369 . S
C136 C128 1.457 . S
C136 C137 1.372 . S
C136 C141 1.364 . S
C137 H116 0.952 . S
C137 C136 1.372 . S
C137 C138 1.389 . S
C138 H117 0.949 . S
C138 C137 1.389 . S
C138 C139 1.387 . S
C139 C138 1.387 . S
C139 C140 1.372 . S
C140 H118 0.950 . S
C140 C139 1.372 . S
C140 C141 1.379 . S
C141 H119 0.948 . S
C141 C136 1.364 . S
C141 C140 1.379 . S
C142 C111 1.383 . S
C142 C129 1.479 . S
C142 C143 1.398 . S
C143 C108 1.382 . S
C143 H120 0.951 . S
C143 C142 1.398 . S
C144 C145 1.384 . S
C144 H157 0.947 . S
C144 C179 1.382 . S
C145 C144 1.384 . S
C145 C146 1.378 . S
C146 C145 1.378 . S
C146 C147 1.378 . S
C146 H158 0.952 . S
C147 C146 1.378 . S
C147 H159 0.950 . S
C147 C178 1.383 . S
H148 C167 0.947 . S
H149 C168 0.946 . S
H150 C170 0.953 . S
H151 C171 0.945 . S
H152 C173 0.952 . S
H153 C174 0.949 . S
H154 C176 0.950 . S
H155 C177 0.948 . S
H156 C179 0.951 . S
H157 C144 0.947 . S
H158 C146 0.952 . S
H159 C147 0.950 . S
N160 C163 1.382 . S
N160 C165 1.363 . S
N161 C163 1.371 . S
N161 C164 1.372 . S
N162 C164 1.361 . S
N162 C165 1.377 . S
C163 N160 1.382 . S
C163 N161 1.371 . S
C163 C166 1.480 . S
C164 N161 1.372 . S
C164 N162 1.361 . S
C164 C172 1.457 . S
C165 N160 1.363 . S
C165 N162 1.377 . S
C165 C178 1.479 . S
C166 C163 1.480 . S
C166 C167 1.383 . S
C166 C171 1.385 . S
C167 H148 0.947 . S
C167 C166 1.383 . S
C167 C168 1.388 . S
C168 H149 0.946 . S
C168 C167 1.388 . S
C168 C169 1.384 . S
C169 C168 1.384 . S
C169 C170 1.377 . S
C170 H150 0.953 . S
C170 C169 1.377 . S
C170 C171 1.369 . S
C171 H151 0.945 . S
C171 C166 1.385 . S
C171 C170 1.369 . S
C172 C164 1.457 . S
C172 C173 1.372 . S
C172 C177 1.364 . S
C173 H152 0.952 . S
C173 C172 1.372 . S
C173 C174 1.389 . S
C174 H153 0.949 . S
C174 C173 1.389 . S
C174 C175 1.387 . S
C175 C174 1.387 . S
C175 C176 1.372 . S
C176 H154 0.950 . S
C176 C175 1.372 . S
C176 C177 1.379 . S
C177 H155 0.948 . S
C177 C172 1.364 . S
C177 C176 1.379 . S
C178 C147 1.383 . S
C178 C165 1.479 . S
C178 C179 1.398 . S
C179 C144 1.382 . S
C179 H156 0.951 . S
C179 C178 1.398 . S
C180 C181 1.384 . S
C180 H193 0.947 . S
C180 C215 1.382 . S
C181 C180 1.384 . S
C181 C182 1.378 . S
C182 C181 1.378 . S
C182 C183 1.378 . S
C182 H194 0.952 . S
C183 C182 1.378 . S
C183 H195 0.950 . S
C183 C214 1.383 . S
H184 C203 0.947 . S
H185 C204 0.946 . S
H186 C206 0.953 . S
H187 C207 0.945 . S
H188 C209 0.952 . S
H189 C210 0.949 . S
H190 C212 0.950 . S
H191 C213 0.948 . S
H192 C215 0.951 . S
H193 C180 0.947 . S
H194 C182 0.952 . S
H195 C183 0.950 . S
N196 C199 1.382 . S
N196 C201 1.363 . S
N197 C199 1.371 . S
N197 C200 1.372 . S
N198 C200 1.361 . S
N198 C201 1.377 . S
C199 N196 1.382 . S
C199 N197 1.371 . S
C199 C202 1.480 . S
C200 N197 1.372 . S
C200 N198 1.361 . S
C200 C208 1.457 . S
C201 N196 1.363 . S
C201 N198 1.377 . S
C201 C214 1.479 . S
C202 C199 1.480 . S
C202 C203 1.383 . S
C202 C207 1.385 . S
C203 H184 0.947 . S
C203 C202 1.383 . S
C203 C204 1.388 . S
C204 H185 0.946 . S
C204 C203 1.388 . S
C204 C205 1.384 . S
C205 C204 1.384 . S
C205 C206 1.377 . S
C206 H186 0.953 . S
C206 C205 1.377 . S
C206 C207 1.369 . S
C207 H187 0.945 . S
C207 C202 1.385 . S
C207 C206 1.369 . S
C208 C200 1.457 . S
C208 C209 1.372 . S
C208 C213 1.364 . S
C209 H188 0.952 . S
C209 C208 1.372 . S
C209 C210 1.389 . S
C210 H189 0.949 . S
C210 C209 1.389 . S
C210 C211 1.387 . S
C211 C210 1.387 . S
C211 C212 1.372 . S
C212 H190 0.950 . S
C212 C211 1.372 . S
C212 C213 1.379 . S
C213 H191 0.948 . S
C213 C208 1.364 . S
C213 C212 1.379 . S
C214 C183 1.383 . S
C214 C201 1.479 . S
C214 C215 1.398 . S
C215 C180 1.382 . S
C215 H192 0.951 . S
C215 C214 1.398 . S
C216 C217 1.384 . S
C216 H229 0.947 . S
C216 C251 1.382 . S
C217 C216 1.384 . S
C217 C218 1.378 . S
C218 C217 1.378 . S
C218 C219 1.378 . S
C218 H230 0.952 . S
C219 C218 1.378 . S
C219 H231 0.950 . S
C219 C250 1.383 . S
H220 C239 0.947 . S
H221 C240 0.946 . S
H222 C242 0.953 . S
H223 C243 0.945 . S
H224 C245 0.952 . S
H225 C246 0.949 . S
H226 C248 0.950 . S
H227 C249 0.948 . S
H228 C251 0.951 . S
H229 C216 0.947 . S
H230 C218 0.952 . S
H231 C219 0.950 . S
N232 C235 1.382 . S
N232 C237 1.363 . S
N233 C235 1.371 . S
N233 C236 1.372 . S
N234 C236 1.361 . S
N234 C237 1.377 . S
C235 N232 1.382 . S
C235 N233 1.371 . S
C235 C238 1.480 . S
C236 N233 1.372 . S
C236 N234 1.361 . S
C236 C244 1.457 . S
C237 N232 1.363 . S
C237 N234 1.377 . S
C237 C250 1.479 . S
C238 C235 1.480 . S
C238 C239 1.383 . S
C238 C243 1.385 . S
C239 H220 0.947 . S
C239 C238 1.383 . S
C239 C240 1.388 . S
C240 H221 0.946 . S
C240 C239 1.388 . S
C240 C241 1.384 . S
C241 C240 1.384 . S
C241 C242 1.377 . S
C242 H222 0.953 . S
C242 C241 1.377 . S
C242 C243 1.369 . S
C243 H223 0.945 . S
C243 C238 1.385 . S
C243 C242 1.369 . S
C244 C236 1.457 . S
C244 C245 1.372 . S
C244 C249 1.364 . S
C245 H224 0.952 . S
C245 C244 1.372 . S
C245 C246 1.389 . S
C246 H225 0.949 . S
C246 C245 1.389 . S
C246 C247 1.387 . S
C247 C246 1.387 . S
C247 C248 1.372 . S
C248 H226 0.950 . S
C248 C247 1.372 . S
C248 C249 1.379 . S
C249 H227 0.948 . S
C249 C244 1.364 . S
C249 C248 1.379 . S
C250 C219 1.383 . S
C250 C237 1.479 . S
C250 C251 1.398 . S
C251 C216 1.382 . S
C251 H228 0.951 . S
C251 C250 1.398 . S
C252 C253 1.384 . S
C252 H265 0.947 . S
C252 C287 1.382 . S
C253 C252 1.384 . S
C253 C254 1.378 . S
C254 C253 1.378 . S
C254 C255 1.378 . S
C254 H266 0.952 . S
C255 C254 1.378 . S
C255 H267 0.950 . S
C255 C286 1.383 . S
H256 C275 0.947 . S
H257 C276 0.946 . S
H258 C278 0.953 . S
H259 C279 0.945 . S
H260 C281 0.952 . S
H261 C282 0.949 . S
H262 C284 0.950 . S
H263 C285 0.948 . S
H264 C287 0.951 . S
H265 C252 0.947 . S
H266 C254 0.952 . S
H267 C255 0.950 . S
N268 C271 1.382 . S
N268 C273 1.363 . S
N269 C271 1.371 . S
N269 C272 1.372 . S
N270 C272 1.361 . S
N270 C273 1.377 . S
C271 N268 1.382 . S
C271 N269 1.371 . S
C271 C274 1.480 . S
C272 N269 1.372 . S
C272 N270 1.361 . S
C272 C280 1.457 . S
C273 N268 1.363 . S
C273 N270 1.377 . S
C273 C286 1.479 . S
C274 C271 1.480 . S
C274 C275 1.383 . S
C274 C279 1.385 . S
C275 H256 0.947 . S
C275 C274 1.383 . S
C275 C276 1.388 . S
C276 H257 0.946 . S
C276 C275 1.388 . S
C276 C277 1.384 . S
C277 C276 1.384 . S
C277 C278 1.377 . S
C278 H258 0.953 . S
C278 C277 1.377 . S
C278 C279 1.369 . S
C279 H259 0.945 . S
C279 C274 1.385 . S
C279 C278 1.369 . S
C280 C272 1.457 . S
C280 C281 1.372 . S
C280 C285 1.364 . S
C281 H260 0.952 . S
C281 C280 1.372 . S
C281 C282 1.389 . S
C282 H261 0.949 . S
C282 C281 1.389 . S
C282 C283 1.387 . S
C283 C282 1.387 . S
C283 C284 1.372 . S
C284 H262 0.950 . S
C284 C283 1.372 . S
C284 C285 1.379 . S
C285 H263 0.948 . S
C285 C280 1.364 . S
C285 C284 1.379 . S
C286 C255 1.383 . S
C286 C273 1.479 . S
C286 C287 1.398 . S
C287 C252 1.382 . S
C287 H264 0.951 . S
C287 C286 1.398 . S
C288 C289 1.384 . S
C288 H301 0.947 . S
C288 C323 1.382 . S
C289 C288 1.384 . S
C289 C290 1.378 . S
C290 C289 1.378 . S
C290 C291 1.378 . S
C290 H302 0.952 . S
C291 C290 1.378 . S
C291 H303 0.950 . S
C291 C322 1.383 . S
H292 C311 0.947 . S
H293 C312 0.946 . S
H294 C314 0.953 . S
H295 C315 0.945 . S
H296 C317 0.952 . S
H297 C318 0.949 . S
H298 C320 0.950 . S
H299 C321 0.948 . S
H300 C323 0.951 . S
H301 C288 0.947 . S
H302 C290 0.952 . S
H303 C291 0.950 . S
N304 C307 1.382 . S
N304 C309 1.363 . S
N305 C307 1.371 . S
N305 C308 1.372 . S
N306 C308 1.361 . S
N306 C309 1.377 . S
C307 N304 1.382 . S
C307 N305 1.371 . S
C307 C310 1.480 . S
C308 N305 1.372 . S
C308 N306 1.361 . S
C308 C316 1.457 . S
C309 N304 1.363 . S
C309 N306 1.377 . S
C309 C322 1.479 . S
C310 C307 1.480 . S
C310 C311 1.383 . S
C310 C315 1.385 . S
C311 H292 0.947 . S
C311 C310 1.383 . S
C311 C312 1.388 . S
C312 H293 0.946 . S
C312 C311 1.388 . S
C312 C313 1.384 . S
C313 C312 1.384 . S
C313 C314 1.377 . S
C314 H294 0.953 . S
C314 C313 1.377 . S
C314 C315 1.369 . S
C315 H295 0.945 . S
C315 C310 1.385 . S
C315 C314 1.369 . S
C316 C308 1.457 . S
C316 C317 1.372 . S
C316 C321 1.364 . S
C317 H296 0.952 . S
C317 C316 1.372 . S
C317 C318 1.389 . S
C318 H297 0.949 . S
C318 C317 1.389 . S
C318 C319 1.387 . S
C319 C318 1.387 . S
C319 C320 1.372 . S
C320 H298 0.950 . S
C320 C319 1.372 . S
C320 C321 1.379 . S
C321 H299 0.948 . S
C321 C316 1.364 . S
C321 C320 1.379 . S
C322 C291 1.383 . S
C322 C309 1.479 . S
C322 C323 1.398 . S
C323 C288 1.382 . S
C323 H300 0.951 . S
C323 C322 1.398 . S
C324 C325 1.384 . S
C324 H337 0.947 . S
C324 C359 1.382 . S
C325 C324 1.384 . S
C325 C326 1.378 . S
C326 C325 1.378 . S
C326 C327 1.378 . S
C326 H338 0.952 . S
C327 C326 1.378 . S
C327 H339 0.950 . S
C327 C358 1.383 . S
H328 C347 0.947 . S
H329 C348 0.946 . S
H330 C350 0.953 . S
H331 C351 0.945 . S
H332 C353 0.952 . S
H333 C354 0.949 . S
H334 C356 0.950 . S
H335 C357 0.948 . S
H336 C359 0.951 . S
H337 C324 0.947 . S
H338 C326 0.952 . S
H339 C327 0.950 . S
N340 C343 1.382 . S
N340 C345 1.363 . S
N341 C343 1.371 . S
N341 C344 1.372 . S
N342 C344 1.361 . S
N342 C345 1.377 . S
C343 N340 1.382 . S
C343 N341 1.371 . S
C343 C346 1.480 . S
C344 N341 1.372 . S
C344 N342 1.361 . S
C344 C352 1.457 . S
C345 N340 1.363 . S
C345 N342 1.377 . S
C345 C358 1.479 . S
C346 C343 1.480 . S
C346 C347 1.383 . S
C346 C351 1.385 . S
C347 H328 0.947 . S
C347 C346 1.383 . S
C347 C348 1.388 . S
C348 H329 0.946 . S
C348 C347 1.388 . S
C348 C349 1.384 . S
C349 C348 1.384 . S
C349 C350 1.377 . S
C350 H330 0.953 . S
C350 C349 1.377 . S
C350 C351 1.369 . S
C351 H331 0.945 . S
C351 C346 1.385 . S
C351 C350 1.369 . S
C352 C344 1.457 . S
C352 C353 1.372 . S
C352 C357 1.364 . S
C353 H332 0.952 . S
C353 C352 1.372 . S
C353 C354 1.389 . S
C354 H333 0.949 . S
C354 C353 1.389 . S
C354 C355 1.387 . S
C355 C354 1.387 . S
C355 C356 1.372 . S
C356 H334 0.950 . S
C356 C355 1.372 . S
C356 C357 1.379 . S
C357 H335 0.948 . S
C357 C352 1.364 . S
C357 C356 1.379 . S
C358 C327 1.383 . S
C358 C345 1.479 . S
C358 C359 1.398 . S
C359 C324 1.382 . S
C359 H336 0.951 . S
C359 C358 1.398 . S
C360 C361 1.384 . S
C360 H373 0.947 . S
C360 C395 1.382 . S
C361 C360 1.384 . S
C361 C362 1.378 . S
C362 C361 1.378 . S
C362 C363 1.378 . S
C362 H374 0.952 . S
C363 C362 1.378 . S
C363 H375 0.950 . S
C363 C394 1.383 . S
H364 C383 0.947 . S
H365 C384 0.946 . S
H366 C386 0.953 . S
H367 C387 0.945 . S
H368 C389 0.952 . S
H369 C390 0.949 . S
H370 C392 0.950 . S
H371 C393 0.948 . S
H372 C395 0.951 . S
H373 C360 0.947 . S
H374 C362 0.952 . S
H375 C363 0.950 . S
N376 C379 1.382 . S
N376 C381 1.363 . S
N377 C379 1.371 . S
N377 C380 1.372 . S
N378 C380 1.361 . S
N378 C381 1.377 . S
C379 N376 1.382 . S
C379 N377 1.371 . S
C379 C382 1.480 . S
C380 N377 1.372 . S
C380 N378 1.361 . S
C380 C388 1.457 . S
C381 N376 1.363 . S
C381 N378 1.377 . S
C381 C394 1.479 . S
C382 C379 1.480 . S
C382 C383 1.383 . S
C382 C387 1.385 . S
C383 H364 0.947 . S
C383 C382 1.383 . S
C383 C384 1.388 . S
C384 H365 0.946 . S
C384 C383 1.388 . S
C384 C385 1.384 . S
C385 C384 1.384 . S
C385 C386 1.377 . S
C386 H366 0.953 . S
C386 C385 1.377 . S
C386 C387 1.369 . S
C387 H367 0.945 . S
C387 C382 1.385 . S
C387 C386 1.369 . S
C388 C380 1.457 . S
C388 C389 1.372 . S
C388 C393 1.364 . S
C389 H368 0.952 . S
C389 C388 1.372 . S
C389 C390 1.389 . S
C390 H369 0.949 . S
C390 C389 1.389 . S
C390 C391 1.387 . S
C391 C390 1.387 . S
C391 C392 1.372 . S
C392 H370 0.950 . S
C392 C391 1.372 . S
C392 C393 1.379 . S
C393 H371 0.948 . S
C393 C388 1.364 . S
C393 C392 1.379 . S
C394 C363 1.383 . S
C394 C381 1.479 . S
C394 C395 1.398 . S
C395 C360 1.382 . S
C395 H372 0.951 . S
C395 C394 1.398 . S
C396 C397 1.384 . S
C396 H409 0.947 . S
C396 C431 1.382 . S
C397 C396 1.384 . S
C397 C398 1.378 . S
C398 C397 1.378 . S
C398 C399 1.378 . S
C398 H410 0.952 . S
C399 C398 1.378 . S
C399 H411 0.950 . S
C399 C430 1.383 . S
H400 C419 0.947 . S
H401 C420 0.946 . S
H402 C422 0.953 . S
H403 C423 0.945 . S
H404 C425 0.952 . S
H405 C426 0.949 . S
H406 C428 0.950 . S
H407 C429 0.948 . S
H408 C431 0.951 . S
H409 C396 0.947 . S
H410 C398 0.952 . S
H411 C399 0.950 . S
N412 C415 1.382 . S
N412 C417 1.363 . S
N413 C415 1.371 . S
N413 C416 1.372 . S
N414 C416 1.361 . S
N414 C417 1.377 . S
C415 N412 1.382 . S
C415 N413 1.371 . S
C415 C418 1.480 . S
C416 N413 1.372 . S
C416 N414 1.361 . S
C416 C424 1.457 . S
C417 N412 1.363 . S
C417 N414 1.377 . S
C417 C430 1.479 . S
C418 C415 1.480 . S
C418 C419 1.383 . S
C418 C423 1.385 . S
C419 H400 0.947 . S
C419 C418 1.383 . S
C419 C420 1.388 . S
C420 H401 0.946 . S
C420 C419 1.388 . S
C420 C421 1.384 . S
C421 C420 1.384 . S
C421 C422 1.377 . S
C422 H402 0.953 . S
C422 C421 1.377 . S
C422 C423 1.369 . S
C423 H403 0.945 . S
C423 C418 1.385 . S
C423 C422 1.369 . S
C424 C416 1.457 . S
C424 C425 1.372 . S
C424 C429 1.364 . S
C425 H404 0.952 . S
C425 C424 1.372 . S
C425 C426 1.389 . S
C426 H405 0.949 . S
C426 C425 1.389 . S
C426 C427 1.387 . S
C427 C426 1.387 . S
C427 C428 1.372 . S
C428 H406 0.950 . S
C428 C427 1.372 . S
C428 C429 1.379 . S
C429 H407 0.948 . S
C429 C424 1.364 . S
C429 C428 1.379 . S
C430 C399 1.383 . S
C430 C417 1.479 . S
C430 C431 1.398 . S
C431 C396 1.382 . S
C431 H408 0.951 . S
C431 C430 1.398 . S
C432 C433 1.384 . S
C432 H445 0.947 . S
C432 C467 1.382 . S
C433 C432 1.384 . S
C433 C434 1.378 . S
C434 C433 1.378 . S
C434 C435 1.378 . S
C434 H446 0.952 . S
C435 C434 1.378 . S
C435 H447 0.950 . S
C435 C466 1.383 . S
H436 C455 0.947 . S
H437 C456 0.946 . S
H438 C458 0.953 . S
H439 C459 0.945 . S
H440 C461 0.952 . S
H441 C462 0.949 . S
H442 C464 0.950 . S
H443 C465 0.948 . S
H444 C467 0.951 . S
H445 C432 0.947 . S
H446 C434 0.952 . S
H447 C435 0.950 . S
N448 C451 1.382 . S
N448 C453 1.363 . S
N449 C451 1.371 . S
N449 C452 1.372 . S
N450 C452 1.361 . S
N450 C453 1.377 . S
C451 N448 1.382 . S
C451 N449 1.371 . S
C451 C454 1.480 . S
C452 N449 1.372 . S
C452 N450 1.361 . S
C452 C460 1.457 . S
C453 N448 1.363 . S
C453 N450 1.377 . S
C453 C466 1.479 . S
C454 C451 1.480 . S
C454 C455 1.383 . S
C454 C459 1.385 . S
C455 H436 0.947 . S
C455 C454 1.383 . S
C455 C456 1.388 . S
C456 H437 0.946 . S
C456 C455 1.388 . S
C456 C457 1.384 . S
C457 C456 1.384 . S
C457 C458 1.377 . S
C458 H438 0.953 . S
C458 C457 1.377 . S
C458 C459 1.369 . S
C459 H439 0.945 . S
C459 C454 1.385 . S
C459 C458 1.369 . S
C460 C452 1.457 . S
C460 C461 1.372 . S
C460 C465 1.364 . S
C461 H440 0.952 . S
C461 C460 1.372 . S
C461 C462 1.389 . S
C462 H441 0.949 . S
C462 C461 1.389 . S
C462 C463 1.387 . S
C463 C462 1.387 . S
C463 C464 1.372 . S
C464 H442 0.950 . S
C464 C463 1.372 . S
C464 C465 1.379 . S
C465 H443 0.948 . S
C465 C460 1.364 . S
C465 C464 1.379 . S
C466 C435 1.383 . S
C466 C453 1.479 . S
C466 C467 1.398 . S
C467 C432 1.382 . S
C467 H444 0.951 . S
C467 C466 1.398 . S
C468 C469 1.384 . S
C468 H481 0.947 . S
C468 C503 1.382 . S
C469 C468 1.384 . S
C469 C470 1.378 . S
C470 C469 1.378 . S
C470 C471 1.378 . S
C470 H482 0.952 . S
C471 C470 1.378 . S
C471 H483 0.950 . S
C471 C502 1.383 . S
H472 C491 0.947 . S
H473 C492 0.946 . S
H474 C494 0.953 . S
H475 C495 0.945 . S
H476 C497 0.952 . S
H477 C498 0.949 . S
H478 C500 0.950 . S
H479 C501 0.948 . S
H480 C503 0.951 . S
H481 C468 0.947 . S
H482 C470 0.952 . S
H483 C471 0.950 . S
N484 C487 1.382 . S
N484 C489 1.363 . S
N485 C487 1.371 . S
N485 C488 1.372 . S
N486 C488 1.361 . S
N486 C489 1.377 . S
C487 N484 1.382 . S
C487 N485 1.371 . S
C487 C490 1.480 . S
C488 N485 1.372 . S
C488 N486 1.361 . S
C488 C496 1.457 . S
C489 N484 1.363 . S
C489 N486 1.377 . S
C489 C502 1.479 . S
C490 C487 1.480 . S
C490 C491 1.383 . S
C490 C495 1.385 . S
C491 H472 0.947 . S
C491 C490 1.383 . S
C491 C492 1.388 . S
C492 H473 0.946 . S
C492 C491 1.388 . S
C492 C493 1.384 . S
C493 C492 1.384 . S
C493 C494 1.377 . S
C494 H474 0.953 . S
C494 C493 1.377 . S
C494 C495 1.369 . S
C495 H475 0.945 . S
C495 C490 1.385 . S
C495 C494 1.369 . S
C496 C488 1.457 . S
C496 C497 1.372 . S
C496 C501 1.364 . S
C497 H476 0.952 . S
C497 C496 1.372 . S
C497 C498 1.389 . S
C498 H477 0.949 . S
C498 C497 1.389 . S
C498 C499 1.387 . S
C499 C498 1.387 . S
C499 C500 1.372 . S
C500 H478 0.950 . S
C500 C499 1.372 . S
C500 C501 1.379 . S
C501 H479 0.948 . S
C501 C496 1.364 . S
C501 C500 1.379 . S
C502 C471 1.383 . S
C502 C489 1.479 . S
C502 C503 1.398 . S
C503 C468 1.382 . S
C503 H480 0.951 . S
C503 C502 1.398 . S
C504 C505 1.384 . S
C504 H517 0.947 . S
C504 C539 1.382 . S
C505 C504 1.384 . S
C505 C506 1.378 . S
C506 C505 1.378 . S
C506 C507 1.378 . S
C506 H518 0.952 . S
C507 C506 1.378 . S
C507 H519 0.950 . S
C507 C538 1.383 . S
H508 C527 0.947 . S
H509 C528 0.946 . S
H510 C530 0.953 . S
H511 C531 0.945 . S
H512 C533 0.952 . S
H513 C534 0.949 . S
H514 C536 0.950 . S
H515 C537 0.948 . S
H516 C539 0.951 . S
H517 C504 0.947 . S
H518 C506 0.952 . S
H519 C507 0.950 . S
N520 C523 1.382 . S
N520 C525 1.363 . S
N521 C523 1.371 . S
N521 C524 1.372 . S
N522 C524 1.361 . S
N522 C525 1.377 . S
C523 N520 1.382 . S
C523 N521 1.371 . S
C523 C526 1.480 . S
C524 N521 1.372 . S
C524 N522 1.361 . S
C524 C532 1.457 . S
C525 N520 1.363 . S
C525 N522 1.377 . S
C525 C538 1.479 . S
C526 C523 1.480 . S
C526 C527 1.383 . S
C526 C531 1.385 . S
C527 H508 0.947 . S
C527 C526 1.383 . S
C527 C528 1.388 . S
C528 H509 0.946 . S
C528 C527 1.388 . S
C528 C529 1.384 . S
C529 C528 1.384 . S
C529 C530 1.377 . S
C530 H510 0.953 . S
C530 C529 1.377 . S
C530 C531 1.369 . S
C531 H511 0.945 . S
C531 C526 1.385 . S
C531 C530 1.369 . S
C532 C524 1.457 . S
C532 C533 1.372 . S
C532 C537 1.364 . S
C533 H512 0.952 . S
C533 C532 1.372 . S
C533 C534 1.389 . S
C534 H513 0.949 . S
C534 C533 1.389 . S
C534 C535 1.387 . S
C535 C534 1.387 . S
C535 C536 1.372 . S
C536 H514 0.950 . S
C536 C535 1.372 . S
C536 C537 1.379 . S
C537 H515 0.948 . S
C537 C532 1.364 . S
C537 C536 1.379 . S
C538 C507 1.383 . S
C538 C525 1.479 . S
C538 C539 1.398 . S
C539 C504 1.382 . S
C539 H516 0.951 . S
C539 C538 1.398 . S
C540 C541 1.384 . S
C540 H553 0.947 . S
C540 C575 1.382 . S
C541 C540 1.384 . S
C541 C542 1.378 . S
C542 C541 1.378 . S
C542 C543 1.378 . S
C542 H554 0.952 . S
C543 C542 1.378 . S
C543 H555 0.950 . S
C543 C574 1.383 . S
H544 C563 0.947 . S
H545 C564 0.946 . S
H546 C566 0.953 . S
H547 C567 0.945 . S
H548 C569 0.952 . S
H549 C570 0.949 . S
H550 C572 0.950 . S
H551 C573 0.948 . S
H552 C575 0.951 . S
H553 C540 0.947 . S
H554 C542 0.952 . S
H555 C543 0.950 . S
N556 C559 1.382 . S
N556 C561 1.363 . S
N557 C559 1.371 . S
N557 C560 1.372 . S
N558 C560 1.361 . S
N558 C561 1.377 . S
C559 N556 1.382 . S
C559 N557 1.371 . S
C559 C562 1.480 . S
C560 N557 1.372 . S
C560 N558 1.361 . S
C560 C568 1.457 . S
C561 N556 1.363 . S
C561 N558 1.377 . S
C561 C574 1.479 . S
C562 C559 1.480 . S
C562 C563 1.383 . S
C562 C567 1.385 . S
C563 H544 0.947 . S
C563 C562 1.383 . S
C563 C564 1.388 . S
C564 H545 0.946 . S
C564 C563 1.388 . S
C564 C565 1.384 . S
C565 C564 1.384 . S
C565 C566 1.377 . S
C566 H546 0.953 . S
C566 C565 1.377 . S
C566 C567 1.369 . S
C567 H547 0.945 . S
C567 C562 1.385 . S
C567 C566 1.369 . S
C568 C560 1.457 . S
C568 C569 1.372 . S
C568 C573 1.364 . S
C569 H548 0.952 . S
C569 C568 1.372 . S
C569 C570 1.389 . S
C570 H549 0.949 . S
C570 C569 1.389 . S
C570 C571 1.387 . S
C571 C570 1.387 . S
C571 C572 1.372 . S
C572 H550 0.950 . S
C572 C571 1.372 . S
C572 C573 1.379 . S
C573 H551 0.948 . S
C573 C568 1.364 . S
C573 C572 1.379 . S
C574 C543 1.383 . S
C574 C561 1.479 . S
C574 C575 1.398 . S
C575 C540 1.382 . S
C575 H552 0.951 . S
C575 C574 1.398 . S
C576 C577 1.384 . S
C576 H589 0.947 . S
C576 C611 1.382 . S
C577 C576 1.384 . S
C577 C578 1.378 . S
C578 C577 1.378 . S
C578 C579 1.378 . S
C578 H590 0.952 . S
C579 C578 1.378 . S
C579 H591 0.950 . S
C579 C610 1.383 . S
H580 C599 0.947 . S
H581 C600 0.946 . S
H582 C602 0.953 . S
H583 C603 0.945 . S
H584 C605 0.952 . S
H585 C606 0.949 . S
H586 C608 0.950 . S
H587 C609 0.948 . S
H588 C611 0.951 . S
H589 C576 0.947 . S
H590 C578 0.952 . S
H591 C579 0.950 . S
N592 C595 1.382 . S
N592 C597 1.363 . S
N593 C595 1.371 . S
N593 C596 1.372 . S
N594 C596 1.361 . S
N594 C597 1.377 . S
C595 N592 1.382 . S
C595 N593 1.371 . S
C595 C598 1.480 . S
C596 N593 1.372 . S
C596 N594 1.361 . S
C596 C604 1.457 . S
C597 N592 1.363 . S
C597 N594 1.377 . S
C597 C610 1.479 . S
C598 C595 1.480 . S
C598 C599 1.383 . S
C598 C603 1.385 . S
C599 H580 0.947 . S
C599 C598 1.383 . S
C599 C600 1.388 . S
C600 H581 0.946 . S
C600 C599 1.388 . S
C600 C601 1.384 . S
C601 C600 1.384 . S
C601 C602 1.377 . S
C602 H582 0.953 . S
C602 C601 1.377 . S
C602 C603 1.369 . S
C603 H583 0.945 . S
C603 C598 1.385 . S
C603 C602 1.369 . S
C604 C596 1.457 . S
C604 C605 1.372 . S
C604 C609 1.364 . S
C605 H584 0.952 . S
C605 C604 1.372 . S
C605 C606 1.389 . S
C606 H585 0.949 . S
C606 C605 1.389 . S
C606 C607 1.387 . S
C607 C606 1.387 . S
C607 C608 1.372 . S
C608 H586 0.950 . S
C608 C607 1.372 . S
C608 C609 1.379 . S
C609 H587 0.948 . S
C609 C604 1.364 . S
C609 C608 1.379 . S
C610 C579 1.383 . S
C610 C597 1.479 . S
C610 C611 1.398 . S
C611 C576 1.382 . S
C611 H588 0.951 . S
C611 C610 1.398 . S
C612 C613 1.384 . S
C612 H625 0.947 . S
C612 C647 1.382 . S
C613 C612 1.384 . S
C613 C614 1.378 . S
C614 C613 1.378 . S
C614 C615 1.378 . S
C614 H626 0.952 . S
C615 C614 1.378 . S
C615 H627 0.950 . S
C615 C646 1.383 . S
H616 C635 0.947 . S
H617 C636 0.946 . S
H618 C638 0.953 . S
H619 C639 0.945 . S
H620 C641 0.952 . S
H621 C642 0.949 . S
H622 C644 0.950 . S
H623 C645 0.948 . S
H624 C647 0.951 . S
H625 C612 0.947 . S
H626 C614 0.952 . S
H627 C615 0.950 . S
N628 C631 1.382 . S
N628 C633 1.363 . S
N629 C631 1.371 . S
N629 C632 1.372 . S
N630 C632 1.361 . S
N630 C633 1.377 . S
C631 N628 1.382 . S
C631 N629 1.371 . S
C631 C634 1.480 . S
C632 N629 1.372 . S
C632 N630 1.361 . S
C632 C640 1.457 . S
C633 N628 1.363 . S
C633 N630 1.377 . S
C633 C646 1.479 . S
C634 C631 1.480 . S
C634 C635 1.383 . S
C634 C639 1.385 . S
C635 H616 0.947 . S
C635 C634 1.383 . S
C635 C636 1.388 . S
C636 H617 0.946 . S
C636 C635 1.388 . S
C636 C637 1.384 . S
C637 C636 1.384 . S
C637 C638 1.377 . S
C638 H618 0.953 . S
C638 C637 1.377 . S
C638 C639 1.369 . S
C639 H619 0.945 . S
C639 C634 1.385 . S
C639 C638 1.369 . S
C640 C632 1.457 . S
C640 C641 1.372 . S
C640 C645 1.364 . S
C641 H620 0.952 . S
C641 C640 1.372 . S
C641 C642 1.389 . S
C642 H621 0.949 . S
C642 C641 1.389 . S
C642 C643 1.387 . S
C643 C642 1.387 . S
C643 C644 1.372 . S
C644 H622 0.950 . S
C644 C643 1.372 . S
C644 C645 1.379 . S
C645 H623 0.948 . S
C645 C640 1.364 . S
C645 C644 1.379 . S
C646 C615 1.383 . S
C646 C633 1.479 . S
C646 C647 1.398 . S
C647 C612 1.382 . S
C647 H624 0.951 . S
C647 C646 1.398 . S
Gd648 N679 2.661 . S
Gd648 N685 2.601 . S
Gd648 O692 2.545 . S
Gd648 O693 2.606 1_545 S
Gd648 O695 2.429 . S
Gd648 O696 2.545 1_545 S
Gd648 O697 2.412 . S
Gd648 O699 2.362 1_554 S
Gd648 O700 2.324 1_545 S
Gd648 C707 2.828 . S
Gd649 N658 2.661 . S
Gd649 N662 2.601 . S
Gd649 O693 2.362 1_556 S
Gd649 O694 2.324 1_565 S
Gd649 O698 2.545 . S
Gd649 O699 2.606 1_565 S
Gd649 O701 2.429 . S
Gd649 O702 2.545 1_565 S
Gd649 O703 2.412 . S
Gd649 C716 2.828 . S
C650 C653 1.417 . S
C650 C655 1.431 . S
C650 C656 1.412 . S
C651 C654 1.437 . S
C651 C655 1.317 . S
C651 H670 0.929 . S
C652 C653 1.426 . S
C652 C654 1.413 . S
C652 N662 1.359 . S
C653 C650 1.417 . S
C653 C652 1.426 . S
C653 N658 1.350 . S
C654 C651 1.437 . S
C654 C652 1.413 . S
C654 C664 1.391 . S
C655 C650 1.431 . S
C655 C651 1.317 . S
C655 H666 0.930 . S
C656 C650 1.412 . S
C656 C657 1.355 . S
C656 H668 0.930 . S
C657 C656 1.355 . S
C657 C659 1.402 . S
C657 H669 0.930 . S
N658 Gd649 2.661 . S
N658 C653 1.350 . S
N658 C659 1.307 . S
C659 C657 1.402 . S
C659 N658 1.307 . S
C659 H660 0.930 . S
H660 C659 0.930 . S
C661 N662 1.334 . S
C661 C663 1.394 . S
C661 H665 0.930 . S
N662 Gd649 2.601 . S
N662 C652 1.359 . S
N662 C661 1.334 . S
C663 C661 1.394 . S
C663 C664 1.359 . S
C663 H675 0.930 . S
C664 C654 1.391 . S
C664 C663 1.359 . S
C664 H676 0.929 . S
H665 C661 0.930 . S
H666 C655 0.930 . S
H667 C684 0.930 . S
H668 C656 0.930 . S
H669 C657 0.930 . S
H670 C651 0.929 . S
H671 C689 0.930 . S
H672 C680 0.930 . S
H673 C681 0.930 . S
H674 C705 0.929 . S
H675 C663 0.930 . S
H676 C664 0.929 . S
H677 C706 0.930 . S
H678 C687 0.930 . S
N679 Gd648 2.661 . S
N679 C683 1.350 . S
N679 C684 1.307 . S
C680 H672 0.930 . S
C680 C681 1.355 . S
C680 C682 1.412 . S
C681 H673 0.930 . S
C681 C680 1.355 . S
C681 C684 1.402 . S
C682 C680 1.412 . S
C682 C683 1.417 . S
C682 C706 1.431 . S
C683 N679 1.350 . S
C683 C682 1.417 . S
C683 C686 1.426 . S
C684 H667 0.930 . S
C684 N679 1.307 . S
C684 C681 1.402 . S
N685 Gd648 2.601 . S
N685 C686 1.359 . S
N685 C689 1.334 . S
C686 C683 1.426 . S
C686 N685 1.359 . S
C686 C690 1.413 . S
C687 H678 0.930 . S
C687 C688 1.359 . S
C687 C689 1.394 . S
C688 C687 1.359 . S
C688 C690 1.391 . S
C688 H691 0.929 . S
C689 H671 0.930 . S
C689 N685 1.334 . S
C689 C687 1.394 . S
C690 C686 1.413 . S
C690 C688 1.391 . S
C690 C705 1.437 . S
H691 C688 0.929 . S
O692 Gd648 2.545 . S
O692 C707 1.258 . S
O693 Gd648 2.606 1_565 S
O693 Gd649 2.362 1_554 S
O693 C704 1.284 . S
O694 Gd649 2.324 1_545 S
O694 C714 1.254 . S
O695 Gd648 2.429 . S
O695 C714 1.268 1_554 S
O696 Gd648 2.545 1_565 S
O696 C704 1.250 . S
O697 Gd648 2.412 . S
O697 C707 1.252 . S
O698 Gd649 2.545 . S
O698 C716 1.258 . S
O699 Gd648 2.362 1_556 S
O699 Gd649 2.606 1_545 S
O699 C715 1.284 . S
O700 Gd648 2.324 1_565 S
O700 C723 1.254 . S
O701 Gd649 2.429 . S
O701 C723 1.268 1_556 S
O702 Gd649 2.545 1_545 S
O702 C715 1.250 . S
O703 Gd649 2.412 . S
O703 C716 1.252 . S
C704 O693 1.284 . S
C704 O696 1.250 . S
C705 H674 0.929 . S
C705 C690 1.437 . S
C705 C706 1.317 . S
C706 H677 0.930 . S
C706 C682 1.431 . S
C706 C705 1.317 . S
C707 Gd648 2.828 . S
C707 O692 1.258 . S
C707 O697 1.252 . S
C707 C708 1.497 . S
C708 C707 1.497 . S
C708 C709 1.395 . S
C708 C710 1.380 1_545 S
C709 C708 1.395 . S
C709 C712 1.398 . S
C709 H724 0.930 . S
C710 C708 1.380 1_565 S
C710 C711 1.391 . S
C710 H725 0.930 . S
C711 C710 1.391 . S
C711 C713 1.387 1_565 S
C712 C709 1.398 . S
C712 C713 1.380 . S
C712 H726 0.930 . S
C713 C711 1.387 1_545 S
C713 C712 1.380 . S
C713 H727 0.930 . S
C714 O694 1.254 . S
C714 O695 1.268 1_556 S
C715 O699 1.284 . S
C715 O702 1.250 . S
C716 Gd649 2.828 . S
C716 O698 1.258 . S
C716 O703 1.252 . S
C716 C717 1.497 . S
C717 C716 1.497 . S
C717 C718 1.395 . S
C717 C719 1.380 1_565 S
C718 C717 1.395 . S
C718 C721 1.398 . S
C718 H728 0.930 . S
C719 C717 1.380 1_545 S
C719 C720 1.391 . S
C719 H729 0.930 . S
C720 C719 1.391 . S
C720 C722 1.387 1_545 S
C721 C718 1.398 . S
C721 C722 1.380 . S
C721 H730 0.930 . S
C722 C720 1.387 1_565 S
C722 C721 1.380 . S
C722 H731 0.930 . S
C723 O700 1.254 . S
C723 O701 1.268 1_554 S
H724 C709 0.930 . S
H725 C710 0.930 . S
H726 C712 0.930 . S
H727 C713 0.930 . S
H728 C718 0.930 . S
H729 C719 0.930 . S
H730 C721 0.930 . S
H731 C722 0.930 . S
Gd732 N763 2.661 . S
Gd732 N769 2.601 . S
Gd732 O776 2.545 . S
Gd732 O777 2.606 1_655 S
Gd732 O779 2.429 . S
Gd732 O780 2.545 1_655 S
Gd732 O781 2.412 . S
Gd732 O783 2.362 1_554 S
Gd732 O784 2.324 1_655 S
Gd732 C791 2.828 . S
Gd733 N742 2.661 . S
Gd733 N746 2.601 . S
Gd733 O777 2.362 1_556 S
Gd733 O778 2.324 1_455 S
Gd733 O782 2.545 . S
Gd733 O783 2.606 1_455 S
Gd733 O785 2.429 . S
Gd733 O786 2.545 1_455 S
Gd733 O787 2.412 . S
Gd733 C800 2.828 . S
C734 C737 1.417 . S
C734 C739 1.431 . S
C734 C740 1.412 . S
C735 C738 1.437 . S
C735 C739 1.317 . S
C735 H754 0.929 . S
C736 C737 1.426 . S
C736 C738 1.413 . S
C736 N746 1.359 . S
C737 C734 1.417 . S
C737 C736 1.426 . S
C737 N742 1.350 . S
C738 C735 1.437 . S
C738 C736 1.413 . S
C738 C748 1.391 . S
C739 C734 1.431 . S
C739 C735 1.317 . S
C739 H750 0.930 . S
C740 C734 1.412 . S
C740 C741 1.355 . S
C740 H752 0.930 . S
C741 C740 1.355 . S
C741 C743 1.402 . S
C741 H753 0.930 . S
N742 Gd733 2.661 . S
N742 C737 1.350 . S
N742 C743 1.307 . S
C743 C741 1.402 . S
C743 N742 1.307 . S
C743 H744 0.930 . S
H744 C743 0.930 . S
C745 N746 1.334 . S
C745 C747 1.394 . S
C745 H749 0.930 . S
N746 Gd733 2.601 . S
N746 C736 1.359 . S
N746 C745 1.334 . S
C747 C745 1.394 . S
C747 C748 1.359 . S
C747 H759 0.930 . S
C748 C738 1.391 . S
C748 C747 1.359 . S
C748 H760 0.929 . S
H749 C745 0.930 . S
H750 C739 0.930 . S
H751 C768 0.930 . S
H752 C740 0.930 . S
H753 C741 0.930 . S
H754 C735 0.929 . S
H755 C773 0.930 . S
H756 C764 0.930 . S
H757 C765 0.930 . S
H758 C789 0.929 . S
H759 C747 0.930 . S
H760 C748 0.929 . S
H761 C790 0.930 . S
H762 C771 0.930 . S
N763 Gd732 2.661 . S
N763 C767 1.350 . S
N763 C768 1.307 . S
C764 H756 0.930 . S
C764 C765 1.355 . S
C764 C766 1.412 . S
C765 H757 0.930 . S
C765 C764 1.355 . S
C765 C768 1.402 . S
C766 C764 1.412 . S
C766 C767 1.417 . S
C766 C790 1.431 . S
C767 N763 1.350 . S
C767 C766 1.417 . S
C767 C770 1.426 . S
C768 H751 0.930 . S
C768 N763 1.307 . S
C768 C765 1.402 . S
N769 Gd732 2.601 . S
N769 C770 1.359 . S
N769 C773 1.334 . S
C770 C767 1.426 . S
C770 N769 1.359 . S
C770 C774 1.413 . S
C771 H762 0.930 . S
C771 C772 1.359 . S
C771 C773 1.394 . S
C772 C771 1.359 . S
C772 C774 1.391 . S
C772 H775 0.929 . S
C773 H755 0.930 . S
C773 N769 1.334 . S
C773 C771 1.394 . S
C774 C770 1.413 . S
C774 C772 1.391 . S
C774 C789 1.437 . S
H775 C772 0.929 . S
O776 Gd732 2.545 . S
O776 C791 1.258 . S
O777 Gd732 2.606 1_455 S
O777 Gd733 2.362 1_554 S
O777 C788 1.284 . S
O778 Gd733 2.324 1_655 S
O778 C798 1.254 . S
O779 Gd732 2.429 . S
O779 C798 1.268 1_554 S
O780 Gd732 2.545 1_455 S
O780 C788 1.250 . S
O781 Gd732 2.412 . S
O781 C791 1.252 . S
O782 Gd733 2.545 . S
O782 C800 1.258 . S
O783 Gd732 2.362 1_556 S
O783 Gd733 2.606 1_655 S
O783 C799 1.284 . S
O784 Gd732 2.324 1_455 S
O784 C807 1.254 . S
O785 Gd733 2.429 . S
O785 C807 1.268 1_556 S
O786 Gd733 2.545 1_655 S
O786 C799 1.250 . S
O787 Gd733 2.412 . S
O787 C800 1.252 . S
C788 O777 1.284 . S
C788 O780 1.250 . S
C789 H758 0.929 . S
C789 C774 1.437 . S
C789 C790 1.317 . S
C790 H761 0.930 . S
C790 C766 1.431 . S
C790 C789 1.317 . S
C791 Gd732 2.828 . S
C791 O776 1.258 . S
C791 O781 1.252 . S
C791 C792 1.497 . S
C792 C791 1.497 . S
C792 C793 1.395 . S
C792 C794 1.380 1_655 S
C793 C792 1.395 . S
C793 C796 1.398 . S
C793 H808 0.930 . S
C794 C792 1.380 1_455 S
C794 C795 1.391 . S
C794 H809 0.930 . S
C795 C794 1.391 . S
C795 C797 1.387 1_455 S
C796 C793 1.398 . S
C796 C797 1.380 . S
C796 H810 0.930 . S
C797 C795 1.387 1_655 S
C797 C796 1.380 . S
C797 H811 0.930 . S
C798 O778 1.254 . S
C798 O779 1.268 1_556 S
C799 O783 1.284 . S
C799 O786 1.250 . S
C800 Gd733 2.828 . S
C800 O782 1.258 . S
C800 O787 1.252 . S
C800 C801 1.497 . S
C801 C800 1.497 . S
C801 C802 1.395 . S
C801 C803 1.380 1_455 S
C802 C801 1.395 . S
C802 C805 1.398 . S
C802 H812 0.930 . S
C803 C801 1.380 1_655 S
C803 C804 1.391 . S
C803 H813 0.930 . S
C804 C803 1.391 . S
C804 C806 1.387 1_655 S
C805 C802 1.398 . S
C805 C806 1.380 . S
C805 H814 0.930 . S
C806 C804 1.387 1_455 S
C806 C805 1.380 . S
C806 H815 0.930 . S
C807 O784 1.254 . S
C807 O785 1.268 1_554 S
H808 C793 0.930 . S
H809 C794 0.930 . S
H810 C796 0.930 . S
H811 C797 0.930 . S
H812 C802 0.930 . S
H813 C803 0.930 . S
H814 C805 0.930 . S
H815 C806 0.930 . S
Gd816 N847 2.661 . S
Gd816 N853 2.601 . S
Gd816 O860 2.545 . S
Gd816 O861 2.606 . S
Gd816 O863 2.429 . S
Gd816 O864 2.545 . S
Gd816 O865 2.412 . S
Gd816 O867 2.362 1_556 S
Gd816 O868 2.324 . S
Gd816 C875 2.828 . S
Gd817 N826 2.661 . S
Gd817 N830 2.601 . S
Gd817 O861 2.362 1_554 S
Gd817 O862 2.324 . S
Gd817 O866 2.545 . S
Gd817 O867 2.606 . S
Gd817 O869 2.429 . S
Gd817 O870 2.545 . S
Gd817 O871 2.412 . S
Gd817 C884 2.828 . S
C818 C821 1.417 . S
C818 C823 1.431 . S
C818 C824 1.412 . S
C819 C822 1.437 . S
C819 C823 1.317 . S
C819 H838 0.929 . S
C820 C821 1.426 . S
C820 C822 1.413 . S
C820 N830 1.359 . S
C821 C818 1.417 . S
C821 C820 1.426 . S
C821 N826 1.350 . S
C822 C819 1.437 . S
C822 C820 1.413 . S
C822 C832 1.391 . S
C823 C818 1.431 . S
C823 C819 1.317 . S
C823 H834 0.930 . S
C824 C818 1.412 . S
C824 C825 1.355 . S
C824 H836 0.930 . S
C825 C824 1.355 . S
C825 C827 1.402 . S
C825 H837 0.930 . S
N826 Gd817 2.661 . S
N826 C821 1.350 . S
N826 C827 1.307 . S
C827 C825 1.402 . S
C827 N826 1.307 . S
C827 H828 0.930 . S
H828 C827 0.930 . S
C829 N830 1.334 . S
C829 C831 1.394 . S
C829 H833 0.930 . S
N830 Gd817 2.601 . S
N830 C820 1.359 . S
N830 C829 1.334 . S
C831 C829 1.394 . S
C831 C832 1.359 . S
C831 H843 0.930 . S
C832 C822 1.391 . S
C832 C831 1.359 . S
C832 H844 0.929 . S
H833 C829 0.930 . S
H834 C823 0.930 . S
H835 C852 0.930 . S
H836 C824 0.930 . S
H837 C825 0.930 . S
H838 C819 0.929 . S
H839 C857 0.930 . S
H840 C848 0.930 . S
H841 C849 0.930 . S
H842 C873 0.929 . S
H843 C831 0.930 . S
H844 C832 0.929 . S
H845 C874 0.930 . S
H846 C855 0.930 . S
N847 Gd816 2.661 . S
N847 C851 1.350 . S
N847 C852 1.307 . S
C848 H840 0.930 . S
C848 C849 1.355 . S
C848 C850 1.412 . S
C849 H841 0.930 . S
C849 C848 1.355 . S
C849 C852 1.402 . S
C850 C848 1.412 . S
C850 C851 1.417 . S
C850 C874 1.431 . S
C851 N847 1.350 . S
C851 C850 1.417 . S
C851 C854 1.426 . S
C852 H835 0.930 . S
C852 N847 1.307 . S
C852 C849 1.402 . S
N853 Gd816 2.601 . S
N853 C854 1.359 . S
N853 C857 1.334 . S
C854 C851 1.426 . S
C854 N853 1.359 . S
C854 C858 1.413 . S
C855 H846 0.930 . S
C855 C856 1.359 . S
C855 C857 1.394 . S
C856 C855 1.359 . S
C856 C858 1.391 . S
C856 H859 0.929 . S
C857 H839 0.930 . S
C857 N853 1.334 . S
C857 C855 1.394 . S
C858 C854 1.413 . S
C858 C856 1.391 . S
C858 C873 1.437 . S
H859 C856 0.929 . S
O860 Gd816 2.545 . S
O860 C875 1.258 . S
O861 Gd816 2.606 . S
O861 Gd817 2.362 1_556 S
O861 C872 1.284 . S
O862 Gd817 2.324 . S
O862 C882 1.254 . S
O863 Gd816 2.429 . S
O863 C882 1.268 1_556 S
O864 Gd816 2.545 . S
O864 C872 1.250 . S
O865 Gd816 2.412 . S
O865 C875 1.252 . S
O866 Gd817 2.545 . S
O866 C884 1.258 . S
O867 Gd816 2.362 1_554 S
O867 Gd817 2.606 . S
O867 C883 1.284 . S
O868 Gd816 2.324 . S
O868 C891 1.254 . S
O869 Gd817 2.429 . S
O869 C891 1.268 1_554 S
O870 Gd817 2.545 . S
O870 C883 1.250 . S
O871 Gd817 2.412 . S
O871 C884 1.252 . S
C872 O861 1.284 . S
C872 O864 1.250 . S
C873 H842 0.929 . S
C873 C858 1.437 . S
C873 C874 1.317 . S
C874 H845 0.930 . S
C874 C850 1.431 . S
C874 C873 1.317 . S
C875 Gd816 2.828 . S
C875 O860 1.258 . S
C875 O865 1.252 . S
C875 C876 1.497 . S
C876 C875 1.497 . S
C876 C877 1.395 . S
C876 C878 1.380 . S
C877 C876 1.395 . S
C877 C880 1.398 . S
C877 H892 0.930 . S
C878 C876 1.380 . S
C878 C879 1.391 . S
C878 H893 0.930 . S
C879 C878 1.391 . S
C879 C881 1.387 . S
C880 C877 1.398 . S
C880 C881 1.380 . S
C880 H894 0.930 . S
C881 C879 1.387 . S
C881 C880 1.380 . S
C881 H895 0.930 . S
C882 O862 1.254 . S
C882 O863 1.268 1_554 S
C883 O867 1.284 . S
C883 O870 1.250 . S
C884 Gd817 2.828 . S
C884 O866 1.258 . S
C884 O871 1.252 . S
C884 C885 1.497 . S
C885 C884 1.497 . S
C885 C886 1.395 . S
C885 C887 1.380 . S
C886 C885 1.395 . S
C886 C889 1.398 . S
C886 H896 0.930 . S
C887 C885 1.380 . S
C887 C888 1.391 . S
C887 H897 0.930 . S
C888 C887 1.391 . S
C888 C890 1.387 . S
C889 C886 1.398 . S
C889 C890 1.380 . S
C889 H898 0.930 . S
C890 C888 1.387 . S
C890 C889 1.380 . S
C890 H899 0.930 . S
C891 O868 1.254 . S
C891 O869 1.268 1_556 S
H892 C877 0.930 . S
H893 C878 0.930 . S
H894 C880 0.930 . S
H895 C881 0.930 . S
H896 C886 0.930 . S
H897 C887 0.930 . S
H898 C889 0.930 . S
H899 C890 0.930 . S
Gd900 N931 2.661 . S
Gd900 N937 2.601 . S
Gd900 O944 2.545 . S
Gd900 O945 2.606 . S
Gd900 O947 2.429 . S
Gd900 O948 2.545 . S
Gd900 O949 2.412 . S
Gd900 O951 2.362 . S
Gd900 O952 2.324 . S
Gd900 C959 2.828 . S
Gd901 N910 2.661 . S
Gd901 N914 2.601 . S
Gd901 O945 2.362 . S
Gd901 O946 2.324 . S
Gd901 O950 2.545 . S
Gd901 O951 2.606 . S
Gd901 O953 2.429 . S
Gd901 O954 2.545 . S
Gd901 O955 2.412 . S
Gd901 C968 2.828 . S
C902 C905 1.417 . S
C902 C907 1.431 . S
C902 C908 1.412 . S
C903 C906 1.437 . S
C903 C907 1.317 . S
C903 H922 0.929 . S
C904 C905 1.426 . S
C904 C906 1.413 . S
C904 N914 1.359 . S
C905 C902 1.417 . S
C905 C904 1.426 . S
C905 N910 1.350 . S
C906 C903 1.437 . S
C906 C904 1.413 . S
C906 C916 1.391 . S
C907 C902 1.431 . S
C907 C903 1.317 . S
C907 H918 0.930 . S
C908 C902 1.412 . S
C908 C909 1.355 . S
C908 H920 0.930 . S
C909 C908 1.355 . S
C909 C911 1.402 . S
C909 H921 0.930 . S
N910 Gd901 2.661 . S
N910 C905 1.350 . S
N910 C911 1.307 . S
C911 C909 1.402 . S
C911 N910 1.307 . S
C911 H912 0.930 . S
H912 C911 0.930 . S
C913 N914 1.334 . S
C913 C915 1.394 . S
C913 H917 0.930 . S
N914 Gd901 2.601 . S
N914 C904 1.359 . S
N914 C913 1.334 . S
C915 C913 1.394 . S
C915 C916 1.359 . S
C915 H927 0.930 . S
C916 C906 1.391 . S
C916 C915 1.359 . S
C916 H928 0.929 . S
H917 C913 0.930 . S
H918 C907 0.930 . S
H919 C936 0.930 . S
H920 C908 0.930 . S
H921 C909 0.930 . S
H922 C903 0.929 . S
H923 C941 0.930 . S
H924 C932 0.930 . S
H925 C933 0.930 . S
H926 C957 0.929 . S
H927 C915 0.930 . S
H928 C916 0.929 . S
H929 C958 0.930 . S
H930 C939 0.930 . S
N931 Gd900 2.661 . S
N931 C935 1.350 . S
N931 C936 1.307 . S
C932 H924 0.930 . S
C932 C933 1.355 . S
C932 C934 1.412 . S
C933 H925 0.930 . S
C933 C932 1.355 . S
C933 C936 1.402 . S
C934 C932 1.412 . S
C934 C935 1.417 . S
C934 C958 1.431 . S
C935 N931 1.350 . S
C935 C934 1.417 . S
C935 C938 1.426 . S
C936 H919 0.930 . S
C936 N931 1.307 . S
C936 C933 1.402 . S
N937 Gd900 2.601 . S
N937 C938 1.359 . S
N937 C941 1.334 . S
C938 C935 1.426 . S
C938 N937 1.359 . S
C938 C942 1.413 . S
C939 H930 0.930 . S
C939 C940 1.359 . S
C939 C941 1.394 . S
C940 C939 1.359 . S
C940 C942 1.391 . S
C940 H943 0.929 . S
C941 H923 0.930 . S
C941 N937 1.334 . S
C941 C939 1.394 . S
C942 C938 1.413 . S
C942 C940 1.391 . S
C942 C957 1.437 . S
H943 C940 0.929 . S
O944 Gd900 2.545 . S
O944 C959 1.258 . S
O945 Gd900 2.606 . S
O945 Gd901 2.362 . S
O945 C956 1.284 . S
O946 Gd901 2.324 . S
O946 C966 1.254 . S
O947 Gd900 2.429 . S
O947 C966 1.268 . S
O948 Gd900 2.545 . S
O948 C956 1.250 . S
O949 Gd900 2.412 . S
O949 C959 1.252 . S
O950 Gd901 2.545 . S
O950 C968 1.258 . S
O951 Gd900 2.362 . S
O951 Gd901 2.606 . S
O951 C967 1.284 . S
O952 Gd900 2.324 . S
O952 C975 1.254 . S
O953 Gd901 2.429 . S
O953 C975 1.268 . S
O954 Gd901 2.545 . S
O954 C967 1.250 . S
O955 Gd901 2.412 . S
O955 C968 1.252 . S
C956 O945 1.284 . S
C956 O948 1.250 . S
C957 H926 0.929 . S
C957 C942 1.437 . S
C957 C958 1.317 . S
C958 H929 0.930 . S
C958 C934 1.431 . S
C958 C957 1.317 . S
C959 Gd900 2.828 . S
C959 O944 1.258 . S
C959 O949 1.252 . S
C959 C960 1.497 . S
C960 C959 1.497 . S
C960 C961 1.395 . S
C960 C962 1.380 . S
C961 C960 1.395 . S
C961 C964 1.398 . S
C961 H976 0.930 . S
C962 C960 1.380 . S
C962 C963 1.391 . S
C962 H977 0.930 . S
C963 C962 1.391 . S
C963 C965 1.387 . S
C964 C961 1.398 . S
C964 C965 1.380 . S
C964 H978 0.930 . S
C965 C963 1.387 . S
C965 C964 1.380 . S
C965 H979 0.930 . S
C966 O946 1.254 . S
C966 O947 1.268 . S
C967 O951 1.284 . S
C967 O954 1.250 . S
C968 Gd901 2.828 . S
C968 O950 1.258 . S
C968 O955 1.252 . S
C968 C969 1.497 . S
C969 C968 1.497 . S
C969 C970 1.395 . S
C969 C971 1.380 . S
C970 C969 1.395 . S
C970 C973 1.398 . S
C970 H980 0.930 . S
C971 C969 1.380 . S
C971 C972 1.391 . S
C971 H981 0.930 . S
C972 C971 1.391 . S
C972 C974 1.387 . S
C973 C970 1.398 . S
C973 C974 1.380 . S
C973 H982 0.930 . S
C974 C972 1.387 . S
C974 C973 1.380 . S
C974 H983 0.930 . S
C975 O952 1.254 . S
C975 O953 1.268 . S
H976 C961 0.930 . S
H977 C962 0.930 . S
H978 C964 0.930 . S
H979 C965 0.930 . S
H980 C970 0.930 . S
H981 C971 0.930 . S
H982 C973 0.930 . S
H983 C974 0.930 . S
Gd984 N1015 2.661 . S
Gd984 N1021 2.601 . S
Gd984 O1028 2.545 . S
Gd984 O1029 2.606 . S
Gd984 O1031 2.429 . S
Gd984 O1032 2.545 . S
Gd984 O1033 2.412 . S
Gd984 O1035 2.362 . S
Gd984 O1036 2.324 . S
Gd984 C1043 2.828 . S
Gd985 N994 2.661 . S
Gd985 N998 2.601 . S
Gd985 O1029 2.362 . S
Gd985 O1030 2.324 . S
Gd985 O1034 2.545 . S
Gd985 O1035 2.606 . S
Gd985 O1037 2.429 . S
Gd985 O1038 2.545 . S
Gd985 O1039 2.412 . S
Gd985 C1052 2.828 . S
C986 C989 1.417 . S
C986 C991 1.431 . S
C986 C992 1.412 . S
C987 C990 1.437 . S
C987 C991 1.317 . S
C987 H1006 0.929 . S
C988 C989 1.426 . S
C988 C990 1.413 . S
C988 N998 1.359 . S
C989 C986 1.417 . S
C989 C988 1.426 . S
C989 N994 1.350 . S
C990 C987 1.437 . S
C990 C988 1.413 . S
C990 C1000 1.391 . S
C991 C986 1.431 . S
C991 C987 1.317 . S
C991 H1002 0.930 . S
C992 C986 1.412 . S
C992 C993 1.355 . S
C992 H1004 0.930 . S
C993 C992 1.355 . S
C993 C995 1.402 . S
C993 H1005 0.930 . S
N994 Gd985 2.661 . S
N994 C989 1.350 . S
N994 C995 1.307 . S
C995 C993 1.402 . S
C995 N994 1.307 . S
C995 H996 0.930 . S
H996 C995 0.930 . S
C997 N998 1.334 . S
C997 C999 1.394 . S
C997 H1001 0.930 . S
N998 Gd985 2.601 . S
N998 C988 1.359 . S
N998 C997 1.334 . S
C999 C997 1.394 . S
C999 C1000 1.359 . S
C999 H1011 0.930 . S
C1000 C990 1.391 . S
C1000 C999 1.359 . S
C1000 H1012 0.929 . S
H1001 C997 0.930 . S
H1002 C991 0.930 . S
H1003 C1020 0.930 . S
H1004 C992 0.930 . S
H1005 C993 0.930 . S
H1006 C987 0.929 . S
H1007 C1025 0.930 . S
H1008 C1016 0.930 . S
H1009 C1017 0.930 . S
H1010 C1041 0.929 . S
H1011 C999 0.930 . S
H1012 C1000 0.929 . S
H1013 C1042 0.930 . S
H1014 C1023 0.930 . S
N1015 Gd984 2.661 . S
N1015 C1019 1.350 . S
N1015 C1020 1.307 . S
C1016 H1008 0.930 . S
C1016 C1017 1.355 . S
C1016 C1018 1.412 . S
C1017 H1009 0.930 . S
C1017 C1016 1.355 . S
C1017 C1020 1.402 . S
C1018 C1016 1.412 . S
C1018 C1019 1.417 . S
C1018 C1042 1.431 . S
C1019 N1015 1.350 . S
C1019 C1018 1.417 . S
C1019 C1022 1.426 . S
C1020 H1003 0.930 . S
C1020 N1015 1.307 . S
C1020 C1017 1.402 . S
N1021 Gd984 2.601 . S
N1021 C1022 1.359 . S
N1021 C1025 1.334 . S
C1022 C1019 1.426 . S
C1022 N1021 1.359 . S
C1022 C1026 1.413 . S
C1023 H1014 0.930 . S
C1023 C1024 1.359 . S
C1023 C1025 1.394 . S
C1024 C1023 1.359 . S
C1024 C1026 1.391 . S
C1024 H1027 0.929 . S
C1025 H1007 0.930 . S
C1025 N1021 1.334 . S
C1025 C1023 1.394 . S
C1026 C1022 1.413 . S
C1026 C1024 1.391 . S
C1026 C1041 1.437 . S
H1027 C1024 0.929 . S
O1028 Gd984 2.545 . S
O1028 C1043 1.258 . S
O1029 Gd984 2.606 . S
O1029 Gd985 2.362 . S
O1029 C1040 1.284 . S
O1030 Gd985 2.324 . S
O1030 C1050 1.254 . S
O1031 Gd984 2.429 . S
O1031 C1050 1.268 . S
O1032 Gd984 2.545 . S
O1032 C1040 1.250 . S
O1033 Gd984 2.412 . S
O1033 C1043 1.252 . S
O1034 Gd985 2.545 . S
O1034 C1052 1.258 . S
O1035 Gd984 2.362 . S
O1035 Gd985 2.606 . S
O1035 C1051 1.284 . S
O1036 Gd984 2.324 . S
O1036 C1059 1.254 . S
O1037 Gd985 2.429 . S
O1037 C1059 1.268 . S
O1038 Gd985 2.545 . S
O1038 C1051 1.250 . S
O1039 Gd985 2.412 . S
O1039 C1052 1.252 . S
C1040 O1029 1.284 . S
C1040 O1032 1.250 . S
C1041 H1010 0.929 . S
C1041 C1026 1.437 . S
C1041 C1042 1.317 . S
C1042 H1013 0.930 . S
C1042 C1018 1.431 . S
C1042 C1041 1.317 . S
C1043 Gd984 2.828 . S
C1043 O1028 1.258 . S
C1043 O1033 1.252 . S
C1043 C1044 1.497 . S
C1044 C1043 1.497 . S
C1044 C1045 1.395 . S
C1044 C1046 1.380 . S
C1045 C1044 1.395 . S
C1045 C1048 1.398 . S
C1045 H1060 0.930 . S
C1046 C1044 1.380 . S
C1046 C1047 1.391 . S
C1046 H1061 0.930 . S
C1047 C1046 1.391 . S
C1047 C1049 1.387 . S
C1048 C1045 1.398 . S
C1048 C1049 1.380 . S
C1048 H1062 0.930 . S
C1049 C1047 1.387 . S
C1049 C1048 1.380 . S
C1049 H1063 0.930 . S
C1050 O1030 1.254 . S
C1050 O1031 1.268 . S
C1051 O1035 1.284 . S
C1051 O1038 1.250 . S
C1052 Gd985 2.828 . S
C1052 O1034 1.258 . S
C1052 O1039 1.252 . S
C1052 C1053 1.497 . S
C1053 C1052 1.497 . S
C1053 C1054 1.395 . S
C1053 C1055 1.380 . S
C1054 C1053 1.395 . S
C1054 C1057 1.398 . S
C1054 H1064 0.930 . S
C1055 C1053 1.380 . S
C1055 C1056 1.391 . S
C1055 H1065 0.930 . S
C1056 C1055 1.391 . S
C1056 C1058 1.387 . S
C1057 C1054 1.398 . S
C1057 C1058 1.380 . S
C1057 H1066 0.930 . S
C1058 C1056 1.387 . S
C1058 C1057 1.380 . S
C1058 H1067 0.930 . S
C1059 O1036 1.254 . S
C1059 O1037 1.268 . S
H1060 C1045 0.930 . S
H1061 C1046 0.930 . S
H1062 C1048 0.930 . S
H1063 C1049 0.930 . S
H1064 C1054 0.930 . S
H1065 C1055 0.930 . S
H1066 C1057 0.930 . S
H1067 C1058 0.930 . S
Gd1068 N1099 2.661 . S
Gd1068 N1105 2.601 . S
Gd1068 O1112 2.545 . S
Gd1068 O1113 2.606 . S
Gd1068 O1115 2.429 . S
Gd1068 O1116 2.545 . S
Gd1068 O1117 2.412 . S
Gd1068 O1119 2.362 . S
Gd1068 O1120 2.324 . S
Gd1068 C1127 2.828 . S
Gd1069 N1078 2.661 . S
Gd1069 N1082 2.601 . S
Gd1069 O1113 2.362 . S
Gd1069 O1114 2.324 . S
Gd1069 O1118 2.545 . S
Gd1069 O1119 2.606 . S
Gd1069 O1121 2.429 . S
Gd1069 O1122 2.545 . S
Gd1069 O1123 2.412 . S
Gd1069 C1136 2.828 . S
C1070 C1073 1.417 . S
C1070 C1075 1.431 . S
C1070 C1076 1.412 . S
C1071 C1074 1.437 . S
C1071 C1075 1.317 . S
C1071 H1090 0.929 . S
C1072 C1073 1.426 . S
C1072 C1074 1.413 . S
C1072 N1082 1.359 . S
C1073 C1070 1.417 . S
C1073 C1072 1.426 . S
C1073 N1078 1.350 . S
C1074 C1071 1.437 . S
C1074 C1072 1.413 . S
C1074 C1084 1.391 . S
C1075 C1070 1.431 . S
C1075 C1071 1.317 . S
C1075 H1086 0.930 . S
C1076 C1070 1.412 . S
C1076 C1077 1.355 . S
C1076 H1088 0.930 . S
C1077 C1076 1.355 . S
C1077 C1079 1.402 . S
C1077 H1089 0.930 . S
N1078 Gd1069 2.661 . S
N1078 C1073 1.350 . S
N1078 C1079 1.307 . S
C1079 C1077 1.402 . S
C1079 N1078 1.307 . S
C1079 H1080 0.930 . S
H1080 C1079 0.930 . S
C1081 N1082 1.334 . S
C1081 C1083 1.394 . S
C1081 H1085 0.930 . S
N1082 Gd1069 2.601 . S
N1082 C1072 1.359 . S
N1082 C1081 1.334 . S
C1083 C1081 1.394 . S
C1083 C1084 1.359 . S
C1083 H1095 0.930 . S
C1084 C1074 1.391 . S
C1084 C1083 1.359 . S
C1084 H1096 0.929 . S
H1085 C1081 0.930 . S
H1086 C1075 0.930 . S
H1087 C1104 0.930 . S
H1088 C1076 0.930 . S
H1089 C1077 0.930 . S
H1090 C1071 0.929 . S
H1091 C1109 0.930 . S
H1092 C1100 0.930 . S
H1093 C1101 0.930 . S
H1094 C1125 0.929 . S
H1095 C1083 0.930 . S
H1096 C1084 0.929 . S
H1097 C1126 0.930 . S
H1098 C1107 0.930 . S
N1099 Gd1068 2.661 . S
N1099 C1103 1.350 . S
N1099 C1104 1.307 . S
C1100 H1092 0.930 . S
C1100 C1101 1.355 . S
C1100 C1102 1.412 . S
C1101 H1093 0.930 . S
C1101 C1100 1.355 . S
C1101 C1104 1.402 . S
C1102 C1100 1.412 . S
C1102 C1103 1.417 . S
C1102 C1126 1.431 . S
C1103 N1099 1.350 . S
C1103 C1102 1.417 . S
C1103 C1106 1.426 . S
C1104 H1087 0.930 . S
C1104 N1099 1.307 . S
C1104 C1101 1.402 . S
N1105 Gd1068 2.601 . S
N1105 C1106 1.359 . S
N1105 C1109 1.334 . S
C1106 C1103 1.426 . S
C1106 N1105 1.359 . S
C1106 C1110 1.413 . S
C1107 H1098 0.930 . S
C1107 C1108 1.359 . S
C1107 C1109 1.394 . S
C1108 C1107 1.359 . S
C1108 C1110 1.391 . S
C1108 H1111 0.929 . S
C1109 H1091 0.930 . S
C1109 N1105 1.334 . S
C1109 C1107 1.394 . S
C1110 C1106 1.413 . S
C1110 C1108 1.391 . S
C1110 C1125 1.437 . S
H1111 C1108 0.929 . S
O1112 Gd1068 2.545 . S
O1112 C1127 1.258 . S
O1113 Gd1068 2.606 . S
O1113 Gd1069 2.362 . S
O1113 C1124 1.284 . S
O1114 Gd1069 2.324 . S
O1114 C1134 1.254 . S
O1115 Gd1068 2.429 . S
O1115 C1134 1.268 . S
O1116 Gd1068 2.545 . S
O1116 C1124 1.250 . S
O1117 Gd1068 2.412 . S
O1117 C1127 1.252 . S
O1118 Gd1069 2.545 . S
O1118 C1136 1.258 . S
O1119 Gd1068 2.362 . S
O1119 Gd1069 2.606 . S
O1119 C1135 1.284 . S
O1120 Gd1068 2.324 . S
O1120 C1143 1.254 . S
O1121 Gd1069 2.429 . S
O1121 C1143 1.268 . S
O1122 Gd1069 2.545 . S
O1122 C1135 1.250 . S
O1123 Gd1069 2.412 . S
O1123 C1136 1.252 . S
C1124 O1113 1.284 . S
C1124 O1116 1.250 . S
C1125 H1094 0.929 . S
C1125 C1110 1.437 . S
C1125 C1126 1.317 . S
C1126 H1097 0.930 . S
C1126 C1102 1.431 . S
C1126 C1125 1.317 . S
C1127 Gd1068 2.828 . S
C1127 O1112 1.258 . S
C1127 O1117 1.252 . S
C1127 C1128 1.497 . S
C1128 C1127 1.497 . S
C1128 C1129 1.395 . S
C1128 C1130 1.380 . S
C1129 C1128 1.395 . S
C1129 C1132 1.398 . S
C1129 H1144 0.930 . S
C1130 C1128 1.380 . S
C1130 C1131 1.391 . S
C1130 H1145 0.930 . S
C1131 C1130 1.391 . S
C1131 C1133 1.387 . S
C1132 C1129 1.398 . S
C1132 C1133 1.380 . S
C1132 H1146 0.930 . S
C1133 C1131 1.387 . S
C1133 C1132 1.380 . S
C1133 H1147 0.930 . S
C1134 O1114 1.254 . S
C1134 O1115 1.268 . S
C1135 O1119 1.284 . S
C1135 O1122 1.250 . S
C1136 Gd1069 2.828 . S
C1136 O1118 1.258 . S
C1136 O1123 1.252 . S
C1136 C1137 1.497 . S
C1137 C1136 1.497 . S
C1137 C1138 1.395 . S
C1137 C1139 1.380 . S
C1138 C1137 1.395 . S
C1138 C1141 1.398 . S
C1138 H1148 0.930 . S
C1139 C1137 1.380 . S
C1139 C1140 1.391 . S
C1139 H1149 0.930 . S
C1140 C1139 1.391 . S
C1140 C1142 1.387 . S
C1141 C1138 1.398 . S
C1141 C1142 1.380 . S
C1141 H1150 0.930 . S
C1142 C1140 1.387 . S
C1142 C1141 1.380 . S
C1142 H1151 0.930 . S
C1143 O1120 1.254 . S
C1143 O1121 1.268 . S
H1144 C1129 0.930 . S
H1145 C1130 0.930 . S
H1146 C1132 0.930 . S
H1147 C1133 0.930 . S
H1148 C1138 0.930 . S
H1149 C1139 0.930 . S
H1150 C1141 0.930 . S
H1151 C1142 0.930 . S
Gd1152 N1183 2.661 . S
Gd1152 N1189 2.601 . S
Gd1152 O1196 2.545 . S
Gd1152 O1197 2.606 . S
Gd1152 O1199 2.429 . S
Gd1152 O1200 2.545 . S
Gd1152 O1201 2.412 . S
Gd1152 O1203 2.362 . S
Gd1152 O1204 2.324 . S
Gd1152 C1211 2.828 . S
Gd1153 N1162 2.661 . S
Gd1153 N1166 2.601 . S
Gd1153 O1197 2.362 . S
Gd1153 O1198 2.324 . S
Gd1153 O1202 2.545 . S
Gd1153 O1203 2.606 . S
Gd1153 O1205 2.429 . S
Gd1153 O1206 2.545 . S
Gd1153 O1207 2.412 . S
Gd1153 C1220 2.828 . S
C1154 C1157 1.417 . S
C1154 C1159 1.431 . S
C1154 C1160 1.412 . S
C1155 C1158 1.437 . S
C1155 C1159 1.317 . S
C1155 H1174 0.929 . S
C1156 C1157 1.426 . S
C1156 C1158 1.413 . S
C1156 N1166 1.359 . S
C1157 C1154 1.417 . S
C1157 C1156 1.426 . S
C1157 N1162 1.350 . S
C1158 C1155 1.437 . S
C1158 C1156 1.413 . S
C1158 C1168 1.391 . S
C1159 C1154 1.431 . S
C1159 C1155 1.317 . S
C1159 H1170 0.930 . S
C1160 C1154 1.412 . S
C1160 C1161 1.355 . S
C1160 H1172 0.930 . S
C1161 C1160 1.355 . S
C1161 C1163 1.402 . S
C1161 H1173 0.930 . S
N1162 Gd1153 2.661 . S
N1162 C1157 1.350 . S
N1162 C1163 1.307 . S
C1163 C1161 1.402 . S
C1163 N1162 1.307 . S
C1163 H1164 0.930 . S
H1164 C1163 0.930 . S
C1165 N1166 1.334 . S
C1165 C1167 1.394 . S
C1165 H1169 0.930 . S
N1166 Gd1153 2.601 . S
N1166 C1156 1.359 . S
N1166 C1165 1.334 . S
C1167 C1165 1.394 . S
C1167 C1168 1.359 . S
C1167 H1179 0.930 . S
C1168 C1158 1.391 . S
C1168 C1167 1.359 . S
C1168 H1180 0.929 . S
H1169 C1165 0.930 . S
H1170 C1159 0.930 . S
H1171 C1188 0.930 . S
H1172 C1160 0.930 . S
H1173 C1161 0.930 . S
H1174 C1155 0.929 . S
H1175 C1193 0.930 . S
H1176 C1184 0.930 . S
H1177 C1185 0.930 . S
H1178 C1209 0.929 . S
H1179 C1167 0.930 . S
H1180 C1168 0.929 . S
H1181 C1210 0.930 . S
H1182 C1191 0.930 . S
N1183 Gd1152 2.661 . S
N1183 C1187 1.350 . S
N1183 C1188 1.307 . S
C1184 H1176 0.930 . S
C1184 C1185 1.355 . S
C1184 C1186 1.412 . S
C1185 H1177 0.930 . S
C1185 C1184 1.355 . S
C1185 C1188 1.402 . S
C1186 C1184 1.412 . S
C1186 C1187 1.417 . S
C1186 C1210 1.431 . S
C1187 N1183 1.350 . S
C1187 C1186 1.417 . S
C1187 C1190 1.426 . S
C1188 H1171 0.930 . S
C1188 N1183 1.307 . S
C1188 C1185 1.402 . S
N1189 Gd1152 2.601 . S
N1189 C1190 1.359 . S
N1189 C1193 1.334 . S
C1190 C1187 1.426 . S
C1190 N1189 1.359 . S
C1190 C1194 1.413 . S
C1191 H1182 0.930 . S
C1191 C1192 1.359 . S
C1191 C1193 1.394 . S
C1192 C1191 1.359 . S
C1192 C1194 1.391 . S
C1192 H1195 0.929 . S
C1193 H1175 0.930 . S
C1193 N1189 1.334 . S
C1193 C1191 1.394 . S
C1194 C1190 1.413 . S
C1194 C1192 1.391 . S
C1194 C1209 1.437 . S
H1195 C1192 0.929 . S
O1196 Gd1152 2.545 . S
O1196 C1211 1.258 . S
O1197 Gd1152 2.606 . S
O1197 Gd1153 2.362 . S
O1197 C1208 1.284 . S
O1198 Gd1153 2.324 . S
O1198 C1218 1.254 . S
O1199 Gd1152 2.429 . S
O1199 C1218 1.268 . S
O1200 Gd1152 2.545 . S
O1200 C1208 1.250 . S
O1201 Gd1152 2.412 . S
O1201 C1211 1.252 . S
O1202 Gd1153 2.545 . S
O1202 C1220 1.258 . S
O1203 Gd1152 2.362 . S
O1203 Gd1153 2.606 . S
O1203 C1219 1.284 . S
O1204 Gd1152 2.324 . S
O1204 C1227 1.254 . S
O1205 Gd1153 2.429 . S
O1205 C1227 1.268 . S
O1206 Gd1153 2.545 . S
O1206 C1219 1.250 . S
O1207 Gd1153 2.412 . S
O1207 C1220 1.252 . S
C1208 O1197 1.284 . S
C1208 O1200 1.250 . S
C1209 H1178 0.929 . S
C1209 C1194 1.437 . S
C1209 C1210 1.317 . S
C1210 H1181 0.930 . S
C1210 C1186 1.431 . S
C1210 C1209 1.317 . S
C1211 Gd1152 2.828 . S
C1211 O1196 1.258 . S
C1211 O1201 1.252 . S
C1211 C1212 1.497 . S
C1212 C1211 1.497 . S
C1212 C1213 1.395 . S
C1212 C1214 1.380 . S
C1213 C1212 1.395 . S
C1213 C1216 1.398 . S
C1213 H1228 0.930 . S
C1214 C1212 1.380 . S
C1214 C1215 1.391 . S
C1214 H1229 0.930 . S
C1215 C1214 1.391 . S
C1215 C1217 1.387 . S
C1216 C1213 1.398 . S
C1216 C1217 1.380 . S
C1216 H1230 0.930 . S
C1217 C1215 1.387 . S
C1217 C1216 1.380 . S
C1217 H1231 0.930 . S
C1218 O1198 1.254 . S
C1218 O1199 1.268 . S
C1219 O1203 1.284 . S
C1219 O1206 1.250 . S
C1220 Gd1153 2.828 . S
C1220 O1202 1.258 . S
C1220 O1207 1.252 . S
C1220 C1221 1.497 . S
C1221 C1220 1.497 . S
C1221 C1222 1.395 . S
C1221 C1223 1.380 . S
C1222 C1221 1.395 . S
C1222 C1225 1.398 . S
C1222 H1232 0.930 . S
C1223 C1221 1.380 . S
C1223 C1224 1.391 . S
C1223 H1233 0.930 . S
C1224 C1223 1.391 . S
C1224 C1226 1.387 . S
C1225 C1222 1.398 . S
C1225 C1226 1.380 . S
C1225 H1234 0.930 . S
C1226 C1224 1.387 . S
C1226 C1225 1.380 . S
C1226 H1235 0.930 . S
C1227 O1204 1.254 . S
C1227 O1205 1.268 . S
H1228 C1213 0.930 . S
H1229 C1214 0.930 . S
H1230 C1216 0.930 . S
H1231 C1217 0.930 . S
H1232 C1222 0.930 . S
H1233 C1223 0.930 . S
H1234 C1225 0.930 . S
H1235 C1226 0.930 . S
Gd1236 N1267 2.661 . S
Gd1236 N1273 2.601 . S
Gd1236 O1280 2.545 . S
Gd1236 O1281 2.606 . S
Gd1236 O1283 2.429 . S
Gd1236 O1284 2.545 . S
Gd1236 O1285 2.412 . S
Gd1236 O1287 2.362 . S
Gd1236 O1288 2.324 . S
Gd1236 C1295 2.828 . S
Gd1237 N1246 2.661 . S
Gd1237 N1250 2.601 . S
Gd1237 O1281 2.362 . S
Gd1237 O1282 2.324 . S
Gd1237 O1286 2.545 . S
Gd1237 O1287 2.606 . S
Gd1237 O1289 2.429 . S
Gd1237 O1290 2.545 . S
Gd1237 O1291 2.412 . S
Gd1237 C1304 2.828 . S
C1238 C1241 1.417 . S
C1238 C1243 1.431 . S
C1238 C1244 1.412 . S
C1239 C1242 1.437 . S
C1239 C1243 1.317 . S
C1239 H1258 0.929 . S
C1240 C1241 1.426 . S
C1240 C1242 1.413 . S
C1240 N1250 1.359 . S
C1241 C1238 1.417 . S
C1241 C1240 1.426 . S
C1241 N1246 1.350 . S
C1242 C1239 1.437 . S
C1242 C1240 1.413 . S
C1242 C1252 1.391 . S
C1243 C1238 1.431 . S
C1243 C1239 1.317 . S
C1243 H1254 0.930 . S
C1244 C1238 1.412 . S
C1244 C1245 1.355 . S
C1244 H1256 0.930 . S
C1245 C1244 1.355 . S
C1245 C1247 1.402 . S
C1245 H1257 0.930 . S
N1246 Gd1237 2.661 . S
N1246 C1241 1.350 . S
N1246 C1247 1.307 . S
C1247 C1245 1.402 . S
C1247 N1246 1.307 . S
C1247 H1248 0.930 . S
H1248 C1247 0.930 . S
C1249 N1250 1.334 . S
C1249 C1251 1.394 . S
C1249 H1253 0.930 . S
N1250 Gd1237 2.601 . S
N1250 C1240 1.359 . S
N1250 C1249 1.334 . S
C1251 C1249 1.394 . S
C1251 C1252 1.359 . S
C1251 H1263 0.930 . S
C1252 C1242 1.391 . S
C1252 C1251 1.359 . S
C1252 H1264 0.929 . S
H1253 C1249 0.930 . S
H1254 C1243 0.930 . S
H1255 C1272 0.930 . S
H1256 C1244 0.930 . S
H1257 C1245 0.930 . S
H1258 C1239 0.929 . S
H1259 C1277 0.930 . S
H1260 C1268 0.930 . S
H1261 C1269 0.930 . S
H1262 C1293 0.929 . S
H1263 C1251 0.930 . S
H1264 C1252 0.929 . S
H1265 C1294 0.930 . S
H1266 C1275 0.930 . S
N1267 Gd1236 2.661 . S
N1267 C1271 1.350 . S
N1267 C1272 1.307 . S
C1268 H1260 0.930 . S
C1268 C1269 1.355 . S
C1268 C1270 1.412 . S
C1269 H1261 0.930 . S
C1269 C1268 1.355 . S
C1269 C1272 1.402 . S
C1270 C1268 1.412 . S
C1270 C1271 1.417 . S
C1270 C1294 1.431 . S
C1271 N1267 1.350 . S
C1271 C1270 1.417 . S
C1271 C1274 1.426 . S
C1272 H1255 0.930 . S
C1272 N1267 1.307 . S
C1272 C1269 1.402 . S
N1273 Gd1236 2.601 . S
N1273 C1274 1.359 . S
N1273 C1277 1.334 . S
C1274 C1271 1.426 . S
C1274 N1273 1.359 . S
C1274 C1278 1.413 . S
C1275 H1266 0.930 . S
C1275 C1276 1.359 . S
C1275 C1277 1.394 . S
C1276 C1275 1.359 . S
C1276 C1278 1.391 . S
C1276 H1279 0.929 . S
C1277 H1259 0.930 . S
C1277 N1273 1.334 . S
C1277 C1275 1.394 . S
C1278 C1274 1.413 . S
C1278 C1276 1.391 . S
C1278 C1293 1.437 . S
H1279 C1276 0.929 . S
O1280 Gd1236 2.545 . S
O1280 C1295 1.258 . S
O1281 Gd1236 2.606 . S
O1281 Gd1237 2.362 . S
O1281 C1292 1.284 . S
O1282 Gd1237 2.324 . S
O1282 C1302 1.254 . S
O1283 Gd1236 2.429 . S
O1283 C1302 1.268 . S
O1284 Gd1236 2.545 . S
O1284 C1292 1.250 . S
O1285 Gd1236 2.412 . S
O1285 C1295 1.252 . S
O1286 Gd1237 2.545 . S
O1286 C1304 1.258 . S
O1287 Gd1236 2.362 . S
O1287 Gd1237 2.606 . S
O1287 C1303 1.284 . S
O1288 Gd1236 2.324 . S
O1288 C1311 1.254 . S
O1289 Gd1237 2.429 . S
O1289 C1311 1.268 . S
O1290 Gd1237 2.545 . S
O1290 C1303 1.250 . S
O1291 Gd1237 2.412 . S
O1291 C1304 1.252 . S
C1292 O1281 1.284 . S
C1292 O1284 1.250 . S
C1293 H1262 0.929 . S
C1293 C1278 1.437 . S
C1293 C1294 1.317 . S
C1294 H1265 0.930 . S
C1294 C1270 1.431 . S
C1294 C1293 1.317 . S
C1295 Gd1236 2.828 . S
C1295 O1280 1.258 . S
C1295 O1285 1.252 . S
C1295 C1296 1.497 . S
C1296 C1295 1.497 . S
C1296 C1297 1.395 . S
C1296 C1298 1.380 . S
C1297 C1296 1.395 . S
C1297 C1300 1.398 . S
C1297 H1312 0.930 . S
C1298 C1296 1.380 . S
C1298 C1299 1.391 . S
C1298 H1313 0.930 . S
C1299 C1298 1.391 . S
C1299 C1301 1.387 . S
C1300 C1297 1.398 . S
C1300 C1301 1.380 . S
C1300 H1314 0.930 . S
C1301 C1299 1.387 . S
C1301 C1300 1.380 . S
C1301 H1315 0.930 . S
C1302 O1282 1.254 . S
C1302 O1283 1.268 . S
C1303 O1287 1.284 . S
C1303 O1290 1.250 . S
C1304 Gd1237 2.828 . S
C1304 O1286 1.258 . S
C1304 O1291 1.252 . S
C1304 C1305 1.497 . S
C1305 C1304 1.497 . S
C1305 C1306 1.395 . S
C1305 C1307 1.380 . S
C1306 C1305 1.395 . S
C1306 C1309 1.398 . S
C1306 H1316 0.930 . S
C1307 C1305 1.380 . S
C1307 C1308 1.391 . S
C1307 H1317 0.930 . S
C1308 C1307 1.391 . S
C1308 C1310 1.387 . S
C1309 C1306 1.398 . S
C1309 C1310 1.380 . S
C1309 H1318 0.930 . S
C1310 C1308 1.387 . S
C1310 C1309 1.380 . S
C1310 H1319 0.930 . S
C1311 O1288 1.254 . S
C1311 O1289 1.268 . S
H1312 C1297 0.930 . S
H1313 C1298 0.930 . S
H1314 C1300 0.930 . S
H1315 C1301 0.930 . S
H1316 C1306 0.930 . S
H1317 C1307 0.930 . S
H1318 C1309 0.930 . S
H1319 C1310 0.930 . S
Gd1320 N1351 2.661 . S
Gd1320 N1357 2.601 . S
Gd1320 O1364 2.545 . S
Gd1320 O1365 2.606 . S
Gd1320 O1367 2.429 . S
Gd1320 O1368 2.545 . S
Gd1320 O1369 2.412 . S
Gd1320 O1371 2.362 . S
Gd1320 O1372 2.324 . S
Gd1320 C1379 2.828 . S
Gd1321 N1330 2.661 . S
Gd1321 N1334 2.601 . S
Gd1321 O1365 2.362 . S
Gd1321 O1366 2.324 . S
Gd1321 O1370 2.545 . S
Gd1321 O1371 2.606 . S
Gd1321 O1373 2.429 . S
Gd1321 O1374 2.545 . S
Gd1321 O1375 2.412 . S
Gd1321 C1388 2.828 . S
C1322 C1325 1.417 . S
C1322 C1327 1.431 . S
C1322 C1328 1.412 . S
C1323 C1326 1.437 . S
C1323 C1327 1.317 . S
C1323 H1342 0.929 . S
C1324 C1325 1.426 . S
C1324 C1326 1.413 . S
C1324 N1334 1.359 . S
C1325 C1322 1.417 . S
C1325 C1324 1.426 . S
C1325 N1330 1.350 . S
C1326 C1323 1.437 . S
C1326 C1324 1.413 . S
C1326 C1336 1.391 . S
C1327 C1322 1.431 . S
C1327 C1323 1.317 . S
C1327 H1338 0.930 . S
C1328 C1322 1.412 . S
C1328 C1329 1.355 . S
C1328 H1340 0.930 . S
C1329 C1328 1.355 . S
C1329 C1331 1.402 . S
C1329 H1341 0.930 . S
N1330 Gd1321 2.661 . S
N1330 C1325 1.350 . S
N1330 C1331 1.307 . S
C1331 C1329 1.402 . S
C1331 N1330 1.307 . S
C1331 H1332 0.930 . S
H1332 C1331 0.930 . S
C1333 N1334 1.334 . S
C1333 C1335 1.394 . S
C1333 H1337 0.930 . S
N1334 Gd1321 2.601 . S
N1334 C1324 1.359 . S
N1334 C1333 1.334 . S
C1335 C1333 1.394 . S
C1335 C1336 1.359 . S
C1335 H1347 0.930 . S
C1336 C1326 1.391 . S
C1336 C1335 1.359 . S
C1336 H1348 0.929 . S
H1337 C1333 0.930 . S
H1338 C1327 0.930 . S
H1339 C1356 0.930 . S
H1340 C1328 0.930 . S
H1341 C1329 0.930 . S
H1342 C1323 0.929 . S
H1343 C1361 0.930 . S
H1344 C1352 0.930 . S
H1345 C1353 0.930 . S
H1346 C1377 0.929 . S
H1347 C1335 0.930 . S
H1348 C1336 0.929 . S
H1349 C1378 0.930 . S
H1350 C1359 0.930 . S
N1351 Gd1320 2.661 . S
N1351 C1355 1.350 . S
N1351 C1356 1.307 . S
C1352 H1344 0.930 . S
C1352 C1353 1.355 . S
C1352 C1354 1.412 . S
C1353 H1345 0.930 . S
C1353 C1352 1.355 . S
C1353 C1356 1.402 . S
C1354 C1352 1.412 . S
C1354 C1355 1.417 . S
C1354 C1378 1.431 . S
C1355 N1351 1.350 . S
C1355 C1354 1.417 . S
C1355 C1358 1.426 . S
C1356 H1339 0.930 . S
C1356 N1351 1.307 . S
C1356 C1353 1.402 . S
N1357 Gd1320 2.601 . S
N1357 C1358 1.359 . S
N1357 C1361 1.334 . S
C1358 C1355 1.426 . S
C1358 N1357 1.359 . S
C1358 C1362 1.413 . S
C1359 H1350 0.930 . S
C1359 C1360 1.359 . S
C1359 C1361 1.394 . S
C1360 C1359 1.359 . S
C1360 C1362 1.391 . S
C1360 H1363 0.929 . S
C1361 H1343 0.930 . S
C1361 N1357 1.334 . S
C1361 C1359 1.394 . S
C1362 C1358 1.413 . S
C1362 C1360 1.391 . S
C1362 C1377 1.437 . S
H1363 C1360 0.929 . S
O1364 Gd1320 2.545 . S
O1364 C1379 1.258 . S
O1365 Gd1320 2.606 . S
O1365 Gd1321 2.362 . S
O1365 C1376 1.284 . S
O1366 Gd1321 2.324 . S
O1366 C1386 1.254 . S
O1367 Gd1320 2.429 . S
O1367 C1386 1.268 . S
O1368 Gd1320 2.545 . S
O1368 C1376 1.250 . S
O1369 Gd1320 2.412 . S
O1369 C1379 1.252 . S
O1370 Gd1321 2.545 . S
O1370 C1388 1.258 . S
O1371 Gd1320 2.362 . S
O1371 Gd1321 2.606 . S
O1371 C1387 1.284 . S
O1372 Gd1320 2.324 . S
O1372 C1395 1.254 . S
O1373 Gd1321 2.429 . S
O1373 C1395 1.268 . S
O1374 Gd1321 2.545 . S
O1374 C1387 1.250 . S
O1375 Gd1321 2.412 . S
O1375 C1388 1.252 . S
C1376 O1365 1.284 . S
C1376 O1368 1.250 . S
C1377 H1346 0.929 . S
C1377 C1362 1.437 . S
C1377 C1378 1.317 . S
C1378 H1349 0.930 . S
C1378 C1354 1.431 . S
C1378 C1377 1.317 . S
C1379 Gd1320 2.828 . S
C1379 O1364 1.258 . S
C1379 O1369 1.252 . S
C1379 C1380 1.497 . S
C1380 C1379 1.497 . S
C1380 C1381 1.395 . S
C1380 C1382 1.380 . S
C1381 C1380 1.395 . S
C1381 C1384 1.398 . S
C1381 H1396 0.930 . S
C1382 C1380 1.380 . S
C1382 C1383 1.391 . S
C1382 H1397 0.930 . S
C1383 C1382 1.391 . S
C1383 C1385 1.387 . S
C1384 C1381 1.398 . S
C1384 C1385 1.380 . S
C1384 H1398 0.930 . S
C1385 C1383 1.387 . S
C1385 C1384 1.380 . S
C1385 H1399 0.930 . S
C1386 O1366 1.254 . S
C1386 O1367 1.268 . S
C1387 O1371 1.284 . S
C1387 O1374 1.250 . S
C1388 Gd1321 2.828 . S
C1388 O1370 1.258 . S
C1388 O1375 1.252 . S
C1388 C1389 1.497 . S
C1389 C1388 1.497 . S
C1389 C1390 1.395 . S
C1389 C1391 1.380 . S
C1390 C1389 1.395 . S
C1390 C1393 1.398 . S
C1390 H1400 0.930 . S
C1391 C1389 1.380 . S
C1391 C1392 1.391 . S
C1391 H1401 0.930 . S
C1392 C1391 1.391 . S
C1392 C1394 1.387 . S
C1393 C1390 1.398 . S
C1393 C1394 1.380 . S
C1393 H1402 0.930 . S
C1394 C1392 1.387 . S
C1394 C1393 1.380 . S
C1394 H1403 0.930 . S
C1395 O1372 1.254 . S
C1395 O1373 1.268 . S
H1396 C1381 0.930 . S
H1397 C1382 0.930 . S
H1398 C1384 0.930 . S
H1399 C1385 0.930 . S
H1400 C1390 0.930 . S
H1401 C1391 0.930 . S
H1402 C1393 0.930 . S
H1403 C1394 0.930 . S
H1404 C1412 0.950 . S
H1405 C1417 0.950 . S
H1406 C1414 0.950 . S
H1407 C1416 0.950 . S
H1408 C1418 0.950 . S
H1409 C1420 0.950 . S
H1410 C1422 0.950 . S
H1411 C1423 0.950 . S
C1412 H1404 0.950 . S
C1412 C1413 1.386 . S
C1412 C1414 1.391 . S
C1413 C1412 1.386 . S
C1413 C1417 1.393 . S
C1414 H1406 0.950 . S
C1414 C1412 1.391 . S
C1414 C1415 1.400 . S
C1415 C1414 1.400 . S
C1415 C1416 1.398 . S
C1415 C1421 1.491 . S
C1416 H1407 0.950 . S
C1416 C1415 1.398 . S
C1416 C1417 1.391 . S
C1417 H1405 0.950 . S
C1417 C1413 1.393 . S
C1417 C1416 1.391 . S
C1418 H1408 0.950 . S
C1418 C1419 1.386 . S
C1418 C1420 1.391 . S
C1419 C1418 1.386 . S
C1419 C1423 1.393 . S
C1420 H1409 0.950 . S
C1420 C1418 1.391 . S
C1420 C1421 1.400 . S
C1421 C1415 1.491 . S
C1421 C1420 1.400 . S
C1421 C1422 1.398 . S
C1422 H1410 0.950 . S
C1422 C1421 1.398 . S
C1422 C1423 1.391 . S
C1423 H1411 0.950 . S
C1423 C1419 1.393 . S
C1423 C1422 1.391 . S
H1424 C1432 0.950 . S
H1425 C1437 0.950 . S
H1426 C1434 0.950 . S
H1427 C1436 0.950 . S
H1428 C1438 0.950 . S
H1429 C1440 0.950 . S
H1430 C1442 0.950 . S
H1431 C1443 0.950 . S
C1432 H1424 0.950 . S
C1432 C1433 1.386 . S
C1432 C1434 1.391 . S
C1433 C1432 1.386 . S
C1433 C1437 1.393 . S
C1434 H1426 0.950 . S
C1434 C1432 1.391 . S
C1434 C1435 1.400 . S
C1435 C1434 1.400 . S
C1435 C1436 1.398 . S
C1435 C1441 1.491 . S
C1436 H1427 0.950 . S
C1436 C1435 1.398 . S
C1436 C1437 1.391 . S
C1437 H1425 0.950 . S
C1437 C1433 1.393 . S
C1437 C1436 1.391 . S
C1438 H1428 0.950 . S
C1438 C1439 1.386 . S
C1438 C1440 1.391 . S
C1439 C1438 1.386 . S
C1439 C1443 1.393 . S
C1440 H1429 0.950 . S
C1440 C1438 1.391 . S
C1440 C1441 1.400 . S
C1441 C1435 1.491 . S
C1441 C1440 1.400 . S
C1441 C1442 1.398 . S
C1442 H1430 0.950 . S
C1442 C1441 1.398 . S
C1442 C1443 1.391 . S
C1443 H1431 0.950 . S
C1443 C1439 1.393 . S
C1443 C1442 1.391 . S
H1444 C1452 0.950 . S
H1445 C1457 0.950 . S
H1446 C1454 0.950 . S
H1447 C1456 0.950 . S
H1448 C1458 0.985 . S
H1449 C1460 0.950 . S
H1450 C1462 0.950 . S
H1451 C1463 0.950 . S
C1452 H1444 0.950 . S
C1452 C1453 1.386 . S
C1452 C1454 1.391 . S
C1453 C1452 1.386 . S
C1453 C1457 1.393 . S
C1454 H1446 0.950 . S
C1454 C1452 1.391 . S
C1454 C1455 1.400 . S
C1455 C1454 1.400 . S
C1455 C1456 1.398 . S
C1455 C1461 1.491 . S
C1456 H1447 0.950 . S
C1456 C1455 1.398 . S
C1456 C1457 1.391 . S
C1457 H1445 0.950 . S
C1457 C1453 1.393 . S
C1457 C1456 1.391 . S
C1458 H1448 0.985 . S
C1458 C1459 1.386 . S
C1458 C1460 1.391 . S
C1459 C1458 1.386 . S
C1459 C1463 1.393 . S
C1460 H1449 0.950 . S
C1460 C1458 1.391 . S
C1460 C1461 1.400 . S
C1461 C1455 1.491 . S
C1461 C1460 1.400 . S
C1461 C1462 1.398 . S
C1462 H1450 0.950 . S
C1462 C1461 1.398 . S
C1462 C1463 1.391 . S
C1463 H1451 0.950 . S
C1463 C1459 1.393 . S
C1463 C1462 1.391 . S
H1464 C1472 0.950 . S
H1465 C1477 0.950 . S
H1466 C1474 0.950 . S
H1467 C1476 0.950 . S
H1468 C1478 0.950 . S
H1469 C1480 0.950 . S
H1470 C1482 0.950 . S
H1471 C1483 0.950 . S
C1472 H1464 0.950 . S
C1472 C1473 1.386 . S
C1472 C1474 1.391 . S
C1473 C1472 1.386 . S
C1473 C1477 1.393 . S
C1474 H1466 0.950 . S
C1474 C1472 1.391 . S
C1474 C1475 1.400 . S
C1475 C1474 1.400 . S
C1475 C1476 1.398 . S
C1475 C1481 1.491 . S
C1476 H1467 0.950 . S
C1476 C1475 1.398 . S
C1476 C1477 1.391 . S
C1477 H1465 0.950 . S
C1477 C1473 1.393 . S
C1477 C1476 1.391 . S
C1478 H1468 0.950 . S
C1478 C1479 1.386 . S
C1478 C1480 1.391 . S
C1479 C1478 1.386 . S
C1479 C1483 1.393 . S
C1480 H1469 0.950 . S
C1480 C1478 1.391 . S
C1480 C1481 1.400 . S
C1481 C1475 1.491 . S
C1481 C1480 1.400 . S
C1481 C1482 1.398 . S
C1482 H1470 0.950 . S
C1482 C1481 1.398 . S
C1482 C1483 1.391 . S
C1483 H1471 0.950 . S
C1483 C1479 1.393 . S
C1483 C1482 1.391 . S
H1484 C1492 0.950 . S
H1485 C1497 0.950 . S
H1486 C1494 0.950 . S
H1487 C1496 0.950 . S
H1488 C1498 0.950 1_554 S
H1489 C1500 0.950 . S
H1490 C1502 0.950 . S
H1491 C1503 0.950 . S
C1492 H1484 0.950 . S
C1492 C1493 1.386 . S
C1492 C1494 1.391 . S
C1493 C1492 1.386 . S
C1493 C1497 1.393 . S
C1494 H1486 0.950 . S
C1494 C1492 1.391 . S
C1494 C1495 1.400 . S
C1495 C1494 1.400 . S
C1495 C1496 1.398 . S
C1495 C1501 1.491 . S
C1496 H1487 0.950 . S
C1496 C1495 1.398 . S
C1496 C1497 1.391 . S
C1497 H1485 0.950 . S
C1497 C1493 1.393 . S
C1497 C1496 1.391 . S
C1498 H1488 0.950 1_556 S
C1498 C1499 1.386 . S
C1498 C1500 1.391 . S
C1499 C1498 1.386 . S
C1499 C1503 1.393 . S
C1500 H1489 0.950 . S
C1500 C1498 1.391 . S
C1500 C1501 1.400 . S
C1501 C1495 1.491 . S
C1501 C1500 1.400 . S
C1501 C1502 1.398 . S
C1502 H1490 0.950 . S
C1502 C1501 1.398 . S
C1502 C1503 1.391 . S
C1503 H1491 0.950 . S
C1503 C1499 1.393 . S
C1503 C1502 1.391 . S
H1504 C1512 0.950 . S
H1505 C1517 0.950 . S
H1506 C1514 0.950 . S
H1507 C1516 0.950 . S
H1508 C1518 0.950 . S
H1509 C1520 0.950 . S
H1510 C1522 0.950 . S
H1511 C1523 0.950 . S
C1512 H1504 0.950 . S
C1512 C1513 1.386 . S
C1512 C1514 1.391 . S
C1513 C1512 1.386 . S
C1513 C1517 1.393 . S
C1514 H1506 0.950 . S
C1514 C1512 1.391 . S
C1514 C1515 1.400 . S
C1515 C1514 1.400 . S
C1515 C1516 1.398 . S
C1515 C1521 1.491 . S
C1516 H1507 0.950 . S
C1516 C1515 1.398 . S
C1516 C1517 1.391 . S
C1517 H1505 0.950 . S
C1517 C1513 1.393 . S
C1517 C1516 1.391 . S
C1518 H1508 0.950 . S
C1518 C1519 1.386 . S
C1518 C1520 1.391 . S
C1519 C1518 1.386 . S
C1519 C1523 1.393 . S
C1520 H1509 0.950 . S
C1520 C1518 1.391 . S
C1520 C1521 1.400 . S
C1521 C1515 1.491 . S
C1521 C1520 1.400 . S
C1521 C1522 1.398 . S
C1522 H1510 0.950 . S
C1522 C1521 1.398 . S
C1522 C1523 1.391 . S
C1523 H1511 0.950 . S
C1523 C1519 1.393 . S
C1523 C1522 1.391 . S
H1524 C1532 0.950 . S
H1525 C1537 0.950 . S
H1526 C1534 0.950 . S
H1527 C1536 0.950 . S
H1528 C1538 0.950 1_554 S
H1529 C1540 0.950 . S
H1530 C1542 0.950 . S
H1531 C1543 0.950 . S
C1532 H1524 0.950 . S
C1532 C1533 1.386 . S
C1532 C1534 1.391 . S
C1533 C1532 1.386 . S
C1533 C1537 1.393 . S
C1534 H1526 0.950 . S
C1534 C1532 1.391 . S
C1534 C1535 1.400 . S
C1535 C1534 1.400 . S
C1535 C1536 1.398 . S
C1535 C1541 1.491 . S
C1536 H1527 0.950 . S
C1536 C1535 1.398 . S
C1536 C1537 1.391 . S
C1537 H1525 0.950 . S
C1537 C1533 1.393 . S
C1537 C1536 1.391 . S
C1538 H1528 0.950 1_556 S
C1538 C1539 1.386 . S
C1538 C1540 1.391 . S
C1539 C1538 1.386 . S
C1539 C1543 1.393 . S
C1540 H1529 0.950 . S
C1540 C1538 1.391 . S
C1540 C1541 1.400 . S
C1541 C1535 1.491 . S
C1541 C1540 1.400 . S
C1541 C1542 1.398 . S
C1542 H1530 0.950 . S
C1542 C1541 1.398 . S
C1542 C1543 1.391 . S
C1543 H1531 0.950 . S
C1543 C1539 1.393 . S
C1543 C1542 1.391 . S
H1544 C1552 0.950 . S
H1545 C1557 0.950 . S
H1546 C1554 0.950 . S
H1547 C1556 0.950 . S
H1548 C1558 0.950 . S
H1549 C1560 0.950 . S
H1550 C1562 0.950 . S
H1551 C1563 1.007 . S
C1552 H1544 0.950 . S
C1552 C1553 1.386 . S
C1552 C1554 1.391 . S
C1553 C1552 1.386 . S
C1553 C1557 1.393 . S
C1554 H1546 0.950 . S
C1554 C1552 1.391 . S
C1554 C1555 1.400 . S
C1555 C1554 1.400 . S
C1555 C1556 1.398 . S
C1555 C1561 1.491 . S
C1556 H1547 0.950 . S
C1556 C1555 1.398 . S
C1556 C1557 1.391 . S
C1557 H1545 0.950 . S
C1557 C1553 1.393 . S
C1557 C1556 1.391 . S
C1558 H1548 0.950 . S
C1558 C1559 1.386 . S
C1558 C1560 1.391 . S
C1559 C1558 1.386 . S
C1559 C1563 1.393 . S
C1560 H1549 0.950 . S
C1560 C1558 1.391 . S
C1560 C1561 1.400 . S
C1561 C1555 1.491 . S
C1561 C1560 1.400 . S
C1561 C1562 1.398 . S
C1562 H1550 0.950 . S
C1562 C1561 1.398 . S
C1562 C1563 1.391 . S
C1563 H1551 1.007 . S
C1563 C1559 1.393 . S
C1563 C1562 1.391 . S
H1564 C1572 0.950 . S
H1565 C1577 0.950 . S
H1566 C1574 0.950 . S
H1567 C1576 0.950 . S
H1568 C1578 0.950 . S
H1569 C1580 0.950 . S
H1570 C1582 0.950 . S
H1571 C1583 0.950 1_554 S
C1572 H1564 0.950 . S
C1572 C1573 1.386 . S
C1572 C1574 1.391 . S
C1573 C1572 1.386 . S
C1573 C1577 1.393 . S
C1574 H1566 0.950 . S
C1574 C1572 1.391 . S
C1574 C1575 1.400 . S
C1575 C1574 1.400 . S
C1575 C1576 1.398 . S
C1575 C1581 1.491 . S
C1576 H1567 0.950 . S
C1576 C1575 1.398 . S
C1576 C1577 1.391 . S
C1577 H1565 0.950 . S
C1577 C1573 1.393 . S
C1577 C1576 1.391 . S
C1578 H1568 0.950 . S
C1578 C1579 1.386 . S
C1578 C1580 1.391 . S
C1579 C1578 1.386 . S
C1579 C1583 1.393 . S
C1580 H1569 0.950 . S
C1580 C1578 1.391 . S
C1580 C1581 1.400 . S
C1581 C1575 1.491 . S
C1581 C1580 1.400 . S
C1581 C1582 1.398 . S
C1582 H1570 0.950 . S
C1582 C1581 1.398 . S
C1582 C1583 1.391 . S
C1583 H1571 0.950 1_556 S
C1583 C1579 1.393 . S
C1583 C1582 1.391 . S
H1584 C1592 0.950 . S
H1585 C1597 0.950 . S
H1586 C1594 0.950 . S
H1587 C1596 0.950 . S
H1588 C1598 0.950 . S
H1589 C1600 0.950 . S
H1590 C1602 0.950 . S
H1591 C1603 0.950 1_556 S
C1592 H1584 0.950 . S
C1592 C1593 1.386 . S
C1592 C1594 1.391 . S
C1593 C1592 1.386 . S
C1593 C1597 1.393 . S
C1594 H1586 0.950 . S
C1594 C1592 1.391 . S
C1594 C1595 1.400 . S
C1595 C1594 1.400 . S
C1595 C1596 1.398 . S
C1595 C1601 1.491 . S
C1596 H1587 0.950 . S
C1596 C1595 1.398 . S
C1596 C1597 1.391 . S
C1597 H1585 0.950 . S
C1597 C1593 1.393 . S
C1597 C1596 1.391 . S
C1598 H1588 0.950 . S
C1598 C1599 1.386 . S
C1598 C1600 1.391 . S
C1599 C1598 1.386 . S
C1599 C1603 1.393 . S
C1600 H1589 0.950 . S
C1600 C1598 1.391 . S
C1600 C1601 1.400 . S
C1601 C1595 1.491 . S
C1601 C1600 1.400 . S
C1601 C1602 1.398 . S
C1602 H1590 0.950 . S
C1602 C1601 1.398 . S
C1602 C1603 1.391 . S
C1603 H1591 0.950 1_554 S
C1603 C1599 1.393 . S
C1603 C1602 1.391 . S
H1604 C1612 0.950 . S
H1605 C1617 0.950 . S
H1606 C1614 0.950 . S
H1607 C1616 0.950 . S
H1608 C1618 0.950 . S
H1609 C1620 0.950 . S
H1610 C1622 0.950 . S
H1611 C1623 0.950 . S
C1612 H1604 0.950 . S
C1612 C1613 1.386 . S
C1612 C1614 1.391 . S
C1613 C1612 1.386 . S
C1613 C1617 1.393 . S
C1614 H1606 0.950 . S
C1614 C1612 1.391 . S
C1614 C1615 1.400 . S
C1615 C1614 1.400 . S
C1615 C1616 1.398 . S
C1615 C1621 1.491 . S
C1616 H1607 0.950 . S
C1616 C1615 1.398 . S
C1616 C1617 1.391 . S
C1617 H1605 0.950 . S
C1617 C1613 1.393 . S
C1617 C1616 1.391 . S
C1618 H1608 0.950 . S
C1618 C1619 1.386 . S
C1618 C1620 1.391 . S
C1619 C1618 1.386 . S
C1619 C1623 1.393 . S
C1620 H1609 0.950 . S
C1620 C1618 1.391 . S
C1620 C1621 1.400 . S
C1621 C1615 1.491 . S
C1621 C1620 1.400 . S
C1621 C1622 1.398 . S
C1622 H1610 0.950 . S
C1622 C1621 1.398 . S
C1622 C1623 1.391 . S
C1623 H1611 0.950 . S
C1623 C1619 1.393 . S
C1623 C1622 1.391 . S
H1624 C1632 0.950 . S
H1625 C1637 0.950 . S
H1626 C1634 0.950 . S
H1627 C1636 0.950 . S
H1628 C1638 0.950 . S
H1629 C1640 0.950 . S
H1630 C1642 0.950 . S
H1631 C1643 0.950 1_556 S
C1632 H1624 0.950 . S
C1632 C1633 1.386 . S
C1632 C1634 1.391 . S
C1633 C1632 1.386 . S
C1633 C1637 1.393 . S
C1634 H1626 0.950 . S
C1634 C1632 1.391 . S
C1634 C1635 1.400 . S
C1635 C1634 1.400 . S
C1635 C1636 1.398 . S
C1635 C1641 1.491 . S
C1636 H1627 0.950 . S
C1636 C1635 1.398 . S
C1636 C1637 1.391 . S
C1637 H1625 0.950 . S
C1637 C1633 1.393 . S
C1637 C1636 1.391 . S
C1638 H1628 0.950 . S
C1638 C1639 1.386 . S
C1638 C1640 1.391 . S
C1639 C1638 1.386 . S
C1639 C1643 1.393 . S
C1640 H1629 0.950 . S
C1640 C1638 1.391 . S
C1640 C1641 1.400 . S
C1641 C1635 1.491 . S
C1641 C1640 1.400 . S
C1641 C1642 1.398 . S
C1642 H1630 0.950 . S
C1642 C1641 1.398 . S
C1642 C1643 1.391 . S
C1643 H1631 0.950 1_554 S
C1643 C1639 1.393 . S
C1643 C1642 1.391 . S
H1644 C1652 0.950 . S
H1645 C1657 0.953 1_655 S
H1646 C1654 0.950 . S
H1647 C1656 0.950 . S
H1648 C1658 0.950 . S
H1649 C1660 0.950 . S
H1650 C1662 0.950 . S
H1651 C1663 0.950 . S
C1652 H1644 0.950 . S
C1652 C1653 1.386 . S
C1652 C1654 1.391 1_655 S
C1653 C1652 1.386 . S
C1653 C1657 1.393 1_655 S
C1654 H1646 0.950 . S
C1654 C1652 1.391 1_455 S
C1654 C1655 1.400 . S
C1655 C1654 1.400 . S
C1655 C1656 1.398 . S
C1655 C1661 1.491 . S
C1656 H1647 0.950 . S
C1656 C1655 1.398 . S
C1656 C1657 1.387 . S
C1657 H1645 0.953 1_455 S
C1657 C1653 1.393 1_455 S
C1657 C1656 1.387 . S
C1658 H1648 0.950 . S
C1658 C1659 1.386 . S
C1658 C1660 1.391 . S
C1659 C1658 1.386 . S
C1659 C1663 1.393 . S
C1660 H1649 0.950 . S
C1660 C1658 1.391 . S
C1660 C1661 1.400 . S
C1661 C1655 1.491 . S
C1661 C1660 1.400 . S
C1661 C1662 1.398 . S
C1662 H1650 0.950 . S
C1662 C1661 1.398 . S
C1662 C1663 1.391 . S
C1663 H1651 0.950 . S
C1663 C1659 1.393 . S
C1663 C1662 1.391 . S
H1664 C1672 0.950 . S
H1665 C1677 0.950 . S
H1666 C1674 0.950 . S
H1667 C1676 0.950 . S
H1668 C1678 0.950 . S
H1669 C1680 0.950 . S
H1670 C1682 0.950 . S
H1671 C1683 0.950 . S
C1672 H1664 0.950 . S
C1672 C1673 1.386 . S
C1672 C1674 1.391 . S
C1673 C1672 1.386 . S
C1673 C1677 1.393 . S
C1674 H1666 0.950 . S
C1674 C1672 1.391 . S
C1674 C1675 1.400 . S
C1675 C1674 1.400 . S
C1675 C1676 1.398 . S
C1675 C1681 1.491 . S
C1676 H1667 0.950 . S
C1676 C1675 1.398 . S
C1676 C1677 1.391 . S
C1677 H1665 0.950 . S
C1677 C1673 1.393 . S
C1677 C1676 1.391 . S
C1678 H1668 0.950 . S
C1678 C1679 1.386 . S
C1678 C1680 1.391 . S
C1679 C1678 1.386 . S
C1679 C1683 1.393 . S
C1680 H1669 0.950 . S
C1680 C1678 1.391 . S
C1680 C1681 1.400 . S
C1681 C1675 1.491 . S
C1681 C1680 1.400 . S
C1681 C1682 1.398 . S
C1682 H1670 0.950 . S
C1682 C1681 1.398 . S
C1682 C1683 1.391 . S
C1683 H1671 0.950 . S
C1683 C1679 1.393 . S
C1683 C1682 1.391 . S
H1684 C1692 0.950 . S
H1685 C1697 0.958 . S
H1686 C1694 0.950 . S
H1687 C1696 0.950 . S
H1688 C1698 0.950 . S
H1689 C1700 0.950 . S
H1690 C1702 0.950 . S
H1691 C1703 0.950 . S
C1692 H1684 0.950 . S
C1692 C1693 1.386 . S
C1692 C1694 1.391 1_545 S
C1693 C1692 1.386 . S
C1693 C1697 1.435 . S
C1694 H1686 0.950 . S
C1694 C1692 1.391 1_565 S
C1694 C1695 1.400 . S
C1695 C1694 1.400 . S
C1695 C1696 1.398 . S
C1695 C1701 1.491 . S
C1696 H1687 0.950 . S
C1696 C1695 1.398 . S
C1696 C1697 1.342 1_565 S
C1697 H1685 0.958 . S
C1697 C1693 1.435 . S
C1697 C1696 1.342 1_545 S
C1698 H1688 0.950 . S
C1698 C1699 1.386 . S
C1698 C1700 1.391 . S
C1699 C1698 1.386 . S
C1699 C1703 1.393 . S
C1700 H1689 0.950 . S
C1700 C1698 1.391 . S
C1700 C1701 1.400 . S
C1701 C1695 1.491 . S
C1701 C1700 1.400 . S
C1701 C1702 1.398 . S
C1702 H1690 0.950 . S
C1702 C1701 1.398 . S
C1702 C1703 1.391 . S
C1703 H1691 0.950 . S
C1703 C1699 1.393 . S
C1703 C1702 1.391 . S
H1704 C1712 0.950 . S
H1705 C1717 0.950 . S
H1706 C1714 0.950 . S
H1707 C1716 0.950 . S
H1708 C1718 0.950 . S
H1709 C1720 0.950 . S
H1710 C1722 0.950 . S
H1711 C1723 0.950 . S
C1712 H1704 0.950 . S
C1712 C1713 1.386 . S
C1712 C1714 1.391 . S
C1713 C1712 1.386 . S
C1713 C1717 1.393 . S
C1714 H1706 0.950 . S
C1714 C1712 1.391 . S
C1714 C1715 1.400 . S
C1715 C1714 1.400 . S
C1715 C1716 1.398 . S
C1715 C1721 1.491 . S
C1716 H1707 0.950 . S
C1716 C1715 1.398 . S
C1716 C1717 1.391 . S
C1717 H1705 0.950 . S
C1717 C1713 1.393 . S
C1717 C1716 1.391 . S
C1718 H1708 0.950 . S
C1718 C1719 1.386 . S
C1718 C1720 1.391 . S
C1719 C1718 1.386 . S
C1719 C1723 1.393 . S
C1720 H1709 0.950 . S
C1720 C1718 1.391 . S
C1720 C1721 1.400 . S
C1721 C1715 1.491 . S
C1721 C1720 1.400 . S
C1721 C1722 1.398 . S
C1722 H1710 0.950 . S
C1722 C1721 1.398 . S
C1722 C1723 1.391 . S
C1723 H1711 0.950 . S
C1723 C1719 1.393 . S
C1723 C1722 1.391 . S
H1724 C1732 0.950 . S
H1725 C1737 0.950 . S
H1726 C1734 0.950 . S
H1727 C1736 0.950 . S
H1728 C1738 0.950 . S
H1729 C1740 0.950 . S
H1730 C1742 0.950 . S
H1731 C1743 0.950 . S
C1732 H1724 0.950 . S
C1732 C1733 1.386 . S
C1732 C1734 1.391 . S
C1733 C1732 1.386 . S
C1733 C1737 1.393 . S
C1734 H1726 0.950 . S
C1734 C1732 1.391 . S
C1734 C1735 1.400 . S
C1735 C1734 1.400 . S
C1735 C1736 1.398 . S
C1735 C1741 1.491 . S
C1736 H1727 0.950 . S
C1736 C1735 1.398 . S
C1736 C1737 1.391 . S
C1737 H1725 0.950 . S
C1737 C1733 1.393 . S
C1737 C1736 1.391 . S
C1738 H1728 0.950 . S
C1738 C1739 1.386 . S
C1738 C1740 1.391 . S
C1739 C1738 1.386 . S
C1739 C1743 1.393 . S
C1740 H1729 0.950 . S
C1740 C1738 1.391 . S
C1740 C1741 1.400 . S
C1741 C1735 1.491 . S
C1741 C1740 1.400 . S
C1741 C1742 1.398 . S
C1742 H1730 0.950 . S
C1742 C1741 1.398 . S
C1742 C1743 1.391 . S
C1743 H1731 0.950 . S
C1743 C1739 1.393 . S
C1743 C1742 1.391 . S
H1744 C1752 0.950 . S
H1745 C1757 0.950 . S
H1746 C1754 0.950 . S
H1747 C1756 0.950 . S
H1748 C1758 0.950 . S
H1749 C1760 0.950 . S
H1750 C1762 0.950 . S
H1751 C1763 0.950 . S
C1752 H1744 0.950 . S
C1752 C1753 1.386 . S
C1752 C1754 1.391 . S
C1753 C1752 1.386 . S
C1753 C1757 1.393 . S
C1754 H1746 0.950 . S
C1754 C1752 1.391 . S
C1754 C1755 1.400 . S
C1755 C1754 1.400 . S
C1755 C1756 1.398 . S
C1755 C1761 1.491 . S
C1756 H1747 0.950 . S
C1756 C1755 1.398 . S
C1756 C1757 1.391 . S
C1757 H1745 0.950 . S
C1757 C1753 1.393 . S
C1757 C1756 1.391 . S
C1758 H1748 0.950 . S
C1758 C1759 1.386 . S
C1758 C1760 1.391 . S
C1759 C1758 1.386 . S
C1759 C1763 1.393 . S
C1760 H1749 0.950 . S
C1760 C1758 1.391 . S
C1760 C1761 1.400 . S
C1761 C1755 1.491 . S
C1761 C1760 1.400 . S
C1761 C1762 1.398 . S
C1762 H1750 0.950 . S
C1762 C1761 1.398 . S
C1762 C1763 1.391 . S
C1763 H1751 0.950 . S
C1763 C1759 1.393 . S
C1763 C1762 1.391 . S
H1764 C1772 0.950 . S
H1765 C1777 0.950 . S
H1766 C1774 0.950 . S
H1767 C1776 0.950 . S
H1768 C1778 0.950 . S
H1769 C1780 0.950 . S
H1770 C1782 0.950 . S
H1771 C1783 0.950 . S
C1772 H1764 0.950 . S
C1772 C1773 1.386 . S
C1772 C1774 1.391 . S
C1773 C1772 1.386 . S
C1773 C1777 1.393 . S
C1774 H1766 0.950 . S
C1774 C1772 1.391 . S
C1774 C1775 1.400 . S
C1775 C1774 1.400 . S
C1775 C1776 1.398 . S
C1775 C1781 1.491 . S
C1776 H1767 0.950 . S
C1776 C1775 1.398 . S
C1776 C1777 1.391 . S
C1777 H1765 0.950 . S
C1777 C1773 1.393 . S
C1777 C1776 1.391 . S
C1778 H1768 0.950 . S
C1778 C1779 1.386 . S
C1778 C1780 1.391 . S
C1779 C1778 1.386 . S
C1779 C1783 1.393 . S
C1780 H1769 0.950 . S
C1780 C1778 1.391 . S
C1780 C1781 1.400 . S
C1781 C1775 1.491 . S
C1781 C1780 1.400 . S
C1781 C1782 1.398 . S
C1782 H1770 0.950 . S
C1782 C1781 1.398 . S
C1782 C1783 1.391 . S
C1783 H1771 0.950 . S
C1783 C1779 1.393 . S
C1783 C1782 1.391 . S
H1784 C1792 0.950 . S
H1785 C1797 0.950 . S
H1786 C1794 0.950 . S
H1787 C1796 0.950 . S
H1788 C1798 0.950 . S
H1789 C1800 0.950 . S
H1790 C1802 0.950 . S
H1791 C1803 0.950 . S
C1792 H1784 0.950 . S
C1792 C1793 1.386 . S
C1792 C1794 1.391 . S
C1793 C1792 1.386 . S
C1793 C1797 1.393 . S
C1794 H1786 0.950 . S
C1794 C1792 1.391 . S
C1794 C1795 1.400 . S
C1795 C1794 1.400 . S
C1795 C1796 1.398 . S
C1795 C1801 1.491 . S
C1796 H1787 0.950 . S
C1796 C1795 1.398 . S
C1796 C1797 1.391 . S
C1797 H1785 0.950 . S
C1797 C1793 1.393 . S
C1797 C1796 1.391 . S
C1798 H1788 0.950 . S
C1798 C1799 1.386 . S
C1798 C1800 1.391 . S
C1799 C1798 1.386 . S
C1799 C1803 1.393 . S
C1800 H1789 0.950 . S
C1800 C1798 1.391 . S
C1800 C1801 1.400 . S
C1801 C1795 1.491 . S
C1801 C1800 1.400 . S
C1801 C1802 1.398 . S
C1802 H1790 0.950 . S
C1802 C1801 1.398 . S
C1802 C1803 1.391 . S
C1803 H1791 0.950 . S
C1803 C1799 1.393 . S
C1803 C1802 1.391 . S
H1804 C1812 0.950 . S
H1805 C1817 0.950 . S
H1806 C1814 0.950 . S
H1807 C1816 0.950 . S
H1808 C1818 0.950 . S
H1809 C1820 0.950 . S
H1810 C1822 0.950 . S
H1811 C1823 0.950 . S
C1812 H1804 0.950 . S
C1812 C1813 1.386 . S
C1812 C1814 1.391 . S
C1813 C1812 1.386 . S
C1813 C1817 1.393 . S
C1814 H1806 0.950 . S
C1814 C1812 1.391 . S
C1814 C1815 1.400 . S
C1815 C1814 1.400 . S
C1815 C1816 1.398 . S
C1815 C1821 1.491 . S
C1816 H1807 0.950 . S
C1816 C1815 1.398 . S
C1816 C1817 1.391 . S
C1817 H1805 0.950 . S
C1817 C1813 1.393 . S
C1817 C1816 1.391 . S
C1818 H1808 0.950 . S
C1818 C1819 1.386 . S
C1818 C1820 1.391 . S
C1819 C1818 1.386 . S
C1819 C1823 1.393 . S
C1820 H1809 0.950 . S
C1820 C1818 1.391 . S
C1820 C1821 1.400 . S
C1821 C1815 1.491 . S
C1821 C1820 1.400 . S
C1821 C1822 1.398 . S
C1822 H1810 0.950 . S
C1822 C1821 1.398 . S
C1822 C1823 1.391 . S
C1823 H1811 0.950 . S
C1823 C1819 1.393 . S
C1823 C1822 1.391 . S
H1824 C1832 0.950 . S
H1825 C1837 0.950 . S
H1826 C1834 0.950 . S
H1827 C1836 0.950 . S
H1828 C1838 0.950 . S
H1829 C1840 0.950 . S
H1830 C1842 0.950 . S
H1831 C1843 0.950 . S
C1832 H1824 0.950 . S
C1832 C1833 1.386 . S
C1832 C1834 1.391 1_545 S
C1833 C1832 1.386 . S
C1833 C1837 1.393 . S
C1834 H1826 0.950 . S
C1834 C1832 1.391 1_565 S
C1834 C1835 1.400 . S
C1835 C1834 1.400 . S
C1835 C1836 1.398 . S
C1835 C1841 1.491 . S
C1836 H1827 0.950 . S
C1836 C1835 1.398 . S
C1836 C1837 1.391 1_565 S
C1837 H1825 0.950 . S
C1837 C1833 1.393 . S
C1837 C1836 1.391 1_545 S
C1838 H1828 0.950 . S
C1838 C1839 1.386 . S
C1838 C1840 1.391 . S
C1839 C1838 1.386 . S
C1839 C1843 1.393 . S
C1840 H1829 0.950 . S
C1840 C1838 1.391 . S
C1840 C1841 1.400 . S
C1841 C1835 1.491 . S
C1841 C1840 1.400 . S
C1841 C1842 1.398 . S
C1842 H1830 0.950 . S
C1842 C1841 1.398 . S
C1842 C1843 1.391 . S
C1843 H1831 0.950 . S
C1843 C1839 1.393 . S
C1843 C1842 1.391 . S
H1844 C1852 0.950 1_655 S
H1845 C1857 0.950 1_655 S
H1846 C1854 0.950 . S
H1847 C1856 0.950 . S
H1848 C1858 0.950 . S
H1849 C1860 0.950 . S
H1850 C1862 0.950 . S
H1851 C1863 0.950 . S
C1852 H1844 0.950 1_455 S
C1852 C1853 1.386 1_455 S
C1852 C1854 1.391 . S
C1853 C1852 1.386 1_655 S
C1853 C1857 1.393 1_655 S
C1854 H1846 0.950 . S
C1854 C1852 1.391 . S
C1854 C1855 1.400 . S
C1855 C1854 1.400 . S
C1855 C1856 1.398 . S
C1855 C1861 1.491 . S
C1856 H1847 0.950 . S
C1856 C1855 1.398 . S
C1856 C1857 1.391 . S
C1857 H1845 0.950 1_455 S
C1857 C1853 1.393 1_455 S
C1857 C1856 1.391 . S
C1858 H1848 0.950 . S
C1858 C1859 1.386 . S
C1858 C1860 1.391 . S
C1859 C1858 1.386 . S
C1859 C1863 1.393 . S
C1860 H1849 0.950 . S
C1860 C1858 1.391 . S
C1860 C1861 1.400 . S
C1861 C1855 1.491 . S
C1861 C1860 1.400 . S
C1861 C1862 1.398 . S
C1862 H1850 0.950 . S
C1862 C1861 1.398 . S
C1862 C1863 1.391 . S
C1863 H1851 0.950 . S
C1863 C1859 1.393 . S
C1863 C1862 1.391 . S
H1864 C1872 0.950 . S
H1865 C1877 0.950 . S
H1866 C1874 0.950 . S
H1867 C1876 0.950 . S
H1868 C1878 0.950 . S
H1869 C1880 0.950 . S
H1870 C1882 0.950 . S
H1871 C1883 0.950 . S
C1872 H1864 0.950 . S
C1872 C1873 1.386 . S
C1872 C1874 1.391 . S
C1873 C1872 1.386 . S
C1873 C1877 1.393 . S
C1874 H1866 0.950 . S
C1874 C1872 1.391 . S
C1874 C1875 1.400 . S
C1875 C1874 1.400 . S
C1875 C1876 1.398 . S
C1875 C1881 1.491 . S
C1876 H1867 0.950 . S
C1876 C1875 1.398 . S
C1876 C1877 1.391 . S
C1877 H1865 0.950 . S
C1877 C1873 1.393 . S
C1877 C1876 1.391 . S
C1878 H1868 0.950 . S
C1878 C1879 1.386 . S
C1878 C1880 1.391 . S
C1879 C1878 1.386 . S
C1879 C1883 1.393 . S
C1880 H1869 0.950 . S
C1880 C1878 1.391 . S
C1880 C1881 1.400 . S
C1881 C1875 1.491 . S
C1881 C1880 1.400 . S
C1881 C1882 1.398 . S
C1882 H1870 0.950 . S
C1882 C1881 1.398 . S
C1882 C1883 1.391 . S
C1883 H1871 0.950 . S
C1883 C1879 1.393 . S
C1883 C1882 1.391 . S
H1884 C1892 0.950 . S
H1885 C1897 0.950 . S
H1886 C1894 0.950 . S
H1887 C1896 0.950 . S
H1888 C1898 0.950 . S
H1889 C1900 0.950 . S
H1890 C1902 0.950 . S
H1891 C1903 0.950 . S
C1892 H1884 0.950 . S
C1892 C1893 1.386 . S
C1892 C1894 1.391 . S
C1893 C1892 1.386 . S
C1893 C1897 1.393 . S
C1894 H1886 0.950 . S
C1894 C1892 1.391 . S
C1894 C1895 1.400 . S
C1895 C1894 1.400 . S
C1895 C1896 1.398 . S
C1895 C1901 1.491 . S
C1896 H1887 0.950 . S
C1896 C1895 1.398 . S
C1896 C1897 1.391 . S
C1897 H1885 0.950 . S
C1897 C1893 1.393 . S
C1897 C1896 1.391 . S
C1898 H1888 0.950 . S
C1898 C1899 1.386 . S
C1898 C1900 1.391 . S
C1899 C1898 1.386 . S
C1899 C1903 1.393 . S
C1900 H1889 0.950 . S
C1900 C1898 1.391 . S
C1900 C1901 1.400 . S
C1901 C1895 1.491 . S
C1901 C1900 1.400 . S
C1901 C1902 1.398 . S
C1902 H1890 0.950 . S
C1902 C1901 1.398 . S
C1902 C1903 1.391 . S
C1903 H1891 0.950 . S
C1903 C1899 1.393 . S
C1903 C1902 1.391 . S
H1904 C1912 0.950 . S
H1905 C1917 0.950 . S
H1906 C1914 0.950 . S
H1907 C1916 0.950 . S
H1908 C1918 0.950 . S
H1909 C1920 0.950 . S
H1910 C1922 0.950 . S
H1911 C1923 0.950 . S
C1912 H1904 0.950 . S
C1912 C1913 1.386 . S
C1912 C1914 1.391 . S
C1913 C1912 1.386 . S
C1913 C1917 1.393 . S
C1914 H1906 0.950 . S
C1914 C1912 1.391 . S
C1914 C1915 1.400 . S
C1915 C1914 1.400 . S
C1915 C1916 1.398 . S
C1915 C1921 1.491 . S
C1916 H1907 0.950 . S
C1916 C1915 1.398 . S
C1916 C1917 1.391 . S
C1917 H1905 0.950 . S
C1917 C1913 1.393 . S
C1917 C1916 1.391 . S
C1918 H1908 0.950 . S
C1918 C1919 1.386 . S
C1918 C1920 1.391 . S
C1919 C1918 1.386 . S
C1919 C1923 1.393 . S
C1920 H1909 0.950 . S
C1920 C1918 1.391 . S
C1920 C1921 1.400 . S
C1921 C1915 1.491 . S
C1921 C1920 1.400 . S
C1921 C1922 1.398 . S
C1922 H1910 0.950 . S
C1922 C1921 1.398 . S
C1922 C1923 1.391 . S
C1923 H1911 0.950 . S
C1923 C1919 1.393 . S
C1923 C1922 1.391 . S
H1924 C1932 0.950 . S
H1925 C1937 0.950 . S
H1926 C1934 0.950 . S
H1927 C1936 0.950 . S
H1928 C1938 0.950 . S
H1929 C1940 0.950 . S
H1930 C1942 0.950 . S
H1931 C1943 0.950 . S
C1932 H1924 0.950 . S
C1932 C1933 1.386 . S
C1932 C1934 1.391 . S
C1933 C1932 1.386 . S
C1933 C1937 1.393 . S
C1934 H1926 0.950 . S
C1934 C1932 1.391 . S
C1934 C1935 1.400 . S
C1935 C1934 1.400 . S
C1935 C1936 1.398 . S
C1935 C1941 1.491 . S
C1936 H1927 0.950 . S
C1936 C1935 1.398 . S
C1936 C1937 1.391 . S
C1937 H1925 0.950 . S
C1937 C1933 1.393 . S
C1937 C1936 1.391 . S
C1938 H1928 0.950 . S
C1938 C1939 1.386 . S
C1938 C1940 1.391 . S
C1939 C1938 1.386 . S
C1939 C1943 1.393 . S
C1940 H1929 0.950 . S
C1940 C1938 1.391 . S
C1940 C1941 1.400 . S
C1941 C1935 1.491 . S
C1941 C1940 1.400 . S
C1941 C1942 1.398 . S
C1942 H1930 0.950 . S
C1942 C1941 1.398 . S
C1942 C1943 1.391 . S
C1943 H1931 0.950 . S
C1943 C1939 1.393 . S
C1943 C1942 1.391 . S
H1944 C1952 0.950 . S
H1945 C1957 0.950 . S
H1946 C1954 0.950 . S
H1947 C1956 0.950 . S
H1948 C1958 0.950 . S
H1949 C1960 0.950 . S
H1950 C1962 0.950 . S
H1951 C1963 0.950 . S
C1952 H1944 0.950 . S
C1952 C1953 1.386 1_545 S
C1952 C1954 1.391 . S
C1953 C1952 1.386 1_565 S
C1953 C1957 1.393 . S
C1954 H1946 0.950 . S
C1954 C1952 1.391 . S
C1954 C1955 1.400 . S
C1955 C1954 1.400 . S
C1955 C1956 1.398 . S
C1955 C1961 1.491 . S
C1956 H1947 0.950 . S
C1956 C1955 1.398 . S
C1956 C1957 1.391 1_545 S
C1957 H1945 0.950 . S
C1957 C1953 1.393 . S
C1957 C1956 1.391 1_565 S
C1958 H1948 0.950 . S
C1958 C1959 1.386 . S
C1958 C1960 1.391 . S
C1959 C1958 1.386 . S
C1959 C1963 1.393 . S
C1960 H1949 0.950 . S
C1960 C1958 1.391 . S
C1960 C1961 1.400 . S
C1961 C1955 1.491 . S
C1961 C1960 1.400 . S
C1961 C1962 1.398 . S
C1962 H1950 0.950 . S
C1962 C1961 1.398 . S
C1962 C1963 1.391 . S
C1963 H1951 0.950 . S
C1963 C1959 1.393 . S
C1963 C1962 1.391 . S
H1964 C1972 0.950 . S
H1965 C1977 0.950 . S
H1966 C1974 0.950 . S
H1967 C1976 0.950 . S
H1968 C1978 0.950 . S
H1969 C1980 0.950 . S
H1970 C1982 0.950 . S
H1971 C1983 0.950 . S
C1972 H1964 0.950 . S
C1972 C1973 1.386 1_655 S
C1972 C1974 1.391 . S
C1973 C1972 1.386 1_455 S
C1973 C1977 1.393 . S
C1974 H1966 0.950 . S
C1974 C1972 1.391 . S
C1974 C1975 1.400 . S
C1975 C1974 1.400 . S
C1975 C1976 1.398 . S
C1975 C1981 1.491 . S
C1976 H1967 0.950 . S
C1976 C1975 1.398 . S
C1976 C1977 1.391 1_655 S
C1977 H1965 0.950 . S
C1977 C1973 1.393 . S
C1977 C1976 1.391 1_455 S
C1978 H1968 0.950 . S
C1978 C1979 1.386 . S
C1978 C1980 1.391 . S
C1979 C1978 1.386 . S
C1979 C1983 1.393 . S
C1980 H1969 0.950 . S
C1980 C1978 1.391 . S
C1980 C1981 1.400 . S
C1981 C1975 1.491 . S
C1981 C1980 1.400 . S
C1981 C1982 1.398 . S
C1982 H1970 0.950 . S
C1982 C1981 1.398 . S
C1982 C1983 1.391 . S
C1983 H1971 0.950 . S
C1983 C1979 1.393 . S
C1983 C1982 1.391 . S
H1984 C1992 0.950 . S
H1985 C1997 0.950 . S
H1986 C1994 0.950 . S
H1987 C1996 0.950 . S
H1988 C1998 0.950 . S
H1989 C2000 0.950 . S
H1990 C2002 0.950 . S
H1991 C2003 0.950 . S
C1992 H1984 0.950 . S
C1992 C1993 1.386 . S
C1992 C1994 1.391 . S
C1993 C1992 1.386 . S
C1993 C1997 1.393 . S
C1994 H1986 0.950 . S
C1994 C1992 1.391 . S
C1994 C1995 1.400 . S
C1995 C1994 1.400 . S
C1995 C1996 1.398 . S
C1995 C2001 1.491 . S
C1996 H1987 0.950 . S
C1996 C1995 1.398 . S
C1996 C1997 1.391 . S
C1997 H1985 0.950 . S
C1997 C1993 1.393 . S
C1997 C1996 1.391 . S
C1998 H1988 0.950 . S
C1998 C1999 1.386 . S
C1998 C2000 1.391 . S
C1999 C1998 1.386 . S
C1999 C2003 1.393 . S
C2000 H1989 0.950 . S
C2000 C1998 1.391 . S
C2000 C2001 1.400 . S
C2001 C1995 1.491 . S
C2001 C2000 1.400 . S
C2001 C2002 1.398 . S
C2002 H1990 0.950 . S
C2002 C2001 1.398 . S
C2002 C2003 1.391 . S
C2003 H1991 0.950 . S
C2003 C1999 1.393 . S
C2003 C2002 1.391 . S
H2004 C2012 0.950 . S
H2005 C2017 0.950 . S
H2006 C2014 0.950 . S
H2007 C2016 0.950 . S
H2008 C2018 0.950 . S
H2009 C2020 0.950 . S
H2010 C2022 0.950 . S
H2011 C2023 0.950 . S
C2012 H2004 0.950 . S
C2012 C2013 1.386 . S
C2012 C2014 1.391 1_455 S
C2013 C2012 1.386 . S
C2013 C2017 1.393 1_455 S
C2014 H2006 0.950 . S
C2014 C2012 1.391 1_655 S
C2014 C2015 1.400 . S
C2015 C2014 1.400 . S
C2015 C2016 1.398 . S
C2015 C2021 1.491 . S
C2016 H2007 0.950 . S
C2016 C2015 1.398 . S
C2016 C2017 1.391 . S
C2017 H2005 0.950 . S
C2017 C2013 1.393 1_655 S
C2017 C2016 1.391 . S
C2018 H2008 0.950 . S
C2018 C2019 1.386 . S
C2018 C2020 1.391 . S
C2019 C2018 1.386 . S
C2019 C2023 1.393 . S
C2020 H2009 0.950 . S
C2020 C2018 1.391 . S
C2020 C2021 1.400 . S
C2021 C2015 1.491 . S
C2021 C2020 1.400 . S
C2021 C2022 1.398 . S
C2022 H2010 0.950 . S
C2022 C2021 1.398 . S
C2022 C2023 1.391 . S
C2023 H2011 0.950 . S
C2023 C2019 1.393 . S
C2023 C2022 1.391 . S
H2024 C2032 0.950 . S
H2025 C2037 0.950 . S
H2026 C2034 0.950 . S
H2027 C2036 0.950 . S
H2028 C2038 0.950 . S
H2029 C2040 0.950 . S
H2030 C2042 0.950 . S
H2031 C2043 0.950 . S
C2032 H2024 0.950 . S
C2032 C2033 1.386 . S
C2032 C2034 1.391 . S
C2033 C2032 1.386 . S
C2033 C2037 1.393 . S
C2034 H2026 0.950 . S
C2034 C2032 1.391 . S
C2034 C2035 1.400 . S
C2035 C2034 1.400 . S
C2035 C2036 1.398 . S
C2035 C2041 1.491 . S
C2036 H2027 0.950 . S
C2036 C2035 1.398 . S
C2036 C2037 1.391 . S
C2037 H2025 0.950 . S
C2037 C2033 1.393 . S
C2037 C2036 1.391 . S
C2038 H2028 0.950 . S
C2038 C2039 1.386 . S
C2038 C2040 1.391 . S
C2039 C2038 1.386 . S
C2039 C2043 1.393 . S
C2040 H2029 0.950 . S
C2040 C2038 1.391 . S
C2040 C2041 1.400 . S
C2041 C2035 1.491 . S
C2041 C2040 1.400 . S
C2041 C2042 1.398 . S
C2042 H2030 0.950 . S
C2042 C2041 1.398 . S
C2042 C2043 1.391 . S
C2043 H2031 0.950 . S
C2043 C2039 1.393 . S
C2043 C2042 1.391 . S
H2044 C2052 0.950 . S
H2045 C2057 0.950 . S
H2046 C2054 0.950 . S
H2047 C2056 0.950 . S
H2048 C2058 0.950 . S
H2049 C2060 0.950 . S
H2050 C2062 0.950 . S
H2051 C2063 0.950 . S
C2052 H2044 0.950 . S
C2052 C2053 1.386 . S
C2052 C2054 1.391 1_565 S
C2053 C2052 1.386 . S
C2053 C2057 1.393 . S
C2054 H2046 0.950 . S
C2054 C2052 1.391 1_545 S
C2054 C2055 1.400 . S
C2055 C2054 1.400 . S
C2055 C2056 1.398 . S
C2055 C2061 1.491 . S
C2056 H2047 0.950 . S
C2056 C2055 1.398 . S
C2056 C2057 1.391 1_545 S
C2057 H2045 0.950 . S
C2057 C2053 1.393 . S
C2057 C2056 1.391 1_565 S
C2058 H2048 0.950 . S
C2058 C2059 1.386 . S
C2058 C2060 1.391 . S
C2059 C2058 1.386 . S
C2059 C2063 1.393 . S
C2060 H2049 0.950 . S
C2060 C2058 1.391 . S
C2060 C2061 1.400 . S
C2061 C2055 1.491 . S
C2061 C2060 1.400 . S
C2061 C2062 1.398 . S
C2062 H2050 0.950 . S
C2062 C2061 1.398 . S
C2062 C2063 1.391 . S
C2063 H2051 0.950 . S
C2063 C2059 1.393 . S
C2063 C2062 1.391 . S
H2064 C2072 0.950 . S
H2065 C2077 0.950 . S
H2066 C2074 0.950 . S
H2067 C2076 0.950 . S
H2068 C2078 0.950 . S
H2069 C2080 0.950 . S
H2070 C2082 0.950 . S
H2071 C2083 0.950 . S
C2072 H2064 0.950 . S
C2072 C2073 1.386 . S
C2072 C2074 1.391 . S
C2073 C2072 1.386 . S
C2073 C2077 1.393 . S
C2074 H2066 0.950 . S
C2074 C2072 1.391 . S
C2074 C2075 1.400 . S
C2075 C2074 1.400 . S
C2075 C2076 1.398 . S
C2075 C2081 1.491 . S
C2076 H2067 0.950 . S
C2076 C2075 1.398 . S
C2076 C2077 1.391 . S
C2077 H2065 0.950 . S
C2077 C2073 1.393 . S
C2077 C2076 1.391 . S
C2078 H2068 0.950 . S
C2078 C2079 1.386 . S
C2078 C2080 1.391 . S
C2079 C2078 1.386 . S
C2079 C2083 1.393 . S
C2080 H2069 0.950 . S
C2080 C2078 1.391 . S
C2080 C2081 1.400 . S
C2081 C2075 1.491 . S
C2081 C2080 1.400 . S
C2081 C2082 1.398 . S
C2082 H2070 0.950 . S
C2082 C2081 1.398 . S
C2082 C2083 1.391 . S
C2083 H2071 0.950 . S
C2083 C2079 1.393 . S
C2083 C2082 1.391 . S
H2084 C2092 0.950 . S
H2085 C2097 0.950 . S
H2086 C2094 0.950 . S
H2087 C2096 0.950 . S
H2088 C2098 0.950 . S
H2089 C2100 0.950 . S
H2090 C2102 0.950 . S
H2091 C2103 0.950 . S
C2092 H2084 0.950 . S
C2092 C2093 1.386 . S
C2092 C2094 1.391 . S
C2093 C2092 1.386 . S
C2093 C2097 1.393 . S
C2094 H2086 0.950 . S
C2094 C2092 1.391 . S
C2094 C2095 1.400 . S
C2095 C2094 1.400 . S
C2095 C2096 1.398 . S
C2095 C2101 1.491 . S
C2096 H2087 0.950 . S
C2096 C2095 1.398 . S
C2096 C2097 1.391 . S
C2097 H2085 0.950 . S
C2097 C2093 1.393 . S
C2097 C2096 1.391 . S
C2098 H2088 0.950 . S
C2098 C2099 1.386 . S
C2098 C2100 1.391 . S
C2099 C2098 1.386 . S
C2099 C2103 1.393 . S
C2100 H2089 0.950 . S
C2100 C2098 1.391 . S
C2100 C2101 1.400 . S
C2101 C2095 1.491 . S
C2101 C2100 1.400 . S
C2101 C2102 1.398 . S
C2102 H2090 0.950 . S
C2102 C2101 1.398 . S
C2102 C2103 1.391 . S
C2103 H2091 0.950 . S
C2103 C2099 1.393 . S
C2103 C2102 1.391 . S
H2104 C2112 0.950 . S
H2105 C2117 0.950 . S
H2106 C2114 0.950 . S
H2107 C2116 0.950 . S
H2108 C2118 0.950 . S
H2109 C2120 0.950 . S
H2110 C2122 0.950 . S
H2111 C2123 0.950 . S
C2112 H2104 0.950 . S
C2112 C2113 1.386 . S
C2112 C2114 1.391 . S
C2113 C2112 1.386 . S
C2113 C2117 1.393 . S
C2114 H2106 0.950 . S
C2114 C2112 1.391 . S
C2114 C2115 1.400 . S
C2115 C2114 1.400 . S
C2115 C2116 1.398 . S
C2115 C2121 1.491 . S
C2116 H2107 0.950 . S
C2116 C2115 1.398 . S
C2116 C2117 1.391 . S
C2117 H2105 0.950 . S
C2117 C2113 1.393 . S
C2117 C2116 1.391 . S
C2118 H2108 0.950 . S
C2118 C2119 1.386 . S
C2118 C2120 1.391 . S
C2119 C2118 1.386 . S
C2119 C2123 1.393 . S
C2120 H2109 0.950 . S
C2120 C2118 1.391 . S
C2120 C2121 1.400 . S
C2121 C2115 1.491 . S
C2121 C2120 1.400 . S
C2121 C2122 1.398 . S
C2122 H2110 0.950 . S
C2122 C2121 1.398 . S
C2122 C2123 1.391 . S
C2123 H2111 0.950 . S
C2123 C2119 1.393 . S
C2123 C2122 1.391 . S
H2124 C2132 0.950 . S
H2125 C2137 0.950 . S
H2126 C2134 0.950 . S
H2127 C2136 0.950 . S
H2128 C2138 0.950 1_545 S
H2129 C2140 0.950 . S
H2130 C2142 0.950 . S
H2131 C2143 0.950 . S
C2132 H2124 0.950 . S
C2132 C2133 1.386 . S
C2132 C2134 1.391 . S
C2133 C2132 1.386 . S
C2133 C2137 1.393 . S
C2134 H2126 0.950 . S
C2134 C2132 1.391 . S
C2134 C2135 1.400 . S
C2135 C2134 1.400 . S
C2135 C2136 1.398 . S
C2135 C2141 1.491 . S
C2136 H2127 0.950 . S
C2136 C2135 1.398 . S
C2136 C2137 1.391 . S
C2137 H2125 0.950 . S
C2137 C2133 1.393 . S
C2137 C2136 1.391 . S
C2138 H2128 0.950 1_565 S
C2138 C2139 1.386 . S
C2138 C2140 1.391 . S
C2139 C2138 1.386 . S
C2139 C2143 1.393 . S
C2140 H2129 0.950 . S
C2140 C2138 1.391 . S
C2140 C2141 1.400 . S
C2141 C2135 1.491 . S
C2141 C2140 1.400 . S
C2141 C2142 1.398 . S
C2142 H2130 0.950 . S
C2142 C2141 1.398 . S
C2142 C2143 1.391 . S
C2143 H2131 0.950 . S
C2143 C2139 1.393 . S
C2143 C2142 1.391 . S
H2144 C2152 0.950 . S
H2145 C2157 0.950 . S
H2146 C2154 0.950 . S
H2147 C2156 0.950 . S
H2148 C2158 0.950 . S
H2149 C2160 0.950 . S
H2150 C2162 0.950 . S
H2151 C2163 0.950 . S
C2152 H2144 0.950 . S
C2152 C2153 1.386 . S
C2152 C2154 1.391 . S
C2153 C2152 1.386 . S
C2153 C2157 1.393 . S
C2154 H2146 0.950 . S
C2154 C2152 1.391 . S
C2154 C2155 1.400 . S
C2155 C2154 1.400 . S
C2155 C2156 1.398 . S
C2155 C2161 1.491 . S
C2156 H2147 0.950 . S
C2156 C2155 1.398 . S
C2156 C2157 1.391 . S
C2157 H2145 0.950 . S
C2157 C2153 1.393 . S
C2157 C2156 1.391 . S
C2158 H2148 0.950 . S
C2158 C2159 1.386 . S
C2158 C2160 1.391 . S
C2159 C2158 1.386 . S
C2159 C2163 1.393 . S
C2160 H2149 0.950 . S
C2160 C2158 1.391 . S
C2160 C2161 1.400 . S
C2161 C2155 1.491 . S
C2161 C2160 1.400 . S
C2161 C2162 1.398 . S
C2162 H2150 0.950 . S
C2162 C2161 1.398 . S
C2162 C2163 1.391 . S
C2163 H2151 0.950 . S
C2163 C2159 1.393 . S
C2163 C2162 1.391 . S
H2164 C2172 0.950 . S
H2165 C2177 0.950 . S
H2166 C2174 0.950 . S
H2167 C2176 0.950 . S
H2168 C2178 0.950 . S
H2169 C2180 0.950 . S
H2170 C2182 0.950 . S
H2171 C2183 0.950 . S
C2172 H2164 0.950 . S
C2172 C2173 1.386 . S
C2172 C2174 1.391 . S
C2173 C2172 1.386 . S
C2173 C2177 1.393 . S
C2174 H2166 0.950 . S
C2174 C2172 1.391 . S
C2174 C2175 1.400 . S
C2175 C2174 1.400 . S
C2175 C2176 1.398 . S
C2175 C2181 1.491 . S
C2176 H2167 0.950 . S
C2176 C2175 1.398 . S
C2176 C2177 1.391 . S
C2177 H2165 0.950 . S
C2177 C2173 1.393 . S
C2177 C2176 1.391 . S
C2178 H2168 0.950 . S
C2178 C2179 1.386 . S
C2178 C2180 1.391 . S
C2179 C2178 1.386 . S
C2179 C2183 1.393 . S
C2180 H2169 0.950 . S
C2180 C2178 1.391 . S
C2180 C2181 1.400 . S
C2181 C2175 1.491 . S
C2181 C2180 1.400 . S
C2181 C2182 1.398 . S
C2182 H2170 0.950 . S
C2182 C2181 1.398 . S
C2182 C2183 1.391 . S
C2183 H2171 0.950 . S
C2183 C2179 1.393 . S
C2183 C2182 1.391 . S
H2184 C2192 0.950 . S
H2185 C2197 0.950 . S
H2186 C2194 0.950 . S
H2187 C2196 0.950 . S
H2188 C2198 0.935 1_455 S
H2189 C2200 0.950 . S
H2190 C2202 0.950 . S
H2191 C2203 0.950 . S
C2192 H2184 0.950 . S
C2192 C2193 1.386 . S
C2192 C2194 1.391 . S
C2193 C2192 1.386 . S
C2193 C2197 1.393 . S
C2194 H2186 0.950 . S
C2194 C2192 1.391 . S
C2194 C2195 1.400 . S
C2195 C2194 1.400 . S
C2195 C2196 1.398 . S
C2195 C2201 1.491 . S
C2196 H2187 0.950 . S
C2196 C2195 1.398 . S
C2196 C2197 1.391 . S
C2197 H2185 0.950 . S
C2197 C2193 1.393 . S
C2197 C2196 1.391 . S
C2198 H2188 0.935 1_655 S
C2198 C2199 1.386 . S
C2198 C2200 1.391 . S
C2199 C2198 1.386 . S
C2199 C2203 1.393 . S
C2200 H2189 0.950 . S
C2200 C2198 1.391 . S
C2200 C2201 1.400 . S
C2201 C2195 1.491 . S
C2201 C2200 1.400 . S
C2201 C2202 1.398 . S
C2202 H2190 0.950 . S
C2202 C2201 1.398 . S
C2202 C2203 1.391 . S
C2203 H2191 0.950 . S
C2203 C2199 1.393 . S
C2203 C2202 1.391 . S
H2204 C2212 0.950 . S
H2205 C2217 0.950 . S
H2206 C2214 0.950 . S
H2207 C2216 0.950 . S
H2208 C2218 0.950 . S
H2209 C2220 0.950 . S
H2210 C2222 0.950 . S
H2211 C2223 0.950 . S
C2212 H2204 0.950 . S
C2212 C2213 1.386 . S
C2212 C2214 1.391 . S
C2213 C2212 1.386 . S
C2213 C2217 1.393 . S
C2214 H2206 0.950 . S
C2214 C2212 1.391 . S
C2214 C2215 1.400 . S
C2215 C2214 1.400 . S
C2215 C2216 1.398 . S
C2215 C2221 1.491 . S
C2216 H2207 0.950 . S
C2216 C2215 1.398 . S
C2216 C2217 1.391 . S
C2217 H2205 0.950 . S
C2217 C2213 1.393 . S
C2217 C2216 1.391 . S
C2218 H2208 0.950 . S
C2218 C2219 1.386 . S
C2218 C2220 1.391 . S
C2219 C2218 1.386 . S
C2219 C2223 1.393 . S
C2220 H2209 0.950 . S
C2220 C2218 1.391 . S
C2220 C2221 1.400 . S
C2221 C2215 1.491 . S
C2221 C2220 1.400 . S
C2221 C2222 1.398 . S
C2222 H2210 0.950 . S
C2222 C2221 1.398 . S
C2222 C2223 1.391 . S
C2223 H2211 0.950 . S
C2223 C2219 1.393 . S
C2223 C2222 1.391 . S
H2224 C2232 0.950 . S
H2225 C2237 0.950 . S
H2226 C2234 0.950 . S
H2227 C2236 0.950 . S
H2228 C2238 0.950 1_565 S
H2229 C2240 0.950 . S
H2230 C2242 0.950 . S
H2231 C2243 0.950 . S
C2232 H2224 0.950 . S
C2232 C2233 1.386 . S
C2232 C2234 1.391 . S
C2233 C2232 1.386 . S
C2233 C2237 1.393 . S
C2234 H2226 0.950 . S
C2234 C2232 1.391 . S
C2234 C2235 1.400 . S
C2235 C2234 1.400 . S
C2235 C2236 1.398 . S
C2235 C2241 1.491 . S
C2236 H2227 0.950 . S
C2236 C2235 1.398 . S
C2236 C2237 1.391 . S
C2237 H2225 0.950 . S
C2237 C2233 1.393 . S
C2237 C2236 1.391 . S
C2238 H2228 0.950 1_545 S
C2238 C2239 1.386 . S
C2238 C2240 1.391 . S
C2239 C2238 1.386 . S
C2239 C2243 1.393 . S
C2240 H2229 0.950 . S
C2240 C2238 1.391 . S
C2240 C2241 1.400 . S
C2241 C2235 1.491 . S
C2241 C2240 1.400 . S
C2241 C2242 1.398 . S
C2242 H2230 0.950 . S
C2242 C2241 1.398 . S
C2242 C2243 1.391 . S
C2243 H2231 0.950 . S
C2243 C2239 1.393 . S
C2243 C2242 1.391 . S
H2244 C2252 0.950 . S
H2245 C2257 0.950 . S
H2246 C2254 0.950 . S
H2247 C2256 0.950 . S
H2248 C2258 0.950 . S
H2249 C2260 0.950 . S
H2250 C2262 0.950 . S
H2251 C2263 0.950 . S
C2252 H2244 0.950 . S
C2252 C2253 1.386 . S
C2252 C2254 1.391 . S
C2253 C2252 1.386 . S
C2253 C2257 1.393 . S
C2254 H2246 0.950 . S
C2254 C2252 1.391 . S
C2254 C2255 1.400 . S
C2255 C2254 1.400 . S
C2255 C2256 1.398 . S
C2255 C2261 1.491 . S
C2256 H2247 0.950 . S
C2256 C2255 1.398 . S
C2256 C2257 1.391 . S
C2257 H2245 0.950 . S
C2257 C2253 1.393 . S
C2257 C2256 1.391 . S
C2258 H2248 0.950 . S
C2258 C2259 1.386 . S
C2258 C2260 1.391 . S
C2259 C2258 1.386 . S
C2259 C2263 1.393 . S
C2260 H2249 0.950 . S
C2260 C2258 1.391 . S
C2260 C2261 1.400 . S
C2261 C2255 1.491 . S
C2261 C2260 1.400 . S
C2261 C2262 1.398 . S
C2262 H2250 0.950 . S
C2262 C2261 1.398 . S
C2262 C2263 1.391 . S
C2263 H2251 0.950 . S
C2263 C2259 1.393 . S
C2263 C2262 1.391 . S
H2264 C2272 0.950 . S
H2265 C2277 0.950 . S
H2266 C2274 0.950 . S
H2267 C2276 0.950 . S
H2268 C2278 0.950 . S
H2269 C2280 0.950 . S
H2270 C2282 0.950 . S
H2271 C2283 0.950 . S
C2272 H2264 0.950 . S
C2272 C2273 1.386 . S
C2272 C2274 1.391 . S
C2273 C2272 1.386 . S
C2273 C2277 1.393 . S
C2274 H2266 0.950 . S
C2274 C2272 1.391 . S
C2274 C2275 1.400 . S
C2275 C2274 1.400 . S
C2275 C2276 1.398 . S
C2275 C2281 1.491 . S
C2276 H2267 0.950 . S
C2276 C2275 1.398 . S
C2276 C2277 1.391 . S
C2277 H2265 0.950 . S
C2277 C2273 1.393 . S
C2277 C2276 1.391 . S
C2278 H2268 0.950 . S
C2278 C2279 1.386 . S
C2278 C2280 1.391 . S
C2279 C2278 1.386 . S
C2279 C2283 1.393 . S
C2280 H2269 0.950 . S
C2280 C2278 1.391 . S
C2280 C2281 1.400 . S
C2281 C2275 1.491 . S
C2281 C2280 1.400 . S
C2281 C2282 1.398 . S
C2282 H2270 0.950 . S
C2282 C2281 1.398 . S
C2282 C2283 1.391 . S
C2283 H2271 0.950 . S
C2283 C2279 1.393 . S
C2283 C2282 1.391 . S
H2284 C2292 0.950 . S
H2285 C2297 0.950 . S
H2286 C2294 0.950 . S
H2287 C2296 0.950 . S
H2288 C2298 0.950 . S
H2289 C2300 0.950 . S
H2290 C2302 0.950 . S
H2291 C2303 0.950 . S
C2292 H2284 0.950 . S
C2292 C2293 1.386 . S
C2292 C2294 1.391 . S
C2293 C2292 1.386 . S
C2293 C2297 1.393 . S
C2294 H2286 0.950 . S
C2294 C2292 1.391 . S
C2294 C2295 1.400 . S
C2295 C2294 1.400 . S
C2295 C2296 1.398 . S
C2295 C2301 1.491 . S
C2296 H2287 0.950 . S
C2296 C2295 1.398 . S
C2296 C2297 1.391 . S
C2297 H2285 0.950 . S
C2297 C2293 1.393 . S
C2297 C2296 1.391 . S
C2298 H2288 0.950 . S
C2298 C2299 1.386 . S
C2298 C2300 1.391 . S
C2299 C2298 1.386 . S
C2299 C2303 1.393 . S
C2300 H2289 0.950 . S
C2300 C2298 1.391 . S
C2300 C2301 1.400 . S
C2301 C2295 1.491 . S
C2301 C2300 1.400 . S
C2301 C2302 1.398 . S
C2302 H2290 0.950 . S
C2302 C2301 1.398 . S
C2302 C2303 1.391 . S
C2303 H2291 0.950 . S
C2303 C2299 1.393 . S
C2303 C2302 1.391 . S
H2304 C2312 0.950 . S
H2305 C2317 0.950 . S
H2306 C2314 0.950 . S
H2307 C2316 0.950 . S
H2308 C2318 0.950 . S
H2309 C2320 0.950 . S
H2310 C2322 0.950 . S
H2311 C2323 0.950 . S
C2312 H2304 0.950 . S
C2312 C2313 1.386 . S
C2312 C2314 1.391 . S
C2313 C2312 1.386 . S
C2313 C2317 1.393 . S
C2314 H2306 0.950 . S
C2314 C2312 1.391 . S
C2314 C2315 1.400 . S
C2315 C2314 1.400 . S
C2315 C2316 1.398 . S
C2315 C2321 1.491 . S
C2316 H2307 0.950 . S
C2316 C2315 1.398 . S
C2316 C2317 1.391 . S
C2317 H2305 0.950 . S
C2317 C2313 1.393 . S
C2317 C2316 1.391 . S
C2318 H2308 0.950 . S
C2318 C2319 1.386 . S
C2318 C2320 1.391 . S
C2319 C2318 1.386 . S
C2319 C2323 1.393 . S
C2320 H2309 0.950 . S
C2320 C2318 1.391 . S
C2320 C2321 1.400 . S
C2321 C2315 1.491 . S
C2321 C2320 1.400 . S
C2321 C2322 1.398 . S
C2322 H2310 0.950 . S
C2322 C2321 1.398 . S
C2322 C2323 1.391 . S
C2323 H2311 0.950 . S
C2323 C2319 1.393 . S
C2323 C2322 1.391 . S
H2324 C2332 0.950 . S
H2325 C2337 0.950 . S
H2326 C2334 0.950 . S
H2327 C2336 0.950 . S
H2328 C2338 0.950 . S
H2329 C2340 0.950 . S
H2330 C2342 0.950 . S
H2331 C2343 0.950 . S
C2332 H2324 0.950 . S
C2332 C2333 1.386 . S
C2332 C2334 1.391 . S
C2333 C2332 1.386 . S
C2333 C2337 1.393 . S
C2334 H2326 0.950 . S
C2334 C2332 1.391 . S
C2334 C2335 1.400 . S
C2335 C2334 1.400 . S
C2335 C2336 1.398 . S
C2335 C2341 1.491 . S
C2336 H2327 0.950 . S
C2336 C2335 1.398 . S
C2336 C2337 1.391 . S
C2337 H2325 0.950 . S
C2337 C2333 1.393 . S
C2337 C2336 1.391 . S
C2338 H2328 0.950 . S
C2338 C2339 1.386 . S
C2338 C2340 1.391 . S
C2339 C2338 1.386 . S
C2339 C2343 1.393 . S
C2340 H2329 0.950 . S
C2340 C2338 1.391 . S
C2340 C2341 1.400 . S
C2341 C2335 1.491 . S
C2341 C2340 1.400 . S
C2341 C2342 1.398 . S
C2342 H2330 0.950 . S
C2342 C2341 1.398 . S
C2342 C2343 1.391 . S
C2343 H2331 0.950 . S
C2343 C2339 1.393 . S
C2343 C2342 1.391 . S
H2344 C2352 0.950 . S
H2345 C2357 0.950 . S
H2346 C2354 0.950 . S
H2347 C2356 0.950 . S
H2348 C2358 0.950 . S
H2349 C2360 0.950 . S
H2350 C2362 0.950 . S
H2351 C2363 0.950 . S
C2352 H2344 0.950 . S
C2352 C2353 1.386 . S
C2352 C2354 1.391 . S
C2353 C2352 1.386 . S
C2353 C2357 1.393 . S
C2354 H2346 0.950 . S
C2354 C2352 1.391 . S
C2354 C2355 1.400 . S
C2355 C2354 1.400 . S
C2355 C2356 1.398 . S
C2355 C2361 1.491 . S
C2356 H2347 0.950 . S
C2356 C2355 1.398 . S
C2356 C2357 1.391 . S
C2357 H2345 0.950 . S
C2357 C2353 1.393 . S
C2357 C2356 1.391 . S
C2358 H2348 0.950 . S
C2358 C2359 1.386 . S
C2358 C2360 1.391 . S
C2359 C2358 1.386 . S
C2359 C2363 1.393 . S
C2360 H2349 0.950 . S
C2360 C2358 1.391 . S
C2360 C2361 1.400 . S
C2361 C2355 1.491 . S
C2361 C2360 1.400 . S
C2361 C2362 1.398 . S
C2362 H2350 0.950 . S
C2362 C2361 1.398 . S
C2362 C2363 1.391 . S
C2363 H2351 0.950 . S
C2363 C2359 1.393 . S
C2363 C2362 1.391 . S
H2364 C2372 0.950 . S
H2365 C2377 0.950 . S
H2366 C2374 0.950 . S
H2367 C2376 0.950 . S
H2368 C2378 0.950 . S
H2369 C2380 0.950 . S
H2370 C2382 0.950 . S
H2371 C2383 0.950 . S
C2372 H2364 0.950 . S
C2372 C2373 1.386 . S
C2372 C2374 1.391 . S
C2373 C2372 1.386 . S
C2373 C2377 1.393 . S
C2374 H2366 0.950 . S
C2374 C2372 1.391 . S
C2374 C2375 1.400 . S
C2375 C2374 1.400 . S
C2375 C2376 1.398 . S
C2375 C2381 1.491 . S
C2376 H2367 0.950 . S
C2376 C2375 1.398 . S
C2376 C2377 1.391 . S
C2377 H2365 0.950 . S
C2377 C2373 1.393 . S
C2377 C2376 1.391 . S
C2378 H2368 0.950 . S
C2378 C2379 1.386 . S
C2378 C2380 1.391 . S
C2379 C2378 1.386 . S
C2379 C2383 1.393 . S
C2380 H2369 0.950 . S
C2380 C2378 1.391 . S
C2380 C2381 1.400 . S
C2381 C2375 1.491 . S
C2381 C2380 1.400 . S
C2381 C2382 1.398 . S
C2382 H2370 0.950 . S
C2382 C2381 1.398 . S
C2382 C2383 1.391 . S
C2383 H2371 0.950 . S
C2383 C2379 1.393 . S
C2383 C2382 1.391 . S
H2384 C2392 0.950 . S
H2385 C2397 0.950 . S
H2386 C2394 0.950 . S
H2387 C2396 0.950 . S
H2388 C2398 0.950 . S
H2389 C2400 0.950 . S
H2390 C2402 0.950 . S
H2391 C2403 0.950 . S
C2392 H2384 0.950 . S
C2392 C2393 1.386 . S
C2392 C2394 1.391 . S
C2393 C2392 1.386 . S
C2393 C2397 1.393 . S
C2394 H2386 0.950 . S
C2394 C2392 1.391 . S
C2394 C2395 1.400 . S
C2395 C2394 1.400 . S
C2395 C2396 1.398 . S
C2395 C2401 1.491 . S
C2396 H2387 0.950 . S
C2396 C2395 1.398 . S
C2396 C2397 1.391 . S
C2397 H2385 0.950 . S
C2397 C2393 1.393 . S
C2397 C2396 1.391 . S
C2398 H2388 0.950 . S
C2398 C2399 1.386 . S
C2398 C2400 1.391 . S
C2399 C2398 1.386 . S
C2399 C2403 1.393 . S
C2400 H2389 0.950 . S
C2400 C2398 1.391 . S
C2400 C2401 1.400 . S
C2401 C2395 1.491 . S
C2401 C2400 1.400 . S
C2401 C2402 1.398 . S
C2402 H2390 0.950 . S
C2402 C2401 1.398 . S
C2402 C2403 1.391 . S
C2403 H2391 0.950 . S
C2403 C2399 1.393 . S
C2403 C2402 1.391 . S
H2404 C2412 0.950 . S
H2405 C2417 0.950 . S
H2406 C2414 0.950 . S
H2407 C2416 0.950 . S
H2408 C2418 0.950 . S
H2409 C2420 0.950 . S
H2410 C2422 0.950 . S
H2411 C2423 0.950 . S
C2412 H2404 0.950 . S
C2412 C2413 1.386 . S
C2412 C2414 1.391 . S
C2413 C2412 1.386 . S
C2413 C2417 1.393 . S
C2414 H2406 0.950 . S
C2414 C2412 1.391 . S
C2414 C2415 1.400 . S
C2415 C2414 1.400 . S
C2415 C2416 1.398 . S
C2415 C2421 1.491 . S
C2416 H2407 0.950 . S
C2416 C2415 1.398 . S
C2416 C2417 1.391 . S
C2417 H2405 0.950 . S
C2417 C2413 1.393 . S
C2417 C2416 1.391 . S
C2418 H2408 0.950 . S
C2418 C2419 1.386 . S
C2418 C2420 1.391 . S
C2419 C2418 1.386 . S
C2419 C2423 1.393 . S
C2420 H2409 0.950 . S
C2420 C2418 1.391 . S
C2420 C2421 1.400 . S
C2421 C2415 1.491 . S
C2421 C2420 1.400 . S
C2421 C2422 1.398 . S
C2422 H2410 0.950 . S
C2422 C2421 1.398 . S
C2422 C2423 1.391 . S
C2423 H2411 0.950 . S
C2423 C2419 1.393 . S
C2423 C2422 1.391 . S
H2424 C2432 0.950 . S
H2425 C2437 0.950 . S
H2426 C2434 0.950 . S
H2427 C2436 0.950 . S
H2428 C2438 0.950 . S
H2429 C2440 0.950 . S
H2430 C2442 0.950 . S
H2431 C2443 0.950 . S
C2432 H2424 0.950 . S
C2432 C2433 1.386 . S
C2432 C2434 1.391 . S
C2433 C2432 1.386 . S
C2433 C2437 1.393 . S
C2434 H2426 0.950 . S
C2434 C2432 1.391 . S
C2434 C2435 1.400 . S
C2435 C2434 1.400 . S
C2435 C2436 1.398 . S
C2435 C2441 1.491 . S
C2436 H2427 0.950 . S
C2436 C2435 1.398 . S
C2436 C2437 1.391 . S
C2437 H2425 0.950 . S
C2437 C2433 1.393 . S
C2437 C2436 1.391 . S
C2438 H2428 0.950 . S
C2438 C2439 1.386 . S
C2438 C2440 1.391 . S
C2439 C2438 1.386 . S
C2439 C2443 1.393 . S
C2440 H2429 0.950 . S
C2440 C2438 1.391 . S
C2440 C2441 1.400 . S
C2441 C2435 1.491 . S
C2441 C2440 1.400 . S
C2441 C2442 1.398 . S
C2442 H2430 0.950 . S
C2442 C2441 1.398 . S
C2442 C2443 1.391 . S
C2443 H2431 0.950 . S
C2443 C2439 1.393 . S
C2443 C2442 1.391 . S
H2444 C2452 0.950 . S
H2445 C2457 0.950 . S
H2446 C2454 0.950 . S
H2447 C2456 0.950 . S
H2448 C2458 0.950 . S
H2449 C2460 0.950 . S
H2450 C2462 0.950 . S
H2451 C2463 0.950 . S
C2452 H2444 0.950 . S
C2452 C2453 1.386 . S
C2452 C2454 1.391 . S
C2453 C2452 1.386 . S
C2453 C2457 1.393 . S
C2454 H2446 0.950 . S
C2454 C2452 1.391 . S
C2454 C2455 1.400 . S
C2455 C2454 1.400 . S
C2455 C2456 1.398 . S
C2455 C2461 1.491 . S
C2456 H2447 0.950 . S
C2456 C2455 1.398 . S
C2456 C2457 1.391 . S
C2457 H2445 0.950 . S
C2457 C2453 1.393 . S
C2457 C2456 1.391 . S
C2458 H2448 0.950 . S
C2458 C2459 1.386 . S
C2458 C2460 1.391 . S
C2459 C2458 1.386 . S
C2459 C2463 1.393 . S
C2460 H2449 0.950 . S
C2460 C2458 1.391 . S
C2460 C2461 1.400 . S
C2461 C2455 1.491 . S
C2461 C2460 1.400 . S
C2461 C2462 1.398 . S
C2462 H2450 0.950 . S
C2462 C2461 1.398 . S
C2462 C2463 1.391 . S
C2463 H2451 0.950 . S
C2463 C2459 1.393 . S
C2463 C2462 1.391 . S
H2464 C2472 0.950 . S
H2465 C2477 0.950 . S
H2466 C2474 0.950 . S
H2467 C2476 0.950 . S
H2468 C2478 0.950 . S
H2469 C2480 0.950 . S
H2470 C2482 0.950 . S
H2471 C2483 0.950 . S
C2472 H2464 0.950 . S
C2472 C2473 1.386 . S
C2472 C2474 1.391 . S
C2473 C2472 1.386 . S
C2473 C2477 1.393 . S
C2474 H2466 0.950 . S
C2474 C2472 1.391 . S
C2474 C2475 1.400 . S
C2475 C2474 1.400 . S
C2475 C2476 1.398 . S
C2475 C2481 1.491 . S
C2476 H2467 0.950 . S
C2476 C2475 1.398 . S
C2476 C2477 1.391 . S
C2477 H2465 0.950 . S
C2477 C2473 1.393 . S
C2477 C2476 1.391 . S
C2478 H2468 0.950 . S
C2478 C2479 1.386 . S
C2478 C2480 1.391 . S
C2479 C2478 1.386 . S
C2479 C2483 1.393 . S
C2480 H2469 0.950 . S
C2480 C2478 1.391 . S
C2480 C2481 1.400 . S
C2481 C2475 1.491 . S
C2481 C2480 1.400 . S
C2481 C2482 1.398 . S
C2482 H2470 0.950 . S
C2482 C2481 1.398 . S
C2482 C2483 1.391 . S
C2483 H2471 0.950 . S
C2483 C2479 1.393 . S
C2483 C2482 1.391 . S
C1413 C469 1.443 . S
C1419 C704 1.365 . S
C1433 C505 1.465 . S
C1439 C788 1.376 . S
C1453 C433 1.477 . S
C1459 C882 1.423 . S
C1473 C397 1.434 . S
C1479 C798 1.385 . S
C1499 C872 1.317 . S
C1493 C325 1.404 . S
C1513 C361 1.422 . S
C1519 C714 1.384 . S
C1539 C715 1.376 . S
C1533 C421 1.444 . S
C1559 C799 1.377 . S
C1553 C349 1.467 . S
C1573 C385 1.478 . S
C1579 C891 1.420 . S
C1593 C493 1.434 . S
C1599 C807 1.380 . S
C1613 C529 1.402 . S
C1619 C883 1.342 . S
C1639 C723 1.358 . S
C1633 C457 1.417 . S
C1659 C956 1.361 . S
C1653 C37 1.446 . S
C1673 C73 1.465 . S
C1679 C1040 1.375 . S
C1693 C1 1.481 . S
C1699 C1134 1.441 . S
C1713 C613 1.434 . S
C1719 C1050 1.383 . S
C1733 C541 1.404 . S
C1739 C1124 1.316 . S
C1753 C577 1.422 . S
C1759 C966 1.384 . S
C1773 C637 1.442 . S
C1779 C967 1.381 . S
C1793 C565 1.465 . S
C1799 C1051 1.388 . S
C1819 C1143 1.417 . S
C1813 C601 1.476 . S
C1833 C61 1.437 . S
C1839 C1059 1.400 . S
C1859 C1135 1.319 . S
C1853 C97 1.405 . S
C1873 C25 1.422 . S
C1879 C975 1.369 . S
C1899 C1208 1.380 . S
C1893 C253 1.446 . S
C1913 C289 1.466 . S
C1919 C1292 1.388 . S
C1939 C1386 1.425 . S
C1933 C217 1.478 . S
C1959 C1302 1.389 . S
C1953 C181 1.435 . S
C1979 C1376 1.309 . S
C1973 C109 1.403 . S
C1993 C145 1.416 . S
C1999 C1218 1.357 . S
C2013 C205 1.446 . S
C2019 C1219 1.349 . S
C2033 C133 1.465 . S
C2039 C1303 1.389 . S
C2059 C1395 1.438 . S
C2053 C169 1.481 . S
C2073 C277 1.434 . S
C2079 C1311 1.404 . S
C2093 C313 1.405 . S
C2099 C1387 1.326 . S
C2113 C241 1.421 . S
C2119 C1227 1.385 . S
C2133 C571 1.443 . S
C2139 C711 1.353 . S
C2159 C795 1.376 . S
C2153 C607 1.506 . S
C2173 C643 1.471 . S
C2179 C888 1.362 . S
C2193 C247 1.505 . S
C2199 C804 1.372 . S
C2213 C283 1.475 . S
C2219 C879 1.331 . S
C2239 C720 1.326 . S
C2233 C319 1.446 . S
C2253 C139 1.451 . S
C2259 C963 1.315 . S
C2273 C175 1.508 . S
C2279 C1047 1.342 . S
C2293 C211 1.476 . S
C2299 C1140 1.342 . S
C2313 C463 1.505 . S
C2319 C1056 1.376 . S
C2339 C1131 1.326 . S
C2333 C499 1.476 . S
C2353 C535 1.451 . S
C2359 C972 1.315 . S
C2373 C355 1.443 . S
C2379 C1215 1.355 . S
C2393 C391 1.505 . S
C2399 C1299 1.382 . S
C2419 C1392 1.330 . S
C2413 C427 1.476 . S
C2433 C31 1.507 . S
C2439 C1308 1.340 . S
C2453 C67 1.473 . S
C2459 C1383 1.342 . S
C2473 C103 1.444 . S
C2479 C1224 1.355 . S
