# Generated by pormake.
# Topology apo, (3,6)-cn, num edge types: 1
# Building blocks:
#     Node 0, Type 0, BuildingBlock: ESEHIV_clean_linker_0, # of connection points: 3
#     Node 1, Type 0, BuildingBlock: ESEHIV_clean_linker_0, # of connection points: 3
#     Node 2, Type 0, BuildingBlock: ESEHIV_clean_linker_0, # of connection points: 3
#     Node 3, Type 0, BuildingBlock: ESEHIV_clean_linker_0, # of connection points: 3
#     Node 4, Type 0, BuildingBlock: ESEHIV_clean_linker_0, # of connection points: 3
#     Node 5, Type 0, BuildingBlock: ESEHIV_clean_linker_0, # of connection points: 3
#     Node 6, Type 0, BuildingBlock: ESEHIV_clean_linker_0, # of connection points: 3
#     Node 7, Type 0, BuildingBlock: ESEHIV_clean_linker_0, # of connection points: 3
#     Node 8, Type 1, BuildingBlock: KUMBOL_clean_sbu_1, # of connection points: 6
#     Node 9, Type 1, BuildingBlock: KUMBOL_clean_sbu_1, # of connection points: 6
#     Node 10, Type 1, BuildingBlock: KUMBOL_clean_sbu_1, # of connection points: 6
#     Node 11, Type 1, BuildingBlock: KUMBOL_clean_sbu_1, # of connection points: 6
#     Edge 12, Type (0, 1), BuildingBlock: XUDNAN_clean_linker_2, # of connection points: 2
#     Edge 13, Type (0, 1), BuildingBlock: XUDNAN_clean_linker_2, # of connection points: 2
#     Edge 14, Type (0, 1), BuildingBlock: XUDNAN_clean_linker_2, # of connection points: 2
#     Edge 15, Type (0, 1), BuildingBlock: XUDNAN_clean_linker_2, # of connection points: 2
#     Edge 16, Type (0, 1), BuildingBlock: XUDNAN_clean_linker_2, # of connection points: 2
#     Edge 17, Type (0, 1), BuildingBlock: XUDNAN_clean_linker_2, # of connection points: 2
#     Edge 18, Type (0, 1), BuildingBlock: XUDNAN_clean_linker_2, # of connection points: 2
#     Edge 19, Type (0, 1), BuildingBlock: XUDNAN_clean_linker_2, # of connection points: 2
#     Edge 20, Type (0, 1), BuildingBlock: XUDNAN_clean_linker_2, # of connection points: 2
#     Edge 21, Type (0, 1), BuildingBlock: XUDNAN_clean_linker_2, # of connection points: 2
#     Edge 22, Type (0, 1), BuildingBlock: XUDNAN_clean_linker_2, # of connection points: 2
#     Edge 23, Type (0, 1), BuildingBlock: XUDNAN_clean_linker_2, # of connection points: 2
#     Edge 24, Type (0, 1), BuildingBlock: XUDNAN_clean_linker_2, # of connection points: 2
#     Edge 25, Type (0, 1), BuildingBlock: XUDNAN_clean_linker_2, # of connection points: 2
#     Edge 26, Type (0, 1), BuildingBlock: XUDNAN_clean_linker_2, # of connection points: 2
#     Edge 27, Type (0, 1), BuildingBlock: XUDNAN_clean_linker_2, # of connection points: 2
#     Edge 28, Type (0, 1), BuildingBlock: XUDNAN_clean_linker_2, # of connection points: 2
#     Edge 29, Type (0, 1), BuildingBlock: XUDNAN_clean_linker_2, # of connection points: 2
#     Edge 30, Type (0, 1), BuildingBlock: XUDNAN_clean_linker_2, # of connection points: 2
#     Edge 31, Type (0, 1), BuildingBlock: XUDNAN_clean_linker_2, # of connection points: 2
#     Edge 32, Type (0, 1), BuildingBlock: XUDNAN_clean_linker_2, # of connection points: 2
#     Edge 33, Type (0, 1), BuildingBlock: XUDNAN_clean_linker_2, # of connection points: 2
#     Edge 34, Type (0, 1), BuildingBlock: XUDNAN_clean_linker_2, # of connection points: 2
#     Edge 35, Type (0, 1), BuildingBlock: XUDNAN_clean_linker_2, # of connection points: 2
# Relax obj value: 0.008
# Max RMSD: 0.115
# Mean RMSD: 0.087
data_MOF--net-apo--node1-KUMBOL_clean_sbu_1--node2-ESEHIV_clean_linker_0--edge1-XUDNAN_clean_linker_2
_symmetry_space_group_name_H-M    P1
_symmetry_Int_Tables_number       1
_symmetry_cell_setting            triclinic
loop_
_symmetry_equiv_pos_as_xyz
'x, y, z'
_cell_length_a     22.75637
_cell_length_b     39.886179
_cell_length_c     50.839871
_cell_angle_alpha  89.887177
_cell_angle_beta   90.068154
_cell_angle_gamma 90.146682
loop_
_atom_site_label
_atom_site_type_symbol
_atom_site_fract_x
_atom_site_fract_y
_atom_site_fract_z
_atom_type_partial_charge
H0 H 0.35882 0.43162 0.42964 0.0
H1 H 0.27009 0.38264 0.3655 0.0
H2 H 0.25089 0.34443 0.44388 0.0
C3 C 0.32895 0.41243 0.4226 0.0
C4 C 0.30621 0.38837 0.4403 0.0
C5 C 0.31628 0.41035 0.3955 0.0
C6 C 0.27922 0.38464 0.38637 0.0
C7 C 0.2563 0.36051 0.40358 0.0
C8 C 0.26933 0.36284 0.43051 0.0
H9 H 0.14514 0.09 0.93121 0.0
H10 H 0.21102 0.11607 0.85471 0.0
H11 H 0.25322 0.17805 0.92125 0.0
C12 C 0.16936 0.10708 0.91862 0.0
C13 C 0.1981 0.13503 0.92963 0.0
C14 C 0.17385 0.10001 0.89165 0.0
C15 C 0.20749 0.12125 0.87558 0.0
C16 C 0.2358 0.14954 0.88608 0.0
C17 C 0.23074 0.15645 0.91308 0.0
H18 H 0.82343 0.07997 0.59191 0.0
H19 H 0.72772 0.11526 0.65908 0.0
H20 H 0.73955 0.17703 0.59023 0.0
C21 C 0.7978 0.0993 0.60144 0.0
C22 C 0.78577 0.12961 0.58807 0.0
C23 C 0.77584 0.09366 0.62691 0.0
C24 C 0.74309 0.1189 0.63909 0.0
C25 C 0.72909 0.1487 0.62596 0.0
C26 C 0.75132 0.15425 0.6006 0.0
H27 H 0.67547 0.4269 0.09174 0.0
H28 H 0.76742 0.3907 0.15987 0.0
H29 H 0.75864 0.33071 0.08941 0.0
C30 C 0.70113 0.40752 0.1013 0.0
C31 C 0.71627 0.37867 0.0872 0.0
C32 C 0.7194 0.41211 0.12743 0.0
C33 C 0.75156 0.38662 0.14004 0.0
C34 C 0.76633 0.35696 0.12649 0.0
C35 C 0.74746 0.35317 0.10018 0.0
H36 H 0.68794 0.5685 0.58959 0.0
H37 H 0.76519 0.66686 0.58467 0.0
H38 H 0.76499 0.61261 0.65816 0.0
C39 C 0.70898 0.58987 0.59883 0.0
C40 C 0.72208 0.58853 0.62572 0.0
C41 C 0.72585 0.61776 0.58368 0.0
C42 C 0.75435 0.6448 0.59614 0.0
C43 C 0.76917 0.64349 0.62306 0.0
C44 C 0.75271 0.61495 0.63765 0.0
H45 H 0.86154 0.9242 0.09012 0.0
H46 H 0.78092 0.90542 0.16407 0.0
H47 H 0.75281 0.83661 0.09952 0.0
C48 C 0.83267 0.90876 0.10204 0.0
C49 C 0.80395 0.88085 0.09101 0.0
C50 C 0.82466 0.91701 0.12842 0.0
C51 C 0.78822 0.8972 0.1441 0.0
C52 C 0.76475 0.86663 0.13479 0.0
C53 C 0.77188 0.8591 0.10773 0.0
H54 H 0.17231 0.92439 0.42953 0.0
H55 H 0.23388 0.82332 0.4281 0.0
H56 H 0.26449 0.88789 0.36133 0.0
C57 C 0.19495 0.9045 0.41921 0.0
C58 C 0.21606 0.90978 0.39348 0.0
C59 C 0.20198 0.87352 0.43179 0.0
C60 C 0.22942 0.84732 0.41831 0.0
C61 C 0.25333 0.85217 0.39302 0.0
C62 C 0.24554 0.88347 0.38056 0.0
H63 H 0.33203 0.58907 0.93753 0.0
H64 H 0.25973 0.61103 0.86136 0.0
H65 H 0.22371 0.67616 0.92675 0.0
C66 C 0.30527 0.6047 0.92485 0.0
C67 C 0.27885 0.63359 0.9353 0.0
C68 C 0.29845 0.59619 0.89819 0.0
C69 C 0.26513 0.6174 0.8819 0.0
C70 C 0.23793 0.64641 0.89184 0.0
C71 C 0.24546 0.6544 0.91862 0.0
C72 C 0.83459 0.11647 0.26771 0.0
C73 C 0.83549 0.05641 0.27568 0.0
C74 C 0.86387 0.08785 0.27619 0.0
C75 C 0.77733 0.05413 0.26661 0.0
C76 C 0.77622 0.11423 0.25852 0.0
C77 C 0.74788 0.08292 0.25793 0.0
N78 N 0.86257 0.14658 0.26918 0.0
C79 C 0.83427 0.17544 0.26242 0.0
C80 C 0.74766 0.14365 0.25067 0.0
C81 C 0.77676 0.17441 0.25275 0.0
Gd82 Gd 0.10209 0.14955 0.23892 0.0
Gd83 Gd 0.95855 0.1456 0.28598 0.0
N84 N 0.92008 0.09089 0.28509 0.0
C85 C 0.86622 0.02823 0.28459 0.0
C86 C 0.94924 0.06376 0.29489 0.0
C87 C 0.92323 0.03197 0.29437 0.0
H88 H 0.99225 0.06647 0.30337 0.0
H89 H 0.94691 0.01045 0.30182 0.0
H90 H 0.06475 0.23092 0.23182 0.0
H91 H 0.85536 0.19937 0.26523 0.0
H92 H 0.10892 0.28642 0.2398 0.0
H93 H 0.84603 0.0036 0.2844 0.0
H94 H 0.75476 0.03019 0.26614 0.0
H95 H 0.2054 0.09306 0.25383 0.0
H96 H 0.70285 0.14297 0.24346 0.0
H97 H 0.75458 0.19738 0.2473 0.0
H98 H 0.30352 0.2617 0.27059 0.0
H99 H 0.70302 0.08073 0.25097 0.0
H100 H 0.3596 0.14633 0.2784 0.0
H101 H 0.30786 0.09275 0.27005 0.0
N102 N 0.19929 0.14624 0.25348 0.0
C103 C 0.22698 0.17601 0.25767 0.0
C104 C 0.2275 0.11657 0.25769 0.0
C105 C 0.31465 0.14663 0.27135 0.0
C106 C 0.28556 0.11631 0.26671 0.0
C107 C 0.28544 0.17698 0.26684 0.0
H108 H 0.35759 0.2093 0.27848 0.0
N109 N 0.13941 0.20393 0.24503 0.0
C110 C 0.19642 0.20569 0.25314 0.0
C111 C 0.19144 0.2662 0.25316 0.0
C112 C 0.22366 0.23691 0.25777 0.0
C113 C 0.10865 0.23237 0.23948 0.0
C114 C 0.13386 0.2639 0.24378 0.0
O115 O 0.95719 0.11349 0.24868 0.0
O116 O 0.05398 0.10044 0.23917 0.0
O117 O 0.10123 0.16775 0.1987 0.0
O118 O 0.15942 0.12728 0.20956 0.0
O119 O 0.04426 0.12283 0.30075 0.0
O120 O 0.09973 0.10389 0.2653 0.0
O121 O 0.10677 0.17368 0.27901 0.0
O122 O 0.01331 0.1928 0.28559 0.0
O123 O 0.96556 0.13827 0.32832 0.0
O124 O 0.89567 0.16875 0.31239 0.0
O125 O 0.01137 0.16491 0.22528 0.0
O126 O 0.9626 0.19066 0.25889 0.0
C127 C 0.9973 0.0944 0.23752 0.0
C128 C 0.08504 0.10338 0.29041 0.0
C129 C 0.11914 0.12675 0.1667 0.0
C130 C 0.12069 0.11871 0.11898 0.0
C131 C 0.05878 0.08351 0.14675 0.0
C132 C 0.07797 0.10079 0.16895 0.0
C133 C 0.0801 0.09223 0.12195 0.0
C134 C 0.14025 0.13584 0.14168 0.0
C135 C 0.13802 0.14519 0.19034 0.0
C136 C 0.28191 0.23793 0.2669 0.0
C137 C 0.31271 0.20807 0.2714 0.0
H138 H 0.21074 0.29067 0.25655 0.0
C139 C 0.06918 0.19252 0.29163 0.0
C140 C 0.97779 0.18914 0.23395 0.0
C141 C 0.8758 0.13882 0.35165 0.0
C142 C 0.84246 0.12823 0.39671 0.0
C143 C 0.78923 0.10461 0.35949 0.0
C144 C 0.82874 0.11958 0.34213 0.0
C145 C 0.7958 0.10892 0.38656 0.0
C146 C 0.88262 0.14302 0.37896 0.0
C147 C 0.91767 0.15487 0.33338 0.0
H148 H 0.02725 0.06329 0.14878 0.0
H149 H 0.06061 0.09408 0.18791 0.0
H150 H 0.06511 0.07794 0.10513 0.0
H151 H 0.17093 0.15654 0.13993 0.0
H152 H 0.75289 0.08994 0.35193 0.0
H153 H 0.822 0.11641 0.3213 0.0
H154 H 0.7634 0.09774 0.39948 0.0
H155 H 0.9192 0.15774 0.38631 0.0
C156 C 0.70317 0.39149 0.77228 0.0
C157 C 0.70581 0.44863 0.78852 0.0
C158 C 0.67618 0.41774 0.78557 0.0
C159 C 0.76171 0.45303 0.77731 0.0
C160 C 0.75931 0.39578 0.76105 0.0
C161 C 0.78836 0.4267 0.76361 0.0
N162 N 0.67328 0.36218 0.76934 0.0
C163 C 0.69709 0.33598 0.75589 0.0
C164 C 0.78407 0.36904 0.74714 0.0
C165 C 0.75281 0.33901 0.74456 0.0
Gd166 Gd 0.43994 0.37624 0.74071 0.0
Gd167 Gd 0.58026 0.35943 0.7887 0.0
N168 N 0.62145 0.41296 0.79584 0.0
C169 C 0.67883 0.47403 0.80306 0.0
C170 C 0.5975 0.43666 0.81188 0.0
C171 C 0.62491 0.46778 0.81516 0.0
H172 H 0.55861 0.43147 0.82311 0.0
H173 H 0.605 0.48668 0.82751 0.0
H174 H 0.4532 0.31221 0.69743 0.0
H175 H 0.67311 0.31269 0.75398 0.0
H176 H 0.40468 0.25836 0.68821 0.0
H177 H 0.70015 0.49809 0.8058 0.0
H178 H 0.7849 0.47665 0.77928 0.0
H179 H 0.3482 0.41914 0.77929 0.0
H180 H 0.82708 0.37138 0.73819 0.0
H181 H 0.77157 0.31823 0.73382 0.0
H182 H 0.23502 0.2586 0.74404 0.0
H183 H 0.83143 0.43052 0.75504 0.0
H184 H 0.19873 0.357 0.79546 0.0
H185 H 0.25313 0.41021 0.80176 0.0
N186 N 0.34836 0.37111 0.7614 0.0
C187 C 0.31824 0.34217 0.75689 0.0
C188 C 0.3252 0.39568 0.77682 0.0
C189 C 0.24049 0.36076 0.78565 0.0
C190 C 0.27116 0.39079 0.78934 0.0
C191 C 0.26373 0.33607 0.76914 0.0
H192 H 0.19249 0.30043 0.77391 0.0
N193 N 0.39572 0.32499 0.72885 0.0
C194 C 0.34296 0.3183 0.74038 0.0
C195 C 0.33633 0.26587 0.71684 0.0
C196 C 0.31255 0.28819 0.73513 0.0
C197 C 0.41588 0.30489 0.70916 0.0
C198 C 0.38749 0.27465 0.70335 0.0
O199 O 0.59562 0.38456 0.74945 0.0
O200 O 0.51167 0.41503 0.74443 0.0
O201 O 0.43348 0.3832 0.69801 0.0
O202 O 0.37866 0.41262 0.72466 0.0
O203 O 0.49965 0.38534 0.80523 0.0
O204 O 0.4614 0.41604 0.77067 0.0
O205 O 0.42586 0.34616 0.77846 0.0
O206 O 0.51297 0.31834 0.7854 0.0
O207 O 0.58988 0.35779 0.83154 0.0
O208 O 0.63897 0.32309 0.80661 0.0
O209 O 0.51691 0.34649 0.72405 0.0
O210 O 0.56024 0.31867 0.7594 0.0
C211 C 0.56681 0.40943 0.73867 0.0
C212 C 0.46801 0.41041 0.796 0.0
C213 C 0.36554 0.42348 0.67783 0.0
C214 C 0.34603 0.42869 0.6304 0.0
C215 C 0.30047 0.46701 0.66157 0.0
C216 C 0.32846 0.45091 0.68243 0.0
C217 C 0.30868 0.45592 0.63585 0.0
C218 C 0.37473 0.41268 0.65172 0.0
C219 C 0.39297 0.40599 0.70046 0.0
C220 C 0.25869 0.28175 0.74766 0.0
C221 C 0.23433 0.30563 0.76459 0.0
H222 H 0.3143 0.24249 0.71221 0.0
C223 C 0.45548 0.31994 0.78667 0.0
C224 C 0.54794 0.32166 0.73417 0.0
C225 C 0.65445 0.31758 0.85373 0.0
C226 C 0.67624 0.31762 0.90092 0.0
C227 C 0.71001 0.2719 0.87321 0.0
C228 C 0.68458 0.28707 0.85125 0.0
C229 C 0.70603 0.28701 0.89786 0.0
C230 C 0.65027 0.33273 0.87866 0.0
C231 C 0.62723 0.33315 0.83031 0.0
H232 H 0.27151 0.48792 0.66539 0.0
H233 H 0.32067 0.45986 0.70222 0.0
H234 H 0.28444 0.46834 0.62032 0.0
H235 H 0.40389 0.39178 0.64809 0.0
H236 H 0.73326 0.24842 0.87108 0.0
H237 H 0.68832 0.2748 0.83234 0.0
H238 H 0.72739 0.27502 0.91442 0.0
H239 H 0.62675 0.35616 0.88073 0.0
C240 C 0.82555 0.79996 0.78389 0.0
C241 C 0.85201 0.7557 0.81461 0.0
C242 C 0.86397 0.78693 0.80265 0.0
C243 C 0.80159 0.73762 0.80727 0.0
C244 C 0.77452 0.78198 0.77676 0.0
C245 C 0.76287 0.75077 0.7885 0.0
N246 N 0.83862 0.82986 0.77226 0.0
C247 C 0.80242 0.84315 0.75355 0.0
C248 C 0.7369 0.79576 0.75784 0.0
C249 C 0.75116 0.82632 0.74606 0.0
Gd250 Gd 0.05858 0.8694 0.73449 0.0
Gd251 Gd 0.92298 0.8568 0.78842 0.0
N252 N 0.91246 0.80493 0.80949 0.0
C253 C 0.89066 0.74377 0.83391 0.0
C254 C 0.94809 0.79444 0.82946 0.0
C255 C 0.9386 0.76339 0.84154 0.0
H256 H 0.98358 0.81012 0.83639 0.0
H257 H 0.96779 0.75485 0.85697 0.0
H258 H 0.03646 0.95218 0.72455 0.0
H259 H 0.81233 0.86676 0.74434 0.0
H260 H 0.0939 0.00434 0.72611 0.0
H261 H 0.8831 0.71984 0.84347 0.0
H262 H 0.79183 0.71355 0.81619 0.0
H263 H 0.15286 0.80754 0.75157 0.0
H264 H 0.69712 0.78279 0.75194 0.0
H265 H 0.72254 0.837 0.73125 0.0
H266 H 0.28479 0.9697 0.75525 0.0
H267 H 0.72404 0.73655 0.78313 0.0
H268 H 0.31646 0.85309 0.7723 0.0
H269 H 0.25453 0.80248 0.76734 0.0
N270 N 0.15473 0.86097 0.74985 0.0
C271 C 0.18868 0.88904 0.75151 0.0
C272 C 0.17821 0.83008 0.75472 0.0
C273 C 0.27123 0.85561 0.76592 0.0
C274 C 0.23637 0.827 0.76323 0.0
C275 C 0.24785 0.88707 0.75971 0.0
H276 H 0.32752 0.91529 0.76739 0.0
N277 N 0.1072 0.9212 0.73701 0.0
C278 C 0.16461 0.91987 0.74449 0.0
C279 C 0.17325 0.97988 0.73885 0.0
C280 C 0.19905 0.94928 0.74575 0.0
C281 C 0.08175 0.95102 0.73047 0.0
C282 C 0.1143 0.98075 0.73132 0.0
O283 O 0.93152 0.81554 0.75818 0.0
O284 O 0.96868 0.84818 0.72555 0.0
O285 O 0.07073 0.88514 0.69406 0.0
O286 O 0.09913 0.83572 0.70612 0.0
O287 O 0.01715 0.84212 0.79746 0.0
O288 O 0.05162 0.82168 0.75812 0.0
O289 O 0.0695 0.89582 0.77379 0.0
O290 O 0.97269 0.90455 0.7813 0.0
O291 O 0.92373 0.86901 0.83075 0.0
O292 O 0.84698 0.87968 0.8059 0.0
O293 O 0.97897 0.90173 0.72594 0.0
O294 O 0.901 0.89449 0.75588 0.0
C295 C 0.94705 0.81951 0.73353 0.0
C296 C 0.0463 0.81965 0.78382 0.0
C297 C 0.1471 0.86106 0.66949 0.0
C298 C 0.18535 0.8641 0.62463 0.0
C299 C 0.25002 0.87366 0.66207 0.0
C300 C 0.20319 0.86839 0.67935 0.0
C301 C 0.24126 0.87167 0.63488 0.0
C302 C 0.13844 0.85879 0.64219 0.0
C303 C 0.09606 0.85743 0.68697 0.0
C304 C 0.25778 0.94734 0.75408 0.0
C305 C 0.28206 0.91636 0.76109 0.0
H306 H 0.1983 0.003 0.73952 0.0
C307 C 0.02751 0.90973 0.78765 0.0
C308 C 0.92525 0.90826 0.7346 0.0
C309 C 0.83814 0.89608 0.85134 0.0
C310 C 0.81451 0.90031 0.89819 0.0
C311 C 0.76377 0.93526 0.86611 0.0
C312 C 0.79624 0.92093 0.84588 0.0
C313 C 0.77249 0.92498 0.89201 0.0
C314 C 0.84745 0.88587 0.87759 0.0
C315 C 0.87033 0.88072 0.82927 0.0
H316 H 0.29326 0.87935 0.66977 0.0
H317 H 0.21076 0.87026 0.70026 0.0
H318 H 0.27837 0.87559 0.62191 0.0
H319 H 0.0948 0.85357 0.63462 0.0
H320 H 0.73132 0.95425 0.86167 0.0
H321 H 0.78845 0.92929 0.82589 0.0
H322 H 0.74548 0.93608 0.90719 0.0
H323 H 0.87991 0.8668 0.88189 0.0
C324 C 0.69899 0.67698 0.26892 0.0
C325 C 0.703 0.72962 0.29301 0.0
C326 C 0.67459 0.69907 0.28702 0.0
C327 C 0.75583 0.73792 0.28035 0.0
C328 C 0.75319 0.68491 0.25687 0.0
C329 C 0.78078 0.71567 0.2623 0.0
N330 N 0.67138 0.64723 0.26403 0.0
C331 C 0.70027 0.62277 0.25038 0.0
C332 C 0.77927 0.66119 0.24042 0.0
C333 C 0.75332 0.62972 0.23765 0.0
Gd334 Gd 0.44935 0.63924 0.23266 0.0
Gd335 Gd 0.58177 0.63919 0.28676 0.0
N336 N 0.62234 0.69104 0.29839 0.0
C337 C 0.6769 0.75119 0.31127 0.0
C338 C 0.59691 0.71179 0.31635 0.0
C339 C 0.62369 0.74218 0.32304 0.0
H340 H 0.55628 0.70462 0.32566 0.0
H341 H 0.60331 0.75862 0.33725 0.0
H342 H 0.48231 0.57217 0.19655 0.0
H343 H 0.68432 0.59736 0.24989 0.0
H344 H 0.44564 0.51425 0.19012 0.0
H345 H 0.69735 0.77487 0.31635 0.0
H346 H 0.77794 0.76142 0.28449 0.0
H347 H 0.34336 0.67916 0.26825 0.0
H348 H 0.82084 0.66632 0.23082 0.0
H349 H 0.77497 0.61044 0.22629 0.0
H350 H 0.27651 0.50717 0.24631 0.0
H351 H 0.82212 0.7222 0.25302 0.0
H352 H 0.21884 0.60568 0.2932 0.0
H353 H 0.25569 0.66404 0.29362 0.0
N354 N 0.36184 0.6291 0.25632 0.0
C355 C 0.33932 0.59752 0.25393 0.0
C356 C 0.33054 0.65321 0.26917 0.0
C357 C 0.25864 0.61199 0.28259 0.0
C358 C 0.2795 0.64489 0.28302 0.0
C359 C 0.28771 0.588 0.2674 0.0
H360 H 0.22662 0.54742 0.27521 0.0
N361 N 0.41668 0.5845 0.22452 0.0
C362 C 0.36675 0.57482 0.23719 0.0
C363 C 0.37347 0.52006 0.21716 0.0
C364 C 0.34438 0.54208 0.23416 0.0
C365 C 0.44409 0.56363 0.20723 0.0
C366 C 0.42326 0.53098 0.20349 0.0
O367 O 0.56711 0.68734 0.26392 0.0
O368 O 0.52643 0.67321 0.22369 0.0
O369 O 0.44004 0.6368 0.19023 0.0
O370 O 0.38339 0.66936 0.2124 0.0
O371 O 0.4911 0.65513 0.29921 0.0
O372 O 0.44693 0.68089 0.26354 0.0
O373 O 0.47033 0.59258 0.25676 0.0
O374 O 0.49612 0.61376 0.29681 0.0
O375 O 0.60774 0.64163 0.32785 0.0
O376 O 0.63164 0.59864 0.30445 0.0
O377 O 0.54112 0.6268 0.21944 0.0
O378 O 0.58192 0.59948 0.25498 0.0
C379 C 0.55785 0.69311 0.23877 0.0
C380 C 0.45825 0.67904 0.28906 0.0
C381 C 0.34592 0.64555 0.17285 0.0
C382 C 0.30305 0.6388 0.12897 0.0
C383 C 0.25468 0.61477 0.16735 0.0
C384 C 0.29906 0.62725 0.18363 0.0
C385 C 0.25667 0.62035 0.14021 0.0
C386 C 0.34757 0.65142 0.14555 0.0
C387 C 0.39536 0.65686 0.18937 0.0
C388 C 0.29414 0.5323 0.24824 0.0
C389 C 0.26589 0.55519 0.2648 0.0
H390 H 0.35766 0.49468 0.21434 0.0
C391 C 0.47186 0.59028 0.28249 0.0
C392 C 0.57407 0.60307 0.22947 0.0
C393 C 0.61672 0.59024 0.3503 0.0
C394 C 0.62557 0.57913 0.39749 0.0
C395 C 0.57507 0.53946 0.3689 0.0
C396 C 0.58574 0.56004 0.34716 0.0
C397 C 0.59459 0.54889 0.39393 0.0
C398 C 0.63592 0.59973 0.37544 0.0
C399 C 0.63124 0.61204 0.3278 0.0
H400 H 0.21868 0.60062 0.17579 0.0
H401 H 0.29695 0.62242 0.20455 0.0
H402 H 0.2215 0.61056 0.12805 0.0
H403 H 0.38427 0.66514 0.13717 0.0
H404 H 0.55221 0.51588 0.36627 0.0
H405 H 0.57035 0.55219 0.32796 0.0
H406 H 0.58666 0.53213 0.41034 0.0
H407 H 0.65912 0.62332 0.37775 0.0
H408 H 0.18783 0.92364 0.34165 0.0
H409 H 0.22654 0.97162 0.41635 0.0
H410 H 0.20294 0.02652 0.39702 0.0
H411 H 0.24922 0.99212 0.30009 0.0
H412 H 0.19333 0.98719 0.27523 0.0
H413 H 0.21672 0.95151 0.29435 0.0
H414 H 0.10884 0.9406 0.30834 0.0
H415 H 0.08528 0.97631 0.2894 0.0
H416 H 0.06785 0.9737 0.32391 0.0
H417 H 0.16253 0.07457 0.37203 0.0
H418 H 0.11782 0.11452 0.34094 0.0
H419 H 0.11518 0.03801 0.28052 0.0
C420 C 0.19266 0.94576 0.35377 0.0
C421 C 0.20821 0.94313 0.38069 0.0
C422 C 0.21333 0.97276 0.3959 0.0
C423 C 0.2005 0.00416 0.38504 0.0
C424 C 0.18371 0.00576 0.35875 0.0
C425 C 0.18073 0.97753 0.34311 0.0
C426 C 0.15986 0.9864 0.31557 0.0
C427 C 0.20765 0.97886 0.2951 0.0
C428 C 0.10204 0.96817 0.30893 0.0
C429 C 0.15034 0.02385 0.31846 0.0
C430 C 0.16406 0.03435 0.34363 0.0
C431 C 0.15332 0.06695 0.35202 0.0
C432 C 0.12796 0.08949 0.33423 0.0
C433 C 0.1149 0.07962 0.30817 0.0
C434 C 0.12673 0.04644 0.30011 0.0
H435 H 0.34696 0.58547 0.84901 0.0
H436 H 0.30779 0.53496 0.92278 0.0
H437 H 0.34791 0.48246 0.90485 0.0
H438 H 0.30376 0.51678 0.80748 0.0
H439 H 0.36042 0.52445 0.78346 0.0
H440 H 0.33152 0.55869 0.8025 0.0
H441 H 0.43674 0.57361 0.81834 0.0
H442 H 0.46586 0.53947 0.79928 0.0
H443 H 0.48087 0.54185 0.83404 0.0
H444 H 0.39219 0.43526 0.87894 0.0
H445 H 0.43553 0.39652 0.84648 0.0
H446 H 0.43966 0.47666 0.78866 0.0
C447 C 0.34631 0.56339 0.86142 0.0
C448 C 0.32435 0.56465 0.88748 0.0
C449 C 0.32539 0.53506 0.90301 0.0
C450 C 0.34766 0.50495 0.89291 0.0
C451 C 0.36835 0.50463 0.86714 0.0
C452 C 0.36767 0.53302 0.85156 0.0
C453 C 0.39124 0.52571 0.82428 0.0
C454 C 0.3439 0.53177 0.80319 0.0
C455 C 0.44699 0.54639 0.81867 0.0
C456 C 0.40523 0.48876 0.82697 0.0
C457 C 0.39207 0.47715 0.85192 0.0
C458 C 0.40246 0.44404 0.85932 0.0
C459 C 0.42717 0.42226 0.84078 0.0
C460 C 0.44065 0.43357 0.81506 0.0
C461 C 0.42916 0.46723 0.80809 0.0
H462 H 0.61951 0.57397 0.65117 0.0
H463 H 0.79353 0.53566 0.63472 0.0
H464 H 0.77169 0.48479 0.66108 0.0
H465 H 0.61217 0.54557 0.71803 0.0
H466 H 0.53524 0.53482 0.71678 0.0
H467 H 0.5637 0.56753 0.69587 0.0
H468 H 0.52261 0.53669 0.65491 0.0
H469 H 0.49408 0.50386 0.67572 0.0
H470 H 0.54305 0.49371 0.64908 0.0
H471 H 0.73103 0.43853 0.68874 0.0
H472 H 0.67564 0.40011 0.71739 0.0
H473 H 0.52878 0.46941 0.71786 0.0
C474 C 0.65262 0.55466 0.6531 0.0
C475 C 0.70802 0.55823 0.64101 0.0
C476 C 0.75084 0.53294 0.6439 0.0
C477 C 0.73877 0.50411 0.65875 0.0
C478 C 0.68373 0.50121 0.67055 0.0
C479 C 0.64131 0.52577 0.66797 0.0
C480 C 0.58626 0.51668 0.68321 0.0
C481 C 0.57363 0.5427 0.70475 0.0
C482 C 0.53338 0.51249 0.66462 0.0
C483 C 0.60462 0.48336 0.69493 0.0
C484 C 0.66081 0.47484 0.68718 0.0
C485 C 0.68721 0.44508 0.69515 0.0
C486 C 0.65552 0.42354 0.71166 0.0
C487 C 0.59843 0.43208 0.72045 0.0
C488 C 0.57253 0.46229 0.71169 0.0
H489 H 0.78715 0.97564 0.15118 0.0
H490 H 0.94223 0.91645 0.13476 0.0
H491 H 0.00223 0.95499 0.16181 0.0
H492 H 0.86575 0.05761 0.14899 0.0
H493 H 0.82092 0.07545 0.17457 0.0
H494 H 0.79063 0.04403 0.15299 0.0
H495 H 0.763 0.00666 0.19346 0.0
H496 H 0.79132 0.03947 0.21405 0.0
H497 H 0.81893 0.99733 0.21756 0.0
H498 H 0.04243 0.99538 0.19399 0.0
H499 H 0.06652 0.04188 0.22366 0.0
H500 H 0.88751 0.07878 0.21713 0.0
C501 C 0.83398 0.97138 0.15295 0.0
C502 C 0.86055 0.94338 0.14091 0.0
C503 C 0.92163 0.93811 0.14364 0.0
C504 C 0.95579 0.95965 0.1591 0.0
C505 C 0.92819 0.9866 0.17128 0.0
C506 C 0.86909 0.99315 0.16786 0.0
C507 C 0.85107 0.02438 0.1828 0.0
C508 C 0.83092 0.052 0.16369 0.0
C509 C 0.80328 0.0164 0.2032 0.0
C510 C 0.90882 0.03358 0.1959 0.0
C511 C 0.95244 0.01121 0.18902 0.0
C512 C 0.00902 0.01346 0.19915 0.0
C513 C 0.02214 0.03998 0.21608 0.0
C514 C 0.97923 0.06441 0.22238 0.0
C515 C 0.92137 0.06068 0.21258 0.0
H516 H 0.87703 0.05564 0.63033 0.0
H517 H 0.69513 0.05884 0.6559 0.0
H518 H 0.71257 0.01065 0.68512 0.0
H519 H 0.88763 0.96238 0.63122 0.0
H520 H 0.96277 0.9633 0.64245 0.0
H521 H 0.935 0.9968 0.62214 0.0
H522 H 0.96686 0.0398 0.65758 0.0
H523 H 0.99382 0.00643 0.67817 0.0
H524 H 0.93995 0.03528 0.69075 0.0
H525 H 0.75258 0.96734 0.71583 0.0
H526 H 0.80964 0.92646 0.74171 0.0
H527 H 0.96234 0.94688 0.69287 0.0
C528 C 0.84055 0.04567 0.64156 0.0
C529 C 0.78503 0.06147 0.64116 0.0
C530 C 0.7385 0.04773 0.65635 0.0
C531 C 0.74779 0.02021 0.67292 0.0
C532 C 0.80353 0.00609 0.67368 0.0
C533 C 0.84882 0.01777 0.65799 0.0
C534 C 0.90474 0.99823 0.663 0.0
C535 C 0.92363 0.97903 0.63823 0.0
C536 C 0.95424 0.02132 0.67296 0.0
C537 C 0.88401 0.97449 0.6844 0.0
C538 C 0.82564 0.97959 0.6904 0.0
C539 C 0.79801 0.96249 0.7109 0.0
C540 C 0.83087 0.93928 0.72552 0.0
C541 C 0.89051 0.93299 0.71931 0.0
C542 C 0.91693 0.95082 0.69827 0.0
H543 H 0.67715 0.42358 0.17758 0.0
H544 H 0.735 0.47436 0.10654 0.0
H545 H 0.70708 0.5287 0.12564 0.0
H546 H 0.55241 0.4745 0.1893 0.0
H547 H 0.56014 0.47531 0.22456 0.0
H548 H 0.58748 0.44012 0.20616 0.0
H549 H 0.69104 0.44877 0.22641 0.0
H550 H 0.66379 0.48384 0.24504 0.0
H551 H 0.72632 0.48916 0.22369 0.0
H552 H 0.66516 0.5767 0.15025 0.0
H553 H 0.61854 0.61654 0.18099 0.0
H554 H 0.59237 0.53606 0.23728 0.0
C555 C 0.68486 0.44623 0.1663 0.0
C556 C 0.70767 0.44472 0.14046 0.0
C557 C 0.71665 0.47487 0.12619 0.0
C558 C 0.70121 0.50588 0.1369 0.0
C559 C 0.67737 0.50648 0.16206 0.0
C560 C 0.66979 0.47759 0.17677 0.0
C561 C 0.6418 0.48544 0.20312 0.0
C562 C 0.58192 0.46779 0.20594 0.0
C563 C 0.68322 0.47626 0.22591 0.0
C564 C 0.63451 0.52311 0.20071 0.0
C565 C 0.65499 0.53464 0.17677 0.0
C566 C 0.64976 0.56812 0.16924 0.0
C567 C 0.62303 0.59049 0.1867 0.0
C568 C 0.60268 0.57932 0.21148 0.0
C569 C 0.60877 0.54526 0.21861 0.0
H570 H 0.3277 0.47942 0.39716 0.0
H571 H 0.36984 0.39226 0.34985 0.0
H572 H 0.41214 0.42892 0.31572 0.0
H573 H 0.28895 0.53352 0.34178 0.0
H574 H 0.31996 0.5706 0.35655 0.0
H575 H 0.29123 0.53753 0.37708 0.0
H576 H 0.38986 0.53541 0.40114 0.0
H577 H 0.42292 0.56644 0.37997 0.0
H578 H 0.45583 0.52558 0.38346 0.0
H579 H 0.44518 0.47454 0.28563 0.0
H580 H 0.47676 0.52669 0.26337 0.0
H581 H 0.4197 0.58457 0.33077 0.0
C582 C 0.34629 0.46813 0.3797 0.0
C583 C 0.34489 0.43299 0.37605 0.0
C584 C 0.36945 0.41914 0.35287 0.0
C585 C 0.39371 0.43973 0.33338 0.0
C586 C 0.39342 0.47422 0.3373 0.0
C587 C 0.37073 0.48841 0.35991 0.0
C588 C 0.37642 0.52632 0.35908 0.0
C589 C 0.31552 0.54296 0.35859 0.0
C590 C 0.41352 0.53924 0.38225 0.0
C591 C 0.40758 0.53095 0.33293 0.0
C592 C 0.41549 0.50059 0.32041 0.0
C593 C 0.43989 0.49846 0.29533 0.0
C594 C 0.45739 0.52816 0.28278 0.0
C595 C 0.45114 0.55942 0.29551 0.0
C596 C 0.42583 0.56082 0.32086 0.0
H597 H 0.2183 0.05322 0.85742 0.0
H598 H 0.06035 0.08036 0.9 0.0
H599 H 0.00772 0.03267 0.87975 0.0
H600 H 0.14868 0.02904 0.79732 0.0
H601 H 0.19928 0.99508 0.79177 0.0
H602 H 0.22232 0.03092 0.81044 0.0
H603 H 0.25163 0.98984 0.84819 0.0
H604 H 0.22534 0.95468 0.82929 0.0
H605 H 0.19675 0.96214 0.8618 0.0
H606 H 0.9706 0.98487 0.85284 0.0
H607 H 0.95135 0.93888 0.82185 0.0
H608 H 0.1341 0.9411 0.79732 0.0
C609 C 0.17267 0.04902 0.86251 0.0
C610 C 0.14328 0.07048 0.88025 0.0
C611 C 0.08377 0.06404 0.88664 0.0
C612 C 0.05353 0.03709 0.87519 0.0
C613 C 0.08361 0.0166 0.85762 0.0
C614 C 0.14196 0.02201 0.85145 0.0
C615 C 0.16359 0.99657 0.83157 0.0
C616 C 0.18462 0.01399 0.80627 0.0
C617 C 0.2122 0.9745 0.84344 0.0
C618 C 0.10777 0.97657 0.82697 0.0
C619 C 0.06234 0.98851 0.84233 0.0
C620 C 0.00595 0.97508 0.8409 0.0
C621 C 0.99549 0.94893 0.82318 0.0
C622 C 0.04118 0.93624 0.80711 0.0
C623 C 0.09827 0.95007 0.80934 0.0
H624 H 0.10311 0.12896 0.96259 0.0
H625 H 0.28948 0.15216 0.96228 0.0
H626 H 0.28867 0.15515 1.01084 0.0
H627 H 0.06371 0.18147 0.01942 0.0
H628 H 0.01095 0.15134 0.0314 0.0
H629 H 0.02526 0.15463 0.99664 0.0
H630 H 0.05008 0.09127 0.99515 0.0
H631 H 0.03621 0.08782 0.02989 0.0
H632 H 0.10606 0.07489 0.01672 0.0
H633 H 0.26925 0.14983 0.05976 0.0
H634 H 0.23245 0.13812 0.10454 0.0
H635 H 0.05834 0.11968 0.07256 0.0
C636 C 0.14365 0.13505 0.97271 0.0
C637 C 0.19634 0.14042 0.95859 0.0
C638 C 0.24838 0.14845 0.97261 0.0
C639 C 0.24841 0.15003 1.00022 0.0
C640 C 0.19594 0.14382 0.01353 0.0
C641 C 0.14441 0.13679 1.00019 0.0
C642 C 0.09457 0.12942 0.01906 0.0
C643 C 0.04574 0.15579 0.01647 0.0
C644 C 0.07034 0.09373 0.01495 0.0
C645 C 0.12642 0.13252 0.0451 0.0
C646 C 0.18474 0.14105 0.04156 0.0
C647 C 0.22342 0.14365 0.06277 0.0
C648 C 0.202 0.13711 0.08819 0.0
C649 C 0.14241 0.12798 0.09224 0.0
C650 C 0.10425 0.12623 0.07027 0.0
H651 H 0.31684 0.44258 0.47391 0.0
H652 H 0.33331 0.33422 0.47126 0.0
H653 H 0.35233 0.3331 0.51894 0.0
H654 H 0.43289 0.4557 0.52426 0.0
H655 H 0.39341 0.48945 0.53971 0.0
H656 H 0.3851 0.48204 0.50494 0.0
H657 H 0.27232 0.47729 0.51089 0.0
H658 H 0.28028 0.48452 0.54564 0.0
H659 H 0.24298 0.44742 0.53411 0.0
H660 H 0.3603 0.34303 0.56758 0.0
H661 H 0.35904 0.36354 0.61324 0.0
H662 H 0.34531 0.46583 0.5843 0.0
C663 C 0.32559 0.41869 0.48325 0.0
C664 C 0.32275 0.38846 0.46876 0.0
C665 C 0.33388 0.3577 0.48192 0.0
C666 C 0.3453 0.35679 0.50901 0.0
C667 C 0.3464 0.38689 0.5228 0.0
C668 C 0.33751 0.41732 0.51036 0.0
C669 C 0.33889 0.44589 0.53 0.0
C670 C 0.39067 0.46967 0.52439 0.0
C671 C 0.28012 0.46489 0.53016 0.0
C672 C 0.34817 0.42664 0.55545 0.0
C673 C 0.35275 0.39267 0.55085 0.0
C674 C 0.35787 0.36967 0.57141 0.0
C675 C 0.35754 0.38165 0.59738 0.0
C676 C 0.35229 0.41642 0.60271 0.0
C677 C 0.34876 0.43908 0.5812 0.0
H678 H 0.68309 0.32324 0.05791 0.0
H679 H 0.72367 0.42938 0.05091 0.0
H680 H 0.70847 0.42625 1.0031 0.0
H681 H 0.76081 0.29867 1.00119 0.0
H682 H 0.70923 0.26658 0.99157 0.0
H683 H 0.71665 0.27776 0.02569 0.0
H684 H 0.60505 0.29017 0.02807 0.0
H685 H 0.59727 0.27902 0.9939 0.0
H686 H 0.57289 0.31946 1.00519 0.0
H687 H 0.6962 0.41111 0.95567 0.0
H688 H 0.69055 0.38442 0.91199 0.0
H689 H 0.65959 0.288 0.94933 0.0
C690 C 0.68846 0.34589 0.04639 0.0
C691 C 0.70382 0.37666 0.05842 0.0
C692 C 0.71037 0.40566 0.04243 0.0
C693 C 0.70218 0.40413 0.01515 0.0
C694 C 0.68758 0.37342 1.00396 0.0
C695 C 0.6808 0.34479 0.01904 0.0
C696 C 0.66857 0.31453 1.00189 0.0
C697 C 0.71669 0.28782 1.00529 0.0
C698 C 0.6073 0.29994 1.00761 0.0
C699 C 0.67099 0.33051 0.97483 0.0
C700 C 0.68128 0.36457 0.97649 0.0
C701 C 0.68747 0.38451 0.95411 0.0
C702 C 0.68387 0.36914 0.92936 0.0
C703 C 0.67449 0.33412 0.92715 0.0
C704 C 0.66715 0.31478 0.9503 0.0
H705 H 0.78525 0.0842 0.54749 0.0
H706 H 0.83091 0.18714 0.56614 0.0
H707 H 0.85767 0.19699 0.51965 0.0
H708 H 0.90218 0.07092 0.49839 0.0
H709 H 0.85535 0.04557 0.47781 0.0
H710 H 0.84439 0.04606 0.51291 0.0
H711 H 0.7358 0.06337 0.50587 0.0
H712 H 0.74646 0.0631 0.47082 0.0
H713 H 0.7194 0.10031 0.48676 0.0
H714 H 0.87256 0.19662 0.4704 0.0
H715 H 0.87312 0.18626 0.42253 0.0
H716 H 0.82131 0.08292 0.43654 0.0
C717 C 0.80222 0.1086 0.54197 0.0
C718 C 0.80614 0.13487 0.56053 0.0
C719 C 0.82709 0.16669 0.55226 0.0
C720 C 0.84278 0.17247 0.52593 0.0
C721 C 0.83763 0.14612 0.50809 0.0
C722 C 0.81812 0.11477 0.51581 0.0
C723 C 0.81359 0.09119 0.49257 0.0
C724 C 0.85644 0.06169 0.49561 0.0
C725 C 0.75004 0.07878 0.48879 0.0
C726 C 0.83222 0.11439 0.47048 0.0
C727 C 0.84645 0.14587 0.47982 0.0
C728 C 0.86229 0.17191 0.4629 0.0
C729 C 0.86281 0.16572 0.43571 0.0
C730 C 0.84738 0.13375 0.42564 0.0
C731 C 0.8329 0.10772 0.44347 0.0
H732 H 0.79999 0.92848 0.05246 0.0
H733 H 0.81617 0.82102 0.06371 0.0
H734 H 0.825 0.81375 0.01544 0.0
H735 H 0.71593 0.92659 0.99392 0.0
H736 H 0.75236 0.96243 0.97964 0.0
H737 H 0.74721 0.95846 0.01483 0.0
H738 H 0.86051 0.96372 0.0186 0.0
H739 H 0.86605 0.96757 0.98339 0.0
H740 H 0.90663 0.93537 1.00039 0.0
H741 H 0.83113 0.81914 0.96488 0.0
H742 H 0.82949 0.83633 0.91799 0.0
H743 H 0.8156 0.9404 0.94178 0.0
C744 C 0.80616 0.90335 0.04494 0.0
C745 C 0.80781 0.87535 0.06202 0.0
C746 C 0.8143 0.84289 0.0511 0.0
C747 C 0.81986 0.83855 0.0237 0.0
C748 C 0.81905 0.86692 1.00754 0.0
C749 C 0.81231 0.89867 0.0179 0.0
C750 C 0.81216 0.92524 0.99668 0.0
C751 C 0.75342 0.94429 0.99625 0.0
C752 C 0.86446 0.94939 0.99997 0.0
C753 C 0.8192 0.90359 0.97256 0.0
C754 C 0.82332 0.87001 0.97905 0.0
C755 C 0.82829 0.84541 0.95967 0.0
C756 C 0.82777 0.85542 0.93308 0.0
C757 C 0.82215 0.88972 0.92613 0.0
C758 C 0.81918 0.91395 0.94632 0.0
H759 H 0.631 0.59465 0.55478 0.0
H760 H 0.80439 0.63925 0.54664 0.0
H761 H 0.79559 0.63598 0.49845 0.0
H762 H 0.64596 0.53586 0.5027 0.0
H763 H 0.57102 0.5393 0.49153 0.0
H764 H 0.58871 0.54711 0.5255 0.0
H765 H 0.541 0.60587 0.52232 0.0
H766 H 0.52287 0.59818 0.48834 0.0
H767 H 0.56521 0.63472 0.4972 0.0
H768 H 0.77148 0.62482 0.45156 0.0
H769 H 0.73198 0.6082 0.40844 0.0
H770 H 0.5733 0.57128 0.44624 0.0
C771 C 0.66701 0.60386 0.54286 0.0
C772 C 0.71822 0.6175 0.55459 0.0
C773 C 0.76422 0.62936 0.53821 0.0
C774 C 0.75985 0.62738 0.51078 0.0
C775 C 0.7092 0.6135 0.49992 0.0
C776 C 0.6634 0.60209 0.51537 0.0
C777 C 0.61444 0.58754 0.49858 0.0
C778 C 0.60448 0.55024 0.50496 0.0
C779 C 0.55752 0.60779 0.5018 0.0
C780 C 0.64039 0.59213 0.47134 0.0
C781 C 0.695 0.60724 0.47263 0.0
C782 C 0.72841 0.61338 0.45023 0.0
C783 C 0.70535 0.604 0.42577 0.0
C784 C 0.64913 0.58876 0.42378 0.0
C785 C 0.61644 0.58274 0.44701 0.0
H786 H 0.26767 0.5905 0.97714 0.0
H787 H 0.30447 0.69442 0.95785 0.0
H788 H 0.31683 0.70707 1.00521 0.0
H789 H 0.18413 0.60668 0.03539 0.0
H790 H 0.21203 0.57076 0.05292 0.0
H791 H 0.20737 0.57001 0.01757 0.0
H792 H 0.31832 0.55599 0.0148 0.0
H793 H 0.32336 0.55673 0.05015 0.0
H794 H 0.37094 0.58309 0.0307 0.0
H795 H 0.32677 0.70789 0.05502 0.0
H796 H 0.32742 0.69762 0.10305 0.0
H797 H 0.28249 0.59333 0.08946 0.0
C798 C 0.27876 0.61588 0.98286 0.0
C799 C 0.28539 0.64147 0.96378 0.0
C800 C 0.29885 0.67449 0.97213 0.0
C801 C 0.30627 0.68185 0.99896 0.0
C802 C 0.29969 0.65597 0.01724 0.0
C803 C 0.28585 0.62369 1.00952 0.0
C804 C 0.27975 0.60054 0.03303 0.0
C805 C 0.21709 0.58616 0.03483 0.0
C806 C 0.32585 0.57243 0.03211 0.0
C807 C 0.29216 0.6248 0.05524 0.0
C808 C 0.30409 0.65659 0.04576 0.0
C809 C 0.31738 0.6831 0.06263 0.0
C810 C 0.31794 0.677 0.08987 0.0
C811 C 0.30478 0.64473 0.10003 0.0
C812 C 0.29204 0.61836 0.08234 0.0
H813 H 0.2324 0.913 0.47351 0.0
H814 H 0.13546 0.82303 0.45312 0.0
H815 H 0.11545 0.81259 0.50031 0.0
H816 H 0.30282 0.87928 0.52895 0.0
H817 H 0.30024 0.91715 0.54821 0.0
H818 H 0.30133 0.9196 0.51286 0.0
H819 H 0.20538 0.95443 0.51334 0.0
H820 H 0.20423 0.95233 0.54875 0.0
H821 H 0.14154 0.93819 0.53008 0.0
H822 H 0.1107 0.81048 0.54985 0.0
H823 H 0.12374 0.81586 0.59793 0.0
H824 H 0.22632 0.90645 0.58599 0.0
C825 C 0.20574 0.89157 0.47899 0.0
C826 C 0.18478 0.86901 0.45973 0.0
C827 C 0.15158 0.84066 0.46763 0.0
C828 C 0.13995 0.83461 0.49434 0.0
C829 C 0.16215 0.85703 0.5129 0.0
C830 C 0.19436 0.88496 0.50557 0.0
C831 C 0.21668 0.90386 0.52942 0.0
C832 C 0.28427 0.90502 0.52987 0.0
C833 C 0.19037 0.9393 0.53046 0.0
C834 C 0.19277 0.88195 0.55132 0.0
C835 C 0.16083 0.8553 0.54139 0.0
C836 C 0.13529 0.83137 0.55784 0.0
C837 C 0.14278 0.83469 0.58512 0.0
C838 C 0.17604 0.86155 0.59572 0.0
C839 C 0.20105 0.8855 0.57848 0.0
H840 H 0.16991 0.35925 0.36534 0.0
H841 H 0.27211 0.29491 0.41689 0.0
H842 H 0.22783 0.24513 0.39614 0.0
H843 H 0.03695 0.30579 0.36293 0.0
H844 H 0.02355 0.31462 0.32866 0.0
H845 H 0.05897 0.34554 0.34912 0.0
H846 H 0.14667 0.34793 0.31665 0.0
H847 H 0.11169 0.31694 0.29619 0.0
H848 H 0.18488 0.30979 0.3085 0.0
H849 H 0.18484 0.20296 0.36614 0.0
H850 H 0.13752 0.17017 0.33091 0.0
H851 H 0.05676 0.26024 0.30013 0.0
C852 C 0.18222 0.33467 0.37251 0.0
C853 C 0.22414 0.33099 0.39294 0.0
C854 C 0.2393 0.2984 0.40168 0.0
C855 C 0.21465 0.26995 0.3899 0.0
C856 C 0.17441 0.27444 0.36955 0.0
C857 C 0.15762 0.30591 0.36108 0.0
C858 C 0.11537 0.30352 0.338 0.0
C859 C 0.05512 0.31824 0.34511 0.0
C860 C 0.14121 0.32056 0.31339 0.0
C861 C 0.11192 0.26581 0.33457 0.0
C862 C 0.14677 0.24963 0.35293 0.0
C863 C 0.15594 0.21518 0.35221 0.0
C864 C 0.12882 0.19674 0.33222 0.0
C865 C 0.0919 0.21256 0.31362 0.0
C866 C 0.0829 0.2475 0.31487 0.0
H867 H 0.2297 0.21779 0.87771 0.0
H868 H 0.32576 0.12845 0.85551 0.0
H869 H 0.38839 0.16229 0.82599 0.0
H870 H 0.23199 0.25648 0.81229 0.0
H871 H 0.24054 0.29845 0.82489 0.0
H872 H 0.20258 0.26719 0.84409 0.0
H873 H 0.274 0.27811 0.88296 0.0
H874 H 0.31197 0.30927 0.86367 0.0
H875 H 0.35208 0.27463 0.87768 0.0
H876 H 0.44421 0.20528 0.80159 0.0
H877 H 0.48932 0.2554 0.78188 0.0
H878 H 0.35368 0.31767 0.81629 0.0
C879 C 0.26404 0.20553 0.8666 0.0
C880 C 0.2732 0.17057 0.86883 0.0
C881 C 0.31808 0.15518 0.85393 0.0
C882 C 0.35375 0.17417 0.83714 0.0
C883 C 0.34345 0.20848 0.83519 0.0
C884 C 0.29957 0.22412 0.84931 0.0
C885 C 0.29825 0.26148 0.84338 0.0
C886 C 0.23986 0.27148 0.83038 0.0
C887 C 0.30978 0.28208 0.86841 0.0
C888 C 0.34901 0.26439 0.82414 0.0
C889 C 0.37434 0.2334 0.81985 0.0
C890 C 0.42422 0.2296 0.8044 0.0
C891 C 0.44947 0.25824 0.79325 0.0
C892 C 0.42441 0.29028 0.79718 0.0
C893 C 0.37293 0.29335 0.81252 0.0
H894 H 0.74052 0.21742 0.63178 0.0
H895 H 0.62576 0.13328 0.64951 0.0
H896 H 0.56436 0.16968 0.67705 0.0
H897 H 0.73865 0.25394 0.69413 0.0
H898 H 0.7363 0.29695 0.68326 0.0
H899 H 0.76903 0.26549 0.66263 0.0
H900 H 0.69881 0.28166 0.62452 0.0
H901 H 0.66632 0.31345 0.64501 0.0
H902 H 0.62058 0.28178 0.63009 0.0
H903 H 0.52511 0.21142 0.70769 0.0
H904 H 0.50017 0.26001 0.73543 0.0
H905 H 0.63258 0.31977 0.69589 0.0
C906 C 0.70155 0.20702 0.64091 0.0
C907 C 0.68821 0.17247 0.6388 0.0
C908 C 0.63723 0.15957 0.65123 0.0
C909 C 0.60195 0.18004 0.66683 0.0
C910 C 0.61749 0.21357 0.66945 0.0
C911 C 0.66521 0.22733 0.65648 0.0
C912 C 0.67272 0.26407 0.66362 0.0
C913 C 0.73274 0.27046 0.67669 0.0
C914 C 0.66407 0.28657 0.63936 0.0
C915 C 0.62287 0.2683 0.68314 0.0
C916 C 0.59198 0.23868 0.68624 0.0
C917 C 0.54775 0.23505 0.70493 0.0
C918 C 0.53414 0.2626 0.72069 0.0
C919 C 0.56345 0.29349 0.71715 0.0
C920 C 0.60843 0.29651 0.69822 0.0
H921 H 0.77081 0.33659 0.1789 0.0
H922 H 0.85105 0.31864 0.10261 0.0
H923 H 0.9109 0.27391 0.12186 0.0
H924 H 0.90703 0.32526 0.2158 0.0
H925 H 0.87129 0.30565 0.24348 0.0
H926 H 0.83208 0.33573 0.22369 0.0
H927 H 0.74967 0.29195 0.21552 0.0
H928 H 0.78891 0.26178 0.23521 0.0
H929 H 0.76838 0.25165 0.20191 0.0
H930 H 0.95869 0.22942 0.14818 0.0
H931 H 0.99896 0.19088 0.18116 0.0
H932 H 0.8994 0.24158 0.24214 0.0
C933 C 0.80127 0.32352 0.16623 0.0
C934 C 0.80455 0.33084 0.13893 0.0
C935 C 0.84541 0.31291 0.12327 0.0
C936 C 0.88033 0.28757 0.13408 0.0
C937 C 0.87524 0.28073 0.1608 0.0
C938 C 0.83759 0.29846 0.17683 0.0
C939 C 0.84264 0.28658 0.20518 0.0
C940 C 0.86458 0.315 0.22309 0.0
C941 C 0.7839 0.27214 0.21502 0.0
C942 C 0.88855 0.25925 0.20237 0.0
C943 C 0.90605 0.25616 0.1765 0.0
C944 C 0.94591 0.23184 0.16858 0.0
C945 C 0.96863 0.21002 0.18759 0.0
C946 C 0.95232 0.21284 0.21442 0.0
C947 C 0.91216 0.23819 0.22185 0.0
H948 H 0.76378 0.66609 0.67448 0.0
H949 H 0.85437 0.68358 0.60042 0.0
H950 H 0.90953 0.72985 0.62074 0.0
H951 H 0.75306 0.75085 0.69608 0.0
H952 H 0.76709 0.73935 0.72981 0.0
H953 H 0.73397 0.70957 0.70796 0.0
H954 H 0.81831 0.66835 0.7209 0.0
H955 H 0.85172 0.69992 0.74139 0.0
H956 H 0.89357 0.68073 0.7154 0.0
H957 H 0.95244 0.77568 0.64856 0.0
H958 H 0.98307 0.8162 0.68249 0.0
H959 H 0.87177 0.7656 0.73948 0.0
C960 C 0.79575 0.67917 0.6625 0.0
C961 C 0.80365 0.67117 0.63559 0.0
C962 C 0.84571 0.68959 0.6208 0.0
C963 C 0.87798 0.71577 0.63225 0.0
C964 C 0.86879 0.72293 0.65871 0.0
C965 C 0.82933 0.70489 0.67375 0.0
C966 C 0.82838 0.71736 0.70187 0.0
C967 C 0.76694 0.73008 0.70931 0.0
C968 C 0.84926 0.68995 0.72101 0.0
C969 C 0.87253 0.74579 0.70015 0.0
C970 C 0.89528 0.74855 0.67505 0.0
C971 C 0.93532 0.77359 0.66834 0.0
C972 C 0.95239 0.79653 0.68777 0.0
C973 C 0.92984 0.79418 0.71368 0.0
C974 C 0.88987 0.76815 0.71993 0.0
H975 H 0.68594 0.81308 0.1252 0.0
H976 H 0.78129 0.8625 0.1888 0.0
H977 H 0.7292 0.82852 0.22063 0.0
H978 H 0.55032 0.79504 0.15815 0.0
H979 H 0.54379 0.75284 0.14586 0.0
H980 H 0.58209 0.78418 0.12684 0.0
H981 H 0.67471 0.7466 0.1255 0.0
H982 H 0.63642 0.715 0.14422 0.0
H983 H 0.70564 0.73128 0.15589 0.0
H984 H 0.66124 0.79329 0.24645 0.0
H985 H 0.60166 0.74741 0.26459 0.0
H986 H 0.57037 0.70945 0.18592 0.0
C987 C 0.69639 0.81705 0.14569 0.0
C988 C 0.73559 0.84287 0.15391 0.0
C989 C 0.74825 0.84555 0.18131 0.0
C990 C 0.71945 0.82574 0.19991 0.0
C991 C 0.68002 0.80175 0.19113 0.0
C992 C 0.67021 0.79616 0.16472 0.0
C993 C 0.63122 0.76549 0.1609 0.0
C994 C 0.57342 0.77497 0.14712 0.0
C995 C 0.66396 0.73796 0.14573 0.0
C996 C 0.62056 0.75527 0.18934 0.0
C997 C 0.64788 0.77731 0.2063 0.0
C998 C 0.64158 0.77498 0.23343 0.0
C999 C 0.60848 0.74847 0.24361 0.0
C1000 C 0.58482 0.72349 0.22695 0.0
C1001 C 0.58941 0.72757 0.1993 0.0
H1002 H 0.2641 0.83476 0.34004 0.0
H1003 H 0.32744 0.80873 0.41822 0.0
H1004 H 0.38189 0.76155 0.39979 0.0
H1005 H 0.25074 0.75152 0.31434 0.0
H1006 H 0.27932 0.76149 0.28221 0.0
H1007 H 0.24236 0.79323 0.30113 0.0
H1008 H 0.33354 0.83198 0.29741 0.0
H1009 H 0.37053 0.80046 0.27826 0.0
H1010 H 0.40436 0.81659 0.30773 0.0
H1011 H 0.4236 0.71537 0.37453 0.0
H1012 H 0.4641 0.67626 0.34245 0.0
H1013 H 0.3874 0.73467 0.27876 0.0
C1014 C 0.28977 0.81935 0.35328 0.0
C1015 C 0.28942 0.82506 0.38084 0.0
C1016 C 0.32432 0.80426 0.39728 0.0
C1017 C 0.35612 0.77747 0.38697 0.0
C1018 C 0.35422 0.77207 0.36001 0.0
C1019 C 0.32321 0.7927 0.3432 0.0
C1020 C 0.33142 0.7817 0.31478 0.0
C1021 C 0.27244 0.77138 0.30239 0.0
C1022 C 0.36178 0.80933 0.29859 0.0
C1023 C 0.37137 0.75154 0.3185 0.0
C1024 C 0.38291 0.74639 0.34486 0.0
C1025 C 0.4159 0.71943 0.35375 0.0
C1026 C 0.43875 0.6973 0.33522 0.0
C1027 C 0.43001 0.70251 0.30786 0.0
C1028 C 0.39542 0.73004 0.29945 0.0
H1029 H 0.22651 0.71563 0.89134 0.0
H1030 H 0.16406 0.62543 0.85232 0.0
H1031 H 0.1091 0.66001 0.82075 0.0
H1032 H 0.08713 0.76139 0.88433 0.0
H1033 H 0.12322 0.80119 0.87943 0.0
H1034 H 0.15771 0.76931 0.89927 0.0
H1035 H 0.25056 0.77268 0.8698 0.0
H1036 H 0.21601 0.8043 0.84978 0.0
H1037 H 0.24337 0.76652 0.83481 0.0
H1038 H 0.06654 0.70402 0.79136 0.0
H1039 H 0.03092 0.75513 0.76877 0.0
H1040 H 0.11259 0.81677 0.82872 0.0
C1041 C 0.20059 0.70305 0.87645 0.0
C1042 C 0.20088 0.66764 0.87415 0.0
C1043 C 0.16638 0.65244 0.85415 0.0
C1044 C 0.13443 0.67187 0.83618 0.0
C1045 C 0.13622 0.70657 0.83867 0.0
C1046 C 0.16751 0.72209 0.85854 0.0
C1047 C 0.16135 0.75992 0.85687 0.0
C1048 C 0.13051 0.77376 0.88144 0.0
C1049 C 0.2214 0.77684 0.85256 0.0
C1050 C 0.12263 0.76315 0.83272 0.0
C1051 C 0.10899 0.73203 0.82244 0.0
C1052 C 0.07626 0.72851 0.79941 0.0
C1053 C 0.05657 0.75757 0.78664 0.0
C1054 C 0.06884 0.78959 0.79721 0.0
C1055 C 0.10216 0.79243 0.82053 0.0
loop_
_geom_bond_atom_site_label_1
_geom_bond_atom_site_label_2
_geom_bond_distance
_geom_bond_site_symmetry_2
_ccdc_geom_bond_type
H0 C3 0.931 . S
H1 C6 0.928 . S
H2 C8 0.930 . S
C3 H0 0.931 . S
C3 C4 1.413 . S
C3 C5 1.360 . S
C4 C3 1.413 . S
C4 C8 1.429 . S
C5 C3 1.360 . S
C5 C6 1.372 . S
C6 H1 0.928 . S
C6 C5 1.372 . S
C6 C7 1.404 . S
C7 C6 1.404 . S
C7 C8 1.391 . S
C8 H2 0.930 . S
C8 C4 1.429 . S
C8 C7 1.391 . S
H9 C12 0.931 . S
H10 C15 0.928 . S
H11 C17 0.930 . S
C12 H9 0.931 . S
C12 C13 1.413 . S
C12 C14 1.360 . S
C13 C12 1.413 . S
C13 C17 1.429 . S
C14 C12 1.360 . S
C14 C15 1.372 . S
C15 H10 0.928 . S
C15 C14 1.372 . S
C15 C16 1.404 . S
C16 C15 1.404 . S
C16 C17 1.391 . S
C17 H11 0.930 . S
C17 C13 1.429 . S
C17 C16 1.391 . S
H18 C21 0.931 . S
H19 C24 0.928 . S
H20 C26 0.930 . S
C21 H18 0.931 . S
C21 C22 1.413 . S
C21 C23 1.360 . S
C22 C21 1.413 . S
C22 C26 1.429 . S
C23 C21 1.360 . S
C23 C24 1.372 . S
C24 H19 0.928 . S
C24 C23 1.372 . S
C24 C25 1.404 . S
C25 C24 1.404 . S
C25 C26 1.391 . S
C26 H20 0.930 . S
C26 C22 1.429 . S
C26 C25 1.391 . S
H27 C30 0.931 . S
H28 C33 0.928 . S
H29 C35 0.930 . S
C30 H27 0.931 . S
C30 C31 1.413 . S
C30 C32 1.360 . S
C31 C30 1.413 . S
C31 C35 1.429 . S
C32 C30 1.360 . S
C32 C33 1.372 . S
C33 H28 0.928 . S
C33 C32 1.372 . S
C33 C34 1.404 . S
C34 C33 1.404 . S
C34 C35 1.391 . S
C35 H29 0.930 . S
C35 C31 1.429 . S
C35 C34 1.391 . S
H36 C39 0.931 . S
H37 C42 0.928 . S
H38 C44 0.930 . S
C39 H36 0.931 . S
C39 C40 1.413 . S
C39 C41 1.360 . S
C40 C39 1.413 . S
C40 C44 1.429 . S
C41 C39 1.360 . S
C41 C42 1.372 . S
C42 H37 0.928 . S
C42 C41 1.372 . S
C42 C43 1.404 . S
C43 C42 1.404 . S
C43 C44 1.391 . S
C44 H38 0.930 . S
C44 C40 1.429 . S
C44 C43 1.391 . S
H45 C48 0.931 . S
H46 C51 0.928 . S
H47 C53 0.930 . S
C48 H45 0.931 . S
C48 C49 1.413 . S
C48 C50 1.360 . S
C49 C48 1.413 . S
C49 C53 1.429 . S
C50 C48 1.360 . S
C50 C51 1.372 . S
C51 H46 0.928 . S
C51 C50 1.372 . S
C51 C52 1.404 . S
C52 C51 1.404 . S
C52 C53 1.391 . S
C53 H47 0.930 . S
C53 C49 1.429 . S
C53 C52 1.391 . S
H54 C57 0.931 . S
H55 C60 0.928 . S
H56 C62 0.930 . S
C57 H54 0.931 . S
C57 C58 1.413 . S
C57 C59 1.360 . S
C58 C57 1.413 . S
C58 C62 1.429 . S
C59 C57 1.360 . S
C59 C60 1.372 . S
C60 H55 0.928 . S
C60 C59 1.372 . S
C60 C61 1.404 . S
C61 C60 1.404 . S
C61 C62 1.391 . S
C62 H56 0.930 . S
C62 C58 1.429 . S
C62 C61 1.391 . S
H63 C66 0.931 . S
H64 C69 0.928 . S
H65 C71 0.930 . S
C66 H63 0.931 . S
C66 C67 1.413 . S
C66 C68 1.360 . S
C67 C66 1.413 . S
C67 C71 1.429 . S
C68 C66 1.360 . S
C68 C69 1.372 . S
C69 H64 0.928 . S
C69 C68 1.372 . S
C69 C70 1.404 . S
C70 C69 1.404 . S
C70 C71 1.391 . S
C71 H65 0.930 . S
C71 C67 1.429 . S
C71 C70 1.391 . S
C72 C74 1.422 . S
C72 C76 1.415 . S
C72 N78 1.369 . S
C73 C74 1.421 . S
C73 C75 1.417 . S
C73 C85 1.422 . S
C74 C72 1.422 . S
C74 C73 1.421 . S
C74 N84 1.359 . S
C75 C73 1.417 . S
C75 C77 1.329 . S
C75 H94 0.930 . S
C76 C72 1.415 . S
C76 C77 1.437 . S
C76 C80 1.413 . S
C77 C75 1.329 . S
C77 C76 1.437 . S
C77 H99 0.929 . S
N78 C72 1.369 . S
N78 C79 1.338 . S
N78 Gd83 2.622 . S
C79 N78 1.338 . S
C79 C81 1.378 . S
C79 H91 0.929 . S
C80 C76 1.413 . S
C80 C81 1.348 . S
C80 H96 0.931 . S
C81 C79 1.378 . S
C81 C80 1.348 . S
C81 H97 0.930 . S
Gd82 N102 2.622 . S
Gd82 N109 2.570 . S
Gd82 O116 2.362 . S
Gd82 O117 2.468 . S
Gd82 O118 2.427 . S
Gd82 O120 2.388 . S
Gd82 O121 2.386 . S
Gd82 O125 2.298 1_455 S
Gd82 C135 2.805 . S
Gd83 N78 2.622 . S
Gd83 N84 2.570 . S
Gd83 O115 2.386 . S
Gd83 O119 2.307 1_655 S
Gd83 O122 2.353 1_655 S
Gd83 O123 2.468 . S
Gd83 O124 2.427 . S
Gd83 O126 2.388 . S
Gd83 C147 2.805 . S
N84 C74 1.359 . S
N84 Gd83 2.570 . S
N84 C86 1.343 . S
C85 C73 1.422 . S
C85 C87 1.321 . S
C85 H93 0.931 . S
C86 N84 1.343 . S
C86 C87 1.390 . S
C86 H88 0.931 . S
C87 C85 1.321 . S
C87 C86 1.390 . S
C87 H89 0.930 . S
H88 C86 0.931 . S
H89 C87 0.930 . S
H90 C113 0.931 . S
H91 C79 0.929 . S
H92 C114 0.930 . S
H93 C85 0.931 . S
H94 C75 0.930 . S
H95 C104 0.929 . S
H96 C80 0.931 . S
H97 C81 0.930 . S
H98 C136 0.930 . S
H99 C77 0.929 . S
H100 C105 0.931 . S
H101 C106 0.930 . S
N102 Gd82 2.622 . S
N102 C103 1.369 . S
N102 C104 1.338 . S
C103 N102 1.369 . S
C103 C107 1.415 . S
C103 C110 1.422 . S
C104 H95 0.929 . S
C104 N102 1.338 . S
C104 C106 1.378 . S
C105 H100 0.931 . S
C105 C106 1.348 . S
C105 C107 1.413 . S
C106 H101 0.930 . S
C106 C104 1.378 . S
C106 C105 1.348 . S
C107 C103 1.415 . S
C107 C105 1.413 . S
C107 C137 1.437 . S
H108 C137 0.929 . S
N109 Gd82 2.570 . S
N109 C110 1.359 . S
N109 C113 1.343 . S
C110 C103 1.422 . S
C110 N109 1.359 . S
C110 C112 1.421 . S
C111 C112 1.422 . S
C111 C114 1.321 . S
C111 H138 0.931 . S
C112 C110 1.421 . S
C112 C111 1.422 . S
C112 C136 1.417 . S
C113 H90 0.931 . S
C113 N109 1.343 . S
C113 C114 1.390 . S
C114 H92 0.930 . S
C114 C111 1.321 . S
C114 C113 1.390 . S
O115 Gd83 2.386 . S
O115 C127 1.265 . S
O116 Gd82 2.362 . S
O116 C127 1.231 1_455 S
O117 Gd82 2.468 . S
O117 C135 1.263 . S
O118 Gd82 2.427 . S
O118 C135 1.252 . S
O119 Gd83 2.307 1_455 S
O119 C128 1.261 . S
O120 Gd82 2.388 . S
O120 C128 1.252 . S
O121 Gd82 2.386 . S
O121 C139 1.265 . S
O122 Gd83 2.353 1_455 S
O122 C139 1.242 . S
O123 Gd83 2.468 . S
O123 C147 1.263 . S
O124 Gd83 2.427 . S
O124 C147 1.252 . S
O125 Gd82 2.298 1_655 S
O125 C140 1.272 . S
O126 Gd83 2.388 . S
O126 C140 1.252 . S
C127 O115 1.265 . S
C127 O116 1.231 1_655 S
C128 O119 1.261 . S
C128 O120 1.252 . S
C129 C132 1.394 . S
C129 C134 1.370 . S
C129 C135 1.500 . S
C130 C133 1.383 . S
C130 C134 1.395 . S
C131 C132 1.396 . S
C131 C133 1.365 . S
C131 H148 0.929 . S
C132 C129 1.394 . S
C132 C131 1.396 . S
C132 H149 0.930 . S
C133 C130 1.383 . S
C133 C131 1.365 . S
C133 H150 0.931 . S
C134 C129 1.370 . S
C134 C130 1.395 . S
C134 H151 0.930 . S
C135 Gd82 2.805 . S
C135 O117 1.263 . S
C135 O118 1.252 . S
C135 C129 1.500 . S
C136 H98 0.930 . S
C136 C112 1.417 . S
C136 C137 1.329 . S
C137 C107 1.437 . S
C137 H108 0.929 . S
C137 C136 1.329 . S
H138 C111 0.931 . S
C139 O121 1.265 . S
C139 O122 1.242 . S
C140 O125 1.272 . S
C140 O126 1.252 . S
C141 C144 1.394 . S
C141 C146 1.370 . S
C141 C147 1.500 . S
C142 C145 1.383 . S
C142 C146 1.395 . S
C143 C144 1.396 . S
C143 C145 1.365 . S
C143 H152 0.929 . S
C144 C141 1.394 . S
C144 C143 1.396 . S
C144 H153 0.930 . S
C145 C142 1.383 . S
C145 C143 1.365 . S
C145 H154 0.931 . S
C146 C141 1.370 . S
C146 C142 1.395 . S
C146 H155 0.930 . S
C147 Gd83 2.805 . S
C147 O123 1.263 . S
C147 O124 1.252 . S
C147 C141 1.500 . S
H148 C131 0.929 . S
H149 C132 0.930 . S
H150 C133 0.931 . S
H151 C134 0.930 . S
H152 C143 0.929 . S
H153 C144 0.930 . S
H154 C145 0.931 . S
H155 C146 0.930 . S
C156 C158 1.422 . S
C156 C160 1.415 . S
C156 N162 1.369 . S
C157 C158 1.421 . S
C157 C159 1.417 . S
C157 C169 1.422 . S
C158 C156 1.422 . S
C158 C157 1.421 . S
C158 N168 1.359 . S
C159 C157 1.417 . S
C159 C161 1.329 . S
C159 H178 0.930 . S
C160 C156 1.415 . S
C160 C161 1.437 . S
C160 C164 1.413 . S
C161 C159 1.329 . S
C161 C160 1.437 . S
C161 H183 0.929 . S
N162 C156 1.369 . S
N162 C163 1.338 . S
N162 Gd167 2.622 . S
C163 N162 1.338 . S
C163 C165 1.378 . S
C163 H175 0.929 . S
C164 C160 1.413 . S
C164 C165 1.348 . S
C164 H180 0.931 . S
C165 C163 1.378 . S
C165 C164 1.348 . S
C165 H181 0.930 . S
Gd166 N186 2.622 . S
Gd166 N193 2.570 . S
Gd166 O200 2.353 . S
Gd166 O201 2.468 . S
Gd166 O202 2.427 . S
Gd166 O204 2.388 . S
Gd166 O205 2.386 . S
Gd166 O209 2.307 . S
Gd166 C219 2.805 . S
Gd167 N162 2.622 . S
Gd167 N168 2.570 . S
Gd167 O199 2.386 . S
Gd167 O203 2.307 . S
Gd167 O206 2.353 . S
Gd167 O207 2.468 . S
Gd167 O208 2.427 . S
Gd167 O210 2.388 . S
Gd167 C231 2.805 . S
N168 C158 1.359 . S
N168 Gd167 2.570 . S
N168 C170 1.343 . S
C169 C157 1.422 . S
C169 C171 1.321 . S
C169 H177 0.931 . S
C170 N168 1.343 . S
C170 C171 1.390 . S
C170 H172 0.931 . S
C171 C169 1.321 . S
C171 C170 1.390 . S
C171 H173 0.930 . S
H172 C170 0.931 . S
H173 C171 0.930 . S
H174 C197 0.931 . S
H175 C163 0.929 . S
H176 C198 0.930 . S
H177 C169 0.931 . S
H178 C159 0.930 . S
H179 C188 0.929 . S
H180 C164 0.931 . S
H181 C165 0.930 . S
H182 C220 0.930 . S
H183 C161 0.929 . S
H184 C189 0.931 . S
H185 C190 0.930 . S
N186 Gd166 2.622 . S
N186 C187 1.369 . S
N186 C188 1.338 . S
C187 N186 1.369 . S
C187 C191 1.415 . S
C187 C194 1.422 . S
C188 H179 0.929 . S
C188 N186 1.338 . S
C188 C190 1.378 . S
C189 H184 0.931 . S
C189 C190 1.348 . S
C189 C191 1.413 . S
C190 H185 0.930 . S
C190 C188 1.378 . S
C190 C189 1.348 . S
C191 C187 1.415 . S
C191 C189 1.413 . S
C191 C221 1.437 . S
H192 C221 0.929 . S
N193 Gd166 2.570 . S
N193 C194 1.359 . S
N193 C197 1.343 . S
C194 C187 1.422 . S
C194 N193 1.359 . S
C194 C196 1.421 . S
C195 C196 1.422 . S
C195 C198 1.321 . S
C195 H222 0.931 . S
C196 C194 1.421 . S
C196 C195 1.422 . S
C196 C220 1.417 . S
C197 H174 0.931 . S
C197 N193 1.343 . S
C197 C198 1.390 . S
C198 H176 0.930 . S
C198 C195 1.321 . S
C198 C197 1.390 . S
O199 Gd167 2.386 . S
O199 C211 1.265 . S
O200 Gd166 2.353 . S
O200 C211 1.242 . S
O201 Gd166 2.468 . S
O201 C219 1.263 . S
O202 Gd166 2.427 . S
O202 C219 1.252 . S
O203 Gd167 2.307 . S
O203 C212 1.261 . S
O204 Gd166 2.388 . S
O204 C212 1.252 . S
O205 Gd166 2.386 . S
O205 C223 1.265 . S
O206 Gd167 2.353 . S
O206 C223 1.242 . S
O207 Gd167 2.468 . S
O207 C231 1.263 . S
O208 Gd167 2.427 . S
O208 C231 1.252 . S
O209 Gd166 2.307 . S
O209 C224 1.261 . S
O210 Gd167 2.388 . S
O210 C224 1.252 . S
C211 O199 1.265 . S
C211 O200 1.242 . S
C212 O203 1.261 . S
C212 O204 1.252 . S
C213 C216 1.394 . S
C213 C218 1.370 . S
C213 C219 1.500 . S
C214 C217 1.383 . S
C214 C218 1.395 . S
C215 C216 1.396 . S
C215 C217 1.365 . S
C215 H232 0.929 . S
C216 C213 1.394 . S
C216 C215 1.396 . S
C216 H233 0.930 . S
C217 C214 1.383 . S
C217 C215 1.365 . S
C217 H234 0.931 . S
C218 C213 1.370 . S
C218 C214 1.395 . S
C218 H235 0.930 . S
C219 Gd166 2.805 . S
C219 O201 1.263 . S
C219 O202 1.252 . S
C219 C213 1.500 . S
C220 H182 0.930 . S
C220 C196 1.417 . S
C220 C221 1.329 . S
C221 C191 1.437 . S
C221 H192 0.929 . S
C221 C220 1.329 . S
H222 C195 0.931 . S
C223 O205 1.265 . S
C223 O206 1.242 . S
C224 O209 1.261 . S
C224 O210 1.252 . S
C225 C228 1.394 . S
C225 C230 1.370 . S
C225 C231 1.500 . S
C226 C229 1.383 . S
C226 C230 1.395 . S
C227 C228 1.396 . S
C227 C229 1.365 . S
C227 H236 0.929 . S
C228 C225 1.394 . S
C228 C227 1.396 . S
C228 H237 0.930 . S
C229 C226 1.383 . S
C229 C227 1.365 . S
C229 H238 0.931 . S
C230 C225 1.370 . S
C230 C226 1.395 . S
C230 H239 0.930 . S
C231 Gd167 2.805 . S
C231 O207 1.263 . S
C231 O208 1.252 . S
C231 C225 1.500 . S
H232 C215 0.929 . S
H233 C216 0.930 . S
H234 C217 0.931 . S
H235 C218 0.930 . S
H236 C227 0.929 . S
H237 C228 0.930 . S
H238 C229 0.931 . S
H239 C230 0.930 . S
C240 C242 1.422 . S
C240 C244 1.415 . S
C240 N246 1.369 . S
C241 C242 1.421 . S
C241 C243 1.417 . S
C241 C253 1.422 . S
C242 C240 1.422 . S
C242 C241 1.421 . S
C242 N252 1.359 . S
C243 C241 1.417 . S
C243 C245 1.329 . S
C243 H262 0.930 . S
C244 C240 1.415 . S
C244 C245 1.437 . S
C244 C248 1.413 . S
C245 C243 1.329 . S
C245 C244 1.437 . S
C245 H267 0.929 . S
N246 C240 1.369 . S
N246 C247 1.338 . S
N246 Gd251 2.622 . S
C247 N246 1.338 . S
C247 C249 1.378 . S
C247 H259 0.929 . S
C248 C244 1.413 . S
C248 C249 1.348 . S
C248 H264 0.931 . S
C249 C247 1.378 . S
C249 C248 1.348 . S
C249 H265 0.930 . S
Gd250 N270 2.622 . S
Gd250 N277 2.570 . S
Gd250 O284 2.353 . S
Gd250 O285 2.468 . S
Gd250 O286 2.427 . S
Gd250 O288 2.388 . S
Gd250 O289 2.386 . S
Gd250 O293 2.307 . S
Gd250 C303 2.805 . S
Gd251 N246 2.622 . S
Gd251 N252 2.570 . S
Gd251 O283 2.386 . S
Gd251 O287 2.307 1_655 S
Gd251 O290 2.353 1_655 S
Gd251 O291 2.468 . S
Gd251 O292 2.427 . S
Gd251 O294 2.388 . S
Gd251 C315 2.805 . S
N252 C242 1.359 . S
N252 Gd251 2.570 . S
N252 C254 1.343 . S
C253 C241 1.422 . S
C253 C255 1.321 . S
C253 H261 0.931 . S
C254 N252 1.343 . S
C254 C255 1.390 . S
C254 H256 0.931 . S
C255 C253 1.321 . S
C255 C254 1.390 . S
C255 H257 0.930 . S
H256 C254 0.931 . S
H257 C255 0.930 . S
H258 C281 0.931 . S
H259 C247 0.929 . S
H260 C282 0.930 . S
H261 C253 0.931 . S
H262 C243 0.930 . S
H263 C272 0.929 . S
H264 C248 0.931 . S
H265 C249 0.930 . S
H266 C304 0.930 . S
H267 C245 0.929 . S
H268 C273 0.931 . S
H269 C274 0.930 . S
N270 Gd250 2.622 . S
N270 C271 1.369 . S
N270 C272 1.338 . S
C271 N270 1.369 . S
C271 C275 1.415 . S
C271 C278 1.422 . S
C272 H263 0.929 . S
C272 N270 1.338 . S
C272 C274 1.378 . S
C273 H268 0.931 . S
C273 C274 1.348 . S
C273 C275 1.413 . S
C274 H269 0.930 . S
C274 C272 1.378 . S
C274 C273 1.348 . S
C275 C271 1.415 . S
C275 C273 1.413 . S
C275 C305 1.437 . S
H276 C305 0.929 . S
N277 Gd250 2.570 . S
N277 C278 1.359 . S
N277 C281 1.343 . S
C278 C271 1.422 . S
C278 N277 1.359 . S
C278 C280 1.421 . S
C279 C280 1.422 . S
C279 C282 1.321 . S
C279 H306 0.931 . S
C280 C278 1.421 . S
C280 C279 1.422 . S
C280 C304 1.417 . S
C281 H258 0.931 . S
C281 N277 1.343 . S
C281 C282 1.390 . S
C282 H260 0.930 . S
C282 C279 1.321 . S
C282 C281 1.390 . S
O283 Gd251 2.386 . S
O283 C295 1.265 . S
O284 Gd250 2.353 . S
O284 C295 1.242 1_455 S
O285 Gd250 2.468 . S
O285 C303 1.263 . S
O286 Gd250 2.427 . S
O286 C303 1.252 . S
O287 Gd251 2.307 1_455 S
O287 C296 1.261 . S
O288 Gd250 2.388 . S
O288 C296 1.252 . S
O289 Gd250 2.386 . S
O289 C307 1.265 . S
O290 Gd251 2.353 1_455 S
O290 C307 1.242 . S
O291 Gd251 2.468 . S
O291 C315 1.263 . S
O292 Gd251 2.427 . S
O292 C315 1.252 . S
O293 Gd250 2.307 . S
O293 C308 1.261 1_455 S
O294 Gd251 2.388 . S
O294 C308 1.252 . S
C295 O283 1.265 . S
C295 O284 1.242 1_655 S
C296 O287 1.261 . S
C296 O288 1.252 . S
C297 C300 1.394 . S
C297 C302 1.370 . S
C297 C303 1.500 . S
C298 C301 1.383 . S
C298 C302 1.395 . S
C299 C300 1.396 . S
C299 C301 1.365 . S
C299 H316 0.929 . S
C300 C297 1.394 . S
C300 C299 1.396 . S
C300 H317 0.930 . S
C301 C298 1.383 . S
C301 C299 1.365 . S
C301 H318 0.931 . S
C302 C297 1.370 . S
C302 C298 1.395 . S
C302 H319 0.930 . S
C303 Gd250 2.805 . S
C303 O285 1.263 . S
C303 O286 1.252 . S
C303 C297 1.500 . S
C304 H266 0.930 . S
C304 C280 1.417 . S
C304 C305 1.329 . S
C305 C275 1.437 . S
C305 H276 0.929 . S
C305 C304 1.329 . S
H306 C279 0.931 . S
C307 O289 1.265 . S
C307 O290 1.242 . S
C308 O293 1.261 1_655 S
C308 O294 1.252 . S
C309 C312 1.394 . S
C309 C314 1.370 . S
C309 C315 1.500 . S
C310 C313 1.383 . S
C310 C314 1.395 . S
C311 C312 1.396 . S
C311 C313 1.365 . S
C311 H320 0.929 . S
C312 C309 1.394 . S
C312 C311 1.396 . S
C312 H321 0.930 . S
C313 C310 1.383 . S
C313 C311 1.365 . S
C313 H322 0.931 . S
C314 C309 1.370 . S
C314 C310 1.395 . S
C314 H323 0.930 . S
C315 Gd251 2.805 . S
C315 O291 1.263 . S
C315 O292 1.252 . S
C315 C309 1.500 . S
H316 C299 0.929 . S
H317 C300 0.930 . S
H318 C301 0.931 . S
H319 C302 0.930 . S
H320 C311 0.929 . S
H321 C312 0.930 . S
H322 C313 0.931 . S
H323 C314 0.930 . S
C324 C326 1.422 . S
C324 C328 1.415 . S
C324 N330 1.369 . S
C325 C326 1.421 . S
C325 C327 1.417 . S
C325 C337 1.422 . S
C326 C324 1.422 . S
C326 C325 1.421 . S
C326 N336 1.359 . S
C327 C325 1.417 . S
C327 C329 1.329 . S
C327 H346 0.930 . S
C328 C324 1.415 . S
C328 C329 1.437 . S
C328 C332 1.413 . S
C329 C327 1.329 . S
C329 C328 1.437 . S
C329 H351 0.929 . S
N330 C324 1.369 . S
N330 C331 1.338 . S
N330 Gd335 2.622 . S
C331 N330 1.338 . S
C331 C333 1.378 . S
C331 H343 0.929 . S
C332 C328 1.413 . S
C332 C333 1.348 . S
C332 H348 0.931 . S
C333 C331 1.378 . S
C333 C332 1.348 . S
C333 H349 0.930 . S
Gd334 N354 2.622 . S
Gd334 N361 2.570 . S
Gd334 O368 2.353 . S
Gd334 O369 2.468 . S
Gd334 O370 2.427 . S
Gd334 O372 2.388 . S
Gd334 O373 2.386 . S
Gd334 O377 2.307 . S
Gd334 C387 2.805 . S
Gd335 N330 2.622 . S
Gd335 N336 2.570 . S
Gd335 O367 2.386 . S
Gd335 O371 2.307 . S
Gd335 O374 2.353 . S
Gd335 O375 2.468 . S
Gd335 O376 2.427 . S
Gd335 O378 2.388 . S
Gd335 C399 2.805 . S
N336 C326 1.359 . S
N336 Gd335 2.570 . S
N336 C338 1.343 . S
C337 C325 1.422 . S
C337 C339 1.321 . S
C337 H345 0.931 . S
C338 N336 1.343 . S
C338 C339 1.390 . S
C338 H340 0.931 . S
C339 C337 1.321 . S
C339 C338 1.390 . S
C339 H341 0.930 . S
H340 C338 0.931 . S
H341 C339 0.930 . S
H342 C365 0.931 . S
H343 C331 0.929 . S
H344 C366 0.930 . S
H345 C337 0.931 . S
H346 C327 0.930 . S
H347 C356 0.929 . S
H348 C332 0.931 . S
H349 C333 0.930 . S
H350 C388 0.930 . S
H351 C329 0.929 . S
H352 C357 0.931 . S
H353 C358 0.930 . S
N354 Gd334 2.622 . S
N354 C355 1.369 . S
N354 C356 1.338 . S
C355 N354 1.369 . S
C355 C359 1.415 . S
C355 C362 1.422 . S
C356 H347 0.929 . S
C356 N354 1.338 . S
C356 C358 1.378 . S
C357 H352 0.931 . S
C357 C358 1.348 . S
C357 C359 1.413 . S
C358 H353 0.930 . S
C358 C356 1.378 . S
C358 C357 1.348 . S
C359 C355 1.415 . S
C359 C357 1.413 . S
C359 C389 1.437 . S
H360 C389 0.929 . S
N361 Gd334 2.570 . S
N361 C362 1.359 . S
N361 C365 1.343 . S
C362 C355 1.422 . S
C362 N361 1.359 . S
C362 C364 1.421 . S
C363 C364 1.422 . S
C363 C366 1.321 . S
C363 H390 0.931 . S
C364 C362 1.421 . S
C364 C363 1.422 . S
C364 C388 1.417 . S
C365 H342 0.931 . S
C365 N361 1.343 . S
C365 C366 1.390 . S
C366 H344 0.930 . S
C366 C363 1.321 . S
C366 C365 1.390 . S
O367 Gd335 2.386 . S
O367 C379 1.265 . S
O368 Gd334 2.353 . S
O368 C379 1.242 . S
O369 Gd334 2.468 . S
O369 C387 1.263 . S
O370 Gd334 2.427 . S
O370 C387 1.252 . S
O371 Gd335 2.307 . S
O371 C380 1.261 . S
O372 Gd334 2.388 . S
O372 C380 1.252 . S
O373 Gd334 2.386 . S
O373 C391 1.265 . S
O374 Gd335 2.353 . S
O374 C391 1.242 . S
O375 Gd335 2.468 . S
O375 C399 1.263 . S
O376 Gd335 2.427 . S
O376 C399 1.252 . S
O377 Gd334 2.307 . S
O377 C392 1.261 . S
O378 Gd335 2.388 . S
O378 C392 1.252 . S
C379 O367 1.265 . S
C379 O368 1.242 . S
C380 O371 1.261 . S
C380 O372 1.252 . S
C381 C384 1.394 . S
C381 C386 1.370 . S
C381 C387 1.500 . S
C382 C385 1.383 . S
C382 C386 1.395 . S
C383 C384 1.396 . S
C383 C385 1.365 . S
C383 H400 0.929 . S
C384 C381 1.394 . S
C384 C383 1.396 . S
C384 H401 0.930 . S
C385 C382 1.383 . S
C385 C383 1.365 . S
C385 H402 0.931 . S
C386 C381 1.370 . S
C386 C382 1.395 . S
C386 H403 0.930 . S
C387 Gd334 2.805 . S
C387 O369 1.263 . S
C387 O370 1.252 . S
C387 C381 1.500 . S
C388 H350 0.930 . S
C388 C364 1.417 . S
C388 C389 1.329 . S
C389 C359 1.437 . S
C389 H360 0.929 . S
C389 C388 1.329 . S
H390 C363 0.931 . S
C391 O373 1.265 . S
C391 O374 1.242 . S
C392 O377 1.261 . S
C392 O378 1.252 . S
C393 C396 1.394 . S
C393 C398 1.370 . S
C393 C399 1.500 . S
C394 C397 1.383 . S
C394 C398 1.395 . S
C395 C396 1.396 . S
C395 C397 1.365 . S
C395 H404 0.929 . S
C396 C393 1.394 . S
C396 C395 1.396 . S
C396 H405 0.930 . S
C397 C394 1.383 . S
C397 C395 1.365 . S
C397 H406 0.931 . S
C398 C393 1.370 . S
C398 C394 1.395 . S
C398 H407 0.930 . S
C399 Gd335 2.805 . S
C399 O375 1.263 . S
C399 O376 1.252 . S
C399 C393 1.500 . S
H400 C383 0.929 . S
H401 C384 0.930 . S
H402 C385 0.931 . S
H403 C386 0.930 . S
H404 C395 0.929 . S
H405 C396 0.930 . S
H406 C397 0.931 . S
H407 C398 0.930 . S
H408 C420 0.930 . S
H409 C422 0.930 . S
H410 C423 0.911 1_545 S
H411 C427 0.959 1_545 S
H412 C427 0.959 . S
H413 C427 0.961 . S
H414 C428 0.960 . S
H415 C428 0.961 . S
H416 C428 0.959 . S
H417 C431 0.929 . S
H418 C432 0.931 . S
H419 C434 0.930 . S
C420 H408 0.930 . S
C420 C421 1.399 . S
C420 C425 1.399 . S
C421 C420 1.399 . S
C421 C422 1.376 . S
C422 H409 0.930 . S
C422 C421 1.376 . S
C422 C423 1.388 . S
C423 H410 0.911 1_565 S
C423 C422 1.388 . S
C423 C424 1.390 . S
C424 C423 1.390 . S
C424 C425 1.394 . S
C424 C430 1.465 1_565 S
C425 C420 1.399 . S
C425 C424 1.394 . S
C425 C426 1.516 . S
C426 C425 1.516 . S
C426 C427 1.502 . S
C426 C428 1.561 . S
C426 C429 1.526 1_565 S
C427 H411 0.959 1_565 S
C427 H412 0.959 . S
C427 H413 0.961 . S
C427 C426 1.502 . S
C428 H414 0.960 . S
C428 H415 0.961 . S
C428 H416 0.959 . S
C428 C426 1.561 . S
C429 C426 1.526 1_545 S
C429 C430 1.396 . S
C429 C434 1.390 . S
C430 C424 1.465 1_545 S
C430 C429 1.396 . S
C430 C431 1.399 . S
C431 H417 0.929 . S
C431 C430 1.399 . S
C431 C432 1.385 . S
C432 H418 0.931 . S
C432 C431 1.385 . S
C432 C433 1.389 . S
C433 C432 1.389 . S
C433 C434 1.387 . S
C434 H419 0.930 . S
C434 C429 1.390 . S
C434 C433 1.387 . S
H435 C447 0.930 . S
H436 C449 0.930 . S
H437 C450 0.930 . S
H438 C454 0.959 . S
H439 C454 0.959 . S
H440 C454 0.961 . S
H441 C455 0.960 . S
H442 C455 0.961 . S
H443 C455 0.959 . S
H444 C458 0.929 . S
H445 C459 0.931 . S
H446 C461 0.930 . S
C447 H435 0.930 . S
C447 C448 1.399 . S
C447 C452 1.399 . S
C448 C447 1.399 . S
C448 C449 1.376 . S
C449 H436 0.930 . S
C449 C448 1.376 . S
C449 C450 1.388 . S
C450 H437 0.930 . S
C450 C449 1.388 . S
C450 C451 1.390 . S
C451 C450 1.390 . S
C451 C452 1.394 . S
C451 C457 1.465 . S
C452 C447 1.399 . S
C452 C451 1.394 . S
C452 C453 1.516 . S
C453 C452 1.516 . S
C453 C454 1.502 . S
C453 C455 1.561 . S
C453 C456 1.526 . S
C454 H438 0.959 . S
C454 H439 0.959 . S
C454 H440 0.961 . S
C454 C453 1.502 . S
C455 H441 0.960 . S
C455 H442 0.961 . S
C455 H443 0.959 . S
C455 C453 1.561 . S
C456 C453 1.526 . S
C456 C457 1.396 . S
C456 C461 1.390 . S
C457 C451 1.465 . S
C457 C456 1.396 . S
C457 C458 1.399 . S
C458 H444 0.929 . S
C458 C457 1.399 . S
C458 C459 1.385 . S
C459 H445 0.931 . S
C459 C458 1.385 . S
C459 C460 1.389 . S
C460 C459 1.389 . S
C460 C461 1.387 . S
C461 H446 0.930 . S
C461 C456 1.390 . S
C461 C460 1.387 . S
H462 C474 0.930 . S
H463 C476 0.930 . S
H464 C477 0.930 . S
H465 C481 0.959 . S
H466 C481 0.959 . S
H467 C481 0.961 . S
H468 C482 0.960 . S
H469 C482 0.961 . S
H470 C482 0.959 . S
H471 C485 0.929 . S
H472 C486 0.931 . S
H473 C488 0.930 . S
C474 H462 0.930 . S
C474 C475 1.399 . S
C474 C479 1.399 . S
C475 C474 1.399 . S
C475 C476 1.376 . S
C476 H463 0.930 . S
C476 C475 1.376 . S
C476 C477 1.388 . S
C477 H464 0.930 . S
C477 C476 1.388 . S
C477 C478 1.390 . S
C478 C477 1.390 . S
C478 C479 1.394 . S
C478 C484 1.465 . S
C479 C474 1.399 . S
C479 C478 1.394 . S
C479 C480 1.516 . S
C480 C479 1.516 . S
C480 C481 1.502 . S
C480 C482 1.561 . S
C480 C483 1.526 . S
C481 H465 0.959 . S
C481 H466 0.959 . S
C481 H467 0.961 . S
C481 C480 1.502 . S
C482 H468 0.960 . S
C482 H469 0.961 . S
C482 H470 0.959 . S
C482 C480 1.561 . S
C483 C480 1.526 . S
C483 C484 1.396 . S
C483 C488 1.390 . S
C484 C478 1.465 . S
C484 C483 1.396 . S
C484 C485 1.399 . S
C485 H471 0.929 . S
C485 C484 1.399 . S
C485 C486 1.385 . S
C486 H472 0.931 . S
C486 C485 1.385 . S
C486 C487 1.389 . S
C487 C486 1.389 . S
C487 C488 1.387 . S
C488 H473 0.930 . S
C488 C483 1.390 . S
C488 C487 1.387 . S
H489 C501 0.930 . S
H490 C503 0.930 . S
H491 C504 0.930 . S
H492 C508 0.959 . S
H493 C508 0.959 . S
H494 C508 0.961 . S
H495 C509 0.960 . S
H496 C509 0.961 . S
H497 C509 0.959 . S
H498 C512 0.929 1_565 S
H499 C513 0.931 . S
H500 C515 0.930 . S
C501 H489 0.930 . S
C501 C502 1.399 . S
C501 C506 1.399 . S
C502 C501 1.399 . S
C502 C503 1.376 . S
C503 H490 0.930 . S
C503 C502 1.376 . S
C503 C504 1.388 . S
C504 H491 0.930 . S
C504 C503 1.388 . S
C504 C505 1.390 . S
C505 C504 1.390 . S
C505 C506 1.394 . S
C505 C511 1.465 1_565 S
C506 C501 1.399 . S
C506 C505 1.394 . S
C506 C507 1.516 1_565 S
C507 C506 1.516 1_545 S
C507 C508 1.502 . S
C507 C509 1.561 . S
C507 C510 1.526 . S
C508 H492 0.959 . S
C508 H493 0.959 . S
C508 H494 0.961 . S
C508 C507 1.502 . S
C509 H495 0.960 . S
C509 H496 0.961 . S
C509 H497 0.959 . S
C509 C507 1.561 . S
C510 C507 1.526 . S
C510 C511 1.396 . S
C510 C515 1.390 . S
C511 C505 1.465 1_545 S
C511 C510 1.396 . S
C511 C512 1.399 . S
C512 H498 0.929 1_545 S
C512 C511 1.399 . S
C512 C513 1.385 . S
C513 H499 0.931 . S
C513 C512 1.385 . S
C513 C514 1.389 . S
C514 C513 1.389 . S
C514 C515 1.387 . S
C515 H500 0.930 . S
C515 C510 1.390 . S
C515 C514 1.387 . S
H516 C528 0.930 . S
H517 C530 0.930 . S
H518 C531 0.930 . S
H519 C535 0.959 . S
H520 C535 0.959 . S
H521 C535 0.961 . S
H522 C536 0.960 . S
H523 C536 0.961 1_465 S
H524 C536 0.959 . S
H525 C539 0.929 . S
H526 C540 0.931 . S
H527 C542 0.930 . S
C528 H516 0.930 . S
C528 C529 1.399 . S
C528 C533 1.399 . S
C529 C528 1.399 . S
C529 C530 1.376 . S
C530 H517 0.930 . S
C530 C529 1.376 . S
C530 C531 1.388 . S
C531 H518 0.930 . S
C531 C530 1.388 . S
C531 C532 1.390 . S
C532 C531 1.390 . S
C532 C533 1.394 . S
C532 C538 1.465 1_545 S
C533 C528 1.399 . S
C533 C532 1.394 . S
C533 C534 1.516 1_545 S
C534 C533 1.516 1_565 S
C534 C535 1.502 . S
C534 C536 1.561 1_565 S
C534 C537 1.526 . S
C535 H519 0.959 . S
C535 H520 0.959 . S
C535 H521 0.961 . S
C535 C534 1.502 . S
C536 H522 0.960 . S
C536 H523 0.961 1_645 S
C536 H524 0.959 . S
C536 C534 1.561 1_545 S
C537 C534 1.526 . S
C537 C538 1.396 . S
C537 C542 1.390 . S
C538 C532 1.465 1_565 S
C538 C537 1.396 . S
C538 C539 1.399 . S
C539 H525 0.929 . S
C539 C538 1.399 . S
C539 C540 1.385 . S
C540 H526 0.931 . S
C540 C539 1.385 . S
C540 C541 1.389 . S
C541 C540 1.389 . S
C541 C542 1.387 . S
C542 H527 0.930 . S
C542 C537 1.390 . S
C542 C541 1.387 . S
H543 C555 0.930 . S
H544 C557 0.930 . S
H545 C558 0.930 . S
H546 C562 0.959 . S
H547 C562 0.959 . S
H548 C562 0.961 . S
H549 C563 0.960 . S
H550 C563 0.961 . S
H551 C563 0.959 . S
H552 C566 0.929 . S
H553 C567 0.931 . S
H554 C569 0.930 . S
C555 H543 0.930 . S
C555 C556 1.399 . S
C555 C560 1.399 . S
C556 C555 1.399 . S
C556 C557 1.376 . S
C557 H544 0.930 . S
C557 C556 1.376 . S
C557 C558 1.388 . S
C558 H545 0.930 . S
C558 C557 1.388 . S
C558 C559 1.390 . S
C559 C558 1.390 . S
C559 C560 1.394 . S
C559 C565 1.465 . S
C560 C555 1.399 . S
C560 C559 1.394 . S
C560 C561 1.516 . S
C561 C560 1.516 . S
C561 C562 1.502 . S
C561 C563 1.561 . S
C561 C564 1.526 . S
C562 H546 0.959 . S
C562 H547 0.959 . S
C562 H548 0.961 . S
C562 C561 1.502 . S
C563 H549 0.960 . S
C563 H550 0.961 . S
C563 H551 0.959 . S
C563 C561 1.561 . S
C564 C561 1.526 . S
C564 C565 1.396 . S
C564 C569 1.390 . S
C565 C559 1.465 . S
C565 C564 1.396 . S
C565 C566 1.399 . S
C566 H552 0.929 . S
C566 C565 1.399 . S
C566 C567 1.385 . S
C567 H553 0.931 . S
C567 C566 1.385 . S
C567 C568 1.389 . S
C568 C567 1.389 . S
C568 C569 1.387 . S
C569 H554 0.930 . S
C569 C564 1.390 . S
C569 C568 1.387 . S
H570 C582 0.930 . S
H571 C584 0.930 . S
H572 C585 0.930 . S
H573 C589 0.959 . S
H574 C589 0.959 . S
H575 C589 0.961 . S
H576 C590 0.960 . S
H577 C590 0.961 . S
H578 C590 0.959 . S
H579 C593 0.929 . S
H580 C594 0.931 . S
H581 C596 0.930 . S
C582 H570 0.930 . S
C582 C583 1.399 . S
C582 C587 1.399 . S
C583 C582 1.399 . S
C583 C584 1.376 . S
C584 H571 0.930 . S
C584 C583 1.376 . S
C584 C585 1.388 . S
C585 H572 0.930 . S
C585 C584 1.388 . S
C585 C586 1.390 . S
C586 C585 1.390 . S
C586 C587 1.394 . S
C586 C592 1.465 . S
C587 C582 1.399 . S
C587 C586 1.394 . S
C587 C588 1.516 . S
C588 C587 1.516 . S
C588 C589 1.502 . S
C588 C590 1.561 . S
C588 C591 1.526 . S
C589 H573 0.959 . S
C589 H574 0.959 . S
C589 H575 0.961 . S
C589 C588 1.502 . S
C590 H576 0.960 . S
C590 H577 0.961 . S
C590 H578 0.959 . S
C590 C588 1.561 . S
C591 C588 1.526 . S
C591 C592 1.396 . S
C591 C596 1.390 . S
C592 C586 1.465 . S
C592 C591 1.396 . S
C592 C593 1.399 . S
C593 H579 0.929 . S
C593 C592 1.399 . S
C593 C594 1.385 . S
C594 H580 0.931 . S
C594 C593 1.385 . S
C594 C595 1.389 . S
C595 C594 1.389 . S
C595 C596 1.387 . S
C596 H581 0.930 . S
C596 C591 1.390 . S
C596 C595 1.387 . S
H597 C609 0.930 . S
H598 C611 0.930 . S
H599 C612 0.930 . S
H600 C616 0.959 . S
H601 C616 0.959 . S
H602 C616 0.961 . S
H603 C617 0.960 . S
H604 C617 0.961 . S
H605 C617 0.959 . S
H606 C620 0.929 1_545 S
H607 C621 0.931 . S
H608 C623 0.930 . S
C609 H597 0.930 . S
C609 C610 1.399 . S
C609 C614 1.399 . S
C610 C609 1.399 . S
C610 C611 1.376 . S
C611 H598 0.930 . S
C611 C610 1.376 . S
C611 C612 1.388 . S
C612 H599 0.930 . S
C612 C611 1.388 . S
C612 C613 1.390 . S
C613 C612 1.390 . S
C613 C614 1.394 . S
C613 C619 1.465 1_545 S
C614 C609 1.399 . S
C614 C613 1.394 . S
C614 C615 1.516 1_545 S
C615 C614 1.516 1_565 S
C615 C616 1.502 . S
C615 C617 1.561 . S
C615 C618 1.526 . S
C616 H600 0.959 . S
C616 H601 0.959 . S
C616 H602 0.961 . S
C616 C615 1.502 . S
C617 H603 0.960 . S
C617 H604 0.961 . S
C617 H605 0.959 . S
C617 C615 1.561 . S
C618 C615 1.526 . S
C618 C619 1.396 . S
C618 C623 1.390 . S
C619 C613 1.465 1_565 S
C619 C618 1.396 . S
C619 C620 1.399 . S
C620 H606 0.929 1_565 S
C620 C619 1.399 . S
C620 C621 1.385 . S
C621 H607 0.931 . S
C621 C620 1.385 . S
C621 C622 1.389 . S
C622 C621 1.389 . S
C622 C623 1.387 . S
C623 H608 0.930 . S
C623 C618 1.390 . S
C623 C622 1.387 . S
H624 C636 0.930 . S
H625 C638 0.930 . S
H626 C639 0.930 1_554 S
H627 C643 0.954 1_554 S
H628 C643 0.944 1_554 S
H629 C643 0.988 . S
H630 C644 0.960 1_556 S
H631 C644 0.961 . S
H632 C644 0.959 . S
H633 C647 0.929 . S
H634 C648 0.931 . S
H635 C650 0.930 . S
C636 H624 0.930 . S
C636 C637 1.399 . S
C636 C641 1.399 . S
C637 C636 1.399 . S
C637 C638 1.376 . S
C638 H625 0.930 . S
C638 C637 1.376 . S
C638 C639 1.388 . S
C639 H626 0.930 1_556 S
C639 C638 1.388 . S
C639 C640 1.390 1_556 S
C640 C639 1.390 1_554 S
C640 C641 1.394 1_554 S
C640 C646 1.465 . S
C641 C636 1.399 . S
C641 C640 1.394 1_556 S
C641 C642 1.516 1_556 S
C642 C641 1.516 1_554 S
C642 C643 1.495 1_554 S
C642 C644 1.561 . S
C642 C645 1.526 . S
C643 H627 0.954 1_556 S
C643 H628 0.944 1_556 S
C643 H629 0.988 . S
C643 C642 1.495 1_556 S
C644 H630 0.960 1_554 S
C644 H631 0.961 . S
C644 H632 0.959 . S
C644 C642 1.561 . S
C645 C642 1.526 . S
C645 C646 1.396 . S
C645 C650 1.390 . S
C646 C640 1.465 . S
C646 C645 1.396 . S
C646 C647 1.399 . S
C647 H633 0.929 . S
C647 C646 1.399 . S
C647 C648 1.385 . S
C648 H634 0.931 . S
C648 C647 1.385 . S
C648 C649 1.389 . S
C649 C648 1.389 . S
C649 C650 1.387 . S
C650 H635 0.930 . S
C650 C645 1.390 . S
C650 C649 1.387 . S
H651 C663 0.930 . S
H652 C665 0.930 . S
H653 C666 0.930 . S
H654 C670 0.959 . S
H655 C670 0.959 . S
H656 C670 0.961 . S
H657 C671 0.960 . S
H658 C671 0.961 . S
H659 C671 0.959 . S
H660 C674 0.929 . S
H661 C675 0.931 . S
H662 C677 0.930 . S
C663 H651 0.930 . S
C663 C664 1.399 . S
C663 C668 1.399 . S
C664 C663 1.399 . S
C664 C665 1.376 . S
C665 H652 0.930 . S
C665 C664 1.376 . S
C665 C666 1.388 . S
C666 H653 0.930 . S
C666 C665 1.388 . S
C666 C667 1.390 . S
C667 C666 1.390 . S
C667 C668 1.394 . S
C667 C673 1.465 . S
C668 C663 1.399 . S
C668 C667 1.394 . S
C668 C669 1.516 . S
C669 C668 1.516 . S
C669 C670 1.502 . S
C669 C671 1.561 . S
C669 C672 1.526 . S
C670 H654 0.959 . S
C670 H655 0.959 . S
C670 H656 0.961 . S
C670 C669 1.502 . S
C671 H657 0.960 . S
C671 H658 0.961 . S
C671 H659 0.959 . S
C671 C669 1.561 . S
C672 C669 1.526 . S
C672 C673 1.396 . S
C672 C677 1.390 . S
C673 C667 1.465 . S
C673 C672 1.396 . S
C673 C674 1.399 . S
C674 H660 0.929 . S
C674 C673 1.399 . S
C674 C675 1.385 . S
C675 H661 0.931 . S
C675 C674 1.385 . S
C675 C676 1.389 . S
C676 C675 1.389 . S
C676 C677 1.387 . S
C677 H662 0.930 . S
C677 C672 1.390 . S
C677 C676 1.387 . S
H678 C690 0.930 . S
H679 C692 0.930 . S
H680 C693 0.930 . S
H681 C697 0.959 . S
H682 C697 0.959 . S
H683 C697 0.961 . S
H684 C698 0.960 1_554 S
H685 C698 0.961 . S
H686 C698 0.959 . S
H687 C701 0.929 . S
H688 C702 0.931 . S
H689 C704 0.930 . S
C690 H678 0.930 . S
C690 C691 1.399 . S
C690 C695 1.399 . S
C691 C690 1.399 . S
C691 C692 1.376 . S
C692 H679 0.930 . S
C692 C691 1.376 . S
C692 C693 1.388 . S
C693 H680 0.930 . S
C693 C692 1.388 . S
C693 C694 1.390 . S
C694 C693 1.390 . S
C694 C695 1.394 . S
C694 C700 1.465 1_554 S
C695 C690 1.399 . S
C695 C694 1.394 . S
C695 C696 1.516 1_554 S
C696 C695 1.516 1_556 S
C696 C697 1.502 . S
C696 C698 1.561 . S
C696 C699 1.526 . S
C697 H681 0.959 . S
C697 H682 0.959 . S
C697 H683 0.961 . S
C697 C696 1.502 . S
C698 H684 0.960 1_556 S
C698 H685 0.961 . S
C698 H686 0.959 . S
C698 C696 1.561 . S
C699 C696 1.526 . S
C699 C700 1.396 . S
C699 C704 1.390 . S
C700 C694 1.465 1_556 S
C700 C699 1.396 . S
C700 C701 1.399 . S
C701 H687 0.929 . S
C701 C700 1.399 . S
C701 C702 1.385 . S
C702 H688 0.931 . S
C702 C701 1.385 . S
C702 C703 1.389 . S
C703 C702 1.389 . S
C703 C704 1.387 . S
C704 H689 0.930 . S
C704 C699 1.390 . S
C704 C703 1.387 . S
H705 C717 0.930 . S
H706 C719 0.930 . S
H707 C720 0.930 . S
H708 C724 0.959 . S
H709 C724 0.959 . S
H710 C724 0.961 . S
H711 C725 0.960 . S
H712 C725 0.961 . S
H713 C725 0.959 . S
H714 C728 0.929 . S
H715 C729 0.931 . S
H716 C731 0.930 . S
C717 H705 0.930 . S
C717 C718 1.399 . S
C717 C722 1.399 . S
C718 C717 1.399 . S
C718 C719 1.376 . S
C719 H706 0.930 . S
C719 C718 1.376 . S
C719 C720 1.388 . S
C720 H707 0.930 . S
C720 C719 1.388 . S
C720 C721 1.390 . S
C721 C720 1.390 . S
C721 C722 1.394 . S
C721 C727 1.465 . S
C722 C717 1.399 . S
C722 C721 1.394 . S
C722 C723 1.516 . S
C723 C722 1.516 . S
C723 C724 1.502 . S
C723 C725 1.561 . S
C723 C726 1.526 . S
C724 H708 0.959 . S
C724 H709 0.959 . S
C724 H710 0.961 . S
C724 C723 1.502 . S
C725 H711 0.960 . S
C725 H712 0.961 . S
C725 H713 0.959 . S
C725 C723 1.561 . S
C726 C723 1.526 . S
C726 C727 1.396 . S
C726 C731 1.390 . S
C727 C721 1.465 . S
C727 C726 1.396 . S
C727 C728 1.399 . S
C728 H714 0.929 . S
C728 C727 1.399 . S
C728 C729 1.385 . S
C729 H715 0.931 . S
C729 C728 1.385 . S
C729 C730 1.389 . S
C730 C729 1.389 . S
C730 C731 1.387 . S
C731 H716 0.930 . S
C731 C726 1.390 . S
C731 C730 1.387 . S
H732 C744 0.930 . S
H733 C746 0.930 . S
H734 C747 0.930 . S
H735 C751 0.959 . S
H736 C751 0.959 . S
H737 C751 0.961 . S
H738 C752 0.960 . S
H739 C752 0.961 . S
H740 C752 0.959 . S
H741 C755 0.929 . S
H742 C756 0.931 . S
H743 C758 0.930 . S
C744 H732 0.930 . S
C744 C745 1.399 . S
C744 C749 1.399 . S
C745 C744 1.399 . S
C745 C746 1.376 . S
C746 H733 0.930 . S
C746 C745 1.376 . S
C746 C747 1.388 . S
C747 H734 0.930 . S
C747 C746 1.388 . S
C747 C748 1.412 . S
C748 C747 1.412 . S
C748 C749 1.397 . S
C748 C754 1.438 1_554 S
C749 C744 1.399 . S
C749 C748 1.397 . S
C749 C750 1.516 1_554 S
C750 C749 1.516 1_556 S
C750 C751 1.502 . S
C750 C752 1.561 . S
C750 C753 1.526 . S
C751 H735 0.959 . S
C751 H736 0.959 . S
C751 H737 0.961 . S
C751 C750 1.502 . S
C752 H738 0.960 . S
C752 H739 0.961 . S
C752 H740 0.959 . S
C752 C750 1.561 . S
C753 C750 1.526 . S
C753 C754 1.396 . S
C753 C758 1.390 . S
C754 C748 1.438 1_556 S
C754 C753 1.396 . S
C754 C755 1.399 . S
C755 H741 0.929 . S
C755 C754 1.399 . S
C755 C756 1.385 . S
C756 H742 0.931 . S
C756 C755 1.385 . S
C756 C757 1.389 . S
C757 C756 1.389 . S
C757 C758 1.387 . S
C758 H743 0.930 . S
C758 C753 1.390 . S
C758 C757 1.387 . S
H759 C771 0.930 . S
H760 C773 0.930 . S
H761 C774 0.930 . S
H762 C778 0.959 . S
H763 C778 0.959 . S
H764 C778 0.961 . S
H765 C779 0.960 . S
H766 C779 0.961 . S
H767 C779 0.959 . S
H768 C782 0.929 . S
H769 C783 0.931 . S
H770 C785 0.930 . S
C771 H759 0.930 . S
C771 C772 1.399 . S
C771 C776 1.399 . S
C772 C771 1.399 . S
C772 C773 1.376 . S
C773 H760 0.930 . S
C773 C772 1.376 . S
C773 C774 1.388 . S
C774 H761 0.930 . S
C774 C773 1.388 . S
C774 C775 1.390 . S
C775 C774 1.390 . S
C775 C776 1.394 . S
C775 C781 1.465 . S
C776 C771 1.399 . S
C776 C775 1.394 . S
C776 C777 1.516 . S
C777 C776 1.516 . S
C777 C778 1.502 . S
C777 C779 1.561 . S
C777 C780 1.526 . S
C778 H762 0.959 . S
C778 H763 0.959 . S
C778 H764 0.961 . S
C778 C777 1.502 . S
C779 H765 0.960 . S
C779 H766 0.961 . S
C779 H767 0.959 . S
C779 C777 1.561 . S
C780 C777 1.526 . S
C780 C781 1.396 . S
C780 C785 1.390 . S
C781 C775 1.465 . S
C781 C780 1.396 . S
C781 C782 1.399 . S
C782 H768 0.929 . S
C782 C781 1.399 . S
C782 C783 1.385 . S
C783 H769 0.931 . S
C783 C782 1.385 . S
C783 C784 1.389 . S
C784 C783 1.389 . S
C784 C785 1.387 . S
C785 H770 0.930 . S
C785 C780 1.390 . S
C785 C784 1.387 . S
H786 C798 0.930 . S
H787 C800 0.930 . S
H788 C801 0.930 . S
H789 C805 0.959 . S
H790 C805 0.959 . S
H791 C805 0.961 . S
H792 C806 0.960 . S
H793 C806 0.961 . S
H794 C806 0.959 . S
H795 C809 0.929 . S
H796 C810 0.931 . S
H797 C812 0.930 . S
C798 H786 0.930 . S
C798 C799 1.399 . S
C798 C803 1.399 . S
C799 C798 1.399 . S
C799 C800 1.376 . S
C800 H787 0.930 . S
C800 C799 1.376 . S
C800 C801 1.388 . S
C801 H788 0.930 . S
C801 C800 1.388 . S
C801 C802 1.390 . S
C802 C801 1.390 . S
C802 C803 1.394 . S
C802 C808 1.465 1_556 S
C803 C798 1.399 . S
C803 C802 1.394 . S
C803 C804 1.516 1_556 S
C804 C803 1.516 1_554 S
C804 C805 1.502 . S
C804 C806 1.561 . S
C804 C807 1.526 . S
C805 H789 0.959 . S
C805 H790 0.959 . S
C805 H791 0.961 . S
C805 C804 1.502 . S
C806 H792 0.960 . S
C806 H793 0.961 . S
C806 H794 0.959 . S
C806 C804 1.561 . S
C807 C804 1.526 . S
C807 C808 1.396 . S
C807 C812 1.390 . S
C808 C802 1.465 1_554 S
C808 C807 1.396 . S
C808 C809 1.399 . S
C809 H795 0.929 . S
C809 C808 1.399 . S
C809 C810 1.385 . S
C810 H796 0.931 . S
C810 C809 1.385 . S
C810 C811 1.389 . S
C811 C810 1.389 . S
C811 C812 1.387 . S
C812 H797 0.930 . S
C812 C807 1.390 . S
C812 C811 1.387 . S
H813 C825 0.930 . S
H814 C827 0.930 . S
H815 C828 0.930 . S
H816 C832 0.959 . S
H817 C832 0.959 . S
H818 C832 0.961 . S
H819 C833 0.960 . S
H820 C833 0.961 . S
H821 C833 0.959 . S
H822 C836 0.929 . S
H823 C837 0.931 . S
H824 C839 0.930 . S
C825 H813 0.930 . S
C825 C826 1.399 . S
C825 C830 1.399 . S
C826 C825 1.399 . S
C826 C827 1.376 . S
C827 H814 0.930 . S
C827 C826 1.376 . S
C827 C828 1.388 . S
C828 H815 0.930 . S
C828 C827 1.388 . S
C828 C829 1.390 . S
C829 C828 1.390 . S
C829 C830 1.394 . S
C829 C835 1.465 . S
C830 C825 1.399 . S
C830 C829 1.394 . S
C830 C831 1.516 . S
C831 C830 1.516 . S
C831 C832 1.502 . S
C831 C833 1.561 . S
C831 C834 1.526 . S
C832 H816 0.959 . S
C832 H817 0.959 . S
C832 H818 0.961 . S
C832 C831 1.502 . S
C833 H819 0.960 . S
C833 H820 0.961 . S
C833 H821 0.959 . S
C833 C831 1.561 . S
C834 C831 1.526 . S
C834 C835 1.396 . S
C834 C839 1.390 . S
C835 C829 1.465 . S
C835 C834 1.396 . S
C835 C836 1.399 . S
C836 H822 0.929 . S
C836 C835 1.399 . S
C836 C837 1.385 . S
C837 H823 0.931 . S
C837 C836 1.385 . S
C837 C838 1.389 . S
C838 C837 1.389 . S
C838 C839 1.387 . S
C839 H824 0.930 . S
C839 C834 1.390 . S
C839 C838 1.387 . S
H840 C852 0.930 . S
H841 C854 0.930 . S
H842 C855 0.930 . S
H843 C859 0.959 . S
H844 C859 0.959 . S
H845 C859 0.961 . S
H846 C860 0.960 . S
H847 C860 0.961 . S
H848 C860 0.959 . S
H849 C863 0.929 . S
H850 C864 0.931 . S
H851 C866 0.930 . S
C852 H840 0.930 . S
C852 C853 1.399 . S
C852 C857 1.399 . S
C853 C852 1.399 . S
C853 C854 1.376 . S
C854 H841 0.930 . S
C854 C853 1.376 . S
C854 C855 1.388 . S
C855 H842 0.930 . S
C855 C854 1.388 . S
C855 C856 1.390 . S
C856 C855 1.390 . S
C856 C857 1.394 . S
C856 C862 1.465 . S
C857 C852 1.399 . S
C857 C856 1.394 . S
C857 C858 1.516 . S
C858 C857 1.516 . S
C858 C859 1.502 . S
C858 C860 1.561 . S
C858 C861 1.526 . S
C859 H843 0.959 . S
C859 H844 0.959 . S
C859 H845 0.961 . S
C859 C858 1.502 . S
C860 H846 0.960 . S
C860 H847 0.961 . S
C860 H848 0.959 . S
C860 C858 1.561 . S
C861 C858 1.526 . S
C861 C862 1.396 . S
C861 C866 1.390 . S
C862 C856 1.465 . S
C862 C861 1.396 . S
C862 C863 1.399 . S
C863 H849 0.929 . S
C863 C862 1.399 . S
C863 C864 1.385 . S
C864 H850 0.931 . S
C864 C863 1.385 . S
C864 C865 1.389 . S
C865 C864 1.389 . S
C865 C866 1.387 . S
C866 H851 0.930 . S
C866 C861 1.390 . S
C866 C865 1.387 . S
H867 C879 0.930 . S
H868 C881 0.930 . S
H869 C882 0.930 . S
H870 C886 0.959 . S
H871 C886 0.959 . S
H872 C886 0.961 . S
H873 C887 0.960 . S
H874 C887 0.961 . S
H875 C887 0.959 . S
H876 C890 0.929 . S
H877 C891 0.931 . S
H878 C893 0.930 . S
C879 H867 0.930 . S
C879 C880 1.399 . S
C879 C884 1.399 . S
C880 C879 1.399 . S
C880 C881 1.376 . S
C881 H868 0.930 . S
C881 C880 1.376 . S
C881 C882 1.388 . S
C882 H869 0.930 . S
C882 C881 1.388 . S
C882 C883 1.390 . S
C883 C882 1.390 . S
C883 C884 1.394 . S
C883 C889 1.465 . S
C884 C879 1.399 . S
C884 C883 1.394 . S
C884 C885 1.516 . S
C885 C884 1.516 . S
C885 C886 1.502 . S
C885 C887 1.561 . S
C885 C888 1.526 . S
C886 H870 0.959 . S
C886 H871 0.959 . S
C886 H872 0.961 . S
C886 C885 1.502 . S
C887 H873 0.960 . S
C887 H874 0.961 . S
C887 H875 0.959 . S
C887 C885 1.561 . S
C888 C885 1.526 . S
C888 C889 1.396 . S
C888 C893 1.390 . S
C889 C883 1.465 . S
C889 C888 1.396 . S
C889 C890 1.399 . S
C890 H876 0.929 . S
C890 C889 1.399 . S
C890 C891 1.385 . S
C891 H877 0.931 . S
C891 C890 1.385 . S
C891 C892 1.389 . S
C892 C891 1.389 . S
C892 C893 1.387 . S
C893 H878 0.930 . S
C893 C888 1.390 . S
C893 C892 1.387 . S
H894 C906 0.930 . S
H895 C908 0.930 . S
H896 C909 0.930 . S
H897 C913 0.959 . S
H898 C913 0.959 . S
H899 C913 0.961 . S
H900 C914 0.960 . S
H901 C914 0.961 . S
H902 C914 0.959 . S
H903 C917 0.929 . S
H904 C918 0.931 . S
H905 C920 0.930 . S
C906 H894 0.930 . S
C906 C907 1.399 . S
C906 C911 1.399 . S
C907 C906 1.399 . S
C907 C908 1.376 . S
C908 H895 0.930 . S
C908 C907 1.376 . S
C908 C909 1.388 . S
C909 H896 0.930 . S
C909 C908 1.388 . S
C909 C910 1.390 . S
C910 C909 1.390 . S
C910 C911 1.394 . S
C910 C916 1.465 . S
C911 C906 1.399 . S
C911 C910 1.394 . S
C911 C912 1.516 . S
C912 C911 1.516 . S
C912 C913 1.502 . S
C912 C914 1.561 . S
C912 C915 1.526 . S
C913 H897 0.959 . S
C913 H898 0.959 . S
C913 H899 0.961 . S
C913 C912 1.502 . S
C914 H900 0.960 . S
C914 H901 0.961 . S
C914 H902 0.959 . S
C914 C912 1.561 . S
C915 C912 1.526 . S
C915 C916 1.396 . S
C915 C920 1.390 . S
C916 C910 1.465 . S
C916 C915 1.396 . S
C916 C917 1.399 . S
C917 H903 0.929 . S
C917 C916 1.399 . S
C917 C918 1.385 . S
C918 H904 0.931 . S
C918 C917 1.385 . S
C918 C919 1.389 . S
C919 C918 1.389 . S
C919 C920 1.387 . S
C920 H905 0.930 . S
C920 C915 1.390 . S
C920 C919 1.387 . S
H921 C933 0.930 . S
H922 C935 0.930 . S
H923 C936 0.930 . S
H924 C940 0.959 . S
H925 C940 0.959 . S
H926 C940 0.961 . S
H927 C941 0.960 . S
H928 C941 0.961 . S
H929 C941 0.959 . S
H930 C944 0.929 . S
H931 C945 0.931 . S
H932 C947 0.930 . S
C933 H921 0.930 . S
C933 C934 1.399 . S
C933 C938 1.399 . S
C934 C933 1.399 . S
C934 C935 1.376 . S
C935 H922 0.930 . S
C935 C934 1.376 . S
C935 C936 1.388 . S
C936 H923 0.930 . S
C936 C935 1.388 . S
C936 C937 1.390 . S
C937 C936 1.390 . S
C937 C938 1.394 . S
C937 C943 1.465 . S
C938 C933 1.399 . S
C938 C937 1.394 . S
C938 C939 1.516 . S
C939 C938 1.516 . S
C939 C940 1.502 . S
C939 C941 1.561 . S
C939 C942 1.526 . S
C940 H924 0.959 . S
C940 H925 0.959 . S
C940 H926 0.961 . S
C940 C939 1.502 . S
C941 H927 0.960 . S
C941 H928 0.961 . S
C941 H929 0.959 . S
C941 C939 1.561 . S
C942 C939 1.526 . S
C942 C943 1.396 . S
C942 C947 1.390 . S
C943 C937 1.465 . S
C943 C942 1.396 . S
C943 C944 1.399 . S
C944 H930 0.929 . S
C944 C943 1.399 . S
C944 C945 1.385 . S
C945 H931 0.931 . S
C945 C944 1.385 . S
C945 C946 1.389 . S
C946 C945 1.389 . S
C946 C947 1.387 . S
C947 H932 0.930 . S
C947 C942 1.390 . S
C947 C946 1.387 . S
H948 C960 0.930 . S
H949 C962 0.930 . S
H950 C963 0.930 . S
H951 C967 0.959 . S
H952 C967 0.959 . S
H953 C967 0.961 . S
H954 C968 0.960 . S
H955 C968 0.961 . S
H956 C968 0.959 . S
H957 C971 0.929 . S
H958 C972 0.931 . S
H959 C974 0.930 . S
C960 H948 0.930 . S
C960 C961 1.399 . S
C960 C965 1.399 . S
C961 C960 1.399 . S
C961 C962 1.376 . S
C962 H949 0.930 . S
C962 C961 1.376 . S
C962 C963 1.388 . S
C963 H950 0.930 . S
C963 C962 1.388 . S
C963 C964 1.390 . S
C964 C963 1.390 . S
C964 C965 1.394 . S
C964 C970 1.465 . S
C965 C960 1.399 . S
C965 C964 1.394 . S
C965 C966 1.516 . S
C966 C965 1.516 . S
C966 C967 1.502 . S
C966 C968 1.561 . S
C966 C969 1.526 . S
C967 H951 0.959 . S
C967 H952 0.959 . S
C967 H953 0.961 . S
C967 C966 1.502 . S
C968 H954 0.960 . S
C968 H955 0.961 . S
C968 H956 0.959 . S
C968 C966 1.561 . S
C969 C966 1.526 . S
C969 C970 1.396 . S
C969 C974 1.390 . S
C970 C964 1.465 . S
C970 C969 1.396 . S
C970 C971 1.399 . S
C971 H957 0.929 . S
C971 C970 1.399 . S
C971 C972 1.385 . S
C972 H958 0.931 . S
C972 C971 1.385 . S
C972 C973 1.389 . S
C973 C972 1.389 . S
C973 C974 1.387 . S
C974 H959 0.930 . S
C974 C969 1.390 . S
C974 C973 1.387 . S
H975 C987 0.930 . S
H976 C989 0.930 . S
H977 C990 0.930 . S
H978 C994 0.959 . S
H979 C994 0.959 . S
H980 C994 0.961 . S
H981 C995 0.960 . S
H982 C995 0.961 . S
H983 C995 0.959 . S
H984 C998 0.929 . S
H985 C999 0.931 . S
H986 C1001 0.930 . S
C987 H975 0.930 . S
C987 C988 1.399 . S
C987 C992 1.399 . S
C988 C987 1.399 . S
C988 C989 1.376 . S
C989 H976 0.930 . S
C989 C988 1.376 . S
C989 C990 1.388 . S
C990 H977 0.930 . S
C990 C989 1.388 . S
C990 C991 1.390 . S
C991 C990 1.390 . S
C991 C992 1.394 . S
C991 C997 1.465 . S
C992 C987 1.399 . S
C992 C991 1.394 . S
C992 C993 1.516 . S
C993 C992 1.516 . S
C993 C994 1.502 . S
C993 C995 1.561 . S
C993 C996 1.526 . S
C994 H978 0.959 . S
C994 H979 0.959 . S
C994 H980 0.961 . S
C994 C993 1.502 . S
C995 H981 0.960 . S
C995 H982 0.961 . S
C995 H983 0.959 . S
C995 C993 1.561 . S
C996 C993 1.526 . S
C996 C997 1.396 . S
C996 C1001 1.390 . S
C997 C991 1.465 . S
C997 C996 1.396 . S
C997 C998 1.399 . S
C998 H984 0.929 . S
C998 C997 1.399 . S
C998 C999 1.385 . S
C999 H985 0.931 . S
C999 C998 1.385 . S
C999 C1000 1.389 . S
C1000 C999 1.389 . S
C1000 C1001 1.387 . S
C1001 H986 0.930 . S
C1001 C996 1.390 . S
C1001 C1000 1.387 . S
H1002 C1014 0.930 . S
H1003 C1016 0.930 . S
H1004 C1017 0.930 . S
H1005 C1021 0.959 . S
H1006 C1021 0.959 . S
H1007 C1021 0.961 . S
H1008 C1022 0.960 . S
H1009 C1022 0.961 . S
H1010 C1022 0.959 . S
H1011 C1025 0.929 . S
H1012 C1026 0.931 . S
H1013 C1028 0.930 . S
C1014 H1002 0.930 . S
C1014 C1015 1.399 . S
C1014 C1019 1.399 . S
C1015 C1014 1.399 . S
C1015 C1016 1.376 . S
C1016 H1003 0.930 . S
C1016 C1015 1.376 . S
C1016 C1017 1.388 . S
C1017 H1004 0.930 . S
C1017 C1016 1.388 . S
C1017 C1018 1.390 . S
C1018 C1017 1.390 . S
C1018 C1019 1.394 . S
C1018 C1024 1.465 . S
C1019 C1014 1.399 . S
C1019 C1018 1.394 . S
C1019 C1020 1.516 . S
C1020 C1019 1.516 . S
C1020 C1021 1.502 . S
C1020 C1022 1.561 . S
C1020 C1023 1.526 . S
C1021 H1005 0.959 . S
C1021 H1006 0.959 . S
C1021 H1007 0.961 . S
C1021 C1020 1.502 . S
C1022 H1008 0.960 . S
C1022 H1009 0.961 . S
C1022 H1010 0.959 . S
C1022 C1020 1.561 . S
C1023 C1020 1.526 . S
C1023 C1024 1.396 . S
C1023 C1028 1.390 . S
C1024 C1018 1.465 . S
C1024 C1023 1.396 . S
C1024 C1025 1.399 . S
C1025 H1011 0.929 . S
C1025 C1024 1.399 . S
C1025 C1026 1.385 . S
C1026 H1012 0.931 . S
C1026 C1025 1.385 . S
C1026 C1027 1.389 . S
C1027 C1026 1.389 . S
C1027 C1028 1.387 . S
C1028 H1013 0.930 . S
C1028 C1023 1.390 . S
C1028 C1027 1.387 . S
H1029 C1041 0.930 . S
H1030 C1043 0.930 . S
H1031 C1044 0.930 . S
H1032 C1048 0.959 . S
H1033 C1048 0.959 . S
H1034 C1048 0.961 . S
H1035 C1049 0.960 . S
H1036 C1049 0.961 . S
H1037 C1049 0.959 . S
H1038 C1052 0.929 . S
H1039 C1053 0.931 . S
H1040 C1055 0.930 . S
C1041 H1029 0.930 . S
C1041 C1042 1.399 . S
C1041 C1046 1.399 . S
C1042 C1041 1.399 . S
C1042 C1043 1.376 . S
C1043 H1030 0.930 . S
C1043 C1042 1.376 . S
C1043 C1044 1.388 . S
C1044 H1031 0.930 . S
C1044 C1043 1.388 . S
C1044 C1045 1.390 . S
C1045 C1044 1.390 . S
C1045 C1046 1.394 . S
C1045 C1051 1.465 . S
C1046 C1041 1.399 . S
C1046 C1045 1.394 . S
C1046 C1047 1.516 . S
C1047 C1046 1.516 . S
C1047 C1048 1.502 . S
C1047 C1049 1.561 . S
C1047 C1050 1.526 . S
C1048 H1032 0.959 . S
C1048 H1033 0.959 . S
C1048 H1034 0.961 . S
C1048 C1047 1.502 . S
C1049 H1035 0.960 . S
C1049 H1036 0.961 . S
C1049 H1037 0.959 . S
C1049 C1047 1.561 . S
C1050 C1047 1.526 . S
C1050 C1051 1.396 . S
C1050 C1055 1.390 . S
C1051 C1045 1.465 . S
C1051 C1050 1.396 . S
C1051 C1052 1.399 . S
C1052 H1038 0.929 . S
C1052 C1051 1.399 . S
C1052 C1053 1.385 . S
C1053 H1039 0.931 . S
C1053 C1052 1.385 . S
C1053 C1054 1.389 . S
C1054 C1053 1.389 . S
C1054 C1055 1.387 . S
C1055 H1040 0.930 . S
C1055 C1050 1.390 . S
C1055 C1054 1.387 . S
C421 C58 1.466 . S
C433 C128 1.467 . S
C460 C212 1.458 . S
C448 C68 1.474 . S
C487 C211 1.455 . S
C475 C40 1.456 . S
C502 C50 1.446 . S
C514 C127 1.463 . S
C541 C308 1.425 . S
C529 C23 1.465 . S
C568 C392 1.471 . S
C556 C32 1.471 . S
C583 C5 1.451 . S
C595 C391 1.462 . S
C610 C14 1.448 . S
C622 C307 1.463 . S
C649 C130 1.263 . S
C637 C13 1.500 . S
C676 C214 1.342 . S
C664 C4 1.495 . S
C703 C226 1.445 . S
C691 C31 1.514 . S
C730 C142 1.343 . S
C718 C22 1.517 . S
C757 C310 1.388 . S
C745 C49 1.484 . S
C772 C41 1.500 . S
C784 C394 1.266 . S
C811 C382 1.385 . S
C799 C67 1.509 . S
C826 C59 1.513 . S
C838 C298 1.384 . S
C865 C139 1.533 . S
C853 C7 1.516 . S
C892 C223 1.532 . S
C880 C16 1.518 . S
C907 C25 1.525 . S
C919 C224 1.501 . S
C946 C140 1.523 . S
C934 C34 1.526 . S
C973 C295 1.523 . S
C961 C43 1.534 . S
C988 C52 1.508 . S
C1000 C379 1.530 . S
C1015 C61 1.529 . S
C1027 C380 1.524 . S
C1042 C70 1.506 . S
C1054 C296 1.481 . S
