# Generated by pormake.
# Topology pyr, (3,6)-cn, num edge types: 1
# Building blocks:
#     Node 0, Type 0, BuildingBlock: BELTOD_clean_linker_0, # of connection points: 3
#     Node 1, Type 0, BuildingBlock: BELTOD_clean_linker_0, # of connection points: 3
#     Node 2, Type 0, BuildingBlock: BELTOD_clean_linker_0, # of connection points: 3
#     Node 3, Type 0, BuildingBlock: BELTOD_clean_linker_0, # of connection points: 3
#     Node 4, Type 0, BuildingBlock: BELTOD_clean_linker_0, # of connection points: 3
#     Node 5, Type 0, BuildingBlock: BELTOD_clean_linker_0, # of connection points: 3
#     Node 6, Type 0, BuildingBlock: BELTOD_clean_linker_0, # of connection points: 3
#     Node 7, Type 0, BuildingBlock: BELTOD_clean_linker_0, # of connection points: 3
#     Node 8, Type 1, BuildingBlock: MIFKUJ_clean_sbu_0, # of connection points: 6
#     Node 9, Type 1, BuildingBlock: MIFKUJ_clean_sbu_0, # of connection points: 6
#     Node 10, Type 1, BuildingBlock: MIFKUJ_clean_sbu_0, # of connection points: 6
#     Node 11, Type 1, BuildingBlock: MIFKUJ_clean_sbu_0, # of connection points: 6
#     Edge 12, Type (0, 1), BuildingBlock: KIFKEQ_clean_linker_1, # of connection points: 2
#     Edge 13, Type (0, 1), BuildingBlock: KIFKEQ_clean_linker_1, # of connection points: 2
#     Edge 14, Type (0, 1), BuildingBlock: KIFKEQ_clean_linker_1, # of connection points: 2
#     Edge 15, Type (0, 1), BuildingBlock: KIFKEQ_clean_linker_1, # of connection points: 2
#     Edge 16, Type (0, 1), BuildingBlock: KIFKEQ_clean_linker_1, # of connection points: 2
#     Edge 17, Type (0, 1), BuildingBlock: KIFKEQ_clean_linker_1, # of connection points: 2
#     Edge 18, Type (0, 1), BuildingBlock: KIFKEQ_clean_linker_1, # of connection points: 2
#     Edge 19, Type (0, 1), BuildingBlock: KIFKEQ_clean_linker_1, # of connection points: 2
#     Edge 20, Type (0, 1), BuildingBlock: KIFKEQ_clean_linker_1, # of connection points: 2
#     Edge 21, Type (0, 1), BuildingBlock: KIFKEQ_clean_linker_1, # of connection points: 2
#     Edge 22, Type (0, 1), BuildingBlock: KIFKEQ_clean_linker_1, # of connection points: 2
#     Edge 23, Type (0, 1), BuildingBlock: KIFKEQ_clean_linker_1, # of connection points: 2
#     Edge 24, Type (0, 1), BuildingBlock: KIFKEQ_clean_linker_1, # of connection points: 2
#     Edge 25, Type (0, 1), BuildingBlock: KIFKEQ_clean_linker_1, # of connection points: 2
#     Edge 26, Type (0, 1), BuildingBlock: KIFKEQ_clean_linker_1, # of connection points: 2
#     Edge 27, Type (0, 1), BuildingBlock: KIFKEQ_clean_linker_1, # of connection points: 2
#     Edge 28, Type (0, 1), BuildingBlock: KIFKEQ_clean_linker_1, # of connection points: 2
#     Edge 29, Type (0, 1), BuildingBlock: KIFKEQ_clean_linker_1, # of connection points: 2
#     Edge 30, Type (0, 1), BuildingBlock: KIFKEQ_clean_linker_1, # of connection points: 2
#     Edge 31, Type (0, 1), BuildingBlock: KIFKEQ_clean_linker_1, # of connection points: 2
#     Edge 32, Type (0, 1), BuildingBlock: KIFKEQ_clean_linker_1, # of connection points: 2
#     Edge 33, Type (0, 1), BuildingBlock: KIFKEQ_clean_linker_1, # of connection points: 2
#     Edge 34, Type (0, 1), BuildingBlock: KIFKEQ_clean_linker_1, # of connection points: 2
#     Edge 35, Type (0, 1), BuildingBlock: KIFKEQ_clean_linker_1, # of connection points: 2
# Relax obj value: 0.031
# Max RMSD: 0.086
# Mean RMSD: 0.052
data_MOF--net-pyr--node1-MIFKUJ_clean_sbu_0--node2-BELTOD_clean_linker_0--edge1-KIFKEQ_clean_linker_1
_symmetry_space_group_name_H-M    P1
_symmetry_Int_Tables_number       1
_symmetry_cell_setting            triclinic
loop_
_symmetry_equiv_pos_as_xyz
'x, y, z'
_cell_length_a     45.365035
_cell_length_b     41.012579
_cell_length_c     43.522051
_cell_angle_alpha  86.165022
_cell_angle_beta   88.456098
_cell_angle_gamma 96.085834
loop_
_atom_site_label
_atom_site_type_symbol
_atom_site_fract_x
_atom_site_fract_y
_atom_site_fract_z
_atom_type_partial_charge
P0 P 0.24856 0.23631 0.24255 0.0
H1 H 0.29705 0.25101 0.19694 0.0
H2 H 0.3238 0.21635 0.16457 0.0
H3 H 0.27086 0.13009 0.20608 0.0
H4 H 0.24424 0.16456 0.23805 0.0
H5 H 0.21476 0.29037 0.2554 0.0
H6 H 0.18056 0.32051 0.22477 0.0
H7 H 0.19918 0.26546 0.14664 0.0
H8 H 0.23285 0.23516 0.1773 0.0
H9 H 0.25662 0.20785 0.30471 0.0
H10 H 0.18649 0.2091 0.23981 0.0
O11 O 0.27245 0.261 0.2612 0.0
H12 H 0.22364 0.17195 0.34096 0.0
H13 H 0.15317 0.17447 0.27615 0.0
C14 C 0.2689 0.21041 0.22008 0.0
C15 C 0.29137 0.22461 0.19913 0.0
C16 C 0.30643 0.20486 0.18054 0.0
C17 C 0.29938 0.17056 0.18289 0.0
C18 C 0.27694 0.15643 0.20404 0.0
C19 C 0.26169 0.1762 0.22234 0.0
C20 C 0.2268 0.26106 0.21848 0.0
C21 C 0.2118 0.2852 0.23153 0.0
C22 C 0.19211 0.30214 0.21415 0.0
C23 C 0.18732 0.29529 0.18337 0.0
C24 C 0.20278 0.27147 0.17021 0.0
C25 C 0.22214 0.25423 0.18773 0.0
C26 C 0.22377 0.21178 0.26997 0.0
C27 C 0.23398 0.20085 0.29851 0.0
C28 C 0.21508 0.1804 0.3192 0.0
C29 C 0.18569 0.17046 0.31152 0.0
C30 C 0.17572 0.18136 0.2827 0.0
C31 C 0.19467 0.20158 0.26202 0.0
P32 P 0.37622 0.88748 0.65488 0.0
H33 H 0.38404 0.94797 0.68628 0.0
H34 H 0.39519 0.95971 0.73931 0.0
H35 H 0.39446 0.85563 0.76345 0.0
H36 H 0.38245 0.84414 0.71058 0.0
H37 H 0.34123 0.82742 0.63676 0.0
H38 H 0.35541 0.77497 0.62176 0.0
H39 H 0.44691 0.80663 0.63977 0.0
H40 H 0.43256 0.85969 0.6538 0.0
H41 H 0.34789 0.90196 0.59721 0.0
H42 H 0.32099 0.88156 0.69294 0.0
O43 O 0.39792 0.91548 0.63264 0.0
H44 H 0.2966 0.90819 0.58429 0.0
H45 H 0.2695 0.88749 0.68019 0.0
C46 C 0.38311 0.89529 0.69439 0.0
C47 C 0.38623 0.92771 0.70305 0.0
C48 C 0.39271 0.93437 0.73335 0.0
C49 C 0.39608 0.90864 0.7556 0.0
C50 C 0.39186 0.87603 0.74698 0.0
C51 C 0.38529 0.86942 0.71665 0.0
C52 C 0.38593 0.84761 0.64607 0.0
C53 C 0.36434 0.82317 0.63753 0.0
C54 C 0.37248 0.79296 0.62917 0.0
C55 C 0.40235 0.78654 0.62943 0.0
C56 C 0.42379 0.81091 0.63879 0.0
C57 C 0.41562 0.84117 0.647 0.0
C58 C 0.33829 0.89205 0.64607 0.0
C59 C 0.33091 0.89893 0.61545 0.0
C60 C 0.30154 0.90216 0.60808 0.0
C61 C 0.27897 0.89843 0.63124 0.0
C62 C 0.28644 0.89098 0.6619 0.0
C63 C 0.31586 0.88758 0.66922 0.0
P64 P 0.6893 0.31497 0.78953 0.0
H65 H 0.74634 0.29678 0.80917 0.0
H66 H 0.78628 0.32451 0.83745 0.0
H67 H 0.73538 0.40695 0.84581 0.0
H68 H 0.69536 0.37888 0.81736 0.0
H69 H 0.69441 0.24716 0.81049 0.0
H70 H 0.66539 0.20799 0.84724 0.0
H71 H 0.60724 0.28148 0.86625 0.0
H72 H 0.63712 0.32122 0.82998 0.0
H73 H 0.70652 0.37651 0.7528 0.0
H74 H 0.62632 0.31155 0.7737 0.0
O75 O 0.70534 0.29299 0.7642 0.0
H76 H 0.67989 0.40943 0.71601 0.0
H77 H 0.59955 0.34491 0.73781 0.0
C78 C 0.7183 0.33619 0.81042 0.0
C79 C 0.74382 0.3209 0.81695 0.0
C80 C 0.76653 0.33665 0.83338 0.0
C81 C 0.76409 0.36802 0.84375 0.0
C82 C 0.73812 0.38301 0.83772 0.0
C83 C 0.71525 0.36704 0.82146 0.0
C84 C 0.66726 0.28671 0.81667 0.0
C85 C 0.67537 0.2549 0.82242 0.0
C86 C 0.65891 0.23259 0.84356 0.0
C87 C 0.63395 0.24167 0.8593 0.0
C88 C 0.62616 0.27379 0.85404 0.0
C89 C 0.6431 0.29639 0.83329 0.0
C90 C 0.6682 0.34231 0.76706 0.0
C91 C 0.68299 0.36993 0.75029 0.0
C92 C 0.66785 0.38858 0.7291 0.0
C93 C 0.63759 0.37991 0.72435 0.0
C94 C 0.6227 0.35256 0.74152 0.0
C95 C 0.638 0.33359 0.76227 0.0
P96 P 0.81176 0.69251 0.28708 0.0
H97 H 0.84456 0.75736 0.27566 0.0
H98 H 0.87353 0.79338 0.30853 0.0
H99 H 0.86472 0.71618 0.38195 0.0
H100 H 0.83479 0.68058 0.34896 0.0
H101 H 0.80212 0.67543 0.22404 0.0
H102 H 0.82718 0.6423 0.18947 0.0
H103 H 0.88694 0.61874 0.26144 0.0
H104 H 0.86211 0.6532 0.29572 0.0
H105 H 0.76565 0.71241 0.32686 0.0
H106 H 0.79496 0.6212 0.30081 0.0
O107 O 0.7948 0.71884 0.26464 0.0
H108 H 0.72404 0.68208 0.35682 0.0
H109 H 0.75381 0.59056 0.33134 0.0
C110 C 0.83704 0.71658 0.31009 0.0
C111 C 0.84907 0.74808 0.29875 0.0
C112 C 0.86589 0.7686 0.31757 0.0
C113 C 0.87134 0.75788 0.34811 0.0
C114 C 0.8605 0.72552 0.35881 0.0
C115 C 0.84353 0.70504 0.33992 0.0
C116 C 0.83061 0.6673 0.26225 0.0
C117 C 0.82073 0.66333 0.23238 0.0
C118 C 0.83493 0.64398 0.21268 0.0
C119 C 0.85915 0.62768 0.22256 0.0
C120 C 0.86868 0.63129 0.25284 0.0
C121 C 0.85447 0.65089 0.27253 0.0
C122 C 0.78318 0.66911 0.31137 0.0
C123 C 0.76329 0.68579 0.32791 0.0
C124 C 0.73961 0.66837 0.34522 0.0
C125 C 0.73541 0.63382 0.34641 0.0
C126 C 0.75606 0.61716 0.33053 0.0
C127 C 0.77974 0.63466 0.31316 0.0
P128 P 0.85212 0.88527 0.84613 0.0
H129 H 0.82204 0.88343 0.90583 0.0
H130 H 0.77115 0.89047 0.92192 0.0
H131 H 0.7478 0.90132 0.82648 0.0
H132 H 0.79862 0.89407 0.81053 0.0
H133 H 0.90945 0.86274 0.85904 0.0
H134 H 0.92441 0.80929 0.87708 0.0
H135 H 0.83271 0.76769 0.87991 0.0
H136 H 0.81795 0.82111 0.86182 0.0
H137 H 0.85317 0.94343 0.80403 0.0
H138 H 0.86555 0.84112 0.79806 0.0
O139 O 0.87324 0.91437 0.86285 0.0
H140 H 0.86659 0.95405 0.7491 0.0
H141 H 0.87928 0.8517 0.74338 0.0
C142 C 0.81417 0.88866 0.85707 0.0
C143 C 0.80589 0.88713 0.8884 0.0
C144 C 0.7768 0.89092 0.89755 0.0
C145 C 0.75558 0.89654 0.87543 0.0
C146 C 0.76382 0.89737 0.84399 0.0
C147 C 0.79288 0.89325 0.83487 0.0
C148 C 0.86258 0.84601 0.85994 0.0
C149 C 0.89259 0.84213 0.86376 0.0
C150 C 0.90112 0.81157 0.87378 0.0
C151 C 0.87968 0.78443 0.88011 0.0
C152 C 0.84964 0.78833 0.8757 0.0
C153 C 0.84118 0.81885 0.86542 0.0
C154 C 0.8589 0.8917 0.8052 0.0
C155 C 0.85852 0.92324 0.79083 0.0
C156 C 0.86596 0.92921 0.75946 0.0
C157 C 0.87414 0.90371 0.74212 0.0
C158 C 0.87335 0.87183 0.75635 0.0
C159 C 0.86556 0.86582 0.78763 0.0
P160 P 0.71593 0.21311 0.2855 0.0
H161 H 0.7094 0.28315 0.28564 0.0
H162 H 0.6802 0.31494 0.31798 0.0
H163 H 0.64472 0.22567 0.37058 0.0
H164 H 0.67417 0.19386 0.33795 0.0
H165 H 0.73961 0.15244 0.27076 0.0
H166 H 0.77343 0.11846 0.29737 0.0
H167 H 0.77353 0.17985 0.37427 0.0
H168 H 0.73954 0.21362 0.34758 0.0
H169 H 0.70907 0.22195 0.21898 0.0
H170 H 0.66966 0.15747 0.29478 0.0
O171 O 0.74091 0.23922 0.26502 0.0
H172 H 0.67594 0.1941 0.18365 0.0
H173 H 0.63537 0.13018 0.25969 0.0
C174 C 0.69424 0.23619 0.30965 0.0
C175 C 0.69548 0.27036 0.30419 0.0
C176 C 0.67881 0.28855 0.32276 0.0
C177 C 0.66031 0.27285 0.34698 0.0
C178 C 0.65863 0.23844 0.35198 0.0
C179 C 0.67551 0.22026 0.33345 0.0
C180 C 0.73644 0.18505 0.30751 0.0
C181 C 0.74633 0.15812 0.29366 0.0
C182 C 0.76591 0.13892 0.30876 0.0
C183 C 0.77618 0.1465 0.33791 0.0
C184 C 0.76568 0.17309 0.35204 0.0
C185 C 0.7462 0.19239 0.33681 0.0
C186 C 0.6918 0.19178 0.25951 0.0
C187 C 0.69321 0.20181 0.22806 0.0
C188 C 0.67403 0.18597 0.20787 0.0
C189 C 0.65276 0.16 0.21879 0.0
C190 C 0.65164 0.14983 0.25039 0.0
C191 C 0.67104 0.1656 0.27056 0.0
P192 P 0.36443 0.61862 0.16167 0.0
H193 H 0.33886 0.60292 0.1032 0.0
H194 H 0.28802 0.59021 0.08724 0.0
H195 H 0.25579 0.60225 0.17975 0.0
H196 H 0.30699 0.61418 0.19566 0.0
H197 H 0.42288 0.65551 0.15675 0.0
H198 H 0.44017 0.71298 0.1416 0.0
H199 H 0.3493 0.73409 0.13305 0.0
H200 H 0.33222 0.67653 0.14788 0.0
H201 H 0.36688 0.55446 0.19359 0.0
H202 H 0.37384 0.65529 0.21734 0.0
O203 O 0.38589 0.59763 0.14034 0.0
H204 H 0.37962 0.53704 0.2459 0.0
H205 H 0.38614 0.63807 0.26992 0.0
C206 C 0.32668 0.60868 0.15076 0.0
C207 C 0.32085 0.60253 0.12011 0.0
C208 C 0.2917 0.59562 0.11093 0.0
C209 C 0.26772 0.59509 0.1322 0.0
C210 C 0.27371 0.60187 0.16288 0.0
C211 C 0.30296 0.60874 0.17203 0.0
C212 C 0.37635 0.66164 0.15296 0.0
C213 C 0.4067 0.67258 0.15175 0.0
C214 C 0.41653 0.70549 0.14328 0.0
C215 C 0.39611 0.72812 0.13591 0.0
C216 C 0.36561 0.71719 0.13809 0.0
C217 C 0.35581 0.68425 0.14667 0.0
C218 C 0.36988 0.60616 0.20145 0.0
C219 C 0.37079 0.5728 0.21022 0.0
C220 C 0.37793 0.56287 0.24023 0.0
C221 C 0.3842 0.58617 0.26213 0.0
C222 C 0.38201 0.61953 0.25351 0.0
C223 C 0.37482 0.62942 0.22345 0.0
P224 P 0.18644 0.31334 0.74889 0.0
H225 H 0.21 0.26804 0.70919 0.0
H226 H 0.18739 0.22469 0.67907 0.0
H227 H 0.10032 0.24784 0.70717 0.0
H228 H 0.12335 0.29215 0.73662 0.0
H229 H 0.24014 0.35287 0.76504 0.0
H230 H 0.28015 0.3851 0.73421 0.0
H231 H 0.23165 0.36788 0.65168 0.0
H232 H 0.19173 0.33543 0.68278 0.0
H233 H 0.14535 0.29026 0.79977 0.0
H234 H 0.17239 0.38232 0.74792 0.0
O235 O 0.20557 0.29237 0.77416 0.0
H236 H 0.11561 0.31835 0.83508 0.0
H237 H 0.14292 0.41082 0.78352 0.0
C238 C 0.16842 0.28328 0.72517 0.0
C239 C 0.18603 0.26397 0.70868 0.0
C240 C 0.17302 0.23895 0.69168 0.0
C241 C 0.14197 0.23236 0.69102 0.0
C242 C 0.12429 0.25229 0.70708 0.0
C243 C 0.13743 0.27756 0.72406 0.0
C244 C 0.21327 0.34123 0.72616 0.0
C245 C 0.23797 0.35634 0.74034 0.0
C246 C 0.26079 0.3749 0.72266 0.0
C247 C 0.25928 0.37879 0.69039 0.0
C248 C 0.23376 0.36484 0.67641 0.0
C249 C 0.21085 0.3464 0.69419 0.0
C250 C 0.16121 0.33418 0.77136 0.0
C251 C 0.14463 0.31652 0.79582 0.0
C252 C 0.12782 0.33267 0.81614 0.0
C253 C 0.12722 0.36693 0.81242 0.0
C254 C 0.14284 0.38441 0.787 0.0
C255 C 0.15977 0.36815 0.76666 0.0
Zn256 Zn 0.04323 0.99695 0.52828 0.0
Zn257 Zn 0.97943 0.00845 0.47989 0.0
C258 C 0.0727 0.0494 0.55693 0.0
O259 O 0.09324 0.04037 0.53842 0.0
C260 C 0.94713 0.9461 0.47185 0.0
O261 O 0.92724 0.95962 0.4878 0.0
O262 O 0.07586 0.96925 0.54005 0.0
O263 O 0.00409 0.96869 0.53521 0.0
O264 O 0.97485 0.00754 0.52621 0.0
C265 C 0.07902 0.95981 0.56808 0.0
O266 O 0.05938 0.96623 0.58895 0.0
O267 O 0.04675 0.03408 0.55718 0.0
C268 C 0.93871 0.02823 0.435 0.0
O269 O 0.95326 0.00909 0.41851 0.0
O270 O 0.94608 0.03222 0.4626 0.0
O271 O 0.01677 0.03111 0.45898 0.0
O272 O 0.05486 0.01806 0.48638 0.0
O273 O 0.97257 0.96198 0.46633 0.0
C274 C 0.98096 0.98203 0.54185 0.0
C275 C 0.0445 0.03162 0.46255 0.0
Zn276 Zn 0.52264 0.98359 1.00122 0.0
Zn277 Zn 0.47634 0.02185 0.02844 0.0
C278 C 0.48321 0.94834 0.96167 0.0
O279 O 0.49346 0.92332 0.97673 0.0
C280 C 0.50792 0.06258 0.06836 0.0
O281 O 0.49183 0.08305 0.05372 0.0
O282 O 0.55736 0.96204 0.98588 0.0
O283 O 0.53752 0.03128 1.00079 0.0
O284 O 0.49395 0.046 0.98879 0.0
C285 C 0.56472 0.96698 0.95743 0.0
O286 O 0.54944 0.98562 0.93964 0.0
O287 O 0.49161 0.97727 0.96902 0.0
C288 C 0.42343 0.03117 0.0625 0.0
O289 O 0.42795 0.00239 0.07556 0.0
O290 O 0.44063 0.04388 0.04038 0.0
O291 O 0.46313 0.97273 0.03164 0.0
O292 O 0.50768 0.95928 0.04102 0.0
O293 O 0.50574 0.03277 0.06146 0.0
C294 C 0.52209 0.0515 0.98712 0.0
C295 C 0.47973 0.95275 0.04389 0.0
Zn296 Zn 0.51139 0.46784 0.4871 0.0
Zn297 Zn 0.48291 0.52156 0.5285 0.0
C298 C 0.5482 0.51049 0.44554 0.0
O299 O 0.53008 0.49501 0.42694 0.0
C300 C 0.44454 0.48787 0.57528 0.0
O301 O 0.46511 0.50282 0.59164 0.0
O302 O 0.52457 0.42903 0.46622 0.0
O303 O 0.51216 0.45541 0.53248 0.0
O304 O 0.52003 0.50595 0.54697 0.0
C305 C 0.55018 0.42152 0.47316 0.0
O306 O 0.56494 0.43824 0.49361 0.0
O307 O 0.54398 0.50438 0.47447 0.0
C308 C 0.45225 0.57528 0.54391 0.0
O309 O 0.43136 0.55769 0.53004 0.0
O310 O 0.47765 0.565 0.54603 0.0
O311 O 0.47923 0.53007 0.48227 0.0
O312 O 0.47318 0.47908 0.46863 0.0
O313 O 0.4475 0.49089 0.54603 0.0
C314 C 0.52331 0.47556 0.55102 0.0
C315 C 0.46916 0.50917 0.4638 0.0
Zn316 Zn 0.97364 0.51849 0.98825 0.0
Zn317 Zn 0.0177 0.47633 0.04371 0.0
C318 C 0.94038 0.48538 0.94295 0.0
O319 O 0.95958 0.5049 0.92525 0.0
C320 C 0.06047 0.51834 0.07028 0.0
O321 O 0.04154 0.50852 0.09327 0.0
O322 O 0.96688 0.56181 0.96668 0.0
O323 O 0.96303 0.52388 0.03297 0.0
O324 O 0.985 0.49374 0.06768 0.0
C325 C 0.94013 0.56842 0.96759 0.0
O326 O 0.91985 0.54722 0.98212 0.0
O327 O 0.94247 0.48546 0.97204 0.0
C328 C 0.0503 0.42293 0.05735 0.0
O329 O 0.05902 0.43085 0.02854 0.0
O330 O 0.03062 0.43836 0.06947 0.0
O331 O 0.00993 0.45938 0.0016 0.0
O332 O 0.01394 0.5066 0.97405 0.0
O333 O 0.05441 0.50924 0.04354 0.0
C334 C 0.96652 0.514 0.0608 0.0
C335 C 0.01889 0.47666 0.97718 0.0
H336 H 0.18042 0.17261 0.37414 0.0
H337 H 0.14507 0.11936 0.29846 0.0
H338 H 0.14665 0.13761 0.40994 0.0
H339 H 0.11089 0.08486 0.3343 0.0
H340 H 0.03225 0.05892 0.40573 0.0
H341 H 0.06679 0.09162 0.36881 0.0
H342 H 0.13864 0.07861 0.42999 0.0
H343 H 0.10433 0.04615 0.46696 0.0
C344 C 0.16567 0.15327 0.36516 0.0
C345 C 0.16545 0.14882 0.33341 0.0
C346 C 0.14628 0.13329 0.38566 0.0
C347 C 0.12615 0.10857 0.37486 0.0
C348 C 0.12592 0.10402 0.34319 0.0
C349 C 0.14546 0.12384 0.32269 0.0
C350 C 0.05541 0.0629 0.41124 0.0
C351 C 0.06548 0.05 0.43933 0.0
C352 C 0.07521 0.08149 0.39005 0.0
C353 C 0.10535 0.08774 0.39665 0.0
C354 C 0.11546 0.07449 0.4245 0.0
C355 C 0.09578 0.05573 0.44555 0.0
H356 H 0.43688 0.95765 0.77228 0.0
H357 H 0.37614 0.87585 0.81059 0.0
H358 H 0.45378 0.96809 0.82361 0.0
H359 H 0.39326 0.88625 0.86213 0.0
H360 H 0.46274 0.8899 0.93913 0.0
H361 H 0.43853 0.88137 0.89061 0.0
H362 H 0.43867 0.98635 0.87334 0.0
H363 H 0.46339 0.99496 0.92168 0.0
C364 C 0.42674 0.94222 0.79171 0.0
C365 C 0.40515 0.91588 0.78726 0.0
C366 C 0.43644 0.94823 0.82119 0.0
C367 C 0.42485 0.92803 0.847 0.0
C368 C 0.40289 0.90203 0.84267 0.0
C369 C 0.39312 0.89604 0.81314 0.0
C370 C 0.45731 0.91117 0.92518 0.0
C371 C 0.46526 0.94313 0.93416 0.0
C372 C 0.44326 0.90626 0.89741 0.0
C373 C 0.43687 0.93319 0.87797 0.0
C374 C 0.44372 0.9651 0.88757 0.0
C375 C 0.45772 0.97002 0.91538 0.0
H376 H 0.65591 0.39417 0.66445 0.0
H377 H 0.58416 0.40488 0.72889 0.0
H378 H 0.62878 0.41923 0.62283 0.0
H379 H 0.55716 0.43047 0.68722 0.0
H380 H 0.53628 0.50483 0.60461 0.0
H381 H 0.56467 0.4839 0.64748 0.0
H382 H 0.57813 0.39834 0.59851 0.0
H383 H 0.54936 0.41864 0.55614 0.0
C384 C 0.63455 0.40239 0.66977 0.0
C385 C 0.62211 0.39763 0.69986 0.0
C386 C 0.61898 0.41651 0.64596 0.0
C387 C 0.5909 0.4267 0.65186 0.0
C388 C 0.57885 0.42297 0.68213 0.0
C389 C 0.59419 0.40823 0.70588 0.0
C390 C 0.54534 0.48158 0.60303 0.0
C391 C 0.54062 0.46342 0.57697 0.0
C392 C 0.56145 0.46959 0.62757 0.0
C393 C 0.57367 0.43962 0.62616 0.0
C394 C 0.56917 0.42165 0.60003 0.0
C395 C 0.55258 0.43324 0.57585 0.0
H396 H 0.83424 0.58763 0.17995 0.0
H397 H 0.91886 0.62201 0.21615 0.0
H398 H 0.85943 0.55834 0.14198 0.0
H399 H 0.94393 0.59195 0.17853 0.0
H400 H 0.97586 0.50972 0.1229 0.0
H401 H 0.94955 0.53478 0.1634 0.0
H402 H 0.89272 0.57441 0.09565 0.0
H403 H 0.91887 0.54943 0.0552 0.0
C404 C 0.85822 0.58904 0.17984 0.0
C405 C 0.87448 0.60757 0.20102 0.0
C406 C 0.87263 0.57213 0.15809 0.0
C407 C 0.90369 0.57298 0.15711 0.0
C408 C 0.91995 0.59057 0.17887 0.0
C409 C 0.90554 0.60774 0.2005 0.0
C410 C 0.95758 0.52354 0.11666 0.0
C411 C 0.94948 0.52751 0.08575 0.0
C412 C 0.94266 0.53808 0.13986 0.0
C413 C 0.91907 0.5566 0.13274 0.0
C414 C 0.9106 0.56002 0.10195 0.0
C415 C 0.92571 0.54581 0.07873 0.0
H416 H 0.31193 0.17911 0.12096 0.0
H417 H 0.32306 0.11446 0.20124 0.0
H418 H 0.33852 0.1442 0.08915 0.0
H419 H 0.35033 0.08007 0.16985 0.0
H420 H 0.37843 0.00923 0.10406 0.0
H421 H 0.34572 0.0421 0.131 0.0
H422 H 0.38725 0.1299 0.08008 0.0
H423 H 0.41906 0.09686 0.05236 0.0
C424 C 0.32027 0.15753 0.13179 0.0
C425 C 0.31547 0.14945 0.16352 0.0
C426 C 0.33552 0.13754 0.11362 0.0
C427 C 0.34654 0.10923 0.12688 0.0
C428 C 0.34162 0.10123 0.15868 0.0
C429 C 0.32614 0.12103 0.17675 0.0
C430 C 0.38026 0.0355 0.09834 0.0
C431 C 0.40141 0.05048 0.07623 0.0
C432 C 0.36168 0.0544 0.11395 0.0
C433 C 0.36408 0.08874 0.10803 0.0
C434 C 0.38452 0.10351 0.08503 0.0
C435 C 0.40287 0.08456 0.06919 0.0
H436 H 0.24802 0.87572 0.58247 0.0
H437 H 0.23986 0.93186 0.66217 0.0
H438 H 0.19819 0.88629 0.56785 0.0
H439 H 0.19021 0.94274 0.64745 0.0
H440 H 0.09312 0.93749 0.62592 0.0
H441 H 0.1399 0.91867 0.64206 0.0
H442 H 0.17381 0.93214 0.54782 0.0
H443 H 0.12689 0.95012 0.5316 0.0
C444 C 0.23558 0.89036 0.59684 0.0
C445 C 0.24795 0.90309 0.6234 0.0
C446 C 0.20703 0.89644 0.58846 0.0
C447 C 0.1902 0.91549 0.60638 0.0
C448 C 0.20233 0.92756 0.63335 0.0
C449 C 0.23084 0.92137 0.64178 0.0
C450 C 0.11043 0.93606 0.60859 0.0
C451 C 0.10629 0.94544 0.57749 0.0
C452 C 0.13733 0.92548 0.61789 0.0
C453 C 0.16072 0.9241 0.59629 0.0
C454 C 0.15619 0.93251 0.56504 0.0
C455 C 0.12929 0.94299 0.55574 0.0
H456 H 0.78734 0.43235 0.83493 0.0
H457 H 0.79714 0.34242 0.88937 0.0
H458 H 0.82971 0.45988 0.85984 0.0
H459 H 0.83992 0.3698 0.91385 0.0
H460 H 0.89646 0.44228 0.97232 0.0
H461 H 0.85319 0.41383 0.94941 0.0
H462 H 0.8839 0.45702 0.85951 0.0
H463 H 0.9269 0.48552 0.88225 0.0
C464 C 0.79839 0.41854 0.8524 0.0
C465 C 0.78891 0.38519 0.86011 0.0
C466 C 0.82286 0.4342 0.86643 0.0
C467 C 0.83831 0.41695 0.88866 0.0
C468 C 0.82842 0.3838 0.89692 0.0
C469 C 0.80407 0.36806 0.88271 0.0
C470 C 0.89406 0.44553 0.94764 0.0
C471 C 0.91512 0.46625 0.92914 0.0
C472 C 0.86931 0.42917 0.93452 0.0
C473 C 0.86499 0.4334 0.90268 0.0
C474 C 0.88632 0.45368 0.88417 0.0
C475 C 0.91111 0.46982 0.89722 0.0
H476 H 0.70084 0.58029 0.32811 0.0
H477 H 0.70943 0.64593 0.40175 0.0
H478 H 0.65608 0.55173 0.35342 0.0
H479 H 0.66374 0.61815 0.42645 0.0
H480 H 0.59637 0.53682 0.47608 0.0
H481 H 0.64216 0.56667 0.45329 0.0
H482 H 0.6055 0.56195 0.3629 0.0
H483 H 0.56026 0.53169 0.38547 0.0
C484 C 0.69333 0.58851 0.34983 0.0
C485 C 0.70881 0.61546 0.36284 0.0
C486 C 0.66736 0.57241 0.36414 0.0
C487 C 0.65606 0.58286 0.39182 0.0
C488 C 0.67185 0.60937 0.40522 0.0
C489 C 0.6979 0.6255 0.39089 0.0
C490 C 0.59802 0.54246 0.45138 0.0
C491 C 0.57474 0.53166 0.43258 0.0
C492 C 0.62425 0.55961 0.43831 0.0
C493 C 0.62769 0.56634 0.40619 0.0
C494 C 0.60392 0.55652 0.38762 0.0
C495 C 0.57784 0.53937 0.40062 0.0
H496 H 0.19545 0.32457 0.12533 0.0
H497 H 0.13064 0.3042 0.20045 0.0
H498 H 0.16008 0.3528 0.09526 0.0
H499 H 0.0947 0.33145 0.17007 0.0
H500 H 0.0524 0.41665 0.12008 0.0
H501 H 0.08442 0.38429 0.15074 0.0
H502 H 0.11587 0.34421 0.06804 0.0
H503 H 0.08476 0.37769 0.03735 0.0
C504 C 0.17347 0.32588 0.13523 0.0
C505 C 0.16576 0.31236 0.16519 0.0
C506 C 0.1531 0.34184 0.11797 0.0
C507 C 0.12441 0.34426 0.13014 0.0
C508 C 0.1167 0.33048 0.16012 0.0
C509 C 0.13723 0.31484 0.17752 0.0
C510 C 0.06586 0.40057 0.10854 0.0
C511 C 0.06627 0.39986 0.07632 0.0
C512 C 0.08419 0.38193 0.12611 0.0
C513 C 0.10303 0.36189 0.11185 0.0
C514 C 0.10223 0.36 0.07972 0.0
C515 C 0.08421 0.37895 0.06214 0.0
H516 H 0.65371 0.20489 0.90715 0.0
H517 H 0.57429 0.22328 0.85964 0.0
H518 H 0.62568 0.16115 0.93978 0.0
H519 H 0.54619 0.17836 0.89125 0.0
H520 H 0.49936 0.10879 0.96851 0.0
H521 H 0.5255 0.15726 0.94003 0.0
H522 H 0.60469 0.10736 0.93546 0.0
H523 H 0.57905 0.06 0.96487 0.0
C524 C 0.63017 0.19946 0.90376 0.0
C525 C 0.61616 0.21725 0.88083 0.0
C526 C 0.61409 0.17422 0.92226 0.0
C527 C 0.58367 0.16567 0.91788 0.0
C528 C 0.56947 0.18433 0.89553 0.0
C529 C 0.58554 0.21001 0.87733 0.0
C530 C 0.52237 0.10834 0.9614 0.0
C531 C 0.5372 0.08069 0.9691 0.0
C532 C 0.53736 0.13606 0.94497 0.0
C533 C 0.56739 0.13651 0.9356 0.0
C534 C 0.58189 0.10847 0.94295 0.0
C535 C 0.56709 0.08109 0.95966 0.0
H536 H 0.85856 0.76372 0.40934 0.0
H537 H 0.91825 0.80527 0.33442 0.0
H538 H 0.87984 0.80516 0.44218 0.0
H539 H 0.93829 0.84791 0.36669 0.0
H540 H 0.98223 0.91115 0.43696 0.0
H541 H 0.96692 0.86215 0.40997 0.0
H542 H 0.87736 0.86214 0.44647 0.0
H543 H 0.89284 0.91021 0.47409 0.0
C544 C 0.87647 0.78141 0.39993 0.0
C545 C 0.88648 0.78119 0.36906 0.0
C546 C 0.88841 0.80554 0.41868 0.0
C547 C 0.91055 0.83025 0.40706 0.0
C548 C 0.92142 0.82922 0.37659 0.0
C549 C 0.90961 0.80496 0.35789 0.0
C550 C 0.95936 0.90039 0.43952 0.0
C551 C 0.93875 0.91471 0.4576 0.0
C552 C 0.95052 0.87242 0.42387 0.0
C553 C 0.92083 0.85817 0.42584 0.0
C554 C 0.90049 0.87202 0.4447 0.0
C555 C 0.90935 0.89982 0.46043 0.0
H556 H 0.37308 0.72472 0.64075 0.0
H557 H 0.45145 0.77677 0.5945 0.0
H558 H 0.38591 0.67354 0.62115 0.0
H559 H 0.46445 0.72544 0.57533 0.0
H560 H 0.49101 0.62025 0.57038 0.0
H561 H 0.47988 0.67085 0.59281 0.0
H562 H 0.38797 0.65051 0.57013 0.0
H563 H 0.39893 0.60002 0.54799 0.0
C564 C 0.393 0.72529 0.62637 0.0
C565 C 0.41112 0.75495 0.61908 0.0
C566 C 0.40037 0.69594 0.61518 0.0
C567 C 0.42611 0.69549 0.59657 0.0
C568 C 0.44464 0.72493 0.5899 0.0
C569 C 0.4372 0.75434 0.60095 0.0
C570 C 0.46844 0.62659 0.57021 0.0
C571 C 0.44587 0.60611 0.55738 0.0
C572 C 0.4621 0.65562 0.58295 0.0
C573 C 0.43303 0.6646 0.58334 0.0
C574 C 0.41051 0.64405 0.57057 0.0
C575 C 0.41686 0.61521 0.55768 0.0
H576 H 0.9248 0.88529 0.71741 0.0
H577 H 0.85059 0.93917 0.69513 0.0
H578 H 0.9477 0.90208 0.667 0.0
H579 H 0.8729 0.95513 0.64385 0.0
H580 H 0.94141 0.01285 0.57476 0.0
H581 H 0.91268 0.99111 0.62107 0.0
H582 H 0.94687 0.89728 0.61382 0.0
H583 H 0.97671 0.91969 0.56849 0.0
C584 C 0.91304 0.90008 0.70133 0.0
C585 C 0.88598 0.91099 0.71013 0.0
C586 C 0.9261 0.90966 0.67233 0.0
C587 C 0.91222 0.93007 0.65123 0.0
C588 C 0.88451 0.93993 0.65968 0.0
C589 C 0.87162 0.93068 0.68894 0.0
C590 C 0.94261 0.98753 0.58302 0.0
C591 C 0.9616 0.96811 0.56832 0.0
C592 C 0.92595 0.97493 0.60945 0.0
C593 C 0.92758 0.94245 0.62144 0.0
C594 C 0.94559 0.92263 0.60575 0.0
C595 C 0.96261 0.93541 0.57968 0.0
H596 H 0.6253 0.18996 0.17122 0.0
H597 H 0.63162 0.09464 0.21778 0.0
H598 H 0.59109 0.16493 0.13558 0.0
H599 H 0.59577 0.06972 0.18302 0.0
H600 H 0.55427 0.03325 0.09353 0.0
H601 H 0.58935 0.05576 0.13045 0.0
H602 H 0.54144 0.14114 0.13438 0.0
H603 H 0.50736 0.11932 0.09694 0.0
C604 C 0.61945 0.16361 0.17386 0.0
C605 C 0.63139 0.14435 0.19736 0.0
C606 C 0.5994 0.14927 0.15364 0.0
C607 C 0.5904 0.11528 0.15652 0.0
C608 C 0.60236 0.09592 0.17997 0.0
C609 C 0.62264 0.11029 0.20015 0.0
C610 C 0.55127 0.05677 0.10243 0.0
C611 C 0.52826 0.07467 0.09209 0.0
C612 C 0.57127 0.06962 0.12368 0.0
C613 C 0.56847 0.10048 0.13517 0.0
C614 C 0.5448 0.11773 0.12547 0.0
C615 C 0.5251 0.1051 0.10409 0.0
H616 H 0.42812 0.61721 0.29502 0.0
H617 H 0.36366 0.53144 0.29959 0.0
H618 H 0.44688 0.59883 0.34439 0.0
H619 H 0.3825 0.51299 0.34906 0.0
H620 H 0.44851 0.4724 0.41694 0.0
H621 H 0.42656 0.49148 0.36939 0.0
H622 H 0.4343 0.59037 0.39903 0.0
H623 H 0.45669 0.57146 0.44632 0.0
C624 C 0.41761 0.59469 0.30678 0.0
C625 C 0.39436 0.57582 0.29325 0.0
C626 C 0.42841 0.58411 0.33513 0.0
C627 C 0.41628 0.55436 0.35072 0.0
C628 C 0.3927 0.53575 0.33746 0.0
C629 C 0.38187 0.54635 0.30909 0.0
C630 C 0.4454 0.49819 0.41341 0.0
C631 C 0.4545 0.52039 0.43546 0.0
C632 C 0.43266 0.50911 0.38618 0.0
C633 C 0.42869 0.5425 0.3803 0.0
C634 C 0.43739 0.56458 0.40258 0.0
C635 C 0.45011 0.55368 0.4298 0.0
H636 H 0.09176 0.41693 0.80313 0.0
H637 H 0.12754 0.35653 0.87497 0.0
H638 H 0.06532 0.44411 0.84212 0.0
H639 H 0.10164 0.38378 0.91377 0.0
H640 H 0.02716 0.41196 0.97405 0.0
H641 H 0.05267 0.38654 0.93374 0.0
H642 H 0.07154 0.48109 0.88316 0.0
H643 H 0.04521 0.50654 0.92337 0.0
C644 C 0.09416 0.40963 0.82723 0.0
C645 C 0.11149 0.38427 0.83589 0.0
C646 C 0.07906 0.42526 0.84961 0.0
C647 C 0.08107 0.41598 0.88117 0.0
C648 C 0.09892 0.39107 0.88972 0.0
C649 C 0.11384 0.37541 0.86743 0.0
C650 C 0.03673 0.42743 0.95438 0.0
C651 C 0.03425 0.46139 0.95212 0.0
C652 C 0.05155 0.41283 0.93126 0.0
C653 C 0.06447 0.43175 0.90522 0.0
C654 C 0.06167 0.46568 0.90272 0.0
C655 C 0.04671 0.48032 0.92588 0.0
H656 H 0.72444 0.94551 0.85283 0.0
H657 H 0.71898 0.86293 0.92044 0.0
H658 H 0.67684 0.95974 0.8718 0.0
H659 H 0.67087 0.87661 0.93908 0.0
H660 H 0.60721 0.93754 0.98893 0.0
H661 H 0.65174 0.91786 0.96771 0.0
H662 H 0.6248 0.94403 0.87556 0.0
H663 H 0.58085 0.96477 0.89688 0.0
C664 C 0.71272 0.93001 0.87136 0.0
C665 C 0.72542 0.9032 0.88524 0.0
C666 C 0.68539 0.9381 0.88222 0.0
C667 C 0.67002 0.91939 0.90706 0.0
C668 C 0.68235 0.89191 0.9203 0.0
C669 C 0.70983 0.88399 0.90958 0.0
C670 C 0.61074 0.93891 0.96414 0.0
C671 C 0.59068 0.95297 0.94459 0.0
C672 C 0.63617 0.92742 0.95194 0.0
C673 C 0.64195 0.92947 0.9199 0.0
C674 C 0.62135 0.94263 0.90036 0.0
C675 C 0.59607 0.95439 0.91257 0.0
H676 H 0.82602 0.12797 0.31072 0.0
H677 H 0.77846 0.12378 0.39842 0.0
H678 H 0.86458 0.09916 0.33467 0.0
H679 H 0.81692 0.09434 0.42248 0.0
H680 H 0.90759 0.07423 0.46021 0.0
H681 H 0.86785 0.1022 0.43716 0.0
H682 H 0.87376 0.04654 0.35674 0.0
H683 H 0.91396 0.01939 0.37934 0.0
C684 C 0.82359 0.12043 0.33507 0.0
C685 C 0.7991 0.12798 0.35264 0.0
C686 C 0.84571 0.10387 0.34883 0.0
C687 C 0.84385 0.09426 0.38052 0.0
C688 C 0.81928 0.10175 0.39811 0.0
C689 C 0.79719 0.11851 0.38434 0.0
C690 C 0.90038 0.06797 0.43761 0.0
C691 C 0.91407 0.04473 0.42153 0.0
C692 C 0.87745 0.08386 0.42447 0.0
C693 C 0.86763 0.07674 0.39502 0.0
C694 C 0.88109 0.05311 0.3792 0.0
C695 C 0.90408 0.03739 0.39225 0.0
H696 H 0.24282 0.61443 0.07796 0.0
H697 H 0.22233 0.55698 0.1642 0.0
H698 H 0.19243 0.59941 0.06153 0.0
H699 H 0.17208 0.54224 0.14789 0.0
H700 H 0.07699 0.54508 0.12353 0.0
H701 H 0.12644 0.56649 0.13759 0.0
H702 H 0.16041 0.55096 0.04667 0.0
H703 H 0.11053 0.52986 0.03234 0.0
C704 C 0.22764 0.59851 0.09338 0.0
C705 C 0.23669 0.58695 0.12246 0.0
C706 C 0.19874 0.58994 0.08394 0.0
C707 C 0.17816 0.56973 0.10341 0.0
C708 C 0.18717 0.55836 0.13253 0.0
C709 C 0.21603 0.56685 0.14192 0.0
C710 C 0.09489 0.54656 0.10635 0.0
C711 C 0.08982 0.53549 0.07686 0.0
C712 C 0.12332 0.55865 0.11452 0.0
C713 C 0.1475 0.55996 0.09345 0.0
C714 C 0.14225 0.55039 0.06343 0.0
C715 C 0.11367 0.53827 0.0552 0.0
H716 H 0.28308 0.36091 0.63626 0.0
H717 H 0.29367 0.43544 0.70184 0.0
H718 H 0.32737 0.38665 0.60748 0.0
H719 H 0.3378 0.46126 0.67304 0.0
H720 H 0.43337 0.47562 0.63704 0.0
H721 H 0.38809 0.44974 0.66335 0.0
H722 H 0.34834 0.43505 0.57555 0.0
H723 H 0.39412 0.46051 0.54906 0.0
C724 C 0.29457 0.3831 0.64427 0.0
C725 C 0.28488 0.39601 0.67148 0.0
C726 C 0.32001 0.39784 0.62777 0.0
C727 C 0.33636 0.42586 0.63808 0.0
C728 C 0.32615 0.43928 0.6648 0.0
C729 C 0.30078 0.42453 0.68129 0.0
C730 C 0.41506 0.46677 0.62326 0.0
C731 C 0.41739 0.47024 0.59091 0.0
C732 C 0.38895 0.45213 0.6384 0.0
C733 C 0.36438 0.44062 0.62162 0.0
C734 C 0.36688 0.44346 0.58921 0.0
C735 C 0.3931 0.45812 0.57402 0.0
H736 H 0.9253 0.75262 0.85881 0.0
H737 H 0.85425 0.74394 0.92787 0.0
H738 H 0.94008 0.6998 0.87848 0.0
H739 H 0.86927 0.69162 0.94799 0.0
H740 H 0.88435 0.58467 0.958 0.0
H741 H 0.86988 0.63608 0.93528 0.0
H742 H 0.96222 0.67429 0.92221 0.0
H743 H 0.97673 0.62223 0.9441 0.0
C744 C 0.91299 0.73948 0.87833 0.0
C745 C 0.88858 0.75229 0.89177 0.0
C746 C 0.92148 0.7093 0.88966 0.0
C747 C 0.90583 0.69142 0.91478 0.0
C748 C 0.88146 0.70439 0.92823 0.0
C749 C 0.87287 0.7344 0.91676 0.0
C750 C 0.90159 0.60399 0.95021 0.0
C751 C 0.93169 0.59947 0.95298 0.0
C752 C 0.89328 0.63357 0.93733 0.0
C753 C 0.91487 0.65946 0.92716 0.0
C754 C 0.94502 0.65474 0.92951 0.0
C755 C 0.95335 0.62499 0.9422 0.0
H756 H 0.44127 0.76884 0.15809 0.0
H757 H 0.37517 0.76528 0.08845 0.0
H758 H 0.46054 0.82412 0.13783 0.0
H759 H 0.39449 0.8204 0.06809 0.0
H760 H 0.42093 0.93072 0.05438 0.0
H761 H 0.39967 0.87787 0.0788 0.0
H762 H 0.48781 0.84998 0.09263 0.0
H763 H 0.50904 0.90297 0.06888 0.0
C764 C 0.43088 0.77984 0.13842 0.0
C765 C 0.40673 0.76259 0.12484 0.0
C766 C 0.44194 0.81152 0.12678 0.0
C767 C 0.42916 0.8267 0.10122 0.0
C768 C 0.40461 0.80969 0.08806 0.0
C769 C 0.39352 0.77804 0.09974 0.0
C770 C 0.43577 0.91338 0.06278 0.0
C771 C 0.4667 0.92109 0.05961 0.0
C772 C 0.42357 0.883 0.07664 0.0
C773 C 0.44201 0.85961 0.08766 0.0
C774 C 0.47294 0.86755 0.08482 0.0
C775 C 0.48513 0.8979 0.071 0.0
H776 H 0.16065 0.1714 0.68851 0.0
H777 H 0.09263 0.22967 0.65522 0.0
H778 H 0.14183 0.12717 0.65742 0.0
H779 H 0.07341 0.18477 0.62435 0.0
H780 H 0.03557 0.08054 0.59376 0.0
H781 H 0.0499 0.12444 0.62796 0.0
H782 H 0.14179 0.12226 0.60056 0.0
H783 H 0.12775 0.07894 0.56675 0.0
C784 C 0.14169 0.17485 0.67451 0.0
C785 C 0.12853 0.20442 0.67397 0.0
C786 C 0.13084 0.14939 0.65678 0.0
C787 C 0.10637 0.15263 0.63814 0.0
C788 C 0.09225 0.18152 0.63858 0.0
C789 C 0.10326 0.20721 0.65627 0.0
C790 C 0.0588 0.0895 0.59509 0.0
C791 C 0.08051 0.07615 0.57758 0.0
C792 C 0.06697 0.11469 0.61455 0.0
C793 C 0.09699 0.1266 0.61712 0.0
C794 C 0.11853 0.1133 0.59946 0.0
C795 C 0.11041 0.08854 0.5799 0.0
H796 H 0.67997 0.3301 0.37184 0.0
H797 H 0.60225 0.26018 0.36758 0.0
H798 H 0.65205 0.36374 0.4034 0.0
H799 H 0.57433 0.29362 0.39995 0.0
H800 H 0.52873 0.38609 0.42563 0.0
H801 H 0.55457 0.3481 0.39646 0.0
H802 H 0.62944 0.3619 0.45523 0.0
H803 H 0.60396 0.39999 0.48403 0.0
C804 C 0.65689 0.32191 0.37768 0.0
C805 C 0.64329 0.29255 0.36711 0.0
C806 C 0.64096 0.34101 0.39604 0.0
C807 C 0.61099 0.33129 0.40428 0.0
C808 C 0.59734 0.30186 0.39382 0.0
C809 C 0.61339 0.28258 0.37555 0.0
C810 C 0.55059 0.38076 0.43248 0.0
C811 C 0.56438 0.3963 0.45699 0.0
C812 C 0.56534 0.3589 0.41585 0.0
C813 C 0.59417 0.35224 0.42336 0.0
C814 C 0.60747 0.36697 0.44851 0.0
C815 C 0.59277 0.3887 0.46512 0.0
loop_
_geom_bond_atom_site_label_1
_geom_bond_atom_site_label_2
_geom_bond_distance
_geom_bond_site_symmetry_2
_ccdc_geom_bond_type
P0 O11 1.490 . S
P0 C14 1.812 . S
P0 C20 1.803 . S
P0 C26 1.819 . S
H1 C15 0.941 . S
H2 C16 0.939 . S
H3 C18 0.940 . S
H4 C19 0.940 . S
H5 C21 0.939 . S
H6 C22 0.942 . S
H7 C24 0.940 . S
H8 C25 0.939 . S
H9 C27 0.941 . S
H10 C31 0.939 . S
O11 P0 1.490 . S
H12 C28 0.939 . S
H13 C30 0.940 . S
C14 P0 1.812 . S
C14 C15 1.389 . S
C14 C19 1.391 . S
C15 H1 0.941 . S
C15 C14 1.389 . S
C15 C16 1.397 . S
C16 H2 0.939 . S
C16 C15 1.397 . S
C16 C17 1.378 . S
C17 C16 1.378 . S
C17 C18 1.378 . S
C18 H3 0.940 . S
C18 C17 1.378 . S
C18 C19 1.396 . S
C19 H4 0.940 . S
C19 C14 1.391 . S
C19 C18 1.396 . S
C20 P0 1.803 . S
C20 C21 1.378 . S
C20 C25 1.400 . S
C21 H5 0.939 . S
C21 C20 1.378 . S
C21 C22 1.361 . S
C22 H6 0.942 . S
C22 C21 1.361 . S
C22 C23 1.369 . S
C23 C22 1.369 . S
C23 C24 1.404 . S
C24 H7 0.940 . S
C24 C23 1.404 . S
C24 C25 1.389 . S
C25 H8 0.939 . S
C25 C20 1.400 . S
C25 C24 1.389 . S
C26 P0 1.819 . S
C26 C27 1.391 . S
C26 C31 1.391 . S
C27 H9 0.941 . S
C27 C26 1.391 . S
C27 C28 1.396 . S
C28 H12 0.939 . S
C28 C27 1.396 . S
C28 C29 1.397 . S
C29 C28 1.397 . S
C29 C30 1.385 . S
C30 H13 0.940 . S
C30 C29 1.385 . S
C30 C31 1.388 . S
C31 H10 0.939 . S
C31 C26 1.391 . S
C31 C30 1.388 . S
P32 O43 1.490 . S
P32 C46 1.812 . S
P32 C52 1.803 . S
P32 C58 1.819 . S
H33 C47 0.941 . S
H34 C48 0.939 . S
H35 C50 0.940 . S
H36 C51 0.940 . S
H37 C53 0.939 . S
H38 C54 0.942 . S
H39 C56 0.940 . S
H40 C57 0.939 . S
H41 C59 0.941 . S
H42 C63 0.939 . S
O43 P32 1.490 . S
H44 C60 0.939 . S
H45 C62 0.940 . S
C46 P32 1.812 . S
C46 C47 1.389 . S
C46 C51 1.391 . S
C47 H33 0.941 . S
C47 C46 1.389 . S
C47 C48 1.397 . S
C48 H34 0.939 . S
C48 C47 1.397 . S
C48 C49 1.378 . S
C49 C48 1.378 . S
C49 C50 1.378 . S
C50 H35 0.940 . S
C50 C49 1.378 . S
C50 C51 1.396 . S
C51 H36 0.940 . S
C51 C46 1.391 . S
C51 C50 1.396 . S
C52 P32 1.803 . S
C52 C53 1.378 . S
C52 C57 1.400 . S
C53 H37 0.939 . S
C53 C52 1.378 . S
C53 C54 1.361 . S
C54 H38 0.942 . S
C54 C53 1.361 . S
C54 C55 1.369 . S
C55 C54 1.369 . S
C55 C56 1.404 . S
C56 H39 0.940 . S
C56 C55 1.404 . S
C56 C57 1.389 . S
C57 H40 0.939 . S
C57 C52 1.400 . S
C57 C56 1.389 . S
C58 P32 1.819 . S
C58 C59 1.391 . S
C58 C63 1.391 . S
C59 H41 0.941 . S
C59 C58 1.391 . S
C59 C60 1.396 . S
C60 H44 0.939 . S
C60 C59 1.396 . S
C60 C61 1.397 . S
C61 C60 1.397 . S
C61 C62 1.385 . S
C62 H45 0.940 . S
C62 C61 1.385 . S
C62 C63 1.388 . S
C63 H42 0.939 . S
C63 C58 1.391 . S
C63 C62 1.388 . S
P64 O75 1.490 . S
P64 C78 1.812 . S
P64 C84 1.803 . S
P64 C90 1.819 . S
H65 C79 0.941 . S
H66 C80 0.939 . S
H67 C82 0.940 . S
H68 C83 0.940 . S
H69 C85 0.939 . S
H70 C86 0.942 . S
H71 C88 0.940 . S
H72 C89 0.939 . S
H73 C91 0.941 . S
H74 C95 0.939 . S
O75 P64 1.490 . S
H76 C92 0.939 . S
H77 C94 0.940 . S
C78 P64 1.812 . S
C78 C79 1.389 . S
C78 C83 1.391 . S
C79 H65 0.941 . S
C79 C78 1.389 . S
C79 C80 1.397 . S
C80 H66 0.939 . S
C80 C79 1.397 . S
C80 C81 1.378 . S
C81 C80 1.378 . S
C81 C82 1.378 . S
C82 H67 0.940 . S
C82 C81 1.378 . S
C82 C83 1.396 . S
C83 H68 0.940 . S
C83 C78 1.391 . S
C83 C82 1.396 . S
C84 P64 1.803 . S
C84 C85 1.378 . S
C84 C89 1.400 . S
C85 H69 0.939 . S
C85 C84 1.378 . S
C85 C86 1.361 . S
C86 H70 0.942 . S
C86 C85 1.361 . S
C86 C87 1.369 . S
C87 C86 1.369 . S
C87 C88 1.404 . S
C88 H71 0.940 . S
C88 C87 1.404 . S
C88 C89 1.389 . S
C89 H72 0.939 . S
C89 C84 1.400 . S
C89 C88 1.389 . S
C90 P64 1.819 . S
C90 C91 1.391 . S
C90 C95 1.391 . S
C91 H73 0.941 . S
C91 C90 1.391 . S
C91 C92 1.396 . S
C92 H76 0.939 . S
C92 C91 1.396 . S
C92 C93 1.397 . S
C93 C92 1.397 . S
C93 C94 1.385 . S
C94 H77 0.940 . S
C94 C93 1.385 . S
C94 C95 1.388 . S
C95 H74 0.939 . S
C95 C90 1.391 . S
C95 C94 1.388 . S
P96 O107 1.490 . S
P96 C110 1.812 . S
P96 C116 1.803 . S
P96 C122 1.819 . S
H97 C111 0.941 . S
H98 C112 0.939 . S
H99 C114 0.940 . S
H100 C115 0.940 . S
H101 C117 0.939 . S
H102 C118 0.942 . S
H103 C120 0.940 . S
H104 C121 0.939 . S
H105 C123 0.941 . S
H106 C127 0.939 . S
O107 P96 1.490 . S
H108 C124 0.939 . S
H109 C126 0.940 . S
C110 P96 1.812 . S
C110 C111 1.389 . S
C110 C115 1.391 . S
C111 H97 0.941 . S
C111 C110 1.389 . S
C111 C112 1.397 . S
C112 H98 0.939 . S
C112 C111 1.397 . S
C112 C113 1.378 . S
C113 C112 1.378 . S
C113 C114 1.378 . S
C114 H99 0.940 . S
C114 C113 1.378 . S
C114 C115 1.396 . S
C115 H100 0.940 . S
C115 C110 1.391 . S
C115 C114 1.396 . S
C116 P96 1.803 . S
C116 C117 1.378 . S
C116 C121 1.400 . S
C117 H101 0.939 . S
C117 C116 1.378 . S
C117 C118 1.361 . S
C118 H102 0.942 . S
C118 C117 1.361 . S
C118 C119 1.369 . S
C119 C118 1.369 . S
C119 C120 1.404 . S
C120 H103 0.940 . S
C120 C119 1.404 . S
C120 C121 1.389 . S
C121 H104 0.939 . S
C121 C116 1.400 . S
C121 C120 1.389 . S
C122 P96 1.819 . S
C122 C123 1.391 . S
C122 C127 1.391 . S
C123 H105 0.941 . S
C123 C122 1.391 . S
C123 C124 1.396 . S
C124 H108 0.939 . S
C124 C123 1.396 . S
C124 C125 1.397 . S
C125 C124 1.397 . S
C125 C126 1.385 . S
C126 H109 0.940 . S
C126 C125 1.385 . S
C126 C127 1.388 . S
C127 H106 0.939 . S
C127 C122 1.391 . S
C127 C126 1.388 . S
P128 O139 1.490 . S
P128 C142 1.812 . S
P128 C148 1.803 . S
P128 C154 1.819 . S
H129 C143 0.941 . S
H130 C144 0.939 . S
H131 C146 0.940 . S
H132 C147 0.940 . S
H133 C149 0.939 . S
H134 C150 0.942 . S
H135 C152 0.940 . S
H136 C153 0.939 . S
H137 C155 0.941 . S
H138 C159 0.939 . S
O139 P128 1.490 . S
H140 C156 0.939 . S
H141 C158 0.940 . S
C142 P128 1.812 . S
C142 C143 1.389 . S
C142 C147 1.391 . S
C143 H129 0.941 . S
C143 C142 1.389 . S
C143 C144 1.397 . S
C144 H130 0.939 . S
C144 C143 1.397 . S
C144 C145 1.378 . S
C145 C144 1.378 . S
C145 C146 1.378 . S
C146 H131 0.940 . S
C146 C145 1.378 . S
C146 C147 1.396 . S
C147 H132 0.940 . S
C147 C142 1.391 . S
C147 C146 1.396 . S
C148 P128 1.803 . S
C148 C149 1.378 . S
C148 C153 1.400 . S
C149 H133 0.939 . S
C149 C148 1.378 . S
C149 C150 1.361 . S
C150 H134 0.942 . S
C150 C149 1.361 . S
C150 C151 1.369 . S
C151 C150 1.369 . S
C151 C152 1.404 . S
C152 H135 0.940 . S
C152 C151 1.404 . S
C152 C153 1.389 . S
C153 H136 0.939 . S
C153 C148 1.400 . S
C153 C152 1.389 . S
C154 P128 1.819 . S
C154 C155 1.391 . S
C154 C159 1.391 . S
C155 H137 0.941 . S
C155 C154 1.391 . S
C155 C156 1.396 . S
C156 H140 0.939 . S
C156 C155 1.396 . S
C156 C157 1.397 . S
C157 C156 1.397 . S
C157 C158 1.385 . S
C158 H141 0.940 . S
C158 C157 1.385 . S
C158 C159 1.388 . S
C159 H138 0.939 . S
C159 C154 1.391 . S
C159 C158 1.388 . S
P160 O171 1.490 . S
P160 C174 1.812 . S
P160 C180 1.803 . S
P160 C186 1.819 . S
H161 C175 0.941 . S
H162 C176 0.939 . S
H163 C178 0.940 . S
H164 C179 0.940 . S
H165 C181 0.939 . S
H166 C182 0.942 . S
H167 C184 0.940 . S
H168 C185 0.939 . S
H169 C187 0.941 . S
H170 C191 0.939 . S
O171 P160 1.490 . S
H172 C188 0.939 . S
H173 C190 0.940 . S
C174 P160 1.812 . S
C174 C175 1.389 . S
C174 C179 1.391 . S
C175 H161 0.941 . S
C175 C174 1.389 . S
C175 C176 1.397 . S
C176 H162 0.939 . S
C176 C175 1.397 . S
C176 C177 1.378 . S
C177 C176 1.378 . S
C177 C178 1.378 . S
C178 H163 0.940 . S
C178 C177 1.378 . S
C178 C179 1.396 . S
C179 H164 0.940 . S
C179 C174 1.391 . S
C179 C178 1.396 . S
C180 P160 1.803 . S
C180 C181 1.378 . S
C180 C185 1.400 . S
C181 H165 0.939 . S
C181 C180 1.378 . S
C181 C182 1.361 . S
C182 H166 0.942 . S
C182 C181 1.361 . S
C182 C183 1.369 . S
C183 C182 1.369 . S
C183 C184 1.404 . S
C184 H167 0.940 . S
C184 C183 1.404 . S
C184 C185 1.389 . S
C185 H168 0.939 . S
C185 C180 1.400 . S
C185 C184 1.389 . S
C186 P160 1.819 . S
C186 C187 1.391 . S
C186 C191 1.391 . S
C187 H169 0.941 . S
C187 C186 1.391 . S
C187 C188 1.396 . S
C188 H172 0.939 . S
C188 C187 1.396 . S
C188 C189 1.397 . S
C189 C188 1.397 . S
C189 C190 1.385 . S
C190 H173 0.940 . S
C190 C189 1.385 . S
C190 C191 1.388 . S
C191 H170 0.939 . S
C191 C186 1.391 . S
C191 C190 1.388 . S
P192 O203 1.490 . S
P192 C206 1.812 . S
P192 C212 1.803 . S
P192 C218 1.819 . S
H193 C207 0.941 . S
H194 C208 0.939 . S
H195 C210 0.940 . S
H196 C211 0.940 . S
H197 C213 0.939 . S
H198 C214 0.942 . S
H199 C216 0.940 . S
H200 C217 0.939 . S
H201 C219 0.941 . S
H202 C223 0.939 . S
O203 P192 1.490 . S
H204 C220 0.939 . S
H205 C222 0.940 . S
C206 P192 1.812 . S
C206 C207 1.389 . S
C206 C211 1.391 . S
C207 H193 0.941 . S
C207 C206 1.389 . S
C207 C208 1.397 . S
C208 H194 0.939 . S
C208 C207 1.397 . S
C208 C209 1.378 . S
C209 C208 1.378 . S
C209 C210 1.378 . S
C210 H195 0.940 . S
C210 C209 1.378 . S
C210 C211 1.396 . S
C211 H196 0.940 . S
C211 C206 1.391 . S
C211 C210 1.396 . S
C212 P192 1.803 . S
C212 C213 1.378 . S
C212 C217 1.400 . S
C213 H197 0.939 . S
C213 C212 1.378 . S
C213 C214 1.361 . S
C214 H198 0.942 . S
C214 C213 1.361 . S
C214 C215 1.369 . S
C215 C214 1.369 . S
C215 C216 1.404 . S
C216 H199 0.940 . S
C216 C215 1.404 . S
C216 C217 1.389 . S
C217 H200 0.939 . S
C217 C212 1.400 . S
C217 C216 1.389 . S
C218 P192 1.819 . S
C218 C219 1.391 . S
C218 C223 1.391 . S
C219 H201 0.941 . S
C219 C218 1.391 . S
C219 C220 1.396 . S
C220 H204 0.939 . S
C220 C219 1.396 . S
C220 C221 1.397 . S
C221 C220 1.397 . S
C221 C222 1.385 . S
C222 H205 0.940 . S
C222 C221 1.385 . S
C222 C223 1.388 . S
C223 H202 0.939 . S
C223 C218 1.391 . S
C223 C222 1.388 . S
P224 O235 1.490 . S
P224 C238 1.812 . S
P224 C244 1.803 . S
P224 C250 1.819 . S
H225 C239 0.941 . S
H226 C240 0.939 . S
H227 C242 0.940 . S
H228 C243 0.940 . S
H229 C245 0.939 . S
H230 C246 0.942 . S
H231 C248 0.940 . S
H232 C249 0.939 . S
H233 C251 0.941 . S
H234 C255 0.939 . S
O235 P224 1.490 . S
H236 C252 0.939 . S
H237 C254 0.940 . S
C238 P224 1.812 . S
C238 C239 1.389 . S
C238 C243 1.391 . S
C239 H225 0.941 . S
C239 C238 1.389 . S
C239 C240 1.397 . S
C240 H226 0.939 . S
C240 C239 1.397 . S
C240 C241 1.378 . S
C241 C240 1.378 . S
C241 C242 1.378 . S
C242 H227 0.940 . S
C242 C241 1.378 . S
C242 C243 1.396 . S
C243 H228 0.940 . S
C243 C238 1.391 . S
C243 C242 1.396 . S
C244 P224 1.803 . S
C244 C245 1.378 . S
C244 C249 1.400 . S
C245 H229 0.939 . S
C245 C244 1.378 . S
C245 C246 1.361 . S
C246 H230 0.942 . S
C246 C245 1.361 . S
C246 C247 1.369 . S
C247 C246 1.369 . S
C247 C248 1.404 . S
C248 H231 0.940 . S
C248 C247 1.404 . S
C248 C249 1.389 . S
C249 H232 0.939 . S
C249 C244 1.400 . S
C249 C248 1.389 . S
C250 P224 1.819 . S
C250 C251 1.391 . S
C250 C255 1.391 . S
C251 H233 0.941 . S
C251 C250 1.391 . S
C251 C252 1.396 . S
C252 H236 0.939 . S
C252 C251 1.396 . S
C252 C253 1.397 . S
C253 C252 1.397 . S
C253 C254 1.385 . S
C254 H237 0.940 . S
C254 C253 1.385 . S
C254 C255 1.388 . S
C255 H234 0.939 . S
C255 C250 1.391 . S
C255 C254 1.388 . S
Zn256 O262 1.969 1_545 S
Zn256 O263 1.965 1_545 S
Zn256 O267 2.024 . S
Zn256 O272 1.969 . S
Zn257 O264 1.969 . S
Zn257 O270 1.969 1_565 S
Zn257 O271 1.965 1_665 S
Zn257 O273 2.024 . S
C258 O259 1.229 . S
C258 O267 1.058 . S
O259 C258 1.229 . S
C260 O261 1.229 . S
C260 O273 1.058 . S
O261 C260 1.229 . S
O262 Zn256 1.969 1_565 S
O262 C265 1.267 . S
O263 Zn256 1.965 1_565 S
O263 C274 1.260 1_455 S
O264 Zn257 1.969 . S
O264 C274 1.258 . S
C265 O262 1.267 . S
C265 O266 1.228 . S
O266 C265 1.228 . S
O267 Zn256 2.024 . S
O267 C258 1.058 . S
C268 O269 1.228 . S
C268 O270 1.267 . S
O269 C268 1.228 . S
O270 Zn257 1.969 1_545 S
O270 C268 1.267 . S
O271 Zn257 1.965 1_445 S
O271 C275 1.260 . S
O272 Zn256 1.969 . S
O272 C275 1.258 . S
O273 Zn257 2.024 . S
O273 C260 1.058 . S
C274 O263 1.260 1_655 S
C274 O264 1.258 . S
C275 O271 1.260 . S
C275 O272 1.258 . S
Zn276 O282 1.969 . S
Zn276 O283 1.965 1_565 S
Zn276 O287 2.024 . S
Zn276 O292 1.969 1_556 S
Zn277 O284 1.969 . S
Zn277 O290 1.969 . S
Zn277 O291 1.965 1_545 S
Zn277 O293 2.024 . S
C278 O279 1.229 . S
C278 O287 1.058 . S
O279 C278 1.229 . S
C280 O281 1.229 . S
C280 O293 1.058 . S
O281 C280 1.229 . S
O282 Zn276 1.969 . S
O282 C285 1.267 . S
O283 Zn276 1.965 1_545 S
O283 C294 1.260 . S
O284 Zn277 1.969 . S
O284 C294 1.258 1_554 S
C285 O282 1.267 . S
C285 O286 1.228 . S
O286 C285 1.228 . S
O287 Zn276 2.024 . S
O287 C278 1.058 . S
C288 O289 1.228 . S
C288 O290 1.267 . S
O289 C288 1.228 . S
O290 Zn277 1.969 . S
O290 C288 1.267 . S
O291 Zn277 1.965 1_565 S
O291 C295 1.260 . S
O292 Zn276 1.969 1_554 S
O292 C295 1.258 . S
O293 Zn277 2.024 . S
O293 C280 1.058 . S
C294 O283 1.260 . S
C294 O284 1.258 1_556 S
C295 O291 1.260 . S
C295 O292 1.258 . S
Zn296 O302 1.969 . S
Zn296 O303 1.965 . S
Zn296 O307 2.024 . S
Zn296 O312 1.969 . S
Zn297 O304 1.969 . S
Zn297 O310 1.969 . S
Zn297 O311 1.965 . S
Zn297 O313 2.024 . S
C298 O299 1.229 . S
C298 O307 1.058 . S
O299 C298 1.229 . S
C300 O301 1.229 . S
C300 O313 1.058 . S
O301 C300 1.229 . S
O302 Zn296 1.969 . S
O302 C305 1.267 . S
O303 Zn296 1.965 . S
O303 C314 1.260 . S
O304 Zn297 1.969 . S
O304 C314 1.258 . S
C305 O302 1.267 . S
C305 O306 1.228 . S
O306 C305 1.228 . S
O307 Zn296 2.024 . S
O307 C298 1.058 . S
C308 O309 1.228 . S
C308 O310 1.267 . S
O309 C308 1.228 . S
O310 Zn297 1.969 . S
O310 C308 1.267 . S
O311 Zn297 1.965 . S
O311 C315 1.260 . S
O312 Zn296 1.969 . S
O312 C315 1.258 . S
O313 Zn297 2.024 . S
O313 C300 1.058 . S
C314 O303 1.260 . S
C314 O304 1.258 . S
C315 O311 1.260 . S
C315 O312 1.258 . S
Zn316 O322 1.969 . S
Zn316 O323 1.965 1_556 S
Zn316 O327 2.024 . S
Zn316 O332 1.969 1_655 S
Zn317 O324 1.969 . S
Zn317 O330 1.969 . S
Zn317 O331 1.965 1_554 S
Zn317 O333 2.024 . S
C318 O319 1.229 . S
C318 O327 1.058 . S
O319 C318 1.229 . S
C320 O321 1.229 . S
C320 O333 1.058 . S
O321 C320 1.229 . S
O322 Zn316 1.969 . S
O322 C325 1.267 . S
O323 Zn316 1.965 1_554 S
O323 C334 1.260 . S
O324 Zn317 1.969 . S
O324 C334 1.258 1_455 S
C325 O322 1.267 . S
C325 O326 1.228 . S
O326 C325 1.228 . S
O327 Zn316 2.024 . S
O327 C318 1.058 . S
C328 O329 1.228 . S
C328 O330 1.267 . S
O329 C328 1.228 . S
O330 Zn317 1.969 . S
O330 C328 1.267 . S
O331 Zn317 1.965 1_556 S
O331 C335 1.260 . S
O332 Zn316 1.969 1_455 S
O332 C335 1.258 . S
O333 Zn317 2.024 . S
O333 C320 1.058 . S
C334 O323 1.260 . S
C334 O324 1.258 1_655 S
C335 O331 1.260 . S
C335 O332 1.258 . S
H336 C344 0.950 . S
H337 C349 0.950 . S
H338 C346 0.950 . S
H339 C348 0.950 . S
H340 C350 0.950 . S
H341 C352 0.950 . S
H342 C354 0.950 . S
H343 C355 0.950 . S
C344 H336 0.950 . S
C344 C345 1.386 . S
C344 C346 1.391 . S
C345 C344 1.386 . S
C345 C349 1.393 . S
C346 H338 0.950 . S
C346 C344 1.391 . S
C346 C347 1.400 . S
C347 C346 1.400 . S
C347 C348 1.398 . S
C347 C353 1.491 . S
C348 H339 0.950 . S
C348 C347 1.398 . S
C348 C349 1.391 . S
C349 H337 0.950 . S
C349 C345 1.393 . S
C349 C348 1.391 . S
C350 H340 0.950 . S
C350 C351 1.386 . S
C350 C352 1.391 . S
C351 C350 1.386 . S
C351 C355 1.393 . S
C352 H341 0.950 . S
C352 C350 1.391 . S
C352 C353 1.400 . S
C353 C347 1.491 . S
C353 C352 1.400 . S
C353 C354 1.398 . S
C354 H342 0.950 . S
C354 C353 1.398 . S
C354 C355 1.391 . S
C355 H343 0.950 . S
C355 C351 1.393 . S
C355 C354 1.391 . S
H356 C364 0.950 . S
H357 C369 0.950 . S
H358 C366 0.950 . S
H359 C368 0.950 . S
H360 C370 0.950 . S
H361 C372 0.950 . S
H362 C374 0.950 . S
H363 C375 0.950 . S
C364 H356 0.950 . S
C364 C365 1.386 . S
C364 C366 1.391 . S
C365 C364 1.386 . S
C365 C369 1.393 . S
C366 H358 0.950 . S
C366 C364 1.391 . S
C366 C367 1.400 . S
C367 C366 1.400 . S
C367 C368 1.398 . S
C367 C373 1.491 . S
C368 H359 0.950 . S
C368 C367 1.398 . S
C368 C369 1.391 . S
C369 H357 0.950 . S
C369 C365 1.393 . S
C369 C368 1.391 . S
C370 H360 0.950 . S
C370 C371 1.386 . S
C370 C372 1.391 . S
C371 C370 1.386 . S
C371 C375 1.393 . S
C372 H361 0.950 . S
C372 C370 1.391 . S
C372 C373 1.400 . S
C373 C367 1.491 . S
C373 C372 1.400 . S
C373 C374 1.398 . S
C374 H362 0.950 . S
C374 C373 1.398 . S
C374 C375 1.391 . S
C375 H363 0.950 . S
C375 C371 1.393 . S
C375 C374 1.391 . S
H376 C384 0.950 . S
H377 C389 0.950 . S
H378 C386 0.950 . S
H379 C388 0.950 . S
H380 C390 0.950 . S
H381 C392 0.950 . S
H382 C394 0.950 . S
H383 C395 0.950 . S
C384 H376 0.950 . S
C384 C385 1.386 . S
C384 C386 1.391 . S
C385 C384 1.386 . S
C385 C389 1.393 . S
C386 H378 0.950 . S
C386 C384 1.391 . S
C386 C387 1.400 . S
C387 C386 1.400 . S
C387 C388 1.398 . S
C387 C393 1.491 . S
C388 H379 0.950 . S
C388 C387 1.398 . S
C388 C389 1.391 . S
C389 H377 0.950 . S
C389 C385 1.393 . S
C389 C388 1.391 . S
C390 H380 0.950 . S
C390 C391 1.386 . S
C390 C392 1.391 . S
C391 C390 1.386 . S
C391 C395 1.393 . S
C392 H381 0.950 . S
C392 C390 1.391 . S
C392 C393 1.400 . S
C393 C387 1.491 . S
C393 C392 1.400 . S
C393 C394 1.398 . S
C394 H382 0.950 . S
C394 C393 1.398 . S
C394 C395 1.391 . S
C395 H383 0.950 . S
C395 C391 1.393 . S
C395 C394 1.391 . S
H396 C404 0.950 . S
H397 C409 0.950 . S
H398 C406 0.950 . S
H399 C408 0.950 . S
H400 C410 0.950 . S
H401 C412 0.950 . S
H402 C414 0.950 . S
H403 C415 0.950 . S
C404 H396 0.950 . S
C404 C405 1.386 . S
C404 C406 1.391 . S
C405 C404 1.386 . S
C405 C409 1.393 . S
C406 H398 0.950 . S
C406 C404 1.391 . S
C406 C407 1.400 . S
C407 C406 1.400 . S
C407 C408 1.398 . S
C407 C413 1.491 . S
C408 H399 0.950 . S
C408 C407 1.398 . S
C408 C409 1.391 . S
C409 H397 0.950 . S
C409 C405 1.393 . S
C409 C408 1.391 . S
C410 H400 0.950 . S
C410 C411 1.386 . S
C410 C412 1.391 . S
C411 C410 1.386 . S
C411 C415 1.393 . S
C412 H401 0.950 . S
C412 C410 1.391 . S
C412 C413 1.400 . S
C413 C407 1.491 . S
C413 C412 1.400 . S
C413 C414 1.398 . S
C414 H402 0.950 . S
C414 C413 1.398 . S
C414 C415 1.391 . S
C415 H403 0.950 . S
C415 C411 1.393 . S
C415 C414 1.391 . S
H416 C424 0.950 . S
H417 C429 0.950 . S
H418 C426 0.950 . S
H419 C428 0.950 . S
H420 C430 0.950 . S
H421 C432 0.950 . S
H422 C434 0.950 . S
H423 C435 0.950 . S
C424 H416 0.950 . S
C424 C425 1.386 . S
C424 C426 1.391 . S
C425 C424 1.386 . S
C425 C429 1.393 . S
C426 H418 0.950 . S
C426 C424 1.391 . S
C426 C427 1.400 . S
C427 C426 1.400 . S
C427 C428 1.398 . S
C427 C433 1.491 . S
C428 H419 0.950 . S
C428 C427 1.398 . S
C428 C429 1.391 . S
C429 H417 0.950 . S
C429 C425 1.393 . S
C429 C428 1.391 . S
C430 H420 0.950 . S
C430 C431 1.386 . S
C430 C432 1.391 . S
C431 C430 1.386 . S
C431 C435 1.393 . S
C432 H421 0.950 . S
C432 C430 1.391 . S
C432 C433 1.400 . S
C433 C427 1.491 . S
C433 C432 1.400 . S
C433 C434 1.398 . S
C434 H422 0.950 . S
C434 C433 1.398 . S
C434 C435 1.391 . S
C435 H423 0.950 . S
C435 C431 1.393 . S
C435 C434 1.391 . S
H436 C444 0.950 . S
H437 C449 0.950 . S
H438 C446 0.950 . S
H439 C448 0.950 . S
H440 C450 0.950 . S
H441 C452 0.950 . S
H442 C454 0.950 . S
H443 C455 0.950 . S
C444 H436 0.950 . S
C444 C445 1.386 . S
C444 C446 1.391 . S
C445 C444 1.386 . S
C445 C449 1.393 . S
C446 H438 0.950 . S
C446 C444 1.391 . S
C446 C447 1.400 . S
C447 C446 1.400 . S
C447 C448 1.398 . S
C447 C453 1.491 . S
C448 H439 0.950 . S
C448 C447 1.398 . S
C448 C449 1.391 . S
C449 H437 0.950 . S
C449 C445 1.393 . S
C449 C448 1.391 . S
C450 H440 0.950 . S
C450 C451 1.386 . S
C450 C452 1.391 . S
C451 C450 1.386 . S
C451 C455 1.393 . S
C452 H441 0.950 . S
C452 C450 1.391 . S
C452 C453 1.400 . S
C453 C447 1.491 . S
C453 C452 1.400 . S
C453 C454 1.398 . S
C454 H442 0.950 . S
C454 C453 1.398 . S
C454 C455 1.391 . S
C455 H443 0.950 . S
C455 C451 1.393 . S
C455 C454 1.391 . S
H456 C464 0.950 . S
H457 C469 0.950 . S
H458 C466 0.950 . S
H459 C468 0.950 . S
H460 C470 0.950 . S
H461 C472 0.950 . S
H462 C474 0.950 . S
H463 C475 0.950 . S
C464 H456 0.950 . S
C464 C465 1.386 . S
C464 C466 1.391 . S
C465 C464 1.386 . S
C465 C469 1.393 . S
C466 H458 0.950 . S
C466 C464 1.391 . S
C466 C467 1.400 . S
C467 C466 1.400 . S
C467 C468 1.398 . S
C467 C473 1.491 . S
C468 H459 0.950 . S
C468 C467 1.398 . S
C468 C469 1.391 . S
C469 H457 0.950 . S
C469 C465 1.393 . S
C469 C468 1.391 . S
C470 H460 0.950 . S
C470 C471 1.386 . S
C470 C472 1.391 . S
C471 C470 1.386 . S
C471 C475 1.393 . S
C472 H461 0.950 . S
C472 C470 1.391 . S
C472 C473 1.400 . S
C473 C467 1.491 . S
C473 C472 1.400 . S
C473 C474 1.398 . S
C474 H462 0.950 . S
C474 C473 1.398 . S
C474 C475 1.391 . S
C475 H463 0.950 . S
C475 C471 1.393 . S
C475 C474 1.391 . S
H476 C484 0.950 . S
H477 C489 0.950 . S
H478 C486 0.950 . S
H479 C488 0.950 . S
H480 C490 0.950 . S
H481 C492 0.950 . S
H482 C494 0.950 . S
H483 C495 0.950 . S
C484 H476 0.950 . S
C484 C485 1.386 . S
C484 C486 1.391 . S
C485 C484 1.386 . S
C485 C489 1.393 . S
C486 H478 0.950 . S
C486 C484 1.391 . S
C486 C487 1.400 . S
C487 C486 1.400 . S
C487 C488 1.398 . S
C487 C493 1.491 . S
C488 H479 0.950 . S
C488 C487 1.398 . S
C488 C489 1.391 . S
C489 H477 0.950 . S
C489 C485 1.393 . S
C489 C488 1.391 . S
C490 H480 0.950 . S
C490 C491 1.386 . S
C490 C492 1.391 . S
C491 C490 1.386 . S
C491 C495 1.393 . S
C492 H481 0.950 . S
C492 C490 1.391 . S
C492 C493 1.400 . S
C493 C487 1.491 . S
C493 C492 1.400 . S
C493 C494 1.398 . S
C494 H482 0.950 . S
C494 C493 1.398 . S
C494 C495 1.391 . S
C495 H483 0.950 . S
C495 C491 1.393 . S
C495 C494 1.391 . S
H496 C504 0.950 . S
H497 C509 0.950 . S
H498 C506 0.950 . S
H499 C508 0.950 . S
H500 C510 0.950 . S
H501 C512 0.950 . S
H502 C514 0.950 . S
H503 C515 0.950 . S
C504 H496 0.950 . S
C504 C505 1.386 . S
C504 C506 1.391 . S
C505 C504 1.386 . S
C505 C509 1.393 . S
C506 H498 0.950 . S
C506 C504 1.391 . S
C506 C507 1.400 . S
C507 C506 1.400 . S
C507 C508 1.398 . S
C507 C513 1.491 . S
C508 H499 0.950 . S
C508 C507 1.398 . S
C508 C509 1.391 . S
C509 H497 0.950 . S
C509 C505 1.393 . S
C509 C508 1.391 . S
C510 H500 0.950 . S
C510 C511 1.386 . S
C510 C512 1.391 . S
C511 C510 1.386 . S
C511 C515 1.393 . S
C512 H501 0.950 . S
C512 C510 1.391 . S
C512 C513 1.400 . S
C513 C507 1.491 . S
C513 C512 1.400 . S
C513 C514 1.398 . S
C514 H502 0.950 . S
C514 C513 1.398 . S
C514 C515 1.391 . S
C515 H503 0.950 . S
C515 C511 1.393 . S
C515 C514 1.391 . S
H516 C524 0.950 . S
H517 C529 0.950 . S
H518 C526 0.950 . S
H519 C528 0.950 . S
H520 C530 0.950 . S
H521 C532 0.950 . S
H522 C534 0.950 . S
H523 C535 0.950 . S
C524 H516 0.950 . S
C524 C525 1.386 . S
C524 C526 1.391 . S
C525 C524 1.386 . S
C525 C529 1.393 . S
C526 H518 0.950 . S
C526 C524 1.391 . S
C526 C527 1.400 . S
C527 C526 1.400 . S
C527 C528 1.398 . S
C527 C533 1.491 . S
C528 H519 0.950 . S
C528 C527 1.398 . S
C528 C529 1.391 . S
C529 H517 0.950 . S
C529 C525 1.393 . S
C529 C528 1.391 . S
C530 H520 0.950 . S
C530 C531 1.386 . S
C530 C532 1.391 . S
C531 C530 1.386 . S
C531 C535 1.393 . S
C532 H521 0.950 . S
C532 C530 1.391 . S
C532 C533 1.400 . S
C533 C527 1.491 . S
C533 C532 1.400 . S
C533 C534 1.398 . S
C534 H522 0.950 . S
C534 C533 1.398 . S
C534 C535 1.391 . S
C535 H523 0.950 . S
C535 C531 1.393 . S
C535 C534 1.391 . S
H536 C544 0.950 . S
H537 C549 0.950 . S
H538 C546 0.950 . S
H539 C548 0.950 . S
H540 C550 0.950 . S
H541 C552 0.950 . S
H542 C554 0.950 . S
H543 C555 0.950 . S
C544 H536 0.950 . S
C544 C545 1.386 . S
C544 C546 1.391 . S
C545 C544 1.386 . S
C545 C549 1.393 . S
C546 H538 0.950 . S
C546 C544 1.391 . S
C546 C547 1.400 . S
C547 C546 1.400 . S
C547 C548 1.398 . S
C547 C553 1.491 . S
C548 H539 0.950 . S
C548 C547 1.398 . S
C548 C549 1.391 . S
C549 H537 0.950 . S
C549 C545 1.393 . S
C549 C548 1.391 . S
C550 H540 0.950 . S
C550 C551 1.386 . S
C550 C552 1.391 . S
C551 C550 1.386 . S
C551 C555 1.393 . S
C552 H541 0.950 . S
C552 C550 1.391 . S
C552 C553 1.400 . S
C553 C547 1.491 . S
C553 C552 1.400 . S
C553 C554 1.398 . S
C554 H542 0.950 . S
C554 C553 1.398 . S
C554 C555 1.391 . S
C555 H543 0.950 . S
C555 C551 1.393 . S
C555 C554 1.391 . S
H556 C564 0.950 . S
H557 C569 0.950 . S
H558 C566 0.950 . S
H559 C568 0.950 . S
H560 C570 0.950 . S
H561 C572 0.950 . S
H562 C574 0.950 . S
H563 C575 0.950 . S
C564 H556 0.950 . S
C564 C565 1.386 . S
C564 C566 1.391 . S
C565 C564 1.386 . S
C565 C569 1.393 . S
C566 H558 0.950 . S
C566 C564 1.391 . S
C566 C567 1.400 . S
C567 C566 1.400 . S
C567 C568 1.398 . S
C567 C573 1.491 . S
C568 H559 0.950 . S
C568 C567 1.398 . S
C568 C569 1.391 . S
C569 H557 0.950 . S
C569 C565 1.393 . S
C569 C568 1.391 . S
C570 H560 0.950 . S
C570 C571 1.386 . S
C570 C572 1.391 . S
C571 C570 1.386 . S
C571 C575 1.393 . S
C572 H561 0.950 . S
C572 C570 1.391 . S
C572 C573 1.400 . S
C573 C567 1.491 . S
C573 C572 1.400 . S
C573 C574 1.398 . S
C574 H562 0.950 . S
C574 C573 1.398 . S
C574 C575 1.391 . S
C575 H563 0.950 . S
C575 C571 1.393 . S
C575 C574 1.391 . S
H576 C584 0.950 . S
H577 C589 0.950 . S
H578 C586 0.950 . S
H579 C588 0.950 . S
H580 C590 0.941 1_545 S
H581 C592 0.950 . S
H582 C594 0.950 . S
H583 C595 0.950 . S
C584 H576 0.950 . S
C584 C585 1.386 . S
C584 C586 1.391 . S
C585 C584 1.386 . S
C585 C589 1.393 . S
C586 H578 0.950 . S
C586 C584 1.391 . S
C586 C587 1.400 . S
C587 C586 1.400 . S
C587 C588 1.398 . S
C587 C593 1.491 . S
C588 H579 0.950 . S
C588 C587 1.398 . S
C588 C589 1.391 . S
C589 H577 0.950 . S
C589 C585 1.393 . S
C589 C588 1.391 . S
C590 H580 0.941 1_565 S
C590 C591 1.386 . S
C590 C592 1.391 . S
C591 C590 1.386 . S
C591 C595 1.393 . S
C592 H581 0.950 . S
C592 C590 1.391 . S
C592 C593 1.400 . S
C593 C587 1.491 . S
C593 C592 1.400 . S
C593 C594 1.398 . S
C594 H582 0.950 . S
C594 C593 1.398 . S
C594 C595 1.391 . S
C595 H583 0.950 . S
C595 C591 1.393 . S
C595 C594 1.391 . S
H596 C604 0.950 . S
H597 C609 0.950 . S
H598 C606 0.950 . S
H599 C608 0.950 . S
H600 C610 0.950 . S
H601 C612 0.950 . S
H602 C614 0.950 . S
H603 C615 0.950 . S
C604 H596 0.950 . S
C604 C605 1.386 . S
C604 C606 1.391 . S
C605 C604 1.386 . S
C605 C609 1.393 . S
C606 H598 0.950 . S
C606 C604 1.391 . S
C606 C607 1.400 . S
C607 C606 1.400 . S
C607 C608 1.398 . S
C607 C613 1.491 . S
C608 H599 0.950 . S
C608 C607 1.398 . S
C608 C609 1.391 . S
C609 H597 0.950 . S
C609 C605 1.393 . S
C609 C608 1.391 . S
C610 H600 0.950 . S
C610 C611 1.386 . S
C610 C612 1.391 . S
C611 C610 1.386 . S
C611 C615 1.393 . S
C612 H601 0.950 . S
C612 C610 1.391 . S
C612 C613 1.400 . S
C613 C607 1.491 . S
C613 C612 1.400 . S
C613 C614 1.398 . S
C614 H602 0.950 . S
C614 C613 1.398 . S
C614 C615 1.391 . S
C615 H603 0.950 . S
C615 C611 1.393 . S
C615 C614 1.391 . S
H616 C624 0.950 . S
H617 C629 0.950 . S
H618 C626 0.950 . S
H619 C628 0.950 . S
H620 C630 0.950 . S
H621 C632 0.950 . S
H622 C634 0.950 . S
H623 C635 0.950 . S
C624 H616 0.950 . S
C624 C625 1.386 . S
C624 C626 1.391 . S
C625 C624 1.386 . S
C625 C629 1.393 . S
C626 H618 0.950 . S
C626 C624 1.391 . S
C626 C627 1.400 . S
C627 C626 1.400 . S
C627 C628 1.398 . S
C627 C633 1.491 . S
C628 H619 0.950 . S
C628 C627 1.398 . S
C628 C629 1.391 . S
C629 H617 0.950 . S
C629 C625 1.393 . S
C629 C628 1.391 . S
C630 H620 0.950 . S
C630 C631 1.386 . S
C630 C632 1.391 . S
C631 C630 1.386 . S
C631 C635 1.393 . S
C632 H621 0.950 . S
C632 C630 1.391 . S
C632 C633 1.400 . S
C633 C627 1.491 . S
C633 C632 1.400 . S
C633 C634 1.398 . S
C634 H622 0.950 . S
C634 C633 1.398 . S
C634 C635 1.391 . S
C635 H623 0.950 . S
C635 C631 1.393 . S
C635 C634 1.391 . S
H636 C644 0.950 . S
H637 C649 0.950 . S
H638 C646 0.950 . S
H639 C648 0.950 . S
H640 C650 0.950 . S
H641 C652 0.950 . S
H642 C654 0.950 . S
H643 C655 0.950 . S
C644 H636 0.950 . S
C644 C645 1.386 . S
C644 C646 1.391 . S
C645 C644 1.386 . S
C645 C649 1.393 . S
C646 H638 0.950 . S
C646 C644 1.391 . S
C646 C647 1.400 . S
C647 C646 1.400 . S
C647 C648 1.398 . S
C647 C653 1.491 . S
C648 H639 0.950 . S
C648 C647 1.398 . S
C648 C649 1.391 . S
C649 H637 0.950 . S
C649 C645 1.393 . S
C649 C648 1.391 . S
C650 H640 0.950 . S
C650 C651 1.386 . S
C650 C652 1.391 . S
C651 C650 1.386 . S
C651 C655 1.393 . S
C652 H641 0.950 . S
C652 C650 1.391 . S
C652 C653 1.400 . S
C653 C647 1.491 . S
C653 C652 1.400 . S
C653 C654 1.398 . S
C654 H642 0.950 . S
C654 C653 1.398 . S
C654 C655 1.391 . S
C655 H643 0.950 . S
C655 C651 1.393 . S
C655 C654 1.391 . S
H656 C664 0.950 . S
H657 C669 0.950 . S
H658 C666 0.950 . S
H659 C668 0.950 . S
H660 C670 0.950 . S
H661 C672 0.950 . S
H662 C674 0.950 . S
H663 C675 0.950 . S
C664 H656 0.950 . S
C664 C665 1.386 . S
C664 C666 1.391 . S
C665 C664 1.386 . S
C665 C669 1.393 . S
C666 H658 0.950 . S
C666 C664 1.391 . S
C666 C667 1.400 . S
C667 C666 1.400 . S
C667 C668 1.398 . S
C667 C673 1.491 . S
C668 H659 0.950 . S
C668 C667 1.398 . S
C668 C669 1.391 . S
C669 H657 0.950 . S
C669 C665 1.393 . S
C669 C668 1.391 . S
C670 H660 0.950 . S
C670 C671 1.386 . S
C670 C672 1.391 . S
C671 C670 1.386 . S
C671 C675 1.393 . S
C672 H661 0.950 . S
C672 C670 1.391 . S
C672 C673 1.400 . S
C673 C667 1.491 . S
C673 C672 1.400 . S
C673 C674 1.398 . S
C674 H662 0.950 . S
C674 C673 1.398 . S
C674 C675 1.391 . S
C675 H663 0.950 . S
C675 C671 1.393 . S
C675 C674 1.391 . S
H676 C684 0.950 . S
H677 C689 0.950 . S
H678 C686 0.950 . S
H679 C688 0.950 . S
H680 C690 0.950 . S
H681 C692 0.950 . S
H682 C694 0.950 . S
H683 C695 0.950 . S
C684 H676 0.950 . S
C684 C685 1.386 . S
C684 C686 1.391 . S
C685 C684 1.386 . S
C685 C689 1.393 . S
C686 H678 0.950 . S
C686 C684 1.391 . S
C686 C687 1.400 . S
C687 C686 1.400 . S
C687 C688 1.398 . S
C687 C693 1.491 . S
C688 H679 0.950 . S
C688 C687 1.398 . S
C688 C689 1.391 . S
C689 H677 0.950 . S
C689 C685 1.393 . S
C689 C688 1.391 . S
C690 H680 0.950 . S
C690 C691 1.386 . S
C690 C692 1.391 . S
C691 C690 1.386 . S
C691 C695 1.393 . S
C692 H681 0.950 . S
C692 C690 1.391 . S
C692 C693 1.400 . S
C693 C687 1.491 . S
C693 C692 1.400 . S
C693 C694 1.398 . S
C694 H682 0.950 . S
C694 C693 1.398 . S
C694 C695 1.391 . S
C695 H683 0.950 . S
C695 C691 1.393 . S
C695 C694 1.391 . S
H696 C704 0.950 . S
H697 C709 0.950 . S
H698 C706 0.950 . S
H699 C708 0.950 . S
H700 C710 0.950 . S
H701 C712 0.950 . S
H702 C714 0.950 . S
H703 C715 0.950 . S
C704 H696 0.950 . S
C704 C705 1.386 . S
C704 C706 1.391 . S
C705 C704 1.386 . S
C705 C709 1.393 . S
C706 H698 0.950 . S
C706 C704 1.391 . S
C706 C707 1.400 . S
C707 C706 1.400 . S
C707 C708 1.398 . S
C707 C713 1.491 . S
C708 H699 0.950 . S
C708 C707 1.398 . S
C708 C709 1.391 . S
C709 H697 0.950 . S
C709 C705 1.393 . S
C709 C708 1.391 . S
C710 H700 0.950 . S
C710 C711 1.386 . S
C710 C712 1.391 . S
C711 C710 1.386 . S
C711 C715 1.393 . S
C712 H701 0.950 . S
C712 C710 1.391 . S
C712 C713 1.400 . S
C713 C707 1.491 . S
C713 C712 1.400 . S
C713 C714 1.398 . S
C714 H702 0.950 . S
C714 C713 1.398 . S
C714 C715 1.391 . S
C715 H703 0.950 . S
C715 C711 1.393 . S
C715 C714 1.391 . S
H716 C724 0.950 . S
H717 C729 0.950 . S
H718 C726 0.950 . S
H719 C728 0.950 . S
H720 C730 0.950 . S
H721 C732 0.950 . S
H722 C734 0.950 . S
H723 C735 0.950 . S
C724 H716 0.950 . S
C724 C725 1.386 . S
C724 C726 1.391 . S
C725 C724 1.386 . S
C725 C729 1.393 . S
C726 H718 0.950 . S
C726 C724 1.391 . S
C726 C727 1.400 . S
C727 C726 1.400 . S
C727 C728 1.398 . S
C727 C733 1.491 . S
C728 H719 0.950 . S
C728 C727 1.398 . S
C728 C729 1.391 . S
C729 H717 0.950 . S
C729 C725 1.393 . S
C729 C728 1.391 . S
C730 H720 0.950 . S
C730 C731 1.386 . S
C730 C732 1.391 . S
C731 C730 1.386 . S
C731 C735 1.393 . S
C732 H721 0.950 . S
C732 C730 1.391 . S
C732 C733 1.400 . S
C733 C727 1.491 . S
C733 C732 1.400 . S
C733 C734 1.398 . S
C734 H722 0.950 . S
C734 C733 1.398 . S
C734 C735 1.391 . S
C735 H723 0.950 . S
C735 C731 1.393 . S
C735 C734 1.391 . S
H736 C744 0.950 . S
H737 C749 0.950 . S
H738 C746 0.950 . S
H739 C748 0.950 . S
H740 C750 0.950 . S
H741 C752 0.950 . S
H742 C754 0.950 . S
H743 C755 0.950 . S
C744 H736 0.950 . S
C744 C745 1.386 . S
C744 C746 1.391 . S
C745 C744 1.386 . S
C745 C749 1.393 . S
C746 H738 0.950 . S
C746 C744 1.391 . S
C746 C747 1.400 . S
C747 C746 1.400 . S
C747 C748 1.398 . S
C747 C753 1.491 . S
C748 H739 0.950 . S
C748 C747 1.398 . S
C748 C749 1.391 . S
C749 H737 0.950 . S
C749 C745 1.393 . S
C749 C748 1.391 . S
C750 H740 0.950 . S
C750 C751 1.386 . S
C750 C752 1.391 . S
C751 C750 1.386 . S
C751 C755 1.393 . S
C752 H741 0.950 . S
C752 C750 1.391 . S
C752 C753 1.400 . S
C753 C747 1.491 . S
C753 C752 1.400 . S
C753 C754 1.398 . S
C754 H742 0.950 . S
C754 C753 1.398 . S
C754 C755 1.391 . S
C755 H743 0.950 . S
C755 C751 1.393 . S
C755 C754 1.391 . S
H756 C764 0.950 . S
H757 C769 0.950 . S
H758 C766 0.950 . S
H759 C768 0.950 . S
H760 C770 0.950 . S
H761 C772 0.950 . S
H762 C774 0.950 . S
H763 C775 0.950 . S
C764 H756 0.950 . S
C764 C765 1.386 . S
C764 C766 1.391 . S
C765 C764 1.386 . S
C765 C769 1.393 . S
C766 H758 0.950 . S
C766 C764 1.391 . S
C766 C767 1.400 . S
C767 C766 1.400 . S
C767 C768 1.398 . S
C767 C773 1.491 . S
C768 H759 0.950 . S
C768 C767 1.398 . S
C768 C769 1.391 . S
C769 H757 0.950 . S
C769 C765 1.393 . S
C769 C768 1.391 . S
C770 H760 0.950 . S
C770 C771 1.386 . S
C770 C772 1.391 . S
C771 C770 1.386 . S
C771 C775 1.393 . S
C772 H761 0.950 . S
C772 C770 1.391 . S
C772 C773 1.400 . S
C773 C767 1.491 . S
C773 C772 1.400 . S
C773 C774 1.398 . S
C774 H762 0.950 . S
C774 C773 1.398 . S
C774 C775 1.391 . S
C775 H763 0.950 . S
C775 C771 1.393 . S
C775 C774 1.391 . S
H776 C784 0.950 . S
H777 C789 0.950 . S
H778 C786 0.950 . S
H779 C788 0.950 . S
H780 C790 0.950 . S
H781 C792 0.950 . S
H782 C794 0.950 . S
H783 C795 0.950 . S
C784 H776 0.950 . S
C784 C785 1.386 . S
C784 C786 1.391 . S
C785 C784 1.386 . S
C785 C789 1.393 . S
C786 H778 0.950 . S
C786 C784 1.391 . S
C786 C787 1.400 . S
C787 C786 1.400 . S
C787 C788 1.398 . S
C787 C793 1.491 . S
C788 H779 0.950 . S
C788 C787 1.398 . S
C788 C789 1.391 . S
C789 H777 0.950 . S
C789 C785 1.393 . S
C789 C788 1.391 . S
C790 H780 0.950 . S
C790 C791 1.386 . S
C790 C792 1.391 . S
C791 C790 1.386 . S
C791 C795 1.393 . S
C792 H781 0.950 . S
C792 C790 1.391 . S
C792 C793 1.400 . S
C793 C787 1.491 . S
C793 C792 1.400 . S
C793 C794 1.398 . S
C794 H782 0.950 . S
C794 C793 1.398 . S
C794 C795 1.391 . S
C795 H783 0.950 . S
C795 C791 1.393 . S
C795 C794 1.391 . S
H796 C804 0.950 . S
H797 C809 0.950 . S
H798 C806 0.950 . S
H799 C808 0.950 . S
H800 C810 0.950 . S
H801 C812 0.950 . S
H802 C814 0.950 . S
H803 C815 0.950 . S
C804 H796 0.950 . S
C804 C805 1.386 . S
C804 C806 1.391 . S
C805 C804 1.386 . S
C805 C809 1.393 . S
C806 H798 0.950 . S
C806 C804 1.391 . S
C806 C807 1.400 . S
C807 C806 1.400 . S
C807 C808 1.398 . S
C807 C813 1.491 . S
C808 H799 0.950 . S
C808 C807 1.398 . S
C808 C809 1.391 . S
C809 H797 0.950 . S
C809 C805 1.393 . S
C809 C808 1.391 . S
C810 H800 0.950 . S
C810 C811 1.386 . S
C810 C812 1.391 . S
C811 C810 1.386 . S
C811 C815 1.393 . S
C812 H801 0.950 . S
C812 C810 1.391 . S
C812 C813 1.400 . S
C813 C807 1.491 . S
C813 C812 1.400 . S
C813 C814 1.398 . S
C814 H802 0.950 . S
C814 C813 1.398 . S
C814 C815 1.391 . S
C815 H803 0.950 . S
C815 C811 1.393 . S
C815 C814 1.391 . S
C345 C29 1.546 . S
C351 C275 1.522 . S
C365 C49 1.230 . S
C371 C278 1.207 . S
C391 C314 1.791 . S
C385 C93 1.779 . S
C405 C119 1.619 . S
C411 C334 1.609 . S
C431 C288 1.668 . S
C425 C17 1.687 . S
C451 C265 1.540 . S
C445 C61 1.534 . S
C471 C318 1.556 . S
C465 C81 1.653 . S
C491 C298 1.408 . S
C485 C125 1.493 . S
C505 C23 1.342 . S
C511 C328 1.269 . S
C531 C294 1.606 . S
C525 C87 1.599 . S
C545 C113 1.661 . S
C551 C260 1.596 . S
C565 C55 1.296 . S
C571 C308 1.287 . S
C591 C274 1.469 . S
C585 C157 1.425 . S
C605 C189 1.277 . S
C611 C280 1.254 . S
C625 C221 1.740 . S
C631 C315 1.753 . S
C645 C253 1.684 . S
C651 C335 1.672 . S
C665 C145 1.690 . S
C671 C285 1.707 . S
C691 C268 1.469 . S
C685 C183 1.481 . S
C711 C320 1.589 . S
C705 C209 1.644 . S
C731 C300 1.384 . S
C725 C247 1.456 . S
C745 C151 1.274 . S
C751 C325 1.286 . S
C771 C295 1.595 . S
C765 C215 1.560 . S
C791 C258 1.588 . S
C785 C241 1.634 . S
C805 C177 1.326 . S
C811 C305 1.337 . S
