# Generated by pormake.
# Topology apo, (3,6)-cn, num edge types: 1
# Building blocks:
#     Node 0, Type 0, BuildingBlock: KAKCAD_clean_linker_0, # of connection points: 3
#     Node 1, Type 0, BuildingBlock: KAKCAD_clean_linker_0, # of connection points: 3
#     Node 2, Type 0, BuildingBlock: KAKCAD_clean_linker_0, # of connection points: 3
#     Node 3, Type 0, BuildingBlock: KAKCAD_clean_linker_0, # of connection points: 3
#     Node 4, Type 0, BuildingBlock: KAKCAD_clean_linker_0, # of connection points: 3
#     Node 5, Type 0, BuildingBlock: KAKCAD_clean_linker_0, # of connection points: 3
#     Node 6, Type 0, BuildingBlock: KAKCAD_clean_linker_0, # of connection points: 3
#     Node 7, Type 0, BuildingBlock: KAKCAD_clean_linker_0, # of connection points: 3
#     Node 8, Type 1, BuildingBlock: KUMJIN_clean_sbu_1, # of connection points: 6
#     Node 9, Type 1, BuildingBlock: KUMJIN_clean_sbu_1, # of connection points: 6
#     Node 10, Type 1, BuildingBlock: KUMJIN_clean_sbu_1, # of connection points: 6
#     Node 11, Type 1, BuildingBlock: KUMJIN_clean_sbu_1, # of connection points: 6
#     Edge 12, Type (0, 1), BuildingBlock: EZIPEK_clean_linker_0, # of connection points: 2
#     Edge 13, Type (0, 1), BuildingBlock: EZIPEK_clean_linker_0, # of connection points: 2
#     Edge 14, Type (0, 1), BuildingBlock: EZIPEK_clean_linker_0, # of connection points: 2
#     Edge 15, Type (0, 1), BuildingBlock: EZIPEK_clean_linker_0, # of connection points: 2
#     Edge 16, Type (0, 1), BuildingBlock: EZIPEK_clean_linker_0, # of connection points: 2
#     Edge 17, Type (0, 1), BuildingBlock: EZIPEK_clean_linker_0, # of connection points: 2
#     Edge 18, Type (0, 1), BuildingBlock: EZIPEK_clean_linker_0, # of connection points: 2
#     Edge 19, Type (0, 1), BuildingBlock: EZIPEK_clean_linker_0, # of connection points: 2
#     Edge 20, Type (0, 1), BuildingBlock: EZIPEK_clean_linker_0, # of connection points: 2
#     Edge 21, Type (0, 1), BuildingBlock: EZIPEK_clean_linker_0, # of connection points: 2
#     Edge 22, Type (0, 1), BuildingBlock: EZIPEK_clean_linker_0, # of connection points: 2
#     Edge 23, Type (0, 1), BuildingBlock: EZIPEK_clean_linker_0, # of connection points: 2
#     Edge 24, Type (0, 1), BuildingBlock: EZIPEK_clean_linker_0, # of connection points: 2
#     Edge 25, Type (0, 1), BuildingBlock: EZIPEK_clean_linker_0, # of connection points: 2
#     Edge 26, Type (0, 1), BuildingBlock: EZIPEK_clean_linker_0, # of connection points: 2
#     Edge 27, Type (0, 1), BuildingBlock: EZIPEK_clean_linker_0, # of connection points: 2
#     Edge 28, Type (0, 1), BuildingBlock: EZIPEK_clean_linker_0, # of connection points: 2
#     Edge 29, Type (0, 1), BuildingBlock: EZIPEK_clean_linker_0, # of connection points: 2
#     Edge 30, Type (0, 1), BuildingBlock: EZIPEK_clean_linker_0, # of connection points: 2
#     Edge 31, Type (0, 1), BuildingBlock: EZIPEK_clean_linker_0, # of connection points: 2
#     Edge 32, Type (0, 1), BuildingBlock: EZIPEK_clean_linker_0, # of connection points: 2
#     Edge 33, Type (0, 1), BuildingBlock: EZIPEK_clean_linker_0, # of connection points: 2
#     Edge 34, Type (0, 1), BuildingBlock: EZIPEK_clean_linker_0, # of connection points: 2
#     Edge 35, Type (0, 1), BuildingBlock: EZIPEK_clean_linker_0, # of connection points: 2
# Relax obj value: 0.008
# Max RMSD: 0.112
# Mean RMSD: 0.086
data_MOF--net-apo--node1-KUMJIN_clean_sbu_1--node2-KAKCAD_clean_linker_0--edge1-EZIPEK_clean_linker_0
_symmetry_space_group_name_H-M    P1
_symmetry_Int_Tables_number       1
_symmetry_cell_setting            triclinic
loop_
_symmetry_equiv_pos_as_xyz
'x, y, z'
_cell_length_a     23.144007
_cell_length_b     40.785762
_cell_length_c     51.663302
_cell_angle_alpha  90.02468
_cell_angle_beta   90.136534
_cell_angle_gamma 90.14051
loop_
_atom_site_label
_atom_site_type_symbol
_atom_site_fract_x
_atom_site_fract_y
_atom_site_fract_z
_atom_type_partial_charge
C0 C 0.31886 0.47002 0.34444 0.0
C1 C 0.36767 0.48669 0.35373 0.0
C2 C 0.29568 0.44378 0.35834 0.0
C3 C 0.32137 0.43325 0.38165 0.0
C4 C 0.37017 0.45023 0.39099 0.0
C5 C 0.39294 0.47681 0.3772 0.0
C6 C 0.29698 0.40457 0.39588 0.0
C7 C 0.27457 0.37781 0.38202 0.0
C8 C 0.24497 0.35206 0.39443 0.0
C9 C 0.24272 0.35223 0.42177 0.0
C10 C 0.26883 0.37763 0.43625 0.0
C11 C 0.29451 0.40407 0.42303 0.0
C12 C 0.26953 0.37682 0.46517 0.0
C13 C 0.22107 0.36608 0.4793 0.0
C14 C 0.31912 0.38698 0.47892 0.0
C15 C 0.32003 0.38675 0.50599 0.0
C16 C 0.27152 0.37623 0.51992 0.0
C17 C 0.21621 0.32569 0.37854 0.0
C18 C 0.19845 0.33213 0.35286 0.0
C19 C 0.20612 0.29398 0.38851 0.0
C20 C 0.17908 0.26983 0.37338 0.0
C21 C 0.16365 0.27628 0.34755 0.0
C22 C 0.17426 0.30759 0.33743 0.0
C23 C 0.22211 0.36577 0.50642 0.0
H24 H 0.29864 0.47742 0.32644 0.0
H25 H 0.2573 0.43185 0.35082 0.0
H26 H 0.39141 0.44268 0.4087 0.0
H27 H 0.43072 0.48945 0.38463 0.0
H28 H 0.28081 0.37722 0.36129 0.0
H29 H 0.31136 0.42468 0.43393 0.0
H30 H 0.22095 0.33264 0.43194 0.0
H31 H 0.18195 0.35846 0.46944 0.0
H32 H 0.35755 0.39489 0.46873 0.0
H33 H 0.35859 0.39479 0.51611 0.0
H34 H 0.20251 0.35626 0.3444 0.0
H35 H 0.21959 0.28739 0.40787 0.0
H36 H 0.1842 0.35767 0.51691 0.0
H37 H 0.16259 0.31328 0.31762 0.0
H38 H 0.17126 0.24584 0.38166 0.0
C39 C 0.20788 0.02852 0.8432 0.0
C40 C 0.15962 0.01146 0.85258 0.0
C41 C 0.2318 0.05438 0.85742 0.0
C42 C 0.20689 0.0645 0.88099 0.0
C43 C 0.15889 0.04691 0.89045 0.0
C44 C 0.13605 0.02043 0.87656 0.0
C45 C 0.22953 0.0939 0.89509 0.0
C46 C 0.25267 0.12056 0.88126 0.0
C47 C 0.27414 0.14843 0.89407 0.0
C48 C 0.27092 0.14996 0.92121 0.0
C49 C 0.24716 0.12388 0.93554 0.0
C50 C 0.22741 0.09581 0.9223 0.0
C51 C 0.24243 0.12602 0.9643 0.0
C52 C 0.28717 0.13999 0.9792 0.0
C53 C 0.19286 0.11421 0.97708 0.0
C54 C 0.18827 0.11623 1.00404 0.0
C55 C 0.23306 0.13014 0.01873 0.0
C56 C 0.30065 0.17561 0.87891 0.0
C57 C 0.27587 0.18591 0.85536 0.0
C58 C 0.35229 0.19051 0.88732 0.0
C59 C 0.37897 0.21472 0.87233 0.0
C60 C 0.3545 0.22445 0.84869 0.0
C61 C 0.30263 0.21008 0.84037 0.0
C62 C 0.28248 0.14205 1.00616 0.0
H63 H 0.22692 0.02186 0.82481 0.0
H64 H 0.26974 0.06648 0.84975 0.0
H65 H 0.13776 0.05407 0.90823 0.0
H66 H 0.09875 0.00755 0.88413 0.0
H67 H 0.25423 0.1197 0.86034 0.0
H68 H 0.21136 0.07515 0.93333 0.0
H69 H 0.28561 0.17188 0.93112 0.0
H70 H 0.3262 0.14897 0.97008 0.0
H71 H 0.15721 0.10376 0.96623 0.0
H72 H 0.14975 0.10702 0.01346 0.0
H73 H 0.23571 0.17531 0.8485 0.0
H74 H 0.37283 0.1829 0.90519 0.0
H75 H 0.31752 0.15277 0.01726 0.0
H76 H 0.283 0.21755 0.82226 0.0
H77 H 0.41901 0.22567 0.87901 0.0
C78 C 0.81545 0.03612 0.67881 0.0
C79 C 0.87275 0.02535 0.67735 0.0
C80 C 0.79621 0.06133 0.66273 0.0
C81 C 0.83397 0.07615 0.64488 0.0
C82 C 0.89125 0.06494 0.64325 0.0
C83 C 0.91055 0.03975 0.65946 0.0
C84 C 0.81392 0.10407 0.62884 0.0
C85 C 0.78131 0.12906 0.6403 0.0
C86 C 0.76139 0.15566 0.6257 0.0
C87 C 0.7744 0.1573 0.59921 0.0
C88 C 0.80649 0.13225 0.5872 0.0
C89 C 0.82663 0.10586 0.60228 0.0
C90 C 0.81703 0.13306 0.5588 0.0
C91 C 0.77245 0.14213 0.54169 0.0
C92 C 0.87113 0.12428 0.5485 0.0
C93 C 0.88034 0.12462 0.52172 0.0
C94 C 0.83557 0.13363 0.50484 0.0
C95 C 0.72719 0.18159 0.63854 0.0
C96 C 0.68062 0.17301 0.65461 0.0
C97 C 0.74297 0.21474 0.6362 0.0
C98 C 0.71394 0.23875 0.65045 0.0
C99 C 0.66829 0.22995 0.66692 0.0
C100 C 0.65121 0.19701 0.66857 0.0
C101 C 0.78165 0.14236 0.51498 0.0
H102 H 0.7857 0.02497 0.69239 0.0
H103 H 0.75166 0.06919 0.6642 0.0
H104 H 0.92135 0.07609 0.62984 0.0
H105 H 0.95488 0.03148 0.65806 0.0
H106 H 0.77237 0.12819 0.66088 0.0
H107 H 0.85045 0.08612 0.59321 0.0
H108 H 0.75904 0.17793 0.58793 0.0
H109 H 0.73006 0.14852 0.54892 0.0
H110 H 0.90645 0.11743 0.56116 0.0
H111 H 0.92224 0.11782 0.51415 0.0
H112 H 0.6674 0.14763 0.65658 0.0
H113 H 0.779 0.2219 0.62409 0.0
H114 H 0.74659 0.14924 0.50217 0.0
H115 H 0.6159 0.18985 0.68111 0.0
H116 H 0.72764 0.26409 0.64899 0.0
C117 C 0.67364 0.4557 0.18308 0.0
C118 C 0.62144 0.47143 0.17747 0.0
C119 C 0.69158 0.42909 0.16815 0.0
C120 C 0.65728 0.4175 0.14747 0.0
C121 C 0.60454 0.43323 0.14216 0.0
C122 C 0.58688 0.46005 0.157 0.0
C123 C 0.67747 0.38955 0.13135 0.0
C124 C 0.70676 0.36331 0.14295 0.0
C125 C 0.73234 0.33846 0.12801 0.0
C126 C 0.72519 0.33927 0.10093 0.0
C127 C 0.69322 0.36443 0.08901 0.0
C128 C 0.67006 0.38963 0.10435 0.0
C129 C 0.68541 0.36514 0.06045 0.0
C130 C 0.73254 0.35981 0.04386 0.0
C131 C 0.63092 0.37193 0.04959 0.0
C132 C 0.62386 0.3737 0.02273 0.0
C133 C 0.67131 0.36913 1.00627 0.0
C134 C 0.76744 0.31243 0.14092 0.0
C135 C 0.79892 0.31964 0.16363 0.0
C136 C 0.76973 0.28027 0.13099 0.0
C137 C 0.80237 0.25611 0.1435 0.0
C138 C 0.83195 0.26337 0.16657 0.0
C139 C 0.82989 0.29531 0.1765 0.0
C140 C 0.72557 0.36191 0.01701 0.0
H141 H 0.70093 0.46442 0.19872 0.0
H142 H 0.73296 0.41802 0.1725 0.0
H143 H 0.57681 0.42475 0.12661 0.0
H144 H 0.54637 0.47204 0.15249 0.0
H145 H 0.7095 0.36234 0.16386 0.0
H146 H 0.64813 0.40994 0.09509 0.0
H147 H 0.74468 0.3205 0.089 0.0
H148 H 0.7751 0.35481 0.05165 0.0
H149 H 0.59373 0.37582 0.0619 0.0
H150 H 0.58162 0.37914 0.01475 0.0
H151 H 0.80018 0.34422 0.17153 0.0
H152 H 0.74572 0.2735 0.11379 0.0
H153 H 0.76267 0.35832 1.00459 0.0
H154 H 0.85295 0.3015 0.19412 0.0
H155 H 0.80377 0.2316 0.13544 0.0
C156 C 0.65325 0.54334 0.67755 0.0
C157 C 0.65156 0.51181 0.66679 0.0
C158 C 0.67833 0.56925 0.66394 0.0
C159 C 0.70291 0.56412 0.63935 0.0
C160 C 0.70144 0.53233 0.62871 0.0
C161 C 0.67572 0.50644 0.64227 0.0
C162 C 0.72966 0.59198 0.62503 0.0
C163 C 0.76104 0.61603 0.6385 0.0
C164 C 0.78358 0.6437 0.62583 0.0
C165 C 0.77648 0.64643 0.59878 0.0
C166 C 0.74671 0.62199 0.58468 0.0
C167 C 0.72292 0.59513 0.59811 0.0
C168 C 0.73994 0.62407 0.55597 0.0
C169 C 0.72498 0.65372 0.54371 0.0
C170 C 0.74687 0.59582 0.54063 0.0
C171 C 0.73846 0.59702 0.51385 0.0
C172 C 0.72297 0.62647 0.50172 0.0
C173 C 0.81378 0.66951 0.64134 0.0
C174 C 0.79318 0.67797 0.66613 0.0
C175 C 0.8639 0.68519 0.63209 0.0
C176 C 0.89275 0.70853 0.64734 0.0
C177 C 0.8722 0.7164 0.67212 0.0
C178 C 0.82227 0.70099 0.68139 0.0
C179 C 0.71631 0.65487 0.51681 0.0
H180 H 0.6343 0.54797 0.69636 0.0
H181 H 0.67756 0.59345 0.67256 0.0
H182 H 0.7205 0.52738 0.60999 0.0
H183 H 0.67451 0.48223 0.63364 0.0
H184 H 0.7685 0.61299 0.65907 0.0
H185 H 0.69774 0.57705 0.58761 0.0
H186 H 0.79405 0.66748 0.5887 0.0
H187 H 0.71874 0.67583 0.55496 0.0
H188 H 0.75908 0.5727 0.54935 0.0
H189 H 0.74395 0.57488 0.50254 0.0
H190 H 0.75407 0.66701 0.67372 0.0
H191 H 0.88129 0.67911 0.61326 0.0
H192 H 0.70419 0.67781 0.50778 0.0
H193 H 0.8053 0.70724 0.70029 0.0
H194 H 0.93103 0.72051 0.63983 0.0
C195 C 0.72556 0.8606 1.00842 0.0
C196 C 0.7742 0.87177 0.99486 0.0
C197 C 0.72463 0.86145 0.03551 0.0
C198 C 0.77247 0.87339 0.04958 0.0
C199 C 0.82118 0.88451 0.03578 0.0
C200 C 0.82195 0.88376 1.0087 0.0
C201 C 0.77185 0.87402 0.07849 0.0
C202 C 0.74695 0.848 0.09262 0.0
C203 C 0.74756 0.84806 0.11985 0.0
C204 C 0.77361 0.87438 0.13294 0.0
C205 C 0.7982 0.9006 0.11932 0.0
C206 C 0.7968 0.90046 0.09214 0.0
C207 C 0.82465 0.92814 0.13388 0.0
C208 C 0.86492 0.92179 0.15365 0.0
C209 C 0.80757 0.96062 0.12915 0.0
C210 C 0.82925 0.98621 0.14443 0.0
C211 C 0.86906 0.97973 0.16435 0.0
C212 C 0.72043 0.82109 0.13493 0.0
C213 C 0.66558 0.80886 0.12811 0.0
C214 C 0.7481 0.80849 0.15709 0.0
C215 C 0.72115 0.78466 0.17231 0.0
C216 C 0.66606 0.77302 0.16568 0.0
C217 C 0.63856 0.78505 0.1434 0.0
C218 C 0.88725 0.94739 0.16862 0.0
H219 H 0.68825 0.85136 0.998 0.0
H220 H 0.68612 0.8531 0.0454 0.0
H221 H 0.85915 0.89337 0.04591 0.0
H222 H 0.85993 0.89237 0.99851 0.0
H223 H 0.72838 0.82724 0.08246 0.0
H224 H 0.81537 0.92095 0.08169 0.0
H225 H 0.7733 0.87501 0.15393 0.0
H226 H 0.87891 0.89695 0.15758 0.0
H227 H 0.77621 0.96607 0.11417 0.0
H228 H 0.81472 0.01103 0.14088 0.0
H229 H 0.64295 0.81829 0.11132 0.0
H230 H 0.79064 0.8171 0.16268 0.0
H231 H 0.91812 0.94196 0.18382 0.0
H232 H 0.59606 0.77615 0.13801 0.0
H233 H 0.74309 0.77539 0.18934 0.0
C234 C 0.08952 0.96179 0.36449 0.0
C235 C 0.12975 0.97882 0.34929 0.0
C236 C 0.107 0.935 0.37942 0.0
C237 C 0.16488 0.92464 0.37913 0.0
C238 C 0.20524 0.9422 0.36421 0.0
C239 C 0.18785 0.9692 0.3495 0.0
C240 C 0.18252 0.89459 0.39321 0.0
C241 C 0.21517 0.87059 0.38046 0.0
C242 C 0.23102 0.84147 0.39307 0.0
C243 C 0.21428 0.83669 0.41894 0.0
C244 C 0.18182 0.86055 0.43213 0.0
C245 C 0.1659 0.88941 0.41903 0.0
C246 C 0.16494 0.85536 0.4596 0.0
C247 C 0.14373 0.82475 0.46788 0.0
C248 C 0.17085 0.8808 0.47784 0.0
C249 C 0.15669 0.87558 0.50384 0.0
C250 C 0.13602 0.84493 0.51198 0.0
C251 C 0.26531 0.81628 0.37911 0.0
C252 C 0.25236 0.80832 0.35321 0.0
C253 C 0.312 0.80055 0.39134 0.0
C254 C 0.34541 0.77773 0.37786 0.0
C255 C 0.33266 0.77024 0.35197 0.0
C256 C 0.28578 0.7855 0.33975 0.0
C257 C 0.12926 0.81963 0.49384 0.0
H258 H 0.0445 0.969 0.36449 0.0
H259 H 0.07495 0.92175 0.39056 0.0
H260 H 0.2502 0.93489 0.36381 0.0
H261 H 0.21938 0.98221 0.3379 0.0
H262 H 0.22808 0.87457 0.36055 0.0
H263 H 0.14048 0.90784 0.42891 0.0
H264 H 0.2266 0.81436 0.42886 0.0
H265 H 0.13808 0.80481 0.45426 0.0
H266 H 0.18759 0.90453 0.47212 0.0
H267 H 0.16233 0.89532 0.51765 0.0
H268 H 0.21619 0.81964 0.34335 0.0
H269 H 0.32348 0.80638 0.41115 0.0
H270 H 0.11331 0.79583 0.49985 0.0
H271 H 0.27526 0.7798 0.3198 0.0
H272 H 0.38158 0.76612 0.38751 0.0
C273 C 0.27192 0.64925 0.00996 0.0
C274 C 0.32453 0.63914 0.02082 0.0
C275 C 0.26089 0.64478 0.98357 0.0
C276 C 0.30239 0.63024 0.96733 0.0
C277 C 0.35469 0.61948 0.97845 0.0
C278 C 0.36557 0.6238 1.00495 0.0
C279 C 0.29138 0.62704 0.9389 0.0
C280 C 0.26291 0.65233 0.92533 0.0
C281 C 0.25154 0.64963 0.89866 0.0
C282 C 0.26914 0.62131 0.88553 0.0
C283 C 0.2977 0.59586 0.8985 0.0
C284 C 0.30906 0.59891 0.92517 0.0
C285 C 0.31635 0.56665 0.88356 0.0
C286 C 0.27827 0.55192 0.86571 0.0
C287 C 0.37337 0.55505 0.88535 0.0
C288 C 0.39248 0.53007 0.86887 0.0
C289 C 0.35468 0.51622 0.85058 0.0
C290 C 0.22283 0.67656 0.88408 0.0
C291 C 0.23831 0.70945 0.88852 0.0
C292 C 0.18156 0.66944 0.86475 0.0
C293 C 0.15715 0.69456 0.84993 0.0
C294 C 0.17339 0.72721 0.85428 0.0
C295 C 0.21376 0.73453 0.87374 0.0
C296 C 0.29727 0.52689 0.8494 0.0
H297 H 0.23954 0.66092 0.02192 0.0
H298 H 0.21966 0.65274 0.9759 0.0
H299 H 0.38786 0.60843 0.96657 0.0
H300 H 0.40641 0.61579 0.013 0.0
H301 H 0.24974 0.6743 0.93551 0.0
H302 H 0.33038 0.57903 0.93526 0.0
H303 H 0.26227 0.61948 0.86481 0.0
H304 H 0.23397 0.56019 0.86408 0.0
H305 H 0.40371 0.56614 0.89875 0.0
H306 H 0.43696 0.52199 0.87 0.0
H307 H 0.27045 0.71575 0.90296 0.0
H308 H 0.16815 0.64441 0.86106 0.0
H309 H 0.26755 0.5163 0.83546 0.0
H310 H 0.2267 0.75969 0.87729 0.0
H311 H 0.12577 0.68857 0.83507 0.0
Eu312 Eu 0.08061 0.13175 0.23404 0.0
C313 C 0.83834 0.18623 0.27562 0.0
N314 N 0.89165 0.1833 0.28636 0.0
C315 C 0.88639 0.23821 0.30254 0.0
C316 C 0.80811 0.21614 0.27675 0.0
C317 C 0.91451 0.20796 0.30094 0.0
C318 C 0.83346 0.24254 0.28993 0.0
C319 C 0.75603 0.16031 0.25494 0.0
C320 C 0.81269 0.1586 0.26497 0.0
C321 C 0.72684 0.19048 0.25476 0.0
C322 C 0.75284 0.21834 0.26563 0.0
Eu323 Eu 0.93753 0.13209 0.2824 0.0
N324 N 0.84171 0.12967 0.26589 0.0
C325 C 0.72979 0.13148 0.24605 0.0
C326 C 0.81483 0.10119 0.25874 0.0
C327 C 0.75905 0.10172 0.24829 0.0
H328 H 0.95459 0.20422 0.31124 0.0
H329 H 0.73844 0.07913 0.24224 0.0
H330 H 0.10796 0.05181 0.22747 0.0
H331 H 0.23095 0.23128 0.25875 0.0
H332 H 0.83612 0.07789 0.26123 0.0
H333 H 0.68639 0.13178 0.23815 0.0
H334 H 0.14228 0.20726 0.24018 0.0
H335 H 0.90532 0.25805 0.31362 0.0
H336 H 0.68356 0.19232 0.24686 0.0
H337 H 0.72915 0.24122 0.26603 0.0
H338 H 0.1831 0.01198 0.24071 0.0
H339 H 0.81157 0.26593 0.29131 0.0
H340 H 0.30648 0.19528 0.27708 0.0
N341 N 0.15187 0.0926 0.24378 0.0
C342 C 0.20113 0.10413 0.25493 0.0
C343 C 0.18852 0.03779 0.24498 0.0
C344 C 0.24546 0.08248 0.26246 0.0
C345 C 0.14594 0.06025 0.23768 0.0
C346 C 0.23816 0.04889 0.25775 0.0
N347 N 0.16537 0.15809 0.24955 0.0
C348 C 0.17434 0.19123 0.2486 0.0
C349 C 0.25981 0.15051 0.26836 0.0
C350 C 0.20793 0.13778 0.25801 0.0
C351 C 0.26732 0.18456 0.26921 0.0
C352 C 0.22481 0.20496 0.25889 0.0
H353 H 0.27117 0.03145 0.26331 0.0
H354 H 0.33034 0.07875 0.27999 0.0
H355 H 0.34302 0.13831 0.28506 0.0
O356 O 0.11033 0.16373 0.20274 0.0
O357 O 0.06008 0.17674 0.25786 0.0
O358 O 0.02258 0.15515 0.29533 0.0
O359 O 0.10636 0.11145 0.19666 0.0
O360 O 0.9916 0.14775 0.22054 0.0
O361 O 0.94693 0.17423 0.25413 0.0
O362 O 0.87898 0.10641 0.3086 0.0
O363 O 0.93199 0.09601 0.2484 0.0
O364 O 0.01803 0.09054 0.22472 0.0
O365 O 0.94999 0.13419 0.32444 0.0
O366 O 0.99236 0.08666 0.27976 0.0
O367 O 0.08598 0.10355 0.27229 0.0
C368 C 0.0546 0.17681 0.28311 0.0
C369 C 0.17508 0.14081 0.17222 0.0
C370 C 0.22496 0.13904 0.13071 0.0
C371 C 0.27811 0.14156 0.14368 0.0
C372 C 0.22856 0.14334 0.18491 0.0
C373 C 0.27979 0.14375 0.17066 0.0
C374 C 0.17345 0.13868 0.14507 0.0
C375 C 0.95967 0.17162 0.22949 0.0
C376 C 0.12067 0.13967 0.18684 0.0
C377 C 0.29599 0.09503 0.27389 0.0
C378 C 0.30317 0.12896 0.2768 0.0
C379 C 0.96373 0.08277 0.22979 0.0
C380 C 0.86373 0.1328 0.3487 0.0
C381 C 0.83676 0.14266 0.39362 0.0
C382 C 0.78979 0.16156 0.38519 0.0
C383 C 0.816 0.15144 0.34065 0.0
C384 C 0.87399 0.12842 0.37532 0.0
C385 C 0.77951 0.16587 0.35881 0.0
C386 C 0.04794 0.08487 0.28425 0.0
C387 C 0.90287 0.11798 0.32952 0.0
H388 H 0.31819 0.14182 0.13288 0.0
H389 H 0.2308 0.14491 0.20574 0.0
H390 H 0.32092 0.14567 0.18057 0.0
H391 H 0.13231 0.13657 0.1351 0.0
H392 H 0.76082 0.17268 0.39908 0.0
H393 H 0.80659 0.1547 0.32035 0.0
H394 H 0.91044 0.1139 0.38179 0.0
H395 H 0.74295 0.18027 0.3524 0.0
Eu396 Eu 0.42411 0.36849 0.73359 0.0
C397 C 0.68807 0.40536 0.76731 0.0
N398 N 0.66188 0.37554 0.76863 0.0
C399 C 0.74828 0.34978 0.75305 0.0
C400 C 0.74501 0.40863 0.75794 0.0
C401 C 0.69205 0.34774 0.76276 0.0
C402 C 0.77461 0.3804 0.75027 0.0
C403 C 0.68603 0.46351 0.77722 0.0
C404 C 0.65909 0.43249 0.77678 0.0
C405 C 0.74162 0.46716 0.76677 0.0
C406 C 0.77107 0.43976 0.75717 0.0
Eu407 Eu 0.56486 0.37526 0.78364 0.0
N408 N 0.60545 0.42818 0.78681 0.0
C409 C 0.65698 0.48967 0.78894 0.0
C410 C 0.57884 0.45286 0.79994 0.0
C411 C 0.60359 0.48416 0.80078 0.0
H412 H 0.67299 0.32383 0.76566 0.0
H413 H 0.58165 0.50393 0.81066 0.0
H414 H 0.33453 0.42914 0.75328 0.0
H415 H 0.37655 0.23821 0.71972 0.0
H416 H 0.53835 0.44835 0.80961 0.0
H417 H 0.67623 0.51389 0.78972 0.0
H418 H 0.43209 0.28925 0.71437 0.0
H419 H 0.77147 0.32769 0.74796 0.0
H420 H 0.76282 0.49087 0.76667 0.0
H421 H 0.81451 0.44279 0.74975 0.0
H422 H 0.24068 0.43437 0.77511 0.0
H423 H 0.81835 0.38188 0.74292 0.0
H424 H 0.28451 0.23855 0.74392 0.0
N425 N 0.3329 0.37689 0.75294 0.0
C426 C 0.30062 0.34946 0.75702 0.0
C427 C 0.25732 0.41032 0.77041 0.0
C428 C 0.24611 0.35144 0.76908 0.0
C429 C 0.31101 0.40719 0.75834 0.0
C430 C 0.2251 0.38231 0.77617 0.0
N431 N 0.37333 0.31827 0.73619 0.0
C432 C 0.39239 0.28985 0.72523 0.0
C433 C 0.28797 0.29069 0.75172 0.0
C434 C 0.32124 0.31938 0.74832 0.0
C435 C 0.30879 0.26112 0.7417 0.0
C436 C 0.36074 0.26082 0.72804 0.0
H437 H 0.18342 0.38484 0.78545 0.0
H438 H 0.17204 0.32378 0.78261 0.0
H439 H 0.20877 0.27061 0.76751 0.0
O440 O 0.40171 0.35462 0.69395 0.0
O441 O 0.4197 0.34417 0.7733 0.0
O442 O 0.51347 0.32808 0.78049 0.0
O443 O 0.38073 0.40311 0.70766 0.0
O444 O 0.49718 0.33392 0.72298 0.0
O445 O 0.57689 0.33844 0.75095 0.0
O446 O 0.5527 0.3807 0.82552 0.0
O447 O 0.55306 0.4163 0.7544 0.0
O448 O 0.51096 0.38836 0.7207 0.0
O449 O 0.62076 0.34987 0.81111 0.0
O450 O 0.47603 0.39463 0.79413 0.0
O451 O 0.43546 0.41528 0.7569 0.0
C452 C 0.45787 0.32519 0.78469 0.0
C453 C 0.32257 0.38068 0.67396 0.0
C454 C 0.27257 0.37809 0.63235 0.0
C455 C 0.21949 0.37668 0.64536 0.0
C456 C 0.26916 0.37909 0.6867 0.0
C457 C 0.21791 0.37713 0.67241 0.0
C458 C 0.32407 0.38006 0.64675 0.0
C459 C 0.54996 0.32603 0.73056 0.0
C460 C 0.37729 0.38243 0.68848 0.0
C461 C 0.21377 0.32274 0.77318 0.0
C462 C 0.23467 0.29246 0.76456 0.0
C463 C 0.53937 0.41364 0.72981 0.0
C464 C 0.63845 0.37764 0.85035 0.0
C465 C 0.66998 0.38534 0.89503 0.0
C466 C 0.71763 0.40349 0.88622 0.0
C467 C 0.68653 0.39577 0.84193 0.0
C468 C 0.63006 0.37264 0.87701 0.0
C469 C 0.7257 0.40872 0.8598 0.0
C470 C 0.44623 0.41718 0.78185 0.0
C471 C 0.59785 0.36329 0.83146 0.0
H472 H 0.1794 0.37519 0.63455 0.0
H473 H 0.26702 0.37936 0.7076 0.0
H474 H 0.17682 0.37594 0.68233 0.0
H475 H 0.36518 0.38115 0.63675 0.0
H476 H 0.74867 0.4135 0.89985 0.0
H477 H 0.69424 0.39963 0.82157 0.0
H478 H 0.59317 0.35862 0.88372 0.0
H479 H 0.76265 0.42263 0.85312 0.0
Eu480 Eu 0.07398 0.87097 0.73432 0.0
C481 C 0.82403 0.83211 0.7596 0.0
N482 N 0.84775 0.86229 0.76328 0.0
C483 C 0.76513 0.88762 0.74383 0.0
C484 C 0.77078 0.82853 0.74658 0.0
C485 C 0.81829 0.88995 0.75663 0.0
C486 C 0.74167 0.85677 0.73844 0.0
C487 C 0.8292 0.77311 0.76551 0.0
C488 C 0.8528 0.80469 0.76916 0.0
C489 C 0.77717 0.76941 0.75176 0.0
C490 C 0.74796 0.79703 0.7424 0.0
Eu491 Eu 0.93786 0.86354 0.7844 0.0
N492 N 0.90373 0.8089 0.78202 0.0
C493 C 0.85836 0.74617 0.77599 0.0
C494 C 0.93111 0.78287 0.79314 0.0
C495 C 0.90904 0.75114 0.79017 0.0
H496 H 0.83589 0.91388 0.76096 0.0
H497 H 0.93135 0.7305 0.79872 0.0
H498 H 0.16146 0.8064 0.72991 0.0
H499 H 0.12988 0.00087 0.72541 0.0
H500 H 0.97001 0.78626 0.8043 0.0
H501 H 0.84165 0.72151 0.77358 0.0
H502 H 0.06638 0.95198 0.72214 0.0
H503 H 0.74235 0.90961 0.73811 0.0
H504 H 0.75872 0.74529 0.74857 0.0
H505 H 0.70739 0.79379 0.7322 0.0
H506 H 0.26639 0.79443 0.73321 0.0
H507 H 0.70057 0.85505 0.72844 0.0
H508 H 0.23262 0.99423 0.73778 0.0
N509 N 0.17234 0.85729 0.73709 0.0
C510 C 0.20971 0.88263 0.74051 0.0
C511 C 0.25096 0.81928 0.73549 0.0
C512 C 0.26955 0.87699 0.74283 0.0
C513 C 0.19185 0.82604 0.7337 0.0
C514 C 0.28986 0.84477 0.74067 0.0
N515 N 0.13134 0.91899 0.73478 0.0
C516 C 0.11089 0.94921 0.72803 0.0
C517 C 0.22673 0.94136 0.7409 0.0
C518 C 0.18853 0.91444 0.73945 0.0
C519 C 0.20471 0.9729 0.73677 0.0
C520 C 0.14677 0.97676 0.72973 0.0
H521 H 0.33558 0.83944 0.74217 0.0
H522 H 0.35335 0.89987 0.74821 0.0
H523 H 0.31581 0.95624 0.74664 0.0
O524 O 0.03148 0.86946 0.69661 0.0
O525 O 0.06586 0.91132 0.76451 0.0
O526 O 0.01906 0.88817 0.79968 0.0
O527 O 0.12374 0.86446 0.69864 0.0
O528 O 0.98957 0.89747 0.7258 0.0
O529 O 0.9437 0.9125 0.76371 0.0
O530 O 0.91209 0.84877 0.82332 0.0
O531 O 0.93948 0.84243 0.74351 0.0
O532 O 0.03027 0.82208 0.73937 0.0
O533 O 0.88438 0.89566 0.80836 0.0
O534 O 0.01894 0.83769 0.79731 0.0
O535 O 0.09293 0.83402 0.76699 0.0
C536 C 0.05338 0.91018 0.78931 0.0
C537 C 0.07608 0.83715 0.66458 0.0
C538 C 0.08454 0.81912 0.61981 0.0
C539 C 0.07272 0.78682 0.62757 0.0
C540 C 0.06529 0.80469 0.67216 0.0
C541 C 0.06295 0.77971 0.65367 0.0
C542 C 0.08565 0.84429 0.63836 0.0
C543 C 0.95839 0.91801 0.73951 0.0
C544 C 0.07855 0.86371 0.68375 0.0
C545 C 0.30729 0.90373 0.74602 0.0
C546 C 0.2859 0.93585 0.74513 0.0
C547 C 0.97454 0.8192 0.73557 0.0
C548 C 0.8275 0.87114 0.84149 0.0
C549 C 0.7758 0.86811 0.88251 0.0
C550 C 0.72392 0.86314 0.86894 0.0
C551 C 0.77543 0.86594 0.82814 0.0
C552 C 0.8275 0.87208 0.86868 0.0
C553 C 0.72387 0.86201 0.84187 0.0
C554 C 0.07115 0.82841 0.79038 0.0
C555 C 0.8826 0.87527 0.82777 0.0
H556 H 0.07164 0.76717 0.61346 0.0
H557 H 0.05918 0.79866 0.69234 0.0
H558 H 0.05419 0.75474 0.65961 0.0
H559 H 0.09479 0.86927 0.63241 0.0
H560 H 0.68366 0.86004 0.87931 0.0
H561 H 0.77457 0.86492 0.80722 0.0
H562 H 0.86766 0.87592 0.87913 0.0
H563 H 0.68375 0.85805 0.83151 0.0
Eu564 Eu 0.43997 0.63813 0.23841 0.0
C565 C 0.70079 0.65855 0.25769 0.0
N566 N 0.6681 0.63072 0.25878 0.0
C567 C 0.73874 0.60198 0.23358 0.0
C568 C 0.75257 0.65941 0.24332 0.0
C569 C 0.68777 0.60224 0.24804 0.0
C570 C 0.77092 0.63075 0.23094 0.0
C571 C 0.71612 0.71535 0.27051 0.0
C572 C 0.68334 0.6862 0.27146 0.0
C573 C 0.76646 0.71651 0.25544 0.0
C574 C 0.78473 0.68861 0.24197 0.0
Eu575 Eu 0.58444 0.63431 0.28484 0.0
N576 N 0.63399 0.68467 0.28565 0.0
C577 C 0.69751 0.74243 0.28494 0.0
C578 C 0.61696 0.7104 0.30066 0.0
C579 C 0.648 0.73984 0.30025 0.0
H580 H 0.66524 0.57937 0.25092 0.0
H581 H 0.63385 0.76046 0.31178 0.0
H582 H 0.36092 0.69811 0.2668 0.0
H583 H 0.37702 0.51385 0.21111 0.0
H584 H 0.57901 0.70823 0.31269 0.0
H585 H 0.7215 0.76527 0.28467 0.0
H586 H 0.4402 0.56267 0.21237 0.0
H587 H 0.75353 0.57946 0.22473 0.0
H588 H 0.79203 0.73876 0.25436 0.0
H589 H 0.82421 0.68976 0.23077 0.0
H590 H 0.26693 0.70381 0.28835 0.0
H591 H 0.81045 0.63042 0.21974 0.0
H592 H 0.28151 0.51519 0.2325 0.0
N593 N 0.35052 0.64708 0.25918 0.0
C594 C 0.31285 0.6214 0.25854 0.0
C595 C 0.27958 0.68037 0.28036 0.0
C596 C 0.25766 0.62394 0.26994 0.0
C597 C 0.33356 0.6768 0.26864 0.0
C598 C 0.24171 0.65373 0.2813 0.0
N599 N 0.38235 0.59064 0.23531 0.0
C600 C 0.39916 0.56327 0.22217 0.0
C601 C 0.29147 0.56523 0.2459 0.0
C602 C 0.3293 0.59238 0.24647 0.0
C603 C 0.30932 0.53658 0.23331 0.0
C604 C 0.36324 0.5357 0.22124 0.0
H605 H 0.19982 0.65661 0.29032 0.0
H606 H 0.17784 0.59828 0.27848 0.0
H607 H 0.20753 0.54688 0.25756 0.0
O608 O 0.40584 0.63276 0.19878 0.0
O609 O 0.44054 0.59685 0.26848 0.0
O610 O 0.50483 0.61045 0.30166 0.0
O611 O 0.40554 0.68069 0.21789 0.0
O612 O 0.51221 0.60757 0.22245 0.0
O613 O 0.56545 0.59028 0.2582 0.0
O614 O 0.61665 0.64199 0.32476 0.0
O615 O 0.5706 0.6774 0.25712 0.0
O616 O 0.52769 0.65217 0.22272 0.0
O617 O 0.64072 0.59819 0.30306 0.0
O618 O 0.50763 0.65834 0.30365 0.0
O619 O 0.45896 0.67846 0.268 0.0
C620 C 0.46302 0.59255 0.29177 0.0
C621 C 0.36629 0.67883 0.17408 0.0
C622 C 0.3434 0.67866 0.12782 0.0
C623 C 0.31613 0.70912 0.13069 0.0
C624 C 0.33885 0.70938 0.1764 0.0
C625 C 0.31384 0.72432 0.15484 0.0
C626 C 0.3684 0.66342 0.14962 0.0
C627 C 0.54756 0.58701 0.23395 0.0
C628 C 0.39317 0.66377 0.19718 0.0
C629 C 0.22017 0.59681 0.26964 0.0
C630 C 0.23707 0.56753 0.25772 0.0
C631 C 0.55979 0.67561 0.23223 0.0
C632 C 0.68071 0.60261 0.34651 0.0
C633 C 0.70916 0.60342 0.39218 0.0
C634 C 0.74808 0.57784 0.38737 0.0
C635 C 0.71992 0.57689 0.3423 0.0
C636 C 0.67562 0.61603 0.37162 0.0
C637 C 0.7534 0.56472 0.36258 0.0
C638 C 0.46684 0.67647 0.29327 0.0
C639 C 0.64527 0.6146 0.32457 0.0
H640 H 0.29679 0.7212 0.11413 0.0
H641 H 0.33658 0.72175 0.19493 0.0
H642 H 0.29276 0.74784 0.15685 0.0
H643 H 0.38987 0.64001 0.14741 0.0
H644 H 0.77422 0.56791 0.40291 0.0
H645 H 0.72488 0.56616 0.32325 0.0
H646 H 0.64545 0.63576 0.37529 0.0
H647 H 0.78349 0.54493 0.35909 0.0
C648 C 0.09578 0.9999 0.30634 0.0
C649 C 0.11047 0.00626 0.33252 0.0
C650 C 0.08687 0.06444 0.32679 0.0
C651 C 0.06934 0.05777 0.30092 0.0
N652 N 0.0477 0.01838 0.26739 0.0
N653 N 0.116 0.0432 0.3688 0.0
C654 C 0.07116 0.02527 0.29107 0.0
C655 C 0.10511 0.03822 0.34305 0.0
N656 N 0.10641 0.96968 0.29591 0.0
N657 N 0.0857 0.09589 0.33586 0.0
H658 H 0.13167 0.02486 0.381 0.0
H659 H 0.10679 0.06484 0.37859 0.0
H660 H 0.06724 0.11504 0.32551 0.0
H661 H 0.10473 0.10344 0.35313 0.0
H662 H 0.10369 0.96463 0.27619 0.0
H663 H 0.12216 0.95001 0.3067 0.0
H664 H 0.04091 0.99471 0.26046 0.0
H665 H 0.03121 0.03635 0.25519 0.0
C666 C 0.36489 0.45748 0.837 0.0
C667 C 0.37551 0.4911 0.83205 0.0
C668 C 0.42962 0.47681 0.79285 0.0
C669 C 0.41754 0.44312 0.79745 0.0
N670 N 0.35921 0.4027 0.8193 0.0
N671 N 0.40737 0.53353 0.80289 0.0
C672 C 0.38101 0.43382 0.81824 0.0
C673 C 0.40454 0.501 0.80917 0.0
N674 N 0.34059 0.44806 0.85992 0.0
N675 N 0.46733 0.48566 0.77376 0.0
H676 H 0.39065 0.55197 0.81468 0.0
H677 H 0.42209 0.54213 0.78511 0.0
H678 H 0.48695 0.46878 0.76154 0.0
H679 H 0.48315 0.50938 0.77139 0.0
H680 H 0.33793 0.42369 0.86585 0.0
H681 H 0.3272 0.46473 0.87399 0.0
H682 H 0.32768 0.39535 0.83244 0.0
H683 H 0.36788 0.38518 0.80518 0.0
C684 C 0.56109 0.48584 0.68394 0.0
C685 C 0.62199 0.48486 0.68092 0.0
C686 C 0.62496 0.43272 0.70434 0.0
C687 C 0.56623 0.43676 0.71124 0.0
N688 N 0.47732 0.46716 0.70774 0.0
N689 N 0.7134 0.45917 0.69062 0.0
C690 C 0.53385 0.46325 0.70097 0.0
C691 C 0.65441 0.45869 0.69165 0.0
N692 N 0.52913 0.50766 0.66984 0.0
N693 N 0.65187 0.40354 0.70889 0.0
H694 H 0.73671 0.47794 0.68173 0.0
H695 H 0.73922 0.44237 0.70045 0.0
H696 H 0.63072 0.38365 0.71733 0.0
H697 H 0.69295 0.39802 0.70196 0.0
H698 H 0.48418 0.50738 0.66912 0.0
H699 H 0.54755 0.52423 0.65686 0.0
H700 H 0.45357 0.48821 0.70373 0.0
H701 H 0.45492 0.44999 0.7187 0.0
C702 C 0.92674 0.03158 0.17029 0.0
C703 C 0.89135 0.00672 0.18103 0.0
C704 C 0.90628 0.03007 0.22428 0.0
C705 C 0.93674 0.05696 0.21319 0.0
N706 N 0.96103 0.08721 0.17435 0.0
N707 N 0.83616 0.9868 0.21735 0.0
C708 C 0.94275 0.05885 0.1858 0.0
C709 C 0.87767 0.00733 0.20777 0.0
N710 N 0.9467 0.02877 0.14551 0.0
N711 N 0.90682 0.02501 0.25041 0.0
H712 H 0.81348 0.97016 0.20581 0.0
H713 H 0.82024 0.98863 0.23615 0.0
H714 H 0.92806 0.04033 0.26342 0.0
H715 H 0.89079 0.00376 0.259 0.0
H716 H 0.97763 0.04454 0.13775 0.0
H717 H 0.93678 0.0089 0.13358 0.0
H718 H 0.9608 0.09071 0.15437 0.0
H719 H 0.96983 0.10854 0.18468 0.0
C720 C 0.88042 0.96542 0.68687 0.0
C721 C 0.89258 0.99818 0.69416 0.0
C722 C 0.94631 0.97883 0.73214 0.0
C723 C 0.93164 0.94602 0.72554 0.0
N724 N 0.8723 0.90904 0.70056 0.0
N725 N 0.92762 0.03682 0.72584 0.0
C726 C 0.89512 0.93961 0.704 0.0
C727 C 0.92255 0.00512 0.71751 0.0
N728 N 0.85602 0.95889 0.66328 0.0
N729 N 0.98515 0.98483 0.75152 0.0
H730 H 0.91185 0.05671 0.7153 0.0
H731 H 0.94335 0.04326 0.74405 0.0
H732 H 0.00379 0.96621 0.7624 0.0
H733 H 0.00266 0.00786 0.75538 0.0
H734 H 0.85238 0.93532 0.65567 0.0
H735 H 0.84361 0.97719 0.65033 0.0
H736 H 0.8408 0.9035 0.68681 0.0
H737 H 0.88007 0.89007 0.71352 0.0
C738 C 0.5673 0.49704 0.21434 0.0
C739 C 0.60363 0.50066 0.19248 0.0
C740 C 0.59585 0.56034 0.19534 0.0
C741 C 0.56483 0.55719 0.21901 0.0
N742 N 0.51694 0.52251 0.25012 0.0
N743 N 0.66079 0.53511 0.16459 0.0
C744 C 0.54983 0.52543 0.22835 0.0
C745 C 0.62053 0.53212 0.1838 0.0
N746 N 0.54816 0.46645 0.22111 0.0
N747 N 0.59932 0.58982 0.18292 0.0
H748 H 0.67854 0.51504 0.15497 0.0
H749 H 0.68037 0.55731 0.15978 0.0
H750 H 0.57894 0.61089 0.18934 0.0
H751 H 0.61643 0.59264 0.16442 0.0
H752 H 0.5168 0.46195 0.23505 0.0
H753 H 0.56168 0.44514 0.21175 0.0
H754 H 0.51051 0.50068 0.26012 0.0
H755 H 0.49602 0.54239 0.25843 0.0
C756 C 0.44739 0.51076 0.32678 0.0
C757 C 0.3926 0.51432 0.3386 0.0
C758 C 0.3828 0.56901 0.31926 0.0
C759 C 0.43906 0.5661 0.30855 0.0
N760 N 0.53082 0.53772 0.30864 0.0
N761 N 0.3129 0.54904 0.35054 0.0
C762 C 0.47325 0.53812 0.31438 0.0
C763 C 0.36146 0.54408 0.33602 0.0
N764 N 0.47379 0.48081 0.32632 0.0
N765 N 0.35021 0.59596 0.31387 0.0
H766 H 0.29666 0.53157 0.36335 0.0
H767 H 0.29141 0.57137 0.3517 0.0
H768 H 0.36664 0.61604 0.3039 0.0
H769 H 0.30658 0.59799 0.31841 0.0
H770 H 0.51057 0.47599 0.31538 0.0
H771 H 0.45598 0.45991 0.3348 0.0
H772 H 0.55886 0.5196 0.31527 0.0
H773 H 0.55171 0.5567 0.29903 0.0
C774 C 0.164 0.95623 0.83055 0.0
C775 C 0.1324 0.98496 0.83682 0.0
C776 C 0.04647 0.9616 0.81603 0.0
C777 C 0.08003 0.9351 0.80663 0.0
N778 N 0.17247 0.90849 0.80294 0.0
N779 N 0.04714 0.01802 0.83022 0.0
C780 C 0.13947 0.93292 0.81319 0.0
C781 C 0.07454 0.98848 0.82813 0.0
N782 N 0.21622 0.95047 0.84207 0.0
N783 N 0.9877 0.96106 0.8138 0.0
H784 H 0.06684 0.03884 0.83799 0.0
H785 H 0.00714 0.02275 0.82172 0.0
H786 H 0.96532 0.94187 0.8051 0.0
H787 H 0.96102 0.97821 0.82272 0.0
H788 H 0.23859 0.92847 0.84021 0.0
H789 H 0.23473 0.96643 0.85552 0.0
H790 H 0.21735 0.9078 0.80443 0.0
H791 H 0.15504 0.89007 0.79135 0.0
C792 C 0.21207 0.16204 0.05928 0.0
C793 C 0.22845 0.13208 0.04742 0.0
C794 C 0.23437 0.1057 0.09005 0.0
C795 C 0.22366 0.13643 0.10198 0.0
N796 N 0.20826 0.19469 0.09853 0.0
N797 N 0.26161 0.07629 0.05112 0.0
C798 C 0.21392 0.16485 0.08675 0.0
C799 C 0.24117 0.10409 0.0627 0.0
N800 N 0.19342 0.18753 0.04427 0.0
N801 N 0.23674 0.07796 0.10487 0.0
H802 H 0.26633 0.074 0.03113 0.0
H803 H 0.27793 0.05634 0.06133 0.0
H804 H 0.23257 0.07829 0.12497 0.0
H805 H 0.23813 0.05437 0.09719 0.0
H806 H 0.17493 0.20875 0.05173 0.0
H807 H 0.19218 0.18646 0.0241 0.0
H808 H 0.20774 0.21685 0.08854 0.0
H809 H 0.20812 0.19761 0.1186 0.0
C810 C 0.28584 0.34763 0.56264 0.0
C811 C 0.27232 0.37666 0.54876 0.0
C812 C 0.26518 0.40725 0.5896 0.0
C813 C 0.27395 0.37768 0.60352 0.0
N814 N 0.28613 0.31902 0.60386 0.0
N815 N 0.2422 0.43319 0.54857 0.0
C816 C 0.2826 0.34765 0.59018 0.0
C817 C 0.26015 0.40626 0.56213 0.0
N818 N 0.3032 0.3203 0.54947 0.0
N819 N 0.2631 0.4364 0.60266 0.0
H820 H 0.23901 0.43357 0.52843 0.0
H821 H 0.22638 0.45437 0.55724 0.0
H822 H 0.26573 0.43801 0.62278 0.0
H823 H 0.26327 0.45918 0.59358 0.0
H824 H 0.31987 0.2995 0.55841 0.0
H825 H 0.30495 0.31921 0.52931 0.0
H826 H 0.28584 0.29591 0.59532 0.0
H827 H 0.28533 0.31817 0.62404 0.0
C828 C 0.65592 0.40408 0.96668 0.0
C829 C 0.66483 0.37262 0.97773 0.0
C830 C 0.6745 0.34878 0.93435 0.0
C831 C 0.66274 0.37995 0.92333 0.0
N832 N 0.62878 0.43533 0.92866 0.0
N833 N 0.66944 0.31398 0.97234 0.0
C834 C 0.6491 0.407 0.93944 0.0
C835 C 0.66999 0.3446 0.96161 0.0
N836 N 0.6568 0.4314 0.98204 0.0
N837 N 0.69261 0.32356 0.91896 0.0
H838 H 0.66585 0.31004 0.99222 0.0
H839 H 0.66713 0.29252 0.96144 0.0
H840 H 0.69639 0.32555 0.89891 0.0
H841 H 0.70819 0.30147 0.92623 0.0
H842 H 0.65704 0.45519 0.97472 0.0
H843 H 0.66231 0.43045 1.00206 0.0
H844 H 0.61261 0.45476 0.93952 0.0
H845 H 0.62285 0.43817 0.90876 0.0
C846 C 0.86846 0.16176 0.46413 0.0
C847 C 0.84431 0.13376 0.47635 0.0
C848 C 0.82115 0.10967 0.43406 0.0
C849 C 0.84547 0.13762 0.42184 0.0
N850 N 0.90295 0.18678 0.42437 0.0
N851 N 0.80916 0.07824 0.4736 0.0
C852 C 0.87269 0.16255 0.43666 0.0
C853 C 0.82439 0.10676 0.46147 0.0
N854 N 0.88507 0.18812 0.47875 0.0
N855 N 0.79281 0.08664 0.41954 0.0
H856 H 0.81053 0.07546 0.49367 0.0
H857 H 0.7998 0.05653 0.46384 0.0
H858 H 0.79111 0.08741 0.39937 0.0
H859 H 0.76806 0.0678 0.42742 0.0
H860 H 0.89663 0.21073 0.47097 0.0
H861 H 0.88399 0.18809 0.49893 0.0
H862 H 0.92854 0.20394 0.43397 0.0
H863 H 0.9064 0.18808 0.40425 0.0
C864 C 0.75875 0.89916 0.95179 0.0
C865 C 0.77511 0.87091 0.96605 0.0
C866 C 0.78883 0.84029 0.92558 0.0
C867 C 0.77599 0.86913 0.91132 0.0
N868 N 0.75667 0.92714 0.91032 0.0
N869 N 0.81327 0.81601 0.96709 0.0
C870 C 0.76316 0.89891 0.9243 0.0
C871 C 0.79229 0.84184 0.95309 0.0
N872 N 0.73759 0.92594 0.96455 0.0
N873 N 0.79622 0.81123 0.9128 0.0
H874 H 0.81522 0.816 0.98727 0.0
H875 H 0.83259 0.79553 0.95881 0.0
H876 H 0.7953 0.8093 0.89266 0.0
H877 H 0.79922 0.78863 0.92204 0.0
H878 H 0.71879 0.9459 0.95528 0.0
H879 H 0.73502 0.92729 0.98468 0.0
H880 H 0.75372 0.95032 0.91863 0.0
H881 H 0.75849 0.92776 0.89015 0.0
C882 C 0.757 0.63916 0.4564 0.0
C883 C 0.71344 0.62688 0.47313 0.0
C884 C 0.66064 0.60428 0.43583 0.0
C885 C 0.70458 0.61621 0.41915 0.0
N886 N 0.7861 0.6518 0.41234 0.0
N887 N 0.61732 0.60532 0.47861 0.0
C888 C 0.74991 0.63602 0.42911 0.0
C889 C 0.66302 0.61194 0.46272 0.0
N890 N 0.80651 0.65222 0.46661 0.0
N891 N 0.61832 0.58425 0.42618 0.0
H892 H 0.61788 0.61069 0.49836 0.0
H893 H 0.57721 0.59733 0.47193 0.0
H894 H 0.61426 0.57887 0.40653 0.0
H895 H 0.58923 0.57145 0.43775 0.0
H896 H 0.84274 0.65803 0.45561 0.0
H897 H 0.81299 0.65534 0.48644 0.0
H898 H 0.81677 0.66904 0.41812 0.0
H899 H 0.7817 0.64988 0.39228 0.0
C900 C 0.30573 0.62772 0.06795 0.0
C901 C 0.3365 0.64553 0.04878 0.0
C902 C 0.38388 0.67791 0.08287 0.0
C903 C 0.3464 0.66377 0.10148 0.0
N904 N 0.26898 0.62645 0.1119 0.0
N905 N 0.40146 0.68968 0.0376 0.0
C906 C 0.30701 0.6387 0.09414 0.0
C907 C 0.37527 0.67096 0.05614 0.0
N908 N 0.27595 0.60006 0.0611 0.0
N909 N 0.42799 0.69786 0.09087 0.0
H910 H 0.39631 0.68552 0.01782 0.0
H911 H 0.42477 0.71092 0.04172 0.0
H912 H 0.4354 0.70332 0.11033 0.0
H913 H 0.46032 0.7064 0.07859 0.0
H914 H 0.25725 0.58416 0.07445 0.0
H915 H 0.27442 0.59136 0.04211 0.0
H916 H 0.23464 0.61106 0.1071 0.0
H917 H 0.26947 0.63334 0.13134 0.0
C918 C 0.0659 0.84389 0.54906 0.0
C919 C 0.12287 0.83899 0.53973 0.0
C920 C 0.15551 0.82394 0.58337 0.0
C921 C 0.0977 0.8264 0.59227 0.0
N922 N 0.99659 0.83527 0.58367 0.0
N923 N 0.22078 0.82097 0.54674 0.0
C924 C 0.05249 0.83548 0.57513 0.0
C925 C 0.16743 0.82812 0.55656 0.0
N926 N 0.02503 0.85726 0.5331 0.0
N927 N 0.19915 0.81832 0.6007 0.0
H928 H 0.23165 0.82463 0.52737 0.0
H929 H 0.2532 0.80934 0.55726 0.0
H930 H 0.19196 0.81426 0.62037 0.0
H931 H 0.2428 0.81995 0.59607 0.0
H932 H 0.9845 0.86484 0.53935 0.0
H933 H 0.03301 0.86295 0.51375 0.0
H934 H 0.96092 0.83804 0.57157 0.0
H935 H 0.9854 0.83015 0.60279 0.0
C936 C 0.16428 0.21998 0.32682 0.0
C937 C 0.13628 0.25051 0.33092 0.0
C938 C 0.06279 0.23491 0.29894 0.0
C939 C 0.08475 0.20253 0.29846 0.0
N940 N 0.15454 0.16323 0.31395 0.0
N941 N 0.05048 0.28347 0.32501 0.0
C942 C 0.13466 0.19467 0.31322 0.0
C943 C 0.08318 0.25705 0.31807 0.0
N944 N 0.22034 0.21571 0.33446 0.0
N945 N 0.0229 0.2448 0.2811 0.0
H946 H 0.06181 0.29918 0.34013 0.0
H947 H 0.00907 0.2875 0.31771 0.0
H948 H 0.00646 0.22931 0.26683 0.0
H949 H 0.00989 0.26915 0.27924 0.0
H950 H 0.24452 0.19509 0.32963 0.0
H951 H 0.24479 0.23423 0.34311 0.0
H952 H 0.18669 0.15544 0.32669 0.0
H953 H 0.1367 0.14454 0.30278 0.0
C954 C 0.41665 0.2406 0.81088 0.0
C955 C 0.38319 0.24991 0.83266 0.0
C956 C 0.40998 0.30726 0.82582 0.0
C957 C 0.43652 0.29874 0.80205 0.0
N958 N 0.46349 0.25732 0.77105 0.0
N959 N 0.34113 0.29242 0.85898 0.0
C960 C 0.43977 0.26534 0.79438 0.0
C961 C 0.37787 0.28335 0.83959 0.0
N962 N 0.4273 0.20815 0.80633 0.0
N963 N 0.41847 0.3377 0.83609 0.0
H964 H 0.31722 0.27558 0.86976 0.0
H965 H 0.33067 0.31676 0.86285 0.0
H966 H 0.44517 0.35498 0.82738 0.0
H967 H 0.40479 0.34442 0.85454 0.0
H968 H 0.45638 0.19978 0.79249 0.0
H969 H 0.41037 0.18942 0.8178 0.0
H970 H 0.46158 0.23395 0.76299 0.0
H971 H 0.4816 0.27467 0.75871 0.0
C972 C 0.64627 0.25427 0.71044 0.0
C973 C 0.63937 0.25503 0.68318 0.0
C974 C 0.5827 0.30528 0.68699 0.0
C975 C 0.58206 0.30183 0.71443 0.0
N976 N 0.60589 0.26858 0.75189 0.0
N977 N 0.59195 0.27785 0.6457 0.0
C978 C 0.61197 0.27515 0.72611 0.0
C979 C 0.60484 0.27951 0.6715 0.0
N980 N 0.68682 0.23426 0.7214 0.0
N981 N 0.56543 0.33387 0.67563 0.0
H982 H 0.60705 0.2592 0.63367 0.0
H983 H 0.56187 0.29319 0.63685 0.0
H984 H 0.55297 0.35438 0.68614 0.0
H985 H 0.57034 0.33859 0.65593 0.0
H986 H 0.69801 0.23538 0.74094 0.0
H987 H 0.71341 0.21888 0.71058 0.0
H988 H 0.62139 0.24722 0.76049 0.0
H989 H 0.58097 0.28264 0.76435 0.0
C990 C 0.8385 0.20967 0.19068 0.0
C991 C 0.86613 0.23791 0.18038 0.0
C992 C 0.95687 0.22185 0.20141 0.0
C993 C 0.9295 0.19314 0.21084 0.0
N994 N 0.85142 0.15439 0.20653 0.0
N995 N 0.95513 0.26583 0.16991 0.0
C996 C 0.87247 0.18534 0.20301 0.0
C997 C 0.92649 0.24252 0.18395 0.0
N998 N 0.77971 0.20669 0.18986 0.0
N999 N 0.01155 0.22963 0.2093 0.0
H1000 H 0.93461 0.28061 0.15624 0.0
H1001 H -7e-05 0.26824 0.16985 0.0
H1002 H 0.03637 0.21413 0.2208 0.0
H1003 H 0.03096 0.25222 0.20567 0.0
H1004 H 0.75742 0.18783 0.1991 0.0
H1005 H 0.75275 0.22458 0.18204 0.0
H1006 H 0.81203 0.1465 0.19893 0.0
H1007 H 0.87614 0.13571 0.21469 0.0
C1008 C 0.9455 0.7345 0.70542 0.0
C1009 C 0.90054 0.74243 0.68781 0.0
C1010 C 0.91241 0.80047 0.69808 0.0
C1011 C 0.95178 0.79256 0.71832 0.0
N1012 N 0.00169 0.75081 0.74296 0.0
N1013 N 0.83454 0.78238 0.67029 0.0
C1014 C 0.96764 0.75921 0.72236 0.0
C1015 C 0.88183 0.77521 0.68514 0.0
N1016 N 0.96734 0.70341 0.70579 0.0
N1017 N 0.90741 0.832 0.68968 0.0
H1018 H 0.81207 0.7648 0.65956 0.0
H1019 H 0.81486 0.80534 0.67034 0.0
H1020 H 0.93316 0.85071 0.69687 0.0
H1021 H 0.88372 0.83875 0.67336 0.0
H1022 H 0.00444 0.6969 0.71599 0.0
H1023 H 0.95089 0.68456 0.69425 0.0
H1024 H 0.00911 0.72668 0.74857 0.0
H1025 H 0.01863 0.7678 0.75598 0.0
C1026 C 0.65421 0.7146 0.17985 0.0
C1027 C 0.63749 0.74787 0.18204 0.0
C1028 C 0.56379 0.73268 0.21383 0.0
C1029 C 0.58555 0.70022 0.21431 0.0
N1030 N 0.65417 0.66047 0.19888 0.0
N1031 N 0.58173 0.7897 0.20345 0.0
C1032 C 0.63139 0.6912 0.19751 0.0
C1033 C 0.5938 0.75725 0.19972 0.0
N1034 N 0.69088 0.70528 0.16048 0.0
N1035 N 0.51248 0.73965 0.22555 0.0
H1036 H 0.60222 0.80842 0.1932 0.0
H1037 H 0.5549 0.79812 0.21818 0.0
H1038 H 0.48774 0.72176 0.23467 0.0
H1039 H 0.4915 0.7621 0.22374 0.0
H1040 H 0.69978 0.68095 0.15594 0.0
H1041 H 0.70897 0.72184 0.14741 0.0
H1042 H 0.69127 0.65316 0.18913 0.0
H1043 H 0.63824 0.64282 0.21146 0.0
C1044 C 0.36204 0.7125 0.34212 0.0
C1045 C 0.36893 0.7465 0.33756 0.0
C1046 C 0.4439 0.73505 0.30529 0.0
C1047 C 0.43782 0.70092 0.31032 0.0
N1048 N 0.40426 0.65862 0.3395 0.0
N1049 N 0.42243 0.79097 0.31839 0.0
C1050 C 0.40101 0.69006 0.33058 0.0
C1051 C 0.41155 0.75805 0.32008 0.0
N1052 N 0.31689 0.70149 0.35679 0.0
N1053 N 0.48158 0.74551 0.28673 0.0
H1054 H 0.39929 0.80846 0.3288 0.0
H1055 H 0.45681 0.80103 0.30814 0.0
H1056 H 0.51168 0.73 0.27821 0.0
H1057 H 0.48254 0.76927 0.27942 0.0
H1058 H 0.30549 0.67683 0.35815 0.0
H1059 H 0.28753 0.71718 0.36575 0.0
H1060 H 0.38262 0.65046 0.35595 0.0
H1061 H 0.433 0.64143 0.33223 0.0
C1062 C 0.09634 0.76917 0.84641 0.0
C1063 C 0.14845 0.75411 0.83851 0.0
C1064 C 0.16011 0.79574 0.80478 0.0
C1065 C 0.10367 0.80748 0.8098 0.0
N1066 N 0.04103 0.81909 0.84613 0.0
N1067 N 0.22894 0.75155 0.80903 0.0
C1068 C 0.07757 0.79811 0.83368 0.0
C1069 C 0.18013 0.76701 0.81741 0.0
N1070 N 0.06447 0.75581 0.866 0.0
N1071 N 0.1979 0.81489 0.79149 0.0
H1072 H 0.24554 0.73065 0.81798 0.0
H1073 H 0.24999 0.75799 0.79194 0.0
H1074 H 0.1874 0.83869 0.78614 0.0
H1075 H 0.24175 0.80953 0.7899 0.0
H1076 H 0.02276 0.76357 0.87041 0.0
H1077 H 0.07772 0.73525 0.87643 0.0
H1078 H 0.02371 0.81441 0.86436 0.0
H1079 H 0.03642 0.84352 0.8406 0.0
loop_
_geom_bond_atom_site_label_1
_geom_bond_atom_site_label_2
_geom_bond_distance
_geom_bond_site_symmetry_2
_ccdc_geom_bond_type
C0 C1 1.386 . S
C0 C2 1.397 . S
C0 H24 0.931 . S
C1 C0 1.386 . S
C1 C5 1.397 . S
C2 C0 1.397 . S
C2 C3 1.384 . S
C2 H25 0.930 . S
C3 C2 1.384 . S
C3 C4 1.377 . S
C3 C6 1.481 . S
C4 C3 1.377 . S
C4 C5 1.389 . S
C4 H26 0.929 . S
C5 C1 1.397 . S
C5 C4 1.389 . S
C5 H27 0.931 . S
C6 C3 1.481 . S
C6 C7 1.387 . S
C6 C11 1.390 . S
C7 C6 1.387 . S
C7 C8 1.401 . S
C7 H28 0.930 . S
C8 C7 1.401 . S
C8 C9 1.376 . S
C8 C17 1.511 . S
C9 C8 1.376 . S
C9 C10 1.392 . S
C9 H30 0.931 . S
C10 C9 1.392 . S
C10 C11 1.361 . S
C10 C12 1.500 . S
C11 C6 1.390 . S
C11 C10 1.361 . S
C11 H29 0.931 . S
C12 C10 1.500 . S
C12 C13 1.371 . S
C12 C14 1.365 . S
C13 C12 1.371 . S
C13 C23 1.386 . S
C13 H31 0.931 . S
C14 C12 1.365 . S
C14 C15 1.409 . S
C14 H32 0.929 . S
C15 C14 1.409 . S
C15 C16 1.380 . S
C15 H33 0.930 . S
C16 C15 1.380 . S
C16 C23 1.357 . S
C17 C8 1.511 . S
C17 C18 1.341 . S
C17 C19 1.371 . S
C18 C17 1.341 . S
C18 C22 1.394 . S
C18 H34 0.930 . S
C19 C17 1.371 . S
C19 C20 1.392 . S
C19 H35 0.931 . S
C20 C19 1.392 . S
C20 C21 1.331 . S
C20 H38 0.932 . S
C21 C20 1.331 . S
C21 C22 1.336 . S
C22 C18 1.394 . S
C22 C21 1.336 . S
C22 H37 0.929 . S
C23 C13 1.386 . S
C23 C16 1.357 . S
C23 H36 0.928 . S
H24 C0 0.931 . S
H25 C2 0.930 . S
H26 C4 0.929 . S
H27 C5 0.931 . S
H28 C7 0.930 . S
H29 C11 0.931 . S
H30 C9 0.931 . S
H31 C13 0.931 . S
H32 C14 0.929 . S
H33 C15 0.930 . S
H34 C18 0.930 . S
H35 C19 0.931 . S
H36 C23 0.928 . S
H37 C22 0.929 . S
H38 C20 0.932 . S
C39 C40 1.386 . S
C39 C41 1.397 . S
C39 H63 0.931 . S
C40 C39 1.386 . S
C40 C44 1.397 . S
C41 C39 1.397 . S
C41 C42 1.384 . S
C41 H64 0.930 . S
C42 C41 1.384 . S
C42 C43 1.377 . S
C42 C45 1.481 . S
C43 C42 1.377 . S
C43 C44 1.389 . S
C43 H65 0.929 . S
C44 C40 1.397 . S
C44 C43 1.389 . S
C44 H66 0.931 . S
C45 C42 1.481 . S
C45 C46 1.387 . S
C45 C50 1.390 . S
C46 C45 1.387 . S
C46 C47 1.401 . S
C46 H67 0.930 . S
C47 C46 1.401 . S
C47 C48 1.376 . S
C47 C56 1.511 . S
C48 C47 1.376 . S
C48 C49 1.392 . S
C48 H69 0.931 . S
C49 C48 1.392 . S
C49 C50 1.361 . S
C49 C51 1.500 . S
C50 C45 1.390 . S
C50 C49 1.361 . S
C50 H68 0.931 . S
C51 C49 1.500 . S
C51 C52 1.371 . S
C51 C53 1.365 . S
C52 C51 1.371 . S
C52 C62 1.386 . S
C52 H70 0.931 . S
C53 C51 1.365 . S
C53 C54 1.409 . S
C53 H71 0.929 . S
C54 C53 1.409 . S
C54 C55 1.380 1_556 S
C54 H72 0.930 . S
C55 C54 1.380 1_554 S
C55 C62 1.357 1_554 S
C56 C47 1.511 . S
C56 C57 1.341 . S
C56 C58 1.371 . S
C57 C56 1.341 . S
C57 C61 1.394 . S
C57 H73 0.930 . S
C58 C56 1.371 . S
C58 C59 1.392 . S
C58 H74 0.931 . S
C59 C58 1.392 . S
C59 C60 1.331 . S
C59 H77 0.932 . S
C60 C59 1.331 . S
C60 C61 1.336 . S
C61 C57 1.394 . S
C61 C60 1.336 . S
C61 H76 0.929 . S
C62 C52 1.386 . S
C62 C55 1.357 1_556 S
C62 H75 0.928 1_556 S
H63 C39 0.931 . S
H64 C41 0.930 . S
H65 C43 0.929 . S
H66 C44 0.931 . S
H67 C46 0.930 . S
H68 C50 0.931 . S
H69 C48 0.931 . S
H70 C52 0.931 . S
H71 C53 0.929 . S
H72 C54 0.930 . S
H73 C57 0.930 . S
H74 C58 0.931 . S
H75 C62 0.928 1_554 S
H76 C61 0.929 . S
H77 C59 0.932 . S
C78 C79 1.386 . S
C78 C80 1.397 . S
C78 H102 0.931 . S
C79 C78 1.386 . S
C79 C83 1.397 . S
C80 C78 1.397 . S
C80 C81 1.384 . S
C80 H103 0.930 . S
C81 C80 1.384 . S
C81 C82 1.377 . S
C81 C84 1.481 . S
C82 C81 1.377 . S
C82 C83 1.389 . S
C82 H104 0.929 . S
C83 C79 1.397 . S
C83 C82 1.389 . S
C83 H105 0.931 . S
C84 C81 1.481 . S
C84 C85 1.387 . S
C84 C89 1.390 . S
C85 C84 1.387 . S
C85 C86 1.401 . S
C85 H106 0.930 . S
C86 C85 1.401 . S
C86 C87 1.376 . S
C86 C95 1.511 . S
C87 C86 1.376 . S
C87 C88 1.392 . S
C87 H108 0.931 . S
C88 C87 1.392 . S
C88 C89 1.361 . S
C88 C90 1.500 . S
C89 C84 1.390 . S
C89 C88 1.361 . S
C89 H107 0.931 . S
C90 C88 1.500 . S
C90 C91 1.371 . S
C90 C92 1.365 . S
C91 C90 1.371 . S
C91 C101 1.386 . S
C91 H109 0.931 . S
C92 C90 1.365 . S
C92 C93 1.409 . S
C92 H110 0.929 . S
C93 C92 1.409 . S
C93 C94 1.380 . S
C93 H111 0.930 . S
C94 C93 1.380 . S
C94 C101 1.357 . S
C95 C86 1.511 . S
C95 C96 1.341 . S
C95 C97 1.371 . S
C96 C95 1.341 . S
C96 C100 1.394 . S
C96 H112 0.930 . S
C97 C95 1.371 . S
C97 C98 1.392 . S
C97 H113 0.931 . S
C98 C97 1.392 . S
C98 C99 1.331 . S
C98 H116 0.932 . S
C99 C98 1.331 . S
C99 C100 1.336 . S
C100 C96 1.394 . S
C100 C99 1.336 . S
C100 H115 0.929 . S
C101 C91 1.386 . S
C101 C94 1.357 . S
C101 H114 0.928 . S
H102 C78 0.931 . S
H103 C80 0.930 . S
H104 C82 0.929 . S
H105 C83 0.931 . S
H106 C85 0.930 . S
H107 C89 0.931 . S
H108 C87 0.931 . S
H109 C91 0.931 . S
H110 C92 0.929 . S
H111 C93 0.930 . S
H112 C96 0.930 . S
H113 C97 0.931 . S
H114 C101 0.928 . S
H115 C100 0.929 . S
H116 C98 0.932 . S
C117 C118 1.386 . S
C117 C119 1.397 . S
C117 H141 0.931 . S
C118 C117 1.386 . S
C118 C122 1.397 . S
C119 C117 1.397 . S
C119 C120 1.384 . S
C119 H142 0.930 . S
C120 C119 1.384 . S
C120 C121 1.377 . S
C120 C123 1.481 . S
C121 C120 1.377 . S
C121 C122 1.389 . S
C121 H143 0.929 . S
C122 C118 1.397 . S
C122 C121 1.389 . S
C122 H144 0.931 . S
C123 C120 1.481 . S
C123 C124 1.387 . S
C123 C128 1.390 . S
C124 C123 1.387 . S
C124 C125 1.401 . S
C124 H145 0.930 . S
C125 C124 1.401 . S
C125 C126 1.376 . S
C125 C134 1.511 . S
C126 C125 1.376 . S
C126 C127 1.392 . S
C126 H147 0.931 . S
C127 C126 1.392 . S
C127 C128 1.361 . S
C127 C129 1.500 . S
C128 C123 1.390 . S
C128 C127 1.361 . S
C128 H146 0.931 . S
C129 C127 1.500 . S
C129 C130 1.371 . S
C129 C131 1.365 . S
C130 C129 1.371 . S
C130 C140 1.386 . S
C130 H148 0.931 . S
C131 C129 1.365 . S
C131 C132 1.409 . S
C131 H149 0.929 . S
C132 C131 1.409 . S
C132 C133 1.380 1_554 S
C132 H150 0.930 . S
C133 C132 1.380 1_556 S
C133 C140 1.357 1_556 S
C134 C125 1.511 . S
C134 C135 1.341 . S
C134 C136 1.371 . S
C135 C134 1.341 . S
C135 C139 1.394 . S
C135 H151 0.930 . S
C136 C134 1.371 . S
C136 C137 1.392 . S
C136 H152 0.931 . S
C137 C136 1.392 . S
C137 C138 1.331 . S
C137 H155 0.932 . S
C138 C137 1.331 . S
C138 C139 1.336 . S
C139 C135 1.394 . S
C139 C138 1.336 . S
C139 H154 0.929 . S
C140 C130 1.386 . S
C140 C133 1.357 1_554 S
C140 H153 0.928 1_554 S
H141 C117 0.931 . S
H142 C119 0.930 . S
H143 C121 0.929 . S
H144 C122 0.931 . S
H145 C124 0.930 . S
H146 C128 0.931 . S
H147 C126 0.931 . S
H148 C130 0.931 . S
H149 C131 0.929 . S
H150 C132 0.930 . S
H151 C135 0.930 . S
H152 C136 0.931 . S
H153 C140 0.928 1_556 S
H154 C139 0.929 . S
H155 C137 0.932 . S
C156 C157 1.386 . S
C156 C158 1.397 . S
C156 H180 0.931 . S
C157 C156 1.386 . S
C157 C161 1.397 . S
C158 C156 1.397 . S
C158 C159 1.384 . S
C158 H181 0.930 . S
C159 C158 1.384 . S
C159 C160 1.377 . S
C159 C162 1.481 . S
C160 C159 1.377 . S
C160 C161 1.389 . S
C160 H182 0.929 . S
C161 C157 1.397 . S
C161 C160 1.389 . S
C161 H183 0.931 . S
C162 C159 1.481 . S
C162 C163 1.387 . S
C162 C167 1.390 . S
C163 C162 1.387 . S
C163 C164 1.401 . S
C163 H184 0.930 . S
C164 C163 1.401 . S
C164 C165 1.376 . S
C164 C173 1.511 . S
C165 C164 1.376 . S
C165 C166 1.392 . S
C165 H186 0.931 . S
C166 C165 1.392 . S
C166 C167 1.361 . S
C166 C168 1.500 . S
C167 C162 1.390 . S
C167 C166 1.361 . S
C167 H185 0.931 . S
C168 C166 1.500 . S
C168 C169 1.371 . S
C168 C170 1.365 . S
C169 C168 1.371 . S
C169 C179 1.386 . S
C169 H187 0.931 . S
C170 C168 1.365 . S
C170 C171 1.409 . S
C170 H188 0.929 . S
C171 C170 1.409 . S
C171 C172 1.380 . S
C171 H189 0.930 . S
C172 C171 1.380 . S
C172 C179 1.357 . S
C173 C164 1.511 . S
C173 C174 1.341 . S
C173 C175 1.371 . S
C174 C173 1.341 . S
C174 C178 1.394 . S
C174 H190 0.930 . S
C175 C173 1.371 . S
C175 C176 1.392 . S
C175 H191 0.931 . S
C176 C175 1.392 . S
C176 C177 1.331 . S
C176 H194 0.932 . S
C177 C176 1.331 . S
C177 C178 1.336 . S
C178 C174 1.394 . S
C178 C177 1.336 . S
C178 H193 0.929 . S
C179 C169 1.386 . S
C179 C172 1.357 . S
C179 H192 0.928 . S
H180 C156 0.931 . S
H181 C158 0.930 . S
H182 C160 0.929 . S
H183 C161 0.931 . S
H184 C163 0.930 . S
H185 C167 0.931 . S
H186 C165 0.931 . S
H187 C169 0.931 . S
H188 C170 0.929 . S
H189 C171 0.930 . S
H190 C174 0.930 . S
H191 C175 0.931 . S
H192 C179 0.928 . S
H193 C178 0.929 . S
H194 C176 0.932 . S
C195 C196 1.386 1_554 S
C195 C197 1.397 . S
C195 H219 0.931 1_554 S
C196 C195 1.386 1_556 S
C196 C200 1.397 1_556 S
C197 C195 1.397 . S
C197 C198 1.384 . S
C197 H220 0.930 . S
C198 C197 1.384 . S
C198 C199 1.377 . S
C198 C201 1.481 . S
C199 C198 1.377 . S
C199 C200 1.389 . S
C199 H221 0.929 . S
C200 C196 1.397 1_554 S
C200 C199 1.389 . S
C200 H222 0.931 . S
C201 C198 1.481 . S
C201 C202 1.387 . S
C201 C206 1.390 . S
C202 C201 1.387 . S
C202 C203 1.401 . S
C202 H223 0.930 . S
C203 C202 1.401 . S
C203 C204 1.376 . S
C203 C212 1.511 . S
C204 C203 1.376 . S
C204 C205 1.392 . S
C204 H225 0.931 . S
C205 C204 1.392 . S
C205 C206 1.361 . S
C205 C207 1.500 . S
C206 C201 1.390 . S
C206 C205 1.361 . S
C206 H224 0.931 . S
C207 C205 1.500 . S
C207 C208 1.371 . S
C207 C209 1.365 . S
C208 C207 1.371 . S
C208 C218 1.386 . S
C208 H226 0.931 . S
C209 C207 1.365 . S
C209 C210 1.409 . S
C209 H227 0.929 . S
C210 C209 1.409 . S
C210 C211 1.380 . S
C210 H228 0.930 . S
C211 C210 1.380 . S
C211 C218 1.357 . S
C212 C203 1.511 . S
C212 C213 1.341 . S
C212 C214 1.371 . S
C213 C212 1.341 . S
C213 C217 1.394 . S
C213 H229 0.930 . S
C214 C212 1.371 . S
C214 C215 1.392 . S
C214 H230 0.931 . S
C215 C214 1.392 . S
C215 C216 1.331 . S
C215 H233 0.932 . S
C216 C215 1.331 . S
C216 C217 1.336 . S
C217 C213 1.394 . S
C217 C216 1.336 . S
C217 H232 0.929 . S
C218 C208 1.386 . S
C218 C211 1.357 . S
C218 H231 0.928 . S
H219 C195 0.931 1_556 S
H220 C197 0.930 . S
H221 C199 0.929 . S
H222 C200 0.931 . S
H223 C202 0.930 . S
H224 C206 0.931 . S
H225 C204 0.931 . S
H226 C208 0.931 . S
H227 C209 0.929 . S
H228 C210 0.930 . S
H229 C213 0.930 . S
H230 C214 0.931 . S
H231 C218 0.928 . S
H232 C217 0.929 . S
H233 C215 0.932 . S
C234 C235 1.386 . S
C234 C236 1.397 . S
C234 H258 0.931 . S
C235 C234 1.386 . S
C235 C239 1.397 . S
C236 C234 1.397 . S
C236 C237 1.384 . S
C236 H259 0.930 . S
C237 C236 1.384 . S
C237 C238 1.377 . S
C237 C240 1.481 . S
C238 C237 1.377 . S
C238 C239 1.389 . S
C238 H260 0.929 . S
C239 C235 1.397 . S
C239 C238 1.389 . S
C239 H261 0.931 1_565 S
C240 C237 1.481 . S
C240 C241 1.387 . S
C240 C245 1.390 . S
C241 C240 1.387 . S
C241 C242 1.401 . S
C241 H262 0.930 . S
C242 C241 1.401 . S
C242 C243 1.376 . S
C242 C251 1.511 . S
C243 C242 1.376 . S
C243 C244 1.392 . S
C243 H264 0.931 . S
C244 C243 1.392 . S
C244 C245 1.361 . S
C244 C246 1.500 . S
C245 C240 1.390 . S
C245 C244 1.361 . S
C245 H263 0.931 . S
C246 C244 1.500 . S
C246 C247 1.371 . S
C246 C248 1.365 . S
C247 C246 1.371 . S
C247 C257 1.386 . S
C247 H265 0.931 . S
C248 C246 1.365 . S
C248 C249 1.409 . S
C248 H266 0.929 . S
C249 C248 1.409 . S
C249 C250 1.380 . S
C249 H267 0.930 . S
C250 C249 1.380 . S
C250 C257 1.357 . S
C251 C242 1.511 . S
C251 C252 1.341 . S
C251 C253 1.371 . S
C252 C251 1.341 . S
C252 C256 1.394 . S
C252 H268 0.930 . S
C253 C251 1.371 . S
C253 C254 1.392 . S
C253 H269 0.931 . S
C254 C253 1.392 . S
C254 C255 1.331 . S
C254 H272 0.932 . S
C255 C254 1.331 . S
C255 C256 1.336 . S
C256 C252 1.394 . S
C256 C255 1.336 . S
C256 H271 0.929 . S
C257 C247 1.386 . S
C257 C250 1.357 . S
C257 H270 0.928 . S
H258 C234 0.931 . S
H259 C236 0.930 . S
H260 C238 0.929 . S
H261 C239 0.931 1_545 S
H262 C241 0.930 . S
H263 C245 0.931 . S
H264 C243 0.931 . S
H265 C247 0.931 . S
H266 C248 0.929 . S
H267 C249 0.930 . S
H268 C252 0.930 . S
H269 C253 0.931 . S
H270 C257 0.928 . S
H271 C256 0.929 . S
H272 C254 0.932 . S
C273 C274 1.386 1_556 S
C273 C275 1.397 . S
C273 H297 0.931 1_556 S
C274 C273 1.386 1_554 S
C274 C278 1.397 1_554 S
C275 C273 1.397 . S
C275 C276 1.384 . S
C275 H298 0.930 . S
C276 C275 1.384 . S
C276 C277 1.377 . S
C276 C279 1.481 . S
C277 C276 1.377 . S
C277 C278 1.389 . S
C277 H299 0.929 . S
C278 C274 1.397 1_556 S
C278 C277 1.389 . S
C278 H300 0.931 . S
C279 C276 1.481 . S
C279 C280 1.387 . S
C279 C284 1.390 . S
C280 C279 1.387 . S
C280 C281 1.401 . S
C280 H301 0.930 . S
C281 C280 1.401 . S
C281 C282 1.376 . S
C281 C290 1.511 . S
C282 C281 1.376 . S
C282 C283 1.392 . S
C282 H303 0.931 . S
C283 C282 1.392 . S
C283 C284 1.361 . S
C283 C285 1.500 . S
C284 C279 1.390 . S
C284 C283 1.361 . S
C284 H302 0.931 . S
C285 C283 1.500 . S
C285 C286 1.371 . S
C285 C287 1.365 . S
C286 C285 1.371 . S
C286 C296 1.386 . S
C286 H304 0.931 . S
C287 C285 1.365 . S
C287 C288 1.409 . S
C287 H305 0.929 . S
C288 C287 1.409 . S
C288 C289 1.380 . S
C288 H306 0.930 . S
C289 C288 1.380 . S
C289 C296 1.357 . S
C290 C281 1.511 . S
C290 C291 1.341 . S
C290 C292 1.371 . S
C291 C290 1.341 . S
C291 C295 1.394 . S
C291 H307 0.930 . S
C292 C290 1.371 . S
C292 C293 1.392 . S
C292 H308 0.931 . S
C293 C292 1.392 . S
C293 C294 1.331 . S
C293 H311 0.932 . S
C294 C293 1.331 . S
C294 C295 1.336 . S
C295 C291 1.394 . S
C295 C294 1.336 . S
C295 H310 0.929 . S
C296 C286 1.386 . S
C296 C289 1.357 . S
C296 H309 0.928 . S
H297 C273 0.931 1_554 S
H298 C275 0.930 . S
H299 C277 0.929 . S
H300 C278 0.931 . S
H301 C280 0.930 . S
H302 C284 0.931 . S
H303 C282 0.931 . S
H304 C286 0.931 . S
H305 C287 0.929 . S
H306 C288 0.930 . S
H307 C291 0.930 . S
H308 C292 0.931 . S
H309 C296 0.928 . S
H310 C295 0.929 . S
H311 C293 0.932 . S
Eu312 N341 2.600 . S
Eu312 N347 2.562 . S
Eu312 O356 2.462 . S
Eu312 O357 2.373 . S
Eu312 O359 2.432 . S
Eu312 O360 2.291 . S
Eu312 O364 2.335 . S
Eu312 O367 2.372 . S
Eu312 C376 2.787 . S
C313 N314 1.365 . S
C313 C316 1.405 . S
C313 C320 1.448 . S
N314 C313 1.365 . S
N314 C317 1.319 . S
N314 Eu323 2.600 . S
C315 C317 1.397 . S
C315 C318 1.367 . S
C315 H335 0.931 . S
C316 C313 1.405 . S
C316 C318 1.403 . S
C316 C322 1.439 . S
C317 N314 1.319 . S
C317 C315 1.397 . S
C317 H328 0.930 . S
C318 C315 1.367 . S
C318 C316 1.403 . S
C318 H339 0.929 . S
C319 C320 1.430 . S
C319 C321 1.387 . S
C319 C325 1.404 . S
C320 C313 1.448 . S
C320 C319 1.430 . S
C320 N324 1.351 . S
C321 C319 1.387 . S
C321 C322 1.374 . S
C321 H336 0.931 . S
C322 C316 1.439 . S
C322 C321 1.374 . S
C322 H337 0.931 . S
Eu323 N314 2.600 . S
Eu323 N324 2.562 . S
Eu323 O358 2.335 1_655 S
Eu323 O361 2.372 . S
Eu323 O362 2.462 . S
Eu323 O363 2.373 . S
Eu323 O365 2.432 . S
Eu323 O366 2.291 1_655 S
Eu323 C387 2.787 . S
N324 C320 1.351 . S
N324 Eu323 2.562 . S
N324 C326 1.325 . S
C325 C319 1.404 . S
C325 C327 1.366 . S
C325 H333 0.930 . S
C326 N324 1.325 . S
C326 C327 1.416 . S
C326 H332 0.929 . S
C327 C325 1.366 . S
C327 C326 1.416 . S
C327 H329 0.930 . S
H328 C317 0.930 . S
H329 C327 0.930 . S
H330 C345 0.930 . S
H331 C352 0.930 . S
H332 C326 0.929 . S
H333 C325 0.930 . S
H334 C348 0.929 . S
H335 C315 0.931 . S
H336 C321 0.931 . S
H337 C322 0.931 . S
H338 C343 0.931 . S
H339 C318 0.929 . S
H340 C351 0.930 . S
N341 Eu312 2.600 . S
N341 C342 1.365 . S
N341 C345 1.319 . S
C342 N341 1.365 . S
C342 C344 1.405 . S
C342 C350 1.448 . S
C343 H338 0.931 . S
C343 C345 1.397 . S
C343 C346 1.367 . S
C344 C342 1.405 . S
C344 C346 1.403 . S
C344 C377 1.439 . S
C345 H330 0.930 . S
C345 N341 1.319 . S
C345 C343 1.397 . S
C346 C343 1.367 . S
C346 C344 1.403 . S
C346 H353 0.929 . S
N347 Eu312 2.562 . S
N347 C348 1.325 . S
N347 C350 1.351 . S
C348 H334 0.929 . S
C348 N347 1.325 . S
C348 C352 1.416 . S
C349 C350 1.430 . S
C349 C351 1.404 . S
C349 C378 1.387 . S
C350 C342 1.448 . S
C350 N347 1.351 . S
C350 C349 1.430 . S
C351 H340 0.930 . S
C351 C349 1.404 . S
C351 C352 1.366 . S
C352 H331 0.930 . S
C352 C348 1.416 . S
C352 C351 1.366 . S
H353 C346 0.929 . S
H354 C377 0.931 . S
H355 C378 0.931 . S
O356 Eu312 2.462 . S
O356 C376 1.252 . S
O357 Eu312 2.373 . S
O357 C368 1.249 . S
O358 Eu323 2.335 1_455 S
O358 C368 1.264 . S
O359 Eu312 2.432 . S
O359 C376 1.268 . S
O360 Eu312 2.291 . S
O360 C375 1.255 1_455 S
O361 Eu323 2.372 . S
O361 C375 1.257 . S
O362 Eu323 2.462 . S
O362 C387 1.252 . S
O363 Eu323 2.373 . S
O363 C379 1.249 . S
O364 Eu312 2.335 . S
O364 C379 1.264 1_455 S
O365 Eu323 2.432 . S
O365 C387 1.268 . S
O366 Eu323 2.291 1_455 S
O366 C386 1.255 . S
O367 Eu312 2.372 . S
O367 C386 1.257 . S
C368 O357 1.249 . S
C368 O358 1.264 . S
C369 C372 1.382 . S
C369 C374 1.390 . S
C369 C376 1.506 . S
C370 C371 1.398 . S
C370 C374 1.392 . S
C371 C370 1.398 . S
C371 C373 1.372 . S
C371 H388 0.931 . S
C372 C369 1.382 . S
C372 C373 1.390 . S
C372 H389 0.931 . S
C373 C371 1.372 . S
C373 C372 1.390 . S
C373 H390 0.929 . S
C374 C369 1.390 . S
C374 C370 1.392 . S
C374 H391 0.930 . S
C375 O360 1.255 1_655 S
C375 O361 1.257 . S
C376 Eu312 2.787 . S
C376 O356 1.252 . S
C376 O359 1.268 . S
C376 C369 1.506 . S
C377 C344 1.439 . S
C377 H354 0.931 . S
C377 C378 1.374 . S
C378 C349 1.387 . S
C378 H355 0.931 . S
C378 C377 1.374 . S
C379 O363 1.249 . S
C379 O364 1.264 1_655 S
C380 C383 1.382 . S
C380 C384 1.390 . S
C380 C387 1.506 . S
C381 C382 1.398 . S
C381 C384 1.392 . S
C382 C381 1.398 . S
C382 C385 1.372 . S
C382 H392 0.931 . S
C383 C380 1.382 . S
C383 C385 1.390 . S
C383 H393 0.931 . S
C384 C380 1.390 . S
C384 C381 1.392 . S
C384 H394 0.930 . S
C385 C382 1.372 . S
C385 C383 1.390 . S
C385 H395 0.929 . S
C386 O366 1.255 . S
C386 O367 1.257 . S
C387 Eu323 2.787 . S
C387 O362 1.252 . S
C387 O365 1.268 . S
C387 C380 1.506 . S
H388 C371 0.931 . S
H389 C372 0.931 . S
H390 C373 0.929 . S
H391 C374 0.930 . S
H392 C382 0.931 . S
H393 C383 0.931 . S
H394 C384 0.930 . S
H395 C385 0.929 . S
Eu396 N425 2.600 . S
Eu396 N431 2.562 . S
Eu396 O440 2.462 . S
Eu396 O441 2.373 . S
Eu396 O443 2.432 . S
Eu396 O444 2.291 . S
Eu396 O448 2.335 . S
Eu396 O451 2.372 . S
Eu396 C460 2.787 . S
C397 N398 1.365 . S
C397 C400 1.405 . S
C397 C404 1.448 . S
N398 C397 1.365 . S
N398 C401 1.319 . S
N398 Eu407 2.600 . S
C399 C401 1.397 . S
C399 C402 1.367 . S
C399 H419 0.931 . S
C400 C397 1.405 . S
C400 C402 1.403 . S
C400 C406 1.439 . S
C401 N398 1.319 . S
C401 C399 1.397 . S
C401 H412 0.930 . S
C402 C399 1.367 . S
C402 C400 1.403 . S
C402 H423 0.929 . S
C403 C404 1.430 . S
C403 C405 1.387 . S
C403 C409 1.404 . S
C404 C397 1.448 . S
C404 C403 1.430 . S
C404 N408 1.351 . S
C405 C403 1.387 . S
C405 C406 1.374 . S
C405 H420 0.931 . S
C406 C400 1.439 . S
C406 C405 1.374 . S
C406 H421 0.931 . S
Eu407 N398 2.600 . S
Eu407 N408 2.562 . S
Eu407 O442 2.335 . S
Eu407 O445 2.372 . S
Eu407 O446 2.462 . S
Eu407 O447 2.373 . S
Eu407 O449 2.432 . S
Eu407 O450 2.291 . S
Eu407 C471 2.787 . S
N408 C404 1.351 . S
N408 Eu407 2.562 . S
N408 C410 1.325 . S
C409 C403 1.404 . S
C409 C411 1.366 . S
C409 H417 0.930 . S
C410 N408 1.325 . S
C410 C411 1.416 . S
C410 H416 0.929 . S
C411 C409 1.366 . S
C411 C410 1.416 . S
C411 H413 0.930 . S
H412 C401 0.930 . S
H413 C411 0.930 . S
H414 C429 0.930 . S
H415 C436 0.930 . S
H416 C410 0.929 . S
H417 C409 0.930 . S
H418 C432 0.929 . S
H419 C399 0.931 . S
H420 C405 0.931 . S
H421 C406 0.931 . S
H422 C427 0.931 . S
H423 C402 0.929 . S
H424 C435 0.930 . S
N425 Eu396 2.600 . S
N425 C426 1.365 . S
N425 C429 1.319 . S
C426 N425 1.365 . S
C426 C428 1.405 . S
C426 C434 1.448 . S
C427 H422 0.931 . S
C427 C429 1.397 . S
C427 C430 1.367 . S
C428 C426 1.405 . S
C428 C430 1.403 . S
C428 C461 1.439 . S
C429 H414 0.930 . S
C429 N425 1.319 . S
C429 C427 1.397 . S
C430 C427 1.367 . S
C430 C428 1.403 . S
C430 H437 0.929 . S
N431 Eu396 2.562 . S
N431 C432 1.325 . S
N431 C434 1.351 . S
C432 H418 0.929 . S
C432 N431 1.325 . S
C432 C436 1.416 . S
C433 C434 1.430 . S
C433 C435 1.404 . S
C433 C462 1.387 . S
C434 C426 1.448 . S
C434 N431 1.351 . S
C434 C433 1.430 . S
C435 H424 0.930 . S
C435 C433 1.404 . S
C435 C436 1.366 . S
C436 H415 0.930 . S
C436 C432 1.416 . S
C436 C435 1.366 . S
H437 C430 0.929 . S
H438 C461 0.931 . S
H439 C462 0.931 . S
O440 Eu396 2.462 . S
O440 C460 1.252 . S
O441 Eu396 2.373 . S
O441 C452 1.249 . S
O442 Eu407 2.335 . S
O442 C452 1.264 . S
O443 Eu396 2.432 . S
O443 C460 1.268 . S
O444 Eu396 2.291 . S
O444 C459 1.255 . S
O445 Eu407 2.372 . S
O445 C459 1.257 . S
O446 Eu407 2.462 . S
O446 C471 1.252 . S
O447 Eu407 2.373 . S
O447 C463 1.249 . S
O448 Eu396 2.335 . S
O448 C463 1.264 . S
O449 Eu407 2.432 . S
O449 C471 1.268 . S
O450 Eu407 2.291 . S
O450 C470 1.255 . S
O451 Eu396 2.372 . S
O451 C470 1.257 . S
C452 O441 1.249 . S
C452 O442 1.264 . S
C453 C456 1.382 . S
C453 C458 1.390 . S
C453 C460 1.506 . S
C454 C455 1.398 . S
C454 C458 1.392 . S
C455 C454 1.398 . S
C455 C457 1.372 . S
C455 H472 0.931 . S
C456 C453 1.382 . S
C456 C457 1.390 . S
C456 H473 0.931 . S
C457 C455 1.372 . S
C457 C456 1.390 . S
C457 H474 0.929 . S
C458 C453 1.390 . S
C458 C454 1.392 . S
C458 H475 0.930 . S
C459 O444 1.255 . S
C459 O445 1.257 . S
C460 Eu396 2.787 . S
C460 O440 1.252 . S
C460 O443 1.268 . S
C460 C453 1.506 . S
C461 C428 1.439 . S
C461 H438 0.931 . S
C461 C462 1.374 . S
C462 C433 1.387 . S
C462 H439 0.931 . S
C462 C461 1.374 . S
C463 O447 1.249 . S
C463 O448 1.264 . S
C464 C467 1.382 . S
C464 C468 1.390 . S
C464 C471 1.506 . S
C465 C466 1.398 . S
C465 C468 1.392 . S
C466 C465 1.398 . S
C466 C469 1.372 . S
C466 H476 0.931 . S
C467 C464 1.382 . S
C467 C469 1.390 . S
C467 H477 0.931 . S
C468 C464 1.390 . S
C468 C465 1.392 . S
C468 H478 0.930 . S
C469 C466 1.372 . S
C469 C467 1.390 . S
C469 H479 0.929 . S
C470 O450 1.255 . S
C470 O451 1.257 . S
C471 Eu407 2.787 . S
C471 O446 1.252 . S
C471 O449 1.268 . S
C471 C464 1.506 . S
H472 C455 0.931 . S
H473 C456 0.931 . S
H474 C457 0.929 . S
H475 C458 0.930 . S
H476 C466 0.931 . S
H477 C467 0.931 . S
H478 C468 0.930 . S
H479 C469 0.929 . S
Eu480 N509 2.600 . S
Eu480 N515 2.562 . S
Eu480 O524 2.462 . S
Eu480 O525 2.373 . S
Eu480 O527 2.432 . S
Eu480 O528 2.291 . S
Eu480 O532 2.335 . S
Eu480 O535 2.372 . S
Eu480 C544 2.787 . S
C481 N482 1.365 . S
C481 C484 1.405 . S
C481 C488 1.448 . S
N482 C481 1.365 . S
N482 C485 1.319 . S
N482 Eu491 2.600 . S
C483 C485 1.397 . S
C483 C486 1.367 . S
C483 H503 0.931 . S
C484 C481 1.405 . S
C484 C486 1.403 . S
C484 C490 1.439 . S
C485 N482 1.319 . S
C485 C483 1.397 . S
C485 H496 0.930 . S
C486 C483 1.367 . S
C486 C484 1.403 . S
C486 H507 0.929 . S
C487 C488 1.430 . S
C487 C489 1.387 . S
C487 C493 1.404 . S
C488 C481 1.448 . S
C488 C487 1.430 . S
C488 N492 1.351 . S
C489 C487 1.387 . S
C489 C490 1.374 . S
C489 H504 0.931 . S
C490 C484 1.439 . S
C490 C489 1.374 . S
C490 H505 0.931 . S
Eu491 N482 2.600 . S
Eu491 N492 2.562 . S
Eu491 O526 2.335 1_655 S
Eu491 O529 2.372 . S
Eu491 O530 2.462 . S
Eu491 O531 2.373 . S
Eu491 O533 2.432 . S
Eu491 O534 2.291 1_655 S
Eu491 C555 2.787 . S
N492 C488 1.351 . S
N492 Eu491 2.562 . S
N492 C494 1.325 . S
C493 C487 1.404 . S
C493 C495 1.366 . S
C493 H501 0.930 . S
C494 N492 1.325 . S
C494 C495 1.416 . S
C494 H500 0.929 . S
C495 C493 1.366 . S
C495 C494 1.416 . S
C495 H497 0.930 . S
H496 C485 0.930 . S
H497 C495 0.930 . S
H498 C513 0.930 . S
H499 C520 0.930 . S
H500 C494 0.929 . S
H501 C493 0.930 . S
H502 C516 0.929 . S
H503 C483 0.931 . S
H504 C489 0.931 . S
H505 C490 0.931 . S
H506 C511 0.931 . S
H507 C486 0.929 . S
H508 C519 0.930 . S
N509 Eu480 2.600 . S
N509 C510 1.365 . S
N509 C513 1.319 . S
C510 N509 1.365 . S
C510 C512 1.405 . S
C510 C518 1.448 . S
C511 H506 0.931 . S
C511 C513 1.397 . S
C511 C514 1.367 . S
C512 C510 1.405 . S
C512 C514 1.403 . S
C512 C545 1.439 . S
C513 H498 0.930 . S
C513 N509 1.319 . S
C513 C511 1.397 . S
C514 C511 1.367 . S
C514 C512 1.403 . S
C514 H521 0.929 . S
N515 Eu480 2.562 . S
N515 C516 1.325 . S
N515 C518 1.351 . S
C516 H502 0.929 . S
C516 N515 1.325 . S
C516 C520 1.416 . S
C517 C518 1.430 . S
C517 C519 1.404 . S
C517 C546 1.387 . S
C518 C510 1.448 . S
C518 N515 1.351 . S
C518 C517 1.430 . S
C519 H508 0.930 . S
C519 C517 1.404 . S
C519 C520 1.366 . S
C520 H499 0.930 . S
C520 C516 1.416 . S
C520 C519 1.366 . S
H521 C514 0.929 . S
H522 C545 0.931 . S
H523 C546 0.931 . S
O524 Eu480 2.462 . S
O524 C544 1.252 . S
O525 Eu480 2.373 . S
O525 C536 1.249 . S
O526 Eu491 2.335 1_455 S
O526 C536 1.264 . S
O527 Eu480 2.432 . S
O527 C544 1.268 . S
O528 Eu480 2.291 . S
O528 C543 1.255 1_455 S
O529 Eu491 2.372 . S
O529 C543 1.257 . S
O530 Eu491 2.462 . S
O530 C555 1.252 . S
O531 Eu491 2.373 . S
O531 C547 1.249 . S
O532 Eu480 2.335 . S
O532 C547 1.264 1_455 S
O533 Eu491 2.432 . S
O533 C555 1.268 . S
O534 Eu491 2.291 1_455 S
O534 C554 1.255 . S
O535 Eu480 2.372 . S
O535 C554 1.257 . S
C536 O525 1.249 . S
C536 O526 1.264 . S
C537 C540 1.382 . S
C537 C542 1.390 . S
C537 C544 1.506 . S
C538 C539 1.398 . S
C538 C542 1.392 . S
C539 C538 1.398 . S
C539 C541 1.372 . S
C539 H556 0.931 . S
C540 C537 1.382 . S
C540 C541 1.390 . S
C540 H557 0.931 . S
C541 C539 1.372 . S
C541 C540 1.390 . S
C541 H558 0.929 . S
C542 C537 1.390 . S
C542 C538 1.392 . S
C542 H559 0.930 . S
C543 O528 1.255 1_655 S
C543 O529 1.257 . S
C544 Eu480 2.787 . S
C544 O524 1.252 . S
C544 O527 1.268 . S
C544 C537 1.506 . S
C545 C512 1.439 . S
C545 H522 0.931 . S
C545 C546 1.374 . S
C546 C517 1.387 . S
C546 H523 0.931 . S
C546 C545 1.374 . S
C547 O531 1.249 . S
C547 O532 1.264 1_655 S
C548 C551 1.382 . S
C548 C552 1.390 . S
C548 C555 1.506 . S
C549 C550 1.398 . S
C549 C552 1.392 . S
C550 C549 1.398 . S
C550 C553 1.372 . S
C550 H560 0.931 . S
C551 C548 1.382 . S
C551 C553 1.390 . S
C551 H561 0.931 . S
C552 C548 1.390 . S
C552 C549 1.392 . S
C552 H562 0.930 . S
C553 C550 1.372 . S
C553 C551 1.390 . S
C553 H563 0.929 . S
C554 O534 1.255 . S
C554 O535 1.257 . S
C555 Eu491 2.787 . S
C555 O530 1.252 . S
C555 O533 1.268 . S
C555 C548 1.506 . S
H556 C539 0.931 . S
H557 C540 0.931 . S
H558 C541 0.929 . S
H559 C542 0.930 . S
H560 C550 0.931 . S
H561 C551 0.931 . S
H562 C552 0.930 . S
H563 C553 0.929 . S
Eu564 N593 2.600 . S
Eu564 N599 2.562 . S
Eu564 O608 2.462 . S
Eu564 O609 2.373 . S
Eu564 O611 2.432 . S
Eu564 O612 2.291 . S
Eu564 O616 2.335 . S
Eu564 O619 2.372 . S
Eu564 C628 2.787 . S
C565 N566 1.365 . S
C565 C568 1.405 . S
C565 C572 1.448 . S
N566 C565 1.365 . S
N566 C569 1.319 . S
N566 Eu575 2.600 . S
C567 C569 1.397 . S
C567 C570 1.367 . S
C567 H587 0.931 . S
C568 C565 1.405 . S
C568 C570 1.403 . S
C568 C574 1.439 . S
C569 N566 1.319 . S
C569 C567 1.397 . S
C569 H580 0.930 . S
C570 C567 1.367 . S
C570 C568 1.403 . S
C570 H591 0.929 . S
C571 C572 1.430 . S
C571 C573 1.387 . S
C571 C577 1.404 . S
C572 C565 1.448 . S
C572 C571 1.430 . S
C572 N576 1.351 . S
C573 C571 1.387 . S
C573 C574 1.374 . S
C573 H588 0.931 . S
C574 C568 1.439 . S
C574 C573 1.374 . S
C574 H589 0.931 . S
Eu575 N566 2.600 . S
Eu575 N576 2.562 . S
Eu575 O610 2.335 . S
Eu575 O613 2.372 . S
Eu575 O614 2.462 . S
Eu575 O615 2.373 . S
Eu575 O617 2.432 . S
Eu575 O618 2.291 . S
Eu575 C639 2.787 . S
N576 C572 1.351 . S
N576 Eu575 2.562 . S
N576 C578 1.325 . S
C577 C571 1.404 . S
C577 C579 1.366 . S
C577 H585 0.930 . S
C578 N576 1.325 . S
C578 C579 1.416 . S
C578 H584 0.929 . S
C579 C577 1.366 . S
C579 C578 1.416 . S
C579 H581 0.930 . S
H580 C569 0.930 . S
H581 C579 0.930 . S
H582 C597 0.930 . S
H583 C604 0.930 . S
H584 C578 0.929 . S
H585 C577 0.930 . S
H586 C600 0.929 . S
H587 C567 0.931 . S
H588 C573 0.931 . S
H589 C574 0.931 . S
H590 C595 0.931 . S
H591 C570 0.929 . S
H592 C603 0.930 . S
N593 Eu564 2.600 . S
N593 C594 1.365 . S
N593 C597 1.319 . S
C594 N593 1.365 . S
C594 C596 1.405 . S
C594 C602 1.448 . S
C595 H590 0.931 . S
C595 C597 1.397 . S
C595 C598 1.367 . S
C596 C594 1.405 . S
C596 C598 1.403 . S
C596 C629 1.439 . S
C597 H582 0.930 . S
C597 N593 1.319 . S
C597 C595 1.397 . S
C598 C595 1.367 . S
C598 C596 1.403 . S
C598 H605 0.929 . S
N599 Eu564 2.562 . S
N599 C600 1.325 . S
N599 C602 1.351 . S
C600 H586 0.929 . S
C600 N599 1.325 . S
C600 C604 1.416 . S
C601 C602 1.430 . S
C601 C603 1.404 . S
C601 C630 1.387 . S
C602 C594 1.448 . S
C602 N599 1.351 . S
C602 C601 1.430 . S
C603 H592 0.930 . S
C603 C601 1.404 . S
C603 C604 1.366 . S
C604 H583 0.930 . S
C604 C600 1.416 . S
C604 C603 1.366 . S
H605 C598 0.929 . S
H606 C629 0.931 . S
H607 C630 0.931 . S
O608 Eu564 2.462 . S
O608 C628 1.252 . S
O609 Eu564 2.373 . S
O609 C620 1.249 . S
O610 Eu575 2.335 . S
O610 C620 1.264 . S
O611 Eu564 2.432 . S
O611 C628 1.268 . S
O612 Eu564 2.291 . S
O612 C627 1.255 . S
O613 Eu575 2.372 . S
O613 C627 1.257 . S
O614 Eu575 2.462 . S
O614 C639 1.252 . S
O615 Eu575 2.373 . S
O615 C631 1.249 . S
O616 Eu564 2.335 . S
O616 C631 1.264 . S
O617 Eu575 2.432 . S
O617 C639 1.268 . S
O618 Eu575 2.291 . S
O618 C638 1.255 . S
O619 Eu564 2.372 . S
O619 C638 1.257 . S
C620 O609 1.249 . S
C620 O610 1.264 . S
C621 C624 1.382 . S
C621 C626 1.390 . S
C621 C628 1.506 . S
C622 C623 1.398 . S
C622 C626 1.392 . S
C623 C622 1.398 . S
C623 C625 1.372 . S
C623 H640 0.931 . S
C624 C621 1.382 . S
C624 C625 1.390 . S
C624 H641 0.931 . S
C625 C623 1.372 . S
C625 C624 1.390 . S
C625 H642 0.929 . S
C626 C621 1.390 . S
C626 C622 1.392 . S
C626 H643 0.930 . S
C627 O612 1.255 . S
C627 O613 1.257 . S
C628 Eu564 2.787 . S
C628 O608 1.252 . S
C628 O611 1.268 . S
C628 C621 1.506 . S
C629 C596 1.439 . S
C629 H606 0.931 . S
C629 C630 1.374 . S
C630 C601 1.387 . S
C630 H607 0.931 . S
C630 C629 1.374 . S
C631 O615 1.249 . S
C631 O616 1.264 . S
C632 C635 1.382 . S
C632 C636 1.390 . S
C632 C639 1.506 . S
C633 C634 1.398 . S
C633 C636 1.392 . S
C634 C633 1.398 . S
C634 C637 1.372 . S
C634 H644 0.931 . S
C635 C632 1.382 . S
C635 C637 1.390 . S
C635 H645 0.931 . S
C636 C632 1.390 . S
C636 C633 1.392 . S
C636 H646 0.930 . S
C637 C634 1.372 . S
C637 C635 1.390 . S
C637 H647 0.929 . S
C638 O618 1.255 . S
C638 O619 1.257 . S
C639 Eu575 2.787 . S
C639 O614 1.252 . S
C639 O617 1.268 . S
C639 C632 1.506 . S
H640 C623 0.931 . S
H641 C624 0.931 . S
H642 C625 0.929 . S
H643 C626 0.930 . S
H644 C634 0.931 . S
H645 C635 0.931 . S
H646 C636 0.930 . S
H647 C637 0.929 . S
C648 C649 1.363 . S
C648 C654 1.379 . S
C648 N656 1.356 . S
C649 C648 1.363 . S
C649 C655 1.363 . S
C650 C651 1.363 . S
C650 C655 1.379 . S
C650 N657 1.356 . S
C651 C650 1.363 . S
C651 C654 1.363 . S
N652 C654 1.356 . S
N652 H664 0.984 . S
N652 H665 0.985 . S
N653 C655 1.356 . S
N653 H658 0.984 . S
N653 H659 0.985 . S
C654 C648 1.379 . S
C654 C651 1.363 . S
C654 N652 1.356 . S
C655 C649 1.363 . S
C655 C650 1.379 . S
C655 N653 1.356 . S
N656 C648 1.356 . S
N656 H662 0.984 . S
N656 H663 0.984 1_545 S
N657 C650 1.356 . S
N657 H660 0.984 . S
N657 H661 0.985 1_455 S
H658 N653 0.984 . S
H659 N653 0.985 . S
H660 N657 0.984 . S
H661 N657 0.985 1_655 S
H662 N656 0.984 . S
H663 N656 0.984 1_565 S
H664 N652 0.984 . S
H665 N652 0.985 . S
C666 C667 1.363 . S
C666 C672 1.379 . S
C666 N674 1.356 . S
C667 C666 1.363 . S
C667 C673 1.363 . S
C668 C669 1.363 . S
C668 C673 1.379 . S
C668 N675 1.356 . S
C669 C668 1.363 . S
C669 C672 1.363 . S
N670 C672 1.356 . S
N670 H682 0.984 . S
N670 H683 0.985 . S
N671 C673 1.356 . S
N671 H676 0.984 . S
N671 H677 0.985 . S
C672 C666 1.379 . S
C672 C669 1.363 . S
C672 N670 1.356 . S
C673 C667 1.363 . S
C673 C668 1.379 . S
C673 N671 1.356 . S
N674 C666 1.356 . S
N674 H680 0.984 . S
N674 H681 0.984 . S
N675 C668 1.356 . S
N675 H678 0.984 . S
N675 H679 0.985 . S
H676 N671 0.984 . S
H677 N671 0.985 . S
H678 N675 0.984 . S
H679 N675 0.985 . S
H680 N674 0.984 . S
H681 N674 0.984 . S
H682 N670 0.984 . S
H683 N670 0.985 . S
C684 C685 1.363 . S
C684 C690 1.379 . S
C684 N692 1.356 . S
C685 C684 1.363 . S
C685 C691 1.363 . S
C686 C687 1.363 . S
C686 C691 1.379 . S
C686 N693 1.356 . S
C687 C686 1.363 . S
C687 C690 1.363 . S
N688 C690 1.356 . S
N688 H700 0.984 . S
N688 H701 0.985 . S
N689 C691 1.356 . S
N689 H694 0.984 . S
N689 H695 0.985 . S
C690 C684 1.379 . S
C690 C687 1.363 . S
C690 N688 1.356 . S
C691 C685 1.363 . S
C691 C686 1.379 . S
C691 N689 1.356 . S
N692 C684 1.356 . S
N692 H698 0.984 . S
N692 H699 0.984 . S
N693 C686 1.356 . S
N693 H696 0.984 . S
N693 H697 0.985 . S
H694 N689 0.984 . S
H695 N689 0.985 . S
H696 N693 0.984 . S
H697 N693 0.985 . S
H698 N692 0.984 . S
H699 N692 0.984 . S
H700 N688 0.984 . S
H701 N688 0.985 . S
C702 C703 1.363 . S
C702 C708 1.379 . S
C702 N710 1.356 . S
C703 C702 1.363 . S
C703 C709 1.363 . S
C704 C705 1.363 . S
C704 C709 1.379 . S
C704 N711 1.356 . S
C705 C704 1.363 . S
C705 C708 1.363 . S
N706 C708 1.356 1_455 S
N706 H718 0.984 . S
N706 H719 0.985 . S
N707 C709 1.356 . S
N707 H712 0.984 . S
N707 H713 0.985 . S
C708 C702 1.379 . S
C708 C705 1.363 . S
C708 N706 1.356 1_655 S
C709 C703 1.363 . S
C709 C704 1.379 . S
C709 N707 1.356 . S
N710 C702 1.356 . S
N710 H716 0.984 . S
N710 H717 0.977 1_545 S
N711 C704 1.356 . S
N711 H714 0.984 . S
N711 H715 0.985 . S
H712 N707 0.984 . S
H713 N707 0.985 . S
H714 N711 0.984 . S
H715 N711 0.985 . S
H716 N710 0.984 . S
H717 N710 0.977 1_565 S
H718 N706 0.984 . S
H719 N706 0.985 . S
C720 C721 1.363 . S
C720 C726 1.379 . S
C720 N728 1.356 . S
C721 C720 1.363 . S
C721 C727 1.363 . S
C722 C723 1.363 . S
C722 C727 1.379 . S
C722 N729 1.356 . S
C723 C722 1.363 . S
C723 C726 1.363 . S
N724 C726 1.356 . S
N724 H736 0.984 . S
N724 H737 0.985 . S
N725 C727 1.356 1_545 S
N725 H730 0.984 . S
N725 H731 0.985 . S
C726 C720 1.379 . S
C726 C723 1.363 . S
C726 N724 1.356 . S
C727 C721 1.363 . S
C727 C722 1.379 . S
C727 N725 1.356 1_565 S
N728 C720 1.356 . S
N728 H734 0.984 . S
N728 H735 0.984 . S
N729 C722 1.356 . S
N729 H732 0.984 . S
N729 H733 0.985 . S
H730 N725 0.984 . S
H731 N725 0.985 . S
H732 N729 0.984 . S
H733 N729 0.985 . S
H734 N728 0.984 . S
H735 N728 0.984 . S
H736 N724 0.984 . S
H737 N724 0.985 . S
C738 C739 1.363 . S
C738 C744 1.379 . S
C738 N746 1.356 . S
C739 C738 1.363 . S
C739 C745 1.363 . S
C740 C741 1.363 . S
C740 C745 1.379 . S
C740 N747 1.356 . S
C741 C740 1.363 . S
C741 C744 1.363 . S
N742 C744 1.356 . S
N742 H754 0.984 . S
N742 H755 0.985 . S
N743 C745 1.356 . S
N743 H748 0.984 . S
N743 H749 0.985 . S
C744 C738 1.379 . S
C744 C741 1.363 . S
C744 N742 1.356 . S
C745 C739 1.363 . S
C745 C740 1.379 . S
C745 N743 1.356 . S
N746 C738 1.356 . S
N746 H752 0.984 . S
N746 H753 0.984 . S
N747 C740 1.356 . S
N747 H750 0.984 . S
N747 H751 0.985 . S
H748 N743 0.984 . S
H749 N743 0.985 . S
H750 N747 0.984 . S
H751 N747 0.985 . S
H752 N746 0.984 . S
H753 N746 0.984 . S
H754 N742 0.984 . S
H755 N742 0.985 . S
C756 C757 1.363 . S
C756 C762 1.379 . S
C756 N764 1.356 . S
C757 C756 1.363 . S
C757 C763 1.363 . S
C758 C759 1.363 . S
C758 C763 1.379 . S
C758 N765 1.356 . S
C759 C758 1.363 . S
C759 C762 1.363 . S
N760 C762 1.356 . S
N760 H772 0.984 . S
N760 H773 0.985 . S
N761 C763 1.356 . S
N761 H766 0.984 . S
N761 H767 0.985 . S
C762 C756 1.379 . S
C762 C759 1.363 . S
C762 N760 1.356 . S
C763 C757 1.363 . S
C763 C758 1.379 . S
C763 N761 1.356 . S
N764 C756 1.356 . S
N764 H770 0.984 . S
N764 H771 0.984 . S
N765 C758 1.356 . S
N765 H768 0.984 . S
N765 H769 0.985 . S
H766 N761 0.984 . S
H767 N761 0.985 . S
H768 N765 0.984 . S
H769 N765 0.985 . S
H770 N764 0.984 . S
H771 N764 0.984 . S
H772 N760 0.984 . S
H773 N760 0.985 . S
C774 C775 1.363 . S
C774 C780 1.379 . S
C774 N782 1.356 . S
C775 C774 1.363 . S
C775 C781 1.363 . S
C776 C777 1.363 . S
C776 C781 1.379 . S
C776 N783 1.356 . S
C777 C776 1.363 . S
C777 C780 1.363 . S
N778 C780 1.356 . S
N778 H790 0.984 . S
N778 H791 0.985 . S
N779 C781 1.356 1_545 S
N779 H784 0.984 . S
N779 H785 0.985 . S
C780 C774 1.379 . S
C780 C777 1.363 . S
C780 N778 1.356 . S
C781 C775 1.363 . S
C781 C776 1.379 . S
C781 N779 1.356 1_565 S
N782 C774 1.356 . S
N782 H788 0.984 . S
N782 H789 0.984 . S
N783 C776 1.356 . S
N783 H786 0.984 . S
N783 H787 0.985 . S
H784 N779 0.984 . S
H785 N779 0.985 . S
H786 N783 0.984 . S
H787 N783 0.985 . S
H788 N782 0.984 . S
H789 N782 0.984 . S
H790 N778 0.984 . S
H791 N778 0.985 . S
C792 C793 1.363 . S
C792 C798 1.379 . S
C792 N800 1.356 . S
C793 C792 1.363 . S
C793 C799 1.363 . S
C794 C795 1.363 . S
C794 C799 1.379 . S
C794 N801 1.356 . S
C795 C794 1.363 . S
C795 C798 1.363 . S
N796 C798 1.356 . S
N796 H808 0.984 . S
N796 H809 0.985 . S
N797 C799 1.356 . S
N797 H802 0.984 . S
N797 H803 0.985 . S
C798 C792 1.379 . S
C798 C795 1.363 . S
C798 N796 1.356 . S
C799 C793 1.363 . S
C799 C794 1.379 . S
C799 N797 1.356 . S
N800 C792 1.356 . S
N800 H806 0.984 . S
N800 H807 0.984 . S
N801 C794 1.356 . S
N801 H804 0.984 . S
N801 H805 0.985 . S
H802 N797 0.984 . S
H803 N797 0.985 . S
H804 N801 0.984 . S
H805 N801 0.985 . S
H806 N800 0.984 . S
H807 N800 0.984 . S
H808 N796 0.984 . S
H809 N796 0.985 . S
C810 C811 1.363 . S
C810 C816 1.379 . S
C810 N818 1.356 . S
C811 C810 1.363 . S
C811 C817 1.363 . S
C812 C813 1.363 . S
C812 C817 1.379 . S
C812 N819 1.356 . S
C813 C812 1.363 . S
C813 C816 1.363 . S
N814 C816 1.356 . S
N814 H826 0.984 . S
N814 H827 0.985 . S
N815 C817 1.356 . S
N815 H820 0.984 . S
N815 H821 0.985 . S
C816 C810 1.379 . S
C816 C813 1.363 . S
C816 N814 1.356 . S
C817 C811 1.363 . S
C817 C812 1.379 . S
C817 N815 1.356 . S
N818 C810 1.356 . S
N818 H824 0.984 . S
N818 H825 0.984 . S
N819 C812 1.356 . S
N819 H822 0.984 . S
N819 H823 0.985 . S
H820 N815 0.984 . S
H821 N815 0.985 . S
H822 N819 0.984 . S
H823 N819 0.985 . S
H824 N818 0.984 . S
H825 N818 0.984 . S
H826 N814 0.984 . S
H827 N814 0.985 . S
C828 C829 1.363 . S
C828 C834 1.379 . S
C828 N836 1.356 . S
C829 C828 1.363 . S
C829 C835 1.363 . S
C830 C831 1.363 . S
C830 C835 1.379 . S
C830 N837 1.356 . S
C831 C830 1.363 . S
C831 C834 1.363 . S
N832 C834 1.356 . S
N832 H844 0.984 . S
N832 H845 0.985 . S
N833 C835 1.356 . S
N833 H838 0.984 . S
N833 H839 0.985 . S
C834 C828 1.379 . S
C834 C831 1.363 . S
C834 N832 1.356 . S
C835 C829 1.363 . S
C835 C830 1.379 . S
C835 N833 1.356 . S
N836 C828 1.356 . S
N836 H842 0.984 . S
N836 H843 0.984 . S
N837 C830 1.356 . S
N837 H840 0.984 . S
N837 H841 0.985 . S
H838 N833 0.984 . S
H839 N833 0.985 . S
H840 N837 0.984 . S
H841 N837 0.985 . S
H842 N836 0.984 . S
H843 N836 0.984 . S
H844 N832 0.984 . S
H845 N832 0.985 . S
C846 C847 1.363 . S
C846 C852 1.379 . S
C846 N854 1.356 . S
C847 C846 1.363 . S
C847 C853 1.363 . S
C848 C849 1.363 . S
C848 C853 1.379 . S
C848 N855 1.356 . S
C849 C848 1.363 . S
C849 C852 1.363 . S
N850 C852 1.356 . S
N850 H862 0.984 . S
N850 H863 0.985 . S
N851 C853 1.356 . S
N851 H856 0.984 . S
N851 H857 0.985 . S
C852 C846 1.379 . S
C852 C849 1.363 . S
C852 N850 1.356 . S
C853 C847 1.363 . S
C853 C848 1.379 . S
C853 N851 1.356 . S
N854 C846 1.356 . S
N854 H860 0.984 . S
N854 H861 0.984 . S
N855 C848 1.356 . S
N855 H858 0.984 . S
N855 H859 0.985 . S
H856 N851 0.984 . S
H857 N851 0.985 . S
H858 N855 0.984 . S
H859 N855 0.985 . S
H860 N854 0.984 . S
H861 N854 0.984 . S
H862 N850 0.984 . S
H863 N850 0.985 . S
C864 C865 1.363 . S
C864 C870 1.379 . S
C864 N872 1.356 . S
C865 C864 1.363 . S
C865 C871 1.363 . S
C866 C867 1.363 . S
C866 C871 1.379 . S
C866 N873 1.356 . S
C867 C866 1.363 . S
C867 C870 1.363 . S
N868 C870 1.356 . S
N868 H880 0.984 . S
N868 H881 0.985 . S
N869 C871 1.356 . S
N869 H874 0.980 1_556 S
N869 H875 0.985 . S
C870 C864 1.379 . S
C870 C867 1.363 . S
C870 N868 1.356 . S
C871 C865 1.363 . S
C871 C866 1.379 . S
C871 N869 1.356 . S
N872 C864 1.356 . S
N872 H878 0.984 . S
N872 H879 0.984 . S
N873 C866 1.356 . S
N873 H876 0.984 . S
N873 H877 0.985 . S
H874 N869 0.980 1_554 S
H875 N869 0.985 . S
H876 N873 0.984 . S
H877 N873 0.985 . S
H878 N872 0.984 . S
H879 N872 0.984 . S
H880 N868 0.984 . S
H881 N868 0.985 . S
C882 C883 1.363 . S
C882 C888 1.379 . S
C882 N890 1.356 . S
C883 C882 1.363 . S
C883 C889 1.363 . S
C884 C885 1.363 . S
C884 C889 1.379 . S
C884 N891 1.356 . S
C885 C884 1.363 . S
C885 C888 1.363 . S
N886 C888 1.356 . S
N886 H898 0.984 . S
N886 H899 0.985 . S
N887 C889 1.356 . S
N887 H892 0.984 . S
N887 H893 0.985 . S
C888 C882 1.379 . S
C888 C885 1.363 . S
C888 N886 1.356 . S
C889 C883 1.363 . S
C889 C884 1.379 . S
C889 N887 1.356 . S
N890 C882 1.356 . S
N890 H896 0.984 . S
N890 H897 0.984 . S
N891 C884 1.356 . S
N891 H894 0.984 . S
N891 H895 0.985 . S
H892 N887 0.984 . S
H893 N887 0.985 . S
H894 N891 0.984 . S
H895 N891 0.985 . S
H896 N890 0.984 . S
H897 N890 0.984 . S
H898 N886 0.984 . S
H899 N886 0.985 . S
C900 C901 1.363 . S
C900 C906 1.379 . S
C900 N908 1.356 . S
C901 C900 1.363 . S
C901 C907 1.363 . S
C902 C903 1.363 . S
C902 C907 1.379 . S
C902 N909 1.356 . S
C903 C902 1.363 . S
C903 C906 1.363 . S
N904 C906 1.356 . S
N904 H916 0.984 . S
N904 H917 0.985 . S
N905 C907 1.356 . S
N905 H910 0.956 1_554 S
N905 H911 0.985 . S
C906 C900 1.379 . S
C906 C903 1.363 . S
C906 N904 1.356 . S
C907 C901 1.363 . S
C907 C902 1.379 . S
C907 N905 1.356 . S
N908 C900 1.356 . S
N908 H914 0.984 . S
N908 H915 0.984 . S
N909 C902 1.356 . S
N909 H912 0.984 . S
N909 H913 0.985 . S
H910 N905 0.956 1_556 S
H911 N905 0.985 . S
H912 N909 0.984 . S
H913 N909 0.985 . S
H914 N908 0.984 . S
H915 N908 0.984 . S
H916 N904 0.984 . S
H917 N904 0.985 . S
C918 C919 1.363 . S
C918 C924 1.379 . S
C918 N926 1.356 . S
C919 C918 1.363 . S
C919 C925 1.363 . S
C920 C921 1.363 . S
C920 C925 1.379 . S
C920 N927 1.356 . S
C921 C920 1.363 . S
C921 C924 1.363 . S
N922 C924 1.356 . S
N922 H934 0.984 . S
N922 H935 0.985 . S
N923 C925 1.356 . S
N923 H928 0.984 . S
N923 H929 0.985 . S
C924 C918 1.379 . S
C924 C921 1.363 . S
C924 N922 1.356 . S
C925 C919 1.363 . S
C925 C920 1.379 . S
C925 N923 1.356 . S
N926 C918 1.356 . S
N926 H932 0.984 . S
N926 H933 0.984 . S
N927 C920 1.356 . S
N927 H930 0.984 . S
N927 H931 0.985 . S
H928 N923 0.984 . S
H929 N923 0.985 . S
H930 N927 0.984 . S
H931 N927 0.985 . S
H932 N926 0.984 . S
H933 N926 0.984 . S
H934 N922 0.984 . S
H935 N922 0.985 . S
C936 C937 1.363 . S
C936 C942 1.379 . S
C936 N944 1.356 . S
C937 C936 1.363 . S
C937 C943 1.363 . S
C938 C939 1.363 . S
C938 C943 1.379 . S
C938 N945 1.356 . S
C939 C938 1.363 . S
C939 C942 1.363 . S
N940 C942 1.356 . S
N940 H952 0.984 . S
N940 H953 0.985 . S
N941 C943 1.356 . S
N941 H946 0.984 . S
N941 H947 0.985 . S
C942 C936 1.379 . S
C942 C939 1.363 . S
C942 N940 1.356 . S
C943 C937 1.363 . S
C943 C938 1.379 . S
C943 N941 1.356 . S
N944 C936 1.356 . S
N944 H950 0.984 . S
N944 H951 0.984 . S
N945 C938 1.356 . S
N945 H948 0.984 . S
N945 H949 0.985 1_455 S
H946 N941 0.984 . S
H947 N941 0.985 . S
H948 N945 0.984 . S
H949 N945 0.985 1_655 S
H950 N944 0.984 . S
H951 N944 0.984 . S
H952 N940 0.984 . S
H953 N940 0.985 . S
C954 C955 1.363 . S
C954 C960 1.379 . S
C954 N962 1.356 . S
C955 C954 1.363 . S
C955 C961 1.363 . S
C956 C957 1.363 . S
C956 C961 1.379 . S
C956 N963 1.356 . S
C957 C956 1.363 . S
C957 C960 1.363 . S
N958 C960 1.356 . S
N958 H970 0.984 . S
N958 H971 0.985 . S
N959 C961 1.356 . S
N959 H964 0.984 . S
N959 H965 0.985 . S
C960 C954 1.379 . S
C960 C957 1.363 . S
C960 N958 1.356 . S
C961 C955 1.363 . S
C961 C956 1.379 . S
C961 N959 1.356 . S
N962 C954 1.356 . S
N962 H968 0.984 . S
N962 H969 0.984 . S
N963 C956 1.356 . S
N963 H966 0.984 . S
N963 H967 0.985 . S
H964 N959 0.984 . S
H965 N959 0.985 . S
H966 N963 0.984 . S
H967 N963 0.985 . S
H968 N962 0.984 . S
H969 N962 0.984 . S
H970 N958 0.984 . S
H971 N958 0.985 . S
C972 C973 1.363 . S
C972 C978 1.379 . S
C972 N980 1.356 . S
C973 C972 1.363 . S
C973 C979 1.363 . S
C974 C975 1.363 . S
C974 C979 1.379 . S
C974 N981 1.356 . S
C975 C974 1.363 . S
C975 C978 1.363 . S
N976 C978 1.356 . S
N976 H988 0.984 . S
N976 H989 0.985 . S
N977 C979 1.356 . S
N977 H982 0.984 . S
N977 H983 0.985 . S
C978 C972 1.379 . S
C978 C975 1.363 . S
C978 N976 1.356 . S
C979 C973 1.363 . S
C979 C974 1.379 . S
C979 N977 1.356 . S
N980 C972 1.356 . S
N980 H986 0.984 . S
N980 H987 0.984 . S
N981 C974 1.356 . S
N981 H984 0.984 . S
N981 H985 0.985 . S
H982 N977 0.984 . S
H983 N977 0.985 . S
H984 N981 0.984 . S
H985 N981 0.985 . S
H986 N980 0.984 . S
H987 N980 0.984 . S
H988 N976 0.984 . S
H989 N976 0.985 . S
C990 C991 1.363 . S
C990 C996 1.379 . S
C990 N998 1.356 . S
C991 C990 1.363 . S
C991 C997 1.363 . S
C992 C993 1.363 . S
C992 C997 1.379 . S
C992 N999 1.356 1_655 S
C993 C992 1.363 . S
C993 C996 1.363 . S
N994 C996 1.356 . S
N994 H1006 0.984 . S
N994 H1007 0.985 . S
N995 C997 1.356 . S
N995 H1000 0.984 . S
N995 H1001 0.985 1_655 S
C996 C990 1.379 . S
C996 C993 1.363 . S
C996 N994 1.356 . S
C997 C991 1.363 . S
C997 C992 1.379 . S
C997 N995 1.356 . S
N998 C990 1.356 . S
N998 H1004 0.984 . S
N998 H1005 0.984 . S
N999 C992 1.356 1_455 S
N999 H1002 0.984 . S
N999 H1003 0.985 . S
H1000 N995 0.984 . S
H1001 N995 0.985 1_455 S
H1002 N999 0.984 . S
H1003 N999 0.985 . S
H1004 N998 0.984 . S
H1005 N998 0.984 . S
H1006 N994 0.984 . S
H1007 N994 0.985 . S
C1008 C1009 1.363 . S
C1008 C1014 1.379 . S
C1008 N1016 1.356 . S
C1009 C1008 1.363 . S
C1009 C1015 1.363 . S
C1010 C1011 1.363 . S
C1010 C1015 1.379 . S
C1010 N1017 1.356 . S
C1011 C1010 1.363 . S
C1011 C1014 1.363 . S
N1012 C1014 1.356 . S
N1012 H1024 0.984 . S
N1012 H1025 0.985 . S
N1013 C1015 1.356 . S
N1013 H1018 0.984 . S
N1013 H1019 0.985 . S
C1014 C1008 1.379 . S
C1014 C1011 1.363 . S
C1014 N1012 1.356 . S
C1015 C1009 1.363 . S
C1015 C1010 1.379 . S
C1015 N1013 1.356 . S
N1016 C1008 1.356 . S
N1016 H1022 0.984 . S
N1016 H1023 0.984 . S
N1017 C1010 1.356 . S
N1017 H1020 0.984 . S
N1017 H1021 0.985 . S
H1018 N1013 0.984 . S
H1019 N1013 0.985 . S
H1020 N1017 0.984 . S
H1021 N1017 0.985 . S
H1022 N1016 0.984 . S
H1023 N1016 0.984 . S
H1024 N1012 0.984 . S
H1025 N1012 0.985 . S
C1026 C1027 1.363 . S
C1026 C1032 1.379 . S
C1026 N1034 1.356 . S
C1027 C1026 1.363 . S
C1027 C1033 1.363 . S
C1028 C1029 1.363 . S
C1028 C1033 1.379 . S
C1028 N1035 1.356 . S
C1029 C1028 1.363 . S
C1029 C1032 1.363 . S
N1030 C1032 1.356 . S
N1030 H1042 0.984 . S
N1030 H1043 0.985 . S
N1031 C1033 1.356 . S
N1031 H1036 0.984 . S
N1031 H1037 0.985 . S
C1032 C1026 1.379 . S
C1032 C1029 1.363 . S
C1032 N1030 1.356 . S
C1033 C1027 1.363 . S
C1033 C1028 1.379 . S
C1033 N1031 1.356 . S
N1034 C1026 1.356 . S
N1034 H1040 0.984 . S
N1034 H1041 0.984 . S
N1035 C1028 1.356 . S
N1035 H1038 0.984 . S
N1035 H1039 0.985 . S
H1036 N1031 0.984 . S
H1037 N1031 0.985 . S
H1038 N1035 0.984 . S
H1039 N1035 0.985 . S
H1040 N1034 0.984 . S
H1041 N1034 0.984 . S
H1042 N1030 0.984 . S
H1043 N1030 0.985 . S
C1044 C1045 1.363 . S
C1044 C1050 1.379 . S
C1044 N1052 1.356 . S
C1045 C1044 1.363 . S
C1045 C1051 1.363 . S
C1046 C1047 1.363 . S
C1046 C1051 1.379 . S
C1046 N1053 1.356 . S
C1047 C1046 1.363 . S
C1047 C1050 1.363 . S
N1048 C1050 1.356 . S
N1048 H1060 0.984 . S
N1048 H1061 0.985 . S
N1049 C1051 1.356 . S
N1049 H1054 0.984 . S
N1049 H1055 0.985 . S
C1050 C1044 1.379 . S
C1050 C1047 1.363 . S
C1050 N1048 1.356 . S
C1051 C1045 1.363 . S
C1051 C1046 1.379 . S
C1051 N1049 1.356 . S
N1052 C1044 1.356 . S
N1052 H1058 0.984 . S
N1052 H1059 0.984 . S
N1053 C1046 1.356 . S
N1053 H1056 0.984 . S
N1053 H1057 0.985 . S
H1054 N1049 0.984 . S
H1055 N1049 0.985 . S
H1056 N1053 0.984 . S
H1057 N1053 0.985 . S
H1058 N1052 0.984 . S
H1059 N1052 0.984 . S
H1060 N1048 0.984 . S
H1061 N1048 0.985 . S
C1062 C1063 1.363 . S
C1062 C1068 1.379 . S
C1062 N1070 1.356 . S
C1063 C1062 1.363 . S
C1063 C1069 1.363 . S
C1064 C1065 1.363 . S
C1064 C1069 1.379 . S
C1064 N1071 1.356 . S
C1065 C1064 1.363 . S
C1065 C1068 1.363 . S
N1066 C1068 1.356 1_655 S
N1066 H1078 0.984 . S
N1066 H1079 0.985 . S
N1067 C1069 1.356 . S
N1067 H1072 0.984 . S
N1067 H1073 0.985 . S
C1068 C1062 1.379 . S
C1068 C1065 1.363 . S
C1068 N1066 1.356 1_455 S
C1069 C1063 1.363 . S
C1069 C1064 1.379 . S
C1069 N1067 1.356 . S
N1070 C1062 1.356 . S
N1070 H1076 0.984 . S
N1070 H1077 0.984 . S
N1071 C1064 1.356 . S
N1071 H1074 0.984 . S
N1071 H1075 0.985 . S
H1072 N1067 0.984 . S
H1073 N1067 0.985 . S
H1074 N1071 0.984 . S
H1075 N1071 0.985 . S
H1076 N1070 0.984 . S
H1077 N1070 0.984 . S
H1078 N1066 0.984 . S
H1079 N1066 0.985 . S
C649 C235 1.486 1_545 S
C651 C386 1.477 . S
C669 C470 1.476 . S
C667 C289 1.485 . S
C687 C463 1.482 . S
C685 C157 1.481 . S
C703 C211 1.481 1_545 S
C705 C379 1.480 . S
C723 C543 1.476 . S
C721 C79 1.487 1_565 S
C741 C627 1.479 . S
C739 C118 1.491 . S
C757 C1 1.484 . S
C759 C620 1.481 . S
C775 C40 1.487 1_565 S
C777 C536 1.485 . S
C795 C370 1.321 . S
C793 C55 1.519 . S
C813 C454 1.321 . S
C811 C16 1.519 . S
C831 C465 1.398 . S
C829 C133 1.533 . S
C849 C381 1.398 . S
C847 C94 1.533 . S
C867 C549 1.325 . S
C865 C196 1.526 . S
C883 C172 1.524 . S
C885 C633 1.324 . S
C903 C622 1.401 . S
C901 C274 1.540 . S
C919 C250 1.537 . S
C921 C538 1.400 . S
C939 C368 1.575 . S
C937 C21 1.570 . S
C957 C452 1.579 . S
C955 C60 1.574 . S
C973 C99 1.561 . S
C975 C459 1.562 . S
C993 C375 1.566 . S
C991 C138 1.564 . S
C1011 C547 1.581 . S
C1009 C177 1.569 . S
C1027 C216 1.571 . S
C1029 C631 1.581 . S
C1045 C255 1.562 . S
C1047 C638 1.569 . S
C1063 C294 1.562 . S
C1065 C554 1.569 . S
