# Generated by pormake.
# Topology pyr, (3,6)-cn, num edge types: 1
# Building blocks:
#     Node 0, Type 0, BuildingBlock: CUQRIR_clean_linker_1, # of connection points: 3
#     Node 1, Type 0, BuildingBlock: CUQRIR_clean_linker_1, # of connection points: 3
#     Node 2, Type 0, BuildingBlock: CUQRIR_clean_linker_1, # of connection points: 3
#     Node 3, Type 0, BuildingBlock: CUQRIR_clean_linker_1, # of connection points: 3
#     Node 4, Type 0, BuildingBlock: CUQRIR_clean_linker_1, # of connection points: 3
#     Node 5, Type 0, BuildingBlock: CUQRIR_clean_linker_1, # of connection points: 3
#     Node 6, Type 0, BuildingBlock: CUQRIR_clean_linker_1, # of connection points: 3
#     Node 7, Type 0, BuildingBlock: CUQRIR_clean_linker_1, # of connection points: 3
#     Node 8, Type 1, BuildingBlock: BETDAH_clean_sbu_0, # of connection points: 6
#     Node 9, Type 1, BuildingBlock: BETDAH_clean_sbu_0, # of connection points: 6
#     Node 10, Type 1, BuildingBlock: BETDAH_clean_sbu_0, # of connection points: 6
#     Node 11, Type 1, BuildingBlock: BETDAH_clean_sbu_0, # of connection points: 6
#     Edge 12, Type (0, 1), BuildingBlock: TEMPAE_clean_linker_10, # of connection points: 2
#     Edge 13, Type (0, 1), BuildingBlock: TEMPAE_clean_linker_10, # of connection points: 2
#     Edge 14, Type (0, 1), BuildingBlock: TEMPAE_clean_linker_10, # of connection points: 2
#     Edge 15, Type (0, 1), BuildingBlock: TEMPAE_clean_linker_10, # of connection points: 2
#     Edge 16, Type (0, 1), BuildingBlock: TEMPAE_clean_linker_10, # of connection points: 2
#     Edge 17, Type (0, 1), BuildingBlock: TEMPAE_clean_linker_10, # of connection points: 2
#     Edge 18, Type (0, 1), BuildingBlock: TEMPAE_clean_linker_10, # of connection points: 2
#     Edge 19, Type (0, 1), BuildingBlock: TEMPAE_clean_linker_10, # of connection points: 2
#     Edge 20, Type (0, 1), BuildingBlock: TEMPAE_clean_linker_10, # of connection points: 2
#     Edge 21, Type (0, 1), BuildingBlock: TEMPAE_clean_linker_10, # of connection points: 2
#     Edge 22, Type (0, 1), BuildingBlock: TEMPAE_clean_linker_10, # of connection points: 2
#     Edge 23, Type (0, 1), BuildingBlock: TEMPAE_clean_linker_10, # of connection points: 2
#     Edge 24, Type (0, 1), BuildingBlock: TEMPAE_clean_linker_10, # of connection points: 2
#     Edge 25, Type (0, 1), BuildingBlock: TEMPAE_clean_linker_10, # of connection points: 2
#     Edge 26, Type (0, 1), BuildingBlock: TEMPAE_clean_linker_10, # of connection points: 2
#     Edge 27, Type (0, 1), BuildingBlock: TEMPAE_clean_linker_10, # of connection points: 2
#     Edge 28, Type (0, 1), BuildingBlock: TEMPAE_clean_linker_10, # of connection points: 2
#     Edge 29, Type (0, 1), BuildingBlock: TEMPAE_clean_linker_10, # of connection points: 2
#     Edge 30, Type (0, 1), BuildingBlock: TEMPAE_clean_linker_10, # of connection points: 2
#     Edge 31, Type (0, 1), BuildingBlock: TEMPAE_clean_linker_10, # of connection points: 2
#     Edge 32, Type (0, 1), BuildingBlock: TEMPAE_clean_linker_10, # of connection points: 2
#     Edge 33, Type (0, 1), BuildingBlock: TEMPAE_clean_linker_10, # of connection points: 2
#     Edge 34, Type (0, 1), BuildingBlock: TEMPAE_clean_linker_10, # of connection points: 2
#     Edge 35, Type (0, 1), BuildingBlock: TEMPAE_clean_linker_10, # of connection points: 2
# Relax obj value: 0.201
# Max RMSD: 0.258
# Mean RMSD: 0.169
data_MOF--net-pyr--node1-BETDAH_clean_sbu_0--node2-CUQRIR_clean_linker_1--edge1-TEMPAE_clean_linker_10
_symmetry_space_group_name_H-M    P1
_symmetry_Int_Tables_number       1
_symmetry_cell_setting            triclinic
loop_
_symmetry_equiv_pos_as_xyz
'x, y, z'
_cell_length_a     35.532635
_cell_length_b     38.080738
_cell_length_c     34.050237
_cell_angle_alpha  90.411177
_cell_angle_beta   89.807445
_cell_angle_gamma 104.58932
loop_
_atom_site_label
_atom_site_type_symbol
_atom_site_fract_x
_atom_site_fract_y
_atom_site_fract_z
_atom_type_partial_charge
C0 C 0.35741 0.3741 0.22372 0.0
N1 N 0.37462 0.34733 0.23297 0.0
N2 N 0.36684 0.38614 0.18678 0.0
C3 C 0.32487 0.38279 0.24747 0.0
C4 C 0.39072 0.36582 0.17399 0.0
N5 N 0.39527 0.34194 0.20191 0.0
C6 C 0.40826 0.36898 0.13356 0.0
H7 H 0.29879 0.35956 0.24564 0.0
H8 H 0.31705 0.40747 0.23693 0.0
H9 H 0.33337 0.38693 0.27878 0.0
H10 H 0.41384 0.39742 0.12326 0.0
H11 H 0.38738 0.3517 0.11286 0.0
H12 H 0.43582 0.3603 0.13325 0.0
C13 C 0.23675 0.88065 0.62591 0.0
N14 N 0.23092 0.89974 0.65801 0.0
N15 N 0.26387 0.86226 0.63315 0.0
C16 C 0.22067 0.88462 0.58581 0.0
C17 C 0.27436 0.87089 0.67088 0.0
N18 N 0.25454 0.89386 0.68588 0.0
C19 C 0.30834 0.86155 0.69077 0.0
H20 H 0.22512 0.86318 0.56538 0.0
H21 H 0.23549 0.91161 0.57382 0.0
H22 H 0.18916 0.88321 0.58789 0.0
H23 H 0.33574 0.87954 0.67939 0.0
H24 H 0.30874 0.83311 0.68407 0.0
H25 H 0.30722 0.86517 0.72308 0.0
C26 C 0.62906 0.39134 0.86155 0.0
N27 N 0.65019 0.3869 0.89405 0.0
N28 N 0.64316 0.42441 0.8444 0.0
C29 C 0.5975 0.36171 0.84345 0.0
C30 C 0.67422 0.4398 0.86751 0.0
N31 N 0.67894 0.41732 0.89712 0.0
C32 C 0.69932 0.47776 0.86234 0.0
H33 H 0.59732 0.36455 0.81105 0.0
H34 H 0.56882 0.36369 0.85484 0.0
H35 H 0.60156 0.33453 0.85061 0.0
H36 H 0.68268 0.49554 0.84874 0.0
H37 H 0.72425 0.47682 0.84301 0.0
H38 H 0.71111 0.48983 0.89088 0.0
C39 C 0.84676 0.716 0.35789 0.0
N40 N 0.88026 0.74133 0.34827 0.0
N41 N 0.82979 0.72555 0.39082 0.0
C42 C 0.82974 0.68254 0.33362 0.0
C43 C 0.85445 0.7576 0.40132 0.0
N44 N 0.88505 0.76774 0.37588 0.0
C45 C 0.84885 0.77904 0.43731 0.0
H46 H 0.80477 0.66384 0.34817 0.0
H47 H 0.85247 0.66797 0.32712 0.0
H48 H 0.81949 0.69073 0.30521 0.0
H49 H 0.83173 0.76112 0.46006 0.0
H50 H 0.83288 0.79942 0.42895 0.0
H51 H 0.87723 0.79366 0.45003 0.0
C52 C 0.66803 0.8469 0.8948 0.0
N53 N 0.69625 0.83714 0.87389 0.0
N54 N 0.65033 0.86758 0.8727 0.0
C55 C 0.66183 0.84107 0.93831 0.0
C56 C 0.66898 0.86981 0.83767 0.0
N57 N 0.69718 0.85174 0.83852 0.0
C58 C 0.66005 0.89008 0.80258 0.0
H59 H 0.63319 0.82174 0.94331 0.0
H60 H 0.66143 0.86702 0.95314 0.0
H61 H 0.68466 0.82997 0.95192 0.0
H62 H 0.67987 0.9177 0.80206 0.0
H63 H 0.6296 0.89255 0.80375 0.0
H64 H 0.66478 0.87593 0.77509 0.0
C65 C 0.82859 0.30528 0.52392 0.0
N66 N 0.83808 0.28339 0.49619 0.0
N67 N 0.8051 0.32458 0.50859 0.0
C68 C 0.84102 0.30702 0.56614 0.0
C69 C 0.80006 0.31311 0.47077 0.0
N70 N 0.82048 0.28831 0.46314 0.0
C71 C 0.77092 0.32226 0.44303 0.0
H72 H 0.81986 0.28604 0.58291 0.0
H73 H 0.84156 0.33397 0.57909 0.0
H74 H 0.87015 0.30156 0.56881 0.0
H75 H 0.78603 0.34538 0.42446 0.0
H76 H 0.74713 0.33018 0.4591 0.0
H77 H 0.75785 0.29902 0.42345 0.0
C78 C 0.35125 0.7347 0.25857 0.0
N79 N 0.38415 0.75976 0.27019 0.0
N80 N 0.33542 0.74548 0.22607 0.0
C81 C 0.33512 0.69866 0.27811 0.0
C82 C 0.35986 0.77807 0.21778 0.0
N83 N 0.38961 0.78716 0.24417 0.0
C84 C 0.35395 0.80192 0.18442 0.0
H85 H 0.35894 0.68723 0.28894 0.0
H86 H 0.3166 0.67892 0.25761 0.0
H87 H 0.31705 0.70258 0.30361 0.0
H88 H 0.35585 0.82983 0.19534 0.0
H89 H 0.32546 0.79144 0.16981 0.0
H90 H 0.37747 0.80362 0.16245 0.0
C91 C 0.13564 0.40148 0.76021 0.0
N92 N 0.15885 0.39678 0.72921 0.0
N93 N 0.15032 0.43333 0.77987 0.0
C94 C 0.09918 0.37423 0.77262 0.0
C95 C 0.18364 0.44795 0.75966 0.0
N96 N 0.18912 0.42627 0.72901 0.0
C97 C 0.21027 0.48451 0.76885 0.0
H98 H 0.07423 0.37897 0.75583 0.0
H99 H 0.09334 0.37718 0.80435 0.0
H100 H 0.10143 0.34616 0.76659 0.0
H101 H 0.24095 0.48459 0.76249 0.0
H102 H 0.20764 0.49236 0.79994 0.0
H103 H 0.20231 0.50515 0.74998 0.0
Ho104 Ho 0.05156 0.09959 0.5025 0.0
Ho105 Ho 0.0308 0.06414 0.58272 0.0
C106 C 0.0706 0.15133 0.58252 0.0
C107 C 0.0627 0.13967 0.44079 0.0
C108 C 0.09682 0.16752 0.42811 0.0
C109 C 0.09832 0.18168 0.3902 0.0
C110 C 0.13313 0.20358 0.37575 0.0
C111 C 0.16695 0.21133 0.399 0.0
C112 C 0.16485 0.19821 0.4376 0.0
C113 C 0.12998 0.17648 0.45207 0.0
C114 C 0.1077 0.07471 0.53785 0.0
C115 C 1.00867 1.01376 0.50127 0.0
C116 C 0.02719 1.02398 0.64414 0.0
C117 C 1.00056 0.99101 0.65945 0.0
C118 C 0.99462 0.98786 0.70003 0.0
C119 C 0.96509 0.95994 0.71529 0.0
C120 C 0.94098 0.9344 0.69018 0.0
C121 C 0.94859 0.93646 0.64952 0.0
C122 C 0.978 0.9647 0.63425 0.0
C123 C 0.97598 0.09307 0.55231 0.0
O124 O 0.06535 0.1495 0.5437 0.0
O125 O 0.06373 0.12096 0.6036 0.0
O126 O 0.0683 0.10709 0.44174 0.0
O127 O 0.04461 0.14731 0.47203 0.0
O128 O 0.10281 0.0739 0.50019 0.0
O129 O 0.08464 0.09037 0.55352 0.0
O130 O 1.0133 1.01484 0.54026 0.0
O131 O 1.01699 0.04429 0.48072 0.0
O132 O 1.01269 0.05228 0.6427 0.0
O133 O 0.04738 1.02043 0.61276 0.0
O134 O 0.98127 0.08997 0.58965 0.0
O135 O 0.99686 0.07665 0.53324 0.0
H136 H 0.07306 0.17459 0.37125 0.0
H137 H 0.13403 0.21302 0.34575 0.0
H138 H 0.19036 0.20406 0.45622 0.0
H139 H 0.12927 0.16542 0.48139 0.0
H140 H 1.01159 1.00811 0.71986 0.0
H141 H 0.95976 0.95979 0.74662 0.0
H142 H 0.93096 0.91702 0.62938 0.0
H143 H 0.9821 0.96674 0.60274 0.0
Ho144 Ho 0.56991 0.09735 0.10304 0.0
Ho145 Ho 0.49326 0.08881 0.06851 0.0
C146 C 0.50814 0.13318 0.14607 0.0
C147 C 0.64193 0.12396 0.12167 0.0
C148 C 0.66377 0.12995 0.15842 0.0
C149 C 0.64428 0.123 0.19449 0.0
C150 C 0.66467 0.13252 0.22951 0.0
C151 C 0.70478 0.14915 0.22887 0.0
C152 C 0.72444 0.15444 0.19265 0.0
C153 C 0.70398 0.14495 0.15762 0.0
C154 C 0.52447 1.03793 0.14102 0.0
C155 C 0.55041 0.0461 1.02805 0.0
C156 C 0.42532 0.0728 0.03532 0.0
C157 C 0.40561 0.05304 1.00054 0.0
C158 C 0.39031 1.01522 1.00082 0.0
C159 C 0.37012 0.9974 0.96821 0.0
C160 C 0.36471 1.01705 0.93476 0.0
C161 C 0.3802 0.05483 0.93455 0.0
C162 C 0.40018 0.07261 0.96711 0.0
C163 C 0.54597 0.15284 0.04946 0.0
O164 O 0.54519 0.13688 0.13779 0.0
O165 O 0.48119 0.10872 0.12767 0.0
O166 O 0.62781 0.09011 0.1113 0.0
O167 O 0.61691 0.14363 0.11743 0.0
O168 O 0.56034 0.05357 0.14873 0.0
O169 O 0.51267 0.05623 0.11453 0.0
O170 O 0.51456 0.04969 1.03001 0.0
O171 O 0.57817 0.06506 0.05064 0.0
O172 O 0.45233 0.10225 1.02831 0.0
O173 O 0.43474 0.054 0.06392 0.0
O174 O 0.51096 0.15007 0.06198 0.0
O175 O 0.55195 0.12125 0.04902 0.0
H176 H 0.61316 0.11132 0.19547 0.0
H177 H 0.6489 0.12781 0.25705 0.0
H178 H 0.75523 0.16754 0.19129 0.0
H179 H 0.71931 0.15047 0.12988 0.0
H180 H 0.39356 0.99941 1.02632 0.0
H181 H 0.35819 0.9683 0.96945 0.0
H182 H 0.37715 0.07073 0.90905 0.0
H183 H 0.41125 0.10183 0.96614 0.0
Ho184 Ho 0.4991 0.55359 0.52917 0.0
Ho185 Ho 0.51011 0.61265 0.57904 0.0
C186 C 0.53769 0.54877 0.61673 0.0
C187 C 0.51049 0.49838 0.49117 0.0
C188 C 0.53876 0.47745 0.50043 0.0
C189 C 0.57478 0.49509 0.51701 0.0
C190 C 0.60055 0.47525 0.52911 0.0
C191 C 0.59087 0.43735 0.52494 0.0
C192 C 0.55469 0.41965 0.50854 0.0
C193 C 0.52874 0.4396 0.49647 0.0
C194 C 0.4317 0.54976 0.56988 0.0
C195 C 0.47638 0.62169 0.49051 0.0
C196 C 0.50111 0.66895 0.6162 0.0
C197 C 0.48897 0.70014 0.60025 0.0
C198 C 0.45605 0.6945 0.57603 0.0
C199 C 0.44476 0.72376 0.56025 0.0
C200 C 0.46599 0.75945 0.56839 0.0
C201 C 0.50007 0.76509 0.59107 0.0
C202 C 0.51146 0.73558 0.60691 0.0
C203 C 0.5771 0.61368 0.5389 0.0
O204 O 0.5347 0.53728 0.57966 0.0
O205 O 0.52567 0.57775 0.62591 0.0
O206 O 0.48276 0.4958 0.51691 0.0
O207 O 0.52525 0.53183 0.48031 0.0
O208 O 0.4342 0.54441 0.5324 0.0
O209 O 0.46605 0.55914 0.58401 0.0
O210 O 0.48394 0.63513 0.52636 0.0
O211 O 0.48053 0.58876 0.48281 0.0
O212 O 0.53504 0.66576 0.6044 0.0
O213 O 0.47476 0.638 0.61576 0.0
O214 O 0.57505 0.62003 0.57621 0.0
O215 O 0.54296 0.60618 0.52471 0.0
H216 H 0.58301 0.5243 0.52087 0.0
H217 H 0.62845 0.48973 0.54097 0.0
H218 H 0.54644 0.3904 0.50517 0.0
H219 H 0.50077 0.42551 0.48446 0.0
H220 H 0.43838 0.66745 0.56976 0.0
H221 H 0.41796 0.7183 0.5436 0.0
H222 H 0.51711 0.7923 0.59768 0.0
H223 H 0.53746 0.74044 0.62478 0.0
Ho224 Ho 1.0055 0.54948 0.0895 0.0
Ho225 Ho 1.00598 0.61796 0.0362 0.0
C226 C 0.08114 0.61959 0.09095 0.0
C227 C 0.02165 0.49063 0.11268 0.0
C228 C 0.05803 0.47903 0.11157 0.0
C229 C 0.0911 0.50078 0.09321 0.0
C230 C 0.1268 0.49181 0.0955 0.0
C231 C 0.13 0.46072 0.11594 0.0
C232 C 0.09634 0.43835 0.13311 0.0
C233 C 0.06071 0.44757 0.1311 0.0
C234 C 0.97413 0.59853 0.13124 0.0
C235 C 0.93001 0.54649 0.03438 0.0
C236 C 0.99589 0.67854 1.01011 0.0
C237 C 0.9639 0.69441 0.99907 0.0
C238 C 0.92717 0.68362 1.01693 0.0
C239 C 0.89682 0.69808 1.00422 0.0
C240 C 0.90273 0.7231 0.9732 0.0
C241 C 0.93963 0.73383 0.95561 0.0
C242 C 0.96993 0.71964 0.9685 0.0
C243 C 0.04229 0.57164 0.99636 0.0
O244 O 0.06674 0.58448 0.0977 0.0
O245 O 0.06199 0.63881 0.07009 0.0
O246 O 0.02229 0.51827 0.13591 0.0
O247 O 1.00576 0.49348 0.07858 0.0
O248 O 0.97569 0.5667 0.14351 0.0
O249 O 0.98709 0.60052 0.09614 0.0
O250 O 0.94503 0.5812 1.0248 0.0
O251 O 0.94852 0.52864 0.05774 0.0
O252 O 1.0005 0.65215 0.98745 0.0
O253 O 1.0 0.67233 0.04743 0.0
O254 O 0.03942 0.60297 0.98409 0.0
O255 O 0.027 0.56812 1.03054 0.0
H256 H 0.08952 0.5252 0.07791 0.0
H257 H 0.15209 0.50987 0.08229 0.0
H258 H 0.09757 0.41385 0.14843 0.0
H259 H 0.03543 0.43048 0.14539 0.0
H260 H 0.92188 0.6638 0.0403 0.0
H261 H 0.86856 0.68917 1.01807 0.0
H262 H 0.94511 0.75337 0.93198 0.0
H263 H 0.99808 0.72809 0.95429 0.0
C264 C 0.3625 0.33046 0.30208 0.0
C265 C 0.35936 0.32065 0.26237 0.0
C266 C 0.33726 0.30986 0.32988 0.0
C267 C 0.30861 0.27886 0.31725 0.0
C268 C 0.30882 0.2665 0.27795 0.0
C269 C 0.33421 0.28775 0.25085 0.0
C270 C 0.33841 0.3236 0.37163 0.0
C271 C 0.27921 0.23327 0.26337 0.0
C272 C 0.23777 0.21761 0.38638 0.0
C273 C 0.20468 0.23101 0.38193 0.0
C274 C 0.27259 0.23375 0.36679 0.0
C275 C 0.27413 0.26386 0.34224 0.0
C276 C 0.24129 0.27844 0.33907 0.0
C277 C 0.20696 0.2618 0.35895 0.0
C278 C 0.30702 0.21756 0.37093 0.0
C279 C 0.24185 0.31078 0.31338 0.0
H280 H 0.38224 0.35597 0.31063 0.0
H281 H 0.33186 0.2805 0.21995 0.0
H282 H 0.31508 0.33793 0.37587 0.0
H283 H 0.33314 0.30084 0.39275 0.0
H284 H 0.36673 0.34288 0.37858 0.0
H285 H 0.28752 0.2239 0.23438 0.0
H286 H 0.27554 0.21073 0.28462 0.0
H287 H 0.25062 0.23977 0.26023 0.0
H288 H 0.23599 0.19357 0.40388 0.0
H289 H 0.18157 0.27247 0.35595 0.0
H290 H 0.33408 0.23914 0.37602 0.0
H291 H 0.31102 0.20333 0.34328 0.0
H292 H 0.3031 0.19781 0.39539 0.0
H293 H 0.26679 0.33375 0.32128 0.0
H294 H 0.21467 0.32001 0.31596 0.0
H295 H 0.24562 0.30366 0.2822 0.0
C296 C 0.29979 0.94182 0.72254 0.0
C297 C 0.26465 0.9152 0.72093 0.0
C298 C 0.313 0.95955 0.75791 0.0
C299 C 0.29064 0.94989 0.79248 0.0
C300 C 0.2543 0.92384 0.79057 0.0
C301 C 0.24163 0.90683 0.75454 0.0
C302 C 0.35164 0.98747 0.75856 0.0
C303 C 0.2298 0.91271 0.82684 0.0
C304 C 0.34951 0.96539 0.88651 0.0
C305 C 0.34336 0.9984 0.89993 0.0
C306 C 0.33135 0.94864 0.8523 0.0
C307 C 0.30668 0.96546 0.83084 0.0
C308 C 0.29951 0.99825 0.84475 0.0
C309 C 0.31781 1.01425 0.87923 0.0
C310 C 0.33958 0.91355 0.83842 0.0
C311 C 0.27349 1.017 0.82257 0.0
H312 H 0.3174 0.94781 0.69621 0.0
H313 H 0.21462 0.88589 0.75283 0.0
H314 H 0.34848 1.01293 0.77267 0.0
H315 H 0.37278 0.97728 0.77625 0.0
H316 H 0.36387 0.99385 0.72862 0.0
H317 H 0.20092 0.89443 0.8198 0.0
H318 H 0.24515 0.89845 0.84722 0.0
H319 H 0.22539 0.93697 0.84258 0.0
H320 H 0.36949 0.95316 0.90209 0.0
H321 H 0.31234 1.03942 0.88982 0.0
H322 H 0.35561 0.918 0.81013 0.0
H323 H 0.31193 0.89279 0.83313 0.0
H324 H 0.35715 0.90267 0.85991 0.0
H325 H 0.28652 1.0258 0.79348 0.0
H326 H 0.26902 1.04116 0.83856 0.0
H327 H 0.24473 0.99794 0.81715 0.0
C328 C 0.65366 0.45822 0.78042 0.0
C329 C 0.6284 0.4399 0.80989 0.0
C330 C 0.64007 0.47509 0.74816 0.0
C331 C 0.59974 0.47305 0.7439 0.0
C332 C 0.57396 0.45354 0.77288 0.0
C333 C 0.58848 0.43777 0.8054 0.0
C334 C 0.66918 0.49584 0.71896 0.0
C335 C 0.53076 0.44958 0.76979 0.0
C336 C 0.56498 0.54589 0.6854 0.0
C337 C 0.55477 0.52943 0.64842 0.0
C338 C 0.58013 0.52829 0.71594 0.0
C339 C 0.58478 0.49258 0.71044 0.0
C340 C 0.57467 0.47578 0.67309 0.0
C341 C 0.56029 0.49437 0.64268 0.0
C342 C 0.59132 0.54819 0.75432 0.0
C343 C 0.5784 0.43776 0.66535 0.0
H344 H 0.68437 0.45957 0.78267 0.0
H345 H 0.56849 0.4242 0.82783 0.0
H346 H 0.66264 0.48392 0.68919 0.0
H347 H 0.66704 0.52439 0.71756 0.0
H348 H 0.69952 0.49577 0.72661 0.0
H349 H 0.51414 0.43127 0.79257 0.0
H350 H 0.52447 0.47655 0.773 0.0
H351 H 0.5202 0.43876 0.74038 0.0
H352 H 0.56133 0.57295 0.69057 0.0
H353 H 0.55265 0.48105 0.61454 0.0
H354 H 0.62201 0.54914 0.76149 0.0
H355 H 0.57302 0.53347 0.77843 0.0
H356 H 0.58792 0.57639 0.75358 0.0
H357 H 0.60912 0.4367 0.66875 0.0
H358 H 0.56851 0.42795 0.63539 0.0
H359 H 0.56102 0.41891 0.68721 0.0
C360 C 0.93582 0.72093 0.31866 0.0
C361 C 0.90444 0.73701 0.31418 0.0
C362 C 0.95017 0.70321 0.28685 0.0
C363 C 0.93237 0.70007 0.24901 0.0
C364 C 0.90205 0.71798 0.24389 0.0
C365 C 0.88897 0.7362 0.27594 0.0
C366 C 0.98309 0.68582 0.29458 0.0
C367 C 0.88094 0.71537 0.20523 0.0
C368 C 0.97875 0.66386 0.15699 0.0
C369 C 0.96111 0.62626 0.15736 0.0
C370 C 0.97005 0.68803 0.1862 0.0
C371 C 0.94226 0.67502 0.2166 0.0
C372 C 0.92362 0.63727 0.21606 0.0
C373 C 0.93362 0.61375 0.18738 0.0
C374 C 0.99174 0.72748 0.18534 0.0
C375 C 0.89308 0.62135 0.24633 0.0
H376 H 0.94744 0.71995 0.3479 0.0
H377 H 0.86394 0.7472 0.27193 0.0
H378 H 0.97155 0.65595 0.29618 0.0
H379 H 1.00458 0.69157 0.27024 0.0
H380 H 0.99819 0.6955 0.32262 0.0
H381 H 0.8613 0.73389 0.20409 0.0
H382 H 0.90189 0.72181 0.18052 0.0
H383 H 0.86327 0.68713 0.20077 0.0
H384 H 1.00071 0.67422 0.13492 0.0
H385 H 0.91982 0.58494 0.1887 0.0
H386 H 1.00901 0.73455 0.21268 0.0
H387 H 0.97096 0.74485 0.1844 0.0
H388 H 1.01167 0.73396 0.15972 0.0
H389 H 0.90639 0.62408 0.27597 0.0
H390 H 0.87921 0.59221 0.24068 0.0
H391 H 0.87013 0.63646 0.24673 0.0
C392 C 0.40782 0.29015 0.16447 0.0
C393 C 0.41377 0.31237 0.198 0.0
C394 C 0.42516 0.26104 0.16075 0.0
C395 C 0.44741 0.25278 0.19221 0.0
C396 C 0.45226 0.27425 0.22682 0.0
C397 C 0.43587 0.30415 0.22902 0.0
C398 C 0.41974 0.23923 0.12303 0.0
C399 C 0.47446 0.26546 0.26155 0.0
C400 C 0.45934 0.15679 0.18415 0.0
C401 C 0.49625 0.16282 0.16688 0.0
C402 C 0.44423 0.18604 0.19564 0.0
C403 C 0.466 0.222 0.18819 0.0
C404 C 0.50412 0.22818 0.17271 0.0
C405 C 0.51906 0.19848 0.16299 0.0
C406 C 0.40405 0.17836 0.21345 0.0
C407 C 0.52785 0.26595 0.1631 0.0
H408 H 0.38917 0.29519 0.14129 0.0
H409 H 0.44001 0.32107 0.25517 0.0
H410 H 0.44847 0.23851 0.11062 0.0
H411 H 0.40362 0.21082 0.12895 0.0
H412 H 0.40352 0.25054 0.10059 0.0
H413 H 0.47379 0.28366 0.28705 0.0
H414 H 0.46202 0.23697 0.2707 0.0
H415 H 0.50521 0.26791 0.25322 0.0
H416 H 0.44167 0.12924 0.18724 0.0
H417 H 0.54746 0.20332 0.14927 0.0
H418 H 0.38315 0.18326 0.19132 0.0
H419 H 0.40349 0.1968 0.23872 0.0
H420 H 0.39393 0.14984 0.22353 0.0
H421 H 0.51397 0.27685 0.13842 0.0
H422 H 0.55815 0.26638 0.15446 0.0
H423 H 0.52877 0.28446 0.18855 0.0
C424 C 0.23802 0.96449 0.64915 0.0
C425 C 0.21401 0.93003 0.65654 0.0
C426 C 0.22236 0.99232 0.63544 0.0
C427 C 0.18185 0.98501 0.62873 0.0
C428 C 0.15717 0.95115 0.63971 0.0
C429 C 0.17373 0.92389 0.65348 0.0
C430 C 0.24953 1.02822 0.62457 0.0
C431 C 0.11375 0.94252 0.63338 0.0
C432 C 0.13398 0.05942 0.60094 0.0
C433 C 0.13057 0.05455 0.56013 0.0
C434 C 0.15146 1.03754 0.62378 0.0
C435 C 0.16603 1.01044 0.60515 0.0
C436 C 0.16416 1.00647 0.5637 0.0
C437 C 0.14639 1.02871 0.54159 0.0
C438 C 0.15293 1.04249 0.66784 0.0
C439 C 0.17972 0.97789 0.54285 0.0
H440 H 0.26928 0.96864 0.65086 0.0
H441 H 0.15559 0.89688 0.6589 0.0
H442 H 0.25278 1.02976 0.59216 0.0
H443 H 0.23758 0.05112 0.63423 0.0
H444 H 0.27882 1.03165 0.63773 0.0
H445 H 0.09835 0.91721 0.64854 0.0
H446 H 0.10181 0.96512 0.64402 0.0
H447 H 0.10746 0.93906 0.60148 0.0
H448 H 0.12187 0.07965 0.61524 0.0
H449 H 0.14374 1.02505 0.51002 0.0
H450 H 0.18274 0.04448 0.67887 0.0
H451 H 0.13336 1.0185 0.68188 0.0
H452 H 0.14381 0.06709 0.67729 0.0
H453 H 0.21072 0.98108 0.55054 0.0
H454 H 0.17727 0.97927 0.51041 0.0
H455 H 0.16346 0.9505 0.55258 0.0
C456 C 0.74891 0.42467 0.90963 0.0
C457 C 0.712 0.42552 0.92389 0.0
C458 C 0.78352 0.44265 0.92932 0.0
C459 C 0.78176 0.46263 0.96439 0.0
C460 C 0.74439 0.46223 0.97989 0.0
C461 C 0.71017 0.44397 0.95944 0.0
C462 C 0.82214 0.44184 0.9113 0.0
C463 C 0.7405 0.48275 1.01709 0.0
C464 C 0.87412 0.4897 1.02865 0.0
C465 C 0.89103 0.52592 1.01767 0.0
C466 C 0.83865 0.46925 1.01228 0.0
C467 C 0.81888 0.48487 0.98374 0.0
C468 C 0.83547 0.52153 0.97282 0.0
C469 C 0.87099 0.54147 0.9898 0.0
C470 C 0.82256 0.43054 1.02522 0.0
C471 C 0.81591 0.53964 0.94257 0.0
H472 H 0.75065 0.41159 0.88155 0.0
H473 H 0.68197 0.44594 0.96997 0.0
H474 H 0.83745 0.4695 0.90154 0.0
H475 H 0.8409 0.43334 0.9334 0.0
H476 H 0.81881 0.42311 0.88566 0.0
H477 H 0.70988 0.47721 1.02737 0.0
H478 H 0.75851 0.47548 0.04075 0.0
H479 H 0.75139 0.51231 1.01191 0.0
H480 H 0.88882 0.47697 0.05005 0.0
H481 H 0.88332 0.56921 0.98073 0.0
H482 H 0.82132 0.41189 0.9998 0.0
H483 H 0.79239 0.42677 0.03623 0.0
H484 H 0.84038 0.42257 0.04867 0.0
H485 H 0.81421 0.52486 0.91416 0.0
H486 H 0.83161 0.56844 0.93784 0.0
H487 H 0.78567 0.53852 0.95183 0.0
C488 C 0.7856 0.67193 0.42338 0.0
C489 C 0.79273 0.70764 0.40935 0.0
C490 C 0.7503 0.65493 0.44266 0.0
C491 C 0.72127 0.67414 0.44911 0.0
C492 C 0.72848 0.71029 0.43501 0.0
C493 C 0.76372 0.72635 0.41526 0.0
C494 C 0.74428 0.6164 0.45659 0.0
C495 C 0.69917 0.73236 0.44142 0.0
C496 C 0.61506 0.62384 0.47443 0.0
C497 C 0.61408 0.62736 0.51555 0.0
C498 C 0.6496 0.63824 0.45259 0.0
C499 C 0.68429 0.65719 0.47197 0.0
C500 C 0.68337 0.66054 0.51351 0.0
C501 C 0.6487 0.64549 0.53459 0.0
C502 C 0.64888 0.63336 0.40859 0.0
C503 C 0.719 0.68071 0.53583 0.0
H504 H 0.80798 0.65741 0.41965 0.0
H505 H 0.76885 0.75389 0.4046 0.0
H506 H 0.7423 0.61565 0.4891 0.0
H507 H 0.71643 0.59935 0.44501 0.0
H508 H 0.76825 0.60428 0.44726 0.0
H509 H 0.70871 0.75987 0.42843 0.0
H510 H 0.67083 0.71819 0.4283 0.0
H511 H 0.69429 0.73527 0.47336 0.0
H512 H 0.58871 0.60993 0.45923 0.0
H513 H 0.64861 0.64857 0.56625 0.0
H514 H 0.672 0.62016 0.39931 0.0
H515 H 0.65504 0.66024 0.39417 0.0
H516 H 0.6204 0.61671 0.39791 0.0
H517 H 0.74344 0.66808 0.53016 0.0
H518 H 0.71383 0.68098 0.56801 0.0
H519 H 0.72827 0.70916 0.52548 0.0
C520 C 0.31204 0.37805 0.14176 0.0
C521 C 0.34209 0.40146 0.16262 0.0
C522 C 0.28028 0.38997 0.12805 0.0
C523 C 0.27882 0.42625 0.13536 0.0
C524 C 0.31101 0.45088 0.15313 0.0
C525 C 0.34234 0.43805 0.16677 0.0
C526 C 0.24659 0.36274 0.10946 0.0
C527 C 0.31081 0.48986 0.16102 0.0
C528 C 0.19554 0.4579 0.08967 0.0
C529 C 0.16848 0.45238 0.12064 0.0
C530 C 0.232 0.45031 0.09415 0.0
C531 C 0.24144 0.43654 0.13028 0.0
C532 C 0.21439 0.43115 0.16169 0.0
C533 C 0.17844 0.43934 0.15656 0.0
C534 C 0.26023 0.45663 0.06016 0.0
C535 C 0.22328 0.41636 0.20072 0.0
H536 H 0.31188 0.34961 0.13925 0.0
H537 H 0.36554 0.45583 0.18338 0.0
H538 H 0.22216 0.35569 0.13074 0.0
H539 H 0.23596 0.37434 0.08319 0.0
H540 H 0.25456 0.33737 0.10072 0.0
H541 H 0.34028 0.50677 0.16842 0.0
H542 H 0.29969 0.50172 0.1352 0.0
H543 H 0.29114 0.49107 0.1861 0.0
H544 H 0.18802 0.46767 0.0617 0.0
H545 H 0.15818 0.43579 0.18094 0.0
H546 H 0.26557 0.43045 0.05039 0.0
H547 H 0.28861 0.47436 0.06955 0.0
H548 H 0.24935 0.46934 0.03476 0.0
H549 H 0.22893 0.38922 0.19644 0.0
H550 H 0.19911 0.41381 0.22215 0.0
H551 H 0.24994 0.43436 0.21357 0.0
C552 C 0.60124 0.34104 0.93221 0.0
C553 C 0.64029 0.35597 0.92132 0.0
C554 C 0.58919 0.30811 0.95323 0.0
C555 C 0.61689 0.28963 0.96628 0.0
C556 C 0.65684 0.30574 0.95766 0.0
C557 C 0.66794 0.33812 0.93489 0.0
C558 C 0.54629 0.29253 0.96043 0.0
C559 C 0.68799 0.28855 0.97213 0.0
C560 C 0.57787 0.22033 0.04895 0.0
C561 C 0.56953 0.18664 1.02924 0.0
C562 C 0.59551 0.25338 1.02965 0.0
C563 C 0.60353 0.25372 0.98865 0.0
C564 C 0.59539 0.21961 0.96865 0.0
C565 C 0.57927 0.18672 0.98916 0.0
C566 C 0.60468 0.28817 0.05324 0.0
C567 C 0.60173 0.21796 0.92494 0.0
H568 H 0.57956 0.35487 0.92327 0.0
H569 H 0.69816 0.34883 0.92695 0.0
H570 H 0.53728 0.2643 0.94894 0.0
H571 H 0.54018 0.29145 0.9924 0.0
H572 H 0.52815 0.30872 0.94628 0.0
H573 H 0.71762 0.30646 0.96782 0.0
H574 H 0.68367 0.282 1.00381 0.0
H575 H 0.68607 0.26271 0.9561 0.0
H576 H 0.57025 0.2209 0.07975 0.0
H577 H 0.57229 0.16115 0.97324 0.0
H578 H 0.58355 0.30418 0.04606 0.0
H579 H 0.63413 0.30499 0.0458 0.0
H580 H 0.60323 0.28302 0.08536 0.0
H581 H 0.58297 0.23278 0.90958 0.0
H582 H 0.59499 0.18964 0.9136 0.0
H583 H 0.6323 0.23154 0.91749 0.0
C584 C 0.89726 0.83459 0.37333 0.0
C585 C 0.91219 0.80388 0.37812 0.0
C586 C 0.91432 0.86864 0.3915 0.0
C587 C 0.94854 0.8735 0.41465 0.0
C588 C 0.96563 0.84344 0.41699 0.0
C589 C 0.94706 0.80922 0.39957 0.0
C590 C 0.89367 0.8986 0.38845 0.0
C591 C 1.00264 0.84674 0.4398 0.0
C592 C 1.0038 0.97317 0.44017 0.0
C593 C 0.99361 0.97753 0.47969 0.0
C594 C 0.9906 0.93969 0.41939 0.0
C595 C 0.96504 0.90922 0.43752 0.0
C596 C 0.95435 0.91356 0.47736 0.0
C597 C 0.96915 0.94701 0.49792 0.0
C598 C 1.00441 0.93688 0.37784 0.0
C599 C 0.92648 0.88291 0.49825 0.0
H600 H 0.86959 0.83081 0.35846 0.0
H601 H 0.95842 0.78585 0.40508 0.0
H602 H 0.88273 0.904 0.41788 0.0
H603 H 0.91404 0.92409 0.37855 0.0
H604 H 0.8687 0.89163 0.36781 0.0
H605 H 1.01596 0.82387 0.43341 0.0
H606 H 0.02407 0.87266 0.43291 0.0
H607 H 0.9963 0.84686 0.47171 0.0
H608 H 0.02292 0.99598 0.42544 0.0
H609 H 0.96068 0.94951 0.52821 0.0
H610 H 0.97941 0.93205 0.35735 0.0
H611 H 1.01747 0.91338 0.37504 0.0
H612 H 0.02626 0.96179 0.36856 0.0
H613 H 0.899 0.87428 0.48134 0.0
H614 H 0.91959 0.89062 0.52845 0.0
H615 H 0.93908 0.85913 0.50005 0.0
C616 C 0.2913 0.81495 0.60546 0.0
C617 C 0.28791 0.85057 0.60471 0.0
C618 C 0.3222 0.80549 0.58623 0.0
C619 C 0.3501 0.83261 0.56595 0.0
C620 C 0.3439 0.86755 0.56118 0.0
C621 C 0.31288 0.87629 0.5811 0.0
C622 C 0.32736 0.76763 0.59156 0.0
C623 C 0.37207 0.89679 0.53869 0.0
C624 C 0.44513 0.81376 0.59027 0.0
C625 C 0.44786 0.78954 0.5599 0.0
C626 C 0.41584 0.83229 0.59004 0.0
C627 C 0.38894 0.82635 0.55858 0.0
C628 C 0.39569 0.8069 0.52489 0.0
C629 C 0.42536 0.78865 0.5259 0.0
C630 C 0.41034 0.85371 0.62621 0.0
C631 C 0.36887 0.80146 0.48992 0.0
H632 H 0.27159 0.79538 0.62375 0.0
H633 H 0.30993 0.90393 0.58077 0.0
H634 H 0.33421 0.75633 0.5631 0.0
H635 H 0.35209 0.76858 0.61173 0.0
H636 H 0.30097 0.74891 0.60409 0.0
H637 H 0.35744 0.91714 0.52713 0.0
H638 H 0.3957 0.91113 0.55861 0.0
H639 H 0.3855 0.88526 0.51388 0.0
H640 H 0.46263 0.81497 0.61649 0.0
H641 H 0.4283 0.77085 0.50171 0.0
H642 H 0.38537 0.83783 0.64355 0.0
H643 H 0.40374 0.87963 0.618 0.0
H644 H 0.43649 0.85987 0.64533 0.0
H645 H 0.34452 0.77712 0.49469 0.0
H646 H 0.38434 0.79687 0.46269 0.0
H647 H 0.35637 0.82508 0.48564 0.0
C648 C 0.74061 0.82779 0.79507 0.0
C649 C 0.72983 0.8573 0.81223 0.0
C650 C 0.77459 0.83317 0.77221 0.0
C651 C 0.79829 0.86883 0.76723 0.0
C652 C 0.78738 0.89859 0.78488 0.0
C653 C 0.75326 0.89239 0.80711 0.0
C654 C 0.78545 0.80082 0.75406 0.0
C655 C 0.81215 0.937 0.781 0.0
C656 C 0.90554 0.89451 0.74399 0.0
C657 C 0.90539 0.90905 0.70622 0.0
C658 C 0.87064 0.87823 0.7633 0.0
C659 C 0.83485 0.87583 0.74403 0.0
C660 C 0.83469 0.88671 0.70442 0.0
C661 C 0.86995 0.90349 0.68606 0.0
C662 C 0.87213 0.86706 0.80561 0.0
C663 C 0.7971 0.88389 0.68263 0.0
H664 H 0.72262 0.80064 0.79997 0.0
H665 H 0.74543 0.91488 0.82179 0.0
H666 H 0.79196 0.8055 0.72235 0.0
H667 H 0.81215 0.79693 0.76824 0.0
H668 H 0.762 0.77548 0.75743 0.0
H669 H 0.79953 0.95697 0.79683 0.0
H670 H 0.84166 0.93894 0.79285 0.0
H671 H 0.81549 0.94469 0.74958 0.0
H672 H 0.93285 0.89776 0.75941 0.0
H673 H 0.86928 0.91463 0.65695 0.0
H674 H 0.84999 0.84143 0.8116 0.0
H675 H 0.8656 0.88834 0.82499 0.0
H676 H 0.90124 0.86354 0.81362 0.0
H677 H 0.80185 0.88729 0.65047 0.0
H678 H 0.78344 0.90536 0.69337 0.0
H679 H 0.7763 0.85729 0.68811 0.0
C680 C 0.79606 0.22741 0.43515 0.0
C681 C 0.81456 0.26411 0.42994 0.0
C682 C 0.78306 0.20476 0.40281 0.0
C683 C 0.78817 0.21957 0.36459 0.0
C684 C 0.80933 0.25607 0.35916 0.0
C685 C 0.82238 0.27796 0.39209 0.0
C686 C 0.76097 0.16593 0.40984 0.0
C687 C 0.81532 0.27284 0.31886 0.0
C688 C 0.76258 0.16028 0.2736 0.0
C689 C 0.72523 0.16425 0.26536 0.0
C690 C 0.78325 0.17732 0.3065 0.0
C691 C 0.76619 0.19901 0.33128 0.0
C692 C 0.72812 0.20237 0.32358 0.0
C693 C 0.70811 0.1849 0.29074 0.0
C694 C 0.82356 0.17282 0.31427 0.0
C695 C 0.70893 0.22535 0.34934 0.0
H696 H 0.78953 0.21705 0.4646 0.0
H697 H 0.83667 0.30646 0.38853 0.0
H698 H 0.72938 0.16341 0.40613 0.0
H699 H 0.76953 0.14742 0.38823 0.0
H700 H 0.76585 0.1569 0.43994 0.0
H701 H 0.83669 0.29975 0.31922 0.0
H702 H 0.82549 0.25478 0.2979 0.0
H703 H 0.78721 0.27644 0.30775 0.0
H704 H 0.77571 0.14408 0.25412 0.0
H705 H 0.6795 0.1885 0.28412 0.0
H706 H 0.82569 0.16369 0.34487 0.0
H707 H 0.84514 0.19934 0.31106 0.0
H708 H 0.83154 0.15298 0.29383 0.0
H709 H 0.70795 0.21607 0.38022 0.0
H710 H 0.67881 0.22434 0.33978 0.0
H711 H 0.7262 0.25402 0.34883 0.0
C712 C 0.38796 0.74877 0.34154 0.0
C713 C 0.40678 0.75464 0.30474 0.0
C714 C 0.40062 0.72927 0.37212 0.0
C715 C 0.43422 0.7158 0.36713 0.0
C716 C 0.45536 0.7244 0.33127 0.0
C717 C 0.44111 0.74287 0.30052 0.0
C718 C 0.376 0.72062 0.40869 0.0
C719 C 0.49225 0.71253 0.32447 0.0
C720 C 0.47701 0.68355 0.46149 0.0
C721 C 0.46543 0.64533 0.45861 0.0
C722 C 0.46812 0.70648 0.43193 0.0
C723 C 0.44578 0.69145 0.39844 0.0
C724 C 0.43342 0.65284 0.39571 0.0
C725 C 0.44393 0.63051 0.42508 0.0
C726 C 0.48363 0.74701 0.43622 0.0
C727 C 0.4083 0.63494 0.36193 0.0
H728 H 0.36085 0.7566 0.34501 0.0
H729 H 0.45551 0.74604 0.27219 0.0
H730 H 0.36316 0.69089 0.41014 0.0
H731 H 0.39401 0.72853 0.43538 0.0
H732 H 0.35204 0.73455 0.40934 0.0
H733 H 0.50903 0.72669 0.29909 0.0
H734 H 0.51095 0.71779 0.35101 0.0
H735 H 0.485 0.68293 0.31849 0.0
H736 H 0.49397 0.69577 0.48672 0.0
H737 H 0.43448 0.60125 0.42216 0.0
H738 H 0.45985 0.76089 0.43342 0.0
H739 H 0.50469 0.75714 0.41221 0.0
H740 H 0.49842 0.75481 0.46484 0.0
H741 H 0.39887 0.60497 0.36498 0.0
H742 H 0.4245 0.64137 0.33393 0.0
H743 H 0.38209 0.64569 0.35989 0.0
C744 C 0.10056 0.46259 0.80907 0.0
C745 C 0.13368 0.44904 0.81342 0.0
C746 C 0.08545 0.47972 0.8407 0.0
C747 C 0.10323 0.48336 0.87853 0.0
C748 C 0.13615 0.46875 0.88318 0.0
C749 C 0.15093 0.45216 0.85089 0.0
C750 C 0.05077 0.4948 0.83328 0.0
C751 C 0.15643 0.4713 0.92231 0.0
C752 C 0.09013 0.56316 0.94437 0.0
C753 C 0.06085 0.54698 0.97146 0.0
C754 C 0.10467 0.54288 0.91547 0.0
C755 C 0.08933 0.50475 0.91194 0.0
C756 C 0.06023 0.48792 0.93976 0.0
C757 C 0.04662 0.50897 0.96912 0.0
C758 C 0.13597 0.56274 0.88777 0.0
C759 C 0.04235 0.44764 0.9376 0.0
H760 H 0.08694 0.4605 0.78043 0.0
H761 H 0.17637 0.44178 0.85485 0.0
H762 H 0.02752 0.4838 0.855 0.0
H763 H 0.05923 0.52472 0.83708 0.0
H764 H 0.0388 0.48833 0.80324 0.0
H765 H 0.17978 0.45663 0.9223 0.0
H766 H 0.16946 0.5002 0.92983 0.0
H767 H 0.13516 0.45997 0.94575 0.0
H768 H 0.10142 0.59239 0.94526 0.0
H769 H 0.02352 0.49584 0.98896 0.0
H770 H 0.12455 0.56047 0.85733 0.0
H771 H 0.16099 0.55023 0.88808 0.0
H772 H 0.14662 0.59196 0.89547 0.0
H773 H 0.0263 0.44087 0.90953 0.0
H774 H 0.02193 0.43797 0.96228 0.0
H775 H 0.06543 0.43271 0.93788 0.0
C776 C 0.64202 0.92916 0.88239 0.0
C777 C 0.62801 0.89164 0.88733 0.0
C778 C 0.62402 0.95353 0.90093 0.0
C779 C 0.59211 0.94007 0.92627 0.0
C780 C 0.57677 0.90212 0.93013 0.0
C781 C 0.59473 0.8783 0.91017 0.0
C782 C 0.64102 0.99376 0.8956 0.0
C783 C 0.54333 0.88673 0.95756 0.0
C784 C 0.5898 1.00265 1.01227 0.0
C785 C 0.55978 1.01855 1.00178 0.0
C786 C 0.5994 0.97604 0.98861 0.0
C787 C 0.57911 0.96565 0.953 0.0
C788 C 0.54849 0.98135 0.9423 0.0
C789 C 0.53879 1.00739 0.96719 0.0
C790 C 0.63174 0.95945 1.00154 0.0
C791 C 0.52684 0.97142 0.90413 0.0
H792 H 0.66841 0.9396 0.86571 0.0
H793 H 0.58394 0.84925 0.91379 0.0
H794 H 0.61763 1.00785 0.89095 0.0
H795 H 0.65704 1.00536 0.92253 0.0
H796 H 0.6615 0.99958 0.87036 0.0
H797 H 0.53157 0.85704 0.95328 0.0
H798 H 0.55341 0.89176 0.98839 0.0
H799 H 0.5195 0.90036 0.95335 0.0
H800 H 0.6056 1.01072 0.03941 0.0
H801 H 0.51549 1.01962 0.95914 0.0
H802 H 0.65655 0.96713 0.9808 0.0
H803 H 0.6216 0.9294 1.00119 0.0
H804 H 0.64242 0.96843 1.03151 0.0
H805 H 0.54712 0.9801 0.87915 0.0
H806 H 0.50225 0.98437 0.90124 0.0
H807 H 0.51541 0.94158 0.90171 0.0
C808 C 0.89239 0.25798 0.47735 0.0
C809 C 0.86006 0.25694 0.50123 0.0
C810 C 0.91334 0.2315 0.48069 0.0
C811 C 0.90093 0.20314 0.50808 0.0
C812 C 0.86747 0.20153 0.53145 0.0
C813 C 0.84757 0.22872 0.52791 0.0
C814 C 0.94917 0.23436 0.45575 0.0
C815 C 0.85297 0.17133 0.5605 0.0
C816 C 0.93538 0.11662 0.50464 0.0
C817 C 0.9606 0.12236 0.53677 0.0
C818 C 0.91657 0.14339 0.49369 0.0
C819 C 0.92437 0.17666 0.51483 0.0
C820 C 0.95215 0.18333 0.5454 0.0
C821 C 0.96939 0.15579 0.55646 0.0
C822 C 0.88668 0.13524 0.46129 0.0
C823 C 0.96222 0.21885 0.56784 0.0
H824 H 0.90136 0.27982 0.45641 0.0
H825 H 0.82177 0.22767 0.54536 0.0
H826 H 0.97518 0.23882 0.4749 0.0
H827 H 0.9471 0.20866 0.43938 0.0
H828 H 0.95363 0.25697 0.4344 0.0
H829 H 0.82494 0.17263 0.57423 0.0
H830 H 0.84904 0.14458 0.54574 0.0
H831 H 0.8748 0.17292 0.5841 0.0
H832 H 0.92878 0.0906 0.48959 0.0
H833 H 0.98933 0.1602 0.5811 0.0
H834 H 0.8916 0.15801 0.4402 0.0
H835 H 0.85726 0.13214 0.47407 0.0
H836 H 0.8871 0.10995 0.44502 0.0
H837 H 0.96819 0.24208 0.54729 0.0
H838 H 0.98799 0.22136 0.58707 0.0
H839 H 0.93717 0.22092 0.58646 0.0
C840 C 0.30049 0.71415 0.16756 0.0
C841 C 0.29967 0.72726 0.20606 0.0
C842 C 0.26589 0.69652 0.14774 0.0
C843 C 0.22928 0.69226 0.16658 0.0
C844 C 0.22848 0.70575 0.20552 0.0
C845 C 0.26359 0.72275 0.2248 0.0
C846 C 0.26853 0.68228 0.10664 0.0
C847 C 0.19044 0.70238 0.22681 0.0
C848 C 0.136 0.67564 0.10448 0.0
C849 C 0.11996 0.63811 0.10865 0.0
C850 C 0.17151 0.69343 0.12268 0.0
C851 C 0.19193 0.67347 0.14585 0.0
C852 C 0.17618 0.63552 0.14972 0.0
C853 C 0.14067 0.61843 0.13122 0.0
C854 C 0.18696 0.73384 0.11752 0.0
C855 C 0.19667 0.61289 0.17386 0.0
H856 H 0.32838 0.71753 0.15312 0.0
H857 H 0.26294 0.73302 0.25449 0.0
H858 H 0.25522 0.65262 0.10564 0.0
H859 H 0.25193 0.69515 0.08609 0.0
H860 H 0.29905 0.68749 0.0961 0.0
H861 H 0.19459 0.71475 0.25663 0.0
H862 H 0.17152 0.71576 0.20967 0.0
H863 H 0.17483 0.67335 0.22956 0.0
H864 H 0.12057 0.69135 0.08728 0.0
H865 H 0.12896 0.58947 0.13486 0.0
H866 H 0.21674 0.73991 0.10497 0.0
H867 H 0.18899 0.74765 0.14652 0.0
H868 H 0.16827 0.74547 0.09799 0.0
H869 H 0.18149 0.58357 0.17301 0.0
H870 H 0.19863 0.6223 0.20487 0.0
H871 H 0.22684 0.61627 0.163 0.0
C872 C 0.25378 0.42428 0.70092 0.0
C873 C 0.22007 0.43725 0.69961 0.0
C874 C 0.28783 0.4409 0.67913 0.0
C875 C 0.28948 0.47262 0.65656 0.0
C876 C 0.25532 0.4856 0.655 0.0
C877 C 0.22137 0.46773 0.676 0.0
C878 C 0.32258 0.42503 0.68134 0.0
C879 C 0.25514 0.51957 0.63256 0.0
C880 C 0.39033 0.53777 0.63278 0.0
C881 C 0.39556 0.53067 0.59278 0.0
C882 C 0.35624 0.51948 0.65368 0.0
C883 C 0.3266 0.49234 0.63483 0.0
C884 C 0.33224 0.48469 0.59466 0.0
C885 C 0.3659 0.50407 0.57426 0.0
C886 C 0.35171 0.52956 0.69601 0.0
C887 C 0.30271 0.45557 0.57309 0.0
H888 H 0.25424 0.40212 0.72047 0.0
H889 H 0.19616 0.47888 0.6758 0.0
H890 H 0.33395 0.422 0.65144 0.0
H891 H 0.34617 0.44365 0.69811 0.0
H892 H 0.31547 0.39813 0.69589 0.0
H893 H 0.22645 0.52619 0.63381 0.0
H894 H 0.2775 0.54281 0.64485 0.0
H895 H 0.26279 0.51648 0.60135 0.0
H896 H 0.4127 0.55807 0.64768 0.0
H897 H 0.36927 0.49777 0.54357 0.0
H898 H 0.3499 0.50565 0.71498 0.0
H899 H 0.32418 0.53795 0.69987 0.0
H900 H 0.37626 0.55198 0.70625 0.0
H901 H 0.29778 0.42951 0.5891 0.0
H902 H 0.31199 0.45136 0.5426 0.0
H903 H 0.27444 0.4629 0.5719 0.0
C904 C 0.76325 0.84084 0.89463 0.0
C905 C 0.72507 0.82033 0.88896 0.0
C906 C 0.79189 0.8246 0.90843 0.0
C907 C 0.78178 0.78704 0.917 0.0
C908 C 0.74302 0.76631 0.91148 0.0
C909 C 0.71502 0.78334 0.89754 0.0
C910 C 0.8329 0.84759 0.91379 0.0
C911 C 0.73124 0.72617 0.91999 0.0
C912 C 0.8638 0.73976 0.91857 0.0
C913 C 0.87066 0.73811 0.95898 0.0
C914 C 0.83457 0.75516 0.90451 0.0
C915 C 0.81186 0.76944 0.93153 0.0
C916 C 0.81838 0.76752 0.97238 0.0
C917 C 0.84762 0.75169 0.98564 0.0
C918 C 0.82813 0.75635 0.86076 0.0
C919 C 0.79496 0.7828 1.00202 0.0
H920 H 0.77052 0.86959 0.88819 0.0
H921 H 0.68529 0.76785 0.89295 0.0
H922 H 0.85331 0.8366 0.8956 0.0
H923 H 0.83592 0.87634 0.90552 0.0
H924 H 0.84187 0.84671 0.94487 0.0
H925 H 0.6999 0.71403 0.91418 0.0
H926 H 0.74864 0.71187 0.90164 0.0
H927 H 0.73737 0.72135 0.95114 0.0
H928 H 0.88128 0.72885 0.89793 0.0
H929 H 0.85314 0.75074 1.01686 0.0
H930 H 0.83221 0.78484 0.85122 0.0
H931 H 0.79779 0.74175 0.85346 0.0
H932 H 0.84828 0.74402 0.84366 0.0
H933 H 0.79943 0.81237 0.99726 0.0
H934 H 0.80309 0.77845 1.03275 0.0
H935 H 0.76349 0.77004 0.99809 0.0
C936 C 0.40899 0.85317 0.25853 0.0
C937 C 0.41846 0.82217 0.24278 0.0
C938 C 0.42585 0.88869 0.24408 0.0
C939 C 0.45313 0.89415 0.21257 0.0
C940 C 0.46443 0.86315 0.19809 0.0
C941 C 0.44707 0.82802 0.21314 0.0
C942 C 0.41257 0.92022 0.26108 0.0
C943 C 0.49327 0.86673 0.16486 0.0
C944 C 0.46838 0.97962 0.1457 0.0
C945 C 0.50337 1.00222 0.16002 0.0
C946 C 0.45159 0.94486 0.16252 0.0
C947 C 0.46977 0.93191 0.19481 0.0
C948 C 0.50462 0.95506 0.20965 0.0
C949 C 0.52079 0.98931 0.19223 0.0
C950 C 0.41459 0.9216 0.1452 0.0
C951 C 0.52541 0.94341 0.24385 0.0
H952 H 0.38576 0.84921 0.28001 0.0
H953 H 0.45352 0.80446 0.19935 0.0
H954 H 0.438 0.94262 0.26921 0.0
H955 H 0.39582 0.93085 0.23863 0.0
H956 H 0.3939 0.91241 0.28743 0.0
H957 H 0.50119 0.84083 0.15853 0.0
H958 H 0.48072 0.87538 0.1379 0.0
H959 H 0.52015 0.88791 0.17188 0.0
H960 H 0.45454 0.98868 0.12076 0.0
H961 H 0.54778 1.00606 0.20388 0.0
H962 H 0.39191 0.91439 0.1683 0.0
H963 H 0.41981 0.89585 0.13385 0.0
H964 H 0.40336 0.93538 0.12089 0.0
H965 H 0.50543 0.93665 0.26934 0.0
H966 H 0.5515 0.96472 0.25299 0.0
H967 H 0.53461 0.91851 0.23587 0.0
C968 C 0.11387 0.35377 0.68379 0.0
C969 C 0.15059 0.36544 0.70195 0.0
C970 C 0.10187 0.31993 0.6636 0.0
C971 C 0.12723 0.2965 0.66013 0.0
C972 C 0.16505 0.30886 0.67691 0.0
C973 C 0.17595 0.34254 0.69784 0.0
C974 C 0.06117 0.30862 0.64723 0.0
C975 C 0.19387 0.28592 0.67374 0.0
C976 C 0.0831 0.19283 0.64348 0.0
C977 C 0.08574 0.18835 0.60248 0.0
C978 C 0.09629 0.22732 0.66228 0.0
C979 C 0.11367 0.25893 0.6402 0.0
C980 C 0.11695 0.25446 0.59886 0.0
C981 C 0.10273 0.21979 0.5807 0.0
C982 C 0.09103 0.22999 0.70608 0.0
C983 C 0.13573 0.28646 0.57357 0.0
H984 H 0.09376 0.3708 0.68661 0.0
H985 H 0.20379 0.3501 0.71248 0.0
H986 H 0.06208 0.3026 0.61538 0.0
H987 H 0.0448 0.28335 0.66175 0.0
H988 H 0.045 0.32981 0.65156 0.0
H989 H 0.22324 0.30061 0.6842 0.0
H990 H 0.18364 0.26102 0.69151 0.0
H991 H 0.19616 0.27722 0.64284 0.0
H992 H 0.07 0.16928 0.66105 0.0
H993 H 0.10537 0.21729 0.54914 0.0
H994 H 0.07326 0.24947 0.71265 0.0
H995 H 0.11969 0.24055 0.72038 0.0
H996 H 0.07665 0.20339 0.71929 0.0
H997 H 0.11849 0.30701 0.57493 0.0
H998 H 0.13821 0.27858 0.54238 0.0
H999 H 0.16523 0.2996 0.58485 0.0
C1000 C 0.75197 0.32619 0.55377 0.0
C1001 C 0.78189 0.34455 0.52903 0.0
C1002 C 0.72119 0.34151 0.56364 0.0
C1003 C 0.72065 0.37573 0.54806 0.0
C1004 C 0.75319 0.396 0.52685 0.0
C1005 C 0.7835 0.38 0.51748 0.0
C1006 C 0.68732 0.31931 0.58679 0.0
C1007 C 0.754 0.43278 0.51012 0.0
C1008 C 0.62743 0.3915 0.50817 0.0
C1009 C 0.61997 0.41706 0.53483 0.0
C1010 C 0.65895 0.37627 0.51354 0.0
C1011 C 0.68364 0.38692 0.54643 0.0
C1012 C 0.67475 0.41085 0.5749 0.0
C1013 C 0.64297 0.42576 0.56869 0.0
C1014 C 0.66733 0.35074 0.48244 0.0
C1015 C 0.69998 0.42241 0.61062 0.0
H1016 H 0.75086 0.29857 0.56226 0.0
H1017 H 0.80679 0.3938 0.49819 0.0
H1018 H 0.67577 0.33669 0.60748 0.0
H1019 H 0.66353 0.30646 0.56629 0.0
H1020 H 0.69558 0.29749 0.6036 0.0
H1021 H 0.78353 0.44715 0.49981 0.0
H1022 H 0.73377 0.4294 0.4848 0.0
H1023 H 0.74414 0.44999 0.53231 0.0
H1024 H 0.60998 0.38496 0.4818 0.0
H1025 H 0.63686 0.44514 0.58971 0.0
H1026 H 0.67295 0.32619 0.49606 0.0
H1027 H 0.69381 0.36451 0.46585 0.0
H1028 H 0.64298 0.34207 0.46126 0.0
H1029 H 0.70896 0.39908 0.62345 0.0
H1030 H 0.68486 0.43467 0.63356 0.0
H1031 H 0.72679 0.44289 0.60191 0.0
loop_
_geom_bond_atom_site_label_1
_geom_bond_atom_site_label_2
_geom_bond_distance
_geom_bond_site_symmetry_2
_ccdc_geom_bond_type
C0 N1 1.317 . S
C0 N2 1.348 . S
C0 C3 1.485 . S
N1 C0 1.317 . S
N1 N5 1.370 . S
N2 C0 1.348 . S
N2 C4 1.346 . S
C3 C0 1.485 . S
C3 H7 0.960 . S
C3 H8 0.961 . S
C3 H9 0.960 . S
C4 N2 1.346 . S
C4 N5 1.307 . S
C4 C6 1.486 . S
N5 N1 1.370 . S
N5 C4 1.307 . S
C6 C4 1.486 . S
C6 H10 0.960 . S
C6 H11 0.960 . S
C6 H12 0.959 . S
H7 C3 0.960 . S
H8 C3 0.961 . S
H9 C3 0.960 . S
H10 C6 0.960 . S
H11 C6 0.960 . S
H12 C6 0.959 . S
C13 N14 1.317 . S
C13 N15 1.348 . S
C13 C16 1.485 . S
N14 C13 1.317 . S
N14 N18 1.370 . S
N15 C13 1.348 . S
N15 C17 1.346 . S
C16 C13 1.485 . S
C16 H20 0.960 . S
C16 H21 0.961 . S
C16 H22 0.960 . S
C17 N15 1.346 . S
C17 N18 1.307 . S
C17 C19 1.486 . S
N18 N14 1.370 . S
N18 C17 1.307 . S
C19 C17 1.486 . S
C19 H23 0.960 . S
C19 H24 0.960 . S
C19 H25 0.959 . S
H20 C16 0.960 . S
H21 C16 0.961 . S
H22 C16 0.960 . S
H23 C19 0.960 . S
H24 C19 0.960 . S
H25 C19 0.959 . S
C26 N27 1.317 . S
C26 N28 1.348 . S
C26 C29 1.485 . S
N27 C26 1.317 . S
N27 N31 1.370 . S
N28 C26 1.348 . S
N28 C30 1.346 . S
C29 C26 1.485 . S
C29 H33 0.960 . S
C29 H34 0.961 . S
C29 H35 0.960 . S
C30 N28 1.346 . S
C30 N31 1.307 . S
C30 C32 1.486 . S
N31 N27 1.370 . S
N31 C30 1.307 . S
C32 C30 1.486 . S
C32 H36 0.960 . S
C32 H37 0.960 . S
C32 H38 0.959 . S
H33 C29 0.960 . S
H34 C29 0.961 . S
H35 C29 0.960 . S
H36 C32 0.960 . S
H37 C32 0.960 . S
H38 C32 0.959 . S
C39 N40 1.317 . S
C39 N41 1.348 . S
C39 C42 1.485 . S
N40 C39 1.317 . S
N40 N44 1.370 . S
N41 C39 1.348 . S
N41 C43 1.346 . S
C42 C39 1.485 . S
C42 H46 0.960 . S
C42 H47 0.961 . S
C42 H48 0.960 . S
C43 N41 1.346 . S
C43 N44 1.307 . S
C43 C45 1.486 . S
N44 N40 1.370 . S
N44 C43 1.307 . S
C45 C43 1.486 . S
C45 H49 0.960 . S
C45 H50 0.960 . S
C45 H51 0.959 . S
H46 C42 0.960 . S
H47 C42 0.961 . S
H48 C42 0.960 . S
H49 C45 0.960 . S
H50 C45 0.960 . S
H51 C45 0.959 . S
C52 N53 1.317 . S
C52 N54 1.348 . S
C52 C55 1.485 . S
N53 C52 1.317 . S
N53 N57 1.370 . S
N54 C52 1.348 . S
N54 C56 1.346 . S
C55 C52 1.485 . S
C55 H59 0.960 . S
C55 H60 0.961 . S
C55 H61 0.960 . S
C56 N54 1.346 . S
C56 N57 1.307 . S
C56 C58 1.486 . S
N57 N53 1.370 . S
N57 C56 1.307 . S
C58 C56 1.486 . S
C58 H62 0.960 . S
C58 H63 0.960 . S
C58 H64 0.959 . S
H59 C55 0.960 . S
H60 C55 0.961 . S
H61 C55 0.960 . S
H62 C58 0.960 . S
H63 C58 0.960 . S
H64 C58 0.959 . S
C65 N66 1.317 . S
C65 N67 1.348 . S
C65 C68 1.485 . S
N66 C65 1.317 . S
N66 N70 1.370 . S
N67 C65 1.348 . S
N67 C69 1.346 . S
C68 C65 1.485 . S
C68 H72 0.960 . S
C68 H73 0.961 . S
C68 H74 0.960 . S
C69 N67 1.346 . S
C69 N70 1.307 . S
C69 C71 1.486 . S
N70 N66 1.370 . S
N70 C69 1.307 . S
C71 C69 1.486 . S
C71 H75 0.960 . S
C71 H76 0.960 . S
C71 H77 0.959 . S
H72 C68 0.960 . S
H73 C68 0.961 . S
H74 C68 0.960 . S
H75 C71 0.960 . S
H76 C71 0.960 . S
H77 C71 0.959 . S
C78 N79 1.317 . S
C78 N80 1.348 . S
C78 C81 1.485 . S
N79 C78 1.317 . S
N79 N83 1.370 . S
N80 C78 1.348 . S
N80 C82 1.346 . S
C81 C78 1.485 . S
C81 H85 0.960 . S
C81 H86 0.961 . S
C81 H87 0.960 . S
C82 N80 1.346 . S
C82 N83 1.307 . S
C82 C84 1.486 . S
N83 N79 1.370 . S
N83 C82 1.307 . S
C84 C82 1.486 . S
C84 H88 0.960 . S
C84 H89 0.960 . S
C84 H90 0.959 . S
H85 C81 0.960 . S
H86 C81 0.961 . S
H87 C81 0.960 . S
H88 C84 0.960 . S
H89 C84 0.960 . S
H90 C84 0.959 . S
C91 N92 1.317 . S
C91 N93 1.348 . S
C91 C94 1.485 . S
N92 C91 1.317 . S
N92 N96 1.370 . S
N93 C91 1.348 . S
N93 C95 1.346 . S
C94 C91 1.485 . S
C94 H98 0.960 . S
C94 H99 0.961 . S
C94 H100 0.960 . S
C95 N93 1.346 . S
C95 N96 1.307 . S
C95 C97 1.486 . S
N96 N92 1.370 . S
N96 C95 1.307 . S
C97 C95 1.486 . S
C97 H101 0.960 . S
C97 H102 0.960 . S
C97 H103 0.959 . S
H98 C94 0.960 . S
H99 C94 0.961 . S
H100 C94 0.960 . S
H101 C97 0.960 . S
H102 C97 0.960 . S
H103 C97 0.959 . S
Ho104 C107 2.811 . S
Ho104 O124 2.322 . S
Ho104 O126 2.378 . S
Ho104 O127 2.524 . S
Ho104 O128 2.381 . S
Ho104 O129 2.669 . S
Ho104 O131 2.346 1_545 S
Ho104 O135 2.305 . S
Ho105 C116 2.811 1_445 S
Ho105 O125 2.346 . S
Ho105 O129 2.305 . S
Ho105 O130 2.322 1_445 S
Ho105 O132 2.378 1_445 S
Ho105 O133 2.524 1_445 S
Ho105 O134 2.381 1_455 S
Ho105 O135 2.669 . S
C106 O124 1.259 . S
C106 O125 1.268 . S
C107 Ho104 2.811 . S
C107 C108 1.488 . S
C107 O126 1.215 . S
C107 O127 1.289 . S
C108 C107 1.488 . S
C108 C109 1.348 . S
C108 C113 1.413 . S
C109 C108 1.348 . S
C109 C110 1.442 . S
C109 H136 0.930 . S
C110 C109 1.442 . S
C110 C111 1.381 . S
C110 H137 0.931 . S
C111 C110 1.381 . S
C111 C112 1.321 . S
C112 C111 1.321 . S
C112 C113 1.403 . S
C112 H138 0.934 . S
C113 C108 1.413 . S
C113 C112 1.403 . S
C113 H139 0.930 . S
C114 O128 1.275 1_565 S
C114 O129 1.256 1_565 S
C115 O130 1.259 . S
C115 O131 1.268 1_655 S
C116 Ho105 2.811 1_665 S
C116 C117 1.488 . S
C116 O132 1.215 . S
C116 O133 1.289 . S
C117 C116 1.488 . S
C117 C118 1.348 . S
C117 C122 1.413 . S
C118 C117 1.348 . S
C118 C119 1.442 . S
C118 H140 0.930 . S
C119 C118 1.442 . S
C119 C120 1.381 . S
C119 H141 0.931 . S
C120 C119 1.381 . S
C120 C121 1.321 . S
C121 C120 1.321 . S
C121 C122 1.403 . S
C121 H142 0.934 . S
C122 C117 1.413 . S
C122 C121 1.403 . S
C122 H143 0.930 . S
C123 O134 1.275 . S
C123 O135 1.256 1_655 S
O124 Ho104 2.322 . S
O124 C106 1.259 . S
O125 Ho105 2.346 . S
O125 C106 1.268 . S
O126 Ho104 2.378 . S
O126 C107 1.215 . S
O127 Ho104 2.524 . S
O127 C107 1.289 . S
O128 Ho104 2.381 . S
O128 C114 1.275 1_545 S
O129 Ho104 2.669 . S
O129 Ho105 2.305 . S
O129 C114 1.256 1_545 S
O130 Ho105 2.322 1_665 S
O130 C115 1.259 . S
O131 Ho104 2.346 1_565 S
O131 C115 1.268 1_455 S
O132 Ho105 2.378 1_665 S
O132 C116 1.215 . S
O133 Ho105 2.524 1_665 S
O133 C116 1.289 . S
O134 Ho105 2.381 1_655 S
O134 C123 1.275 . S
O135 Ho104 2.305 . S
O135 Ho105 2.669 . S
O135 C123 1.256 1_455 S
H136 C109 0.930 . S
H137 C110 0.931 . S
H138 C112 0.934 . S
H139 C113 0.930 . S
H140 C118 0.930 . S
H141 C119 0.931 . S
H142 C121 0.934 . S
H143 C122 0.930 . S
Ho144 C147 2.811 . S
Ho144 O164 2.322 . S
Ho144 O166 2.378 . S
Ho144 O167 2.524 . S
Ho144 O168 2.381 1_545 S
Ho144 O169 2.669 . S
Ho144 O171 2.346 . S
Ho144 O175 2.305 . S
Ho145 C156 2.811 1_554 S
Ho145 O165 2.346 . S
Ho145 O169 2.305 . S
Ho145 O170 2.322 1_554 S
Ho145 O172 2.378 1_554 S
Ho145 O173 2.524 1_544 S
Ho145 O174 2.381 1_554 S
Ho145 O175 2.669 . S
C146 O164 1.259 . S
C146 O165 1.268 . S
C147 Ho144 2.811 . S
C147 C148 1.488 . S
C147 O166 1.215 . S
C147 O167 1.289 . S
C148 C147 1.488 . S
C148 C149 1.348 . S
C148 C153 1.413 . S
C149 C148 1.348 . S
C149 C150 1.442 . S
C149 H176 0.930 . S
C150 C149 1.442 . S
C150 C151 1.381 . S
C150 H177 0.931 . S
C151 C150 1.381 . S
C151 C152 1.321 . S
C152 C151 1.321 . S
C152 C153 1.403 . S
C152 H178 0.934 . S
C153 C148 1.413 . S
C153 C152 1.403 . S
C153 H179 0.930 . S
C154 O168 1.275 . S
C154 O169 1.256 1_565 S
C155 O170 1.259 1_554 S
C155 O171 1.268 . S
C156 Ho145 2.811 1_556 S
C156 C157 1.488 1_545 S
C156 O172 1.215 . S
C156 O173 1.289 1_545 S
C157 C156 1.488 1_565 S
C157 C158 1.348 . S
C157 C162 1.413 1_565 S
C158 C157 1.348 . S
C158 C159 1.442 . S
C158 H180 0.930 . S
C159 C158 1.442 . S
C159 C160 1.381 . S
C159 H181 0.931 . S
C160 C159 1.381 . S
C160 C161 1.321 . S
C161 C160 1.321 . S
C161 C162 1.403 1_565 S
C161 H182 0.934 . S
C162 C157 1.413 1_545 S
C162 C161 1.403 1_545 S
C162 H183 0.930 . S
C163 O174 1.275 1_554 S
C163 O175 1.256 . S
O164 Ho144 2.322 . S
O164 C146 1.259 . S
O165 Ho145 2.346 . S
O165 C146 1.268 . S
O166 Ho144 2.378 . S
O166 C147 1.215 . S
O167 Ho144 2.524 . S
O167 C147 1.289 . S
O168 Ho144 2.381 1_565 S
O168 C154 1.275 . S
O169 Ho144 2.669 . S
O169 Ho145 2.305 . S
O169 C154 1.256 1_545 S
O170 Ho145 2.322 1_556 S
O170 C155 1.259 1_556 S
O171 Ho144 2.346 . S
O171 C155 1.268 . S
O172 Ho145 2.378 1_556 S
O172 C156 1.215 . S
O173 Ho145 2.524 1_566 S
O173 C156 1.289 1_565 S
O174 Ho145 2.381 1_556 S
O174 C163 1.275 1_556 S
O175 Ho144 2.305 . S
O175 Ho145 2.669 . S
O175 C163 1.256 . S
H176 C149 0.930 . S
H177 C150 0.931 . S
H178 C152 0.934 . S
H179 C153 0.930 . S
H180 C158 0.930 . S
H181 C159 0.931 . S
H182 C161 0.934 . S
H183 C162 0.930 . S
Ho184 C187 2.811 . S
Ho184 O204 2.322 . S
Ho184 O206 2.378 . S
Ho184 O207 2.524 . S
Ho184 O208 2.381 . S
Ho184 O209 2.669 . S
Ho184 O211 2.346 . S
Ho184 O215 2.305 . S
Ho185 C196 2.811 . S
Ho185 O205 2.346 . S
Ho185 O209 2.305 . S
Ho185 O210 2.322 . S
Ho185 O212 2.378 . S
Ho185 O213 2.524 . S
Ho185 O214 2.381 . S
Ho185 O215 2.669 . S
C186 O204 1.259 . S
C186 O205 1.268 . S
C187 Ho184 2.811 . S
C187 C188 1.488 . S
C187 O206 1.215 . S
C187 O207 1.289 . S
C188 C187 1.488 . S
C188 C189 1.348 . S
C188 C193 1.413 . S
C189 C188 1.348 . S
C189 C190 1.442 . S
C189 H216 0.930 . S
C190 C189 1.442 . S
C190 C191 1.381 . S
C190 H217 0.931 . S
C191 C190 1.381 . S
C191 C192 1.321 . S
C192 C191 1.321 . S
C192 C193 1.403 . S
C192 H218 0.934 . S
C193 C188 1.413 . S
C193 C192 1.403 . S
C193 H219 0.930 . S
C194 O208 1.275 . S
C194 O209 1.256 . S
C195 O210 1.259 . S
C195 O211 1.268 . S
C196 Ho185 2.811 . S
C196 C197 1.488 . S
C196 O212 1.215 . S
C196 O213 1.289 . S
C197 C196 1.488 . S
C197 C198 1.348 . S
C197 C202 1.413 . S
C198 C197 1.348 . S
C198 C199 1.442 . S
C198 H220 0.930 . S
C199 C198 1.442 . S
C199 C200 1.381 . S
C199 H221 0.931 . S
C200 C199 1.381 . S
C200 C201 1.321 . S
C201 C200 1.321 . S
C201 C202 1.403 . S
C201 H222 0.934 . S
C202 C197 1.413 . S
C202 C201 1.403 . S
C202 H223 0.930 . S
C203 O214 1.275 . S
C203 O215 1.256 . S
O204 Ho184 2.322 . S
O204 C186 1.259 . S
O205 Ho185 2.346 . S
O205 C186 1.268 . S
O206 Ho184 2.378 . S
O206 C187 1.215 . S
O207 Ho184 2.524 . S
O207 C187 1.289 . S
O208 Ho184 2.381 . S
O208 C194 1.275 . S
O209 Ho184 2.669 . S
O209 Ho185 2.305 . S
O209 C194 1.256 . S
O210 Ho185 2.322 . S
O210 C195 1.259 . S
O211 Ho184 2.346 . S
O211 C195 1.268 . S
O212 Ho185 2.378 . S
O212 C196 1.215 . S
O213 Ho185 2.524 . S
O213 C196 1.289 . S
O214 Ho185 2.381 . S
O214 C203 1.275 . S
O215 Ho184 2.305 . S
O215 Ho185 2.669 . S
O215 C203 1.256 . S
H216 C189 0.930 . S
H217 C190 0.931 . S
H218 C192 0.934 . S
H219 C193 0.930 . S
H220 C198 0.930 . S
H221 C199 0.931 . S
H222 C201 0.934 . S
H223 C202 0.930 . S
Ho224 C227 2.811 . S
Ho224 O244 2.322 . S
Ho224 O246 2.378 . S
Ho224 O247 2.524 . S
Ho224 O248 2.381 1_455 S
Ho224 O249 2.669 1_455 S
Ho224 O251 2.346 1_455 S
Ho224 O255 2.305 1_554 S
Ho225 C236 2.794 1_455 S
Ho225 O245 2.363 1_556 S
Ho225 O249 2.300 1_456 S
Ho225 O250 2.311 1_455 S
Ho225 O252 2.367 1_455 S
Ho225 O253 2.504 1_455 S
Ho225 O254 2.391 . S
Ho225 O255 2.681 . S
C226 O244 1.259 . S
C226 O245 1.268 . S
C227 Ho224 2.811 . S
C227 C228 1.488 . S
C227 O246 1.215 . S
C227 O247 1.289 . S
C228 C227 1.488 . S
C228 C229 1.348 . S
C228 C233 1.413 . S
C229 C228 1.348 . S
C229 C230 1.442 . S
C229 H256 0.930 . S
C230 C229 1.442 . S
C230 C231 1.381 . S
C230 H257 0.931 . S
C231 C230 1.381 . S
C231 C232 1.321 . S
C232 C231 1.321 . S
C232 C233 1.403 . S
C232 H258 0.934 . S
C233 C228 1.413 . S
C233 C232 1.403 . S
C233 H259 0.930 . S
C234 O248 1.275 . S
C234 O249 1.256 . S
C235 O250 1.259 . S
C235 O251 1.268 1_556 S
C236 Ho225 2.794 1_655 S
C236 C237 1.488 . S
C236 O252 1.215 . S
C236 O253 1.289 . S
C237 C236 1.488 . S
C237 C238 1.348 . S
C237 C242 1.413 . S
C238 C237 1.348 . S
C238 C239 1.442 . S
C238 H260 0.930 . S
C239 C238 1.442 . S
C239 C240 1.381 . S
C239 H261 0.931 . S
C240 C239 1.381 . S
C240 C241 1.321 . S
C241 C240 1.321 . S
C241 C242 1.403 . S
C241 H262 0.934 . S
C242 C237 1.413 . S
C242 C241 1.403 . S
C242 H263 0.930 . S
C243 O254 1.275 . S
C243 O255 1.256 . S
O244 Ho224 2.322 . S
O244 C226 1.259 . S
O245 Ho225 2.363 1_554 S
O245 C226 1.268 . S
O246 Ho224 2.378 . S
O246 C227 1.215 . S
O247 Ho224 2.524 . S
O247 C227 1.289 . S
O248 Ho224 2.381 1_655 S
O248 C234 1.275 . S
O249 Ho224 2.669 1_655 S
O249 Ho225 2.300 1_654 S
O249 C234 1.256 . S
O250 Ho225 2.311 1_655 S
O250 C235 1.259 . S
O251 Ho224 2.346 1_655 S
O251 C235 1.268 1_554 S
O252 Ho225 2.367 1_655 S
O252 C236 1.215 . S
O253 Ho225 2.504 1_655 S
O253 C236 1.289 . S
O254 Ho225 2.391 . S
O254 C243 1.275 . S
O255 Ho224 2.305 1_556 S
O255 Ho225 2.681 . S
O255 C243 1.256 . S
H256 C229 0.930 . S
H257 C230 0.931 . S
H258 C232 0.934 . S
H259 C233 0.930 . S
H260 C238 0.930 . S
H261 C239 0.931 . S
H262 C241 0.934 . S
H263 C242 0.930 . S
C264 C265 1.391 . S
C264 C266 1.394 . S
C264 H280 0.931 . S
C265 C264 1.391 . S
C265 C269 1.376 . S
C266 C264 1.394 . S
C266 C267 1.369 . S
C266 C270 1.531 . S
C267 C266 1.369 . S
C267 C268 1.410 . S
C267 C275 1.503 . S
C268 C267 1.410 . S
C268 C269 1.392 . S
C268 C271 1.511 . S
C269 C265 1.376 . S
C269 C268 1.392 . S
C269 H281 0.929 . S
C270 C266 1.531 . S
C270 H282 0.960 . S
C270 H283 0.962 . S
C270 H284 0.960 . S
C271 C268 1.511 . S
C271 H285 0.961 . S
C271 H286 0.961 . S
C271 H287 0.961 . S
C272 C273 1.370 . S
C272 C274 1.363 . S
C272 H288 0.931 . S
C273 C272 1.370 . S
C273 C277 1.408 . S
C274 C272 1.363 . S
C274 C275 1.370 . S
C274 C278 1.524 . S
C275 C267 1.503 . S
C275 C274 1.370 . S
C275 C276 1.403 . S
C276 C275 1.403 . S
C276 C277 1.404 . S
C276 C279 1.539 . S
C277 C273 1.408 . S
C277 C276 1.404 . S
C277 H289 0.930 . S
C278 C274 1.524 . S
C278 H290 0.956 . S
C278 H291 0.961 . S
C278 H292 0.961 . S
C279 C276 1.539 . S
C279 H293 0.958 . S
C279 H294 0.961 . S
C279 H295 0.960 . S
H280 C264 0.931 . S
H281 C269 0.929 . S
H282 C270 0.960 . S
H283 C270 0.962 . S
H284 C270 0.960 . S
H285 C271 0.961 . S
H286 C271 0.961 . S
H287 C271 0.961 . S
H288 C272 0.931 . S
H289 C277 0.930 . S
H290 C278 0.956 . S
H291 C278 0.961 . S
H292 C278 0.961 . S
H293 C279 0.958 . S
H294 C279 0.961 . S
H295 C279 0.960 . S
C296 C297 1.391 . S
C296 C298 1.394 . S
C296 H312 0.931 . S
C297 C296 1.391 . S
C297 C301 1.376 . S
C298 C296 1.394 . S
C298 C299 1.369 . S
C298 C302 1.531 . S
C299 C298 1.369 . S
C299 C300 1.410 . S
C299 C307 1.503 . S
C300 C299 1.410 . S
C300 C301 1.392 . S
C300 C303 1.511 . S
C301 C297 1.376 . S
C301 C300 1.392 . S
C301 H313 0.929 . S
C302 C298 1.531 . S
C302 H314 0.960 . S
C302 H315 0.962 . S
C302 H316 0.960 . S
C303 C300 1.511 . S
C303 H317 0.961 . S
C303 H318 0.961 . S
C303 H319 0.961 . S
C304 C305 1.370 . S
C304 C306 1.363 . S
C304 H320 0.931 . S
C305 C304 1.370 . S
C305 C309 1.408 . S
C306 C304 1.363 . S
C306 C307 1.370 . S
C306 C310 1.524 . S
C307 C299 1.503 . S
C307 C306 1.370 . S
C307 C308 1.403 . S
C308 C307 1.403 . S
C308 C309 1.404 . S
C308 C311 1.539 . S
C309 C305 1.408 . S
C309 C308 1.404 . S
C309 H321 0.930 . S
C310 C306 1.524 . S
C310 H322 0.956 . S
C310 H323 0.961 . S
C310 H324 0.961 . S
C311 C308 1.539 . S
C311 H325 0.958 1_565 S
C311 H326 0.961 . S
C311 H327 0.960 . S
H312 C296 0.931 . S
H313 C301 0.929 . S
H314 C302 0.960 . S
H315 C302 0.962 . S
H316 C302 0.960 . S
H317 C303 0.961 . S
H318 C303 0.961 . S
H319 C303 0.961 . S
H320 C304 0.931 . S
H321 C309 0.930 . S
H322 C310 0.956 . S
H323 C310 0.961 . S
H324 C310 0.961 . S
H325 C311 0.958 1_545 S
H326 C311 0.961 . S
H327 C311 0.960 . S
C328 C329 1.391 . S
C328 C330 1.394 . S
C328 H344 0.931 . S
C329 C328 1.391 . S
C329 C333 1.376 . S
C330 C328 1.394 . S
C330 C331 1.369 . S
C330 C334 1.531 . S
C331 C330 1.369 . S
C331 C332 1.410 . S
C331 C339 1.503 . S
C332 C331 1.410 . S
C332 C333 1.392 . S
C332 C335 1.511 . S
C333 C329 1.376 . S
C333 C332 1.392 . S
C333 H345 0.929 . S
C334 C330 1.531 . S
C334 H346 0.960 . S
C334 H347 0.962 . S
C334 H348 0.960 . S
C335 C332 1.511 . S
C335 H349 0.961 . S
C335 H350 0.961 . S
C335 H351 0.961 . S
C336 C337 1.370 . S
C336 C338 1.363 . S
C336 H352 0.931 . S
C337 C336 1.370 . S
C337 C341 1.408 . S
C338 C336 1.363 . S
C338 C339 1.370 . S
C338 C342 1.524 . S
C339 C331 1.503 . S
C339 C338 1.370 . S
C339 C340 1.403 . S
C340 C339 1.403 . S
C340 C341 1.404 . S
C340 C343 1.539 . S
C341 C337 1.408 . S
C341 C340 1.404 . S
C341 H353 0.930 . S
C342 C338 1.524 . S
C342 H354 0.956 . S
C342 H355 0.961 . S
C342 H356 0.961 . S
C343 C340 1.539 . S
C343 H357 0.958 . S
C343 H358 0.961 . S
C343 H359 0.960 . S
H344 C328 0.931 . S
H345 C333 0.929 . S
H346 C334 0.960 . S
H347 C334 0.962 . S
H348 C334 0.960 . S
H349 C335 0.961 . S
H350 C335 0.961 . S
H351 C335 0.961 . S
H352 C336 0.931 . S
H353 C341 0.930 . S
H354 C342 0.956 . S
H355 C342 0.961 . S
H356 C342 0.961 . S
H357 C343 0.958 . S
H358 C343 0.961 . S
H359 C343 0.960 . S
C360 C361 1.391 . S
C360 C362 1.394 . S
C360 H376 0.931 . S
C361 C360 1.391 . S
C361 C365 1.376 . S
C362 C360 1.394 . S
C362 C363 1.369 . S
C362 C366 1.531 . S
C363 C362 1.369 . S
C363 C364 1.410 . S
C363 C371 1.503 . S
C364 C363 1.410 . S
C364 C365 1.392 . S
C364 C367 1.511 . S
C365 C361 1.376 . S
C365 C364 1.392 . S
C365 H377 0.929 . S
C366 C362 1.531 . S
C366 H378 0.960 . S
C366 H379 0.962 . S
C366 H380 0.960 . S
C367 C364 1.511 . S
C367 H381 0.961 . S
C367 H382 0.961 . S
C367 H383 0.961 . S
C368 C369 1.370 . S
C368 C370 1.363 . S
C368 H384 0.931 . S
C369 C368 1.370 . S
C369 C373 1.408 . S
C370 C368 1.363 . S
C370 C371 1.370 . S
C370 C374 1.524 . S
C371 C363 1.503 . S
C371 C370 1.370 . S
C371 C372 1.403 . S
C372 C371 1.403 . S
C372 C373 1.404 . S
C372 C375 1.539 . S
C373 C369 1.408 . S
C373 C372 1.404 . S
C373 H385 0.930 . S
C374 C370 1.524 . S
C374 H386 0.956 . S
C374 H387 0.961 . S
C374 H388 0.961 1_655 S
C375 C372 1.539 . S
C375 H389 0.958 . S
C375 H390 0.961 . S
C375 H391 0.960 . S
H376 C360 0.931 . S
H377 C365 0.929 . S
H378 C366 0.960 . S
H379 C366 0.962 . S
H380 C366 0.960 . S
H381 C367 0.961 . S
H382 C367 0.961 . S
H383 C367 0.961 . S
H384 C368 0.931 . S
H385 C373 0.930 . S
H386 C374 0.956 . S
H387 C374 0.961 . S
H388 C374 0.961 1_455 S
H389 C375 0.958 . S
H390 C375 0.961 . S
H391 C375 0.960 . S
C392 C393 1.391 . S
C392 C394 1.394 . S
C392 H408 0.931 . S
C393 C392 1.391 . S
C393 C397 1.376 . S
C394 C392 1.394 . S
C394 C395 1.369 . S
C394 C398 1.531 . S
C395 C394 1.369 . S
C395 C396 1.410 . S
C395 C403 1.503 . S
C396 C395 1.410 . S
C396 C397 1.392 . S
C396 C399 1.511 . S
C397 C393 1.376 . S
C397 C396 1.392 . S
C397 H409 0.929 . S
C398 C394 1.531 . S
C398 H410 0.960 . S
C398 H411 0.962 . S
C398 H412 0.960 . S
C399 C396 1.511 . S
C399 H413 0.961 . S
C399 H414 0.961 . S
C399 H415 0.961 . S
C400 C401 1.370 . S
C400 C402 1.363 . S
C400 H416 0.931 . S
C401 C400 1.370 . S
C401 C405 1.408 . S
C402 C400 1.363 . S
C402 C403 1.370 . S
C402 C406 1.524 . S
C403 C395 1.503 . S
C403 C402 1.370 . S
C403 C404 1.403 . S
C404 C403 1.403 . S
C404 C405 1.404 . S
C404 C407 1.539 . S
C405 C401 1.408 . S
C405 C404 1.404 . S
C405 H417 0.930 . S
C406 C402 1.524 . S
C406 H418 0.956 . S
C406 H419 0.961 . S
C406 H420 0.961 . S
C407 C404 1.539 . S
C407 H421 0.958 . S
C407 H422 0.961 . S
C407 H423 0.960 . S
H408 C392 0.931 . S
H409 C397 0.929 . S
H410 C398 0.960 . S
H411 C398 0.962 . S
H412 C398 0.960 . S
H413 C399 0.961 . S
H414 C399 0.961 . S
H415 C399 0.961 . S
H416 C400 0.931 . S
H417 C405 0.930 . S
H418 C406 0.956 . S
H419 C406 0.961 . S
H420 C406 0.961 . S
H421 C407 0.958 . S
H422 C407 0.961 . S
H423 C407 0.960 . S
C424 C425 1.391 . S
C424 C426 1.394 . S
C424 H440 0.931 . S
C425 C424 1.391 . S
C425 C429 1.376 . S
C426 C424 1.394 . S
C426 C427 1.369 . S
C426 C430 1.531 . S
C427 C426 1.369 . S
C427 C428 1.410 . S
C427 C435 1.503 . S
C428 C427 1.410 . S
C428 C429 1.392 . S
C428 C431 1.511 . S
C429 C425 1.376 . S
C429 C428 1.392 . S
C429 H441 0.929 . S
C430 C426 1.531 . S
C430 H442 0.960 . S
C430 H443 0.962 . S
C430 H444 0.960 . S
C431 C428 1.511 . S
C431 H445 0.961 . S
C431 H446 0.961 . S
C431 H447 0.961 . S
C432 C433 1.370 1_545 S
C432 C434 1.363 1_545 S
C432 H448 0.931 . S
C433 C432 1.370 1_565 S
C433 C437 1.408 . S
C434 C432 1.363 1_565 S
C434 C435 1.370 . S
C434 C438 1.524 . S
C435 C427 1.503 . S
C435 C434 1.370 . S
C435 C436 1.403 . S
C436 C435 1.403 . S
C436 C437 1.404 . S
C436 C439 1.539 . S
C437 C433 1.408 . S
C437 C436 1.404 . S
C437 H449 0.930 . S
C438 C434 1.524 . S
C438 H450 0.956 . S
C438 H451 0.961 . S
C438 H452 0.961 1_565 S
C439 C436 1.539 . S
C439 H453 0.958 . S
C439 H454 0.961 . S
C439 H455 0.960 . S
H440 C424 0.931 . S
H441 C429 0.929 . S
H442 C430 0.960 . S
H443 C430 0.962 . S
H444 C430 0.960 . S
H445 C431 0.961 . S
H446 C431 0.961 . S
H447 C431 0.961 . S
H448 C432 0.931 . S
H449 C437 0.930 . S
H450 C438 0.956 . S
H451 C438 0.961 . S
H452 C438 0.961 1_545 S
H453 C439 0.958 . S
H454 C439 0.961 . S
H455 C439 0.960 . S
C456 C457 1.391 . S
C456 C458 1.394 . S
C456 H472 0.931 . S
C457 C456 1.391 . S
C457 C461 1.376 . S
C458 C456 1.394 . S
C458 C459 1.369 . S
C458 C462 1.531 . S
C459 C458 1.369 . S
C459 C460 1.410 . S
C459 C467 1.503 . S
C460 C459 1.410 . S
C460 C461 1.392 . S
C460 C463 1.511 . S
C461 C457 1.376 . S
C461 C460 1.392 . S
C461 H473 0.929 . S
C462 C458 1.531 . S
C462 H474 0.960 . S
C462 H475 0.962 . S
C462 H476 0.960 . S
C463 C460 1.511 . S
C463 H477 0.961 . S
C463 H478 0.961 . S
C463 H479 0.961 . S
C464 C465 1.370 . S
C464 C466 1.363 . S
C464 H480 0.953 . S
C465 C464 1.370 . S
C465 C469 1.408 . S
C466 C464 1.363 . S
C466 C467 1.370 . S
C466 C470 1.524 . S
C467 C459 1.503 . S
C467 C466 1.370 . S
C467 C468 1.403 . S
C468 C467 1.403 . S
C468 C469 1.404 . S
C468 C471 1.539 . S
C469 C465 1.408 . S
C469 C468 1.404 . S
C469 H481 0.930 . S
C470 C466 1.524 . S
C470 H482 0.956 . S
C470 H483 0.961 . S
C470 H484 0.961 1_556 S
C471 C468 1.539 . S
C471 H485 0.958 . S
C471 H486 0.961 . S
C471 H487 0.960 . S
H472 C456 0.931 . S
H473 C461 0.929 . S
H474 C462 0.960 . S
H475 C462 0.962 . S
H476 C462 0.960 . S
H477 C463 0.961 . S
H478 C463 0.961 . S
H479 C463 0.961 . S
H480 C464 0.953 . S
H481 C469 0.930 . S
H482 C470 0.956 . S
H483 C470 0.961 . S
H484 C470 0.961 1_554 S
H485 C471 0.958 . S
H486 C471 0.961 . S
H487 C471 0.960 . S
C488 C489 1.391 . S
C488 C490 1.394 . S
C488 H504 0.931 . S
C489 C488 1.391 . S
C489 C493 1.376 . S
C490 C488 1.394 . S
C490 C491 1.369 . S
C490 C494 1.531 . S
C491 C490 1.369 . S
C491 C492 1.410 . S
C491 C499 1.503 . S
C492 C491 1.410 . S
C492 C493 1.392 . S
C492 C495 1.511 . S
C493 C489 1.376 . S
C493 C492 1.392 . S
C493 H505 0.929 . S
C494 C490 1.531 . S
C494 H506 0.960 . S
C494 H507 0.962 . S
C494 H508 0.960 . S
C495 C492 1.511 . S
C495 H509 0.961 . S
C495 H510 0.961 . S
C495 H511 0.961 . S
C496 C497 1.370 . S
C496 C498 1.363 . S
C496 H512 0.931 . S
C497 C496 1.370 . S
C497 C501 1.408 . S
C498 C496 1.363 . S
C498 C499 1.370 . S
C498 C502 1.524 . S
C499 C491 1.503 . S
C499 C498 1.370 . S
C499 C500 1.403 . S
C500 C499 1.403 . S
C500 C501 1.404 . S
C500 C503 1.539 . S
C501 C497 1.408 . S
C501 C500 1.404 . S
C501 H513 0.930 . S
C502 C498 1.524 . S
C502 H514 0.956 . S
C502 H515 0.961 . S
C502 H516 0.961 . S
C503 C500 1.539 . S
C503 H517 0.958 . S
C503 H518 0.961 . S
C503 H519 0.960 . S
H504 C488 0.931 . S
H505 C493 0.929 . S
H506 C494 0.960 . S
H507 C494 0.962 . S
H508 C494 0.960 . S
H509 C495 0.961 . S
H510 C495 0.961 . S
H511 C495 0.961 . S
H512 C496 0.931 . S
H513 C501 0.930 . S
H514 C502 0.956 . S
H515 C502 0.961 . S
H516 C502 0.961 . S
H517 C503 0.958 . S
H518 C503 0.961 . S
H519 C503 0.960 . S
C520 C521 1.391 . S
C520 C522 1.394 . S
C520 H536 0.931 . S
C521 C520 1.391 . S
C521 C525 1.376 . S
C522 C520 1.394 . S
C522 C523 1.369 . S
C522 C526 1.531 . S
C523 C522 1.369 . S
C523 C524 1.410 . S
C523 C531 1.503 . S
C524 C523 1.410 . S
C524 C525 1.392 . S
C524 C527 1.511 . S
C525 C521 1.376 . S
C525 C524 1.392 . S
C525 H537 0.929 . S
C526 C522 1.531 . S
C526 H538 0.960 . S
C526 H539 0.962 . S
C526 H540 0.960 . S
C527 C524 1.511 . S
C527 H541 0.961 . S
C527 H542 0.961 . S
C527 H543 0.961 . S
C528 C529 1.370 . S
C528 C530 1.363 . S
C528 H544 0.931 . S
C529 C528 1.370 . S
C529 C533 1.408 . S
C530 C528 1.363 . S
C530 C531 1.370 . S
C530 C534 1.524 . S
C531 C523 1.503 . S
C531 C530 1.370 . S
C531 C532 1.403 . S
C532 C531 1.403 . S
C532 C533 1.404 . S
C532 C535 1.539 . S
C533 C529 1.408 . S
C533 C532 1.404 . S
C533 H545 0.930 . S
C534 C530 1.524 . S
C534 H546 0.956 . S
C534 H547 0.961 . S
C534 H548 0.961 . S
C535 C532 1.539 . S
C535 H549 0.958 . S
C535 H550 0.961 . S
C535 H551 0.960 . S
H536 C520 0.931 . S
H537 C525 0.929 . S
H538 C526 0.960 . S
H539 C526 0.962 . S
H540 C526 0.960 . S
H541 C527 0.961 . S
H542 C527 0.961 . S
H543 C527 0.961 . S
H544 C528 0.931 . S
H545 C533 0.930 . S
H546 C534 0.956 . S
H547 C534 0.961 . S
H548 C534 0.961 . S
H549 C535 0.958 . S
H550 C535 0.961 . S
H551 C535 0.960 . S
C552 C553 1.391 . S
C552 C554 1.394 . S
C552 H568 0.931 . S
C553 C552 1.391 . S
C553 C557 1.376 . S
C554 C552 1.394 . S
C554 C555 1.369 . S
C554 C558 1.531 . S
C555 C554 1.369 . S
C555 C556 1.410 . S
C555 C563 1.503 . S
C556 C555 1.410 . S
C556 C557 1.392 . S
C556 C559 1.511 . S
C557 C553 1.376 . S
C557 C556 1.392 . S
C557 H569 0.929 . S
C558 C554 1.531 . S
C558 H570 0.960 . S
C558 H571 0.962 . S
C558 H572 0.960 . S
C559 C556 1.511 . S
C559 H573 0.961 . S
C559 H574 0.961 . S
C559 H575 0.961 . S
C560 C561 1.373 . S
C560 C562 1.368 . S
C560 H576 0.923 1_556 S
C561 C560 1.373 . S
C561 C565 1.408 . S
C562 C560 1.368 . S
C562 C563 1.370 . S
C562 C566 1.524 . S
C563 C555 1.503 . S
C563 C562 1.370 . S
C563 C564 1.403 . S
C564 C563 1.403 . S
C564 C565 1.404 . S
C564 C567 1.539 . S
C565 C561 1.408 . S
C565 C564 1.404 . S
C565 H577 0.930 . S
C566 C562 1.524 . S
C566 H578 0.957 . S
C566 H579 0.961 . S
C566 H580 0.961 1_556 S
C567 C564 1.539 . S
C567 H581 0.958 . S
C567 H582 0.961 . S
C567 H583 0.960 . S
H568 C552 0.931 . S
H569 C557 0.929 . S
H570 C558 0.960 . S
H571 C558 0.962 . S
H572 C558 0.960 . S
H573 C559 0.961 . S
H574 C559 0.961 . S
H575 C559 0.961 . S
H576 C560 0.923 1_554 S
H577 C565 0.930 . S
H578 C566 0.957 . S
H579 C566 0.961 . S
H580 C566 0.961 1_554 S
H581 C567 0.958 . S
H582 C567 0.961 . S
H583 C567 0.960 . S
C584 C585 1.391 . S
C584 C586 1.394 . S
C584 H600 0.931 . S
C585 C584 1.391 . S
C585 C589 1.376 . S
C586 C584 1.394 . S
C586 C587 1.369 . S
C586 C590 1.531 . S
C587 C586 1.369 . S
C587 C588 1.410 . S
C587 C595 1.503 . S
C588 C587 1.410 . S
C588 C589 1.392 . S
C588 C591 1.511 . S
C589 C585 1.376 . S
C589 C588 1.392 . S
C589 H601 0.929 . S
C590 C586 1.531 . S
C590 H602 0.960 . S
C590 H603 0.962 . S
C590 H604 0.960 . S
C591 C588 1.511 . S
C591 H605 0.961 . S
C591 H606 0.961 . S
C591 H607 0.961 . S
C592 C593 1.370 . S
C592 C594 1.363 . S
C592 H608 0.931 . S
C593 C592 1.370 . S
C593 C597 1.408 . S
C594 C592 1.363 . S
C594 C595 1.370 . S
C594 C598 1.524 . S
C595 C587 1.503 . S
C595 C594 1.370 . S
C595 C596 1.403 . S
C596 C595 1.403 . S
C596 C597 1.404 . S
C596 C599 1.539 . S
C597 C593 1.408 . S
C597 C596 1.404 . S
C597 H609 0.930 . S
C598 C594 1.524 . S
C598 H610 0.956 . S
C598 H611 0.961 . S
C598 H612 0.961 . S
C599 C596 1.539 . S
C599 H613 0.958 . S
C599 H614 0.961 . S
C599 H615 0.960 . S
H600 C584 0.931 . S
H601 C589 0.929 . S
H602 C590 0.960 . S
H603 C590 0.962 . S
H604 C590 0.960 . S
H605 C591 0.961 . S
H606 C591 0.961 . S
H607 C591 0.961 . S
H608 C592 0.931 . S
H609 C597 0.930 . S
H610 C598 0.956 . S
H611 C598 0.961 . S
H612 C598 0.961 . S
H613 C599 0.958 . S
H614 C599 0.961 . S
H615 C599 0.960 . S
C616 C617 1.391 . S
C616 C618 1.394 . S
C616 H632 0.931 . S
C617 C616 1.391 . S
C617 C621 1.376 . S
C618 C616 1.394 . S
C618 C619 1.369 . S
C618 C622 1.531 . S
C619 C618 1.369 . S
C619 C620 1.410 . S
C619 C627 1.503 . S
C620 C619 1.410 . S
C620 C621 1.392 . S
C620 C623 1.511 . S
C621 C617 1.376 . S
C621 C620 1.392 . S
C621 H633 0.929 . S
C622 C618 1.531 . S
C622 H634 0.960 . S
C622 H635 0.962 . S
C622 H636 0.960 . S
C623 C620 1.511 . S
C623 H637 0.961 . S
C623 H638 0.961 . S
C623 H639 0.961 . S
C624 C625 1.370 . S
C624 C626 1.363 . S
C624 H640 0.931 . S
C625 C624 1.370 . S
C625 C629 1.408 . S
C626 C624 1.363 . S
C626 C627 1.370 . S
C626 C630 1.524 . S
C627 C619 1.503 . S
C627 C626 1.370 . S
C627 C628 1.403 . S
C628 C627 1.403 . S
C628 C629 1.404 . S
C628 C631 1.539 . S
C629 C625 1.408 . S
C629 C628 1.404 . S
C629 H641 0.930 . S
C630 C626 1.524 . S
C630 H642 0.956 . S
C630 H643 0.961 . S
C630 H644 0.961 . S
C631 C628 1.539 . S
C631 H645 0.958 . S
C631 H646 0.961 . S
C631 H647 0.960 . S
H632 C616 0.931 . S
H633 C621 0.929 . S
H634 C622 0.960 . S
H635 C622 0.962 . S
H636 C622 0.960 . S
H637 C623 0.961 . S
H638 C623 0.961 . S
H639 C623 0.961 . S
H640 C624 0.931 . S
H641 C629 0.930 . S
H642 C630 0.956 . S
H643 C630 0.961 . S
H644 C630 0.961 . S
H645 C631 0.958 . S
H646 C631 0.961 . S
H647 C631 0.960 . S
C648 C649 1.391 . S
C648 C650 1.394 . S
C648 H664 0.931 . S
C649 C648 1.391 . S
C649 C653 1.376 . S
C650 C648 1.394 . S
C650 C651 1.369 . S
C650 C654 1.531 . S
C651 C650 1.369 . S
C651 C652 1.410 . S
C651 C659 1.503 . S
C652 C651 1.410 . S
C652 C653 1.392 . S
C652 C655 1.511 . S
C653 C649 1.376 . S
C653 C652 1.392 . S
C653 H665 0.929 . S
C654 C650 1.531 . S
C654 H666 0.960 . S
C654 H667 0.962 . S
C654 H668 0.960 . S
C655 C652 1.511 . S
C655 H669 0.961 . S
C655 H670 0.961 . S
C655 H671 0.961 . S
C656 C657 1.370 . S
C656 C658 1.363 . S
C656 H672 0.931 . S
C657 C656 1.370 . S
C657 C661 1.408 . S
C658 C656 1.363 . S
C658 C659 1.370 . S
C658 C662 1.524 . S
C659 C651 1.503 . S
C659 C658 1.370 . S
C659 C660 1.403 . S
C660 C659 1.403 . S
C660 C661 1.404 . S
C660 C663 1.539 . S
C661 C657 1.408 . S
C661 C660 1.404 . S
C661 H673 0.930 . S
C662 C658 1.524 . S
C662 H674 0.956 . S
C662 H675 0.961 . S
C662 H676 0.961 . S
C663 C660 1.539 . S
C663 H677 0.958 . S
C663 H678 0.961 . S
C663 H679 0.960 . S
H664 C648 0.931 . S
H665 C653 0.929 . S
H666 C654 0.960 . S
H667 C654 0.962 . S
H668 C654 0.960 . S
H669 C655 0.961 . S
H670 C655 0.961 . S
H671 C655 0.961 . S
H672 C656 0.931 . S
H673 C661 0.930 . S
H674 C662 0.956 . S
H675 C662 0.961 . S
H676 C662 0.961 . S
H677 C663 0.958 . S
H678 C663 0.961 . S
H679 C663 0.960 . S
C680 C681 1.391 . S
C680 C682 1.394 . S
C680 H696 0.931 . S
C681 C680 1.391 . S
C681 C685 1.376 . S
C682 C680 1.394 . S
C682 C683 1.369 . S
C682 C686 1.531 . S
C683 C682 1.369 . S
C683 C684 1.410 . S
C683 C691 1.503 . S
C684 C683 1.410 . S
C684 C685 1.392 . S
C684 C687 1.511 . S
C685 C681 1.376 . S
C685 C684 1.392 . S
C685 H697 0.929 . S
C686 C682 1.531 . S
C686 H698 0.960 . S
C686 H699 0.962 . S
C686 H700 0.960 . S
C687 C684 1.511 . S
C687 H701 0.961 . S
C687 H702 0.961 . S
C687 H703 0.961 . S
C688 C689 1.370 . S
C688 C690 1.363 . S
C688 H704 0.931 . S
C689 C688 1.370 . S
C689 C693 1.408 . S
C690 C688 1.363 . S
C690 C691 1.370 . S
C690 C694 1.524 . S
C691 C683 1.503 . S
C691 C690 1.370 . S
C691 C692 1.403 . S
C692 C691 1.403 . S
C692 C693 1.404 . S
C692 C695 1.539 . S
C693 C689 1.408 . S
C693 C692 1.404 . S
C693 H705 0.930 . S
C694 C690 1.524 . S
C694 H706 0.956 . S
C694 H707 0.961 . S
C694 H708 0.961 . S
C695 C692 1.539 . S
C695 H709 0.958 . S
C695 H710 0.961 . S
C695 H711 0.960 . S
H696 C680 0.931 . S
H697 C685 0.929 . S
H698 C686 0.960 . S
H699 C686 0.962 . S
H700 C686 0.960 . S
H701 C687 0.961 . S
H702 C687 0.961 . S
H703 C687 0.961 . S
H704 C688 0.931 . S
H705 C693 0.930 . S
H706 C694 0.956 . S
H707 C694 0.961 . S
H708 C694 0.961 . S
H709 C695 0.958 . S
H710 C695 0.961 . S
H711 C695 0.960 . S
C712 C713 1.391 . S
C712 C714 1.394 . S
C712 H728 0.931 . S
C713 C712 1.391 . S
C713 C717 1.376 . S
C714 C712 1.394 . S
C714 C715 1.369 . S
C714 C718 1.531 . S
C715 C714 1.369 . S
C715 C716 1.410 . S
C715 C723 1.503 . S
C716 C715 1.410 . S
C716 C717 1.392 . S
C716 C719 1.511 . S
C717 C713 1.376 . S
C717 C716 1.392 . S
C717 H729 0.929 . S
C718 C714 1.531 . S
C718 H730 0.960 . S
C718 H731 0.962 . S
C718 H732 0.960 . S
C719 C716 1.511 . S
C719 H733 0.961 . S
C719 H734 0.961 . S
C719 H735 0.961 . S
C720 C721 1.370 . S
C720 C722 1.363 . S
C720 H736 0.931 . S
C721 C720 1.370 . S
C721 C725 1.408 . S
C722 C720 1.363 . S
C722 C723 1.370 . S
C722 C726 1.524 . S
C723 C715 1.503 . S
C723 C722 1.370 . S
C723 C724 1.403 . S
C724 C723 1.403 . S
C724 C725 1.404 . S
C724 C727 1.539 . S
C725 C721 1.408 . S
C725 C724 1.404 . S
C725 H737 0.930 . S
C726 C722 1.524 . S
C726 H738 0.956 . S
C726 H739 0.961 . S
C726 H740 0.961 . S
C727 C724 1.539 . S
C727 H741 0.958 . S
C727 H742 0.961 . S
C727 H743 0.960 . S
H728 C712 0.931 . S
H729 C717 0.929 . S
H730 C718 0.960 . S
H731 C718 0.962 . S
H732 C718 0.960 . S
H733 C719 0.961 . S
H734 C719 0.961 . S
H735 C719 0.961 . S
H736 C720 0.931 . S
H737 C725 0.930 . S
H738 C726 0.956 . S
H739 C726 0.961 . S
H740 C726 0.961 . S
H741 C727 0.958 . S
H742 C727 0.961 . S
H743 C727 0.960 . S
C744 C745 1.391 . S
C744 C746 1.394 . S
C744 H760 0.931 . S
C745 C744 1.391 . S
C745 C749 1.376 . S
C746 C744 1.394 . S
C746 C747 1.369 . S
C746 C750 1.531 . S
C747 C746 1.369 . S
C747 C748 1.410 . S
C747 C755 1.503 . S
C748 C747 1.410 . S
C748 C749 1.392 . S
C748 C751 1.511 . S
C749 C745 1.376 . S
C749 C748 1.392 . S
C749 H761 0.929 . S
C750 C746 1.531 . S
C750 H762 0.960 . S
C750 H763 0.962 . S
C750 H764 0.960 . S
C751 C748 1.511 . S
C751 H765 0.961 . S
C751 H766 0.961 . S
C751 H767 0.961 . S
C752 C753 1.370 . S
C752 C754 1.363 . S
C752 H768 0.931 . S
C753 C752 1.370 . S
C753 C757 1.408 . S
C754 C752 1.363 . S
C754 C755 1.370 . S
C754 C758 1.524 . S
C755 C747 1.503 . S
C755 C754 1.370 . S
C755 C756 1.403 . S
C756 C755 1.403 . S
C756 C757 1.404 . S
C756 C759 1.539 . S
C757 C753 1.408 . S
C757 C756 1.404 . S
C757 H769 0.930 . S
C758 C754 1.524 . S
C758 H770 0.956 . S
C758 H771 0.961 . S
C758 H772 0.961 . S
C759 C756 1.539 . S
C759 H773 0.958 1_455 S
C759 H774 0.961 1_455 S
C759 H775 0.960 . S
H760 C744 0.931 . S
H761 C749 0.929 . S
H762 C750 0.960 . S
H763 C750 0.962 . S
H764 C750 0.960 . S
H765 C751 0.961 . S
H766 C751 0.961 . S
H767 C751 0.961 . S
H768 C752 0.931 . S
H769 C757 0.930 . S
H770 C758 0.956 . S
H771 C758 0.961 . S
H772 C758 0.961 . S
H773 C759 0.958 1_655 S
H774 C759 0.961 1_655 S
H775 C759 0.960 . S
C776 C777 1.391 . S
C776 C778 1.394 . S
C776 H792 0.931 . S
C777 C776 1.391 . S
C777 C781 1.376 . S
C778 C776 1.394 . S
C778 C779 1.369 . S
C778 C782 1.531 . S
C779 C778 1.369 . S
C779 C780 1.410 . S
C779 C787 1.503 . S
C780 C779 1.410 . S
C780 C781 1.392 . S
C780 C783 1.511 . S
C781 C777 1.376 . S
C781 C780 1.392 . S
C781 H793 0.929 . S
C782 C778 1.531 . S
C782 H794 0.960 . S
C782 H795 0.962 . S
C782 H796 0.960 . S
C783 C780 1.511 . S
C783 H797 0.961 . S
C783 H798 0.961 . S
C783 H799 0.961 . S
C784 C785 1.370 . S
C784 C786 1.363 . S
C784 H800 0.931 1_556 S
C785 C784 1.370 . S
C785 C789 1.408 . S
C786 C784 1.363 . S
C786 C787 1.370 . S
C786 C790 1.524 . S
C787 C779 1.503 . S
C787 C786 1.370 . S
C787 C788 1.403 . S
C788 C787 1.403 . S
C788 C789 1.404 . S
C788 C791 1.539 . S
C789 C785 1.408 . S
C789 C788 1.404 . S
C789 H801 0.930 1_565 S
C790 C786 1.524 . S
C790 H802 0.956 . S
C790 H803 0.961 . S
C790 H804 0.961 . S
C791 C788 1.539 . S
C791 H805 0.958 . S
C791 H806 0.961 . S
C791 H807 0.960 . S
H792 C776 0.931 . S
H793 C781 0.929 . S
H794 C782 0.960 . S
H795 C782 0.962 . S
H796 C782 0.960 . S
H797 C783 0.961 . S
H798 C783 0.961 . S
H799 C783 0.961 . S
H800 C784 0.931 1_554 S
H801 C789 0.930 1_545 S
H802 C790 0.956 . S
H803 C790 0.961 . S
H804 C790 0.961 . S
H805 C791 0.958 . S
H806 C791 0.961 . S
H807 C791 0.960 . S
C808 C809 1.391 . S
C808 C810 1.394 . S
C808 H824 0.931 . S
C809 C808 1.391 . S
C809 C813 1.376 . S
C810 C808 1.394 . S
C810 C811 1.369 . S
C810 C814 1.531 . S
C811 C810 1.369 . S
C811 C812 1.410 . S
C811 C819 1.503 . S
C812 C811 1.410 . S
C812 C813 1.392 . S
C812 C815 1.511 . S
C813 C809 1.376 . S
C813 C812 1.392 . S
C813 H825 0.929 . S
C814 C810 1.531 . S
C814 H826 0.960 . S
C814 H827 0.962 . S
C814 H828 0.960 . S
C815 C812 1.511 . S
C815 H829 0.961 . S
C815 H830 0.961 . S
C815 H831 0.961 . S
C816 C817 1.370 . S
C816 C818 1.363 . S
C816 H832 0.931 . S
C817 C816 1.370 . S
C817 C821 1.408 . S
C818 C816 1.363 . S
C818 C819 1.370 . S
C818 C822 1.524 . S
C819 C811 1.503 . S
C819 C818 1.370 . S
C819 C820 1.403 . S
C820 C819 1.403 . S
C820 C821 1.404 . S
C820 C823 1.539 . S
C821 C817 1.408 . S
C821 C820 1.404 . S
C821 H833 0.930 . S
C822 C818 1.524 . S
C822 H834 0.956 . S
C822 H835 0.961 . S
C822 H836 0.961 . S
C823 C820 1.539 . S
C823 H837 0.958 . S
C823 H838 0.961 . S
C823 H839 0.960 . S
H824 C808 0.931 . S
H825 C813 0.929 . S
H826 C814 0.960 . S
H827 C814 0.962 . S
H828 C814 0.960 . S
H829 C815 0.961 . S
H830 C815 0.961 . S
H831 C815 0.961 . S
H832 C816 0.931 . S
H833 C821 0.930 . S
H834 C822 0.956 . S
H835 C822 0.961 . S
H836 C822 0.961 . S
H837 C823 0.958 . S
H838 C823 0.961 . S
H839 C823 0.960 . S
C840 C841 1.391 . S
C840 C842 1.394 . S
C840 H856 0.931 . S
C841 C840 1.391 . S
C841 C845 1.376 . S
C842 C840 1.394 . S
C842 C843 1.369 . S
C842 C846 1.531 . S
C843 C842 1.369 . S
C843 C844 1.410 . S
C843 C851 1.503 . S
C844 C843 1.410 . S
C844 C845 1.392 . S
C844 C847 1.511 . S
C845 C841 1.376 . S
C845 C844 1.392 . S
C845 H857 0.929 . S
C846 C842 1.531 . S
C846 H858 0.960 . S
C846 H859 0.962 . S
C846 H860 0.960 . S
C847 C844 1.511 . S
C847 H861 0.961 . S
C847 H862 0.961 . S
C847 H863 0.961 . S
C848 C849 1.370 . S
C848 C850 1.363 . S
C848 H864 0.931 . S
C849 C848 1.370 . S
C849 C853 1.408 . S
C850 C848 1.363 . S
C850 C851 1.370 . S
C850 C854 1.524 . S
C851 C843 1.503 . S
C851 C850 1.370 . S
C851 C852 1.403 . S
C852 C851 1.403 . S
C852 C853 1.404 . S
C852 C855 1.539 . S
C853 C849 1.408 . S
C853 C852 1.404 . S
C853 H865 0.930 . S
C854 C850 1.524 . S
C854 H866 0.956 . S
C854 H867 0.961 . S
C854 H868 0.961 . S
C855 C852 1.539 . S
C855 H869 0.958 . S
C855 H870 0.961 . S
C855 H871 0.960 . S
H856 C840 0.931 . S
H857 C845 0.929 . S
H858 C846 0.960 . S
H859 C846 0.962 . S
H860 C846 0.960 . S
H861 C847 0.961 . S
H862 C847 0.961 . S
H863 C847 0.961 . S
H864 C848 0.931 . S
H865 C853 0.930 . S
H866 C854 0.956 . S
H867 C854 0.961 . S
H868 C854 0.961 . S
H869 C855 0.958 . S
H870 C855 0.961 . S
H871 C855 0.960 . S
C872 C873 1.391 . S
C872 C874 1.394 . S
C872 H888 0.931 . S
C873 C872 1.391 . S
C873 C877 1.376 . S
C874 C872 1.394 . S
C874 C875 1.369 . S
C874 C878 1.531 . S
C875 C874 1.369 . S
C875 C876 1.410 . S
C875 C883 1.503 . S
C876 C875 1.410 . S
C876 C877 1.392 . S
C876 C879 1.511 . S
C877 C873 1.376 . S
C877 C876 1.392 . S
C877 H889 0.929 . S
C878 C874 1.531 . S
C878 H890 0.960 . S
C878 H891 0.962 . S
C878 H892 0.960 . S
C879 C876 1.511 . S
C879 H893 0.961 . S
C879 H894 0.961 . S
C879 H895 0.961 . S
C880 C881 1.370 . S
C880 C882 1.363 . S
C880 H896 0.931 . S
C881 C880 1.370 . S
C881 C885 1.408 . S
C882 C880 1.363 . S
C882 C883 1.370 . S
C882 C886 1.524 . S
C883 C875 1.503 . S
C883 C882 1.370 . S
C883 C884 1.403 . S
C884 C883 1.403 . S
C884 C885 1.404 . S
C884 C887 1.539 . S
C885 C881 1.408 . S
C885 C884 1.404 . S
C885 H897 0.930 . S
C886 C882 1.524 . S
C886 H898 0.956 . S
C886 H899 0.961 . S
C886 H900 0.961 . S
C887 C884 1.539 . S
C887 H901 0.958 . S
C887 H902 0.961 . S
C887 H903 0.960 . S
H888 C872 0.931 . S
H889 C877 0.929 . S
H890 C878 0.960 . S
H891 C878 0.962 . S
H892 C878 0.960 . S
H893 C879 0.961 . S
H894 C879 0.961 . S
H895 C879 0.961 . S
H896 C880 0.931 . S
H897 C885 0.930 . S
H898 C886 0.956 . S
H899 C886 0.961 . S
H900 C886 0.961 . S
H901 C887 0.958 . S
H902 C887 0.961 . S
H903 C887 0.960 . S
C904 C905 1.391 . S
C904 C906 1.394 . S
C904 H920 0.931 . S
C905 C904 1.391 . S
C905 C909 1.376 . S
C906 C904 1.394 . S
C906 C907 1.369 . S
C906 C910 1.531 . S
C907 C906 1.369 . S
C907 C908 1.410 . S
C907 C915 1.503 . S
C908 C907 1.410 . S
C908 C909 1.392 . S
C908 C911 1.511 . S
C909 C905 1.376 . S
C909 C908 1.392 . S
C909 H921 0.929 . S
C910 C906 1.531 . S
C910 H922 0.960 . S
C910 H923 0.962 . S
C910 H924 0.960 . S
C911 C908 1.511 . S
C911 H925 0.961 . S
C911 H926 0.961 . S
C911 H927 0.961 . S
C912 C913 1.370 . S
C912 C914 1.363 . S
C912 H928 0.931 . S
C913 C912 1.370 . S
C913 C917 1.408 . S
C914 C912 1.363 . S
C914 C915 1.370 . S
C914 C918 1.524 . S
C915 C907 1.503 . S
C915 C914 1.370 . S
C915 C916 1.403 . S
C916 C915 1.403 . S
C916 C917 1.404 . S
C916 C919 1.539 . S
C917 C913 1.408 . S
C917 C916 1.404 . S
C917 H929 0.930 . S
C918 C914 1.524 . S
C918 H930 0.956 . S
C918 H931 0.961 . S
C918 H932 0.961 . S
C919 C916 1.539 . S
C919 H933 0.958 . S
C919 H934 0.961 . S
C919 H935 0.960 . S
H920 C904 0.931 . S
H921 C909 0.929 . S
H922 C910 0.960 . S
H923 C910 0.962 . S
H924 C910 0.960 . S
H925 C911 0.961 . S
H926 C911 0.961 . S
H927 C911 0.961 . S
H928 C912 0.931 . S
H929 C917 0.930 . S
H930 C918 0.956 . S
H931 C918 0.961 . S
H932 C918 0.961 . S
H933 C919 0.958 . S
H934 C919 0.961 . S
H935 C919 0.960 . S
C936 C937 1.391 . S
C936 C938 1.394 . S
C936 H952 0.931 . S
C937 C936 1.391 . S
C937 C941 1.376 . S
C938 C936 1.394 . S
C938 C939 1.369 . S
C938 C942 1.531 . S
C939 C938 1.369 . S
C939 C940 1.410 . S
C939 C947 1.503 . S
C940 C939 1.410 . S
C940 C941 1.392 . S
C940 C943 1.511 . S
C941 C937 1.376 . S
C941 C940 1.392 . S
C941 H953 0.929 . S
C942 C938 1.531 . S
C942 H954 0.960 . S
C942 H955 0.962 . S
C942 H956 0.960 . S
C943 C940 1.511 . S
C943 H957 0.961 . S
C943 H958 0.961 . S
C943 H959 0.961 . S
C944 C945 1.370 . S
C944 C946 1.363 . S
C944 H960 0.931 . S
C945 C944 1.370 . S
C945 C949 1.408 . S
C946 C944 1.363 . S
C946 C947 1.370 . S
C946 C950 1.524 . S
C947 C939 1.503 . S
C947 C946 1.370 . S
C947 C948 1.403 . S
C948 C947 1.403 . S
C948 C949 1.404 . S
C948 C951 1.539 . S
C949 C945 1.408 . S
C949 C948 1.404 . S
C949 H961 0.930 . S
C950 C946 1.524 . S
C950 H962 0.956 . S
C950 H963 0.961 . S
C950 H964 0.961 . S
C951 C948 1.539 . S
C951 H965 0.958 . S
C951 H966 0.961 . S
C951 H967 0.960 . S
H952 C936 0.931 . S
H953 C941 0.929 . S
H954 C942 0.960 . S
H955 C942 0.962 . S
H956 C942 0.960 . S
H957 C943 0.961 . S
H958 C943 0.961 . S
H959 C943 0.961 . S
H960 C944 0.931 . S
H961 C949 0.930 . S
H962 C950 0.956 . S
H963 C950 0.961 . S
H964 C950 0.961 . S
H965 C951 0.958 . S
H966 C951 0.961 . S
H967 C951 0.960 . S
C968 C969 1.391 . S
C968 C970 1.394 . S
C968 H984 0.931 . S
C969 C968 1.391 . S
C969 C973 1.376 . S
C970 C968 1.394 . S
C970 C971 1.369 . S
C970 C974 1.531 . S
C971 C970 1.369 . S
C971 C972 1.410 . S
C971 C979 1.503 . S
C972 C971 1.410 . S
C972 C973 1.392 . S
C972 C975 1.511 . S
C973 C969 1.376 . S
C973 C972 1.392 . S
C973 H985 0.929 . S
C974 C970 1.531 . S
C974 H986 0.960 . S
C974 H987 0.962 . S
C974 H988 0.960 . S
C975 C972 1.511 . S
C975 H989 0.961 . S
C975 H990 0.961 . S
C975 H991 0.961 . S
C976 C977 1.370 . S
C976 C978 1.363 . S
C976 H992 0.931 . S
C977 C976 1.370 . S
C977 C981 1.408 . S
C978 C976 1.363 . S
C978 C979 1.370 . S
C978 C982 1.524 . S
C979 C971 1.503 . S
C979 C978 1.370 . S
C979 C980 1.403 . S
C980 C979 1.403 . S
C980 C981 1.404 . S
C980 C983 1.539 . S
C981 C977 1.408 . S
C981 C980 1.404 . S
C981 H993 0.930 . S
C982 C978 1.524 . S
C982 H994 0.956 . S
C982 H995 0.961 . S
C982 H996 0.961 . S
C983 C980 1.539 . S
C983 H997 0.958 . S
C983 H998 0.961 . S
C983 H999 0.960 . S
H984 C968 0.931 . S
H985 C973 0.929 . S
H986 C974 0.960 . S
H987 C974 0.962 . S
H988 C974 0.960 . S
H989 C975 0.961 . S
H990 C975 0.961 . S
H991 C975 0.961 . S
H992 C976 0.931 . S
H993 C981 0.930 . S
H994 C982 0.956 . S
H995 C982 0.961 . S
H996 C982 0.961 . S
H997 C983 0.958 . S
H998 C983 0.961 . S
H999 C983 0.960 . S
C1000 C1001 1.391 . S
C1000 C1002 1.394 . S
C1000 H1016 0.931 . S
C1001 C1000 1.391 . S
C1001 C1005 1.376 . S
C1002 C1000 1.394 . S
C1002 C1003 1.369 . S
C1002 C1006 1.531 . S
C1003 C1002 1.369 . S
C1003 C1004 1.410 . S
C1003 C1011 1.503 . S
C1004 C1003 1.410 . S
C1004 C1005 1.392 . S
C1004 C1007 1.511 . S
C1005 C1001 1.376 . S
C1005 C1004 1.392 . S
C1005 H1017 0.929 . S
C1006 C1002 1.531 . S
C1006 H1018 0.960 . S
C1006 H1019 0.962 . S
C1006 H1020 0.960 . S
C1007 C1004 1.511 . S
C1007 H1021 0.961 . S
C1007 H1022 0.961 . S
C1007 H1023 0.961 . S
C1008 C1009 1.370 . S
C1008 C1010 1.363 . S
C1008 H1024 0.931 . S
C1009 C1008 1.370 . S
C1009 C1013 1.408 . S
C1010 C1008 1.363 . S
C1010 C1011 1.370 . S
C1010 C1014 1.524 . S
C1011 C1003 1.503 . S
C1011 C1010 1.370 . S
C1011 C1012 1.403 . S
C1012 C1011 1.403 . S
C1012 C1013 1.404 . S
C1012 C1015 1.539 . S
C1013 C1009 1.408 . S
C1013 C1012 1.404 . S
C1013 H1025 0.930 . S
C1014 C1010 1.524 . S
C1014 H1026 0.956 . S
C1014 H1027 0.961 . S
C1014 H1028 0.961 . S
C1015 C1012 1.539 . S
C1015 H1029 0.958 . S
C1015 H1030 0.961 . S
C1015 H1031 0.960 . S
H1016 C1000 0.931 . S
H1017 C1005 0.929 . S
H1018 C1006 0.960 . S
H1019 C1006 0.962 . S
H1020 C1006 0.960 . S
H1021 C1007 0.961 . S
H1022 C1007 0.961 . S
H1023 C1007 0.961 . S
H1024 C1008 0.931 . S
H1025 C1013 0.930 . S
H1026 C1014 0.956 . S
H1027 C1014 0.961 . S
H1028 C1014 0.961 . S
H1029 C1015 0.958 . S
H1030 C1015 0.961 . S
H1031 C1015 0.960 . S
C265 N1 0.955 . S
C273 C111 0.974 . S
C297 N18 1.132 . S
C305 C160 1.117 . S
C337 C186 2.078 . S
C329 N28 2.122 . S
C361 N40 2.582 . S
C369 C234 2.604 . S
C401 C146 2.424 . S
C393 N5 2.371 . S
C433 C114 0.717 . S
C425 N14 0.696 . S
C465 C235 2.024 . S
C457 N31 2.000 . S
C497 C203 1.400 . S
C489 N41 1.414 . S
C521 N2 1.328 . S
C529 C231 1.373 . S
C561 C163 2.457 1_556 S
C553 N27 2.506 . S
C585 N44 2.394 . S
C593 C115 2.455 . S
C617 N15 0.683 . S
C625 C200 0.706 . S
C657 C120 1.450 . S
C649 N57 1.471 . S
C681 N70 0.875 . S
C689 C151 0.948 . S
C713 N79 2.288 . S
C721 C195 2.322 . S
C745 N93 2.394 . S
C753 C243 2.372 . S
C777 N54 1.914 . S
C785 C155 2.029 1_566 S
C817 C123 1.482 . S
C809 N66 1.538 . S
C849 C226 1.411 . S
C841 N80 1.468 . S
C881 C194 1.699 . S
C873 N96 1.716 . S
C905 N53 1.444 . S
C913 C240 1.495 . S
C945 C154 2.143 . S
C937 N83 2.156 . S
C977 C106 2.635 . S
C969 N92 2.624 . S
C1001 N67 0.934 . S
C1009 C191 0.878 . S
