# Generated by pormake.
# Topology pth, (4,4)-cn, num edge types: 1
# Building blocks:
#     Node 0, Type 0, BuildingBlock: TATPOV_clean_sbu_0, # of connection points: 4
#     Node 1, Type 0, BuildingBlock: TATPOV_clean_sbu_0, # of connection points: 4
#     Node 2, Type 0, BuildingBlock: TATPOV_clean_sbu_0, # of connection points: 4
#     Node 3, Type 1, BuildingBlock: MUDLON_clean_linker_0, # of connection points: 4
#     Node 4, Type 1, BuildingBlock: MUDLON_clean_linker_0, # of connection points: 4
#     Node 5, Type 1, BuildingBlock: MUDLON_clean_linker_0, # of connection points: 4
#     Edge 6, Type (0, 1), BuildingBlock: CIFDUS_clean_linker_0, # of connection points: 2
#     Edge 7, Type (0, 1), BuildingBlock: CIFDUS_clean_linker_0, # of connection points: 2
#     Edge 8, Type (0, 1), BuildingBlock: CIFDUS_clean_linker_0, # of connection points: 2
#     Edge 9, Type (0, 1), BuildingBlock: CIFDUS_clean_linker_0, # of connection points: 2
#     Edge 10, Type (0, 1), BuildingBlock: CIFDUS_clean_linker_0, # of connection points: 2
#     Edge 11, Type (0, 1), BuildingBlock: CIFDUS_clean_linker_0, # of connection points: 2
#     Edge 12, Type (0, 1), BuildingBlock: CIFDUS_clean_linker_0, # of connection points: 2
#     Edge 13, Type (0, 1), BuildingBlock: CIFDUS_clean_linker_0, # of connection points: 2
#     Edge 14, Type (0, 1), BuildingBlock: CIFDUS_clean_linker_0, # of connection points: 2
#     Edge 15, Type (0, 1), BuildingBlock: CIFDUS_clean_linker_0, # of connection points: 2
#     Edge 16, Type (0, 1), BuildingBlock: CIFDUS_clean_linker_0, # of connection points: 2
#     Edge 17, Type (0, 1), BuildingBlock: CIFDUS_clean_linker_0, # of connection points: 2
# Relax obj value: 0.055
# Max RMSD: 0.166
# Mean RMSD: 0.112
data_MOF--net-pth--node1-TATPOV_clean_sbu_0--node2-MUDLON_clean_linker_0--edge1-CIFDUS_clean_linker_0
_symmetry_space_group_name_H-M    P1
_symmetry_Int_Tables_number       1
_symmetry_cell_setting            triclinic
loop_
_symmetry_equiv_pos_as_xyz
'x, y, z'
_cell_length_a     30.773875
_cell_length_b     30.516834
_cell_length_c     60.35401
_cell_angle_alpha  92.497567
_cell_angle_beta   92.25518
_cell_angle_gamma 120.98577
loop_
_atom_site_label
_atom_site_type_symbol
_atom_site_fract_x
_atom_site_fract_y
_atom_site_fract_z
_atom_type_partial_charge
Zn0 Zn 0.10957 0.97795 0.0102 0.0
Zn1 Zn 0.07448 0.03192 0.03103 0.0
O2 O 0.08695 0.99397 0.05575 0.0
O3 O 0.12182 0.95506 0.03918 0.0
O4 O 0.05024 0.07338 0.04742 0.0
O5 O 0.1652 0.04248 -0.00124 0.0
O6 O 0.13692 0.08677 0.01616 0.0
C7 C 0.10665 0.96607 0.05655 0.0
C8 C 0.00655 0.94753 0.99524 0.0
O9 O 0.01434 0.98428 0.0089 0.0
O10 O 0.04074 0.93656 0.99307 0.0
C11 C 0.00801 0.05137 0.05632 0.0
O12 O 0.98035 0.00105 0.05474 0.0
C13 C 0.16875 0.08494 0.00384 0.0
Zn14 Zn 0.09936 0.09564 0.33853 0.0
Zn15 Zn 0.01923 0.06489 0.36389 0.0
O16 O 0.08105 0.09223 0.38617 0.0
O17 O 0.14716 0.11742 0.36624 0.0
O18 O 0.96301 0.04997 0.38375 0.0
O19 O 0.08386 0.14507 0.32428 0.0
O20 O 0.01587 0.11504 0.34327 0.0
C21 C 0.1286 0.11101 0.38502 0.0
C22 C 0.02226 0.98617 0.33305 0.0
O23 O 0.00048 0.99602 0.34829 0.0
O24 O 0.06289 0.0214 0.32586 0.0
C25 C 0.91652 0.01588 0.37924 0.0
O26 O 0.90297 0.98651 0.36066 0.0
C27 C 0.04367 0.14425 0.32887 0.0
Zn28 Zn 0.05465 0.94628 0.71128 0.0
Zn29 Zn 0.01468 0.00102 0.69606 0.0
O30 O 0.04785 0.98839 0.66956 0.0
O31 O 0.07414 0.93756 0.68056 0.0
O32 O 0.97344 0.02866 0.68279 0.0
O33 O 0.98829 0.89385 0.72349 0.0
O34 O 0.95883 0.94064 0.71086 0.0
C35 C 0.06947 0.96302 0.66561 0.0
C36 C 0.10198 0.05341 0.73042 0.0
O37 O 0.06792 0.05572 0.71874 0.0
O38 O 0.10389 0.01281 0.72968 0.0
C39 C 0.98269 0.05405 0.66568 0.0
O40 O 0.02528 0.06853 0.6562 0.0
C41 C 0.95222 0.90223 0.721 0.0
H42 H 0.92488 0.66576 0.21072 0.0
N43 N 0.02155 0.68503 0.20634 0.0
H44 H 0.90177 0.71103 0.23785 0.0
H45 H 0.07476 0.73677 0.24384 0.0
H46 H 0.0514 0.78068 0.27145 0.0
H47 H 0.10919 0.76868 0.19913 0.0
H48 H 0.12375 0.83233 0.17233 0.0
H49 H 0.95166 0.67862 0.17478 0.0
H50 H 0.96568 0.74217 0.14826 0.0
H51 H 0.96418 0.60248 0.23066 0.0
H52 H 0.02783 0.64295 0.16676 0.0
H53 H 0.93505 0.51354 0.22054 0.0
H54 H 0.99697 0.55365 0.15656 0.0
H55 H 0.87703 0.23762 0.20007 0.0
H56 H 0.9081 0.2144 0.23283 0.0
H57 H 0.04646 0.36284 0.23711 0.0
H58 H 0.01588 0.38522 0.20428 0.0
H59 H 0.02231 0.34264 0.16928 0.0
H60 H 0.04223 0.2997 0.14019 0.0
H61 H 0.88397 0.2123 0.11625 0.0
H62 H 0.86402 0.25583 0.14576 0.0
H63 H 0.86354 0.34991 0.19261 0.0
H64 H 0.87775 0.43667 0.19673 0.0
H65 H 0.02203 0.4951 0.1678 0.0
N66 N 0.92706 0.32209 0.17857 0.0
H67 H 0.00726 0.4093 0.16329 0.0
C68 C 0.00212 0.69896 0.22505 0.0
C69 C 0.95236 0.69 0.22416 0.0
C70 C 0.93908 0.71562 0.2397 0.0
C71 C 0.97495 0.74961 0.25659 0.0
C72 C 0.02286 0.75438 0.25871 0.0
C73 C 0.03634 0.72944 0.24297 0.0
C74 C 0.02956 0.7191 0.18899 0.0
C75 C 0.07795 0.76253 0.18787 0.0
C76 C 0.0861 0.79878 0.17265 0.0
C77 C 0.04569 0.79237 0.15841 0.0
C78 C 0.99728 0.74851 0.15934 0.0
C79 C 0.98926 0.71209 0.17442 0.0
C80 C 0.99644 0.6307 0.19918 0.0
C81 C 0.97024 0.59264 0.2141 0.0
C82 C 0.95345 0.54122 0.20832 0.0
C83 C 0.96326 0.52632 0.18766 0.0
C84 C 0.98881 0.56379 0.17264 0.0
C85 C 0.00583 0.61517 0.17843 0.0
C86 C 0.9438 0.3129 0.19963 0.0
C87 C 0.91362 0.26539 0.20837 0.0
C88 C 0.93137 0.25235 0.22712 0.0
C89 C 0.97989 0.28675 0.23748 0.0
C90 C 0.0092 0.3353 0.22933 0.0
C91 C 0.99147 0.34826 0.21058 0.0
C92 C 0.94137 0.30273 0.15968 0.0
C93 C 0.99185 0.31521 0.15757 0.0
C94 C 0.00333 0.29058 0.14082 0.0
C95 C 0.96468 0.25253 0.12593 0.0
C96 C 0.91451 0.24119 0.1276 0.0
C97 C 0.9031 0.26623 0.1443 0.0
C98 C 0.93394 0.37253 0.17765 0.0
C99 C 0.89767 0.38141 0.18673 0.0
C100 C 0.90606 0.431 0.18924 0.0
C101 C 0.95115 0.47289 0.1827 0.0
C102 C 0.98654 0.4637 0.17274 0.0
C103 C 0.9781 0.41418 0.17021 0.0
H104 H 0.73837 0.11072 0.54447 0.0
N105 N 0.66263 0.01302 0.53004 0.0
H106 H 0.80812 0.13384 0.5724 0.0
H107 H 0.67087 0.95169 0.55758 0.0
H108 H 0.73979 0.9747 0.58598 0.0
H109 H 0.66769 0.93827 0.50827 0.0
H110 H 0.71978 0.94591 0.47732 0.0
H111 H 0.71435 0.09755 0.50627 0.0
H112 H 0.76626 0.1055 0.47536 0.0
H113 H 0.6378 0.05177 0.56624 0.0
H114 H 0.60394 0.01388 0.49527 0.0
H115 H 0.57546 0.07736 0.56691 0.0
H116 H 0.54282 0.04133 0.49602 0.0
H117 H 0.36479 0.157 0.56385 0.0
H118 H 0.29688 0.1149 0.58911 0.0
H119 H 0.28311 0.96978 0.57052 0.0
H120 H 0.35061 0.01175 0.54542 0.0
H121 H 0.31602 0.03771 0.51131 0.0
H122 H 0.27373 0.04889 0.47897 0.0
H123 H 0.38972 0.20932 0.48188 0.0
H124 H 0.43174 0.19827 0.5149 0.0
H125 H 0.49078 0.16226 0.55799 0.0
H126 H 0.55782 0.14184 0.55596 0.0
H127 H 0.46082 0.01354 0.50871 0.0
N128 N 0.39951 0.11368 0.53644 0.0
H129 H 0.39512 0.03521 0.51035 0.0
C130 C 0.69966 0.02916 0.54877 0.0
C131 C 0.73825 0.08085 0.55351 0.0
C132 C 0.77801 0.09406 0.56949 0.0
C133 C 0.77941 0.05603 0.58125 0.0
C134 C 0.73942 0.00485 0.5773 0.0
C135 C 0.70012 0.9916 0.56112 0.0
C136 C 0.68728 0.01716 0.50967 0.0
C137 C 0.68834 0.97454 0.50082 0.0
C138 C 0.71802 0.979 0.48315 0.0
C139 C 0.74746 0.02644 0.47405 0.0
C140 C 0.74461 0.06866 0.48227 0.0
C141 C 0.71487 0.06413 0.49991 0.0
C142 C 0.62908 0.03362 0.53039 0.0
C143 C 0.61879 0.05061 0.55057 0.0
C144 C 0.58261 0.06523 0.55103 0.0
C145 C 0.55461 0.06223 0.53148 0.0
C146 C 0.56373 0.04425 0.51143 0.0
C147 C 0.59968 0.02936 0.51096 0.0
C148 C 0.36344 0.08807 0.55289 0.0
C149 C 0.34756 0.11626 0.56549 0.0
C150 C 0.30843 0.09206 0.57968 0.0
C151 C 0.28443 0.03897 0.58162 0.0
C152 C 0.30113 0.01079 0.56945 0.0
C153 C 0.34004 0.03497 0.55512 0.0
C154 C 0.37687 0.11756 0.51579 0.0
C155 C 0.33269 0.07532 0.50507 0.0
C156 C 0.30841 0.0817 0.48659 0.0
C157 C 0.32823 0.13007 0.47821 0.0
C158 C 0.37375 0.17169 0.48813 0.0
C159 C 0.39768 0.16546 0.50689 0.0
C160 C 0.43808 0.10056 0.53438 0.0
C161 C 0.48431 0.12996 0.54713 0.0
C162 C 0.52235 0.11799 0.54603 0.0
C163 C 0.51476 0.076 0.53217 0.0
C164 C 0.46837 0.04665 0.51928 0.0
C165 C 0.43049 0.05885 0.5203 0.0
H166 H 0.70217 0.83672 0.87024 0.0
N167 N 0.65139 0.73463 0.86274 0.0
H168 H 0.76255 0.88789 0.90178 0.0
H169 H 0.65741 0.6993 0.90432 0.0
H170 H 0.71731 0.75011 0.93512 0.0
H171 H 0.74864 0.75242 0.86541 0.0
H172 H 0.80386 0.77074 0.83521 0.0
H173 H 0.63107 0.74187 0.82011 0.0
H174 H 0.68578 0.75806 0.7893 0.0
H175 H 0.54999 0.6809 0.85852 0.0
H176 H 0.68017 0.66432 0.86859 0.0
H177 H 0.49366 0.58762 0.85831 0.0
H178 H 0.62495 0.57251 0.86929 0.0
H179 H 0.34149 0.33151 0.88128 0.0
H180 H 0.3024 0.28596 0.91385 0.0
H181 H 0.44101 0.29005 0.9338 0.0
H182 H 0.4792 0.33426 0.90061 0.0
H183 H 0.42451 0.2683 0.85025 0.0
H184 H 0.36624 0.21131 0.81949 0.0
H185 H 0.31302 0.31617 0.81005 0.0
H186 H 0.36937 0.37123 0.84182 0.0
H187 H 0.41008 0.42484 0.88293 0.0
H188 H 0.46221 0.51756 0.88148 0.0
H189 H 0.57152 0.49896 0.84575 0.0
N190 N 0.43401 0.35418 0.86755 0.0
H191 H 0.52047 0.40652 0.8485 0.0
C192 C 0.677 0.7636 0.88382 0.0
C193 C 0.70445 0.81753 0.88452 0.0
C194 C 0.7388 0.8468 0.90259 0.0
C195 C 0.74561 0.82265 0.92052 0.0
C196 C 0.71387 0.76946 0.92112 0.0
C197 C 0.67971 0.7402 0.90312 0.0
C198 C 0.68566 0.7466 0.84511 0.0
C199 C 0.73455 0.75396 0.84892 0.0
C200 C 0.766 0.76374 0.83149 0.0
C201 C 0.74928 0.76563 0.80974 0.0
C202 C 0.70017 0.75755 0.80588 0.0
C203 C 0.66881 0.74825 0.82343 0.0
C204 C 0.61914 0.67974 0.86353 0.0
C205 C 0.56632 0.6572 0.86085 0.0
C206 C 0.53431 0.604 0.86084 0.0
C207 C 0.55477 0.57244 0.86365 0.0
C208 C 0.6078 0.59532 0.86652 0.0
C209 C 0.6396 0.64812 0.86621 0.0
C210 C 0.41308 0.33547 0.88841 0.0
C211 C 0.36373 0.32336 0.89285 0.0
C212 C 0.34158 0.29766 0.91161 0.0
C213 C 0.36843 0.28386 0.9263 0.0
C214 C 0.41904 0.29935 0.92259 0.0
C215 C 0.44103 0.32481 0.90377 0.0
C216 C 0.40176 0.32408 0.84816 0.0
C217 C 0.40048 0.27902 0.84138 0.0
C218 C 0.36735 0.24675 0.82366 0.0
C219 C 0.33506 0.25924 0.81205 0.0
C220 C 0.33688 0.30499 0.81871 0.0
C221 C 0.36956 0.3369 0.83674 0.0
C222 C 0.46223 0.40888 0.86626 0.0
C223 C 0.44547 0.44071 0.87499 0.0
C224 C 0.47509 0.49382 0.8739 0.0
C225 C 0.52145 0.51591 0.86374 0.0
C226 C 0.53679 0.48353 0.85425 0.0
C227 C 0.50761 0.43069 0.85565 0.0
H228 H 0.05477 0.15536 0.06168 0.0
H229 H 0.92248 0.01607 0.07904 0.0
H230 H 0.89574 0.06615 0.10088 0.0
H231 H 0.91217 0.14931 0.11665 0.0
H232 H 0.04457 0.28852 0.09951 0.0
H233 H 0.06897 0.23861 0.07598 0.0
C234 C 0.01997 0.1359 0.07016 0.0
C235 C 0.99088 0.08198 0.06881 0.0
C236 C 0.00486 0.16492 0.08277 0.0
C237 C 0.94575 0.05749 0.07984 0.0
C238 C 0.93038 0.08611 0.09234 0.0
C239 C 0.94585 0.16876 0.10744 0.0
C240 C 0.97654 0.22255 0.10986 0.0
C241 C 0.95988 0.13981 0.0941 0.0
C242 C 0.02056 0.24713 0.0981 0.0
C243 C 0.03449 0.21863 0.08462 0.0
H244 H 0.92997 0.08068 0.41455 0.0
H245 H 0.81666 0.93912 0.37849 0.0
H246 H 0.7538 0.93033 0.40432 0.0
H247 H 0.73147 0.96256 0.43753 0.0
H248 H 0.84552 0.10438 0.47316 0.0
H249 H 0.90742 0.11368 0.4469 0.0
C250 C 0.89156 0.04781 0.41232 0.0
C251 C 0.87814 0.01046 0.39469 0.0
C252 C 0.85563 0.04322 0.42709 0.0
C253 C 0.82803 0.96841 0.39194 0.0
C254 C 0.79206 0.96335 0.40671 0.0
C255 C 0.7699 0.99543 0.43952 0.0
C256 C 0.7838 0.03278 0.45723 0.0
C257 C 0.8055 0.00045 0.4244 0.0
C258 C 0.8336 0.07547 0.45949 0.0
C259 C 0.86916 0.08064 0.44458 0.0
H260 H 0.92783 0.82341 0.74737 0.0
H261 H 0.87011 0.91396 0.72039 0.0
H262 H 0.79955 0.87619 0.74422 0.0
H263 H 0.76044 0.82588 0.77583 0.0
H264 H 0.81667 0.73393 0.80254 0.0
H265 H 0.88181 0.76431 0.77582 0.0
C266 C 0.89935 0.83423 0.7464 0.0
C267 C 0.90483 0.87208 0.73234 0.0
C268 C 0.85904 0.81283 0.76038 0.0
C269 C 0.86725 0.88529 0.7312 0.0
C270 C 0.82688 0.86386 0.7449 0.0
C271 C 0.78605 0.81141 0.7755 0.0
C272 C 0.7841 0.77836 0.79149 0.0
C273 C 0.82331 0.82882 0.76004 0.0
C274 C 0.81808 0.76047 0.79084 0.0
C275 C 0.85521 0.77756 0.77547 0.0
H276 H 0.04215 0.94044 0.08956 0.0
H277 H 0.17303 0.93671 0.06911 0.0
H278 H 0.16803 0.88577 0.10006 0.0
H279 H 0.12179 0.83563 0.13074 0.0
H280 H 0.98794 0.8348 0.15 0.0
H281 H 0.99846 0.89385 0.12167 0.0
C282 C 0.07012 0.92929 0.09218 0.0
C283 C 0.10787 0.94222 0.07712 0.0
C284 C 0.06597 0.89851 0.10957 0.0
C285 C 0.1435 0.92699 0.08048 0.0
C286 C 0.14058 0.89775 0.09811 0.0
C287 C 0.09542 0.84904 0.12893 0.0
C288 C 0.05406 0.83079 0.14231 0.0
C289 C 0.10124 0.88223 0.11242 0.0
C290 C 0.01973 0.8479 0.13966 0.0
C291 C 0.02585 0.88179 0.12355 0.0
H292 H 0.23145 0.15374 0.38903 0.0
H293 H 0.09869 0.0876 0.427 0.0
H294 H 0.14971 0.09024 0.45951 0.0
H295 H 0.23028 0.1045 0.47627 0.0
H296 H 0.36342 0.17129 0.43887 0.0
H297 H 0.31407 0.17551 0.40699 0.0
C298 C 0.21377 0.14048 0.40449 0.0
C299 C 0.16115 0.11992 0.40546 0.0
C300 C 0.24328 0.14179 0.42314 0.0
C301 C 0.13902 0.1034 0.42571 0.0
C302 C 0.16811 0.10466 0.44431 0.0
C303 C 0.2484 0.12017 0.46113 0.0
C304 C 0.3 0.13689 0.45966 0.0
C305 C 0.21992 0.12257 0.44304 0.0
C306 C 0.3236 0.15807 0.44024 0.0
C307 C 0.29539 0.16032 0.42205 0.0
H308 H 0.20047 0.08377 0.73745 0.0
H309 H 0.08975 0.12311 0.7551 0.0
H310 H 0.15309 0.19243 0.78148 0.0
H311 H 0.23803 0.23691 0.80135 0.0
H312 H 0.35009 0.20108 0.78104 0.0
H313 H 0.28776 0.13482 0.75394 0.0
C314 C 0.19037 0.10777 0.74701 0.0
C315 C 0.14059 0.09816 0.74469 0.0
C316 C 0.22698 0.14772 0.76175 0.0
C317 C 0.12797 0.12994 0.75674 0.0
C318 C 0.16407 0.16933 0.77184 0.0
C319 C 0.2493 0.21549 0.7907 0.0
C320 C 0.2986 0.22344 0.79367 0.0
C321 C 0.21351 0.17802 0.77472 0.0
C322 C 0.31208 0.19484 0.7797 0.0
C323 C 0.27657 0.15712 0.76405 0.0
H324 H 0.98668 0.10237 0.62813 0.0
H325 H 0.88629 0.01657 0.67828 0.0
H326 H 0.81518 0.01307 0.65736 0.0
H327 H 0.77961 0.02706 0.62312 0.0
H328 H 0.8793 0.11271 0.57294 0.0
H329 H 0.95249 0.12413 0.59566 0.0
C330 C 0.94942 0.08354 0.63464 0.0
C331 C 0.94185 0.05919 0.6546 0.0
C332 C 0.90838 0.08134 0.62244 0.0
C333 C 0.89331 0.03536 0.66288 0.0
C334 C 0.85244 0.03314 0.65089 0.0
C335 C 0.81748 0.04864 0.61731 0.0
C336 C 0.82409 0.06865 0.59636 0.0
C337 C 0.85926 0.05479 0.63038 0.0
C338 C 0.87335 0.09715 0.58908 0.0
C339 C 0.91514 0.1034 0.602 0.0
H340 H 0.93488 0.97312 0.98667 0.0
H341 H 0.96844 0.85369 0.97365 0.0
H342 H 0.8892 0.80371 0.95061 0.0
H343 H 0.81249 0.7952 0.93292 0.0
H344 H 0.77914 0.91506 0.94395 0.0
H345 H 0.85636 0.96384 0.96901 0.0
C346 C 0.92464 0.93603 0.97888 0.0
C347 C 0.95759 0.91723 0.98184 0.0
C348 C 0.87922 0.90769 0.96529 0.0
C349 C 0.94398 0.86924 0.97153 0.0
C350 C 0.89861 0.84054 0.95838 0.0
C351 C 0.82164 0.83161 0.94112 0.0
C352 C 0.78998 0.8513 0.93687 0.0
C353 C 0.86623 0.85956 0.95502 0.0
C354 C 0.80299 0.89916 0.94707 0.0
C355 C 0.84705 0.92696 0.96135 0.0
H356 H 0.97722 0.94607 0.29226 0.0
H357 H 0.02415 0.90998 0.35349 0.0
H358 H 0.00723 0.82825 0.33577 0.0
H359 H 0.99032 0.77344 0.30135 0.0
H360 H 0.94237 0.80987 0.24031 0.0
H361 H 0.94698 0.88433 0.2595 0.0
C362 C 0.98236 0.91949 0.30177 0.0
C363 C 0.00186 0.93341 0.32398 0.0
C364 C 0.97257 0.8729 0.29148 0.0
C365 C 0.00878 0.89937 0.33634 0.0
C366 C -0.00056 0.85298 0.32619 0.0
C367 C 0.97976 0.7971 0.29245 0.0
C368 C 0.96639 0.78652 0.26947 0.0
C369 C 0.98296 0.84018 0.30355 0.0
C370 C 0.95243 0.81709 0.25805 0.0
C371 C 0.95555 0.85997 0.26895 0.0
H372 H 0.13342 0.92954 0.65555 0.0
H373 H 0.06868 0.0152 0.62999 0.0
H374 H 0.12765 0.04342 0.60061 0.0
H375 H 0.20361 0.05146 0.58478 0.0
H376 H 0.27021 0.96849 0.61128 0.0
H377 H 0.20424 0.93126 0.63761 0.0
C378 C 0.13143 0.95355 0.64332 0.0
C379 C 0.097 0.97069 0.64518 0.0
C380 C 0.16632 0.97075 0.62682 0.0
C381 C 0.09497 0.00167 0.62908 0.0
C382 C 0.12891 0.01812 0.61234 0.0
C383 C 0.20357 0.02515 0.59632 0.0
C384 C 0.2421 0.01329 0.59632 0.0
C385 C 0.16585 0.00433 0.61153 0.0
C386 C 0.24096 0.97822 0.61097 0.0
C387 C 0.20336 0.95707 0.62607 0.0
H388 H 0.25177 0.09731 0.9846 0.0
H389 H 0.17367 0.17684 0.00094 0.0
H390 H 0.23226 0.24856 0.98001 0.0
H391 H 0.30052 0.28452 0.95408 0.0
H392 H 0.3755 0.20203 0.93711 0.0
H393 H 0.32392 0.13621 0.96164 0.0
C394 C 0.24778 0.13053 0.98379 0.0
C395 C 0.20798 0.13141 0.99403 0.0
C396 C 0.28107 0.17113 0.97158 0.0
C397 C 0.20389 0.17511 0.99311 0.0
C398 C 0.23723 0.21602 0.98107 0.0
C399 C 0.30577 0.25231 0.9559 0.0
C400 C 0.34173 0.24822 0.94368 0.0
C401 C 0.27513 0.2138 0.96974 0.0
C402 C 0.34864 0.20663 0.94648 0.0
C403 C 0.31877 0.1686 0.96036 0.0
H404 H 0.09634 0.21369 0.29914 0.0
H405 H 0.95324 0.14124 0.32966 0.0
H406 H 0.92198 0.18213 0.30508 0.0
H407 H 0.933 0.23302 0.2729 0.0
H408 H 0.07553 0.30289 0.24196 0.0
H409 H 0.10944 0.26906 0.26895 0.0
C410 C 0.05846 0.20717 0.3006 0.0
C411 C 0.02703 0.17398 0.31606 0.0
C412 C 0.04053 0.23027 0.28628 0.0
C413 C 0.97823 0.16644 0.31785 0.0
C414 C 0.96022 0.18966 0.30374 0.0
C415 C 0.97153 0.24096 0.27215 0.0
C416 C 0.00157 0.27028 0.25539 0.0
C417 C 0.99064 0.22071 0.28755 0.0
C418 C 0.05173 0.28093 0.25482 0.0
C419 C 0.07107 0.26126 0.27015 0.0
loop_
_geom_bond_atom_site_label_1
_geom_bond_atom_site_label_2
_geom_bond_distance
_geom_bond_site_symmetry_2
_ccdc_geom_bond_type
Zn0 O3 2.031 . S
Zn0 O5 2.049 1_564 S
Zn0 O10 2.067 1_554 S
Zn1 O2 1.962 . S
Zn1 O4 1.986 . S
Zn1 O6 1.996 . S
Zn1 O9 1.943 1_455 S
O2 Zn1 1.962 . S
O2 C7 1.254 1_545 S
O3 Zn0 2.031 . S
O3 C7 1.269 . S
O4 Zn1 1.986 . S
O4 C11 1.262 . S
O5 Zn0 2.049 1_546 S
O5 C13 1.260 1_556 S
O6 Zn1 1.996 . S
O6 C13 1.257 . S
C7 O2 1.254 1_565 S
C7 O3 1.269 . S
C8 O9 1.249 1_565 S
C8 O10 1.270 1_654 S
O9 Zn1 1.943 1_655 S
O9 C8 1.249 1_545 S
O10 Zn0 2.067 1_556 S
O10 C8 1.270 1_456 S
C11 O4 1.262 . S
C11 O12 1.232 . S
O12 C11 1.232 . S
C13 O5 1.260 1_554 S
C13 O6 1.257 . S
Zn14 O17 2.031 . S
Zn14 O19 2.049 . S
Zn14 O24 2.067 . S
Zn15 O16 1.962 . S
Zn15 O18 1.986 1_455 S
Zn15 O20 1.996 . S
Zn15 O23 1.948 1_455 S
O16 Zn15 1.962 . S
O16 C21 1.254 . S
O17 Zn14 2.031 . S
O17 C21 1.269 . S
O18 Zn15 1.986 1_655 S
O18 C25 1.262 . S
O19 Zn14 2.049 . S
O19 C27 1.260 . S
O20 Zn15 1.996 . S
O20 C27 1.257 . S
C21 O16 1.254 . S
C21 O17 1.269 . S
C22 O23 1.246 1_465 S
C22 O24 1.270 1_565 S
O23 Zn15 1.948 1_655 S
O23 C22 1.246 1_645 S
O24 Zn14 2.067 . S
O24 C22 1.270 1_545 S
C25 O18 1.262 . S
C25 O26 1.232 . S
O26 C25 1.232 . S
C27 O19 1.260 . S
C27 O20 1.257 . S
Zn28 O31 2.031 1_565 S
Zn28 O33 2.049 . S
Zn28 O38 2.067 1_565 S
Zn29 O30 1.946 1_645 S
Zn29 O32 2.007 1_545 S
Zn29 O34 1.994 1_545 S
Zn29 O37 1.939 1_655 S
O30 Zn29 1.946 1_465 S
O30 C35 1.254 . S
O31 Zn28 2.031 1_545 S
O31 C35 1.269 1_545 S
O32 Zn29 2.007 1_565 S
O32 C39 1.262 1_565 S
O33 Zn28 2.049 . S
O33 C41 1.260 1_455 S
O34 Zn29 1.994 1_565 S
O34 C41 1.257 . S
C35 O30 1.254 . S
C35 O31 1.269 1_565 S
C36 O37 1.249 . S
C36 O38 1.270 . S
O37 Zn29 1.939 1_455 S
O37 C36 1.249 . S
O38 Zn28 2.067 1_545 S
O38 C36 1.270 . S
C39 O32 1.262 1_545 S
C39 O40 1.232 . S
O40 C39 1.232 . S
C41 O33 1.260 1_655 S
C41 O34 1.257 . S
H42 C69 0.929 . S
N43 C68 1.433 . S
N43 C74 1.435 . S
N43 C80 1.421 . S
H44 C70 0.930 . S
H45 C73 0.931 . S
H46 C72 0.929 . S
H47 C75 0.930 . S
H48 C76 0.932 . S
H49 C79 0.929 . S
H50 C78 0.931 . S
H51 C81 0.929 . S
H52 C85 0.932 . S
H53 C82 0.931 . S
H54 C84 0.929 . S
H55 C87 0.929 . S
H56 C88 0.930 . S
H57 C90 0.929 . S
H58 C91 0.931 . S
H59 C93 0.930 . S
H60 C94 0.932 . S
H61 C96 0.931 . S
H62 C97 0.929 . S
H63 C99 0.929 . S
H64 C100 0.931 . S
H65 C102 0.929 . S
N66 C86 1.433 . S
N66 C92 1.435 . S
N66 C98 1.427 . S
H67 C103 0.932 . S
C68 N43 1.433 . S
C68 C69 1.363 1_455 S
C68 C73 1.370 . S
C69 H42 0.929 . S
C69 C68 1.363 1_655 S
C69 C70 1.385 . S
C70 H44 0.930 . S
C70 C69 1.385 . S
C70 C71 1.357 1_655 S
C71 C70 1.357 1_455 S
C71 C72 1.406 . S
C72 H46 0.929 . S
C72 C71 1.406 . S
C72 C73 1.391 . S
C73 H45 0.931 . S
C73 C68 1.370 . S
C73 C72 1.391 . S
C74 N43 1.435 . S
C74 C75 1.358 . S
C74 C79 1.371 1_455 S
C75 H47 0.930 . S
C75 C74 1.358 . S
C75 C76 1.405 . S
C76 H48 0.932 . S
C76 C75 1.405 . S
C76 C77 1.383 . S
C77 C76 1.383 . S
C77 C78 1.393 1_455 S
C78 H50 0.931 . S
C78 C77 1.393 1_655 S
C78 C79 1.382 . S
C79 H49 0.929 . S
C79 C74 1.371 1_655 S
C79 C78 1.382 . S
C80 N43 1.421 . S
C80 C81 1.361 1_455 S
C80 C85 1.393 . S
C81 H51 0.929 . S
C81 C80 1.361 1_655 S
C81 C82 1.376 . S
C82 H53 0.931 . S
C82 C81 1.376 . S
C82 C83 1.396 . S
C83 C82 1.396 . S
C83 C84 1.348 1_655 S
C83 C101 1.472 . S
C84 H54 0.929 . S
C84 C83 1.348 1_455 S
C84 C85 1.443 . S
C85 H52 0.932 . S
C85 C80 1.393 . S
C85 C84 1.443 . S
C86 N66 1.433 . S
C86 C87 1.363 1_455 S
C86 C91 1.370 . S
C87 H55 0.929 . S
C87 C86 1.363 1_655 S
C87 C88 1.385 . S
C88 H56 0.930 . S
C88 C87 1.385 . S
C88 C89 1.357 1_655 S
C89 C88 1.357 1_455 S
C89 C90 1.406 . S
C90 H57 0.929 . S
C90 C89 1.406 . S
C90 C91 1.391 . S
C91 H58 0.931 . S
C91 C86 1.370 . S
C91 C90 1.391 . S
C92 N66 1.435 . S
C92 C93 1.358 . S
C92 C97 1.371 1_455 S
C93 H59 0.930 . S
C93 C92 1.358 . S
C93 C94 1.405 . S
C94 H60 0.932 . S
C94 C93 1.405 . S
C94 C95 1.383 . S
C95 C94 1.383 . S
C95 C96 1.393 1_455 S
C96 H61 0.931 . S
C96 C95 1.393 1_655 S
C96 C97 1.382 . S
C97 H62 0.929 . S
C97 C92 1.371 1_655 S
C97 C96 1.382 . S
C98 N66 1.427 . S
C98 C99 1.357 1_455 S
C98 C103 1.390 . S
C99 H63 0.929 . S
C99 C98 1.357 1_655 S
C99 C100 1.376 . S
C100 H64 0.931 . S
C100 C99 1.376 . S
C100 C101 1.396 . S
C101 C83 1.472 . S
C101 C100 1.396 . S
C101 C102 1.348 1_655 S
C102 H65 0.929 . S
C102 C101 1.348 1_455 S
C102 C103 1.443 . S
C103 H67 0.932 . S
C103 C98 1.390 . S
C103 C102 1.443 . S
H104 C131 0.929 . S
N105 C130 1.433 . S
N105 C136 1.435 . S
N105 C142 1.423 . S
H106 C132 0.930 . S
H107 C135 0.931 . S
H108 C134 0.929 1_565 S
H109 C137 0.930 1_565 S
H110 C138 0.932 1_565 S
H111 C141 0.929 . S
H112 C140 0.931 . S
H113 C143 0.929 . S
H114 C147 0.932 . S
H115 C144 0.931 . S
H116 C146 0.929 . S
H117 C149 0.929 . S
H118 C150 0.930 . S
H119 C152 0.929 1_565 S
H120 C153 0.931 . S
H121 C155 0.930 1_565 S
H122 C156 0.932 1_565 S
H123 C158 0.931 . S
H124 C159 0.929 . S
H125 C161 0.929 . S
H126 C162 0.931 . S
H127 C164 0.929 . S
N128 C148 1.433 . S
N128 C154 1.435 . S
N128 C160 1.423 . S
H129 C165 0.932 . S
C130 N105 1.433 . S
C130 C131 1.363 . S
C130 C135 1.370 . S
C131 H104 0.929 . S
C131 C130 1.363 . S
C131 C132 1.385 . S
C132 H106 0.930 . S
C132 C131 1.385 . S
C132 C133 1.357 . S
C133 C132 1.357 . S
C133 C134 1.406 . S
C134 H108 0.929 1_545 S
C134 C133 1.406 . S
C134 C135 1.391 . S
C135 H107 0.931 . S
C135 C130 1.370 . S
C135 C134 1.391 . S
C136 N105 1.435 . S
C136 C137 1.358 . S
C136 C141 1.371 . S
C137 H109 0.930 1_545 S
C137 C136 1.358 . S
C137 C138 1.405 . S
C138 H110 0.932 1_545 S
C138 C137 1.405 . S
C138 C139 1.383 . S
C139 C138 1.383 . S
C139 C140 1.393 . S
C140 H112 0.931 . S
C140 C139 1.393 . S
C140 C141 1.382 . S
C141 H111 0.929 . S
C141 C136 1.371 . S
C141 C140 1.382 . S
C142 N105 1.423 . S
C142 C143 1.362 . S
C142 C147 1.388 . S
C143 H113 0.929 . S
C143 C142 1.362 . S
C143 C144 1.376 . S
C144 H115 0.931 . S
C144 C143 1.376 . S
C144 C145 1.396 . S
C145 C144 1.396 . S
C145 C146 1.348 . S
C145 C163 1.472 . S
C146 H116 0.929 . S
C146 C145 1.348 . S
C146 C147 1.443 . S
C147 H114 0.932 . S
C147 C142 1.388 . S
C147 C146 1.443 . S
C148 N128 1.433 . S
C148 C149 1.363 . S
C148 C153 1.370 . S
C149 H117 0.929 . S
C149 C148 1.363 . S
C149 C150 1.385 . S
C150 H118 0.930 . S
C150 C149 1.385 . S
C150 C151 1.357 . S
C151 C150 1.357 . S
C151 C152 1.406 . S
C152 H119 0.929 1_545 S
C152 C151 1.406 . S
C152 C153 1.391 . S
C153 H120 0.931 . S
C153 C148 1.370 . S
C153 C152 1.391 . S
C154 N128 1.435 . S
C154 C155 1.358 . S
C154 C159 1.371 . S
C155 H121 0.930 1_545 S
C155 C154 1.358 . S
C155 C156 1.405 . S
C156 H122 0.932 1_545 S
C156 C155 1.405 . S
C156 C157 1.383 . S
C157 C156 1.383 . S
C157 C158 1.393 . S
C158 H123 0.931 . S
C158 C157 1.393 . S
C158 C159 1.382 . S
C159 H124 0.929 . S
C159 C154 1.371 . S
C159 C158 1.382 . S
C160 N128 1.423 . S
C160 C161 1.362 . S
C160 C165 1.388 . S
C161 H125 0.929 . S
C161 C160 1.362 . S
C161 C162 1.376 . S
C162 H126 0.931 . S
C162 C161 1.376 . S
C162 C163 1.396 . S
C163 C145 1.472 . S
C163 C162 1.396 . S
C163 C164 1.348 . S
C164 H127 0.929 . S
C164 C163 1.348 . S
C164 C165 1.443 . S
C165 H129 0.932 . S
C165 C160 1.388 . S
C165 C164 1.443 . S
H166 C193 0.929 . S
N167 C192 1.433 . S
N167 C198 1.435 . S
N167 C204 1.423 . S
H168 C194 0.930 . S
H169 C197 0.931 . S
H170 C196 0.929 . S
H171 C199 0.930 . S
H172 C200 0.932 . S
H173 C203 0.929 . S
H174 C202 0.931 . S
H175 C205 0.929 . S
H176 C209 0.932 . S
H177 C206 0.931 . S
H178 C208 0.929 . S
H179 C211 0.929 . S
H180 C212 0.930 . S
H181 C214 0.929 . S
H182 C215 0.931 . S
H183 C217 0.930 . S
H184 C218 0.932 . S
H185 C220 0.931 . S
H186 C221 0.929 . S
H187 C223 0.929 . S
H188 C224 0.931 . S
H189 C226 0.929 . S
N190 C210 1.433 . S
N190 C216 1.435 . S
N190 C222 1.423 . S
H191 C227 0.932 . S
C192 N167 1.433 . S
C192 C193 1.363 . S
C192 C197 1.370 . S
C193 H166 0.929 . S
C193 C192 1.363 . S
C193 C194 1.385 . S
C194 H168 0.930 . S
C194 C193 1.385 . S
C194 C195 1.357 . S
C195 C194 1.357 . S
C195 C196 1.406 . S
C196 H170 0.929 . S
C196 C195 1.406 . S
C196 C197 1.391 . S
C197 H169 0.931 . S
C197 C192 1.370 . S
C197 C196 1.391 . S
C198 N167 1.435 . S
C198 C199 1.358 . S
C198 C203 1.371 . S
C199 H171 0.930 . S
C199 C198 1.358 . S
C199 C200 1.405 . S
C200 H172 0.932 . S
C200 C199 1.405 . S
C200 C201 1.383 . S
C201 C200 1.383 . S
C201 C202 1.393 . S
C202 H174 0.931 . S
C202 C201 1.393 . S
C202 C203 1.382 . S
C203 H173 0.929 . S
C203 C198 1.371 . S
C203 C202 1.382 . S
C204 N167 1.423 . S
C204 C205 1.362 . S
C204 C209 1.388 . S
C205 H175 0.929 . S
C205 C204 1.362 . S
C205 C206 1.376 . S
C206 H177 0.931 . S
C206 C205 1.376 . S
C206 C207 1.396 . S
C207 C206 1.396 . S
C207 C208 1.348 . S
C207 C225 1.472 . S
C208 H178 0.929 . S
C208 C207 1.348 . S
C208 C209 1.443 . S
C209 H176 0.932 . S
C209 C204 1.388 . S
C209 C208 1.443 . S
C210 N190 1.433 . S
C210 C211 1.363 . S
C210 C215 1.370 . S
C211 H179 0.929 . S
C211 C210 1.363 . S
C211 C212 1.385 . S
C212 H180 0.930 . S
C212 C211 1.385 . S
C212 C213 1.357 . S
C213 C212 1.357 . S
C213 C214 1.406 . S
C214 H181 0.929 . S
C214 C213 1.406 . S
C214 C215 1.391 . S
C215 H182 0.931 . S
C215 C210 1.370 . S
C215 C214 1.391 . S
C216 N190 1.435 . S
C216 C217 1.358 . S
C216 C221 1.371 . S
C217 H183 0.930 . S
C217 C216 1.358 . S
C217 C218 1.405 . S
C218 H184 0.932 . S
C218 C217 1.405 . S
C218 C219 1.383 . S
C219 C218 1.383 . S
C219 C220 1.393 . S
C220 H185 0.931 . S
C220 C219 1.393 . S
C220 C221 1.382 . S
C221 H186 0.929 . S
C221 C216 1.371 . S
C221 C220 1.382 . S
C222 N190 1.423 . S
C222 C223 1.362 . S
C222 C227 1.388 . S
C223 H187 0.929 . S
C223 C222 1.362 . S
C223 C224 1.376 . S
C224 H188 0.931 . S
C224 C223 1.376 . S
C224 C225 1.396 . S
C225 C207 1.472 . S
C225 C224 1.396 . S
C225 C226 1.348 . S
C226 H189 0.929 . S
C226 C225 1.348 . S
C226 C227 1.443 . S
C227 H191 0.932 . S
C227 C222 1.388 . S
C227 C226 1.443 . S
H228 C234 0.930 . S
H229 C237 0.930 . S
H230 C238 0.930 . S
H231 C239 0.930 . S
H232 C242 0.930 . S
H233 C243 0.930 . S
C234 H228 0.930 . S
C234 C235 1.355 . S
C234 C236 1.415 . S
C235 C234 1.355 . S
C235 C237 1.419 . S
C236 C234 1.415 . S
C236 C241 1.425 . S
C236 C243 1.409 . S
C237 H229 0.930 . S
C237 C235 1.419 . S
C237 C238 1.362 . S
C238 H230 0.930 . S
C238 C237 1.362 . S
C238 C241 1.409 . S
C239 H231 0.930 . S
C239 C240 1.355 . S
C239 C241 1.415 . S
C240 C239 1.355 . S
C240 C242 1.419 . S
C241 C236 1.425 . S
C241 C238 1.409 . S
C241 C239 1.415 . S
C242 H232 0.930 . S
C242 C240 1.419 . S
C242 C243 1.362 . S
C243 H233 0.930 . S
C243 C236 1.409 . S
C243 C242 1.362 . S
H244 C250 0.930 . S
H245 C253 0.930 . S
H246 C254 0.930 . S
H247 C255 0.930 1_565 S
H248 C258 0.930 . S
H249 C259 0.930 . S
C250 H244 0.930 . S
C250 C251 1.355 . S
C250 C252 1.415 . S
C251 C250 1.355 . S
C251 C253 1.419 1_545 S
C252 C250 1.415 . S
C252 C257 1.425 . S
C252 C259 1.409 . S
C253 H245 0.930 . S
C253 C251 1.419 1_565 S
C253 C254 1.362 . S
C254 H246 0.930 . S
C254 C253 1.362 . S
C254 C257 1.409 1_565 S
C255 H247 0.930 1_545 S
C255 C256 1.355 . S
C255 C257 1.415 . S
C256 C255 1.355 . S
C256 C258 1.419 . S
C257 C252 1.425 . S
C257 C254 1.409 1_545 S
C257 C255 1.415 . S
C258 H248 0.930 . S
C258 C256 1.419 . S
C258 C259 1.362 . S
C259 H249 0.930 . S
C259 C252 1.409 . S
C259 C258 1.362 . S
H260 C266 0.930 . S
H261 C269 0.930 . S
H262 C270 0.930 . S
H263 C271 0.930 . S
H264 C274 0.930 . S
H265 C275 0.930 . S
C266 H260 0.930 . S
C266 C267 1.355 . S
C266 C268 1.415 . S
C267 C266 1.355 . S
C267 C269 1.419 . S
C268 C266 1.415 . S
C268 C273 1.425 . S
C268 C275 1.409 . S
C269 H261 0.930 . S
C269 C267 1.419 . S
C269 C270 1.362 . S
C270 H262 0.930 . S
C270 C269 1.362 . S
C270 C273 1.409 . S
C271 H263 0.930 . S
C271 C272 1.355 . S
C271 C273 1.415 . S
C272 C271 1.355 . S
C272 C274 1.419 . S
C273 C268 1.425 . S
C273 C270 1.409 . S
C273 C271 1.415 . S
C274 H264 0.930 . S
C274 C272 1.419 . S
C274 C275 1.362 . S
C275 H265 0.930 . S
C275 C268 1.409 . S
C275 C274 1.362 . S
H276 C282 0.930 . S
H277 C285 0.930 . S
H278 C286 0.930 . S
H279 C287 0.930 . S
H280 C290 0.930 . S
H281 C291 0.930 . S
C282 H276 0.930 . S
C282 C283 1.355 . S
C282 C284 1.415 . S
C283 C282 1.355 . S
C283 C285 1.419 . S
C284 C282 1.415 . S
C284 C289 1.425 . S
C284 C291 1.409 1_455 S
C285 H277 0.930 . S
C285 C283 1.419 . S
C285 C286 1.362 . S
C286 H278 0.930 . S
C286 C285 1.362 . S
C286 C289 1.409 . S
C287 H279 0.930 . S
C287 C288 1.355 . S
C287 C289 1.415 . S
C288 C287 1.355 . S
C288 C290 1.419 1_455 S
C289 C284 1.425 . S
C289 C286 1.409 . S
C289 C287 1.415 . S
C290 H280 0.930 . S
C290 C288 1.419 1_655 S
C290 C291 1.362 . S
C291 H281 0.930 . S
C291 C284 1.409 1_655 S
C291 C290 1.362 . S
H292 C298 0.930 . S
H293 C301 0.930 . S
H294 C302 0.930 . S
H295 C303 0.930 . S
H296 C306 0.930 1_565 S
H297 C307 0.940 . S
C298 H292 0.930 . S
C298 C299 1.355 . S
C298 C300 1.415 . S
C299 C298 1.355 . S
C299 C301 1.419 . S
C300 C298 1.415 . S
C300 C305 1.425 . S
C300 C307 1.394 1_545 S
C301 H293 0.930 . S
C301 C299 1.419 . S
C301 C302 1.362 . S
C302 H294 0.930 . S
C302 C301 1.362 . S
C302 C305 1.409 . S
C303 H295 0.930 . S
C303 C304 1.355 . S
C303 C305 1.415 . S
C304 C303 1.355 . S
C304 C306 1.419 . S
C305 C300 1.425 . S
C305 C302 1.409 . S
C305 C303 1.415 . S
C306 H296 0.930 1_545 S
C306 C304 1.419 . S
C306 C307 1.368 1_545 S
C307 H297 0.940 . S
C307 C300 1.394 1_565 S
C307 C306 1.368 1_565 S
H308 C314 0.930 . S
H309 C317 0.930 . S
H310 C318 0.930 . S
H311 C319 0.930 . S
H312 C322 0.930 . S
H313 C323 0.930 . S
C314 H308 0.930 . S
C314 C315 1.355 . S
C314 C316 1.415 . S
C315 C314 1.355 . S
C315 C317 1.419 . S
C316 C314 1.415 . S
C316 C321 1.425 . S
C316 C323 1.409 . S
C317 H309 0.930 . S
C317 C315 1.419 . S
C317 C318 1.362 . S
C318 H310 0.930 . S
C318 C317 1.362 . S
C318 C321 1.409 . S
C319 H311 0.930 . S
C319 C320 1.355 . S
C319 C321 1.415 . S
C320 C319 1.355 . S
C320 C322 1.419 . S
C321 C316 1.425 . S
C321 C318 1.409 . S
C321 C319 1.415 . S
C322 H312 0.930 . S
C322 C320 1.419 . S
C322 C323 1.362 . S
C323 H313 0.930 . S
C323 C316 1.409 . S
C323 C322 1.362 . S
H324 C330 0.930 . S
H325 C333 0.930 1_565 S
H326 C334 0.930 . S
H327 C335 0.930 1_565 S
H328 C338 0.930 . S
H329 C339 0.930 . S
C330 H324 0.930 . S
C330 C331 1.355 . S
C330 C332 1.415 . S
C331 C330 1.355 . S
C331 C333 1.419 . S
C332 C330 1.415 . S
C332 C337 1.425 . S
C332 C339 1.409 . S
C333 H325 0.930 1_545 S
C333 C331 1.419 . S
C333 C334 1.362 1_545 S
C334 H326 0.930 . S
C334 C333 1.362 1_565 S
C334 C337 1.409 1_565 S
C335 H327 0.930 1_545 S
C335 C336 1.355 . S
C335 C337 1.415 . S
C336 C335 1.355 . S
C336 C338 1.419 . S
C337 C332 1.425 . S
C337 C334 1.409 1_545 S
C337 C335 1.415 . S
C338 H328 0.930 . S
C338 C336 1.419 . S
C338 C339 1.362 . S
C339 H329 0.930 . S
C339 C332 1.409 . S
C339 C338 1.362 . S
H340 C346 0.930 . S
H341 C349 0.927 . S
H342 C350 0.930 . S
H343 C351 0.930 . S
H344 C354 0.930 . S
H345 C355 0.930 . S
C346 H340 0.930 . S
C346 C347 1.355 . S
C346 C348 1.415 . S
C347 C346 1.355 . S
C347 C349 1.421 1_556 S
C348 C346 1.415 . S
C348 C353 1.425 . S
C348 C355 1.409 . S
C349 H341 0.927 . S
C349 C347 1.421 1_554 S
C349 C350 1.364 1_554 S
C350 H342 0.930 . S
C350 C349 1.364 1_556 S
C350 C353 1.409 . S
C351 H343 0.930 . S
C351 C352 1.355 . S
C351 C353 1.415 . S
C352 C351 1.355 . S
C352 C354 1.419 . S
C353 C348 1.425 . S
C353 C350 1.409 . S
C353 C351 1.415 . S
C354 H344 0.930 . S
C354 C352 1.419 . S
C354 C355 1.362 . S
C355 H345 0.930 . S
C355 C348 1.409 . S
C355 C354 1.362 . S
H356 C362 0.930 . S
H357 C365 0.930 . S
H358 C366 0.930 . S
H359 C367 0.930 . S
H360 C370 0.930 . S
H361 C371 0.930 . S
C362 H356 0.930 . S
C362 C363 1.355 . S
C362 C364 1.415 . S
C363 C362 1.355 . S
C363 C365 1.419 1_655 S
C364 C362 1.415 . S
C364 C369 1.425 1_655 S
C364 C371 1.409 . S
C365 H357 0.930 . S
C365 C363 1.419 1_455 S
C365 C366 1.362 . S
C366 H358 0.930 . S
C366 C365 1.362 . S
C366 C369 1.409 . S
C367 H359 0.930 . S
C367 C368 1.355 . S
C367 C369 1.415 . S
C368 C367 1.355 . S
C368 C370 1.419 1_455 S
C369 C364 1.425 1_455 S
C369 C366 1.409 . S
C369 C367 1.415 . S
C370 H360 0.930 . S
C370 C368 1.419 1_655 S
C370 C371 1.362 . S
C371 H361 0.930 . S
C371 C364 1.409 . S
C371 C370 1.362 . S
H372 C378 0.930 . S
H373 C381 0.930 . S
H374 C382 0.930 . S
H375 C383 0.930 . S
H376 C386 0.930 . S
H377 C387 0.930 . S
C378 H372 0.930 . S
C378 C379 1.355 1_545 S
C378 C380 1.415 . S
C379 C378 1.355 1_565 S
C379 C381 1.419 . S
C380 C378 1.415 . S
C380 C385 1.425 1_545 S
C380 C387 1.409 . S
C381 H373 0.930 . S
C381 C379 1.419 . S
C381 C382 1.362 . S
C382 H374 0.930 . S
C382 C381 1.362 . S
C382 C385 1.409 . S
C383 H375 0.930 . S
C383 C384 1.355 1_565 S
C383 C385 1.415 . S
C384 C383 1.355 1_545 S
C384 C386 1.419 . S
C385 C380 1.425 1_565 S
C385 C382 1.409 . S
C385 C383 1.415 . S
C386 H376 0.930 . S
C386 C384 1.419 . S
C386 C387 1.362 . S
C387 H377 0.930 . S
C387 C380 1.409 . S
C387 C386 1.362 . S
H388 C394 0.930 . S
H389 C397 0.930 . S
H390 C398 0.909 1_554 S
H391 C399 0.930 . S
H392 C402 0.930 . S
H393 C403 0.930 . S
C394 H388 0.930 . S
C394 C395 1.355 . S
C394 C396 1.415 . S
C395 C394 1.355 . S
C395 C397 1.419 1_556 S
C396 C394 1.415 . S
C396 C401 1.425 . S
C396 C403 1.409 . S
C397 H389 0.930 . S
C397 C395 1.419 1_554 S
C397 C398 1.347 1_554 S
C398 H390 0.909 1_556 S
C398 C397 1.347 1_556 S
C398 C401 1.447 . S
C399 H391 0.930 . S
C399 C400 1.355 . S
C399 C401 1.415 . S
C400 C399 1.355 . S
C400 C402 1.419 . S
C401 C396 1.425 . S
C401 C398 1.447 . S
C401 C399 1.415 . S
C402 H392 0.930 . S
C402 C400 1.419 . S
C402 C403 1.362 . S
C403 H393 0.930 . S
C403 C396 1.409 . S
C403 C402 1.362 . S
H404 C410 0.930 . S
H405 C413 0.930 . S
H406 C414 0.930 . S
H407 C415 0.930 . S
H408 C418 0.930 . S
H409 C419 0.930 . S
C410 H404 0.930 . S
C410 C411 1.355 . S
C410 C412 1.415 . S
C411 C410 1.355 . S
C411 C413 1.419 1_455 S
C412 C410 1.415 . S
C412 C417 1.425 . S
C412 C419 1.409 . S
C413 H405 0.930 . S
C413 C411 1.419 1_655 S
C413 C414 1.362 . S
C414 H406 0.930 . S
C414 C413 1.362 . S
C414 C417 1.409 1_655 S
C415 H407 0.930 . S
C415 C416 1.355 1_655 S
C415 C417 1.415 1_655 S
C416 C415 1.355 1_455 S
C416 C418 1.419 . S
C417 C412 1.425 . S
C417 C414 1.409 1_455 S
C417 C415 1.415 1_455 S
C418 H408 0.930 . S
C418 C416 1.419 . S
C418 C419 1.362 . S
C419 H409 0.930 . S
C419 C412 1.409 . S
C419 C418 1.362 . S
C240 C95 1.247 . S
C235 C11 1.192 . S
C251 C25 1.296 . S
C256 C139 1.296 . S
C267 C41 1.335 . S
C272 C201 1.372 . S
C283 C7 1.270 . S
C288 C77 1.256 . S
C304 C157 1.328 . S
C299 C21 1.324 . S
C315 C36 1.330 . S
C320 C219 1.406 . S
C336 C133 1.447 . S
C331 C39 1.610 . S
C347 C8 1.609 1_556 S
C352 C195 1.504 . S
C368 C71 1.553 . S
C363 C22 1.675 1_655 S
C384 C151 1.556 . S
C379 C35 1.625 . S
C400 C213 1.497 . S
C395 C13 1.587 1_556 S
C411 C27 1.688 . S
C416 C89 1.605 . S
