# Generated by pormake.
# Topology pyr, (3,6)-cn, num edge types: 1
# Building blocks:
#     Node 0, Type 0, BuildingBlock: VETTIZ_charged_linker_0, # of connection points: 3
#     Node 1, Type 0, BuildingBlock: VETTIZ_charged_linker_0, # of connection points: 3
#     Node 2, Type 0, BuildingBlock: VETTIZ_charged_linker_0, # of connection points: 3
#     Node 3, Type 0, BuildingBlock: VETTIZ_charged_linker_0, # of connection points: 3
#     Node 4, Type 0, BuildingBlock: VETTIZ_charged_linker_0, # of connection points: 3
#     Node 5, Type 0, BuildingBlock: VETTIZ_charged_linker_0, # of connection points: 3
#     Node 6, Type 0, BuildingBlock: VETTIZ_charged_linker_0, # of connection points: 3
#     Node 7, Type 0, BuildingBlock: VETTIZ_charged_linker_0, # of connection points: 3
#     Node 8, Type 1, BuildingBlock: VOLQOD_clean_sbu_1, # of connection points: 6
#     Node 9, Type 1, BuildingBlock: VOLQOD_clean_sbu_1, # of connection points: 6
#     Node 10, Type 1, BuildingBlock: VOLQOD_clean_sbu_1, # of connection points: 6
#     Node 11, Type 1, BuildingBlock: VOLQOD_clean_sbu_1, # of connection points: 6
#     Edge 12, Type (0, 1), BuildingBlock: XUDNAN_clean_linker_2, # of connection points: 2
#     Edge 13, Type (0, 1), BuildingBlock: XUDNAN_clean_linker_2, # of connection points: 2
#     Edge 14, Type (0, 1), BuildingBlock: XUDNAN_clean_linker_2, # of connection points: 2
#     Edge 15, Type (0, 1), BuildingBlock: XUDNAN_clean_linker_2, # of connection points: 2
#     Edge 16, Type (0, 1), BuildingBlock: XUDNAN_clean_linker_2, # of connection points: 2
#     Edge 17, Type (0, 1), BuildingBlock: XUDNAN_clean_linker_2, # of connection points: 2
#     Edge 18, Type (0, 1), BuildingBlock: XUDNAN_clean_linker_2, # of connection points: 2
#     Edge 19, Type (0, 1), BuildingBlock: XUDNAN_clean_linker_2, # of connection points: 2
#     Edge 20, Type (0, 1), BuildingBlock: XUDNAN_clean_linker_2, # of connection points: 2
#     Edge 21, Type (0, 1), BuildingBlock: XUDNAN_clean_linker_2, # of connection points: 2
#     Edge 22, Type (0, 1), BuildingBlock: XUDNAN_clean_linker_2, # of connection points: 2
#     Edge 23, Type (0, 1), BuildingBlock: XUDNAN_clean_linker_2, # of connection points: 2
#     Edge 24, Type (0, 1), BuildingBlock: XUDNAN_clean_linker_2, # of connection points: 2
#     Edge 25, Type (0, 1), BuildingBlock: XUDNAN_clean_linker_2, # of connection points: 2
#     Edge 26, Type (0, 1), BuildingBlock: XUDNAN_clean_linker_2, # of connection points: 2
#     Edge 27, Type (0, 1), BuildingBlock: XUDNAN_clean_linker_2, # of connection points: 2
#     Edge 28, Type (0, 1), BuildingBlock: XUDNAN_clean_linker_2, # of connection points: 2
#     Edge 29, Type (0, 1), BuildingBlock: XUDNAN_clean_linker_2, # of connection points: 2
#     Edge 30, Type (0, 1), BuildingBlock: XUDNAN_clean_linker_2, # of connection points: 2
#     Edge 31, Type (0, 1), BuildingBlock: XUDNAN_clean_linker_2, # of connection points: 2
#     Edge 32, Type (0, 1), BuildingBlock: XUDNAN_clean_linker_2, # of connection points: 2
#     Edge 33, Type (0, 1), BuildingBlock: XUDNAN_clean_linker_2, # of connection points: 2
#     Edge 34, Type (0, 1), BuildingBlock: XUDNAN_clean_linker_2, # of connection points: 2
#     Edge 35, Type (0, 1), BuildingBlock: XUDNAN_clean_linker_2, # of connection points: 2
# Relax obj value: 0.035
# Max RMSD: 0.119
# Mean RMSD: 0.042
data_MOF--net-pry--node1-VOLQOD_clean_sbu_1--node2-VETTIZ_charged_linker_0--edge1-XUDNAN_clean_linker_2
_symmetry_space_group_name_H-M    P1
_symmetry_Int_Tables_number       1
_symmetry_cell_setting            triclinic
loop_
_symmetry_equiv_pos_as_xyz
'x, y, z'
_cell_length_a     45.29866
_cell_length_b     45.270752
_cell_length_c     45.472181
_cell_angle_alpha  90.183039
_cell_angle_beta   89.876874
_cell_angle_gamma 90.107026
loop_
_atom_site_label
_atom_site_type_symbol
_atom_site_fract_x
_atom_site_fract_y
_atom_site_fract_z
_atom_type_partial_charge
C0 C 0.09379 0.07381 0.22196 0.0
C1 C 0.06402 0.07756 0.23007 0.0
C2 C 0.04586 0.09593 0.21294 0.0
C3 C 0.08745 0.1085 0.18191 0.0
C4 C 0.10495 0.08929 0.19769 0.0
C5 C 0.13607 0.08819 0.18597 0.0
H6 H 0.23684 0.13908 0.088 0.0
C7 C 0.10615 0.1231 0.15969 0.0
C8 C 0.13463 0.1111 0.16165 0.0
H9 H 0.24874 0.07067 0.15323 0.0
H10 H 0.19844 0.07725 0.1695 0.0
H11 H 0.20805 0.18256 0.13064 0.0
H12 H 0.16959 0.12326 0.06756 0.0
H13 H 0.15363 0.15868 0.06373 0.0
H14 H 0.19272 0.15433 0.05882 0.0
H15 H 0.20222 0.19369 0.09335 0.0
H16 H 0.17418 0.19872 0.12125 0.0
C17 C 0.15738 0.09766 0.21086 0.0
C18 C 0.14171 0.05672 0.17373 0.0
C19 C 0.06509 0.21 0.10294 0.0
C20 C 0.07864 0.2324 0.08616 0.0
C21 C 0.10867 0.22895 0.07833 0.0
C22 C 0.12489 0.20442 0.08777 0.0
C23 C 0.11135 0.18334 0.10593 0.0
C24 C 0.08194 0.18637 0.11324 0.0
C25 C 0.07202 0.16381 0.13536 0.0
C26 C 0.1004 0.14675 0.14013 0.0
C27 C 0.12317 0.15793 0.12242 0.0
C28 C 0.0619 0.18052 0.16351 0.0
C29 C 0.04788 0.14432 0.12093 0.0
C30 C 0.22894 0.12564 0.10603 0.0
C31 C 0.24707 0.10418 0.11913 0.0
C32 C 0.23529 0.08699 0.14225 0.0
C33 C 0.20606 0.09094 0.15182 0.0
C34 C 0.18837 0.11248 0.13835 0.0
C35 C 0.20006 0.12959 0.11608 0.0
C36 C 0.17873 0.15245 0.10523 0.0
C37 C 0.15166 0.14506 0.12343 0.0
C38 C 0.1574 0.12175 0.14291 0.0
C39 C 0.19135 0.1835 0.11276 0.0
C40 C 0.17335 0.14715 0.07203 0.0
H41 H 0.04256 0.12543 0.17713 0.0
H42 H 0.10811 0.05941 0.23444 0.0
H43 H 0.12124 0.04721 0.16403 0.0
H44 H 0.15795 0.05639 0.15559 0.0
H45 H 0.14916 0.04158 0.19137 0.0
H46 H 0.1481 0.11661 0.22346 0.0
H47 H 0.16107 0.07927 0.22654 0.0
H48 H 0.17896 0.1054 0.20261 0.0
H49 H 0.04202 0.21116 0.10904 0.0
H50 H 0.12023 0.24573 0.06592 0.0
H51 H 0.14762 0.20331 0.08128 0.0
H52 H 0.07515 0.20097 0.16691 0.0
H53 H 0.03836 0.18713 0.16197 0.0
H54 H 0.06514 0.16779 0.18388 0.0
H55 H 0.05254 0.14088 0.09713 0.0
H56 H 0.04687 0.12185 0.13031 0.0
H57 H 0.0258 0.1548 0.12281 0.0
H58 H 0.02292 0.09929 0.2188 0.0
C59 C 0.05738 0.11133 0.1889 0.0
C60 C 0.28884 0.91357 0.57928 0.0
C61 C 0.27823 0.94235 0.58412 0.0
C62 C 0.29175 0.96027 0.60559 0.0
C63 C 0.32563 0.92081 0.61742 0.0
C64 C 0.31281 0.90342 0.5959 0.0
C65 C 0.32786 0.87389 0.59297 0.0
H66 H 0.43703 0.78197 0.63708 0.0
C67 C 0.34992 0.90393 0.63079 0.0
C68 C 0.35175 0.87657 0.61627 0.0
H69 H 0.36957 0.76472 0.57193 0.0
H70 H 0.34961 0.81354 0.5797 0.0
H71 H 0.45085 0.84912 0.62047 0.0
H72 H 0.39227 0.80877 0.68321 0.0
H73 H 0.4073 0.83999 0.70049 0.0
H74 H 0.43142 0.81057 0.68876 0.0
H75 H 0.46379 0.83173 0.65343 0.0
H76 H 0.45301 0.87008 0.65301 0.0
C77 C 0.34101 0.87158 0.5616 0.0
C78 C 0.30513 0.84946 0.60052 0.0
C79 C 0.40309 0.94544 0.72008 0.0
C80 C 0.4264 0.93483 0.73751 0.0
C81 C 0.44074 0.90851 0.72896 0.0
C82 C 0.43131 0.89248 0.7043 0.0
C83 C 0.40727 0.90281 0.68784 0.0
C84 C 0.39405 0.92923 0.69541 0.0
C85 C 0.36954 0.93733 0.6747 0.0
C86 C 0.36935 0.91068 0.65431 0.0
C87 C 0.39135 0.8905 0.66223 0.0
C88 C 0.37846 0.9661 0.65842 0.0
C89 C 0.34057 0.93972 0.69271 0.0
C90 C 0.4178 0.78842 0.62457 0.0
C91 C 0.40494 0.76918 0.60387 0.0
C92 C 0.38026 0.77908 0.58775 0.0
C93 C 0.36852 0.80741 0.59246 0.0
C94 C 0.3814 0.82607 0.61366 0.0
C95 C 0.40554 0.81633 0.62935 0.0
C96 C 0.41551 0.83825 0.65213 0.0
C97 C 0.39373 0.86309 0.6472 0.0
C98 C 0.37388 0.85599 0.62452 0.0
C99 C 0.44753 0.84779 0.64469 0.0
C100 C 0.41172 0.82382 0.68282 0.0
H101 H 0.32439 0.96423 0.63853 0.0
H102 H 0.27896 0.89947 0.5627 0.0
H103 H 0.29009 0.85681 0.61848 0.0
H104 H 0.31551 0.82911 0.60886 0.0
H105 H 0.29129 0.84389 0.58113 0.0
H106 H 0.35054 0.89313 0.55463 0.0
H107 H 0.32377 0.86533 0.54538 0.0
H108 H 0.3594 0.85572 0.56 0.0
H109 H 0.39147 0.9655 0.7259 0.0
H110 H 0.45927 0.90016 0.74142 0.0
H111 H 0.44294 0.87248 0.69921 0.0
H112 H 0.40281 0.96943 0.65832 0.0
H113 H 0.36845 0.98586 0.66898 0.0
H114 H 0.37229 0.9656 0.63487 0.0
H115 H 0.33865 0.92099 0.70839 0.0
H116 H 0.32055 0.93867 0.67899 0.0
H117 H 0.34001 0.96055 0.70567 0.0
H118 H 0.28371 0.98241 0.60979 0.0
C119 C 0.3153 0.94963 0.6223 0.0
C120 C 0.60835 0.29469 0.94711 0.0
C121 C 0.58024 0.28203 0.94345 0.0
C122 C 0.56099 0.29372 0.92218 0.0
C123 C 0.59797 0.32949 0.90794 0.0
C124 C 0.61661 0.3186 0.92935 0.0
C125 C 0.64527 0.33542 0.93068 0.0
H126 H 0.73096 0.44605 0.8779 0.0
C127 C 0.61332 0.35375 0.89269 0.0
C128 C 0.64091 0.35768 0.90613 0.0
H129 H 0.75098 0.38518 0.94833 0.0
H130 H 0.70372 0.36161 0.94188 0.0
H131 H 0.66107 0.45645 0.8929 0.0
H132 H 0.70927 0.39823 0.8357 0.0
H133 H 0.6753 0.40379 0.81821 0.0
H134 H 0.6996 0.43485 0.82448 0.0
H135 H 0.68156 0.46822 0.86115 0.0
H136 H 0.64375 0.45631 0.85818 0.0
C137 C 0.64735 0.35054 0.96123 0.0
C138 C 0.67074 0.31366 0.92382 0.0
C139 C 0.56771 0.39853 0.80132 0.0
C140 C 0.57841 0.41868 0.78032 0.0
C141 C 0.60538 0.43335 0.78581 0.0
C142 C 0.62179 0.42733 0.81115 0.0
C143 C 0.61145 0.40607 0.83111 0.0
C144 C 0.58469 0.3923 0.82619 0.0
C145 C 0.57785 0.36932 0.84902 0.0
C146 C 0.60531 0.37111 0.86804 0.0
C147 C 0.62475 0.3928 0.85755 0.0
C148 C 0.54979 0.37908 0.86602 0.0
C149 C 0.57509 0.33904 0.83321 0.0
C150 C 0.72539 0.42754 0.89188 0.0
C151 C 0.74487 0.41773 0.91381 0.0
C152 C 0.73629 0.39369 0.93163 0.0
C153 C 0.70887 0.37983 0.92772 0.0
C154 C 0.68982 0.38986 0.90557 0.0
C155 C 0.69834 0.4132 0.88798 0.0
C156 C 0.67608 0.41993 0.86452 0.0
C157 C 0.65229 0.39746 0.87159 0.0
C158 C 0.66039 0.37992 0.89568 0.0
C159 C 0.66502 0.45196 0.86914 0.0
C160 C 0.69065 0.41415 0.83409 0.0
H161 H 0.55409 0.32504 0.88853 0.0
H162 H 0.62342 0.28635 0.96357 0.0
H163 H 0.66406 0.29756 0.90652 0.0
H164 H 0.69057 0.32469 0.91492 0.0
H165 H 0.67698 0.30091 0.94368 0.0
H166 H 0.62523 0.35807 0.96882 0.0
H167 H 0.65607 0.33506 0.978 0.0
H168 H 0.66107 0.3707 0.96105 0.0
H169 H 0.54688 0.38719 0.79818 0.0
H170 H 0.6145 0.44869 0.76998 0.0
H171 H 0.64228 0.43892 0.8138 0.0
H172 H 0.54774 0.40357 0.86658 0.0
H173 H 0.52949 0.37014 0.85558 0.0
H174 H 0.55024 0.37249 0.88942 0.0
H175 H 0.59205 0.33691 0.81558 0.0
H176 H 0.57891 0.32003 0.8478 0.0
H177 H 0.55307 0.33651 0.82279 0.0
H178 H 0.53931 0.28413 0.91883 0.0
C179 C 0.56967 0.31736 0.90447 0.0
C180 C 0.94609 0.71662 0.41226 0.0
C181 C 0.93749 0.73458 0.43609 0.0
C182 C 0.91544 0.72424 0.45544 0.0
C183 C 0.90877 0.68043 0.4253 0.0
C184 C 0.93141 0.68987 0.4072 0.0
C185 C 0.93636 0.66937 0.38156 0.0
H186 H 0.88695 0.55605 0.2982 0.0
C187 C 0.89634 0.65307 0.41246 0.0
C188 C 0.91254 0.64636 0.38691 0.0
H189 H 0.96491 0.60979 0.2843 0.0
H190 H 0.95599 0.63507 0.33007 0.0
H191 H 0.90156 0.54209 0.36356 0.0
H192 H 0.84427 0.60704 0.32538 0.0
H193 H 0.82517 0.58878 0.35388 0.0
H194 H 0.83847 0.56783 0.32304 0.0
H195 H 0.86444 0.5331 0.35321 0.0
H196 H 0.87313 0.54751 0.3893 0.0
C197 C 0.96776 0.65611 0.38411 0.0
C198 C 0.9309 0.68702 0.35293 0.0
C199 C 0.80369 0.60746 0.45673 0.0
C200 C 0.7863 0.58292 0.44874 0.0
C201 C 0.79562 0.56501 0.42501 0.0
C202 C 0.82093 0.5721 0.40878 0.0
C203 C 0.83733 0.59732 0.4163 0.0
C204 C 0.82909 0.61411 0.44036 0.0
C205 C 0.84978 0.63964 0.44551 0.0
C206 C 0.87162 0.63546 0.42042 0.0
C207 C 0.86386 0.61093 0.40311 0.0
C208 C 0.86455 0.63554 0.47593 0.0
C209 C 0.83187 0.66859 0.44236 0.0
C210 C 0.90237 0.57302 0.30499 0.0
C211 C 0.92638 0.58116 0.28699 0.0
C212 C 0.9457 0.60354 0.29705 0.0
C213 C 0.94064 0.61811 0.32385 0.0
C214 C 0.91604 0.61029 0.34101 0.0
C215 C 0.89786 0.58756 0.33186 0.0
C216 C 0.87375 0.5811 0.35372 0.0
C217 C 0.87996 0.60434 0.37709 0.0
C218 C 0.90447 0.62167 0.3693 0.0
C219 C 0.87815 0.54929 0.36553 0.0
C220 C 0.84372 0.58625 0.33837 0.0
H221 H 0.88401 0.69096 0.4653 0.0
H222 H 0.96328 0.72371 0.39726 0.0
H223 H 0.91115 0.7014 0.35532 0.0
H224 H 0.92632 0.67291 0.33369 0.0
H225 H 0.95007 0.70143 0.3477 0.0
H226 H 0.97467 0.65429 0.40751 0.0
H227 H 0.98432 0.67009 0.37265 0.0
H228 H 0.96904 0.63329 0.37545 0.0
H229 H 0.79725 0.62177 0.47476 0.0
H230 H 0.78321 0.5455 0.4188 0.0
H231 H 0.8265 0.55786 0.39073 0.0
H232 H 0.86761 0.61171 0.48101 0.0
H233 H 0.85087 0.6453 0.49376 0.0
H234 H 0.88702 0.64506 0.47689 0.0
H235 H 0.81571 0.66674 0.42404 0.0
H236 H 0.84564 0.68789 0.43679 0.0
H237 H 0.81931 0.67353 0.46279 0.0
H238 H 0.90826 0.73767 0.47386 0.0
C239 C 0.90113 0.69723 0.45023 0.0
C240 C 0.92848 0.8061 0.94644 0.0
C241 C 0.95346 0.79159 0.9352 0.0
C242 C 0.96773 0.80294 0.91014 0.0
C243 C 0.93214 0.8428 0.90783 0.0
C244 C 0.91807 0.83141 0.93229 0.0
C245 C 0.8905 0.8482 0.94003 0.0
H246 H 0.78995 0.95182 0.90372 0.0
C247 C 0.91529 0.86888 0.89803 0.0
C248 C 0.89082 0.8721 0.91666 0.0
H249 H 0.78498 0.88565 0.97171 0.0
H250 H 0.8351 0.87085 0.96164 0.0
H251 H 0.82118 0.91111 0.85544 0.0
H252 H 0.85957 0.97199 0.91787 0.0
H253 H 0.88001 0.97434 0.88508 0.0
H254 H 0.84148 0.98463 0.88519 0.0
H255 H 0.81504 0.95031 0.85434 0.0
H256 H 0.84694 0.93407 0.83738 0.0
C257 C 0.86372 0.82693 0.93674 0.0
C258 C 0.89438 0.86137 0.97125 0.0
C259 C 0.95033 0.92568 0.80885 0.0
C260 C 0.94038 0.95127 0.79451 0.0
C261 C 0.91548 0.96615 0.80602 0.0
C262 C 0.90056 0.95535 0.8309 0.0
C263 C 0.91061 0.92942 0.84452 0.0
C264 C 0.9355 0.91549 0.83377 0.0
C265 C 0.94391 0.88893 0.8515 0.0
C266 C 0.91983 0.889 0.87464 0.0
C267 C 0.90004 0.91245 0.87025 0.0
C268 C 0.94211 0.86132 0.83127 0.0
C269 C 0.97478 0.89471 0.86502 0.0
C270 C 0.80009 0.93459 0.9167 0.0
C271 C 0.7838 0.91973 0.93845 0.0
C272 C 0.7973 0.89722 0.95483 0.0
C273 C 0.82627 0.88854 0.94878 0.0
C274 C 0.84176 0.90217 0.92573 0.0
C275 C 0.82902 0.92528 0.91053 0.0
C276 C 0.84881 0.93646 0.88626 0.0
C277 C 0.87473 0.91526 0.8886 0.0
C278 C 0.87038 0.89531 0.91181 0.0
C279 C 0.83226 0.93304 0.8567 0.0
C280 C 0.8579 0.96861 0.89368 0.0
H281 H 0.96914 0.83615 0.87749 0.0
H282 H 0.91677 0.79742 0.96534 0.0
H283 H 0.9171 0.87032 0.9741 0.0
H284 H 0.87948 0.88016 0.97565 0.0
H285 H 0.89082 0.84426 0.98836 0.0
H286 H 0.86872 0.80821 0.92161 0.0
H287 H 0.85722 0.81731 0.95824 0.0
H288 H 0.84431 0.83774 0.92676 0.0
H289 H 0.96897 0.91323 0.80057 0.0
H290 H 0.90752 0.9862 0.79585 0.0
H291 H 0.88166 0.96747 0.83846 0.0
H292 H 0.92443 0.86381 0.81452 0.0
H293 H 0.96323 0.8577 0.81935 0.0
H294 H 0.93616 0.84098 0.84328 0.0
H295 H 0.97735 0.91835 0.87134 0.0
H296 H 0.97856 0.88235 0.88556 0.0
H297 H 0.99261 0.88933 0.84908 0.0
H298 H 0.98703 0.792 0.9012 0.0
C299 C 0.95732 0.82859 0.8965 0.0
C300 C 0.6958 0.09102 0.4691 0.0
C301 C 0.71687 0.06965 0.46075 0.0
C302 C 0.71193 0.05352 0.4345 0.0
C303 C 0.66834 0.08252 0.42413 0.0
C304 C 0.67251 0.09777 0.45012 0.0
C305 C 0.65232 0.124 0.45283 0.0
H306 H 0.56096 0.21955 0.38521 0.0
C307 C 0.64458 0.0973 0.40764 0.0
C308 C 0.63544 0.12196 0.42409 0.0
H309 H 0.59915 0.22693 0.47195 0.0
H310 H 0.61859 0.17739 0.46776 0.0
H311 H 0.53882 0.15124 0.39384 0.0
H312 H 0.61489 0.19143 0.35375 0.0
H313 H 0.60291 0.16305 0.33016 0.0
H314 H 0.57853 0.19337 0.33826 0.0
H315 H 0.53729 0.16756 0.35799 0.0
H316 H 0.5475 0.12935 0.36311 0.0
C317 C 0.63184 0.11915 0.47966 0.0
C318 C 0.67174 0.15226 0.45469 0.0
C319 C 0.61228 0.0569 0.30828 0.0
C320 C 0.59267 0.06755 0.28694 0.0
C321 C 0.57747 0.09417 0.29207 0.0
C322 C 0.58161 0.10999 0.31821 0.0
C323 C 0.60151 0.09932 0.33929 0.0
C324 C 0.61654 0.07325 0.33415 0.0
C325 C 0.63792 0.06621 0.35842 0.0
C326 C 0.63201 0.09155 0.37963 0.0
C327 C 0.61086 0.11092 0.36816 0.0
C328 C 0.62925 0.03607 0.37187 0.0
C329 C 0.66972 0.06726 0.34556 0.0
C330 C 0.57344 0.21041 0.40331 0.0
C331 C 0.57904 0.22727 0.42868 0.0
C332 C 0.59464 0.21437 0.45214 0.0
C333 C 0.60615 0.18575 0.44954 0.0
C334 C 0.6022 0.16999 0.42315 0.0
C335 C 0.58512 0.18191 0.40105 0.0
C336 C 0.58262 0.16171 0.37488 0.0
C337 C 0.60234 0.13641 0.38428 0.0
C338 C 0.61401 0.14152 0.41241 0.0
C339 C 0.54991 0.152 0.37198 0.0
C340 C 0.59515 0.17809 0.34766 0.0
H341 H 0.68548 0.04682 0.39671 0.0
H342 H 0.69798 0.10355 0.48927 0.0
H343 H 0.69253 0.14959 0.44186 0.0
H344 H 0.66121 0.17189 0.44504 0.0
H345 H 0.67796 0.15728 0.47779 0.0
H346 H 0.62482 0.09563 0.48107 0.0
H347 H 0.6433 0.12487 0.50049 0.0
H348 H 0.61113 0.13192 0.47825 0.0
H349 H 0.6245 0.03667 0.30459 0.0
H350 H 0.56213 0.10257 0.27588 0.0
H351 H 0.56936 0.13008 0.32083 0.0
H352 H 0.60504 0.03509 0.37597 0.0
H353 H 0.63505 0.01767 0.35671 0.0
H354 H 0.63987 0.03201 0.39329 0.0
H355 H 0.67076 0.07994 0.32466 0.0
H356 H 0.68538 0.07881 0.36034 0.0
H357 H 0.67818 0.04472 0.34083 0.0
H358 H 0.72753 0.03721 0.42675 0.0
C359 C 0.68761 0.05952 0.41652 0.0
C360 C 0.45742 0.59973 0.20846 0.0
C361 C 0.44786 0.57719 0.22746 0.0
C362 C 0.42442 0.55869 0.21871 0.0
C363 C 0.41865 0.58687 0.17396 0.0
C364 C 0.44246 0.60422 0.18191 0.0
C365 C 0.4483 0.62845 0.16005 0.0
H366 H 0.39568 0.71227 0.0501 0.0
C367 C 0.40641 0.5987 0.14639 0.0
C368 C 0.42388 0.62284 0.1378 0.0
H369 H 0.47548 0.72538 0.10022 0.0
H370 H 0.46961 0.67712 0.12234 0.0
H371 H 0.35635 0.68519 0.10136 0.0
H372 H 0.40879 0.64428 0.03366 0.0
H373 H 0.37979 0.61952 0.04097 0.0
H374 H 0.37163 0.65587 0.02679 0.0
H375 H 0.34885 0.68782 0.06266 0.0
H376 H 0.33529 0.65746 0.08388 0.0
C377 C 0.44448 0.65836 0.17628 0.0
C378 C 0.47933 0.62366 0.1465 0.0
C379 C 0.30726 0.56123 0.11064 0.0
C380 C 0.2888 0.56985 0.08747 0.0
C381 C 0.29939 0.59007 0.06646 0.0
C382 C 0.32731 0.60307 0.06967 0.0
C383 C 0.34463 0.59589 0.09423 0.0
C384 C 0.33506 0.57435 0.11349 0.0
C385 C 0.35672 0.56893 0.13783 0.0
C386 C 0.38054 0.59136 0.13043 0.0
C387 C 0.37299 0.60753 0.10529 0.0
C388 C 0.34106 0.57609 0.16738 0.0
C389 C 0.36811 0.53676 0.13505 0.0
C390 C 0.41199 0.70448 0.06563 0.0
C391 C 0.4357 0.72263 0.07396 0.0
C392 C 0.45696 0.71171 0.09365 0.0
C393 C 0.45331 0.68391 0.1067 0.0
C394 C 0.42804 0.66708 0.1001 0.0
C395 C 0.40866 0.6768 0.07881 0.0
C396 C 0.38352 0.65564 0.07393 0.0
C397 C 0.39026 0.63229 0.09684 0.0
C398 C 0.41601 0.63944 0.11254 0.0
C399 C 0.35434 0.67221 0.08063 0.0
C400 C 0.38577 0.64322 0.04218 0.0
H401 H 0.392 0.5487 0.1868 0.0
H402 H 0.47537 0.61429 0.21465 0.0
H403 H 0.48504 0.59978 0.14563 0.0
H404 H 0.48068 0.63114 0.1234 0.0
H405 H 0.49663 0.63504 0.15962 0.0
H406 H 0.42457 0.65786 0.19065 0.0
H407 H 0.46388 0.66319 0.19042 0.0
H408 H 0.44114 0.67721 0.16145 0.0
H409 H 0.29977 0.54533 0.1268 0.0
H410 H 0.28548 0.59694 0.04838 0.0
H411 H 0.33384 0.61908 0.05358 0.0
H412 H 0.32689 0.59602 0.1652 0.0
H413 H 0.32669 0.55749 0.17441 0.0
H414 H 0.35639 0.58142 0.18541 0.0
H415 H 0.36744 0.5289 0.11184 0.0
H416 H 0.39155 0.5346 0.14151 0.0
H417 H 0.3545 0.52132 0.14835 0.0
H418 H 0.41709 0.5408 0.23273 0.0
C419 C 0.40995 0.56326 0.19199 0.0
C420 C 0.05707 0.31474 0.59437 0.0
C421 C 0.06245 0.30171 0.56666 0.0
C422 C 0.08407 0.31426 0.54816 0.0
C423 C 0.09559 0.35099 0.58507 0.0
C424 C 0.07379 0.3395 0.60302 0.0
C425 C 0.07145 0.35632 0.63166 0.0
H426 H 0.13091 0.45743 0.72501 0.0
C427 C 0.11038 0.37527 0.60094 0.0
C428 C 0.09625 0.37886 0.6282 0.0
H429 H 0.0523 0.40488 0.73824 0.0
H430 H 0.05699 0.38478 0.689 0.0
H431 H 0.11503 0.47699 0.65777 0.0
H432 H 0.16871 0.40779 0.69424 0.0
H433 H 0.18781 0.42216 0.66387 0.0
H434 H 0.17992 0.44583 0.69484 0.0
H435 H 0.14973 0.48418 0.67542 0.0
H436 H 0.14766 0.47499 0.63684 0.0
C437 C 0.04074 0.37124 0.63302 0.0
C438 C 0.07744 0.33454 0.65709 0.0
C439 C 0.20389 0.41876 0.55765 0.0
C440 C 0.22554 0.43801 0.56879 0.0
C441 C 0.22016 0.45267 0.59569 0.0
C442 C 0.19435 0.44695 0.61192 0.0
C443 C 0.1738 0.42619 0.60126 0.0
C444 C 0.17856 0.41297 0.57425 0.0
C445 C 0.15525 0.39059 0.56677 0.0
C446 C 0.13576 0.39226 0.59389 0.0
C447 C 0.14666 0.41311 0.61402 0.0
C448 C 0.13885 0.40133 0.53888 0.0
C449 C 0.17054 0.36005 0.56355 0.0
C450 C 0.1147 0.4416 0.71727 0.0
C451 C 0.09139 0.43248 0.73555 0.0
C452 C 0.07042 0.41227 0.7245 0.0
C453 C 0.07329 0.4005 0.69601 0.0
C454 C 0.09733 0.40911 0.67836 0.0
C455 C 0.11714 0.42985 0.68888 0.0
C456 C 0.141 0.43693 0.66698 0.0
C457 C 0.13233 0.41701 0.64156 0.0
C458 C 0.10698 0.40036 0.64846 0.0
C459 C 0.13855 0.47002 0.65882 0.0
C460 C 0.17105 0.42799 0.68054 0.0
H461 H 0.1168 0.34686 0.54206 0.0
H462 H 0.04037 0.30583 0.60894 0.0
H463 H 0.09696 0.32054 0.65198 0.0
H464 H 0.08256 0.34567 0.67806 0.0
H465 H 0.05824 0.31966 0.66061 0.0
H466 H 0.03284 0.37715 0.61065 0.0
H467 H 0.02403 0.35632 0.64303 0.0
H468 H 0.04109 0.39238 0.64525 0.0
H469 H 0.20709 0.40746 0.53685 0.0
H470 H 0.2365 0.46752 0.6049 0.0
H471 H 0.19189 0.45818 0.63259 0.0
H472 H 0.13783 0.42588 0.53817 0.0
H473 H 0.1502 0.39377 0.51854 0.0
H474 H 0.11552 0.39413 0.53826 0.0
H475 H 0.18973 0.3582 0.57867 0.0
H476 H 0.15617 0.34133 0.56963 0.0
H477 H 0.17885 0.35657 0.54081 0.0
H478 H 0.08907 0.30452 0.52694 0.0
C479 C 0.10045 0.3388 0.5571 0.0
O480 O 0.99814 0.082 0.5431 0.0
Zn481 Zn 0.98208 0.04024 0.54233 0.0
O482 O 0.00189 0.01566 0.51286 0.0
Zn483 Zn 0.97351 0.00346 0.48309 0.0
Zn484 Zn 0.03269 0.03886 0.49377 0.0
Zn485 Zn 0.01913 0.98062 0.53146 0.0
O486 O 0.974 0.95976 0.4786 0.0
O487 O 0.00485 0.94235 0.51227 0.0
O488 O 0.93887 0.04375 0.53321 0.0
O489 O 0.93217 0.01652 0.49304 0.0
O490 O 0.98453 0.01839 0.44291 0.0
O491 O 0.02928 0.03711 0.44969 0.0
O492 O 0.07308 0.02394 0.50482 0.0
O493 O 0.98513 0.02214 0.58247 0.0
O494 O 0.06349 0.98196 0.52819 0.0
O495 O 0.0099 0.98033 0.57494 0.0
C496 C 0.01563 0.09536 0.52564 0.0
C497 C 0.98706 0.93829 0.49092 0.0
C498 C 0.0082 0.02963 0.43274 0.0
C499 C 0.92209 0.03294 0.5135 0.0
C500 C 0.0818 0.00063 0.5178 0.0
C501 C 0.99657 0.99835 0.59195 0.0
O502 O 0.02922 0.08173 0.50517 0.0
O503 O 0.50562 0.07263 0.99265 0.0
Zn504 Zn 0.48485 0.03394 0.99276 0.0
O505 O 0.50809 0.00469 0.01369 0.0
Zn506 Zn 0.51387 0.9701 0.98877 0.0
Zn507 Zn 0.5467 0.02192 0.0243 0.0
Zn508 Zn 0.48613 0.9925 0.04862 0.0
O509 O 0.4961 0.93311 0.00614 0.0
O510 O 0.47302 0.95036 0.04574 0.0
O511 O 0.47646 0.0215 0.95094 0.0
O512 O 0.49537 0.97629 0.94913 0.0
O513 O 0.5569 0.96303 0.98206 0.0
O514 O 0.58036 0.00011 0.00405 0.0
O515 O 0.55258 0.01868 0.06824 0.0
O516 O 0.44704 0.0431 0.01381 0.0
O517 O 0.51184 0.99626 0.08434 0.0
O518 O 0.44943 0.01695 0.05497 0.0
C519 C 0.53025 0.08239 0.00187 0.0
C520 C 0.47945 0.92925 0.02838 0.0
C521 C 0.58067 0.97656 0.98857 0.0
C522 C 0.48177 0.99762 0.93702 0.0
C523 C 0.53722 0.00749 0.08893 0.0
C524 C 0.43649 0.03566 0.03865 0.0
O525 O 0.54904 0.06558 0.01414 0.0
O526 O 0.52621 0.49978 0.57657 0.0
Zn527 Zn 0.52631 0.52511 0.54023 0.0
O528 O 0.50599 0.50527 0.50761 0.0
Zn529 Zn 0.53384 0.49918 0.47565 0.0
Zn530 Zn 0.49199 0.46665 0.52048 0.0
Zn531 Zn 0.47252 0.52931 0.49379 0.0
O532 O 0.52064 0.51986 0.43958 0.0
O533 O 0.47702 0.53951 0.4504 0.0
O534 O 0.56899 0.53494 0.53019 0.0
O535 O 0.57341 0.5157 0.48547 0.0
O536 O 0.53875 0.45625 0.46519 0.0
O537 O 0.51006 0.43335 0.49745 0.0
O538 O 0.44824 0.46363 0.51594 0.0
O539 O 0.50517 0.56268 0.55068 0.0
O540 O 0.4337 0.50748 0.49955 0.0
O541 O 0.46968 0.56729 0.51726 0.0
C542 C 0.51532 0.47449 0.58232 0.0
C543 C 0.49796 0.53454 0.43224 0.0
C544 C 0.52805 0.43263 0.47596 0.0
C545 C 0.58437 0.52943 0.50732 0.0
C546 C 0.42795 0.48128 0.50803 0.0
C547 C 0.48364 0.5769 0.53966 0.0
O548 O 0.50155 0.45965 0.56288 0.0
O549 O 0.96596 0.50085 0.06819 0.0
Zn550 Zn 0.97794 0.48631 0.02787 0.0
O551 O 0.00941 0.51001 0.01018 0.0
Zn552 Zn 0.99622 0.5271 0.97277 0.0
Zn553 Zn 0.0193 0.54127 0.03801 0.0
Zn554 Zn 0.04426 0.48548 0.00272 0.0
O555 O 0.02139 0.51326 0.9384 0.0
O556 O 0.05429 0.48406 0.95974 0.0
O557 O 0.9422 0.48539 0.00179 0.0
O558 O 0.95494 0.51342 0.96375 0.0
O559 O 0.99636 0.57198 0.97474 0.0
O560 O 0.01185 0.58081 0.02026 0.0
O561 O 0.06181 0.53913 0.04974 0.0
O562 O 0.99162 0.44478 0.03377 0.0
O563 O 0.07994 0.5016 0.02378 0.0
O564 O 0.03753 0.44359 0.0165 0.0
C565 C 0.97518 0.52203 0.0842 0.0
C566 C 0.04353 0.49601 0.93686 0.0
C567 C 0.00293 0.58995 0.99539 0.0
C568 C 0.93636 0.49701 0.977 0.0
C569 C 0.08322 0.52265 0.04211 0.0
C570 C 0.01545 0.43091 0.02848 0.0
O571 O 0.99548 0.53926 0.07527 0.0
H572 H 0.08954 0.0772 0.28445 0.0
H573 H 0.01126 0.04883 0.2373 0.0
H574 H 0.98902 0.03182 0.28399 0.0
H575 H 0.0899 0.01712 0.33892 0.0
H576 H 0.10215 0.04124 0.36807 0.0
H577 H 0.11275 0.04866 0.3306 0.0
H578 H 0.09083 0.10132 0.33514 0.0
H579 H 0.07984 0.09396 0.37247 0.0
H580 H 0.05278 0.10575 0.346 0.0
H581 H 0.97413 0.02099 0.33608 0.0
H582 H 0.96808 0.01571 0.38974 0.0
H583 H 0.05614 0.05159 0.40277 0.0
C584 C 0.06804 0.0667 0.28387 0.0
C585 C 0.05215 0.06414 0.2573 0.0
C586 C 0.02374 0.05102 0.25749 0.0
C587 C 0.01099 0.04125 0.28385 0.0
C588 C 0.02696 0.04476 0.30977 0.0
C589 C 0.05495 0.05698 0.30998 0.0
C590 C 0.06681 0.05963 0.34097 0.0
C591 C 0.09455 0.04052 0.34486 0.0
C592 C 0.07291 0.09209 0.34911 0.0
C593 C 0.04096 0.04737 0.3582 0.0
C594 C 0.01827 0.03877 0.33981 0.0
C595 C 0.99183 0.02744 0.35071 0.0
C596 C 0.98858 0.02463 0.38124 0.0
C597 C 0.01162 0.03323 0.40055 0.0
C598 C 0.0381 0.04476 0.3887 0.0
H599 H 0.44358 0.91018 0.78984 0.0
H600 H 0.42832 0.99485 0.74788 0.0
H601 H 0.43991 0.02024 0.79458 0.0
H602 H 0.41369 0.928 0.85973 0.0
H603 H 0.44113 0.90784 0.88007 0.0
H604 H 0.43146 0.89633 0.84339 0.0
H605 H 0.48632 0.90004 0.82747 0.0
H606 H 0.49621 0.91134 0.86416 0.0
H607 H 0.50615 0.93413 0.83324 0.0
H608 H 0.45179 0.03625 0.84659 0.0
H609 H 0.46607 0.04166 0.89881 0.0
H610 H 0.47614 0.94655 0.90523 0.0
C611 C 0.44313 0.93408 0.79018 0.0
C612 C 0.43492 0.95045 0.76507 0.0
C613 C 0.43406 0.98172 0.76688 0.0
C614 C 0.44077 0.99639 0.79328 0.0
C615 C 0.44855 0.97949 0.8176 0.0
C616 C 0.45005 0.94905 0.81618 0.0
C617 C 0.45926 0.93598 0.84531 0.0
C618 C 0.43493 0.91586 0.85786 0.0
C619 C 0.48874 0.9194 0.84236 0.0
C620 C 0.46266 0.96384 0.86342 0.0
C621 C 0.45618 0.98872 0.84716 0.0
C622 C 0.4571 0.01693 0.85949 0.0
C623 C 0.46513 0.01978 0.88917 0.0
C624 C 0.47237 0.99455 0.90604 0.0
C625 C 0.47101 0.96629 0.89287 0.0
H626 H 0.57331 0.46955 0.74746 0.0
H627 H 0.54903 0.37662 0.74801 0.0
H628 H 0.52637 0.38216 0.69928 0.0
H629 H 0.50936 0.49695 0.70654 0.0
H630 H 0.53117 0.52305 0.68593 0.0
H631 H 0.54212 0.51286 0.7226 0.0
H632 H 0.59356 0.49729 0.70295 0.0
H633 H 0.58277 0.50734 0.66626 0.0
H634 H 0.59596 0.47056 0.67357 0.0
H635 H 0.50972 0.39652 0.64908 0.0
H636 H 0.50107 0.4186 0.60039 0.0
H637 H 0.53869 0.50141 0.63126 0.0
C638 C 0.5631 0.45036 0.73749 0.0
C639 C 0.56276 0.42272 0.7519 0.0
C640 C 0.54897 0.39825 0.73794 0.0
C641 C 0.53618 0.4011 0.71009 0.0
C642 C 0.53744 0.42849 0.69636 0.0
C643 C 0.55055 0.45269 0.70954 0.0
C644 C 0.55087 0.47906 0.68914 0.0
C645 C 0.53227 0.50448 0.70181 0.0
C646 C 0.58268 0.48914 0.68259 0.0
C647 C 0.53647 0.46567 0.66222 0.0
C648 C 0.52854 0.4366 0.66699 0.0
C649 C 0.51562 0.41934 0.64512 0.0
C650 C 0.51084 0.4321 0.61752 0.0
C651 C 0.51923 0.46175 0.61196 0.0
C652 C 0.532 0.47872 0.63478 0.0
H653 H 0.94854 0.6061 0.23619 0.0
H654 H 0.91503 0.52331 0.27123 0.0
H655 H 0.921 0.5002 0.22249 0.0
H656 H 0.91738 0.60058 0.16417 0.0
H657 H 0.94937 0.61572 0.14597 0.0
H658 H 0.94097 0.62637 0.18325 0.0
H659 H 0.99306 0.60975 0.19983 0.0
H660 H 0.0017 0.59929 0.16256 0.0
H661 H 0.0052 0.57269 0.19176 0.0
H662 H 0.9303 0.48609 0.16956 0.0
H663 H 0.9465 0.48088 0.11786 0.0
H664 H 0.97749 0.57168 0.11879 0.0
C665 C 0.94274 0.58301 0.2339 0.0
C666 C 0.931 0.56674 0.25777 0.0
C667 C 0.92337 0.53662 0.25331 0.0
C668 C 0.92685 0.52318 0.22568 0.0
C669 C 0.93833 0.53996 0.20272 0.0
C670 C 0.94651 0.5691 0.20664 0.0
C671 C 0.95953 0.58191 0.17874 0.0
C672 C 0.94068 0.60767 0.16737 0.0
C673 C 0.99179 0.59146 0.18352 0.0
C674 C 0.95749 0.55536 0.15853 0.0
C675 C 0.94483 0.53149 0.17264 0.0
C676 C 0.94035 0.5046 0.15832 0.0
C677 C 0.9495 0.5019 0.12892 0.0
C678 C 0.96335 0.52583 0.11433 0.0
C679 C 0.96712 0.55293 0.12939 0.0
H680 H 0.27886 0.05212 0.11565 0.0
H681 H 0.28562 0.14633 0.09843 0.0
H682 H 0.33434 0.13862 0.07591 0.0
H683 H 0.35708 0.04358 0.13572 0.0
H684 H 0.35947 0.00721 0.11964 0.0
H685 H 0.32493 0.02008 0.13461 0.0
H686 H 0.29949 0.00951 0.08469 0.0
H687 H 0.33398 0.99693 0.06945 0.0
H688 H 0.31393 0.02623 0.05171 0.0
H689 H 0.37999 0.12042 0.05126 0.0
H690 H 0.42332 0.09358 0.03188 0.0
H691 H 0.39016 0.01224 0.06994 0.0
C692 C 0.29072 0.07129 0.10774 0.0
C693 C 0.27787 0.09978 0.10837 0.0
C694 C 0.29433 0.1241 0.09741 0.0
C695 C 0.32223 0.12003 0.08478 0.0
C696 C 0.33381 0.09162 0.08387 0.0
C697 C 0.31895 0.06775 0.09562 0.0
C698 C 0.33673 0.03959 0.09216 0.0
C699 C 0.34505 0.02687 0.12233 0.0
C700 C 0.32003 0.01673 0.07338 0.0
C701 C 0.36362 0.05136 0.07611 0.0
C702 C 0.36127 0.08139 0.07129 0.0
C703 C 0.38236 0.097 0.05531 0.0
C704 C 0.40674 0.08157 0.04424 0.0
C705 C 0.41004 0.05099 0.04965 0.0
C706 C 0.38827 0.03572 0.06589 0.0
H707 H 0.22391 0.91683 0.57806 0.0
H708 H 0.2749 0.99422 0.55404 0.0
H709 H 0.23078 0.01592 0.53059 0.0
H710 H 0.17555 0.91499 0.51244 0.0
H711 H 0.14372 0.904 0.53362 0.0
H712 H 0.18013 0.89305 0.54513 0.0
H713 H 0.17084 0.91679 0.59624 0.0
H714 H 0.13454 0.92796 0.58486 0.0
H715 H 0.16028 0.95512 0.59851 0.0
H716 H 0.1805 0.03068 0.51317 0.0
H717 H 0.12738 0.03813 0.50398 0.0
H718 H 0.1088 0.9516 0.54078 0.0
C719 C 0.22587 0.93799 0.56716 0.0
C720 C 0.25273 0.95381 0.5675 0.0
C721 C 0.25444 0.98181 0.55384 0.0
C722 C 0.22957 0.99421 0.54042 0.0
C723 C 0.20319 0.97835 0.54098 0.0
C724 C 0.20116 0.95083 0.55398 0.0
C725 C 0.16969 0.9395 0.55372 0.0
C726 C 0.16713 0.91121 0.53511 0.0
C727 C 0.15817 0.93457 0.5852 0.0
C728 C 0.15426 0.9652 0.53912 0.0
C729 C 0.17403 0.98719 0.53158 0.0
C730 C 0.16483 0.0135 0.51873 0.0
C731 C 0.13459 0.01753 0.51364 0.0
C732 C 0.11385 0.99548 0.52166 0.0
C733 C 0.12402 0.96889 0.53431 0.0
H734 H 0.77509 0.42766 0.96547 0.0
H735 H 0.78132 0.44029 0.87093 0.0
H736 H 0.8292 0.46518 0.87741 0.0
H737 H 0.81027 0.49547 0.98784 0.0
H738 H 0.82991 0.47869 0.01789 0.0
H739 H 0.79498 0.46366 0.00619 0.0
H740 H 0.81918 0.41236 0.99847 0.0
H741 H 0.85411 0.42717 0.01033 0.0
H742 H 0.85118 0.40917 0.97503 0.0
H743 H 0.87666 0.4882 0.89392 0.0
H744 H 0.92233 0.50405 0.91896 0.0
H745 H 0.88667 0.47328 0.00218 0.0
C746 C 0.78652 0.43544 0.94604 0.0
C747 C 0.77408 0.43226 0.91771 0.0
C748 C 0.78986 0.44308 0.89298 0.0
C749 C 0.81722 0.45713 0.89638 0.0
C750 C 0.8287 0.45994 0.9246 0.0
C751 C 0.81403 0.44913 0.94897 0.0
C752 C 0.83195 0.4536 0.97669 0.0
C753 C 0.81581 0.47408 0.99843 0.0
C754 C 0.83956 0.4238 0.99096 0.0
C755 C 0.8591 0.46839 0.96402 0.0
C756 C 0.8566 0.47222 0.93401 0.0
C757 C 0.87891 0.48532 0.91743 0.0
C758 C 0.90471 0.49434 0.93187 0.0
C759 C 0.90809 0.48983 0.9625 0.0
C760 C 0.88479 0.47694 0.97873 0.0
H761 H 0.73471 0.56349 0.42409 0.0
H762 H 0.77337 0.58833 0.5079 0.0
H763 H 0.72558 0.57844 0.53247 0.0
H764 H 0.66324 0.59368 0.43638 0.0
H765 H 0.64434 0.56385 0.41796 0.0
H766 H 0.68137 0.57359 0.40721 0.0
H767 H 0.69837 0.51972 0.41629 0.0
H768 H 0.66137 0.50978 0.42695 0.0
H769 H 0.69169 0.50295 0.45159 0.0
H770 H 0.67261 0.56571 0.54762 0.0
H771 H 0.62034 0.54991 0.5519 0.0
H772 H 0.61868 0.53173 0.45811 0.0
C773 C 0.73341 0.5665 0.44768 0.0
C774 C 0.75792 0.5766 0.46403 0.0
C775 C 0.75484 0.58091 0.4948 0.0
C776 C 0.72782 0.57521 0.50898 0.0
C777 C 0.70417 0.56515 0.49211 0.0
C778 C 0.70684 0.56073 0.46213 0.0
C779 C 0.67843 0.54946 0.44885 0.0
C780 C 0.66613 0.57146 0.42627 0.0
C781 C 0.68273 0.51865 0.43512 0.0
C782 C 0.65927 0.5481 0.47602 0.0
C783 C 0.6743 0.55738 0.50079 0.0
C784 C 0.66069 0.55831 0.52835 0.0
C785 C 0.63101 0.54935 0.53057 0.0
C786 C 0.61545 0.53942 0.5054 0.0
C787 C 0.62994 0.53894 0.47787 0.0
H788 H 0.0871 0.27062 0.03908 0.0
H789 H 0.0338 0.25869 0.11799 0.0
H790 H 0.00848 0.30516 0.10797 0.0
H791 H 0.10011 0.34632 0.05281 0.0
H792 H 0.09997 0.35691 0.01463 0.0
H793 H 0.11082 0.32012 0.02482 0.0
H794 H 0.07095 0.29833 0.99014 0.0
H795 H 0.05995 0.3351 0.97985 0.0
H796 H 0.03303 0.30963 0.99437 0.0
H797 H 0.99032 0.35395 0.09143 0.0
H798 H 0.9839 0.40424 0.07195 0.0
H799 H 0.053 0.38796 0.00759 0.0
C800 C 0.07013 0.27754 0.05437 0.0
C801 C 0.06228 0.26013 0.07906 0.0
C802 C 0.0397 0.27052 0.09821 0.0
C803 C 0.02523 0.29723 0.0929 0.0
C804 C 0.03385 0.31382 0.0687 0.0
C805 C 0.05601 0.30462 0.04994 0.0
C806 C 0.06315 0.32816 0.02735 0.0
C807 C 0.09542 0.33849 0.03008 0.0
C808 C 0.05636 0.31714 0.99608 0.0
C809 C 0.04183 0.35216 0.03675 0.0
C810 C 0.0247 0.34309 0.06023 0.0
C811 C 0.00354 0.36134 0.073 0.0
C812 C 3e-05 0.38983 0.06174 0.0
C813 C 0.01801 0.4 0.03832 0.0
C814 C 0.03903 0.38079 0.02556 0.0
H815 H 0.61058 0.23057 0.95264 0.0
H816 H 0.52819 0.27506 0.97258 0.0
H817 H 0.50896 0.22951 0.99528 0.0
H818 H 0.58017 0.16478 0.9308 0.0
H819 H 0.60774 0.14088 0.94644 0.0
H820 H 0.61731 0.17805 0.93633 0.0
H821 H 0.63565 0.18853 0.98925 0.0
H822 H 0.62642 0.15119 0.99952 0.0
H823 H 0.61135 0.18183 0.01998 0.0
H824 H 0.49576 0.17853 0.008 0.0
H825 H 0.48999 0.12468 0.01308 0.0
H826 H 0.58127 0.11212 0.98696 0.0
C827 C 0.58891 0.23091 0.96274 0.0
C828 C 0.57082 0.25624 0.96101 0.0
C829 C 0.54227 0.25579 0.97366 0.0
C830 C 0.53126 0.2301 0.98672 0.0
C831 C 0.54919 0.20516 0.98716 0.0
C832 C 0.57754 0.20534 0.97588 0.0
C833 C 0.59106 0.1747 0.97679 0.0
C834 C 0.59955 0.16399 0.94574 0.0
C835 C 0.6177 0.17403 0.99763 0.0
C836 C 0.56539 0.15711 0.98915 0.0
C837 C 0.5416 0.17529 0.99519 0.0
C838 C 0.51439 0.16412 0.00404 0.0
C839 C 0.51128 0.13354 0.00664 0.0
C840 C 0.53527 0.11446 0.00061 0.0
C841 C 0.56284 0.12639 0.99227 0.0
H842 H 0.95399 0.76454 0.48661 0.0
H843 H 0.94623 0.77409 0.39192 0.0
H844 H 0.96163 0.82604 0.39596 0.0
H845 H 0.92462 0.83419 0.50514 0.0
H846 H 0.94916 0.8412 0.53553 0.0
H847 H 0.9402 0.80379 0.52534 0.0
H848 H 0.99581 0.79184 0.51949 0.0
H849 H 0.00497 0.82923 0.52979 0.0
H850 H 0.01831 0.81419 0.49551 0.0
H851 H 0.97237 0.87741 0.40999 0.0
H852 H 0.98101 0.9258 0.43324 0.0
H853 H 0.98377 0.88427 0.51909 0.0
C854 C 0.95588 0.77751 0.46673 0.0
C855 C 0.94919 0.76512 0.43889 0.0
C856 C 0.95184 0.78284 0.41339 0.0
C857 C 0.96041 0.81245 0.41547 0.0
C858 C 0.96647 0.82406 0.44317 0.0
C859 C 0.96463 0.8072 0.46837 0.0
C860 C 0.97131 0.8257 0.49549 0.0
C861 C 0.94474 0.82624 0.51661 0.0
C862 C -0.00073 0.81457 0.51098 0.0
C863 C 0.97641 0.8557 0.48156 0.0
C864 C 0.97348 0.85407 0.45134 0.0
C865 C 0.97518 0.87895 0.43357 0.0
C866 C 0.97991 0.90633 0.44701 0.0
C867 C 0.98318 0.90867 0.47789 0.0
C868 C 0.98179 0.88296 0.49539 0.0
H869 H 0.40886 0.73635 0.55251 0.0
H870 H 0.42793 0.73269 0.6461 0.0
H871 H 0.45075 0.68396 0.63933 0.0
H872 H 0.38898 0.65843 0.54604 0.0
H873 H 0.4047 0.65473 0.50977 0.0
H874 H 0.3902 0.6898 0.52175 0.0
H875 H 0.44048 0.71458 0.51015 0.0
H876 H 0.45521 0.67956 0.49836 0.0
H877 H 0.47361 0.70037 0.52681 0.0
H878 H 0.47376 0.63702 0.62245 0.0
H879 H 0.49131 0.59212 0.5971 0.0
H880 H 0.45378 0.62367 0.51525 0.0
C881 C 0.41744 0.7252 0.57169 0.0
C882 C 0.41701 0.73883 0.59977 0.0
C883 C 0.42874 0.72333 0.62418 0.0
C884 C 0.44157 0.69545 0.62064 0.0
C885 C 0.44207 0.68298 0.59266 0.0
C886 C 0.42993 0.69706 0.56867 0.0
C887 C 0.43289 0.67833 0.54111 0.0
C888 C 0.40238 0.66982 0.52896 0.0
C889 C 0.45167 0.69416 0.51773 0.0
C890 C 0.44885 0.65169 0.55339 0.0
C891 C 0.45414 0.65503 0.58313 0.0
C892 C 0.46951 0.63397 0.59922 0.0
C893 C 0.47952 0.60863 0.58459 0.0
C894 C 0.47379 0.60437 0.55426 0.0
C895 C 0.45821 0.62622 0.53851 0.0
H896 H 0.91534 0.97691 0.74555 0.0
H897 H -0.00037 0.94862 0.78113 0.0
H898 H 0.02328 0.95852 0.73343 0.0
H899 H 0.92299 0.94802 0.67529 0.0
H900 H 0.90654 0.97874 0.65631 0.0
H901 H 0.89614 0.97094 0.69371 0.0
H902 H 0.91058 0.02412 0.70932 0.0
H903 H 0.92064 0.03227 0.67184 0.0
H904 H 0.94703 0.03784 0.70097 0.0
H905 H 0.03643 0.96537 0.68032 0.0
H906 H 0.03967 0.97596 0.627 0.0
H907 H 0.9486 0.00525 0.62759 0.0
C908 C 0.93891 0.97352 0.74371 0.0
C909 C 0.95539 0.96139 0.76713 0.0
C910 C 0.9862 0.95702 0.76337 0.0
C911 C -3e-05 0.96282 0.7364 0.0
C912 C 0.98285 0.97376 0.71355 0.0
C913 C 0.95317 0.97981 0.71712 0.0
C914 C 0.9398 0.99143 0.68893 0.0
C915 C 0.9149 0.97106 0.67792 0.0
C916 C 0.92888 0.02331 0.69302 0.0
C917 C 0.96643 0.99016 0.6688 0.0
C918 C 0.99099 0.97965 0.68337 0.0
C919 C 0.01756 0.97426 0.6688 0.0
C920 C 0.01916 0.98011 0.63857 0.0
C921 C 0.99451 0.99171 0.62352 0.0
C922 C 0.96791 0.99692 0.63885 0.0
H923 H 0.59838 0.08845 0.23114 0.0
H924 H 0.57549 0.01011 0.28079 0.0
H925 H 0.56246 0.9842 0.23449 0.0
H926 H 0.54162 0.08459 0.17998 0.0
H927 H 0.56329 0.0969 0.14905 0.0
H928 H 0.57325 0.10814 0.18569 0.0
H929 H 0.62579 0.08679 0.17812 0.0
H930 H 0.61602 0.07557 0.14134 0.0
H931 H 0.63009 0.04879 0.16696 0.0
H932 H 0.54556 0.96974 0.18379 0.0
H933 H 0.53025 0.96597 0.13168 0.0
H934 H 0.56785 0.0524 0.11474 0.0
C935 C 0.59105 0.06568 0.23211 0.0
C936 C 0.58781 0.05114 0.2593 0.0
C937 C 0.57823 0.02141 0.26 0.0
C938 C 0.57077 0.00661 0.23389 0.0
C939 C 0.57367 0.02177 0.20738 0.0
C940 C 0.58408 0.05047 0.20626 0.0
C941 C 0.58426 0.06213 0.17512 0.0
C942 C 0.56442 0.08955 0.17231 0.0
C943 C 0.61593 0.0687 0.16478 0.0
C944 C 0.57137 0.03588 0.15896 0.0
C945 C 0.56535 0.01282 0.17795 0.0
C946 C 0.55081 0.98733 0.16858 0.0
C947 C 0.54211 0.98543 0.13906 0.0
C948 C 0.54837 0.00869 0.11928 0.0
C949 C 0.56355 0.03399 0.1293 0.0
H950 H 0.41931 0.56942 0.27986 0.0
H951 H 0.50667 0.577 0.24127 0.0
H952 H 0.52894 0.57016 0.29042 0.0
H953 H 0.43609 0.60775 0.34832 0.0
H954 H 0.41299 0.58383 0.37014 0.0
H955 H 0.40397 0.59064 0.33219 0.0
H956 H 0.40413 0.53432 0.32173 0.0
H957 H 0.41302 0.52734 0.35963 0.0
H958 H 0.43634 0.51291 0.33083 0.0
H959 H 0.54149 0.5592 0.34276 0.0
H960 H 0.54383 0.54566 0.39516 0.0
H961 H 0.44812 0.54649 0.40006 0.0
C962 C 0.44314 0.5696 0.28177 0.0
C963 C 0.46135 0.57361 0.25683 0.0
C964 C 0.49239 0.57414 0.26019 0.0
C965 C 0.50519 0.57025 0.28795 0.0
C966 C 0.48658 0.56618 0.31207 0.0
C967 C 0.45623 0.56599 0.30929 0.0
C968 C 0.4412 0.56054 0.33857 0.0
C969 C 0.42246 0.58729 0.34785 0.0
C970 C 0.42259 0.53209 0.33762 0.0
C971 C 0.46789 0.5571 0.35821 0.0
C972 C 0.49382 0.56052 0.34246 0.0
C973 C 0.52136 0.55681 0.3554 0.0
C974 C 0.52243 0.54904 0.38514 0.0
C975 C 0.49614 0.54521 0.40167 0.0
C976 C 0.46855 0.54976 0.38808 0.0
H977 H 0.04331 0.45425 0.76581 0.0
H978 H 0.13637 0.43385 0.77512 0.0
H979 H 0.13465 0.45011 0.82695 0.0
H980 H 0.04425 0.52019 0.81215 0.0
H981 H 0.00834 0.51306 0.82775 0.0
H982 H 0.01688 0.50041 0.7911 0.0
H983 H 0.00289 0.44695 0.80587 0.0
H984 H 0.99423 0.45944 0.84251 0.0
H985 H 0.02065 0.4302 0.83708 0.0
H986 H 0.12235 0.4654 0.87824 0.0
H987 H 0.10059 0.48082 0.92567 0.0
H988 H 0.01599 0.49384 0.88308 0.0
C989 C 0.06328 0.45327 0.77882 0.0
C990 C 0.09001 0.44286 0.76649 0.0
C991 C 0.11576 0.44205 0.78407 0.0
C992 C 0.11499 0.45115 0.81353 0.0
C993 C 0.08835 0.46131 0.82503 0.0
C994 C 0.06299 0.46265 0.80823 0.0
C995 C 0.03724 0.47438 0.82613 0.0
C996 C 0.02602 0.50376 0.81353 0.0
C997 C 0.01228 0.45136 0.82801 0.0
C998 C 0.052 0.47892 0.85571 0.0
C999 C 0.08147 0.47115 0.85455 0.0
C1000 C 0.0994 0.47189 0.87938 0.0
C1001 C 0.08683 0.48061 0.90621 0.0
C1002 C 0.05672 0.48879 0.90796 0.0
C1003 C 0.03921 0.48824 0.88226 0.0
H1004 H 0.75538 0.96955 0.9587 0.0
H1005 H 0.74069 0.88059 0.92628 0.0
H1006 H 0.687 0.88646 0.93383 0.0
H1007 H 0.70158 0.96614 0.01598 0.0
H1008 H 0.68956 0.00388 0.01231 0.0
H1009 H 0.72669 0.99384 0.00227 0.0
H1010 H 0.71873 0.01535 0.95016 0.0
H1011 H 0.68159 0.02558 0.9601 0.0
H1012 H 0.68806 0.00254 0.92833 0.0
H1013 H 0.6359 0.9009 0.94595 0.0
H1014 H 0.58932 0.92261 0.96324 0.0
H1015 H 0.63621 0.00212 0.98997 0.0
C1016 C 0.74067 0.95159 0.95288 0.0
C1017 C 0.75183 0.92468 0.94177 0.0
C1018 C 0.73228 0.90134 0.93477 0.0
C1019 C 0.70186 0.90449 0.93893 0.0
C1020 C 0.69143 0.93109 0.95029 0.0
C1021 C 0.71012 0.95425 0.95728 0.0
C1022 C 0.69303 0.97985 0.97057 0.0
C1023 C 0.70333 0.98629 0.00216 0.0
C1024 C 0.6955 0.00746 0.95112 0.0
C1025 C 0.66195 0.96727 0.97015 0.0
C1026 C 0.66165 0.93923 0.95808 0.0
C1027 C 0.63578 0.92288 0.95538 0.0
C1028 C 0.6094 0.93547 0.96529 0.0
C1029 C 0.60902 0.96411 0.97801 0.0
C1030 C 0.63575 0.98018 0.98043 0.0
H1031 H 0.75443 0.02108 0.46377 0.0
H1032 H 0.74549 0.1119 0.49446 0.0
H1033 H 0.79395 0.10881 0.51742 0.0
H1034 H 0.80109 0.99248 0.52362 0.0
H1035 H 0.82385 0.97155 0.49857 0.0
H1036 H 0.78555 0.97799 0.49006 0.0
H1037 H 0.80074 0.00094 0.44012 0.0
H1038 H 0.839 0.99467 0.44848 0.0
H1039 H 0.8265 0.03134 0.43957 0.0
H1040 H 0.84528 0.09834 0.53323 0.0
H1041 H 0.89723 0.08252 0.53683 0.0
H1042 H 0.87587 0.0016 0.48995 0.0
C1043 C 0.7623 0.04041 0.47538 0.0
C1044 C 0.74522 0.06657 0.4774 0.0
C1045 C 0.75698 0.09103 0.49324 0.0
C1046 C 0.78489 0.08968 0.50629 0.0
C1047 C 0.80128 0.06397 0.50298 0.0
C1048 C 0.79058 0.03986 0.48767 0.0
C1049 C 0.8142 0.01648 0.48384 0.0
C1050 C 0.80566 0.98794 0.49999 0.0
C1051 C 0.82048 0.01053 0.45106 0.0
C1052 C 0.84005 0.03168 0.49862 0.0
C1053 C 0.83185 0.05868 0.51025 0.0
C1054 C 0.85196 0.07716 0.52439 0.0
C1055 C 0.88139 0.06798 0.52632 0.0
C1056 C 0.89053 0.04091 0.51357 0.0
C1057 C 0.86948 0.02244 0.49982 0.0
H1058 H 0.25753 0.54665 0.04112 0.0
H1059 H 0.24982 0.57249 0.13275 0.0
H1060 H 0.1966 0.56078 0.13175 0.0
H1061 H 0.18977 0.57595 0.01725 0.0
H1062 H 0.1812 0.54617 0.99226 0.0
H1063 H 0.21908 0.55483 0.00054 0.0
H1064 H 0.22785 0.50087 0.0172 0.0
H1065 H 0.18998 0.49199 0.00884 0.0
H1066 H 0.20437 0.485 0.04508 0.0
H1067 H 0.14389 0.55163 0.11948 0.0
H1068 H 0.09502 0.54089 0.09783 0.0
H1069 H 0.13698 0.51761 0.01513 0.0
C1070 C 0.24461 0.54945 0.061 0.0
C1071 C 0.25763 0.5603 0.08705 0.0
C1072 C 0.24021 0.56381 0.1127 0.0
C1073 C 0.21 0.55735 0.11231 0.0
C1074 C 0.19771 0.54702 0.08621 0.0
C1075 C 0.21447 0.54263 0.06113 0.0
C1076 C 0.1956 0.5317 0.03587 0.0
C1077 C 0.19647 0.55347 0.00996 0.0
C1078 C 0.20501 0.50053 0.02618 0.0
C1079 C 0.16555 0.53131 0.05051 0.0
C1080 C 0.16729 0.5404 0.07951 0.0
C1081 C 0.14225 0.54394 0.09699 0.0
C1082 C 0.11465 0.53795 0.0845 0.0
C1083 C 0.11244 0.52813 0.05503 0.0
C1084 C 0.13822 0.52452 0.03792 0.0
H1085 H 0.26022 0.48769 0.56055 0.0
H1086 H 0.25732 0.39312 0.54432 0.0
H1087 H 0.30671 0.39539 0.52202 0.0
H1088 H 0.30228 0.50744 0.49347 0.0
H1089 H 0.32357 0.53542 0.51216 0.0
H1090 H 0.28649 0.52724 0.52414 0.0
H1091 H 0.30565 0.51714 0.5768 0.0
H1092 H 0.34271 0.52533 0.56501 0.0
H1093 H 0.33457 0.49038 0.58212 0.0
H1094 H 0.35786 0.40622 0.50675 0.0
H1095 H 0.40812 0.42553 0.49843 0.0
H1096 H 0.37876 0.51336 0.52311 0.0
C1097 C 0.26987 0.46755 0.552 0.0
C1098 C 0.25465 0.4403 0.55384 0.0
C1099 C 0.26814 0.41439 0.54253 0.0
C1100 C 0.29629 0.4154 0.52992 0.0
C1101 C 0.31074 0.4425 0.52861 0.0
C1102 C 0.29804 0.46816 0.53917 0.0
C1103 C 0.31922 0.49403 0.53654 0.0
C1104 C 0.30716 0.51741 0.51531 0.0
C1105 C 0.32593 0.5075 0.56693 0.0
C1106 C 0.34605 0.47863 0.52372 0.0
C1107 C 0.34051 0.44893 0.51917 0.0
C1108 C 0.36238 0.42953 0.50969 0.0
C1109 C 0.39084 0.44066 0.50511 0.0
C1110 C 0.39713 0.47094 0.50981 0.0
C1111 C 0.37431 0.49026 0.51869 0.0
H1112 H 0.96349 0.7382 0.90889 0.0
H1113 H 0.96645 0.78341 0.99304 0.0
H1114 H 0.98227 0.73709 0.01704 0.0
H1115 H 0.93283 0.67158 0.93617 0.0
H1116 H 0.95326 0.64776 0.9117 0.0
H1117 H 0.94466 0.68493 0.90073 0.0
H1118 H 0.0002 0.69539 0.89163 0.0
H1119 H 0.00898 0.65819 0.90252 0.0
H1120 H 0.02634 0.68905 0.92076 0.0
H1121 H 0.99639 0.68612 0.03188 0.0
H1122 H 0.00537 0.63289 0.03763 0.0
H1123 H 0.99124 0.61989 0.94397 0.0
C1124 C 0.96796 0.73835 0.93228 0.0
C1125 C 0.9641 0.76426 0.9492 0.0
C1126 C 0.9694 0.76367 0.97983 0.0
C1127 C 0.97847 0.73757 0.99356 0.0
C1128 C 0.98186 0.71229 0.97632 0.0
C1129 C 0.97663 0.71238 0.94639 0.0
C1130 C 0.98012 0.68175 0.93331 0.0
C1131 C 0.95098 0.67087 0.91969 0.0
C1132 C 0.00542 0.68107 0.91072 0.0
C1133 C 0.98788 0.66438 0.96062 0.0
C1134 C 0.98911 0.68254 0.98508 0.0
C1135 C 0.99557 0.67167 0.01289 0.0
C1136 C 0.00067 0.64135 0.01589 0.0
C1137 C 0.99899 0.62213 0.99124 0.0
C1138 C 0.99267 0.63395 0.96323 0.0
H1139 H 0.48101 0.75411 0.04845 0.0
H1140 H 0.39123 0.76183 0.08089 0.0
H1141 H 0.392 0.81532 0.07062 0.0
H1142 H 0.50806 0.82145 0.07695 0.0
H1143 H 0.53067 0.83043 0.04555 0.0
H1144 H 0.52275 0.79241 0.054 0.0
H1145 H 0.50155 0.78465 0.00165 0.0
H1146 H 0.50954 0.82266 0.99299 0.0
H1147 H 0.47257 0.80852 0.98871 0.0
H1148 H 0.40405 0.86806 0.06191 0.0
H1149 H 0.42514 0.91706 0.05056 0.0
H1150 H 0.50582 0.87541 0.02006 0.0
C1151 C 0.46147 0.76712 0.053 0.0
C1152 C 0.436 0.75402 0.06528 0.0
C1153 C 0.41079 0.77153 0.0711 0.0
C1154 C 0.41106 0.80188 0.06547 0.0
C1155 C 0.43656 0.81424 0.05359 0.0
C1156 C 0.46116 0.79744 0.04695 0.0
C1157 C 0.48572 0.81645 0.03446 0.0
C1158 C 0.51343 0.8151 0.05391 0.0
C1159 C 0.49275 0.80754 0.00255 0.0
C1160 C 0.47131 0.84661 0.03589 0.0
C1161 C 0.44301 0.84478 0.04716 0.0
C1162 C 0.42596 0.86978 0.05255 0.0
C1163 C 0.43815 0.89747 0.04618 0.0
C1164 C 0.46688 0.89984 0.03416 0.0
C1165 C 0.48356 0.87407 0.02871 0.0
H1166 H 0.05063 0.25176 0.59914 0.0
H1167 H 0.04042 0.28942 0.51209 0.0
H1168 H 0.02428 0.24105 0.4931 0.0
H1169 H 0.07976 0.18504 0.57799 0.0
H1170 H 0.06049 0.1624 0.60435 0.0
H1171 H 0.06764 0.20066 0.61248 0.0
H1172 H 0.01189 0.20982 0.62117 0.0
H1173 H 0.00455 0.17139 0.61357 0.0
H1174 H 0.98575 0.19966 0.59304 0.0
H1175 H 0.01786 0.18789 0.48176 0.0
H1176 H 0.01394 0.13349 0.48007 0.0
H1177 H 0.02368 0.12992 0.57483 0.0
C1178 C 0.04398 0.25006 0.57634 0.0
C1179 C 0.04708 0.27432 0.55703 0.0
C1180 C 0.03868 0.27104 0.52718 0.0
C1181 C 0.02936 0.24368 0.5162 0.0
C1182 C 0.02791 0.2199 0.53545 0.0
C1183 C 0.03423 0.22287 0.56504 0.0
C1184 C 0.03211 0.19331 0.58057 0.0
C1185 C 0.06177 0.18487 0.59467 0.0
C1186 C 0.00708 0.19356 0.60344 0.0
C1187 C 0.02476 0.17318 0.55486 0.0
C1188 C 0.02255 0.18906 0.52904 0.0
C1189 C 0.01875 0.17526 0.5019 0.0
C1190 C 0.01681 0.1444 0.50111 0.0
C1191 C 0.01822 0.12774 0.52732 0.0
C1192 C 0.02199 0.14232 0.55457 0.0
H1193 H 0.55267 0.25799 0.47391 0.0
H1194 H 0.58796 0.26805 0.38571 0.0
H1195 H 0.57766 0.32152 0.38774 0.0
H1196 H 0.49358 0.31213 0.46628 0.0
H1197 H 0.49719 0.32537 0.50353 0.0
H1198 H 0.50636 0.28765 0.49472 0.0
H1199 H 0.55853 0.29529 0.51679 0.0
H1200 H 0.54957 0.33304 0.52555 0.0
H1201 H 0.58151 0.32487 0.50327 0.0
H1202 H 0.56671 0.3741 0.40048 0.0
H1203 H 0.55261 0.42224 0.42192 0.0
H1204 H 0.52295 0.37795 0.50127 0.0
C1205 C 0.55804 0.27147 0.455 0.0
C1206 C 0.57096 0.25893 0.42959 0.0
C1207 C 0.57764 0.27719 0.40522 0.0
C1208 C 0.57204 0.30758 0.40623 0.0
C1209 C 0.55954 0.31931 0.43168 0.0
C1210 C 0.55232 0.30184 0.45552 0.0
C1211 C 0.53923 0.32009 0.48026 0.0
C1212 C 0.50718 0.31075 0.48655 0.0
C1213 C 0.55836 0.31821 0.50811 0.0
C1214 C 0.54064 0.35059 0.46673 0.0
C1215 C 0.55253 0.34964 0.43875 0.0
C1216 C 0.55709 0.37513 0.42226 0.0
C1217 C 0.54913 0.40236 0.43467 0.0
C1218 C 0.53654 0.40382 0.46317 0.0
C1219 C 0.53222 0.37751 0.4793 0.0
loop_
_geom_bond_atom_site_label_1
_geom_bond_atom_site_label_2
_geom_bond_distance
_geom_bond_site_symmetry_2
_ccdc_geom_bond_type
C0 C1 1.391 . S
C0 C4 1.391 . S
C0 H42 0.948 . S
C1 C0 1.391 . S
C1 C2 1.391 . S
C2 C1 1.391 . S
C2 H58 0.947 . S
C2 C59 1.392 . S
C3 C4 1.391 . S
C3 C7 1.397 . S
C3 C59 1.419 . S
C4 C0 1.391 . S
C4 C3 1.391 . S
C4 C5 1.399 . S
C5 C4 1.399 . S
C5 C8 1.396 . S
C5 C17 1.453 . S
C5 C18 1.684 . S
H6 C30 0.948 . S
C7 C3 1.397 . S
C7 C8 1.394 . S
C7 C26 1.723 . S
C8 C5 1.396 . S
C8 C7 1.394 . S
C8 C38 1.723 . S
H9 C32 0.947 . S
H10 C33 0.948 . S
H11 C39 0.982 . S
H12 C40 0.979 . S
H13 C40 0.980 . S
H14 C40 0.983 . S
H15 C39 0.979 . S
H16 C39 0.977 . S
C17 C5 1.453 . S
C17 H46 0.982 . S
C17 H47 0.979 . S
C17 H48 0.977 . S
C18 C5 1.684 . S
C18 H43 0.979 . S
C18 H44 0.980 . S
C18 H45 0.983 . S
C19 C20 1.391 . S
C19 C24 1.391 . S
C19 H49 0.948 . S
C20 C19 1.391 . S
C20 C21 1.391 . S
C21 C20 1.391 . S
C21 C22 1.392 . S
C21 H50 0.947 . S
C22 C21 1.392 . S
C22 C23 1.419 . S
C22 H51 0.948 . S
C23 C22 1.419 . S
C23 C24 1.391 . S
C23 C27 1.397 . S
C24 C19 1.391 . S
C24 C23 1.391 . S
C24 C25 1.399 . S
C25 C24 1.399 . S
C25 C26 1.396 . S
C25 C28 1.453 . S
C25 C29 1.684 . S
C26 C7 1.723 . S
C26 C25 1.396 . S
C26 C27 1.394 . S
C27 C23 1.397 . S
C27 C26 1.394 . S
C27 C37 1.723 . S
C28 C25 1.453 . S
C28 H52 0.982 . S
C28 H53 0.979 . S
C28 H54 0.977 . S
C29 C25 1.684 . S
C29 H55 0.979 . S
C29 H56 0.980 . S
C29 H57 0.983 . S
C30 H6 0.948 . S
C30 C31 1.391 . S
C30 C35 1.391 . S
C31 C30 1.391 . S
C31 C32 1.391 . S
C32 H9 0.947 . S
C32 C31 1.391 . S
C32 C33 1.392 . S
C33 H10 0.948 . S
C33 C32 1.392 . S
C33 C34 1.419 . S
C34 C33 1.419 . S
C34 C35 1.391 . S
C34 C38 1.397 . S
C35 C30 1.391 . S
C35 C34 1.391 . S
C35 C36 1.399 . S
C36 C35 1.399 . S
C36 C37 1.396 . S
C36 C39 1.453 . S
C36 C40 1.684 . S
C37 C27 1.723 . S
C37 C36 1.396 . S
C37 C38 1.394 . S
C38 C8 1.723 . S
C38 C34 1.397 . S
C38 C37 1.394 . S
C39 H11 0.982 . S
C39 H15 0.979 . S
C39 H16 0.977 . S
C39 C36 1.453 . S
C40 H12 0.979 . S
C40 H13 0.980 . S
C40 H14 0.983 . S
C40 C36 1.684 . S
H41 C59 0.948 . S
H42 C0 0.948 . S
H43 C18 0.979 . S
H44 C18 0.980 . S
H45 C18 0.983 . S
H46 C17 0.982 . S
H47 C17 0.979 . S
H48 C17 0.977 . S
H49 C19 0.948 . S
H50 C21 0.947 . S
H51 C22 0.948 . S
H52 C28 0.982 . S
H53 C28 0.979 . S
H54 C28 0.977 . S
H55 C29 0.979 . S
H56 C29 0.980 . S
H57 C29 0.983 . S
H58 C2 0.947 . S
C59 C2 1.392 . S
C59 C3 1.419 . S
C59 H41 0.948 . S
C60 C61 1.391 . S
C60 C64 1.391 . S
C60 H102 0.948 . S
C61 C60 1.391 . S
C61 C62 1.391 . S
C62 C61 1.391 . S
C62 H118 0.947 . S
C62 C119 1.392 . S
C63 C64 1.391 . S
C63 C67 1.397 . S
C63 C119 1.419 . S
C64 C60 1.391 . S
C64 C63 1.391 . S
C64 C65 1.399 . S
C65 C64 1.399 . S
C65 C68 1.396 . S
C65 C77 1.453 . S
C65 C78 1.684 . S
H66 C90 0.948 . S
C67 C63 1.397 . S
C67 C68 1.394 . S
C67 C86 1.723 . S
C68 C65 1.396 . S
C68 C67 1.394 . S
C68 C98 1.723 . S
H69 C92 0.947 . S
H70 C93 0.948 . S
H71 C99 0.982 . S
H72 C100 0.979 . S
H73 C100 0.980 . S
H74 C100 0.983 . S
H75 C99 0.979 . S
H76 C99 0.977 . S
C77 C65 1.453 . S
C77 H106 0.982 . S
C77 H107 0.979 . S
C77 H108 0.977 . S
C78 C65 1.684 . S
C78 H103 0.979 . S
C78 H104 0.980 . S
C78 H105 0.983 . S
C79 C80 1.391 . S
C79 C84 1.391 . S
C79 H109 0.948 . S
C80 C79 1.391 . S
C80 C81 1.391 . S
C81 C80 1.391 . S
C81 C82 1.392 . S
C81 H110 0.947 . S
C82 C81 1.392 . S
C82 C83 1.419 . S
C82 H111 0.948 . S
C83 C82 1.419 . S
C83 C84 1.391 . S
C83 C87 1.397 . S
C84 C79 1.391 . S
C84 C83 1.391 . S
C84 C85 1.399 . S
C85 C84 1.399 . S
C85 C86 1.396 . S
C85 C88 1.453 . S
C85 C89 1.684 . S
C86 C67 1.723 . S
C86 C85 1.396 . S
C86 C87 1.394 . S
C87 C83 1.397 . S
C87 C86 1.394 . S
C87 C97 1.723 . S
C88 C85 1.453 . S
C88 H112 0.982 . S
C88 H113 0.979 . S
C88 H114 0.977 . S
C89 C85 1.684 . S
C89 H115 0.979 . S
C89 H116 0.980 . S
C89 H117 0.983 . S
C90 H66 0.948 . S
C90 C91 1.391 . S
C90 C95 1.391 . S
C91 C90 1.391 . S
C91 C92 1.391 . S
C92 H69 0.947 . S
C92 C91 1.391 . S
C92 C93 1.392 . S
C93 H70 0.948 . S
C93 C92 1.392 . S
C93 C94 1.419 . S
C94 C93 1.419 . S
C94 C95 1.391 . S
C94 C98 1.397 . S
C95 C90 1.391 . S
C95 C94 1.391 . S
C95 C96 1.399 . S
C96 C95 1.399 . S
C96 C97 1.396 . S
C96 C99 1.453 . S
C96 C100 1.684 . S
C97 C87 1.723 . S
C97 C96 1.396 . S
C97 C98 1.394 . S
C98 C68 1.723 . S
C98 C94 1.397 . S
C98 C97 1.394 . S
C99 H71 0.982 . S
C99 H75 0.979 . S
C99 H76 0.977 . S
C99 C96 1.453 . S
C100 H72 0.979 . S
C100 H73 0.980 . S
C100 H74 0.983 . S
C100 C96 1.684 . S
H101 C119 0.948 . S
H102 C60 0.948 . S
H103 C78 0.979 . S
H104 C78 0.980 . S
H105 C78 0.983 . S
H106 C77 0.982 . S
H107 C77 0.979 . S
H108 C77 0.977 . S
H109 C79 0.948 . S
H110 C81 0.947 . S
H111 C82 0.948 . S
H112 C88 0.982 . S
H113 C88 0.979 . S
H114 C88 0.977 . S
H115 C89 0.979 . S
H116 C89 0.980 . S
H117 C89 0.983 . S
H118 C62 0.947 . S
C119 C62 1.392 . S
C119 C63 1.419 . S
C119 H101 0.948 . S
C120 C121 1.391 . S
C120 C124 1.391 . S
C120 H162 0.948 . S
C121 C120 1.391 . S
C121 C122 1.391 . S
C122 C121 1.391 . S
C122 H178 0.947 . S
C122 C179 1.392 . S
C123 C124 1.391 . S
C123 C127 1.397 . S
C123 C179 1.419 . S
C124 C120 1.391 . S
C124 C123 1.391 . S
C124 C125 1.399 . S
C125 C124 1.399 . S
C125 C128 1.396 . S
C125 C137 1.453 . S
C125 C138 1.684 . S
H126 C150 0.948 . S
C127 C123 1.397 . S
C127 C128 1.394 . S
C127 C146 1.723 . S
C128 C125 1.396 . S
C128 C127 1.394 . S
C128 C158 1.723 . S
H129 C152 0.947 . S
H130 C153 0.948 . S
H131 C159 0.982 . S
H132 C160 0.979 . S
H133 C160 0.980 . S
H134 C160 0.983 . S
H135 C159 0.979 . S
H136 C159 0.977 . S
C137 C125 1.453 . S
C137 H166 0.982 . S
C137 H167 0.979 . S
C137 H168 0.977 . S
C138 C125 1.684 . S
C138 H163 0.979 . S
C138 H164 0.980 . S
C138 H165 0.983 . S
C139 C140 1.391 . S
C139 C144 1.391 . S
C139 H169 0.948 . S
C140 C139 1.391 . S
C140 C141 1.391 . S
C141 C140 1.391 . S
C141 C142 1.392 . S
C141 H170 0.947 . S
C142 C141 1.392 . S
C142 C143 1.419 . S
C142 H171 0.948 . S
C143 C142 1.419 . S
C143 C144 1.391 . S
C143 C147 1.397 . S
C144 C139 1.391 . S
C144 C143 1.391 . S
C144 C145 1.399 . S
C145 C144 1.399 . S
C145 C146 1.396 . S
C145 C148 1.453 . S
C145 C149 1.684 . S
C146 C127 1.723 . S
C146 C145 1.396 . S
C146 C147 1.394 . S
C147 C143 1.397 . S
C147 C146 1.394 . S
C147 C157 1.723 . S
C148 C145 1.453 . S
C148 H172 0.982 . S
C148 H173 0.979 . S
C148 H174 0.977 . S
C149 C145 1.684 . S
C149 H175 0.979 . S
C149 H176 0.980 . S
C149 H177 0.983 . S
C150 H126 0.948 . S
C150 C151 1.391 . S
C150 C155 1.391 . S
C151 C150 1.391 . S
C151 C152 1.391 . S
C152 H129 0.947 . S
C152 C151 1.391 . S
C152 C153 1.392 . S
C153 H130 0.948 . S
C153 C152 1.392 . S
C153 C154 1.419 . S
C154 C153 1.419 . S
C154 C155 1.391 . S
C154 C158 1.397 . S
C155 C150 1.391 . S
C155 C154 1.391 . S
C155 C156 1.399 . S
C156 C155 1.399 . S
C156 C157 1.396 . S
C156 C159 1.453 . S
C156 C160 1.684 . S
C157 C147 1.723 . S
C157 C156 1.396 . S
C157 C158 1.394 . S
C158 C128 1.723 . S
C158 C154 1.397 . S
C158 C157 1.394 . S
C159 H131 0.982 . S
C159 H135 0.979 . S
C159 H136 0.977 . S
C159 C156 1.453 . S
C160 H132 0.979 . S
C160 H133 0.980 . S
C160 H134 0.983 . S
C160 C156 1.684 . S
H161 C179 0.948 . S
H162 C120 0.948 . S
H163 C138 0.979 . S
H164 C138 0.980 . S
H165 C138 0.983 . S
H166 C137 0.982 . S
H167 C137 0.979 . S
H168 C137 0.977 . S
H169 C139 0.948 . S
H170 C141 0.947 . S
H171 C142 0.948 . S
H172 C148 0.982 . S
H173 C148 0.979 . S
H174 C148 0.977 . S
H175 C149 0.979 . S
H176 C149 0.980 . S
H177 C149 0.983 . S
H178 C122 0.947 . S
C179 C122 1.392 . S
C179 C123 1.419 . S
C179 H161 0.948 . S
C180 C181 1.391 . S
C180 C184 1.391 . S
C180 H222 0.948 . S
C181 C180 1.391 . S
C181 C182 1.391 . S
C182 C181 1.391 . S
C182 H238 0.947 . S
C182 C239 1.392 . S
C183 C184 1.391 . S
C183 C187 1.397 . S
C183 C239 1.419 . S
C184 C180 1.391 . S
C184 C183 1.391 . S
C184 C185 1.399 . S
C185 C184 1.399 . S
C185 C188 1.396 . S
C185 C197 1.453 . S
C185 C198 1.684 . S
H186 C210 0.948 . S
C187 C183 1.397 . S
C187 C188 1.394 . S
C187 C206 1.723 . S
C188 C185 1.396 . S
C188 C187 1.394 . S
C188 C218 1.723 . S
H189 C212 0.947 . S
H190 C213 0.948 . S
H191 C219 0.982 . S
H192 C220 0.979 . S
H193 C220 0.980 . S
H194 C220 0.983 . S
H195 C219 0.979 . S
H196 C219 0.977 . S
C197 C185 1.453 . S
C197 H226 0.982 . S
C197 H227 0.979 . S
C197 H228 0.977 . S
C198 C185 1.684 . S
C198 H223 0.979 . S
C198 H224 0.980 . S
C198 H225 0.983 . S
C199 C200 1.391 . S
C199 C204 1.391 . S
C199 H229 0.948 . S
C200 C199 1.391 . S
C200 C201 1.391 . S
C201 C200 1.391 . S
C201 C202 1.392 . S
C201 H230 0.947 . S
C202 C201 1.392 . S
C202 C203 1.419 . S
C202 H231 0.948 . S
C203 C202 1.419 . S
C203 C204 1.391 . S
C203 C207 1.397 . S
C204 C199 1.391 . S
C204 C203 1.391 . S
C204 C205 1.399 . S
C205 C204 1.399 . S
C205 C206 1.396 . S
C205 C208 1.453 . S
C205 C209 1.684 . S
C206 C187 1.723 . S
C206 C205 1.396 . S
C206 C207 1.394 . S
C207 C203 1.397 . S
C207 C206 1.394 . S
C207 C217 1.723 . S
C208 C205 1.453 . S
C208 H232 0.982 . S
C208 H233 0.979 . S
C208 H234 0.977 . S
C209 C205 1.684 . S
C209 H235 0.979 . S
C209 H236 0.980 . S
C209 H237 0.983 . S
C210 H186 0.948 . S
C210 C211 1.391 . S
C210 C215 1.391 . S
C211 C210 1.391 . S
C211 C212 1.391 . S
C212 H189 0.947 . S
C212 C211 1.391 . S
C212 C213 1.392 . S
C213 H190 0.948 . S
C213 C212 1.392 . S
C213 C214 1.419 . S
C214 C213 1.419 . S
C214 C215 1.391 . S
C214 C218 1.397 . S
C215 C210 1.391 . S
C215 C214 1.391 . S
C215 C216 1.399 . S
C216 C215 1.399 . S
C216 C217 1.396 . S
C216 C219 1.453 . S
C216 C220 1.684 . S
C217 C207 1.723 . S
C217 C216 1.396 . S
C217 C218 1.394 . S
C218 C188 1.723 . S
C218 C214 1.397 . S
C218 C217 1.394 . S
C219 H191 0.982 . S
C219 H195 0.979 . S
C219 H196 0.977 . S
C219 C216 1.453 . S
C220 H192 0.979 . S
C220 H193 0.980 . S
C220 H194 0.983 . S
C220 C216 1.684 . S
H221 C239 0.948 . S
H222 C180 0.948 . S
H223 C198 0.979 . S
H224 C198 0.980 . S
H225 C198 0.983 . S
H226 C197 0.982 . S
H227 C197 0.979 . S
H228 C197 0.977 . S
H229 C199 0.948 . S
H230 C201 0.947 . S
H231 C202 0.948 . S
H232 C208 0.982 . S
H233 C208 0.979 . S
H234 C208 0.977 . S
H235 C209 0.979 . S
H236 C209 0.980 . S
H237 C209 0.983 . S
H238 C182 0.947 . S
C239 C182 1.392 . S
C239 C183 1.419 . S
C239 H221 0.948 . S
C240 C241 1.391 . S
C240 C244 1.391 . S
C240 H282 0.948 . S
C241 C240 1.391 . S
C241 C242 1.391 . S
C242 C241 1.391 . S
C242 H298 0.947 . S
C242 C299 1.392 . S
C243 C244 1.391 . S
C243 C247 1.397 . S
C243 C299 1.419 . S
C244 C240 1.391 . S
C244 C243 1.391 . S
C244 C245 1.399 . S
C245 C244 1.399 . S
C245 C248 1.396 . S
C245 C257 1.453 . S
C245 C258 1.718 . S
H246 C270 0.948 1_545 S
C247 C243 1.397 . S
C247 C248 1.394 . S
C247 C266 1.723 . S
C248 C245 1.396 . S
C248 C247 1.394 . S
C248 C278 1.723 . S
H249 C272 0.950 1_554 S
H250 C273 0.948 . S
H251 C279 0.982 . S
H252 C280 0.979 . S
H253 C280 0.980 . S
H254 C280 0.983 . S
H255 C279 0.979 . S
H256 C279 0.977 . S
C257 C245 1.453 . S
C257 H286 0.982 . S
C257 H287 0.979 . S
C257 H288 0.977 . S
C258 C245 1.718 . S
C258 H283 0.968 1_556 S
C258 H284 0.977 1_556 S
C258 H285 0.963 1_556 S
C259 C260 1.391 . S
C259 C264 1.391 . S
C259 H289 0.948 . S
C260 C259 1.391 . S
C260 C261 1.391 . S
C261 C260 1.391 . S
C261 C262 1.392 . S
C261 H290 0.947 1_565 S
C262 C261 1.392 . S
C262 C263 1.419 . S
C262 H291 0.948 . S
C263 C262 1.419 . S
C263 C264 1.391 . S
C263 C267 1.397 . S
C264 C259 1.391 . S
C264 C263 1.391 . S
C264 C265 1.399 . S
C265 C264 1.399 . S
C265 C266 1.396 . S
C265 C268 1.453 . S
C265 C269 1.684 . S
C266 C247 1.723 . S
C266 C265 1.396 . S
C266 C267 1.394 . S
C267 C263 1.397 . S
C267 C266 1.394 . S
C267 C277 1.723 . S
C268 C265 1.453 . S
C268 H292 0.982 . S
C268 H293 0.979 . S
C268 H294 0.977 . S
C269 C265 1.684 . S
C269 H295 0.979 . S
C269 H296 0.980 . S
C269 H297 0.984 1_655 S
C270 H246 0.948 1_565 S
C270 C271 1.391 . S
C270 C275 1.391 . S
C271 C270 1.391 . S
C271 C272 1.391 . S
C272 H249 0.950 1_556 S
C272 C271 1.391 . S
C272 C273 1.392 . S
C273 H250 0.948 . S
C273 C272 1.392 . S
C273 C274 1.419 . S
C274 C273 1.419 . S
C274 C275 1.391 . S
C274 C278 1.397 . S
C275 C270 1.391 . S
C275 C274 1.391 . S
C275 C276 1.399 . S
C276 C275 1.399 . S
C276 C277 1.396 . S
C276 C279 1.453 . S
C276 C280 1.684 1_565 S
C277 C267 1.723 . S
C277 C276 1.396 . S
C277 C278 1.394 . S
C278 C248 1.723 . S
C278 C274 1.397 . S
C278 C277 1.394 . S
C279 H251 0.982 . S
C279 H255 0.979 . S
C279 H256 0.977 . S
C279 C276 1.453 . S
C280 H252 0.979 . S
C280 H253 0.980 . S
C280 H254 0.983 . S
C280 C276 1.684 1_545 S
H281 C299 0.948 . S
H282 C240 0.948 . S
H283 C258 0.968 1_554 S
H284 C258 0.977 1_554 S
H285 C258 0.963 1_554 S
H286 C257 0.982 . S
H287 C257 0.979 . S
H288 C257 0.977 . S
H289 C259 0.948 . S
H290 C261 0.947 1_545 S
H291 C262 0.948 . S
H292 C268 0.982 . S
H293 C268 0.979 . S
H294 C268 0.977 . S
H295 C269 0.979 . S
H296 C269 0.980 . S
H297 C269 0.984 1_455 S
H298 C242 0.947 . S
C299 C242 1.392 . S
C299 C243 1.419 . S
C299 H281 0.948 . S
C300 C301 1.391 . S
C300 C304 1.391 . S
C300 H342 0.948 . S
C301 C300 1.391 . S
C301 C302 1.391 . S
C302 C301 1.391 . S
C302 H358 0.947 . S
C302 C359 1.392 . S
C303 C304 1.391 . S
C303 C307 1.397 . S
C303 C359 1.419 . S
C304 C300 1.391 . S
C304 C303 1.391 . S
C304 C305 1.399 . S
C305 C304 1.399 . S
C305 C308 1.396 . S
C305 C317 1.453 . S
C305 C318 1.684 . S
H306 C330 0.948 . S
C307 C303 1.397 . S
C307 C308 1.394 . S
C307 C326 1.723 . S
C308 C305 1.396 . S
C308 C307 1.394 . S
C308 C338 1.723 . S
H309 C332 0.947 . S
H310 C333 0.948 . S
H311 C339 0.982 . S
H312 C340 0.979 . S
H313 C340 0.980 . S
H314 C340 0.983 . S
H315 C339 0.979 . S
H316 C339 0.977 . S
C317 C305 1.453 . S
C317 H346 0.982 . S
C317 H347 0.979 . S
C317 H348 0.977 . S
C318 C305 1.684 . S
C318 H343 0.979 . S
C318 H344 0.980 . S
C318 H345 0.983 . S
C319 C320 1.391 . S
C319 C324 1.391 . S
C319 H349 0.948 . S
C320 C319 1.391 . S
C320 C321 1.391 . S
C321 C320 1.391 . S
C321 C322 1.392 . S
C321 H350 0.947 . S
C322 C321 1.392 . S
C322 C323 1.419 . S
C322 H351 0.948 . S
C323 C322 1.419 . S
C323 C324 1.391 . S
C323 C327 1.397 . S
C324 C319 1.391 . S
C324 C323 1.391 . S
C324 C325 1.399 . S
C325 C324 1.399 . S
C325 C326 1.396 . S
C325 C328 1.453 . S
C325 C329 1.684 . S
C326 C307 1.723 . S
C326 C325 1.396 . S
C326 C327 1.394 . S
C327 C323 1.397 . S
C327 C326 1.394 . S
C327 C337 1.723 . S
C328 C325 1.453 . S
C328 H352 0.982 . S
C328 H353 0.979 1_545 S
C328 H354 0.977 . S
C329 C325 1.684 . S
C329 H355 0.979 . S
C329 H356 0.980 . S
C329 H357 0.983 . S
C330 H306 0.948 . S
C330 C331 1.391 . S
C330 C335 1.391 . S
C331 C330 1.391 . S
C331 C332 1.391 . S
C332 H309 0.947 . S
C332 C331 1.391 . S
C332 C333 1.392 . S
C333 H310 0.948 . S
C333 C332 1.392 . S
C333 C334 1.419 . S
C334 C333 1.419 . S
C334 C335 1.391 . S
C334 C338 1.397 . S
C335 C330 1.391 . S
C335 C334 1.391 . S
C335 C336 1.399 . S
C336 C335 1.399 . S
C336 C337 1.396 . S
C336 C339 1.453 . S
C336 C340 1.684 . S
C337 C327 1.723 . S
C337 C336 1.396 . S
C337 C338 1.394 . S
C338 C308 1.723 . S
C338 C334 1.397 . S
C338 C337 1.394 . S
C339 H311 0.982 . S
C339 H315 0.979 . S
C339 H316 0.977 . S
C339 C336 1.453 . S
C340 H312 0.979 . S
C340 H313 0.980 . S
C340 H314 0.983 . S
C340 C336 1.684 . S
H341 C359 0.948 . S
H342 C300 0.948 . S
H343 C318 0.979 . S
H344 C318 0.980 . S
H345 C318 0.983 . S
H346 C317 0.982 . S
H347 C317 0.979 . S
H348 C317 0.977 . S
H349 C319 0.948 . S
H350 C321 0.947 . S
H351 C322 0.948 . S
H352 C328 0.982 . S
H353 C328 0.979 1_565 S
H354 C328 0.977 . S
H355 C329 0.979 . S
H356 C329 0.980 . S
H357 C329 0.983 . S
H358 C302 0.947 . S
C359 C302 1.392 . S
C359 C303 1.419 . S
C359 H341 0.948 . S
C360 C361 1.391 . S
C360 C364 1.391 . S
C360 H402 0.948 . S
C361 C360 1.391 . S
C361 C362 1.391 . S
C362 C361 1.391 . S
C362 H418 0.947 . S
C362 C419 1.392 . S
C363 C364 1.391 . S
C363 C367 1.397 . S
C363 C419 1.419 . S
C364 C360 1.391 . S
C364 C363 1.391 . S
C364 C365 1.399 . S
C365 C364 1.399 . S
C365 C368 1.396 . S
C365 C377 1.453 . S
C365 C378 1.684 . S
H366 C390 0.948 . S
C367 C363 1.397 . S
C367 C368 1.394 . S
C367 C386 1.723 . S
C368 C365 1.396 . S
C368 C367 1.394 . S
C368 C398 1.723 . S
H369 C392 0.947 . S
H370 C393 0.948 . S
H371 C399 0.982 . S
H372 C400 0.979 . S
H373 C400 0.980 . S
H374 C400 0.983 . S
H375 C399 0.979 . S
H376 C399 0.977 . S
C377 C365 1.453 . S
C377 H406 0.982 . S
C377 H407 0.979 . S
C377 H408 0.977 . S
C378 C365 1.684 . S
C378 H403 0.979 . S
C378 H404 0.980 . S
C378 H405 0.983 . S
C379 C380 1.391 . S
C379 C384 1.391 . S
C379 H409 0.948 . S
C380 C379 1.391 . S
C380 C381 1.391 . S
C381 C380 1.391 . S
C381 C382 1.392 . S
C381 H410 0.947 . S
C382 C381 1.392 . S
C382 C383 1.419 . S
C382 H411 0.948 . S
C383 C382 1.419 . S
C383 C384 1.391 . S
C383 C387 1.397 . S
C384 C379 1.391 . S
C384 C383 1.391 . S
C384 C385 1.399 . S
C385 C384 1.399 . S
C385 C386 1.396 . S
C385 C388 1.453 . S
C385 C389 1.684 . S
C386 C367 1.723 . S
C386 C385 1.396 . S
C386 C387 1.394 . S
C387 C383 1.397 . S
C387 C386 1.394 . S
C387 C397 1.723 . S
C388 C385 1.453 . S
C388 H412 0.982 . S
C388 H413 0.979 . S
C388 H414 0.977 . S
C389 C385 1.684 . S
C389 H415 0.979 . S
C389 H416 0.980 . S
C389 H417 0.983 . S
C390 H366 0.948 . S
C390 C391 1.391 . S
C390 C395 1.391 . S
C391 C390 1.391 . S
C391 C392 1.391 . S
C392 H369 0.947 . S
C392 C391 1.391 . S
C392 C393 1.392 . S
C393 H370 0.948 . S
C393 C392 1.392 . S
C393 C394 1.419 . S
C394 C393 1.419 . S
C394 C395 1.391 . S
C394 C398 1.397 . S
C395 C390 1.391 . S
C395 C394 1.391 . S
C395 C396 1.399 . S
C396 C395 1.399 . S
C396 C397 1.396 . S
C396 C399 1.453 . S
C396 C400 1.684 . S
C397 C387 1.723 . S
C397 C396 1.396 . S
C397 C398 1.394 . S
C398 C368 1.723 . S
C398 C394 1.397 . S
C398 C397 1.394 . S
C399 H371 0.982 . S
C399 H375 0.979 . S
C399 H376 0.977 . S
C399 C396 1.453 . S
C400 H372 0.979 . S
C400 H373 0.980 . S
C400 H374 0.983 . S
C400 C396 1.684 . S
H401 C419 0.948 . S
H402 C360 0.948 . S
H403 C378 0.979 . S
H404 C378 0.980 . S
H405 C378 0.983 . S
H406 C377 0.982 . S
H407 C377 0.979 . S
H408 C377 0.977 . S
H409 C379 0.948 . S
H410 C381 0.947 . S
H411 C382 0.948 . S
H412 C388 0.982 . S
H413 C388 0.979 . S
H414 C388 0.977 . S
H415 C389 0.979 . S
H416 C389 0.980 . S
H417 C389 0.983 . S
H418 C362 0.947 . S
C419 C362 1.392 . S
C419 C363 1.419 . S
C419 H401 0.948 . S
C420 C421 1.391 . S
C420 C424 1.391 . S
C420 H462 0.948 . S
C421 C420 1.391 . S
C421 C422 1.391 . S
C422 C421 1.391 . S
C422 H478 0.947 . S
C422 C479 1.392 . S
C423 C424 1.391 . S
C423 C427 1.397 . S
C423 C479 1.419 . S
C424 C420 1.391 . S
C424 C423 1.391 . S
C424 C425 1.399 . S
C425 C424 1.399 . S
C425 C428 1.396 . S
C425 C437 1.453 . S
C425 C438 1.684 . S
H426 C450 0.948 . S
C427 C423 1.397 . S
C427 C428 1.394 . S
C427 C446 1.723 . S
C428 C425 1.396 . S
C428 C427 1.394 . S
C428 C458 1.723 . S
H429 C452 0.947 . S
H430 C453 0.948 . S
H431 C459 0.982 . S
H432 C460 0.979 . S
H433 C460 0.980 . S
H434 C460 0.983 . S
H435 C459 0.979 . S
H436 C459 0.977 . S
C437 C425 1.453 . S
C437 H466 0.982 . S
C437 H467 0.979 . S
C437 H468 0.977 . S
C438 C425 1.684 . S
C438 H463 0.979 . S
C438 H464 0.980 . S
C438 H465 0.983 . S
C439 C440 1.391 . S
C439 C444 1.391 . S
C439 H469 0.948 . S
C440 C439 1.391 . S
C440 C441 1.391 . S
C441 C440 1.391 . S
C441 C442 1.392 . S
C441 H470 0.947 . S
C442 C441 1.392 . S
C442 C443 1.419 . S
C442 H471 0.948 . S
C443 C442 1.419 . S
C443 C444 1.391 . S
C443 C447 1.397 . S
C444 C439 1.391 . S
C444 C443 1.391 . S
C444 C445 1.399 . S
C445 C444 1.399 . S
C445 C446 1.396 . S
C445 C448 1.453 . S
C445 C449 1.684 . S
C446 C427 1.723 . S
C446 C445 1.396 . S
C446 C447 1.394 . S
C447 C443 1.397 . S
C447 C446 1.394 . S
C447 C457 1.723 . S
C448 C445 1.453 . S
C448 H472 0.982 . S
C448 H473 0.979 . S
C448 H474 0.977 . S
C449 C445 1.684 . S
C449 H475 0.979 . S
C449 H476 0.980 . S
C449 H477 0.983 . S
C450 H426 0.948 . S
C450 C451 1.391 . S
C450 C455 1.391 . S
C451 C450 1.391 . S
C451 C452 1.391 . S
C452 H429 0.947 . S
C452 C451 1.391 . S
C452 C453 1.392 . S
C453 H430 0.948 . S
C453 C452 1.392 . S
C453 C454 1.419 . S
C454 C453 1.419 . S
C454 C455 1.391 . S
C454 C458 1.397 . S
C455 C450 1.391 . S
C455 C454 1.391 . S
C455 C456 1.399 . S
C456 C455 1.399 . S
C456 C457 1.396 . S
C456 C459 1.453 . S
C456 C460 1.684 . S
C457 C447 1.723 . S
C457 C456 1.396 . S
C457 C458 1.394 . S
C458 C428 1.723 . S
C458 C454 1.397 . S
C458 C457 1.394 . S
C459 H431 0.982 . S
C459 H435 0.979 . S
C459 H436 0.977 . S
C459 C456 1.453 . S
C460 H432 0.979 . S
C460 H433 0.980 . S
C460 H434 0.983 . S
C460 C456 1.684 . S
H461 C479 0.948 . S
H462 C420 0.948 . S
H463 C438 0.979 . S
H464 C438 0.980 . S
H465 C438 0.983 . S
H466 C437 0.982 . S
H467 C437 0.979 . S
H468 C437 0.977 . S
H469 C439 0.948 . S
H470 C441 0.947 . S
H471 C442 0.948 . S
H472 C448 0.982 . S
H473 C448 0.979 . S
H474 C448 0.977 . S
H475 C449 0.979 . S
H476 C449 0.980 . S
H477 C449 0.983 . S
H478 C422 0.947 . S
C479 C422 1.392 . S
C479 C423 1.419 . S
C479 H461 0.948 . S
O480 Zn481 1.953 . S
O480 C496 1.225 1_655 S
Zn481 O480 1.953 . S
Zn481 O482 1.949 1_655 S
Zn481 O488 1.919 . S
Zn481 O493 1.924 . S
O482 Zn481 1.949 1_455 S
O482 Zn483 1.923 1_445 S
O482 Zn484 1.950 . S
O482 Zn485 1.945 1_545 S
Zn483 O482 1.923 1_665 S
Zn483 O486 1.933 . S
Zn483 O489 1.941 1_565 S
Zn483 O490 1.965 1_665 S
Zn484 O482 1.950 . S
Zn484 O491 1.938 . S
Zn484 O492 1.906 1_545 S
Zn484 O502 1.953 . S
Zn485 O482 1.945 1_565 S
Zn485 O487 1.932 1_455 S
Zn485 O494 1.977 . S
Zn485 O495 1.910 1_455 S
O486 Zn483 1.933 . S
O486 C497 1.226 . S
O487 Zn485 1.932 1_655 S
O487 C497 1.307 . S
O488 Zn481 1.919 . S
O488 C499 1.253 . S
O489 Zn483 1.941 1_545 S
O489 C499 1.283 . S
O490 Zn483 1.965 1_445 S
O490 C498 1.303 . S
O491 Zn484 1.938 . S
O491 C498 1.247 . S
O492 Zn484 1.906 1_565 S
O492 C500 1.304 . S
O493 Zn481 1.924 . S
O493 C501 1.311 1_545 S
O494 Zn485 1.977 . S
O494 C500 1.272 . S
O495 Zn485 1.910 1_655 S
O495 C501 1.231 . S
C496 O480 1.225 1_455 S
C496 O502 1.298 . S
C497 O486 1.226 . S
C497 O487 1.307 . S
C498 O490 1.303 . S
C498 O491 1.247 . S
C499 O488 1.253 . S
C499 O489 1.283 . S
C500 O492 1.304 . S
C500 O494 1.272 . S
C501 O493 1.311 1_565 S
C501 O495 1.231 . S
O502 Zn484 1.953 . S
O502 C496 1.298 . S
O503 Zn504 1.953 . S
O503 C519 1.225 . S
Zn504 O503 1.953 . S
Zn504 O505 1.949 1_556 S
Zn504 O511 1.919 . S
Zn504 O516 1.924 1_556 S
O505 Zn504 1.949 1_554 S
O505 Zn506 1.923 1_545 S
O505 Zn507 1.950 . S
O505 Zn508 1.945 1_545 S
Zn506 O505 1.923 1_565 S
Zn506 O509 1.933 . S
Zn506 O512 1.941 1_554 S
Zn506 O513 1.965 1_554 S
Zn507 O505 1.950 . S
Zn507 O514 1.938 . S
Zn507 O515 1.906 . S
Zn507 O525 1.953 . S
Zn508 O505 1.945 1_565 S
Zn508 O510 1.932 . S
Zn508 O517 1.977 1_565 S
Zn508 O518 1.910 1_565 S
O509 Zn506 1.933 . S
O509 C520 1.226 . S
O510 Zn508 1.932 . S
O510 C520 1.307 . S
O511 Zn504 1.919 . S
O511 C522 1.253 1_545 S
O512 Zn506 1.941 1_556 S
O512 C522 1.283 . S
O513 Zn506 1.965 1_556 S
O513 C521 1.303 . S
O514 Zn507 1.938 . S
O514 C521 1.247 1_544 S
O515 Zn507 1.906 . S
O515 C523 1.304 . S
O516 Zn504 1.924 1_554 S
O516 C524 1.311 . S
O517 Zn508 1.977 1_545 S
O517 C523 1.272 . S
O518 Zn508 1.910 1_545 S
O518 C524 1.231 . S
C519 O503 1.225 . S
C519 O525 1.298 1_556 S
C520 O509 1.226 . S
C520 O510 1.307 . S
C521 O513 1.303 . S
C521 O514 1.247 1_566 S
C522 O511 1.253 1_565 S
C522 O512 1.283 . S
C523 O515 1.304 . S
C523 O517 1.272 . S
C524 O516 1.311 . S
C524 O518 1.231 . S
O525 Zn507 1.953 . S
O525 C519 1.298 1_554 S
O526 Zn527 1.953 . S
O526 C542 1.225 . S
Zn527 O526 1.953 . S
Zn527 O528 1.949 . S
Zn527 O534 1.919 . S
Zn527 O539 1.924 . S
O528 Zn527 1.949 . S
O528 Zn529 1.923 . S
O528 Zn530 1.950 . S
O528 Zn531 1.945 . S
Zn529 O528 1.923 . S
Zn529 O532 1.933 . S
Zn529 O535 1.941 . S
Zn529 O536 1.965 . S
Zn530 O528 1.950 . S
Zn530 O537 1.938 . S
Zn530 O538 1.906 . S
Zn530 O548 1.953 . S
Zn531 O528 1.945 . S
Zn531 O533 1.932 . S
Zn531 O540 1.977 . S
Zn531 O541 1.910 . S
O532 Zn529 1.933 . S
O532 C543 1.226 . S
O533 Zn531 1.932 . S
O533 C543 1.307 . S
O534 Zn527 1.919 . S
O534 C545 1.253 . S
O535 Zn529 1.941 . S
O535 C545 1.283 . S
O536 Zn529 1.965 . S
O536 C544 1.303 . S
O537 Zn530 1.938 . S
O537 C544 1.247 . S
O538 Zn530 1.906 . S
O538 C546 1.304 . S
O539 Zn527 1.924 . S
O539 C547 1.311 . S
O540 Zn531 1.977 . S
O540 C546 1.272 . S
O541 Zn531 1.910 . S
O541 C547 1.231 . S
C542 O526 1.225 . S
C542 O548 1.298 . S
C543 O532 1.226 . S
C543 O533 1.307 . S
C544 O536 1.303 . S
C544 O537 1.247 . S
C545 O534 1.253 . S
C545 O535 1.283 . S
C546 O538 1.304 . S
C546 O540 1.272 . S
C547 O539 1.311 . S
C547 O541 1.231 . S
O548 Zn530 1.953 . S
O548 C542 1.298 . S
O549 Zn550 1.953 . S
O549 C565 1.225 . S
Zn550 O549 1.953 . S
Zn550 O551 1.949 1_655 S
Zn550 O557 1.919 . S
Zn550 O562 1.924 . S
O551 Zn550 1.949 1_455 S
O551 Zn552 1.923 1_454 S
O551 Zn553 1.950 . S
O551 Zn554 1.945 1_554 S
Zn552 O551 1.923 1_656 S
Zn552 O555 1.933 1_655 S
Zn552 O558 1.941 . S
Zn552 O559 1.965 . S
Zn553 O551 1.950 . S
Zn553 O560 1.938 . S
Zn553 O561 1.906 . S
Zn553 O571 1.953 . S
Zn554 O551 1.945 1_556 S
Zn554 O556 1.932 . S
Zn554 O563 1.977 1_556 S
Zn554 O564 1.910 1_556 S
O555 Zn552 1.933 1_455 S
O555 C566 1.226 . S
O556 Zn554 1.932 . S
O556 C566 1.307 . S
O557 Zn550 1.919 . S
O557 C568 1.253 1_554 S
O558 Zn552 1.941 . S
O558 C568 1.283 . S
O559 Zn552 1.965 . S
O559 C567 1.303 . S
O560 Zn553 1.938 . S
O560 C567 1.247 1_454 S
O561 Zn553 1.906 . S
O561 C569 1.304 . S
O562 Zn550 1.924 . S
O562 C570 1.311 1_655 S
O563 Zn554 1.977 1_554 S
O563 C569 1.272 . S
O564 Zn554 1.910 1_554 S
O564 C570 1.231 . S
C565 O549 1.225 . S
C565 O571 1.298 1_655 S
C566 O555 1.226 . S
C566 O556 1.307 . S
C567 O559 1.303 . S
C567 O560 1.247 1_656 S
C568 O557 1.253 1_556 S
C568 O558 1.283 . S
C569 O561 1.304 . S
C569 O563 1.272 . S
C570 O562 1.311 1_455 S
C570 O564 1.231 . S
O571 Zn553 1.953 . S
O571 C565 1.298 1_455 S
H572 C584 0.930 . S
H573 C586 0.930 . S
H574 C587 0.930 . S
H575 C591 0.959 . S
H576 C591 0.959 . S
H577 C591 0.961 . S
H578 C592 0.960 . S
H579 C592 0.961 . S
H580 C592 0.959 . S
H581 C595 0.929 . S
H582 C596 0.931 . S
H583 C598 0.930 . S
C584 H572 0.930 . S
C584 C585 1.399 . S
C584 C589 1.399 . S
C585 C584 1.399 . S
C585 C586 1.376 . S
C586 H573 0.930 . S
C586 C585 1.376 . S
C586 C587 1.388 . S
C587 H574 0.930 . S
C587 C586 1.388 . S
C587 C588 1.390 . S
C588 C587 1.390 . S
C588 C589 1.394 . S
C588 C594 1.465 . S
C589 C584 1.399 . S
C589 C588 1.394 . S
C589 C590 1.516 . S
C590 C589 1.516 . S
C590 C591 1.502 . S
C590 C592 1.561 . S
C590 C593 1.526 . S
C591 H575 0.959 . S
C591 H576 0.959 . S
C591 H577 0.961 . S
C591 C590 1.502 . S
C592 H578 0.960 . S
C592 H579 0.961 . S
C592 H580 0.959 . S
C592 C590 1.561 . S
C593 C590 1.526 . S
C593 C594 1.396 . S
C593 C598 1.390 . S
C594 C588 1.465 . S
C594 C593 1.396 . S
C594 C595 1.399 . S
C595 H581 0.929 . S
C595 C594 1.399 . S
C595 C596 1.385 . S
C596 H582 0.931 . S
C596 C595 1.385 . S
C596 C597 1.389 . S
C597 C596 1.389 . S
C597 C598 1.387 . S
C598 H583 0.930 . S
C598 C593 1.390 . S
C598 C597 1.387 . S
H599 C611 0.930 . S
H600 C613 0.930 . S
H601 C614 0.930 . S
H602 C618 0.959 . S
H603 C618 0.959 . S
H604 C618 0.961 . S
H605 C619 0.960 . S
H606 C619 0.961 . S
H607 C619 0.959 . S
H608 C622 0.924 1_545 S
H609 C623 0.931 1_545 S
H610 C625 0.930 . S
C611 H599 0.930 . S
C611 C612 1.399 . S
C611 C616 1.399 . S
C612 C611 1.399 . S
C612 C613 1.376 . S
C613 H600 0.930 . S
C613 C612 1.376 . S
C613 C614 1.388 . S
C614 H601 0.930 . S
C614 C613 1.388 . S
C614 C615 1.390 . S
C615 C614 1.390 . S
C615 C616 1.394 . S
C615 C621 1.465 . S
C616 C611 1.399 . S
C616 C615 1.394 . S
C616 C617 1.516 . S
C617 C616 1.516 . S
C617 C618 1.502 . S
C617 C619 1.561 . S
C617 C620 1.526 . S
C618 H602 0.959 . S
C618 H603 0.959 . S
C618 H604 0.961 . S
C618 C617 1.502 . S
C619 H605 0.960 . S
C619 H606 0.961 . S
C619 H607 0.959 . S
C619 C617 1.561 . S
C620 C617 1.526 . S
C620 C621 1.396 . S
C620 C625 1.390 . S
C621 C615 1.465 . S
C621 C620 1.396 . S
C621 C622 1.399 . S
C622 H608 0.924 1_565 S
C622 C621 1.399 . S
C622 C623 1.385 . S
C623 H609 0.931 1_565 S
C623 C622 1.385 . S
C623 C624 1.389 . S
C624 C623 1.389 . S
C624 C625 1.387 . S
C625 H610 0.930 . S
C625 C620 1.390 . S
C625 C624 1.387 . S
H626 C638 0.930 . S
H627 C640 0.930 . S
H628 C641 0.930 . S
H629 C645 0.959 . S
H630 C645 0.959 . S
H631 C645 0.961 . S
H632 C646 0.960 . S
H633 C646 0.961 . S
H634 C646 0.959 . S
H635 C649 0.929 . S
H636 C650 0.931 . S
H637 C652 0.930 . S
C638 H626 0.930 . S
C638 C639 1.399 . S
C638 C643 1.399 . S
C639 C638 1.399 . S
C639 C640 1.376 . S
C640 H627 0.930 . S
C640 C639 1.376 . S
C640 C641 1.388 . S
C641 H628 0.930 . S
C641 C640 1.388 . S
C641 C642 1.390 . S
C642 C641 1.390 . S
C642 C643 1.394 . S
C642 C648 1.465 . S
C643 C638 1.399 . S
C643 C642 1.394 . S
C643 C644 1.516 . S
C644 C643 1.516 . S
C644 C645 1.502 . S
C644 C646 1.561 . S
C644 C647 1.526 . S
C645 H629 0.959 . S
C645 H630 0.959 . S
C645 H631 0.961 . S
C645 C644 1.502 . S
C646 H632 0.960 . S
C646 H633 0.961 . S
C646 H634 0.959 . S
C646 C644 1.561 . S
C647 C644 1.526 . S
C647 C648 1.396 . S
C647 C652 1.390 . S
C648 C642 1.465 . S
C648 C647 1.396 . S
C648 C649 1.399 . S
C649 H635 0.929 . S
C649 C648 1.399 . S
C649 C650 1.385 . S
C650 H636 0.931 . S
C650 C649 1.385 . S
C650 C651 1.389 . S
C651 C650 1.389 . S
C651 C652 1.387 . S
C652 H637 0.930 . S
C652 C647 1.390 . S
C652 C651 1.387 . S
H653 C665 0.930 . S
H654 C667 0.930 . S
H655 C668 0.930 . S
H656 C672 0.959 . S
H657 C672 0.959 . S
H658 C672 0.961 . S
H659 C673 0.960 . S
H660 C673 0.961 . S
H661 C673 0.980 . S
H662 C676 0.929 . S
H663 C677 0.931 . S
H664 C679 0.930 . S
C665 H653 0.930 . S
C665 C666 1.399 . S
C665 C670 1.399 . S
C666 C665 1.399 . S
C666 C667 1.376 . S
C667 H654 0.930 . S
C667 C666 1.376 . S
C667 C668 1.388 . S
C668 H655 0.930 . S
C668 C667 1.388 . S
C668 C669 1.390 . S
C669 C668 1.390 . S
C669 C670 1.394 . S
C669 C675 1.465 . S
C670 C665 1.399 . S
C670 C669 1.394 . S
C670 C671 1.516 . S
C671 C670 1.516 . S
C671 C672 1.502 . S
C671 C673 1.561 . S
C671 C674 1.526 . S
C672 H656 0.959 . S
C672 H657 0.959 . S
C672 H658 0.961 . S
C672 C671 1.502 . S
C673 H659 0.960 . S
C673 H660 0.961 . S
C673 H661 0.980 . S
C673 C671 1.561 . S
C674 C671 1.526 . S
C674 C675 1.396 . S
C674 C679 1.390 . S
C675 C669 1.465 . S
C675 C674 1.396 . S
C675 C676 1.399 . S
C676 H662 0.929 . S
C676 C675 1.399 . S
C676 C677 1.385 . S
C677 H663 0.931 . S
C677 C676 1.385 . S
C677 C678 1.389 . S
C678 C677 1.389 . S
C678 C679 1.387 . S
C679 H664 0.930 . S
C679 C674 1.390 . S
C679 C678 1.387 . S
H680 C692 0.930 . S
H681 C694 0.930 . S
H682 C695 0.930 . S
H683 C699 0.959 . S
H684 C699 0.959 . S
H685 C699 0.961 . S
H686 C700 0.960 . S
H687 C700 0.961 1_556 S
H688 C700 0.959 . S
H689 C703 0.929 . S
H690 C704 0.931 . S
H691 C706 0.930 . S
C692 H680 0.930 . S
C692 C693 1.399 . S
C692 C697 1.399 . S
C693 C692 1.399 . S
C693 C694 1.376 . S
C694 H681 0.930 . S
C694 C693 1.376 . S
C694 C695 1.388 . S
C695 H682 0.930 . S
C695 C694 1.388 . S
C695 C696 1.390 . S
C696 C695 1.390 . S
C696 C697 1.394 . S
C696 C702 1.465 . S
C697 C692 1.399 . S
C697 C696 1.394 . S
C697 C698 1.516 . S
C698 C697 1.516 . S
C698 C699 1.502 . S
C698 C700 1.561 . S
C698 C701 1.526 . S
C699 H683 0.959 . S
C699 H684 0.959 . S
C699 H685 0.961 . S
C699 C698 1.502 . S
C700 H686 0.960 . S
C700 H687 0.961 1_554 S
C700 H688 0.959 . S
C700 C698 1.561 . S
C701 C698 1.526 . S
C701 C702 1.396 . S
C701 C706 1.390 . S
C702 C696 1.465 . S
C702 C701 1.396 . S
C702 C703 1.399 . S
C703 H689 0.929 . S
C703 C702 1.399 . S
C703 C704 1.385 . S
C704 H690 0.931 . S
C704 C703 1.385 . S
C704 C705 1.389 . S
C705 C704 1.389 . S
C705 C706 1.387 . S
C706 H691 0.930 . S
C706 C701 1.390 . S
C706 C705 1.387 . S
H707 C719 0.930 . S
H708 C721 0.930 . S
H709 C722 0.930 . S
H710 C726 0.959 . S
H711 C726 0.959 . S
H712 C726 0.961 . S
H713 C727 0.960 . S
H714 C727 0.961 . S
H715 C727 0.959 . S
H716 C730 0.899 1_545 S
H717 C731 0.931 1_545 S
H718 C733 0.930 . S
C719 H707 0.930 . S
C719 C720 1.399 . S
C719 C724 1.399 . S
C720 C719 1.399 . S
C720 C721 1.376 . S
C721 H708 0.930 . S
C721 C720 1.376 . S
C721 C722 1.388 . S
C722 H709 0.930 . S
C722 C721 1.388 . S
C722 C723 1.390 . S
C723 C722 1.390 . S
C723 C724 1.394 . S
C723 C729 1.465 . S
C724 C719 1.399 . S
C724 C723 1.394 . S
C724 C725 1.516 . S
C725 C724 1.516 . S
C725 C726 1.502 . S
C725 C727 1.561 . S
C725 C728 1.526 . S
C726 H710 0.959 . S
C726 H711 0.959 . S
C726 H712 0.961 . S
C726 C725 1.502 . S
C727 H713 0.960 . S
C727 H714 0.961 . S
C727 H715 0.959 . S
C727 C725 1.561 . S
C728 C725 1.526 . S
C728 C729 1.396 . S
C728 C733 1.390 . S
C729 C723 1.465 . S
C729 C728 1.396 . S
C729 C730 1.399 . S
C730 H716 0.899 1_565 S
C730 C729 1.399 . S
C730 C731 1.385 . S
C731 H717 0.931 1_565 S
C731 C730 1.385 . S
C731 C732 1.389 . S
C732 C731 1.389 . S
C732 C733 1.387 . S
C733 H718 0.930 . S
C733 C728 1.390 . S
C733 C732 1.387 . S
H734 C746 0.930 . S
H735 C748 0.930 . S
H736 C749 0.930 . S
H737 C753 0.959 . S
H738 C753 0.959 1_554 S
H739 C753 0.961 . S
H740 C754 0.960 . S
H741 C754 0.961 . S
H742 C754 0.959 . S
H743 C757 0.929 . S
H744 C758 0.931 . S
H745 C760 0.930 . S
C746 H734 0.930 . S
C746 C747 1.399 . S
C746 C751 1.399 . S
C747 C746 1.399 . S
C747 C748 1.376 . S
C748 H735 0.930 . S
C748 C747 1.376 . S
C748 C749 1.388 . S
C749 H736 0.930 . S
C749 C748 1.388 . S
C749 C750 1.390 . S
C750 C749 1.390 . S
C750 C751 1.394 . S
C750 C756 1.465 . S
C751 C746 1.399 . S
C751 C750 1.394 . S
C751 C752 1.516 . S
C752 C751 1.516 . S
C752 C753 1.502 . S
C752 C754 1.561 1_556 S
C752 C755 1.526 . S
C753 H737 0.959 . S
C753 H738 0.959 1_556 S
C753 H739 0.961 . S
C753 C752 1.502 . S
C754 H740 0.960 . S
C754 H741 0.961 . S
C754 H742 0.959 . S
C754 C752 1.561 1_554 S
C755 C752 1.526 . S
C755 C756 1.396 . S
C755 C760 1.390 . S
C756 C750 1.465 . S
C756 C755 1.396 . S
C756 C757 1.399 . S
C757 H743 0.929 . S
C757 C756 1.399 . S
C757 C758 1.385 . S
C758 H744 0.931 . S
C758 C757 1.385 . S
C758 C759 1.389 . S
C759 C758 1.389 . S
C759 C760 1.387 . S
C760 H745 0.930 . S
C760 C755 1.390 . S
C760 C759 1.387 . S
H761 C773 0.930 . S
H762 C775 0.930 . S
H763 C776 0.930 . S
H764 C780 0.959 . S
H765 C780 0.959 . S
H766 C780 0.961 . S
H767 C781 0.960 . S
H768 C781 0.961 . S
H769 C781 0.959 . S
H770 C784 0.929 . S
H771 C785 0.931 . S
H772 C787 0.930 . S
C773 H761 0.930 . S
C773 C774 1.399 . S
C773 C778 1.399 . S
C774 C773 1.399 . S
C774 C775 1.376 . S
C775 H762 0.930 . S
C775 C774 1.376 . S
C775 C776 1.388 . S
C776 H763 0.930 . S
C776 C775 1.388 . S
C776 C777 1.390 . S
C777 C776 1.390 . S
C777 C778 1.394 . S
C777 C783 1.465 . S
C778 C773 1.399 . S
C778 C777 1.394 . S
C778 C779 1.516 . S
C779 C778 1.516 . S
C779 C780 1.502 . S
C779 C781 1.561 . S
C779 C782 1.526 . S
C780 H764 0.959 . S
C780 H765 0.959 . S
C780 H766 0.961 . S
C780 C779 1.502 . S
C781 H767 0.960 . S
C781 H768 0.961 . S
C781 H769 0.959 . S
C781 C779 1.561 . S
C782 C779 1.526 . S
C782 C783 1.396 . S
C782 C787 1.390 . S
C783 C777 1.465 . S
C783 C782 1.396 . S
C783 C784 1.399 . S
C784 H770 0.929 . S
C784 C783 1.399 . S
C784 C785 1.385 . S
C785 H771 0.931 . S
C785 C784 1.385 . S
C785 C786 1.389 . S
C786 C785 1.389 . S
C786 C787 1.387 . S
C787 H772 0.930 . S
C787 C782 1.390 . S
C787 C786 1.387 . S
H788 C800 0.930 . S
H789 C802 0.930 . S
H790 C803 0.930 . S
H791 C807 0.959 . S
H792 C807 0.959 . S
H793 C807 0.961 . S
H794 C808 0.960 . S
H795 C808 0.961 1_556 S
H796 C808 0.959 . S
H797 C811 0.929 . S
H798 C812 0.931 1_655 S
H799 C814 0.930 . S
C800 H788 0.930 . S
C800 C801 1.399 . S
C800 C805 1.399 . S
C801 C800 1.399 . S
C801 C802 1.376 . S
C802 H789 0.930 . S
C802 C801 1.376 . S
C802 C803 1.388 . S
C803 H790 0.930 . S
C803 C802 1.388 . S
C803 C804 1.390 . S
C804 C803 1.390 . S
C804 C805 1.394 . S
C804 C810 1.465 . S
C805 C800 1.399 . S
C805 C804 1.394 . S
C805 C806 1.516 . S
C806 C805 1.516 . S
C806 C807 1.502 . S
C806 C808 1.561 . S
C806 C809 1.526 . S
C807 H791 0.959 . S
C807 H792 0.959 . S
C807 H793 0.961 . S
C807 C806 1.502 . S
C808 H794 0.960 . S
C808 H795 0.961 1_554 S
C808 H796 0.959 . S
C808 C806 1.561 . S
C809 C806 1.526 . S
C809 C810 1.396 . S
C809 C814 1.390 . S
C810 C804 1.465 . S
C810 C809 1.396 . S
C810 C811 1.399 . S
C811 H797 0.929 . S
C811 C810 1.399 . S
C811 C812 1.385 . S
C812 H798 0.931 1_455 S
C812 C811 1.385 . S
C812 C813 1.389 . S
C813 C812 1.389 . S
C813 C814 1.387 . S
C814 H799 0.930 . S
C814 C809 1.390 . S
C814 C813 1.387 . S
H815 C827 0.930 . S
H816 C829 0.930 . S
H817 C830 0.930 . S
H818 C834 0.959 . S
H819 C834 0.959 . S
H820 C834 0.961 . S
H821 C835 0.960 . S
H822 C835 0.961 . S
H823 C835 0.959 . S
H824 C838 0.929 1_554 S
H825 C839 0.953 . S
H826 C841 0.930 . S
C827 H815 0.930 . S
C827 C828 1.399 . S
C827 C832 1.399 . S
C828 C827 1.399 . S
C828 C829 1.376 . S
C829 H816 0.930 . S
C829 C828 1.376 . S
C829 C830 1.388 . S
C830 H817 0.930 . S
C830 C829 1.388 . S
C830 C831 1.390 . S
C831 C830 1.390 . S
C831 C832 1.394 . S
C831 C837 1.465 . S
C832 C827 1.399 . S
C832 C831 1.394 . S
C832 C833 1.516 . S
C833 C832 1.516 . S
C833 C834 1.502 . S
C833 C835 1.561 . S
C833 C836 1.526 . S
C834 H818 0.959 . S
C834 H819 0.959 . S
C834 H820 0.961 . S
C834 C833 1.502 . S
C835 H821 0.960 . S
C835 H822 0.961 . S
C835 H823 0.959 . S
C835 C833 1.561 . S
C836 C833 1.526 . S
C836 C837 1.396 . S
C836 C841 1.390 . S
C837 C831 1.465 . S
C837 C836 1.396 . S
C837 C838 1.399 . S
C838 H824 0.929 1_556 S
C838 C837 1.399 . S
C838 C839 1.383 1_556 S
C839 H825 0.953 . S
C839 C838 1.383 1_554 S
C839 C840 1.371 1_554 S
C840 C839 1.371 1_556 S
C840 C841 1.387 . S
C841 H826 0.930 . S
C841 C836 1.390 . S
C841 C840 1.387 . S
H842 C854 0.930 . S
H843 C856 0.930 . S
H844 C857 0.930 . S
H845 C861 0.959 . S
H846 C861 0.959 . S
H847 C861 0.961 . S
H848 C862 0.960 . S
H849 C862 0.961 . S
H850 C862 0.959 . S
H851 C865 0.929 1_455 S
H852 C866 0.931 1_455 S
H853 C868 0.930 . S
C854 H842 0.930 . S
C854 C855 1.399 . S
C854 C859 1.399 . S
C855 C854 1.399 . S
C855 C856 1.376 . S
C856 H843 0.930 . S
C856 C855 1.376 . S
C856 C857 1.388 . S
C857 H844 0.930 . S
C857 C856 1.388 . S
C857 C858 1.390 . S
C858 C857 1.390 . S
C858 C859 1.394 . S
C858 C864 1.465 . S
C859 C854 1.399 . S
C859 C858 1.394 . S
C859 C860 1.516 . S
C860 C859 1.516 . S
C860 C861 1.502 . S
C860 C862 1.561 . S
C860 C863 1.526 . S
C861 H845 0.959 . S
C861 H846 0.959 . S
C861 H847 0.961 . S
C861 C860 1.502 . S
C862 H848 0.960 . S
C862 H849 0.961 . S
C862 H850 0.959 . S
C862 C860 1.561 . S
C863 C860 1.526 . S
C863 C864 1.396 . S
C863 C868 1.390 . S
C864 C858 1.465 . S
C864 C863 1.396 . S
C864 C865 1.399 . S
C865 H851 0.929 1_655 S
C865 C864 1.399 . S
C865 C866 1.385 . S
C866 H852 0.931 1_655 S
C866 C865 1.385 . S
C866 C867 1.389 . S
C867 C866 1.389 . S
C867 C868 1.387 . S
C868 H853 0.930 . S
C868 C863 1.390 . S
C868 C867 1.387 . S
H869 C881 0.930 . S
H870 C883 0.930 . S
H871 C884 0.930 . S
H872 C888 0.959 . S
H873 C888 0.959 . S
H874 C888 0.961 . S
H875 C889 0.960 . S
H876 C889 0.961 . S
H877 C889 0.959 . S
H878 C892 0.929 . S
H879 C893 0.931 . S
H880 C895 0.930 . S
C881 H869 0.930 . S
C881 C882 1.399 . S
C881 C886 1.399 . S
C882 C881 1.399 . S
C882 C883 1.376 . S
C883 H870 0.930 . S
C883 C882 1.376 . S
C883 C884 1.388 . S
C884 H871 0.930 . S
C884 C883 1.388 . S
C884 C885 1.390 . S
C885 C884 1.390 . S
C885 C886 1.394 . S
C885 C891 1.465 . S
C886 C881 1.399 . S
C886 C885 1.394 . S
C886 C887 1.516 . S
C887 C886 1.516 . S
C887 C888 1.502 . S
C887 C889 1.561 . S
C887 C890 1.526 . S
C888 H872 0.959 . S
C888 H873 0.959 . S
C888 H874 0.961 . S
C888 C887 1.502 . S
C889 H875 0.960 . S
C889 H876 0.961 . S
C889 H877 0.959 . S
C889 C887 1.561 . S
C890 C887 1.526 . S
C890 C891 1.396 . S
C890 C895 1.390 . S
C891 C885 1.465 . S
C891 C890 1.396 . S
C891 C892 1.399 . S
C892 H878 0.929 . S
C892 C891 1.399 . S
C892 C893 1.385 . S
C893 H879 0.931 . S
C893 C892 1.385 . S
C893 C894 1.389 . S
C894 C893 1.389 . S
C894 C895 1.387 . S
C895 H880 0.930 . S
C895 C890 1.390 . S
C895 C894 1.387 . S
H896 C908 0.930 . S
H897 C910 0.930 1_455 S
H898 C911 0.930 1_545 S
H899 C915 0.959 . S
H900 C915 0.959 . S
H901 C915 0.961 . S
H902 C916 0.960 . S
H903 C916 0.961 . S
H904 C916 0.959 . S
H905 C919 0.929 . S
H906 C920 0.931 . S
H907 C922 0.930 . S
C908 H896 0.930 . S
C908 C909 1.399 . S
C908 C913 1.399 . S
C909 C908 1.399 . S
C909 C910 1.376 . S
C910 H897 0.930 1_655 S
C910 C909 1.376 . S
C910 C911 1.388 1_655 S
C911 H898 0.930 1_565 S
C911 C910 1.388 1_455 S
C911 C912 1.390 1_455 S
C912 C911 1.390 1_655 S
C912 C913 1.394 . S
C912 C918 1.465 . S
C913 C908 1.399 . S
C913 C912 1.394 . S
C913 C914 1.516 . S
C914 C913 1.516 . S
C914 C915 1.502 . S
C914 C916 1.561 1_565 S
C914 C917 1.526 . S
C915 H899 0.959 . S
C915 H900 0.959 . S
C915 H901 0.961 . S
C915 C914 1.502 . S
C916 H902 0.960 . S
C916 H903 0.961 . S
C916 H904 0.959 . S
C916 C914 1.561 1_545 S
C917 C914 1.526 . S
C917 C918 1.396 . S
C917 C922 1.390 . S
C918 C912 1.465 . S
C918 C917 1.396 . S
C918 C919 1.399 1_665 S
C919 H905 0.929 . S
C919 C918 1.399 1_445 S
C919 C920 1.385 . S
C920 H906 0.931 . S
C920 C919 1.385 . S
C920 C921 1.387 1_445 S
C921 C920 1.387 1_665 S
C921 C922 1.389 . S
C922 H907 0.930 . S
C922 C917 1.390 . S
C922 C921 1.389 . S
H923 C935 0.930 . S
H924 C937 0.946 . S
H925 C938 0.930 . S
H926 C942 0.959 . S
H927 C942 0.959 . S
H928 C942 0.961 . S
H929 C943 0.960 . S
H930 C943 0.961 . S
H931 C943 0.959 . S
H932 C946 0.929 . S
H933 C947 0.931 . S
H934 C949 0.930 . S
C935 H923 0.930 . S
C935 C936 1.399 . S
C935 C940 1.399 . S
C936 C935 1.399 . S
C936 C937 1.354 1_545 S
C937 H924 0.946 . S
C937 C936 1.354 1_565 S
C937 C938 1.396 . S
C938 H925 0.930 . S
C938 C937 1.396 . S
C938 C939 1.390 1_565 S
C939 C938 1.390 1_545 S
C939 C940 1.394 . S
C939 C945 1.465 . S
C940 C935 1.399 . S
C940 C939 1.394 . S
C940 C941 1.516 . S
C941 C940 1.516 . S
C941 C942 1.502 . S
C941 C943 1.561 . S
C941 C944 1.526 . S
C942 H926 0.959 . S
C942 H927 0.959 . S
C942 H928 0.961 . S
C942 C941 1.502 . S
C943 H929 0.960 . S
C943 H930 0.961 . S
C943 H931 0.959 . S
C943 C941 1.561 . S
C944 C941 1.526 . S
C944 C945 1.396 . S
C944 C949 1.390 . S
C945 C939 1.465 . S
C945 C944 1.396 . S
C945 C946 1.399 1_545 S
C946 H932 0.929 . S
C946 C945 1.399 1_565 S
C946 C947 1.385 . S
C947 H933 0.931 . S
C947 C946 1.385 . S
C947 C948 1.389 1_565 S
C948 C947 1.389 1_545 S
C948 C949 1.387 . S
C949 H934 0.930 . S
C949 C944 1.390 . S
C949 C948 1.387 . S
H950 C962 0.930 . S
H951 C964 0.930 . S
H952 C965 0.930 . S
H953 C969 0.959 . S
H954 C969 0.959 . S
H955 C969 0.961 . S
H956 C970 0.960 . S
H957 C970 0.961 . S
H958 C970 0.959 . S
H959 C973 0.929 . S
H960 C974 0.931 . S
H961 C976 0.930 . S
C962 H950 0.930 . S
C962 C963 1.399 . S
C962 C967 1.399 . S
C963 C962 1.399 . S
C963 C964 1.376 . S
C964 H951 0.930 . S
C964 C963 1.376 . S
C964 C965 1.388 . S
C965 H952 0.930 . S
C965 C964 1.388 . S
C965 C966 1.390 . S
C966 C965 1.390 . S
C966 C967 1.394 . S
C966 C972 1.465 . S
C967 C962 1.399 . S
C967 C966 1.394 . S
C967 C968 1.516 . S
C968 C967 1.516 . S
C968 C969 1.502 . S
C968 C970 1.561 . S
C968 C971 1.526 . S
C969 H953 0.959 . S
C969 H954 0.959 . S
C969 H955 0.961 . S
C969 C968 1.502 . S
C970 H956 0.960 . S
C970 H957 0.961 . S
C970 H958 0.959 . S
C970 C968 1.561 . S
C971 C968 1.526 . S
C971 C972 1.396 . S
C971 C976 1.390 . S
C972 C966 1.465 . S
C972 C971 1.396 . S
C972 C973 1.399 . S
C973 H959 0.929 . S
C973 C972 1.399 . S
C973 C974 1.385 . S
C974 H960 0.931 . S
C974 C973 1.385 . S
C974 C975 1.389 . S
C975 C974 1.389 . S
C975 C976 1.387 . S
C976 H961 0.930 . S
C976 C971 1.390 . S
C976 C975 1.387 . S
H977 C989 0.930 . S
H978 C991 0.930 . S
H979 C992 0.930 . S
H980 C996 0.959 . S
H981 C996 0.959 . S
H982 C996 0.961 . S
H983 C997 0.960 . S
H984 C997 0.961 . S
H985 C997 0.959 . S
H986 C1000 0.929 . S
H987 C1001 0.931 . S
H988 C1003 0.930 . S
C989 H977 0.930 . S
C989 C990 1.399 . S
C989 C994 1.399 . S
C990 C989 1.399 . S
C990 C991 1.376 . S
C991 H978 0.930 . S
C991 C990 1.376 . S
C991 C992 1.388 . S
C992 H979 0.930 . S
C992 C991 1.388 . S
C992 C993 1.390 . S
C993 C992 1.390 . S
C993 C994 1.394 . S
C993 C999 1.465 . S
C994 C989 1.399 . S
C994 C993 1.394 . S
C994 C995 1.516 . S
C995 C994 1.516 . S
C995 C996 1.502 . S
C995 C997 1.561 . S
C995 C998 1.526 . S
C996 H980 0.959 . S
C996 H981 0.959 . S
C996 H982 0.961 . S
C996 C995 1.502 . S
C997 H983 0.960 . S
C997 H984 0.961 . S
C997 H985 0.959 . S
C997 C995 1.561 . S
C998 C995 1.526 . S
C998 C999 1.396 . S
C998 C1003 1.390 . S
C999 C993 1.465 . S
C999 C998 1.396 . S
C999 C1000 1.399 . S
C1000 H986 0.929 . S
C1000 C999 1.399 . S
C1000 C1001 1.385 . S
C1001 H987 0.931 . S
C1001 C1000 1.385 . S
C1001 C1002 1.389 . S
C1002 C1001 1.389 . S
C1002 C1003 1.387 . S
C1003 H988 0.930 . S
C1003 C998 1.390 . S
C1003 C1002 1.387 . S
H1004 C1016 0.930 . S
H1005 C1018 0.930 . S
H1006 C1019 0.930 . S
H1007 C1023 0.959 . S
H1008 C1023 0.959 . S
H1009 C1023 0.961 . S
H1010 C1024 0.960 . S
H1011 C1024 0.961 . S
H1012 C1024 0.959 . S
H1013 C1027 0.929 . S
H1014 C1028 0.931 . S
H1015 C1030 0.930 . S
C1016 H1004 0.930 . S
C1016 C1017 1.399 1_545 S
C1016 C1021 1.404 . S
C1017 C1016 1.399 1_565 S
C1017 C1018 1.376 . S
C1018 H1005 0.930 . S
C1018 C1017 1.376 . S
C1018 C1019 1.388 . S
C1019 H1006 0.930 . S
C1019 C1018 1.388 . S
C1019 C1020 1.390 . S
C1020 C1019 1.390 . S
C1020 C1021 1.364 1_565 S
C1020 C1026 1.465 . S
C1021 C1016 1.404 . S
C1021 C1020 1.364 1_545 S
C1021 C1022 1.539 . S
C1022 C1021 1.539 . S
C1022 C1023 1.502 1_556 S
C1022 C1024 1.561 . S
C1022 C1025 1.526 . S
C1023 H1007 0.959 . S
C1023 H1008 0.959 . S
C1023 H1009 0.961 . S
C1023 C1022 1.502 1_554 S
C1024 H1010 0.960 . S
C1024 H1011 0.961 . S
C1024 H1012 0.959 . S
C1024 C1022 1.561 . S
C1025 C1022 1.526 . S
C1025 C1026 1.396 1_545 S
C1025 C1030 1.390 . S
C1026 C1020 1.465 . S
C1026 C1025 1.396 1_565 S
C1026 C1027 1.399 . S
C1027 H1013 0.929 . S
C1027 C1026 1.399 . S
C1027 C1028 1.385 . S
C1028 H1014 0.931 . S
C1028 C1027 1.385 . S
C1028 C1029 1.389 . S
C1029 C1028 1.389 . S
C1029 C1030 1.387 1_565 S
C1030 H1015 0.930 . S
C1030 C1025 1.390 . S
C1030 C1029 1.387 1_545 S
H1031 C1043 0.930 1_565 S
H1032 C1045 0.930 . S
H1033 C1046 0.930 . S
H1034 C1050 0.959 . S
H1035 C1050 0.959 . S
H1036 C1050 0.961 . S
H1037 C1051 0.960 . S
H1038 C1051 0.961 . S
H1039 C1051 0.959 . S
H1040 C1054 0.929 . S
H1041 C1055 0.931 . S
H1042 C1057 0.930 1_565 S
C1043 H1031 0.930 1_545 S
C1043 C1044 1.399 . S
C1043 C1048 1.399 . S
C1044 C1043 1.399 . S
C1044 C1045 1.376 . S
C1045 H1032 0.930 . S
C1045 C1044 1.376 . S
C1045 C1046 1.388 . S
C1046 H1033 0.930 . S
C1046 C1045 1.388 . S
C1046 C1047 1.390 . S
C1047 C1046 1.390 . S
C1047 C1048 1.394 . S
C1047 C1053 1.465 . S
C1048 C1043 1.399 . S
C1048 C1047 1.394 . S
C1048 C1049 1.516 1_545 S
C1049 C1048 1.516 1_565 S
C1049 C1050 1.502 . S
C1049 C1051 1.561 . S
C1049 C1052 1.526 1_565 S
C1050 H1034 0.959 . S
C1050 H1035 0.959 . S
C1050 H1036 0.961 . S
C1050 C1049 1.502 . S
C1051 H1037 0.960 . S
C1051 H1038 0.961 . S
C1051 H1039 0.959 . S
C1051 C1049 1.561 . S
C1052 C1049 1.526 1_545 S
C1052 C1053 1.396 . S
C1052 C1057 1.390 . S
C1053 C1047 1.465 . S
C1053 C1052 1.396 . S
C1053 C1054 1.399 . S
C1054 H1040 0.929 . S
C1054 C1053 1.399 . S
C1054 C1055 1.385 . S
C1055 H1041 0.931 . S
C1055 C1054 1.385 . S
C1055 C1056 1.389 . S
C1056 C1055 1.389 . S
C1056 C1057 1.387 . S
C1057 H1042 0.930 1_545 S
C1057 C1052 1.390 . S
C1057 C1056 1.387 . S
H1058 C1070 0.930 . S
H1059 C1072 0.930 . S
H1060 C1073 0.930 . S
H1061 C1077 0.959 . S
H1062 C1077 0.959 . S
H1063 C1077 0.961 . S
H1064 C1078 0.960 . S
H1065 C1078 0.961 . S
H1066 C1078 0.959 . S
H1067 C1081 0.929 . S
H1068 C1082 0.931 . S
H1069 C1084 0.930 . S
C1070 H1058 0.930 . S
C1070 C1071 1.399 . S
C1070 C1075 1.399 . S
C1071 C1070 1.399 . S
C1071 C1072 1.376 . S
C1072 H1059 0.930 . S
C1072 C1071 1.376 . S
C1072 C1073 1.388 . S
C1073 H1060 0.930 . S
C1073 C1072 1.388 . S
C1073 C1074 1.390 . S
C1074 C1073 1.390 . S
C1074 C1075 1.394 . S
C1074 C1080 1.465 . S
C1075 C1070 1.399 . S
C1075 C1074 1.394 . S
C1075 C1076 1.516 1_554 S
C1076 C1075 1.516 1_556 S
C1076 C1077 1.502 . S
C1076 C1078 1.561 . S
C1076 C1079 1.526 1_556 S
C1077 H1061 0.959 . S
C1077 H1062 0.959 . S
C1077 H1063 0.961 . S
C1077 C1076 1.502 . S
C1078 H1064 0.960 . S
C1078 H1065 0.961 . S
C1078 H1066 0.959 . S
C1078 C1076 1.561 . S
C1079 C1076 1.526 1_554 S
C1079 C1080 1.396 . S
C1079 C1084 1.390 1_554 S
C1080 C1074 1.465 . S
C1080 C1079 1.396 . S
C1080 C1081 1.399 . S
C1081 H1067 0.929 . S
C1081 C1080 1.399 . S
C1081 C1082 1.385 . S
C1082 H1068 0.931 . S
C1082 C1081 1.385 . S
C1082 C1083 1.389 . S
C1083 C1082 1.389 . S
C1083 C1084 1.387 1_554 S
C1084 H1069 0.930 . S
C1084 C1079 1.390 1_556 S
C1084 C1083 1.387 1_556 S
H1085 C1097 0.930 . S
H1086 C1099 0.930 . S
H1087 C1100 0.930 . S
H1088 C1104 0.959 . S
H1089 C1104 0.959 . S
H1090 C1104 0.961 . S
H1091 C1105 0.960 . S
H1092 C1105 0.961 . S
H1093 C1105 0.959 . S
H1094 C1108 0.929 . S
H1095 C1109 0.931 . S
H1096 C1111 0.930 . S
C1097 H1085 0.930 . S
C1097 C1098 1.399 . S
C1097 C1102 1.399 . S
C1098 C1097 1.399 . S
C1098 C1099 1.376 . S
C1099 H1086 0.930 . S
C1099 C1098 1.376 . S
C1099 C1100 1.388 . S
C1100 H1087 0.930 . S
C1100 C1099 1.388 . S
C1100 C1101 1.390 . S
C1101 C1100 1.390 . S
C1101 C1102 1.394 . S
C1101 C1107 1.465 . S
C1102 C1097 1.399 . S
C1102 C1101 1.394 . S
C1102 C1103 1.516 . S
C1103 C1102 1.516 . S
C1103 C1104 1.502 . S
C1103 C1105 1.561 . S
C1103 C1106 1.526 . S
C1104 H1088 0.959 . S
C1104 H1089 0.959 . S
C1104 H1090 0.961 . S
C1104 C1103 1.502 . S
C1105 H1091 0.960 . S
C1105 H1092 0.961 . S
C1105 H1093 0.959 . S
C1105 C1103 1.561 . S
C1106 C1103 1.526 . S
C1106 C1107 1.396 . S
C1106 C1111 1.390 . S
C1107 C1101 1.465 . S
C1107 C1106 1.396 . S
C1107 C1108 1.399 . S
C1108 H1094 0.929 . S
C1108 C1107 1.399 . S
C1108 C1109 1.385 . S
C1109 H1095 0.931 . S
C1109 C1108 1.385 . S
C1109 C1110 1.389 . S
C1110 C1109 1.389 . S
C1110 C1111 1.387 . S
C1111 H1096 0.930 . S
C1111 C1106 1.390 . S
C1111 C1110 1.387 . S
H1112 C1124 0.930 . S
H1113 C1126 0.914 1_554 S
H1114 C1127 0.930 . S
H1115 C1131 0.959 . S
H1116 C1131 0.959 . S
H1117 C1131 0.961 . S
H1118 C1132 0.960 . S
H1119 C1132 0.961 . S
H1120 C1132 0.961 1_455 S
H1121 C1135 0.927 1_455 S
H1122 C1136 0.931 . S
H1123 C1138 0.930 . S
C1124 H1112 0.930 . S
C1124 C1125 1.399 . S
C1124 C1129 1.399 . S
C1125 C1124 1.399 . S
C1125 C1126 1.401 . S
C1126 H1113 0.914 1_556 S
C1126 C1125 1.401 . S
C1126 C1127 1.381 1_556 S
C1127 H1114 0.930 . S
C1127 C1126 1.381 1_554 S
C1127 C1128 1.390 1_554 S
C1128 C1127 1.390 1_556 S
C1128 C1129 1.394 . S
C1128 C1134 1.465 . S
C1129 C1124 1.399 . S
C1129 C1128 1.394 . S
C1129 C1130 1.516 . S
C1130 C1129 1.516 . S
C1130 C1131 1.502 . S
C1130 C1132 1.561 . S
C1130 C1133 1.526 . S
C1131 H1115 0.959 . S
C1131 H1116 0.959 . S
C1131 H1117 0.961 . S
C1131 C1130 1.502 . S
C1132 H1118 0.960 . S
C1132 H1119 0.961 . S
C1132 H1120 0.961 1_655 S
C1132 C1130 1.561 . S
C1133 C1130 1.526 . S
C1133 C1134 1.396 . S
C1133 C1138 1.390 . S
C1134 C1128 1.465 . S
C1134 C1133 1.396 . S
C1134 C1135 1.399 1_556 S
C1135 H1121 0.927 1_655 S
C1135 C1134 1.399 1_554 S
C1135 C1136 1.385 . S
C1136 H1122 0.931 . S
C1136 C1135 1.385 . S
C1136 C1137 1.389 1_554 S
C1137 C1136 1.389 1_556 S
C1137 C1138 1.387 . S
C1138 H1123 0.930 . S
C1138 C1133 1.390 . S
C1138 C1137 1.387 . S
H1139 C1151 0.930 . S
H1140 C1153 0.930 . S
H1141 C1154 0.930 . S
H1142 C1158 0.959 1_554 S
H1143 C1158 0.959 . S
H1144 C1158 0.961 . S
H1145 C1159 0.960 . S
H1146 C1159 0.961 . S
H1147 C1159 0.959 1_554 S
H1148 C1162 0.929 . S
H1149 C1163 0.931 . S
H1150 C1165 0.930 . S
C1151 H1139 0.930 . S
C1151 C1152 1.399 . S
C1151 C1156 1.399 . S
C1152 C1151 1.399 . S
C1152 C1153 1.376 . S
C1153 H1140 0.930 . S
C1153 C1152 1.376 . S
C1153 C1154 1.388 . S
C1154 H1141 0.930 . S
C1154 C1153 1.388 . S
C1154 C1155 1.390 . S
C1155 C1154 1.390 . S
C1155 C1156 1.394 . S
C1155 C1161 1.465 . S
C1156 C1151 1.399 . S
C1156 C1155 1.394 . S
C1156 C1157 1.516 . S
C1157 C1156 1.516 . S
C1157 C1158 1.502 1_554 S
C1157 C1159 1.561 1_554 S
C1157 C1160 1.526 . S
C1158 H1142 0.959 1_556 S
C1158 H1143 0.959 . S
C1158 H1144 0.961 . S
C1158 C1157 1.502 1_556 S
C1159 H1145 0.960 . S
C1159 H1146 0.961 . S
C1159 H1147 0.959 1_556 S
C1159 C1157 1.561 1_556 S
C1160 C1157 1.526 . S
C1160 C1161 1.396 . S
C1160 C1165 1.390 . S
C1161 C1155 1.465 . S
C1161 C1160 1.396 . S
C1161 C1162 1.399 . S
C1162 H1148 0.929 . S
C1162 C1161 1.399 . S
C1162 C1163 1.385 . S
C1163 H1149 0.931 . S
C1163 C1162 1.385 . S
C1163 C1164 1.389 . S
C1164 C1163 1.389 . S
C1164 C1165 1.387 . S
C1165 H1150 0.930 . S
C1165 C1160 1.390 . S
C1165 C1164 1.387 . S
H1166 C1178 0.930 . S
H1167 C1180 0.930 . S
H1168 C1181 0.930 . S
H1169 C1185 0.959 . S
H1170 C1185 0.959 . S
H1171 C1185 0.961 . S
H1172 C1186 0.960 . S
H1173 C1186 0.961 . S
H1174 C1186 0.959 . S
H1175 C1189 0.929 . S
H1176 C1190 0.931 . S
H1177 C1192 0.930 . S
C1178 H1166 0.930 . S
C1178 C1179 1.399 . S
C1178 C1183 1.399 . S
C1179 C1178 1.399 . S
C1179 C1180 1.376 . S
C1180 H1167 0.930 . S
C1180 C1179 1.376 . S
C1180 C1181 1.388 . S
C1181 H1168 0.930 . S
C1181 C1180 1.388 . S
C1181 C1182 1.390 . S
C1182 C1181 1.390 . S
C1182 C1183 1.394 . S
C1182 C1188 1.465 . S
C1183 C1178 1.399 . S
C1183 C1182 1.394 . S
C1183 C1184 1.516 . S
C1184 C1183 1.516 . S
C1184 C1185 1.502 . S
C1184 C1186 1.561 . S
C1184 C1187 1.526 . S
C1185 H1169 0.959 . S
C1185 H1170 0.959 . S
C1185 H1171 0.961 . S
C1185 C1184 1.502 . S
C1186 H1172 0.960 . S
C1186 H1173 0.961 . S
C1186 H1174 0.959 . S
C1186 C1184 1.561 . S
C1187 C1184 1.526 . S
C1187 C1188 1.396 . S
C1187 C1192 1.390 . S
C1188 C1182 1.465 . S
C1188 C1187 1.396 . S
C1188 C1189 1.399 . S
C1189 H1175 0.929 . S
C1189 C1188 1.399 . S
C1189 C1190 1.385 . S
C1190 H1176 0.931 . S
C1190 C1189 1.385 . S
C1190 C1191 1.389 . S
C1191 C1190 1.389 . S
C1191 C1192 1.387 . S
C1192 H1177 0.930 . S
C1192 C1187 1.390 . S
C1192 C1191 1.387 . S
H1193 C1205 0.930 . S
H1194 C1207 0.930 . S
H1195 C1208 0.930 . S
H1196 C1212 0.959 . S
H1197 C1212 0.959 . S
H1198 C1212 0.961 . S
H1199 C1213 0.960 . S
H1200 C1213 0.961 . S
H1201 C1213 0.959 . S
H1202 C1216 0.929 . S
H1203 C1217 0.931 . S
H1204 C1219 0.930 . S
C1205 H1193 0.930 . S
C1205 C1206 1.399 . S
C1205 C1210 1.399 . S
C1206 C1205 1.399 . S
C1206 C1207 1.376 . S
C1207 H1194 0.930 . S
C1207 C1206 1.376 . S
C1207 C1208 1.388 . S
C1208 H1195 0.930 . S
C1208 C1207 1.388 . S
C1208 C1209 1.390 . S
C1209 C1208 1.390 . S
C1209 C1210 1.394 . S
C1209 C1215 1.465 . S
C1210 C1205 1.399 . S
C1210 C1209 1.394 . S
C1210 C1211 1.516 . S
C1211 C1210 1.516 . S
C1211 C1212 1.502 . S
C1211 C1213 1.561 . S
C1211 C1214 1.526 . S
C1212 H1196 0.959 . S
C1212 H1197 0.959 . S
C1212 H1198 0.961 . S
C1212 C1211 1.502 . S
C1213 H1199 0.960 . S
C1213 H1200 0.961 . S
C1213 H1201 0.959 . S
C1213 C1211 1.561 . S
C1214 C1211 1.526 . S
C1214 C1215 1.396 . S
C1214 C1219 1.390 . S
C1215 C1209 1.465 . S
C1215 C1214 1.396 . S
C1215 C1216 1.399 . S
C1216 H1202 0.929 . S
C1216 C1215 1.399 . S
C1216 C1217 1.385 . S
C1217 H1203 0.931 . S
C1217 C1216 1.385 . S
C1217 C1218 1.389 . S
C1218 C1217 1.389 . S
C1218 C1219 1.387 . S
C1219 H1204 0.930 . S
C1219 C1214 1.390 . S
C1219 C1218 1.387 . S
C585 C1 1.594 . S
C597 C498 1.559 . S
C612 C80 1.588 . S
C624 C522 1.534 . S
C651 C542 1.449 . S
C639 C140 1.342 . S
C666 C211 1.434 . S
C678 C565 1.447 . S
C705 C524 1.680 . S
C693 C31 1.698 . S
C732 C500 1.623 . S
C720 C61 1.644 . S
C759 C568 1.616 . S
C747 C151 1.536 . S
C786 C545 1.533 . S
C774 C200 1.595 . S
C801 C20 1.402 . S
C813 C570 1.381 . S
C840 C519 1.648 . S
C828 C121 1.621 . S
C855 C181 1.610 . S
C867 C497 1.641 . S
C882 C91 1.376 . S
C894 C547 1.377 . S
C921 C501 1.713 . S
C909 C260 1.706 . S
C936 C320 1.602 . S
C948 C523 1.678 . S
C963 C361 1.774 . S
C975 C543 1.819 . S
C990 C451 1.714 . S
C1002 C566 1.826 . S
C1017 C271 1.591 . S
C1029 C521 1.601 . S
C1056 C499 1.623 . S
C1044 C301 1.497 . S
C1083 C569 1.486 . S
C1071 C380 1.546 . S
C1110 C546 1.564 . S
C1098 C440 1.495 . S
C1125 C241 1.941 . S
C1137 C567 1.884 . S
C1164 C520 1.628 . S
C1152 C391 1.568 . S
C1191 C496 1.600 . S
C1179 C421 1.579 . S
C1206 C331 1.789 . S
C1218 C544 1.888 . S
