# Generated by pormake.
# Topology rtl, (3,6)-cn, num edge types: 1
# Building blocks:
#     Node 0, Type 0, BuildingBlock: BELTOD_clean_linker_0, # of connection points: 3
#     Node 1, Type 0, BuildingBlock: BELTOD_clean_linker_0, # of connection points: 3
#     Node 2, Type 0, BuildingBlock: BELTOD_clean_linker_0, # of connection points: 3
#     Node 3, Type 0, BuildingBlock: BELTOD_clean_linker_0, # of connection points: 3
#     Node 4, Type 1, BuildingBlock: VOLQOD_clean_sbu_1, # of connection points: 6
#     Node 5, Type 1, BuildingBlock: VOLQOD_clean_sbu_1, # of connection points: 6
#     Edge 6, Type (0, 1), BuildingBlock: UVAHIK_clean_linker_0, # of connection points: 2
#     Edge 7, Type (0, 1), BuildingBlock: UVAHIK_clean_linker_0, # of connection points: 2
#     Edge 8, Type (0, 1), BuildingBlock: UVAHIK_clean_linker_0, # of connection points: 2
#     Edge 9, Type (0, 1), BuildingBlock: UVAHIK_clean_linker_0, # of connection points: 2
#     Edge 10, Type (0, 1), BuildingBlock: UVAHIK_clean_linker_0, # of connection points: 2
#     Edge 11, Type (0, 1), BuildingBlock: UVAHIK_clean_linker_0, # of connection points: 2
#     Edge 12, Type (0, 1), BuildingBlock: UVAHIK_clean_linker_0, # of connection points: 2
#     Edge 13, Type (0, 1), BuildingBlock: UVAHIK_clean_linker_0, # of connection points: 2
#     Edge 14, Type (0, 1), BuildingBlock: UVAHIK_clean_linker_0, # of connection points: 2
#     Edge 15, Type (0, 1), BuildingBlock: UVAHIK_clean_linker_0, # of connection points: 2
#     Edge 16, Type (0, 1), BuildingBlock: UVAHIK_clean_linker_0, # of connection points: 2
#     Edge 17, Type (0, 1), BuildingBlock: UVAHIK_clean_linker_0, # of connection points: 2
# Relax obj value: 0.074
# Max RMSD: 0.154
# Mean RMSD: 0.083
data_MOF--net-rtl--node1-VOLQOD_clean_sbu_1--node2-BELTOD_clean_linker_0--edge1-UVAHIK_clean_linker_0
_symmetry_space_group_name_H-M    P1
_symmetry_Int_Tables_number       1
_symmetry_cell_setting            triclinic
loop_
_symmetry_equiv_pos_as_xyz
'x, y, z'
_cell_length_a     52.106617
_cell_length_b     45.520702
_cell_length_c     33.462093
_cell_angle_alpha  89.253398
_cell_angle_beta   90.358167
_cell_angle_gamma 90.028044
loop_
_atom_site_label
_atom_site_type_symbol
_atom_site_fract_x
_atom_site_fract_y
_atom_site_fract_z
_atom_type_partial_charge
P0 P 0.15574 0.75856 0.02479 0.0
H1 H 0.1664 0.76161 0.11021 0.0
H2 H 0.13896 0.7723 0.16732 0.0
H3 H 0.07216 0.76906 0.09043 0.0
H4 H 0.09961 0.75804 0.03358 0.0
H5 H 0.18808 0.73648 0.96199 0.0
H6 H 0.21174 0.69071 0.95441 0.0
H7 H 0.17697 0.65631 0.06224 0.0
H8 H 0.15348 0.70241 0.06979 0.0
H9 H 0.13917 0.81742 0.0043 0.0
H10 H 0.13346 0.73134 0.95259 0.0
O11 O 0.18045 0.78099 0.03335 0.0
H12 H 0.11434 0.83811 0.94851 0.0
H13 H 0.10889 0.75208 0.89618 0.0
C14 C 0.13509 0.75983 0.06758 0.0
C15 C 0.1458 0.76259 0.10585 0.0
C16 C 0.1301 0.76853 0.13847 0.0
C17 C 0.10349 0.77189 0.13312 0.0
C18 C 0.09267 0.76697 0.09521 0.0
C19 C 0.10836 0.76072 0.06272 0.0
C20 C 0.16894 0.72276 0.01623 0.0
C21 C 0.1851 0.71882 0.98349 0.0
C22 C 0.19853 0.69257 0.97912 0.0
C23 C 0.19623 0.66984 0.00774 0.0
C24 C 0.17927 0.6735 0.03986 0.0
C25 C 0.16575 0.6998 0.0441 0.0
C26 C 0.13864 0.77304 0.98207 0.0
C27 C 0.13278 0.80304 0.98068 0.0
C28 C 0.11842 0.81477 0.94903 0.0
C29 C 0.10972 0.79667 0.91808 0.0
C30 C 0.11559 0.76653 0.9195 0.0
C31 C 0.1297 0.75471 0.9516 0.0
P32 P 0.64827 0.74886 0.49421 0.0
H33 H 0.66484 0.73192 0.41492 0.0
H34 H 0.64118 0.71847 0.35477 0.0
H35 H 0.57016 0.74348 0.41111 0.0
H36 H 0.59408 0.7566 0.47154 0.0
H37 H 0.68529 0.77181 0.55043 0.0
H38 H 0.71031 0.81699 0.55178 0.0
H39 H 0.66812 0.84982 0.44888 0.0
H40 H 0.6434 0.80409 0.44738 0.0
H41 H 0.62009 0.6959 0.5123 0.0
H42 H 0.63075 0.78078 0.56575 0.0
O43 O 0.67213 0.72442 0.49509 0.0
H44 H 0.59401 0.6802 0.56891 0.0
H45 H 0.60452 0.76519 0.62275 0.0
C46 C 0.63112 0.74447 0.4479 0.0
C47 C 0.64422 0.73489 0.41412 0.0
C48 C 0.63066 0.72741 0.37962 0.0
C49 C 0.60373 0.72958 0.37832 0.0
C50 C 0.59084 0.74107 0.41147 0.0
C51 C 0.60449 0.74864 0.44595 0.0
C52 C 0.66272 0.78453 0.49864 0.0
C53 C 0.68112 0.78897 0.52861 0.0
C54 C 0.69529 0.81495 0.52949 0.0
C55 C 0.69132 0.83704 0.5003 0.0
C56 C 0.67186 0.83309 0.47146 0.0
C57 C 0.65765 0.807 0.47066 0.0
C58 C 0.62748 0.73935 0.535 0.0
C59 C 0.61656 0.71126 0.5361 0.0
C60 C 0.60149 0.70241 0.56834 0.0
C61 C 0.59715 0.7215 0.60027 0.0
C62 C 0.6077 0.74996 0.59869 0.0
C63 C 0.62269 0.75888 0.56614 0.0
P64 P 0.91297 0.3416 0.99717 0.0
H65 H 0.95377 0.34387 0.93715 0.0
H66 H 0.9623 0.31432 0.87804 0.0
H67 H 0.89341 0.26411 0.9007 0.0
H68 H 0.88503 0.29361 0.95947 0.0
H69 H 0.8877 0.39574 0.97057 0.0
H70 H 0.84275 0.41104 0.96824 0.0
H71 H 0.82058 0.32767 0.02102 0.0
H72 H 0.86536 0.31226 0.02184 0.0
H73 H 0.95141 0.29568 0.01002 0.0
H74 H 0.89289 0.33822 0.07905 0.0
O75 O 0.93196 0.37111 -0.00179 0.0
H76 H 0.96143 0.26346 0.06659 0.0
H77 H 0.90145 0.30475 0.13488 0.0
C78 C 0.91847 0.32134 0.95222 0.0
C79 C 0.94035 0.32674 0.92909 0.0
C80 C 0.9453 0.30972 0.89551 0.0
C81 C 0.92842 0.28704 0.88459 0.0
C82 C 0.90651 0.28179 0.90789 0.0
C83 C 0.90169 0.29866 0.94155 0.0
C84 C 0.87993 0.35318 0.99731 0.0
C85 C 0.87315 0.38088 0.98189 0.0
C86 C 0.84744 0.38961 0.98069 0.0
C87 C 0.82802 0.37067 0.99471 0.0
C88 C 0.83496 0.34274 0.00964 0.0
C89 C 0.86063 0.334 0.01058 0.0
C90 C 0.92069 0.31856 0.03973 0.0
C91 C 0.94041 0.29778 0.03717 0.0
C92 C 0.94602 0.2792 0.06959 0.0
C93 C 0.93191 0.28093 0.10525 0.0
C94 C 0.91282 0.3027 0.10811 0.0
C95 C 0.90759 0.32163 0.07588 0.0
P96 P 0.41295 0.15858 0.50275 0.0
H97 H 0.45327 0.16042 0.56428 0.0
H98 H 0.46179 0.19425 0.6189 0.0
H99 H 0.39306 0.24275 0.58752 0.0
H100 H 0.3852 0.20936 0.5323 0.0
H101 H 0.38262 0.1306 0.44052 0.0
H102 H 0.33862 0.11207 0.43822 0.0
H103 H 0.32856 0.13661 0.56158 0.0
H104 H 0.3728 0.1536 0.56409 0.0
H105 H 0.45839 0.16836 0.45352 0.0
H106 H 0.38003 0.19859 0.45672 0.0
O107 O 0.43342 0.1304 0.50416 0.0
H108 H 0.46691 0.20156 0.39702 0.0
H109 H 0.3882 0.23139 0.39991 0.0
C110 C 0.41843 0.18219 0.54463 0.0
C111 C 0.43997 0.17822 0.56936 0.0
C112 C 0.44475 0.19754 0.60069 0.0
C113 C 0.42808 0.22123 0.60771 0.0
C114 C 0.40648 0.22502 0.58272 0.0
C115 C 0.40183 0.2058 0.55132 0.0
C116 C 0.38075 0.1442 0.5021 0.0
C117 C 0.3709 0.13189 0.46705 0.0
C118 C 0.34567 0.12148 0.46573 0.0
C119 C 0.32985 0.12313 0.49957 0.0
C120 C 0.34016 0.13475 0.53501 0.0
C121 C 0.36545 0.14489 0.53635 0.0
C122 C 0.41846 0.1806 0.45868 0.0
C123 C 0.44291 0.18175 0.44156 0.0
C124 C 0.44773 0.2007 0.40926 0.0
C125 C 0.42821 0.21907 0.39392 0.0
C126 C 0.4037 0.21773 0.41123 0.0
C127 C 0.39893 0.19877 0.44346 0.0
O128 O 0.9313 0.01969 0.50431 0.0
Zn129 Zn 0.964 0.04372 0.50395 0.0
O130 O 0.99439 0.01826 0.50518 0.0
Zn131 Zn 0.01601 0.02859 0.55063 0.0
Zn132 Zn 0.98399 0.97711 0.51088 0.0
Zn133 Zn 0.01378 0.02348 0.45564 0.0
O134 O 0.05151 0.03949 0.53305 0.0
O135 O 0.05028 0.03638 0.46692 0.0
O136 O 0.96369 0.07092 0.5511 0.0
O137 O 0.0012 0.06243 0.58086 0.0
O138 O 0.01963 0.99473 0.58926 0.0
O139 O 0.99675 0.95882 0.56252 0.0
O140 O 0.99753 0.95278 0.46581 0.0
O141 O 0.9637 0.06937 0.45424 0.0
O142 O 0.01545 0.9857 0.4251 0.0
O143 O 0.99739 0.05403 0.41989 0.0
C144 C 0.92715 0.99212 0.50653 0.0
C145 C 0.06243 0.04165 0.49922 0.0
C146 C 0.01099 0.96858 0.59041 0.0
C147 C 0.9801 0.07646 0.57836 0.0
C148 C 0.0089 0.95937 0.43334 0.0
C149 C 0.97792 0.07066 0.42343 0.0
O150 O 0.94558 0.97381 0.50931 0.0
O151 O 0.5572 0.48684 0.99796 0.0
Zn152 Zn 0.52409 0.50945 0.99773 0.0
O153 O 0.4944 0.48345 -0.00172 0.0
Zn154 Zn 0.47366 0.49093 0.95012 0.0
Zn155 Zn 0.50614 0.44259 -0.00116 0.0
Zn156 Zn 0.47413 0.49109 0.0463 0.0
O157 O 0.43763 0.50226 0.96487 0.0
O158 O 0.43799 0.50281 0.03124 0.0
O159 O 0.52373 0.53594 0.94959 0.0
O160 O 0.48844 0.52387 0.9162 0.0
O161 O 0.47147 0.45485 0.91604 0.0
O162 O 0.49289 0.42089 0.9508 0.0
O163 O 0.49399 0.42119 0.04827 0.0
O164 O 0.52431 0.53581 0.04497 0.0
O165 O 0.47207 0.45481 0.08134 0.0
O166 O 0.48947 0.52388 0.07929 0.0
C167 C 0.56249 0.45954 0.99784 0.0
C168 C 0.42626 0.50618 0.99797 0.0
C169 C 0.47972 0.42865 0.92026 0.0
C170 C 0.50852 0.53958 0.92006 0.0
C171 C 0.48076 0.42877 0.07831 0.0
C172 C 0.50956 0.53949 0.07461 0.0
O173 O 0.54482 0.4402 0.99795 0.0
C174 C 0.29114 0.09945 0.53102 0.0
C175 C 0.3026 0.11332 0.49781 0.0
C176 C 0.26526 0.09149 0.53002 0.0
C177 C 0.21175 0.07438 0.46275 0.0
H178 H 0.16932 0.09647 0.55225 0.0
C179 C 0.10146 0.0585 0.4616 0.0
C180 C 0.08988 0.05001 0.49777 0.0
C181 C 0.1274 0.06647 0.46066 0.0
C182 C 0.18092 0.08973 0.52725 0.0
H183 H 0.29564 0.12945 0.43735 0.0
H184 H 0.25061 0.11481 0.43539 0.0
H185 H 0.21477 0.10887 0.55248 0.0
H186 H 0.09662 0.04268 0.56119 0.0
H187 H 0.14177 0.05569 0.55938 0.0
H188 H 0.17809 0.05465 0.43784 0.0
C189 C 0.26179 0.11014 0.46213 0.0
C190 C 0.20696 0.09694 0.52738 0.0
C191 C 0.28762 0.11841 0.46326 0.0
C192 C 0.10484 0.0494 0.53286 0.0
C193 C 0.13077 0.05706 0.53186 0.0
C194 C 0.18572 0.06685 0.4628 0.0
C195 C 0.2503 0.0969 0.49566 0.0
C196 C 0.22264 0.08928 0.4952 0.0
C197 C 0.14238 0.06587 0.49581 0.0
C198 C 0.16998 0.07435 0.49514 0.0
H199 H 0.30217 0.09461 0.55783 0.0
H200 H 0.25696 0.08091 0.5561 0.0
H201 H 0.22348 0.06802 0.43769 0.0
H202 H 0.09044 0.05931 0.43406 0.0
H203 H 0.13558 0.07351 0.43245 0.0
C204 C 0.22625 0.63382 0.04055 0.0
C205 C 0.21341 0.64389 0.00593 0.0
C206 C 0.24549 0.61259 0.03805 0.0
C207 C 0.29307 0.58728 0.9666 0.0
H208 H 0.30834 0.52893 0.04878 0.0
C209 C 0.38532 0.51818 0.96149 0.0
C210 C 0.39907 0.5157 0.99767 0.0
C211 C 0.36017 0.52879 0.96094 0.0
C212 C 0.30436 0.5452 0.02567 0.0
H213 H 0.20931 0.63795 0.94203 0.0
H214 H 0.24292 0.60079 0.93767 0.0
H215 H 0.26777 0.55577 0.05055 0.0
H216 H 0.39681 0.52162 0.06182 0.0
H217 H 0.35316 0.54061 0.06072 0.0
H218 H 0.32989 0.57757 0.94241 0.0
C219 C 0.23842 0.60974 0.96663 0.0
C220 C 0.28112 0.56051 0.02664 0.0
C221 C 0.21917 0.63099 0.96912 0.0
C222 C 0.38681 0.52326 0.03341 0.0
C223 C 0.36168 0.53395 0.03282 0.0
C224 C 0.31628 0.57205 0.96566 0.0
C225 C 0.25232 0.60096 0.00089 0.0
C226 C 0.27542 0.58209 0.99749 0.0
C227 C 0.34819 0.53724 0.99651 0.0
C228 C 0.32242 0.5512 0.99556 0.0
H229 H 0.2225 0.64356 0.06929 0.0
H230 H 0.256 0.60656 0.06495 0.0
H231 H 0.2895 0.60412 0.94408 0.0
H232 H 0.39407 0.5123 0.93344 0.0
H233 H 0.35017 0.53063 0.93254 0.0
C234 C 0.71914 0.8714 0.46054 0.0
C235 C 0.70929 0.86237 0.49774 0.0
C236 C 0.73941 0.89144 0.45845 0.0
C237 C 0.79466 0.91022 0.46685 0.0
H238 H 0.80672 0.97462 0.53938 0.0
C239 C 0.89597 0.95041 0.50349 0.0
C240 C 0.90048 0.98083 0.50473 0.0
C241 C 0.87104 0.93949 0.50042 0.0
C242 C 0.80351 0.95691 0.51862 0.0
H243 H 0.71152 0.8693 0.56167 0.0
H244 H 0.74729 0.90372 0.5581 0.0
H245 H 0.76437 0.95136 0.53674 0.0
H246 H 0.88214 0.02365 0.50439 0.0
H247 H 0.8384 0.00439 0.49916 0.0
H248 H 0.83374 0.91542 0.44906 0.0
C249 C 0.7393 0.89543 0.5305 0.0
C250 C 0.77935 0.94346 0.51733 0.0
C251 C 0.71897 0.87543 0.53259 0.0
C252 C 0.87935 9e-05 0.50344 0.0
C253 C 0.85431 0.9891 0.50059 0.0
C254 C 0.81874 0.92356 0.46825 0.0
C255 C 0.75034 0.90285 0.4935 0.0
C256 C 0.7748 0.91963 0.49188 0.0
C257 C 0.84994 0.95868 0.49864 0.0
C258 C 0.8236 0.94663 0.49472 0.0
H259 H 0.71227 0.86171 0.43309 0.0
H260 H 0.7472 0.89711 0.42942 0.0
H261 H 0.79197 0.89171 0.44726 0.0
H262 H 0.91171 0.93489 0.50455 0.0
H263 H 0.86827 0.91592 0.49971 0.0
C264 C 0.79375 0.40893 0.00305 0.0
C265 C 0.80066 0.37995 0.99379 0.0
C266 C 0.768 0.4175 0.00274 0.0
C267 C 0.70267 0.38807 0.01182 0.0
H268 H 0.68234 0.46201 0.96227 0.0
C269 C 0.59626 0.42062 0.99148 0.0
C270 C 0.58971 0.4502 0.99737 0.0
C271 C 0.62197 0.41195 0.99061 0.0
C272 C 0.68772 0.44147 0.97671 0.0
H273 H 0.78583 0.33746 0.97605 0.0
H274 H 0.7409 0.35237 0.97615 0.0
H275 H 0.72731 0.44724 0.96165 0.0
H276 H 0.60514 0.49381 0.00746 0.0
H277 H 0.64987 0.47859 0.00681 0.0
H278 H 0.66323 0.38242 0.02744 0.0
C279 C 0.75544 0.36833 0.98402 0.0
C280 C 0.71348 0.433 0.97625 0.0
C281 C 0.78119 0.3598 0.98406 0.0
C282 C 0.60948 0.47087 0.0026 0.0
C283 C 0.63517 0.46216 0.00199 0.0
C284 C 0.67693 0.39662 0.01253 0.0
C285 C 0.74858 0.39725 0.99342 0.0
C286 C 0.72122 0.40621 0.99378 0.0
C287 C 0.64175 0.43262 0.99586 0.0
C288 C 0.66913 0.42343 0.99497 0.0
H289 H 0.80819 0.4249 0.01128 0.0
H290 H 0.76325 0.43986 0.01059 0.0
H291 H 0.70814 0.36748 0.02605 0.0
H292 H 0.58153 0.40416 0.98713 0.0
H293 H 0.62634 0.38909 0.98525 0.0
C294 C 0.07193 0.80846 0.1577 0.0
C295 C 0.08769 0.78405 0.1656 0.0
C296 C 0.05957 0.82274 0.18875 0.0
C297 C 0.06504 0.83317 0.298 0.0
H298 H 0.00236 0.87753 0.28028 0.0
C299 C 0.01727 0.9066 0.41752 0.0
C300 C 0.01466 0.93597 0.40457 0.0
C301 C 0.02348 0.88467 0.39035 0.0
C302 C 0.01981 0.8651 0.28562 0.0
H303 H 0.10188 0.75446 0.21182 0.0
H304 H 0.07946 0.77872 0.26621 0.0
H305 H 0.01686 0.84333 0.22963 0.0
H306 H 0.0158 0.96529 0.353 0.0
H307 H 0.02597 0.92677 0.30541 0.0
H308 H 0.06763 0.85495 0.35433 0.0
C309 C 0.07724 0.78742 0.23613 0.0
C310 C 0.02824 0.84566 0.25657 0.0
C311 C 0.08995 0.77337 0.20501 0.0
C312 C 0.01782 0.94288 0.36386 0.0
C313 C 0.02346 0.92087 0.33662 0.0
C314 C 0.05629 0.85221 0.32737 0.0
C315 C 0.06237 0.81275 0.22852 0.0
C316 C 0.0514 0.83008 0.26181 0.0
C317 C 0.02656 0.89165 0.34969 0.0
C318 C 0.03399 0.86889 0.32093 0.0
H319 H 0.0702 0.81749 0.12768 0.0
H320 H 0.0488 0.84247 0.1816 0.0
H321 H 0.08311 0.82196 0.30302 0.0
H322 H 0.01502 0.90067 0.44876 0.0
H323 H 0.02581 0.86225 0.40102 0.0
C324 C 0.59318 0.71578 0.67452 0.0
C325 C 0.58324 0.71071 0.6361 0.0
C326 C 0.5824 0.70191 0.7079 0.0
C327 C 0.52612 0.65959 0.74416 0.0
H328 H 0.57672 0.62081 0.8119 0.0
C329 C 0.50112 0.56415 0.85329 0.0
C330 C 0.51454 0.56256 0.88982 0.0
C331 C 0.5077 0.58525 0.82434 0.0
C332 C 0.56228 0.63186 0.7938 0.0
H333 H 0.55307 0.68889 0.60283 0.0
H334 H 0.53443 0.6644 0.66106 0.0
H335 H 0.59077 0.65372 0.75872 0.0
H336 H 0.5447 0.58268 0.92522 0.0
H337 H 0.55579 0.61962 0.87523 0.0
H338 H 0.49762 0.6373 0.77909 0.0
C339 C 0.55052 0.6791 0.66542 0.0
C340 C 0.57036 0.65078 0.76328 0.0
C341 C 0.56135 0.6929 0.63203 0.0
C342 C 0.53417 0.58301 0.8972 0.0
C343 C 0.54061 0.60417 0.86845 0.0
C344 C 0.518 0.6407 0.77488 0.0
C345 C 0.56141 0.68277 0.70355 0.0
C346 C 0.55241 0.66467 0.7379 0.0
C347 C 0.52774 0.60529 0.83144 0.0
C348 C 0.53602 0.62642 0.79985 0.0
H349 H 0.61011 0.72926 0.67861 0.0
H350 H 0.59098 0.70547 0.737 0.0
H351 H 0.51184 0.67017 0.72523 0.0
H352 H 0.48589 0.54872 0.84668 0.0
H353 H 0.49757 0.5853 0.79599 0.0
C354 C 0.94346 0.23045 0.13104 0.0
C355 C 0.93668 0.25973 0.13882 0.0
C356 C 0.94755 0.21036 0.16231 0.0
C357 C 0.95913 0.20572 0.2723 0.0
H358 H 0.94057 0.12411 0.25674 0.0
C359 C 0.95746 0.11744 0.39911 0.0
C360 C 0.97196 0.09216 0.39121 0.0
C361 C 0.95258 0.13819 0.36883 0.0
C362 C 0.94588 0.14684 0.26138 0.0
H363 H 0.92924 0.29071 0.18617 0.0
H364 H 0.93489 0.25535 0.24044 0.0
H365 H 0.93271 0.15992 0.20331 0.0
H366 H 0.99225 0.06848 0.34528 0.0
H367 H 0.98308 0.10439 0.29216 0.0
H368 H 0.97152 0.19242 0.33105 0.0
C369 C 0.93773 0.24805 0.21013 0.0
C370 C 0.94157 0.16738 0.23071 0.0
C371 C 0.93406 0.2683 0.17884 0.0
C372 C 0.9811 0.08779 0.35231 0.0
C373 C 0.97578 0.10823 0.32189 0.0
C374 C 0.96298 0.18523 0.30324 0.0
C375 C 0.94452 0.21878 0.2023 0.0
C376 C 0.94839 0.19707 0.23555 0.0
C377 C 0.96165 0.13369 0.32997 0.0
C378 C 0.95662 0.15559 0.29787 0.0
H379 H 0.94527 0.22278 0.1007 0.0
H380 H 0.95322 0.18821 0.15496 0.0
H381 H 0.96505 0.22821 0.27703 0.0
H382 H 0.95026 0.12145 0.42885 0.0
H383 H 0.94154 0.15763 0.37566 0.0
C384 C 0.42883 0.27238 0.63501 0.0
C385 C 0.43333 0.24213 0.64057 0.0
C386 C 0.43357 0.29205 0.66587 0.0
C387 C 0.47078 0.30103 0.75851 0.0
H388 H 0.42103 0.362 0.7803 0.0
C389 C 0.48047 0.37709 0.89462 0.0
C390 C 0.47402 0.40685 0.88891 0.0
C391 C 0.4752 0.35659 0.86494 0.0
C392 C 0.43527 0.34534 0.77431 0.0
H393 H 0.4462 0.20889 0.68323 0.0
H394 H 0.4548 0.24336 0.73695 0.0
H395 H 0.41259 0.32706 0.72722 0.0
H396 H 0.4571 0.43838 0.84728 0.0
H397 H 0.44839 0.40278 0.79532 0.0
H398 H 0.49366 0.31949 0.80517 0.0
C399 C 0.44775 0.2518 0.70853 0.0
C400 C 0.4304 0.32529 0.74394 0.0
C401 C 0.44287 0.23208 0.67771 0.0
C402 C 0.4622 0.41562 0.8528 0.0
C403 C 0.45706 0.39515 0.82306 0.0
C404 C 0.47573 0.32119 0.78875 0.0
C405 C 0.44307 0.28198 0.70296 0.0
C406 C 0.44812 0.30297 0.73565 0.0
C407 C 0.46348 0.36538 0.82875 0.0
C408 C 0.45807 0.34364 0.79696 0.0
H409 H 0.42197 0.28097 0.60657 0.0
H410 H 0.43016 0.31524 0.66049 0.0
H411 H 0.48494 0.28427 0.75247 0.0
H412 H 0.48948 0.36954 0.92214 0.0
H413 H 0.48006 0.33378 0.87057 0.0
C414 C 0.5676 0.69943 0.35081 0.0
C415 C 0.58924 0.71726 0.34406 0.0
C416 C 0.55622 0.68411 0.31941 0.0
C417 C 0.57419 0.65222 0.224 0.0
H418 H 0.50121 0.63807 0.21132 0.0
C419 C 0.53565 0.58288 0.09515 0.0
C420 C 0.51611 0.56251 0.10384 0.0
C421 C 0.54262 0.60414 0.1228 0.0
C422 C 0.52165 0.64163 0.21473 0.0
H423 H 0.61471 0.73469 0.29857 0.0
H424 H 0.59485 0.70792 0.24372 0.0
H425 H 0.51634 0.67236 0.26201 0.0
H426 H 0.48821 0.54893 0.14823 0.0
H427 H 0.50083 0.58577 0.19707 0.0
H428 H 0.57972 0.62111 0.17768 0.0
C429 C 0.587 0.70538 0.27346 0.0
C430 C 0.5303 0.66132 0.24363 0.0
C431 C 0.59835 0.72072 0.30484 0.0
C432 C 0.50335 0.56429 0.14062 0.0
C433 C 0.51048 0.58552 0.1685 0.0
C434 C 0.56559 0.63251 0.19532 0.0
C435 C 0.56628 0.68626 0.28062 0.0
C436 C 0.55668 0.66677 0.2486 0.0
C437 C 0.53042 0.60547 0.16005 0.0
C438 C 0.53924 0.62691 0.19033 0.0
H439 H 0.56028 0.69601 0.38073 0.0
H440 H 0.54043 0.66937 0.32595 0.0
H441 H 0.59467 0.6554 0.22768 0.0
H442 H 0.54568 0.58244 0.0669 0.0
H443 H 0.55768 0.61954 0.11495 0.0
C444 C 0.95875 0.25711 0.84385 0.0
C445 C 0.93394 0.26822 0.84981 0.0
C446 C 0.96361 0.238 0.81244 0.0
C447 C 0.93053 0.18643 0.74498 0.0
H448 H 0.99467 0.1895 0.68694 0.0
C449 C 0.95047 0.11344 0.60856 0.0
C450 C 0.97462 0.09967 0.60775 0.0
C451 C 0.9453 0.13511 0.6366 0.0
C452 C 0.97674 0.18827 0.70308 0.0
H453 H 0.89499 0.26892 0.82671 0.0
H454 H 0.90351 0.23589 0.77155 0.0
H455 H 0.98603 0.22589 0.73802 0.0
H456 H 0.01234 0.09816 0.63566 0.0
H457 H 0.00326 0.13593 0.68449 0.0
H458 H 0.92127 0.14882 0.70996 0.0
C459 C 0.9191 0.24138 0.79166 0.0
C460 C 0.9718 0.20908 0.73239 0.0
C461 C 0.91422 0.26036 0.82318 0.0
C462 C 0.99353 0.10827 0.63542 0.0
C463 C 0.9884 0.13006 0.66326 0.0
C464 C 0.93542 0.16573 0.71554 0.0
C465 C 0.94379 0.2297 0.78616 0.0
C466 C 0.9487 0.20829 0.7539 0.0
C467 C 0.96421 0.14365 0.66425 0.0
C468 C 0.95866 0.16629 0.69448 0.0
H469 H 0.97425 0.26248 0.8642 0.0
H470 H 0.98276 0.22909 0.80947 0.0
H471 H 0.91273 0.18485 0.76141 0.0
H472 H 0.93547 0.10739 0.58767 0.0
H473 H 0.92656 0.14539 0.63643 0.0
C474 C 0.44855 0.23181 0.32802 0.0
C475 C 0.43353 0.24013 0.36072 0.0
C476 C 0.4536 0.25177 0.29695 0.0
C477 C 0.42977 0.32082 0.25073 0.0
H478 H 0.49802 0.32518 0.2055 0.0
C479 C 0.46046 0.41449 0.14354 0.0
C480 C 0.47535 0.40687 0.11034 0.0
C481 C 0.45532 0.39382 0.17368 0.0
C482 C 0.47879 0.324 0.2175 0.0
H483 H 0.41247 0.27615 0.38682 0.0
H484 H 0.42127 0.31093 0.33271 0.0
H485 H 0.48908 0.28957 0.25871 0.0
H486 H 0.4965 0.37143 0.08288 0.0
H487 H 0.48736 0.33538 0.13534 0.0
H488 H 0.41949 0.35532 0.20964 0.0
C489 C 0.42877 0.28882 0.33068 0.0
C490 C 0.47366 0.30359 0.24798 0.0
C491 C 0.42372 0.26888 0.3617 0.0
C492 C 0.48501 0.37809 0.10805 0.0
C493 C 0.4799 0.35745 0.13823 0.0
C494 C 0.43489 0.34124 0.22029 0.0
C495 C 0.44374 0.28051 0.29792 0.0
C496 C 0.44911 0.30183 0.26503 0.0
C497 C 0.46497 0.36507 0.17136 0.0
C498 C 0.45948 0.34312 0.20341 0.0
H499 H 0.45613 0.20972 0.32616 0.0
H500 H 0.46492 0.24456 0.27188 0.0
H501 H 0.41054 0.3197 0.26276 0.0
H502 H 0.45277 0.43646 0.14637 0.0
H503 H 0.44404 0.40049 0.19907 0.0
C504 C 0.07457 0.82901 0.89171 0.0
C505 C 0.09486 0.80957 0.88435 0.0
C506 C 0.06209 0.84345 0.86012 0.0
C507 C 0.05333 0.887 0.79301 0.0
H508 H 0.04251 0.85288 0.68869 0.0
C509 C 0.0358 0.95874 0.65342 0.0
C510 C 0.0181 0.94913 0.62455 0.0
C511 C 0.04297 0.94043 0.68531 0.0
C512 C 0.04511 0.86266 0.71777 0.0
H513 H 0.11748 0.78919 0.83826 0.0
H514 H 0.09609 0.81494 0.78293 0.0
H515 H 0.05763 0.82194 0.7441 0.0
H516 H 0.9939 0.91267 0.60679 0.0
H517 H 0.00615 0.88082 0.663 0.0
H518 H 0.0405 0.92755 0.76704 0.0
C519 C 0.08946 0.81866 0.81304 0.0
C520 C 0.05407 0.84499 0.74941 0.0
C521 C 0.10178 0.80396 0.8447 0.0
C522 C 0.00764 0.92075 0.62845 0.0
C523 C 0.01476 0.90243 0.66054 0.0
C524 C 0.04428 0.90457 0.76151 0.0
C525 C 0.0698 0.83904 0.82045 0.0
C526 C 0.05858 0.85705 0.78731 0.0
C527 C 0.03251 0.91208 0.68934 0.0
C528 C 0.04044 0.89275 0.72336 0.0
H529 H 0.06859 0.83333 0.92202 0.0
H530 H 0.04663 0.85845 0.86687 0.0
H531 H 0.05688 0.89718 0.82158 0.0
H532 H 0.0444 0.98037 0.65125 0.0
H533 H 0.05706 0.94839 0.7065 0.0
loop_
_geom_bond_atom_site_label_1
_geom_bond_atom_site_label_2
_geom_bond_distance
_geom_bond_site_symmetry_2
_ccdc_geom_bond_type
P0 O11 1.490 . S
P0 C14 1.812 . S
P0 C20 1.803 . S
P0 C26 1.819 1_554 S
H1 C15 0.941 . S
H2 C16 0.939 . S
H3 C18 0.940 . S
H4 C19 0.940 . S
H5 C21 0.939 . S
H6 C22 0.942 . S
H7 C24 0.940 . S
H8 C25 0.939 . S
H9 C27 0.941 . S
H10 C31 0.939 . S
O11 P0 1.490 . S
H12 C28 0.939 . S
H13 C30 0.940 . S
C14 P0 1.812 . S
C14 C15 1.389 . S
C14 C19 1.391 . S
C15 H1 0.941 . S
C15 C14 1.389 . S
C15 C16 1.397 . S
C16 H2 0.939 . S
C16 C15 1.397 . S
C16 C17 1.378 . S
C17 C16 1.378 . S
C17 C18 1.378 . S
C18 H3 0.940 . S
C18 C17 1.378 . S
C18 C19 1.396 . S
C19 H4 0.940 . S
C19 C14 1.391 . S
C19 C18 1.396 . S
C20 P0 1.803 . S
C20 C21 1.378 1_554 S
C20 C25 1.400 . S
C21 H5 0.939 . S
C21 C20 1.378 1_556 S
C21 C22 1.361 . S
C22 H6 0.942 . S
C22 C21 1.361 . S
C22 C23 1.369 1_556 S
C23 C22 1.369 1_554 S
C23 C24 1.404 . S
C24 H7 0.940 . S
C24 C23 1.404 . S
C24 C25 1.389 . S
C25 H8 0.939 . S
C25 C20 1.400 . S
C25 C24 1.389 . S
C26 P0 1.819 1_556 S
C26 C27 1.391 . S
C26 C31 1.391 . S
C27 H9 0.941 . S
C27 C26 1.391 . S
C27 C28 1.396 . S
C28 H12 0.939 . S
C28 C27 1.396 . S
C28 C29 1.397 . S
C29 C28 1.397 . S
C29 C30 1.385 . S
C30 H13 0.940 . S
C30 C29 1.385 . S
C30 C31 1.388 . S
C31 H10 0.939 . S
C31 C26 1.391 . S
C31 C30 1.388 . S
P32 O43 1.490 . S
P32 C46 1.812 . S
P32 C52 1.803 . S
P32 C58 1.819 . S
H33 C47 0.941 . S
H34 C48 0.939 . S
H35 C50 0.940 . S
H36 C51 0.940 . S
H37 C53 0.939 . S
H38 C54 0.942 . S
H39 C56 0.940 . S
H40 C57 0.939 . S
H41 C59 0.941 . S
H42 C63 0.939 . S
O43 P32 1.490 . S
H44 C60 0.939 . S
H45 C62 0.940 . S
C46 P32 1.812 . S
C46 C47 1.389 . S
C46 C51 1.391 . S
C47 H33 0.941 . S
C47 C46 1.389 . S
C47 C48 1.397 . S
C48 H34 0.939 . S
C48 C47 1.397 . S
C48 C49 1.378 . S
C49 C48 1.378 . S
C49 C50 1.378 . S
C50 H35 0.940 . S
C50 C49 1.378 . S
C50 C51 1.396 . S
C51 H36 0.940 . S
C51 C46 1.391 . S
C51 C50 1.396 . S
C52 P32 1.803 . S
C52 C53 1.378 . S
C52 C57 1.400 . S
C53 H37 0.939 . S
C53 C52 1.378 . S
C53 C54 1.361 . S
C54 H38 0.942 . S
C54 C53 1.361 . S
C54 C55 1.369 . S
C55 C54 1.369 . S
C55 C56 1.404 . S
C56 H39 0.940 . S
C56 C55 1.404 . S
C56 C57 1.389 . S
C57 H40 0.939 . S
C57 C52 1.400 . S
C57 C56 1.389 . S
C58 P32 1.819 . S
C58 C59 1.391 . S
C58 C63 1.391 . S
C59 H41 0.941 . S
C59 C58 1.391 . S
C59 C60 1.396 . S
C60 H44 0.939 . S
C60 C59 1.396 . S
C60 C61 1.397 . S
C61 C60 1.397 . S
C61 C62 1.385 . S
C62 H45 0.940 . S
C62 C61 1.385 . S
C62 C63 1.388 . S
C63 H42 0.939 . S
C63 C58 1.391 . S
C63 C62 1.388 . S
P64 O75 1.490 . S
P64 C78 1.812 . S
P64 C84 1.803 . S
P64 C90 1.819 1_556 S
H65 C79 0.941 . S
H66 C80 0.939 . S
H67 C82 0.940 . S
H68 C83 0.940 . S
H69 C85 0.939 . S
H70 C86 0.942 . S
H71 C88 0.940 . S
H72 C89 0.939 . S
H73 C91 0.941 . S
H74 C95 0.939 . S
O75 P64 1.490 . S
H76 C92 0.939 . S
H77 C94 0.940 . S
C78 P64 1.812 . S
C78 C79 1.389 . S
C78 C83 1.391 . S
C79 H65 0.941 . S
C79 C78 1.389 . S
C79 C80 1.397 . S
C80 H66 0.939 . S
C80 C79 1.397 . S
C80 C81 1.378 . S
C81 C80 1.378 . S
C81 C82 1.378 . S
C82 H67 0.940 . S
C82 C81 1.378 . S
C82 C83 1.396 . S
C83 H68 0.940 . S
C83 C78 1.391 . S
C83 C82 1.396 . S
C84 P64 1.803 . S
C84 C85 1.378 1_556 S
C84 C89 1.400 . S
C85 H69 0.939 . S
C85 C84 1.378 1_554 S
C85 C86 1.361 . S
C86 H70 0.942 . S
C86 C85 1.361 . S
C86 C87 1.379 . S
C87 C86 1.379 . S
C87 C88 1.394 1_554 S
C88 H71 0.940 . S
C88 C87 1.394 1_556 S
C88 C89 1.389 . S
C89 H72 0.939 . S
C89 C84 1.400 . S
C89 C88 1.389 . S
C90 P64 1.819 1_554 S
C90 C91 1.391 . S
C90 C95 1.391 . S
C91 H73 0.941 . S
C91 C90 1.391 . S
C91 C92 1.396 . S
C92 H76 0.939 . S
C92 C91 1.396 . S
C92 C93 1.397 . S
C93 C92 1.397 . S
C93 C94 1.385 . S
C94 H77 0.940 . S
C94 C93 1.385 . S
C94 C95 1.388 . S
C95 H74 0.939 . S
C95 C90 1.391 . S
C95 C94 1.388 . S
P96 O107 1.490 . S
P96 C110 1.812 . S
P96 C116 1.803 . S
P96 C122 1.819 . S
H97 C111 0.941 . S
H98 C112 0.939 . S
H99 C114 0.940 . S
H100 C115 0.940 . S
H101 C117 0.939 . S
H102 C118 0.942 . S
H103 C120 0.940 . S
H104 C121 0.939 . S
H105 C123 0.941 . S
H106 C127 0.939 . S
O107 P96 1.490 . S
H108 C124 0.939 . S
H109 C126 0.940 . S
C110 P96 1.812 . S
C110 C111 1.389 . S
C110 C115 1.391 . S
C111 H97 0.941 . S
C111 C110 1.389 . S
C111 C112 1.397 . S
C112 H98 0.939 . S
C112 C111 1.397 . S
C112 C113 1.378 . S
C113 C112 1.378 . S
C113 C114 1.378 . S
C114 H99 0.940 . S
C114 C113 1.378 . S
C114 C115 1.396 . S
C115 H100 0.940 . S
C115 C110 1.391 . S
C115 C114 1.396 . S
C116 P96 1.803 . S
C116 C117 1.378 . S
C116 C121 1.400 . S
C117 H101 0.939 . S
C117 C116 1.378 . S
C117 C118 1.361 . S
C118 H102 0.942 . S
C118 C117 1.361 . S
C118 C119 1.369 . S
C119 C118 1.369 . S
C119 C120 1.404 . S
C120 H103 0.940 . S
C120 C119 1.404 . S
C120 C121 1.389 . S
C121 H104 0.939 . S
C121 C116 1.400 . S
C121 C120 1.389 . S
C122 P96 1.819 . S
C122 C123 1.391 . S
C122 C127 1.391 . S
C123 H105 0.941 . S
C123 C122 1.391 . S
C123 C124 1.396 . S
C124 H108 0.939 . S
C124 C123 1.396 . S
C124 C125 1.397 . S
C125 C124 1.397 . S
C125 C126 1.385 . S
C126 H109 0.940 . S
C126 C125 1.385 . S
C126 C127 1.388 . S
C127 H106 0.939 . S
C127 C122 1.391 . S
C127 C126 1.388 . S
O128 Zn129 1.953 1_565 S
O128 C144 1.225 . S
Zn129 O128 1.953 1_545 S
Zn129 O130 1.949 1_655 S
Zn129 O136 1.919 . S
Zn129 O141 1.924 . S
O130 Zn129 1.949 1_455 S
O130 Zn131 1.923 . S
O130 Zn132 1.950 1_445 S
O130 Zn133 1.945 . S
Zn131 O130 1.923 . S
Zn131 O134 1.933 . S
Zn131 O137 1.941 . S
Zn131 O138 1.965 1_545 S
Zn132 O130 1.950 1_665 S
Zn132 O139 1.938 1_655 S
Zn132 O140 1.906 1_655 S
Zn132 O150 1.953 . S
Zn133 O130 1.945 . S
Zn133 O135 1.932 . S
Zn133 O142 1.977 1_545 S
Zn133 O143 1.910 1_455 S
O134 Zn131 1.933 . S
O134 C145 1.226 . S
O135 Zn133 1.932 . S
O135 C145 1.307 . S
O136 Zn129 1.919 . S
O136 C147 1.253 . S
O137 Zn131 1.941 . S
O137 C147 1.283 1_455 S
O138 Zn131 1.965 1_565 S
O138 C146 1.303 . S
O139 Zn132 1.938 1_455 S
O139 C146 1.247 . S
O140 Zn132 1.906 1_455 S
O140 C148 1.304 . S
O141 Zn129 1.924 . S
O141 C149 1.311 . S
O142 Zn133 1.977 1_565 S
O142 C148 1.272 . S
O143 Zn133 1.910 1_655 S
O143 C149 1.231 . S
C144 O128 1.225 . S
C144 O150 1.298 . S
C145 O134 1.226 . S
C145 O135 1.307 . S
C146 O138 1.303 . S
C146 O139 1.247 . S
C147 O136 1.253 . S
C147 O137 1.283 1_655 S
C148 O140 1.304 . S
C148 O142 1.272 . S
C149 O141 1.311 . S
C149 O143 1.231 . S
O150 Zn132 1.953 . S
O150 C144 1.298 . S
O151 Zn152 1.953 . S
O151 C167 1.225 1_556 S
Zn152 O151 1.953 . S
Zn152 O153 1.949 1_556 S
Zn152 O159 1.919 . S
Zn152 O164 1.924 1_556 S
O153 Zn152 1.949 1_554 S
O153 Zn154 1.923 1_554 S
O153 Zn155 1.950 . S
O153 Zn156 1.945 . S
Zn154 O153 1.923 1_556 S
Zn154 O157 1.933 . S
Zn154 O160 1.941 . S
Zn154 O161 1.965 . S
Zn155 O153 1.950 . S
Zn155 O162 1.938 1_554 S
Zn155 O163 1.906 . S
Zn155 O173 1.953 . S
Zn156 O153 1.945 . S
Zn156 O158 1.932 . S
Zn156 O165 1.977 . S
Zn156 O166 1.910 . S
O157 Zn154 1.933 . S
O157 C168 1.226 1_556 S
O158 Zn156 1.932 . S
O158 C168 1.307 . S
O159 Zn152 1.919 . S
O159 C170 1.253 . S
O160 Zn154 1.941 . S
O160 C170 1.283 . S
O161 Zn154 1.965 . S
O161 C169 1.303 . S
O162 Zn155 1.938 1_556 S
O162 C169 1.247 . S
O163 Zn155 1.906 . S
O163 C171 1.304 . S
O164 Zn152 1.924 1_554 S
O164 C172 1.311 . S
O165 Zn156 1.977 . S
O165 C171 1.272 . S
O166 Zn156 1.910 . S
O166 C172 1.231 . S
C167 O151 1.225 1_554 S
C167 O173 1.298 . S
C168 O157 1.226 1_554 S
C168 O158 1.307 . S
C169 O161 1.303 . S
C169 O162 1.247 . S
C170 O159 1.253 . S
C170 O160 1.283 . S
C171 O163 1.304 . S
C171 O165 1.272 . S
C172 O164 1.311 . S
C172 O166 1.231 . S
O173 Zn155 1.953 . S
O173 C167 1.298 . S
C174 C175 1.349 . S
C174 C176 1.327 . S
C174 H199 0.950 . S
C175 C174 1.349 . S
C175 C191 1.349 . S
C176 C174 1.327 . S
C176 C195 1.429 . S
C176 H200 0.950 . S
C177 C194 1.574 . S
C177 C196 1.368 . S
C177 H201 0.949 . S
H178 C182 0.949 . S
C179 C180 1.349 . S
C179 C181 1.327 . S
C179 H202 0.950 . S
C180 C179 1.349 . S
C180 C192 1.349 . S
C181 C179 1.327 . S
C181 C197 1.429 . S
C181 H203 0.950 . S
C182 H178 0.949 . S
C182 C190 1.574 . S
C182 C198 1.368 . S
H183 C191 0.950 . S
H184 C189 0.950 . S
H185 C190 0.949 . S
H186 C192 0.950 . S
H187 C193 0.950 . S
H188 C194 0.949 . S
C189 H184 0.950 . S
C189 C191 1.327 . S
C189 C195 1.429 . S
C190 C182 1.574 . S
C190 H185 0.949 . S
C190 C196 1.368 . S
C191 C175 1.349 . S
C191 H183 0.950 . S
C191 C189 1.327 . S
C192 C180 1.349 . S
C192 H186 0.950 . S
C192 C193 1.327 . S
C193 H187 0.950 . S
C193 C192 1.327 . S
C193 C197 1.429 . S
C194 C177 1.574 . S
C194 H188 0.949 . S
C194 C198 1.368 . S
C195 C176 1.429 . S
C195 C189 1.429 . S
C195 C196 1.523 . S
C196 C177 1.368 . S
C196 C190 1.368 . S
C196 C195 1.523 . S
C197 C181 1.429 . S
C197 C193 1.429 . S
C197 C198 1.523 . S
C198 C182 1.368 . S
C198 C194 1.368 . S
C198 C197 1.523 . S
H199 C174 0.950 . S
H200 C176 0.950 . S
H201 C177 0.949 . S
H202 C179 0.950 . S
H203 C181 0.950 . S
C204 C205 1.349 . S
C204 C206 1.327 . S
C204 H229 0.950 . S
C205 C204 1.349 . S
C205 C221 1.349 1_554 S
C206 C204 1.327 . S
C206 C225 1.429 . S
C206 H230 0.950 . S
C207 C224 1.574 . S
C207 C226 1.368 1_556 S
C207 H231 0.949 . S
H208 C212 0.949 . S
C209 C210 1.349 1_556 S
C209 C211 1.327 . S
C209 H232 0.950 . S
C210 C209 1.349 1_554 S
C210 C222 1.349 . S
C211 C209 1.327 . S
C211 C227 1.429 1_556 S
C211 H233 0.950 . S
C212 H208 0.949 . S
C212 C220 1.574 . S
C212 C228 1.368 . S
H213 C221 0.950 . S
H214 C219 0.950 . S
H215 C220 0.949 . S
H216 C222 0.950 . S
H217 C223 0.950 . S
H218 C224 0.949 . S
C219 H214 0.950 . S
C219 C221 1.327 . S
C219 C225 1.429 1_556 S
C220 C212 1.574 . S
C220 H215 0.949 . S
C220 C226 1.368 . S
C221 C205 1.349 1_556 S
C221 H213 0.950 . S
C221 C219 1.327 . S
C222 C210 1.349 . S
C222 H216 0.950 . S
C222 C223 1.327 . S
C223 H217 0.950 . S
C223 C222 1.327 . S
C223 C227 1.429 . S
C224 C207 1.574 . S
C224 H218 0.949 . S
C224 C228 1.368 1_556 S
C225 C206 1.429 . S
C225 C219 1.429 1_554 S
C225 C226 1.523 . S
C226 C207 1.368 1_554 S
C226 C220 1.368 . S
C226 C225 1.523 . S
C227 C211 1.429 1_554 S
C227 C223 1.429 . S
C227 C228 1.523 . S
C228 C212 1.368 . S
C228 C224 1.368 1_554 S
C228 C227 1.523 . S
H229 C204 0.950 . S
H230 C206 0.950 . S
H231 C207 0.949 . S
H232 C209 0.950 . S
H233 C211 0.950 . S
C234 C235 1.349 . S
C234 C236 1.327 . S
C234 H259 0.950 . S
C235 C234 1.349 . S
C235 C251 1.349 . S
C236 C234 1.327 . S
C236 C255 1.429 . S
C236 H260 0.950 . S
C237 C254 1.574 . S
C237 C256 1.368 . S
C237 H261 0.949 . S
H238 C242 0.949 . S
C239 C240 1.349 . S
C239 C241 1.327 . S
C239 H262 0.950 . S
C240 C239 1.349 . S
C240 C252 1.349 . S
C241 C239 1.327 . S
C241 C257 1.429 . S
C241 H263 0.950 . S
C242 H238 0.949 . S
C242 C250 1.574 . S
C242 C258 1.368 . S
H243 C251 0.950 . S
H244 C249 0.950 . S
H245 C250 0.949 . S
H246 C252 0.950 . S
H247 C253 0.950 . S
H248 C254 0.949 . S
C249 H244 0.950 . S
C249 C251 1.327 . S
C249 C255 1.429 . S
C250 C242 1.574 . S
C250 H245 0.949 . S
C250 C256 1.368 . S
C251 C235 1.349 . S
C251 H243 0.950 . S
C251 C249 1.327 . S
C252 C240 1.349 . S
C252 H246 0.950 . S
C252 C253 1.327 . S
C253 H247 0.950 . S
C253 C252 1.327 . S
C253 C257 1.429 . S
C254 C237 1.574 . S
C254 H248 0.949 . S
C254 C258 1.368 . S
C255 C236 1.429 . S
C255 C249 1.429 . S
C255 C256 1.523 . S
C256 C237 1.368 . S
C256 C250 1.368 . S
C256 C255 1.523 . S
C257 C241 1.429 . S
C257 C253 1.429 . S
C257 C258 1.523 . S
C258 C242 1.368 . S
C258 C254 1.368 . S
C258 C257 1.523 . S
H259 C234 0.950 . S
H260 C236 0.950 . S
H261 C237 0.949 . S
H262 C239 0.950 . S
H263 C241 0.950 . S
C264 C265 1.349 . S
C264 C266 1.327 . S
C264 H289 0.950 . S
C265 C264 1.349 . S
C265 C281 1.349 1_554 S
C266 C264 1.327 . S
C266 C285 1.429 . S
C266 H290 0.950 . S
C267 C284 1.574 . S
C267 C286 1.368 1_556 S
C267 H291 0.949 . S
H268 C272 0.949 . S
C269 C270 1.349 1_556 S
C269 C271 1.327 . S
C269 H292 0.950 . S
C270 C269 1.349 1_554 S
C270 C282 1.349 . S
C271 C269 1.327 . S
C271 C287 1.429 1_556 S
C271 H293 0.950 . S
C272 H268 0.949 . S
C272 C280 1.574 . S
C272 C288 1.368 . S
H273 C281 0.950 . S
H274 C279 0.950 . S
H275 C280 0.949 . S
H276 C282 0.950 . S
H277 C283 0.950 . S
H278 C284 0.949 . S
C279 H274 0.950 . S
C279 C281 1.327 . S
C279 C285 1.429 1_556 S
C280 C272 1.574 . S
C280 H275 0.949 . S
C280 C286 1.368 . S
C281 C265 1.349 1_556 S
C281 H273 0.950 . S
C281 C279 1.327 . S
C282 C270 1.349 . S
C282 H276 0.950 . S
C282 C283 1.327 . S
C283 H277 0.950 . S
C283 C282 1.327 . S
C283 C287 1.429 . S
C284 C267 1.574 . S
C284 H278 0.949 . S
C284 C288 1.368 1_556 S
C285 C266 1.429 . S
C285 C279 1.429 1_554 S
C285 C286 1.523 . S
C286 C267 1.368 1_554 S
C286 C280 1.368 . S
C286 C285 1.523 . S
C287 C271 1.429 1_554 S
C287 C283 1.429 . S
C287 C288 1.523 . S
C288 C272 1.368 . S
C288 C284 1.368 1_554 S
C288 C287 1.523 . S
H289 C264 0.950 . S
H290 C266 0.950 . S
H291 C267 0.949 . S
H292 C269 0.950 . S
H293 C271 0.950 . S
C294 C295 1.349 . S
C294 C296 1.327 . S
C294 H319 0.950 . S
C295 C294 1.349 . S
C295 C311 1.349 . S
C296 C294 1.327 . S
C296 C315 1.429 . S
C296 H320 0.950 . S
C297 C314 1.574 . S
C297 C316 1.368 . S
C297 H321 0.949 . S
H298 C302 0.949 . S
C299 C300 1.349 . S
C299 C301 1.327 . S
C299 H322 0.950 . S
C300 C299 1.349 . S
C300 C312 1.349 . S
C301 C299 1.327 . S
C301 C317 1.429 . S
C301 H323 0.950 . S
C302 H298 0.949 . S
C302 C310 1.574 . S
C302 C318 1.368 . S
H303 C311 0.950 . S
H304 C309 0.950 . S
H305 C310 0.949 . S
H306 C312 0.950 . S
H307 C313 0.950 . S
H308 C314 0.949 . S
C309 H304 0.950 . S
C309 C311 1.327 . S
C309 C315 1.429 . S
C310 C302 1.574 . S
C310 H305 0.949 . S
C310 C316 1.368 . S
C311 C295 1.349 . S
C311 H303 0.950 . S
C311 C309 1.327 . S
C312 C300 1.349 . S
C312 H306 0.950 . S
C312 C313 1.327 . S
C313 H307 0.950 . S
C313 C312 1.327 . S
C313 C317 1.429 . S
C314 C297 1.574 . S
C314 H308 0.949 . S
C314 C318 1.368 . S
C315 C296 1.429 . S
C315 C309 1.429 . S
C315 C316 1.523 . S
C316 C297 1.368 . S
C316 C310 1.368 . S
C316 C315 1.523 . S
C317 C301 1.429 . S
C317 C313 1.429 . S
C317 C318 1.523 . S
C318 C302 1.368 . S
C318 C314 1.368 . S
C318 C317 1.523 . S
H319 C294 0.950 . S
H320 C296 0.950 . S
H321 C297 0.949 . S
H322 C299 0.950 . S
H323 C301 0.950 . S
C324 C325 1.349 . S
C324 C326 1.327 . S
C324 H349 0.950 . S
C325 C324 1.349 . S
C325 C341 1.349 . S
C326 C324 1.327 . S
C326 C345 1.429 . S
C326 H350 0.950 . S
C327 C344 1.574 . S
C327 C346 1.368 . S
C327 H351 0.949 . S
H328 C332 0.949 . S
C329 C330 1.349 . S
C329 C331 1.327 . S
C329 H352 0.950 . S
C330 C329 1.349 . S
C330 C342 1.349 . S
C331 C329 1.327 . S
C331 C347 1.429 . S
C331 H353 0.950 . S
C332 H328 0.949 . S
C332 C340 1.574 . S
C332 C348 1.368 . S
H333 C341 0.950 . S
H334 C339 0.950 . S
H335 C340 0.949 . S
H336 C342 0.950 . S
H337 C343 0.950 . S
H338 C344 0.949 . S
C339 H334 0.950 . S
C339 C341 1.327 . S
C339 C345 1.429 . S
C340 C332 1.574 . S
C340 H335 0.949 . S
C340 C346 1.368 . S
C341 C325 1.349 . S
C341 H333 0.950 . S
C341 C339 1.327 . S
C342 C330 1.349 . S
C342 H336 0.950 . S
C342 C343 1.327 . S
C343 H337 0.950 . S
C343 C342 1.327 . S
C343 C347 1.429 . S
C344 C327 1.574 . S
C344 H338 0.949 . S
C344 C348 1.368 . S
C345 C326 1.429 . S
C345 C339 1.429 . S
C345 C346 1.523 . S
C346 C327 1.368 . S
C346 C340 1.368 . S
C346 C345 1.523 . S
C347 C331 1.429 . S
C347 C343 1.429 . S
C347 C348 1.523 . S
C348 C332 1.368 . S
C348 C344 1.368 . S
C348 C347 1.523 . S
H349 C324 0.950 . S
H350 C326 0.950 . S
H351 C327 0.949 . S
H352 C329 0.950 . S
H353 C331 0.950 . S
C354 C355 1.349 . S
C354 C356 1.327 . S
C354 H379 0.950 . S
C355 C354 1.349 . S
C355 C371 1.349 . S
C356 C354 1.327 . S
C356 C375 1.429 . S
C356 H380 0.950 . S
C357 C374 1.574 . S
C357 C376 1.368 . S
C357 H381 0.949 . S
H358 C362 0.949 . S
C359 C360 1.349 . S
C359 C361 1.327 . S
C359 H382 0.950 . S
C360 C359 1.349 . S
C360 C372 1.349 . S
C361 C359 1.327 . S
C361 C377 1.429 . S
C361 H383 0.950 . S
C362 H358 0.949 . S
C362 C370 1.574 . S
C362 C378 1.368 . S
H363 C371 0.950 . S
H364 C369 0.950 . S
H365 C370 0.949 . S
H366 C372 0.950 . S
H367 C373 0.950 . S
H368 C374 0.949 . S
C369 H364 0.950 . S
C369 C371 1.327 . S
C369 C375 1.429 . S
C370 C362 1.574 . S
C370 H365 0.949 . S
C370 C376 1.368 . S
C371 C355 1.349 . S
C371 H363 0.950 . S
C371 C369 1.327 . S
C372 C360 1.349 . S
C372 H366 0.950 . S
C372 C373 1.327 . S
C373 H367 0.950 . S
C373 C372 1.327 . S
C373 C377 1.429 . S
C374 C357 1.574 . S
C374 H368 0.949 . S
C374 C378 1.368 . S
C375 C356 1.429 . S
C375 C369 1.429 . S
C375 C376 1.523 . S
C376 C357 1.368 . S
C376 C370 1.368 . S
C376 C375 1.523 . S
C377 C361 1.429 . S
C377 C373 1.429 . S
C377 C378 1.523 . S
C378 C362 1.368 . S
C378 C374 1.368 . S
C378 C377 1.523 . S
H379 C354 0.950 . S
H380 C356 0.950 . S
H381 C357 0.949 . S
H382 C359 0.950 . S
H383 C361 0.950 . S
C384 C385 1.349 . S
C384 C386 1.327 . S
C384 H409 0.950 . S
C385 C384 1.349 . S
C385 C401 1.349 . S
C386 C384 1.327 . S
C386 C405 1.429 . S
C386 H410 0.950 . S
C387 C404 1.574 . S
C387 C406 1.368 . S
C387 H411 0.949 . S
H388 C392 0.949 . S
C389 C390 1.349 . S
C389 C391 1.327 . S
C389 H412 0.950 . S
C390 C389 1.349 . S
C390 C402 1.349 . S
C391 C389 1.327 . S
C391 C407 1.429 . S
C391 H413 0.950 . S
C392 H388 0.949 . S
C392 C400 1.574 . S
C392 C408 1.368 . S
H393 C401 0.950 . S
H394 C399 0.950 . S
H395 C400 0.949 . S
H396 C402 0.950 . S
H397 C403 0.950 . S
H398 C404 0.949 . S
C399 H394 0.950 . S
C399 C401 1.327 . S
C399 C405 1.429 . S
C400 C392 1.574 . S
C400 H395 0.949 . S
C400 C406 1.368 . S
C401 C385 1.349 . S
C401 H393 0.950 . S
C401 C399 1.327 . S
C402 C390 1.349 . S
C402 H396 0.950 . S
C402 C403 1.327 . S
C403 H397 0.950 . S
C403 C402 1.327 . S
C403 C407 1.429 . S
C404 C387 1.574 . S
C404 H398 0.949 . S
C404 C408 1.368 . S
C405 C386 1.429 . S
C405 C399 1.429 . S
C405 C406 1.523 . S
C406 C387 1.368 . S
C406 C400 1.368 . S
C406 C405 1.523 . S
C407 C391 1.429 . S
C407 C403 1.429 . S
C407 C408 1.523 . S
C408 C392 1.368 . S
C408 C404 1.368 . S
C408 C407 1.523 . S
H409 C384 0.950 . S
H410 C386 0.950 . S
H411 C387 0.949 . S
H412 C389 0.950 . S
H413 C391 0.950 . S
C414 C415 1.349 . S
C414 C416 1.327 . S
C414 H439 0.950 . S
C415 C414 1.349 . S
C415 C431 1.349 . S
C416 C414 1.327 . S
C416 C435 1.429 . S
C416 H440 0.950 . S
C417 C434 1.574 . S
C417 C436 1.368 . S
C417 H441 0.949 . S
H418 C422 0.949 . S
C419 C420 1.349 . S
C419 C421 1.327 . S
C419 H442 0.950 . S
C420 C419 1.349 . S
C420 C432 1.349 . S
C421 C419 1.327 . S
C421 C437 1.429 . S
C421 H443 0.950 . S
C422 H418 0.949 . S
C422 C430 1.574 . S
C422 C438 1.368 . S
H423 C431 0.950 . S
H424 C429 0.950 . S
H425 C430 0.949 . S
H426 C432 0.950 . S
H427 C433 0.950 . S
H428 C434 0.949 . S
C429 H424 0.950 . S
C429 C431 1.327 . S
C429 C435 1.429 . S
C430 C422 1.574 . S
C430 H425 0.949 . S
C430 C436 1.368 . S
C431 C415 1.349 . S
C431 H423 0.950 . S
C431 C429 1.327 . S
C432 C420 1.349 . S
C432 H426 0.950 . S
C432 C433 1.327 . S
C433 H427 0.950 . S
C433 C432 1.327 . S
C433 C437 1.429 . S
C434 C417 1.574 . S
C434 H428 0.949 . S
C434 C438 1.368 . S
C435 C416 1.429 . S
C435 C429 1.429 . S
C435 C436 1.523 . S
C436 C417 1.368 . S
C436 C430 1.368 . S
C436 C435 1.523 . S
C437 C421 1.429 . S
C437 C433 1.429 . S
C437 C438 1.523 . S
C438 C422 1.368 . S
C438 C434 1.368 . S
C438 C437 1.523 . S
H439 C414 0.950 . S
H440 C416 0.950 . S
H441 C417 0.949 . S
H442 C419 0.950 . S
H443 C421 0.950 . S
C444 C445 1.349 . S
C444 C446 1.327 . S
C444 H469 0.950 . S
C445 C444 1.349 . S
C445 C461 1.349 . S
C446 C444 1.327 . S
C446 C465 1.429 . S
C446 H470 0.950 . S
C447 C464 1.574 . S
C447 C466 1.368 . S
C447 H471 0.949 . S
H448 C452 0.949 . S
C449 C450 1.349 . S
C449 C451 1.327 . S
C449 H472 0.950 . S
C450 C449 1.349 . S
C450 C462 1.349 . S
C451 C449 1.327 . S
C451 C467 1.429 . S
C451 H473 0.950 . S
C452 H448 0.949 . S
C452 C460 1.574 . S
C452 C468 1.368 . S
H453 C461 0.950 . S
H454 C459 0.950 . S
H455 C460 0.949 . S
H456 C462 0.950 1_455 S
H457 C463 0.950 . S
H458 C464 0.949 . S
C459 H454 0.950 . S
C459 C461 1.327 . S
C459 C465 1.429 . S
C460 C452 1.574 . S
C460 H455 0.949 . S
C460 C466 1.368 . S
C461 C445 1.349 . S
C461 H453 0.950 . S
C461 C459 1.327 . S
C462 C450 1.349 . S
C462 H456 0.950 1_655 S
C462 C463 1.327 . S
C463 H457 0.950 . S
C463 C462 1.327 . S
C463 C467 1.429 . S
C464 C447 1.574 . S
C464 H458 0.949 . S
C464 C468 1.368 . S
C465 C446 1.429 . S
C465 C459 1.429 . S
C465 C466 1.523 . S
C466 C447 1.368 . S
C466 C460 1.368 . S
C466 C465 1.523 . S
C467 C451 1.429 . S
C467 C463 1.429 . S
C467 C468 1.523 . S
C468 C452 1.368 . S
C468 C464 1.368 . S
C468 C467 1.523 . S
H469 C444 0.950 . S
H470 C446 0.950 . S
H471 C447 0.949 . S
H472 C449 0.950 . S
H473 C451 0.950 . S
C474 C475 1.349 . S
C474 C476 1.327 . S
C474 H499 0.950 . S
C475 C474 1.349 . S
C475 C491 1.349 . S
C476 C474 1.327 . S
C476 C495 1.429 . S
C476 H500 0.950 . S
C477 C494 1.574 . S
C477 C496 1.368 . S
C477 H501 0.949 . S
H478 C482 0.949 . S
C479 C480 1.349 . S
C479 C481 1.327 . S
C479 H502 0.950 . S
C480 C479 1.349 . S
C480 C492 1.349 . S
C481 C479 1.327 . S
C481 C497 1.429 . S
C481 H503 0.950 . S
C482 H478 0.949 . S
C482 C490 1.574 . S
C482 C498 1.368 . S
H483 C491 0.950 . S
H484 C489 0.950 . S
H485 C490 0.949 . S
H486 C492 0.950 . S
H487 C493 0.950 . S
H488 C494 0.949 . S
C489 H484 0.950 . S
C489 C491 1.327 . S
C489 C495 1.429 . S
C490 C482 1.574 . S
C490 H485 0.949 . S
C490 C496 1.368 . S
C491 C475 1.349 . S
C491 H483 0.950 . S
C491 C489 1.327 . S
C492 C480 1.349 . S
C492 H486 0.950 . S
C492 C493 1.327 . S
C493 H487 0.950 . S
C493 C492 1.327 . S
C493 C497 1.429 . S
C494 C477 1.574 . S
C494 H488 0.949 . S
C494 C498 1.368 . S
C495 C476 1.429 . S
C495 C489 1.429 . S
C495 C496 1.523 . S
C496 C477 1.368 . S
C496 C490 1.368 . S
C496 C495 1.523 . S
C497 C481 1.429 . S
C497 C493 1.429 . S
C497 C498 1.523 . S
C498 C482 1.368 . S
C498 C494 1.368 . S
C498 C497 1.523 . S
H499 C474 0.950 . S
H500 C476 0.950 . S
H501 C477 0.949 . S
H502 C479 0.950 . S
H503 C481 0.950 . S
C504 C505 1.349 . S
C504 C506 1.327 . S
C504 H529 0.950 . S
C505 C504 1.349 . S
C505 C521 1.349 . S
C506 C504 1.327 . S
C506 C525 1.429 . S
C506 H530 0.950 . S
C507 C524 1.574 . S
C507 C526 1.368 . S
C507 H531 0.949 . S
H508 C512 0.949 . S
C509 C510 1.349 . S
C509 C511 1.327 . S
C509 H532 0.950 . S
C510 C509 1.349 . S
C510 C522 1.349 . S
C511 C509 1.327 . S
C511 C527 1.429 . S
C511 H533 0.950 . S
C512 H508 0.949 . S
C512 C520 1.574 . S
C512 C528 1.368 . S
H513 C521 0.950 . S
H514 C519 0.950 . S
H515 C520 0.949 . S
H516 C522 0.971 . S
H517 C523 0.950 . S
H518 C524 0.949 . S
C519 H514 0.950 . S
C519 C521 1.327 . S
C519 C525 1.429 . S
C520 C512 1.574 . S
C520 H515 0.949 . S
C520 C526 1.368 . S
C521 C505 1.349 . S
C521 H513 0.950 . S
C521 C519 1.327 . S
C522 C510 1.349 . S
C522 H516 0.971 . S
C522 C523 1.327 . S
C523 H517 0.950 . S
C523 C522 1.327 . S
C523 C527 1.429 . S
C524 C507 1.574 . S
C524 H518 0.949 . S
C524 C528 1.368 . S
C525 C506 1.429 . S
C525 C519 1.429 . S
C525 C526 1.523 . S
C526 C507 1.368 . S
C526 C520 1.368 . S
C526 C525 1.523 . S
C527 C511 1.429 . S
C527 C523 1.429 . S
C527 C528 1.523 . S
C528 C512 1.368 . S
C528 C524 1.368 . S
C528 C527 1.523 . S
H529 C504 0.950 . S
H530 C506 0.950 . S
H531 C507 0.949 . S
H532 C509 0.950 . S
H533 C511 0.950 . S
C180 C145 1.584 . S
C175 C119 1.589 . S
C205 C23 1.488 . S
C210 C168 1.581 . S
C235 C55 1.511 . S
C240 C144 1.605 . S
C265 C87 1.612 . S
C270 C167 1.608 . S
C300 C148 1.527 . S
C295 C17 1.485 . S
C330 C170 1.559 . S
C325 C61 1.512 . S
C355 C93 1.598 . S
C360 C149 1.536 . S
C385 C113 1.577 . S
C390 C169 1.539 . S
C420 C172 1.536 . S
C415 C49 1.497 . S
C450 C147 1.558 . S
C445 C81 1.599 . S
C480 C171 1.527 . S
C475 C125 1.585 . S
C505 C29 1.492 . S
C510 C146 1.540 . S
