# Generated by pormake.
# Topology rtl, (3,6)-cn, num edge types: 1
# Building blocks:
#     Node 0, Type 0, BuildingBlock: VETTIZ_charged_linker_0, # of connection points: 3
#     Node 1, Type 0, BuildingBlock: VETTIZ_charged_linker_0, # of connection points: 3
#     Node 2, Type 0, BuildingBlock: VETTIZ_charged_linker_0, # of connection points: 3
#     Node 3, Type 0, BuildingBlock: VETTIZ_charged_linker_0, # of connection points: 3
#     Node 4, Type 1, BuildingBlock: VOLQOD_clean_sbu_1, # of connection points: 6
#     Node 5, Type 1, BuildingBlock: VOLQOD_clean_sbu_1, # of connection points: 6
#     Edge 6, Type (0, 1), None
#     Edge 7, Type (0, 1), None
#     Edge 8, Type (0, 1), None
#     Edge 9, Type (0, 1), None
#     Edge 10, Type (0, 1), None
#     Edge 11, Type (0, 1), None
#     Edge 12, Type (0, 1), None
#     Edge 13, Type (0, 1), None
#     Edge 14, Type (0, 1), None
#     Edge 15, Type (0, 1), None
#     Edge 16, Type (0, 1), None
#     Edge 17, Type (0, 1), None
# Relax obj value: 0.081
# Max RMSD: 0.157
# Mean RMSD: 0.091
data_MOF--net-rtl--node1-VOLQOD_clean_sbu_1--node2-VETTIZ_charged_linker_0--edge1-none
_symmetry_space_group_name_H-M    P1
_symmetry_Int_Tables_number       1
_symmetry_cell_setting            triclinic
loop_
_symmetry_equiv_pos_as_xyz
'x, y, z'
_cell_length_a     25.15621
_cell_length_b     20.555829
_cell_length_c     16.950061
_cell_angle_alpha  89.49953
_cell_angle_beta   90.141957
_cell_angle_gamma 89.990642
loop_
_atom_site_label
_atom_site_type_symbol
_atom_site_fract_x
_atom_site_fract_y
_atom_site_fract_z
_atom_type_partial_charge
C0 C 0.07466 0.83587 0.73858 0.0
C1 C 0.03611 0.88503 0.73358 0.0
C2 C 0.00554 0.90057 0.79987 0.0
C3 C 0.05529 0.82259 0.87792 0.0
C4 C 0.08396 0.80559 0.81179 0.0
C5 C 0.12703 0.75696 0.83079 0.0
H6 H 0.28686 0.62275 0.1064 0.0
C7 C 0.07838 0.78818 0.94639 0.0
C8 C 0.12014 0.74915 0.91964 0.0
H9 H 0.29353 0.60224 0.85253 0.0
H10 H 0.20929 0.6564 0.83946 0.0
H11 H 0.24468 0.76933 0.10977 0.0
H12 H 0.15897 0.58757 0.1174 0.0
H13 H 0.12665 0.64187 0.18086 0.0
H14 H 0.19431 0.61754 0.20172 0.0
H15 H 0.24945 0.71274 0.19087 0.0
H16 H 0.19726 0.77214 0.18589 0.0
C17 C 0.18102 0.78856 0.80898 0.0
C18 C 0.1149 0.69303 0.78636 0.0
C19 C 0.02267 0.85965 0.21728 0.0
C20 C 0.04326 0.8478 0.29261 0.0
C21 C 0.081 0.79813 0.30423 0.0
C22 C 0.10088 0.76364 0.23938 0.0
C23 C 0.08296 0.77993 0.16291 0.0
C24 C 0.04295 0.82544 0.15355 0.0
C25 C 0.02958 0.83873 0.06886 0.0
C26 C 0.06882 0.79451 0.02821 0.0
C27 C 0.10042 0.7606 0.0832 0.0
C28 C 0.04031 0.91209 0.05125 0.0
C29 C 0.97148 0.81656 0.05461 0.0
C30 C 0.27013 0.62982 0.04801 0.0
C31 C 0.29779 0.60973 -0.01963 0.0
C32 C 0.27379 0.61829 0.90564 0.0
C33 C 0.22494 0.65011 0.8979 0.0
C34 C 0.19995 0.67442 0.96528 0.0
C35 C 0.22116 0.66165 0.03907 0.0
C36 C 0.18721 0.68873 0.10401 0.0
C37 C 0.14334 0.72174 0.05655 0.0
C38 C 0.15195 0.71446 0.97518 0.0
C39 C 0.22114 0.73816 0.15075 0.0
C40 C 0.16577 0.6313 0.15433 0.0
H41 H 0.99027 0.88359 0.92053 0.0
H42 H 0.09845 0.82345 0.6877 0.0
H43 H 0.07178 0.68822 0.77284 0.0
H44 H 0.12463 0.64926 0.82214 0.0
H45 H 0.1367 0.69095 0.72952 0.0
H46 H 0.1831 0.83915 0.83161 0.0
H47 H 0.18626 0.79075 0.74396 0.0
H48 H 0.21562 0.76318 0.83443 0.0
H49 H 0.99382 0.89809 0.20736 0.0
H50 H 0.0974 0.78891 0.36242 0.0
H51 H 0.1312 0.72802 0.25075 0.0
H52 H 0.06891 0.93341 0.09403 0.0
H53 H 0.00317 0.94117 0.05432 0.0
H54 H 0.0593 0.92063 -0.00665 0.0
H55 H 0.9625 0.77138 0.0887 0.0
H56 H 0.96352 0.80393 -0.00757 0.0
H57 H 0.94282 0.85446 0.07345 0.0
H58 H 0.97534 0.93812 0.79617 0.0
C59 C 0.01437 0.86889 0.87183 0.0
C60 C 0.57733 0.71804 0.74409 0.0
C61 C 0.53236 0.6775 0.7504 0.0
C62 C 0.49774 0.67222 0.68515 0.0
C63 C 0.55688 0.73799 0.60597 0.0
C64 C 0.58851 0.7483 0.67137 0.0
C65 C 0.63499 0.79195 0.65245 0.0
H66 H 0.79309 0.93091 0.37608 0.0
C67 C 0.58264 0.76851 0.53713 0.0
C68 C 0.62779 0.80166 0.56384 0.0
H69 H 0.8076 0.94063 0.62949 0.0
H70 H 0.72423 0.8832 0.64489 0.0
H71 H 0.76228 0.78964 0.36994 0.0
H72 H 0.65895 0.95651 0.36745 0.0
H73 H 0.63912 0.90242 0.29246 0.0
H74 H 0.70476 0.9373 0.28989 0.0
H75 H 0.7488 0.83407 0.28062 0.0
H76 H 0.70691 0.76781 0.31319 0.0
C77 C 0.68679 0.7545 0.67237 0.0
C78 C 0.62819 0.85641 0.69824 0.0
C79 C 0.52335 0.69943 0.26549 0.0
C80 C 0.54734 0.70392 0.19095 0.0
C81 C 0.59129 0.74574 0.18078 0.0
C82 C 0.61251 0.77987 0.24506 0.0
C83 C 0.59029 0.77089 0.32049 0.0
C84 C 0.54592 0.73194 0.32926 0.0
C85 C 0.53041 0.72244 0.41399 0.0
C86 C 0.57295 0.76199 0.45511 0.0
C87 C 0.60772 0.79062 0.40023 0.0
C88 C 0.53476 0.64856 0.43332 0.0
C89 C 0.47423 0.75182 0.42583 0.0
C90 C 0.77738 0.92178 0.43461 0.0
C91 C 0.80592 0.9405 0.50182 0.0
C92 C 0.78551 0.92686 0.57726 0.0
C93 C 0.73744 0.8933 0.58597 0.0
C94 C 0.71019 0.87228 0.51843 0.0
C95 C 0.72952 0.8878 0.44427 0.0
C96 C 0.69574 0.85986 0.37949 0.0
C97 C 0.65233 0.82658 0.42708 0.0
C98 C 0.66163 0.83307 0.50843 0.0
C99 C 0.72992 0.81057 0.33273 0.0
C100 C 0.6735 0.91672 0.32899 0.0
H101 H 0.48248 0.69494 0.56547 0.0
H102 H 0.60387 0.72471 0.79375 0.0
H103 H 0.58588 0.86547 0.71365 0.0
H104 H 0.64004 0.89945 0.66267 0.0
H105 H 0.65128 0.85568 0.75418 0.0
H106 H 0.68489 0.70414 0.649 0.0
H107 H 0.69289 0.75109 0.73721 0.0
H108 H 0.72252 0.77668 0.64603 0.0
H109 H 0.48987 0.66732 0.27573 0.0
H110 H 0.6103 0.75043 0.12375 0.0
H111 H 0.64664 0.80991 0.23419 0.0
H112 H 0.56985 0.62685 0.40357 0.0
H113 H 0.4989 0.62199 0.41287 0.0
H114 H 0.54085 0.63749 0.49629 0.0
H115 H 0.46633 0.79209 0.38308 0.0
H116 H 0.46951 0.7743 0.48453 0.0
H117 H 0.44276 0.7146 0.4175 0.0
H118 H 0.46216 0.64265 0.68842 0.0
C119 C 0.5096 0.70251 0.61338 0.0
C120 C 0.91292 0.21781 0.24209 0.0
C121 C 0.95693 0.17565 0.24797 0.0
C122 C 0.99055 0.16852 0.18209 0.0
C123 C 0.93269 0.23704 0.10374 0.0
C124 C 0.90181 0.24836 0.16945 0.0
C125 C 0.85581 0.29299 0.15079 0.0
H126 H 0.69507 0.42956 0.87534 0.0
C127 C 0.907 0.26825 0.03511 0.0
C128 C 0.86236 0.30211 0.06203 0.0
H129 H 0.68478 0.44443 0.12871 0.0
H130 H 0.76822 0.38683 0.14334 0.0
H131 H 0.82905 0.45547 0.86354 0.0
H132 H 0.72688 0.28744 0.87157 0.0
H133 H 0.78104 0.26666 0.81207 0.0
H134 H 0.73755 0.33216 0.78167 0.0
H135 H 0.78249 0.43508 0.78709 0.0
H136 H 0.84825 0.40053 0.78929 0.0
C137 C 0.86397 0.35751 0.19602 0.0
C138 C 0.80366 0.25682 0.17167 0.0
C139 C 0.96598 0.20016 0.76347 0.0
C140 C 0.9415 0.20383 0.68902 0.0
C141 C 0.89678 0.24452 0.67895 0.0
C142 C 0.87535 0.27831 0.74322 0.0
C143 C 0.89821 0.2702 0.81854 0.0
C144 C 0.94321 0.23227 0.82722 0.0
C145 C 0.95949 0.22358 0.91187 0.0
C146 C 0.91628 0.26176 0.95307 0.0
C147 C 0.88103 0.28993 0.8983 0.0
C148 C 0.01458 0.256 0.92275 0.0
C149 C 0.95804 0.14959 0.93266 0.0
C150 C 0.71167 0.42143 0.93365 0.0
C151 C 0.68428 0.44158 0.0011 0.0
C152 C 0.70595 0.42947 0.07629 0.0
C153 C 0.75402 0.39578 0.08458 0.0
C154 C 0.78001 0.37314 0.01692 0.0
C155 C 0.75964 0.38752 0.9429 0.0
C156 C 0.79267 0.35883 0.87798 0.0
C157 C 0.83666 0.32611 0.9253 0.0
C158 C 0.82827 0.33351 0.0067 0.0
C159 C 0.81422 0.41513 0.82608 0.0
C160 C 0.75801 0.30895 0.83279 0.0
H161 H 0.00501 0.19002 0.06203 0.0
H162 H 0.88705 0.22557 0.2921 0.0
H163 H 0.8044 0.2065 0.14804 0.0
H164 H 0.76795 0.28003 0.14631 0.0
H165 H 0.79836 0.25338 0.23661 0.0
H166 H 0.90647 0.36544 0.21151 0.0
H167 H 0.84098 0.35782 0.25188 0.0
H168 H 0.85285 0.40065 0.15998 0.0
H169 H -4e-05 0.16879 0.77379 0.0
H170 H 0.87734 0.24854 0.62203 0.0
H171 H 0.84064 0.30743 0.73242 0.0
H172 H 0.01694 0.30241 0.88863 0.0
H173 H 0.04692 0.22379 0.9016 0.0
H174 H 0.02269 0.26954 -0.01542 0.0
H175 H 0.93368 0.12153 0.88993 0.0
H176 H 0.93907 0.13928 -0.00982 0.0
H177 H -0.00146 0.12807 0.93271 0.0
H178 H 0.02526 0.13737 0.18489 0.0
C179 C 0.97875 0.19905 0.11036 0.0
C180 C 0.41582 0.33521 0.23833 0.0
C181 C 0.45482 0.38382 0.23347 0.0
C182 C 0.48569 0.39888 0.29985 0.0
C183 C 0.43526 0.32174 0.37777 0.0
C184 C 0.40638 0.30505 0.31151 0.0
C185 C 0.36295 0.25694 0.33036 0.0
H186 H 0.20285 0.12393 0.6056 0.0
C187 C 0.41186 0.28783 0.4462 0.0
C188 C 0.3698 0.24922 0.41928 0.0
H189 H 0.19558 0.10329 0.35175 0.0
H190 H 0.27982 0.15737 0.3388 0.0
H191 H 0.3302 0.08841 0.6175 0.0
H192 H 0.24518 0.27062 0.60842 0.0
H193 H 0.29269 0.27359 0.68471 0.0
H194 H 0.24039 0.21438 0.68984 0.0
H195 H 0.29526 0.11904 0.70157 0.0
H196 H 0.363 0.1427 0.68064 0.0
C197 C 0.37461 0.19279 0.28622 0.0
C198 C 0.30917 0.28907 0.30811 0.0
C199 C 0.4673 0.36021 0.71729 0.0
C200 C 0.44655 0.34867 0.79244 0.0
C201 C 0.40873 0.29915 0.80391 0.0
C202 C 0.38889 0.26451 0.73905 0.0
C203 C 0.40696 0.28047 0.6627 0.0
C204 C 0.4471 0.32578 0.65352 0.0
C205 C 0.46076 0.3385 0.5689 0.0
C206 C 0.42139 0.29439 0.52808 0.0
C207 C 0.38955 0.26094 0.58293 0.0
C208 C 0.51878 0.31574 0.5556 0.0
C209 C 0.45048 0.41186 0.55058 0.0
C210 C 0.21944 0.13095 0.54725 0.0
C211 C 0.19165 0.11078 0.47959 0.0
C212 C 0.21545 0.11935 0.40489 0.0
C213 C 0.26431 0.15111 0.39722 0.0
C214 C 0.28953 0.17531 0.46466 0.0
C215 C 0.26841 0.16271 0.53839 0.0
C216 C 0.30248 0.18977 0.60342 0.0
C217 C 0.34643 0.22239 0.5561 0.0
C218 C 0.33773 0.21503 0.47471 0.0
C219 C 0.32374 0.13236 0.65413 0.0
C220 C 0.26871 0.23953 0.6497 0.0
H221 H 0.50089 0.38182 0.42064 0.0
H222 H 0.39179 0.32318 0.18739 0.0
H223 H 0.30748 0.33976 0.33046 0.0
H224 H 0.27443 0.26416 0.33355 0.0
H225 H 0.30387 0.29108 0.24305 0.0
H226 H 0.41773 0.18736 0.27333 0.0
H227 H 0.35298 0.19096 0.22907 0.0
H228 H 0.36438 0.14921 0.32192 0.0
H229 H 0.49627 0.39849 0.70752 0.0
H230 H 0.39226 0.29014 0.86198 0.0
H231 H 0.35849 0.22902 0.75028 0.0
H232 H 0.5275 0.27084 0.59045 0.0
H233 H 0.5476 0.3536 0.57417 0.0
H234 H 0.52675 0.30239 0.49371 0.0
H235 H 0.42166 0.43354 0.59256 0.0
H236 H 0.43198 0.42033 0.49221 0.0
H237 H 0.48773 0.44069 0.55437 0.0
H238 H 0.51617 0.43605 0.29629 0.0
C239 C 0.47664 0.36739 0.37181 0.0
O240 O 0.86661 0.02737 0.48327 0.0
Zn241 Zn 0.93302 0.08314 0.47879 0.0
O242 O -0.00317 0.02782 0.49031 0.0
Zn243 Zn 0.03873 0.05477 0.58114 0.0
Zn244 Zn 0.9776 0.93559 0.50207 0.0
Zn245 Zn 0.04018 0.03738 0.39737 0.0
O246 O 0.11323 0.08301 0.5516 0.0
O247 O 0.1134 0.0678 0.42236 0.0
O248 O 0.92822 0.14723 0.56844 0.0
O249 O 0.00231 0.12792 0.63622 0.0
O250 O 0.04375 0.98211 0.66055 0.0
O251 O 0.00375 0.89787 0.60414 0.0
O252 O 0.00593 0.8794 0.41472 0.0
O253 O 0.93323 0.13439 0.37566 0.0
O254 O 0.04615 0.95389 0.34019 0.0
O255 O 0.00893 0.10159 0.32239 0.0
C256 C 0.85976 0.96655 0.49431 0.0
C257 C 0.13698 0.08464 0.48533 0.0
C258 C 0.02892 0.92297 0.66127 0.0
C259 C 0.95908 0.15919 0.62624 0.0
C260 C 0.03219 0.89549 0.35369 0.0
C261 C 0.96712 0.13624 0.31991 0.0
O262 O 0.8984 0.92721 0.50301 0.0
O263 O 0.62321 0.5284 -0.01513 0.0
Zn264 Zn 0.55657 0.58376 -0.01946 0.0
O265 O 0.493 0.52803 -0.00878 0.0
Zn266 Zn 0.44955 0.53798 0.89809 0.0
Zn267 Zn 0.51264 0.43587 0.0023 0.0
Zn268 Zn 0.45107 0.55415 0.08207 0.0
O269 O 0.3762 0.56772 0.92308 0.0
O270 O 0.37639 0.58194 0.05249 0.0
O271 O 0.55621 0.63547 0.87782 0.0
O272 O 0.48047 0.60294 0.82392 0.0
O273 O 0.44386 0.45477 0.84011 0.0
O274 O 0.48389 0.38003 0.91483 0.0
O275 O 0.48726 0.39753 0.10435 0.0
O276 O 0.56102 0.64759 0.07045 0.0
O277 O 0.44651 0.48106 0.1609 0.0
O278 O 0.48708 0.62741 0.13771 0.0
C279 C 0.63032 0.46746 -0.00562 0.0
C280 C 0.35257 0.58387 -0.01388 0.0
C281 C 0.45775 0.39631 0.85358 0.0
C282 C 0.52223 0.63769 0.82197 0.0
C283 C 0.46186 0.42211 0.16144 0.0
C284 C 0.53009 0.65913 0.12806 0.0
O285 O 0.59187 0.42779 0.0022 0.0
loop_
_geom_bond_atom_site_label_1
_geom_bond_atom_site_label_2
_geom_bond_distance
_geom_bond_site_symmetry_2
_ccdc_geom_bond_type
C0 C1 1.391 . S
C0 C4 1.391 . S
C0 H42 0.948 . S
C1 C0 1.391 . S
C1 C2 1.393 . S
C2 C1 1.393 . S
C2 H58 0.943 1_455 S
C2 C59 1.393 . S
C3 C4 1.391 . S
C3 C7 1.397 . S
C3 C59 1.419 . S
C4 C0 1.391 . S
C4 C3 1.391 . S
C4 C5 1.399 . S
C5 C4 1.399 . S
C5 C8 1.396 . S
C5 C17 1.453 . S
C5 C18 1.684 . S
H6 C30 0.948 . S
C7 C3 1.397 . S
C7 C8 1.394 . S
C7 C26 1.723 1_556 S
C8 C5 1.396 . S
C8 C7 1.394 . S
C8 C38 1.723 . S
H9 C32 0.947 . S
H10 C33 0.948 . S
H11 C39 0.982 . S
H12 C40 0.979 . S
H13 C40 0.980 . S
H14 C40 0.983 . S
H15 C39 0.979 . S
H16 C39 0.977 . S
C17 C5 1.453 . S
C17 H46 0.982 . S
C17 H47 0.979 . S
C17 H48 0.977 . S
C18 C5 1.684 . S
C18 H43 0.979 . S
C18 H44 0.980 . S
C18 H45 0.983 . S
C19 C20 1.391 . S
C19 C24 1.391 . S
C19 H49 0.948 1_455 S
C20 C19 1.391 . S
C20 C21 1.391 . S
C21 C20 1.391 . S
C21 C22 1.392 . S
C21 H50 0.947 . S
C22 C21 1.392 . S
C22 C23 1.419 . S
C22 H51 0.948 . S
C23 C22 1.419 . S
C23 C24 1.391 . S
C23 C27 1.397 . S
C24 C19 1.391 . S
C24 C23 1.391 . S
C24 C25 1.399 . S
C25 C24 1.399 . S
C25 C26 1.396 . S
C25 C28 1.453 . S
C25 C29 1.684 1_455 S
C26 C7 1.723 1_554 S
C26 C25 1.396 . S
C26 C27 1.394 . S
C27 C23 1.397 . S
C27 C26 1.394 . S
C27 C37 1.723 . S
C28 C25 1.453 . S
C28 H52 0.982 . S
C28 H53 0.979 . S
C28 H54 0.977 . S
C29 C25 1.684 1_655 S
C29 H55 0.979 . S
C29 H56 0.980 1_554 S
C29 H57 0.983 . S
C30 H6 0.948 . S
C30 C31 1.402 . S
C30 C35 1.391 . S
C31 C30 1.402 . S
C31 C32 1.379 1_554 S
C32 H9 0.947 . S
C32 C31 1.379 1_556 S
C32 C33 1.392 . S
C33 H10 0.948 . S
C33 C32 1.392 . S
C33 C34 1.419 . S
C34 C33 1.419 . S
C34 C35 1.391 1_556 S
C34 C38 1.397 . S
C35 C30 1.391 . S
C35 C34 1.391 1_554 S
C35 C36 1.399 . S
C36 C35 1.399 . S
C36 C37 1.396 . S
C36 C39 1.453 . S
C36 C40 1.684 . S
C37 C27 1.723 . S
C37 C36 1.396 . S
C37 C38 1.394 1_554 S
C38 C8 1.723 . S
C38 C34 1.397 . S
C38 C37 1.394 1_556 S
C39 H11 0.982 . S
C39 H15 0.979 . S
C39 H16 0.977 . S
C39 C36 1.453 . S
C40 H12 0.979 . S
C40 H13 0.980 . S
C40 H14 0.983 . S
C40 C36 1.684 . S
H41 C59 0.948 1_655 S
H42 C0 0.948 . S
H43 C18 0.979 . S
H44 C18 0.980 . S
H45 C18 0.983 . S
H46 C17 0.982 . S
H47 C17 0.979 . S
H48 C17 0.977 . S
H49 C19 0.948 1_655 S
H50 C21 0.947 . S
H51 C22 0.948 . S
H52 C28 0.982 . S
H53 C28 0.979 . S
H54 C28 0.977 . S
H55 C29 0.979 . S
H56 C29 0.980 1_556 S
H57 C29 0.983 . S
H58 C2 0.943 1_655 S
C59 C2 1.393 . S
C59 C3 1.419 . S
C59 H41 0.948 1_455 S
C60 C61 1.391 . S
C60 C64 1.391 . S
C60 H102 0.948 . S
C61 C60 1.391 . S
C61 C62 1.391 . S
C62 C61 1.391 . S
C62 H118 0.947 . S
C62 C119 1.392 . S
C63 C64 1.391 . S
C63 C67 1.397 . S
C63 C119 1.419 . S
C64 C60 1.391 . S
C64 C63 1.391 . S
C64 C65 1.399 . S
C65 C64 1.399 . S
C65 C68 1.396 . S
C65 C77 1.453 . S
C65 C78 1.684 . S
H66 C90 0.948 . S
C67 C63 1.397 . S
C67 C68 1.394 . S
C67 C86 1.723 . S
C68 C65 1.396 . S
C68 C67 1.394 . S
C68 C98 1.723 . S
H69 C92 0.947 . S
H70 C93 0.948 . S
H71 C99 0.982 . S
H72 C100 0.979 . S
H73 C100 0.980 . S
H74 C100 0.983 . S
H75 C99 0.979 . S
H76 C99 0.977 . S
C77 C65 1.453 . S
C77 H106 0.982 . S
C77 H107 0.979 . S
C77 H108 0.977 . S
C78 C65 1.684 . S
C78 H103 0.979 . S
C78 H104 0.980 . S
C78 H105 0.983 . S
C79 C80 1.391 . S
C79 C84 1.391 . S
C79 H109 0.948 . S
C80 C79 1.391 . S
C80 C81 1.391 . S
C81 C80 1.391 . S
C81 C82 1.392 . S
C81 H110 0.947 . S
C82 C81 1.392 . S
C82 C83 1.419 . S
C82 H111 0.948 . S
C83 C82 1.419 . S
C83 C84 1.391 . S
C83 C87 1.397 . S
C84 C79 1.391 . S
C84 C83 1.391 . S
C84 C85 1.399 . S
C85 C84 1.399 . S
C85 C86 1.396 . S
C85 C88 1.453 . S
C85 C89 1.684 . S
C86 C67 1.723 . S
C86 C85 1.396 . S
C86 C87 1.394 . S
C87 C83 1.397 . S
C87 C86 1.394 . S
C87 C97 1.723 . S
C88 C85 1.453 . S
C88 H112 0.982 . S
C88 H113 0.979 . S
C88 H114 0.977 . S
C89 C85 1.684 . S
C89 H115 0.979 . S
C89 H116 0.980 . S
C89 H117 0.983 . S
C90 H66 0.948 . S
C90 C91 1.391 . S
C90 C95 1.391 . S
C91 C90 1.391 . S
C91 C92 1.391 . S
C92 H69 0.947 . S
C92 C91 1.391 . S
C92 C93 1.392 . S
C93 H70 0.948 . S
C93 C92 1.392 . S
C93 C94 1.419 . S
C94 C93 1.419 . S
C94 C95 1.391 . S
C94 C98 1.397 . S
C95 C90 1.391 . S
C95 C94 1.391 . S
C95 C96 1.399 . S
C96 C95 1.399 . S
C96 C97 1.396 . S
C96 C99 1.453 . S
C96 C100 1.684 . S
C97 C87 1.723 . S
C97 C96 1.396 . S
C97 C98 1.394 . S
C98 C68 1.723 . S
C98 C94 1.397 . S
C98 C97 1.394 . S
C99 H71 0.982 . S
C99 H75 0.979 . S
C99 H76 0.977 . S
C99 C96 1.453 . S
C100 H72 0.979 . S
C100 H73 0.980 . S
C100 H74 0.983 . S
C100 C96 1.684 . S
H101 C119 0.948 . S
H102 C60 0.948 . S
H103 C78 0.979 . S
H104 C78 0.980 . S
H105 C78 0.983 . S
H106 C77 0.982 . S
H107 C77 0.979 . S
H108 C77 0.977 . S
H109 C79 0.948 . S
H110 C81 0.947 . S
H111 C82 0.948 . S
H112 C88 0.982 . S
H113 C88 0.979 . S
H114 C88 0.977 . S
H115 C89 0.979 . S
H116 C89 0.980 . S
H117 C89 0.983 . S
H118 C62 0.947 . S
C119 C62 1.392 . S
C119 C63 1.419 . S
C119 H101 0.948 . S
C120 C121 1.391 . S
C120 C124 1.391 . S
C120 H162 0.948 . S
C121 C120 1.391 . S
C121 C122 1.391 . S
C122 C121 1.391 . S
C122 H178 0.947 1_655 S
C122 C179 1.392 . S
C123 C124 1.391 . S
C123 C127 1.397 . S
C123 C179 1.419 . S
C124 C120 1.391 . S
C124 C123 1.391 . S
C124 C125 1.399 . S
C125 C124 1.399 . S
C125 C128 1.396 . S
C125 C137 1.453 . S
C125 C138 1.684 . S
H126 C150 0.948 . S
C127 C123 1.397 . S
C127 C128 1.394 . S
C127 C146 1.723 1_554 S
C128 C125 1.396 . S
C128 C127 1.394 . S
C128 C158 1.723 . S
H129 C152 0.947 . S
H130 C153 0.948 . S
H131 C159 0.982 . S
H132 C160 0.979 . S
H133 C160 0.980 . S
H134 C160 0.983 . S
H135 C159 0.979 . S
H136 C159 0.977 . S
C137 C125 1.453 . S
C137 H166 0.982 . S
C137 H167 0.979 . S
C137 H168 0.977 . S
C138 C125 1.684 . S
C138 H163 0.979 . S
C138 H164 0.980 . S
C138 H165 0.983 . S
C139 C140 1.391 . S
C139 C144 1.391 . S
C139 H169 0.948 1_655 S
C140 C139 1.391 . S
C140 C141 1.391 . S
C141 C140 1.391 . S
C141 C142 1.392 . S
C141 H170 0.947 . S
C142 C141 1.392 . S
C142 C143 1.419 . S
C142 H171 0.948 . S
C143 C142 1.419 . S
C143 C144 1.391 . S
C143 C147 1.397 . S
C144 C139 1.391 . S
C144 C143 1.391 . S
C144 C145 1.399 . S
C145 C144 1.399 . S
C145 C146 1.396 . S
C145 C148 1.453 1_655 S
C145 C149 1.684 . S
C146 C127 1.723 1_556 S
C146 C145 1.396 . S
C146 C147 1.394 . S
C147 C143 1.397 . S
C147 C146 1.394 . S
C147 C157 1.723 . S
C148 C145 1.453 1_455 S
C148 H172 0.982 . S
C148 H173 0.979 . S
C148 H174 0.977 1_556 S
C149 C145 1.684 . S
C149 H175 0.979 . S
C149 H176 0.980 1_556 S
C149 H177 0.983 1_655 S
C150 H126 0.948 . S
C150 C151 1.391 1_556 S
C150 C155 1.391 . S
C151 C150 1.391 1_554 S
C151 C152 1.391 . S
C152 H129 0.947 . S
C152 C151 1.391 . S
C152 C153 1.392 . S
C153 H130 0.948 . S
C153 C152 1.392 . S
C153 C154 1.419 . S
C154 C153 1.419 . S
C154 C155 1.391 1_554 S
C154 C158 1.397 . S
C155 C150 1.391 . S
C155 C154 1.391 1_556 S
C155 C156 1.399 . S
C156 C155 1.399 . S
C156 C157 1.396 . S
C156 C159 1.453 . S
C156 C160 1.684 . S
C157 C147 1.723 . S
C157 C156 1.396 . S
C157 C158 1.394 1_556 S
C158 C128 1.723 . S
C158 C154 1.397 . S
C158 C157 1.394 1_554 S
C159 H131 0.982 . S
C159 H135 0.979 . S
C159 H136 0.977 . S
C159 C156 1.453 . S
C160 H132 0.979 . S
C160 H133 0.980 . S
C160 H134 0.983 . S
C160 C156 1.684 . S
H161 C179 0.948 . S
H162 C120 0.948 . S
H163 C138 0.979 . S
H164 C138 0.980 . S
H165 C138 0.983 . S
H166 C137 0.982 . S
H167 C137 0.979 . S
H168 C137 0.977 . S
H169 C139 0.948 1_455 S
H170 C141 0.947 . S
H171 C142 0.948 . S
H172 C148 0.982 . S
H173 C148 0.979 . S
H174 C148 0.977 1_554 S
H175 C149 0.979 . S
H176 C149 0.980 1_554 S
H177 C149 0.983 1_455 S
H178 C122 0.947 1_455 S
C179 C122 1.392 . S
C179 C123 1.419 . S
C179 H161 0.948 . S
C180 C181 1.391 . S
C180 C184 1.391 . S
C180 H222 0.948 . S
C181 C180 1.391 . S
C181 C182 1.391 . S
C182 C181 1.391 . S
C182 H238 0.947 . S
C182 C239 1.392 . S
C183 C184 1.391 . S
C183 C187 1.397 . S
C183 C239 1.419 . S
C184 C180 1.391 . S
C184 C183 1.391 . S
C184 C185 1.399 . S
C185 C184 1.399 . S
C185 C188 1.396 . S
C185 C197 1.453 . S
C185 C198 1.684 . S
H186 C210 0.948 . S
C187 C183 1.397 . S
C187 C188 1.394 . S
C187 C206 1.723 . S
C188 C185 1.396 . S
C188 C187 1.394 . S
C188 C218 1.723 . S
H189 C212 0.947 . S
H190 C213 0.948 . S
H191 C219 0.982 . S
H192 C220 0.979 . S
H193 C220 0.980 . S
H194 C220 0.983 . S
H195 C219 0.979 . S
H196 C219 0.977 . S
C197 C185 1.453 . S
C197 H226 0.982 . S
C197 H227 0.979 . S
C197 H228 0.977 . S
C198 C185 1.684 . S
C198 H223 0.979 . S
C198 H224 0.980 . S
C198 H225 0.983 . S
C199 C200 1.391 . S
C199 C204 1.391 . S
C199 H229 0.948 . S
C200 C199 1.391 . S
C200 C201 1.391 . S
C201 C200 1.391 . S
C201 C202 1.392 . S
C201 H230 0.947 . S
C202 C201 1.392 . S
C202 C203 1.419 . S
C202 H231 0.948 . S
C203 C202 1.419 . S
C203 C204 1.391 . S
C203 C207 1.397 . S
C204 C199 1.391 . S
C204 C203 1.391 . S
C204 C205 1.399 . S
C205 C204 1.399 . S
C205 C206 1.396 . S
C205 C208 1.453 . S
C205 C209 1.684 . S
C206 C187 1.723 . S
C206 C205 1.396 . S
C206 C207 1.394 . S
C207 C203 1.397 . S
C207 C206 1.394 . S
C207 C217 1.723 . S
C208 C205 1.453 . S
C208 H232 0.982 . S
C208 H233 0.979 . S
C208 H234 0.977 . S
C209 C205 1.684 . S
C209 H235 0.979 . S
C209 H236 0.980 . S
C209 H237 0.983 . S
C210 H186 0.948 . S
C210 C211 1.391 . S
C210 C215 1.391 . S
C211 C210 1.391 . S
C211 C212 1.391 . S
C212 H189 0.947 . S
C212 C211 1.391 . S
C212 C213 1.392 . S
C213 H190 0.948 . S
C213 C212 1.392 . S
C213 C214 1.419 . S
C214 C213 1.419 . S
C214 C215 1.391 . S
C214 C218 1.397 . S
C215 C210 1.391 . S
C215 C214 1.391 . S
C215 C216 1.399 . S
C216 C215 1.399 . S
C216 C217 1.396 . S
C216 C219 1.453 . S
C216 C220 1.684 . S
C217 C207 1.723 . S
C217 C216 1.396 . S
C217 C218 1.394 . S
C218 C188 1.723 . S
C218 C214 1.397 . S
C218 C217 1.394 . S
C219 H191 0.982 . S
C219 H195 0.979 . S
C219 H196 0.977 . S
C219 C216 1.453 . S
C220 H192 0.979 . S
C220 H193 0.980 . S
C220 H194 0.983 . S
C220 C216 1.684 . S
H221 C239 0.948 . S
H222 C180 0.948 . S
H223 C198 0.979 . S
H224 C198 0.980 . S
H225 C198 0.983 . S
H226 C197 0.982 . S
H227 C197 0.979 . S
H228 C197 0.977 . S
H229 C199 0.948 . S
H230 C201 0.947 . S
H231 C202 0.948 . S
H232 C208 0.982 . S
H233 C208 0.979 . S
H234 C208 0.977 . S
H235 C209 0.979 . S
H236 C209 0.980 . S
H237 C209 0.983 . S
H238 C182 0.947 . S
C239 C182 1.392 . S
C239 C183 1.419 . S
C239 H221 0.948 . S
O240 Zn241 1.953 1_565 S
O240 C256 1.225 . S
Zn241 O240 1.953 1_545 S
Zn241 O242 1.949 1_655 S
Zn241 O248 1.919 . S
Zn241 O253 1.924 . S
O242 Zn241 1.949 1_455 S
O242 Zn243 1.923 . S
O242 Zn244 1.950 1_445 S
O242 Zn245 1.945 . S
Zn243 O242 1.923 . S
Zn243 O246 1.933 . S
Zn243 O249 1.941 . S
Zn243 O250 1.965 1_545 S
Zn244 O242 1.950 1_665 S
Zn244 O251 1.938 1_655 S
Zn244 O252 1.906 1_655 S
Zn244 O262 1.953 . S
Zn245 O242 1.945 . S
Zn245 O247 1.932 . S
Zn245 O254 1.977 1_545 S
Zn245 O255 1.910 1_455 S
O246 Zn243 1.933 . S
O246 C257 1.226 . S
O247 Zn245 1.932 . S
O247 C257 1.307 . S
O248 Zn241 1.919 . S
O248 C259 1.253 . S
O249 Zn243 1.941 . S
O249 C259 1.283 1_455 S
O250 Zn243 1.965 1_565 S
O250 C258 1.303 . S
O251 Zn244 1.938 1_455 S
O251 C258 1.247 . S
O252 Zn244 1.906 1_455 S
O252 C260 1.304 . S
O253 Zn241 1.924 . S
O253 C261 1.311 . S
O254 Zn245 1.977 1_565 S
O254 C260 1.272 . S
O255 Zn245 1.910 1_655 S
O255 C261 1.231 . S
C256 O240 1.225 . S
C256 O262 1.298 . S
C257 O246 1.226 . S
C257 O247 1.307 . S
C258 O250 1.303 . S
C258 O251 1.247 . S
C259 O248 1.253 . S
C259 O249 1.283 1_655 S
C260 O252 1.304 . S
C260 O254 1.272 . S
C261 O253 1.311 . S
C261 O255 1.231 . S
O262 Zn244 1.953 . S
O262 C256 1.298 . S
O263 Zn264 1.953 . S
O263 C279 1.225 1_556 S
Zn264 O263 1.953 . S
Zn264 O265 1.949 1_556 S
Zn264 O271 1.919 . S
Zn264 O276 1.924 1_556 S
O265 Zn264 1.949 1_554 S
O265 Zn266 1.923 1_554 S
O265 Zn267 1.950 . S
O265 Zn268 1.945 . S
Zn266 O265 1.923 1_556 S
Zn266 O269 1.933 . S
Zn266 O272 1.941 . S
Zn266 O273 1.965 . S
Zn267 O265 1.950 . S
Zn267 O274 1.938 1_554 S
Zn267 O275 1.906 . S
Zn267 O285 1.953 . S
Zn268 O265 1.945 . S
Zn268 O270 1.932 . S
Zn268 O277 1.977 . S
Zn268 O278 1.910 . S
O269 Zn266 1.933 . S
O269 C280 1.226 1_556 S
O270 Zn268 1.932 . S
O270 C280 1.307 . S
O271 Zn264 1.919 . S
O271 C282 1.253 . S
O272 Zn266 1.941 . S
O272 C282 1.283 . S
O273 Zn266 1.965 . S
O273 C281 1.303 . S
O274 Zn267 1.938 1_556 S
O274 C281 1.247 . S
O275 Zn267 1.906 . S
O275 C283 1.304 . S
O276 Zn264 1.924 1_554 S
O276 C284 1.311 . S
O277 Zn268 1.977 . S
O277 C283 1.272 . S
O278 Zn268 1.910 . S
O278 C284 1.231 . S
C279 O263 1.225 1_554 S
C279 O285 1.298 . S
C280 O269 1.226 1_554 S
C280 O270 1.307 . S
C281 O273 1.303 . S
C281 O274 1.247 . S
C282 O271 1.253 . S
C282 O272 1.283 . S
C283 O275 1.304 . S
C283 O277 1.272 . S
C284 O276 1.311 . S
C284 O278 1.231 . S
O285 Zn267 1.953 . S
O285 C279 1.298 . S
C257 C211 2.043 . S
C31 C280 2.261 . S
C91 C256 2.220 . S
C151 C279 2.004 . S
C260 C20 2.581 . S
C282 C61 2.071 . S
C121 C261 2.197 . S
C200 C281 1.868 . S
C284 C80 2.492 . S
C259 C140 2.083 . S
C283 C181 2.249 . S
C1 C258 1.908 . S
