# Generated by pormake.
# Topology zzz, (3,6)-cn, num edge types: 1
# Building blocks:
#     Node 0, Type 0, BuildingBlock: BELTOD_clean_linker_0, # of connection points: 3
#     Node 1, Type 0, BuildingBlock: BELTOD_clean_linker_0, # of connection points: 3
#     Node 2, Type 0, BuildingBlock: BELTOD_clean_linker_0, # of connection points: 3
#     Node 3, Type 0, BuildingBlock: BELTOD_clean_linker_0, # of connection points: 3
#     Node 4, Type 0, BuildingBlock: BELTOD_clean_linker_0, # of connection points: 3
#     Node 5, Type 0, BuildingBlock: BELTOD_clean_linker_0, # of connection points: 3
#     Node 6, Type 0, BuildingBlock: BELTOD_clean_linker_0, # of connection points: 3
#     Node 7, Type 0, BuildingBlock: BELTOD_clean_linker_0, # of connection points: 3
#     Node 8, Type 1, BuildingBlock: KUMBUR_clean_sbu_1, # of connection points: 6
#     Node 9, Type 1, BuildingBlock: KUMBUR_clean_sbu_1, # of connection points: 6
#     Node 10, Type 1, BuildingBlock: KUMBUR_clean_sbu_1, # of connection points: 6
#     Node 11, Type 1, BuildingBlock: KUMBUR_clean_sbu_1, # of connection points: 6
#     Edge 12, Type (0, 1), BuildingBlock: XIVTED_clean_linker_0, # of connection points: 2
#     Edge 13, Type (0, 1), BuildingBlock: XIVTED_clean_linker_0, # of connection points: 2
#     Edge 14, Type (0, 1), BuildingBlock: XIVTED_clean_linker_0, # of connection points: 2
#     Edge 15, Type (0, 1), BuildingBlock: XIVTED_clean_linker_0, # of connection points: 2
#     Edge 16, Type (0, 1), BuildingBlock: XIVTED_clean_linker_0, # of connection points: 2
#     Edge 17, Type (0, 1), BuildingBlock: XIVTED_clean_linker_0, # of connection points: 2
#     Edge 18, Type (0, 1), BuildingBlock: XIVTED_clean_linker_0, # of connection points: 2
#     Edge 19, Type (0, 1), BuildingBlock: XIVTED_clean_linker_0, # of connection points: 2
#     Edge 20, Type (0, 1), BuildingBlock: XIVTED_clean_linker_0, # of connection points: 2
#     Edge 21, Type (0, 1), BuildingBlock: XIVTED_clean_linker_0, # of connection points: 2
#     Edge 22, Type (0, 1), BuildingBlock: XIVTED_clean_linker_0, # of connection points: 2
#     Edge 23, Type (0, 1), BuildingBlock: XIVTED_clean_linker_0, # of connection points: 2
#     Edge 24, Type (0, 1), BuildingBlock: XIVTED_clean_linker_0, # of connection points: 2
#     Edge 25, Type (0, 1), BuildingBlock: XIVTED_clean_linker_0, # of connection points: 2
#     Edge 26, Type (0, 1), BuildingBlock: XIVTED_clean_linker_0, # of connection points: 2
#     Edge 27, Type (0, 1), BuildingBlock: XIVTED_clean_linker_0, # of connection points: 2
#     Edge 28, Type (0, 1), BuildingBlock: XIVTED_clean_linker_0, # of connection points: 2
#     Edge 29, Type (0, 1), BuildingBlock: XIVTED_clean_linker_0, # of connection points: 2
#     Edge 30, Type (0, 1), BuildingBlock: XIVTED_clean_linker_0, # of connection points: 2
#     Edge 31, Type (0, 1), BuildingBlock: XIVTED_clean_linker_0, # of connection points: 2
#     Edge 32, Type (0, 1), BuildingBlock: XIVTED_clean_linker_0, # of connection points: 2
#     Edge 33, Type (0, 1), BuildingBlock: XIVTED_clean_linker_0, # of connection points: 2
#     Edge 34, Type (0, 1), BuildingBlock: XIVTED_clean_linker_0, # of connection points: 2
#     Edge 35, Type (0, 1), BuildingBlock: XIVTED_clean_linker_0, # of connection points: 2
# Relax obj value: 0.301
# Max RMSD: 0.192
# Mean RMSD: 0.171
data_MOF--net-zzz--node1-KUMBUR_clean_sbu_1--node2-BELTOD_clean_linker_0--edge1-XIVTED_clean_linker_0
_symmetry_space_group_name_H-M    P1
_symmetry_Int_Tables_number       1
_symmetry_cell_setting            triclinic
loop_
_symmetry_equiv_pos_as_xyz
'x, y, z'
_cell_length_a     53.207466
_cell_length_b     53.262598
_cell_length_c     19.584133
_cell_angle_alpha  89.942307
_cell_angle_beta   89.826999
_cell_angle_gamma 90.382861
loop_
_atom_site_label
_atom_site_type_symbol
_atom_site_fract_x
_atom_site_fract_y
_atom_site_fract_z
_atom_type_partial_charge
P0 P 0.74594 0.51784 0.21068 0.0
H1 H 0.75404 0.49078 0.33828 0.0
H2 H 0.78704 0.49411 0.42383 0.0
H3 H 0.81061 0.56508 0.33696 0.0
H4 H 0.77666 0.56206 0.25321 0.0
H5 H 0.70208 0.48479 0.20208 0.0
H6 H 0.66172 0.49143 0.14987 0.0
H7 H 0.67466 0.57167 0.15351 0.0
H8 H 0.71615 0.56454 0.20401 0.0
H9 H 0.79841 0.52812 0.17331 0.0
H10 H 0.72577 0.53304 0.07658 0.0
O11 O 0.7494 0.48689 0.20161 0.0
H12 H 0.81848 0.54003 0.06643 0.0
H13 H 0.7458 0.54519 0.9701 0.0
C14 C 0.7632 0.52581 0.28788 0.0
C15 C 0.76576 0.50749 0.33885 0.0
C16 C 0.78501 0.50924 0.38733 0.0
C17 C 0.80231 0.5294 0.38607 0.0
C18 C 0.79794 0.54913 0.3395 0.0
C19 C 0.77842 0.54744 0.29131 0.0
C20 C 0.71246 0.52412 0.20661 0.0
C21 C 0.69605 0.50394 0.19416 0.0
C22 C 0.67265 0.50784 0.16384 0.0
C23 C 0.6648 0.53214 0.14555 0.0
C24 C 0.68019 0.55261 0.165 0.0
C25 C 0.70377 0.54863 0.19547 0.0
C26 C 0.76041 0.53096 0.13491 0.0
C27 C 0.78663 0.53292 0.13035 0.0
C28 C 0.79814 0.53973 0.06887 0.0
C29 C 0.78367 0.54403 1.01003 0.0
C30 C 0.75741 0.54231 0.01473 0.0
C31 C 0.74592 0.5356 0.07632 0.0
P32 P 0.01052 0.74917 0.21304 0.0
H33 H 0.0358 0.75741 0.34324 0.0
H34 H 0.03158 0.79052 0.42816 0.0
H35 H 0.96214 0.81375 0.33407 0.0
H36 H 0.96592 0.7796 0.25143 0.0
H37 H 0.04383 0.70609 0.20146 0.0
H38 H 0.03716 0.66577 0.14886 0.0
H39 H 0.95678 0.67698 0.15763 0.0
H40 H 0.96394 0.7185 0.20833 0.0
H41 H 1.00113 0.80139 0.1742 0.0
H42 H 0.99561 0.72846 0.07892 0.0
O43 O 0.04156 0.75324 0.20605 0.0
H44 H 0.98931 0.82102 0.06707 0.0
H45 H 0.98372 0.74809 0.97206 0.0
C46 C 1.00158 0.76636 0.28951 0.0
C47 C 0.01921 0.76906 0.34215 0.0
C48 C 0.01696 0.7884 0.39023 0.0
C49 C 0.99704 0.80568 0.38674 0.0
C50 C 0.97792 0.80113 0.33843 0.0
C51 C 0.98005 0.78149 0.29079 0.0
C52 C 1.00443 0.71563 0.20866 0.0
C53 C 0.02467 0.69968 0.19463 0.0
C54 C 0.02074 0.67629 0.16407 0.0
C55 C 0.99636 0.66796 0.1471 0.0
C56 C 0.97588 0.68288 0.16807 0.0
C57 C 0.97989 0.70647 0.19867 0.0
C58 C 0.99797 0.76329 0.13654 0.0
C59 C 0.99628 0.78946 0.13146 0.0
C60 C 0.98953 0.80071 0.06988 0.0
C61 C 0.98506 0.78604 0.01142 0.0
C62 C 0.98668 0.75984 0.01648 0.0
C63 C 0.99328 0.74859 0.07824 0.0
P64 P 0.78488 0.02401 0.2539 0.0
H65 H 0.77385 0.05237 0.37891 0.0
H66 H 0.74065 0.04516 0.46277 0.0
H67 H 0.7333 0.96855 0.39392 0.0
H68 H 0.76695 0.97578 0.31042 0.0
H69 H 0.82783 0.05533 0.21655 0.0
H70 H 0.86559 0.04684 0.15269 0.0
H71 H 0.85097 0.96709 0.16921 0.0
H72 H 0.81198 0.97609 0.23196 0.0
H73 H 0.73062 0.01937 0.25627 0.0
H74 H 0.79034 1.00267 0.11374 0.0
O75 O 0.7819 0.05513 0.24824 0.0
H76 H 0.70023 1.001 0.17886 0.0
H77 H 0.7594 0.98471 0.03461 0.0
C78 C 0.77274 0.01476 0.33717 0.0
C79 C 0.76608 0.03362 0.38387 0.0
C80 C 0.74685 0.02952 0.43184 0.0
C81 C 0.73378 1.00649 0.43383 0.0
C82 C 0.74266 0.98667 0.39286 0.0
C83 C 0.76225 0.99067 0.34575 0.0
C84 C 0.81687 0.01639 0.22936 0.0
C85 C 0.83292 0.03593 0.20841 0.0
C86 C 0.85484 0.03096 0.17156 0.0
C87 C 0.86158 1.0062 0.15473 0.0
C88 C 0.84631 0.98644 0.17996 0.0
C89 C 0.82418 0.99151 0.21702 0.0
C90 C 0.763 0.01125 0.19276 0.0
C91 C 0.73735 0.01126 0.20901 0.0
C92 C 0.71994 1.00066 0.16475 0.0
C93 C 0.72766 0.99058 0.10199 0.0
C94 C 0.75318 0.99171 0.0837 0.0
C95 C 0.77081 1.00195 0.12902 0.0
P96 P 0.50758 0.78996 0.2366 0.0
H97 H 0.48184 0.78028 0.36632 0.0
H98 H 0.48628 0.74667 0.44954 0.0
H99 H 0.55638 0.72517 0.35482 0.0
H100 H 0.5523 0.75984 0.27368 0.0
H101 H 0.48297 0.83839 0.25706 0.0
H102 H 0.4892 0.87756 0.19543 0.0
H103 H 0.56152 0.85164 0.125 0.0
H104 H 0.55561 0.81283 0.19018 0.0
H105 H 0.51366 0.73616 0.20697 0.0
H106 H 0.51525 0.8057 0.09368 0.0
O107 O 0.47622 0.79072 0.23634 0.0
H108 H 0.52218 0.7132 0.10283 0.0
H109 H 0.52517 0.78298 0.99009 0.0
C110 C 0.5164 0.77229 0.31236 0.0
C111 C 0.4986 0.76888 0.36462 0.0
C112 C 0.50097 0.74924 0.41177 0.0
C113 C 0.52118 0.73232 0.40771 0.0
C114 C 0.5404 0.73752 0.35973 0.0
C115 C 0.53816 0.7575 0.3131 0.0
C116 C 0.51843 0.82219 0.22648 0.0
C117 C 0.50069 0.84148 0.23096 0.0
C118 C 0.50411 0.86383 0.1944 0.0
C119 C 0.52528 0.86734 0.15195 0.0
C120 C 0.54477 0.84958 0.15604 0.0
C121 C 0.5415 0.82733 0.19399 0.0
C122 C 0.51567 0.77296 0.15988 0.0
C123 C 0.51708 0.7467 0.16062 0.0
C124 C 0.52201 0.73351 0.10061 0.0
C125 C 0.52512 0.74627 0.03814 0.0
C126 C 0.52324 0.77255 0.03732 0.0
C127 C 0.518 0.78566 0.09724 0.0
P128 P 0.28514 0.45764 0.07545 0.0
H129 H 0.27172 0.4474 0.93283 0.0
H130 H 0.23688 0.46201 0.86365 0.0
H131 H 0.22201 0.52021 0.01166 0.0
H132 H 0.25655 0.50479 0.08195 0.0
H133 H 0.33301 0.43384 0.10397 0.0
H134 H 0.36877 0.44658 0.1722 0.0
H135 H 0.33899 0.52172 0.18506 0.0
H136 H 0.30262 0.50846 0.11691 0.0
H137 H 0.23371 0.43933 0.08892 0.0
H138 H 0.2913 0.46786 0.22351 0.0
O139 O 0.29008 0.42891 0.04441 0.0
H140 H 0.20324 0.44112 0.18242 0.0
H141 H 0.26103 0.47072 0.31526 0.0
C142 C 0.26692 0.47493 0.01293 0.0
C143 C 0.26155 0.46382 0.94956 0.0
C144 C 0.24142 0.47225 0.90975 0.0
C145 C 0.22609 0.49206 0.9323 0.0
C146 C 0.23292 0.50453 0.99314 0.0
C147 C 0.25307 0.49603 0.03298 0.0
C148 C 0.31513 0.47023 0.10405 0.0
C149 C 0.33448 0.45333 0.11911 0.0
C150 C 0.35509 0.46069 0.15869 0.0
C151 C 0.3569 0.4852 0.18505 0.0
C152 C 0.33816 0.50258 0.16659 0.0
C153 C 0.31749 0.49516 0.12649 0.0
C154 C 0.26464 0.45411 0.14835 0.0
C155 C 0.2399 0.44568 0.13868 0.0
C156 C 0.22247 0.44685 0.19207 0.0
C157 C 0.22955 0.45648 0.25611 0.0
C158 C 0.25487 0.46307 0.26687 0.0
C159 C 0.27226 0.46179 0.21361 0.0
P160 P 0.06956 0.28792 0.08061 0.0
H161 H 0.0851 0.27253 0.94318 0.0
H162 H 0.07047 0.23865 0.86998 0.0
H163 H 1.00457 0.22957 0.99722 0.0
H164 H 0.01971 0.26337 0.07141 0.0
H165 H 0.09504 0.33569 0.10434 0.0
H166 H 0.08356 0.37166 0.17223 0.0
H167 H 0.00688 0.34432 0.18204 0.0
H168 H 0.01919 0.30727 0.11664 0.0
H169 H 0.06833 0.23333 0.10355 0.0
H170 H 0.07043 0.30041 0.22724 0.0
O171 O 0.09978 0.29083 0.05869 0.0
H172 H 0.06035 0.20818 0.20534 0.0
H173 H 0.06325 0.27528 0.3291 0.0
C174 C 0.05362 0.27059 0.0133 0.0
C175 C 0.06707 0.2639 0.95433 0.0
C176 C 0.05864 0.24435 0.91221 0.0
C177 C 0.03652 0.23089 0.92809 0.0
C178 C 0.02196 0.2391 0.98401 0.0
C179 C 0.03037 0.25881 0.02597 0.0
C180 C 0.05796 0.31872 0.10423 0.0
C181 C 0.07551 0.33775 0.11884 0.0
C182 C 0.06883 0.35855 0.15834 0.0
C183 C 0.04424 0.36113 0.18421 0.0
C184 C 0.02617 0.34291 0.16488 0.0
C185 C 0.03302 0.32185 0.12589 0.0
C186 C 0.06849 0.26896 0.15697 0.0
C187 C 0.06718 0.2427 0.15247 0.0
C188 C 0.06296 0.22825 0.21098 0.0
C189 C 0.06055 0.23983 0.27517 0.0
C190 C 0.06422 0.2659 0.28012 0.0
C191 C 0.06829 0.28032 0.22159 0.0
P192 P 0.22835 0.07238 0.04134 0.0
H193 H 0.23582 0.06108 0.89546 0.0
H194 H 0.2724 0.04593 0.83316 0.0
H195 H 0.30832 0.02827 0.02524 0.0
H196 H 0.27085 0.04118 0.08574 0.0
H197 H 0.1762 0.08843 0.04933 0.0
H198 H 0.14197 0.07654 0.12516 0.0
H199 H 0.1856 0.01395 0.19857 0.0
H200 H 0.2195 0.02542 0.1192 0.0
H201 H 0.27319 0.10408 0.0407 0.0
H202 H 0.22365 0.07208 0.19283 0.0
O203 O 0.21945 0.09533 0.9888 0.0
H204 H 0.3062 0.10804 0.12627 0.0
H205 H 0.25661 0.07409 0.27609 0.0
C206 C 0.2506 0.05274 0.99551 0.0
C207 C 0.25122 0.05304 0.92393 0.0
C208 C 0.2726 0.04483 0.8883 0.0
C209 C 0.29421 0.03661 0.92344 0.0
C210 C 0.29246 0.03434 0.9952 0.0
C211 C 0.27081 0.04187 0.03048 0.0
C212 C 0.20048 0.05777 0.07797 0.0
C213 C 0.17812 0.07156 0.07967 0.0
C214 C 0.15862 0.06497 0.1244 0.0
C215 C 0.16112 0.04469 0.16999 0.0
C216 C 0.18282 0.02968 0.16444 0.0
C217 C 0.20225 0.0361 0.11857 0.0
C218 C 0.24638 0.08654 0.10919 0.0
C219 C 0.26909 0.09865 0.0929 0.0
C220 C 0.28807 0.1006 0.14179 0.0
C221 C 0.2846 0.09014 0.20726 0.0
C222 C 0.26036 0.08193 0.22606 0.0
C223 C 0.24136 0.08032 0.17747 0.0
P224 P 0.45754 0.2372 0.05947 0.0
H225 H 0.45374 0.24957 0.91378 0.0
H226 H 0.46676 0.28662 0.84958 0.0
H227 H 0.51057 0.3118 0.02218 0.0
H228 H 0.49817 0.27407 0.08507 0.0
H229 H 0.44505 0.18379 0.06421 0.0
H230 H 0.45789 0.15099 0.1431 0.0
H231 H 0.51801 0.19848 0.21613 0.0
H232 H 0.50489 0.23164 0.1368 0.0
H233 H 0.44207 0.28967 0.07627 0.0
H234 H 0.44676 0.2236 0.2033 0.0
O235 O 0.43222 0.22707 0.0173 0.0
H236 H 0.44196 0.31596 0.17728 0.0
H237 H 0.44584 0.24981 0.3049 0.0
C238 C 0.47481 0.25893 1.00466 0.0
C239 C 0.46683 0.26258 0.93718 0.0
C240 C 0.47399 0.28415 0.90073 0.0
C241 C 0.48915 0.30283 0.93106 0.0
C242 C 0.4989 0.29801 0.99669 0.0
C243 C 0.49193 0.27622 0.03283 0.0
C244 C 0.4741 0.21027 0.09368 0.0
C245 C 0.46164 0.18695 0.09495 0.0
C246 C 0.4688 0.16822 0.14093 0.0
C247 C 0.48869 0.17227 0.18677 0.0
C248 C 0.50264 0.19475 0.18138 0.0
C249 C 0.49531 0.21366 0.13543 0.0
C250 C 0.44659 0.25487 0.1321 0.0
C251 C 0.44249 0.28073 0.12592 0.0
C252 C 0.44202 0.29578 0.18411 0.0
C253 C 0.44502 0.285 0.24921 0.0
C254 C 0.44454 0.25871 0.25528 0.0
C255 C 0.44524 0.24371 0.19696 0.0
Tb256 Tb 0.98376 0.03004 0.61432 0.0
C257 C 0.07806 0.05269 0.75712 0.0
N258 N 0.0742 0.0359 0.70583 0.0
C259 C 0.10865 0.05427 0.6432 0.0
C260 C 0.09639 0.07183 0.75169 0.0
C261 C 0.09041 0.03546 0.65148 0.0
C262 C 0.11131 0.07286 0.69285 0.0
C263 C 0.06815 0.06627 0.87226 0.0
C264 C 0.0644 0.04988 0.81678 0.0
C265 C 0.08564 0.08601 0.86614 0.0
C266 C 0.09975 0.08879 0.80594 0.0
Tb267 Tb 0.04253 1.00699 0.72442 0.0
N268 N 0.04709 0.03108 0.81993 0.0
C269 C 0.05425 0.06219 0.93216 0.0
C270 C 0.03431 0.02625 0.87915 0.0
C271 C 0.03747 0.04191 0.93586 0.0
H272 H 0.09 0.02032 0.61508 0.0
H273 H 0.02692 0.03838 0.98226 0.0
H274 H 0.93673 0.99769 0.67932 0.0
H275 H 0.00745 0.05027 0.35097 0.0
H276 H 0.02135 0.01059 0.88207 0.0
H277 H 0.05656 0.07437 0.97599 0.0
H278 H 1.00595 0.05863 0.47477 0.0
H279 H 0.12098 0.0541 0.59915 0.0
H280 H 0.08867 0.09898 0.90794 0.0
H281 H 0.11357 0.10377 0.80243 0.0
H282 H 0.90565 0.96598 0.64002 0.0
H283 H 0.12563 0.08725 0.68664 0.0
H284 H 0.98375 0.01428 0.30283 0.0
N285 N 0.95473 1.00064 0.58259 0.0
C286 C 0.95421 0.99428 0.51568 0.0
C287 C 0.91936 0.97363 0.60463 0.0
C288 C 0.93701 0.97631 0.49082 0.0
C289 C 0.93693 0.99152 0.62675 0.0
C290 C 0.91966 0.96567 0.53656 0.0
N291 N 0.98426 0.02595 0.49779 0.0
C292 C 0.99661 0.04214 0.4549 0.0
C293 C 0.96924 1.00226 0.40106 0.0
C294 C 0.96993 1.00714 0.47174 0.0
C295 C 0.98369 0.01742 0.35749 0.0
C296 C 0.99709 0.03774 0.38447 0.0
H297 H 0.90604 0.95185 0.51951 0.0
H298 H 0.92429 0.95631 0.40081 0.0
H299 H 0.95267 0.979 0.32204 0.0
O300 O 0.96099 0.05718 0.5668 0.0
O301 O 0.98794 0.98886 0.6277 0.0
O302 O 0.03053 0.98254 0.64047 0.0
O303 O 0.9575 0.04943 0.67391 0.0
O304 O 0.02205 0.03982 0.57855 0.0
O305 O 0.04726 1.00725 0.61253 0.0
O306 O 0.04568 0.97762 0.7949 0.0
O307 O 0.02124 0.0412 0.74861 0.0
O308 O 0.013 0.05703 0.6439 0.0
O309 O 0.0778 0.98969 0.73679 0.0
O310 O 1.00581 0.99282 0.76087 0.0
O311 O 0.9776 0.02295 0.72349 0.0
C312 C 0.008 0.97454 0.62291 0.0
C313 C 0.95456 0.09156 0.64238 0.0
C314 C 0.974 0.13267 0.62262 0.0
C315 C 0.96435 0.1409 0.68567 0.0
C316 C 0.94479 0.10034 0.70456 0.0
C317 C 0.94972 0.12485 0.726 0.0
C318 C 0.96885 0.10794 0.60127 0.0
C319 C 0.0407 0.02424 0.56711 0.0
C320 C 0.95178 0.06474 0.62484 0.0
C321 C 0.93713 0.97031 0.42096 0.0
C322 C 0.95331 0.98322 0.37613 0.0
C323 C 0.01849 0.06059 0.70828 0.0
C324 C 0.07261 0.94616 0.75358 0.0
C325 C 0.05568 0.90418 0.73066 0.0
C326 C 0.08049 0.89543 0.72287 0.0
C327 C 0.09707 0.93704 0.74604 0.0
C328 C 0.0521 0.92998 0.74194 0.0
C329 C 0.10093 0.91189 0.72925 0.0
C330 C 0.98454 1.00527 0.76652 0.0
C331 C 0.06841 0.97225 0.77567 0.0
H332 H 0.96843 0.15959 0.70448 0.0
H333 H 0.93388 0.08801 0.73741 0.0
H334 H 0.9425 0.13131 0.77458 0.0
H335 H 0.97614 0.10134 0.55286 0.0
H336 H 0.08436 0.87573 0.71519 0.0
H337 H 0.11315 0.94929 0.75383 0.0
H338 H 0.03324 0.93739 0.74446 0.0
H339 H 0.11988 0.90487 0.72397 0.0
Tb340 Tb 0.52322 0.0481 0.72662 0.0
C341 C 0.52325 0.93886 0.63249 0.0
N342 N 0.52846 0.95924 0.593 0.0
C343 C 0.56381 0.93789 0.54426 0.0
C344 C 0.53889 0.91761 0.6319 0.0
C345 C 0.54741 0.9583 0.54582 0.0
C346 C 0.55986 0.91767 0.58859 0.0
C347 C 0.49339 0.91679 0.70499 0.0
C348 C 0.50085 0.93838 0.66846 0.0
C349 C 0.50966 0.89617 0.70828 0.0
C350 C 0.5324 0.89659 0.67185 0.0
Tb351 Tb 0.5015 0.99227 0.60562 0.0
N352 N 0.48562 0.95864 0.66394 0.0
C353 C 0.46941 0.91626 0.73473 0.0
C354 C 0.46156 0.9576 0.68858 0.0
C355 C 0.45324 0.93655 0.72525 0.0
H356 H 0.54984 0.9732 0.50893 0.0
H357 H 0.4344 0.936 0.74619 0.0
H358 H 0.46972 0.07882 0.73518 0.0
H359 H 0.61666 0.0803 0.65669 0.0
H360 H 0.44898 0.97316 0.68088 0.0
H361 H 0.46292 0.89998 0.76309 0.0
H362 H 0.58595 0.05357 0.71743 0.0
H363 H 0.57923 0.93758 0.50811 0.0
H364 H 0.50444 0.87949 0.73686 0.0
H365 H 0.54434 0.88019 0.67276 0.0
H366 H 0.45225 0.11858 0.69067 0.0
H367 H 0.57237 0.90171 0.58657 0.0
H368 H 0.60221 0.11745 0.59207 0.0
N369 N 0.50563 0.08464 0.68969 0.0
C370 C 0.52102 0.1008 0.65581 0.0
C371 C 0.47158 0.11369 0.67998 0.0
C372 C 0.51196 0.12357 0.62924 0.0
C373 C 0.48147 0.09121 0.70499 0.0
C374 C 0.48678 0.12977 0.64098 0.0
N375 N 0.55407 0.07322 0.6802 0.0
C376 C 0.57924 0.0688 0.68622 0.0
C377 C 0.56297 0.11109 0.61653 0.0
C378 C 0.54605 0.0946 0.64961 0.0
C379 C 0.58857 0.10529 0.61692 0.0
C380 C 0.59679 0.08431 0.65318 0.0
H381 H 0.47907 0.14712 0.62149 0.0
H382 H 0.52179 0.15695 0.57134 0.0
H383 H 0.56654 0.14603 0.56023 0.0
O384 O 0.5423 0.06916 0.80138 0.0
O385 O 0.50175 0.05283 0.6315 0.0
O386 O 0.51842 0.02528 0.5567 0.0
O387 O 0.50668 0.05188 0.82348 0.0
O388 O 0.55398 0.02298 0.69229 0.0
O389 O 0.5402 1.00636 0.58931 0.0
O390 O 0.47472 1.00468 0.53579 0.0
O391 O 0.50152 0.98799 0.71754 0.0
O392 O 0.53568 0.01021 0.75429 0.0
O393 O 0.49036 0.96776 0.52632 0.0
O394 O 0.4706 0.01474 0.64967 0.0
O395 O 0.48584 0.03252 0.7499 0.0
C396 C 0.51106 0.04809 0.57095 0.0
C397 C 0.53628 0.05142 0.91033 0.0
C398 C 0.56574 0.02262 0.96371 0.0
C399 C 0.55391 0.02689 0.02704 0.0
C400 C 0.52474 0.05551 0.97366 0.0
C401 C 0.53349 0.04316 0.03174 0.0
C402 C 0.55644 0.03469 0.90538 0.0
C403 C 0.55842 0.0133 0.63119 0.0
C404 C 0.52617 0.06321 0.84878 0.0
C405 C 0.52842 0.13951 0.59307 0.0
C406 C 0.55389 0.13325 0.5866 0.0
C407 C 0.5206 0.99069 0.75928 0.0
C408 C 0.4476 0.97383 0.495 0.0
C409 C 0.40518 0.98321 0.45676 0.0
C410 C 0.39654 0.96072 0.4864 0.0
C411 C 0.43892 0.95116 0.5235 0.0
C412 C 0.43073 0.98945 0.46092 0.0
C413 C 0.41345 0.94466 0.51899 0.0
C414 C 0.46722 0.02463 0.71089 0.0
C415 C 0.47336 0.98322 0.50464 0.0
H416 H 0.56084 0.01826 0.07332 0.0
H417 H 0.50888 0.06806 0.978 0.0
H418 H 0.52459 0.04641 0.08069 0.0
H419 H 0.5649 0.0311 0.85596 0.0
H420 H 0.37686 0.9555 0.48378 0.0
H421 H 0.45161 0.93875 0.55014 0.0
H422 H 0.43741 1.00713 0.43981 0.0
H423 H 0.40675 0.92729 0.54149 0.0
Tb424 Tb 0.53941 0.50745 0.61689 0.0
C425 C 0.45468 0.48194 0.80634 0.0
N426 N 0.45383 0.49296 0.74392 0.0
C427 C 0.42051 0.4651 0.71037 0.0
C428 C 0.43934 0.46107 0.82213 0.0
C429 C 0.43631 0.48564 0.69694 0.0
C430 C 0.42227 0.45252 0.77289 0.0
C431 C 0.47165 0.48164 0.92077 0.0
C432 C 0.47055 0.49218 0.85477 0.0
C433 C 0.45748 0.45995 0.93583 0.0
C434 C 0.44127 0.44974 0.88667 0.0
Tb435 Tb 0.47953 0.52683 0.72747 0.0
N436 N 0.48346 0.51349 0.83862 0.0
C437 C 0.48611 0.49381 0.97039 0.0
C438 C 0.49546 0.52671 0.88896 0.0
C439 C 0.49764 0.51672 0.95475 0.0
H440 H 0.43495 0.4954 0.64871 0.0
H441 H 0.50782 0.52695 0.9937 0.0
H442 H 0.58775 0.50614 0.72642 0.0
H443 H 0.53262 0.54843 0.36604 0.0
H444 H 0.50315 0.54519 0.87932 0.0
H445 H 0.48751 0.48631 0.02168 0.0
H446 H 0.52069 0.51956 0.45996 0.0
H447 H 0.40703 0.45896 0.67252 0.0
H448 H 0.4583 0.45142 0.98603 0.0
H449 H 0.42993 0.43343 0.89956 0.0
H450 H 0.62615 0.53094 0.74709 0.0
H451 H 0.4101 0.43655 0.78306 0.0
H452 H 0.56902 0.5772 0.37968 0.0
N453 N 0.57685 0.52736 0.63901 0.0
C454 C 0.58426 0.54473 0.59217 0.0
C455 C 0.61435 0.53526 0.70376 0.0
C456 C 0.60658 0.55878 0.60057 0.0
C457 C 0.59225 0.52153 0.69248 0.0
C458 C 0.62136 0.55426 0.6582 0.0
N459 N 0.54932 0.53276 0.52665 0.0
C460 C 0.53647 0.53218 0.46633 0.0
C461 C 0.57784 0.5639 0.48132 0.0
C462 C 0.57019 0.54726 0.53345 0.0
C463 C 0.56379 0.56466 0.42101 0.0
C464 C 0.54322 0.54845 0.41312 0.0
H465 H 0.63864 0.56467 0.66665 0.0
H466 H 0.63076 0.58739 0.556 0.0
H467 H 0.60554 0.59188 0.45148 0.0
O468 O 0.53303 0.47402 0.56431 0.0
O469 O 0.52229 0.54426 0.59565 0.0
O470 O 0.5045 0.55796 0.69675 0.0
O471 O 0.5714 0.48704 0.58321 0.0
O472 O 0.50241 0.49965 0.56973 0.0
O473 O 0.47446 0.52801 0.61696 0.0
O474 O 0.45628 0.54775 0.79305 0.0
O475 O 0.48738 0.48763 0.69616 0.0
O476 O 0.52963 0.48473 0.7062 0.0
O477 O 0.44793 0.54471 0.68648 0.0
O478 O 0.51624 0.54117 0.76441 0.0
O479 O 0.543 0.51004 0.7286 0.0
C480 C 0.5149 0.56232 0.63667 0.0
C481 C 0.566 0.44705 0.52289 0.0
C482 C 0.55651 0.40624 0.47265 0.0
C483 C 0.58225 0.40281 0.45943 0.0
C484 C 0.59163 0.44351 0.50916 0.0
C485 C 0.59967 0.42141 0.4776 0.0
C486 C 0.54867 0.42833 0.50482 0.0
C487 C 0.48111 0.51229 0.56856 0.0
C488 C 0.55693 0.46969 0.55767 0.0
C489 C 0.6138 0.57624 0.55019 0.0
C490 C 0.59946 0.57878 0.49062 0.0
C491 C 0.50725 0.47489 0.71482 0.0
C492 C 0.43923 0.58296 0.73781 0.0
C493 C 0.45716 0.62518 0.74321 0.0
C494 C 0.4338 0.63488 0.72251 0.0
C495 C 0.41619 0.59289 0.71711 0.0
C496 C 0.45969 0.59905 0.74955 0.0
C497 C 0.41356 0.61878 0.70918 0.0
C498 C 0.53753 0.52878 0.76958 0.0
C499 C 0.44232 0.55575 0.74335 0.0
H500 H 0.58883 0.386 0.43419 0.0
H501 H 0.60538 0.45769 0.52296 0.0
H502 H 0.61945 0.41873 0.467 0.0
H503 H 0.52892 0.43075 0.51675 0.0
H504 H 0.43081 0.6549 0.71856 0.0
H505 H 0.40033 0.58063 0.7068 0.0
H506 H 0.4776 0.59106 0.7635 0.0
H507 H 0.39568 0.62644 0.69354 0.0
Tb508 Tb 0.02495 0.54345 0.61486 0.0
C509 C 0.04863 0.44876 0.75829 0.0
N510 N 0.03176 0.45241 0.70727 0.0
C511 C 0.04964 0.41785 0.64544 0.0
C512 C 0.06756 0.43045 0.75318 0.0
C513 C 0.03104 0.43607 0.65349 0.0
C514 C 0.06831 0.41537 0.69483 0.0
C515 C 0.06236 0.45891 0.87302 0.0
C516 C 0.04603 0.46256 0.81749 0.0
C517 C 0.08193 0.44146 0.8672 0.0
C518 C 0.08453 0.42726 0.80734 0.0
Tb519 Tb 1.00319 0.48402 0.725 0.0
N520 N 0.02736 0.47975 0.82034 0.0
C521 C 0.05838 0.47281 0.9327 0.0
C522 C 0.02264 0.49257 0.87934 0.0
C523 C 0.03823 0.4895 0.93612 0.0
H524 H 0.01578 0.43635 0.61755 0.0
H525 H 0.03475 0.50003 0.98237 0.0
H526 H 0.99431 0.58955 0.68889 0.0
H527 H 0.0373 0.52202 0.34661 0.0
H528 H 0.00704 0.50539 0.88221 0.0
H529 H 0.07051 0.47056 0.97659 0.0
H530 H 0.04973 0.52332 0.46774 0.0
H531 H 0.04923 0.40538 0.60183 0.0
H532 H 0.09487 0.43852 0.90902 0.0
H533 H 0.09935 0.41345 0.80408 0.0
H534 H 0.9611 0.61989 0.658 0.0
H535 H 0.08253 0.40105 0.68887 0.0
H536 H 0.9993 0.54457 0.30848 0.0
N537 N 0.99436 0.57193 0.59151 0.0
C538 C 0.98594 0.57257 0.52625 0.0
C539 C 0.96776 0.60651 0.62064 0.0
C540 C 0.96706 0.58943 0.5062 0.0
C541 C 0.98647 0.58931 0.63806 0.0
C542 C 0.95771 0.60631 0.5547 0.0
N543 N 0.01718 0.54317 0.49978 0.0
C544 C 0.03228 0.53185 0.45254 0.0
C545 C 0.99026 0.55815 0.40976 0.0
C546 C 0.99743 0.55722 0.47895 0.0
C547 C 1.00419 0.5444 0.36215 0.0
C548 C 0.02562 0.53163 0.38348 0.0
H549 H 0.94325 0.61964 0.54132 0.0
H550 H 0.94402 0.60194 0.42181 0.0
H551 H 0.96433 0.57447 0.33721 0.0
O552 O 0.0477 0.56895 0.56027 0.0
O553 O 0.98414 0.53815 0.63447 0.0
O554 O 0.97881 0.4954 0.6406 0.0
O555 O 0.04846 0.56803 0.66976 0.0
O556 O 0.03507 0.50596 0.57468 0.0
O557 O 1.00367 0.47932 0.61313 0.0
O558 O 0.97383 0.48083 0.79585 0.0
O559 O 0.03768 0.50552 0.74689 0.0
O560 O 0.0528 0.51493 0.64161 0.0
O561 O 0.98541 0.44875 0.73785 0.0
O562 O 0.98942 0.52046 0.76284 0.0
O563 O 0.0193 0.54935 0.72483 0.0
C564 C 0.97029 0.51784 0.62561 0.0
C565 C 0.08681 0.5745 0.61403 0.0
C566 C 0.12473 0.55251 0.57825 0.0
C567 C 0.13923 0.56977 0.61596 0.0
C568 C 0.10151 0.59154 0.65119 0.0
C569 C 0.12762 0.58908 0.65236 0.0
C570 C 0.09844 0.55482 0.57871 0.0
C571 C 0.0205 0.48602 0.56686 0.0
C572 C 0.05931 0.5765 0.61487 0.0
C573 C 0.95877 0.58939 0.43815 0.0
C574 C 0.97031 0.5737 0.39001 0.0
C575 C 0.05679 0.50877 0.70542 0.0
C576 C 0.9419 0.4542 0.75447 0.0
C577 C 0.90036 0.4716 0.73081 0.0
C578 C 0.89094 0.44692 0.72401 0.0
C579 C 0.93212 0.42987 0.74791 0.0
C580 C 0.92627 0.47486 0.74188 0.0
C581 C 0.90685 0.4263 0.73121 0.0
C582 C 1.00199 0.54181 0.76877 0.0
C583 C 0.96807 0.45817 0.77665 0.0
H584 H 0.15954 0.56876 0.61612 0.0
H585 H 0.09278 0.60663 0.67953 0.0
H586 H 0.13893 0.60232 0.68102 0.0
H587 H 0.08695 0.5412 0.55181 0.0
H588 H 0.87112 0.44329 0.71651 0.0
H589 H 0.94393 0.41368 0.75641 0.0
H590 H 0.93419 0.49361 0.74367 0.0
H591 H 0.89932 0.40745 0.72669 0.0
H592 H 0.14423 1.00004 0.22791 0.0
H593 H 0.05093 0.06726 0.49399 0.0
H594 H 0.13492 0.08034 0.24228 0.0
H595 H 0.06777 0.98824 0.50072 0.0
H596 H 0.07908 0.0718 0.3954 0.0
H597 H 0.1143 0.99477 0.32235 0.0
C598 C 0.13596 0.01658 0.25061 0.0
C599 C 0.14217 0.04069 0.2261 0.0
C600 C 0.07655 0.05342 0.41815 0.0
C601 C 0.10753 0.03471 0.33443 0.0
C602 C 0.06029 0.05079 0.47415 0.0
C603 C 0.05678 0.02729 0.50529 0.0
C604 C 0.08946 0.03239 0.39282 0.0
C605 C 0.06991 1.00672 0.47827 0.0
C606 C 0.11875 0.01353 0.3045 0.0
C607 C 0.13047 0.06132 0.25775 0.0
N608 N 0.0856 0.00973 0.4237 0.0
N609 N 0.11383 0.05785 0.30989 0.0
H610 H 0.45347 0.15261 0.27318 0.0
H611 H 0.54402 0.05712 0.466 0.0
H612 H 0.53311 0.1513 0.23231 0.0
H613 H 0.47317 0.08146 0.54883 0.0
H614 H 0.53982 0.08822 0.37355 0.0
H615 H 0.45957 0.12319 0.36739 0.0
C616 C 0.47227 0.14598 0.28376 0.0
C617 C 0.49278 0.15429 0.24426 0.0
C618 C 0.52527 0.08681 0.41214 0.0
C619 C 0.49993 0.12043 0.35269 0.0
C620 C 0.52758 0.069 0.46456 0.0
C621 C 0.50893 0.06679 0.51509 0.0
C622 C 0.50385 0.1021 0.4094 0.0
C623 C 0.48807 0.08269 0.51119 0.0
C624 C 0.47576 0.1293 0.33796 0.0
C625 C 0.51677 0.14537 0.26134 0.0
N626 N 0.486 0.0995 0.45911 0.0
N627 N 0.51967 0.12874 0.31386 0.0
H628 H 0.4064 0.46953 0.18868 0.0
H629 H 0.43603 0.53572 0.54755 0.0
H630 H 0.35336 0.51514 0.29942 0.0
H631 H 0.48611 0.4824 0.45347 0.0
H632 H 0.40722 0.53075 0.45228 0.0
H633 H 0.43719 0.47653 0.27943 0.0
C634 C 0.40116 0.48108 0.23183 0.0
C635 C 0.37699 0.49162 0.23603 0.0
C636 C 0.42451 0.52014 0.45221 0.0
C637 C 0.41252 0.49988 0.34047 0.0
C638 C 0.4411 0.52295 0.50689 0.0
C639 C 0.46372 0.50942 0.50917 0.0
C640 C 0.43037 0.50371 0.39856 0.0
C641 C 0.46898 0.49324 0.45428 0.0
C642 C 0.41885 0.48511 0.28366 0.0
C643 C 0.37171 0.50682 0.29297 0.0
N644 N 0.45247 0.49083 0.40137 0.0
N645 N 0.38921 0.51036 0.34277 0.0
H646 H 0.01013 0.3598 0.2913 0.0
H647 H 0.06162 0.48107 0.48124 0.0
H648 H 0.06504 0.40894 0.19653 0.0
H649 H 0.9864 0.4527 0.51404 0.0
H650 H 0.0659 0.4526 0.3834 0.0
H651 H 1.00339 0.39136 0.37943 0.0
C652 C 0.02057 0.37727 0.28794 0.0
C653 C 0.03831 0.38136 0.23547 0.0
C654 C 0.04839 0.45281 0.41174 0.0
C655 C 0.03118 0.41746 0.33902 0.0
C656 C 0.04585 0.4692 0.46734 0.0
C657 C 0.02348 0.4696 0.50565 0.0
C658 C 0.02866 0.43623 0.39519 0.0
C659 C 1.00403 0.45308 0.48625 0.0
C660 C 0.01681 0.39525 0.33902 0.0
C661 C 0.05158 0.4044 0.2362 0.0
N662 N 0.00714 0.43697 0.43301 0.0
N663 N 0.04795 0.42136 0.28734 0.0
H664 H 0.86669 0.96921 0.05603 0.0
H665 H 0.96924 0.04308 0.84798 0.0
H666 H 0.90608 0.03289 0.14193 0.0
H667 H 0.96541 0.96258 0.82875 0.0
H668 H 0.94229 0.04059 0.94914 0.0
H669 H 0.89932 0.9663 0.96766 0.0
C670 C 0.8823 0.98233 0.0574 0.0
C671 C 0.88316 1.00164 0.10656 0.0
C672 C 0.94748 0.02342 0.92328 0.0
C673 C 0.9202 0.99872 1.00373 0.0
C674 C 0.96279 0.02483 0.86545 0.0
C675 C 0.9696 1.00299 0.83022 0.0
C676 C 0.93816 1.00004 0.94523 0.0
C677 C 0.96068 0.97981 0.85491 0.0
C678 C 0.90086 0.98068 1.00648 0.0
C679 C 0.90392 0.01817 0.10433 0.0
N680 N 0.94504 0.97894 0.91041 0.0
N681 N 0.92125 0.01661 0.0533 0.0
H682 H 0.48521 0.88379 0.07716 0.0
H683 H 0.56275 0.97752 0.83249 0.0
H684 H 0.56507 0.89589 0.09963 0.0
H685 H 0.48263 0.9656 0.82416 0.0
H686 H 0.56483 0.94801 0.92933 0.0
H687 H 0.4847 0.91428 0.98528 0.0
C688 C 0.50267 0.89316 0.06383 0.0
C689 C 0.52517 0.88732 0.09768 0.0
C690 C 0.54681 0.95203 0.90653 0.0
C691 C 0.52478 0.92229 0.98938 0.0
C692 C 0.5456 0.96881 0.8512 0.0
C693 C 0.5225 0.97375 0.81945 0.0
C694 C 0.52469 0.94047 0.931 0.0
C695 C 0.50091 0.96193 0.8458 0.0
C696 C 0.50238 0.9105 1.01041 0.0
C697 C 0.54725 0.89965 0.07536 0.0
N698 N 0.50254 0.94595 0.89975 0.0
N699 N 0.5465 0.91652 0.02273 0.0
H700 H 0.62082 0.50408 0.142 0.0
H701 H 0.55741 0.57238 0.82288 0.0
H702 H 0.6569 0.56756 0.04413 0.0
H703 H 0.55367 0.49247 0.85573 0.0
H704 H 0.58639 0.57602 0.92098 0.0
H705 H 0.58812 0.50504 0.05492 0.0
C706 C 0.62194 0.51834 0.10268 0.0
C707 C 0.64223 0.53543 0.10029 0.0
C708 C 0.57901 0.55776 0.90684 0.0
C709 C 0.60404 0.53699 1.001 0.0
C710 C 0.56245 0.55571 0.8513 0.0
C711 C 0.55331 0.53208 0.83123 0.0
C712 C 0.58578 0.53611 0.94348 0.0
C713 C 0.56049 0.51099 0.8693 0.0
C714 C 0.6031 0.5189 0.05307 0.0
C715 C 0.64177 0.554 0.04886 0.0
N716 N 0.57613 0.51351 0.9237 0.0
N717 N 0.62311 0.5542 1.00116 0.0
H718 H 0.96013 0.65954 0.04813 0.0
H719 H 0.03904 0.55903 0.8509 0.0
H720 H 0.025 0.62478 0.13966 0.0
H721 H 0.95852 0.55947 0.82838 0.0
H722 H 0.03516 0.58655 0.95044 0.0
H723 H 0.95909 0.62598 0.96284 0.0
C724 C 0.97389 0.64473 0.05152 0.0
C725 C 0.99294 0.64549 0.1014 0.0
C726 C 0.0183 0.58048 0.9242 0.0
C727 C 0.99221 0.60736 1.00164 0.0
C728 C 0.0205 0.56489 0.86727 0.0
C729 C 0.99906 0.55699 0.83159 0.0
C730 C 0.99451 0.58896 0.94465 0.0
C731 C 0.97548 0.56506 0.85492 0.0
C732 C 0.97333 0.62563 1.00222 0.0
C733 C 0.01039 0.6257 0.10147 0.0
N734 N 0.97382 0.58098 0.90942 0.0
N735 N 0.00987 0.60782 0.05184 0.0
H736 H 0.07459 0.19233 0.31443 0.0
H737 H 0.9683 0.18334 0.6027 0.0
H738 H 0.0264 0.25373 0.3721 0.0
H739 H 0.015 0.12099 0.54283 0.0
H740 H 0.99267 0.21058 0.52724 0.0
H741 H 0.05608 0.16701 0.40617 0.0
C742 C 0.06026 0.20054 0.34667 0.0
C743 C 0.05195 0.22514 0.33529 0.0
C744 C 0.9977 0.19097 0.53101 0.0
C745 C 0.03073 0.19634 0.44027 0.0
C746 C 0.98387 0.17539 0.5745 0.0
C747 C 0.98947 0.14973 0.57925 0.0
C748 C 0.01725 0.18085 0.4916 0.0
C749 C 0.00966 0.14053 0.54035 0.0
C750 C 0.04976 0.18612 0.39914 0.0
C751 C 0.0336 0.23496 0.37932 0.0
N752 N 0.02271 0.15604 0.49794 0.0
N753 N 0.02347 0.22046 0.42943 0.0
H754 H 0.33056 0.0744 0.16174 0.0
H755 H 0.36022 1.0012 0.50386 0.0
H756 H 0.28865 0.0868 0.34803 0.0
H757 H 0.41144 1.00569 0.33309 0.0
H758 H 0.33354 0.03265 0.44856 0.0
H759 H 0.36156 0.05144 0.22606 0.0
C760 C 0.32813 0.07304 0.21651 0.0
C761 C 0.30655 0.08239 0.24906 0.0
C762 C 0.3507 0.02682 0.42346 0.0
C763 C 0.34178 0.05479 0.32286 0.0
C764 C 0.36569 0.00868 0.45451 0.0
C765 C 0.38791 1.0008 0.42266 0.0
C766 C 0.35793 0.03687 0.35992 0.0
C767 C 0.39446 0.01133 0.35935 0.0
C768 C 0.3458 0.05949 0.2532 0.0
C769 C 0.30455 0.07937 0.32026 0.0
N770 N 0.37948 0.02872 0.32994 0.0
N771 N 0.32167 0.06538 0.3546 0.0
H772 H 0.43031 0.33264 0.28637 0.0
H773 H 0.55895 0.35503 0.48594 0.0
H774 H 0.48198 0.27369 0.34019 0.0
H775 H 0.51069 0.41428 0.41437 0.0
H776 H 0.52715 0.3242 0.45132 0.0
H777 H 0.45488 0.3619 0.35579 0.0
C778 C 0.44645 0.32571 0.31399 0.0
C779 C 0.45434 0.30078 0.30621 0.0
C780 C 0.52344 0.34398 0.4438 0.0
C781 C 0.48267 0.33413 0.38492 0.0
C782 C 0.5417 0.36152 0.46287 0.0
C783 C 0.53754 0.38721 0.45255 0.0
C784 C 0.50097 0.3522 0.41385 0.0
C785 C 0.51462 0.39466 0.42371 0.0
C786 C 0.46052 0.34242 0.35343 0.0
C787 C 0.47511 0.2927 0.34439 0.0
N788 N 0.49729 0.37724 0.40497 0.0
N789 N 0.48883 0.30944 0.38101 0.0
H790 H 0.2329 0.4526 0.3962 0.0
H791 H 0.11044 0.53577 0.45186 0.0
H792 H 0.18251 0.47543 0.2355 0.0
H793 H 0.16681 0.52459 0.60706 0.0
H794 H 0.13207 0.50592 0.37905 0.0
H795 H 0.20438 0.47117 0.48005 0.0
C796 C 0.21571 0.4612 0.37855 0.0
C797 C 0.21034 0.46278 0.30847 0.0
C798 C 0.1396 0.50981 0.42928 0.0
C799 C 0.17762 0.4839 0.40414 0.0
C800 C 0.12716 0.52677 0.47125 0.0
C801 C 0.13689 0.53291 0.53576 0.0
C802 C 0.16209 0.49895 0.45151 0.0
C803 C 0.15887 0.52082 0.5573 0.0
C804 C 0.19943 0.47174 0.42647 0.0
C805 C 0.18748 0.47361 0.28881 0.0
N806 N 0.17085 0.50456 0.51503 0.0
N807 N 0.17214 0.48401 0.3363 0.0
H808 H 0.95612 0.82657 0.97801 0.0
H809 H 0.04904 0.85667 0.6741 0.0
H810 H 0.00871 0.77399 0.89182 0.0
H811 H 0.01234 0.91019 0.80667 0.0
H812 H 0.02068 0.82406 0.71794 0.0
H813 H 0.96228 0.85371 0.87857 0.0
C814 C 0.96846 0.82045 0.93729 0.0
C815 C 0.98256 0.79845 0.94411 0.0
C816 C 0.01851 0.8432 0.73557 0.0
C817 C 0.98993 0.82943 0.83099 0.0
C818 C 0.03489 0.86182 0.71124 0.0
C819 C 0.03417 0.8862 0.73881 0.0
C820 C 1.0011 0.84913 0.78698 0.0
C821 C 0.01432 0.89185 0.78392 0.0
C822 C 0.97192 0.83588 0.88049 0.0
C823 C 0.99777 0.79101 0.8891 0.0
N824 N 0.99899 0.87338 0.80743 0.0
N825 N 1.0016 0.80682 0.83558 0.0
H826 H 0.7202 1.00512 0.97005 0.0
H827 H 0.57704 0.97912 0.03274 0.0
H828 H 0.69045 0.95638 0.12684 0.0
H829 H 0.60745 0.03124 0.88441 0.0
H830 H 0.61821 0.9594 0.04064 0.0
H831 H 0.6801 1.00228 0.90991 0.0
C832 C 0.70553 0.99302 0.99036 0.0
C833 C 0.7082 0.98158 0.05431 0.0
C834 C 0.61572 0.97482 1.00528 0.0
C835 C 0.66222 0.97889 0.98749 0.0
C836 C 0.59228 0.98626 1.0013 0.0
C837 C 0.58893 1.00737 0.95947 0.0
C838 C 0.63607 0.98488 0.96815 0.0
C839 C 0.6091 0.01517 0.91792 0.0
C840 C 0.68254 0.99156 0.95641 0.0
C841 C 0.68874 0.96602 0.07839 0.0
N842 N 0.63192 1.00427 0.92443 0.0
N843 N 0.66628 0.96567 0.04589 0.0
H844 H 0.5032 0.75674 0.9147 0.0
H845 H 0.49258 0.61737 0.84296 0.0
H846 H 0.55117 0.70277 0.01376 0.0
H847 H 0.4699 0.67204 0.69216 0.0
H848 H 0.52084 0.64797 0.89164 0.0
H849 H 0.49775 0.72786 0.82004 0.0
C850 C 0.51325 0.73914 0.91582 0.0
C851 C 0.52701 0.73185 0.97356 0.0
C852 C 0.51011 0.6532 0.84698 0.0
C853 C 0.52015 0.69835 0.86582 0.0
C854 C 0.49388 0.63557 0.81858 0.0
C855 C 0.47802 0.64222 0.76429 0.0
C856 C 0.50995 0.67797 0.82268 0.0
C857 C 0.4808 0.66635 0.73601 0.0
C858 C 0.51004 0.72256 0.86154 0.0
C859 C 0.53954 0.70875 0.97158 0.0
N860 N 0.49589 0.6836 0.76678 0.0
N861 N 0.53526 0.69252 0.91947 0.0
H862 H 0.82513 0.57234 0.97626 0.0
H863 H 0.853 0.47874 0.67426 0.0
H864 H 0.77119 0.52045 0.8907 0.0
H865 H 0.90755 0.51502 0.80545 0.0
H866 H 0.82111 0.50757 0.71752 0.0
H867 H 0.85227 0.56569 0.8771 0.0
C868 C 0.81872 0.56005 0.93577 0.0
C869 C 0.7963 0.5463 0.94273 0.0
C870 C 0.84032 0.50954 0.73499 0.0
C871 C 0.82727 0.5384 0.82985 0.0
C872 C 0.85853 0.49289 0.71097 0.0
C873 C 0.88295 0.49336 0.73837 0.0
C874 C 0.8467 0.52695 0.78595 0.0
C875 C 0.88913 0.51322 0.78289 0.0
C876 C 0.83416 0.55631 0.87911 0.0
C877 C 0.78853 0.53115 0.88792 0.0
N878 N 0.87104 0.5288 0.80616 0.0
N879 N 0.80432 0.52707 0.83454 0.0
H880 H 0.04171 0.21994 0.79045 0.0
H881 H 1.00537 0.07435 0.8376 0.0
H882 H 0.01757 0.18681 0.98106 0.0
H883 H 0.0322 0.1051 0.64733 0.0
H884 H 0.00725 0.11616 0.88831 0.0
H885 H 0.03553 0.1792 0.73445 0.0
C886 C 0.035 0.2042 0.8206 0.0
C887 C 0.03023 0.20701 0.89095 0.0
C888 C 0.01259 0.11393 0.83529 0.0
C889 C 0.02318 0.16009 0.82678 0.0
C890 C 0.01157 0.08998 0.80631 0.0
C891 C 0.01853 0.08625 0.73794 0.0
C892 C 0.02076 0.1345 0.79586 0.0
C893 C 0.0263 0.10726 0.69986 0.0
C894 C 0.03145 0.18091 0.78844 0.0
C895 C 0.02123 0.18585 0.92675 0.0
N896 N 0.02733 0.13046 0.72932 0.0
N897 N 0.01818 0.1634 0.89449 0.0
H898 H 0.31142 0.05783 0.80202 0.0
H899 H 0.45349 0.01994 0.84484 0.0
H900 H 0.33433 1.00592 0.95967 0.0
H901 H 0.42204 0.02984 0.644 0.0
H902 H 0.41096 0.02064 0.89335 0.0
H903 H 0.35233 0.05292 0.74759 0.0
C904 C 0.32465 0.04509 0.82516 0.0
C905 C 0.31882 0.03234 0.8865 0.0
C906 C 0.41337 0.02261 0.83867 0.0
C907 C 0.36664 0.02763 0.82468 0.0
C908 C 0.43764 0.0224 0.81093 0.0
C909 C 0.44137 0.02499 0.74021 0.0
C910 C 0.39258 0.02609 0.79577 0.0
C911 C 0.42004 0.0278 0.69877 0.0
C912 C 0.34824 0.04253 0.79392 0.0
C913 C 0.33767 0.01675 0.91382 0.0
N914 N 0.39659 0.02862 0.72721 0.0
N915 N 0.36069 0.01513 0.88336 0.0
H916 H 0.53103 0.33422 0.93314 0.0
H917 H 0.46947 0.4403 0.69513 0.0
H918 H 0.45594 0.32923 0.85103 0.0
H919 H 0.53992 0.45044 0.79955 0.0
H920 H 0.46518 0.39865 0.74723 0.0
H921 H 0.5357 0.37572 0.88043 0.0
C922 C 0.5155 0.34172 0.90415 0.0
C923 C 0.49307 0.32783 0.89659 0.0
C924 C 0.48158 0.40996 0.75898 0.0
C925 C 0.49846 0.3756 0.83524 0.0
C926 C 0.48391 0.43386 0.72959 0.0
C927 C 0.50477 0.44916 0.74414 0.0
C928 C 0.50047 0.40099 0.80263 0.0
C929 C 0.52341 0.43939 0.78722 0.0
C930 C 0.51824 0.36547 0.87378 0.0
C931 C 0.47381 0.33873 0.85744 0.0
N932 N 0.52081 0.41602 0.815 0.0
N933 N 0.47695 0.36181 0.82847 0.0
H934 H 0.18082 0.50574 0.98893 0.0
H935 H 0.10185 0.49923 0.64032 0.0
H936 H 0.21546 0.4911 0.79347 0.0
H937 H 0.07072 0.519 0.83629 0.0
H938 H 0.14377 0.49707 0.69303 0.0
H939 H 0.1408 0.51196 0.93181 0.0
C940 C 0.18023 0.50422 0.93384 0.0
C941 C 0.20188 0.49793 0.89635 0.0
C942 C 0.12776 0.50206 0.72428 0.0
C943 C 0.15535 0.50451 0.83003 0.0
C944 C 0.10385 0.50332 0.6942 0.0
C945 C 0.08267 0.50901 0.7341 0.0
C946 C 0.13053 0.5067 0.79467 0.0
C947 C 0.08638 0.51407 0.80373 0.0
C948 C 0.15715 0.50755 0.90115 0.0
C949 C 0.19937 0.49561 0.82495 0.0
N950 N 0.1097 0.51271 0.83166 0.0
N951 N 0.17659 0.4988 0.79427 0.0
H952 H 0.95734 0.83235 0.44364 0.0
H953 H 0.04617 0.94371 0.58192 0.0
H954 H 0.03819 0.83398 0.42429 0.0
H955 H 0.96539 0.94582 0.59746 0.0
H956 H 0.04313 0.90216 0.53092 0.0
H957 H 0.95939 0.87256 0.5046 0.0
C958 C 0.97553 0.84099 0.45221 0.0
C959 C 0.99762 0.82939 0.42857 0.0
C960 C 0.02598 0.91169 0.54506 0.0
C961 C 1.00007 0.87563 0.49905 0.0
C962 C 0.02769 0.93555 0.57446 0.0
C963 C 1.00592 0.94876 0.59306 0.0
C964 C 1.0023 0.90066 0.53356 0.0
C965 C 0.98261 0.9368 0.58233 0.0
C966 C 0.97667 0.86397 0.48737 0.0
C967 C 0.02061 0.84164 0.44232 0.0
N968 N 0.98139 0.91355 0.55306 0.0
N969 N 0.02117 0.86394 0.4762 0.0
H970 H 0.72111 0.02223 0.56419 0.0
H971 H 0.57421 0.01096 0.49862 0.0
H972 H 0.68965 0.98726 0.385 0.0
H973 H 0.60308 0.01158 0.70424 0.0
H974 H 0.6169 1.00693 0.45514 0.0
H975 H 0.67884 0.0228 0.616 0.0
C976 C 0.7054 0.01443 0.53606 0.0
C977 C 0.70905 1.00449 0.47024 0.0
C978 C 0.61396 0.00783 0.50982 0.0
C979 C 0.66059 1.00564 0.52861 0.0
C980 C 0.58949 0.01001 0.53491 0.0
C981 C 0.58482 0.01132 0.60548 0.0
C982 C 0.63431 0.00749 0.55523 0.0
C983 C 0.6057 0.01079 0.64946 0.0
C984 C 0.68131 0.01474 0.56571 0.0
C985 C 0.68792 0.99475 0.43616 0.0
N986 N 0.62954 0.00909 0.62365 0.0
N987 N 0.66468 0.99584 0.46529 0.0
H988 H 0.56133 0.70601 0.4626 0.0
H989 H 0.47547 0.59311 0.60934 0.0
H990 H 0.48043 0.70329 0.44637 0.0
H991 H 0.55627 0.59101 0.60526 0.0
H992 H 0.477 0.63555 0.56036 0.0
H993 H 0.56004 0.66569 0.52292 0.0
C994 C 0.54328 0.6971 0.47166 0.0
C995 C 0.52096 0.70844 0.44902 0.0
C996 C 0.49445 0.62586 0.57006 0.0
C997 C 0.51938 0.66205 0.51918 0.0
C998 C 0.49355 0.60172 0.5986 0.0
C999 C 0.51577 0.58851 0.61087 0.0
C1000 C 0.51781 0.6369 0.55339 0.0
C1001 C 0.53871 0.60033 0.5951 0.0
C1002 C 0.54257 0.67404 0.50651 0.0
C1003 C 0.49817 0.69583 0.4636 0.0
N1004 N 0.53916 0.62379 0.56706 0.0
N1005 N 0.49801 0.67346 0.49738 0.0
H1006 H 0.82828 0.56842 0.44937 0.0
H1007 H 0.94145 0.48006 0.57171 0.0
H1008 H 0.83091 0.48826 0.41819 0.0
H1009 H 0.9397 0.55945 0.61332 0.0
H1010 H 0.90005 0.48301 0.51962 0.0
H1011 H 0.8682 0.56601 0.51162 0.0
C1012 C 0.83709 0.55031 0.45564 0.0
C1013 C 0.82587 0.52851 0.42835 0.0
C1014 C 0.9087 0.4999 0.53972 0.0
C1015 C 0.87179 0.52564 0.50007 0.0
C1016 C 0.93245 0.49823 0.5697 0.0
C1017 C 0.94456 0.51972 0.59561 0.0
C1018 C 0.89669 0.52327 0.53507 0.0
C1019 C 0.9316 0.5426 0.59195 0.0
C1020 C 0.85989 0.54895 0.49154 0.0
C1021 C 0.83832 0.50558 0.43906 0.0
N1022 N 0.9085 0.54382 0.56191 0.0
N1023 N 0.86047 0.50481 0.47359 0.0
loop_
_geom_bond_atom_site_label_1
_geom_bond_atom_site_label_2
_geom_bond_distance
_geom_bond_site_symmetry_2
_ccdc_geom_bond_type
P0 O11 1.490 . S
P0 C14 1.812 . S
P0 C20 1.803 . S
P0 C26 1.819 . S
H1 C15 0.941 . S
H2 C16 0.939 . S
H3 C18 0.940 . S
H4 C19 0.940 . S
H5 C21 0.939 . S
H6 C22 0.942 . S
H7 C24 0.940 . S
H8 C25 0.939 . S
H9 C27 0.941 . S
H10 C31 0.939 . S
O11 P0 1.490 . S
H12 C28 0.939 . S
H13 C30 0.940 . S
C14 P0 1.812 . S
C14 C15 1.389 . S
C14 C19 1.391 . S
C15 H1 0.941 . S
C15 C14 1.389 . S
C15 C16 1.397 . S
C16 H2 0.939 . S
C16 C15 1.397 . S
C16 C17 1.378 . S
C17 C16 1.378 . S
C17 C18 1.378 . S
C18 H3 0.940 . S
C18 C17 1.378 . S
C18 C19 1.396 . S
C19 H4 0.940 . S
C19 C14 1.391 . S
C19 C18 1.396 . S
C20 P0 1.803 . S
C20 C21 1.378 . S
C20 C25 1.400 . S
C21 H5 0.939 . S
C21 C20 1.378 . S
C21 C22 1.361 . S
C22 H6 0.942 . S
C22 C21 1.361 . S
C22 C23 1.369 . S
C23 C22 1.369 . S
C23 C24 1.404 . S
C24 H7 0.940 . S
C24 C23 1.404 . S
C24 C25 1.389 . S
C25 H8 0.939 . S
C25 C20 1.400 . S
C25 C24 1.389 . S
C26 P0 1.819 . S
C26 C27 1.391 . S
C26 C31 1.391 . S
C27 H9 0.941 . S
C27 C26 1.391 . S
C27 C28 1.396 . S
C28 H12 0.939 . S
C28 C27 1.396 . S
C28 C29 1.397 . S
C29 C28 1.397 . S
C29 C30 1.385 . S
C30 H13 0.940 . S
C30 C29 1.385 . S
C30 C31 1.388 . S
C31 H10 0.939 . S
C31 C26 1.391 . S
C31 C30 1.388 . S
P32 O43 1.490 . S
P32 C46 1.812 1_455 S
P32 C52 1.803 1_455 S
P32 C58 1.819 1_455 S
H33 C47 0.941 . S
H34 C48 0.939 1_455 S
H35 C50 0.940 . S
H36 C51 0.940 . S
H37 C53 0.939 . S
H38 C54 0.942 1_455 S
H39 C56 0.940 . S
H40 C57 0.939 . S
H41 C59 0.941 . S
H42 C63 0.939 . S
O43 P32 1.490 . S
H44 C60 0.936 1_455 S
H45 C62 0.940 . S
C46 P32 1.812 1_655 S
C46 C47 1.389 1_655 S
C46 C51 1.391 . S
C47 H33 0.941 . S
C47 C46 1.389 1_455 S
C47 C48 1.397 1_455 S
C48 H34 0.939 1_655 S
C48 C47 1.397 1_655 S
C48 C49 1.378 . S
C49 C48 1.378 . S
C49 C50 1.378 . S
C50 H35 0.940 . S
C50 C49 1.378 . S
C50 C51 1.396 . S
C51 H36 0.940 . S
C51 C46 1.391 . S
C51 C50 1.396 . S
C52 P32 1.803 1_655 S
C52 C53 1.378 1_655 S
C52 C57 1.400 . S
C53 H37 0.939 . S
C53 C52 1.378 1_455 S
C53 C54 1.361 1_455 S
C54 H38 0.942 1_655 S
C54 C53 1.361 1_655 S
C54 C55 1.369 . S
C55 C54 1.369 . S
C55 C56 1.404 . S
C56 H39 0.940 . S
C56 C55 1.404 . S
C56 C57 1.389 . S
C57 H40 0.939 . S
C57 C52 1.400 . S
C57 C56 1.389 . S
C58 P32 1.819 1_655 S
C58 C59 1.391 1_655 S
C58 C63 1.391 . S
C59 H41 0.941 . S
C59 C58 1.391 1_455 S
C59 C60 1.396 1_455 S
C60 H44 0.936 1_655 S
C60 C59 1.396 1_655 S
C60 C61 1.397 . S
C61 C60 1.397 . S
C61 C62 1.385 . S
C62 H45 0.940 . S
C62 C61 1.385 . S
C62 C63 1.388 . S
C63 H42 0.939 . S
C63 C58 1.391 . S
C63 C62 1.388 . S
P64 O75 1.490 . S
P64 C78 1.812 1_545 S
P64 C84 1.803 1_545 S
P64 C90 1.819 1_545 S
H65 C79 0.941 . S
H66 C80 0.921 1_545 S
H67 C82 0.940 . S
H68 C83 0.940 . S
H69 C85 0.939 . S
H70 C86 0.942 . S
H71 C88 0.940 . S
H72 C89 0.939 . S
H73 C91 0.941 . S
H74 C95 0.939 . S
O75 P64 1.490 . S
H76 C92 0.939 1_545 S
H77 C94 0.940 . S
C78 P64 1.812 1_565 S
C78 C79 1.389 1_565 S
C78 C83 1.391 . S
C79 H65 0.941 . S
C79 C78 1.389 1_545 S
C79 C80 1.384 1_545 S
C80 H66 0.921 1_565 S
C80 C79 1.384 1_565 S
C80 C81 1.410 . S
C81 C80 1.410 . S
C81 C82 1.378 . S
C82 H67 0.940 . S
C82 C81 1.378 . S
C82 C83 1.396 . S
C83 H68 0.940 . S
C83 C78 1.391 . S
C83 C82 1.396 . S
C84 P64 1.803 1_565 S
C84 C85 1.378 1_565 S
C84 C89 1.400 . S
C85 H69 0.939 . S
C85 C84 1.378 1_545 S
C85 C86 1.361 . S
C86 H70 0.942 . S
C86 C85 1.361 . S
C86 C87 1.369 1_545 S
C87 C86 1.369 1_565 S
C87 C88 1.404 . S
C88 H71 0.940 . S
C88 C87 1.404 . S
C88 C89 1.389 . S
C89 H72 0.939 . S
C89 C84 1.400 . S
C89 C88 1.389 . S
C90 P64 1.819 1_565 S
C90 C91 1.391 1_565 S
C90 C95 1.391 . S
C91 H73 0.941 . S
C91 C90 1.391 1_545 S
C91 C92 1.396 1_545 S
C92 H76 0.939 1_565 S
C92 C91 1.396 1_565 S
C92 C93 1.397 . S
C93 C92 1.397 . S
C93 C94 1.385 . S
C94 H77 0.940 . S
C94 C93 1.385 . S
C94 C95 1.388 . S
C95 H74 0.939 . S
C95 C90 1.391 . S
C95 C94 1.388 . S
P96 O107 1.490 . S
P96 C110 1.812 . S
P96 C116 1.803 . S
P96 C122 1.819 . S
H97 C111 0.941 . S
H98 C112 0.939 . S
H99 C114 0.940 . S
H100 C115 0.940 . S
H101 C117 0.939 . S
H102 C118 0.942 . S
H103 C120 0.940 . S
H104 C121 0.939 . S
H105 C123 0.941 . S
H106 C127 0.939 . S
O107 P96 1.490 . S
H108 C124 0.939 . S
H109 C126 0.940 . S
C110 P96 1.812 . S
C110 C111 1.389 . S
C110 C115 1.391 . S
C111 H97 0.941 . S
C111 C110 1.389 . S
C111 C112 1.397 . S
C112 H98 0.939 . S
C112 C111 1.397 . S
C112 C113 1.378 . S
C113 C112 1.378 . S
C113 C114 1.378 . S
C114 H99 0.940 . S
C114 C113 1.378 . S
C114 C115 1.396 . S
C115 H100 0.940 . S
C115 C110 1.391 . S
C115 C114 1.396 . S
C116 P96 1.803 . S
C116 C117 1.378 . S
C116 C121 1.400 . S
C117 H101 0.939 . S
C117 C116 1.378 . S
C117 C118 1.361 . S
C118 H102 0.942 . S
C118 C117 1.361 . S
C118 C119 1.369 . S
C119 C118 1.369 . S
C119 C120 1.404 . S
C120 H103 0.940 . S
C120 C119 1.404 . S
C120 C121 1.389 . S
C121 H104 0.939 . S
C121 C116 1.400 . S
C121 C120 1.389 . S
C122 P96 1.819 . S
C122 C123 1.391 . S
C122 C127 1.391 . S
C123 H105 0.941 . S
C123 C122 1.391 . S
C123 C124 1.396 . S
C124 H108 0.939 . S
C124 C123 1.396 . S
C124 C125 1.397 . S
C125 C124 1.397 . S
C125 C126 1.385 . S
C126 H109 0.940 . S
C126 C125 1.385 . S
C126 C127 1.388 . S
C127 H106 0.939 . S
C127 C122 1.391 . S
C127 C126 1.388 . S
P128 O139 1.490 . S
P128 C142 1.812 1_554 S
P128 C148 1.803 . S
P128 C154 1.819 . S
H129 C143 0.941 . S
H130 C144 0.939 . S
H131 C146 0.940 . S
H132 C147 0.940 . S
H133 C149 0.939 . S
H134 C150 0.942 . S
H135 C152 0.940 . S
H136 C153 0.939 . S
H137 C155 0.941 . S
H138 C159 0.939 . S
O139 P128 1.490 . S
H140 C156 0.939 . S
H141 C158 0.940 . S
C142 P128 1.812 1_556 S
C142 C143 1.389 . S
C142 C147 1.391 . S
C143 H129 0.941 . S
C143 C142 1.389 . S
C143 C144 1.397 . S
C144 H130 0.939 . S
C144 C143 1.397 . S
C144 C145 1.378 . S
C145 C144 1.378 . S
C145 C146 1.378 . S
C146 H131 0.940 . S
C146 C145 1.378 . S
C146 C147 1.396 . S
C147 H132 0.940 . S
C147 C142 1.391 . S
C147 C146 1.396 . S
C148 P128 1.803 . S
C148 C149 1.378 . S
C148 C153 1.400 . S
C149 H133 0.939 . S
C149 C148 1.378 . S
C149 C150 1.361 . S
C150 H134 0.942 . S
C150 C149 1.361 . S
C150 C151 1.369 . S
C151 C150 1.369 . S
C151 C152 1.404 . S
C152 H135 0.940 . S
C152 C151 1.404 . S
C152 C153 1.389 . S
C153 H136 0.939 . S
C153 C148 1.400 . S
C153 C152 1.389 . S
C154 P128 1.819 . S
C154 C155 1.391 . S
C154 C159 1.391 . S
C155 H137 0.941 . S
C155 C154 1.391 . S
C155 C156 1.396 . S
C156 H140 0.939 . S
C156 C155 1.396 . S
C156 C157 1.397 . S
C157 C156 1.397 . S
C157 C158 1.385 . S
C158 H141 0.940 . S
C158 C157 1.385 . S
C158 C159 1.388 . S
C159 H138 0.939 . S
C159 C154 1.391 . S
C159 C158 1.388 . S
P160 O171 1.490 . S
P160 C174 1.812 1_554 S
P160 C180 1.803 . S
P160 C186 1.819 . S
H161 C175 0.941 . S
H162 C176 0.939 . S
H163 C178 0.940 . S
H164 C179 0.949 . S
H165 C181 0.939 . S
H166 C182 0.942 . S
H167 C184 0.940 . S
H168 C185 0.939 . S
H169 C187 0.941 . S
H170 C191 0.939 . S
O171 P160 1.490 . S
H172 C188 0.939 . S
H173 C190 0.940 . S
C174 P160 1.812 1_556 S
C174 C175 1.389 . S
C174 C179 1.391 . S
C175 H161 0.941 . S
C175 C174 1.389 . S
C175 C176 1.397 . S
C176 H162 0.939 . S
C176 C175 1.397 . S
C176 C177 1.378 . S
C177 C176 1.378 . S
C177 C178 1.378 . S
C178 H163 0.940 . S
C178 C177 1.378 . S
C178 C179 1.396 . S
C179 H164 0.949 . S
C179 C174 1.391 . S
C179 C178 1.396 . S
C180 P160 1.803 . S
C180 C181 1.378 . S
C180 C185 1.400 . S
C181 H165 0.939 . S
C181 C180 1.378 . S
C181 C182 1.361 . S
C182 H166 0.942 . S
C182 C181 1.361 . S
C182 C183 1.369 . S
C183 C182 1.369 . S
C183 C184 1.404 . S
C184 H167 0.940 . S
C184 C183 1.404 . S
C184 C185 1.389 . S
C185 H168 0.939 . S
C185 C180 1.400 . S
C185 C184 1.389 . S
C186 P160 1.819 . S
C186 C187 1.391 . S
C186 C191 1.391 . S
C187 H169 0.941 . S
C187 C186 1.391 . S
C187 C188 1.396 . S
C188 H172 0.939 . S
C188 C187 1.396 . S
C188 C189 1.397 . S
C189 C188 1.397 . S
C189 C190 1.385 . S
C190 H173 0.940 . S
C190 C189 1.385 . S
C190 C191 1.388 . S
C191 H170 0.939 . S
C191 C186 1.391 . S
C191 C190 1.388 . S
P192 O203 1.490 . S
P192 C206 1.812 1_554 S
P192 C212 1.803 . S
P192 C218 1.819 . S
H193 C207 0.941 . S
H194 C208 0.939 . S
H195 C210 0.940 . S
H196 C211 0.954 . S
H197 C213 0.939 . S
H198 C214 0.942 . S
H199 C216 0.940 . S
H200 C217 0.939 . S
H201 C219 0.941 . S
H202 C223 0.939 . S
O203 P192 1.490 . S
H204 C220 0.939 . S
H205 C222 0.940 . S
C206 P192 1.812 1_556 S
C206 C207 1.389 . S
C206 C211 1.391 . S
C207 H193 0.941 . S
C207 C206 1.389 . S
C207 C208 1.397 . S
C208 H194 0.939 . S
C208 C207 1.397 . S
C208 C209 1.378 . S
C209 C208 1.378 . S
C209 C210 1.378 . S
C210 H195 0.940 . S
C210 C209 1.378 . S
C210 C211 1.396 . S
C211 H196 0.954 . S
C211 C206 1.391 . S
C211 C210 1.396 . S
C212 P192 1.803 . S
C212 C213 1.378 . S
C212 C217 1.400 . S
C213 H197 0.939 . S
C213 C212 1.378 . S
C213 C214 1.361 . S
C214 H198 0.942 . S
C214 C213 1.361 . S
C214 C215 1.369 . S
C215 C214 1.369 . S
C215 C216 1.404 . S
C216 H199 0.940 . S
C216 C215 1.404 . S
C216 C217 1.389 . S
C217 H200 0.939 . S
C217 C212 1.400 . S
C217 C216 1.389 . S
C218 P192 1.819 . S
C218 C219 1.391 . S
C218 C223 1.391 . S
C219 H201 0.941 . S
C219 C218 1.391 . S
C219 C220 1.396 . S
C220 H204 0.939 . S
C220 C219 1.396 . S
C220 C221 1.397 . S
C221 C220 1.397 . S
C221 C222 1.385 . S
C222 H205 0.940 . S
C222 C221 1.385 . S
C222 C223 1.388 . S
C223 H202 0.939 . S
C223 C218 1.391 . S
C223 C222 1.388 . S
P224 O235 1.490 . S
P224 C238 1.812 1_554 S
P224 C244 1.803 . S
P224 C250 1.819 . S
H225 C239 0.941 . S
H226 C240 0.939 . S
H227 C242 0.940 . S
H228 C243 0.940 . S
H229 C245 0.939 . S
H230 C246 0.942 . S
H231 C248 0.940 . S
H232 C249 0.939 . S
H233 C251 0.941 . S
H234 C255 0.939 . S
O235 P224 1.490 . S
H236 C252 0.939 . S
H237 C254 0.940 . S
C238 P224 1.812 1_556 S
C238 C239 1.389 . S
C238 C243 1.391 . S
C239 H225 0.941 . S
C239 C238 1.389 . S
C239 C240 1.397 . S
C240 H226 0.939 . S
C240 C239 1.397 . S
C240 C241 1.378 . S
C241 C240 1.378 . S
C241 C242 1.378 . S
C242 H227 0.940 . S
C242 C241 1.378 . S
C242 C243 1.396 . S
C243 H228 0.940 . S
C243 C238 1.391 . S
C243 C242 1.396 . S
C244 P224 1.803 . S
C244 C245 1.378 . S
C244 C249 1.400 . S
C245 H229 0.939 . S
C245 C244 1.378 . S
C245 C246 1.361 . S
C246 H230 0.942 . S
C246 C245 1.361 . S
C246 C247 1.369 . S
C247 C246 1.369 . S
C247 C248 1.404 . S
C248 H231 0.940 . S
C248 C247 1.404 . S
C248 C249 1.389 . S
C249 H232 0.939 . S
C249 C244 1.400 . S
C249 C248 1.389 . S
C250 P224 1.819 . S
C250 C251 1.391 . S
C250 C255 1.391 . S
C251 H233 0.941 . S
C251 C250 1.391 . S
C251 C252 1.396 . S
C252 H236 0.939 . S
C252 C251 1.396 . S
C252 C253 1.397 . S
C253 C252 1.397 . S
C253 C254 1.385 . S
C254 H237 0.940 . S
C254 C253 1.385 . S
C254 C255 1.388 . S
C255 H234 0.939 . S
C255 C250 1.391 . S
C255 C254 1.388 . S
Tb256 N285 2.617 . S
Tb256 N291 2.572 . S
Tb256 O300 2.465 . S
Tb256 O301 2.387 1_545 S
Tb256 O303 2.428 . S
Tb256 O304 2.308 1_655 S
Tb256 O308 2.349 1_655 S
Tb256 O311 2.393 . S
Tb256 C320 2.802 . S
C257 N258 1.379 . S
C257 C260 1.416 . S
C257 C264 1.424 . S
N258 C257 1.379 . S
N258 C261 1.334 1_545 S
N258 Tb267 2.617 1_545 S
C259 C261 1.389 1_545 S
C259 C262 1.339 . S
C259 H279 0.930 . S
C260 C257 1.416 . S
C260 C262 1.416 . S
C260 C266 1.448 . S
C261 N258 1.334 1_565 S
C261 C259 1.389 1_565 S
C261 H272 0.931 . S
C262 C259 1.339 . S
C262 C260 1.416 . S
C262 H283 0.930 . S
C263 C264 1.413 . S
C263 C265 1.427 . S
C263 C269 1.416 . S
C264 C257 1.424 . S
C264 C263 1.413 . S
C264 N268 1.361 . S
C265 C263 1.427 . S
C265 C266 1.328 . S
C265 H280 0.929 . S
C266 C260 1.448 . S
C266 C265 1.328 . S
C266 H281 0.930 . S
Tb267 N258 2.617 1_565 S
Tb267 N268 2.572 1_565 S
Tb267 O302 2.349 . S
Tb267 O305 2.393 . S
Tb267 O306 2.465 . S
Tb267 O307 2.387 1_565 S
Tb267 O309 2.428 . S
Tb267 O310 2.308 1_465 S
Tb267 C331 2.802 . S
N268 C264 1.361 . S
N268 Tb267 2.572 1_545 S
N268 C270 1.340 . S
C269 C263 1.416 . S
C269 C271 1.332 . S
C269 H277 0.931 1_556 S
C270 N268 1.340 . S
C270 C271 1.407 . S
C270 H276 0.908 1_455 S
C271 C269 1.332 . S
C271 C270 1.407 . S
C271 H273 0.929 . S
H272 C261 0.931 . S
H273 C271 0.929 . S
H274 C289 0.930 . S
H275 C296 0.929 1_455 S
H276 C270 0.908 1_655 S
H277 C269 0.931 1_554 S
H278 C292 0.930 1_455 S
H279 C259 0.930 . S
H280 C265 0.929 . S
H281 C266 0.930 . S
H282 C287 0.930 . S
H283 C262 0.930 . S
H284 C295 0.931 . S
N285 Tb256 2.617 . S
N285 C286 1.379 . S
N285 C289 1.334 . S
C286 N285 1.379 . S
C286 C288 1.416 1_545 S
C286 C294 1.424 . S
C287 H282 0.930 . S
C287 C289 1.390 . S
C287 C290 1.339 1_545 S
C288 C286 1.416 1_565 S
C288 C290 1.416 . S
C288 C321 1.448 . S
C289 H274 0.930 . S
C289 N285 1.334 . S
C289 C287 1.390 . S
C290 C287 1.339 1_565 S
C290 C288 1.416 . S
C290 H297 0.930 . S
N291 Tb256 2.572 . S
N291 C292 1.340 . S
N291 C294 1.361 . S
C292 H278 0.930 1_655 S
C292 N291 1.340 . S
C292 C296 1.407 1_545 S
C293 C294 1.413 1_565 S
C293 C295 1.416 . S
C293 C322 1.427 . S
C294 C286 1.424 . S
C294 N291 1.361 . S
C294 C293 1.413 1_545 S
C295 H284 0.931 . S
C295 C293 1.416 . S
C295 C296 1.332 . S
C296 H275 0.929 1_655 S
C296 C292 1.407 1_565 S
C296 C295 1.332 . S
H297 C290 0.930 . S
H298 C321 0.930 . S
H299 C322 0.929 . S
O300 Tb256 2.465 . S
O300 C320 1.264 . S
O301 Tb256 2.387 1_565 S
O301 C312 1.264 . S
O302 Tb267 2.349 . S
O302 C312 1.243 1_455 S
O303 Tb256 2.428 . S
O303 C320 1.256 . S
O304 Tb256 2.308 1_455 S
O304 C319 1.266 . S
O305 Tb267 2.393 . S
O305 C319 1.248 1_565 S
O306 Tb267 2.465 . S
O306 C331 1.264 . S
O307 Tb267 2.387 1_545 S
O307 C323 1.264 . S
O308 Tb256 2.349 1_455 S
O308 C323 1.243 . S
O309 Tb267 2.428 . S
O309 C331 1.256 . S
O310 Tb267 2.308 1_645 S
O310 C330 1.266 . S
O311 Tb256 2.393 . S
O311 C330 1.248 . S
C312 O301 1.264 . S
C312 O302 1.243 1_655 S
C313 C316 1.399 . S
C313 C318 1.383 . S
C313 C320 1.496 . S
C314 C315 1.399 . S
C314 C318 1.389 . S
C315 C314 1.399 . S
C315 C317 1.380 . S
C315 H332 0.929 . S
C316 C313 1.399 . S
C316 C317 1.392 . S
C316 H333 0.929 . S
C317 C315 1.380 . S
C317 C316 1.392 . S
C317 H334 0.929 . S
C318 C313 1.383 . S
C318 C314 1.389 . S
C318 H335 0.931 1_655 S
C319 O304 1.266 . S
C319 O305 1.248 1_545 S
C320 Tb256 2.802 . S
C320 O300 1.264 . S
C320 O303 1.256 . S
C320 C313 1.496 . S
C321 C288 1.448 . S
C321 H298 0.930 . S
C321 C322 1.328 . S
C322 C293 1.427 . S
C322 H299 0.929 . S
C322 C321 1.328 . S
C323 O307 1.264 . S
C323 O308 1.243 . S
C324 C327 1.399 . S
C324 C328 1.383 . S
C324 C331 1.496 . S
C325 C326 1.399 . S
C325 C328 1.389 . S
C326 C325 1.399 . S
C326 C329 1.380 . S
C326 H336 0.929 . S
C327 C324 1.399 . S
C327 C329 1.392 . S
C327 H337 0.929 . S
C328 C324 1.383 . S
C328 C325 1.389 . S
C328 H338 0.931 . S
C329 C326 1.380 . S
C329 C327 1.392 . S
C329 H339 0.929 . S
C330 O310 1.266 . S
C330 O311 1.248 . S
C331 Tb267 2.802 . S
C331 O306 1.264 . S
C331 O309 1.256 . S
C331 C324 1.496 . S
H332 C315 0.929 . S
H333 C316 0.929 . S
H334 C317 0.929 . S
H335 C318 0.931 1_455 S
H336 C326 0.929 . S
H337 C327 0.929 . S
H338 C328 0.931 . S
H339 C329 0.929 . S
Tb340 N369 2.617 . S
Tb340 N375 2.572 . S
Tb340 O384 2.465 . S
Tb340 O385 2.387 . S
Tb340 O387 2.428 . S
Tb340 O388 2.308 . S
Tb340 O392 2.349 1_545 S
Tb340 O395 2.393 . S
Tb340 C404 2.802 . S
C341 N342 1.379 . S
C341 C344 1.416 . S
C341 C348 1.424 . S
N342 C341 1.379 . S
N342 C345 1.334 . S
N342 Tb351 2.617 . S
C343 C345 1.390 . S
C343 C346 1.339 . S
C343 H363 0.930 . S
C344 C341 1.416 . S
C344 C346 1.416 . S
C344 C350 1.448 . S
C345 N342 1.334 . S
C345 C343 1.390 . S
C345 H356 0.930 . S
C346 C343 1.339 . S
C346 C344 1.416 . S
C346 H367 0.930 . S
C347 C348 1.413 . S
C347 C349 1.427 . S
C347 C353 1.416 . S
C348 C341 1.424 . S
C348 C347 1.413 . S
C348 N352 1.361 . S
C349 C347 1.427 . S
C349 C350 1.328 . S
C349 H364 0.929 . S
C350 C344 1.448 . S
C350 C349 1.328 . S
C350 H365 0.930 . S
Tb351 N342 2.617 . S
Tb351 N352 2.572 . S
Tb351 O386 2.349 1_565 S
Tb351 O389 2.393 . S
Tb351 O390 2.465 . S
Tb351 O391 2.387 . S
Tb351 O393 2.428 . S
Tb351 O394 2.308 1_565 S
Tb351 C415 2.802 . S
N352 C348 1.361 . S
N352 Tb351 2.572 . S
N352 C354 1.340 . S
C353 C347 1.416 . S
C353 C355 1.332 . S
C353 H361 0.931 . S
C354 N352 1.340 . S
C354 C355 1.407 . S
C354 H360 0.930 . S
C355 C353 1.332 . S
C355 C354 1.407 . S
C355 H357 0.929 . S
H356 C345 0.930 . S
H357 C355 0.929 . S
H358 C373 0.930 . S
H359 C380 0.929 . S
H360 C354 0.930 . S
H361 C353 0.931 . S
H362 C376 0.930 . S
H363 C343 0.930 . S
H364 C349 0.929 . S
H365 C350 0.930 . S
H366 C371 0.930 . S
H367 C346 0.930 . S
H368 C379 0.931 . S
N369 Tb340 2.617 . S
N369 C370 1.379 . S
N369 C373 1.334 . S
C370 N369 1.379 . S
C370 C372 1.416 . S
C370 C378 1.424 . S
C371 H366 0.930 . S
C371 C373 1.390 . S
C371 C374 1.339 . S
C372 C370 1.416 . S
C372 C374 1.416 . S
C372 C405 1.448 . S
C373 H358 0.930 . S
C373 N369 1.334 . S
C373 C371 1.390 . S
C374 C371 1.339 . S
C374 C372 1.416 . S
C374 H381 0.930 . S
N375 Tb340 2.572 . S
N375 C376 1.340 . S
N375 C378 1.361 . S
C376 H362 0.930 . S
C376 N375 1.340 . S
C376 C380 1.407 . S
C377 C378 1.413 . S
C377 C379 1.416 . S
C377 C406 1.427 . S
C378 C370 1.424 . S
C378 N375 1.361 . S
C378 C377 1.413 . S
C379 H368 0.931 . S
C379 C377 1.416 . S
C379 C380 1.332 . S
C380 H359 0.929 . S
C380 C376 1.407 . S
C380 C379 1.332 . S
H381 C374 0.930 . S
H382 C405 0.930 . S
H383 C406 0.929 . S
O384 Tb340 2.465 . S
O384 C404 1.264 . S
O385 Tb340 2.387 . S
O385 C396 1.264 . S
O386 Tb351 2.349 1_545 S
O386 C396 1.243 . S
O387 Tb340 2.428 . S
O387 C404 1.256 . S
O388 Tb340 2.308 . S
O388 C403 1.266 1_545 S
O389 Tb351 2.393 . S
O389 C403 1.248 . S
O390 Tb351 2.465 . S
O390 C415 1.264 . S
O391 Tb351 2.387 . S
O391 C407 1.264 . S
O392 Tb340 2.349 1_565 S
O392 C407 1.243 . S
O393 Tb351 2.428 . S
O393 C415 1.256 . S
O394 Tb351 2.308 1_545 S
O394 C414 1.266 . S
O395 Tb340 2.393 . S
O395 C414 1.248 . S
C396 O385 1.264 . S
C396 O386 1.243 . S
C397 C400 1.399 . S
C397 C402 1.383 . S
C397 C404 1.496 . S
C398 C399 1.399 . S
C398 C402 1.389 . S
C399 C398 1.399 . S
C399 C401 1.380 . S
C399 H416 0.929 1_556 S
C400 C397 1.399 . S
C400 C401 1.392 . S
C400 H417 0.929 . S
C401 C399 1.380 . S
C401 C400 1.392 . S
C401 H418 0.929 1_556 S
C402 C397 1.383 . S
C402 C398 1.389 . S
C402 H419 0.931 . S
C403 O388 1.266 1_565 S
C403 O389 1.248 . S
C404 Tb340 2.802 . S
C404 O384 1.264 . S
C404 O387 1.256 . S
C404 C397 1.496 . S
C405 C372 1.448 . S
C405 H382 0.930 . S
C405 C406 1.328 . S
C406 C377 1.427 . S
C406 H383 0.929 . S
C406 C405 1.328 . S
C407 O391 1.264 . S
C407 O392 1.243 . S
C408 C411 1.399 . S
C408 C412 1.382 . S
C408 C415 1.496 . S
C409 C410 1.396 1_545 S
C409 C412 1.389 1_545 S
C410 C409 1.396 1_565 S
C410 C413 1.380 . S
C410 H420 0.929 . S
C411 C408 1.399 . S
C411 C413 1.392 . S
C411 H421 0.929 . S
C412 C408 1.382 . S
C412 C409 1.389 1_565 S
C412 H422 0.932 1_565 S
C413 C410 1.380 . S
C413 C411 1.392 . S
C413 H423 0.929 . S
C414 O394 1.266 . S
C414 O395 1.248 . S
C415 Tb351 2.802 . S
C415 O390 1.264 . S
C415 O393 1.256 . S
C415 C408 1.496 . S
H416 C399 0.929 1_554 S
H417 C400 0.929 . S
H418 C401 0.929 1_554 S
H419 C402 0.931 . S
H420 C410 0.929 . S
H421 C411 0.929 . S
H422 C412 0.932 1_545 S
H423 C413 0.929 . S
Tb424 N453 2.617 . S
Tb424 N459 2.572 . S
Tb424 O468 2.465 . S
Tb424 O469 2.387 . S
Tb424 O471 2.428 . S
Tb424 O472 2.308 . S
Tb424 O476 2.349 . S
Tb424 O479 2.393 . S
Tb424 C488 2.802 . S
C425 N426 1.379 . S
C425 C428 1.416 . S
C425 C432 1.424 . S
N426 C425 1.379 . S
N426 C429 1.334 . S
N426 Tb435 2.617 . S
C427 C429 1.390 . S
C427 C430 1.339 . S
C427 H447 0.930 . S
C428 C425 1.416 . S
C428 C430 1.416 . S
C428 C434 1.448 . S
C429 N426 1.334 . S
C429 C427 1.390 . S
C429 H440 0.930 . S
C430 C427 1.339 . S
C430 C428 1.416 . S
C430 H451 0.930 . S
C431 C432 1.413 . S
C431 C433 1.427 . S
C431 C437 1.416 . S
C432 C425 1.424 . S
C432 C431 1.413 . S
C432 N436 1.361 . S
C433 C431 1.427 . S
C433 C434 1.328 . S
C433 H448 0.929 . S
C434 C428 1.448 . S
C434 C433 1.328 . S
C434 H449 0.930 . S
Tb435 N426 2.617 . S
Tb435 N436 2.572 . S
Tb435 O470 2.349 . S
Tb435 O473 2.393 . S
Tb435 O474 2.465 . S
Tb435 O475 2.387 . S
Tb435 O477 2.428 . S
Tb435 O478 2.308 . S
Tb435 C499 2.802 . S
N436 C432 1.361 . S
N436 Tb435 2.572 . S
N436 C438 1.340 . S
C437 C431 1.416 . S
C437 C439 1.332 . S
C437 H445 0.931 1_556 S
C438 N436 1.340 . S
C438 C439 1.407 . S
C438 H444 0.930 . S
C439 C437 1.332 . S
C439 C438 1.407 . S
C439 H441 0.929 . S
H440 C429 0.930 . S
H441 C439 0.929 . S
H442 C457 0.930 . S
H443 C464 0.929 . S
H444 C438 0.930 . S
H445 C437 0.931 1_554 S
H446 C460 0.930 . S
H447 C427 0.930 . S
H448 C433 0.929 . S
H449 C434 0.930 . S
H450 C455 0.930 . S
H451 C430 0.930 . S
H452 C463 0.931 . S
N453 Tb424 2.617 . S
N453 C454 1.379 . S
N453 C457 1.334 . S
C454 N453 1.379 . S
C454 C456 1.416 . S
C454 C462 1.424 . S
C455 H450 0.930 . S
C455 C457 1.390 . S
C455 C458 1.339 . S
C456 C454 1.416 . S
C456 C458 1.416 . S
C456 C489 1.448 . S
C457 H442 0.930 . S
C457 N453 1.334 . S
C457 C455 1.390 . S
C458 C455 1.339 . S
C458 C456 1.416 . S
C458 H465 0.930 . S
N459 Tb424 2.572 . S
N459 C460 1.340 . S
N459 C462 1.361 . S
C460 H446 0.930 . S
C460 N459 1.340 . S
C460 C464 1.407 . S
C461 C462 1.413 . S
C461 C463 1.416 . S
C461 C490 1.427 . S
C462 C454 1.424 . S
C462 N459 1.361 . S
C462 C461 1.413 . S
C463 H452 0.931 . S
C463 C461 1.416 . S
C463 C464 1.332 . S
C464 H443 0.929 . S
C464 C460 1.407 . S
C464 C463 1.332 . S
H465 C458 0.930 . S
H466 C489 0.930 . S
H467 C490 0.929 . S
O468 Tb424 2.465 . S
O468 C488 1.264 . S
O469 Tb424 2.387 . S
O469 C480 1.264 . S
O470 Tb435 2.349 . S
O470 C480 1.243 . S
O471 Tb424 2.428 . S
O471 C488 1.256 . S
O472 Tb424 2.308 . S
O472 C487 1.266 . S
O473 Tb435 2.393 . S
O473 C487 1.248 . S
O474 Tb435 2.465 . S
O474 C499 1.264 . S
O475 Tb435 2.387 . S
O475 C491 1.264 . S
O476 Tb424 2.349 . S
O476 C491 1.243 . S
O477 Tb435 2.428 . S
O477 C499 1.256 . S
O478 Tb435 2.308 . S
O478 C498 1.266 . S
O479 Tb424 2.393 . S
O479 C498 1.248 . S
C480 O469 1.264 . S
C480 O470 1.243 . S
C481 C484 1.399 . S
C481 C486 1.383 . S
C481 C488 1.496 . S
C482 C483 1.399 . S
C482 C486 1.389 . S
C483 C482 1.399 . S
C483 C485 1.380 . S
C483 H500 0.929 . S
C484 C481 1.399 . S
C484 C485 1.392 . S
C484 H501 0.929 . S
C485 C483 1.380 . S
C485 C484 1.392 . S
C485 H502 0.929 . S
C486 C481 1.383 . S
C486 C482 1.389 . S
C486 H503 0.931 . S
C487 O472 1.266 . S
C487 O473 1.248 . S
C488 Tb424 2.802 . S
C488 O468 1.264 . S
C488 O471 1.256 . S
C488 C481 1.496 . S
C489 C456 1.448 . S
C489 H466 0.930 . S
C489 C490 1.328 . S
C490 C461 1.427 . S
C490 H467 0.929 . S
C490 C489 1.328 . S
C491 O475 1.264 . S
C491 O476 1.243 . S
C492 C495 1.399 . S
C492 C496 1.383 . S
C492 C499 1.496 . S
C493 C494 1.399 . S
C493 C496 1.389 . S
C494 C493 1.399 . S
C494 C497 1.380 . S
C494 H504 0.929 . S
C495 C492 1.399 . S
C495 C497 1.392 . S
C495 H505 0.929 . S
C496 C492 1.383 . S
C496 C493 1.389 . S
C496 H506 0.931 . S
C497 C494 1.380 . S
C497 C495 1.392 . S
C497 H507 0.929 . S
C498 O478 1.266 . S
C498 O479 1.248 . S
C499 Tb435 2.802 . S
C499 O474 1.264 . S
C499 O477 1.256 . S
C499 C492 1.496 . S
H500 C483 0.929 . S
H501 C484 0.929 . S
H502 C485 0.929 . S
H503 C486 0.931 . S
H504 C494 0.929 . S
H505 C495 0.929 . S
H506 C496 0.931 . S
H507 C497 0.929 . S
Tb508 N537 2.617 . S
Tb508 N543 2.572 . S
Tb508 O552 2.465 . S
Tb508 O553 2.387 1_455 S
Tb508 O555 2.428 . S
Tb508 O556 2.308 . S
Tb508 O560 2.349 . S
Tb508 O563 2.393 . S
Tb508 C572 2.802 . S
C509 N510 1.379 1_455 S
C509 C512 1.416 . S
C509 C516 1.424 . S
N510 C509 1.379 1_655 S
N510 C513 1.334 . S
N510 Tb519 2.617 . S
C511 C513 1.390 1_455 S
C511 C514 1.339 . S
C511 H531 0.932 . S
C512 C509 1.416 . S
C512 C514 1.416 . S
C512 C518 1.448 . S
C513 N510 1.334 . S
C513 C511 1.390 1_655 S
C513 H524 0.930 . S
C514 C511 1.339 . S
C514 C512 1.416 . S
C514 H535 0.930 . S
C515 C516 1.413 . S
C515 C517 1.427 . S
C515 C521 1.416 . S
C516 C509 1.424 . S
C516 C515 1.413 . S
C516 N520 1.361 . S
C517 C515 1.427 . S
C517 C518 1.328 . S
C517 H532 0.929 . S
C518 C512 1.448 . S
C518 C517 1.328 . S
C518 H533 0.930 . S
Tb519 N510 2.617 . S
Tb519 N520 2.572 1_655 S
Tb519 O554 2.349 . S
Tb519 O557 2.393 . S
Tb519 O558 2.465 . S
Tb519 O559 2.387 1_655 S
Tb519 O561 2.428 . S
Tb519 O562 2.308 . S
Tb519 C583 2.802 . S
N520 C516 1.361 . S
N520 Tb519 2.572 1_455 S
N520 C522 1.340 . S
C521 C515 1.416 . S
C521 C523 1.332 . S
C521 H529 0.931 1_556 S
C522 N520 1.340 . S
C522 C523 1.407 . S
C522 H528 0.930 1_455 S
C523 C521 1.332 . S
C523 C522 1.407 . S
C523 H525 0.929 . S
H524 C513 0.930 . S
H525 C523 0.929 . S
H526 C541 0.930 . S
H527 C548 0.929 . S
H528 C522 0.930 1_655 S
H529 C521 0.931 1_554 S
H530 C544 0.930 . S
H531 C511 0.932 . S
H532 C517 0.929 . S
H533 C518 0.930 . S
H534 C539 0.930 . S
H535 C514 0.930 . S
H536 C547 0.931 . S
N537 Tb508 2.617 . S
N537 C538 1.379 . S
N537 C541 1.334 . S
C538 N537 1.379 . S
C538 C540 1.416 1_455 S
C538 C546 1.421 1_455 S
C539 H534 0.930 . S
C539 C541 1.390 . S
C539 C542 1.339 1_455 S
C540 C538 1.416 1_655 S
C540 C542 1.416 . S
C540 C573 1.448 . S
C541 H526 0.930 . S
C541 N537 1.334 . S
C541 C539 1.390 . S
C542 C539 1.339 1_655 S
C542 C540 1.416 . S
C542 H549 0.930 . S
N543 Tb508 2.572 . S
N543 C544 1.340 . S
N543 C546 1.353 1_455 S
C544 H530 0.930 . S
C544 N543 1.340 . S
C544 C548 1.407 1_455 S
C545 C546 1.423 . S
C545 C547 1.416 . S
C545 C574 1.427 . S
C546 C538 1.421 1_655 S
C546 N543 1.353 1_655 S
C546 C545 1.423 . S
C547 H536 0.931 . S
C547 C545 1.416 . S
C547 C548 1.332 . S
C548 H527 0.929 . S
C548 C544 1.407 1_655 S
C548 C547 1.332 . S
H549 C542 0.930 . S
H550 C573 0.930 . S
H551 C574 0.929 . S
O552 Tb508 2.465 . S
O552 C572 1.264 . S
O553 Tb508 2.387 1_655 S
O553 C564 1.264 . S
O554 Tb519 2.349 . S
O554 C564 1.243 . S
O555 Tb508 2.428 . S
O555 C572 1.256 . S
O556 Tb508 2.308 . S
O556 C571 1.266 . S
O557 Tb519 2.393 . S
O557 C571 1.248 1_655 S
O558 Tb519 2.465 . S
O558 C583 1.264 . S
O559 Tb519 2.387 1_455 S
O559 C575 1.264 . S
O560 Tb508 2.349 . S
O560 C575 1.243 . S
O561 Tb519 2.428 . S
O561 C583 1.256 . S
O562 Tb519 2.308 . S
O562 C582 1.266 1_655 S
O563 Tb508 2.393 . S
O563 C582 1.248 . S
C564 O553 1.264 . S
C564 O554 1.243 . S
C565 C568 1.399 . S
C565 C570 1.383 . S
C565 C572 1.496 . S
C566 C567 1.399 . S
C566 C570 1.389 . S
C567 C566 1.399 . S
C567 C569 1.380 . S
C567 H584 0.929 . S
C568 C565 1.399 . S
C568 C569 1.392 . S
C568 H585 0.929 . S
C569 C567 1.380 . S
C569 C568 1.392 . S
C569 H586 0.929 . S
C570 C565 1.383 . S
C570 C566 1.389 . S
C570 H587 0.931 . S
C571 O556 1.266 . S
C571 O557 1.248 1_455 S
C572 Tb508 2.802 . S
C572 O552 1.264 . S
C572 O555 1.256 . S
C572 C565 1.496 . S
C573 C540 1.448 . S
C573 H550 0.930 . S
C573 C574 1.328 . S
C574 C545 1.427 . S
C574 H551 0.929 . S
C574 C573 1.328 . S
C575 O559 1.264 . S
C575 O560 1.243 . S
C576 C579 1.399 . S
C576 C580 1.383 . S
C576 C583 1.496 . S
C577 C578 1.399 . S
C577 C580 1.389 . S
C578 C577 1.399 . S
C578 C581 1.380 . S
C578 H588 0.929 . S
C579 C576 1.399 . S
C579 C581 1.392 . S
C579 H589 0.929 . S
C580 C576 1.383 . S
C580 C577 1.389 . S
C580 H590 0.931 . S
C581 C578 1.380 . S
C581 C579 1.392 . S
C581 H591 0.929 . S
C582 O562 1.266 1_455 S
C582 O563 1.248 . S
C583 Tb519 2.802 . S
C583 O558 1.264 . S
C583 O561 1.256 . S
C583 C576 1.496 . S
H584 C567 0.929 . S
H585 C568 0.929 . S
H586 C569 0.929 . S
H587 C570 0.931 . S
H588 C578 0.929 . S
H589 C579 0.929 . S
H590 C580 0.931 . S
H591 C581 0.929 . S
H592 C598 0.930 . S
H593 C602 0.930 . S
H594 C607 0.929 . S
H595 C605 0.929 . S
H596 C600 0.929 . S
H597 C606 0.929 . S
C598 H592 0.930 . S
C598 C599 1.367 . S
C598 C606 1.378 . S
C599 C598 1.367 . S
C599 C607 1.433 . S
C600 H596 0.929 . S
C600 C602 1.378 . S
C600 C604 1.350 . S
C601 C604 1.463 . S
C601 C606 1.350 . S
C601 N609 1.427 . S
C602 H593 0.930 . S
C602 C600 1.378 . S
C602 C603 1.367 . S
C603 C602 1.367 . S
C603 C605 1.433 . S
C604 C600 1.350 . S
C604 C601 1.463 . S
C604 N608 1.427 . S
C605 H595 0.929 . S
C605 C603 1.433 . S
C605 N608 1.384 . S
C606 H597 0.929 . S
C606 C598 1.378 . S
C606 C601 1.350 . S
C607 H594 0.929 . S
C607 C599 1.433 . S
C607 N609 1.384 . S
N608 C604 1.427 . S
N608 C605 1.384 . S
N609 C601 1.427 . S
N609 C607 1.384 . S
H610 C616 0.930 . S
H611 C620 0.930 . S
H612 C625 0.929 . S
H613 C623 0.929 . S
H614 C618 0.929 . S
H615 C624 0.929 . S
C616 H610 0.930 . S
C616 C617 1.367 . S
C616 C624 1.378 . S
C617 C616 1.367 . S
C617 C625 1.433 . S
C618 H614 0.929 . S
C618 C620 1.378 . S
C618 C622 1.350 . S
C619 C622 1.463 . S
C619 C624 1.350 . S
C619 N627 1.427 . S
C620 H611 0.930 . S
C620 C618 1.378 . S
C620 C621 1.367 . S
C621 C620 1.367 . S
C621 C623 1.433 . S
C622 C618 1.350 . S
C622 C619 1.463 . S
C622 N626 1.427 . S
C623 H613 0.929 . S
C623 C621 1.433 . S
C623 N626 1.384 . S
C624 H615 0.929 . S
C624 C616 1.378 . S
C624 C619 1.350 . S
C625 H612 0.929 . S
C625 C617 1.433 . S
C625 N627 1.384 . S
N626 C622 1.427 . S
N626 C623 1.384 . S
N627 C619 1.427 . S
N627 C625 1.384 . S
H628 C634 0.930 . S
H629 C638 0.930 . S
H630 C643 0.929 . S
H631 C641 0.929 . S
H632 C636 0.929 . S
H633 C642 0.929 . S
C634 H628 0.930 . S
C634 C635 1.367 . S
C634 C642 1.378 . S
C635 C634 1.367 . S
C635 C643 1.433 . S
C636 H632 0.929 . S
C636 C638 1.378 . S
C636 C640 1.350 . S
C637 C640 1.463 . S
C637 C642 1.350 . S
C637 N645 1.427 . S
C638 H629 0.930 . S
C638 C636 1.378 . S
C638 C639 1.367 . S
C639 C638 1.367 . S
C639 C641 1.433 . S
C640 C636 1.350 . S
C640 C637 1.463 . S
C640 N644 1.427 . S
C641 H631 0.929 . S
C641 C639 1.433 . S
C641 N644 1.384 . S
C642 H633 0.929 . S
C642 C634 1.378 . S
C642 C637 1.350 . S
C643 H630 0.929 . S
C643 C635 1.433 . S
C643 N645 1.384 . S
N644 C640 1.427 . S
N644 C641 1.384 . S
N645 C637 1.427 . S
N645 C643 1.384 . S
H646 C652 0.930 1_655 S
H647 C656 0.930 . S
H648 C661 0.929 . S
H649 C659 0.929 . S
H650 C654 0.929 . S
H651 C660 0.929 1_655 S
C652 H646 0.930 1_455 S
C652 C653 1.367 . S
C652 C660 1.378 . S
C653 C652 1.367 . S
C653 C661 1.433 . S
C654 H650 0.929 . S
C654 C656 1.378 . S
C654 C658 1.350 . S
C655 C658 1.463 . S
C655 C660 1.350 . S
C655 N663 1.427 . S
C656 H647 0.930 . S
C656 C654 1.378 . S
C656 C657 1.367 . S
C657 C656 1.367 . S
C657 C659 1.433 1_455 S
C658 C654 1.350 . S
C658 C655 1.463 . S
C658 N662 1.412 1_455 S
C659 H649 0.929 . S
C659 C657 1.433 1_655 S
C659 N662 1.386 . S
C660 H651 0.929 1_455 S
C660 C652 1.378 . S
C660 C655 1.350 . S
C661 H648 0.929 . S
C661 C653 1.433 . S
C661 N663 1.384 . S
N662 C658 1.412 1_655 S
N662 C659 1.386 . S
N663 C655 1.427 . S
N663 C661 1.384 . S
H664 C670 0.930 . S
H665 C674 0.930 . S
H666 C679 0.963 . S
H667 C677 0.929 . S
H668 C672 0.929 . S
H669 C678 0.929 . S
C670 H664 0.930 . S
C670 C671 1.367 . S
C670 C678 1.378 . S
C671 C670 1.367 . S
C671 C679 1.391 1_565 S
C672 H668 0.929 . S
C672 C674 1.378 . S
C672 C676 1.350 1_545 S
C673 C676 1.463 1_554 S
C673 C678 1.350 . S
C673 N681 1.427 1_565 S
C674 H665 0.930 . S
C674 C672 1.378 . S
C674 C675 1.367 1_545 S
C675 C674 1.367 1_565 S
C675 C677 1.433 . S
C676 C672 1.350 1_565 S
C676 C673 1.463 1_556 S
C676 N680 1.427 . S
C677 H667 0.929 . S
C677 C675 1.433 . S
C677 N680 1.384 . S
C678 H669 0.929 . S
C678 C670 1.378 . S
C678 C673 1.350 . S
C679 H666 0.963 . S
C679 C671 1.391 1_545 S
C679 N681 1.391 . S
N680 C676 1.427 . S
N680 C677 1.384 . S
N681 C673 1.427 1_545 S
N681 C679 1.391 . S
H682 C688 0.930 . S
H683 C692 0.930 . S
H684 C697 0.929 . S
H685 C695 0.929 . S
H686 C690 0.929 . S
H687 C696 0.929 1_556 S
C688 H682 0.930 . S
C688 C689 1.367 . S
C688 C696 1.378 . S
C689 C688 1.367 . S
C689 C697 1.433 . S
C690 H686 0.929 . S
C690 C692 1.378 . S
C690 C694 1.350 . S
C691 C694 1.463 1_554 S
C691 C696 1.350 . S
C691 N699 1.427 . S
C692 H683 0.930 . S
C692 C690 1.378 . S
C692 C693 1.367 . S
C693 C692 1.367 . S
C693 C695 1.433 . S
C694 C690 1.350 . S
C694 C691 1.463 1_556 S
C694 N698 1.427 . S
C695 H685 0.929 . S
C695 C693 1.433 . S
C695 N698 1.384 . S
C696 H687 0.929 1_554 S
C696 C688 1.378 . S
C696 C691 1.350 . S
C697 H684 0.929 . S
C697 C689 1.433 . S
C697 N699 1.384 . S
N698 C694 1.427 . S
N698 C695 1.384 . S
N699 C691 1.427 . S
N699 C697 1.384 . S
H700 C706 0.930 . S
H701 C710 0.930 . S
H702 C715 0.929 . S
H703 C713 0.929 . S
H704 C708 0.929 . S
H705 C714 0.929 . S
C706 H700 0.930 . S
C706 C707 1.367 . S
C706 C714 1.378 . S
C707 C706 1.367 . S
C707 C715 1.433 . S
C708 H704 0.929 . S
C708 C710 1.378 . S
C708 C712 1.350 . S
C709 C712 1.463 1_554 S
C709 C714 1.350 . S
C709 N717 1.427 . S
C710 H701 0.930 . S
C710 C708 1.378 . S
C710 C711 1.367 . S
C711 C710 1.367 . S
C711 C713 1.433 . S
C712 C708 1.350 . S
C712 C709 1.463 1_556 S
C712 N716 1.427 . S
C713 H703 0.929 . S
C713 C711 1.433 . S
C713 N716 1.384 . S
C714 H705 0.929 . S
C714 C706 1.378 . S
C714 C709 1.350 . S
C715 H702 0.929 . S
C715 C707 1.433 . S
C715 N717 1.384 . S
N716 C712 1.427 . S
N716 C713 1.384 . S
N717 C709 1.427 . S
N717 C715 1.384 . S
H718 C724 0.930 . S
H719 C728 0.930 . S
H720 C733 0.929 1_455 S
H721 C731 0.929 . S
H722 C726 0.929 . S
H723 C732 0.929 1_556 S
C724 H718 0.930 . S
C724 C725 1.367 . S
C724 C732 1.378 . S
C725 C724 1.367 . S
C725 C733 1.433 . S
C726 H722 0.929 . S
C726 C728 1.378 . S
C726 C730 1.350 1_455 S
C727 C730 1.463 1_554 S
C727 C732 1.350 . S
C727 N735 1.427 . S
C728 H719 0.930 . S
C728 C726 1.378 . S
C728 C729 1.367 1_455 S
C729 C728 1.367 1_655 S
C729 C731 1.433 . S
C730 C726 1.350 1_655 S
C730 C727 1.463 1_556 S
C730 N734 1.427 . S
C731 H721 0.929 . S
C731 C729 1.433 . S
C731 N734 1.384 . S
C732 H723 0.929 1_554 S
C732 C724 1.378 . S
C732 C727 1.350 . S
C733 H720 0.929 1_655 S
C733 C725 1.433 . S
C733 N735 1.384 . S
N734 C730 1.427 . S
N734 C731 1.384 . S
N735 C727 1.427 . S
N735 C733 1.384 . S
H736 C742 0.930 . S
H737 C746 0.930 . S
H738 C751 0.929 . S
H739 C749 0.929 . S
H740 C744 0.929 . S
H741 C750 0.929 . S
C742 H736 0.930 . S
C742 C743 1.367 . S
C742 C750 1.378 . S
C743 C742 1.367 . S
C743 C751 1.433 . S
C744 H740 0.929 . S
C744 C746 1.378 . S
C744 C748 1.350 1_655 S
C745 C748 1.463 . S
C745 C750 1.350 . S
C745 N753 1.427 . S
C746 H737 0.930 . S
C746 C744 1.378 . S
C746 C747 1.367 . S
C747 C746 1.367 . S
C747 C749 1.433 1_655 S
C748 C744 1.350 1_455 S
C748 C745 1.463 . S
C748 N752 1.427 . S
C749 H739 0.929 . S
C749 C747 1.433 1_455 S
C749 N752 1.384 . S
C750 H741 0.929 . S
C750 C742 1.378 . S
C750 C745 1.350 . S
C751 H738 0.929 . S
C751 C743 1.433 . S
C751 N753 1.384 . S
N752 C748 1.427 . S
N752 C749 1.384 . S
N753 C745 1.427 . S
N753 C751 1.384 . S
H754 C760 0.930 . S
H755 C764 0.930 . S
H756 C769 0.929 . S
H757 C767 0.929 . S
H758 C762 0.933 . S
H759 C768 0.929 . S
C760 H754 0.930 . S
C760 C761 1.367 . S
C760 C768 1.378 . S
C761 C760 1.367 . S
C761 C769 1.433 . S
C762 H758 0.933 . S
C762 C764 1.378 1_545 S
C762 C766 1.350 . S
C763 C766 1.463 . S
C763 C768 1.350 . S
C763 N771 1.427 . S
C764 H755 0.930 . S
C764 C762 1.378 1_565 S
C764 C765 1.367 1_565 S
C765 C764 1.367 1_545 S
C765 C767 1.433 . S
C766 C762 1.350 . S
C766 C763 1.463 . S
C766 N770 1.427 . S
C767 H757 0.929 . S
C767 C765 1.433 . S
C767 N770 1.384 . S
C768 H759 0.929 . S
C768 C760 1.378 . S
C768 C763 1.350 . S
C769 H756 0.929 . S
C769 C761 1.433 . S
C769 N771 1.384 . S
N770 C766 1.427 . S
N770 C767 1.384 . S
N771 C763 1.427 . S
N771 C769 1.384 . S
H772 C778 0.930 . S
H773 C782 0.930 . S
H774 C787 0.929 . S
H775 C785 0.929 . S
H776 C780 0.929 . S
H777 C786 0.929 . S
C778 H772 0.930 . S
C778 C779 1.367 . S
C778 C786 1.378 . S
C779 C778 1.367 . S
C779 C787 1.433 . S
C780 H776 0.929 . S
C780 C782 1.378 . S
C780 C784 1.350 . S
C781 C784 1.463 . S
C781 C786 1.350 . S
C781 N789 1.427 . S
C782 H773 0.930 . S
C782 C780 1.378 . S
C782 C783 1.367 . S
C783 C782 1.367 . S
C783 C785 1.433 . S
C784 C780 1.350 . S
C784 C781 1.463 . S
C784 N788 1.427 . S
C785 H775 0.929 . S
C785 C783 1.433 . S
C785 N788 1.384 . S
C786 H777 0.929 . S
C786 C778 1.378 . S
C786 C781 1.350 . S
C787 H774 0.929 . S
C787 C779 1.433 . S
C787 N789 1.384 . S
N788 C784 1.427 . S
N788 C785 1.384 . S
N789 C781 1.427 . S
N789 C787 1.384 . S
H790 C796 0.930 . S
H791 C800 0.930 . S
H792 C805 0.929 . S
H793 C803 0.929 . S
H794 C798 0.929 . S
H795 C804 0.929 . S
C796 H790 0.930 . S
C796 C797 1.367 . S
C796 C804 1.378 . S
C797 C796 1.367 . S
C797 C805 1.433 . S
C798 H794 0.929 . S
C798 C800 1.378 . S
C798 C802 1.350 . S
C799 C802 1.463 . S
C799 C804 1.350 . S
C799 N807 1.427 . S
C800 H791 0.930 . S
C800 C798 1.378 . S
C800 C801 1.367 . S
C801 C800 1.367 . S
C801 C803 1.433 . S
C802 C798 1.350 . S
C802 C799 1.463 . S
C802 N806 1.427 . S
C803 H793 0.929 . S
C803 C801 1.433 . S
C803 N806 1.384 . S
C804 H795 0.929 . S
C804 C796 1.378 . S
C804 C799 1.350 . S
C805 H792 0.929 . S
C805 C797 1.433 . S
C805 N807 1.384 . S
N806 C802 1.427 . S
N806 C803 1.384 . S
N807 C799 1.427 . S
N807 C805 1.384 . S
H808 C814 0.930 . S
H809 C818 0.930 . S
H810 C823 0.940 . S
H811 C821 0.929 . S
H812 C816 0.929 . S
H813 C822 0.929 . S
C814 H808 0.930 . S
C814 C815 1.367 . S
C814 C822 1.378 . S
C815 C814 1.367 . S
C815 C823 1.433 . S
C816 H812 0.929 . S
C816 C818 1.378 . S
C816 C820 1.350 1_455 S
C817 C820 1.463 1_554 S
C817 C822 1.350 . S
C817 N825 1.441 . S
C818 H809 0.930 . S
C818 C816 1.378 . S
C818 C819 1.367 . S
C819 C818 1.367 . S
C819 C821 1.433 1_455 S
C820 C816 1.350 1_655 S
C820 C817 1.463 1_556 S
C820 N824 1.427 . S
C821 H811 0.929 . S
C821 C819 1.433 1_655 S
C821 N824 1.384 . S
C822 H813 0.929 . S
C822 C814 1.378 . S
C822 C817 1.350 . S
C823 H810 0.940 . S
C823 C815 1.433 . S
C823 N825 1.392 . S
N824 C820 1.427 . S
N824 C821 1.384 . S
N825 C817 1.441 . S
N825 C823 1.392 . S
H826 C832 0.948 . S
H827 C836 0.930 . S
H828 C841 0.929 . S
H829 C839 0.929 . S
H830 C834 0.929 1_554 S
H831 C840 0.943 1_556 S
C832 H826 0.948 . S
C832 C833 1.367 . S
C832 C840 1.371 1_565 S
C833 C832 1.367 . S
C833 C841 1.433 . S
C834 H830 0.929 1_556 S
C834 C836 1.378 . S
C834 C838 1.350 . S
C835 C838 1.463 1_554 S
C835 C840 1.342 1_565 S
C835 N843 1.427 . S
C836 H827 0.930 . S
C836 C834 1.378 . S
C836 C837 1.367 1_565 S
C837 C836 1.367 1_545 S
C837 C839 1.433 . S
C838 C834 1.350 . S
C838 C835 1.463 1_556 S
C838 N842 1.427 1_565 S
C839 H829 0.929 . S
C839 C837 1.433 . S
C839 N842 1.384 . S
C840 H831 0.943 1_554 S
C840 C832 1.371 1_545 S
C840 C835 1.342 1_545 S
C841 H828 0.929 . S
C841 C833 1.433 . S
C841 N843 1.384 . S
N842 C838 1.427 1_545 S
N842 C839 1.384 . S
N843 C835 1.427 . S
N843 C841 1.384 . S
H844 C850 0.930 . S
H845 C854 0.930 . S
H846 C859 0.929 . S
H847 C857 0.929 . S
H848 C852 0.929 . S
H849 C858 0.929 . S
C850 H844 0.930 . S
C850 C851 1.367 . S
C850 C858 1.378 1_554 S
C851 C850 1.367 . S
C851 C859 1.433 . S
C852 H848 0.929 . S
C852 C854 1.378 1_554 S
C852 C856 1.350 1_554 S
C853 C856 1.463 1_554 S
C853 C858 1.350 1_554 S
C853 N861 1.427 . S
C854 H845 0.930 . S
C854 C852 1.378 1_556 S
C854 C855 1.367 . S
C855 C854 1.367 . S
C855 C857 1.433 . S
C856 C852 1.350 1_556 S
C856 C853 1.463 1_556 S
C856 N860 1.427 . S
C857 H847 0.929 . S
C857 C855 1.433 . S
C857 N860 1.384 . S
C858 H849 0.929 . S
C858 C850 1.378 1_556 S
C858 C853 1.350 1_556 S
C859 H846 0.929 . S
C859 C851 1.433 . S
C859 N861 1.384 . S
N860 C856 1.427 . S
N860 C857 1.384 . S
N861 C853 1.427 . S
N861 C859 1.384 . S
H862 C868 0.930 . S
H863 C872 0.930 . S
H864 C877 0.929 . S
H865 C875 0.929 . S
H866 C870 0.929 . S
H867 C876 0.929 . S
C868 H862 0.930 . S
C868 C869 1.367 . S
C868 C876 1.378 . S
C869 C868 1.367 . S
C869 C877 1.433 . S
C870 H866 0.929 . S
C870 C872 1.378 . S
C870 C874 1.350 . S
C871 C874 1.463 1_554 S
C871 C876 1.350 . S
C871 N879 1.427 1_554 S
C872 H863 0.930 . S
C872 C870 1.378 . S
C872 C873 1.367 . S
C873 C872 1.367 . S
C873 C875 1.433 . S
C874 C870 1.350 . S
C874 C871 1.463 1_556 S
C874 N878 1.427 . S
C875 H865 0.929 . S
C875 C873 1.433 . S
C875 N878 1.384 . S
C876 H867 0.929 . S
C876 C868 1.378 . S
C876 C871 1.350 . S
C877 H864 0.929 . S
C877 C869 1.433 . S
C877 N879 1.384 1_554 S
N878 C874 1.427 . S
N878 C875 1.384 . S
N879 C871 1.427 1_556 S
N879 C877 1.384 1_556 S
H880 C886 0.930 . S
H881 C890 0.930 . S
H882 C895 0.929 . S
H883 C893 0.929 . S
H884 C888 0.929 . S
H885 C894 0.929 . S
C886 H880 0.930 . S
C886 C887 1.367 . S
C886 C894 1.378 . S
C887 C886 1.367 . S
C887 C895 1.433 . S
C888 H884 0.929 . S
C888 C890 1.378 . S
C888 C892 1.350 . S
C889 C892 1.463 . S
C889 C894 1.350 . S
C889 N897 1.427 . S
C890 H881 0.930 . S
C890 C888 1.378 . S
C890 C891 1.367 . S
C891 C890 1.367 . S
C891 C893 1.433 . S
C892 C888 1.350 . S
C892 C889 1.463 . S
C892 N896 1.427 . S
C893 H883 0.929 . S
C893 C891 1.433 . S
C893 N896 1.384 . S
C894 H885 0.929 . S
C894 C886 1.378 . S
C894 C889 1.350 . S
C895 H882 0.929 . S
C895 C887 1.433 . S
C895 N897 1.384 . S
N896 C892 1.427 . S
N896 C893 1.384 . S
N897 C889 1.427 . S
N897 C895 1.384 . S
H898 C904 0.930 . S
H899 C908 0.930 1_565 S
H900 C913 0.929 . S
H901 C911 0.929 . S
H902 C906 0.929 1_565 S
H903 C912 0.929 . S
C904 H898 0.930 . S
C904 C905 1.367 . S
C904 C912 1.378 . S
C905 C904 1.367 . S
C905 C913 1.433 . S
C906 H902 0.929 1_545 S
C906 C908 1.378 . S
C906 C910 1.350 . S
C907 C910 1.463 . S
C907 C912 1.350 . S
C907 N915 1.427 . S
C908 H899 0.930 1_545 S
C908 C906 1.378 . S
C908 C909 1.367 . S
C909 C908 1.367 . S
C909 C911 1.433 . S
C910 C906 1.350 . S
C910 C907 1.463 . S
C910 N914 1.427 . S
C911 H901 0.929 . S
C911 C909 1.433 . S
C911 N914 1.384 . S
C912 H903 0.929 . S
C912 C904 1.378 . S
C912 C907 1.350 . S
C913 H900 0.929 . S
C913 C905 1.433 . S
C913 N915 1.384 . S
N914 C910 1.427 . S
N914 C911 1.384 . S
N915 C907 1.427 . S
N915 C913 1.384 . S
H916 C922 0.930 . S
H917 C926 0.930 . S
H918 C931 0.929 . S
H919 C929 0.929 . S
H920 C924 0.929 . S
H921 C930 0.929 . S
C922 H916 0.930 . S
C922 C923 1.367 . S
C922 C930 1.378 . S
C923 C922 1.367 . S
C923 C931 1.433 . S
C924 H920 0.929 . S
C924 C926 1.378 . S
C924 C928 1.350 . S
C925 C928 1.463 . S
C925 C930 1.350 . S
C925 N933 1.427 . S
C926 H917 0.930 . S
C926 C924 1.378 . S
C926 C927 1.367 . S
C927 C926 1.367 . S
C927 C929 1.433 . S
C928 C924 1.350 . S
C928 C925 1.463 . S
C928 N932 1.427 . S
C929 H919 0.929 . S
C929 C927 1.433 . S
C929 N932 1.384 . S
C930 H921 0.929 . S
C930 C922 1.378 . S
C930 C925 1.350 . S
C931 H918 0.929 . S
C931 C923 1.433 . S
C931 N933 1.384 . S
N932 C928 1.427 . S
N932 C929 1.384 . S
N933 C925 1.427 . S
N933 C931 1.384 . S
H934 C940 0.930 . S
H935 C944 0.930 . S
H936 C949 0.929 . S
H937 C947 0.929 . S
H938 C942 0.929 . S
H939 C948 0.929 . S
C940 H934 0.930 . S
C940 C941 1.367 . S
C940 C948 1.378 . S
C941 C940 1.367 . S
C941 C949 1.433 . S
C942 H938 0.929 . S
C942 C944 1.378 . S
C942 C946 1.350 . S
C943 C946 1.463 . S
C943 C948 1.350 . S
C943 N951 1.427 . S
C944 H935 0.930 . S
C944 C942 1.378 . S
C944 C945 1.367 . S
C945 C944 1.367 . S
C945 C947 1.433 . S
C946 C942 1.350 . S
C946 C943 1.463 . S
C946 N950 1.427 . S
C947 H937 0.929 . S
C947 C945 1.433 . S
C947 N950 1.384 . S
C948 H939 0.929 . S
C948 C940 1.378 . S
C948 C943 1.350 . S
C949 H936 0.929 . S
C949 C941 1.433 . S
C949 N951 1.384 . S
N950 C946 1.427 . S
N950 C947 1.384 . S
N951 C943 1.427 . S
N951 C949 1.384 . S
H952 C958 0.930 . S
H953 C962 0.910 1_455 S
H954 C967 0.929 . S
H955 C965 0.929 . S
H956 C960 0.929 1_455 S
H957 C966 0.929 . S
C958 H952 0.930 . S
C958 C959 1.367 . S
C958 C966 1.378 . S
C959 C958 1.367 . S
C959 C967 1.433 . S
C960 H956 0.929 1_655 S
C960 C962 1.382 . S
C960 C964 1.350 . S
C961 C964 1.463 . S
C961 C966 1.350 . S
C961 N969 1.427 . S
C962 H953 0.910 1_655 S
C962 C960 1.382 . S
C962 C963 1.385 . S
C963 C962 1.385 . S
C963 C965 1.433 . S
C964 C960 1.350 . S
C964 C961 1.463 . S
C964 N968 1.427 . S
C965 H955 0.929 . S
C965 C963 1.433 . S
C965 N968 1.384 . S
C966 H957 0.929 . S
C966 C958 1.378 . S
C966 C961 1.350 . S
C967 H954 0.929 . S
C967 C959 1.433 . S
C967 N969 1.384 . S
N968 C964 1.427 . S
N968 C965 1.384 . S
N969 C961 1.427 . S
N969 C967 1.384 . S
H970 C976 0.930 . S
H971 C980 0.930 . S
H972 C985 0.929 . S
H973 C983 0.929 . S
H974 C978 0.911 1_545 S
H975 C984 0.929 . S
C976 H970 0.930 . S
C976 C977 1.367 . S
C976 C984 1.378 . S
C977 C976 1.367 . S
C977 C985 1.433 . S
C978 H974 0.911 1_565 S
C978 C980 1.373 1_565 S
C978 C982 1.375 . S
C979 C982 1.463 . S
C979 C984 1.350 . S
C979 N987 1.427 . S
C980 H971 0.930 . S
C980 C978 1.373 1_545 S
C980 C981 1.367 1_545 S
C981 C980 1.367 1_565 S
C981 C983 1.433 . S
C982 C978 1.375 . S
C982 C979 1.463 . S
C982 N986 1.427 . S
C983 H973 0.929 . S
C983 C981 1.433 . S
C983 N986 1.384 . S
C984 H975 0.929 . S
C984 C976 1.378 . S
C984 C979 1.350 . S
C985 H972 0.929 . S
C985 C977 1.433 . S
C985 N987 1.384 . S
N986 C982 1.427 . S
N986 C983 1.384 . S
N987 C979 1.427 . S
N987 C985 1.384 . S
H988 C994 0.930 . S
H989 C998 0.930 . S
H990 C1003 0.929 . S
H991 C1001 0.929 . S
H992 C996 0.929 . S
H993 C1002 0.929 . S
C994 H988 0.930 . S
C994 C995 1.367 . S
C994 C1002 1.378 . S
C995 C994 1.367 . S
C995 C1003 1.433 . S
C996 H992 0.929 . S
C996 C998 1.378 . S
C996 C1000 1.350 . S
C997 C1000 1.463 . S
C997 C1002 1.350 . S
C997 N1005 1.427 . S
C998 H989 0.930 . S
C998 C996 1.378 . S
C998 C999 1.367 . S
C999 C998 1.367 . S
C999 C1001 1.433 . S
C1000 C996 1.350 . S
C1000 C997 1.463 . S
C1000 N1004 1.427 . S
C1001 H991 0.929 . S
C1001 C999 1.433 . S
C1001 N1004 1.384 . S
C1002 H993 0.929 . S
C1002 C994 1.378 . S
C1002 C997 1.350 . S
C1003 H990 0.929 . S
C1003 C995 1.433 . S
C1003 N1005 1.384 . S
N1004 C1000 1.427 . S
N1004 C1001 1.384 . S
N1005 C997 1.427 . S
N1005 C1003 1.384 . S
H1006 C1012 0.930 . S
H1007 C1016 0.930 . S
H1008 C1021 0.929 . S
H1009 C1019 0.929 . S
H1010 C1014 0.929 . S
H1011 C1020 0.929 . S
C1012 H1006 0.930 . S
C1012 C1013 1.367 . S
C1012 C1020 1.378 . S
C1013 C1012 1.367 . S
C1013 C1021 1.433 . S
C1014 H1010 0.929 . S
C1014 C1016 1.378 . S
C1014 C1018 1.350 . S
C1015 C1018 1.463 . S
C1015 C1020 1.350 . S
C1015 N1023 1.427 . S
C1016 H1007 0.930 . S
C1016 C1014 1.378 . S
C1016 C1017 1.367 . S
C1017 C1016 1.367 . S
C1017 C1019 1.433 . S
C1018 C1014 1.350 . S
C1018 C1015 1.463 . S
C1018 N1022 1.427 . S
C1019 H1009 0.929 . S
C1019 C1017 1.433 . S
C1019 N1022 1.384 . S
C1020 H1011 0.929 . S
C1020 C1012 1.378 . S
C1020 C1015 1.350 . S
C1021 H1008 0.929 . S
C1021 C1013 1.433 . S
C1021 N1023 1.384 . S
N1022 C1018 1.427 . S
N1022 C1019 1.384 . S
N1023 C1015 1.427 . S
N1023 C1021 1.384 . S
C599 C215 2.145 . S
C603 C319 2.253 . S
C621 C396 2.260 . S
C617 C247 2.145 . S
C639 C487 2.244 . S
C635 C151 2.132 . S
C657 C571 2.232 . S
C653 C183 2.121 . S
C675 C330 2.247 1_565 S
C671 C87 2.079 . S
C689 C119 2.074 . S
C693 C407 2.255 . S
C707 C23 2.073 . S
C711 C498 2.250 . S
C725 C55 2.056 . S
C729 C582 2.226 1_655 S
C747 C314 0.502 . S
C743 C189 0.463 . S
C765 C409 0.578 . S
C761 C221 0.430 . S
C783 C482 0.506 . S
C779 C253 0.472 . S
C797 C157 0.449 . S
C801 C566 0.493 . S
C815 C61 0.600 . S
C819 C325 0.501 . S
C837 C398 0.541 . S
C833 C93 0.552 . S
C855 C493 0.527 . S
C851 C125 0.604 . S
C869 C29 0.584 . S
C873 C577 0.492 . S
C887 C177 2.364 . S
C891 C323 2.577 . S
C905 C209 2.355 . S
C909 C414 2.602 . S
C927 C491 2.592 . S
C923 C241 2.375 . S
C945 C575 2.595 . S
C941 C145 2.374 . S
C959 C49 2.321 . S
C963 C312 2.576 . S
C981 C403 2.602 . S
C977 C81 2.315 . S
C999 C480 2.593 . S
C995 C113 2.330 . S
C1013 C17 2.344 . S
C1017 C564 2.600 . S
