# Generated by pormake.
# Topology cml, (3,6)-cn, num edge types: 1
# Building blocks:
#     Node 0, Type 0, BuildingBlock: KAKCAD_clean_linker_0, # of connection points: 3
#     Node 1, Type 0, BuildingBlock: KAKCAD_clean_linker_0, # of connection points: 3
#     Node 2, Type 0, BuildingBlock: KAKCAD_clean_linker_0, # of connection points: 3
#     Node 3, Type 0, BuildingBlock: KAKCAD_clean_linker_0, # of connection points: 3
#     Node 4, Type 0, BuildingBlock: KAKCAD_clean_linker_0, # of connection points: 3
#     Node 5, Type 0, BuildingBlock: KAKCAD_clean_linker_0, # of connection points: 3
#     Node 6, Type 0, BuildingBlock: KAKCAD_clean_linker_0, # of connection points: 3
#     Node 7, Type 0, BuildingBlock: KAKCAD_clean_linker_0, # of connection points: 3
#     Node 8, Type 1, BuildingBlock: OJICUG_clean_sbu_0, # of connection points: 6
#     Node 9, Type 1, BuildingBlock: OJICUG_clean_sbu_0, # of connection points: 6
#     Node 10, Type 1, BuildingBlock: OJICUG_clean_sbu_0, # of connection points: 6
#     Node 11, Type 1, BuildingBlock: OJICUG_clean_sbu_0, # of connection points: 6
#     Edge 12, Type (0, 1), BuildingBlock: AJUNOK_clean_linker_0, # of connection points: 2
#     Edge 13, Type (0, 1), BuildingBlock: AJUNOK_clean_linker_0, # of connection points: 2
#     Edge 14, Type (0, 1), BuildingBlock: AJUNOK_clean_linker_0, # of connection points: 2
#     Edge 15, Type (0, 1), BuildingBlock: AJUNOK_clean_linker_0, # of connection points: 2
#     Edge 16, Type (0, 1), BuildingBlock: AJUNOK_clean_linker_0, # of connection points: 2
#     Edge 17, Type (0, 1), BuildingBlock: AJUNOK_clean_linker_0, # of connection points: 2
#     Edge 18, Type (0, 1), BuildingBlock: AJUNOK_clean_linker_0, # of connection points: 2
#     Edge 19, Type (0, 1), BuildingBlock: AJUNOK_clean_linker_0, # of connection points: 2
#     Edge 20, Type (0, 1), BuildingBlock: AJUNOK_clean_linker_0, # of connection points: 2
#     Edge 21, Type (0, 1), BuildingBlock: AJUNOK_clean_linker_0, # of connection points: 2
#     Edge 22, Type (0, 1), BuildingBlock: AJUNOK_clean_linker_0, # of connection points: 2
#     Edge 23, Type (0, 1), BuildingBlock: AJUNOK_clean_linker_0, # of connection points: 2
#     Edge 24, Type (0, 1), BuildingBlock: AJUNOK_clean_linker_0, # of connection points: 2
#     Edge 25, Type (0, 1), BuildingBlock: AJUNOK_clean_linker_0, # of connection points: 2
#     Edge 26, Type (0, 1), BuildingBlock: AJUNOK_clean_linker_0, # of connection points: 2
#     Edge 27, Type (0, 1), BuildingBlock: AJUNOK_clean_linker_0, # of connection points: 2
#     Edge 28, Type (0, 1), BuildingBlock: AJUNOK_clean_linker_0, # of connection points: 2
#     Edge 29, Type (0, 1), BuildingBlock: AJUNOK_clean_linker_0, # of connection points: 2
#     Edge 30, Type (0, 1), BuildingBlock: AJUNOK_clean_linker_0, # of connection points: 2
#     Edge 31, Type (0, 1), BuildingBlock: AJUNOK_clean_linker_0, # of connection points: 2
#     Edge 32, Type (0, 1), BuildingBlock: AJUNOK_clean_linker_0, # of connection points: 2
#     Edge 33, Type (0, 1), BuildingBlock: AJUNOK_clean_linker_0, # of connection points: 2
#     Edge 34, Type (0, 1), BuildingBlock: AJUNOK_clean_linker_0, # of connection points: 2
#     Edge 35, Type (0, 1), BuildingBlock: AJUNOK_clean_linker_0, # of connection points: 2
# Relax obj value: 0.072
# Max RMSD: 0.085
# Mean RMSD: 0.080
data_MOF--net-cml--node1-OJICUG_clean_sbu_0--node2-KAKCAD_clean_linker_0--edge1-AJUNOK_clean_linker_0
_symmetry_space_group_name_H-M    P1
_symmetry_Int_Tables_number       1
_symmetry_cell_setting            triclinic
loop_
_symmetry_equiv_pos_as_xyz
'x, y, z'
_cell_length_a     37.787466
_cell_length_b     37.956446
_cell_length_c     35.900255
_cell_angle_alpha  89.925866
_cell_angle_beta   90.224503
_cell_angle_gamma 90.103015
loop_
_atom_site_label
_atom_site_type_symbol
_atom_site_fract_x
_atom_site_fract_y
_atom_site_fract_z
_atom_type_partial_charge
C0 C 0.31491 0.50041 0.93833 0.0
C1 C 0.35199 0.50231 0.93936 0.0
C2 C 0.2973 0.47181 0.9546 0.0
C3 C 0.31658 0.44452 0.97182 0.0
C4 C 0.35378 0.44639 0.97202 0.0
C5 C 0.37123 0.4751 0.95628 0.0
C6 C 0.2983 0.41433 0.99 0.0
C7 C 0.26787 0.39904 0.97408 0.0
C8 C 0.25168 0.36954 0.99071 0.0
C9 C 0.26603 0.35564 0.02382 0.0
C10 C 0.29661 0.37027 0.03958 0.0
C11 C 0.31223 0.3998 0.02293 0.0
C12 C 0.3136 0.35391 0.07243 0.0
C13 C 0.29462 0.34826 0.10546 0.0
C14 C 0.34964 0.34516 0.07114 0.0
C15 C 0.36676 0.332 0.10264 0.0
C16 C 0.34822 0.32759 0.13613 0.0
C17 C 0.22095 0.35204 0.97263 0.0
C18 C 0.19327 0.37188 0.95683 0.0
C19 C 0.21918 0.31507 0.97111 0.0
C20 C 0.19017 0.2983 0.95483 0.0
C21 C 0.16238 0.31807 0.93944 0.0
C22 C 0.1642 0.35502 0.94038 0.0
C23 C 0.31194 0.33553 0.13727 0.0
H24 H 0.29961 0.52126 0.92544 0.0
H25 H 0.26865 0.47139 0.95424 0.0
H26 H 0.36958 0.42549 0.9841 0.0
H27 H 0.3999 0.47584 0.95687 0.0
H28 H 0.25764 0.40913 0.94794 0.0
H29 H 0.33536 0.4115 0.03594 0.0
H30 H 0.25394 0.33289 0.03693 0.0
H31 H 0.2668 0.35493 0.10703 0.0
H32 H 0.36472 0.34911 0.04586 0.0
H33 H 0.39489 0.32673 0.10127 0.0
H34 H 0.19376 0.40039 0.95785 0.0
H35 H 0.24039 0.29901 0.98228 0.0
H36 H 0.29725 0.3326 0.16294 0.0
H37 H 0.14284 0.37081 0.92912 0.0
H38 H 0.18952 0.26977 0.95409 0.0
C39 C 0.68142 0.49459 0.42918 0.0
C40 C 0.64503 0.49601 0.42122 0.0
C41 C 0.69811 0.52282 0.44711 0.0
C42 C 0.67852 0.5526 0.45764 0.0
C43 C 0.64233 0.55422 0.44885 0.0
C44 C 0.62578 0.52625 0.43069 0.0
C45 C 0.69529 0.58156 0.47883 0.0
C46 C 0.72714 0.59667 0.46682 0.0
C47 C 0.74223 0.62517 0.48624 0.0
C48 C 0.7256 0.63769 0.51862 0.0
C49 C 0.69362 0.62288 0.53063 0.0
C50 C 0.67865 0.59488 0.51065 0.0
C51 C 0.67503 0.63697 0.56349 0.0
C52 C 0.69225 0.63946 0.59811 0.0
C53 C 0.63916 0.64621 0.56067 0.0
C54 C 0.6205 0.6568 0.59213 0.0
C55 C 0.63731 0.65803 0.62703 0.0
C56 C 0.77387 0.64334 0.47118 0.0
C57 C 0.80195 0.62408 0.45566 0.0
C58 C 0.77541 0.68033 0.47078 0.0
C59 C 0.80421 0.6977 0.45496 0.0
C60 C 0.83198 0.67848 0.43903 0.0
C61 C 0.83077 0.64152 0.43972 0.0
C62 C 0.67339 0.64957 0.62979 0.0
H63 H 0.69679 0.47159 0.42181 0.0
H64 H 0.72606 0.52098 0.45365 0.0
H65 H 0.62676 0.57708 0.45628 0.0
H66 H 0.59767 0.52785 0.4249 0.0
H67 H 0.73924 0.58726 0.44139 0.0
H68 H 0.6541 0.58315 0.52018 0.0
H69 H 0.73703 0.6595 0.53402 0.0
H70 H 0.71987 0.63227 0.6009 0.0
H71 H 0.62541 0.64462 0.53418 0.0
H72 H 0.59256 0.66267 0.58946 0.0
H73 H 0.80169 0.59555 0.45596 0.0
H74 H 0.75393 0.69594 0.48185 0.0
H75 H 0.68675 0.65017 0.65654 0.0
H76 H 0.85222 0.62615 0.42819 0.0
H77 H 0.80447 0.72624 0.45455 0.0
C78 C 0.66237 0.47899 0.9038 0.0
C79 C 0.64779 0.50662 0.92469 0.0
C80 C 0.67955 0.45103 0.92154 0.0
C81 C 0.68272 0.45024 0.96059 0.0
C82 C 0.66935 0.47864 0.98131 0.0
C83 C 0.6518 0.50632 0.96361 0.0
C84 C 0.69824 0.41915 0.97978 0.0
C85 C 0.72727 0.40132 0.96458 0.0
C86 C 0.74105 0.37114 0.98196 0.0
C87 C 0.72614 0.35932 0.01556 0.0
C88 C 0.69716 0.3769 0.03132 0.0
C89 C 0.68318 0.40649 0.01291 0.0
C90 C 0.68075 0.36426 0.0665 0.0
C91 C 0.67647 0.32804 0.07372 0.0
C92 C 0.66803 0.38862 0.09265 0.0
C93 C 0.65017 0.37721 0.12434 0.0
C94 C 0.64496 0.3411 0.13108 0.0
C95 C 0.77042 0.35148 0.96443 0.0
C96 C 0.76996 0.34476 0.92591 0.0
C97 C 0.79872 0.33877 0.98603 0.0
C98 C 0.82589 0.31956 0.96949 0.0
C99 C 0.82531 0.31273 0.93104 0.0
C100 C 0.79712 0.32551 0.90938 0.0
C101 C 0.65894 0.31658 0.10582 0.0
H102 H 0.65972 0.47856 0.87375 0.0
H103 H 0.68918 0.42946 0.9047 0.0
H104 H 0.67182 0.47917 0.01137 0.0
H105 H 0.6402 0.52678 0.98061 0.0
H106 H 0.73946 0.4111 0.93932 0.0
H107 H 0.65973 0.41911 0.02384 0.0
H108 H 0.73691 0.33622 0.02922 0.0
H109 H 0.68579 0.30851 0.05413 0.0
H110 H 0.67152 0.41668 0.08847 0.0
H111 H 0.63965 0.39683 0.14316 0.0
H112 H 0.74818 0.35374 0.90866 0.0
H113 H 0.79997 0.34389 0.01569 0.0
H114 H 0.65608 0.28856 0.11065 0.0
H115 H 0.79569 0.31998 0.87982 0.0
H116 H 0.84749 0.31012 0.98673 0.0
C117 C 0.30655 0.64914 0.62627 0.0
C118 C 0.34297 0.65654 0.62797 0.0
C119 C 0.29093 0.63876 0.5926 0.0
C120 C 0.31169 0.6352 0.56047 0.0
C121 C 0.34778 0.6439 0.56198 0.0
C122 C 0.36323 0.65466 0.59538 0.0
C123 C 0.29657 0.62056 0.52578 0.0
C124 C 0.26626 0.63521 0.50953 0.0
C125 C 0.25333 0.62237 0.47537 0.0
C126 C 0.27077 0.59421 0.45785 0.0
C127 C 0.30092 0.57896 0.47421 0.0
C128 C 0.31343 0.59228 0.50828 0.0
C129 C 0.31992 0.54945 0.45598 0.0
C130 C 0.30133 0.52169 0.43873 0.0
C131 C 0.3571 0.54823 0.45714 0.0
C132 C 0.3752 0.5193 0.44299 0.0
C133 C 0.35659 0.49119 0.42692 0.0
C134 C 0.22257 0.63961 0.45738 0.0
C135 C 0.19277 0.6487 0.47853 0.0
C136 C 0.22357 0.64877 0.41945 0.0
C137 C 0.19571 0.66757 0.40326 0.0
C138 C 0.16628 0.6773 0.42466 0.0
C139 C 0.1649 0.66735 0.46232 0.0
C140 C 0.3196 0.49281 0.4241 0.0
H141 H 0.29045 0.65058 0.65112 0.0
H142 H 0.26303 0.63217 0.592 0.0
H143 H 0.3642 0.64167 0.53742 0.0
H144 H 0.3914 0.66006 0.59609 0.0
H145 H 0.25363 0.65753 0.52277 0.0
H146 H 0.33626 0.58039 0.52164 0.0
H147 H 0.26106 0.58446 0.43135 0.0
H148 H 0.27269 0.52174 0.43756 0.0
H149 H 0.37231 0.56956 0.46929 0.0
H150 H 0.40383 0.51875 0.44479 0.0
H151 H 0.19115 0.64162 0.50771 0.0
H152 H 0.24644 0.64252 0.40263 0.0
H153 H 0.30487 0.47132 0.41161 0.0
H154 H 0.14235 0.67428 0.47933 0.0
H155 H 0.19774 0.67549 0.37435 0.0
C156 C 0.81853 -0.00124 0.93299 0.0
C157 C 0.85486 0.99395 0.9268 0.0
C158 C 0.79855 0.97212 0.9499 0.0
C159 C 0.81488 0.94072 0.96147 0.0
C160 C 0.85117 0.93595 0.955 0.0
C161 C 0.87094 0.96227 0.9377 0.0
C162 C 0.7948 0.91345 0.98187 0.0
C163 C 0.76363 0.89904 0.96697 0.0
C164 C 0.74561 0.8718 0.98577 0.0
C165 C 0.75884 0.86002 0.0204 0.0
C166 C 0.79042 0.87376 0.03498 0.0
C167 C 0.80805 0.90061 0.0157 0.0
C168 C 0.80637 0.85918 0.06938 0.0
C169 C 0.78655 0.85574 0.10221 0.0
C170 C 0.84236 0.85006 0.06976 0.0
C171 C 0.85867 0.8392 0.10266 0.0
C172 C 0.8394 0.83743 0.13594 0.0
C173 C 0.71475 0.85388 0.968 0.0
C174 C 0.69083 0.87259 0.94525 0.0
C175 C 0.70994 0.81734 0.97231 0.0
C176 C 0.68208 0.80003 0.95451 0.0
C177 C 0.65859 0.81857 0.93129 0.0
C178 C 0.6633 0.85507 0.9268 0.0
C179 C 0.80302 0.84509 0.13537 0.0
H180 H 0.8057 0.02309 0.92482 0.0
H181 H 0.77062 0.97639 0.95485 0.0
H182 H 0.86429 0.91189 0.96357 0.0
H183 H 0.89902 0.95818 0.93354 0.0
H184 H 0.75458 0.90794 0.93989 0.0
H185 H 0.83225 0.91165 0.02715 0.0
H186 H 0.74526 0.83939 0.03559 0.0
H187 H 0.75873 0.86256 0.10254 0.0
H188 H 0.85809 0.852 0.04467 0.0
H189 H 0.88678 0.8336 0.1024 0.0
H190 H 0.69342 0.90078 0.94149 0.0
H191 H 0.72815 0.80173 0.98879 0.0
H192 H 0.78757 0.84361 0.16067 0.0
H193 H 0.64614 0.87006 0.90852 0.0
H194 H 0.67905 0.77193 0.95881 0.0
C195 C 0.17675 0.99704 0.43269 0.0
C196 C 0.13999 -0.00079 0.42724 0.0
C197 C 0.19501 0.02455 0.45023 0.0
C198 C 0.17666 0.05437 0.46292 0.0
C199 C 0.13999 0.05662 0.45692 0.0
C200 C 0.12188 0.02938 0.43913 0.0
C201 C 0.19527 0.0829 0.48314 0.0
C202 C 0.22645 0.09775 0.46893 0.0
C203 C 0.243 0.12605 0.48732 0.0
C204 C 0.22847 0.13876 0.52073 0.0
C205 C 0.19727 0.1242 0.53513 0.0
C206 C 0.18093 0.09622 0.51622 0.0
C207 C 0.18114 0.13849 0.5695 0.0
C208 C 0.20187 0.14529 0.6013 0.0
C209 C 0.14449 0.1444 0.57095 0.0
C210 C 0.12866 0.15555 0.6039 0.0
C211 C 0.14911 0.16089 0.63613 0.0
C212 C 0.2744 0.14355 0.47083 0.0
C213 C 0.30166 0.12375 0.45445 0.0
C214 C 0.27708 0.18049 0.47115 0.0
C215 C 0.30664 0.19723 0.4562 0.0
C216 C 0.33413 0.17745 0.44056 0.0
C217 C 0.33126 0.14061 0.43931 0.0
C218 C 0.18596 0.15633 0.63441 0.0
H219 H 0.19128 0.97411 0.42341 0.0
H220 H 0.22329 0.02221 0.45461 0.0
H221 H 0.12529 0.0795 0.46603 0.0
H222 H 0.09351 0.03158 0.43529 0.0
H223 H 0.23691 0.08826 0.44273 0.0
H224 H 0.1571 0.08445 0.52753 0.0
H225 H 0.2411 0.16046 0.53523 0.0
H226 H 0.23019 0.14094 0.60094 0.0
H227 H 0.12795 0.13994 0.54669 0.0
H228 H 0.10018 0.15873 0.60454 0.0
H229 H 0.3004 0.09525 0.45393 0.0
H230 H 0.25614 0.19655 0.48265 0.0
H231 H 0.20231 0.16062 0.65883 0.0
H232 H 0.35221 0.12488 0.42732 0.0
H233 H 0.30796 0.22575 0.45673 0.0
C234 C 0.16841 0.9883 0.92714 0.0
C235 C 0.16203 0.01902 0.94786 0.0
C236 C 0.18756 0.96049 0.94267 0.0
C237 C 0.20037 0.96276 0.97933 0.0
C238 C 0.19575 0.99413 -0.00064 0.0
C239 C 0.17711 0.02221 0.98358 0.0
C240 C 0.21506 0.93112 -0.00232 0.0
C241 C 0.24137 0.91112 0.98033 0.0
C242 C 0.25234 0.87873 0.9956 0.0
C243 C 0.23628 0.86656 0.02854 0.0
C244 C 0.21055 0.88683 0.04655 0.0
C245 C 0.20028 0.91919 0.03111 0.0
C246 C 0.19268 0.87371 0.0804 0.0
C247 C 0.17716 0.84003 0.08102 0.0
C248 C 0.18833 0.89611 0.11109 0.0
C249 C 0.16727 0.88582 0.14097 0.0
C250 C 0.14993 0.85305 0.14064 0.0
C251 C 0.28028 0.85761 0.97706 0.0
C252 C 0.28296 0.85689 0.93797 0.0
C253 C 0.30471 0.83813 -0.00166 0.0
C254 C 0.33107 0.81848 0.98102 0.0
C255 C 0.33431 0.81859 0.94205 0.0
C256 C 0.30983 0.83782 0.9207 0.0
C257 C 0.15578 0.82982 0.11088 0.0
H258 H 0.15705 0.98498 0.89962 0.0
H259 H 0.19059 0.93644 0.92679 0.0
H260 H 0.20578 0.99655 0.02756 0.0
H261 H 0.17357 0.046 -0.00024 0.0
H262 H 0.25331 0.92106 0.95501 0.0
H263 H 0.17931 0.93424 0.0441 0.0
H264 H 0.24349 0.8412 0.04016 0.0
H265 H 0.17994 0.82242 0.0575 0.0
H266 H 0.20037 0.92203 0.11141 0.0
H267 H 0.16346 0.90406 0.16379 0.0
H268 H 0.26419 0.87086 0.92056 0.0
H269 H 0.30379 0.83827 0.02847 0.0
H270 H 0.14232 0.80463 0.10968 0.0
H271 H 0.31157 0.83834 0.8906 0.0
H272 H 0.34881 0.80304 -0.00175 0.0
C273 C 0.82113 0.10478 0.65206 0.0
C274 C 0.83971 0.13684 0.65087 0.0
C275 C 0.79943 0.09479 0.62241 0.0
C276 C 0.79551 0.11694 0.59136 0.0
C277 C 0.81132 0.15046 0.59176 0.0
C278 C 0.83338 0.16036 0.62137 0.0
C279 C 0.78017 0.1028 0.55657 0.0
C280 C 0.75358 0.12082 0.53709 0.0
C281 C 0.74124 0.10817 0.5025 0.0
C282 C 0.75645 0.07755 0.48738 0.0
C283 C 0.78389 0.06007 0.50619 0.0
C284 C 0.79494 0.07237 0.54111 0.0
C285 C 0.80379 0.03145 0.48784 0.0
C286 C 0.7863 0.00341 0.46994 0.0
C287 C 0.84094 0.03295 0.48713 0.0
C288 C 0.86025 0.00726 0.46855 0.0
C289 C 0.84281 0.97949 0.45054 0.0
C290 C 0.71392 0.12803 0.48138 0.0
C291 C 0.68533 0.14356 0.5001 0.0
C292 C 0.71678 0.13262 0.44256 0.0
C293 C 0.69205 0.15296 0.42311 0.0
C294 C 0.66432 0.16937 0.44219 0.0
C295 C 0.66083 0.16408 0.4807 0.0
C296 C 0.80578 0.97739 0.45154 0.0
H297 H 0.82505 0.08655 0.67495 0.0
H298 H 0.78723 0.06893 0.62277 0.0
H299 H 0.80879 0.16787 0.56796 0.0
H300 H 0.84738 0.18525 0.61993 0.0
H301 H 0.74312 0.14505 0.54856 0.0
H302 H 0.81632 0.05905 0.55562 0.0
H303 H 0.74781 0.06797 0.46042 0.0
H304 H 0.75768 0.0017 0.47016 0.0
H305 H 0.85509 0.05455 0.50015 0.0
H306 H 0.88885 0.0093 0.46775 0.0
H307 H 0.68195 0.13999 0.52981 0.0
H308 H 0.73872 0.12141 0.42734 0.0
H309 H 0.79202 0.95612 0.43751 0.0
H310 H 0.63923 0.17608 0.49583 0.0
H311 H 0.69521 0.15682 0.3934 0.0
Sc312 Sc 0.99439 0.77991 0.30373 0.0
Sc313 Sc 0.98955 0.87263 0.30585 0.0
Sc314 Sc -0.00215 0.82555 0.3895 0.0
O315 O 0.99397 0.82597 0.33302 0.0
C316 C 0.94624 0.76038 0.37363 0.0
C317 C 0.93606 0.82464 0.25966 0.0
C318 C 0.94103 0.88647 0.37666 0.0
C319 C 0.04184 0.82971 0.25286 0.0
C320 C 0.05169 0.7645 0.36742 0.0
C321 C 0.04637 0.89154 0.36858 0.0
O322 O 0.95569 0.75596 0.33998 0.0
O323 O 0.94664 0.85416 0.27198 0.0
O324 O 0.95515 0.86262 0.39665 0.0
O325 O 0.03332 0.79923 0.26464 0.0
O326 O 0.04067 0.78845 0.38915 0.0
O327 O 0.03191 0.89658 0.337 0.0
O328 O 0.03734 0.75825 0.33605 0.0
O329 O 0.02762 0.85777 0.26485 0.0
O330 O 0.03674 0.86712 0.3906 0.0
O331 O 0.95132 0.79573 0.2676 0.0
O332 O 0.95959 0.78403 0.39445 0.0
O333 O 0.95093 0.89286 0.34362 0.0
Sc334 Sc -0.00229 0.21485 0.80777 0.0
Sc335 Sc 0.00902 0.12277 0.81126 0.0
Sc336 Sc -0.00393 0.1697 0.89403 0.0
O337 O 0.00092 0.16918 0.83769 0.0
C338 C 0.04562 0.23654 0.87752 0.0
C339 C 0.05815 0.17343 0.76366 0.0
C340 C 0.05676 0.11222 0.88338 0.0
C341 C 0.9531 0.16163 0.75786 0.0
C342 C 0.94022 0.22861 0.87124 0.0
C343 C 0.95209 0.10089 0.8728 0.0
O344 O 0.03581 0.24045 0.84376 0.0
O345 O 0.05029 0.14357 0.77715 0.0
O346 O 0.03959 0.13418 0.90285 0.0
O347 O 0.95927 0.19275 0.76949 0.0
O348 O 0.95207 0.20506 0.89301 0.0
O349 O 0.96853 0.09629 0.84242 0.0
O350 O 0.9542 0.23529 0.8399 0.0
O351 O 0.96958 0.13479 0.77005 0.0
O352 O 0.9586 0.12665 0.89443 0.0
O353 O 0.0408 0.20123 0.77097 0.0
O354 O 0.03304 0.21269 0.89869 0.0
O355 O 0.04941 0.10583 0.84953 0.0
Sc356 Sc 0.50152 0.26973 0.30756 0.0
Sc357 Sc 0.49832 0.36282 0.30316 0.0
Sc358 Sc 0.50473 0.32094 0.38974 0.0
O359 O 0.50151 0.31775 0.33342 0.0
C360 C 0.4525 0.25564 0.37851 0.0
C361 C 0.44511 0.31225 0.25901 0.0
C362 C 0.44899 0.38192 0.3717 0.0
C363 C 0.55055 0.31599 0.25433 0.0
C364 C 0.5582 0.25808 0.37258 0.0
C365 C 0.55426 0.3848 0.36584 0.0
O366 O 0.46313 0.24802 0.34588 0.0
O367 O 0.45693 0.3423 0.26839 0.0
O368 O 0.4638 0.36006 0.39356 0.0
O369 O 0.53955 0.28632 0.26616 0.0
O370 O 0.54595 0.28257 0.39275 0.0
O371 O 0.53927 0.38897 0.33442 0.0
O372 O 0.54505 0.25012 0.341 0.0
O373 O 0.53856 0.34533 0.26557 0.0
O374 O 0.54512 0.36087 0.38861 0.0
O375 O 0.45824 0.2835 0.27084 0.0
O376 O 0.4649 0.28138 0.39699 0.0
O377 O 0.4579 0.38528 0.3378 0.0
Sc378 Sc 0.48965 0.71777 0.80165 0.0
Sc379 Sc 0.49027 0.62481 0.80205 0.0
Sc380 Sc 0.49725 0.67103 0.88643 0.0
O381 O 0.49237 0.67123 0.83003 0.0
C382 C 0.5468 0.73511 0.86501 0.0
C383 C 0.54069 0.67207 0.75065 0.0
C384 C 0.54767 0.60725 0.86447 0.0
C385 C 0.43506 0.67047 0.75543 0.0
C386 C 0.4424 0.7337 0.87214 0.0
C387 C 0.44217 0.60839 0.87288 0.0
O388 O 0.53049 0.74249 0.83499 0.0
O389 O 0.52851 0.64265 0.7619 0.0
O390 O 0.53733 0.63101 0.88671 0.0
O391 O 0.44842 0.69999 0.76445 0.0
O392 O 0.45838 0.71181 0.89306 0.0
O393 O 0.45198 0.60258 0.83961 0.0
O394 O 0.44911 0.73776 0.83775 0.0
O395 O 0.44693 0.64137 0.76754 0.0
O396 O 0.45591 0.63226 0.8932 0.0
O397 O 0.52984 0.70163 0.76276 0.0
O398 O 0.53909 0.7091 0.88563 0.0
O399 O 0.53326 0.60183 0.833 0.0
C400 C 0.11423 0.27348 0.9445 0.0
C401 C 0.13125 0.29967 0.9235 0.0
C402 C 0.08614 0.25398 0.92962 0.0
C403 C 0.07395 0.25966 0.89293 0.0
H404 H 0.12289 0.26781 0.97269 0.0
H405 H 0.07437 0.23384 0.94704 0.0
S406 S 0.10959 0.32608 0.82664 0.0
N407 N 0.13396 0.33098 0.86457 0.0
N408 N 0.08098 0.29444 0.83624 0.0
C409 C 0.0904 0.28644 0.87183 0.0
C410 C 0.11903 0.30642 0.8872 0.0
C411 C 0.87938 0.72398 0.44233 0.0
C412 C 0.86215 0.69738 0.42207 0.0
C413 C 0.90676 0.74366 0.42653 0.0
C414 C 0.91799 0.73772 0.38965 0.0
H415 H 0.87153 0.72972 0.47068 0.0
H416 H 0.91889 0.764 0.44346 0.0
S417 S 0.88094 0.67068 0.32486 0.0
N418 N 0.85783 0.66577 0.36346 0.0
N419 N 0.90954 0.70263 0.33344 0.0
C420 C 0.90113 0.71075 0.36918 0.0
C421 C 0.87321 0.6906 0.38548 0.0
C422 C 0.86309 0.25902 0.93023 0.0
C423 C 0.85362 0.29132 0.91397 0.0
C424 C 0.89047 0.23865 0.91557 0.0
C425 C 0.90961 0.24979 0.88405 0.0
H426 H 0.84921 0.24938 0.95457 0.0
H427 H 0.8968 0.21406 0.9294 0.0
S428 S 0.89498 0.33283 0.83129 0.0
N429 N 0.86521 0.3338 0.86482 0.0
N430 N 0.91672 0.29548 0.83688 0.0
C431 C 0.89994 0.2819 0.86711 0.0
C432 C 0.87196 0.30266 0.88215 0.0
C433 C 0.12662 0.7296 0.42765 0.0
C434 C 0.13778 0.69936 0.40853 0.0
C435 C 0.09933 0.75071 0.41373 0.0
C436 C 0.0819 0.74242 0.38007 0.0
H437 H 0.1392 0.73712 0.45363 0.0
H438 H 0.09176 0.77361 0.42979 0.0
S439 S 0.10153 0.66571 0.31927 0.0
N440 N 0.12967 0.66194 0.35433 0.0
N441 N 0.07841 0.70167 0.32769 0.0
C442 C 0.09323 0.71238 0.36033 0.0
C443 C 0.12114 0.69087 0.37465 0.0
C444 C 0.63706 0.76635 0.89512 0.0
C445 C 0.62986 0.79931 0.91149 0.0
C446 C 0.6101 0.7461 0.87896 0.0
C447 C 0.57521 0.75848 0.87777 0.0
H448 H 0.66368 0.7558 0.89531 0.0
H449 H 0.61647 0.72037 0.86781 0.0
S450 S 0.54178 0.8423 0.91649 0.0
N451 N 0.58462 0.84285 0.92585 0.0
N452 N 0.53435 0.80516 0.89383 0.0
C453 C 0.56759 0.7916 0.89289 0.0
C454 C 0.59487 0.81201 0.91006 0.0
C455 C 0.3767 0.19021 0.38904 0.0
C456 C 0.36584 0.19557 0.42596 0.0
C457 C 0.40514 0.20926 0.37406 0.0
C458 C 0.42382 0.23424 0.39557 0.0
H459 H 0.36249 0.17189 0.37131 0.0
H460 H 0.41199 0.20483 0.34518 0.0
S461 S 0.40763 0.25476 0.49541 0.0
N462 N 0.37717 0.22526 0.48462 0.0
N463 N 0.4306 0.26107 0.45697 0.0
C464 C 0.41383 0.23873 0.43312 0.0
C465 C 0.38486 0.21941 0.44818 0.0
C466 C 0.35497 0.77766 0.89194 0.0
C467 C 0.36274 0.79817 0.92365 0.0
C468 C 0.38112 0.75731 0.87476 0.0
C469 C 0.41564 0.75632 0.8892 0.0
H470 H 0.32833 0.77678 0.88071 0.0
H471 H 0.3741 0.74156 0.85068 0.0
S472 S 0.45088 0.80772 0.96872 0.0
N473 N 0.40863 0.81862 0.96635 0.0
N474 N 0.45719 0.77885 0.93504 0.0
C475 C 0.42405 0.77705 0.92027 0.0
C476 C 0.39773 0.79835 0.9373 0.0
C477 C 0.61955 0.18089 0.39203 0.0
C478 C 0.63963 0.1931 0.42243 0.0
C479 C 0.59405 0.20249 0.37501 0.0
C480 C 0.58794 0.23702 0.38782 0.0
H481 H 0.62276 0.15412 0.38218 0.0
H482 H 0.57824 0.19161 0.35257 0.0
S483 S 0.63779 0.28269 0.46312 0.0
N484 N 0.65457 0.2426 0.4622 0.0
N485 N 0.60706 0.28342 0.43033 0.0
C486 C 0.60936 0.24999 0.417 0.0
C487 C 0.63508 0.22796 0.43429 0.0
C488 C 0.39482 0.55212 0.94435 0.0
C489 C 0.37121 0.53224 0.92251 0.0
C490 C 0.41642 0.57797 0.92828 0.0
C491 C 0.41565 0.58439 0.88964 0.0
H492 H 0.39716 0.54705 0.97397 0.0
H493 H 0.43494 0.5919 0.94608 0.0
S494 S 0.35667 0.54057 0.82084 0.0
N495 N 0.34677 0.52169 0.86093 0.0
N496 N 0.38765 0.57001 0.83035 0.0
C497 C 0.39119 0.56543 0.86773 0.0
C498 C 0.36886 0.53944 0.88426 0.0
C499 C 0.60484 0.47079 0.37295 0.0
C500 C 0.62629 0.46568 0.4045 0.0
C501 C 0.58297 0.44383 0.35956 0.0
C502 C 0.58136 0.41086 0.37757 0.0
H503 H 0.60424 0.49618 0.35912 0.0
H504 H 0.56609 0.44951 0.33586 0.0
S505 S 0.63466 0.38361 0.45983 0.0
N506 N 0.64641 0.42491 0.45223 0.0
N507 N 0.60532 0.37397 0.42719 0.0
C508 C 0.60398 0.40497 0.40824 0.0
C509 C 0.62648 0.43243 0.42166 0.0
C510 C 0.59943 0.52343 0.88053 0.0
C511 C 0.62551 0.53381 0.9064 0.0
C512 C 0.57529 0.54773 0.8659 0.0
C513 C 0.57603 0.58324 0.87693 0.0
H514 H 0.59667 0.49602 0.87264 0.0
H515 H 0.55492 0.53825 0.84707 0.0
S516 S 0.64209 0.6249 0.93969 0.0
N517 N 0.65314 0.58282 0.93912 0.0
N518 N 0.607 0.62839 0.91238 0.0
C519 C 0.60291 0.59435 0.90145 0.0
C520 C 0.62781 0.56966 0.91601 0.0
C521 C 0.37732 0.45188 0.37581 0.0
C522 C 0.37629 0.46011 0.41387 0.0
C523 C 0.39998 0.42557 0.3625 0.0
C524 C 0.42208 0.40637 0.38691 0.0
H525 H 0.36165 0.46689 0.35608 0.0
H526 H 0.40081 0.42089 0.33276 0.0
S527 S 0.42608 0.41624 0.48986 0.0
N528 N 0.39694 0.44593 0.47614 0.0
N529 N 0.43929 0.39619 0.45159 0.0
C530 C 0.41969 0.41328 0.4254 0.0
C531 C 0.3969 0.44028 0.43875 0.0
C532 C 0.87938 0.05508 0.92783 0.0
C533 C 0.87668 0.02218 0.9102 0.0
C534 C 0.90329 0.08067 0.9151 0.0
C535 C 0.92513 0.07436 0.88406 0.0
H536 H 0.86385 0.06058 0.95245 0.0
H537 H 0.90503 0.10532 0.93017 0.0
S538 S 0.9252 0.99298 0.82633 0.0
N539 N 0.89567 0.98517 0.85908 0.0
N540 N 0.94044 0.03299 0.83466 0.0
C541 C 0.92139 0.04188 0.86529 0.0
C542 C 0.89725 0.01586 0.87851 0.0
C543 C 0.09712 0.97707 0.37979 0.0
C544 C 0.11988 0.97002 0.4099 0.0
C545 C 0.07461 0.95101 0.36558 0.0
C546 C 0.07362 0.91701 0.38132 0.0
H547 H 0.09616 0.00321 0.36766 0.0
H548 H 0.05685 0.9581 0.34304 0.0
S549 S 0.13002 0.88469 0.45908 0.0
N550 N 0.14167 0.92635 0.45381 0.0
N551 N 0.09928 0.87714 0.42724 0.0
C552 C 0.09731 0.90927 0.41059 0.0
C553 C 0.1205 0.93581 0.42481 0.0
C554 C 0.13926 0.05667 0.89562 0.0
C555 C 0.13733 0.04611 0.93316 0.0
C556 C 0.11363 0.07888 0.87996 0.0
C557 C 0.08532 0.09166 0.90135 0.0
H558 H 0.16038 0.04713 0.878 0.0
H559 H 0.11576 0.08572 0.85073 0.0
S560 S 0.06785 0.07162 0.0008 0.0
N561 N 0.10442 0.04981 0.99116 0.0
N562 N 0.05693 0.09239 0.96203 0.0
C563 C 0.08363 0.0822 0.93918 0.0
C564 C 0.10947 0.05923 0.95502 0.0
C565 C 0.87207 0.92103 0.44421 0.0
C566 C 0.86382 0.95412 0.42911 0.0
C567 C 0.89637 0.8988 0.42652 0.0
C568 C 0.91306 0.90896 0.3931 0.0
H569 H 0.86064 0.91289 0.47049 0.0
H570 H 0.90263 0.87382 0.43957 0.0
S571 S 0.89828 0.99297 0.3419 0.0
N572 N 0.87255 0.99578 0.37882 0.0
N573 N 0.91795 0.95428 0.34504 0.0
C574 C 0.90374 0.94168 0.37716 0.0
C575 C 0.87923 0.96424 0.39537 0.0
C576 C 0.36774 0.34268 0.20038 0.0
C577 C 0.36803 0.31884 0.1705 0.0
C578 C 0.39161 0.33918 0.23005 0.0
C579 C 0.41626 0.31143 0.23114 0.0
H580 H 0.35045 0.36542 0.19972 0.0
H581 H 0.39167 0.35915 0.25161 0.0
S582 S 0.42487 0.23985 0.16154 0.0
N583 N 0.39278 0.26501 0.14508 0.0
N584 N 0.43752 0.2581 0.20118 0.0
C585 C 0.41513 0.28604 0.20268 0.0
C586 C 0.39109 0.28988 0.17221 0.0
C587 C 0.61436 0.63892 0.68871 0.0
C588 C 0.61611 0.66477 0.66076 0.0
C589 C 0.59056 0.64206 0.71829 0.0
C590 C 0.56801 0.67141 0.72126 0.0
H591 H 0.63038 0.61535 0.68681 0.0
H592 H 0.58935 0.62097 0.73862 0.0
S593 S 0.5646 0.74765 0.6565 0.0
N594 N 0.59499 0.72147 0.63867 0.0
N595 N 0.55044 0.72777 0.6946 0.0
C596 C 0.57076 0.69827 0.69435 0.0
C597 C 0.59471 0.69481 0.66396 0.0
C598 C 0.62887 0.34678 0.19833 0.0
C599 C 0.62385 0.32978 0.16386 0.0
C600 C 0.6059 0.34086 0.22815 0.0
C601 C 0.57754 0.31711 0.22494 0.0
H602 H 0.65006 0.36576 0.20191 0.0
H603 H 0.60978 0.35568 0.25363 0.0
S604 S 0.55322 0.26484 0.14164 0.0
N605 N 0.58839 0.28761 0.1287 0.0
N606 N 0.54612 0.2755 0.18556 0.0
C607 C 0.57319 0.29846 0.19152 0.0
C608 C 0.59619 0.30498 0.16078 0.0
C609 C 0.38319 0.69254 0.66811 0.0
C610 C 0.36103 0.66303 0.6639 0.0
C611 C 0.40546 0.69592 0.6992 0.0
C612 C 0.40682 0.66953 0.72677 0.0
H613 H 0.38427 0.71246 0.6465 0.0
H614 H 0.42318 0.71836 0.70047 0.0
S615 S 0.35161 0.58861 0.73004 0.0
N616 N 0.33981 0.60827 0.69088 0.0
N617 N 0.38179 0.61438 0.74929 0.0
C618 C 0.38336 0.64082 0.72377 0.0
C619 C 0.36041 0.63763 0.69234 0.0
C620 C 0.88188 0.80199 0.17407 0.0
C621 C 0.85853 0.8307 0.17129 0.0
C622 C 0.90537 0.79885 0.2042 0.0
C623 C 0.90667 0.82466 0.23228 0.0
H624 H 0.88301 0.7826 0.15198 0.0
H625 H 0.92401 0.77721 0.20426 0.0
S626 S 0.84824 0.90285 0.23992 0.0
N627 N 0.83604 0.88376 0.2006 0.0
N628 N 0.88003 0.87791 0.25733 0.0
C629 C 0.88187 0.85228 0.23099 0.0
C630 C 0.8578 0.85529 0.20047 0.0
C631 C 0.1054 0.19496 0.6738 0.0
C632 C 0.13114 0.16829 0.67186 0.0
C633 C 0.0835 0.19827 0.70503 0.0
C634 C 0.08627 0.17464 0.73513 0.0
H635 H 0.10121 0.21247 0.65034 0.0
H636 H 0.06285 0.21802 0.70449 0.0
S637 S 0.15207 0.10275 0.74539 0.0
N638 N 0.16016 0.1198 0.70395 0.0
N639 N 0.11915 0.12603 0.7627 0.0
C640 C 0.11345 0.14934 0.73452 0.0
C641 C 0.13587 0.14617 0.70287 0.0
C642 C 0.09694 0.87094 0.1766 0.0
C643 C 0.12272 0.84533 0.16911 0.0
C644 C 0.07085 0.86522 0.20329 0.0
C645 C 0.06924 0.83356 0.22369 0.0
H646 H 0.09677 0.89567 0.16148 0.0
H647 H 0.0517 0.88597 0.20784 0.0
S648 S 0.13086 0.75798 0.21467 0.0
N649 N 0.14535 0.78709 0.18403 0.0
N650 N 0.09591 0.77604 0.23443 0.0
C651 C 0.0946 0.80738 0.21615 0.0
C652 C 0.1214 0.81333 0.18881 0.0
C653 C 0.87072 0.17506 0.69797 0.0
C654 C 0.86883 0.14346 0.67769 0.0
C655 C 0.89835 0.18112 0.72349 0.0
C656 C 0.92508 0.15583 0.72941 0.0
H657 H 0.85043 0.19494 0.69449 0.0
H658 H 0.89839 0.20551 0.73912 0.0
S659 S 0.93409 0.07059 0.67942 0.0
N660 N 0.89736 0.088 0.66267 0.0
N661 N 0.94908 0.09908 0.71036 0.0
C662 C 0.92392 0.1246 0.70823 0.0
C663 C 0.89587 0.1185 0.68244 0.0
loop_
_geom_bond_atom_site_label_1
_geom_bond_atom_site_label_2
_geom_bond_distance
_geom_bond_site_symmetry_2
_ccdc_geom_bond_type
C0 C1 1.386 . S
C0 C2 1.397 . S
C0 H24 0.931 . S
C1 C0 1.386 . S
C1 C5 1.397 . S
C2 C0 1.397 . S
C2 C3 1.384 . S
C2 H25 0.930 . S
C3 C2 1.384 . S
C3 C4 1.377 . S
C3 C6 1.481 . S
C4 C3 1.377 . S
C4 C5 1.389 . S
C4 H26 0.929 . S
C5 C1 1.397 . S
C5 C4 1.389 . S
C5 H27 0.931 . S
C6 C3 1.481 . S
C6 C7 1.387 . S
C6 C11 1.390 1_556 S
C7 C6 1.387 . S
C7 C8 1.401 . S
C7 H28 0.930 . S
C8 C7 1.401 . S
C8 C9 1.376 1_556 S
C8 C17 1.511 . S
C9 C8 1.376 1_554 S
C9 C10 1.392 . S
C9 H30 0.931 . S
C10 C9 1.392 . S
C10 C11 1.361 . S
C10 C12 1.500 . S
C11 C6 1.390 1_554 S
C11 C10 1.361 . S
C11 H29 0.931 . S
C12 C10 1.500 . S
C12 C13 1.371 . S
C12 C14 1.365 . S
C13 C12 1.371 . S
C13 C23 1.386 . S
C13 H31 0.931 . S
C14 C12 1.365 . S
C14 C15 1.409 . S
C14 H32 0.929 . S
C15 C14 1.409 . S
C15 C16 1.380 . S
C15 H33 0.930 . S
C16 C15 1.380 . S
C16 C23 1.357 . S
C17 C8 1.511 . S
C17 C18 1.341 . S
C17 C19 1.371 . S
C18 C17 1.341 . S
C18 C22 1.394 . S
C18 H34 0.930 . S
C19 C17 1.371 . S
C19 C20 1.392 . S
C19 H35 0.931 1_556 S
C20 C19 1.392 . S
C20 C21 1.331 . S
C20 H38 0.932 . S
C21 C20 1.331 . S
C21 C22 1.336 . S
C22 C18 1.394 . S
C22 C21 1.336 . S
C22 H37 0.929 . S
C23 C13 1.386 . S
C23 C16 1.357 . S
C23 H36 0.928 . S
H24 C0 0.931 . S
H25 C2 0.930 . S
H26 C4 0.929 . S
H27 C5 0.931 . S
H28 C7 0.930 . S
H29 C11 0.931 . S
H30 C9 0.931 . S
H31 C13 0.931 . S
H32 C14 0.929 . S
H33 C15 0.930 . S
H34 C18 0.930 . S
H35 C19 0.931 1_554 S
H36 C23 0.928 . S
H37 C22 0.929 . S
H38 C20 0.932 . S
C39 C40 1.386 . S
C39 C41 1.397 . S
C39 H63 0.931 . S
C40 C39 1.386 . S
C40 C44 1.397 . S
C41 C39 1.397 . S
C41 C42 1.384 . S
C41 H64 0.930 . S
C42 C41 1.384 . S
C42 C43 1.377 . S
C42 C45 1.481 . S
C43 C42 1.377 . S
C43 C44 1.389 . S
C43 H65 0.929 . S
C44 C40 1.397 . S
C44 C43 1.389 . S
C44 H66 0.931 . S
C45 C42 1.481 . S
C45 C46 1.387 . S
C45 C50 1.390 . S
C46 C45 1.387 . S
C46 C47 1.401 . S
C46 H67 0.930 . S
C47 C46 1.401 . S
C47 C48 1.376 . S
C47 C56 1.511 . S
C48 C47 1.376 . S
C48 C49 1.392 . S
C48 H69 0.931 . S
C49 C48 1.392 . S
C49 C50 1.361 . S
C49 C51 1.500 . S
C50 C45 1.390 . S
C50 C49 1.361 . S
C50 H68 0.931 . S
C51 C49 1.500 . S
C51 C52 1.371 . S
C51 C53 1.365 . S
C52 C51 1.371 . S
C52 C62 1.386 . S
C52 H70 0.931 . S
C53 C51 1.365 . S
C53 C54 1.409 . S
C53 H71 0.929 . S
C54 C53 1.409 . S
C54 C55 1.380 . S
C54 H72 0.930 . S
C55 C54 1.380 . S
C55 C62 1.357 . S
C56 C47 1.511 . S
C56 C57 1.341 . S
C56 C58 1.371 . S
C57 C56 1.341 . S
C57 C61 1.394 . S
C57 H73 0.930 . S
C58 C56 1.371 . S
C58 C59 1.392 . S
C58 H74 0.931 . S
C59 C58 1.392 . S
C59 C60 1.331 . S
C59 H77 0.932 . S
C60 C59 1.331 . S
C60 C61 1.336 . S
C61 C57 1.394 . S
C61 C60 1.336 . S
C61 H76 0.929 . S
C62 C52 1.386 . S
C62 C55 1.357 . S
C62 H75 0.928 . S
H63 C39 0.931 . S
H64 C41 0.930 . S
H65 C43 0.929 . S
H66 C44 0.931 . S
H67 C46 0.930 . S
H68 C50 0.931 . S
H69 C48 0.931 . S
H70 C52 0.931 . S
H71 C53 0.929 . S
H72 C54 0.930 . S
H73 C57 0.930 . S
H74 C58 0.931 . S
H75 C62 0.928 . S
H76 C61 0.929 . S
H77 C59 0.932 . S
C78 C79 1.386 . S
C78 C80 1.397 . S
C78 H102 0.931 . S
C79 C78 1.386 . S
C79 C83 1.397 . S
C80 C78 1.397 . S
C80 C81 1.384 . S
C80 H103 0.930 . S
C81 C80 1.384 . S
C81 C82 1.377 . S
C81 C84 1.481 . S
C82 C81 1.377 . S
C82 C83 1.389 . S
C82 H104 0.929 1_556 S
C83 C79 1.397 . S
C83 C82 1.389 . S
C83 H105 0.931 . S
C84 C81 1.481 . S
C84 C85 1.387 . S
C84 C89 1.390 1_556 S
C85 C84 1.387 . S
C85 C86 1.401 . S
C85 H106 0.930 . S
C86 C85 1.401 . S
C86 C87 1.376 1_556 S
C86 C95 1.511 . S
C87 C86 1.376 1_554 S
C87 C88 1.392 . S
C87 H108 0.931 . S
C88 C87 1.392 . S
C88 C89 1.361 . S
C88 C90 1.500 . S
C89 C84 1.390 1_554 S
C89 C88 1.361 . S
C89 H107 0.931 . S
C90 C88 1.500 . S
C90 C91 1.371 . S
C90 C92 1.365 . S
C91 C90 1.371 . S
C91 C101 1.386 . S
C91 H109 0.931 . S
C92 C90 1.365 . S
C92 C93 1.409 . S
C92 H110 0.929 . S
C93 C92 1.409 . S
C93 C94 1.380 . S
C93 H111 0.930 . S
C94 C93 1.380 . S
C94 C101 1.357 . S
C95 C86 1.511 . S
C95 C96 1.341 . S
C95 C97 1.371 1_556 S
C96 C95 1.341 . S
C96 C100 1.394 . S
C96 H112 0.930 . S
C97 C95 1.371 1_554 S
C97 C98 1.392 1_554 S
C97 H113 0.931 . S
C98 C97 1.392 1_556 S
C98 C99 1.331 . S
C98 H116 0.932 1_556 S
C99 C98 1.331 . S
C99 C100 1.336 . S
C100 C96 1.394 . S
C100 C99 1.336 . S
C100 H115 0.929 . S
C101 C91 1.386 . S
C101 C94 1.357 . S
C101 H114 0.928 . S
H102 C78 0.931 . S
H103 C80 0.930 . S
H104 C82 0.929 1_554 S
H105 C83 0.931 . S
H106 C85 0.930 . S
H107 C89 0.931 . S
H108 C87 0.931 . S
H109 C91 0.931 . S
H110 C92 0.929 . S
H111 C93 0.930 . S
H112 C96 0.930 . S
H113 C97 0.931 . S
H114 C101 0.928 . S
H115 C100 0.929 . S
H116 C98 0.932 1_554 S
C117 C118 1.386 . S
C117 C119 1.397 . S
C117 H141 0.931 . S
C118 C117 1.386 . S
C118 C122 1.397 . S
C119 C117 1.397 . S
C119 C120 1.384 . S
C119 H142 0.930 . S
C120 C119 1.384 . S
C120 C121 1.377 . S
C120 C123 1.481 . S
C121 C120 1.377 . S
C121 C122 1.389 . S
C121 H143 0.929 . S
C122 C118 1.397 . S
C122 C121 1.389 . S
C122 H144 0.931 . S
C123 C120 1.481 . S
C123 C124 1.387 . S
C123 C128 1.390 . S
C124 C123 1.387 . S
C124 C125 1.401 . S
C124 H145 0.930 . S
C125 C124 1.401 . S
C125 C126 1.376 . S
C125 C134 1.511 . S
C126 C125 1.376 . S
C126 C127 1.392 . S
C126 H147 0.931 . S
C127 C126 1.392 . S
C127 C128 1.361 . S
C127 C129 1.500 . S
C128 C123 1.390 . S
C128 C127 1.361 . S
C128 H146 0.931 . S
C129 C127 1.500 . S
C129 C130 1.371 . S
C129 C131 1.365 . S
C130 C129 1.371 . S
C130 C140 1.386 . S
C130 H148 0.931 . S
C131 C129 1.365 . S
C131 C132 1.409 . S
C131 H149 0.929 . S
C132 C131 1.409 . S
C132 C133 1.380 . S
C132 H150 0.930 . S
C133 C132 1.380 . S
C133 C140 1.357 . S
C134 C125 1.511 . S
C134 C135 1.341 . S
C134 C136 1.371 . S
C135 C134 1.341 . S
C135 C139 1.394 . S
C135 H151 0.930 . S
C136 C134 1.371 . S
C136 C137 1.392 . S
C136 H152 0.931 . S
C137 C136 1.392 . S
C137 C138 1.331 . S
C137 H155 0.932 . S
C138 C137 1.331 . S
C138 C139 1.336 . S
C139 C135 1.394 . S
C139 C138 1.336 . S
C139 H154 0.929 . S
C140 C130 1.386 . S
C140 C133 1.357 . S
C140 H153 0.928 . S
H141 C117 0.931 . S
H142 C119 0.930 . S
H143 C121 0.929 . S
H144 C122 0.931 . S
H145 C124 0.930 . S
H146 C128 0.931 . S
H147 C126 0.931 . S
H148 C130 0.931 . S
H149 C131 0.929 . S
H150 C132 0.930 . S
H151 C135 0.930 . S
H152 C136 0.931 . S
H153 C140 0.928 . S
H154 C139 0.929 . S
H155 C137 0.932 . S
C156 C157 1.386 . S
C156 C158 1.397 1_545 S
C156 H180 0.931 . S
C157 C156 1.386 . S
C157 C161 1.397 1_545 S
C158 C156 1.397 1_565 S
C158 C159 1.384 . S
C158 H181 0.930 . S
C159 C158 1.384 . S
C159 C160 1.377 . S
C159 C162 1.481 . S
C160 C159 1.377 . S
C160 C161 1.389 . S
C160 H182 0.929 . S
C161 C157 1.397 1_565 S
C161 C160 1.389 . S
C161 H183 0.931 . S
C162 C159 1.481 . S
C162 C163 1.387 . S
C162 C167 1.390 1_556 S
C163 C162 1.387 . S
C163 C164 1.401 . S
C163 H184 0.930 . S
C164 C163 1.401 . S
C164 C165 1.376 1_556 S
C164 C173 1.511 . S
C165 C164 1.376 1_554 S
C165 C166 1.392 . S
C165 H186 0.931 . S
C166 C165 1.392 . S
C166 C167 1.361 . S
C166 C168 1.500 . S
C167 C162 1.390 1_554 S
C167 C166 1.361 . S
C167 H185 0.931 . S
C168 C166 1.500 . S
C168 C169 1.371 . S
C168 C170 1.365 . S
C169 C168 1.371 . S
C169 C179 1.386 . S
C169 H187 0.931 . S
C170 C168 1.365 . S
C170 C171 1.409 . S
C170 H188 0.929 . S
C171 C170 1.409 . S
C171 C172 1.380 . S
C171 H189 0.930 . S
C172 C171 1.380 . S
C172 C179 1.357 . S
C173 C164 1.511 . S
C173 C174 1.341 . S
C173 C175 1.371 . S
C174 C173 1.341 . S
C174 C178 1.394 . S
C174 H190 0.930 . S
C175 C173 1.371 . S
C175 C176 1.392 . S
C175 H191 0.931 1_556 S
C176 C175 1.392 . S
C176 C177 1.331 . S
C176 H194 0.932 . S
C177 C176 1.331 . S
C177 C178 1.336 . S
C178 C174 1.394 . S
C178 C177 1.336 . S
C178 H193 0.929 . S
C179 C169 1.386 . S
C179 C172 1.357 . S
C179 H192 0.928 . S
H180 C156 0.931 . S
H181 C158 0.930 . S
H182 C160 0.929 . S
H183 C161 0.931 . S
H184 C163 0.930 . S
H185 C167 0.931 . S
H186 C165 0.931 . S
H187 C169 0.931 . S
H188 C170 0.929 . S
H189 C171 0.930 . S
H190 C174 0.930 . S
H191 C175 0.931 1_554 S
H192 C179 0.928 . S
H193 C178 0.929 . S
H194 C176 0.932 . S
C195 C196 1.386 . S
C195 C197 1.397 1_565 S
C195 H219 0.931 . S
C196 C195 1.386 . S
C196 C200 1.397 1_565 S
C197 C195 1.397 1_545 S
C197 C198 1.384 . S
C197 H220 0.930 . S
C198 C197 1.384 . S
C198 C199 1.377 . S
C198 C201 1.481 . S
C199 C198 1.377 . S
C199 C200 1.389 . S
C199 H221 0.929 . S
C200 C196 1.397 1_545 S
C200 C199 1.389 . S
C200 H222 0.931 . S
C201 C198 1.481 . S
C201 C202 1.387 . S
C201 C206 1.390 . S
C202 C201 1.387 . S
C202 C203 1.401 . S
C202 H223 0.930 . S
C203 C202 1.401 . S
C203 C204 1.376 . S
C203 C212 1.511 . S
C204 C203 1.376 . S
C204 C205 1.392 . S
C204 H225 0.931 . S
C205 C204 1.392 . S
C205 C206 1.361 . S
C205 C207 1.500 . S
C206 C201 1.390 . S
C206 C205 1.361 . S
C206 H224 0.931 . S
C207 C205 1.500 . S
C207 C208 1.371 . S
C207 C209 1.365 . S
C208 C207 1.371 . S
C208 C218 1.386 . S
C208 H226 0.931 . S
C209 C207 1.365 . S
C209 C210 1.409 . S
C209 H227 0.929 . S
C210 C209 1.409 . S
C210 C211 1.380 . S
C210 H228 0.930 . S
C211 C210 1.380 . S
C211 C218 1.357 . S
C212 C203 1.511 . S
C212 C213 1.341 . S
C212 C214 1.371 . S
C213 C212 1.341 . S
C213 C217 1.394 . S
C213 H229 0.930 . S
C214 C212 1.371 . S
C214 C215 1.392 . S
C214 H230 0.931 . S
C215 C214 1.392 . S
C215 C216 1.331 . S
C215 H233 0.932 . S
C216 C215 1.331 . S
C216 C217 1.336 . S
C217 C213 1.394 . S
C217 C216 1.336 . S
C217 H232 0.929 . S
C218 C208 1.386 . S
C218 C211 1.357 . S
C218 H231 0.928 . S
H219 C195 0.931 . S
H220 C197 0.930 . S
H221 C199 0.929 . S
H222 C200 0.931 . S
H223 C202 0.930 . S
H224 C206 0.931 . S
H225 C204 0.931 . S
H226 C208 0.931 . S
H227 C209 0.929 . S
H228 C210 0.930 . S
H229 C213 0.930 . S
H230 C214 0.931 . S
H231 C218 0.928 . S
H232 C217 0.929 . S
H233 C215 0.932 . S
C234 C235 1.386 1_565 S
C234 C236 1.397 . S
C234 H258 0.931 . S
C235 C234 1.386 1_545 S
C235 C239 1.397 . S
C236 C234 1.397 . S
C236 C237 1.384 . S
C236 H259 0.930 . S
C237 C236 1.384 . S
C237 C238 1.377 . S
C237 C240 1.481 . S
C238 C237 1.377 . S
C238 C239 1.389 1_565 S
C238 H260 0.929 1_556 S
C239 C235 1.397 . S
C239 C238 1.389 1_545 S
C239 H261 0.931 . S
C240 C237 1.481 . S
C240 C241 1.387 . S
C240 C245 1.390 1_556 S
C241 C240 1.387 . S
C241 C242 1.401 . S
C241 H262 0.930 . S
C242 C241 1.401 . S
C242 C243 1.376 1_556 S
C242 C251 1.511 . S
C243 C242 1.376 1_554 S
C243 C244 1.392 . S
C243 H264 0.931 . S
C244 C243 1.392 . S
C244 C245 1.361 . S
C244 C246 1.500 . S
C245 C240 1.390 1_554 S
C245 C244 1.361 . S
C245 H263 0.931 . S
C246 C244 1.500 . S
C246 C247 1.371 . S
C246 C248 1.365 . S
C247 C246 1.371 . S
C247 C257 1.386 . S
C247 H265 0.931 . S
C248 C246 1.365 . S
C248 C249 1.409 . S
C248 H266 0.929 . S
C249 C248 1.409 . S
C249 C250 1.380 . S
C249 H267 0.930 . S
C250 C249 1.380 . S
C250 C257 1.357 . S
C251 C242 1.511 . S
C251 C252 1.341 . S
C251 C253 1.371 1_556 S
C252 C251 1.341 . S
C252 C256 1.394 . S
C252 H268 0.930 . S
C253 C251 1.371 1_554 S
C253 C254 1.392 1_554 S
C253 H269 0.931 . S
C254 C253 1.392 1_556 S
C254 C255 1.331 . S
C254 H272 0.932 1_556 S
C255 C254 1.331 . S
C255 C256 1.336 . S
C256 C252 1.394 . S
C256 C255 1.336 . S
C256 H271 0.929 . S
C257 C247 1.386 . S
C257 C250 1.357 . S
C257 H270 0.928 . S
H258 C234 0.931 . S
H259 C236 0.930 . S
H260 C238 0.929 1_554 S
H261 C239 0.931 . S
H262 C241 0.930 . S
H263 C245 0.931 . S
H264 C243 0.931 . S
H265 C247 0.931 . S
H266 C248 0.929 . S
H267 C249 0.930 . S
H268 C252 0.930 . S
H269 C253 0.931 . S
H270 C257 0.928 . S
H271 C256 0.929 . S
H272 C254 0.932 1_554 S
C273 C274 1.386 . S
C273 C275 1.397 . S
C273 H297 0.931 . S
C274 C273 1.386 . S
C274 C278 1.397 . S
C275 C273 1.397 . S
C275 C276 1.384 . S
C275 H298 0.930 . S
C276 C275 1.384 . S
C276 C277 1.377 . S
C276 C279 1.481 . S
C277 C276 1.377 . S
C277 C278 1.389 . S
C277 H299 0.929 . S
C278 C274 1.397 . S
C278 C277 1.389 . S
C278 H300 0.931 . S
C279 C276 1.481 . S
C279 C280 1.387 . S
C279 C284 1.390 . S
C280 C279 1.387 . S
C280 C281 1.401 . S
C280 H301 0.930 . S
C281 C280 1.401 . S
C281 C282 1.376 . S
C281 C290 1.511 . S
C282 C281 1.376 . S
C282 C283 1.392 . S
C282 H303 0.931 . S
C283 C282 1.392 . S
C283 C284 1.361 . S
C283 C285 1.500 . S
C284 C279 1.390 . S
C284 C283 1.361 . S
C284 H302 0.931 . S
C285 C283 1.500 . S
C285 C286 1.371 . S
C285 C287 1.365 . S
C286 C285 1.371 . S
C286 C296 1.386 1_545 S
C286 H304 0.931 . S
C287 C285 1.365 . S
C287 C288 1.409 1_545 S
C287 H305 0.929 . S
C288 C287 1.409 1_565 S
C288 C289 1.380 . S
C288 H306 0.930 . S
C289 C288 1.380 . S
C289 C296 1.357 . S
C290 C281 1.511 . S
C290 C291 1.341 . S
C290 C292 1.371 . S
C291 C290 1.341 . S
C291 C295 1.394 . S
C291 H307 0.930 . S
C292 C290 1.371 . S
C292 C293 1.392 . S
C292 H308 0.931 . S
C293 C292 1.392 . S
C293 C294 1.331 . S
C293 H311 0.932 . S
C294 C293 1.331 . S
C294 C295 1.336 . S
C295 C291 1.394 . S
C295 C294 1.336 . S
C295 H310 0.929 . S
C296 C286 1.386 1_565 S
C296 C289 1.357 . S
C296 H309 0.928 . S
H297 C273 0.931 . S
H298 C275 0.930 . S
H299 C277 0.929 . S
H300 C278 0.931 . S
H301 C280 0.930 . S
H302 C284 0.931 . S
H303 C282 0.931 . S
H304 C286 0.931 . S
H305 C287 0.929 . S
H306 C288 0.930 . S
H307 C291 0.930 . S
H308 C292 0.931 . S
H309 C296 0.928 . S
H310 C295 0.929 . S
H311 C293 0.932 . S
Sc312 O315 2.025 . S
Sc312 O322 2.105 1_455 S
Sc312 O325 2.105 . S
Sc312 O328 2.105 . S
Sc312 O331 2.105 1_455 S
Sc313 O315 2.025 . S
Sc313 O323 2.105 1_455 S
Sc313 O327 2.105 . S
Sc313 O329 2.105 . S
Sc313 O333 2.105 1_455 S
Sc314 O315 2.025 . S
Sc314 O324 2.105 1_455 S
Sc314 O326 2.105 . S
Sc314 O330 2.105 . S
Sc314 O332 2.105 1_455 S
O315 Sc312 2.025 . S
O315 Sc313 2.025 . S
O315 Sc314 2.025 . S
C316 O322 1.268 . S
C316 O332 1.268 . S
C317 O323 1.268 . S
C317 O331 1.268 . S
C318 O324 1.268 . S
C318 O333 1.268 . S
C319 O325 1.268 . S
C319 O329 1.268 . S
C320 O326 1.268 . S
C320 O328 1.268 . S
C321 O327 1.268 . S
C321 O330 1.268 . S
O322 Sc312 2.105 1_655 S
O322 C316 1.268 . S
O323 Sc313 2.105 1_655 S
O323 C317 1.268 . S
O324 Sc314 2.105 1_655 S
O324 C318 1.268 . S
O325 Sc312 2.105 . S
O325 C319 1.268 . S
O326 Sc314 2.105 . S
O326 C320 1.268 . S
O327 Sc313 2.105 . S
O327 C321 1.268 . S
O328 Sc312 2.105 . S
O328 C320 1.268 . S
O329 Sc313 2.105 . S
O329 C319 1.268 . S
O330 Sc314 2.105 . S
O330 C321 1.268 . S
O331 Sc312 2.105 1_655 S
O331 C317 1.268 . S
O332 Sc314 2.105 1_655 S
O332 C316 1.268 . S
O333 Sc313 2.105 1_655 S
O333 C318 1.268 . S
Sc334 O337 2.025 . S
Sc334 O344 2.122 . S
Sc334 O347 2.088 1_455 S
Sc334 O350 2.088 1_455 S
Sc334 O353 2.122 . S
Sc335 O337 2.025 . S
Sc335 O345 2.121 . S
Sc335 O349 2.089 1_455 S
Sc335 O351 2.089 1_455 S
Sc335 O355 2.121 . S
Sc336 O337 2.025 . S
Sc336 O346 2.122 . S
Sc336 O348 2.087 1_455 S
Sc336 O352 2.087 1_455 S
Sc336 O354 2.122 . S
O337 Sc334 2.025 . S
O337 Sc335 2.025 . S
O337 Sc336 2.025 . S
C338 O344 1.268 . S
C338 O354 1.268 . S
C339 O345 1.268 . S
C339 O353 1.268 . S
C340 O346 1.268 . S
C340 O355 1.268 . S
C341 O347 1.268 . S
C341 O351 1.268 . S
C342 O348 1.268 . S
C342 O350 1.268 . S
C343 O349 1.268 . S
C343 O352 1.268 . S
O344 Sc334 2.122 . S
O344 C338 1.268 . S
O345 Sc335 2.121 . S
O345 C339 1.268 . S
O346 Sc336 2.122 . S
O346 C340 1.268 . S
O347 Sc334 2.088 1_655 S
O347 C341 1.268 . S
O348 Sc336 2.087 1_655 S
O348 C342 1.268 . S
O349 Sc335 2.089 1_655 S
O349 C343 1.268 . S
O350 Sc334 2.088 1_655 S
O350 C342 1.268 . S
O351 Sc335 2.089 1_655 S
O351 C341 1.268 . S
O352 Sc336 2.087 1_655 S
O352 C343 1.268 . S
O353 Sc334 2.122 . S
O353 C339 1.268 . S
O354 Sc336 2.122 . S
O354 C338 1.268 . S
O355 Sc335 2.121 . S
O355 C340 1.268 . S
Sc356 O359 2.025 . S
Sc356 O366 2.105 . S
Sc356 O369 2.105 . S
Sc356 O372 2.105 . S
Sc356 O375 2.105 . S
Sc357 O359 2.025 . S
Sc357 O367 2.105 . S
Sc357 O371 2.105 . S
Sc357 O373 2.105 . S
Sc357 O377 2.105 . S
Sc358 O359 2.025 . S
Sc358 O368 2.105 . S
Sc358 O370 2.105 . S
Sc358 O374 2.105 . S
Sc358 O376 2.105 . S
O359 Sc356 2.025 . S
O359 Sc357 2.025 . S
O359 Sc358 2.025 . S
C360 O366 1.268 . S
C360 O376 1.268 . S
C361 O367 1.268 . S
C361 O375 1.268 . S
C362 O368 1.268 . S
C362 O377 1.268 . S
C363 O369 1.268 . S
C363 O373 1.268 . S
C364 O370 1.268 . S
C364 O372 1.268 . S
C365 O371 1.268 . S
C365 O374 1.268 . S
O366 Sc356 2.105 . S
O366 C360 1.268 . S
O367 Sc357 2.105 . S
O367 C361 1.268 . S
O368 Sc358 2.105 . S
O368 C362 1.268 . S
O369 Sc356 2.105 . S
O369 C363 1.268 . S
O370 Sc358 2.105 . S
O370 C364 1.268 . S
O371 Sc357 2.105 . S
O371 C365 1.268 . S
O372 Sc356 2.105 . S
O372 C364 1.268 . S
O373 Sc357 2.105 . S
O373 C363 1.268 . S
O374 Sc358 2.105 . S
O374 C365 1.268 . S
O375 Sc356 2.105 . S
O375 C361 1.268 . S
O376 Sc358 2.105 . S
O376 C360 1.268 . S
O377 Sc357 2.105 . S
O377 C362 1.268 . S
Sc378 O381 2.025 . S
Sc378 O388 2.105 . S
Sc378 O391 2.105 . S
Sc378 O394 2.105 . S
Sc378 O397 2.105 . S
Sc379 O381 2.025 . S
Sc379 O389 2.105 . S
Sc379 O393 2.105 . S
Sc379 O395 2.105 . S
Sc379 O399 2.105 . S
Sc380 O381 2.025 . S
Sc380 O390 2.105 . S
Sc380 O392 2.105 . S
Sc380 O396 2.105 . S
Sc380 O398 2.105 . S
O381 Sc378 2.025 . S
O381 Sc379 2.025 . S
O381 Sc380 2.025 . S
C382 O388 1.268 . S
C382 O398 1.268 . S
C383 O389 1.268 . S
C383 O397 1.268 . S
C384 O390 1.268 . S
C384 O399 1.268 . S
C385 O391 1.268 . S
C385 O395 1.268 . S
C386 O392 1.268 . S
C386 O394 1.268 . S
C387 O393 1.268 . S
C387 O396 1.268 . S
O388 Sc378 2.105 . S
O388 C382 1.268 . S
O389 Sc379 2.105 . S
O389 C383 1.268 . S
O390 Sc380 2.105 . S
O390 C384 1.268 . S
O391 Sc378 2.105 . S
O391 C385 1.268 . S
O392 Sc380 2.105 . S
O392 C386 1.268 . S
O393 Sc379 2.105 . S
O393 C387 1.268 . S
O394 Sc378 2.105 . S
O394 C386 1.268 . S
O395 Sc379 2.105 . S
O395 C385 1.268 . S
O396 Sc380 2.105 . S
O396 C387 1.268 . S
O397 Sc378 2.105 . S
O397 C383 1.268 . S
O398 Sc380 2.105 . S
O398 C382 1.268 . S
O399 Sc379 2.105 . S
O399 C384 1.268 . S
C400 C401 1.369 . S
C400 C402 1.419 . S
C400 H404 0.930 . S
C401 C400 1.369 . S
C401 C410 1.429 . S
C402 C400 1.419 . S
C402 C403 1.363 . S
C402 H405 0.929 . S
C403 C402 1.363 . S
C403 C409 1.428 . S
H404 C400 0.930 . S
H405 C402 0.929 . S
S406 N407 1.613 . S
S406 N408 1.610 . S
N407 S406 1.613 . S
N407 C410 1.350 . S
N408 S406 1.610 . S
N408 C409 1.351 . S
C409 C403 1.428 . S
C409 N408 1.351 . S
C409 C410 1.434 . S
C410 C401 1.429 . S
C410 N407 1.350 . S
C410 C409 1.434 . S
C411 C412 1.369 . S
C411 C413 1.419 . S
C411 H415 0.930 . S
C412 C411 1.369 . S
C412 C421 1.429 . S
C413 C411 1.419 . S
C413 C414 1.363 . S
C413 H416 0.929 . S
C414 C413 1.363 . S
C414 C420 1.428 . S
H415 C411 0.930 . S
H416 C413 0.929 . S
S417 N418 1.613 . S
S417 N419 1.610 . S
N418 S417 1.613 . S
N418 C421 1.350 . S
N419 S417 1.610 . S
N419 C420 1.351 . S
C420 C414 1.428 . S
C420 N419 1.351 . S
C420 C421 1.434 . S
C421 C412 1.429 . S
C421 N418 1.350 . S
C421 C420 1.434 . S
C422 C423 1.369 . S
C422 C424 1.419 . S
C422 H426 0.930 . S
C423 C422 1.369 . S
C423 C432 1.429 . S
C424 C422 1.419 . S
C424 C425 1.363 . S
C424 H427 0.929 . S
C425 C424 1.363 . S
C425 C431 1.428 . S
H426 C422 0.930 . S
H427 C424 0.929 . S
S428 N429 1.613 . S
S428 N430 1.610 . S
N429 S428 1.613 . S
N429 C432 1.350 . S
N430 S428 1.610 . S
N430 C431 1.351 . S
C431 C425 1.428 . S
C431 N430 1.351 . S
C431 C432 1.434 . S
C432 C423 1.429 . S
C432 N429 1.350 . S
C432 C431 1.434 . S
C433 C434 1.369 . S
C433 C435 1.419 . S
C433 H437 0.930 . S
C434 C433 1.369 . S
C434 C443 1.429 . S
C435 C433 1.419 . S
C435 C436 1.363 . S
C435 H438 0.929 . S
C436 C435 1.363 . S
C436 C442 1.428 . S
H437 C433 0.930 . S
H438 C435 0.929 . S
S439 N440 1.613 . S
S439 N441 1.610 . S
N440 S439 1.613 . S
N440 C443 1.350 . S
N441 S439 1.610 . S
N441 C442 1.351 . S
C442 C436 1.428 . S
C442 N441 1.351 . S
C442 C443 1.434 . S
C443 C434 1.429 . S
C443 N440 1.350 . S
C443 C442 1.434 . S
C444 C445 1.369 . S
C444 C446 1.419 . S
C444 H448 0.930 . S
C445 C444 1.369 . S
C445 C454 1.429 . S
C446 C444 1.419 . S
C446 C447 1.363 . S
C446 H449 0.929 . S
C447 C446 1.363 . S
C447 C453 1.428 . S
H448 C444 0.930 . S
H449 C446 0.929 . S
S450 N451 1.613 . S
S450 N452 1.610 . S
N451 S450 1.613 . S
N451 C454 1.350 . S
N452 S450 1.610 . S
N452 C453 1.351 . S
C453 C447 1.428 . S
C453 N452 1.351 . S
C453 C454 1.434 . S
C454 C445 1.429 . S
C454 N451 1.350 . S
C454 C453 1.434 . S
C455 C456 1.369 . S
C455 C457 1.419 . S
C455 H459 0.930 . S
C456 C455 1.369 . S
C456 C465 1.429 . S
C457 C455 1.419 . S
C457 C458 1.363 . S
C457 H460 0.929 . S
C458 C457 1.363 . S
C458 C464 1.428 . S
H459 C455 0.930 . S
H460 C457 0.929 . S
S461 N462 1.613 . S
S461 N463 1.610 . S
N462 S461 1.613 . S
N462 C465 1.350 . S
N463 S461 1.610 . S
N463 C464 1.351 . S
C464 C458 1.428 . S
C464 N463 1.351 . S
C464 C465 1.434 . S
C465 C456 1.429 . S
C465 N462 1.350 . S
C465 C464 1.434 . S
C466 C467 1.369 . S
C466 C468 1.419 . S
C466 H470 0.930 . S
C467 C466 1.369 . S
C467 C476 1.429 . S
C468 C466 1.419 . S
C468 C469 1.363 . S
C468 H471 0.929 . S
C469 C468 1.363 . S
C469 C475 1.428 . S
H470 C466 0.930 . S
H471 C468 0.929 . S
S472 N473 1.613 . S
S472 N474 1.610 . S
N473 S472 1.613 . S
N473 C476 1.350 . S
N474 S472 1.610 . S
N474 C475 1.351 . S
C475 C469 1.428 . S
C475 N474 1.351 . S
C475 C476 1.434 . S
C476 C467 1.429 . S
C476 N473 1.350 . S
C476 C475 1.434 . S
C477 C478 1.369 . S
C477 C479 1.419 . S
C477 H481 0.930 . S
C478 C477 1.369 . S
C478 C487 1.429 . S
C479 C477 1.419 . S
C479 C480 1.363 . S
C479 H482 0.929 . S
C480 C479 1.363 . S
C480 C486 1.428 . S
H481 C477 0.930 . S
H482 C479 0.929 . S
S483 N484 1.613 . S
S483 N485 1.610 . S
N484 S483 1.613 . S
N484 C487 1.350 . S
N485 S483 1.610 . S
N485 C486 1.351 . S
C486 C480 1.428 . S
C486 N485 1.351 . S
C486 C487 1.434 . S
C487 C478 1.429 . S
C487 N484 1.350 . S
C487 C486 1.434 . S
C488 C489 1.369 . S
C488 C490 1.419 . S
C488 H492 0.930 . S
C489 C488 1.369 . S
C489 C498 1.429 . S
C490 C488 1.419 . S
C490 C491 1.363 . S
C490 H493 0.929 . S
C491 C490 1.363 . S
C491 C497 1.428 . S
H492 C488 0.930 . S
H493 C490 0.929 . S
S494 N495 1.613 . S
S494 N496 1.610 . S
N495 S494 1.613 . S
N495 C498 1.350 . S
N496 S494 1.610 . S
N496 C497 1.351 . S
C497 C491 1.428 . S
C497 N496 1.351 . S
C497 C498 1.434 . S
C498 C489 1.429 . S
C498 N495 1.350 . S
C498 C497 1.434 . S
C499 C500 1.369 . S
C499 C501 1.419 . S
C499 H503 0.930 . S
C500 C499 1.369 . S
C500 C509 1.429 . S
C501 C499 1.419 . S
C501 C502 1.363 . S
C501 H504 0.929 . S
C502 C501 1.363 . S
C502 C508 1.428 . S
H503 C499 0.930 . S
H504 C501 0.929 . S
S505 N506 1.613 . S
S505 N507 1.610 . S
N506 S505 1.613 . S
N506 C509 1.350 . S
N507 S505 1.610 . S
N507 C508 1.351 . S
C508 C502 1.428 . S
C508 N507 1.351 . S
C508 C509 1.434 . S
C509 C500 1.429 . S
C509 N506 1.350 . S
C509 C508 1.434 . S
C510 C511 1.369 . S
C510 C512 1.419 . S
C510 H514 0.930 . S
C511 C510 1.369 . S
C511 C520 1.429 . S
C512 C510 1.419 . S
C512 C513 1.363 . S
C512 H515 0.929 . S
C513 C512 1.363 . S
C513 C519 1.428 . S
H514 C510 0.930 . S
H515 C512 0.929 . S
S516 N517 1.613 . S
S516 N518 1.610 . S
N517 S516 1.613 . S
N517 C520 1.350 . S
N518 S516 1.610 . S
N518 C519 1.351 . S
C519 C513 1.428 . S
C519 N518 1.351 . S
C519 C520 1.434 . S
C520 C511 1.429 . S
C520 N517 1.350 . S
C520 C519 1.434 . S
C521 C522 1.369 . S
C521 C523 1.419 . S
C521 H525 0.930 . S
C522 C521 1.369 . S
C522 C531 1.429 . S
C523 C521 1.419 . S
C523 C524 1.363 . S
C523 H526 0.929 . S
C524 C523 1.363 . S
C524 C530 1.428 . S
H525 C521 0.930 . S
H526 C523 0.929 . S
S527 N528 1.613 . S
S527 N529 1.610 . S
N528 S527 1.613 . S
N528 C531 1.350 . S
N529 S527 1.610 . S
N529 C530 1.351 . S
C530 C524 1.428 . S
C530 N529 1.351 . S
C530 C531 1.434 . S
C531 C522 1.429 . S
C531 N528 1.350 . S
C531 C530 1.434 . S
C532 C533 1.369 . S
C532 C534 1.419 . S
C532 H536 0.930 . S
C533 C532 1.369 . S
C533 C542 1.429 . S
C534 C532 1.419 . S
C534 C535 1.363 . S
C534 H537 0.929 . S
C535 C534 1.363 . S
C535 C541 1.428 . S
H536 C532 0.930 . S
H537 C534 0.929 . S
S538 N539 1.613 . S
S538 N540 1.610 1_565 S
N539 S538 1.613 . S
N539 C542 1.350 1_565 S
N540 S538 1.610 1_545 S
N540 C541 1.351 . S
C541 C535 1.428 . S
C541 N540 1.351 . S
C541 C542 1.434 . S
C542 C533 1.429 . S
C542 N539 1.350 1_545 S
C542 C541 1.434 . S
C543 C544 1.369 . S
C543 C545 1.419 . S
C543 H547 0.930 . S
C544 C543 1.369 . S
C544 C553 1.429 . S
C545 C543 1.419 . S
C545 C546 1.363 . S
C545 H548 0.929 . S
C546 C545 1.363 . S
C546 C552 1.428 . S
H547 C543 0.930 . S
H548 C545 0.929 . S
S549 N550 1.613 . S
S549 N551 1.610 . S
N550 S549 1.613 . S
N550 C553 1.350 . S
N551 S549 1.610 . S
N551 C552 1.351 . S
C552 C546 1.428 . S
C552 N551 1.351 . S
C552 C553 1.434 . S
C553 C544 1.429 . S
C553 N550 1.350 . S
C553 C552 1.434 . S
C554 C555 1.369 . S
C554 C556 1.419 . S
C554 H558 0.930 . S
C555 C554 1.369 . S
C555 C564 1.429 . S
C556 C554 1.419 . S
C556 C557 1.363 . S
C556 H559 0.929 . S
C557 C556 1.363 . S
C557 C563 1.428 . S
H558 C554 0.930 . S
H559 C556 0.929 . S
S560 N561 1.613 . S
S560 N562 1.610 . S
N561 S560 1.613 . S
N561 C564 1.350 . S
N562 S560 1.610 . S
N562 C563 1.351 . S
C563 C557 1.428 . S
C563 N562 1.351 . S
C563 C564 1.434 . S
C564 C555 1.429 . S
C564 N561 1.350 . S
C564 C563 1.434 . S
C565 C566 1.369 . S
C565 C567 1.419 . S
C565 H569 0.930 . S
C566 C565 1.369 . S
C566 C575 1.429 . S
C567 C565 1.419 . S
C567 C568 1.363 . S
C567 H570 0.929 . S
C568 C567 1.363 . S
C568 C574 1.428 . S
H569 C565 0.930 . S
H570 C567 0.929 . S
S571 N572 1.613 . S
S571 N573 1.610 . S
N572 S571 1.613 . S
N572 C575 1.350 . S
N573 S571 1.610 . S
N573 C574 1.351 . S
C574 C568 1.428 . S
C574 N573 1.351 . S
C574 C575 1.434 . S
C575 C566 1.429 . S
C575 N572 1.350 . S
C575 C574 1.434 . S
C576 C577 1.369 . S
C576 C578 1.419 . S
C576 H580 0.930 . S
C577 C576 1.369 . S
C577 C586 1.429 . S
C578 C576 1.419 . S
C578 C579 1.363 . S
C578 H581 0.929 . S
C579 C578 1.363 . S
C579 C585 1.428 . S
H580 C576 0.930 . S
H581 C578 0.929 . S
S582 N583 1.613 . S
S582 N584 1.610 . S
N583 S582 1.613 . S
N583 C586 1.350 . S
N584 S582 1.610 . S
N584 C585 1.351 . S
C585 C579 1.428 . S
C585 N584 1.351 . S
C585 C586 1.434 . S
C586 C577 1.429 . S
C586 N583 1.350 . S
C586 C585 1.434 . S
C587 C588 1.369 . S
C587 C589 1.419 . S
C587 H591 0.930 . S
C588 C587 1.369 . S
C588 C597 1.429 . S
C589 C587 1.419 . S
C589 C590 1.363 . S
C589 H592 0.929 . S
C590 C589 1.363 . S
C590 C596 1.428 . S
H591 C587 0.930 . S
H592 C589 0.929 . S
S593 N594 1.613 . S
S593 N595 1.610 . S
N594 S593 1.613 . S
N594 C597 1.350 . S
N595 S593 1.610 . S
N595 C596 1.351 . S
C596 C590 1.428 . S
C596 N595 1.351 . S
C596 C597 1.434 . S
C597 C588 1.429 . S
C597 N594 1.350 . S
C597 C596 1.434 . S
C598 C599 1.369 . S
C598 C600 1.419 . S
C598 H602 0.930 . S
C599 C598 1.369 . S
C599 C608 1.429 . S
C600 C598 1.419 . S
C600 C601 1.363 . S
C600 H603 0.929 . S
C601 C600 1.363 . S
C601 C607 1.428 . S
H602 C598 0.930 . S
H603 C600 0.929 . S
S604 N605 1.613 . S
S604 N606 1.610 . S
N605 S604 1.613 . S
N605 C608 1.350 . S
N606 S604 1.610 . S
N606 C607 1.351 . S
C607 C601 1.428 . S
C607 N606 1.351 . S
C607 C608 1.434 . S
C608 C599 1.429 . S
C608 N605 1.350 . S
C608 C607 1.434 . S
C609 C610 1.369 . S
C609 C611 1.419 . S
C609 H613 0.930 . S
C610 C609 1.369 . S
C610 C619 1.429 . S
C611 C609 1.419 . S
C611 C612 1.363 . S
C611 H614 0.929 . S
C612 C611 1.363 . S
C612 C618 1.428 . S
H613 C609 0.930 . S
H614 C611 0.929 . S
S615 N616 1.613 . S
S615 N617 1.610 . S
N616 S615 1.613 . S
N616 C619 1.350 . S
N617 S615 1.610 . S
N617 C618 1.351 . S
C618 C612 1.428 . S
C618 N617 1.351 . S
C618 C619 1.434 . S
C619 C610 1.429 . S
C619 N616 1.350 . S
C619 C618 1.434 . S
C620 C621 1.369 . S
C620 C622 1.419 . S
C620 H624 0.930 . S
C621 C620 1.369 . S
C621 C630 1.429 . S
C622 C620 1.419 . S
C622 C623 1.363 . S
C622 H625 0.929 . S
C623 C622 1.363 . S
C623 C629 1.428 . S
H624 C620 0.930 . S
H625 C622 0.929 . S
S626 N627 1.613 . S
S626 N628 1.610 . S
N627 S626 1.613 . S
N627 C630 1.350 . S
N628 S626 1.610 . S
N628 C629 1.351 . S
C629 C623 1.428 . S
C629 N628 1.351 . S
C629 C630 1.434 . S
C630 C621 1.429 . S
C630 N627 1.350 . S
C630 C629 1.434 . S
C631 C632 1.369 . S
C631 C633 1.419 . S
C631 H635 0.930 . S
C632 C631 1.369 . S
C632 C641 1.429 . S
C633 C631 1.419 . S
C633 C634 1.363 . S
C633 H636 0.929 . S
C634 C633 1.363 . S
C634 C640 1.428 . S
H635 C631 0.930 . S
H636 C633 0.929 . S
S637 N638 1.613 . S
S637 N639 1.610 . S
N638 S637 1.613 . S
N638 C641 1.350 . S
N639 S637 1.610 . S
N639 C640 1.351 . S
C640 C634 1.428 . S
C640 N639 1.351 . S
C640 C641 1.434 . S
C641 C632 1.429 . S
C641 N638 1.350 . S
C641 C640 1.434 . S
C642 C643 1.369 . S
C642 C644 1.419 . S
C642 H646 0.930 . S
C643 C642 1.369 . S
C643 C652 1.429 . S
C644 C642 1.419 . S
C644 C645 1.363 . S
C644 H647 0.929 . S
C645 C644 1.363 . S
C645 C651 1.428 . S
H646 C642 0.930 . S
H647 C644 0.929 . S
S648 N649 1.613 . S
S648 N650 1.610 . S
N649 S648 1.613 . S
N649 C652 1.350 . S
N650 S648 1.610 . S
N650 C651 1.351 . S
C651 C645 1.428 . S
C651 N650 1.351 . S
C651 C652 1.434 . S
C652 C643 1.429 . S
C652 N649 1.350 . S
C652 C651 1.434 . S
C653 C654 1.369 . S
C653 C655 1.419 . S
C653 H657 0.930 . S
C654 C653 1.369 . S
C654 C663 1.429 . S
C655 C653 1.419 . S
C655 C656 1.363 . S
C655 H658 0.929 . S
C656 C655 1.363 . S
C656 C662 1.428 . S
H657 C653 0.930 . S
H658 C655 0.929 . S
S659 N660 1.613 . S
S659 N661 1.610 . S
N660 S659 1.613 . S
N660 C663 1.350 . S
N661 S659 1.610 . S
N661 C662 1.351 . S
C662 C656 1.428 . S
C662 N661 1.351 . S
C662 C663 1.434 . S
C663 C654 1.429 . S
C663 N660 1.350 . S
C663 C662 1.434 . S
C401 C21 1.578 . S
C403 C338 1.538 . S
C414 C316 1.536 . S
C412 C60 1.580 . S
C425 C342 1.539 . S
C423 C99 1.573 . S
C436 C320 1.533 . S
C434 C138 1.575 . S
C447 C382 1.532 . S
C445 C177 1.583 . S
C458 C360 1.534 . S
C456 C216 1.581 . S
C467 C255 1.576 . S
C469 C386 1.536 . S
C480 C364 1.536 . S
C478 C294 1.574 . S
C489 C1 1.588 . S
C491 C387 1.627 . S
C502 C365 1.626 . S
C500 C40 1.589 . S
C511 C79 1.584 . S
C513 C384 1.630 . S
C522 C133 1.570 . S
C524 C362 1.619 . S
C535 C343 1.626 . S
C533 C157 1.583 . S
C544 C196 1.588 . S
C546 C321 1.626 . S
C557 C340 1.630 . S
C555 C235 1.581 . S
C568 C318 1.619 . S
C566 C289 1.570 . S
C579 C361 1.610 . S
C577 C16 1.567 . S
C590 C383 1.610 . S
C588 C55 1.564 . S
C599 C94 1.566 . S
C601 C363 1.608 . S
C612 C385 1.608 . S
C610 C118 1.572 . S
C623 C317 1.607 . S
C621 C172 1.563 . S
C632 C211 1.566 . S
C634 C339 1.608 . S
C643 C250 1.571 . S
C645 C319 1.610 . S
C654 C274 1.571 . S
C656 C341 1.608 . S
