# Generated by pormake.
# Topology anh, (6,3)-cn, num edge types: 1
# Building blocks:
#     Node 0, Type 0, BuildingBlock: BETDEL_clean_sbu_0, # of connection points: 6
#     Node 1, Type 0, BuildingBlock: BETDEL_clean_sbu_0, # of connection points: 6
#     Node 2, Type 0, BuildingBlock: BETDEL_clean_sbu_0, # of connection points: 6
#     Node 3, Type 1, BuildingBlock: PAMTOO_clean_linker_0, # of connection points: 3
#     Node 4, Type 1, BuildingBlock: PAMTOO_clean_linker_0, # of connection points: 3
#     Node 5, Type 1, BuildingBlock: PAMTOO_clean_linker_0, # of connection points: 3
#     Node 6, Type 1, BuildingBlock: PAMTOO_clean_linker_0, # of connection points: 3
#     Node 7, Type 1, BuildingBlock: PAMTOO_clean_linker_0, # of connection points: 3
#     Node 8, Type 1, BuildingBlock: PAMTOO_clean_linker_0, # of connection points: 3
#     Edge 9, Type (0, 1), BuildingBlock: OJICUG_clean_linker_0, # of connection points: 2
#     Edge 10, Type (0, 1), BuildingBlock: OJICUG_clean_linker_0, # of connection points: 2
#     Edge 11, Type (0, 1), BuildingBlock: OJICUG_clean_linker_0, # of connection points: 2
#     Edge 12, Type (0, 1), BuildingBlock: OJICUG_clean_linker_0, # of connection points: 2
#     Edge 13, Type (0, 1), BuildingBlock: OJICUG_clean_linker_0, # of connection points: 2
#     Edge 14, Type (0, 1), BuildingBlock: OJICUG_clean_linker_0, # of connection points: 2
#     Edge 15, Type (0, 1), BuildingBlock: OJICUG_clean_linker_0, # of connection points: 2
#     Edge 16, Type (0, 1), BuildingBlock: OJICUG_clean_linker_0, # of connection points: 2
#     Edge 17, Type (0, 1), BuildingBlock: OJICUG_clean_linker_0, # of connection points: 2
#     Edge 18, Type (0, 1), BuildingBlock: OJICUG_clean_linker_0, # of connection points: 2
#     Edge 19, Type (0, 1), BuildingBlock: OJICUG_clean_linker_0, # of connection points: 2
#     Edge 20, Type (0, 1), BuildingBlock: OJICUG_clean_linker_0, # of connection points: 2
#     Edge 21, Type (0, 1), BuildingBlock: OJICUG_clean_linker_0, # of connection points: 2
#     Edge 22, Type (0, 1), BuildingBlock: OJICUG_clean_linker_0, # of connection points: 2
#     Edge 23, Type (0, 1), BuildingBlock: OJICUG_clean_linker_0, # of connection points: 2
#     Edge 24, Type (0, 1), BuildingBlock: OJICUG_clean_linker_0, # of connection points: 2
#     Edge 25, Type (0, 1), BuildingBlock: OJICUG_clean_linker_0, # of connection points: 2
#     Edge 26, Type (0, 1), BuildingBlock: OJICUG_clean_linker_0, # of connection points: 2
# Relax obj value: 0.111
# Max RMSD: 0.133
# Mean RMSD: 0.099
data_MOF--net-anh--node1-BETDEL_clean_sbu_0--node2-PAMTOO_clean_linker_0--edge1-OJICUG_clean_linker_0
_symmetry_space_group_name_H-M    P1
_symmetry_Int_Tables_number       1
_symmetry_cell_setting            triclinic
loop_
_symmetry_equiv_pos_as_xyz
'x, y, z'
_cell_length_a     21.485267
_cell_length_b     21.432478
_cell_length_c     34.427723
_cell_angle_alpha  86.306855
_cell_angle_beta   91.467951
_cell_angle_gamma 119.8686
loop_
_atom_site_label
_atom_site_type_symbol
_atom_site_fract_x
_atom_site_fract_y
_atom_site_fract_z
_atom_type_partial_charge
Dy0 Dy 0.13011 0.48366 0.14811 0.0
C1 C 0.95409 0.60778 0.18691 0.0
C2 C 0.20148 0.42287 0.11801 0.0
Dy3 Dy 1.04926 0.56799 0.16362 0.0
O4 O 0.15348 0.39353 0.14551 0.0
O5 O 0.20912 0.48522 0.10596 0.0
O6 O 0.15391 0.46423 0.21114 0.0
O7 O 0.10052 0.51977 0.19693 0.0
C8 C 0.12363 0.4975 0.22498 0.0
C9 C 0.08812 0.57388 0.08937 0.0
O10 O 0.16049 0.64744 0.18205 0.0
O11 O 0.21813 0.60169 0.14651 0.0
O12 O 1.00471 0.64303 0.16112 0.0
O13 O 0.95895 0.5531 0.20168 0.0
O14 O 0.08259 0.62444 0.10491 0.0
O15 O 0.06574 0.51936 0.11306 0.0
O16 O 1.01526 0.39233 0.14515 0.0
O17 O 0.95741 0.45407 0.16252 0.0
C18 C 0.21945 0.65438 0.16595 0.0
C19 C 0.95613 0.39368 0.15436 0.0
Dy20 Dy 0.52833 0.04941 0.4926 0.0
C21 C 0.83582 0.22695 0.51553 0.0
C22 C 0.38672 0.96286 0.47911 0.0
Dy23 Dy 0.69775 0.14187 0.49359 0.0
O24 O 0.41745 0.96809 0.51262 0.0
O25 O 0.43373 1.00377 0.45248 0.0
O26 O 0.52682 0.08774 0.55185 0.0
O27 O 0.61299 0.07542 0.53512 0.0
C28 C 0.58978 0.09712 0.5612 0.0
C29 C 0.6497 0.12356 0.41979 0.0
O30 O 0.68106 1.02998 0.50575 0.0
O31 O 0.55959 0.96285 0.48984 0.0
O32 O 0.81403 0.17372 0.49287 0.0
O33 O 0.78118 0.23147 0.52722 0.0
O34 O 0.71721 0.16052 0.42834 0.0
O35 O 0.61434 0.10104 0.45093 0.0
O36 O 0.54492 0.16044 0.47826 0.0
O37 O 0.6634 0.2253 0.49889 0.0
C38 C 0.6225 0.96749 0.49897 0.0
C39 C 0.60206 0.22184 0.48764 0.0
Dy40 Dy 0.69498 0.65832 0.81749 0.0
C41 C 0.5748 0.36035 0.84894 0.0
C42 C 0.74243 0.80086 0.80183 0.0
Dy43 Dy 0.61824 0.50049 0.82691 0.0
O44 O 0.7173 0.76568 0.83489 0.0
O45 O 0.74168 0.75802 0.77655 0.0
O46 O 0.74679 0.66505 0.87516 0.0
O47 O 0.64044 0.58263 0.86724 0.0
C48 C 0.69205 0.60814 0.89079 0.0
C49 C 0.62105 0.54999 0.75317 0.0
O50 O 0.52774 0.51669 0.84339 0.0
O51 O 0.57765 0.6289 0.81129 0.0
O52 O 0.55423 0.38219 0.81781 0.0
O53 O 0.6176 0.41527 0.86859 0.0
O54 O 0.56772 0.49163 0.76865 0.0
O55 O 0.67273 0.57634 0.77669 0.0
O56 O 0.79233 0.64649 0.8104 0.0
O57 O 0.73316 0.52485 0.82882 0.0
C58 C 0.52159 0.57176 0.82837 0.0
C59 C 0.79315 0.58592 0.81987 0.0
H60 H 0.71625 0.1857 0.25043 0.0
H61 H 0.52517 0.97663 0.25308 0.0
H62 H 0.65088 0.06491 0.14782 0.0
H63 H 0.48801 0.95612 0.13018 0.0
C64 C 0.47479 0.94197 0.16167 0.0
O65 O 0.53591 0.95158 0.18129 0.0
H66 H 0.4576 0.97955 0.17166 0.0
C67 C 0.67774 0.13827 0.23589 0.0
C68 C 0.68995 0.13331 0.19667 0.0
C69 C 0.61878 0.08253 0.25685 0.0
C70 C 0.57114 1.02027 0.2377 0.0
C71 C 0.58214 1.01353 0.19851 0.0
C72 C 0.64213 0.07003 0.17801 0.0
H73 H 0.63894 0.72585 0.59411 0.0
H74 H 0.63268 0.5274 0.57253 0.0
H75 H 0.62371 0.66109 0.47646 0.0
H76 H 0.54399 0.48465 0.46153 0.0
C77 C 0.56661 0.47636 0.48951 0.0
O78 O 0.62787 0.54076 0.4973 0.0
H79 H 0.52513 0.46075 0.51255 0.0
C80 C 0.63682 0.6883 0.57374 0.0
C81 C 0.63217 0.70226 0.53355 0.0
C82 C 0.6354 0.62477 0.58805 0.0
C83 C 0.6324 0.57596 0.56181 0.0
C84 C 0.62825 0.58849 0.52172 0.0
C85 C 0.62688 0.65125 0.50751 0.0
H86 H 1.01048 0.57505 0.91843 0.0
H87 H 0.21446 0.58298 0.91733 0.0
H88 H 0.11562 0.59815 0.8093 0.0
H89 H 0.2198 0.53714 0.79692 0.0
C90 C 0.23565 0.54272 0.82802 0.0
O91 O 0.23021 0.59932 0.84163 0.0
H92 H 0.1975 0.49106 0.84404 0.0
C93 C 0.05505 0.57874 0.9023 0.0
C94 C 0.05521 0.58554 0.86153 0.0
C95 C 0.11197 0.57771 0.92263 0.0
C96 C 0.1697 0.58256 0.90185 0.0
C97 C 0.17155 0.59021 0.861 0.0
C98 C 0.1142 0.59196 0.84079 0.0
H99 H 1.04673 0.41929 0.40321 0.0
H100 H 0.15972 0.64937 0.38154 0.0
H101 H 0.09414 0.55919 0.49765 0.0
H102 H 0.07951 0.69377 0.47622 0.0
C103 C 0.12106 0.71553 0.45281 0.0
O104 O 0.15679 0.67705 0.4537 0.0
H105 H 0.09437 0.71215 0.42423 0.0
C106 C 0.07171 0.47265 0.41422 0.0
C107 C 0.0667 0.48095 0.4541 0.0
C108 C 0.10494 0.53296 0.38779 0.0
C109 C 0.1334 0.60204 0.40139 0.0
C110 C 0.12837 0.61061 0.4408 0.0
C111 C 0.09631 0.55077 0.46713 0.0
H112 H 0.72848 0.04213 0.70361 0.0
H113 H 0.66833 0.19279 0.74047 0.0
H114 H 0.76466 0.10765 0.82163 0.0
H115 H 0.65532 0.11794 0.86439 0.0
C116 C 0.63849 0.13677 0.83742 0.0
O117 O 0.69806 0.17925 0.81399 0.0
H118 H 0.59821 0.08795 0.8227 0.0
C119 C 0.729 0.07622 0.72564 0.0
C120 C 0.75032 0.06839 0.76373 0.0
C121 C 0.70182 0.12299 0.71635 0.0
C122 C 0.6929 0.15963 0.74625 0.0
C123 C 0.71464 0.15235 0.78414 0.0
C124 C 0.74745 0.11103 0.79211 0.0
H125 H 0.76045 0.59978 0.07205 0.0
H126 H 0.53344 0.50403 0.05269 0.0
H127 H 0.61177 0.50621 0.16844 0.0
H128 H 0.44965 0.35778 0.1434 0.0
C129 C 0.44962 0.39295 0.11822 0.0
O130 O 0.49729 0.46405 0.12522 0.0
H131 H 0.46483 0.37641 0.09166 0.0
C132 C 0.70596 0.57408 0.08316 0.0
C133 C 0.69354 0.55912 0.12354 0.0
C134 C 0.64863 0.55317 0.05703 0.0
C135 C 0.57848 0.51838 0.07198 0.0
C136 C 0.56539 0.49962 0.11177 0.0
C137 C 0.62265 0.51973 0.13757 0.0
C138 C 0.25962 0.35089 0.13793 0.0
C139 C 0.25419 0.40018 0.11106 0.0
H140 H 0.32674 0.31038 0.16156 0.0
C141 C 0.30718 0.43676 0.08228 0.0
H142 H 0.21924 0.32185 0.16041 0.0
C143 C 0.36794 0.42901 0.08253 0.0
C144 C 0.37706 0.38586 0.11207 0.0
H145 H 0.30393 0.47477 0.06119 0.0
H146 H 0.41013 0.46089 0.06142 0.0
C147 C 0.32109 0.34436 0.1387 0.0
C148 C 0.92021 0.35562 0.52456 0.0
C149 C 0.90893 0.28891 0.5136 0.0
H150 H 0.97821 0.46934 0.51336 0.0
C151 C 0.96124 0.28657 0.49117 0.0
H152 H 0.88099 0.35883 0.54223 0.0
C153 C 1.01817 0.35035 0.47496 0.0
C154 C 1.02276 0.41692 0.48068 0.0
H155 H 0.95427 0.23557 0.48287 0.0
H156 H 0.05492 0.34698 0.45539 0.0
C157 C 0.97631 0.41925 0.50789 0.0
C158 C 0.7364 0.9061 0.82123 0.0
C159 C 0.75731 0.8749 0.7936 0.0
H160 H 0.71507 0.98907 0.83326 0.0
C161 C 0.78552 0.91222 0.75769 0.0
H162 H 0.71442 0.87836 0.84922 0.0
C163 C 0.78892 0.97851 0.74883 0.0
C164 C 0.76229 1.00714 0.7754 0.0
H165 H 0.80267 0.88919 0.73611 0.0
H166 H 0.80973 1.0057 0.72063 0.0
C167 C 0.73785 0.97074 0.81212 0.0
C168 C 0.82176 0.54438 0.19507 0.0
C169 C 0.88571 0.60782 0.18424 0.0
H170 H 0.70977 0.47843 0.18355 0.0
C171 C 0.88222 0.66195 0.16078 0.0
H172 H 0.82293 0.50177 0.21323 0.0
C173 C 0.81743 0.64856 0.14379 0.0
C174 C 0.75539 0.58089 0.15006 0.0
H175 H 0.93069 0.71163 0.15231 0.0
H176 H 0.81713 0.68894 0.12329 0.0
C177 C 0.7569 0.5308 0.17789 0.0
C178 C 0.28626 0.89541 0.43387 0.0
C179 C 0.31122 0.91115 0.47199 0.0
H180 H 0.20367 0.82004 0.39784 0.0
C181 C 0.26582 0.87108 0.50354 0.0
H182 H 0.32045 0.92587 0.40913 0.0
C183 C 0.1989 0.81152 0.49708 0.0
C184 C 0.17663 0.79161 0.45902 0.0
H185 H 0.28389 0.88274 0.53323 0.0
H186 H 0.16732 0.77749 0.52182 0.0
C187 C 0.21935 0.83553 0.4274 0.0
C188 C 0.54093 0.24181 0.82389 0.0
C189 C 0.57215 0.29059 0.85328 0.0
H190 H 0.53822 0.15415 0.79584 0.0
C191 C 0.61425 0.27968 0.88175 0.0
H192 H 0.50843 0.24931 0.80153 0.0
C193 C 0.63124 0.22536 0.87843 0.0
C194 C 0.60545 0.18093 0.84693 0.0
H195 H 0.63908 0.31679 0.90463 0.0
H196 H 0.66847 0.22132 0.89884 0.0
C197 C 0.55799 0.18758 0.82055 0.0
C198 C 0.68568 0.90068 0.52415 0.0
C199 C 0.62702 0.89983 0.50443 0.0
H200 H 0.73309 0.8395 0.54852 0.0
C201 C 0.57239 0.83347 0.49148 0.0
H202 H 0.72886 0.95033 0.53465 0.0
C203 C 0.57567 0.76968 0.49893 0.0
C204 C 0.63302 0.77054 0.52005 0.0
H205 H 0.52653 0.83056 0.47607 0.0
H206 H 0.53192 0.71922 0.48959 0.0
C207 C 0.68827 0.83701 0.53211 0.0
C208 C 0.8627 0.52081 0.83274 0.0
C209 C 0.86278 0.58594 0.8236 0.0
H210 H 0.92384 0.46997 0.8512 0.0
C211 C 0.92939 0.65049 0.82175 0.0
H212 H 0.81284 0.46986 0.83441 0.0
C213 C 0.99345 0.65011 0.83106 0.0
C214 C 0.99228 0.58521 0.84216 0.0
H215 H 0.93175 0.70168 0.81498 0.0
H216 H 1.04332 0.70088 0.83173 0.0
C217 C 0.92645 0.52056 0.84209 0.0
C218 C 0.29207 0.77896 0.19114 0.0
C219 C 0.28803 0.72494 0.16816 0.0
H220 H 0.35388 0.88832 0.20771 0.0
C221 C 0.3489 0.74092 0.14585 0.0
H222 H 0.24687 0.76892 0.20899 0.0
C223 C 0.4105 0.80986 0.14516 0.0
C224 C 0.41296 0.86457 0.16679 0.0
H225 H 0.3482 0.70096 0.12786 0.0
H226 H 0.45532 0.82129 0.12658 0.0
C227 C 0.35367 0.84757 0.19057 0.0
C228 C 0.64784 0.35114 0.50451 0.0
C229 C 0.59621 0.28879 0.48659 0.0
H230 H 0.67953 0.45858 0.52008 0.0
C231 C 0.5373 0.29024 0.46866 0.0
H232 H 0.69362 0.35203 0.51895 0.0
C233 C 0.52989 0.35167 0.46886 0.0
C234 C 0.58098 0.41376 0.48692 0.0
H235 H 0.49631 0.24357 0.45462 0.0
H236 H 0.48318 0.35027 0.4553 0.0
C237 C 0.63992 0.41253 0.50506 0.0
C238 C 0.43762 0.62014 0.81027 0.0
C239 C 0.45041 0.56829 0.83042 0.0
H240 H 0.36019 0.65291 0.79386 0.0
C241 C 0.39335 0.51113 0.8519 0.0
H242 H 0.48008 0.66491 0.79343 0.0
C243 C 0.3252 0.50481 0.85239 0.0
C244 C 0.31182 0.55531 0.83136 0.0
H245 H 0.40089 0.47031 0.868 0.0
H246 H 0.28231 0.45911 0.8685 0.0
C247 C 0.36905 0.61353 0.81062 0.0
C248 C 0.87988 0.2566 0.15738 0.0
C249 C 0.88527 0.32492 0.15797 0.0
H250 H 0.81313 0.14166 0.16848 0.0
C251 C 0.82238 0.32727 0.16572 0.0
H252 H 0.9269 0.25237 0.15161 0.0
C253 C 0.75766 0.26412 0.17514 0.0
C254 C 0.75322 0.19633 0.17683 0.0
H255 H 0.82359 0.37834 0.16626 0.0
H256 H 0.71163 0.26857 0.18313 0.0
C257 C 0.81453 0.19298 0.16675 0.0
C258 C 0.1071 0.63419 0.02328 0.0
C259 C 0.09998 0.57522 0.04713 0.0
H260 H 0.11613 0.68047 0.9653 0.0
C261 C 0.10174 0.51837 0.02989 0.0
H262 H 0.10634 0.67905 0.03562 0.0
C263 C 0.10864 0.51999 -0.01072 0.0
C264 C 0.11276 0.57791 0.96559 0.0
H265 H 0.0966 0.47243 0.04765 0.0
H266 H 0.1083 0.47511 0.9763 0.0
C267 C 0.11279 0.63521 0.98301 0.0
C268 C 0.6391 0.16705 0.35315 0.0
C269 C 0.62277 0.10886 0.37988 0.0
H270 H 0.64625 0.20369 0.29344 0.0
C271 C 0.59509 0.03963 0.36639 0.0
H272 H 0.66091 0.22098 0.36305 0.0
C273 C 0.58935 1.02982 0.32627 0.0
C274 C 0.61055 0.08915 0.29914 0.0
H275 H 0.58343 0.99423 0.38665 0.0
H276 H 0.57311 0.97677 0.31665 0.0
C277 C 0.63171 0.15711 0.31327 0.0
C278 C 0.57369 0.52307 0.68594 0.0
C279 C 0.62583 0.57066 0.71113 0.0
H280 H 0.53668 0.50287 0.6273 0.0
C281 C 0.68155 0.63689 0.69566 0.0
H282 H 0.53007 0.47165 0.697 0.0
C283 C 0.68456 0.6553 0.65563 0.0
C284 C 0.63284 0.60697 0.63048 0.0
H285 H 0.72242 0.67445 0.71446 0.0
H286 H 0.72778 0.70668 0.64423 0.0
C287 C 0.57755 0.54074 0.64603 0.0
C288 C 0.68963 0.12049 0.60673 0.0
C289 C 0.62208 0.11408 0.60004 0.0
H290 H 0.76879 0.13083 0.64862 0.0
C291 C 0.58395 0.11842 0.63129 0.0
H292 H 0.72029 0.11761 0.58311 0.0
C293 C 0.61121 0.12477 0.66909 0.0
C294 C 0.67724 0.12735 0.67608 0.0
H295 H 0.5317 0.11365 0.62681 0.0
H296 H 0.57891 0.12396 0.69296 0.0
C297 C 0.71714 0.12757 0.64428 0.0
C298 C 0.73267 0.6413 0.95855 0.0
C299 C 0.68343 0.59173 0.93307 0.0
H300 H 0.75909 0.66954 0.01748 0.0
C301 C 0.62409 0.52843 0.94836 0.0
H302 H 0.77876 0.69081 0.94744 0.0
C303 C 0.61356 0.51535 -0.01143 0.0
C304 C 0.66151 0.566 0.01427 0.0
H305 H 0.58563 0.48922 0.92925 0.0
H306 H 0.56777 0.46541 -0.00055 0.0
C307 C 0.72151 0.62891 -0.00127 0.0
C308 C 0.09328 0.55203 0.2781 0.0
C309 C 0.11756 0.5063 0.26638 0.0
H310 H 0.07046 0.59654 0.32614 0.0
C311 C 0.13715 0.46915 0.29461 0.0
H312 H 0.07796 0.58124 0.25676 0.0
C313 C 0.13242 0.4774 0.33407 0.0
C314 C 0.10886 0.52366 0.34593 0.0
H315 H 0.15608 0.43358 0.28619 0.0
H316 H 0.14822 0.44846 0.35532 0.0
C317 C 0.08937 0.561 0.31764 0.0
loop_
_geom_bond_atom_site_label_1
_geom_bond_atom_site_label_2
_geom_bond_distance
_geom_bond_site_symmetry_2
_ccdc_geom_bond_type
Dy0 O4 2.398 . S
Dy0 O5 2.491 . S
Dy0 O6 2.403 . S
Dy0 O7 2.664 1_455 S
Dy0 O11 2.326 . S
Dy0 O15 2.310 . S
Dy0 O16 2.351 1_455 S
C1 O12 1.185 . S
C1 O13 1.355 . S
C2 O4 1.185 . S
C2 O5 1.355 . S
Dy3 O7 2.310 . S
Dy3 O10 2.351 1_655 S
Dy3 O12 2.398 . S
Dy3 O13 2.491 . S
Dy3 O14 2.403 . S
Dy3 O15 2.664 1_655 S
Dy3 O17 2.326 . S
O4 Dy0 2.398 . S
O4 C2 1.185 . S
O5 Dy0 2.491 . S
O5 C2 1.355 . S
O6 Dy0 2.403 . S
O6 C8 1.254 . S
O7 Dy0 2.664 1_655 S
O7 Dy3 2.310 . S
O7 C8 1.268 1_655 S
C8 O6 1.254 . S
C8 O7 1.268 1_455 S
C9 O14 1.254 1_455 S
C9 O15 1.268 . S
O10 Dy3 2.351 1_455 S
O10 C18 1.249 . S
O11 Dy0 2.326 . S
O11 C18 1.267 . S
O12 C1 1.185 . S
O12 Dy3 2.398 . S
O13 C1 1.355 . S
O13 Dy3 2.491 . S
O14 Dy3 2.403 . S
O14 C9 1.254 1_655 S
O15 Dy0 2.310 . S
O15 Dy3 2.664 1_455 S
O15 C9 1.268 . S
O16 Dy0 2.351 1_655 S
O16 C19 1.249 . S
O17 Dy3 2.326 . S
O17 C19 1.267 . S
C18 O10 1.249 . S
C18 O11 1.267 . S
C19 O16 1.249 . S
C19 O17 1.267 . S
Dy20 O24 2.398 . S
Dy20 O25 2.491 . S
Dy20 O26 2.403 . S
Dy20 O27 2.664 1_565 S
Dy20 O31 2.326 . S
Dy20 O35 2.310 1_565 S
Dy20 O36 2.351 1_565 S
C21 O32 1.185 . S
C21 O33 1.355 . S
C22 O24 1.185 . S
C22 O25 1.355 . S
Dy23 O27 2.310 . S
Dy23 O30 2.351 1_545 S
Dy23 O32 2.398 . S
Dy23 O33 2.491 . S
Dy23 O34 2.403 . S
Dy23 O35 2.664 . S
Dy23 O37 2.326 . S
O24 Dy20 2.398 . S
O24 C22 1.185 . S
O25 Dy20 2.491 . S
O25 C22 1.355 . S
O26 Dy20 2.403 . S
O26 C28 1.254 1_565 S
O27 Dy20 2.664 1_545 S
O27 Dy23 2.310 . S
O27 C28 1.268 . S
C28 O26 1.254 1_545 S
C28 O27 1.268 . S
C29 O34 1.254 . S
C29 O35 1.268 . S
O30 Dy23 2.351 1_565 S
O30 C38 1.249 . S
O31 Dy20 2.326 . S
O31 C38 1.267 . S
O32 C21 1.185 . S
O32 Dy23 2.398 . S
O33 C21 1.355 . S
O33 Dy23 2.491 . S
O34 Dy23 2.403 . S
O34 C29 1.254 . S
O35 Dy20 2.310 1_545 S
O35 Dy23 2.664 . S
O35 C29 1.268 . S
O36 Dy20 2.351 1_545 S
O36 C39 1.249 . S
O37 Dy23 2.326 . S
O37 C39 1.267 . S
C38 O30 1.249 . S
C38 O31 1.267 . S
C39 O36 1.249 . S
C39 O37 1.267 . S
Dy40 O44 2.398 . S
Dy40 O45 2.491 . S
Dy40 O46 2.403 . S
Dy40 O47 2.664 . S
Dy40 O51 2.326 . S
Dy40 O55 2.310 . S
Dy40 O56 2.351 . S
C41 O52 1.185 . S
C41 O53 1.355 . S
C42 O44 1.185 . S
C42 O45 1.355 . S
Dy43 O47 2.310 . S
Dy43 O50 2.351 . S
Dy43 O52 2.398 . S
Dy43 O53 2.491 . S
Dy43 O54 2.403 . S
Dy43 O55 2.664 . S
Dy43 O57 2.326 . S
O44 Dy40 2.398 . S
O44 C42 1.185 . S
O45 Dy40 2.491 . S
O45 C42 1.355 . S
O46 Dy40 2.403 . S
O46 C48 1.254 . S
O47 Dy40 2.664 . S
O47 Dy43 2.310 . S
O47 C48 1.268 . S
C48 O46 1.254 . S
C48 O47 1.268 . S
C49 O54 1.254 . S
C49 O55 1.268 . S
O50 Dy43 2.351 . S
O50 C58 1.249 . S
O51 Dy40 2.326 . S
O51 C58 1.267 . S
O52 C41 1.185 . S
O52 Dy43 2.398 . S
O53 C41 1.355 . S
O53 Dy43 2.491 . S
O54 Dy43 2.403 . S
O54 C49 1.254 . S
O55 Dy40 2.310 . S
O55 Dy43 2.664 . S
O55 C49 1.268 . S
O56 Dy40 2.351 . S
O56 C59 1.249 . S
O57 Dy43 2.326 . S
O57 C59 1.267 . S
C58 O50 1.249 . S
C58 O51 1.267 . S
C59 O56 1.249 . S
C59 O57 1.267 . S
H60 C67 0.929 . S
H61 C70 0.930 . S
H62 C72 0.929 . S
H63 C64 0.969 . S
C64 H63 0.969 . S
C64 O65 1.550 . S
C64 H66 0.973 . S
O65 C64 1.550 . S
O65 C71 1.412 . S
H66 C64 0.973 . S
C67 H60 0.929 . S
C67 C68 1.400 . S
C67 C69 1.364 . S
C68 C67 1.400 . S
C68 C72 1.377 . S
C69 C67 1.364 . S
C69 C70 1.374 1_545 S
C70 H61 0.930 . S
C70 C69 1.374 1_565 S
C70 C71 1.383 . S
C71 O65 1.412 . S
C71 C70 1.383 . S
C71 C72 1.394 1_565 S
C72 H62 0.929 . S
C72 C68 1.377 . S
C72 C71 1.394 1_545 S
H73 C80 0.929 . S
H74 C83 0.930 . S
H75 C85 0.929 . S
H76 C77 0.969 . S
C77 H76 0.969 . S
C77 O78 1.550 . S
C77 H79 0.973 . S
O78 C77 1.550 . S
O78 C84 1.412 . S
H79 C77 0.973 . S
C80 H73 0.929 . S
C80 C81 1.400 . S
C80 C82 1.364 . S
C81 C80 1.400 . S
C81 C85 1.377 . S
C82 C80 1.364 . S
C82 C83 1.374 . S
C83 H74 0.930 . S
C83 C82 1.374 . S
C83 C84 1.383 . S
C84 O78 1.412 . S
C84 C83 1.383 . S
C84 C85 1.394 . S
C85 H75 0.929 . S
C85 C81 1.377 . S
C85 C84 1.394 . S
H86 C93 0.929 1_655 S
H87 C96 0.930 . S
H88 C98 0.929 . S
H89 C90 0.969 . S
C90 H89 0.969 . S
C90 O91 1.550 . S
C90 H92 0.973 . S
O91 C90 1.550 . S
O91 C97 1.412 . S
H92 C90 0.973 . S
C93 H86 0.929 1_455 S
C93 C94 1.400 . S
C93 C95 1.364 . S
C94 C93 1.400 . S
C94 C98 1.377 . S
C95 C93 1.364 . S
C95 C96 1.374 . S
C96 H87 0.930 . S
C96 C95 1.374 . S
C96 C97 1.383 . S
C97 O91 1.412 . S
C97 C96 1.383 . S
C97 C98 1.394 . S
C98 H88 0.929 . S
C98 C94 1.377 . S
C98 C97 1.394 . S
H99 C106 0.929 . S
H100 C109 0.930 . S
H101 C111 0.929 . S
H102 C103 0.969 . S
C103 H102 0.969 . S
C103 O104 1.550 . S
C103 H105 0.973 . S
O104 C103 1.550 . S
O104 C110 1.412 . S
H105 C103 0.973 . S
C106 H99 0.929 . S
C106 C107 1.400 . S
C106 C108 1.364 1_655 S
C107 C106 1.400 . S
C107 C111 1.377 1_655 S
C108 C106 1.364 1_455 S
C108 C109 1.374 . S
C109 H100 0.930 . S
C109 C108 1.374 . S
C109 C110 1.383 . S
C110 O104 1.412 . S
C110 C109 1.383 . S
C110 C111 1.394 . S
C111 H101 0.929 . S
C111 C107 1.377 1_455 S
C111 C110 1.394 . S
H112 C119 0.929 . S
H113 C122 0.930 . S
H114 C124 0.929 . S
H115 C116 0.969 . S
C116 H115 0.969 . S
C116 O117 1.550 . S
C116 H118 0.973 . S
O117 C116 1.550 . S
O117 C123 1.412 . S
H118 C116 0.973 . S
C119 H112 0.929 . S
C119 C120 1.400 . S
C119 C121 1.364 1_565 S
C120 C119 1.400 . S
C120 C124 1.377 1_565 S
C121 C119 1.364 1_545 S
C121 C122 1.374 . S
C122 H113 0.930 . S
C122 C121 1.374 . S
C122 C123 1.383 . S
C123 O117 1.412 . S
C123 C122 1.383 . S
C123 C124 1.394 . S
C124 H114 0.929 . S
C124 C120 1.377 1_545 S
C124 C123 1.394 . S
H125 C132 0.929 . S
H126 C135 0.930 . S
H127 C137 0.929 . S
H128 C129 0.969 . S
C129 H128 0.969 . S
C129 O130 1.550 . S
C129 H131 0.973 . S
O130 C129 1.550 . S
O130 C136 1.412 . S
H131 C129 0.973 . S
C132 H125 0.929 . S
C132 C133 1.400 . S
C132 C134 1.364 . S
C133 C132 1.400 . S
C133 C137 1.377 . S
C134 C132 1.364 . S
C134 C135 1.374 . S
C135 H126 0.930 . S
C135 C134 1.374 . S
C135 C136 1.383 . S
C136 O130 1.412 . S
C136 C135 1.383 . S
C136 C137 1.394 . S
C137 H127 0.929 . S
C137 C133 1.377 . S
C137 C136 1.394 . S
C138 C139 1.387 . S
C138 H142 0.950 . S
C138 C147 1.390 . S
C139 C138 1.387 . S
C139 C141 1.387 . S
H140 C147 0.950 . S
C141 C139 1.387 . S
C141 C143 1.390 . S
C141 H145 0.950 . S
H142 C138 0.950 . S
C143 C141 1.390 . S
C143 C144 1.387 . S
C143 H146 0.950 . S
C144 C143 1.387 . S
C144 C147 1.387 . S
H145 C141 0.950 . S
H146 C143 0.950 . S
C147 C138 1.390 . S
C147 H140 0.950 . S
C147 C144 1.387 . S
C148 C149 1.387 . S
C148 H152 0.950 . S
C148 C157 1.390 . S
C149 C148 1.387 . S
C149 C151 1.387 . S
H150 C157 0.950 . S
C151 C149 1.387 . S
C151 C153 1.390 . S
C151 H155 0.950 . S
H152 C148 0.950 . S
C153 C151 1.390 . S
C153 C154 1.387 . S
C153 H156 0.950 . S
C154 C153 1.387 . S
C154 C157 1.387 . S
H155 C151 0.950 . S
H156 C153 0.950 . S
C157 C148 1.390 . S
C157 H150 0.950 . S
C157 C154 1.387 . S
C158 C159 1.387 . S
C158 H162 0.950 . S
C158 C167 1.390 . S
C159 C158 1.387 . S
C159 C161 1.387 . S
H160 C167 0.950 . S
C161 C159 1.387 . S
C161 C163 1.390 . S
C161 H165 0.950 . S
H162 C158 0.950 . S
C163 C161 1.390 . S
C163 C164 1.387 . S
C163 H166 0.950 . S
C164 C163 1.387 . S
C164 C167 1.387 . S
H165 C161 0.950 . S
H166 C163 0.950 . S
C167 C158 1.390 . S
C167 H160 0.950 . S
C167 C164 1.387 . S
C168 C169 1.387 . S
C168 H172 0.950 . S
C168 C177 1.390 . S
C169 C168 1.387 . S
C169 C171 1.387 . S
H170 C177 0.950 . S
C171 C169 1.387 . S
C171 C173 1.390 . S
C171 H175 0.950 . S
H172 C168 0.950 . S
C173 C171 1.390 . S
C173 C174 1.387 . S
C173 H176 0.950 . S
C174 C173 1.387 . S
C174 C177 1.387 . S
H175 C171 0.950 . S
H176 C173 0.950 . S
C177 C168 1.390 . S
C177 H170 0.950 . S
C177 C174 1.387 . S
C178 C179 1.387 . S
C178 H182 0.950 . S
C178 C187 1.390 . S
C179 C178 1.387 . S
C179 C181 1.387 . S
H180 C187 0.950 . S
C181 C179 1.387 . S
C181 C183 1.390 . S
C181 H185 0.950 . S
H182 C178 0.950 . S
C183 C181 1.390 . S
C183 C184 1.387 . S
C183 H186 0.950 . S
C184 C183 1.387 . S
C184 C187 1.387 . S
H185 C181 0.950 . S
H186 C183 0.950 . S
C187 C178 1.390 . S
C187 H180 0.950 . S
C187 C184 1.387 . S
C188 C189 1.387 . S
C188 H192 0.950 . S
C188 C197 1.390 . S
C189 C188 1.387 . S
C189 C191 1.387 . S
H190 C197 0.950 . S
C191 C189 1.387 . S
C191 C193 1.390 . S
C191 H195 0.950 . S
H192 C188 0.950 . S
C193 C191 1.390 . S
C193 C194 1.387 . S
C193 H196 0.950 . S
C194 C193 1.387 . S
C194 C197 1.387 . S
H195 C191 0.950 . S
H196 C193 0.950 . S
C197 C188 1.390 . S
C197 H190 0.950 . S
C197 C194 1.387 . S
C198 C199 1.387 . S
C198 H202 0.950 . S
C198 C207 1.390 . S
C199 C198 1.387 . S
C199 C201 1.387 . S
H200 C207 0.950 . S
C201 C199 1.387 . S
C201 C203 1.390 . S
C201 H205 0.950 . S
H202 C198 0.950 . S
C203 C201 1.390 . S
C203 C204 1.387 . S
C203 H206 0.950 . S
C204 C203 1.387 . S
C204 C207 1.387 . S
H205 C201 0.950 . S
H206 C203 0.950 . S
C207 C198 1.390 . S
C207 H200 0.950 . S
C207 C204 1.387 . S
C208 C209 1.387 . S
C208 H212 0.950 . S
C208 C217 1.390 . S
C209 C208 1.387 . S
C209 C211 1.387 . S
H210 C217 0.950 . S
C211 C209 1.387 . S
C211 C213 1.390 . S
C211 H215 0.950 . S
H212 C208 0.950 . S
C213 C211 1.390 . S
C213 C214 1.387 . S
C213 H216 0.950 . S
C214 C213 1.387 . S
C214 C217 1.387 . S
H215 C211 0.950 . S
H216 C213 0.950 . S
C217 C208 1.390 . S
C217 H210 0.950 . S
C217 C214 1.387 . S
C218 C219 1.387 . S
C218 H222 0.950 . S
C218 C227 1.390 . S
C219 C218 1.387 . S
C219 C221 1.387 . S
H220 C227 0.950 . S
C221 C219 1.387 . S
C221 C223 1.390 . S
C221 H225 0.950 . S
H222 C218 0.950 . S
C223 C221 1.390 . S
C223 C224 1.387 . S
C223 H226 0.950 . S
C224 C223 1.387 . S
C224 C227 1.387 . S
H225 C221 0.950 . S
H226 C223 0.950 . S
C227 C218 1.390 . S
C227 H220 0.950 . S
C227 C224 1.387 . S
C228 C229 1.387 . S
C228 H232 0.950 . S
C228 C237 1.390 . S
C229 C228 1.387 . S
C229 C231 1.387 . S
H230 C237 0.950 . S
C231 C229 1.387 . S
C231 C233 1.390 . S
C231 H235 0.950 . S
H232 C228 0.950 . S
C233 C231 1.390 . S
C233 C234 1.387 . S
C233 H236 0.950 . S
C234 C233 1.387 . S
C234 C237 1.387 . S
H235 C231 0.950 . S
H236 C233 0.950 . S
C237 C228 1.390 . S
C237 H230 0.950 . S
C237 C234 1.387 . S
C238 C239 1.387 . S
C238 H242 0.950 . S
C238 C247 1.390 . S
C239 C238 1.387 . S
C239 C241 1.387 . S
H240 C247 0.950 . S
C241 C239 1.387 . S
C241 C243 1.390 . S
C241 H245 0.950 . S
H242 C238 0.950 . S
C243 C241 1.390 . S
C243 C244 1.387 . S
C243 H246 0.950 . S
C244 C243 1.387 . S
C244 C247 1.387 . S
H245 C241 0.950 . S
H246 C243 0.950 . S
C247 C238 1.390 . S
C247 H240 0.950 . S
C247 C244 1.387 . S
C248 C249 1.387 . S
C248 H252 0.950 . S
C248 C257 1.390 . S
C249 C248 1.387 . S
C249 C251 1.387 . S
H250 C257 0.950 . S
C251 C249 1.387 . S
C251 C253 1.390 . S
C251 H255 0.950 . S
H252 C248 0.950 . S
C253 C251 1.390 . S
C253 C254 1.387 . S
C253 H256 0.950 . S
C254 C253 1.387 . S
C254 C257 1.387 . S
H255 C251 0.950 . S
H256 C253 0.950 . S
C257 C248 1.390 . S
C257 H250 0.950 . S
C257 C254 1.387 . S
C258 C259 1.387 . S
C258 H262 0.950 . S
C258 C267 1.390 1_554 S
C259 C258 1.387 . S
C259 C261 1.387 . S
H260 C267 0.950 . S
C261 C259 1.387 . S
C261 C263 1.390 1_554 S
C261 H265 0.950 1_455 S
H262 C258 0.950 . S
C263 C261 1.390 1_556 S
C263 C264 1.387 . S
C263 H266 0.950 1_455 S
C264 C263 1.387 . S
C264 C267 1.387 . S
H265 C261 0.950 1_655 S
H266 C263 0.950 1_655 S
C267 C258 1.390 1_556 S
C267 H260 0.950 . S
C267 C264 1.387 . S
C268 C269 1.387 . S
C268 H272 0.950 . S
C268 C277 1.390 . S
C269 C268 1.387 . S
C269 C271 1.387 1_545 S
H270 C277 0.950 . S
C271 C269 1.387 1_565 S
C271 C273 1.390 . S
C271 H275 0.950 . S
H272 C268 0.950 . S
C273 C271 1.390 . S
C273 C274 1.387 1_565 S
C273 H276 0.950 . S
C274 C273 1.387 1_545 S
C274 C277 1.387 . S
H275 C271 0.950 . S
H276 C273 0.950 . S
C277 C268 1.390 . S
C277 H270 0.950 . S
C277 C274 1.387 . S
C278 C279 1.387 . S
C278 H282 0.950 . S
C278 C287 1.390 . S
C279 C278 1.387 . S
C279 C281 1.387 . S
H280 C287 0.950 . S
C281 C279 1.387 . S
C281 C283 1.390 . S
C281 H285 0.950 . S
H282 C278 0.950 . S
C283 C281 1.390 . S
C283 C284 1.387 . S
C283 H286 0.950 . S
C284 C283 1.387 . S
C284 C287 1.387 . S
H285 C281 0.950 . S
H286 C283 0.950 . S
C287 C278 1.390 . S
C287 H280 0.950 . S
C287 C284 1.387 . S
C288 C289 1.387 . S
C288 H292 0.950 . S
C288 C297 1.390 . S
C289 C288 1.387 . S
C289 C291 1.387 1_545 S
H290 C297 0.950 . S
C291 C289 1.387 1_565 S
C291 C293 1.390 . S
C291 H295 0.950 . S
H292 C288 0.950 . S
C293 C291 1.390 . S
C293 C294 1.387 1_565 S
C293 H296 0.950 . S
C294 C293 1.387 1_545 S
C294 C297 1.387 . S
H295 C291 0.950 . S
H296 C293 0.950 . S
C297 C288 1.390 . S
C297 H290 0.950 . S
C297 C294 1.387 . S
C298 C299 1.387 . S
C298 H302 0.950 . S
C298 C307 1.390 1_556 S
C299 C298 1.387 . S
C299 C301 1.387 . S
H300 C307 0.950 . S
C301 C299 1.387 . S
C301 C303 1.390 1_556 S
C301 H305 0.950 . S
H302 C298 0.950 . S
C303 C301 1.390 1_554 S
C303 C304 1.387 . S
C303 H306 0.950 . S
C304 C303 1.387 . S
C304 C307 1.387 . S
H305 C301 0.950 . S
H306 C303 0.950 . S
C307 C298 1.390 1_554 S
C307 H300 0.950 . S
C307 C304 1.387 . S
C308 C309 1.387 1_655 S
C308 H312 0.950 . S
C308 C317 1.390 . S
C309 C308 1.387 1_455 S
C309 C311 1.387 . S
H310 C317 0.950 . S
C311 C309 1.387 . S
C311 C313 1.390 . S
C311 H315 0.950 . S
H312 C308 0.950 . S
C313 C311 1.390 . S
C313 C314 1.387 . S
C313 H316 0.950 . S
C314 C313 1.387 . S
C314 C317 1.387 1_455 S
H315 C311 0.950 . S
H316 C313 0.950 . S
C317 C308 1.390 . S
C317 H310 0.950 . S
C317 C314 1.387 1_655 S
C139 C2 1.140 . S
C144 C129 1.073 . S
C149 C21 0.988 . S
C154 C107 0.984 . S
C159 C42 1.028 . S
C164 C120 1.018 . S
C169 C1 0.977 . S
C174 C133 0.981 . S
C184 C103 1.111 . S
C179 C22 1.158 . S
C194 C116 1.055 . S
C189 C41 1.090 . S
C199 C38 1.850 . S
C204 C81 1.824 . S
C209 C59 1.901 . S
C214 C94 1.868 1_655 S
C219 C18 1.950 . S
C224 C64 1.787 . S
C234 C77 1.841 . S
C229 C39 2.016 . S
C244 C90 1.806 . S
C239 C58 1.959 . S
C249 C19 1.905 . S
C254 C68 1.871 . S
C264 C95 1.592 . S
C259 C9 1.542 . S
C269 C29 1.543 . S
C274 C69 1.573 . S
C279 C49 1.518 . S
C284 C82 1.619 . S
C294 C121 1.439 . S
C289 C28 1.392 . S
C304 C134 1.488 . S
C299 C48 1.479 . S
C309 C8 1.436 . S
C314 C108 1.463 . S
