# Generated by pormake.
# Topology hwx, (6,3)-cn, num edge types: 1
# Building blocks:
#     Node 0, Type 0, BuildingBlock: OJICUG_clean_sbu_0, # of connection points: 6
#     Node 1, Type 0, BuildingBlock: OJICUG_clean_sbu_0, # of connection points: 6
#     Node 2, Type 0, BuildingBlock: OJICUG_clean_sbu_0, # of connection points: 6
#     Node 3, Type 0, BuildingBlock: OJICUG_clean_sbu_0, # of connection points: 6
#     Node 4, Type 1, BuildingBlock: BETDAH_clean_linker_0, # of connection points: 3
#     Node 5, Type 1, BuildingBlock: BETDAH_clean_linker_0, # of connection points: 3
#     Node 6, Type 1, BuildingBlock: BETDAH_clean_linker_0, # of connection points: 3
#     Node 7, Type 1, BuildingBlock: BETDAH_clean_linker_0, # of connection points: 3
#     Node 8, Type 1, BuildingBlock: BETDAH_clean_linker_0, # of connection points: 3
#     Node 9, Type 1, BuildingBlock: BETDAH_clean_linker_0, # of connection points: 3
#     Node 10, Type 1, BuildingBlock: BETDAH_clean_linker_0, # of connection points: 3
#     Node 11, Type 1, BuildingBlock: BETDAH_clean_linker_0, # of connection points: 3
#     Edge 12, Type (0, 1), BuildingBlock: UVAHIK_clean_linker_0, # of connection points: 2
#     Edge 13, Type (0, 1), BuildingBlock: UVAHIK_clean_linker_0, # of connection points: 2
#     Edge 14, Type (0, 1), BuildingBlock: UVAHIK_clean_linker_0, # of connection points: 2
#     Edge 15, Type (0, 1), BuildingBlock: UVAHIK_clean_linker_0, # of connection points: 2
#     Edge 16, Type (0, 1), BuildingBlock: UVAHIK_clean_linker_0, # of connection points: 2
#     Edge 17, Type (0, 1), BuildingBlock: UVAHIK_clean_linker_0, # of connection points: 2
#     Edge 18, Type (0, 1), BuildingBlock: UVAHIK_clean_linker_0, # of connection points: 2
#     Edge 19, Type (0, 1), BuildingBlock: UVAHIK_clean_linker_0, # of connection points: 2
#     Edge 20, Type (0, 1), BuildingBlock: UVAHIK_clean_linker_0, # of connection points: 2
#     Edge 21, Type (0, 1), BuildingBlock: UVAHIK_clean_linker_0, # of connection points: 2
#     Edge 22, Type (0, 1), BuildingBlock: UVAHIK_clean_linker_0, # of connection points: 2
#     Edge 23, Type (0, 1), BuildingBlock: UVAHIK_clean_linker_0, # of connection points: 2
#     Edge 24, Type (0, 1), BuildingBlock: UVAHIK_clean_linker_0, # of connection points: 2
#     Edge 25, Type (0, 1), BuildingBlock: UVAHIK_clean_linker_0, # of connection points: 2
#     Edge 26, Type (0, 1), BuildingBlock: UVAHIK_clean_linker_0, # of connection points: 2
#     Edge 27, Type (0, 1), BuildingBlock: UVAHIK_clean_linker_0, # of connection points: 2
#     Edge 28, Type (0, 1), BuildingBlock: UVAHIK_clean_linker_0, # of connection points: 2
#     Edge 29, Type (0, 1), BuildingBlock: UVAHIK_clean_linker_0, # of connection points: 2
#     Edge 30, Type (0, 1), BuildingBlock: UVAHIK_clean_linker_0, # of connection points: 2
#     Edge 31, Type (0, 1), BuildingBlock: UVAHIK_clean_linker_0, # of connection points: 2
#     Edge 32, Type (0, 1), BuildingBlock: UVAHIK_clean_linker_0, # of connection points: 2
#     Edge 33, Type (0, 1), BuildingBlock: UVAHIK_clean_linker_0, # of connection points: 2
#     Edge 34, Type (0, 1), BuildingBlock: UVAHIK_clean_linker_0, # of connection points: 2
#     Edge 35, Type (0, 1), BuildingBlock: UVAHIK_clean_linker_0, # of connection points: 2
# Relax obj value: 0.008
# Max RMSD: 0.047
# Mean RMSD: 0.043
data_MOF--net-hwx--node1-OJICUG_clean_sbu_0--node2-BETDAH_clean_linker_0--edge1-UVAHIK_clean_linker_0
_symmetry_space_group_name_H-M    P1
_symmetry_Int_Tables_number       1
_symmetry_cell_setting            triclinic
loop_
_symmetry_equiv_pos_as_xyz
'x, y, z'
_cell_length_a     67.745813
_cell_length_b     67.714607
_cell_length_c     26.192646
_cell_angle_alpha  91.669437
_cell_angle_beta   91.676851
_cell_angle_gamma 89.978705
loop_
_atom_site_label
_atom_site_type_symbol
_atom_site_fract_x
_atom_site_fract_y
_atom_site_fract_z
_atom_type_partial_charge
Sc0 Sc 0.22088 0.2205 0.08618 0.0
Sc1 Sc 0.18901 0.18773 0.01632 0.0
Sc2 Sc 0.2194 0.22043 0.95165 0.0
O3 O 0.20975 0.20955 0.01806 0.0
C4 C 0.21659 0.25971 0.02215 0.0
C5 C 0.17523 0.21507 0.10983 0.0
C6 C 0.17308 0.21568 0.92786 0.0
C7 C 0.21865 0.1741 0.10555 0.0
C8 C 0.25941 0.2186 0.01875 0.0
C9 C 0.21575 0.17439 0.92318 0.0
O10 O 0.21745 0.25085 0.06431 0.0
O11 O 0.17192 0.20206 0.0747 0.0
O12 O 0.18981 0.22345 0.92049 0.0
O13 O 0.22569 0.19127 0.11526 0.0
O14 O 0.25001 0.21844 0.97597 0.0
O15 O 0.20373 0.17069 0.95799 0.0
O16 O 0.25087 0.21967 0.06131 0.0
O17 O 0.20519 0.17072 0.07157 0.0
O18 O 0.2224 0.19161 0.9161 0.0
O19 O 0.1921 0.22287 0.11851 0.0
O20 O 0.21743 0.25063 0.97911 0.0
O21 O 0.17057 0.20249 0.9607 0.0
Sc22 Sc 0.28042 0.71232 0.45088 0.0
Sc23 Sc 0.31643 0.68336 0.51342 0.0
Sc24 Sc 0.28871 0.7183 0.58375 0.0
O25 O 0.29518 0.70467 0.51602 0.0
C26 C 0.28659 0.75438 0.50776 0.0
C27 C 0.32512 0.70797 0.4149 0.0
C28 C 0.33546 0.71423 0.59565 0.0
C29 C 0.28416 0.6658 0.43282 0.0
C30 C 0.2458 0.71302 0.53125 0.0
C31 C 0.29364 0.6729 0.61368 0.0
O32 O 0.28358 0.74347 0.46798 0.0
O33 O 0.3307 0.69706 0.45132 0.0
O34 O 0.31929 0.72289 0.60526 0.0
O35 O 0.27532 0.68212 0.42642 0.0
O36 O 0.25732 0.71549 0.57012 0.0
O37 O 0.30384 0.66794 0.57535 0.0
O38 O 0.252 0.71158 0.4859 0.0
O39 O 0.2995 0.66418 0.46147 0.0
O40 O 0.2878 0.69054 0.6223 0.0
O41 O 0.3074 0.71399 0.40906 0.0
O42 O 0.28873 0.74744 0.55222 0.0
O43 O 0.33649 0.69947 0.56478 0.0
Sc44 Sc 0.77981 0.77832 0.92169 0.0
Sc45 Sc 0.80974 0.81171 0.99561 0.0
Sc46 Sc 0.77728 0.77975 0.05586 0.0
O47 O 0.78896 0.78991 0.99103 0.0
C48 C 0.7393 0.78185 0.98111 0.0
C49 C 0.78347 0.82424 0.8989 0.0
C50 C 0.78032 0.82623 0.08157 0.0
C51 C 0.82647 0.78284 0.90855 0.0
C52 C 0.78104 0.73977 0.98858 0.0
C53 C 0.8226 0.7847 0.08914 0.0
O54 O 0.74894 0.78029 0.94019 0.0
O55 O 0.79592 0.82814 0.93502 0.0
O56 O 0.77364 0.80904 0.08899 0.0
O57 O 0.80981 0.77512 0.896 0.0
O58 O 0.77947 0.74923 0.03089 0.0
O59 O 0.82603 0.79788 0.05692 0.0
O60 O 0.78153 0.74825 0.946 0.0
O61 O 0.82852 0.7962 0.94339 0.0
O62 O 0.8058 0.77659 0.09267 0.0
O63 O 0.77651 0.80705 0.88969 0.0
O64 O 0.74759 0.78195 0.02532 0.0
O65 O 0.79317 0.82957 0.0485 0.0
Sc66 Sc 0.73186 0.27347 0.57873 0.0
Sc67 Sc 0.70012 0.30574 0.51251 0.0
Sc68 Sc 0.72832 0.27085 0.44391 0.0
O69 O 0.7201 0.28333 0.51172 0.0
C70 C 0.76931 0.27338 0.50711 0.0
C71 C 0.73088 0.32015 0.60047 0.0
C72 C 0.72586 0.31661 0.41767 0.0
C73 C 0.68671 0.28051 0.60624 0.0
C74 C 0.72578 0.23311 0.51423 0.0
C75 C 0.68201 0.2767 0.42453 0.0
O76 O 0.76137 0.27325 0.55051 0.0
O77 O 0.71706 0.32317 0.56784 0.0
O78 O 0.73134 0.29895 0.40823 0.0
O79 O 0.70352 0.27262 0.61414 0.0
O80 O 0.72627 0.24125 0.47117 0.0
O81 O 0.68079 0.2909 0.45714 0.0
O82 O 0.72733 0.24285 0.55642 0.0
O83 O 0.68333 0.29262 0.5709 0.0
O84 O 0.69813 0.26772 0.4159 0.0
O85 O 0.73788 0.30304 0.60854 0.0
O86 O 0.75931 0.27278 0.46519 0.0
O87 O 0.7149 0.32136 0.45456 0.0
H88 H 0.24246 0.54647 0.02321 0.0
H89 H 0.20441 0.50115 0.07681 0.0
H90 H 0.2073 0.51106 0.916 0.0
C91 C 0.23241 0.53424 0.0151 0.0
C92 C 0.22632 0.52975 0.9644 0.0
C93 C 0.22452 0.52414 0.05587 0.0
C94 C 0.21082 0.50887 0.04563 0.0
C95 C 0.20481 0.5041 0.99502 0.0
C96 C 0.2123 0.51473 0.9548 0.0
N97 N 0.19028 0.4895 0.98406 0.0
C98 C 0.19313 0.46993 0.99669 0.0
H99 H 0.9479 0.73822 0.5311 0.0
H100 H 0.99551 0.75318 0.43491 0.0
H101 H 0.00741 0.74179 0.59343 0.0
C102 C 0.96357 0.74033 0.52597 0.0
C103 C 0.97679 0.73909 0.56811 0.0
C104 C 0.97012 0.74534 0.47782 0.0
C105 C 0.99027 0.74875 0.47158 0.0
C106 C 0.00378 0.74708 0.51264 0.0
C107 C 0.99708 0.74227 0.56113 0.0
N108 N 0.02371 0.75207 0.50457 0.0
C109 C 0.03985 0.74275 0.52707 0.0
H110 H 0.77594 0.44369 0.9985 0.0
H111 H 0.75843 0.49944 0.93663 0.0
H112 H 0.74623 0.48692 0.09209 0.0
C113 C 0.76958 0.45827 0.00363 0.0
C114 C 0.76171 0.46379 0.05094 0.0
C115 C 0.76811 0.47075 0.96176 0.0
C116 C 0.75991 0.4897 0.96863 0.0
C117 C 0.75246 0.49558 0.0162 0.0
C118 C 0.75301 0.48251 0.05658 0.0
N119 N 0.74267 0.51387 0.02314 0.0
C120 C 0.75077 0.5317 0.00949 0.0
H121 H 0.05128 0.26295 0.51707 0.0
H122 H 0.00973 0.30074 0.59449 0.0
H123 H 0.01625 0.30426 0.43239 0.0
C124 C 0.03969 0.27399 0.51622 0.0
C125 C 0.03436 0.28237 0.46952 0.0
C126 C 0.03119 0.28065 0.56193 0.0
C127 C 0.01665 0.29548 0.55989 0.0
C128 C 0.01122 0.30384 0.51316 0.0
C129 C 0.02032 0.29753 0.46825 0.0
N130 N 0.99689 0.31896 0.51129 0.0
C131 C 0.97699 0.31431 0.51197 0.0
H132 H 0.73393 0.94856 0.49994 0.0
H133 H 0.69727 0.98982 0.41821 0.0
H134 H 0.69486 0.98729 0.58154 0.0
C135 C 0.72347 0.96069 0.49975 0.0
C136 C 0.71566 0.96737 0.54612 0.0
C137 C 0.71684 0.96844 0.45311 0.0
C138 C 0.70259 0.98355 0.45364 0.0
C139 C 0.6949 0.99047 0.49996 0.0
C140 C 0.70122 0.9822 0.54601 0.0
N141 N 0.68013 0.00518 0.50006 0.0
C142 C 0.68525 0.02501 0.50254 0.0
H143 H 0.55842 0.23767 0.01776 0.0
H144 H 0.50072 0.24549 0.08021 0.0
H145 H 0.50904 0.25311 0.92033 0.0
C146 C 0.54269 0.24005 0.01226 0.0
C147 C 0.53519 0.24455 0.96348 0.0
C148 C 0.53049 0.24034 0.05482 0.0
C149 C 0.51029 0.24474 0.04778 0.0
C150 C 0.5027 0.24934 -0.00092 0.0
C151 C 0.51513 0.2493 0.95747 0.0
N152 N 0.48315 0.25621 0.99176 0.0
C153 C 0.46671 0.24619 0.00773 0.0
H154 H 0.26756 0.04934 0.48822 0.0
H155 H 0.2402 0.0034 0.57164 0.0
H156 H 0.25148 0.99415 0.41267 0.0
C157 C 0.26177 0.03447 0.48985 0.0
C158 C 0.26035 0.02271 0.44478 0.0
C159 C 0.25446 0.02786 0.53603 0.0
C160 C 0.2466 0.00869 0.53716 0.0
C161 C 0.2462 0.99635 0.49335 0.0
C162 C 0.25293 0.00337 0.44708 0.0
N163 N 0.23684 0.97776 0.49515 0.0
C164 C 0.24692 0.96019 0.48675 0.0
H165 H 0.44844 0.76296 0.99584 0.0
H166 H 0.50192 0.79115 0.95223 0.0
H167 H 0.48804 0.78839 0.11124 0.0
C168 C 0.46212 0.7705 0.00667 0.0
C169 C 0.46683 0.77453 0.0584 0.0
C170 C 0.47464 0.77652 0.96846 0.0
C171 C 0.49232 0.7864 0.98188 0.0
C172 C 0.49705 0.79079 0.03368 0.0
C173 C 0.48417 0.78508 0.07146 0.0
N174 N 0.51438 0.80132 0.04919 0.0
C175 C 0.53171 0.80083 0.02218 0.0
C176 C 0.14217 0.2095 0.14736 0.0
C177 C 0.15865 0.22174 0.14144 0.0
C178 C 0.12662 0.21581 0.17771 0.0
C179 C 0.10189 0.25952 0.22885 0.0
H180 H 0.0878 0.22672 0.34101 0.0
C181 C 0.05599 0.28907 0.39657 0.0
C182 C 0.04446 0.27579 0.4229 0.0
C183 C 0.06779 0.28228 0.35684 0.0
C184 C 0.09113 0.23591 0.30925 0.0
H185 H 0.17153 0.25037 0.16146 0.0
H186 H 0.14413 0.2615 0.21366 0.0
H187 H 0.11229 0.21507 0.28113 0.0
H188 H 0.03516 0.24535 0.42714 0.0
H189 H 0.05489 0.23353 0.35603 0.0
H190 H 0.08058 0.28027 0.25613 0.0
C191 C 0.14338 0.24699 0.19513 0.0
C192 C 0.10529 0.22924 0.27516 0.0
C193 C 0.1591 0.24055 0.16564 0.0
C194 C 0.04407 0.2558 0.40738 0.0
C195 C 0.05554 0.24906 0.36702 0.0
C196 C 0.08744 0.26607 0.2624 0.0
C197 C 0.12709 0.23462 0.20173 0.0
C198 C 0.11101 0.24111 0.23521 0.0
C199 C 0.06801 0.2621 0.34217 0.0
C200 C 0.0821 0.2545 0.30361 0.0
H201 H 0.14142 0.19493 0.1292 0.0
H202 H 0.11416 0.20605 0.18224 0.0
H203 H 0.10596 0.26885 0.19794 0.0
H204 H 0.05662 0.30453 0.40839 0.0
H205 H 0.07736 0.29276 0.3393 0.0
C206 C 0.2771 0.66216 0.69278 0.0
C207 C 0.28769 0.65732 0.64877 0.0
C208 C 0.27073 0.64739 0.72458 0.0
C209 C 0.27951 0.59538 0.75812 0.0
H210 H 0.22748 0.60012 0.81509 0.0
C211 C 0.22084 0.54829 0.8835 0.0
C212 C 0.23378 0.54167 0.92229 0.0
C213 C 0.22752 0.56102 0.84666 0.0
C214 C 0.24195 0.59842 0.79902 0.0
H215 H 0.3 0.63301 0.60406 0.0
H216 H 0.28869 0.60729 0.65925 0.0
H217 H 0.23888 0.62514 0.75798 0.0
H218 H 0.26409 0.54247 0.95133 0.0
H219 H 0.27563 0.56501 0.88785 0.0
H220 H 0.28244 0.56847 0.79861 0.0
C221 C 0.28554 0.62255 0.6695 0.0
C222 C 0.24861 0.61293 0.76685 0.0
C223 C 0.29195 0.63733 0.63773 0.0
C224 C 0.25369 0.54751 0.92232 0.0
C225 C 0.26036 0.56026 0.88557 0.0
C226 C 0.27284 0.58083 0.79026 0.0
C227 C 0.27473 0.6274 0.71311 0.0
C228 C 0.26753 0.61168 0.74635 0.0
C229 C 0.24728 0.56743 0.8478 0.0
C230 C 0.25403 0.58226 0.81138 0.0
H231 H 0.27361 0.67738 0.70266 0.0
H232 H 0.26274 0.65165 0.75838 0.0
H233 H 0.29422 0.59402 0.74327 0.0
H234 H 0.20538 0.54419 0.88259 0.0
H235 H 0.21713 0.56605 0.81763 0.0
C236 C 0.83639 0.76238 0.15594 0.0
C237 C 0.83877 0.77869 0.12466 0.0
C238 C 0.85129 0.75712 0.19086 0.0
C239 C 0.87839 0.75825 0.28439 0.0
H240 H 0.934 0.76241 0.25504 0.0
C241 C 0.93822 0.75886 0.44357 0.0
C242 C 0.95569 0.74824 0.4351 0.0
C243 C 0.92442 0.7615 0.40386 0.0
C244 C 0.91853 0.76097 0.26364 0.0
H245 H 0.85892 0.802 0.10491 0.0
H246 H 0.88473 0.79305 0.16663 0.0
H247 H 0.90918 0.7682 0.18764 0.0
H248 H 0.9725 0.73216 0.37835 0.0
H249 H 0.94822 0.73667 0.30863 0.0
H250 H 0.88766 0.75079 0.36006 0.0
C251 C 0.87145 0.78414 0.16355 0.0
C252 C 0.90432 0.76451 0.22521 0.0
C253 C 0.85659 0.78935 0.12838 0.0
C254 C 0.95919 0.7405 0.38584 0.0
C255 C 0.94532 0.74311 0.346 0.0
C256 C 0.89257 0.75469 0.32267 0.0
C257 C 0.86888 0.7681 0.19559 0.0
C258 C 0.88408 0.76337 0.23532 0.0
C259 C 0.92773 0.75354 0.35471 0.0
C260 C 0.91279 0.75625 0.31295 0.0
H261 H 0.82296 0.75368 0.15369 0.0
H262 H 0.84898 0.74446 0.21433 0.0
H263 H 0.86295 0.75745 0.29367 0.0
H264 H 0.93532 0.76537 0.48087 0.0
H265 H 0.91124 0.77 0.41158 0.0
C266 C 0.75683 0.33586 0.65909 0.0
C267 C 0.73916 0.33741 0.63 0.0
C268 C 0.76447 0.35222 0.68691 0.0
C269 C 0.75965 0.40706 0.70249 0.0
H270 H 0.77941 0.39768 0.83997 0.0
C271 C 0.75752 0.46342 0.87104 0.0
C272 C 0.7721 0.46233 0.91012 0.0
C273 C 0.75815 0.45072 0.82806 0.0
C274 C 0.77436 0.40058 0.80129 0.0
H275 H 0.71574 0.3575 0.60719 0.0
H276 H 0.72866 0.3857 0.65672 0.0
H277 H 0.77113 0.3698 0.78308 0.0
H278 H 0.80002 0.44891 0.93194 0.0
H279 H 0.80115 0.42675 0.85681 0.0
H280 H 0.76196 0.43797 0.72211 0.0
C281 C 0.73696 0.37203 0.65713 0.0
C282 C 0.76958 0.38455 0.76858 0.0
C283 C 0.72942 0.35575 0.62902 0.0
C284 C 0.78842 0.44984 0.90276 0.0
C285 C 0.78902 0.43711 0.8599 0.0
C286 C 0.76429 0.42313 0.73544 0.0
C287 C 0.75453 0.37048 0.68664 0.0
C288 C 0.76175 0.38756 0.71913 0.0
C289 C 0.77338 0.43672 0.82346 0.0
C290 C 0.77133 0.42005 0.78555 0.0
H291 H 0.76483 0.32202 0.66026 0.0
H292 H 0.77818 0.35054 0.70865 0.0
H293 H 0.75404 0.40994 0.66428 0.0
H294 H 0.74468 0.47277 0.87574 0.0
H295 H 0.74584 0.45075 0.80073 0.0
C296 C 0.66403 0.25446 0.36006 0.0
C297 C 0.66382 0.27053 0.39533 0.0
C298 C 0.64693 0.24908 0.33177 0.0
C299 C 0.60054 0.27025 0.28299 0.0
H300 H 0.58611 0.21568 0.25235 0.0
C301 C 0.53554 0.25272 0.14541 0.0
C302 C 0.53978 0.23872 0.10663 0.0
C303 C 0.54759 0.25429 0.18962 0.0
C304 C 0.58996 0.231 0.26047 0.0
H305 H 0.64519 0.29318 0.42931 0.0
H306 H 0.61552 0.28378 0.37999 0.0
H307 H 0.61391 0.22319 0.31131 0.0
H308 H 0.55866 0.21405 0.08616 0.0
H309 H 0.57994 0.2171 0.16234 0.0
H310 H 0.57725 0.27816 0.23094 0.0
C311 C 0.62896 0.27547 0.3739 0.0
C312 C 0.6059 0.23528 0.29418 0.0
C313 C 0.64599 0.28082 0.40227 0.0
C314 C 0.55521 0.2252 0.11506 0.0
C315 C 0.56732 0.22685 0.15904 0.0
C316 C 0.58472 0.26598 0.24917 0.0
C317 C 0.62927 0.25968 0.33798 0.0
C318 C 0.61152 0.25496 0.30523 0.0
C319 C 0.56418 0.24197 0.19583 0.0
C320 C 0.57938 0.2463 0.23683 0.0
H321 H 0.67745 0.24615 0.35381 0.0
H322 H 0.6477 0.23696 0.30398 0.0
H323 H 0.60467 0.28556 0.29011 0.0
H324 H 0.52379 0.26338 0.14012 0.0
H325 H 0.54446 0.26581 0.21778 0.0
C326 C 0.22976 0.16206 0.84103 0.0
C327 C 0.2222 0.15803 0.88898 0.0
C328 C 0.23554 0.1467 0.80812 0.0
C329 C 0.22906 0.09283 0.78323 0.0
H330 H 0.27097 0.10145 0.68856 0.0
C331 C 0.25586 0.03462 0.63147 0.0
C332 C 0.2535 0.04157 0.58146 0.0
C333 C 0.25413 0.04755 0.6738 0.0
C334 C 0.25934 0.09883 0.71511 0.0
H335 H 0.21526 0.13473 0.94062 0.0
H336 H 0.22598 0.10788 0.88385 0.0
H337 H 0.26449 0.12634 0.75511 0.0
H338 H 0.247 0.06769 0.53747 0.0
H339 H 0.2451 0.09015 0.61102 0.0
H340 H 0.22418 0.06514 0.74291 0.0
C341 C 0.22693 0.1229 0.871 0.0
C342 C 0.25547 0.11313 0.75291 0.0
C343 C 0.22084 0.13829 0.90366 0.0
C344 C 0.24958 0.06179 0.57505 0.0
C345 C 0.24831 0.07471 0.6172 0.0
C346 C 0.2332 0.07835 0.74593 0.0
C347 C 0.23425 0.1269 0.82263 0.0
C348 C 0.23989 0.11061 0.78652 0.0
C349 C 0.25044 0.06769 0.66683 0.0
C350 C 0.24803 0.0815 0.71081 0.0
H351 H 0.23083 0.1771 0.82837 0.0
H352 H 0.24062 0.1504 0.77078 0.0
H353 H 0.21682 0.09042 0.80795 0.0
H354 H 0.25908 0.01922 0.63797 0.0
H355 H 0.25583 0.04187 0.71192 0.0
C356 C 0.36004 0.70912 0.38575 0.0
C357 C 0.34009 0.71443 0.37869 0.0
C358 C 0.37429 0.71573 0.35276 0.0
C359 C 0.38364 0.75435 0.25978 0.0
H360 H 0.4247 0.71852 0.21473 0.0
C361 C 0.44539 0.74857 0.09436 0.0
C362 C 0.45357 0.76764 0.09831 0.0
C363 C 0.43232 0.74219 0.13063 0.0
C364 C 0.41328 0.72868 0.2268 0.0
H365 H 0.31951 0.73079 0.33089 0.0
H366 H 0.34435 0.74207 0.27297 0.0
H367 H 0.39988 0.70701 0.27245 0.0
H368 H 0.45464 0.79491 0.14375 0.0
H369 H 0.43196 0.78366 0.20773 0.0
H370 H 0.39676 0.77587 0.21303 0.0
C371 C 0.34899 0.73302 0.30456 0.0
C372 C 0.39918 0.72215 0.26029 0.0
C373 C 0.33473 0.72642 0.33758 0.0
C374 C 0.44865 0.7801 0.13986 0.0
C375 C 0.43552 0.77372 0.17617 0.0
C376 C 0.39776 0.76089 0.22629 0.0
C377 C 0.36894 0.7278 0.31188 0.0
C378 C 0.38412 0.73487 0.27694 0.0
C379 C 0.42712 0.75473 0.17177 0.0
C380 C 0.41266 0.74809 0.20916 0.0
H381 H 0.36476 0.69999 0.41712 0.0
H382 H 0.38956 0.71164 0.35983 0.0
H383 H 0.37238 0.7646 0.2724 0.0
H384 H 0.44908 0.73854 0.06311 0.0
H385 H 0.42597 0.72756 0.12583 0.0
C386 C 0.78784 0.85709 0.85899 0.0
C387 C 0.77603 0.84054 0.86747 0.0
C388 C 0.78063 0.8724 0.82898 0.0
C389 C 0.74046 0.88327 0.73336 0.0
H390 H 0.75782 0.93738 0.75813 0.0
C391 C 0.70734 0.94771 0.62163 0.0
C392 C 0.72156 0.95744 0.59363 0.0
C393 C 0.7132 0.93538 0.66113 0.0
C394 C 0.75283 0.92232 0.75108 0.0
H395 H 0.74717 0.82737 0.85316 0.0
H396 H 0.73425 0.85436 0.80317 0.0
H397 H 0.76938 0.91164 0.81533 0.0
H398 H 0.75281 0.96298 0.58641 0.0
H399 H 0.76306 0.94179 0.65675 0.0
H400 H 0.72358 0.89416 0.6698 0.0
C401 C 0.74938 0.85527 0.81752 0.0
C402 C 0.75957 0.90752 0.78344 0.0
C403 C 0.75674 0.83979 0.84645 0.0
C404 C 0.74163 0.95562 0.60768 0.0
C405 C 0.74746 0.94359 0.64785 0.0
C406 C 0.73344 0.89812 0.70181 0.0
C407 C 0.76127 0.8717 0.80777 0.0
C408 C 0.75362 0.88773 0.7747 0.0
C409 C 0.73332 0.93291 0.6738 0.0
C410 C 0.73969 0.91771 0.71009 0.0
H411 H 0.8028 0.85801 0.8747 0.0
H412 H 0.79039 0.88459 0.82173 0.0
H413 H 0.73589 0.86823 0.72438 0.0
H414 H 0.6918 0.94878 0.61108 0.0
H415 H 0.70206 0.92727 0.68076 0.0
C416 C 0.84366 0.75994 0.84669 0.0
C417 C 0.84443 0.77596 0.88212 0.0
C418 C 0.86071 0.75362 0.82208 0.0
C419 C 0.90879 0.77199 0.78363 0.0
H420 H 0.92076 0.71661 0.75863 0.0
C421 C 0.97346 0.75098 0.65883 0.0
C422 C 0.96851 0.73714 0.61958 0.0
C423 C 0.96162 0.75306 0.70154 0.0
C424 C 0.91762 0.73214 0.76522 0.0
H425 H 0.86394 0.79765 0.9199 0.0
H426 H 0.89347 0.78667 0.8769 0.0
H427 H 0.89261 0.72589 0.81048 0.0
H428 H 0.94879 0.71304 0.59712 0.0
H429 H 0.92792 0.7169 0.67057 0.0
H430 H 0.93308 0.7784 0.73687 0.0
C431 C 0.87967 0.77908 0.86793 0.0
C432 C 0.90147 0.73744 0.79484 0.0
C433 C 0.8627 0.78534 0.89267 0.0
C434 C 0.95279 0.72403 0.6265 0.0
C435 C 0.94088 0.72618 0.66891 0.0
C436 C 0.9248 0.76672 0.75381 0.0
C437 C 0.87887 0.76324 0.83214 0.0
C438 C 0.89672 0.75743 0.80371 0.0
C439 C 0.94455 0.7414 0.70564 0.0
C440 C 0.92927 0.74673 0.74347 0.0
H441 H 0.82988 0.75231 0.83778 0.0
H442 H 0.85959 0.74149 0.79426 0.0
H443 H 0.90538 0.78752 0.7892 0.0
H444 H 0.98549 0.76129 0.65463 0.0
H445 H 0.96518 0.76458 0.72983 0.0
C446 C 0.73846 0.32779 0.33443 0.0
C447 C 0.73246 0.33236 0.38425 0.0
C448 C 0.74404 0.34278 0.30231 0.0
C449 C 0.73899 0.39681 0.28612 0.0
H450 H 0.77805 0.38714 0.18299 0.0
C451 C 0.76352 0.45577 0.14439 0.0
C452 C 0.76122 0.44944 0.09287 0.0
C453 C 0.7622 0.44227 0.18355 0.0
C454 C 0.76718 0.39003 0.2118 0.0
H455 H 0.72832 0.35614 0.4402 0.0
H456 H 0.73871 0.38221 0.38486 0.0
H457 H 0.77209 0.3621 0.24584 0.0
H458 H 0.75543 0.42383 0.04263 0.0
H459 H 0.754 0.40035 0.11077 0.0
H460 H 0.73431 0.42486 0.25194 0.0
C461 C 0.7385 0.36714 0.36989 0.0
C462 C 0.76363 0.37565 0.24755 0.0
C463 C 0.73262 0.35218 0.40173 0.0
C464 C 0.75785 0.42924 0.0816 0.0
C465 C 0.75691 0.41575 0.12063 0.0
C466 C 0.74279 0.4113 0.25084 0.0
C467 C 0.74407 0.36267 0.31954 0.0
C468 C 0.74917 0.37867 0.28448 0.0
C469 C 0.7589 0.42216 0.17189 0.0
C470 C 0.75661 0.40785 0.21277 0.0
H471 H 0.73838 0.31266 0.31978 0.0
H472 H 0.74785 0.33875 0.26353 0.0
H473 H 0.72755 0.39958 0.31341 0.0
H474 H 0.76636 0.47115 0.1545 0.0
H475 H 0.76383 0.4475 0.22293 0.0
C476 C 0.15831 0.23531 0.85665 0.0
C477 C 0.15576 0.22245 0.89711 0.0
C478 C 0.14208 0.24186 0.82779 0.0
C479 C 0.09023 0.22978 0.79239 0.0
H480 H 0.09079 0.28299 0.74172 0.0
C481 C 0.04299 0.28648 0.6529 0.0
C482 C 0.03898 0.27327 0.6115 0.0
C483 C 0.05366 0.28026 0.69601 0.0
C484 C 0.09011 0.2682 0.75623 0.0
H485 H 0.13398 0.20652 0.93908 0.0
H486 H 0.10562 0.2182 0.88903 0.0
H487 H 0.11661 0.27268 0.80131 0.0
H488 H 0.04143 0.24274 0.58504 0.0
H489 H 0.0606 0.23209 0.65909 0.0
H490 H 0.0636 0.22538 0.74747 0.0
C491 C 0.12025 0.22298 0.87922 0.0
C492 C 0.10516 0.26218 0.78982 0.0
C493 C 0.13652 0.21633 0.90802 0.0
C494 C 0.04462 0.25339 0.61584 0.0
C495 C 0.05542 0.24722 0.6587 0.0
C496 C 0.07508 0.23585 0.75896 0.0
C497 C 0.12284 0.23585 0.83879 0.0
C498 C 0.10569 0.24275 0.8073 0.0
C499 C 0.06068 0.26074 0.69855 0.0
C500 C 0.07508 0.255 0.73952 0.0
H501 H 0.17289 0.24026 0.84688 0.0
H502 H 0.14469 0.25143 0.79626 0.0
H503 H 0.0902 0.21469 0.80497 0.0
H504 H 0.03891 0.3019 0.65085 0.0
H505 H 0.05707 0.29098 0.7265 0.0
C506 C 0.25634 0.64671 0.39039 0.0
C507 C 0.27642 0.64803 0.40483 0.0
C508 C 0.24913 0.63035 0.36194 0.0
C509 C 0.26292 0.57956 0.31385 0.0
H510 H 0.22294 0.59051 0.20957 0.0
C511 C 0.24883 0.53441 0.12519 0.0
C512 C 0.22912 0.53143 0.10865 0.0
C513 C 0.25323 0.54527 0.17027 0.0
C514 C 0.23387 0.58714 0.23906 0.0
H515 H 0.3047 0.63317 0.40139 0.0
H516 H 0.29243 0.60512 0.34961 0.0
H517 H 0.23337 0.6166 0.26986 0.0
H518 H 0.19856 0.53649 0.12719 0.0
H519 H 0.20627 0.55579 0.20582 0.0
H520 H 0.26415 0.55031 0.28009 0.0
C521 C 0.282 0.61632 0.36159 0.0
C522 C 0.23985 0.60209 0.27389 0.0
C523 C 0.28911 0.6325 0.39101 0.0
C524 C 0.21386 0.53844 0.13946 0.0
C525 C 0.21826 0.54958 0.18412 0.0
C526 C 0.25716 0.56468 0.27828 0.0
C527 C 0.26193 0.6151 0.34615 0.0
C528 C 0.25462 0.59862 0.31151 0.0
C529 C 0.23799 0.5536 0.19905 0.0
C530 C 0.2427 0.56841 0.24032 0.0
H531 H 0.24614 0.65833 0.40117 0.0
H532 H 0.23351 0.62977 0.35208 0.0
H533 H 0.27403 0.57614 0.3428 0.0
H534 H 0.26081 0.52919 0.10187 0.0
H535 H 0.26855 0.54826 0.18074 0.0
C536 C 0.3711 0.70999 0.62242 0.0
C537 C 0.3538 0.72151 0.62217 0.0
C538 C 0.38808 0.7165 0.64957 0.0
C539 C 0.4121 0.76081 0.70921 0.0
H540 H 0.43539 0.72398 0.80419 0.0
C541 C 0.45344 0.78528 0.894 0.0
C542 C 0.46817 0.77315 0.91482 0.0
C543 C 0.44362 0.77974 0.84825 0.0
C544 C 0.42946 0.73437 0.77707 0.0
H545 H 0.34106 0.74922 0.64887 0.0
H546 H 0.37065 0.76052 0.69601 0.0
H547 H 0.41 0.71259 0.74266 0.0
H548 H 0.48498 0.7463 0.90395 0.0
H549 H 0.46809 0.73666 0.82291 0.0
H550 H 0.43122 0.78272 0.74444 0.0
C551 C 0.37109 0.74649 0.67511 0.0
C552 C 0.41482 0.72782 0.74189 0.0
C553 C 0.35407 0.73991 0.64845 0.0
C554 C 0.47379 0.75595 0.88797 0.0
C555 C 0.46397 0.75037 0.84204 0.0
C556 C 0.42684 0.76733 0.74416 0.0
C557 C 0.3882 0.73475 0.67649 0.0
C558 C 0.40559 0.7411 0.70861 0.0
C559 C 0.44829 0.76187 0.82258 0.0
C560 C 0.43528 0.75433 0.77957 0.0
H561 H 0.37142 0.69575 0.60253 0.0
H562 H 0.40109 0.7072 0.64975 0.0
H563 H 0.40546 0.7713 0.68341 0.0
H564 H 0.44871 0.79844 0.91477 0.0
H565 H 0.43148 0.78883 0.83496 0.0
C566 C 0.77829 0.86261 0.10276 0.0
C567 C 0.77293 0.84308 0.11307 0.0
C568 C 0.77153 0.87843 0.13297 0.0
C569 C 0.73349 0.8919 0.22717 0.0
H570 H 0.77014 0.93387 0.26745 0.0
C571 C 0.7434 0.95333 0.39977 0.0
C572 C 0.72367 0.9594 0.40434 0.0
C573 C 0.74916 0.94192 0.35752 0.0
C574 C 0.75972 0.92226 0.2566 0.0
H575 H 0.75615 0.82497 0.16336 0.0
H576 H 0.74474 0.85244 0.21646 0.0
H577 H 0.78043 0.9077 0.20822 0.0
H578 H 0.69477 0.95923 0.36642 0.0
H579 H 0.70496 0.93985 0.29186 0.0
H580 H 0.71313 0.90583 0.27748 0.0
C581 C 0.75385 0.85559 0.18441 0.0
C582 C 0.76555 0.90736 0.22217 0.0
C583 C 0.76053 0.83979 0.15411 0.0
C584 C 0.7101 0.95488 0.36405 0.0
C585 C 0.71589 0.94353 0.32161 0.0
C586 C 0.7277 0.90673 0.26175 0.0
C587 C 0.75929 0.87511 0.17431 0.0
C588 C 0.75261 0.8918 0.20773 0.0
C589 C 0.73534 0.93639 0.31859 0.0
C590 C 0.74085 0.92193 0.27756 0.0
H591 H 0.78771 0.86572 0.07127 0.0
H592 H 0.7758 0.89328 0.12371 0.0
H593 H 0.72303 0.88033 0.21622 0.0
H594 H 0.75428 0.95683 0.4298 0.0
H595 H 0.76423 0.93662 0.35675 0.0
C596 C 0.67218 0.26003 0.67418 0.0
C597 C 0.67029 0.27547 0.63958 0.0
C598 C 0.65665 0.25548 0.70579 0.0
C599 C 0.61358 0.27792 0.7649 0.0
H600 H 0.597 0.22396 0.78506 0.0
C601 C 0.54678 0.26148 0.88582 0.0
C602 C 0.54873 0.24596 0.92012 0.0
C603 C 0.56052 0.26389 0.84788 0.0
C604 C 0.60158 0.23909 0.78019 0.0
H605 H 0.65046 0.29807 0.61079 0.0
H606 H 0.62353 0.29017 0.66613 0.0
H607 H 0.62358 0.23049 0.72667 0.0
H608 H 0.56619 0.22026 0.93978 0.0
H609 H 0.5906 0.2249 0.87475 0.0
H610 H 0.5921 0.28661 0.8191 0.0
C611 C 0.63705 0.28167 0.66888 0.0
C612 C 0.61677 0.24281 0.74675 0.0
C613 C 0.65248 0.28612 0.63705 0.0
C614 C 0.56441 0.23254 0.91445 0.0
C615 C 0.57828 0.23505 0.87674 0.0
C616 C 0.59855 0.27421 0.79855 0.0
C617 C 0.63901 0.26638 0.70372 0.0
C618 C 0.62288 0.26227 0.73879 0.0
C619 C 0.57669 0.25098 0.84361 0.0
C620 C 0.59234 0.25477 0.80659 0.0
H621 H 0.68565 0.25146 0.67695 0.0
H622 H 0.65859 0.24371 0.73262 0.0
H623 H 0.61822 0.29305 0.76011 0.0
H624 H 0.53502 0.27222 0.88931 0.0
H625 H 0.55865 0.2761 0.82239 0.0
C626 C 0.24413 0.15906 0.16428 0.0
C627 C 0.22668 0.15714 0.13414 0.0
C628 C 0.2518 0.14292 0.19048 0.0
C629 C 0.24804 0.08807 0.19792 0.0
H630 H 0.26755 0.09784 0.33692 0.0
C631 C 0.24875 0.03075 0.35629 0.0
C632 C 0.26348 0.03215 0.39516 0.0
C633 C 0.24855 0.04385 0.31601 0.0
C634 C 0.26255 0.09484 0.29779 0.0
H635 H 0.20364 0.13667 0.10799 0.0
H636 H 0.21662 0.10882 0.15474 0.0
H637 H 0.25837 0.12554 0.28446 0.0
H638 H 0.2908 0.0468 0.41905 0.0
H639 H 0.29045 0.06969 0.34867 0.0
H640 H 0.25141 0.05723 0.21252 0.0
C641 C 0.22471 0.12263 0.1572 0.0
C642 C 0.25726 0.11077 0.26764 0.0
C643 C 0.21714 0.13869 0.13071 0.0
C644 C 0.27908 0.04559 0.3901 0.0
C645 C 0.27884 0.05873 0.34994 0.0
C646 C 0.25322 0.0721 0.22829 0.0
C647 C 0.24212 0.12452 0.18751 0.0
C648 C 0.24956 0.1076 0.21764 0.0
C649 C 0.26307 0.05862 0.31388 0.0
C650 C 0.26021 0.07532 0.27887 0.0
H651 H 0.252 0.17299 0.16734 0.0
H652 H 0.26538 0.14487 0.2129 0.0
H653 H 0.24256 0.08508 0.15922 0.0
H654 H 0.23644 0.02069 0.35925 0.0
H655 H 0.23615 0.04341 0.28895 0.0
C656 C 0.21328 0.29247 0.06923 0.0
C657 C 0.21424 0.28152 0.02284 0.0
C658 C 0.21071 0.31299 0.0694 0.0
C659 C 0.19252 0.35297 0.98741 0.0
H660 H 0.22321 0.38738 0.08022 0.0
C661 C 0.19656 0.43657 0.95964 0.0
C662 C 0.1957 0.44904 0.00304 0.0
C663 C 0.19852 0.4162 0.96468 0.0
C664 C 0.21434 0.37795 0.05452 0.0
H665 H 0.2134 0.28377 0.94023 0.0
H666 H 0.20909 0.31937 0.94069 0.0
H667 H 0.22715 0.35156 0.08436 0.0
H668 H 0.19633 0.45055 0.08564 0.0
H669 H 0.19969 0.41466 0.09487 0.0
H670 H 0.17979 0.37924 0.95732 0.0
C671 C 0.21006 0.31208 0.97694 0.0
C672 C 0.2166 0.35744 0.05688 0.0
C673 C 0.21267 0.29163 0.97673 0.0
C674 C 0.19701 0.44104 0.05173 0.0
C675 C 0.199 0.42059 0.05689 0.0
C676 C 0.19026 0.37341 0.98508 0.0
C677 C 0.20895 0.323 0.02321 0.0
C678 C 0.20589 0.34474 0.02286 0.0
C679 C 0.19963 0.40793 0.01333 0.0
C680 C 0.20133 0.38617 0.01811 0.0
H681 H 0.2144 0.28519 0.10549 0.0
H682 H 0.20976 0.32096 0.10569 0.0
H683 H 0.18373 0.34358 0.9614 0.0
H684 H 0.19564 0.44258 0.92173 0.0
H685 H 0.19931 0.40693 0.93039 0.0
C686 C 0.2111 0.70644 0.49889 0.0
C687 C 0.22422 0.71226 0.53913 0.0
C688 C 0.19072 0.70653 0.5058 0.0
C689 C 0.15309 0.73119 0.58138 0.0
H690 H 0.11883 0.68962 0.52538 0.0
C691 C 0.06859 0.73928 0.58629 0.0
C692 C 0.05865 0.73411 0.54024 0.0
C693 C 0.08825 0.73348 0.59454 0.0
C694 C 0.12817 0.7014 0.54106 0.0
H695 H 0.22613 0.72238 0.61858 0.0
H696 H 0.19054 0.72269 0.63029 0.0
H697 H 0.1546 0.68566 0.52265 0.0
H698 H 0.0607 0.71859 0.46732 0.0
H699 H 0.09499 0.70872 0.48091 0.0
H700 H 0.12684 0.74738 0.59773 0.0
C701 C 0.19608 0.7181 0.59343 0.0
C702 C 0.14866 0.6991 0.53953 0.0
C703 C 0.21647 0.71783 0.5867 0.0
C704 C 0.06815 0.72248 0.50341 0.0
C705 C 0.08777 0.71678 0.5114 0.0
C706 C 0.13262 0.73358 0.58249 0.0
C707 C 0.18299 0.71259 0.55294 0.0
C708 C 0.16132 0.71413 0.55885 0.0
C709 C 0.09825 0.72261 0.55653 0.0
C710 C 0.11989 0.71889 0.56143 0.0
H711 H 0.21654 0.70199 0.46182 0.0
H712 H 0.18097 0.7024 0.47374 0.0
H713 H 0.16249 0.74312 0.59612 0.0
H714 H 0.06144 0.7484 0.61497 0.0
H715 H 0.09577 0.73799 0.63003 0.0
C716 C 0.77809 0.70662 0.94353 0.0
C717 C 0.78158 0.71789 0.98885 0.0
C718 C 0.77722 0.68601 0.94447 0.0
C719 C 0.76826 0.64587 0.03372 0.0
H720 H 0.7866 0.61208 0.92277 0.0
C721 C 0.76666 0.56154 0.04577 0.0
C722 C 0.75819 0.55136 0.00335 0.0
C723 C 0.77178 0.58141 0.04256 0.0
C724 C 0.78135 0.62137 0.95388 0.0
H725 H 0.78782 0.71623 0.07035 0.0
H726 H 0.78679 0.68034 0.07177 0.0
H727 H 0.79171 0.6478 0.92048 0.0
H728 H 0.74879 0.55326 0.92405 0.0
H729 H 0.75784 0.58825 0.91805 0.0
H730 H 0.75795 0.61952 0.06714 0.0
C731 C 0.78416 0.68743 0.03567 0.0
C732 C 0.78422 0.64182 0.95257 0.0
C733 C 0.78485 0.70803 0.03482 0.0
C734 C 0.75547 0.56096 0.95704 0.0
C735 C 0.76068 0.58088 0.95368 0.0
C736 C 0.76555 0.62548 0.0352 0.0
C737 C 0.77997 0.67616 0.99068 0.0
C738 C 0.77764 0.65433 0.99244 0.0
C739 C 0.76848 0.59141 0.9968 0.0
C740 C 0.772 0.61301 0.99528 0.0
H741 H 0.77545 0.71373 0.90745 0.0
H742 H 0.77374 0.67785 0.90918 0.0
H743 H 0.76258 0.65504 0.06452 0.0
H744 H 0.7688 0.55429 0.08186 0.0
H745 H 0.778 0.58907 0.07619 0.0
C746 C 0.80257 0.27602 0.55141 0.0
C747 C 0.79111 0.27516 0.50572 0.0
C748 C 0.82296 0.27888 0.55055 0.0
C749 C 0.86143 0.29918 0.47091 0.0
H750 H 0.89708 0.27181 0.56333 0.0
C751 C 0.94611 0.30724 0.46355 0.0
C752 C 0.95639 0.30917 0.51054 0.0
C753 C 0.92609 0.30224 0.46184 0.0
C754 C 0.88729 0.27971 0.53763 0.0
H755 H 0.79233 0.2762 0.4231 0.0
H756 H 0.82798 0.28101 0.42167 0.0
H757 H 0.8619 0.26408 0.56172 0.0
H758 H 0.95442 0.30744 0.59251 0.0
H759 H 0.91925 0.29887 0.58992 0.0
H760 H 0.88678 0.31493 0.44712 0.0
C761 C 0.82107 0.27972 0.45822 0.0
C762 C 0.86714 0.27526 0.53666 0.0
C763 C 0.80065 0.27683 0.45903 0.0
C764 C 0.94661 0.30599 0.5559 0.0
C765 C 0.92658 0.30097 0.55429 0.0
C766 C 0.88158 0.30362 0.47188 0.0
C767 C 0.83243 0.28096 0.50399 0.0
C768 C 0.85397 0.28502 0.50349 0.0
C769 C 0.91607 0.29908 0.50721 0.0
C770 C 0.89473 0.29402 0.50545 0.0
H771 H 0.79577 0.27483 0.58813 0.0
H772 H 0.83124 0.28 0.58652 0.0
H773 H 0.85164 0.3072 0.44551 0.0
H774 H 0.95355 0.30957 0.42815 0.0
H775 H 0.9185 0.30065 0.42497 0.0
C776 C 0.72152 0.20015 0.46901 0.0
C777 C 0.72298 0.21139 0.51502 0.0
C778 C 0.71847 0.17976 0.46945 0.0
C779 C 0.69938 0.14054 0.54904 0.0
H780 H 0.72676 0.10585 0.45429 0.0
C781 C 0.69258 0.0555 0.55281 0.0
C782 C 0.69048 0.0456 0.5053 0.0
C783 C 0.69738 0.07559 0.55549 0.0
C784 C 0.71886 0.11536 0.48066 0.0
H785 H 0.7225 0.20982 0.59767 0.0
H786 H 0.71731 0.17419 0.59826 0.0
H787 H 0.73377 0.14118 0.45658 0.0
H788 H 0.69171 0.04833 0.42344 0.0
H789 H 0.69994 0.08357 0.42774 0.0
H790 H 0.68435 0.11473 0.57282 0.0
C791 C 0.71834 0.18125 0.56187 0.0
C792 C 0.72289 0.1356 0.48199 0.0
C793 C 0.72143 0.20167 0.56148 0.0
C794 C 0.69333 0.05583 0.46046 0.0
C795 C 0.69815 0.07591 0.46303 0.0
C796 C 0.69535 0.12028 0.5477 0.0
C797 C 0.71679 0.17008 0.51583 0.0
C798 C 0.71309 0.14845 0.51593 0.0
C799 C 0.70018 0.08604 0.5106 0.0
C800 C 0.70494 0.10748 0.51323 0.0
H801 H 0.72258 0.20709 0.43249 0.0
H802 H 0.71707 0.17164 0.43327 0.0
H803 H 0.69139 0.15007 0.57514 0.0
H804 H 0.69047 0.04772 0.58782 0.0
H805 H 0.69907 0.08289 0.59271 0.0
C806 C 0.29129 0.21228 0.97472 0.0
C807 C 0.28126 0.21774 0.01917 0.0
C808 C 0.31192 0.21194 0.97497 0.0
C809 C 0.3566 0.21286 0.06176 0.0
H810 H 0.38169 0.23313 0.94289 0.0
C811 C 0.43723 0.24165 0.05909 0.0
C812 C 0.44781 0.23725 0.01507 0.0
C813 C 0.41748 0.2358 0.06171 0.0
C814 C 0.37493 0.22714 0.97608 0.0
H815 H 0.28509 0.22694 0.09893 0.0
H816 H 0.32096 0.22694 0.09892 0.0
H817 H 0.34598 0.22989 0.94271 0.0
H818 H 0.44686 0.22287 0.94024 0.0
H819 H 0.41235 0.21254 0.94468 0.0
H820 H 0.38573 0.21091 0.09566 0.0
C821 C 0.31295 0.22245 0.06413 0.0
C822 C 0.35442 0.22524 0.97597 0.0
C823 C 0.29233 0.22259 0.06403 0.0
C824 C 0.43887 0.22625 0.97467 0.0
C825 C 0.41915 0.2205 0.97709 0.0
C826 C 0.37714 0.21496 0.06202 0.0
C827 C 0.32302 0.21725 0.01951 0.0
C828 C 0.34496 0.2182 0.01892 0.0
C829 C 0.40809 0.22569 0.02003 0.0
C830 C 0.38649 0.22221 0.01925 0.0
H831 H 0.28322 0.20823 0.93966 0.0
H832 H 0.31916 0.2075 0.94015 0.0
H833 H 0.34984 0.20709 0.09519 0.0
H834 H 0.44393 0.25035 0.09037 0.0
H835 H 0.40927 0.24013 0.0951 0.0
C836 C 0.2887 0.789 0.54506 0.0
C837 C 0.28685 0.77614 0.50204 0.0
C838 C 0.2876 0.80947 0.53971 0.0
C839 C 0.26689 0.84635 0.45296 0.0
H840 H 0.29891 0.88319 0.53563 0.0
C841 C 0.25661 0.93043 0.43706 0.0
C842 C 0.25594 0.94096 0.48374 0.0
C843 C 0.26334 0.91088 0.43557 0.0
C844 C 0.28979 0.87309 0.51243 0.0
H845 H 0.28316 0.77489 0.41933 0.0
H846 H 0.28137 0.8105 0.41017 0.0
H847 H 0.30518 0.84776 0.54042 0.0
H848 H 0.26197 0.94003 0.56514 0.0
H849 H 0.27352 0.90584 0.56298 0.0
H850 H 0.25116 0.87152 0.4259 0.0
C851 C 0.28337 0.80473 0.44812 0.0
C852 C 0.29338 0.8528 0.5152 0.0
C853 C 0.28448 0.78429 0.45342 0.0
C854 C 0.26256 0.93209 0.52868 0.0
C855 C 0.26925 0.91257 0.52731 0.0
C856 C 0.26328 0.8666 0.45026 0.0
C857 C 0.28462 0.81755 0.49124 0.0
C858 C 0.28181 0.83918 0.48595 0.0
C859 C 0.26939 0.90159 0.48086 0.0
C860 C 0.27451 0.88022 0.48044 0.0
H861 H 0.29057 0.78328 0.58309 0.0
H862 H 0.28844 0.81893 0.57377 0.0
H863 H 0.2575 0.83626 0.43048 0.0
H864 H 0.25148 0.93712 0.40201 0.0
H865 H 0.26349 0.90293 0.3991 0.0
C866 C 0.70732 0.78365 0.92989 0.0
C867 C 0.71752 0.78418 0.97751 0.0
C868 C 0.68683 0.78639 0.92698 0.0
C869 C 0.64586 0.80774 0.00017 0.0
H870 H 0.61242 0.77312 0.91472 0.0
C871 C 0.56171 0.81743 0.99493 0.0
C872 C 0.55108 0.8 0.00114 0.0
C873 C 0.58163 0.81658 0.98255 0.0
C874 C 0.62158 0.78292 0.93868 0.0
H875 H 0.714 0.78788 0.05943 0.0
H876 H 0.67848 0.79251 0.05423 0.0
H877 H 0.64831 0.76935 0.9134 0.0
H878 H 0.55218 0.76808 0.99796 0.0
H879 H 0.58708 0.76644 0.97661 0.0
H880 H 0.61927 0.82085 0.02693 0.0
C881 C 0.68633 0.79021 0.0191 0.0
C882 C 0.64212 0.78087 0.9376 0.0
C883 C 0.70672 0.7874 0.02206 0.0
C884 C 0.5602 0.78169 0.99276 0.0
C885 C 0.58012 0.78079 0.9804 0.0
C886 C 0.62538 0.80982 0.00112 0.0
C887 C 0.67615 0.78985 0.97158 0.0
C888 C 0.65446 0.79302 0.96911 0.0
C889 C 0.59121 0.79824 0.97652 0.0
C890 C 0.61297 0.79724 0.97103 0.0
H891 H 0.71514 0.78123 0.89479 0.0
H892 H 0.67939 0.78613 0.8898 0.0
H893 H 0.65498 0.8175 0.02436 0.0
H894 H 0.55484 0.8317 0.00156 0.0
H895 H 0.58969 0.83027 0.97915 0.0
loop_
_geom_bond_atom_site_label_1
_geom_bond_atom_site_label_2
_geom_bond_distance
_geom_bond_site_symmetry_2
_ccdc_geom_bond_type
Sc0 O3 2.025 . S
Sc0 O10 2.105 . S
Sc0 O13 2.105 . S
Sc0 O16 2.105 . S
Sc0 O19 2.105 . S
Sc1 O3 2.025 . S
Sc1 O11 2.105 . S
Sc1 O15 2.105 1_554 S
Sc1 O17 2.105 . S
Sc1 O21 2.105 1_554 S
Sc2 O3 2.025 1_556 S
Sc2 O12 2.105 . S
Sc2 O14 2.105 . S
Sc2 O18 2.105 . S
Sc2 O20 2.105 . S
O3 Sc0 2.025 . S
O3 Sc1 2.025 . S
O3 Sc2 2.025 1_554 S
C4 O10 1.268 . S
C4 O20 1.268 1_554 S
C5 O11 1.268 . S
C5 O19 1.268 . S
C6 O12 1.268 . S
C6 O21 1.268 . S
C7 O13 1.268 . S
C7 O17 1.268 . S
C8 O14 1.268 1_554 S
C8 O16 1.268 . S
C9 O15 1.268 . S
C9 O18 1.268 . S
O10 Sc0 2.105 . S
O10 C4 1.268 . S
O11 Sc1 2.105 . S
O11 C5 1.268 . S
O12 Sc2 2.105 . S
O12 C6 1.268 . S
O13 Sc0 2.105 . S
O13 C7 1.268 . S
O14 Sc2 2.105 . S
O14 C8 1.268 1_556 S
O15 Sc1 2.105 1_556 S
O15 C9 1.268 . S
O16 Sc0 2.105 . S
O16 C8 1.268 . S
O17 Sc1 2.105 . S
O17 C7 1.268 . S
O18 Sc2 2.105 . S
O18 C9 1.268 . S
O19 Sc0 2.105 . S
O19 C5 1.268 . S
O20 Sc2 2.105 . S
O20 C4 1.268 1_556 S
O21 Sc1 2.105 1_556 S
O21 C6 1.268 . S
Sc22 O25 2.025 . S
Sc22 O32 2.105 . S
Sc22 O35 2.105 . S
Sc22 O38 2.105 . S
Sc22 O41 2.105 . S
Sc23 O25 2.025 . S
Sc23 O33 2.105 . S
Sc23 O37 2.105 . S
Sc23 O39 2.105 . S
Sc23 O43 2.105 . S
Sc24 O25 2.025 . S
Sc24 O34 2.105 . S
Sc24 O36 2.105 . S
Sc24 O40 2.105 . S
Sc24 O42 2.105 . S
O25 Sc22 2.025 . S
O25 Sc23 2.025 . S
O25 Sc24 2.025 . S
C26 O32 1.268 . S
C26 O42 1.268 . S
C27 O33 1.268 . S
C27 O41 1.268 . S
C28 O34 1.268 . S
C28 O43 1.268 . S
C29 O35 1.268 . S
C29 O39 1.268 . S
C30 O36 1.268 . S
C30 O38 1.268 . S
C31 O37 1.268 . S
C31 O40 1.268 . S
O32 Sc22 2.105 . S
O32 C26 1.268 . S
O33 Sc23 2.105 . S
O33 C27 1.268 . S
O34 Sc24 2.105 . S
O34 C28 1.268 . S
O35 Sc22 2.105 . S
O35 C29 1.268 . S
O36 Sc24 2.105 . S
O36 C30 1.268 . S
O37 Sc23 2.105 . S
O37 C31 1.268 . S
O38 Sc22 2.105 . S
O38 C30 1.268 . S
O39 Sc23 2.105 . S
O39 C29 1.268 . S
O40 Sc24 2.105 . S
O40 C31 1.268 . S
O41 Sc22 2.105 . S
O41 C27 1.268 . S
O42 Sc24 2.105 . S
O42 C26 1.268 . S
O43 Sc23 2.105 . S
O43 C28 1.268 . S
Sc44 O47 2.025 1_556 S
Sc44 O54 2.105 . S
Sc44 O57 2.105 . S
Sc44 O60 2.105 . S
Sc44 O63 2.105 . S
Sc45 O47 2.025 . S
Sc45 O55 2.105 1_554 S
Sc45 O59 2.105 . S
Sc45 O61 2.105 1_554 S
Sc45 O65 2.105 . S
Sc46 O47 2.025 . S
Sc46 O56 2.105 . S
Sc46 O58 2.105 . S
Sc46 O62 2.105 . S
Sc46 O64 2.105 . S
O47 Sc44 2.025 1_554 S
O47 Sc45 2.025 . S
O47 Sc46 2.025 . S
C48 O54 1.268 1_554 S
C48 O64 1.268 . S
C49 O55 1.268 . S
C49 O63 1.268 . S
C50 O56 1.268 . S
C50 O65 1.268 . S
C51 O57 1.268 . S
C51 O61 1.268 . S
C52 O58 1.268 . S
C52 O60 1.268 1_554 S
C53 O59 1.268 . S
C53 O62 1.268 . S
O54 Sc44 2.105 . S
O54 C48 1.268 1_556 S
O55 Sc45 2.105 1_556 S
O55 C49 1.268 . S
O56 Sc46 2.105 . S
O56 C50 1.268 . S
O57 Sc44 2.105 . S
O57 C51 1.268 . S
O58 Sc46 2.105 . S
O58 C52 1.268 . S
O59 Sc45 2.105 . S
O59 C53 1.268 . S
O60 Sc44 2.105 . S
O60 C52 1.268 1_556 S
O61 Sc45 2.105 1_556 S
O61 C51 1.268 . S
O62 Sc46 2.105 . S
O62 C53 1.268 . S
O63 Sc44 2.105 . S
O63 C49 1.268 . S
O64 Sc46 2.105 . S
O64 C48 1.268 . S
O65 Sc45 2.105 . S
O65 C50 1.268 . S
Sc66 O69 2.025 . S
Sc66 O76 2.105 . S
Sc66 O79 2.105 . S
Sc66 O82 2.105 . S
Sc66 O85 2.105 . S
Sc67 O69 2.025 . S
Sc67 O77 2.105 . S
Sc67 O81 2.105 . S
Sc67 O83 2.105 . S
Sc67 O87 2.105 . S
Sc68 O69 2.025 . S
Sc68 O78 2.105 . S
Sc68 O80 2.105 . S
Sc68 O84 2.105 . S
Sc68 O86 2.105 . S
O69 Sc66 2.025 . S
O69 Sc67 2.025 . S
O69 Sc68 2.025 . S
C70 O76 1.268 . S
C70 O86 1.268 . S
C71 O77 1.268 . S
C71 O85 1.268 . S
C72 O78 1.268 . S
C72 O87 1.268 . S
C73 O79 1.268 . S
C73 O83 1.268 . S
C74 O80 1.268 . S
C74 O82 1.268 . S
C75 O81 1.268 . S
C75 O84 1.268 . S
O76 Sc66 2.105 . S
O76 C70 1.268 . S
O77 Sc67 2.105 . S
O77 C71 1.268 . S
O78 Sc68 2.105 . S
O78 C72 1.268 . S
O79 Sc66 2.105 . S
O79 C73 1.268 . S
O80 Sc68 2.105 . S
O80 C74 1.268 . S
O81 Sc67 2.105 . S
O81 C75 1.268 . S
O82 Sc66 2.105 . S
O82 C74 1.268 . S
O83 Sc67 2.105 . S
O83 C73 1.268 . S
O84 Sc68 2.105 . S
O84 C75 1.268 . S
O85 Sc66 2.105 . S
O85 C71 1.268 . S
O86 Sc68 2.105 . S
O86 C70 1.268 . S
O87 Sc67 2.105 . S
O87 C72 1.268 . S
H88 C91 0.931 . S
H89 C94 0.929 . S
H90 C96 0.930 . S
C91 H88 0.931 . S
C91 C92 1.382 1_554 S
C91 C93 1.411 . S
C92 C91 1.382 1_556 S
C92 C96 1.407 . S
C93 C91 1.411 . S
C93 C94 1.394 . S
C94 H89 0.929 . S
C94 C93 1.394 . S
C94 C95 1.382 1_554 S
C95 C94 1.382 1_556 S
C95 C96 1.392 . S
C95 N97 1.420 . S
C96 H90 0.930 . S
C96 C92 1.407 . S
C96 C95 1.392 . S
N97 C95 1.420 . S
N97 C98 1.244 1_556 S
C98 N97 1.244 1_554 S
H99 C102 0.929 . S
H100 C105 0.929 . S
H101 C107 0.930 . S
C102 H99 0.929 . S
C102 C103 1.398 . S
C102 C104 1.396 . S
C103 C102 1.398 . S
C103 C107 1.407 . S
C104 C102 1.396 . S
C104 C105 1.394 . S
C105 H100 0.929 . S
C105 C104 1.394 . S
C105 C106 1.382 . S
C106 C105 1.382 . S
C106 C107 1.392 . S
C106 N108 1.420 1_655 S
C107 H101 0.930 . S
C107 C103 1.407 . S
C107 C106 1.392 . S
N108 C106 1.420 1_455 S
N108 C109 1.244 . S
C109 N108 1.244 . S
H110 C113 0.929 . S
H111 C116 0.929 . S
H112 C118 0.930 . S
C113 H110 0.929 . S
C113 C114 1.398 . S
C113 C115 1.396 1_554 S
C114 C113 1.398 . S
C114 C118 1.407 . S
C115 C113 1.396 1_556 S
C115 C116 1.394 . S
C116 H111 0.929 . S
C116 C115 1.394 . S
C116 C117 1.382 1_556 S
C117 C116 1.382 1_554 S
C117 C118 1.392 . S
C117 N119 1.420 . S
C118 H112 0.930 . S
C118 C114 1.407 . S
C118 C117 1.392 . S
N119 C117 1.420 . S
N119 C120 1.244 . S
C120 N119 1.244 . S
H121 C124 0.929 . S
H122 C127 0.929 . S
H123 C129 0.930 . S
C124 H121 0.929 . S
C124 C125 1.398 . S
C124 C126 1.396 . S
C125 C124 1.398 . S
C125 C129 1.407 . S
C126 C124 1.396 . S
C126 C127 1.394 . S
C127 H122 0.929 . S
C127 C126 1.394 . S
C127 C128 1.382 . S
C128 C127 1.382 . S
C128 C129 1.392 . S
C128 N130 1.420 1_455 S
C129 H123 0.930 . S
C129 C125 1.407 . S
C129 C128 1.392 . S
N130 C128 1.420 1_655 S
N130 C131 1.244 . S
C131 N130 1.244 . S
H132 C135 0.929 . S
H133 C138 0.929 . S
H134 C140 0.930 . S
C135 H132 0.929 . S
C135 C136 1.398 . S
C135 C137 1.396 . S
C136 C135 1.398 . S
C136 C140 1.407 . S
C137 C135 1.396 . S
C137 C138 1.394 . S
C138 H133 0.929 . S
C138 C137 1.394 . S
C138 C139 1.382 . S
C139 C138 1.382 . S
C139 C140 1.392 . S
C139 N141 1.420 1_565 S
C140 H134 0.930 . S
C140 C136 1.407 . S
C140 C139 1.392 . S
N141 C139 1.420 1_545 S
N141 C142 1.244 . S
C142 N141 1.244 . S
H143 C146 0.931 . S
H144 C149 0.929 . S
H145 C151 0.930 . S
C146 H143 0.931 . S
C146 C147 1.386 1_554 S
C146 C148 1.407 . S
C147 C146 1.386 1_556 S
C147 C151 1.407 . S
C148 C146 1.407 . S
C148 C149 1.394 . S
C149 H144 0.929 . S
C149 C148 1.394 . S
C149 C150 1.382 1_554 S
C150 C149 1.382 1_556 S
C150 C151 1.392 . S
C150 N152 1.420 . S
C151 H145 0.930 . S
C151 C147 1.407 . S
C151 C150 1.392 . S
N152 C150 1.420 . S
N152 C153 1.244 1_556 S
C153 N152 1.244 1_554 S
H154 C157 0.929 . S
H155 C160 0.929 . S
H156 C162 0.930 . S
C157 H154 0.929 . S
C157 C158 1.398 . S
C157 C159 1.396 . S
C158 C157 1.398 . S
C158 C162 1.407 . S
C159 C157 1.396 . S
C159 C160 1.394 . S
C160 H155 0.929 . S
C160 C159 1.394 . S
C160 C161 1.382 . S
C161 C160 1.382 . S
C161 C162 1.392 . S
C161 N163 1.420 1_545 S
C162 H156 0.930 . S
C162 C158 1.407 . S
C162 C161 1.392 . S
N163 C161 1.420 1_565 S
N163 C164 1.244 . S
C164 N163 1.244 . S
H165 C168 0.929 . S
H166 C171 0.929 . S
H167 C173 0.930 . S
C168 H165 0.929 . S
C168 C169 1.398 . S
C168 C170 1.396 1_554 S
C169 C168 1.398 . S
C169 C173 1.407 . S
C170 C168 1.396 1_556 S
C170 C171 1.394 . S
C171 H166 0.929 . S
C171 C170 1.394 . S
C171 C172 1.382 1_556 S
C172 C171 1.382 1_554 S
C172 C173 1.392 . S
C172 N174 1.420 . S
C173 H167 0.930 . S
C173 C169 1.407 . S
C173 C172 1.392 . S
N174 C172 1.420 . S
N174 C175 1.244 . S
C175 N174 1.244 . S
C176 C177 1.349 . S
C176 C178 1.327 . S
C176 H201 0.950 . S
C177 C176 1.349 . S
C177 C193 1.349 . S
C178 C176 1.327 . S
C178 C197 1.429 . S
C178 H202 0.950 . S
C179 C196 1.574 . S
C179 C198 1.368 . S
C179 H203 0.949 . S
H180 C184 0.949 . S
C181 C182 1.349 . S
C181 C183 1.327 . S
C181 H204 0.950 . S
C182 C181 1.349 . S
C182 C194 1.349 . S
C183 C181 1.327 . S
C183 C199 1.429 . S
C183 H205 0.950 . S
C184 H180 0.949 . S
C184 C192 1.574 . S
C184 C200 1.368 . S
H185 C193 0.950 . S
H186 C191 0.950 . S
H187 C192 0.949 . S
H188 C194 0.950 . S
H189 C195 0.950 . S
H190 C196 0.949 . S
C191 H186 0.950 . S
C191 C193 1.327 . S
C191 C197 1.429 . S
C192 C184 1.574 . S
C192 H187 0.949 . S
C192 C198 1.368 . S
C193 C177 1.349 . S
C193 H185 0.950 . S
C193 C191 1.327 . S
C194 C182 1.349 . S
C194 H188 0.950 . S
C194 C195 1.327 . S
C195 H189 0.950 . S
C195 C194 1.327 . S
C195 C199 1.429 . S
C196 C179 1.574 . S
C196 H190 0.949 . S
C196 C200 1.368 . S
C197 C178 1.429 . S
C197 C191 1.429 . S
C197 C198 1.523 . S
C198 C179 1.368 . S
C198 C192 1.368 . S
C198 C197 1.523 . S
C199 C183 1.429 . S
C199 C195 1.429 . S
C199 C200 1.523 . S
C200 C184 1.368 . S
C200 C196 1.368 . S
C200 C199 1.523 . S
H201 C176 0.950 . S
H202 C178 0.950 . S
H203 C179 0.949 . S
H204 C181 0.950 . S
H205 C183 0.950 . S
C206 C207 1.349 . S
C206 C208 1.327 . S
C206 H231 0.950 . S
C207 C206 1.349 . S
C207 C223 1.349 . S
C208 C206 1.327 . S
C208 C227 1.429 . S
C208 H232 0.950 . S
C209 C226 1.574 . S
C209 C228 1.368 . S
C209 H233 0.949 . S
H210 C214 0.949 . S
C211 C212 1.349 . S
C211 C213 1.327 . S
C211 H234 0.950 . S
C212 C211 1.349 . S
C212 C224 1.349 . S
C213 C211 1.327 . S
C213 C229 1.429 . S
C213 H235 0.950 . S
C214 H210 0.949 . S
C214 C222 1.574 . S
C214 C230 1.368 . S
H215 C223 0.950 . S
H216 C221 0.950 . S
H217 C222 0.949 . S
H218 C224 0.950 . S
H219 C225 0.950 . S
H220 C226 0.949 . S
C221 H216 0.950 . S
C221 C223 1.327 . S
C221 C227 1.429 . S
C222 C214 1.574 . S
C222 H217 0.949 . S
C222 C228 1.368 . S
C223 C207 1.349 . S
C223 H215 0.950 . S
C223 C221 1.327 . S
C224 C212 1.349 . S
C224 H218 0.950 . S
C224 C225 1.327 . S
C225 H219 0.950 . S
C225 C224 1.327 . S
C225 C229 1.429 . S
C226 C209 1.574 . S
C226 H220 0.949 . S
C226 C230 1.368 . S
C227 C208 1.429 . S
C227 C221 1.429 . S
C227 C228 1.523 . S
C228 C209 1.368 . S
C228 C222 1.368 . S
C228 C227 1.523 . S
C229 C213 1.429 . S
C229 C225 1.429 . S
C229 C230 1.523 . S
C230 C214 1.368 . S
C230 C226 1.368 . S
C230 C229 1.523 . S
H231 C206 0.950 . S
H232 C208 0.950 . S
H233 C209 0.949 . S
H234 C211 0.950 . S
H235 C213 0.950 . S
C236 C237 1.349 . S
C236 C238 1.327 . S
C236 H261 0.950 . S
C237 C236 1.349 . S
C237 C253 1.349 . S
C238 C236 1.327 . S
C238 C257 1.429 . S
C238 H262 0.950 . S
C239 C256 1.574 . S
C239 C258 1.368 . S
C239 H263 0.949 . S
H240 C244 0.949 . S
C241 C242 1.349 . S
C241 C243 1.327 . S
C241 H264 0.950 . S
C242 C241 1.349 . S
C242 C254 1.349 . S
C243 C241 1.327 . S
C243 C259 1.429 . S
C243 H265 0.950 . S
C244 H240 0.949 . S
C244 C252 1.574 . S
C244 C260 1.368 . S
H245 C253 0.950 . S
H246 C251 0.950 . S
H247 C252 0.949 . S
H248 C254 0.950 . S
H249 C255 0.950 . S
H250 C256 0.949 . S
C251 H246 0.950 . S
C251 C253 1.327 . S
C251 C257 1.429 . S
C252 C244 1.574 . S
C252 H247 0.949 . S
C252 C258 1.368 . S
C253 C237 1.349 . S
C253 H245 0.950 . S
C253 C251 1.327 . S
C254 C242 1.349 . S
C254 H248 0.950 . S
C254 C255 1.327 . S
C255 H249 0.950 . S
C255 C254 1.327 . S
C255 C259 1.429 . S
C256 C239 1.574 . S
C256 H250 0.949 . S
C256 C260 1.368 . S
C257 C238 1.429 . S
C257 C251 1.429 . S
C257 C258 1.523 . S
C258 C239 1.368 . S
C258 C252 1.368 . S
C258 C257 1.523 . S
C259 C243 1.429 . S
C259 C255 1.429 . S
C259 C260 1.523 . S
C260 C244 1.368 . S
C260 C256 1.368 . S
C260 C259 1.523 . S
H261 C236 0.950 . S
H262 C238 0.950 . S
H263 C239 0.949 . S
H264 C241 0.950 . S
H265 C243 0.950 . S
C266 C267 1.349 . S
C266 C268 1.327 . S
C266 H291 0.950 . S
C267 C266 1.349 . S
C267 C283 1.349 . S
C268 C266 1.327 . S
C268 C287 1.429 . S
C268 H292 0.950 . S
C269 C286 1.574 . S
C269 C288 1.368 . S
C269 H293 0.949 . S
H270 C274 0.949 . S
C271 C272 1.349 . S
C271 C273 1.327 . S
C271 H294 0.950 . S
C272 C271 1.349 . S
C272 C284 1.349 . S
C273 C271 1.327 . S
C273 C289 1.429 . S
C273 H295 0.950 . S
C274 H270 0.949 . S
C274 C282 1.574 . S
C274 C290 1.368 . S
H275 C283 0.950 . S
H276 C281 0.950 . S
H277 C282 0.949 . S
H278 C284 0.950 . S
H279 C285 0.950 . S
H280 C286 0.949 . S
C281 H276 0.950 . S
C281 C283 1.327 . S
C281 C287 1.429 . S
C282 C274 1.574 . S
C282 H277 0.949 . S
C282 C288 1.368 . S
C283 C267 1.349 . S
C283 H275 0.950 . S
C283 C281 1.327 . S
C284 C272 1.349 . S
C284 H278 0.950 . S
C284 C285 1.327 . S
C285 H279 0.950 . S
C285 C284 1.327 . S
C285 C289 1.429 . S
C286 C269 1.574 . S
C286 H280 0.949 . S
C286 C290 1.368 . S
C287 C268 1.429 . S
C287 C281 1.429 . S
C287 C288 1.523 . S
C288 C269 1.368 . S
C288 C282 1.368 . S
C288 C287 1.523 . S
C289 C273 1.429 . S
C289 C285 1.429 . S
C289 C290 1.523 . S
C290 C274 1.368 . S
C290 C286 1.368 . S
C290 C289 1.523 . S
H291 C266 0.950 . S
H292 C268 0.950 . S
H293 C269 0.949 . S
H294 C271 0.950 . S
H295 C273 0.950 . S
C296 C297 1.349 . S
C296 C298 1.327 . S
C296 H321 0.950 . S
C297 C296 1.349 . S
C297 C313 1.349 . S
C298 C296 1.327 . S
C298 C317 1.429 . S
C298 H322 0.950 . S
C299 C316 1.574 . S
C299 C318 1.368 . S
C299 H323 0.949 . S
H300 C304 0.949 . S
C301 C302 1.349 . S
C301 C303 1.327 . S
C301 H324 0.950 . S
C302 C301 1.349 . S
C302 C314 1.349 . S
C303 C301 1.327 . S
C303 C319 1.429 . S
C303 H325 0.950 . S
C304 H300 0.949 . S
C304 C312 1.574 . S
C304 C320 1.368 . S
H305 C313 0.950 . S
H306 C311 0.950 . S
H307 C312 0.949 . S
H308 C314 0.950 . S
H309 C315 0.950 . S
H310 C316 0.949 . S
C311 H306 0.950 . S
C311 C313 1.327 . S
C311 C317 1.429 . S
C312 C304 1.574 . S
C312 H307 0.949 . S
C312 C318 1.368 . S
C313 C297 1.349 . S
C313 H305 0.950 . S
C313 C311 1.327 . S
C314 C302 1.349 . S
C314 H308 0.950 . S
C314 C315 1.327 . S
C315 H309 0.950 . S
C315 C314 1.327 . S
C315 C319 1.429 . S
C316 C299 1.574 . S
C316 H310 0.949 . S
C316 C320 1.368 . S
C317 C298 1.429 . S
C317 C311 1.429 . S
C317 C318 1.523 . S
C318 C299 1.368 . S
C318 C312 1.368 . S
C318 C317 1.523 . S
C319 C303 1.429 . S
C319 C315 1.429 . S
C319 C320 1.523 . S
C320 C304 1.368 . S
C320 C316 1.368 . S
C320 C319 1.523 . S
H321 C296 0.950 . S
H322 C298 0.950 . S
H323 C299 0.949 . S
H324 C301 0.950 . S
H325 C303 0.950 . S
C326 C327 1.349 . S
C326 C328 1.327 . S
C326 H351 0.950 . S
C327 C326 1.349 . S
C327 C343 1.349 . S
C328 C326 1.327 . S
C328 C347 1.429 . S
C328 H352 0.950 . S
C329 C346 1.574 . S
C329 C348 1.368 . S
C329 H353 0.949 . S
H330 C334 0.949 . S
C331 C332 1.349 . S
C331 C333 1.327 . S
C331 H354 0.950 . S
C332 C331 1.349 . S
C332 C344 1.349 . S
C333 C331 1.327 . S
C333 C349 1.429 . S
C333 H355 0.950 . S
C334 H330 0.949 . S
C334 C342 1.574 . S
C334 C350 1.368 . S
H335 C343 0.950 . S
H336 C341 0.950 . S
H337 C342 0.949 . S
H338 C344 0.950 . S
H339 C345 0.950 . S
H340 C346 0.949 . S
C341 H336 0.950 . S
C341 C343 1.327 . S
C341 C347 1.429 . S
C342 C334 1.574 . S
C342 H337 0.949 . S
C342 C348 1.368 . S
C343 C327 1.349 . S
C343 H335 0.950 . S
C343 C341 1.327 . S
C344 C332 1.349 . S
C344 H338 0.950 . S
C344 C345 1.327 . S
C345 H339 0.950 . S
C345 C344 1.327 . S
C345 C349 1.429 . S
C346 C329 1.574 . S
C346 H340 0.949 . S
C346 C350 1.368 . S
C347 C328 1.429 . S
C347 C341 1.429 . S
C347 C348 1.523 . S
C348 C329 1.368 . S
C348 C342 1.368 . S
C348 C347 1.523 . S
C349 C333 1.429 . S
C349 C345 1.429 . S
C349 C350 1.523 . S
C350 C334 1.368 . S
C350 C346 1.368 . S
C350 C349 1.523 . S
H351 C326 0.950 . S
H352 C328 0.950 . S
H353 C329 0.949 . S
H354 C331 0.950 . S
H355 C333 0.950 . S
C356 C357 1.349 . S
C356 C358 1.327 . S
C356 H381 0.950 . S
C357 C356 1.349 . S
C357 C373 1.349 . S
C358 C356 1.327 . S
C358 C377 1.429 . S
C358 H382 0.950 . S
C359 C376 1.574 . S
C359 C378 1.368 . S
C359 H383 0.949 . S
H360 C364 0.949 . S
C361 C362 1.349 . S
C361 C363 1.327 . S
C361 H384 0.950 . S
C362 C361 1.349 . S
C362 C374 1.349 . S
C363 C361 1.327 . S
C363 C379 1.429 . S
C363 H385 0.950 . S
C364 H360 0.949 . S
C364 C372 1.574 . S
C364 C380 1.368 . S
H365 C373 0.950 . S
H366 C371 0.950 . S
H367 C372 0.949 . S
H368 C374 0.950 . S
H369 C375 0.950 . S
H370 C376 0.949 . S
C371 H366 0.950 . S
C371 C373 1.327 . S
C371 C377 1.429 . S
C372 C364 1.574 . S
C372 H367 0.949 . S
C372 C378 1.368 . S
C373 C357 1.349 . S
C373 H365 0.950 . S
C373 C371 1.327 . S
C374 C362 1.349 . S
C374 H368 0.950 . S
C374 C375 1.327 . S
C375 H369 0.950 . S
C375 C374 1.327 . S
C375 C379 1.429 . S
C376 C359 1.574 . S
C376 H370 0.949 . S
C376 C380 1.368 . S
C377 C358 1.429 . S
C377 C371 1.429 . S
C377 C378 1.523 . S
C378 C359 1.368 . S
C378 C372 1.368 . S
C378 C377 1.523 . S
C379 C363 1.429 . S
C379 C375 1.429 . S
C379 C380 1.523 . S
C380 C364 1.368 . S
C380 C376 1.368 . S
C380 C379 1.523 . S
H381 C356 0.950 . S
H382 C358 0.950 . S
H383 C359 0.949 . S
H384 C361 0.950 . S
H385 C363 0.950 . S
C386 C387 1.349 . S
C386 C388 1.327 . S
C386 H411 0.950 . S
C387 C386 1.349 . S
C387 C403 1.349 . S
C388 C386 1.327 . S
C388 C407 1.429 . S
C388 H412 0.950 . S
C389 C406 1.574 . S
C389 C408 1.368 . S
C389 H413 0.949 . S
H390 C394 0.949 . S
C391 C392 1.349 . S
C391 C393 1.327 . S
C391 H414 0.950 . S
C392 C391 1.349 . S
C392 C404 1.349 . S
C393 C391 1.327 . S
C393 C409 1.429 . S
C393 H415 0.950 . S
C394 H390 0.949 . S
C394 C402 1.574 . S
C394 C410 1.368 . S
H395 C403 0.950 . S
H396 C401 0.950 . S
H397 C402 0.949 . S
H398 C404 0.950 . S
H399 C405 0.950 . S
H400 C406 0.949 . S
C401 H396 0.950 . S
C401 C403 1.327 . S
C401 C407 1.429 . S
C402 C394 1.574 . S
C402 H397 0.949 . S
C402 C408 1.368 . S
C403 C387 1.349 . S
C403 H395 0.950 . S
C403 C401 1.327 . S
C404 C392 1.349 . S
C404 H398 0.950 . S
C404 C405 1.327 . S
C405 H399 0.950 . S
C405 C404 1.327 . S
C405 C409 1.429 . S
C406 C389 1.574 . S
C406 H400 0.949 . S
C406 C410 1.368 . S
C407 C388 1.429 . S
C407 C401 1.429 . S
C407 C408 1.523 . S
C408 C389 1.368 . S
C408 C402 1.368 . S
C408 C407 1.523 . S
C409 C393 1.429 . S
C409 C405 1.429 . S
C409 C410 1.523 . S
C410 C394 1.368 . S
C410 C406 1.368 . S
C410 C409 1.523 . S
H411 C386 0.950 . S
H412 C388 0.950 . S
H413 C389 0.949 . S
H414 C391 0.950 . S
H415 C393 0.950 . S
C416 C417 1.349 . S
C416 C418 1.327 . S
C416 H441 0.950 . S
C417 C416 1.349 . S
C417 C433 1.349 . S
C418 C416 1.327 . S
C418 C437 1.429 . S
C418 H442 0.950 . S
C419 C436 1.574 . S
C419 C438 1.368 . S
C419 H443 0.949 . S
H420 C424 0.949 . S
C421 C422 1.349 . S
C421 C423 1.327 . S
C421 H444 0.950 . S
C422 C421 1.349 . S
C422 C434 1.349 . S
C423 C421 1.327 . S
C423 C439 1.429 . S
C423 H445 0.950 . S
C424 H420 0.949 . S
C424 C432 1.574 . S
C424 C440 1.368 . S
H425 C433 0.950 . S
H426 C431 0.950 . S
H427 C432 0.949 . S
H428 C434 0.950 . S
H429 C435 0.950 . S
H430 C436 0.949 . S
C431 H426 0.950 . S
C431 C433 1.327 . S
C431 C437 1.429 . S
C432 C424 1.574 . S
C432 H427 0.949 . S
C432 C438 1.368 . S
C433 C417 1.349 . S
C433 H425 0.950 . S
C433 C431 1.327 . S
C434 C422 1.349 . S
C434 H428 0.950 . S
C434 C435 1.327 . S
C435 H429 0.950 . S
C435 C434 1.327 . S
C435 C439 1.429 . S
C436 C419 1.574 . S
C436 H430 0.949 . S
C436 C440 1.368 . S
C437 C418 1.429 . S
C437 C431 1.429 . S
C437 C438 1.523 . S
C438 C419 1.368 . S
C438 C432 1.368 . S
C438 C437 1.523 . S
C439 C423 1.429 . S
C439 C435 1.429 . S
C439 C440 1.523 . S
C440 C424 1.368 . S
C440 C436 1.368 . S
C440 C439 1.523 . S
H441 C416 0.950 . S
H442 C418 0.950 . S
H443 C419 0.949 . S
H444 C421 0.950 . S
H445 C423 0.950 . S
C446 C447 1.349 . S
C446 C448 1.327 . S
C446 H471 0.950 . S
C447 C446 1.349 . S
C447 C463 1.349 . S
C448 C446 1.327 . S
C448 C467 1.429 . S
C448 H472 0.950 . S
C449 C466 1.574 . S
C449 C468 1.368 . S
C449 H473 0.949 . S
H450 C454 0.949 . S
C451 C452 1.349 . S
C451 C453 1.327 . S
C451 H474 0.950 . S
C452 C451 1.349 . S
C452 C464 1.349 . S
C453 C451 1.327 . S
C453 C469 1.429 . S
C453 H475 0.950 . S
C454 H450 0.949 . S
C454 C462 1.574 . S
C454 C470 1.368 . S
H455 C463 0.950 . S
H456 C461 0.950 . S
H457 C462 0.949 . S
H458 C464 0.950 . S
H459 C465 0.950 . S
H460 C466 0.949 . S
C461 H456 0.950 . S
C461 C463 1.327 . S
C461 C467 1.429 . S
C462 C454 1.574 . S
C462 H457 0.949 . S
C462 C468 1.368 . S
C463 C447 1.349 . S
C463 H455 0.950 . S
C463 C461 1.327 . S
C464 C452 1.349 . S
C464 H458 0.950 . S
C464 C465 1.327 . S
C465 H459 0.950 . S
C465 C464 1.327 . S
C465 C469 1.429 . S
C466 C449 1.574 . S
C466 H460 0.949 . S
C466 C470 1.368 . S
C467 C448 1.429 . S
C467 C461 1.429 . S
C467 C468 1.523 . S
C468 C449 1.368 . S
C468 C462 1.368 . S
C468 C467 1.523 . S
C469 C453 1.429 . S
C469 C465 1.429 . S
C469 C470 1.523 . S
C470 C454 1.368 . S
C470 C466 1.368 . S
C470 C469 1.523 . S
H471 C446 0.950 . S
H472 C448 0.950 . S
H473 C449 0.949 . S
H474 C451 0.950 . S
H475 C453 0.950 . S
C476 C477 1.349 . S
C476 C478 1.327 . S
C476 H501 0.950 . S
C477 C476 1.349 . S
C477 C493 1.349 . S
C478 C476 1.327 . S
C478 C497 1.429 . S
C478 H502 0.950 . S
C479 C496 1.574 . S
C479 C498 1.368 . S
C479 H503 0.949 . S
H480 C484 0.949 . S
C481 C482 1.349 . S
C481 C483 1.327 . S
C481 H504 0.950 . S
C482 C481 1.349 . S
C482 C494 1.349 . S
C483 C481 1.327 . S
C483 C499 1.429 . S
C483 H505 0.950 . S
C484 H480 0.949 . S
C484 C492 1.574 . S
C484 C500 1.368 . S
H485 C493 0.950 . S
H486 C491 0.950 . S
H487 C492 0.949 . S
H488 C494 0.950 . S
H489 C495 0.950 . S
H490 C496 0.949 . S
C491 H486 0.950 . S
C491 C493 1.327 . S
C491 C497 1.429 . S
C492 C484 1.574 . S
C492 H487 0.949 . S
C492 C498 1.368 . S
C493 C477 1.349 . S
C493 H485 0.950 . S
C493 C491 1.327 . S
C494 C482 1.349 . S
C494 H488 0.950 . S
C494 C495 1.327 . S
C495 H489 0.950 . S
C495 C494 1.327 . S
C495 C499 1.429 . S
C496 C479 1.574 . S
C496 H490 0.949 . S
C496 C500 1.368 . S
C497 C478 1.429 . S
C497 C491 1.429 . S
C497 C498 1.523 . S
C498 C479 1.368 . S
C498 C492 1.368 . S
C498 C497 1.523 . S
C499 C483 1.429 . S
C499 C495 1.429 . S
C499 C500 1.523 . S
C500 C484 1.368 . S
C500 C496 1.368 . S
C500 C499 1.523 . S
H501 C476 0.950 . S
H502 C478 0.950 . S
H503 C479 0.949 . S
H504 C481 0.950 . S
H505 C483 0.950 . S
C506 C507 1.349 . S
C506 C508 1.327 . S
C506 H531 0.950 . S
C507 C506 1.349 . S
C507 C523 1.349 . S
C508 C506 1.327 . S
C508 C527 1.429 . S
C508 H532 0.950 . S
C509 C526 1.574 . S
C509 C528 1.368 . S
C509 H533 0.949 . S
H510 C514 0.949 . S
C511 C512 1.349 . S
C511 C513 1.327 . S
C511 H534 0.950 . S
C512 C511 1.349 . S
C512 C524 1.349 . S
C513 C511 1.327 . S
C513 C529 1.429 . S
C513 H535 0.950 . S
C514 H510 0.949 . S
C514 C522 1.574 . S
C514 C530 1.368 . S
H515 C523 0.950 . S
H516 C521 0.950 . S
H517 C522 0.949 . S
H518 C524 0.950 . S
H519 C525 0.950 . S
H520 C526 0.949 . S
C521 H516 0.950 . S
C521 C523 1.327 . S
C521 C527 1.429 . S
C522 C514 1.574 . S
C522 H517 0.949 . S
C522 C528 1.368 . S
C523 C507 1.349 . S
C523 H515 0.950 . S
C523 C521 1.327 . S
C524 C512 1.349 . S
C524 H518 0.950 . S
C524 C525 1.327 . S
C525 H519 0.950 . S
C525 C524 1.327 . S
C525 C529 1.429 . S
C526 C509 1.574 . S
C526 H520 0.949 . S
C526 C530 1.368 . S
C527 C508 1.429 . S
C527 C521 1.429 . S
C527 C528 1.523 . S
C528 C509 1.368 . S
C528 C522 1.368 . S
C528 C527 1.523 . S
C529 C513 1.429 . S
C529 C525 1.429 . S
C529 C530 1.523 . S
C530 C514 1.368 . S
C530 C526 1.368 . S
C530 C529 1.523 . S
H531 C506 0.950 . S
H532 C508 0.950 . S
H533 C509 0.949 . S
H534 C511 0.950 . S
H535 C513 0.950 . S
C536 C537 1.349 . S
C536 C538 1.327 . S
C536 H561 0.950 . S
C537 C536 1.349 . S
C537 C553 1.349 . S
C538 C536 1.327 . S
C538 C557 1.429 . S
C538 H562 0.950 . S
C539 C556 1.574 . S
C539 C558 1.368 . S
C539 H563 0.949 . S
H540 C544 0.949 . S
C541 C542 1.349 . S
C541 C543 1.327 . S
C541 H564 0.950 . S
C542 C541 1.349 . S
C542 C554 1.349 . S
C543 C541 1.327 . S
C543 C559 1.429 . S
C543 H565 0.950 . S
C544 H540 0.949 . S
C544 C552 1.574 . S
C544 C560 1.368 . S
H545 C553 0.950 . S
H546 C551 0.950 . S
H547 C552 0.949 . S
H548 C554 0.950 . S
H549 C555 0.950 . S
H550 C556 0.949 . S
C551 H546 0.950 . S
C551 C553 1.327 . S
C551 C557 1.429 . S
C552 C544 1.574 . S
C552 H547 0.949 . S
C552 C558 1.368 . S
C553 C537 1.349 . S
C553 H545 0.950 . S
C553 C551 1.327 . S
C554 C542 1.349 . S
C554 H548 0.950 . S
C554 C555 1.327 . S
C555 H549 0.950 . S
C555 C554 1.327 . S
C555 C559 1.429 . S
C556 C539 1.574 . S
C556 H550 0.949 . S
C556 C560 1.368 . S
C557 C538 1.429 . S
C557 C551 1.429 . S
C557 C558 1.523 . S
C558 C539 1.368 . S
C558 C552 1.368 . S
C558 C557 1.523 . S
C559 C543 1.429 . S
C559 C555 1.429 . S
C559 C560 1.523 . S
C560 C544 1.368 . S
C560 C556 1.368 . S
C560 C559 1.523 . S
H561 C536 0.950 . S
H562 C538 0.950 . S
H563 C539 0.949 . S
H564 C541 0.950 . S
H565 C543 0.950 . S
C566 C567 1.349 . S
C566 C568 1.327 . S
C566 H591 0.950 . S
C567 C566 1.349 . S
C567 C583 1.349 . S
C568 C566 1.327 . S
C568 C587 1.429 . S
C568 H592 0.950 . S
C569 C586 1.574 . S
C569 C588 1.368 . S
C569 H593 0.949 . S
H570 C574 0.949 . S
C571 C572 1.349 . S
C571 C573 1.327 . S
C571 H594 0.950 . S
C572 C571 1.349 . S
C572 C584 1.349 . S
C573 C571 1.327 . S
C573 C589 1.429 . S
C573 H595 0.950 . S
C574 H570 0.949 . S
C574 C582 1.574 . S
C574 C590 1.368 . S
H575 C583 0.950 . S
H576 C581 0.950 . S
H577 C582 0.949 . S
H578 C584 0.950 . S
H579 C585 0.950 . S
H580 C586 0.949 . S
C581 H576 0.950 . S
C581 C583 1.327 . S
C581 C587 1.429 . S
C582 C574 1.574 . S
C582 H577 0.949 . S
C582 C588 1.368 . S
C583 C567 1.349 . S
C583 H575 0.950 . S
C583 C581 1.327 . S
C584 C572 1.349 . S
C584 H578 0.950 . S
C584 C585 1.327 . S
C585 H579 0.950 . S
C585 C584 1.327 . S
C585 C589 1.429 . S
C586 C569 1.574 . S
C586 H580 0.949 . S
C586 C590 1.368 . S
C587 C568 1.429 . S
C587 C581 1.429 . S
C587 C588 1.523 . S
C588 C569 1.368 . S
C588 C582 1.368 . S
C588 C587 1.523 . S
C589 C573 1.429 . S
C589 C585 1.429 . S
C589 C590 1.523 . S
C590 C574 1.368 . S
C590 C586 1.368 . S
C590 C589 1.523 . S
H591 C566 0.950 . S
H592 C568 0.950 . S
H593 C569 0.949 . S
H594 C571 0.950 . S
H595 C573 0.950 . S
C596 C597 1.349 . S
C596 C598 1.327 . S
C596 H621 0.950 . S
C597 C596 1.349 . S
C597 C613 1.349 . S
C598 C596 1.327 . S
C598 C617 1.429 . S
C598 H622 0.950 . S
C599 C616 1.574 . S
C599 C618 1.368 . S
C599 H623 0.949 . S
H600 C604 0.949 . S
C601 C602 1.349 . S
C601 C603 1.327 . S
C601 H624 0.950 . S
C602 C601 1.349 . S
C602 C614 1.349 . S
C603 C601 1.327 . S
C603 C619 1.429 . S
C603 H625 0.950 . S
C604 H600 0.949 . S
C604 C612 1.574 . S
C604 C620 1.368 . S
H605 C613 0.950 . S
H606 C611 0.950 . S
H607 C612 0.949 . S
H608 C614 0.950 . S
H609 C615 0.950 . S
H610 C616 0.949 . S
C611 H606 0.950 . S
C611 C613 1.327 . S
C611 C617 1.429 . S
C612 C604 1.574 . S
C612 H607 0.949 . S
C612 C618 1.368 . S
C613 C597 1.349 . S
C613 H605 0.950 . S
C613 C611 1.327 . S
C614 C602 1.349 . S
C614 H608 0.950 . S
C614 C615 1.327 . S
C615 H609 0.950 . S
C615 C614 1.327 . S
C615 C619 1.429 . S
C616 C599 1.574 . S
C616 H610 0.949 . S
C616 C620 1.368 . S
C617 C598 1.429 . S
C617 C611 1.429 . S
C617 C618 1.523 . S
C618 C599 1.368 . S
C618 C612 1.368 . S
C618 C617 1.523 . S
C619 C603 1.429 . S
C619 C615 1.429 . S
C619 C620 1.523 . S
C620 C604 1.368 . S
C620 C616 1.368 . S
C620 C619 1.523 . S
H621 C596 0.950 . S
H622 C598 0.950 . S
H623 C599 0.949 . S
H624 C601 0.950 . S
H625 C603 0.950 . S
C626 C627 1.349 . S
C626 C628 1.327 . S
C626 H651 0.950 . S
C627 C626 1.349 . S
C627 C643 1.349 . S
C628 C626 1.327 . S
C628 C647 1.429 . S
C628 H652 0.950 . S
C629 C646 1.574 . S
C629 C648 1.368 . S
C629 H653 0.949 . S
H630 C634 0.949 . S
C631 C632 1.349 . S
C631 C633 1.327 . S
C631 H654 0.950 . S
C632 C631 1.349 . S
C632 C644 1.349 . S
C633 C631 1.327 . S
C633 C649 1.429 . S
C633 H655 0.950 . S
C634 H630 0.949 . S
C634 C642 1.574 . S
C634 C650 1.368 . S
H635 C643 0.950 . S
H636 C641 0.950 . S
H637 C642 0.949 . S
H638 C644 0.950 . S
H639 C645 0.950 . S
H640 C646 0.949 . S
C641 H636 0.950 . S
C641 C643 1.327 . S
C641 C647 1.429 . S
C642 C634 1.574 . S
C642 H637 0.949 . S
C642 C648 1.368 . S
C643 C627 1.349 . S
C643 H635 0.950 . S
C643 C641 1.327 . S
C644 C632 1.349 . S
C644 H638 0.950 . S
C644 C645 1.327 . S
C645 H639 0.950 . S
C645 C644 1.327 . S
C645 C649 1.429 . S
C646 C629 1.574 . S
C646 H640 0.949 . S
C646 C650 1.368 . S
C647 C628 1.429 . S
C647 C641 1.429 . S
C647 C648 1.523 . S
C648 C629 1.368 . S
C648 C642 1.368 . S
C648 C647 1.523 . S
C649 C633 1.429 . S
C649 C645 1.429 . S
C649 C650 1.523 . S
C650 C634 1.368 . S
C650 C646 1.368 . S
C650 C649 1.523 . S
H651 C626 0.950 . S
H652 C628 0.950 . S
H653 C629 0.949 . S
H654 C631 0.950 . S
H655 C633 0.950 . S
C656 C657 1.349 . S
C656 C658 1.327 . S
C656 H681 0.950 . S
C657 C656 1.349 . S
C657 C673 1.349 1_554 S
C658 C656 1.327 . S
C658 C677 1.429 . S
C658 H682 0.950 . S
C659 C676 1.574 . S
C659 C678 1.368 1_556 S
C659 H683 0.949 . S
H660 C664 0.949 . S
C661 C662 1.349 1_556 S
C661 C663 1.327 . S
C661 H684 0.950 . S
C662 C661 1.349 1_554 S
C662 C674 1.349 . S
C663 C661 1.327 . S
C663 C679 1.429 1_556 S
C663 H685 0.950 . S
C664 H660 0.949 . S
C664 C672 1.574 . S
C664 C680 1.368 . S
H665 C673 0.950 . S
H666 C671 0.950 . S
H667 C672 0.949 . S
H668 C674 0.950 . S
H669 C675 0.950 . S
H670 C676 0.949 . S
C671 H666 0.950 . S
C671 C673 1.327 . S
C671 C677 1.429 1_556 S
C672 C664 1.574 . S
C672 H667 0.949 . S
C672 C678 1.368 . S
C673 C657 1.349 1_556 S
C673 H665 0.950 . S
C673 C671 1.327 . S
C674 C662 1.349 . S
C674 H668 0.950 . S
C674 C675 1.327 . S
C675 H669 0.950 . S
C675 C674 1.327 . S
C675 C679 1.429 . S
C676 C659 1.574 . S
C676 H670 0.949 . S
C676 C680 1.368 1_556 S
C677 C658 1.429 . S
C677 C671 1.429 1_554 S
C677 C678 1.523 . S
C678 C659 1.368 1_554 S
C678 C672 1.368 . S
C678 C677 1.523 . S
C679 C663 1.429 1_554 S
C679 C675 1.429 . S
C679 C680 1.523 . S
C680 C664 1.368 . S
C680 C676 1.368 1_554 S
C680 C679 1.523 . S
H681 C656 0.950 . S
H682 C658 0.950 . S
H683 C659 0.949 . S
H684 C661 0.950 . S
H685 C663 0.950 . S
C686 C687 1.349 . S
C686 C688 1.327 . S
C686 H711 0.950 . S
C687 C686 1.349 . S
C687 C703 1.349 . S
C688 C686 1.327 . S
C688 C707 1.429 . S
C688 H712 0.950 . S
C689 C706 1.574 . S
C689 C708 1.368 . S
C689 H713 0.949 . S
H690 C694 0.949 . S
C691 C692 1.349 . S
C691 C693 1.327 . S
C691 H714 0.950 . S
C692 C691 1.349 . S
C692 C704 1.349 . S
C693 C691 1.327 . S
C693 C709 1.429 . S
C693 H715 0.950 . S
C694 H690 0.949 . S
C694 C702 1.574 . S
C694 C710 1.368 . S
H695 C703 0.950 . S
H696 C701 0.950 . S
H697 C702 0.949 . S
H698 C704 0.950 . S
H699 C705 0.950 . S
H700 C706 0.949 . S
C701 H696 0.950 . S
C701 C703 1.327 . S
C701 C707 1.429 . S
C702 C694 1.574 . S
C702 H697 0.949 . S
C702 C708 1.368 . S
C703 C687 1.349 . S
C703 H695 0.950 . S
C703 C701 1.327 . S
C704 C692 1.349 . S
C704 H698 0.950 . S
C704 C705 1.327 . S
C705 H699 0.950 . S
C705 C704 1.327 . S
C705 C709 1.429 . S
C706 C689 1.574 . S
C706 H700 0.949 . S
C706 C710 1.368 . S
C707 C688 1.429 . S
C707 C701 1.429 . S
C707 C708 1.523 . S
C708 C689 1.368 . S
C708 C702 1.368 . S
C708 C707 1.523 . S
C709 C693 1.429 . S
C709 C705 1.429 . S
C709 C710 1.523 . S
C710 C694 1.368 . S
C710 C706 1.368 . S
C710 C709 1.523 . S
H711 C686 0.950 . S
H712 C688 0.950 . S
H713 C689 0.949 . S
H714 C691 0.950 . S
H715 C693 0.950 . S
C716 C717 1.349 1_556 S
C716 C718 1.327 . S
C716 H741 0.950 . S
C717 C716 1.349 1_554 S
C717 C733 1.349 . S
C718 C716 1.327 . S
C718 C737 1.429 1_556 S
C718 H742 0.950 . S
C719 C736 1.574 . S
C719 C738 1.368 . S
C719 H743 0.949 . S
H720 C724 0.949 . S
C721 C722 1.349 . S
C721 C723 1.327 . S
C721 H744 0.950 . S
C722 C721 1.349 . S
C722 C734 1.349 1_554 S
C723 C721 1.327 . S
C723 C739 1.429 . S
C723 H745 0.950 . S
C724 H720 0.949 . S
C724 C732 1.574 . S
C724 C740 1.368 1_556 S
H725 C733 0.950 . S
H726 C731 0.950 . S
H727 C732 0.949 . S
H728 C734 0.950 . S
H729 C735 0.950 . S
H730 C736 0.949 . S
C731 H726 0.950 . S
C731 C733 1.327 . S
C731 C737 1.429 . S
C732 C724 1.574 . S
C732 H727 0.949 . S
C732 C738 1.368 1_556 S
C733 C717 1.349 . S
C733 H725 0.950 . S
C733 C731 1.327 . S
C734 C722 1.349 1_556 S
C734 H728 0.950 . S
C734 C735 1.327 . S
C735 H729 0.950 . S
C735 C734 1.327 . S
C735 C739 1.429 1_556 S
C736 C719 1.574 . S
C736 H730 0.949 . S
C736 C740 1.368 . S
C737 C718 1.429 1_554 S
C737 C731 1.429 . S
C737 C738 1.523 . S
C738 C719 1.368 . S
C738 C732 1.368 1_554 S
C738 C737 1.523 . S
C739 C723 1.429 . S
C739 C735 1.429 1_554 S
C739 C740 1.523 . S
C740 C724 1.368 1_554 S
C740 C736 1.368 . S
C740 C739 1.523 . S
H741 C716 0.950 . S
H742 C718 0.950 . S
H743 C719 0.949 . S
H744 C721 0.950 . S
H745 C723 0.950 . S
C746 C747 1.349 . S
C746 C748 1.327 . S
C746 H771 0.950 . S
C747 C746 1.349 . S
C747 C763 1.349 . S
C748 C746 1.327 . S
C748 C767 1.429 . S
C748 H772 0.950 . S
C749 C766 1.574 . S
C749 C768 1.368 . S
C749 H773 0.949 . S
H750 C754 0.949 . S
C751 C752 1.349 . S
C751 C753 1.327 . S
C751 H774 0.950 . S
C752 C751 1.349 . S
C752 C764 1.349 . S
C753 C751 1.327 . S
C753 C769 1.429 . S
C753 H775 0.950 . S
C754 H750 0.949 . S
C754 C762 1.574 . S
C754 C770 1.368 . S
H755 C763 0.950 . S
H756 C761 0.950 . S
H757 C762 0.949 . S
H758 C764 0.950 . S
H759 C765 0.950 . S
H760 C766 0.949 . S
C761 H756 0.950 . S
C761 C763 1.327 . S
C761 C767 1.429 . S
C762 C754 1.574 . S
C762 H757 0.949 . S
C762 C768 1.368 . S
C763 C747 1.349 . S
C763 H755 0.950 . S
C763 C761 1.327 . S
C764 C752 1.349 . S
C764 H758 0.950 . S
C764 C765 1.327 . S
C765 H759 0.950 . S
C765 C764 1.327 . S
C765 C769 1.429 . S
C766 C749 1.574 . S
C766 H760 0.949 . S
C766 C770 1.368 . S
C767 C748 1.429 . S
C767 C761 1.429 . S
C767 C768 1.523 . S
C768 C749 1.368 . S
C768 C762 1.368 . S
C768 C767 1.523 . S
C769 C753 1.429 . S
C769 C765 1.429 . S
C769 C770 1.523 . S
C770 C754 1.368 . S
C770 C766 1.368 . S
C770 C769 1.523 . S
H771 C746 0.950 . S
H772 C748 0.950 . S
H773 C749 0.949 . S
H774 C751 0.950 . S
H775 C753 0.950 . S
C776 C777 1.349 . S
C776 C778 1.327 . S
C776 H801 0.950 . S
C777 C776 1.349 . S
C777 C793 1.349 . S
C778 C776 1.327 . S
C778 C797 1.429 . S
C778 H802 0.950 . S
C779 C796 1.574 . S
C779 C798 1.368 . S
C779 H803 0.949 . S
H780 C784 0.949 . S
C781 C782 1.349 . S
C781 C783 1.327 . S
C781 H804 0.950 . S
C782 C781 1.349 . S
C782 C794 1.349 . S
C783 C781 1.327 . S
C783 C799 1.429 . S
C783 H805 0.950 . S
C784 H780 0.949 . S
C784 C792 1.574 . S
C784 C800 1.368 . S
H785 C793 0.950 . S
H786 C791 0.950 . S
H787 C792 0.949 . S
H788 C794 0.950 . S
H789 C795 0.950 . S
H790 C796 0.949 . S
C791 H786 0.950 . S
C791 C793 1.327 . S
C791 C797 1.429 . S
C792 C784 1.574 . S
C792 H787 0.949 . S
C792 C798 1.368 . S
C793 C777 1.349 . S
C793 H785 0.950 . S
C793 C791 1.327 . S
C794 C782 1.349 . S
C794 H788 0.950 . S
C794 C795 1.327 . S
C795 H789 0.950 . S
C795 C794 1.327 . S
C795 C799 1.429 . S
C796 C779 1.574 . S
C796 H790 0.949 . S
C796 C800 1.368 . S
C797 C778 1.429 . S
C797 C791 1.429 . S
C797 C798 1.523 . S
C798 C779 1.368 . S
C798 C792 1.368 . S
C798 C797 1.523 . S
C799 C783 1.429 . S
C799 C795 1.429 . S
C799 C800 1.523 . S
C800 C784 1.368 . S
C800 C796 1.368 . S
C800 C799 1.523 . S
H801 C776 0.950 . S
H802 C778 0.950 . S
H803 C779 0.949 . S
H804 C781 0.950 . S
H805 C783 0.950 . S
C806 C807 1.349 1_556 S
C806 C808 1.327 . S
C806 H831 0.950 . S
C807 C806 1.349 1_554 S
C807 C823 1.349 . S
C808 C806 1.327 . S
C808 C827 1.429 1_556 S
C808 H832 0.950 . S
C809 C826 1.574 . S
C809 C828 1.368 . S
C809 H833 0.949 . S
H810 C814 0.949 . S
C811 C812 1.349 . S
C811 C813 1.327 . S
C811 H834 0.950 . S
C812 C811 1.349 . S
C812 C824 1.349 1_554 S
C813 C811 1.327 . S
C813 C829 1.429 . S
C813 H835 0.950 . S
C814 H810 0.949 . S
C814 C822 1.574 . S
C814 C830 1.368 1_556 S
H815 C823 0.950 . S
H816 C821 0.950 . S
H817 C822 0.949 . S
H818 C824 0.950 . S
H819 C825 0.950 . S
H820 C826 0.949 . S
C821 H816 0.950 . S
C821 C823 1.327 . S
C821 C827 1.429 . S
C822 C814 1.574 . S
C822 H817 0.949 . S
C822 C828 1.368 1_556 S
C823 C807 1.349 . S
C823 H815 0.950 . S
C823 C821 1.327 . S
C824 C812 1.349 1_556 S
C824 H818 0.950 . S
C824 C825 1.327 . S
C825 H819 0.950 . S
C825 C824 1.327 . S
C825 C829 1.429 1_556 S
C826 C809 1.574 . S
C826 H820 0.949 . S
C826 C830 1.368 . S
C827 C808 1.429 1_554 S
C827 C821 1.429 . S
C827 C828 1.523 . S
C828 C809 1.368 . S
C828 C822 1.368 1_554 S
C828 C827 1.523 . S
C829 C813 1.429 . S
C829 C825 1.429 1_554 S
C829 C830 1.523 . S
C830 C814 1.368 1_554 S
C830 C826 1.368 . S
C830 C829 1.523 . S
H831 C806 0.950 . S
H832 C808 0.950 . S
H833 C809 0.949 . S
H834 C811 0.950 . S
H835 C813 0.950 . S
C836 C837 1.349 . S
C836 C838 1.327 . S
C836 H861 0.950 . S
C837 C836 1.349 . S
C837 C853 1.349 . S
C838 C836 1.327 . S
C838 C857 1.429 . S
C838 H862 0.950 . S
C839 C856 1.574 . S
C839 C858 1.368 . S
C839 H863 0.949 . S
H840 C844 0.949 . S
C841 C842 1.349 . S
C841 C843 1.327 . S
C841 H864 0.950 . S
C842 C841 1.349 . S
C842 C854 1.349 . S
C843 C841 1.327 . S
C843 C859 1.429 . S
C843 H865 0.950 . S
C844 H840 0.949 . S
C844 C852 1.574 . S
C844 C860 1.368 . S
H845 C853 0.950 . S
H846 C851 0.950 . S
H847 C852 0.949 . S
H848 C854 0.950 . S
H849 C855 0.950 . S
H850 C856 0.949 . S
C851 H846 0.950 . S
C851 C853 1.327 . S
C851 C857 1.429 . S
C852 C844 1.574 . S
C852 H847 0.949 . S
C852 C858 1.368 . S
C853 C837 1.349 . S
C853 H845 0.950 . S
C853 C851 1.327 . S
C854 C842 1.349 . S
C854 H848 0.950 . S
C854 C855 1.327 . S
C855 H849 0.950 . S
C855 C854 1.327 . S
C855 C859 1.429 . S
C856 C839 1.574 . S
C856 H850 0.949 . S
C856 C860 1.368 . S
C857 C838 1.429 . S
C857 C851 1.429 . S
C857 C858 1.523 . S
C858 C839 1.368 . S
C858 C852 1.368 . S
C858 C857 1.523 . S
C859 C843 1.429 . S
C859 C855 1.429 . S
C859 C860 1.523 . S
C860 C844 1.368 . S
C860 C856 1.368 . S
C860 C859 1.523 . S
H861 C836 0.950 . S
H862 C838 0.950 . S
H863 C839 0.949 . S
H864 C841 0.950 . S
H865 C843 0.950 . S
C866 C867 1.349 1_556 S
C866 C868 1.327 . S
C866 H891 0.950 . S
C867 C866 1.349 1_554 S
C867 C883 1.349 . S
C868 C866 1.327 . S
C868 C887 1.429 1_556 S
C868 H892 0.950 . S
C869 C886 1.574 . S
C869 C888 1.368 . S
C869 H893 0.949 . S
H870 C874 0.949 . S
C871 C872 1.349 . S
C871 C873 1.327 . S
C871 H894 0.950 . S
C872 C871 1.349 . S
C872 C884 1.349 1_554 S
C873 C871 1.327 . S
C873 C889 1.429 . S
C873 H895 0.950 . S
C874 H870 0.949 . S
C874 C882 1.574 . S
C874 C890 1.368 1_556 S
H875 C883 0.950 . S
H876 C881 0.950 . S
H877 C882 0.949 . S
H878 C884 0.950 . S
H879 C885 0.950 . S
H880 C886 0.949 . S
C881 H876 0.950 . S
C881 C883 1.327 . S
C881 C887 1.429 . S
C882 C874 1.574 . S
C882 H877 0.949 . S
C882 C888 1.368 1_556 S
C883 C867 1.349 . S
C883 H875 0.950 . S
C883 C881 1.327 . S
C884 C872 1.349 1_556 S
C884 H878 0.950 . S
C884 C885 1.327 . S
C885 H879 0.950 . S
C885 C884 1.327 . S
C885 C889 1.429 1_556 S
C886 C869 1.574 . S
C886 H880 0.949 . S
C886 C890 1.368 . S
C887 C868 1.429 1_554 S
C887 C881 1.429 . S
C887 C888 1.523 . S
C888 C869 1.368 . S
C888 C882 1.368 1_554 S
C888 C887 1.523 . S
C889 C873 1.429 . S
C889 C885 1.429 1_554 S
C889 C890 1.523 . S
C890 C874 1.368 1_554 S
C890 C886 1.368 . S
C890 C889 1.523 . S
H891 C866 0.950 . S
H892 C868 0.950 . S
H893 C869 0.949 . S
H894 C871 0.950 . S
H895 C873 0.950 . S
C177 C5 1.437 . S
C182 C125 1.449 . S
C207 C31 1.452 . S
C212 C92 1.462 . S
C242 C104 1.461 . S
C237 C53 1.475 . S
C267 C71 1.461 . S
C272 C115 1.450 . S
C302 C148 1.450 . S
C297 C75 1.460 . S
C332 C159 1.461 . S
C327 C9 1.475 . S
C362 C169 1.462 . S
C357 C27 1.452 . S
C392 C136 1.449 . S
C387 C49 1.437 . S
C417 C51 1.437 . S
C422 C103 1.444 . S
C447 C72 1.452 . S
C452 C114 1.456 . S
C477 C6 1.475 . S
C482 C126 1.465 . S
C512 C93 1.453 . S
C507 C29 1.460 . S
C537 C28 1.461 . S
C542 C170 1.453 . S
C572 C137 1.465 . S
C567 C50 1.475 . S
C602 C147 1.457 . S
C597 C73 1.452 . S
C627 C7 1.437 . S
C632 C158 1.444 . S
C662 C98 1.510 . S
C657 C4 1.501 . S
C692 C109 1.514 . S
C687 C30 1.501 . S
C717 C52 1.501 . S
C722 C120 1.514 . S
C747 C70 1.501 . S
C752 C131 1.510 . S
C782 C142 1.510 . S
C777 C74 1.501 . S
C807 C8 1.501 . S
C812 C153 1.514 . S
C837 C26 1.501 . S
C842 C164 1.514 . S
C867 C48 1.501 . S
C872 C175 1.510 . S
