# Generated by pormake.
# Topology zzz, (3,6)-cn, num edge types: 1
# Building blocks:
#     Node 0, Type 0, BuildingBlock: BETDAH_clean_linker_0, # of connection points: 3
#     Node 1, Type 0, BuildingBlock: BETDAH_clean_linker_0, # of connection points: 3
#     Node 2, Type 0, BuildingBlock: BETDAH_clean_linker_0, # of connection points: 3
#     Node 3, Type 0, BuildingBlock: BETDAH_clean_linker_0, # of connection points: 3
#     Node 4, Type 0, BuildingBlock: BETDAH_clean_linker_0, # of connection points: 3
#     Node 5, Type 0, BuildingBlock: BETDAH_clean_linker_0, # of connection points: 3
#     Node 6, Type 0, BuildingBlock: BETDAH_clean_linker_0, # of connection points: 3
#     Node 7, Type 0, BuildingBlock: BETDAH_clean_linker_0, # of connection points: 3
#     Node 8, Type 1, BuildingBlock: FUNLAD_clean_sbu_0, # of connection points: 6
#     Node 9, Type 1, BuildingBlock: FUNLAD_clean_sbu_0, # of connection points: 6
#     Node 10, Type 1, BuildingBlock: FUNLAD_clean_sbu_0, # of connection points: 6
#     Node 11, Type 1, BuildingBlock: FUNLAD_clean_sbu_0, # of connection points: 6
#     Edge 12, Type (0, 1), BuildingBlock: KIFKEQ_clean_linker_1, # of connection points: 2
#     Edge 13, Type (0, 1), BuildingBlock: KIFKEQ_clean_linker_1, # of connection points: 2
#     Edge 14, Type (0, 1), BuildingBlock: KIFKEQ_clean_linker_1, # of connection points: 2
#     Edge 15, Type (0, 1), BuildingBlock: KIFKEQ_clean_linker_1, # of connection points: 2
#     Edge 16, Type (0, 1), BuildingBlock: KIFKEQ_clean_linker_1, # of connection points: 2
#     Edge 17, Type (0, 1), BuildingBlock: KIFKEQ_clean_linker_1, # of connection points: 2
#     Edge 18, Type (0, 1), BuildingBlock: KIFKEQ_clean_linker_1, # of connection points: 2
#     Edge 19, Type (0, 1), BuildingBlock: KIFKEQ_clean_linker_1, # of connection points: 2
#     Edge 20, Type (0, 1), BuildingBlock: KIFKEQ_clean_linker_1, # of connection points: 2
#     Edge 21, Type (0, 1), BuildingBlock: KIFKEQ_clean_linker_1, # of connection points: 2
#     Edge 22, Type (0, 1), BuildingBlock: KIFKEQ_clean_linker_1, # of connection points: 2
#     Edge 23, Type (0, 1), BuildingBlock: KIFKEQ_clean_linker_1, # of connection points: 2
#     Edge 24, Type (0, 1), BuildingBlock: KIFKEQ_clean_linker_1, # of connection points: 2
#     Edge 25, Type (0, 1), BuildingBlock: KIFKEQ_clean_linker_1, # of connection points: 2
#     Edge 26, Type (0, 1), BuildingBlock: KIFKEQ_clean_linker_1, # of connection points: 2
#     Edge 27, Type (0, 1), BuildingBlock: KIFKEQ_clean_linker_1, # of connection points: 2
#     Edge 28, Type (0, 1), BuildingBlock: KIFKEQ_clean_linker_1, # of connection points: 2
#     Edge 29, Type (0, 1), BuildingBlock: KIFKEQ_clean_linker_1, # of connection points: 2
#     Edge 30, Type (0, 1), BuildingBlock: KIFKEQ_clean_linker_1, # of connection points: 2
#     Edge 31, Type (0, 1), BuildingBlock: KIFKEQ_clean_linker_1, # of connection points: 2
#     Edge 32, Type (0, 1), BuildingBlock: KIFKEQ_clean_linker_1, # of connection points: 2
#     Edge 33, Type (0, 1), BuildingBlock: KIFKEQ_clean_linker_1, # of connection points: 2
#     Edge 34, Type (0, 1), BuildingBlock: KIFKEQ_clean_linker_1, # of connection points: 2
#     Edge 35, Type (0, 1), BuildingBlock: KIFKEQ_clean_linker_1, # of connection points: 2
# Relax obj value: 0.119
# Max RMSD: 0.175
# Mean RMSD: 0.091
data_MOF--net-zzz--node1-FUNLAD_clean_sbu_0--node2-BETDAH_clean_linker_0--edge1-KIFKEQ_clean_linker_1
_symmetry_space_group_name_H-M    P1
_symmetry_Int_Tables_number       1
_symmetry_cell_setting            triclinic
loop_
_symmetry_equiv_pos_as_xyz
'x, y, z'
_cell_length_a     52.102185
_cell_length_b     57.671167
_cell_length_c     17.922209
_cell_angle_alpha  85.373533
_cell_angle_beta   84.719013
_cell_angle_gamma 90.082329
loop_
_atom_site_label
_atom_site_type_symbol
_atom_site_fract_x
_atom_site_fract_y
_atom_site_fract_z
_atom_type_partial_charge
H0 H 0.87003 0.46891 0.25116 0.0
H1 H 0.79945 0.4732 0.14477 0.0
H2 H 0.80241 0.49612 0.36707 0.0
C3 C 0.84954 0.47243 0.25355 0.0
C4 C 0.83764 0.48211 0.31682 0.0
C5 C 0.83604 0.46938 0.19086 0.0
C6 C 0.80989 0.47541 0.19328 0.0
C7 C 0.79755 0.48483 0.25734 0.0
C8 C 0.81161 0.48826 0.31867 0.0
N9 N 0.77139 0.49183 0.26059 0.0
C10 C 0.75698 0.49272 0.19899 0.0
H11 H 0.98776 0.85046 0.0924 0.0
H12 H 0.99136 0.78243 0.01174 0.0
H13 H 0.94641 0.79381 0.22049 0.0
C14 C 0.98216 0.83221 0.09963 0.0
C15 C 0.96562 0.82408 0.16204 0.0
C16 C 0.99161 0.81734 0.04598 0.0
C17 C 0.98431 0.79379 0.05419 0.0
C18 C 0.96804 0.78516 0.1179 0.0
C19 C 0.95899 0.80038 0.17182 0.0
N20 N 0.96021 0.76145 0.12957 0.0
C21 C 0.96638 0.74474 0.07926 0.0
H22 H 0.68232 0.01632 0.12149 0.0
H23 H 0.75706 1.0026 0.01312 0.0
H24 H 0.74335 0.99418 0.25526 0.0
C25 C 0.70239 0.01183 0.12567 0.0
C26 C 0.71086 0.00596 0.1964 0.0
C27 C 0.71878 0.01077 0.05972 0.0
C28 C 0.74447 1.00378 0.06421 0.0
C29 C 0.7535 0.99804 0.13531 0.0
C30 C 0.73647 0.99885 0.20084 0.0
N31 N 0.77927 0.99095 0.14375 0.0
C32 C 0.79966 0.99242 0.08747 0.0
H33 H 0.53704 0.64344 0.14672 0.0
H34 H 0.53741 0.7115 0.02962 0.0
H35 H 0.57009 0.70107 0.24248 0.0
C36 C 0.54171 0.66185 0.14389 0.0
C37 C 0.55439 0.67045 0.20136 0.0
C38 C 0.53525 0.67652 0.08241 0.0
C39 C 0.54187 0.70025 0.07801 0.0
C40 C 0.55437 0.70921 0.13631 0.0
C41 C 0.56043 0.69422 0.19781 0.0
N42 N 0.56154 0.73301 0.13481 0.0
C43 C 0.55394 0.75054 0.08382 0.0
H44 H 0.17845 0.52824 0.17423 0.0
H45 H 0.24441 0.51309 0.29593 0.0
H46 H 0.24121 0.48984 0.07408 0.0
C47 C 0.19779 0.52141 0.17629 0.0
C48 C 0.20868 0.50964 0.11606 0.0
C49 C 0.21035 0.52244 0.24172 0.0
C50 C 0.2348 0.51244 0.24506 0.0
C51 C 0.24627 0.50096 0.18393 0.0
C52 C 0.23287 0.49929 0.12014 0.0
N53 N 0.27077 0.49029 0.18605 0.0
C54 C 0.28634 0.49247 0.244 0.0
H55 H 0.04543 0.16749 0.29827 0.0
H56 H 0.06106 0.2254 0.42402 0.0
H57 H 0.09976 0.22004 0.2024 0.0
C58 C 0.05493 0.18409 0.30172 0.0
C59 C 0.07256 0.19262 0.24243 0.0
C60 C 0.05084 0.19559 0.36749 0.0
C61 C 0.06394 0.21662 0.37275 0.0
C62 C 0.08126 0.22581 0.31224 0.0
C63 C 0.08598 0.21337 0.2481 0.0
N64 N 0.09465 0.24715 0.31466 0.0
C65 C 0.08705 0.26396 0.36341 0.0
H66 H 0.36286 0.99488 0.29663 0.0
H67 H 0.28732 0.00642 0.40287 0.0
H68 H 0.3006 0.01124 0.16052 0.0
C69 C 0.34256 0.99825 0.29173 0.0
C70 C 0.33377 1.0024 0.22057 0.0
C71 C 0.32606 0.99972 0.35711 0.0
C72 C 0.29994 0.00496 0.35201 0.0
C73 C 0.29056 0.00883 0.2806 0.0
C74 C 0.3077 0.00792 0.21531 0.0
N75 N 0.26431 0.01419 0.27184 0.0
C76 C 0.24428 0.01252 0.32922 0.0
H77 H 0.51144 0.36792 0.2707 0.0
H78 H 0.51496 0.29982 0.38537 0.0
H79 H 0.48559 0.3086 0.16728 0.0
C80 C 0.50821 0.34928 0.27223 0.0
C81 C 0.49741 0.34005 0.21242 0.0
C82 C 0.51491 0.3349 0.334 0.0
C83 C 0.51019 0.31085 0.33686 0.0
C84 C 0.49968 0.30125 0.27619 0.0
C85 C 0.49363 0.31595 0.21393 0.0
N86 N 0.49491 0.27703 0.27542 0.0
C87 C 0.49855 0.26047 0.33422 0.0
C88 C 0.03352 0.96122 0.76512 0.0
N89 N 0.99983 0.98325 0.57009 0.0
C90 C 0.01564 0.96789 0.53504 0.0
C91 C 1.0061 0.95326 0.48576 0.0
C92 C 0.97994 0.95402 0.47386 0.0
C93 C 0.96409 0.97039 0.50857 0.0
C94 C 0.9746 0.98518 0.55619 0.0
Zn95 Zn 0.01364 0.99914 0.65679 0.0
C96 C 0.97314 1.00133 0.78539 0.0
N97 N 0.04331 0.02776 0.84422 0.0
C98 C 0.06834 0.027 0.86071 0.0
C99 C 0.02636 0.04266 0.87697 0.0
C100 C 0.0343 0.05781 0.92684 0.0
C101 C 0.06012 0.05814 0.94276 0.0
C102 C 0.07728 0.0423 0.90982 0.0
Zn103 Zn 0.03016 0.01142 0.75721 0.0
O104 O 0.0229 0.96579 0.70465 0.0
C105 C 0.07066 0.00895 0.6289 0.0
O106 O 0.03944 0.97781 0.8033 0.0
H107 H 1.00687 0.04389 0.8613 0.0
H108 H 0.03539 0.96606 0.54815 0.0
H109 H 0.08166 0.0153 0.83332 0.0
O110 O 0.05127 1.00216 0.59798 0.0
O111 O 0.06748 0.01441 0.69647 0.0
H112 H 0.96229 0.99742 0.58461 0.0
O113 O 0.02064 0.04473 0.70962 0.0
O114 O 1.00473 0.0328 0.61008 0.0
O115 O 0.9926 0.00779 0.81652 0.0
O116 O 0.97624 0.99643 0.71734 0.0
C117 C 0.01039 0.04936 0.64862 0.0
H118 H 0.01873 0.94062 0.4602 0.0
H119 H 0.94378 0.97134 0.50024 0.0
H120 H 0.02056 0.07011 0.94947 0.0
H121 H 0.09739 0.04211 0.92066 0.0
C122 C 0.48016 0.99814 0.63208 0.0
N123 N 0.519 0.05922 0.66832 0.0
C124 C 0.51468 0.06477 0.59533 0.0
C125 C 0.51192 0.08788 0.56842 0.0
C126 C 0.5138 0.10566 0.61671 0.0
C127 C 0.51882 0.09958 0.69149 0.0
C128 C 0.52123 0.07607 0.71643 0.0
Zn129 Zn 0.5215 0.02441 0.70096 0.0
C130 C 0.48692 0.0087 0.83154 0.0
N131 N 0.52559 0.95087 0.75019 0.0
C132 C 0.52601 0.93404 0.70093 0.0
C133 C 0.52618 0.94526 0.82523 0.0
C134 C 0.5266 0.92209 0.85367 0.0
C135 C 0.52678 0.90434 0.80459 0.0
C136 C 0.52682 0.91048 0.72709 0.0
Zn137 Zn 0.52359 0.98571 0.71718 0.0
O138 O 0.48898 0.018 0.64313 0.0
C139 C 0.55802 1.00142 0.58633 0.0
O140 O 0.49209 0.97992 0.6533 0.0
H141 H 0.52621 0.95882 0.86348 0.0
H142 H 0.51322 0.05119 0.5577 0.0
H143 H 0.52557 0.93888 0.64147 0.0
O144 O 0.54784 0.02041 0.60484 0.0
O145 O 0.55071 0.98244 0.62326 0.0
H146 H 0.52469 0.07128 0.77422 0.0
O147 O 0.55518 0.99211 0.78056 0.0
O148 O 0.5538 0.03013 0.76 0.0
O149 O 0.49615 0.9897 0.81013 0.0
O150 O 0.49536 0.02783 0.79779 0.0
C151 C 0.56473 0.01208 0.78715 0.0
H152 H 0.50853 0.09181 0.51003 0.0
H153 H 0.52034 0.1128 0.73052 0.0
H154 H 0.52704 0.91809 0.91366 0.0
H155 H 0.52698 0.89724 0.6875 0.0
C156 C 0.5343 0.46782 0.62877 0.0
N157 N 0.46831 0.50839 0.65727 0.0
C158 C 0.46883 0.50821 0.58129 0.0
C159 C 0.44608 0.50903 0.54637 0.0
C160 C 0.42238 0.50973 0.58984 0.0
C161 C 0.42217 0.50951 0.66835 0.0
C162 C 0.44559 0.50901 0.70118 0.0
Zn163 Zn 0.50349 0.50718 0.69934 0.0
C164 C 0.50736 0.47438 0.82756 0.0
N165 N 0.58009 0.50366 0.76188 0.0
C166 C 0.60264 0.49985 0.72012 0.0
C167 C 0.57965 0.50712 0.83619 0.0
C168 C 0.60236 0.50732 0.87106 0.0
C169 C 0.62592 0.50366 0.82963 0.0
C170 C 0.626 0.49959 0.75336 0.0
Zn171 Zn 0.54493 0.50473 0.71957 0.0
O172 O 0.51291 0.47836 0.63614 0.0
C173 C 0.54134 0.53755 0.59164 0.0
O174 O 0.55361 0.4756 0.65772 0.0
H175 H 0.56155 0.50974 0.86889 0.0
H176 H 0.48699 0.50727 0.54734 0.0
H177 H 0.60253 0.49706 0.66119 0.0
O178 O 0.51802 0.5314 0.6098 0.0
O179 O 0.55898 0.52801 0.62756 0.0
H180 H 0.44563 0.50903 0.76151 0.0
O181 O 0.53555 0.53415 0.78012 0.0
O182 O 0.49443 0.53583 0.76325 0.0
O183 O 0.53052 0.48123 0.81081 0.0
O184 O 0.48972 0.48318 0.78999 0.0
C185 C 0.51395 0.54421 0.78957 0.0
H186 H 0.44702 0.50869 0.48582 0.0
H187 H 0.40417 0.50996 0.70362 0.0
H188 H 0.60145 0.51005 0.93037 0.0
H189 H 0.64387 0.49662 0.71978 0.0
C190 C 0.0617 0.5233 0.60829 0.0
N191 N 0.03374 0.45491 0.65949 0.0
C192 C 0.03682 0.45279 0.58413 0.0
C193 C 0.04139 0.43108 0.55656 0.0
C194 C 0.04287 0.41124 0.60687 0.0
C195 C 0.03977 0.41395 0.68444 0.0
C196 C 0.03515 0.43603 0.70964 0.0
Zn197 Zn 0.02659 0.4873 0.6959 0.0
C198 C 0.05908 0.49924 0.8114 0.0
N199 N 0.01149 0.55606 0.76176 0.0
C200 C 0.00993 0.5753 0.71318 0.0
C201 C 0.00827 0.55752 0.83744 0.0
C202 C 1.00301 0.57881 0.86701 0.0
C203 C 1.00111 0.59896 0.81844 0.0
C204 C 1.00482 0.59707 0.74048 0.0
Zn205 Zn 0.01872 0.52381 0.72418 0.0
O206 O 0.05668 0.50165 0.61842 0.0
C207 C 0.98647 0.51157 0.6078 0.0
O208 O 0.0481 0.53767 0.64436 0.0
H209 H 0.00977 0.54208 0.87521 0.0
H210 H 0.03574 0.468 0.54515 0.0
H211 H 0.01253 0.57375 0.65322 0.0
O212 O 0.9995 0.4931 0.61657 0.0
O213 O 0.99057 0.52864 0.64597 0.0
H214 H 0.03257 0.43809 0.76931 0.0
O215 O 0.98957 0.50958 0.80287 0.0
O216 O 0.99621 0.47361 0.77491 0.0
O217 O 0.04688 0.51817 0.8019 0.0
O218 O 0.05377 0.48209 0.77514 0.0
C219 C 0.9833 0.48819 0.81223 0.0
H220 H 0.04407 0.4299 0.49634 0.0
H221 H 0.04054 0.39911 0.72523 0.0
H222 H 1.0007 0.57951 0.92747 0.0
H223 H 1.00336 0.61216 0.70108 0.0
H224 H 0.20929 0.97779 0.34576 0.0
H225 H 0.22672 0.04406 0.42522 0.0
H226 H 0.16771 0.97661 0.42165 0.0
H227 H 0.18491 0.04325 0.50068 0.0
H228 H 0.11628 0.02334 0.67648 0.0
H229 H 0.15922 0.02347 0.60883 0.0
H230 H 0.12693 0.99676 0.41912 0.0
H231 H 0.08421 0.99631 0.48685 0.0
C232 C 0.20424 0.99198 0.38031 0.0
C233 C 0.22107 0.01094 0.38035 0.0
C234 C 0.18036 0.99145 0.42319 0.0
C235 C 0.1728 0.00994 0.46689 0.0
C236 C 0.19015 0.02864 0.46828 0.0
C237 C 0.21405 0.02916 0.42511 0.0
C238 C 0.11834 0.01754 0.62027 0.0
C239 C 0.09673 0.0098 0.5872 0.0
C240 C 0.14297 0.01769 0.58137 0.0
C241 C 0.14662 0.01 0.50861 0.0
C242 C 0.12496 1.00243 0.4755 0.0
C243 C 0.10037 1.00235 0.5142 0.0
H244 H 0.45984 0.23831 0.42073 0.0
H245 H 0.54232 0.23907 0.36991 0.0
H246 H 0.46275 0.20237 0.50202 0.0
H247 H 0.54545 0.20289 0.45032 0.0
H248 H 0.54332 0.14375 0.63656 0.0
H249 H 0.5393 0.18356 0.57982 0.0
H250 H 0.47271 0.16242 0.47437 0.0
H251 H 0.47645 0.12304 0.53189 0.0
C252 C 0.47863 0.23089 0.42819 0.0
C253 C 0.50087 0.24123 0.38969 0.0
C254 C 0.48031 0.21029 0.47418 0.0
C255 C 0.50432 0.19965 0.48219 0.0
C256 C 0.52671 0.21073 0.44598 0.0
C257 C 0.52497 0.23135 0.39981 0.0
C258 C 0.52761 0.14778 0.60224 0.0
C259 C 0.51031 0.13026 0.58821 0.0
C260 C 0.52543 0.17049 0.56929 0.0
C261 C 0.50571 0.17616 0.52248 0.0
C262 C 0.48795 0.15875 0.51075 0.0
C263 C 0.49024 0.13611 0.54309 0.0
H264 H 0.2989 0.53321 0.29404 0.0
H265 H 0.30961 0.45911 0.32686 0.0
H266 H 0.32826 0.5393 0.39009 0.0
H267 H 0.33926 0.465 0.42232 0.0
H268 H 0.37978 0.48178 0.62409 0.0
H269 H 0.34311 0.47862 0.54889 0.0
H270 H 0.37492 0.53482 0.39368 0.0
H271 H 0.41109 0.53814 0.46918 0.0
C272 C 0.30751 0.51827 0.32242 0.0
C273 C 0.3024 0.49576 0.30344 0.0
C274 C 0.32427 0.5217 0.37713 0.0
C275 C 0.33613 0.50263 0.41365 0.0
C276 C 0.3302 0.48001 0.39593 0.0
C277 C 0.31346 0.47662 0.34104 0.0
C278 C 0.37851 0.49377 0.57486 0.0
C279 C 0.39829 0.51009 0.55202 0.0
C280 C 0.35771 0.49183 0.53149 0.0
C281 C 0.35624 0.50635 0.46507 0.0
C282 C 0.37535 0.5235 0.44479 0.0
C283 C 0.39616 0.5253 0.48769 0.0
H284 H 0.11858 0.2909 0.43085 0.0
H285 H 0.03899 0.27975 0.39502 0.0
H286 H 0.10671 0.32551 0.49638 0.0
H287 H 0.02678 0.31415 0.46164 0.0
H288 H 0.02234 0.39297 0.48906 0.0
H289 H 0.03227 0.35599 0.43683 0.0
H290 H 0.08378 0.33944 0.60876 0.0
H291 H 0.0745 0.37689 0.65954 0.0
C292 C 0.09847 0.29574 0.43831 0.0
C293 C 0.07962 0.28288 0.40844 0.0
C294 C 0.09162 0.31545 0.476 0.0
C295 C 0.06578 0.32267 0.48408 0.0
C296 C 0.04688 0.30926 0.45556 0.0
C297 C 0.05377 0.28952 0.41797 0.0
C298 C 0.03586 0.38149 0.5156 0.0
C299 C 0.04777 0.38799 0.57816 0.0
C300 C 0.04131 0.36014 0.48621 0.0
C301 C 0.05884 0.34472 0.51856 0.0
C302 C 0.07038 0.35101 0.58204 0.0
C303 C 0.06486 0.37237 0.6116 0.0
H304 H 0.84478 0.97657 0.12878 0.0
H305 H 0.8088 0.00957 0.94126 0.0
H306 H 0.88647 0.97827 0.05398 0.0
H307 H 0.85075 0.01168 0.86568 0.0
H308 H 0.92694 0.98986 0.7348 0.0
H309 H 0.88444 0.98739 0.80554 0.0
H310 H 0.91817 0.00743 0.0023 0.0
H311 H 0.96052 0.0096 0.93226 0.0
C312 C 0.84591 0.98416 0.07123 0.0
C313 C 0.8238 0.99293 0.04045 0.0
C314 C 0.86978 0.9853 0.02851 0.0
C315 C 0.87207 0.99527 0.95388 0.0
C316 C 0.84966 1.00373 0.92274 0.0
C317 C 0.8257 1.00263 0.96585 0.0
C318 C 0.92528 0.9937 0.79321 0.0
C319 C 0.94721 0.99981 0.82789 0.0
C320 C 0.90087 0.99243 0.83362 0.0
C321 C 0.89785 0.99712 0.90976 0.0
C322 C 0.9198 1.00335 0.94413 0.0
C323 C 0.94412 0.0047 0.90378 0.0
H324 H 0.55426 0.75608 0.93184 0.0
H325 H 0.53866 0.79093 0.13478 0.0
H326 H 0.54468 0.79204 0.85649 0.0
H327 H 0.52971 0.82685 0.06078 0.0
H328 H 0.49568 0.88366 0.92123 0.0
H329 H 0.49937 0.8448 0.98313 0.0
H330 H 0.56297 0.83067 0.82125 0.0
H331 H 0.5587 0.86955 0.75812 0.0
C332 C 0.54861 0.77146 0.96001 0.0
C333 C 0.54699 0.77097 0.0386 0.0
C334 C 0.54329 0.79203 0.91714 0.0
C335 C 0.53629 0.81235 0.9525 0.0
C336 C 0.5345 0.81149 0.03156 0.0
C337 C 0.53977 0.79099 0.07407 0.0
C338 C 0.51027 0.87214 0.89847 0.0
C339 C 0.52711 0.8797 0.83547 0.0
C340 C 0.51248 0.8499 0.93408 0.0
C341 C 0.53178 0.83471 0.90808 0.0
C342 C 0.5478 0.84185 0.84259 0.0
C343 C 0.54541 0.86412 0.80645 0.0
H344 H 0.7298 0.45825 0.1497 0.0
H345 H 0.75089 0.53068 0.10547 0.0
H346 H 0.70183 0.46164 0.04675 0.0
H347 H 0.72332 0.5342 0.00156 0.0
H348 H 0.64139 0.53635 0.91704 0.0
H349 H 0.67669 0.53383 -0.00282 0.0
H350 H 0.69999 0.4687 0.90933 0.0
H351 H 0.6641 0.47112 0.82964 0.0
C352 C 0.72862 0.4748 0.11699 0.0
C353 C 0.74209 0.49428 0.13511 0.0
C354 C 0.71285 0.47673 0.05779 0.0
C355 C 0.71032 0.49822 0.01608 0.0
C356 C 0.72465 0.51749 0.03314 0.0
C357 C 0.74042 0.51551 0.09228 0.0
C358 C 0.6543 0.52167 0.91409 0.0
C359 C 0.64993 0.50382 0.86777 0.0
C360 C 0.67464 0.52029 0.95956 0.0
C361 C 0.69105 0.50098 0.95997 0.0
C362 C 0.68747 0.48366 0.91079 0.0
C363 C 0.66714 0.48514 0.86472 0.0
H364 H 0.93083 0.71654 0.03484 0.0
H365 H 0.01254 0.73038 0.01913 0.0
H366 H 0.93855 0.68231 0.96389 0.0
H367 H 0.02056 0.69587 0.94894 0.0
H368 H 0.0233 0.64164 0.77406 0.0
H369 H 0.0144 0.67852 0.82979 0.0
H370 H 0.95696 0.64405 0.99034 0.0
H371 H 0.96536 0.60754 0.93367 0.0
C372 C 0.95044 0.71227 0.01541 0.0
C373 C 0.97113 0.72586 0.03197 0.0
C374 C 0.9549 0.69265 0.97531 0.0
C375 C 0.98019 0.68626 0.95121 0.0
C376 C 1.00086 0.70043 0.96607 0.0
C377 C 0.99634 0.72007 0.00639 0.0
C378 C 0.00856 0.64206 0.82063 0.0
C379 C 0.99511 0.62166 0.84965 0.0
C380 C 1.00363 0.66311 0.85298 0.0
C381 C 0.98498 0.66423 0.91452 0.0
C382 C 0.97125 0.64388 0.94249 0.0
C383 C 0.97626 0.62288 0.91053 0.0
H384 H 1.00147 0.17953 0.37431 0.0
H385 H 0.06706 0.18214 0.50366 0.0
H386 H 0.98374 0.14665 0.4577 0.0
H387 H 0.0498 0.14909 0.58621 0.0
H388 H 0.99761 0.06675 0.51025 0.0
H389 H 0.99987 0.1072 0.4593 0.0
H390 H 0.0182 0.1283 0.67434 0.0
H391 H 0.01644 0.08778 0.72487 0.0
C392 C 0.01149 0.17367 0.42265 0.0
C393 C 0.0357 0.18316 0.43239 0.0
C394 C 1.00155 0.15467 0.46977 0.0
C395 C 0.01569 0.14483 0.52729 0.0
C396 C 0.03835 0.15621 0.54251 0.0
C397 C 0.04824 0.17527 0.49546 0.0
C398 C 1.00159 0.08005 0.54706 0.0
C399 C 1.00727 0.074 0.62111 0.0
C400 C 1.0027 0.10332 0.51809 0.0
C401 C 0.00942 0.12103 0.56267 0.0
C402 C 0.01335 0.11507 0.63825 0.0
C403 C 0.01231 0.09183 0.66714 0.0
H404 H 0.34228 0.03539 0.42854 0.0
H405 H 0.33964 0.96058 0.43825 0.0
H406 H 0.37783 0.0337 0.50693 0.0
H407 H 0.3744 0.95845 0.5212 0.0
H408 H 0.44062 0.02759 0.65614 0.0
H409 H 0.39775 0.02588 0.61439 0.0
H410 H 0.41883 0.9641 0.50181 0.0
H411 H 0.46134 0.96503 0.54897 0.0
C412 C 0.34834 0.01854 0.45159 0.0
C413 C 0.33811 0.99814 0.42841 0.0
C414 C 0.36895 0.01747 0.49628 0.0
C415 C 0.37955 0.99588 0.51954 0.0
C416 C 0.36732 0.97539 0.5027 0.0
C417 C 0.34696 0.97653 0.4568 0.0
C418 C 0.43605 0.01362 0.62243 0.0
C419 C 0.45444 0.99668 0.60442 0.0
C420 C 0.41141 0.01264 0.59837 0.0
C421 C 0.40466 0.99503 0.55374 0.0
C422 C 0.42301 0.97775 0.53703 0.0
C423 C 0.44755 0.9784 0.56303 0.0
H424 H 0.55854 0.36095 0.32652 0.0
H425 H 0.49389 0.33529 0.47837 0.0
H426 H 0.56726 0.39037 0.41171 0.0
H427 H 0.50268 0.3646 0.5644 0.0
H428 H 0.49407 0.44409 0.58494 0.0
H429 H 0.49442 0.40687 0.53157 0.0
H430 H 0.57692 0.40304 0.5391 0.0
H431 H 0.57665 0.44079 0.59376 0.0
C432 C 0.54695 0.36099 0.37992 0.0
C433 C 0.52544 0.3461 0.39593 0.0
C434 C 0.55193 0.3778 0.42867 0.0
C435 C 0.53532 0.38006 0.49384 0.0
C436 C 0.51555 0.36342 0.51385 0.0
C437 C 0.51066 0.34651 0.46519 0.0
C438 C 0.51237 0.43542 0.57549 0.0
C439 C 0.53539 0.44553 0.59315 0.0
C440 C 0.51249 0.41385 0.54589 0.0
C441 C 0.53563 0.40183 0.53246 0.0
C442 C 0.55878 0.41189 0.54951 0.0
C443 C 0.55864 0.43351 0.58027 0.0
H444 H 0.18174 0.56199 0.25191 0.0
H445 H 0.20497 0.50072 0.38268 0.0
H446 H 0.14775 0.5688 0.35081 0.0
H447 H 0.1711 0.50734 0.48086 0.0
H448 H 0.10929 0.5229 0.65426 0.0
H449 H 0.15005 0.52996 0.57619 0.0
H450 H 0.10771 0.54665 0.38257 0.0
H451 H 0.0671 0.5401 0.46172 0.0
C452 C 0.18004 0.55039 0.30281 0.0
C453 C 0.19571 0.53064 0.30923 0.0
C454 C 0.16052 0.55421 0.35914 0.0
C455 C 0.15638 0.53835 0.42289 0.0
C456 C 0.17381 0.51998 0.43268 0.0
C457 C 0.19333 0.51618 0.37639 0.0
C458 C 0.1089 0.52866 0.59527 0.0
C459 C 0.0854 0.53103 0.56329 0.0
C460 C 0.13212 0.5326 0.55065 0.0
C461 C 0.13214 0.53876 0.47315 0.0
C462 C 0.10839 0.54228 0.44226 0.0
C463 C 0.08516 0.53841 0.48713 0.0
H464 H 0.04118 0.83179 0.04182 0.0
H465 H 0.9771 0.82887 0.90708 0.0
H466 H 0.06005 0.86402 0.95763 0.0
H467 H 0.99534 0.86137 0.82384 0.0
H468 H 0.02851 0.92285 0.6879 0.0
H469 H 0.02718 0.88227 0.73782 0.0
H470 H 0.04411 0.90336 0.95418 0.0
H471 H 0.04603 0.94385 0.90377 0.0
C472 C 0.03188 0.83729 -0.00823 0.0
C473 C 1.00781 0.82792 0.98041 0.0
C474 C 0.04241 0.85599 0.94432 0.0
C475 C 0.02887 0.8657 0.88522 0.0
C476 C 1.00637 0.85434 0.86863 0.0
C477 C 0.99593 0.83556 0.91597 0.0
C478 C 0.03244 0.91878 0.7458 0.0
C479 C 0.03695 0.93661 0.79236 0.0
C480 C 0.03166 0.8955 0.77433 0.0
C481 C 0.03528 0.88951 0.85013 0.0
C482 C 0.04154 0.90725 0.89523 0.0
C483 C 0.04244 0.93055 0.86657 0.0
H484 H 0.6968 0.05055 0.00712 0.0
H485 H 0.71213 0.97984 0.95632 0.0
H486 H 0.66132 0.05215 0.92798 0.0
H487 H 0.67718 0.98155 0.87397 0.0
H488 H 0.58941 0.97818 0.86716 0.0
H489 H 0.63213 0.97988 0.9105 0.0
H490 H 0.64082 0.05115 0.81603 0.0
H491 H 0.5975 0.04964 0.77494 0.0
C492 C 0.69344 0.03579 0.97536 0.0
C493 C 0.70699 0.01502 0.98809 0.0
C494 C 0.67295 0.03662 0.93024 0.0
C495 C 0.6658 0.01671 0.89643 0.0
C496 C 0.68166 0.99696 0.9012 0.0
C497 C 0.70207 0.9961 0.94696 0.0
C498 C 0.60036 0.99427 0.85602 0.0
C499 C 0.58993 0.01385 0.81835 0.0
C500 C 0.6251 0.99514 0.87976 0.0
C501 C 0.64021 0.01555 0.8658 0.0
C502 C 0.62973 0.03517 0.82811 0.0
C503 C 0.60483 0.03436 0.80491 0.0
H504 H 0.554 0.67719 0.93563 0.0
H505 H 0.49136 0.65047 0.09337 0.0
H506 H 0.54418 0.64825 0.84962 0.0
H507 H 0.48172 0.62134 0.00826 0.0
H508 H 0.47126 0.57042 0.82865 0.0
H509 H 0.4708 0.60827 0.88276 0.0
H510 H 0.55371 0.60628 0.88073 0.0
H511 H 0.55426 0.569 0.82793 0.0
C512 C 0.53741 0.66583 0.95028 0.0
C513 C 0.52364 0.66577 0.02125 0.0
C514 C 0.53194 0.64912 0.90154 0.0
C515 C 0.51259 0.6322 0.92321 0.0
C516 C 0.49675 0.6341 0.99007 0.0
C517 C 0.50228 0.65075 0.03882 0.0
C518 C 0.48932 0.57814 0.83987 0.0
C519 C 0.51275 0.5666 0.82455 0.0
C520 C 0.48906 0.59982 0.87032 0.0
C521 C 0.51226 0.61043 0.88457 0.0
C522 C 0.53557 0.59889 0.86857 0.0
C523 C 0.53582 0.57728 0.8393 0.0
H524 H 0.83299 0.49031 0.05013 0.0
H525 H 0.87312 0.43613 0.172 0.0
H526 H 0.86616 0.49012 0.94534 0.0
H527 H 0.90688 0.43661 0.06795 0.0
H528 H 0.96359 0.44404 0.85231 0.0
H529 H 0.92319 0.43374 0.93004 0.0
H530 H 0.90973 0.50652 0.95836 0.0
H531 H 0.94944 0.51674 0.88229 0.0
C532 C 0.84832 0.47772 0.05346 0.0
C533 C 0.8508 0.46364 0.12003 0.0
C534 C 0.86748 0.47778 -0.0063 0.0
C535 C 0.88944 0.46385 -0.00038 0.0
C536 C 0.89026 0.44764 0.06207 0.0
C537 C 0.87102 0.44749 0.12181 0.0
C538 C 0.95194 0.45776 0.87535 0.0
C539 C 0.95978 0.48118 0.86138 0.0
C540 C 0.92882 0.45187 0.91935 0.0
C541 C 0.91308 0.46937 0.94883 0.0
C542 C 0.92106 0.49268 0.93473 0.0
C543 C 0.94408 0.49851 0.89187 0.0
H544 H 0.03821 0.18245 0.14608 0.0
H545 H 0.11637 0.16957 0.19812 0.0
H546 H 0.04011 0.14934 0.06912 0.0
H547 H 0.11835 0.13621 0.12031 0.0
H548 H 0.10209 0.08736 0.91271 0.0
H549 H 0.11006 0.12285 0.97497 0.0
H550 H 0.04474 0.10588 0.13618 0.0
H551 H 0.03709 0.07049 0.07563 0.0
C552 C 0.05615 0.17307 0.13834 0.0
C553 C 0.07715 0.17847 0.17762 0.0
C554 C 0.05717 0.15404 0.09505 0.0
C555 C 0.07921 0.14009 0.0902 0.0
C556 C 0.10117 0.14677 0.12341 0.0
C557 C 0.1001 0.16588 0.16727 0.0
C558 C 0.08998 0.0909 0.96286 0.0
C559 C 0.06876 0.07637 0.98886 0.0
C560 C 0.09444 0.11123 -0.00204 0.0
C561 C 0.0776 0.11724 0.05896 0.0
C562 C 0.05764 0.10181 0.08812 0.0
C563 C 0.05333 0.08156 0.05369 0.0
H564 H 0.34168 0.0346 0.09885 0.0
H565 H 0.36936 0.96913 0.19297 0.0
H566 H 0.37799 0.03631 0.0012 0.0
H567 H 0.40603 0.97129 0.09921 0.0
H568 H 0.45916 0.97052 0.88978 0.0
H569 H 0.41995 0.9687 0.97339 0.0
H570 H 0.42383 0.04308 0.9875 0.0
H571 H 0.46284 0.04505 0.89977 0.0
C572 C 0.35527 0.02041 0.09783 0.0
C573 C 0.35275 1.00178 0.15362 0.0
C574 C 0.37632 0.02156 0.04279 0.0
C575 C 0.3952 1.00407 0.04256 0.0
C576 C 0.39187 0.98499 0.09666 0.0
C577 C 0.37087 0.98378 0.15094 0.0
C578 C 0.45186 0.98654 0.91098 0.0
C579 C 0.46437 0.00793 0.88859 0.0
C580 C 0.42926 0.98548 0.95925 0.0
C581 C 0.41865 0.00571 0.98784 0.0
C582 C 0.43122 0.02717 0.96584 0.0
C583 C 0.45377 0.02828 0.91639 0.0
H584 H 0.46604 0.37764 0.21519 0.0
H585 H 0.51616 0.33907 0.06598 0.0
H586 H 0.4644 0.40932 0.11622 0.0
H587 H 0.51471 0.37083 0.967 0.0
H588 H 0.4604 0.45648 0.89017 0.0
H589 H 0.45293 0.42131 0.97681 0.0
H590 H 0.53508 0.41167 0.97553 0.0
H591 H 0.54262 0.44655 0.89126 0.0
C592 C 0.47605 0.37571 0.16035 0.0
C593 C 0.49134 0.35607 0.14797 0.0
C594 C 0.47506 0.39376 0.10383 0.0
C595 C 0.48965 0.39257 0.03448 0.0
C596 C 0.50343 0.37218 0.02033 0.0
C597 C 0.50414 0.35398 0.07656 0.0
C598 C 0.4768 0.4469 0.90897 0.0
C599 C 0.50208 0.45438 0.88406 0.0
C600 C 0.47252 0.42678 0.95808 0.0
C601 C 0.49345 0.41361 0.98152 0.0
C602 C 0.51861 0.42123 0.95705 0.0
C603 C 0.52288 0.44141 0.90942 0.0
H604 H 0.18968 0.46906 0.076 0.0
H605 H 0.19079 0.54322 0.02039 0.0
H606 H 0.15377 0.46499 -0.00101 0.0
H607 H 0.15563 0.53927 0.94119 0.0
H608 H 0.07151 0.5301 0.90973 0.0
H609 H 0.11061 0.53138 0.97344 0.0
H610 H 0.1368 0.46826 0.87712 0.0
H611 H 0.09714 0.46662 0.81486 0.0
C612 C 0.18287 0.48433 0.04467 0.0
C613 C 0.19285 0.50643 0.05366 0.0
C614 C 0.16226 0.48206 0.00093 0.0
C615 C 0.15145 0.50188 0.9654 0.0
C616 C 0.16302 0.52374 0.96958 0.0
C617 C 0.18338 0.52601 0.01383 0.0
C618 C 0.08547 0.51635 0.90274 0.0
C619 C 0.08125 0.49829 0.85721 0.0
C620 C 0.10806 0.51723 0.93849 0.0
C621 C 0.12711 0.50019 0.92902 0.0
C622 C 0.12251 0.48165 0.88555 0.0
C623 C 0.09976 0.48068 0.85008 0.0
H624 H 0.96893 0.82121 0.31395 0.0
H625 H 0.94225 0.86527 0.1312 0.0
H626 H 0.96489 0.85373 0.39426 0.0
H627 H 0.93844 0.89771 0.21086 0.0
H628 H 0.94722 0.91831 0.52443 0.0
H629 H 0.93549 0.88549 0.45442 0.0
H630 H 0.97801 0.91764 0.25434 0.0
H631 H 0.99003 0.94997 0.32466 0.0
C632 C 0.96128 0.83756 0.292 0.0
C633 C 0.95626 0.8409 0.21629 0.0
C634 C 0.95901 0.85617 0.33776 0.0
C635 C 0.95178 0.87829 0.30813 0.0
C636 C 0.9444 0.88092 0.23463 0.0
C637 C 0.94652 0.86237 0.18924 0.0
C638 C 0.95346 0.91847 0.46502 0.0
C639 C 0.96931 0.93657 0.42931 0.0
C640 C 0.94692 0.89973 0.42529 0.0
C641 C 0.95575 0.89912 0.34904 0.0
C642 C 0.97062 0.91783 0.3128 0.0
C643 C 0.97755 0.93628 0.3528 0.0
H644 H 0.70162 0.97298 0.31564 0.0
H645 H 0.67696 0.04034 0.22773 0.0
H646 H 0.66556 0.97187 0.41383 0.0
H647 H 0.64038 0.03873 0.32152 0.0
H648 H 0.5866 0.03931 0.52981 0.0
H649 H 0.62589 0.04069 0.44627 0.0
H650 H 0.62 0.96656 0.42861 0.0
H651 H 0.58109 0.96504 0.51639 0.0
C652 C 0.68873 0.98768 0.31804 0.0
C653 C 0.69201 0.00667 0.2637 0.0
C654 C 0.6678 0.98689 0.37341 0.0
C655 C 0.64973 0.00507 0.37536 0.0
C656 C 0.65387 0.02448 0.32283 0.0
C657 C 0.67481 0.02535 0.26838 0.0
C658 C 0.5935 0.02328 0.50768 0.0
C659 C 0.5805 1.00209 0.52914 0.0
C660 C 0.61613 0.02408 0.4595 0.0
C661 C 0.62623 1.00376 0.42999 0.0
C662 C 0.61309 0.98252 0.45102 0.0
C663 C 0.59057 0.98167 0.50051 0.0
H664 H 0.53842 0.67304 0.34922 0.0
H665 H 0.58247 0.63083 0.19657 0.0
H666 H 0.5392 0.64158 0.44946 0.0
H667 H 0.58345 0.59945 0.29676 0.0
H668 H 0.58844 0.5528 0.52225 0.0
H669 H 0.59688 0.58737 0.43361 0.0
H670 H 0.51543 0.60197 0.44785 0.0
H671 H 0.50691 0.56766 0.53425 0.0
C672 C 0.54901 0.65735 0.33801 0.0
C673 C 0.56026 0.65421 0.26546 0.0
C674 C 0.54931 0.63933 0.39498 0.0
C675 C 0.56118 0.61805 0.38039 0.0
C676 C 0.57429 0.6157 0.3095 0.0
C677 C 0.57367 0.63358 0.2523 0.0
C678 C 0.57239 0.56336 0.50599 0.0
C679 C 0.54702 0.55741 0.53494 0.0
C680 C 0.57723 0.58313 0.45569 0.0
C681 C 0.55683 0.59749 0.4351 0.0
C682 C 0.53156 0.59146 0.46397 0.0
C683 C 0.52669 0.57161 0.51281 0.0
H684 H 0.84859 0.52494 0.35984 0.0
H685 H 0.86422 0.45194 0.40318 0.0
H686 H 0.88441 0.53471 0.43169 0.0
H687 H 0.89938 0.46146 0.47662 0.0
H688 H 0.98033 0.48375 0.4959 0.0
H689 H 0.94154 0.47806 0.434 0.0
H690 H 0.90382 0.53255 0.5537 0.0
H691 H 0.94319 0.53864 0.61496 0.0
C692 C 0.8591 0.51102 0.38728 0.0
C693 C 0.85383 0.48772 0.37629 0.0
C694 C 0.87965 0.51658 0.42797 0.0
C695 C 0.89511 0.49887 0.45813 0.0
C696 C 0.88829 0.47552 0.4522 0.0
C697 C 0.86799 0.47002 0.41118 0.0
C698 C 0.96391 0.49478 0.50823 0.0
C699 C 0.96471 0.51151 0.56066 0.0
C700 C 0.94157 0.49134 0.47344 0.0
C701 C 0.91936 0.50439 0.49068 0.0
C702 C 0.92058 0.52214 0.53969 0.0
C703 C 0.94314 0.52569 0.5744 0.0
loop_
_geom_bond_atom_site_label_1
_geom_bond_atom_site_label_2
_geom_bond_distance
_geom_bond_site_symmetry_2
_ccdc_geom_bond_type
H0 C3 0.929 . S
H1 C6 0.929 . S
H2 C8 0.930 . S
C3 H0 0.929 . S
C3 C4 1.398 . S
C3 C5 1.396 . S
C4 C3 1.398 . S
C4 C8 1.407 . S
C5 C3 1.396 . S
C5 C6 1.394 . S
C6 H1 0.929 . S
C6 C5 1.394 . S
C6 C7 1.382 . S
C7 C6 1.382 . S
C7 C8 1.392 . S
C7 N9 1.420 . S
C8 H2 0.930 . S
C8 C4 1.407 . S
C8 C7 1.392 . S
N9 C7 1.420 . S
N9 C10 1.244 . S
C10 N9 1.244 . S
H11 C14 0.929 . S
H12 C17 0.929 . S
H13 C19 0.930 . S
C14 H11 0.929 . S
C14 C15 1.398 . S
C14 C16 1.396 1_554 S
C15 C14 1.398 . S
C15 C19 1.407 . S
C16 C14 1.396 1_556 S
C16 C17 1.394 . S
C17 H12 0.929 . S
C17 C16 1.394 . S
C17 C18 1.382 1_556 S
C18 C17 1.382 1_554 S
C18 C19 1.392 . S
C18 N20 1.420 . S
C19 H13 0.930 . S
C19 C15 1.407 . S
C19 C18 1.392 . S
N20 C18 1.420 . S
N20 C21 1.244 1_554 S
C21 N20 1.244 1_556 S
H22 C25 0.929 . S
H23 C28 0.929 1_556 S
H24 C30 0.930 . S
C25 H22 0.929 . S
C25 C26 1.393 1_565 S
C25 C27 1.396 1_565 S
C26 C25 1.393 1_545 S
C26 C30 1.413 . S
C27 C25 1.396 1_545 S
C27 C28 1.396 . S
C28 H23 0.929 1_554 S
C28 C27 1.396 . S
C28 C29 1.382 . S
C29 C28 1.382 . S
C29 C30 1.392 . S
C29 N31 1.420 . S
C30 H24 0.930 . S
C30 C26 1.413 . S
C30 C29 1.392 . S
N31 C29 1.420 . S
N31 C32 1.230 1_545 S
C32 N31 1.230 1_565 S
H33 C36 0.929 . S
H34 C39 0.929 1_556 S
H35 C41 0.930 . S
C36 H33 0.929 . S
C36 C37 1.398 . S
C36 C38 1.396 . S
C37 C36 1.398 . S
C37 C41 1.407 . S
C38 C36 1.396 . S
C38 C39 1.394 . S
C39 H34 0.929 1_554 S
C39 C38 1.394 . S
C39 C40 1.382 . S
C40 C39 1.382 . S
C40 C41 1.392 . S
C40 N42 1.420 . S
C41 H35 0.930 . S
C41 C37 1.407 . S
C41 C40 1.392 . S
N42 C40 1.420 . S
N42 C43 1.244 . S
C43 N42 1.244 . S
H44 C47 0.929 . S
H45 C50 0.929 . S
H46 C52 0.930 . S
C47 H44 0.929 . S
C47 C48 1.398 . S
C47 C49 1.396 . S
C48 C47 1.398 . S
C48 C52 1.407 . S
C49 C47 1.396 . S
C49 C50 1.394 . S
C50 H45 0.929 . S
C50 C49 1.394 . S
C50 C51 1.382 . S
C51 C50 1.382 . S
C51 C52 1.392 . S
C51 N53 1.420 . S
C52 H46 0.930 . S
C52 C48 1.407 . S
C52 C51 1.392 . S
N53 C51 1.420 . S
N53 C54 1.244 . S
C54 N53 1.244 . S
H55 C58 0.929 . S
H56 C61 0.929 . S
H57 C63 0.930 . S
C58 H55 0.929 . S
C58 C59 1.398 . S
C58 C60 1.396 . S
C59 C58 1.398 . S
C59 C63 1.407 . S
C60 C58 1.396 . S
C60 C61 1.394 . S
C61 H56 0.929 . S
C61 C60 1.394 . S
C61 C62 1.382 . S
C62 C61 1.382 . S
C62 C63 1.392 . S
C62 N64 1.420 . S
C63 H57 0.930 . S
C63 C59 1.407 . S
C63 C62 1.392 . S
N64 C62 1.420 . S
N64 C65 1.244 . S
C65 N64 1.244 . S
H66 C69 0.929 . S
H67 C72 0.929 . S
H68 C74 0.930 . S
C69 H66 0.929 . S
C69 C70 1.397 1_565 S
C69 C71 1.392 1_565 S
C70 C69 1.397 1_545 S
C70 C74 1.416 . S
C71 C69 1.392 1_545 S
C71 C72 1.399 . S
C72 H67 0.929 . S
C72 C71 1.399 . S
C72 C73 1.382 . S
C73 C72 1.382 . S
C73 C74 1.392 . S
C73 N75 1.420 . S
C74 H68 0.930 . S
C74 C70 1.416 . S
C74 C73 1.392 . S
N75 C73 1.420 . S
N75 C76 1.238 1_545 S
C76 N75 1.238 1_565 S
H77 C80 0.929 . S
H78 C83 0.929 . S
H79 C85 0.930 . S
C80 H77 0.929 . S
C80 C81 1.398 . S
C80 C82 1.396 . S
C81 C80 1.398 . S
C81 C85 1.407 . S
C82 C80 1.396 . S
C82 C83 1.394 . S
C83 H78 0.929 . S
C83 C82 1.394 . S
C83 C84 1.382 . S
C84 C83 1.382 . S
C84 C85 1.392 . S
C84 N86 1.420 . S
C85 H79 0.930 . S
C85 C81 1.407 . S
C85 C84 1.392 . S
N86 C84 1.420 . S
N86 C87 1.244 . S
C87 N86 1.244 . S
C88 O104 1.251 . S
C88 O106 1.254 . S
N89 C90 1.333 . S
N89 C94 1.307 1_455 S
N89 Zn95 2.020 . S
C90 N89 1.333 . S
C90 C91 1.379 . S
C90 H108 0.952 . S
C91 C90 1.379 . S
C91 C92 1.390 1_455 S
C91 H118 0.949 . S
C92 C91 1.390 1_655 S
C92 C93 1.357 . S
C93 C92 1.357 . S
C93 C94 1.370 . S
C93 H119 0.950 . S
C94 N89 1.307 1_655 S
C94 C93 1.370 . S
C94 H112 0.948 . S
Zn95 N89 2.020 . S
Zn95 O104 2.039 . S
Zn95 O110 2.034 . S
Zn95 O114 2.025 1_565 S
Zn95 O116 2.024 1_455 S
C96 O115 1.246 . S
C96 O116 1.249 1_545 S
N97 C98 1.307 . S
N97 C99 1.333 . S
N97 Zn103 2.020 . S
C98 N97 1.307 . S
C98 C102 1.370 . S
C98 H109 0.948 . S
C99 N97 1.333 . S
C99 C100 1.379 . S
C99 H107 0.952 . S
C100 C99 1.379 . S
C100 C101 1.390 1_556 S
C100 H120 0.949 . S
C101 C100 1.390 1_554 S
C101 C102 1.357 1_554 S
C102 C98 1.370 . S
C102 C101 1.357 1_556 S
C102 H121 0.950 1_556 S
Zn103 N97 2.020 . S
Zn103 O106 2.025 1_545 S
Zn103 O111 2.024 . S
Zn103 O113 2.039 . S
Zn103 O115 2.034 1_455 S
O104 C88 1.251 . S
O104 Zn95 2.039 . S
C105 O110 1.246 . S
C105 O111 1.249 1_565 S
O106 C88 1.254 . S
O106 Zn103 2.025 1_565 S
H107 C99 0.952 . S
H108 C90 0.952 . S
H109 C98 0.948 . S
O110 Zn95 2.034 . S
O110 C105 1.246 . S
O111 Zn103 2.024 . S
O111 C105 1.249 1_545 S
H112 C94 0.948 . S
O113 Zn103 2.039 . S
O113 C117 1.251 . S
O114 Zn95 2.025 1_545 S
O114 C117 1.254 . S
O115 C96 1.246 . S
O115 Zn103 2.034 1_655 S
O116 Zn95 2.024 1_655 S
O116 C96 1.249 1_565 S
C117 O113 1.251 . S
C117 O114 1.254 . S
H118 C91 0.949 . S
H119 C93 0.950 . S
H120 C100 0.949 . S
H121 C102 0.950 1_554 S
C122 O138 1.251 1_565 S
C122 O140 1.254 . S
N123 C124 1.333 . S
N123 C128 1.307 . S
N123 Zn129 2.020 . S
C124 N123 1.333 . S
C124 C125 1.379 . S
C124 H142 0.952 . S
C125 C124 1.379 . S
C125 C126 1.390 . S
C125 H152 0.949 . S
C126 C125 1.390 . S
C126 C127 1.357 . S
C127 C126 1.357 . S
C127 C128 1.370 . S
C127 H153 0.950 . S
C128 N123 1.307 . S
C128 C127 1.370 . S
C128 H146 0.948 . S
Zn129 N123 2.020 . S
Zn129 O138 2.039 . S
Zn129 O144 2.034 . S
Zn129 O148 2.025 . S
Zn129 O150 2.024 . S
C130 O149 1.246 1_545 S
C130 O150 1.249 . S
N131 C132 1.307 . S
N131 C133 1.333 . S
N131 Zn137 2.020 . S
C132 N131 1.307 . S
C132 C136 1.370 . S
C132 H143 0.948 . S
C133 N131 1.333 . S
C133 C134 1.379 . S
C133 H141 0.952 . S
C134 C133 1.379 . S
C134 C135 1.390 . S
C134 H154 0.949 . S
C135 C134 1.390 . S
C135 C136 1.357 . S
C136 C132 1.370 . S
C136 C135 1.357 . S
C136 H155 0.950 . S
Zn137 N131 2.020 . S
Zn137 O140 2.025 . S
Zn137 O145 2.024 . S
Zn137 O147 2.039 . S
Zn137 O149 2.034 . S
O138 C122 1.251 1_545 S
O138 Zn129 2.039 . S
C139 O144 1.246 1_565 S
C139 O145 1.249 . S
O140 C122 1.254 . S
O140 Zn137 2.025 . S
H141 C133 0.952 . S
H142 C124 0.952 . S
H143 C132 0.948 . S
O144 Zn129 2.034 . S
O144 C139 1.246 1_545 S
O145 Zn137 2.024 . S
O145 C139 1.249 . S
H146 C128 0.948 . S
O147 Zn137 2.039 . S
O147 C151 1.251 1_565 S
O148 Zn129 2.025 . S
O148 C151 1.254 . S
O149 C130 1.246 1_565 S
O149 Zn137 2.034 . S
O150 Zn129 2.024 . S
O150 C130 1.249 . S
C151 O147 1.251 1_545 S
C151 O148 1.254 . S
H152 C125 0.949 . S
H153 C127 0.950 . S
H154 C134 0.949 . S
H155 C136 0.950 . S
C156 O172 1.251 . S
C156 O174 1.254 . S
N157 C158 1.333 . S
N157 C162 1.307 . S
N157 Zn163 2.020 . S
C158 N157 1.333 . S
C158 C159 1.379 . S
C158 H176 0.952 . S
C159 C158 1.379 . S
C159 C160 1.390 . S
C159 H186 0.949 . S
C160 C159 1.390 . S
C160 C161 1.357 . S
C161 C160 1.357 . S
C161 C162 1.370 . S
C161 H187 0.950 . S
C162 N157 1.307 . S
C162 C161 1.370 . S
C162 H180 0.948 . S
Zn163 N157 2.020 . S
Zn163 O172 2.039 . S
Zn163 O178 2.034 . S
Zn163 O182 2.025 . S
Zn163 O184 2.024 . S
C164 O183 1.246 . S
C164 O184 1.249 . S
N165 C166 1.307 . S
N165 C167 1.333 . S
N165 Zn171 2.020 . S
C166 N165 1.307 . S
C166 C170 1.370 . S
C166 H177 0.948 . S
C167 N165 1.333 . S
C167 C168 1.379 . S
C167 H175 0.952 . S
C168 C167 1.379 . S
C168 C169 1.390 . S
C168 H188 0.949 . S
C169 C168 1.390 . S
C169 C170 1.357 . S
C170 C166 1.370 . S
C170 C169 1.357 . S
C170 H189 0.950 . S
Zn171 N165 2.020 . S
Zn171 O174 2.025 . S
Zn171 O179 2.024 . S
Zn171 O181 2.039 . S
Zn171 O183 2.034 . S
O172 C156 1.251 . S
O172 Zn163 2.039 . S
C173 O178 1.246 . S
C173 O179 1.249 . S
O174 C156 1.254 . S
O174 Zn171 2.025 . S
H175 C167 0.952 . S
H176 C158 0.952 . S
H177 C166 0.948 . S
O178 Zn163 2.034 . S
O178 C173 1.246 . S
O179 Zn171 2.024 . S
O179 C173 1.249 . S
H180 C162 0.948 . S
O181 Zn171 2.039 . S
O181 C185 1.251 . S
O182 Zn163 2.025 . S
O182 C185 1.254 . S
O183 C164 1.246 . S
O183 Zn171 2.034 . S
O184 Zn163 2.024 . S
O184 C164 1.249 . S
C185 O181 1.251 . S
C185 O182 1.254 . S
H186 C159 0.949 . S
H187 C161 0.950 . S
H188 C168 0.949 . S
H189 C170 0.950 . S
C190 O206 1.251 . S
C190 O208 1.254 . S
N191 C192 1.333 . S
N191 C196 1.307 . S
N191 Zn197 2.020 . S
C192 N191 1.333 . S
C192 C193 1.379 . S
C192 H210 0.952 . S
C193 C192 1.379 . S
C193 C194 1.390 . S
C193 H220 0.949 . S
C194 C193 1.390 . S
C194 C195 1.357 . S
C195 C194 1.357 . S
C195 C196 1.370 . S
C195 H221 0.950 . S
C196 N191 1.307 . S
C196 C195 1.370 . S
C196 H214 0.948 . S
Zn197 N191 2.020 . S
Zn197 O206 2.039 . S
Zn197 O212 2.034 1_455 S
Zn197 O216 2.025 1_455 S
Zn197 O218 2.024 . S
C198 O217 1.246 . S
C198 O218 1.249 . S
N199 C200 1.307 . S
N199 C201 1.333 1_455 S
N199 Zn205 2.020 . S
C200 N199 1.307 . S
C200 C204 1.370 . S
C200 H211 0.948 . S
C201 N199 1.333 1_655 S
C201 C202 1.379 . S
C201 H209 0.952 . S
C202 C201 1.379 . S
C202 C203 1.390 1_655 S
C202 H222 0.949 . S
C203 C202 1.390 1_455 S
C203 C204 1.357 . S
C204 C200 1.370 . S
C204 C203 1.357 . S
C204 H223 0.950 . S
Zn205 N199 2.020 . S
Zn205 O208 2.025 . S
Zn205 O213 2.024 1_455 S
Zn205 O215 2.039 1_455 S
Zn205 O217 2.034 . S
O206 C190 1.251 . S
O206 Zn197 2.039 . S
C207 O212 1.246 . S
C207 O213 1.249 . S
O208 C190 1.254 . S
O208 Zn205 2.025 . S
H209 C201 0.952 . S
H210 C192 0.952 . S
H211 C200 0.948 . S
O212 Zn197 2.034 1_655 S
O212 C207 1.246 . S
O213 Zn205 2.024 1_655 S
O213 C207 1.249 . S
H214 C196 0.948 . S
O215 Zn205 2.039 1_655 S
O215 C219 1.251 . S
O216 Zn197 2.025 1_655 S
O216 C219 1.254 . S
O217 C198 1.246 . S
O217 Zn205 2.034 . S
O218 Zn197 2.024 . S
O218 C198 1.249 . S
C219 O215 1.251 . S
C219 O216 1.254 . S
H220 C193 0.949 . S
H221 C195 0.950 . S
H222 C202 0.949 . S
H223 C204 0.950 . S
H224 C232 0.950 . S
H225 C237 0.947 . S
H226 C234 0.950 . S
H227 C236 0.950 . S
H228 C238 0.952 . S
H229 C240 0.947 . S
H230 C242 0.950 . S
H231 C243 0.950 . S
C232 H224 0.950 . S
C232 C233 1.386 . S
C232 C234 1.391 . S
C233 C232 1.386 . S
C233 C237 1.397 . S
C234 H226 0.950 . S
C234 C232 1.391 . S
C234 C235 1.400 . S
C235 C234 1.400 . S
C235 C236 1.398 . S
C235 C241 1.491 . S
C236 H227 0.950 . S
C236 C235 1.398 . S
C236 C237 1.391 . S
C237 H225 0.947 . S
C237 C233 1.397 . S
C237 C236 1.391 . S
C238 H228 0.952 . S
C238 C239 1.386 . S
C238 C240 1.391 . S
C239 C238 1.386 . S
C239 C243 1.393 . S
C240 H229 0.947 . S
C240 C238 1.391 . S
C240 C241 1.406 . S
C241 C235 1.491 . S
C241 C240 1.406 . S
C241 C242 1.398 . S
C242 H230 0.950 . S
C242 C241 1.398 . S
C242 C243 1.391 . S
C243 H231 0.950 . S
C243 C239 1.393 . S
C243 C242 1.391 . S
H244 C252 0.950 . S
H245 C257 0.950 . S
H246 C254 0.950 . S
H247 C256 0.950 . S
H248 C258 0.950 . S
H249 C260 0.950 . S
H250 C262 0.950 . S
H251 C263 0.950 . S
C252 H244 0.950 . S
C252 C253 1.386 . S
C252 C254 1.391 . S
C253 C252 1.386 . S
C253 C257 1.393 . S
C254 H246 0.950 . S
C254 C252 1.391 . S
C254 C255 1.400 . S
C255 C254 1.400 . S
C255 C256 1.398 . S
C255 C261 1.491 . S
C256 H247 0.950 . S
C256 C255 1.398 . S
C256 C257 1.391 . S
C257 H245 0.950 . S
C257 C253 1.393 . S
C257 C256 1.391 . S
C258 H248 0.950 . S
C258 C259 1.386 . S
C258 C260 1.391 . S
C259 C258 1.386 . S
C259 C263 1.393 . S
C260 H249 0.950 . S
C260 C258 1.391 . S
C260 C261 1.400 . S
C261 C255 1.491 . S
C261 C260 1.400 . S
C261 C262 1.398 . S
C262 H250 0.950 . S
C262 C261 1.398 . S
C262 C263 1.391 . S
C263 H251 0.950 . S
C263 C259 1.393 . S
C263 C262 1.391 . S
H264 C272 0.950 . S
H265 C277 0.950 . S
H266 C274 0.950 . S
H267 C276 0.950 . S
H268 C278 0.950 . S
H269 C280 0.950 . S
H270 C282 0.950 . S
H271 C283 0.950 . S
C272 H264 0.950 . S
C272 C273 1.386 . S
C272 C274 1.391 . S
C273 C272 1.386 . S
C273 C277 1.393 . S
C274 H266 0.950 . S
C274 C272 1.391 . S
C274 C275 1.400 . S
C275 C274 1.400 . S
C275 C276 1.398 . S
C275 C281 1.491 . S
C276 H267 0.950 . S
C276 C275 1.398 . S
C276 C277 1.391 . S
C277 H265 0.950 . S
C277 C273 1.393 . S
C277 C276 1.391 . S
C278 H268 0.950 . S
C278 C279 1.386 . S
C278 C280 1.391 . S
C279 C278 1.386 . S
C279 C283 1.393 . S
C280 H269 0.950 . S
C280 C278 1.391 . S
C280 C281 1.400 . S
C281 C275 1.491 . S
C281 C280 1.400 . S
C281 C282 1.398 . S
C282 H270 0.950 . S
C282 C281 1.398 . S
C282 C283 1.391 . S
C283 H271 0.950 . S
C283 C279 1.393 . S
C283 C282 1.391 . S
H284 C292 0.950 . S
H285 C297 0.950 . S
H286 C294 0.950 . S
H287 C296 0.950 . S
H288 C298 0.950 . S
H289 C300 0.950 . S
H290 C302 0.950 . S
H291 C303 0.950 . S
C292 H284 0.950 . S
C292 C293 1.386 . S
C292 C294 1.391 . S
C293 C292 1.386 . S
C293 C297 1.393 . S
C294 H286 0.950 . S
C294 C292 1.391 . S
C294 C295 1.400 . S
C295 C294 1.400 . S
C295 C296 1.398 . S
C295 C301 1.491 . S
C296 H287 0.950 . S
C296 C295 1.398 . S
C296 C297 1.391 . S
C297 H285 0.950 . S
C297 C293 1.393 . S
C297 C296 1.391 . S
C298 H288 0.950 . S
C298 C299 1.386 . S
C298 C300 1.391 . S
C299 C298 1.386 . S
C299 C303 1.393 . S
C300 H289 0.950 . S
C300 C298 1.391 . S
C300 C301 1.400 . S
C301 C295 1.491 . S
C301 C300 1.400 . S
C301 C302 1.398 . S
C302 H290 0.950 . S
C302 C301 1.398 . S
C302 C303 1.391 . S
C303 H291 0.950 . S
C303 C299 1.393 . S
C303 C302 1.391 . S
H304 C312 0.949 . S
H305 C317 0.950 . S
H306 C314 0.950 1_564 S
H307 C316 0.950 . S
H308 C318 0.950 . S
H309 C320 0.950 . S
H310 C322 0.950 . S
H311 C323 0.950 . S
C312 H304 0.949 . S
C312 C313 1.387 1_554 S
C312 C314 1.392 1_564 S
C313 C312 1.387 1_556 S
C313 C317 1.395 1_565 S
C314 H306 0.950 1_546 S
C314 C312 1.392 1_546 S
C314 C315 1.400 . S
C315 C314 1.400 . S
C315 C316 1.401 . S
C315 C321 1.491 . S
C316 H307 0.950 . S
C316 C315 1.401 . S
C316 C317 1.391 . S
C317 H305 0.950 . S
C317 C313 1.395 1_545 S
C317 C316 1.391 . S
C318 H308 0.950 . S
C318 C319 1.386 . S
C318 C320 1.391 . S
C319 C318 1.386 . S
C319 C323 1.393 . S
C320 H309 0.950 . S
C320 C318 1.391 . S
C320 C321 1.400 . S
C321 C315 1.491 . S
C321 C320 1.400 . S
C321 C322 1.398 . S
C322 H310 0.950 . S
C322 C321 1.398 . S
C322 C323 1.391 . S
C323 H311 0.950 . S
C323 C319 1.393 . S
C323 C322 1.391 . S
H324 C332 0.950 . S
H325 C337 0.950 . S
H326 C334 0.950 . S
H327 C336 0.950 . S
H328 C338 0.950 . S
H329 C340 0.950 1_554 S
H330 C342 0.950 . S
H331 C343 0.950 . S
C332 H324 0.950 . S
C332 C333 1.386 1_556 S
C332 C334 1.391 . S
C333 C332 1.386 1_554 S
C333 C337 1.393 . S
C334 H326 0.950 . S
C334 C332 1.391 . S
C334 C335 1.400 . S
C335 C334 1.400 . S
C335 C336 1.398 1_556 S
C335 C341 1.491 . S
C336 H327 0.950 . S
C336 C335 1.398 1_554 S
C336 C337 1.391 . S
C337 H325 0.950 . S
C337 C333 1.393 . S
C337 C336 1.391 . S
C338 H328 0.950 . S
C338 C339 1.386 . S
C338 C340 1.391 . S
C339 C338 1.386 . S
C339 C343 1.393 . S
C340 H329 0.950 1_556 S
C340 C338 1.391 . S
C340 C341 1.400 . S
C341 C335 1.491 . S
C341 C340 1.400 . S
C341 C342 1.398 . S
C342 H330 0.950 . S
C342 C341 1.398 . S
C342 C343 1.391 . S
C343 H331 0.950 . S
C343 C339 1.393 . S
C343 C342 1.391 . S
H344 C352 0.950 . S
H345 C357 0.950 . S
H346 C354 0.950 . S
H347 C356 0.950 . S
H348 C358 0.950 . S
H349 C360 0.950 . S
H350 C362 0.950 . S
H351 C363 0.950 . S
C352 H344 0.950 . S
C352 C353 1.386 . S
C352 C354 1.391 . S
C353 C352 1.386 . S
C353 C357 1.393 . S
C354 H346 0.950 . S
C354 C352 1.391 . S
C354 C355 1.400 1_554 S
C355 C354 1.400 1_556 S
C355 C356 1.398 . S
C355 C361 1.491 . S
C356 H347 0.950 . S
C356 C355 1.398 . S
C356 C357 1.391 1_556 S
C357 H345 0.950 . S
C357 C353 1.393 . S
C357 C356 1.391 1_554 S
C358 H348 0.950 . S
C358 C359 1.386 . S
C358 C360 1.391 . S
C359 C358 1.386 . S
C359 C363 1.393 . S
C360 H349 0.950 . S
C360 C358 1.391 . S
C360 C361 1.400 . S
C361 C355 1.491 . S
C361 C360 1.400 . S
C361 C362 1.398 . S
C362 H350 0.950 . S
C362 C361 1.398 . S
C362 C363 1.391 . S
C363 H351 0.950 . S
C363 C359 1.393 . S
C363 C362 1.391 . S
H364 C372 0.950 1_554 S
H365 C377 0.950 . S
H366 C374 0.950 . S
H367 C376 0.950 . S
H368 C378 0.950 . S
H369 C380 0.949 1_455 S
H370 C382 0.950 . S
H371 C383 0.950 . S
C372 H364 0.950 1_556 S
C372 C373 1.386 . S
C372 C374 1.391 . S
C373 C372 1.386 . S
C373 C377 1.393 . S
C374 H366 0.950 . S
C374 C372 1.391 . S
C374 C375 1.400 . S
C375 C374 1.400 . S
C375 C376 1.398 . S
C375 C381 1.491 . S
C376 H367 0.950 . S
C376 C375 1.398 . S
C376 C377 1.391 . S
C377 H365 0.950 . S
C377 C373 1.393 . S
C377 C376 1.391 . S
C378 H368 0.950 . S
C378 C379 1.381 1_455 S
C378 C380 1.390 1_455 S
C379 C378 1.381 1_655 S
C379 C383 1.403 . S
C380 H369 0.949 1_655 S
C380 C378 1.390 1_655 S
C380 C381 1.402 . S
C381 C375 1.491 . S
C381 C380 1.402 . S
C381 C382 1.398 . S
C382 H370 0.950 . S
C382 C381 1.398 . S
C382 C383 1.391 . S
C383 H371 0.950 . S
C383 C379 1.403 . S
C383 C382 1.391 . S
H384 C392 0.950 . S
H385 C397 0.950 . S
H386 C394 0.950 . S
H387 C396 0.950 . S
H388 C398 0.950 . S
H389 C400 0.950 . S
H390 C402 0.950 . S
H391 C403 0.950 . S
C392 H384 0.950 . S
C392 C393 1.386 . S
C392 C394 1.391 . S
C393 C392 1.386 . S
C393 C397 1.393 . S
C394 H386 0.950 . S
C394 C392 1.391 . S
C394 C395 1.400 . S
C395 C394 1.400 . S
C395 C396 1.398 . S
C395 C401 1.491 . S
C396 H387 0.950 . S
C396 C395 1.398 . S
C396 C397 1.391 . S
C397 H385 0.950 . S
C397 C393 1.393 . S
C397 C396 1.391 . S
C398 H388 0.950 . S
C398 C399 1.386 . S
C398 C400 1.391 . S
C399 C398 1.386 . S
C399 C403 1.393 . S
C400 H389 0.950 . S
C400 C398 1.391 . S
C400 C401 1.400 . S
C401 C395 1.491 . S
C401 C400 1.400 . S
C401 C402 1.398 . S
C402 H390 0.950 . S
C402 C401 1.398 . S
C402 C403 1.391 . S
C403 H391 0.950 . S
C403 C399 1.393 . S
C403 C402 1.391 . S
H404 C412 0.950 . S
H405 C417 0.950 . S
H406 C414 0.950 . S
H407 C416 0.950 . S
H408 C418 0.950 1_545 S
H409 C420 0.945 1_545 S
H410 C422 0.950 . S
H411 C423 0.950 . S
C412 H404 0.950 . S
C412 C413 1.378 1_565 S
C412 C414 1.391 . S
C413 C412 1.378 1_545 S
C413 C417 1.402 . S
C414 H406 0.950 . S
C414 C412 1.391 . S
C414 C415 1.400 . S
C415 C414 1.400 . S
C415 C416 1.398 1_565 S
C415 C421 1.491 . S
C416 H407 0.950 . S
C416 C415 1.398 1_545 S
C416 C417 1.391 . S
C417 H405 0.950 . S
C417 C413 1.402 . S
C417 C416 1.391 . S
C418 H408 0.950 1_565 S
C418 C419 1.386 . S
C418 C420 1.392 . S
C419 C418 1.386 . S
C419 C423 1.393 . S
C420 H409 0.945 1_565 S
C420 C418 1.392 . S
C420 C421 1.405 . S
C421 C415 1.491 . S
C421 C420 1.405 . S
C421 C422 1.398 . S
C422 H410 0.950 . S
C422 C421 1.398 . S
C422 C423 1.391 . S
C423 H411 0.950 . S
C423 C419 1.393 . S
C423 C422 1.391 . S
H424 C432 0.950 . S
H425 C437 0.950 . S
H426 C434 0.950 . S
H427 C436 0.950 . S
H428 C438 0.950 . S
H429 C440 0.950 . S
H430 C442 0.950 . S
H431 C443 0.950 . S
C432 H424 0.950 . S
C432 C433 1.386 . S
C432 C434 1.391 . S
C433 C432 1.386 . S
C433 C437 1.393 . S
C434 H426 0.950 . S
C434 C432 1.391 . S
C434 C435 1.400 . S
C435 C434 1.400 . S
C435 C436 1.398 . S
C435 C441 1.491 . S
C436 H427 0.950 . S
C436 C435 1.398 . S
C436 C437 1.391 . S
C437 H425 0.950 . S
C437 C433 1.393 . S
C437 C436 1.391 . S
C438 H428 0.950 . S
C438 C439 1.386 . S
C438 C440 1.391 . S
C439 C438 1.386 . S
C439 C443 1.393 . S
C440 H429 0.950 . S
C440 C438 1.391 . S
C440 C441 1.400 . S
C441 C435 1.491 . S
C441 C440 1.400 . S
C441 C442 1.398 . S
C442 H430 0.950 . S
C442 C441 1.398 . S
C442 C443 1.391 . S
C443 H431 0.950 . S
C443 C439 1.393 . S
C443 C442 1.391 . S
H444 C452 0.950 . S
H445 C457 0.950 . S
H446 C454 0.950 . S
H447 C456 0.950 . S
H448 C458 0.950 . S
H449 C460 0.950 . S
H450 C462 0.950 . S
H451 C463 0.950 . S
C452 H444 0.950 . S
C452 C453 1.386 . S
C452 C454 1.391 . S
C453 C452 1.386 . S
C453 C457 1.393 . S
C454 H446 0.950 . S
C454 C452 1.391 . S
C454 C455 1.400 . S
C455 C454 1.400 . S
C455 C456 1.398 . S
C455 C461 1.491 . S
C456 H447 0.950 . S
C456 C455 1.398 . S
C456 C457 1.391 . S
C457 H445 0.950 . S
C457 C453 1.393 . S
C457 C456 1.391 . S
C458 H448 0.950 . S
C458 C459 1.386 . S
C458 C460 1.391 . S
C459 C458 1.386 . S
C459 C463 1.393 . S
C460 H449 0.950 . S
C460 C458 1.391 . S
C460 C461 1.400 . S
C461 C455 1.491 . S
C461 C460 1.400 . S
C461 C462 1.398 . S
C462 H450 0.950 . S
C462 C461 1.398 . S
C462 C463 1.391 . S
C463 H451 0.950 . S
C463 C459 1.393 . S
C463 C462 1.391 . S
H464 C472 0.950 1_554 S
H465 C477 0.950 . S
H466 C474 0.951 . S
H467 C476 0.950 . S
H468 C478 0.950 . S
H469 C480 0.950 . S
H470 C482 0.950 . S
H471 C483 0.950 . S
C472 H464 0.950 1_556 S
C472 C473 1.386 . S
C472 C474 1.391 . S
C473 C472 1.386 . S
C473 C477 1.393 . S
C474 H466 0.951 . S
C474 C472 1.391 . S
C474 C475 1.400 . S
C475 C474 1.400 . S
C475 C476 1.398 . S
C475 C481 1.491 . S
C476 H467 0.950 . S
C476 C475 1.398 . S
C476 C477 1.391 . S
C477 H465 0.950 . S
C477 C473 1.393 . S
C477 C476 1.391 . S
C478 H468 0.950 . S
C478 C479 1.386 1_655 S
C478 C480 1.391 . S
C479 C478 1.386 1_455 S
C479 C483 1.393 . S
C480 H469 0.950 . S
C480 C478 1.391 . S
C480 C481 1.400 . S
C481 C475 1.491 . S
C481 C480 1.400 . S
C481 C482 1.398 1_655 S
C482 H470 0.950 . S
C482 C481 1.398 1_455 S
C482 C483 1.391 . S
C483 H471 0.950 . S
C483 C479 1.393 . S
C483 C482 1.391 . S
H484 C492 0.950 . S
H485 C497 0.950 . S
H486 C494 0.950 . S
H487 C496 0.950 . S
H488 C498 0.950 . S
H489 C500 0.950 . S
H490 C502 0.950 . S
H491 C503 0.950 . S
C492 H484 0.950 . S
C492 C493 1.372 1_546 S
C492 C494 1.391 . S
C493 C492 1.372 1_564 S
C493 C497 1.403 . S
C494 H486 0.950 . S
C494 C492 1.391 . S
C494 C495 1.400 . S
C495 C494 1.400 . S
C495 C496 1.398 1_545 S
C495 C501 1.491 . S
C496 H487 0.950 . S
C496 C495 1.398 1_565 S
C496 C497 1.391 1_556 S
C497 H485 0.950 . S
C497 C493 1.403 . S
C497 C496 1.391 1_554 S
C498 H488 0.950 . S
C498 C499 1.386 1_565 S
C498 C500 1.391 . S
C499 C498 1.386 1_545 S
C499 C503 1.393 . S
C500 H489 0.950 . S
C500 C498 1.391 . S
C500 C501 1.400 1_565 S
C501 C495 1.491 . S
C501 C500 1.400 1_545 S
C501 C502 1.398 . S
C502 H490 0.950 . S
C502 C501 1.398 . S
C502 C503 1.391 . S
C503 H491 0.950 . S
C503 C499 1.393 . S
C503 C502 1.391 . S
H504 C512 0.950 1_554 S
H505 C517 0.950 1_554 S
H506 C514 0.950 . S
H507 C516 0.950 . S
H508 C518 0.950 . S
H509 C520 0.950 . S
H510 C522 0.950 . S
H511 C523 0.950 . S
C512 H504 0.950 1_556 S
C512 C513 1.386 1_556 S
C512 C514 1.391 . S
C513 C512 1.386 1_554 S
C513 C517 1.393 1_554 S
C514 H506 0.950 . S
C514 C512 1.391 . S
C514 C515 1.400 . S
C515 C514 1.400 . S
C515 C516 1.398 . S
C515 C521 1.491 . S
C516 H507 0.950 . S
C516 C515 1.398 . S
C516 C517 1.391 . S
C517 H505 0.950 1_556 S
C517 C513 1.393 1_556 S
C517 C516 1.391 . S
C518 H508 0.950 . S
C518 C519 1.386 . S
C518 C520 1.391 . S
C519 C518 1.386 . S
C519 C523 1.393 . S
C520 H509 0.950 . S
C520 C518 1.391 . S
C520 C521 1.400 . S
C521 C515 1.491 . S
C521 C520 1.400 . S
C521 C522 1.398 . S
C522 H510 0.950 . S
C522 C521 1.398 . S
C522 C523 1.391 . S
C523 H511 0.950 . S
C523 C519 1.393 . S
C523 C522 1.391 . S
H524 C532 0.950 . S
H525 C537 0.950 . S
H526 C534 0.950 1_556 S
H527 C536 0.950 1_556 S
H528 C538 0.950 . S
H529 C540 0.950 . S
H530 C542 0.950 . S
H531 C543 0.950 . S
C532 H524 0.950 . S
C532 C533 1.386 . S
C532 C534 1.391 . S
C533 C532 1.386 . S
C533 C537 1.393 . S
C534 H526 0.950 1_554 S
C534 C532 1.391 . S
C534 C535 1.400 1_554 S
C535 C534 1.400 1_556 S
C535 C536 1.398 1_556 S
C535 C541 1.491 . S
C536 H527 0.950 1_554 S
C536 C535 1.398 1_554 S
C536 C537 1.391 . S
C537 H525 0.950 . S
C537 C533 1.393 . S
C537 C536 1.391 . S
C538 H528 0.950 . S
C538 C539 1.386 . S
C538 C540 1.391 . S
C539 C538 1.386 . S
C539 C543 1.393 . S
C540 H529 0.950 . S
C540 C538 1.391 . S
C540 C541 1.400 . S
C541 C535 1.491 . S
C541 C540 1.400 . S
C541 C542 1.398 . S
C542 H530 0.950 . S
C542 C541 1.398 . S
C542 C543 1.391 . S
C543 H531 0.950 . S
C543 C539 1.393 . S
C543 C542 1.391 . S
H544 C552 0.950 . S
H545 C557 0.950 . S
H546 C554 0.950 . S
H547 C556 0.950 . S
H548 C558 0.950 1_556 S
H549 C560 0.950 . S
H550 C562 0.950 . S
H551 C563 0.950 . S
C552 H544 0.950 . S
C552 C553 1.386 . S
C552 C554 1.391 . S
C553 C552 1.386 . S
C553 C557 1.393 . S
C554 H546 0.950 . S
C554 C552 1.391 . S
C554 C555 1.400 . S
C555 C554 1.400 . S
C555 C556 1.398 . S
C555 C561 1.491 . S
C556 H547 0.950 . S
C556 C555 1.398 . S
C556 C557 1.391 . S
C557 H545 0.950 . S
C557 C553 1.393 . S
C557 C556 1.391 . S
C558 H548 0.950 1_554 S
C558 C559 1.386 . S
C558 C560 1.391 . S
C559 C558 1.386 . S
C559 C563 1.393 . S
C560 H549 0.950 . S
C560 C558 1.391 . S
C560 C561 1.400 . S
C561 C555 1.491 . S
C561 C560 1.400 . S
C561 C562 1.398 . S
C562 H550 0.950 . S
C562 C561 1.398 . S
C562 C563 1.391 . S
C563 H551 0.950 . S
C563 C559 1.393 . S
C563 C562 1.391 . S
H564 C572 0.950 . S
H565 C577 0.950 . S
H566 C574 0.950 . S
H567 C576 0.950 . S
H568 C578 0.950 . S
H569 C580 0.950 . S
H570 C582 0.950 . S
H571 C583 0.950 . S
C572 H564 0.950 . S
C572 C573 1.382 1_545 S
C572 C574 1.391 . S
C573 C572 1.382 1_565 S
C573 C577 1.397 . S
C574 H566 0.950 . S
C574 C572 1.391 . S
C574 C575 1.400 . S
C575 C574 1.400 . S
C575 C576 1.398 1_545 S
C575 C581 1.491 . S
C576 H567 0.950 . S
C576 C575 1.398 1_565 S
C576 C577 1.391 . S
C577 H565 0.950 . S
C577 C573 1.397 . S
C577 C576 1.391 . S
C578 H568 0.950 . S
C578 C579 1.386 1_565 S
C578 C580 1.391 . S
C579 C578 1.386 1_545 S
C579 C583 1.393 . S
C580 H569 0.950 . S
C580 C578 1.391 . S
C580 C581 1.400 1_566 S
C581 C575 1.491 . S
C581 C580 1.400 1_544 S
C581 C582 1.398 . S
C582 H570 0.950 . S
C582 C581 1.398 . S
C582 C583 1.391 1_554 S
C583 H571 0.950 . S
C583 C579 1.393 . S
C583 C582 1.391 1_556 S
H584 C592 0.950 . S
H585 C597 0.950 . S
H586 C594 0.950 . S
H587 C596 0.950 1_556 S
H588 C598 0.950 . S
H589 C600 0.950 . S
H590 C602 0.950 . S
H591 C603 0.950 . S
C592 H584 0.950 . S
C592 C593 1.386 . S
C592 C594 1.391 . S
C593 C592 1.386 . S
C593 C597 1.393 . S
C594 H586 0.950 . S
C594 C592 1.391 . S
C594 C595 1.400 . S
C595 C594 1.400 . S
C595 C596 1.398 . S
C595 C601 1.491 . S
C596 H587 0.950 1_554 S
C596 C595 1.398 . S
C596 C597 1.391 . S
C597 H585 0.950 . S
C597 C593 1.393 . S
C597 C596 1.391 . S
C598 H588 0.950 . S
C598 C599 1.386 . S
C598 C600 1.391 . S
C599 C598 1.386 . S
C599 C603 1.393 . S
C600 H589 0.950 . S
C600 C598 1.391 . S
C600 C601 1.400 1_556 S
C601 C595 1.491 . S
C601 C600 1.400 1_554 S
C601 C602 1.398 . S
C602 H590 0.950 . S
C602 C601 1.398 . S
C602 C603 1.391 1_554 S
C603 H591 0.950 . S
C603 C599 1.393 . S
C603 C602 1.391 1_556 S
H604 C612 0.950 . S
H605 C617 0.950 . S
H606 C614 0.950 1_556 S
H607 C616 0.950 . S
H608 C618 0.950 . S
H609 C620 0.950 1_554 S
H610 C622 0.950 . S
H611 C623 0.950 . S
C612 H604 0.950 . S
C612 C613 1.386 . S
C612 C614 1.391 . S
C613 C612 1.386 . S
C613 C617 1.393 . S
C614 H606 0.950 1_554 S
C614 C612 1.391 . S
C614 C615 1.400 . S
C615 C614 1.400 . S
C615 C616 1.398 . S
C615 C621 1.491 1_554 S
C616 H607 0.950 . S
C616 C615 1.398 . S
C616 C617 1.391 . S
C617 H605 0.950 . S
C617 C613 1.393 . S
C617 C616 1.391 . S
C618 H608 0.950 . S
C618 C619 1.386 . S
C618 C620 1.391 . S
C619 C618 1.386 . S
C619 C623 1.393 . S
C620 H609 0.950 1_556 S
C620 C618 1.391 . S
C620 C621 1.400 . S
C621 C615 1.491 1_556 S
C621 C620 1.400 . S
C621 C622 1.398 . S
C622 H610 0.950 . S
C622 C621 1.398 . S
C622 C623 1.391 . S
C623 H611 0.950 . S
C623 C619 1.393 . S
C623 C622 1.391 . S
H624 C632 0.970 . S
H625 C637 0.950 . S
H626 C634 0.950 1_455 S
H627 C636 0.950 . S
H628 C638 0.950 . S
H629 C640 0.950 . S
H630 C642 0.950 1_455 S
H631 C643 0.970 . S
C632 H624 0.970 . S
C632 C633 1.386 . S
C632 C634 1.391 . S
C633 C632 1.386 . S
C633 C637 1.393 . S
C634 H626 0.950 1_655 S
C634 C632 1.391 . S
C634 C635 1.400 . S
C635 C634 1.400 . S
C635 C636 1.398 . S
C635 C641 1.491 . S
C636 H627 0.950 . S
C636 C635 1.398 . S
C636 C637 1.391 . S
C637 H625 0.950 . S
C637 C633 1.393 . S
C637 C636 1.391 . S
C638 H628 0.950 . S
C638 C639 1.386 . S
C638 C640 1.391 . S
C639 C638 1.386 . S
C639 C643 1.378 1_655 S
C640 H629 0.950 . S
C640 C638 1.391 . S
C640 C641 1.400 . S
C641 C635 1.491 . S
C641 C640 1.400 . S
C641 C642 1.398 . S
C642 H630 0.950 1_655 S
C642 C641 1.398 . S
C642 C643 1.386 1_655 S
C643 H631 0.970 . S
C643 C639 1.378 1_455 S
C643 C642 1.386 1_455 S
H644 C652 0.950 . S
H645 C657 0.950 . S
H646 C654 0.950 . S
H647 C656 0.950 . S
H648 C658 0.950 . S
H649 C660 0.950 . S
H650 C662 0.950 . S
H651 C663 0.950 . S
C652 H644 0.950 . S
C652 C653 1.386 . S
C652 C654 1.391 . S
C653 C652 1.386 . S
C653 C657 1.393 1_565 S
C654 H646 0.950 . S
C654 C652 1.391 . S
C654 C655 1.400 . S
C655 C654 1.400 . S
C655 C656 1.398 1_565 S
C655 C661 1.491 . S
C656 H647 0.950 . S
C656 C655 1.398 1_545 S
C656 C657 1.391 . S
C657 H645 0.950 . S
C657 C653 1.393 1_545 S
C657 C656 1.391 . S
C658 H648 0.950 . S
C658 C659 1.386 1_545 S
C658 C660 1.391 . S
C659 C658 1.386 1_565 S
C659 C663 1.393 . S
C660 H649 0.950 . S
C660 C658 1.391 . S
C660 C661 1.400 1_545 S
C661 C655 1.491 . S
C661 C660 1.400 1_565 S
C661 C662 1.398 . S
C662 H650 0.950 . S
C662 C661 1.398 . S
C662 C663 1.391 . S
C663 H651 0.950 . S
C663 C659 1.393 . S
C663 C662 1.391 . S
H664 C672 0.950 . S
H665 C677 0.950 . S
H666 C674 0.950 . S
H667 C676 0.950 . S
H668 C678 0.950 . S
H669 C680 0.950 . S
H670 C682 0.950 . S
H671 C683 0.950 . S
C672 H664 0.950 . S
C672 C673 1.386 . S
C672 C674 1.391 . S
C673 C672 1.386 . S
C673 C677 1.393 . S
C674 H666 0.950 . S
C674 C672 1.391 . S
C674 C675 1.400 . S
C675 C674 1.400 . S
C675 C676 1.398 . S
C675 C681 1.491 . S
C676 H667 0.950 . S
C676 C675 1.398 . S
C676 C677 1.391 . S
C677 H665 0.950 . S
C677 C673 1.393 . S
C677 C676 1.391 . S
C678 H668 0.950 . S
C678 C679 1.386 . S
C678 C680 1.391 . S
C679 C678 1.386 . S
C679 C683 1.393 . S
C680 H669 0.950 . S
C680 C678 1.391 . S
C680 C681 1.400 . S
C681 C675 1.491 . S
C681 C680 1.400 . S
C681 C682 1.398 . S
C682 H670 0.950 . S
C682 C681 1.398 . S
C682 C683 1.391 . S
C683 H671 0.950 . S
C683 C679 1.393 . S
C683 C682 1.391 . S
H684 C692 0.950 . S
H685 C697 0.950 . S
H686 C694 0.950 . S
H687 C696 0.950 . S
H688 C698 0.950 . S
H689 C700 0.950 . S
H690 C702 0.950 . S
H691 C703 0.950 . S
C692 H684 0.950 . S
C692 C693 1.386 . S
C692 C694 1.391 . S
C693 C692 1.386 . S
C693 C697 1.393 . S
C694 H686 0.950 . S
C694 C692 1.391 . S
C694 C695 1.400 . S
C695 C694 1.400 . S
C695 C696 1.398 . S
C695 C701 1.491 . S
C696 H687 0.950 . S
C696 C695 1.398 . S
C696 C697 1.391 . S
C697 H685 0.950 . S
C697 C693 1.393 . S
C697 C696 1.391 . S
C698 H688 0.950 . S
C698 C699 1.386 . S
C698 C700 1.391 . S
C699 C698 1.386 . S
C699 C703 1.393 . S
C700 H689 0.950 . S
C700 C698 1.391 . S
C700 C701 1.400 . S
C701 C695 1.491 . S
C701 C700 1.400 . S
C701 C702 1.398 . S
C702 H690 0.950 . S
C702 C701 1.398 . S
C702 C703 1.391 . S
C703 H691 0.950 . S
C703 C699 1.393 . S
C703 C702 1.391 . S
C233 C76 1.846 . S
C239 C105 1.874 . S
C259 C126 1.546 . S
C253 C87 1.522 . S
C279 C160 1.367 . S
C273 C54 1.331 . S
C299 C194 1.546 . S
C293 C65 1.531 . S
C319 C96 1.874 . S
C313 C32 1.848 1_556 S
C333 C43 1.522 . S
C339 C135 1.548 . S
C353 C10 1.354 . S
C359 C169 1.380 . S
C373 C21 1.528 . S
C379 C203 1.537 1_655 S
C399 C117 0.468 . S
C393 C60 0.543 . S
C419 C122 0.974 . S
C413 C71 0.952 . S
C439 C156 0.883 . S
C433 C82 0.878 . S
C453 C49 0.380 . S
C459 C190 0.385 . S
C473 C16 0.594 . S
C479 C88 0.496 . S
C499 C151 0.975 . S
C493 C27 0.970 1_565 S
C519 C185 0.888 . S
C513 C38 0.864 . S
C533 C5 0.380 . S
C539 C219 0.377 . S
C553 C59 1.299 . S
C559 C101 1.326 . S
C573 C70 1.704 1_565 S
C579 C130 1.760 . S
C599 C164 1.553 . S
C593 C81 1.517 . S
C619 C198 1.611 . S
C613 C48 1.554 . S
C633 C15 1.270 . S
C639 C92 1.324 . S
C659 C139 1.759 . S
C653 C26 1.720 1_565 S
C679 C173 1.548 . S
C673 C37 1.506 . S
C693 C4 1.567 . S
C699 C207 1.614 . S
