# Generated by pormake.
# Topology apo, (3,6)-cn, num edge types: 1
# Building blocks:
#     Node 0, Type 0, BuildingBlock: BELTOD_clean_linker_0, # of connection points: 3
#     Node 1, Type 0, BuildingBlock: BELTOD_clean_linker_0, # of connection points: 3
#     Node 2, Type 0, BuildingBlock: BELTOD_clean_linker_0, # of connection points: 3
#     Node 3, Type 0, BuildingBlock: BELTOD_clean_linker_0, # of connection points: 3
#     Node 4, Type 0, BuildingBlock: BELTOD_clean_linker_0, # of connection points: 3
#     Node 5, Type 0, BuildingBlock: BELTOD_clean_linker_0, # of connection points: 3
#     Node 6, Type 0, BuildingBlock: BELTOD_clean_linker_0, # of connection points: 3
#     Node 7, Type 0, BuildingBlock: BELTOD_clean_linker_0, # of connection points: 3
#     Node 8, Type 1, BuildingBlock: KUMJIN_clean_sbu_1, # of connection points: 6
#     Node 9, Type 1, BuildingBlock: KUMJIN_clean_sbu_1, # of connection points: 6
#     Node 10, Type 1, BuildingBlock: KUMJIN_clean_sbu_1, # of connection points: 6
#     Node 11, Type 1, BuildingBlock: KUMJIN_clean_sbu_1, # of connection points: 6
#     Edge 12, Type (0, 1), BuildingBlock: UVAHIK_clean_linker_0, # of connection points: 2
#     Edge 13, Type (0, 1), BuildingBlock: UVAHIK_clean_linker_0, # of connection points: 2
#     Edge 14, Type (0, 1), BuildingBlock: UVAHIK_clean_linker_0, # of connection points: 2
#     Edge 15, Type (0, 1), BuildingBlock: UVAHIK_clean_linker_0, # of connection points: 2
#     Edge 16, Type (0, 1), BuildingBlock: UVAHIK_clean_linker_0, # of connection points: 2
#     Edge 17, Type (0, 1), BuildingBlock: UVAHIK_clean_linker_0, # of connection points: 2
#     Edge 18, Type (0, 1), BuildingBlock: UVAHIK_clean_linker_0, # of connection points: 2
#     Edge 19, Type (0, 1), BuildingBlock: UVAHIK_clean_linker_0, # of connection points: 2
#     Edge 20, Type (0, 1), BuildingBlock: UVAHIK_clean_linker_0, # of connection points: 2
#     Edge 21, Type (0, 1), BuildingBlock: UVAHIK_clean_linker_0, # of connection points: 2
#     Edge 22, Type (0, 1), BuildingBlock: UVAHIK_clean_linker_0, # of connection points: 2
#     Edge 23, Type (0, 1), BuildingBlock: UVAHIK_clean_linker_0, # of connection points: 2
#     Edge 24, Type (0, 1), BuildingBlock: UVAHIK_clean_linker_0, # of connection points: 2
#     Edge 25, Type (0, 1), BuildingBlock: UVAHIK_clean_linker_0, # of connection points: 2
#     Edge 26, Type (0, 1), BuildingBlock: UVAHIK_clean_linker_0, # of connection points: 2
#     Edge 27, Type (0, 1), BuildingBlock: UVAHIK_clean_linker_0, # of connection points: 2
#     Edge 28, Type (0, 1), BuildingBlock: UVAHIK_clean_linker_0, # of connection points: 2
#     Edge 29, Type (0, 1), BuildingBlock: UVAHIK_clean_linker_0, # of connection points: 2
#     Edge 30, Type (0, 1), BuildingBlock: UVAHIK_clean_linker_0, # of connection points: 2
#     Edge 31, Type (0, 1), BuildingBlock: UVAHIK_clean_linker_0, # of connection points: 2
#     Edge 32, Type (0, 1), BuildingBlock: UVAHIK_clean_linker_0, # of connection points: 2
#     Edge 33, Type (0, 1), BuildingBlock: UVAHIK_clean_linker_0, # of connection points: 2
#     Edge 34, Type (0, 1), BuildingBlock: UVAHIK_clean_linker_0, # of connection points: 2
#     Edge 35, Type (0, 1), BuildingBlock: UVAHIK_clean_linker_0, # of connection points: 2
# Relax obj value: 0.010
# Max RMSD: 0.099
# Mean RMSD: 0.073
data_MOF--net-apo--node1-KUMJIN_clean_sbu_1--node2-BELTOD_clean_linker_0--edge1-UVAHIK_clean_linker_0
_symmetry_space_group_name_H-M    P1
_symmetry_Int_Tables_number       1
_symmetry_cell_setting            triclinic
loop_
_symmetry_equiv_pos_as_xyz
'x, y, z'
_cell_length_a     34.245642
_cell_length_b     61.332728
_cell_length_c     73.611571
_cell_angle_alpha  89.687092
_cell_angle_beta   89.990717
_cell_angle_gamma 90.159642
loop_
_atom_site_label
_atom_site_type_symbol
_atom_site_fract_x
_atom_site_fract_y
_atom_site_fract_z
_atom_type_partial_charge
P0 P 0.33354 0.35492 0.4078 0.0
H1 H 0.3546 0.32246 0.43502 0.0
H2 H 0.35745 0.32338 0.46821 0.0
H3 H 0.30913 0.3884 0.4674 0.0
H4 H 0.30575 0.38719 0.4343 0.0
H5 H 0.31711 0.3465 0.37009 0.0
H6 H 0.26654 0.32568 0.35466 0.0
H7 H 0.20938 0.31373 0.40617 0.0
H8 H 0.26109 0.33418 0.42159 0.0
H9 H 0.40194 0.38092 0.39853 0.0
H10 H 0.27697 0.38911 0.39845 0.0
O11 O 0.37335 0.34094 0.40203 0.0
H12 H 0.41013 0.4172 0.38562 0.0
H13 H 0.28484 0.42609 0.38618 0.0
C14 C 0.33072 0.35491 0.4322 0.0
C15 C 0.34433 0.33684 0.44202 0.0
C16 C 0.34613 0.33742 0.46097 0.0
C17 C 0.33402 0.35607 0.47043 0.0
C18 C 0.31856 0.37375 0.46054 0.0
C19 C 0.31683 0.37314 0.44157 0.0
C20 C 0.2929 0.34179 0.39693 0.0
C21 C 0.29343 0.33959 0.37803 0.0
C22 C 0.26426 0.32779 0.36921 0.0
C23 C 0.23375 0.31799 0.37915 0.0
C24 C 0.23269 0.32082 0.39813 0.0
C25 C 0.26212 0.33261 0.40696 0.0
C26 C 0.33887 0.38223 0.39911 0.0
C27 C 0.37621 0.39064 0.39583 0.0
C28 C 0.38084 0.41157 0.38864 0.0
C29 C 0.34813 0.42471 0.38487 0.0
C30 C 0.31064 0.41635 0.38865 0.0
C31 C 0.30607 0.39526 0.39572 0.0
P32 P 0.2855 0.10053 0.91492 0.0
H33 H 0.31334 0.07204 0.88631 0.0
H34 H 0.28043 0.04687 0.86572 0.0
H35 H 0.16916 0.06478 0.889 0.0
H36 H 0.20228 0.09054 0.90899 0.0
H37 H 0.35337 0.12903 0.91768 0.0
H38 H 0.37371 0.16161 0.90095 0.0
H39 H 0.26606 0.15987 0.87035 0.0
H40 H 0.24564 0.12735 0.88742 0.0
H41 H 0.24594 0.07048 0.93925 0.0
H42 H 0.26474 0.13992 0.93572 0.0
O43 O 0.32662 0.08807 0.92122 0.0
H44 H 0.21209 0.07507 0.96811 0.0
H45 H 0.23194 0.14464 0.96496 0.0
C46 C 0.26035 0.0827 0.89946 0.0
C47 C 0.28185 0.07053 0.88694 0.0
C48 C 0.26298 0.05605 0.87525 0.0
C49 C 0.22213 0.05353 0.87585 0.0
C50 C 0.2006 0.06635 0.88808 0.0
C51 C 0.21954 0.08094 0.89968 0.0
C52 C 0.29844 0.12553 0.90348 0.0
C53 C 0.3341 0.13568 0.9074 0.0
C54 C 0.34575 0.15426 0.89778 0.0
C55 C 0.32177 0.16315 0.88412 0.0
C56 C 0.28518 0.15345 0.8808 0.0
C57 C 0.27357 0.13479 0.89045 0.0
C58 C 0.25739 0.10485 0.93524 0.0
C59 C 0.24245 0.08676 0.94463 0.0
C60 C 0.22343 0.08941 0.96123 0.0
C61 C 0.21951 0.11023 0.96895 0.0
C62 C 0.23403 0.12842 0.95932 0.0
C63 C 0.25294 0.12573 0.94261 0.0
P64 P 0.83614 0.13838 0.59028 0.0
H65 H 0.86494 0.16935 0.56347 0.0
H66 H 0.87067 0.16794 0.53041 0.0
H67 H 0.80849 0.10654 0.53025 0.0
H68 H 0.80262 0.10817 0.56342 0.0
H69 H 0.82846 0.15303 0.62721 0.0
H70 H 0.78084 0.17556 0.64287 0.0
H71 H 0.71453 0.1818 0.59316 0.0
H72 H 0.76307 0.15927 0.57742 0.0
H73 H 0.89281 0.10344 0.58873 0.0
H74 H 0.77727 0.11275 0.61061 0.0
O75 O 0.87927 0.14894 0.59615 0.0
H76 H 0.89631 0.06771 0.6034 0.0
H77 H 0.78037 0.07689 0.62524 0.0
C78 C 0.83401 0.13869 0.56587 0.0
C79 C 0.85219 0.1557 0.55631 0.0
C80 C 0.85568 0.15479 0.53744 0.0
C81 C 0.84068 0.13692 0.52777 0.0
C82 C 0.82042 0.12049 0.53733 0.0
C83 C 0.81712 0.12138 0.55628 0.0
C84 C 0.79947 0.1547 0.60116 0.0
C85 C 0.80366 0.15924 0.61967 0.0
C86 C 0.77618 0.17197 0.62865 0.0
C87 C 0.74374 0.18042 0.61929 0.0
C88 C 0.73938 0.17567 0.6007 0.0
C89 C 0.767 0.16278 0.5917 0.0
C90 C 0.83523 0.1109 0.59892 0.0
C91 C 0.86798 0.09763 0.5965 0.0
C92 C 0.86979 0.07713 0.60479 0.0
C93 C 0.83874 0.06953 0.61563 0.0
C94 C 0.80503 0.08245 0.61722 0.0
C95 C 0.80321 0.10295 0.60885 0.0
P96 P 0.78648 0.39911 0.08069 0.0
H97 H 0.80862 0.42526 0.11182 0.0
H98 H 0.77213 0.44957 0.13179 0.0
H99 H 0.66627 0.43488 0.10229 0.0
H100 H 0.70302 0.41066 0.08233 0.0
H101 H 0.85117 0.36867 0.07713 0.0
H102 H 0.86989 0.33598 0.0941 0.0
H103 H 0.76487 0.34116 0.12635 0.0
H104 H 0.74665 0.37404 0.10943 0.0
H105 H 0.76229 0.42888 0.05214 0.0
H106 H 0.75536 0.35977 0.06275 0.0
O107 O 0.82834 0.41187 0.07588 0.0
H108 H 0.72994 0.42367 0.02288 0.0
H109 H 0.72411 0.35428 0.03333 0.0
C110 C 0.75871 0.41657 0.09538 0.0
C111 C 0.77757 0.42734 0.10964 0.0
C112 C 0.75662 0.44109 0.12111 0.0
C113 C 0.71633 0.44426 0.11855 0.0
C114 C 0.69738 0.43306 0.10442 0.0
C115 C 0.71837 0.4192 0.09301 0.0
C116 C 0.79804 0.37403 0.09231 0.0
C117 C 0.83215 0.36272 0.08782 0.0
C118 C 0.84266 0.34393 0.09746 0.0
C119 C 0.81906 0.33605 0.11171 0.0
C120 C 0.78406 0.34703 0.11569 0.0
C121 C 0.77354 0.3658 0.10599 0.0
C122 C 0.76137 0.39473 0.05955 0.0
C123 C 0.75384 0.41257 0.04812 0.0
C124 C 0.73554 0.40954 0.03136 0.0
C125 C 0.72455 0.38854 0.02568 0.0
C126 C 0.73172 0.37071 0.03735 0.0
C127 C 0.7499 0.3738 0.05416 0.0
P128 P 0.77604 0.60581 0.57837 0.0
H129 H 0.80129 0.61967 0.5425 0.0
H130 H 0.76635 0.62745 0.51443 0.0
H131 H 0.65644 0.61824 0.54242 0.0
H132 H 0.692 0.60979 0.57047 0.0
H133 H 0.84666 0.61603 0.59855 0.0
H134 H 0.86492 0.64607 0.61824 0.0
H135 H 0.7524 0.67596 0.60884 0.0
H136 H 0.73514 0.64611 0.58835 0.0
H137 H 0.76328 0.55915 0.57472 0.0
H138 H 0.72795 0.61005 0.61139 0.0
O139 O 0.81677 0.59342 0.57152 0.0
H140 H 0.72996 0.53211 0.59377 0.0
H141 H 0.69419 0.58323 0.63032 0.0
C142 C 0.74925 0.61373 0.55842 0.0
C143 C 0.76967 0.61941 0.54262 0.0
C144 C 0.74955 0.62406 0.52659 0.0
C145 C 0.70848 0.6234 0.52609 0.0
C146 C 0.68805 0.61853 0.54223 0.0
C147 C 0.70832 0.61379 0.55829 0.0
C148 C 0.78982 0.62903 0.59178 0.0
C149 C 0.82613 0.62921 0.60049 0.0
C150 C 0.83632 0.64631 0.61198 0.0
C151 C 0.81003 0.66343 0.61532 0.0
C152 C 0.7736 0.66324 0.60643 0.0
C153 C 0.76362 0.64617 0.59473 0.0
C154 C 0.74884 0.58651 0.59184 0.0
C155 C 0.74819 0.56451 0.58682 0.0
C156 C 0.72891 0.54911 0.59765 0.0
C157 C 0.70976 0.55552 0.61365 0.0
C158 C 0.70933 0.57774 0.61826 0.0
C159 C 0.72856 0.59311 0.6074 0.0
P160 P 0.82102 0.85887 0.09279 0.0
H161 H 0.83356 0.86648 0.13101 0.0
H162 H 0.84179 0.8995 0.14897 0.0
H163 H 0.81832 0.93876 0.10129 0.0
H164 H 0.80903 0.90552 0.0835 0.0
H165 H 0.81535 0.81191 0.09757 0.0
H166 H 0.76621 0.78841 0.1112 0.0
H167 H 0.6894 0.8438 0.11724 0.0
H168 H 0.74004 0.86748 0.10417 0.0
H169 H 0.87636 0.88136 0.06962 0.0
H170 H 0.76751 0.84685 0.06293 0.0
O171 O 0.86273 0.84604 0.09755 0.0
H172 H 0.88181 0.88575 0.03676 0.0
H173 H 0.77233 0.85149 0.02994 0.0
C174 C 0.82148 0.88356 0.10589 0.0
C175 C 0.82976 0.8822 0.12447 0.0
C176 C 0.83469 0.9011 0.13469 0.0
C177 C 0.83146 0.92178 0.12648 0.0
C178 C 0.82103 0.92309 0.10801 0.0
C179 C 0.81601 0.90408 0.09779 0.0
C180 C 0.78163 0.84147 0.10022 0.0
C181 C 0.78785 0.819 0.10171 0.0
C182 C 0.75938 0.8055 0.10939 0.0
C183 C 0.72365 0.81413 0.11548 0.0
C184 C 0.71677 0.83661 0.11305 0.0
C185 C 0.74556 0.85017 0.10546 0.0
C186 C 0.82147 0.86392 0.06869 0.0
C187 C 0.85332 0.87502 0.06105 0.0
C188 C 0.8563 0.87757 0.04225 0.0
C189 C 0.82746 0.869 0.03068 0.0
C190 C 0.79524 0.85809 0.03845 0.0
C191 C 0.79227 0.85558 0.05732 0.0
P192 P 0.27256 0.89203 0.41761 0.0
H193 H 0.28469 0.85879 0.44542 0.0
H194 H 0.25156 0.85076 0.47417 0.0
H195 H 0.1664 0.90064 0.46217 0.0
H196 H 0.1996 0.90861 0.43356 0.0
H197 H 0.33198 0.88712 0.38997 0.0
H198 H 0.35145 0.85676 0.37063 0.0
H199 H 0.26103 0.81667 0.39463 0.0
H200 H 0.24148 0.84724 0.41388 0.0
H201 H 0.2728 0.93959 0.41748 0.0
H202 H 0.21537 0.88798 0.38816 0.0
O203 O 0.31376 0.90337 0.42518 0.0
H204 H 0.23925 0.96672 0.3988 0.0
H205 H 0.18114 0.91505 0.36953 0.0
C206 C 0.24442 0.88409 0.43724 0.0
C207 C 0.25842 0.86767 0.44883 0.0
C208 C 0.23941 0.86307 0.46522 0.0
C209 C 0.20639 0.8751 0.47043 0.0
C210 C 0.19195 0.89122 0.45858 0.0
C211 C 0.21083 0.8957 0.44214 0.0
C212 C 0.28595 0.86926 0.40363 0.0
C213 C 0.31643 0.87177 0.39111 0.0
C214 C 0.32734 0.85447 0.37998 0.0
C215 C 0.30787 0.8343 0.38119 0.0
C216 C 0.27691 0.83192 0.39361 0.0
C217 C 0.26575 0.84937 0.40462 0.0
C218 C 0.24719 0.91182 0.40392 0.0
C219 C 0.25299 0.93411 0.40698 0.0
C220 C 0.23351 0.94961 0.39639 0.0
C221 C 0.20765 0.94306 0.3826 0.0
C222 C 0.20136 0.92063 0.37983 0.0
C223 C 0.22082 0.90514 0.39048 0.0
P224 P 0.31926 0.6349 0.90765 0.0
H225 H 0.34928 0.62612 0.87169 0.0
H226 H 0.35854 0.59265 0.85449 0.0
H227 H 0.30663 0.55549 0.89838 0.0
H228 H 0.29785 0.58919 0.91564 0.0
H229 H 0.30359 0.68137 0.90901 0.0
H230 H 0.25424 0.70429 0.89457 0.0
H231 H 0.19725 0.64673 0.87354 0.0
H232 H 0.24721 0.62393 0.88783 0.0
H233 H 0.37323 0.61536 0.93307 0.0
H234 H 0.25752 0.64282 0.93486 0.0
O235 O 0.36028 0.64914 0.90438 0.0
H236 H 0.37292 0.61132 0.96605 0.0
H237 H 0.25662 0.63849 0.96793 0.0
C238 C 0.32371 0.61004 0.89504 0.0
C239 C 0.33987 0.61076 0.87759 0.0
C240 C 0.34481 0.59163 0.86772 0.0
C241 C 0.33342 0.57139 0.8751 0.0
C242 C 0.31619 0.5708 0.89245 0.0
C243 C 0.31114 0.59004 0.90231 0.0
C244 C 0.27953 0.65106 0.8991 0.0
C245 C 0.28025 0.6737 0.90142 0.0
C246 C 0.25181 0.68676 0.89327 0.0
C247 C 0.222 0.67735 0.88273 0.0
C248 C 0.22024 0.65449 0.88129 0.0
C249 C 0.24872 0.64144 0.88949 0.0
C250 C 0.31566 0.6296 0.9316 0.0
C251 C 0.34751 0.62021 0.94059 0.0
C252 C 0.34713 0.61776 0.95943 0.0
C253 C 0.31477 0.62466 0.96964 0.0
C254 C 0.28217 0.63328 0.96046 0.0
C255 C 0.2826 0.63571 0.94156 0.0
Eu256 Eu 0.05213 0.13288 0.23081 0.0
C257 C 0.87772 0.11296 0.24563 0.0
N258 N 0.89488 0.13297 0.24493 0.0
C259 C 0.84306 0.14653 0.22622 0.0
C260 C 0.84268 0.10886 0.23616 0.0
C261 C 0.87799 0.14977 0.23565 0.0
C262 C 0.8254 0.12596 0.2264 0.0
C263 C 0.87933 0.07531 0.25587 0.0
C264 C 0.89618 0.09633 0.25526 0.0
C265 C 0.84465 0.07112 0.2463 0.0
C266 C 0.82636 0.08785 0.2365 0.0
Eu267 Eu 0.9538 0.13704 0.26108 0.0
N268 N 0.9302 0.10073 0.26416 0.0
C269 C 0.89743 0.05918 0.26638 0.0
C270 C 0.94581 0.08557 0.27568 0.0
C271 C 0.93039 0.06446 0.27659 0.0
H272 H 0.89137 0.16572 0.23568 0.0
H273 H 0.94347 0.05241 0.28547 0.0
H274 H 0.11294 0.10144 0.25491 0.0
H275 H 0.06964 0.2177 0.20799 0.0
H276 H 0.96921 0.08971 0.28474 0.0
H277 H 0.8854 0.04285 0.26721 0.0
H278 H 0.0388 0.18168 0.20917 0.0
H279 H 0.82979 0.15987 0.2188 0.0
H280 H 0.83151 0.05503 0.24654 0.0
H281 H 0.79959 0.08436 0.22922 0.0
H282 H 0.17651 0.10459 0.27055 0.0
H283 H 0.79847 0.12346 0.21897 0.0
H284 H 0.13147 0.2243 0.2244 0.0
N285 N 0.11256 0.1344 0.24604 0.0
C286 C 0.13217 0.15369 0.24515 0.0
C287 C 0.16428 0.11855 0.26355 0.0
C288 C 0.16867 0.15619 0.25378 0.0
C289 C 0.12812 0.11686 0.25486 0.0
C290 C 0.18461 0.13832 0.26305 0.0
N291 N 0.0795 0.16835 0.22801 0.0
C292 C 0.06418 0.18449 0.21738 0.0
C293 C 0.13453 0.19146 0.23521 0.0
C294 C 0.11499 0.17118 0.23608 0.0
C295 C 0.11736 0.20851 0.22541 0.0
C296 C 0.08233 0.2049 0.21624 0.0
H297 H 0.21257 0.1396 0.26986 0.0
H298 H 0.21579 0.17869 0.25973 0.0
H299 H 0.18606 0.20951 0.24338 0.0
O300 O 0.06142 0.13296 0.20103 0.0
O301 O 0.05721 0.14924 0.25842 0.0
O302 O 0.99705 0.16496 0.26205 0.0
O303 O 0.09558 0.11167 0.21883 0.0
O304 O 0.99989 0.15079 0.21851 0.0
O305 O 0.96733 0.16595 0.24292 0.0
O306 O 0.94108 0.13658 0.29051 0.0
O307 O 0.95034 0.12206 0.23286 0.0
O308 O 0.00914 0.10483 0.23072 0.0
O309 O 0.90881 0.15813 0.27219 0.0
O310 O 0.00681 0.12036 0.27383 0.0
O311 O 0.03801 0.10452 0.24945 0.0
C312 C 0.03426 0.16365 0.26606 0.0
C313 C 0.11038 0.10916 0.18679 0.0
C314 C 0.12561 0.10785 0.15446 0.0
C315 C 0.15321 0.09149 0.1579 0.0
C316 C 0.13817 0.0927 0.18991 0.0
C317 C 0.15934 0.08393 0.17554 0.0
C318 C 0.104 0.11667 0.1689 0.0
C319 C 0.97576 0.16529 0.22547 0.0
C320 C 0.08865 0.1182 0.20234 0.0
C321 C 0.1878 0.17645 0.25312 0.0
C322 C 0.17079 0.19402 0.24387 0.0
C323 C 0.97198 0.10616 0.2267 0.0
C324 C 0.89048 0.15978 0.30398 0.0
C325 C 0.87029 0.15898 0.33582 0.0
C326 C 0.84301 0.17547 0.33208 0.0
C327 C 0.86305 0.17634 0.30064 0.0
C328 C 0.89436 0.15129 0.32172 0.0
C329 C 0.83961 0.18414 0.31463 0.0
C330 C 0.03096 0.10582 0.26698 0.0
C331 C 0.91382 0.15122 0.28873 0.0
H332 H 0.16999 0.08455 0.14688 0.0
H333 H 0.14365 0.08655 0.20349 0.0
H334 H 0.18064 0.07128 0.17809 0.0
H335 H 0.08273 0.12934 0.16622 0.0
H336 H 0.82449 0.18182 0.34275 0.0
H337 H 0.85949 0.18323 0.28716 0.0
H338 H 0.91527 0.13846 0.32449 0.0
H339 H 0.81859 0.1969 0.31191 0.0
Eu340 Eu 0.45719 0.36398 0.73421 0.0
C341 C 0.63792 0.37792 0.75606 0.0
N342 N 0.6158 0.35973 0.75343 0.0
C343 C 0.66796 0.34328 0.7367 0.0
C344 C 0.67568 0.37971 0.74852 0.0
C345 C 0.6307 0.34225 0.74444 0.0
C346 C 0.69042 0.36216 0.7386 0.0
C347 C 0.64493 0.41399 0.76923 0.0
C348 C 0.62289 0.39483 0.76644 0.0
C349 C 0.68224 0.41592 0.76149 0.0
C350 C 0.69761 0.39882 0.75121 0.0
Eu351 Eu 0.55371 0.35957 0.76751 0.0
N352 N 0.58622 0.39279 0.77336 0.0
C353 C 0.62861 0.43074 0.77958 0.0
C354 C 0.57089 0.40866 0.78411 0.0
C355 C 0.59153 0.42799 0.78715 0.0
H356 H 0.61447 0.32724 0.74366 0.0
H357 H 0.57896 0.44067 0.79546 0.0
H358 H 0.39314 0.39043 0.76003 0.0
H359 H 0.45191 0.28078 0.7072 0.0
H360 H 0.54299 0.40642 0.79057 0.0
H361 H 0.64451 0.44576 0.78194 0.0
H362 H 0.47679 0.31815 0.70969 0.0
H363 H 0.67952 0.32941 0.72946 0.0
H364 H 0.6995 0.43057 0.76341 0.0
H365 H 0.72657 0.40051 0.74542 0.0
H366 H 0.33052 0.38299 0.7758 0.0
H367 H 0.71932 0.36289 0.73263 0.0
H368 H 0.39278 0.26967 0.72417 0.0
N369 N 0.39836 0.35822 0.74995 0.0
C370 C 0.38195 0.33812 0.74833 0.0
C371 C 0.34477 0.37023 0.76819 0.0
C372 C 0.3464 0.33315 0.75711 0.0
C373 C 0.38018 0.37438 0.75935 0.0
C374 C 0.32787 0.3495 0.76713 0.0
N375 N 0.43565 0.32763 0.72982 0.0
C376 C 0.45268 0.31329 0.71814 0.0
C377 C 0.38521 0.30125 0.73666 0.0
C378 C 0.40146 0.32232 0.7383 0.0
C379 C 0.40434 0.286 0.72579 0.0
C380 C 0.43787 0.29217 0.71627 0.0
H381 H 0.30053 0.3463 0.77407 0.0
H382 H 0.30354 0.30789 0.7625 0.0
H383 H 0.33735 0.28002 0.74455 0.0
O384 O 0.43236 0.36235 0.70676 0.0
O385 O 0.45191 0.34999 0.76281 0.0
O386 O 0.50978 0.3325 0.76375 0.0
O387 O 0.42016 0.39044 0.72408 0.0
O388 O 0.51163 0.34868 0.72202 0.0
O389 O 0.54303 0.33315 0.74666 0.0
O390 O 0.55279 0.35667 0.79765 0.0
O391 O 0.5559 0.38745 0.74695 0.0
O392 O 0.51057 0.38157 0.72381 0.0
O393 O 0.59501 0.3386 0.7812 0.0
O394 O 0.50052 0.37771 0.77801 0.0
O395 O 0.47194 0.39271 0.75222 0.0
C396 C 0.47391 0.33451 0.76946 0.0
C397 C 0.39132 0.39091 0.69377 0.0
C398 C 0.37544 0.39516 0.66157 0.0
C399 C 0.35021 0.41236 0.66601 0.0
C400 C 0.36572 0.40804 0.69785 0.0
C401 C 0.34519 0.4186 0.68403 0.0
C402 C 0.39561 0.38423 0.67557 0.0
C403 C 0.53752 0.33522 0.72905 0.0
C404 C 0.41517 0.38114 0.70838 0.0
C405 C 0.33071 0.31206 0.75577 0.0
C406 C 0.35006 0.29616 0.7456 0.0
C407 C 0.5415 0.3913 0.73065 0.0
C408 C 0.59803 0.33148 0.81326 0.0
C409 C 0.61339 0.3299 0.84557 0.0
C410 C 0.62803 0.30871 0.84328 0.0
C411 C 0.61317 0.31035 0.81124 0.0
C412 C 0.59847 0.34131 0.83047 0.0
C413 C 0.62805 0.29907 0.82619 0.0
C414 C 0.47886 0.39262 0.76984 0.0
C415 C 0.58184 0.34294 0.79733 0.0
H416 H 0.33409 0.42088 0.65549 0.0
H417 H 0.36182 0.41343 0.71172 0.0
H418 H 0.32559 0.43183 0.68729 0.0
H419 H 0.41558 0.37117 0.67222 0.0
H420 H 0.63991 0.29973 0.85472 0.0
H421 H 0.61318 0.30245 0.79811 0.0
H422 H 0.58708 0.35765 0.83214 0.0
H423 H 0.6396 0.28278 0.82453 0.0
Eu424 Eu 0.04191 0.85851 0.73315 0.0
C425 C 0.87145 0.83719 0.74914 0.0
N426 N 0.88711 0.85753 0.74774 0.0
C427 C 0.83543 0.8686 0.72783 0.0
C428 C 0.83746 0.83161 0.73939 0.0
C429 C 0.8694 0.87334 0.73759 0.0
C430 C 0.81952 0.84761 0.72864 0.0
C431 C 0.87473 0.8005 0.7615 0.0
C432 C 0.89028 0.82177 0.75993 0.0
C433 C 0.84129 0.79477 0.75155 0.0
C434 C 0.82271 0.81027 0.74053 0.0
Eu435 Eu 0.945 0.86395 0.7642 0.0
N436 N 0.92304 0.82766 0.76923 0.0
C437 C 0.8927 0.78576 0.77339 0.0
C438 C 0.93819 0.81399 0.7821 0.0
C439 C 0.92405 0.79269 0.78401 0.0
H440 H 0.88167 0.88956 0.737 0.0
H441 H 0.93688 0.78177 0.79394 0.0
H442 H 0.09968 0.82031 0.75135 0.0
H443 H 0.07069 0.94519 0.72035 0.0
H444 H 0.96037 0.81951 0.79136 0.0
H445 H 0.88163 0.7693 0.775 0.0
H446 H 0.03376 0.91094 0.71848 0.0
H447 H 0.82162 0.88111 0.71966 0.0
H448 H 0.82921 0.77845 0.75248 0.0
H449 H 0.79681 0.80562 0.73302 0.0
H450 H 0.16429 0.81782 0.7662 0.0
H451 H 0.79337 0.84395 0.72095 0.0
H452 H 0.13515 0.9459 0.73546 0.0
N453 N 0.10373 0.85441 0.74675 0.0
C454 C 0.12605 0.87271 0.74797 0.0
C455 C 0.1538 0.83337 0.76121 0.0
C456 C 0.16327 0.87203 0.75613 0.0
C457 C 0.1171 0.83485 0.75299 0.0
C458 C 0.17695 0.85205 0.76285 0.0
N459 N 0.07509 0.89248 0.73359 0.0
C460 C 0.06098 0.91102 0.7257 0.0
C461 C 0.13399 0.91149 0.74219 0.0
C462 C 0.11146 0.89226 0.74111 0.0
C463 C 0.11874 0.93078 0.7349 0.0
C464 C 0.08227 0.93048 0.72645 0.0
H465 H 0.20538 0.85086 0.76923 0.0
H466 H 0.21417 0.89101 0.76365 0.0
H467 H 0.18858 0.92553 0.75144 0.0
O468 O 0.04301 0.86138 0.70352 0.0
O469 O 0.04835 0.87557 0.76033 0.0
O470 O 0.98886 0.89162 0.76592 0.0
O471 O 0.08226 0.83904 0.71698 0.0
O472 O 0.99136 0.87861 0.72179 0.0
O473 O 0.95793 0.89302 0.7463 0.0
O474 O 0.93117 0.86536 0.79357 0.0
O475 O 0.94168 0.84978 0.73563 0.0
O476 O 0.99854 0.83072 0.73358 0.0
O477 O 0.89927 0.88537 0.77397 0.0
O478 O 0.99864 0.84731 0.77639 0.0
O479 O 0.02688 0.83029 0.75178 0.0
C480 C 0.0269 0.89068 0.76793 0.0
C481 C 0.10476 0.85633 0.69011 0.0
C482 C 0.13079 0.86428 0.65993 0.0
C483 C 0.164 0.87366 0.66797 0.0
C484 C 0.13844 0.86551 0.69785 0.0
C485 C 0.16782 0.87414 0.68682 0.0
C486 C 0.10124 0.85553 0.6711 0.0
C487 C 0.96731 0.89296 0.72898 0.0
C488 C 0.07263 0.84828 0.70167 0.0
C489 C 0.18555 0.89121 0.75737 0.0
C490 C 0.17097 0.91088 0.75042 0.0
C491 C 0.96133 0.83286 0.72994 0.0
C492 C 0.87993 0.88955 0.80539 0.0
C493 C 0.8643 0.89491 0.83743 0.0
C494 C 0.83676 0.91076 0.83244 0.0
C495 C 0.8519 0.90536 0.80076 0.0
C496 C 0.88568 0.88411 0.82384 0.0
C497 C 0.83046 0.91582 0.81421 0.0
C498 C 0.02103 0.83201 0.76939 0.0
C499 C 0.90406 0.87989 0.79088 0.0
H500 H 0.18724 0.88037 0.65964 0.0
H501 H 0.14212 0.86605 0.71238 0.0
H502 H 0.19363 0.88124 0.69291 0.0
H503 H 0.07526 0.84852 0.66503 0.0
H504 H 0.81988 0.91916 0.84269 0.0
H505 H 0.84679 0.90989 0.78672 0.0
H506 H 0.90729 0.87205 0.82765 0.0
H507 H 0.80909 0.92803 0.8105 0.0
Eu508 Eu 0.44241 0.63321 0.23506 0.0
C509 C 0.61018 0.66131 0.24861 0.0
N510 N 0.59717 0.64035 0.24854 0.0
C511 C 0.64972 0.62993 0.22897 0.0
C512 C 0.64316 0.66751 0.23832 0.0
C513 C 0.61666 0.62458 0.23923 0.0
C514 C 0.66288 0.65151 0.22841 0.0
C515 C 0.60256 0.69855 0.2589 0.0
C516 C 0.58966 0.67668 0.2586 0.0
C517 C 0.63496 0.70488 0.24839 0.0
C518 C 0.65517 0.68941 0.23812 0.0
Eu519 Eu 0.54033 0.63286 0.26556 0.0
N520 N 0.55795 0.67017 0.26845 0.0
C521 C 0.58314 0.71331 0.27012 0.0
C522 C 0.5416 0.68402 0.28072 0.0
C523 C 0.55308 0.70589 0.28138 0.0
H524 H 0.60647 0.60792 0.23966 0.0
H525 H 0.53925 0.71691 0.29083 0.0
H526 H 0.38337 0.67282 0.24994 0.0
H527 H 0.41761 0.54525 0.23024 0.0
H528 H 0.52053 0.67824 0.29048 0.0
H529 H 0.59218 0.73024 0.27076 0.0
H530 H 0.45522 0.57926 0.22741 0.0
H531 H 0.66493 0.61744 0.22146 0.0
H532 H 0.64498 0.72165 0.24833 0.0
H533 H 0.68025 0.69452 0.23017 0.0
H534 H 0.31668 0.67643 0.26239 0.0
H535 H 0.68834 0.65564 0.22034 0.0
H536 H 0.34974 0.5461 0.24167 0.0
N537 N 0.3795 0.63846 0.24707 0.0
C538 C 0.35679 0.62032 0.24856 0.0
C539 C 0.32767 0.66055 0.25863 0.0
C540 C 0.31835 0.62167 0.25532 0.0
C541 C 0.36556 0.65844 0.25181 0.0
C542 C 0.30396 0.64209 0.26042 0.0
N543 N 0.41009 0.59927 0.23795 0.0
C544 C 0.42612 0.57993 0.2328 0.0
C545 C 0.34955 0.58111 0.24532 0.0
C546 C 0.3723 0.60023 0.24365 0.0
C547 C 0.36625 0.56114 0.24056 0.0
C548 C 0.40463 0.56058 0.2342 0.0
H549 H 0.27459 0.64379 0.26569 0.0
H550 H 0.26601 0.60339 0.26205 0.0
H551 H 0.29328 0.56793 0.25329 0.0
O552 O 0.44164 0.62624 0.20603 0.0
O553 O 0.43701 0.61628 0.26259 0.0
O554 O 0.49933 0.60417 0.26813 0.0
O555 O 0.40116 0.6497 0.21708 0.0
O556 O 0.4943 0.61374 0.22445 0.0
O557 O 0.53133 0.60228 0.24909 0.0
O558 O 0.55395 0.63365 0.29488 0.0
O559 O 0.54142 0.64501 0.23626 0.0
O560 O 0.48299 0.66238 0.23377 0.0
O561 O 0.5886 0.61379 0.27641 0.0
O562 O 0.48507 0.64808 0.27738 0.0
O563 O 0.45514 0.66282 0.25216 0.0
C564 C 0.4619 0.60428 0.27182 0.0
C565 C 0.42311 0.65533 0.18707 0.0
C566 C 0.4186 0.6628 0.15459 0.0
C567 C 0.43992 0.68219 0.15717 0.0
C568 C 0.44411 0.67477 0.18945 0.0
C569 C 0.45257 0.6881 0.17451 0.0
C570 C 0.41048 0.64941 0.16969 0.0
C571 C 0.52066 0.60086 0.23195 0.0
C572 C 0.41492 0.64073 0.20244 0.0
C573 C 0.29561 0.60266 0.2569 0.0
C574 C 0.31114 0.58245 0.2519 0.0
C575 C 0.52006 0.66085 0.22968 0.0
C576 C 0.60782 0.61249 0.3081 0.0
C577 C 0.62537 0.61175 0.3402 0.0
C578 C 0.65661 0.59782 0.33624 0.0
C579 C 0.63917 0.5984 0.30446 0.0
C580 C 0.60079 0.61902 0.32613 0.0
C581 C 0.66331 0.59112 0.31846 0.0
C582 C 0.4608 0.66209 0.26981 0.0
C583 C 0.5829 0.62013 0.29299 0.0
H584 H 0.44637 0.69294 0.14583 0.0
H585 H 0.45387 0.67962 0.2028 0.0
H586 H 0.46885 0.70307 0.1764 0.0
H587 H 0.3948 0.63418 0.16793 0.0
H588 H 0.67575 0.59209 0.34696 0.0
H589 H 0.64517 0.59302 0.29075 0.0
H590 H 0.57673 0.62983 0.32921 0.0
H591 H 0.68739 0.5803 0.31552 0.0
C592 C 0.18422 0.95649 0.35221 0.0
C593 C 0.18774 0.95959 0.37104 0.0
C594 C 0.16641 0.97228 0.34126 0.0
C595 C 0.14031 0.03077 0.34023 0.0
H596 H 0.07241 0.0132 0.30076 0.0
C597 C 0.04994 0.09264 0.29807 0.0
C598 C 0.04854 0.0893 0.27921 0.0
C599 C 0.06639 0.07691 0.30956 0.0
C600 C 0.0916 0.01837 0.31162 0.0
H601 H 0.17445 0.98153 0.39319 0.0
H602 H 0.14325 0.00905 0.37412 0.0
H603 H 0.10179 0.98551 0.32026 0.0
H604 H 0.06311 0.06679 0.25763 0.0
H605 H 0.09213 0.03954 0.2776 0.0
H606 H 0.13011 0.06364 0.33155 0.0
C607 C 0.15489 0.99457 0.36775 0.0
C608 C 0.10846 0.0025 0.32279 0.0
C609 C 0.17274 0.97879 0.37869 0.0
C610 C 0.06386 0.06991 0.27209 0.0
C611 C 0.08021 0.05419 0.28356 0.0
C612 C 0.1234 0.04665 0.32906 0.0
C613 C 0.15163 0.99155 0.34889 0.0
C614 C 0.13315 0.00848 0.33719 0.0
C615 C 0.08163 0.05747 0.30243 0.0
C616 C 0.09898 0.04064 0.31457 0.0
H617 H 0.196 0.94205 0.34584 0.0
H618 H 0.16494 0.96958 0.32675 0.0
H619 H 0.15964 0.03594 0.35103 0.0
H620 H 0.03838 0.10742 0.30396 0.0
H621 H 0.06669 0.07984 0.32405 0.0
C622 C 0.33531 0.55035 0.84601 0.0
C623 C 0.34108 0.55102 0.86489 0.0
C624 C 0.34654 0.53211 0.83606 0.0
C625 C 0.37439 0.47401 0.83955 0.0
H626 H 0.4326 0.48702 0.79559 0.0
C627 C 0.46194 0.4088 0.8001 0.0
C628 C 0.46092 0.40994 0.78101 0.0
C629 C 0.44533 0.42531 0.81057 0.0
C630 C 0.41596 0.48306 0.80768 0.0
H631 H 0.36179 0.5327 0.88825 0.0
H632 H 0.38133 0.50076 0.87084 0.0
H633 H 0.40563 0.51667 0.81337 0.0
H634 H 0.44091 0.42916 0.758 0.0
H635 H 0.41153 0.45768 0.77623 0.0
H636 H 0.38496 0.44031 0.83383 0.0
C637 C 0.3679 0.51433 0.86376 0.0
C638 C 0.40047 0.50007 0.81787 0.0
C639 C 0.35667 0.53262 0.87373 0.0
C640 C 0.44244 0.42779 0.77266 0.0
C641 C 0.42578 0.44424 0.78312 0.0
C642 C 0.38985 0.45693 0.82929 0.0
C643 C 0.36379 0.5141 0.84476 0.0
C644 C 0.37944 0.49577 0.8339 0.0
C645 C 0.42727 0.44329 0.80219 0.0
C646 C 0.41075 0.46128 0.81322 0.0
H647 H 0.32263 0.56409 0.83886 0.0
H648 H 0.34222 0.53223 0.82148 0.0
H649 H 0.3581 0.47018 0.85177 0.0
H650 H 0.47577 0.39521 0.80699 0.0
H651 H 0.44731 0.42418 0.82523 0.0
C652 C 0.66972 0.52163 0.6186 0.0
C653 C 0.69147 0.53902 0.62579 0.0
C654 C 0.65353 0.50579 0.63007 0.0
C655 C 0.62635 0.49534 0.67812 0.0
H656 H 0.62941 0.43478 0.66333 0.0
C657 C 0.58559 0.42386 0.72635 0.0
C658 C 0.56077 0.4079 0.71898 0.0
C659 C 0.60249 0.43983 0.71518 0.0
C660 C 0.62815 0.45165 0.66759 0.0
H661 H 0.71368 0.55327 0.65064 0.0
H662 H 0.68574 0.52559 0.67063 0.0
H663 H 0.65623 0.46287 0.64332 0.0
H664 H 0.5343 0.39627 0.69401 0.0
H665 H 0.56344 0.42413 0.67467 0.0
H666 H 0.59855 0.48399 0.70248 0.0
C667 C 0.68047 0.52441 0.65616 0.0
C668 C 0.64335 0.46775 0.6561 0.0
C669 C 0.69651 0.54028 0.6447 0.0
C670 C 0.55333 0.40827 0.70019 0.0
C671 C 0.57024 0.42415 0.68904 0.0
C672 C 0.61137 0.4792 0.68966 0.0
C673 C 0.6589 0.50692 0.64899 0.0
C674 C 0.64254 0.48981 0.6612 0.0
C675 C 0.5949 0.44013 0.69641 0.0
C676 C 0.612 0.4572 0.68448 0.0
H677 H 0.66492 0.52037 0.6041 0.0
H678 H 0.63653 0.49274 0.62412 0.0
H679 H 0.6247 0.5122 0.68235 0.0
H680 H 0.59124 0.42436 0.74078 0.0
H681 H 0.62153 0.45192 0.72121 0.0
C682 C 0.87388 0.94163 0.14859 0.0
C683 C 0.84131 0.94168 0.13699 0.0
C684 C 0.88364 0.96009 0.15859 0.0
C685 C 0.87126 0.01966 0.16047 0.0
H686 H 0.90916 0.01138 0.20968 0.0
C687 C 0.91798 0.09131 0.20731 0.0
C688 C 0.95339 0.08817 0.2166 0.0
C689 C 0.90033 0.07404 0.19803 0.0
C690 C 0.8988 0.01396 0.19593 0.0
H691 H 0.79362 0.96134 0.12665 0.0
H692 H 0.81073 0.99378 0.14426 0.0
H693 H 0.88515 0.98019 0.19264 0.0
H694 H 0.99821 0.06459 0.22338 0.0
H695 H 0.96778 0.03461 0.20705 0.0
H696 H 0.88543 0.0535 0.16382 0.0
C697 C 0.82879 0.97938 0.1455 0.0
C698 C 0.88508 0.99609 0.18615 0.0
C699 C 0.81899 0.96082 0.13543 0.0
C700 C 0.97094 0.06752 0.21633 0.0
C701 C 0.9533 0.05029 0.20713 0.0
C702 C 0.88493 0.03761 0.17032 0.0
C703 C 0.86111 0.97915 0.15729 0.0
C704 C 0.87197 -0.00138 0.16816 0.0
C705 C 0.91777 0.05332 0.1979 0.0
C706 C 0.89964 0.03484 0.18802 0.0
H707 H 0.8923 0.92737 0.14977 0.0
H708 H 0.90932 0.95951 0.16718 0.0
H709 H 0.86158 0.02215 0.14662 0.0
H710 H 0.90408 0.10714 0.20711 0.0
H711 H 0.87288 0.07684 0.1911 0.0
C712 C 0.86164 0.03079 0.61894 0.0
C713 C 0.8431 0.04911 0.62639 0.0
C714 C 0.87019 0.01266 0.6298 0.0
C715 C 0.88971 -0.00095 0.6775 0.0
H716 H 0.88375 0.93918 0.66105 0.0
C717 C 0.92821 0.92705 0.72457 0.0
C718 C 0.95045 0.91008 0.71709 0.0
C719 C 0.91225 0.94321 0.71343 0.0
C720 C 0.88589 0.95583 0.66576 0.0
H721 H 0.81764 0.06237 0.65094 0.0
H722 H 0.83189 0.0306 0.66977 0.0
H723 H 0.85917 0.96851 0.6416 0.0
H724 H 0.97317 0.89679 0.69197 0.0
H725 H 0.9458 0.92523 0.67256 0.0
H726 H 0.91695 0.98654 0.70148 0.0
C727 C 0.84029 0.03038 0.65558 0.0
C728 C 0.87174 0.97261 0.65464 0.0
C729 C 0.83169 0.04848 0.64473 0.0
C730 C 0.95621 0.90962 0.69819 0.0
C731 C 0.94026 0.92583 0.68704 0.0
C732 C 0.90388 0.98232 0.68857 0.0
C733 C 0.86046 0.01248 0.64835 0.0
C734 C 0.87361 0.99442 0.66038 0.0
C735 C 0.91822 0.94287 0.69455 0.0
C736 C 0.90229 0.96052 0.68282 0.0
H737 H 0.8704 0.03069 0.6048 0.0
H738 H 0.88589 -0.00083 0.62383 0.0
H739 H 0.89233 0.0157 0.68217 0.0
H740 H 0.92306 0.92792 0.73907 0.0
H741 H 0.89499 0.95594 0.71963 0.0
C742 C 0.66707 0.47401 0.12298 0.0
C743 C 0.69437 0.45941 0.13043 0.0
C744 C 0.64734 0.48877 0.13408 0.0
C745 C 0.65421 0.5158 0.17877 0.0
H746 H 0.54491 0.52879 0.17041 0.0
C747 C 0.56437 0.56841 0.22821 0.0
C748 C 0.53901 0.5839 0.22051 0.0
C749 C 0.58254 0.55283 0.21734 0.0
C750 C 0.57553 0.5255 0.17281 0.0
H751 H 0.72157 0.44846 0.15544 0.0
H752 H 0.68695 0.47406 0.17484 0.0
H753 H 0.57789 0.50223 0.15127 0.0
H754 H 0.51266 0.59498 0.19529 0.0
H755 H 0.54454 0.56789 0.17635 0.0
H756 H 0.65186 0.53906 0.2003 0.0
C757 C 0.68134 0.47442 0.16037 0.0
C758 C 0.59446 0.51028 0.16183 0.0
C759 C 0.70114 0.45972 0.14926 0.0
C760 C 0.53191 0.58326 0.20171 0.0
C761 C 0.55006 0.56766 0.19084 0.0
C762 C 0.63528 0.53098 0.18976 0.0
C763 C 0.65436 0.48922 0.1529 0.0
C764 C 0.63404 0.50525 0.16467 0.0
C765 C 0.57575 0.55233 0.19851 0.0
C766 C 0.59573 0.53603 0.1869 0.0
H767 H 0.6616 0.47438 0.10849 0.0
H768 H 0.6272 0.50014 0.12784 0.0
H769 H 0.68488 0.51262 0.18114 0.0
H770 H 0.57035 0.56831 0.24266 0.0
H771 H 0.60173 0.54105 0.22372 0.0
C772 C 0.32789 0.45408 0.36273 0.0
C773 C 0.35353 0.44659 0.37635 0.0
C774 C 0.3359 0.47339 0.3532 0.0
C775 C 0.41796 0.50263 0.33614 0.0
H776 H 0.35153 0.55318 0.32986 0.0
C777 C 0.47345 0.57677 0.29633 0.0
C778 C 0.44705 0.58842 0.2854 0.0
C779 C 0.46013 0.56107 0.30863 0.0
C780 C 0.37022 0.53906 0.33122 0.0
H781 H 0.40592 0.45461 0.39158 0.0
H782 H 0.42057 0.48771 0.37438 0.0
H783 H 0.32994 0.52291 0.34927 0.0
H784 H 0.38561 0.5937 0.27989 0.0
H785 H 0.36245 0.56516 0.30023 0.0
H786 H 0.45738 0.51775 0.31757 0.0
C787 C 0.39441 0.47855 0.37113 0.0
C788 C 0.35788 0.52185 0.34244 0.0
C789 C 0.38614 0.4595 0.38085 0.0
C790 C 0.40686 0.58453 0.28758 0.0
C791 C 0.39351 0.56838 0.29957 0.0
C792 C 0.4299 0.51951 0.32467 0.0
C793 C 0.36986 0.48537 0.35698 0.0
C794 C 0.38193 0.50364 0.34511 0.0
C795 C 0.42006 0.5562 0.31009 0.0
C796 C 0.40648 0.53812 0.32219 0.0
H797 H 0.30269 0.44452 0.35879 0.0
H798 H 0.3167 0.47834 0.34224 0.0
H799 H 0.43667 0.48853 0.33778 0.0
H800 H 0.5046 0.57972 0.2954 0.0
H801 H 0.48148 0.5527 0.31695 0.0
C802 C 0.21945 0.01692 0.86068 0.0
C803 C 0.20224 0.03732 0.86401 0.0
C804 C 0.20065 0.00154 0.84978 0.0
C805 C 0.10362 0.98564 0.83297 0.0
H806 H 0.16226 0.95275 0.79739 0.0
C807 C 0.02811 0.92759 0.78234 0.0
C808 C 0.04676 0.90773 0.77869 0.0
C809 C 0.04718 0.94379 0.79229 0.0
C810 C 0.14553 0.96161 0.80741 0.0
H811 H 0.15189 0.05758 0.85817 0.0
H812 H 0.11888 0.03059 0.83935 0.0
H813 H 0.1954 0.98026 0.81564 0.0
H814 H 0.09972 0.88908 0.78299 0.0
H815 H 0.1329 0.91724 0.80034 0.0
H816 H 0.05388 0.96684 0.82497 0.0
C817 C 0.14682 0.02648 0.84533 0.0
C818 C 0.16452 0.9774 0.81784 0.0
C819 C 0.16573 0.04193 0.85614 0.0
C820 C 0.08478 0.90435 0.78529 0.0
C821 C 0.10385 0.92053 0.79523 0.0
C822 C 0.08466 0.96979 0.82261 0.0
C823 C 0.16406 0.00611 0.84204 0.0
C824 C 0.14379 0.98957 0.83075 0.0
C825 C 0.08528 0.94045 0.79888 0.0
C826 C 0.10538 0.95755 0.80971 0.0
H827 H 0.24717 0.01262 0.86678 0.0
H828 H 0.21443 0.98586 0.84773 0.0
H829 H 0.08696 0.99453 0.843 0.0
H830 H 0.99892 0.93076 0.77733 0.0
H831 H 0.03221 0.95905 0.79462 0.0
C832 C 0.17716 0.13027 0.99137 0.0
C833 C 0.2019 0.11268 0.98731 0.0
C834 C 0.16086 0.13234 0.00874 0.0
C835 C 0.13812 0.10021 0.05005 0.0
H836 H 0.14299 0.15558 0.07513 0.0
C837 C 0.09195 0.10571 0.12457 0.0
C838 C 0.12039 0.1154 0.1356 0.0
C839 C 0.09303 0.10875 0.10572 0.0
C840 C 0.14119 0.14004 0.06825 0.0
H841 H 0.22985 0.08389 0.99855 0.0
H842 H 0.20128 0.08739 0.02858 0.0
H843 H 0.16333 0.15346 0.04333 0.0
H844 H 0.17095 0.13655 0.13609 0.0
H845 H 0.17293 0.14203 0.10321 0.0
H846 H 0.11779 0.08651 0.07505 0.0
C847 C 0.19379 0.09935 0.01828 0.0
C848 C 0.15257 0.13886 0.05001 0.0
C849 C 0.21016 0.09734 0.00103 0.0
C850 C 0.14843 0.12921 0.12776 0.0
C851 C 0.14946 0.13234 0.10895 0.0
C852 C 0.12664 0.10139 0.0682 0.0
C853 C 0.16885 0.1168 0.02234 0.0
C854 C 0.15218 0.11879 0.04088 0.0
C855 C 0.12268 0.12147 0.09765 0.0
C856 C 0.12895 0.1212 0.07767 0.0
H857 H 0.16995 0.14228 0.98108 0.0
H858 H 0.14162 0.14593 0.01145 0.0
H859 H 0.13695 0.08457 0.04329 0.0
H860 H 0.07039 0.09477 0.1304 0.0
H861 H 0.07175 0.10035 0.0974 0.0
C862 C 0.31036 0.36706 0.50136 0.0
C863 C 0.33922 0.35753 0.49043 0.0
C864 C 0.31637 0.36961 0.52 0.0
C865 C 0.37787 0.35123 0.55872 0.0
H866 H 0.34348 0.4057 0.57973 0.0
C867 C 0.37396 0.3676 0.63646 0.0
C868 C 0.38045 0.38908 0.64224 0.0
C869 C 0.37291 0.36274 0.61788 0.0
C870 C 0.35376 0.3905 0.57409 0.0
H871 H 0.39696 0.34307 0.49057 0.0
H872 H 0.40752 0.34762 0.52306 0.0
H873 H 0.33284 0.39903 0.54767 0.0
H874 H 0.39414 0.42194 0.63337 0.0
H875 H 0.39354 0.41344 0.60107 0.0
H876 H 0.39959 0.34297 0.58518 0.0
C877 C 0.37997 0.35281 0.51729 0.0
C878 C 0.34704 0.38652 0.55571 0.0
C879 C 0.3739 0.3502 0.49865 0.0
C880 C 0.38839 0.40531 0.62923 0.0
C881 C 0.38779 0.40044 0.61073 0.0
C882 C 0.38471 0.35525 0.57716 0.0
C883 C 0.35148 0.36279 0.52816 0.0
C884 C 0.35881 0.36681 0.54779 0.0
C885 C 0.3787 0.37927 0.60478 0.0
C886 C 0.37271 0.37495 0.58508 0.0
H887 H 0.28309 0.37256 0.49549 0.0
H888 H 0.29347 0.37697 0.52803 0.0
H889 H 0.38708 0.33581 0.55307 0.0
H890 H 0.36768 0.35481 0.64625 0.0
H891 H 0.36569 0.34628 0.6138 0.0
C892 C 0.7201 0.39694 0.99225 0.0
C893 C 0.70663 0.38515 0.00748 0.0
C894 C 0.70455 0.39305 0.97501 0.0
C895 C 0.65682 0.34992 0.94895 0.0
H896 H 0.63469 0.39594 0.91414 0.0
C897 C 0.59798 0.32868 0.87861 0.0
C898 C 0.61447 0.33983 0.8638 0.0
C899 C 0.6036 0.33622 0.89626 0.0
C900 C 0.64102 0.3829 0.92365 0.0
H901 H 0.66504 0.36067 0.01655 0.0
H902 H 0.63833 0.3537 0.98642 0.0
H903 H 0.65569 0.4053 0.94489 0.0
H904 H 0.64833 0.36802 0.85555 0.0
H905 H 0.65934 0.381 0.88651 0.0
H906 H 0.64362 0.32748 0.9278 0.0
C907 C 0.66124 0.36578 0.98783 0.0
C908 C 0.65297 0.38827 0.94127 0.0
C909 C 0.67665 0.36973 0.00508 0.0
C910 C 0.63517 0.35925 0.86682 0.0
C911 C 0.64134 0.36666 0.88455 0.0
C912 C 0.64521 0.34456 0.93138 0.0
C913 C 0.67533 0.37722 0.97257 0.0
C914 C 0.66109 0.37181 0.95408 0.0
C915 C 0.62651 0.35488 0.89953 0.0
C916 C 0.63719 0.36094 0.91846 0.0
H917 H 0.74354 0.40872 0.99353 0.0
H918 H 0.71637 0.40193 0.96348 0.0
H919 H 0.66358 0.33686 0.95839 0.0
H920 H 0.58154 0.31378 0.87655 0.0
H921 H 0.59079 0.32708 0.9074 0.0
C922 C 0.81747 0.12886 0.49609 0.0
C923 C 0.84758 0.13517 0.50792 0.0
C924 C 0.82402 0.1279 0.47735 0.0
C925 C 0.89066 0.14954 0.44187 0.0
H926 H 0.83792 0.10715 0.41158 0.0
C927 C 0.90869 0.14991 0.3639 0.0
C928 C 0.87298 0.15007 0.35452 0.0
C929 C 0.90982 0.14449 0.38241 0.0
C930 C 0.8529 0.11906 0.41988 0.0
H931 H 0.90864 0.14439 0.50947 0.0
H932 H 0.92025 0.14243 0.4769 0.0
H933 H 0.83167 0.10474 0.44457 0.0
H934 H 0.81101 0.14342 0.35669 0.0
H935 H 0.81295 0.1338 0.38886 0.0
H936 H 0.91151 0.16398 0.41716 0.0
C937 C 0.89126 0.1388 0.48197 0.0
C938 C 0.84915 0.11777 0.43878 0.0
C939 C 0.88462 0.13992 0.50066 0.0
C940 C 0.83887 0.14354 0.36367 0.0
C941 C 0.84005 0.13789 0.38205 0.0
C942 C 0.89463 0.15073 0.42299 0.0
C943 C 0.86094 0.13304 0.47003 0.0
C944 C 0.86737 0.13325 0.45 0.0
C945 C 0.87534 0.13885 0.39175 0.0
C946 C 0.87518 0.13576 0.41177 0.0
H947 H 0.78857 0.12522 0.50129 0.0
H948 H 0.7998 0.12371 0.46857 0.0
H949 H 0.90468 0.16195 0.45001 0.0
H950 H 0.93536 0.15495 0.35714 0.0
H951 H 0.93748 0.14519 0.38951 0.0
C952 C 0.82277 0.85348 0.99914 0.0
C953 C 0.83171 0.87107 0.01063 0.0
C954 C 0.8291 0.85509 0.98039 0.0
C955 C 0.8391 0.89557 0.94357 0.0
H956 H 0.88739 0.84847 0.91683 0.0
C957 C 0.87934 0.90727 0.86882 0.0
C958 C 0.87029 0.89017 0.85695 0.0
C959 C 0.87877 0.90393 0.88758 0.0
C960 C 0.87357 0.86169 0.92407 0.0
H961 H 0.85295 0.90441 0.01127 0.0
H962 H 0.86372 0.90725 0.97866 0.0
H963 H 0.87654 0.84461 0.94954 0.0
H964 H 0.85524 0.85598 0.85518 0.0
H965 H 0.85334 0.85011 0.88813 0.0
H966 H 0.83537 0.91256 0.91827 0.0
C967 C 0.85212 0.89214 0.98414 0.0
C968 C 0.86733 0.85947 0.9428 0.0
C969 C 0.84621 0.89045 0.00286 0.0
C970 C 0.86257 0.86936 0.86412 0.0
C971 C 0.86152 0.86605 0.88297 0.0
C972 C 0.84513 0.89775 0.9249 0.0
C973 C 0.84387 0.87445 0.97269 0.0
C974 C 0.85016 0.87645 0.95276 0.0
C975 C 0.8685 0.88349 0.89493 0.0
C976 C 0.86265 0.88092 0.91489 0.0
H977 H 0.81174 0.83827 0.00468 0.0
H978 H 0.8221 0.84125 0.97191 0.0
H979 H 0.82514 0.90879 0.95077 0.0
H980 H 0.88572 0.92343 0.86356 0.0
H981 H 0.8854 0.91758 0.89634 0.0
C982 C 0.65531 0.61354 0.50398 0.0
C983 C 0.68753 0.62668 0.50857 0.0
C984 C 0.63847 0.61493 0.4867 0.0
C985 C 0.63751 0.64825 0.44398 0.0
H986 H 0.61578 0.59255 0.42141 0.0
C987 C 0.64608 0.63316 0.36708 0.0
C988 C 0.61949 0.61865 0.35914 0.0
C989 C 0.64516 0.63692 0.38576 0.0
C990 C 0.62093 0.60829 0.42758 0.0
H991 H 0.72561 0.65258 0.49889 0.0
H992 H 0.69741 0.6544 0.46867 0.0
H993 H 0.63135 0.59387 0.4536 0.0
H994 H 0.57047 0.59713 0.36406 0.0
H995 H 0.56887 0.60356 0.39696 0.0
H996 H 0.62899 0.66244 0.4176 0.0
C997 C 0.68469 0.64319 0.47843 0.0
C998 C 0.62984 0.60908 0.44609 0.0
C999 C 0.70131 0.64192 0.49573 0.0
C1000 C 0.59094 0.60856 0.36997 0.0
C1001 C 0.59027 0.61213 0.38874 0.0
C1002 C 0.62891 0.64743 0.42542 0.0
C1003 C 0.65357 0.6294 0.47355 0.0
C1004 C 0.63914 0.62901 0.45445 0.0
C1005 C 0.61797 0.62597 0.39688 0.0
C1006 C 0.62137 0.62738 0.41695 0.0
H1007 H 0.64403 0.60153 0.51347 0.0
H1008 H 0.61414 0.6043 0.48353 0.0
H1009 H 0.6437 0.66394 0.45002 0.0
H1010 H 0.66859 0.64088 0.35892 0.0
H1011 H 0.66719 0.64745 0.39163 0.0
C1012 C 0.33444 0.60707 0.99914 0.0
C1013 C 0.31664 0.62445 0.98979 0.0
C1014 C 0.34092 0.60829 0.01785 0.0
C1015 C 0.31516 0.63916 0.0594 0.0
H1016 H 0.41987 0.62345 0.07458 0.0
C1017 C 0.36743 0.64756 0.13374 0.0
C1018 C 0.40496 0.65644 0.13621 0.0
C1019 C 0.35461 0.64153 0.11646 0.0
C1020 C 0.39056 0.62797 0.07055 0.0
H1021 H 0.29038 0.65636 0.99289 0.0
H1022 H 0.30155 0.65844 0.02545 0.0
H1023 H 0.39919 0.61638 0.04352 0.0
H1024 H 0.4586 0.66567 0.1225 0.0
H1025 H 0.43596 0.65559 0.0923 0.0
H1026 H 0.3071 0.65152 0.08626 0.0
C1027 C 0.31016 0.64377 0.01839 0.0
C1028 C 0.37851 0.62364 0.05281 0.0
C1029 C 0.30371 0.64257 -0.0003 0.0
C1030 C 0.4294 0.65909 0.12103 0.0
C1031 C 0.41659 0.65305 0.10376 0.0
C1032 C 0.32722 0.64347 0.07716 0.0
C1033 C 0.32969 0.62688 0.0276 0.0
C1034 C 0.34088 0.62949 0.04695 0.0
C1035 C 0.37905 0.64421 0.10128 0.0
C1036 C 0.36528 0.63825 0.08283 0.0
H1037 H 0.34413 0.59272 0.99193 0.0
H1038 H 0.35541 0.59483 0.02462 0.0
H1039 H 0.28586 0.64366 0.05534 0.0
H1040 H 0.34775 0.6455 0.14514 0.0
H1041 H 0.32564 0.63462 0.11502 0.0
C1042 C 0.17971 0.8901 0.49942 0.0
C1043 C 0.18887 0.87194 0.48871 0.0
C1044 C 0.16591 0.88737 0.51713 0.0
C1045 C 0.16521 0.84732 0.55487 0.0
H1046 H 0.09512 0.88949 0.57641 0.0
C1047 C 0.12035 0.8441 0.63077 0.0
C1048 C 0.12743 0.86378 0.63989 0.0
C1049 C 0.12117 0.84341 0.61177 0.0
C1050 C 0.11461 0.87755 0.57055 0.0
H1051 H 0.18945 0.83663 0.48795 0.0
H1052 H 0.16454 0.83179 0.51882 0.0
H1053 H 0.10818 0.89095 0.54386 0.0
H1054 H 0.13903 0.89829 0.63644 0.0
H1055 H 0.13983 0.89719 0.60328 0.0
H1056 H 0.17166 0.83404 0.58169 0.0
C1057 C 0.16883 0.84819 0.51366 0.0
C1058 C 0.1223 0.87844 0.55192 0.0
C1059 C 0.18299 0.85094 0.49596 0.0
C1060 C 0.13369 0.8829 0.62971 0.0
C1061 C 0.13388 0.88228 0.61076 0.0
C1062 C 0.15713 0.84628 0.57348 0.0
C1063 C 0.16058 0.86639 0.52457 0.0
C1064 C 0.14855 0.86371 0.54391 0.0
C1065 C 0.12832 0.86248 0.6016 0.0
C1066 C 0.13254 0.86173 0.58157 0.0
H1067 H 0.18456 0.9065 0.49435 0.0
H1068 H 0.16074 0.9018 0.52519 0.0
H1069 H 0.18592 0.83586 0.54928 0.0
H1070 H 0.11563 0.82914 0.63835 0.0
H1071 H 0.11666 0.82796 0.60502 0.0
C1072 C 0.19175 0.30904 0.35216 0.0
C1073 C 0.20489 0.30378 0.36974 0.0
C1074 C 0.16869 0.29441 0.34237 0.0
C1075 C 0.10845 0.26407 0.32604 0.0
H1076 H 0.13655 0.20311 0.33066 0.0
C1077 C 0.02847 0.1968 0.28566 0.0
C1078 C 0.0512 0.17959 0.27891 0.0
C1079 C 0.04447 0.21189 0.29774 0.0
C1080 C 0.12852 0.22008 0.32906 0.0
H1081 H 0.2023 0.27933 0.39112 0.0
H1082 H 0.16078 0.25423 0.37437 0.0
H1083 H 0.16829 0.22992 0.34981 0.0
H1084 H 0.10817 0.16436 0.28019 0.0
H1085 H 0.1367 0.19123 0.30032 0.0
H1086 H 0.07018 0.25433 0.30461 0.0
C1087 C 0.16924 0.26944 0.36793 0.0
C1088 C 0.14628 0.23546 0.3403 0.0
C1089 C 0.1926 0.28401 0.37766 0.0
C1090 C 0.09012 0.17769 0.28471 0.0
C1091 C 0.10628 0.19293 0.29657 0.0
C1092 C 0.09095 0.24869 0.31467 0.0
C1093 C 0.15782 0.2742 0.34998 0.0
C1094 C 0.13675 0.2577 0.33885 0.0
C1095 C 0.08367 0.21024 0.30329 0.0
C1096 C 0.10104 0.22651 0.3159 0.0
H1097 H 0.20005 0.3243 0.34574 0.0
H1098 H 0.16074 0.29864 0.32856 0.0
H1099 H 0.09996 0.28099 0.32469 0.0
H1100 H 0.99823 0.19865 0.28164 0.0
H1101 H 0.02592 0.22474 0.30287 0.0
C1102 C 0.3745 0.1825 0.86675 0.0
C1103 C 0.33573 0.18191 0.87299 0.0
C1104 C 0.38803 0.2 0.85629 0.0
C1105 C 0.3549 0.2457 0.82712 0.0
H1106 H 0.46081 0.2663 0.8347 0.0
C1107 C 0.41994 0.32122 0.78984 0.0
C1108 C 0.45739 0.31837 0.7824 0.0
C1109 C 0.40385 0.30547 0.80147 0.0
C1110 C 0.43125 0.26064 0.83235 0.0
H1111 H 0.28074 0.19932 0.87314 0.0
H1112 H 0.30449 0.23009 0.85495 0.0
H1113 H 0.43469 0.23736 0.85399 0.0
H1114 H 0.50785 0.29707 0.78184 0.0
H1115 H 0.48007 0.26982 0.80231 0.0
H1116 H 0.35165 0.26915 0.80546 0.0
C1117 C 0.3243 0.21682 0.85797 0.0
C1118 C 0.41628 0.24402 0.84337 0.0
C1119 C 0.31069 0.19922 0.86841 0.0
C1120 C 0.47886 0.29975 0.78727 0.0
C1121 C 0.463 0.28415 0.79905 0.0
C1122 C 0.36985 0.26246 0.81614 0.0
C1123 C 0.36322 0.21746 0.85183 0.0
C1124 C 0.37811 0.23609 0.84074 0.0
C1125 C 0.42523 0.28675 0.80619 0.0
C1126 C 0.40839 0.26989 0.81848 0.0
H1127 H 0.39433 0.16922 0.8697 0.0
H1128 H 0.4179 0.19966 0.85145 0.0
H1129 H 0.32555 0.23986 0.82459 0.0
H1130 H 0.40308 0.33566 0.78678 0.0
H1131 H 0.3749 0.30808 0.80696 0.0
C1132 C 0.70175 0.21398 0.62099 0.0
C1133 C 0.71555 0.19462 0.62901 0.0
C1134 C 0.67893 0.22853 0.63101 0.0
C1135 C 0.66178 0.24443 0.67837 0.0
H1136 H 0.57316 0.2762 0.65906 0.0
C1137 C 0.56768 0.29872 0.72397 0.0
C1138 C 0.55558 0.31894 0.71695 0.0
C1139 C 0.58507 0.28333 0.71271 0.0
C1140 C 0.59812 0.26762 0.66458 0.0
H1141 H 0.71383 0.17462 0.65339 0.0
H1142 H 0.67423 0.19994 0.67082 0.0
H1143 H 0.60629 0.2493 0.64013 0.0
H1144 H 0.55139 0.33874 0.69258 0.0
H1145 H 0.58236 0.31187 0.67284 0.0
H1146 H 0.65421 0.26281 0.70267 0.0
C1147 C 0.68174 0.20414 0.65694 0.0
C1148 C 0.61702 0.25219 0.65375 0.0
C1149 C 0.70442 0.18963 0.64695 0.0
C1150 C 0.56053 0.32329 0.69834 0.0
C1151 C 0.57807 0.30786 0.68705 0.0
C1152 C 0.64305 0.25985 0.68914 0.0
C1153 C 0.66951 0.224 0.64925 0.0
C1154 C 0.64894 0.24034 0.66058 0.0
C1155 C 0.59085 0.28776 0.69415 0.0
C1156 C 0.61087 0.27157 0.68243 0.0
H1157 H 0.71001 0.21837 0.60725 0.0
H1158 H 0.6701 0.24374 0.62473 0.0
H1159 H 0.68683 0.23594 0.68391 0.0
H1160 H 0.56362 0.29472 0.7382 0.0
H1161 H 0.59379 0.26785 0.71857 0.0
C1162 C 0.82761 0.3172 0.14182 0.0
C1163 C 0.83175 0.317 0.12282 0.0
C1164 C 0.84135 0.29985 0.1524 0.0
C1165 C 0.9117 0.25429 0.15141 0.0
H1166 H 0.85435 0.23445 0.19384 0.0
C1167 C 0.96037 0.17977 0.19431 0.0
C1168 C 0.95813 0.1819 0.21329 0.0
C1169 C 0.94384 0.19552 0.18287 0.0
C1170 C 0.87089 0.23993 0.18212 0.0
H1171 H 0.85257 0.29805 0.10001 0.0
H1172 H 0.87639 0.26771 0.11848 0.0
H1173 H 0.82694 0.263 0.17454 0.0
H1174 H 0.93687 0.20237 0.2351 0.0
H1175 H 0.90823 0.22979 0.21517 0.0
H1176 H 0.95574 0.23128 0.15905 0.0
C1177 C 0.86311 0.28148 0.12522 0.0
C1178 C 0.85518 0.2563 0.17106 0.0
C1179 C 0.84941 0.29886 0.11464 0.0
C1180 C 0.93892 0.20012 0.22055 0.0
C1181 C 0.92232 0.21581 0.20912 0.0
C1182 C 0.92739 0.23789 0.16246 0.0
C1183 C 0.85954 0.28184 0.14426 0.0
C1184 C 0.87551 0.2638 0.15563 0.0
C1185 C 0.9246 0.21372 0.19014 0.0
C1186 C 0.9073 0.23063 0.17802 0.0
H1187 H 0.81473 0.33106 0.14859 0.0
H1188 H 0.83864 0.30085 0.16703 0.0
H1189 H 0.92845 0.25989 0.1398 0.0
H1190 H 0.97479 0.16589 0.18826 0.0
H1191 H 0.94575 0.1933 0.16831 0.0
C1192 C 0.80982 0.70293 0.62482 0.0
C1193 C 0.82071 0.68115 0.62818 0.0
C1194 C 0.82166 0.71958 0.63656 0.0
C1195 C 0.90005 0.73305 0.6679 0.0
H1196 H 0.83017 0.77679 0.68728 0.0
C1197 C 0.95458 0.79405 0.72079 0.0
C1198 C 0.94142 0.81563 0.71956 0.0
C1199 C 0.93705 0.77772 0.71048 0.0
C1200 C 0.85019 0.76488 0.6818 0.0
H1201 H 0.85087 0.65982 0.64717 0.0
H1202 H 0.87245 0.6889 0.66718 0.0
H1203 H 0.80453 0.74843 0.66724 0.0
H1204 H 0.89923 0.83712 0.70694 0.0
H1205 H 0.86923 0.80872 0.68839 0.0
H1206 H 0.94595 0.74959 0.68177 0.0
C1207 C 0.85503 0.69306 0.65537 0.0
C1208 C 0.83543 0.74862 0.67038 0.0
C1209 C 0.84283 0.67642 0.64382 0.0
C1210 C 0.90983 0.82055 0.70813 0.0
C1211 C 0.89256 0.80423 0.69759 0.0
C1212 C 0.91488 0.7494 0.67905 0.0
C1213 C 0.84495 0.71481 0.65176 0.0
C1214 C 0.86021 0.73245 0.66348 0.0
C1215 C 0.90638 0.78264 0.69842 0.0
C1216 C 0.89014 0.76543 0.68633 0.0
H1217 H 0.79311 0.70723 0.61284 0.0
H1218 H 0.8137 0.73626 0.63342 0.0
H1219 H 0.91992 0.72098 0.66251 0.0
H1220 H 0.97844 0.78976 0.72978 0.0
H1221 H 0.94775 0.7612 0.71193 0.0
C1222 C 0.6742 0.80762 0.14039 0.0
C1223 C 0.6952 0.79982 0.1253 0.0
C1224 C 0.65141 0.79343 0.15097 0.0
C1225 C 0.65154 0.73851 0.16709 0.0
H1226 H 0.54093 0.74389 0.17724 0.0
C1227 C 0.56916 0.6713 0.20619 0.0
C1228 C 0.53823 0.67722 0.2176 0.0
C1229 C 0.58669 0.68674 0.1948 0.0
C1230 C 0.57198 0.74233 0.17484 0.0
H1231 H 0.706 0.77115 0.10884 0.0
H1232 H 0.66773 0.74638 0.12783 0.0
H1233 H 0.57313 0.77058 0.15742 0.0
H1234 H 0.50164 0.70388 0.22637 0.0
H1235 H 0.53303 0.73114 0.20695 0.0
H1236 H 0.65142 0.71102 0.18497 0.0
C1237 C 0.66912 0.76348 0.13139 0.0
C1238 C 0.59024 0.75755 0.16338 0.0
C1239 C 0.69124 0.77769 0.12062 0.0
C1240 C 0.52522 0.69889 0.21752 0.0
C1241 C 0.54314 0.71445 0.20631 0.0
C1242 C 0.63359 0.72361 0.17884 0.0
C1243 C 0.64966 0.77115 0.14683 0.0
C1244 C 0.63005 0.75557 0.15926 0.0
C1245 C 0.57413 0.7086 0.19475 0.0
C1246 C 0.59342 0.7251 0.18272 0.0
H1247 H 0.67675 0.82445 0.14458 0.0
H1248 H 0.6367 0.79965 0.16289 0.0
H1249 H 0.68246 0.73688 0.16429 0.0
H1250 H 0.57952 0.65463 0.20591 0.0
H1251 H 0.60982 0.68138 0.18587 0.0
C1252 C 0.32514 0.79489 0.377 0.0
C1253 C 0.32022 0.81586 0.36958 0.0
C1254 C 0.33883 0.77782 0.36622 0.0
C1255 C 0.39269 0.76777 0.32337 0.0
H1256 H 0.35417 0.70867 0.32957 0.0
C1257 C 0.43134 0.69903 0.27358 0.0
C1258 C 0.44256 0.67898 0.28124 0.0
C1259 C 0.41541 0.71535 0.28442 0.0
C1260 C 0.36541 0.72508 0.3278 0.0
H1261 H 0.32427 0.83519 0.34492 0.0
H1262 H 0.34735 0.80539 0.32603 0.0
H1263 H 0.32744 0.73788 0.34821 0.0
H1264 H 0.44556 0.66017 0.3062 0.0
H1265 H 0.41751 0.68875 0.32522 0.0
H1266 H 0.43031 0.75498 0.30282 0.0
C1267 C 0.34174 0.8022 0.34028 0.0
C1268 C 0.35017 0.74182 0.33849 0.0
C1269 C 0.32837 0.81928 0.35108 0.0
C1270 C 0.43715 0.67548 0.29995 0.0
C1271 C 0.42091 0.69177 0.31079 0.0
C1272 C 0.40768 0.75108 0.31261 0.0
C1273 C 0.34762 0.7813 0.34776 0.0
C1274 C 0.3636 0.76339 0.33639 0.0
C1275 C 0.41017 0.71194 0.30316 0.0
C1276 C 0.39419 0.72957 0.31469 0.0
H1277 H 0.31948 0.79184 0.39126 0.0
H1278 H 0.34347 0.76203 0.37251 0.0
H1279 H 0.40438 0.78407 0.32163 0.0
H1280 H 0.43544 0.70226 0.25922 0.0
H1281 H 0.40707 0.73064 0.27812 0.0
C1282 C 0.18597 0.68644 0.85405 0.0
C1283 C 0.19489 0.69146 0.8722 0.0
C1284 C 0.16396 0.70079 0.84344 0.0
C1285 C 0.09744 0.74821 0.8453 0.0
H1286 H 0.13703 0.75925 0.79674 0.0
C1287 C 0.04363 0.81977 0.80016 0.0
C1288 C 0.03863 0.81553 0.78157 0.0
C1289 C 0.06079 0.8042 0.81156 0.0
C1290 C 0.12527 0.75616 0.81017 0.0
H1291 H 0.18604 0.715 0.89367 0.0
H1292 H 0.14802 0.74024 0.87504 0.0
H1293 H 0.16917 0.73246 0.81605 0.0
H1294 H 0.04651 0.79142 0.76045 0.0
H1295 H 0.07633 0.7643 0.78029 0.0
H1296 H 0.05363 0.77209 0.83937 0.0
C1297 C 0.15794 0.72514 0.86905 0.0
C1298 C 0.14368 0.74078 0.82124 0.0
C1299 C 0.18004 0.71079 0.87968 0.0
C1300 C 0.05055 0.79531 0.77467 0.0
C1301 C 0.06769 0.77978 0.78603 0.0
C1302 C 0.07896 0.76362 0.83419 0.0
C1303 C 0.15033 0.7205 0.85071 0.0
C1304 C 0.12998 0.7366 0.83893 0.0
C1305 C 0.07327 0.78408 0.80459 0.0
C1306 C 0.09267 0.76775 0.81649 0.0
H1307 H 0.19725 0.67181 0.8478 0.0
H1308 H 0.1581 0.69659 0.82943 0.0
H1309 H 0.08598 0.74521 0.8588 0.0
H1310 H 0.03475 0.83523 0.80586 0.0
H1311 H 0.06502 0.8081 0.82576 0.0
loop_
_geom_bond_atom_site_label_1
_geom_bond_atom_site_label_2
_geom_bond_distance
_geom_bond_site_symmetry_2
_ccdc_geom_bond_type
P0 O11 1.490 . S
P0 C14 1.812 . S
P0 C20 1.803 . S
P0 C26 1.819 . S
H1 C15 0.941 . S
H2 C16 0.939 . S
H3 C18 0.940 . S
H4 C19 0.940 . S
H5 C21 0.939 . S
H6 C22 0.942 . S
H7 C24 0.940 . S
H8 C25 0.939 . S
H9 C27 0.941 . S
H10 C31 0.939 . S
O11 P0 1.490 . S
H12 C28 0.939 . S
H13 C30 0.940 . S
C14 P0 1.812 . S
C14 C15 1.389 . S
C14 C19 1.391 . S
C15 H1 0.941 . S
C15 C14 1.389 . S
C15 C16 1.397 . S
C16 H2 0.939 . S
C16 C15 1.397 . S
C16 C17 1.378 . S
C17 C16 1.378 . S
C17 C18 1.378 . S
C18 H3 0.940 . S
C18 C17 1.378 . S
C18 C19 1.396 . S
C19 H4 0.940 . S
C19 C14 1.391 . S
C19 C18 1.396 . S
C20 P0 1.803 . S
C20 C21 1.378 . S
C20 C25 1.400 . S
C21 H5 0.939 . S
C21 C20 1.378 . S
C21 C22 1.361 . S
C22 H6 0.942 . S
C22 C21 1.361 . S
C22 C23 1.369 . S
C23 C22 1.369 . S
C23 C24 1.404 . S
C24 H7 0.940 . S
C24 C23 1.404 . S
C24 C25 1.389 . S
C25 H8 0.939 . S
C25 C20 1.400 . S
C25 C24 1.389 . S
C26 P0 1.819 . S
C26 C27 1.391 . S
C26 C31 1.391 . S
C27 H9 0.941 . S
C27 C26 1.391 . S
C27 C28 1.396 . S
C28 H12 0.939 . S
C28 C27 1.396 . S
C28 C29 1.397 . S
C29 C28 1.397 . S
C29 C30 1.385 . S
C30 H13 0.940 . S
C30 C29 1.385 . S
C30 C31 1.388 . S
C31 H10 0.939 . S
C31 C26 1.391 . S
C31 C30 1.388 . S
P32 O43 1.490 . S
P32 C46 1.812 . S
P32 C52 1.803 . S
P32 C58 1.819 . S
H33 C47 0.941 . S
H34 C48 0.939 . S
H35 C50 0.940 . S
H36 C51 0.940 . S
H37 C53 0.939 . S
H38 C54 0.942 . S
H39 C56 0.940 . S
H40 C57 0.939 . S
H41 C59 0.941 . S
H42 C63 0.939 . S
O43 P32 1.490 . S
H44 C60 0.939 . S
H45 C62 0.940 . S
C46 P32 1.812 . S
C46 C47 1.389 . S
C46 C51 1.391 . S
C47 H33 0.941 . S
C47 C46 1.389 . S
C47 C48 1.397 . S
C48 H34 0.939 . S
C48 C47 1.397 . S
C48 C49 1.378 . S
C49 C48 1.378 . S
C49 C50 1.378 . S
C50 H35 0.940 . S
C50 C49 1.378 . S
C50 C51 1.396 . S
C51 H36 0.940 . S
C51 C46 1.391 . S
C51 C50 1.396 . S
C52 P32 1.803 . S
C52 C53 1.378 . S
C52 C57 1.400 . S
C53 H37 0.939 . S
C53 C52 1.378 . S
C53 C54 1.361 . S
C54 H38 0.942 . S
C54 C53 1.361 . S
C54 C55 1.369 . S
C55 C54 1.369 . S
C55 C56 1.404 . S
C56 H39 0.940 . S
C56 C55 1.404 . S
C56 C57 1.389 . S
C57 H40 0.939 . S
C57 C52 1.400 . S
C57 C56 1.389 . S
C58 P32 1.819 . S
C58 C59 1.391 . S
C58 C63 1.391 . S
C59 H41 0.941 . S
C59 C58 1.391 . S
C59 C60 1.396 . S
C60 H44 0.939 . S
C60 C59 1.396 . S
C60 C61 1.397 . S
C61 C60 1.397 . S
C61 C62 1.385 . S
C62 H45 0.940 . S
C62 C61 1.385 . S
C62 C63 1.388 . S
C63 H42 0.939 . S
C63 C58 1.391 . S
C63 C62 1.388 . S
P64 O75 1.490 . S
P64 C78 1.812 . S
P64 C84 1.803 . S
P64 C90 1.819 . S
H65 C79 0.941 . S
H66 C80 0.939 . S
H67 C82 0.940 . S
H68 C83 0.940 . S
H69 C85 0.939 . S
H70 C86 0.942 . S
H71 C88 0.940 . S
H72 C89 0.939 . S
H73 C91 0.941 . S
H74 C95 0.939 . S
O75 P64 1.490 . S
H76 C92 0.939 . S
H77 C94 0.940 . S
C78 P64 1.812 . S
C78 C79 1.389 . S
C78 C83 1.391 . S
C79 H65 0.941 . S
C79 C78 1.389 . S
C79 C80 1.397 . S
C80 H66 0.939 . S
C80 C79 1.397 . S
C80 C81 1.378 . S
C81 C80 1.378 . S
C81 C82 1.378 . S
C82 H67 0.940 . S
C82 C81 1.378 . S
C82 C83 1.396 . S
C83 H68 0.940 . S
C83 C78 1.391 . S
C83 C82 1.396 . S
C84 P64 1.803 . S
C84 C85 1.378 . S
C84 C89 1.400 . S
C85 H69 0.939 . S
C85 C84 1.378 . S
C85 C86 1.361 . S
C86 H70 0.942 . S
C86 C85 1.361 . S
C86 C87 1.369 . S
C87 C86 1.369 . S
C87 C88 1.404 . S
C88 H71 0.940 . S
C88 C87 1.404 . S
C88 C89 1.389 . S
C89 H72 0.939 . S
C89 C84 1.400 . S
C89 C88 1.389 . S
C90 P64 1.819 . S
C90 C91 1.391 . S
C90 C95 1.391 . S
C91 H73 0.941 . S
C91 C90 1.391 . S
C91 C92 1.396 . S
C92 H76 0.939 . S
C92 C91 1.396 . S
C92 C93 1.397 . S
C93 C92 1.397 . S
C93 C94 1.385 . S
C94 H77 0.940 . S
C94 C93 1.385 . S
C94 C95 1.388 . S
C95 H74 0.939 . S
C95 C90 1.391 . S
C95 C94 1.388 . S
P96 O107 1.490 . S
P96 C110 1.812 . S
P96 C116 1.803 . S
P96 C122 1.819 . S
H97 C111 0.941 . S
H98 C112 0.939 . S
H99 C114 0.940 . S
H100 C115 0.940 . S
H101 C117 0.939 . S
H102 C118 0.942 . S
H103 C120 0.940 . S
H104 C121 0.939 . S
H105 C123 0.941 . S
H106 C127 0.939 . S
O107 P96 1.490 . S
H108 C124 0.939 . S
H109 C126 0.940 . S
C110 P96 1.812 . S
C110 C111 1.389 . S
C110 C115 1.391 . S
C111 H97 0.941 . S
C111 C110 1.389 . S
C111 C112 1.397 . S
C112 H98 0.939 . S
C112 C111 1.397 . S
C112 C113 1.378 . S
C113 C112 1.378 . S
C113 C114 1.378 . S
C114 H99 0.940 . S
C114 C113 1.378 . S
C114 C115 1.396 . S
C115 H100 0.940 . S
C115 C110 1.391 . S
C115 C114 1.396 . S
C116 P96 1.803 . S
C116 C117 1.378 . S
C116 C121 1.400 . S
C117 H101 0.939 . S
C117 C116 1.378 . S
C117 C118 1.361 . S
C118 H102 0.942 . S
C118 C117 1.361 . S
C118 C119 1.369 . S
C119 C118 1.369 . S
C119 C120 1.404 . S
C120 H103 0.940 . S
C120 C119 1.404 . S
C120 C121 1.389 . S
C121 H104 0.939 . S
C121 C116 1.400 . S
C121 C120 1.389 . S
C122 P96 1.819 . S
C122 C123 1.391 . S
C122 C127 1.391 . S
C123 H105 0.941 . S
C123 C122 1.391 . S
C123 C124 1.396 . S
C124 H108 0.939 . S
C124 C123 1.396 . S
C124 C125 1.397 . S
C125 C124 1.397 . S
C125 C126 1.385 . S
C126 H109 0.940 . S
C126 C125 1.385 . S
C126 C127 1.388 . S
C127 H106 0.939 . S
C127 C122 1.391 . S
C127 C126 1.388 . S
P128 O139 1.490 . S
P128 C142 1.812 . S
P128 C148 1.803 . S
P128 C154 1.819 . S
H129 C143 0.941 . S
H130 C144 0.939 . S
H131 C146 0.940 . S
H132 C147 0.940 . S
H133 C149 0.939 . S
H134 C150 0.942 . S
H135 C152 0.940 . S
H136 C153 0.939 . S
H137 C155 0.941 . S
H138 C159 0.939 . S
O139 P128 1.490 . S
H140 C156 0.939 . S
H141 C158 0.940 . S
C142 P128 1.812 . S
C142 C143 1.389 . S
C142 C147 1.391 . S
C143 H129 0.941 . S
C143 C142 1.389 . S
C143 C144 1.397 . S
C144 H130 0.939 . S
C144 C143 1.397 . S
C144 C145 1.378 . S
C145 C144 1.378 . S
C145 C146 1.378 . S
C146 H131 0.940 . S
C146 C145 1.378 . S
C146 C147 1.396 . S
C147 H132 0.940 . S
C147 C142 1.391 . S
C147 C146 1.396 . S
C148 P128 1.803 . S
C148 C149 1.378 . S
C148 C153 1.400 . S
C149 H133 0.939 . S
C149 C148 1.378 . S
C149 C150 1.361 . S
C150 H134 0.942 . S
C150 C149 1.361 . S
C150 C151 1.369 . S
C151 C150 1.369 . S
C151 C152 1.404 . S
C152 H135 0.940 . S
C152 C151 1.404 . S
C152 C153 1.389 . S
C153 H136 0.939 . S
C153 C148 1.400 . S
C153 C152 1.389 . S
C154 P128 1.819 . S
C154 C155 1.391 . S
C154 C159 1.391 . S
C155 H137 0.941 . S
C155 C154 1.391 . S
C155 C156 1.396 . S
C156 H140 0.939 . S
C156 C155 1.396 . S
C156 C157 1.397 . S
C157 C156 1.397 . S
C157 C158 1.385 . S
C158 H141 0.940 . S
C158 C157 1.385 . S
C158 C159 1.388 . S
C159 H138 0.939 . S
C159 C154 1.391 . S
C159 C158 1.388 . S
P160 O171 1.490 . S
P160 C174 1.812 . S
P160 C180 1.803 . S
P160 C186 1.819 . S
H161 C175 0.941 . S
H162 C176 0.939 . S
H163 C178 0.940 . S
H164 C179 0.940 . S
H165 C181 0.939 . S
H166 C182 0.942 . S
H167 C184 0.940 . S
H168 C185 0.939 . S
H169 C187 0.941 . S
H170 C191 0.939 . S
O171 P160 1.490 . S
H172 C188 0.939 . S
H173 C190 0.940 . S
C174 P160 1.812 . S
C174 C175 1.389 . S
C174 C179 1.391 . S
C175 H161 0.941 . S
C175 C174 1.389 . S
C175 C176 1.397 . S
C176 H162 0.939 . S
C176 C175 1.397 . S
C176 C177 1.378 . S
C177 C176 1.378 . S
C177 C178 1.378 . S
C178 H163 0.940 . S
C178 C177 1.378 . S
C178 C179 1.396 . S
C179 H164 0.940 . S
C179 C174 1.391 . S
C179 C178 1.396 . S
C180 P160 1.803 . S
C180 C181 1.378 . S
C180 C185 1.400 . S
C181 H165 0.939 . S
C181 C180 1.378 . S
C181 C182 1.361 . S
C182 H166 0.942 . S
C182 C181 1.361 . S
C182 C183 1.369 . S
C183 C182 1.369 . S
C183 C184 1.404 . S
C184 H167 0.940 . S
C184 C183 1.404 . S
C184 C185 1.389 . S
C185 H168 0.939 . S
C185 C180 1.400 . S
C185 C184 1.389 . S
C186 P160 1.819 . S
C186 C187 1.391 . S
C186 C191 1.391 . S
C187 H169 0.941 . S
C187 C186 1.391 . S
C187 C188 1.396 . S
C188 H172 0.939 . S
C188 C187 1.396 . S
C188 C189 1.397 . S
C189 C188 1.397 . S
C189 C190 1.385 . S
C190 H173 0.940 . S
C190 C189 1.385 . S
C190 C191 1.388 . S
C191 H170 0.939 . S
C191 C186 1.391 . S
C191 C190 1.388 . S
P192 O203 1.490 . S
P192 C206 1.812 . S
P192 C212 1.803 . S
P192 C218 1.819 . S
H193 C207 0.941 . S
H194 C208 0.939 . S
H195 C210 0.940 . S
H196 C211 0.940 . S
H197 C213 0.939 . S
H198 C214 0.942 . S
H199 C216 0.940 . S
H200 C217 0.939 . S
H201 C219 0.941 . S
H202 C223 0.939 . S
O203 P192 1.490 . S
H204 C220 0.939 . S
H205 C222 0.940 . S
C206 P192 1.812 . S
C206 C207 1.389 . S
C206 C211 1.391 . S
C207 H193 0.941 . S
C207 C206 1.389 . S
C207 C208 1.397 . S
C208 H194 0.939 . S
C208 C207 1.397 . S
C208 C209 1.378 . S
C209 C208 1.378 . S
C209 C210 1.378 . S
C210 H195 0.940 . S
C210 C209 1.378 . S
C210 C211 1.396 . S
C211 H196 0.940 . S
C211 C206 1.391 . S
C211 C210 1.396 . S
C212 P192 1.803 . S
C212 C213 1.378 . S
C212 C217 1.400 . S
C213 H197 0.939 . S
C213 C212 1.378 . S
C213 C214 1.361 . S
C214 H198 0.942 . S
C214 C213 1.361 . S
C214 C215 1.369 . S
C215 C214 1.369 . S
C215 C216 1.404 . S
C216 H199 0.940 . S
C216 C215 1.404 . S
C216 C217 1.389 . S
C217 H200 0.939 . S
C217 C212 1.400 . S
C217 C216 1.389 . S
C218 P192 1.819 . S
C218 C219 1.391 . S
C218 C223 1.391 . S
C219 H201 0.941 . S
C219 C218 1.391 . S
C219 C220 1.396 . S
C220 H204 0.939 . S
C220 C219 1.396 . S
C220 C221 1.397 . S
C221 C220 1.397 . S
C221 C222 1.385 . S
C222 H205 0.940 . S
C222 C221 1.385 . S
C222 C223 1.388 . S
C223 H202 0.939 . S
C223 C218 1.391 . S
C223 C222 1.388 . S
P224 O235 1.490 . S
P224 C238 1.812 . S
P224 C244 1.803 . S
P224 C250 1.819 . S
H225 C239 0.941 . S
H226 C240 0.939 . S
H227 C242 0.940 . S
H228 C243 0.940 . S
H229 C245 0.939 . S
H230 C246 0.942 . S
H231 C248 0.940 . S
H232 C249 0.939 . S
H233 C251 0.941 . S
H234 C255 0.939 . S
O235 P224 1.490 . S
H236 C252 0.939 . S
H237 C254 0.940 . S
C238 P224 1.812 . S
C238 C239 1.389 . S
C238 C243 1.391 . S
C239 H225 0.941 . S
C239 C238 1.389 . S
C239 C240 1.397 . S
C240 H226 0.939 . S
C240 C239 1.397 . S
C240 C241 1.378 . S
C241 C240 1.378 . S
C241 C242 1.378 . S
C242 H227 0.940 . S
C242 C241 1.378 . S
C242 C243 1.396 . S
C243 H228 0.940 . S
C243 C238 1.391 . S
C243 C242 1.396 . S
C244 P224 1.803 . S
C244 C245 1.378 . S
C244 C249 1.400 . S
C245 H229 0.939 . S
C245 C244 1.378 . S
C245 C246 1.361 . S
C246 H230 0.942 . S
C246 C245 1.361 . S
C246 C247 1.369 . S
C247 C246 1.369 . S
C247 C248 1.404 . S
C248 H231 0.940 . S
C248 C247 1.404 . S
C248 C249 1.389 . S
C249 H232 0.939 . S
C249 C244 1.400 . S
C249 C248 1.389 . S
C250 P224 1.819 . S
C250 C251 1.391 . S
C250 C255 1.391 . S
C251 H233 0.941 . S
C251 C250 1.391 . S
C251 C252 1.396 . S
C252 H236 0.939 . S
C252 C251 1.396 . S
C252 C253 1.397 . S
C253 C252 1.397 . S
C253 C254 1.385 . S
C254 H237 0.940 . S
C254 C253 1.385 . S
C254 C255 1.388 . S
C255 H234 0.939 . S
C255 C250 1.391 . S
C255 C254 1.388 . S
Eu256 N285 2.600 . S
Eu256 N291 2.562 . S
Eu256 O300 2.462 . S
Eu256 O301 2.373 . S
Eu256 O303 2.432 . S
Eu256 O304 2.291 . S
Eu256 O308 2.335 . S
Eu256 O311 2.372 . S
Eu256 C320 2.787 . S
C257 N258 1.365 . S
C257 C260 1.405 . S
C257 C264 1.448 . S
N258 C257 1.365 . S
N258 C261 1.319 . S
N258 Eu267 2.600 . S
C259 C261 1.397 . S
C259 C262 1.367 . S
C259 H279 0.931 . S
C260 C257 1.405 . S
C260 C262 1.403 . S
C260 C266 1.439 . S
C261 N258 1.319 . S
C261 C259 1.397 . S
C261 H272 0.930 . S
C262 C259 1.367 . S
C262 C260 1.403 . S
C262 H283 0.929 . S
C263 C264 1.430 . S
C263 C265 1.387 . S
C263 C269 1.404 . S
C264 C257 1.448 . S
C264 C263 1.430 . S
C264 N268 1.351 . S
C265 C263 1.387 . S
C265 C266 1.374 . S
C265 H280 0.931 . S
C266 C260 1.439 . S
C266 C265 1.374 . S
C266 H281 0.931 . S
Eu267 N258 2.600 . S
Eu267 N268 2.562 . S
Eu267 O302 2.335 1_655 S
Eu267 O305 2.372 . S
Eu267 O306 2.462 . S
Eu267 O307 2.373 . S
Eu267 O309 2.432 . S
Eu267 O310 2.291 1_655 S
Eu267 C331 2.787 . S
N268 C264 1.351 . S
N268 Eu267 2.562 . S
N268 C270 1.325 . S
C269 C263 1.404 . S
C269 C271 1.366 . S
C269 H277 0.930 . S
C270 N268 1.325 . S
C270 C271 1.416 . S
C270 H276 0.929 . S
C271 C269 1.366 . S
C271 C270 1.416 . S
C271 H273 0.930 . S
H272 C261 0.930 . S
H273 C271 0.930 . S
H274 C289 0.930 . S
H275 C296 0.930 . S
H276 C270 0.929 . S
H277 C269 0.930 . S
H278 C292 0.929 . S
H279 C259 0.931 . S
H280 C265 0.931 . S
H281 C266 0.931 . S
H282 C287 0.931 . S
H283 C262 0.929 . S
H284 C295 0.930 . S
N285 Eu256 2.600 . S
N285 C286 1.365 . S
N285 C289 1.319 . S
C286 N285 1.365 . S
C286 C288 1.405 . S
C286 C294 1.448 . S
C287 H282 0.931 . S
C287 C289 1.397 . S
C287 C290 1.367 . S
C288 C286 1.405 . S
C288 C290 1.403 . S
C288 C321 1.439 . S
C289 H274 0.930 . S
C289 N285 1.319 . S
C289 C287 1.397 . S
C290 C287 1.367 . S
C290 C288 1.403 . S
C290 H297 0.929 . S
N291 Eu256 2.562 . S
N291 C292 1.325 . S
N291 C294 1.351 . S
C292 H278 0.929 . S
C292 N291 1.325 . S
C292 C296 1.416 . S
C293 C294 1.430 . S
C293 C295 1.404 . S
C293 C322 1.387 . S
C294 C286 1.448 . S
C294 N291 1.351 . S
C294 C293 1.430 . S
C295 H284 0.930 . S
C295 C293 1.404 . S
C295 C296 1.366 . S
C296 H275 0.930 . S
C296 C292 1.416 . S
C296 C295 1.366 . S
H297 C290 0.929 . S
H298 C321 0.931 . S
H299 C322 0.931 . S
O300 Eu256 2.462 . S
O300 C320 1.252 . S
O301 Eu256 2.373 . S
O301 C312 1.249 . S
O302 Eu267 2.335 1_455 S
O302 C312 1.264 . S
O303 Eu256 2.432 . S
O303 C320 1.268 . S
O304 Eu256 2.291 . S
O304 C319 1.255 1_455 S
O305 Eu267 2.372 . S
O305 C319 1.257 . S
O306 Eu267 2.462 . S
O306 C331 1.252 . S
O307 Eu267 2.373 . S
O307 C323 1.249 . S
O308 Eu256 2.335 . S
O308 C323 1.264 1_455 S
O309 Eu267 2.432 . S
O309 C331 1.268 . S
O310 Eu267 2.291 1_455 S
O310 C330 1.255 . S
O311 Eu256 2.372 . S
O311 C330 1.257 . S
C312 O301 1.249 . S
C312 O302 1.264 . S
C313 C316 1.382 . S
C313 C318 1.390 . S
C313 C320 1.506 . S
C314 C315 1.398 . S
C314 C318 1.392 . S
C315 C314 1.398 . S
C315 C317 1.372 . S
C315 H332 0.931 . S
C316 C313 1.382 . S
C316 C317 1.390 . S
C316 H333 0.931 . S
C317 C315 1.372 . S
C317 C316 1.390 . S
C317 H334 0.929 . S
C318 C313 1.390 . S
C318 C314 1.392 . S
C318 H335 0.930 . S
C319 O304 1.255 1_655 S
C319 O305 1.257 . S
C320 Eu256 2.787 . S
C320 O300 1.252 . S
C320 O303 1.268 . S
C320 C313 1.506 . S
C321 C288 1.439 . S
C321 H298 0.931 . S
C321 C322 1.374 . S
C322 C293 1.387 . S
C322 H299 0.931 . S
C322 C321 1.374 . S
C323 O307 1.249 . S
C323 O308 1.264 1_655 S
C324 C327 1.382 . S
C324 C328 1.390 . S
C324 C331 1.506 . S
C325 C326 1.398 . S
C325 C328 1.392 . S
C326 C325 1.398 . S
C326 C329 1.372 . S
C326 H336 0.931 . S
C327 C324 1.382 . S
C327 C329 1.390 . S
C327 H337 0.931 . S
C328 C324 1.390 . S
C328 C325 1.392 . S
C328 H338 0.930 . S
C329 C326 1.372 . S
C329 C327 1.390 . S
C329 H339 0.929 . S
C330 O310 1.255 . S
C330 O311 1.257 . S
C331 Eu267 2.787 . S
C331 O306 1.252 . S
C331 O309 1.268 . S
C331 C324 1.506 . S
H332 C315 0.931 . S
H333 C316 0.931 . S
H334 C317 0.929 . S
H335 C318 0.930 . S
H336 C326 0.931 . S
H337 C327 0.931 . S
H338 C328 0.930 . S
H339 C329 0.929 . S
Eu340 N369 2.600 . S
Eu340 N375 2.562 . S
Eu340 O384 2.462 . S
Eu340 O385 2.373 . S
Eu340 O387 2.432 . S
Eu340 O388 2.291 . S
Eu340 O392 2.335 . S
Eu340 O395 2.372 . S
Eu340 C404 2.787 . S
C341 N342 1.365 . S
C341 C344 1.405 . S
C341 C348 1.448 . S
N342 C341 1.365 . S
N342 C345 1.319 . S
N342 Eu351 2.600 . S
C343 C345 1.397 . S
C343 C346 1.367 . S
C343 H363 0.931 . S
C344 C341 1.405 . S
C344 C346 1.403 . S
C344 C350 1.439 . S
C345 N342 1.319 . S
C345 C343 1.397 . S
C345 H356 0.930 . S
C346 C343 1.367 . S
C346 C344 1.403 . S
C346 H367 0.929 . S
C347 C348 1.430 . S
C347 C349 1.387 . S
C347 C353 1.404 . S
C348 C341 1.448 . S
C348 C347 1.430 . S
C348 N352 1.351 . S
C349 C347 1.387 . S
C349 C350 1.374 . S
C349 H364 0.931 . S
C350 C344 1.439 . S
C350 C349 1.374 . S
C350 H365 0.931 . S
Eu351 N342 2.600 . S
Eu351 N352 2.562 . S
Eu351 O386 2.335 . S
Eu351 O389 2.372 . S
Eu351 O390 2.462 . S
Eu351 O391 2.373 . S
Eu351 O393 2.432 . S
Eu351 O394 2.291 . S
Eu351 C415 2.787 . S
N352 C348 1.351 . S
N352 Eu351 2.562 . S
N352 C354 1.325 . S
C353 C347 1.404 . S
C353 C355 1.366 . S
C353 H361 0.930 . S
C354 N352 1.325 . S
C354 C355 1.416 . S
C354 H360 0.929 . S
C355 C353 1.366 . S
C355 C354 1.416 . S
C355 H357 0.930 . S
H356 C345 0.930 . S
H357 C355 0.930 . S
H358 C373 0.930 . S
H359 C380 0.930 . S
H360 C354 0.929 . S
H361 C353 0.930 . S
H362 C376 0.929 . S
H363 C343 0.931 . S
H364 C349 0.931 . S
H365 C350 0.931 . S
H366 C371 0.931 . S
H367 C346 0.929 . S
H368 C379 0.930 . S
N369 Eu340 2.600 . S
N369 C370 1.365 . S
N369 C373 1.319 . S
C370 N369 1.365 . S
C370 C372 1.405 . S
C370 C378 1.448 . S
C371 H366 0.931 . S
C371 C373 1.397 . S
C371 C374 1.367 . S
C372 C370 1.405 . S
C372 C374 1.403 . S
C372 C405 1.439 . S
C373 H358 0.930 . S
C373 N369 1.319 . S
C373 C371 1.397 . S
C374 C371 1.367 . S
C374 C372 1.403 . S
C374 H381 0.929 . S
N375 Eu340 2.562 . S
N375 C376 1.325 . S
N375 C378 1.351 . S
C376 H362 0.929 . S
C376 N375 1.325 . S
C376 C380 1.416 . S
C377 C378 1.430 . S
C377 C379 1.404 . S
C377 C406 1.387 . S
C378 C370 1.448 . S
C378 N375 1.351 . S
C378 C377 1.430 . S
C379 H368 0.930 . S
C379 C377 1.404 . S
C379 C380 1.366 . S
C380 H359 0.930 . S
C380 C376 1.416 . S
C380 C379 1.366 . S
H381 C374 0.929 . S
H382 C405 0.931 . S
H383 C406 0.931 . S
O384 Eu340 2.462 . S
O384 C404 1.252 . S
O385 Eu340 2.373 . S
O385 C396 1.249 . S
O386 Eu351 2.335 . S
O386 C396 1.264 . S
O387 Eu340 2.432 . S
O387 C404 1.268 . S
O388 Eu340 2.291 . S
O388 C403 1.255 . S
O389 Eu351 2.372 . S
O389 C403 1.257 . S
O390 Eu351 2.462 . S
O390 C415 1.252 . S
O391 Eu351 2.373 . S
O391 C407 1.249 . S
O392 Eu340 2.335 . S
O392 C407 1.264 . S
O393 Eu351 2.432 . S
O393 C415 1.268 . S
O394 Eu351 2.291 . S
O394 C414 1.255 . S
O395 Eu340 2.372 . S
O395 C414 1.257 . S
C396 O385 1.249 . S
C396 O386 1.264 . S
C397 C400 1.382 . S
C397 C402 1.390 . S
C397 C404 1.506 . S
C398 C399 1.398 . S
C398 C402 1.392 . S
C399 C398 1.398 . S
C399 C401 1.372 . S
C399 H416 0.931 . S
C400 C397 1.382 . S
C400 C401 1.390 . S
C400 H417 0.931 . S
C401 C399 1.372 . S
C401 C400 1.390 . S
C401 H418 0.929 . S
C402 C397 1.390 . S
C402 C398 1.392 . S
C402 H419 0.930 . S
C403 O388 1.255 . S
C403 O389 1.257 . S
C404 Eu340 2.787 . S
C404 O384 1.252 . S
C404 O387 1.268 . S
C404 C397 1.506 . S
C405 C372 1.439 . S
C405 H382 0.931 . S
C405 C406 1.374 . S
C406 C377 1.387 . S
C406 H383 0.931 . S
C406 C405 1.374 . S
C407 O391 1.249 . S
C407 O392 1.264 . S
C408 C411 1.382 . S
C408 C412 1.390 . S
C408 C415 1.506 . S
C409 C410 1.398 . S
C409 C412 1.392 . S
C410 C409 1.398 . S
C410 C413 1.372 . S
C410 H420 0.931 . S
C411 C408 1.382 . S
C411 C413 1.390 . S
C411 H421 0.931 . S
C412 C408 1.390 . S
C412 C409 1.392 . S
C412 H422 0.930 . S
C413 C410 1.372 . S
C413 C411 1.390 . S
C413 H423 0.929 . S
C414 O394 1.255 . S
C414 O395 1.257 . S
C415 Eu351 2.787 . S
C415 O390 1.252 . S
C415 O393 1.268 . S
C415 C408 1.506 . S
H416 C399 0.931 . S
H417 C400 0.931 . S
H418 C401 0.929 . S
H419 C402 0.930 . S
H420 C410 0.931 . S
H421 C411 0.931 . S
H422 C412 0.930 . S
H423 C413 0.929 . S
Eu424 N453 2.600 . S
Eu424 N459 2.562 . S
Eu424 O468 2.462 . S
Eu424 O469 2.373 . S
Eu424 O471 2.432 . S
Eu424 O472 2.291 . S
Eu424 O476 2.335 . S
Eu424 O479 2.372 . S
Eu424 C488 2.787 . S
C425 N426 1.365 . S
C425 C428 1.405 . S
C425 C432 1.448 . S
N426 C425 1.365 . S
N426 C429 1.319 . S
N426 Eu435 2.600 . S
C427 C429 1.397 . S
C427 C430 1.367 . S
C427 H447 0.931 . S
C428 C425 1.405 . S
C428 C430 1.403 . S
C428 C434 1.439 . S
C429 N426 1.319 . S
C429 C427 1.397 . S
C429 H440 0.930 . S
C430 C427 1.367 . S
C430 C428 1.403 . S
C430 H451 0.929 . S
C431 C432 1.430 . S
C431 C433 1.387 . S
C431 C437 1.404 . S
C432 C425 1.448 . S
C432 C431 1.430 . S
C432 N436 1.351 . S
C433 C431 1.387 . S
C433 C434 1.374 . S
C433 H448 0.931 . S
C434 C428 1.439 . S
C434 C433 1.374 . S
C434 H449 0.931 . S
Eu435 N426 2.600 . S
Eu435 N436 2.562 . S
Eu435 O470 2.321 1_655 S
Eu435 O473 2.372 . S
Eu435 O474 2.462 . S
Eu435 O475 2.373 . S
Eu435 O477 2.432 . S
Eu435 O478 2.279 1_655 S
Eu435 C499 2.787 . S
N436 C432 1.351 . S
N436 Eu435 2.562 . S
N436 C438 1.325 . S
C437 C431 1.404 . S
C437 C439 1.366 . S
C437 H445 0.930 . S
C438 N436 1.325 . S
C438 C439 1.416 . S
C438 H444 0.929 . S
C439 C437 1.366 . S
C439 C438 1.416 . S
C439 H441 0.930 . S
H440 C429 0.930 . S
H441 C439 0.930 . S
H442 C457 0.930 . S
H443 C464 0.930 . S
H444 C438 0.929 . S
H445 C437 0.930 . S
H446 C460 0.929 . S
H447 C427 0.931 . S
H448 C433 0.931 . S
H449 C434 0.931 . S
H450 C455 0.931 . S
H451 C430 0.929 . S
H452 C463 0.930 . S
N453 Eu424 2.600 . S
N453 C454 1.365 . S
N453 C457 1.319 . S
C454 N453 1.365 . S
C454 C456 1.405 . S
C454 C462 1.448 . S
C455 H450 0.931 . S
C455 C457 1.397 . S
C455 C458 1.367 . S
C456 C454 1.405 . S
C456 C458 1.403 . S
C456 C489 1.439 . S
C457 H442 0.930 . S
C457 N453 1.319 . S
C457 C455 1.397 . S
C458 C455 1.367 . S
C458 C456 1.403 . S
C458 H465 0.929 . S
N459 Eu424 2.562 . S
N459 C460 1.325 . S
N459 C462 1.351 . S
C460 H446 0.929 . S
C460 N459 1.325 . S
C460 C464 1.416 . S
C461 C462 1.430 . S
C461 C463 1.404 . S
C461 C490 1.387 . S
C462 C454 1.448 . S
C462 N459 1.351 . S
C462 C461 1.430 . S
C463 H452 0.930 . S
C463 C461 1.404 . S
C463 C464 1.366 . S
C464 H443 0.930 . S
C464 C460 1.416 . S
C464 C463 1.366 . S
H465 C458 0.929 . S
H466 C489 0.931 . S
H467 C490 0.931 . S
O468 Eu424 2.462 . S
O468 C488 1.252 . S
O469 Eu424 2.373 . S
O469 C480 1.249 . S
O470 Eu435 2.321 1_455 S
O470 C480 1.281 . S
O471 Eu424 2.432 . S
O471 C488 1.268 . S
O472 Eu424 2.291 . S
O472 C487 1.255 1_455 S
O473 Eu435 2.372 . S
O473 C487 1.257 . S
O474 Eu435 2.462 . S
O474 C499 1.252 . S
O475 Eu435 2.373 . S
O475 C491 1.249 . S
O476 Eu424 2.335 . S
O476 C491 1.264 1_455 S
O477 Eu435 2.432 . S
O477 C499 1.268 . S
O478 Eu435 2.279 1_455 S
O478 C498 1.269 . S
O479 Eu424 2.372 . S
O479 C498 1.257 . S
C480 O469 1.249 . S
C480 O470 1.281 . S
C481 C484 1.382 . S
C481 C486 1.390 . S
C481 C488 1.506 . S
C482 C483 1.398 . S
C482 C486 1.392 . S
C483 C482 1.398 . S
C483 C485 1.372 . S
C483 H500 0.931 . S
C484 C481 1.382 . S
C484 C485 1.390 . S
C484 H501 0.931 . S
C485 C483 1.372 . S
C485 C484 1.390 . S
C485 H502 0.929 . S
C486 C481 1.390 . S
C486 C482 1.392 . S
C486 H503 0.930 . S
C487 O472 1.255 1_655 S
C487 O473 1.257 . S
C488 Eu424 2.787 . S
C488 O468 1.252 . S
C488 O471 1.268 . S
C488 C481 1.506 . S
C489 C456 1.439 . S
C489 H466 0.931 . S
C489 C490 1.374 . S
C490 C461 1.387 . S
C490 H467 0.931 . S
C490 C489 1.374 . S
C491 O475 1.249 . S
C491 O476 1.264 1_655 S
C492 C495 1.382 . S
C492 C496 1.390 . S
C492 C499 1.506 . S
C493 C494 1.398 . S
C493 C496 1.392 . S
C494 C493 1.398 . S
C494 C497 1.372 . S
C494 H504 0.931 . S
C495 C492 1.382 . S
C495 C497 1.390 . S
C495 H505 0.931 . S
C496 C492 1.390 . S
C496 C493 1.392 . S
C496 H506 0.930 . S
C497 C494 1.372 . S
C497 C495 1.390 . S
C497 H507 0.929 . S
C498 O478 1.269 . S
C498 O479 1.257 . S
C499 Eu435 2.787 . S
C499 O474 1.252 . S
C499 O477 1.268 . S
C499 C492 1.506 . S
H500 C483 0.931 . S
H501 C484 0.931 . S
H502 C485 0.929 . S
H503 C486 0.930 . S
H504 C494 0.931 . S
H505 C495 0.931 . S
H506 C496 0.930 . S
H507 C497 0.929 . S
Eu508 N537 2.600 . S
Eu508 N543 2.562 . S
Eu508 O552 2.462 . S
Eu508 O553 2.373 . S
Eu508 O555 2.432 . S
Eu508 O556 2.291 . S
Eu508 O560 2.335 . S
Eu508 O563 2.372 . S
Eu508 C572 2.787 . S
C509 N510 1.365 . S
C509 C512 1.405 . S
C509 C516 1.448 . S
N510 C509 1.365 . S
N510 C513 1.319 . S
N510 Eu519 2.600 . S
C511 C513 1.397 . S
C511 C514 1.367 . S
C511 H531 0.931 . S
C512 C509 1.405 . S
C512 C514 1.403 . S
C512 C518 1.439 . S
C513 N510 1.319 . S
C513 C511 1.397 . S
C513 H524 0.930 . S
C514 C511 1.367 . S
C514 C512 1.403 . S
C514 H535 0.929 . S
C515 C516 1.430 . S
C515 C517 1.387 . S
C515 C521 1.404 . S
C516 C509 1.448 . S
C516 C515 1.430 . S
C516 N520 1.351 . S
C517 C515 1.387 . S
C517 C518 1.374 . S
C517 H532 0.931 . S
C518 C512 1.439 . S
C518 C517 1.374 . S
C518 H533 0.931 . S
Eu519 N510 2.600 . S
Eu519 N520 2.562 . S
Eu519 O554 2.335 . S
Eu519 O557 2.372 . S
Eu519 O558 2.462 . S
Eu519 O559 2.373 . S
Eu519 O561 2.432 . S
Eu519 O562 2.291 . S
Eu519 C583 2.787 . S
N520 C516 1.351 . S
N520 Eu519 2.562 . S
N520 C522 1.325 . S
C521 C515 1.404 . S
C521 C523 1.366 . S
C521 H529 0.930 . S
C522 N520 1.325 . S
C522 C523 1.416 . S
C522 H528 0.929 . S
C523 C521 1.366 . S
C523 C522 1.416 . S
C523 H525 0.930 . S
H524 C513 0.930 . S
H525 C523 0.930 . S
H526 C541 0.930 . S
H527 C548 0.930 . S
H528 C522 0.929 . S
H529 C521 0.930 . S
H530 C544 0.929 . S
H531 C511 0.931 . S
H532 C517 0.931 . S
H533 C518 0.931 . S
H534 C539 0.931 . S
H535 C514 0.929 . S
H536 C547 0.930 . S
N537 Eu508 2.600 . S
N537 C538 1.365 . S
N537 C541 1.319 . S
C538 N537 1.365 . S
C538 C540 1.405 . S
C538 C546 1.448 . S
C539 H534 0.931 . S
C539 C541 1.397 . S
C539 C542 1.367 . S
C540 C538 1.405 . S
C540 C542 1.403 . S
C540 C573 1.439 . S
C541 H526 0.930 . S
C541 N537 1.319 . S
C541 C539 1.397 . S
C542 C539 1.367 . S
C542 C540 1.403 . S
C542 H549 0.929 . S
N543 Eu508 2.562 . S
N543 C544 1.325 . S
N543 C546 1.351 . S
C544 H530 0.929 . S
C544 N543 1.325 . S
C544 C548 1.416 . S
C545 C546 1.430 . S
C545 C547 1.404 . S
C545 C574 1.387 . S
C546 C538 1.448 . S
C546 N543 1.351 . S
C546 C545 1.430 . S
C547 H536 0.930 . S
C547 C545 1.404 . S
C547 C548 1.366 . S
C548 H527 0.930 . S
C548 C544 1.416 . S
C548 C547 1.366 . S
H549 C542 0.929 . S
H550 C573 0.931 . S
H551 C574 0.931 . S
O552 Eu508 2.462 . S
O552 C572 1.252 . S
O553 Eu508 2.373 . S
O553 C564 1.249 . S
O554 Eu519 2.335 . S
O554 C564 1.264 . S
O555 Eu508 2.432 . S
O555 C572 1.268 . S
O556 Eu508 2.291 . S
O556 C571 1.255 . S
O557 Eu519 2.372 . S
O557 C571 1.257 . S
O558 Eu519 2.462 . S
O558 C583 1.252 . S
O559 Eu519 2.373 . S
O559 C575 1.249 . S
O560 Eu508 2.335 . S
O560 C575 1.264 . S
O561 Eu519 2.432 . S
O561 C583 1.268 . S
O562 Eu519 2.291 . S
O562 C582 1.255 . S
O563 Eu508 2.372 . S
O563 C582 1.257 . S
C564 O553 1.249 . S
C564 O554 1.264 . S
C565 C568 1.382 . S
C565 C570 1.390 . S
C565 C572 1.506 . S
C566 C567 1.398 . S
C566 C570 1.392 . S
C567 C566 1.398 . S
C567 C569 1.372 . S
C567 H584 0.931 . S
C568 C565 1.382 . S
C568 C569 1.390 . S
C568 H585 0.931 . S
C569 C567 1.372 . S
C569 C568 1.390 . S
C569 H586 0.929 . S
C570 C565 1.390 . S
C570 C566 1.392 . S
C570 H587 0.930 . S
C571 O556 1.255 . S
C571 O557 1.257 . S
C572 Eu508 2.787 . S
C572 O552 1.252 . S
C572 O555 1.268 . S
C572 C565 1.506 . S
C573 C540 1.439 . S
C573 H550 0.931 . S
C573 C574 1.374 . S
C574 C545 1.387 . S
C574 H551 0.931 . S
C574 C573 1.374 . S
C575 O559 1.249 . S
C575 O560 1.264 . S
C576 C579 1.382 . S
C576 C580 1.390 . S
C576 C583 1.506 . S
C577 C578 1.398 . S
C577 C580 1.392 . S
C578 C577 1.398 . S
C578 C581 1.372 . S
C578 H588 0.931 . S
C579 C576 1.382 . S
C579 C581 1.390 . S
C579 H589 0.931 . S
C580 C576 1.390 . S
C580 C577 1.392 . S
C580 H590 0.930 . S
C581 C578 1.372 . S
C581 C579 1.390 . S
C581 H591 0.929 . S
C582 O562 1.255 . S
C582 O563 1.257 . S
C583 Eu519 2.787 . S
C583 O558 1.252 . S
C583 O561 1.268 . S
C583 C576 1.506 . S
H584 C567 0.931 . S
H585 C568 0.931 . S
H586 C569 0.929 . S
H587 C570 0.930 . S
H588 C578 0.931 . S
H589 C579 0.931 . S
H590 C580 0.930 . S
H591 C581 0.929 . S
C592 C593 1.349 . S
C592 C594 1.327 . S
C592 H617 0.950 . S
C593 C592 1.349 . S
C593 C609 1.349 . S
C594 C592 1.327 . S
C594 C613 1.429 . S
C594 H618 0.950 . S
C595 C612 1.574 . S
C595 C614 1.368 . S
C595 H619 0.949 . S
H596 C600 0.949 . S
C597 C598 1.349 . S
C597 C599 1.327 . S
C597 H620 0.950 . S
C598 C597 1.349 . S
C598 C610 1.349 . S
C599 C597 1.327 . S
C599 C615 1.429 . S
C599 H621 0.950 . S
C600 H596 0.949 . S
C600 C608 1.574 1_545 S
C600 C616 1.368 . S
H601 C609 0.950 . S
H602 C607 0.950 1_545 S
H603 C608 0.949 . S
H604 C610 0.950 . S
H605 C611 0.950 . S
H606 C612 0.949 . S
C607 H602 0.950 1_565 S
C607 C609 1.327 . S
C607 C613 1.429 . S
C608 C600 1.574 1_565 S
C608 H603 0.949 . S
C608 C614 1.368 1_565 S
C609 C593 1.349 . S
C609 H601 0.950 . S
C609 C607 1.327 . S
C610 C598 1.349 . S
C610 H604 0.950 . S
C610 C611 1.327 . S
C611 H605 0.950 . S
C611 C610 1.327 . S
C611 C615 1.429 . S
C612 C595 1.574 . S
C612 H606 0.949 . S
C612 C616 1.368 . S
C613 C594 1.429 . S
C613 C607 1.429 . S
C613 C614 1.523 1_565 S
C614 C595 1.368 . S
C614 C608 1.368 1_545 S
C614 C613 1.523 1_545 S
C615 C599 1.429 . S
C615 C611 1.429 . S
C615 C616 1.523 . S
C616 C600 1.368 . S
C616 C612 1.368 . S
C616 C615 1.523 . S
H617 C592 0.950 . S
H618 C594 0.950 . S
H619 C595 0.949 . S
H620 C597 0.950 . S
H621 C599 0.950 . S
C622 C623 1.349 . S
C622 C624 1.327 . S
C622 H647 0.950 . S
C623 C622 1.349 . S
C623 C639 1.349 . S
C624 C622 1.327 . S
C624 C643 1.429 . S
C624 H648 0.950 . S
C625 C642 1.574 . S
C625 C644 1.368 . S
C625 H649 0.949 . S
H626 C630 0.949 . S
C627 C628 1.349 . S
C627 C629 1.327 . S
C627 H650 0.950 . S
C628 C627 1.349 . S
C628 C640 1.349 . S
C629 C627 1.327 . S
C629 C645 1.429 . S
C629 H651 0.950 . S
C630 H626 0.949 . S
C630 C638 1.574 . S
C630 C646 1.368 . S
H631 C639 0.950 . S
H632 C637 0.950 . S
H633 C638 0.949 . S
H634 C640 0.950 . S
H635 C641 0.950 . S
H636 C642 0.949 . S
C637 H632 0.950 . S
C637 C639 1.327 . S
C637 C643 1.429 . S
C638 C630 1.574 . S
C638 H633 0.949 . S
C638 C644 1.368 . S
C639 C623 1.349 . S
C639 H631 0.950 . S
C639 C637 1.327 . S
C640 C628 1.349 . S
C640 H634 0.950 . S
C640 C641 1.327 . S
C641 H635 0.950 . S
C641 C640 1.327 . S
C641 C645 1.429 . S
C642 C625 1.574 . S
C642 H636 0.949 . S
C642 C646 1.368 . S
C643 C624 1.429 . S
C643 C637 1.429 . S
C643 C644 1.523 . S
C644 C625 1.368 . S
C644 C638 1.368 . S
C644 C643 1.523 . S
C645 C629 1.429 . S
C645 C641 1.429 . S
C645 C646 1.523 . S
C646 C630 1.368 . S
C646 C642 1.368 . S
C646 C645 1.523 . S
H647 C622 0.950 . S
H648 C624 0.950 . S
H649 C625 0.949 . S
H650 C627 0.950 . S
H651 C629 0.950 . S
C652 C653 1.349 . S
C652 C654 1.327 . S
C652 H677 0.950 . S
C653 C652 1.349 . S
C653 C669 1.349 . S
C654 C652 1.327 . S
C654 C673 1.429 . S
C654 H678 0.950 . S
C655 C672 1.574 . S
C655 C674 1.368 . S
C655 H679 0.949 . S
H656 C660 0.949 . S
C657 C658 1.349 . S
C657 C659 1.327 . S
C657 H680 0.950 . S
C658 C657 1.349 . S
C658 C670 1.349 . S
C659 C657 1.327 . S
C659 C675 1.429 . S
C659 H681 0.950 . S
C660 H656 0.949 . S
C660 C668 1.574 . S
C660 C676 1.368 . S
H661 C669 0.950 . S
H662 C667 0.950 . S
H663 C668 0.949 . S
H664 C670 0.950 . S
H665 C671 0.950 . S
H666 C672 0.949 . S
C667 H662 0.950 . S
C667 C669 1.327 . S
C667 C673 1.429 . S
C668 C660 1.574 . S
C668 H663 0.949 . S
C668 C674 1.368 . S
C669 C653 1.349 . S
C669 H661 0.950 . S
C669 C667 1.327 . S
C670 C658 1.349 . S
C670 H664 0.950 . S
C670 C671 1.327 . S
C671 H665 0.950 . S
C671 C670 1.327 . S
C671 C675 1.429 . S
C672 C655 1.574 . S
C672 H666 0.949 . S
C672 C676 1.368 . S
C673 C654 1.429 . S
C673 C667 1.429 . S
C673 C674 1.523 . S
C674 C655 1.368 . S
C674 C668 1.368 . S
C674 C673 1.523 . S
C675 C659 1.429 . S
C675 C671 1.429 . S
C675 C676 1.523 . S
C676 C660 1.368 . S
C676 C672 1.368 . S
C676 C675 1.523 . S
H677 C652 0.950 . S
H678 C654 0.950 . S
H679 C655 0.949 . S
H680 C657 0.950 . S
H681 C659 0.950 . S
C682 C683 1.349 . S
C682 C684 1.327 . S
C682 H707 0.950 . S
C683 C682 1.349 . S
C683 C699 1.349 . S
C684 C682 1.327 . S
C684 C703 1.429 . S
C684 H708 0.950 . S
C685 C702 1.574 . S
C685 C704 1.368 . S
C685 H709 0.949 . S
H686 C690 0.949 . S
C687 C688 1.349 . S
C687 C689 1.327 . S
C687 H710 0.950 . S
C688 C687 1.349 . S
C688 C700 1.349 . S
C689 C687 1.327 . S
C689 C705 1.429 . S
C689 H711 0.950 . S
C690 H686 0.949 . S
C690 C698 1.574 . S
C690 C706 1.368 . S
H691 C699 0.950 . S
H692 C697 0.950 1_545 S
H693 C698 0.949 1_565 S
H694 C700 0.950 . S
H695 C701 0.950 . S
H696 C702 0.949 . S
C697 H692 0.950 1_565 S
C697 C699 1.327 . S
C697 C703 1.429 . S
C698 C690 1.574 . S
C698 H693 0.949 1_545 S
C698 C704 1.368 . S
C699 C683 1.349 . S
C699 H691 0.950 . S
C699 C697 1.327 . S
C700 C688 1.349 . S
C700 H694 0.950 . S
C700 C701 1.327 . S
C701 H695 0.950 . S
C701 C700 1.327 . S
C701 C705 1.429 . S
C702 C685 1.574 . S
C702 H696 0.949 . S
C702 C706 1.368 . S
C703 C684 1.429 . S
C703 C697 1.429 . S
C703 C704 1.523 1_565 S
C704 C685 1.368 . S
C704 C698 1.368 . S
C704 C703 1.523 1_545 S
C705 C689 1.429 . S
C705 C701 1.429 . S
C705 C706 1.523 . S
C706 C690 1.368 . S
C706 C702 1.368 . S
C706 C705 1.523 . S
H707 C682 0.950 . S
H708 C684 0.950 . S
H709 C685 0.949 . S
H710 C687 0.950 . S
H711 C689 0.950 . S
C712 C713 1.349 . S
C712 C714 1.327 . S
C712 H737 0.950 . S
C713 C712 1.349 . S
C713 C729 1.349 . S
C714 C712 1.327 . S
C714 C733 1.429 . S
C714 H738 0.950 1_545 S
C715 C732 1.574 1_545 S
C715 C734 1.368 1_545 S
C715 H739 0.949 . S
H716 C720 0.949 . S
C717 C718 1.349 . S
C717 C719 1.327 . S
C717 H740 0.950 . S
C718 C717 1.349 . S
C718 C730 1.349 . S
C719 C717 1.327 . S
C719 C735 1.429 . S
C719 H741 0.950 . S
C720 H716 0.949 . S
C720 C728 1.574 . S
C720 C736 1.368 . S
H721 C729 0.950 . S
H722 C727 0.950 . S
H723 C728 0.949 . S
H724 C730 0.950 . S
H725 C731 0.950 . S
H726 C732 0.949 . S
C727 H722 0.950 . S
C727 C729 1.327 . S
C727 C733 1.429 . S
C728 C720 1.574 . S
C728 H723 0.949 . S
C728 C734 1.368 . S
C729 C713 1.349 . S
C729 H721 0.950 . S
C729 C727 1.327 . S
C730 C718 1.349 . S
C730 H724 0.950 . S
C730 C731 1.327 . S
C731 H725 0.950 . S
C731 C730 1.327 . S
C731 C735 1.429 . S
C732 C715 1.574 1_565 S
C732 H726 0.949 . S
C732 C736 1.368 . S
C733 C714 1.429 . S
C733 C727 1.429 . S
C733 C734 1.523 1_545 S
C734 C715 1.368 1_565 S
C734 C728 1.368 . S
C734 C733 1.523 1_565 S
C735 C719 1.429 . S
C735 C731 1.429 . S
C735 C736 1.523 . S
C736 C720 1.368 . S
C736 C732 1.368 . S
C736 C735 1.523 . S
H737 C712 0.950 . S
H738 C714 0.950 1_565 S
H739 C715 0.949 . S
H740 C717 0.950 . S
H741 C719 0.950 . S
C742 C743 1.349 . S
C742 C744 1.327 . S
C742 H767 0.950 . S
C743 C742 1.349 . S
C743 C759 1.349 . S
C744 C742 1.327 . S
C744 C763 1.429 . S
C744 H768 0.950 . S
C745 C762 1.574 . S
C745 C764 1.368 . S
C745 H769 0.949 . S
H746 C750 0.949 . S
C747 C748 1.349 . S
C747 C749 1.327 . S
C747 H770 0.950 . S
C748 C747 1.349 . S
C748 C760 1.349 . S
C749 C747 1.327 . S
C749 C765 1.429 . S
C749 H771 0.950 . S
C750 H746 0.949 . S
C750 C758 1.574 . S
C750 C766 1.368 . S
H751 C759 0.950 . S
H752 C757 0.950 . S
H753 C758 0.949 . S
H754 C760 0.950 . S
H755 C761 0.950 . S
H756 C762 0.949 . S
C757 H752 0.950 . S
C757 C759 1.327 . S
C757 C763 1.429 . S
C758 C750 1.574 . S
C758 H753 0.949 . S
C758 C764 1.368 . S
C759 C743 1.349 . S
C759 H751 0.950 . S
C759 C757 1.327 . S
C760 C748 1.349 . S
C760 H754 0.950 . S
C760 C761 1.327 . S
C761 H755 0.950 . S
C761 C760 1.327 . S
C761 C765 1.429 . S
C762 C745 1.574 . S
C762 H756 0.949 . S
C762 C766 1.368 . S
C763 C744 1.429 . S
C763 C757 1.429 . S
C763 C764 1.523 . S
C764 C745 1.368 . S
C764 C758 1.368 . S
C764 C763 1.523 . S
C765 C749 1.429 . S
C765 C761 1.429 . S
C765 C766 1.523 . S
C766 C750 1.368 . S
C766 C762 1.368 . S
C766 C765 1.523 . S
H767 C742 0.950 . S
H768 C744 0.950 . S
H769 C745 0.949 . S
H770 C747 0.950 . S
H771 C749 0.950 . S
C772 C773 1.349 . S
C772 C774 1.327 . S
C772 H797 0.950 . S
C773 C772 1.349 . S
C773 C789 1.349 . S
C774 C772 1.327 . S
C774 C793 1.429 . S
C774 H798 0.950 . S
C775 C792 1.574 . S
C775 C794 1.368 . S
C775 H799 0.949 . S
H776 C780 0.949 . S
C777 C778 1.349 . S
C777 C779 1.327 . S
C777 H800 0.950 . S
C778 C777 1.349 . S
C778 C790 1.349 . S
C779 C777 1.327 . S
C779 C795 1.429 . S
C779 H801 0.950 . S
C780 H776 0.949 . S
C780 C788 1.574 . S
C780 C796 1.368 . S
H781 C789 0.950 . S
H782 C787 0.950 . S
H783 C788 0.949 . S
H784 C790 0.950 . S
H785 C791 0.950 . S
H786 C792 0.949 . S
C787 H782 0.950 . S
C787 C789 1.327 . S
C787 C793 1.429 . S
C788 C780 1.574 . S
C788 H783 0.949 . S
C788 C794 1.368 . S
C789 C773 1.349 . S
C789 H781 0.950 . S
C789 C787 1.327 . S
C790 C778 1.349 . S
C790 H784 0.950 . S
C790 C791 1.327 . S
C791 H785 0.950 . S
C791 C790 1.327 . S
C791 C795 1.429 . S
C792 C775 1.574 . S
C792 H786 0.949 . S
C792 C796 1.368 . S
C793 C774 1.429 . S
C793 C787 1.429 . S
C793 C794 1.523 . S
C794 C775 1.368 . S
C794 C788 1.368 . S
C794 C793 1.523 . S
C795 C779 1.429 . S
C795 C791 1.429 . S
C795 C796 1.523 . S
C796 C780 1.368 . S
C796 C792 1.368 . S
C796 C795 1.523 . S
H797 C772 0.950 . S
H798 C774 0.950 . S
H799 C775 0.949 . S
H800 C777 0.950 . S
H801 C779 0.950 . S
C802 C803 1.349 . S
C802 C804 1.327 . S
C802 H827 0.950 . S
C803 C802 1.349 . S
C803 C819 1.349 . S
C804 C802 1.327 . S
C804 C823 1.429 . S
C804 H828 0.950 1_545 S
C805 C822 1.574 . S
C805 C824 1.368 . S
C805 H829 0.949 1_565 S
H806 C810 0.949 . S
C807 C808 1.349 . S
C807 C809 1.327 . S
C807 H830 0.950 . S
C808 C807 1.349 . S
C808 C820 1.349 . S
C809 C807 1.327 . S
C809 C825 1.429 . S
C809 H831 0.950 . S
C810 H806 0.949 . S
C810 C818 1.574 . S
C810 C826 1.368 . S
H811 C819 0.950 . S
H812 C817 0.950 . S
H813 C818 0.949 . S
H814 C820 0.950 . S
H815 C821 0.950 . S
H816 C822 0.949 . S
C817 H812 0.950 . S
C817 C819 1.327 . S
C817 C823 1.429 . S
C818 C810 1.574 . S
C818 H813 0.949 . S
C818 C824 1.368 . S
C819 C803 1.349 . S
C819 H811 0.950 . S
C819 C817 1.327 . S
C820 C808 1.349 . S
C820 H814 0.950 . S
C820 C821 1.327 . S
C821 H815 0.950 . S
C821 C820 1.327 . S
C821 C825 1.429 . S
C822 C805 1.574 . S
C822 H816 0.949 . S
C822 C826 1.368 . S
C823 C804 1.429 . S
C823 C817 1.429 . S
C823 C824 1.523 1_545 S
C824 C805 1.368 . S
C824 C818 1.368 . S
C824 C823 1.523 1_565 S
C825 C809 1.429 . S
C825 C821 1.429 . S
C825 C826 1.523 . S
C826 C810 1.368 . S
C826 C822 1.368 . S
C826 C825 1.523 . S
H827 C802 0.950 . S
H828 C804 0.950 1_565 S
H829 C805 0.949 1_545 S
H830 C807 0.950 . S
H831 C809 0.950 . S
C832 C833 1.349 . S
C832 C834 1.327 1_556 S
C832 H857 0.950 . S
C833 C832 1.349 . S
C833 C849 1.349 . S
C834 C832 1.327 1_554 S
C834 C853 1.429 . S
C834 H858 0.950 . S
C835 C852 1.574 . S
C835 C854 1.368 . S
C835 H859 0.949 . S
H836 C840 0.949 . S
C837 C838 1.349 . S
C837 C839 1.327 . S
C837 H860 0.950 . S
C838 C837 1.349 . S
C838 C850 1.349 . S
C839 C837 1.327 . S
C839 C855 1.429 . S
C839 H861 0.950 . S
C840 H836 0.949 . S
C840 C848 1.574 . S
C840 C856 1.368 . S
H841 C849 0.950 . S
H842 C847 0.950 . S
H843 C848 0.949 . S
H844 C850 0.950 . S
H845 C851 0.950 . S
H846 C852 0.949 . S
C847 H842 0.950 . S
C847 C849 1.327 1_554 S
C847 C853 1.429 . S
C848 C840 1.574 . S
C848 H843 0.949 . S
C848 C854 1.368 . S
C849 C833 1.349 . S
C849 H841 0.950 . S
C849 C847 1.327 1_556 S
C850 C838 1.349 . S
C850 H844 0.950 . S
C850 C851 1.327 . S
C851 H845 0.950 . S
C851 C850 1.327 . S
C851 C855 1.429 . S
C852 C835 1.574 . S
C852 H846 0.949 . S
C852 C856 1.368 . S
C853 C834 1.429 . S
C853 C847 1.429 . S
C853 C854 1.523 . S
C854 C835 1.368 . S
C854 C848 1.368 . S
C854 C853 1.523 . S
C855 C839 1.429 . S
C855 C851 1.429 . S
C855 C856 1.523 . S
C856 C840 1.368 . S
C856 C852 1.368 . S
C856 C855 1.523 . S
H857 C832 0.950 . S
H858 C834 0.950 . S
H859 C835 0.949 . S
H860 C837 0.950 . S
H861 C839 0.950 . S
C862 C863 1.349 . S
C862 C864 1.327 . S
C862 H887 0.950 . S
C863 C862 1.349 . S
C863 C879 1.349 . S
C864 C862 1.327 . S
C864 C883 1.429 . S
C864 H888 0.950 . S
C865 C882 1.574 . S
C865 C884 1.368 . S
C865 H889 0.949 . S
H866 C870 0.949 . S
C867 C868 1.349 . S
C867 C869 1.327 . S
C867 H890 0.950 . S
C868 C867 1.349 . S
C868 C880 1.349 . S
C869 C867 1.327 . S
C869 C885 1.429 . S
C869 H891 0.950 . S
C870 H866 0.949 . S
C870 C878 1.574 . S
C870 C886 1.368 . S
H871 C879 0.950 . S
H872 C877 0.950 . S
H873 C878 0.949 . S
H874 C880 0.950 . S
H875 C881 0.950 . S
H876 C882 0.949 . S
C877 H872 0.950 . S
C877 C879 1.327 . S
C877 C883 1.429 . S
C878 C870 1.574 . S
C878 H873 0.949 . S
C878 C884 1.368 . S
C879 C863 1.349 . S
C879 H871 0.950 . S
C879 C877 1.327 . S
C880 C868 1.349 . S
C880 H874 0.950 . S
C880 C881 1.327 . S
C881 H875 0.950 . S
C881 C880 1.327 . S
C881 C885 1.429 . S
C882 C865 1.574 . S
C882 H876 0.949 . S
C882 C886 1.368 . S
C883 C864 1.429 . S
C883 C877 1.429 . S
C883 C884 1.523 . S
C884 C865 1.368 . S
C884 C878 1.368 . S
C884 C883 1.523 . S
C885 C869 1.429 . S
C885 C881 1.429 . S
C885 C886 1.523 . S
C886 C870 1.368 . S
C886 C882 1.368 . S
C886 C885 1.523 . S
H887 C862 0.950 . S
H888 C864 0.950 . S
H889 C865 0.949 . S
H890 C867 0.950 . S
H891 C869 0.950 . S
C892 C893 1.349 . S
C892 C894 1.327 1_554 S
C892 H917 0.950 . S
C893 C892 1.349 . S
C893 C909 1.349 . S
C894 C892 1.327 1_556 S
C894 C913 1.429 . S
C894 H918 0.950 . S
C895 C912 1.574 . S
C895 C914 1.368 . S
C895 H919 0.949 . S
H896 C900 0.949 . S
C897 C898 1.349 . S
C897 C899 1.327 . S
C897 H920 0.950 . S
C898 C897 1.349 . S
C898 C910 1.349 . S
C899 C897 1.327 . S
C899 C915 1.429 . S
C899 H921 0.950 . S
C900 H896 0.949 . S
C900 C908 1.574 . S
C900 C916 1.368 . S
H901 C909 0.950 . S
H902 C907 0.950 . S
H903 C908 0.949 . S
H904 C910 0.950 . S
H905 C911 0.950 . S
H906 C912 0.949 . S
C907 H902 0.950 . S
C907 C909 1.327 1_556 S
C907 C913 1.429 . S
C908 C900 1.574 . S
C908 H903 0.949 . S
C908 C914 1.368 . S
C909 C893 1.349 . S
C909 H901 0.950 . S
C909 C907 1.327 1_554 S
C910 C898 1.349 . S
C910 H904 0.950 . S
C910 C911 1.327 . S
C911 H905 0.950 . S
C911 C910 1.327 . S
C911 C915 1.429 . S
C912 C895 1.574 . S
C912 H906 0.949 . S
C912 C916 1.368 . S
C913 C894 1.429 . S
C913 C907 1.429 . S
C913 C914 1.523 . S
C914 C895 1.368 . S
C914 C908 1.368 . S
C914 C913 1.523 . S
C915 C899 1.429 . S
C915 C911 1.429 . S
C915 C916 1.523 . S
C916 C900 1.368 . S
C916 C912 1.368 . S
C916 C915 1.523 . S
H917 C892 0.950 . S
H918 C894 0.950 . S
H919 C895 0.949 . S
H920 C897 0.950 . S
H921 C899 0.950 . S
C922 C923 1.349 . S
C922 C924 1.327 . S
C922 H947 0.950 . S
C923 C922 1.349 . S
C923 C939 1.349 . S
C924 C922 1.327 . S
C924 C943 1.429 . S
C924 H948 0.950 . S
C925 C942 1.574 . S
C925 C944 1.368 . S
C925 H949 0.949 . S
H926 C930 0.949 . S
C927 C928 1.349 . S
C927 C929 1.327 . S
C927 H950 0.950 . S
C928 C927 1.349 . S
C928 C940 1.349 . S
C929 C927 1.327 . S
C929 C945 1.429 . S
C929 H951 0.950 . S
C930 H926 0.949 . S
C930 C938 1.574 . S
C930 C946 1.368 . S
H931 C939 0.950 . S
H932 C937 0.950 . S
H933 C938 0.949 . S
H934 C940 0.950 . S
H935 C941 0.950 . S
H936 C942 0.949 . S
C937 H932 0.950 . S
C937 C939 1.327 . S
C937 C943 1.429 . S
C938 C930 1.574 . S
C938 H933 0.949 . S
C938 C944 1.368 . S
C939 C923 1.349 . S
C939 H931 0.950 . S
C939 C937 1.327 . S
C940 C928 1.349 . S
C940 H934 0.950 . S
C940 C941 1.327 . S
C941 H935 0.950 . S
C941 C940 1.327 . S
C941 C945 1.429 . S
C942 C925 1.574 . S
C942 H936 0.949 . S
C942 C946 1.368 . S
C943 C924 1.429 . S
C943 C937 1.429 . S
C943 C944 1.523 . S
C944 C925 1.368 . S
C944 C938 1.368 . S
C944 C943 1.523 . S
C945 C929 1.429 . S
C945 C941 1.429 . S
C945 C946 1.523 . S
C946 C930 1.368 . S
C946 C942 1.368 . S
C946 C945 1.523 . S
H947 C922 0.950 . S
H948 C924 0.950 . S
H949 C925 0.949 . S
H950 C927 0.950 . S
H951 C929 0.950 . S
C952 C953 1.349 . S
C952 C954 1.327 1_554 S
C952 H977 0.950 . S
C953 C952 1.349 . S
C953 C969 1.349 . S
C954 C952 1.327 1_556 S
C954 C973 1.429 . S
C954 H978 0.950 . S
C955 C972 1.574 . S
C955 C974 1.368 . S
C955 H979 0.949 . S
H956 C960 0.949 . S
C957 C958 1.349 . S
C957 C959 1.327 . S
C957 H980 0.950 . S
C958 C957 1.349 . S
C958 C970 1.349 . S
C959 C957 1.327 . S
C959 C975 1.429 . S
C959 H981 0.950 . S
C960 H956 0.949 . S
C960 C968 1.574 . S
C960 C976 1.368 . S
H961 C969 0.950 . S
H962 C967 0.950 . S
H963 C968 0.949 . S
H964 C970 0.950 . S
H965 C971 0.950 . S
H966 C972 0.949 . S
C967 H962 0.950 . S
C967 C969 1.327 1_556 S
C967 C973 1.429 . S
C968 C960 1.574 . S
C968 H963 0.949 . S
C968 C974 1.368 . S
C969 C953 1.349 . S
C969 H961 0.950 . S
C969 C967 1.327 1_554 S
C970 C958 1.349 . S
C970 H964 0.950 . S
C970 C971 1.327 . S
C971 H965 0.950 . S
C971 C970 1.327 . S
C971 C975 1.429 . S
C972 C955 1.574 . S
C972 H966 0.949 . S
C972 C976 1.368 . S
C973 C954 1.429 . S
C973 C967 1.429 . S
C973 C974 1.523 . S
C974 C955 1.368 . S
C974 C968 1.368 . S
C974 C973 1.523 . S
C975 C959 1.429 . S
C975 C971 1.429 . S
C975 C976 1.523 . S
C976 C960 1.368 . S
C976 C972 1.368 . S
C976 C975 1.523 . S
H977 C952 0.950 . S
H978 C954 0.950 . S
H979 C955 0.949 . S
H980 C957 0.950 . S
H981 C959 0.950 . S
C982 C983 1.349 . S
C982 C984 1.327 . S
C982 H1007 0.950 . S
C983 C982 1.349 . S
C983 C999 1.349 . S
C984 C982 1.327 . S
C984 C1003 1.429 . S
C984 H1008 0.950 . S
C985 C1002 1.574 . S
C985 C1004 1.368 . S
C985 H1009 0.949 . S
H986 C990 0.949 . S
C987 C988 1.349 . S
C987 C989 1.327 . S
C987 H1010 0.950 . S
C988 C987 1.349 . S
C988 C1000 1.349 . S
C989 C987 1.327 . S
C989 C1005 1.429 . S
C989 H1011 0.950 . S
C990 H986 0.949 . S
C990 C998 1.574 . S
C990 C1006 1.368 . S
H991 C999 0.950 . S
H992 C997 0.950 . S
H993 C998 0.949 . S
H994 C1000 0.950 . S
H995 C1001 0.950 . S
H996 C1002 0.949 . S
C997 H992 0.950 . S
C997 C999 1.327 . S
C997 C1003 1.429 . S
C998 C990 1.574 . S
C998 H993 0.949 . S
C998 C1004 1.368 . S
C999 C983 1.349 . S
C999 H991 0.950 . S
C999 C997 1.327 . S
C1000 C988 1.349 . S
C1000 H994 0.950 . S
C1000 C1001 1.327 . S
C1001 H995 0.950 . S
C1001 C1000 1.327 . S
C1001 C1005 1.429 . S
C1002 C985 1.574 . S
C1002 H996 0.949 . S
C1002 C1006 1.368 . S
C1003 C984 1.429 . S
C1003 C997 1.429 . S
C1003 C1004 1.523 . S
C1004 C985 1.368 . S
C1004 C998 1.368 . S
C1004 C1003 1.523 . S
C1005 C989 1.429 . S
C1005 C1001 1.429 . S
C1005 C1006 1.523 . S
C1006 C990 1.368 . S
C1006 C1002 1.368 . S
C1006 C1005 1.523 . S
H1007 C982 0.950 . S
H1008 C984 0.950 . S
H1009 C985 0.949 . S
H1010 C987 0.950 . S
H1011 C989 0.950 . S
C1012 C1013 1.349 . S
C1012 C1014 1.327 1_556 S
C1012 H1037 0.950 . S
C1013 C1012 1.349 . S
C1013 C1029 1.349 . S
C1014 C1012 1.327 1_554 S
C1014 C1033 1.429 . S
C1014 H1038 0.950 . S
C1015 C1032 1.574 . S
C1015 C1034 1.368 . S
C1015 H1039 0.949 . S
H1016 C1020 0.949 . S
C1017 C1018 1.349 . S
C1017 C1019 1.327 . S
C1017 H1040 0.950 . S
C1018 C1017 1.349 . S
C1018 C1030 1.349 . S
C1019 C1017 1.327 . S
C1019 C1035 1.429 . S
C1019 H1041 0.950 . S
C1020 H1016 0.949 . S
C1020 C1028 1.574 . S
C1020 C1036 1.368 . S
H1021 C1029 0.950 . S
H1022 C1027 0.950 . S
H1023 C1028 0.949 . S
H1024 C1030 0.950 . S
H1025 C1031 0.950 . S
H1026 C1032 0.949 . S
C1027 H1022 0.950 . S
C1027 C1029 1.327 1_554 S
C1027 C1033 1.429 . S
C1028 C1020 1.574 . S
C1028 H1023 0.949 . S
C1028 C1034 1.368 . S
C1029 C1013 1.349 . S
C1029 H1021 0.950 . S
C1029 C1027 1.327 1_556 S
C1030 C1018 1.349 . S
C1030 H1024 0.950 . S
C1030 C1031 1.327 . S
C1031 H1025 0.950 . S
C1031 C1030 1.327 . S
C1031 C1035 1.429 . S
C1032 C1015 1.574 . S
C1032 H1026 0.949 . S
C1032 C1036 1.368 . S
C1033 C1014 1.429 . S
C1033 C1027 1.429 . S
C1033 C1034 1.523 . S
C1034 C1015 1.368 . S
C1034 C1028 1.368 . S
C1034 C1033 1.523 . S
C1035 C1019 1.429 . S
C1035 C1031 1.429 . S
C1035 C1036 1.523 . S
C1036 C1020 1.368 . S
C1036 C1032 1.368 . S
C1036 C1035 1.523 . S
H1037 C1012 0.950 . S
H1038 C1014 0.950 . S
H1039 C1015 0.949 . S
H1040 C1017 0.950 . S
H1041 C1019 0.950 . S
C1042 C1043 1.349 . S
C1042 C1044 1.327 . S
C1042 H1067 0.950 . S
C1043 C1042 1.349 . S
C1043 C1059 1.349 . S
C1044 C1042 1.327 . S
C1044 C1063 1.429 . S
C1044 H1068 0.950 . S
C1045 C1062 1.574 . S
C1045 C1064 1.368 . S
C1045 H1069 0.949 . S
H1046 C1050 0.949 . S
C1047 C1048 1.349 . S
C1047 C1049 1.327 . S
C1047 H1070 0.950 . S
C1048 C1047 1.349 . S
C1048 C1060 1.349 . S
C1049 C1047 1.327 . S
C1049 C1065 1.429 . S
C1049 H1071 0.950 . S
C1050 H1046 0.949 . S
C1050 C1058 1.574 . S
C1050 C1066 1.368 . S
H1051 C1059 0.950 . S
H1052 C1057 0.950 . S
H1053 C1058 0.949 . S
H1054 C1060 0.950 . S
H1055 C1061 0.950 . S
H1056 C1062 0.949 . S
C1057 H1052 0.950 . S
C1057 C1059 1.327 . S
C1057 C1063 1.429 . S
C1058 C1050 1.574 . S
C1058 H1053 0.949 . S
C1058 C1064 1.368 . S
C1059 C1043 1.349 . S
C1059 H1051 0.950 . S
C1059 C1057 1.327 . S
C1060 C1048 1.349 . S
C1060 H1054 0.950 . S
C1060 C1061 1.327 . S
C1061 H1055 0.950 . S
C1061 C1060 1.327 . S
C1061 C1065 1.429 . S
C1062 C1045 1.574 . S
C1062 H1056 0.949 . S
C1062 C1066 1.368 . S
C1063 C1044 1.429 . S
C1063 C1057 1.429 . S
C1063 C1064 1.523 . S
C1064 C1045 1.368 . S
C1064 C1058 1.368 . S
C1064 C1063 1.523 . S
C1065 C1049 1.429 . S
C1065 C1061 1.429 . S
C1065 C1066 1.523 . S
C1066 C1050 1.368 . S
C1066 C1062 1.368 . S
C1066 C1065 1.523 . S
H1067 C1042 0.950 . S
H1068 C1044 0.950 . S
H1069 C1045 0.949 . S
H1070 C1047 0.950 . S
H1071 C1049 0.950 . S
C1072 C1073 1.349 . S
C1072 C1074 1.327 . S
C1072 H1097 0.950 . S
C1073 C1072 1.349 . S
C1073 C1089 1.349 . S
C1074 C1072 1.327 . S
C1074 C1093 1.429 . S
C1074 H1098 0.950 . S
C1075 C1092 1.574 . S
C1075 C1094 1.368 . S
C1075 H1099 0.949 . S
H1076 C1080 0.949 . S
C1077 C1078 1.349 . S
C1077 C1079 1.327 . S
C1077 H1100 0.950 . S
C1078 C1077 1.349 . S
C1078 C1090 1.349 . S
C1079 C1077 1.327 . S
C1079 C1095 1.429 . S
C1079 H1101 0.950 . S
C1080 H1076 0.949 . S
C1080 C1088 1.574 . S
C1080 C1096 1.368 . S
H1081 C1089 0.950 . S
H1082 C1087 0.950 . S
H1083 C1088 0.949 . S
H1084 C1090 0.950 . S
H1085 C1091 0.950 . S
H1086 C1092 0.949 . S
C1087 H1082 0.950 . S
C1087 C1089 1.327 . S
C1087 C1093 1.429 . S
C1088 C1080 1.574 . S
C1088 H1083 0.949 . S
C1088 C1094 1.368 . S
C1089 C1073 1.349 . S
C1089 H1081 0.950 . S
C1089 C1087 1.327 . S
C1090 C1078 1.349 . S
C1090 H1084 0.950 . S
C1090 C1091 1.327 . S
C1091 H1085 0.950 . S
C1091 C1090 1.327 . S
C1091 C1095 1.429 . S
C1092 C1075 1.574 . S
C1092 H1086 0.949 . S
C1092 C1096 1.368 . S
C1093 C1074 1.429 . S
C1093 C1087 1.429 . S
C1093 C1094 1.523 . S
C1094 C1075 1.368 . S
C1094 C1088 1.368 . S
C1094 C1093 1.523 . S
C1095 C1079 1.429 . S
C1095 C1091 1.429 . S
C1095 C1096 1.523 . S
C1096 C1080 1.368 . S
C1096 C1092 1.368 . S
C1096 C1095 1.523 . S
H1097 C1072 0.950 . S
H1098 C1074 0.950 . S
H1099 C1075 0.949 . S
H1100 C1077 0.950 . S
H1101 C1079 0.950 . S
C1102 C1103 1.349 . S
C1102 C1104 1.327 . S
C1102 H1127 0.950 . S
C1103 C1102 1.349 . S
C1103 C1119 1.349 . S
C1104 C1102 1.327 . S
C1104 C1123 1.429 . S
C1104 H1128 0.950 . S
C1105 C1122 1.574 . S
C1105 C1124 1.368 . S
C1105 H1129 0.949 . S
H1106 C1110 0.949 . S
C1107 C1108 1.349 . S
C1107 C1109 1.327 . S
C1107 H1130 0.950 . S
C1108 C1107 1.349 . S
C1108 C1120 1.349 . S
C1109 C1107 1.327 . S
C1109 C1125 1.429 . S
C1109 H1131 0.950 . S
C1110 H1106 0.949 . S
C1110 C1118 1.574 . S
C1110 C1126 1.368 . S
H1111 C1119 0.950 . S
H1112 C1117 0.950 . S
H1113 C1118 0.949 . S
H1114 C1120 0.950 . S
H1115 C1121 0.950 . S
H1116 C1122 0.949 . S
C1117 H1112 0.950 . S
C1117 C1119 1.327 . S
C1117 C1123 1.429 . S
C1118 C1110 1.574 . S
C1118 H1113 0.949 . S
C1118 C1124 1.368 . S
C1119 C1103 1.349 . S
C1119 H1111 0.950 . S
C1119 C1117 1.327 . S
C1120 C1108 1.349 . S
C1120 H1114 0.950 . S
C1120 C1121 1.327 . S
C1121 H1115 0.950 . S
C1121 C1120 1.327 . S
C1121 C1125 1.429 . S
C1122 C1105 1.574 . S
C1122 H1116 0.949 . S
C1122 C1126 1.368 . S
C1123 C1104 1.429 . S
C1123 C1117 1.429 . S
C1123 C1124 1.523 . S
C1124 C1105 1.368 . S
C1124 C1118 1.368 . S
C1124 C1123 1.523 . S
C1125 C1109 1.429 . S
C1125 C1121 1.429 . S
C1125 C1126 1.523 . S
C1126 C1110 1.368 . S
C1126 C1122 1.368 . S
C1126 C1125 1.523 . S
H1127 C1102 0.950 . S
H1128 C1104 0.950 . S
H1129 C1105 0.949 . S
H1130 C1107 0.950 . S
H1131 C1109 0.950 . S
C1132 C1133 1.349 . S
C1132 C1134 1.327 . S
C1132 H1157 0.950 . S
C1133 C1132 1.349 . S
C1133 C1149 1.349 . S
C1134 C1132 1.327 . S
C1134 C1153 1.429 . S
C1134 H1158 0.950 . S
C1135 C1152 1.574 . S
C1135 C1154 1.368 . S
C1135 H1159 0.949 . S
H1136 C1140 0.949 . S
C1137 C1138 1.349 . S
C1137 C1139 1.327 . S
C1137 H1160 0.950 . S
C1138 C1137 1.349 . S
C1138 C1150 1.349 . S
C1139 C1137 1.327 . S
C1139 C1155 1.429 . S
C1139 H1161 0.950 . S
C1140 H1136 0.949 . S
C1140 C1148 1.574 . S
C1140 C1156 1.368 . S
H1141 C1149 0.950 . S
H1142 C1147 0.950 . S
H1143 C1148 0.949 . S
H1144 C1150 0.950 . S
H1145 C1151 0.950 . S
H1146 C1152 0.949 . S
C1147 H1142 0.950 . S
C1147 C1149 1.327 . S
C1147 C1153 1.429 . S
C1148 C1140 1.574 . S
C1148 H1143 0.949 . S
C1148 C1154 1.368 . S
C1149 C1133 1.349 . S
C1149 H1141 0.950 . S
C1149 C1147 1.327 . S
C1150 C1138 1.349 . S
C1150 H1144 0.950 . S
C1150 C1151 1.327 . S
C1151 H1145 0.950 . S
C1151 C1150 1.327 . S
C1151 C1155 1.429 . S
C1152 C1135 1.574 . S
C1152 H1146 0.949 . S
C1152 C1156 1.368 . S
C1153 C1134 1.429 . S
C1153 C1147 1.429 . S
C1153 C1154 1.523 . S
C1154 C1135 1.368 . S
C1154 C1148 1.368 . S
C1154 C1153 1.523 . S
C1155 C1139 1.429 . S
C1155 C1151 1.429 . S
C1155 C1156 1.523 . S
C1156 C1140 1.368 . S
C1156 C1152 1.368 . S
C1156 C1155 1.523 . S
H1157 C1132 0.950 . S
H1158 C1134 0.950 . S
H1159 C1135 0.949 . S
H1160 C1137 0.950 . S
H1161 C1139 0.950 . S
C1162 C1163 1.349 . S
C1162 C1164 1.327 . S
C1162 H1187 0.950 . S
C1163 C1162 1.349 . S
C1163 C1179 1.349 . S
C1164 C1162 1.327 . S
C1164 C1183 1.429 . S
C1164 H1188 0.950 . S
C1165 C1182 1.574 . S
C1165 C1184 1.368 . S
C1165 H1189 0.949 . S
H1166 C1170 0.949 . S
C1167 C1168 1.349 . S
C1167 C1169 1.327 . S
C1167 H1190 0.950 . S
C1168 C1167 1.349 . S
C1168 C1180 1.349 . S
C1169 C1167 1.327 . S
C1169 C1185 1.429 . S
C1169 H1191 0.950 . S
C1170 H1166 0.949 . S
C1170 C1178 1.574 . S
C1170 C1186 1.368 . S
H1171 C1179 0.950 . S
H1172 C1177 0.950 . S
H1173 C1178 0.949 . S
H1174 C1180 0.950 . S
H1175 C1181 0.950 . S
H1176 C1182 0.949 . S
C1177 H1172 0.950 . S
C1177 C1179 1.327 . S
C1177 C1183 1.429 . S
C1178 C1170 1.574 . S
C1178 H1173 0.949 . S
C1178 C1184 1.368 . S
C1179 C1163 1.349 . S
C1179 H1171 0.950 . S
C1179 C1177 1.327 . S
C1180 C1168 1.349 . S
C1180 H1174 0.950 . S
C1180 C1181 1.327 . S
C1181 H1175 0.950 . S
C1181 C1180 1.327 . S
C1181 C1185 1.429 . S
C1182 C1165 1.574 . S
C1182 H1176 0.949 . S
C1182 C1186 1.368 . S
C1183 C1164 1.429 . S
C1183 C1177 1.429 . S
C1183 C1184 1.523 . S
C1184 C1165 1.368 . S
C1184 C1178 1.368 . S
C1184 C1183 1.523 . S
C1185 C1169 1.429 . S
C1185 C1181 1.429 . S
C1185 C1186 1.523 . S
C1186 C1170 1.368 . S
C1186 C1182 1.368 . S
C1186 C1185 1.523 . S
H1187 C1162 0.950 . S
H1188 C1164 0.950 . S
H1189 C1165 0.949 . S
H1190 C1167 0.950 . S
H1191 C1169 0.950 . S
C1192 C1193 1.349 . S
C1192 C1194 1.327 . S
C1192 H1217 0.950 . S
C1193 C1192 1.349 . S
C1193 C1209 1.349 . S
C1194 C1192 1.327 . S
C1194 C1213 1.429 . S
C1194 H1218 0.950 . S
C1195 C1212 1.574 . S
C1195 C1214 1.368 . S
C1195 H1219 0.949 . S
H1196 C1200 0.949 . S
C1197 C1198 1.349 . S
C1197 C1199 1.327 . S
C1197 H1220 0.950 . S
C1198 C1197 1.349 . S
C1198 C1210 1.349 . S
C1199 C1197 1.327 . S
C1199 C1215 1.429 . S
C1199 H1221 0.950 . S
C1200 H1196 0.949 . S
C1200 C1208 1.574 . S
C1200 C1216 1.368 . S
H1201 C1209 0.950 . S
H1202 C1207 0.950 . S
H1203 C1208 0.949 . S
H1204 C1210 0.950 . S
H1205 C1211 0.950 . S
H1206 C1212 0.949 . S
C1207 H1202 0.950 . S
C1207 C1209 1.327 . S
C1207 C1213 1.429 . S
C1208 C1200 1.574 . S
C1208 H1203 0.949 . S
C1208 C1214 1.368 . S
C1209 C1193 1.349 . S
C1209 H1201 0.950 . S
C1209 C1207 1.327 . S
C1210 C1198 1.349 . S
C1210 H1204 0.950 . S
C1210 C1211 1.327 . S
C1211 H1205 0.950 . S
C1211 C1210 1.327 . S
C1211 C1215 1.429 . S
C1212 C1195 1.574 . S
C1212 H1206 0.949 . S
C1212 C1216 1.368 . S
C1213 C1194 1.429 . S
C1213 C1207 1.429 . S
C1213 C1214 1.523 . S
C1214 C1195 1.368 . S
C1214 C1208 1.368 . S
C1214 C1213 1.523 . S
C1215 C1199 1.429 . S
C1215 C1211 1.429 . S
C1215 C1216 1.523 . S
C1216 C1200 1.368 . S
C1216 C1212 1.368 . S
C1216 C1215 1.523 . S
H1217 C1192 0.950 . S
H1218 C1194 0.950 . S
H1219 C1195 0.949 . S
H1220 C1197 0.950 . S
H1221 C1199 0.950 . S
C1222 C1223 1.349 . S
C1222 C1224 1.327 . S
C1222 H1247 0.950 . S
C1223 C1222 1.349 . S
C1223 C1239 1.349 . S
C1224 C1222 1.327 . S
C1224 C1243 1.429 . S
C1224 H1248 0.950 . S
C1225 C1242 1.574 . S
C1225 C1244 1.368 . S
C1225 H1249 0.949 . S
H1226 C1230 0.949 . S
C1227 C1228 1.349 . S
C1227 C1229 1.327 . S
C1227 H1250 0.950 . S
C1228 C1227 1.349 . S
C1228 C1240 1.349 . S
C1229 C1227 1.327 . S
C1229 C1245 1.429 . S
C1229 H1251 0.950 . S
C1230 H1226 0.949 . S
C1230 C1238 1.574 . S
C1230 C1246 1.368 . S
H1231 C1239 0.950 . S
H1232 C1237 0.950 . S
H1233 C1238 0.949 . S
H1234 C1240 0.950 . S
H1235 C1241 0.950 . S
H1236 C1242 0.949 . S
C1237 H1232 0.950 . S
C1237 C1239 1.327 . S
C1237 C1243 1.429 . S
C1238 C1230 1.574 . S
C1238 H1233 0.949 . S
C1238 C1244 1.368 . S
C1239 C1223 1.349 . S
C1239 H1231 0.950 . S
C1239 C1237 1.327 . S
C1240 C1228 1.349 . S
C1240 H1234 0.950 . S
C1240 C1241 1.327 . S
C1241 H1235 0.950 . S
C1241 C1240 1.327 . S
C1241 C1245 1.429 . S
C1242 C1225 1.574 . S
C1242 H1236 0.949 . S
C1242 C1246 1.368 . S
C1243 C1224 1.429 . S
C1243 C1237 1.429 . S
C1243 C1244 1.523 . S
C1244 C1225 1.368 . S
C1244 C1238 1.368 . S
C1244 C1243 1.523 . S
C1245 C1229 1.429 . S
C1245 C1241 1.429 . S
C1245 C1246 1.523 . S
C1246 C1230 1.368 . S
C1246 C1242 1.368 . S
C1246 C1245 1.523 . S
H1247 C1222 0.950 . S
H1248 C1224 0.950 . S
H1249 C1225 0.949 . S
H1250 C1227 0.950 . S
H1251 C1229 0.950 . S
C1252 C1253 1.349 . S
C1252 C1254 1.327 . S
C1252 H1277 0.950 . S
C1253 C1252 1.349 . S
C1253 C1269 1.349 . S
C1254 C1252 1.327 . S
C1254 C1273 1.429 . S
C1254 H1278 0.950 . S
C1255 C1272 1.574 . S
C1255 C1274 1.368 . S
C1255 H1279 0.949 . S
H1256 C1260 0.949 . S
C1257 C1258 1.349 . S
C1257 C1259 1.327 . S
C1257 H1280 0.950 . S
C1258 C1257 1.349 . S
C1258 C1270 1.349 . S
C1259 C1257 1.327 . S
C1259 C1275 1.429 . S
C1259 H1281 0.950 . S
C1260 H1256 0.949 . S
C1260 C1268 1.574 . S
C1260 C1276 1.368 . S
H1261 C1269 0.950 . S
H1262 C1267 0.950 . S
H1263 C1268 0.949 . S
H1264 C1270 0.950 . S
H1265 C1271 0.950 . S
H1266 C1272 0.949 . S
C1267 H1262 0.950 . S
C1267 C1269 1.327 . S
C1267 C1273 1.429 . S
C1268 C1260 1.574 . S
C1268 H1263 0.949 . S
C1268 C1274 1.368 . S
C1269 C1253 1.349 . S
C1269 H1261 0.950 . S
C1269 C1267 1.327 . S
C1270 C1258 1.349 . S
C1270 H1264 0.950 . S
C1270 C1271 1.327 . S
C1271 H1265 0.950 . S
C1271 C1270 1.327 . S
C1271 C1275 1.429 . S
C1272 C1255 1.574 . S
C1272 H1266 0.949 . S
C1272 C1276 1.368 . S
C1273 C1254 1.429 . S
C1273 C1267 1.429 . S
C1273 C1274 1.523 . S
C1274 C1255 1.368 . S
C1274 C1268 1.368 . S
C1274 C1273 1.523 . S
C1275 C1259 1.429 . S
C1275 C1271 1.429 . S
C1275 C1276 1.523 . S
C1276 C1260 1.368 . S
C1276 C1272 1.368 . S
C1276 C1275 1.523 . S
H1277 C1252 0.950 . S
H1278 C1254 0.950 . S
H1279 C1255 0.949 . S
H1280 C1257 0.950 . S
H1281 C1259 0.950 . S
C1282 C1283 1.349 . S
C1282 C1284 1.327 . S
C1282 H1307 0.950 . S
C1283 C1282 1.349 . S
C1283 C1299 1.349 . S
C1284 C1282 1.327 . S
C1284 C1303 1.429 . S
C1284 H1308 0.950 . S
C1285 C1302 1.574 . S
C1285 C1304 1.368 . S
C1285 H1309 0.949 . S
H1286 C1290 0.949 . S
C1287 C1288 1.349 . S
C1287 C1289 1.327 . S
C1287 H1310 0.956 . S
C1288 C1287 1.349 . S
C1288 C1300 1.349 . S
C1289 C1287 1.327 . S
C1289 C1305 1.429 . S
C1289 H1311 0.950 . S
C1290 H1286 0.949 . S
C1290 C1298 1.574 . S
C1290 C1306 1.368 . S
H1291 C1299 0.950 . S
H1292 C1297 0.950 . S
H1293 C1298 0.949 . S
H1294 C1300 0.950 . S
H1295 C1301 0.950 . S
H1296 C1302 0.949 . S
C1297 H1292 0.950 . S
C1297 C1299 1.327 . S
C1297 C1303 1.429 . S
C1298 C1290 1.574 . S
C1298 H1293 0.949 . S
C1298 C1304 1.368 . S
C1299 C1283 1.349 . S
C1299 H1291 0.950 . S
C1299 C1297 1.327 . S
C1300 C1288 1.349 . S
C1300 H1294 0.950 . S
C1300 C1301 1.327 . S
C1301 H1295 0.950 . S
C1301 C1300 1.327 . S
C1301 C1305 1.429 . S
C1302 C1285 1.574 . S
C1302 H1296 0.949 . S
C1302 C1306 1.368 . S
C1303 C1284 1.429 . S
C1303 C1297 1.429 . S
C1303 C1304 1.523 . S
C1304 C1285 1.368 . S
C1304 C1298 1.368 . S
C1304 C1303 1.523 . S
C1305 C1289 1.429 . S
C1305 C1301 1.429 . S
C1305 C1306 1.523 . S
C1306 C1290 1.368 . S
C1306 C1302 1.368 . S
C1306 C1305 1.523 . S
H1307 C1282 0.950 . S
H1308 C1284 0.950 . S
H1309 C1285 0.949 . S
H1310 C1287 0.956 . S
H1311 C1289 0.950 . S
C593 C221 1.467 . S
C598 C330 1.467 . S
C628 C414 1.469 . S
C623 C241 1.444 . S
C658 C407 1.473 . S
C653 C157 1.458 . S
C683 C177 1.433 . S
C688 C323 1.476 . S
C718 C487 1.467 . S
C713 C93 1.436 . S
C748 C571 1.469 . S
C743 C113 1.476 . S
C773 C29 1.423 . S
C778 C564 1.473 . S
C803 C49 1.469 . S
C808 C480 1.477 . S
C838 C314 1.345 . S
C833 C61 1.504 . S
C868 C398 1.349 . S
C863 C17 1.476 . S
C898 C409 1.398 . S
C893 C125 1.522 . S
C928 C325 1.399 . S
C923 C81 1.497 . S
C958 C493 1.344 . S
C953 C189 1.461 . S
C983 C145 1.508 . S
C988 C577 1.349 . S
C1018 C566 1.398 . S
C1013 C253 1.483 . S
C1043 C209 1.527 . S
C1048 C482 1.400 . S
C1078 C312 1.572 . S
C1073 C23 1.526 . S
C1108 C396 1.584 . S
C1103 C55 1.570 . S
C1133 C87 1.522 . S
C1138 C403 1.550 . S
C1168 C319 1.560 . S
C1163 C119 1.560 . S
C1198 C491 1.572 . S
C1193 C151 1.564 . S
C1223 C183 1.528 . S
C1228 C575 1.584 . S
C1253 C215 1.555 . S
C1258 C582 1.550 . S
C1283 C247 1.523 . S
C1288 C498 1.560 . S
