# Generated by pormake.
# Topology pyr, (3,6)-cn, num edge types: 1
# Building blocks:
#     Node 0, Type 0, BuildingBlock: ESEHIV_clean_linker_0, # of connection points: 3
#     Node 1, Type 0, BuildingBlock: ESEHIV_clean_linker_0, # of connection points: 3
#     Node 2, Type 0, BuildingBlock: ESEHIV_clean_linker_0, # of connection points: 3
#     Node 3, Type 0, BuildingBlock: ESEHIV_clean_linker_0, # of connection points: 3
#     Node 4, Type 0, BuildingBlock: ESEHIV_clean_linker_0, # of connection points: 3
#     Node 5, Type 0, BuildingBlock: ESEHIV_clean_linker_0, # of connection points: 3
#     Node 6, Type 0, BuildingBlock: ESEHIV_clean_linker_0, # of connection points: 3
#     Node 7, Type 0, BuildingBlock: ESEHIV_clean_linker_0, # of connection points: 3
#     Node 8, Type 1, BuildingBlock: PAMTUU_clean_sbu_0, # of connection points: 6
#     Node 9, Type 1, BuildingBlock: PAMTUU_clean_sbu_0, # of connection points: 6
#     Node 10, Type 1, BuildingBlock: PAMTUU_clean_sbu_0, # of connection points: 6
#     Node 11, Type 1, BuildingBlock: PAMTUU_clean_sbu_0, # of connection points: 6
#     Edge 12, Type (0, 1), BuildingBlock: OJICUG_clean_linker_0, # of connection points: 2
#     Edge 13, Type (0, 1), BuildingBlock: OJICUG_clean_linker_0, # of connection points: 2
#     Edge 14, Type (0, 1), BuildingBlock: OJICUG_clean_linker_0, # of connection points: 2
#     Edge 15, Type (0, 1), BuildingBlock: OJICUG_clean_linker_0, # of connection points: 2
#     Edge 16, Type (0, 1), BuildingBlock: OJICUG_clean_linker_0, # of connection points: 2
#     Edge 17, Type (0, 1), BuildingBlock: OJICUG_clean_linker_0, # of connection points: 2
#     Edge 18, Type (0, 1), BuildingBlock: OJICUG_clean_linker_0, # of connection points: 2
#     Edge 19, Type (0, 1), BuildingBlock: OJICUG_clean_linker_0, # of connection points: 2
#     Edge 20, Type (0, 1), BuildingBlock: OJICUG_clean_linker_0, # of connection points: 2
#     Edge 21, Type (0, 1), BuildingBlock: OJICUG_clean_linker_0, # of connection points: 2
#     Edge 22, Type (0, 1), BuildingBlock: OJICUG_clean_linker_0, # of connection points: 2
#     Edge 23, Type (0, 1), BuildingBlock: OJICUG_clean_linker_0, # of connection points: 2
#     Edge 24, Type (0, 1), BuildingBlock: OJICUG_clean_linker_0, # of connection points: 2
#     Edge 25, Type (0, 1), BuildingBlock: OJICUG_clean_linker_0, # of connection points: 2
#     Edge 26, Type (0, 1), BuildingBlock: OJICUG_clean_linker_0, # of connection points: 2
#     Edge 27, Type (0, 1), BuildingBlock: OJICUG_clean_linker_0, # of connection points: 2
#     Edge 28, Type (0, 1), BuildingBlock: OJICUG_clean_linker_0, # of connection points: 2
#     Edge 29, Type (0, 1), BuildingBlock: OJICUG_clean_linker_0, # of connection points: 2
#     Edge 30, Type (0, 1), BuildingBlock: OJICUG_clean_linker_0, # of connection points: 2
#     Edge 31, Type (0, 1), BuildingBlock: OJICUG_clean_linker_0, # of connection points: 2
#     Edge 32, Type (0, 1), BuildingBlock: OJICUG_clean_linker_0, # of connection points: 2
#     Edge 33, Type (0, 1), BuildingBlock: OJICUG_clean_linker_0, # of connection points: 2
#     Edge 34, Type (0, 1), BuildingBlock: OJICUG_clean_linker_0, # of connection points: 2
#     Edge 35, Type (0, 1), BuildingBlock: OJICUG_clean_linker_0, # of connection points: 2
# Relax obj value: 0.220
# Max RMSD: 0.169
# Mean RMSD: 0.070
data_MOF--net-pyr--node1-PAMTUU_clean_sbu_0--node2-ESEHIV_clean_linker_0--edge1-OJICUG_clean_linker_0
_symmetry_space_group_name_H-M    P1
_symmetry_Int_Tables_number       1
_symmetry_cell_setting            triclinic
loop_
_symmetry_equiv_pos_as_xyz
'x, y, z'
_cell_length_a     26.342821
_cell_length_b     26.225811
_cell_length_c     23.504494
_cell_angle_alpha  89.860986
_cell_angle_beta   89.998134
_cell_angle_gamma 103.60237
loop_
_atom_site_label
_atom_site_type_symbol
_atom_site_fract_x
_atom_site_fract_y
_atom_site_fract_z
_atom_type_partial_charge
H0 H 0.35974 0.36882 0.3927 0.0
H1 H 0.48947 0.29912 0.36364 0.0
H2 H 0.40653 0.34455 0.2225 0.0
C3 C 0.38853 0.35942 0.36425 0.0
C4 C 0.3815 0.3643 0.3054 0.0
C5 C 0.42617 0.3343 0.38591 0.0
C6 C 0.46086 0.31922 0.34761 0.0
C7 C 0.4518 0.31962 0.28883 0.0
C8 C 0.41377 0.34456 0.26789 0.0
H9 H 0.05335 0.82475 0.86353 0.0
H10 H 0.18483 0.75726 0.8925 0.0
H11 H 0.14461 0.79196 0.72296 0.0
C12 C 0.08356 0.8069 0.84736 0.0
C13 C 0.09501 0.81049 0.78896 0.0
C14 C 0.1175 0.79065 0.88585 0.0
C15 C 0.1568 0.76793 0.86391 0.0
C16 C 0.16653 0.76734 0.80522 0.0
C17 C 0.13521 0.78863 0.76791 0.0
H18 H 0.71216 0.35535 1.02485 0.0
H19 H 0.72956 0.48768 0.91124 0.0
H20 H 0.59911 0.35433 0.89384 0.0
C21 C 0.6995 0.37434 0.98838 0.0
C22 C 0.6541 0.34794 0.95969 0.0
C23 C 0.72778 0.42472 0.97174 0.0
C24 C 0.70791 0.44971 0.92609 0.0
C25 C 0.66108 0.4252 0.89777 0.0
C26 C 0.63473 0.37408 0.91515 0.0
H27 H 0.82342 0.77706 0.51532 0.0
H28 H 0.93909 0.78012 0.38566 0.0
H29 H 0.81282 0.64311 0.40665 0.0
C30 C 0.83794 0.75838 0.4798 0.0
C31 C 0.81146 0.70732 0.46388 0.0
C32 C 0.88363 0.7854 0.45186 0.0
C33 C 0.90387 0.75981 0.4075 0.0
C34 C 0.87899 0.70805 0.39119 0.0
C35 C 0.83288 0.68218 0.41992 0.0
H36 H 0.55229 0.82492 0.86601 0.0
H37 H 0.68284 0.75429 0.84182 0.0
H38 H 0.63482 0.78312 1.00923 0.0
C39 C 0.5819 0.80669 0.88246 0.0
C40 C 0.59073 0.80824 0.94149 0.0
C41 C 0.61606 0.78943 0.84474 0.0
C42 C 0.65402 0.7655 0.86856 0.0
C43 C 0.6611 0.76297 0.92756 0.0
C44 C 0.62831 0.78324 0.96372 0.0
H45 H 0.85968 0.37011 0.3423 0.0
H46 H 0.98937 0.2998 0.3681 0.0
H47 H 0.9147 0.35365 0.51096 0.0
C48 C 0.8895 0.36144 0.36986 0.0
C49 C 0.885 0.36841 0.42871 0.0
C50 C 0.92636 0.33576 0.34746 0.0
C51 C 0.96178 0.32061 0.38492 0.0
C52 C 0.95537 0.32314 0.44408 0.0
C53 C 0.91922 0.35039 0.46541 0.0
H54 H 0.32608 0.77423 0.2341 0.0
H55 H 0.31153 0.64012 0.34394 0.0
H56 H 0.43848 0.7761 0.367 0.0
C57 C 0.33954 0.75544 0.2703 0.0
C58 C 0.3847 0.78215 0.2994 0.0
C59 C 0.31191 0.70469 0.28615 0.0
C60 C 0.33224 0.67906 0.33076 0.0
C61 C 0.3781 0.70441 0.36025 0.0
C62 C 0.40371 0.75612 0.3443 0.0
H63 H 0.09864 0.35769 0.85839 0.0
H64 H 0.21019 0.35988 0.72544 0.0
H65 H 0.22917 0.49112 0.83967 0.0
C66 C 0.13398 0.37757 0.83659 0.0
C67 C 0.16045 0.42873 0.85363 0.0
C68 C 0.15295 0.35159 0.79178 0.0
C69 C 0.19795 0.37835 0.76243 0.0
C70 C 0.22689 0.42824 0.7793 0.0
C71 C 0.20729 0.45324 0.82501 0.0
Tb72 Tb 0.07845 0.07255 0.59704 0.0
Tb73 Tb 0.96185 1.05951 0.65348 0.0
C74 C 0.98112 0.98839 0.55108 0.0
C75 C 0.21745 0.12449 0.55943 0.0
C76 C 0.30839 0.20512 0.54668 0.0
C77 C 0.31158 0.15513 0.56587 0.0
C78 C 0.26645 0.11509 0.57188 0.0
C79 C 0.21361 0.17529 0.54475 0.0
C80 C 0.25874 0.21525 0.53819 0.0
C81 C 0.1709 0.08112 0.56349 0.0
O82 O 0.04303 0.12639 0.5479 0.0
O83 O 0.97882 0.13442 0.61122 0.0
O84 O 1.01532 0.11474 0.70963 0.0
O85 O 0.08655 0.14115 0.65014 0.0
O86 O 0.88559 0.06778 0.6417 0.0
O87 O 0.90946 1.03976 0.7219 0.0
O88 O 0.98606 0.98819 0.67544 0.0
O89 O 0.07224 1.02822 0.67563 0.0
O90 O 0.03155 0.99988 0.56143 0.0
O91 O 0.95046 1.01629 0.57312 0.0
C92 C 1.0073 0.15025 0.56608 0.0
O93 O 0.15518 0.06836 0.61509 0.0
O94 O 0.13204 0.08223 0.52934 0.0
C95 C 0.06027 0.14719 0.69612 0.0
C96 C 0.82231 1.00711 0.69246 0.0
C97 C 0.72915 0.9281 0.69805 0.0
C98 C 0.73679 0.97298 0.73295 0.0
C99 C 0.78274 1.01202 0.72997 0.0
C100 C 0.81496 0.96339 0.65634 0.0
C101 C 0.7686 0.92415 0.65901 0.0
C102 C 0.87064 1.04831 0.69166 0.0
C103 C 0.03438 0.98744 0.68713 0.0
H104 H 0.34915 0.14626 0.57345 0.0
H105 H 0.26992 0.07635 0.58476 0.0
H106 H 0.17592 0.18366 0.53642 0.0
H107 H 0.25473 0.25304 0.52273 0.0
H108 H 0.70842 0.97708 0.76489 0.0
H109 H 0.78786 1.04558 0.75803 0.0
H110 H 0.8453 0.95927 0.62681 0.0
H111 H 0.76419 0.89035 0.63148 0.0
Tb112 Tb 0.57778 0.06854 0.14955 0.0
Tb113 Tb 0.46055 1.05454 1.09473 0.0
C114 C 0.53283 0.97825 1.06344 0.0
C115 C 0.71674 0.12673 0.18032 0.0
C116 C 0.80763 0.20822 0.18679 0.0
C117 C 0.81036 0.15799 0.16815 0.0
C118 C 0.76528 0.1175 0.16539 0.0
C119 C 0.7131 0.17792 0.19341 0.0
C120 C 0.75819 0.2183 0.19681 0.0
C121 C 0.67069 0.08249 0.18254 0.0
O122 O 0.58655 0.11136 1.0687 0.0
O123 O 0.50561 0.12828 1.05935 0.0
O124 O 0.46696 0.10244 0.17073 0.0
O125 O 0.5542 0.13966 0.17254 0.0
O126 O 0.40653 1.0431 1.02735 0.0
O127 O 0.3833 1.05649 1.11313 0.0
O128 O 0.4537 0.98746 0.15033 0.0
O129 O 0.52557 1.01501 0.20849 0.0
O130 O 0.55943 0.99263 1.11001 0.0
O131 O 0.49791 1.00288 1.04457 0.0
C132 C 0.55596 0.1403 1.04868 0.0
O133 O 0.63227 0.08749 0.21573 0.0
O134 O 0.6543 1.06226 0.13339 0.0
C135 C 0.50607 0.14177 0.18333 0.0
C136 C 0.32181 0.99874 1.05845 0.0
C137 C 0.23207 0.91627 1.04797 0.0
C138 C 0.22823 0.96538 1.06898 0.0
C139 C 0.27273 1.00632 1.07386 0.0
C140 C 0.32649 0.94874 1.0418 0.0
C141 C 0.28195 0.90789 1.03637 0.0
C142 C 0.36756 1.04312 1.06174 0.0
C143 C 0.48016 0.98271 0.19659 0.0
H144 H 0.84772 0.14917 0.15925 0.0
H145 H 0.7686 0.07845 0.15375 0.0
H146 H 0.67577 0.18627 0.20362 0.0
H147 H 0.75448 0.25629 0.21173 0.0
H148 H 0.19051 0.97293 1.07888 0.0
H149 H 0.26865 1.04438 1.08827 0.0
H150 H 0.36427 0.9417 1.03112 0.0
H151 H 0.28643 0.87084 1.01941 0.0
Tb152 Tb 0.52222 0.51374 0.58853 0.0
Tb153 Tb 0.52539 0.61926 0.66493 0.0
C154 C 0.46907 0.60464 0.54492 0.0
C155 C 0.5843 0.42159 0.51744 0.0
C156 C 0.68487 0.40617 0.49379 0.0
C157 C 0.649 0.40668 0.44956 0.0
C158 C 0.59912 0.41409 0.46132 0.0
C159 C 0.61972 0.41994 0.56185 0.0
C160 C 0.66931 0.41183 0.55016 0.0
C161 C 0.53552 0.43865 0.52816 0.0
O162 O 0.60272 0.56006 0.58861 0.0
O163 O 0.5881 0.64139 0.6026 0.0
O164 O 0.57756 0.57773 0.70896 0.0
O165 O 0.54349 0.49513 0.67428 0.0
O166 O 0.53636 0.70114 0.6708 0.0
O167 O 0.51842 0.65222 0.74525 0.0
O168 O 0.45379 0.56369 0.69031 0.0
O169 O 0.44263 0.49823 0.62244 0.0
O170 O 0.49137 0.56612 0.53237 0.0
O171 O 0.47063 0.62403 0.59661 0.0
C172 C 0.61732 0.61115 0.58298 0.0
O173 O 0.51663 0.43267 0.57968 0.0
O174 O 0.53534 0.48482 0.50792 0.0
C175 C 0.57166 0.52642 0.71196 0.0
C176 C 0.47219 0.71813 0.73411 0.0
C177 C 0.37207 0.73647 0.75352 0.0
C178 C 0.40261 0.72592 0.79922 0.0
C179 C 0.45228 0.71709 0.78962 0.0
C180 C 0.44261 0.73112 0.68875 0.0
C181 C 0.39321 0.74036 0.6984 0.0
C182 C 0.51928 0.69801 0.72307 0.0
C183 C 0.42576 0.52107 0.66627 0.0
H184 H 0.65968 0.40174 0.40576 0.0
H185 H 0.57273 0.41578 0.42636 0.0
H186 H 0.60982 0.42665 0.60549 0.0
H187 H 0.69618 0.41186 0.58505 0.0
H188 H 0.38772 0.72366 0.84234 0.0
H189 H 0.47422 0.70719 0.8253 0.0
H190 H 0.45656 0.73202 0.64535 0.0
H191 H 0.37065 0.74833 0.66233 0.0
Tb192 Tb 0.02299 0.6209 1.08599 0.0
Tb193 Tb 0.02031 0.51563 0.16315 0.0
C194 C 0.0706 0.52908 1.03947 0.0
C195 C 0.96507 0.71536 1.01409 0.0
C196 C 0.86421 0.73036 0.99001 0.0
C197 C 0.89741 0.72215 0.94577 0.0
C198 C 0.94738 0.71496 0.95769 0.0
C199 C 0.93247 0.72523 1.05817 0.0
C200 C 0.88277 0.73288 1.04622 0.0
C201 C 1.01374 0.6984 1.02701 0.0
O202 O 0.95314 0.56343 1.05952 0.0
O203 O 0.94048 0.50115 0.13094 0.0
O204 O 0.99204 0.56914 0.21986 0.0
O205 O 0.96873 0.62513 0.155 0.0
O206 O 1.01102 0.43404 0.17208 0.0
O207 O 0.03484 0.48595 0.24301 0.0
O208 O 0.10104 0.56115 0.16264 0.0
O209 O 0.08808 0.64305 0.14591 0.0
O210 O 0.07569 0.58031 1.04182 0.0
O211 O 0.04288 0.49763 1.07758 0.0
C212 C 0.92444 0.52208 1.0853 0.0
O213 O 0.02944 0.70224 1.07981 0.0
O214 O 1.01641 0.65349 1.00517 0.0
C215 C 0.96898 0.6071 0.20719 0.0
C216 C 0.07953 0.41976 0.23087 0.0
C217 C 0.17973 0.40188 0.24948 0.0
C218 C 0.14581 0.40298 0.29544 0.0
C219 C 0.09603 0.41157 0.28617 0.0
C220 C 0.11286 0.41715 0.18473 0.0
C221 C 0.16231 0.40779 0.19395 0.0
C222 C 0.03187 0.43923 0.2227 0.0
C223 C 0.11666 0.61234 0.16647 0.0
H224 H 0.88457 0.72087 0.90191 0.0
H225 H 0.97155 0.70726 0.92295 0.0
H226 H 0.9445 0.72528 1.1022 0.0
H227 H 0.85815 0.73891 1.08127 0.0
H228 H 0.15811 0.39787 0.33865 0.0
H229 H 0.07122 0.41398 0.32237 0.0
H230 H 0.10162 0.42437 0.14167 0.0
H231 H 0.18775 0.40733 0.15783 0.0
C232 C 0.41932 0.25553 0.44795 0.0
C233 C 0.41682 0.30846 0.44291 0.0
H234 H 0.38692 0.18129 0.4854 0.0
C235 C 0.39131 0.3299 0.48623 0.0
H236 H 0.43868 0.23683 0.41642 0.0
C237 C 0.36004 0.2969 0.52594 0.0
C238 C 0.35528 0.2424 0.52374 0.0
H239 H 0.3905 0.37099 0.48542 0.0
H240 H 0.33586 0.31329 0.55456 0.0
C241 C 0.38897 0.22295 0.48802 0.0
C242 C 0.15097 0.79165 0.98651 0.0
C243 C 0.12442 0.81356 0.94436 0.0
H244 H 0.20744 0.80786 1.05378 0.0
C245 C 0.11956 0.8655 0.95209 0.0
H246 H 0.1532 0.75101 0.98407 0.0
C247 C 0.14958 0.89754 0.99266 0.0
C248 C 0.18509 0.87842 1.02623 0.0
H249 H 0.09889 0.88443 0.922 0.0
H250 H 0.15008 0.93894 0.99175 0.0
C251 C 0.18199 0.82416 1.02662 0.0
C252 C 0.61599 0.42345 0.80216 0.0
C253 C 0.64008 0.45227 0.84938 0.0
H254 H 0.57634 0.42366 0.72279 0.0
C255 C 0.64303 0.50677 0.84999 0.0
H256 H 0.61382 0.38182 0.79897 0.0
C257 C 0.62169 0.53124 0.80542 0.0
C258 C 0.59667 0.50195 0.75892 0.0
H259 H 0.66085 0.53049 0.88558 0.0
H260 H 0.6241 0.57297 0.80791 0.0
C261 C 0.59464 0.44775 0.75794 0.0
C262 C 0.90725 0.62986 0.34968 0.0
C263 C 0.90076 0.68142 0.34359 0.0
H264 H 0.93426 0.56628 0.31223 0.0
C265 C 0.91565 0.70754 0.29167 0.0
H266 H 0.89642 0.60859 0.38909 0.0
C267 C 0.93643 0.68296 0.24721 0.0
C268 C 0.94399 0.63182 0.25364 0.0
H269 H 0.91086 0.74706 0.28523 0.0
H270 H 0.94766 0.7046 0.20812 0.0
C271 C 0.92911 0.60564 0.3056 0.0
C272 C 0.52069 0.27309 0.25747 0.0
C273 C 0.46954 0.28034 0.25335 0.0
H274 H 0.57267 0.22339 0.2384 0.0
C275 C 0.4319 0.24316 0.22352 0.0
H276 H 0.55035 0.3009 0.28066 0.0
C277 C 0.4442 0.19859 0.20079 0.0
C278 C 0.49462 0.19013 0.20676 0.0
H279 H 0.39186 0.24679 0.22057 0.0
H280 H 0.41374 0.17028 0.17922 0.0
C281 C 0.53327 0.22856 0.23383 0.0
C282 C 0.11335 0.89001 0.72748 0.0
C283 C 0.07629 0.85024 0.75489 0.0
H284 H 0.12933 0.96434 0.68579 0.0
C285 C 0.0241 0.85466 0.75764 0.0
H286 H 0.1541 0.8886 0.7257 0.0
C287 C 1.00979 0.89876 0.73481 0.0
C288 C 0.04766 0.93956 0.70992 0.0
H289 H 0.99481 0.8248 0.77896 0.0
H290 H 0.96955 0.90163 0.73818 0.0
C291 C 0.09929 0.9341 0.70555 0.0
C292 C 0.80897 0.41946 1.02843 0.0
C293 C 0.77808 0.45019 1.00194 0.0
H294 H 0.87779 0.41773 1.07678 0.0
C295 C 0.79591 0.50524 1.00509 0.0
H296 H 0.7985 0.37712 1.02591 0.0
C297 C 0.84299 0.5284 1.03265 0.0
C298 C 0.87296 0.4974 1.05946 0.0
H299 H 0.77353 0.53082 0.98666 0.0
H300 H 0.85582 0.57081 1.03335 0.0
C301 C 0.85506 0.4427 1.05757 0.0
C302 C 0.72599 0.7117 0.51029 0.0
C303 C 0.76116 0.68155 0.49323 0.0
H304 H 0.65432 0.71378 0.55204 0.0
C305 C 0.74812 0.62747 0.5058 0.0
H306 H 0.73361 0.75314 0.50035 0.0
C307 C 0.70175 0.60456 0.53512 0.0
C308 C 0.66726 0.63516 0.55293 0.0
H309 H 0.77414 0.60289 0.49389 0.0
H310 H 0.6931 0.56286 0.54406 0.0
C311 C 0.68008 0.68899 0.5399 0.0
C312 C 0.31497 0.4189 0.31275 0.0
C313 C 0.33354 0.37949 0.28477 0.0
H314 H 0.25166 0.45649 0.32381 0.0
C315 C 0.30234 0.35009 0.24203 0.0
H316 H 0.33818 0.44269 0.34537 0.0
C317 C 0.25304 0.35844 0.22936 0.0
C318 C 0.23354 0.39579 0.25966 0.0
H319 H 0.31467 0.31869 0.22031 0.0
H320 H 0.22921 0.33408 0.19758 0.0
C321 C 0.26539 0.42667 0.30065 0.0
C322 C 0.65789 0.25669 0.99082 0.0
C323 C 0.6278 0.29286 0.9769 0.0
H324 H 0.65926 0.18071 1.02335 0.0
C325 C 0.57315 0.27644 0.98213 0.0
H326 H 0.69999 0.26743 0.98637 0.0
C327 C 0.54955 0.22617 1.00312 0.0
C328 C 0.57996 0.19084 1.01917 0.0
H329 H 0.54868 0.30314 0.97212 0.0
H330 H 0.50755 0.21569 1.00849 0.0
C331 C 0.63439 0.20658 1.01164 0.0
C332 C 0.96432 0.8557 0.4774 0.0
C333 C 0.90979 0.84 0.47058 0.0
H334 H 0.0296 0.9145 0.50781 0.0
C335 C 0.87973 0.87582 0.48572 0.0
H336 H 0.98875 0.8292 0.4666 0.0
C337 C 0.90306 0.9247 0.50951 0.0
C338 C 0.95729 0.93946 0.51885 0.0
H339 H 0.83774 0.86566 0.48016 0.0
H340 H 0.87822 0.9503 0.52199 0.0
C341 C 0.98773 0.9047 0.5013 0.0
C342 C 0.2495 0.78898 0.7479 0.0
C343 C 0.21604 0.75493 0.78551 0.0
H344 H 0.32512 0.81029 0.70896 0.0
C345 C 0.23342 0.71302 0.80989 0.0
H346 H 0.23794 0.82234 0.72927 0.0
C347 C 0.28376 0.70672 0.79896 0.0
C348 C 0.31782 0.74194 0.76309 0.0
H349 H 0.20849 0.68589 0.83869 0.0
H350 H 0.29618 0.67442 0.81894 0.0
C351 C 0.29973 0.78243 0.73666 0.0
C352 C 0.60774 0.85667 0.76995 0.0
C353 C 0.62323 0.81027 0.7846 0.0
H354 H 0.62864 0.93053 0.7272 0.0
C355 C 0.65919 0.79471 0.74779 0.0
H356 H 0.57719 0.86953 0.79215 0.0
C357 C 0.69101 0.83172 0.71224 0.0
C358 C 0.68403 0.88317 0.7098 0.0
H359 H 0.66805 0.75664 0.7518 0.0
H360 H 0.72447 0.82155 0.69263 0.0
C361 C 0.63775 0.89258 0.73229 0.0
C362 C 0.8905 0.33236 0.24759 0.0
C363 C 0.91622 0.31038 0.29042 0.0
H364 H 0.83501 0.3166 0.17935 0.0
C365 C 0.91901 0.25764 0.28457 0.0
H366 H 0.88952 0.37339 0.24899 0.0
C367 C 0.88887 0.22563 0.2441 0.0
C368 C 0.85491 0.24539 0.20892 0.0
H369 H 0.93848 0.23851 0.31569 0.0
H370 H 0.88708 0.18399 0.24617 0.0
C371 C 0.8594 0.29989 0.20751 0.0
C372 C 0.41366 0.70378 0.46019 0.0
C373 C 0.39902 0.67755 0.40841 0.0
H374 H 0.44606 0.7014 0.54359 0.0
C375 C 0.40584 0.62611 0.40271 0.0
H376 H 0.40862 0.74321 0.46635 0.0
C377 C 0.42808 0.60224 0.44692 0.0
C378 C 0.44307 0.62868 0.4986 0.0
H379 H 0.39522 0.6048 0.3634 0.0
H380 H 0.43365 0.56304 0.44051 0.0
C381 C 0.43488 0.67957 0.50474 0.0
C382 C 0.14227 0.51009 0.9014 0.0
C383 C 0.13961 0.45565 0.90215 0.0
H384 H 0.1229 0.57602 0.94328 0.0
C385 C 0.11573 0.42669 0.94955 0.0
H386 H 0.15994 0.53392 0.86569 0.0
C387 C 0.09421 0.45075 0.99374 0.0
C388 C 0.09587 0.50487 0.99258 0.0
H389 H 0.11377 0.38509 0.95289 0.0
H390 H 0.07602 0.42652 1.02895 0.0
C391 C 0.12075 0.53433 0.94593 0.0
C392 C 0.52259 0.85939 0.96683 0.0
C393 C 0.57122 0.84702 0.97697 0.0
H394 H 0.47214 0.91114 0.98542 0.0
C395 C 0.6054 0.87775 1.01629 0.0
H396 H 0.49504 0.83661 0.93705 0.0
C397 C 0.59212 0.91956 1.04389 0.0
C398 C 0.54444 0.93292 1.03283 0.0
H399 H 0.64393 0.87138 1.02415 0.0
H400 H 0.62038 0.94249 1.07296 0.0
C401 C 0.50946 0.9022 0.99426 0.0
C402 C 0.94083 0.25699 0.52263 0.0
C403 C 0.97459 0.28521 0.48115 0.0
H404 H 0.92428 0.193 0.58053 0.0
C405 C 0.02157 0.27001 0.46959 0.0
H406 H 0.90357 0.26579 0.53195 0.0
C407 C 0.03297 0.22627 0.49693 0.0
C408 C 0.99792 0.19736 0.53681 0.0
H409 H 0.04882 0.29096 0.43825 0.0
H410 H 0.0688 0.21488 0.4865 0.0
C411 C 0.95241 0.21414 0.55008 0.0
C412 C 0.22758 0.71129 0.23799 0.0
C413 C 0.26147 0.68003 0.25623 0.0
H414 H 0.15672 0.71517 0.19528 0.0
C415 C 0.24695 0.62591 0.24439 0.0
H416 H 0.23628 0.75285 0.24728 0.0
C417 C 0.20043 0.60404 0.21486 0.0
C418 C 0.16713 0.63565 0.19606 0.0
H419 H 0.27188 0.60044 0.25713 0.0
H420 H 0.19067 0.56223 0.2067 0.0
C421 C 0.18149 0.68958 0.20816 0.0
C422 C 0.30812 0.42092 0.72384 0.0
C423 C 0.27779 0.45267 0.7494 0.0
H424 H 0.37689 0.41718 0.6764 0.0
C425 C 0.29679 0.50753 0.74558 0.0
H426 H 0.29675 0.37861 0.72702 0.0
C427 C 0.34431 0.52953 0.71799 0.0
C428 C 0.37373 0.49752 0.69203 0.0
H429 H 0.27496 0.53381 0.76349 0.0
H430 H 0.35794 0.57186 0.71669 0.0
C431 C 0.35471 0.44298 0.69482 0.0
C432 C 0.74083 0.78192 0.99024 0.0
C433 C 0.70958 0.74955 0.94965 0.0
H434 H 0.81408 0.80167 1.03419 0.0
C435 C 0.72855 0.70877 0.92506 0.0
H436 H 0.72817 0.81442 1.00924 0.0
C437 C 0.77833 0.70209 0.93872 0.0
C438 C 0.81023 0.73573 0.97767 0.0
H439 H 0.7054 0.68284 0.89404 0.0
H440 H 0.79203 0.67077 0.91844 0.0
C441 C 0.7904 0.77495 1.00422 0.0
C442 C 0.38053 0.87183 0.26399 0.0
C443 C 0.41097 0.83722 0.28188 0.0
H444 H 0.37865 0.94457 0.22359 0.0
C445 C 0.46584 0.85477 0.27882 0.0
H446 H 0.33835 0.86075 0.26718 0.0
C447 C 0.4892 0.9041 0.25494 0.0
C448 C 0.45812 0.93655 0.23329 0.0
H449 H 0.49064 0.82935 0.29206 0.0
H450 H 0.53126 0.91532 0.25015 0.0
C451 C 0.40368 0.92032 0.23951 0.0
C452 C 0.07265 0.27726 0.7732 0.0
C453 C 0.12741 0.29609 0.77523 0.0
H454 H 1.00801 0.21466 0.74733 0.0
C455 C 0.15862 0.26198 0.75812 0.0
H456 H 0.04724 0.3022 0.78591 0.0
C457 C 0.13626 0.21257 0.73556 0.0
C458 C 0.08186 0.19486 0.73058 0.0
H459 H 0.2008 0.27402 0.76066 0.0
H460 H 0.16183 0.18867 0.72031 0.0
C461 C 0.05008 0.227 0.75127 0.0
C462 C 0.81718 0.42196 0.42268 0.0
C463 C 0.8377 0.38396 0.45112 0.0
H464 H 0.75287 0.45856 0.4137 0.0
C465 C 0.80888 0.35603 0.49651 0.0
H466 H 0.83848 0.44462 0.388 0.0
C467 C 0.76004 0.36437 0.51146 0.0
C468 C 0.7385 0.40033 0.48098 0.0
H469 H 0.82268 0.32569 0.51874 0.0
H470 H 0.73809 0.34098 0.54529 0.0
C471 C 0.76805 0.42979 0.43719 0.0
loop_
_geom_bond_atom_site_label_1
_geom_bond_atom_site_label_2
_geom_bond_distance
_geom_bond_site_symmetry_2
_ccdc_geom_bond_type
H0 C3 0.931 . S
H1 C6 0.928 . S
H2 C8 0.930 . S
C3 H0 0.931 . S
C3 C4 1.413 . S
C3 C5 1.360 . S
C4 C3 1.413 . S
C4 C8 1.429 . S
C5 C3 1.360 . S
C5 C6 1.372 . S
C6 H1 0.928 . S
C6 C5 1.372 . S
C6 C7 1.404 . S
C7 C6 1.404 . S
C7 C8 1.391 . S
C8 H2 0.930 . S
C8 C4 1.429 . S
C8 C7 1.391 . S
H9 C12 0.931 . S
H10 C15 0.928 . S
H11 C17 0.930 . S
C12 H9 0.931 . S
C12 C13 1.413 . S
C12 C14 1.360 . S
C13 C12 1.413 . S
C13 C17 1.429 . S
C14 C12 1.360 . S
C14 C15 1.372 . S
C15 H10 0.928 . S
C15 C14 1.372 . S
C15 C16 1.404 . S
C16 C15 1.404 . S
C16 C17 1.391 . S
C17 H11 0.930 . S
C17 C13 1.429 . S
C17 C16 1.391 . S
H18 C21 0.931 . S
H19 C24 0.928 . S
H20 C26 0.930 . S
C21 H18 0.931 . S
C21 C22 1.413 . S
C21 C23 1.360 . S
C22 C21 1.413 . S
C22 C26 1.429 . S
C23 C21 1.360 . S
C23 C24 1.372 . S
C24 H19 0.928 . S
C24 C23 1.372 . S
C24 C25 1.404 . S
C25 C24 1.404 . S
C25 C26 1.391 . S
C26 H20 0.930 . S
C26 C22 1.429 . S
C26 C25 1.391 . S
H27 C30 0.931 . S
H28 C33 0.928 . S
H29 C35 0.930 . S
C30 H27 0.931 . S
C30 C31 1.413 . S
C30 C32 1.360 . S
C31 C30 1.413 . S
C31 C35 1.429 . S
C32 C30 1.360 . S
C32 C33 1.372 . S
C33 H28 0.928 . S
C33 C32 1.372 . S
C33 C34 1.404 . S
C34 C33 1.404 . S
C34 C35 1.391 . S
C35 H29 0.930 . S
C35 C31 1.429 . S
C35 C34 1.391 . S
H36 C39 0.931 . S
H37 C42 0.928 . S
H38 C44 0.930 . S
C39 H36 0.931 . S
C39 C40 1.413 . S
C39 C41 1.360 . S
C40 C39 1.413 . S
C40 C44 1.429 . S
C41 C39 1.360 . S
C41 C42 1.372 . S
C42 H37 0.928 . S
C42 C41 1.372 . S
C42 C43 1.404 . S
C43 C42 1.404 . S
C43 C44 1.391 . S
C44 H38 0.930 . S
C44 C40 1.429 . S
C44 C43 1.391 . S
H45 C48 0.931 . S
H46 C51 0.928 . S
H47 C53 0.930 . S
C48 H45 0.931 . S
C48 C49 1.413 . S
C48 C50 1.360 . S
C49 C48 1.413 . S
C49 C53 1.429 . S
C50 C48 1.360 . S
C50 C51 1.372 . S
C51 H46 0.928 . S
C51 C50 1.372 . S
C51 C52 1.404 . S
C52 C51 1.404 . S
C52 C53 1.391 . S
C53 H47 0.930 . S
C53 C49 1.429 . S
C53 C52 1.391 . S
H54 C57 0.931 . S
H55 C60 0.928 . S
H56 C62 0.930 . S
C57 H54 0.931 . S
C57 C58 1.413 . S
C57 C59 1.360 . S
C58 C57 1.413 . S
C58 C62 1.429 . S
C59 C57 1.360 . S
C59 C60 1.372 . S
C60 H55 0.928 . S
C60 C59 1.372 . S
C60 C61 1.404 . S
C61 C60 1.404 . S
C61 C62 1.391 . S
C62 H56 0.930 . S
C62 C58 1.429 . S
C62 C61 1.391 . S
H63 C66 0.931 . S
H64 C69 0.928 . S
H65 C71 0.930 . S
C66 H63 0.931 . S
C66 C67 1.413 . S
C66 C68 1.360 . S
C67 C66 1.413 . S
C67 C71 1.429 . S
C68 C66 1.360 . S
C68 C69 1.372 . S
C69 H64 0.928 . S
C69 C68 1.372 . S
C69 C70 1.404 . S
C70 C69 1.404 . S
C70 C71 1.391 . S
C71 H65 0.930 . S
C71 C67 1.429 . S
C71 C70 1.391 . S
Tb72 C81 2.764 . S
Tb72 O82 2.325 . S
Tb72 O85 2.303 . S
Tb72 O89 2.322 1_545 S
Tb72 O90 2.349 1_545 S
Tb72 O93 2.415 . S
Tb72 O94 2.399 . S
Tb73 O83 2.322 . S
Tb73 O84 2.349 . S
Tb73 O86 2.415 1_545 S
Tb73 O87 2.399 1_545 S
Tb73 O88 2.340 1_545 S
Tb73 O91 2.303 1_545 S
Tb73 C102 2.764 1_545 S
C74 O90 1.261 1_655 S
C74 O91 1.257 . S
C75 C78 1.358 . S
C75 C79 1.332 . S
C75 C81 1.504 . S
C76 C77 1.373 . S
C76 C80 1.308 . S
C77 C76 1.373 . S
C77 C78 1.429 . S
C77 H104 0.932 . S
C78 C75 1.358 . S
C78 C77 1.429 . S
C78 H105 0.930 . S
C79 C75 1.332 . S
C79 C80 1.394 . S
C79 H106 0.932 . S
C80 C76 1.308 . S
C80 C79 1.394 . S
C80 H107 0.929 . S
C81 Tb72 2.764 . S
C81 C75 1.504 . S
C81 O93 1.239 . S
C81 O94 1.263 . S
O82 Tb72 2.325 . S
O82 C92 1.236 1_455 S
O83 Tb73 2.322 . S
O83 C92 1.257 . S
O84 Tb73 2.349 . S
O84 C95 1.261 1_655 S
O85 Tb72 2.303 . S
O85 C95 1.257 . S
O86 Tb73 2.415 1_565 S
O86 C102 1.239 . S
O87 Tb73 2.399 1_565 S
O87 C102 1.263 . S
O88 Tb73 2.340 1_565 S
O88 C103 1.220 1_655 S
O89 Tb72 2.322 1_565 S
O89 C103 1.257 . S
O90 Tb72 2.349 1_565 S
O90 C74 1.261 1_455 S
O91 Tb73 2.303 1_565 S
O91 C74 1.257 . S
C92 O82 1.236 1_655 S
C92 O83 1.257 . S
O93 Tb72 2.415 . S
O93 C81 1.239 . S
O94 Tb72 2.399 . S
O94 C81 1.263 . S
C95 O84 1.261 1_455 S
C95 O85 1.257 . S
C96 C99 1.358 . S
C96 C100 1.332 . S
C96 C102 1.504 . S
C97 C98 1.373 . S
C97 C101 1.308 . S
C98 C97 1.373 . S
C98 C99 1.429 . S
C98 H108 0.932 . S
C99 C96 1.358 . S
C99 C98 1.429 . S
C99 H109 0.930 . S
C100 C96 1.332 . S
C100 C101 1.394 . S
C100 H110 0.932 . S
C101 C97 1.308 . S
C101 C100 1.394 . S
C101 H111 0.929 . S
C102 Tb73 2.764 1_565 S
C102 O86 1.239 . S
C102 O87 1.263 . S
C102 C96 1.504 . S
C103 O88 1.220 1_455 S
C103 O89 1.257 . S
H104 C77 0.932 . S
H105 C78 0.930 . S
H106 C79 0.932 . S
H107 C80 0.929 . S
H108 C98 0.932 . S
H109 C99 0.930 . S
H110 C100 0.932 . S
H111 C101 0.929 . S
Tb112 C121 2.764 . S
Tb112 O122 2.325 1_554 S
Tb112 O125 2.303 . S
Tb112 O129 2.322 1_545 S
Tb112 O130 2.349 1_544 S
Tb112 O133 2.415 . S
Tb112 O134 2.399 . S
Tb113 O123 2.322 1_565 S
Tb113 O124 2.349 1_566 S
Tb113 O126 2.416 . S
Tb113 O127 2.399 . S
Tb113 O128 2.325 1_556 S
Tb113 O131 2.304 . S
Tb113 C142 2.765 . S
C114 O130 1.261 . S
C114 O131 1.257 . S
C115 C118 1.358 . S
C115 C119 1.332 . S
C115 C121 1.504 . S
C116 C117 1.373 . S
C116 C120 1.308 . S
C117 C116 1.373 . S
C117 C118 1.429 . S
C117 H144 0.932 . S
C118 C115 1.358 . S
C118 C117 1.429 . S
C118 H145 0.930 . S
C119 C115 1.332 . S
C119 C120 1.394 . S
C119 H146 0.932 . S
C120 C116 1.308 . S
C120 C119 1.394 . S
C120 H147 0.929 . S
C121 Tb112 2.764 . S
C121 C115 1.504 . S
C121 O133 1.239 . S
C121 O134 1.263 . S
O122 Tb112 2.325 1_556 S
O122 C132 1.236 . S
O123 Tb113 2.322 1_545 S
O123 C132 1.257 . S
O124 Tb113 2.349 1_544 S
O124 C135 1.261 . S
O125 Tb112 2.303 . S
O125 C135 1.257 . S
O126 Tb113 2.416 . S
O126 C142 1.239 . S
O127 Tb113 2.399 . S
O127 C142 1.263 . S
O128 Tb113 2.325 1_554 S
O128 C143 1.236 . S
O129 Tb112 2.322 1_565 S
O129 C143 1.257 . S
O130 Tb112 2.349 1_566 S
O130 C114 1.261 . S
O131 Tb113 2.304 . S
O131 C114 1.257 . S
C132 O122 1.236 . S
C132 O123 1.257 . S
O133 Tb112 2.415 . S
O133 C121 1.239 . S
O134 Tb112 2.399 . S
O134 C121 1.263 . S
C135 O124 1.261 . S
C135 O125 1.257 . S
C136 C139 1.358 . S
C136 C140 1.332 . S
C136 C142 1.504 . S
C137 C138 1.373 . S
C137 C141 1.308 . S
C138 C137 1.373 . S
C138 C139 1.429 . S
C138 H148 0.932 . S
C139 C136 1.358 . S
C139 C138 1.429 . S
C139 H149 0.930 . S
C140 C136 1.332 . S
C140 C141 1.394 . S
C140 H150 0.932 . S
C141 C137 1.308 . S
C141 C140 1.394 . S
C141 H151 0.929 . S
C142 Tb113 2.765 . S
C142 O126 1.239 . S
C142 O127 1.263 . S
C142 C136 1.504 . S
C143 O128 1.236 . S
C143 O129 1.257 . S
H144 C117 0.932 . S
H145 C118 0.930 . S
H146 C119 0.932 . S
H147 C120 0.929 . S
H148 C138 0.932 . S
H149 C139 0.930 . S
H150 C140 0.932 . S
H151 C141 0.929 . S
Tb152 C161 2.764 . S
Tb152 O162 2.325 . S
Tb152 O165 2.303 . S
Tb152 O169 2.322 . S
Tb152 O170 2.349 . S
Tb152 O173 2.415 . S
Tb152 O174 2.399 . S
Tb153 O163 2.322 . S
Tb153 O164 2.349 . S
Tb153 O166 2.415 . S
Tb153 O167 2.399 . S
Tb153 O168 2.325 . S
Tb153 O171 2.303 . S
Tb153 C182 2.764 . S
C154 O170 1.261 . S
C154 O171 1.257 . S
C155 C158 1.358 . S
C155 C159 1.332 . S
C155 C161 1.504 . S
C156 C157 1.373 . S
C156 C160 1.308 . S
C157 C156 1.373 . S
C157 C158 1.429 . S
C157 H184 0.932 . S
C158 C155 1.358 . S
C158 C157 1.429 . S
C158 H185 0.930 . S
C159 C155 1.332 . S
C159 C160 1.394 . S
C159 H186 0.932 . S
C160 C156 1.308 . S
C160 C159 1.394 . S
C160 H187 0.929 . S
C161 Tb152 2.764 . S
C161 C155 1.504 . S
C161 O173 1.239 . S
C161 O174 1.263 . S
O162 Tb152 2.325 . S
O162 C172 1.236 . S
O163 Tb153 2.322 . S
O163 C172 1.257 . S
O164 Tb153 2.349 . S
O164 C175 1.261 . S
O165 Tb152 2.303 . S
O165 C175 1.257 . S
O166 Tb153 2.415 . S
O166 C182 1.239 . S
O167 Tb153 2.399 . S
O167 C182 1.263 . S
O168 Tb153 2.325 . S
O168 C183 1.236 . S
O169 Tb152 2.322 . S
O169 C183 1.257 . S
O170 Tb152 2.349 . S
O170 C154 1.261 . S
O171 Tb153 2.303 . S
O171 C154 1.257 . S
C172 O162 1.236 . S
C172 O163 1.257 . S
O173 Tb152 2.415 . S
O173 C161 1.239 . S
O174 Tb152 2.399 . S
O174 C161 1.263 . S
C175 O164 1.261 . S
C175 O165 1.257 . S
C176 C179 1.358 . S
C176 C180 1.332 . S
C176 C182 1.504 . S
C177 C178 1.373 . S
C177 C181 1.308 . S
C178 C177 1.373 . S
C178 C179 1.429 . S
C178 H188 0.932 . S
C179 C176 1.358 . S
C179 C178 1.429 . S
C179 H189 0.930 . S
C180 C176 1.332 . S
C180 C181 1.394 . S
C180 H190 0.932 . S
C181 C177 1.308 . S
C181 C180 1.394 . S
C181 H191 0.929 . S
C182 Tb153 2.764 . S
C182 O166 1.239 . S
C182 O167 1.263 . S
C182 C176 1.504 . S
C183 O168 1.236 . S
C183 O169 1.257 . S
H184 C157 0.932 . S
H185 C158 0.930 . S
H186 C159 0.932 . S
H187 C160 0.929 . S
H188 C178 0.932 . S
H189 C179 0.930 . S
H190 C180 0.932 . S
H191 C181 0.929 . S
Tb192 C201 2.764 . S
Tb192 O202 2.325 . S
Tb192 O205 2.303 1_556 S
Tb192 O209 2.320 1_656 S
Tb192 O210 2.349 1_655 S
Tb192 O213 2.415 . S
Tb192 O214 2.399 . S
Tb193 O203 2.322 1_455 S
Tb193 O204 2.349 1_455 S
Tb193 O206 2.415 . S
Tb193 O207 2.399 . S
Tb193 O208 2.325 . S
Tb193 O211 2.303 1_554 S
Tb193 C222 2.764 . S
C194 O210 1.261 . S
C194 O211 1.257 . S
C195 C198 1.358 . S
C195 C199 1.332 . S
C195 C201 1.504 . S
C196 C197 1.373 . S
C196 C200 1.308 . S
C197 C196 1.373 . S
C197 C198 1.429 . S
C197 H224 0.932 . S
C198 C195 1.358 . S
C198 C197 1.429 . S
C198 H225 0.930 . S
C199 C195 1.332 . S
C199 C200 1.394 . S
C199 H226 0.932 . S
C200 C196 1.308 . S
C200 C199 1.394 . S
C200 H227 0.929 . S
C201 Tb192 2.764 . S
C201 C195 1.504 . S
C201 O213 1.239 . S
C201 O214 1.263 . S
O202 Tb192 2.325 . S
O202 C212 1.236 . S
O203 Tb193 2.322 1_655 S
O203 C212 1.257 1_554 S
O204 Tb193 2.349 1_655 S
O204 C215 1.261 . S
O205 Tb192 2.303 1_554 S
O205 C215 1.257 . S
O206 Tb193 2.415 . S
O206 C222 1.239 . S
O207 Tb193 2.399 . S
O207 C222 1.263 . S
O208 Tb193 2.325 . S
O208 C223 1.236 . S
O209 Tb192 2.320 1_454 S
O209 C223 1.261 . S
O210 Tb192 2.349 1_455 S
O210 C194 1.261 . S
O211 Tb193 2.303 1_556 S
O211 C194 1.257 . S
C212 O202 1.236 . S
C212 O203 1.257 1_556 S
O213 Tb192 2.415 . S
O213 C201 1.239 . S
O214 Tb192 2.399 . S
O214 C201 1.263 . S
C215 O204 1.261 . S
C215 O205 1.257 . S
C216 C219 1.358 . S
C216 C220 1.332 . S
C216 C222 1.504 . S
C217 C218 1.373 . S
C217 C221 1.308 . S
C218 C217 1.373 . S
C218 C219 1.429 . S
C218 H228 0.932 . S
C219 C216 1.358 . S
C219 C218 1.429 . S
C219 H229 0.930 . S
C220 C216 1.332 . S
C220 C221 1.394 . S
C220 H230 0.932 . S
C221 C217 1.308 . S
C221 C220 1.394 . S
C221 H231 0.929 . S
C222 Tb193 2.764 . S
C222 O206 1.239 . S
C222 O207 1.263 . S
C222 C216 1.504 . S
C223 O208 1.236 . S
C223 O209 1.261 . S
H224 C197 0.932 . S
H225 C198 0.930 . S
H226 C199 0.932 . S
H227 C200 0.929 . S
H228 C218 0.932 . S
H229 C219 0.930 . S
H230 C220 0.932 . S
H231 C221 0.929 . S
C232 C233 1.387 . S
C232 H236 0.950 . S
C232 C241 1.390 . S
C233 C232 1.387 . S
C233 C235 1.387 . S
H234 C241 0.950 . S
C235 C233 1.387 . S
C235 C237 1.390 . S
C235 H239 0.950 . S
H236 C232 0.950 . S
C237 C235 1.390 . S
C237 C238 1.387 . S
C237 H240 0.950 . S
C238 C237 1.387 . S
C238 C241 1.387 . S
H239 C235 0.950 . S
H240 C237 0.950 . S
C241 C232 1.390 . S
C241 H234 0.950 . S
C241 C238 1.387 . S
C242 C243 1.387 . S
C242 H246 0.950 . S
C242 C251 1.390 . S
C243 C242 1.387 . S
C243 C245 1.387 . S
H244 C251 0.950 . S
C245 C243 1.387 . S
C245 C247 1.390 . S
C245 H249 0.950 . S
H246 C242 0.950 . S
C247 C245 1.390 . S
C247 C248 1.387 . S
C247 H250 0.950 . S
C248 C247 1.387 . S
C248 C251 1.387 . S
H249 C245 0.950 . S
H250 C247 0.950 . S
C251 C242 1.390 . S
C251 H244 0.950 . S
C251 C248 1.387 . S
C252 C253 1.387 . S
C252 H256 0.950 . S
C252 C261 1.390 . S
C253 C252 1.387 . S
C253 C255 1.387 . S
H254 C261 0.950 . S
C255 C253 1.387 . S
C255 C257 1.390 . S
C255 H259 0.950 . S
H256 C252 0.950 . S
C257 C255 1.390 . S
C257 C258 1.387 . S
C257 H260 0.950 . S
C258 C257 1.387 . S
C258 C261 1.387 . S
H259 C255 0.950 . S
H260 C257 0.950 . S
C261 C252 1.390 . S
C261 H254 0.950 . S
C261 C258 1.387 . S
C262 C263 1.387 . S
C262 H266 0.950 . S
C262 C271 1.390 . S
C263 C262 1.387 . S
C263 C265 1.387 . S
H264 C271 0.950 . S
C265 C263 1.387 . S
C265 C267 1.390 . S
C265 H269 0.950 . S
H266 C262 0.950 . S
C267 C265 1.390 . S
C267 C268 1.387 . S
C267 H270 0.950 . S
C268 C267 1.387 . S
C268 C271 1.387 . S
H269 C265 0.950 . S
H270 C267 0.950 . S
C271 C262 1.390 . S
C271 H264 0.950 . S
C271 C268 1.387 . S
C272 C273 1.387 . S
C272 H276 0.950 . S
C272 C281 1.390 . S
C273 C272 1.387 . S
C273 C275 1.387 . S
H274 C281 0.950 . S
C275 C273 1.387 . S
C275 C277 1.390 . S
C275 H279 0.950 . S
H276 C272 0.950 . S
C277 C275 1.390 . S
C277 C278 1.387 . S
C277 H280 0.950 . S
C278 C277 1.387 . S
C278 C281 1.387 . S
H279 C275 0.950 . S
H280 C277 0.950 . S
C281 C272 1.390 . S
C281 H274 0.950 . S
C281 C278 1.387 . S
C282 C283 1.387 . S
C282 H286 0.950 . S
C282 C291 1.390 . S
C283 C282 1.387 . S
C283 C285 1.373 1_455 S
H284 C291 0.950 . S
C285 C283 1.373 1_655 S
C285 C287 1.393 . S
C285 H289 0.962 . S
H286 C282 0.950 . S
C287 C285 1.393 . S
C287 C288 1.387 1_655 S
C287 H290 0.950 . S
C288 C287 1.387 1_455 S
C288 C291 1.387 . S
H289 C285 0.962 . S
H290 C287 0.950 . S
C291 C282 1.390 . S
C291 H284 0.950 . S
C291 C288 1.387 . S
C292 C293 1.387 . S
C292 H296 0.950 . S
C292 C301 1.390 . S
C293 C292 1.387 . S
C293 C295 1.387 . S
H294 C301 0.950 . S
C295 C293 1.387 . S
C295 C297 1.390 . S
C295 H299 0.950 . S
H296 C292 0.950 . S
C297 C295 1.390 . S
C297 C298 1.387 . S
C297 H300 0.950 . S
C298 C297 1.387 . S
C298 C301 1.387 . S
H299 C295 0.950 . S
H300 C297 0.950 . S
C301 C292 1.390 . S
C301 H294 0.950 . S
C301 C298 1.387 . S
C302 C303 1.387 . S
C302 H306 0.950 . S
C302 C311 1.390 . S
C303 C302 1.387 . S
C303 C305 1.387 . S
H304 C311 0.950 . S
C305 C303 1.387 . S
C305 C307 1.390 . S
C305 H309 0.950 . S
H306 C302 0.950 . S
C307 C305 1.390 . S
C307 C308 1.387 . S
C307 H310 0.950 . S
C308 C307 1.387 . S
C308 C311 1.387 . S
H309 C305 0.950 . S
H310 C307 0.950 . S
C311 C302 1.390 . S
C311 H304 0.950 . S
C311 C308 1.387 . S
C312 C313 1.387 . S
C312 H316 0.950 . S
C312 C321 1.390 . S
C313 C312 1.387 . S
C313 C315 1.387 . S
H314 C321 0.950 . S
C315 C313 1.387 . S
C315 C317 1.390 . S
C315 H319 0.950 . S
H316 C312 0.950 . S
C317 C315 1.390 . S
C317 C318 1.387 . S
C317 H320 0.950 . S
C318 C317 1.387 . S
C318 C321 1.387 . S
H319 C315 0.950 . S
H320 C317 0.950 . S
C321 C312 1.390 . S
C321 H314 0.950 . S
C321 C318 1.387 . S
C322 C323 1.387 . S
C322 H326 0.950 . S
C322 C331 1.390 . S
C323 C322 1.387 . S
C323 C325 1.387 . S
H324 C331 0.950 . S
C325 C323 1.387 . S
C325 C327 1.390 . S
C325 H329 0.950 . S
H326 C322 0.950 . S
C327 C325 1.390 . S
C327 C328 1.387 . S
C327 H330 0.950 . S
C328 C327 1.387 . S
C328 C331 1.387 . S
H329 C325 0.950 . S
H330 C327 0.950 . S
C331 C322 1.390 . S
C331 H324 0.950 . S
C331 C328 1.387 . S
C332 C333 1.387 . S
C332 H336 0.950 . S
C332 C341 1.390 . S
C333 C332 1.387 . S
C333 C335 1.387 . S
H334 C341 0.950 . S
C335 C333 1.387 . S
C335 C337 1.390 . S
C335 H339 0.950 . S
H336 C332 0.950 . S
C337 C335 1.390 . S
C337 C338 1.387 . S
C337 H340 0.950 . S
C338 C337 1.387 . S
C338 C341 1.387 . S
H339 C335 0.950 . S
H340 C337 0.950 . S
C341 C332 1.390 . S
C341 H334 0.950 . S
C341 C338 1.387 . S
C342 C343 1.387 . S
C342 H346 0.950 . S
C342 C351 1.390 . S
C343 C342 1.387 . S
C343 C345 1.387 . S
H344 C351 0.950 . S
C345 C343 1.387 . S
C345 C347 1.390 . S
C345 H349 0.950 . S
H346 C342 0.950 . S
C347 C345 1.390 . S
C347 C348 1.387 . S
C347 H350 0.950 . S
C348 C347 1.387 . S
C348 C351 1.387 . S
H349 C345 0.950 . S
H350 C347 0.950 . S
C351 C342 1.390 . S
C351 H344 0.950 . S
C351 C348 1.387 . S
C352 C353 1.387 . S
C352 H356 0.950 . S
C352 C361 1.390 . S
C353 C352 1.387 . S
C353 C355 1.387 . S
H354 C361 0.950 . S
C355 C353 1.387 . S
C355 C357 1.390 . S
C355 H359 0.950 . S
H356 C352 0.950 . S
C357 C355 1.390 . S
C357 C358 1.387 . S
C357 H360 0.950 . S
C358 C357 1.387 . S
C358 C361 1.387 . S
H359 C355 0.950 . S
H360 C357 0.950 . S
C361 C352 1.390 . S
C361 H354 0.950 . S
C361 C358 1.387 . S
C362 C363 1.387 . S
C362 H366 0.950 . S
C362 C371 1.390 . S
C363 C362 1.387 . S
C363 C365 1.387 . S
H364 C371 0.950 . S
C365 C363 1.387 . S
C365 C367 1.390 . S
C365 H369 0.950 . S
H366 C362 0.950 . S
C367 C365 1.390 . S
C367 C368 1.387 . S
C367 H370 0.950 . S
C368 C367 1.387 . S
C368 C371 1.387 . S
H369 C365 0.950 . S
H370 C367 0.950 . S
C371 C362 1.390 . S
C371 H364 0.950 . S
C371 C368 1.387 . S
C372 C373 1.387 . S
C372 H376 0.950 . S
C372 C381 1.390 . S
C373 C372 1.387 . S
C373 C375 1.387 . S
H374 C381 0.950 . S
C375 C373 1.387 . S
C375 C377 1.390 . S
C375 H379 0.950 . S
H376 C372 0.950 . S
C377 C375 1.390 . S
C377 C378 1.387 . S
C377 H380 0.950 . S
C378 C377 1.387 . S
C378 C381 1.387 . S
H379 C375 0.950 . S
H380 C377 0.950 . S
C381 C372 1.390 . S
C381 H374 0.950 . S
C381 C378 1.387 . S
C382 C383 1.387 . S
C382 H386 0.950 . S
C382 C391 1.390 . S
C383 C382 1.387 . S
C383 C385 1.387 . S
H384 C391 0.950 . S
C385 C383 1.387 . S
C385 C387 1.390 . S
C385 H389 0.950 . S
H386 C382 0.950 . S
C387 C385 1.390 . S
C387 C388 1.387 . S
C387 H390 0.950 . S
C388 C387 1.387 . S
C388 C391 1.387 . S
H389 C385 0.950 . S
H390 C387 0.950 . S
C391 C382 1.390 . S
C391 H384 0.950 . S
C391 C388 1.387 . S
C392 C393 1.387 . S
C392 H396 0.950 . S
C392 C401 1.390 . S
C393 C392 1.387 . S
C393 C395 1.387 . S
H394 C401 0.950 . S
C395 C393 1.387 . S
C395 C397 1.390 . S
C395 H399 0.950 . S
H396 C392 0.950 . S
C397 C395 1.390 . S
C397 C398 1.387 . S
C397 H400 0.950 . S
C398 C397 1.387 . S
C398 C401 1.387 . S
H399 C395 0.950 . S
H400 C397 0.950 . S
C401 C392 1.390 . S
C401 H394 0.950 . S
C401 C398 1.387 . S
C402 C403 1.387 . S
C402 H406 0.950 . S
C402 C411 1.390 . S
C403 C402 1.387 . S
C403 C405 1.387 1_655 S
H404 C411 0.950 . S
C405 C403 1.387 1_455 S
C405 C407 1.390 . S
C405 H409 0.950 . S
H406 C402 0.950 . S
C407 C405 1.390 . S
C407 C408 1.387 1_455 S
C407 H410 0.950 . S
C408 C407 1.387 1_655 S
C408 C411 1.387 . S
H409 C405 0.950 . S
H410 C407 0.950 . S
C411 C402 1.390 . S
C411 H404 0.950 . S
C411 C408 1.387 . S
C412 C413 1.387 . S
C412 H416 0.950 . S
C412 C421 1.390 . S
C413 C412 1.387 . S
C413 C415 1.387 . S
H414 C421 0.950 . S
C415 C413 1.387 . S
C415 C417 1.390 . S
C415 H419 0.950 . S
H416 C412 0.950 . S
C417 C415 1.390 . S
C417 C418 1.387 . S
C417 H420 0.950 . S
C418 C417 1.387 . S
C418 C421 1.387 . S
H419 C415 0.950 . S
H420 C417 0.950 . S
C421 C412 1.390 . S
C421 H414 0.950 . S
C421 C418 1.387 . S
C422 C423 1.387 . S
C422 H426 0.950 . S
C422 C431 1.390 . S
C423 C422 1.387 . S
C423 C425 1.387 . S
H424 C431 0.950 . S
C425 C423 1.387 . S
C425 C427 1.390 . S
C425 H429 0.950 . S
H426 C422 0.950 . S
C427 C425 1.390 . S
C427 C428 1.387 . S
C427 H430 0.950 . S
C428 C427 1.387 . S
C428 C431 1.387 . S
H429 C425 0.950 . S
H430 C427 0.950 . S
C431 C422 1.390 . S
C431 H424 0.950 . S
C431 C428 1.387 . S
C432 C433 1.387 . S
C432 H436 0.950 . S
C432 C441 1.390 . S
C433 C432 1.387 . S
C433 C435 1.387 . S
H434 C441 0.950 . S
C435 C433 1.387 . S
C435 C437 1.390 . S
C435 H439 0.950 . S
H436 C432 0.950 . S
C437 C435 1.390 . S
C437 C438 1.387 . S
C437 H440 0.950 . S
C438 C437 1.387 . S
C438 C441 1.387 . S
H439 C435 0.950 . S
H440 C437 0.950 . S
C441 C432 1.390 . S
C441 H434 0.950 . S
C441 C438 1.387 . S
C442 C443 1.387 . S
C442 H446 0.950 . S
C442 C451 1.390 . S
C443 C442 1.387 . S
C443 C445 1.387 . S
H444 C451 0.950 . S
C445 C443 1.387 . S
C445 C447 1.390 . S
C445 H449 0.950 . S
H446 C442 0.950 . S
C447 C445 1.390 . S
C447 C448 1.387 . S
C447 H450 0.950 . S
C448 C447 1.387 . S
C448 C451 1.387 . S
H449 C445 0.950 . S
H450 C447 0.950 . S
C451 C442 1.390 . S
C451 H444 0.950 . S
C451 C448 1.387 . S
C452 C453 1.387 . S
C452 H456 0.950 . S
C452 C461 1.390 . S
C453 C452 1.387 . S
C453 C455 1.387 . S
H454 C461 0.950 . S
C455 C453 1.387 . S
C455 C457 1.390 . S
C455 H459 0.950 . S
H456 C452 0.950 . S
C457 C455 1.390 . S
C457 C458 1.387 . S
C457 H460 0.950 . S
C458 C457 1.387 . S
C458 C461 1.387 . S
H459 C455 0.950 . S
H460 C457 0.950 . S
C461 C452 1.390 . S
C461 H454 0.950 . S
C461 C458 1.387 . S
C462 C463 1.387 . S
C462 H466 0.950 . S
C462 C471 1.390 . S
C463 C462 1.387 . S
C463 C465 1.387 . S
H464 C471 0.950 . S
C465 C463 1.387 . S
C465 C467 1.390 . S
C465 H469 0.950 . S
H466 C462 0.950 . S
C467 C465 1.390 . S
C467 C468 1.387 . S
C467 H470 0.950 . S
C468 C467 1.387 . S
C468 C471 1.387 . S
H469 C465 0.950 . S
H470 C467 0.950 . S
C471 C462 1.390 . S
C471 H464 0.950 . S
C471 C468 1.387 . S
C233 C5 0.883 . S
C238 C76 0.897 . S
C243 C14 1.010 . S
C248 C137 1.020 . S
C258 C175 2.567 . S
C253 C25 2.628 . S
C263 C34 2.492 . S
C268 C215 2.446 . S
C278 C135 1.200 . S
C273 C7 1.128 . S
C288 C103 1.780 . S
C283 C13 1.649 . S
C298 C212 1.855 . S
C293 C23 1.891 . S
C308 C172 1.953 . S
C303 C31 1.985 . S
C313 C4 1.181 . S
C318 C217 1.214 . S
C328 C132 2.395 . S
C323 C22 2.397 . S
C333 C32 2.322 . S
C338 C74 2.274 . S
C343 C16 1.286 . S
C348 C177 1.359 . S
C358 C97 0.893 . S
C353 C41 0.880 . S
C363 C50 1.014 . S
C368 C116 1.025 . S
C373 C61 2.622 . S
C378 C154 2.565 . S
C383 C67 2.499 . S
C388 C194 2.455 . S
C393 C40 1.145 . S
C398 C114 1.214 . S
C408 C92 1.766 . S
C403 C52 1.630 . S
C418 C223 1.862 . S
C413 C59 1.895 . S
C428 C183 1.950 . S
C423 C70 1.979 . S
C433 C43 1.170 . S
C438 C196 1.210 . S
C448 C143 2.406 . S
C443 C58 2.407 . S
C458 C95 2.261 . S
C453 C68 2.305 . S
C463 C49 1.299 . S
C468 C156 1.363 . S
