# Generated by pormake.
# Topology ptr, (4,4)-cn, num edge types: 1
# Building blocks:
#     Node 0, Type 0, BuildingBlock: TATPOV_clean_sbu_0, # of connection points: 4
#     Node 1, Type 0, BuildingBlock: TATPOV_clean_sbu_0, # of connection points: 4
#     Node 2, Type 0, BuildingBlock: TATPOV_clean_sbu_0, # of connection points: 4
#     Node 3, Type 0, BuildingBlock: TATPOV_clean_sbu_0, # of connection points: 4
#     Node 4, Type 0, BuildingBlock: TATPOV_clean_sbu_0, # of connection points: 4
#     Node 5, Type 0, BuildingBlock: TATPOV_clean_sbu_0, # of connection points: 4
#     Node 6, Type 0, BuildingBlock: TATPOV_clean_sbu_0, # of connection points: 4
#     Node 7, Type 0, BuildingBlock: TATPOV_clean_sbu_0, # of connection points: 4
#     Node 8, Type 0, BuildingBlock: TATPOV_clean_sbu_0, # of connection points: 4
#     Node 9, Type 0, BuildingBlock: TATPOV_clean_sbu_0, # of connection points: 4
#     Node 10, Type 0, BuildingBlock: TATPOV_clean_sbu_0, # of connection points: 4
#     Node 11, Type 0, BuildingBlock: TATPOV_clean_sbu_0, # of connection points: 4
#     Node 12, Type 0, BuildingBlock: TATPOV_clean_sbu_0, # of connection points: 4
#     Node 13, Type 0, BuildingBlock: TATPOV_clean_sbu_0, # of connection points: 4
#     Node 14, Type 0, BuildingBlock: TATPOV_clean_sbu_0, # of connection points: 4
#     Node 15, Type 0, BuildingBlock: TATPOV_clean_sbu_0, # of connection points: 4
#     Node 16, Type 0, BuildingBlock: TATPOV_clean_sbu_0, # of connection points: 4
#     Node 17, Type 0, BuildingBlock: TATPOV_clean_sbu_0, # of connection points: 4
#     Node 18, Type 1, BuildingBlock: KUFVIS_clean_linker_0, # of connection points: 4
#     Node 19, Type 1, BuildingBlock: KUFVIS_clean_linker_0, # of connection points: 4
#     Node 20, Type 1, BuildingBlock: KUFVIS_clean_linker_0, # of connection points: 4
#     Node 21, Type 1, BuildingBlock: KUFVIS_clean_linker_0, # of connection points: 4
#     Node 22, Type 1, BuildingBlock: KUFVIS_clean_linker_0, # of connection points: 4
#     Node 23, Type 1, BuildingBlock: KUFVIS_clean_linker_0, # of connection points: 4
#     Node 24, Type 1, BuildingBlock: KUFVIS_clean_linker_0, # of connection points: 4
#     Node 25, Type 1, BuildingBlock: KUFVIS_clean_linker_0, # of connection points: 4
#     Node 26, Type 1, BuildingBlock: KUFVIS_clean_linker_0, # of connection points: 4
#     Node 27, Type 1, BuildingBlock: KUFVIS_clean_linker_0, # of connection points: 4
#     Node 28, Type 1, BuildingBlock: KUFVIS_clean_linker_0, # of connection points: 4
#     Node 29, Type 1, BuildingBlock: KUFVIS_clean_linker_0, # of connection points: 4
#     Node 30, Type 1, BuildingBlock: KUFVIS_clean_linker_0, # of connection points: 4
#     Node 31, Type 1, BuildingBlock: KUFVIS_clean_linker_0, # of connection points: 4
#     Node 32, Type 1, BuildingBlock: KUFVIS_clean_linker_0, # of connection points: 4
#     Node 33, Type 1, BuildingBlock: KUFVIS_clean_linker_0, # of connection points: 4
#     Node 34, Type 1, BuildingBlock: KUFVIS_clean_linker_0, # of connection points: 4
#     Node 35, Type 1, BuildingBlock: KUFVIS_clean_linker_0, # of connection points: 4
#     Edge 36, Type (0, 1), BuildingBlock: MIFKUJ_clean_linker_0, # of connection points: 2
#     Edge 37, Type (0, 1), BuildingBlock: MIFKUJ_clean_linker_0, # of connection points: 2
#     Edge 38, Type (0, 1), BuildingBlock: MIFKUJ_clean_linker_0, # of connection points: 2
#     Edge 39, Type (0, 1), BuildingBlock: MIFKUJ_clean_linker_0, # of connection points: 2
#     Edge 40, Type (0, 1), BuildingBlock: MIFKUJ_clean_linker_0, # of connection points: 2
#     Edge 41, Type (0, 1), BuildingBlock: MIFKUJ_clean_linker_0, # of connection points: 2
#     Edge 42, Type (0, 1), BuildingBlock: MIFKUJ_clean_linker_0, # of connection points: 2
#     Edge 43, Type (0, 1), BuildingBlock: MIFKUJ_clean_linker_0, # of connection points: 2
#     Edge 44, Type (0, 1), BuildingBlock: MIFKUJ_clean_linker_0, # of connection points: 2
#     Edge 45, Type (0, 1), BuildingBlock: MIFKUJ_clean_linker_0, # of connection points: 2
#     Edge 46, Type (0, 1), BuildingBlock: MIFKUJ_clean_linker_0, # of connection points: 2
#     Edge 47, Type (0, 1), BuildingBlock: MIFKUJ_clean_linker_0, # of connection points: 2
#     Edge 48, Type (0, 1), BuildingBlock: MIFKUJ_clean_linker_0, # of connection points: 2
#     Edge 49, Type (0, 1), BuildingBlock: MIFKUJ_clean_linker_0, # of connection points: 2
#     Edge 50, Type (0, 1), BuildingBlock: MIFKUJ_clean_linker_0, # of connection points: 2
#     Edge 51, Type (0, 1), BuildingBlock: MIFKUJ_clean_linker_0, # of connection points: 2
#     Edge 52, Type (0, 1), BuildingBlock: MIFKUJ_clean_linker_0, # of connection points: 2
#     Edge 53, Type (0, 1), BuildingBlock: MIFKUJ_clean_linker_0, # of connection points: 2
#     Edge 54, Type (0, 1), BuildingBlock: MIFKUJ_clean_linker_0, # of connection points: 2
#     Edge 55, Type (0, 1), BuildingBlock: MIFKUJ_clean_linker_0, # of connection points: 2
#     Edge 56, Type (0, 1), BuildingBlock: MIFKUJ_clean_linker_0, # of connection points: 2
#     Edge 57, Type (0, 1), BuildingBlock: MIFKUJ_clean_linker_0, # of connection points: 2
#     Edge 58, Type (0, 1), BuildingBlock: MIFKUJ_clean_linker_0, # of connection points: 2
#     Edge 59, Type (0, 1), BuildingBlock: MIFKUJ_clean_linker_0, # of connection points: 2
#     Edge 60, Type (0, 1), BuildingBlock: MIFKUJ_clean_linker_0, # of connection points: 2
#     Edge 61, Type (0, 1), BuildingBlock: MIFKUJ_clean_linker_0, # of connection points: 2
#     Edge 62, Type (0, 1), BuildingBlock: MIFKUJ_clean_linker_0, # of connection points: 2
#     Edge 63, Type (0, 1), BuildingBlock: MIFKUJ_clean_linker_0, # of connection points: 2
#     Edge 64, Type (0, 1), BuildingBlock: MIFKUJ_clean_linker_0, # of connection points: 2
#     Edge 65, Type (0, 1), BuildingBlock: MIFKUJ_clean_linker_0, # of connection points: 2
#     Edge 66, Type (0, 1), BuildingBlock: MIFKUJ_clean_linker_0, # of connection points: 2
#     Edge 67, Type (0, 1), BuildingBlock: MIFKUJ_clean_linker_0, # of connection points: 2
#     Edge 68, Type (0, 1), BuildingBlock: MIFKUJ_clean_linker_0, # of connection points: 2
#     Edge 69, Type (0, 1), BuildingBlock: MIFKUJ_clean_linker_0, # of connection points: 2
#     Edge 70, Type (0, 1), BuildingBlock: MIFKUJ_clean_linker_0, # of connection points: 2
#     Edge 71, Type (0, 1), BuildingBlock: MIFKUJ_clean_linker_0, # of connection points: 2
#     Edge 72, Type (0, 1), BuildingBlock: MIFKUJ_clean_linker_0, # of connection points: 2
#     Edge 73, Type (0, 1), BuildingBlock: MIFKUJ_clean_linker_0, # of connection points: 2
#     Edge 74, Type (0, 1), BuildingBlock: MIFKUJ_clean_linker_0, # of connection points: 2
#     Edge 75, Type (0, 1), BuildingBlock: MIFKUJ_clean_linker_0, # of connection points: 2
#     Edge 76, Type (0, 1), BuildingBlock: MIFKUJ_clean_linker_0, # of connection points: 2
#     Edge 77, Type (0, 1), BuildingBlock: MIFKUJ_clean_linker_0, # of connection points: 2
#     Edge 78, Type (0, 1), BuildingBlock: MIFKUJ_clean_linker_0, # of connection points: 2
#     Edge 79, Type (0, 1), BuildingBlock: MIFKUJ_clean_linker_0, # of connection points: 2
#     Edge 80, Type (0, 1), BuildingBlock: MIFKUJ_clean_linker_0, # of connection points: 2
#     Edge 81, Type (0, 1), BuildingBlock: MIFKUJ_clean_linker_0, # of connection points: 2
#     Edge 82, Type (0, 1), BuildingBlock: MIFKUJ_clean_linker_0, # of connection points: 2
#     Edge 83, Type (0, 1), BuildingBlock: MIFKUJ_clean_linker_0, # of connection points: 2
#     Edge 84, Type (0, 1), BuildingBlock: MIFKUJ_clean_linker_0, # of connection points: 2
#     Edge 85, Type (0, 1), BuildingBlock: MIFKUJ_clean_linker_0, # of connection points: 2
#     Edge 86, Type (0, 1), BuildingBlock: MIFKUJ_clean_linker_0, # of connection points: 2
#     Edge 87, Type (0, 1), BuildingBlock: MIFKUJ_clean_linker_0, # of connection points: 2
#     Edge 88, Type (0, 1), BuildingBlock: MIFKUJ_clean_linker_0, # of connection points: 2
#     Edge 89, Type (0, 1), BuildingBlock: MIFKUJ_clean_linker_0, # of connection points: 2
#     Edge 90, Type (0, 1), BuildingBlock: MIFKUJ_clean_linker_0, # of connection points: 2
#     Edge 91, Type (0, 1), BuildingBlock: MIFKUJ_clean_linker_0, # of connection points: 2
#     Edge 92, Type (0, 1), BuildingBlock: MIFKUJ_clean_linker_0, # of connection points: 2
#     Edge 93, Type (0, 1), BuildingBlock: MIFKUJ_clean_linker_0, # of connection points: 2
#     Edge 94, Type (0, 1), BuildingBlock: MIFKUJ_clean_linker_0, # of connection points: 2
#     Edge 95, Type (0, 1), BuildingBlock: MIFKUJ_clean_linker_0, # of connection points: 2
#     Edge 96, Type (0, 1), BuildingBlock: MIFKUJ_clean_linker_0, # of connection points: 2
#     Edge 97, Type (0, 1), BuildingBlock: MIFKUJ_clean_linker_0, # of connection points: 2
#     Edge 98, Type (0, 1), BuildingBlock: MIFKUJ_clean_linker_0, # of connection points: 2
#     Edge 99, Type (0, 1), BuildingBlock: MIFKUJ_clean_linker_0, # of connection points: 2
#     Edge 100, Type (0, 1), BuildingBlock: MIFKUJ_clean_linker_0, # of connection points: 2
#     Edge 101, Type (0, 1), BuildingBlock: MIFKUJ_clean_linker_0, # of connection points: 2
#     Edge 102, Type (0, 1), BuildingBlock: MIFKUJ_clean_linker_0, # of connection points: 2
#     Edge 103, Type (0, 1), BuildingBlock: MIFKUJ_clean_linker_0, # of connection points: 2
#     Edge 104, Type (0, 1), BuildingBlock: MIFKUJ_clean_linker_0, # of connection points: 2
#     Edge 105, Type (0, 1), BuildingBlock: MIFKUJ_clean_linker_0, # of connection points: 2
#     Edge 106, Type (0, 1), BuildingBlock: MIFKUJ_clean_linker_0, # of connection points: 2
#     Edge 107, Type (0, 1), BuildingBlock: MIFKUJ_clean_linker_0, # of connection points: 2
# Relax obj value: 0.070
# Max RMSD: 0.192
# Mean RMSD: 0.120
data_MOF--net-ptr--node1-TATPOV_clean_sbu_0--node2-KUFVIS_clean_linker_0--edge1-MIFKUJ_clean_linker_0
_symmetry_space_group_name_H-M    P1
_symmetry_Int_Tables_number       1
_symmetry_cell_setting            triclinic
loop_
_symmetry_equiv_pos_as_xyz
'x, y, z'
_cell_length_a     101.81958
_cell_length_b     103.15386
_cell_length_c     61.212574
_cell_angle_alpha  89.540282
_cell_angle_beta   90.99278
_cell_angle_gamma 121.27621
loop_
_atom_site_label
_atom_site_type_symbol
_atom_site_fract_x
_atom_site_fract_y
_atom_site_fract_z
_atom_type_partial_charge
Zn0 Zn 0.97569 0.36329 0.01778 0.0
Zn1 Zn 1.00195 0.36448 0.01508 0.0
O2 O 0.98458 0.34151 0.01148 0.0
O3 O 0.96277 0.34076 0.01584 0.0
O4 O 0.02116 0.3631 0.01821 0.0
O5 O 0.98045 0.37322 0.04693 0.0
O6 O 1.00336 0.37626 0.04356 0.0
C7 C 0.96992 0.33397 0.01259 0.0
C8 C 0.99485 0.38155 0.98124 0.0
O9 O 1.00425 0.37765 0.98797 0.0
O10 O 0.98221 0.37668 0.99093 0.0
C11 C 0.03354 0.36982 0.00741 0.0
O12 O 0.03491 0.37901 0.99144 0.0
C13 C 0.99402 0.37856 0.05407 0.0
Zn14 Zn 0.65385 0.62075 0.01108 0.0
Zn15 Zn 0.65498 0.64628 0.02054 0.0
O16 O 0.67788 0.65217 0.01555 0.0
O17 O 0.67635 0.63062 0.00793 0.0
O18 O 0.6575 0.66671 0.02792 0.0
O19 O 0.6445 0.61211 0.04012 0.0
O20 O 0.64426 0.63286 0.04762 0.0
C21 C 0.6844 0.64479 0.01085 0.0
C22 C 0.63594 0.62698 0.9811 0.0
O23 O 0.64027 0.63846 0.99344 0.0
O24 O 0.64054 0.61788 0.98479 0.0
C25 C 0.64663 0.66941 0.02723 0.0
O26 O 0.63276 0.65848 0.02147 0.0
C27 C 0.64119 0.61958 0.05282 0.0
Zn28 Zn 0.3641 0.97895 0.02943 0.0
Zn29 Zn 0.36459 0.004 0.01834 0.0
O30 O 0.34146 0.9876 0.02379 0.0
O31 O 0.34131 0.96663 0.03128 0.0
O32 O 0.36321 0.02237 0.00945 0.0
O33 O 0.37423 0.97952 0.00132 0.0
O34 O 0.37435 1.00016 0.99151 0.0
C35 C 0.33409 0.97344 0.02827 0.0
C36 C 0.38299 0.0035 0.05855 0.0
O37 O 0.37959 0.01095 0.04523 0.0
O38 O 0.37715 0.98937 0.056 0.0
C39 C 0.36166 0.03067 0.02321 0.0
O40 O 0.36152 0.0277 0.04414 0.0
C41 C 0.37752 0.98995 0.98754 0.0
Zn42 Zn 0.03541 0.64581 0.01406 0.0
Zn43 Zn 0.00894 0.64473 0.01195 0.0
O44 O 0.02603 0.66757 0.01518 0.0
O45 O 0.04811 0.66854 0.01529 0.0
O46 O 0.99032 0.64681 0.00713 0.0
O47 O 0.03129 0.63494 0.98549 0.0
O48 O 0.00879 0.63313 0.98406 0.0
C49 C 0.04069 0.67527 0.01593 0.0
C50 C 0.01434 0.62801 0.04888 0.0
O51 O 0.0053 0.63161 0.0397 0.0
O52 O 0.02765 0.63302 0.04134 0.0
C53 C 0.98005 0.64464 0.02072 0.0
O54 O 0.98036 0.63961 0.04039 0.0
C55 C 0.01845 0.63018 0.97598 0.0
Zn56 Zn 0.35477 0.38837 0.00229 0.0
Zn57 Zn 0.35624 0.36355 0.00201 0.0
O58 O 0.33268 0.35589 0.00471 0.0
O59 O 0.33203 0.37688 0.00436 0.0
O60 O 0.35695 0.34413 -0.00022 0.0
O61 O 0.36432 0.39486 0.973 0.0
O62 O 0.36737 0.37522 0.97362 0.0
C63 C 0.32506 0.36258 0.00522 0.0
C64 C 0.37343 0.38754 0.03766 0.0
O65 O 0.36962 0.37472 0.02934 0.0
O66 O 0.36837 0.3954 0.02925 0.0
C67 C 0.34676 0.33134 0.00745 0.0
O68 O 0.33512 0.33035 0.01794 0.0
C69 C 0.36937 0.38725 0.96435 0.0
Zn70 Zn 0.64902 0.0291 0.0234 0.0
Zn71 Zn 0.64856 0.00374 0.01734 0.0
O72 O 0.67156 0.02119 0.01402 0.0
O73 O 0.67146 0.04231 0.01771 0.0
O74 O 0.64979 0.98458 0.01647 0.0
O75 O 0.64141 0.02391 0.05391 0.0
O76 O 0.63741 1.00127 0.04675 0.0
C77 C 0.67875 0.03567 0.01427 0.0
C78 C 0.62903 0.01081 0.98746 0.0
O79 O 0.6345 1.00232 0.99137 0.0
O80 O 0.63321 0.0225 -0.00098 0.0
C81 C 0.66052 0.98457 0.02748 0.0
O82 O 0.67027 0.99683 0.03848 0.0
C83 C 0.63587 0.01021 0.05932 0.0
Zn84 Zn 0.63801 0.69591 0.33544 0.0
Zn85 Zn 0.66284 0.69506 0.3467 0.0
O86 O 0.64516 0.67259 0.34084 0.0
O87 O 0.62449 0.67344 0.33281 0.0
O88 O 0.68049 0.69191 0.3552 0.0
O89 O 0.63942 0.70614 0.36393 0.0
O90 O 0.66009 0.70564 0.3736 0.0
C91 C 0.63085 0.6658 0.33589 0.0
C92 C 0.66316 0.71342 0.30653 0.0
O93 O 0.67031 0.70948 0.31975 0.0
O94 O 0.64904 0.70856 0.30919 0.0
C95 C 0.69456 0.70039 0.35016 0.0
O96 O 0.69883 0.71282 0.33892 0.0
C97 C 0.65011 0.70924 0.37764 0.0
Zn98 Zn 0.31076 0.95063 0.34236 0.0
Zn99 Zn 0.31301 0.97629 0.34824 0.0
O100 O 0.33537 0.98205 0.33925 0.0
O101 O 0.33161 0.95978 0.33011 0.0
O102 O 0.31459 0.99644 0.355 0.0
O103 O 0.30762 0.94483 0.37376 0.0
O104 O 0.30497 0.96452 0.37776 0.0
C105 C 0.34049 0.97398 0.33174 0.0
C106 C 0.28884 0.95321 0.31622 0.0
O107 O 0.29631 0.96682 0.3234 0.0
O108 O 0.29243 0.94376 0.3227 0.0
C109 C 0.32288 0.00881 0.34473 0.0
O110 O 0.33124 0.00903 0.32846 0.0
C111 C 0.30423 0.95264 0.38554 0.0
Zn112 Zn 0.02792 0.31253 0.34839 0.0
Zn113 Zn 0.03003 0.33888 0.34719 0.0
O114 O 0.00669 0.32265 0.35271 0.0
O115 O 0.00585 0.301 0.35597 0.0
O116 O 0.03052 0.35894 0.34412 0.0
O117 O 0.03373 0.31373 0.3172 0.0
O118 O 0.03893 0.3373 0.31745 0.0
C119 C 0.99906 0.30834 0.35611 0.0
C120 C 0.04999 0.3336 0.37978 0.0
O121 O 0.04523 0.34221 0.37291 0.0
O122 O 0.04444 0.32049 0.37164 0.0
C123 C 0.02023 0.36111 0.35173 0.0
O124 O 0.00895 0.35023 0.36291 0.0
C125 C 0.03899 0.3264 0.30779 0.0
Zn126 Zn 0.70436 0.98325 0.3451 0.0
Zn127 Zn 0.67769 0.98134 0.34328 0.0
O128 O 0.69429 0.00426 0.34831 0.0
O129 O 0.71663 0.00577 0.34839 0.0
O130 O 0.65863 0.98273 0.33873 0.0
O131 O 0.70127 0.97353 0.31588 0.0
O132 O 0.67828 0.9706 0.31483 0.0
C133 C 0.70894 0.01219 0.34975 0.0
C134 C 0.68333 0.96396 0.37881 0.0
O135 O 0.67411 0.96752 0.37014 0.0
O136 O 0.69674 0.96952 0.37135 0.0
C137 C 0.64528 0.97449 0.34662 0.0
O138 O 0.64252 0.96314 0.35954 0.0
C139 C 0.68837 0.96841 0.3064 0.0
Zn140 Zn 0.02699 0.72303 0.35745 0.0
Zn141 Zn 0.0274 0.69907 0.34796 0.0
O142 O 1.0038 0.69169 0.34977 0.0
O143 O 1.00449 0.71323 0.35348 0.0
O144 O 0.02773 0.6801 0.33991 0.0
O145 O 0.04088 0.73476 0.333 0.0
O146 O 0.03938 0.71371 0.32239 0.0
C147 C 0.99682 0.69899 0.35112 0.0
C148 C 0.04227 0.71677 0.39065 0.0
O149 O 0.04043 0.70672 0.37684 0.0
O150 O 0.03622 0.72465 0.38706 0.0
C151 C 0.01983 0.6673 0.3493 0.0
O152 O 0.01077 0.66593 0.36532 0.0
C153 C 0.04434 0.72779 0.31958 0.0
Zn154 Zn 0.31404 0.36162 0.34503 0.0
Zn155 Zn 0.31202 0.33519 0.34395 0.0
O156 O 0.33536 0.35178 0.34019 0.0
O157 O 0.33676 0.37372 0.34223 0.0
O158 O 0.31234 0.31552 0.34498 0.0
O159 O 0.30461 0.3575 0.37445 0.0
O160 O 0.30161 0.3348 0.3732 0.0
C161 C 0.34334 0.36626 0.34011 0.0
C162 C 0.29436 0.34249 0.30995 0.0
O163 O 0.29786 0.33306 0.31754 0.0
O164 O 0.30013 0.35548 0.31859 0.0
C165 C 0.32345 0.31557 0.35499 0.0
O166 O 0.33414 0.32818 0.36436 0.0
C167 C 0.29966 0.34458 0.3829 0.0
Zn168 Zn 0.3129 0.03531 0.67152 0.0
Zn169 Zn 0.33849 0.03523 0.6798 0.0
O170 O 0.32114 0.01225 0.6766 0.0
O171 O 0.29989 0.01265 0.67183 0.0
O172 O 0.35788 0.03467 0.68657 0.0
O173 O 0.3162 0.04744 0.69883 0.0
O174 O 0.33705 0.04677 0.70643 0.0
C175 C 0.30654 0.00521 0.67388 0.0
C176 C 0.33572 0.05153 0.63914 0.0
O177 O 0.34383 0.0484 0.65173 0.0
O178 O 0.32176 0.04651 0.6434 0.0
C179 C 0.36033 0.02481 0.67836 0.0
O180 O 0.35007 0.01467 0.66478 0.0
C181 C 0.32768 0.051 0.71122 0.0
Zn182 Zn 0.98953 0.28962 0.67747 0.0
Zn183 Zn 0.98817 0.31409 0.68279 0.0
O184 O 0.0117 0.32212 0.67834 0.0
O185 O 0.01202 0.3012 0.67317 0.0
O186 O 0.98732 0.33309 0.68853 0.0
O187 O 0.98146 0.28174 0.70713 0.0
O188 O 0.97791 0.30095 0.71048 0.0
C189 C 0.01914 0.31548 0.67472 0.0
C190 C 0.96952 0.29178 0.64594 0.0
O191 O 0.97394 0.30434 0.65566 0.0
O192 O 0.97468 0.28352 0.65214 0.0
C193 C 0.99567 0.34569 0.67883 0.0
O194 O 0.00548 0.34673 0.66422 0.0
C195 C 0.97649 0.28868 0.71787 0.0
Zn196 Zn 0.7016 0.65085 0.68498 0.0
Zn197 Zn 0.70366 0.67712 0.68207 0.0
O198 O 0.68004 0.66094 0.68504 0.0
O199 O 0.67878 0.63904 0.68686 0.0
O200 O 0.70427 0.69707 0.67748 0.0
O201 O 0.71178 0.65336 0.65645 0.0
O202 O 0.71457 0.67594 0.65422 0.0
C203 C 0.67209 0.64648 0.68662 0.0
C204 C 0.72073 0.67143 0.71908 0.0
O205 O 0.71727 0.68044 0.70981 0.0
O206 O 0.71506 0.65808 0.71183 0.0
C207 C 0.69446 0.69973 0.68557 0.0
O208 O 0.68374 0.68948 0.6982 0.0
C209 C 0.71688 0.66583 0.64652 0.0
Zn210 Zn 0.36917 0.31088 0.68651 0.0
Zn211 Zn 0.3441 0.31169 0.68089 0.0
O212 O 0.36218 0.33436 0.68587 0.0
O213 O 0.38304 0.33316 0.68944 0.0
O214 O 0.32533 0.31377 0.67604 0.0
O215 O 0.36602 0.30037 0.65785 0.0
O216 O 0.34461 0.30045 0.65295 0.0
C217 C 0.37672 0.34094 0.68896 0.0
C218 C 0.34685 0.29369 0.71906 0.0
O219 O 0.33862 0.29752 0.70806 0.0
O220 O 0.36053 0.29842 0.71351 0.0
C221 C 0.32655 0.3253 0.6663 0.0
O222 O 0.34005 0.33577 0.65902 0.0
C223 C 0.35409 0.29675 0.6465 0.0
Zn224 Zn 0.69105 0.05345 0.66777 0.0
Zn225 Zn 0.69029 0.02759 0.67041 0.0
O226 O 0.66735 0.02215 0.67154 0.0
O227 O 0.66829 0.04382 0.66755 0.0
O228 O 0.68758 0.00658 0.67001 0.0
O229 O 0.70221 0.05878 0.63951 0.0
O230 O 0.70292 0.03786 0.64229 0.0
C231 C 0.66052 0.02959 0.66992 0.0
C232 C 0.70727 0.05146 0.70589 0.0
O233 O 0.70324 0.03842 0.69817 0.0
O234 O 0.7032 0.05973 0.69615 0.0
C235 C 0.69796 0.00357 0.67453 0.0
O236 O 0.71173 0.01464 0.68042 0.0
C237 C 0.70648 0.05014 0.63224 0.0
Zn238 Zn 0.9777 0.69422 0.66999 0.0
Zn239 Zn 0.97664 0.66873 0.67396 0.0
O240 O 1.00013 0.6853 0.6699 0.0
O241 O 1.00027 0.70657 0.66612 0.0
O242 O 0.9771 0.64945 0.67968 0.0
O243 O 0.96854 0.69259 0.69913 0.0
O244 O 0.96612 0.6702 0.70201 0.0
C245 C 0.00751 0.69966 0.66694 0.0
C246 C 0.95787 0.67271 0.63752 0.0
O247 O 0.96202 0.66422 0.64679 0.0
O248 O 0.96338 0.68617 0.6442 0.0
C249 C 0.98134 0.64314 0.66604 0.0
O250 O 0.98532 0.64892 0.64636 0.0
C251 C 0.96381 0.68035 0.70955 0.0
H252 H 0.20103 0.31638 0.12368 0.0
H253 H 0.1694 0.32308 0.08539 0.0
H254 H 0.17097 0.3269 0.15608 0.0
H255 H 0.14674 0.3191 0.15278 0.0
H256 H 0.11995 0.33391 0.11875 0.0
H257 H 0.15857 0.33698 0.08681 0.0
C258 C 0.19156 0.31837 0.12276 0.0
C259 C 0.18599 0.32071 0.14206 0.0
C260 C 0.18594 0.31962 0.10234 0.0
C261 C 0.17397 0.32268 0.10129 0.0
C262 C 0.16791 0.32494 0.12062 0.0
C263 C 0.17456 0.32443 0.14094 0.0
C264 C 0.15465 0.3276 0.11984 0.0
C265 C 0.14501 0.32402 0.13817 0.0
C266 C 0.13269 0.32645 0.13781 0.0
C267 C 0.12948 0.33199 0.11894 0.0
C268 C 0.13865 0.3356 0.10056 0.0
C269 C 0.15134 0.33363 0.101 0.0
H270 H 0.66463 0.87647 0.12707 0.0
H271 H 0.67754 0.84915 0.09178 0.0
H272 H 0.66893 0.84255 0.16135 0.0
H273 H 0.6872 0.83691 0.16004 0.0
H274 H 0.68808 0.80046 0.12886 0.0
H275 H 0.66909 0.82336 0.09404 0.0
C276 C 0.66673 0.86717 0.12684 0.0
C277 C 0.66634 0.85989 0.14633 0.0
C278 C 0.67066 0.86331 0.10724 0.0
C279 C 0.67405 0.85171 0.10696 0.0
C280 C 0.67356 0.84396 0.12649 0.0
C281 C 0.66957 0.84822 0.14611 0.0
C282 C 0.67777 0.83197 0.12681 0.0
C283 C 0.68462 0.8298 0.14578 0.0
C284 C 0.68833 0.81846 0.14656 0.0
C285 C 0.68567 0.80955 0.12807 0.0
C286 C 0.67894 0.81133 0.10908 0.0
C287 C 0.67478 0.8224 0.10853 0.0
H288 H 0.19978 0.89989 0.12235 0.0
H289 H 0.17124 0.85831 0.08786 0.0
H290 H 0.16278 0.86257 0.1558 0.0
H291 H 0.15556 0.8385 0.15659 0.0
H292 H 0.1186 0.79965 0.12465 0.0
H293 H 0.14581 0.8403 0.08774 0.0
C294 C 0.18972 0.88853 0.12211 0.0
C295 C 0.1819 0.88209 0.14148 0.0
C296 C 0.18567 0.88015 0.10272 0.0
C297 C 0.17362 0.8649 0.10266 0.0
C298 C 0.16506 0.8582 0.12177 0.0
C299 C 0.16921 0.86716 0.14097 0.0
C300 C 0.15234 0.8418 0.12216 0.0
C301 C 0.14878 0.83346 0.14188 0.0
C302 C 0.13658 0.81836 0.1429 0.0
C303 C 0.12808 0.81133 0.12394 0.0
C304 C 0.13145 0.81911 0.10406 0.0
C305 C 0.14357 0.83433 0.10313 0.0
H306 H 0.34378 0.12957 0.9077 0.0
H307 H 0.33473 0.15898 0.94491 0.0
H308 H 0.34267 0.16575 0.87512 0.0
H309 H 0.32828 0.17549 0.87645 0.0
H310 H 0.33222 0.21345 0.91008 0.0
H311 H 0.34317 0.18393 0.94455 0.0
C312 C 0.34243 0.13933 0.90834 0.0
C313 C 0.34327 0.14709 0.88916 0.0
C314 C 0.33959 0.14371 0.92836 0.0
C315 C 0.33732 0.15604 0.92931 0.0
C316 C 0.33813 0.16422 0.91008 0.0
C317 C 0.34133 0.15959 0.89009 0.0
C318 C 0.33577 0.17753 0.9106 0.0
C319 C 0.33098 0.18192 0.89144 0.0
C320 C 0.33026 0.19513 0.89106 0.0
C321 C 0.33293 0.20331 0.91031 0.0
C322 C 0.33725 0.19915 0.9296 0.0
C323 C 0.33898 0.18646 0.92975 0.0
H324 H 0.80249 0.11104 0.89857 0.0
H325 H 0.83858 0.14925 0.93336 0.0
H326 H 0.83269 0.15144 0.86339 0.0
H327 H 0.85818 0.16601 0.86436 0.0
H328 H 0.88826 0.20883 0.89467 0.0
H329 H 0.84979 0.17469 0.93044 0.0
C330 C 0.81259 0.12239 0.89846 0.0
C331 C 0.81719 0.1303 0.87877 0.0
C332 C 0.81997 0.12931 0.91819 0.0
C333 C 0.83277 0.1442 0.91802 0.0
C334 C 0.83799 0.15235 0.89819 0.0
C335 C 0.82964 0.14532 0.87871 0.0
C336 C 0.85203 0.16805 0.8976 0.0
C337 C 0.86101 0.17327 0.8785 0.0
C338 C 0.87394 0.18794 0.87751 0.0
C339 C 0.87825 0.19744 0.89561 0.0
C340 C 0.86963 0.19273 0.91467 0.0
C341 C 0.85656 0.17803 0.91577 0.0
H342 H 0.81478 0.69968 0.90628 0.0
H343 H 0.84016 0.68257 0.9391 0.0
H344 H 0.84727 0.69427 0.87039 0.0
H345 H 0.85225 0.67603 0.86956 0.0
H346 H 0.88713 0.67048 0.89967 0.0
H347 H 0.86514 0.68848 0.93755 0.0
C348 C 0.82381 0.69706 0.90596 0.0
C349 C 0.83051 0.69736 0.8861 0.0
C350 C 0.8274 0.69196 0.92509 0.0
C351 C 0.83809 0.68722 0.92444 0.0
C352 C 0.84565 0.68808 0.9048 0.0
C353 C 0.84177 0.69337 0.88575 0.0
C354 C 0.85698 0.68288 0.90379 0.0
C355 C 0.85908 0.67722 0.88398 0.0
C356 C 0.86999 0.67288 0.88248 0.0
C357 C 0.87862 0.67375 0.90094 0.0
C358 C 0.87695 0.67934 0.92078 0.0
C359 C 0.86606 0.68381 0.92228 0.0
H360 H 0.86474 0.6455 0.45301 0.0
H361 H 0.84029 0.66288 0.41794 0.0
H362 H 0.83241 0.65212 0.48686 0.0
H363 H 0.82845 0.67092 0.48694 0.0
H364 H 0.79507 0.67826 0.4556 0.0
H365 H 0.81585 0.65856 0.41884 0.0
C366 C 0.85587 0.64834 0.45255 0.0
C367 C 0.84895 0.64834 0.47203 0.0
C368 C 0.85262 0.65328 0.43293 0.0
C369 C 0.84216 0.65837 0.43291 0.0
C370 C 0.8346 0.65808 0.45229 0.0
C371 C 0.83803 0.65276 0.47171 0.0
C372 C 0.82382 0.66399 0.45273 0.0
C373 C 0.8219 0.67 0.47233 0.0
C374 C 0.81146 0.67497 0.47347 0.0
C375 C 0.80337 0.67467 0.4547 0.0
C376 C 0.80504 0.66896 0.43502 0.0
C377 C 0.81513 0.66348 0.43399 0.0
H378 H 0.33818 0.21503 0.45023 0.0
H379 H 0.3415 0.18049 0.41714 0.0
H380 H 0.33916 0.18036 0.48788 0.0
H381 H 0.3541 0.1705 0.48518 0.0
H382 H 0.3459 0.12901 0.45718 0.0
H383 H 0.33023 0.1549 0.42268 0.0
C384 C 0.33894 0.20492 0.45104 0.0
C385 C 0.33908 0.19874 0.47136 0.0
C386 C 0.33967 0.19836 0.43162 0.0
C387 C 0.34047 0.18516 0.43233 0.0
C388 C 0.34046 0.17844 0.45265 0.0
C389 C 0.33945 0.18529 0.4721 0.0
C390 C 0.34199 0.16468 0.45371 0.0
C391 C 0.34928 0.16233 0.47198 0.0
C392 C 0.35074 0.14953 0.47321 0.0
C393 C 0.34499 0.13903 0.45613 0.0
C394 C 0.33767 0.14092 0.43797 0.0
C395 C 0.33621 0.15375 0.43665 0.0
H396 H 0.86839 0.23407 0.46811 0.0
H397 H 0.84104 0.1937 0.43028 0.0
H398 H 0.83459 0.19359 0.50006 0.0
H399 H 0.82854 0.16962 0.49649 0.0
H400 H 0.79149 0.13213 0.46221 0.0
H401 H 0.81533 0.17556 0.43107 0.0
C402 C 0.85889 0.22241 0.4671 0.0
C403 C 0.85193 0.21462 0.48631 0.0
C404 C 0.85495 0.21499 0.44689 0.0
C405 C 0.84353 0.1995 0.44584 0.0
C406 C 0.83576 0.1915 0.46489 0.0
C407 C 0.84014 0.19932 0.48509 0.0
C408 C 0.82358 0.17494 0.46395 0.0
C409 C 0.82129 0.16532 0.48201 0.0
C410 C 0.80978 0.1499 0.48137 0.0
C411 C 0.80051 0.14402 0.46269 0.0
C412 C 0.80253 0.15316 0.44462 0.0
C413 C 0.81406 0.16859 0.44513 0.0
H414 H 0.02069 0.46977 0.23652 0.0
H415 H 0.01334 0.50033 0.27417 0.0
H416 H 0.01462 0.50283 0.20329 0.0
H417 H 0.99873 0.51091 0.20749 0.0
H418 H 1.00445 0.55073 0.23781 0.0
H419 H 0.02182 0.52571 0.27064 0.0
C420 C 0.01905 0.47936 0.23727 0.0
C421 C 0.01751 0.48564 0.21791 0.0
C422 C 0.01785 0.48476 0.25754 0.0
C423 C 0.01484 0.49664 0.2584 0.0
C424 C 0.01364 0.50353 0.23886 0.0
C425 C 0.01523 0.49789 0.21864 0.0
C426 C 0.01052 0.51632 0.23922 0.0
C427 C 1.00299 0.51864 0.22122 0.0
C428 C 1.00086 0.53104 0.22061 0.0
C429 C 0.00574 0.54092 0.2384 0.0
C430 C 0.01313 0.53897 0.25642 0.0
C431 C 0.01556 0.52672 0.25691 0.0
H432 H 0.46886 0.44102 0.22848 0.0
H433 H 0.50512 0.47634 0.26702 0.0
H434 H 0.50071 0.48285 0.19777 0.0
H435 H 0.52576 0.49752 0.19942 0.0
H436 H 0.5583 0.53613 0.23659 0.0
H437 H 0.51783 0.50149 0.26792 0.0
C438 C 0.4792 0.45217 0.22956 0.0
C439 C 0.48447 0.4611 0.2108 0.0
C440 C 0.48634 0.45779 0.24989 0.0
C441 C 0.49948 0.47242 0.25126 0.0
C442 C 0.50527 0.48169 0.23245 0.0
C443 C 0.49721 0.47594 0.21236 0.0
C444 C 0.51976 0.49709 0.23362 0.0
C445 C 0.52895 0.50347 0.21488 0.0
C446 C 0.5427 0.51758 0.21594 0.0
C447 C 0.54769 0.52519 0.23583 0.0
C448 C 0.53885 0.51936 0.25453 0.0
C449 C 0.52475 0.50551 0.25341 0.0
H450 H 0.47421 0.02239 0.23344 0.0
H451 H 0.49598 1.00131 0.26574 0.0
H452 H 0.50773 0.01747 0.19921 0.0
H453 H 0.51128 0.99742 0.19806 0.0
H454 H 0.54576 0.99217 0.23089 0.0
H455 H 0.52223 0.00943 0.26648 0.0
C456 C 0.48278 0.01913 0.23335 0.0
C457 C 0.49075 0.02072 0.21421 0.0
C458 C 0.48466 0.01224 0.25188 0.0
C459 C 0.49499 0.00708 0.25151 0.0
C460 C 0.50373 0.0091 0.23267 0.0
C461 C 0.50135 0.01586 0.21397 0.0
C462 C 0.51508 0.00396 0.23237 0.0
C463 C 0.51774 0.99845 0.21284 0.0
C464 C 0.52867 0.99404 0.21231 0.0
C465 C 0.537 0.99516 0.23132 0.0
C466 C 0.53469 1.00061 0.25076 0.0
C467 C 0.52367 0.00491 0.25141 0.0
H468 H 0.54204 0.99175 0.79294 0.0
H469 H 0.50799 0.99575 0.75628 0.0
H470 H 0.51238 1.0023 0.82652 0.0
H471 H 0.48723 0.99188 0.82438 0.0
H472 H 0.45855 0.00544 0.79274 0.0
H473 H 0.49702 0.00988 0.75839 0.0
C474 C 0.53238 0.99345 0.79243 0.0
C475 C 0.52747 0.99639 0.81189 0.0
C476 C 0.52572 0.99363 0.77231 0.0
C477 C 0.51339 0.99617 0.77186 0.0
C478 C 0.50795 0.99888 0.79143 0.0
C479 C 0.5156 0.9995 0.81131 0.0
C480 C 0.49422 1.00076 0.79143 0.0
C481 C 0.48491 0.99672 0.81017 0.0
C482 C 0.47216 0.99846 0.81065 0.0
C483 C 0.46842 0.00405 0.79231 0.0
C484 C 0.47725 0.00806 0.7735 0.0
C485 C 0.49015 0.00644 0.77296 0.0
H486 H 0.98735 0.53958 0.78721 0.0
H487 H 0.99712 0.5103 0.75087 0.0
H488 H 0.99383 0.5071 0.82158 0.0
H489 H 0.00885 0.49818 0.81906 0.0
H490 H 1.00458 0.45918 0.78804 0.0
H491 H 0.98958 0.48553 0.75339 0.0
C492 C 0.98936 0.53022 0.78692 0.0
C493 C 0.99071 0.52403 0.80657 0.0
C494 C 0.99148 0.52521 0.76691 0.0
C495 C 0.99497 0.51366 0.76647 0.0
C496 C 0.99578 0.50668 0.78615 0.0
C497 C 0.99355 0.51211 0.80613 0.0
C498 C 0.99893 0.49388 0.78609 0.0
C499 C 0.00533 0.49089 0.80487 0.0
C500 C 0.00723 0.47834 0.80574 0.0
C501 C 1.00339 0.46905 0.78738 0.0
C502 C 0.99722 0.47171 0.76854 0.0
C503 C 0.99494 0.48405 0.76783 0.0
H504 H 0.54675 0.5655 0.79214 0.0
H505 H 0.51056 0.52974 0.75434 0.0
H506 H 0.51387 0.52483 0.82447 0.0
H507 H 0.48915 0.50945 0.82257 0.0
H508 H 0.45791 0.46949 0.7867 0.0
H509 H 0.49743 0.50474 0.75443 0.0
C510 C 0.53646 0.55429 0.79141 0.0
C511 C 0.53085 0.54587 0.81055 0.0
C512 C 0.52937 0.54838 0.77122 0.0
C513 C 0.51603 0.53389 0.77014 0.0
C514 C 0.5098 0.52511 0.78936 0.0
C515 C 0.51761 0.53132 0.80953 0.0
C516 C 0.49535 0.50959 0.78849 0.0
C517 C 0.4862 0.50326 0.80733 0.0
C518 C 0.47285 0.4888 0.80669 0.0
C519 C 0.46818 0.48074 0.78712 0.0
C520 C 0.47691 0.48655 0.76833 0.0
C521 C 0.49056 0.50082 0.76899 0.0
H522 H 0.67279 0.79474 0.57051 0.0
H523 H 0.68032 0.83441 0.60382 0.0
H524 H 0.65812 0.82241 0.53969 0.0
H525 H 0.66675 0.84619 0.5361 0.0
H526 H 0.66226 0.87939 0.57054 0.0
H527 H 0.66955 0.84803 0.60702 0.0
C528 C 0.67168 0.80466 0.57088 0.0
C529 C 0.66522 0.80786 0.55297 0.0
C530 C 0.67692 0.81408 0.58921 0.0
C531 C 0.6758 0.82712 0.58965 0.0
C532 C 0.66922 0.83071 0.57167 0.0
C533 C 0.6638 0.82067 0.55348 0.0
C534 C 0.66785 0.84465 0.57163 0.0
C535 C 0.66611 0.85072 0.55163 0.0
C536 C 0.66348 0.86279 0.55128 0.0
C537 C 0.66353 0.86958 0.57091 0.0
C538 C 0.66615 0.86458 0.59089 0.0
C539 C 0.66811 0.85202 0.59131 0.0
H540 H 0.1357 0.78444 0.56782 0.0
H541 H 0.17356 0.81537 0.60903 0.0
H542 H 0.17214 0.82493 0.54002 0.0
H543 H 0.19685 0.83664 0.54253 0.0
H544 H 0.2313 0.8736 0.58018 0.0
H545 H 0.18949 0.84086 0.61117 0.0
C546 C 0.1467 0.79492 0.56988 0.0
C547 C 0.15348 0.80415 0.55181 0.0
C548 C 0.15377 0.79895 0.59053 0.0
C549 C 0.16806 0.81258 0.59306 0.0
C550 C 0.1753 0.82217 0.57481 0.0
C551 C 0.16755 0.81778 0.55427 0.0
C552 C 0.19094 0.83645 0.57675 0.0
C553 C 0.2004 0.84236 0.55815 0.0
C554 C 0.21476 0.85583 0.55932 0.0
C555 C 0.22026 0.86307 0.57937 0.0
C556 C 0.21132 0.85766 0.59809 0.0
C557 C 0.19653 0.84453 0.59676 0.0
H558 H 0.14612 0.36438 0.5665 0.0
H559 H 0.17189 0.34887 0.6019 0.0
H560 H 0.17718 0.35623 0.53187 0.0
H561 H 0.18385 0.33964 0.53256 0.0
H562 H 0.21636 0.33209 0.56615 0.0
H563 H 0.19508 0.35193 0.60106 0.0
C564 C 0.155 0.36155 0.56663 0.0
C565 C 0.16102 0.36047 0.54688 0.0
C566 C 0.15918 0.35776 0.58645 0.0
C567 C 0.16954 0.35261 0.58656 0.0
C568 C 0.17644 0.352 0.56698 0.0
C569 C 0.17212 0.35624 0.54723 0.0
C570 C 0.18756 0.34641 0.56694 0.0
C571 C 0.19 0.34053 0.54757 0.0
C572 C 0.20046 0.33554 0.54722 0.0
C573 C 0.2081 0.33574 0.56645 0.0
C574 C 0.20603 0.34145 0.5858 0.0
C575 C 0.19599 0.34699 0.58607 0.0
H576 H 0.02317 0.40203 0.06397 0.0
H577 H 0.03016 0.42236 0.09059 0.0
H578 H 0.98343 0.39901 0.11315 0.0
H579 H 0.97637 0.37897 0.08642 0.0
H580 H 0.99274 0.42748 0.10228 0.0
H581 H 0.01397 0.40222 0.14434 0.0
H582 H 0.03095 0.39201 0.14992 0.0
H583 H 0.07049 0.43613 0.13842 0.0
H584 H 0.05371 0.44657 0.13251 0.0
H585 H 0.99234 0.46174 0.20018 0.0
H586 H 0.9912 0.4457 0.17018 0.0
H587 H 0.03979 0.47578 0.15983 0.0
H588 H 0.04094 0.49164 0.19056 0.0
H589 H 0.03305 0.4474 0.16042 0.0
H590 H 0.01237 0.47335 0.12234 0.0
H591 H 0.99572 0.48388 0.11615 0.0
H592 H 0.95569 0.4391 0.11876 0.0
H593 H 0.97208 0.42831 0.12528 0.0
C594 C 0.01451 0.40106 0.07503 0.0
C595 C 0.9992 0.38896 0.07303 0.0
C596 C 0.0185 0.41271 0.09018 0.0
C597 C 0.00728 0.41228 0.10375 0.0
C598 C 0.99224 0.39968 0.10269 0.0
C599 C 0.98824 0.38818 0.08748 0.0
C600 C 0.01065 0.42534 0.11789 0.0
C601 C 1.00147 0.43174 0.11513 0.0
C602 C 0.02251 0.4314 0.13396 0.0
C603 C 0.03258 0.42514 0.13774 0.0
C604 C 0.02628 0.40972 0.14285 0.0
C605 C 0.03587 0.40389 0.1461 0.0
C606 C 0.05179 0.4134 0.14445 0.0
C607 C 0.05815 0.42877 0.13965 0.0
C608 C 0.04861 0.43465 0.13637 0.0
C609 C 1.00266 0.46511 0.19107 0.0
C610 C 0.01665 0.47801 0.19722 0.0
C611 C 1.00203 0.45596 0.17395 0.0
C612 C 0.01537 0.45963 0.16247 0.0
C613 C 0.02934 0.47277 0.16835 0.0
C614 C 0.02998 0.4819 0.18567 0.0
C615 C 0.0147 0.44912 0.14537 0.0
C616 C 0.02443 0.44327 0.14742 0.0
C617 C 1.00339 0.44359 0.12851 0.0
C618 C 0.99347 0.45003 0.12442 0.0
C619 C 1.00001 0.46575 0.12173 0.0
C620 C 0.99062 0.47177 0.11814 0.0
C621 C 0.97466 0.46217 0.11709 0.0
C622 C 0.96806 0.44653 0.11958 0.0
C623 C 0.9774 0.44045 0.12318 0.0
H624 H 0.96741 0.46685 0.11432 0.0
H625 H 0.05919 0.40886 0.14695 0.0
H626 H 0.61596 0.61884 0.06874 0.0
H627 H 0.59877 0.60164 0.09685 0.0
H628 H 0.63032 0.58625 0.10993 0.0
H629 H 0.64691 0.6027 0.08094 0.0
H630 H 0.60416 0.56319 0.10538 0.0
H631 H 0.62281 0.60876 0.14696 0.0
H632 H 0.62893 0.63476 0.15471 0.0
H633 H 0.58126 0.62042 0.14719 0.0
H634 H 0.57488 0.59436 0.13911 0.0
H635 H 0.57253 0.52685 0.20836 0.0
H636 H 0.58879 0.54421 0.17959 0.0
H637 H 0.54962 0.54433 0.15189 0.0
H638 H 0.53323 0.52663 0.1804 0.0
H639 H 0.57818 0.57452 0.16343 0.0
H640 H 0.56055 0.52809 0.12308 0.0
H641 H 0.55579 0.5023 0.11801 0.0
H642 H 0.60397 0.51919 0.12674 0.0
H643 H 0.60899 0.54506 0.13218 0.0
C644 C 0.61935 0.61205 0.07805 0.0
C645 C 0.63272 0.61206 0.07279 0.0
C646 C 0.60954 0.60221 0.09414 0.0
C647 C 0.61321 0.59259 0.10563 0.0
C648 C 0.62711 0.5934 0.1012 0.0
C649 C 0.63666 0.60289 0.08477 0.0
C650 C 0.6021 0.58079 0.12087 0.0
C651 C 0.59869 0.56581 0.11824 0.0
C652 C 0.59459 0.58398 0.13739 0.0
C653 C 0.59839 0.59964 0.1422 0.0
C654 C 0.61365 0.61117 0.14678 0.0
C655 C 0.61716 0.62592 0.15127 0.0
C656 C 0.6055 0.62925 0.15138 0.0
C657 C 0.59029 0.61783 0.14706 0.0
C658 C 0.58672 0.60307 0.14255 0.0
C659 C 0.56734 0.53023 0.19571 0.0
C660 C 0.55164 0.52528 0.19629 0.0
C661 C 0.57662 0.5402 0.17944 0.0
C662 C 0.57037 0.54555 0.16375 0.0
C663 C 0.5546 0.54029 0.16391 0.0
C664 C 0.54525 0.53008 0.17997 0.0
C665 C 0.58054 0.55721 0.1479 0.0
C666 C 0.58372 0.57208 0.15046 0.0
C667 C 0.5881 0.55402 0.13162 0.0
C668 C 0.58512 0.53849 0.12824 0.0
C669 C 0.57011 0.52629 0.12412 0.0
C670 C 0.56737 0.51166 0.12113 0.0
C671 C 0.57957 0.5091 0.12211 0.0
C672 C 0.59454 0.52118 0.12601 0.0
C673 C 0.59733 0.53583 0.12903 0.0
H674 H 0.57743 0.49777 0.1198 0.0
H675 H 0.60824 0.64067 0.15485 0.0
H676 H 0.38466 0.99182 0.09761 0.0
H677 H 0.40652 1.00214 0.12301 0.0
H678 H 0.43067 0.04241 0.08347 0.0
H679 H 0.40856 0.03214 0.05796 0.0
H680 H 0.44765 0.02862 0.0922 0.0
H681 H 0.42056 0.04622 0.13216 0.0
H682 H 0.3985 0.04514 0.15001 0.0
H683 H 0.39524 0.01111 0.19425 0.0
H684 H 0.41711 0.01177 0.17644 0.0
H685 H 0.48834 0.04574 0.20946 0.0
H686 H 0.4743 0.0502 0.18049 0.0
H687 H 0.46808 0.01116 0.14558 0.0
H688 H 0.48229 0.00682 0.17441 0.0
H689 H 0.4454 0.03179 0.17272 0.0
H690 H 0.46013 0.01244 0.0923 0.0
H691 H 0.48282 0.01477 0.07457 0.0
H692 H 0.51234 0.05536 0.11116 0.0
H693 H 0.48982 0.05341 0.12888 0.0
C694 C 0.39447 1.00304 0.09459 0.0
C695 C 0.3949 0.01119 0.07583 0.0
C696 C 0.40696 0.00894 0.10914 0.0
C697 C 0.42023 0.02305 0.10514 0.0
C698 C 0.42051 0.03151 0.08686 0.0
C699 C 0.40785 0.0257 0.07242 0.0
C700 C 0.4341 0.0281 0.11919 0.0
C701 C 0.44727 0.02951 0.1098 0.0
C702 C 0.43369 0.02951 0.1421 0.0
C703 C 0.42044 0.02898 0.15283 0.0
C704 C 0.41505 0.0384 0.14556 0.0
C705 C 0.40259 0.03788 0.1557 0.0
C706 C 0.39545 0.02804 0.17322 0.0
C707 C 0.40078 0.01872 0.18066 0.0
C708 C 0.41322 0.01917 0.17056 0.0
C709 C 0.48443 0.03843 0.19521 0.0
C710 C 0.48637 0.02591 0.19419 0.0
C711 C 0.47634 0.04094 0.17872 0.0
C712 C 0.47006 0.031 0.16084 0.0
C713 C 0.47299 0.01915 0.159 0.0
C714 C 0.48116 0.01668 0.17547 0.0
C715 C 0.45878 0.03173 0.14585 0.0
C716 C 0.44601 0.03128 0.1551 0.0
C717 C 0.45965 0.03134 0.12282 0.0
C718 C 0.47326 0.03271 0.11203 0.0
C719 C 0.47145 0.02191 0.09648 0.0
C720 C 0.48429 0.02316 0.08645 0.0
C721 C 0.49901 0.03519 0.09177 0.0
C722 C 0.50093 0.04602 0.1071 0.0
C723 C 0.48813 0.04484 0.11717 0.0
H724 H 0.50894 0.03612 0.084 0.0
H725 H 0.38582 0.02767 0.18106 0.0
H726 H 0.38217 0.96797 0.97223 0.0
H727 H 0.39821 0.96963 0.94203 0.0
H728 H 0.40824 0.01485 0.9276 0.0
H729 H 0.39193 0.01322 0.95787 0.0
H730 H 0.40402 0.99878 0.89044 0.0
H731 H 0.434 0.01039 0.95591 0.0
H732 H 0.43986 0.00666 0.99387 0.0
H733 H 0.43656 0.96496 0.9755 0.0
H734 H 0.43045 0.96833 0.93747 0.0
H735 H 0.48198 0.01118 0.85089 0.0
H736 H 0.46586 0.0098 0.88121 0.0
H737 H 0.42533 0.97715 0.84505 0.0
H738 H 0.44143 0.97889 0.81457 0.0
H739 H 0.44633 0.98965 0.90808 0.0
H740 H 0.39613 0.98311 0.85325 0.0
H741 H 0.3919 0.9896 0.81595 0.0
H742 H 0.4389 0.02619 0.81382 0.0
H743 H 0.44337 0.0201 0.85124 0.0
C744 C 0.38766 0.97826 0.96257 0.0
C745 C 0.38589 0.99054 0.96763 0.0
C746 C 0.39688 0.97919 0.94532 0.0
C747 C 0.40467 0.99247 0.93285 0.0
C748 C 0.40239 0.00452 0.93713 0.0
C749 C 0.39307 0.00358 0.95441 0.0
C750 C 0.41559 0.99384 0.91594 0.0
C751 C 0.41327 0.9968 0.89426 0.0
C752 C 0.4279 0.9916 0.92104 0.0
C753 C 0.43164 0.98955 0.94387 0.0
C754 C 0.43441 1.00037 0.96 0.0
C755 C 0.4378 0.99833 0.98152 0.0
C756 C 0.43855 0.98557 0.9871 0.0
C757 C 0.43596 0.97484 0.97115 0.0
C758 C 0.43255 0.97681 0.94961 0.0
C759 C 0.46965 0.00348 0.84971 0.0
C760 C 0.46288 0.9952 0.83047 0.0
C761 C 0.46045 1.00274 0.86694 0.0
C762 C 0.44435 0.99366 0.86519 0.0
C763 C 0.43768 0.98455 0.84655 0.0
C764 C 0.44686 0.98544 0.82925 0.0
C765 C 0.43453 0.99419 0.88241 0.0
C766 C 0.43708 0.99163 0.90419 0.0
C767 C 0.42269 0.99718 0.87745 0.0
C768 C 0.4201 1.00107 0.85501 0.0
C769 C 0.40554 0.9926 0.84487 0.0
C770 C 0.4031 0.99621 0.82371 0.0
C771 C 0.41511 0.00833 0.81256 0.0
C772 C 0.42961 0.01683 0.8225 0.0
C773 C 0.4321 0.01329 0.84368 0.0
H774 H 0.41318 0.01111 0.7962 0.0
H775 H 0.44118 0.98401 0.00378 0.0
H776 H 0.98018 0.39639 0.97017 0.0
H777 H 0.98593 0.41446 0.94095 0.0
H778 H 0.02375 0.40981 0.92121 0.0
H779 H 0.01831 0.3918 0.95135 0.0
H780 H 0.03142 0.43909 0.9187 0.0
H781 H 0.98993 0.39237 0.89199 0.0
H782 H 0.96484 0.36843 0.89263 0.0
H783 H 0.94198 0.3933 0.89954 0.0
H784 H 0.96695 0.4174 0.89926 0.0
H785 H 0.02853 0.46997 0.81206 0.0
H786 H 0.03019 0.45579 0.84324 0.0
H787 H 0.9961 0.46072 0.87671 0.0
H788 H 0.99441 0.47489 0.84562 0.0
H789 H 0.98823 0.43046 0.86979 0.0
H790 H 0.03124 0.47756 0.89698 0.0
H791 H 0.05679 0.50086 0.89467 0.0
H792 H 0.07734 0.47419 0.88375 0.0
H793 H 0.05186 0.45073 0.88569 0.0
C794 C 0.98971 0.39909 0.95964 0.0
C795 C 0.99865 0.39244 0.96296 0.0
C796 C 0.99297 0.40946 0.94284 0.0
C797 C 0.00505 0.41327 0.92852 0.0
C798 C 0.01429 0.40695 0.93198 0.0
C799 C 0.01113 0.39662 0.94911 0.0
C800 C 0.00765 0.42371 0.90995 0.0
C801 C 0.02206 0.43708 0.90775 0.0
C802 C 0.99542 0.42117 0.89569 0.0
C803 C 0.98034 0.4067 0.89575 0.0
C804 C 0.97956 0.39274 0.89379 0.0
C805 C 0.96536 0.37913 0.89407 0.0
C806 C 0.95182 0.37934 0.89617 0.0
C807 C 0.95247 0.39316 0.89793 0.0
C808 C 0.96665 0.4068 0.89768 0.0
C809 C 0.02174 0.46841 0.82637 0.0
C810 C 0.01129 0.47348 0.8264 0.0
C811 C 0.02271 0.46033 0.84416 0.0
C812 C 0.0132 0.45713 0.86223 0.0
C813 C 1.00354 0.46307 0.8629 0.0
C814 C 1.00267 0.47128 0.84522 0.0
C815 C 0.01182 0.44603 0.87901 0.0
C816 C 0.99762 0.43244 0.8807 0.0
C817 C 0.02431 0.44829 0.89241 0.0
C818 C 0.03962 0.46239 0.89124 0.0
C819 C 0.04118 0.47666 0.89387 0.0
C820 C 0.05566 0.4899 0.89268 0.0
C821 C 0.06867 0.48901 0.889 0.0
C822 C 0.06724 0.47487 0.88656 0.0
C823 C 0.05279 0.4616 0.88773 0.0
H824 H 0.07987 0.49927 0.88808 0.0
H825 H 0.94084 0.3688 0.89638 0.0
H826 H 0.63737 0.61839 0.94009 0.0
H827 H 0.61667 0.60733 0.9126 0.0
H828 H 0.58776 0.61466 0.95507 0.0
H829 H 0.6088 0.62632 0.98245 0.0
H830 H 0.57578 0.58301 0.93916 0.0
H831 H 0.59498 0.63298 0.91336 0.0
H832 H 0.61427 0.65885 0.90163 0.0
H833 H 0.62655 0.64073 0.84816 0.0
H834 H 0.60753 0.61472 0.85978 0.0
H835 H 0.51974 0.54946 0.84914 0.0
H836 H 0.53508 0.56495 0.88065 0.0
H837 H 0.57647 0.57337 0.84944 0.0
H838 H 0.56127 0.55785 0.81834 0.0
H839 H 0.57824 0.59963 0.86231 0.0
H840 H 0.56278 0.55019 0.8923 0.0
H841 H 0.54403 0.52412 0.90405 0.0
H842 H 0.52503 0.54128 0.94951 0.0
H843 H 0.54356 0.56747 0.93779 0.0
C844 C 0.62676 0.61807 0.94326 0.0
C845 C 0.62467 0.62329 0.96322 0.0
C846 C 0.61495 0.61172 0.92761 0.0
C847 C 0.60071 0.61017 0.93185 0.0
C848 C 0.59871 0.61583 0.95151 0.0
C849 C 0.61073 0.62258 0.967 0.0
C850 C 0.58773 0.60138 0.91637 0.0
C851 C 0.57604 0.58678 0.92249 0.0
C852 C 0.58829 0.60624 0.89458 0.0
C853 C 0.59989 0.62186 0.88759 0.0
C854 C 0.60191 0.63449 0.89924 0.0
C855 C 0.61277 0.64919 0.89258 0.0
C856 C 0.62165 0.65144 0.87419 0.0
C857 C 0.61967 0.63898 0.86241 0.0
C858 C 0.60883 0.62425 0.86903 0.0
C859 C 0.53207 0.55432 0.84935 0.0
C860 C 0.53937 0.5526 0.83129 0.0
C861 C 0.54082 0.56324 0.86724 0.0
C862 C 0.55693 0.57047 0.86722 0.0
C863 C 0.56408 0.56807 0.84966 0.0
C864 C 0.55539 0.55916 0.83196 0.0
C865 C 0.56662 0.58107 0.88489 0.0
C866 C 0.57772 0.596 0.87912 0.0
C867 C 0.56555 0.57648 0.90695 0.0
C868 C 0.5544 0.56076 0.91395 0.0
C869 C 0.5545 0.5484 0.90463 0.0
C870 C 0.54394 0.5336 0.91132 0.0
C871 C 0.53331 0.53104 0.92745 0.0
C872 C 0.53325 0.54328 0.93697 0.0
C873 C 0.54378 0.5581 0.93032 0.0
H874 H 0.52515 0.51958 0.93262 0.0
H875 H 0.63005 0.66283 0.86904 0.0
H876 H 0.03698 0.6227 0.95502 0.0
H877 H 0.03003 0.60407 0.92629 0.0
H878 H 0.98395 0.59589 0.92412 0.0
H879 H 0.99076 0.61444 0.9536 0.0
H880 H 0.98314 0.56971 0.92404 0.0
H881 H 0.00925 0.61494 0.88245 0.0
H882 H 0.02987 0.6408 0.87278 0.0
H883 H 0.06175 0.62556 0.868 0.0
H884 H 0.04137 0.59964 0.87794 0.0
H885 H 0.96885 0.52972 0.82067 0.0
H886 H 0.9715 0.54657 0.85071 0.0
H887 H 0.01551 0.55254 0.86824 0.0
H888 H 0.01281 0.53552 0.83843 0.0
H889 H 0.01544 0.57995 0.8589 0.0
H890 H 0.98825 0.5344 0.90205 0.0
H891 H 0.96673 0.5087 0.91042 0.0
H892 H 0.93559 0.52503 0.90999 0.0
H893 H 0.9569 0.5508 0.9013 0.0
C894 C 0.02538 0.61711 0.94834 0.0
C895 C 0.01443 0.62012 0.95666 0.0
C896 C 0.02144 0.60646 0.93177 0.0
C897 C 0.00651 0.59866 0.92281 0.0
C898 C 0.99556 0.60179 0.93075 0.0
C899 C 0.9995 0.61247 0.94749 0.0
C900 C 1.00237 0.58684 0.90584 0.0
C901 C 0.99003 0.57203 0.90958 0.0
C902 C 0.01146 0.58976 0.88708 0.0
C903 C 0.02379 0.60536 0.88112 0.0
C904 C 0.02068 0.61712 0.87951 0.0
C905 C 0.03233 0.63179 0.87394 0.0
C906 C 0.04712 0.63483 0.86982 0.0
C907 C 0.05029 0.62319 0.87121 0.0
C908 C 0.03869 0.6085 0.87678 0.0
C909 C 0.97888 0.5343 0.83136 0.0
C910 C 0.99061 0.5313 0.82732 0.0
C911 C 0.98038 0.54392 0.84845 0.0
C912 C 0.99373 0.55084 0.8616 0.0
C913 C 0.00513 0.54729 0.85825 0.0
C914 C 1.00351 0.53748 0.84137 0.0
C915 C 0.99648 0.56285 0.8774 0.0
C916 C 0.00852 0.5777 0.87332 0.0
C917 C 0.98697 0.55999 0.89559 0.0
C918 C 0.97415 0.5445 0.90077 0.0
C919 C 0.97679 0.53248 0.90351 0.0
C920 C 0.96464 0.51791 0.90837 0.0
C921 C 0.94979 0.51522 0.91067 0.0
C922 C 0.94709 0.52712 0.90817 0.0
C923 C 0.9592 0.54172 0.9033 0.0
H924 H 0.9404 0.50393 0.91444 0.0
H925 H 0.05612 0.64619 0.86551 0.0
H926 H 0.39532 0.387 0.95438 0.0
H927 H 0.41428 0.40278 0.92671 0.0
H928 H 0.38423 0.41787 0.90328 0.0
H929 H 0.36551 0.40248 0.93107 0.0
H930 H 0.4003 0.41196 0.8695 0.0
H931 H 0.40943 0.43854 0.93934 0.0
H932 H 0.41463 0.44105 0.97907 0.0
H933 H 0.45571 0.43993 0.96946 0.0
H934 H 0.45061 0.43719 0.92967 0.0
H935 H 0.44328 0.48007 0.81482 0.0
H936 H 0.42668 0.46156 0.84212 0.0
H937 H 0.46554 0.46034 0.8688 0.0
H938 H 0.48225 0.4793 0.84186 0.0
H939 H 0.44697 0.45692 0.90059 0.0
H940 H 0.44089 0.43377 0.83176 0.0
H941 H 0.43653 0.42999 0.79202 0.0
H942 H 0.39116 0.42241 0.79876 0.0
H943 H 0.39536 0.42644 0.83855 0.0
C944 C 0.3926 0.39333 0.94287 0.0
C945 C 0.37899 0.39357 0.94483 0.0
C946 C 0.40345 0.4024 0.92721 0.0
C947 C 0.40068 0.41157 0.91312 0.0
C948 C 0.38658 0.41087 0.914 0.0
C949 C 0.3759 0.40209 0.92987 0.0
C950 C 0.41288 0.42304 0.89891 0.0
C951 C 0.41049 0.42182 0.87623 0.0
C952 C 0.4264 0.43563 0.90774 0.0
C953 C 0.42955 0.43749 0.93159 0.0
C954 C 0.4195 0.43871 0.94572 0.0
C955 C 0.42244 0.44019 0.96824 0.0
C956 C 0.43547 0.4406 0.97679 0.0
C957 C 0.44561 0.43958 0.96282 0.0
C958 C 0.4427 0.43807 0.94029 0.0
C959 C 0.44832 0.47622 0.82703 0.0
C960 C 0.464 0.48113 0.82644 0.0
C961 C 0.43883 0.4655 0.84241 0.0
C962 C 0.44477 0.4592 0.85709 0.0
C963 C 0.46067 0.46493 0.85753 0.0
C964 C 0.47023 0.47584 0.84229 0.0
C965 C 0.43422 0.44611 0.87104 0.0
C966 C 0.43692 0.44699 0.8937 0.0
C967 C 0.42113 0.43303 0.86212 0.0
C968 C 0.41851 0.43056 0.83815 0.0
C969 C 0.43003 0.43143 0.82476 0.0
C970 C 0.42758 0.42923 0.80221 0.0
C971 C 0.41359 0.42602 0.79284 0.0
C972 C 0.402 0.42493 0.80603 0.0
C973 C 0.40441 0.42718 0.8286 0.0
H974 H 0.41171 0.42434 0.77538 0.0
H975 H 0.43772 0.44174 0.99423 0.0
H976 H 0.62582 0.99713 0.94768 0.0
H977 H 0.60716 0.99306 0.91833 0.0
H978 H 0.58691 0.01156 0.95952 0.0
H979 H 0.60563 0.016 0.98842 0.0
H980 H 0.56511 0.98382 0.93589 0.0
H981 H 0.60992 0.03425 0.92583 0.0
H982 H 0.63758 0.05227 0.92052 0.0
H983 H 0.63603 0.02904 0.86174 0.0
H984 H 0.60837 0.01073 0.8669 0.0
H985 H 0.54275 0.01973 0.84092 0.0
H986 H 0.55881 0.02094 0.87227 0.0
H987 H 0.54612 0.97468 0.86027 0.0
H988 H 0.53032 0.97354 0.82879 0.0
H989 H 0.58418 0.01597 0.86953 0.0
H990 H 0.54412 0.95928 0.91271 0.0
H991 H 0.51641 0.94159 0.91841 0.0
H992 H 0.50822 0.97828 0.91155 0.0
H993 H 0.53589 0.99621 0.90613 0.0
C994 C 0.61729 1.00017 0.95045 0.0
C995 C 0.61724 0.00699 0.9702 0.0
C996 C 0.60667 0.99787 0.93374 0.0
C997 C 0.5957 1.00204 0.93681 0.0
C998 C 0.59527 0.00825 0.95686 0.0
C999 C 0.60603 0.01086 0.97328 0.0
C1000 C 0.58512 1.00078 0.9189 0.0
C1001 C 0.56926 0.99074 0.92128 0.0
C1002 C 0.59055 0.01 0.90005 0.0
C1003 C 0.60714 0.02102 0.8969 0.0
C1004 C 0.61551 0.0329 0.91189 0.0
C1005 C 0.63118 0.04318 0.90889 0.0
C1006 C 0.63857 0.04177 0.89084 0.0
C1007 C 0.63029 0.0301 0.87573 0.0
C1008 C 0.61462 0.01977 0.87869 0.0
C1009 C 0.5432 0.00977 0.84528 0.0
C1010 C 0.53529 0.99653 0.83259 0.0
C1011 C 0.55244 0.01049 0.86301 0.0
C1012 C 0.55365 0.9979 0.86853 0.0
C1013 C 0.54529 0.98449 0.85633 0.0
C1014 C 0.53627 0.98384 0.83843 0.0
C1015 C 0.56415 0.99893 0.88643 0.0
C1016 C 0.58001 0.00893 0.88402 0.0
C1017 C 0.5587 0.98968 0.90526 0.0
C1018 C 0.54206 0.97905 0.90877 0.0
C1019 C 0.53641 0.96357 0.91249 0.0
C1020 C 0.52071 0.9535 0.91567 0.0
C1021 C 0.51056 0.9588 0.91527 0.0
C1022 C 0.51609 0.97418 0.91176 0.0
C1023 C 0.53177 0.9843 0.90859 0.0
H1024 H 0.49841 0.95098 0.91772 0.0
H1025 H 0.6507 0.04975 0.88854 0.0
H1026 H 0.61202 0.9812 0.06637 0.0
H1027 H 0.5912 0.97343 0.09244 0.0
H1028 H 0.61512 0.0184 0.12029 0.0
H1029 H 0.63586 0.02619 0.09442 0.0
H1030 H 0.60029 0.99688 0.15152 0.0
H1031 H 0.58951 0.01013 0.08024 0.0
H1032 H 0.58623 0.00771 0.04017 0.0
H1033 H 0.54964 0.96135 0.04691 0.0
H1034 H 0.55288 0.96344 0.08704 0.0
H1035 H 0.5361 0.00894 0.1732 0.0
H1036 H 0.55117 0.00637 0.1446 0.0
H1037 H 0.5468 0.96721 0.17739 0.0
H1038 H 0.53155 0.96955 0.20575 0.0
H1039 H 0.5506 0.98332 0.11567 0.0
H1040 H 0.58419 0.97707 0.18702 0.0
H1041 H 0.58843 0.98238 0.22663 0.0
H1042 H 0.58071 0.01931 0.21875 0.0
H1043 H 0.57669 0.01438 0.17912 0.0
C1044 C 0.61307 0.98927 0.07852 0.0
C1045 C 0.62551 0.00435 0.07823 0.0
C1046 C 0.6011 0.98485 0.09329 0.0
C1047 C 0.60149 0.99542 0.10803 0.0
C1048 C 0.61454 0.01007 0.109 0.0
C1049 C 0.6264 0.01452 0.09418 0.0
C1050 C 0.58781 0.99191 0.12092 0.0
C1051 C 0.58937 0.99368 0.14369 0.0
C1052 C 0.57364 0.98809 0.11068 0.0
C1053 C 0.57155 0.98688 0.0866 0.0
C1054 C 0.58084 0.99939 0.07316 0.0
C1055 C 0.57898 0.99809 0.05045 0.0
C1056 C 0.56777 0.98437 0.041 0.0
C1057 C 0.55835 0.97196 0.05425 0.0
C1058 C 0.56019 0.97319 0.07698 0.0
C1059 C 0.53771 0.99935 0.17371 0.0
C1060 C 0.53287 0.98958 0.19182 0.0
C1061 C 0.54636 0.99792 0.1574 0.0
C1062 C 0.55029 0.98676 0.15914 0.0
C1063 C 0.54397 0.97596 0.17587 0.0
C1064 C 0.53528 0.97732 0.19205 0.0
C1065 C 0.56309 0.98811 0.14619 0.0
C1066 C 0.5614 0.98608 0.12349 0.0
C1067 C 0.57727 0.99202 0.1564 0.0
C1068 C 0.58 0.99525 0.18016 0.0
C1069 C 0.58346 0.98635 0.19375 0.0
C1070 C 0.58584 0.9893 0.2162 0.0
C1071 C 0.58486 1.00119 0.22518 0.0
C1072 C 0.58146 0.01012 0.21177 0.0
C1073 C 0.57913 0.00724 0.18933 0.0
H1074 H 0.5868 0.00353 0.24252 0.0
H1075 H 0.56635 0.98338 0.02341 0.0
H1076 H 0.02857 0.6137 0.06477 0.0
H1077 H 0.0199 0.59439 0.09297 0.0
H1078 H 0.97995 0.59766 0.10316 0.0
H1079 H 0.98844 0.61706 0.07424 0.0
H1080 H 0.99878 0.59781 0.14318 0.0
H1081 H 0.97146 0.56872 0.07989 0.0
H1082 H 0.96864 0.56108 0.04123 0.0
H1083 H 1.00186 0.54774 0.0509 0.0
H1084 H 0.00507 0.55554 0.08956 0.0
H1085 H 0.97825 0.53778 0.21709 0.0
H1086 H 0.97417 0.55095 0.18668 0.0
H1087 H 0.00798 0.54787 0.14925 0.0
H1088 H 0.01175 0.53435 0.17939 0.0
H1089 H 0.98642 0.54614 0.12274 0.0
H1090 H 0.0169 0.57844 0.18303 0.0
H1091 H 0.02165 0.58707 0.22139 0.0
H1092 H 0.98477 0.59578 0.21714 0.0
H1093 H 0.97955 0.58684 0.1789 0.0
C1094 C 0.01796 0.61046 0.073 0.0
C1095 C 0.0092 0.61698 0.06719 0.0
C1096 C 0.01301 0.59934 0.08909 0.0
C1097 C 0.99925 0.59453 0.1 0.0
C1098 C 0.99059 0.60123 0.09482 0.0
C1099 C 0.99545 0.61228 0.07833 0.0
C1100 C 0.99421 0.58241 0.11666 0.0
C1101 C 0.99563 0.58636 0.13879 0.0
C1102 C 0.99055 0.56764 0.11082 0.0
C1103 C 0.98857 0.56281 0.08761 0.0
C1104 C 0.97826 0.56427 0.07374 0.0
C1105 C 0.97657 0.55989 0.05183 0.0
C1106 C 0.98508 0.55395 0.0436 0.0
C1107 C 0.99527 0.55235 0.05729 0.0
C1108 C 0.99701 0.55673 0.07922 0.0
C1109 C 0.98443 0.53951 0.20207 0.0
C1110 C 0.99538 0.53514 0.2006 0.0
C1111 C 0.98219 0.54713 0.18478 0.0
C1112 C 0.99108 0.55079 0.1659 0.0
C1113 C 1.00105 0.54527 0.1637 0.0
C1114 C 1.00315 0.53747 0.18089 0.0
C1115 C 0.99123 0.56156 0.1494 0.0
C1116 C 0.98908 0.55741 0.12725 0.0
C1117 C 0.99443 0.57623 0.15526 0.0
C1118 C 0.99768 0.58175 0.17819 0.0
C1119 C 0.00971 0.58207 0.19033 0.0
C1120 C 0.01249 0.58702 0.21204 0.0
C1121 C 1.00347 0.5919 0.2217 0.0
C1122 C 0.9917 0.59192 0.20965 0.0
C1123 C 0.98881 0.58689 0.18797 0.0
H1124 H 0.0056 0.5957 0.23852 0.0
H1125 H 0.98376 0.55057 0.02663 0.0
H1126 H 0.38921 0.37571 0.05822 0.0
H1127 H 0.4093 0.3879 0.08658 0.0
H1128 H 0.40318 0.42625 0.08693 0.0
H1129 H 0.38328 0.4143 0.05874 0.0
H1130 H 0.43328 0.4352 0.08476 0.0
H1131 H 0.38948 0.40048 0.12787 0.0
H1132 H 0.36773 0.3754 0.13833 0.0
H1133 H 0.39863 0.35936 0.14976 0.0
H1134 H 0.42055 0.3843 0.13908 0.0
H1135 H 0.47182 0.47298 0.18357 0.0
H1136 H 0.45427 0.46029 0.15251 0.0
H1137 H 0.4603 0.42205 0.16036 0.0
H1138 H 0.47748 0.43456 0.1917 0.0
H1139 H 0.43123 0.41231 0.1571 0.0
H1140 H 0.47529 0.44715 0.11616 0.0
H1141 H 0.49725 0.47207 0.1056 0.0
H1142 H 0.46652 0.48766 0.08954 0.0
H1143 H 0.44438 0.4629 0.1003 0.0
C1144 C 0.39203 0.38667 0.06451 0.0
C1145 C 0.38462 0.39401 0.05616 0.0
C1146 C 0.40353 0.39362 0.0807 0.0
C1147 C 0.40775 0.40801 0.08885 0.0
C1148 C 0.40018 0.41521 0.0808 0.0
C1149 C 0.38873 0.40829 0.06472 0.0
C1150 C 0.42022 0.41581 0.10551 0.0
C1151 C 0.43278 0.43027 0.10067 0.0
C1152 C 0.41979 0.40919 0.126 0.0
C1153 C 0.40662 0.3942 0.13244 0.0
C1154 C 0.39162 0.39156 0.13243 0.0
C1155 C 0.37926 0.37738 0.13844 0.0
C1156 C 0.38179 0.36578 0.14464 0.0
C1157 C 0.39669 0.36835 0.14491 0.0
C1158 C 0.40908 0.38251 0.1389 0.0
C1159 C 0.46965 0.46203 0.17828 0.0
C1160 C 0.476 0.45475 0.18992 0.0
C1161 C 0.45962 0.45476 0.16056 0.0
C1162 C 0.45599 0.44021 0.15399 0.0
C1163 C 0.46285 0.43323 0.16514 0.0
C1164 C 0.47271 0.4404 0.18295 0.0
C1165 C 0.4443 0.43182 0.13647 0.0
C1166 C 0.43185 0.41724 0.14115 0.0
C1167 C 0.44489 0.4383 0.11577 0.0
C1168 C 0.45818 0.4532 0.10922 0.0
C1169 C 0.47322 0.45593 0.11054 0.0
C1170 C 0.4857 0.47002 0.10449 0.0
C1171 C 0.48328 0.48145 0.09695 0.0
C1172 C 0.46837 0.4788 0.0954 0.0
C1173 C 0.45585 0.46473 0.10145 0.0
H1174 H 0.49296 0.49235 0.09228 0.0
H1175 H 0.37221 0.3548 0.14929 0.0
H1176 H 0.62791 0.71329 0.39441 0.0
H1177 H 0.6303 0.7298 0.42437 0.0
H1178 H 0.67719 0.74171 0.43581 0.0
H1179 H 0.6748 0.72488 0.40586 0.0
H1180 H 0.66293 0.73864 0.47387 0.0
H1181 H 0.66958 0.76538 0.40705 0.0
H1182 H 0.66306 0.76921 0.36952 0.0
H1183 H 0.62115 0.76465 0.39201 0.0
H1184 H 0.62731 0.76058 0.42965 0.0
H1185 H 0.67537 0.81609 0.51138 0.0
H1186 H 0.67245 0.79913 0.48135 0.0
H1187 H 0.64233 0.76035 0.52091 0.0
H1188 H 0.64553 0.7773 0.55102 0.0
H1189 H 0.65053 0.77826 0.45664 0.0
H1190 H 0.64921 0.73195 0.51257 0.0
H1191 H 0.65833 0.72968 0.54919 0.0
H1192 H 0.6943 0.77656 0.54721 0.0
H1193 H 0.68557 0.77905 0.51043 0.0
C1194 C 0.63872 0.7193 0.40339 0.0
C1195 C 0.65124 0.71788 0.39757 0.0
C1196 C 0.64007 0.72879 0.42049 0.0
C1197 C 0.65402 0.73727 0.43203 0.0
C1198 C 0.66634 0.73535 0.42702 0.0
C1199 C 0.66496 0.72572 0.40992 0.0
C1200 C 0.65578 0.74849 0.44872 0.0
C1201 C 0.66022 0.7473 0.47011 0.0
C1202 C 0.65256 0.76001 0.44374 0.0
C1203 C 0.64885 0.76255 0.42114 0.0
C1204 C 0.65892 0.76509 0.40397 0.0
C1205 C 0.65529 0.76732 0.38268 0.0
C1206 C 0.64168 0.76714 0.37837 0.0
C1207 C 0.63168 0.76477 0.39537 0.0
C1208 C 0.63524 0.76252 0.41669 0.0
C1209 C 0.66785 0.80396 0.5134 0.0
C1210 C 0.66076 0.79795 0.53348 0.0
C1211 C 0.66624 0.79427 0.49631 0.0
C1212 C 0.65748 0.77844 0.49906 0.0
C1213 C 0.64947 0.7725 0.51859 0.0
C1214 C 0.6512 0.78216 0.53571 0.0
C1215 C 0.65731 0.76819 0.48195 0.0
C1216 C 0.65321 0.76959 0.46044 0.0
C1217 C 0.66119 0.75709 0.48674 0.0
C1218 C 0.66665 0.75569 0.50879 0.0
C1219 C 0.65912 0.74175 0.51989 0.0
C1220 C 0.66422 0.74042 0.54068 0.0
C1221 C 0.67691 0.75295 0.55048 0.0
C1222 C 0.68449 0.76686 0.53957 0.0
C1223 C 0.67946 0.76823 0.51876 0.0
H1224 H 0.68086 0.75189 0.56655 0.0
H1225 H 0.63889 0.76887 0.36188 0.0
H1226 H 0.27991 0.9521 0.40453 0.0
H1227 H 0.26536 0.93644 0.43563 0.0
H1228 H 0.29934 0.92387 0.44637 0.0
H1229 H 0.31335 0.9388 0.41457 0.0
H1230 H 0.27349 0.89989 0.44548 0.0
H1231 H 0.29263 0.9468 0.48319 0.0
H1232 H 0.29829 0.97281 0.48943 0.0
H1233 H 0.25006 0.95686 0.48696 0.0
H1234 H 0.24411 0.93077 0.48041 0.0
H1235 H 0.2446 0.86517 0.55075 0.0
H1236 H 0.26031 0.88218 0.52126 0.0
H1237 H 0.2207 0.88213 0.49505 0.0
H1238 H 0.20486 0.8648 0.52419 0.0
H1239 H 0.24914 0.91231 0.50463 0.0
H1240 H 0.23112 0.86489 0.46665 0.0
H1241 H 0.2268 0.83919 0.46258 0.0
H1242 H 0.27535 0.85718 0.46857 0.0
H1243 H 0.27994 0.88298 0.473 0.0
C1244 C 0.28447 0.94634 0.41397 0.0
C1245 C 0.29773 0.94663 0.40721 0.0
C1246 C 0.27615 0.93737 0.43177 0.0
C1247 C 0.28121 0.92891 0.44345 0.0
C1248 C 0.29508 0.93013 0.43755 0.0
C1249 C 0.30316 0.93877 0.41949 0.0
C1250 C 0.27139 0.91765 0.4603 0.0
C1251 C 0.26842 0.90276 0.4586 0.0
C1252 C 0.26441 0.92117 0.47722 0.0
C1253 C 0.26794 0.93685 0.48109 0.0
C1254 C 0.28324 0.94886 0.48379 0.0
C1255 C 0.28649 0.96361 0.48742 0.0
C1256 C 0.27454 0.96649 0.48853 0.0
C1257 C 0.2593 0.95461 0.48607 0.0
C1258 C 0.25598 0.93984 0.48242 0.0
C1259 C 0.23919 0.86847 0.53831 0.0
C1260 C 0.22351 0.86355 0.53949 0.0
C1261 C 0.24816 0.87823 0.52162 0.0
C1262 C 0.24165 0.88344 0.50613 0.0
C1263 C 0.22591 0.87823 0.50692 0.0
C1264 C 0.21686 0.86822 0.52336 0.0
C1265 C 0.25143 0.89481 0.48965 0.0
C1266 C 0.25434 0.90962 0.49147 0.0
C1267 C 0.2586 0.89134 0.4731 0.0
C1268 C 0.25586 0.87584 0.47039 0.0
C1269 C 0.24086 0.86335 0.46731 0.0
C1270 C 0.23837 0.84877 0.46489 0.0
C1271 C 0.25079 0.84655 0.46538 0.0
C1272 C 0.26574 0.85891 0.46823 0.0
C1273 C 0.26829 0.87352 0.47068 0.0
H1274 H 0.24884 0.83525 0.46349 0.0
H1275 H 0.27709 0.97792 0.49135 0.0
H1276 H 0.0659 0.31998 0.39079 0.0
H1277 H 0.08613 0.32765 0.41811 0.0
H1278 H 0.08284 0.36642 0.43463 0.0
H1279 H 0.06255 0.35894 0.4065 0.0
H1280 H 0.11273 0.37379 0.43395 0.0
H1281 H 0.06708 0.3355 0.4678 0.0
H1282 H 0.04282 0.3109 0.47101 0.0
H1283 H 0.06733 0.28755 0.46523 0.0
H1284 H 0.09172 0.31201 0.46168 0.0
H1285 H 0.15336 0.38165 0.53604 0.0
H1286 H 0.13621 0.37996 0.50625 0.0
H1287 H 0.1353 0.34056 0.48109 0.0
H1288 H 0.15208 0.34193 0.51117 0.0
H1289 H 0.10677 0.3352 0.48826 0.0
H1290 H 0.15261 0.37438 0.45335 0.0
H1291 H 0.17654 0.39935 0.451 0.0
H1292 H 0.1512 0.42152 0.46065 0.0
H1293 H 0.12714 0.39667 0.46336 0.0
C1294 C 0.06937 0.33014 0.4002 0.0
C1295 C 0.06241 0.33873 0.3966 0.0
C1296 C 0.08098 0.3345 0.4159 0.0
C1297 C 0.08581 0.34743 0.42878 0.0
C1298 C 0.07922 0.35633 0.42497 0.0
C1299 C 0.06759 0.35202 0.40897 0.0
C1300 C 0.09759 0.35127 0.44632 0.0
C1301 C 0.11133 0.36546 0.44608 0.0
C1302 C 0.09587 0.34035 0.46204 0.0
C1303 C 0.08122 0.3256 0.46433 0.0
C1304 C 0.06729 0.32512 0.46707 0.0
C1305 C 0.05351 0.3112 0.46897 0.0
C1306 C 0.05353 0.29767 0.46828 0.0
C1307 C 0.06733 0.29804 0.46575 0.0
C1308 C 0.08114 0.31193 0.46383 0.0
C1309 C 0.14977 0.37281 0.52389 0.0
C1310 C 0.15401 0.36185 0.52608 0.0
C1311 C 0.14001 0.37191 0.5068 0.0
C1312 C 0.13441 0.3601 0.49146 0.0
C1313 C 0.13945 0.34975 0.49278 0.0
C1314 C 0.14919 0.35064 0.50987 0.0
C1315 C 0.12211 0.35753 0.47548 0.0
C1316 C 0.10817 0.34357 0.47618 0.0
C1317 C 0.12364 0.36872 0.46044 0.0
C1318 C 0.1381 0.38366 0.45878 0.0
C1319 C 0.15216 0.38458 0.45516 0.0
C1320 C 0.16574 0.39871 0.45372 0.0
C1321 C 0.1654 0.41201 0.45573 0.0
C1322 C 0.15146 0.41121 0.45913 0.0
C1323 C 0.13784 0.3971 0.46059 0.0
H1324 H 0.17593 0.42294 0.45461 0.0
H1325 H 0.04286 0.28691 0.46975 0.0
H1326 H 0.02963 0.30659 0.27403 0.0
H1327 H 0.0452 0.30729 0.24361 0.0
H1328 H 0.08219 0.35118 0.26507 0.0
H1329 H 0.06623 0.35082 0.29494 0.0
H1330 H 0.0825 0.34955 0.22215 0.0
H1331 H 0.08001 0.3176 0.28127 0.0
H1332 H 0.06721 0.297 0.30826 0.0
H1333 H 0.0456 0.26448 0.25639 0.0
H1334 H 0.05811 0.28492 0.22909 0.0
H1335 H 0.14233 0.3427 0.1754 0.0
H1336 H 0.12601 0.34297 0.20431 0.0
H1337 H 0.08603 0.30608 0.17249 0.0
H1338 H 0.10229 0.30608 0.1433 0.0
H1339 H 0.08803 0.30448 0.22094 0.0
H1340 H 0.09069 0.33731 0.16202 0.0
H1341 H 0.10443 0.35821 0.13575 0.0
H1342 H 0.12719 0.3895 0.18873 0.0
H1343 H 0.11372 0.36871 0.21532 0.0
C1344 C 0.0409 0.31659 0.27181 0.0
C1345 C 0.04679 0.32862 0.28682 0.0
C1346 C 0.04986 0.31692 0.25458 0.0
C1347 C 0.06508 0.32904 0.2525 0.0
C1348 C 0.07054 0.34164 0.26646 0.0
C1349 C 0.06141 0.34147 0.28346 0.0
C1350 C 0.07557 0.32796 0.23702 0.0
C1351 C 0.08382 0.33978 0.2221 0.0
C1352 C 0.07728 0.31515 0.23677 0.0
C1353 C 0.06989 0.30281 0.25315 0.0
C1354 C 0.07246 0.30606 0.27563 0.0
C1355 C 0.06526 0.29442 0.29098 0.0
C1356 C 0.05557 0.27945 0.28404 0.0
C1357 C 0.0531 0.27609 0.26174 0.0
C1358 C 0.06025 0.28769 0.24632 0.0
C1359 C 0.13012 0.3344 0.17499 0.0
C1360 C 0.12351 0.32427 0.15738 0.0
C1361 C 0.12082 0.33464 0.19133 0.0
C1362 C 0.10484 0.32462 0.19037 0.0
C1363 C 0.09835 0.31388 0.17348 0.0
C1364 C 0.1076 0.31383 0.15693 0.0
C1365 C 0.09477 0.32598 0.20614 0.0
C1366 C 0.08667 0.31424 0.22111 0.0
C1367 C 0.09334 0.3389 0.20658 0.0
C1368 C 0.10133 0.35143 0.19064 0.0
C1369 C 0.09873 0.34862 0.16806 0.0
C1370 C 0.10644 0.36045 0.15312 0.0
C1371 C 0.11671 0.37516 0.16057 0.0
C1372 C 0.11925 0.37809 0.18298 0.0
C1373 C 0.11157 0.36629 0.198 0.0
H1374 H 0.12268 0.38431 0.14898 0.0
H1375 H 0.05001 0.27045 0.29595 0.0
H1376 H 0.65108 0.71587 0.26797 0.0
H1377 H 0.66281 0.73671 0.24184 0.0
H1378 H 0.70499 0.75779 0.27975 0.0
H1379 H 0.6933 0.73668 0.30599 0.0
H1380 H 0.69399 0.77718 0.27084 0.0
H1381 H 0.70543 0.74496 0.23138 0.0
H1382 H 0.70108 0.72164 0.21369 0.0
H1383 H 0.66789 0.72201 0.16988 0.0
H1384 H 0.67178 0.74515 0.1876 0.0
H1385 H 0.71243 0.81415 0.15234 0.0
H1386 H 0.71586 0.80026 0.18226 0.0
H1387 H 0.67839 0.79877 0.21641 0.0
H1388 H 0.67501 0.81274 0.18655 0.0
H1389 H 0.69446 0.7721 0.19042 0.0
H1390 H 0.68049 0.79244 0.27051 0.0
H1391 H 0.68619 0.81645 0.28751 0.0
H1392 H 0.72709 0.84091 0.24958 0.0
H1393 H 0.72178 0.81704 0.23258 0.0
C1394 C 0.66297 0.72476 0.27052 0.0
C1395 C 0.67128 0.72465 0.28903 0.0
C1396 C 0.66967 0.73666 0.25554 0.0
C1397 C 0.68477 0.7488 0.25883 0.0
C1398 C 0.69332 0.7485 0.2769 0.0
C1399 C 0.68668 0.73641 0.29177 0.0
C1400 C 0.69092 0.76224 0.24428 0.0
C1401 C 0.69428 0.77615 0.25326 0.0
C1402 C 0.69151 0.76094 0.22138 0.0
C1403 C 0.68884 0.74678 0.21096 0.0
C1404 C 0.69707 0.73998 0.21815 0.0
C1405 C 0.69471 0.7268 0.20808 0.0
C1406 C 0.6842 0.72034 0.19069 0.0
C1407 C 0.67602 0.72703 0.18337 0.0
C1408 C 0.6783 0.74018 0.19342 0.0
C1409 C 0.70529 0.81131 0.1666 0.0
C1410 C 0.69338 0.81442 0.16707 0.0
C1411 C 0.70721 0.80332 0.18364 0.0
C1412 C 0.69732 0.79835 0.20154 0.0
C1413 C 0.68629 0.80261 0.20292 0.0
C1414 C 0.68438 0.81065 0.18586 0.0
C1415 C 0.69693 0.78689 0.21687 0.0
C1416 C 0.69452 0.77329 0.20802 0.0
C1417 C 0.69729 0.78852 0.23984 0.0
C1418 C 0.70067 0.80293 0.25016 0.0
C1419 C 0.69075 0.80293 0.26588 0.0
C1420 C 0.6939 0.81652 0.2755 0.0
C1421 C 0.70697 0.8302 0.26959 0.0
C1422 C 0.71694 0.83031 0.25409 0.0
C1423 C 0.71385 0.81675 0.24443 0.0
H1424 H 0.70939 0.84071 0.27705 0.0
H1425 H 0.68242 0.71016 0.18287 0.0
H1426 H 0.26551 0.92434 0.30966 0.0
H1427 H 0.24558 0.91474 0.28144 0.0
H1428 H 0.26273 0.96028 0.25823 0.0
H1429 H 0.28278 0.97015 0.28713 0.0
H1430 H 0.23022 0.94189 0.25637 0.0
H1431 H 0.27331 0.93962 0.23217 0.0
H1432 H 0.29396 0.93389 0.23512 0.0
H1433 H 0.2604 0.88649 0.24217 0.0
H1434 H 0.23954 0.89196 0.23958 0.0
H1435 H 0.19458 0.91251 0.15012 0.0
H1436 H 0.2108 0.92655 0.18157 0.0
H1437 H 0.20059 0.88448 0.21182 0.0
H1438 H 0.18486 0.87042 0.18019 0.0
H1439 H 0.23097 0.90386 0.2081 0.0
H1440 H 0.18778 0.9066 0.23299 0.0
H1441 H 0.16743 0.91274 0.22977 0.0
H1442 H 0.20148 0.95972 0.22007 0.0
H1443 H 0.22203 0.95382 0.22295 0.0
C1444 C 0.26502 0.93239 0.29871 0.0
C1445 C 0.2759 0.948 0.30038 0.0
C1446 C 0.25358 0.92686 0.28259 0.0
C1447 C 0.25287 0.93675 0.26744 0.0
C1448 C 0.26315 0.95246 0.26971 0.0
C1449 C 0.2746 0.95807 0.28615 0.0
C1450 C 0.24205 0.9303 0.24851 0.0
C1451 C 0.2305 0.93375 0.24556 0.0
C1452 C 0.24235 0.91959 0.23453 0.0
C1453 C 0.25486 0.91622 0.23583 0.0
C1454 C 0.27033 0.92798 0.23449 0.0
C1455 C 0.28208 0.92478 0.23608 0.0
C1456 C 0.27849 0.90984 0.23887 0.0
C1457 C 0.26315 0.89806 0.24001 0.0
C1458 C 0.25137 0.90121 0.23846 0.0
C1459 C 0.19556 0.90622 0.16365 0.0
C1460 C 0.18851 0.89032 0.16249 0.0
C1461 C 0.20477 0.91427 0.18169 0.0
C1462 C 0.20696 0.90657 0.19902 0.0
C1463 C 0.19909 0.89066 0.19859 0.0
C1464 C 0.18994 0.88261 0.18056 0.0
C1465 C 0.21876 0.91501 0.21633 0.0
C1466 C 0.23065 0.91202 0.21882 0.0
C1467 C 0.21878 0.92619 0.22965 0.0
C1468 C 0.20643 0.92974 0.22795 0.0
C1469 C 0.19092 0.91822 0.22998 0.0
C1470 C 0.17935 0.92166 0.22825 0.0
C1471 C 0.18316 0.9366 0.22465 0.0
C1472 C 0.19855 0.94815 0.22283 0.0
C1473 C 0.21016 0.94476 0.22452 0.0
H1474 H 0.17418 0.93925 0.22332 0.0
H1475 H 0.2876 0.90738 0.2401 0.0
H1476 H 0.66069 0.95178 0.28425 0.0
H1477 H 0.65413 0.93235 0.25628 0.0
H1478 H 0.70087 0.94231 0.25818 0.0
H1479 H 0.70758 0.96192 0.28527 0.0
H1480 H 0.69103 0.93687 0.21831 0.0
H1481 H 0.67066 0.91215 0.28762 0.0
H1482 H 0.65478 0.90597 0.32047 0.0
H1483 H 0.61407 0.88799 0.28017 0.0
H1484 H 0.62975 0.89425 0.24706 0.0
H1485 H 0.6862 0.87096 0.1809 0.0
H1486 H 0.68691 0.88795 0.20928 0.0
H1487 H 0.64337 0.88059 0.18587 0.0
H1488 H 0.64273 0.86375 0.15724 0.0
H1489 H 0.64915 0.88426 0.23456 0.0
H1490 H 0.67039 0.9079 0.16511 0.0
H1491 H 0.68687 0.91284 0.13328 0.0
H1492 H 0.72683 0.93242 0.17532 0.0
H1493 H 0.71053 0.92726 0.20748 0.0
C1494 C 0.66962 0.95002 0.27836 0.0
C1495 C 0.68463 0.95834 0.28717 0.0
C1496 C 0.66583 0.93881 0.26252 0.0
C1497 C 0.67692 0.93561 0.25544 0.0
C1498 C 0.69207 0.94448 0.26339 0.0
C1499 C 0.69588 0.95571 0.27899 0.0
C1500 C 0.67288 0.92268 0.24053 0.0
C1501 C 0.68191 0.92538 0.222 0.0
C1502 C 0.66082 0.90766 0.24501 0.0
C1503 C 0.65139 0.90382 0.26488 0.0
C1504 C 0.65833 0.90697 0.28578 0.0
C1505 C 0.64937 0.90344 0.30443 0.0
C1506 C 0.63343 0.89664 0.30241 0.0
C1507 C 0.62642 0.8933 0.28171 0.0
C1508 C 0.63534 0.89683 0.263 0.0
C1509 C 0.6765 0.87249 0.18239 0.0
C1510 C 0.66442 0.86609 0.16693 0.0
C1511 C 0.67695 0.88225 0.19849 0.0
C1512 C 0.66527 0.88562 0.19946 0.0
C1513 C 0.65247 0.8781 0.18538 0.0
C1514 C 0.65211 0.8685 0.16908 0.0
C1515 C 0.66752 0.89853 0.21287 0.0
C1516 C 0.65815 0.8958 0.23092 0.0
C1517 C 0.67935 0.91353 0.2081 0.0
C1518 C 0.68922 0.91706 0.18872 0.0
C1519 C 0.68268 0.91316 0.16759 0.0
C1520 C 0.69199 0.916 0.14948 0.0
C1521 C 0.70789 0.92292 0.15228 0.0
C1522 C 0.71451 0.92705 0.17318 0.0
C1523 C 0.70524 0.92416 0.19135 0.0
H1524 H 0.71507 0.92511 0.13825 0.0
H1525 H 0.62651 0.89391 0.31687 0.0
H1526 H 0.05895 0.7582 0.31273 0.0
H1527 H 0.07643 0.77289 0.2837 0.0
H1528 H 0.07099 0.73204 0.25595 0.0
H1529 H 0.05353 0.71709 0.28556 0.0
H1530 H 0.10102 0.75537 0.25586 0.0
H1531 H 0.05259 0.74819 0.2328 0.0
H1532 H 0.02851 0.74819 0.23654 0.0
H1533 H 0.05432 0.79624 0.24804 0.0
H1534 H 0.07856 0.7965 0.24466 0.0
H1535 H 0.12954 0.78939 0.15116 0.0
H1536 H 0.11621 0.7739 0.18294 0.0
H1537 H 0.11932 0.81287 0.21385 0.0
H1538 H 0.13228 0.82831 0.18174 0.0
H1539 H 0.09029 0.78945 0.21164 0.0
H1540 H 0.13894 0.79644 0.23422 0.0
H1541 H 0.1628 0.79611 0.22996 0.0
H1542 H 0.13641 0.74809 0.21831 0.0
H1543 H 0.11237 0.74816 0.22219 0.0
C1544 C 0.06136 0.75224 0.30046 0.0
C1545 C 0.05469 0.73641 0.30137 0.0
C1546 C 0.07138 0.7607 0.28383 0.0
C1547 C 0.07483 0.75354 0.26747 0.0
C1548 C 0.06842 0.73777 0.2684 0.0
C1549 C 0.0584 0.72924 0.28524 0.0
C1550 C 0.08502 0.76271 0.24939 0.0
C1551 C 0.09859 0.76266 0.24593 0.0
C1552 C 0.08197 0.77243 0.23675 0.0
C1553 C 0.0674 0.77234 0.23864 0.0
C1554 C 0.05313 0.75874 0.23627 0.0
C1555 C 0.03945 0.75869 0.23831 0.0
C1556 C 0.03989 0.7722 0.24257 0.0
C1557 C 0.054 0.78578 0.24475 0.0
C1558 C 0.06771 0.78589 0.24275 0.0
C1559 C 0.12761 0.7947 0.1649 0.0
C1560 C 0.13177 0.80999 0.16389 0.0
C1561 C 0.1201 0.78587 0.18313 0.0
C1562 C 0.11673 0.79222 0.20076 0.0
C1563 C 0.12178 0.80775 0.20038 0.0
C1564 C 0.12929 0.81658 0.18213 0.0
C1565 C 0.10647 0.78236 0.21832 0.0
C1566 C 0.09279 0.78221 0.22157 0.0
C1567 C 0.10941 0.77241 0.2306 0.0
C1568 C 0.12385 0.77234 0.2283 0.0
C1569 C 0.13822 0.78583 0.23056 0.0
C1570 C 0.15178 0.78568 0.22825 0.0
C1571 C 0.15112 0.77209 0.22381 0.0
C1572 C 0.1369 0.75861 0.22172 0.0
C1573 C 0.12331 0.7587 0.224 0.0
H1574 H 0.16163 0.772 0.22203 0.0
H1575 H 0.02928 0.77214 0.24415 0.0
H1576 H 0.28406 0.35998 0.29243 0.0
H1577 H 0.26342 0.3528 0.26587 0.0
H1578 H 0.25724 0.30833 0.26027 0.0
H1579 H 0.27806 0.3154 0.28733 0.0
H1580 H 0.25688 0.32223 0.21936 0.0
H1581 H 0.23221 0.31052 0.28843 0.0
H1582 H 0.22879 0.31525 0.32673 0.0
H1583 H 0.22421 0.35271 0.3066 0.0
H1584 H 0.22785 0.34835 0.26819 0.0
H1585 H 0.18961 0.29774 0.15642 0.0
H1586 H 0.20553 0.29829 0.18721 0.0
H1587 H 0.21465 0.34257 0.20541 0.0
H1588 H 0.19851 0.34196 0.17468 0.0
H1589 H 0.2119 0.32541 0.24129 0.0
H1590 H 0.23919 0.33904 0.17343 0.0
H1591 H 0.24296 0.33507 0.13493 0.0
H1592 H 0.24324 0.29485 0.15268 0.0
H1593 H 0.23918 0.29844 0.19127 0.0
C1594 C 0.27845 0.34867 0.28555 0.0
C1595 C 0.28271 0.33823 0.29217 0.0
C1596 C 0.26657 0.34458 0.27039 0.0
C1597 C 0.25865 0.32997 0.26137 0.0
C1598 C 0.26318 0.31964 0.26719 0.0
C1599 C 0.27507 0.3237 0.28261 0.0
C1600 C 0.24557 0.32573 0.24605 0.0
C1601 C 0.24687 0.32258 0.22424 0.0
C1602 C 0.23271 0.32655 0.25236 0.0
C1603 C 0.23042 0.32917 0.27543 0.0
C1604 C 0.23059 0.31984 0.29218 0.0
C1605 C 0.2286 0.32244 0.31391 0.0
C1606 C 0.22631 0.33429 0.3191 0.0
C1607 C 0.22599 0.34354 0.30255 0.0
C1608 C 0.228 0.34099 0.2808 0.0
C1609 C 0.19477 0.30745 0.16728 0.0
C1610 C 0.19297 0.31987 0.1631 0.0
C1611 C 0.20389 0.30778 0.1848 0.0
C1612 C 0.21156 0.32061 0.19831 0.0
C1613 C 0.20889 0.33258 0.19512 0.0
C1614 C 0.19965 0.33221 0.17762 0.0
C1615 C 0.22328 0.32208 0.21453 0.0
C1616 C 0.22177 0.3248 0.23649 0.0
C1617 C 0.236 0.32094 0.20833 0.0
C1618 C 0.23871 0.31891 0.1852 0.0
C1619 C 0.23995 0.32929 0.1691 0.0
C1620 C 0.24214 0.32711 0.14727 0.0
C1621 C 0.2433 0.31469 0.14135 0.0
C1622 C 0.24231 0.30445 0.15728 0.0
C1623 C 0.24006 0.30655 0.17914 0.0
H1624 H 0.245 0.31302 0.12444 0.0
H1625 H 0.22477 0.33629 0.33593 0.0
H1626 H 0.29829 0.36411 0.41086 0.0
H1627 H 0.27975 0.35816 0.43941 0.0
H1628 H 0.26069 0.31033 0.42858 0.0
H1629 H 0.27923 0.31627 0.39932 0.0
H1630 H 0.23833 0.31666 0.42966 0.0
H1631 H 0.28024 0.327 0.47615 0.0
H1632 H 0.30683 0.34057 0.49059 0.0
H1633 H 0.30335 0.37932 0.50512 0.0
H1634 H 0.2768 0.36608 0.49047 0.0
H1635 H 0.20056 0.30984 0.53725 0.0
H1636 H 0.21506 0.30708 0.50784 0.0
H1637 H 0.2268 0.35088 0.48259 0.0
H1638 H 0.21205 0.35353 0.5116 0.0
H1639 H 0.25168 0.34211 0.50198 0.0
H1640 H 0.21026 0.33145 0.4495 0.0
H1641 H 0.18339 0.31653 0.43625 0.0
H1642 H 0.18599 0.2763 0.43543 0.0
H1643 H 0.21283 0.29097 0.44901 0.0
C1644 C 0.29035 0.3523 0.41474 0.0
C1645 C 0.29022 0.34066 0.40275 0.0
C1646 C 0.27977 0.34891 0.4312 0.0
C1647 C 0.26887 0.33379 0.43628 0.0
C1648 C 0.26902 0.32208 0.42494 0.0
C1649 C 0.27969 0.32549 0.40837 0.0
C1650 C 0.25677 0.33054 0.45238 0.0
C1651 C 0.24126 0.32198 0.44565 0.0
C1652 C 0.26053 0.3375 0.47324 0.0
C1653 C 0.27653 0.34556 0.48208 0.0
C1654 C 0.28517 0.33846 0.48227 0.0
C1655 C 0.30024 0.34609 0.49053 0.0
C1656 C 0.30679 0.36081 0.49874 0.0
C1657 C 0.29826 0.36792 0.49875 0.0
C1658 C 0.28319 0.36035 0.49051 0.0
C1659 C 0.20572 0.31857 0.52486 0.0
C1660 C 0.20516 0.33187 0.52656 0.0
C1661 C 0.21401 0.31701 0.50817 0.0
C1662 C 0.22194 0.32878 0.49313 0.0
C1663 C 0.2206 0.34163 0.49397 0.0
C1664 C 0.21211 0.34309 0.51043 0.0
C1665 C 0.23348 0.32879 0.47883 0.0
C1666 C 0.24884 0.33666 0.48608 0.0
C1667 C 0.22956 0.32104 0.45867 0.0
C1668 C 0.21345 0.31225 0.4506 0.0
C1669 C 0.20503 0.31938 0.44678 0.0
C1670 C 0.18983 0.31099 0.43913 0.0
C1671 C 0.18297 0.29546 0.43509 0.0
C1672 C 0.19131 0.28831 0.43862 0.0
C1673 C 0.20651 0.29666 0.44629 0.0
H1674 H 0.1712 0.28898 0.42915 0.0
H1675 H 0.31845 0.36669 0.50512 0.0
H1676 H 0.65633 0.95029 0.40208 0.0
H1677 H 0.64834 0.93035 0.42999 0.0
H1678 H 0.69102 0.93159 0.42263 0.0
H1679 H 0.69911 0.95137 0.39531 0.0
H1680 H 0.66507 0.90207 0.42178 0.0
H1681 H 0.68712 0.94862 0.46466 0.0
H1682 H 0.68859 0.97202 0.47715 0.0
H1683 H 0.64213 0.94595 0.49952 0.0
H1684 H 0.64033 0.9224 0.48688 0.0
H1685 H 0.68128 0.87143 0.51483 0.0
H1686 H 0.67991 0.88559 0.48346 0.0
H1687 H 0.63941 0.88262 0.50987 0.0
H1688 H 0.64091 0.86869 0.54138 0.0
H1689 H 0.65893 0.91059 0.49958 0.0
H1690 H 0.63778 0.86371 0.46234 0.0
H1691 H 0.63557 0.83996 0.44994 0.0
H1692 H 0.67839 0.86546 0.41648 0.0
H1693 H 0.68098 0.88937 0.42895 0.0
C1694 C 0.66402 0.94636 0.40654 0.0
C1695 C 0.67837 0.95249 0.39648 0.0
C1696 C 0.65943 0.93496 0.42242 0.0
C1697 C 0.66907 0.92945 0.42825 0.0
C1698 C 0.68336 0.93559 0.41825 0.0
C1699 C 0.688 0.94701 0.4027 0.0
C1700 C 0.66466 0.91744 0.44495 0.0
C1701 C 0.66373 0.90389 0.43882 0.0
C1702 C 0.66242 0.91964 0.46701 0.0
C1703 C 0.66352 0.93379 0.47456 0.0
C1704 C 0.67717 0.9479 0.47204 0.0
C1705 C 0.67808 0.96118 0.47919 0.0
C1706 C 0.66544 0.96048 0.48904 0.0
C1707 C 0.65189 0.94648 0.49183 0.0
C1708 C 0.65092 0.93317 0.48469 0.0
C1709 C 0.67188 0.87348 0.51363 0.0
C1710 C 0.66124 0.86902 0.53054 0.0
C1711 C 0.67108 0.88157 0.4957 0.0
C1712 C 0.65951 0.88516 0.49423 0.0
C1713 C 0.64847 0.88008 0.51066 0.0
C1714 C 0.64932 0.87209 0.52862 0.0
C1715 C 0.65973 0.89528 0.47658 0.0
C1716 C 0.65991 0.90851 0.48252 0.0
C1717 C 0.66111 0.89269 0.45429 0.0
C1718 C 0.65963 0.87834 0.44672 0.0
C1719 C 0.64679 0.86426 0.45248 0.0
C1720 C 0.64546 0.85077 0.44541 0.0
C1721 C 0.65685 0.8512 0.43246 0.0
C1722 C 0.66958 0.86514 0.42652 0.0
C1723 C 0.67098 0.87867 0.43356 0.0
H1724 H 0.65579 0.84074 0.42701 0.0
H1725 H 0.66617 0.97077 0.49458 0.0
H1726 H 0.04136 0.72883 0.42935 0.0
H1727 H 0.06288 0.74324 0.45465 0.0
H1728 H 0.09042 0.73063 0.41818 0.0
H1729 H 0.06868 0.71586 0.39286 0.0
H1730 H 0.09693 0.73341 0.46379 0.0
H1731 H 0.09343 0.76266 0.40554 0.0
H1732 H 0.08017 0.77158 0.38122 0.0
H1733 H 0.06976 0.79003 0.4363 0.0
H1734 H 0.08273 0.78099 0.46101 0.0
H1735 H 0.16237 0.79427 0.51722 0.0
H1736 H 0.14617 0.77967 0.48579 0.0
H1737 H 0.11042 0.7869 0.50782 0.0
H1738 H 0.12657 0.80139 0.53908 0.0
H1739 H 0.1114 0.78739 0.46427 0.0
H1740 H 0.11249 0.75588 0.52248 0.0
H1741 H 0.12482 0.74629 0.54736 0.0
H1742 H 0.13978 0.73197 0.49231 0.0
H1743 H 0.12764 0.74168 0.46715 0.0
C1744 C 0.05182 0.7287 0.42712 0.0
C1745 C 0.0534 0.72135 0.40903 0.0
C1746 C 0.06414 0.73702 0.44151 0.0
C1747 C 0.07836 0.73835 0.4379 0.0
C1748 C 0.07957 0.72983 0.42111 0.0
C1749 C 0.06712 0.72134 0.40675 0.0
C1750 C 0.09217 0.74988 0.45024 0.0
C1751 C 0.10032 0.74527 0.4636 0.0
C1752 C 0.09654 0.76535 0.45 0.0
C1753 C 0.08897 0.77107 0.43514 0.0
C1754 C 0.08824 0.76855 0.41249 0.0
C1755 C 0.08078 0.77362 0.39863 0.0
C1756 C 0.07411 0.78135 0.40721 0.0
C1757 C 0.07492 0.78404 0.42968 0.0
C1758 C 0.08234 0.77896 0.44361 0.0
C1759 C 0.15124 0.79311 0.51484 0.0
C1760 C 0.14564 0.79891 0.53038 0.0
C1761 C 0.14195 0.78467 0.49707 0.0
C1762 C 0.12695 0.78191 0.49473 0.0
C1763 C 0.1219 0.78878 0.50935 0.0
C1764 C 0.13111 0.79709 0.52716 0.0
C1765 C 0.1159 0.77088 0.47842 0.0
C1766 C 0.10825 0.7756 0.46419 0.0
C1767 C 0.11204 0.75554 0.47788 0.0
C1768 C 0.11929 0.74966 0.49297 0.0
C1769 C 0.11847 0.75076 0.51572 0.0
C1770 C 0.12542 0.74531 0.52987 0.0
C1771 C 0.13312 0.73856 0.52142 0.0
C1772 C 0.13384 0.73723 0.49883 0.0
C1773 C 0.12692 0.74271 0.48462 0.0
H1774 H 0.1385 0.73433 0.53239 0.0
H1775 H 0.06833 0.78526 0.39646 0.0
H1776 H 0.31091 0.06337 0.72351 0.0
H1777 H 0.31656 0.08145 0.75278 0.0
H1778 H 0.35667 0.07976 0.77147 0.0
H1779 H 0.35111 0.06154 0.74194 0.0
H1780 H 0.33898 0.07862 0.80707 0.0
H1781 H 0.36181 0.10944 0.74395 0.0
H1782 H 0.36258 0.1175 0.70573 0.0
H1783 H 0.32658 0.12634 0.7183 0.0
H1784 H 0.32543 0.11811 0.75653 0.0
H1785 H 0.36509 0.14031 0.87958 0.0
H1786 H 0.36513 0.12569 0.8483 0.0
H1787 H 0.32601 0.12587 0.8204 0.0
H1788 H 0.32592 0.14045 0.85178 0.0
H1789 H 0.34582 0.12876 0.78906 0.0
H1790 H 0.32116 0.09616 0.85035 0.0
H1791 H 0.31858 0.08656 0.88802 0.0
H1792 H 0.35654 0.08016 0.87873 0.0
H1793 H 0.35951 0.08996 0.84108 0.0
C1794 C 0.3209 0.06672 0.73387 0.0
C1795 C 0.3306 0.06102 0.73027 0.0
C1796 C 0.32415 0.07715 0.75055 0.0
C1797 C 0.33716 0.08213 0.76406 0.0
C1798 C 0.34661 0.07611 0.76109 0.0
C1799 C 0.34342 0.0657 0.74424 0.0
C1800 C 0.34076 0.09367 0.78119 0.0
C1801 C 0.34081 0.08972 0.80314 0.0
C1802 C 0.34274 0.10798 0.77603 0.0
C1803 C 0.34346 0.11304 0.75308 0.0
C1804 C 0.35398 0.11299 0.73853 0.0
C1805 C 0.35449 0.11761 0.71687 0.0
C1806 C 0.34461 0.1224 0.70958 0.0
C1807 C 0.33422 0.12261 0.72396 0.0
C1808 C 0.33364 0.11799 0.74564 0.0
C1809 C 0.35665 0.13741 0.86658 0.0
C1810 C 0.34537 0.14132 0.8682 0.0
C1811 C 0.35666 0.12904 0.84877 0.0
C1812 C 0.34535 0.12439 0.83226 0.0
C1813 C 0.33478 0.12926 0.83303 0.0
C1814 C 0.33478 0.13765 0.85088 0.0
C1815 C 0.34393 0.11368 0.81498 0.0
C1816 C 0.34423 0.11777 0.793 0.0
C1817 C 0.34215 0.09943 0.82012 0.0
C1818 C 0.34065 0.09392 0.84295 0.0
C1819 C 0.32906 0.09285 0.85641 0.0
C1820 C 0.32749 0.08732 0.87773 0.0
C1821 C 0.33733 0.08268 0.88571 0.0
C1822 C 0.34888 0.0837 0.87247 0.0
C1823 C 0.35052 0.08925 0.85115 0.0
H1824 H 0.33606 0.07833 0.90218 0.0
H1825 H 0.34503 0.12597 0.6928 0.0
H1826 H 0.9501 0.28697 0.73052 0.0
H1827 H 0.93193 0.26939 0.75737 0.0
H1828 H 0.96419 0.25584 0.77603 0.0
H1829 H 0.98192 0.27276 0.74835 0.0
H1830 H 0.93846 0.23205 0.76913 0.0
H1831 H 0.95375 0.27721 0.81021 0.0
H1832 H 0.95865 0.3029 0.81699 0.0
H1833 H 0.91112 0.28719 0.80387 0.0
H1834 H 0.90597 0.26144 0.79674 0.0
H1835 H 0.90293 0.19463 0.86958 0.0
H1836 H 0.91964 0.21102 0.84035 0.0
H1837 H 0.88175 0.21329 0.81221 0.0
H1838 H 0.86495 0.19661 0.84123 0.0
H1839 H 0.90885 0.24203 0.82282 0.0
H1840 H 0.89417 0.19605 0.784 0.0
H1841 H 0.89024 0.17053 0.77942 0.0
H1842 H 0.93835 0.18845 0.79129 0.0
H1843 H 0.94254 0.21405 0.79626 0.0
C1844 C 0.95345 0.28055 0.74082 0.0
C1845 C 0.96739 0.28121 0.73745 0.0
C1846 C 0.94306 0.27047 0.75617 0.0
C1847 C 0.94664 0.26123 0.76882 0.0
C1848 C 0.96105 0.2627 0.76637 0.0
C1849 C 0.97125 0.27247 0.7507 0.0
C1850 C 0.93503 0.24917 0.78324 0.0
C1851 C 0.93219 0.23435 0.78109 0.0
C1852 C 0.92645 0.25196 0.79846 0.0
C1853 C 0.92951 0.26743 0.80271 0.0
C1854 C 0.94437 0.27926 0.80859 0.0
C1855 C 0.94719 0.29383 0.81254 0.0
C1856 C 0.93521 0.29669 0.8108 0.0
C1857 C 0.92039 0.28497 0.80518 0.0
C1858 C 0.91751 0.27038 0.8012 0.0
C1859 C 0.89808 0.19817 0.85663 0.0
C1860 C 0.88267 0.19422 0.85729 0.0
C1861 C 0.90761 0.20758 0.84008 0.0
C1862 C 0.9019 0.21337 0.8242 0.0
C1863 C 0.88632 0.20889 0.82431 0.0
C1864 C 0.87673 0.19927 0.84068 0.0
C1865 C 0.91256 0.22515 0.8088 0.0
C1866 C 0.91517 0.23985 0.81078 0.0
C1867 C 0.92113 0.22233 0.79373 0.0
C1868 C 0.91864 0.20695 0.7907 0.0
C1869 C 0.90389 0.19453 0.78583 0.0
C1870 C 0.90162 0.18005 0.78312 0.0
C1871 C 0.91403 0.17787 0.78511 0.0
C1872 C 0.92874 0.19016 0.78977 0.0
C1873 C 0.93107 0.20466 0.79251 0.0
H1874 H 0.91225 0.16665 0.783 0.0
H1875 H 0.93742 0.30797 0.81386 0.0
H1876 H 0.7338 0.65629 0.73588 0.0
H1877 H 0.7536 0.66444 0.76384 0.0
H1878 H 0.75408 0.7062 0.7718 0.0
H1879 H 0.73431 0.69824 0.74274 0.0
H1880 H 0.78285 0.71162 0.77299 0.0
H1881 H 0.73719 0.67778 0.81029 0.0
H1882 H 0.7121 0.65456 0.81655 0.0
H1883 H 0.73338 0.62792 0.81598 0.0
H1884 H 0.75858 0.65095 0.8094 0.0
H1885 H 0.82366 0.71932 0.87681 0.0
H1886 H 0.80674 0.71867 0.84725 0.0
H1887 H 0.80459 0.67913 0.82023 0.0
H1888 H 0.82143 0.6797 0.84964 0.0
H1889 H 0.7758 0.67534 0.83192 0.0
H1890 H 0.82171 0.71064 0.79243 0.0
H1891 H 0.84635 0.73467 0.78774 0.0
H1892 H 0.82375 0.75972 0.79563 0.0
H1893 H 0.79899 0.73583 0.80067 0.0
C1894 C 0.73794 0.66718 0.74359 0.0
C1895 C 0.73227 0.67653 0.73717 0.0
C1896 C 0.7493 0.67182 0.75971 0.0
C1897 C 0.75513 0.68579 0.77034 0.0
C1898 C 0.74967 0.69531 0.76393 0.0
C1899 C 0.73832 0.69072 0.74743 0.0
C1900 C 0.76699 0.69017 0.78793 0.0
C1901 C 0.78121 0.70383 0.78614 0.0
C1902 C 0.76491 0.68002 0.80512 0.0
C1903 C 0.74978 0.66611 0.80923 0.0
C1904 C 0.73652 0.66696 0.81137 0.0
C1905 C 0.72227 0.65383 0.81499 0.0
C1906 C 0.72114 0.63977 0.81663 0.0
C1907 C 0.73427 0.63882 0.8147 0.0
C1908 C 0.74855 0.65191 0.81107 0.0
C1909 C 0.81992 0.71076 0.86419 0.0
C1910 C 0.82382 0.69951 0.86559 0.0
C1911 C 0.81028 0.71041 0.84732 0.0
C1912 C 0.80434 0.69879 0.83166 0.0
C1913 C 0.80905 0.68819 0.83219 0.0
C1914 C 0.81879 0.68861 0.8489 0.0
C1915 C 0.79178 0.69645 0.81644 0.0
C1916 C 0.77738 0.68319 0.81888 0.0
C1917 C 0.79364 0.70711 0.80024 0.0
C1918 C 0.80853 0.72145 0.79719 0.0
C1919 C 0.82201 0.72128 0.79339 0.0
C1920 C 0.836 0.73487 0.79061 0.0
C1921 C 0.83663 0.74872 0.79146 0.0
C1922 C 0.82325 0.74899 0.79502 0.0
C1923 C 0.80924 0.73542 0.79782 0.0
H1924 H 0.84747 0.75923 0.7893 0.0
H1925 H 0.7101 0.62961 0.81943 0.0
H1926 H 0.73186 0.69188 0.62167 0.0
H1927 H 0.7508 0.69756 0.5931 0.0
H1928 H 0.74378 0.65279 0.60036 0.0
H1929 H 0.7249 0.64696 0.62843 0.0
H1930 H 0.77479 0.67597 0.60245 0.0
H1931 H 0.72914 0.65997 0.55777 0.0
H1932 H 0.70696 0.66109 0.54347 0.0
H1933 H 0.73723 0.70672 0.52151 0.0
H1934 H 0.75959 0.70594 0.536 0.0
H1935 H 0.80277 0.65797 0.5104 0.0
H1936 H 0.79004 0.6609 0.54171 0.0
H1937 H 0.79775 0.70321 0.51535 0.0
H1938 H 0.81005 0.69997 0.48352 0.0
H1939 H 0.76922 0.68623 0.52463 0.0
H1940 H 0.81537 0.70094 0.56473 0.0
H1941 H 0.83748 0.69918 0.5776 0.0
H1942 H 0.80688 0.65634 0.60782 0.0
H1943 H 0.78457 0.65773 0.5949 0.0
C1944 C 0.7342 0.68319 0.61694 0.0
C1945 C 0.72689 0.66899 0.62743 0.0
C1946 C 0.74505 0.68647 0.60068 0.0
C1947 C 0.74878 0.67563 0.59482 0.0
C1948 C 0.74118 0.66136 0.60482 0.0
C1949 C 0.7303 0.65803 0.62081 0.0
C1950 C 0.76081 0.67904 0.57864 0.0
C1951 C 0.77361 0.67821 0.5854 0.0
C1952 C 0.75947 0.68242 0.5566 0.0
C1953 C 0.74601 0.68298 0.54828 0.0
C1954 C 0.73105 0.67031 0.55016 0.0
C1955 C 0.71845 0.67086 0.54195 0.0
C1956 C 0.72068 0.68399 0.53166 0.0
C1957 C 0.73552 0.69658 0.52954 0.0
C1958 C 0.74815 0.69609 0.53775 0.0
C1959 C 0.80221 0.66814 0.51167 0.0
C1960 C 0.8074 0.67876 0.4946 0.0
C1961 C 0.79492 0.66983 0.5296 0.0
C1962 C 0.79299 0.68234 0.53103 0.0
C1963 C 0.79906 0.69345 0.51461 0.0
C1964 C 0.80616 0.69165 0.49652 0.0
C1965 C 0.78315 0.68286 0.54827 0.0
C1966 C 0.77071 0.6844 0.54175 0.0
C1967 C 0.78487 0.68019 0.57056 0.0
C1968 C 0.79828 0.67942 0.57874 0.0
C1969 C 0.81335 0.69111 0.57404 0.0
C1970 C 0.82592 0.69018 0.58135 0.0
C1971 C 0.82358 0.67764 0.59349 0.0
C1972 C 0.80867 0.66604 0.59842 0.0
C1973 C 0.79606 0.66692 0.59115 0.0
H1974 H 0.83333 0.67693 0.5991 0.0
H1975 H 0.71092 0.68438 0.52527 0.0
H1976 H 0.32118 0.05284 0.60236 0.0
H1977 H 0.33127 0.07264 0.57457 0.0
H1978 H 0.37575 0.09465 0.60661 0.0
H1979 H 0.36569 0.07461 0.63456 0.0
H1980 H 0.36483 0.11428 0.59783 0.0
H1981 H 0.3734 0.07989 0.55911 0.0
H1982 H 0.36749 0.05527 0.54419 0.0
H1983 H 0.33077 0.05272 0.50516 0.0
H1984 H 0.3363 0.07722 0.5201 0.0
H1985 H 0.3737 0.14338 0.47481 0.0
H1986 H 0.37925 0.13096 0.50468 0.0
H1987 H 0.34666 0.13412 0.54503 0.0
H1988 H 0.34144 0.1469 0.51531 0.0
H1989 H 0.35936 0.10442 0.51805 0.0
H1990 H 0.35218 0.1302 0.59837 0.0
H1991 H 0.35974 0.15533 0.61319 0.0
H1992 H 0.39738 0.17655 0.56875 0.0
H1993 H 0.3902 0.15154 0.55387 0.0
C1994 C 0.3332 0.06172 0.60329 0.0
C1995 C 0.34265 0.06216 0.62062 0.0
C1996 C 0.33895 0.07304 0.58738 0.0
C1997 C 0.35426 0.08512 0.58852 0.0
C1998 C 0.36391 0.08541 0.60544 0.0
C1999 C 0.35819 0.0739 0.62126 0.0
C2000 C 0.35963 0.09777 0.57265 0.0
C2001 C 0.36383 0.11223 0.58036 0.0
C2002 C 0.35866 0.09516 0.54989 0.0
C2003 C 0.35523 0.08038 0.54083 0.0
C2004 C 0.36399 0.07403 0.54748 0.0
C2005 C 0.36071 0.0601 0.53899 0.0
C2006 C 0.34875 0.05243 0.52376 0.0
C2007 C 0.34004 0.05868 0.51696 0.0
C2008 C 0.34325 0.0726 0.52541 0.0
C2009 C 0.36817 0.14192 0.49037 0.0
C2010 C 0.35713 0.14607 0.49281 0.0
C2011 C 0.37128 0.13474 0.50739 0.0
C2012 C 0.36334 0.1315 0.52714 0.0
C2013 C 0.35314 0.13668 0.53012 0.0
C2014 C 0.35014 0.144 0.51314 0.0
C2015 C 0.36397 0.12088 0.54315 0.0
C2016 C 0.36076 0.1067 0.53547 0.0
C2017 C 0.36609 0.12387 0.56589 0.0
C2018 C 0.37058 0.13897 0.5749 0.0
C2019 C 0.36213 0.14021 0.59183 0.0
C2020 C 0.36633 0.15444 0.60023 0.0
C2021 C 0.37901 0.16753 0.59188 0.0
C2022 C 0.38753 0.16641 0.57515 0.0
C2023 C 0.38338 0.15221 0.56671 0.0
H2024 H 0.38224 0.17854 0.5984 0.0
H2025 H 0.34623 0.04165 0.5172 0.0
H2026 H 0.957 0.26491 0.62441 0.0
H2027 H 0.9358 0.25401 0.59832 0.0
H2028 H 0.93312 0.29434 0.60152 0.0
H2029 H 0.95433 0.30531 0.62854 0.0
H2030 H 0.90498 0.26963 0.60252 0.0
H2031 H 0.94762 0.28698 0.5562 0.0
H2032 H 0.9723 0.29116 0.54315 0.0
H2033 H 0.95244 0.24311 0.53624 0.0
H2034 H 0.92768 0.23861 0.54955 0.0
H2035 H 0.859 0.24266 0.50057 0.0
H2036 H 0.87713 0.25736 0.53023 0.0
H2037 H 0.8799 0.21839 0.54845 0.0
H2038 H 0.86172 0.20363 0.51905 0.0
H2039 H 0.90833 0.24574 0.53449 0.0
H2040 H 0.86549 0.22947 0.5832 0.0
H2041 H 0.84108 0.22676 0.59461 0.0
H2042 H 0.86193 0.27517 0.59406 0.0
H2043 H 0.88643 0.27816 0.58232 0.0
C2044 C 0.95208 0.27159 0.61951 0.0
C2045 C 0.95747 0.28604 0.62854 0.0
C2046 C 0.93993 0.26535 0.60446 0.0
C2047 C 0.93299 0.27344 0.59765 0.0
C2048 C 0.93834 0.28792 0.60647 0.0
C2049 C 0.95051 0.29418 0.62178 0.0
C2050 C 0.91992 0.26637 0.58174 0.0
C2051 C 0.90579 0.26466 0.58743 0.0
C2052 C 0.92093 0.25983 0.56206 0.0
C2053 C 0.9358 0.26246 0.55401 0.0
C2054 C 0.94853 0.27729 0.55205 0.0
C2055 C 0.96254 0.27972 0.54458 0.0
C2056 C 0.96394 0.26741 0.5389 0.0
C2057 C 0.95133 0.25264 0.54065 0.0
C2058 C 0.9373 0.25014 0.54812 0.0
C2059 C 0.86306 0.23711 0.51143 0.0
C2060 C 0.859 0.22203 0.50751 0.0
C2061 C 0.87341 0.2455 0.52832 0.0
C2062 C 0.8799 0.23896 0.54137 0.0
C2063 C 0.87498 0.2236 0.53852 0.0
C2064 C 0.8645 0.21515 0.52185 0.0
C2065 C 0.89335 0.24856 0.5557 0.0
C2066 C 0.90759 0.25083 0.54952 0.0
C2067 C 0.89246 0.25584 0.57458 0.0
C2068 C 0.87774 0.25403 0.58162 0.0
C2069 C 0.86483 0.23953 0.58527 0.0
C2070 C 0.85099 0.23794 0.59186 0.0
C2071 C 0.84994 0.25078 0.59499 0.0
C2072 C 0.86275 0.26523 0.59159 0.0
C2073 C 0.87662 0.26688 0.58499 0.0
H2074 H 0.83922 0.24953 0.60009 0.0
H2075 H 0.97479 0.26931 0.53313 0.0
H2076 H 0.32703 0.28089 0.62274 0.0
H2077 H 0.32099 0.26196 0.59408 0.0
H2078 H 0.36749 0.27142 0.59799 0.0
H2079 H 0.37356 0.29011 0.62647 0.0
H2080 H 0.33225 0.26268 0.55376 0.0
H2081 H 0.3676 0.23896 0.59442 0.0
H2082 H 0.37522 0.23551 0.63146 0.0
H2083 H 0.336 0.23457 0.65808 0.0
H2084 H 0.32801 0.23779 0.62118 0.0
H2085 H 0.35638 0.22909 0.47909 0.0
H2086 H 0.35486 0.24326 0.50954 0.0
H2087 H 0.32114 0.20146 0.54006 0.0
H2088 H 0.32232 0.18705 0.50903 0.0
H2089 H 0.34376 0.22223 0.56932 0.0
H2090 H 0.30729 0.22194 0.51906 0.0
H2091 H 0.29702 0.22427 0.48345 0.0
H2092 H 0.33449 0.27032 0.47784 0.0
H2093 H 0.34483 0.26833 0.51367 0.0
C2094 C 0.33601 0.27908 0.61726 0.0
C2095 C 0.35074 0.28693 0.62706 0.0
C2096 C 0.33253 0.26822 0.60095 0.0
C2097 C 0.34369 0.26502 0.59428 0.0
C2098 C 0.35858 0.27342 0.60325 0.0
C2099 C 0.36205 0.28419 0.61947 0.0
C2100 C 0.33995 0.25284 0.57813 0.0
C2101 C 0.33467 0.25379 0.55723 0.0
C2102 C 0.3427 0.24094 0.58279 0.0
C2103 C 0.34727 0.23872 0.60502 0.0
C2104 C 0.36055 0.23793 0.60815 0.0
C2105 C 0.36495 0.23603 0.62913 0.0
C2106 C 0.35612 0.23486 0.64712 0.0
C2107 C 0.34285 0.23553 0.64415 0.0
C2108 C 0.3384 0.23741 0.6232 0.0
C2109 C 0.34855 0.22285 0.49219 0.0
C2110 C 0.33927 0.20692 0.49144 0.0
C2111 C 0.3477 0.23099 0.50959 0.0
C2112 C 0.33765 0.22345 0.52682 0.0
C2113 C 0.32887 0.20751 0.52678 0.0
C2114 C 0.32963 0.19929 0.50915 0.0
C2115 C 0.33665 0.23249 0.54479 0.0
C2116 C 0.34112 0.23098 0.566 0.0
C2117 C 0.33287 0.24369 0.54057 0.0
C2118 C 0.32686 0.24495 0.51895 0.0
C2119 C 0.31337 0.23254 0.51017 0.0
C2120 C 0.3075 0.23382 0.49 0.0
C2121 C 0.31514 0.24741 0.47831 0.0
C2122 C 0.32859 0.2598 0.4869 0.0
C2123 C 0.3344 0.25863 0.5072 0.0
H2124 H 0.31063 0.24834 0.46262 0.0
H2125 H 0.35956 0.23341 0.66334 0.0
H2126 H 0.72944 0.04457 0.62326 0.0
H2127 H 0.75 0.05813 0.59656 0.0
H2128 H 0.72779 0.08157 0.57269 0.0
H2129 H 0.70743 0.06823 0.5992 0.0
H2130 H 0.74081 0.07416 0.53931 0.0
H2131 H 0.75459 0.09696 0.61277 0.0
H2132 H 0.75966 0.09639 0.65224 0.0
H2133 H 0.79437 0.08597 0.63821 0.0
H2134 H 0.78937 0.08632 0.59868 0.0
H2135 H 0.80314 0.15393 0.52277 0.0
H2136 H 0.78911 0.13375 0.5496 0.0
H2137 H 0.79368 0.10238 0.50898 0.0
H2138 H 0.80766 0.12251 0.48216 0.0
H2139 H 0.79123 0.11082 0.57363 0.0
H2140 H 0.75718 0.07161 0.50299 0.0
H2141 H 0.75322 0.07312 0.46333 0.0
H2142 H 0.75936 0.11724 0.47175 0.0
H2143 H 0.76311 0.11587 0.51145 0.0
C2144 C 0.72874 0.05228 0.61186 0.0
C2145 C 0.71691 0.05543 0.61338 0.0
C2146 C 0.74053 0.06008 0.59673 0.0
C2147 C 0.7405 0.07099 0.58282 0.0
C2148 C 0.72805 0.07323 0.58325 0.0
C2149 C 0.71644 0.06562 0.59846 0.0
C2150 C 0.75401 0.08131 0.56939 0.0
C2151 C 0.75191 0.08198 0.54677 0.0
C2152 C 0.76849 0.0916 0.57908 0.0
C2153 C 0.77149 0.09149 0.60282 0.0
C2154 C 0.76322 0.09445 0.61813 0.0
C2155 C 0.7661 0.09418 0.6405 0.0
C2156 C 0.7773 0.09109 0.64772 0.0
C2157 C 0.78568 0.08832 0.63259 0.0
C2158 C 0.78283 0.08856 0.61022 0.0
C2159 C 0.80175 0.14292 0.52009 0.0
C2160 C 0.80629 0.13969 0.50035 0.0
C2161 C 0.7937 0.13138 0.53536 0.0
C2162 C 0.79011 0.11652 0.53102 0.0
C2163 C 0.7962 0.11374 0.5125 0.0
C2164 C 0.8042 0.12523 0.49724 0.0
C2165 C 0.77797 0.1037 0.54369 0.0
C2166 C 0.78029 0.10267 0.5661 0.0
C2167 C 0.76368 0.09307 0.53381 0.0
C2168 C 0.76056 0.09368 0.51015 0.0
C2169 C 0.75755 0.08157 0.49638 0.0
C2170 C 0.75537 0.08241 0.4739 0.0
C2171 C 0.75608 0.09529 0.46502 0.0
C2172 C 0.75884 0.10728 0.47864 0.0
C2173 C 0.76099 0.10647 0.50113 0.0
H2174 H 0.75449 0.09596 0.4476 0.0
H2175 H 0.77953 0.09087 0.66502 0.0
H2176 H 0.94203 0.64432 0.61796 0.0
H2177 H 0.92026 0.63491 0.59184 0.0
H2178 H 0.92396 0.67846 0.59305 0.0
H2179 H 0.94553 0.68794 0.61845 0.0
H2180 H 0.89374 0.65384 0.5992 0.0
H2181 H 0.93737 0.67001 0.55124 0.0
H2182 H 0.95949 0.66915 0.53732 0.0
H2183 H 0.93001 0.62184 0.52228 0.0
H2184 H 0.90773 0.62239 0.53639 0.0
H2185 H 0.85921 0.66651 0.50794 0.0
H2186 H 0.87428 0.66542 0.53851 0.0
H2187 H 0.86774 0.6234 0.51359 0.0
H2188 H 0.85307 0.6248 0.48245 0.0
H2189 H 0.8963 0.64111 0.52207 0.0
H2190 H 0.8517 0.62589 0.56371 0.0
H2191 H 0.82941 0.62666 0.57708 0.0
H2192 H 0.85959 0.67082 0.60458 0.0
H2193 H 0.88207 0.6704 0.59115 0.0
C2194 C 0.93828 0.6519 0.61246 0.0
C2195 C 0.94558 0.66689 0.62036 0.0
C2196 C 0.92582 0.6465 0.59763 0.0
C2197 C 0.92041 0.65597 0.5907 0.0
C2198 C 0.92782 0.67092 0.59835 0.0
C2199 C 0.94028 0.67634 0.61282 0.0
C2200 C 0.90712 0.65067 0.57537 0.0
C2201 C 0.89423 0.651 0.58233 0.0
C2202 C 0.90757 0.64652 0.55358 0.0
C2203 C 0.92095 0.64619 0.54515 0.0
C2204 C 0.93564 0.65939 0.54517 0.0
C2205 C 0.94819 0.65897 0.5372 0.0
C2206 C 0.94617 0.64543 0.529 0.0
C2207 C 0.93157 0.6323 0.52869 0.0
C2208 C 0.91898 0.63267 0.53666 0.0
C2209 C 0.86057 0.65679 0.50936 0.0
C2210 C 0.8549 0.64571 0.49288 0.0
C2211 C 0.86921 0.65616 0.52688 0.0
C2212 C 0.8721 0.64424 0.52858 0.0
C2213 C 0.86573 0.63272 0.51269 0.0
C2214 C 0.85727 0.63347 0.49498 0.0
C2215 C 0.88297 0.64468 0.54566 0.0
C2216 C 0.89547 0.64349 0.53905 0.0
C2217 C 0.88207 0.64792 0.56785 0.0
C2218 C 0.86859 0.64813 0.57631 0.0
C2219 C 0.85359 0.6358 0.57253 0.0
C2220 C 0.84092 0.63617 0.58013 0.0
C2221 C 0.84309 0.64879 0.59165 0.0
C2222 C 0.85794 0.66104 0.59566 0.0
C2223 C 0.87065 0.66073 0.5881 0.0
H2224 H 0.83326 0.64907 0.59747 0.0
H2225 H 0.9559 0.64513 0.52282 0.0
H2226 H 0.95718 0.6999 0.72889 0.0
H2227 H 0.93838 0.69435 0.757 0.0
H2228 H 0.92921 0.64868 0.76228 0.0
H2229 H 0.94808 0.65409 0.73374 0.0
H2230 H 0.90703 0.67205 0.75382 0.0
H2231 H 0.91895 0.63879 0.81807 0.0
H2232 H 0.94021 0.63583 0.83168 0.0
H2233 H 0.97289 0.68167 0.81302 0.0
H2234 H 0.95182 0.68495 0.79958 0.0
H2235 H 0.87071 0.64756 0.8723 0.0
H2236 H 0.88279 0.64403 0.84045 0.0
H2237 H 0.89169 0.68686 0.81446 0.0
H2238 H 0.87903 0.68999 0.84572 0.0
H2239 H 0.91102 0.65978 0.8312 0.0
H2240 H 0.89789 0.69061 0.76141 0.0
H2241 H 0.87613 0.69269 0.74778 0.0
H2242 H 0.84434 0.64986 0.77706 0.0
H2243 H 0.86589 0.6474 0.79062 0.0
C2244 C 0.95134 0.68869 0.73613 0.0
C2245 C 0.9541 0.67741 0.72893 0.0
C2246 C 0.94051 0.68553 0.75214 0.0
C2247 C 0.93231 0.67108 0.76154 0.0
C2248 C 0.93544 0.65991 0.75517 0.0
C2249 C 0.94626 0.66305 0.73894 0.0
C2250 C 0.92022 0.66783 0.77755 0.0
C2251 C 0.90787 0.66941 0.77079 0.0
C2252 C 0.92104 0.66378 0.79941 0.0
C2253 C 0.93382 0.66203 0.80756 0.0
C2254 C 0.93068 0.64824 0.81691 0.0
C2255 C 0.94269 0.64651 0.82459 0.0
C2256 C 0.9579 0.65853 0.82312 0.0
C2257 C 0.96111 0.67234 0.81405 0.0
C2258 C 0.94914 0.67413 0.80636 0.0
C2259 C 0.87477 0.65591 0.85933 0.0
C2260 C 0.87387 0.66899 0.8613 0.0
C2261 C 0.88177 0.65396 0.84124 0.0
C2262 C 0.88815 0.66514 0.82493 0.0
C2263 C 0.88657 0.67787 0.82646 0.0
C2264 C 0.87933 0.67968 0.84435 0.0
C2265 C 0.89791 0.66441 0.80771 0.0
C2266 C 0.90986 0.66209 0.81419 0.0
C2267 C 0.8966 0.66758 0.78549 0.0
C2268 C 0.88354 0.66888 0.77716 0.0
C2269 C 0.88626 0.68159 0.76484 0.0
C2270 C 0.87396 0.68284 0.75715 0.0
C2271 C 0.85886 0.67143 0.76159 0.0
C2272 C 0.85604 0.65871 0.77369 0.0
C2273 C 0.8683 0.65739 0.78141 0.0
H2274 H 0.84936 0.67243 0.75564 0.0
H2275 H 0.96718 0.65717 0.82908 0.0
H2276 H 0.31754 0.26917 0.72409 0.0
H2277 H 0.30957 0.24852 0.75083 0.0
H2278 H 0.35438 0.27335 0.78183 0.0
H2279 H 0.36238 0.29361 0.75515 0.0
H2280 H 0.34726 0.24542 0.77061 0.0
H2281 H 0.3214 0.26831 0.80576 0.0
H2282 H 0.30259 0.27653 0.80705 0.0
H2283 H 0.26591 0.23103 0.79324 0.0
H2284 H 0.28455 0.22259 0.79162 0.0
H2285 H 0.35034 0.22297 0.87574 0.0
H2286 H 0.34794 0.23545 0.84328 0.0
H2287 H 0.30446 0.1953 0.82713 0.0
H2288 H 0.30688 0.18258 0.86007 0.0
H2289 H 0.30532 0.22448 0.82455 0.0
H2290 H 0.33119 0.20106 0.79617 0.0
H2291 H 0.35022 0.19311 0.79623 0.0
H2292 H 0.38695 0.23972 0.79735 0.0
H2293 H 0.36815 0.24796 0.79764 0.0
C2294 C 0.3255 0.27034 0.73701 0.0
C2295 C 0.34061 0.28292 0.7375 0.0
C2296 C 0.32097 0.25853 0.7522 0.0
C2297 C 0.33145 0.25931 0.76818 0.0
C2298 C 0.34616 0.27239 0.76949 0.0
C2299 C 0.3507 0.28401 0.75429 0.0
C2300 C 0.32794 0.24626 0.7826 0.0
C2301 C 0.33806 0.24085 0.78238 0.0
C2302 C 0.31553 0.23976 0.79729 0.0
C2303 C 0.30438 0.24486 0.79828 0.0
C2304 C 0.30934 0.26009 0.8028 0.0
C2305 C 0.29871 0.26478 0.80364 0.0
C2306 C 0.28307 0.25432 0.80015 0.0
C2307 C 0.27803 0.23913 0.79589 0.0
C2308 C 0.28862 0.23439 0.79502 0.0
C2309 C 0.34029 0.21675 0.86523 0.0
C2310 C 0.32878 0.20183 0.87035 0.0
C2311 C 0.33893 0.22389 0.84671 0.0
C2312 C 0.32605 0.21629 0.8328 0.0
C2313 C 0.31448 0.20133 0.83772 0.0
C2314 C 0.31592 0.19407 0.85634 0.0
C2315 C 0.32515 0.22435 0.8132 0.0
C2316 C 0.31422 0.22877 0.81236 0.0
C2317 C 0.33684 0.23 0.79745 0.0
C2318 C 0.34823 0.22512 0.79698 0.0
C2319 C 0.34332 0.20962 0.79655 0.0
C2320 C 0.35407 0.20505 0.79651 0.0
C2321 C 0.36978 0.2159 0.7968 0.0
C2322 C 0.37478 0.23133 0.7971 0.0
C2323 C 0.36407 0.23595 0.79716 0.0
H2324 H 0.37809 0.21234 0.79678 0.0
H2325 H 0.27486 0.25797 0.80081 0.0
H2326 H 0.71455 0.07692 0.72878 0.0
H2327 H 0.73375 0.08913 0.7578 0.0
H2328 H 0.743 0.05283 0.75609 0.0
H2329 H 0.72355 0.04033 0.7269 0.0
H2330 H 0.74255 0.0625 0.79856 0.0
H2331 H 0.76612 0.0848 0.73034 0.0
H2332 H 0.76792 0.09684 0.69471 0.0
H2333 H 0.77009 0.13479 0.72668 0.0
H2334 H 0.76785 0.12279 0.76254 0.0
H2335 H 0.81082 0.10337 0.86165 0.0
H2336 H 0.79303 0.08923 0.83153 0.0
H2337 H 0.78449 0.12572 0.82161 0.0
H2338 H 0.80276 0.14011 0.85127 0.0
H2339 H 0.78544 0.1149 0.78386 0.0
H2340 H 0.75896 0.09203 0.85098 0.0
H2341 H 0.75514 0.07967 0.88694 0.0
H2342 H 0.75793 0.04352 0.8577 0.0
H2343 H 0.76166 0.05559 0.82152 0.0
C2344 C 0.72053 0.0714 0.73465 0.0
C2345 C 0.71761 0.0577 0.72532 0.0
C2346 C 0.73155 0.07844 0.75123 0.0
C2347 C 0.74003 0.07205 0.75879 0.0
C2348 C 0.73665 0.058 0.75036 0.0
C2349 C 0.72553 0.05087 0.73371 0.0
C2350 C 0.75278 0.08047 0.77486 0.0
C2351 C 0.75207 0.07386 0.79524 0.0
C2352 C 0.76502 0.09543 0.77067 0.0
C2353 C 0.7667 0.10283 0.74914 0.0
C2354 C 0.76687 0.09567 0.72978 0.0
C2355 C 0.76798 0.10249 0.70953 0.0
C2356 C 0.76914 0.11657 0.70841 0.0
C2357 C 0.76919 0.12388 0.72756 0.0
C2358 C 0.76799 0.11706 0.74787 0.0
C2359 C 0.80531 0.10844 0.85276 0.0
C2360 C 0.80814 0.12281 0.85869 0.0
C2361 C 0.79504 0.1003 0.83571 0.0
C2362 C 0.7871 0.10622 0.82461 0.0
C2363 C 0.79041 0.12087 0.82997 0.0
C2364 C 0.80088 0.12912 0.84683 0.0
C2365 C 0.77512 0.09705 0.80778 0.0
C2366 C 0.77599 0.10351 0.78719 0.0
C2367 C 0.76294 0.08201 0.81186 0.0
C2368 C 0.76074 0.07478 0.8336 0.0
C2369 C 0.75885 0.08149 0.85225 0.0
C2370 C 0.75669 0.07454 0.87266 0.0
C2371 C 0.75642 0.0609 0.87464 0.0
C2372 C 0.75819 0.05411 0.85616 0.0
C2373 C 0.76027 0.06097 0.83569 0.0
H2374 H 0.75476 0.05556 0.89047 0.0
H2375 H 0.77 0.12183 0.6927 0.0
H2376 H 0.03474 0.3525 0.04059 0.0
H2377 H 0.05614 0.34937 0.05122 0.0
H2378 H 0.08312 0.3789 -0.00123 0.0
H2379 H 0.06164 0.38202 0.98784 0.0
H2380 H 0.08644 0.3544 0.00191 0.0
H2381 H 0.08951 0.39201 0.05029 0.0
H2382 H 0.0802 0.40309 0.07695 0.0
H2383 H 0.07052 0.36732 0.12225 0.0
H2384 H 0.07951 0.35585 0.09573 0.0
H2385 H 0.14851 0.36508 0.09229 0.0
H2386 H 0.13472 0.3742 0.06994 0.0
H2387 H 0.10416 0.32872 0.04612 0.0
H2388 H 0.11808 0.31972 0.06826 0.0
H2389 H 0.10615 0.36547 0.07834 0.0
H2390 H 0.08642 0.32925 -0.00121 0.0
H2391 H 0.09698 0.3195 0.97194 0.0
H2392 H 0.14276 0.35549 0.98826 0.0
H2393 H 0.13247 0.36558 0.01497 0.0
C2394 C 0.04519 0.35833 0.03123 0.0
C2395 C 0.04647 0.3676 0.01341 0.0
C2396 C 0.05746 0.35655 0.0374 0.0
C2397 C 0.07134 0.36405 0.02599 0.0
C2398 C 0.07255 0.37303 0.00787 0.0
C2399 C 0.06026 0.37484 0.00169 0.0
C2400 C 0.08456 0.3626 0.03325 0.0
C2401 C 0.0908 0.35687 0.01859 0.0
C2402 C 0.09051 0.36613 0.0549 0.0
C2403 C 0.08506 0.37299 0.0709 0.0
C2404 C 0.08526 0.38642 0.06585 0.0
C2405 C 0.08006 0.39278 0.08096 0.0
C2406 C 0.07472 0.38589 0.10125 0.0
C2407 C 0.07462 0.37263 0.10651 0.0
C2408 C 0.07978 0.3662 0.09144 0.0
C2409 C 0.13937 0.35724 0.08135 0.0
C2410 C 0.13454 0.34178 0.08157 0.0
C2411 C 0.13136 0.36239 0.06882 0.0
C2412 C 0.11835 0.35216 0.05634 0.0
C2413 C 0.11427 0.3369 0.05528 0.0
C2414 C 0.12229 0.33176 0.06782 0.0
C2415 C 0.10779 0.35687 0.04719 0.0
C2416 C 0.10195 0.36315 0.06156 0.0
C2417 C 0.10237 0.35399 0.02526 0.0
C2418 C 0.10866 0.34811 0.00902 0.0
C2419 C 0.09873 0.33514 0.99658 0.0
C2420 C 0.10468 0.32954 0.98139 0.0
C2421 C 0.12053 0.33685 0.97844 0.0
C2422 C 0.13048 0.3498 0.99062 0.0
C2423 C 0.1246 0.35545 0.00581 0.0
H2424 H 0.12511 0.33249 0.96668 0.0
H2425 H 0.07071 0.39084 0.11293 0.0
H2426 H 0.67382 0.69444 0.04042 0.0
H2427 H 0.67852 0.71943 0.05023 0.0
H2428 H 0.63087 0.70407 0.03711 0.0
H2429 H 0.6261 0.67907 0.02698 0.0
H2430 H 0.64864 0.73192 0.02119 0.0
H2431 H 0.64447 0.70763 0.08922 0.0
H2432 H 0.64957 0.69402 0.11821 0.0
H2433 H 0.69659 0.73052 0.1227 0.0
H2434 H 0.69186 0.74426 0.09344 0.0
H2435 H 0.6509 0.79103 0.09084 0.0
H2436 H 0.64472 0.76781 0.07105 0.0
H2437 H 0.69294 0.78314 0.06886 0.0
H2438 H 0.69913 0.80634 0.08815 0.0
H2439 H 0.67358 0.75512 0.09229 0.0
H2440 H 0.67657 0.77929 0.02337 0.0
H2441 H 0.66974 0.79292 0.99666 0.0
H2442 H 0.62273 0.7562 0.99653 0.0
H2443 H 0.62924 0.74243 0.02352 0.0
C2444 C 0.66432 0.69635 0.03959 0.0
C2445 C 0.64956 0.68468 0.033 0.0
C2446 C 0.66702 0.71066 0.04529 0.0
C2447 C 0.65502 0.71363 0.04467 0.0
C2448 C 0.64032 0.70208 0.03775 0.0
C2449 C 0.63761 0.68776 0.03204 0.0
C2450 C 0.65782 0.72874 0.05141 0.0
C2451 C 0.65393 0.7369 0.03686 0.0
C2452 C 0.66481 0.73535 0.0718 0.0
C2453 C 0.66785 0.7269 0.08891 0.0
C2454 C 0.65596 0.71268 0.09617 0.0
C2455 C 0.65877 0.70495 0.1127 0.0
C2456 C 0.67341 0.71138 0.12225 0.0
C2457 C 0.68527 0.72554 0.11525 0.0
C2458 C 0.68253 0.73329 0.09868 0.0
C2459 C 0.66019 0.78975 0.08515 0.0
C2460 C 0.67549 0.80045 0.09101 0.0
C2461 C 0.65665 0.77644 0.07403 0.0
C2462 C 0.66838 0.77369 0.06874 0.0
C2463 C 0.68373 0.78501 0.07287 0.0
C2464 C 0.68725 0.7983 0.08375 0.0
C2465 C 0.66471 0.75836 0.06192 0.0
C2466 C 0.66835 0.75012 0.07659 0.0
C2467 C 0.6573 0.75164 0.04187 0.0
C2468 C 0.65336 0.7599 0.02567 0.0
C2469 C 0.66474 0.77419 0.01783 0.0
C2470 C 0.66094 0.78192 0.00259 0.0
C2471 C 0.6458 0.77545 0.99495 0.0
C2472 C 0.63444 0.76121 0.00249 0.0
C2473 C 0.63819 0.75343 0.01775 0.0
H2474 H 0.64288 0.78146 0.98315 0.0
H2475 H 0.67554 0.70541 0.13512 0.0
H2476 H 0.31537 0.94276 0.0294 0.0
H2477 H 0.28769 0.92793 0.03394 0.0
H2478 H 0.2863 0.96899 0.03563 0.0
H2479 H 0.31432 0.98411 0.03107 0.0
H2480 H 0.27053 0.94947 0.06945 0.0
H2481 H 0.27144 0.94613 0.99204 0.0
H2482 H 0.27983 0.94194 0.95664 0.0
H2483 H 0.26376 0.89576 0.97437 0.0
H2484 H 0.25547 0.89972 0.01003 0.0
H2485 H 0.19167 0.90606 0.08237 0.0
H2486 H 0.21436 0.92247 0.06063 0.0
H2487 H 0.22565 0.88755 0.05983 0.0
H2488 H 0.20284 0.87105 0.08151 0.0
H2489 H 0.23507 0.90618 0.02157 0.0
H2490 H 0.23881 0.9108 0.10041 0.0
H2491 H 0.2303 0.91416 0.1363 0.0
H2492 H 0.23803 0.95751 0.11611 0.0
H2493 H 0.24637 0.95429 0.07995 0.0
C2494 C 0.30923 0.94872 0.03059 0.0
C2495 C 0.3171 0.96466 0.02995 0.0
C2496 C 0.29335 0.94017 0.03302 0.0
C2497 C 0.28488 0.94732 0.03486 0.0
C2498 C 0.29262 0.96324 0.03409 0.0
C2499 C 0.3086 0.97186 0.03146 0.0
C2500 C 0.26814 0.93802 0.03903 0.0
C2501 C 0.2627 0.94026 0.05868 0.0
C2502 C 0.25799 0.92574 0.02526 0.0
C2503 C 0.26292 0.92326 0.00379 0.0
C2504 C 0.2698 0.93511 0.98847 0.0
C2505 C 0.27451 0.93277 0.96834 0.0
C2506 C 0.27235 0.9186 0.96327 0.0
C2507 C 0.26543 0.90673 0.97831 0.0
C2508 C 0.2607 0.90901 0.99848 0.0
C2509 C 0.19863 0.90166 0.07669 0.0
C2510 C 0.19561 0.88736 0.08365 0.0
C2511 C 0.21161 0.91105 0.06438 0.0
C2512 C 0.22183 0.90633 0.05904 0.0
C2513 C 0.21791 0.8914 0.06384 0.0
C2514 C 0.20485 0.88196 0.07613 0.0
C2515 C 0.23761 0.91762 0.05198 0.0
C2516 C 0.24286 0.91564 0.03199 0.0
C2517 C 0.24766 0.9301 0.06549 0.0
C2518 C 0.24305 0.93224 0.08741 0.0
C2519 C 0.23862 0.92102 0.10359 0.0
C2520 C 0.23384 0.9229 0.12398 0.0
C2521 C 0.23358 0.93602 0.12846 0.0
C2522 C 0.2382 0.94733 0.1126 0.0
C2523 C 0.24296 0.9455 0.09215 0.0
H2524 H 0.22984 0.93744 0.14424 0.0
H2525 H 0.27601 0.91681 0.94767 0.0
H2526 H 0.36131 0.05244 0.04809 0.0
H2527 H 0.35684 0.07247 0.03594 0.0
H2528 H 0.35174 0.05684 0.96942 0.0
H2529 H 0.35668 0.03706 0.98139 0.0
H2530 H 0.36756 0.08589 0.96917 0.0
H2531 H 0.32031 0.0493 0.00179 0.0
H2532 H 0.30337 0.03218 0.03053 0.0
H2533 H 0.31743 0.07025 0.07304 0.0
H2534 H 0.33462 0.08759 0.04464 0.0
H2535 H 0.3161 0.1165 0.94189 0.0
H2536 H 0.31898 0.09793 0.96335 0.0
H2537 H 0.36621 0.132 0.97763 0.0
H2538 H 0.36329 0.15054 0.95615 0.0
H2539 H 0.32843 0.09348 0.00419 0.0
H2540 H 0.38761 0.11623 0.96391 0.0
H2541 H 0.40144 0.13063 0.93111 0.0
H2542 H 0.35847 0.1155 0.89762 0.0
H2543 H 0.34442 0.10096 0.93009 0.0
C2544 C 0.35928 0.05328 0.03085 0.0
C2545 C 0.35933 0.0431 0.01573 0.0
C2546 C 0.35662 0.06471 0.02393 0.0
C2547 C 0.35371 0.06609 0.00177 0.0
C2548 C 0.35395 0.05605 0.98661 0.0
C2549 C 0.35676 0.04471 0.99349 0.0
C2550 C 0.35053 0.07805 0.99432 0.0
C2551 C 0.35906 0.08755 0.97697 0.0
C2552 C 0.33919 0.08011 0.00406 0.0
C2553 C 0.32887 0.06972 0.02117 0.0
C2554 C 0.31988 0.05401 0.01733 0.0
C2555 C 0.31022 0.04427 0.03355 0.0
C2556 C 0.30936 0.05012 0.05362 0.0
C2557 C 0.31813 0.06574 0.0575 0.0
C2558 C 0.32783 0.07552 0.04134 0.0
C2559 C 0.32682 0.12019 0.95064 0.0
C2560 C 0.3394 0.13498 0.94773 0.0
C2561 C 0.32851 0.10956 0.96274 0.0
C2562 C 0.34288 0.11351 0.97181 0.0
C2563 C 0.35505 0.12868 0.97065 0.0
C2564 C 0.35333 0.13932 0.95863 0.0
C2565 C 0.34573 0.10144 0.97952 0.0
C2566 C 0.33709 0.09189 0.99672 0.0
C2567 C 0.3566 0.09898 0.96919 0.0
C2568 C 0.36498 0.10765 0.94953 0.0
C2569 C 0.38113 0.11597 0.94953 0.0
C2570 C 0.389 0.12417 0.93099 0.0
C2571 C 0.38083 0.12404 0.91232 0.0
C2572 C 0.36479 0.11569 0.91213 0.0
C2573 C 0.35687 0.10749 0.9306 0.0
H2574 H 0.38693 0.13038 0.89799 0.0
H2575 H 0.30186 0.04256 0.06615 0.0
H2576 H 0.97401 0.31748 0.98161 0.0
H2577 H 0.95562 0.29107 0.97117 0.0
H2578 H 0.92728 0.28667 0.02573 0.0
H2579 H 0.9451 0.31325 0.03521 0.0
H2580 H 0.94309 0.2638 0.98488 0.0
H2581 H 0.89 0.26554 0.01338 0.0
H2582 H 0.8823 0.28429 0.01954 0.0
H2583 H 0.91563 0.31444 0.97327 0.0
H2584 H 0.92338 0.2958 0.96666 0.0
H2585 H 0.88062 0.19156 0.95533 0.0
H2586 H 0.89605 0.2134 0.97962 0.0
H2587 H 0.88671 0.24133 0.93701 0.0
H2588 H 0.87097 0.21953 0.91348 0.0
H2589 H 0.88918 0.25116 0.97555 0.0
H2590 H 0.91903 0.23766 0.93175 0.0
H2591 H 0.92749 0.22072 0.91831 0.0
H2592 H 0.94224 0.21739 0.98317 0.0
H2593 H 0.93365 0.23416 0.99705 0.0
C2594 C 0.96399 0.31074 0.99155 0.0
C2595 C 0.96086 0.3174 0.00904 0.0
C2596 C 0.95346 0.29565 0.9856 0.0
C2597 C 0.93978 0.28693 0.99728 0.0
C2598 C 0.93744 0.29325 0.01599 0.0
C2599 C 0.9477 0.30841 0.02152 0.0
C2600 C 0.92747 0.27177 0.98896 0.0
C2601 C 0.93129 0.26102 0.98302 0.0
C2602 C 0.91206 0.26813 0.98603 0.0
C2603 C 0.90739 0.27936 0.98976 0.0
C2604 C 0.89565 0.27616 0.0045 0.0
C2605 C 0.89128 0.28677 0.00807 0.0
C2606 C 0.89851 0.30057 0.99687 0.0
C2607 C 0.91008 0.30377 0.982 0.0
C2608 C 0.91447 0.2932 0.97835 0.0
C2609 C 0.88135 0.20222 0.9518 0.0
C2610 C 0.87462 0.20391 0.93263 0.0
C2611 C 0.89036 0.21476 0.96546 0.0
C2612 C 0.89291 0.22916 0.95988 0.0
C2613 C 0.88502 0.23042 0.94172 0.0
C2614 C 0.87597 0.21794 0.92828 0.0
C2615 C 0.9048 0.24323 0.97133 0.0
C2616 C 0.90092 0.25381 0.97785 0.0
C2617 C 0.92027 0.24698 0.97379 0.0
C2618 C 0.92554 0.237 0.96548 0.0
C2619 C 0.92399 0.23324 0.94317 0.0
C2620 C 0.92881 0.22368 0.93547 0.0
C2621 C 0.93536 0.21795 0.94989 0.0
C2622 C 0.93714 0.22181 0.97203 0.0
C2623 C 0.93229 0.23134 0.97983 0.0
H2624 H 0.93909 0.21055 0.9439 0.0
H2625 H 0.89513 0.30878 -0.00033 0.0
H2626 H 0.70642 0.67538 0.01343 0.0
H2627 H 0.73421 0.6873 0.00779 0.0
H2628 H 0.72812 0.64321 0.99702 0.0
H2629 H 0.70078 0.63134 0.00293 0.0
H2630 H 0.75328 0.66003 0.02098 0.0
H2631 H 0.73046 0.66674 0.9543 0.0
H2632 H 0.71629 0.67618 0.93309 0.0
H2633 H 0.74938 0.72182 0.95276 0.0
H2634 H 0.76364 0.7126 0.97428 0.0
H2635 H 0.80791 0.66561 0.94591 0.0
H2636 H 0.78702 0.66128 0.96982 0.0
H2637 H 0.80467 0.70943 0.97132 0.0
H2638 H 0.82528 0.71365 0.94679 0.0
H2639 H 0.77634 0.69544 0.9587 0.0
H2640 H 0.80228 0.68852 0.01879 0.0
H2641 H 0.81646 0.67858 0.03868 0.0
H2642 H 0.77794 0.63316 0.03116 0.0
H2643 H 0.7636 0.6428 0.01095 0.0
C2644 C 0.71106 0.66826 0.01002 0.0
C2645 C 0.70132 0.65242 0.00847 0.0
C2646 C 0.72693 0.67507 0.00678 0.0
C2647 C 0.73326 0.66614 0.00184 0.0
C2648 C 0.72357 0.65035 0.00091 0.0
C2649 C 0.70785 0.64358 0.00415 0.0
C2650 C 0.74974 0.67297 0.99634 0.0
C2651 C 0.75838 0.6678 0.00739 0.0
C2652 C 0.75655 0.68345 0.97903 0.0
C2653 C 0.74798 0.68897 0.96611 0.0
C2654 C 0.73463 0.67877 0.95422 0.0
C2655 C 0.7266 0.68408 0.94213 0.0
C2656 C 0.7319 0.69958 0.94164 0.0
C2657 C 0.74527 0.70981 0.9532 0.0
C2658 C 0.75333 0.70455 0.96534 0.0
C2659 C 0.80768 0.6753 0.95213 0.0
C2660 C 0.8182 0.68996 0.94466 0.0
C2661 C 0.79571 0.67284 0.96578 0.0
C2662 C 0.79422 0.68504 0.97245 0.0
C2663 C 0.80552 0.69983 0.96638 0.0
C2664 C 0.81736 0.70226 0.95254 0.0
C2665 C 0.77983 0.68214 0.9829 0.0
C2666 C 0.77153 0.68802 0.97273 0.0
C2667 C 0.77334 0.67226 0.00095 0.0
C2668 C 0.78188 0.6664 0.01325 0.0
C2669 C 0.79686 0.67641 0.02125 0.0
C2670 C 0.80492 0.67082 0.03261 0.0
C2671 C 0.79811 0.65525 0.03616 0.0
C2672 C 0.7832 0.64522 0.0284 0.0
C2673 C 0.77509 0.65075 0.01703 0.0
H2674 H 0.80438 0.65095 0.04494 0.0
H2675 H 0.72567 0.70367 0.93227 0.0
H2676 H 0.98001 0.66076 0.98512 0.0
H2677 H 0.9617 0.66854 0.97581 0.0
H2678 H 0.93563 0.64594 0.03318 0.0
H2679 H 0.95407 0.63817 0.04283 0.0
H2680 H 0.91763 0.6399 0.99381 0.0
H2681 H 0.9562 0.68267 0.03493 0.0
H2682 H 0.98278 0.70261 0.04444 0.0
H2683 H 0.98848 0.72159 0.98015 0.0
H2684 H 0.96198 0.70164 0.97015 0.0
H2685 H 0.86906 0.6666 0.96162 0.0
H2686 H 0.88586 0.66311 0.98724 0.0
H2687 H 0.92454 0.6905 0.94569 0.0
H2688 H 0.90802 0.69449 0.92091 0.0
H2689 H 0.93479 0.69428 0.98494 0.0
H2690 H 0.90053 0.6504 0.94078 0.0
H2691 H 0.87522 0.62995 0.92726 0.0
H2692 H 0.86279 0.61268 0.99251 0.0
H2693 H 0.88799 0.63317 0.00643 0.0
C2694 C 0.97038 0.65738 0.99578 0.0
C2695 C 0.96853 0.64884 0.01475 0.0
C2696 C 0.95996 0.66193 0.99048 0.0
C2697 C 0.9474 0.65797 0.00393 0.0
C2698 C 0.9453 0.64918 0.02265 0.0
C2699 C 0.95585 0.64477 0.02813 0.0
C2700 C 0.93641 0.66288 0.99803 0.0
C2701 C 0.92125 0.65179 0.99237 0.0
C2702 C 0.94127 0.67839 0.99566 0.0
C2703 C 0.95711 0.6906 0.00176 0.0
C2704 C 0.96314 0.69105 0.02278 0.0
C2705 C 0.97819 0.70236 0.02826 0.0
C2706 C 0.98732 0.71334 0.0129 0.0
C2707 C 0.98139 0.71308 0.99204 0.0
C2708 C 0.96634 0.70178 0.98647 0.0
C2709 C 0.88126 0.67235 0.95853 0.0
C2710 C 0.88724 0.68067 0.93921 0.0
C2711 C 0.89083 0.6702 0.97298 0.0
C2712 C 0.90642 0.67615 0.96809 0.0
C2713 C 0.91259 0.68567 0.94986 0.0
C2714 C 0.90312 0.68794 0.93564 0.0
C2715 C 0.91602 0.6713 0.98016 0.0
C2716 C 0.93099 0.68239 0.98691 0.0
C2717 C 0.91112 0.65577 0.98302 0.0
C2718 C 0.89603 0.6434 0.97467 0.0
C2719 C 0.89235 0.64229 0.95225 0.0
C2720 C 0.87804 0.63069 0.94451 0.0
C2721 C 0.86738 0.62005 0.95903 0.0
C2722 C 0.87104 0.62095 0.9813 0.0
C2723 C 0.88533 0.63255 0.98912 0.0
H2724 H 0.8563 0.61108 0.95301 0.0
H2725 H 0.99898 0.72207 0.01717 0.0
H2726 H 0.3252 0.30191 0.01733 0.0
H2727 H 0.32597 0.27911 0.00981 0.0
H2728 H 0.37101 0.30656 0.9822 0.0
H2729 H 0.37014 0.32943 0.98917 0.0
H2730 H 0.35407 0.28365 0.95652 0.0
H2731 H 0.36479 0.28838 0.03342 0.0
H2732 H 0.36067 0.29131 0.0722 0.0
H2733 H 0.31708 0.24949 0.06974 0.0
H2734 H 0.32084 0.24641 0.03085 0.0
H2735 H 0.3651 0.22327 0.94049 0.0
H2736 H 0.36925 0.24568 0.96033 0.0
H2737 H 0.32162 0.22147 0.97871 0.0
H2738 H 0.31749 0.19908 0.95879 0.0
H2739 H 0.34172 0.24305 0.01086 0.0
H2740 H 0.32962 0.24027 0.93349 0.0
H2741 H 0.33319 0.23725 0.89449 0.0
H2742 H 0.37942 0.27537 0.89841 0.0
H2743 H 0.37611 0.27861 0.93746 0.0
C2744 C 0.33534 0.30314 0.0098 0.0
C2745 C 0.34761 0.31755 0.00385 0.0
C2746 C 0.3358 0.29006 0.00563 0.0
C2747 C 0.34864 0.29106 0.9957 0.0
C2748 C 0.36098 0.30545 0.98993 0.0
C2749 C 0.36047 0.31854 0.99395 0.0
C2750 C 0.34883 0.27706 0.99025 0.0
C2751 C 0.35168 0.27496 0.96859 0.0
C2752 C 0.34533 0.26544 0.00576 0.0
C2753 C 0.34305 0.26723 0.02916 0.0
C2754 C 0.35427 0.27986 0.0411 0.0
C2755 C 0.35201 0.28154 0.06312 0.0
C2756 C 0.3386 0.27061 0.07342 0.0
C2757 C 0.32745 0.25795 0.06174 0.0
C2758 C 0.32965 0.25623 0.03972 0.0
C2759 C 0.35576 0.22249 0.94982 0.0
C2760 C 0.34105 0.2094 0.94848 0.0
C2761 C 0.35807 0.23535 0.96089 0.0
C2762 C 0.34568 0.23532 0.97071 0.0
C2763 C 0.33135 0.22174 0.9713 0.0
C2764 C 0.32902 0.2089 0.96011 0.0
C2765 C 0.34705 0.24983 0.97731 0.0
C2766 C 0.34435 0.25193 -0.00098 0.0
C2767 C 0.35067 0.26148 0.96189 0.0
C2768 C 0.35267 0.25959 0.93842 0.0
C2769 C 0.34057 0.24795 0.92606 0.0
C2770 C 0.34254 0.24621 0.90395 0.0
C2771 C 0.35655 0.25606 0.89401 0.0
C2772 C 0.36859 0.26773 0.90614 0.0
C2773 C 0.36666 0.26955 0.92824 0.0
H2774 H 0.35806 0.25468 0.87691 0.0
H2775 H 0.33687 0.27193 0.09046 0.0
H2776 H 0.69853 0.02602 0.00356 0.0
H2777 H 0.72568 0.04192 0.99365 0.0
H2778 H 0.72377 0.08211 0.00505 0.0
H2779 H 0.69686 0.06648 0.01475 0.0
H2780 H 0.73564 0.08295 0.96586 0.0
H2781 H 0.74294 0.07177 0.04014 0.0
H2782 H 0.73969 0.05509 0.07127 0.0
H2783 H 0.76075 0.03533 0.03507 0.0
H2784 H 0.76393 0.05175 0.00358 0.0
H2785 H 0.81006 0.13951 0.95099 0.0
H2786 H 0.7892 0.1233 0.97572 0.0
H2787 H 0.79124 0.08452 0.95518 0.0
H2788 H 0.81218 0.10072 0.9305 0.0
H2789 H 0.77999 0.08234 -0.00032 0.0
H2790 H 0.77131 0.09196 0.92511 0.0
H2791 H 0.77529 0.10874 0.89378 0.0
H2792 H 0.75637 0.1306 0.92993 0.0
H2793 H 0.75264 0.1142 0.96171 0.0
C2794 C 0.70395 0.03825 0.00415 0.0
C2795 C 0.69546 0.04495 0.0098 0.0
C2796 C 0.71948 0.04732 0.99857 0.0
C2797 C 0.72676 0.06322 -0.00136 0.0
C2798 C 0.71839 0.06988 0.0048 0.0
C2799 C 0.70296 0.06088 0.01037 0.0
C2800 C 0.74279 0.07305 0.99101 0.0
C2801 C 0.74532 0.08292 0.9735 0.0
C2802 C 0.75541 0.07274 0.00051 0.0
C2803 C 0.75352 0.06288 0.01942 0.0
C2804 C 0.74676 0.06377 0.03874 0.0
C2805 C 0.74495 0.05438 0.05647 0.0
C2806 C 0.74997 0.04412 0.05513 0.0
C2807 C 0.75684 0.04326 0.03607 0.0
C2808 C 0.75866 0.05262 0.01829 0.0
C2809 C 0.80666 0.12771 0.95266 0.0
C2810 C 0.81257 0.12131 0.93868 0.0
C2811 C 0.79467 0.11843 0.9667 0.0
C2812 C 0.78849 0.10267 0.9669 0.0
C2813 C 0.79582 0.09663 0.95523 0.0
C2814 C 0.80777 0.1059 0.94112 0.0
C2815 C 0.77274 0.0924 0.97503 0.0
C2816 C 0.77025 0.08238 0.99228 0.0
C2817 C 0.76006 0.09241 0.96521 0.0
C2818 C 0.76185 0.10197 0.94588 0.0
C2819 C 0.76811 0.10043 0.92645 0.0
C2820 C 0.77033 0.10987 0.90861 0.0
C2821 C 0.76611 0.12074 0.90988 0.0
C2822 C 0.75965 0.12218 0.92899 0.0
C2823 C 0.75749 0.11283 0.94693 0.0
H2824 H 0.76783 0.12803 0.89605 0.0
H2825 H 0.74857 0.03687 0.06887 0.0
H2826 H 0.64013 0.9557 0.01238 0.0
H2827 H 0.64189 0.933 0.01718 0.0
H2828 H 0.68554 0.9598 0.05061 0.0
H2829 H 0.68392 0.98242 0.0458 0.0
H2830 H 0.68596 0.93939 0.0231 0.0
H2831 H 0.65278 0.93922 0.07907 0.0
H2832 H 0.63022 0.93946 0.09259 0.0
H2833 H 0.60017 0.8985 0.05704 0.0
H2834 H 0.62259 0.89814 0.04309 0.0
H2835 H 0.69398 0.89158 0.09826 0.0
H2836 H 0.69231 0.91012 0.07526 0.0
H2837 H 0.64781 0.87502 0.05122 0.0
H2838 H 0.64942 0.85649 0.07479 0.0
H2839 H 0.64585 0.89726 0.06712 0.0
H2840 H 0.67949 0.89515 0.01651 0.0
H2841 H 0.70227 0.89498 0.00398 0.0
H2842 H 0.73168 0.93992 0.02948 0.0
H2843 H 0.70909 0.94029 0.04246 0.0
C2844 C 0.65016 0.95677 0.02057 0.0
C2845 C 0.66182 0.97088 0.02886 0.0
C2846 C 0.65114 0.94378 0.02334 0.0
C2847 C 0.6638 0.94465 0.03442 0.0
C2848 C 0.67568 0.95882 0.04198 0.0
C2849 C 0.67468 0.97175 0.03932 0.0
C2850 C 0.66441 0.9308 0.03936 0.0
C2851 C 0.67722 0.93017 0.03276 0.0
C2852 C 0.6528 0.91856 0.05143 0.0
C2853 C 0.63934 0.91876 0.05982 0.0
C2854 C 0.64136 0.93034 0.074 0.0
C2855 C 0.62861 0.93048 0.08176 0.0
C2856 C 0.61378 0.91903 0.07561 0.0
C2857 C 0.61167 0.90738 0.06174 0.0
C2858 C 0.62439 0.9072 0.05391 0.0
C2859 C 0.68421 0.88771 0.08722 0.0
C2860 C 0.67198 0.87257 0.0879 0.0
C2861 C 0.6832 0.89833 0.07411 0.0
C2862 C 0.66995 0.89402 0.06133 0.0
C2863 C 0.65817 0.87864 0.06085 0.0
C2864 C 0.65917 0.868 0.07407 0.0
C2865 C 0.66757 0.90588 0.0512 0.0
C2866 C 0.65445 0.90623 0.05697 0.0
C2867 C 0.67892 0.91785 0.03839 0.0
C2868 C 0.69257 0.91771 0.03057 0.0
C2869 C 0.69081 0.90496 0.01959 0.0
C2870 C 0.7037 0.90483 0.01238 0.0
C2871 C 0.71842 0.91742 0.01595 0.0
C2872 C 0.72028 0.93017 0.02671 0.0
C2873 C 0.70743 0.93036 0.03397 0.0
H2874 H 0.72838 0.9173 0.01036 0.0
H2875 H 0.60391 0.91916 0.08165 0.0
H2876 H 0.03032 0.69317 0.03167 0.0
H2877 H 0.0455 0.7205 0.03884 0.0
H2878 H 0.08536 0.72252 0.01166 0.0
H2879 H 0.07045 0.69521 0.00538 0.0
H2880 H 0.09284 0.736 0.04851 0.0
H2881 H 0.06473 0.73838 0.98614 0.0
H2882 H 0.04139 0.73166 0.96446 0.0
H2883 H 0.0258 0.74857 0.01544 0.0
H2884 H 0.04893 0.75518 0.03758 0.0
H2885 H 0.14154 0.81265 0.06713 0.0
H2886 H 0.1257 0.79123 0.04254 0.0
H2887 H 0.08479 0.78385 0.07404 0.0
H2888 H 0.10057 0.80537 0.09824 0.0
H2889 H 0.07858 0.77425 0.03133 0.0
H2890 H 0.10322 0.76775 0.09518 0.0
H2891 H 0.12538 0.77365 0.11908 0.0
H2892 H 0.14625 0.76363 0.06669 0.0
H2893 H 0.12424 0.75781 0.04238 0.0
C2894 C 0.04227 0.6995 0.02698 0.0
C2895 C 0.04922 0.69201 0.01813 0.0
C2896 C 0.05093 0.71516 0.03095 0.0
C2897 C 0.06661 0.72368 0.02564 0.0
C2898 C 0.07333 0.71625 0.01599 0.0
C2899 C 0.06478 0.70061 0.0124 0.0
C2900 C 0.0764 0.73998 0.0319 0.0
C2901 C 0.08985 0.74439 0.04421 0.0
C2902 C 0.07233 0.75093 0.02703 0.0
C2903 C 0.05852 0.74717 0.01359 0.0
C2904 C 0.05628 0.74058 0.99279 0.0
C2905 C 0.04309 0.7368 0.98041 0.0
C2906 C 0.03209 0.73964 0.9886 0.0
C2907 C 0.03431 0.74635 0.00914 0.0
C2908 C 0.04747 0.75014 0.02159 0.0
C2909 C 0.12914 0.80694 0.068 0.0
C2910 C 0.12225 0.81055 0.08462 0.0
C2911 C 0.12009 0.79461 0.0541 0.0
C2912 C 0.10408 0.7857 0.05683 0.0
C2913 C 0.0971 0.79048 0.07167 0.0
C2914 C 0.10612 0.80279 0.08549 0.0
C2915 C 0.09503 0.77014 0.04747 0.0
C2916 C 0.08168 0.76586 0.03498 0.0
C2917 C 0.09903 0.75917 0.05229 0.0
C2918 C 0.11219 0.76252 0.06691 0.0
C2919 C 0.11258 0.7669 0.08872 0.0
C2920 C 0.12511 0.77022 0.10234 0.0
C2921 C 0.13725 0.76908 0.09439 0.0
C2922 C 0.13686 0.76455 0.07281 0.0
C2923 C 0.12436 0.76122 0.05911 0.0
H2924 H 0.14694 0.77167 0.10497 0.0
H2925 H 0.02187 0.73667 0.97902 0.0
H2926 H 0.30558 0.37178 0.9926 0.0
H2927 H 0.2787 0.3606 0.00209 0.0
H2928 H 0.27918 0.32329 0.03353 0.0
H2929 H 0.30633 0.33443 0.02372 0.0
H2930 H 0.25036 0.31491 0.01157 0.0
H2931 H 0.28544 0.35093 0.06451 0.0
H2932 H 0.30758 0.37538 0.07682 0.0
H2933 H 0.28621 0.39875 0.05027 0.0
H2934 H 0.26404 0.37443 0.0375 0.0
H2935 H 0.19352 0.29863 0.09199 0.0
H2936 H 0.21397 0.30259 0.06759 0.0
H2937 H 0.2176 0.34384 0.04398 0.0
H2938 H 0.19747 0.34016 0.06906 0.0
H2939 H 0.24394 0.34939 0.06031 0.0
H2940 H 0.20744 0.31251 0.01 0.0
H2941 H 0.18538 0.28779 0.99841 0.0
H2942 H 0.20888 0.26554 0.02093 0.0
H2943 H 0.23101 0.29011 0.03294 0.0
C2944 C 0.29993 0.36105 0.0012 0.0
C2945 C 0.30815 0.35411 0.00774 0.0
C2946 C 0.28454 0.35465 0.00656 0.0
C2947 C 0.27702 0.34126 0.01884 0.0
C2948 C 0.2848 0.33366 0.02406 0.0
C2949 C 0.3003 0.34003 0.0185 0.0
C2950 C 0.26178 0.33642 0.02821 0.0
C2951 C 0.24891 0.32233 0.02241 0.0
C2952 C 0.25989 0.34625 0.04204 0.0
C2953 C 0.27315 0.36088 0.04986 0.0
C2954 C 0.28552 0.36129 0.06114 0.0
C2955 C 0.29806 0.37513 0.06823 0.0
C2956 C 0.29832 0.38862 0.06428 0.0
C2957 C 0.28601 0.38829 0.05329 0.0
C2958 C 0.27344 0.37449 0.04613 0.0
C2959 C 0.19832 0.30827 0.08104 0.0
C2960 C 0.19404 0.31919 0.08263 0.0
C2961 C 0.20999 0.3105 0.067 0.0
C2962 C 0.21744 0.32357 0.05399 0.0
C2963 C 0.21207 0.33369 0.05393 0.0
C2964 C 0.20044 0.33151 0.06811 0.0
C2965 C 0.23225 0.32791 0.04344 0.0
C2966 C 0.2452 0.34194 0.04925 0.0
C2967 C 0.23413 0.31795 0.02979 0.0
C2968 C 0.22085 0.30316 0.02254 0.0
C2969 C 0.20786 0.30234 0.01265 0.0
C2970 C 0.19535 0.28835 0.00597 0.0
C2971 C 0.19571 0.2751 0.00897 0.0
C2972 C 0.20861 0.27582 0.01862 0.0
C2973 C 0.22115 0.28977 0.02534 0.0
H2974 H 0.18602 0.26429 0.00379 0.0
H2975 H 0.30804 0.39931 0.06978 0.0
H2976 H 0.68928 0.67444 0.3708 0.0
H2977 H 0.70795 0.66719 0.38069 0.0
H2978 H 0.74434 0.70915 0.35387 0.0
H2979 H 0.72567 0.71636 0.34351 0.0
H2980 H 0.74827 0.68669 0.34264 0.0
H2981 H 0.73868 0.70378 0.4095 0.0
H2982 H 0.72346 0.70503 0.43942 0.0
H2983 H 0.70621 0.65824 0.45468 0.0
H2984 H 0.72116 0.65665 0.42463 0.0
H2985 H 0.81125 0.69055 0.40447 0.0
H2986 H 0.79191 0.69349 0.38437 0.0
H2987 H 0.75647 0.64933 0.40646 0.0
H2988 H 0.77585 0.64642 0.42647 0.0
H2989 H 0.75164 0.67184 0.41882 0.0
H2990 H 0.76348 0.65593 0.35259 0.0
H2991 H 0.78029 0.65616 0.32389 0.0
H2992 H 0.795 0.70242 0.3087 0.0
H2993 H 0.77845 0.70255 0.33754 0.0
C2994 C 0.70126 0.68216 0.36702 0.0
C2995 C 0.70596 0.69604 0.35645 0.0
C2996 C 0.71195 0.67801 0.37275 0.0
C2997 C 0.72763 0.68769 0.36828 0.0
C2998 C 0.73233 0.70147 0.35751 0.0
C2999 C 0.72163 0.70561 0.35168 0.0
C3000 C 0.73913 0.68351 0.37505 0.0
C3001 C 0.7491 0.68358 0.35936 0.0
C3002 C 0.7401 0.6792 0.39677 0.0
C3003 C 0.7309 0.68005 0.41463 0.0
C3004 C 0.73151 0.69371 0.41908 0.0
C3005 C 0.72296 0.69449 0.4361 0.0
C3006 C 0.71384 0.68171 0.4489 0.0
C3007 C 0.71326 0.66812 0.44472 0.0
C3008 C 0.72177 0.66728 0.4277 0.0
C3009 C 0.79945 0.68116 0.40399 0.0
C3010 C 0.79505 0.66813 0.41659 0.0
C3011 C 0.78837 0.68289 0.39268 0.0
C3012 C 0.7727 0.67166 0.39397 0.0
C3013 C 0.76847 0.65814 0.4052 0.0
C3014 C 0.77956 0.65638 0.41637 0.0
C3015 C 0.76069 0.6749 0.38642 0.0
C3016 C 0.75069 0.67476 0.40204 0.0
C3017 C 0.75986 0.67933 0.36475 0.0
C3018 C 0.76982 0.67929 0.34738 0.0
C3019 C 0.7704 0.6662 0.34327 0.0
C3020 C 0.77986 0.66625 0.32694 0.0
C3021 C 0.78873 0.67931 0.31452 0.0
C3022 C 0.78813 0.69232 0.31836 0.0
C3023 C 0.7787 0.69233 0.33468 0.0
H3024 H 0.79605 0.67932 0.30188 0.0
H3025 H 0.70726 0.68234 0.4621 0.0
H3026 H 0.3059 0.01207 0.37615 0.0
H3027 H 0.30662 0.03523 0.38683 0.0
H3028 H 0.34112 0.06053 0.33856 0.0
H3029 H 0.34055 0.03743 0.32787 0.0
H3030 H 0.34866 0.07529 0.37741 0.0
H3031 H 0.30408 0.05157 0.33024 0.0
H3032 H 0.27891 0.03071 0.31703 0.0
H3033 H 0.2589 0.02967 0.37868 0.0
H3034 H 0.284 0.05039 0.39237 0.0
H3035 H 0.34904 0.14233 0.39744 0.0
H3036 H 0.34437 0.12045 0.37549 0.0
H3037 H 0.30905 0.09038 0.42003 0.0
H3038 H 0.31357 0.1122 0.44165 0.0
H3039 H 0.30195 0.07889 0.37927 0.0
H3040 H 0.34579 0.09972 0.42803 0.0
H3041 H 0.37053 0.12009 0.4432 0.0
H3042 H 0.3916 0.12565 0.3809 0.0
H3043 H 0.36687 0.10548 0.36525 0.0
C3044 C 0.31362 0.02254 0.36774 0.0
C3045 C 0.32315 0.02285 0.35111 0.0
C3046 C 0.31396 0.03578 0.37379 0.0
C3047 C 0.3238 0.04963 0.36334 0.0
C3048 C 0.33339 0.04999 0.34683 0.0
C3049 C 0.33303 0.03674 0.34071 0.0
C3050 C 0.3244 0.0638 0.37008 0.0
C3051 C 0.33849 0.07617 0.37738 0.0
C3052 C 0.31108 0.06487 0.37062 0.0
C3053 C 0.29595 0.05246 0.36238 0.0
C3054 C 0.29434 0.04682 0.34104 0.0
C3055 C 0.28008 0.03503 0.33345 0.0
C3056 C 0.26732 0.02885 0.34702 0.0
C3057 C 0.26879 0.03446 0.36819 0.0
C3058 C 0.28303 0.04625 0.37586 0.0
C3059 C 0.33981 0.13109 0.40188 0.0
C3060 C 0.33155 0.12891 0.42106 0.0
C3061 C 0.33727 0.11858 0.38953 0.0
C3062 C 0.32657 0.10372 0.39636 0.0
C3063 C 0.31737 0.10168 0.41442 0.0
C3064 C 0.3199 0.11416 0.42671 0.0
C3065 C 0.32619 0.09033 0.38658 0.0
C3066 C 0.31215 0.07808 0.3789 0.0
C3067 C 0.33952 0.08926 0.38596 0.0
C3068 C 0.35445 0.10122 0.39541 0.0
C3069 C 0.35567 0.10536 0.41753 0.0
C3070 C 0.36969 0.11686 0.42622 0.0
C3071 C 0.38262 0.12419 0.41301 0.0
C3072 C 0.38156 0.11999 0.3911 0.0
C3073 C 0.36755 0.10852 0.38231 0.0
H3074 H 0.39347 0.13309 0.41976 0.0
H3075 H 0.2563 0.01972 0.34112 0.0
H3076 H 0.97996 0.31969 0.36128 0.0
H3077 H 0.95237 0.30521 0.36935 0.0
H3078 H 0.95285 0.26364 0.36821 0.0
H3079 H 0.98003 0.27782 0.35999 0.0
H3080 H 0.92744 0.25968 0.34814 0.0
H3081 H 0.95533 0.2817 0.41632 0.0
H3082 H 0.97289 0.30286 0.44064 0.0
H3083 H 0.9443 0.32198 0.43381 0.0
H3084 H 0.92667 0.301 0.40922 0.0
H3085 H 0.87134 0.20722 0.42109 0.0
H3086 H 0.89269 0.22437 0.39767 0.0
H3087 H 0.882 0.25928 0.40732 0.0
H3088 H 0.86082 0.2422 0.43106 0.0
H3089 H 0.91057 0.26947 0.41837 0.0
H3090 H 0.87982 0.24405 0.35583 0.0
H3091 H 0.86219 0.22229 0.33252 0.0
H3092 H 0.89569 0.20902 0.32896 0.0
H3093 H 0.91345 0.23058 0.35251 0.0
C3094 C 0.97414 0.30747 0.36262 0.0
C3095 C 0.98227 0.29996 0.36017 0.0
C3096 C 0.95838 0.2992 0.36724 0.0
C3097 C 0.95054 0.28332 0.3695 0.0
C3098 C 0.95859 0.27585 0.36645 0.0
C3099 C 0.97422 0.28404 0.3619 0.0
C3100 C 0.93421 0.27434 0.37625 0.0
C3101 C 0.92371 0.2618 0.36349 0.0
C3102 C 0.92922 0.27732 0.39597 0.0
C3103 C 0.93981 0.28991 0.41072 0.0
C3104 C 0.95287 0.29049 0.41987 0.0
C3105 C 0.96281 0.30243 0.43373 0.0
C3106 C 0.95974 0.31379 0.43871 0.0
C3107 C 0.94669 0.3132 0.42989 0.0
C3108 C 0.93671 0.30128 0.416 0.0
C3109 C 0.87316 0.21833 0.41745 0.0
C3110 C 0.86446 0.2234 0.42786 0.0
C3111 C 0.88541 0.22817 0.4041 0.0
C3112 C 0.88902 0.24318 0.40074 0.0
C3113 C 0.87951 0.24781 0.40973 0.0
C3114 C 0.86735 0.23802 0.42317 0.0
C3115 C 0.90381 0.25452 0.39053 0.0
C3116 C 0.91407 0.2675 0.40271 0.0
C3117 C 0.90856 0.25188 0.37032 0.0
C3118 C 0.89794 0.23891 0.35606 0.0
C3119 C 0.88339 0.23644 0.35021 0.0
C3120 C 0.87338 0.22414 0.33693 0.0
C3121 C 0.87781 0.21426 0.32929 0.0
C3122 C 0.89228 0.21668 0.33489 0.0
C3123 C 0.90233 0.22896 0.34817 0.0
H3124 H 0.87004 0.20475 0.31901 0.0
H3125 H 0.96745 0.32302 0.44944 0.0
H3126 H 0.99783 0.3674 0.36034 0.0
H3127 H 0.99735 0.39022 0.35084 0.0
H3128 H 0.04236 0.41 0.32296 0.0
H3129 H 0.04293 0.38714 0.33235 0.0
H3130 H 0.03877 0.43073 0.3482 0.0
H3131 H 0.01203 0.39442 0.29009 0.0
H3132 H 0.99234 0.36965 0.27478 0.0
H3133 H 0.95669 0.37513 0.3011 0.0
H3134 H 0.9762 0.39986 0.31684 0.0
H3135 H 0.04285 0.48415 0.27147 0.0
H3136 H 0.04292 0.465 0.29499 0.0
H3137 H 0.99535 0.44747 0.31017 0.0
H3138 H 0.99526 0.46659 0.28605 0.0
H3139 H 0.99854 0.42558 0.29595 0.0
H3140 H 0.0248 0.46323 0.35033 0.0
H3141 H 0.0442 0.48803 0.36588 0.0
H3142 H 0.08018 0.48035 0.34787 0.0
H3143 H 0.06102 0.45559 0.33192 0.0
C3144 C 0.0077 0.37663 0.35232 0.0
C3145 C 0.0204 0.37538 0.34701 0.0
C3146 C 0.00738 0.38967 0.34687 0.0
C3147 C 0.01977 0.40179 0.33605 0.0
C3148 C 0.03267 0.4008 0.33133 0.0
C3149 C 0.03295 0.38769 0.33662 0.0
C3150 C 0.01899 0.4152 0.32882 0.0
C3151 C 0.03005 0.42966 0.33666 0.0
C3152 C 0.0073 0.41374 0.31434 0.0
C3153 C 0.99557 0.3989 0.30486 0.0
C3154 C 0.99999 0.39028 0.29278 0.0
C3155 C 0.98887 0.37626 0.28399 0.0
C3156 C 0.97327 0.37079 0.28703 0.0
C3157 C 0.96877 0.37936 0.29881 0.0
C3158 C 0.97986 0.39338 0.30765 0.0
C3159 C 0.03262 0.47663 0.2806 0.0
C3160 C 0.01911 0.47695 0.27719 0.0
C3161 C 0.03263 0.46562 0.29404 0.0
C3162 C 0.01915 0.45472 0.3045 0.0
C3163 C 0.00591 0.45573 0.30233 0.0
C3164 C 0.0059 0.46678 0.2888 0.0
C3165 C 0.01846 0.44129 0.3151 0.0
C3166 C 0.00713 0.42675 0.30781 0.0
C3167 C 0.02985 0.4427 0.33019 0.0
C3168 C 0.04145 0.45758 0.33979 0.0
C3169 C 0.03685 0.46687 0.34953 0.0
C3170 C 0.04781 0.48092 0.35845 0.0
C3171 C 0.06341 0.48577 0.35783 0.0
C3172 C 0.06809 0.47657 0.34834 0.0
C3173 C 0.05718 0.46252 0.33939 0.0
H3174 H 0.07188 0.49665 0.36474 0.0
H3175 H 0.96468 0.35994 0.28021 0.0
H3176 H 0.59972 0.64821 0.33128 0.0
H3177 H 0.58412 0.62097 0.32526 0.0
H3178 H 0.62478 0.61792 0.32874 0.0
H3179 H 0.64064 0.64544 0.33471 0.0
H3180 H 0.60664 0.60316 0.29312 0.0
H3181 H 0.59921 0.60375 0.36978 0.0
H3182 H 0.59325 0.61211 0.40385 0.0
H3183 H 0.54781 0.59722 0.37932 0.0
H3184 H 0.55357 0.58896 0.34496 0.0
H3185 H 0.56369 0.52526 0.27901 0.0
H3186 H 0.57907 0.54797 0.3014 0.0
H3187 H 0.54341 0.5586 0.29534 0.0
H3188 H 0.52796 0.53577 0.27296 0.0
H3189 H 0.56037 0.56837 0.33592 0.0
H3190 H 0.56902 0.57239 0.25804 0.0
H3191 H 0.57433 0.56466 0.22283 0.0
H3192 H 0.61679 0.57132 0.24909 0.0
H3193 H 0.61169 0.57906 0.2845 0.0
C3194 C 0.60541 0.64179 0.33093 0.0
C3195 C 0.62148 0.64905 0.33343 0.0
C3196 C 0.59642 0.62615 0.32764 0.0
C3197 C 0.60324 0.61735 0.32681 0.0
C3198 C 0.61926 0.62449 0.32946 0.0
C3199 C 0.62831 0.6402 0.3329 0.0
C3200 C 0.59361 0.60088 0.32176 0.0
C3201 C 0.59676 0.59548 0.30281 0.0
C3202 C 0.58042 0.59094 0.33403 0.0
C3203 C 0.57687 0.59582 0.35472 0.0
C3204 C 0.58799 0.60236 0.37158 0.0
C3205 C 0.58463 0.60706 0.39096 0.0
C3206 C 0.57017 0.60522 0.39373 0.0
C3207 C 0.55901 0.59864 0.37715 0.0
C3208 C 0.56231 0.59392 0.35773 0.0
C3209 C 0.55881 0.53203 0.28346 0.0
C3210 C 0.54464 0.52878 0.27446 0.0
C3211 C 0.56766 0.54507 0.29604 0.0
C3212 C 0.5625 0.5551 0.29966 0.0
C3213 C 0.5476 0.55099 0.29272 0.0
C3214 C 0.53872 0.5379 0.2801 0.0
C3215 C 0.57345 0.57077 0.30735 0.0
C3216 C 0.57047 0.57602 0.32659 0.0
C3217 C 0.58674 0.58066 0.29527 0.0
C3218 C 0.5899 0.57614 0.27397 0.0
C3219 C 0.57945 0.57213 0.25634 0.0
C3220 C 0.58244 0.56779 0.23633 0.0
C3221 C 0.59586 0.56744 0.23376 0.0
C3222 C 0.60638 0.57155 0.25113 0.0
C3223 C 0.60347 0.57596 0.27115 0.0
H3224 H 0.59812 0.56402 0.21828 0.0
H3225 H 0.5676 0.60888 0.40874 0.0
H3226 H 0.35287 0.95958 0.31148 0.0
H3227 H 0.37968 0.96894 0.30424 0.0
H3228 H 0.39241 0.0126 0.33075 0.0
H3229 H 0.36518 1.00322 0.33826 0.0
H3230 H 0.40752 0.01317 0.29023 0.0
H3231 H 0.39886 0.99092 0.36191 0.0
H3232 H 0.38453 0.97084 0.38911 0.0
H3233 H 0.39043 0.93949 0.35104 0.0
H3234 H 0.4046 0.95932 0.32345 0.0
H3235 H 0.4838 0.033 0.27779 0.0
H3236 H 0.46163 0.02887 0.29864 0.0
H3237 H 0.43899 0.98082 0.28599 0.0
H3238 H 0.46137 0.98494 0.26566 0.0
H3239 H 0.43058 0.98566 0.32472 0.0
H3240 H 0.43423 0.00412 0.25135 0.0
H3241 H 0.4469 0.02192 0.22085 0.0
H3242 H 0.44866 0.05786 0.25822 0.0
H3243 H 0.43619 0.0403 0.28907 0.0
C3244 C 0.36127 0.97122 0.31578 0.0
C3245 C 0.35683 0.9806 0.32571 0.0
C3246 C 0.37665 0.97653 0.31163 0.0
C3247 C 0.38807 0.99135 0.31733 0.0
C3248 C 0.38375 1.00106 0.3264 0.0
C3249 C 0.36821 0.9957 0.33065 0.0
C3250 C 0.40443 0.99631 0.3139 0.0
C3251 C 0.41275 0.00748 0.29821 0.0
C3252 C 0.41102 0.98848 0.32377 0.0
C3253 C 0.40275 0.97661 0.34057 0.0
C3254 C 0.39704 0.97973 0.35928 0.0
C3255 C 0.38895 0.96839 0.37478 0.0
C3256 C 0.38656 0.9539 0.37179 0.0
C3257 C 0.3923 0.95073 0.35334 0.0
C3258 C 0.40038 0.96202 0.33778 0.0
C3259 C 0.47436 0.0215 0.28038 0.0
C3260 C 0.47426 0.00926 0.27029 0.0
C3261 C 0.46163 0.01916 0.29203 0.0
C3262 C 0.44847 0.00459 0.29337 0.0
C3263 C 0.44898 0.99217 0.2851 0.0
C3264 C 0.4618 0.9945 0.27362 0.0
C3265 C 0.43367 1.00246 0.30092 0.0
C3266 C 0.42557 0.9917 0.31721 0.0
C3267 C 0.42713 0.01042 0.29123 0.0
C3268 C 0.43444 0.02095 0.27261 0.0
C3269 C 0.43741 0.01584 0.25311 0.0
C3270 C 0.44454 0.02588 0.23576 0.0
C3271 C 0.44862 0.04102 0.23763 0.0
C3272 C 0.44552 0.04613 0.25682 0.0
C3273 C 0.43842 0.03615 0.27424 0.0
H3274 H 0.45415 0.04877 0.22418 0.0
H3275 H 0.38028 0.94514 0.3838 0.0
H3276 H 0.64763 0.99764 0.32153 0.0
H3277 H 0.62753 1.00299 0.31213 0.0
H3278 H 0.59503 0.96437 0.3499 0.0
H3279 H 0.61511 0.95881 0.35925 0.0
H3280 H 0.5831 0.96522 0.31035 0.0
H3281 H 0.60918 1.00036 0.36894 0.0
H3282 H 0.6316 0.02059 0.38904 0.0
H3283 H 0.6417 0.05091 0.33491 0.0
H3284 H 0.61945 0.0308 0.31434 0.0
H3285 H 0.52644 0.98303 0.28736 0.0
H3286 H 0.54404 0.97976 0.31151 0.0
H3287 H 0.58278 0.01686 0.27909 0.0
H3288 H 0.56524 0.02023 0.25533 0.0
H3289 H 0.58974 0.01591 0.32142 0.0
H3290 H 0.56706 0.98091 0.26126 0.0
H3291 H 0.54569 0.96125 0.23897 0.0
H3292 H 0.53025 0.93107 0.29402 0.0
H3293 H 0.55148 0.95071 0.3167 0.0
C3294 C 0.63623 0.99029 0.32794 0.0
C3295 C 0.63302 0.97779 0.34119 0.0
C3296 C 0.62475 0.99343 0.32264 0.0
C3297 C 0.6098 0.98422 0.33055 0.0
C3298 C 0.6065 0.97168 0.34369 0.0
C3299 C 0.61801 0.96853 0.34904 0.0
C3300 C 0.59755 0.98743 0.32437 0.0
C3301 C 0.58439 0.97619 0.31325 0.0
C3302 C 0.59937 1.00187 0.32764 0.0
C3303 C 0.61269 0.01403 0.34004 0.0
C3304 C 0.61623 0.01131 0.36126 0.0
C3305 C 0.62891 0.02277 0.37275 0.0
C3306 C 0.63809 0.03702 0.36324 0.0
C3307 C 0.63458 0.03987 0.34225 0.0
C3308 C 0.62193 0.02845 0.33068 0.0
C3309 C 0.53871 0.99092 0.28618 0.0
C3310 C 0.54453 1.00197 0.2697 0.0
C3311 C 0.54876 0.98894 0.29976 0.0
C3312 C 0.56475 0.99788 0.29683 0.0
C3313 C 0.57053 0.00982 0.28169 0.0
C3314 C 0.56051 0.0118 0.26819 0.0
C3315 C 0.5754 0.99374 0.30727 0.0
C3316 C 0.58829 0.00483 0.31902 0.0
C3317 C 0.57345 0.97922 0.30434 0.0
C3318 C 0.56075 0.96735 0.29072 0.0
C3319 C 0.55906 0.97013 0.26863 0.0
C3320 C 0.54698 0.95899 0.25592 0.0
C3321 C 0.53658 0.94493 0.26509 0.0
C3322 C 0.53829 0.94198 0.28696 0.0
C3323 C 0.55035 0.95312 0.29974 0.0
H3324 H 0.52722 0.9363 0.25525 0.0
H3325 H 0.6479 0.04587 0.37216 0.0
H3326 H 0.03805 0.6664 0.3176 0.0
H3327 H 0.03922 0.64452 0.30547 0.0
H3328 H 1.00474 0.61622 0.35221 0.0
H3329 H 1.0037 0.63813 0.36472 0.0
H3330 H 0.02632 0.60923 0.35181 0.0
H3331 H 0.99586 0.61542 0.29744 0.0
H3332 H 0.98884 0.62814 0.26939 0.0
H3333 H 0.02763 0.63689 0.2313 0.0
H3334 H 0.03504 0.62443 0.2593 0.0
H3335 H 0.99997 0.538 0.29523 0.0
H3336 H 1.00424 0.56027 0.31577 0.0
H3337 H 0.04257 0.58923 0.27466 0.0
H3338 H 0.03833 0.56702 0.25431 0.0
H3339 H 0.01967 0.59582 0.27314 0.0
H3340 H 0.04869 0.58753 0.32793 0.0
H3341 H 0.05347 0.57272 0.35528 0.0
H3342 H 0.01483 0.56584 0.39207 0.0
H3343 H 0.00968 0.58043 0.36476 0.0
C3344 C 0.03071 0.65553 0.32534 0.0
C3345 C 0.02072 0.65404 0.34208 0.0
C3346 C 0.03136 0.64299 0.31832 0.0
C3347 C 0.02193 0.62862 0.3277 0.0
C3348 C 0.01213 0.62715 0.34468 0.0
C3349 C 0.01151 0.63971 0.35176 0.0
C3350 C 0.02217 0.61513 0.31963 0.0
C3351 C 0.0247 0.60621 0.33463 0.0
C3352 C 0.02026 0.61124 0.29718 0.0
C3353 C 0.01612 0.61917 0.28062 0.0
C3354 C 1.00301 0.62023 0.28322 0.0
C3355 C 0.99893 0.62736 0.26729 0.0
C3356 C 0.00781 0.63337 0.24861 0.0
C3357 C 0.02079 0.63228 0.24582 0.0
C3358 C 0.02495 0.6252 0.26172 0.0
C3359 C 0.00979 0.54905 0.29142 0.0
C3360 C 0.01901 0.55082 0.2735 0.0
C3361 C 0.01216 0.56178 0.30301 0.0
C3362 C 0.02369 0.57644 0.29668 0.0
C3363 C 0.03362 0.57805 0.27985 0.0
C3364 C 0.03133 0.56535 0.2684 0.0
C3365 C 0.02398 0.59005 0.30523 0.0
C3366 C 0.02142 0.59893 0.2903 0.0
C3367 C 0.02563 0.59372 0.32771 0.0
C3368 C 0.02871 0.58495 0.34418 0.0
C3369 C 0.04112 0.58274 0.34174 0.0
C3370 C 0.04392 0.57441 0.35727 0.0
C3371 C 0.03444 0.56831 0.37537 0.0
C3372 C 0.02216 0.57056 0.37802 0.0
C3373 C 0.0193 0.57887 0.36254 0.0
H3374 H 0.03662 0.56186 0.38738 0.0
H3375 H 1.0046 0.63884 0.23626 0.0
H3376 H 0.36153 0.35509 0.32772 0.0
H3377 H 0.38901 0.36987 0.31916 0.0
H3378 H 0.39059 0.41103 0.33703 0.0
H3379 H 0.36337 0.39653 0.34526 0.0
H3380 H 0.40213 0.41332 0.2975 0.0
H3381 H 0.40778 0.3962 0.36877 0.0
H3382 H 0.40304 0.37701 0.39681 0.0
H3383 H 0.42168 0.35748 0.35496 0.0
H3384 H 0.42634 0.37644 0.32654 0.0
H3385 H 0.4776 0.46699 0.28534 0.0
H3386 H 0.45651 0.45028 0.3094 0.0
H3387 H 0.45534 0.41135 0.28188 0.0
H3388 H 0.47655 0.42805 0.25793 0.0
H3389 H 0.44428 0.40709 0.3269 0.0
H3390 H 0.4364 0.42181 0.25506 0.0
H3391 H 0.4416 0.44057 0.22611 0.0
H3392 H 0.42655 0.46343 0.26792 0.0
H3393 H 0.42155 0.44494 0.2973 0.0
C3394 C 0.3678 0.36727 0.33006 0.0
C3395 C 0.3602 0.37463 0.33693 0.0
C3396 C 0.38351 0.37569 0.32526 0.0
C3397 C 0.39186 0.39157 0.32744 0.0
C3398 C 0.38439 0.39881 0.3351 0.0
C3399 C 0.36878 0.39047 0.33978 0.0
C3400 C 0.40802 0.40094 0.32015 0.0
C3401 C 0.41134 0.41206 0.30423 0.0
C3402 C 0.42 0.399 0.32833 0.0
C3403 C 0.41726 0.38765 0.34544 0.0
C3404 C 0.41075 0.38773 0.36547 0.0
C3405 C 0.40811 0.37691 0.38145 0.0
C3406 C 0.41202 0.36601 0.37765 0.0
C3407 C 0.41864 0.36593 0.35788 0.0
C3408 C 0.4213 0.37672 0.34184 0.0
C3409 C 0.47343 0.45496 0.28527 0.0
C3410 C 0.4785 0.44877 0.26956 0.0
C3411 C 0.46132 0.4454 0.29896 0.0
C3412 C 0.45418 0.42957 0.29705 0.0
C3413 C 0.46066 0.42352 0.28356 0.0
C3414 C 0.47275 0.43307 0.26984 0.0
C3415 C 0.43828 0.41964 0.30487 0.0
C3416 C 0.43501 0.40836 0.32048 0.0
C3417 C 0.42621 0.42124 0.29628 0.0
C3418 C 0.42875 0.4321 0.27844 0.0
C3419 C 0.43429 0.43089 0.25812 0.0
C3420 C 0.4372 0.44147 0.24164 0.0
C3421 C 0.43444 0.45321 0.2452 0.0
C3422 C 0.42871 0.45435 0.26521 0.0
C3423 C 0.42583 0.44382 0.28178 0.0
H3424 H 0.43672 0.4614 0.23243 0.0
H3425 H 0.40996 0.35764 0.39004 0.0
H3426 H 0.34818 0.31378 0.36803 0.0
H3427 H 0.34993 0.29117 0.37196 0.0
H3428 H 0.30294 0.26332 0.34952 0.0
H3429 H 0.3011 0.28604 0.34541 0.0
H3430 H 0.30954 0.25262 0.38789 0.0
H3431 H 0.33076 0.26834 0.31656 0.0
H3432 H 0.34788 0.28652 0.2889 0.0
H3433 H 0.38736 0.29388 0.32599 0.0
H3434 H 0.37049 0.27591 0.35405 0.0
H3435 H 0.31597 0.1894 0.40255 0.0
H3436 H 0.31236 0.20666 0.3789 0.0
H3437 H 0.35895 0.24245 0.39311 0.0
H3438 H 0.3626 0.22513 0.41626 0.0
H3439 H 0.34992 0.24678 0.35329 0.0
H3440 H 0.33037 0.23558 0.4265 0.0
H3441 H 0.31478 0.21804 0.45579 0.0
H3442 H 0.27366 0.20407 0.4179 0.0
H3443 H 0.28909 0.22114 0.38799 0.0
C3444 C 0.33821 0.30287 0.36379 0.0
C3445 C 0.32448 0.30173 0.35642 0.0
C3446 C 0.33927 0.28995 0.36593 0.0
C3447 C 0.32662 0.27555 0.36084 0.0
C3448 C 0.31287 0.27433 0.35344 0.0
C3449 C 0.31185 0.28732 0.35105 0.0
C3450 C 0.32768 0.26182 0.36437 0.0
C3451 C 0.3181 0.25113 0.3799 0.0
C3452 C 0.33915 0.26011 0.35442 0.0
C3453 C 0.34935 0.27083 0.33748 0.0
C3454 C 0.3431 0.27391 0.3189 0.0
C3455 C 0.35275 0.28417 0.30313 0.0
C3456 C 0.3687 0.29137 0.3057 0.0
C3457 C 0.37501 0.2883 0.32402 0.0
C3458 C 0.3654 0.27805 0.33984 0.0
C3459 C 0.32568 0.20068 0.39955 0.0
C3460 C 0.33958 0.20595 0.41108 0.0
C3461 C 0.32357 0.21061 0.38627 0.0
C3462 C 0.33526 0.22598 0.38469 0.0
C3463 C 0.34974 0.23069 0.3941 0.0
C3464 C 0.35186 0.22077 0.40725 0.0
C3465 C 0.33182 0.23763 0.37684 0.0
C3466 C 0.34106 0.24803 0.36078 0.0
C3467 C 0.32022 0.23928 0.38659 0.0
C3468 C 0.31089 0.22947 0.40488 0.0
C3469 C 0.31802 0.22869 0.42434 0.0
C3470 C 0.30922 0.21879 0.44102 0.0
C3471 C 0.29325 0.20992 0.43869 0.0
C3472 C 0.28604 0.21093 0.41966 0.0
C3473 C 0.29481 0.22066 0.40279 0.0
H3474 H 0.28645 0.20231 0.45166 0.0
H3475 H 0.37615 0.29931 0.29348 0.0
H3476 H 0.73947 0.03259 0.34518 0.0
H3477 H 0.75377 0.05918 0.35583 0.0
H3478 H 0.71171 0.0561 0.37522 0.0
H3479 H 0.69713 0.0293 0.36409 0.0
H3480 H 0.73122 0.08362 0.35641 0.0
H3481 H 0.73407 0.05406 0.41391 0.0
H3482 H 0.73802 0.03479 0.43172 0.0
H3483 H 0.785 0.05863 0.41129 0.0
H3484 H 0.78128 0.07796 0.39311 0.0
H3485 H 0.77201 0.14231 0.44019 0.0
H3486 H 0.75439 0.12107 0.41649 0.0
H3487 H 0.79308 0.12424 0.38369 0.0
H3488 H 0.8107 0.1456 0.40723 0.0
H3489 H 0.77381 0.09706 0.40946 0.0
H3490 H 0.76957 0.1282 0.35377 0.0
H3491 H 0.76404 0.14746 0.34014 0.0
H3492 H 0.71766 0.1206 0.36251 0.0
H3493 H 0.72297 0.10127 0.37658 0.0
C3494 C 0.73318 0.03755 0.3515 0.0
C3495 C 0.71716 0.02874 0.35406 0.0
C3496 C 0.7414 0.05278 0.35762 0.0
C3497 C 0.73386 0.05956 0.36675 0.0
C3498 C 0.71777 0.05107 0.3683 0.0
C3499 C 0.70946 0.03576 0.36198 0.0
C3500 C 0.74307 0.07519 0.37581 0.0
C3501 C 0.74044 0.08655 0.36816 0.0
C3502 C 0.75506 0.07903 0.39124 0.0
C3503 C 0.75734 0.06736 0.40194 0.0
C3504 C 0.7452 0.05512 0.41303 0.0
C3505 C 0.74741 0.04421 0.42324 0.0
C3506 C 0.76174 0.04546 0.42258 0.0
C3507 C 0.7739 0.05766 0.41175 0.0
C3508 C 0.77175 0.0686 0.40151 0.0
C3509 C 0.77669 0.13905 0.42701 0.0
C3510 C 0.79267 0.14565 0.42528 0.0
C3511 C 0.76663 0.12686 0.41359 0.0
C3512 C 0.77245 0.12107 0.39841 0.0
C3513 C 0.78839 0.12863 0.39523 0.0
C3514 C 0.79844 0.14091 0.40851 0.0
C3515 C 0.76238 0.10561 0.38944 0.0
C3516 C 0.76471 0.09419 0.39748 0.0
C3517 C 0.74992 0.10175 0.37493 0.0
C3518 C 0.74672 0.11335 0.36643 0.0
C3519 C 0.75823 0.12646 0.35599 0.0
C3520 C 0.75513 0.13738 0.34813 0.0
C3521 C 0.74052 0.13527 0.35051 0.0
C3522 C 0.72897 0.12222 0.3607 0.0
C3523 C 0.73202 0.11127 0.3686 0.0
H3524 H 0.73814 0.14373 0.34441 0.0
H3525 H 0.76343 0.03701 0.4305 0.0
H3526 H 0.97528 0.66905 0.36044 0.0
H3527 H 0.94764 0.65838 0.36646 0.0
H3528 H 0.95265 0.70115 0.34813 0.0
H3529 H 0.97988 0.71176 0.3421 0.0
H3530 H 0.94075 0.69132 0.38955 0.0
H3531 H 0.93277 0.67148 0.31596 0.0
H3532 H 0.93469 0.65636 0.28657 0.0
H3533 H 0.90942 0.61594 0.32495 0.0
H3534 H 0.90753 0.63086 0.35471 0.0
H3535 H 0.86828 0.67789 0.40613 0.0
H3536 H 0.88983 0.6831 0.38297 0.0
H3537 H 0.88064 0.63784 0.39447 0.0
H3538 H 0.85867 0.63236 0.41676 0.0
H3539 H 0.89424 0.64779 0.3557 0.0
H3540 H 0.9035 0.66589 0.4294 0.0
H3541 H 0.90163 0.67948 0.46101 0.0
H3542 H 0.92532 0.72146 0.42564 0.0
H3543 H 0.92708 0.70805 0.39365 0.0
C3544 C 0.97037 0.67602 0.35721 0.0
C3545 C 0.97981 0.69131 0.35112 0.0
C3546 C 0.9546 0.66992 0.36065 0.0
C3547 C 0.94814 0.67904 0.3579 0.0
C3548 C 0.9574 0.69396 0.3505 0.0
C3549 C 0.97301 0.7 0.3471 0.0
C3550 C 0.93228 0.67387 0.36496 0.0
C3551 C 0.93059 0.68194 0.38189 0.0
C3552 C 0.91905 0.66128 0.35556 0.0
C3553 C 0.92015 0.65231 0.33765 0.0
C3554 C 0.92775 0.65939 0.31822 0.0
C3555 C 0.9288 0.65085 0.30147 0.0
C3556 C 0.92222 0.6352 0.30392 0.0
C3557 C 0.91453 0.62806 0.32309 0.0
C3558 C 0.91346 0.63655 0.33989 0.0
C3559 C 0.87039 0.66883 0.40287 0.0
C3560 C 0.862 0.65483 0.41362 0.0
C3561 C 0.88282 0.67186 0.38979 0.0
C3562 C 0.88717 0.66102 0.3876 0.0
C3563 C 0.87764 0.64644 0.39611 0.0
C3564 C 0.86512 0.64335 0.40894 0.0
C3565 C 0.90275 0.66557 0.37983 0.0
C3566 C 0.90442 0.65728 0.36312 0.0
C3567 C 0.91608 0.67779 0.38974 0.0
C3568 C 0.91528 0.68594 0.40906 0.0
C3569 C 0.90823 0.678 0.42832 0.0
C3570 C 0.90719 0.68567 0.4463 0.0
C3571 C 0.91333 0.70132 0.44532 0.0
C3572 C 0.92055 0.70934 0.42636 0.0
C3573 C 0.92157 0.70171 0.4083 0.0
H3574 H 0.91251 0.70724 0.45925 0.0
H3575 H 0.92305 0.62861 0.29093 0.0
H3576 H 0.38533 0.04558 0.70269 0.0
H3577 H 0.408 0.04444 0.71343 0.0
H3578 H 0.3897 1.00213 0.67878 0.0
H3579 H 0.36704 1.00317 0.66795 0.0
H3580 H 0.39967 1.00099 0.7205 0.0
H3581 H 0.41926 0.03411 0.658 0.0
H3582 H 0.42508 0.05658 0.63604 0.0
H3583 H 0.45361 0.08579 0.68816 0.0
H3584 H 0.44779 0.06349 0.71055 0.0
H3585 H 0.46237 0.99252 0.7367 0.0
H3586 H 0.44524 0.99735 0.71405 0.0
H3587 H 0.46196 0.03995 0.74726 0.0
H3588 H 0.47909 0.03513 0.76978 0.0
H3589 H 0.45338 0.04109 0.70424 0.0
H3590 H 0.43286 0.01019 0.76778 0.0
H3591 H 0.42708 0.989 0.79256 0.0
H3592 H 0.40021 0.95707 0.74197 0.0
H3593 H 0.40596 0.97813 0.71677 0.0
C3594 C 0.38616 0.03607 0.69725 0.0
C3595 C 0.37434 0.02446 0.68445 0.0
C3596 C 0.39917 0.03547 0.70332 0.0
C3597 C 0.40062 0.02325 0.69677 0.0
C3598 C 0.38885 0.01168 0.68398 0.0
C3599 C 0.37591 0.01232 0.67777 0.0
C3600 C 0.41406 0.02218 0.70398 0.0
C3601 C 0.41138 0.00962 0.71655 0.0
C3602 C 0.42941 0.0337 0.69952 0.0
C3603 C 0.43298 0.04712 0.68602 0.0
C3604 C 0.42668 0.04532 0.66484 0.0
C3605 C 0.43 0.05803 0.65231 0.0
C3606 C 0.43968 0.0726 0.66072 0.0
C3607 C 0.4461 0.0745 0.68167 0.0
C3608 C 0.44281 0.06183 0.69428 0.0
C3609 C 0.46296 0.00326 0.73829 0.0
C3610 C 0.47212 0.01353 0.75477 0.0
C3611 C 0.45305 0.00595 0.72555 0.0
C3612 C 0.45212 0.01889 0.72925 0.0
C3613 C 0.46248 0.02991 0.7441 0.0
C3614 C 0.47233 0.0272 0.75687 0.0
C3615 C 0.43891 0.01979 0.7204 0.0
C3616 C 0.44163 0.03236 0.70781 0.0
C3617 C 0.42358 0.00844 0.72519 0.0
C3618 C 0.41998 0.99573 0.74031 0.0
C3619 C 0.42582 0.99865 0.76188 0.0
C3620 C 0.42254 0.98667 0.77601 0.0
C3621 C 0.41334 0.97169 0.76883 0.0
C3622 C 0.40736 0.96868 0.7475 0.0
C3623 C 0.41061 0.98064 0.73328 0.0
H3624 H 0.41082 0.96243 0.7798 0.0
H3625 H 0.44223 0.08242 0.65099 0.0
H3626 H 0.97524 0.34707 0.70593 0.0
H3627 H 0.97378 0.36933 0.71511 0.0
H3628 H 0.01197 0.39696 0.67306 0.0
H3629 H 0.01355 0.37478 0.66384 0.0
H3630 H 0.01548 0.41022 0.71275 0.0
H3631 H 0.97575 0.3871 0.65761 0.0
H3632 H 0.95232 0.36621 0.64021 0.0
H3633 H 0.92629 0.36248 0.69687 0.0
H3634 H 0.94962 0.38321 0.71474 0.0
H3635 H 0.01223 0.47523 0.73052 0.0
H3636 H 0.00994 0.45449 0.70809 0.0
H3637 H 0.97077 0.42224 0.74543 0.0
H3638 H 0.9729 0.44296 0.76743 0.0
H3639 H 0.96799 0.41221 0.70426 0.0
H3640 H 0.00669 0.43197 0.76117 0.0
H3641 H 0.02946 0.45204 0.78089 0.0
H3642 H 0.05673 0.46088 0.72373 0.0
H3643 H 0.03403 0.44099 0.70354 0.0
C3644 C 0.98329 0.35786 0.69855 0.0
C3645 C 0.99452 0.35911 0.68413 0.0
C3646 C 0.98239 0.37058 0.70373 0.0
C3647 C 0.99266 0.38482 0.69461 0.0
C3648 C 1.00388 0.3861 0.68025 0.0
C3649 C 1.00475 0.37338 0.67497 0.0
C3650 C 0.99209 0.39847 0.70073 0.0
C3651 C 0.00518 0.41077 0.71046 0.0
C3652 C 0.97854 0.39905 0.69834 0.0
C3653 C 0.96447 0.38664 0.68757 0.0
C3654 C 0.96506 0.38176 0.66642 0.0
C3655 C 0.95179 0.36995 0.65647 0.0
C3656 C 0.93783 0.363 0.66745 0.0
C3657 C 0.93711 0.36786 0.68839 0.0
C3658 C 0.95035 0.37966 0.69843 0.0
C3659 C 1.00269 0.46379 0.73313 0.0
C3660 C 0.99265 0.46065 0.7505 0.0
C3661 C 1.00149 0.45192 0.72054 0.0
C3662 C 0.99039 0.43675 0.7254 0.0
C3663 C 0.97944 0.43381 0.74137 0.0
C3664 C 0.98061 0.44565 0.75386 0.0
C3665 C 0.99138 0.42394 0.71622 0.0
C3666 C 0.97836 0.41176 0.70614 0.0
C3667 C 1.00492 0.42333 0.71859 0.0
C3668 C 0.01864 0.43512 0.73077 0.0
C3669 C 0.01752 0.43826 0.75276 0.0
C3670 C 0.03041 0.4496 0.76403 0.0
C3671 C 0.04453 0.45776 0.75355 0.0
C3672 C 0.04578 0.45456 0.7318 0.0
C3673 C 0.03291 0.44326 0.72044 0.0
H3674 H 0.05449 0.46654 0.76229 0.0
H3675 H 0.92757 0.35386 0.65972 0.0
H3676 H 0.65233 0.61606 0.6828 0.0
H3677 H 0.62488 0.60161 0.68933 0.0
H3678 H 0.62553 0.64302 0.70192 0.0
H3679 H 0.65337 0.65775 0.69551 0.0
H3680 H 0.61099 0.62209 0.73372 0.0
H3681 H 0.60734 0.62208 0.65612 0.0
H3682 H 0.61345 0.61924 0.61831 0.0
H3683 H 0.59728 0.57224 0.63009 0.0
H3684 H 0.59128 0.57484 0.66807 0.0
H3685 H 0.53381 0.5758 0.75942 0.0
H3686 H 0.55469 0.59448 0.73656 0.0
H3687 H 0.56511 0.56054 0.71815 0.0
H3688 H 0.54397 0.54179 0.7406 0.0
H3689 H 0.57228 0.58102 0.68555 0.0
H3690 H 0.58202 0.58238 0.76356 0.0
H3691 H 0.57749 0.58455 0.80244 0.0
H3692 H 0.58311 0.6282 0.79039 0.0
H3693 H 0.58769 0.62628 0.75138 0.0
C3694 C 0.64668 0.62219 0.68672 0.0
C3695 C 0.65511 0.6381 0.68872 0.0
C3696 C 0.6309 0.61387 0.69027 0.0
C3697 C 0.62305 0.62121 0.69584 0.0
C3698 C 0.63133 0.63713 0.69748 0.0
C3699 C 0.64722 0.64553 0.69379 0.0
C3700 C 0.60654 0.61197 0.70175 0.0
C3701 C 0.60241 0.61341 0.72293 0.0
C3702 C 0.59543 0.60034 0.68791 0.0
C3703 C 0.59892 0.59868 0.665 0.0
C3704 C 0.60517 0.61116 0.6507 0.0
C3705 C 0.6086 0.60959 0.62922 0.0
C3706 C 0.60577 0.59557 0.62181 0.0
C3707 C 0.59946 0.58309 0.63585 0.0
C3708 C 0.59602 0.5846 0.65735 0.0
C3709 C 0.54007 0.57218 0.74958 0.0
C3710 C 0.53728 0.55738 0.75164 0.0
C3711 C 0.55212 0.58289 0.73675 0.0
C3712 C 0.56174 0.57902 0.72612 0.0
C3713 C 0.5579 0.56382 0.72628 0.0
C3714 C 0.54574 0.55306 0.73897 0.0
C3715 C 0.57687 0.59103 0.71758 0.0
C3716 C 0.58075 0.59002 0.69603 0.0
C3717 C 0.58785 0.60297 0.73115 0.0
C3718 C 0.58501 0.6041 0.75453 0.0
C3719 C 0.58218 0.59239 0.76918 0.0
C3720 C 0.57962 0.59358 0.79124 0.0
C3721 C 0.57991 0.60646 0.79887 0.0
C3722 C 0.58284 0.61821 0.78445 0.0
C3723 C 0.58545 0.61709 0.76237 0.0
H3724 H 0.57793 0.60735 0.81596 0.0
H3725 H 0.60844 0.59438 0.60519 0.0
H3726 H 0.71561 0.72402 0.6614 0.0
H3727 H 0.71471 0.74643 0.65036 0.0
H3728 H 0.6725 0.72964 0.68536 0.0
H3729 H 0.67328 0.70723 0.69642 0.0
H3730 H 0.67055 0.73847 0.64382 0.0
H3731 H 0.70583 0.75939 0.70509 0.0
H3732 H 0.72908 0.76553 0.72655 0.0
H3733 H 0.75745 0.79185 0.67316 0.0
H3734 H 0.73435 0.7857 0.65126 0.0
H3735 H 0.66253 0.80063 0.6269 0.0
H3736 H 0.66789 0.78412 0.64951 0.0
H3737 H 0.70955 0.79886 0.61401 0.0
H3738 H 0.70417 0.81534 0.59145 0.0
H3739 H 0.7121 0.79177 0.65764 0.0
H3740 H 0.67887 0.76988 0.59541 0.0
H3741 H 0.65676 0.7636 0.57122 0.0
H3742 H 0.6258 0.73893 0.62323 0.0
H3743 H 0.64779 0.74517 0.64783 0.0
C3744 C 0.70619 0.72515 0.6669 0.0
C3745 C 0.69451 0.71379 0.6798 0.0
C3746 C 0.70573 0.73801 0.66065 0.0
C3747 C 0.69359 0.73979 0.66715 0.0
C3748 C 0.68199 0.72854 0.68017 0.0
C3749 C 0.68249 0.71573 0.68653 0.0
C3750 C 0.69253 0.75297 0.65952 0.0
C3751 C 0.67951 0.75011 0.64724 0.0
C3752 C 0.70445 0.76819 0.66327 0.0
C3753 C 0.71835 0.77197 0.67647 0.0
C3754 C 0.71702 0.76639 0.69786 0.0
C3755 C 0.73018 0.76989 0.71012 0.0
C3756 C 0.74473 0.77905 0.70121 0.0
C3757 C 0.74617 0.78475 0.68004 0.0
C3758 C 0.73305 0.78127 0.6677 0.0
C3759 C 0.67323 0.80093 0.62476 0.0
C3760 C 0.68304 0.80936 0.60767 0.0
C3761 C 0.6762 0.79137 0.63748 0.0
C3762 C 0.689 0.79007 0.6332 0.0
C3763 C 0.69964 0.79969 0.61764 0.0
C3764 C 0.69662 0.80918 0.60485 0.0
C3765 C 0.69002 0.77721 0.64233 0.0
C3766 C 0.70305 0.78011 0.65459 0.0
C3767 C 0.67825 0.76198 0.63826 0.0
C3768 C 0.66498 0.75814 0.62353 0.0
C3769 C 0.66735 0.76322 0.60175 0.0
C3770 C 0.65484 0.75965 0.58795 0.0
C3771 C 0.63988 0.75094 0.5957 0.0
C3772 C 0.6374 0.74571 0.61726 0.0
C3773 C 0.64988 0.74924 0.63113 0.0
H3774 H 0.6302 0.74819 0.58499 0.0
H3775 H 0.7549 0.78174 0.71073 0.0
H3776 H 0.27533 0.98737 0.67435 0.0
H3777 H 0.25946 0.96008 0.66918 0.0
H3778 H 0.30014 0.95728 0.66473 0.0
H3779 H 0.31628 0.98489 0.66977 0.0
H3780 H 0.27992 0.94203 0.63177 0.0
H3781 H 0.27711 0.94311 0.70924 0.0
H3782 H 0.2733 0.95157 0.74486 0.0
H3783 H 0.22659 0.93653 0.72678 0.0
H3784 H 0.23018 0.92818 0.6909 0.0
H3785 H 0.23676 0.86369 0.62123 0.0
H3786 H 0.25296 0.88682 0.6424 0.0
H3787 H 0.21721 0.8974 0.63907 0.0
H3788 H 0.20097 0.87424 0.61768 0.0
H3789 H 0.23631 0.90757 0.67915 0.0
H3790 H 0.2405 0.91056 0.60032 0.0
H3791 H 0.24402 0.90251 0.56413 0.0
H3792 H 0.28798 0.91015 0.58497 0.0
H3793 H 0.28465 0.91814 0.62136 0.0
C3794 C 0.28098 0.981 0.67248 0.0
C3795 C 0.29713 0.98838 0.67243 0.0
C3796 C 0.27184 0.96532 0.66967 0.0
C3797 C 0.27856 0.95655 0.66681 0.0
C3798 C 0.29469 0.9638 0.66702 0.0
C3799 C 0.3039 0.97957 0.66996 0.0
C3800 C 0.26862 0.94001 0.66214 0.0
C3801 C 0.27063 0.93445 0.64242 0.0
C3802 C 0.25619 0.93014 0.67571 0.0
C3803 C 0.25396 0.93511 0.6973 0.0
C3804 C 0.26606 0.94171 0.71278 0.0
C3805 C 0.26393 0.94647 0.73304 0.0
C3806 C 0.24972 0.94461 0.73806 0.0
C3807 C 0.2376 0.93797 0.72286 0.0
C3808 C 0.23966 0.9332 0.70257 0.0
C3809 C 0.23205 0.87054 0.62603 0.0
C3810 C 0.21761 0.86718 0.61794 0.0
C3811 C 0.24138 0.88383 0.63792 0.0
C3812 C 0.23639 0.89395 0.64194 0.0
C3813 C 0.22126 0.88973 0.63612 0.0
C3814 C 0.21193 0.87643 0.62409 0.0
C3815 C 0.24765 0.90976 0.64886 0.0
C3816 C 0.24581 0.91516 0.6688 0.0
C3817 C 0.26021 0.91954 0.63549 0.0
C3818 C 0.26226 0.91478 0.61362 0.0
C3819 C 0.25086 0.91041 0.59723 0.0
C3820 C 0.25285 0.90592 0.57667 0.0
C3821 C 0.26619 0.90578 0.57228 0.0
C3822 C 0.27762 0.91023 0.58842 0.0
C3823 C 0.27572 0.91477 0.60899 0.0
H3824 H 0.2677 0.90228 0.55637 0.0
H3825 H 0.2481 0.94831 0.75375 0.0
H3826 H 0.0379 0.30426 0.67885 0.0
H3827 H 0.06516 0.31684 0.67167 0.0
H3828 H 0.06644 0.35853 0.65767 0.0
H3829 H 0.03869 0.34579 0.6648 0.0
H3830 H 0.08014 0.35136 0.62597 0.0
H3831 H 0.08482 0.35629 0.70294 0.0
H3832 H 0.07896 0.34842 0.74141 0.0
H3833 H 0.09212 0.31547 0.73248 0.0
H3834 H 0.09785 0.32297 0.69385 0.0
H3835 H 0.15731 0.3812 0.60252 0.0
H3836 H 0.13717 0.37901 0.62624 0.0
H3837 H 0.1217 0.33194 0.63771 0.0
H3838 H 0.14185 0.33409 0.61385 0.0
H3839 H 0.11756 0.34733 0.67428 0.0
H3840 H 0.1073 0.33905 0.59605 0.0
H3841 H 0.11372 0.3469 0.55763 0.0
H3842 H 0.11109 0.38645 0.56957 0.0
H3843 H 0.10493 0.37896 0.6082 0.0
C3844 C 0.04393 0.31616 0.67446 0.0
C3845 C 0.03607 0.324 0.67227 0.0
C3846 C 0.05961 0.32339 0.67054 0.0
C3847 C 0.06793 0.33869 0.66439 0.0
C3848 C 0.06025 0.34673 0.66255 0.0
C3849 C 0.04443 0.33947 0.66667 0.0
C3850 C 0.0843 0.34559 0.65823 0.0
C3851 C 0.08844 0.35089 0.63677 0.0
C3852 C 0.09509 0.34471 0.67215 0.0
C3853 C 0.09171 0.34016 0.69543 0.0
C3854 C 0.08637 0.34729 0.70912 0.0
C3855 C 0.08309 0.34291 0.73097 0.0
C3856 C 0.08515 0.33145 0.73937 0.0
C3857 C 0.09054 0.32436 0.72595 0.0
C3858 C 0.09383 0.32869 0.70408 0.0
C3859 C 0.15001 0.37056 0.61085 0.0
C3860 C 0.15101 0.35777 0.60625 0.0
C3861 C 0.13849 0.36931 0.62433 0.0
C3862 C 0.12779 0.35524 0.63337 0.0
C3863 C 0.12986 0.34289 0.63084 0.0
C3864 C 0.1414 0.34414 0.6173 0.0
C3865 C 0.11314 0.35275 0.64205 0.0
C3866 C 0.10934 0.34819 0.6638 0.0
C3867 C 0.10264 0.35429 0.62844 0.0
C3868 C 0.10582 0.35853 0.60506 0.0
C3869 C 0.10817 0.34946 0.59051 0.0
C3870 C 0.11175 0.35384 0.5687 0.0
C3871 C 0.11285 0.36718 0.56118 0.0
C3872 C 0.11027 0.37613 0.57544 0.0
C3873 C 0.10673 0.37182 0.59729 0.0
H3874 H 0.11567 0.37057 0.54431 0.0
H3875 H 0.0826 0.32807 0.7563 0.0
H3876 H 0.29626 0.30487 0.67564 0.0
H3877 H 0.27411 0.3078 0.66908 0.0
H3878 H 0.30409 0.35256 0.64305 0.0
H3879 H 0.32623 0.34978 0.64963 0.0
H3880 H 0.2825 0.35208 0.66941 0.0
H3881 H 0.28371 0.32281 0.60919 0.0
H3882 H 0.28395 0.30136 0.59212 0.0
H3883 H 0.24072 0.27009 0.62143 0.0
H3884 H 0.24033 0.29136 0.63892 0.0
H3885 H 0.23451 0.36441 0.59712 0.0
H3886 H 0.25342 0.36183 0.61884 0.0
H3887 H 0.21813 0.31659 0.63739 0.0
H3888 H 0.19932 0.31913 0.61518 0.0
H3889 H 0.24077 0.31589 0.61951 0.0
H3890 H 0.23796 0.34585 0.67583 0.0
H3891 H 0.23776 0.36756 0.69199 0.0
H3892 H 0.28368 0.39776 0.66983 0.0
H3893 H 0.28409 0.37627 0.65325 0.0
C3894 C 0.29815 0.31536 0.6686 0.0
C3895 C 0.31303 0.32705 0.66302 0.0
C3896 C 0.28547 0.31702 0.66484 0.0
C3897 C 0.28741 0.33037 0.65543 0.0
C3898 C 0.30229 0.34217 0.65037 0.0
C3899 C 0.31494 0.34051 0.65403 0.0
C3900 C 0.27395 0.33189 0.64995 0.0
C3901 C 0.27339 0.34422 0.65842 0.0
C3902 C 0.26186 0.32144 0.63605 0.0
C3903 C 0.26209 0.30865 0.62558 0.0
C3904 C 0.27433 0.31135 0.61215 0.0
C3905 C 0.27448 0.29923 0.60237 0.0
C3906 C 0.26238 0.28437 0.60575 0.0
C3907 C 0.25009 0.2816 0.61887 0.0
C3908 C 0.2499 0.29368 0.62871 0.0
C3909 C 0.23068 0.35424 0.60676 0.0
C3910 C 0.21543 0.34209 0.6049 0.0
C3911 C 0.2415 0.35271 0.6191 0.0
C3912 C 0.23725 0.339 0.62984 0.0
C3913 C 0.22172 0.32727 0.62929 0.0
C3914 C 0.21091 0.32879 0.61687 0.0
C3915 C 0.24927 0.33618 0.63884 0.0
C3916 C 0.24965 0.32363 0.63088 0.0
C3917 C 0.26118 0.34646 0.65317 0.0
C3918 C 0.26101 0.35944 0.66316 0.0
C3919 C 0.24798 0.35713 0.67425 0.0
C3920 C 0.24784 0.3694 0.68351 0.0
C3921 C 0.26069 0.38403 0.6819 0.0
C3922 C 0.27373 0.38642 0.67106 0.0
C3923 C 0.27393 0.37419 0.66175 0.0
H3924 H 0.26056 0.39352 0.68909 0.0
H3925 H 0.26252 0.275 0.59815 0.0
H3926 H 0.71751 0.99314 0.6823 0.0
H3927 H 0.71249 0.96751 0.67643 0.0
H3928 H 0.66617 0.95273 0.65529 0.0
H3929 H 0.67101 0.97824 0.66142 0.0
H3930 H 0.66672 0.93136 0.68052 0.0
H3931 H 0.69475 0.96214 0.61843 0.0
H3932 H 0.71654 0.98399 0.60032 0.0
H3933 H 0.7474 0.97112 0.62711 0.0
H3934 H 0.7258 0.94929 0.64561 0.0
H3935 H 0.64563 0.87146 0.60634 0.0
H3936 H 0.6516 0.89294 0.62964 0.0
H3937 H 0.6969 0.90055 0.64243 0.0
H3938 H 0.69099 0.87916 0.61846 0.0
H3939 H 0.69916 0.92519 0.62712 0.0
H3940 H 0.66996 0.89164 0.68423 0.0
H3941 H 0.64787 0.86958 0.70144 0.0
H3942 H 0.61897 0.88708 0.68395 0.0
H3943 H 0.64082 0.90914 0.66634 0.0
C3944 C 0.70622 0.98442 0.67655 0.0
C3945 C 0.69471 0.98782 0.67216 0.0
C3946 C 0.70337 0.96976 0.67316 0.0
C3947 C 0.689 0.95819 0.66516 0.0
C3948 C 0.67735 0.96144 0.66147 0.0
C3949 C 0.68017 0.97608 0.66489 0.0
C3950 C 0.68628 0.94294 0.65956 0.0
C3951 C 0.67376 0.92997 0.66878 0.0
C3952 C 0.69573 0.94111 0.64475 0.0
C3953 C 0.7087 0.9542 0.63361 0.0
C3954 C 0.7062 0.96404 0.62059 0.0
C3955 C 0.71851 0.97641 0.61024 0.0
C3956 C 0.73335 0.97897 0.61262 0.0
C3957 C 0.7359 0.96914 0.62531 0.0
C3958 C 0.72363 0.95677 0.63573 0.0
C3959 C 0.65664 0.87734 0.61485 0.0
C3960 C 0.66785 0.87365 0.61061 0.0
C3961 C 0.66007 0.88965 0.62823 0.0
C3962 C 0.67474 0.89847 0.63787 0.0
C3963 C 0.68551 0.89396 0.63517 0.0
C3964 C 0.68208 0.88162 0.62169 0.0
C3965 C 0.6794 0.91346 0.64779 0.0
C3966 C 0.69227 0.92646 0.63927 0.0
C3967 C 0.67024 0.91527 0.66321 0.0
C3968 C 0.65704 0.90203 0.67385 0.0
C3969 C 0.65887 0.89074 0.68391 0.0
C3970 C 0.64639 0.87824 0.69377 0.0
C3971 C 0.63202 0.87692 0.69377 0.0
C3972 C 0.63011 0.88812 0.68394 0.0
C3973 C 0.64255 0.90064 0.67406 0.0
H3974 H 0.62237 0.86723 0.7014 0.0
H3975 H 0.74287 0.98855 0.60459 0.0
H3976 H 0.02875 0.69072 0.67282 0.0
H3977 H 0.05669 0.70619 0.66673 0.0
H3978 H 0.05216 0.74409 0.6481 0.0
H3979 H 0.02471 0.72906 0.65422 0.0
H3980 H 0.0674 0.73616 0.6175 0.0
H3981 H 0.06701 0.74571 0.69488 0.0
H3982 H 0.06175 0.73815 0.73355 0.0
H3983 H 0.09093 0.71959 0.73104 0.0
H3984 H 0.09619 0.72687 0.69223 0.0
H3985 H 0.14282 0.80519 0.62688 0.0
H3986 H 0.12073 0.78626 0.64794 0.0
H3987 H 0.12233 0.75039 0.61489 0.0
H3988 H 0.14449 0.7692 0.59422 0.0
H3989 H 0.10949 0.75541 0.67307 0.0
H3990 H 0.08664 0.73283 0.58754 0.0
H3991 H 0.08997 0.74085 0.54893 0.0
H3992 H 0.10594 0.78661 0.56865 0.0
H3993 H 0.10241 0.77879 0.60732 0.0
C3994 C 0.03376 0.70237 0.66753 0.0
C3995 C 0.02444 0.70859 0.66393 0.0
C3996 C 0.04971 0.7112 0.66418 0.0
C3997 C 0.05647 0.7263 0.657 0.0
C3998 C 0.04719 0.73249 0.65365 0.0
C3999 C 0.03144 0.72381 0.65717 0.0
C4000 C 0.07299 0.73563 0.65144 0.0
C4001 C 0.07659 0.74019 0.62966 0.0
C4002 C 0.08498 0.74101 0.6673 0.0
C4003 C 0.08183 0.73665 0.69059 0.0
C4004 C 0.07217 0.73987 0.70251 0.0
C4005 C 0.06922 0.73567 0.72447 0.0
C4006 C 0.07596 0.72834 0.73473 0.0
C4007 C 0.08569 0.72524 0.72306 0.0
C4008 C 0.08867 0.72941 0.70109 0.0
C4009 C 0.13902 0.79331 0.6251 0.0
C4010 C 0.1453 0.78864 0.6089 0.0
C4011 C 0.12636 0.78248 0.63706 0.0
C4012 C 0.11981 0.76694 0.63278 0.0
C4013 C 0.12721 0.76232 0.61846 0.0
C4014 C 0.1399 0.77308 0.6067 0.0
C4015 C 0.10375 0.75594 0.63918 0.0
C4016 C 0.10028 0.75109 0.66095 0.0
C4017 C 0.09173 0.75031 0.62338 0.0
C4018 C 0.09449 0.75527 0.60028 0.0
C4019 C 0.09093 0.74461 0.58361 0.0
C4020 C 0.09281 0.74911 0.56173 0.0
C4021 C 0.09819 0.76424 0.55636 0.0
C4022 C 0.10182 0.77492 0.57285 0.0
C4023 C 0.09992 0.77046 0.59475 0.0
H4024 H 0.09941 0.76764 0.53942 0.0
H4025 H 0.07367 0.7251 0.75174 0.0
H4026 H 0.97677 0.6301 0.70656 0.0
H4027 H 0.9797 0.60893 0.71773 0.0
H4028 H 0.99153 0.60482 0.65191 0.0
H4029 H 0.98856 0.626 0.64053 0.0
H4030 H 0.97191 0.57702 0.66966 0.0
H4031 H 0.01942 0.62148 0.68974 0.0
H4032 H 0.03613 0.64651 0.70686 0.0
H4033 H 0.01863 0.6275 0.76998 0.0
H4034 H 1.00164 0.60239 0.7532 0.0
H4035 H 0.01529 0.5457 0.74206 0.0
H4036 H 0.015 0.56457 0.71762 0.0
H4037 H 0.96589 0.5425 0.72482 0.0
H4038 H 0.96624 0.5237 0.74902 0.0
H4039 H 0.00743 0.58412 0.73115 0.0
H4040 H 0.94973 0.55061 0.68226 0.0
H4041 H 0.93423 0.52589 0.66377 0.0
H4042 H 0.97466 0.52345 0.65523 0.0
H4043 H 0.99044 0.54825 0.67338 0.0
C4044 C 0.97993 0.62468 0.6944 0.0
C4045 C 0.98249 0.62983 0.67264 0.0
C4046 C 0.98167 0.61259 0.70084 0.0
C4047 C 0.98601 0.60537 0.68572 0.0
C4048 C 0.9882 0.61022 0.66388 0.0
C4049 C 0.98654 0.62238 0.65742 0.0
C4050 C 0.98846 0.59292 0.69288 0.0
C4051 C 0.9797 0.57856 0.68306 0.0
C4052 C 0.99892 0.595 0.71 0.0
C4053 C 0.00917 0.61007 0.72018 0.0
C4054 C 0.01905 0.62266 0.70725 0.0
C4055 C 0.02858 0.63686 0.7169 0.0
C4056 C 0.02842 0.6386 0.73949 0.0
C4057 C 0.01874 0.62614 0.75248 0.0
C4058 C 0.00916 0.61191 0.74291 0.0
C4059 C 1.00438 0.54451 0.73754 0.0
C4060 C 0.99075 0.53313 0.74706 0.0
C4061 C 1.00423 0.55539 0.72382 0.0
C4062 C 0.99042 0.555 0.71933 0.0
C4063 C 0.97666 0.54296 0.72769 0.0
C4064 C 0.97683 0.53216 0.74144 0.0
C4065 C 0.99054 0.56804 0.70839 0.0
C4066 C 0.99975 0.58255 0.71758 0.0
C4067 C 0.98064 0.56611 0.69053 0.0
C4068 C 0.97125 0.55126 0.67934 0.0
C4069 C 0.95533 0.54484 0.67634 0.0
C4070 C 0.94649 0.5308 0.66594 0.0
C4071 C 0.95344 0.52308 0.65838 0.0
C4072 C 0.96927 0.52941 0.66116 0.0
C4073 C 0.97817 0.54345 0.67154 0.0
H4074 H 0.94658 0.51221 0.65034 0.0
H4075 H 0.03581 0.64961 0.74692 0.0
H4076 H 0.40507 0.35588 0.70786 0.0
H4077 H 0.42137 0.38282 0.71557 0.0
H4078 H 0.3872 0.39087 0.68722 0.0
H4079 H 0.37041 0.36349 0.67969 0.0
H4080 H 0.42068 0.41207 0.67402 0.0
H4081 H 0.38837 0.39399 0.73578 0.0
H4082 H 0.37425 0.37765 0.76692 0.0
H4083 H 0.41668 0.38654 0.79655 0.0
H4084 H 0.43105 0.40272 0.76537 0.0
H4085 H 0.45674 0.48439 0.73685 0.0
H4086 H 0.44003 0.46143 0.71529 0.0
H4087 H 0.4668 0.44225 0.73721 0.0
H4088 H 0.48361 0.46524 0.75841 0.0
H4089 H 0.43435 0.42797 0.75141 0.0
H4090 H 0.46626 0.4455 0.68778 0.0
H4091 H 0.47991 0.46313 0.65754 0.0
H4092 H 0.43724 0.45658 0.63241 0.0
H4093 H 0.42335 0.43907 0.66272 0.0
C4094 C 0.40095 0.3633 0.70314 0.0
C4095 C 0.3864 0.3575 0.69312 0.0
C4096 C 0.41031 0.37873 0.70761 0.0
C4097 C 0.4055 0.38882 0.70198 0.0
C4098 C 0.39111 0.38323 0.69164 0.0
C4099 C 0.38153 0.36761 0.68745 0.0
C4100 C 0.41565 0.40509 0.70763 0.0
C4101 C 0.42344 0.41567 0.69094 0.0
C4102 C 0.41939 0.40969 0.72969 0.0
C4103 C 0.41077 0.39941 0.74805 0.0
C4104 C 0.39468 0.39226 0.74874 0.0
C4105 C 0.38663 0.38308 0.76646 0.0
C4106 C 0.39456 0.38101 0.78367 0.0
C4107 C 0.41055 0.3881 0.78317 0.0
C4108 C 0.41865 0.39728 0.76546 0.0
C4109 C 0.45959 0.47564 0.73592 0.0
C4110 C 0.47158 0.47662 0.74892 0.0
C4111 C 0.44997 0.46249 0.72377 0.0
C4112 C 0.45218 0.45015 0.72473 0.0
C4113 C 0.465 0.45171 0.73613 0.0
C4114 C 0.47469 0.46489 0.74805 0.0
C4115 C 0.43966 0.43484 0.71791 0.0
C4116 C 0.43143 0.42444 0.7345 0.0
C4117 C 0.43545 0.43056 0.69584 0.0
C4118 C 0.44379 0.44113 0.67769 0.0
C4119 C 0.45981 0.44796 0.67597 0.0
C4120 C 0.46758 0.45789 0.65877 0.0
C4121 C 0.45945 0.46102 0.64311 0.0
C4122 C 0.44352 0.45417 0.64458 0.0
C4123 C 0.43569 0.44423 0.66176 0.0
H4124 H 0.46549 0.4687 0.6298 0.0
H4125 H 0.38831 0.37394 0.79742 0.0
H4126 H 0.64228 0.03997 0.65539 0.0
H4127 H 0.61555 0.03036 0.66443 0.0
H4128 H 0.61376 0.99301 0.69935 0.0
H4129 H 0.64062 1.00246 0.68991 0.0
H4130 H 0.58572 0.98482 0.67826 0.0
H4131 H 0.62233 0.02399 0.72687 0.0
H4132 H 0.64479 0.04912 0.73601 0.0
H4133 H 0.62282 0.07075 0.70548 0.0
H4134 H 0.60032 0.04573 0.69589 0.0
H4135 H 0.53352 0.9727 0.76278 0.0
H4136 H 0.55252 0.97569 0.73634 0.0
H4137 H 0.55368 0.01516 0.70983 0.0
H4138 H 0.535 0.01248 0.73693 0.0
H4139 H 0.58102 0.02216 0.72278 0.0
H4140 H 0.54252 0.98231 0.67857 0.0
H4141 H 0.52011 0.95699 0.67034 0.0
H4142 H 0.54499 0.93623 0.6933 0.0
H4143 H 0.56749 0.96142 0.70198 0.0
C4144 C 0.63614 0.02955 0.66465 0.0
C4145 C 0.64364 0.02211 0.67224 0.0
C4146 C 0.62084 0.02406 0.66978 0.0
C4147 C 0.61275 0.01115 0.68294 0.0
C4148 C 0.61981 1.00303 0.68923 0.0
C4149 C 0.63516 0.00845 0.68387 0.0
C4150 C 0.5977 0.00727 0.69208 0.0
C4151 C 0.58465 0.9929 0.68812 0.0
C4152 C 0.59626 0.01795 0.70456 0.0
C4153 C 0.60972 0.033 0.71046 0.0
C4154 C 0.62234 0.03411 0.72197 0.0
C4155 C 0.63507 0.04833 0.72725 0.0
C4156 C 0.63525 0.06152 0.72127 0.0
C4157 C 0.62268 0.06052 0.71006 0.0
C4158 C 0.60993 0.04632 0.70471 0.0
C4159 C 0.53746 0.98173 0.75084 0.0
C4160 C 0.53294 0.99249 0.7521 0.0
C4161 C 0.54828 0.98339 0.7356 0.0
C4162 C 0.55464 0.99571 0.72108 0.0
C4163 C 0.54899 0.00559 0.72091 0.0
C4164 C 0.5382 0.00398 0.73627 0.0
C4165 C 0.56881 0.99965 0.70896 0.0
C4166 C 0.58186 0.01408 0.71257 0.0
C4167 C 0.57018 0.98897 0.6963 0.0
C4168 C 0.55667 0.97378 0.69106 0.0
C4169 C 0.54318 0.97235 0.68203 0.0
C4170 C 0.53046 0.95801 0.67725 0.0
C4171 C 0.53111 0.94501 0.68133 0.0
C4172 C 0.5445 0.94632 0.69015 0.0
C4173 C 0.55725 0.96062 0.69497 0.0
H4174 H 0.52125 0.93392 0.67762 0.0
H4175 H 0.64511 0.07252 0.72537 0.0
loop_
_geom_bond_atom_site_label_1
_geom_bond_atom_site_label_2
_geom_bond_distance
_geom_bond_site_symmetry_2
_ccdc_geom_bond_type
Zn0 O3 2.031 1_554 S
Zn0 O5 2.049 . S
Zn0 O10 2.067 1_554 S
Zn1 O2 1.962 1_455 S
Zn1 O4 1.986 . S
Zn1 O6 1.996 1_455 S
Zn1 O9 1.943 1_554 S
O2 Zn1 1.962 1_655 S
O2 C7 1.254 . S
O3 Zn0 2.031 1_556 S
O3 C7 1.269 1_556 S
O4 Zn1 1.986 . S
O4 C11 1.262 . S
O5 Zn0 2.049 . S
O5 C13 1.260 . S
O6 Zn1 1.996 1_655 S
O6 C13 1.257 . S
C7 O2 1.254 . S
C7 O3 1.269 1_554 S
C8 O9 1.249 . S
C8 O10 1.270 1_455 S
O9 Zn1 1.943 1_556 S
O9 C8 1.249 . S
O10 Zn0 2.067 1_556 S
O10 C8 1.270 1_655 S
C11 O4 1.262 . S
C11 O12 1.232 . S
O12 C11 1.232 . S
C13 O5 1.260 . S
C13 O6 1.257 . S
Zn14 O17 2.031 1_554 S
Zn14 O19 2.049 . S
Zn14 O24 2.067 1_554 S
Zn15 O16 1.962 . S
Zn15 O18 1.986 . S
Zn15 O20 1.996 . S
Zn15 O23 1.943 1_554 S
O16 Zn15 1.962 . S
O16 C21 1.254 . S
O17 Zn14 2.031 1_556 S
O17 C21 1.269 1_556 S
O18 Zn15 1.986 . S
O18 C25 1.262 . S
O19 Zn14 2.049 . S
O19 C27 1.260 . S
O20 Zn15 1.996 . S
O20 C27 1.257 . S
C21 O16 1.254 . S
C21 O17 1.269 1_554 S
C22 O23 1.249 . S
C22 O24 1.270 . S
O23 Zn15 1.943 1_556 S
O23 C22 1.249 . S
O24 Zn14 2.067 1_556 S
O24 C22 1.270 . S
C25 O18 1.262 . S
C25 O26 1.232 . S
O26 C25 1.232 . S
C27 O19 1.260 . S
C27 O20 1.257 . S
Zn28 O31 2.031 . S
Zn28 O33 2.049 1_554 S
Zn28 O38 2.067 . S
Zn29 O30 1.962 1_545 S
Zn29 O32 1.986 1_554 S
Zn29 O34 1.996 1_544 S
Zn29 O37 1.943 . S
O30 Zn29 1.962 1_565 S
O30 C35 1.254 . S
O31 Zn28 2.031 . S
O31 C35 1.269 . S
O32 Zn29 1.986 1_556 S
O32 C39 1.258 . S
O33 Zn28 2.049 1_556 S
O33 C41 1.260 . S
O34 Zn29 1.996 1_566 S
O34 C41 1.257 . S
C35 O30 1.254 . S
C35 O31 1.269 . S
C36 O37 1.249 . S
C36 O38 1.270 1_545 S
O37 Zn29 1.943 . S
O37 C36 1.249 . S
O38 Zn28 2.067 . S
O38 C36 1.270 1_565 S
C39 O32 1.258 . S
C39 O40 1.237 1_556 S
O40 C39 1.237 1_554 S
C41 O33 1.260 . S
C41 O34 1.257 . S
Zn42 O45 2.031 . S
Zn42 O47 2.049 1_554 S
Zn42 O52 2.067 . S
Zn43 O44 1.962 1_655 S
Zn43 O46 1.986 1_554 S
Zn43 O48 1.996 1_654 S
Zn43 O51 1.943 . S
O44 Zn43 1.962 1_455 S
O44 C49 1.254 . S
O45 Zn42 2.031 . S
O45 C49 1.269 . S
O46 Zn43 1.986 1_556 S
O46 C53 1.239 1_556 S
O47 Zn42 2.049 1_556 S
O47 C55 1.260 . S
O48 Zn43 1.996 1_456 S
O48 C55 1.257 . S
C49 O44 1.254 . S
C49 O45 1.269 . S
C50 O51 1.249 . S
C50 O52 1.270 1_655 S
O51 Zn43 1.943 . S
O51 C50 1.249 . S
O52 Zn42 2.067 . S
O52 C50 1.270 1_455 S
C53 O46 1.239 1_554 S
C53 O54 1.266 . S
O54 C53 1.266 . S
C55 O47 1.260 . S
C55 O48 1.257 . S
Zn56 O59 2.031 . S
Zn56 O61 2.049 1_554 S
Zn56 O66 2.067 . S
Zn57 O58 1.962 . S
Zn57 O60 1.986 1_554 S
Zn57 O62 1.996 1_554 S
Zn57 O65 1.943 . S
O58 Zn57 1.962 . S
O58 C63 1.254 . S
O59 Zn56 2.031 . S
O59 C63 1.269 . S
O60 Zn57 1.986 1_556 S
O60 C67 1.262 1_556 S
O61 Zn56 2.049 1_556 S
O61 C69 1.260 . S
O62 Zn57 1.996 1_556 S
O62 C69 1.257 . S
C63 O58 1.254 . S
C63 O59 1.269 . S
C64 O65 1.249 . S
C64 O66 1.270 . S
O65 Zn57 1.943 . S
O65 C64 1.249 . S
O66 Zn56 2.067 . S
O66 C64 1.270 . S
C67 O60 1.262 1_554 S
C67 O68 1.232 . S
O68 C67 1.232 . S
C69 O61 1.260 . S
C69 O62 1.257 . S
Zn70 O73 2.011 1_554 S
Zn70 O75 2.049 . S
Zn70 O80 2.067 1_554 S
Zn71 O72 1.962 1_565 S
Zn71 O74 1.986 . S
Zn71 O76 1.996 1_565 S
Zn71 O79 1.933 1_554 S
O72 Zn71 1.962 1_545 S
O72 C77 1.254 . S
O73 Zn70 2.011 1_556 S
O73 C77 1.258 1_556 S
O74 Zn71 1.986 . S
O74 C81 1.262 . S
O75 Zn70 2.049 . S
O75 C83 1.260 . S
O76 Zn71 1.996 1_545 S
O76 C83 1.257 . S
C77 O72 1.254 . S
C77 O73 1.258 1_554 S
C78 O79 1.255 . S
C78 O80 1.270 1_565 S
O79 Zn71 1.933 1_556 S
O79 C78 1.255 . S
O80 Zn70 2.067 1_556 S
O80 C78 1.270 1_545 S
C81 O74 1.262 . S
C81 O82 1.232 . S
O82 C81 1.232 . S
C83 O75 1.260 . S
C83 O76 1.257 . S
Zn84 O87 2.031 . S
Zn84 O89 2.049 . S
Zn84 O94 2.067 . S
Zn85 O86 1.962 . S
Zn85 O88 1.986 . S
Zn85 O90 1.996 . S
Zn85 O93 1.943 . S
O86 Zn85 1.962 . S
O86 C91 1.254 . S
O87 Zn84 2.031 . S
O87 C91 1.269 . S
O88 Zn85 1.986 . S
O88 C95 1.262 . S
O89 Zn84 2.049 . S
O89 C97 1.260 . S
O90 Zn85 1.996 . S
O90 C97 1.257 . S
C91 O86 1.254 . S
C91 O87 1.269 . S
C92 O93 1.249 . S
C92 O94 1.270 . S
O93 Zn85 1.943 . S
O93 C92 1.249 . S
O94 Zn84 2.067 . S
O94 C92 1.270 . S
C95 O88 1.262 . S
C95 O96 1.232 . S
O96 C95 1.232 . S
C97 O89 1.260 . S
C97 O90 1.257 . S
Zn98 O101 2.031 . S
Zn98 O103 2.049 . S
Zn98 O108 2.067 . S
Zn99 O100 1.962 . S
Zn99 O102 1.986 1_565 S
Zn99 O104 1.996 . S
Zn99 O107 1.943 . S
O100 Zn99 1.962 . S
O100 C105 1.254 . S
O101 Zn98 2.031 . S
O101 C105 1.269 . S
O102 Zn99 1.986 1_545 S
O102 C109 1.262 . S
O103 Zn98 2.049 . S
O103 C111 1.260 . S
O104 Zn99 1.996 . S
O104 C111 1.257 . S
C105 O100 1.254 . S
C105 O101 1.269 . S
C106 O107 1.249 . S
C106 O108 1.270 . S
O107 Zn99 1.943 . S
O107 C106 1.249 . S
O108 Zn98 2.067 . S
O108 C106 1.270 . S
C109 O102 1.262 . S
C109 O110 1.232 . S
O110 C109 1.232 . S
C111 O103 1.260 . S
C111 O104 1.257 . S
Zn112 O115 2.031 . S
Zn112 O117 2.049 . S
Zn112 O122 2.067 . S
Zn113 O114 1.962 1_455 S
Zn113 O116 1.986 . S
Zn113 O118 1.996 . S
Zn113 O121 1.943 . S
O114 Zn113 1.962 1_655 S
O114 C119 1.254 . S
O115 Zn112 2.031 . S
O115 C119 1.269 1_455 S
O116 Zn113 1.986 . S
O116 C123 1.262 . S
O117 Zn112 2.049 . S
O117 C125 1.260 . S
O118 Zn113 1.996 . S
O118 C125 1.257 . S
C119 O114 1.254 . S
C119 O115 1.269 1_655 S
C120 O121 1.249 . S
C120 O122 1.270 . S
O121 Zn113 1.943 . S
O121 C120 1.249 . S
O122 Zn112 2.067 . S
O122 C120 1.270 . S
C123 O116 1.262 . S
C123 O124 1.232 . S
O124 C123 1.232 . S
C125 O117 1.260 . S
C125 O118 1.257 . S
Zn126 O129 2.031 . S
Zn126 O131 2.049 . S
Zn126 O136 2.067 . S
Zn127 O128 1.962 1_565 S
Zn127 O130 1.986 . S
Zn127 O132 1.996 . S
Zn127 O135 1.943 . S
O128 Zn127 1.962 1_545 S
O128 C133 1.254 . S
O129 Zn126 2.031 . S
O129 C133 1.269 1_565 S
O130 Zn127 1.986 . S
O130 C137 1.262 . S
O131 Zn126 2.049 . S
O131 C139 1.260 . S
O132 Zn127 1.996 . S
O132 C139 1.257 . S
C133 O128 1.254 . S
C133 O129 1.269 1_545 S
C134 O135 1.249 . S
C134 O136 1.270 . S
O135 Zn127 1.943 . S
O135 C134 1.249 . S
O136 Zn126 2.067 . S
O136 C134 1.270 . S
C137 O130 1.262 . S
C137 O138 1.232 . S
O138 C137 1.232 . S
C139 O131 1.260 . S
C139 O132 1.257 . S
Zn140 O143 2.031 . S
Zn140 O145 2.049 . S
Zn140 O150 2.067 . S
Zn141 O142 1.962 1_455 S
Zn141 O144 1.986 . S
Zn141 O146 1.996 . S
Zn141 O149 1.943 . S
O142 Zn141 1.962 1_655 S
O142 C147 1.254 . S
O143 Zn140 2.031 . S
O143 C147 1.269 1_455 S
O144 Zn141 1.986 . S
O144 C151 1.262 . S
O145 Zn140 2.049 . S
O145 C153 1.260 . S
O146 Zn141 1.996 . S
O146 C153 1.257 . S
C147 O142 1.254 . S
C147 O143 1.269 1_655 S
C148 O149 1.249 . S
C148 O150 1.270 . S
O149 Zn141 1.943 . S
O149 C148 1.249 . S
O150 Zn140 2.067 . S
O150 C148 1.270 . S
C151 O144 1.262 . S
C151 O152 1.232 . S
O152 C151 1.232 . S
C153 O145 1.260 . S
C153 O146 1.257 . S
Zn154 O157 2.031 . S
Zn154 O159 2.049 . S
Zn154 O164 2.067 . S
Zn155 O156 1.962 . S
Zn155 O158 1.986 . S
Zn155 O160 1.996 . S
Zn155 O163 1.943 . S
O156 Zn155 1.962 . S
O156 C161 1.254 . S
O157 Zn154 2.031 . S
O157 C161 1.269 . S
O158 Zn155 1.986 . S
O158 C165 1.262 . S
O159 Zn154 2.049 . S
O159 C167 1.260 . S
O160 Zn155 1.996 . S
O160 C167 1.257 . S
C161 O156 1.254 . S
C161 O157 1.269 . S
C162 O163 1.249 . S
C162 O164 1.270 . S
O163 Zn155 1.943 . S
O163 C162 1.249 . S
O164 Zn154 2.067 . S
O164 C162 1.270 . S
C165 O158 1.262 . S
C165 O166 1.232 . S
O166 C165 1.232 . S
C167 O159 1.260 . S
C167 O160 1.257 . S
Zn168 O171 2.031 . S
Zn168 O173 2.049 . S
Zn168 O178 2.067 . S
Zn169 O170 1.962 1_545 S
Zn169 O172 1.986 . S
Zn169 O174 1.996 . S
Zn169 O177 1.943 . S
O170 Zn169 1.962 1_565 S
O170 C175 1.254 . S
O171 Zn168 2.031 . S
O171 C175 1.269 1_545 S
O172 Zn169 1.986 . S
O172 C179 1.262 . S
O173 Zn168 2.049 . S
O173 C181 1.260 . S
O174 Zn169 1.996 . S
O174 C181 1.257 . S
C175 O170 1.254 . S
C175 O171 1.269 1_565 S
C176 O177 1.249 . S
C176 O178 1.270 . S
O177 Zn169 1.943 . S
O177 C176 1.249 . S
O178 Zn168 2.067 . S
O178 C176 1.270 . S
C179 O172 1.262 . S
C179 O180 1.232 . S
O180 C179 1.232 . S
C181 O173 1.260 . S
C181 O174 1.257 . S
Zn182 O185 2.031 . S
Zn182 O187 2.049 . S
Zn182 O192 2.067 . S
Zn183 O184 1.962 1_655 S
Zn183 O186 1.986 . S
Zn183 O188 1.996 . S
Zn183 O191 1.943 . S
O184 Zn183 1.962 1_455 S
O184 C189 1.254 . S
O185 Zn182 2.031 . S
O185 C189 1.269 1_655 S
O186 Zn183 1.986 . S
O186 C193 1.262 . S
O187 Zn182 2.049 . S
O187 C195 1.260 . S
O188 Zn183 1.996 . S
O188 C195 1.257 . S
C189 O184 1.254 . S
C189 O185 1.269 1_455 S
C190 O191 1.249 . S
C190 O192 1.270 . S
O191 Zn183 1.943 . S
O191 C190 1.249 . S
O192 Zn182 2.067 . S
O192 C190 1.270 . S
C193 O186 1.262 . S
C193 O194 1.232 . S
O194 C193 1.232 . S
C195 O187 1.260 . S
C195 O188 1.257 . S
Zn196 O199 2.031 . S
Zn196 O201 2.049 . S
Zn196 O206 2.067 . S
Zn197 O198 1.962 . S
Zn197 O200 1.986 . S
Zn197 O202 1.996 . S
Zn197 O205 1.943 . S
O198 Zn197 1.962 . S
O198 C203 1.254 . S
O199 Zn196 2.031 . S
O199 C203 1.269 . S
O200 Zn197 1.986 . S
O200 C207 1.262 . S
O201 Zn196 2.049 . S
O201 C209 1.260 . S
O202 Zn197 1.996 . S
O202 C209 1.257 . S
C203 O198 1.254 . S
C203 O199 1.269 . S
C204 O205 1.249 . S
C204 O206 1.270 . S
O205 Zn197 1.943 . S
O205 C204 1.249 . S
O206 Zn196 2.067 . S
O206 C204 1.270 . S
C207 O200 1.262 . S
C207 O208 1.232 . S
O208 C207 1.232 . S
C209 O201 1.260 . S
C209 O202 1.257 . S
Zn210 O213 2.031 . S
Zn210 O215 2.049 . S
Zn210 O220 2.067 . S
Zn211 O212 1.962 . S
Zn211 O214 1.986 . S
Zn211 O216 1.996 . S
Zn211 O219 1.943 . S
O212 Zn211 1.962 . S
O212 C217 1.254 . S
O213 Zn210 2.031 . S
O213 C217 1.269 . S
O214 Zn211 1.986 . S
O214 C221 1.262 . S
O215 Zn210 2.049 . S
O215 C223 1.260 . S
O216 Zn211 1.996 . S
O216 C223 1.257 . S
C217 O212 1.254 . S
C217 O213 1.269 . S
C218 O219 1.249 . S
C218 O220 1.270 . S
O219 Zn211 1.943 . S
O219 C218 1.249 . S
O220 Zn210 2.067 . S
O220 C218 1.270 . S
C221 O214 1.262 . S
C221 O222 1.232 . S
O222 C221 1.232 . S
C223 O215 1.260 . S
C223 O216 1.257 . S
Zn224 O227 2.031 . S
Zn224 O229 2.049 . S
Zn224 O234 2.067 . S
Zn225 O226 1.962 . S
Zn225 O228 1.937 1_545 S
Zn225 O230 1.996 . S
Zn225 O233 1.943 . S
O226 Zn225 1.962 . S
O226 C231 1.254 . S
O227 Zn224 2.031 . S
O227 C231 1.269 . S
O228 Zn225 1.937 1_565 S
O228 C235 1.305 . S
O229 Zn224 2.049 . S
O229 C237 1.260 . S
O230 Zn225 1.996 . S
O230 C237 1.257 . S
C231 O226 1.254 . S
C231 O227 1.269 . S
C232 O233 1.249 . S
C232 O234 1.270 . S
O233 Zn225 1.943 . S
O233 C232 1.249 . S
O234 Zn224 2.067 . S
O234 C232 1.270 . S
C235 O228 1.305 . S
C235 O236 1.232 . S
O236 C235 1.232 . S
C237 O229 1.260 . S
C237 O230 1.257 . S
Zn238 O241 2.031 . S
Zn238 O243 2.049 . S
Zn238 O248 2.067 . S
Zn239 O240 1.962 1_655 S
Zn239 O242 1.986 . S
Zn239 O244 1.996 . S
Zn239 O247 1.943 . S
O240 Zn239 1.962 1_455 S
O240 C245 1.254 . S
O241 Zn238 2.031 . S
O241 C245 1.269 1_655 S
O242 Zn239 1.986 . S
O242 C249 1.262 . S
O243 Zn238 2.049 . S
O243 C251 1.260 . S
O244 Zn239 1.996 . S
O244 C251 1.257 . S
C245 O240 1.254 . S
C245 O241 1.269 1_455 S
C246 O247 1.249 . S
C246 O248 1.270 . S
O247 Zn239 1.943 . S
O247 C246 1.249 . S
O248 Zn238 2.067 . S
O248 C246 1.270 . S
C249 O242 1.262 . S
C249 O250 1.232 . S
O250 C249 1.232 . S
C251 O243 1.260 . S
C251 O244 1.257 . S
H252 C258 0.930 . S
H253 C261 0.931 . S
H254 C263 0.931 . S
H255 C265 0.930 . S
H256 C267 0.930 . S
H257 C269 0.931 . S
C258 H252 0.930 . S
C258 C259 1.380 . S
C258 C260 1.394 . S
C259 C258 1.380 . S
C259 C263 1.382 . S
C260 C258 1.394 . S
C260 C261 1.400 . S
C261 H253 0.931 . S
C261 C260 1.400 . S
C261 C262 1.375 . S
C262 C261 1.375 . S
C262 C263 1.415 . S
C262 C264 1.501 . S
C263 H254 0.931 . S
C263 C259 1.382 . S
C263 C262 1.415 . S
C264 C262 1.501 . S
C264 C265 1.384 . S
C264 C269 1.408 . S
C265 H255 0.930 . S
C265 C264 1.384 . S
C265 C266 1.389 . S
C266 C265 1.389 . S
C266 C267 1.405 . S
C267 H256 0.930 . S
C267 C266 1.405 . S
C267 C268 1.364 . S
C268 C267 1.364 . S
C268 C269 1.400 . S
C269 H257 0.931 . S
C269 C264 1.408 . S
C269 C268 1.400 . S
H270 C276 0.930 . S
H271 C279 0.931 . S
H272 C281 0.931 . S
H273 C283 0.930 . S
H274 C285 0.930 . S
H275 C287 0.931 . S
C276 H270 0.930 . S
C276 C277 1.380 . S
C276 C278 1.394 . S
C277 C276 1.380 . S
C277 C281 1.382 . S
C278 C276 1.394 . S
C278 C279 1.400 . S
C279 H271 0.931 . S
C279 C278 1.400 . S
C279 C280 1.375 . S
C280 C279 1.375 . S
C280 C281 1.415 . S
C280 C282 1.501 . S
C281 H272 0.931 . S
C281 C277 1.382 . S
C281 C280 1.415 . S
C282 C280 1.501 . S
C282 C283 1.384 . S
C282 C287 1.408 . S
C283 H273 0.930 . S
C283 C282 1.384 . S
C283 C284 1.389 . S
C284 C283 1.389 . S
C284 C285 1.405 . S
C285 H274 0.930 . S
C285 C284 1.405 . S
C285 C286 1.364 . S
C286 C285 1.364 . S
C286 C287 1.400 . S
C287 H275 0.931 . S
C287 C282 1.408 . S
C287 C286 1.400 . S
H288 C294 0.930 . S
H289 C297 0.931 . S
H290 C299 0.931 . S
H291 C301 0.930 . S
H292 C303 0.930 . S
H293 C305 0.931 . S
C294 H288 0.930 . S
C294 C295 1.380 . S
C294 C296 1.394 . S
C295 C294 1.380 . S
C295 C299 1.382 . S
C296 C294 1.394 . S
C296 C297 1.400 . S
C297 H289 0.931 . S
C297 C296 1.400 . S
C297 C298 1.375 . S
C298 C297 1.375 . S
C298 C299 1.415 . S
C298 C300 1.501 . S
C299 H290 0.931 . S
C299 C295 1.382 . S
C299 C298 1.415 . S
C300 C298 1.501 . S
C300 C301 1.384 . S
C300 C305 1.408 . S
C301 H291 0.930 . S
C301 C300 1.384 . S
C301 C302 1.389 . S
C302 C301 1.389 . S
C302 C303 1.405 . S
C303 H292 0.930 . S
C303 C302 1.405 . S
C303 C304 1.364 . S
C304 C303 1.364 . S
C304 C305 1.400 . S
C305 H293 0.931 . S
C305 C300 1.408 . S
C305 C304 1.400 . S
H306 C312 0.930 . S
H307 C315 0.931 . S
H308 C317 0.931 . S
H309 C319 0.930 . S
H310 C321 0.930 . S
H311 C323 0.931 . S
C312 H306 0.930 . S
C312 C313 1.380 . S
C312 C314 1.394 . S
C313 C312 1.380 . S
C313 C317 1.382 . S
C314 C312 1.394 . S
C314 C315 1.400 . S
C315 H307 0.931 . S
C315 C314 1.400 . S
C315 C316 1.375 . S
C316 C315 1.375 . S
C316 C317 1.415 . S
C316 C318 1.501 . S
C317 H308 0.931 . S
C317 C313 1.382 . S
C317 C316 1.415 . S
C318 C316 1.501 . S
C318 C319 1.384 . S
C318 C323 1.408 . S
C319 H309 0.930 . S
C319 C318 1.384 . S
C319 C320 1.389 . S
C320 C319 1.389 . S
C320 C321 1.405 . S
C321 H310 0.930 . S
C321 C320 1.405 . S
C321 C322 1.364 . S
C322 C321 1.364 . S
C322 C323 1.400 . S
C323 H311 0.931 . S
C323 C318 1.408 . S
C323 C322 1.400 . S
H324 C330 0.930 . S
H325 C333 0.931 . S
H326 C335 0.931 . S
H327 C337 0.930 . S
H328 C339 0.930 . S
H329 C341 0.931 . S
C330 H324 0.930 . S
C330 C331 1.380 . S
C330 C332 1.394 . S
C331 C330 1.380 . S
C331 C335 1.382 . S
C332 C330 1.394 . S
C332 C333 1.400 . S
C333 H325 0.931 . S
C333 C332 1.400 . S
C333 C334 1.375 . S
C334 C333 1.375 . S
C334 C335 1.415 . S
C334 C336 1.501 . S
C335 H326 0.931 . S
C335 C331 1.382 . S
C335 C334 1.415 . S
C336 C334 1.501 . S
C336 C337 1.384 . S
C336 C341 1.408 . S
C337 H327 0.930 . S
C337 C336 1.384 . S
C337 C338 1.389 . S
C338 C337 1.389 . S
C338 C339 1.405 . S
C339 H328 0.930 . S
C339 C338 1.405 . S
C339 C340 1.364 . S
C340 C339 1.364 . S
C340 C341 1.400 . S
C341 H329 0.931 . S
C341 C336 1.408 . S
C341 C340 1.400 . S
H342 C348 0.930 . S
H343 C351 0.931 . S
H344 C353 0.931 . S
H345 C355 0.930 . S
H346 C357 0.930 . S
H347 C359 0.931 . S
C348 H342 0.930 . S
C348 C349 1.380 . S
C348 C350 1.394 . S
C349 C348 1.380 . S
C349 C353 1.382 . S
C350 C348 1.394 . S
C350 C351 1.400 . S
C351 H343 0.931 . S
C351 C350 1.400 . S
C351 C352 1.375 . S
C352 C351 1.375 . S
C352 C353 1.415 . S
C352 C354 1.501 . S
C353 H344 0.931 . S
C353 C349 1.382 . S
C353 C352 1.415 . S
C354 C352 1.501 . S
C354 C355 1.384 . S
C354 C359 1.408 . S
C355 H345 0.930 . S
C355 C354 1.384 . S
C355 C356 1.389 . S
C356 C355 1.389 . S
C356 C357 1.405 . S
C357 H346 0.930 . S
C357 C356 1.405 . S
C357 C358 1.364 . S
C358 C357 1.364 . S
C358 C359 1.400 . S
C359 H347 0.931 . S
C359 C354 1.408 . S
C359 C358 1.400 . S
H360 C366 0.930 . S
H361 C369 0.931 . S
H362 C371 0.931 . S
H363 C373 0.930 . S
H364 C375 0.930 . S
H365 C377 0.931 . S
C366 H360 0.930 . S
C366 C367 1.380 . S
C366 C368 1.394 . S
C367 C366 1.380 . S
C367 C371 1.382 . S
C368 C366 1.394 . S
C368 C369 1.400 . S
C369 H361 0.931 . S
C369 C368 1.400 . S
C369 C370 1.375 . S
C370 C369 1.375 . S
C370 C371 1.415 . S
C370 C372 1.501 . S
C371 H362 0.931 . S
C371 C367 1.382 . S
C371 C370 1.415 . S
C372 C370 1.501 . S
C372 C373 1.384 . S
C372 C377 1.408 . S
C373 H363 0.930 . S
C373 C372 1.384 . S
C373 C374 1.389 . S
C374 C373 1.389 . S
C374 C375 1.405 . S
C375 H364 0.930 . S
C375 C374 1.405 . S
C375 C376 1.364 . S
C376 C375 1.364 . S
C376 C377 1.400 . S
C377 H365 0.931 . S
C377 C372 1.408 . S
C377 C376 1.400 . S
H378 C384 0.930 . S
H379 C387 0.931 . S
H380 C389 0.931 . S
H381 C391 0.930 . S
H382 C393 0.930 . S
H383 C395 0.931 . S
C384 H378 0.930 . S
C384 C385 1.380 . S
C384 C386 1.394 . S
C385 C384 1.380 . S
C385 C389 1.382 . S
C386 C384 1.394 . S
C386 C387 1.400 . S
C387 H379 0.931 . S
C387 C386 1.400 . S
C387 C388 1.375 . S
C388 C387 1.375 . S
C388 C389 1.415 . S
C388 C390 1.501 . S
C389 H380 0.931 . S
C389 C385 1.382 . S
C389 C388 1.415 . S
C390 C388 1.501 . S
C390 C391 1.384 . S
C390 C395 1.408 . S
C391 H381 0.930 . S
C391 C390 1.384 . S
C391 C392 1.389 . S
C392 C391 1.389 . S
C392 C393 1.405 . S
C393 H382 0.930 . S
C393 C392 1.405 . S
C393 C394 1.364 . S
C394 C393 1.364 . S
C394 C395 1.400 . S
C395 H383 0.931 . S
C395 C390 1.408 . S
C395 C394 1.400 . S
H396 C402 0.930 . S
H397 C405 0.931 . S
H398 C407 0.931 . S
H399 C409 0.930 . S
H400 C411 0.930 . S
H401 C413 0.931 . S
C402 H396 0.930 . S
C402 C403 1.380 . S
C402 C404 1.394 . S
C403 C402 1.380 . S
C403 C407 1.382 . S
C404 C402 1.394 . S
C404 C405 1.400 . S
C405 H397 0.931 . S
C405 C404 1.400 . S
C405 C406 1.375 . S
C406 C405 1.375 . S
C406 C407 1.415 . S
C406 C408 1.501 . S
C407 H398 0.931 . S
C407 C403 1.382 . S
C407 C406 1.415 . S
C408 C406 1.501 . S
C408 C409 1.384 . S
C408 C413 1.408 . S
C409 H399 0.930 . S
C409 C408 1.384 . S
C409 C410 1.389 . S
C410 C409 1.389 . S
C410 C411 1.405 . S
C411 H400 0.930 . S
C411 C410 1.405 . S
C411 C412 1.364 . S
C412 C411 1.364 . S
C412 C413 1.400 . S
C413 H401 0.931 . S
C413 C408 1.408 . S
C413 C412 1.400 . S
H414 C420 0.967 . S
H415 C423 0.931 . S
H416 C425 0.931 . S
H417 C427 0.930 . S
H418 C429 0.896 . S
H419 C431 0.941 . S
C420 H414 0.967 . S
C420 C421 1.378 . S
C420 C422 1.394 1_655 S
C421 C420 1.378 . S
C421 C425 1.382 . S
C422 C420 1.394 1_455 S
C422 C423 1.400 . S
C423 H415 0.931 . S
C423 C422 1.400 . S
C423 C424 1.375 . S
C424 C423 1.375 . S
C424 C425 1.415 1_455 S
C424 C426 1.501 . S
C425 H416 0.931 . S
C425 C421 1.382 . S
C425 C424 1.415 1_655 S
C426 C424 1.501 . S
C426 C427 1.384 . S
C426 C431 1.421 . S
C427 H417 0.930 . S
C427 C426 1.384 . S
C427 C428 1.434 . S
C428 C427 1.434 . S
C428 C429 1.403 . S
C429 H418 0.896 . S
C429 C428 1.403 . S
C429 C430 1.379 . S
C430 C429 1.379 . S
C430 C431 1.388 . S
C431 H419 0.941 . S
C431 C426 1.421 . S
C431 C430 1.388 . S
H432 C438 0.930 . S
H433 C441 0.931 . S
H434 C443 0.931 . S
H435 C445 0.930 . S
H436 C447 0.930 . S
H437 C449 0.931 . S
C438 H432 0.930 . S
C438 C439 1.380 . S
C438 C440 1.394 . S
C439 C438 1.380 . S
C439 C443 1.382 . S
C440 C438 1.394 . S
C440 C441 1.400 . S
C441 H433 0.931 . S
C441 C440 1.400 . S
C441 C442 1.375 . S
C442 C441 1.375 . S
C442 C443 1.415 . S
C442 C444 1.501 . S
C443 H434 0.931 . S
C443 C439 1.382 . S
C443 C442 1.415 . S
C444 C442 1.501 . S
C444 C445 1.384 . S
C444 C449 1.408 . S
C445 H435 0.930 . S
C445 C444 1.384 . S
C445 C446 1.389 . S
C446 C445 1.389 . S
C446 C447 1.405 . S
C447 H436 0.930 . S
C447 C446 1.405 . S
C447 C448 1.364 . S
C448 C447 1.364 . S
C448 C449 1.400 . S
C449 H437 0.931 . S
C449 C444 1.408 . S
C449 C448 1.400 . S
H450 C456 0.973 . S
H451 C459 0.931 . S
H452 C461 0.931 . S
H453 C463 0.930 . S
H454 C465 0.930 . S
H455 C467 0.916 . S
C456 H450 0.973 . S
C456 C457 1.371 . S
C456 C458 1.365 1_545 S
C457 C456 1.371 . S
C457 C461 1.382 . S
C458 C456 1.365 1_565 S
C458 C459 1.400 . S
C459 H451 0.931 . S
C459 C458 1.400 . S
C459 C460 1.375 . S
C460 C459 1.375 . S
C460 C461 1.415 1_565 S
C460 C462 1.501 . S
C461 H452 0.931 . S
C461 C457 1.382 . S
C461 C460 1.415 1_545 S
C462 C460 1.501 . S
C462 C463 1.384 . S
C462 C467 1.393 . S
C463 H453 0.930 . S
C463 C462 1.384 . S
C463 C464 1.389 . S
C464 C463 1.389 . S
C464 C465 1.405 . S
C465 H454 0.930 . S
C465 C464 1.405 . S
C465 C466 1.390 . S
C466 C465 1.390 . S
C466 C467 1.397 . S
C467 H455 0.916 . S
C467 C462 1.393 . S
C467 C466 1.397 . S
H468 C474 0.964 . S
H469 C477 0.931 . S
H470 C479 0.923 . S
H471 C481 0.930 . S
H472 C483 0.945 . S
H473 C485 0.931 . S
C474 H468 0.964 . S
C474 C475 1.376 1_545 S
C474 C476 1.412 1_545 S
C475 C474 1.376 1_565 S
C475 C479 1.401 . S
C476 C474 1.412 1_565 S
C476 C477 1.362 . S
C477 H469 0.931 . S
C477 C476 1.362 . S
C477 C478 1.375 . S
C478 C477 1.375 . S
C478 C479 1.408 . S
C478 C480 1.501 . S
C479 H470 0.923 . S
C479 C475 1.401 . S
C479 C478 1.408 . S
C480 C478 1.501 . S
C480 C481 1.384 . S
C480 C485 1.408 1_565 S
C481 H471 0.930 . S
C481 C480 1.384 . S
C481 C482 1.389 . S
C482 C481 1.389 . S
C482 C483 1.415 . S
C483 H472 0.945 . S
C483 C482 1.415 . S
C483 C484 1.368 1_565 S
C484 C483 1.368 1_545 S
C484 C485 1.400 . S
C485 H473 0.931 . S
C485 C480 1.408 1_545 S
C485 C484 1.400 . S
H486 C492 0.971 . S
H487 C495 0.931 . S
H488 C497 0.934 . S
H489 C499 0.930 . S
H490 C501 0.930 . S
H491 C503 0.931 . S
C492 H486 0.971 . S
C492 C493 1.372 . S
C492 C494 1.370 1_655 S
C493 C492 1.372 . S
C493 C497 1.357 1_655 S
C494 C492 1.370 1_455 S
C494 C495 1.409 . S
C495 H487 0.931 . S
C495 C494 1.409 . S
C495 C496 1.375 . S
C496 C495 1.375 . S
C496 C497 1.418 . S
C496 C498 1.501 . S
C497 H488 0.934 . S
C497 C493 1.357 1_455 S
C497 C496 1.418 . S
C498 C496 1.501 . S
C498 C499 1.384 . S
C498 C503 1.408 1_455 S
C499 H489 0.930 . S
C499 C498 1.384 . S
C499 C500 1.389 . S
C500 C499 1.389 . S
C500 C501 1.405 . S
C501 H490 0.930 . S
C501 C500 1.405 . S
C501 C502 1.364 1_455 S
C502 C501 1.364 1_655 S
C502 C503 1.400 . S
C503 H491 0.931 . S
C503 C498 1.408 1_655 S
C503 C502 1.400 . S
H504 C510 0.930 . S
H505 C513 0.931 . S
H506 C515 0.931 . S
H507 C517 0.930 . S
H508 C519 0.930 . S
H509 C521 0.931 . S
C510 H504 0.930 . S
C510 C511 1.380 . S
C510 C512 1.394 . S
C511 C510 1.380 . S
C511 C515 1.382 . S
C512 C510 1.394 . S
C512 C513 1.400 . S
C513 H505 0.931 . S
C513 C512 1.400 . S
C513 C514 1.375 . S
C514 C513 1.375 . S
C514 C515 1.415 . S
C514 C516 1.501 . S
C515 H506 0.931 . S
C515 C511 1.382 . S
C515 C514 1.415 . S
C516 C514 1.501 . S
C516 C517 1.384 . S
C516 C521 1.408 . S
C517 H507 0.930 . S
C517 C516 1.384 . S
C517 C518 1.389 . S
C518 C517 1.389 . S
C518 C519 1.405 . S
C519 H508 0.930 . S
C519 C518 1.405 . S
C519 C520 1.364 . S
C520 C519 1.364 . S
C520 C521 1.400 . S
C521 H509 0.931 . S
C521 C516 1.408 . S
C521 C520 1.400 . S
H522 C528 0.930 . S
H523 C531 0.931 . S
H524 C533 0.931 . S
H525 C535 0.930 . S
H526 C537 0.930 . S
H527 C539 0.931 . S
C528 H522 0.930 . S
C528 C529 1.380 . S
C528 C530 1.394 . S
C529 C528 1.380 . S
C529 C533 1.382 . S
C530 C528 1.394 . S
C530 C531 1.400 . S
C531 H523 0.931 . S
C531 C530 1.400 . S
C531 C532 1.375 . S
C532 C531 1.375 . S
C532 C533 1.415 . S
C532 C534 1.501 . S
C533 H524 0.931 . S
C533 C529 1.382 . S
C533 C532 1.415 . S
C534 C532 1.501 . S
C534 C535 1.384 . S
C534 C539 1.408 . S
C535 H525 0.930 . S
C535 C534 1.384 . S
C535 C536 1.389 . S
C536 C535 1.389 . S
C536 C537 1.405 . S
C537 H526 0.930 . S
C537 C536 1.405 . S
C537 C538 1.364 . S
C538 C537 1.364 . S
C538 C539 1.400 . S
C539 H527 0.931 . S
C539 C534 1.408 . S
C539 C538 1.400 . S
H540 C546 0.930 . S
H541 C549 0.931 . S
H542 C551 0.931 . S
H543 C553 0.930 . S
H544 C555 0.930 . S
H545 C557 0.931 . S
C546 H540 0.930 . S
C546 C547 1.380 . S
C546 C548 1.394 . S
C547 C546 1.380 . S
C547 C551 1.382 . S
C548 C546 1.394 . S
C548 C549 1.400 . S
C549 H541 0.931 . S
C549 C548 1.400 . S
C549 C550 1.375 . S
C550 C549 1.375 . S
C550 C551 1.415 . S
C550 C552 1.501 . S
C551 H542 0.931 . S
C551 C547 1.382 . S
C551 C550 1.415 . S
C552 C550 1.501 . S
C552 C553 1.384 . S
C552 C557 1.408 . S
C553 H543 0.930 . S
C553 C552 1.384 . S
C553 C554 1.389 . S
C554 C553 1.389 . S
C554 C555 1.405 . S
C555 H544 0.930 . S
C555 C554 1.405 . S
C555 C556 1.364 . S
C556 C555 1.364 . S
C556 C557 1.400 . S
C557 H545 0.931 . S
C557 C552 1.408 . S
C557 C556 1.400 . S
H558 C564 0.930 . S
H559 C567 0.931 . S
H560 C569 0.931 . S
H561 C571 0.930 . S
H562 C573 0.930 . S
H563 C575 0.931 . S
C564 H558 0.930 . S
C564 C565 1.380 . S
C564 C566 1.394 . S
C565 C564 1.380 . S
C565 C569 1.382 . S
C566 C564 1.394 . S
C566 C567 1.400 . S
C567 H559 0.931 . S
C567 C566 1.400 . S
C567 C568 1.375 . S
C568 C567 1.375 . S
C568 C569 1.415 . S
C568 C570 1.501 . S
C569 H560 0.931 . S
C569 C565 1.382 . S
C569 C568 1.415 . S
C570 C568 1.501 . S
C570 C571 1.384 . S
C570 C575 1.408 . S
C571 H561 0.930 . S
C571 C570 1.384 . S
C571 C572 1.389 . S
C572 C571 1.389 . S
C572 C573 1.405 . S
C573 H562 0.930 . S
C573 C572 1.405 . S
C573 C574 1.364 . S
C574 C573 1.364 . S
C574 C575 1.400 . S
C575 H563 0.931 . S
C575 C570 1.408 . S
C575 C574 1.400 . S
H576 C594 0.951 . S
H577 C596 0.951 . S
H578 C598 0.950 . S
H579 C599 0.950 . S
H580 C601 0.950 . S
H581 C604 0.950 . S
H582 C605 0.950 . S
H583 C607 0.950 . S
H584 C608 0.950 . S
H585 C609 0.951 . S
H586 C611 0.951 . S
H587 C613 0.950 . S
H588 C614 0.950 . S
H589 C616 0.950 . S
H590 C619 0.950 . S
H591 C620 0.950 . S
H592 C622 0.950 . S
H593 C623 0.950 . S
C594 H576 0.951 . S
C594 C595 1.366 1_455 S
C594 C596 1.388 . S
C595 C594 1.366 1_655 S
C595 C599 1.385 . S
C596 H577 0.951 . S
C596 C594 1.388 . S
C596 C597 1.366 1_455 S
C597 C596 1.366 1_655 S
C597 C598 1.414 . S
C597 C600 1.499 . S
C598 H578 0.950 . S
C598 C597 1.414 . S
C598 C599 1.374 . S
C599 H579 0.950 . S
C599 C595 1.385 . S
C599 C598 1.374 . S
C600 C597 1.499 . S
C600 C601 1.373 . S
C600 C602 1.389 1_655 S
C601 H580 0.950 . S
C601 C600 1.373 . S
C601 C617 1.377 . S
C602 C600 1.389 1_455 S
C602 C603 1.524 . S
C602 C616 1.377 . S
C603 C602 1.524 . S
C603 C604 1.397 . S
C603 C608 1.363 . S
C604 H581 0.950 . S
C604 C603 1.397 . S
C604 C605 1.334 . S
C605 H582 0.950 . S
C605 C604 1.334 . S
C605 C606 1.287 . S
C606 C605 1.287 . S
C606 C607 1.524 . S
C606 H625 0.913 . S
C607 H583 0.950 . S
C607 C606 1.524 . S
C607 C608 1.415 . S
C608 H584 0.950 . S
C608 C603 1.363 . S
C608 C607 1.415 . S
C609 H585 0.951 . S
C609 C610 1.366 . S
C609 C611 1.388 . S
C610 C609 1.366 . S
C610 C614 1.385 1_655 S
C611 H586 0.951 . S
C611 C609 1.388 . S
C611 C612 1.366 . S
C612 C611 1.366 . S
C612 C613 1.414 1_655 S
C612 C615 1.499 . S
C613 H587 0.950 . S
C613 C612 1.414 1_455 S
C613 C614 1.374 . S
C614 H588 0.950 . S
C614 C610 1.385 1_455 S
C614 C613 1.374 . S
C615 C612 1.499 . S
C615 C616 1.373 1_655 S
C615 C617 1.389 . S
C616 H589 0.950 . S
C616 C602 1.377 . S
C616 C615 1.373 1_455 S
C617 C601 1.377 . S
C617 C615 1.389 . S
C617 C618 1.524 . S
C618 C617 1.524 . S
C618 C619 1.397 . S
C618 C623 1.363 . S
C619 H590 0.950 . S
C619 C618 1.397 . S
C619 C620 1.334 . S
C620 H591 0.950 . S
C620 C619 1.334 . S
C620 C621 1.287 . S
C621 C620 1.287 . S
C621 C622 1.524 . S
C621 H624 0.999 . S
C622 H592 0.950 . S
C622 C621 1.524 . S
C622 C623 1.415 . S
C623 H593 0.950 . S
C623 C618 1.363 . S
C623 C622 1.415 . S
H624 C621 0.999 . S
H625 C606 0.913 . S
H626 C644 0.951 . S
H627 C646 0.951 . S
H628 C648 0.950 . S
H629 C649 0.950 . S
H630 C651 0.950 . S
H631 C654 0.950 . S
H632 C655 0.950 . S
H633 C657 0.950 . S
H634 C658 0.950 . S
H635 C659 0.951 . S
H636 C661 0.951 . S
H637 C663 0.950 . S
H638 C664 0.950 . S
H639 C666 0.950 . S
H640 C669 0.950 . S
H641 C670 0.950 . S
H642 C672 0.950 . S
H643 C673 0.950 . S
C644 H626 0.951 . S
C644 C645 1.366 . S
C644 C646 1.388 . S
C645 C644 1.366 . S
C645 C649 1.385 . S
C646 H627 0.951 . S
C646 C644 1.388 . S
C646 C647 1.366 . S
C647 C646 1.366 . S
C647 C648 1.414 . S
C647 C650 1.499 . S
C648 H628 0.950 . S
C648 C647 1.414 . S
C648 C649 1.374 . S
C649 H629 0.950 . S
C649 C645 1.385 . S
C649 C648 1.374 . S
C650 C647 1.499 . S
C650 C651 1.373 . S
C650 C652 1.389 . S
C651 H630 0.950 . S
C651 C650 1.373 . S
C651 C667 1.377 . S
C652 C650 1.389 . S
C652 C653 1.524 . S
C652 C666 1.377 . S
C653 C652 1.524 . S
C653 C654 1.397 . S
C653 C658 1.363 . S
C654 H631 0.950 . S
C654 C653 1.397 . S
C654 C655 1.334 . S
C655 H632 0.950 . S
C655 C654 1.334 . S
C655 C656 1.287 . S
C656 C655 1.287 . S
C656 C657 1.524 . S
C656 H675 0.913 . S
C657 H633 0.950 . S
C657 C656 1.524 . S
C657 C658 1.415 . S
C658 H634 0.950 . S
C658 C653 1.363 . S
C658 C657 1.415 . S
C659 H635 0.951 . S
C659 C660 1.366 . S
C659 C661 1.388 . S
C660 C659 1.366 . S
C660 C664 1.385 . S
C661 H636 0.951 . S
C661 C659 1.388 . S
C661 C662 1.366 . S
C662 C661 1.366 . S
C662 C663 1.414 . S
C662 C665 1.499 . S
C663 H637 0.950 . S
C663 C662 1.414 . S
C663 C664 1.374 . S
C664 H638 0.950 . S
C664 C660 1.385 . S
C664 C663 1.374 . S
C665 C662 1.499 . S
C665 C666 1.373 . S
C665 C667 1.389 . S
C666 H639 0.950 . S
C666 C652 1.377 . S
C666 C665 1.373 . S
C667 C651 1.377 . S
C667 C665 1.389 . S
C667 C668 1.524 . S
C668 C667 1.524 . S
C668 C669 1.397 . S
C668 C673 1.363 . S
C669 H640 0.950 . S
C669 C668 1.397 . S
C669 C670 1.334 . S
C670 H641 0.950 . S
C670 C669 1.334 . S
C670 C671 1.287 . S
C671 C670 1.287 . S
C671 C672 1.524 . S
C671 H674 0.999 . S
C672 H642 0.950 . S
C672 C671 1.524 . S
C672 C673 1.415 . S
C673 H643 0.950 . S
C673 C668 1.363 . S
C673 C672 1.415 . S
H674 C671 0.999 . S
H675 C656 0.913 . S
H676 C694 0.951 1_565 S
H677 C696 0.951 1_565 S
H678 C698 0.950 . S
H679 C699 0.950 . S
H680 C701 0.959 . S
H681 C704 0.950 . S
H682 C705 0.950 . S
H683 C707 0.950 . S
H684 C708 0.950 . S
H685 C709 0.951 . S
H686 C711 0.951 . S
H687 C713 0.950 . S
H688 C714 0.950 . S
H689 C716 0.950 . S
H690 C719 0.950 . S
H691 C720 0.950 . S
H692 C722 0.950 . S
H693 C723 0.916 1_545 S
C694 H676 0.951 1_545 S
C694 C695 1.366 . S
C694 C696 1.388 . S
C695 C694 1.366 . S
C695 C699 1.385 . S
C696 H677 0.951 1_545 S
C696 C694 1.388 . S
C696 C697 1.366 . S
C697 C696 1.366 . S
C697 C698 1.414 . S
C697 C700 1.499 . S
C698 H678 0.950 . S
C698 C697 1.414 . S
C698 C699 1.374 . S
C699 H679 0.950 . S
C699 C695 1.385 . S
C699 C698 1.374 . S
C700 C697 1.499 . S
C700 C701 1.373 . S
C700 C702 1.389 . S
C701 H680 0.959 . S
C701 C700 1.373 . S
C701 C717 1.377 . S
C702 C700 1.389 . S
C702 C703 1.524 . S
C702 C716 1.377 . S
C703 C702 1.524 . S
C703 C704 1.397 . S
C703 C708 1.363 . S
C704 H681 0.950 . S
C704 C703 1.397 . S
C704 C705 1.334 . S
C705 H682 0.950 . S
C705 C704 1.334 . S
C705 C706 1.287 . S
C706 C705 1.287 . S
C706 C707 1.524 . S
C706 H725 0.913 . S
C707 H683 0.950 . S
C707 C706 1.524 . S
C707 C708 1.415 . S
C708 H684 0.950 . S
C708 C703 1.363 . S
C708 C707 1.415 . S
C709 H685 0.951 . S
C709 C710 1.366 . S
C709 C711 1.388 . S
C710 C709 1.366 . S
C710 C714 1.385 1_545 S
C711 H686 0.951 . S
C711 C709 1.388 . S
C711 C712 1.366 . S
C712 C711 1.366 . S
C712 C713 1.414 1_545 S
C712 C715 1.499 . S
C713 H687 0.950 . S
C713 C712 1.414 1_565 S
C713 C714 1.374 . S
C714 H688 0.950 . S
C714 C710 1.385 1_565 S
C714 C713 1.374 . S
C715 C712 1.499 . S
C715 C716 1.373 . S
C715 C717 1.389 . S
C716 H689 0.950 . S
C716 C702 1.377 . S
C716 C715 1.373 . S
C717 C701 1.377 . S
C717 C715 1.389 . S
C717 C718 1.524 1_545 S
C718 C717 1.524 1_565 S
C718 C719 1.397 . S
C718 C723 1.366 . S
C719 H690 0.950 . S
C719 C718 1.397 . S
C719 C720 1.334 . S
C720 H691 0.950 . S
C720 C719 1.334 . S
C720 C721 1.287 . S
C721 C720 1.287 . S
C721 C722 1.524 . S
C721 H724 0.999 . S
C722 H692 0.950 . S
C722 C721 1.524 . S
C722 C723 1.446 . S
C723 H693 0.916 1_565 S
C723 C718 1.366 . S
C723 C722 1.446 . S
H724 C721 0.999 . S
H725 C706 0.913 . S
H726 C744 0.951 . S
H727 C746 0.951 . S
H728 C748 0.950 . S
H729 C749 0.950 . S
H730 C751 0.950 . S
H731 C754 0.950 . S
H732 C755 0.950 . S
H733 C757 0.950 . S
H734 C758 0.938 1_565 S
H735 C759 0.951 . S
H736 C761 0.951 . S
H737 C763 0.950 . S
H738 C764 0.950 . S
H739 C766 0.948 . S
H740 C769 0.950 . S
H741 C770 0.950 . S
H742 C772 0.950 . S
H743 C773 0.950 1_545 S
C744 H726 0.951 . S
C744 C745 1.366 . S
C744 C746 1.388 . S
C745 C744 1.366 . S
C745 C749 1.385 1_565 S
C746 H727 0.951 . S
C746 C744 1.388 . S
C746 C747 1.366 . S
C747 C746 1.366 . S
C747 C748 1.414 1_565 S
C747 C750 1.499 . S
C748 H728 0.950 . S
C748 C747 1.414 1_545 S
C748 C749 1.374 . S
C749 H729 0.950 . S
C749 C745 1.385 1_545 S
C749 C748 1.374 . S
C750 C747 1.499 . S
C750 C751 1.373 . S
C750 C752 1.389 1_565 S
C751 H730 0.950 . S
C751 C750 1.373 . S
C751 C767 1.377 . S
C752 C750 1.389 1_545 S
C752 C753 1.524 . S
C752 C766 1.379 . S
C753 C752 1.524 . S
C753 C754 1.397 . S
C753 C758 1.373 . S
C754 H731 0.950 . S
C754 C753 1.397 . S
C754 C755 1.334 . S
C755 H732 0.950 . S
C755 C754 1.334 . S
C755 C756 1.287 . S
C756 C755 1.287 . S
C756 C757 1.524 . S
C756 H775 0.921 . S
C757 H733 0.950 . S
C757 C756 1.524 . S
C757 C758 1.417 . S
C758 H734 0.938 1_545 S
C758 C753 1.373 . S
C758 C757 1.417 . S
C759 H735 0.951 . S
C759 C760 1.366 1_545 S
C759 C761 1.388 . S
C760 C759 1.366 1_565 S
C760 C764 1.385 . S
C761 H736 0.951 . S
C761 C759 1.388 . S
C761 C762 1.366 1_545 S
C762 C761 1.366 1_565 S
C762 C763 1.414 . S
C762 C765 1.499 . S
C763 H737 0.950 . S
C763 C762 1.414 . S
C763 C764 1.374 . S
C764 H738 0.950 . S
C764 C760 1.385 . S
C764 C763 1.374 . S
C765 C762 1.499 . S
C765 C766 1.372 1_565 S
C765 C767 1.389 . S
C766 H739 0.948 . S
C766 C752 1.379 . S
C766 C765 1.372 1_545 S
C767 C751 1.377 . S
C767 C765 1.389 . S
C767 C768 1.524 . S
C768 C767 1.524 . S
C768 C769 1.397 . S
C768 C773 1.363 . S
C769 H740 0.950 . S
C769 C768 1.397 . S
C769 C770 1.334 . S
C770 H741 0.950 . S
C770 C769 1.334 . S
C770 C771 1.287 . S
C771 C770 1.287 . S
C771 C772 1.524 . S
C771 H774 0.999 . S
C772 H742 0.950 . S
C772 C771 1.524 . S
C772 C773 1.415 . S
C773 H743 0.950 1_565 S
C773 C768 1.363 . S
C773 C772 1.415 . S
H774 C771 0.999 . S
H775 C756 0.921 . S
H776 C794 0.951 . S
H777 C796 0.951 . S
H778 C798 0.950 . S
H779 C799 0.950 . S
H780 C801 0.950 . S
H781 C804 0.950 . S
H782 C805 0.950 . S
H783 C807 0.950 . S
H784 C808 0.950 . S
H785 C809 0.951 . S
H786 C811 0.951 . S
H787 C813 0.950 . S
H788 C814 0.950 . S
H789 C816 0.950 . S
H790 C819 0.950 . S
H791 C820 0.950 . S
H792 C822 0.950 . S
H793 C823 0.950 . S
C794 H776 0.951 . S
C794 C795 1.366 1_655 S
C794 C796 1.388 . S
C795 C794 1.366 1_455 S
C795 C799 1.385 . S
C796 H777 0.951 . S
C796 C794 1.388 . S
C796 C797 1.366 1_655 S
C797 C796 1.366 1_455 S
C797 C798 1.414 . S
C797 C800 1.499 . S
C798 H778 0.950 . S
C798 C797 1.414 . S
C798 C799 1.374 . S
C799 H779 0.950 . S
C799 C795 1.385 . S
C799 C798 1.374 . S
C800 C797 1.499 . S
C800 C801 1.373 . S
C800 C802 1.389 1_455 S
C801 H780 0.950 . S
C801 C800 1.373 . S
C801 C817 1.377 . S
C802 C800 1.389 1_655 S
C802 C803 1.524 . S
C802 C816 1.377 . S
C803 C802 1.524 . S
C803 C804 1.397 . S
C803 C808 1.363 . S
C804 H781 0.950 . S
C804 C803 1.397 . S
C804 C805 1.334 . S
C805 H782 0.950 . S
C805 C804 1.334 . S
C805 C806 1.287 . S
C806 C805 1.287 . S
C806 C807 1.524 . S
C806 H825 0.913 . S
C807 H783 0.950 . S
C807 C806 1.524 . S
C807 C808 1.415 . S
C808 H784 0.950 . S
C808 C803 1.363 . S
C808 C807 1.415 . S
C809 H785 0.951 . S
C809 C810 1.366 . S
C809 C811 1.388 . S
C810 C809 1.366 . S
C810 C814 1.385 1_455 S
C811 H786 0.951 . S
C811 C809 1.388 . S
C811 C812 1.366 . S
C812 C811 1.366 . S
C812 C813 1.414 1_455 S
C812 C815 1.499 . S
C813 H787 0.950 . S
C813 C812 1.414 1_655 S
C813 C814 1.374 . S
C814 H788 0.950 . S
C814 C810 1.385 1_655 S
C814 C813 1.374 . S
C815 C812 1.499 . S
C815 C816 1.373 1_455 S
C815 C817 1.389 . S
C816 H789 0.950 . S
C816 C802 1.377 . S
C816 C815 1.373 1_655 S
C817 C801 1.377 . S
C817 C815 1.389 . S
C817 C818 1.524 . S
C818 C817 1.524 . S
C818 C819 1.397 . S
C818 C823 1.363 . S
C819 H790 0.950 . S
C819 C818 1.397 . S
C819 C820 1.334 . S
C820 H791 0.950 . S
C820 C819 1.334 . S
C820 C821 1.287 . S
C821 C820 1.287 . S
C821 C822 1.524 . S
C821 H824 0.999 . S
C822 H792 0.950 . S
C822 C821 1.524 . S
C822 C823 1.415 . S
C823 H793 0.950 . S
C823 C818 1.363 . S
C823 C822 1.415 . S
H824 C821 0.999 . S
H825 C806 0.913 . S
H826 C844 0.951 . S
H827 C846 0.951 . S
H828 C848 0.950 . S
H829 C849 0.950 . S
H830 C851 0.950 . S
H831 C854 0.950 . S
H832 C855 0.950 . S
H833 C857 0.950 . S
H834 C858 0.950 . S
H835 C859 0.951 . S
H836 C861 0.951 . S
H837 C863 0.950 . S
H838 C864 0.950 . S
H839 C866 0.950 . S
H840 C869 0.950 . S
H841 C870 0.950 . S
H842 C872 0.950 . S
H843 C873 0.950 . S
C844 H826 0.951 . S
C844 C845 1.366 . S
C844 C846 1.388 . S
C845 C844 1.366 . S
C845 C849 1.385 . S
C846 H827 0.951 . S
C846 C844 1.388 . S
C846 C847 1.366 . S
C847 C846 1.366 . S
C847 C848 1.414 . S
C847 C850 1.499 . S
C848 H828 0.950 . S
C848 C847 1.414 . S
C848 C849 1.374 . S
C849 H829 0.950 . S
C849 C845 1.385 . S
C849 C848 1.374 . S
C850 C847 1.499 . S
C850 C851 1.373 . S
C850 C852 1.389 . S
C851 H830 0.950 . S
C851 C850 1.373 . S
C851 C867 1.377 . S
C852 C850 1.389 . S
C852 C853 1.524 . S
C852 C866 1.377 . S
C853 C852 1.524 . S
C853 C854 1.397 . S
C853 C858 1.363 . S
C854 H831 0.950 . S
C854 C853 1.397 . S
C854 C855 1.334 . S
C855 H832 0.950 . S
C855 C854 1.334 . S
C855 C856 1.287 . S
C856 C855 1.287 . S
C856 C857 1.524 . S
C856 H875 0.913 . S
C857 H833 0.950 . S
C857 C856 1.524 . S
C857 C858 1.415 . S
C858 H834 0.950 . S
C858 C853 1.363 . S
C858 C857 1.415 . S
C859 H835 0.951 . S
C859 C860 1.366 . S
C859 C861 1.388 . S
C860 C859 1.366 . S
C860 C864 1.385 . S
C861 H836 0.951 . S
C861 C859 1.388 . S
C861 C862 1.366 . S
C862 C861 1.366 . S
C862 C863 1.414 . S
C862 C865 1.499 . S
C863 H837 0.950 . S
C863 C862 1.414 . S
C863 C864 1.374 . S
C864 H838 0.950 . S
C864 C860 1.385 . S
C864 C863 1.374 . S
C865 C862 1.499 . S
C865 C866 1.373 . S
C865 C867 1.389 . S
C866 H839 0.950 . S
C866 C852 1.377 . S
C866 C865 1.373 . S
C867 C851 1.377 . S
C867 C865 1.389 . S
C867 C868 1.524 . S
C868 C867 1.524 . S
C868 C869 1.397 . S
C868 C873 1.363 . S
C869 H840 0.950 . S
C869 C868 1.397 . S
C869 C870 1.334 . S
C870 H841 0.950 . S
C870 C869 1.334 . S
C870 C871 1.287 . S
C871 C870 1.287 . S
C871 C872 1.524 . S
C871 H874 0.999 . S
C872 H842 0.950 . S
C872 C871 1.524 . S
C872 C873 1.415 . S
C873 H843 0.950 . S
C873 C868 1.363 . S
C873 C872 1.415 . S
H874 C871 0.999 . S
H875 C856 0.913 . S
H876 C894 0.951 . S
H877 C896 0.951 . S
H878 C898 0.950 . S
H879 C899 0.950 . S
H880 C901 0.950 . S
H881 C904 0.950 . S
H882 C905 0.950 . S
H883 C907 0.950 . S
H884 C908 0.950 . S
H885 C909 0.951 . S
H886 C911 0.951 . S
H887 C913 0.950 . S
H888 C914 0.950 . S
H889 C916 0.950 . S
H890 C919 0.950 . S
H891 C920 0.950 . S
H892 C922 0.950 . S
H893 C923 0.950 . S
C894 H876 0.951 . S
C894 C895 1.366 . S
C894 C896 1.388 . S
C895 C894 1.366 . S
C895 C899 1.385 1_455 S
C896 H877 0.951 . S
C896 C894 1.388 . S
C896 C897 1.366 . S
C897 C896 1.366 . S
C897 C898 1.414 1_455 S
C897 C900 1.499 . S
C898 H878 0.950 . S
C898 C897 1.414 1_655 S
C898 C899 1.374 . S
C899 H879 0.950 . S
C899 C895 1.385 1_655 S
C899 C898 1.374 . S
C900 C897 1.499 . S
C900 C901 1.373 1_455 S
C900 C902 1.389 . S
C901 H880 0.950 . S
C901 C900 1.373 1_655 S
C901 C917 1.377 . S
C902 C900 1.389 . S
C902 C903 1.524 . S
C902 C916 1.377 . S
C903 C902 1.524 . S
C903 C904 1.397 . S
C903 C908 1.363 . S
C904 H881 0.950 . S
C904 C903 1.397 . S
C904 C905 1.334 . S
C905 H882 0.950 . S
C905 C904 1.334 . S
C905 C906 1.287 . S
C906 C905 1.287 . S
C906 C907 1.524 . S
C906 H925 0.913 . S
C907 H883 0.950 . S
C907 C906 1.524 . S
C907 C908 1.415 . S
C908 H884 0.950 . S
C908 C903 1.363 . S
C908 C907 1.415 . S
C909 H885 0.951 . S
C909 C910 1.356 . S
C909 C911 1.388 . S
C910 C909 1.356 . S
C910 C914 1.391 1_655 S
C911 H886 0.951 . S
C911 C909 1.388 . S
C911 C912 1.366 1_655 S
C912 C911 1.366 1_455 S
C912 C913 1.414 . S
C912 C915 1.499 . S
C913 H887 0.950 . S
C913 C912 1.414 . S
C913 C914 1.374 . S
C914 H888 0.950 . S
C914 C910 1.391 1_455 S
C914 C913 1.374 . S
C915 C912 1.499 . S
C915 C916 1.373 . S
C915 C917 1.389 1_455 S
C916 H889 0.950 . S
C916 C902 1.377 . S
C916 C915 1.373 . S
C917 C901 1.377 . S
C917 C915 1.389 1_655 S
C917 C918 1.524 . S
C918 C917 1.524 . S
C918 C919 1.397 . S
C918 C923 1.363 . S
C919 H890 0.950 . S
C919 C918 1.397 . S
C919 C920 1.334 . S
C920 H891 0.950 . S
C920 C919 1.334 . S
C920 C921 1.287 . S
C921 C920 1.287 . S
C921 C922 1.524 . S
C921 H924 0.999 . S
C922 H892 0.950 . S
C922 C921 1.524 . S
C922 C923 1.415 . S
C923 H893 0.950 . S
C923 C918 1.363 . S
C923 C922 1.415 . S
H924 C921 0.999 . S
H925 C906 0.913 . S
H926 C944 0.951 . S
H927 C946 0.951 . S
H928 C948 0.950 . S
H929 C949 0.950 . S
H930 C951 0.950 . S
H931 C954 0.950 . S
H932 C955 0.950 . S
H933 C957 0.950 . S
H934 C958 0.950 . S
H935 C959 0.951 . S
H936 C961 0.951 . S
H937 C963 0.950 . S
H938 C964 0.950 . S
H939 C966 0.950 . S
H940 C969 0.950 . S
H941 C970 0.950 . S
H942 C972 0.950 . S
H943 C973 0.950 . S
C944 H926 0.951 . S
C944 C945 1.366 . S
C944 C946 1.388 . S
C945 C944 1.366 . S
C945 C949 1.385 . S
C946 H927 0.951 . S
C946 C944 1.388 . S
C946 C947 1.366 . S
C947 C946 1.366 . S
C947 C948 1.414 . S
C947 C950 1.499 . S
C948 H928 0.950 . S
C948 C947 1.414 . S
C948 C949 1.374 . S
C949 H929 0.950 . S
C949 C945 1.385 . S
C949 C948 1.374 . S
C950 C947 1.499 . S
C950 C951 1.373 . S
C950 C952 1.389 . S
C951 H930 0.950 . S
C951 C950 1.373 . S
C951 C967 1.377 . S
C952 C950 1.389 . S
C952 C953 1.524 . S
C952 C966 1.377 . S
C953 C952 1.524 . S
C953 C954 1.397 . S
C953 C958 1.363 . S
C954 H931 0.950 . S
C954 C953 1.397 . S
C954 C955 1.334 . S
C955 H932 0.950 . S
C955 C954 1.334 . S
C955 C956 1.287 . S
C956 C955 1.287 . S
C956 C957 1.524 . S
C956 H975 0.913 1_556 S
C957 H933 0.950 . S
C957 C956 1.524 . S
C957 C958 1.415 . S
C958 H934 0.950 . S
C958 C953 1.363 . S
C958 C957 1.415 . S
C959 H935 0.951 . S
C959 C960 1.366 . S
C959 C961 1.388 . S
C960 C959 1.366 . S
C960 C964 1.385 . S
C961 H936 0.951 . S
C961 C959 1.388 . S
C961 C962 1.366 . S
C962 C961 1.366 . S
C962 C963 1.414 . S
C962 C965 1.499 . S
C963 H937 0.950 . S
C963 C962 1.414 . S
C963 C964 1.374 . S
C964 H938 0.950 . S
C964 C960 1.385 . S
C964 C963 1.374 . S
C965 C962 1.499 . S
C965 C966 1.373 . S
C965 C967 1.389 . S
C966 H939 0.950 . S
C966 C952 1.377 . S
C966 C965 1.373 . S
C967 C951 1.377 . S
C967 C965 1.389 . S
C967 C968 1.524 . S
C968 C967 1.524 . S
C968 C969 1.397 . S
C968 C973 1.363 . S
C969 H940 0.950 . S
C969 C968 1.397 . S
C969 C970 1.334 . S
C970 H941 0.950 . S
C970 C969 1.334 . S
C970 C971 1.287 . S
C971 C970 1.287 . S
C971 C972 1.524 . S
C971 H974 0.999 . S
C972 H942 0.950 . S
C972 C971 1.524 . S
C972 C973 1.415 . S
C973 H943 0.950 . S
C973 C968 1.363 . S
C973 C972 1.415 . S
H974 C971 0.999 . S
H975 C956 0.913 1_554 S
H976 C994 0.951 . S
H977 C996 0.949 1_545 S
H978 C998 0.950 . S
H979 C999 0.950 . S
H980 C1001 0.950 . S
H981 C1004 0.950 . S
H982 C1005 0.950 . S
H983 C1007 0.950 . S
H984 C1008 0.950 . S
H985 C1009 0.951 . S
H986 C1011 0.951 . S
H987 C1013 0.950 . S
H988 C1014 0.950 . S
H989 C1016 0.950 . S
H990 C1019 0.950 . S
H991 C1020 0.950 . S
H992 C1022 0.950 . S
H993 C1023 0.950 . S
C994 H976 0.951 . S
C994 C995 1.366 . S
C994 C996 1.412 . S
C995 C994 1.366 . S
C995 C999 1.385 . S
C996 H977 0.949 1_565 S
C996 C994 1.412 . S
C996 C997 1.345 . S
C997 C996 1.345 . S
C997 C998 1.414 . S
C997 C1000 1.499 . S
C998 H978 0.950 . S
C998 C997 1.414 . S
C998 C999 1.374 . S
C999 H979 0.950 . S
C999 C995 1.385 . S
C999 C998 1.374 . S
C1000 C997 1.499 . S
C1000 C1001 1.373 . S
C1000 C1002 1.389 1_565 S
C1001 H980 0.950 . S
C1001 C1000 1.373 . S
C1001 C1017 1.377 . S
C1002 C1000 1.389 1_545 S
C1002 C1003 1.524 . S
C1002 C1016 1.377 . S
C1003 C1002 1.524 . S
C1003 C1004 1.397 . S
C1003 C1008 1.363 . S
C1004 H981 0.950 . S
C1004 C1003 1.397 . S
C1004 C1005 1.334 . S
C1005 H982 0.950 . S
C1005 C1004 1.334 . S
C1005 C1006 1.287 . S
C1006 C1005 1.287 . S
C1006 C1007 1.524 . S
C1006 H1025 0.913 . S
C1007 H983 0.950 . S
C1007 C1006 1.524 . S
C1007 C1008 1.415 . S
C1008 H984 0.950 . S
C1008 C1003 1.363 . S
C1008 C1007 1.415 . S
C1009 H985 0.951 . S
C1009 C1010 1.366 . S
C1009 C1011 1.388 . S
C1010 C1009 1.366 . S
C1010 C1014 1.387 1_565 S
C1011 H986 0.951 . S
C1011 C1009 1.388 . S
C1011 C1012 1.366 . S
C1012 C1011 1.366 . S
C1012 C1013 1.414 1_565 S
C1012 C1015 1.499 . S
C1013 H987 0.950 . S
C1013 C1012 1.414 1_545 S
C1013 C1014 1.374 . S
C1014 H988 0.950 . S
C1014 C1010 1.387 1_545 S
C1014 C1013 1.374 . S
C1015 C1012 1.499 . S
C1015 C1016 1.373 1_565 S
C1015 C1017 1.389 . S
C1016 H989 0.950 . S
C1016 C1002 1.377 . S
C1016 C1015 1.373 1_545 S
C1017 C1001 1.377 . S
C1017 C1015 1.389 . S
C1017 C1018 1.524 . S
C1018 C1017 1.524 . S
C1018 C1019 1.397 . S
C1018 C1023 1.363 . S
C1019 H990 0.950 . S
C1019 C1018 1.397 . S
C1019 C1020 1.334 . S
C1020 H991 0.950 . S
C1020 C1019 1.334 . S
C1020 C1021 1.287 . S
C1021 C1020 1.287 . S
C1021 C1022 1.524 . S
C1021 H1024 0.999 . S
C1022 H992 0.950 . S
C1022 C1021 1.524 . S
C1022 C1023 1.415 . S
C1023 H993 0.950 . S
C1023 C1018 1.363 . S
C1023 C1022 1.415 . S
H1024 C1021 0.999 . S
H1025 C1006 0.913 . S
H1026 C1044 0.951 . S
H1027 C1046 0.951 . S
H1028 C1048 0.950 . S
H1029 C1049 0.950 . S
H1030 C1051 0.934 1_565 S
H1031 C1054 0.950 . S
H1032 C1055 0.950 . S
H1033 C1057 0.950 . S
H1034 C1058 0.950 1_565 S
H1035 C1059 0.951 . S
H1036 C1061 0.951 . S
H1037 C1063 0.950 . S
H1038 C1064 0.950 . S
H1039 C1066 0.950 . S
H1040 C1069 0.950 . S
H1041 C1070 0.950 . S
H1042 C1072 0.950 . S
H1043 C1073 0.939 1_545 S
C1044 H1026 0.951 . S
C1044 C1045 1.366 1_565 S
C1044 C1046 1.388 . S
C1045 C1044 1.366 1_545 S
C1045 C1049 1.385 . S
C1046 H1027 0.951 . S
C1046 C1044 1.388 . S
C1046 C1047 1.366 1_565 S
C1047 C1046 1.366 1_545 S
C1047 C1048 1.414 . S
C1047 C1050 1.499 . S
C1048 H1028 0.950 . S
C1048 C1047 1.414 . S
C1048 C1049 1.374 . S
C1049 H1029 0.950 . S
C1049 C1045 1.385 . S
C1049 C1048 1.374 . S
C1050 C1047 1.499 . S
C1050 C1051 1.381 . S
C1050 C1052 1.389 . S
C1051 H1030 0.934 1_545 S
C1051 C1050 1.381 . S
C1051 C1067 1.385 1_545 S
C1052 C1050 1.389 . S
C1052 C1053 1.524 . S
C1052 C1066 1.377 . S
C1053 C1052 1.524 . S
C1053 C1054 1.397 . S
C1053 C1058 1.363 . S
C1054 H1031 0.950 . S
C1054 C1053 1.397 . S
C1054 C1055 1.334 . S
C1055 H1032 0.950 . S
C1055 C1054 1.334 . S
C1055 C1056 1.287 . S
C1056 C1055 1.287 . S
C1056 C1057 1.524 . S
C1056 H1075 0.913 . S
C1057 H1033 0.950 . S
C1057 C1056 1.524 . S
C1057 C1058 1.415 . S
C1058 H1034 0.950 1_545 S
C1058 C1053 1.363 . S
C1058 C1057 1.415 . S
C1059 H1035 0.951 . S
C1059 C1060 1.366 1_545 S
C1059 C1061 1.388 . S
C1060 C1059 1.366 1_565 S
C1060 C1064 1.392 . S
C1061 H1036 0.951 . S
C1061 C1059 1.388 . S
C1061 C1062 1.382 . S
C1062 C1061 1.382 . S
C1062 C1063 1.415 1_545 S
C1062 C1065 1.517 . S
C1063 H1037 0.950 . S
C1063 C1062 1.415 1_565 S
C1063 C1064 1.374 . S
C1064 H1038 0.950 . S
C1064 C1060 1.392 . S
C1064 C1063 1.374 . S
C1065 C1062 1.517 . S
C1065 C1066 1.400 . S
C1065 C1067 1.340 1_545 S
C1066 H1039 0.950 . S
C1066 C1052 1.377 . S
C1066 C1065 1.400 . S
C1067 C1051 1.385 1_565 S
C1067 C1065 1.340 1_565 S
C1067 C1068 1.524 . S
C1068 C1067 1.524 . S
C1068 C1069 1.397 . S
C1068 C1073 1.363 . S
C1069 H1040 0.950 . S
C1069 C1068 1.397 . S
C1069 C1070 1.334 . S
C1070 H1041 0.950 . S
C1070 C1069 1.334 . S
C1070 C1071 1.287 . S
C1071 C1070 1.287 . S
C1071 C1072 1.524 . S
C1071 H1074 0.999 . S
C1072 H1042 0.950 . S
C1072 C1071 1.524 . S
C1072 C1073 1.427 . S
C1073 H1043 0.939 1_565 S
C1073 C1068 1.363 . S
C1073 C1072 1.427 . S
H1074 C1071 0.999 . S
H1075 C1056 0.913 . S
H1076 C1094 0.951 . S
H1077 C1096 0.951 . S
H1078 C1098 0.950 . S
H1079 C1099 0.950 . S
H1080 C1101 0.950 . S
H1081 C1104 0.950 . S
H1082 C1105 0.950 . S
H1083 C1107 0.950 . S
H1084 C1108 0.950 . S
H1085 C1109 0.951 . S
H1086 C1111 0.951 . S
H1087 C1113 0.950 . S
H1088 C1114 0.950 . S
H1089 C1116 0.950 . S
H1090 C1119 0.950 . S
H1091 C1120 0.950 . S
H1092 C1122 0.950 . S
H1093 C1123 0.904 1_655 S
C1094 H1076 0.951 . S
C1094 C1095 1.366 1_455 S
C1094 C1096 1.388 . S
C1095 C1094 1.366 1_655 S
C1095 C1099 1.385 . S
C1096 H1077 0.951 . S
C1096 C1094 1.388 . S
C1096 C1097 1.366 1_455 S
C1097 C1096 1.366 1_655 S
C1097 C1098 1.414 . S
C1097 C1100 1.499 . S
C1098 H1078 0.950 . S
C1098 C1097 1.414 . S
C1098 C1099 1.374 . S
C1099 H1079 0.950 . S
C1099 C1095 1.385 . S
C1099 C1098 1.374 . S
C1100 C1097 1.499 . S
C1100 C1101 1.373 1_655 S
C1100 C1102 1.389 . S
C1101 H1080 0.950 . S
C1101 C1100 1.373 1_455 S
C1101 C1117 1.377 . S
C1102 C1100 1.389 . S
C1102 C1103 1.524 . S
C1102 C1116 1.377 . S
C1103 C1102 1.524 . S
C1103 C1104 1.397 . S
C1103 C1108 1.363 . S
C1104 H1081 0.950 . S
C1104 C1103 1.397 . S
C1104 C1105 1.334 . S
C1105 H1082 0.950 . S
C1105 C1104 1.334 . S
C1105 C1106 1.287 . S
C1106 C1105 1.287 . S
C1106 C1107 1.524 . S
C1106 H1125 0.913 . S
C1107 H1083 0.950 . S
C1107 C1106 1.524 . S
C1107 C1108 1.415 . S
C1108 H1084 0.950 . S
C1108 C1103 1.363 . S
C1108 C1107 1.415 . S
C1109 H1085 0.951 . S
C1109 C1110 1.364 . S
C1109 C1111 1.388 . S
C1110 C1109 1.364 . S
C1110 C1114 1.385 1_655 S
C1111 H1086 0.951 . S
C1111 C1109 1.388 . S
C1111 C1112 1.369 . S
C1112 C1111 1.369 . S
C1112 C1113 1.406 1_655 S
C1112 C1115 1.490 . S
C1113 H1087 0.950 . S
C1113 C1112 1.406 1_455 S
C1113 C1114 1.374 . S
C1114 H1088 0.950 . S
C1114 C1110 1.385 1_455 S
C1114 C1113 1.374 . S
C1115 C1112 1.490 . S
C1115 C1116 1.382 . S
C1115 C1117 1.397 1_655 S
C1116 H1089 0.950 . S
C1116 C1102 1.377 . S
C1116 C1115 1.382 . S
C1117 C1101 1.377 . S
C1117 C1115 1.397 1_455 S
C1117 C1118 1.524 . S
C1118 C1117 1.524 . S
C1118 C1119 1.397 . S
C1118 C1123 1.363 . S
C1119 H1090 0.950 . S
C1119 C1118 1.397 . S
C1119 C1120 1.334 . S
C1120 H1091 0.950 . S
C1120 C1119 1.334 . S
C1120 C1121 1.287 . S
C1121 C1120 1.287 . S
C1121 C1122 1.524 . S
C1121 H1124 0.999 . S
C1122 H1092 0.950 . S
C1122 C1121 1.524 . S
C1122 C1123 1.415 . S
C1123 H1093 0.904 1_455 S
C1123 C1118 1.363 . S
C1123 C1122 1.415 . S
H1124 C1121 0.999 . S
H1125 C1106 0.913 . S
H1126 C1144 0.951 . S
H1127 C1146 0.951 . S
H1128 C1148 0.950 . S
H1129 C1149 0.950 . S
H1130 C1151 0.950 . S
H1131 C1154 0.950 . S
H1132 C1155 0.950 . S
H1133 C1157 0.950 . S
H1134 C1158 0.950 . S
H1135 C1159 0.951 . S
H1136 C1161 0.951 . S
H1137 C1163 0.950 . S
H1138 C1164 0.950 . S
H1139 C1166 0.950 . S
H1140 C1169 0.950 . S
H1141 C1170 0.950 . S
H1142 C1172 0.950 . S
H1143 C1173 0.950 . S
C1144 H1126 0.951 . S
C1144 C1145 1.366 . S
C1144 C1146 1.388 . S
C1145 C1144 1.366 . S
C1145 C1149 1.385 . S
C1146 H1127 0.951 . S
C1146 C1144 1.388 . S
C1146 C1147 1.366 . S
C1147 C1146 1.366 . S
C1147 C1148 1.414 . S
C1147 C1150 1.499 . S
C1148 H1128 0.950 . S
C1148 C1147 1.414 . S
C1148 C1149 1.374 . S
C1149 H1129 0.950 . S
C1149 C1145 1.385 . S
C1149 C1148 1.374 . S
C1150 C1147 1.499 . S
C1150 C1151 1.373 . S
C1150 C1152 1.389 . S
C1151 H1130 0.950 . S
C1151 C1150 1.373 . S
C1151 C1167 1.377 . S
C1152 C1150 1.389 . S
C1152 C1153 1.524 . S
C1152 C1166 1.377 . S
C1153 C1152 1.524 . S
C1153 C1154 1.397 . S
C1153 C1158 1.363 . S
C1154 H1131 0.950 . S
C1154 C1153 1.397 . S
C1154 C1155 1.334 . S
C1155 H1132 0.950 . S
C1155 C1154 1.334 . S
C1155 C1156 1.287 . S
C1156 C1155 1.287 . S
C1156 C1157 1.524 . S
C1156 H1175 0.913 . S
C1157 H1133 0.950 . S
C1157 C1156 1.524 . S
C1157 C1158 1.415 . S
C1158 H1134 0.950 . S
C1158 C1153 1.363 . S
C1158 C1157 1.415 . S
C1159 H1135 0.951 . S
C1159 C1160 1.366 . S
C1159 C1161 1.388 . S
C1160 C1159 1.366 . S
C1160 C1164 1.385 . S
C1161 H1136 0.951 . S
C1161 C1159 1.388 . S
C1161 C1162 1.366 . S
C1162 C1161 1.366 . S
C1162 C1163 1.414 . S
C1162 C1165 1.499 . S
C1163 H1137 0.950 . S
C1163 C1162 1.414 . S
C1163 C1164 1.374 . S
C1164 H1138 0.950 . S
C1164 C1160 1.385 . S
C1164 C1163 1.374 . S
C1165 C1162 1.499 . S
C1165 C1166 1.373 . S
C1165 C1167 1.389 . S
C1166 H1139 0.950 . S
C1166 C1152 1.377 . S
C1166 C1165 1.373 . S
C1167 C1151 1.377 . S
C1167 C1165 1.389 . S
C1167 C1168 1.524 . S
C1168 C1167 1.524 . S
C1168 C1169 1.397 . S
C1168 C1173 1.363 . S
C1169 H1140 0.950 . S
C1169 C1168 1.397 . S
C1169 C1170 1.334 . S
C1170 H1141 0.950 . S
C1170 C1169 1.334 . S
C1170 C1171 1.287 . S
C1171 C1170 1.287 . S
C1171 C1172 1.524 . S
C1171 H1174 0.999 . S
C1172 H1142 0.950 . S
C1172 C1171 1.524 . S
C1172 C1173 1.415 . S
C1173 H1143 0.950 . S
C1173 C1168 1.363 . S
C1173 C1172 1.415 . S
H1174 C1171 0.999 . S
H1175 C1156 0.913 . S
H1176 C1194 0.951 . S
H1177 C1196 0.951 . S
H1178 C1198 0.950 . S
H1179 C1199 0.950 . S
H1180 C1201 0.950 . S
H1181 C1204 0.950 . S
H1182 C1205 0.950 . S
H1183 C1207 0.950 . S
H1184 C1208 0.950 . S
H1185 C1209 0.951 . S
H1186 C1211 0.951 . S
H1187 C1213 0.950 . S
H1188 C1214 0.950 . S
H1189 C1216 0.950 . S
H1190 C1219 0.950 . S
H1191 C1220 0.950 . S
H1192 C1222 0.950 . S
H1193 C1223 0.950 . S
C1194 H1176 0.951 . S
C1194 C1195 1.366 . S
C1194 C1196 1.388 . S
C1195 C1194 1.366 . S
C1195 C1199 1.385 . S
C1196 H1177 0.951 . S
C1196 C1194 1.388 . S
C1196 C1197 1.366 . S
C1197 C1196 1.366 . S
C1197 C1198 1.414 . S
C1197 C1200 1.499 . S
C1198 H1178 0.950 . S
C1198 C1197 1.414 . S
C1198 C1199 1.374 . S
C1199 H1179 0.950 . S
C1199 C1195 1.385 . S
C1199 C1198 1.374 . S
C1200 C1197 1.499 . S
C1200 C1201 1.373 . S
C1200 C1202 1.389 . S
C1201 H1180 0.950 . S
C1201 C1200 1.373 . S
C1201 C1217 1.377 . S
C1202 C1200 1.389 . S
C1202 C1203 1.524 . S
C1202 C1216 1.377 . S
C1203 C1202 1.524 . S
C1203 C1204 1.397 . S
C1203 C1208 1.363 . S
C1204 H1181 0.950 . S
C1204 C1203 1.397 . S
C1204 C1205 1.334 . S
C1205 H1182 0.950 . S
C1205 C1204 1.334 . S
C1205 C1206 1.287 . S
C1206 C1205 1.287 . S
C1206 C1207 1.524 . S
C1206 H1225 0.913 . S
C1207 H1183 0.950 . S
C1207 C1206 1.524 . S
C1207 C1208 1.415 . S
C1208 H1184 0.950 . S
C1208 C1203 1.363 . S
C1208 C1207 1.415 . S
C1209 H1185 0.951 . S
C1209 C1210 1.366 . S
C1209 C1211 1.388 . S
C1210 C1209 1.366 . S
C1210 C1214 1.385 . S
C1211 H1186 0.951 . S
C1211 C1209 1.388 . S
C1211 C1212 1.366 . S
C1212 C1211 1.366 . S
C1212 C1213 1.414 . S
C1212 C1215 1.499 . S
C1213 H1187 0.950 . S
C1213 C1212 1.414 . S
C1213 C1214 1.374 . S
C1214 H1188 0.950 . S
C1214 C1210 1.385 . S
C1214 C1213 1.374 . S
C1215 C1212 1.499 . S
C1215 C1216 1.373 . S
C1215 C1217 1.389 . S
C1216 H1189 0.950 . S
C1216 C1202 1.377 . S
C1216 C1215 1.373 . S
C1217 C1201 1.377 . S
C1217 C1215 1.389 . S
C1217 C1218 1.524 . S
C1218 C1217 1.524 . S
C1218 C1219 1.397 . S
C1218 C1223 1.363 . S
C1219 H1190 0.950 . S
C1219 C1218 1.397 . S
C1219 C1220 1.334 . S
C1220 H1191 0.950 . S
C1220 C1219 1.334 . S
C1220 C1221 1.287 . S
C1221 C1220 1.287 . S
C1221 C1222 1.524 . S
C1221 H1224 0.999 . S
C1222 H1192 0.950 . S
C1222 C1221 1.524 . S
C1222 C1223 1.415 . S
C1223 H1193 0.950 . S
C1223 C1218 1.363 . S
C1223 C1222 1.415 . S
H1224 C1221 0.999 . S
H1225 C1206 0.913 . S
H1226 C1244 0.951 . S
H1227 C1246 0.951 . S
H1228 C1248 0.950 . S
H1229 C1249 0.950 . S
H1230 C1251 0.950 . S
H1231 C1254 0.950 . S
H1232 C1255 0.950 . S
H1233 C1257 0.950 . S
H1234 C1258 0.950 . S
H1235 C1259 0.951 . S
H1236 C1261 0.951 . S
H1237 C1263 0.950 . S
H1238 C1264 0.950 . S
H1239 C1266 0.950 . S
H1240 C1269 0.950 . S
H1241 C1270 0.950 . S
H1242 C1272 0.950 . S
H1243 C1273 0.950 . S
C1244 H1226 0.951 . S
C1244 C1245 1.366 . S
C1244 C1246 1.388 . S
C1245 C1244 1.366 . S
C1245 C1249 1.385 . S
C1246 H1227 0.951 . S
C1246 C1244 1.388 . S
C1246 C1247 1.366 . S
C1247 C1246 1.366 . S
C1247 C1248 1.414 . S
C1247 C1250 1.499 . S
C1248 H1228 0.950 . S
C1248 C1247 1.414 . S
C1248 C1249 1.374 . S
C1249 H1229 0.950 . S
C1249 C1245 1.385 . S
C1249 C1248 1.374 . S
C1250 C1247 1.499 . S
C1250 C1251 1.373 . S
C1250 C1252 1.389 . S
C1251 H1230 0.950 . S
C1251 C1250 1.373 . S
C1251 C1267 1.377 . S
C1252 C1250 1.389 . S
C1252 C1253 1.524 . S
C1252 C1266 1.377 . S
C1253 C1252 1.524 . S
C1253 C1254 1.397 . S
C1253 C1258 1.363 . S
C1254 H1231 0.950 . S
C1254 C1253 1.397 . S
C1254 C1255 1.334 . S
C1255 H1232 0.950 . S
C1255 C1254 1.334 . S
C1255 C1256 1.287 . S
C1256 C1255 1.287 . S
C1256 C1257 1.524 . S
C1256 H1275 0.913 . S
C1257 H1233 0.950 . S
C1257 C1256 1.524 . S
C1257 C1258 1.415 . S
C1258 H1234 0.950 . S
C1258 C1253 1.363 . S
C1258 C1257 1.415 . S
C1259 H1235 0.951 . S
C1259 C1260 1.366 . S
C1259 C1261 1.388 . S
C1260 C1259 1.366 . S
C1260 C1264 1.385 . S
C1261 H1236 0.951 . S
C1261 C1259 1.388 . S
C1261 C1262 1.366 . S
C1262 C1261 1.366 . S
C1262 C1263 1.414 . S
C1262 C1265 1.499 . S
C1263 H1237 0.950 . S
C1263 C1262 1.414 . S
C1263 C1264 1.374 . S
C1264 H1238 0.950 . S
C1264 C1260 1.385 . S
C1264 C1263 1.374 . S
C1265 C1262 1.499 . S
C1265 C1266 1.373 . S
C1265 C1267 1.389 . S
C1266 H1239 0.950 . S
C1266 C1252 1.377 . S
C1266 C1265 1.373 . S
C1267 C1251 1.377 . S
C1267 C1265 1.389 . S
C1267 C1268 1.524 . S
C1268 C1267 1.524 . S
C1268 C1269 1.397 . S
C1268 C1273 1.363 . S
C1269 H1240 0.950 . S
C1269 C1268 1.397 . S
C1269 C1270 1.334 . S
C1270 H1241 0.950 . S
C1270 C1269 1.334 . S
C1270 C1271 1.287 . S
C1271 C1270 1.287 . S
C1271 C1272 1.524 . S
C1271 H1274 0.999 . S
C1272 H1242 0.950 . S
C1272 C1271 1.524 . S
C1272 C1273 1.415 . S
C1273 H1243 0.950 . S
C1273 C1268 1.363 . S
C1273 C1272 1.415 . S
H1274 C1271 0.999 . S
H1275 C1256 0.913 . S
H1276 C1294 0.951 . S
H1277 C1296 0.951 . S
H1278 C1298 0.950 . S
H1279 C1299 0.950 . S
H1280 C1301 0.950 . S
H1281 C1304 0.950 . S
H1282 C1305 0.950 . S
H1283 C1307 0.950 . S
H1284 C1308 0.950 . S
H1285 C1309 0.951 . S
H1286 C1311 0.951 . S
H1287 C1313 0.950 . S
H1288 C1314 0.950 . S
H1289 C1316 0.950 . S
H1290 C1319 0.950 . S
H1291 C1320 0.950 . S
H1292 C1322 0.950 . S
H1293 C1323 0.950 . S
C1294 H1276 0.951 . S
C1294 C1295 1.366 . S
C1294 C1296 1.388 . S
C1295 C1294 1.366 . S
C1295 C1299 1.385 . S
C1296 H1277 0.951 . S
C1296 C1294 1.388 . S
C1296 C1297 1.366 . S
C1297 C1296 1.366 . S
C1297 C1298 1.414 . S
C1297 C1300 1.499 . S
C1298 H1278 0.950 . S
C1298 C1297 1.414 . S
C1298 C1299 1.374 . S
C1299 H1279 0.950 . S
C1299 C1295 1.385 . S
C1299 C1298 1.374 . S
C1300 C1297 1.499 . S
C1300 C1301 1.373 . S
C1300 C1302 1.389 . S
C1301 H1280 0.950 . S
C1301 C1300 1.373 . S
C1301 C1317 1.377 . S
C1302 C1300 1.389 . S
C1302 C1303 1.524 . S
C1302 C1316 1.377 . S
C1303 C1302 1.524 . S
C1303 C1304 1.397 . S
C1303 C1308 1.363 . S
C1304 H1281 0.950 . S
C1304 C1303 1.397 . S
C1304 C1305 1.334 . S
C1305 H1282 0.950 . S
C1305 C1304 1.334 . S
C1305 C1306 1.287 . S
C1306 C1305 1.287 . S
C1306 C1307 1.524 . S
C1306 H1325 0.913 . S
C1307 H1283 0.950 . S
C1307 C1306 1.524 . S
C1307 C1308 1.415 . S
C1308 H1284 0.950 . S
C1308 C1303 1.363 . S
C1308 C1307 1.415 . S
C1309 H1285 0.951 . S
C1309 C1310 1.366 . S
C1309 C1311 1.388 . S
C1310 C1309 1.366 . S
C1310 C1314 1.385 . S
C1311 H1286 0.951 . S
C1311 C1309 1.388 . S
C1311 C1312 1.366 . S
C1312 C1311 1.366 . S
C1312 C1313 1.414 . S
C1312 C1315 1.499 . S
C1313 H1287 0.950 . S
C1313 C1312 1.414 . S
C1313 C1314 1.374 . S
C1314 H1288 0.950 . S
C1314 C1310 1.385 . S
C1314 C1313 1.374 . S
C1315 C1312 1.499 . S
C1315 C1316 1.373 . S
C1315 C1317 1.389 . S
C1316 H1289 0.950 . S
C1316 C1302 1.377 . S
C1316 C1315 1.373 . S
C1317 C1301 1.377 . S
C1317 C1315 1.389 . S
C1317 C1318 1.524 . S
C1318 C1317 1.524 . S
C1318 C1319 1.397 . S
C1318 C1323 1.363 . S
C1319 H1290 0.950 . S
C1319 C1318 1.397 . S
C1319 C1320 1.334 . S
C1320 H1291 0.950 . S
C1320 C1319 1.334 . S
C1320 C1321 1.287 . S
C1321 C1320 1.287 . S
C1321 C1322 1.524 . S
C1321 H1324 0.999 . S
C1322 H1292 0.950 . S
C1322 C1321 1.524 . S
C1322 C1323 1.415 . S
C1323 H1293 0.950 . S
C1323 C1318 1.363 . S
C1323 C1322 1.415 . S
H1324 C1321 0.999 . S
H1325 C1306 0.913 . S
H1326 C1344 0.951 . S
H1327 C1346 0.951 . S
H1328 C1348 0.950 . S
H1329 C1349 0.950 . S
H1330 C1351 0.950 . S
H1331 C1354 0.950 . S
H1332 C1355 0.950 . S
H1333 C1357 0.950 . S
H1334 C1358 0.950 . S
H1335 C1359 0.951 . S
H1336 C1361 0.951 . S
H1337 C1363 0.950 . S
H1338 C1364 0.950 . S
H1339 C1366 0.950 . S
H1340 C1369 0.950 . S
H1341 C1370 0.950 . S
H1342 C1372 0.950 . S
H1343 C1373 0.950 . S
C1344 H1326 0.951 . S
C1344 C1345 1.366 . S
C1344 C1346 1.388 . S
C1345 C1344 1.366 . S
C1345 C1349 1.385 . S
C1346 H1327 0.951 . S
C1346 C1344 1.388 . S
C1346 C1347 1.366 . S
C1347 C1346 1.366 . S
C1347 C1348 1.414 . S
C1347 C1350 1.499 . S
C1348 H1328 0.950 . S
C1348 C1347 1.414 . S
C1348 C1349 1.374 . S
C1349 H1329 0.950 . S
C1349 C1345 1.385 . S
C1349 C1348 1.374 . S
C1350 C1347 1.499 . S
C1350 C1351 1.373 . S
C1350 C1352 1.389 . S
C1351 H1330 0.950 . S
C1351 C1350 1.373 . S
C1351 C1367 1.377 . S
C1352 C1350 1.389 . S
C1352 C1353 1.524 . S
C1352 C1366 1.377 . S
C1353 C1352 1.524 . S
C1353 C1354 1.397 . S
C1353 C1358 1.363 . S
C1354 H1331 0.950 . S
C1354 C1353 1.397 . S
C1354 C1355 1.334 . S
C1355 H1332 0.950 . S
C1355 C1354 1.334 . S
C1355 C1356 1.287 . S
C1356 C1355 1.287 . S
C1356 C1357 1.524 . S
C1356 H1375 0.913 . S
C1357 H1333 0.950 . S
C1357 C1356 1.524 . S
C1357 C1358 1.415 . S
C1358 H1334 0.950 . S
C1358 C1353 1.363 . S
C1358 C1357 1.415 . S
C1359 H1335 0.951 . S
C1359 C1360 1.366 . S
C1359 C1361 1.388 . S
C1360 C1359 1.366 . S
C1360 C1364 1.385 . S
C1361 H1336 0.951 . S
C1361 C1359 1.388 . S
C1361 C1362 1.366 . S
C1362 C1361 1.366 . S
C1362 C1363 1.414 . S
C1362 C1365 1.499 . S
C1363 H1337 0.950 . S
C1363 C1362 1.414 . S
C1363 C1364 1.374 . S
C1364 H1338 0.950 . S
C1364 C1360 1.385 . S
C1364 C1363 1.374 . S
C1365 C1362 1.499 . S
C1365 C1366 1.373 . S
C1365 C1367 1.389 . S
C1366 H1339 0.950 . S
C1366 C1352 1.377 . S
C1366 C1365 1.373 . S
C1367 C1351 1.377 . S
C1367 C1365 1.389 . S
C1367 C1368 1.524 . S
C1368 C1367 1.524 . S
C1368 C1369 1.397 . S
C1368 C1373 1.363 . S
C1369 H1340 0.950 . S
C1369 C1368 1.397 . S
C1369 C1370 1.334 . S
C1370 H1341 0.950 . S
C1370 C1369 1.334 . S
C1370 C1371 1.287 . S
C1371 C1370 1.287 . S
C1371 C1372 1.524 . S
C1371 H1374 0.999 . S
C1372 H1342 0.950 . S
C1372 C1371 1.524 . S
C1372 C1373 1.415 . S
C1373 H1343 0.950 . S
C1373 C1368 1.363 . S
C1373 C1372 1.415 . S
H1374 C1371 0.999 . S
H1375 C1356 0.913 . S
H1376 C1394 0.951 . S
H1377 C1396 0.951 . S
H1378 C1398 0.950 . S
H1379 C1399 0.950 . S
H1380 C1401 0.950 . S
H1381 C1404 0.950 . S
H1382 C1405 0.950 . S
H1383 C1407 0.950 . S
H1384 C1408 0.950 . S
H1385 C1409 0.951 . S
H1386 C1411 0.951 . S
H1387 C1413 0.950 . S
H1388 C1414 0.950 . S
H1389 C1416 0.950 . S
H1390 C1419 0.950 . S
H1391 C1420 0.950 . S
H1392 C1422 0.950 . S
H1393 C1423 0.950 . S
C1394 H1376 0.951 . S
C1394 C1395 1.366 . S
C1394 C1396 1.388 . S
C1395 C1394 1.366 . S
C1395 C1399 1.385 . S
C1396 H1377 0.951 . S
C1396 C1394 1.388 . S
C1396 C1397 1.366 . S
C1397 C1396 1.366 . S
C1397 C1398 1.414 . S
C1397 C1400 1.499 . S
C1398 H1378 0.950 . S
C1398 C1397 1.414 . S
C1398 C1399 1.374 . S
C1399 H1379 0.950 . S
C1399 C1395 1.385 . S
C1399 C1398 1.374 . S
C1400 C1397 1.499 . S
C1400 C1401 1.373 . S
C1400 C1402 1.389 . S
C1401 H1380 0.950 . S
C1401 C1400 1.373 . S
C1401 C1417 1.377 . S
C1402 C1400 1.389 . S
C1402 C1403 1.524 . S
C1402 C1416 1.377 . S
C1403 C1402 1.524 . S
C1403 C1404 1.397 . S
C1403 C1408 1.363 . S
C1404 H1381 0.950 . S
C1404 C1403 1.397 . S
C1404 C1405 1.334 . S
C1405 H1382 0.950 . S
C1405 C1404 1.334 . S
C1405 C1406 1.287 . S
C1406 C1405 1.287 . S
C1406 C1407 1.524 . S
C1406 H1425 0.913 . S
C1407 H1383 0.950 . S
C1407 C1406 1.524 . S
C1407 C1408 1.415 . S
C1408 H1384 0.950 . S
C1408 C1403 1.363 . S
C1408 C1407 1.415 . S
C1409 H1385 0.951 . S
C1409 C1410 1.366 . S
C1409 C1411 1.388 . S
C1410 C1409 1.366 . S
C1410 C1414 1.385 . S
C1411 H1386 0.951 . S
C1411 C1409 1.388 . S
C1411 C1412 1.366 . S
C1412 C1411 1.366 . S
C1412 C1413 1.414 . S
C1412 C1415 1.499 . S
C1413 H1387 0.950 . S
C1413 C1412 1.414 . S
C1413 C1414 1.374 . S
C1414 H1388 0.950 . S
C1414 C1410 1.385 . S
C1414 C1413 1.374 . S
C1415 C1412 1.499 . S
C1415 C1416 1.373 . S
C1415 C1417 1.389 . S
C1416 H1389 0.950 . S
C1416 C1402 1.377 . S
C1416 C1415 1.373 . S
C1417 C1401 1.377 . S
C1417 C1415 1.389 . S
C1417 C1418 1.524 . S
C1418 C1417 1.524 . S
C1418 C1419 1.397 . S
C1418 C1423 1.363 . S
C1419 H1390 0.950 . S
C1419 C1418 1.397 . S
C1419 C1420 1.334 . S
C1420 H1391 0.950 . S
C1420 C1419 1.334 . S
C1420 C1421 1.287 . S
C1421 C1420 1.287 . S
C1421 C1422 1.524 . S
C1421 H1424 0.999 . S
C1422 H1392 0.950 . S
C1422 C1421 1.524 . S
C1422 C1423 1.415 . S
C1423 H1393 0.950 . S
C1423 C1418 1.363 . S
C1423 C1422 1.415 . S
H1424 C1421 0.999 . S
H1425 C1406 0.913 . S
H1426 C1444 0.951 . S
H1427 C1446 0.951 . S
H1428 C1448 0.950 . S
H1429 C1449 0.950 . S
H1430 C1451 0.950 . S
H1431 C1454 0.950 . S
H1432 C1455 0.950 . S
H1433 C1457 0.950 . S
H1434 C1458 0.950 . S
H1435 C1459 0.951 . S
H1436 C1461 0.951 . S
H1437 C1463 0.950 . S
H1438 C1464 0.950 . S
H1439 C1466 0.950 . S
H1440 C1469 0.950 . S
H1441 C1470 0.950 . S
H1442 C1472 0.950 . S
H1443 C1473 0.950 . S
C1444 H1426 0.951 . S
C1444 C1445 1.366 . S
C1444 C1446 1.388 . S
C1445 C1444 1.366 . S
C1445 C1449 1.385 . S
C1446 H1427 0.951 . S
C1446 C1444 1.388 . S
C1446 C1447 1.366 . S
C1447 C1446 1.366 . S
C1447 C1448 1.414 . S
C1447 C1450 1.499 . S
C1448 H1428 0.950 . S
C1448 C1447 1.414 . S
C1448 C1449 1.374 . S
C1449 H1429 0.950 . S
C1449 C1445 1.385 . S
C1449 C1448 1.374 . S
C1450 C1447 1.499 . S
C1450 C1451 1.373 . S
C1450 C1452 1.389 . S
C1451 H1430 0.950 . S
C1451 C1450 1.373 . S
C1451 C1467 1.377 . S
C1452 C1450 1.389 . S
C1452 C1453 1.524 . S
C1452 C1466 1.377 . S
C1453 C1452 1.524 . S
C1453 C1454 1.397 . S
C1453 C1458 1.363 . S
C1454 H1431 0.950 . S
C1454 C1453 1.397 . S
C1454 C1455 1.334 . S
C1455 H1432 0.950 . S
C1455 C1454 1.334 . S
C1455 C1456 1.287 . S
C1456 C1455 1.287 . S
C1456 C1457 1.524 . S
C1456 H1475 0.913 . S
C1457 H1433 0.950 . S
C1457 C1456 1.524 . S
C1457 C1458 1.415 . S
C1458 H1434 0.950 . S
C1458 C1453 1.363 . S
C1458 C1457 1.415 . S
C1459 H1435 0.951 . S
C1459 C1460 1.366 . S
C1459 C1461 1.388 . S
C1460 C1459 1.366 . S
C1460 C1464 1.385 . S
C1461 H1436 0.951 . S
C1461 C1459 1.388 . S
C1461 C1462 1.366 . S
C1462 C1461 1.366 . S
C1462 C1463 1.414 . S
C1462 C1465 1.499 . S
C1463 H1437 0.950 . S
C1463 C1462 1.414 . S
C1463 C1464 1.374 . S
C1464 H1438 0.950 . S
C1464 C1460 1.385 . S
C1464 C1463 1.374 . S
C1465 C1462 1.499 . S
C1465 C1466 1.373 . S
C1465 C1467 1.389 . S
C1466 H1439 0.950 . S
C1466 C1452 1.377 . S
C1466 C1465 1.373 . S
C1467 C1451 1.377 . S
C1467 C1465 1.389 . S
C1467 C1468 1.524 . S
C1468 C1467 1.524 . S
C1468 C1469 1.397 . S
C1468 C1473 1.363 . S
C1469 H1440 0.950 . S
C1469 C1468 1.397 . S
C1469 C1470 1.334 . S
C1470 H1441 0.950 . S
C1470 C1469 1.334 . S
C1470 C1471 1.287 . S
C1471 C1470 1.287 . S
C1471 C1472 1.524 . S
C1471 H1474 0.999 . S
C1472 H1442 0.950 . S
C1472 C1471 1.524 . S
C1472 C1473 1.415 . S
C1473 H1443 0.950 . S
C1473 C1468 1.363 . S
C1473 C1472 1.415 . S
H1474 C1471 0.999 . S
H1475 C1456 0.913 . S
H1476 C1494 0.951 . S
H1477 C1496 0.951 . S
H1478 C1498 0.950 . S
H1479 C1499 0.950 . S
H1480 C1501 0.950 . S
H1481 C1504 0.950 . S
H1482 C1505 0.950 . S
H1483 C1507 0.950 . S
H1484 C1508 0.950 . S
H1485 C1509 0.951 . S
H1486 C1511 0.951 . S
H1487 C1513 0.950 . S
H1488 C1514 0.950 . S
H1489 C1516 0.950 . S
H1490 C1519 0.950 . S
H1491 C1520 0.950 . S
H1492 C1522 0.950 . S
H1493 C1523 0.950 . S
C1494 H1476 0.951 . S
C1494 C1495 1.366 . S
C1494 C1496 1.388 . S
C1495 C1494 1.366 . S
C1495 C1499 1.385 . S
C1496 H1477 0.951 . S
C1496 C1494 1.388 . S
C1496 C1497 1.366 . S
C1497 C1496 1.366 . S
C1497 C1498 1.414 . S
C1497 C1500 1.499 . S
C1498 H1478 0.950 . S
C1498 C1497 1.414 . S
C1498 C1499 1.374 . S
C1499 H1479 0.950 . S
C1499 C1495 1.385 . S
C1499 C1498 1.374 . S
C1500 C1497 1.499 . S
C1500 C1501 1.373 . S
C1500 C1502 1.389 . S
C1501 H1480 0.950 . S
C1501 C1500 1.373 . S
C1501 C1517 1.377 . S
C1502 C1500 1.389 . S
C1502 C1503 1.524 . S
C1502 C1516 1.377 . S
C1503 C1502 1.524 . S
C1503 C1504 1.397 . S
C1503 C1508 1.363 . S
C1504 H1481 0.950 . S
C1504 C1503 1.397 . S
C1504 C1505 1.334 . S
C1505 H1482 0.950 . S
C1505 C1504 1.334 . S
C1505 C1506 1.287 . S
C1506 C1505 1.287 . S
C1506 C1507 1.524 . S
C1506 H1525 0.913 . S
C1507 H1483 0.950 . S
C1507 C1506 1.524 . S
C1507 C1508 1.415 . S
C1508 H1484 0.950 . S
C1508 C1503 1.363 . S
C1508 C1507 1.415 . S
C1509 H1485 0.951 . S
C1509 C1510 1.366 . S
C1509 C1511 1.388 . S
C1510 C1509 1.366 . S
C1510 C1514 1.385 . S
C1511 H1486 0.951 . S
C1511 C1509 1.388 . S
C1511 C1512 1.366 . S
C1512 C1511 1.366 . S
C1512 C1513 1.414 . S
C1512 C1515 1.499 . S
C1513 H1487 0.950 . S
C1513 C1512 1.414 . S
C1513 C1514 1.374 . S
C1514 H1488 0.950 . S
C1514 C1510 1.385 . S
C1514 C1513 1.374 . S
C1515 C1512 1.499 . S
C1515 C1516 1.373 . S
C1515 C1517 1.389 . S
C1516 H1489 0.950 . S
C1516 C1502 1.377 . S
C1516 C1515 1.373 . S
C1517 C1501 1.377 . S
C1517 C1515 1.389 . S
C1517 C1518 1.524 . S
C1518 C1517 1.524 . S
C1518 C1519 1.397 . S
C1518 C1523 1.363 . S
C1519 H1490 0.950 . S
C1519 C1518 1.397 . S
C1519 C1520 1.334 . S
C1520 H1491 0.950 . S
C1520 C1519 1.334 . S
C1520 C1521 1.287 . S
C1521 C1520 1.287 . S
C1521 C1522 1.524 . S
C1521 H1524 0.999 . S
C1522 H1492 0.950 . S
C1522 C1521 1.524 . S
C1522 C1523 1.415 . S
C1523 H1493 0.950 . S
C1523 C1518 1.363 . S
C1523 C1522 1.415 . S
H1524 C1521 0.999 . S
H1525 C1506 0.913 . S
H1526 C1544 0.951 . S
H1527 C1546 0.951 . S
H1528 C1548 0.950 . S
H1529 C1549 0.950 . S
H1530 C1551 0.950 . S
H1531 C1554 0.950 . S
H1532 C1555 0.950 . S
H1533 C1557 0.950 . S
H1534 C1558 0.950 . S
H1535 C1559 0.951 . S
H1536 C1561 0.951 . S
H1537 C1563 0.950 . S
H1538 C1564 0.950 . S
H1539 C1566 0.950 . S
H1540 C1569 0.950 . S
H1541 C1570 0.950 . S
H1542 C1572 0.950 . S
H1543 C1573 0.950 . S
C1544 H1526 0.951 . S
C1544 C1545 1.366 . S
C1544 C1546 1.388 . S
C1545 C1544 1.366 . S
C1545 C1549 1.385 . S
C1546 H1527 0.951 . S
C1546 C1544 1.388 . S
C1546 C1547 1.366 . S
C1547 C1546 1.366 . S
C1547 C1548 1.414 . S
C1547 C1550 1.499 . S
C1548 H1528 0.950 . S
C1548 C1547 1.414 . S
C1548 C1549 1.374 . S
C1549 H1529 0.950 . S
C1549 C1545 1.385 . S
C1549 C1548 1.374 . S
C1550 C1547 1.499 . S
C1550 C1551 1.373 . S
C1550 C1552 1.389 . S
C1551 H1530 0.950 . S
C1551 C1550 1.373 . S
C1551 C1567 1.377 . S
C1552 C1550 1.389 . S
C1552 C1553 1.524 . S
C1552 C1566 1.377 . S
C1553 C1552 1.524 . S
C1553 C1554 1.397 . S
C1553 C1558 1.363 . S
C1554 H1531 0.950 . S
C1554 C1553 1.397 . S
C1554 C1555 1.334 . S
C1555 H1532 0.950 . S
C1555 C1554 1.334 . S
C1555 C1556 1.287 . S
C1556 C1555 1.287 . S
C1556 C1557 1.524 . S
C1556 H1575 0.913 . S
C1557 H1533 0.950 . S
C1557 C1556 1.524 . S
C1557 C1558 1.415 . S
C1558 H1534 0.950 . S
C1558 C1553 1.363 . S
C1558 C1557 1.415 . S
C1559 H1535 0.951 . S
C1559 C1560 1.366 . S
C1559 C1561 1.388 . S
C1560 C1559 1.366 . S
C1560 C1564 1.385 . S
C1561 H1536 0.951 . S
C1561 C1559 1.388 . S
C1561 C1562 1.366 . S
C1562 C1561 1.366 . S
C1562 C1563 1.414 . S
C1562 C1565 1.499 . S
C1563 H1537 0.950 . S
C1563 C1562 1.414 . S
C1563 C1564 1.374 . S
C1564 H1538 0.950 . S
C1564 C1560 1.385 . S
C1564 C1563 1.374 . S
C1565 C1562 1.499 . S
C1565 C1566 1.373 . S
C1565 C1567 1.389 . S
C1566 H1539 0.950 . S
C1566 C1552 1.377 . S
C1566 C1565 1.373 . S
C1567 C1551 1.377 . S
C1567 C1565 1.389 . S
C1567 C1568 1.524 . S
C1568 C1567 1.524 . S
C1568 C1569 1.397 . S
C1568 C1573 1.363 . S
C1569 H1540 0.950 . S
C1569 C1568 1.397 . S
C1569 C1570 1.334 . S
C1570 H1541 0.950 . S
C1570 C1569 1.334 . S
C1570 C1571 1.287 . S
C1571 C1570 1.287 . S
C1571 C1572 1.524 . S
C1571 H1574 0.999 . S
C1572 H1542 0.950 . S
C1572 C1571 1.524 . S
C1572 C1573 1.415 . S
C1573 H1543 0.950 . S
C1573 C1568 1.363 . S
C1573 C1572 1.415 . S
H1574 C1571 0.999 . S
H1575 C1556 0.913 . S
H1576 C1594 0.951 . S
H1577 C1596 0.951 . S
H1578 C1598 0.950 . S
H1579 C1599 0.950 . S
H1580 C1601 0.950 . S
H1581 C1604 0.950 . S
H1582 C1605 0.950 . S
H1583 C1607 0.950 . S
H1584 C1608 0.950 . S
H1585 C1609 0.951 . S
H1586 C1611 0.951 . S
H1587 C1613 0.950 . S
H1588 C1614 0.950 . S
H1589 C1616 0.950 . S
H1590 C1619 0.950 . S
H1591 C1620 0.950 . S
H1592 C1622 0.950 . S
H1593 C1623 0.950 . S
C1594 H1576 0.951 . S
C1594 C1595 1.366 . S
C1594 C1596 1.388 . S
C1595 C1594 1.366 . S
C1595 C1599 1.385 . S
C1596 H1577 0.951 . S
C1596 C1594 1.388 . S
C1596 C1597 1.366 . S
C1597 C1596 1.366 . S
C1597 C1598 1.414 . S
C1597 C1600 1.499 . S
C1598 H1578 0.950 . S
C1598 C1597 1.414 . S
C1598 C1599 1.374 . S
C1599 H1579 0.950 . S
C1599 C1595 1.385 . S
C1599 C1598 1.374 . S
C1600 C1597 1.499 . S
C1600 C1601 1.373 . S
C1600 C1602 1.389 . S
C1601 H1580 0.950 . S
C1601 C1600 1.373 . S
C1601 C1617 1.377 . S
C1602 C1600 1.389 . S
C1602 C1603 1.524 . S
C1602 C1616 1.377 . S
C1603 C1602 1.524 . S
C1603 C1604 1.397 . S
C1603 C1608 1.363 . S
C1604 H1581 0.950 . S
C1604 C1603 1.397 . S
C1604 C1605 1.334 . S
C1605 H1582 0.950 . S
C1605 C1604 1.334 . S
C1605 C1606 1.287 . S
C1606 C1605 1.287 . S
C1606 C1607 1.524 . S
C1606 H1625 0.913 . S
C1607 H1583 0.950 . S
C1607 C1606 1.524 . S
C1607 C1608 1.415 . S
C1608 H1584 0.950 . S
C1608 C1603 1.363 . S
C1608 C1607 1.415 . S
C1609 H1585 0.951 . S
C1609 C1610 1.366 . S
C1609 C1611 1.388 . S
C1610 C1609 1.366 . S
C1610 C1614 1.385 . S
C1611 H1586 0.951 . S
C1611 C1609 1.388 . S
C1611 C1612 1.366 . S
C1612 C1611 1.366 . S
C1612 C1613 1.414 . S
C1612 C1615 1.499 . S
C1613 H1587 0.950 . S
C1613 C1612 1.414 . S
C1613 C1614 1.374 . S
C1614 H1588 0.950 . S
C1614 C1610 1.385 . S
C1614 C1613 1.374 . S
C1615 C1612 1.499 . S
C1615 C1616 1.373 . S
C1615 C1617 1.389 . S
C1616 H1589 0.950 . S
C1616 C1602 1.377 . S
C1616 C1615 1.373 . S
C1617 C1601 1.377 . S
C1617 C1615 1.389 . S
C1617 C1618 1.524 . S
C1618 C1617 1.524 . S
C1618 C1619 1.397 . S
C1618 C1623 1.363 . S
C1619 H1590 0.950 . S
C1619 C1618 1.397 . S
C1619 C1620 1.334 . S
C1620 H1591 0.950 . S
C1620 C1619 1.334 . S
C1620 C1621 1.287 . S
C1621 C1620 1.287 . S
C1621 C1622 1.524 . S
C1621 H1624 0.999 . S
C1622 H1592 0.950 . S
C1622 C1621 1.524 . S
C1622 C1623 1.415 . S
C1623 H1593 0.950 . S
C1623 C1618 1.363 . S
C1623 C1622 1.415 . S
H1624 C1621 0.999 . S
H1625 C1606 0.913 . S
H1626 C1644 0.951 . S
H1627 C1646 0.951 . S
H1628 C1648 0.950 . S
H1629 C1649 0.950 . S
H1630 C1651 0.950 . S
H1631 C1654 0.950 . S
H1632 C1655 0.950 . S
H1633 C1657 0.950 . S
H1634 C1658 0.950 . S
H1635 C1659 0.951 . S
H1636 C1661 0.951 . S
H1637 C1663 0.950 . S
H1638 C1664 0.950 . S
H1639 C1666 0.950 . S
H1640 C1669 0.950 . S
H1641 C1670 0.950 . S
H1642 C1672 0.950 . S
H1643 C1673 0.950 . S
C1644 H1626 0.951 . S
C1644 C1645 1.366 . S
C1644 C1646 1.388 . S
C1645 C1644 1.366 . S
C1645 C1649 1.385 . S
C1646 H1627 0.951 . S
C1646 C1644 1.388 . S
C1646 C1647 1.366 . S
C1647 C1646 1.366 . S
C1647 C1648 1.414 . S
C1647 C1650 1.499 . S
C1648 H1628 0.950 . S
C1648 C1647 1.414 . S
C1648 C1649 1.374 . S
C1649 H1629 0.950 . S
C1649 C1645 1.385 . S
C1649 C1648 1.374 . S
C1650 C1647 1.499 . S
C1650 C1651 1.373 . S
C1650 C1652 1.389 . S
C1651 H1630 0.950 . S
C1651 C1650 1.373 . S
C1651 C1667 1.377 . S
C1652 C1650 1.389 . S
C1652 C1653 1.524 . S
C1652 C1666 1.377 . S
C1653 C1652 1.524 . S
C1653 C1654 1.397 . S
C1653 C1658 1.363 . S
C1654 H1631 0.950 . S
C1654 C1653 1.397 . S
C1654 C1655 1.334 . S
C1655 H1632 0.950 . S
C1655 C1654 1.334 . S
C1655 C1656 1.287 . S
C1656 C1655 1.287 . S
C1656 C1657 1.524 . S
C1656 H1675 0.913 . S
C1657 H1633 0.950 . S
C1657 C1656 1.524 . S
C1657 C1658 1.415 . S
C1658 H1634 0.950 . S
C1658 C1653 1.363 . S
C1658 C1657 1.415 . S
C1659 H1635 0.951 . S
C1659 C1660 1.366 . S
C1659 C1661 1.388 . S
C1660 C1659 1.366 . S
C1660 C1664 1.385 . S
C1661 H1636 0.951 . S
C1661 C1659 1.388 . S
C1661 C1662 1.366 . S
C1662 C1661 1.366 . S
C1662 C1663 1.414 . S
C1662 C1665 1.499 . S
C1663 H1637 0.950 . S
C1663 C1662 1.414 . S
C1663 C1664 1.374 . S
C1664 H1638 0.950 . S
C1664 C1660 1.385 . S
C1664 C1663 1.374 . S
C1665 C1662 1.499 . S
C1665 C1666 1.373 . S
C1665 C1667 1.389 . S
C1666 H1639 0.950 . S
C1666 C1652 1.377 . S
C1666 C1665 1.373 . S
C1667 C1651 1.377 . S
C1667 C1665 1.389 . S
C1667 C1668 1.524 . S
C1668 C1667 1.524 . S
C1668 C1669 1.397 . S
C1668 C1673 1.363 . S
C1669 H1640 0.950 . S
C1669 C1668 1.397 . S
C1669 C1670 1.334 . S
C1670 H1641 0.950 . S
C1670 C1669 1.334 . S
C1670 C1671 1.287 . S
C1671 C1670 1.287 . S
C1671 C1672 1.524 . S
C1671 H1674 0.999 . S
C1672 H1642 0.950 . S
C1672 C1671 1.524 . S
C1672 C1673 1.415 . S
C1673 H1643 0.950 . S
C1673 C1668 1.363 . S
C1673 C1672 1.415 . S
H1674 C1671 0.999 . S
H1675 C1656 0.913 . S
H1676 C1694 0.951 . S
H1677 C1696 0.951 . S
H1678 C1698 0.950 . S
H1679 C1699 0.950 . S
H1680 C1701 0.950 . S
H1681 C1704 0.950 . S
H1682 C1705 0.950 . S
H1683 C1707 0.950 . S
H1684 C1708 0.950 . S
H1685 C1709 0.951 . S
H1686 C1711 0.951 . S
H1687 C1713 0.950 . S
H1688 C1714 0.950 . S
H1689 C1716 0.950 . S
H1690 C1719 0.950 . S
H1691 C1720 0.950 . S
H1692 C1722 0.950 . S
H1693 C1723 0.950 . S
C1694 H1676 0.951 . S
C1694 C1695 1.366 . S
C1694 C1696 1.388 . S
C1695 C1694 1.366 . S
C1695 C1699 1.385 . S
C1696 H1677 0.951 . S
C1696 C1694 1.388 . S
C1696 C1697 1.366 . S
C1697 C1696 1.366 . S
C1697 C1698 1.414 . S
C1697 C1700 1.499 . S
C1698 H1678 0.950 . S
C1698 C1697 1.414 . S
C1698 C1699 1.374 . S
C1699 H1679 0.950 . S
C1699 C1695 1.385 . S
C1699 C1698 1.374 . S
C1700 C1697 1.499 . S
C1700 C1701 1.373 . S
C1700 C1702 1.389 . S
C1701 H1680 0.950 . S
C1701 C1700 1.373 . S
C1701 C1717 1.377 . S
C1702 C1700 1.389 . S
C1702 C1703 1.524 . S
C1702 C1716 1.377 . S
C1703 C1702 1.524 . S
C1703 C1704 1.397 . S
C1703 C1708 1.363 . S
C1704 H1681 0.950 . S
C1704 C1703 1.397 . S
C1704 C1705 1.334 . S
C1705 H1682 0.950 . S
C1705 C1704 1.334 . S
C1705 C1706 1.287 . S
C1706 C1705 1.287 . S
C1706 C1707 1.524 . S
C1706 H1725 0.913 . S
C1707 H1683 0.950 . S
C1707 C1706 1.524 . S
C1707 C1708 1.415 . S
C1708 H1684 0.950 . S
C1708 C1703 1.363 . S
C1708 C1707 1.415 . S
C1709 H1685 0.951 . S
C1709 C1710 1.366 . S
C1709 C1711 1.388 . S
C1710 C1709 1.366 . S
C1710 C1714 1.385 . S
C1711 H1686 0.951 . S
C1711 C1709 1.388 . S
C1711 C1712 1.366 . S
C1712 C1711 1.366 . S
C1712 C1713 1.414 . S
C1712 C1715 1.499 . S
C1713 H1687 0.950 . S
C1713 C1712 1.414 . S
C1713 C1714 1.374 . S
C1714 H1688 0.950 . S
C1714 C1710 1.385 . S
C1714 C1713 1.374 . S
C1715 C1712 1.499 . S
C1715 C1716 1.373 . S
C1715 C1717 1.389 . S
C1716 H1689 0.950 . S
C1716 C1702 1.377 . S
C1716 C1715 1.373 . S
C1717 C1701 1.377 . S
C1717 C1715 1.389 . S
C1717 C1718 1.524 . S
C1718 C1717 1.524 . S
C1718 C1719 1.397 . S
C1718 C1723 1.363 . S
C1719 H1690 0.950 . S
C1719 C1718 1.397 . S
C1719 C1720 1.334 . S
C1720 H1691 0.950 . S
C1720 C1719 1.334 . S
C1720 C1721 1.287 . S
C1721 C1720 1.287 . S
C1721 C1722 1.524 . S
C1721 H1724 0.999 . S
C1722 H1692 0.950 . S
C1722 C1721 1.524 . S
C1722 C1723 1.415 . S
C1723 H1693 0.950 . S
C1723 C1718 1.363 . S
C1723 C1722 1.415 . S
H1724 C1721 0.999 . S
H1725 C1706 0.913 . S
H1726 C1744 0.951 . S
H1727 C1746 0.951 . S
H1728 C1748 0.950 . S
H1729 C1749 0.950 . S
H1730 C1751 0.950 . S
H1731 C1754 0.950 . S
H1732 C1755 0.950 . S
H1733 C1757 0.950 . S
H1734 C1758 0.950 . S
H1735 C1759 0.951 . S
H1736 C1761 0.951 . S
H1737 C1763 0.950 . S
H1738 C1764 0.950 . S
H1739 C1766 0.950 . S
H1740 C1769 0.950 . S
H1741 C1770 0.950 . S
H1742 C1772 0.950 . S
H1743 C1773 0.950 . S
C1744 H1726 0.951 . S
C1744 C1745 1.366 . S
C1744 C1746 1.388 . S
C1745 C1744 1.366 . S
C1745 C1749 1.385 . S
C1746 H1727 0.951 . S
C1746 C1744 1.388 . S
C1746 C1747 1.366 . S
C1747 C1746 1.366 . S
C1747 C1748 1.414 . S
C1747 C1750 1.499 . S
C1748 H1728 0.950 . S
C1748 C1747 1.414 . S
C1748 C1749 1.374 . S
C1749 H1729 0.950 . S
C1749 C1745 1.385 . S
C1749 C1748 1.374 . S
C1750 C1747 1.499 . S
C1750 C1751 1.373 . S
C1750 C1752 1.389 . S
C1751 H1730 0.950 . S
C1751 C1750 1.373 . S
C1751 C1767 1.377 . S
C1752 C1750 1.389 . S
C1752 C1753 1.524 . S
C1752 C1766 1.377 . S
C1753 C1752 1.524 . S
C1753 C1754 1.397 . S
C1753 C1758 1.363 . S
C1754 H1731 0.950 . S
C1754 C1753 1.397 . S
C1754 C1755 1.334 . S
C1755 H1732 0.950 . S
C1755 C1754 1.334 . S
C1755 C1756 1.287 . S
C1756 C1755 1.287 . S
C1756 C1757 1.524 . S
C1756 H1775 0.913 . S
C1757 H1733 0.950 . S
C1757 C1756 1.524 . S
C1757 C1758 1.415 . S
C1758 H1734 0.950 . S
C1758 C1753 1.363 . S
C1758 C1757 1.415 . S
C1759 H1735 0.951 . S
C1759 C1760 1.366 . S
C1759 C1761 1.388 . S
C1760 C1759 1.366 . S
C1760 C1764 1.385 . S
C1761 H1736 0.951 . S
C1761 C1759 1.388 . S
C1761 C1762 1.366 . S
C1762 C1761 1.366 . S
C1762 C1763 1.414 . S
C1762 C1765 1.499 . S
C1763 H1737 0.950 . S
C1763 C1762 1.414 . S
C1763 C1764 1.374 . S
C1764 H1738 0.950 . S
C1764 C1760 1.385 . S
C1764 C1763 1.374 . S
C1765 C1762 1.499 . S
C1765 C1766 1.373 . S
C1765 C1767 1.389 . S
C1766 H1739 0.950 . S
C1766 C1752 1.377 . S
C1766 C1765 1.373 . S
C1767 C1751 1.377 . S
C1767 C1765 1.389 . S
C1767 C1768 1.524 . S
C1768 C1767 1.524 . S
C1768 C1769 1.397 . S
C1768 C1773 1.363 . S
C1769 H1740 0.950 . S
C1769 C1768 1.397 . S
C1769 C1770 1.334 . S
C1770 H1741 0.950 . S
C1770 C1769 1.334 . S
C1770 C1771 1.287 . S
C1771 C1770 1.287 . S
C1771 C1772 1.524 . S
C1771 H1774 0.999 . S
C1772 H1742 0.950 . S
C1772 C1771 1.524 . S
C1772 C1773 1.415 . S
C1773 H1743 0.950 . S
C1773 C1768 1.363 . S
C1773 C1772 1.415 . S
H1774 C1771 0.999 . S
H1775 C1756 0.913 . S
H1776 C1794 0.951 . S
H1777 C1796 0.951 . S
H1778 C1798 0.950 . S
H1779 C1799 0.950 . S
H1780 C1801 0.950 . S
H1781 C1804 0.950 . S
H1782 C1805 0.950 . S
H1783 C1807 0.950 . S
H1784 C1808 0.950 . S
H1785 C1809 0.951 . S
H1786 C1811 0.951 . S
H1787 C1813 0.950 . S
H1788 C1814 0.950 . S
H1789 C1816 0.950 . S
H1790 C1819 0.950 . S
H1791 C1820 0.950 . S
H1792 C1822 0.950 . S
H1793 C1823 0.950 . S
C1794 H1776 0.951 . S
C1794 C1795 1.366 . S
C1794 C1796 1.388 . S
C1795 C1794 1.366 . S
C1795 C1799 1.385 . S
C1796 H1777 0.951 . S
C1796 C1794 1.388 . S
C1796 C1797 1.366 . S
C1797 C1796 1.366 . S
C1797 C1798 1.414 . S
C1797 C1800 1.499 . S
C1798 H1778 0.950 . S
C1798 C1797 1.414 . S
C1798 C1799 1.374 . S
C1799 H1779 0.950 . S
C1799 C1795 1.385 . S
C1799 C1798 1.374 . S
C1800 C1797 1.499 . S
C1800 C1801 1.373 . S
C1800 C1802 1.389 . S
C1801 H1780 0.950 . S
C1801 C1800 1.373 . S
C1801 C1817 1.377 . S
C1802 C1800 1.389 . S
C1802 C1803 1.524 . S
C1802 C1816 1.377 . S
C1803 C1802 1.524 . S
C1803 C1804 1.397 . S
C1803 C1808 1.363 . S
C1804 H1781 0.950 . S
C1804 C1803 1.397 . S
C1804 C1805 1.334 . S
C1805 H1782 0.950 . S
C1805 C1804 1.334 . S
C1805 C1806 1.287 . S
C1806 C1805 1.287 . S
C1806 C1807 1.524 . S
C1806 H1825 0.913 . S
C1807 H1783 0.950 . S
C1807 C1806 1.524 . S
C1807 C1808 1.415 . S
C1808 H1784 0.950 . S
C1808 C1803 1.363 . S
C1808 C1807 1.415 . S
C1809 H1785 0.951 . S
C1809 C1810 1.366 . S
C1809 C1811 1.388 . S
C1810 C1809 1.366 . S
C1810 C1814 1.385 . S
C1811 H1786 0.951 . S
C1811 C1809 1.388 . S
C1811 C1812 1.366 . S
C1812 C1811 1.366 . S
C1812 C1813 1.414 . S
C1812 C1815 1.499 . S
C1813 H1787 0.950 . S
C1813 C1812 1.414 . S
C1813 C1814 1.374 . S
C1814 H1788 0.950 . S
C1814 C1810 1.385 . S
C1814 C1813 1.374 . S
C1815 C1812 1.499 . S
C1815 C1816 1.373 . S
C1815 C1817 1.389 . S
C1816 H1789 0.950 . S
C1816 C1802 1.377 . S
C1816 C1815 1.373 . S
C1817 C1801 1.377 . S
C1817 C1815 1.389 . S
C1817 C1818 1.524 . S
C1818 C1817 1.524 . S
C1818 C1819 1.397 . S
C1818 C1823 1.363 . S
C1819 H1790 0.950 . S
C1819 C1818 1.397 . S
C1819 C1820 1.334 . S
C1820 H1791 0.950 . S
C1820 C1819 1.334 . S
C1820 C1821 1.287 . S
C1821 C1820 1.287 . S
C1821 C1822 1.524 . S
C1821 H1824 0.999 . S
C1822 H1792 0.950 . S
C1822 C1821 1.524 . S
C1822 C1823 1.415 . S
C1823 H1793 0.950 . S
C1823 C1818 1.363 . S
C1823 C1822 1.415 . S
H1824 C1821 0.999 . S
H1825 C1806 0.913 . S
H1826 C1844 0.951 . S
H1827 C1846 0.951 . S
H1828 C1848 0.950 . S
H1829 C1849 0.950 . S
H1830 C1851 0.950 . S
H1831 C1854 0.950 . S
H1832 C1855 0.950 . S
H1833 C1857 0.950 . S
H1834 C1858 0.950 . S
H1835 C1859 0.951 . S
H1836 C1861 0.951 . S
H1837 C1863 0.950 . S
H1838 C1864 0.950 . S
H1839 C1866 0.950 . S
H1840 C1869 0.950 . S
H1841 C1870 0.950 . S
H1842 C1872 0.950 . S
H1843 C1873 0.950 . S
C1844 H1826 0.951 . S
C1844 C1845 1.366 . S
C1844 C1846 1.388 . S
C1845 C1844 1.366 . S
C1845 C1849 1.385 . S
C1846 H1827 0.951 . S
C1846 C1844 1.388 . S
C1846 C1847 1.366 . S
C1847 C1846 1.366 . S
C1847 C1848 1.414 . S
C1847 C1850 1.499 . S
C1848 H1828 0.950 . S
C1848 C1847 1.414 . S
C1848 C1849 1.374 . S
C1849 H1829 0.950 . S
C1849 C1845 1.385 . S
C1849 C1848 1.374 . S
C1850 C1847 1.499 . S
C1850 C1851 1.373 . S
C1850 C1852 1.389 . S
C1851 H1830 0.950 . S
C1851 C1850 1.373 . S
C1851 C1867 1.377 . S
C1852 C1850 1.389 . S
C1852 C1853 1.524 . S
C1852 C1866 1.377 . S
C1853 C1852 1.524 . S
C1853 C1854 1.397 . S
C1853 C1858 1.363 . S
C1854 H1831 0.950 . S
C1854 C1853 1.397 . S
C1854 C1855 1.334 . S
C1855 H1832 0.950 . S
C1855 C1854 1.334 . S
C1855 C1856 1.287 . S
C1856 C1855 1.287 . S
C1856 C1857 1.524 . S
C1856 H1875 0.913 . S
C1857 H1833 0.950 . S
C1857 C1856 1.524 . S
C1857 C1858 1.415 . S
C1858 H1834 0.950 . S
C1858 C1853 1.363 . S
C1858 C1857 1.415 . S
C1859 H1835 0.951 . S
C1859 C1860 1.366 . S
C1859 C1861 1.388 . S
C1860 C1859 1.366 . S
C1860 C1864 1.385 . S
C1861 H1836 0.951 . S
C1861 C1859 1.388 . S
C1861 C1862 1.366 . S
C1862 C1861 1.366 . S
C1862 C1863 1.414 . S
C1862 C1865 1.499 . S
C1863 H1837 0.950 . S
C1863 C1862 1.414 . S
C1863 C1864 1.374 . S
C1864 H1838 0.950 . S
C1864 C1860 1.385 . S
C1864 C1863 1.374 . S
C1865 C1862 1.499 . S
C1865 C1866 1.373 . S
C1865 C1867 1.389 . S
C1866 H1839 0.950 . S
C1866 C1852 1.377 . S
C1866 C1865 1.373 . S
C1867 C1851 1.377 . S
C1867 C1865 1.389 . S
C1867 C1868 1.524 . S
C1868 C1867 1.524 . S
C1868 C1869 1.397 . S
C1868 C1873 1.363 . S
C1869 H1840 0.950 . S
C1869 C1868 1.397 . S
C1869 C1870 1.334 . S
C1870 H1841 0.950 . S
C1870 C1869 1.334 . S
C1870 C1871 1.287 . S
C1871 C1870 1.287 . S
C1871 C1872 1.524 . S
C1871 H1874 0.999 . S
C1872 H1842 0.950 . S
C1872 C1871 1.524 . S
C1872 C1873 1.415 . S
C1873 H1843 0.950 . S
C1873 C1868 1.363 . S
C1873 C1872 1.415 . S
H1874 C1871 0.999 . S
H1875 C1856 0.913 . S
H1876 C1894 0.951 . S
H1877 C1896 0.951 . S
H1878 C1898 0.950 . S
H1879 C1899 0.950 . S
H1880 C1901 0.950 . S
H1881 C1904 0.950 . S
H1882 C1905 0.950 . S
H1883 C1907 0.950 . S
H1884 C1908 0.950 . S
H1885 C1909 0.951 . S
H1886 C1911 0.951 . S
H1887 C1913 0.950 . S
H1888 C1914 0.950 . S
H1889 C1916 0.950 . S
H1890 C1919 0.950 . S
H1891 C1920 0.950 . S
H1892 C1922 0.950 . S
H1893 C1923 0.950 . S
C1894 H1876 0.951 . S
C1894 C1895 1.366 . S
C1894 C1896 1.388 . S
C1895 C1894 1.366 . S
C1895 C1899 1.385 . S
C1896 H1877 0.951 . S
C1896 C1894 1.388 . S
C1896 C1897 1.366 . S
C1897 C1896 1.366 . S
C1897 C1898 1.414 . S
C1897 C1900 1.499 . S
C1898 H1878 0.950 . S
C1898 C1897 1.414 . S
C1898 C1899 1.374 . S
C1899 H1879 0.950 . S
C1899 C1895 1.385 . S
C1899 C1898 1.374 . S
C1900 C1897 1.499 . S
C1900 C1901 1.373 . S
C1900 C1902 1.389 . S
C1901 H1880 0.950 . S
C1901 C1900 1.373 . S
C1901 C1917 1.377 . S
C1902 C1900 1.389 . S
C1902 C1903 1.524 . S
C1902 C1916 1.377 . S
C1903 C1902 1.524 . S
C1903 C1904 1.397 . S
C1903 C1908 1.363 . S
C1904 H1881 0.950 . S
C1904 C1903 1.397 . S
C1904 C1905 1.334 . S
C1905 H1882 0.950 . S
C1905 C1904 1.334 . S
C1905 C1906 1.287 . S
C1906 C1905 1.287 . S
C1906 C1907 1.524 . S
C1906 H1925 0.913 . S
C1907 H1883 0.950 . S
C1907 C1906 1.524 . S
C1907 C1908 1.415 . S
C1908 H1884 0.950 . S
C1908 C1903 1.363 . S
C1908 C1907 1.415 . S
C1909 H1885 0.951 . S
C1909 C1910 1.366 . S
C1909 C1911 1.388 . S
C1910 C1909 1.366 . S
C1910 C1914 1.385 . S
C1911 H1886 0.951 . S
C1911 C1909 1.388 . S
C1911 C1912 1.366 . S
C1912 C1911 1.366 . S
C1912 C1913 1.414 . S
C1912 C1915 1.499 . S
C1913 H1887 0.950 . S
C1913 C1912 1.414 . S
C1913 C1914 1.374 . S
C1914 H1888 0.950 . S
C1914 C1910 1.385 . S
C1914 C1913 1.374 . S
C1915 C1912 1.499 . S
C1915 C1916 1.373 . S
C1915 C1917 1.389 . S
C1916 H1889 0.950 . S
C1916 C1902 1.377 . S
C1916 C1915 1.373 . S
C1917 C1901 1.377 . S
C1917 C1915 1.389 . S
C1917 C1918 1.524 . S
C1918 C1917 1.524 . S
C1918 C1919 1.397 . S
C1918 C1923 1.363 . S
C1919 H1890 0.950 . S
C1919 C1918 1.397 . S
C1919 C1920 1.334 . S
C1920 H1891 0.950 . S
C1920 C1919 1.334 . S
C1920 C1921 1.287 . S
C1921 C1920 1.287 . S
C1921 C1922 1.524 . S
C1921 H1924 0.999 . S
C1922 H1892 0.950 . S
C1922 C1921 1.524 . S
C1922 C1923 1.415 . S
C1923 H1893 0.950 . S
C1923 C1918 1.363 . S
C1923 C1922 1.415 . S
H1924 C1921 0.999 . S
H1925 C1906 0.913 . S
H1926 C1944 0.951 . S
H1927 C1946 0.951 . S
H1928 C1948 0.950 . S
H1929 C1949 0.950 . S
H1930 C1951 0.950 . S
H1931 C1954 0.950 . S
H1932 C1955 0.950 . S
H1933 C1957 0.950 . S
H1934 C1958 0.950 . S
H1935 C1959 0.951 . S
H1936 C1961 0.951 . S
H1937 C1963 0.950 . S
H1938 C1964 0.950 . S
H1939 C1966 0.950 . S
H1940 C1969 0.950 . S
H1941 C1970 0.950 . S
H1942 C1972 0.950 . S
H1943 C1973 0.950 . S
C1944 H1926 0.951 . S
C1944 C1945 1.366 . S
C1944 C1946 1.388 . S
C1945 C1944 1.366 . S
C1945 C1949 1.385 . S
C1946 H1927 0.951 . S
C1946 C1944 1.388 . S
C1946 C1947 1.366 . S
C1947 C1946 1.366 . S
C1947 C1948 1.414 . S
C1947 C1950 1.499 . S
C1948 H1928 0.950 . S
C1948 C1947 1.414 . S
C1948 C1949 1.374 . S
C1949 H1929 0.950 . S
C1949 C1945 1.385 . S
C1949 C1948 1.374 . S
C1950 C1947 1.499 . S
C1950 C1951 1.373 . S
C1950 C1952 1.389 . S
C1951 H1930 0.950 . S
C1951 C1950 1.373 . S
C1951 C1967 1.377 . S
C1952 C1950 1.389 . S
C1952 C1953 1.524 . S
C1952 C1966 1.377 . S
C1953 C1952 1.524 . S
C1953 C1954 1.397 . S
C1953 C1958 1.363 . S
C1954 H1931 0.950 . S
C1954 C1953 1.397 . S
C1954 C1955 1.334 . S
C1955 H1932 0.950 . S
C1955 C1954 1.334 . S
C1955 C1956 1.287 . S
C1956 C1955 1.287 . S
C1956 C1957 1.524 . S
C1956 H1975 0.913 . S
C1957 H1933 0.950 . S
C1957 C1956 1.524 . S
C1957 C1958 1.415 . S
C1958 H1934 0.950 . S
C1958 C1953 1.363 . S
C1958 C1957 1.415 . S
C1959 H1935 0.951 . S
C1959 C1960 1.366 . S
C1959 C1961 1.388 . S
C1960 C1959 1.366 . S
C1960 C1964 1.385 . S
C1961 H1936 0.951 . S
C1961 C1959 1.388 . S
C1961 C1962 1.366 . S
C1962 C1961 1.366 . S
C1962 C1963 1.414 . S
C1962 C1965 1.499 . S
C1963 H1937 0.950 . S
C1963 C1962 1.414 . S
C1963 C1964 1.374 . S
C1964 H1938 0.950 . S
C1964 C1960 1.385 . S
C1964 C1963 1.374 . S
C1965 C1962 1.499 . S
C1965 C1966 1.373 . S
C1965 C1967 1.389 . S
C1966 H1939 0.950 . S
C1966 C1952 1.377 . S
C1966 C1965 1.373 . S
C1967 C1951 1.377 . S
C1967 C1965 1.389 . S
C1967 C1968 1.524 . S
C1968 C1967 1.524 . S
C1968 C1969 1.397 . S
C1968 C1973 1.363 . S
C1969 H1940 0.950 . S
C1969 C1968 1.397 . S
C1969 C1970 1.334 . S
C1970 H1941 0.950 . S
C1970 C1969 1.334 . S
C1970 C1971 1.287 . S
C1971 C1970 1.287 . S
C1971 C1972 1.524 . S
C1971 H1974 0.999 . S
C1972 H1942 0.950 . S
C1972 C1971 1.524 . S
C1972 C1973 1.415 . S
C1973 H1943 0.950 . S
C1973 C1968 1.363 . S
C1973 C1972 1.415 . S
H1974 C1971 0.999 . S
H1975 C1956 0.913 . S
H1976 C1994 0.951 . S
H1977 C1996 0.951 . S
H1978 C1998 0.950 . S
H1979 C1999 0.950 . S
H1980 C2001 0.950 . S
H1981 C2004 0.950 . S
H1982 C2005 0.950 . S
H1983 C2007 0.950 . S
H1984 C2008 0.950 . S
H1985 C2009 0.951 . S
H1986 C2011 0.951 . S
H1987 C2013 0.950 . S
H1988 C2014 0.950 . S
H1989 C2016 0.950 . S
H1990 C2019 0.950 . S
H1991 C2020 0.950 . S
H1992 C2022 0.950 . S
H1993 C2023 0.950 . S
C1994 H1976 0.951 . S
C1994 C1995 1.366 . S
C1994 C1996 1.388 . S
C1995 C1994 1.366 . S
C1995 C1999 1.385 . S
C1996 H1977 0.951 . S
C1996 C1994 1.388 . S
C1996 C1997 1.366 . S
C1997 C1996 1.366 . S
C1997 C1998 1.414 . S
C1997 C2000 1.499 . S
C1998 H1978 0.950 . S
C1998 C1997 1.414 . S
C1998 C1999 1.374 . S
C1999 H1979 0.950 . S
C1999 C1995 1.385 . S
C1999 C1998 1.374 . S
C2000 C1997 1.499 . S
C2000 C2001 1.373 . S
C2000 C2002 1.389 . S
C2001 H1980 0.950 . S
C2001 C2000 1.373 . S
C2001 C2017 1.377 . S
C2002 C2000 1.389 . S
C2002 C2003 1.524 . S
C2002 C2016 1.377 . S
C2003 C2002 1.524 . S
C2003 C2004 1.397 . S
C2003 C2008 1.363 . S
C2004 H1981 0.950 . S
C2004 C2003 1.397 . S
C2004 C2005 1.334 . S
C2005 H1982 0.950 . S
C2005 C2004 1.334 . S
C2005 C2006 1.287 . S
C2006 C2005 1.287 . S
C2006 C2007 1.524 . S
C2006 H2025 0.913 . S
C2007 H1983 0.950 . S
C2007 C2006 1.524 . S
C2007 C2008 1.415 . S
C2008 H1984 0.950 . S
C2008 C2003 1.363 . S
C2008 C2007 1.415 . S
C2009 H1985 0.951 . S
C2009 C2010 1.366 . S
C2009 C2011 1.388 . S
C2010 C2009 1.366 . S
C2010 C2014 1.385 . S
C2011 H1986 0.951 . S
C2011 C2009 1.388 . S
C2011 C2012 1.366 . S
C2012 C2011 1.366 . S
C2012 C2013 1.414 . S
C2012 C2015 1.499 . S
C2013 H1987 0.950 . S
C2013 C2012 1.414 . S
C2013 C2014 1.374 . S
C2014 H1988 0.950 . S
C2014 C2010 1.385 . S
C2014 C2013 1.374 . S
C2015 C2012 1.499 . S
C2015 C2016 1.373 . S
C2015 C2017 1.389 . S
C2016 H1989 0.950 . S
C2016 C2002 1.377 . S
C2016 C2015 1.373 . S
C2017 C2001 1.377 . S
C2017 C2015 1.389 . S
C2017 C2018 1.524 . S
C2018 C2017 1.524 . S
C2018 C2019 1.397 . S
C2018 C2023 1.363 . S
C2019 H1990 0.950 . S
C2019 C2018 1.397 . S
C2019 C2020 1.334 . S
C2020 H1991 0.950 . S
C2020 C2019 1.334 . S
C2020 C2021 1.287 . S
C2021 C2020 1.287 . S
C2021 C2022 1.524 . S
C2021 H2024 0.999 . S
C2022 H1992 0.950 . S
C2022 C2021 1.524 . S
C2022 C2023 1.415 . S
C2023 H1993 0.950 . S
C2023 C2018 1.363 . S
C2023 C2022 1.415 . S
H2024 C2021 0.999 . S
H2025 C2006 0.913 . S
H2026 C2044 0.951 . S
H2027 C2046 0.951 . S
H2028 C2048 0.950 . S
H2029 C2049 0.950 . S
H2030 C2051 0.950 . S
H2031 C2054 0.950 . S
H2032 C2055 0.950 . S
H2033 C2057 0.950 . S
H2034 C2058 0.950 . S
H2035 C2059 0.951 . S
H2036 C2061 0.951 . S
H2037 C2063 0.950 . S
H2038 C2064 0.950 . S
H2039 C2066 0.950 . S
H2040 C2069 0.950 . S
H2041 C2070 0.950 . S
H2042 C2072 0.950 . S
H2043 C2073 0.950 . S
C2044 H2026 0.951 . S
C2044 C2045 1.366 . S
C2044 C2046 1.388 . S
C2045 C2044 1.366 . S
C2045 C2049 1.385 . S
C2046 H2027 0.951 . S
C2046 C2044 1.388 . S
C2046 C2047 1.366 . S
C2047 C2046 1.366 . S
C2047 C2048 1.414 . S
C2047 C2050 1.499 . S
C2048 H2028 0.950 . S
C2048 C2047 1.414 . S
C2048 C2049 1.374 . S
C2049 H2029 0.950 . S
C2049 C2045 1.385 . S
C2049 C2048 1.374 . S
C2050 C2047 1.499 . S
C2050 C2051 1.373 . S
C2050 C2052 1.389 . S
C2051 H2030 0.950 . S
C2051 C2050 1.373 . S
C2051 C2067 1.377 . S
C2052 C2050 1.389 . S
C2052 C2053 1.524 . S
C2052 C2066 1.377 . S
C2053 C2052 1.524 . S
C2053 C2054 1.397 . S
C2053 C2058 1.363 . S
C2054 H2031 0.950 . S
C2054 C2053 1.397 . S
C2054 C2055 1.334 . S
C2055 H2032 0.950 . S
C2055 C2054 1.334 . S
C2055 C2056 1.287 . S
C2056 C2055 1.287 . S
C2056 C2057 1.524 . S
C2056 H2075 0.913 . S
C2057 H2033 0.950 . S
C2057 C2056 1.524 . S
C2057 C2058 1.415 . S
C2058 H2034 0.950 . S
C2058 C2053 1.363 . S
C2058 C2057 1.415 . S
C2059 H2035 0.951 . S
C2059 C2060 1.366 . S
C2059 C2061 1.388 . S
C2060 C2059 1.366 . S
C2060 C2064 1.385 . S
C2061 H2036 0.951 . S
C2061 C2059 1.388 . S
C2061 C2062 1.366 . S
C2062 C2061 1.366 . S
C2062 C2063 1.414 . S
C2062 C2065 1.499 . S
C2063 H2037 0.950 . S
C2063 C2062 1.414 . S
C2063 C2064 1.374 . S
C2064 H2038 0.950 . S
C2064 C2060 1.385 . S
C2064 C2063 1.374 . S
C2065 C2062 1.499 . S
C2065 C2066 1.373 . S
C2065 C2067 1.389 . S
C2066 H2039 0.950 . S
C2066 C2052 1.377 . S
C2066 C2065 1.373 . S
C2067 C2051 1.377 . S
C2067 C2065 1.389 . S
C2067 C2068 1.524 . S
C2068 C2067 1.524 . S
C2068 C2069 1.397 . S
C2068 C2073 1.363 . S
C2069 H2040 0.950 . S
C2069 C2068 1.397 . S
C2069 C2070 1.334 . S
C2070 H2041 0.950 . S
C2070 C2069 1.334 . S
C2070 C2071 1.287 . S
C2071 C2070 1.287 . S
C2071 C2072 1.524 . S
C2071 H2074 0.999 . S
C2072 H2042 0.950 . S
C2072 C2071 1.524 . S
C2072 C2073 1.415 . S
C2073 H2043 0.950 . S
C2073 C2068 1.363 . S
C2073 C2072 1.415 . S
H2074 C2071 0.999 . S
H2075 C2056 0.913 . S
H2076 C2094 0.951 . S
H2077 C2096 0.951 . S
H2078 C2098 0.950 . S
H2079 C2099 0.950 . S
H2080 C2101 0.950 . S
H2081 C2104 0.950 . S
H2082 C2105 0.950 . S
H2083 C2107 0.950 . S
H2084 C2108 0.950 . S
H2085 C2109 0.951 . S
H2086 C2111 0.951 . S
H2087 C2113 0.950 . S
H2088 C2114 0.950 . S
H2089 C2116 0.950 . S
H2090 C2119 0.950 . S
H2091 C2120 0.950 . S
H2092 C2122 0.950 . S
H2093 C2123 0.950 . S
C2094 H2076 0.951 . S
C2094 C2095 1.366 . S
C2094 C2096 1.388 . S
C2095 C2094 1.366 . S
C2095 C2099 1.385 . S
C2096 H2077 0.951 . S
C2096 C2094 1.388 . S
C2096 C2097 1.366 . S
C2097 C2096 1.366 . S
C2097 C2098 1.414 . S
C2097 C2100 1.499 . S
C2098 H2078 0.950 . S
C2098 C2097 1.414 . S
C2098 C2099 1.374 . S
C2099 H2079 0.950 . S
C2099 C2095 1.385 . S
C2099 C2098 1.374 . S
C2100 C2097 1.499 . S
C2100 C2101 1.373 . S
C2100 C2102 1.389 . S
C2101 H2080 0.950 . S
C2101 C2100 1.373 . S
C2101 C2117 1.377 . S
C2102 C2100 1.389 . S
C2102 C2103 1.524 . S
C2102 C2116 1.377 . S
C2103 C2102 1.524 . S
C2103 C2104 1.397 . S
C2103 C2108 1.363 . S
C2104 H2081 0.950 . S
C2104 C2103 1.397 . S
C2104 C2105 1.334 . S
C2105 H2082 0.950 . S
C2105 C2104 1.334 . S
C2105 C2106 1.287 . S
C2106 C2105 1.287 . S
C2106 C2107 1.524 . S
C2106 H2125 0.913 . S
C2107 H2083 0.950 . S
C2107 C2106 1.524 . S
C2107 C2108 1.415 . S
C2108 H2084 0.950 . S
C2108 C2103 1.363 . S
C2108 C2107 1.415 . S
C2109 H2085 0.951 . S
C2109 C2110 1.366 . S
C2109 C2111 1.388 . S
C2110 C2109 1.366 . S
C2110 C2114 1.385 . S
C2111 H2086 0.951 . S
C2111 C2109 1.388 . S
C2111 C2112 1.366 . S
C2112 C2111 1.366 . S
C2112 C2113 1.414 . S
C2112 C2115 1.499 . S
C2113 H2087 0.950 . S
C2113 C2112 1.414 . S
C2113 C2114 1.374 . S
C2114 H2088 0.950 . S
C2114 C2110 1.385 . S
C2114 C2113 1.374 . S
C2115 C2112 1.499 . S
C2115 C2116 1.373 . S
C2115 C2117 1.389 . S
C2116 H2089 0.950 . S
C2116 C2102 1.377 . S
C2116 C2115 1.373 . S
C2117 C2101 1.377 . S
C2117 C2115 1.389 . S
C2117 C2118 1.524 . S
C2118 C2117 1.524 . S
C2118 C2119 1.397 . S
C2118 C2123 1.363 . S
C2119 H2090 0.950 . S
C2119 C2118 1.397 . S
C2119 C2120 1.334 . S
C2120 H2091 0.950 . S
C2120 C2119 1.334 . S
C2120 C2121 1.287 . S
C2121 C2120 1.287 . S
C2121 C2122 1.524 . S
C2121 H2124 0.999 . S
C2122 H2092 0.950 . S
C2122 C2121 1.524 . S
C2122 C2123 1.415 . S
C2123 H2093 0.950 . S
C2123 C2118 1.363 . S
C2123 C2122 1.415 . S
H2124 C2121 0.999 . S
H2125 C2106 0.913 . S
H2126 C2144 0.951 . S
H2127 C2146 0.951 . S
H2128 C2148 0.950 . S
H2129 C2149 0.950 . S
H2130 C2151 0.950 . S
H2131 C2154 0.950 . S
H2132 C2155 0.950 . S
H2133 C2157 0.950 . S
H2134 C2158 0.950 . S
H2135 C2159 0.951 . S
H2136 C2161 0.951 . S
H2137 C2163 0.950 . S
H2138 C2164 0.950 . S
H2139 C2166 0.950 . S
H2140 C2169 0.950 . S
H2141 C2170 0.950 . S
H2142 C2172 0.950 . S
H2143 C2173 0.950 . S
C2144 H2126 0.951 . S
C2144 C2145 1.366 . S
C2144 C2146 1.388 . S
C2145 C2144 1.366 . S
C2145 C2149 1.385 . S
C2146 H2127 0.951 . S
C2146 C2144 1.388 . S
C2146 C2147 1.366 . S
C2147 C2146 1.366 . S
C2147 C2148 1.414 . S
C2147 C2150 1.499 . S
C2148 H2128 0.950 . S
C2148 C2147 1.414 . S
C2148 C2149 1.374 . S
C2149 H2129 0.950 . S
C2149 C2145 1.385 . S
C2149 C2148 1.374 . S
C2150 C2147 1.499 . S
C2150 C2151 1.373 . S
C2150 C2152 1.389 . S
C2151 H2130 0.950 . S
C2151 C2150 1.373 . S
C2151 C2167 1.377 . S
C2152 C2150 1.389 . S
C2152 C2153 1.524 . S
C2152 C2166 1.377 . S
C2153 C2152 1.524 . S
C2153 C2154 1.397 . S
C2153 C2158 1.363 . S
C2154 H2131 0.950 . S
C2154 C2153 1.397 . S
C2154 C2155 1.334 . S
C2155 H2132 0.950 . S
C2155 C2154 1.334 . S
C2155 C2156 1.287 . S
C2156 C2155 1.287 . S
C2156 C2157 1.524 . S
C2156 H2175 0.913 . S
C2157 H2133 0.950 . S
C2157 C2156 1.524 . S
C2157 C2158 1.415 . S
C2158 H2134 0.950 . S
C2158 C2153 1.363 . S
C2158 C2157 1.415 . S
C2159 H2135 0.951 . S
C2159 C2160 1.366 . S
C2159 C2161 1.388 . S
C2160 C2159 1.366 . S
C2160 C2164 1.385 . S
C2161 H2136 0.951 . S
C2161 C2159 1.388 . S
C2161 C2162 1.366 . S
C2162 C2161 1.366 . S
C2162 C2163 1.414 . S
C2162 C2165 1.499 . S
C2163 H2137 0.950 . S
C2163 C2162 1.414 . S
C2163 C2164 1.374 . S
C2164 H2138 0.950 . S
C2164 C2160 1.385 . S
C2164 C2163 1.374 . S
C2165 C2162 1.499 . S
C2165 C2166 1.373 . S
C2165 C2167 1.389 . S
C2166 H2139 0.950 . S
C2166 C2152 1.377 . S
C2166 C2165 1.373 . S
C2167 C2151 1.377 . S
C2167 C2165 1.389 . S
C2167 C2168 1.524 . S
C2168 C2167 1.524 . S
C2168 C2169 1.397 . S
C2168 C2173 1.363 . S
C2169 H2140 0.950 . S
C2169 C2168 1.397 . S
C2169 C2170 1.334 . S
C2170 H2141 0.950 . S
C2170 C2169 1.334 . S
C2170 C2171 1.287 . S
C2171 C2170 1.287 . S
C2171 C2172 1.524 . S
C2171 H2174 0.999 . S
C2172 H2142 0.950 . S
C2172 C2171 1.524 . S
C2172 C2173 1.415 . S
C2173 H2143 0.950 . S
C2173 C2168 1.363 . S
C2173 C2172 1.415 . S
H2174 C2171 0.999 . S
H2175 C2156 0.913 . S
H2176 C2194 0.951 . S
H2177 C2196 0.951 . S
H2178 C2198 0.950 . S
H2179 C2199 0.950 . S
H2180 C2201 0.950 . S
H2181 C2204 0.950 . S
H2182 C2205 0.950 . S
H2183 C2207 0.950 . S
H2184 C2208 0.950 . S
H2185 C2209 0.951 . S
H2186 C2211 0.951 . S
H2187 C2213 0.950 . S
H2188 C2214 0.950 . S
H2189 C2216 0.950 . S
H2190 C2219 0.950 . S
H2191 C2220 0.950 . S
H2192 C2222 0.950 . S
H2193 C2223 0.950 . S
C2194 H2176 0.951 . S
C2194 C2195 1.366 . S
C2194 C2196 1.388 . S
C2195 C2194 1.366 . S
C2195 C2199 1.385 . S
C2196 H2177 0.951 . S
C2196 C2194 1.388 . S
C2196 C2197 1.366 . S
C2197 C2196 1.366 . S
C2197 C2198 1.414 . S
C2197 C2200 1.499 . S
C2198 H2178 0.950 . S
C2198 C2197 1.414 . S
C2198 C2199 1.374 . S
C2199 H2179 0.950 . S
C2199 C2195 1.385 . S
C2199 C2198 1.374 . S
C2200 C2197 1.499 . S
C2200 C2201 1.373 . S
C2200 C2202 1.389 . S
C2201 H2180 0.950 . S
C2201 C2200 1.373 . S
C2201 C2217 1.377 . S
C2202 C2200 1.389 . S
C2202 C2203 1.524 . S
C2202 C2216 1.377 . S
C2203 C2202 1.524 . S
C2203 C2204 1.397 . S
C2203 C2208 1.363 . S
C2204 H2181 0.950 . S
C2204 C2203 1.397 . S
C2204 C2205 1.334 . S
C2205 H2182 0.950 . S
C2205 C2204 1.334 . S
C2205 C2206 1.287 . S
C2206 C2205 1.287 . S
C2206 C2207 1.524 . S
C2206 H2225 0.913 . S
C2207 H2183 0.950 . S
C2207 C2206 1.524 . S
C2207 C2208 1.415 . S
C2208 H2184 0.950 . S
C2208 C2203 1.363 . S
C2208 C2207 1.415 . S
C2209 H2185 0.951 . S
C2209 C2210 1.366 . S
C2209 C2211 1.388 . S
C2210 C2209 1.366 . S
C2210 C2214 1.385 . S
C2211 H2186 0.951 . S
C2211 C2209 1.388 . S
C2211 C2212 1.366 . S
C2212 C2211 1.366 . S
C2212 C2213 1.414 . S
C2212 C2215 1.499 . S
C2213 H2187 0.950 . S
C2213 C2212 1.414 . S
C2213 C2214 1.374 . S
C2214 H2188 0.950 . S
C2214 C2210 1.385 . S
C2214 C2213 1.374 . S
C2215 C2212 1.499 . S
C2215 C2216 1.373 . S
C2215 C2217 1.389 . S
C2216 H2189 0.950 . S
C2216 C2202 1.377 . S
C2216 C2215 1.373 . S
C2217 C2201 1.377 . S
C2217 C2215 1.389 . S
C2217 C2218 1.524 . S
C2218 C2217 1.524 . S
C2218 C2219 1.397 . S
C2218 C2223 1.363 . S
C2219 H2190 0.950 . S
C2219 C2218 1.397 . S
C2219 C2220 1.334 . S
C2220 H2191 0.950 . S
C2220 C2219 1.334 . S
C2220 C2221 1.287 . S
C2221 C2220 1.287 . S
C2221 C2222 1.524 . S
C2221 H2224 0.999 . S
C2222 H2192 0.950 . S
C2222 C2221 1.524 . S
C2222 C2223 1.415 . S
C2223 H2193 0.950 . S
C2223 C2218 1.363 . S
C2223 C2222 1.415 . S
H2224 C2221 0.999 . S
H2225 C2206 0.913 . S
H2226 C2244 0.951 . S
H2227 C2246 0.951 . S
H2228 C2248 0.950 . S
H2229 C2249 0.950 . S
H2230 C2251 0.950 . S
H2231 C2254 0.950 . S
H2232 C2255 0.950 . S
H2233 C2257 0.950 . S
H2234 C2258 0.950 . S
H2235 C2259 0.951 . S
H2236 C2261 0.951 . S
H2237 C2263 0.950 . S
H2238 C2264 0.950 . S
H2239 C2266 0.950 . S
H2240 C2269 0.950 . S
H2241 C2270 0.950 . S
H2242 C2272 0.950 . S
H2243 C2273 0.950 . S
C2244 H2226 0.951 . S
C2244 C2245 1.366 . S
C2244 C2246 1.388 . S
C2245 C2244 1.366 . S
C2245 C2249 1.385 . S
C2246 H2227 0.951 . S
C2246 C2244 1.388 . S
C2246 C2247 1.366 . S
C2247 C2246 1.366 . S
C2247 C2248 1.414 . S
C2247 C2250 1.499 . S
C2248 H2228 0.950 . S
C2248 C2247 1.414 . S
C2248 C2249 1.374 . S
C2249 H2229 0.950 . S
C2249 C2245 1.385 . S
C2249 C2248 1.374 . S
C2250 C2247 1.499 . S
C2250 C2251 1.373 . S
C2250 C2252 1.389 . S
C2251 H2230 0.950 . S
C2251 C2250 1.373 . S
C2251 C2267 1.377 . S
C2252 C2250 1.389 . S
C2252 C2253 1.524 . S
C2252 C2266 1.377 . S
C2253 C2252 1.524 . S
C2253 C2254 1.397 . S
C2253 C2258 1.363 . S
C2254 H2231 0.950 . S
C2254 C2253 1.397 . S
C2254 C2255 1.334 . S
C2255 H2232 0.950 . S
C2255 C2254 1.334 . S
C2255 C2256 1.287 . S
C2256 C2255 1.287 . S
C2256 C2257 1.524 . S
C2256 H2275 0.913 . S
C2257 H2233 0.950 . S
C2257 C2256 1.524 . S
C2257 C2258 1.415 . S
C2258 H2234 0.950 . S
C2258 C2253 1.363 . S
C2258 C2257 1.415 . S
C2259 H2235 0.951 . S
C2259 C2260 1.366 . S
C2259 C2261 1.388 . S
C2260 C2259 1.366 . S
C2260 C2264 1.385 . S
C2261 H2236 0.951 . S
C2261 C2259 1.388 . S
C2261 C2262 1.366 . S
C2262 C2261 1.366 . S
C2262 C2263 1.414 . S
C2262 C2265 1.499 . S
C2263 H2237 0.950 . S
C2263 C2262 1.414 . S
C2263 C2264 1.374 . S
C2264 H2238 0.950 . S
C2264 C2260 1.385 . S
C2264 C2263 1.374 . S
C2265 C2262 1.499 . S
C2265 C2266 1.373 . S
C2265 C2267 1.389 . S
C2266 H2239 0.950 . S
C2266 C2252 1.377 . S
C2266 C2265 1.373 . S
C2267 C2251 1.377 . S
C2267 C2265 1.389 . S
C2267 C2268 1.524 . S
C2268 C2267 1.524 . S
C2268 C2269 1.397 . S
C2268 C2273 1.363 . S
C2269 H2240 0.950 . S
C2269 C2268 1.397 . S
C2269 C2270 1.334 . S
C2270 H2241 0.950 . S
C2270 C2269 1.334 . S
C2270 C2271 1.287 . S
C2271 C2270 1.287 . S
C2271 C2272 1.524 . S
C2271 H2274 0.999 . S
C2272 H2242 0.950 . S
C2272 C2271 1.524 . S
C2272 C2273 1.415 . S
C2273 H2243 0.950 . S
C2273 C2268 1.363 . S
C2273 C2272 1.415 . S
H2274 C2271 0.999 . S
H2275 C2256 0.913 . S
H2276 C2294 0.951 . S
H2277 C2296 0.951 . S
H2278 C2298 0.950 . S
H2279 C2299 0.950 . S
H2280 C2301 0.950 . S
H2281 C2304 0.950 . S
H2282 C2305 0.950 . S
H2283 C2307 0.950 . S
H2284 C2308 0.950 . S
H2285 C2309 0.951 . S
H2286 C2311 0.951 . S
H2287 C2313 0.950 . S
H2288 C2314 0.950 . S
H2289 C2316 0.950 . S
H2290 C2319 0.950 . S
H2291 C2320 0.950 . S
H2292 C2322 0.950 . S
H2293 C2323 0.950 . S
C2294 H2276 0.951 . S
C2294 C2295 1.366 . S
C2294 C2296 1.388 . S
C2295 C2294 1.366 . S
C2295 C2299 1.385 . S
C2296 H2277 0.951 . S
C2296 C2294 1.388 . S
C2296 C2297 1.366 . S
C2297 C2296 1.366 . S
C2297 C2298 1.414 . S
C2297 C2300 1.499 . S
C2298 H2278 0.950 . S
C2298 C2297 1.414 . S
C2298 C2299 1.374 . S
C2299 H2279 0.950 . S
C2299 C2295 1.385 . S
C2299 C2298 1.374 . S
C2300 C2297 1.499 . S
C2300 C2301 1.373 . S
C2300 C2302 1.389 . S
C2301 H2280 0.950 . S
C2301 C2300 1.373 . S
C2301 C2317 1.377 . S
C2302 C2300 1.389 . S
C2302 C2303 1.524 . S
C2302 C2316 1.377 . S
C2303 C2302 1.524 . S
C2303 C2304 1.397 . S
C2303 C2308 1.363 . S
C2304 H2281 0.950 . S
C2304 C2303 1.397 . S
C2304 C2305 1.334 . S
C2305 H2282 0.950 . S
C2305 C2304 1.334 . S
C2305 C2306 1.287 . S
C2306 C2305 1.287 . S
C2306 C2307 1.524 . S
C2306 H2325 0.913 . S
C2307 H2283 0.950 . S
C2307 C2306 1.524 . S
C2307 C2308 1.415 . S
C2308 H2284 0.950 . S
C2308 C2303 1.363 . S
C2308 C2307 1.415 . S
C2309 H2285 0.951 . S
C2309 C2310 1.366 . S
C2309 C2311 1.388 . S
C2310 C2309 1.366 . S
C2310 C2314 1.385 . S
C2311 H2286 0.951 . S
C2311 C2309 1.388 . S
C2311 C2312 1.366 . S
C2312 C2311 1.366 . S
C2312 C2313 1.414 . S
C2312 C2315 1.499 . S
C2313 H2287 0.950 . S
C2313 C2312 1.414 . S
C2313 C2314 1.374 . S
C2314 H2288 0.950 . S
C2314 C2310 1.385 . S
C2314 C2313 1.374 . S
C2315 C2312 1.499 . S
C2315 C2316 1.373 . S
C2315 C2317 1.389 . S
C2316 H2289 0.950 . S
C2316 C2302 1.377 . S
C2316 C2315 1.373 . S
C2317 C2301 1.377 . S
C2317 C2315 1.389 . S
C2317 C2318 1.524 . S
C2318 C2317 1.524 . S
C2318 C2319 1.397 . S
C2318 C2323 1.363 . S
C2319 H2290 0.950 . S
C2319 C2318 1.397 . S
C2319 C2320 1.334 . S
C2320 H2291 0.950 . S
C2320 C2319 1.334 . S
C2320 C2321 1.287 . S
C2321 C2320 1.287 . S
C2321 C2322 1.524 . S
C2321 H2324 0.999 . S
C2322 H2292 0.950 . S
C2322 C2321 1.524 . S
C2322 C2323 1.415 . S
C2323 H2293 0.950 . S
C2323 C2318 1.363 . S
C2323 C2322 1.415 . S
H2324 C2321 0.999 . S
H2325 C2306 0.913 . S
H2326 C2344 0.951 . S
H2327 C2346 0.951 . S
H2328 C2348 0.950 . S
H2329 C2349 0.950 . S
H2330 C2351 0.950 . S
H2331 C2354 0.950 . S
H2332 C2355 0.950 . S
H2333 C2357 0.950 . S
H2334 C2358 0.950 . S
H2335 C2359 0.951 . S
H2336 C2361 0.951 . S
H2337 C2363 0.950 . S
H2338 C2364 0.950 . S
H2339 C2366 0.950 . S
H2340 C2369 0.950 . S
H2341 C2370 0.950 . S
H2342 C2372 0.950 . S
H2343 C2373 0.950 . S
C2344 H2326 0.951 . S
C2344 C2345 1.366 . S
C2344 C2346 1.388 . S
C2345 C2344 1.366 . S
C2345 C2349 1.385 . S
C2346 H2327 0.951 . S
C2346 C2344 1.388 . S
C2346 C2347 1.366 . S
C2347 C2346 1.366 . S
C2347 C2348 1.414 . S
C2347 C2350 1.499 . S
C2348 H2328 0.950 . S
C2348 C2347 1.414 . S
C2348 C2349 1.374 . S
C2349 H2329 0.950 . S
C2349 C2345 1.385 . S
C2349 C2348 1.374 . S
C2350 C2347 1.499 . S
C2350 C2351 1.373 . S
C2350 C2352 1.389 . S
C2351 H2330 0.950 . S
C2351 C2350 1.373 . S
C2351 C2367 1.377 . S
C2352 C2350 1.389 . S
C2352 C2353 1.524 . S
C2352 C2366 1.377 . S
C2353 C2352 1.524 . S
C2353 C2354 1.397 . S
C2353 C2358 1.363 . S
C2354 H2331 0.950 . S
C2354 C2353 1.397 . S
C2354 C2355 1.334 . S
C2355 H2332 0.950 . S
C2355 C2354 1.334 . S
C2355 C2356 1.287 . S
C2356 C2355 1.287 . S
C2356 C2357 1.524 . S
C2356 H2375 0.913 . S
C2357 H2333 0.950 . S
C2357 C2356 1.524 . S
C2357 C2358 1.415 . S
C2358 H2334 0.950 . S
C2358 C2353 1.363 . S
C2358 C2357 1.415 . S
C2359 H2335 0.951 . S
C2359 C2360 1.366 . S
C2359 C2361 1.388 . S
C2360 C2359 1.366 . S
C2360 C2364 1.385 . S
C2361 H2336 0.951 . S
C2361 C2359 1.388 . S
C2361 C2362 1.366 . S
C2362 C2361 1.366 . S
C2362 C2363 1.414 . S
C2362 C2365 1.499 . S
C2363 H2337 0.950 . S
C2363 C2362 1.414 . S
C2363 C2364 1.374 . S
C2364 H2338 0.950 . S
C2364 C2360 1.385 . S
C2364 C2363 1.374 . S
C2365 C2362 1.499 . S
C2365 C2366 1.373 . S
C2365 C2367 1.389 . S
C2366 H2339 0.950 . S
C2366 C2352 1.377 . S
C2366 C2365 1.373 . S
C2367 C2351 1.377 . S
C2367 C2365 1.389 . S
C2367 C2368 1.524 . S
C2368 C2367 1.524 . S
C2368 C2369 1.397 . S
C2368 C2373 1.363 . S
C2369 H2340 0.950 . S
C2369 C2368 1.397 . S
C2369 C2370 1.334 . S
C2370 H2341 0.950 . S
C2370 C2369 1.334 . S
C2370 C2371 1.287 . S
C2371 C2370 1.287 . S
C2371 C2372 1.524 . S
C2371 H2374 0.999 . S
C2372 H2342 0.950 . S
C2372 C2371 1.524 . S
C2372 C2373 1.415 . S
C2373 H2343 0.950 . S
C2373 C2368 1.363 . S
C2373 C2372 1.415 . S
H2374 C2371 0.999 . S
H2375 C2356 0.913 . S
H2376 C2394 0.951 . S
H2377 C2396 0.951 . S
H2378 C2398 0.950 . S
H2379 C2399 0.950 . S
H2380 C2401 0.950 . S
H2381 C2404 0.950 . S
H2382 C2405 0.950 . S
H2383 C2407 0.950 . S
H2384 C2408 0.950 . S
H2385 C2409 0.951 . S
H2386 C2411 0.951 . S
H2387 C2413 0.950 . S
H2388 C2414 0.950 . S
H2389 C2416 0.950 . S
H2390 C2419 0.950 . S
H2391 C2420 0.950 . S
H2392 C2422 0.950 1_556 S
H2393 C2423 0.950 . S
C2394 H2376 0.951 . S
C2394 C2395 1.366 . S
C2394 C2396 1.388 . S
C2395 C2394 1.366 . S
C2395 C2399 1.385 . S
C2396 H2377 0.951 . S
C2396 C2394 1.388 . S
C2396 C2397 1.366 . S
C2397 C2396 1.366 . S
C2397 C2398 1.414 . S
C2397 C2400 1.499 . S
C2398 H2378 0.950 . S
C2398 C2397 1.414 . S
C2398 C2399 1.374 . S
C2399 H2379 0.950 . S
C2399 C2395 1.385 . S
C2399 C2398 1.374 . S
C2400 C2397 1.499 . S
C2400 C2401 1.373 . S
C2400 C2402 1.389 . S
C2401 H2380 0.950 . S
C2401 C2400 1.373 . S
C2401 C2417 1.377 . S
C2402 C2400 1.389 . S
C2402 C2403 1.524 . S
C2402 C2416 1.377 . S
C2403 C2402 1.524 . S
C2403 C2404 1.397 . S
C2403 C2408 1.363 . S
C2404 H2381 0.950 . S
C2404 C2403 1.397 . S
C2404 C2405 1.334 . S
C2405 H2382 0.950 . S
C2405 C2404 1.334 . S
C2405 C2406 1.287 . S
C2406 C2405 1.287 . S
C2406 C2407 1.524 . S
C2406 H2425 0.913 . S
C2407 H2383 0.950 . S
C2407 C2406 1.524 . S
C2407 C2408 1.415 . S
C2408 H2384 0.950 . S
C2408 C2403 1.363 . S
C2408 C2407 1.415 . S
C2409 H2385 0.951 . S
C2409 C2410 1.366 . S
C2409 C2411 1.388 . S
C2410 C2409 1.366 . S
C2410 C2414 1.385 . S
C2411 H2386 0.951 . S
C2411 C2409 1.388 . S
C2411 C2412 1.366 . S
C2412 C2411 1.366 . S
C2412 C2413 1.414 . S
C2412 C2415 1.499 . S
C2413 H2387 0.950 . S
C2413 C2412 1.414 . S
C2413 C2414 1.374 . S
C2414 H2388 0.950 . S
C2414 C2410 1.385 . S
C2414 C2413 1.374 . S
C2415 C2412 1.499 . S
C2415 C2416 1.373 . S
C2415 C2417 1.389 . S
C2416 H2389 0.950 . S
C2416 C2402 1.377 . S
C2416 C2415 1.373 . S
C2417 C2401 1.377 . S
C2417 C2415 1.389 . S
C2417 C2418 1.524 . S
C2418 C2417 1.524 . S
C2418 C2419 1.397 . S
C2418 C2423 1.363 . S
C2419 H2390 0.950 . S
C2419 C2418 1.397 . S
C2419 C2420 1.334 . S
C2420 H2391 0.950 . S
C2420 C2419 1.334 . S
C2420 C2421 1.287 . S
C2421 C2420 1.287 . S
C2421 C2422 1.524 . S
C2421 H2424 0.999 1_554 S
C2422 H2392 0.950 1_554 S
C2422 C2421 1.524 . S
C2422 C2423 1.415 . S
C2423 H2393 0.950 . S
C2423 C2418 1.363 . S
C2423 C2422 1.415 . S
H2424 C2421 0.999 1_556 S
H2425 C2406 0.913 . S
H2426 C2444 0.951 . S
H2427 C2446 0.951 . S
H2428 C2448 0.950 . S
H2429 C2449 0.950 . S
H2430 C2451 0.950 . S
H2431 C2454 0.950 . S
H2432 C2455 0.950 . S
H2433 C2457 0.950 . S
H2434 C2458 0.950 . S
H2435 C2459 0.951 . S
H2436 C2461 0.951 . S
H2437 C2463 0.950 . S
H2438 C2464 0.950 . S
H2439 C2466 0.950 . S
H2440 C2469 0.950 . S
H2441 C2470 0.950 . S
H2442 C2472 0.950 1_556 S
H2443 C2473 0.950 . S
C2444 H2426 0.951 . S
C2444 C2445 1.366 . S
C2444 C2446 1.388 . S
C2445 C2444 1.366 . S
C2445 C2449 1.385 . S
C2446 H2427 0.951 . S
C2446 C2444 1.388 . S
C2446 C2447 1.366 . S
C2447 C2446 1.366 . S
C2447 C2448 1.414 . S
C2447 C2450 1.499 . S
C2448 H2428 0.950 . S
C2448 C2447 1.414 . S
C2448 C2449 1.374 . S
C2449 H2429 0.950 . S
C2449 C2445 1.385 . S
C2449 C2448 1.374 . S
C2450 C2447 1.499 . S
C2450 C2451 1.373 . S
C2450 C2452 1.389 . S
C2451 H2430 0.950 . S
C2451 C2450 1.373 . S
C2451 C2467 1.377 . S
C2452 C2450 1.389 . S
C2452 C2453 1.524 . S
C2452 C2466 1.377 . S
C2453 C2452 1.524 . S
C2453 C2454 1.397 . S
C2453 C2458 1.363 . S
C2454 H2431 0.950 . S
C2454 C2453 1.397 . S
C2454 C2455 1.334 . S
C2455 H2432 0.950 . S
C2455 C2454 1.334 . S
C2455 C2456 1.287 . S
C2456 C2455 1.287 . S
C2456 C2457 1.524 . S
C2456 H2475 0.913 . S
C2457 H2433 0.950 . S
C2457 C2456 1.524 . S
C2457 C2458 1.415 . S
C2458 H2434 0.950 . S
C2458 C2453 1.363 . S
C2458 C2457 1.415 . S
C2459 H2435 0.951 . S
C2459 C2460 1.366 . S
C2459 C2461 1.388 . S
C2460 C2459 1.366 . S
C2460 C2464 1.385 . S
C2461 H2436 0.951 . S
C2461 C2459 1.388 . S
C2461 C2462 1.366 . S
C2462 C2461 1.366 . S
C2462 C2463 1.414 . S
C2462 C2465 1.499 . S
C2463 H2437 0.950 . S
C2463 C2462 1.414 . S
C2463 C2464 1.374 . S
C2464 H2438 0.950 . S
C2464 C2460 1.385 . S
C2464 C2463 1.374 . S
C2465 C2462 1.499 . S
C2465 C2466 1.373 . S
C2465 C2467 1.389 . S
C2466 H2439 0.950 . S
C2466 C2452 1.377 . S
C2466 C2465 1.373 . S
C2467 C2451 1.377 . S
C2467 C2465 1.389 . S
C2467 C2468 1.524 . S
C2468 C2467 1.524 . S
C2468 C2469 1.397 . S
C2468 C2473 1.363 . S
C2469 H2440 0.950 . S
C2469 C2468 1.397 . S
C2469 C2470 1.334 . S
C2470 H2441 0.950 . S
C2470 C2469 1.334 . S
C2470 C2471 1.287 . S
C2471 C2470 1.287 . S
C2471 C2472 1.524 . S
C2471 H2474 0.999 1_554 S
C2472 H2442 0.950 1_554 S
C2472 C2471 1.524 . S
C2472 C2473 1.415 . S
C2473 H2443 0.950 . S
C2473 C2468 1.363 . S
C2473 C2472 1.415 . S
H2474 C2471 0.999 1_556 S
H2475 C2456 0.913 . S
H2476 C2494 0.951 . S
H2477 C2496 0.951 . S
H2478 C2498 0.950 . S
H2479 C2499 0.950 . S
H2480 C2501 0.950 . S
H2481 C2504 0.950 . S
H2482 C2505 0.950 . S
H2483 C2507 0.950 . S
H2484 C2508 0.950 . S
H2485 C2509 0.951 . S
H2486 C2511 0.951 . S
H2487 C2513 0.950 . S
H2488 C2514 0.950 . S
H2489 C2516 0.950 . S
H2490 C2519 0.950 . S
H2491 C2520 0.950 . S
H2492 C2522 0.950 . S
H2493 C2523 0.950 . S
C2494 H2476 0.951 . S
C2494 C2495 1.366 . S
C2494 C2496 1.388 . S
C2495 C2494 1.366 . S
C2495 C2499 1.385 . S
C2496 H2477 0.951 . S
C2496 C2494 1.388 . S
C2496 C2497 1.366 . S
C2497 C2496 1.366 . S
C2497 C2498 1.414 . S
C2497 C2500 1.499 . S
C2498 H2478 0.950 . S
C2498 C2497 1.414 . S
C2498 C2499 1.374 . S
C2499 H2479 0.950 . S
C2499 C2495 1.385 . S
C2499 C2498 1.374 . S
C2500 C2497 1.499 . S
C2500 C2501 1.373 . S
C2500 C2502 1.389 . S
C2501 H2480 0.950 . S
C2501 C2500 1.373 . S
C2501 C2517 1.377 . S
C2502 C2500 1.389 . S
C2502 C2503 1.524 . S
C2502 C2516 1.377 . S
C2503 C2502 1.524 . S
C2503 C2504 1.397 . S
C2503 C2508 1.363 . S
C2504 H2481 0.950 . S
C2504 C2503 1.397 . S
C2504 C2505 1.334 1_554 S
C2505 H2482 0.950 . S
C2505 C2504 1.334 1_556 S
C2505 C2506 1.287 . S
C2506 C2505 1.287 . S
C2506 C2507 1.524 . S
C2506 H2525 0.913 . S
C2507 H2483 0.950 . S
C2507 C2506 1.524 . S
C2507 C2508 1.415 1_556 S
C2508 H2484 0.950 . S
C2508 C2503 1.363 . S
C2508 C2507 1.415 1_554 S
C2509 H2485 0.951 . S
C2509 C2510 1.366 . S
C2509 C2511 1.388 . S
C2510 C2509 1.366 . S
C2510 C2514 1.385 . S
C2511 H2486 0.951 . S
C2511 C2509 1.388 . S
C2511 C2512 1.366 . S
C2512 C2511 1.366 . S
C2512 C2513 1.414 . S
C2512 C2515 1.499 . S
C2513 H2487 0.950 . S
C2513 C2512 1.414 . S
C2513 C2514 1.374 . S
C2514 H2488 0.950 . S
C2514 C2510 1.385 . S
C2514 C2513 1.374 . S
C2515 C2512 1.499 . S
C2515 C2516 1.373 . S
C2515 C2517 1.389 . S
C2516 H2489 0.950 . S
C2516 C2502 1.377 . S
C2516 C2515 1.373 . S
C2517 C2501 1.377 . S
C2517 C2515 1.389 . S
C2517 C2518 1.524 . S
C2518 C2517 1.524 . S
C2518 C2519 1.397 . S
C2518 C2523 1.363 . S
C2519 H2490 0.950 . S
C2519 C2518 1.397 . S
C2519 C2520 1.334 . S
C2520 H2491 0.950 . S
C2520 C2519 1.334 . S
C2520 C2521 1.287 . S
C2521 C2520 1.287 . S
C2521 C2522 1.524 . S
C2521 H2524 0.999 . S
C2522 H2492 0.950 . S
C2522 C2521 1.524 . S
C2522 C2523 1.415 . S
C2523 H2493 0.950 . S
C2523 C2518 1.363 . S
C2523 C2522 1.415 . S
H2524 C2521 0.999 . S
H2525 C2506 0.913 . S
H2526 C2544 0.951 . S
H2527 C2546 0.951 1_554 S
H2528 C2548 0.950 . S
H2529 C2549 0.950 . S
H2530 C2551 0.950 . S
H2531 C2554 0.950 1_556 S
H2532 C2555 0.950 . S
H2533 C2557 0.950 . S
H2534 C2558 0.950 . S
H2535 C2559 0.951 . S
H2536 C2561 0.951 . S
H2537 C2563 0.950 . S
H2538 C2564 0.950 . S
H2539 C2566 0.950 . S
H2540 C2569 0.950 . S
H2541 C2570 0.950 . S
H2542 C2572 0.950 . S
H2543 C2573 0.950 . S
C2544 H2526 0.951 . S
C2544 C2545 1.366 1_554 S
C2544 C2546 1.388 1_554 S
C2545 C2544 1.366 1_556 S
C2545 C2549 1.385 . S
C2546 H2527 0.951 1_556 S
C2546 C2544 1.388 1_556 S
C2546 C2547 1.366 . S
C2547 C2546 1.366 . S
C2547 C2548 1.414 . S
C2547 C2550 1.499 . S
C2548 H2528 0.950 . S
C2548 C2547 1.414 . S
C2548 C2549 1.374 . S
C2549 H2529 0.950 . S
C2549 C2545 1.385 . S
C2549 C2548 1.374 . S
C2550 C2547 1.499 . S
C2550 C2551 1.373 . S
C2550 C2552 1.389 . S
C2551 H2530 0.950 . S
C2551 C2550 1.373 . S
C2551 C2567 1.377 . S
C2552 C2550 1.389 . S
C2552 C2553 1.524 1_556 S
C2552 C2566 1.377 . S
C2553 C2552 1.524 1_554 S
C2553 C2554 1.397 . S
C2553 C2558 1.363 . S
C2554 H2531 0.950 1_554 S
C2554 C2553 1.397 . S
C2554 C2555 1.334 . S
C2555 H2532 0.950 . S
C2555 C2554 1.334 . S
C2555 C2556 1.287 . S
C2556 C2555 1.287 . S
C2556 C2557 1.524 . S
C2556 H2575 0.913 . S
C2557 H2533 0.950 . S
C2557 C2556 1.524 . S
C2557 C2558 1.415 . S
C2558 H2534 0.950 . S
C2558 C2553 1.363 . S
C2558 C2557 1.415 . S
C2559 H2535 0.951 . S
C2559 C2560 1.366 . S
C2559 C2561 1.388 . S
C2560 C2559 1.366 . S
C2560 C2564 1.385 . S
C2561 H2536 0.951 . S
C2561 C2559 1.388 . S
C2561 C2562 1.366 . S
C2562 C2561 1.366 . S
C2562 C2563 1.414 . S
C2562 C2565 1.499 . S
C2563 H2537 0.950 . S
C2563 C2562 1.414 . S
C2563 C2564 1.374 . S
C2564 H2538 0.950 . S
C2564 C2560 1.385 . S
C2564 C2563 1.374 . S
C2565 C2562 1.499 . S
C2565 C2566 1.373 . S
C2565 C2567 1.389 . S
C2566 H2539 0.950 . S
C2566 C2552 1.377 . S
C2566 C2565 1.373 . S
C2567 C2551 1.377 . S
C2567 C2565 1.389 . S
C2567 C2568 1.524 . S
C2568 C2567 1.524 . S
C2568 C2569 1.397 . S
C2568 C2573 1.363 . S
C2569 H2540 0.950 . S
C2569 C2568 1.397 . S
C2569 C2570 1.334 . S
C2570 H2541 0.950 . S
C2570 C2569 1.334 . S
C2570 C2571 1.287 . S
C2571 C2570 1.287 . S
C2571 C2572 1.524 . S
C2571 H2574 0.999 . S
C2572 H2542 0.950 . S
C2572 C2571 1.524 . S
C2572 C2573 1.415 . S
C2573 H2543 0.950 . S
C2573 C2568 1.363 . S
C2573 C2572 1.415 . S
H2574 C2571 0.999 . S
H2575 C2556 0.913 . S
H2576 C2594 0.951 . S
H2577 C2596 0.951 . S
H2578 C2598 0.948 . S
H2579 C2599 0.950 . S
H2580 C2601 0.950 . S
H2581 C2604 0.950 . S
H2582 C2605 0.950 . S
H2583 C2607 0.950 . S
H2584 C2608 0.950 . S
H2585 C2609 0.951 . S
H2586 C2611 0.951 . S
H2587 C2613 0.950 . S
H2588 C2614 0.950 . S
H2589 C2616 0.950 . S
H2590 C2619 0.950 . S
H2591 C2620 0.950 . S
H2592 C2622 0.950 . S
H2593 C2623 0.950 1_554 S
C2594 H2576 0.951 . S
C2594 C2595 1.366 . S
C2594 C2596 1.388 . S
C2595 C2594 1.366 . S
C2595 C2599 1.385 1_556 S
C2596 H2577 0.951 . S
C2596 C2594 1.388 . S
C2596 C2597 1.366 . S
C2597 C2596 1.366 . S
C2597 C2598 1.417 1_556 S
C2597 C2600 1.499 . S
C2598 H2578 0.948 . S
C2598 C2597 1.417 1_554 S
C2598 C2599 1.373 . S
C2599 H2579 0.950 . S
C2599 C2595 1.385 1_554 S
C2599 C2598 1.373 . S
C2600 C2597 1.499 . S
C2600 C2601 1.373 . S
C2600 C2602 1.389 . S
C2601 H2580 0.950 . S
C2601 C2600 1.373 . S
C2601 C2617 1.377 . S
C2602 C2600 1.389 . S
C2602 C2603 1.524 . S
C2602 C2616 1.377 . S
C2603 C2602 1.524 . S
C2603 C2604 1.397 . S
C2603 C2608 1.363 . S
C2604 H2581 0.950 . S
C2604 C2603 1.397 . S
C2604 C2605 1.334 . S
C2605 H2582 0.950 . S
C2605 C2604 1.334 . S
C2605 C2606 1.287 . S
C2606 C2605 1.287 . S
C2606 C2607 1.524 . S
C2606 H2625 0.913 . S
C2607 H2583 0.950 . S
C2607 C2606 1.524 . S
C2607 C2608 1.415 . S
C2608 H2584 0.950 . S
C2608 C2603 1.363 . S
C2608 C2607 1.415 . S
C2609 H2585 0.951 . S
C2609 C2610 1.366 . S
C2609 C2611 1.388 . S
C2610 C2609 1.366 . S
C2610 C2614 1.385 . S
C2611 H2586 0.951 . S
C2611 C2609 1.388 . S
C2611 C2612 1.366 . S
C2612 C2611 1.366 . S
C2612 C2613 1.414 . S
C2612 C2615 1.499 . S
C2613 H2587 0.950 . S
C2613 C2612 1.414 . S
C2613 C2614 1.374 . S
C2614 H2588 0.950 . S
C2614 C2610 1.385 . S
C2614 C2613 1.374 . S
C2615 C2612 1.499 . S
C2615 C2616 1.373 . S
C2615 C2617 1.389 . S
C2616 H2589 0.950 . S
C2616 C2602 1.377 . S
C2616 C2615 1.373 . S
C2617 C2601 1.377 . S
C2617 C2615 1.389 . S
C2617 C2618 1.524 . S
C2618 C2617 1.524 . S
C2618 C2619 1.397 . S
C2618 C2623 1.363 . S
C2619 H2590 0.950 . S
C2619 C2618 1.397 . S
C2619 C2620 1.334 . S
C2620 H2591 0.950 . S
C2620 C2619 1.334 . S
C2620 C2621 1.287 . S
C2621 C2620 1.287 . S
C2621 C2622 1.524 1_556 S
C2621 H2624 0.999 . S
C2622 H2592 0.950 . S
C2622 C2621 1.524 1_554 S
C2622 C2623 1.415 1_554 S
C2623 H2593 0.950 1_556 S
C2623 C2618 1.363 . S
C2623 C2622 1.415 1_556 S
H2624 C2621 0.999 . S
H2625 C2606 0.913 . S
H2626 C2644 0.951 . S
H2627 C2646 0.950 1_554 S
H2628 C2648 0.950 . S
H2629 C2649 0.950 . S
H2630 C2651 0.950 . S
H2631 C2654 0.950 . S
H2632 C2655 0.950 . S
H2633 C2657 0.950 . S
H2634 C2658 0.950 . S
H2635 C2659 0.951 . S
H2636 C2661 0.951 . S
H2637 C2663 0.950 . S
H2638 C2664 0.950 . S
H2639 C2666 0.950 . S
H2640 C2669 0.950 . S
H2641 C2670 0.950 . S
H2642 C2672 0.950 . S
H2643 C2673 0.950 . S
C2644 H2626 0.951 . S
C2644 C2645 1.366 1_554 S
C2644 C2646 1.388 1_554 S
C2645 C2644 1.366 1_556 S
C2645 C2649 1.385 . S
C2646 H2627 0.950 1_556 S
C2646 C2644 1.388 1_556 S
C2646 C2647 1.366 . S
C2647 C2646 1.366 . S
C2647 C2648 1.414 . S
C2647 C2650 1.499 . S
C2648 H2628 0.950 . S
C2648 C2647 1.414 . S
C2648 C2649 1.374 . S
C2649 H2629 0.950 . S
C2649 C2645 1.385 . S
C2649 C2648 1.374 . S
C2650 C2647 1.499 . S
C2650 C2651 1.373 . S
C2650 C2652 1.389 . S
C2651 H2630 0.950 . S
C2651 C2650 1.373 . S
C2651 C2667 1.377 . S
C2652 C2650 1.389 . S
C2652 C2653 1.524 . S
C2652 C2666 1.377 . S
C2653 C2652 1.524 . S
C2653 C2654 1.397 . S
C2653 C2658 1.363 . S
C2654 H2631 0.950 . S
C2654 C2653 1.397 . S
C2654 C2655 1.334 . S
C2655 H2632 0.950 . S
C2655 C2654 1.334 . S
C2655 C2656 1.287 . S
C2656 C2655 1.287 . S
C2656 C2657 1.524 . S
C2656 H2675 0.913 . S
C2657 H2633 0.950 . S
C2657 C2656 1.524 . S
C2657 C2658 1.415 . S
C2658 H2634 0.950 . S
C2658 C2653 1.363 . S
C2658 C2657 1.415 . S
C2659 H2635 0.951 . S
C2659 C2660 1.366 . S
C2659 C2661 1.388 . S
C2660 C2659 1.366 . S
C2660 C2664 1.385 . S
C2661 H2636 0.951 . S
C2661 C2659 1.388 . S
C2661 C2662 1.366 . S
C2662 C2661 1.366 . S
C2662 C2663 1.414 . S
C2662 C2665 1.499 . S
C2663 H2637 0.950 . S
C2663 C2662 1.414 . S
C2663 C2664 1.374 . S
C2664 H2638 0.950 . S
C2664 C2660 1.385 . S
C2664 C2663 1.374 . S
C2665 C2662 1.499 . S
C2665 C2666 1.373 . S
C2665 C2667 1.389 . S
C2666 H2639 0.950 . S
C2666 C2652 1.377 . S
C2666 C2665 1.373 . S
C2667 C2651 1.377 . S
C2667 C2665 1.389 . S
C2667 C2668 1.524 . S
C2668 C2667 1.524 . S
C2668 C2669 1.397 . S
C2668 C2673 1.363 . S
C2669 H2640 0.950 . S
C2669 C2668 1.397 . S
C2669 C2670 1.334 . S
C2670 H2641 0.950 . S
C2670 C2669 1.334 . S
C2670 C2671 1.287 . S
C2671 C2670 1.287 . S
C2671 C2672 1.524 . S
C2671 H2674 0.999 . S
C2672 H2642 0.950 . S
C2672 C2671 1.524 . S
C2672 C2673 1.415 . S
C2673 H2643 0.950 . S
C2673 C2668 1.363 . S
C2673 C2672 1.415 . S
H2674 C2671 0.999 . S
H2675 C2656 0.913 . S
H2676 C2694 0.951 . S
H2677 C2696 0.951 . S
H2678 C2698 0.929 1_554 S
H2679 C2699 0.950 . S
H2680 C2701 0.950 . S
H2681 C2704 0.950 . S
H2682 C2705 0.950 . S
H2683 C2707 0.950 . S
H2684 C2708 0.950 . S
H2685 C2709 0.951 . S
H2686 C2711 0.951 . S
H2687 C2713 0.950 . S
H2688 C2714 0.950 . S
H2689 C2716 0.950 . S
H2690 C2719 0.950 . S
H2691 C2720 0.950 . S
H2692 C2722 0.970 . S
H2693 C2723 0.950 1_554 S
C2694 H2676 0.951 . S
C2694 C2695 1.366 . S
C2694 C2696 1.388 . S
C2695 C2694 1.366 . S
C2695 C2699 1.385 1_556 S
C2696 H2677 0.951 . S
C2696 C2694 1.388 . S
C2696 C2697 1.366 . S
C2697 C2696 1.366 . S
C2697 C2698 1.447 . S
C2697 C2700 1.499 . S
C2698 H2678 0.929 1_556 S
C2698 C2697 1.447 . S
C2698 C2699 1.362 1_556 S
C2699 H2679 0.950 . S
C2699 C2695 1.385 1_554 S
C2699 C2698 1.362 1_554 S
C2700 C2697 1.499 . S
C2700 C2701 1.373 . S
C2700 C2702 1.389 . S
C2701 H2680 0.950 . S
C2701 C2700 1.373 . S
C2701 C2717 1.377 . S
C2702 C2700 1.389 . S
C2702 C2703 1.524 . S
C2702 C2716 1.377 . S
C2703 C2702 1.524 . S
C2703 C2704 1.397 . S
C2703 C2708 1.363 . S
C2704 H2681 0.950 . S
C2704 C2703 1.397 . S
C2704 C2705 1.334 . S
C2705 H2682 0.950 . S
C2705 C2704 1.334 . S
C2705 C2706 1.287 . S
C2706 C2705 1.287 . S
C2706 C2707 1.524 . S
C2706 H2725 0.913 . S
C2707 H2683 0.950 . S
C2707 C2706 1.524 . S
C2707 C2708 1.415 . S
C2708 H2684 0.950 . S
C2708 C2703 1.363 . S
C2708 C2707 1.415 . S
C2709 H2685 0.951 . S
C2709 C2710 1.366 . S
C2709 C2711 1.388 . S
C2710 C2709 1.366 . S
C2710 C2714 1.385 . S
C2711 H2686 0.951 . S
C2711 C2709 1.388 . S
C2711 C2712 1.366 . S
C2712 C2711 1.366 . S
C2712 C2713 1.414 . S
C2712 C2715 1.499 . S
C2713 H2687 0.950 . S
C2713 C2712 1.414 . S
C2713 C2714 1.374 . S
C2714 H2688 0.950 . S
C2714 C2710 1.385 . S
C2714 C2713 1.374 . S
C2715 C2712 1.499 . S
C2715 C2716 1.373 . S
C2715 C2717 1.389 . S
C2716 H2689 0.950 . S
C2716 C2702 1.377 . S
C2716 C2715 1.373 . S
C2717 C2701 1.377 . S
C2717 C2715 1.389 . S
C2717 C2718 1.524 . S
C2718 C2717 1.524 . S
C2718 C2719 1.397 . S
C2718 C2723 1.363 . S
C2719 H2690 0.950 . S
C2719 C2718 1.397 . S
C2719 C2720 1.334 . S
C2720 H2691 0.950 . S
C2720 C2719 1.334 . S
C2720 C2721 1.287 . S
C2721 C2720 1.287 . S
C2721 C2722 1.507 1_556 S
C2721 H2724 0.999 . S
C2722 H2692 0.970 . S
C2722 C2721 1.507 1_554 S
C2722 C2723 1.409 1_554 S
C2723 H2693 0.950 1_556 S
C2723 C2718 1.363 . S
C2723 C2722 1.409 1_556 S
H2724 C2721 0.999 . S
H2725 C2706 0.913 . S
H2726 C2744 0.951 . S
H2727 C2746 0.951 . S
H2728 C2748 0.950 . S
H2729 C2749 0.950 . S
H2730 C2751 0.950 . S
H2731 C2754 0.950 . S
H2732 C2755 0.950 . S
H2733 C2757 0.950 . S
H2734 C2758 0.950 1_556 S
H2735 C2759 0.951 . S
H2736 C2761 0.951 . S
H2737 C2763 0.950 . S
H2738 C2764 0.950 . S
H2739 C2766 0.950 . S
H2740 C2769 0.950 . S
H2741 C2770 0.950 . S
H2742 C2772 0.950 . S
H2743 C2773 0.950 . S
C2744 H2726 0.951 . S
C2744 C2745 1.366 . S
C2744 C2746 1.388 . S
C2745 C2744 1.366 . S
C2745 C2749 1.385 . S
C2746 H2727 0.951 . S
C2746 C2744 1.388 . S
C2746 C2747 1.366 . S
C2747 C2746 1.366 . S
C2747 C2748 1.414 . S
C2747 C2750 1.499 . S
C2748 H2728 0.950 . S
C2748 C2747 1.414 . S
C2748 C2749 1.374 . S
C2749 H2729 0.950 . S
C2749 C2745 1.385 . S
C2749 C2748 1.374 . S
C2750 C2747 1.499 . S
C2750 C2751 1.373 . S
C2750 C2752 1.389 . S
C2751 H2730 0.950 . S
C2751 C2750 1.373 . S
C2751 C2767 1.377 . S
C2752 C2750 1.389 . S
C2752 C2753 1.544 . S
C2752 C2766 1.377 . S
C2753 C2752 1.544 . S
C2753 C2754 1.379 1_556 S
C2753 C2758 1.361 1_556 S
C2754 H2731 0.950 . S
C2754 C2753 1.379 1_554 S
C2754 C2755 1.334 . S
C2755 H2732 0.950 . S
C2755 C2754 1.334 . S
C2755 C2756 1.287 . S
C2756 C2755 1.287 . S
C2756 C2757 1.524 . S
C2756 H2775 0.913 . S
C2757 H2733 0.950 . S
C2757 C2756 1.524 . S
C2757 C2758 1.415 . S
C2758 H2734 0.950 1_554 S
C2758 C2753 1.361 1_554 S
C2758 C2757 1.415 . S
C2759 H2735 0.951 . S
C2759 C2760 1.366 . S
C2759 C2761 1.388 . S
C2760 C2759 1.366 . S
C2760 C2764 1.385 . S
C2761 H2736 0.951 . S
C2761 C2759 1.388 . S
C2761 C2762 1.366 . S
C2762 C2761 1.366 . S
C2762 C2763 1.414 . S
C2762 C2765 1.499 . S
C2763 H2737 0.950 . S
C2763 C2762 1.414 . S
C2763 C2764 1.374 . S
C2764 H2738 0.950 . S
C2764 C2760 1.385 . S
C2764 C2763 1.374 . S
C2765 C2762 1.499 . S
C2765 C2766 1.373 . S
C2765 C2767 1.389 . S
C2766 H2739 0.950 . S
C2766 C2752 1.377 . S
C2766 C2765 1.373 . S
C2767 C2751 1.377 . S
C2767 C2765 1.389 . S
C2767 C2768 1.524 . S
C2768 C2767 1.524 . S
C2768 C2769 1.397 . S
C2768 C2773 1.363 . S
C2769 H2740 0.950 . S
C2769 C2768 1.397 . S
C2769 C2770 1.334 . S
C2770 H2741 0.950 . S
C2770 C2769 1.334 . S
C2770 C2771 1.287 . S
C2771 C2770 1.287 . S
C2771 C2772 1.524 . S
C2771 H2774 0.999 . S
C2772 H2742 0.950 . S
C2772 C2771 1.524 . S
C2772 C2773 1.415 . S
C2773 H2743 0.950 . S
C2773 C2768 1.363 . S
C2773 C2772 1.415 . S
H2774 C2771 0.999 . S
H2775 C2756 0.913 . S
H2776 C2794 0.951 1_554 S
H2777 C2796 0.951 . S
H2778 C2798 0.950 . S
H2779 C2799 0.950 . S
H2780 C2801 0.950 . S
H2781 C2804 0.950 . S
H2782 C2805 0.950 . S
H2783 C2807 0.950 . S
H2784 C2808 0.932 1_556 S
H2785 C2809 0.951 . S
H2786 C2811 0.951 . S
H2787 C2813 0.950 . S
H2788 C2814 0.950 . S
H2789 C2816 0.950 . S
H2790 C2819 0.950 . S
H2791 C2820 0.950 . S
H2792 C2822 0.950 . S
H2793 C2823 0.950 . S
C2794 H2776 0.951 1_556 S
C2794 C2795 1.366 . S
C2794 C2796 1.388 . S
C2795 C2794 1.366 . S
C2795 C2799 1.385 . S
C2796 H2777 0.951 . S
C2796 C2794 1.388 . S
C2796 C2797 1.366 . S
C2797 C2796 1.366 . S
C2797 C2798 1.414 . S
C2797 C2800 1.499 . S
C2798 H2778 0.950 . S
C2798 C2797 1.414 . S
C2798 C2799 1.374 . S
C2799 H2779 0.950 . S
C2799 C2795 1.385 . S
C2799 C2798 1.374 . S
C2800 C2797 1.499 . S
C2800 C2801 1.373 . S
C2800 C2802 1.389 . S
C2801 H2780 0.950 . S
C2801 C2800 1.373 . S
C2801 C2817 1.377 . S
C2802 C2800 1.389 . S
C2802 C2803 1.524 1_556 S
C2802 C2816 1.377 . S
C2803 C2802 1.524 1_554 S
C2803 C2804 1.397 . S
C2803 C2808 1.363 . S
C2804 H2781 0.950 . S
C2804 C2803 1.397 . S
C2804 C2805 1.334 . S
C2805 H2782 0.950 . S
C2805 C2804 1.334 . S
C2805 C2806 1.287 . S
C2806 C2805 1.287 . S
C2806 C2807 1.524 . S
C2806 H2825 0.913 . S
C2807 H2783 0.950 . S
C2807 C2806 1.524 . S
C2807 C2808 1.415 . S
C2808 H2784 0.932 1_554 S
C2808 C2803 1.363 . S
C2808 C2807 1.415 . S
C2809 H2785 0.951 . S
C2809 C2810 1.366 . S
C2809 C2811 1.388 . S
C2810 C2809 1.366 . S
C2810 C2814 1.385 . S
C2811 H2786 0.951 . S
C2811 C2809 1.388 . S
C2811 C2812 1.366 . S
C2812 C2811 1.366 . S
C2812 C2813 1.414 . S
C2812 C2815 1.499 . S
C2813 H2787 0.950 . S
C2813 C2812 1.414 . S
C2813 C2814 1.374 . S
C2814 H2788 0.950 . S
C2814 C2810 1.385 . S
C2814 C2813 1.374 . S
C2815 C2812 1.499 . S
C2815 C2816 1.373 . S
C2815 C2817 1.389 . S
C2816 H2789 0.950 . S
C2816 C2802 1.377 . S
C2816 C2815 1.373 . S
C2817 C2801 1.377 . S
C2817 C2815 1.389 . S
C2817 C2818 1.524 . S
C2818 C2817 1.524 . S
C2818 C2819 1.397 . S
C2818 C2823 1.363 . S
C2819 H2790 0.950 . S
C2819 C2818 1.397 . S
C2819 C2820 1.334 . S
C2820 H2791 0.950 . S
C2820 C2819 1.334 . S
C2820 C2821 1.287 . S
C2821 C2820 1.287 . S
C2821 C2822 1.524 . S
C2821 H2824 0.999 . S
C2822 H2792 0.950 . S
C2822 C2821 1.524 . S
C2822 C2823 1.415 . S
C2823 H2793 0.950 . S
C2823 C2818 1.363 . S
C2823 C2822 1.415 . S
H2824 C2821 0.999 . S
H2825 C2806 0.913 . S
H2826 C2844 0.951 . S
H2827 C2846 0.951 . S
H2828 C2848 0.950 . S
H2829 C2849 0.950 . S
H2830 C2851 0.950 . S
H2831 C2854 0.950 . S
H2832 C2855 0.950 . S
H2833 C2857 0.950 . S
H2834 C2858 0.950 . S
H2835 C2859 0.951 . S
H2836 C2861 0.951 . S
H2837 C2863 0.950 . S
H2838 C2864 0.950 . S
H2839 C2866 0.950 . S
H2840 C2869 0.950 . S
H2841 C2870 0.950 . S
H2842 C2872 0.950 . S
H2843 C2873 0.950 . S
C2844 H2826 0.951 . S
C2844 C2845 1.366 . S
C2844 C2846 1.388 . S
C2845 C2844 1.366 . S
C2845 C2849 1.385 . S
C2846 H2827 0.951 . S
C2846 C2844 1.388 . S
C2846 C2847 1.366 . S
C2847 C2846 1.366 . S
C2847 C2848 1.414 . S
C2847 C2850 1.499 . S
C2848 H2828 0.950 . S
C2848 C2847 1.414 . S
C2848 C2849 1.374 . S
C2849 H2829 0.950 . S
C2849 C2845 1.385 . S
C2849 C2848 1.374 . S
C2850 C2847 1.499 . S
C2850 C2851 1.373 . S
C2850 C2852 1.389 . S
C2851 H2830 0.950 . S
C2851 C2850 1.373 . S
C2851 C2867 1.377 . S
C2852 C2850 1.389 . S
C2852 C2853 1.524 . S
C2852 C2866 1.377 . S
C2853 C2852 1.524 . S
C2853 C2854 1.397 . S
C2853 C2858 1.363 . S
C2854 H2831 0.950 . S
C2854 C2853 1.397 . S
C2854 C2855 1.334 . S
C2855 H2832 0.950 . S
C2855 C2854 1.334 . S
C2855 C2856 1.287 . S
C2856 C2855 1.287 . S
C2856 C2857 1.524 . S
C2856 H2875 0.913 . S
C2857 H2833 0.950 . S
C2857 C2856 1.524 . S
C2857 C2858 1.415 . S
C2858 H2834 0.950 . S
C2858 C2853 1.363 . S
C2858 C2857 1.415 . S
C2859 H2835 0.951 . S
C2859 C2860 1.366 . S
C2859 C2861 1.388 . S
C2860 C2859 1.366 . S
C2860 C2864 1.385 . S
C2861 H2836 0.951 . S
C2861 C2859 1.388 . S
C2861 C2862 1.366 . S
C2862 C2861 1.366 . S
C2862 C2863 1.414 . S
C2862 C2865 1.499 . S
C2863 H2837 0.950 . S
C2863 C2862 1.414 . S
C2863 C2864 1.374 . S
C2864 H2838 0.950 . S
C2864 C2860 1.385 . S
C2864 C2863 1.374 . S
C2865 C2862 1.499 . S
C2865 C2866 1.373 . S
C2865 C2867 1.389 . S
C2866 H2839 0.950 . S
C2866 C2852 1.377 . S
C2866 C2865 1.373 . S
C2867 C2851 1.377 . S
C2867 C2865 1.389 . S
C2867 C2868 1.524 . S
C2868 C2867 1.524 . S
C2868 C2869 1.397 . S
C2868 C2873 1.363 . S
C2869 H2840 0.950 . S
C2869 C2868 1.397 . S
C2869 C2870 1.334 . S
C2870 H2841 0.950 . S
C2870 C2869 1.334 . S
C2870 C2871 1.287 . S
C2871 C2870 1.287 . S
C2871 C2872 1.524 . S
C2871 H2874 0.999 . S
C2872 H2842 0.950 . S
C2872 C2871 1.524 . S
C2872 C2873 1.415 . S
C2873 H2843 0.950 . S
C2873 C2868 1.363 . S
C2873 C2872 1.415 . S
H2874 C2871 0.999 . S
H2875 C2856 0.913 . S
H2876 C2894 0.951 . S
H2877 C2896 0.951 . S
H2878 C2898 0.950 . S
H2879 C2899 0.950 . S
H2880 C2901 0.950 . S
H2881 C2904 0.950 . S
H2882 C2905 0.950 . S
H2883 C2907 0.950 . S
H2884 C2908 0.950 . S
H2885 C2909 0.951 . S
H2886 C2911 0.951 . S
H2887 C2913 0.950 . S
H2888 C2914 0.950 . S
H2889 C2916 0.950 . S
H2890 C2919 0.950 . S
H2891 C2920 0.950 . S
H2892 C2922 0.950 . S
H2893 C2923 0.950 . S
C2894 H2876 0.951 . S
C2894 C2895 1.366 . S
C2894 C2896 1.388 . S
C2895 C2894 1.366 . S
C2895 C2899 1.385 . S
C2896 H2877 0.951 . S
C2896 C2894 1.388 . S
C2896 C2897 1.366 . S
C2897 C2896 1.366 . S
C2897 C2898 1.414 . S
C2897 C2900 1.499 . S
C2898 H2878 0.950 . S
C2898 C2897 1.414 . S
C2898 C2899 1.374 . S
C2899 H2879 0.950 . S
C2899 C2895 1.385 . S
C2899 C2898 1.374 . S
C2900 C2897 1.499 . S
C2900 C2901 1.373 . S
C2900 C2902 1.389 . S
C2901 H2880 0.950 . S
C2901 C2900 1.373 . S
C2901 C2917 1.377 . S
C2902 C2900 1.389 . S
C2902 C2903 1.524 . S
C2902 C2916 1.377 . S
C2903 C2902 1.524 . S
C2903 C2904 1.397 . S
C2903 C2908 1.363 . S
C2904 H2881 0.950 . S
C2904 C2903 1.397 . S
C2904 C2905 1.334 . S
C2905 H2882 0.950 . S
C2905 C2904 1.334 . S
C2905 C2906 1.287 . S
C2906 C2905 1.287 . S
C2906 C2907 1.524 . S
C2906 H2925 0.913 . S
C2907 H2883 0.950 . S
C2907 C2906 1.524 . S
C2907 C2908 1.415 . S
C2908 H2884 0.950 . S
C2908 C2903 1.363 . S
C2908 C2907 1.415 . S
C2909 H2885 0.951 . S
C2909 C2910 1.366 . S
C2909 C2911 1.388 . S
C2910 C2909 1.366 . S
C2910 C2914 1.385 . S
C2911 H2886 0.951 . S
C2911 C2909 1.388 . S
C2911 C2912 1.366 . S
C2912 C2911 1.366 . S
C2912 C2913 1.414 . S
C2912 C2915 1.499 . S
C2913 H2887 0.950 . S
C2913 C2912 1.414 . S
C2913 C2914 1.374 . S
C2914 H2888 0.950 . S
C2914 C2910 1.385 . S
C2914 C2913 1.374 . S
C2915 C2912 1.499 . S
C2915 C2916 1.373 . S
C2915 C2917 1.389 . S
C2916 H2889 0.950 . S
C2916 C2902 1.377 . S
C2916 C2915 1.373 . S
C2917 C2901 1.377 . S
C2917 C2915 1.389 . S
C2917 C2918 1.524 . S
C2918 C2917 1.524 . S
C2918 C2919 1.397 . S
C2918 C2923 1.363 . S
C2919 H2890 0.950 . S
C2919 C2918 1.397 . S
C2919 C2920 1.334 . S
C2920 H2891 0.950 . S
C2920 C2919 1.334 . S
C2920 C2921 1.287 . S
C2921 C2920 1.287 . S
C2921 C2922 1.524 . S
C2921 H2924 0.999 . S
C2922 H2892 0.950 . S
C2922 C2921 1.524 . S
C2922 C2923 1.415 . S
C2923 H2893 0.950 . S
C2923 C2918 1.363 . S
C2923 C2922 1.415 . S
H2924 C2921 0.999 . S
H2925 C2906 0.913 . S
H2926 C2944 0.951 . S
H2927 C2946 0.951 . S
H2928 C2948 0.950 . S
H2929 C2949 0.950 . S
H2930 C2951 0.950 . S
H2931 C2954 0.950 . S
H2932 C2955 0.950 . S
H2933 C2957 0.950 . S
H2934 C2958 0.950 . S
H2935 C2959 0.951 . S
H2936 C2961 0.951 . S
H2937 C2963 0.950 . S
H2938 C2964 0.950 . S
H2939 C2966 0.950 . S
H2940 C2969 0.950 . S
H2941 C2970 0.950 . S
H2942 C2972 0.950 . S
H2943 C2973 0.950 . S
C2944 H2926 0.951 . S
C2944 C2945 1.366 . S
C2944 C2946 1.388 . S
C2945 C2944 1.366 . S
C2945 C2949 1.385 . S
C2946 H2927 0.951 . S
C2946 C2944 1.388 . S
C2946 C2947 1.366 . S
C2947 C2946 1.366 . S
C2947 C2948 1.414 . S
C2947 C2950 1.499 . S
C2948 H2928 0.950 . S
C2948 C2947 1.414 . S
C2948 C2949 1.374 . S
C2949 H2929 0.950 . S
C2949 C2945 1.385 . S
C2949 C2948 1.374 . S
C2950 C2947 1.499 . S
C2950 C2951 1.373 . S
C2950 C2952 1.389 . S
C2951 H2930 0.950 . S
C2951 C2950 1.373 . S
C2951 C2967 1.377 . S
C2952 C2950 1.389 . S
C2952 C2953 1.524 . S
C2952 C2966 1.377 . S
C2953 C2952 1.524 . S
C2953 C2954 1.397 . S
C2953 C2958 1.363 . S
C2954 H2931 0.950 . S
C2954 C2953 1.397 . S
C2954 C2955 1.334 . S
C2955 H2932 0.950 . S
C2955 C2954 1.334 . S
C2955 C2956 1.287 . S
C2956 C2955 1.287 . S
C2956 C2957 1.524 . S
C2956 H2975 0.913 . S
C2957 H2933 0.950 . S
C2957 C2956 1.524 . S
C2957 C2958 1.415 . S
C2958 H2934 0.950 . S
C2958 C2953 1.363 . S
C2958 C2957 1.415 . S
C2959 H2935 0.951 . S
C2959 C2960 1.366 . S
C2959 C2961 1.388 . S
C2960 C2959 1.366 . S
C2960 C2964 1.385 . S
C2961 H2936 0.951 . S
C2961 C2959 1.388 . S
C2961 C2962 1.366 . S
C2962 C2961 1.366 . S
C2962 C2963 1.414 . S
C2962 C2965 1.499 . S
C2963 H2937 0.950 . S
C2963 C2962 1.414 . S
C2963 C2964 1.374 . S
C2964 H2938 0.950 . S
C2964 C2960 1.385 . S
C2964 C2963 1.374 . S
C2965 C2962 1.499 . S
C2965 C2966 1.373 . S
C2965 C2967 1.389 . S
C2966 H2939 0.950 . S
C2966 C2952 1.377 . S
C2966 C2965 1.373 . S
C2967 C2951 1.377 . S
C2967 C2965 1.389 . S
C2967 C2968 1.524 . S
C2968 C2967 1.524 . S
C2968 C2969 1.397 . S
C2968 C2973 1.363 . S
C2969 H2940 0.950 . S
C2969 C2968 1.397 . S
C2969 C2970 1.334 . S
C2970 H2941 0.950 . S
C2970 C2969 1.334 . S
C2970 C2971 1.287 . S
C2971 C2970 1.287 . S
C2971 C2972 1.524 . S
C2971 H2974 0.999 . S
C2972 H2942 0.950 . S
C2972 C2971 1.524 . S
C2972 C2973 1.415 . S
C2973 H2943 0.950 . S
C2973 C2968 1.363 . S
C2973 C2972 1.415 . S
H2974 C2971 0.999 . S
H2975 C2956 0.913 . S
H2976 C2994 0.951 . S
H2977 C2996 0.951 . S
H2978 C2998 0.950 . S
H2979 C2999 0.950 . S
H2980 C3001 0.950 . S
H2981 C3004 0.950 . S
H2982 C3005 0.950 . S
H2983 C3007 0.950 . S
H2984 C3008 0.950 . S
H2985 C3009 0.951 . S
H2986 C3011 0.951 . S
H2987 C3013 0.950 . S
H2988 C3014 0.950 . S
H2989 C3016 0.950 . S
H2990 C3019 0.950 . S
H2991 C3020 0.950 . S
H2992 C3022 0.950 . S
H2993 C3023 0.950 . S
C2994 H2976 0.951 . S
C2994 C2995 1.366 . S
C2994 C2996 1.388 . S
C2995 C2994 1.366 . S
C2995 C2999 1.385 . S
C2996 H2977 0.951 . S
C2996 C2994 1.388 . S
C2996 C2997 1.366 . S
C2997 C2996 1.366 . S
C2997 C2998 1.414 . S
C2997 C3000 1.499 . S
C2998 H2978 0.950 . S
C2998 C2997 1.414 . S
C2998 C2999 1.374 . S
C2999 H2979 0.950 . S
C2999 C2995 1.385 . S
C2999 C2998 1.374 . S
C3000 C2997 1.499 . S
C3000 C3001 1.373 . S
C3000 C3002 1.389 . S
C3001 H2980 0.950 . S
C3001 C3000 1.373 . S
C3001 C3017 1.377 . S
C3002 C3000 1.389 . S
C3002 C3003 1.524 . S
C3002 C3016 1.377 . S
C3003 C3002 1.524 . S
C3003 C3004 1.397 . S
C3003 C3008 1.363 . S
C3004 H2981 0.950 . S
C3004 C3003 1.397 . S
C3004 C3005 1.334 . S
C3005 H2982 0.950 . S
C3005 C3004 1.334 . S
C3005 C3006 1.287 . S
C3006 C3005 1.287 . S
C3006 C3007 1.524 . S
C3006 H3025 0.913 . S
C3007 H2983 0.950 . S
C3007 C3006 1.524 . S
C3007 C3008 1.415 . S
C3008 H2984 0.950 . S
C3008 C3003 1.363 . S
C3008 C3007 1.415 . S
C3009 H2985 0.951 . S
C3009 C3010 1.366 . S
C3009 C3011 1.388 . S
C3010 C3009 1.366 . S
C3010 C3014 1.385 . S
C3011 H2986 0.951 . S
C3011 C3009 1.388 . S
C3011 C3012 1.366 . S
C3012 C3011 1.366 . S
C3012 C3013 1.414 . S
C3012 C3015 1.499 . S
C3013 H2987 0.950 . S
C3013 C3012 1.414 . S
C3013 C3014 1.374 . S
C3014 H2988 0.950 . S
C3014 C3010 1.385 . S
C3014 C3013 1.374 . S
C3015 C3012 1.499 . S
C3015 C3016 1.373 . S
C3015 C3017 1.389 . S
C3016 H2989 0.950 . S
C3016 C3002 1.377 . S
C3016 C3015 1.373 . S
C3017 C3001 1.377 . S
C3017 C3015 1.389 . S
C3017 C3018 1.524 . S
C3018 C3017 1.524 . S
C3018 C3019 1.397 . S
C3018 C3023 1.363 . S
C3019 H2990 0.950 . S
C3019 C3018 1.397 . S
C3019 C3020 1.334 . S
C3020 H2991 0.950 . S
C3020 C3019 1.334 . S
C3020 C3021 1.287 . S
C3021 C3020 1.287 . S
C3021 C3022 1.524 . S
C3021 H3024 0.999 . S
C3022 H2992 0.950 . S
C3022 C3021 1.524 . S
C3022 C3023 1.415 . S
C3023 H2993 0.950 . S
C3023 C3018 1.363 . S
C3023 C3022 1.415 . S
H3024 C3021 0.999 . S
H3025 C3006 0.913 . S
H3026 C3044 0.951 . S
H3027 C3046 0.951 . S
H3028 C3048 0.950 . S
H3029 C3049 0.950 . S
H3030 C3051 0.950 . S
H3031 C3054 0.950 . S
H3032 C3055 0.950 . S
H3033 C3057 0.950 . S
H3034 C3058 0.950 . S
H3035 C3059 0.951 . S
H3036 C3061 0.951 . S
H3037 C3063 0.950 . S
H3038 C3064 0.950 . S
H3039 C3066 0.950 . S
H3040 C3069 0.950 . S
H3041 C3070 0.950 . S
H3042 C3072 0.950 . S
H3043 C3073 0.950 . S
C3044 H3026 0.951 . S
C3044 C3045 1.366 . S
C3044 C3046 1.388 . S
C3045 C3044 1.366 . S
C3045 C3049 1.385 . S
C3046 H3027 0.951 . S
C3046 C3044 1.388 . S
C3046 C3047 1.366 . S
C3047 C3046 1.366 . S
C3047 C3048 1.414 . S
C3047 C3050 1.499 . S
C3048 H3028 0.950 . S
C3048 C3047 1.414 . S
C3048 C3049 1.374 . S
C3049 H3029 0.950 . S
C3049 C3045 1.385 . S
C3049 C3048 1.374 . S
C3050 C3047 1.499 . S
C3050 C3051 1.373 . S
C3050 C3052 1.389 . S
C3051 H3030 0.950 . S
C3051 C3050 1.373 . S
C3051 C3067 1.377 . S
C3052 C3050 1.389 . S
C3052 C3053 1.524 . S
C3052 C3066 1.377 . S
C3053 C3052 1.524 . S
C3053 C3054 1.397 . S
C3053 C3058 1.363 . S
C3054 H3031 0.950 . S
C3054 C3053 1.397 . S
C3054 C3055 1.334 . S
C3055 H3032 0.950 . S
C3055 C3054 1.334 . S
C3055 C3056 1.287 . S
C3056 C3055 1.287 . S
C3056 C3057 1.524 . S
C3056 H3075 0.913 . S
C3057 H3033 0.950 . S
C3057 C3056 1.524 . S
C3057 C3058 1.415 . S
C3058 H3034 0.950 . S
C3058 C3053 1.363 . S
C3058 C3057 1.415 . S
C3059 H3035 0.951 . S
C3059 C3060 1.366 . S
C3059 C3061 1.388 . S
C3060 C3059 1.366 . S
C3060 C3064 1.385 . S
C3061 H3036 0.951 . S
C3061 C3059 1.388 . S
C3061 C3062 1.366 . S
C3062 C3061 1.366 . S
C3062 C3063 1.414 . S
C3062 C3065 1.499 . S
C3063 H3037 0.950 . S
C3063 C3062 1.414 . S
C3063 C3064 1.374 . S
C3064 H3038 0.950 . S
C3064 C3060 1.385 . S
C3064 C3063 1.374 . S
C3065 C3062 1.499 . S
C3065 C3066 1.373 . S
C3065 C3067 1.389 . S
C3066 H3039 0.950 . S
C3066 C3052 1.377 . S
C3066 C3065 1.373 . S
C3067 C3051 1.377 . S
C3067 C3065 1.389 . S
C3067 C3068 1.524 . S
C3068 C3067 1.524 . S
C3068 C3069 1.397 . S
C3068 C3073 1.363 . S
C3069 H3040 0.950 . S
C3069 C3068 1.397 . S
C3069 C3070 1.334 . S
C3070 H3041 0.950 . S
C3070 C3069 1.334 . S
C3070 C3071 1.287 . S
C3071 C3070 1.287 . S
C3071 C3072 1.524 . S
C3071 H3074 0.999 . S
C3072 H3042 0.950 . S
C3072 C3071 1.524 . S
C3072 C3073 1.415 . S
C3073 H3043 0.950 . S
C3073 C3068 1.363 . S
C3073 C3072 1.415 . S
H3074 C3071 0.999 . S
H3075 C3056 0.913 . S
H3076 C3094 0.951 . S
H3077 C3096 0.951 . S
H3078 C3098 0.950 . S
H3079 C3099 0.950 . S
H3080 C3101 0.950 . S
H3081 C3104 0.950 . S
H3082 C3105 0.950 . S
H3083 C3107 0.950 . S
H3084 C3108 0.950 . S
H3085 C3109 0.951 . S
H3086 C3111 0.951 . S
H3087 C3113 0.950 . S
H3088 C3114 0.950 . S
H3089 C3116 0.950 . S
H3090 C3119 0.950 . S
H3091 C3120 0.950 . S
H3092 C3122 0.950 . S
H3093 C3123 0.950 . S
C3094 H3076 0.951 . S
C3094 C3095 1.366 . S
C3094 C3096 1.388 . S
C3095 C3094 1.366 . S
C3095 C3099 1.385 . S
C3096 H3077 0.951 . S
C3096 C3094 1.388 . S
C3096 C3097 1.366 . S
C3097 C3096 1.366 . S
C3097 C3098 1.414 . S
C3097 C3100 1.499 . S
C3098 H3078 0.950 . S
C3098 C3097 1.414 . S
C3098 C3099 1.374 . S
C3099 H3079 0.950 . S
C3099 C3095 1.385 . S
C3099 C3098 1.374 . S
C3100 C3097 1.499 . S
C3100 C3101 1.373 . S
C3100 C3102 1.389 . S
C3101 H3080 0.950 . S
C3101 C3100 1.373 . S
C3101 C3117 1.377 . S
C3102 C3100 1.389 . S
C3102 C3103 1.524 . S
C3102 C3116 1.377 . S
C3103 C3102 1.524 . S
C3103 C3104 1.397 . S
C3103 C3108 1.363 . S
C3104 H3081 0.950 . S
C3104 C3103 1.397 . S
C3104 C3105 1.334 . S
C3105 H3082 0.950 . S
C3105 C3104 1.334 . S
C3105 C3106 1.287 . S
C3106 C3105 1.287 . S
C3106 C3107 1.524 . S
C3106 H3125 0.913 . S
C3107 H3083 0.950 . S
C3107 C3106 1.524 . S
C3107 C3108 1.415 . S
C3108 H3084 0.950 . S
C3108 C3103 1.363 . S
C3108 C3107 1.415 . S
C3109 H3085 0.951 . S
C3109 C3110 1.366 . S
C3109 C3111 1.388 . S
C3110 C3109 1.366 . S
C3110 C3114 1.385 . S
C3111 H3086 0.951 . S
C3111 C3109 1.388 . S
C3111 C3112 1.366 . S
C3112 C3111 1.366 . S
C3112 C3113 1.414 . S
C3112 C3115 1.499 . S
C3113 H3087 0.950 . S
C3113 C3112 1.414 . S
C3113 C3114 1.374 . S
C3114 H3088 0.950 . S
C3114 C3110 1.385 . S
C3114 C3113 1.374 . S
C3115 C3112 1.499 . S
C3115 C3116 1.373 . S
C3115 C3117 1.389 . S
C3116 H3089 0.950 . S
C3116 C3102 1.377 . S
C3116 C3115 1.373 . S
C3117 C3101 1.377 . S
C3117 C3115 1.389 . S
C3117 C3118 1.524 . S
C3118 C3117 1.524 . S
C3118 C3119 1.397 . S
C3118 C3123 1.363 . S
C3119 H3090 0.950 . S
C3119 C3118 1.397 . S
C3119 C3120 1.334 . S
C3120 H3091 0.950 . S
C3120 C3119 1.334 . S
C3120 C3121 1.287 . S
C3121 C3120 1.287 . S
C3121 C3122 1.524 . S
C3121 H3124 0.999 . S
C3122 H3092 0.950 . S
C3122 C3121 1.524 . S
C3122 C3123 1.415 . S
C3123 H3093 0.950 . S
C3123 C3118 1.363 . S
C3123 C3122 1.415 . S
H3124 C3121 0.999 . S
H3125 C3106 0.913 . S
H3126 C3144 0.951 1_655 S
H3127 C3146 0.951 1_655 S
H3128 C3148 0.950 . S
H3129 C3149 0.950 . S
H3130 C3151 0.950 . S
H3131 C3154 0.950 1_455 S
H3132 C3155 0.950 . S
H3133 C3157 0.950 . S
H3134 C3158 0.950 . S
H3135 C3159 0.951 . S
H3136 C3161 0.951 . S
H3137 C3163 0.950 . S
H3138 C3164 0.950 . S
H3139 C3166 1.018 . S
H3140 C3169 0.950 . S
H3141 C3170 0.950 . S
H3142 C3172 0.950 . S
H3143 C3173 0.950 . S
C3144 H3126 0.951 1_455 S
C3144 C3145 1.366 . S
C3144 C3146 1.388 . S
C3145 C3144 1.366 . S
C3145 C3149 1.385 . S
C3146 H3127 0.951 1_455 S
C3146 C3144 1.388 . S
C3146 C3147 1.366 . S
C3147 C3146 1.366 . S
C3147 C3148 1.414 . S
C3147 C3150 1.499 . S
C3148 H3128 0.950 . S
C3148 C3147 1.414 . S
C3148 C3149 1.374 . S
C3149 H3129 0.950 . S
C3149 C3145 1.385 . S
C3149 C3148 1.374 . S
C3150 C3147 1.499 . S
C3150 C3151 1.373 . S
C3150 C3152 1.455 . S
C3151 H3130 0.950 . S
C3151 C3150 1.373 . S
C3151 C3167 1.377 . S
C3152 C3150 1.455 . S
C3152 C3153 1.510 1_455 S
C3152 C3166 1.284 1_455 S
C3153 C3152 1.510 1_655 S
C3153 C3154 1.397 . S
C3153 C3158 1.363 . S
C3154 H3131 0.950 1_655 S
C3154 C3153 1.397 . S
C3154 C3155 1.334 . S
C3155 H3132 0.950 . S
C3155 C3154 1.334 . S
C3155 C3156 1.287 . S
C3156 C3155 1.287 . S
C3156 C3157 1.524 . S
C3156 H3175 0.913 . S
C3157 H3133 0.950 . S
C3157 C3156 1.524 . S
C3157 C3158 1.415 . S
C3158 H3134 0.950 . S
C3158 C3153 1.363 . S
C3158 C3157 1.415 . S
C3159 H3135 0.951 . S
C3159 C3160 1.366 . S
C3159 C3161 1.388 . S
C3160 C3159 1.366 . S
C3160 C3164 1.385 1_455 S
C3161 H3136 0.951 . S
C3161 C3159 1.388 . S
C3161 C3162 1.366 . S
C3162 C3161 1.366 . S
C3162 C3163 1.414 1_455 S
C3162 C3165 1.499 . S
C3163 H3137 0.950 . S
C3163 C3162 1.414 1_655 S
C3163 C3164 1.374 . S
C3164 H3138 0.950 . S
C3164 C3160 1.385 1_655 S
C3164 C3163 1.374 . S
C3165 C3162 1.499 . S
C3165 C3166 1.361 1_455 S
C3165 C3167 1.389 . S
C3166 H3139 1.018 . S
C3166 C3152 1.284 1_655 S
C3166 C3165 1.361 1_655 S
C3167 C3151 1.377 . S
C3167 C3165 1.389 . S
C3167 C3168 1.524 . S
C3168 C3167 1.524 . S
C3168 C3169 1.397 . S
C3168 C3173 1.363 . S
C3169 H3140 0.950 . S
C3169 C3168 1.397 . S
C3169 C3170 1.334 . S
C3170 H3141 0.950 . S
C3170 C3169 1.334 . S
C3170 C3171 1.287 . S
C3171 C3170 1.287 . S
C3171 C3172 1.524 . S
C3171 H3174 0.999 . S
C3172 H3142 0.950 . S
C3172 C3171 1.524 . S
C3172 C3173 1.415 . S
C3173 H3143 0.950 . S
C3173 C3168 1.363 . S
C3173 C3172 1.415 . S
H3174 C3171 0.999 . S
H3175 C3156 0.913 . S
H3176 C3194 0.951 . S
H3177 C3196 0.951 . S
H3178 C3198 0.950 . S
H3179 C3199 0.950 . S
H3180 C3201 0.950 . S
H3181 C3204 0.950 . S
H3182 C3205 0.950 . S
H3183 C3207 0.950 . S
H3184 C3208 0.950 . S
H3185 C3209 0.951 . S
H3186 C3211 0.951 . S
H3187 C3213 0.950 . S
H3188 C3214 0.950 . S
H3189 C3216 0.950 . S
H3190 C3219 0.950 . S
H3191 C3220 0.950 . S
H3192 C3222 0.950 . S
H3193 C3223 0.950 . S
C3194 H3176 0.951 . S
C3194 C3195 1.366 . S
C3194 C3196 1.388 . S
C3195 C3194 1.366 . S
C3195 C3199 1.385 . S
C3196 H3177 0.951 . S
C3196 C3194 1.388 . S
C3196 C3197 1.366 . S
C3197 C3196 1.366 . S
C3197 C3198 1.414 . S
C3197 C3200 1.499 . S
C3198 H3178 0.950 . S
C3198 C3197 1.414 . S
C3198 C3199 1.374 . S
C3199 H3179 0.950 . S
C3199 C3195 1.385 . S
C3199 C3198 1.374 . S
C3200 C3197 1.499 . S
C3200 C3201 1.373 . S
C3200 C3202 1.389 . S
C3201 H3180 0.950 . S
C3201 C3200 1.373 . S
C3201 C3217 1.377 . S
C3202 C3200 1.389 . S
C3202 C3203 1.524 . S
C3202 C3216 1.377 . S
C3203 C3202 1.524 . S
C3203 C3204 1.397 . S
C3203 C3208 1.363 . S
C3204 H3181 0.950 . S
C3204 C3203 1.397 . S
C3204 C3205 1.334 . S
C3205 H3182 0.950 . S
C3205 C3204 1.334 . S
C3205 C3206 1.287 . S
C3206 C3205 1.287 . S
C3206 C3207 1.524 . S
C3206 H3225 0.913 . S
C3207 H3183 0.950 . S
C3207 C3206 1.524 . S
C3207 C3208 1.415 . S
C3208 H3184 0.950 . S
C3208 C3203 1.363 . S
C3208 C3207 1.415 . S
C3209 H3185 0.951 . S
C3209 C3210 1.366 . S
C3209 C3211 1.388 . S
C3210 C3209 1.366 . S
C3210 C3214 1.385 . S
C3211 H3186 0.951 . S
C3211 C3209 1.388 . S
C3211 C3212 1.366 . S
C3212 C3211 1.366 . S
C3212 C3213 1.414 . S
C3212 C3215 1.499 . S
C3213 H3187 0.950 . S
C3213 C3212 1.414 . S
C3213 C3214 1.374 . S
C3214 H3188 0.950 . S
C3214 C3210 1.385 . S
C3214 C3213 1.374 . S
C3215 C3212 1.499 . S
C3215 C3216 1.373 . S
C3215 C3217 1.389 . S
C3216 H3189 0.950 . S
C3216 C3202 1.377 . S
C3216 C3215 1.373 . S
C3217 C3201 1.377 . S
C3217 C3215 1.389 . S
C3217 C3218 1.524 . S
C3218 C3217 1.524 . S
C3218 C3219 1.397 . S
C3218 C3223 1.363 . S
C3219 H3190 0.950 . S
C3219 C3218 1.397 . S
C3219 C3220 1.334 . S
C3220 H3191 0.950 . S
C3220 C3219 1.334 . S
C3220 C3221 1.287 . S
C3221 C3220 1.287 . S
C3221 C3222 1.524 . S
C3221 H3224 0.999 . S
C3222 H3192 0.950 . S
C3222 C3221 1.524 . S
C3222 C3223 1.415 . S
C3223 H3193 0.950 . S
C3223 C3218 1.363 . S
C3223 C3222 1.415 . S
H3224 C3221 0.999 . S
H3225 C3206 0.913 . S
H3226 C3244 0.951 . S
H3227 C3246 0.951 . S
H3228 C3248 0.950 . S
H3229 C3249 0.950 . S
H3230 C3251 0.947 . S
H3231 C3254 0.950 . S
H3232 C3255 0.950 . S
H3233 C3257 0.950 . S
H3234 C3258 0.950 . S
H3235 C3259 0.951 . S
H3236 C3261 0.951 . S
H3237 C3263 0.950 . S
H3238 C3264 0.950 . S
H3239 C3266 0.950 . S
H3240 C3269 0.950 . S
H3241 C3270 0.950 . S
H3242 C3272 0.950 . S
H3243 C3273 0.950 . S
C3244 H3226 0.951 . S
C3244 C3245 1.366 . S
C3244 C3246 1.388 . S
C3245 C3244 1.366 . S
C3245 C3249 1.385 . S
C3246 H3227 0.951 . S
C3246 C3244 1.388 . S
C3246 C3247 1.366 . S
C3247 C3246 1.366 . S
C3247 C3248 1.414 . S
C3247 C3250 1.499 . S
C3248 H3228 0.950 . S
C3248 C3247 1.414 . S
C3248 C3249 1.374 . S
C3249 H3229 0.950 . S
C3249 C3245 1.385 . S
C3249 C3248 1.374 . S
C3250 C3247 1.499 . S
C3250 C3251 1.374 1_565 S
C3250 C3252 1.389 . S
C3251 H3230 0.947 . S
C3251 C3250 1.374 1_545 S
C3251 C3267 1.378 . S
C3252 C3250 1.389 . S
C3252 C3253 1.524 . S
C3252 C3266 1.377 . S
C3253 C3252 1.524 . S
C3253 C3254 1.397 . S
C3253 C3258 1.363 . S
C3254 H3231 0.950 . S
C3254 C3253 1.397 . S
C3254 C3255 1.334 . S
C3255 H3232 0.950 . S
C3255 C3254 1.334 . S
C3255 C3256 1.287 . S
C3256 C3255 1.287 . S
C3256 C3257 1.524 . S
C3256 H3275 0.913 . S
C3257 H3233 0.950 . S
C3257 C3256 1.524 . S
C3257 C3258 1.415 . S
C3258 H3234 0.950 . S
C3258 C3253 1.363 . S
C3258 C3257 1.415 . S
C3259 H3235 0.951 . S
C3259 C3260 1.366 . S
C3259 C3261 1.388 . S
C3260 C3259 1.366 . S
C3260 C3264 1.385 . S
C3261 H3236 0.951 . S
C3261 C3259 1.388 . S
C3261 C3262 1.366 . S
C3262 C3261 1.366 . S
C3262 C3263 1.414 . S
C3262 C3265 1.499 . S
C3263 H3237 0.950 . S
C3263 C3262 1.414 . S
C3263 C3264 1.374 . S
C3264 H3238 0.950 . S
C3264 C3260 1.385 . S
C3264 C3263 1.374 . S
C3265 C3262 1.499 . S
C3265 C3266 1.373 . S
C3265 C3267 1.389 1_565 S
C3266 H3239 0.950 . S
C3266 C3252 1.377 . S
C3266 C3265 1.373 . S
C3267 C3251 1.378 . S
C3267 C3265 1.389 1_545 S
C3267 C3268 1.524 . S
C3268 C3267 1.524 . S
C3268 C3269 1.397 . S
C3268 C3273 1.363 . S
C3269 H3240 0.950 . S
C3269 C3268 1.397 . S
C3269 C3270 1.334 . S
C3270 H3241 0.950 . S
C3270 C3269 1.334 . S
C3270 C3271 1.287 . S
C3271 C3270 1.287 . S
C3271 C3272 1.524 . S
C3271 H3274 0.999 . S
C3272 H3242 0.950 . S
C3272 C3271 1.524 . S
C3272 C3273 1.415 . S
C3273 H3243 0.950 . S
C3273 C3268 1.363 . S
C3273 C3272 1.415 . S
H3274 C3271 0.999 . S
H3275 C3256 0.913 . S
H3276 C3294 0.951 . S
H3277 C3296 0.951 . S
H3278 C3298 0.950 . S
H3279 C3299 0.950 . S
H3280 C3301 0.950 . S
H3281 C3304 0.950 . S
H3282 C3305 0.950 . S
H3283 C3307 0.950 . S
H3284 C3308 0.950 . S
H3285 C3309 0.951 . S
H3286 C3311 0.951 . S
H3287 C3313 0.950 . S
H3288 C3314 0.950 . S
H3289 C3316 0.950 . S
H3290 C3319 0.950 . S
H3291 C3320 0.950 . S
H3292 C3322 0.950 . S
H3293 C3323 0.950 . S
C3294 H3276 0.951 . S
C3294 C3295 1.366 . S
C3294 C3296 1.388 . S
C3295 C3294 1.366 . S
C3295 C3299 1.385 . S
C3296 H3277 0.951 . S
C3296 C3294 1.388 . S
C3296 C3297 1.366 . S
C3297 C3296 1.366 . S
C3297 C3298 1.414 . S
C3297 C3300 1.499 . S
C3298 H3278 0.950 . S
C3298 C3297 1.414 . S
C3298 C3299 1.374 . S
C3299 H3279 0.950 . S
C3299 C3295 1.385 . S
C3299 C3298 1.374 . S
C3300 C3297 1.499 . S
C3300 C3301 1.373 . S
C3300 C3302 1.389 1_565 S
C3301 H3280 0.950 . S
C3301 C3300 1.373 . S
C3301 C3317 1.377 . S
C3302 C3300 1.389 1_545 S
C3302 C3303 1.524 . S
C3302 C3316 1.377 . S
C3303 C3302 1.524 . S
C3303 C3304 1.397 . S
C3303 C3308 1.363 . S
C3304 H3281 0.950 . S
C3304 C3303 1.397 . S
C3304 C3305 1.334 . S
C3305 H3282 0.950 . S
C3305 C3304 1.334 . S
C3305 C3306 1.287 . S
C3306 C3305 1.287 . S
C3306 C3307 1.524 . S
C3306 H3325 0.913 . S
C3307 H3283 0.950 . S
C3307 C3306 1.524 . S
C3307 C3308 1.415 . S
C3308 H3284 0.950 . S
C3308 C3303 1.363 . S
C3308 C3307 1.415 . S
C3309 H3285 0.951 . S
C3309 C3310 1.398 . S
C3309 C3311 1.388 . S
C3310 C3309 1.398 . S
C3310 C3314 1.403 1_565 S
C3311 H3286 0.951 . S
C3311 C3309 1.388 . S
C3311 C3312 1.366 . S
C3312 C3311 1.366 . S
C3312 C3313 1.414 1_565 S
C3312 C3315 1.499 . S
C3313 H3287 0.950 . S
C3313 C3312 1.414 1_545 S
C3313 C3314 1.374 . S
C3314 H3288 0.950 . S
C3314 C3310 1.403 1_545 S
C3314 C3313 1.374 . S
C3315 C3312 1.499 . S
C3315 C3316 1.373 1_565 S
C3315 C3317 1.389 . S
C3316 H3289 0.950 . S
C3316 C3302 1.377 . S
C3316 C3315 1.373 1_545 S
C3317 C3301 1.377 . S
C3317 C3315 1.389 . S
C3317 C3318 1.524 . S
C3318 C3317 1.524 . S
C3318 C3319 1.397 . S
C3318 C3323 1.363 . S
C3319 H3290 0.950 . S
C3319 C3318 1.397 . S
C3319 C3320 1.334 . S
C3320 H3291 0.950 . S
C3320 C3319 1.334 . S
C3320 C3321 1.287 . S
C3321 C3320 1.287 . S
C3321 C3322 1.524 . S
C3321 H3324 0.999 . S
C3322 H3292 0.950 . S
C3322 C3321 1.524 . S
C3322 C3323 1.415 . S
C3323 H3293 0.950 . S
C3323 C3318 1.363 . S
C3323 C3322 1.415 . S
H3324 C3321 0.999 . S
H3325 C3306 0.913 . S
H3326 C3344 0.951 . S
H3327 C3346 0.951 . S
H3328 C3348 0.950 . S
H3329 C3349 0.950 . S
H3330 C3351 0.950 . S
H3331 C3354 0.950 . S
H3332 C3355 0.950 . S
H3333 C3357 0.950 . S
H3334 C3358 0.953 . S
H3335 C3359 0.951 . S
H3336 C3361 0.951 . S
H3337 C3363 0.950 . S
H3338 C3364 0.950 . S
H3339 C3366 0.950 1_655 S
H3340 C3369 0.950 . S
H3341 C3370 0.950 . S
H3342 C3372 0.950 . S
H3343 C3373 0.950 . S
C3344 H3326 0.951 . S
C3344 C3345 1.366 . S
C3344 C3346 1.388 . S
C3345 C3344 1.366 . S
C3345 C3349 1.385 . S
C3346 H3327 0.951 . S
C3346 C3344 1.388 . S
C3346 C3347 1.366 . S
C3347 C3346 1.366 . S
C3347 C3348 1.414 . S
C3347 C3350 1.499 . S
C3348 H3328 0.950 . S
C3348 C3347 1.414 . S
C3348 C3349 1.374 . S
C3349 H3329 0.950 . S
C3349 C3345 1.385 . S
C3349 C3348 1.374 . S
C3350 C3347 1.499 . S
C3350 C3351 1.373 . S
C3350 C3352 1.389 . S
C3351 H3330 0.950 . S
C3351 C3350 1.373 . S
C3351 C3367 1.377 . S
C3352 C3350 1.389 . S
C3352 C3353 1.524 1_455 S
C3352 C3366 1.377 . S
C3353 C3352 1.524 1_655 S
C3353 C3354 1.397 . S
C3353 C3358 1.362 1_655 S
C3354 H3331 0.950 . S
C3354 C3353 1.397 . S
C3354 C3355 1.334 . S
C3355 H3332 0.950 . S
C3355 C3354 1.334 . S
C3355 C3356 1.287 . S
C3356 C3355 1.287 . S
C3356 C3357 1.524 . S
C3356 H3375 0.913 . S
C3357 H3333 0.950 . S
C3357 C3356 1.524 . S
C3357 C3358 1.413 1_655 S
C3358 H3334 0.953 . S
C3358 C3353 1.362 1_455 S
C3358 C3357 1.413 1_455 S
C3359 H3335 0.951 . S
C3359 C3360 1.363 . S
C3359 C3361 1.388 . S
C3360 C3359 1.363 . S
C3360 C3364 1.385 1_655 S
C3361 H3336 0.951 . S
C3361 C3359 1.388 . S
C3361 C3362 1.366 1_655 S
C3362 C3361 1.366 1_455 S
C3362 C3363 1.414 . S
C3362 C3365 1.499 . S
C3363 H3337 0.950 . S
C3363 C3362 1.414 . S
C3363 C3364 1.374 . S
C3364 H3338 0.950 . S
C3364 C3360 1.385 1_455 S
C3364 C3363 1.374 . S
C3365 C3362 1.499 . S
C3365 C3366 1.373 . S
C3365 C3367 1.389 . S
C3366 H3339 0.950 1_455 S
C3366 C3352 1.377 . S
C3366 C3365 1.373 . S
C3367 C3351 1.377 . S
C3367 C3365 1.389 . S
C3367 C3368 1.524 . S
C3368 C3367 1.524 . S
C3368 C3369 1.397 . S
C3368 C3373 1.363 . S
C3369 H3340 0.950 . S
C3369 C3368 1.397 . S
C3369 C3370 1.334 . S
C3370 H3341 0.950 . S
C3370 C3369 1.334 . S
C3370 C3371 1.287 . S
C3371 C3370 1.287 . S
C3371 C3372 1.524 . S
C3371 H3374 0.999 . S
C3372 H3342 0.950 . S
C3372 C3371 1.524 . S
C3372 C3373 1.415 . S
C3373 H3343 0.950 . S
C3373 C3368 1.363 . S
C3373 C3372 1.415 . S
H3374 C3371 0.999 . S
H3375 C3356 0.913 . S
H3376 C3394 0.951 . S
H3377 C3396 0.951 . S
H3378 C3398 0.950 . S
H3379 C3399 0.950 . S
H3380 C3401 0.950 . S
H3381 C3404 0.950 . S
H3382 C3405 0.950 . S
H3383 C3407 0.950 . S
H3384 C3408 0.950 . S
H3385 C3409 0.951 . S
H3386 C3411 0.951 . S
H3387 C3413 0.950 . S
H3388 C3414 0.950 . S
H3389 C3416 0.950 . S
H3390 C3419 0.950 . S
H3391 C3420 0.950 . S
H3392 C3422 0.950 . S
H3393 C3423 0.950 . S
C3394 H3376 0.951 . S
C3394 C3395 1.366 . S
C3394 C3396 1.388 . S
C3395 C3394 1.366 . S
C3395 C3399 1.385 . S
C3396 H3377 0.951 . S
C3396 C3394 1.388 . S
C3396 C3397 1.366 . S
C3397 C3396 1.366 . S
C3397 C3398 1.414 . S
C3397 C3400 1.499 . S
C3398 H3378 0.950 . S
C3398 C3397 1.414 . S
C3398 C3399 1.374 . S
C3399 H3379 0.950 . S
C3399 C3395 1.385 . S
C3399 C3398 1.374 . S
C3400 C3397 1.499 . S
C3400 C3401 1.373 . S
C3400 C3402 1.389 . S
C3401 H3380 0.950 . S
C3401 C3400 1.373 . S
C3401 C3417 1.377 . S
C3402 C3400 1.389 . S
C3402 C3403 1.524 . S
C3402 C3416 1.377 . S
C3403 C3402 1.524 . S
C3403 C3404 1.397 . S
C3403 C3408 1.363 . S
C3404 H3381 0.950 . S
C3404 C3403 1.397 . S
C3404 C3405 1.334 . S
C3405 H3382 0.950 . S
C3405 C3404 1.334 . S
C3405 C3406 1.287 . S
C3406 C3405 1.287 . S
C3406 C3407 1.524 . S
C3406 H3425 0.913 . S
C3407 H3383 0.950 . S
C3407 C3406 1.524 . S
C3407 C3408 1.415 . S
C3408 H3384 0.950 . S
C3408 C3403 1.363 . S
C3408 C3407 1.415 . S
C3409 H3385 0.951 . S
C3409 C3410 1.366 . S
C3409 C3411 1.388 . S
C3410 C3409 1.366 . S
C3410 C3414 1.385 . S
C3411 H3386 0.951 . S
C3411 C3409 1.388 . S
C3411 C3412 1.366 . S
C3412 C3411 1.366 . S
C3412 C3413 1.414 . S
C3412 C3415 1.499 . S
C3413 H3387 0.950 . S
C3413 C3412 1.414 . S
C3413 C3414 1.374 . S
C3414 H3388 0.950 . S
C3414 C3410 1.385 . S
C3414 C3413 1.374 . S
C3415 C3412 1.499 . S
C3415 C3416 1.373 . S
C3415 C3417 1.389 . S
C3416 H3389 0.950 . S
C3416 C3402 1.377 . S
C3416 C3415 1.373 . S
C3417 C3401 1.377 . S
C3417 C3415 1.389 . S
C3417 C3418 1.524 . S
C3418 C3417 1.524 . S
C3418 C3419 1.397 . S
C3418 C3423 1.363 . S
C3419 H3390 0.950 . S
C3419 C3418 1.397 . S
C3419 C3420 1.334 . S
C3420 H3391 0.950 . S
C3420 C3419 1.334 . S
C3420 C3421 1.287 . S
C3421 C3420 1.287 . S
C3421 C3422 1.524 . S
C3421 H3424 0.999 . S
C3422 H3392 0.950 . S
C3422 C3421 1.524 . S
C3422 C3423 1.415 . S
C3423 H3393 0.950 . S
C3423 C3418 1.363 . S
C3423 C3422 1.415 . S
H3424 C3421 0.999 . S
H3425 C3406 0.913 . S
H3426 C3444 0.951 . S
H3427 C3446 0.951 . S
H3428 C3448 0.950 . S
H3429 C3449 0.950 . S
H3430 C3451 0.950 . S
H3431 C3454 0.950 . S
H3432 C3455 0.950 . S
H3433 C3457 0.950 . S
H3434 C3458 0.950 . S
H3435 C3459 0.951 . S
H3436 C3461 0.951 . S
H3437 C3463 0.950 . S
H3438 C3464 0.950 . S
H3439 C3466 0.950 . S
H3440 C3469 0.950 . S
H3441 C3470 0.950 . S
H3442 C3472 0.950 . S
H3443 C3473 0.950 . S
C3444 H3426 0.951 . S
C3444 C3445 1.366 . S
C3444 C3446 1.388 . S
C3445 C3444 1.366 . S
C3445 C3449 1.385 . S
C3446 H3427 0.951 . S
C3446 C3444 1.388 . S
C3446 C3447 1.366 . S
C3447 C3446 1.366 . S
C3447 C3448 1.414 . S
C3447 C3450 1.499 . S
C3448 H3428 0.950 . S
C3448 C3447 1.414 . S
C3448 C3449 1.374 . S
C3449 H3429 0.950 . S
C3449 C3445 1.385 . S
C3449 C3448 1.374 . S
C3450 C3447 1.499 . S
C3450 C3451 1.373 . S
C3450 C3452 1.389 . S
C3451 H3430 0.950 . S
C3451 C3450 1.373 . S
C3451 C3467 1.377 . S
C3452 C3450 1.389 . S
C3452 C3453 1.524 . S
C3452 C3466 1.377 . S
C3453 C3452 1.524 . S
C3453 C3454 1.397 . S
C3453 C3458 1.363 . S
C3454 H3431 0.950 . S
C3454 C3453 1.397 . S
C3454 C3455 1.334 . S
C3455 H3432 0.950 . S
C3455 C3454 1.334 . S
C3455 C3456 1.287 . S
C3456 C3455 1.287 . S
C3456 C3457 1.524 . S
C3456 H3475 0.913 . S
C3457 H3433 0.950 . S
C3457 C3456 1.524 . S
C3457 C3458 1.415 . S
C3458 H3434 0.950 . S
C3458 C3453 1.363 . S
C3458 C3457 1.415 . S
C3459 H3435 0.951 . S
C3459 C3460 1.366 . S
C3459 C3461 1.388 . S
C3460 C3459 1.366 . S
C3460 C3464 1.385 . S
C3461 H3436 0.951 . S
C3461 C3459 1.388 . S
C3461 C3462 1.366 . S
C3462 C3461 1.366 . S
C3462 C3463 1.414 . S
C3462 C3465 1.499 . S
C3463 H3437 0.950 . S
C3463 C3462 1.414 . S
C3463 C3464 1.374 . S
C3464 H3438 0.950 . S
C3464 C3460 1.385 . S
C3464 C3463 1.374 . S
C3465 C3462 1.499 . S
C3465 C3466 1.373 . S
C3465 C3467 1.389 . S
C3466 H3439 0.950 . S
C3466 C3452 1.377 . S
C3466 C3465 1.373 . S
C3467 C3451 1.377 . S
C3467 C3465 1.389 . S
C3467 C3468 1.524 . S
C3468 C3467 1.524 . S
C3468 C3469 1.397 . S
C3468 C3473 1.363 . S
C3469 H3440 0.950 . S
C3469 C3468 1.397 . S
C3469 C3470 1.334 . S
C3470 H3441 0.950 . S
C3470 C3469 1.334 . S
C3470 C3471 1.287 . S
C3471 C3470 1.287 . S
C3471 C3472 1.524 . S
C3471 H3474 0.999 . S
C3472 H3442 0.950 . S
C3472 C3471 1.524 . S
C3472 C3473 1.415 . S
C3473 H3443 0.950 . S
C3473 C3468 1.363 . S
C3473 C3472 1.415 . S
H3474 C3471 0.999 . S
H3475 C3456 0.913 . S
H3476 C3494 0.951 . S
H3477 C3496 0.951 . S
H3478 C3498 0.950 . S
H3479 C3499 0.950 . S
H3480 C3501 0.950 . S
H3481 C3504 0.950 . S
H3482 C3505 0.950 . S
H3483 C3507 0.950 . S
H3484 C3508 0.950 . S
H3485 C3509 0.951 . S
H3486 C3511 0.951 . S
H3487 C3513 0.950 . S
H3488 C3514 0.950 . S
H3489 C3516 0.950 . S
H3490 C3519 0.950 . S
H3491 C3520 0.950 . S
H3492 C3522 0.950 . S
H3493 C3523 0.950 . S
C3494 H3476 0.951 . S
C3494 C3495 1.366 . S
C3494 C3496 1.388 . S
C3495 C3494 1.366 . S
C3495 C3499 1.385 . S
C3496 H3477 0.951 . S
C3496 C3494 1.388 . S
C3496 C3497 1.366 . S
C3497 C3496 1.366 . S
C3497 C3498 1.414 . S
C3497 C3500 1.499 . S
C3498 H3478 0.950 . S
C3498 C3497 1.414 . S
C3498 C3499 1.374 . S
C3499 H3479 0.950 . S
C3499 C3495 1.385 . S
C3499 C3498 1.374 . S
C3500 C3497 1.499 . S
C3500 C3501 1.373 . S
C3500 C3502 1.389 . S
C3501 H3480 0.950 . S
C3501 C3500 1.373 . S
C3501 C3517 1.377 . S
C3502 C3500 1.389 . S
C3502 C3503 1.524 . S
C3502 C3516 1.377 . S
C3503 C3502 1.524 . S
C3503 C3504 1.397 . S
C3503 C3508 1.363 . S
C3504 H3481 0.950 . S
C3504 C3503 1.397 . S
C3504 C3505 1.334 . S
C3505 H3482 0.950 . S
C3505 C3504 1.334 . S
C3505 C3506 1.287 . S
C3506 C3505 1.287 . S
C3506 C3507 1.524 . S
C3506 H3525 0.913 . S
C3507 H3483 0.950 . S
C3507 C3506 1.524 . S
C3507 C3508 1.415 . S
C3508 H3484 0.950 . S
C3508 C3503 1.363 . S
C3508 C3507 1.415 . S
C3509 H3485 0.951 . S
C3509 C3510 1.366 . S
C3509 C3511 1.388 . S
C3510 C3509 1.366 . S
C3510 C3514 1.385 . S
C3511 H3486 0.951 . S
C3511 C3509 1.388 . S
C3511 C3512 1.366 . S
C3512 C3511 1.366 . S
C3512 C3513 1.414 . S
C3512 C3515 1.499 . S
C3513 H3487 0.950 . S
C3513 C3512 1.414 . S
C3513 C3514 1.374 . S
C3514 H3488 0.950 . S
C3514 C3510 1.385 . S
C3514 C3513 1.374 . S
C3515 C3512 1.499 . S
C3515 C3516 1.373 . S
C3515 C3517 1.389 . S
C3516 H3489 0.950 . S
C3516 C3502 1.377 . S
C3516 C3515 1.373 . S
C3517 C3501 1.377 . S
C3517 C3515 1.389 . S
C3517 C3518 1.524 . S
C3518 C3517 1.524 . S
C3518 C3519 1.397 . S
C3518 C3523 1.363 . S
C3519 H3490 0.950 . S
C3519 C3518 1.397 . S
C3519 C3520 1.334 . S
C3520 H3491 0.950 . S
C3520 C3519 1.334 . S
C3520 C3521 1.287 . S
C3521 C3520 1.287 . S
C3521 C3522 1.524 . S
C3521 H3524 0.999 . S
C3522 H3492 0.950 . S
C3522 C3521 1.524 . S
C3522 C3523 1.415 . S
C3523 H3493 0.950 . S
C3523 C3518 1.363 . S
C3523 C3522 1.415 . S
H3524 C3521 0.999 . S
H3525 C3506 0.913 . S
H3526 C3544 0.951 . S
H3527 C3546 0.951 . S
H3528 C3548 0.950 . S
H3529 C3549 0.950 . S
H3530 C3551 0.950 . S
H3531 C3554 0.950 . S
H3532 C3555 0.950 . S
H3533 C3557 0.950 . S
H3534 C3558 0.950 . S
H3535 C3559 0.951 . S
H3536 C3561 0.951 . S
H3537 C3563 0.950 . S
H3538 C3564 0.950 . S
H3539 C3566 0.950 . S
H3540 C3569 0.950 . S
H3541 C3570 0.950 . S
H3542 C3572 0.950 . S
H3543 C3573 0.950 . S
C3544 H3526 0.951 . S
C3544 C3545 1.366 . S
C3544 C3546 1.388 . S
C3545 C3544 1.366 . S
C3545 C3549 1.385 . S
C3546 H3527 0.951 . S
C3546 C3544 1.388 . S
C3546 C3547 1.366 . S
C3547 C3546 1.366 . S
C3547 C3548 1.414 . S
C3547 C3550 1.499 . S
C3548 H3528 0.950 . S
C3548 C3547 1.414 . S
C3548 C3549 1.374 . S
C3549 H3529 0.950 . S
C3549 C3545 1.385 . S
C3549 C3548 1.374 . S
C3550 C3547 1.499 . S
C3550 C3551 1.373 . S
C3550 C3552 1.389 . S
C3551 H3530 0.950 . S
C3551 C3550 1.373 . S
C3551 C3567 1.377 . S
C3552 C3550 1.389 . S
C3552 C3553 1.524 . S
C3552 C3566 1.377 . S
C3553 C3552 1.524 . S
C3553 C3554 1.397 . S
C3553 C3558 1.363 . S
C3554 H3531 0.950 . S
C3554 C3553 1.397 . S
C3554 C3555 1.334 . S
C3555 H3532 0.950 . S
C3555 C3554 1.334 . S
C3555 C3556 1.287 . S
C3556 C3555 1.287 . S
C3556 C3557 1.524 . S
C3556 H3575 0.913 . S
C3557 H3533 0.950 . S
C3557 C3556 1.524 . S
C3557 C3558 1.415 . S
C3558 H3534 0.950 . S
C3558 C3553 1.363 . S
C3558 C3557 1.415 . S
C3559 H3535 0.951 . S
C3559 C3560 1.366 . S
C3559 C3561 1.388 . S
C3560 C3559 1.366 . S
C3560 C3564 1.385 . S
C3561 H3536 0.951 . S
C3561 C3559 1.388 . S
C3561 C3562 1.366 . S
C3562 C3561 1.366 . S
C3562 C3563 1.414 . S
C3562 C3565 1.499 . S
C3563 H3537 0.950 . S
C3563 C3562 1.414 . S
C3563 C3564 1.374 . S
C3564 H3538 0.950 . S
C3564 C3560 1.385 . S
C3564 C3563 1.374 . S
C3565 C3562 1.499 . S
C3565 C3566 1.373 . S
C3565 C3567 1.389 . S
C3566 H3539 0.950 . S
C3566 C3552 1.377 . S
C3566 C3565 1.373 . S
C3567 C3551 1.377 . S
C3567 C3565 1.389 . S
C3567 C3568 1.524 . S
C3568 C3567 1.524 . S
C3568 C3569 1.397 . S
C3568 C3573 1.363 . S
C3569 H3540 0.950 . S
C3569 C3568 1.397 . S
C3569 C3570 1.334 . S
C3570 H3541 0.950 . S
C3570 C3569 1.334 . S
C3570 C3571 1.287 . S
C3571 C3570 1.287 . S
C3571 C3572 1.524 . S
C3571 H3574 0.999 . S
C3572 H3542 0.950 . S
C3572 C3571 1.524 . S
C3572 C3573 1.415 . S
C3573 H3543 0.950 . S
C3573 C3568 1.363 . S
C3573 C3572 1.415 . S
H3574 C3571 0.999 . S
H3575 C3556 0.913 . S
H3576 C3594 0.951 . S
H3577 C3596 0.951 . S
H3578 C3598 0.950 . S
H3579 C3599 0.950 . S
H3580 C3601 0.950 1_565 S
H3581 C3604 0.950 . S
H3582 C3605 0.950 . S
H3583 C3607 0.950 . S
H3584 C3608 0.950 . S
H3585 C3609 0.951 . S
H3586 C3611 0.951 . S
H3587 C3613 0.950 . S
H3588 C3614 0.950 . S
H3589 C3616 0.950 . S
H3590 C3619 0.950 . S
H3591 C3620 0.950 . S
H3592 C3622 0.950 . S
H3593 C3623 0.950 . S
C3594 H3576 0.951 . S
C3594 C3595 1.366 . S
C3594 C3596 1.388 . S
C3595 C3594 1.366 . S
C3595 C3599 1.385 . S
C3596 H3577 0.951 . S
C3596 C3594 1.388 . S
C3596 C3597 1.366 . S
C3597 C3596 1.366 . S
C3597 C3598 1.414 . S
C3597 C3600 1.499 . S
C3598 H3578 0.950 . S
C3598 C3597 1.414 . S
C3598 C3599 1.374 . S
C3599 H3579 0.950 . S
C3599 C3595 1.385 . S
C3599 C3598 1.374 . S
C3600 C3597 1.499 . S
C3600 C3601 1.373 . S
C3600 C3602 1.389 . S
C3601 H3580 0.950 1_545 S
C3601 C3600 1.373 . S
C3601 C3617 1.359 1_545 S
C3602 C3600 1.389 . S
C3602 C3603 1.524 . S
C3602 C3616 1.377 . S
C3603 C3602 1.524 . S
C3603 C3604 1.397 . S
C3603 C3608 1.363 . S
C3604 H3581 0.950 . S
C3604 C3603 1.397 . S
C3604 C3605 1.334 . S
C3605 H3582 0.950 . S
C3605 C3604 1.334 . S
C3605 C3606 1.287 . S
C3606 C3605 1.287 . S
C3606 C3607 1.524 . S
C3606 H3625 0.913 . S
C3607 H3583 0.950 . S
C3607 C3606 1.524 . S
C3607 C3608 1.415 . S
C3608 H3584 0.950 . S
C3608 C3603 1.363 . S
C3608 C3607 1.415 . S
C3609 H3585 0.951 . S
C3609 C3610 1.366 . S
C3609 C3611 1.388 . S
C3610 C3609 1.366 . S
C3610 C3614 1.385 . S
C3611 H3586 0.951 . S
C3611 C3609 1.388 . S
C3611 C3612 1.366 . S
C3612 C3611 1.366 . S
C3612 C3613 1.414 . S
C3612 C3615 1.499 . S
C3613 H3587 0.950 . S
C3613 C3612 1.414 . S
C3613 C3614 1.374 . S
C3614 H3588 0.950 . S
C3614 C3610 1.385 . S
C3614 C3613 1.374 . S
C3615 C3612 1.499 . S
C3615 C3616 1.373 . S
C3615 C3617 1.380 1_545 S
C3616 H3589 0.950 . S
C3616 C3602 1.377 . S
C3616 C3615 1.373 . S
C3617 C3601 1.359 1_565 S
C3617 C3615 1.380 1_565 S
C3617 C3618 1.552 . S
C3618 C3617 1.552 . S
C3618 C3619 1.397 . S
C3618 C3623 1.363 . S
C3619 H3590 0.950 . S
C3619 C3618 1.397 . S
C3619 C3620 1.334 . S
C3620 H3591 0.950 . S
C3620 C3619 1.334 . S
C3620 C3621 1.287 . S
C3621 C3620 1.287 . S
C3621 C3622 1.524 . S
C3621 H3624 0.999 . S
C3622 H3592 0.950 . S
C3622 C3621 1.524 . S
C3622 C3623 1.415 . S
C3623 H3593 0.950 . S
C3623 C3618 1.363 . S
C3623 C3622 1.415 . S
H3624 C3621 0.999 . S
H3625 C3606 0.913 . S
H3626 C3644 0.951 . S
H3627 C3646 0.951 . S
H3628 C3648 0.950 . S
H3629 C3649 0.950 . S
H3630 C3651 0.950 . S
H3631 C3654 0.950 . S
H3632 C3655 0.950 . S
H3633 C3657 0.950 . S
H3634 C3658 0.950 . S
H3635 C3659 0.955 1_455 S
H3636 C3661 0.951 1_455 S
H3637 C3663 0.950 . S
H3638 C3664 0.950 . S
H3639 C3666 0.950 . S
H3640 C3669 0.950 . S
H3641 C3670 0.950 . S
H3642 C3672 0.950 . S
H3643 C3673 0.950 . S
C3644 H3626 0.951 . S
C3644 C3645 1.366 . S
C3644 C3646 1.388 . S
C3645 C3644 1.366 . S
C3645 C3649 1.385 . S
C3646 H3627 0.951 . S
C3646 C3644 1.388 . S
C3646 C3647 1.366 . S
C3647 C3646 1.366 . S
C3647 C3648 1.414 . S
C3647 C3650 1.499 . S
C3648 H3628 0.950 . S
C3648 C3647 1.414 . S
C3648 C3649 1.374 . S
C3649 H3629 0.950 . S
C3649 C3645 1.385 . S
C3649 C3648 1.374 . S
C3650 C3647 1.499 . S
C3650 C3651 1.373 1_655 S
C3650 C3652 1.389 . S
C3651 H3630 0.950 . S
C3651 C3650 1.373 1_455 S
C3651 C3667 1.377 . S
C3652 C3650 1.389 . S
C3652 C3653 1.524 . S
C3652 C3666 1.377 . S
C3653 C3652 1.524 . S
C3653 C3654 1.397 . S
C3653 C3658 1.363 . S
C3654 H3631 0.950 . S
C3654 C3653 1.397 . S
C3654 C3655 1.334 . S
C3655 H3632 0.950 . S
C3655 C3654 1.334 . S
C3655 C3656 1.287 . S
C3656 C3655 1.287 . S
C3656 C3657 1.524 . S
C3656 H3675 0.913 . S
C3657 H3633 0.950 . S
C3657 C3656 1.524 . S
C3657 C3658 1.415 . S
C3658 H3634 0.950 . S
C3658 C3653 1.363 . S
C3658 C3657 1.415 . S
C3659 H3635 0.955 1_655 S
C3659 C3660 1.373 . S
C3659 C3661 1.377 . S
C3660 C3659 1.373 . S
C3660 C3664 1.385 . S
C3661 H3636 0.951 1_655 S
C3661 C3659 1.377 . S
C3661 C3662 1.366 . S
C3662 C3661 1.366 . S
C3662 C3663 1.414 . S
C3662 C3665 1.499 . S
C3663 H3637 0.950 . S
C3663 C3662 1.414 . S
C3663 C3664 1.374 . S
C3664 H3638 0.950 . S
C3664 C3660 1.385 . S
C3664 C3663 1.374 . S
C3665 C3662 1.499 . S
C3665 C3666 1.373 . S
C3665 C3667 1.389 1_655 S
C3666 H3639 0.950 . S
C3666 C3652 1.377 . S
C3666 C3665 1.373 . S
C3667 C3651 1.377 . S
C3667 C3665 1.389 1_455 S
C3667 C3668 1.524 . S
C3668 C3667 1.524 . S
C3668 C3669 1.397 . S
C3668 C3673 1.363 . S
C3669 H3640 0.950 . S
C3669 C3668 1.397 . S
C3669 C3670 1.334 . S
C3670 H3641 0.950 . S
C3670 C3669 1.334 . S
C3670 C3671 1.287 . S
C3671 C3670 1.287 . S
C3671 C3672 1.524 . S
C3671 H3674 0.999 . S
C3672 H3642 0.950 . S
C3672 C3671 1.524 . S
C3672 C3673 1.415 . S
C3673 H3643 0.950 . S
C3673 C3668 1.363 . S
C3673 C3672 1.415 . S
H3674 C3671 0.999 . S
H3675 C3656 0.913 . S
H3676 C3694 0.951 . S
H3677 C3696 0.951 . S
H3678 C3698 0.950 . S
H3679 C3699 0.950 . S
H3680 C3701 0.950 . S
H3681 C3704 0.950 . S
H3682 C3705 0.950 . S
H3683 C3707 0.950 . S
H3684 C3708 0.950 . S
H3685 C3709 0.951 . S
H3686 C3711 0.951 . S
H3687 C3713 0.950 . S
H3688 C3714 0.950 . S
H3689 C3716 0.950 . S
H3690 C3719 0.950 . S
H3691 C3720 0.950 . S
H3692 C3722 0.950 . S
H3693 C3723 0.950 . S
C3694 H3676 0.951 . S
C3694 C3695 1.366 . S
C3694 C3696 1.388 . S
C3695 C3694 1.366 . S
C3695 C3699 1.385 . S
C3696 H3677 0.951 . S
C3696 C3694 1.388 . S
C3696 C3697 1.366 . S
C3697 C3696 1.366 . S
C3697 C3698 1.414 . S
C3697 C3700 1.499 . S
C3698 H3678 0.950 . S
C3698 C3697 1.414 . S
C3698 C3699 1.374 . S
C3699 H3679 0.950 . S
C3699 C3695 1.385 . S
C3699 C3698 1.374 . S
C3700 C3697 1.499 . S
C3700 C3701 1.373 . S
C3700 C3702 1.389 . S
C3701 H3680 0.950 . S
C3701 C3700 1.373 . S
C3701 C3717 1.377 . S
C3702 C3700 1.389 . S
C3702 C3703 1.524 . S
C3702 C3716 1.377 . S
C3703 C3702 1.524 . S
C3703 C3704 1.397 . S
C3703 C3708 1.363 . S
C3704 H3681 0.950 . S
C3704 C3703 1.397 . S
C3704 C3705 1.334 . S
C3705 H3682 0.950 . S
C3705 C3704 1.334 . S
C3705 C3706 1.287 . S
C3706 C3705 1.287 . S
C3706 C3707 1.524 . S
C3706 H3725 0.913 . S
C3707 H3683 0.950 . S
C3707 C3706 1.524 . S
C3707 C3708 1.415 . S
C3708 H3684 0.950 . S
C3708 C3703 1.363 . S
C3708 C3707 1.415 . S
C3709 H3685 0.951 . S
C3709 C3710 1.366 . S
C3709 C3711 1.388 . S
C3710 C3709 1.366 . S
C3710 C3714 1.385 . S
C3711 H3686 0.951 . S
C3711 C3709 1.388 . S
C3711 C3712 1.366 . S
C3712 C3711 1.366 . S
C3712 C3713 1.414 . S
C3712 C3715 1.499 . S
C3713 H3687 0.950 . S
C3713 C3712 1.414 . S
C3713 C3714 1.374 . S
C3714 H3688 0.950 . S
C3714 C3710 1.385 . S
C3714 C3713 1.374 . S
C3715 C3712 1.499 . S
C3715 C3716 1.373 . S
C3715 C3717 1.389 . S
C3716 H3689 0.950 . S
C3716 C3702 1.377 . S
C3716 C3715 1.373 . S
C3717 C3701 1.377 . S
C3717 C3715 1.389 . S
C3717 C3718 1.524 . S
C3718 C3717 1.524 . S
C3718 C3719 1.397 . S
C3718 C3723 1.363 . S
C3719 H3690 0.950 . S
C3719 C3718 1.397 . S
C3719 C3720 1.334 . S
C3720 H3691 0.950 . S
C3720 C3719 1.334 . S
C3720 C3721 1.287 . S
C3721 C3720 1.287 . S
C3721 C3722 1.524 . S
C3721 H3724 0.999 . S
C3722 H3692 0.950 . S
C3722 C3721 1.524 . S
C3722 C3723 1.415 . S
C3723 H3693 0.950 . S
C3723 C3718 1.363 . S
C3723 C3722 1.415 . S
H3724 C3721 0.999 . S
H3725 C3706 0.913 . S
H3726 C3744 0.951 . S
H3727 C3746 0.951 . S
H3728 C3748 0.950 . S
H3729 C3749 0.950 . S
H3730 C3751 0.950 . S
H3731 C3754 0.950 . S
H3732 C3755 0.950 . S
H3733 C3757 0.950 . S
H3734 C3758 0.950 . S
H3735 C3759 0.951 . S
H3736 C3761 0.951 . S
H3737 C3763 0.950 . S
H3738 C3764 0.950 . S
H3739 C3766 0.950 . S
H3740 C3769 0.950 . S
H3741 C3770 0.950 . S
H3742 C3772 0.950 . S
H3743 C3773 0.950 . S
C3744 H3726 0.951 . S
C3744 C3745 1.366 . S
C3744 C3746 1.388 . S
C3745 C3744 1.366 . S
C3745 C3749 1.385 . S
C3746 H3727 0.951 . S
C3746 C3744 1.388 . S
C3746 C3747 1.366 . S
C3747 C3746 1.366 . S
C3747 C3748 1.414 . S
C3747 C3750 1.499 . S
C3748 H3728 0.950 . S
C3748 C3747 1.414 . S
C3748 C3749 1.374 . S
C3749 H3729 0.950 . S
C3749 C3745 1.385 . S
C3749 C3748 1.374 . S
C3750 C3747 1.499 . S
C3750 C3751 1.373 . S
C3750 C3752 1.389 . S
C3751 H3730 0.950 . S
C3751 C3750 1.373 . S
C3751 C3767 1.377 . S
C3752 C3750 1.389 . S
C3752 C3753 1.524 . S
C3752 C3766 1.377 . S
C3753 C3752 1.524 . S
C3753 C3754 1.397 . S
C3753 C3758 1.363 . S
C3754 H3731 0.950 . S
C3754 C3753 1.397 . S
C3754 C3755 1.334 . S
C3755 H3732 0.950 . S
C3755 C3754 1.334 . S
C3755 C3756 1.287 . S
C3756 C3755 1.287 . S
C3756 C3757 1.524 . S
C3756 H3775 0.913 . S
C3757 H3733 0.950 . S
C3757 C3756 1.524 . S
C3757 C3758 1.415 . S
C3758 H3734 0.950 . S
C3758 C3753 1.363 . S
C3758 C3757 1.415 . S
C3759 H3735 0.951 . S
C3759 C3760 1.366 . S
C3759 C3761 1.388 . S
C3760 C3759 1.366 . S
C3760 C3764 1.385 . S
C3761 H3736 0.951 . S
C3761 C3759 1.388 . S
C3761 C3762 1.366 . S
C3762 C3761 1.366 . S
C3762 C3763 1.414 . S
C3762 C3765 1.499 . S
C3763 H3737 0.950 . S
C3763 C3762 1.414 . S
C3763 C3764 1.374 . S
C3764 H3738 0.950 . S
C3764 C3760 1.385 . S
C3764 C3763 1.374 . S
C3765 C3762 1.499 . S
C3765 C3766 1.373 . S
C3765 C3767 1.389 . S
C3766 H3739 0.950 . S
C3766 C3752 1.377 . S
C3766 C3765 1.373 . S
C3767 C3751 1.377 . S
C3767 C3765 1.389 . S
C3767 C3768 1.524 . S
C3768 C3767 1.524 . S
C3768 C3769 1.397 . S
C3768 C3773 1.363 . S
C3769 H3740 0.950 . S
C3769 C3768 1.397 . S
C3769 C3770 1.334 . S
C3770 H3741 0.950 . S
C3770 C3769 1.334 . S
C3770 C3771 1.287 . S
C3771 C3770 1.287 . S
C3771 C3772 1.524 . S
C3771 H3774 0.999 . S
C3772 H3742 0.950 . S
C3772 C3771 1.524 . S
C3772 C3773 1.415 . S
C3773 H3743 0.950 . S
C3773 C3768 1.363 . S
C3773 C3772 1.415 . S
H3774 C3771 0.999 . S
H3775 C3756 0.913 . S
H3776 C3794 0.951 . S
H3777 C3796 0.951 . S
H3778 C3798 0.950 . S
H3779 C3799 0.950 . S
H3780 C3801 0.950 . S
H3781 C3804 0.950 . S
H3782 C3805 0.950 . S
H3783 C3807 0.950 . S
H3784 C3808 0.950 . S
H3785 C3809 0.951 . S
H3786 C3811 0.951 . S
H3787 C3813 0.950 . S
H3788 C3814 0.950 . S
H3789 C3816 0.950 . S
H3790 C3819 0.950 . S
H3791 C3820 0.950 . S
H3792 C3822 0.950 . S
H3793 C3823 0.950 . S
C3794 H3776 0.951 . S
C3794 C3795 1.366 . S
C3794 C3796 1.388 . S
C3795 C3794 1.366 . S
C3795 C3799 1.385 . S
C3796 H3777 0.951 . S
C3796 C3794 1.388 . S
C3796 C3797 1.366 . S
C3797 C3796 1.366 . S
C3797 C3798 1.414 . S
C3797 C3800 1.499 . S
C3798 H3778 0.950 . S
C3798 C3797 1.414 . S
C3798 C3799 1.374 . S
C3799 H3779 0.950 . S
C3799 C3795 1.385 . S
C3799 C3798 1.374 . S
C3800 C3797 1.499 . S
C3800 C3801 1.373 . S
C3800 C3802 1.389 . S
C3801 H3780 0.950 . S
C3801 C3800 1.373 . S
C3801 C3817 1.377 . S
C3802 C3800 1.389 . S
C3802 C3803 1.524 . S
C3802 C3816 1.377 . S
C3803 C3802 1.524 . S
C3803 C3804 1.397 . S
C3803 C3808 1.363 . S
C3804 H3781 0.950 . S
C3804 C3803 1.397 . S
C3804 C3805 1.334 . S
C3805 H3782 0.950 . S
C3805 C3804 1.334 . S
C3805 C3806 1.287 . S
C3806 C3805 1.287 . S
C3806 C3807 1.524 . S
C3806 H3825 0.913 . S
C3807 H3783 0.950 . S
C3807 C3806 1.524 . S
C3807 C3808 1.415 . S
C3808 H3784 0.950 . S
C3808 C3803 1.363 . S
C3808 C3807 1.415 . S
C3809 H3785 0.951 . S
C3809 C3810 1.366 . S
C3809 C3811 1.388 . S
C3810 C3809 1.366 . S
C3810 C3814 1.385 . S
C3811 H3786 0.951 . S
C3811 C3809 1.388 . S
C3811 C3812 1.366 . S
C3812 C3811 1.366 . S
C3812 C3813 1.414 . S
C3812 C3815 1.499 . S
C3813 H3787 0.950 . S
C3813 C3812 1.414 . S
C3813 C3814 1.374 . S
C3814 H3788 0.950 . S
C3814 C3810 1.385 . S
C3814 C3813 1.374 . S
C3815 C3812 1.499 . S
C3815 C3816 1.373 . S
C3815 C3817 1.389 . S
C3816 H3789 0.950 . S
C3816 C3802 1.377 . S
C3816 C3815 1.373 . S
C3817 C3801 1.377 . S
C3817 C3815 1.389 . S
C3817 C3818 1.524 . S
C3818 C3817 1.524 . S
C3818 C3819 1.397 . S
C3818 C3823 1.363 . S
C3819 H3790 0.950 . S
C3819 C3818 1.397 . S
C3819 C3820 1.334 . S
C3820 H3791 0.950 . S
C3820 C3819 1.334 . S
C3820 C3821 1.287 . S
C3821 C3820 1.287 . S
C3821 C3822 1.524 . S
C3821 H3824 0.999 . S
C3822 H3792 0.950 . S
C3822 C3821 1.524 . S
C3822 C3823 1.415 . S
C3823 H3793 0.950 . S
C3823 C3818 1.363 . S
C3823 C3822 1.415 . S
H3824 C3821 0.999 . S
H3825 C3806 0.913 . S
H3826 C3844 0.951 . S
H3827 C3846 0.951 . S
H3828 C3848 0.950 . S
H3829 C3849 0.950 . S
H3830 C3851 0.950 . S
H3831 C3854 0.950 . S
H3832 C3855 0.950 . S
H3833 C3857 0.950 . S
H3834 C3858 0.950 . S
H3835 C3859 0.951 . S
H3836 C3861 0.951 . S
H3837 C3863 0.950 . S
H3838 C3864 0.950 . S
H3839 C3866 0.950 . S
H3840 C3869 0.950 . S
H3841 C3870 0.950 . S
H3842 C3872 0.950 . S
H3843 C3873 0.950 . S
C3844 H3826 0.951 . S
C3844 C3845 1.366 . S
C3844 C3846 1.388 . S
C3845 C3844 1.366 . S
C3845 C3849 1.385 . S
C3846 H3827 0.951 . S
C3846 C3844 1.388 . S
C3846 C3847 1.366 . S
C3847 C3846 1.366 . S
C3847 C3848 1.414 . S
C3847 C3850 1.499 . S
C3848 H3828 0.950 . S
C3848 C3847 1.414 . S
C3848 C3849 1.374 . S
C3849 H3829 0.950 . S
C3849 C3845 1.385 . S
C3849 C3848 1.374 . S
C3850 C3847 1.499 . S
C3850 C3851 1.373 . S
C3850 C3852 1.389 . S
C3851 H3830 0.950 . S
C3851 C3850 1.373 . S
C3851 C3867 1.377 . S
C3852 C3850 1.389 . S
C3852 C3853 1.524 . S
C3852 C3866 1.377 . S
C3853 C3852 1.524 . S
C3853 C3854 1.397 . S
C3853 C3858 1.363 . S
C3854 H3831 0.950 . S
C3854 C3853 1.397 . S
C3854 C3855 1.334 . S
C3855 H3832 0.950 . S
C3855 C3854 1.334 . S
C3855 C3856 1.287 . S
C3856 C3855 1.287 . S
C3856 C3857 1.524 . S
C3856 H3875 0.913 . S
C3857 H3833 0.950 . S
C3857 C3856 1.524 . S
C3857 C3858 1.415 . S
C3858 H3834 0.950 . S
C3858 C3853 1.363 . S
C3858 C3857 1.415 . S
C3859 H3835 0.951 . S
C3859 C3860 1.366 . S
C3859 C3861 1.388 . S
C3860 C3859 1.366 . S
C3860 C3864 1.385 . S
C3861 H3836 0.951 . S
C3861 C3859 1.388 . S
C3861 C3862 1.366 . S
C3862 C3861 1.366 . S
C3862 C3863 1.414 . S
C3862 C3865 1.499 . S
C3863 H3837 0.950 . S
C3863 C3862 1.414 . S
C3863 C3864 1.374 . S
C3864 H3838 0.950 . S
C3864 C3860 1.385 . S
C3864 C3863 1.374 . S
C3865 C3862 1.499 . S
C3865 C3866 1.373 . S
C3865 C3867 1.389 . S
C3866 H3839 0.950 . S
C3866 C3852 1.377 . S
C3866 C3865 1.373 . S
C3867 C3851 1.377 . S
C3867 C3865 1.389 . S
C3867 C3868 1.524 . S
C3868 C3867 1.524 . S
C3868 C3869 1.397 . S
C3868 C3873 1.363 . S
C3869 H3840 0.950 . S
C3869 C3868 1.397 . S
C3869 C3870 1.334 . S
C3870 H3841 0.950 . S
C3870 C3869 1.334 . S
C3870 C3871 1.287 . S
C3871 C3870 1.287 . S
C3871 C3872 1.524 . S
C3871 H3874 0.999 . S
C3872 H3842 0.950 . S
C3872 C3871 1.524 . S
C3872 C3873 1.415 . S
C3873 H3843 0.950 . S
C3873 C3868 1.363 . S
C3873 C3872 1.415 . S
H3874 C3871 0.999 . S
H3875 C3856 0.913 . S
H3876 C3894 0.951 . S
H3877 C3896 0.951 . S
H3878 C3898 0.950 . S
H3879 C3899 0.950 . S
H3880 C3901 0.950 . S
H3881 C3904 0.950 . S
H3882 C3905 0.950 . S
H3883 C3907 0.950 . S
H3884 C3908 0.950 . S
H3885 C3909 0.951 . S
H3886 C3911 0.951 . S
H3887 C3913 0.950 . S
H3888 C3914 0.950 . S
H3889 C3916 0.950 . S
H3890 C3919 0.950 . S
H3891 C3920 0.950 . S
H3892 C3922 0.950 . S
H3893 C3923 0.950 . S
C3894 H3876 0.951 . S
C3894 C3895 1.366 . S
C3894 C3896 1.388 . S
C3895 C3894 1.366 . S
C3895 C3899 1.385 . S
C3896 H3877 0.951 . S
C3896 C3894 1.388 . S
C3896 C3897 1.366 . S
C3897 C3896 1.366 . S
C3897 C3898 1.414 . S
C3897 C3900 1.499 . S
C3898 H3878 0.950 . S
C3898 C3897 1.414 . S
C3898 C3899 1.374 . S
C3899 H3879 0.950 . S
C3899 C3895 1.385 . S
C3899 C3898 1.374 . S
C3900 C3897 1.499 . S
C3900 C3901 1.373 . S
C3900 C3902 1.389 . S
C3901 H3880 0.950 . S
C3901 C3900 1.373 . S
C3901 C3917 1.377 . S
C3902 C3900 1.389 . S
C3902 C3903 1.524 . S
C3902 C3916 1.377 . S
C3903 C3902 1.524 . S
C3903 C3904 1.397 . S
C3903 C3908 1.363 . S
C3904 H3881 0.950 . S
C3904 C3903 1.397 . S
C3904 C3905 1.334 . S
C3905 H3882 0.950 . S
C3905 C3904 1.334 . S
C3905 C3906 1.287 . S
C3906 C3905 1.287 . S
C3906 C3907 1.524 . S
C3906 H3925 0.913 . S
C3907 H3883 0.950 . S
C3907 C3906 1.524 . S
C3907 C3908 1.415 . S
C3908 H3884 0.950 . S
C3908 C3903 1.363 . S
C3908 C3907 1.415 . S
C3909 H3885 0.951 . S
C3909 C3910 1.366 . S
C3909 C3911 1.388 . S
C3910 C3909 1.366 . S
C3910 C3914 1.385 . S
C3911 H3886 0.951 . S
C3911 C3909 1.388 . S
C3911 C3912 1.366 . S
C3912 C3911 1.366 . S
C3912 C3913 1.414 . S
C3912 C3915 1.499 . S
C3913 H3887 0.950 . S
C3913 C3912 1.414 . S
C3913 C3914 1.374 . S
C3914 H3888 0.950 . S
C3914 C3910 1.385 . S
C3914 C3913 1.374 . S
C3915 C3912 1.499 . S
C3915 C3916 1.373 . S
C3915 C3917 1.389 . S
C3916 H3889 0.950 . S
C3916 C3902 1.377 . S
C3916 C3915 1.373 . S
C3917 C3901 1.377 . S
C3917 C3915 1.389 . S
C3917 C3918 1.524 . S
C3918 C3917 1.524 . S
C3918 C3919 1.397 . S
C3918 C3923 1.363 . S
C3919 H3890 0.950 . S
C3919 C3918 1.397 . S
C3919 C3920 1.334 . S
C3920 H3891 0.950 . S
C3920 C3919 1.334 . S
C3920 C3921 1.287 . S
C3921 C3920 1.287 . S
C3921 C3922 1.524 . S
C3921 H3924 0.999 . S
C3922 H3892 0.950 . S
C3922 C3921 1.524 . S
C3922 C3923 1.415 . S
C3923 H3893 0.950 . S
C3923 C3918 1.363 . S
C3923 C3922 1.415 . S
H3924 C3921 0.999 . S
H3925 C3906 0.913 . S
H3926 C3944 0.951 . S
H3927 C3946 0.951 . S
H3928 C3948 0.950 . S
H3929 C3949 0.950 . S
H3930 C3951 0.950 . S
H3931 C3954 0.950 . S
H3932 C3955 0.950 . S
H3933 C3957 0.950 . S
H3934 C3958 0.950 . S
H3935 C3959 0.951 . S
H3936 C3961 0.951 . S
H3937 C3963 0.950 . S
H3938 C3964 0.950 . S
H3939 C3966 0.950 . S
H3940 C3969 0.950 . S
H3941 C3970 0.950 . S
H3942 C3972 0.950 . S
H3943 C3973 0.950 . S
C3944 H3926 0.951 . S
C3944 C3945 1.366 . S
C3944 C3946 1.388 . S
C3945 C3944 1.366 . S
C3945 C3949 1.385 . S
C3946 H3927 0.951 . S
C3946 C3944 1.388 . S
C3946 C3947 1.366 . S
C3947 C3946 1.366 . S
C3947 C3948 1.414 . S
C3947 C3950 1.499 . S
C3948 H3928 0.950 . S
C3948 C3947 1.414 . S
C3948 C3949 1.374 . S
C3949 H3929 0.950 . S
C3949 C3945 1.385 . S
C3949 C3948 1.374 . S
C3950 C3947 1.499 . S
C3950 C3951 1.373 . S
C3950 C3952 1.389 . S
C3951 H3930 0.950 . S
C3951 C3950 1.373 . S
C3951 C3967 1.377 . S
C3952 C3950 1.389 . S
C3952 C3953 1.524 . S
C3952 C3966 1.377 . S
C3953 C3952 1.524 . S
C3953 C3954 1.397 . S
C3953 C3958 1.363 . S
C3954 H3931 0.950 . S
C3954 C3953 1.397 . S
C3954 C3955 1.334 . S
C3955 H3932 0.950 . S
C3955 C3954 1.334 . S
C3955 C3956 1.287 . S
C3956 C3955 1.287 . S
C3956 C3957 1.524 . S
C3956 H3975 0.913 . S
C3957 H3933 0.950 . S
C3957 C3956 1.524 . S
C3957 C3958 1.415 . S
C3958 H3934 0.950 . S
C3958 C3953 1.363 . S
C3958 C3957 1.415 . S
C3959 H3935 0.951 . S
C3959 C3960 1.366 . S
C3959 C3961 1.388 . S
C3960 C3959 1.366 . S
C3960 C3964 1.385 . S
C3961 H3936 0.951 . S
C3961 C3959 1.388 . S
C3961 C3962 1.366 . S
C3962 C3961 1.366 . S
C3962 C3963 1.414 . S
C3962 C3965 1.499 . S
C3963 H3937 0.950 . S
C3963 C3962 1.414 . S
C3963 C3964 1.374 . S
C3964 H3938 0.950 . S
C3964 C3960 1.385 . S
C3964 C3963 1.374 . S
C3965 C3962 1.499 . S
C3965 C3966 1.373 . S
C3965 C3967 1.389 . S
C3966 H3939 0.950 . S
C3966 C3952 1.377 . S
C3966 C3965 1.373 . S
C3967 C3951 1.377 . S
C3967 C3965 1.389 . S
C3967 C3968 1.524 . S
C3968 C3967 1.524 . S
C3968 C3969 1.397 . S
C3968 C3973 1.363 . S
C3969 H3940 0.950 . S
C3969 C3968 1.397 . S
C3969 C3970 1.334 . S
C3970 H3941 0.950 . S
C3970 C3969 1.334 . S
C3970 C3971 1.287 . S
C3971 C3970 1.287 . S
C3971 C3972 1.524 . S
C3971 H3974 0.999 . S
C3972 H3942 0.950 . S
C3972 C3971 1.524 . S
C3972 C3973 1.415 . S
C3973 H3943 0.950 . S
C3973 C3968 1.363 . S
C3973 C3972 1.415 . S
H3974 C3971 0.999 . S
H3975 C3956 0.913 . S
H3976 C3994 0.951 . S
H3977 C3996 0.951 . S
H3978 C3998 0.950 . S
H3979 C3999 0.950 . S
H3980 C4001 0.950 . S
H3981 C4004 0.950 . S
H3982 C4005 0.950 . S
H3983 C4007 0.950 . S
H3984 C4008 0.950 . S
H3985 C4009 0.951 . S
H3986 C4011 0.951 . S
H3987 C4013 0.950 . S
H3988 C4014 0.950 . S
H3989 C4016 0.950 . S
H3990 C4019 0.950 . S
H3991 C4020 0.950 . S
H3992 C4022 0.950 . S
H3993 C4023 0.950 . S
C3994 H3976 0.951 . S
C3994 C3995 1.366 . S
C3994 C3996 1.388 . S
C3995 C3994 1.366 . S
C3995 C3999 1.385 . S
C3996 H3977 0.951 . S
C3996 C3994 1.388 . S
C3996 C3997 1.366 . S
C3997 C3996 1.366 . S
C3997 C3998 1.414 . S
C3997 C4000 1.499 . S
C3998 H3978 0.950 . S
C3998 C3997 1.414 . S
C3998 C3999 1.374 . S
C3999 H3979 0.950 . S
C3999 C3995 1.385 . S
C3999 C3998 1.374 . S
C4000 C3997 1.499 . S
C4000 C4001 1.373 . S
C4000 C4002 1.389 . S
C4001 H3980 0.950 . S
C4001 C4000 1.373 . S
C4001 C4017 1.377 . S
C4002 C4000 1.389 . S
C4002 C4003 1.524 . S
C4002 C4016 1.377 . S
C4003 C4002 1.524 . S
C4003 C4004 1.397 . S
C4003 C4008 1.363 . S
C4004 H3981 0.950 . S
C4004 C4003 1.397 . S
C4004 C4005 1.334 . S
C4005 H3982 0.950 . S
C4005 C4004 1.334 . S
C4005 C4006 1.287 . S
C4006 C4005 1.287 . S
C4006 C4007 1.524 . S
C4006 H4025 0.913 . S
C4007 H3983 0.950 . S
C4007 C4006 1.524 . S
C4007 C4008 1.415 . S
C4008 H3984 0.950 . S
C4008 C4003 1.363 . S
C4008 C4007 1.415 . S
C4009 H3985 0.951 . S
C4009 C4010 1.366 . S
C4009 C4011 1.388 . S
C4010 C4009 1.366 . S
C4010 C4014 1.385 . S
C4011 H3986 0.951 . S
C4011 C4009 1.388 . S
C4011 C4012 1.366 . S
C4012 C4011 1.366 . S
C4012 C4013 1.414 . S
C4012 C4015 1.499 . S
C4013 H3987 0.950 . S
C4013 C4012 1.414 . S
C4013 C4014 1.374 . S
C4014 H3988 0.950 . S
C4014 C4010 1.385 . S
C4014 C4013 1.374 . S
C4015 C4012 1.499 . S
C4015 C4016 1.373 . S
C4015 C4017 1.389 . S
C4016 H3989 0.950 . S
C4016 C4002 1.377 . S
C4016 C4015 1.373 . S
C4017 C4001 1.377 . S
C4017 C4015 1.389 . S
C4017 C4018 1.524 . S
C4018 C4017 1.524 . S
C4018 C4019 1.397 . S
C4018 C4023 1.363 . S
C4019 H3990 0.950 . S
C4019 C4018 1.397 . S
C4019 C4020 1.334 . S
C4020 H3991 0.950 . S
C4020 C4019 1.334 . S
C4020 C4021 1.287 . S
C4021 C4020 1.287 . S
C4021 C4022 1.524 . S
C4021 H4024 0.999 . S
C4022 H3992 0.950 . S
C4022 C4021 1.524 . S
C4022 C4023 1.415 . S
C4023 H3993 0.950 . S
C4023 C4018 1.363 . S
C4023 C4022 1.415 . S
H4024 C4021 0.999 . S
H4025 C4006 0.913 . S
H4026 C4044 0.951 . S
H4027 C4046 0.951 . S
H4028 C4048 0.950 . S
H4029 C4049 0.950 . S
H4030 C4051 0.950 . S
H4031 C4054 0.950 . S
H4032 C4055 0.950 . S
H4033 C4057 0.950 . S
H4034 C4058 0.950 . S
H4035 C4059 0.952 1_455 S
H4036 C4061 0.951 . S
H4037 C4063 0.950 . S
H4038 C4064 0.950 . S
H4039 C4066 0.950 . S
H4040 C4069 0.950 . S
H4041 C4070 0.950 . S
H4042 C4072 0.950 . S
H4043 C4073 0.950 . S
C4044 H4026 0.951 . S
C4044 C4045 1.366 . S
C4044 C4046 1.388 . S
C4045 C4044 1.366 . S
C4045 C4049 1.385 . S
C4046 H4027 0.951 . S
C4046 C4044 1.388 . S
C4046 C4047 1.366 . S
C4047 C4046 1.366 . S
C4047 C4048 1.414 . S
C4047 C4050 1.499 . S
C4048 H4028 0.950 . S
C4048 C4047 1.414 . S
C4048 C4049 1.374 . S
C4049 H4029 0.950 . S
C4049 C4045 1.385 . S
C4049 C4048 1.374 . S
C4050 C4047 1.499 . S
C4050 C4051 1.373 . S
C4050 C4052 1.342 1_655 S
C4051 H4030 0.950 . S
C4051 C4050 1.373 . S
C4051 C4067 1.377 . S
C4052 C4050 1.342 1_455 S
C4052 C4053 1.543 . S
C4052 C4066 1.417 . S
C4053 C4052 1.543 . S
C4053 C4054 1.397 . S
C4053 C4058 1.363 . S
C4054 H4031 0.950 . S
C4054 C4053 1.397 . S
C4054 C4055 1.334 . S
C4055 H4032 0.950 . S
C4055 C4054 1.334 . S
C4055 C4056 1.287 . S
C4056 C4055 1.287 . S
C4056 C4057 1.524 . S
C4056 H4075 0.913 . S
C4057 H4033 0.950 . S
C4057 C4056 1.524 . S
C4057 C4058 1.415 . S
C4058 H4034 0.950 . S
C4058 C4053 1.363 . S
C4058 C4057 1.415 . S
C4059 H4035 0.952 1_655 S
C4059 C4060 1.375 . S
C4059 C4061 1.388 . S
C4060 C4059 1.375 . S
C4060 C4064 1.422 . S
C4061 H4036 0.951 . S
C4061 C4059 1.388 . S
C4061 C4062 1.366 . S
C4062 C4061 1.366 . S
C4062 C4063 1.414 . S
C4062 C4065 1.499 . S
C4063 H4037 0.950 . S
C4063 C4062 1.414 . S
C4063 C4064 1.374 . S
C4064 H4038 0.950 . S
C4064 C4060 1.422 . S
C4064 C4063 1.374 . S
C4065 C4062 1.499 . S
C4065 C4066 1.373 1_655 S
C4065 C4067 1.389 . S
C4066 H4039 0.950 . S
C4066 C4052 1.417 . S
C4066 C4065 1.373 1_455 S
C4067 C4051 1.377 . S
C4067 C4065 1.389 . S
C4067 C4068 1.524 . S
C4068 C4067 1.524 . S
C4068 C4069 1.397 . S
C4068 C4073 1.363 . S
C4069 H4040 0.950 . S
C4069 C4068 1.397 . S
C4069 C4070 1.334 . S
C4070 H4041 0.950 . S
C4070 C4069 1.334 . S
C4070 C4071 1.287 . S
C4071 C4070 1.287 . S
C4071 C4072 1.524 . S
C4071 H4074 0.999 . S
C4072 H4042 0.950 . S
C4072 C4071 1.524 . S
C4072 C4073 1.415 . S
C4073 H4043 0.950 . S
C4073 C4068 1.363 . S
C4073 C4072 1.415 . S
H4074 C4071 0.999 . S
H4075 C4056 0.913 . S
H4076 C4094 0.951 . S
H4077 C4096 0.951 . S
H4078 C4098 0.950 . S
H4079 C4099 0.950 . S
H4080 C4101 0.950 . S
H4081 C4104 0.950 . S
H4082 C4105 0.950 . S
H4083 C4107 0.950 . S
H4084 C4108 0.950 . S
H4085 C4109 0.951 . S
H4086 C4111 0.951 . S
H4087 C4113 0.950 . S
H4088 C4114 0.950 . S
H4089 C4116 0.950 . S
H4090 C4119 0.950 . S
H4091 C4120 0.950 . S
H4092 C4122 0.950 . S
H4093 C4123 0.950 . S
C4094 H4076 0.951 . S
C4094 C4095 1.366 . S
C4094 C4096 1.388 . S
C4095 C4094 1.366 . S
C4095 C4099 1.385 . S
C4096 H4077 0.951 . S
C4096 C4094 1.388 . S
C4096 C4097 1.366 . S
C4097 C4096 1.366 . S
C4097 C4098 1.414 . S
C4097 C4100 1.499 . S
C4098 H4078 0.950 . S
C4098 C4097 1.414 . S
C4098 C4099 1.374 . S
C4099 H4079 0.950 . S
C4099 C4095 1.385 . S
C4099 C4098 1.374 . S
C4100 C4097 1.499 . S
C4100 C4101 1.373 . S
C4100 C4102 1.389 . S
C4101 H4080 0.950 . S
C4101 C4100 1.373 . S
C4101 C4117 1.377 . S
C4102 C4100 1.389 . S
C4102 C4103 1.524 . S
C4102 C4116 1.377 . S
C4103 C4102 1.524 . S
C4103 C4104 1.397 . S
C4103 C4108 1.363 . S
C4104 H4081 0.950 . S
C4104 C4103 1.397 . S
C4104 C4105 1.334 . S
C4105 H4082 0.950 . S
C4105 C4104 1.334 . S
C4105 C4106 1.287 . S
C4106 C4105 1.287 . S
C4106 C4107 1.524 . S
C4106 H4125 0.913 . S
C4107 H4083 0.950 . S
C4107 C4106 1.524 . S
C4107 C4108 1.415 . S
C4108 H4084 0.950 . S
C4108 C4103 1.363 . S
C4108 C4107 1.415 . S
C4109 H4085 0.951 . S
C4109 C4110 1.366 . S
C4109 C4111 1.388 . S
C4110 C4109 1.366 . S
C4110 C4114 1.385 . S
C4111 H4086 0.951 . S
C4111 C4109 1.388 . S
C4111 C4112 1.366 . S
C4112 C4111 1.366 . S
C4112 C4113 1.414 . S
C4112 C4115 1.499 . S
C4113 H4087 0.950 . S
C4113 C4112 1.414 . S
C4113 C4114 1.374 . S
C4114 H4088 0.950 . S
C4114 C4110 1.385 . S
C4114 C4113 1.374 . S
C4115 C4112 1.499 . S
C4115 C4116 1.373 . S
C4115 C4117 1.389 . S
C4116 H4089 0.950 . S
C4116 C4102 1.377 . S
C4116 C4115 1.373 . S
C4117 C4101 1.377 . S
C4117 C4115 1.389 . S
C4117 C4118 1.524 . S
C4118 C4117 1.524 . S
C4118 C4119 1.397 . S
C4118 C4123 1.363 . S
C4119 H4090 0.950 . S
C4119 C4118 1.397 . S
C4119 C4120 1.334 . S
C4120 H4091 0.950 . S
C4120 C4119 1.334 . S
C4120 C4121 1.287 . S
C4121 C4120 1.287 . S
C4121 C4122 1.524 . S
C4121 H4124 0.999 . S
C4122 H4092 0.950 . S
C4122 C4121 1.524 . S
C4122 C4123 1.415 . S
C4123 H4093 0.950 . S
C4123 C4118 1.363 . S
C4123 C4122 1.415 . S
H4124 C4121 0.999 . S
H4125 C4106 0.913 . S
H4126 C4144 0.951 . S
H4127 C4146 0.951 . S
H4128 C4148 0.950 . S
H4129 C4149 0.950 . S
H4130 C4151 0.950 . S
H4131 C4154 0.950 . S
H4132 C4155 0.950 . S
H4133 C4157 0.950 . S
H4134 C4158 0.950 . S
H4135 C4159 0.951 . S
H4136 C4161 0.922 1_565 S
H4137 C4163 0.950 . S
H4138 C4164 0.950 . S
H4139 C4166 0.950 . S
H4140 C4169 0.950 . S
H4141 C4170 0.950 . S
H4142 C4172 0.950 . S
H4143 C4173 0.950 . S
C4144 H4126 0.951 . S
C4144 C4145 1.366 . S
C4144 C4146 1.388 . S
C4145 C4144 1.366 . S
C4145 C4149 1.385 . S
C4146 H4127 0.951 . S
C4146 C4144 1.388 . S
C4146 C4147 1.366 . S
C4147 C4146 1.366 . S
C4147 C4148 1.414 . S
C4147 C4150 1.499 . S
C4148 H4128 0.950 . S
C4148 C4147 1.414 . S
C4148 C4149 1.374 . S
C4149 H4129 0.950 . S
C4149 C4145 1.385 . S
C4149 C4148 1.374 . S
C4150 C4147 1.499 . S
C4150 C4151 1.373 1_545 S
C4150 C4152 1.389 . S
C4151 H4130 0.950 . S
C4151 C4150 1.373 1_565 S
C4151 C4167 1.377 . S
C4152 C4150 1.389 . S
C4152 C4153 1.524 . S
C4152 C4166 1.377 . S
C4153 C4152 1.524 . S
C4153 C4154 1.397 . S
C4153 C4158 1.363 . S
C4154 H4131 0.950 . S
C4154 C4153 1.397 . S
C4154 C4155 1.334 . S
C4155 H4132 0.950 . S
C4155 C4154 1.334 . S
C4155 C4156 1.287 . S
C4156 C4155 1.287 . S
C4156 C4157 1.524 . S
C4156 H4175 0.913 . S
C4157 H4133 0.950 . S
C4157 C4156 1.524 . S
C4157 C4158 1.415 . S
C4158 H4134 0.950 . S
C4158 C4153 1.363 . S
C4158 C4157 1.415 . S
C4159 H4135 0.951 . S
C4159 C4160 1.362 . S
C4159 C4161 1.397 1_565 S
C4160 C4159 1.362 . S
C4160 C4164 1.385 1_565 S
C4161 H4136 0.922 1_545 S
C4161 C4159 1.397 1_545 S
C4161 C4162 1.368 . S
C4162 C4161 1.368 . S
C4162 C4163 1.414 . S
C4162 C4165 1.499 . S
C4163 H4137 0.950 . S
C4163 C4162 1.414 . S
C4163 C4164 1.374 . S
C4164 H4138 0.950 . S
C4164 C4160 1.385 1_545 S
C4164 C4163 1.374 . S
C4165 C4162 1.499 . S
C4165 C4166 1.373 . S
C4165 C4167 1.389 1_545 S
C4166 H4139 0.950 . S
C4166 C4152 1.377 . S
C4166 C4165 1.373 . S
C4167 C4151 1.377 . S
C4167 C4165 1.389 1_565 S
C4167 C4168 1.524 . S
C4168 C4167 1.524 . S
C4168 C4169 1.397 . S
C4168 C4173 1.363 . S
C4169 H4140 0.950 . S
C4169 C4168 1.397 . S
C4169 C4170 1.334 . S
C4170 H4141 0.950 . S
C4170 C4169 1.334 . S
C4170 C4171 1.287 . S
C4171 C4170 1.287 . S
C4171 C4172 1.524 . S
C4171 H4174 0.999 . S
C4172 H4142 0.950 . S
C4172 C4171 1.524 . S
C4172 C4173 1.415 . S
C4173 H4143 0.950 . S
C4173 C4168 1.363 . S
C4173 C4172 1.415 . S
H4174 C4171 0.999 . S
H4175 C4156 0.913 . S
C595 C13 1.481 . S
C610 C421 1.547 . S
C645 C27 1.366 . S
C660 C446 1.435 . S
C710 C457 1.531 . S
C695 C36 1.456 . S
C745 C41 1.456 . S
C760 C482 1.529 . S
C795 C8 1.567 . S
C810 C500 1.651 . S
C845 C22 1.455 . S
C860 C511 1.523 . S
C895 C55 1.480 . S
C910 C493 1.551 . S
C960 C518 1.425 . S
C945 C69 1.361 . S
C1010 C475 1.539 . S
C995 C78 1.465 . S
C1045 C83 1.451 . S
C1060 C464 1.507 . S
C1110 C428 1.623 1_655 S
C1095 C50 1.566 . S
C1145 C64 1.438 . S
C1160 C439 1.515 . S
C1195 C97 1.528 . S
C1210 C529 1.603 . S
C1245 C111 1.390 . S
C1260 C554 1.465 . S
C1310 C565 1.572 . S
C1295 C120 1.515 . S
C1345 C125 1.483 . S
C1360 C266 1.561 . S
C1395 C92 1.644 . S
C1410 C284 1.709 . S
C1445 C106 1.484 . S
C1460 C295 1.547 . S
C1495 C139 1.485 . S
C1510 C277 1.560 . S
C1545 C153 1.383 . S
C1560 C302 1.444 . S
C1610 C259 1.570 . S
C1595 C162 1.496 . S
C1660 C572 1.570 . S
C1645 C167 1.489 . S
C1710 C536 1.676 . S
C1695 C134 1.609 . S
C1760 C547 1.544 . S
C1745 C148 1.473 . S
C1795 C181 1.510 . S
C1810 C313 1.581 . S
C1845 C195 1.384 . S
C1860 C338 1.450 . S
C1895 C204 1.517 . S
C1910 C349 1.577 . S
C1945 C209 1.500 . S
C1960 C374 1.584 . S
C2010 C392 1.712 . S
C1995 C176 1.649 . S
C2060 C403 1.552 . S
C2045 C190 1.492 . S
C2110 C385 1.596 . S
C2095 C223 1.515 . S
C2160 C410 1.458 . S
C2145 C237 1.389 . S
C2195 C246 1.485 . S
C2210 C367 1.554 . S
C2260 C356 1.535 . S
C2245 C251 1.462 . S
C2295 C218 1.612 . S
C2310 C320 1.683 . S
C2360 C331 1.546 . S
C2345 C232 1.472 . S
C2410 C268 1.286 . S
C2395 C11 1.345 . S
C2445 C25 1.210 . S
C2460 C286 1.161 . S
C2510 C296 1.267 . S
C2495 C35 1.326 . S
C2560 C314 1.262 . S
C2545 C39 1.319 . S
C2610 C340 1.365 . S
C2595 C7 1.438 1_556 S
C2660 C350 1.240 . S
C2645 C21 1.302 1_556 S
C2695 C53 1.369 1_556 S
C2710 C358 1.310 . S
C2745 C67 1.238 1_556 S
C2760 C322 1.173 . S
C2795 C77 1.327 1_556 S
C2810 C332 1.261 . S
C2845 C81 1.375 . S
C2860 C278 1.313 . S
C2910 C304 1.362 . S
C2895 C49 1.449 . S
C2945 C63 1.333 . S
C2960 C260 1.263 . S
C3010 C376 1.270 . S
C2995 C95 1.334 . S
C3045 C109 1.262 . S
C3060 C394 1.209 . S
C3095 C119 1.390 . S
C3110 C404 1.326 . S
C3160 C422 1.197 . S
C3145 C123 1.256 . S
C3195 C91 1.430 . S
C3210 C448 1.359 . S
C3245 C105 1.262 . S
C3260 C458 1.211 . S
C3295 C137 1.308 . S
C3310 C466 1.232 . S
C3345 C151 1.170 . S
C3360 C430 1.112 1_655 S
C3410 C440 1.290 . S
C3395 C161 1.354 . S
C3445 C165 1.361 . S
C3460 C386 1.292 . S
C3495 C133 1.489 . S
C3510 C412 1.395 . S
C3560 C368 1.323 . S
C3545 C147 1.394 . S
C3610 C484 1.244 . S
C3595 C179 1.305 . S
C3645 C193 1.154 . S
C3660 C502 1.105 . S
C3695 C203 1.329 . S
C3710 C512 1.270 . S
C3760 C530 1.253 . S
C3745 C207 1.316 . S
C3810 C556 1.396 . S
C3795 C175 1.471 . S
C3845 C189 1.369 . S
C3860 C566 1.307 . S
C3895 C221 1.368 . S
C3910 C574 1.287 . S
C3945 C235 1.288 . S
C3960 C538 1.216 . S
C4010 C548 1.334 . S
C3995 C245 1.402 . S
C4060 C494 1.160 1_655 S
C4045 C249 1.254 . S
C4110 C520 1.366 . S
C4095 C217 1.454 . S
C4145 C231 1.288 . S
C4160 C476 1.265 . S
