# Generated by pormake.
# Topology anh, (6,3)-cn, num edge types: 1
# Building blocks:
#     Node 0, Type 0, BuildingBlock: NUHQIS_clean_sbu_0, # of connection points: 6
#     Node 1, Type 0, BuildingBlock: NUHQIS_clean_sbu_0, # of connection points: 6
#     Node 2, Type 0, BuildingBlock: NUHQIS_clean_sbu_0, # of connection points: 6
#     Node 3, Type 1, BuildingBlock: PAMTOO_clean_linker_0, # of connection points: 3
#     Node 4, Type 1, BuildingBlock: PAMTOO_clean_linker_0, # of connection points: 3
#     Node 5, Type 1, BuildingBlock: PAMTOO_clean_linker_0, # of connection points: 3
#     Node 6, Type 1, BuildingBlock: PAMTOO_clean_linker_0, # of connection points: 3
#     Node 7, Type 1, BuildingBlock: PAMTOO_clean_linker_0, # of connection points: 3
#     Node 8, Type 1, BuildingBlock: PAMTOO_clean_linker_0, # of connection points: 3
#     Edge 9, Type (0, 1), BuildingBlock: XIVTED_clean_linker_0, # of connection points: 2
#     Edge 10, Type (0, 1), BuildingBlock: XIVTED_clean_linker_0, # of connection points: 2
#     Edge 11, Type (0, 1), BuildingBlock: XIVTED_clean_linker_0, # of connection points: 2
#     Edge 12, Type (0, 1), BuildingBlock: XIVTED_clean_linker_0, # of connection points: 2
#     Edge 13, Type (0, 1), BuildingBlock: XIVTED_clean_linker_0, # of connection points: 2
#     Edge 14, Type (0, 1), BuildingBlock: XIVTED_clean_linker_0, # of connection points: 2
#     Edge 15, Type (0, 1), BuildingBlock: XIVTED_clean_linker_0, # of connection points: 2
#     Edge 16, Type (0, 1), BuildingBlock: XIVTED_clean_linker_0, # of connection points: 2
#     Edge 17, Type (0, 1), BuildingBlock: XIVTED_clean_linker_0, # of connection points: 2
#     Edge 18, Type (0, 1), BuildingBlock: XIVTED_clean_linker_0, # of connection points: 2
#     Edge 19, Type (0, 1), BuildingBlock: XIVTED_clean_linker_0, # of connection points: 2
#     Edge 20, Type (0, 1), BuildingBlock: XIVTED_clean_linker_0, # of connection points: 2
#     Edge 21, Type (0, 1), BuildingBlock: XIVTED_clean_linker_0, # of connection points: 2
#     Edge 22, Type (0, 1), BuildingBlock: XIVTED_clean_linker_0, # of connection points: 2
#     Edge 23, Type (0, 1), BuildingBlock: XIVTED_clean_linker_0, # of connection points: 2
#     Edge 24, Type (0, 1), BuildingBlock: XIVTED_clean_linker_0, # of connection points: 2
#     Edge 25, Type (0, 1), BuildingBlock: XIVTED_clean_linker_0, # of connection points: 2
#     Edge 26, Type (0, 1), BuildingBlock: XIVTED_clean_linker_0, # of connection points: 2
# Relax obj value: 0.252
# Max RMSD: 0.144
# Mean RMSD: 0.118
data_MOF--net-anh--node1-NUHQIS_clean_sbu_0--node2-PAMTOO_clean_linker_0--edge1-XIVTED_clean_linker_0
_symmetry_space_group_name_H-M    P1
_symmetry_Int_Tables_number       1
_symmetry_cell_setting            triclinic
loop_
_symmetry_equiv_pos_as_xyz
'x, y, z'
_cell_length_a     30.951627
_cell_length_b     30.955012
_cell_length_c     49.891011
_cell_angle_alpha  86.371682
_cell_angle_beta   94.342363
_cell_angle_gamma 119.69612
loop_
_atom_site_label
_atom_site_type_symbol
_atom_site_fract_x
_atom_site_fract_y
_atom_site_fract_z
_atom_type_partial_charge
Tb0 Tb 0.16183 0.57818 0.15256 0.0
Eu1 Eu 1.10516 0.64189 0.14287 0.0
C2 C 0.13157 0.61437 0.20093 0.0
C3 C 1.03964 0.51915 0.15046 0.0
C4 C 0.24111 0.51748 0.17644 0.0
C5 C 0.25948 0.4664 0.20924 0.0
C6 C 0.22854 0.4852 0.19922 0.0
C7 C 0.28739 0.5341 0.16542 0.0
C8 C 0.31848 0.51546 0.17556 0.0
C9 C 0.30354 0.47944 0.19666 0.0
C10 C 0.20199 0.52448 0.16131 0.0
O11 O 0.13633 0.56967 0.11007 0.0
O12 O 0.13469 0.64223 0.10303 0.0
O13 O 0.18716 0.70143 0.15193 0.0
O14 O 0.22627 0.65559 0.14834 0.0
C15 C 0.13575 0.60426 0.09363 0.0
O16 O 1.05505 0.66198 0.1193 0.0
O17 O 1.09343 0.70099 0.1558 0.0
O18 O 1.09509 0.61313 0.18543 0.0
O19 O 0.16814 0.6122 0.19062 0.0
O20 O 1.08238 0.52033 0.15748 0.0
O21 O 1.03981 0.56064 0.14173 0.0
C22 C 0.22871 0.69928 0.15099 0.0
O23 O 0.16578 0.52064 0.1748 0.0
O24 O 0.21433 0.55845 0.14203 0.0
C25 C 1.01226 0.68801 0.14523 0.0
C26 C 0.91659 0.66721 0.15805 0.0
C27 C 0.93621 0.69056 0.13328 0.0
C28 C 0.98363 0.70095 0.127 0.0
C29 C 0.99396 0.66674 0.17046 0.0
C30 C 0.94665 0.65676 0.17689 0.0
C31 C 1.05927 0.69365 0.13682 0.0
H32 H 0.24725 0.439 0.22566 0.0
H33 H 0.19297 0.47139 0.20808 0.0
H34 H 0.29797 0.55856 0.14773 0.0
H35 H 0.352 0.52589 0.16525 0.0
H36 H 0.91398 0.69834 0.11802 0.0
H37 H 0.99715 0.71724 0.10741 0.0
H38 H 1.0155 0.6564 0.18487 0.0
H39 H 0.93303 0.63938 0.19626 0.0
Tb40 Tb 0.77877 0.15073 0.48124 0.0
Eu41 Eu 0.65947 0.09389 0.48978 0.0
C42 C 0.739 0.12891 0.53857 0.0
C43 C 0.71617 1.02798 0.48835 0.0
C44 C 0.9145 0.23833 0.48948 0.0
C45 C 1.00358 0.28964 0.49817 0.0
C46 C 0.96252 0.24438 0.49054 0.0
C47 C 0.90747 0.27689 0.49747 0.0
C48 C 0.94842 0.3222 0.50491 0.0
C49 C 0.99712 0.32959 0.50468 0.0
C50 C 0.87221 0.19232 0.47931 0.0
O51 O 0.74763 0.13045 0.44057 0.0
O52 O 0.66676 0.11189 0.44503 0.0
O53 O 0.68483 0.1767 0.49337 0.0
O54 O 0.76476 0.21539 0.47919 0.0
C55 C 0.70396 0.12163 0.4301 0.0
O56 O 0.58179 1.03902 0.48006 0.0
O57 O 0.60006 0.09303 0.51083 0.0
O58 O 0.69708 0.09126 0.52982 0.0
O59 O 0.76848 0.16336 0.52182 0.0
O60 O 0.75873 1.07058 0.48628 0.0
O61 O 0.6735 1.02794 0.4889 0.0
C62 C 0.72579 0.21782 0.48686 0.0
O63 O 0.8469 0.15898 0.49756 0.0
O64 O 0.84321 0.19774 0.46066 0.0
C65 C 0.52186 1.01865 0.51347 0.0
C66 C 0.42664 0.95734 0.53347 0.0
C67 C 0.44627 0.93846 0.51585 0.0
C68 C 0.49338 0.96892 0.50583 0.0
C69 C 0.50405 1.03608 0.5329 0.0
C70 C 0.45695 1.00569 0.54286 0.0
C71 C 0.56489 1.05484 0.49815 0.0
H72 H 1.04045 0.29384 0.49815 0.0
H73 H 0.96838 0.21458 0.48476 0.0
H74 H 0.87046 0.27256 0.49701 0.0
H75 H 0.94192 0.35222 0.50938 0.0
H76 H 0.42365 0.90152 0.50799 0.0
H77 H 0.50592 0.95445 0.49079 0.0
H78 H 0.52507 1.07435 0.53907 0.0
H79 H 0.44297 1.02109 0.55658 0.0
Tb80 Tb 0.64532 0.60414 0.81747 0.0
Eu81 Eu 0.58655 0.48775 0.80385 0.0
C82 C 0.60824 0.5234 0.8635 0.0
C83 C 0.70885 0.54665 0.815 0.0
C84 C 0.68843 0.73545 0.8387 0.0
C85 C 0.73168 0.81913 0.85535 0.0
C86 C 0.7321 0.77645 0.84846 0.0
C87 C 0.64326 0.73597 0.83789 0.0
C88 C 0.64271 0.7788 0.84491 0.0
C89 C 0.68736 0.82167 0.85266 0.0
C90 C 0.69273 0.69578 0.82669 0.0
O91 O 0.6589 0.59843 0.7757 0.0
O92 O 0.58598 0.52909 0.76539 0.0
O93 O 0.52323 0.50331 0.81174 0.0
O94 O 0.56648 0.58887 0.81304 0.0
C95 C 0.62554 0.56949 0.75769 0.0
O96 O 0.56796 0.42951 0.77564 0.0
O97 O 0.53743 0.40972 0.81508 0.0
O98 O 0.61149 0.49356 0.84741 0.0
O99 O 0.61014 0.56481 0.85418 0.0
O100 O 0.70497 0.58357 0.82452 0.0
O101 O 0.66937 0.50923 0.80324 0.0
C102 C 0.52364 0.54614 0.81323 0.0
O103 O 0.69438 0.66193 0.84296 0.0
O104 O 0.6657 0.67711 0.80466 0.0
C105 C 0.56727 0.36027 0.79763 0.0
C106 C 0.6316 0.3198 0.80185 0.0
C107 C 0.60701 0.32086 0.77709 0.0
C108 C 0.57493 0.34057 0.77507 0.0
C109 C 0.58832 0.3554 0.82283 0.0
C110 C 0.61982 0.33493 0.82494 0.0
C111 C 0.54616 0.39384 0.79357 0.0
H112 H 0.76699 0.85133 0.86081 0.0
H113 H 0.76729 0.77663 0.8492 0.0
H114 H 0.60899 0.70433 0.83061 0.0
H115 H 0.6078 0.77914 0.84301 0.0
H116 H 0.61525 0.31002 0.75878 0.0
H117 H 0.55923 0.34406 0.75543 0.0
H118 H 0.58306 0.37014 0.84066 0.0
H119 H 0.63693 0.33341 0.84446 0.0
H120 H 0.74741 0.20559 0.22509 0.0
H121 H 0.60071 0.07661 0.22154 0.0
H122 H 0.67237 0.14905 0.14831 0.0
H123 H 0.58999 1.00796 0.18888 0.0
C124 C 0.57778 1.01881 0.16932 0.0
O125 O 0.58915 1.06902 0.17013 0.0
H126 H 0.60106 1.01706 0.15398 0.0
C127 C 0.71504 0.17903 0.21347 0.0
C128 C 0.71549 0.18445 0.18521 0.0
C129 C 0.67437 0.14058 0.22701 0.0
C130 C 0.63289 0.10544 0.21163 0.0
C131 C 0.63158 0.10608 0.18341 0.0
C132 C 0.67311 0.14676 0.17006 0.0
H133 H 0.69201 0.70408 0.55851 0.0
H134 H 0.70732 0.57358 0.55662 0.0
H135 H 0.73043 0.6671 0.48513 0.0
H136 H 0.69223 0.54337 0.47416 0.0
C137 C 0.69762 0.53713 0.49603 0.0
O138 O 0.73154 0.5835 0.50715 0.0
H139 H 0.66056 0.52311 0.50449 0.0
C140 C 0.69977 0.67991 0.54739 0.0
C141 C 0.71097 0.69184 0.52018 0.0
C142 C 0.69835 0.63775 0.56067 0.0
C143 C 0.70753 0.60559 0.54634 0.0
C144 C 0.71881 0.61477 0.51911 0.0
C145 C 0.72098 0.65876 0.50598 0.0
H146 H 1.03094 0.56573 0.89033 0.0
H147 H 0.17113 0.56943 0.88712 0.0
H148 H 1.07872 0.54895 0.8144 0.0
H149 H 0.15285 0.49059 0.82404 0.0
C150 C 0.1806 0.52067 0.83719 0.0
O151 O 0.16824 0.55899 0.8357 0.0
H152 H 0.17579 0.50441 0.858 0.0
C153 C 1.05801 0.56369 0.87865 0.0
C154 C 1.04822 0.55709 0.85075 0.0
C155 C 1.10147 0.56749 0.89197 0.0
C156 C 0.13692 0.56492 0.87705 0.0
C157 C 0.12972 0.55756 0.84918 0.0
C158 C 1.0845 0.5532 0.83595 0.0
H159 H 0.15224 0.61854 0.40851 0.0
H160 H 0.13402 0.74655 0.39062 0.0
H161 H 0.16212 0.71074 0.47214 0.0
H162 H 1.08204 0.73133 0.46236 0.0
C163 C 1.10985 0.77038 0.45678 0.0
O164 O 0.14524 0.7724 0.44059 0.0
H165 H 1.08935 0.78757 0.44572 0.0
C166 C 0.15234 0.65121 0.41522 0.0
C167 C 0.15733 0.66026 0.44282 0.0
C168 C 0.14485 0.68249 0.39613 0.0
C169 C 0.14008 0.72208 0.40498 0.0
C170 C 0.14615 0.7321 0.43239 0.0
C171 C 0.15641 0.70222 0.45108 0.0
H172 H 0.77972 0.10754 0.74872 0.0
H173 H 0.90994 0.24538 0.72836 0.0
H174 H 0.88095 0.20147 0.81102 0.0
H175 H 0.95928 0.33464 0.75792 0.0
C176 C 0.94688 0.31603 0.77787 0.0
O177 O 0.94228 0.26912 0.77802 0.0
H178 H 0.9768 0.3387 0.79295 0.0
C179 C 0.81241 0.14178 0.75486 0.0
C180 C 0.82605 0.15012 0.7824 0.0
C181 C 0.84184 0.17592 0.73504 0.0
C182 C 0.88653 0.21819 0.74311 0.0
C183 C 0.90017 0.22729 0.77043 0.0
C184 C 0.86987 0.19366 0.78998 0.0
H185 H 0.61393 0.51049 0.06852 0.0
H186 H 0.47895 0.37055 0.0574 0.0
H187 H 0.52681 0.43142 0.13598 0.0
H188 H 0.49712 0.32922 0.13226 0.0
C189 C 0.45855 0.32205 0.12691 0.0
O190 O 0.45804 0.35661 0.10808 0.0
H191 H 0.43715 0.28433 0.11844 0.0
C192 C 0.58107 0.47915 0.07665 0.0
C193 C 0.57489 0.47499 0.10442 0.0
C194 C 0.5464 0.44224 0.05934 0.0
C195 C 0.5062 0.39952 0.07034 0.0
C196 C 0.49917 0.39556 0.09799 0.0
C197 C 0.53276 0.43396 0.11477 0.0
H198 H 0.40382 0.5108 0.20209 0.0
H199 H 0.35937 0.27772 0.13543 0.0
H200 H 0.2594 0.37846 0.20119 0.0
H201 H 0.50327 0.37559 0.17264 0.0
H202 H 0.32115 0.30679 0.1655 0.0
H203 H 0.44206 0.45898 0.19751 0.0
C204 C 0.38034 0.47076 0.20169 0.0
C205 C 0.32836 0.44899 0.20158 0.0
C206 C 0.36095 0.32094 0.16773 0.0
C207 C 0.37155 0.38969 0.19589 0.0
C208 C 0.38266 0.30404 0.15065 0.0
C209 C 0.43452 0.32513 0.15124 0.0
C210 C 0.3916 0.36034 0.1848 0.0
C211 C 0.46318 0.35943 0.17115 0.0
C212 C 0.40213 0.44114 0.1992 0.0
C213 C 0.29963 0.39687 0.20127 0.0
N214 N 0.44155 0.37728 0.18661 0.0
N215 N 0.32148 0.3691 0.19772 0.0
H216 H 1.01113 0.40244 0.5389 0.0
H217 H 0.2057 0.60606 0.44157 0.0
H218 H 1.08194 0.37343 0.47647 0.0
H219 H 1.10775 0.62763 0.48941 0.0
H220 H 0.18505 0.52891 0.46723 0.0
H221 H 1.07038 0.49127 0.53371 0.0
C222 C 1.03972 0.41456 0.5245 0.0
C223 C 1.04043 0.3805 0.50747 0.0
C224 C 0.16909 0.55124 0.47253 0.0
C225 C 1.10843 0.48186 0.50162 0.0
C226 C 0.18069 0.59515 0.45784 0.0
C227 C 0.1571 0.62245 0.46274 0.0
C228 C 0.13352 0.53451 0.49215 0.0
C229 C 0.12635 0.6075 0.48465 0.0
C230 C 1.07366 0.46523 0.52166 0.0
C231 C 1.07943 0.39817 0.48986 0.0
N232 N 0.11455 0.5639 0.49815 0.0
N233 N 1.11118 0.44774 0.48699 0.0
H234 H 0.6352 0.85717 0.82047 0.0
H235 H 0.86057 0.12035 0.82816 0.0
H236 H 0.74664 0.89973 0.88599 0.0
H237 H 0.7243 0.09015 0.78306 0.0
H238 H 0.81411 1.04478 0.85515 0.0
H239 H 0.65843 0.94394 0.81243 0.0
C240 C 0.66347 0.88442 0.83381 0.0
C241 C 0.69014 0.871 0.85339 0.0
C242 C 0.79407 1.05519 0.83976 0.0
C243 C 0.71822 0.97112 0.84352 0.0
C244 C 0.82065 0.09863 0.82433 0.0
C245 C 0.79664 0.11099 0.8027 0.0
C246 C 0.74334 1.02339 0.83319 0.0
C247 C 0.74476 0.08108 0.79883 0.0
C248 C 0.67704 0.93431 0.82903 0.0
C249 C 0.72644 0.90847 0.86992 0.0
N250 N 0.72005 1.03804 0.81345 0.0
N251 N 0.74046 0.95698 0.8641 0.0
H252 H 0.85135 0.57933 0.18289 0.0
H253 H 0.62713 0.57678 0.09909 0.0
H254 H 0.85896 0.7106 0.14282 0.0
H255 H 0.61511 0.45448 0.15065 0.0
H256 H 0.70628 0.63198 0.12262 0.0
H257 H 0.76119 0.53971 0.18015 0.0
C258 C 0.83427 0.60052 0.17416 0.0
C259 C 0.86303 0.64803 0.16239 0.0
C260 C 0.68581 0.59334 0.12925 0.0
C261 C 0.75916 0.60184 0.15835 0.0
C262 C 0.64071 0.56183 0.11576 0.0
C263 C 0.61525 0.51083 0.12253 0.0
C264 C 0.7059 0.57342 0.1493 0.0
C265 C 0.63381 0.4935 0.14462 0.0
C266 C 0.78248 0.57758 0.17242 0.0
C267 C 0.8383 0.67323 0.15128 0.0
N268 N 0.67861 0.52451 0.15682 0.0
N269 N 0.78776 0.6494 0.14895 0.0
H270 H 0.36566 0.85764 0.5448 0.0
H271 H 0.15415 0.87052 0.46326 0.0
H272 H 0.36382 0.99567 0.5305 0.0
H273 H 0.13015 0.73526 0.50543 0.0
H274 H 0.22326 0.91824 0.49519 0.0
H275 H 0.27488 0.81233 0.53833 0.0
C276 C 0.34603 0.87844 0.54104 0.0
C277 C 0.3724 0.93039 0.53761 0.0
C278 C 0.20206 0.87821 0.49807 0.0
C279 C 0.26884 0.87897 0.52979 0.0
C280 C 0.16236 0.85105 0.47991 0.0
C281 C 0.13732 0.79899 0.48144 0.0
C282 C 0.21774 0.85288 0.51724 0.0
C283 C 0.14953 0.77541 0.50323 0.0
C284 C 0.29418 0.85262 0.53746 0.0
C285 C 0.34511 0.95559 0.53316 0.0
N286 N 0.18999 0.80242 0.51982 0.0
N287 N 0.29494 0.92959 0.52866 0.0
H288 H 0.64147 0.2532 0.77222 0.0
H289 H 0.91602 0.32473 0.82668 0.0
H290 H 0.71885 0.36332 0.8331 0.0
H291 H 0.86894 0.302 0.74276 0.0
H292 H 0.83603 0.3187 0.8358 0.0
H293 H 0.71735 0.24864 0.76819 0.0
C294 C 0.67403 0.27602 0.78494 0.0
C295 C 0.6737 0.30927 0.80274 0.0
C296 C 0.8434 0.3149 0.81546 0.0
C297 C 0.75996 0.30306 0.79862 0.0
C298 C 0.88884 0.31858 0.81025 0.0
C299 C 0.89899 0.31444 0.78391 0.0
C300 C 0.80765 0.3055 0.79427 0.0
C301 C 0.86245 0.30567 0.76329 0.0
C302 C 0.71717 0.27321 0.78265 0.0
C303 C 0.71685 0.33677 0.81926 0.0
N304 N 0.81819 0.30116 0.76893 0.0
N305 N 0.75835 0.33324 0.8167 0.0
H306 H 0.79595 1.00926 0.48749 0.0
H307 H 0.63238 0.71029 0.5137 0.0
H308 H 0.63701 0.93096 0.49462 0.0
H309 H 0.78992 0.78387 0.50308 0.0
H310 H 0.63374 0.78992 0.50491 0.0
H311 H 0.79515 0.92905 0.49185 0.0
C312 C 0.76071 0.97547 0.4899 0.0
C313 C 0.71645 0.97817 0.49061 0.0
C314 C 0.66808 0.78893 0.50403 0.0
C315 C 0.71536 0.8841 0.49577 0.0
C316 C 0.66723 0.74291 0.50878 0.0
C317 C 0.7108 0.73899 0.50848 0.0
C318 C 0.71313 0.83309 0.49923 0.0
C319 C 0.75494 0.78389 0.50283 0.0
C320 C 0.76035 0.92923 0.4924 0.0
C321 C 0.67233 0.93193 0.49387 0.0
N322 N 0.75497 0.82849 0.49863 0.0
N323 N 0.67302 0.88768 0.49634 0.0
H324 H 0.73278 0.47377 0.80271 0.0
H325 H 1.02493 0.63173 0.85245 0.0
H326 H 0.80183 0.62084 0.83436 0.0
H327 H 0.96049 0.48253 0.82467 0.0
H328 H 0.94471 0.62889 0.84298 0.0
H329 H 0.8139 0.47612 0.80822 0.0
C330 C 0.76474 0.50677 0.81073 0.0
C331 C 0.75917 0.54723 0.81798 0.0
C332 C 0.94781 0.5968 0.83852 0.0
C333 C 0.85429 0.5502 0.82435 0.0
C334 C 0.99427 0.59858 0.8437 0.0
C335 C 1.00102 0.55779 0.83893 0.0
C336 C 0.90589 0.55355 0.82854 0.0
C337 C 0.9584 0.51558 0.82818 0.0
C338 C 0.81149 0.50802 0.8139 0.0
C339 C 0.80308 0.5885 0.82839 0.0
N340 N 0.91323 0.51454 0.82353 0.0
N341 N 0.84787 0.58881 0.83115 0.0
H342 H 0.3238 0.71674 0.14037 0.0
H343 H 0.48518 1.00415 0.18725 0.0
H344 H 0.25224 0.79455 0.16649 0.0
H345 H 0.54269 0.93371 0.14047 0.0
H346 H 0.40145 0.92914 0.18263 0.0
H347 H 0.40431 0.79439 0.14341 0.0
C348 C 0.32459 0.74988 0.14683 0.0
C349 C 0.27973 0.74775 0.15305 0.0
C350 C 0.43222 0.93033 0.173 0.0
C351 C 0.37449 0.83919 0.15699 0.0
C352 C 0.48036 0.97379 0.17542 0.0
C353 C 0.522 0.97725 0.16339 0.0
C354 C 0.42494 0.88838 0.15915 0.0
C355 C 0.51236 0.93452 0.14946 0.0
C356 C 0.37113 0.79478 0.14852 0.0
C357 C 0.28489 0.79328 0.16129 0.0
N358 N 0.46595 0.8928 0.14789 0.0
N359 N 0.33064 0.83625 0.16313 0.0
H360 H 0.79518 0.3146 0.46855 0.0
H361 H 0.65525 0.44964 0.52743 0.0
H362 H 0.65911 0.23738 0.51044 0.0
H363 H 0.76953 0.52489 0.4706 0.0
H364 H 0.66431 0.37548 0.52561 0.0
H365 H 0.79362 0.3932 0.47237 0.0
C366 C 0.76498 0.31377 0.47861 0.0
C367 C 0.72711 0.26799 0.48902 0.0
C368 C 0.68808 0.40826 0.51374 0.0
C369 C 0.72547 0.35978 0.49388 0.0
C370 C 0.68331 0.45132 0.51502 0.0
C371 C 0.71209 0.49498 0.4995 0.0
C372 C 0.72221 0.40748 0.49679 0.0
C373 C 0.74694 0.4931 0.48339 0.0
C374 C 0.76411 0.35908 0.48078 0.0
C375 C 0.68925 0.27076 0.50185 0.0
N376 N 0.75087 0.45064 0.48245 0.0
N377 N 0.6896 0.31505 0.50394 0.0
H378 H 0.42671 0.46899 0.80417 0.0
H379 H 0.27663 0.6019 0.85182 0.0
H380 H 0.50491 0.62188 0.82756 0.0
H381 H 0.20854 0.46653 0.80799 0.0
H382 H 0.35949 0.6107 0.84547 0.0
H383 H 0.3474 0.46737 0.80815 0.0
C384 C 0.42762 0.50246 0.81016 0.0
C385 C 0.47389 0.54569 0.81537 0.0
C386 C 0.32647 0.57945 0.83685 0.0
C387 C 0.38052 0.54382 0.82044 0.0
C388 C 0.27882 0.57467 0.84025 0.0
C389 C 0.23443 0.53422 0.82966 0.0
C390 C 0.33062 0.54279 0.82338 0.0
C391 C 0.24089 0.49924 0.81593 0.0
C392 C 0.38173 0.50148 0.81241 0.0
C393 C 0.47098 0.58752 0.82311 0.0
N394 N 0.28706 0.50418 0.81339 0.0
N395 N 0.42575 0.58542 0.82554 0.0
H396 H 0.94009 0.49648 0.13829 0.0
H397 H 0.81387 0.20664 0.19065 0.0
H398 H 1.02402 0.42565 0.1691 0.0
H399 H 0.72556 0.27011 0.15616 0.0
H400 H 0.88983 0.28548 0.18134 0.0
H401 H 0.86244 0.41618 0.14351 0.0
C402 C 0.94267 0.46437 0.14611 0.0
C403 C 0.99013 0.4693 0.15316 0.0
C404 C 0.85407 0.28239 0.17535 0.0
C405 C 0.89904 0.37493 0.15936 0.0
C406 C 0.81015 0.23664 0.18043 0.0
C407 C 0.76199 0.2299 0.17363 0.0
C408 C 0.85143 0.32378 0.16358 0.0
C409 C 0.76106 0.27198 0.1612 0.0
C410 C 0.89777 0.41801 0.14909 0.0
C411 C 0.98934 0.42501 0.16324 0.0
N412 N 0.80442 0.31645 0.15678 0.0
N413 N 0.94541 0.38074 0.166 0.0
H414 H 0.14456 0.53521 0.06554 0.0
H415 H 1.08736 0.63127 0.92123 0.0
H416 H 0.12241 0.66234 0.05368 0.0
H417 H 0.13477 0.52133 0.93051 0.0
H418 H 1.09761 0.64094 0.96992 0.0
H419 H 0.13895 0.52739 0.01658 0.0
C420 C 0.13863 0.56155 0.05271 0.0
C421 C 0.13392 0.59949 0.06391 0.0
C422 C 1.10595 0.61477 0.96137 0.0
C423 C 0.12718 0.59052 0.00769 0.0
C424 C 1.09985 0.60904 0.93352 0.0
C425 C 1.10993 0.5752 0.92166 0.0
C426 C 0.12193 0.5862 0.97778 0.0
C427 C 0.1268 0.54804 0.9387 0.0
C428 C 0.13551 0.55709 0.02472 0.0
C429 C 0.12634 0.63252 0.04613 0.0
N430 N 0.13194 0.55387 0.96585 0.0
N431 N 0.123 0.62711 0.01905 0.0
H432 H 0.77329 0.1841 0.39514 0.0
H433 H 0.62981 1.0564 0.26065 0.0
H434 H 0.62073 1.06604 0.39719 0.0
H435 H 0.72151 0.2164 0.26365 0.0
H436 H 0.63336 1.05195 0.3098 0.0
H437 H 0.76378 0.1891 0.34598 0.0
C438 C 0.73781 0.15907 0.38523 0.0
C439 C 0.6977 0.1246 0.40031 0.0
C440 C 0.65252 0.08792 0.29953 0.0
C441 C 0.687 0.12956 0.34397 0.0
C442 C 0.65034 0.09075 0.27134 0.0
C443 C 0.67551 0.13697 0.25736 0.0
C444 C 0.68114 0.13134 0.31409 0.0
C445 C 0.7025 0.17967 0.273 0.0
C446 C 0.7324 0.16216 0.35721 0.0
C447 C 0.65249 0.0933 0.38635 0.0
N448 N 0.70507 0.17571 0.30036 0.0
N449 N 0.64851 0.09605 0.35892 0.0
H450 H 0.57369 0.50891 0.71544 0.0
H451 H 0.73758 0.70431 0.60147 0.0
H452 H 0.6985 0.65372 0.73312 0.0
H453 H 0.63597 0.54933 0.58664 0.0
H454 H 0.71934 0.68849 0.64912 0.0
H455 H 0.59128 0.52521 0.66776 0.0
C456 C 0.60465 0.5443 0.70933 0.0
C457 C 0.63464 0.58 0.72847 0.0
C458 C 0.70105 0.6579 0.63548 0.0
C459 C 0.65502 0.59888 0.67362 0.0
C460 C 0.71125 0.66695 0.60821 0.0
C461 C 0.68817 0.62812 0.58991 0.0
C462 C 0.6671 0.6097 0.64468 0.0
C463 C 0.65491 0.58033 0.59999 0.0
C464 C 0.6148 0.55345 0.68205 0.0
C465 C 0.67438 0.62504 0.71919 0.0
N466 N 0.6452 0.57255 0.6266 0.0
N467 N 0.68331 0.63321 0.69248 0.0
H468 H 0.83125 0.18775 0.56147 0.0
H469 H 0.74675 0.13591 0.7121 0.0
H470 H 0.68062 0.08188 0.58163 0.0
H471 H 0.89968 0.19614 0.69167 0.0
H472 H 0.72086 0.12161 0.66454 0.0
H473 H 0.85595 0.19773 0.6092 0.0
C474 C 0.80328 0.1666 0.57596 0.0
C475 C 0.7537 0.13399 0.56756 0.0
C476 C 0.76003 0.13776 0.67053 0.0
C477 C 0.78189 0.1455 0.62234 0.0
C478 C 0.77493 0.14578 0.69771 0.0
C479 C 0.82562 0.1672 0.70607 0.0
C480 C 0.79604 0.15188 0.65145 0.0
C481 C 0.86035 0.18027 0.68628 0.0
C482 C 0.81753 0.17218 0.60322 0.0
C483 C 0.71923 0.10732 0.58725 0.0
N484 N 0.84492 0.17258 0.65993 0.0
N485 N 0.73391 0.11393 0.6138 0.0
H486 H 0.60319 0.44076 0.8898 0.0
H487 H 0.53314 0.37365 0.02246 0.0
H488 H 0.59344 0.57227 0.90261 0.0
H489 H 0.57261 0.52736 0.02914 0.0
H490 H 0.54593 0.38817 0.97433 0.0
H491 H 0.58677 0.41595 0.93679 0.0
C492 C 0.59726 0.4643 0.90248 0.0
C493 C 0.59952 0.50861 0.89219 0.0
C494 C 0.55271 0.41905 0.98629 0.0
C495 C 0.5791 0.47962 0.94609 0.0
C496 C 0.54462 0.41048 0.01378 0.0
C497 C 0.55243 0.44948 0.02991 0.0
C498 C 0.56888 0.46709 0.97491 0.0
C499 C 0.56722 0.49645 0.0176 0.0
C500 C 0.58726 0.44975 0.92937 0.0
C501 C 0.59196 0.53777 0.90963 0.0
N502 N 0.57497 0.50389 0.99091 0.0
N503 N 0.58215 0.52275 0.9357 0.0
H504 H 0.20023 0.61794 0.24014 0.0
H505 H 1.07954 0.68464 0.35629 0.0
H506 H 1.06638 0.62905 0.22784 0.0
H507 H 0.20502 0.65984 0.36996 0.0
H508 H 1.07574 0.66722 0.30871 0.0
H509 H 0.20359 0.63485 0.28767 0.0
C510 C 0.17146 0.62373 0.24744 0.0
C511 C 0.13302 0.62211 0.22997 0.0
C512 C 1.10407 0.66556 0.32214 0.0
C513 C 0.13679 0.6418 0.28428 0.0
C514 C 1.10644 0.67582 0.34924 0.0
C515 C 0.1425 0.67347 0.36709 0.0
C516 C 0.13822 0.65317 0.31284 0.0
C517 C 0.17616 0.66138 0.35694 0.0
C518 C 0.17341 0.63344 0.27457 0.0
C519 C 1.09672 0.62991 0.24055 0.0
N520 N 0.17322 0.65171 0.33052 0.0
N521 N 1.0996 0.63957 0.26699 0.0
loop_
_geom_bond_atom_site_label_1
_geom_bond_atom_site_label_2
_geom_bond_distance
_geom_bond_site_symmetry_2
_ccdc_geom_bond_type
Tb0 C10 2.825 . S
Tb0 O11 2.347 . S
Tb0 O14 2.366 . S
Tb0 O19 2.418 . S
Tb0 O20 2.384 1_455 S
Tb0 O23 2.479 . S
Tb0 O24 2.471 . S
Eu1 O12 2.418 . S
Eu1 O13 2.384 1_655 S
Eu1 O16 2.479 . S
Eu1 O17 2.471 . S
Eu1 O18 2.342 1_655 S
Eu1 O21 2.366 . S
Eu1 C31 2.825 . S
C2 O18 1.263 . S
C2 O19 1.265 . S
C3 O20 1.255 . S
C3 O21 1.265 . S
C4 C6 1.380 . S
C4 C7 1.374 . S
C4 C10 1.507 . S
C5 C6 1.384 . S
C5 C9 1.387 . S
C5 H32 0.930 . S
C6 C4 1.380 . S
C6 C5 1.384 . S
C6 H33 0.931 . S
C7 C4 1.374 . S
C7 C8 1.390 . S
C7 H34 0.930 . S
C8 C7 1.390 . S
C8 C9 1.391 . S
C8 H35 0.930 . S
C9 C5 1.387 . S
C9 C8 1.391 . S
C10 Tb0 2.825 . S
C10 C4 1.507 . S
C10 O23 1.238 . S
C10 O24 1.247 . S
O11 Tb0 2.347 . S
O11 C15 1.259 . S
O12 Eu1 2.418 . S
O12 C15 1.265 1_655 S
O13 Eu1 2.384 1_455 S
O13 C22 1.255 . S
O14 Tb0 2.366 . S
O14 C22 1.265 . S
C15 O11 1.259 . S
C15 O12 1.265 1_455 S
O16 Eu1 2.479 . S
O16 C31 1.238 . S
O17 Eu1 2.471 . S
O17 C31 1.247 . S
O18 Eu1 2.342 1_455 S
O18 C2 1.263 . S
O19 Tb0 2.418 . S
O19 C2 1.265 . S
O20 Tb0 2.384 1_655 S
O20 C3 1.255 . S
O21 Eu1 2.366 . S
O21 C3 1.265 . S
C22 O13 1.255 . S
C22 O14 1.265 . S
O23 Tb0 2.479 . S
O23 C10 1.238 . S
O24 Tb0 2.471 . S
O24 C10 1.247 . S
C25 C28 1.380 . S
C25 C29 1.374 . S
C25 C31 1.507 . S
C26 C27 1.387 . S
C26 C30 1.391 . S
C27 C26 1.387 . S
C27 C28 1.384 . S
C27 H36 0.930 . S
C28 C25 1.380 . S
C28 C27 1.384 . S
C28 H37 0.931 . S
C29 C25 1.374 . S
C29 C30 1.390 . S
C29 H38 0.930 . S
C30 C26 1.391 . S
C30 C29 1.390 . S
C30 H39 0.930 . S
C31 Eu1 2.825 . S
C31 O16 1.238 . S
C31 O17 1.247 . S
C31 C25 1.507 . S
H32 C5 0.930 . S
H33 C6 0.931 . S
H34 C7 0.930 . S
H35 C8 0.930 . S
H36 C27 0.930 . S
H37 C28 0.931 . S
H38 C29 0.930 . S
H39 C30 0.930 . S
Tb40 C50 2.825 . S
Tb40 O51 2.347 . S
Tb40 O54 2.366 . S
Tb40 O59 2.418 . S
Tb40 O60 2.384 1_545 S
Tb40 O63 2.479 . S
Tb40 O64 2.471 . S
Eu41 O52 2.418 . S
Eu41 O53 2.384 . S
Eu41 O56 2.479 1_545 S
Eu41 O57 2.471 1_545 S
Eu41 O58 2.347 . S
Eu41 O61 2.366 1_545 S
Eu41 C71 2.825 1_545 S
C42 O58 1.259 . S
C42 O59 1.265 . S
C43 O60 1.255 . S
C43 O61 1.265 . S
C44 C46 1.380 . S
C44 C47 1.374 . S
C44 C50 1.507 . S
C45 C46 1.384 . S
C45 C49 1.387 . S
C45 H72 0.930 . S
C46 C44 1.380 . S
C46 C45 1.384 . S
C46 H73 0.931 . S
C47 C44 1.374 . S
C47 C48 1.390 . S
C47 H74 0.930 . S
C48 C47 1.390 . S
C48 C49 1.391 . S
C48 H75 0.930 . S
C49 C45 1.387 . S
C49 C48 1.391 . S
C50 Tb40 2.825 . S
C50 C44 1.507 . S
C50 O63 1.238 . S
C50 O64 1.247 . S
O51 Tb40 2.347 . S
O51 C55 1.259 . S
O52 Eu41 2.418 . S
O52 C55 1.265 . S
O53 Eu41 2.384 . S
O53 C62 1.255 . S
O54 Tb40 2.366 . S
O54 C62 1.265 . S
C55 O51 1.259 . S
C55 O52 1.265 . S
O56 Eu41 2.479 1_565 S
O56 C71 1.238 . S
O57 Eu41 2.471 1_565 S
O57 C71 1.247 . S
O58 Eu41 2.347 . S
O58 C42 1.259 . S
O59 Tb40 2.418 . S
O59 C42 1.265 . S
O60 Tb40 2.384 1_565 S
O60 C43 1.255 . S
O61 Eu41 2.366 1_565 S
O61 C43 1.265 . S
C62 O53 1.255 . S
C62 O54 1.265 . S
O63 Tb40 2.479 . S
O63 C50 1.238 . S
O64 Tb40 2.471 . S
O64 C50 1.247 . S
C65 C68 1.380 . S
C65 C69 1.374 . S
C65 C71 1.507 . S
C66 C67 1.387 . S
C66 C70 1.391 . S
C67 C66 1.387 . S
C67 C68 1.384 . S
C67 H76 0.930 . S
C68 C65 1.380 . S
C68 C67 1.384 . S
C68 H77 0.931 . S
C69 C65 1.374 . S
C69 C70 1.390 . S
C69 H78 0.930 . S
C70 C66 1.391 . S
C70 C69 1.390 . S
C70 H79 0.930 . S
C71 Eu41 2.825 1_565 S
C71 O56 1.238 . S
C71 O57 1.247 . S
C71 C65 1.507 . S
H72 C45 0.930 . S
H73 C46 0.931 . S
H74 C47 0.930 . S
H75 C48 0.930 . S
H76 C67 0.930 . S
H77 C68 0.931 . S
H78 C69 0.930 . S
H79 C70 0.930 . S
Tb80 C90 2.825 . S
Tb80 O91 2.347 . S
Tb80 O94 2.366 . S
Tb80 O99 2.418 . S
Tb80 O100 2.384 . S
Tb80 O103 2.479 . S
Tb80 O104 2.471 . S
Eu81 O92 2.418 . S
Eu81 O93 2.384 . S
Eu81 O96 2.479 . S
Eu81 O97 2.471 . S
Eu81 O98 2.347 . S
Eu81 O101 2.366 . S
Eu81 C111 2.825 . S
C82 O98 1.259 . S
C82 O99 1.265 . S
C83 O100 1.255 . S
C83 O101 1.265 . S
C84 C86 1.380 . S
C84 C87 1.374 . S
C84 C90 1.507 . S
C85 C86 1.384 . S
C85 C89 1.387 . S
C85 H112 0.930 . S
C86 C84 1.380 . S
C86 C85 1.384 . S
C86 H113 0.931 . S
C87 C84 1.374 . S
C87 C88 1.390 . S
C87 H114 0.930 . S
C88 C87 1.390 . S
C88 C89 1.391 . S
C88 H115 0.930 . S
C89 C85 1.387 . S
C89 C88 1.391 . S
C90 Tb80 2.825 . S
C90 C84 1.507 . S
C90 O103 1.238 . S
C90 O104 1.247 . S
O91 Tb80 2.347 . S
O91 C95 1.259 . S
O92 Eu81 2.418 . S
O92 C95 1.265 . S
O93 Eu81 2.384 . S
O93 C102 1.255 . S
O94 Tb80 2.366 . S
O94 C102 1.265 . S
C95 O91 1.259 . S
C95 O92 1.265 . S
O96 Eu81 2.479 . S
O96 C111 1.238 . S
O97 Eu81 2.471 . S
O97 C111 1.247 . S
O98 Eu81 2.347 . S
O98 C82 1.259 . S
O99 Tb80 2.418 . S
O99 C82 1.265 . S
O100 Tb80 2.384 . S
O100 C83 1.255 . S
O101 Eu81 2.366 . S
O101 C83 1.265 . S
C102 O93 1.255 . S
C102 O94 1.265 . S
O103 Tb80 2.479 . S
O103 C90 1.238 . S
O104 Tb80 2.471 . S
O104 C90 1.247 . S
C105 C108 1.380 . S
C105 C109 1.374 . S
C105 C111 1.507 . S
C106 C107 1.387 . S
C106 C110 1.391 . S
C107 C106 1.387 . S
C107 C108 1.384 . S
C107 H116 0.930 . S
C108 C105 1.380 . S
C108 C107 1.384 . S
C108 H117 0.931 . S
C109 C105 1.374 . S
C109 C110 1.390 . S
C109 H118 0.930 . S
C110 C106 1.391 . S
C110 C109 1.390 . S
C110 H119 0.930 . S
C111 Eu81 2.825 . S
C111 O96 1.238 . S
C111 O97 1.247 . S
C111 C105 1.507 . S
H112 C85 0.930 . S
H113 C86 0.931 . S
H114 C87 0.930 . S
H115 C88 0.930 . S
H116 C107 0.930 . S
H117 C108 0.931 . S
H118 C109 0.930 . S
H119 C110 0.930 . S
H120 C127 0.929 . S
H121 C130 0.930 . S
H122 C132 0.929 . S
H123 C124 0.969 . S
C124 H123 0.969 . S
C124 O125 1.550 . S
C124 H126 0.973 . S
O125 C124 1.550 . S
O125 C131 1.431 . S
H126 C124 0.973 . S
C127 H120 0.929 . S
C127 C128 1.400 . S
C127 C129 1.364 . S
C128 C127 1.400 . S
C128 C132 1.377 . S
C129 C127 1.364 . S
C129 C130 1.374 1_545 S
C130 H121 0.930 . S
C130 C129 1.374 1_565 S
C130 C131 1.384 . S
C131 O125 1.431 . S
C131 C130 1.384 . S
C131 C132 1.383 1_565 S
C132 H122 0.929 . S
C132 C128 1.377 . S
C132 C131 1.383 1_545 S
H133 C140 0.929 . S
H134 C143 0.930 . S
H135 C145 0.929 . S
H136 C137 0.969 . S
C137 H136 0.969 . S
C137 O138 1.550 . S
C137 H139 0.973 . S
O138 C137 1.550 . S
O138 C144 1.412 . S
H139 C137 0.973 . S
C140 H133 0.929 . S
C140 C141 1.400 . S
C140 C142 1.364 . S
C141 C140 1.400 . S
C141 C145 1.377 . S
C142 C140 1.364 . S
C142 C143 1.374 . S
C143 H134 0.930 . S
C143 C142 1.374 . S
C143 C144 1.383 . S
C144 O138 1.412 . S
C144 C143 1.383 . S
C144 C145 1.394 . S
C145 H135 0.929 . S
C145 C141 1.377 . S
C145 C144 1.394 . S
H146 C153 0.929 1_655 S
H147 C156 0.930 . S
H148 C158 0.929 . S
H149 C150 0.969 . S
C150 H149 0.969 . S
C150 O151 1.550 . S
C150 H152 0.973 . S
O151 C150 1.550 . S
O151 C157 1.412 . S
H152 C150 0.973 . S
C153 H146 0.929 1_455 S
C153 C154 1.400 . S
C153 C155 1.364 . S
C154 C153 1.400 . S
C154 C158 1.377 . S
C155 C153 1.364 . S
C155 C156 1.374 . S
C156 H147 0.930 . S
C156 C155 1.374 . S
C156 C157 1.383 . S
C157 O151 1.412 . S
C157 C156 1.383 . S
C157 C158 1.394 . S
C158 H148 0.929 . S
C158 C154 1.377 . S
C158 C157 1.394 . S
H159 C166 0.929 . S
H160 C169 0.930 . S
H161 C171 0.929 . S
H162 C163 0.969 . S
C163 H162 0.969 . S
C163 O164 1.550 . S
C163 H165 0.973 . S
O164 C163 1.550 . S
O164 C170 1.412 . S
H165 C163 0.973 . S
C166 H159 0.929 . S
C166 C167 1.400 . S
C166 C168 1.364 1_655 S
C167 C166 1.400 . S
C167 C171 1.377 1_655 S
C168 C166 1.364 1_455 S
C168 C169 1.374 . S
C169 H160 0.930 . S
C169 C168 1.374 . S
C169 C170 1.383 . S
C170 O164 1.412 . S
C170 C169 1.383 . S
C170 C171 1.394 . S
C171 H161 0.929 . S
C171 C167 1.377 1_455 S
C171 C170 1.394 . S
H172 C179 0.929 . S
H173 C182 0.930 . S
H174 C184 0.929 . S
H175 C176 0.969 . S
C176 H175 0.969 . S
C176 O177 1.550 . S
C176 H178 0.973 . S
O177 C176 1.550 . S
O177 C183 1.412 . S
H178 C176 0.973 . S
C179 H172 0.929 . S
C179 C180 1.400 . S
C179 C181 1.364 1_565 S
C180 C179 1.400 . S
C180 C184 1.377 . S
C181 C179 1.364 1_545 S
C181 C182 1.374 . S
C182 H173 0.930 . S
C182 C181 1.374 . S
C182 C183 1.383 . S
C183 O177 1.412 . S
C183 C182 1.383 . S
C183 C184 1.394 1_545 S
C184 H174 0.929 . S
C184 C180 1.377 . S
C184 C183 1.394 1_565 S
H185 C192 0.929 . S
H186 C195 0.930 . S
H187 C197 0.929 . S
H188 C189 0.969 . S
C189 H188 0.969 . S
C189 O190 1.550 . S
C189 H191 0.973 . S
O190 C189 1.550 . S
O190 C196 1.412 . S
H191 C189 0.973 . S
C192 H185 0.929 . S
C192 C193 1.400 . S
C192 C194 1.364 . S
C193 C192 1.400 . S
C193 C197 1.377 . S
C194 C192 1.364 . S
C194 C195 1.374 . S
C195 H186 0.930 . S
C195 C194 1.374 . S
C195 C196 1.383 . S
C196 O190 1.412 . S
C196 C195 1.383 . S
C196 C197 1.394 . S
C197 H187 0.929 . S
C197 C193 1.377 . S
C197 C196 1.394 . S
H198 C204 0.930 . S
H199 C208 0.930 . S
H200 C213 0.929 . S
H201 C211 0.929 . S
H202 C206 0.929 . S
H203 C212 0.929 . S
C204 H198 0.930 . S
C204 C205 1.367 . S
C204 C212 1.378 . S
C205 C204 1.367 . S
C205 C213 1.433 . S
C206 H202 0.929 . S
C206 C208 1.378 . S
C206 C210 1.350 . S
C207 C210 1.463 . S
C207 C212 1.350 . S
C207 N215 1.427 . S
C208 H199 0.930 . S
C208 C206 1.378 . S
C208 C209 1.367 . S
C209 C208 1.367 . S
C209 C211 1.433 . S
C210 C206 1.350 . S
C210 C207 1.463 . S
C210 N214 1.427 . S
C211 H201 0.929 . S
C211 C209 1.433 . S
C211 N214 1.384 . S
C212 H203 0.929 . S
C212 C204 1.378 . S
C212 C207 1.350 . S
C213 H200 0.929 . S
C213 C205 1.433 . S
C213 N215 1.384 . S
N214 C210 1.427 . S
N214 C211 1.384 . S
N215 C207 1.427 . S
N215 C213 1.384 . S
H216 C222 0.930 . S
H217 C226 0.930 1_455 S
H218 C231 0.929 . S
H219 C229 0.929 . S
H220 C224 0.929 . S
H221 C230 0.929 . S
C222 H216 0.930 . S
C222 C223 1.367 . S
C222 C230 1.378 . S
C223 C222 1.367 . S
C223 C231 1.433 . S
C224 H220 0.929 . S
C224 C226 1.378 . S
C224 C228 1.350 . S
C225 C228 1.463 . S
C225 C230 1.350 . S
C225 N233 1.427 . S
C226 H217 0.930 1_655 S
C226 C224 1.378 . S
C226 C227 1.367 . S
C227 C226 1.367 . S
C227 C229 1.433 . S
C228 C224 1.350 . S
C228 C225 1.463 . S
C228 N232 1.427 . S
C229 H219 0.929 . S
C229 C227 1.433 . S
C229 N232 1.384 . S
C230 H221 0.929 . S
C230 C222 1.378 . S
C230 C225 1.350 . S
C231 H218 0.929 . S
C231 C223 1.433 . S
C231 N233 1.384 . S
N232 C228 1.427 . S
N232 C229 1.384 . S
N233 C225 1.427 . S
N233 C231 1.384 . S
H234 C240 0.930 . S
H235 C244 0.930 . S
H236 C249 0.929 . S
H237 C247 0.929 . S
H238 C242 0.929 . S
H239 C248 0.929 . S
C240 H234 0.930 . S
C240 C241 1.367 . S
C240 C248 1.378 . S
C241 C240 1.367 . S
C241 C249 1.433 . S
C242 H238 0.929 . S
C242 C244 1.378 . S
C242 C246 1.350 . S
C243 C246 1.463 . S
C243 C248 1.350 . S
C243 N251 1.427 . S
C244 H235 0.930 . S
C244 C242 1.378 . S
C244 C245 1.367 . S
C245 C244 1.367 . S
C245 C247 1.433 . S
C246 C242 1.350 . S
C246 C243 1.463 . S
C246 N250 1.427 . S
C247 H237 0.929 . S
C247 C245 1.433 . S
C247 N250 1.384 . S
C248 H239 0.929 . S
C248 C240 1.378 . S
C248 C243 1.350 . S
C249 H236 0.929 . S
C249 C241 1.433 . S
C249 N251 1.384 . S
N250 C246 1.427 . S
N250 C247 1.384 . S
N251 C243 1.427 . S
N251 C249 1.384 . S
H252 C258 0.930 . S
H253 C262 0.930 . S
H254 C267 0.929 . S
H255 C265 0.929 . S
H256 C260 0.929 . S
H257 C266 0.929 . S
C258 H252 0.930 . S
C258 C259 1.367 . S
C258 C266 1.378 . S
C259 C258 1.367 . S
C259 C267 1.433 . S
C260 H256 0.929 . S
C260 C262 1.378 . S
C260 C264 1.350 . S
C261 C264 1.463 . S
C261 C266 1.350 . S
C261 N269 1.427 . S
C262 H253 0.930 . S
C262 C260 1.378 . S
C262 C263 1.367 . S
C263 C262 1.367 . S
C263 C265 1.433 . S
C264 C260 1.350 . S
C264 C261 1.463 . S
C264 N268 1.427 . S
C265 H255 0.929 . S
C265 C263 1.433 . S
C265 N268 1.384 . S
C266 H257 0.929 . S
C266 C258 1.378 . S
C266 C261 1.350 . S
C267 H254 0.929 . S
C267 C259 1.433 . S
C267 N269 1.384 . S
N268 C264 1.427 . S
N268 C265 1.384 . S
N269 C261 1.427 . S
N269 C267 1.384 . S
H270 C276 0.930 . S
H271 C280 0.930 . S
H272 C285 0.929 . S
H273 C283 0.929 . S
H274 C278 0.929 . S
H275 C284 0.929 . S
C276 H270 0.930 . S
C276 C277 1.367 . S
C276 C284 1.378 . S
C277 C276 1.367 . S
C277 C285 1.433 . S
C278 H274 0.929 . S
C278 C280 1.378 . S
C278 C282 1.350 . S
C279 C282 1.463 . S
C279 C284 1.350 . S
C279 N287 1.427 . S
C280 H271 0.930 . S
C280 C278 1.378 . S
C280 C281 1.367 . S
C281 C280 1.367 . S
C281 C283 1.433 . S
C282 C278 1.350 . S
C282 C279 1.463 . S
C282 N286 1.427 . S
C283 H273 0.929 . S
C283 C281 1.433 . S
C283 N286 1.384 . S
C284 H275 0.929 . S
C284 C276 1.378 . S
C284 C279 1.350 . S
C285 H272 0.929 . S
C285 C277 1.433 . S
C285 N287 1.384 . S
N286 C282 1.427 . S
N286 C283 1.384 . S
N287 C279 1.427 . S
N287 C285 1.384 . S
H288 C294 0.930 . S
H289 C298 0.930 . S
H290 C303 0.929 . S
H291 C301 0.929 . S
H292 C296 0.929 . S
H293 C302 0.929 . S
C294 H288 0.930 . S
C294 C295 1.367 . S
C294 C302 1.378 . S
C295 C294 1.367 . S
C295 C303 1.433 . S
C296 H292 0.929 . S
C296 C298 1.378 . S
C296 C300 1.350 . S
C297 C300 1.463 . S
C297 C302 1.350 . S
C297 N305 1.427 . S
C298 H289 0.930 . S
C298 C296 1.378 . S
C298 C299 1.367 . S
C299 C298 1.367 . S
C299 C301 1.433 . S
C300 C296 1.350 . S
C300 C297 1.463 . S
C300 N304 1.427 . S
C301 H291 0.929 . S
C301 C299 1.433 . S
C301 N304 1.384 . S
C302 H293 0.929 . S
C302 C294 1.378 . S
C302 C297 1.350 . S
C303 H290 0.929 . S
C303 C295 1.433 . S
C303 N305 1.384 . S
N304 C300 1.427 . S
N304 C301 1.384 . S
N305 C297 1.427 . S
N305 C303 1.384 . S
H306 C312 0.930 . S
H307 C316 0.930 . S
H308 C321 0.929 . S
H309 C319 0.929 . S
H310 C314 0.929 . S
H311 C320 0.929 . S
C312 H306 0.930 . S
C312 C313 1.367 . S
C312 C320 1.378 . S
C313 C312 1.367 . S
C313 C321 1.433 . S
C314 H310 0.929 . S
C314 C316 1.378 . S
C314 C318 1.350 . S
C315 C318 1.463 . S
C315 C320 1.350 . S
C315 N323 1.427 . S
C316 H307 0.930 . S
C316 C314 1.378 . S
C316 C317 1.367 . S
C317 C316 1.367 . S
C317 C319 1.433 . S
C318 C314 1.350 . S
C318 C315 1.463 . S
C318 N322 1.427 . S
C319 H309 0.929 . S
C319 C317 1.433 . S
C319 N322 1.384 . S
C320 H311 0.929 . S
C320 C312 1.378 . S
C320 C315 1.350 . S
C321 H308 0.929 . S
C321 C313 1.433 . S
C321 N323 1.384 . S
N322 C318 1.427 . S
N322 C319 1.384 . S
N323 C315 1.427 . S
N323 C321 1.384 . S
H324 C330 0.930 . S
H325 C334 0.930 . S
H326 C339 0.929 . S
H327 C337 0.929 . S
H328 C332 0.929 . S
H329 C338 0.929 . S
C330 H324 0.930 . S
C330 C331 1.367 . S
C330 C338 1.378 . S
C331 C330 1.367 . S
C331 C339 1.433 . S
C332 H328 0.929 . S
C332 C334 1.378 . S
C332 C336 1.350 . S
C333 C336 1.463 . S
C333 C338 1.350 . S
C333 N341 1.427 . S
C334 H325 0.930 . S
C334 C332 1.378 . S
C334 C335 1.367 . S
C335 C334 1.367 . S
C335 C337 1.433 . S
C336 C332 1.350 . S
C336 C333 1.463 . S
C336 N340 1.427 . S
C337 H327 0.929 . S
C337 C335 1.433 . S
C337 N340 1.384 . S
C338 H329 0.929 . S
C338 C330 1.378 . S
C338 C333 1.350 . S
C339 H326 0.929 . S
C339 C331 1.433 . S
C339 N341 1.384 . S
N340 C336 1.427 . S
N340 C337 1.384 . S
N341 C333 1.427 . S
N341 C339 1.384 . S
H342 C348 0.930 . S
H343 C352 0.930 . S
H344 C357 0.929 . S
H345 C355 0.929 . S
H346 C350 0.929 . S
H347 C356 0.929 . S
C348 H342 0.930 . S
C348 C349 1.367 . S
C348 C356 1.378 . S
C349 C348 1.367 . S
C349 C357 1.433 . S
C350 H346 0.929 . S
C350 C352 1.378 . S
C350 C354 1.350 . S
C351 C354 1.463 . S
C351 C356 1.350 . S
C351 N359 1.427 . S
C352 H343 0.930 . S
C352 C350 1.378 . S
C352 C353 1.367 . S
C353 C352 1.367 . S
C353 C355 1.433 . S
C354 C350 1.350 . S
C354 C351 1.463 . S
C354 N358 1.427 . S
C355 H345 0.929 . S
C355 C353 1.433 . S
C355 N358 1.384 . S
C356 H347 0.929 . S
C356 C348 1.378 . S
C356 C351 1.350 . S
C357 H344 0.929 . S
C357 C349 1.433 . S
C357 N359 1.384 . S
N358 C354 1.427 . S
N358 C355 1.384 . S
N359 C351 1.427 . S
N359 C357 1.384 . S
H360 C366 0.930 . S
H361 C370 0.930 . S
H362 C375 0.929 . S
H363 C373 0.929 . S
H364 C368 0.929 . S
H365 C374 0.929 . S
C366 H360 0.930 . S
C366 C367 1.367 . S
C366 C374 1.378 . S
C367 C366 1.367 . S
C367 C375 1.433 . S
C368 H364 0.929 . S
C368 C370 1.378 . S
C368 C372 1.350 . S
C369 C372 1.463 . S
C369 C374 1.350 . S
C369 N377 1.427 . S
C370 H361 0.930 . S
C370 C368 1.378 . S
C370 C371 1.367 . S
C371 C370 1.367 . S
C371 C373 1.433 . S
C372 C368 1.350 . S
C372 C369 1.463 . S
C372 N376 1.427 . S
C373 H363 0.929 . S
C373 C371 1.433 . S
C373 N376 1.384 . S
C374 H365 0.929 . S
C374 C366 1.378 . S
C374 C369 1.350 . S
C375 H362 0.929 . S
C375 C367 1.433 . S
C375 N377 1.384 . S
N376 C372 1.427 . S
N376 C373 1.384 . S
N377 C369 1.427 . S
N377 C375 1.384 . S
H378 C384 0.930 . S
H379 C388 0.930 . S
H380 C393 0.929 . S
H381 C391 0.929 . S
H382 C386 0.929 . S
H383 C392 0.929 . S
C384 H378 0.930 . S
C384 C385 1.367 . S
C384 C392 1.378 . S
C385 C384 1.367 . S
C385 C393 1.433 . S
C386 H382 0.929 . S
C386 C388 1.378 . S
C386 C390 1.350 . S
C387 C390 1.463 . S
C387 C392 1.350 . S
C387 N395 1.427 . S
C388 H379 0.930 . S
C388 C386 1.378 . S
C388 C389 1.367 . S
C389 C388 1.367 . S
C389 C391 1.433 . S
C390 C386 1.350 . S
C390 C387 1.463 . S
C390 N394 1.427 . S
C391 H381 0.929 . S
C391 C389 1.433 . S
C391 N394 1.384 . S
C392 H383 0.929 . S
C392 C384 1.378 . S
C392 C387 1.350 . S
C393 H380 0.929 . S
C393 C385 1.433 . S
C393 N395 1.384 . S
N394 C390 1.427 . S
N394 C391 1.384 . S
N395 C387 1.427 . S
N395 C393 1.384 . S
H396 C402 0.930 . S
H397 C406 0.930 . S
H398 C411 0.929 . S
H399 C409 0.929 . S
H400 C404 0.929 . S
H401 C410 0.929 . S
C402 H396 0.930 . S
C402 C403 1.367 . S
C402 C410 1.378 . S
C403 C402 1.367 . S
C403 C411 1.433 . S
C404 H400 0.929 . S
C404 C406 1.378 . S
C404 C408 1.350 . S
C405 C408 1.463 . S
C405 C410 1.350 . S
C405 N413 1.427 . S
C406 H397 0.930 . S
C406 C404 1.378 . S
C406 C407 1.367 . S
C407 C406 1.367 . S
C407 C409 1.433 . S
C408 C404 1.350 . S
C408 C405 1.463 . S
C408 N412 1.427 . S
C409 H399 0.929 . S
C409 C407 1.433 . S
C409 N412 1.384 . S
C410 H401 0.929 . S
C410 C402 1.378 . S
C410 C405 1.350 . S
C411 H398 0.929 . S
C411 C403 1.433 . S
C411 N413 1.384 . S
N412 C408 1.427 . S
N412 C409 1.384 . S
N413 C405 1.427 . S
N413 C411 1.384 . S
H414 C420 0.930 . S
H415 C424 0.930 . S
H416 C429 0.929 . S
H417 C427 0.929 1_655 S
H418 C422 0.929 . S
H419 C428 0.929 . S
C420 H414 0.930 . S
C420 C421 1.367 1_655 S
C420 C428 1.378 . S
C421 C420 1.367 1_455 S
C421 C429 1.433 . S
C422 H418 0.929 . S
C422 C424 1.378 . S
C422 C426 1.350 . S
C423 C426 1.463 1_554 S
C423 C428 1.350 1_455 S
C423 N431 1.427 . S
C424 H415 0.930 . S
C424 C422 1.378 . S
C424 C425 1.367 . S
C425 C424 1.367 . S
C425 C427 1.433 . S
C426 C422 1.350 . S
C426 C423 1.463 1_556 S
C426 N430 1.427 1_455 S
C427 H417 0.929 1_455 S
C427 C425 1.433 . S
C427 N430 1.384 1_455 S
C428 H419 0.929 . S
C428 C420 1.378 . S
C428 C423 1.350 1_655 S
C429 H416 0.929 . S
C429 C421 1.433 . S
C429 N431 1.384 . S
N430 C426 1.427 1_655 S
N430 C427 1.384 1_655 S
N431 C423 1.427 . S
N431 C429 1.384 . S
H432 C438 0.930 . S
H433 C442 0.930 . S
H434 C447 0.929 1_565 S
H435 C445 0.929 . S
H436 C440 0.929 . S
H437 C446 0.929 . S
C438 H432 0.930 . S
C438 C439 1.367 . S
C438 C446 1.378 . S
C439 C438 1.367 . S
C439 C447 1.433 . S
C440 H436 0.929 . S
C440 C442 1.378 . S
C440 C444 1.350 1_565 S
C441 C444 1.463 . S
C441 C446 1.350 . S
C441 N449 1.427 . S
C442 H433 0.930 . S
C442 C440 1.378 . S
C442 C443 1.367 1_565 S
C443 C442 1.367 1_545 S
C443 C445 1.433 . S
C444 C440 1.350 1_545 S
C444 C441 1.463 . S
C444 N448 1.427 . S
C445 H435 0.929 . S
C445 C443 1.433 . S
C445 N448 1.384 . S
C446 H437 0.929 . S
C446 C438 1.378 . S
C446 C441 1.350 . S
C447 H434 0.929 1_545 S
C447 C439 1.433 . S
C447 N449 1.384 . S
N448 C444 1.427 . S
N448 C445 1.384 . S
N449 C441 1.427 . S
N449 C447 1.384 . S
H450 C456 0.930 . S
H451 C460 0.930 . S
H452 C465 0.929 . S
H453 C463 0.929 . S
H454 C458 0.929 . S
H455 C464 0.929 . S
C456 H450 0.930 . S
C456 C457 1.367 . S
C456 C464 1.378 . S
C457 C456 1.367 . S
C457 C465 1.433 . S
C458 H454 0.929 . S
C458 C460 1.378 . S
C458 C462 1.350 . S
C459 C462 1.463 . S
C459 C464 1.350 . S
C459 N467 1.427 . S
C460 H451 0.930 . S
C460 C458 1.378 . S
C460 C461 1.367 . S
C461 C460 1.367 . S
C461 C463 1.433 . S
C462 C458 1.350 . S
C462 C459 1.463 . S
C462 N466 1.427 . S
C463 H453 0.929 . S
C463 C461 1.433 . S
C463 N466 1.384 . S
C464 H455 0.929 . S
C464 C456 1.378 . S
C464 C459 1.350 . S
C465 H452 0.929 . S
C465 C457 1.433 . S
C465 N467 1.384 . S
N466 C462 1.427 . S
N466 C463 1.384 . S
N467 C459 1.427 . S
N467 C465 1.384 . S
H468 C474 0.930 . S
H469 C478 0.930 . S
H470 C483 0.929 . S
H471 C481 0.929 . S
H472 C476 0.929 . S
H473 C482 0.929 . S
C474 H468 0.930 . S
C474 C475 1.367 . S
C474 C482 1.378 . S
C475 C474 1.367 . S
C475 C483 1.433 1_545 S
C476 H472 0.929 . S
C476 C478 1.378 . S
C476 C480 1.350 1_565 S
C477 C480 1.463 . S
C477 C482 1.350 . S
C477 N485 1.427 1_545 S
C478 H469 0.930 . S
C478 C476 1.378 . S
C478 C479 1.367 1_565 S
C479 C478 1.367 1_545 S
C479 C481 1.433 . S
C480 C476 1.350 1_545 S
C480 C477 1.463 . S
C480 N484 1.427 . S
C481 H471 0.929 . S
C481 C479 1.433 . S
C481 N484 1.384 . S
C482 H473 0.929 . S
C482 C474 1.378 . S
C482 C477 1.350 . S
C483 H470 0.929 . S
C483 C475 1.433 1_565 S
C483 N485 1.384 . S
N484 C480 1.427 . S
N484 C481 1.384 . S
N485 C477 1.427 1_565 S
N485 C483 1.384 . S
H486 C492 0.930 . S
H487 C496 0.930 . S
H488 C501 0.929 . S
H489 C499 0.929 . S
H490 C494 0.929 1_556 S
H491 C500 0.929 . S
C492 H486 0.930 . S
C492 C493 1.367 . S
C492 C500 1.378 . S
C493 C492 1.367 . S
C493 C501 1.433 . S
C494 H490 0.929 1_554 S
C494 C496 1.378 . S
C494 C498 1.350 1_554 S
C495 C498 1.463 . S
C495 C500 1.350 . S
C495 N503 1.427 . S
C496 H487 0.930 . S
C496 C494 1.378 . S
C496 C497 1.367 . S
C497 C496 1.367 . S
C497 C499 1.433 . S
C498 C494 1.350 1_556 S
C498 C495 1.463 . S
C498 N502 1.427 1_556 S
C499 H489 0.929 . S
C499 C497 1.433 . S
C499 N502 1.384 . S
C500 H491 0.929 . S
C500 C492 1.378 . S
C500 C495 1.350 . S
C501 H488 0.929 . S
C501 C493 1.433 . S
C501 N503 1.384 . S
N502 C498 1.427 1_554 S
N502 C499 1.384 . S
N503 C495 1.427 . S
N503 C501 1.384 . S
H504 C510 0.930 . S
H505 C514 0.930 . S
H506 C519 0.929 . S
H507 C517 0.929 . S
H508 C512 0.929 . S
H509 C518 0.929 . S
C510 H504 0.930 . S
C510 C511 1.367 . S
C510 C518 1.378 . S
C511 C510 1.367 . S
C511 C519 1.433 . S
C512 H508 0.929 . S
C512 C514 1.378 . S
C512 C516 1.350 . S
C513 C516 1.463 . S
C513 C518 1.350 . S
C513 N521 1.427 . S
C514 H505 0.930 . S
C514 C512 1.378 . S
C514 C515 1.367 . S
C515 C514 1.367 . S
C515 C517 1.433 . S
C516 C512 1.350 . S
C516 C513 1.463 . S
C516 N520 1.427 . S
C517 H507 0.929 . S
C517 C515 1.433 . S
C517 N520 1.384 . S
C518 H509 0.929 . S
C518 C510 1.378 . S
C518 C513 1.350 . S
C519 H506 0.929 . S
C519 C511 1.433 . S
C519 N521 1.384 . S
N520 C516 1.427 . S
N520 C517 1.384 . S
N521 C513 1.427 . S
N521 C519 1.384 . S
C205 C9 0.540 . S
C209 C189 0.550 . S
C223 C49 0.223 . S
C227 C167 0.250 . S
C241 C89 0.223 . S
C245 C180 0.281 . S
C259 C26 0.365 . S
C263 C193 0.222 . S
C281 C163 0.566 . S
C277 C66 0.603 . S
C299 C176 0.563 . S
C295 C106 0.612 . S
C313 C43 2.906 . S
C317 C141 2.866 . S
C331 C83 2.998 . S
C335 C154 2.952 1_655 S
C349 C22 3.166 . S
C353 C124 2.950 . S
C371 C137 2.964 . S
C367 C62 3.178 . S
C389 C150 2.891 . S
C385 C102 3.078 . S
C403 C3 2.915 . S
C407 C128 2.881 . S
C425 C155 1.748 . S
C421 C15 1.708 . S
C439 C55 1.712 . S
C443 C129 1.782 . S
C457 C95 1.701 . S
C461 C142 1.779 . S
C479 C181 1.249 . S
C475 C42 1.242 . S
C497 C194 1.264 . S
C493 C82 1.251 . S
C511 C2 1.219 . S
C515 C168 1.242 . S
