# Generated by pormake.
# Topology ctn, (3,4)-cn, num edge types: 1
# Building blocks:
#     Node 0, Type 0, BuildingBlock: CUQRIR_clean_linker_1, # of connection points: 3
#     Node 1, Type 0, BuildingBlock: CUQRIR_clean_linker_1, # of connection points: 3
#     Node 2, Type 0, BuildingBlock: CUQRIR_clean_linker_1, # of connection points: 3
#     Node 3, Type 0, BuildingBlock: CUQRIR_clean_linker_1, # of connection points: 3
#     Node 4, Type 0, BuildingBlock: CUQRIR_clean_linker_1, # of connection points: 3
#     Node 5, Type 0, BuildingBlock: CUQRIR_clean_linker_1, # of connection points: 3
#     Node 6, Type 0, BuildingBlock: CUQRIR_clean_linker_1, # of connection points: 3
#     Node 7, Type 0, BuildingBlock: CUQRIR_clean_linker_1, # of connection points: 3
#     Node 8, Type 0, BuildingBlock: CUQRIR_clean_linker_1, # of connection points: 3
#     Node 9, Type 0, BuildingBlock: CUQRIR_clean_linker_1, # of connection points: 3
#     Node 10, Type 0, BuildingBlock: CUQRIR_clean_linker_1, # of connection points: 3
#     Node 11, Type 0, BuildingBlock: CUQRIR_clean_linker_1, # of connection points: 3
#     Node 12, Type 0, BuildingBlock: CUQRIR_clean_linker_1, # of connection points: 3
#     Node 13, Type 0, BuildingBlock: CUQRIR_clean_linker_1, # of connection points: 3
#     Node 14, Type 0, BuildingBlock: CUQRIR_clean_linker_1, # of connection points: 3
#     Node 15, Type 0, BuildingBlock: CUQRIR_clean_linker_1, # of connection points: 3
#     Node 16, Type 1, BuildingBlock: AZAVOO_clean_sbu_0, # of connection points: 4
#     Node 17, Type 1, BuildingBlock: AZAVOO_clean_sbu_0, # of connection points: 4
#     Node 18, Type 1, BuildingBlock: AZAVOO_clean_sbu_0, # of connection points: 4
#     Node 19, Type 1, BuildingBlock: AZAVOO_clean_sbu_0, # of connection points: 4
#     Node 20, Type 1, BuildingBlock: AZAVOO_clean_sbu_0, # of connection points: 4
#     Node 21, Type 1, BuildingBlock: AZAVOO_clean_sbu_0, # of connection points: 4
#     Node 22, Type 1, BuildingBlock: AZAVOO_clean_sbu_0, # of connection points: 4
#     Node 23, Type 1, BuildingBlock: AZAVOO_clean_sbu_0, # of connection points: 4
#     Node 24, Type 1, BuildingBlock: AZAVOO_clean_sbu_0, # of connection points: 4
#     Node 25, Type 1, BuildingBlock: AZAVOO_clean_sbu_0, # of connection points: 4
#     Node 26, Type 1, BuildingBlock: AZAVOO_clean_sbu_0, # of connection points: 4
#     Node 27, Type 1, BuildingBlock: AZAVOO_clean_sbu_0, # of connection points: 4
#     Edge 28, Type (0, 1), BuildingBlock: ZUJKAS_clean_linker_0, # of connection points: 2
#     Edge 29, Type (0, 1), BuildingBlock: ZUJKAS_clean_linker_0, # of connection points: 2
#     Edge 30, Type (0, 1), BuildingBlock: ZUJKAS_clean_linker_0, # of connection points: 2
#     Edge 31, Type (0, 1), BuildingBlock: ZUJKAS_clean_linker_0, # of connection points: 2
#     Edge 32, Type (0, 1), BuildingBlock: ZUJKAS_clean_linker_0, # of connection points: 2
#     Edge 33, Type (0, 1), BuildingBlock: ZUJKAS_clean_linker_0, # of connection points: 2
#     Edge 34, Type (0, 1), BuildingBlock: ZUJKAS_clean_linker_0, # of connection points: 2
#     Edge 35, Type (0, 1), BuildingBlock: ZUJKAS_clean_linker_0, # of connection points: 2
#     Edge 36, Type (0, 1), BuildingBlock: ZUJKAS_clean_linker_0, # of connection points: 2
#     Edge 37, Type (0, 1), BuildingBlock: ZUJKAS_clean_linker_0, # of connection points: 2
#     Edge 38, Type (0, 1), BuildingBlock: ZUJKAS_clean_linker_0, # of connection points: 2
#     Edge 39, Type (0, 1), BuildingBlock: ZUJKAS_clean_linker_0, # of connection points: 2
#     Edge 40, Type (0, 1), BuildingBlock: ZUJKAS_clean_linker_0, # of connection points: 2
#     Edge 41, Type (0, 1), BuildingBlock: ZUJKAS_clean_linker_0, # of connection points: 2
#     Edge 42, Type (0, 1), BuildingBlock: ZUJKAS_clean_linker_0, # of connection points: 2
#     Edge 43, Type (0, 1), BuildingBlock: ZUJKAS_clean_linker_0, # of connection points: 2
#     Edge 44, Type (0, 1), BuildingBlock: ZUJKAS_clean_linker_0, # of connection points: 2
#     Edge 45, Type (0, 1), BuildingBlock: ZUJKAS_clean_linker_0, # of connection points: 2
#     Edge 46, Type (0, 1), BuildingBlock: ZUJKAS_clean_linker_0, # of connection points: 2
#     Edge 47, Type (0, 1), BuildingBlock: ZUJKAS_clean_linker_0, # of connection points: 2
#     Edge 48, Type (0, 1), BuildingBlock: ZUJKAS_clean_linker_0, # of connection points: 2
#     Edge 49, Type (0, 1), BuildingBlock: ZUJKAS_clean_linker_0, # of connection points: 2
#     Edge 50, Type (0, 1), BuildingBlock: ZUJKAS_clean_linker_0, # of connection points: 2
#     Edge 51, Type (0, 1), BuildingBlock: ZUJKAS_clean_linker_0, # of connection points: 2
#     Edge 52, Type (0, 1), BuildingBlock: ZUJKAS_clean_linker_0, # of connection points: 2
#     Edge 53, Type (0, 1), BuildingBlock: ZUJKAS_clean_linker_0, # of connection points: 2
#     Edge 54, Type (0, 1), BuildingBlock: ZUJKAS_clean_linker_0, # of connection points: 2
#     Edge 55, Type (0, 1), BuildingBlock: ZUJKAS_clean_linker_0, # of connection points: 2
#     Edge 56, Type (0, 1), BuildingBlock: ZUJKAS_clean_linker_0, # of connection points: 2
#     Edge 57, Type (0, 1), BuildingBlock: ZUJKAS_clean_linker_0, # of connection points: 2
#     Edge 58, Type (0, 1), BuildingBlock: ZUJKAS_clean_linker_0, # of connection points: 2
#     Edge 59, Type (0, 1), BuildingBlock: ZUJKAS_clean_linker_0, # of connection points: 2
#     Edge 60, Type (0, 1), BuildingBlock: ZUJKAS_clean_linker_0, # of connection points: 2
#     Edge 61, Type (0, 1), BuildingBlock: ZUJKAS_clean_linker_0, # of connection points: 2
#     Edge 62, Type (0, 1), BuildingBlock: ZUJKAS_clean_linker_0, # of connection points: 2
#     Edge 63, Type (0, 1), BuildingBlock: ZUJKAS_clean_linker_0, # of connection points: 2
#     Edge 64, Type (0, 1), BuildingBlock: ZUJKAS_clean_linker_0, # of connection points: 2
#     Edge 65, Type (0, 1), BuildingBlock: ZUJKAS_clean_linker_0, # of connection points: 2
#     Edge 66, Type (0, 1), BuildingBlock: ZUJKAS_clean_linker_0, # of connection points: 2
#     Edge 67, Type (0, 1), BuildingBlock: ZUJKAS_clean_linker_0, # of connection points: 2
#     Edge 68, Type (0, 1), BuildingBlock: ZUJKAS_clean_linker_0, # of connection points: 2
#     Edge 69, Type (0, 1), BuildingBlock: ZUJKAS_clean_linker_0, # of connection points: 2
#     Edge 70, Type (0, 1), BuildingBlock: ZUJKAS_clean_linker_0, # of connection points: 2
#     Edge 71, Type (0, 1), BuildingBlock: ZUJKAS_clean_linker_0, # of connection points: 2
#     Edge 72, Type (0, 1), BuildingBlock: ZUJKAS_clean_linker_0, # of connection points: 2
#     Edge 73, Type (0, 1), BuildingBlock: ZUJKAS_clean_linker_0, # of connection points: 2
#     Edge 74, Type (0, 1), BuildingBlock: ZUJKAS_clean_linker_0, # of connection points: 2
#     Edge 75, Type (0, 1), BuildingBlock: ZUJKAS_clean_linker_0, # of connection points: 2
# Relax obj value: 0.078
# Max RMSD: 0.209
# Mean RMSD: 0.134
data_MOF--net-ctn--node1-AZAVOO_clean_sbu_0--node2-CUQRIR_clean_linker_1--edge1-ZUJKAS_clean_linker_0
_symmetry_space_group_name_H-M    P1
_symmetry_Int_Tables_number       1
_symmetry_cell_setting            triclinic
loop_
_symmetry_equiv_pos_as_xyz
'x, y, z'
_cell_length_a     68.456228
_cell_length_b     64.764901
_cell_length_c     66.312081
_cell_angle_alpha  96.637486
_cell_angle_beta   91.40624
_cell_angle_gamma 95.558488
loop_
_atom_site_label
_atom_site_type_symbol
_atom_site_fract_x
_atom_site_fract_y
_atom_site_fract_z
_atom_type_partial_charge
C0 C 0.03629 0.9944 0.05728 0.0
N1 N 0.04398 0.00093 0.04022 0.0
N2 N 0.01843 0.00127 0.06036 0.0
C3 C 0.04609 0.98102 0.07076 0.0
C4 C 0.01554 0.01228 0.04457 0.0
N5 N 0.03097 0.01184 0.0321 0.0
C6 C 0.9988 0.02553 0.04275 0.0
H7 H 0.03513 0.97227 0.07946 0.0
H8 H 0.05641 0.99122 0.08166 0.0
H9 H 0.05466 0.96984 0.06166 0.0
H10 H 0.99226 0.02953 0.05766 0.0
H11 H 0.98723 0.01672 0.03225 0.0
H12 H 0.00378 0.04026 0.03653 0.0
C13 C 0.29075 0.73496 0.23832 0.0
N14 N 0.29888 0.72436 0.25227 0.0
N15 N 0.30382 0.75033 0.23314 0.0
C16 C 0.27061 0.7291 0.22843 0.0
C17 C 0.32032 0.7485 0.24423 0.0
N18 N 0.3174 0.73254 0.25578 0.0
C19 C 0.33873 0.7633 0.24486 0.0
H20 H 0.27003 0.73352 0.21278 0.0
H21 H 0.25979 0.73746 0.23752 0.0
H22 H 0.2663 0.71207 0.2278 0.0
H23 H 0.33547 0.77869 0.24054 0.0
H24 H 0.34913 0.75665 0.23393 0.0
H25 H 0.34591 0.76556 0.26025 0.0
C26 C 0.97173 0.48956 0.07975 0.0
N27 N 0.98298 0.47339 0.07948 0.0
N28 N 0.9597 0.48732 0.06292 0.0
C29 C 0.97229 0.50734 0.09657 0.0
C30 C 0.96418 0.46936 0.05232 0.0
N31 N 0.97845 0.46102 0.06224 0.0
C32 C 0.95412 0.45958 0.03261 0.0
H33 H 0.96616 0.52115 0.09149 0.0
H34 H 0.98759 0.51187 0.10254 0.0
H35 H 0.96339 0.50219 0.10916 0.0
H36 H 0.94708 0.47128 0.02472 0.0
H37 H 0.94265 0.44721 0.03585 0.0
H38 H 0.96471 0.45218 0.0224 0.0
C39 C 0.69033 0.78492 0.23267 0.0
N40 N 0.70581 0.79428 0.22368 0.0
N41 N 0.68353 0.79841 0.24735 0.0
C42 C 0.68111 0.763 0.22641 0.0
C43 C 0.69539 0.81633 0.24698 0.0
N44 N 0.70882 0.81392 0.2324 0.0
C45 C 0.69509 0.83544 0.2622 0.0
H46 H 0.68226 0.75863 0.20983 0.0
H47 H 0.66542 0.76133 0.23036 0.0
H48 H 0.68897 0.75204 0.23452 0.0
H49 H 0.68841 0.83145 0.2765 0.0
H50 H 0.68624 0.84668 0.25566 0.0
H51 H 0.71016 0.84316 0.26577 0.0
C52 C 0.03318 0.98647 0.49225 0.0
N53 N 0.05031 0.9884 0.50333 0.0
N54 N 0.03441 0.99899 0.47717 0.0
C55 C 0.01594 0.97084 0.49494 0.0
C56 C 0.05305 0.00839 0.47941 0.0
N57 N 0.06276 0.00179 0.49512 0.0
C58 C 0.06155 0.02485 0.46694 0.0
H59 H 0.02077 0.95698 0.5013 0.0
H60 H 0.00782 0.96557 0.48028 0.0
H61 H 0.0058 0.97826 0.5057 0.0
H62 H 0.04984 0.0332 0.46062 0.0
H63 H 0.06952 0.01726 0.45421 0.0
H64 H 0.07219 0.03634 0.47623 0.0
C65 C 0.19221 0.71638 0.78018 0.0
N66 N 0.20623 0.70802 0.79038 0.0
N67 N 0.18587 0.70354 0.76326 0.0
C68 C 0.18392 0.73655 0.78736 0.0
C69 C 0.19645 0.68694 0.76365 0.0
N70 N 0.20879 0.68957 0.7803 0.0
C71 C 0.19582 0.66907 0.74693 0.0
H72 H 0.16859 0.73647 0.78152 0.0
H73 H 0.19302 0.74963 0.78169 0.0
H74 H 0.18428 0.73936 0.8042 0.0
H75 H 0.19044 0.67367 0.73235 0.0
H76 H 0.18565 0.65592 0.75102 0.0
H77 H 0.21059 0.66356 0.74493 0.0
C78 C 0.95184 0.50879 0.45511 0.0
N79 N 0.96629 0.52487 0.45667 0.0
N80 N 0.93966 0.51095 0.47086 0.0
C81 C 0.95058 0.49003 0.43929 0.0
C82 C 0.94725 0.52881 0.48212 0.0
N83 N 0.96354 0.53711 0.47367 0.0
C84 C 0.93796 0.53892 0.5006 0.0
H85 H 0.94217 0.49342 0.42575 0.0
H86 H 0.94293 0.47612 0.44506 0.0
H87 H 0.96544 0.48643 0.43457 0.0
H88 H 0.94487 0.53411 0.5144 0.0
H89 H 0.92195 0.53407 0.50042 0.0
H90 H 0.94032 0.5562 0.50152 0.0
C91 C 0.79642 0.79457 0.81506 0.0
N92 N 0.8122 0.78362 0.81181 0.0
N93 N 0.7944 0.80731 0.80046 0.0
C94 C 0.782 0.79149 0.8315 0.0
C95 C 0.80946 0.80356 0.7881 0.0
N96 N 0.82015 0.78902 0.79485 0.0
C97 C 0.81444 0.81494 0.77005 0.0
H98 H 0.76722 0.79537 0.82693 0.0
H99 H 0.78721 0.80189 0.84547 0.0
H100 H 0.78082 0.77512 0.83511 0.0
H101 H 0.8305 0.81636 0.76779 0.0
H102 H 0.80935 0.83077 0.77191 0.0
H103 H 0.80707 0.80595 0.75623 0.0
C104 C 0.29458 0.29266 0.31197 0.0
N105 N 0.31096 0.28253 0.30956 0.0
N106 N 0.29572 0.30961 0.30175 0.0
C107 C 0.27809 0.28696 0.32555 0.0
C108 C 0.31346 0.30961 0.29317 0.0
N109 N 0.32289 0.29331 0.29813 0.0
C110 C 0.32089 0.3246 0.27869 0.0
H111 H 0.26793 0.27422 0.31727 0.0
H112 H 0.2697 0.30048 0.33002 0.0
H113 H 0.28385 0.28127 0.33946 0.0
H114 H 0.33147 0.3369 0.28702 0.0
H115 H 0.30874 0.33218 0.27218 0.0
H116 H 0.32866 0.31642 0.26613 0.0
C117 C 0.47151 0.98832 0.57958 0.0
N118 N 0.48283 0.97219 0.5793 0.0
N119 N 0.45944 0.98601 0.56278 0.0
C120 C 0.47209 0.00614 0.59636 0.0
C121 C 0.46395 0.96807 0.55219 0.0
N122 N 0.47828 0.95979 0.56209 0.0
C123 C 0.45391 0.95827 0.53248 0.0
H124 H 0.46588 0.01991 0.59126 0.0
H125 H 0.4874 0.01074 0.60225 0.0
H126 H 0.46326 0.00101 0.60901 0.0
H127 H 0.44712 0.97004 0.52445 0.0
H128 H 0.44221 0.94614 0.53576 0.0
H129 H 0.46441 0.95057 0.52239 0.0
C130 C 0.18819 0.28292 0.73388 0.0
N131 N 0.20437 0.29141 0.72522 0.0
N132 N 0.18439 0.29481 0.75125 0.0
C133 C 0.17738 0.26187 0.72675 0.0
C134 C 0.19894 0.31067 0.75304 0.0
N135 N 0.21116 0.30854 0.73736 0.0
C136 C 0.20059 0.32891 0.76948 0.0
H137 H 0.16519 0.26388 0.71603 0.0
H138 H 0.171 0.25448 0.73971 0.0
H139 H 0.18728 0.25127 0.71884 0.0
H140 H 0.21014 0.3254 0.78214 0.0
H141 H 0.18597 0.33179 0.77544 0.0
H142 H 0.20731 0.34328 0.76372 0.0
C143 C 0.79082 0.23481 0.73955 0.0
N144 N 0.79908 0.22402 0.75326 0.0
N145 N 0.80357 0.2508 0.73505 0.0
C146 C 0.77097 0.22858 0.72913 0.0
C147 C 0.82003 0.24915 0.74629 0.0
N148 N 0.81737 0.23271 0.75729 0.0
C149 C 0.83809 0.2645 0.74758 0.0
H150 H 0.76722 0.21141 0.72779 0.0
H151 H 0.77047 0.23364 0.71372 0.0
H152 H 0.75968 0.23614 0.73827 0.0
H153 H 0.84503 0.26652 0.76307 0.0
H154 H 0.83448 0.2799 0.74361 0.0
H155 H 0.84883 0.25849 0.73668 0.0
C156 C 0.53654 0.49583 0.5543 0.0
N157 N 0.5446 0.5015 0.53707 0.0
N158 N 0.51866 0.50287 0.5566 0.0
C159 C 0.54668 0.48455 0.56948 0.0
C160 C 0.51609 0.51294 0.54009 0.0
N161 N 0.53177 0.5119 0.52802 0.0
C162 C 0.49882 0.52496 0.53638 0.0
H163 H 0.53605 0.47682 0.57926 0.0
H164 H 0.55688 0.49603 0.57933 0.0
H165 H 0.55545 0.47273 0.5616 0.0
H166 H 0.5041 0.54113 0.53372 0.0
H167 H 0.48868 0.52547 0.54915 0.0
H168 H 0.49039 0.51741 0.52255 0.0
C169 C 0.53099 0.48926 0.99521 0.0
N170 N 0.54856 0.49092 0.00544 0.0
N171 N 0.53189 0.5011 0.97968 0.0
C172 C 0.51321 0.47527 0.99986 0.0
C173 C 0.55072 0.50981 0.9806 0.0
N174 N 0.56102 0.50339 0.9961 0.0
C175 C 0.55894 0.52455 0.96625 0.0
H176 H 0.51735 0.45929 0.00102 0.0
H177 H 0.5012 0.47455 0.9882 0.0
H178 H 0.50768 0.48126 0.01477 0.0
H179 H 0.54726 0.53281 0.9598 0.0
H180 H 0.56569 0.51547 0.9535 0.0
H181 H 0.57038 0.53625 0.97408 0.0
C182 C 0.68898 0.22036 0.28071 0.0
N183 N 0.70338 0.21235 0.29075 0.0
N184 N 0.68377 0.20828 0.26298 0.0
C185 C 0.67878 0.23893 0.28908 0.0
C186 C 0.69539 0.19244 0.26275 0.0
N187 N 0.70721 0.1948 0.27976 0.0
C188 C 0.69639 0.17574 0.24515 0.0
H189 H 0.66342 0.23772 0.28301 0.0
H190 H 0.68678 0.25335 0.28464 0.0
H191 H 0.6787 0.24032 0.30591 0.0
H192 H 0.69196 0.18129 0.23066 0.0
H193 H 0.68621 0.16193 0.2476 0.0
H194 H 0.71144 0.17083 0.24392 0.0
C195 C 0.44963 0.00941 0.95094 0.0
N196 N 0.46325 0.0262 0.95165 0.0
N197 N 0.43432 0.01398 0.96266 0.0
C198 C 0.45053 0.98904 0.93774 0.0
C199 C 0.43904 0.03414 0.97046 0.0
N200 N 0.45646 0.04164 0.96359 0.0
C201 C 0.42738 0.04603 0.98602 0.0
H202 H 0.43558 0.98115 0.93384 0.0
H203 H 0.45882 0.97861 0.94609 0.0
H204 H 0.45817 0.99157 0.92353 0.0
H205 H 0.43708 0.05758 0.99632 0.0
H206 H 0.41891 0.0353 0.99524 0.0
H207 H 0.41691 0.05462 0.97803 0.0
Mg208 Mg 0.23312 0.85238 0.02631 0.0
O209 O 0.26185 0.87284 0.02133 0.0
O210 O 0.28637 0.85271 0.02379 0.0
Mg211 Mg 0.27409 0.82006 0.02969 0.0
C212 C 0.28012 0.87015 0.02097 0.0
C213 C 0.21422 0.89457 0.02628 0.0
O214 O 0.22681 0.89927 0.04179 0.0
O215 O 0.23434 0.83536 0.99406 0.0
O216 O 0.25903 0.8157 0.99796 0.0
O217 O 0.23676 0.86025 0.06032 0.0
O218 O 0.24853 0.83342 0.04299 0.0
C219 C 0.24556 0.82175 0.98702 0.0
C220 C 0.24677 0.84428 0.06021 0.0
O221 O 0.21395 0.87674 0.01589 0.0
Mg222 Mg 0.15077 0.51008 0.28369 0.0
O223 O 0.13249 0.50354 0.25322 0.0
O224 O 0.15394 0.50191 0.2284 0.0
Mg225 Mg 0.18522 0.50802 0.24217 0.0
C226 C 0.13631 0.50086 0.23436 0.0
C227 C 0.12575 0.50876 0.32111 0.0
O228 O 0.1435 0.51562 0.32844 0.0
O229 O 0.15907 0.47624 0.28103 0.0
O230 O 0.18103 0.47736 0.25657 0.0
O231 O 0.15288 0.54482 0.28298 0.0
O232 O 0.17456 0.5247 0.26978 0.0
C233 C 0.17165 0.46771 0.26969 0.0
C234 C 0.16908 0.54314 0.27354 0.0
O235 O 0.12331 0.50352 0.30205 0.0
Mg236 Mg 0.78618 0.65316 0.01831 0.0
O237 O 0.75618 0.63278 0.01393 0.0
O238 O 0.73356 0.65492 0.01042 0.0
Mg239 Mg 0.74813 0.68859 0.01421 0.0
C240 C 0.73833 0.63642 0.0111 0.0
C241 C 0.82195 0.62837 0.01388 0.0
O242 O 0.82941 0.648 0.01572 0.0
O243 O 0.78658 0.65919 0.9846 0.0
O244 O 0.76477 0.68271 0.98467 0.0
O245 O 0.78274 0.65703 0.05197 0.0
O246 O 0.7725 0.6787 0.03168 0.0
C247 C 0.77757 0.6722 0.97566 0.0
C248 C 0.77388 0.67343 0.04976 0.0
O249 O 0.80335 0.62442 0.01308 0.0
Mg250 Mg 0.88554 0.02495 0.2694 0.0
O251 O 0.86602 0.99346 0.26311 0.0
O252 O 0.88609 0.96834 0.25745 0.0
Mg253 Mg 0.91782 0.98306 0.25988 0.0
C254 C 0.86887 0.97422 0.25895 0.0
C255 C 0.8617 0.06185 0.28227 0.0
O256 O 0.87917 0.07092 0.27905 0.0
O257 O 0.89462 0.01815 0.30139 0.0
O258 O 0.9147 0.99319 0.29394 0.0
O259 O 0.88574 0.02786 0.23611 0.0
O260 O 0.90779 0.01254 0.25225 0.0
C261 C 0.90629 0.00533 0.30677 0.0
C262 C 0.90111 0.01764 0.2354 0.0
O263 O 0.85916 0.04198 0.28041 0.0
Mg264 Mg 0.28675 0.15304 0.51825 0.0
O265 O 0.25639 0.13347 0.513 0.0
O266 O 0.23427 0.15635 0.51071 0.0
Mg267 Mg 0.24977 0.1896 0.51403 0.0
C268 C 0.23861 0.13761 0.51079 0.0
C269 C 0.32181 0.1275 0.51436 0.0
O270 O 0.32945 0.14707 0.51642 0.0
O271 O 0.28804 0.15942 0.48469 0.0
O272 O 0.26601 0.18273 0.48436 0.0
O273 O 0.28218 0.15657 0.55178 0.0
O274 O 0.27388 0.17918 0.53141 0.0
C275 C 0.27885 0.17213 0.47552 0.0
C276 C 0.27433 0.17355 0.54938 0.0
O277 O 0.30319 0.12375 0.51318 0.0
Mg278 Mg 0.38695 0.52021 0.76805 0.0
O279 O 0.36746 0.48888 0.7604 0.0
O280 O 0.38759 0.46405 0.75337 0.0
Mg281 Mg 0.41933 0.4788 0.75604 0.0
C282 C 0.37035 0.46978 0.75532 0.0
C283 C 0.36344 0.55651 0.78366 0.0
O284 O 0.38129 0.56556 0.78218 0.0
O285 O 0.39604 0.51162 0.79952 0.0
O286 O 0.41659 0.48767 0.79027 0.0
O287 O 0.38727 0.52508 0.73509 0.0
O288 O 0.40921 0.50874 0.75017 0.0
C289 C 0.40823 0.49888 0.80396 0.0
C290 C 0.40264 0.51489 0.73377 0.0
O291 O 0.36052 0.53672 0.77981 0.0
Mg292 Mg 0.73343 0.35256 0.52812 0.0
O293 O 0.7627 0.37177 0.52264 0.0
O294 O 0.78629 0.35053 0.52529 0.0
Mg295 Mg 0.77303 0.31873 0.53281 0.0
C296 C 0.78075 0.36818 0.52206 0.0
C297 C 0.71514 0.39501 0.52718 0.0
O298 O 0.72739 0.39968 0.54298 0.0
O299 O 0.73438 0.33448 0.4962 0.0
O300 O 0.75753 0.31335 0.50136 0.0
O301 O 0.73709 0.36134 0.56211 0.0
O302 O 0.7481 0.33367 0.54553 0.0
C303 C 0.74462 0.31965 0.48991 0.0
C304 C 0.74657 0.34504 0.5625 0.0
O305 O 0.71497 0.37714 0.51688 0.0
Mg306 Mg 0.65163 0.00906 0.78277 0.0
O307 O 0.63302 0.00221 0.75253 0.0
O308 O 0.65429 0.9999 0.72757 0.0
Mg309 Mg 0.68572 0.00581 0.74098 0.0
C310 C 0.63671 0.99917 0.73364 0.0
C311 C 0.62432 0.01711 0.81716 0.0
O312 O 0.63927 0.03158 0.82022 0.0
O313 O 0.65951 0.97509 0.78055 0.0
O314 O 0.68136 0.97548 0.75596 0.0
O315 O 0.654 0.04369 0.7814 0.0
O316 O 0.67545 0.02317 0.76841 0.0
C317 C 0.67196 0.96619 0.7693 0.0
C318 C 0.67013 0.04171 0.77192 0.0
O319 O 0.62441 0.00332 0.80182 0.0
Mg320 Mg 0.01321 0.22653 0.92397 0.0
O321 O 0.98374 0.22127 0.90554 0.0
O322 O 0.96086 0.21045 0.92645 0.0
Mg323 Mg 0.97579 0.20705 0.95716 0.0
C324 C 0.96588 0.21558 0.90914 0.0
C325 C 0.04546 0.23918 0.89707 0.0
O326 O 0.05221 0.22608 0.90861 0.0
O327 O 0.00395 0.25622 0.94178 0.0
O328 O 0.98305 0.24294 0.96344 0.0
O329 O 0.01967 0.19378 0.91482 0.0
O330 O 0.00398 0.20351 0.94241 0.0
C331 C 0.9928 0.25854 0.95691 0.0
C332 C 0.01097 0.18874 0.93091 0.0
O333 O 0.02808 0.24413 0.89965 0.0
Mg334 Mg 0.51437 0.72721 0.42125 0.0
O335 O 0.48485 0.72181 0.40286 0.0
O336 O 0.46218 0.71058 0.42382 0.0
Mg337 Mg 0.47725 0.70693 0.45437 0.0
C338 C 0.46705 0.71592 0.40653 0.0
C339 C 0.54679 0.74121 0.3952 0.0
O340 O 0.55374 0.72844 0.40697 0.0
O341 O 0.50483 0.75659 0.43941 0.0
O342 O 0.4842 0.74283 0.46104 0.0
O343 O 0.52125 0.69464 0.41179 0.0
O344 O 0.50538 0.70388 0.4394 0.0
C345 C 0.49375 0.75861 0.45462 0.0
C346 C 0.51256 0.68932 0.42779 0.0
O347 O 0.52911 0.74537 0.39722 0.0
Mg348 Mg 0.99444 0.76873 0.61382 0.0
O349 O 0.02245 0.76023 0.62991 0.0
O350 O 0.04393 0.75374 0.60568 0.0
Mg351 Mg 0.03048 0.75775 0.57474 0.0
C352 C 0.03924 0.75511 0.62427 0.0
C353 C 0.96234 0.77338 0.64404 0.0
O354 O 0.954 0.76424 0.62681 0.0
O355 O 0.00951 0.80164 0.60976 0.0
O356 O 0.02964 0.7927 0.58489 0.0
O357 O 0.98322 0.73478 0.60806 0.0
O358 O 0.00136 0.75109 0.5867 0.0
C359 C 0.0224 0.80657 0.59696 0.0
C360 C 0.99253 0.7339 0.5913 0.0
O361 O 0.98074 0.77894 0.64447 0.0
Mg362 Mg 0.49192 0.26894 0.11187 0.0
O363 O 0.52021 0.26044 0.12734 0.0
O364 O 0.54077 0.2525 0.10253 0.0
Mg365 Mg 0.52709 0.25752 0.07198 0.0
C366 C 0.53655 0.25438 0.12126 0.0
C367 C 0.4611 0.271 0.14357 0.0
O368 O 0.45312 0.2597 0.12716 0.0
O369 O 0.50703 0.30175 0.10768 0.0
O370 O 0.52686 0.29252 0.08262 0.0
O371 O 0.48084 0.23489 0.10627 0.0
O372 O 0.49819 0.25135 0.08444 0.0
C373 C 0.5199 0.30651 0.0948 0.0
C374 C 0.48967 0.23412 0.08924 0.0
O375 O 0.47878 0.27908 0.14288 0.0
H376 H 0.19881 0.69384 0.82611 0.0
H377 H 0.20716 0.71315 0.85985 0.0
H378 H 0.24126 0.76101 0.83187 0.0
H379 H 0.23207 0.74202 0.79821 0.0
H380 H 0.23936 0.72723 0.88241 0.0
H381 H 0.20262 0.79474 0.86174 0.0
H382 H 0.20105 0.77017 0.84566 0.0
H383 H 0.22231 0.78883 0.84539 0.0
C384 C 0.20846 0.70824 0.82738 0.0
C385 C 0.21489 0.71658 0.80985 0.0
C386 C 0.21313 0.71932 0.84654 0.0
C387 C 0.22437 0.73885 0.84836 0.0
C388 C 0.23206 0.74632 0.83082 0.0
H389 H 0.27279 0.80441 0.96306 0.0
H390 H 0.26764 0.78499 0.92927 0.0
C391 C 0.22711 0.7354 0.81169 0.0
C392 C 0.22725 0.75177 0.86843 0.0
H393 H 0.22084 0.79978 0.89322 0.0
C394 C 0.23528 0.74307 0.88478 0.0
C395 C 0.22143 0.77228 0.87168 0.0
C396 C 0.21118 0.78198 0.85525 0.0
C397 C 0.238 0.75442 0.90418 0.0
C398 C 0.23317 0.77533 0.90716 0.0
C399 C 0.22481 0.78388 0.89089 0.0
C400 C 0.23656 0.7885 0.92706 0.0
C401 C 0.24554 0.74362 0.92137 0.0
C402 C 0.22108 0.79811 0.93657 0.0
C403 C 0.22411 0.80974 0.95575 0.0
C404 C 0.24263 0.81177 0.96579 0.0
C405 C 0.25826 0.80284 0.95586 0.0
C406 C 0.2553 0.79156 0.9366 0.0
H407 H 0.24247 0.72637 0.91821 0.0
H408 H 0.2617 0.74732 0.9232 0.0
H409 H 0.23884 0.74886 0.93592 0.0
H410 H 0.20652 0.79617 0.9294 0.0
H411 H 0.2118 0.81643 0.96303 0.0
H412 H 0.96432 0.52476 0.41603 0.0
H413 H 0.99172 0.52288 0.39293 0.0
H414 H 0.03246 0.52884 0.44445 0.0
H415 H 0.00489 0.52992 0.46747 0.0
H416 H 0.02486 0.54861 0.38755 0.0
H417 H 0.04501 0.4745 0.41287 0.0
H418 H 0.02246 0.48531 0.41976 0.0
H419 H 0.0452 0.49553 0.43305 0.0
C420 C 0.97916 0.52578 0.42233 0.0
C421 C 0.98256 0.52722 0.44344 0.0
C422 C 0.9948 0.52476 0.40918 0.0
C423 C 0.01413 0.52518 0.41692 0.0
C424 C 0.01763 0.52794 0.4381 0.0
H425 H 0.12702 0.51576 0.3625 0.0
H426 H 0.09958 0.51943 0.38507 0.0
C427 C 0.00195 0.52886 0.45125 0.0
C428 C 0.03043 0.52205 0.40279 0.0
H429 H 0.06633 0.49017 0.39008 0.0
C430 C 0.03389 0.5358 0.38806 0.0
C431 C 0.04211 0.5052 0.40333 0.0
C432 C 0.03844 0.48916 0.41796 0.0
C433 C 0.04896 0.53343 0.37419 0.0
C434 C 0.06075 0.51673 0.37491 0.0
C435 C 0.05727 0.50296 0.38957 0.0
C436 C 0.07718 0.51367 0.36098 0.0
C437 C 0.05247 0.54908 0.35917 0.0
C438 C 0.07367 0.5087 0.33993 0.0
C439 C 0.08937 0.50645 0.32692 0.0
C440 C 0.10886 0.50918 0.33476 0.0
C441 C 0.11222 0.51362 0.35592 0.0
C442 C 0.09655 0.51574 0.36887 0.0
H443 H 0.04488 0.56331 0.36328 0.0
H444 H 0.06842 0.55379 0.35817 0.0
H445 H 0.04681 0.54184 0.34389 0.0
H446 H 0.0588 0.50668 0.33355 0.0
H447 H 0.08626 0.50302 0.31072 0.0
H448 H 0.813 0.7422 0.80083 0.0
H449 H 0.81343 0.71558 0.8245 0.0
H450 H 0.82352 0.76446 0.87474 0.0
H451 H 0.82384 0.79072 0.85102 0.0
H452 H 0.84135 0.73099 0.88245 0.0
H453 H 0.76419 0.70597 0.85537 0.0
H454 H 0.78234 0.70265 0.83652 0.0
H455 H 0.77801 0.7285 0.84735 0.0
C456 C 0.81614 0.74708 0.81685 0.0
C457 C 0.81832 0.7684 0.82422 0.0
C458 C 0.81605 0.73194 0.83041 0.0
C459 C 0.81786 0.73799 0.85153 0.0
C460 C 0.82194 0.75931 0.8586 0.0
H461 H 0.7606 0.69811 0.95235 0.0
H462 H 0.77191 0.71008 0.9209 0.0
C463 C 0.8222 0.77433 0.84507 0.0
C464 C 0.81342 0.7228 0.86652 0.0
H465 H 0.7757 0.69147 0.88346 0.0
C466 C 0.8271 0.72207 0.88252 0.0
C467 C 0.79471 0.71132 0.86677 0.0
C468 C 0.77887 0.7122 0.85072 0.0
C469 C 0.82232 0.71108 0.89916 0.0
C470 C 0.80346 0.70001 0.8996 0.0
C471 C 0.79017 0.69985 0.88309 0.0
C472 C 0.79619 0.69102 0.91811 0.0
C473 C 0.83707 0.71257 0.91669 0.0
C474 C 0.80571 0.67577 0.92694 0.0
C475 C 0.7993 0.66891 0.94525 0.0
C476 C 0.78314 0.67704 0.95498 0.0
C477 C 0.77315 0.69152 0.94549 0.0
C478 C 0.7796 0.69841 0.92738 0.0
H479 H 0.84927 0.72499 0.91573 0.0
H480 H 0.8299 0.71582 0.93141 0.0
H481 H 0.84348 0.69747 0.9166 0.0
H482 H 0.81826 0.66941 0.91985 0.0
H483 H 0.80732 0.65769 0.95204 0.0
H484 H 0.9962 0.00483 0.48257 0.0
H485 H 0.97068 0.00525 0.45608 0.0
H486 H 0.0143 0.99975 0.41038 0.0
H487 H 0.0393 0.99727 0.43669 0.0
H488 H 0.96347 0.02942 0.42963 0.0
H489 H 0.97574 0.95389 0.3868 0.0
H490 H 0.98757 0.96268 0.41126 0.0
H491 H 0.99789 0.9712 0.38846 0.0
C492 C 1.00019 0.00336 0.46682 0.0
C493 C 0.01967 0.00078 0.46167 0.0
C494 C 0.98566 0.00379 0.45169 0.0
C495 C 0.99038 0.00198 0.43108 0.0
C496 C 0.01006 1.00041 0.42604 0.0
H497 H 0.92311 0.03886 0.33153 0.0
H498 H 0.94133 0.03819 0.36355 0.0
C499 C 0.02446 0.99942 0.44112 0.0
C500 C 0.97481 0.00185 0.4149 0.0
H501 H 0.95772 0.97649 0.36898 0.0
C502 C 0.96205 0.01767 0.41648 0.0
C503 C 0.97245 0.98624 0.39795 0.0
C504 C 0.984 0.96744 0.39614 0.0
C505 C 0.94753 0.01872 0.40134 0.0
C506 C 0.94627 0.00408 0.3836 0.0
C507 C 0.95866 0.98792 0.38237 0.0
C508 C 0.93284 0.0054 0.36579 0.0
C509 C 0.93353 0.03529 0.40482 0.0
C510 C 0.92196 0.98726 0.35607 0.0
C511 C 0.91217 0.98751 0.33735 0.0
C512 C 0.9125 0.00605 0.32829 0.0
C513 C 0.92223 0.0245 0.33852 0.0
C514 C 0.93259 0.02411 0.35692 0.0
H515 H 0.93127 0.03927 0.42129 0.0
H516 H 0.93988 0.04974 0.39894 0.0
H517 H 0.91901 0.03022 0.39707 0.0
H518 H 0.92181 0.9726 0.36249 0.0
H519 H 0.90497 0.97304 0.32957 0.0
H520 H 0.18515 0.2786 0.68941 0.0
H521 H 0.19785 0.25941 0.65955 0.0
H522 H 0.25595 0.26849 0.688 0.0
H523 H 0.24264 0.28558 0.71884 0.0
H524 H 0.22105 0.26642 0.63253 0.0
H525 H 0.25345 0.20793 0.67409 0.0
H526 H 0.23872 0.22687 0.68641 0.0
H527 H 0.26439 0.23383 0.68247 0.0
C528 C 0.20058 0.27622 0.68934 0.0
C529 C 0.2128 0.28315 0.70659 0.0
C530 C 0.20791 0.26543 0.67219 0.0
C531 C 0.22782 0.26181 0.67161 0.0
C532 C 0.2404 0.27022 0.68828 0.0
H533 H 0.2751 0.21574 0.55516 0.0
H534 H 0.26454 0.23742 0.58468 0.0
C535 C 0.23288 0.28045 0.70577 0.0
C536 C 0.23506 0.24906 0.65361 0.0
H537 H 0.26095 0.20756 0.63934 0.0
C538 C 0.22966 0.25346 0.63408 0.0
C539 C 0.246 0.23181 0.65544 0.0
C540 C 0.25078 0.22468 0.67573 0.0
C541 C 0.23465 0.24112 0.61648 0.0
C542 C 0.24651 0.2246 0.61829 0.0
C543 C 0.25203 0.22028 0.63781 0.0
C544 C 0.25315 0.21141 0.60027 0.0
C545 C 0.22637 0.24552 0.59627 0.0
C546 C 0.25127 0.18948 0.59945 0.0
C547 C 0.25813 0.17708 0.58291 0.0
C548 C 0.26653 0.18635 0.56664 0.0
C549 C 0.26829 0.2082 0.56734 0.0
C550 C 0.26208 0.22061 0.58417 0.0
H551 H 0.21244 0.25293 0.59809 0.0
H552 H 0.23699 0.2566 0.58955 0.0
H553 H 0.22345 0.23103 0.5855 0.0
H554 H 0.24453 0.1819 0.61163 0.0
H555 H 0.25667 0.16025 0.58275 0.0
H556 H 0.49803 0.46974 0.56965 0.0
H557 H 0.47721 0.47009 0.59941 0.0
H558 H 0.49147 0.53681 0.6122 0.0
H559 H 0.51278 0.53614 0.58292 0.0
H560 H 0.49365 0.51839 0.64589 0.0
H561 H 0.42316 0.48965 0.60442 0.0
H562 H 0.44185 0.47223 0.59997 0.0
H563 H 0.44505 0.49776 0.59162 0.0
C564 C 0.49666 0.48436 0.57897 0.0
C565 C 0.50678 0.50293 0.57417 0.0
C566 C 0.48466 0.48464 0.59577 0.0
C567 C 0.48243 0.50356 0.6078 0.0
C568 C 0.49284 0.52206 0.60308 0.0
H569 H 0.39434 0.52886 0.69736 0.0
H570 H 0.41333 0.52545 0.66652 0.0
C571 C 0.50495 0.52172 0.58643 0.0
C572 C 0.46976 0.50413 0.62568 0.0
H573 H 0.42294 0.49226 0.64052 0.0
C574 C 0.47818 0.51271 0.64469 0.0
C575 C 0.44949 0.49702 0.62407 0.0
C576 C 0.43928 0.48884 0.6039 0.0
C577 C 0.46699 0.51422 0.66214 0.0
C578 C 0.4469 0.50637 0.66069 0.0
C579 C 0.43839 0.49801 0.64165 0.0
C580 C 0.4345 0.50703 0.67876 0.0
C581 C 0.47673 0.52469 0.68187 0.0
C582 C 0.43972 0.49727 0.69563 0.0
C583 C 0.42906 0.49937 0.7133 0.0
C584 C 0.41268 0.51095 0.71436 0.0
C585 C 0.40688 0.51986 0.69707 0.0
C586 C 0.41771 0.51791 0.67943 0.0
H587 H 0.49011 0.53503 0.67923 0.0
H588 H 0.46654 0.53414 0.69083 0.0
H589 H 0.48123 0.51257 0.69106 0.0
H590 H 0.45232 0.48835 0.69529 0.0
H591 H 0.43398 0.4923 0.72626 0.0
H592 H 0.77422 0.27555 0.73448 0.0
H593 H 0.76608 0.29641 0.70732 0.0
H594 H 0.81759 0.27926 0.67587 0.0
H595 H 0.82561 0.25827 0.70303 0.0
H596 H 0.80878 0.32351 0.67599 0.0
H597 H 0.746 0.26412 0.65096 0.0
H598 H 0.74693 0.27475 0.67729 0.0
H599 H 0.76564 0.25901 0.66778 0.0
C600 C 0.78388 0.27653 0.72187 0.0
C601 C 0.80043 0.26528 0.72066 0.0
C602 C 0.77926 0.28839 0.70642 0.0
C603 C 0.79113 0.28918 0.68951 0.0
C604 C 0.80827 0.27887 0.68882 0.0
H605 H 0.76349 0.30955 0.56757 0.0
H606 H 0.77521 0.29827 0.59908 0.0
C607 C 0.81287 0.26696 0.70429 0.0
C608 C 0.78478 0.29919 0.67178 0.0
H609 H 0.7503 0.29337 0.63294 0.0
C610 C 0.79594 0.31705 0.66661 0.0
C611 C 0.76813 0.29055 0.65952 0.0
C612 C 0.75601 0.27096 0.66399 0.0
C613 C 0.79083 0.32649 0.6494 0.0
C614 C 0.77417 0.31782 0.63718 0.0
C615 C 0.76299 0.30004 0.64244 0.0
C616 C 0.76866 0.326 0.61807 0.0
C617 C 0.80353 0.34527 0.64404 0.0
C618 C 0.76121 0.34548 0.61827 0.0
C619 C 0.75447 0.35206 0.60014 0.0
C620 C 0.7551 0.33924 0.58158 0.0
C621 C 0.76297 0.31996 0.5815 0.0
C622 C 0.76962 0.31341 0.59953 0.0
H623 H 0.81748 0.3482 0.65331 0.0
H624 H 0.80704 0.34316 0.62771 0.0
H625 H 0.79541 0.3593 0.64668 0.0
H626 H 0.7601 0.35531 0.63248 0.0
H627 H 0.74841 0.36695 0.60073 0.0
H628 H 0.47819 0.97015 0.61933 0.0
H629 H 0.50441 0.97217 0.64563 0.0
H630 H 0.54749 0.97019 0.59923 0.0
H631 H 0.5212 0.96883 0.57301 0.0
H632 H 0.53422 0.94742 0.65357 0.0
H633 H 0.5651 0.02503 0.6347 0.0
H634 H 0.54137 0.01291 0.62499 0.0
H635 H 0.56339 0.00475 0.61367 0.0
C636 C 0.49327 0.96999 0.61483 0.0
C637 C 0.49779 0.96962 0.59426 0.0
C638 C 0.50822 0.97107 0.62981 0.0
C639 C 0.52798 0.97182 0.62447 0.0
C640 C 0.5324 0.9701 0.60377 0.0
H641 H 0.63926 0.99266 0.69231 0.0
H642 H 0.61264 0.98521 0.66664 0.0
C643 C 0.51741 0.96906 0.58879 0.0
C644 C 0.54389 0.97546 0.64059 0.0
H645 H 0.58293 0.00991 0.6592 0.0
C646 C 0.54486 0.96109 0.65483 0.0
C647 C 0.55768 0.99341 0.64235 0.0
C648 C 0.5568 0.01003 0.62826 0.0
C649 C 0.55951 0.96394 0.67047 0.0
C650 C 0.57338 0.98181 0.67211 0.0
C651 C 0.57233 0.9962 0.65792 0.0
C652 C 0.58939 0.98575 0.68812 0.0
C653 C 0.5603 0.94757 0.68483 0.0
C654 C 0.58523 0.98873 0.70885 0.0
C655 C 0.60051 0.99305 0.72371 0.0
C656 C 0.62027 0.99456 0.71811 0.0
C657 C 0.62429 0.99161 0.69729 0.0
C658 C 0.60906 0.98733 0.68252 0.0
H659 H 0.55176 0.93261 0.67868 0.0
H660 H 0.5757 0.94454 0.688 0.0
H661 H 0.55395 0.95324 0.69944 0.0
H662 H 0.57017 0.98799 0.71355 0.0
H663 H 0.59682 0.99529 0.73954 0.0
H664 H 0.81155 0.22731 0.79655 0.0
H665 H 0.8366 0.22136 0.82195 0.0
H666 H 0.87972 0.21891 0.77565 0.0
H667 H 0.85462 0.22448 0.75028 0.0
H668 H 0.86435 0.18794 0.82202 0.0
H669 H 0.90086 0.26827 0.82043 0.0
H670 H 0.87589 0.26065 0.81111 0.0
H671 H 0.896 0.25274 0.79621 0.0
C672 C 0.82629 0.22505 0.79181 0.0
C673 C 0.83129 0.22656 0.77159 0.0
C674 C 0.84058 0.22176 0.80628 0.0
C675 C 0.86008 0.22005 0.80073 0.0
C676 C 0.86484 0.22052 0.78031 0.0
H677 H 0.97059 0.22129 0.86904 0.0
H678 H 0.94497 0.22099 0.84259 0.0
C679 C 0.85055 0.22371 0.76587 0.0
C680 C 0.87568 0.21881 0.81638 0.0
H681 H 0.91638 0.24641 0.84048 0.0
C682 C 0.87573 0.20071 0.82613 0.0
C683 C 0.89052 0.23546 0.82161 0.0
C684 C 0.89086 0.25548 0.81195 0.0
C685 C 0.89044 0.19869 0.84077 0.0
C686 C 0.90522 0.21546 0.84618 0.0
C687 C 0.90512 0.23354 0.83635 0.0
C688 C 0.92077 0.21479 0.86215 0.0
C689 C 0.89028 0.17839 0.84991 0.0
C690 C 0.91577 0.21159 0.88204 0.0
C691 C 0.93039 0.21161 0.89718 0.0
C692 C 0.9504 0.21514 0.89287 0.0
C693 C 0.95537 0.21851 0.87295 0.0
C694 C 0.94072 0.21834 0.85778 0.0
H695 H 0.88206 0.16529 0.83992 0.0
H696 H 0.90542 0.17434 0.85269 0.0
H697 H 0.88289 0.17995 0.86464 0.0
H698 H 0.90051 0.2094 0.88599 0.0
H699 H 0.92595 0.20916 0.91236 0.0
H700 H 0.46636 0.92351 0.57586 0.0
H701 H 0.47188 0.88847 0.55974 0.0
H702 H 0.51003 0.91643 0.51736 0.0
H703 H 0.5045 0.95131 0.53368 0.0
H704 H 0.46085 0.87598 0.51901 0.0
H705 H 0.54001 0.86815 0.53224 0.0
H706 H 0.5271 0.8871 0.54739 0.0
H707 H 0.53502 0.89198 0.52258 0.0
C708 C 0.4765 0.92198 0.56362 0.0
C709 C 0.48528 0.93985 0.5561 0.0
C710 C 0.47953 0.90207 0.55432 0.0
C711 C 0.49149 0.89979 0.53742 0.0
C712 C 0.50108 0.91774 0.53061 0.0
H713 H 0.51246 0.79629 0.44684 0.0
H714 H 0.51162 0.83053 0.46665 0.0
C715 C 0.49798 0.93762 0.5399 0.0
C716 C 0.49204 0.87896 0.52549 0.0
H717 H 0.52272 0.84309 0.50735 0.0
C718 C 0.47436 0.86869 0.51662 0.0
C719 C 0.5097 0.86962 0.52213 0.0
C720 C 0.52903 0.87966 0.53171 0.0
C721 C 0.47387 0.8495 0.50426 0.0
C722 C 0.4915 0.84005 0.501 0.0
C723 C 0.50921 0.85034 0.50984 0.0
C724 C 0.49177 0.81932 0.48877 0.0
C725 C 0.45453 0.83979 0.49439 0.0
C726 C 0.48095 0.80161 0.49465 0.0
C727 C 0.48129 0.78206 0.48332 0.0
C728 C 0.49262 0.77969 0.46591 0.0
C729 C 0.50349 0.79749 0.46007 0.0
C730 C 0.5031 0.81709 0.47143 0.0
H731 H 0.44382 0.85155 0.4936 0.0
H732 H 0.45653 0.83224 0.47878 0.0
H733 H 0.44809 0.82768 0.50351 0.0
H734 H 0.47241 0.80284 0.50819 0.0
H735 H 0.47286 0.76874 0.48843 0.0
H736 H 0.14566 0.2878 0.74148 0.0
H737 H 0.1189 0.28104 0.76467 0.0
H738 H 0.16116 0.28695 0.81486 0.0
H739 H 0.18785 0.29338 0.79162 0.0
H740 H 0.1146 0.24827 0.78954 0.0
H741 H 0.11964 0.32602 0.83531 0.0
H742 H 0.1305 0.32178 0.8108 0.0
H743 H 0.14266 0.31494 0.83306 0.0
C744 C 0.14912 0.28761 0.75748 0.0
C745 C 0.1687 0.29118 0.76488 0.0
C746 C 0.1339 0.28387 0.77068 0.0
C747 C 0.13804 0.28386 0.79152 0.0
C748 C 0.15761 0.28738 0.79891 0.0
H749 H 0.08106 0.22738 0.88592 0.0
H750 H 0.10137 0.23914 0.859 0.0
C751 C 0.17282 0.29101 0.78569 0.0
C752 C 0.12205 0.27906 0.80543 0.0
H753 H 0.10104 0.29801 0.84907 0.0
C754 C 0.11144 0.25924 0.8024 0.0
C755 C 0.11781 0.29349 0.82205 0.0
C756 C 0.12811 0.31533 0.82545 0.0
C757 C 0.09737 0.2531 0.81614 0.0
C758 C 0.09392 0.2671 0.83336 0.0
C759 C 0.10382 0.28728 0.83589 0.0
C760 C 0.08134 0.26039 0.84972 0.0
C761 C 0.08656 0.2315 0.81239 0.0
C762 C 0.06347 0.26878 0.85365 0.0
C763 C 0.05168 0.26201 0.86909 0.0
C764 C 0.05777 0.24696 0.88094 0.0
C765 C 0.07587 0.23895 0.8771 0.0
C766 C 0.0875 0.24558 0.86165 0.0
H767 H 0.08727 0.22465 0.7963 0.0
H768 H 0.09337 0.22112 0.82213 0.0
H769 H 0.07092 0.23182 0.81635 0.0
H770 H 0.05857 0.28034 0.84464 0.0
H771 H 0.03785 0.26851 0.87172 0.0
H772 H 0.50984 0.51003 0.49351 0.0
H773 H 0.50932 0.53801 0.47185 0.0
H774 H 0.5619 0.5694 0.50317 0.0
H775 H 0.56133 0.54207 0.52589 0.0
H776 H 0.53602 0.59487 0.50403 0.0
H777 H 0.53517 0.55837 0.42472 0.0
H778 H 0.51583 0.54568 0.4379 0.0
H779 H 0.54108 0.54443 0.44573 0.0
C780 C 0.52156 0.52266 0.49533 0.0
C781 C 0.53549 0.52409 0.51143 0.0
C782 C 0.52139 0.53859 0.48281 0.0
C783 C 0.53561 0.55593 0.48572 0.0
C784 C 0.55071 0.55627 0.5006 0.0
H785 H 0.53565 0.65969 0.41257 0.0
H786 H 0.54111 0.62716 0.42605 0.0
C787 C 0.55059 0.54052 0.51341 0.0
C788 C 0.53302 0.57491 0.47553 0.0
H789 H 0.52142 0.5916 0.43008 0.0
C790 C 0.53314 0.59414 0.48779 0.0
C791 C 0.52937 0.57419 0.45433 0.0
C792 C 0.53058 0.55457 0.43993 0.0
C793 C 0.52935 0.61245 0.47961 0.0
C794 C 0.52437 0.61144 0.45864 0.0
C795 C 0.52476 0.59235 0.44624 0.0
C796 C 0.51949 0.63021 0.44922 0.0
C797 C 0.53116 0.63273 0.49358 0.0
C798 C 0.50494 0.64245 0.45715 0.0
C799 C 0.50203 0.66134 0.44969 0.0
C800 C 0.51323 0.66803 0.43376 0.0
C801 C 0.52676 0.65501 0.42487 0.0
C802 C 0.52993 0.63636 0.43259 0.0
H803 H 0.54091 0.63198 0.50707 0.0
H804 H 0.53709 0.64604 0.48564 0.0
H805 H 0.51646 0.63586 0.49916 0.0
H806 H 0.49616 0.63769 0.46949 0.0
H807 H 0.49137 0.67089 0.45673 0.0
H808 H 0.85799 0.79939 0.80716 0.0
H809 H 0.88644 0.79593 0.78531 0.0
H810 H 0.84862 0.76005 0.7383 0.0
H811 H 0.82039 0.76366 0.7601 0.0
H812 H 0.90219 0.7576 0.75807 0.0
H813 H 0.87108 0.81854 0.71809 0.0
H814 H 0.86513 0.81443 0.74382 0.0
H815 H 0.85408 0.79681 0.72285 0.0
C816 C 0.85606 0.78998 0.79252 0.0
C817 C 0.83718 0.78151 0.78531 0.0
C818 C 0.87221 0.78815 0.78 0.0
C819 C 0.86959 0.77788 0.76012 0.0
C820 C 0.85097 0.76804 0.75357 0.0
H821 H 0.92283 0.76454 0.64596 0.0
H822 H 0.90268 0.76683 0.67567 0.0
C823 C 0.83491 0.76991 0.76604 0.0
C824 C 0.88541 0.77961 0.74525 0.0
H825 H 0.89699 0.80193 0.70231 0.0
C826 C 0.90126 0.76747 0.746 0.0
C827 C 0.88418 0.7926 0.72962 0.0
C828 C 0.86781 0.8065 0.72852 0.0
C829 C 0.91542 0.76723 0.73088 0.0
C830 C 0.91377 0.77968 0.7148 0.0
C831 C 0.89828 0.79238 0.71458 0.0
C832 C 0.92671 0.77839 0.69703 0.0
C833 C 0.93149 0.75295 0.73167 0.0
C834 C 0.94705 0.78438 0.699 0.0
C835 C 0.95877 0.78312 0.68184 0.0
C836 C 0.95032 0.77587 0.66243 0.0
C837 C 0.92993 0.77017 0.6606 0.0
C838 C 0.91831 0.77146 0.67763 0.0
H839 H 0.92874 0.74172 0.74299 0.0
H840 H 0.93299 0.74404 0.71654 0.0
H841 H 0.94566 0.76246 0.73593 0.0
H842 H 0.95384 0.79014 0.71376 0.0
H843 H 0.97441 0.78765 0.6838 0.0
H844 H 0.03292 0.99082 0.53912 0.0
H845 H 0.03198 0.96447 0.56295 0.0
H846 H 0.07429 0.93215 0.5277 0.0
H847 H 0.07525 0.95876 0.50403 0.0
H848 H 0.01867 0.92394 0.54904 0.0
H849 H 0.09248 0.92652 0.5859 0.0
H850 H 0.08454 0.94808 0.57387 0.0
H851 H 0.09289 0.92598 0.55878 0.0
C852 C 0.04262 0.97855 0.53708 0.0
C853 C 0.0543 0.97682 0.51998 0.0
C854 C 0.04199 0.96344 0.55055 0.0
C855 C 0.05311 0.94632 0.54721 0.0
C856 C 0.06587 0.94539 0.53087 0.0
H857 H 0.05239 0.82172 0.57479 0.0
H858 H 0.05965 0.85707 0.56629 0.0
C859 C 0.0665 0.96059 0.51738 0.0
C860 C 0.04915 0.92809 0.55883 0.0
H861 H 0.07099 0.89518 0.58702 0.0
C862 C 0.03003 0.91784 0.55765 0.0
C863 C 0.06399 0.92009 0.56996 0.0
C864 C 0.08459 0.93083 0.5724 0.0
C865 C 0.02554 0.8993 0.56643 0.0
C866 C 0.04048 0.89096 0.57718 0.0
C867 C 0.05949 0.90159 0.5789 0.0
C868 C 0.03719 0.87011 0.5847 0.0
C869 C 0.00507 0.88821 0.56311 0.0
C870 C 0.02251 0.86566 0.59853 0.0
C871 C 0.01813 0.84519 0.60337 0.0
C872 C 0.02845 0.82886 0.59456 0.0
C873 C 0.04391 0.83376 0.58172 0.0
C874 C 0.0482 0.85407 0.57688 0.0
H875 H 0.99664 0.89427 0.55092 0.0
H876 H 0.00558 0.87116 0.55901 0.0
H877 H 0.99697 0.89058 0.57734 0.0
H878 H 0.0141 0.87788 0.60516 0.0
H879 H 0.00624 0.84205 0.61341 0.0
H880 H 0.15254 0.67898 0.75157 0.0
H881 H 0.12642 0.68664 0.72822 0.0
H882 H 0.16046 0.74404 0.71842 0.0
H883 H 0.18634 0.7364 0.74192 0.0
H884 H 0.12225 0.74979 0.72668 0.0
H885 H 0.12545 0.68312 0.66659 0.0
H886 H 0.12197 0.67568 0.69161 0.0
H887 H 0.14449 0.69033 0.68614 0.0
C888 C 0.15444 0.69303 0.74412 0.0
C889 C 0.17133 0.70711 0.74837 0.0
C890 C 0.1396 0.6974 0.73082 0.0
C891 C 0.14157 0.71583 0.72141 0.0
C892 C 0.15862 0.72975 0.72549 0.0
H893 H 0.07747 0.74792 0.61839 0.0
H894 H 0.10124 0.73861 0.64284 0.0
C895 C 0.17337 0.7254 0.73884 0.0
C896 C 0.12566 0.72107 0.70784 0.0
H897 H 0.09953 0.70436 0.66346 0.0
C898 C 0.11725 0.73986 0.71286 0.0
C899 C 0.11928 0.70816 0.68974 0.0
C900 C 0.12836 0.68829 0.68304 0.0
C901 C 0.10272 0.74616 0.70024 0.0
C902 C 0.09615 0.73311 0.68228 0.0
C903 C 0.10448 0.71427 0.67732 0.0
C904 C 0.08147 0.73922 0.6678 0.0
C905 C 0.095 0.76702 0.70591 0.0
C906 C 0.06236 0.74268 0.67368 0.0
C907 C 0.04866 0.74817 0.6597 0.0
C908 C 0.05377 0.75009 0.63952 0.0
C909 C 0.07294 0.74657 0.63376 0.0
C910 C 0.0866 0.7412 0.64773 0.0
H911 H 0.10483 0.77722 0.71732 0.0
H912 H 0.09328 0.77532 0.69233 0.0
H913 H 0.08038 0.76451 0.71259 0.0
H914 H 0.05796 0.74086 0.689 0.0
H915 H 0.034 0.7506 0.66463 0.0
H916 H 0.98449 0.54616 0.50877 0.0
H917 H 0.99477 0.58138 0.52578 0.0
H918 H 0.97616 0.60771 0.47251 0.0
H919 H 0.96587 0.5723 0.45557 0.0
H920 H 0.01936 0.61901 0.5159 0.0
H921 H 0.9392 0.62696 0.51946 0.0
H922 H 0.9487 0.60205 0.51329 0.0
H923 H 0.94848 0.62008 0.4947 0.0
C924 C 0.98335 0.5595 0.50052 0.0
C925 C 0.97448 0.55674 0.48097 0.0
C926 C 0.98913 0.57955 0.5102 0.0
C927 C 0.98597 0.59713 0.5005 0.0
C928 C 0.9786 0.59432 0.48029 0.0
H929 H 0.00972 0.72746 0.55448 0.0
H930 H 0.00957 0.69462 0.53216 0.0
C931 C 0.9729 0.57419 0.47056 0.0
C932 C 0.98794 0.61807 0.51248 0.0
H933 H 0.96062 0.65511 0.53506 0.0
C934 C 0.00658 0.62706 0.51994 0.0
C935 C 0.97116 0.62827 0.51803 0.0
C936 C 0.9507 0.61887 0.51113 0.0
C937 C 0.00886 0.64605 0.53284 0.0
C938 C 0.99207 0.65625 0.53831 0.0
C939 C 0.97347 0.64727 0.53077 0.0
C940 C 0.99329 0.67596 0.55233 0.0
C941 C 0.02912 0.65475 0.541 0.0
C942 C 0.98405 0.67642 0.57102 0.0
C943 C 0.98414 0.69516 0.58385 0.0
C944 C 0.99336 0.71386 0.57817 0.0
C945 C 0.00271 0.71332 0.55948 0.0
C946 C 0.00267 0.69454 0.54668 0.0
H947 H 0.03991 0.64303 0.53866 0.0
H948 H 0.03422 0.66834 0.53305 0.0
H949 H 0.02885 0.66026 0.55748 0.0
H950 H 0.97662 0.66226 0.57561 0.0
H951 H 0.97674 0.69501 0.5981 0.0
H952 H 0.70655 0.85321 0.22377 0.0
H953 H 0.73388 0.88087 0.22467 0.0
H954 H 0.7748 0.83623 0.23504 0.0
H955 H 0.74737 0.80867 0.23435 0.0
H956 H 0.75913 0.89165 0.26005 0.0
H957 H 0.8009 0.86977 0.19137 0.0
H958 H 0.77552 0.86008 0.19387 0.0
H959 H 0.79472 0.84909 0.2067 0.0
C960 C 0.72145 0.84932 0.2258 0.0
C961 C 0.72497 0.82895 0.22902 0.0
C962 C 0.737 0.86505 0.22633 0.0
C963 C 0.75637 0.86059 0.22984 0.0
C964 C 0.76 0.83996 0.23199 0.0
H965 H 0.86918 0.93178 0.25544 0.0
H966 H 0.84144 0.9051 0.24838 0.0
C967 C 0.7444 0.82423 0.23155 0.0
C968 C 0.77242 0.87785 0.23335 0.0
H969 H 0.81624 0.89664 0.21566 0.0
C970 C 0.77156 0.89288 0.25026 0.0
C971 C 0.78864 0.87926 0.22065 0.0
C972 C 0.79003 0.86381 0.20202 0.0
C973 C 0.78673 0.90903 0.25513 0.0
C974 C 0.803 0.91051 0.24242 0.0
C975 C 0.80376 0.89555 0.22538 0.0
C976 C 0.81969 0.92703 0.24688 0.0
C977 C 0.78549 0.92388 0.27424 0.0
C978 C 0.81675 0.94832 0.24835 0.0
C979 C 0.83262 0.96371 0.25261 0.0
C980 C 0.85179 0.95809 0.2552 0.0
C981 C 0.85465 0.93673 0.25355 0.0
C982 C 0.8388 0.92141 0.24945 0.0
H983 H 0.77506 0.91728 0.28497 0.0
H984 H 0.8001 0.92776 0.28214 0.0
H985 H 0.78018 0.93859 0.27022 0.0
H986 H 0.80221 0.95306 0.24598 0.0
H987 H 0.82989 0.97999 0.25356 0.0
H988 H 0.70163 0.15345 0.28207 0.0
H989 H 0.72701 0.12995 0.28684 0.0
H990 H 0.77133 0.18261 0.29254 0.0
H991 H 0.74583 0.20604 0.28788 0.0
H992 H 0.75733 0.12345 0.26189 0.0
H993 H 0.78674 0.15215 0.33973 0.0
H994 H 0.76371 0.1591 0.32999 0.0
H995 H 0.78656 0.17237 0.32339 0.0
C996 C 0.7168 0.15992 0.2846 0.0
C997 C 0.72188 0.18145 0.28462 0.0
C998 C 0.73126 0.14656 0.28734 0.0
C999 C 0.75108 0.1545 0.29027 0.0
C1000 C 0.75611 0.17614 0.29078 0.0
H1001 H 0.86299 0.1044 0.28753 0.0
H1002 H 0.83547 0.12574 0.29076 0.0
C1003 C 0.7416 0.18951 0.28808 0.0
C1004 C 0.76657 0.13997 0.29114 0.0
H1005 H 0.80589 0.12924 0.31952 0.0
C1006 C 0.7678 0.12456 0.27461 0.0
C1007 C 0.78028 0.14146 0.3077 0.0
C1008 C 0.77919 0.15703 0.3263 0.0
C1009 C 0.78269 0.11104 0.27388 0.0
C1010 C 0.79658 0.11272 0.2903 0.0
C1011 C 0.79521 0.12794 0.30697 0.0
C1012 C 0.81322 0.09953 0.28989 0.0
C1013 C 0.78386 0.09558 0.25518 0.0
C1014 C 0.80992 0.07767 0.28884 0.0
C1015 C 0.82568 0.06535 0.28695 0.0
C1016 C 0.84503 0.0747 0.28615 0.0
C1017 C 0.84829 0.09664 0.28798 0.0
C1018 C 0.83256 0.10891 0.28988 0.0
H1019 H 0.77486 0.09939 0.2422 0.0
H1020 H 0.79929 0.0951 0.25049 0.0
H1021 H 0.77831 0.07975 0.25863 0.0
H1022 H 0.79513 0.07011 0.28919 0.0
H1023 H 0.82265 0.04852 0.28568 0.0
H1024 H 0.43498 0.97688 0.97708 0.0
H1025 H 0.40667 0.95435 0.98678 0.0
H1026 H 0.36778 0.99819 0.96905 0.0
H1027 H 0.39614 0.02044 0.95891 0.0
H1028 H 0.37955 0.96577 0.0163 0.0
H1029 H 0.34247 0.94192 0.94047 0.0
H1030 H 0.3677 0.95318 0.94347 0.0
H1031 H 0.34808 0.96956 0.9473 0.0
C1032 C 0.42033 0.98142 0.97493 0.0
C1033 C 0.41761 1.00023 0.96717 0.0
C1034 C 0.40422 0.96868 0.98058 0.0
C1035 C 0.3851 0.9745 0.97845 0.0
C1036 C 0.38235 0.99323 0.97051 0.0
H1037 H 0.27327 0.90799 0.00844 0.0
H1038 H 0.29777 0.93527 0.99927 0.0
C1039 C 0.3985 0.00597 0.96486 0.0
C1040 C 0.36822 0.96131 0.98537 0.0
H1041 H 0.32621 0.93055 0.96882 0.0
C1042 C 0.36786 0.95811 0.00593 0.0
C1043 C 0.35288 0.95152 0.97184 0.0
C1044 C 0.35277 0.95403 0.9495 0.0
C1045 C 0.35272 0.94514 0.01331 0.0
C1046 C 0.33771 0.93483 0.99968 0.0
C1047 C 0.33773 0.93851 0.97923 0.0
C1048 C 0.32279 0.91893 0.00604 0.0
C1049 C 0.35295 0.94257 0.03563 0.0
C1050 C 0.32876 0.90071 0.01277 0.0
C1051 C 0.3149 0.88515 0.01796 0.0
C1052 C 0.29468 0.88739 0.01647 0.0
C1053 C 0.28871 0.90578 0.00987 0.0
C1054 C 0.30267 0.92136 0.00457 0.0
H1055 H 0.36166 0.95593 0.04481 0.0
H1056 H 0.33782 0.94112 0.04135 0.0
H1057 H 0.35979 0.92814 0.038 0.0
H1058 H 0.34419 0.89833 0.01365 0.0
H1059 H 0.32009 0.87123 0.02293 0.0
H1060 H 0.30043 0.35098 0.31348 0.0
H1061 H 0.27608 0.37601 0.31029 0.0
H1062 H 0.2345 0.32587 0.28233 0.0
H1063 H 0.25874 0.30088 0.28628 0.0
H1064 H 0.2602 0.38686 0.2776 0.0
H1065 H 0.20002 0.35413 0.32228 0.0
H1066 H 0.22427 0.34546 0.32282 0.0
H1067 H 0.2069 0.33532 0.3024 0.0
C1068 C 0.28599 0.34543 0.30686 0.0
C1069 C 0.2813 0.32416 0.30018 0.0
C1070 C 0.27209 0.35964 0.30504 0.0
C1071 C 0.25326 0.35283 0.29638 0.0
C1072 C 0.24865 0.33148 0.28962 0.0
H1073 H 0.18381 0.43803 0.24172 0.0
H1074 H 0.20146 0.40835 0.24839 0.0
C1075 C 0.2625 0.31725 0.29169 0.0
C1076 C 0.23905 0.3683 0.29322 0.0
H1077 H 0.19189 0.37985 0.3011 0.0
C1078 C 0.24531 0.38534 0.28287 0.0
C1079 C 0.21966 0.36657 0.30031 0.0
C1080 C 0.21237 0.3495 0.31276 0.0
C1081 C 0.23276 0.40047 0.27916 0.0
C1082 C 0.21306 0.39817 0.28531 0.0
C1083 C 0.20685 0.38139 0.29603 0.0
C1084 C 0.19901 0.41341 0.28103 0.0
C1085 C 0.24094 0.41904 0.26907 0.0
C1086 C 0.19031 0.42505 0.29699 0.0
C1087 C 0.17971 0.44175 0.29313 0.0
C1088 C 0.17784 0.44713 0.27328 0.0
C1089 C 0.18519 0.43437 0.2572 0.0
C1090 C 0.19544 0.41752 0.26101 0.0
H1091 H 0.25721 0.42159 0.27083 0.0
H1092 H 0.23708 0.41619 0.25256 0.0
H1093 H 0.23478 0.43354 0.27546 0.0
H1094 H 0.1927 0.42203 0.31254 0.0
H1095 H 0.1743 0.45137 0.30584 0.0
H1096 H 0.09452 0.99067 0.47556 0.0
H1097 H 0.12781 0.00872 0.4804 0.0
H1098 H 0.10902 0.04752 0.53221 0.0
H1099 H 0.07587 0.02894 0.52748 0.0
H1100 H 0.13496 0.04896 0.47603 0.0
H1101 H 0.16297 0.03718 0.5524 0.0
H1102 H 0.14228 0.02105 0.53965 0.0
H1103 H 0.13903 0.04627 0.55291 0.0
C1104 C 0.09787 0.00243 0.48849 0.0
C1105 C 0.08291 0.00825 0.50139 0.0
C1106 C 0.11678 0.01287 0.49116 0.0
C1107 C 0.12107 0.02946 0.50675 0.0
C1108 C 0.10631 0.0345 0.52036 0.0
H1109 H 0.1995 0.14049 0.50364 0.0
H1110 H 0.17239 0.11303 0.50237 0.0
C1111 C 0.08739 0.02389 0.51773 0.0
C1112 C 0.13993 0.04314 0.507 0.0
H1113 H 0.17907 0.06605 0.53736 0.0
C1114 C 0.1447 0.05245 0.48939 0.0
C1115 C 0.15281 0.04765 0.52433 0.0
C1116 C 0.14914 0.03735 0.54333 0.0
C1117 C 0.16153 0.06659 0.48884 0.0
C1118 C 0.17384 0.07196 0.50649 0.0
C1119 C 0.16953 0.0621 0.52389 0.0
C1120 C 0.19064 0.08852 0.50737 0.0
C1121 C 0.16594 0.07574 0.46933 0.0
C1122 C 0.21 0.08401 0.51096 0.0
C1123 C 0.22569 0.09979 0.51171 0.0
C1124 C 0.22228 0.12044 0.5091 0.0
C1125 C 0.2028 0.12482 0.50561 0.0
C1126 C 0.18721 0.10908 0.50481 0.0
H1127 H 0.15868 0.06576 0.45596 0.0
H1128 H 0.16033 0.09131 0.47002 0.0
H1129 H 0.18199 0.07775 0.46703 0.0
H1130 H 0.21298 0.06826 0.51306 0.0
H1131 H 0.24044 0.09584 0.51456 0.0
H1132 H 0.81127 0.18553 0.74704 0.0
H1133 H 0.79165 0.1526 0.75174 0.0
H1134 H 0.74644 0.18763 0.77871 0.0
H1135 H 0.76623 0.22034 0.77427 0.0
H1136 H 0.75226 0.15189 0.79753 0.0
H1137 H 0.74333 0.1339 0.71356 0.0
H1138 H 0.76824 0.13769 0.72348 0.0
H1139 H 0.75338 0.15918 0.72574 0.0
C1140 C 0.79744 0.18604 0.75456 0.0
C1141 C 0.79013 0.20527 0.7603 0.0
C1142 C 0.78613 0.16733 0.75699 0.0
C1143 C 0.76737 0.16769 0.76513 0.0
C1144 C 0.76079 0.18697 0.77227 0.0
H1145 H 0.66436 0.08298 0.78051 0.0
H1146 H 0.68821 0.11326 0.77825 0.0
C1147 C 0.77207 0.2056 0.76983 0.0
C1148 C 0.75391 0.14825 0.76497 0.0
H1149 H 0.72759 0.10955 0.73317 0.0
C1150 C 0.74693 0.14257 0.78348 0.0
C1151 C 0.74687 0.13619 0.74658 0.0
C1152 C 0.75317 0.14207 0.72617 0.0
C1153 C 0.73315 0.12513 0.78411 0.0
C1154 C 0.7259 0.11327 0.76572 0.0
C1155 C 0.73312 0.11872 0.74723 0.0
C1156 C 0.71081 0.09514 0.76541 0.0
C1157 C 0.72661 0.11942 0.80449 0.0
C1158 C 0.71524 0.07502 0.75799 0.0
C1159 C 0.70159 0.05769 0.75912 0.0
C1160 C 0.68318 0.06019 0.76756 0.0
C1161 C 0.6784 0.08049 0.77397 0.0
C1162 C 0.69209 0.0978 0.77287 0.0
H1163 H 0.73702 0.12668 0.81701 0.0
H1164 H 0.71205 0.12506 0.80753 0.0
H1165 H 0.72515 0.10221 0.80467 0.0
H1166 H 0.72954 0.07264 0.752 0.0
H1167 H 0.70578 0.04229 0.75407 0.0
H1168 H 0.42036 0.9759 0.55955 0.0
H1169 H 0.39539 0.99775 0.5489 0.0
H1170 H 0.44089 0.04752 0.54329 0.0
H1171 H 0.46576 0.02542 0.55355 0.0
H1172 H 0.38615 0.03644 0.56658 0.0
H1173 H 0.4114 0.04172 0.48841 0.0
H1174 H 0.41951 0.0229 0.50401 0.0
H1175 H 0.43044 0.04953 0.50763 0.0
C1176 C 0.42488 0.99153 0.55602 0.0
C1177 C 0.44482 0.99916 0.55743 0.0
C1178 C 0.4107 0.00397 0.54995 0.0
C1179 C 0.41629 0.02417 0.545 0.0
C1180 C 0.43626 0.03185 0.54664 0.0
H1181 H 0.36184 0.13095 0.51542 0.0
H1182 H 0.38341 0.10434 0.5217 0.0
C1183 C 0.45041 0.01939 0.5527 0.0
C1184 C 0.40124 0.03739 0.53856 0.0
H1185 H 0.38827 0.06518 0.5004 0.0
C1186 C 0.38647 0.04255 0.55203 0.0
C1187 C 0.40163 0.04528 0.51952 0.0
C1188 C 0.41647 0.03943 0.50396 0.0
C1189 C 0.37257 0.05606 0.54732 0.0
C1190 C 0.37326 0.06435 0.52848 0.0
C1191 C 0.38776 0.05882 0.51483 0.0
C1192 C 0.35987 0.07984 0.52323 0.0
C1193 C 0.35776 0.062 0.56289 0.0
C1194 C 0.33942 0.07477 0.52142 0.0
C1195 C 0.32696 0.09001 0.51779 0.0
C1196 C 0.33476 0.11058 0.51588 0.0
C1197 C 0.35529 0.11532 0.51691 0.0
C1198 C 0.36768 0.10011 0.52049 0.0
H1199 H 0.36177 0.05779 0.57812 0.0
H1200 H 0.35634 0.07903 0.56421 0.0
H1201 H 0.34319 0.05362 0.55805 0.0
H1202 H 0.33308 0.0591 0.52309 0.0
H1203 H 0.31123 0.08581 0.51702 0.0
H1204 H 0.55161 0.47385 0.5053 0.0
H1205 H 0.58288 0.45871 0.49906 0.0
H1206 H 0.61113 0.50267 0.54731 0.0
H1207 H 0.57978 0.51734 0.55369 0.0
H1208 H 0.6227 0.47322 0.49131 0.0
H1209 H 0.61544 0.44547 0.56716 0.0
H1210 H 0.59566 0.45601 0.55455 0.0
H1211 H 0.61534 0.47322 0.56758 0.0
C1212 C 0.56472 0.48062 0.51402 0.0
C1213 C 0.56349 0.49667 0.52992 0.0
C1214 C 0.58251 0.47196 0.51057 0.0
C1215 C 0.59924 0.47927 0.52301 0.0
C1216 C 0.59833 0.49653 0.53776 0.0
H1217 H 0.71098 0.43349 0.54736 0.0
H1218 H 0.68379 0.45482 0.54421 0.0
C1219 C 0.58055 0.50503 0.5413 0.0
C1220 C 0.61695 0.46762 0.52208 0.0
H1221 H 0.64492 0.43999 0.55046 0.0
C1222 C 0.62758 0.46592 0.50421 0.0
C1223 C 0.62316 0.45788 0.53886 0.0
C1224 C 0.61173 0.45801 0.55806 0.0
C1225 C 0.64457 0.45522 0.50289 0.0
C1226 C 0.65092 0.44582 0.51981 0.0
C1227 C 0.64016 0.44738 0.53757 0.0
C1228 C 0.66859 0.43411 0.51963 0.0
C1229 C 0.65581 0.45442 0.4836 0.0
C1230 C 0.66929 0.41548 0.50664 0.0
C1231 C 0.68487 0.40317 0.50841 0.0
C1232 C 0.7 0.40922 0.52331 0.0
C1233 C 0.6996 0.4283 0.53574 0.0
C1234 C 0.68404 0.44054 0.53398 0.0
H1235 H 0.65181 0.46639 0.47394 0.0
H1236 H 0.67189 0.45677 0.48704 0.0
H1237 H 0.6524 0.43881 0.47475 0.0
H1238 H 0.65737 0.41 0.4957 0.0
H1239 H 0.68466 0.38855 0.49863 0.0
H1240 H 0.72222 0.25062 0.3002 0.0
H1241 H 0.73179 0.26782 0.33436 0.0
H1242 H 0.71358 0.21067 0.35936 0.0
H1243 H 0.70359 0.19366 0.32502 0.0
H1244 H 0.69705 0.24472 0.37799 0.0
H1245 H 0.77736 0.26368 0.37352 0.0
H1246 H 0.76364 0.27248 0.35332 0.0
H1247 H 0.76329 0.24494 0.35514 0.0
C1248 C 0.7207 0.24171 0.31302 0.0
C1249 C 0.71223 0.22093 0.31018 0.0
C1250 C 0.72623 0.25145 0.33247 0.0
C1251 C 0.72355 0.24049 0.34941 0.0
C1252 C 0.71585 0.21939 0.34648 0.0
H1253 H 0.76318 0.28703 0.47244 0.0
H1254 H 0.75758 0.26822 0.43858 0.0
C1255 C 0.7103 0.20964 0.32695 0.0
C1256 C 0.72714 0.25164 0.37019 0.0
H1257 H 0.76192 0.2817 0.40133 0.0
C1258 C 0.71127 0.25267 0.38317 0.0
C1259 C 0.74571 0.26194 0.37694 0.0
C1260 C 0.76352 0.26057 0.36408 0.0
C1261 C 0.71339 0.26399 0.40261 0.0
C1262 C 0.73179 0.27491 0.40908 0.0
C1263 C 0.74774 0.27358 0.39623 0.0
C1264 C 0.7351 0.2869 0.42954 0.0
C1265 C 0.69599 0.26385 0.41616 0.0
C1266 C 0.72446 0.30391 0.43569 0.0
C1267 C 0.72756 0.31477 0.45524 0.0
C1268 C 0.74146 0.30887 0.46889 0.0
C1269 C 0.75231 0.29206 0.46243 0.0
C1270 C 0.74917 0.28124 0.44301 0.0
H1271 H 0.68463 0.25075 0.411 0.0
H1272 H 0.7006 0.26258 0.43211 0.0
H1273 H 0.68918 0.27868 0.41588 0.0
H1274 H 0.7138 0.30882 0.42537 0.0
H1275 H 0.71904 0.32769 0.45964 0.0
H1276 H 0.49174 1.00025 0.95161 0.0
H1277 H 0.51978 0.9993 0.92937 0.0
H1278 H 0.5034 0.05431 0.90484 0.0
H1279 H 0.47485 0.05469 0.92663 0.0
H1280 H 0.51039 0.02365 0.87503 0.0
H1281 H 0.57173 0.03487 0.93249 0.0
H1282 H 0.554 0.0135 0.93621 0.0
H1283 H 0.54697 0.03972 0.93883 0.0
C1284 C 0.49429 0.01221 0.94157 0.0
C1285 C 0.48119 0.0275 0.94072 0.0
C1286 C 0.51038 0.01178 0.929 0.0
C1287 C 0.51385 0.02686 0.91554 0.0
C1288 C 0.50106 0.04255 0.91513 0.0
H1289 H 0.61936 0.04699 0.84847 0.0
H1290 H 0.59226 0.04879 0.87147 0.0
C1291 C 0.4849 0.0429 0.92768 0.0
C1292 C 0.53013 0.0255 0.90111 0.0
H1293 H 0.57967 0.02324 0.89852 0.0
C1294 C 0.52556 0.02368 0.88017 0.0
C1295 C 0.54995 0.02568 0.9078 0.0
C1296 C 0.55602 0.02875 0.93006 0.0
C1297 C 0.5402 0.02182 0.86574 0.0
C1298 C 0.55994 0.02131 0.87241 0.0
C1299 C 0.56452 0.02335 0.89337 0.0
C1300 C 0.57626 0.01983 0.85802 0.0
C1301 C 0.53444 0.02092 0.84352 0.0
C1302 C 0.57645 0.00283 0.84279 0.0
C1303 C 0.59199 0.0018 0.82939 0.0
C1304 C 0.60772 0.01765 0.83117 0.0
C1305 C 0.60753 0.03447 0.84661 0.0
C1306 C 0.59202 0.03554 0.85984 0.0
H1307 H 0.51997 0.02692 0.84132 0.0
H1308 H 0.54559 0.03013 0.83543 0.0
H1309 H 0.53333 0.00445 0.83644 0.0
H1310 H 0.56467 0.99027 0.84135 0.0
H1311 H 0.59173 0.98858 0.81775 0.0
H1312 H 0.29069 0.2446 0.30728 0.0
H1313 H 0.29149 0.22055 0.33319 0.0
H1314 H 0.34202 0.25805 0.36254 0.0
H1315 H 0.34081 0.28238 0.33676 0.0
H1316 H 0.3178 0.19656 0.35195 0.0
H1317 H 0.29857 0.26496 0.40368 0.0
H1318 H 0.29871 0.26489 0.3765 0.0
H1319 H 0.32143 0.2687 0.39124 0.0
C1320 C 0.30237 0.2472 0.31887 0.0
C1321 C 0.31557 0.26535 0.32023 0.0
C1322 C 0.30282 0.23352 0.33369 0.0
C1323 C 0.31652 0.23775 0.3501 0.0
C1324 C 0.3311 0.25466 0.35021 0.0
H1325 H 0.31314 0.16554 0.45582 0.0
H1326 H 0.32392 0.17938 0.4245 0.0
C1327 C 0.33058 0.26841 0.33538 0.0
C1328 C 0.31361 0.22642 0.36828 0.0
H1329 H 0.29956 0.23341 0.4175 0.0
C1330 C 0.31404 0.20461 0.36637 0.0
C1331 C 0.30834 0.23689 0.38701 0.0
C1332 C 0.30654 0.26011 0.3898 0.0
C1333 C 0.30913 0.19303 0.38261 0.0
C1334 C 0.30375 0.20355 0.40124 0.0
C1335 C 0.30373 0.22536 0.40323 0.0
C1336 C 0.2967 0.1924 0.41854 0.0
C1337 C 0.30895 0.16958 0.37949 0.0
C1338 C 0.27774 0.19477 0.42544 0.0
C1339 C 0.27162 0.18703 0.4433 0.0
C1340 C 0.28431 0.17669 0.45478 0.0
C1341 C 0.30295 0.17327 0.44728 0.0
C1342 C 0.30913 0.18118 0.42936 0.0
H1343 H 0.30994 0.16353 0.36321 0.0
H1344 H 0.32167 0.16496 0.38798 0.0
H1345 H 0.29537 0.16203 0.38543 0.0
H1346 H 0.26786 0.20329 0.41734 0.0
H1347 H 0.25713 0.18985 0.4485 0.0
H1348 H 0.52073 0.47032 0.94991 0.0
H1349 H 0.4965 0.47107 0.92208 0.0
H1350 H 0.48616 0.53376 0.94597 0.0
H1351 H 0.51033 0.53275 0.97399 0.0
H1352 H 0.45106 0.50644 0.9332 0.0
H1353 H 0.50718 0.5056 0.87426 0.0
H1354 H 0.50789 0.48491 0.89002 0.0
H1355 H 0.51347 0.5116 0.90103 0.0
C1356 C 0.51316 0.48416 0.94914 0.0
C1357 C 0.5173 0.50152 0.96381 0.0
C1358 C 0.49944 0.48464 0.93329 0.0
C1359 C 0.48972 0.50258 0.93181 0.0
C1360 C 0.49353 0.5198 0.9468 0.0
H1361 H 0.40777 0.52955 0.83631 0.0
H1362 H 0.42557 0.53116 0.86915 0.0
C1363 C 0.5073 0.51928 0.96268 0.0
C1364 C 0.476 0.5034 0.9143 0.0
H1365 H 0.47383 0.49955 0.86252 0.0
C1366 C 0.45601 0.50511 0.91774 0.0
C1367 C 0.48254 0.50184 0.89417 0.0
C1368 C 0.50397 0.50109 0.88959 0.0
C1369 C 0.44226 0.50442 0.90145 0.0
C1370 C 0.44876 0.50218 0.88131 0.0
C1371 C 0.46883 0.50107 0.87798 0.0
C1372 C 0.43515 0.50021 0.86324 0.0
C1373 C 0.42083 0.50537 0.90583 0.0
C1374 C 0.43424 0.48215 0.84925 0.0
C1375 C 0.42422 0.48124 0.83054 0.0
C1376 C 0.41488 0.4984 0.82535 0.0
C1377 C 0.41467 0.516 0.83991 0.0
C1378 C 0.42485 0.51695 0.85869 0.0
H1379 H 0.41773 0.503 0.92181 0.0
H1380 H 0.41653 0.52092 0.90312 0.0
H1381 H 0.41156 0.49337 0.89553 0.0
H1382 H 0.44202 0.46903 0.85246 0.0
H1383 H 0.42456 0.46739 0.81975 0.0
H1384 H 0.72455 0.7596 0.22285 0.0
H1385 H 0.73786 0.74054 0.19297 0.0
H1386 H 0.72332 0.7886 0.15685 0.0
H1387 H 0.71015 0.80768 0.18693 0.0
H1388 H 0.71567 0.72499 0.15844 0.0
H1389 H 0.77871 0.77893 0.1393 0.0
H1390 H 0.76746 0.78169 0.16369 0.0
H1391 H 0.75603 0.79059 0.14204 0.0
C1392 C 0.72457 0.76618 0.20857 0.0
C1393 C 0.71634 0.78497 0.20702 0.0
C1394 C 0.73213 0.75534 0.19154 0.0
C1395 C 0.73167 0.76316 0.17267 0.0
C1396 C 0.72416 0.78243 0.17131 0.0
H1397 H 0.75734 0.71034 0.05033 0.0
H1398 H 0.74636 0.73188 0.07989 0.0
C1399 C 0.71664 0.79331 0.18842 0.0
C1400 C 0.73749 0.75024 0.15421 0.0
H1401 H 0.76903 0.74952 0.11505 0.0
C1402 C 0.7274 0.73032 0.14901 0.0
C1403 C 0.7527 0.75728 0.14183 0.0
C1404 C 0.76449 0.77821 0.14704 0.0
C1405 C 0.732 0.7173 0.13171 0.0
C1406 C 0.7473 0.72424 0.11942 0.0
C1407 C 0.75729 0.74424 0.12449 0.0
C1408 C 0.75338 0.71082 0.10144 0.0
C1409 C 0.7202 0.69635 0.12655 0.0
C1410 C 0.76098 0.69182 0.10374 0.0
C1411 C 0.7672 0.67944 0.08688 0.0
C1412 C 0.76601 0.68585 0.06737 0.0
C1413 C 0.75828 0.70484 0.0651 0.0
C1414 C 0.7521 0.71724 0.08199 0.0
H1415 H 0.70592 0.69569 0.1342 0.0
H1416 H 0.71732 0.69277 0.1099 0.0
H1417 H 0.72861 0.68399 0.1317 0.0
H1418 H 0.76242 0.68673 0.11866 0.0
H1419 H 0.77321 0.665 0.0892 0.0
H1420 H 0.029 0.01341 0.0996 0.0
H1421 H 0.0076 0.01303 0.12879 0.0
H1422 H 0.95889 0.98566 0.08885 0.0
H1423 H 0.98045 0.98585 0.05971 0.0
H1424 H 0.97286 0.03404 0.13246 0.0
H1425 H 0.95765 0.94868 0.13616 0.0
H1426 H 0.97819 0.95969 0.12294 0.0
H1427 H 0.95386 0.95721 0.11163 0.0
C1428 C 0.01382 0.00695 0.09722 0.0
C1429 C 0.00629 0.99951 0.07759 0.0
C1430 C 0.00161 0.00684 0.1138 0.0
C1431 C 0.98172 0.99913 0.11099 0.0
C1432 C 0.97426 0.99136 0.09138 0.0
H1433 H 0.89077 0.0267 0.19748 0.0
H1434 H 0.90908 0.02115 0.16635 0.0
C1435 C 0.98648 0.99155 0.0748 0.0
C1436 C 0.96859 1.00044 0.12842 0.0
H1437 H 0.94005 0.97104 0.15816 0.0
C1438 C 0.96565 0.02028 0.13807 0.0
C1439 C 0.9593 0.98244 0.13571 0.0
C1440 C 0.96246 0.96076 0.12622 0.0
C1441 C 0.95365 0.02263 0.15487 0.0
C1442 C 0.9442 0.00465 0.16206 0.0
C1443 C 0.94717 0.98478 0.15245 0.0
C1444 C 0.93205 0.00625 0.18024 0.0
C1445 C 0.95155 0.04432 0.16512 0.0
C1446 C 0.9386 0.99913 0.19815 0.0
C1447 C 0.92821 0.00227 0.21593 0.0
C1448 C 0.91097 0.01247 0.21609 0.0
C1449 C 0.90402 0.01885 0.19789 0.0
C1450 C 0.91448 0.01575 0.18011 0.0
H1451 H 0.9627 0.05615 0.16017 0.0
H1452 H 0.93678 0.04876 0.16126 0.0
H1453 H 0.95294 0.04478 0.18189 0.0
H1454 H 0.95213 0.99175 0.19853 0.0
H1455 H 0.93405 0.99725 0.22966 0.0
H1456 H 0.27496 0.77567 0.23199 0.0
H1457 H 0.26716 0.79594 0.20424 0.0
H1458 H 0.3182 0.77694 0.17308 0.0
H1459 H 0.32581 0.7564 0.20073 0.0
H1460 H 0.3092 0.82264 0.1736 0.0
H1461 H 0.24797 0.76176 0.14717 0.0
H1462 H 0.24896 0.77192 0.17365 0.0
H1463 H 0.26792 0.75681 0.1637 0.0
C1464 C 0.28459 0.77608 0.21929 0.0
C1465 C 0.30088 0.76444 0.21832 0.0
C1466 C 0.28017 0.78764 0.20353 0.0
C1467 C 0.29204 0.78779 0.18659 0.0
C1468 C 0.30891 0.77705 0.18608 0.0
H1469 H 0.26498 0.80935 0.06438 0.0
H1470 H 0.27708 0.79767 0.09557 0.0
C1471 C 0.31328 0.76541 0.20183 0.0
C1472 C 0.28591 0.79759 0.16867 0.0
H1473 H 0.25219 0.79098 0.1291 0.0
C1474 C 0.2967 0.81583 0.16388 0.0
C1475 C 0.2697 0.7885 0.15599 0.0
C1476 C 0.25797 0.76859 0.1602 0.0
C1477 C 0.29159 0.82526 0.14667 0.0
C1478 C 0.27533 0.81618 0.13405 0.0
C1479 C 0.26459 0.79795 0.13889 0.0
C1480 C 0.26964 0.82463 0.11514 0.0
C1481 C 0.30385 0.84455 0.14178 0.0
C1482 C 0.26158 0.84381 0.11578 0.0
C1483 C 0.2546 0.85061 0.09786 0.0
C1484 C 0.25561 0.8383 0.07906 0.0
C1485 C 0.26413 0.81934 0.07852 0.0
C1486 C 0.27101 0.81257 0.09637 0.0
H1487 H 0.31773 0.84767 0.15115 0.0
H1488 H 0.30745 0.84296 0.12547 0.0
H1489 H 0.29533 0.85826 0.1447 0.0
H1490 H 0.26014 0.85321 0.13017 0.0
H1491 H 0.24804 0.86523 0.0988 0.0
H1492 H 0.97827 0.47125 0.11948 0.0
H1493 H 0.00447 0.47328 0.14582 0.0
H1494 H 0.04762 0.4714 0.09949 0.0
H1495 H 0.02136 0.47001 0.07323 0.0
H1496 H 0.03444 0.44854 0.15372 0.0
H1497 H 0.0649 0.52638 0.13506 0.0
H1498 H 0.0412 0.51416 0.12535 0.0
H1499 H 0.06325 0.50612 0.114 0.0
C1500 C 0.99336 0.4711 0.115 0.0
C1501 C 0.99791 0.47076 0.09444 0.0
C1502 C 0.0083 0.47219 0.13 0.0
C1503 C 0.02806 0.47298 0.12469 0.0
C1504 C 0.03251 0.47127 0.104 0.0
H1505 H 0.13912 0.49477 0.19303 0.0
H1506 H 0.11265 0.48716 0.16719 0.0
C1507 C 0.01755 0.47022 0.089 0.0
C1508 C 0.04395 0.47668 0.14083 0.0
H1509 H 0.08272 0.51139 0.15963 0.0
C1510 C 0.045 0.46228 0.15504 0.0
C1511 C 0.05762 0.49472 0.14267 0.0
C1512 C 0.05665 0.51136 0.1286 0.0
C1513 C 0.0596 0.4652 0.17072 0.0
C1514 C 0.07334 0.48318 0.17245 0.0
C1515 C 0.07223 0.49759 0.15829 0.0
C1516 C 0.08927 0.48724 0.18854 0.0
C1517 C 0.06048 0.44879 0.18502 0.0
C1518 C 0.085 0.49001 0.20925 0.0
C1519 C 0.10018 0.49442 0.22419 0.0
C1520 C 0.11997 0.49622 0.21871 0.0
C1521 C 0.12412 0.49349 0.19792 0.0
C1522 C 0.10897 0.48913 0.18305 0.0
H1523 H 0.05213 0.43376 0.17875 0.0
H1524 H 0.07592 0.44595 0.1883 0.0
H1525 H 0.05396 0.4543 0.19958 0.0
H1526 H 0.0699 0.48906 0.21386 0.0
H1527 H 0.0964 0.49648 0.24001 0.0
H1528 H 0.31202 0.72847 0.2954 0.0
H1529 H 0.33722 0.72255 0.32067 0.0
H1530 H 0.37947 0.71747 0.27364 0.0
H1531 H 0.35421 0.72294 0.2484 0.0
H1532 H 0.36468 0.68801 0.32059 0.0
H1533 H 0.40162 0.76795 0.31754 0.0
H1534 H 0.37636 0.76059 0.30905 0.0
H1535 H 0.3959 0.75212 0.29361 0.0
C1536 C 0.32658 0.72561 0.29047 0.0
C1537 C 0.33131 0.72636 0.27007 0.0
C1538 C 0.34096 0.72235 0.30487 0.0
C1539 C 0.36027 0.71989 0.29905 0.0
C1540 C 0.36473 0.71961 0.27848 0.0
H1541 H 0.47143 0.72148 0.36635 0.0
H1542 H 0.44558 0.72106 0.3401 0.0
C1543 C 0.35035 0.72276 0.26412 0.0
C1544 C 0.37602 0.71873 0.31454 0.0
H1545 H 0.41704 0.74637 0.33794 0.0
C1546 C 0.37613 0.70075 0.32445 0.0
C1547 C 0.39097 0.73535 0.31943 0.0
C1548 C 0.39126 0.7552 0.3095 0.0
C1549 C 0.391 0.69881 0.33896 0.0
C1550 C 0.40586 0.71556 0.34406 0.0
C1551 C 0.40571 0.73352 0.33406 0.0
C1552 C 0.42156 0.715 0.35992 0.0
C1553 C 0.39089 0.67861 0.34826 0.0
C1554 C 0.41673 0.71193 0.37989 0.0
C1555 C 0.43148 0.71201 0.3949 0.0
C1556 C 0.45145 0.71547 0.39039 0.0
C1557 C 0.45624 0.71874 0.3704 0.0
C1558 C 0.44146 0.71851 0.35536 0.0
H1559 H 0.38259 0.66545 0.33842 0.0
H1560 H 0.40605 0.67455 0.35098 0.0
H1561 H 0.38361 0.68031 0.36305 0.0
H1562 H 0.40152 0.7098 0.38398 0.0
H1563 H 0.42718 0.70964 0.41014 0.0
H1564 H 0.96661 0.42497 0.0765 0.0
H1565 H 0.97193 0.38976 0.06068 0.0
H1566 H 0.00964 0.41704 0.01755 0.0
H1567 H 0.00431 0.45211 0.03356 0.0
H1568 H 0.96053 0.3768 0.02 0.0
H1569 H 0.03974 0.36895 0.03292 0.0
H1570 H 0.02693 0.38805 0.04799 0.0
H1571 H 0.03467 0.39265 0.02305 0.0
C1572 C 0.97661 0.42327 0.06414 0.0
C1573 C 0.98531 0.441 0.05632 0.0
C1574 C 0.97952 0.40326 0.05501 0.0
C1575 C 0.9913 0.40073 0.038 0.0
C1576 C 0.00082 0.41854 0.03088 0.0
H1577 H 0.01167 0.29595 0.94861 0.0
H1578 H 0.01102 0.33044 0.968 0.0
C1579 C 0.99784 0.43853 0.03999 0.0
C1580 C 0.99174 0.37977 0.02631 0.0
H1581 H 0.02225 0.34358 0.00848 0.0
C1582 C 0.97401 0.36945 0.01763 0.0
C1583 C 0.00936 0.37034 0.02298 0.0
C1584 C 0.02875 0.38045 0.03235 0.0
C1585 C 0.97342 0.35011 0.00551 0.0
C1586 C 0.991 0.34056 0.00229 0.0
C1587 C 0.00877 0.3509 0.01093 0.0
C1588 C 0.99116 0.31968 0.99033 0.0
C1589 C 0.95401 0.34035 0.99582 0.0
C1590 C 0.98029 0.30212 0.99646 0.0
C1591 C 0.98052 0.28243 0.98537 0.0
C1592 C 0.9918 0.27976 0.96795 0.0
C1593 C 0.00274 0.29739 0.96186 0.0
C1594 C 0.00245 0.31713 0.97298 0.0
H1595 H 0.94335 0.35213 0.99488 0.0
H1596 H 0.95593 0.33254 0.98029 0.0
H1597 H 0.94757 0.32844 0.00516 0.0
H1598 H 0.97179 0.30359 0.01002 0.0
H1599 H 0.97204 0.26925 0.99067 0.0
H1600 H 0.65131 0.81878 0.25365 0.0
H1601 H 0.62588 0.81224 0.27848 0.0
H1602 H 0.65642 0.7621 0.2973 0.0
H1603 H 0.68174 0.76868 0.27254 0.0
H1604 H 0.60215 0.77058 0.28259 0.0
H1605 H 0.64926 0.80451 0.35006 0.0
H1606 H 0.65406 0.81103 0.32475 0.0
H1607 H 0.66021 0.78654 0.33203 0.0
C1608 C 0.65244 0.80637 0.26312 0.0
C1609 C 0.66832 0.79418 0.26132 0.0
C1610 C 0.63798 0.80262 0.27719 0.0
C1611 C 0.63941 0.7868 0.28977 0.0
C1612 C 0.65517 0.77447 0.28779 0.0
H1613 H 0.58379 0.73223 0.38625 0.0
H1614 H 0.60461 0.74515 0.36031 0.0
C1615 C 0.66951 0.77812 0.27365 0.0
C1616 C 0.62458 0.78316 0.30517 0.0
H1617 H 0.61926 0.78517 0.35634 0.0
C1618 C 0.60572 0.77398 0.29874 0.0
C1619 C 0.62938 0.78769 0.32615 0.0
C1620 C 0.64927 0.79814 0.33377 0.0
C1621 C 0.59179 0.76822 0.31283 0.0
C1622 C 0.59679 0.77221 0.33386 0.0
C1623 C 0.61545 0.78211 0.34022 0.0
C1624 C 0.58364 0.76466 0.34952 0.0
C1625 C 0.57222 0.75702 0.30508 0.0
C1626 C 0.56489 0.77146 0.35223 0.0
C1627 C 0.55279 0.76396 0.3671 0.0
C1628 C 0.55935 0.7497 0.37959 0.0
C1629 C 0.57823 0.7432 0.37694 0.0
C1630 C 0.59021 0.75059 0.3621 0.0
H1631 H 0.57228 0.75128 0.28863 0.0
H1632 H 0.56815 0.74353 0.31358 0.0
H1633 H 0.56072 0.76793 0.30731 0.0
H1634 H 0.55967 0.78264 0.34295 0.0
H1635 H 0.53836 0.76933 0.36883 0.0
H1636 H 0.00677 0.01101 0.99949 0.0
H1637 H 0.00592 0.03867 0.97749 0.0
H1638 H 0.06104 0.06808 0.00492 0.0
H1639 H 0.06103 0.041 0.02789 0.0
H1640 H 0.03598 0.09484 0.00714 0.0
H1641 H 0.02984 0.05673 0.92824 0.0
H1642 H 0.01106 0.04507 0.94285 0.0
H1643 H 0.03654 0.04302 0.94915 0.0
C1644 C 0.01899 0.02305 1.00028 0.0
C1645 C 0.03391 0.02399 0.01536 0.0
C1646 C 0.01859 0.03882 0.98762 0.0
C1647 C 0.03348 0.05553 0.98936 0.0
C1648 C 0.04936 0.0554 0.00324 0.0
H1649 H 0.03265 0.15813 0.91487 0.0
H1650 H 0.03797 0.12563 0.92848 0.0
C1651 C 0.04953 0.03979 0.01619 0.0
C1652 C 0.03095 0.07443 0.97905 0.0
H1653 H 0.01748 0.09068 0.93393 0.0
C1654 C 0.03224 0.0939 0.99105 0.0
C1655 C 0.02618 0.07342 0.95802 0.0
C1656 C 0.02605 0.05344 0.94383 0.0
C1657 C 0.02849 0.1122 0.98282 0.0
C1658 C 0.02242 0.11096 0.9621 0.0
C1659 C 0.02167 0.09161 0.94992 0.0
C1660 C 0.01755 0.12972 0.95269 0.0
C1661 C 0.03148 0.1327 0.99643 0.0
C1662 C 0.00367 0.14254 0.96119 0.0
C1663 C 0.00083 0.16138 0.95363 0.0
C1664 C 0.01143 0.1675 0.93706 0.0
C1665 C 0.02424 0.15392 0.92767 0.0
C1666 C 0.02733 0.13529 0.93546 0.0
H1667 H 0.04179 0.13186 0.00945 0.0
H1668 H 0.03733 0.14563 0.98795 0.0
H1669 H 0.01721 0.13649 0.00272 0.0
H1670 H 0.99541 0.13825 0.97405 0.0
H1671 H 0.99072 0.17138 0.96109 0.0
H1672 H 0.35857 0.31509 0.30226 0.0
H1673 H 0.38599 0.3099 0.27956 0.0
H1674 H 0.35436 0.25307 0.25041 0.0
H1675 H 0.32698 0.25833 0.27321 0.0
H1676 H 0.40911 0.27032 0.2648 0.0
H1677 H 0.36073 0.30062 0.20869 0.0
H1678 H 0.35782 0.30568 0.23575 0.0
H1679 H 0.34995 0.28036 0.2226 0.0
C1680 C 0.35792 0.30108 0.29154 0.0
C1681 C 0.3408 0.28705 0.28944 0.0
C1682 C 0.3735 0.29816 0.27855 0.0
C1683 C 0.37213 0.28119 0.26322 0.0
C1684 C 0.3557 0.26625 0.26218 0.0
H1685 H 0.42473 0.25213 0.14907 0.0
H1686 H 0.40508 0.25522 0.17907 0.0
C1687 C 0.34016 0.26914 0.27526 0.0
C1688 C 0.38637 0.2807 0.24664 0.0
H1689 H 0.39072 0.28976 0.19716 0.0
C1690 C 0.40519 0.2746 0.25 0.0
C1691 C 0.38123 0.28652 0.22746 0.0
C1692 C 0.3614 0.29381 0.22329 0.0
C1693 C 0.41879 0.27346 0.23436 0.0
C1694 C 0.41352 0.27897 0.21502 0.0
C1695 C 0.3948 0.28551 0.21193 0.0
C1696 C 0.42646 0.27678 0.19727 0.0
C1697 C 0.4384 0.26568 0.23845 0.0
C1698 C 0.44519 0.28792 0.19735 0.0
C1699 C 0.45666 0.28612 0.18003 0.0
C1700 C 0.44951 0.27329 0.16228 0.0
C1701 C 0.43077 0.26223 0.16237 0.0
C1702 C 0.41945 0.26395 0.17958 0.0
H1703 H 0.43847 0.2577 0.25241 0.0
H1704 H 0.44238 0.25468 0.22544 0.0
H1705 H 0.44988 0.27914 0.24054 0.0
H1706 H 0.4508 0.29826 0.21066 0.0
H1707 H 0.47099 0.29489 0.18047 0.0
H1708 H 0.53426 0.49377 0.04284 0.0
H1709 H 0.5336 0.46661 0.06581 0.0
H1710 H 0.57116 0.43224 0.02604 0.0
H1711 H 0.57176 0.45956 0.00316 0.0
H1712 H 0.51739 0.42668 0.05139 0.0
H1713 H 0.59281 0.4241 0.08257 0.0
H1714 H 0.58509 0.4467 0.07213 0.0
H1715 H 0.59148 0.42459 0.05555 0.0
C1716 C 0.543 0.4808 0.03954 0.0
C1717 C 0.55316 0.4787 0.02141 0.0
C1718 C 0.54253 0.46525 0.05255 0.0
C1719 C 0.55236 0.44737 0.04772 0.0
C1720 C 0.56375 0.44604 0.03032 0.0
H1721 H 0.54871 0.32123 0.07095 0.0
H1722 H 0.55651 0.35673 0.06312 0.0
C1723 C 0.56418 0.46164 0.01729 0.0
C1724 C 0.54832 0.42893 0.05902 0.0
H1725 H 0.57024 0.39369 0.08421 0.0
C1726 C 0.52889 0.41965 0.05889 0.0
C1727 C 0.56333 0.41972 0.06869 0.0
C1728 C 0.58433 0.42937 0.06995 0.0
C1729 C 0.52419 0.40088 0.06723 0.0
C1730 C 0.53928 0.39132 0.07648 0.0
C1731 C 0.55863 0.40102 0.07723 0.0
C1732 C 0.53562 0.37021 0.08338 0.0
C1733 C 0.50327 0.39087 0.06498 0.0
C1734 C 0.52165 0.36589 0.09795 0.0
C1735 C 0.51693 0.34533 0.1024 0.0
C1736 C 0.52624 0.32876 0.09247 0.0
C1737 C 0.54102 0.33345 0.07879 0.0
C1738 C 0.54561 0.35386 0.07431 0.0
H1739 H 0.49449 0.39781 0.05366 0.0
H1740 H 0.50282 0.37381 0.06025 0.0
H1741 H 0.49614 0.39322 0.0798 0.0
H1742 H 0.51406 0.37833 0.10554 0.0
H1743 H 0.50561 0.34236 0.11312 0.0
H1744 H 0.6541 0.18089 0.24572 0.0
H1745 H 0.62915 0.18752 0.22064 0.0
H1746 H 0.65545 0.25105 0.22234 0.0
H1747 H 0.68099 0.24395 0.24634 0.0
H1748 H 0.60174 0.21372 0.2236 0.0
H1749 H 0.65084 0.23456 0.16251 0.0
H1750 H 0.65941 0.2231 0.18419 0.0
H1751 H 0.65725 0.25075 0.18597 0.0
C1752 C 0.65471 0.19609 0.24034 0.0
C1753 C 0.66945 0.21189 0.24781 0.0
C1754 C 0.64039 0.19995 0.22619 0.0
C1755 C 0.64056 0.21971 0.21933 0.0
C1756 C 0.65525 0.23553 0.22696 0.0
H1757 H 0.53994 0.2668 0.16234 0.0
H1758 H 0.56476 0.25825 0.18645 0.0
C1759 C 0.66969 0.23157 0.24086 0.0
C1760 C 0.62505 0.224 0.20473 0.0
H1761 H 0.61792 0.24347 0.15973 0.0
C1762 C 0.60527 0.22007 0.20954 0.0
C1763 C 0.62961 0.23202 0.18624 0.0
C1764 C 0.65042 0.23514 0.17931 0.0
C1765 C 0.58996 0.22422 0.19656 0.0
C1766 C 0.59456 0.23319 0.17856 0.0
C1767 C 0.61434 0.23685 0.17363 0.0
C1768 C 0.57919 0.23832 0.1642 0.0
C1769 C 0.56904 0.21845 0.20209 0.0
C1770 C 0.57934 0.23054 0.14356 0.0
C1771 C 0.56552 0.23582 0.12971 0.0
C1772 C 0.55105 0.24886 0.13621 0.0
C1773 C 0.55078 0.25656 0.1569 0.0
C1774 C 0.56488 0.25154 0.17073 0.0
H1775 H 0.56814 0.20617 0.21252 0.0
H1776 H 0.56313 0.23244 0.21001 0.0
H1777 H 0.55956 0.21275 0.18837 0.0
H1778 H 0.59022 0.22034 0.13811 0.0
H1779 H 0.56608 0.22951 0.11391 0.0
H1780 H 0.4876 0.04947 0.98971 0.0
H1781 H 0.49803 0.08344 0.00955 0.0
H1782 H 0.45788 0.11272 0.97347 0.0
H1783 H 0.4472 0.07866 0.95416 0.0
H1784 H 0.51224 0.12475 0.00272 0.0
H1785 H 0.43643 0.12003 0.03083 0.0
H1786 H 0.44613 0.09827 0.01632 0.0
H1787 H 0.43747 0.11896 0.00371 0.0
C1788 C 0.48166 0.06338 0.98562 0.0
C1789 C 0.46673 0.0617 0.97049 0.0
C1790 C 0.48748 0.0827 0.99698 0.0
C1791 C 0.47839 0.10051 0.99327 0.0
C1792 C 0.46482 0.09911 0.97682 0.0
H1793 H 0.50218 0.22857 0.05033 0.0
H1794 H 0.50112 0.19593 0.02764 0.0
C1795 C 0.45889 0.07979 0.96565 0.0
C1796 C 0.48132 0.1198 0.00791 0.0
H1797 H 0.45664 0.15143 0.04092 0.0
C1798 C 0.50012 0.13062 0.01111 0.0
C1799 C 0.46557 0.12712 0.01922 0.0
C1800 C 0.4453 0.11541 0.01755 0.0
C1801 C 0.50348 0.14889 0.02497 0.0
C1802 C 0.48753 0.15668 0.03562 0.0
C1803 C 0.46884 0.14558 0.03267 0.0
C1804 C 0.48967 0.17635 0.04985 0.0
C1805 C 0.52413 0.1594 0.02833 0.0
C1806 C 0.48328 0.17636 0.06983 0.0
C1807 C 0.48361 0.19506 0.08276 0.0
C1808 C 0.49038 0.21417 0.07599 0.0
C1809 C 0.49709 0.21411 0.0561 0.0
C1810 C 0.49662 0.19541 0.04313 0.0
H1811 H 0.5352 0.14836 0.02405 0.0
H1812 H 0.52615 0.17232 0.01871 0.0
H1813 H 0.52703 0.16606 0.04444 0.0
H1814 H 0.47776 0.16187 0.07534 0.0
H1815 H 0.47834 0.19457 0.09798 0.0
H1816 H 0.24324 0.31541 0.76194 0.0
H1817 H 0.27013 0.34326 0.76148 0.0
H1818 H 0.24429 0.36137 0.70701 0.0
H1819 H 0.21745 0.33308 0.70743 0.0
H1820 H 0.28589 0.36324 0.70719 0.0
H1821 H 0.25991 0.40418 0.778 0.0
H1822 H 0.26456 0.37776 0.78042 0.0
H1823 H 0.24534 0.38274 0.76317 0.0
C1824 C 0.24361 0.32514 0.7497 0.0
C1825 C 0.22843 0.32234 0.73477 0.0
C1826 C 0.25881 0.3411 0.74951 0.0
C1827 C 0.25893 0.35471 0.73451 0.0
C1828 C 0.24437 0.35114 0.71882 0.0
H1829 H 0.33101 0.47538 0.75414 0.0
H1830 H 0.30322 0.44846 0.74701 0.0
C1831 C 0.22916 0.33501 0.71898 0.0
C1832 C 0.27376 0.37317 0.73592 0.0
H1833 H 0.29181 0.41633 0.76788 0.0
C1834 C 0.2871 0.37497 0.72035 0.0
C1835 C 0.27505 0.38872 0.7529 0.0
C1836 C 0.26033 0.38843 0.76948 0.0
C1837 C 0.30226 0.39141 0.72175 0.0
C1838 C 0.30431 0.4062 0.73937 0.0
C1839 C 0.29041 0.40488 0.75449 0.0
C1840 C 0.32115 0.42265 0.74285 0.0
C1841 C 0.3159 0.39278 0.70433 0.0
C1842 C 0.34045 0.41709 0.7432 0.0
C1843 C 0.35633 0.43239 0.74721 0.0
C1844 C 0.3533 0.45365 0.75123 0.0
C1845 C 0.33391 0.45919 0.75111 0.0
C1846 C 0.31801 0.44382 0.74699 0.0
H1847 H 0.30881 0.38491 0.68984 0.0
H1848 H 0.3207 0.40928 0.70236 0.0
H1849 H 0.32912 0.38483 0.70743 0.0
H1850 H 0.34325 0.40084 0.74065 0.0
H1851 H 0.371 0.42747 0.74732 0.0
H1852 H 0.20343 0.6482 0.78344 0.0
H1853 H 0.22912 0.62488 0.78746 0.0
H1854 H 0.27314 0.67775 0.79209 0.0
H1855 H 0.24746 0.70088 0.78738 0.0
H1856 H 0.2815 0.64572 0.76389 0.0
H1857 H 0.26255 0.61474 0.83628 0.0
H1858 H 0.24255 0.61182 0.81782 0.0
H1859 H 0.25264 0.63754 0.82849 0.0
C1860 C 0.2186 0.65476 0.78552 0.0
C1861 C 0.22354 0.67626 0.78509 0.0
C1862 C 0.23324 0.64151 0.78802 0.0
C1863 C 0.25308 0.64957 0.79033 0.0
C1864 C 0.25794 0.67118 0.79047 0.0
H1865 H 0.3655 0.59882 0.79304 0.0
H1866 H 0.33845 0.6208 0.79573 0.0
C1867 C 0.2433 0.6844 0.78793 0.0
C1868 C 0.26888 0.63538 0.79086 0.0
H1869 H 0.2867 0.59814 0.81686 0.0
C1870 C 0.28269 0.63543 0.77556 0.0
C1871 C 0.27034 0.62179 0.80598 0.0
C1872 C 0.25634 0.62153 0.82319 0.0
C1873 C 0.29779 0.62219 0.77484 0.0
C1874 C 0.29936 0.60872 0.79002 0.0
C1875 C 0.28548 0.60849 0.80525 0.0
C1876 C 0.3156 0.59509 0.79038 0.0
C1877 C 0.31176 0.62247 0.75759 0.0
C1878 C 0.31174 0.57324 0.7873 0.0
C1879 C 0.32724 0.56054 0.78582 0.0
C1880 C 0.34687 0.5695 0.78748 0.0
C1881 C 0.3506 0.59137 0.7915 0.0
C1882 C 0.33514 0.604 0.79298 0.0
H1883 H 0.30571 0.62963 0.74464 0.0
H1884 H 0.32572 0.63182 0.76305 0.0
H1885 H 0.31516 0.60642 0.75202 0.0
H1886 H 0.29675 0.56605 0.78537 0.0
H1887 H 0.32384 0.54376 0.78278 0.0
H1888 H 0.90814 0.49791 0.44581 0.0
H1889 H 0.87874 0.47552 0.45337 0.0
H1890 H 0.90385 0.471 0.51283 0.0
H1891 H 0.93312 0.49336 0.5052 0.0
H1892 H 0.87559 0.43519 0.46328 0.0
H1893 H 0.84952 0.48869 0.52593 0.0
H1894 H 0.86785 0.49718 0.50872 0.0
H1895 H 0.87462 0.48375 0.52972 0.0
C1896 C 0.90729 0.49202 0.46042 0.0
C1897 C 0.9227 0.49734 0.475 0.0
C1898 C 0.89053 0.47936 0.46478 0.0
C1899 C 0.88893 0.47195 0.48383 0.0
C1900 C 0.90453 0.47699 0.49825 0.0
H1901 H 0.82032 0.36602 0.51993 0.0
H1902 H 0.8451 0.392 0.50977 0.0
C1903 C 0.92124 0.48963 0.49388 0.0
C1904 C 0.8713 0.45831 0.48842 0.0
H1905 H 0.8353 0.45312 0.5228 0.0
C1906 C 0.86666 0.43921 0.47617 0.0
C1907 C 0.85945 0.46371 0.50503 0.0
C1908 C 0.86296 0.48454 0.51799 0.0
C1909 C 0.85102 0.42498 0.48061 0.0
C1910 C 0.83991 0.42984 0.49794 0.0
C1911 C 0.84398 0.44932 0.50967 0.0
C1912 C 0.82466 0.41447 0.50462 0.0
C1913 C 0.84657 0.40479 0.46676 0.0
C1914 C 0.80498 0.41876 0.50579 0.0
C1915 C 0.79065 0.40391 0.51173 0.0
C1916 C 0.79583 0.38456 0.51674 0.0
C1917 C 0.8157 0.38064 0.51604 0.0
C1918 C 0.82992 0.39544 0.51011 0.0
H1919 H 0.85238 0.40607 0.4514 0.0
H1920 H 0.85365 0.39223 0.47327 0.0
H1921 H 0.83051 0.40012 0.46519 0.0
H1922 H 0.80065 0.43346 0.50178 0.0
H1923 H 0.77553 0.40749 0.51215 0.0
H1924 H 0.77165 0.81052 0.7673 0.0
H1925 H 0.7476 0.83578 0.76394 0.0
H1926 H 0.75908 0.86074 0.82676 0.0
H1927 H 0.78394 0.83633 0.82968 0.0
H1928 H 0.71396 0.84247 0.78232 0.0
H1929 H 0.76695 0.91306 0.80002 0.0
H1930 H 0.77472 0.88717 0.79539 0.0
H1931 H 0.76597 0.89642 0.81986 0.0
C1932 C 0.76918 0.82162 0.78026 0.0
C1933 C 0.77977 0.82168 0.79867 0.0
C1934 C 0.75533 0.83591 0.77841 0.0
C1935 C 0.75174 0.85046 0.79499 0.0
C1936 C 0.7619 0.85006 0.81359 0.0
H1937 H 0.67202 0.94919 0.8053 0.0
H1938 H 0.68886 0.91896 0.81279 0.0
C1939 C 0.77593 0.83596 0.81535 0.0
C1940 C 0.73754 0.86613 0.79269 0.0
H1941 H 0.7334 0.91864 0.79695 0.0
C1942 C 0.71823 0.85912 0.78557 0.0
C1943 C 0.74309 0.88791 0.79681 0.0
C1944 C 0.76385 0.89662 0.80324 0.0
C1945 C 0.70442 0.87327 0.78242 0.0
C1946 C 0.71001 0.89492 0.78664 0.0
C1947 C 0.72914 0.90196 0.79402 0.0
C1948 C 0.69688 0.91067 0.78178 0.0
C1949 C 0.684 0.86515 0.77441 0.0
C1950 C 0.69545 0.91562 0.76182 0.0
C1951 C 0.68606 0.93291 0.75754 0.0
C1952 C 0.67778 0.9455 0.77314 0.0
C1953 C 0.67807 0.93968 0.79293 0.0
C1954 C 0.68776 0.9225 0.79726 0.0
H1955 H 0.68119 0.84793 0.77413 0.0
H1956 H 0.67293 0.87274 0.78388 0.0
H1957 H 0.68198 0.86918 0.75872 0.0
H1958 H 0.70251 0.90675 0.74971 0.0
H1959 H 0.68606 0.93699 0.74215 0.0
H1960 H 0.5918 0.50029 0.97178 0.0
H1961 H 0.62455 0.5187 0.97826 0.0
H1962 H 0.60961 0.5384 0.03991 0.0
H1963 H 0.5762 0.52105 0.03275 0.0
H1964 H 0.62395 0.57033 0.02458 0.0
H1965 H 0.67463 0.51085 0.00491 0.0
H1966 H 0.65774 0.51091 0.98389 0.0
H1967 H 0.64878 0.50389 0.00782 0.0
C1968 C 0.59568 0.50827 0.9868 0.0
C1969 C 0.58146 0.50956 0.00168 0.0
C1970 C 0.61453 0.51859 0.99063 0.0
C1971 C 0.61983 0.5299 0.00968 0.0
C1972 C 0.60599 0.52984 0.02507 0.0
H1973 H 0.73825 0.59883 0.02664 0.0
H1974 H 0.71021 0.57241 0.028 0.0
C1975 C 0.58696 0.51977 0.02109 0.0
C1976 C 0.63867 0.54387 0.01253 0.0
H1977 H 0.6874 0.54676 0.00163 0.0
C1978 C 0.63786 0.565 0.01989 0.0
C1979 C 0.65706 0.5371 0.0068 0.0
C1980 C 0.65962 0.51439 0.00065 0.0
C1981 C 0.65453 0.5796 0.02073 0.0
C1982 C 0.67247 0.5732 0.01323 0.0
C1983 C 0.67359 0.55188 0.0069 0.0
C1984 C 0.68995 0.58849 0.01141 0.0
C1985 C 0.65264 0.60177 0.02981 0.0
C1986 C 0.68821 0.60596 0.00098 0.0
C1987 C 0.70409 0.62117 1.00045 0.0
C1988 C 0.72231 0.61904 0.00984 0.0
C1989 C 0.72443 0.60094 0.01924 0.0
C1990 C 0.70837 0.58585 0.02007 0.0
H1991 H 0.64084 0.60236 0.04102 0.0
H1992 H 0.66659 0.6092 0.03748 0.0
H1993 H 0.64864 0.61108 0.01757 0.0
H1994 H 0.67444 0.60803 0.99347 0.0
H1995 H 0.70201 0.63476 0.99282 0.0
H1996 H 0.30888 0.68502 0.24551 0.0
H1997 H 0.28772 0.6532 0.2507 0.0
H1998 H 0.24613 0.69124 0.28059 0.0
H1999 H 0.26721 0.72286 0.27517 0.0
H2000 H 0.26918 0.63673 0.28543 0.0
H2001 H 0.21557 0.65934 0.22977 0.0
H2002 H 0.24053 0.67139 0.23295 0.0
H2003 H 0.22247 0.67893 0.25084 0.0
C2004 C 0.29554 0.6864 0.25379 0.0
C2005 C 0.28954 0.70618 0.25998 0.0
C2006 C 0.28341 0.66833 0.25661 0.0
C2007 C 0.26516 0.66992 0.26561 0.0
C2008 C 0.25998 0.68969 0.27328 0.0
H2009 H 0.1629 0.58434 0.28217 0.0
H2010 H 0.18641 0.61487 0.27968 0.0
C2011 C 0.27205 0.70768 0.2704 0.0
C2012 C 0.25083 0.65119 0.26555 0.0
H2013 H 0.20553 0.62992 0.24652 0.0
C2014 C 0.2553 0.63516 0.27687 0.0
C2015 C 0.23276 0.6492 0.2543 0.0
C2016 C 0.22755 0.66551 0.24111 0.0
C2017 C 0.24193 0.61738 0.27766 0.0
C2018 C 0.22379 0.61545 0.26649 0.0
C2019 C 0.21941 0.63145 0.25508 0.0
C2020 C 0.2091 0.59702 0.26662 0.0
C2021 C 0.24712 0.60108 0.29085 0.0
C2022 C 0.21377 0.57694 0.25938 0.0
C2023 C 0.20035 0.55948 0.26072 0.0
C2024 C 0.18193 0.56177 0.26922 0.0
C2025 C 0.17693 0.58202 0.27554 0.0
C2026 C 0.19039 0.59948 0.2742 0.0
H2027 H 0.25906 0.60728 0.30222 0.0
H2028 H 0.23412 0.59519 0.29898 0.0
H2029 H 0.25224 0.58769 0.28114 0.0
H2030 H 0.22794 0.57472 0.25302 0.0
H2031 H 0.20471 0.54415 0.25569 0.0
H2032 H 0.96593 0.52677 0.05377 0.0
H2033 H 0.94095 0.54894 0.04384 0.0
H2034 H 0.89561 0.49893 0.04916 0.0
H2035 H 0.92065 0.47705 0.0595 0.0
H2036 H 0.91422 0.54166 0.01075 0.0
H2037 H 0.87522 0.54839 0.08335 0.0
H2038 H 0.89917 0.53904 0.08129 0.0
H2039 H 0.87758 0.52208 0.07246 0.0
C2040 C 0.95057 0.52076 0.05305 0.0
C2041 C 0.94504 0.50047 0.05767 0.0
C2042 C 0.93636 0.53329 0.04729 0.0
C2043 C 0.91637 0.52572 0.04606 0.0
C2044 C 0.91088 0.50528 0.05043 0.0
H2045 H 0.81183 0.58685 0.01753 0.0
H2046 H 0.83406 0.56042 0.02335 0.0
C2047 C 0.92511 0.49278 0.05623 0.0
C2048 C 0.90138 0.5391 0.03978 0.0
H2049 H 0.86125 0.56299 0.05599 0.0
C2050 C 0.90263 0.54632 0.02064 0.0
C2051 C 0.88618 0.54506 0.05264 0.0
C2052 C 0.88447 0.53842 0.07365 0.0
C2053 C 0.88915 0.55937 0.01402 0.0
C2054 C 0.87417 0.56565 0.02703 0.0
C2055 C 0.87268 0.5581 0.04601 0.0
C2056 C 0.86067 0.58104 0.02181 0.0
C2057 C 0.89097 0.5662 0.9931 0.0
C2058 C 0.86823 0.60137 0.01891 0.0
C2059 C 0.85561 0.61645 0.0156 0.0
C2060 C 0.83511 0.6116 0.0152 0.0
C2061 C 0.82754 0.59109 0.01764 0.0
C2062 C 0.84022 0.57598 0.02103 0.0
H2063 H 0.89904 0.55533 0.98298 0.0
H2064 H 0.87631 0.56719 0.98594 0.0
H2065 H 0.89929 0.58189 0.99433 0.0
H2066 H 0.88393 0.60577 0.01984 0.0
H2067 H 0.86197 0.63209 0.01386 0.0
H2068 H 0.05032 0.97393 0.00765 0.0
H2069 H 0.08143 0.95875 1.00049 0.0
H2070 H 0.11055 0.00181 0.04893 0.0
H2071 H 0.07938 0.01648 0.05625 0.0
H2072 H 0.12143 0.9733 0.99248 0.0
H2073 H 0.11438 0.94388 0.0676 0.0
H2074 H 0.09461 0.95481 0.05538 0.0
H2075 H 0.1144 0.9717 0.06862 0.0
C2076 C 0.06359 0.98054 0.01619 0.0
C2077 C 0.06267 0.99634 0.0324 0.0
C2078 C 0.08128 0.97184 0.01222 0.0
C2079 C 0.09822 0.97887 0.02445 0.0
C2080 C 0.0976 0.99591 0.03952 0.0
H2081 H 0.21005 0.93281 0.04694 0.0
H2082 H 0.18274 0.95408 0.04431 0.0
C2083 C 0.07992 0.00443 0.04357 0.0
C2084 C 0.1158 0.96706 0.0231 0.0
H2085 H 0.14382 0.93872 0.05066 0.0
C2086 C 0.12633 0.96569 0.00515 0.0
C2087 C 0.12204 0.95691 0.03958 0.0
C2088 C 0.11069 0.95667 0.05882 0.0
C2089 C 0.14329 0.95496 0.00352 0.0
C2090 C 0.1497 0.9452 0.02017 0.0
C2091 C 0.13901 0.94638 0.03798 0.0
C2092 C 0.1674 0.93355 0.01969 0.0
C2093 C 0.15446 0.9545 0.98418 0.0
C2094 C 0.16804 0.91503 0.00652 0.0
C2095 C 0.18368 0.90275 0.00801 0.0
C2096 C 0.19893 0.90872 0.02278 0.0
C2097 C 0.19857 0.92768 0.03541 0.0
C2098 C 0.18295 0.9399 0.03393 0.0
H2099 H 0.15029 0.96656 0.97469 0.0
H2100 H 0.17054 0.95699 0.98758 0.0
H2101 H 0.15116 0.93896 0.97518 0.0
H2102 H 0.15605 0.90963 0.99565 0.0
H2103 H 0.18345 0.88822 0.99808 0.0
loop_
_geom_bond_atom_site_label_1
_geom_bond_atom_site_label_2
_geom_bond_distance
_geom_bond_site_symmetry_2
_ccdc_geom_bond_type
C0 N1 1.317 . S
C0 N2 1.348 1_465 S
C0 C3 1.485 . S
N1 C0 1.317 . S
N1 N5 1.370 1_565 S
N2 C0 1.348 1_645 S
N2 C4 1.346 . S
C3 C0 1.485 . S
C3 H7 0.960 . S
C3 H8 0.961 . S
C3 H9 0.960 . S
C4 N2 1.346 . S
C4 N5 1.307 1_655 S
C4 C6 1.486 . S
N5 N1 1.370 1_545 S
N5 C4 1.307 1_455 S
C6 C4 1.486 . S
C6 H10 0.960 . S
C6 H11 0.960 . S
C6 H12 0.959 . S
H7 C3 0.960 . S
H8 C3 0.961 . S
H9 C3 0.960 . S
H10 C6 0.960 . S
H11 C6 0.960 . S
H12 C6 0.959 . S
C13 N14 1.317 . S
C13 N15 1.348 . S
C13 C16 1.485 . S
N14 C13 1.317 . S
N14 N18 1.370 . S
N15 C13 1.348 . S
N15 C17 1.346 . S
C16 C13 1.485 . S
C16 H20 0.960 . S
C16 H21 0.961 . S
C16 H22 0.960 . S
C17 N15 1.346 . S
C17 N18 1.307 . S
C17 C19 1.486 . S
N18 N14 1.370 . S
N18 C17 1.307 . S
C19 C17 1.486 . S
C19 H23 0.960 . S
C19 H24 0.960 . S
C19 H25 0.959 . S
H20 C16 0.960 . S
H21 C16 0.961 . S
H22 C16 0.960 . S
H23 C19 0.960 . S
H24 C19 0.960 . S
H25 C19 0.959 . S
C26 N27 1.317 . S
C26 N28 1.348 . S
C26 C29 1.485 . S
N27 C26 1.317 . S
N27 N31 1.370 . S
N28 C26 1.348 . S
N28 C30 1.346 . S
C29 C26 1.485 . S
C29 H33 0.960 . S
C29 H34 0.961 . S
C29 H35 0.960 . S
C30 N28 1.346 . S
C30 N31 1.307 . S
C30 C32 1.486 . S
N31 N27 1.370 . S
N31 C30 1.307 . S
C32 C30 1.486 . S
C32 H36 0.960 . S
C32 H37 0.960 . S
C32 H38 0.959 . S
H33 C29 0.960 . S
H34 C29 0.961 . S
H35 C29 0.960 . S
H36 C32 0.960 . S
H37 C32 0.960 . S
H38 C32 0.959 . S
C39 N40 1.317 . S
C39 N41 1.348 . S
C39 C42 1.485 . S
N40 C39 1.317 . S
N40 N44 1.370 . S
N41 C39 1.348 . S
N41 C43 1.346 . S
C42 C39 1.485 . S
C42 H46 0.960 . S
C42 H47 0.961 . S
C42 H48 0.960 . S
C43 N41 1.346 . S
C43 N44 1.307 . S
C43 C45 1.486 . S
N44 N40 1.370 . S
N44 C43 1.307 . S
C45 C43 1.486 . S
C45 H49 0.960 . S
C45 H50 0.960 . S
C45 H51 0.959 . S
H46 C42 0.960 . S
H47 C42 0.961 . S
H48 C42 0.960 . S
H49 C45 0.960 . S
H50 C45 0.960 . S
H51 C45 0.959 . S
C52 N53 1.317 . S
C52 N54 1.348 . S
C52 C55 1.485 . S
N53 C52 1.317 . S
N53 N57 1.370 . S
N54 C52 1.348 . S
N54 C56 1.346 . S
C55 C52 1.485 . S
C55 H59 0.960 . S
C55 H60 0.961 . S
C55 H61 0.960 . S
C56 N54 1.346 . S
C56 N57 1.307 . S
C56 C58 1.486 1_565 S
N57 N53 1.370 . S
N57 C56 1.307 . S
C58 C56 1.486 1_545 S
C58 H62 0.960 . S
C58 H63 0.960 . S
C58 H64 0.959 . S
H59 C55 0.960 . S
H60 C55 0.961 . S
H61 C55 0.960 . S
H62 C58 0.960 . S
H63 C58 0.960 . S
H64 C58 0.959 . S
C65 N66 1.317 . S
C65 N67 1.348 . S
C65 C68 1.485 . S
N66 C65 1.317 . S
N66 N70 1.370 . S
N67 C65 1.348 . S
N67 C69 1.346 . S
C68 C65 1.485 . S
C68 H72 0.960 . S
C68 H73 0.961 . S
C68 H74 0.960 . S
C69 N67 1.346 . S
C69 N70 1.307 . S
C69 C71 1.486 . S
N70 N66 1.370 . S
N70 C69 1.307 . S
C71 C69 1.486 . S
C71 H75 0.960 . S
C71 H76 0.960 . S
C71 H77 0.959 . S
H72 C68 0.960 . S
H73 C68 0.961 . S
H74 C68 0.960 . S
H75 C71 0.960 . S
H76 C71 0.960 . S
H77 C71 0.959 . S
C78 N79 1.317 . S
C78 N80 1.348 . S
C78 C81 1.485 . S
N79 C78 1.317 . S
N79 N83 1.370 . S
N80 C78 1.348 . S
N80 C82 1.346 . S
C81 C78 1.485 . S
C81 H85 0.960 . S
C81 H86 0.961 . S
C81 H87 0.960 . S
C82 N80 1.346 . S
C82 N83 1.307 . S
C82 C84 1.486 . S
N83 N79 1.370 . S
N83 C82 1.307 . S
C84 C82 1.486 . S
C84 H88 0.960 . S
C84 H89 0.960 . S
C84 H90 0.959 . S
H85 C81 0.960 . S
H86 C81 0.961 . S
H87 C81 0.960 . S
H88 C84 0.960 . S
H89 C84 0.960 . S
H90 C84 0.959 . S
C91 N92 1.317 . S
C91 N93 1.348 . S
C91 C94 1.485 . S
N92 C91 1.317 . S
N92 N96 1.370 . S
N93 C91 1.348 . S
N93 C95 1.346 . S
C94 C91 1.485 . S
C94 H98 0.960 . S
C94 H99 0.961 . S
C94 H100 0.960 . S
C95 N93 1.346 . S
C95 N96 1.307 . S
C95 C97 1.486 . S
N96 N92 1.370 . S
N96 C95 1.307 . S
C97 C95 1.486 . S
C97 H101 0.960 . S
C97 H102 0.960 . S
C97 H103 0.959 . S
H98 C94 0.960 . S
H99 C94 0.961 . S
H100 C94 0.960 . S
H101 C97 0.960 . S
H102 C97 0.960 . S
H103 C97 0.959 . S
C104 N105 1.317 . S
C104 N106 1.348 . S
C104 C107 1.485 . S
N105 C104 1.317 . S
N105 N109 1.370 . S
N106 C104 1.348 . S
N106 C108 1.346 . S
C107 C104 1.485 . S
C107 H111 0.960 . S
C107 H112 0.961 . S
C107 H113 0.960 . S
C108 N106 1.346 . S
C108 N109 1.307 . S
C108 C110 1.486 . S
N109 N105 1.370 . S
N109 C108 1.307 . S
C110 C108 1.486 . S
C110 H114 0.960 . S
C110 H115 0.960 . S
C110 H116 0.959 . S
H111 C107 0.960 . S
H112 C107 0.961 . S
H113 C107 0.960 . S
H114 C110 0.960 . S
H115 C110 0.960 . S
H116 C110 0.959 . S
C117 N118 1.317 . S
C117 N119 1.348 . S
C117 C120 1.484 . S
N118 C117 1.317 . S
N118 N122 1.370 . S
N119 C117 1.348 . S
N119 C121 1.346 . S
C120 C117 1.484 . S
C120 H124 0.960 . S
C120 H125 0.963 1_565 S
C120 H126 0.960 1_565 S
C121 N119 1.346 . S
C121 N122 1.307 . S
C121 C123 1.486 . S
N122 N118 1.370 . S
N122 C121 1.307 . S
C123 C121 1.486 . S
C123 H127 0.960 . S
C123 H128 0.960 . S
C123 H129 0.959 . S
H124 C120 0.960 . S
H125 C120 0.963 1_545 S
H126 C120 0.960 1_545 S
H127 C123 0.960 . S
H128 C123 0.960 . S
H129 C123 0.959 . S
C130 N131 1.317 . S
C130 N132 1.348 . S
C130 C133 1.485 . S
N131 C130 1.317 . S
N131 N135 1.370 . S
N132 C130 1.348 . S
N132 C134 1.346 . S
C133 C130 1.485 . S
C133 H137 0.960 . S
C133 H138 0.961 . S
C133 H139 0.960 . S
C134 N132 1.346 . S
C134 N135 1.307 . S
C134 C136 1.486 . S
N135 N131 1.370 . S
N135 C134 1.307 . S
C136 C134 1.486 . S
C136 H140 0.960 . S
C136 H141 0.960 . S
C136 H142 0.959 . S
H137 C133 0.960 . S
H138 C133 0.961 . S
H139 C133 0.960 . S
H140 C136 0.960 . S
H141 C136 0.960 . S
H142 C136 0.959 . S
C143 N144 1.317 . S
C143 N145 1.348 . S
C143 C146 1.485 . S
N144 C143 1.317 . S
N144 N148 1.370 . S
N145 C143 1.348 . S
N145 C147 1.346 . S
C146 C143 1.485 . S
C146 H150 0.960 . S
C146 H151 0.961 . S
C146 H152 0.960 . S
C147 N145 1.346 . S
C147 N148 1.307 . S
C147 C149 1.486 . S
N148 N144 1.370 . S
N148 C147 1.307 . S
C149 C147 1.486 . S
C149 H153 0.960 . S
C149 H154 0.960 . S
C149 H155 0.959 . S
H150 C146 0.960 . S
H151 C146 0.961 . S
H152 C146 0.960 . S
H153 C149 0.960 . S
H154 C149 0.960 . S
H155 C149 0.959 . S
C156 N157 1.317 . S
C156 N158 1.348 . S
C156 C159 1.485 . S
N157 C156 1.317 . S
N157 N161 1.370 . S
N158 C156 1.348 . S
N158 C160 1.346 . S
C159 C156 1.485 . S
C159 H163 0.960 . S
C159 H164 0.961 . S
C159 H165 0.960 . S
C160 N158 1.346 . S
C160 N161 1.307 . S
C160 C162 1.486 . S
N161 N157 1.370 . S
N161 C160 1.307 . S
C162 C160 1.486 . S
C162 H166 0.960 . S
C162 H167 0.960 . S
C162 H168 0.959 . S
H163 C159 0.960 . S
H164 C159 0.961 . S
H165 C159 0.960 . S
H166 C162 0.960 . S
H167 C162 0.960 . S
H168 C162 0.959 . S
C169 N170 1.317 . S
C169 N171 1.348 . S
C169 C172 1.485 . S
N170 C169 1.317 . S
N170 N174 1.370 . S
N171 C169 1.348 . S
N171 C173 1.346 . S
C172 C169 1.485 . S
C172 H176 0.960 . S
C172 H177 0.961 . S
C172 H178 0.960 . S
C173 N171 1.346 . S
C173 N174 1.307 . S
C173 C175 1.486 . S
N174 N170 1.370 . S
N174 C173 1.307 . S
C175 C173 1.486 . S
C175 H179 0.960 . S
C175 H180 0.960 . S
C175 H181 0.959 . S
H176 C172 0.960 . S
H177 C172 0.961 . S
H178 C172 0.960 . S
H179 C175 0.960 . S
H180 C175 0.960 . S
H181 C175 0.959 . S
C182 N183 1.317 . S
C182 N184 1.348 . S
C182 C185 1.485 . S
N183 C182 1.317 . S
N183 N187 1.370 . S
N184 C182 1.348 . S
N184 C186 1.346 . S
C185 C182 1.485 . S
C185 H189 0.960 . S
C185 H190 0.961 . S
C185 H191 0.960 . S
C186 N184 1.346 . S
C186 N187 1.307 . S
C186 C188 1.486 . S
N187 N183 1.370 . S
N187 C186 1.307 . S
C188 C186 1.486 . S
C188 H192 0.960 . S
C188 H193 0.960 . S
C188 H194 0.959 . S
H189 C185 0.960 . S
H190 C185 0.961 . S
H191 C185 0.960 . S
H192 C188 0.960 . S
H193 C188 0.960 . S
H194 C188 0.959 . S
C195 N196 1.317 . S
C195 N197 1.348 . S
C195 C198 1.485 1_545 S
N196 C195 1.317 . S
N196 N200 1.370 . S
N197 C195 1.348 . S
N197 C199 1.346 . S
C198 C195 1.485 1_565 S
C198 H202 0.951 1_565 S
C198 H203 0.961 . S
C198 H204 0.960 . S
C199 N197 1.346 . S
C199 N200 1.307 . S
C199 C201 1.486 1_556 S
N200 N196 1.370 . S
N200 C199 1.307 . S
C201 C199 1.486 1_554 S
C201 H205 0.960 . S
C201 H206 0.960 . S
C201 H207 0.959 . S
H202 C198 0.951 1_545 S
H203 C198 0.961 . S
H204 C198 0.960 . S
H205 C201 0.960 . S
H206 C201 0.960 . S
H207 C201 0.959 . S
Mg208 O209 2.028 . S
Mg208 O215 1.986 1_554 S
Mg208 O217 2.114 . S
Mg208 O218 2.251 . S
Mg208 O221 2.010 . S
O209 Mg208 2.028 . S
O209 C212 1.250 . S
O210 Mg211 2.028 . S
O210 C212 1.248 . S
Mg211 O210 2.028 . S
Mg211 O216 2.032 1_554 S
Mg211 O218 2.079 . S
C212 O209 1.250 . S
C212 O210 1.248 . S
C213 O214 1.264 . S
C213 O221 1.249 . S
O214 C213 1.264 . S
O215 Mg208 1.986 1_556 S
O215 C219 1.246 . S
O216 Mg211 2.032 1_556 S
O216 C219 1.259 . S
O217 Mg208 2.114 . S
O217 C220 1.252 . S
O218 Mg208 2.251 . S
O218 Mg211 2.079 . S
O218 C220 1.273 . S
C219 O215 1.246 . S
C219 O216 1.259 . S
C220 O217 1.252 . S
C220 O218 1.273 . S
O221 Mg208 2.010 . S
O221 C213 1.249 . S
Mg222 O223 2.028 . S
Mg222 O229 1.986 . S
Mg222 O231 2.114 . S
Mg222 O232 2.251 . S
Mg222 O235 2.010 . S
O223 Mg222 2.028 . S
O223 C226 1.250 . S
O224 Mg225 2.028 . S
O224 C226 1.248 . S
Mg225 O224 2.028 . S
Mg225 O230 2.032 . S
Mg225 O232 2.079 . S
C226 O223 1.250 . S
C226 O224 1.248 . S
C227 O228 1.264 . S
C227 O235 1.249 . S
O228 C227 1.264 . S
O229 Mg222 1.986 . S
O229 C233 1.246 . S
O230 Mg225 2.032 . S
O230 C233 1.259 . S
O231 Mg222 2.114 . S
O231 C234 1.252 . S
O232 Mg222 2.251 . S
O232 Mg225 2.079 . S
O232 C234 1.273 . S
C233 O229 1.246 . S
C233 O230 1.259 . S
C234 O231 1.252 . S
C234 O232 1.273 . S
O235 Mg222 2.010 . S
O235 C227 1.249 . S
Mg236 O237 2.028 . S
Mg236 O243 1.986 1_554 S
Mg236 O245 2.114 . S
Mg236 O246 2.251 . S
Mg236 O249 2.010 . S
O237 Mg236 2.028 . S
O237 C240 1.250 . S
O238 Mg239 2.028 . S
O238 C240 1.248 . S
Mg239 O238 2.028 . S
Mg239 O244 2.032 1_554 S
Mg239 O246 2.079 . S
C240 O237 1.250 . S
C240 O238 1.248 . S
C241 O242 1.264 . S
C241 O249 1.249 . S
O242 C241 1.264 . S
O243 Mg236 1.986 1_556 S
O243 C247 1.246 . S
O244 Mg239 2.032 1_556 S
O244 C247 1.259 . S
O245 Mg236 2.114 . S
O245 C248 1.252 . S
O246 Mg236 2.251 . S
O246 Mg239 2.079 . S
O246 C248 1.273 . S
C247 O243 1.246 . S
C247 O244 1.259 . S
C248 O245 1.252 . S
C248 O246 1.273 . S
O249 Mg236 2.010 . S
O249 C241 1.249 . S
Mg250 O251 2.028 1_545 S
Mg250 O257 1.986 . S
Mg250 O259 2.114 . S
Mg250 O260 2.234 1_545 S
Mg250 O263 2.010 . S
O251 Mg250 2.028 1_565 S
O251 C254 1.250 . S
O252 Mg253 2.028 . S
O252 C254 1.248 . S
Mg253 O252 2.028 . S
Mg253 O258 2.032 . S
Mg253 O260 2.106 . S
C254 O251 1.250 . S
C254 O252 1.248 . S
C255 O256 1.264 . S
C255 O263 1.249 . S
O256 C255 1.264 . S
O257 Mg250 1.986 . S
O257 C261 1.246 . S
O258 Mg253 2.032 . S
O258 C261 1.259 1_565 S
O259 Mg250 2.114 . S
O259 C262 1.252 . S
O260 Mg250 2.234 1_565 S
O260 Mg253 2.106 . S
O260 C262 1.256 1_565 S
C261 O257 1.246 . S
C261 O258 1.259 1_545 S
C262 O259 1.252 . S
C262 O260 1.256 1_545 S
O263 Mg250 2.010 . S
O263 C255 1.249 . S
Mg264 O265 2.028 . S
Mg264 O271 1.986 . S
Mg264 O273 2.114 . S
Mg264 O274 2.251 . S
Mg264 O277 2.010 . S
O265 Mg264 2.028 . S
O265 C268 1.250 . S
O266 Mg267 2.028 . S
O266 C268 1.248 . S
Mg267 O266 2.028 . S
Mg267 O272 2.032 . S
Mg267 O274 2.079 . S
C268 O265 1.250 . S
C268 O266 1.248 . S
C269 O270 1.264 . S
C269 O277 1.249 . S
O270 C269 1.264 . S
O271 Mg264 1.986 . S
O271 C275 1.246 . S
O272 Mg267 2.032 . S
O272 C275 1.259 . S
O273 Mg264 2.114 . S
O273 C276 1.252 . S
O274 Mg264 2.251 . S
O274 Mg267 2.079 . S
O274 C276 1.273 . S
C275 O271 1.246 . S
C275 O272 1.259 . S
C276 O273 1.252 . S
C276 O274 1.273 . S
O277 Mg264 2.010 . S
O277 C269 1.249 . S
Mg278 O279 2.028 . S
Mg278 O285 1.986 . S
Mg278 O287 2.114 . S
Mg278 O288 2.251 . S
Mg278 O291 2.010 . S
O279 Mg278 2.028 . S
O279 C282 1.250 . S
O280 Mg281 2.028 . S
O280 C282 1.248 . S
Mg281 O280 2.028 . S
Mg281 O286 2.032 . S
Mg281 O288 2.079 . S
C282 O279 1.250 . S
C282 O280 1.248 . S
C283 O284 1.264 . S
C283 O291 1.249 . S
O284 C283 1.264 . S
O285 Mg278 1.986 . S
O285 C289 1.246 . S
O286 Mg281 2.032 . S
O286 C289 1.259 . S
O287 Mg278 2.114 . S
O287 C290 1.252 . S
O288 Mg278 2.251 . S
O288 Mg281 2.079 . S
O288 C290 1.273 . S
C289 O285 1.246 . S
C289 O286 1.259 . S
C290 O287 1.252 . S
C290 O288 1.273 . S
O291 Mg278 2.010 . S
O291 C283 1.249 . S
Mg292 O293 2.028 . S
Mg292 O299 1.986 . S
Mg292 O301 2.114 . S
Mg292 O302 2.251 . S
Mg292 O305 2.010 . S
O293 Mg292 2.028 . S
O293 C296 1.250 . S
O294 Mg295 2.028 . S
O294 C296 1.248 . S
Mg295 O294 2.028 . S
Mg295 O300 2.032 . S
Mg295 O302 2.079 . S
C296 O293 1.250 . S
C296 O294 1.248 . S
C297 O298 1.264 . S
C297 O305 1.249 . S
O298 C297 1.264 . S
O299 Mg292 1.986 . S
O299 C303 1.246 . S
O300 Mg295 2.032 . S
O300 C303 1.259 . S
O301 Mg292 2.114 . S
O301 C304 1.252 . S
O302 Mg292 2.251 . S
O302 Mg295 2.079 . S
O302 C304 1.273 . S
C303 O299 1.246 . S
C303 O300 1.259 . S
C304 O301 1.252 . S
C304 O302 1.273 . S
O305 Mg292 2.010 . S
O305 C297 1.249 . S
Mg306 O307 2.028 . S
Mg306 O313 1.986 1_545 S
Mg306 O315 2.114 . S
Mg306 O316 2.251 . S
Mg306 O319 2.010 . S
O307 Mg306 2.028 . S
O307 C310 1.250 . S
O308 Mg309 2.028 . S
O308 C310 1.248 . S
Mg309 O308 2.028 . S
Mg309 O314 2.032 1_545 S
Mg309 O316 2.079 . S
C310 O307 1.250 . S
C310 O308 1.248 . S
C311 O312 1.264 . S
C311 O319 1.249 . S
O312 C311 1.264 . S
O313 Mg306 1.986 1_565 S
O313 C317 1.246 . S
O314 Mg309 2.032 1_565 S
O314 C317 1.259 . S
O315 Mg306 2.114 . S
O315 C318 1.252 . S
O316 Mg306 2.251 . S
O316 Mg309 2.079 . S
O316 C318 1.273 . S
C317 O313 1.246 . S
C317 O314 1.259 . S
C318 O315 1.252 . S
C318 O316 1.273 . S
O319 Mg306 2.010 . S
O319 C311 1.249 . S
Mg320 O321 2.028 . S
Mg320 O327 1.986 . S
Mg320 O329 2.114 . S
Mg320 O330 2.251 . S
Mg320 O333 2.010 . S
O321 Mg320 2.028 . S
O321 C324 1.250 1_455 S
O322 Mg323 2.028 . S
O322 C324 1.248 . S
Mg323 O322 2.028 . S
Mg323 O328 2.032 . S
Mg323 O330 2.079 1_655 S
C324 O321 1.250 1_655 S
C324 O322 1.248 . S
C325 O326 1.264 . S
C325 O333 1.249 . S
O326 C325 1.264 . S
O327 Mg320 1.986 . S
O327 C331 1.246 . S
O328 Mg323 2.032 . S
O328 C331 1.259 1_655 S
O329 Mg320 2.114 . S
O329 C332 1.252 . S
O330 Mg320 2.251 . S
O330 Mg323 2.079 1_455 S
O330 C332 1.273 . S
C331 O327 1.246 . S
C331 O328 1.259 1_455 S
C332 O329 1.252 . S
C332 O330 1.273 . S
O333 Mg320 2.010 . S
O333 C325 1.249 . S
Mg334 O335 2.028 . S
Mg334 O341 1.986 . S
Mg334 O343 2.114 . S
Mg334 O344 2.251 . S
Mg334 O347 2.010 . S
O335 Mg334 2.028 . S
O335 C338 1.250 . S
O336 Mg337 2.028 . S
O336 C338 1.248 . S
Mg337 O336 2.028 . S
Mg337 O342 2.032 . S
Mg337 O344 2.079 . S
C338 O335 1.250 . S
C338 O336 1.248 . S
C339 O340 1.264 . S
C339 O347 1.249 . S
O340 C339 1.264 . S
O341 Mg334 1.986 . S
O341 C345 1.246 . S
O342 Mg337 2.032 . S
O342 C345 1.259 . S
O343 Mg334 2.114 . S
O343 C346 1.252 . S
O344 Mg334 2.251 . S
O344 Mg337 2.079 . S
O344 C346 1.273 . S
C345 O341 1.246 . S
C345 O342 1.259 . S
C346 O343 1.252 . S
C346 O344 1.273 . S
O347 Mg334 2.010 . S
O347 C339 1.249 . S
Mg348 O349 2.028 . S
Mg348 O355 1.986 . S
Mg348 O357 2.109 1_455 S
Mg348 O358 2.251 . S
Mg348 O361 2.010 1_455 S
O349 Mg348 2.028 . S
O349 C352 1.250 . S
O350 Mg351 2.028 . S
O350 C352 1.248 . S
Mg351 O350 2.028 . S
Mg351 O356 2.032 . S
Mg351 O358 2.079 . S
C352 O349 1.250 . S
C352 O350 1.248 . S
C353 O354 1.264 . S
C353 O361 1.249 . S
O354 C353 1.264 . S
O355 Mg348 1.986 . S
O355 C359 1.246 . S
O356 Mg351 2.032 . S
O356 C359 1.259 . S
O357 Mg348 2.109 1_655 S
O357 C360 1.234 1_655 S
O358 Mg348 2.251 . S
O358 Mg351 2.079 . S
O358 C360 1.273 . S
C359 O355 1.246 . S
C359 O356 1.259 . S
C360 O357 1.234 1_455 S
C360 O358 1.273 . S
O361 Mg348 2.010 1_655 S
O361 C353 1.249 . S
Mg362 O363 2.028 . S
Mg362 O369 1.986 . S
Mg362 O371 2.114 . S
Mg362 O372 2.251 . S
Mg362 O375 2.010 . S
O363 Mg362 2.028 . S
O363 C366 1.250 . S
O364 Mg365 2.028 . S
O364 C366 1.248 . S
Mg365 O364 2.028 . S
Mg365 O370 2.032 . S
Mg365 O372 2.079 . S
C366 O363 1.250 . S
C366 O364 1.248 . S
C367 O368 1.264 . S
C367 O375 1.249 . S
O368 C367 1.264 . S
O369 Mg362 1.986 . S
O369 C373 1.246 . S
O370 Mg365 2.032 . S
O370 C373 1.259 . S
O371 Mg362 2.114 . S
O371 C374 1.252 . S
O372 Mg362 2.251 . S
O372 Mg365 2.079 . S
O372 C374 1.273 . S
C373 O369 1.246 . S
C373 O370 1.259 . S
C374 O371 1.252 . S
C374 O372 1.273 . S
O375 Mg362 2.010 . S
O375 C367 1.249 . S
H376 C384 0.929 . S
H377 C386 0.930 . S
H378 C388 0.930 . S
H379 C391 0.929 . S
H380 C394 0.930 . S
H381 C396 0.960 . S
H382 C396 0.960 . S
H383 C396 0.960 . S
C384 H376 0.929 . S
C384 C385 1.377 . S
C384 C386 1.384 . S
C385 C384 1.377 . S
C385 C391 1.390 . S
C386 H377 0.930 . S
C386 C384 1.384 . S
C386 C387 1.372 . S
C387 C386 1.372 . S
C387 C388 1.400 . S
C387 C392 1.490 . S
C388 H378 0.930 . S
C388 C387 1.400 . S
C388 C391 1.386 . S
H389 C405 0.930 . S
H390 C406 0.931 . S
C391 H379 0.929 . S
C391 C385 1.390 . S
C391 C388 1.386 . S
C392 C387 1.490 . S
C392 C394 1.395 . S
C392 C395 1.403 . S
H393 C399 0.930 . S
C394 H380 0.930 . S
C394 C392 1.395 . S
C394 C397 1.403 . S
C395 C392 1.403 . S
C395 C396 1.524 . S
C395 C399 1.400 . S
C396 H381 0.960 . S
C396 H382 0.960 . S
C396 H383 0.960 . S
C396 C395 1.524 . S
C397 C394 1.403 . S
C397 C398 1.392 . S
C397 C401 1.495 . S
C398 C397 1.392 . S
C398 C399 1.385 . S
C398 C400 1.478 . S
C399 H393 0.930 . S
C399 C395 1.400 . S
C399 C398 1.385 . S
C400 C398 1.478 . S
C400 C402 1.381 . S
C400 C406 1.383 . S
C401 C397 1.495 . S
C401 H407 0.959 . S
C401 H408 0.961 . S
C401 H409 0.960 . S
C402 C400 1.381 . S
C402 C403 1.394 . S
C402 H410 0.930 . S
C403 C402 1.394 . S
C403 C404 1.383 . S
C403 H411 0.929 . S
C404 C403 1.383 . S
C404 C405 1.377 . S
C405 H389 0.930 . S
C405 C404 1.377 . S
C405 C406 1.379 . S
C406 H390 0.931 . S
C406 C400 1.383 . S
C406 C405 1.379 . S
H407 C401 0.959 . S
H408 C401 0.961 . S
H409 C401 0.960 . S
H410 C402 0.930 . S
H411 C403 0.929 . S
H412 C420 0.929 . S
H413 C422 0.930 . S
H414 C424 0.930 . S
H415 C427 0.929 . S
H416 C430 0.930 . S
H417 C432 0.960 . S
H418 C432 0.960 . S
H419 C432 0.960 . S
C420 H412 0.929 . S
C420 C421 1.377 . S
C420 C422 1.384 . S
C421 C420 1.377 . S
C421 C427 1.390 . S
C422 H413 0.930 . S
C422 C420 1.384 . S
C422 C423 1.372 1_655 S
C423 C422 1.372 1_455 S
C423 C424 1.400 . S
C423 C428 1.490 . S
C424 H414 0.930 . S
C424 C423 1.400 . S
C424 C427 1.386 1_455 S
H425 C441 0.930 . S
H426 C442 0.931 . S
C427 H415 0.929 . S
C427 C421 1.390 . S
C427 C424 1.386 1_655 S
C428 C423 1.490 . S
C428 C430 1.395 . S
C428 C431 1.403 . S
H429 C435 0.930 . S
C430 H416 0.930 . S
C430 C428 1.395 . S
C430 C433 1.403 . S
C431 C428 1.403 . S
C431 C432 1.524 . S
C431 C435 1.400 . S
C432 H417 0.960 . S
C432 H418 0.960 . S
C432 H419 0.960 . S
C432 C431 1.524 . S
C433 C430 1.403 . S
C433 C434 1.392 . S
C433 C437 1.495 . S
C434 C433 1.392 . S
C434 C435 1.385 . S
C434 C436 1.478 . S
C435 H429 0.930 . S
C435 C431 1.400 . S
C435 C434 1.385 . S
C436 C434 1.478 . S
C436 C438 1.381 . S
C436 C442 1.383 . S
C437 C433 1.495 . S
C437 H443 0.959 . S
C437 H444 0.961 . S
C437 H445 0.960 . S
C438 C436 1.381 . S
C438 C439 1.394 . S
C438 H446 0.930 . S
C439 C438 1.394 . S
C439 C440 1.383 . S
C439 H447 0.929 . S
C440 C439 1.383 . S
C440 C441 1.377 . S
C441 H425 0.930 . S
C441 C440 1.377 . S
C441 C442 1.379 . S
C442 H426 0.931 . S
C442 C436 1.383 . S
C442 C441 1.379 . S
H443 C437 0.959 . S
H444 C437 0.961 . S
H445 C437 0.960 . S
H446 C438 0.930 . S
H447 C439 0.929 . S
H448 C456 0.929 . S
H449 C458 0.930 . S
H450 C460 0.930 . S
H451 C463 0.929 . S
H452 C466 0.930 . S
H453 C468 0.960 . S
H454 C468 0.960 . S
H455 C468 0.960 . S
C456 H448 0.929 . S
C456 C457 1.377 . S
C456 C458 1.384 . S
C457 C456 1.377 . S
C457 C463 1.390 . S
C458 H449 0.930 . S
C458 C456 1.384 . S
C458 C459 1.372 . S
C459 C458 1.372 . S
C459 C460 1.400 . S
C459 C464 1.490 . S
C460 H450 0.930 . S
C460 C459 1.400 . S
C460 C463 1.386 . S
H461 C477 0.930 . S
H462 C478 0.931 . S
C463 H451 0.929 . S
C463 C457 1.390 . S
C463 C460 1.386 . S
C464 C459 1.490 . S
C464 C466 1.395 . S
C464 C467 1.403 . S
H465 C471 0.930 . S
C466 H452 0.930 . S
C466 C464 1.395 . S
C466 C469 1.403 . S
C467 C464 1.403 . S
C467 C468 1.524 . S
C467 C471 1.400 . S
C468 H453 0.960 . S
C468 H454 0.960 . S
C468 H455 0.960 . S
C468 C467 1.524 . S
C469 C466 1.403 . S
C469 C470 1.392 . S
C469 C473 1.495 . S
C470 C469 1.392 . S
C470 C471 1.385 . S
C470 C472 1.478 . S
C471 H465 0.930 . S
C471 C467 1.400 . S
C471 C470 1.385 . S
C472 C470 1.478 . S
C472 C474 1.381 . S
C472 C478 1.383 . S
C473 C469 1.495 . S
C473 H479 0.959 . S
C473 H480 0.961 . S
C473 H481 0.960 . S
C474 C472 1.381 . S
C474 C475 1.394 . S
C474 H482 0.930 . S
C475 C474 1.394 . S
C475 C476 1.383 . S
C475 H483 0.929 . S
C476 C475 1.383 . S
C476 C477 1.377 . S
C477 H461 0.930 . S
C477 C476 1.377 . S
C477 C478 1.379 . S
C478 H462 0.931 . S
C478 C472 1.383 . S
C478 C477 1.379 . S
H479 C473 0.959 . S
H480 C473 0.961 . S
H481 C473 0.960 . S
H482 C474 0.930 . S
H483 C475 0.929 . S
H484 C492 0.929 . S
H485 C494 0.930 . S
H486 C496 0.930 . S
H487 C499 0.929 . S
H488 C502 0.930 . S
H489 C504 0.960 . S
H490 C504 0.960 . S
H491 C504 0.960 . S
C492 H484 0.929 . S
C492 C493 1.377 . S
C492 C494 1.384 1_455 S
C493 C492 1.377 . S
C493 C499 1.390 . S
C494 H485 0.930 . S
C494 C492 1.384 1_655 S
C494 C495 1.372 . S
C495 C494 1.372 . S
C495 C496 1.400 1_655 S
C495 C500 1.490 . S
C496 H486 0.930 . S
C496 C495 1.400 1_455 S
C496 C499 1.386 . S
H497 C513 0.930 . S
H498 C514 0.931 . S
C499 H487 0.929 . S
C499 C493 1.390 . S
C499 C496 1.386 . S
C500 C495 1.490 . S
C500 C502 1.395 1_565 S
C500 C503 1.403 . S
H501 C507 0.930 . S
C502 H488 0.930 . S
C502 C500 1.395 1_545 S
C502 C505 1.403 . S
C503 C500 1.403 . S
C503 C504 1.524 . S
C503 C507 1.400 . S
C504 H489 0.960 . S
C504 H490 0.960 . S
C504 H491 0.960 . S
C504 C503 1.524 . S
C505 C502 1.403 . S
C505 C506 1.392 . S
C505 C509 1.495 . S
C506 C505 1.392 . S
C506 C507 1.385 1_545 S
C506 C508 1.478 . S
C507 H501 0.930 . S
C507 C503 1.400 . S
C507 C506 1.385 1_565 S
C508 C506 1.478 . S
C508 C510 1.381 . S
C508 C514 1.383 . S
C509 C505 1.495 . S
C509 H515 0.959 . S
C509 H516 0.961 . S
C509 H517 0.960 . S
C510 C508 1.381 . S
C510 C511 1.394 . S
C510 H518 0.930 . S
C511 C510 1.394 . S
C511 C512 1.383 . S
C511 H519 0.929 . S
C512 C511 1.383 . S
C512 C513 1.377 . S
C513 H497 0.930 . S
C513 C512 1.377 . S
C513 C514 1.379 . S
C514 H498 0.931 . S
C514 C508 1.383 . S
C514 C513 1.379 . S
H515 C509 0.959 . S
H516 C509 0.961 . S
H517 C509 0.960 . S
H518 C510 0.930 . S
H519 C511 0.929 . S
H520 C528 0.929 . S
H521 C530 0.930 . S
H522 C532 0.930 . S
H523 C535 0.929 . S
H524 C538 0.930 . S
H525 C540 0.960 . S
H526 C540 0.960 . S
H527 C540 0.960 . S
C528 H520 0.929 . S
C528 C529 1.377 . S
C528 C530 1.384 . S
C529 C528 1.377 . S
C529 C535 1.390 . S
C530 H521 0.930 . S
C530 C528 1.384 . S
C530 C531 1.372 . S
C531 C530 1.372 . S
C531 C532 1.400 . S
C531 C536 1.490 . S
C532 H522 0.930 . S
C532 C531 1.400 . S
C532 C535 1.386 . S
H533 C549 0.930 . S
H534 C550 0.931 . S
C535 H523 0.929 . S
C535 C529 1.390 . S
C535 C532 1.386 . S
C536 C531 1.490 . S
C536 C538 1.395 . S
C536 C539 1.403 . S
H537 C543 0.930 . S
C538 H524 0.930 . S
C538 C536 1.395 . S
C538 C541 1.403 . S
C539 C536 1.403 . S
C539 C540 1.524 . S
C539 C543 1.400 . S
C540 H525 0.960 . S
C540 H526 0.960 . S
C540 H527 0.960 . S
C540 C539 1.524 . S
C541 C538 1.403 . S
C541 C542 1.392 . S
C541 C545 1.495 . S
C542 C541 1.392 . S
C542 C543 1.385 . S
C542 C544 1.478 . S
C543 H537 0.930 . S
C543 C539 1.400 . S
C543 C542 1.385 . S
C544 C542 1.478 . S
C544 C546 1.381 . S
C544 C550 1.383 . S
C545 C541 1.495 . S
C545 H551 0.959 . S
C545 H552 0.961 . S
C545 H553 0.960 . S
C546 C544 1.381 . S
C546 C547 1.394 . S
C546 H554 0.930 . S
C547 C546 1.394 . S
C547 C548 1.383 . S
C547 H555 0.929 . S
C548 C547 1.383 . S
C548 C549 1.377 . S
C549 H533 0.930 . S
C549 C548 1.377 . S
C549 C550 1.379 . S
C550 H534 0.931 . S
C550 C544 1.383 . S
C550 C549 1.379 . S
H551 C545 0.959 . S
H552 C545 0.961 . S
H553 C545 0.960 . S
H554 C546 0.930 . S
H555 C547 0.929 . S
H556 C564 0.929 . S
H557 C566 0.930 . S
H558 C568 0.930 . S
H559 C571 0.929 . S
H560 C574 0.930 . S
H561 C576 0.960 . S
H562 C576 0.960 . S
H563 C576 0.960 . S
C564 H556 0.929 . S
C564 C565 1.377 . S
C564 C566 1.384 . S
C565 C564 1.377 . S
C565 C571 1.390 . S
C566 H557 0.930 . S
C566 C564 1.384 . S
C566 C567 1.372 . S
C567 C566 1.372 . S
C567 C568 1.400 . S
C567 C572 1.490 . S
C568 H558 0.930 . S
C568 C567 1.400 . S
C568 C571 1.386 . S
H569 C585 0.930 . S
H570 C586 0.931 . S
C571 H559 0.929 . S
C571 C565 1.390 . S
C571 C568 1.386 . S
C572 C567 1.490 . S
C572 C574 1.395 . S
C572 C575 1.403 . S
H573 C579 0.930 . S
C574 H560 0.930 . S
C574 C572 1.395 . S
C574 C577 1.403 . S
C575 C572 1.403 . S
C575 C576 1.524 . S
C575 C579 1.400 . S
C576 H561 0.960 . S
C576 H562 0.960 . S
C576 H563 0.960 . S
C576 C575 1.524 . S
C577 C574 1.403 . S
C577 C578 1.392 . S
C577 C581 1.495 . S
C578 C577 1.392 . S
C578 C579 1.385 . S
C578 C580 1.478 . S
C579 H573 0.930 . S
C579 C575 1.400 . S
C579 C578 1.385 . S
C580 C578 1.478 . S
C580 C582 1.381 . S
C580 C586 1.383 . S
C581 C577 1.495 . S
C581 H587 0.959 . S
C581 H588 0.961 . S
C581 H589 0.960 . S
C582 C580 1.381 . S
C582 C583 1.394 . S
C582 H590 0.930 . S
C583 C582 1.394 . S
C583 C584 1.383 . S
C583 H591 0.929 . S
C584 C583 1.383 . S
C584 C585 1.377 . S
C585 H569 0.930 . S
C585 C584 1.377 . S
C585 C586 1.379 . S
C586 H570 0.931 . S
C586 C580 1.383 . S
C586 C585 1.379 . S
H587 C581 0.959 . S
H588 C581 0.961 . S
H589 C581 0.960 . S
H590 C582 0.930 . S
H591 C583 0.929 . S
H592 C600 0.929 . S
H593 C602 0.930 . S
H594 C604 0.930 . S
H595 C607 0.929 . S
H596 C610 0.930 . S
H597 C612 0.960 . S
H598 C612 0.960 . S
H599 C612 0.960 . S
C600 H592 0.929 . S
C600 C601 1.377 . S
C600 C602 1.384 . S
C601 C600 1.377 . S
C601 C607 1.390 . S
C602 H593 0.930 . S
C602 C600 1.384 . S
C602 C603 1.372 . S
C603 C602 1.372 . S
C603 C604 1.400 . S
C603 C608 1.490 . S
C604 H594 0.930 . S
C604 C603 1.400 . S
C604 C607 1.386 . S
H605 C621 0.930 . S
H606 C622 0.931 . S
C607 H595 0.929 . S
C607 C601 1.390 . S
C607 C604 1.386 . S
C608 C603 1.490 . S
C608 C610 1.395 . S
C608 C611 1.403 . S
H609 C615 0.930 . S
C610 H596 0.930 . S
C610 C608 1.395 . S
C610 C613 1.403 . S
C611 C608 1.403 . S
C611 C612 1.524 . S
C611 C615 1.400 . S
C612 H597 0.960 . S
C612 H598 0.960 . S
C612 H599 0.960 . S
C612 C611 1.524 . S
C613 C610 1.403 . S
C613 C614 1.392 . S
C613 C617 1.495 . S
C614 C613 1.392 . S
C614 C615 1.385 . S
C614 C616 1.478 . S
C615 H609 0.930 . S
C615 C611 1.400 . S
C615 C614 1.385 . S
C616 C614 1.478 . S
C616 C618 1.381 . S
C616 C622 1.383 . S
C617 C613 1.495 . S
C617 H623 0.959 . S
C617 H624 0.961 . S
C617 H625 0.960 . S
C618 C616 1.381 . S
C618 C619 1.394 . S
C618 H626 0.930 . S
C619 C618 1.394 . S
C619 C620 1.383 . S
C619 H627 0.929 . S
C620 C619 1.383 . S
C620 C621 1.377 . S
C621 H605 0.930 . S
C621 C620 1.377 . S
C621 C622 1.379 . S
C622 H606 0.931 . S
C622 C616 1.383 . S
C622 C621 1.379 . S
H623 C617 0.959 . S
H624 C617 0.961 . S
H625 C617 0.960 . S
H626 C618 0.930 . S
H627 C619 0.929 . S
H628 C636 0.929 . S
H629 C638 0.930 . S
H630 C640 0.930 . S
H631 C643 0.929 . S
H632 C646 0.930 . S
H633 C648 0.960 . S
H634 C648 0.960 . S
H635 C648 0.960 1_565 S
C636 H628 0.929 . S
C636 C637 1.377 . S
C636 C638 1.384 . S
C637 C636 1.377 . S
C637 C643 1.390 . S
C638 H629 0.930 . S
C638 C636 1.384 . S
C638 C639 1.372 . S
C639 C638 1.372 . S
C639 C640 1.400 . S
C639 C644 1.490 . S
C640 H630 0.930 . S
C640 C639 1.400 . S
C640 C643 1.386 . S
H641 C657 0.930 . S
H642 C658 0.931 . S
C643 H631 0.929 . S
C643 C637 1.390 . S
C643 C640 1.386 . S
C644 C639 1.490 . S
C644 C646 1.395 . S
C644 C647 1.403 . S
H645 C651 0.930 1_545 S
C646 H632 0.930 . S
C646 C644 1.395 . S
C646 C649 1.403 . S
C647 C644 1.403 . S
C647 C648 1.524 1_565 S
C647 C651 1.400 . S
C648 H633 0.960 . S
C648 H634 0.960 . S
C648 H635 0.960 1_545 S
C648 C647 1.524 1_545 S
C649 C646 1.403 . S
C649 C650 1.392 . S
C649 C653 1.495 . S
C650 C649 1.392 . S
C650 C651 1.385 . S
C650 C652 1.478 . S
C651 H645 0.930 1_565 S
C651 C647 1.400 . S
C651 C650 1.385 . S
C652 C650 1.478 . S
C652 C654 1.381 . S
C652 C658 1.383 . S
C653 C649 1.495 . S
C653 H659 0.959 . S
C653 H660 0.961 . S
C653 H661 0.960 . S
C654 C652 1.381 . S
C654 C655 1.394 1_565 S
C654 H662 0.930 1_565 S
C655 C654 1.394 1_545 S
C655 C656 1.383 1_545 S
C655 H663 0.929 . S
C656 C655 1.383 1_565 S
C656 C657 1.377 . S
C657 H641 0.930 . S
C657 C656 1.377 . S
C657 C658 1.379 . S
C658 H642 0.931 . S
C658 C652 1.383 . S
C658 C657 1.379 . S
H659 C653 0.959 . S
H660 C653 0.961 . S
H661 C653 0.960 . S
H662 C654 0.930 1_545 S
H663 C655 0.929 . S
H664 C672 0.929 . S
H665 C674 0.930 . S
H666 C676 0.930 . S
H667 C679 0.929 . S
H668 C682 0.930 . S
H669 C684 0.960 . S
H670 C684 0.960 . S
H671 C684 0.960 . S
C672 H664 0.929 . S
C672 C673 1.377 . S
C672 C674 1.384 . S
C673 C672 1.377 . S
C673 C679 1.390 . S
C674 H665 0.930 . S
C674 C672 1.384 . S
C674 C675 1.372 . S
C675 C674 1.372 . S
C675 C676 1.400 . S
C675 C680 1.490 . S
C676 H666 0.930 . S
C676 C675 1.400 . S
C676 C679 1.386 . S
H677 C693 0.930 . S
H678 C694 0.931 . S
C679 H667 0.929 . S
C679 C673 1.390 . S
C679 C676 1.386 . S
C680 C675 1.490 . S
C680 C682 1.395 . S
C680 C683 1.403 . S
H681 C687 0.930 . S
C682 H668 0.930 . S
C682 C680 1.395 . S
C682 C685 1.403 . S
C683 C680 1.403 . S
C683 C684 1.524 . S
C683 C687 1.400 . S
C684 H669 0.960 . S
C684 H670 0.960 . S
C684 H671 0.960 . S
C684 C683 1.524 . S
C685 C682 1.403 . S
C685 C686 1.392 . S
C685 C689 1.495 . S
C686 C685 1.392 . S
C686 C687 1.385 . S
C686 C688 1.478 . S
C687 H681 0.930 . S
C687 C683 1.400 . S
C687 C686 1.385 . S
C688 C686 1.478 . S
C688 C690 1.381 . S
C688 C694 1.383 . S
C689 C685 1.495 . S
C689 H695 0.959 . S
C689 H696 0.961 . S
C689 H697 0.960 . S
C690 C688 1.381 . S
C690 C691 1.394 . S
C690 H698 0.930 . S
C691 C690 1.394 . S
C691 C692 1.383 . S
C691 H699 0.929 . S
C692 C691 1.383 . S
C692 C693 1.377 . S
C693 H677 0.930 . S
C693 C692 1.377 . S
C693 C694 1.379 . S
C694 H678 0.931 . S
C694 C688 1.383 . S
C694 C693 1.379 . S
H695 C689 0.959 . S
H696 C689 0.961 . S
H697 C689 0.960 . S
H698 C690 0.930 . S
H699 C691 0.929 . S
H700 C708 0.929 . S
H701 C710 0.930 . S
H702 C712 0.930 . S
H703 C715 0.929 . S
H704 C718 0.930 . S
H705 C720 0.960 . S
H706 C720 0.960 . S
H707 C720 0.960 . S
C708 H700 0.929 . S
C708 C709 1.377 . S
C708 C710 1.384 . S
C709 C708 1.377 . S
C709 C715 1.390 . S
C710 H701 0.930 . S
C710 C708 1.384 . S
C710 C711 1.372 . S
C711 C710 1.372 . S
C711 C712 1.400 . S
C711 C716 1.490 . S
C712 H702 0.930 . S
C712 C711 1.400 . S
C712 C715 1.386 . S
H713 C729 0.930 . S
H714 C730 0.931 . S
C715 H703 0.929 . S
C715 C709 1.390 . S
C715 C712 1.386 . S
C716 C711 1.490 . S
C716 C718 1.395 . S
C716 C719 1.403 . S
H717 C723 0.930 . S
C718 H704 0.930 . S
C718 C716 1.395 . S
C718 C721 1.403 . S
C719 C716 1.403 . S
C719 C720 1.524 . S
C719 C723 1.400 . S
C720 H705 0.960 . S
C720 H706 0.960 . S
C720 H707 0.960 . S
C720 C719 1.524 . S
C721 C718 1.403 . S
C721 C722 1.392 . S
C721 C725 1.495 . S
C722 C721 1.392 . S
C722 C723 1.385 . S
C722 C724 1.478 . S
C723 H717 0.930 . S
C723 C719 1.400 . S
C723 C722 1.385 . S
C724 C722 1.478 . S
C724 C726 1.381 . S
C724 C730 1.383 . S
C725 C721 1.495 . S
C725 H731 0.959 . S
C725 H732 0.961 . S
C725 H733 0.960 . S
C726 C724 1.381 . S
C726 C727 1.394 . S
C726 H734 0.930 . S
C727 C726 1.394 . S
C727 C728 1.383 . S
C727 H735 0.929 . S
C728 C727 1.383 . S
C728 C729 1.377 . S
C729 H713 0.930 . S
C729 C728 1.377 . S
C729 C730 1.379 . S
C730 H714 0.931 . S
C730 C724 1.383 . S
C730 C729 1.379 . S
H731 C725 0.959 . S
H732 C725 0.961 . S
H733 C725 0.960 . S
H734 C726 0.930 . S
H735 C727 0.929 . S
H736 C744 0.929 . S
H737 C746 0.930 . S
H738 C748 0.930 . S
H739 C751 0.929 . S
H740 C754 0.930 . S
H741 C756 0.960 . S
H742 C756 0.960 . S
H743 C756 0.960 . S
C744 H736 0.929 . S
C744 C745 1.377 . S
C744 C746 1.384 . S
C745 C744 1.377 . S
C745 C751 1.390 . S
C746 H737 0.930 . S
C746 C744 1.384 . S
C746 C747 1.372 . S
C747 C746 1.372 . S
C747 C748 1.400 . S
C747 C752 1.490 . S
C748 H738 0.930 . S
C748 C747 1.400 . S
C748 C751 1.386 . S
H749 C765 0.930 . S
H750 C766 0.931 . S
C751 H739 0.929 . S
C751 C745 1.390 . S
C751 C748 1.386 . S
C752 C747 1.490 . S
C752 C754 1.395 . S
C752 C755 1.403 . S
H753 C759 0.930 . S
C754 H740 0.930 . S
C754 C752 1.395 . S
C754 C757 1.403 . S
C755 C752 1.403 . S
C755 C756 1.524 . S
C755 C759 1.400 . S
C756 H741 0.960 . S
C756 H742 0.960 . S
C756 H743 0.960 . S
C756 C755 1.524 . S
C757 C754 1.403 . S
C757 C758 1.392 . S
C757 C761 1.495 . S
C758 C757 1.392 . S
C758 C759 1.385 . S
C758 C760 1.478 . S
C759 H753 0.930 . S
C759 C755 1.400 . S
C759 C758 1.385 . S
C760 C758 1.478 . S
C760 C762 1.381 . S
C760 C766 1.383 . S
C761 C757 1.495 . S
C761 H767 0.959 . S
C761 H768 0.961 . S
C761 H769 0.960 . S
C762 C760 1.381 . S
C762 C763 1.394 . S
C762 H770 0.930 . S
C763 C762 1.394 . S
C763 C764 1.383 . S
C763 H771 0.929 . S
C764 C763 1.383 . S
C764 C765 1.377 . S
C765 H749 0.930 . S
C765 C764 1.377 . S
C765 C766 1.379 . S
C766 H750 0.931 . S
C766 C760 1.383 . S
C766 C765 1.379 . S
H767 C761 0.959 . S
H768 C761 0.961 . S
H769 C761 0.960 . S
H770 C762 0.930 . S
H771 C763 0.929 . S
H772 C780 0.929 . S
H773 C782 0.930 . S
H774 C784 0.930 . S
H775 C787 0.929 . S
H776 C790 0.930 . S
H777 C792 0.960 . S
H778 C792 0.960 . S
H779 C792 0.960 . S
C780 H772 0.929 . S
C780 C781 1.377 . S
C780 C782 1.384 . S
C781 C780 1.377 . S
C781 C787 1.390 . S
C782 H773 0.930 . S
C782 C780 1.384 . S
C782 C783 1.372 . S
C783 C782 1.372 . S
C783 C784 1.400 . S
C783 C788 1.490 . S
C784 H774 0.930 . S
C784 C783 1.400 . S
C784 C787 1.386 . S
H785 C801 0.930 . S
H786 C802 0.931 . S
C787 H775 0.929 . S
C787 C781 1.390 . S
C787 C784 1.386 . S
C788 C783 1.490 . S
C788 C790 1.395 . S
C788 C791 1.403 . S
H789 C795 0.930 . S
C790 H776 0.930 . S
C790 C788 1.395 . S
C790 C793 1.403 . S
C791 C788 1.403 . S
C791 C792 1.524 . S
C791 C795 1.400 . S
C792 H777 0.960 . S
C792 H778 0.960 . S
C792 H779 0.960 . S
C792 C791 1.524 . S
C793 C790 1.403 . S
C793 C794 1.392 . S
C793 C797 1.495 . S
C794 C793 1.392 . S
C794 C795 1.385 . S
C794 C796 1.478 . S
C795 H789 0.930 . S
C795 C791 1.400 . S
C795 C794 1.385 . S
C796 C794 1.478 . S
C796 C798 1.381 . S
C796 C802 1.383 . S
C797 C793 1.495 . S
C797 H803 0.959 . S
C797 H804 0.961 . S
C797 H805 0.960 . S
C798 C796 1.381 . S
C798 C799 1.394 . S
C798 H806 0.930 . S
C799 C798 1.394 . S
C799 C800 1.383 . S
C799 H807 0.929 . S
C800 C799 1.383 . S
C800 C801 1.377 . S
C801 H785 0.930 . S
C801 C800 1.377 . S
C801 C802 1.379 . S
C802 H786 0.931 . S
C802 C796 1.383 . S
C802 C801 1.379 . S
H803 C797 0.959 . S
H804 C797 0.961 . S
H805 C797 0.960 . S
H806 C798 0.930 . S
H807 C799 0.929 . S
H808 C816 0.929 . S
H809 C818 0.930 . S
H810 C820 0.930 . S
H811 C823 0.929 . S
H812 C826 0.930 . S
H813 C828 0.960 . S
H814 C828 0.960 . S
H815 C828 0.960 . S
C816 H808 0.929 . S
C816 C817 1.377 . S
C816 C818 1.384 . S
C817 C816 1.377 . S
C817 C823 1.390 . S
C818 H809 0.930 . S
C818 C816 1.384 . S
C818 C819 1.372 . S
C819 C818 1.372 . S
C819 C820 1.400 . S
C819 C824 1.490 . S
C820 H810 0.930 . S
C820 C819 1.400 . S
C820 C823 1.386 . S
H821 C837 0.930 . S
H822 C838 0.931 . S
C823 H811 0.929 . S
C823 C817 1.390 . S
C823 C820 1.386 . S
C824 C819 1.490 . S
C824 C826 1.395 . S
C824 C827 1.403 . S
H825 C831 0.930 . S
C826 H812 0.930 . S
C826 C824 1.395 . S
C826 C829 1.403 . S
C827 C824 1.403 . S
C827 C828 1.524 . S
C827 C831 1.400 . S
C828 H813 0.960 . S
C828 H814 0.960 . S
C828 H815 0.960 . S
C828 C827 1.524 . S
C829 C826 1.403 . S
C829 C830 1.392 . S
C829 C833 1.495 . S
C830 C829 1.392 . S
C830 C831 1.385 . S
C830 C832 1.478 . S
C831 H825 0.930 . S
C831 C827 1.400 . S
C831 C830 1.385 . S
C832 C830 1.478 . S
C832 C834 1.381 . S
C832 C838 1.383 . S
C833 C829 1.495 . S
C833 H839 0.959 . S
C833 H840 0.961 . S
C833 H841 0.960 . S
C834 C832 1.381 . S
C834 C835 1.394 . S
C834 H842 0.930 . S
C835 C834 1.394 . S
C835 C836 1.383 . S
C835 H843 0.929 . S
C836 C835 1.383 . S
C836 C837 1.377 . S
C837 H821 0.930 . S
C837 C836 1.377 . S
C837 C838 1.379 . S
C838 H822 0.931 . S
C838 C832 1.383 . S
C838 C837 1.379 . S
H839 C833 0.959 . S
H840 C833 0.961 . S
H841 C833 0.960 . S
H842 C834 0.930 . S
H843 C835 0.929 . S
H844 C852 0.929 . S
H845 C854 0.930 . S
H846 C856 0.930 . S
H847 C859 0.929 . S
H848 C862 0.930 . S
H849 C864 0.960 . S
H850 C864 0.960 . S
H851 C864 0.960 . S
C852 H844 0.929 . S
C852 C853 1.377 . S
C852 C854 1.384 . S
C853 C852 1.377 . S
C853 C859 1.390 . S
C854 H845 0.930 . S
C854 C852 1.384 . S
C854 C855 1.372 . S
C855 C854 1.372 . S
C855 C856 1.400 . S
C855 C860 1.490 . S
C856 H846 0.930 . S
C856 C855 1.400 . S
C856 C859 1.386 . S
H857 C873 0.930 . S
H858 C874 0.931 . S
C859 H847 0.929 . S
C859 C853 1.390 . S
C859 C856 1.386 . S
C860 C855 1.490 . S
C860 C862 1.395 . S
C860 C863 1.403 . S
H861 C867 0.930 . S
C862 H848 0.930 . S
C862 C860 1.395 . S
C862 C865 1.403 . S
C863 C860 1.403 . S
C863 C864 1.524 . S
C863 C867 1.400 . S
C864 H849 0.960 . S
C864 H850 0.960 . S
C864 H851 0.960 . S
C864 C863 1.524 . S
C865 C862 1.403 . S
C865 C866 1.392 . S
C865 C869 1.495 . S
C866 C865 1.392 . S
C866 C867 1.385 . S
C866 C868 1.478 . S
C867 H861 0.930 . S
C867 C863 1.400 . S
C867 C866 1.385 . S
C868 C866 1.478 . S
C868 C870 1.381 . S
C868 C874 1.383 . S
C869 C865 1.495 . S
C869 H875 0.959 . S
C869 H876 0.961 . S
C869 H877 0.960 . S
C870 C868 1.381 . S
C870 C871 1.394 . S
C870 H878 0.930 . S
C871 C870 1.394 . S
C871 C872 1.383 . S
C871 H879 0.929 . S
C872 C871 1.383 . S
C872 C873 1.377 . S
C873 H857 0.930 . S
C873 C872 1.377 . S
C873 C874 1.379 . S
C874 H858 0.931 . S
C874 C868 1.383 . S
C874 C873 1.379 . S
H875 C869 0.959 . S
H876 C869 0.961 . S
H877 C869 0.960 . S
H878 C870 0.930 . S
H879 C871 0.929 . S
H880 C888 0.929 . S
H881 C890 0.930 . S
H882 C892 0.930 . S
H883 C895 0.929 . S
H884 C898 0.930 . S
H885 C900 0.960 . S
H886 C900 0.960 . S
H887 C900 0.960 . S
C888 H880 0.929 . S
C888 C889 1.377 . S
C888 C890 1.384 . S
C889 C888 1.377 . S
C889 C895 1.390 . S
C890 H881 0.930 . S
C890 C888 1.384 . S
C890 C891 1.372 . S
C891 C890 1.372 . S
C891 C892 1.400 . S
C891 C896 1.490 . S
C892 H882 0.930 . S
C892 C891 1.400 . S
C892 C895 1.386 . S
H893 C909 0.930 . S
H894 C910 0.931 . S
C895 H883 0.929 . S
C895 C889 1.390 . S
C895 C892 1.386 . S
C896 C891 1.490 . S
C896 C898 1.395 . S
C896 C899 1.403 . S
H897 C903 0.930 . S
C898 H884 0.930 . S
C898 C896 1.395 . S
C898 C901 1.403 . S
C899 C896 1.403 . S
C899 C900 1.524 . S
C899 C903 1.400 . S
C900 H885 0.960 . S
C900 H886 0.960 . S
C900 H887 0.960 . S
C900 C899 1.524 . S
C901 C898 1.403 . S
C901 C902 1.392 . S
C901 C905 1.495 . S
C902 C901 1.392 . S
C902 C903 1.385 . S
C902 C904 1.478 . S
C903 H897 0.930 . S
C903 C899 1.400 . S
C903 C902 1.385 . S
C904 C902 1.478 . S
C904 C906 1.381 . S
C904 C910 1.383 . S
C905 C901 1.495 . S
C905 H911 0.959 . S
C905 H912 0.961 . S
C905 H913 0.960 . S
C906 C904 1.381 . S
C906 C907 1.394 . S
C906 H914 0.930 . S
C907 C906 1.394 . S
C907 C908 1.383 . S
C907 H915 0.929 . S
C908 C907 1.383 . S
C908 C909 1.377 . S
C909 H893 0.930 . S
C909 C908 1.377 . S
C909 C910 1.379 . S
C910 H894 0.931 . S
C910 C904 1.383 . S
C910 C909 1.379 . S
H911 C905 0.959 . S
H912 C905 0.961 . S
H913 C905 0.960 . S
H914 C906 0.930 . S
H915 C907 0.929 . S
H916 C924 0.929 . S
H917 C926 0.930 . S
H918 C928 0.930 . S
H919 C931 0.929 . S
H920 C934 0.940 . S
H921 C936 0.960 . S
H922 C936 0.960 . S
H923 C936 0.960 . S
C924 H916 0.929 . S
C924 C925 1.377 . S
C924 C926 1.384 . S
C925 C924 1.377 . S
C925 C931 1.390 . S
C926 H917 0.930 . S
C926 C924 1.384 . S
C926 C927 1.372 . S
C927 C926 1.372 . S
C927 C928 1.400 . S
C927 C932 1.490 . S
C928 H918 0.930 . S
C928 C927 1.400 . S
C928 C931 1.386 . S
H929 C945 0.942 . S
H930 C946 0.931 . S
C931 H919 0.929 . S
C931 C925 1.390 . S
C931 C928 1.386 . S
C932 C927 1.490 . S
C932 C934 1.381 1_655 S
C932 C935 1.403 . S
H933 C939 0.930 . S
C934 H920 0.940 . S
C934 C932 1.381 1_455 S
C934 C937 1.407 . S
C935 C932 1.403 . S
C935 C936 1.524 . S
C935 C939 1.400 . S
C936 H921 0.960 . S
C936 H922 0.960 . S
C936 H923 0.960 . S
C936 C935 1.524 . S
C937 C934 1.407 . S
C937 C938 1.392 1_455 S
C937 C941 1.495 . S
C938 C937 1.392 1_655 S
C938 C939 1.385 . S
C938 C940 1.486 . S
C939 H933 0.930 . S
C939 C935 1.400 . S
C939 C938 1.385 . S
C940 C938 1.486 . S
C940 C942 1.365 1_655 S
C940 C946 1.395 . S
C941 C937 1.495 . S
C941 H947 0.959 . S
C941 H948 0.961 . S
C941 H949 0.960 . S
C942 C940 1.365 1_455 S
C942 C943 1.394 . S
C942 H950 0.930 . S
C943 C942 1.394 . S
C943 C944 1.383 . S
C943 H951 0.929 . S
C944 C943 1.383 . S
C944 C945 1.362 1_455 S
C945 H929 0.942 . S
C945 C944 1.362 1_655 S
C945 C946 1.384 . S
C946 H930 0.931 . S
C946 C940 1.395 . S
C946 C945 1.384 . S
H947 C941 0.959 . S
H948 C941 0.961 . S
H949 C941 0.960 . S
H950 C942 0.930 . S
H951 C943 0.929 . S
H952 C960 0.929 . S
H953 C962 0.930 . S
H954 C964 0.930 . S
H955 C967 0.929 . S
H956 C970 0.930 . S
H957 C972 0.960 . S
H958 C972 0.960 . S
H959 C972 0.960 . S
C960 H952 0.929 . S
C960 C961 1.377 . S
C960 C962 1.384 . S
C961 C960 1.377 . S
C961 C967 1.390 . S
C962 H953 0.930 . S
C962 C960 1.384 . S
C962 C963 1.372 . S
C963 C962 1.372 . S
C963 C964 1.400 . S
C963 C968 1.490 . S
C964 H954 0.930 . S
C964 C963 1.400 . S
C964 C967 1.386 . S
H965 C981 0.930 . S
H966 C982 0.931 . S
C967 H955 0.929 . S
C967 C961 1.390 . S
C967 C964 1.386 . S
C968 C963 1.490 . S
C968 C970 1.395 . S
C968 C971 1.403 . S
H969 C975 0.930 . S
C970 H956 0.930 . S
C970 C968 1.395 . S
C970 C973 1.403 . S
C971 C968 1.403 . S
C971 C972 1.524 . S
C971 C975 1.400 . S
C972 H957 0.960 . S
C972 H958 0.960 . S
C972 H959 0.960 . S
C972 C971 1.524 . S
C973 C970 1.403 . S
C973 C974 1.392 . S
C973 C977 1.495 . S
C974 C973 1.392 . S
C974 C975 1.385 . S
C974 C976 1.478 . S
C975 H969 0.930 . S
C975 C971 1.400 . S
C975 C974 1.385 . S
C976 C974 1.478 . S
C976 C978 1.381 . S
C976 C982 1.383 . S
C977 C973 1.495 . S
C977 H983 0.959 . S
C977 H984 0.961 . S
C977 H985 0.960 . S
C978 C976 1.381 . S
C978 C979 1.394 . S
C978 H986 0.930 . S
C979 C978 1.394 . S
C979 C980 1.383 . S
C979 H987 0.929 . S
C980 C979 1.383 . S
C980 C981 1.377 . S
C981 H965 0.930 . S
C981 C980 1.377 . S
C981 C982 1.379 . S
C982 H966 0.931 . S
C982 C976 1.383 . S
C982 C981 1.379 . S
H983 C977 0.959 . S
H984 C977 0.961 . S
H985 C977 0.960 . S
H986 C978 0.930 . S
H987 C979 0.929 . S
H988 C996 0.929 . S
H989 C998 0.930 . S
H990 C1000 0.930 . S
H991 C1003 0.929 . S
H992 C1006 0.930 . S
H993 C1008 0.960 . S
H994 C1008 0.960 . S
H995 C1008 0.960 . S
C996 H988 0.929 . S
C996 C997 1.377 . S
C996 C998 1.384 . S
C997 C996 1.377 . S
C997 C1003 1.390 . S
C998 H989 0.930 . S
C998 C996 1.384 . S
C998 C999 1.372 . S
C999 C998 1.372 . S
C999 C1000 1.400 . S
C999 C1004 1.490 . S
C1000 H990 0.930 . S
C1000 C999 1.400 . S
C1000 C1003 1.386 . S
H1001 C1017 0.930 . S
H1002 C1018 0.931 . S
C1003 H991 0.929 . S
C1003 C997 1.390 . S
C1003 C1000 1.386 . S
C1004 C999 1.490 . S
C1004 C1006 1.395 . S
C1004 C1007 1.403 . S
H1005 C1011 0.930 . S
C1006 H992 0.930 . S
C1006 C1004 1.395 . S
C1006 C1009 1.403 . S
C1007 C1004 1.403 . S
C1007 C1008 1.524 . S
C1007 C1011 1.400 . S
C1008 H993 0.960 . S
C1008 H994 0.960 . S
C1008 H995 0.960 . S
C1008 C1007 1.524 . S
C1009 C1006 1.403 . S
C1009 C1010 1.392 . S
C1009 C1013 1.495 . S
C1010 C1009 1.392 . S
C1010 C1011 1.385 . S
C1010 C1012 1.478 . S
C1011 H1005 0.930 . S
C1011 C1007 1.400 . S
C1011 C1010 1.385 . S
C1012 C1010 1.478 . S
C1012 C1014 1.381 . S
C1012 C1018 1.383 . S
C1013 C1009 1.495 . S
C1013 H1019 0.959 . S
C1013 H1020 0.961 . S
C1013 H1021 0.960 . S
C1014 C1012 1.381 . S
C1014 C1015 1.394 . S
C1014 H1022 0.930 . S
C1015 C1014 1.394 . S
C1015 C1016 1.383 . S
C1015 H1023 0.929 . S
C1016 C1015 1.383 . S
C1016 C1017 1.377 . S
C1017 H1001 0.930 . S
C1017 C1016 1.377 . S
C1017 C1018 1.379 . S
C1018 H1002 0.931 . S
C1018 C1012 1.383 . S
C1018 C1017 1.379 . S
H1019 C1013 0.959 . S
H1020 C1013 0.961 . S
H1021 C1013 0.960 . S
H1022 C1014 0.930 . S
H1023 C1015 0.929 . S
H1024 C1032 0.929 . S
H1025 C1034 0.930 . S
H1026 C1036 0.930 . S
H1027 C1039 0.929 . S
H1028 C1042 0.930 . S
H1029 C1044 0.960 . S
H1030 C1044 0.960 . S
H1031 C1044 0.960 . S
C1032 H1024 0.929 . S
C1032 C1033 1.377 1_565 S
C1032 C1034 1.384 . S
C1033 C1032 1.377 1_545 S
C1033 C1039 1.390 . S
C1034 H1025 0.930 . S
C1034 C1032 1.384 . S
C1034 C1035 1.372 . S
C1035 C1034 1.372 . S
C1035 C1036 1.400 1_565 S
C1035 C1040 1.490 . S
C1036 H1026 0.930 . S
C1036 C1035 1.400 1_545 S
C1036 C1039 1.386 . S
H1037 C1053 0.930 . S
H1038 C1054 0.947 . S
C1039 H1027 0.929 . S
C1039 C1033 1.390 . S
C1039 C1036 1.386 . S
C1040 C1035 1.490 . S
C1040 C1042 1.395 1_556 S
C1040 C1043 1.403 . S
H1041 C1047 0.930 . S
C1042 H1028 0.930 . S
C1042 C1040 1.395 1_554 S
C1042 C1045 1.403 . S
C1043 C1040 1.403 . S
C1043 C1044 1.524 . S
C1043 C1047 1.400 . S
C1044 H1029 0.960 . S
C1044 H1030 0.960 . S
C1044 H1031 0.960 . S
C1044 C1043 1.524 . S
C1045 C1042 1.403 . S
C1045 C1046 1.392 . S
C1045 C1049 1.495 . S
C1046 C1045 1.392 . S
C1046 C1047 1.385 1_554 S
C1046 C1048 1.478 . S
C1047 H1041 0.930 . S
C1047 C1043 1.400 . S
C1047 C1046 1.385 1_556 S
C1048 C1046 1.478 . S
C1048 C1050 1.381 . S
C1048 C1054 1.383 . S
C1049 C1045 1.495 . S
C1049 H1055 0.959 . S
C1049 H1056 0.961 . S
C1049 H1057 0.960 . S
C1050 C1048 1.381 . S
C1050 C1051 1.394 . S
C1050 H1058 0.930 . S
C1051 C1050 1.394 . S
C1051 C1052 1.383 . S
C1051 H1059 0.929 . S
C1052 C1051 1.383 . S
C1052 C1053 1.377 . S
C1053 H1037 0.930 . S
C1053 C1052 1.377 . S
C1053 C1054 1.379 . S
C1054 H1038 0.947 . S
C1054 C1048 1.383 . S
C1054 C1053 1.379 . S
H1055 C1049 0.959 . S
H1056 C1049 0.961 . S
H1057 C1049 0.960 . S
H1058 C1050 0.930 . S
H1059 C1051 0.929 . S
H1060 C1068 0.929 . S
H1061 C1070 0.930 . S
H1062 C1072 0.930 . S
H1063 C1075 0.929 . S
H1064 C1078 0.930 . S
H1065 C1080 0.960 . S
H1066 C1080 0.960 . S
H1067 C1080 0.960 . S
C1068 H1060 0.929 . S
C1068 C1069 1.377 . S
C1068 C1070 1.384 . S
C1069 C1068 1.377 . S
C1069 C1075 1.390 . S
C1070 H1061 0.930 . S
C1070 C1068 1.384 . S
C1070 C1071 1.372 . S
C1071 C1070 1.372 . S
C1071 C1072 1.400 . S
C1071 C1076 1.490 . S
C1072 H1062 0.930 . S
C1072 C1071 1.400 . S
C1072 C1075 1.386 . S
H1073 C1089 0.930 . S
H1074 C1090 0.931 . S
C1075 H1063 0.929 . S
C1075 C1069 1.390 . S
C1075 C1072 1.386 . S
C1076 C1071 1.490 . S
C1076 C1078 1.395 . S
C1076 C1079 1.403 . S
H1077 C1083 0.930 . S
C1078 H1064 0.930 . S
C1078 C1076 1.395 . S
C1078 C1081 1.403 . S
C1079 C1076 1.403 . S
C1079 C1080 1.524 . S
C1079 C1083 1.400 . S
C1080 H1065 0.960 . S
C1080 H1066 0.960 . S
C1080 H1067 0.960 . S
C1080 C1079 1.524 . S
C1081 C1078 1.403 . S
C1081 C1082 1.392 . S
C1081 C1085 1.495 . S
C1082 C1081 1.392 . S
C1082 C1083 1.385 . S
C1082 C1084 1.478 . S
C1083 H1077 0.930 . S
C1083 C1079 1.400 . S
C1083 C1082 1.385 . S
C1084 C1082 1.478 . S
C1084 C1086 1.381 . S
C1084 C1090 1.383 . S
C1085 C1081 1.495 . S
C1085 H1091 0.959 . S
C1085 H1092 0.961 . S
C1085 H1093 0.960 . S
C1086 C1084 1.381 . S
C1086 C1087 1.394 . S
C1086 H1094 0.930 . S
C1087 C1086 1.394 . S
C1087 C1088 1.383 . S
C1087 H1095 0.929 . S
C1088 C1087 1.383 . S
C1088 C1089 1.377 . S
C1089 H1073 0.930 . S
C1089 C1088 1.377 . S
C1089 C1090 1.379 . S
C1090 H1074 0.931 . S
C1090 C1084 1.383 . S
C1090 C1089 1.379 . S
H1091 C1085 0.959 . S
H1092 C1085 0.961 . S
H1093 C1085 0.960 . S
H1094 C1086 0.930 . S
H1095 C1087 0.929 . S
H1096 C1104 0.920 1_565 S
H1097 C1106 0.930 . S
H1098 C1108 0.930 . S
H1099 C1111 0.929 . S
H1100 C1114 0.930 . S
H1101 C1116 0.960 . S
H1102 C1116 0.960 . S
H1103 C1116 0.960 . S
C1104 H1096 0.920 1_545 S
C1104 C1105 1.378 . S
C1104 C1106 1.393 . S
C1105 C1104 1.378 . S
C1105 C1111 1.390 . S
C1106 H1097 0.930 . S
C1106 C1104 1.393 . S
C1106 C1107 1.372 . S
C1107 C1106 1.372 . S
C1107 C1108 1.400 . S
C1107 C1112 1.490 . S
C1108 H1098 0.930 . S
C1108 C1107 1.400 . S
C1108 C1111 1.386 . S
H1109 C1125 0.930 . S
H1110 C1126 0.931 . S
C1111 H1099 0.929 . S
C1111 C1105 1.390 . S
C1111 C1108 1.386 . S
C1112 C1107 1.490 . S
C1112 C1114 1.395 . S
C1112 C1115 1.403 . S
H1113 C1119 0.930 . S
C1114 H1100 0.930 . S
C1114 C1112 1.395 . S
C1114 C1117 1.403 . S
C1115 C1112 1.403 . S
C1115 C1116 1.524 . S
C1115 C1119 1.400 . S
C1116 H1101 0.960 . S
C1116 H1102 0.960 . S
C1116 H1103 0.960 . S
C1116 C1115 1.524 . S
C1117 C1114 1.403 . S
C1117 C1118 1.392 . S
C1117 C1121 1.495 . S
C1118 C1117 1.392 . S
C1118 C1119 1.385 . S
C1118 C1120 1.478 . S
C1119 H1113 0.930 . S
C1119 C1115 1.400 . S
C1119 C1118 1.385 . S
C1120 C1118 1.478 . S
C1120 C1122 1.381 . S
C1120 C1126 1.383 . S
C1121 C1117 1.495 . S
C1121 H1127 0.959 . S
C1121 H1128 0.961 . S
C1121 H1129 0.960 . S
C1122 C1120 1.381 . S
C1122 C1123 1.394 . S
C1122 H1130 0.930 . S
C1123 C1122 1.394 . S
C1123 C1124 1.383 . S
C1123 H1131 0.929 . S
C1124 C1123 1.383 . S
C1124 C1125 1.377 . S
C1125 H1109 0.930 . S
C1125 C1124 1.377 . S
C1125 C1126 1.379 . S
C1126 H1110 0.931 . S
C1126 C1120 1.383 . S
C1126 C1125 1.379 . S
H1127 C1121 0.959 . S
H1128 C1121 0.961 . S
H1129 C1121 0.960 . S
H1130 C1122 0.930 . S
H1131 C1123 0.929 . S
H1132 C1140 0.929 . S
H1133 C1142 0.930 . S
H1134 C1144 0.930 . S
H1135 C1147 0.929 . S
H1136 C1150 0.930 . S
H1137 C1152 0.960 . S
H1138 C1152 0.960 . S
H1139 C1152 0.960 . S
C1140 H1132 0.929 . S
C1140 C1141 1.377 . S
C1140 C1142 1.384 . S
C1141 C1140 1.377 . S
C1141 C1147 1.390 . S
C1142 H1133 0.930 . S
C1142 C1140 1.384 . S
C1142 C1143 1.372 . S
C1143 C1142 1.372 . S
C1143 C1144 1.400 . S
C1143 C1148 1.490 . S
C1144 H1134 0.930 . S
C1144 C1143 1.400 . S
C1144 C1147 1.386 . S
H1145 C1161 0.930 . S
H1146 C1162 0.931 . S
C1147 H1135 0.929 . S
C1147 C1141 1.390 . S
C1147 C1144 1.386 . S
C1148 C1143 1.490 . S
C1148 C1150 1.395 . S
C1148 C1151 1.403 . S
H1149 C1155 0.930 . S
C1150 H1136 0.930 . S
C1150 C1148 1.395 . S
C1150 C1153 1.403 . S
C1151 C1148 1.403 . S
C1151 C1152 1.524 . S
C1151 C1155 1.400 . S
C1152 H1137 0.960 . S
C1152 H1138 0.960 . S
C1152 H1139 0.960 . S
C1152 C1151 1.524 . S
C1153 C1150 1.403 . S
C1153 C1154 1.392 . S
C1153 C1157 1.495 . S
C1154 C1153 1.392 . S
C1154 C1155 1.385 . S
C1154 C1156 1.478 . S
C1155 H1149 0.930 . S
C1155 C1151 1.400 . S
C1155 C1154 1.385 . S
C1156 C1154 1.478 . S
C1156 C1158 1.381 . S
C1156 C1162 1.383 . S
C1157 C1153 1.495 . S
C1157 H1163 0.959 . S
C1157 H1164 0.961 . S
C1157 H1165 0.960 . S
C1158 C1156 1.381 . S
C1158 C1159 1.394 . S
C1158 H1166 0.930 . S
C1159 C1158 1.394 . S
C1159 C1160 1.383 . S
C1159 H1167 0.929 . S
C1160 C1159 1.383 . S
C1160 C1161 1.377 . S
C1161 H1145 0.930 . S
C1161 C1160 1.377 . S
C1161 C1162 1.379 . S
C1162 H1146 0.931 . S
C1162 C1156 1.383 . S
C1162 C1161 1.379 . S
H1163 C1157 0.959 . S
H1164 C1157 0.961 . S
H1165 C1157 0.960 . S
H1166 C1158 0.930 . S
H1167 C1159 0.929 . S
H1168 C1176 0.929 . S
H1169 C1178 0.930 . S
H1170 C1180 0.930 . S
H1171 C1183 0.929 . S
H1172 C1186 0.930 . S
H1173 C1188 0.960 . S
H1174 C1188 0.960 . S
H1175 C1188 0.960 . S
C1176 H1168 0.929 . S
C1176 C1177 1.377 . S
C1176 C1178 1.384 . S
C1177 C1176 1.377 . S
C1177 C1183 1.390 1_565 S
C1178 H1169 0.930 . S
C1178 C1176 1.384 . S
C1178 C1179 1.372 1_565 S
C1179 C1178 1.372 1_545 S
C1179 C1180 1.400 . S
C1179 C1184 1.490 . S
C1180 H1170 0.930 . S
C1180 C1179 1.400 . S
C1180 C1183 1.386 . S
H1181 C1197 0.930 . S
H1182 C1198 0.931 . S
C1183 H1171 0.929 . S
C1183 C1177 1.390 1_545 S
C1183 C1180 1.386 . S
C1184 C1179 1.490 . S
C1184 C1186 1.395 . S
C1184 C1187 1.403 . S
H1185 C1191 0.930 . S
C1186 H1172 0.930 . S
C1186 C1184 1.395 . S
C1186 C1189 1.403 . S
C1187 C1184 1.403 . S
C1187 C1188 1.524 . S
C1187 C1191 1.400 . S
C1188 H1173 0.960 . S
C1188 H1174 0.960 . S
C1188 H1175 0.960 . S
C1188 C1187 1.524 . S
C1189 C1186 1.403 . S
C1189 C1190 1.392 . S
C1189 C1193 1.495 . S
C1190 C1189 1.392 . S
C1190 C1191 1.385 . S
C1190 C1192 1.478 . S
C1191 H1185 0.930 . S
C1191 C1187 1.400 . S
C1191 C1190 1.385 . S
C1192 C1190 1.478 . S
C1192 C1194 1.381 . S
C1192 C1198 1.383 . S
C1193 C1189 1.495 . S
C1193 H1199 0.959 . S
C1193 H1200 0.961 . S
C1193 H1201 0.960 . S
C1194 C1192 1.381 . S
C1194 C1195 1.394 . S
C1194 H1202 0.930 . S
C1195 C1194 1.394 . S
C1195 C1196 1.383 . S
C1195 H1203 0.929 . S
C1196 C1195 1.383 . S
C1196 C1197 1.377 . S
C1197 H1181 0.930 . S
C1197 C1196 1.377 . S
C1197 C1198 1.379 . S
C1198 H1182 0.931 . S
C1198 C1192 1.383 . S
C1198 C1197 1.379 . S
H1199 C1193 0.959 . S
H1200 C1193 0.961 . S
H1201 C1193 0.960 . S
H1202 C1194 0.930 . S
H1203 C1195 0.929 . S
H1204 C1212 0.929 . S
H1205 C1214 0.930 . S
H1206 C1216 0.930 . S
H1207 C1219 0.929 . S
H1208 C1222 0.930 . S
H1209 C1224 0.960 . S
H1210 C1224 0.960 . S
H1211 C1224 0.960 . S
C1212 H1204 0.929 . S
C1212 C1213 1.377 . S
C1212 C1214 1.384 . S
C1213 C1212 1.377 . S
C1213 C1219 1.390 . S
C1214 H1205 0.930 . S
C1214 C1212 1.384 . S
C1214 C1215 1.372 . S
C1215 C1214 1.372 . S
C1215 C1216 1.400 . S
C1215 C1220 1.490 . S
C1216 H1206 0.930 . S
C1216 C1215 1.400 . S
C1216 C1219 1.386 . S
H1217 C1233 0.930 . S
H1218 C1234 0.931 . S
C1219 H1207 0.929 . S
C1219 C1213 1.390 . S
C1219 C1216 1.386 . S
C1220 C1215 1.490 . S
C1220 C1222 1.395 . S
C1220 C1223 1.403 . S
H1221 C1227 0.930 . S
C1222 H1208 0.930 . S
C1222 C1220 1.395 . S
C1222 C1225 1.403 . S
C1223 C1220 1.403 . S
C1223 C1224 1.524 . S
C1223 C1227 1.400 . S
C1224 H1209 0.960 . S
C1224 H1210 0.960 . S
C1224 H1211 0.960 . S
C1224 C1223 1.524 . S
C1225 C1222 1.403 . S
C1225 C1226 1.392 . S
C1225 C1229 1.495 . S
C1226 C1225 1.392 . S
C1226 C1227 1.385 . S
C1226 C1228 1.478 . S
C1227 H1221 0.930 . S
C1227 C1223 1.400 . S
C1227 C1226 1.385 . S
C1228 C1226 1.478 . S
C1228 C1230 1.381 . S
C1228 C1234 1.383 . S
C1229 C1225 1.495 . S
C1229 H1235 0.959 . S
C1229 H1236 0.961 . S
C1229 H1237 0.960 . S
C1230 C1228 1.381 . S
C1230 C1231 1.394 . S
C1230 H1238 0.930 . S
C1231 C1230 1.394 . S
C1231 C1232 1.383 . S
C1231 H1239 0.929 . S
C1232 C1231 1.383 . S
C1232 C1233 1.377 . S
C1233 H1217 0.930 . S
C1233 C1232 1.377 . S
C1233 C1234 1.379 . S
C1234 H1218 0.931 . S
C1234 C1228 1.383 . S
C1234 C1233 1.379 . S
H1235 C1229 0.959 . S
H1236 C1229 0.961 . S
H1237 C1229 0.960 . S
H1238 C1230 0.930 . S
H1239 C1231 0.929 . S
H1240 C1248 0.929 . S
H1241 C1250 0.930 . S
H1242 C1252 0.930 . S
H1243 C1255 0.929 . S
H1244 C1258 0.930 . S
H1245 C1260 0.960 . S
H1246 C1260 0.960 . S
H1247 C1260 0.960 . S
C1248 H1240 0.929 . S
C1248 C1249 1.377 . S
C1248 C1250 1.384 . S
C1249 C1248 1.377 . S
C1249 C1255 1.390 . S
C1250 H1241 0.930 . S
C1250 C1248 1.384 . S
C1250 C1251 1.372 . S
C1251 C1250 1.372 . S
C1251 C1252 1.400 . S
C1251 C1256 1.490 . S
C1252 H1242 0.930 . S
C1252 C1251 1.400 . S
C1252 C1255 1.386 . S
H1253 C1269 0.930 . S
H1254 C1270 0.931 . S
C1255 H1243 0.929 . S
C1255 C1249 1.390 . S
C1255 C1252 1.386 . S
C1256 C1251 1.490 . S
C1256 C1258 1.395 . S
C1256 C1259 1.403 . S
H1257 C1263 0.930 . S
C1258 H1244 0.930 . S
C1258 C1256 1.395 . S
C1258 C1261 1.403 . S
C1259 C1256 1.403 . S
C1259 C1260 1.524 . S
C1259 C1263 1.400 . S
C1260 H1245 0.960 . S
C1260 H1246 0.960 . S
C1260 H1247 0.960 . S
C1260 C1259 1.524 . S
C1261 C1258 1.403 . S
C1261 C1262 1.392 . S
C1261 C1265 1.495 . S
C1262 C1261 1.392 . S
C1262 C1263 1.385 . S
C1262 C1264 1.478 . S
C1263 H1257 0.930 . S
C1263 C1259 1.400 . S
C1263 C1262 1.385 . S
C1264 C1262 1.478 . S
C1264 C1266 1.381 . S
C1264 C1270 1.383 . S
C1265 C1261 1.495 . S
C1265 H1271 0.959 . S
C1265 H1272 0.961 . S
C1265 H1273 0.960 . S
C1266 C1264 1.381 . S
C1266 C1267 1.394 . S
C1266 H1274 0.930 . S
C1267 C1266 1.394 . S
C1267 C1268 1.383 . S
C1267 H1275 0.929 . S
C1268 C1267 1.383 . S
C1268 C1269 1.377 . S
C1269 H1253 0.930 . S
C1269 C1268 1.377 . S
C1269 C1270 1.379 . S
C1270 H1254 0.931 . S
C1270 C1264 1.383 . S
C1270 C1269 1.379 . S
H1271 C1265 0.959 . S
H1272 C1265 0.961 . S
H1273 C1265 0.960 . S
H1274 C1266 0.930 . S
H1275 C1267 0.929 . S
H1276 C1284 0.929 . S
H1277 C1286 0.883 1_565 S
H1278 C1288 0.930 . S
H1279 C1291 0.929 . S
H1280 C1294 0.930 . S
H1281 C1296 0.960 . S
H1282 C1296 0.960 . S
H1283 C1296 0.960 . S
C1284 H1276 0.929 . S
C1284 C1285 1.377 . S
C1284 C1286 1.384 . S
C1285 C1284 1.377 . S
C1285 C1291 1.390 . S
C1286 H1277 0.883 1_545 S
C1286 C1284 1.384 . S
C1286 C1287 1.372 . S
C1287 C1286 1.372 . S
C1287 C1288 1.400 . S
C1287 C1292 1.490 . S
C1288 H1278 0.930 . S
C1288 C1287 1.400 . S
C1288 C1291 1.386 . S
H1289 C1305 0.930 . S
H1290 C1306 0.931 . S
C1291 H1279 0.929 . S
C1291 C1285 1.390 . S
C1291 C1288 1.386 . S
C1292 C1287 1.490 . S
C1292 C1294 1.395 . S
C1292 C1295 1.403 . S
H1293 C1299 0.930 . S
C1294 H1280 0.930 . S
C1294 C1292 1.395 . S
C1294 C1297 1.403 . S
C1295 C1292 1.403 . S
C1295 C1296 1.524 . S
C1295 C1299 1.400 . S
C1296 H1281 0.960 . S
C1296 H1282 0.960 . S
C1296 H1283 0.960 . S
C1296 C1295 1.524 . S
C1297 C1294 1.403 . S
C1297 C1298 1.392 . S
C1297 C1301 1.495 . S
C1298 C1297 1.392 . S
C1298 C1299 1.385 . S
C1298 C1300 1.478 . S
C1299 H1293 0.930 . S
C1299 C1295 1.400 . S
C1299 C1298 1.385 . S
C1300 C1298 1.478 . S
C1300 C1302 1.381 . S
C1300 C1306 1.383 . S
C1301 C1297 1.495 . S
C1301 H1307 0.963 . S
C1301 H1308 0.961 . S
C1301 H1309 0.960 1_545 S
C1302 C1300 1.381 . S
C1302 C1303 1.397 . S
C1302 H1310 0.930 1_545 S
C1303 C1302 1.397 . S
C1303 C1304 1.419 . S
C1303 H1311 0.891 1_545 S
C1304 C1303 1.419 . S
C1304 C1305 1.377 . S
C1305 H1289 0.930 . S
C1305 C1304 1.377 . S
C1305 C1306 1.379 . S
C1306 H1290 0.931 . S
C1306 C1300 1.383 . S
C1306 C1305 1.379 . S
H1307 C1301 0.963 . S
H1308 C1301 0.961 . S
H1309 C1301 0.960 1_565 S
H1310 C1302 0.930 1_565 S
H1311 C1303 0.891 1_565 S
H1312 C1320 0.929 . S
H1313 C1322 0.930 . S
H1314 C1324 0.930 . S
H1315 C1327 0.929 . S
H1316 C1330 0.930 . S
H1317 C1332 0.960 . S
H1318 C1332 0.960 . S
H1319 C1332 0.960 . S
C1320 H1312 0.929 . S
C1320 C1321 1.377 . S
C1320 C1322 1.384 . S
C1321 C1320 1.377 . S
C1321 C1327 1.390 . S
C1322 H1313 0.930 . S
C1322 C1320 1.384 . S
C1322 C1323 1.372 . S
C1323 C1322 1.372 . S
C1323 C1324 1.400 . S
C1323 C1328 1.490 . S
C1324 H1314 0.930 . S
C1324 C1323 1.400 . S
C1324 C1327 1.386 . S
H1325 C1341 0.930 . S
H1326 C1342 0.931 . S
C1327 H1315 0.929 . S
C1327 C1321 1.390 . S
C1327 C1324 1.386 . S
C1328 C1323 1.490 . S
C1328 C1330 1.395 . S
C1328 C1331 1.403 . S
H1329 C1335 0.930 . S
C1330 H1316 0.930 . S
C1330 C1328 1.395 . S
C1330 C1333 1.403 . S
C1331 C1328 1.403 . S
C1331 C1332 1.524 . S
C1331 C1335 1.400 . S
C1332 H1317 0.960 . S
C1332 H1318 0.960 . S
C1332 H1319 0.960 . S
C1332 C1331 1.524 . S
C1333 C1330 1.403 . S
C1333 C1334 1.392 . S
C1333 C1337 1.495 . S
C1334 C1333 1.392 . S
C1334 C1335 1.385 . S
C1334 C1336 1.478 . S
C1335 H1329 0.930 . S
C1335 C1331 1.400 . S
C1335 C1334 1.385 . S
C1336 C1334 1.478 . S
C1336 C1338 1.381 . S
C1336 C1342 1.383 . S
C1337 C1333 1.495 . S
C1337 H1343 0.959 . S
C1337 H1344 0.961 . S
C1337 H1345 0.960 . S
C1338 C1336 1.381 . S
C1338 C1339 1.394 . S
C1338 H1346 0.930 . S
C1339 C1338 1.394 . S
C1339 C1340 1.383 . S
C1339 H1347 0.929 . S
C1340 C1339 1.383 . S
C1340 C1341 1.377 . S
C1341 H1325 0.930 . S
C1341 C1340 1.377 . S
C1341 C1342 1.379 . S
C1342 H1326 0.931 . S
C1342 C1336 1.383 . S
C1342 C1341 1.379 . S
H1343 C1337 0.959 . S
H1344 C1337 0.961 . S
H1345 C1337 0.960 . S
H1346 C1338 0.930 . S
H1347 C1339 0.929 . S
H1348 C1356 0.929 . S
H1349 C1358 0.930 . S
H1350 C1360 0.930 . S
H1351 C1363 0.929 . S
H1352 C1366 0.930 . S
H1353 C1368 0.960 . S
H1354 C1368 0.960 . S
H1355 C1368 0.960 . S
C1356 H1348 0.929 . S
C1356 C1357 1.377 . S
C1356 C1358 1.384 . S
C1357 C1356 1.377 . S
C1357 C1363 1.390 . S
C1358 H1349 0.930 . S
C1358 C1356 1.384 . S
C1358 C1359 1.372 . S
C1359 C1358 1.372 . S
C1359 C1360 1.400 . S
C1359 C1364 1.490 . S
C1360 H1350 0.930 . S
C1360 C1359 1.400 . S
C1360 C1363 1.386 . S
H1361 C1377 0.930 . S
H1362 C1378 0.931 . S
C1363 H1351 0.929 . S
C1363 C1357 1.390 . S
C1363 C1360 1.386 . S
C1364 C1359 1.490 . S
C1364 C1366 1.395 . S
C1364 C1367 1.403 . S
H1365 C1371 0.930 . S
C1366 H1352 0.930 . S
C1366 C1364 1.395 . S
C1366 C1369 1.403 . S
C1367 C1364 1.403 . S
C1367 C1368 1.524 . S
C1367 C1371 1.400 . S
C1368 H1353 0.960 . S
C1368 H1354 0.960 . S
C1368 H1355 0.960 . S
C1368 C1367 1.524 . S
C1369 C1366 1.403 . S
C1369 C1370 1.392 . S
C1369 C1373 1.495 . S
C1370 C1369 1.392 . S
C1370 C1371 1.385 . S
C1370 C1372 1.478 . S
C1371 H1365 0.930 . S
C1371 C1367 1.400 . S
C1371 C1370 1.385 . S
C1372 C1370 1.478 . S
C1372 C1374 1.381 . S
C1372 C1378 1.383 . S
C1373 C1369 1.495 . S
C1373 H1379 0.959 . S
C1373 H1380 0.961 . S
C1373 H1381 0.960 . S
C1374 C1372 1.381 . S
C1374 C1375 1.394 . S
C1374 H1382 0.930 . S
C1375 C1374 1.394 . S
C1375 C1376 1.383 . S
C1375 H1383 0.929 . S
C1376 C1375 1.383 . S
C1376 C1377 1.377 . S
C1377 H1361 0.930 . S
C1377 C1376 1.377 . S
C1377 C1378 1.379 . S
C1378 H1362 0.931 . S
C1378 C1372 1.383 . S
C1378 C1377 1.379 . S
H1379 C1373 0.959 . S
H1380 C1373 0.961 . S
H1381 C1373 0.960 . S
H1382 C1374 0.930 . S
H1383 C1375 0.929 . S
H1384 C1392 0.929 . S
H1385 C1394 0.930 . S
H1386 C1396 0.930 . S
H1387 C1399 0.929 . S
H1388 C1402 0.930 . S
H1389 C1404 0.960 . S
H1390 C1404 0.960 . S
H1391 C1404 0.960 . S
C1392 H1384 0.929 . S
C1392 C1393 1.377 . S
C1392 C1394 1.384 . S
C1393 C1392 1.377 . S
C1393 C1399 1.390 . S
C1394 H1385 0.930 . S
C1394 C1392 1.384 . S
C1394 C1395 1.372 . S
C1395 C1394 1.372 . S
C1395 C1396 1.400 . S
C1395 C1400 1.490 . S
C1396 H1386 0.930 . S
C1396 C1395 1.400 . S
C1396 C1399 1.386 . S
H1397 C1413 0.930 . S
H1398 C1414 0.931 . S
C1399 H1387 0.929 . S
C1399 C1393 1.390 . S
C1399 C1396 1.386 . S
C1400 C1395 1.490 . S
C1400 C1402 1.395 . S
C1400 C1403 1.403 . S
H1401 C1407 0.930 . S
C1402 H1388 0.930 . S
C1402 C1400 1.395 . S
C1402 C1405 1.403 . S
C1403 C1400 1.403 . S
C1403 C1404 1.524 . S
C1403 C1407 1.400 . S
C1404 H1389 0.960 . S
C1404 H1390 0.960 . S
C1404 H1391 0.960 . S
C1404 C1403 1.524 . S
C1405 C1402 1.403 . S
C1405 C1406 1.392 . S
C1405 C1409 1.495 . S
C1406 C1405 1.392 . S
C1406 C1407 1.385 . S
C1406 C1408 1.478 . S
C1407 H1401 0.930 . S
C1407 C1403 1.400 . S
C1407 C1406 1.385 . S
C1408 C1406 1.478 . S
C1408 C1410 1.381 . S
C1408 C1414 1.383 . S
C1409 C1405 1.495 . S
C1409 H1415 0.959 . S
C1409 H1416 0.961 . S
C1409 H1417 0.960 . S
C1410 C1408 1.381 . S
C1410 C1411 1.394 . S
C1410 H1418 0.930 . S
C1411 C1410 1.394 . S
C1411 C1412 1.383 . S
C1411 H1419 0.929 . S
C1412 C1411 1.383 . S
C1412 C1413 1.377 . S
C1413 H1397 0.930 . S
C1413 C1412 1.377 . S
C1413 C1414 1.379 . S
C1414 H1398 0.931 . S
C1414 C1408 1.383 . S
C1414 C1413 1.379 . S
H1415 C1409 0.959 . S
H1416 C1409 0.961 . S
H1417 C1409 0.960 . S
H1418 C1410 0.930 . S
H1419 C1411 0.929 . S
H1420 C1428 0.929 1_455 S
H1421 C1430 0.930 . S
H1422 C1432 0.930 . S
H1423 C1435 0.929 . S
H1424 C1438 0.930 . S
H1425 C1440 0.960 . S
H1426 C1440 0.960 . S
H1427 C1440 0.960 . S
C1428 H1420 0.929 1_655 S
C1428 C1429 1.377 1_565 S
C1428 C1430 1.384 . S
C1429 C1428 1.377 1_545 S
C1429 C1435 1.390 . S
C1430 H1421 0.930 . S
C1430 C1428 1.384 . S
C1430 C1431 1.372 1_565 S
C1431 C1430 1.372 1_545 S
C1431 C1432 1.400 . S
C1431 C1436 1.490 . S
C1432 H1422 0.930 . S
C1432 C1431 1.400 . S
C1432 C1435 1.386 . S
H1433 C1449 0.930 . S
H1434 C1450 0.931 . S
C1435 H1423 0.929 . S
C1435 C1429 1.390 . S
C1435 C1432 1.386 . S
C1436 C1431 1.490 . S
C1436 C1438 1.395 . S
C1436 C1439 1.403 1_545 S
H1437 C1443 0.930 . S
C1438 H1424 0.930 . S
C1438 C1436 1.395 . S
C1438 C1441 1.403 . S
C1439 C1436 1.403 1_565 S
C1439 C1440 1.524 . S
C1439 C1443 1.400 . S
C1440 H1425 0.960 . S
C1440 H1426 0.960 . S
C1440 H1427 0.960 . S
C1440 C1439 1.524 . S
C1441 C1438 1.403 . S
C1441 C1442 1.392 . S
C1441 C1445 1.495 . S
C1442 C1441 1.392 . S
C1442 C1443 1.385 1_545 S
C1442 C1444 1.478 . S
C1443 H1437 0.930 . S
C1443 C1439 1.400 . S
C1443 C1442 1.385 1_565 S
C1444 C1442 1.478 . S
C1444 C1446 1.400 . S
C1444 C1450 1.383 . S
C1445 C1441 1.495 . S
C1445 H1451 0.959 . S
C1445 H1452 0.961 . S
C1445 H1453 0.960 . S
C1446 C1444 1.400 . S
C1446 C1447 1.393 . S
C1446 H1454 0.914 1_545 S
C1447 C1446 1.393 . S
C1447 C1448 1.388 . S
C1447 H1455 0.924 1_545 S
C1448 C1447 1.388 . S
C1448 C1449 1.377 . S
C1449 H1433 0.930 . S
C1449 C1448 1.377 . S
C1449 C1450 1.379 . S
C1450 H1434 0.931 . S
C1450 C1444 1.383 . S
C1450 C1449 1.379 . S
H1451 C1445 0.959 . S
H1452 C1445 0.961 . S
H1453 C1445 0.960 . S
H1454 C1446 0.914 1_565 S
H1455 C1447 0.924 1_565 S
H1456 C1464 0.929 . S
H1457 C1466 0.930 . S
H1458 C1468 0.930 . S
H1459 C1471 0.929 . S
H1460 C1474 0.930 . S
H1461 C1476 0.960 . S
H1462 C1476 0.960 . S
H1463 C1476 0.960 . S
C1464 H1456 0.929 . S
C1464 C1465 1.377 . S
C1464 C1466 1.384 . S
C1465 C1464 1.377 . S
C1465 C1471 1.390 . S
C1466 H1457 0.930 . S
C1466 C1464 1.384 . S
C1466 C1467 1.372 . S
C1467 C1466 1.372 . S
C1467 C1468 1.400 . S
C1467 C1472 1.490 . S
C1468 H1458 0.930 . S
C1468 C1467 1.400 . S
C1468 C1471 1.386 . S
H1469 C1485 0.930 . S
H1470 C1486 0.931 . S
C1471 H1459 0.929 . S
C1471 C1465 1.390 . S
C1471 C1468 1.386 . S
C1472 C1467 1.490 . S
C1472 C1474 1.395 . S
C1472 C1475 1.403 . S
H1473 C1479 0.930 . S
C1474 H1460 0.930 . S
C1474 C1472 1.395 . S
C1474 C1477 1.403 . S
C1475 C1472 1.403 . S
C1475 C1476 1.524 . S
C1475 C1479 1.400 . S
C1476 H1461 0.960 . S
C1476 H1462 0.960 . S
C1476 H1463 0.960 . S
C1476 C1475 1.524 . S
C1477 C1474 1.403 . S
C1477 C1478 1.392 . S
C1477 C1481 1.495 . S
C1478 C1477 1.392 . S
C1478 C1479 1.385 . S
C1478 C1480 1.478 . S
C1479 H1473 0.930 . S
C1479 C1475 1.400 . S
C1479 C1478 1.385 . S
C1480 C1478 1.478 . S
C1480 C1482 1.381 . S
C1480 C1486 1.383 . S
C1481 C1477 1.495 . S
C1481 H1487 0.959 . S
C1481 H1488 0.961 . S
C1481 H1489 0.960 . S
C1482 C1480 1.381 . S
C1482 C1483 1.394 . S
C1482 H1490 0.930 . S
C1483 C1482 1.394 . S
C1483 C1484 1.383 . S
C1483 H1491 0.929 . S
C1484 C1483 1.383 . S
C1484 C1485 1.377 . S
C1485 H1469 0.930 . S
C1485 C1484 1.377 . S
C1485 C1486 1.379 . S
C1486 H1470 0.931 . S
C1486 C1480 1.383 . S
C1486 C1485 1.379 . S
H1487 C1481 0.959 . S
H1488 C1481 0.961 . S
H1489 C1481 0.960 . S
H1490 C1482 0.930 . S
H1491 C1483 0.929 . S
H1492 C1500 0.929 . S
H1493 C1502 0.930 . S
H1494 C1504 0.930 . S
H1495 C1507 0.929 . S
H1496 C1510 0.930 . S
H1497 C1512 0.960 . S
H1498 C1512 0.960 . S
H1499 C1512 0.960 . S
C1500 H1492 0.929 . S
C1500 C1501 1.377 1_655 S
C1500 C1502 1.384 1_655 S
C1501 C1500 1.377 1_455 S
C1501 C1507 1.390 . S
C1502 H1493 0.930 . S
C1502 C1500 1.384 1_455 S
C1502 C1503 1.372 . S
C1503 C1502 1.372 . S
C1503 C1504 1.400 . S
C1503 C1508 1.490 . S
C1504 H1494 0.930 . S
C1504 C1503 1.400 . S
C1504 C1507 1.386 . S
H1505 C1521 0.930 . S
H1506 C1522 0.931 . S
C1507 H1495 0.929 . S
C1507 C1501 1.390 . S
C1507 C1504 1.386 . S
C1508 C1503 1.490 . S
C1508 C1510 1.395 . S
C1508 C1511 1.403 . S
H1509 C1515 0.930 . S
C1510 H1496 0.930 . S
C1510 C1508 1.395 . S
C1510 C1513 1.403 . S
C1511 C1508 1.403 . S
C1511 C1512 1.524 . S
C1511 C1515 1.400 . S
C1512 H1497 0.960 . S
C1512 H1498 0.960 . S
C1512 H1499 0.960 . S
C1512 C1511 1.524 . S
C1513 C1510 1.403 . S
C1513 C1514 1.392 . S
C1513 C1517 1.495 . S
C1514 C1513 1.392 . S
C1514 C1515 1.385 . S
C1514 C1516 1.478 . S
C1515 H1509 0.930 . S
C1515 C1511 1.400 . S
C1515 C1514 1.385 . S
C1516 C1514 1.478 . S
C1516 C1518 1.381 . S
C1516 C1522 1.383 . S
C1517 C1513 1.495 . S
C1517 H1523 0.959 . S
C1517 H1524 0.961 . S
C1517 H1525 0.960 . S
C1518 C1516 1.381 . S
C1518 C1519 1.394 . S
C1518 H1526 0.930 . S
C1519 C1518 1.394 . S
C1519 C1520 1.383 . S
C1519 H1527 0.929 . S
C1520 C1519 1.383 . S
C1520 C1521 1.377 . S
C1521 H1505 0.930 . S
C1521 C1520 1.377 . S
C1521 C1522 1.379 . S
C1522 H1506 0.931 . S
C1522 C1516 1.383 . S
C1522 C1521 1.379 . S
H1523 C1517 0.959 . S
H1524 C1517 0.961 . S
H1525 C1517 0.960 . S
H1526 C1518 0.930 . S
H1527 C1519 0.929 . S
H1528 C1536 0.929 . S
H1529 C1538 0.930 . S
H1530 C1540 0.930 . S
H1531 C1543 0.929 . S
H1532 C1546 0.930 . S
H1533 C1548 0.960 . S
H1534 C1548 0.960 . S
H1535 C1548 0.960 . S
C1536 H1528 0.929 . S
C1536 C1537 1.377 . S
C1536 C1538 1.384 . S
C1537 C1536 1.377 . S
C1537 C1543 1.390 . S
C1538 H1529 0.930 . S
C1538 C1536 1.384 . S
C1538 C1539 1.372 . S
C1539 C1538 1.372 . S
C1539 C1540 1.400 . S
C1539 C1544 1.490 . S
C1540 H1530 0.930 . S
C1540 C1539 1.400 . S
C1540 C1543 1.386 . S
H1541 C1557 0.930 . S
H1542 C1558 0.931 . S
C1543 H1531 0.929 . S
C1543 C1537 1.390 . S
C1543 C1540 1.386 . S
C1544 C1539 1.490 . S
C1544 C1546 1.395 . S
C1544 C1547 1.403 . S
H1545 C1551 0.930 . S
C1546 H1532 0.930 . S
C1546 C1544 1.395 . S
C1546 C1549 1.403 . S
C1547 C1544 1.403 . S
C1547 C1548 1.524 . S
C1547 C1551 1.400 . S
C1548 H1533 0.960 . S
C1548 H1534 0.960 . S
C1548 H1535 0.960 . S
C1548 C1547 1.524 . S
C1549 C1546 1.403 . S
C1549 C1550 1.392 . S
C1549 C1553 1.495 . S
C1550 C1549 1.392 . S
C1550 C1551 1.385 . S
C1550 C1552 1.478 . S
C1551 H1545 0.930 . S
C1551 C1547 1.400 . S
C1551 C1550 1.385 . S
C1552 C1550 1.478 . S
C1552 C1554 1.381 . S
C1552 C1558 1.383 . S
C1553 C1549 1.495 . S
C1553 H1559 0.959 . S
C1553 H1560 0.961 . S
C1553 H1561 0.960 . S
C1554 C1552 1.381 . S
C1554 C1555 1.394 . S
C1554 H1562 0.930 . S
C1555 C1554 1.394 . S
C1555 C1556 1.383 . S
C1555 H1563 0.929 . S
C1556 C1555 1.383 . S
C1556 C1557 1.377 . S
C1557 H1541 0.930 . S
C1557 C1556 1.377 . S
C1557 C1558 1.379 . S
C1558 H1542 0.931 . S
C1558 C1552 1.383 . S
C1558 C1557 1.379 . S
H1559 C1553 0.959 . S
H1560 C1553 0.961 . S
H1561 C1553 0.960 . S
H1562 C1554 0.930 . S
H1563 C1555 0.929 . S
H1564 C1572 0.929 . S
H1565 C1574 0.930 . S
H1566 C1576 0.930 . S
H1567 C1579 0.943 . S
H1568 C1582 0.929 1_554 S
H1569 C1584 0.960 . S
H1570 C1584 0.960 . S
H1571 C1584 0.960 . S
C1572 H1564 0.929 . S
C1572 C1573 1.377 . S
C1572 C1574 1.384 . S
C1573 C1572 1.377 . S
C1573 C1579 1.371 1_655 S
C1574 H1565 0.930 . S
C1574 C1572 1.384 . S
C1574 C1575 1.372 . S
C1575 C1574 1.372 . S
C1575 C1576 1.400 1_655 S
C1575 C1580 1.490 . S
C1576 H1566 0.930 . S
C1576 C1575 1.400 1_455 S
C1576 C1579 1.392 . S
H1577 C1593 0.930 . S
H1578 C1594 0.931 . S
C1579 H1567 0.943 . S
C1579 C1573 1.371 1_455 S
C1579 C1576 1.392 . S
C1580 C1575 1.490 . S
C1580 C1582 1.381 1_554 S
C1580 C1583 1.403 1_655 S
H1581 C1587 0.930 . S
C1582 H1568 0.929 1_556 S
C1582 C1580 1.381 1_556 S
C1582 C1585 1.419 . S
C1583 C1580 1.403 1_455 S
C1583 C1584 1.524 . S
C1583 C1587 1.400 1_554 S
C1584 H1569 0.960 . S
C1584 H1570 0.960 . S
C1584 H1571 0.960 . S
C1584 C1583 1.524 . S
C1585 C1582 1.419 . S
C1585 C1586 1.392 . S
C1585 C1589 1.495 . S
C1586 C1585 1.392 . S
C1586 C1587 1.385 1_655 S
C1586 C1588 1.478 . S
C1587 H1581 0.930 . S
C1587 C1583 1.400 1_556 S
C1587 C1586 1.385 1_455 S
C1588 C1586 1.478 . S
C1588 C1590 1.381 . S
C1588 C1594 1.383 1_655 S
C1589 C1585 1.495 . S
C1589 H1595 0.959 . S
C1589 H1596 0.961 . S
C1589 H1597 0.960 . S
C1590 C1588 1.381 . S
C1590 C1591 1.394 . S
C1590 H1598 0.930 . S
C1591 C1590 1.394 . S
C1591 C1592 1.383 1_655 S
C1591 H1599 0.929 . S
C1592 C1591 1.383 1_455 S
C1592 C1593 1.377 . S
C1593 H1577 0.930 . S
C1593 C1592 1.377 . S
C1593 C1594 1.379 . S
C1594 H1578 0.931 . S
C1594 C1588 1.383 1_455 S
C1594 C1593 1.379 . S
H1595 C1589 0.959 . S
H1596 C1589 0.961 . S
H1597 C1589 0.960 . S
H1598 C1590 0.930 . S
H1599 C1591 0.929 . S
H1600 C1608 0.929 . S
H1601 C1610 0.930 . S
H1602 C1612 0.930 . S
H1603 C1615 0.929 . S
H1604 C1618 0.930 . S
H1605 C1620 0.960 . S
H1606 C1620 0.960 . S
H1607 C1620 0.960 . S
C1608 H1600 0.929 . S
C1608 C1609 1.377 . S
C1608 C1610 1.384 . S
C1609 C1608 1.377 . S
C1609 C1615 1.390 . S
C1610 H1601 0.930 . S
C1610 C1608 1.384 . S
C1610 C1611 1.372 . S
C1611 C1610 1.372 . S
C1611 C1612 1.400 . S
C1611 C1616 1.490 . S
C1612 H1602 0.930 . S
C1612 C1611 1.400 . S
C1612 C1615 1.386 . S
H1613 C1629 0.930 . S
H1614 C1630 0.931 . S
C1615 H1603 0.929 . S
C1615 C1609 1.390 . S
C1615 C1612 1.386 . S
C1616 C1611 1.490 . S
C1616 C1618 1.395 . S
C1616 C1619 1.403 . S
H1617 C1623 0.930 . S
C1618 H1604 0.930 . S
C1618 C1616 1.395 . S
C1618 C1621 1.403 . S
C1619 C1616 1.403 . S
C1619 C1620 1.524 . S
C1619 C1623 1.400 . S
C1620 H1605 0.960 . S
C1620 H1606 0.960 . S
C1620 H1607 0.960 . S
C1620 C1619 1.524 . S
C1621 C1618 1.403 . S
C1621 C1622 1.392 . S
C1621 C1625 1.495 . S
C1622 C1621 1.392 . S
C1622 C1623 1.385 . S
C1622 C1624 1.478 . S
C1623 H1617 0.930 . S
C1623 C1619 1.400 . S
C1623 C1622 1.385 . S
C1624 C1622 1.478 . S
C1624 C1626 1.381 . S
C1624 C1630 1.383 . S
C1625 C1621 1.495 . S
C1625 H1631 0.959 . S
C1625 H1632 0.961 . S
C1625 H1633 0.960 . S
C1626 C1624 1.381 . S
C1626 C1627 1.394 . S
C1626 H1634 0.930 . S
C1627 C1626 1.394 . S
C1627 C1628 1.383 . S
C1627 H1635 0.929 . S
C1628 C1627 1.383 . S
C1628 C1629 1.377 . S
C1629 H1613 0.930 . S
C1629 C1628 1.377 . S
C1629 C1630 1.379 . S
C1630 H1614 0.931 . S
C1630 C1624 1.383 . S
C1630 C1629 1.379 . S
H1631 C1625 0.959 . S
H1632 C1625 0.961 . S
H1633 C1625 0.960 . S
H1634 C1626 0.930 . S
H1635 C1627 0.929 . S
H1636 C1644 0.929 . S
H1637 C1646 0.930 . S
H1638 C1648 0.930 1_556 S
H1639 C1651 0.929 . S
H1640 C1654 0.930 . S
H1641 C1656 0.960 . S
H1642 C1656 0.960 . S
H1643 C1656 0.960 . S
C1644 H1636 0.929 . S
C1644 C1645 1.377 1_655 S
C1644 C1646 1.384 . S
C1645 C1644 1.377 1_455 S
C1645 C1651 1.390 . S
C1646 H1637 0.930 . S
C1646 C1644 1.384 . S
C1646 C1647 1.372 1_655 S
C1647 C1646 1.372 1_455 S
C1647 C1648 1.400 . S
C1647 C1652 1.490 1_554 S
C1648 H1638 0.930 1_554 S
C1648 C1647 1.400 . S
C1648 C1651 1.386 . S
H1649 C1665 0.930 . S
H1650 C1666 0.931 . S
C1651 H1639 0.929 . S
C1651 C1645 1.390 . S
C1651 C1648 1.386 . S
C1652 C1647 1.490 1_556 S
C1652 C1654 1.395 1_556 S
C1652 C1655 1.403 . S
H1653 C1659 0.930 . S
C1654 H1640 0.930 . S
C1654 C1652 1.395 1_554 S
C1654 C1657 1.403 1_554 S
C1655 C1652 1.403 . S
C1655 C1656 1.524 . S
C1655 C1659 1.400 . S
C1656 H1641 0.960 . S
C1656 H1642 0.960 . S
C1656 H1643 0.960 . S
C1656 C1655 1.524 . S
C1657 C1654 1.403 1_556 S
C1657 C1658 1.392 . S
C1657 C1661 1.508 1_556 S
C1658 C1657 1.392 . S
C1658 C1659 1.385 . S
C1658 C1660 1.478 . S
C1659 H1653 0.930 . S
C1659 C1655 1.400 . S
C1659 C1658 1.385 . S
C1660 C1658 1.478 . S
C1660 C1662 1.381 1_455 S
C1660 C1666 1.383 . S
C1661 C1657 1.508 1_554 S
C1661 H1667 0.952 1_455 S
C1661 H1668 0.987 . S
C1661 H1669 0.906 1_454 S
C1662 C1660 1.381 1_655 S
C1662 C1663 1.394 . S
C1662 H1670 0.930 . S
C1663 C1662 1.394 . S
C1663 C1664 1.383 1_655 S
C1663 H1671 0.929 . S
C1664 C1663 1.383 1_455 S
C1664 C1665 1.377 . S
C1665 H1649 0.930 . S
C1665 C1664 1.377 . S
C1665 C1666 1.379 . S
C1666 H1650 0.931 . S
C1666 C1660 1.383 . S
C1666 C1665 1.379 . S
H1667 C1661 0.952 1_655 S
H1668 C1661 0.987 . S
H1669 C1661 0.906 1_656 S
H1670 C1662 0.930 . S
H1671 C1663 0.929 . S
H1672 C1680 0.929 . S
H1673 C1682 0.930 . S
H1674 C1684 0.930 . S
H1675 C1687 0.929 . S
H1676 C1690 0.930 . S
H1677 C1692 0.960 . S
H1678 C1692 0.960 . S
H1679 C1692 0.960 . S
C1680 H1672 0.929 . S
C1680 C1681 1.377 . S
C1680 C1682 1.384 . S
C1681 C1680 1.377 . S
C1681 C1687 1.390 . S
C1682 H1673 0.930 . S
C1682 C1680 1.384 . S
C1682 C1683 1.372 . S
C1683 C1682 1.372 . S
C1683 C1684 1.400 . S
C1683 C1688 1.490 . S
C1684 H1674 0.930 . S
C1684 C1683 1.400 . S
C1684 C1687 1.386 . S
H1685 C1701 0.930 . S
H1686 C1702 0.931 . S
C1687 H1675 0.929 . S
C1687 C1681 1.390 . S
C1687 C1684 1.386 . S
C1688 C1683 1.490 . S
C1688 C1690 1.395 . S
C1688 C1691 1.403 . S
H1689 C1695 0.930 . S
C1690 H1676 0.930 . S
C1690 C1688 1.395 . S
C1690 C1693 1.403 . S
C1691 C1688 1.403 . S
C1691 C1692 1.524 . S
C1691 C1695 1.400 . S
C1692 H1677 0.960 . S
C1692 H1678 0.960 . S
C1692 H1679 0.960 . S
C1692 C1691 1.524 . S
C1693 C1690 1.403 . S
C1693 C1694 1.392 . S
C1693 C1697 1.495 . S
C1694 C1693 1.392 . S
C1694 C1695 1.385 . S
C1694 C1696 1.478 . S
C1695 H1689 0.930 . S
C1695 C1691 1.400 . S
C1695 C1694 1.385 . S
C1696 C1694 1.478 . S
C1696 C1698 1.381 . S
C1696 C1702 1.383 . S
C1697 C1693 1.495 . S
C1697 H1703 0.959 . S
C1697 H1704 0.961 . S
C1697 H1705 0.960 . S
C1698 C1696 1.381 . S
C1698 C1699 1.394 . S
C1698 H1706 0.930 . S
C1699 C1698 1.394 . S
C1699 C1700 1.383 . S
C1699 H1707 0.929 . S
C1700 C1699 1.383 . S
C1700 C1701 1.377 . S
C1701 H1685 0.930 . S
C1701 C1700 1.377 . S
C1701 C1702 1.379 . S
C1702 H1686 0.931 . S
C1702 C1696 1.383 . S
C1702 C1701 1.379 . S
H1703 C1697 0.959 . S
H1704 C1697 0.961 . S
H1705 C1697 0.960 . S
H1706 C1698 0.930 . S
H1707 C1699 0.929 . S
H1708 C1716 0.929 . S
H1709 C1718 0.930 . S
H1710 C1720 0.930 . S
H1711 C1723 0.929 . S
H1712 C1726 0.930 . S
H1713 C1728 0.960 . S
H1714 C1728 0.960 . S
H1715 C1728 0.960 . S
C1716 H1708 0.929 . S
C1716 C1717 1.377 1_554 S
C1716 C1718 1.384 . S
C1717 C1716 1.377 1_556 S
C1717 C1723 1.390 . S
C1718 H1709 0.930 . S
C1718 C1716 1.384 . S
C1718 C1719 1.372 . S
C1719 C1718 1.372 . S
C1719 C1720 1.400 1_554 S
C1719 C1724 1.490 . S
C1720 H1710 0.930 . S
C1720 C1719 1.400 1_556 S
C1720 C1723 1.386 . S
H1721 C1737 0.930 . S
H1722 C1738 0.931 . S
C1723 H1711 0.929 . S
C1723 C1717 1.390 . S
C1723 C1720 1.386 . S
C1724 C1719 1.490 . S
C1724 C1726 1.395 . S
C1724 C1727 1.403 . S
H1725 C1731 0.930 . S
C1726 H1712 0.930 . S
C1726 C1724 1.395 . S
C1726 C1729 1.403 . S
C1727 C1724 1.403 . S
C1727 C1728 1.524 . S
C1727 C1731 1.400 . S
C1728 H1713 0.960 . S
C1728 H1714 0.960 . S
C1728 H1715 0.960 . S
C1728 C1727 1.524 . S
C1729 C1726 1.403 . S
C1729 C1730 1.392 . S
C1729 C1733 1.495 . S
C1730 C1729 1.392 . S
C1730 C1731 1.385 . S
C1730 C1732 1.478 . S
C1731 H1725 0.930 . S
C1731 C1727 1.400 . S
C1731 C1730 1.385 . S
C1732 C1730 1.478 . S
C1732 C1734 1.381 . S
C1732 C1738 1.383 . S
C1733 C1729 1.495 . S
C1733 H1739 0.959 . S
C1733 H1740 0.961 . S
C1733 H1741 0.960 . S
C1734 C1732 1.381 . S
C1734 C1735 1.394 . S
C1734 H1742 0.930 . S
C1735 C1734 1.394 . S
C1735 C1736 1.383 . S
C1735 H1743 0.929 . S
C1736 C1735 1.383 . S
C1736 C1737 1.377 . S
C1737 H1721 0.930 . S
C1737 C1736 1.377 . S
C1737 C1738 1.379 . S
C1738 H1722 0.931 . S
C1738 C1732 1.383 . S
C1738 C1737 1.379 . S
H1739 C1733 0.959 . S
H1740 C1733 0.961 . S
H1741 C1733 0.960 . S
H1742 C1734 0.930 . S
H1743 C1735 0.929 . S
H1744 C1752 0.929 . S
H1745 C1754 0.930 . S
H1746 C1756 0.930 . S
H1747 C1759 0.929 . S
H1748 C1762 0.930 . S
H1749 C1764 0.960 . S
H1750 C1764 0.960 . S
H1751 C1764 0.960 . S
C1752 H1744 0.929 . S
C1752 C1753 1.377 . S
C1752 C1754 1.384 . S
C1753 C1752 1.377 . S
C1753 C1759 1.390 . S
C1754 H1745 0.930 . S
C1754 C1752 1.384 . S
C1754 C1755 1.372 . S
C1755 C1754 1.372 . S
C1755 C1756 1.400 . S
C1755 C1760 1.490 . S
C1756 H1746 0.930 . S
C1756 C1755 1.400 . S
C1756 C1759 1.386 . S
H1757 C1773 0.930 . S
H1758 C1774 0.931 . S
C1759 H1747 0.929 . S
C1759 C1753 1.390 . S
C1759 C1756 1.386 . S
C1760 C1755 1.490 . S
C1760 C1762 1.395 . S
C1760 C1763 1.403 . S
H1761 C1767 0.930 . S
C1762 H1748 0.930 . S
C1762 C1760 1.395 . S
C1762 C1765 1.403 . S
C1763 C1760 1.403 . S
C1763 C1764 1.524 . S
C1763 C1767 1.400 . S
C1764 H1749 0.960 . S
C1764 H1750 0.960 . S
C1764 H1751 0.960 . S
C1764 C1763 1.524 . S
C1765 C1762 1.403 . S
C1765 C1766 1.392 . S
C1765 C1769 1.495 . S
C1766 C1765 1.392 . S
C1766 C1767 1.385 . S
C1766 C1768 1.478 . S
C1767 H1761 0.930 . S
C1767 C1763 1.400 . S
C1767 C1766 1.385 . S
C1768 C1766 1.478 . S
C1768 C1770 1.381 . S
C1768 C1774 1.383 . S
C1769 C1765 1.495 . S
C1769 H1775 0.959 . S
C1769 H1776 0.961 . S
C1769 H1777 0.960 . S
C1770 C1768 1.381 . S
C1770 C1771 1.394 . S
C1770 H1778 0.930 . S
C1771 C1770 1.394 . S
C1771 C1772 1.383 . S
C1771 H1779 0.929 . S
C1772 C1771 1.383 . S
C1772 C1773 1.377 . S
C1773 H1757 0.930 . S
C1773 C1772 1.377 . S
C1773 C1774 1.379 . S
C1774 H1758 0.931 . S
C1774 C1768 1.383 . S
C1774 C1773 1.379 . S
H1775 C1769 0.959 . S
H1776 C1769 0.961 . S
H1777 C1769 0.960 . S
H1778 C1770 0.930 . S
H1779 C1771 0.929 . S
H1780 C1788 0.929 . S
H1781 C1790 0.930 . S
H1782 C1792 0.930 . S
H1783 C1795 0.929 . S
H1784 C1798 0.930 . S
H1785 C1800 0.960 . S
H1786 C1800 0.960 . S
H1787 C1800 0.960 1_556 S
C1788 H1780 0.929 . S
C1788 C1789 1.377 1_554 S
C1788 C1790 1.384 . S
C1789 C1788 1.377 1_556 S
C1789 C1795 1.390 . S
C1790 H1781 0.930 . S
C1790 C1788 1.384 . S
C1790 C1791 1.372 . S
C1791 C1790 1.372 . S
C1791 C1792 1.400 . S
C1791 C1796 1.490 . S
C1792 H1782 0.930 . S
C1792 C1791 1.400 . S
C1792 C1795 1.386 1_554 S
H1793 C1809 0.930 . S
H1794 C1810 0.931 . S
C1795 H1783 0.929 . S
C1795 C1789 1.390 . S
C1795 C1792 1.386 1_556 S
C1796 C1791 1.490 . S
C1796 C1798 1.395 . S
C1796 C1799 1.403 . S
H1797 C1803 0.930 . S
C1798 H1784 0.930 . S
C1798 C1796 1.395 . S
C1798 C1801 1.403 . S
C1799 C1796 1.403 . S
C1799 C1800 1.524 . S
C1799 C1803 1.400 . S
C1800 H1785 0.960 . S
C1800 H1786 0.960 . S
C1800 H1787 0.960 1_554 S
C1800 C1799 1.524 . S
C1801 C1798 1.403 . S
C1801 C1802 1.392 . S
C1801 C1805 1.495 . S
C1802 C1801 1.392 . S
C1802 C1803 1.385 . S
C1802 C1804 1.478 . S
C1803 H1797 0.930 . S
C1803 C1799 1.400 . S
C1803 C1802 1.385 . S
C1804 C1802 1.478 . S
C1804 C1806 1.381 . S
C1804 C1810 1.383 . S
C1805 C1801 1.495 . S
C1805 H1811 0.959 . S
C1805 H1812 0.961 . S
C1805 H1813 0.960 . S
C1806 C1804 1.381 . S
C1806 C1807 1.394 . S
C1806 H1814 0.930 . S
C1807 C1806 1.394 . S
C1807 C1808 1.383 . S
C1807 H1815 0.929 . S
C1808 C1807 1.383 . S
C1808 C1809 1.377 . S
C1809 H1793 0.930 . S
C1809 C1808 1.377 . S
C1809 C1810 1.379 . S
C1810 H1794 0.931 . S
C1810 C1804 1.383 . S
C1810 C1809 1.379 . S
H1811 C1805 0.959 . S
H1812 C1805 0.961 . S
H1813 C1805 0.960 . S
H1814 C1806 0.930 . S
H1815 C1807 0.929 . S
H1816 C1824 0.929 . S
H1817 C1826 0.930 . S
H1818 C1828 0.930 . S
H1819 C1831 0.929 . S
H1820 C1834 0.930 . S
H1821 C1836 0.960 . S
H1822 C1836 0.960 . S
H1823 C1836 0.960 . S
C1824 H1816 0.929 . S
C1824 C1825 1.377 . S
C1824 C1826 1.384 . S
C1825 C1824 1.377 . S
C1825 C1831 1.390 . S
C1826 H1817 0.930 . S
C1826 C1824 1.384 . S
C1826 C1827 1.372 . S
C1827 C1826 1.372 . S
C1827 C1828 1.400 . S
C1827 C1832 1.490 . S
C1828 H1818 0.930 . S
C1828 C1827 1.400 . S
C1828 C1831 1.386 . S
H1829 C1845 0.930 . S
H1830 C1846 0.931 . S
C1831 H1819 0.929 . S
C1831 C1825 1.390 . S
C1831 C1828 1.386 . S
C1832 C1827 1.490 . S
C1832 C1834 1.395 . S
C1832 C1835 1.403 . S
H1833 C1839 0.930 . S
C1834 H1820 0.930 . S
C1834 C1832 1.395 . S
C1834 C1837 1.403 . S
C1835 C1832 1.403 . S
C1835 C1836 1.524 . S
C1835 C1839 1.400 . S
C1836 H1821 0.960 . S
C1836 H1822 0.960 . S
C1836 H1823 0.960 . S
C1836 C1835 1.524 . S
C1837 C1834 1.403 . S
C1837 C1838 1.392 . S
C1837 C1841 1.495 . S
C1838 C1837 1.392 . S
C1838 C1839 1.385 . S
C1838 C1840 1.478 . S
C1839 H1833 0.930 . S
C1839 C1835 1.400 . S
C1839 C1838 1.385 . S
C1840 C1838 1.478 . S
C1840 C1842 1.381 . S
C1840 C1846 1.383 . S
C1841 C1837 1.495 . S
C1841 H1847 0.959 . S
C1841 H1848 0.961 . S
C1841 H1849 0.960 . S
C1842 C1840 1.381 . S
C1842 C1843 1.394 . S
C1842 H1850 0.930 . S
C1843 C1842 1.394 . S
C1843 C1844 1.383 . S
C1843 H1851 0.929 . S
C1844 C1843 1.383 . S
C1844 C1845 1.377 . S
C1845 H1829 0.930 . S
C1845 C1844 1.377 . S
C1845 C1846 1.379 . S
C1846 H1830 0.931 . S
C1846 C1840 1.383 . S
C1846 C1845 1.379 . S
H1847 C1841 0.959 . S
H1848 C1841 0.961 . S
H1849 C1841 0.960 . S
H1850 C1842 0.930 . S
H1851 C1843 0.929 . S
H1852 C1860 0.929 . S
H1853 C1862 0.930 . S
H1854 C1864 0.930 . S
H1855 C1867 0.929 . S
H1856 C1870 0.930 . S
H1857 C1872 0.960 . S
H1858 C1872 0.960 . S
H1859 C1872 0.960 . S
C1860 H1852 0.929 . S
C1860 C1861 1.377 . S
C1860 C1862 1.384 . S
C1861 C1860 1.377 . S
C1861 C1867 1.390 . S
C1862 H1853 0.930 . S
C1862 C1860 1.384 . S
C1862 C1863 1.372 . S
C1863 C1862 1.372 . S
C1863 C1864 1.400 . S
C1863 C1868 1.490 . S
C1864 H1854 0.930 . S
C1864 C1863 1.400 . S
C1864 C1867 1.386 . S
H1865 C1881 0.930 . S
H1866 C1882 0.931 . S
C1867 H1855 0.929 . S
C1867 C1861 1.390 . S
C1867 C1864 1.386 . S
C1868 C1863 1.490 . S
C1868 C1870 1.395 . S
C1868 C1871 1.403 . S
H1869 C1875 0.930 . S
C1870 H1856 0.930 . S
C1870 C1868 1.395 . S
C1870 C1873 1.403 . S
C1871 C1868 1.403 . S
C1871 C1872 1.524 . S
C1871 C1875 1.400 . S
C1872 H1857 0.960 . S
C1872 H1858 0.960 . S
C1872 H1859 0.960 . S
C1872 C1871 1.524 . S
C1873 C1870 1.403 . S
C1873 C1874 1.392 . S
C1873 C1877 1.495 . S
C1874 C1873 1.392 . S
C1874 C1875 1.385 . S
C1874 C1876 1.478 . S
C1875 H1869 0.930 . S
C1875 C1871 1.400 . S
C1875 C1874 1.385 . S
C1876 C1874 1.478 . S
C1876 C1878 1.381 . S
C1876 C1882 1.383 . S
C1877 C1873 1.495 . S
C1877 H1883 0.959 . S
C1877 H1884 0.961 . S
C1877 H1885 0.960 . S
C1878 C1876 1.381 . S
C1878 C1879 1.394 . S
C1878 H1886 0.930 . S
C1879 C1878 1.394 . S
C1879 C1880 1.383 . S
C1879 H1887 0.929 . S
C1880 C1879 1.383 . S
C1880 C1881 1.377 . S
C1881 H1865 0.930 . S
C1881 C1880 1.377 . S
C1881 C1882 1.379 . S
C1882 H1866 0.931 . S
C1882 C1876 1.383 . S
C1882 C1881 1.379 . S
H1883 C1877 0.959 . S
H1884 C1877 0.961 . S
H1885 C1877 0.960 . S
H1886 C1878 0.930 . S
H1887 C1879 0.929 . S
H1888 C1896 0.929 . S
H1889 C1898 0.930 . S
H1890 C1900 0.930 . S
H1891 C1903 0.929 . S
H1892 C1906 0.930 . S
H1893 C1908 0.960 . S
H1894 C1908 0.960 . S
H1895 C1908 0.960 . S
C1896 H1888 0.929 . S
C1896 C1897 1.377 . S
C1896 C1898 1.384 . S
C1897 C1896 1.377 . S
C1897 C1903 1.390 . S
C1898 H1889 0.930 . S
C1898 C1896 1.384 . S
C1898 C1899 1.372 . S
C1899 C1898 1.372 . S
C1899 C1900 1.400 . S
C1899 C1904 1.490 . S
C1900 H1890 0.930 . S
C1900 C1899 1.400 . S
C1900 C1903 1.386 . S
H1901 C1917 0.930 . S
H1902 C1918 0.931 . S
C1903 H1891 0.929 . S
C1903 C1897 1.390 . S
C1903 C1900 1.386 . S
C1904 C1899 1.490 . S
C1904 C1906 1.395 . S
C1904 C1907 1.403 . S
H1905 C1911 0.930 . S
C1906 H1892 0.930 . S
C1906 C1904 1.395 . S
C1906 C1909 1.403 . S
C1907 C1904 1.403 . S
C1907 C1908 1.524 . S
C1907 C1911 1.400 . S
C1908 H1893 0.960 . S
C1908 H1894 0.960 . S
C1908 H1895 0.960 . S
C1908 C1907 1.524 . S
C1909 C1906 1.403 . S
C1909 C1910 1.392 . S
C1909 C1913 1.495 . S
C1910 C1909 1.392 . S
C1910 C1911 1.385 . S
C1910 C1912 1.478 . S
C1911 H1905 0.930 . S
C1911 C1907 1.400 . S
C1911 C1910 1.385 . S
C1912 C1910 1.478 . S
C1912 C1914 1.381 . S
C1912 C1918 1.383 . S
C1913 C1909 1.495 . S
C1913 H1919 0.959 . S
C1913 H1920 0.961 . S
C1913 H1921 0.960 . S
C1914 C1912 1.381 . S
C1914 C1915 1.394 . S
C1914 H1922 0.930 . S
C1915 C1914 1.394 . S
C1915 C1916 1.383 . S
C1915 H1923 0.929 . S
C1916 C1915 1.383 . S
C1916 C1917 1.377 . S
C1917 H1901 0.930 . S
C1917 C1916 1.377 . S
C1917 C1918 1.379 . S
C1918 H1902 0.931 . S
C1918 C1912 1.383 . S
C1918 C1917 1.379 . S
H1919 C1913 0.959 . S
H1920 C1913 0.961 . S
H1921 C1913 0.960 . S
H1922 C1914 0.930 . S
H1923 C1915 0.929 . S
H1924 C1932 0.929 . S
H1925 C1934 0.930 . S
H1926 C1936 0.930 . S
H1927 C1939 0.929 . S
H1928 C1942 0.930 . S
H1929 C1944 0.960 . S
H1930 C1944 0.960 . S
H1931 C1944 0.960 . S
C1932 H1924 0.929 . S
C1932 C1933 1.377 . S
C1932 C1934 1.384 . S
C1933 C1932 1.377 . S
C1933 C1939 1.390 . S
C1934 H1925 0.930 . S
C1934 C1932 1.384 . S
C1934 C1935 1.372 . S
C1935 C1934 1.372 . S
C1935 C1936 1.400 . S
C1935 C1940 1.490 . S
C1936 H1926 0.930 . S
C1936 C1935 1.400 . S
C1936 C1939 1.386 . S
H1937 C1953 0.930 . S
H1938 C1954 0.931 . S
C1939 H1927 0.929 . S
C1939 C1933 1.390 . S
C1939 C1936 1.386 . S
C1940 C1935 1.490 . S
C1940 C1942 1.395 . S
C1940 C1943 1.403 . S
H1941 C1947 0.930 . S
C1942 H1928 0.930 . S
C1942 C1940 1.395 . S
C1942 C1945 1.403 . S
C1943 C1940 1.403 . S
C1943 C1944 1.524 . S
C1943 C1947 1.400 . S
C1944 H1929 0.960 . S
C1944 H1930 0.960 . S
C1944 H1931 0.960 . S
C1944 C1943 1.524 . S
C1945 C1942 1.403 . S
C1945 C1946 1.392 . S
C1945 C1949 1.495 . S
C1946 C1945 1.392 . S
C1946 C1947 1.385 . S
C1946 C1948 1.478 . S
C1947 H1941 0.930 . S
C1947 C1943 1.400 . S
C1947 C1946 1.385 . S
C1948 C1946 1.478 . S
C1948 C1950 1.381 . S
C1948 C1954 1.383 . S
C1949 C1945 1.495 . S
C1949 H1955 0.959 . S
C1949 H1956 0.961 . S
C1949 H1957 0.960 . S
C1950 C1948 1.381 . S
C1950 C1951 1.394 . S
C1950 H1958 0.930 . S
C1951 C1950 1.394 . S
C1951 C1952 1.383 . S
C1951 H1959 0.929 . S
C1952 C1951 1.383 . S
C1952 C1953 1.377 . S
C1953 H1937 0.930 . S
C1953 C1952 1.377 . S
C1953 C1954 1.379 . S
C1954 H1938 0.931 . S
C1954 C1948 1.383 . S
C1954 C1953 1.379 . S
H1955 C1949 0.959 . S
H1956 C1949 0.961 . S
H1957 C1949 0.960 . S
H1958 C1950 0.930 . S
H1959 C1951 0.929 . S
H1960 C1968 0.929 . S
H1961 C1970 0.930 . S
H1962 C1972 0.930 1_554 S
H1963 C1975 0.929 1_554 S
H1964 C1978 0.930 . S
H1965 C1980 0.960 . S
H1966 C1980 0.960 . S
H1967 C1980 0.960 1_554 S
C1968 H1960 0.929 . S
C1968 C1969 1.377 . S
C1968 C1970 1.384 . S
C1969 C1968 1.377 . S
C1969 C1975 1.390 . S
C1970 H1961 0.930 . S
C1970 C1968 1.384 . S
C1970 C1971 1.372 . S
C1971 C1970 1.372 . S
C1971 C1972 1.400 . S
C1971 C1976 1.490 . S
C1972 H1962 0.930 1_556 S
C1972 C1971 1.400 . S
C1972 C1975 1.386 . S
H1973 C1989 0.930 . S
H1974 C1990 0.931 . S
C1975 H1963 0.929 1_556 S
C1975 C1969 1.390 . S
C1975 C1972 1.386 . S
C1976 C1971 1.490 . S
C1976 C1978 1.395 . S
C1976 C1979 1.403 . S
H1977 C1983 0.930 . S
C1978 H1964 0.930 . S
C1978 C1976 1.395 . S
C1978 C1981 1.403 . S
C1979 C1976 1.403 . S
C1979 C1980 1.524 . S
C1979 C1983 1.400 . S
C1980 H1965 0.960 . S
C1980 H1966 0.960 . S
C1980 H1967 0.960 1_556 S
C1980 C1979 1.524 . S
C1981 C1978 1.403 . S
C1981 C1982 1.392 . S
C1981 C1985 1.495 . S
C1982 C1981 1.392 . S
C1982 C1983 1.385 . S
C1982 C1984 1.478 . S
C1983 H1977 0.930 . S
C1983 C1979 1.400 . S
C1983 C1982 1.385 . S
C1984 C1982 1.478 . S
C1984 C1986 1.381 . S
C1984 C1990 1.383 1_556 S
C1985 C1981 1.495 . S
C1985 H1991 0.959 . S
C1985 H1992 0.961 . S
C1985 H1993 0.960 . S
C1986 C1984 1.381 . S
C1986 C1987 1.394 . S
C1986 H1994 0.930 . S
C1987 C1986 1.394 . S
C1987 C1988 1.398 . S
C1987 H1995 0.929 . S
C1988 C1987 1.398 . S
C1988 C1989 1.363 1_556 S
C1989 H1973 0.930 . S
C1989 C1988 1.363 1_554 S
C1989 C1990 1.379 . S
C1990 H1974 0.931 . S
C1990 C1984 1.383 1_554 S
C1990 C1989 1.379 . S
H1991 C1985 0.959 . S
H1992 C1985 0.961 . S
H1993 C1985 0.960 . S
H1994 C1986 0.930 . S
H1995 C1987 0.929 . S
H1996 C2004 0.929 . S
H1997 C2006 0.930 . S
H1998 C2008 0.930 . S
H1999 C2011 0.929 . S
H2000 C2014 0.930 . S
H2001 C2016 0.960 . S
H2002 C2016 0.960 . S
H2003 C2016 0.960 . S
C2004 H1996 0.929 . S
C2004 C2005 1.377 . S
C2004 C2006 1.384 . S
C2005 C2004 1.377 . S
C2005 C2011 1.390 . S
C2006 H1997 0.930 . S
C2006 C2004 1.384 . S
C2006 C2007 1.372 . S
C2007 C2006 1.372 . S
C2007 C2008 1.400 . S
C2007 C2012 1.490 . S
C2008 H1998 0.930 . S
C2008 C2007 1.400 . S
C2008 C2011 1.386 . S
H2009 C2025 0.930 . S
H2010 C2026 0.931 . S
C2011 H1999 0.929 . S
C2011 C2005 1.390 . S
C2011 C2008 1.386 . S
C2012 C2007 1.490 . S
C2012 C2014 1.395 . S
C2012 C2015 1.403 . S
H2013 C2019 0.930 . S
C2014 H2000 0.930 . S
C2014 C2012 1.395 . S
C2014 C2017 1.403 . S
C2015 C2012 1.403 . S
C2015 C2016 1.524 . S
C2015 C2019 1.400 . S
C2016 H2001 0.960 . S
C2016 H2002 0.960 . S
C2016 H2003 0.960 . S
C2016 C2015 1.524 . S
C2017 C2014 1.403 . S
C2017 C2018 1.392 . S
C2017 C2021 1.495 . S
C2018 C2017 1.392 . S
C2018 C2019 1.385 . S
C2018 C2020 1.478 . S
C2019 H2013 0.930 . S
C2019 C2015 1.400 . S
C2019 C2018 1.385 . S
C2020 C2018 1.478 . S
C2020 C2022 1.381 . S
C2020 C2026 1.383 . S
C2021 C2017 1.495 . S
C2021 H2027 0.959 . S
C2021 H2028 0.961 . S
C2021 H2029 0.960 . S
C2022 C2020 1.381 . S
C2022 C2023 1.394 . S
C2022 H2030 0.930 . S
C2023 C2022 1.394 . S
C2023 C2024 1.383 . S
C2023 H2031 0.929 . S
C2024 C2023 1.383 . S
C2024 C2025 1.377 . S
C2025 H2009 0.930 . S
C2025 C2024 1.377 . S
C2025 C2026 1.379 . S
C2026 H2010 0.931 . S
C2026 C2020 1.383 . S
C2026 C2025 1.379 . S
H2027 C2021 0.959 . S
H2028 C2021 0.961 . S
H2029 C2021 0.960 . S
H2030 C2022 0.930 . S
H2031 C2023 0.929 . S
H2032 C2040 0.929 . S
H2033 C2042 0.930 . S
H2034 C2044 0.930 . S
H2035 C2047 0.929 . S
H2036 C2050 0.930 . S
H2037 C2052 0.960 . S
H2038 C2052 0.960 . S
H2039 C2052 0.960 . S
C2040 H2032 0.929 . S
C2040 C2041 1.377 . S
C2040 C2042 1.384 . S
C2041 C2040 1.377 . S
C2041 C2047 1.390 . S
C2042 H2033 0.930 . S
C2042 C2040 1.384 . S
C2042 C2043 1.372 . S
C2043 C2042 1.372 . S
C2043 C2044 1.400 . S
C2043 C2048 1.490 . S
C2044 H2034 0.930 . S
C2044 C2043 1.400 . S
C2044 C2047 1.386 . S
H2045 C2061 0.930 1_556 S
H2046 C2062 0.931 . S
C2047 H2035 0.929 . S
C2047 C2041 1.390 . S
C2047 C2044 1.386 . S
C2048 C2043 1.490 . S
C2048 C2050 1.395 . S
C2048 C2051 1.403 . S
H2049 C2055 0.930 . S
C2050 H2036 0.930 . S
C2050 C2048 1.395 . S
C2050 C2053 1.403 . S
C2051 C2048 1.403 . S
C2051 C2052 1.524 . S
C2051 C2055 1.400 . S
C2052 H2037 0.960 . S
C2052 H2038 0.960 . S
C2052 H2039 0.960 . S
C2052 C2051 1.524 . S
C2053 C2050 1.403 . S
C2053 C2054 1.392 . S
C2053 C2057 1.495 . S
C2054 C2053 1.392 . S
C2054 C2055 1.385 . S
C2054 C2056 1.478 . S
C2055 H2049 0.930 . S
C2055 C2051 1.400 . S
C2055 C2054 1.385 . S
C2056 C2054 1.478 . S
C2056 C2058 1.381 . S
C2056 C2062 1.383 . S
C2057 C2053 1.495 . S
C2057 H2063 0.959 . S
C2057 H2064 0.961 . S
C2057 H2065 0.960 . S
C2058 C2056 1.381 . S
C2058 C2059 1.394 . S
C2058 H2066 0.930 . S
C2059 C2058 1.394 . S
C2059 C2060 1.383 . S
C2059 H2067 0.929 . S
C2060 C2059 1.383 . S
C2060 C2061 1.377 . S
C2061 H2045 0.930 1_554 S
C2061 C2060 1.377 . S
C2061 C2062 1.379 . S
C2062 H2046 0.931 . S
C2062 C2056 1.383 . S
C2062 C2061 1.379 . S
H2063 C2057 0.959 . S
H2064 C2057 0.961 . S
H2065 C2057 0.960 . S
H2066 C2058 0.930 . S
H2067 C2059 0.929 . S
H2068 C2076 0.929 . S
H2069 C2078 0.930 . S
H2070 C2080 0.930 . S
H2071 C2083 0.904 1_545 S
H2072 C2086 0.930 . S
H2073 C2088 0.960 . S
H2074 C2088 0.960 . S
H2075 C2088 0.960 . S
C2076 H2068 0.929 . S
C2076 C2077 1.377 . S
C2076 C2078 1.384 . S
C2077 C2076 1.377 . S
C2077 C2083 1.390 . S
C2078 H2069 0.930 . S
C2078 C2076 1.384 . S
C2078 C2079 1.372 . S
C2079 C2078 1.372 . S
C2079 C2080 1.400 . S
C2079 C2084 1.490 . S
C2080 H2070 0.930 . S
C2080 C2079 1.400 . S
C2080 C2083 1.386 . S
H2081 C2097 0.930 . S
H2082 C2098 0.931 . S
C2083 H2071 0.904 1_565 S
C2083 C2077 1.390 . S
C2083 C2080 1.386 . S
C2084 C2079 1.490 . S
C2084 C2086 1.395 . S
C2084 C2087 1.403 . S
H2085 C2091 0.930 . S
C2086 H2072 0.930 . S
C2086 C2084 1.395 . S
C2086 C2089 1.403 . S
C2087 C2084 1.403 . S
C2087 C2088 1.524 . S
C2087 C2091 1.400 . S
C2088 H2073 0.960 . S
C2088 H2074 0.960 . S
C2088 H2075 0.960 . S
C2088 C2087 1.524 . S
C2089 C2086 1.403 . S
C2089 C2090 1.392 . S
C2089 C2093 1.495 1_554 S
C2090 C2089 1.392 . S
C2090 C2091 1.385 . S
C2090 C2092 1.478 . S
C2091 H2085 0.930 . S
C2091 C2087 1.400 . S
C2091 C2090 1.385 . S
C2092 C2090 1.478 . S
C2092 C2094 1.381 . S
C2092 C2098 1.383 . S
C2093 C2089 1.495 1_556 S
C2093 H2099 0.959 . S
C2093 H2100 0.961 . S
C2093 H2101 0.960 . S
C2094 C2092 1.381 . S
C2094 C2095 1.394 . S
C2094 H2102 0.930 1_554 S
C2095 C2094 1.394 . S
C2095 C2096 1.383 . S
C2095 H2103 0.929 1_554 S
C2096 C2095 1.383 . S
C2096 C2097 1.377 . S
C2097 H2081 0.930 . S
C2097 C2096 1.377 . S
C2097 C2098 1.379 . S
C2098 H2082 0.931 . S
C2098 C2092 1.383 . S
C2098 C2097 1.379 . S
H2099 C2093 0.959 . S
H2100 C2093 0.961 . S
H2101 C2093 0.960 . S
H2102 C2094 0.930 1_556 S
H2103 C2095 0.929 1_556 S
C404 C219 1.191 . S
C385 N66 1.172 . S
C440 C227 1.441 . S
C421 N79 1.592 . S
C457 N92 1.755 . S
C476 C247 1.762 . S
C512 C261 1.303 . S
C493 N54 1.316 . S
C548 C276 1.537 . S
C529 N131 1.526 . S
C584 C290 1.135 . S
C565 N158 1.136 . S
C601 N145 1.604 . S
C620 C304 1.604 . S
C656 C310 1.803 1_565 S
C637 N118 1.799 . S
C673 N148 2.054 . S
C692 C324 1.997 . S
C728 C345 1.610 . S
C709 N122 1.621 . S
C745 N132 1.159 . S
C764 C325 1.013 . S
C800 C346 1.513 . S
C781 N161 1.485 . S
C817 N96 1.913 . S
C836 C353 1.665 . S
C853 N53 1.759 . S
C872 C359 1.774 . S
C889 N67 0.929 . S
C908 C352 0.949 . S
C925 N83 1.295 . S
C944 C360 1.315 . S
C961 N44 1.433 . S
C980 C254 1.408 . S
C997 N187 1.480 . S
C1016 C255 1.298 . S
C1052 C212 1.110 . S
C1033 N197 1.148 . S
C1088 C233 1.174 . S
C1069 N106 1.213 . S
C1105 N57 1.842 1_545 S
C1124 C268 1.787 . S
C1160 C318 1.419 . S
C1141 N144 1.403 . S
C1196 C269 1.140 . S
C1177 N119 1.303 . S
C1232 C297 1.589 . S
C1213 N157 1.865 . S
C1268 C303 1.200 . S
C1249 N183 1.176 . S
C1285 N196 1.592 . S
C1304 C311 1.441 . S
C1321 N105 1.754 . S
C1340 C275 1.733 . S
C1376 C289 1.300 . S
C1357 N171 1.317 . S
C1393 N40 1.529 . S
C1412 C248 1.534 . S
C1448 C262 1.134 . S
C1429 N2 1.134 . S
C1484 C220 1.602 . S
C1465 N15 1.604 . S
C1520 C226 1.803 . S
C1501 N27 1.799 1_455 S
C1537 N18 2.054 . S
C1556 C338 2.001 . S
C1573 N31 1.621 . S
C1592 C331 1.608 . S
C1609 N41 1.159 . S
C1628 C339 1.049 . S
C1645 N5 1.482 . S
C1664 C332 1.511 . S
C1700 C367 1.665 . S
C1681 N109 1.912 . S
C1736 C373 1.773 . S
C1717 N170 1.759 . S
C1772 C366 0.924 . S
C1753 N184 0.929 . S
C1789 N200 1.296 . S
C1808 C374 1.310 . S
C1825 N135 1.430 . S
C1844 C282 1.376 . S
C1880 C283 1.211 . S
C1861 N70 1.476 . S
C1916 C296 1.071 . S
C1897 N80 1.148 . S
C1952 C317 1.205 . S
C1933 N93 1.214 . S
C1969 N174 1.840 . S
C1988 C240 1.777 1_556 S
C2024 C234 1.411 . S
C2005 N14 1.397 . S
C2041 N28 1.304 . S
C2060 C241 1.044 . S
C2096 C213 1.587 . S
C2077 N1 1.865 . S
