# Generated by pormake.
# Topology zzz, (3,6)-cn, num edge types: 1
# Building blocks:
#     Node 0, Type 0, BuildingBlock: ESEHIV_clean_linker_0, # of connection points: 3
#     Node 1, Type 0, BuildingBlock: ESEHIV_clean_linker_0, # of connection points: 3
#     Node 2, Type 0, BuildingBlock: ESEHIV_clean_linker_0, # of connection points: 3
#     Node 3, Type 0, BuildingBlock: ESEHIV_clean_linker_0, # of connection points: 3
#     Node 4, Type 0, BuildingBlock: ESEHIV_clean_linker_0, # of connection points: 3
#     Node 5, Type 0, BuildingBlock: ESEHIV_clean_linker_0, # of connection points: 3
#     Node 6, Type 0, BuildingBlock: ESEHIV_clean_linker_0, # of connection points: 3
#     Node 7, Type 0, BuildingBlock: ESEHIV_clean_linker_0, # of connection points: 3
#     Node 8, Type 1, BuildingBlock: BETFAJ_clean_sbu_0, # of connection points: 6
#     Node 9, Type 1, BuildingBlock: BETFAJ_clean_sbu_0, # of connection points: 6
#     Node 10, Type 1, BuildingBlock: BETFAJ_clean_sbu_0, # of connection points: 6
#     Node 11, Type 1, BuildingBlock: BETFAJ_clean_sbu_0, # of connection points: 6
#     Edge 12, Type (0, 1), BuildingBlock: CIFDUS_clean_linker_0, # of connection points: 2
#     Edge 13, Type (0, 1), BuildingBlock: CIFDUS_clean_linker_0, # of connection points: 2
#     Edge 14, Type (0, 1), BuildingBlock: CIFDUS_clean_linker_0, # of connection points: 2
#     Edge 15, Type (0, 1), BuildingBlock: CIFDUS_clean_linker_0, # of connection points: 2
#     Edge 16, Type (0, 1), BuildingBlock: CIFDUS_clean_linker_0, # of connection points: 2
#     Edge 17, Type (0, 1), BuildingBlock: CIFDUS_clean_linker_0, # of connection points: 2
#     Edge 18, Type (0, 1), BuildingBlock: CIFDUS_clean_linker_0, # of connection points: 2
#     Edge 19, Type (0, 1), BuildingBlock: CIFDUS_clean_linker_0, # of connection points: 2
#     Edge 20, Type (0, 1), BuildingBlock: CIFDUS_clean_linker_0, # of connection points: 2
#     Edge 21, Type (0, 1), BuildingBlock: CIFDUS_clean_linker_0, # of connection points: 2
#     Edge 22, Type (0, 1), BuildingBlock: CIFDUS_clean_linker_0, # of connection points: 2
#     Edge 23, Type (0, 1), BuildingBlock: CIFDUS_clean_linker_0, # of connection points: 2
#     Edge 24, Type (0, 1), BuildingBlock: CIFDUS_clean_linker_0, # of connection points: 2
#     Edge 25, Type (0, 1), BuildingBlock: CIFDUS_clean_linker_0, # of connection points: 2
#     Edge 26, Type (0, 1), BuildingBlock: CIFDUS_clean_linker_0, # of connection points: 2
#     Edge 27, Type (0, 1), BuildingBlock: CIFDUS_clean_linker_0, # of connection points: 2
#     Edge 28, Type (0, 1), BuildingBlock: CIFDUS_clean_linker_0, # of connection points: 2
#     Edge 29, Type (0, 1), BuildingBlock: CIFDUS_clean_linker_0, # of connection points: 2
#     Edge 30, Type (0, 1), BuildingBlock: CIFDUS_clean_linker_0, # of connection points: 2
#     Edge 31, Type (0, 1), BuildingBlock: CIFDUS_clean_linker_0, # of connection points: 2
#     Edge 32, Type (0, 1), BuildingBlock: CIFDUS_clean_linker_0, # of connection points: 2
#     Edge 33, Type (0, 1), BuildingBlock: CIFDUS_clean_linker_0, # of connection points: 2
#     Edge 34, Type (0, 1), BuildingBlock: CIFDUS_clean_linker_0, # of connection points: 2
#     Edge 35, Type (0, 1), BuildingBlock: CIFDUS_clean_linker_0, # of connection points: 2
# Relax obj value: 0.553
# Max RMSD: 0.258
# Mean RMSD: 0.254
data_MOF--net-zzz--node1-BETFAJ_clean_sbu_0--node2-ESEHIV_clean_linker_0--edge1-CIFDUS_clean_linker_0
_symmetry_space_group_name_H-M    P1
_symmetry_Int_Tables_number       1
_symmetry_cell_setting            triclinic
loop_
_symmetry_equiv_pos_as_xyz
'x, y, z'
_cell_length_a     39.597425
_cell_length_b     39.478803
_cell_length_c     12.517783
_cell_angle_alpha  89.969853
_cell_angle_beta   90.130091
_cell_angle_gamma 90.10118
loop_
_atom_site_label
_atom_site_type_symbol
_atom_site_fract_x
_atom_site_fract_y
_atom_site_fract_z
_atom_type_partial_charge
H0 H 0.79808 0.4428 0.395 0.0
H1 H 0.70911 0.44671 0.20024 0.0
H2 H 0.74123 0.53535 0.3746 0.0
C3 C 0.77555 0.45609 0.36917 0.0
C4 C 0.77152 0.49004 0.39984 0.0
C5 C 0.75383 0.4406 0.29502 0.0
C6 C 0.72585 0.45862 0.25778 0.0
C7 C 0.72077 0.49272 0.28508 0.0
C8 C 0.74396 0.5087 0.35621 0.0
H9 H 0.09054 0.80219 0.42348 0.0
H10 H 0.1046 0.71097 0.24377 0.0
H11 H 1.00844 0.73151 0.39319 0.0
C12 C 0.08133 0.77764 0.39756 0.0
C13 C 0.04787 0.76892 0.42091 0.0
C14 C 0.10171 0.75749 0.33201 0.0
C15 C 0.0889 0.72653 0.29486 0.0
C16 C 0.05545 0.71638 0.31686 0.0
C17 C 0.03449 0.73833 0.37804 0.0
H18 H 0.73038 0.09607 0.40656 0.0
H19 H 0.82042 0.09627 0.21785 0.0
H20 H 0.78901 1.00508 0.38179 0.0
C21 C 0.75324 0.0835 0.38017 0.0
C22 C 0.75755 0.0493 0.40586 0.0
C23 C 0.77545 0.10043 0.31125 0.0
C24 C 0.80402 0.08333 0.27386 0.0
C25 C 0.80977 0.04897 0.29887 0.0
C26 C 0.78593 0.03179 0.36467 0.0
H27 H 0.44051 0.73781 0.39887 0.0
H28 H 0.52944 0.7988 0.35842 0.0
H29 H 0.43642 0.82711 0.20335 0.0
C30 C 0.45204 0.761 0.37004 0.0
C31 C 0.4339 0.78197 0.29986 0.0
C32 C 0.48634 0.76645 0.3922 0.0
C33 C 0.50269 0.79477 0.34541 0.0
C34 C 0.48413 0.81752 0.28019 0.0
C35 C 0.44992 0.81084 0.25854 0.0
H36 H 0.23228 0.59888 0.13166 0.0
H37 H 0.32386 0.61151 0.311 0.0
H38 H 0.30515 0.51849 0.13843 0.0
C39 C 0.25711 0.5899 0.15491 0.0
C40 C 0.26663 0.55738 0.12293 0.0
C41 C 0.27704 0.60932 0.22452 0.0
C42 C 0.30851 0.59663 0.25662 0.0
C43 C 0.31933 0.564 0.22638 0.0
C44 C 0.29782 0.54398 0.16016 0.0
H45 H 0.94198 0.23618 0.14034 0.0
H46 H 0.94523 0.32163 0.35055 0.0
H47 H 0.03338 0.29482 0.1678 0.0
C48 C 0.95505 0.25856 0.16914 0.0
C49 C 0.98882 0.26366 0.13915 0.0
C50 C 0.93943 0.27872 0.2468 0.0
C51 C 0.95708 0.30631 0.28933 0.0
C52 C 0.99075 0.31281 0.26107 0.0
C53 C 1.00694 0.29107 0.18639 0.0
H54 H 0.28649 0.93619 0.13233 0.0
H55 H 0.19363 0.94056 0.30708 0.0
H56 H 0.22737 0.02719 0.12523 0.0
C57 C 0.26325 0.94923 0.1521 0.0
C58 C 0.25902 0.98248 0.1153 0.0
C59 C 0.24023 0.93417 0.22302 0.0
C60 C 0.21098 0.95194 0.25055 0.0
C61 C 0.20581 0.98553 0.2166 0.0
C62 C 0.2302 1.00093 0.14868 0.0
H63 H 0.58788 0.30193 0.15579 0.0
H64 H 0.49954 0.23856 0.13914 0.0
H65 H 0.58287 0.21133 0.34432 0.0
C66 C 0.57524 0.27838 0.17579 0.0
C67 C 0.58939 0.25715 0.25393 0.0
C68 C 0.54303 0.27227 0.13294 0.0
C69 C 0.52492 0.2432 0.1681 0.0
C70 C 0.53991 0.22046 0.24237 0.0
C71 C 0.57209 0.22772 0.2836 0.0
Sm72 Sm 0.0418 1.01286 0.83765 0.0
Sm73 Sm 0.98361 0.01883 0.70655 0.0
C74 C 0.08969 0.99373 0.97327 0.0
C75 C 0.10804 0.96163 0.98789 0.0
C76 C 0.09054 0.93088 0.97974 0.0
C77 C 0.10751 0.90031 0.98995 0.0
C78 C 0.14242 0.89961 1.01002 0.0
C79 C 0.16019 0.93031 0.0187 0.0
C80 C 0.1431 0.96123 1.00622 0.0
C81 C 0.05936 0.02569 0.62683 0.0
C82 C 1.01237 0.94337 0.71779 0.0
C83 C 0.93643 0.03747 0.56892 0.0
C84 C 0.91412 0.06693 0.55795 0.0
C85 C 0.9106 0.08165 0.45722 0.0
C86 C 0.89486 0.11296 0.4459 0.0
C87 C 0.88256 0.13044 0.53577 0.0
C88 C 0.88417 0.11453 0.6363 0.0
C89 C 0.89997 0.08301 0.64742 0.0
C90 C 0.96508 1.00651 0.91616 0.0
C91 C 1.01301 0.08853 0.82746 0.0
O92 O 0.05746 0.99316 0.99612 0.0
O93 O 0.09603 1.01004 0.88493 0.0
O94 O 0.03692 1.00512 0.65797 0.0
O95 O 0.07185 0.04179 0.70818 0.0
O96 O 0.02867 0.95588 0.80165 0.0
O97 O 0.99504 0.96398 0.65604 0.0
O98 O 0.96857 0.04377 0.55512 0.0
O99 O 0.93059 1.01693 0.64862 0.0
O100 O 0.98811 0.0267 0.88602 0.0
O101 O 0.95311 0.9902 0.83454 0.0
O102 O 0.99497 0.07593 0.74727 0.0
O103 O 0.03205 0.06821 0.88501 0.0
H104 H 0.06353 0.93036 0.96674 0.0
H105 H 0.09295 0.87707 0.98607 0.0
H106 H 0.18701 0.93033 0.03559 0.0
H107 H 0.1571 0.98475 1.01238 0.0
H108 H 0.92206 0.0699 0.3881 0.0
H109 H 0.89508 0.12467 0.36765 0.0
H110 H 0.87512 0.12737 0.70708 0.0
H111 H 0.90278 0.07221 0.72651 0.0
Sm112 Sm 0.51923 0.03734 0.82909 0.0
Sm113 Sm 0.49539 0.9963 0.66888 0.0
C114 C 0.54969 0.07112 0.98502 0.0
C115 C 0.57561 0.09738 0.99562 0.0
C116 C 0.58963 0.10354 0.09614 0.0
C117 C 0.61698 0.1255 0.10688 0.0
C118 C 0.63128 0.1413 0.01657 0.0
C119 C 0.61572 0.13663 0.91643 0.0
C120 C 0.58801 0.11477 0.90603 0.0
C121 C 0.49451 0.07659 0.66049 0.0
C122 C 0.5731 0.0172 0.64387 0.0
C123 C 0.46642 0.96381 0.50731 0.0
C124 C 0.4429 0.93622 0.48284 0.0
C125 C 0.43198 0.93233 0.37741 0.0
C126 C 0.40865 0.90727 0.35122 0.0
C127 C 0.39509 0.88599 0.4307 0.0
C128 C 0.40706 0.88915 0.53622 0.0
C129 C 0.43102 0.91403 0.56207 0.0
C130 C 0.52052 0.95697 0.8365 0.0
C131 C 0.4419 1.01538 0.85799 0.0
O132 O 0.56002 0.04169 0.95044 0.0
O133 O 0.52118 0.08052 0.9422 0.0
O134 O 0.51303 0.05078 0.65083 0.0
O135 O 0.48705 0.08084 0.76003 0.0
O136 O 0.57045 0.02307 0.74721 0.0
O137 O 0.54524 1.01211 0.58873 0.0
O138 O 0.45383 0.99126 0.54985 0.0
O139 O 0.49531 0.9551 0.54895 0.0
O140 O 0.50199 0.98275 0.84682 0.0
O141 O 0.52715 0.95236 0.73656 0.0
O142 O 0.44414 1.00926 0.75445 0.0
O143 O 0.46988 0.02151 0.91153 0.0
H144 H 0.58048 0.09012 0.16582 0.0
H145 H 0.62858 0.12771 0.185 0.0
H146 H 0.62614 0.14832 0.84546 0.0
H147 H 0.57729 0.11023 0.82759 0.0
H148 H 0.44082 0.94935 0.31551 0.0
H149 H 0.39945 0.90629 0.26972 0.0
H150 H 0.39676 0.87344 0.59924 0.0
H151 H 0.43942 0.91671 0.64407 0.0
Sm152 Sm 0.49408 0.5226 0.82509 0.0
Sm153 Sm 0.54302 0.51473 0.67251 0.0
C154 C 0.45162 0.54461 0.97296 0.0
C155 C 0.43312 0.57684 0.98349 0.0
C156 C 0.45038 0.60765 0.97231 0.0
C157 C 0.43299 0.63814 0.97588 0.0
C158 C 0.39786 0.63876 0.99136 0.0
C159 C 0.38034 0.60802 1.00291 0.0
C160 C 0.39788 0.57717 0.99807 0.0
C161 C 0.46484 0.50549 0.63003 0.0
C162 C 0.51591 0.58999 0.68498 0.0
C163 C 0.58399 0.49683 0.51485 0.0
C164 C 0.60989 0.47132 0.49225 0.0
C165 C 0.62799 0.45535 0.5746 0.0
C166 C 0.64925 0.42802 0.55147 0.0
C167 C 0.65252 0.41626 0.44581 0.0
C168 C 0.63624 0.43423 0.36323 0.0
C169 C 0.61485 0.46119 0.38654 0.0
C170 C 0.57318 0.53292 0.86568 0.0
C171 C 0.52153 0.44707 0.81694 0.0
O172 O 0.48447 0.54609 0.98324 0.0
O173 O 0.44228 0.52539 0.89367 0.0
O174 O 0.48783 0.52739 0.64348 0.0
O175 O 0.45917 0.48981 0.71916 0.0
O176 O 0.50513 0.57899 0.7786 0.0
O177 O 0.52817 0.56805 0.61675 0.0
O178 O 0.55304 0.48563 0.52392 0.0
O179 O 0.59157 0.51982 0.58577 0.0
O180 O 0.55005 0.51088 0.85434 0.0
O181 O 0.57791 0.5479 0.77494 0.0
O182 O 0.53538 0.45823 0.72724 0.0
O183 O 0.50577 0.46848 0.87956 0.0
H184 H 0.47746 0.60837 0.96076 0.0
H185 H 0.44734 0.66146 0.96972 0.0
H186 H 0.35337 0.60792 0.01722 0.0
H187 H 0.38403 0.55363 1.00653 0.0
H188 H 0.62443 0.4629 0.657 0.0
H189 H 0.66144 0.41479 0.61679 0.0
H190 H 0.63754 0.42571 0.28112 0.0
H191 H 0.60085 0.47306 0.32222 0.0
Sm192 Sm 1.00709 0.4871 0.88933 0.0
Sm193 Sm 0.02223 0.53326 0.736 0.0
C194 C 0.98461 0.44869 0.04824 0.0
C195 C 0.96043 0.42168 0.07336 0.0
C196 C 0.94945 0.41842 0.17881 0.0
C197 C 0.92444 0.39507 0.20495 0.0
C198 C 0.90914 0.375 0.12531 0.0
C199 C 0.92172 0.37688 0.02027 0.0
C200 C 0.94726 0.4001 0.99442 0.0
C201 C 0.02863 0.45319 0.70613 0.0
C202 C 0.94501 0.50951 0.72745 0.0
C203 C 0.04925 0.57358 0.59016 0.0
C204 C 0.07969 0.59509 0.58969 0.0
C205 C 0.11067 0.5822 0.62548 0.0
C206 C 0.13976 0.60192 0.62052 0.0
C207 C 0.13867 0.63519 0.57992 0.0
C208 C 0.10719 0.64886 0.55055 0.0
C209 C 0.07792 0.6289 0.55527 0.0
C210 C 1.00135 0.56629 0.92099 0.0
C211 C 0.08333 0.51189 0.9016 0.0
O212 O 0.97208 0.47844 0.02543 0.0
O213 O 1.01026 0.44062 0.9884 0.0
O214 O 1.00809 0.4778 0.70703 0.0
O215 O 0.04011 0.4484 0.80173 0.0
O216 O 0.95285 0.49772 0.82323 0.0
O217 O 0.96918 0.522 0.667 0.0
O218 O 0.05405 0.54081 0.59224 0.0
O219 O 0.02518 0.58321 0.65395 0.0
O220 O 0.02209 0.54201 0.91709 0.0
O221 O 0.98876 0.57144 0.82693 0.0
O222 O 0.07688 0.52083 0.80185 0.0
O223 O 0.05782 0.5028 0.96181 0.0
H224 H 0.95936 0.4349 0.24064 0.0
H225 H 0.91517 0.39498 0.28628 0.0
H226 H 0.91045 0.36187 0.95713 0.0
H227 H 0.95566 0.40222 0.91236 0.0
H228 H 0.11278 0.5564 0.65404 0.0
H229 H 0.16345 0.59009 0.64225 0.0
H230 H 0.10541 0.67445 0.5198 0.0
H231 H 0.05407 0.63956 0.52936 0.0
H232 H 0.13982 0.96651 0.23573 0.0
H233 H 0.20915 0.04618 0.32228 0.0
H234 H 0.16818 0.06822 0.45107 0.0
H235 H 0.11605 0.05951 0.55795 0.0
H236 H 0.04743 0.97911 0.47043 0.0
H237 H 0.08441 0.96299 0.32326 0.0
C238 C 0.14556 0.98938 0.28015 0.0
C239 C 0.17765 1.00465 0.26886 0.0
C240 C 0.12216 1.00141 0.35588 0.0
C241 C 0.18463 0.03412 0.32801 0.0
C242 C 0.16132 0.04645 0.40297 0.0
C243 C 0.10888 0.03887 0.50544 0.0
C244 C 0.0791 0.02028 0.52663 0.0
C245 C 0.13052 0.0295 0.42063 0.0
C246 C 0.07019 0.99375 0.45697 0.0
C247 C 0.09143 0.98443 0.37269 0.0
H248 H 0.50058 0.21733 0.41912 0.0
H249 H 0.54388 0.15541 0.17264 0.0
H250 H 0.53161 0.10415 0.27717 0.0
H251 H 0.51566 0.07781 0.45049 0.0
H252 H 0.47193 0.14064 0.69559 0.0
H253 H 0.47725 0.19025 0.58085 0.0
C254 C 0.50608 0.19248 0.38658 0.0
C255 C 0.5225 0.1901 0.28719 0.0
C256 C 0.49974 0.16323 0.44859 0.0
C257 C 0.53057 0.15781 0.2477 0.0
C258 C 0.52404 0.12856 0.30833 0.0
C259 C 0.50678 0.10226 0.478 0.0
C260 C 0.49379 0.10536 0.58255 0.0
C261 C 0.50975 0.13102 0.41076 0.0
C262 C 0.48226 0.13733 0.61624 0.0
C263 C 0.48531 0.16587 0.55048 0.0
H264 H 0.33204 0.50621 0.34389 0.0
H265 H 0.38003 0.59613 0.22126 0.0
H266 H 0.43076 0.58401 0.32439 0.0
H267 H 0.45929 0.55193 0.46747 0.0
H268 H 0.41041 0.46391 0.60044 0.0
H269 H 0.36292 0.47112 0.47723 0.0
C270 C 0.35399 0.52253 0.33736 0.0
C271 C 0.35223 0.55174 0.27245 0.0
C272 C 0.38295 0.51615 0.40139 0.0
C273 C 0.38076 0.57308 0.26791 0.0
C274 C 0.40977 0.5664 0.32838 0.0
C275 C 0.43855 0.53395 0.46825 0.0
C276 C 0.43854 0.50748 0.54396 0.0
C277 C 0.41084 0.5386 0.39803 0.0
C278 C 0.41119 0.48461 0.54363 0.0
C279 C 0.38388 0.48876 0.47306 0.0
H280 H 1.00749 0.31287 0.47002 0.0
H281 H 1.01038 0.37569 0.18959 0.0
H282 H 0.02234 0.4257 0.30112 0.0
H283 H 0.02592 0.45249 0.48343 0.0
H284 H 0.02537 0.38709 0.75988 0.0
H285 H 0.01822 0.33775 0.64616 0.0
C286 C 1.01182 0.33736 0.43303 0.0
C287 C 1.00824 0.34049 0.32147 0.0
C288 C 0.0182 0.36589 0.49785 0.0
C289 C 1.01338 0.3725 0.27501 0.0
C290 C 0.01976 0.40118 0.33918 0.0
C291 C 0.02447 0.4274 0.51837 0.0
C292 C 0.02594 0.42378 0.63078 0.0
C293 C 0.02111 0.39843 0.45141 0.0
C294 C 0.02438 0.39091 0.67421 0.0
C295 C 0.02026 0.36248 0.60905 0.0
H296 H 0.87327 0.07334 0.26714 0.0
H297 H 0.81126 0.986 0.20269 0.0
H298 H 0.85532 0.96324 0.08563 0.0
H299 H 0.9091 0.97162 0.98571 0.0
H300 H 0.97085 0.05901 0.05647 0.0
H301 H 0.92959 0.07802 0.18757 0.0
C302 C 0.86971 0.04885 0.23023 0.0
C303 C 0.83885 0.0315 0.24489 0.0
C304 C 0.89511 0.03607 0.16284 0.0
C305 C 0.83472 0.99989 0.19454 0.0
C306 C 0.85988 0.987 0.12653 0.0
C307 C 0.91386 0.99443 0.03153 0.0
C308 C 0.94307 1.01397 1.01009 0.0
C309 C 0.88984 1.00532 0.10778 0.0
C310 C 0.94876 0.04342 0.07071 0.0
C311 C 0.92503 0.05443 0.14567 0.0
H312 H 0.51552 0.81792 0.08786 0.0
H313 H 0.48467 0.88328 0.34415 0.0
H314 H 0.49501 0.93331 0.23171 0.0
H315 H 0.50584 0.95785 0.05179 0.0
H316 H 0.53828 0.89161 0.79807 0.0
H317 H 0.53421 0.84292 0.91702 0.0
C318 C 0.51216 0.84319 0.12003 0.0
C319 C 0.4997 0.847 0.22451 0.0
C320 C 0.51756 0.87174 0.05409 0.0
C321 C 0.49459 0.87984 0.26438 0.0
C322 C 0.5001 0.90837 0.1996 0.0
C323 C 0.51249 0.93283 0.02313 0.0
C324 C 0.52193 0.92852 0.91529 0.0
C325 C 0.51045 0.90461 0.0929 0.0
C326 C 0.53072 0.89585 0.88008 0.0
C327 C 0.52837 0.86783 0.94822 0.0
H328 H 0.71525 0.50048 0.07235 0.0
H329 H 0.663 0.52276 0.3648 0.0
H330 H 0.61184 0.53745 0.26238 0.0
H331 H 0.58018 0.53839 0.08705 0.0
H332 H 0.63474 0.51467 0.79869 0.0
H333 H 0.68607 0.50531 0.90139 0.0
C334 C 0.69288 0.50935 0.11366 0.0
C335 C 0.69309 0.5107 0.22617 0.0
C336 C 0.66345 0.51648 0.05456 0.0
C337 C 0.6638 0.52201 0.27835 0.0
C338 C 0.63434 0.52986 0.21958 0.0
C339 C 0.60334 0.53116 0.04721 0.0
C340 C 0.60342 0.52702 0.93491 0.0
C341 C 0.63347 0.52613 0.10749 0.0
C342 C 0.63382 0.518 0.88457 0.0
C343 C 0.66333 0.51272 0.94331 0.0
H344 H 1.00037 0.70349 0.1869 0.0
H345 H 0.08597 0.65518 0.33487 0.0
H346 H 0.07475 0.60326 0.23593 0.0
H347 H 0.04469 0.57324 0.09134 0.0
H348 H 0.96116 0.62226 0.93355 0.0
H349 H 0.96736 0.6715 0.05062 0.0
C350 C 0.01595 0.68128 0.19954 0.0
C351 C 0.04369 0.68327 0.2703 0.0
C352 C 1.01009 0.65153 0.13837 0.0
C353 C 0.06409 0.65433 0.28309 0.0
C354 C 0.05791 0.62461 0.22528 0.0
C355 C 0.02744 0.59443 0.08377 0.0
C356 C 1.00253 0.5939 1.00307 0.0
C357 C 0.03157 0.62314 0.15038 0.0
C358 C 0.98063 0.62185 0.99448 0.0
C359 C 0.98421 0.65017 0.06148 0.0
H360 H 0.92982 0.27279 0.45947 0.0
H361 H 0.8813 0.25294 0.15723 0.0
H362 H 0.84793 0.20774 0.23904 0.0
H363 H 0.84804 0.16357 0.37784 0.0
H364 H 0.90322 0.18066 0.6707 0.0
H365 H 0.91663 0.23787 0.61424 0.0
C366 C 0.91071 0.25983 0.41251 0.0
C367 C 0.90903 0.26512 0.30151 0.0
C368 C 0.89314 0.23272 0.45866 0.0
C369 C 0.88375 0.24849 0.24231 0.0
C370 C 0.86488 0.22246 0.28894 0.0
C371 C 0.86195 0.18033 0.43082 0.0
C372 C 0.87591 0.16734 0.52594 0.0
C373 C 0.87173 0.2125 0.39438 0.0
C374 C 0.89263 0.18964 0.59605 0.0
C375 C 0.90081 0.22237 0.56303 0.0
H376 H 0.27351 0.87697 0.158 0.0
H377 H 0.23373 0.92575 0.43902 0.0
H378 H 0.27737 0.90021 0.54769 0.0
H379 H 0.3373 0.88606 0.54465 0.0
H380 H 0.38133 0.84491 0.25862 0.0
H381 H 0.32622 0.84437 0.17201 0.0
C382 C 0.27361 0.88075 0.24385 0.0
C383 C 0.2518 0.90496 0.28883 0.0
C384 C 0.3006 0.86819 0.30488 0.0
C385 C 0.25086 0.90819 0.40084 0.0
C386 C 0.27631 0.89394 0.46345 0.0
C387 C 0.33457 0.87512 0.4656 0.0
C388 C 0.36352 0.86723 0.40593 0.0
C389 C 0.3032 0.87719 0.41396 0.0
C390 C 0.35948 0.85221 0.30481 0.0
C391 C 0.32794 0.85233 0.2547 0.0
H392 H 0.64759 0.28811 0.18884 0.0
H393 H 0.59339 0.25732 0.47127 0.0
H394 H 0.62075 0.30169 0.5739 0.0
H395 H 0.64172 0.3596 0.56298 0.0
H396 H 0.69055 0.39425 0.27547 0.0
H397 H 0.68459 0.33821 0.19673 0.0
C398 C 0.64295 0.29029 0.27396 0.0
C399 C 0.61735 0.27057 0.321 0.0
C400 C 0.65708 0.31741 0.33107 0.0
C401 C 0.61243 0.27261 0.4321 0.0
C402 C 0.62776 0.29842 0.49088 0.0
C403 C 0.65272 0.35458 0.48534 0.0
C404 C 0.66509 0.38154 0.42309 0.0
C405 C 0.64744 0.32279 0.43841 0.0
C406 C 0.67986 0.37423 0.32362 0.0
C407 C 0.67615 0.34216 0.27809 0.0
H408 H 0.28145 0.62501 0.43599 0.0
H409 H 0.23568 0.65911 0.14208 0.0
H410 H 0.18776 0.68153 0.24142 0.0
H411 H 0.15221 0.6711 0.39875 0.0
H412 H 0.19834 0.63712 0.69243 0.0
H413 H 0.25343 0.63625 0.60629 0.0
C414 C 0.26205 0.63897 0.39356 0.0
C415 C 0.26091 0.63826 0.28117 0.0
C416 C 0.23416 0.65096 0.45099 0.0
C417 C 0.23615 0.6577 0.22851 0.0
C418 C 0.2086 0.67036 0.28524 0.0
C419 C 0.17445 0.66523 0.44592 0.0
C420 C 0.17093 0.65197 0.54977 0.0
C421 C 0.20597 0.66399 0.39507 0.0
C422 C 0.20024 0.64571 0.61044 0.0
C423 C 0.23178 0.64508 0.5611 0.0
H424 H 0.12173 0.75577 0.12469 0.0
H425 H 0.15117 0.7951 0.43241 0.0
H426 H 0.17895 0.84309 0.34638 0.0
H427 H 0.17479 0.88191 0.1922 0.0
H428 H 0.14284 0.84287 0.88702 0.0
H429 H 0.1376 0.78619 0.96241 0.0
C430 C 0.1358 0.77371 0.17308 0.0
C431 C 0.13259 0.77307 0.28494 0.0
C432 C 0.15064 0.80183 0.12314 0.0
C433 C 0.15194 0.79598 0.34593 0.0
C434 C 0.16764 0.82361 0.29679 0.0
C435 C 0.16867 0.86059 0.14098 0.0
C436 C 0.15785 0.86653 0.03568 0.0
C437 C 0.16415 0.82833 0.18634 0.0
C438 C 0.1505 0.83878 0.9692 0.0
C439 C 0.14707 0.80645 1.0127 0.0
H440 H 0.77536 0.11361 0.09935 0.0
H441 H 0.74692 0.15721 0.40154 0.0
H442 H 0.70048 0.18734 0.3153 0.0
H443 H 0.65775 0.18186 0.17316 0.0
H444 H 0.68393 0.13092 0.88009 0.0
H445 H 0.74183 0.12516 0.94034 0.0
C446 C 0.76029 0.1312 0.14559 0.0
C447 C 0.76325 0.13171 0.25756 0.0
C448 C 0.73242 0.14661 0.09663 0.0
C449 C 0.74418 0.15541 0.31559 0.0
C450 C 0.71736 0.17235 0.2664 0.0
C451 C 0.67655 0.17081 0.1208 0.0
C452 C 0.66613 0.15508 0.02528 0.0
C453 C 0.70934 0.16517 0.15958 0.0
C454 C 0.6909 0.1424 0.95556 0.0
C455 C 0.72411 0.13859 0.99076 0.0
H456 H 0.41591 0.78364 0.08998 0.0
H457 H 0.38074 0.74843 0.39624 0.0
H458 H 0.35406 0.69964 0.31107 0.0
H459 H 0.3617 0.65863 0.16381 0.0
H460 H 0.3993 0.6938 0.86067 0.0
H461 H 0.4027 0.75147 0.92902 0.0
C462 C 0.40083 0.76649 0.13796 0.0
C463 C 0.40251 0.76815 0.25014 0.0
C464 C 0.3867 0.73786 0.08877 0.0
C465 C 0.38142 0.74654 0.30992 0.0
C466 C 0.36639 0.71841 0.26133 0.0
C467 C 0.3687 0.67928 0.11101 0.0
C468 C 0.38172 0.67201 1.00925 0.0
C469 C 0.37205 0.71218 0.15259 0.0
C470 C 0.39004 0.69891 0.94046 0.0
C471 C 0.39236 0.73183 0.97998 0.0
H472 H 0.78321 0.38344 0.37734 0.0
H473 H 0.752 0.42906 0.07986 0.0
H474 H 0.79512 0.39794 0.98501 0.0
H475 H 0.8531 0.37821 1.00157 0.0
H476 H 0.8887 0.33887 0.30253 0.0
H477 H 0.83275 0.34581 0.37927 0.0
C478 C 0.78502 0.38542 0.29109 0.0
C479 C 0.76576 0.40999 0.23703 0.0
C480 C 0.8116 0.36922 0.23769 0.0
C481 C 0.76708 0.41111 0.12466 0.0
C482 C 0.7922 0.39358 0.07001 0.0
C483 C 0.8483 0.36932 0.08213 0.0
C484 C 0.87549 0.35991 0.14818 0.0
C485 C 0.81662 0.37556 0.12766 0.0
C486 C 0.86846 0.34744 0.25115 0.0
C487 C 0.83646 0.35184 0.29562 0.0
H488 H 0.96535 0.23689 0.95155 0.0
H489 H 0.04646 0.22713 0.17935 0.0
H490 H 0.06264 0.1729 0.09891 0.0
H491 H 0.04924 0.12478 0.97772 0.0
H492 H 0.96721 0.13481 0.75219 0.0
H493 H 0.95592 0.19188 0.81787 0.0
C494 C 0.98715 0.22333 0.98193 0.0
C495 C 1.00468 0.23637 0.07174 0.0
C496 C 0.99571 0.19163 0.93691 0.0
C497 C 0.03278 0.21823 0.10977 0.0
C498 C 0.04171 0.18684 0.06459 0.0
C499 C 0.02914 0.13956 0.94185 0.0
C500 C 1.00899 0.125 0.8601 0.0
C501 C 0.02266 0.17271 0.98038 0.0
C502 C 0.9832 0.14494 0.81488 0.0
C503 C 0.97664 0.17774 0.85271 0.0
H504 H 0.32175 0.99652 0.18783 0.0
H505 H 0.2615 0.99881 0.90162 0.0
H506 H 0.31247 1.00954 0.79439 0.0
H507 H 0.37562 1.0137 0.78138 0.0
H508 H 0.43422 1.01089 0.07273 0.0
H509 H 0.38302 1.00472 0.17707 0.0
C510 C 0.31966 1.00036 0.10222 0.0
C511 C 0.2877 0.99752 0.05317 0.0
C512 C 0.34914 1.00574 0.04128 0.0
C513 C 0.28558 1.0017 0.9418 0.0
C514 C 0.31488 1.00735 0.88035 0.0
C515 C 0.37713 1.01192 0.86766 0.0
C516 C 0.40918 1.01268 0.91825 0.0
C517 C 0.34704 1.00864 0.92887 0.0
C518 C 0.4103 1.01049 0.0306 0.0
C519 C 0.38085 1.00695 0.091 0.0
H520 H 0.56957 0.29968 0.95123 0.0
H521 H 0.48491 0.30838 0.16475 0.0
H522 H 0.46971 0.36278 0.08307 0.0
H523 H 0.48444 0.41106 0.96423 0.0
H524 H 0.56873 0.40142 0.74862 0.0
H525 H 0.58006 0.34459 0.81743 0.0
C526 C 0.54718 0.31302 0.97774 0.0
C527 C 0.52827 0.29967 0.06385 0.0
C528 C 0.53895 0.34462 0.9313 0.0
C529 C 0.49957 0.31757 0.09774 0.0
C530 C 0.49119 0.34901 0.0519 0.0
C531 C 0.50508 0.39641 0.93141 0.0
C532 C 0.5259 0.41093 0.85169 0.0
C533 C 0.51131 0.36332 0.97085 0.0
C534 C 0.55227 0.39119 0.80973 0.0
C535 C 0.55884 0.35858 0.84937 0.0
H536 H 0.21334 0.52188 0.19799 0.0
H537 H 0.25949 0.55528 0.90578 0.0
H538 H 0.20704 0.54331 0.80757 0.0
H539 H 0.14528 0.52947 0.80949 0.0
H540 H 0.10013 0.498 0.10735 0.0
H541 H 0.1542 0.50311 0.19707 0.0
C542 C 0.21239 0.52502 0.11192 0.0
C543 C 0.24084 0.53835 0.05895 0.0
C544 C 0.18165 0.51937 0.05694 0.0
C545 C 0.23852 0.54384 0.94803 0.0
C546 C 0.20819 0.53762 0.89219 0.0
C547 C 0.14732 0.52344 0.8937 0.0
C548 C 0.11806 0.51361 0.95087 0.0
C549 C 0.17911 0.5264 0.94639 0.0
C550 C 0.1217 0.50582 0.06029 0.0
C551 C 0.15286 0.50864 0.11234 0.0
H552 H 0.06094 0.79361 0.61904 0.0
H553 H 0.99272 0.80519 0.35346 0.0
H554 H 0.97371 0.85979 0.42537 0.0
H555 H 0.98239 0.90791 0.55166 0.0
H556 H 0.05221 0.89568 0.81388 0.0
H557 H 0.06463 0.83827 0.75579 0.0
C558 C 0.04097 0.80751 0.57898 0.0
C559 C 0.02798 0.79493 0.48145 0.0
C560 C 0.03108 0.83944 0.61903 0.0
C561 C 1.00263 0.81371 0.42959 0.0
C562 C 0.99222 0.84532 0.46994 0.0
C563 C 0.99997 0.89256 0.59711 0.0
C564 C 0.01651 0.90671 0.6873 0.0
C565 C 1.00718 0.85907 0.56261 0.0
C566 C 0.0391 0.886 0.74456 0.0
C567 C 0.04628 0.85293 0.71112 0.0
H568 H 0.69722 0.02992 0.32619 0.0
H569 H 0.75311 0.0363 0.62044 0.0
H570 H 0.70107 0.02617 0.72249 0.0
H571 H 0.63812 0.02105 0.72764 0.0
H572 H 0.58337 1.01608 0.42927 0.0
H573 H 0.63594 0.02027 0.33045 0.0
C574 C 0.69817 0.02778 0.41257 0.0
C575 C 0.72923 0.03285 0.46542 0.0
C576 C 0.66796 0.02306 0.47046 0.0
C577 C 0.72981 0.03138 0.57764 0.0
C578 C 0.69987 0.02616 0.636 0.0
C579 C 0.63772 0.02064 0.64106 0.0
C580 C 0.6064 0.01843 0.58669 0.0
C581 C 0.66853 0.0229 0.58341 0.0
C582 C 0.60672 0.0178 0.47414 0.0
C583 C 0.63695 0.02015 0.41699 0.0
H584 H 0.47084 0.74078 0.58759 0.0
H585 H 0.53992 0.72822 0.3255 0.0
H586 H 0.55672 0.67268 0.39567 0.0
H587 H 0.54624 0.62455 0.51964 0.0
H588 H 0.47629 0.63774 0.7798 0.0
H589 H 0.4653 0.6957 0.72259 0.0
C590 C 0.4904 0.72634 0.54777 0.0
C591 C 0.50427 0.73885 0.45165 0.0
C592 C 0.49917 0.69402 0.58705 0.0
C593 C 0.52928 0.7196 0.40041 0.0
C594 C 0.53846 0.68752 0.43972 0.0
C595 C 0.52886 0.64022 0.56449 0.0
C596 C 0.51194 0.62643 0.654 0.0
C597 C 0.52267 0.67392 0.53092 0.0
C598 C 0.48975 0.64741 0.71124 0.0
C599 C 0.48337 0.68069 0.67823 0.0
H600 H 0.79531 0.46896 0.59327 0.0
H601 H 0.81331 0.54305 0.34743 0.0
H602 H 0.86846 0.55646 0.4272 0.0
H603 H 0.91439 0.54272 0.55752 0.0
H604 H 0.89483 0.46895 0.8044 0.0
H605 H 0.83811 0.45982 0.73378 0.0
C606 C 0.81086 0.48882 0.55901 0.0
C607 C 0.79978 0.50525 0.46483 0.0
C608 C 0.84285 0.49592 0.60442 0.0
C609 C 0.82065 0.5305 0.42085 0.0
C610 C 0.85253 0.53777 0.46571 0.0
C611 C 0.89763 0.52485 0.59642 0.0
C612 C 0.90938 0.50636 0.6862 0.0
C613 C 0.8644 0.51993 0.55585 0.0
C614 C 0.88689 0.48357 0.73556 0.0
C615 C 0.85426 0.47828 0.69503 0.0
loop_
_geom_bond_atom_site_label_1
_geom_bond_atom_site_label_2
_geom_bond_distance
_geom_bond_site_symmetry_2
_ccdc_geom_bond_type
H0 C3 0.931 . S
H1 C6 0.928 . S
H2 C8 0.930 . S
C3 H0 0.931 . S
C3 C4 1.413 . S
C3 C5 1.360 . S
C4 C3 1.413 . S
C4 C8 1.429 . S
C5 C3 1.360 . S
C5 C6 1.372 . S
C6 H1 0.928 . S
C6 C5 1.372 . S
C6 C7 1.404 . S
C7 C6 1.404 . S
C7 C8 1.391 . S
C8 H2 0.930 . S
C8 C4 1.429 . S
C8 C7 1.391 . S
H9 C12 0.931 . S
H10 C15 0.928 . S
H11 C17 0.930 . S
C12 H9 0.931 . S
C12 C13 1.413 . S
C12 C14 1.360 . S
C13 C12 1.413 . S
C13 C17 1.429 1_655 S
C14 C12 1.360 . S
C14 C15 1.372 . S
C15 H10 0.928 . S
C15 C14 1.372 . S
C15 C16 1.404 . S
C16 C15 1.404 . S
C16 C17 1.390 1_655 S
C17 H11 0.930 . S
C17 C13 1.429 1_455 S
C17 C16 1.390 1_455 S
H18 C21 0.931 . S
H19 C24 0.928 . S
H20 C26 0.930 . S
C21 H18 0.931 . S
C21 C22 1.413 . S
C21 C23 1.360 . S
C22 C21 1.413 . S
C22 C26 1.429 1_565 S
C23 C21 1.360 . S
C23 C24 1.372 . S
C24 H19 0.928 . S
C24 C23 1.372 . S
C24 C25 1.404 . S
C25 C24 1.404 . S
C25 C26 1.390 1_565 S
C26 H20 0.930 . S
C26 C22 1.429 1_545 S
C26 C25 1.390 1_545 S
H27 C30 0.931 . S
H28 C33 0.928 . S
H29 C35 0.930 . S
C30 H27 0.931 . S
C30 C31 1.413 . S
C30 C32 1.360 . S
C31 C30 1.413 . S
C31 C35 1.429 . S
C32 C30 1.360 . S
C32 C33 1.372 . S
C33 H28 0.928 . S
C33 C32 1.372 . S
C33 C34 1.404 . S
C34 C33 1.404 . S
C34 C35 1.391 . S
C35 H29 0.930 . S
C35 C31 1.429 . S
C35 C34 1.391 . S
H36 C39 0.931 . S
H37 C42 0.928 . S
H38 C44 0.930 . S
C39 H36 0.931 . S
C39 C40 1.413 1_554 S
C39 C41 1.360 . S
C40 C39 1.413 1_556 S
C40 C44 1.429 . S
C41 C39 1.360 . S
C41 C42 1.372 . S
C42 H37 0.928 . S
C42 C41 1.372 . S
C42 C43 1.404 . S
C43 C42 1.404 . S
C43 C44 1.391 1_554 S
C44 H38 0.930 . S
C44 C40 1.429 . S
C44 C43 1.391 1_556 S
H45 C48 0.931 . S
H46 C51 0.928 . S
H47 C53 0.930 . S
C48 H45 0.931 . S
C48 C49 1.413 1_554 S
C48 C50 1.360 . S
C49 C48 1.413 1_556 S
C49 C53 1.429 1_655 S
C50 C48 1.360 . S
C50 C51 1.372 . S
C51 H46 0.928 . S
C51 C50 1.372 . S
C51 C52 1.404 . S
C52 C51 1.404 . S
C52 C53 1.391 1_654 S
C53 H47 0.930 . S
C53 C49 1.429 1_455 S
C53 C52 1.391 1_456 S
H54 C57 0.931 . S
H55 C60 0.928 . S
H56 C62 0.930 . S
C57 H54 0.931 . S
C57 C58 1.413 1_554 S
C57 C59 1.360 . S
C58 C57 1.413 1_556 S
C58 C62 1.429 1_565 S
C59 C57 1.360 . S
C59 C60 1.372 . S
C60 H55 0.928 . S
C60 C59 1.372 . S
C60 C61 1.404 . S
C61 C60 1.404 . S
C61 C62 1.391 1_564 S
C62 H56 0.930 . S
C62 C58 1.429 1_545 S
C62 C61 1.391 1_546 S
H63 C66 0.931 1_556 S
H64 C69 0.928 . S
H65 C71 0.930 . S
C66 H63 0.931 1_554 S
C66 C67 1.413 . S
C66 C68 1.360 1_554 S
C67 C66 1.413 . S
C67 C71 1.429 . S
C68 C66 1.360 1_556 S
C68 C69 1.372 . S
C69 H64 0.928 . S
C69 C68 1.372 . S
C69 C70 1.404 1_556 S
C70 C69 1.404 1_554 S
C70 C71 1.391 . S
C71 H65 0.930 . S
C71 C67 1.429 . S
C71 C70 1.391 . S
Sm72 C74 2.846 . S
Sm72 O92 2.543 . S
Sm72 O93 2.450 . S
Sm72 O94 2.681 1_565 S
Sm72 O95 2.464 . S
Sm72 O96 2.396 . S
Sm72 O100 2.386 1_455 S
Sm72 O103 2.408 1_565 S
Sm73 C83 2.846 . S
Sm73 O94 2.386 1_655 S
Sm73 O97 2.408 1_545 S
Sm73 O98 2.543 . S
Sm73 O99 2.450 . S
Sm73 O100 2.681 1_545 S
Sm73 O101 2.464 . S
Sm73 O102 2.396 . S
C74 Sm72 2.846 . S
C74 C75 1.506 1_556 S
C74 O92 1.261 . S
C74 O93 1.242 . S
C75 C74 1.506 1_554 S
C75 C76 1.358 . S
C75 C80 1.382 . S
C76 C75 1.358 . S
C76 C77 1.385 . S
C76 H104 0.930 1_455 S
C77 C76 1.385 . S
C77 C78 1.395 . S
C77 H105 0.929 . S
C78 C77 1.395 . S
C78 C79 1.335 . S
C79 C78 1.335 . S
C79 C80 1.398 . S
C79 H106 0.930 . S
C80 C75 1.382 . S
C80 C79 1.398 . S
C80 H107 0.929 1_554 S
C81 O94 1.271 1_565 S
C81 O95 1.251 . S
C82 O96 1.252 1_655 S
C82 O97 1.272 . S
C83 Sm73 2.846 . S
C83 C84 1.506 . S
C83 O98 1.261 . S
C83 O99 1.242 . S
C84 C83 1.506 . S
C84 C85 1.358 . S
C84 C89 1.382 . S
C85 C84 1.358 . S
C85 C86 1.385 . S
C85 H108 0.930 1_655 S
C86 C85 1.385 . S
C86 C87 1.395 . S
C86 H109 0.929 . S
C87 C86 1.395 . S
C87 C88 1.335 . S
C88 C87 1.335 . S
C88 C89 1.398 . S
C88 H110 0.930 . S
C89 C84 1.382 . S
C89 C88 1.398 . S
C89 H111 0.929 . S
C90 O100 1.271 1_545 S
C90 O101 1.251 . S
C91 O102 1.252 1_455 S
C91 O103 1.272 . S
O92 Sm72 2.543 . S
O92 C74 1.261 . S
O93 Sm72 2.450 . S
O93 C74 1.242 . S
O94 Sm72 2.681 1_545 S
O94 Sm73 2.386 1_455 S
O94 C81 1.271 1_545 S
O95 Sm72 2.464 . S
O95 C81 1.251 . S
O96 Sm72 2.396 . S
O96 C82 1.252 1_455 S
O97 Sm73 2.408 1_565 S
O97 C82 1.272 . S
O98 Sm73 2.543 . S
O98 C83 1.261 . S
O99 Sm73 2.450 . S
O99 C83 1.242 . S
O100 Sm72 2.386 1_655 S
O100 Sm73 2.681 1_565 S
O100 C90 1.271 1_565 S
O101 Sm73 2.464 . S
O101 C90 1.251 . S
O102 Sm73 2.396 . S
O102 C91 1.252 1_655 S
O103 Sm72 2.408 1_545 S
O103 C91 1.272 . S
H104 C76 0.930 1_655 S
H105 C77 0.929 . S
H106 C79 0.930 . S
H107 C80 0.929 1_556 S
H108 C85 0.930 1_455 S
H109 C86 0.929 . S
H110 C88 0.930 . S
H111 C89 0.929 . S
Sm112 C114 2.846 . S
Sm112 O132 2.543 . S
Sm112 O133 2.450 . S
Sm112 O134 2.681 . S
Sm112 O135 2.464 . S
Sm112 O136 2.396 . S
Sm112 O140 2.386 1_545 S
Sm112 O143 2.408 . S
Sm113 C123 2.846 . S
Sm113 O134 2.386 1_565 S
Sm113 O137 2.408 . S
Sm113 O138 2.543 . S
Sm113 O139 2.450 . S
Sm113 O140 2.681 . S
Sm113 O141 2.464 . S
Sm113 O142 2.396 . S
C114 Sm112 2.846 . S
C114 C115 1.506 1_556 S
C114 O132 1.261 . S
C114 O133 1.242 . S
C115 C114 1.506 1_554 S
C115 C116 1.358 . S
C115 C120 1.382 . S
C116 C115 1.358 . S
C116 C117 1.385 . S
C116 H144 0.930 1_545 S
C117 C116 1.385 . S
C117 C118 1.395 . S
C117 H145 0.929 . S
C118 C117 1.395 . S
C118 C119 1.335 . S
C119 C118 1.335 . S
C119 C120 1.398 . S
C119 H146 0.930 . S
C120 C115 1.382 . S
C120 C119 1.398 . S
C120 H147 0.929 1_554 S
C121 O134 1.271 . S
C121 O135 1.251 . S
C122 O136 1.252 1_565 S
C122 O137 1.272 . S
C123 Sm113 2.846 . S
C123 C124 1.506 . S
C123 O138 1.261 . S
C123 O139 1.242 . S
C124 C123 1.506 . S
C124 C125 1.358 . S
C124 C129 1.382 . S
C125 C124 1.358 . S
C125 C126 1.385 . S
C125 H148 0.930 1_565 S
C126 C125 1.385 . S
C126 C127 1.395 . S
C126 H149 0.929 . S
C127 C126 1.395 . S
C127 C128 1.335 . S
C128 C127 1.335 . S
C128 C129 1.398 . S
C128 H150 0.930 . S
C129 C124 1.382 . S
C129 C128 1.398 . S
C129 H151 0.929 . S
C130 O140 1.271 . S
C130 O141 1.251 . S
C131 O142 1.252 1_545 S
C131 O143 1.272 . S
O132 Sm112 2.543 . S
O132 C114 1.261 . S
O133 Sm112 2.450 . S
O133 C114 1.242 . S
O134 Sm112 2.681 . S
O134 Sm113 2.386 1_545 S
O134 C121 1.271 . S
O135 Sm112 2.464 . S
O135 C121 1.251 . S
O136 Sm112 2.396 . S
O136 C122 1.252 1_545 S
O137 Sm113 2.408 . S
O137 C122 1.272 . S
O138 Sm113 2.543 . S
O138 C123 1.261 . S
O139 Sm113 2.450 . S
O139 C123 1.242 . S
O140 Sm112 2.386 1_565 S
O140 Sm113 2.681 . S
O140 C130 1.271 . S
O141 Sm113 2.464 . S
O141 C130 1.251 . S
O142 Sm113 2.396 . S
O142 C131 1.252 1_565 S
O143 Sm112 2.408 . S
O143 C131 1.272 . S
H144 C116 0.930 1_565 S
H145 C117 0.929 . S
H146 C119 0.930 . S
H147 C120 0.929 1_556 S
H148 C125 0.930 1_545 S
H149 C126 0.929 . S
H150 C128 0.930 . S
H151 C129 0.929 . S
Sm152 C154 2.846 . S
Sm152 O172 2.543 . S
Sm152 O173 2.450 . S
Sm152 O174 2.681 . S
Sm152 O175 2.464 . S
Sm152 O176 2.396 . S
Sm152 O180 2.386 . S
Sm152 O183 2.408 . S
Sm153 C163 2.846 . S
Sm153 O174 2.386 . S
Sm153 O177 2.408 . S
Sm153 O178 2.543 . S
Sm153 O179 2.450 . S
Sm153 O180 2.681 . S
Sm153 O181 2.464 . S
Sm153 O182 2.396 . S
C154 Sm152 2.846 . S
C154 C155 1.506 1_556 S
C154 O172 1.261 . S
C154 O173 1.242 . S
C155 C154 1.506 1_554 S
C155 C156 1.358 . S
C155 C160 1.382 . S
C156 C155 1.358 . S
C156 C157 1.385 . S
C156 H184 0.930 . S
C157 C156 1.385 . S
C157 C158 1.395 . S
C157 H185 0.929 . S
C158 C157 1.395 . S
C158 C159 1.335 . S
C159 C158 1.335 . S
C159 C160 1.398 . S
C159 H186 0.930 . S
C160 C155 1.382 . S
C160 C159 1.398 . S
C160 H187 0.929 1_554 S
C161 O174 1.271 . S
C161 O175 1.251 . S
C162 O176 1.252 . S
C162 O177 1.272 . S
C163 Sm153 2.846 . S
C163 C164 1.506 . S
C163 O178 1.261 . S
C163 O179 1.242 . S
C164 C163 1.506 . S
C164 C165 1.358 . S
C164 C169 1.382 . S
C165 C164 1.358 . S
C165 C166 1.385 . S
C165 H188 0.930 . S
C166 C165 1.385 . S
C166 C167 1.395 . S
C166 H189 0.929 . S
C167 C166 1.395 . S
C167 C168 1.335 . S
C168 C167 1.335 . S
C168 C169 1.398 . S
C168 H190 0.930 . S
C169 C164 1.382 . S
C169 C168 1.398 . S
C169 H191 0.929 . S
C170 O180 1.271 . S
C170 O181 1.251 . S
C171 O182 1.252 . S
C171 O183 1.272 . S
O172 Sm152 2.543 . S
O172 C154 1.261 . S
O173 Sm152 2.450 . S
O173 C154 1.242 . S
O174 Sm152 2.681 . S
O174 Sm153 2.386 . S
O174 C161 1.271 . S
O175 Sm152 2.464 . S
O175 C161 1.251 . S
O176 Sm152 2.396 . S
O176 C162 1.252 . S
O177 Sm153 2.408 . S
O177 C162 1.272 . S
O178 Sm153 2.543 . S
O178 C163 1.261 . S
O179 Sm153 2.450 . S
O179 C163 1.242 . S
O180 Sm152 2.386 . S
O180 Sm153 2.681 . S
O180 C170 1.271 . S
O181 Sm153 2.464 . S
O181 C170 1.251 . S
O182 Sm153 2.396 . S
O182 C171 1.252 . S
O183 Sm152 2.408 . S
O183 C171 1.272 . S
H184 C156 0.930 . S
H185 C157 0.929 . S
H186 C159 0.930 . S
H187 C160 0.929 1_556 S
H188 C165 0.930 . S
H189 C166 0.929 . S
H190 C168 0.930 . S
H191 C169 0.929 . S
Sm192 C194 2.846 . S
Sm192 O212 2.543 . S
Sm192 O213 2.450 . S
Sm192 O214 2.681 1_655 S
Sm192 O215 2.464 . S
Sm192 O216 2.396 . S
Sm192 O220 2.386 . S
Sm192 O223 2.408 1_655 S
Sm193 C203 2.846 . S
Sm193 O214 2.386 . S
Sm193 O217 2.408 1_455 S
Sm193 O218 2.543 . S
Sm193 O219 2.450 . S
Sm193 O220 2.681 1_455 S
Sm193 O221 2.464 . S
Sm193 O222 2.396 . S
C194 Sm192 2.846 . S
C194 C195 1.506 1_556 S
C194 O212 1.261 . S
C194 O213 1.242 . S
C195 C194 1.506 1_554 S
C195 C196 1.358 . S
C195 C200 1.382 . S
C196 C195 1.358 . S
C196 C197 1.385 . S
C196 H224 0.930 . S
C197 C196 1.385 . S
C197 C198 1.395 . S
C197 H225 0.929 . S
C198 C197 1.395 . S
C198 C199 1.335 . S
C199 C198 1.335 . S
C199 C200 1.398 . S
C199 H226 0.930 . S
C200 C195 1.382 . S
C200 C199 1.398 . S
C200 H227 0.929 1_554 S
C201 O214 1.269 1_655 S
C201 O215 1.255 . S
C202 O216 1.252 . S
C202 O217 1.272 . S
C203 Sm193 2.846 . S
C203 C204 1.506 . S
C203 O218 1.261 . S
C203 O219 1.242 . S
C204 C203 1.506 . S
C204 C205 1.358 . S
C204 C209 1.382 . S
C205 C204 1.358 . S
C205 C206 1.385 . S
C205 H228 0.930 . S
C206 C205 1.385 . S
C206 C207 1.395 . S
C206 H229 0.929 . S
C207 C206 1.395 . S
C207 C208 1.335 . S
C208 C207 1.335 . S
C208 C209 1.398 . S
C208 H230 0.930 . S
C209 C204 1.382 . S
C209 C208 1.398 . S
C209 H231 0.929 . S
C210 O220 1.267 1_455 S
C210 O221 1.258 . S
C211 O222 1.252 . S
C211 O223 1.272 . S
O212 Sm192 2.543 . S
O212 C194 1.261 . S
O213 Sm192 2.450 . S
O213 C194 1.242 . S
O214 Sm192 2.681 1_455 S
O214 Sm193 2.386 . S
O214 C201 1.269 1_455 S
O215 Sm192 2.464 . S
O215 C201 1.255 . S
O216 Sm192 2.396 . S
O216 C202 1.252 . S
O217 Sm193 2.408 1_655 S
O217 C202 1.272 . S
O218 Sm193 2.543 . S
O218 C203 1.261 . S
O219 Sm193 2.450 . S
O219 C203 1.242 . S
O220 Sm192 2.386 . S
O220 Sm193 2.681 1_655 S
O220 C210 1.267 1_655 S
O221 Sm193 2.464 . S
O221 C210 1.258 . S
O222 Sm193 2.396 . S
O222 C211 1.252 . S
O223 Sm192 2.408 1_455 S
O223 C211 1.272 . S
H224 C196 0.930 . S
H225 C197 0.929 . S
H226 C199 0.930 . S
H227 C200 0.929 1_556 S
H228 C205 0.930 . S
H229 C206 0.929 . S
H230 C208 0.930 . S
H231 C209 0.929 . S
H232 C238 0.930 . S
H233 C241 0.930 . S
H234 C242 0.930 . S
H235 C243 0.930 . S
H236 C246 0.930 . S
H237 C247 0.930 . S
C238 H232 0.930 . S
C238 C239 1.355 1_565 S
C238 C240 1.415 . S
C239 C238 1.355 1_545 S
C239 C241 1.419 . S
C240 C238 1.415 . S
C240 C245 1.425 1_565 S
C240 C247 1.409 . S
C241 H233 0.930 . S
C241 C239 1.419 . S
C241 C242 1.362 . S
C242 H234 0.930 . S
C242 C241 1.362 . S
C242 C245 1.409 . S
C243 H235 0.930 . S
C243 C244 1.341 1_545 S
C243 C245 1.415 . S
C244 C243 1.341 1_565 S
C244 C246 1.437 . S
C245 C240 1.425 1_545 S
C245 C242 1.409 . S
C245 C243 1.415 . S
C246 H236 0.930 . S
C246 C244 1.437 . S
C246 C247 1.362 . S
C247 H237 0.930 . S
C247 C240 1.409 . S
C247 C246 1.362 . S
H248 C254 0.930 . S
H249 C257 0.930 . S
H250 C258 0.930 . S
H251 C259 0.930 . S
H252 C262 0.930 . S
H253 C263 0.930 . S
C254 H248 0.930 . S
C254 C255 1.355 . S
C254 C256 1.415 . S
C255 C254 1.355 . S
C255 C257 1.419 . S
C256 C254 1.415 . S
C256 C261 1.425 . S
C256 C263 1.409 . S
C257 H249 0.930 . S
C257 C255 1.419 . S
C257 C258 1.362 . S
C258 H250 0.930 . S
C258 C257 1.362 . S
C258 C261 1.409 . S
C259 H251 0.930 . S
C259 C260 1.355 . S
C259 C261 1.415 . S
C260 C259 1.355 . S
C260 C262 1.419 . S
C261 C256 1.425 . S
C261 C258 1.409 . S
C261 C259 1.415 . S
C262 H252 0.930 . S
C262 C260 1.419 . S
C262 C263 1.362 . S
C263 H253 0.930 . S
C263 C256 1.409 . S
C263 C262 1.362 . S
H264 C270 0.930 . S
H265 C273 0.930 . S
H266 C274 0.930 . S
H267 C275 0.930 . S
H268 C278 0.930 . S
H269 C279 0.930 . S
C270 H264 0.930 . S
C270 C271 1.355 . S
C270 C272 1.415 . S
C271 C270 1.355 . S
C271 C273 1.419 . S
C272 C270 1.415 . S
C272 C277 1.425 . S
C272 C279 1.409 . S
C273 H265 0.930 . S
C273 C271 1.419 . S
C273 C274 1.362 . S
C274 H266 0.930 . S
C274 C273 1.362 . S
C274 C277 1.409 . S
C275 H267 0.930 . S
C275 C276 1.355 . S
C275 C277 1.415 . S
C276 C275 1.355 . S
C276 C278 1.419 . S
C277 C272 1.425 . S
C277 C274 1.409 . S
C277 C275 1.415 . S
C278 H268 0.930 . S
C278 C276 1.419 . S
C278 C279 1.362 . S
C279 H269 0.930 . S
C279 C272 1.409 . S
C279 C278 1.362 . S
H280 C286 0.930 . S
H281 C289 0.930 . S
H282 C290 0.930 . S
H283 C291 0.930 . S
H284 C294 0.930 . S
H285 C295 0.930 . S
C286 H280 0.930 . S
C286 C287 1.337 1_455 S
C286 C288 1.415 . S
C287 C286 1.337 1_655 S
C287 C289 1.441 . S
C288 C286 1.415 . S
C288 C293 1.425 1_455 S
C288 C295 1.409 . S
C289 H281 0.930 . S
C289 C287 1.441 . S
C289 C290 1.362 . S
C290 H282 0.930 . S
C290 C289 1.362 . S
C290 C293 1.409 . S
C291 H283 0.930 . S
C291 C292 1.355 1_655 S
C291 C293 1.415 . S
C292 C291 1.355 1_455 S
C292 C294 1.419 . S
C293 C288 1.425 1_655 S
C293 C290 1.409 . S
C293 C291 1.415 . S
C294 H284 0.930 . S
C294 C292 1.419 . S
C294 C295 1.362 . S
C295 H285 0.930 . S
C295 C288 1.409 . S
C295 C294 1.362 . S
H296 C302 0.930 . S
H297 C305 0.930 . S
H298 C306 0.930 . S
H299 C307 0.930 . S
H300 C310 0.930 . S
H301 C311 0.930 . S
C302 H296 0.930 . S
C302 C303 1.355 1_545 S
C302 C304 1.415 . S
C303 C302 1.355 1_565 S
C303 C305 1.419 . S
C304 C302 1.415 . S
C304 C309 1.425 1_545 S
C304 C311 1.409 . S
C305 H297 0.930 . S
C305 C303 1.419 . S
C305 C306 1.362 . S
C306 H298 0.930 . S
C306 C305 1.362 . S
C306 C309 1.409 . S
C307 H299 0.930 . S
C307 C308 1.355 1_564 S
C307 C309 1.415 . S
C308 C307 1.355 1_546 S
C308 C310 1.419 . S
C309 C304 1.425 1_565 S
C309 C306 1.409 . S
C309 C307 1.415 . S
C310 H300 0.930 . S
C310 C308 1.419 . S
C310 C311 1.362 1_556 S
C311 H301 0.930 . S
C311 C304 1.409 . S
C311 C310 1.362 1_554 S
H312 C318 0.930 . S
H313 C321 0.930 . S
H314 C322 0.930 . S
H315 C323 0.930 . S
H316 C326 0.930 1_556 S
H317 C327 0.930 . S
C318 H312 0.930 . S
C318 C319 1.355 . S
C318 C320 1.415 . S
C319 C318 1.355 . S
C319 C321 1.419 . S
C320 C318 1.415 . S
C320 C325 1.425 . S
C320 C327 1.409 . S
C321 H313 0.930 . S
C321 C319 1.419 . S
C321 C322 1.362 . S
C322 H314 0.930 . S
C322 C321 1.362 . S
C322 C325 1.409 . S
C323 H315 0.930 . S
C323 C324 1.355 1_554 S
C323 C325 1.415 . S
C324 C323 1.355 1_556 S
C324 C326 1.419 1_556 S
C325 C320 1.425 . S
C325 C322 1.409 . S
C325 C323 1.415 . S
C326 H316 0.930 1_554 S
C326 C324 1.419 1_554 S
C326 C327 1.362 . S
C327 H317 0.930 . S
C327 C320 1.409 . S
C327 C326 1.362 . S
H328 C334 0.930 . S
H329 C337 0.930 . S
H330 C338 0.930 . S
H331 C339 0.930 1_556 S
H332 C342 0.930 . S
H333 C343 0.930 . S
C334 H328 0.930 . S
C334 C335 1.355 . S
C334 C336 1.415 . S
C335 C334 1.355 . S
C335 C337 1.419 . S
C336 C334 1.415 . S
C336 C341 1.425 . S
C336 C343 1.409 . S
C337 H329 0.930 . S
C337 C335 1.419 . S
C337 C338 1.362 . S
C338 H330 0.930 . S
C338 C337 1.362 . S
C338 C341 1.409 . S
C339 H331 0.930 1_554 S
C339 C340 1.355 1_554 S
C339 C341 1.415 . S
C340 C339 1.355 1_556 S
C340 C342 1.419 1_556 S
C341 C336 1.425 . S
C341 C338 1.409 . S
C341 C339 1.415 . S
C342 H332 0.930 . S
C342 C340 1.419 1_554 S
C342 C343 1.362 . S
C343 H333 0.930 . S
C343 C336 1.409 . S
C343 C342 1.362 . S
H344 C350 0.930 . S
H345 C353 0.930 . S
H346 C354 0.930 . S
H347 C355 0.930 . S
H348 C358 0.930 . S
H349 C359 0.930 . S
C350 H344 0.930 . S
C350 C351 1.355 . S
C350 C352 1.415 . S
C351 C350 1.355 . S
C351 C353 1.419 1_655 S
C352 C350 1.415 . S
C352 C357 1.425 1_655 S
C352 C359 1.409 . S
C353 H345 0.930 . S
C353 C351 1.419 1_455 S
C353 C354 1.362 . S
C354 H346 0.930 . S
C354 C353 1.362 . S
C354 C357 1.409 . S
C355 H347 0.930 . S
C355 C356 1.355 1_454 S
C355 C357 1.415 . S
C356 C355 1.355 1_656 S
C356 C358 1.419 . S
C357 C352 1.425 1_455 S
C357 C354 1.409 . S
C357 C355 1.415 . S
C358 H348 0.930 . S
C358 C356 1.419 . S
C358 C359 1.362 1_556 S
C359 H349 0.930 . S
C359 C352 1.409 . S
C359 C358 1.362 1_554 S
H360 C366 0.945 . S
H361 C369 0.930 . S
H362 C370 0.930 . S
H363 C371 0.930 . S
H364 C374 0.930 . S
H365 C375 0.930 . S
C366 H360 0.945 . S
C366 C367 1.355 . S
C366 C368 1.400 1_455 S
C367 C366 1.355 . S
C367 C369 1.419 1_455 S
C368 C366 1.400 1_655 S
C368 C373 1.425 . S
C368 C375 1.409 . S
C369 H361 0.930 . S
C369 C367 1.419 1_655 S
C369 C370 1.362 . S
C370 H362 0.930 . S
C370 C369 1.362 . S
C370 C373 1.409 . S
C371 H363 0.930 . S
C371 C372 1.355 . S
C371 C373 1.415 . S
C372 C371 1.355 . S
C372 C374 1.419 . S
C373 C368 1.425 . S
C373 C370 1.409 . S
C373 C371 1.415 . S
C374 H364 0.930 . S
C374 C372 1.419 . S
C374 C375 1.362 . S
C375 H365 0.930 . S
C375 C368 1.409 . S
C375 C374 1.362 . S
H376 C382 0.930 . S
H377 C385 0.930 . S
H378 C386 0.930 . S
H379 C387 0.930 . S
H380 C390 0.930 . S
H381 C391 0.930 . S
C382 H376 0.930 . S
C382 C383 1.355 1_565 S
C382 C384 1.415 . S
C383 C382 1.355 1_545 S
C383 C385 1.419 . S
C384 C382 1.415 . S
C384 C389 1.425 . S
C384 C391 1.409 . S
C385 H377 0.930 . S
C385 C383 1.419 . S
C385 C386 1.362 . S
C386 H378 0.930 . S
C386 C385 1.362 . S
C386 C389 1.409 1_545 S
C387 H379 0.930 . S
C387 C388 1.355 . S
C387 C389 1.415 . S
C388 C387 1.355 . S
C388 C390 1.419 . S
C389 C384 1.425 . S
C389 C386 1.409 1_565 S
C389 C387 1.415 . S
C390 H380 0.930 . S
C390 C388 1.419 . S
C390 C391 1.362 . S
C391 H381 0.930 . S
C391 C384 1.409 . S
C391 C390 1.362 . S
H392 C398 0.930 . S
H393 C401 0.930 . S
H394 C402 0.930 . S
H395 C403 0.930 . S
H396 C406 0.930 . S
H397 C407 0.930 . S
C398 H392 0.930 . S
C398 C399 1.355 . S
C398 C400 1.415 . S
C399 C398 1.355 . S
C399 C401 1.419 . S
C400 C398 1.415 . S
C400 C405 1.425 . S
C400 C407 1.409 . S
C401 H393 0.930 . S
C401 C399 1.419 . S
C401 C402 1.362 . S
C402 H394 0.930 . S
C402 C401 1.362 . S
C402 C405 1.409 . S
C403 H395 0.930 . S
C403 C404 1.355 . S
C403 C405 1.415 . S
C404 C403 1.355 . S
C404 C406 1.419 . S
C405 C400 1.425 . S
C405 C402 1.409 . S
C405 C403 1.415 . S
C406 H396 0.930 . S
C406 C404 1.419 . S
C406 C407 1.362 . S
C407 H397 0.930 . S
C407 C400 1.409 . S
C407 C406 1.362 . S
H408 C414 0.930 . S
H409 C417 0.930 . S
H410 C418 0.930 . S
H411 C419 0.930 . S
H412 C422 0.930 . S
H413 C423 0.930 . S
C414 H408 0.930 . S
C414 C415 1.355 . S
C414 C416 1.415 . S
C415 C414 1.355 . S
C415 C417 1.419 . S
C416 C414 1.415 . S
C416 C421 1.425 . S
C416 C423 1.409 . S
C417 H409 0.930 . S
C417 C415 1.419 . S
C417 C418 1.362 . S
C418 H410 0.930 . S
C418 C417 1.362 . S
C418 C421 1.409 . S
C419 H411 0.930 . S
C419 C420 1.355 . S
C419 C421 1.415 . S
C420 C419 1.355 . S
C420 C422 1.419 . S
C421 C416 1.425 . S
C421 C418 1.409 . S
C421 C419 1.415 . S
C422 H412 0.930 . S
C422 C420 1.419 . S
C422 C423 1.362 . S
C423 H413 0.930 . S
C423 C416 1.409 . S
C423 C422 1.362 . S
H424 C430 0.930 . S
H425 C433 0.930 . S
H426 C434 0.930 . S
H427 C435 0.930 . S
H428 C438 0.930 1_556 S
H429 C439 0.930 . S
C430 H424 0.930 . S
C430 C431 1.353 1_655 S
C430 C432 1.415 1_655 S
C431 C430 1.353 1_455 S
C431 C433 1.435 . S
C432 C430 1.415 1_455 S
C432 C437 1.425 . S
C432 C439 1.409 . S
C433 H425 0.930 . S
C433 C431 1.435 . S
C433 C434 1.362 . S
C434 H426 0.930 . S
C434 C433 1.362 . S
C434 C437 1.409 . S
C435 H427 0.930 . S
C435 C436 1.355 . S
C435 C437 1.415 . S
C436 C435 1.355 . S
C436 C438 1.419 . S
C437 C432 1.425 . S
C437 C434 1.409 . S
C437 C435 1.415 . S
C438 H428 0.930 1_554 S
C438 C436 1.419 . S
C438 C439 1.362 . S
C439 H429 0.930 . S
C439 C432 1.409 . S
C439 C438 1.362 . S
H440 C446 0.930 . S
H441 C449 0.930 . S
H442 C450 0.930 . S
H443 C451 0.930 . S
H444 C454 0.930 . S
H445 C455 0.896 1_565 S
C446 H440 0.930 . S
C446 C447 1.355 1_565 S
C446 C448 1.415 1_565 S
C447 C446 1.355 1_545 S
C447 C449 1.419 . S
C448 C446 1.415 1_545 S
C448 C453 1.425 . S
C448 C455 1.421 . S
C449 H441 0.930 . S
C449 C447 1.419 . S
C449 C450 1.362 . S
C450 H442 0.930 . S
C450 C449 1.362 . S
C450 C453 1.409 . S
C451 H443 0.930 . S
C451 C452 1.355 . S
C451 C453 1.415 . S
C452 C451 1.355 . S
C452 C454 1.419 . S
C453 C448 1.425 . S
C453 C450 1.409 . S
C453 C451 1.415 . S
C454 H444 0.930 . S
C454 C452 1.419 . S
C454 C455 1.385 . S
C455 H445 0.896 1_545 S
C455 C448 1.421 . S
C455 C454 1.385 . S
H456 C462 0.930 . S
H457 C465 0.930 . S
H458 C466 0.930 . S
H459 C467 0.930 . S
H460 C470 0.930 . S
H461 C471 0.930 . S
C462 H456 0.930 . S
C462 C463 1.355 . S
C462 C464 1.415 . S
C463 C462 1.355 . S
C463 C465 1.419 . S
C464 C462 1.415 . S
C464 C469 1.425 . S
C464 C471 1.409 . S
C465 H457 0.930 . S
C465 C463 1.419 . S
C465 C466 1.362 . S
C466 H458 0.930 . S
C466 C465 1.362 . S
C466 C469 1.409 . S
C467 H459 0.930 . S
C467 C468 1.355 . S
C467 C469 1.415 . S
C468 C467 1.355 . S
C468 C470 1.419 . S
C469 C464 1.425 . S
C469 C466 1.409 . S
C469 C467 1.415 . S
C470 H460 0.930 . S
C470 C468 1.419 . S
C470 C471 1.362 . S
C471 H461 0.930 . S
C471 C464 1.409 . S
C471 C470 1.362 . S
H472 C478 0.930 . S
H473 C481 0.930 . S
H474 C482 0.930 . S
H475 C483 0.930 . S
H476 C486 0.930 . S
H477 C487 0.930 . S
C478 H472 0.930 . S
C478 C479 1.355 . S
C478 C480 1.415 . S
C479 C478 1.355 . S
C479 C481 1.419 . S
C480 C478 1.415 . S
C480 C485 1.425 . S
C480 C487 1.409 . S
C481 H473 0.930 . S
C481 C479 1.419 . S
C481 C482 1.362 . S
C482 H474 0.930 . S
C482 C481 1.362 . S
C482 C485 1.409 . S
C483 H475 0.930 . S
C483 C484 1.355 . S
C483 C485 1.415 . S
C484 C483 1.355 . S
C484 C486 1.419 . S
C485 C480 1.425 . S
C485 C482 1.409 . S
C485 C483 1.415 . S
C486 H476 0.930 . S
C486 C484 1.419 . S
C486 C487 1.362 . S
C487 H477 0.930 . S
C487 C480 1.409 . S
C487 C486 1.362 . S
H488 C494 0.930 . S
H489 C497 0.930 . S
H490 C498 0.930 . S
H491 C499 0.930 . S
H492 C502 0.930 . S
H493 C503 0.930 . S
C494 H488 0.930 . S
C494 C495 1.355 1_655 S
C494 C496 1.415 . S
C495 C494 1.355 1_455 S
C495 C497 1.419 . S
C496 C494 1.415 . S
C496 C501 1.425 1_655 S
C496 C503 1.409 . S
C497 H489 0.930 . S
C497 C495 1.419 . S
C497 C498 1.362 . S
C498 H490 0.930 . S
C498 C497 1.362 . S
C498 C501 1.409 . S
C499 H491 0.930 . S
C499 C500 1.355 . S
C499 C501 1.415 . S
C500 C499 1.355 . S
C500 C502 1.419 1_455 S
C501 C496 1.425 1_455 S
C501 C498 1.409 . S
C501 C499 1.415 . S
C502 H492 0.930 . S
C502 C500 1.419 1_655 S
C502 C503 1.362 . S
C503 H493 0.930 . S
C503 C496 1.409 . S
C503 C502 1.362 . S
H504 C510 0.930 . S
H505 C513 0.930 . S
H506 C514 0.930 . S
H507 C515 0.930 . S
H508 C518 0.930 . S
H509 C519 0.930 . S
C510 H504 0.930 . S
C510 C511 1.380 . S
C510 C512 1.415 . S
C511 C510 1.380 . S
C511 C513 1.392 1_545 S
C512 C510 1.415 . S
C512 C517 1.425 1_545 S
C512 C519 1.409 . S
C513 H505 0.930 . S
C513 C511 1.392 1_565 S
C513 C514 1.362 . S
C514 H506 0.930 . S
C514 C513 1.362 . S
C514 C517 1.409 . S
C515 H507 0.930 . S
C515 C516 1.355 1_565 S
C515 C517 1.415 . S
C516 C515 1.355 1_545 S
C516 C518 1.419 . S
C517 C512 1.425 1_565 S
C517 C514 1.409 . S
C517 C515 1.415 . S
C518 H508 0.930 . S
C518 C516 1.419 . S
C518 C519 1.362 . S
C519 H509 0.930 . S
C519 C512 1.409 . S
C519 C518 1.362 . S
H520 C526 0.930 . S
H521 C529 0.930 . S
H522 C530 0.930 . S
H523 C531 0.930 . S
H524 C534 0.930 . S
H525 C535 0.930 . S
C526 H520 0.930 . S
C526 C527 1.355 . S
C526 C528 1.415 . S
C527 C526 1.355 . S
C527 C529 1.419 . S
C528 C526 1.415 . S
C528 C533 1.425 . S
C528 C535 1.409 . S
C529 H521 0.930 . S
C529 C527 1.419 . S
C529 C530 1.362 . S
C530 H522 0.930 . S
C530 C529 1.362 . S
C530 C533 1.409 . S
C531 H523 0.930 . S
C531 C532 1.355 . S
C531 C533 1.415 . S
C532 C531 1.355 . S
C532 C534 1.419 . S
C533 C528 1.425 . S
C533 C530 1.409 . S
C533 C531 1.415 . S
C534 H524 0.930 . S
C534 C532 1.419 . S
C534 C535 1.362 . S
C535 H525 0.930 . S
C535 C528 1.409 . S
C535 C534 1.362 . S
H536 C542 0.930 . S
H537 C545 0.930 . S
H538 C546 0.930 . S
H539 C547 0.930 . S
H540 C550 0.930 . S
H541 C551 0.930 . S
C542 H536 0.930 . S
C542 C543 1.355 . S
C542 C544 1.415 . S
C543 C542 1.355 . S
C543 C545 1.419 . S
C544 C542 1.415 . S
C544 C549 1.425 . S
C544 C551 1.409 . S
C545 H537 0.930 . S
C545 C543 1.419 . S
C545 C546 1.362 . S
C546 H538 0.930 . S
C546 C545 1.362 . S
C546 C549 1.409 . S
C547 H539 0.930 . S
C547 C548 1.355 . S
C547 C549 1.415 . S
C548 C547 1.355 . S
C548 C550 1.419 . S
C549 C544 1.425 . S
C549 C546 1.409 . S
C549 C547 1.415 . S
C550 H540 0.930 . S
C550 C548 1.419 . S
C550 C551 1.362 . S
C551 H541 0.930 . S
C551 C544 1.409 . S
C551 C550 1.362 . S
H552 C558 0.930 . S
H553 C561 0.930 . S
H554 C562 0.930 . S
H555 C563 0.930 . S
H556 C566 0.930 . S
H557 C567 0.930 . S
C558 H552 0.930 . S
C558 C559 1.355 1_455 S
C558 C560 1.415 . S
C559 C558 1.355 1_655 S
C559 C561 1.419 . S
C560 C558 1.415 . S
C560 C565 1.425 1_455 S
C560 C567 1.409 . S
C561 H553 0.930 . S
C561 C559 1.419 . S
C561 C562 1.362 . S
C562 H554 0.930 . S
C562 C561 1.362 . S
C562 C565 1.409 . S
C563 H555 0.930 . S
C563 C564 1.355 . S
C563 C565 1.415 . S
C564 C563 1.355 . S
C564 C566 1.419 1_655 S
C565 C560 1.425 1_655 S
C565 C562 1.409 . S
C565 C563 1.415 . S
C566 H556 0.930 . S
C566 C564 1.419 1_455 S
C566 C567 1.362 . S
C567 H557 0.930 . S
C567 C560 1.409 . S
C567 C566 1.362 . S
H568 C574 0.930 . S
H569 C577 0.930 . S
H570 C578 0.930 . S
H571 C579 0.930 1_545 S
H572 C582 0.930 . S
H573 C583 0.930 . S
C574 H568 0.930 . S
C574 C575 1.355 . S
C574 C576 1.415 . S
C575 C574 1.355 . S
C575 C577 1.419 1_565 S
C576 C574 1.415 . S
C576 C581 1.425 . S
C576 C583 1.409 . S
C577 H569 0.930 . S
C577 C575 1.419 1_545 S
C577 C578 1.362 . S
C578 H570 0.930 . S
C578 C577 1.362 . S
C578 C581 1.409 1_545 S
C579 H571 0.930 1_565 S
C579 C580 1.355 . S
C579 C581 1.415 . S
C580 C579 1.355 . S
C580 C582 1.419 . S
C581 C576 1.425 . S
C581 C578 1.409 1_565 S
C581 C579 1.415 . S
C582 H572 0.930 . S
C582 C580 1.419 . S
C582 C583 1.362 . S
C583 H573 0.930 . S
C583 C576 1.409 . S
C583 C582 1.362 . S
H584 C590 0.930 . S
H585 C593 0.930 . S
H586 C594 0.930 . S
H587 C595 0.930 . S
H588 C598 0.930 . S
H589 C599 0.930 . S
C590 H584 0.930 . S
C590 C591 1.355 . S
C590 C592 1.415 . S
C591 C590 1.355 . S
C591 C593 1.419 . S
C592 C590 1.415 . S
C592 C597 1.425 . S
C592 C599 1.409 . S
C593 H585 0.930 . S
C593 C591 1.419 . S
C593 C594 1.362 . S
C594 H586 0.930 . S
C594 C593 1.362 . S
C594 C597 1.409 . S
C595 H587 0.930 . S
C595 C596 1.355 . S
C595 C597 1.415 . S
C596 C595 1.355 . S
C596 C598 1.419 . S
C597 C592 1.425 . S
C597 C594 1.409 . S
C597 C595 1.415 . S
C598 H588 0.930 . S
C598 C596 1.419 . S
C598 C599 1.362 . S
C599 H589 0.930 . S
C599 C592 1.409 . S
C599 C598 1.362 . S
H600 C606 0.930 . S
H601 C609 0.930 . S
H602 C610 0.930 . S
H603 C611 0.930 . S
H604 C614 0.930 . S
H605 C615 0.930 . S
C606 H600 0.930 . S
C606 C607 1.355 . S
C606 C608 1.415 . S
C607 C606 1.355 . S
C607 C609 1.419 . S
C608 C606 1.415 . S
C608 C613 1.425 . S
C608 C615 1.409 . S
C609 H601 0.930 . S
C609 C607 1.419 . S
C609 C610 1.362 . S
C610 H602 0.930 . S
C610 C609 1.362 . S
C610 C613 1.409 . S
C611 H603 0.930 . S
C611 C612 1.355 . S
C611 C613 1.415 . S
C612 C611 1.355 . S
C612 C614 1.419 . S
C613 C608 1.425 . S
C613 C610 1.409 . S
C613 C611 1.415 . S
C614 H604 0.930 . S
C614 C612 1.419 . S
C614 C615 1.362 . S
C615 H605 0.930 . S
C615 C608 1.409 . S
C615 C614 1.362 . S
C239 C61 1.902 1_545 S
C244 C81 2.045 . S
C260 C121 2.075 . S
C255 C70 1.939 . S
C276 C161 2.090 . S
C271 C43 1.930 . S
C292 C201 2.067 1_455 S
C287 C52 1.843 . S
C308 C90 2.044 . S
C303 C25 1.900 . S
C319 C34 1.937 . S
C324 C130 2.080 . S
C335 C7 1.873 . S
C340 C170 2.089 . S
C351 C16 1.922 . S
C356 C210 2.061 1_655 S
C372 C87 0.682 . S
C367 C50 0.625 1_455 S
C388 C127 0.722 . S
C383 C59 0.721 1_545 S
C404 C167 0.754 . S
C399 C67 0.710 . S
C415 C41 0.641 . S
C420 C207 0.699 . S
C431 C14 0.579 1_455 S
C436 C78 0.605 . S
C452 C118 0.568 . S
C447 C23 0.594 1_545 S
C468 C158 0.565 . S
C463 C31 0.571 . S
C479 C5 0.688 . S
C484 C198 0.759 . S
C495 C49 2.169 1_455 S
C500 C91 2.386 . S
C511 C58 2.090 1_545 S
C516 C131 2.374 . S
C532 C171 2.315 . S
C527 C68 2.087 . S
C548 C211 2.405 . S
C543 C40 2.133 . S
C559 C13 2.166 . S
C564 C82 2.394 . S
C580 C122 2.368 . S
C575 C22 2.123 . S
C596 C162 2.336 . S
C591 C32 2.039 . S
C607 C4 2.092 . S
C612 C202 2.381 . S
