# Generated by pormake.
# Topology tbo, (3,4)-cn, num edge types: 1
# Building blocks:
#     Node 0, Type 0, BuildingBlock: MIDCAF_clean_linker_0, # of connection points: 3
#     Node 1, Type 0, BuildingBlock: MIDCAF_clean_linker_0, # of connection points: 3
#     Node 2, Type 0, BuildingBlock: MIDCAF_clean_linker_0, # of connection points: 3
#     Node 3, Type 0, BuildingBlock: MIDCAF_clean_linker_0, # of connection points: 3
#     Node 4, Type 0, BuildingBlock: MIDCAF_clean_linker_0, # of connection points: 3
#     Node 5, Type 0, BuildingBlock: MIDCAF_clean_linker_0, # of connection points: 3
#     Node 6, Type 0, BuildingBlock: MIDCAF_clean_linker_0, # of connection points: 3
#     Node 7, Type 0, BuildingBlock: MIDCAF_clean_linker_0, # of connection points: 3
#     Node 8, Type 0, BuildingBlock: MIDCAF_clean_linker_0, # of connection points: 3
#     Node 9, Type 0, BuildingBlock: MIDCAF_clean_linker_0, # of connection points: 3
#     Node 10, Type 0, BuildingBlock: MIDCAF_clean_linker_0, # of connection points: 3
#     Node 11, Type 0, BuildingBlock: MIDCAF_clean_linker_0, # of connection points: 3
#     Node 12, Type 0, BuildingBlock: MIDCAF_clean_linker_0, # of connection points: 3
#     Node 13, Type 0, BuildingBlock: MIDCAF_clean_linker_0, # of connection points: 3
#     Node 14, Type 0, BuildingBlock: MIDCAF_clean_linker_0, # of connection points: 3
#     Node 15, Type 0, BuildingBlock: MIDCAF_clean_linker_0, # of connection points: 3
#     Node 16, Type 0, BuildingBlock: MIDCAF_clean_linker_0, # of connection points: 3
#     Node 17, Type 0, BuildingBlock: MIDCAF_clean_linker_0, # of connection points: 3
#     Node 18, Type 0, BuildingBlock: MIDCAF_clean_linker_0, # of connection points: 3
#     Node 19, Type 0, BuildingBlock: MIDCAF_clean_linker_0, # of connection points: 3
#     Node 20, Type 0, BuildingBlock: MIDCAF_clean_linker_0, # of connection points: 3
#     Node 21, Type 0, BuildingBlock: MIDCAF_clean_linker_0, # of connection points: 3
#     Node 22, Type 0, BuildingBlock: MIDCAF_clean_linker_0, # of connection points: 3
#     Node 23, Type 0, BuildingBlock: MIDCAF_clean_linker_0, # of connection points: 3
#     Node 24, Type 0, BuildingBlock: MIDCAF_clean_linker_0, # of connection points: 3
#     Node 25, Type 0, BuildingBlock: MIDCAF_clean_linker_0, # of connection points: 3
#     Node 26, Type 0, BuildingBlock: MIDCAF_clean_linker_0, # of connection points: 3
#     Node 27, Type 0, BuildingBlock: MIDCAF_clean_linker_0, # of connection points: 3
#     Node 28, Type 0, BuildingBlock: MIDCAF_clean_linker_0, # of connection points: 3
#     Node 29, Type 0, BuildingBlock: MIDCAF_clean_linker_0, # of connection points: 3
#     Node 30, Type 0, BuildingBlock: MIDCAF_clean_linker_0, # of connection points: 3
#     Node 31, Type 0, BuildingBlock: MIDCAF_clean_linker_0, # of connection points: 3
#     Node 32, Type 1, BuildingBlock: ESEHIV_clean_sbu_0, # of connection points: 4
#     Node 33, Type 1, BuildingBlock: ESEHIV_clean_sbu_0, # of connection points: 4
#     Node 34, Type 1, BuildingBlock: ESEHIV_clean_sbu_0, # of connection points: 4
#     Node 35, Type 1, BuildingBlock: ESEHIV_clean_sbu_0, # of connection points: 4
#     Node 36, Type 1, BuildingBlock: ESEHIV_clean_sbu_0, # of connection points: 4
#     Node 37, Type 1, BuildingBlock: ESEHIV_clean_sbu_0, # of connection points: 4
#     Node 38, Type 1, BuildingBlock: ESEHIV_clean_sbu_0, # of connection points: 4
#     Node 39, Type 1, BuildingBlock: ESEHIV_clean_sbu_0, # of connection points: 4
#     Node 40, Type 1, BuildingBlock: ESEHIV_clean_sbu_0, # of connection points: 4
#     Node 41, Type 1, BuildingBlock: ESEHIV_clean_sbu_0, # of connection points: 4
#     Node 42, Type 1, BuildingBlock: ESEHIV_clean_sbu_0, # of connection points: 4
#     Node 43, Type 1, BuildingBlock: ESEHIV_clean_sbu_0, # of connection points: 4
#     Node 44, Type 1, BuildingBlock: ESEHIV_clean_sbu_0, # of connection points: 4
#     Node 45, Type 1, BuildingBlock: ESEHIV_clean_sbu_0, # of connection points: 4
#     Node 46, Type 1, BuildingBlock: ESEHIV_clean_sbu_0, # of connection points: 4
#     Node 47, Type 1, BuildingBlock: ESEHIV_clean_sbu_0, # of connection points: 4
#     Node 48, Type 1, BuildingBlock: ESEHIV_clean_sbu_0, # of connection points: 4
#     Node 49, Type 1, BuildingBlock: ESEHIV_clean_sbu_0, # of connection points: 4
#     Node 50, Type 1, BuildingBlock: ESEHIV_clean_sbu_0, # of connection points: 4
#     Node 51, Type 1, BuildingBlock: ESEHIV_clean_sbu_0, # of connection points: 4
#     Node 52, Type 1, BuildingBlock: ESEHIV_clean_sbu_0, # of connection points: 4
#     Node 53, Type 1, BuildingBlock: ESEHIV_clean_sbu_0, # of connection points: 4
#     Node 54, Type 1, BuildingBlock: ESEHIV_clean_sbu_0, # of connection points: 4
#     Node 55, Type 1, BuildingBlock: ESEHIV_clean_sbu_0, # of connection points: 4
#     Edge 56, Type (0, 1), BuildingBlock: AJUNOK_clean_linker_0, # of connection points: 2
#     Edge 57, Type (0, 1), BuildingBlock: AJUNOK_clean_linker_0, # of connection points: 2
#     Edge 58, Type (0, 1), BuildingBlock: AJUNOK_clean_linker_0, # of connection points: 2
#     Edge 59, Type (0, 1), BuildingBlock: AJUNOK_clean_linker_0, # of connection points: 2
#     Edge 60, Type (0, 1), BuildingBlock: AJUNOK_clean_linker_0, # of connection points: 2
#     Edge 61, Type (0, 1), BuildingBlock: AJUNOK_clean_linker_0, # of connection points: 2
#     Edge 62, Type (0, 1), BuildingBlock: AJUNOK_clean_linker_0, # of connection points: 2
#     Edge 63, Type (0, 1), BuildingBlock: AJUNOK_clean_linker_0, # of connection points: 2
#     Edge 64, Type (0, 1), BuildingBlock: AJUNOK_clean_linker_0, # of connection points: 2
#     Edge 65, Type (0, 1), BuildingBlock: AJUNOK_clean_linker_0, # of connection points: 2
#     Edge 66, Type (0, 1), BuildingBlock: AJUNOK_clean_linker_0, # of connection points: 2
#     Edge 67, Type (0, 1), BuildingBlock: AJUNOK_clean_linker_0, # of connection points: 2
#     Edge 68, Type (0, 1), BuildingBlock: AJUNOK_clean_linker_0, # of connection points: 2
#     Edge 69, Type (0, 1), BuildingBlock: AJUNOK_clean_linker_0, # of connection points: 2
#     Edge 70, Type (0, 1), BuildingBlock: AJUNOK_clean_linker_0, # of connection points: 2
#     Edge 71, Type (0, 1), BuildingBlock: AJUNOK_clean_linker_0, # of connection points: 2
#     Edge 72, Type (0, 1), BuildingBlock: AJUNOK_clean_linker_0, # of connection points: 2
#     Edge 73, Type (0, 1), BuildingBlock: AJUNOK_clean_linker_0, # of connection points: 2
#     Edge 74, Type (0, 1), BuildingBlock: AJUNOK_clean_linker_0, # of connection points: 2
#     Edge 75, Type (0, 1), BuildingBlock: AJUNOK_clean_linker_0, # of connection points: 2
#     Edge 76, Type (0, 1), BuildingBlock: AJUNOK_clean_linker_0, # of connection points: 2
#     Edge 77, Type (0, 1), BuildingBlock: AJUNOK_clean_linker_0, # of connection points: 2
#     Edge 78, Type (0, 1), BuildingBlock: AJUNOK_clean_linker_0, # of connection points: 2
#     Edge 79, Type (0, 1), BuildingBlock: AJUNOK_clean_linker_0, # of connection points: 2
#     Edge 80, Type (0, 1), BuildingBlock: AJUNOK_clean_linker_0, # of connection points: 2
#     Edge 81, Type (0, 1), BuildingBlock: AJUNOK_clean_linker_0, # of connection points: 2
#     Edge 82, Type (0, 1), BuildingBlock: AJUNOK_clean_linker_0, # of connection points: 2
#     Edge 83, Type (0, 1), BuildingBlock: AJUNOK_clean_linker_0, # of connection points: 2
#     Edge 84, Type (0, 1), BuildingBlock: AJUNOK_clean_linker_0, # of connection points: 2
#     Edge 85, Type (0, 1), BuildingBlock: AJUNOK_clean_linker_0, # of connection points: 2
#     Edge 86, Type (0, 1), BuildingBlock: AJUNOK_clean_linker_0, # of connection points: 2
#     Edge 87, Type (0, 1), BuildingBlock: AJUNOK_clean_linker_0, # of connection points: 2
#     Edge 88, Type (0, 1), BuildingBlock: AJUNOK_clean_linker_0, # of connection points: 2
#     Edge 89, Type (0, 1), BuildingBlock: AJUNOK_clean_linker_0, # of connection points: 2
#     Edge 90, Type (0, 1), BuildingBlock: AJUNOK_clean_linker_0, # of connection points: 2
#     Edge 91, Type (0, 1), BuildingBlock: AJUNOK_clean_linker_0, # of connection points: 2
#     Edge 92, Type (0, 1), BuildingBlock: AJUNOK_clean_linker_0, # of connection points: 2
#     Edge 93, Type (0, 1), BuildingBlock: AJUNOK_clean_linker_0, # of connection points: 2
#     Edge 94, Type (0, 1), BuildingBlock: AJUNOK_clean_linker_0, # of connection points: 2
#     Edge 95, Type (0, 1), BuildingBlock: AJUNOK_clean_linker_0, # of connection points: 2
#     Edge 96, Type (0, 1), BuildingBlock: AJUNOK_clean_linker_0, # of connection points: 2
#     Edge 97, Type (0, 1), BuildingBlock: AJUNOK_clean_linker_0, # of connection points: 2
#     Edge 98, Type (0, 1), BuildingBlock: AJUNOK_clean_linker_0, # of connection points: 2
#     Edge 99, Type (0, 1), BuildingBlock: AJUNOK_clean_linker_0, # of connection points: 2
#     Edge 100, Type (0, 1), BuildingBlock: AJUNOK_clean_linker_0, # of connection points: 2
#     Edge 101, Type (0, 1), BuildingBlock: AJUNOK_clean_linker_0, # of connection points: 2
#     Edge 102, Type (0, 1), BuildingBlock: AJUNOK_clean_linker_0, # of connection points: 2
#     Edge 103, Type (0, 1), BuildingBlock: AJUNOK_clean_linker_0, # of connection points: 2
#     Edge 104, Type (0, 1), BuildingBlock: AJUNOK_clean_linker_0, # of connection points: 2
#     Edge 105, Type (0, 1), BuildingBlock: AJUNOK_clean_linker_0, # of connection points: 2
#     Edge 106, Type (0, 1), BuildingBlock: AJUNOK_clean_linker_0, # of connection points: 2
#     Edge 107, Type (0, 1), BuildingBlock: AJUNOK_clean_linker_0, # of connection points: 2
#     Edge 108, Type (0, 1), BuildingBlock: AJUNOK_clean_linker_0, # of connection points: 2
#     Edge 109, Type (0, 1), BuildingBlock: AJUNOK_clean_linker_0, # of connection points: 2
#     Edge 110, Type (0, 1), BuildingBlock: AJUNOK_clean_linker_0, # of connection points: 2
#     Edge 111, Type (0, 1), BuildingBlock: AJUNOK_clean_linker_0, # of connection points: 2
#     Edge 112, Type (0, 1), BuildingBlock: AJUNOK_clean_linker_0, # of connection points: 2
#     Edge 113, Type (0, 1), BuildingBlock: AJUNOK_clean_linker_0, # of connection points: 2
#     Edge 114, Type (0, 1), BuildingBlock: AJUNOK_clean_linker_0, # of connection points: 2
#     Edge 115, Type (0, 1), BuildingBlock: AJUNOK_clean_linker_0, # of connection points: 2
#     Edge 116, Type (0, 1), BuildingBlock: AJUNOK_clean_linker_0, # of connection points: 2
#     Edge 117, Type (0, 1), BuildingBlock: AJUNOK_clean_linker_0, # of connection points: 2
#     Edge 118, Type (0, 1), BuildingBlock: AJUNOK_clean_linker_0, # of connection points: 2
#     Edge 119, Type (0, 1), BuildingBlock: AJUNOK_clean_linker_0, # of connection points: 2
#     Edge 120, Type (0, 1), BuildingBlock: AJUNOK_clean_linker_0, # of connection points: 2
#     Edge 121, Type (0, 1), BuildingBlock: AJUNOK_clean_linker_0, # of connection points: 2
#     Edge 122, Type (0, 1), BuildingBlock: AJUNOK_clean_linker_0, # of connection points: 2
#     Edge 123, Type (0, 1), BuildingBlock: AJUNOK_clean_linker_0, # of connection points: 2
#     Edge 124, Type (0, 1), BuildingBlock: AJUNOK_clean_linker_0, # of connection points: 2
#     Edge 125, Type (0, 1), BuildingBlock: AJUNOK_clean_linker_0, # of connection points: 2
#     Edge 126, Type (0, 1), BuildingBlock: AJUNOK_clean_linker_0, # of connection points: 2
#     Edge 127, Type (0, 1), BuildingBlock: AJUNOK_clean_linker_0, # of connection points: 2
#     Edge 128, Type (0, 1), BuildingBlock: AJUNOK_clean_linker_0, # of connection points: 2
#     Edge 129, Type (0, 1), BuildingBlock: AJUNOK_clean_linker_0, # of connection points: 2
#     Edge 130, Type (0, 1), BuildingBlock: AJUNOK_clean_linker_0, # of connection points: 2
#     Edge 131, Type (0, 1), BuildingBlock: AJUNOK_clean_linker_0, # of connection points: 2
#     Edge 132, Type (0, 1), BuildingBlock: AJUNOK_clean_linker_0, # of connection points: 2
#     Edge 133, Type (0, 1), BuildingBlock: AJUNOK_clean_linker_0, # of connection points: 2
#     Edge 134, Type (0, 1), BuildingBlock: AJUNOK_clean_linker_0, # of connection points: 2
#     Edge 135, Type (0, 1), BuildingBlock: AJUNOK_clean_linker_0, # of connection points: 2
#     Edge 136, Type (0, 1), BuildingBlock: AJUNOK_clean_linker_0, # of connection points: 2
#     Edge 137, Type (0, 1), BuildingBlock: AJUNOK_clean_linker_0, # of connection points: 2
#     Edge 138, Type (0, 1), BuildingBlock: AJUNOK_clean_linker_0, # of connection points: 2
#     Edge 139, Type (0, 1), BuildingBlock: AJUNOK_clean_linker_0, # of connection points: 2
#     Edge 140, Type (0, 1), BuildingBlock: AJUNOK_clean_linker_0, # of connection points: 2
#     Edge 141, Type (0, 1), BuildingBlock: AJUNOK_clean_linker_0, # of connection points: 2
#     Edge 142, Type (0, 1), BuildingBlock: AJUNOK_clean_linker_0, # of connection points: 2
#     Edge 143, Type (0, 1), BuildingBlock: AJUNOK_clean_linker_0, # of connection points: 2
#     Edge 144, Type (0, 1), BuildingBlock: AJUNOK_clean_linker_0, # of connection points: 2
#     Edge 145, Type (0, 1), BuildingBlock: AJUNOK_clean_linker_0, # of connection points: 2
#     Edge 146, Type (0, 1), BuildingBlock: AJUNOK_clean_linker_0, # of connection points: 2
#     Edge 147, Type (0, 1), BuildingBlock: AJUNOK_clean_linker_0, # of connection points: 2
#     Edge 148, Type (0, 1), BuildingBlock: AJUNOK_clean_linker_0, # of connection points: 2
#     Edge 149, Type (0, 1), BuildingBlock: AJUNOK_clean_linker_0, # of connection points: 2
#     Edge 150, Type (0, 1), BuildingBlock: AJUNOK_clean_linker_0, # of connection points: 2
#     Edge 151, Type (0, 1), BuildingBlock: AJUNOK_clean_linker_0, # of connection points: 2
# Relax obj value: 0.003
# Max RMSD: 0.124
# Mean RMSD: 0.049
data_MOF--net-tbo--node1-ESEHIV_clean_sbu_0--node2-MIDCAF_clean_linker_0--edge1-AJUNOK_clean_linker_0
_symmetry_space_group_name_H-M    P1
_symmetry_Int_Tables_number       1
_symmetry_cell_setting            triclinic
loop_
_symmetry_equiv_pos_as_xyz
'x, y, z'
_cell_length_a     70.881596
_cell_length_b     70.855848
_cell_length_c     70.851116
_cell_angle_alpha  90.020292
_cell_angle_beta   92.736708
_cell_angle_gamma 90.852852
loop_
_atom_site_label
_atom_site_type_symbol
_atom_site_fract_x
_atom_site_fract_y
_atom_site_fract_z
_atom_type_partial_charge
C0 C 0.15551 0.21854 0.2051 0.0
C1 C 0.13994 0.21008 0.21341 0.0
C2 C 0.14026 0.19064 0.21732 0.0
C3 C 0.156 0.17987 0.21312 0.0
H4 H 0.18824 0.13002 0.2292 0.0
H5 H 0.19854 0.10175 0.24627 0.0
H6 H 0.25162 0.10409 0.21885 0.0
H7 H 0.24121 0.13183 0.20137 0.0
H8 H 0.24511 0.1564 0.16621 0.0
H9 H 0.26321 0.16623 0.13943 0.0
H10 H 0.22708 0.21425 0.13078 0.0
H11 H 0.20867 0.20437 0.15736 0.0
H12 H 0.18274 0.21473 0.194 0.0
H13 H 0.15555 0.23349 0.20189 0.0
H14 H 0.12839 0.18382 0.22374 0.0
H15 H 0.15587 0.16491 0.21627 0.0
N16 N 0.19259 0.16067 0.20846 0.0
N17 N 0.2184 0.15708 0.18928 0.0
N18 N 0.1987 0.18306 0.18494 0.0
C19 C 0.20797 0.15071 0.2036 0.0
C20 C 0.21388 0.17313 0.17982 0.0
C21 C 0.18796 0.17697 0.1992 0.0
C22 C 0.21383 0.13328 0.21388 0.0
C23 C 0.20204 0.12444 0.2267 0.0
C24 C 0.20797 0.10824 0.2365 0.0
C25 C 0.22586 0.10053 0.23381 0.0
C26 C 0.23759 0.10931 0.22092 0.0
C27 C 0.23162 0.12539 0.21102 0.0
C28 C 0.22529 0.17951 0.16392 0.0
C29 C 0.24096 0.16906 0.15864 0.0
C30 C 0.2514 0.1747 0.14333 0.0
C31 C 0.24639 0.19084 0.1329 0.0
C32 C 0.23099 0.2015 0.13834 0.0
C33 C 0.22054 0.19589 0.15366 0.0
C34 C 0.1715 0.18829 0.20451 0.0
C35 C 0.17103 0.20775 0.20055 0.0
C36 C 0.85685 0.13052 0.21528 0.0
C37 C 0.83761 0.12621 0.21179 0.0
C38 C 0.82678 0.1381 0.19976 0.0
C39 C 0.83502 0.15405 0.19155 0.0
H40 H 0.82754 0.19614 0.15026 0.0
H41 H 0.81153 0.21445 0.12534 0.0
H42 H 0.85956 0.2525 0.12443 0.0
H43 H 0.87554 0.23445 0.14964 0.0
H44 H 0.90806 0.23155 0.18774 0.0
H45 H 0.93872 0.23973 0.20355 0.0
H46 H 0.94374 0.1826 0.22397 0.0
H47 H 0.91352 0.17436 0.20832 0.0
H48 H 0.87992 0.1492 0.21035 0.0
H49 H 0.86562 0.12155 0.2243 0.0
H50 H 0.81183 0.13531 0.19703 0.0
H51 H 0.82626 0.16307 0.18257 0.0
N52 N 0.85426 0.1865 0.17407 0.0
N53 N 0.88021 0.20774 0.1747 0.0
N54 N 0.88054 0.18128 0.19453 0.0
C55 C 0.8627 0.20245 0.16741 0.0
C56 C 0.88922 0.1971 0.1883 0.0
C57 C 0.86316 0.17584 0.18765 0.0
C58 C 0.85289 0.21379 0.15217 0.0
C59 C 0.83474 0.20845 0.14487 0.0
C60 C 0.82554 0.21891 0.13048 0.0
C61 C 0.83414 0.23508 0.12298 0.0
C62 C 0.85233 0.24037 0.13015 0.0
C63 C 0.86155 0.22992 0.14456 0.0
C64 C 0.90825 0.20231 0.19672 0.0
C65 C 0.9158 0.22071 0.19544 0.0
C66 C 0.93327 0.22542 0.20458 0.0
C67 C 0.94365 0.21175 0.21489 0.0
C68 C 0.93621 0.19336 0.21594 0.0
C69 C 0.91878 0.18871 0.20701 0.0
C70 C 0.85424 0.1585 0.19533 0.0
C71 C 0.86504 0.14641 0.20718 0.0
C72 C 0.83919 0.83648 0.10726 0.0
C73 C 0.82109 0.84072 0.09969 0.0
C74 C 0.81149 0.85603 0.10713 0.0
C75 C 0.81945 0.86646 0.12229 0.0
H76 H 0.80763 0.91006 0.15799 0.0
H77 H 0.78868 0.93371 0.17336 0.0
H78 H 0.83099 0.93799 0.21905 0.0
H79 H 0.84982 0.91445 0.20402 0.0
H80 H 0.88039 0.88069 0.20876 0.0
H81 H 0.90931 0.86934 0.22458 0.0
H82 H 0.92773 0.84843 0.17132 0.0
H83 H 0.89832 0.85888 0.15568 0.0
H84 H 0.86102 0.84304 0.12829 0.0
H85 H 0.84693 0.82483 0.10167 0.0
H86 H 0.7977 0.85992 0.10124 0.0
H87 H 0.81144 0.87797 0.12777 0.0
N88 N 0.83502 0.88625 0.1551 0.0
N89 N 0.85848 0.89018 0.17928 0.0
N90 N 0.86209 0.86756 0.15558 0.0
C91 C 0.8416 0.8953 0.17106 0.0
C92 C 0.86885 0.87642 0.17159 0.0
C93 C 0.84515 0.87235 0.14726 0.0
C94 C 0.83027 0.9102 0.17979 0.0
C95 C 0.81295 0.91609 0.17128 0.0
C96 C 0.80211 0.92972 0.18 0.0
C97 C 0.80835 0.93764 0.1974 0.0
C98 C 0.82575 0.93198 0.20571 0.0
C99 C 0.83658 0.91849 0.19703 0.0
C100 C 0.88701 0.87064 0.18096 0.0
C101 C 0.89069 0.87382 0.20039 0.0
C102 C 0.90739 0.86747 0.20945 0.0
C103 C 0.92102 0.85818 0.1992 0.0
C104 C 0.91749 0.8554 0.17967 0.0
C105 C 0.90064 0.86143 0.17069 0.0
C106 C 0.83731 0.86191 0.13037 0.0
C107 C 0.8472 0.84692 0.12251 0.0
C108 C 0.10704 0.83303 0.19286 0.0
C109 C 0.10495 0.81414 0.18701 0.0
C110 C 0.11912 0.80605 0.17658 0.0
C111 C 0.13528 0.81657 0.17239 0.0
H112 H 0.17345 0.83286 0.12724 0.0
H113 H 0.19323 0.82374 0.10172 0.0
H114 H 0.24265 0.84414 0.13397 0.0
H115 H 0.22265 0.85424 0.15913 0.0
H116 H 0.21269 0.88702 0.19181 0.0
H117 H 0.22217 0.91132 0.21497 0.0
H118 H 0.16609 0.91012 0.23619 0.0
H119 H 0.15669 0.88556 0.21349 0.0
H120 H 0.12474 0.85778 0.19419 0.0
H121 H 0.09648 0.83949 0.20122 0.0
H122 H 0.11789 0.79145 0.17208 0.0
H123 H 0.14617 0.80981 0.1647 0.0
N124 N 0.1673 0.8408 0.16254 0.0
N125 N 0.18961 0.86378 0.17313 0.0
N126 N 0.16124 0.85985 0.18854 0.0
C127 C 0.18419 0.8498 0.16071 0.0
C128 C 0.17813 0.86895 0.18707 0.0
C129 C 0.15576 0.84572 0.17643 0.0
C130 C 0.19645 0.84435 0.14522 0.0
C131 C 0.18853 0.83551 0.12887 0.0
C132 C 0.1999 0.8302 0.11424 0.0
C133 C 0.21957 0.83333 0.11563 0.0
C134 C 0.22753 0.84201 0.1321 0.0
C135 C 0.21607 0.84766 0.14663 0.0
C136 C 0.18394 0.88415 0.20079 0.0
C137 C 0.20236 0.89189 0.20142 0.0
C138 C 0.2078 0.90587 0.21468 0.0
C139 C 0.19497 0.91249 0.22763 0.0
C140 C 0.17648 0.905 0.22678 0.0
C141 C 0.17107 0.89097 0.21362 0.0
C142 C 0.13777 0.83524 0.17897 0.0
C143 C 0.12332 0.84343 0.18899 0.0
C144 C 0.1202 0.81021 0.83026 0.0
C145 C 0.11398 0.81918 0.81345 0.0
C146 C 0.12453 0.8346 0.80695 0.0
C147 C 0.14063 0.84125 0.81741 0.0
H148 H 0.18378 0.88423 0.81949 0.0
H149 H 0.20076 0.91349 0.81224 0.0
H150 H 0.22868 0.91266 0.86773 0.0
H151 H 0.21234 0.88334 0.87476 0.0
H152 H 0.21762 0.84444 0.89322 0.0
H153 H 0.23184 0.82685 0.91936 0.0
H154 H 0.18627 0.78584 0.91502 0.0
H155 H 0.17167 0.80359 0.8884 0.0
H156 H 0.14045 0.80947 0.85357 0.0
H157 H 0.11256 0.79806 0.83545 0.0
H158 H 0.12011 0.84173 0.794 0.0
H159 H 0.14828 0.85333 0.81213 0.0
N160 N 0.17205 0.85633 0.84146 0.0
N161 N 0.19361 0.85295 0.8673 0.0
N162 N 0.17025 0.82974 0.86131 0.0
C163 C 0.18713 0.8631 0.85217 0.0
C164 C 0.18541 0.83629 0.87202 0.0
C165 C 0.16346 0.83967 0.84597 0.0
C166 C 0.19667 0.88132 0.84769 0.0
C167 C 0.19347 0.89034 0.83016 0.0
C168 C 0.20313 0.90719 0.82605 0.0
C169 C 0.21602 0.91551 0.83946 0.0
C170 C 0.21902 0.90656 0.857 0.0
C171 C 0.20955 0.88972 0.86104 0.0
C172 C 0.19346 0.82546 0.8885 0.0
C173 C 0.21043 0.83174 0.89772 0.0
C174 C 0.21867 0.82162 0.91275 0.0
C175 C 0.21023 0.80493 0.91917 0.0
C176 C 0.19304 0.79872 0.91038 0.0
C177 C 0.18476 0.80884 0.89509 0.0
C178 C 0.14666 0.83246 0.83447 0.0
C179 C 0.13629 0.81672 0.84061 0.0
C180 C 0.13432 0.23174 0.85952 0.0
C181 C 0.12552 0.22778 0.8418 0.0
C182 C 0.13265 0.21326 0.83074 0.0
C183 C 0.14847 0.20305 0.83726 0.0
H184 H 0.18482 0.15682 0.82643 0.0
H185 H 0.19765 0.12917 0.81105 0.0
H186 H 0.23791 0.12253 0.85813 0.0
H187 H 0.22556 0.15016 0.87325 0.0
H188 H 0.23179 0.18312 0.90465 0.0
H189 H 0.24798 0.19774 0.93241 0.0
H190 H 0.20804 0.24314 0.93008 0.0
H191 H 0.19205 0.22893 0.90246 0.0
H192 H 0.15637 0.22527 0.87975 0.0
H193 H 0.129 0.24268 0.86845 0.0
H194 H 0.12623 0.21006 0.8169 0.0
H195 H 0.15384 0.19213 0.82835 0.0
N196 N 0.18115 0.18175 0.85334 0.0
N197 N 0.20663 0.18048 0.87591 0.0
N198 N 0.1845 0.20446 0.87733 0.0
C199 C 0.1971 0.17311 0.86032 0.0
C200 C 0.20039 0.19624 0.88444 0.0
C201 C 0.17475 0.19745 0.86193 0.0
C202 C 0.20421 0.15589 0.85107 0.0
C203 C 0.19636 0.14942 0.83354 0.0
C204 C 0.20362 0.13349 0.82475 0.0
C205 C 0.21881 0.12364 0.83335 0.0
C206 C 0.22636 0.12993 0.851 0.0
C207 C 0.21922 0.14581 0.85971 0.0
C208 C 0.21055 0.20476 0.90128 0.0
C209 C 0.22646 0.19621 0.91005 0.0
C210 C 0.23566 0.20451 0.92601 0.0
C211 C 0.22915 0.2215 0.93346 0.0
C212 C 0.21341 0.23009 0.92461 0.0
C213 C 0.2042 0.22183 0.90878 0.0
C214 C 0.15745 0.20728 0.85491 0.0
C215 C 0.15003 0.22165 0.86599 0.0
C216 C 0.8403 0.1418 0.81251 0.0
C217 C 0.82487 0.13364 0.82138 0.0
C218 C 0.81864 0.14203 0.83789 0.0
C219 C 0.82745 0.15844 0.8452 0.0
H220 H 0.83596 0.19274 0.89541 0.0
H221 H 0.82609 0.20775 0.92429 0.0
H222 H 0.84418 0.26198 0.90325 0.0
H223 H 0.85512 0.24679 0.875 0.0
H224 H 0.89514 0.24069 0.85136 0.0
H225 H 0.92402 0.25267 0.83825 0.0
H226 H 0.92333 0.20614 0.79892 0.0
H227 H 0.89413 0.19406 0.81187 0.0
H228 H 0.86094 0.16409 0.81253 0.0
H229 H 0.84564 0.13542 0.79997 0.0
H230 H 0.80676 0.13603 0.845 0.0
H231 H 0.82215 0.16459 0.85786 0.0
N232 N 0.84541 0.19301 0.85927 0.0
N233 N 0.86844 0.21692 0.85713 0.0
N234 N 0.86696 0.19215 0.83515 0.0
C235 C 0.85353 0.20932 0.86598 0.0
C236 C 0.87533 0.20838 0.84175 0.0
C237 C 0.85194 0.1844 0.84375 0.0
C238 C 0.84653 0.21855 0.88303 0.0
C239 C 0.83786 0.20787 0.897 0.0
C240 C 0.83215 0.21649 0.91353 0.0
C241 C 0.83468 0.23605 0.91635 0.0
C242 C 0.84267 0.2468 0.90197 0.0
C243 C 0.84879 0.23812 0.88566 0.0
C244 C 0.89228 0.2163 0.83281 0.0
C245 C 0.90097 0.233 0.83983 0.0
C246 C 0.91758 0.23988 0.83235 0.0
C247 C 0.92597 0.23029 0.81762 0.0
C248 C 0.91709 0.2139 0.81015 0.0
C249 C 0.9004 0.20696 0.81767 0.0
C250 C 0.84277 0.16678 0.83621 0.0
C251 C 0.84914 0.15818 0.81982 0.0
C252 C 0.80947 0.85429 0.87715 0.0
C253 C 0.8192 0.84898 0.89404 0.0
C254 C 0.83886 0.84642 0.89388 0.0
C255 C 0.84856 0.84936 0.87735 0.0
H256 H 0.88946 0.82446 0.84338 0.0
H257 H 0.91548 0.80458 0.83519 0.0
H258 H 0.92359 0.83819 0.78537 0.0
H259 H 0.89712 0.85799 0.79325 0.0
H260 H 0.87167 0.90151 0.79216 0.0
H261 H 0.8601 0.93098 0.77748 0.0
H262 H 0.80512 0.92011 0.79902 0.0
H263 H 0.81635 0.89108 0.81348 0.0
H264 H 0.81133 0.86201 0.84807 0.0
H265 H 0.79426 0.85563 0.87646 0.0
H266 H 0.84684 0.84238 0.90662 0.0
H267 H 0.86371 0.8475 0.87773 0.0
N268 N 0.86489 0.85014 0.83941 0.0
N269 N 0.86802 0.86855 0.81203 0.0
N270 N 0.84284 0.87346 0.83173 0.0
C271 C 0.87435 0.85431 0.8236 0.0
C272 C 0.85217 0.87815 0.81608 0.0
C273 C 0.84912 0.85964 0.84351 0.0
C274 C 0.891 0.84286 0.81893 0.0
C275 C 0.89672 0.82773 0.83065 0.0
C276 C 0.91174 0.8163 0.82601 0.0
C277 C 0.92149 0.81963 0.80952 0.0
C278 C 0.91609 0.83497 0.79796 0.0
C279 C 0.901 0.84643 0.80258 0.0
C280 C 0.84503 0.8941 0.80428 0.0
C281 C 0.85701 0.90523 0.79335 0.0
C282 C 0.85042 0.92205 0.78495 0.0
C283 C 0.83179 0.92784 0.78734 0.0
C284 C 0.8196 0.91605 0.79715 0.0
C285 C 0.82609 0.89943 0.80548 0.0
C286 C 0.83885 0.85529 0.86071 0.0
C287 C 0.81922 0.8577 0.86078 0.0
C288 C 0.13328 0.69543 0.69447 0.0
C289 C 0.13258 0.69509 0.71432 0.0
C290 C 0.14893 0.68976 0.72497 0.0
C291 C 0.16513 0.68414 0.71606 0.0
H292 H 0.19801 0.63162 0.7118 0.0
H293 H 0.21565 0.60484 0.72435 0.0
H294 H 0.26417 0.62283 0.69401 0.0
H295 H 0.24622 0.64926 0.68074 0.0
H296 H 0.23981 0.68039 0.64833 0.0
H297 H 0.25076 0.69688 0.62063 0.0
H298 H 0.19486 0.71898 0.60965 0.0
H299 H 0.18405 0.70311 0.63777 0.0
H300 H 0.14974 0.69058 0.67027 0.0
H301 H 0.12101 0.69941 0.68575 0.0
H302 H 0.14936 0.69012 0.74025 0.0
H303 H 0.17736 0.67994 0.72472 0.0
N304 N 0.19357 0.66415 0.69498 0.0
N305 N 0.21507 0.66711 0.67098 0.0
N306 N 0.18841 0.68642 0.6708 0.0
C307 C 0.20958 0.65846 0.68697 0.0
C308 C 0.2046 0.68107 0.66277 0.0
C309 C 0.18293 0.67813 0.68703 0.0
C310 C 0.2207 0.64267 0.69531 0.0
C311 C 0.21249 0.62999 0.70791 0.0
C312 C 0.22267 0.61469 0.71523 0.0
C313 C 0.24147 0.61187 0.71048 0.0
C314 C 0.24971 0.62458 0.69793 0.0
C315 C 0.23943 0.63976 0.69038 0.0
C316 C 0.21103 0.69047 0.64538 0.0
C317 C 0.22978 0.68867 0.63996 0.0
C318 C 0.23606 0.69799 0.62394 0.0
C319 C 0.22367 0.70914 0.61278 0.0
C320 C 0.20483 0.71064 0.61802 0.0
C321 C 0.19862 0.70152 0.63415 0.0
C322 C 0.16571 0.68434 0.69627 0.0
C323 C 0.14971 0.69031 0.68556 0.0
C324 C 0.83903 0.63426 0.69303 0.0
C325 C 0.82003 0.63073 0.68714 0.0
C326 C 0.81135 0.64296 0.67391 0.0
C327 C 0.82133 0.65824 0.66667 0.0
H328 H 0.82052 0.68955 0.61958 0.0
H329 H 0.8041 0.7057 0.59338 0.0
H330 H 0.84558 0.75087 0.59728 0.0
H331 H 0.86206 0.73491 0.62367 0.0
H332 H 0.89845 0.72956 0.65247 0.0
H333 H 0.92864 0.74114 0.66642 0.0
H334 H 0.92603 0.69879 0.71 0.0
H335 H 0.89615 0.68695 0.69598 0.0
H336 H 0.86365 0.652 0.69059 0.0
H337 H 0.84627 0.6249 0.70294 0.0
H338 H 0.7967 0.64082 0.66923 0.0
H339 H 0.81401 0.6673 0.65651 0.0
N340 N 0.84304 0.68674 0.64868 0.0
N341 N 0.86841 0.70828 0.64873 0.0
N342 N 0.86746 0.68467 0.67204 0.0
C343 C 0.85172 0.70174 0.64076 0.0
C344 C 0.87644 0.69983 0.66436 0.0
C345 C 0.85067 0.6781 0.66425 0.0
C346 C 0.84256 0.71103 0.62396 0.0
C347 C 0.82625 0.70291 0.61488 0.0
C348 C 0.81684 0.71207 0.59978 0.0
C349 C 0.82341 0.72962 0.59349 0.0
C350 C 0.84002 0.73748 0.6021 0.0
C351 C 0.84951 0.72828 0.61715 0.0
C352 C 0.89475 0.70721 0.67301 0.0
C353 C 0.90426 0.7227 0.66505 0.0
C354 C 0.92154 0.72948 0.67313 0.0
C355 C 0.92976 0.72096 0.68937 0.0
C356 C 0.92019 0.70559 0.69738 0.0
C357 C 0.90297 0.69882 0.68935 0.0
C358 C 0.84031 0.66187 0.6725 0.0
C359 C 0.84903 0.64974 0.68588 0.0
C360 C 0.84923 0.32986 0.62107 0.0
C361 C 0.83348 0.335 0.60955 0.0
C362 C 0.82236 0.35002 0.6155 0.0
C363 C 0.82707 0.35978 0.63244 0.0
H364 H 0.82021 0.41383 0.66993 0.0
H365 H 0.80607 0.44068 0.68593 0.0
H366 H 0.82567 0.41834 0.73993 0.0
H367 H 0.8392 0.39172 0.72426 0.0
H368 H 0.87447 0.36617 0.72752 0.0
H369 H 0.90278 0.3574 0.746 0.0
H370 H 0.93083 0.34563 0.69456 0.0
H371 H 0.90196 0.3534 0.67604 0.0
H372 H 0.86624 0.33496 0.64619 0.0
H373 H 0.8578 0.31803 0.61731 0.0
H374 H 0.81007 0.35431 0.60698 0.0
H375 H 0.81822 0.37125 0.63658 0.0
N376 N 0.83724 0.37811 0.6695 0.0
N377 N 0.8578 0.37975 0.69648 0.0
N378 N 0.86412 0.3589 0.67218 0.0
C379 C 0.84208 0.38579 0.68682 0.0
C380 C 0.86893 0.3665 0.68932 0.0
C381 C 0.84823 0.36438 0.66218 0.0
C382 C 0.83094 0.40069 0.69577 0.0
C383 C 0.82115 0.41455 0.68521 0.0
C384 C 0.81332 0.43003 0.69437 0.0
C385 C 0.81503 0.43181 0.71422 0.0
C386 C 0.82409 0.41747 0.72467 0.0
C387 C 0.83191 0.4022 0.71561 0.0
C388 C 0.88605 0.36055 0.70033 0.0
C389 C 0.88669 0.36171 0.72015 0.0
C390 C 0.90301 0.3569 0.73074 0.0
C391 C 0.91927 0.35132 0.72176 0.0
C392 C 0.91854 0.34991 0.70191 0.0
C393 C 0.90204 0.35435 0.6913 0.0
C394 C 0.843 0.35469 0.64385 0.0
C395 C 0.85397 0.33958 0.63783 0.0
C396 C 0.12749 0.3384 0.73807 0.0
C397 C 0.11774 0.32612 0.72531 0.0
C398 C 0.12324 0.32533 0.70657 0.0
C399 C 0.13843 0.33643 0.70078 0.0
H400 H 0.18219 0.33567 0.66356 0.0
H401 H 0.20094 0.3256 0.6375 0.0
H402 H 0.23417 0.37702 0.6423 0.0
H403 H 0.21543 0.38732 0.66834 0.0
H404 H 0.20223 0.41891 0.70064 0.0
H405 H 0.21866 0.44304 0.72003 0.0
H406 H 0.2031 0.41386 0.77052 0.0
H407 H 0.18619 0.38974 0.75108 0.0
H408 H 0.14965 0.35898 0.74249 0.0
H409 H 0.12328 0.33956 0.75252 0.0
H410 H 0.11583 0.31608 0.69644 0.0
H411 H 0.14236 0.33548 0.68623 0.0
N412 N 0.17256 0.35681 0.69104 0.0
N413 N 0.19341 0.38248 0.69602 0.0
N414 N 0.17076 0.37558 0.71821 0.0
C415 C 0.18725 0.36755 0.68528 0.0
C416 C 0.18527 0.38661 0.71247 0.0
C417 C 0.16416 0.36077 0.70741 0.0
C418 C 0.19739 0.36224 0.66824 0.0
C419 C 0.19336 0.34497 0.65901 0.0
C420 C 0.20416 0.33911 0.64415 0.0
C421 C 0.21917 0.35041 0.63813 0.0
C422 C 0.2227 0.36803 0.64673 0.0
C423 C 0.21198 0.37387 0.66168 0.0
C424 C 0.19301 0.40238 0.72434 0.0
C425 C 0.20196 0.41782 0.71588 0.0
C426 C 0.21122 0.43174 0.72696 0.0
C427 C 0.21197 0.43038 0.74675 0.0
C428 C 0.20253 0.41529 0.75528 0.0
C429 C 0.19289 0.40153 0.74416 0.0
C430 C 0.14819 0.3488 0.71355 0.0
C431 C 0.14249 0.34965 0.73226 0.0
C432 C 0.12622 0.30088 0.36211 0.0
C433 C 0.12015 0.30559 0.34359 0.0
C434 C 0.13051 0.31918 0.33378 0.0
C435 C 0.14647 0.3281 0.34244 0.0
H436 H 0.18456 0.37506 0.33826 0.0
H437 H 0.19975 0.40346 0.32599 0.0
H438 H 0.23823 0.40522 0.37502 0.0
H439 H 0.2231 0.37714 0.38743 0.0
H440 H 0.22605 0.34303 0.41435 0.0
H441 H 0.24066 0.3286 0.4424 0.0
H442 H 0.19419 0.28879 0.44451 0.0
H443 H 0.17926 0.30328 0.41627 0.0
H444 H 0.14645 0.30557 0.385 0.0
H445 H 0.11863 0.29029 0.36991 0.0
H446 H 0.12609 0.32309 0.31948 0.0
H447 H 0.15408 0.33855 0.33452 0.0
N448 N 0.17785 0.34818 0.36287 0.0
N449 N 0.20087 0.34852 0.38782 0.0
N450 N 0.17732 0.325 0.38658 0.0
C451 C 0.19348 0.35635 0.37163 0.0
C452 C 0.19293 0.33287 0.39539 0.0
C453 C 0.16966 0.33248 0.37033 0.0
C454 C 0.20255 0.37366 0.36386 0.0
C455 C 0.19626 0.38147 0.34644 0.0
C456 C 0.20505 0.39769 0.33933 0.0
C457 C 0.22031 0.40652 0.34947 0.0
C458 C 0.22648 0.39882 0.3669 0.0
C459 C 0.21779 0.38261 0.37397 0.0
C460 C 0.2015 0.32428 0.41287 0.0
C461 C 0.21884 0.33122 0.42069 0.0
C462 C 0.22731 0.32288 0.43673 0.0
C463 C 0.21871 0.30737 0.4454 0.0
C464 C 0.20116 0.30065 0.43799 0.0
C465 C 0.19268 0.30895 0.4218 0.0
C466 C 0.15257 0.3234 0.36102 0.0
C467 C 0.14224 0.30961 0.37069 0.0
C468 C 0.10809 0.70372 0.34005 0.0
C469 C 0.10348 0.70289 0.32062 0.0
C470 C 0.11339 0.69049 0.30929 0.0
C471 C 0.12832 0.6798 0.31722 0.0
H472 H 0.16398 0.63066 0.31295 0.0
H473 H 0.18008 0.60471 0.29787 0.0
H474 H 0.22561 0.60907 0.34031 0.0
H475 H 0.20984 0.63498 0.35529 0.0
H476 H 0.2106 0.67053 0.38694 0.0
H477 H 0.22374 0.6896 0.41368 0.0
H478 H 0.17028 0.71724 0.41745 0.0
H479 H 0.15713 0.69849 0.39133 0.0
H480 H 0.12619 0.69453 0.36294 0.0
H481 H 0.1005 0.71295 0.34913 0.0
H482 H 0.11014 0.68967 0.29422 0.0
H483 H 0.13627 0.67096 0.30808 0.0
N484 N 0.15971 0.65822 0.33654 0.0
N485 N 0.1837 0.65904 0.36085 0.0
N486 N 0.15863 0.68006 0.36121 0.0
C487 C 0.17608 0.65116 0.34449 0.0
C488 C 0.17491 0.67353 0.3693 0.0
C489 C 0.15089 0.67269 0.34497 0.0
C490 C 0.18564 0.63514 0.33532 0.0
C491 C 0.17746 0.62615 0.31907 0.0
C492 C 0.18662 0.61121 0.31043 0.0
C493 C 0.20425 0.60504 0.3177 0.0
C494 C 0.21224 0.61378 0.3341 0.0
C495 C 0.2031 0.62861 0.34276 0.0
C496 C 0.18288 0.68311 0.3867 0.0
C497 C 0.20161 0.6805 0.39364 0.0
C498 C 0.20914 0.6914 0.40891 0.0
C499 C 0.19808 0.70511 0.41733 0.0
C500 C 0.17921 0.70704 0.41096 0.0
C501 C 0.1717 0.6962 0.39594 0.0
C502 C 0.13352 0.68142 0.33657 0.0
C503 C 0.12284 0.69311 0.34792 0.0
C504 C 0.84117 0.63282 0.30775 0.0
C505 C 0.82384 0.6269 0.31469 0.0
C506 C 0.81422 0.63908 0.32642 0.0
C507 C 0.82208 0.65679 0.33141 0.0
H508 H 0.83632 0.69529 0.38128 0.0
H509 H 0.82748 0.71332 0.40877 0.0
H510 H 0.83918 0.76525 0.37925 0.0
H511 H 0.84924 0.74715 0.35235 0.0
H512 H 0.891 0.73805 0.32937 0.0
H513 H 0.9169 0.75019 0.31147 0.0
H514 H 0.90994 0.70345 0.27253 0.0
H515 H 0.88416 0.69088 0.29075 0.0
H516 H 0.86228 0.65452 0.30685 0.0
H517 H 0.84872 0.62378 0.29845 0.0
H518 H 0.80078 0.63482 0.33184 0.0
H519 H 0.81442 0.6659 0.34053 0.0
N520 N 0.84194 0.69163 0.3441 0.0
N521 N 0.86361 0.71591 0.33763 0.0
N522 N 0.86188 0.68875 0.31876 0.0
C523 C 0.84974 0.70887 0.34834 0.0
C524 C 0.86983 0.70591 0.32284 0.0
C525 C 0.84789 0.68153 0.32923 0.0
C526 C 0.84357 0.7198 0.36471 0.0
C527 C 0.83707 0.71056 0.38073 0.0
C528 C 0.83197 0.72092 0.39647 0.0
C529 C 0.83289 0.74079 0.39643 0.0
C530 C 0.83896 0.75 0.38015 0.0
C531 C 0.84451 0.73962 0.36461 0.0
C532 C 0.88541 0.71345 0.31157 0.0
C533 C 0.8949 0.73029 0.31701 0.0
C534 C 0.90974 0.73731 0.30669 0.0
C535 C 0.9155 0.72777 0.29059 0.0
C536 C 0.90602 0.71097 0.28503 0.0
C537 C 0.89116 0.70386 0.29543 0.0
C538 C 0.83949 0.66271 0.32443 0.0
C539 C 0.84887 0.6505 0.31249 0.0
C540 C 0.8228 0.34779 0.39998 0.0
C541 C 0.83024 0.33293 0.41096 0.0
C542 C 0.84702 0.32452 0.40556 0.0
C543 C 0.85652 0.33122 0.38996 0.0
H544 H 0.89722 0.31745 0.34204 0.0
H545 H 0.92479 0.30535 0.32628 0.0
H546 H 0.94379 0.36249 0.31637 0.0
H547 H 0.91632 0.37444 0.33147 0.0
H548 H 0.88248 0.39926 0.31478 0.0
H549 H 0.87186 0.42704 0.29765 0.0
H550 H 0.8192 0.42481 0.3258 0.0
H551 H 0.82993 0.39691 0.34343 0.0
H552 H 0.8263 0.36628 0.37651 0.0
H553 H 0.80986 0.35449 0.40373 0.0
H554 H 0.85288 0.31272 0.41347 0.0
H555 H 0.86955 0.32455 0.38645 0.0
N556 N 0.87652 0.34659 0.35805 0.0
N557 N 0.87998 0.37057 0.33564 0.0
N558 N 0.8538 0.37045 0.35447 0.0
C559 C 0.88654 0.35471 0.34415 0.0
C560 C 0.86368 0.37851 0.34054 0.0
C561 C 0.86011 0.35454 0.36339 0.0
C562 C 0.90445 0.34688 0.33776 0.0
C563 C 0.90746 0.32735 0.33672 0.0
C564 C 0.92318 0.32045 0.32763 0.0
C565 C 0.93615 0.33299 0.31955 0.0
C566 C 0.93371 0.35246 0.32178 0.0
C567 C 0.91803 0.3593 0.33061 0.0
C568 C 0.85705 0.39576 0.33054 0.0
C569 C 0.86862 0.40461 0.31745 0.0
C570 C 0.86254 0.42054 0.30753 0.0
C571 C 0.84474 0.4281 0.31041 0.0
C572 C 0.83312 0.41941 0.32352 0.0
C573 C 0.83924 0.4034 0.33354 0.0
C574 C 0.84945 0.34652 0.37929 0.0
C575 C 0.83232 0.35455 0.38439 0.0
C576 C 0.64559 0.20123 0.6788 0.0
C577 C 0.64048 0.18766 0.69219 0.0
C578 C 0.64987 0.17037 0.69283 0.0
C579 C 0.66431 0.16683 0.68064 0.0
H580 H 0.70084 0.1235 0.65649 0.0
H581 H 0.71857 0.09781 0.67143 0.0
H582 H 0.76939 0.13211 0.67198 0.0
H583 H 0.75161 0.15784 0.65646 0.0
H584 H 0.74167 0.19181 0.61693 0.0
H585 H 0.75015 0.21397 0.59225 0.0
H586 H 0.69353 0.23558 0.58977 0.0
H587 H 0.68493 0.21349 0.61464 0.0
H588 H 0.66396 0.2086 0.6567 0.0
H589 H 0.63877 0.21481 0.67817 0.0
H590 H 0.64613 0.1596 0.7029 0.0
H591 H 0.67136 0.15339 0.68178 0.0
N592 N 0.69722 0.16192 0.65941 0.0
N593 N 0.71841 0.17188 0.63688 0.0
N594 N 0.69143 0.18971 0.64239 0.0
C595 C 0.71319 0.15912 0.6501 0.0
C596 C 0.70737 0.18711 0.63273 0.0
C597 C 0.68634 0.1772 0.65586 0.0
C598 C 0.72487 0.14263 0.65531 0.0
C599 C 0.71592 0.12534 0.65923 0.0
C600 C 0.72609 0.11059 0.66768 0.0
C601 C 0.74537 0.11294 0.67275 0.0
C602 C 0.75456 0.12991 0.66804 0.0
C603 C 0.74443 0.14457 0.65913 0.0
C604 C 0.71261 0.2008 0.61782 0.0
C605 C 0.73099 0.20126 0.61119 0.0
C606 C 0.73589 0.21403 0.59712 0.0
C607 C 0.72249 0.2265 0.58911 0.0
C608 C 0.7041 0.22608 0.59564 0.0
C609 C 0.69924 0.21346 0.60994 0.0
C610 C 0.66981 0.18053 0.66751 0.0
C611 C 0.66007 0.19769 0.66655 0.0
C612 C 0.36326 0.13459 0.74633 0.0
C613 C 0.34486 0.12735 0.74292 0.0
C614 C 0.33368 0.1348 0.72786 0.0
C615 C 0.34061 0.14939 0.71668 0.0
H616 H 0.32681 0.18325 0.66971 0.0
H617 H 0.3068 0.19868 0.64525 0.0
H618 H 0.3491 0.24257 0.64041 0.0
H619 H 0.36902 0.22745 0.66463 0.0
H620 H 0.4072 0.22718 0.69005 0.0
H621 H 0.43995 0.23819 0.696 0.0
H622 H 0.45223 0.18721 0.72716 0.0
H623 H 0.41975 0.17621 0.72147 0.0
H624 H 0.38443 0.15445 0.73835 0.0
H625 H 0.37221 0.12915 0.75784 0.0
H626 H 0.3196 0.12921 0.72458 0.0
H627 H 0.33155 0.15479 0.70525 0.0
N628 N 0.35514 0.1806 0.69471 0.0
N629 N 0.37972 0.20175 0.68793 0.0
N630 N 0.38425 0.1792 0.71183 0.0
C631 C 0.36175 0.19521 0.68432 0.0
C632 C 0.39108 0.19379 0.7016 0.0
C633 C 0.3663 0.17254 0.70856 0.0
C634 C 0.34953 0.20415 0.6693 0.0
C635 C 0.33184 0.19621 0.66346 0.0
C636 C 0.32039 0.20496 0.64942 0.0
C637 C 0.32631 0.22193 0.64118 0.0
C638 C 0.34405 0.22966 0.64679 0.0
C639 C 0.35551 0.22091 0.66063 0.0
C640 C 0.41082 0.20075 0.70522 0.0
C641 C 0.41689 0.2183 0.69814 0.0
C642 C 0.43559 0.22465 0.70157 0.0
C643 C 0.44861 0.21342 0.71181 0.0
C644 C 0.44252 0.196 0.71896 0.0
C645 C 0.42386 0.18977 0.71578 0.0
C646 C 0.35897 0.15681 0.72021 0.0
C647 C 0.37022 0.14915 0.73515 0.0
C648 C 0.32339 0.83591 0.63225 0.0
C649 C 0.30953 0.8463 0.62212 0.0
C650 C 0.30475 0.86414 0.62885 0.0
C651 C 0.31367 0.87152 0.6453 0.0
H652 H 0.30624 0.91219 0.68449 0.0
H653 H 0.29274 0.94002 0.69877 0.0
H654 H 0.33637 0.93895 0.74335 0.0
H655 H 0.35009 0.91146 0.72907 0.0
H656 H 0.38503 0.88517 0.72468 0.0
H657 H 0.41396 0.87245 0.73903 0.0
H658 H 0.40751 0.82305 0.70351 0.0
H659 H 0.3787 0.83605 0.68861 0.0
H660 H 0.34318 0.83508 0.65612 0.0
H661 H 0.32732 0.8221 0.62734 0.0
H662 H 0.29393 0.87233 0.62147 0.0
H663 H 0.30956 0.88535 0.65 0.0
N664 N 0.32958 0.88482 0.68101 0.0
N665 N 0.35384 0.88504 0.7046 0.0
N666 N 0.35307 0.86179 0.68093 0.0
C667 C 0.3378 0.89271 0.69686 0.0
C668 C 0.36162 0.86961 0.69678 0.0
C669 C 0.33704 0.8694 0.67293 0.0
C670 C 0.32934 0.90952 0.70558 0.0
C671 C 0.31297 0.91785 0.69736 0.0
C672 C 0.30512 0.93374 0.70558 0.0
C673 C 0.31345 0.94165 0.72219 0.0
C674 C 0.32972 0.93329 0.73043 0.0
C675 C 0.33756 0.91745 0.72226 0.0
C676 C 0.37935 0.86162 0.7055 0.0
C677 C 0.38966 0.87155 0.7199 0.0
C678 C 0.40624 0.86418 0.72828 0.0
C679 C 0.41291 0.84655 0.72271 0.0
C680 C 0.40277 0.83668 0.70815 0.0
C681 C 0.38621 0.84412 0.69964 0.0
C682 C 0.32771 0.86129 0.65542 0.0
C683 C 0.3325 0.84339 0.64867 0.0
C684 C 0.61166 0.83644 0.7031 0.0
C685 C 0.6053 0.81925 0.69503 0.0
C686 C 0.6154 0.81146 0.68038 0.0
C687 C 0.63142 0.82088 0.67382 0.0
H688 H 0.67136 0.82242 0.62952 0.0
H689 H 0.68712 0.81517 0.6003 0.0
H690 H 0.7232 0.86429 0.60881 0.0
H691 H 0.7077 0.87167 0.63756 0.0
H692 H 0.71234 0.88886 0.67871 0.0
H693 H 0.72448 0.91746 0.69416 0.0
H694 H 0.67071 0.9255 0.71897 0.0
H695 H 0.65865 0.89627 0.70399 0.0
H696 H 0.63192 0.85896 0.70337 0.0
H697 H 0.6043 0.84271 0.71455 0.0
H698 H 0.61075 0.79827 0.67383 0.0
H699 H 0.63886 0.81459 0.66245 0.0
N700 N 0.66333 0.84296 0.65945 0.0
N701 N 0.68535 0.86782 0.66376 0.0
N702 N 0.66154 0.86383 0.68515 0.0
C703 C 0.67872 0.85272 0.65356 0.0
C704 C 0.67695 0.8735 0.67951 0.0
C705 C 0.65468 0.84846 0.67532 0.0
C706 C 0.68813 0.84768 0.63595 0.0
C707 C 0.68261 0.83169 0.62513 0.0
C708 C 0.69163 0.82751 0.60843 0.0
C709 C 0.70616 0.83936 0.60216 0.0
C710 C 0.71177 0.85516 0.61306 0.0
C711 C 0.7029 0.85926 0.62968 0.0
C712 C 0.68443 0.89037 0.68993 0.0
C713 C 0.70305 0.89668 0.68746 0.0
C714 C 0.70999 0.91318 0.6962 0.0
C715 C 0.6984 0.92405 0.70736 0.0
C716 C 0.67996 0.91747 0.71037 0.0
C717 C 0.67305 0.90075 0.70178 0.0
C718 C 0.63773 0.83816 0.68193 0.0
C719 C 0.62762 0.84573 0.6967 0.0
C720 C 0.60642 0.82455 0.3227 0.0
C721 C 0.60143 0.83133 0.30455 0.0
C722 C 0.6138 0.84389 0.29582 0.0
C723 C 0.63083 0.84962 0.30514 0.0
H724 H 0.67653 0.88945 0.30364 0.0
H725 H 0.6938 0.918 0.29485 0.0
H726 H 0.72286 0.9189 0.34982 0.0
H727 H 0.70633 0.89005 0.35829 0.0
H728 H 0.71382 0.84418 0.37234 0.0
H729 H 0.7268 0.82682 0.39949 0.0
H730 H 0.67266 0.79974 0.40633 0.0
H731 H 0.65948 0.81708 0.37889 0.0
H732 H 0.62689 0.82445 0.34586 0.0
H733 H 0.59715 0.81479 0.3297 0.0
H734 H 0.61021 0.8494 0.28187 0.0
H735 H 0.64006 0.85934 0.29806 0.0
N736 N 0.6636 0.86423 0.32771 0.0
N737 N 0.68687 0.85927 0.35178 0.0
N738 N 0.66111 0.83826 0.34813 0.0
C739 C 0.67998 0.86978 0.33705 0.0
C740 C 0.67761 0.84346 0.35738 0.0
C741 C 0.65403 0.84851 0.33322 0.0
C742 C 0.69016 0.88731 0.3316 0.0
C743 C 0.68668 0.89569 0.31381 0.0
C744 C 0.69654 0.9121 0.30879 0.0
C745 C 0.70997 0.9206 0.32151 0.0
C746 C 0.71311 0.91243 0.33944 0.0
C747 C 0.70348 0.89591 0.34435 0.0
C748 C 0.68555 0.83215 0.37347 0.0
C749 C 0.70463 0.83448 0.37951 0.0
C750 C 0.71214 0.82442 0.39498 0.0
C751 C 0.70074 0.81193 0.40498 0.0
C752 C 0.68173 0.80932 0.39887 0.0
C753 C 0.67423 0.81923 0.38316 0.0
C754 C 0.63593 0.84267 0.32327 0.0
C755 C 0.62351 0.83003 0.3319 0.0
C756 C 0.61493 0.22653 0.31388 0.0
C757 C 0.60729 0.22018 0.29626 0.0
C758 C 0.61634 0.20552 0.28712 0.0
C759 C 0.63273 0.19753 0.29524 0.0
H760 H 0.66844 0.15369 0.287 0.0
H761 H 0.68219 0.12638 0.27181 0.0
H762 H 0.72709 0.12592 0.31514 0.0
H763 H 0.71378 0.15314 0.33007 0.0
H764 H 0.72245 0.19872 0.34813 0.0
H765 H 0.74111 0.20935 0.37589 0.0
H766 H 0.68992 0.22008 0.40457 0.0
H767 H 0.67114 0.2105 0.37602 0.0
H768 H 0.63704 0.22396 0.33549 0.0
H769 H 0.60824 0.23782 0.32127 0.0
H770 H 0.61063 0.20009 0.2737 0.0
H771 H 0.63926 0.1863 0.28762 0.0
N772 N 0.66572 0.18029 0.31238 0.0
N773 N 0.69137 0.18042 0.33438 0.0
N774 N 0.66772 0.20309 0.33662 0.0
C775 C 0.68213 0.17256 0.31904 0.0
C776 C 0.68436 0.19557 0.34329 0.0
C777 C 0.65838 0.19555 0.32096 0.0
C778 C 0.69002 0.15576 0.30975 0.0
C779 C 0.68124 0.14775 0.2933 0.0
C780 C 0.68903 0.13203 0.28464 0.0
C781 C 0.70573 0.12402 0.29226 0.0
C782 C 0.71433 0.13191 0.30878 0.0
C783 C 0.70662 0.14754 0.31738 0.0
C784 C 0.6953 0.20362 0.35992 0.0
C785 C 0.71515 0.20345 0.36032 0.0
C786 C 0.72587 0.20931 0.3764 0.0
C787 C 0.71711 0.21494 0.39285 0.0
C788 C 0.6972 0.21573 0.39223 0.0
C789 C 0.68641 0.21026 0.37589 0.0
C790 C 0.64063 0.20401 0.31275 0.0
C791 C 0.63146 0.21862 0.32199 0.0
C792 C 0.32808 0.12209 0.3479 0.0
C793 C 0.31655 0.11328 0.36103 0.0
C794 C 0.3158 0.12124 0.37915 0.0
C795 C 0.32584 0.13787 0.38384 0.0
H796 H 0.32562 0.18168 0.4227 0.0
H797 H 0.31883 0.19908 0.45138 0.0
H798 H 0.36072 0.24126 0.43824 0.0
H799 H 0.36775 0.22399 0.40987 0.0
H800 H 0.37042 0.22721 0.35989 0.0
H801 H 0.39621 0.24388 0.34512 0.0
H802 H 0.42331 0.19086 0.33545 0.0
H803 H 0.39713 0.17398 0.35008 0.0
H804 H 0.34671 0.14527 0.34205 0.0
H805 H 0.32898 0.11632 0.33382 0.0
H806 H 0.30751 0.11455 0.38978 0.0
H807 H 0.32472 0.1436 0.39791 0.0
N808 N 0.34298 0.17436 0.39173 0.0
N809 N 0.36366 0.19897 0.38434 0.0
N810 N 0.3597 0.17306 0.36381 0.0
C811 C 0.35134 0.19125 0.39626 0.0
C812 C 0.36797 0.19009 0.36822 0.0
C813 C 0.34699 0.16516 0.37552 0.0
C814 C 0.34723 0.20138 0.41391 0.0
C815 C 0.33348 0.19459 0.42597 0.0
C816 C 0.32956 0.20455 0.44237 0.0
C817 C 0.33941 0.2214 0.44711 0.0
C818 C 0.35319 0.22812 0.43515 0.0
C819 C 0.35707 0.21825 0.41877 0.0
C820 C 0.38181 0.19931 0.35613 0.0
C821 C 0.38168 0.21905 0.35424 0.0
C822 C 0.39641 0.22861 0.34579 0.0
C823 C 0.41181 0.21867 0.33936 0.0
C824 C 0.41163 0.19883 0.34047 0.0
C825 C 0.39662 0.18918 0.34864 0.0
C826 C 0.33709 0.14696 0.37061 0.0
C827 C 0.33823 0.13872 0.35263 0.0
C828 C 0.31964 0.82255 0.42505 0.0
C829 C 0.32624 0.80456 0.43026 0.0
C830 C 0.3397 0.79605 0.41927 0.0
C831 C 0.3465 0.8053 0.40351 0.0
H832 H 0.37339 0.79506 0.3531 0.0
H833 H 0.39972 0.77895 0.33965 0.0
H834 H 0.42443 0.83279 0.32506 0.0
H835 H 0.39742 0.84891 0.33769 0.0
H836 H 0.35293 0.87602 0.32564 0.0
H837 H 0.33787 0.90462 0.31339 0.0
H838 H 0.31002 0.91108 0.36582 0.0
H839 H 0.32454 0.88233 0.37787 0.0
H840 H 0.32099 0.84563 0.40555 0.0
H841 H 0.30898 0.82931 0.43305 0.0
H842 H 0.34507 0.78223 0.42294 0.0
H843 H 0.3569 0.7982 0.39546 0.0
N844 N 0.36098 0.8245 0.37164 0.0
N845 N 0.36161 0.84983 0.35039 0.0
N846 N 0.34072 0.8499 0.37524 0.0
C847 C 0.36823 0.8328 0.35631 0.0
C848 C 0.34773 0.85845 0.35972 0.0
C849 C 0.34733 0.83289 0.38129 0.0
C850 C 0.38345 0.82325 0.3466 0.0
C851 C 0.38439 0.80346 0.34691 0.0
C852 C 0.39959 0.79423 0.33938 0.0
C853 C 0.41449 0.80459 0.33181 0.0
C854 C 0.41321 0.82439 0.33086 0.0
C855 C 0.39776 0.83363 0.33808 0.0
C856 C 0.33985 0.87669 0.35273 0.0
C857 C 0.34374 0.88363 0.33465 0.0
C858 C 0.33521 0.90013 0.32764 0.0
C859 C 0.32273 0.91017 0.3386 0.0
C860 C 0.31939 0.90357 0.3569 0.0
C861 C 0.32776 0.88706 0.36383 0.0
C862 C 0.33994 0.82331 0.3982 0.0
C863 C 0.32641 0.83183 0.4092 0.0
C864 C 0.62637 0.72153 0.19265 0.0
C865 C 0.62176 0.70905 0.20721 0.0
C866 C 0.63241 0.69265 0.20998 0.0
C867 C 0.6476 0.68901 0.19874 0.0
H868 H 0.69652 0.65972 0.20034 0.0
H869 H 0.71782 0.63457 0.21018 0.0
H870 H 0.74643 0.63997 0.15802 0.0
H871 H 0.72505 0.66523 0.14793 0.0
H872 H 0.71686 0.70172 0.1233 0.0
H873 H 0.72384 0.72118 0.09619 0.0
H874 H 0.67421 0.7541 0.10461 0.0
H875 H 0.66692 0.73447 0.13177 0.0
H876 H 0.64482 0.72785 0.17035 0.0
H877 H 0.61841 0.7343 0.1902 0.0
H878 H 0.6289 0.68253 0.22076 0.0
H879 H 0.65551 0.67624 0.20137 0.0
N880 N 0.6808 0.68363 0.17769 0.0
N881 N 0.69918 0.69054 0.15191 0.0
N882 N 0.67225 0.70835 0.15716 0.0
C883 C 0.696 0.67991 0.16742 0.0
C884 C 0.6874 0.70479 0.14666 0.0
C885 C 0.66884 0.69776 0.17269 0.0
C886 C 0.70905 0.66458 0.17333 0.0
C887 C 0.70734 0.65564 0.19091 0.0
C888 C 0.71963 0.64131 0.19665 0.0
C889 C 0.7339 0.63553 0.18495 0.0
C890 C 0.73557 0.64425 0.16731 0.0
C891 C 0.72334 0.65872 0.16159 0.0
C892 C 0.69131 0.71649 0.12983 0.0
C893 C 0.70732 0.71302 0.11942 0.0
C894 C 0.71139 0.72422 0.10388 0.0
C895 C 0.69956 0.73912 0.09826 0.0
C896 C 0.68344 0.74254 0.10847 0.0
C897 C 0.67936 0.73134 0.1241 0.0
C898 C 0.65242 0.70159 0.1843 0.0
C899 C 0.64153 0.71784 0.1813 0.0
C900 C 0.34253 0.62627 0.22664 0.0
C901 C 0.32609 0.61608 0.22101 0.0
C902 C 0.31577 0.62181 0.20456 0.0
C903 C 0.32176 0.63744 0.19407 0.0
H904 H 0.30985 0.67179 0.14432 0.0
H905 H 0.2952 0.68333 0.11441 0.0
H906 H 0.33732 0.72783 0.11319 0.0
H907 H 0.35189 0.71656 0.14254 0.0
H908 H 0.38492 0.72083 0.17234 0.0
H909 H 0.41544 0.73495 0.18291 0.0
H910 H 0.4231 0.69062 0.22414 0.0
H911 H 0.39293 0.67647 0.21376 0.0
H912 H 0.36125 0.64922 0.22122 0.0
H913 H 0.35072 0.62235 0.23929 0.0
H914 H 0.30319 0.61406 0.19966 0.0
H915 H 0.31353 0.64143 0.18147 0.0
N916 N 0.33543 0.6707 0.17308 0.0
N917 N 0.35852 0.69454 0.16985 0.0
N918 N 0.36139 0.67316 0.19487 0.0
C919 C 0.34213 0.68593 0.16347 0.0
C920 C 0.36825 0.68827 0.1855 0.0
C921 C 0.34505 0.66428 0.18891 0.0
C922 C 0.33221 0.69308 0.14588 0.0
C923 C 0.31591 0.6841 0.13771 0.0
C924 C 0.30745 0.69073 0.12063 0.0
C925 C 0.3152 0.70641 0.11139 0.0
C926 C 0.33116 0.71557 0.11982 0.0
C927 C 0.3395 0.70906 0.13676 0.0
C928 C 0.38645 0.69739 0.19209 0.0
C929 C 0.39311 0.71408 0.18366 0.0
C930 C 0.41054 0.72222 0.18971 0.0
C931 C 0.42173 0.7137 0.20411 0.0
C932 C 0.41492 0.69728 0.21274 0.0
C933 C 0.39754 0.68924 0.20683 0.0
C934 C 0.33824 0.64767 0.19978 0.0
C935 C 0.3485 0.6418 0.21623 0.0
C936 C 0.32973 0.32161 0.12564 0.0
C937 C 0.3164 0.33203 0.1149 0.0
C938 C 0.3113 0.34991 0.12132 0.0
C939 C 0.31937 0.35719 0.13829 0.0
H940 H 0.3071 0.39138 0.18344 0.0
H941 H 0.2913 0.4165 0.19967 0.0
H942 H 0.33868 0.42114 0.24007 0.0
H943 H 0.35437 0.3956 0.22417 0.0
H944 H 0.3824 0.35539 0.227 0.0
H945 H 0.41124 0.33989 0.23915 0.0
H946 H 0.41898 0.31622 0.18403 0.0
H947 H 0.39033 0.33149 0.17186 0.0
H948 H 0.34826 0.32053 0.15028 0.0
H949 H 0.33396 0.30783 0.12091 0.0
H950 H 0.30099 0.35816 0.11328 0.0
H951 H 0.31516 0.37101 0.14292 0.0
N952 N 0.33367 0.36882 0.17606 0.0
N953 N 0.35777 0.36784 0.20003 0.0
N954 N 0.3579 0.3469 0.17435 0.0
C955 C 0.3415 0.37564 0.19264 0.0
C956 C 0.3661 0.35345 0.19084 0.0
C957 C 0.34173 0.35445 0.16686 0.0
C958 C 0.3321 0.39133 0.20247 0.0
C959 C 0.31427 0.39775 0.19574 0.0
C960 C 0.3052 0.41233 0.20496 0.0
C961 C 0.31375 0.421 0.22107 0.0
C962 C 0.33162 0.41469 0.22774 0.0
C963 C 0.34066 0.40005 0.21859 0.0
C964 C 0.38391 0.34468 0.19846 0.0
C965 C 0.39025 0.34692 0.21747 0.0
C966 C 0.40669 0.33792 0.22447 0.0
C967 C 0.41726 0.32668 0.21257 0.0
C968 C 0.41112 0.32475 0.19354 0.0
C969 C 0.39463 0.33349 0.18661 0.0
C970 C 0.3329 0.34682 0.14897 0.0
C971 C 0.33798 0.32896 0.14241 0.0
C972 C 0.62701 0.35748 0.23977 0.0
C973 C 0.61238 0.3474 0.23009 0.0
C974 C 0.61391 0.34339 0.2108 0.0
C975 C 0.62993 0.34926 0.20138 0.0
H976 H 0.66468 0.33693 0.15431 0.0
H977 H 0.6765 0.32144 0.12645 0.0
H978 H 0.72876 0.35327 0.13352 0.0
H979 H 0.71687 0.36913 0.16081 0.0
H980 H 0.71965 0.40346 0.18737 0.0
H981 H 0.73727 0.43083 0.19971 0.0
H982 H 0.69558 0.43931 0.24118 0.0
H983 H 0.67761 0.41184 0.22876 0.0
H984 H 0.65379 0.37153 0.23819 0.0
H985 H 0.62608 0.3608 0.25462 0.0
H986 H 0.60276 0.33561 0.20308 0.0
H987 H 0.63075 0.346 0.18651 0.0
N988 N 0.66703 0.35782 0.18532 0.0
N989 N 0.69232 0.37946 0.18394 0.0
N990 N 0.67108 0.3819 0.20807 0.0
C991 C 0.68272 0.36415 0.17671 0.0
C992 C 0.68658 0.3885 0.19952 0.0
C993 C 0.66122 0.36662 0.20111 0.0
C994 C 0.68972 0.35442 0.1598 0.0
C995 C 0.67865 0.3407 0.14987 0.0
C996 C 0.68545 0.33178 0.13392 0.0
C997 C 0.70348 0.33632 0.12754 0.0
C998 C 0.7146 0.34983 0.13764 0.0
C999 C 0.70779 0.35883 0.15345 0.0
C1000 C 0.69722 0.40529 0.20711 0.0
C1001 C 0.71416 0.41105 0.19913 0.0
C1002 C 0.72435 0.42669 0.20627 0.0
C1003 C 0.71793 0.43698 0.22159 0.0
C1004 C 0.70086 0.43155 0.22941 0.0
C1005 C 0.69064 0.41578 0.22231 0.0
C1006 C 0.64449 0.35963 0.211 0.0
C1007 C 0.64281 0.36367 0.23031 0.0
C1008 C 0.64382 0.30764 0.83726 0.0
C1009 C 0.63251 0.31464 0.82202 0.0
C1010 C 0.63645 0.33277 0.81514 0.0
C1011 C 0.65124 0.3437 0.82338 0.0
H1012 H 0.69119 0.38067 0.80736 0.0
H1013 H 0.69928 0.40764 0.78823 0.0
H1014 H 0.72792 0.43406 0.83662 0.0
H1015 H 0.71972 0.40668 0.85624 0.0
H1016 H 0.72723 0.37499 0.89429 0.0
H1017 H 0.74263 0.36524 0.92426 0.0
H1018 H 0.71467 0.31081 0.9192 0.0
H1019 H 0.69881 0.32069 0.88975 0.0
H1020 H 0.66698 0.31275 0.85726 0.0
H1021 H 0.6415 0.2935 0.84256 0.0
H1022 H 0.62799 0.33859 0.80347 0.0
H1023 H 0.65379 0.35764 0.81769 0.0
N1024 N 0.68421 0.36398 0.83787 0.0
N1025 N 0.7076 0.37023 0.8617 0.0
N1026 N 0.6874 0.34365 0.86373 0.0
C1027 C 0.69875 0.37495 0.84485 0.0
C1028 C 0.70199 0.35446 0.87123 0.0
C1029 C 0.67837 0.34842 0.8471 0.0
C1030 C 0.70478 0.39144 0.83345 0.0
C1031 C 0.69925 0.39212 0.81409 0.0
C1032 C 0.70399 0.40756 0.803 0.0
C1033 C 0.71436 0.42287 0.81087 0.0
C1034 C 0.71992 0.42239 0.83021 0.0
C1035 C 0.71533 0.4067 0.84139 0.0
C1036 C 0.71174 0.34868 0.88946 0.0
C1037 C 0.72438 0.36093 0.89954 0.0
C1038 C 0.73334 0.35527 0.9167 0.0
C1039 C 0.73011 0.3371 0.92412 0.0
C1040 C 0.71743 0.32493 0.91405 0.0
C1041 C 0.70836 0.33062 0.89704 0.0
C1042 C 0.66246 0.33679 0.83874 0.0
C1043 C 0.65852 0.31863 0.84562 0.0
C1044 C 0.65167 0.73306 0.82027 0.0
C1045 C 0.63483 0.72282 0.81618 0.0
C1046 C 0.63542 0.70293 0.81668 0.0
C1047 C 0.6522 0.69363 0.82222 0.0
H1048 H 0.69335 0.64633 0.8108 0.0
H1049 H 0.70807 0.61813 0.79836 0.0
H1050 H 0.75579 0.62621 0.83776 0.0
H1051 H 0.74135 0.65423 0.85018 0.0
H1052 H 0.73879 0.68343 0.88426 0.0
H1053 H 0.75437 0.70035 0.91107 0.0
H1054 H 0.72026 0.74902 0.8982 0.0
H1055 H 0.70483 0.73246 0.87159 0.0
H1056 H 0.68072 0.73228 0.82987 0.0
H1057 H 0.65202 0.74831 0.81926 0.0
H1058 H 0.62274 0.69459 0.81348 0.0
H1059 H 0.65207 0.67838 0.82323 0.0
N1060 N 0.69201 0.6781 0.83026 0.0
N1061 N 0.71702 0.67977 0.85334 0.0
N1062 N 0.69506 0.70402 0.85094 0.0
C1063 C 0.70794 0.67048 0.83864 0.0
C1064 C 0.71065 0.69649 0.85962 0.0
C1065 C 0.6856 0.695 0.83639 0.0
C1066 C 0.7161 0.65269 0.83151 0.0
C1067 C 0.7069 0.64203 0.81693 0.0
C1068 C 0.71528 0.6258 0.80987 0.0
C1069 C 0.73305 0.61991 0.81717 0.0
C1070 C 0.74212 0.63042 0.83183 0.0
C1071 C 0.73374 0.64649 0.83896 0.0
C1072 C 0.72056 0.70658 0.87568 0.0
C1073 C 0.73472 0.6978 0.88706 0.0
C1074 C 0.74362 0.70742 0.90243 0.0
C1075 C 0.73873 0.72607 0.90649 0.0
C1076 C 0.72462 0.73479 0.89514 0.0
C1077 C 0.71566 0.7252 0.87995 0.0
C1078 C 0.6686 0.70407 0.82757 0.0
C1079 C 0.66821 0.72385 0.82615 0.0
C1080 C 0.35508 0.61822 0.8201 0.0
C1081 C 0.34046 0.60983 0.83003 0.0
C1082 C 0.33312 0.61974 0.84515 0.0
C1083 C 0.34051 0.63756 0.85039 0.0
H1084 H 0.33335 0.68365 0.8862 0.0
H1085 H 0.32194 0.70082 0.91314 0.0
H1086 H 0.37099 0.73767 0.91308 0.0
H1087 H 0.38212 0.72098 0.88579 0.0
H1088 H 0.40577 0.72202 0.84888 0.0
H1089 H 0.43053 0.73619 0.83074 0.0
H1090 H 0.42665 0.68945 0.79162 0.0
H1091 H 0.40191 0.67493 0.80996 0.0
H1092 H 0.37375 0.64183 0.81728 0.0
H1093 H 0.36089 0.61099 0.80826 0.0
H1094 H 0.32198 0.61353 0.85318 0.0
H1095 H 0.33471 0.64472 0.86226 0.0
N1096 N 0.35752 0.67388 0.86153 0.0
N1097 N 0.37981 0.69811 0.85712 0.0
N1098 N 0.37809 0.67213 0.83661 0.0
C1099 C 0.36548 0.69072 0.86704 0.0
C1100 C 0.38619 0.68895 0.84185 0.0
C1101 C 0.36378 0.66446 0.84635 0.0
C1102 C 0.35862 0.70097 0.88367 0.0
C1103 C 0.3417 0.69545 0.89187 0.0
C1104 C 0.33517 0.70526 0.90737 0.0
C1105 C 0.3454 0.72079 0.91514 0.0
C1106 C 0.36247 0.72612 0.90715 0.0
C1107 C 0.36892 0.71642 0.89155 0.0
C1108 C 0.4017 0.69731 0.83093 0.0
C1109 C 0.41016 0.71464 0.83648 0.0
C1110 C 0.42435 0.72283 0.82603 0.0
C1111 C 0.43054 0.71396 0.80972 0.0
C1112 C 0.42234 0.69652 0.80423 0.0
C1113 C 0.40807 0.68828 0.81472 0.0
C1114 C 0.35536 0.64584 0.84058 0.0
C1115 C 0.36241 0.63597 0.82526 0.0
C1116 C 0.35247 0.32223 0.91912 0.0
C1117 C 0.3634 0.3101 0.93074 0.0
C1118 C 0.38191 0.30615 0.92603 0.0
C1119 C 0.38923 0.31374 0.90973 0.0
H1120 H 0.40966 0.29113 0.85372 0.0
H1121 H 0.43471 0.27238 0.84097 0.0
H1122 H 0.46626 0.32362 0.83008 0.0
H1123 H 0.44043 0.3423 0.84142 0.0
H1124 H 0.40291 0.37404 0.82601 0.0
H1125 H 0.39112 0.40204 0.80976 0.0
H1126 H 0.34509 0.40454 0.84736 0.0
H1127 H 0.35705 0.37665 0.86402 0.0
H1128 H 0.35118 0.33926 0.89401 0.0
H1129 H 0.33818 0.32556 0.92259 0.0
H1130 H 0.39058 0.29681 0.93475 0.0
H1131 H 0.4035 0.31017 0.90641 0.0
N1132 N 0.4001 0.32299 0.87234 0.0
N1133 N 0.40203 0.34553 0.84833 0.0
N1134 N 0.37987 0.34891 0.87174 0.0
C1135 C 0.40807 0.32923 0.85649 0.0
C1136 C 0.3878 0.35542 0.85578 0.0
C1137 C 0.38615 0.33276 0.88018 0.0
C1138 C 0.42308 0.31813 0.84832 0.0
C1139 C 0.42188 0.29833 0.84833 0.0
C1140 C 0.43628 0.28761 0.84115 0.0
C1141 C 0.45243 0.29644 0.83421 0.0
C1142 C 0.45374 0.31631 0.83458 0.0
C1143 C 0.43904 0.32705 0.84123 0.0
C1144 C 0.38087 0.37291 0.8463 0.0
C1145 C 0.39027 0.38049 0.83089 0.0
C1146 C 0.38345 0.39651 0.82146 0.0
C1147 C 0.36699 0.40531 0.82706 0.0
C1148 C 0.35781 0.39805 0.84271 0.0
C1149 C 0.36466 0.38203 0.85222 0.0
C1150 C 0.37831 0.32568 0.89787 0.0
C1151 C 0.35993 0.33012 0.90287 0.0
Cu1152 Cu 0.29483 0.25582 0.03016 0.0
N1153 N 0.31723 0.2609 0.0182 0.0
N1154 N 0.3364 0.27206 0.99655 0.0
C1155 C 0.31837 0.26857 1.00093 0.0
C1156 C 0.34703 0.26641 0.01178 0.0
C1157 C 0.33515 0.25954 0.02513 0.0
O1158 O 0.27575 0.24775 0.01132 0.0
C1159 C 0.29592 0.29345 0.04484 0.0
O1160 O 0.30599 0.29773 0.03032 0.0
H1161 H 0.30615 0.27249 0.99221 0.0
H1162 H 0.33926 0.25449 0.0391 0.0
N1163 N 0.29732 0.23585 0.04702 0.0
N1164 N 0.28899 0.21671 0.07026 0.0
C1165 C 0.28417 0.23165 0.05944 0.0
C1166 C 0.31108 0.22315 0.05006 0.0
C1167 C 0.30602 0.21136 0.06459 0.0
C1168 C 0.26766 0.25787 0.99865 0.0
O1169 O 0.27086 0.27618 0.99863 0.0
H1170 H 0.27146 0.23973 0.06076 0.0
H1171 H 0.32384 0.2225 0.04232 0.0
O1172 O 0.28829 0.27712 0.0457 0.0
H1173 H 0.36228 0.26746 0.0133 0.0
H1174 H 0.3141 0.19972 0.07044 0.0
Cu1175 Cu 0.77315 0.28252 0.02598 0.0
N1176 N 0.75109 0.28683 0.041 0.0
N1177 N 0.73232 0.29718 0.06317 0.0
C1178 C 0.74899 0.29962 0.05484 0.0
C1179 C 0.72375 0.28234 0.05422 0.0
C1180 C 0.73532 0.27602 0.04054 0.0
O1181 O 0.78612 0.26881 0.04855 0.0
C1182 C 0.76717 0.30953 0.99458 0.0
O1183 O 0.78347 0.31653 1.00111 0.0
H1184 H 0.75971 0.30996 0.05919 0.0
H1185 H 0.73267 0.26409 0.03121 0.0
N1186 N 0.79509 0.27765 0.01089 0.0
N1187 N 0.81278 0.26871 0.9872 0.0
C1188 C 0.79505 0.27087 0.99309 0.0
C1189 C 0.81338 0.27972 0.01653 0.0
C1190 C 0.8243 0.27409 1.00205 0.0
C1191 C 0.79512 0.27761 0.06195 0.0
O1192 O 0.79612 0.29612 0.06125 0.0
H1193 H 0.78228 0.26766 0.98464 0.0
H1194 H 0.81845 0.28465 0.03032 0.0
O1195 O 0.75984 0.2956 1.00316 0.0
H1196 H 0.71014 0.27637 0.05747 0.0
H1197 H 0.83955 0.2734 1.00279 0.0
Cu1198 Cu 0.76619 0.79444 1.00131 0.0
N1199 N 0.76826 0.81563 0.98583 0.0
N1200 N 0.77902 0.83286 0.96199 0.0
C1201 C 0.77767 0.81556 0.9698 0.0
C1202 C 0.77013 0.84438 0.97383 0.0
C1203 C 0.76346 0.83369 0.98848 0.0
O1204 O 0.76869 0.77268 0.98486 0.0
C1205 C 0.78056 0.80924 0.03453 0.0
O1206 O 0.76474 0.81849 0.03193 0.0
H1207 H 0.78376 0.80293 0.96422 0.0
H1208 H 0.75626 0.83885 1.00053 0.0
N1209 N 0.74287 0.79187 0.01234 0.0
N1210 N 0.72283 0.7819 0.03372 0.0
C1211 C 0.74021 0.78031 0.02702 0.0
C1212 C 0.72656 0.80117 1.00948 0.0
C1213 C 0.7141 0.79499 0.0227 0.0
C1214 C 0.75624 0.77235 0.97128 0.0
O1215 O 0.74346 0.78559 0.97031 0.0
H1216 H 0.75106 0.77117 0.03295 0.0
H1217 H 0.72414 0.81206 0.99899 0.0
O1218 O 0.78507 0.79728 0.02212 0.0
H1219 H 0.76923 0.85954 0.97265 0.0
H1220 H 0.70007 0.8003 0.02455 0.0
Cu1221 Cu 0.2752 0.76797 0.01545 0.0
N1222 N 0.27296 0.78997 0.02979 0.0
N1223 N 0.26283 0.8088 0.05257 0.0
C1224 C 0.26501 0.79082 0.04667 0.0
C1225 C 0.26972 0.81964 0.03871 0.0
C1226 C 0.276 0.80802 0.02477 0.0
O1227 O 0.27653 0.74705 0.03358 0.0
C1228 C 0.25647 0.77903 0.98254 0.0
O1229 O 0.27171 0.78979 0.98281 0.0
H1230 H 0.26032 0.77843 0.05416 0.0
H1231 H 0.28152 0.81248 0.0115 0.0
N1232 N 0.29743 0.76785 1.00201 0.0
N1233 N 0.31709 0.76006 0.9796 0.0
C1234 C 0.30104 0.75554 0.98817 0.0
C1235 C 0.31182 0.78048 1.00236 0.0
C1236 C 0.32399 0.7757 0.98853 0.0
C1237 C 0.2922 0.74628 0.0432 0.0
O1238 O 0.30547 0.7588 0.03983 0.0
H1239 H 0.29162 0.74397 0.98392 0.0
H1240 H 0.31313 0.79256 0.01168 0.0
O1241 O 0.25421 0.76758 0.99621 0.0
H1242 H 0.26923 0.83487 0.03799 0.0
H1243 H 0.33683 0.7832 0.98523 0.0
Cu1244 Cu 0.03597 0.2659 0.2676 0.0
N1245 N 0.05113 0.26484 0.24673 0.0
N1246 N 0.07473 0.25428 0.22991 0.0
C1247 C 0.06839 0.25708 0.24732 0.0
C1248 C 0.06092 0.26054 0.21782 0.0
C1249 C 0.04639 0.26718 0.22826 0.0
O1250 O 0.05376 0.2649 0.28949 0.0
C1251 C 0.01582 0.23353 0.25244 0.0
O1252 O 0.03133 0.22974 0.24385 0.0
H1253 H 0.07549 0.25215 0.26022 0.0
H1254 H 0.03282 0.27206 0.22277 0.0
N1255 N 0.02232 0.28815 0.26884 0.0
N1256 N 0.99965 0.30711 0.27829 0.0
C1257 C 1.00599 0.28929 0.27771 0.0
C1258 C 0.02649 0.30586 0.26344 0.0
C1259 C 0.01246 0.31763 0.26926 0.0
C1260 C 0.0524 0.27475 0.30441 0.0
O1261 O 0.03641 0.28309 0.3074 0.0
H1262 H 0.9992 0.2773 0.28416 0.0
H1263 H 0.03912 0.31001 0.25641 0.0
O1264 O 0.01627 0.24639 0.26504 0.0
H1265 H 0.06098 0.25959 0.20258 0.0
H1266 H 0.01219 0.33282 0.26772 0.0
Cu1267 Cu 0.76274 0.02607 0.25968 0.0
N1268 N 0.78568 0.03944 0.25917 0.0
N1269 N 0.80618 0.06133 0.24968 0.0
C1270 C 0.78858 0.05398 0.24737 0.0
C1271 C 0.81472 0.05107 0.26359 0.0
C1272 C 0.80206 0.03745 0.26933 0.0
O1273 O 0.74317 0.04521 0.25821 0.0
C1274 C 0.77555 0.99468 0.2432 0.0
O1275 O 0.78519 0.9954 0.25949 0.0
H1276 H 0.77774 0.05932 0.23759 0.0
H1277 H 0.80466 0.02687 0.2801 0.0
N1278 N 0.7596 0.01239 0.28199 0.0
N1279 N 0.74954 0.98904 0.30036 0.0
C1280 C 0.74783 0.99739 0.28329 0.0
C1281 C 0.76889 0.01378 0.29897 0.0
C1282 C 0.76274 0.99931 0.31034 0.0
C1283 C 0.74611 0.05798 0.27077 0.0
O1284 O 0.76063 0.05635 0.28285 0.0
H1285 H 0.73873 0.99223 0.27164 0.0
H1286 H 0.77961 0.02431 0.30273 0.0
O1287 O 0.76356 1.00754 0.23933 0.0
H1288 H 0.8291 0.05319 0.2691 0.0
H1289 H 0.76764 0.99651 0.32475 0.0
Cu1290 Cu 0.01459 0.77653 0.24874 0.0
N1291 N 1.00542 0.80111 0.24764 0.0
N1292 N 0.98634 0.8243 0.23753 0.0
C1293 C 0.98838 0.80553 0.23986 0.0
C1294 C 1.00293 0.83203 0.2441 0.0
C1295 C 0.01469 0.81766 0.25029 0.0
O1296 O 0.99258 0.75969 0.24867 0.0
C1297 C 0.04838 0.77965 0.23047 0.0
O1298 O 0.05458 0.78407 0.24767 0.0
H1299 H 0.97792 0.79501 0.23527 0.0
H1300 H 0.02932 0.8191 0.25525 0.0
N1301 N 0.02844 0.77121 0.27113 0.0
N1302 N 0.04786 0.75559 0.29116 0.0
C1303 C 0.03876 0.75559 0.274 0.0
C1304 C 0.03093 0.78148 0.28704 0.0
C1305 C 0.04299 0.7719 0.29941 0.0
C1306 C 0.98168 0.76359 0.26191 0.0
O1307 O 0.9863 0.77765 0.27338 0.0
H1308 H 0.04024 0.74492 0.26326 0.0
H1309 H 0.02467 0.79508 0.28933 0.0
O1310 O 0.03108 0.77479 0.22747 0.0
H1311 H 1.00682 0.84682 0.24338 0.0
H1312 H 0.04795 0.77665 0.31332 0.0
Cu1313 Cu 0.26153 1.00615 0.29946 0.0
N1314 N 0.26377 0.02093 0.32149 0.0
N1315 N 0.2742 0.04512 0.33969 0.0
C1316 C 0.27567 0.0359 0.32318 0.0
C1317 C 0.26092 0.03542 0.34891 0.0
C1318 C 0.2545 0.02047 0.33763 0.0
O1319 O 0.2609 0.02463 0.27895 0.0
C1320 C 0.27862 0.9756 0.31467 0.0
O1321 O 0.26389 0.97812 0.32491 0.0
H1322 H 0.2849 0.04027 0.3122 0.0
H1323 H 0.2438 1.01014 0.34097 0.0
N1324 N 0.23915 0.9919 0.29575 0.0
N1325 N 0.2198 0.97036 0.28167 0.0
C1326 C 0.23673 0.97928 0.28159 0.0
C1327 C 0.22308 0.99111 0.30512 0.0
C1328 C 0.21109 0.97777 0.29645 0.0
C1329 C 0.24734 0.0361 0.28078 0.0
O1330 O 0.23616 0.03349 0.29485 0.0
H1331 H 0.24738 0.97651 0.27154 0.0
H1332 H 0.22019 0.99964 0.31727 0.0
O1333 O 0.2816 0.98742 0.30147 0.0
H1334 H 0.25627 0.03877 0.36283 0.0
H1335 H 0.19698 0.97409 0.30051 0.0
Cu1336 Cu 0.02473 0.75799 0.75723 0.0
N1337 N 0.04023 0.73668 0.75802 0.0
N1338 N 0.06441 0.71837 0.75056 0.0
C1339 C 0.0567 0.73571 0.74932 0.0
C1340 C 0.05213 0.70804 0.76053 0.0
C1341 C 0.0374 0.71939 0.76525 0.0
O1342 O 0.04217 0.77956 0.76142 0.0
C1343 C 0.99834 0.74152 0.73304 0.0
O1344 O 1.00072 0.72896 0.74652 0.0
H1345 H 0.06273 0.74757 0.74199 0.0
H1346 H 0.02514 0.71509 0.77279 0.0
N1347 N 1.00737 0.75919 0.77631 0.0
N1348 N 0.98289 0.77056 0.79131 0.0
C1349 C 0.99309 0.77153 0.77575 0.0
C1350 C 1.00622 0.75001 0.79286 0.0
C1351 C 0.99117 0.75713 0.80223 0.0
C1352 C 0.0501 0.77935 0.77801 0.0
O1353 O 0.0459 0.7655 0.78944 0.0
H1354 H 0.99064 0.78148 0.76434 0.0
H1355 H 0.01584 0.73924 0.79794 0.0
O1356 O 1.00841 0.75665 0.73398 0.0
H1357 H 0.05304 0.69312 0.7635 0.0
H1358 H 0.98671 0.75284 0.81601 0.0
Cu1359 Cu 0.27326 0.02741 0.79178 0.0
N1360 N 0.29585 0.04161 0.7935 0.0
N1361 N 0.31576 0.0649 0.78602 0.0
C1362 C 0.2983 0.05733 0.7832 0.0
C1363 C 0.32481 0.05337 0.79848 0.0
C1364 C 0.31242 0.03906 0.80322 0.0
O1365 O 0.25353 0.04629 0.7934 0.0
C1366 C 0.28895 1.00248 0.76863 0.0
O1367 O 0.30097 1.00332 0.78329 0.0
H1368 H 0.28757 0.06277 0.77335 0.0
H1369 H 0.31546 0.02741 0.81267 0.0
N1370 N 0.27027 1.0098 0.81112 0.0
N1371 N 0.25867 0.98426 0.82538 0.0
C1372 C 0.25766 0.99538 0.80992 0.0
C1373 C 0.27966 1.00777 0.82795 0.0
C1374 C 0.27259 0.99193 0.83674 0.0
C1375 C 0.25619 0.05665 0.80806 0.0
O1376 O 0.27012 0.05258 0.8202 0.0
H1377 H 0.2483 0.99281 0.79764 0.0
H1378 H 0.29088 0.01703 0.8334 0.0
O1379 O 0.27413 0.01249 0.76866 0.0
H1380 H 0.33934 0.05512 0.80368 0.0
H1381 H 0.27726 0.9865 0.85043 0.0
Cu1382 Cu 0.02206 0.28741 0.77913 0.0
N1383 N 1.0086 0.3098 0.77758 0.0
N1384 N 0.98597 0.32896 0.76628 0.0
C1385 C 0.99194 0.31102 0.76785 0.0
C1386 C 0.99949 0.33949 0.77558 0.0
C1387 C 0.01341 0.32761 0.78261 0.0
O1388 O 1.00308 0.26733 0.78055 0.0
C1389 C 0.05172 0.29958 0.75977 0.0
O1390 O 0.05176 0.31127 0.77412 0.0
H1391 H 0.98463 0.29889 0.76153 0.0
H1392 H 0.02647 0.33182 0.79004 0.0
N1393 N 0.03819 0.28542 0.80057 0.0
N1394 N 0.06183 0.27356 0.8185 0.0
C1395 C 0.05055 0.27133 0.80281 0.0
C1396 C 0.04173 0.29712 0.81533 0.0
C1397 C 0.05645 0.28984 0.82642 0.0
C1398 C 0.99502 0.26732 0.79627 0.0
O1399 O 1.00057 0.27983 0.80914 0.0
H1400 H 0.05182 0.26013 0.79257 0.0
H1401 H 0.03449 0.31019 0.8176 0.0
O1402 O 0.03882 0.28687 0.75809 0.0
H1403 H 0.99996 0.35473 0.77638 0.0
H1404 H 0.06287 0.29612 0.83914 0.0
Cu1405 Cu 0.77491 0.02692 0.75153 0.0
N1406 N 0.77766 0.0421 0.77323 0.0
N1407 N 0.78748 0.06585 0.79219 0.0
C1408 C 0.78914 0.05735 0.7753 0.0
C1409 C 0.77473 0.05533 0.80124 0.0
C1410 C 0.76865 0.04074 0.78949 0.0
O1411 O 0.77581 0.0433 0.72934 0.0
C1412 C 0.79368 0.99747 0.76828 0.0
O1413 O 0.7809 1.00131 0.78049 0.0
H1414 H 0.79848 0.0621 0.76458 0.0
H1415 H 0.75831 0.02995 0.7926 0.0
N1416 N 0.75157 0.01429 0.75011 0.0
N1417 N 0.72994 0.99231 0.74157 0.0
C1418 C 0.74785 0.99853 0.73992 0.0
C1419 C 0.73541 0.01825 0.75844 0.0
C1420 C 0.72205 1.00455 0.75333 0.0
C1421 C 0.76677 0.05871 0.73001 0.0
O1422 O 0.75766 0.06263 0.7452 0.0
H1423 H 0.7582 0.99162 0.73166 0.0
H1424 H 0.73341 0.03027 0.76749 0.0
O1425 O 0.79417 1.00741 0.75331 0.0
H1426 H 0.76988 0.05822 0.8152 0.0
H1427 H 0.70761 1.00378 0.75764 0.0
Cu1428 Cu 0.26209 0.77176 0.51931 0.0
N1429 N 0.26149 0.79457 0.5326 0.0
N1430 N 0.27062 0.81573 0.55481 0.0
C1431 C 0.27043 0.7974 0.5496 0.0
C1432 C 0.26124 0.82479 0.54054 0.0
C1433 C 0.25585 0.81174 0.52676 0.0
O1434 O 0.26022 0.75203 0.53841 0.0
C1435 C 0.29004 0.76516 0.49139 0.0
O1436 O 0.28165 0.74892 0.48744 0.0
H1437 H 0.27763 0.78635 0.55749 0.0
H1438 H 0.2492 0.81479 0.51309 0.0
N1439 N 0.24175 0.76846 0.50154 0.0
N1440 N 0.22407 0.75574 0.47759 0.0
C1441 C 0.23901 0.75351 0.48988 0.0
C1442 C 0.22755 0.78026 0.49694 0.0
C1443 C 0.21666 0.77248 0.48218 0.0
C1444 C 0.24545 0.75379 0.54786 0.0
O1445 O 0.23367 0.76733 0.54312 0.0
H1446 H 0.24795 0.74128 0.49017 0.0
H1447 H 0.22522 0.79359 0.50376 0.0
O1448 O 0.28517 0.77453 0.50563 0.0
H1449 H 0.25875 0.8398 0.53985 0.0
H1450 H 0.20419 0.77865 0.47547 0.0
Cu1451 Cu 0.7689 0.78563 0.50051 0.0
N1452 N 0.78962 0.78903 0.48544 0.0
N1453 N 0.80823 0.78168 0.46187 0.0
C1454 C 0.79064 0.78081 0.46841 0.0
C1455 C 0.81868 0.79106 0.47544 0.0
C1456 C 0.80716 0.79561 0.4899 0.0
O1457 O 0.74759 0.77989 0.4829 0.0
C1458 C 0.78699 0.77274 0.53275 0.0
O1459 O 0.79306 0.7903 0.532 0.0
H1460 H 0.7788 0.77342 0.46144 0.0
H1461 H 0.81159 0.80212 0.50322 0.0
N1462 N 0.76251 0.80703 0.51412 0.0
N1463 N 0.74859 0.82347 0.53635 0.0
C1464 C 0.74972 0.80669 0.52755 0.0
C1465 C 0.76984 0.82466 0.51437 0.0
C1466 C 0.76125 0.83486 0.52812 0.0
C1467 C 0.74263 0.79406 0.47284 0.0
O1468 O 0.75161 0.81024 0.47552 0.0
H1469 H 0.74166 0.79418 0.53103 0.0
H1470 H 0.78102 0.82953 0.50562 0.0
O1471 O 0.77576 0.76653 0.51946 0.0
H1472 H 0.83381 0.79329 0.47571 0.0
H1473 H 0.76467 0.84926 0.53225 0.0
Cu1474 Cu 0.77675 0.27672 0.49946 0.0
N1475 N 0.77478 0.25501 0.48415 0.0
N1476 N 0.76275 0.23667 0.46046 0.0
C1477 C 0.76408 0.25427 0.46789 0.0
C1478 C 0.77314 0.22592 0.47272 0.0
C1479 C 0.78061 0.23725 0.4872 0.0
O1480 O 0.78059 0.29747 0.48169 0.0
C1481 C 0.75624 0.26205 0.52694 0.0
O1482 O 0.77064 0.25073 0.52604 0.0
H1483 H 0.75704 0.26647 0.46187 0.0
H1484 H 0.78897 0.23267 0.49947 0.0
N1485 N 0.79725 0.27839 0.51733 0.0
N1486 N 0.81387 0.29 0.54255 0.0
C1487 C 0.79797 0.29125 0.5314 0.0
C1488 C 0.81322 0.26844 0.51973 0.0
C1489 C 0.82354 0.27563 0.53527 0.0
C1490 C 0.79655 0.29605 0.47417 0.0
O1491 O 0.80732 0.28175 0.47898 0.0
H1492 H 0.78702 0.30146 0.53333 0.0
H1493 H 0.81705 0.2568 0.51088 0.0
O1494 O 0.75488 0.2759 0.5154 0.0
H1495 H 0.77454 0.21077 0.47199 0.0
H1496 H 0.83691 0.27043 0.54098 0.0
Cu1497 Cu 0.27892 0.27913 0.54657 0.0
N1498 N 0.27605 0.30245 0.55832 0.0
N1499 N 0.26502 0.32263 0.57919 0.0
C1500 C 0.26469 0.30473 0.57276 0.0
C1501 C 0.27683 0.33215 0.56808 0.0
C1502 C 0.28373 0.3196 0.55523 0.0
O1503 O 0.28049 0.26031 0.56668 0.0
C1504 C 0.26059 0.28847 0.51384 0.0
O1505 O 0.27472 0.30066 0.51519 0.0
H1506 H 0.25612 0.29341 0.57824 0.0
H1507 H 0.29355 0.32278 0.54442 0.0
N1508 N 0.30106 0.27702 0.53361 0.0
N1509 N 0.31933 0.26563 0.51158 0.0
C1510 C 0.3029 0.26382 0.52026 0.0
C1511 C 0.31696 0.28762 0.53361 0.0
C1512 C 0.32829 0.28062 0.51994 0.0
C1513 C 0.29293 0.26478 0.57957 0.0
O1514 O 0.30291 0.28037 0.57761 0.0
H1515 H 0.2921 0.25327 0.51672 0.0
H1516 H 0.31988 0.29984 0.54248 0.0
O1517 O 0.25854 0.27664 0.52718 0.0
H1518 H 0.28037 0.34703 0.56931 0.0
H1519 H 0.34165 0.28662 0.51595 0.0
Cu1520 Cu 0.76384 0.5282 0.75255 0.0
N1521 N 0.76374 0.54546 0.73258 0.0
N1522 N 0.77428 0.569 0.7147 0.0
C1523 C 0.77879 0.55606 0.72804 0.0
C1524 C 0.75573 0.56613 0.71027 0.0
C1525 C 0.74922 0.55164 0.72143 0.0
O1526 O 0.7617 0.54271 0.77577 0.0
C1527 C 0.78649 0.49554 0.75649 0.0
O1528 O 0.77632 0.49161 0.77102 0.0
H1529 H 0.79272 0.55463 0.73478 0.0
H1530 H 0.73481 0.54648 0.7219 0.0
N1531 N 0.74297 0.51181 0.75134 0.0
N1532 N 0.72752 0.48624 0.76136 0.0
C1533 C 0.73727 0.50206 0.76644 0.0
C1534 C 0.73595 0.50222 0.73613 0.0
C1535 C 0.72633 0.48647 0.74227 0.0
C1536 C 0.7701 0.55841 0.77925 0.0
O1537 O 0.78463 0.56322 0.76942 0.0
H1538 H 0.74247 0.50506 0.78077 0.0
H1539 H 0.73937 0.50528 0.72173 0.0
O1540 O 0.78548 0.51197 0.74924 0.0
H1541 H 0.74733 0.57451 0.70034 0.0
H1542 H 0.72037 0.47523 0.7334 0.0
Cu1543 Cu 0.29635 0.5096 0.77949 0.0
N1544 N 0.31734 0.49383 0.77913 0.0
N1545 N 0.33688 0.47031 0.7869 0.0
C1546 C 0.32219 0.48067 0.79214 0.0
C1547 C 0.34172 0.4775 0.77012 0.0
C1548 C 0.3296 0.49197 0.76534 0.0
O1549 O 0.27348 0.49426 0.78235 0.0
C1550 C 0.3174 0.53694 0.79899 0.0
O1551 O 0.33003 0.53043 0.78779 0.0
H1552 H 0.31446 0.47812 0.80473 0.0
H1553 H 0.32944 0.50028 0.75253 0.0
N1554 N 0.29228 0.52237 0.7567 0.0
N1555 N 0.28045 0.54505 0.73783 0.0
C1556 C 0.28746 0.54063 0.75532 0.0
C1557 C 0.28856 0.51495 0.73944 0.0
C1558 C 0.2814 0.52894 0.72773 0.0
C1559 C 0.27285 0.47758 0.77553 0.0
O1560 O 0.28788 0.47078 0.768 0.0
H1561 H 0.28834 0.55018 0.76724 0.0
H1562 H 0.28965 0.50014 0.73601 0.0
O1563 O 0.30105 0.52917 0.79859 0.0
H1564 H 0.35307 0.47255 0.76181 0.0
H1565 H 0.27607 0.52706 0.71327 0.0
Cu1566 Cu 0.26701 0.51194 0.28114 0.0
N1567 N 0.26621 0.49795 0.30363 0.0
N1568 N 0.25769 0.47415 0.32238 0.0
C1569 C 0.25564 0.48211 0.30511 0.0
C1570 C 0.26988 0.48565 0.33229 0.0
C1571 C 0.27522 0.50027 0.32064 0.0
O1572 O 0.26918 0.49291 0.26122 0.0
C1573 C 0.24787 0.54162 0.29397 0.0
O1574 O 0.2627 0.54042 0.30572 0.0
H1575 H 0.24644 0.47666 0.29369 0.0
H1576 H 0.285 0.5117 0.32431 0.0
N1577 N 0.28797 0.52812 0.27896 0.0
N1578 N 0.30443 0.55228 0.26721 0.0
C1579 C 0.28812 0.54219 0.26618 0.0
C1580 C 0.30489 0.52913 0.28838 0.0
C1581 C 0.31512 0.54401 0.28108 0.0
C1582 C 0.28312 0.48201 0.26487 0.0
O1583 O 0.29373 0.48513 0.2803 0.0
H1584 H 0.27648 0.54472 0.2561 0.0
H1585 H 0.30946 0.51978 0.2997 0.0
O1586 O 0.24555 0.5292 0.28092 0.0
H1587 H 0.27481 0.48348 0.34681 0.0
H1588 H 0.32924 0.54851 0.28575 0.0
Cu1589 Cu 0.78462 0.53305 0.2521 0.0
N1590 N 0.80541 0.51725 0.25487 0.0
N1591 N 0.82259 0.4935 0.26658 0.0
C1592 C 0.80684 0.50368 0.26807 0.0
C1593 C 0.83139 0.50085 0.25172 0.0
C1594 C 0.82077 0.51563 0.24455 0.0
O1595 O 0.76283 0.51595 0.25078 0.0
C1596 C 0.80198 0.55731 0.2782 0.0
O1597 O 0.8167 0.55115 0.26963 0.0
H1598 H 0.79613 0.50091 0.27815 0.0
H1599 H 0.82394 0.52439 0.2326 0.0
N1600 N 0.7846 0.54751 0.23013 0.0
N1601 N 0.77713 0.57151 0.21091 0.0
C1602 C 0.77612 0.56429 0.22844 0.0
C1603 C 0.79115 0.54382 0.213 0.0
C1604 C 0.78647 0.55861 0.20106 0.0
C1605 C 0.76427 0.50291 0.23857 0.0
O1606 O 0.77868 0.50332 0.22759 0.0
H1607 H 0.7686 0.57064 0.23971 0.0
H1608 H 0.79833 0.53109 0.20928 0.0
O1609 O 0.7856 0.55093 0.27311 0.0
H1610 H 0.84449 0.49586 0.24643 0.0
H1611 H 0.78942 0.55967 0.18625 0.0
Cu1612 Cu 0.54982 0.24253 0.76787 0.0
N1613 N 0.53494 0.23964 0.78871 0.0
N1614 N 0.51269 0.2505 0.8071 0.0
C1615 C 0.51864 0.24898 0.78937 0.0
C1616 C 0.52543 0.24088 0.81798 0.0
C1617 C 0.5392 0.23426 0.80661 0.0
O1618 O 0.53141 0.24458 0.74657 0.0
C1619 C 0.57757 0.26231 0.7874 0.0
O1620 O 0.57849 0.24568 0.7955 0.0
H1621 H 0.51192 0.25539 0.77702 0.0
H1622 H 0.55208 0.22737 0.81137 0.0
N1623 N 0.56572 0.22244 0.76332 0.0
N1624 N 0.58622 0.20555 0.74767 0.0
C1625 C 0.57589 0.22134 0.74784 0.0
C1626 C 0.56981 0.20685 0.77347 0.0
C1627 C 0.58262 0.19643 0.76386 0.0
C1628 C 0.52424 0.22893 0.7406 0.0
O1629 O 0.53089 0.21317 0.74782 0.0
H1630 H 0.57595 0.23219 0.73709 0.0
H1631 H 0.56397 0.20336 0.78688 0.0
O1632 O 0.56592 0.26465 0.77334 0.0
H1633 H 0.52558 0.23991 0.83323 0.0
H1634 H 0.58873 0.18316 0.76835 0.0
Cu1635 Cu 0.52072 0.77519 0.76263 0.0
N1636 N 0.53871 0.7727 0.78278 0.0
N1637 N 0.5645 0.76224 0.79895 0.0
C1638 C 0.55532 0.76373 0.78184 0.0
C1639 C 0.55304 0.77052 0.81112 0.0
C1640 C 0.53726 0.777 0.80113 0.0
O1641 O 0.5352 0.77653 0.7398 0.0
C1642 C 0.49121 0.75697 0.77832 0.0
O1643 O 0.49386 0.77185 0.78921 0.0
H1644 H 0.56037 0.75807 0.76885 0.0
H1645 H 0.52528 0.78374 0.807 0.0
N1646 N 0.50641 0.79735 0.76352 0.0
N1647 N 0.48227 0.81677 0.75725 0.0
C1648 C 0.49081 0.80068 0.75243 0.0
C1649 C 0.50793 0.81197 0.77567 0.0
C1650 C 0.49306 0.82399 0.77181 0.0
C1651 C 0.54382 0.79233 0.73795 0.0
O1652 O 0.54181 0.80552 0.75068 0.0
H1653 H 0.48542 0.79108 0.7415 0.0
H1654 H 0.51885 0.8136 0.78675 0.0
O1655 O 0.50219 0.75452 0.76477 0.0
H1656 H 0.55534 0.77111 0.82631 0.0
H1657 H 0.49039 0.83699 0.77918 0.0
Cu1658 Cu 0.51657 0.76144 0.26331 0.0
N1659 N 0.50376 0.76121 0.28567 0.0
N1660 N 0.48117 0.76855 0.30526 0.0
C1661 C 0.48585 0.76686 0.2871 0.0
C1662 C 0.49682 0.76362 0.31565 0.0
C1663 C 0.51073 0.75909 0.30351 0.0
O1664 O 0.4976 0.75732 0.24274 0.0
C1665 C 0.53115 0.79792 0.27398 0.0
O1666 O 0.51636 0.79899 0.28438 0.0
H1667 H 0.47677 0.77064 0.27501 0.0
H1668 H 0.52524 0.75579 0.3074 0.0
N1669 N 0.53423 0.74224 0.26283 0.0
N1670 N 0.55893 0.72637 0.25309 0.0
C1671 C 0.5472 0.7409 0.24968 0.0
C1672 C 0.53776 0.728 0.27501 0.0
C1673 C 0.55303 0.71813 0.26899 0.0
C1674 C 0.49155 0.74035 0.2409 0.0
O1675 O 0.49874 0.72739 0.25223 0.0
H1676 H 0.5483 0.75072 0.23807 0.0
H1677 H 0.52986 0.72506 0.28738 0.0
O1678 O 0.53199 0.78442 0.26219 0.0
H1679 H 0.49861 0.76455 0.33087 0.0
H1680 H 0.55919 0.7058 0.27569 0.0
Cu1681 Cu 0.50867 0.28093 0.27542 0.0
N1682 N 0.49558 0.27777 0.29736 0.0
N1683 N 0.47479 0.26438 0.31613 0.0
C1684 C 0.47955 0.26744 0.2982 0.0
C1685 C 0.48827 0.27331 0.32707 0.0
C1686 C 0.50115 0.28154 0.31541 0.0
O1687 O 0.48863 0.2818 0.25543 0.0
C1688 C 0.53925 0.25666 0.26459 0.0
O1689 O 0.53904 0.26553 0.2483 0.0
H1690 H 0.47216 0.26125 0.28592 0.0
H1691 H 0.51409 0.28893 0.31977 0.0
N1692 N 0.52259 0.30365 0.27565 0.0
N1693 N 0.54563 0.32378 0.26803 0.0
C1694 C 0.54074 0.3056 0.27101 0.0
C1695 C 0.51586 0.3213 0.27601 0.0
C1696 C 0.53001 0.33375 0.27115 0.0
C1697 C 0.48795 0.29391 0.24212 0.0
O1698 O 0.50339 0.30331 0.23823 0.0
H1699 H 0.5498 0.29389 0.26838 0.0
H1700 H 0.50129 0.32472 0.27815 0.0
O1701 O 0.52645 0.2601 0.27606 0.0
H1702 H 0.48899 0.2735 0.34236 0.0
H1703 H 0.52864 0.34881 0.26907 0.0
C1704 C 0.27707 0.19789 0.11788 0.0
C1705 C 0.25721 0.19654 0.11635 0.0
C1706 C 0.28747 0.20396 0.10259 0.0
C1707 C 0.27836 0.20891 0.08528 0.0
H1708 H 0.28458 0.19469 0.13115 0.0
H1709 H 0.30268 0.20537 0.10447 0.0
S1710 S 0.22695 0.20535 0.07319 0.0
N1711 N 0.22904 0.19892 0.09558 0.0
N1712 N 0.24859 0.21035 0.06691 0.0
C1713 C 0.25861 0.20691 0.08335 0.0
C1714 C 0.24803 0.20073 0.09886 0.0
C1715 C 0.81537 0.23705 0.09187 0.0
C1716 C 0.82417 0.24624 0.10767 0.0
C1717 C 0.80599 0.24724 0.07727 0.0
C1718 C 0.80492 0.26709 0.07782 0.0
H1719 H 0.81595 0.22184 0.09063 0.0
H1720 H 0.79964 0.23944 0.06539 0.0
S1721 S 0.82453 0.29783 0.11678 0.0
N1722 N 0.83038 0.27629 0.12343 0.0
N1723 N 0.81298 0.29544 0.09611 0.0
C1724 C 0.81346 0.27642 0.09371 0.0
C1725 C 0.82301 0.26603 0.10855 0.0
C1726 C 0.82106 0.82659 0.06706 0.0
C1727 C 0.81195 0.82935 0.08408 0.0
C1728 C 0.81132 0.81852 0.05117 0.0
C1729 C 0.79223 0.81305 0.05192 0.0
H1730 H 0.83542 0.83167 0.06569 0.0
H1731 H 0.81835 0.81774 0.03796 0.0
S1732 S 0.76313 0.81409 0.094 0.0
N1733 N 0.78365 0.82345 0.10138 0.0
N1734 N 0.76534 0.80874 0.07154 0.0
C1735 C 0.78348 0.81446 0.06922 0.0
C1736 C 0.79335 0.82249 0.08531 0.0
C1737 C 0.22799 0.80954 0.09119 0.0
C1738 C 0.23154 0.82715 0.09999 0.0
C1739 C 0.2384 0.80359 0.07599 0.0
C1740 C 0.25294 0.81492 0.06889 0.0
H1741 H 0.217 0.80022 0.09605 0.0
H1742 H 0.23466 0.79014 0.0695 0.0
S1743 S 0.26855 0.86197 0.08741 0.0
N1744 N 0.25083 0.85585 0.10052 0.0
N1745 N 0.271 0.84427 0.07262 0.0
C1746 C 0.25699 0.83238 0.07785 0.0
C1747 C 0.24621 0.83855 0.09324 0.0
C1748 C 0.23929 0.78976 0.93275 0.0
C1749 C 0.22018 0.79411 0.93457 0.0
C1750 C 0.25045 0.78326 0.94815 0.0
C1751 C 0.24297 0.7807 0.96603 0.0
H1752 H 0.24595 0.79235 0.91952 0.0
H1753 H 0.26537 0.78119 0.94629 0.0
S1754 S 0.19332 0.78828 0.97789 0.0
N1755 N 0.19382 0.794 0.9553 0.0
N1756 N 0.21492 0.78159 0.98436 0.0
C1757 C 0.22356 0.7836 0.96777 0.0
C1758 C 0.21213 0.79035 0.95199 0.0
C1759 C 0.24365 0.24979 0.95012 0.0
C1760 C 0.23868 0.23048 0.95039 0.0
C1761 C 0.25253 0.25865 0.96594 0.0
C1762 C 0.25676 0.24857 0.98269 0.0
H1763 H 0.24092 0.25805 0.93744 0.0
H1764 H 0.25646 0.27343 0.96484 0.0
S1765 S 0.2451 0.19803 0.99115 0.0
N1766 N 0.23753 0.20183 0.9691 0.0
N1767 N 0.25425 0.21834 0.99884 0.0
C1768 C 0.25142 0.22932 0.98327 0.0
C1769 C 0.24242 0.22032 0.96712 0.0
C1770 C 0.81199 0.23991 0.94234 0.0
C1771 C 0.82913 0.24507 0.9343 0.0
C1772 C 0.80666 0.24784 0.95942 0.0
C1773 C 0.81821 0.2613 0.96922 0.0
H1774 H 0.80256 0.22966 0.93536 0.0
H1775 H 0.79354 0.24309 0.96515 0.0
S1776 S 0.86424 0.28017 0.95397 0.0
N1777 N 0.85768 0.26452 0.93761 0.0
N1778 N 0.84718 0.28014 0.96902 0.0
C1779 C 0.8352 0.26688 0.96115 0.0
C1780 C 0.84074 0.25864 0.94388 0.0
C1781 C 0.81343 0.82997 0.92314 0.0
C1782 C 0.80888 0.84559 0.91166 0.0
C1783 C 0.80384 0.82616 0.93957 0.0
C1784 C 0.78903 0.83764 0.94523 0.0
H1785 H 0.82439 0.82039 0.91931 0.0
H1786 H 0.80822 0.81409 0.9479 0.0
S1787 S 0.77175 0.88061 0.92028 0.0
N1788 N 0.78909 0.8732 0.90756 0.0
N1789 N 0.77024 0.86536 0.93776 0.0
C1790 C 0.78433 0.85337 0.93389 0.0
C1791 C 0.79437 0.85746 0.91728 0.0
C1792 C 0.10566 0.21799 0.20851 0.0
C1793 C 0.12335 0.22158 0.21779 0.0
C1794 C 0.08993 0.22907 0.21212 0.0
C1795 C 0.09125 0.24384 0.22543 0.0
H1796 H 0.10405 0.20666 0.19827 0.0
H1797 H 0.07652 0.22579 0.2048 0.0
S1798 S 0.13433 0.25888 0.2535 0.0
N1799 N 0.14131 0.24105 0.24065 0.0
N1800 N 0.11164 0.26151 0.24778 0.0
C1801 C 0.10883 0.24749 0.23483 0.0
C1802 C 0.1249 0.23646 0.23091 0.0
C1803 C 0.83289 0.10645 0.24062 0.0
C1804 C 0.82904 0.10957 0.22118 0.0
C1805 C 0.82552 0.09061 0.24978 0.0
C1806 C 0.81391 0.07732 0.2399 0.0
H1807 H 0.84158 0.11642 0.24888 0.0
H1808 H 0.82868 0.0889 0.26478 0.0
S1809 S 0.8007 0.07808 0.1886 0.0
N1810 N 0.81363 0.09745 0.19218 0.0
N1811 N 0.79968 0.06777 0.20944 0.0
C1812 C 0.81006 0.08015 0.22045 0.0
C1813 C 0.81762 0.09625 0.21109 0.0
C1814 C 0.94399 0.83195 0.20445 0.0
C1815 C 0.9383 0.85029 0.20893 0.0
C1816 C 0.95974 0.82377 0.21365 0.0
C1817 C 0.97051 0.83346 0.22791 0.0
H1818 H 0.93601 0.82364 0.19391 0.0
H1819 H 0.96352 0.8097 0.20944 0.0
S1820 S 0.96195 0.88207 0.24473 0.0
N1821 N 0.9452 0.87826 0.22811 0.0
N1822 N 0.97435 0.86253 0.24603 0.0
C1823 C 0.96512 0.85189 0.23247 0.0
C1824 C 0.94911 0.86034 0.22291 0.0
C1825 C 0.21105 0.94341 0.23617 0.0
C1826 C 0.20084 0.92733 0.24179 0.0
C1827 C 0.21695 0.95746 0.24922 0.0
C1828 C 0.21282 0.95609 0.26842 0.0
H1829 H 0.21442 0.94522 0.22153 0.0
H1830 H 0.22472 0.96959 0.24422 0.0
S1831 S 0.18762 0.91633 0.29071 0.0
N1832 N 0.18763 0.91051 0.26814 0.0
N1833 N 0.19857 0.93703 0.29254 0.0
C1834 C 0.20266 0.94012 0.27426 0.0
C1835 C 0.19672 0.92574 0.26099 0.0
C1836 C 0.09645 0.80678 0.78395 0.0
C1837 C 0.09637 0.81236 0.80307 0.0
C1838 C 0.08067 0.79747 0.77504 0.0
C1839 C 0.06435 0.79354 0.78499 0.0
H1840 H 0.10915 0.80862 0.77619 0.0
H1841 H 0.08175 0.79219 0.76079 0.0
S1842 S 0.05586 0.8081 0.83411 0.0
N1843 N 0.07764 0.81546 0.83069 0.0
N1844 N 0.04829 0.79791 0.81414 0.0
C1845 C 0.06366 0.80032 0.80359 0.0
C1846 C 0.07958 0.80975 0.81258 0.0
C1847 C 0.24733 0.10639 0.82378 0.0
C1848 C 0.22752 0.10726 0.82399 0.0
C1849 C 0.25629 0.09025 0.81753 0.0
C1850 C 0.24587 0.07433 0.81096 0.0
H1851 H 0.25605 0.11812 0.82905 0.0
H1852 H 0.27159 0.09004 0.81838 0.0
S1853 S 0.19374 0.06963 0.80722 0.0
N1854 N 0.19769 0.09098 0.8161 0.0
N1855 N 0.21473 0.06069 0.80393 0.0
C1856 C 0.22609 0.07529 0.80996 0.0
C1857 C 0.21686 0.09176 0.81656 0.0
C1858 C 0.95908 0.24144 0.82446 0.0
C1859 C 0.94444 0.23714 0.811 0.0
C1860 C 0.97587 0.25012 0.81922 0.0
C1861 C 0.97882 0.25479 0.80028 0.0
H1862 H 0.95733 0.23857 0.8393 0.0
H1863 H 0.98641 0.25379 0.83025 0.0
S1864 S 0.94542 0.24549 0.75937 0.0
N1865 N 0.93431 0.23731 0.77772 0.0
N1866 N 0.96612 0.25359 0.76782 0.0
C1867 C 0.96478 0.24964 0.78647 0.0
C1868 C 0.94753 0.24082 0.79185 0.0
C1869 C 0.81855 0.95876 0.79581 0.0
C1870 C 0.82519 0.94693 0.78176 0.0
C1871 C 0.80935 0.97556 0.79119 0.0
C1872 C 0.80638 0.98132 0.77228 0.0
H1873 H 0.81987 0.95463 0.81054 0.0
H1874 H 0.80397 0.9838 0.80258 0.0
S1875 S 0.82237 0.95603 0.73021 0.0
N1876 N 0.8293 0.94256 0.74822 0.0
N1877 N 0.81195 0.97437 0.7394 0.0
C1878 C 0.81392 0.97018 0.75808 0.0
C1879 C 0.82334 0.95292 0.76286 0.0
C1880 C 0.22977 0.08388 0.2648 0.0
C1881 C 0.23259 0.0841 0.24531 0.0
C1882 C 0.23527 0.06853 0.27606 0.0
C1883 C 0.24398 0.05271 0.26842 0.0
H1884 H 0.22318 0.09568 0.27148 0.0
H1885 H 0.23247 0.06903 0.29096 0.0
S1886 S 0.25482 0.04614 0.21823 0.0
N1887 N 0.24482 0.06704 0.21877 0.0
N1888 N 0.25549 0.03825 0.2402 0.0
C1889 C 0.24744 0.05286 0.24907 0.0
C1890 C 0.24166 0.06852 0.23747 0.0
C1891 C 0.24616 0.93477 0.84018 0.0
C1892 C 0.22667 0.93327 0.83528 0.0
C1893 C 0.25646 0.95146 0.83702 0.0
C1894 C 0.24777 0.9673 0.82867 0.0
H1895 H 0.25358 0.92288 0.84643 0.0
H1896 H 0.27142 0.95189 0.8409 0.0
S1897 S 0.19696 0.97135 0.81439 0.0
N1898 N 0.19896 0.94958 0.82249 0.0
N1899 N 0.21841 0.98079 0.81631 0.0
C1900 C 0.22832 0.96608 0.82375 0.0
C1901 C 0.21778 0.94913 0.82709 0.0
C1902 C 0.11014 0.259 0.83644 0.0
C1903 C 0.10913 0.23917 0.83508 0.0
C1904 C 0.09458 0.27014 0.8312 0.0
C1905 C 0.07747 0.26187 0.82435 0.0
H1906 H 0.12309 0.26598 0.84154 0.0
H1907 H 0.09603 0.28534 0.83224 0.0
S1908 S 0.06711 0.21061 0.81912 0.0
N1909 N 0.08939 0.21173 0.82707 0.0
N1910 N 0.06015 0.23269 0.81715 0.0
C1911 C 0.07624 0.24208 0.82296 0.0
C1912 C 0.09207 0.23073 0.82832 0.0
C1913 C 0.81188 0.10085 0.82536 0.0
C1914 C 0.81533 0.11635 0.81353 0.0
C1915 C 0.80284 0.0844 0.81828 0.0
C1916 C 0.79694 0.08281 0.7991 0.0
H1917 H 0.81638 0.10138 0.84019 0.0
H1918 H 0.80064 0.07274 0.82784 0.0
S1919 S 0.80103 0.12 0.76261 0.0
N1920 N 0.81113 0.12947 0.78193 0.0
N1921 N 0.79411 0.09858 0.76866 0.0
C1922 C 0.80006 0.09829 0.78717 0.0
C1923 C 0.80925 0.11504 0.79437 0.0
C1924 C 0.95108 0.80178 0.81832 0.0
C1925 C 0.93715 0.80698 0.80449 0.0
C1926 C 0.9658 0.78967 0.81402 0.0
C1927 C 0.96724 0.78234 0.7957 0.0
H1928 H 0.95073 0.80731 0.83256 0.0
H1929 H 0.97636 0.78631 0.825 0.0
S1930 S 0.93346 0.78993 0.7549 0.0
N1931 N 0.9251 0.80267 0.77205 0.0
N1932 N 0.95283 0.78011 0.76397 0.0
C1933 C 0.95326 0.78713 0.78184 0.0
C1934 C 0.93823 0.79939 0.78622 0.0
C1935 C 0.79358 0.94811 0.22676 0.0
C1936 C 0.79672 0.95126 0.20758 0.0
C1937 C 0.78535 0.96185 0.23774 0.0
C1938 C 0.77981 0.9793 0.23001 0.0
H1939 H 0.7982 0.93516 0.23354 0.0
H1940 H 0.78406 0.95907 0.25267 0.0
S1941 S 0.78347 0.99404 0.18014 0.0
N1942 N 0.7925 0.97266 0.18093 0.0
N1943 N 0.77682 0.99856 0.2017 0.0
C1944 C 0.78166 0.98223 0.21057 0.0
C1945 C 0.79018 0.96817 0.19932 0.0
C1946 C 0.09348 0.78685 0.20569 0.0
C1947 C 0.08924 0.80242 0.19402 0.0
C1948 C 0.07951 0.77814 0.21619 0.0
C1949 C 0.06076 0.78437 0.215 0.0
H1950 H 0.10795 0.78233 0.20788 0.0
H1951 H 0.08367 0.76728 0.22625 0.0
S1952 S 0.04194 0.82304 0.18476 0.0
N1953 N 0.06467 0.82263 0.1806 0.0
N1954 N 0.03832 0.80591 0.20006 0.0
C1955 C 0.05601 0.79885 0.2022 0.0
C1956 C 0.0703 0.80799 0.19178 0.0
C1957 C 0.96349 0.23186 0.23757 0.0
C1958 C 0.96207 0.2166 0.22486 0.0
C1959 C 0.98069 0.23659 0.24722 0.0
C1960 C 0.99727 0.2264 0.24435 0.0
H1961 H 0.95118 0.24022 0.24008 0.0
H1962 H 0.98109 0.24874 0.25651 0.0
S1963 S 1.00093 0.18495 0.21271 0.0
N1964 N 0.97857 0.19108 0.21015 0.0
N1965 N 0.01089 0.19998 0.22811 0.0
C1966 C 0.99592 0.2109 0.23188 0.0
C1967 C 0.97836 0.206 0.2222 0.0
C1968 C 0.22495 0.73901 0.59405 0.0
C1969 C 0.23042 0.72013 0.59635 0.0
C1970 C 0.2303 0.74969 0.57854 0.0
C1971 C 0.24155 0.74208 0.56464 0.0
H1972 H 0.2164 0.74568 0.60435 0.0
H1973 H 0.22549 0.76411 0.57745 0.0
S1974 S 0.25984 0.69338 0.56387 0.0
N1975 N 0.2478 0.69419 0.58325 0.0
N1976 N 0.25824 0.71457 0.55424 0.0
C1977 C 0.24759 0.72339 0.56691 0.0
C1978 C 0.24194 0.71236 0.5827 0.0
C1979 C 0.80728 0.73152 0.56106 0.0
C1980 C 0.81258 0.74011 0.57851 0.0
C1981 C 0.79803 0.74179 0.54642 0.0
C1982 C 0.79381 0.76094 0.54884 0.0
H1983 H 0.81087 0.71697 0.5585 0.0
H1984 H 0.79493 0.73495 0.53293 0.0
S1985 S 0.80184 0.78897 0.59286 0.0
N1986 N 0.81085 0.76815 0.59804 0.0
N1987 N 0.79365 0.78741 0.5707 0.0
C1988 C 0.79809 0.76931 0.56658 0.0
C1989 C 0.80743 0.75891 0.58137 0.0
C1990 C 0.80985 0.31792 0.58759 0.0
C1991 C 0.82854 0.32426 0.59173 0.0
C1992 C 0.80517 0.30682 0.57151 0.0
C1993 C 0.81898 0.3015 0.55896 0.0
H1994 H 0.79882 0.3212 0.59708 0.0
H1995 H 0.79068 0.30203 0.56908 0.0
S1996 S 0.86947 0.31612 0.56205 0.0
N1997 N 0.8606 0.32561 0.58091 0.0
N1998 N 0.85179 0.3046 0.55099 0.0
C1999 C 0.83759 0.30809 0.56265 0.0
C2000 C 0.84235 0.31949 0.57892 0.0
C2001 C 0.235 0.35451 0.6074 0.0
C2002 C 0.23155 0.34346 0.62342 0.0
C2003 C 0.24629 0.34782 0.59315 0.0
C2004 C 0.25453 0.32989 0.59446 0.0
H2005 H 0.2286 0.36823 0.60571 0.0
H2006 H 0.24819 0.35649 0.58079 0.0
S2007 S 0.25195 0.29671 0.63481 0.0
N2008 N 0.23865 0.31455 0.64057 0.0
N2009 N 0.25995 0.30208 0.61394 0.0
C2010 C 0.25176 0.31907 0.61077 0.0
C2011 C 0.24025 0.32583 0.6252 0.0
C2012 C 0.2192 0.29706 0.47944 0.0
C2013 C 0.22828 0.29851 0.4622 0.0
C2014 C 0.22932 0.29201 0.49624 0.0
C2015 C 0.24873 0.28827 0.49619 0.0
H2016 H 0.20455 0.301 0.48015 0.0
H2017 H 0.22227 0.29238 0.50947 0.0
S2018 S 0.27814 0.28694 0.45436 0.0
N2019 N 0.25708 0.29324 0.44582 0.0
N2020 N 0.27606 0.2842 0.47731 0.0
C2021 C 0.25751 0.28827 0.47885 0.0
C2022 C 0.24728 0.29326 0.46185 0.0
C2023 C 0.21365 0.71116 0.44949 0.0
C2024 C 0.20606 0.71812 0.43221 0.0
C2025 C 0.21956 0.72351 0.46424 0.0
C2026 C 0.2181 0.74325 0.46223 0.0
H2027 H 0.21453 0.69607 0.45178 0.0
H2028 H 0.22493 0.71756 0.47747 0.0
S2029 S 0.20147 0.76848 0.41879 0.0
N2030 N 0.19883 0.74591 0.41334 0.0
N2031 N 0.21017 0.76906 0.44082 0.0
C2032 C 0.21118 0.75032 0.44473 0.0
C2033 C 0.20513 0.73778 0.42979 0.0
C2034 C 0.81085 0.746 0.42257 0.0
C2035 C 0.82699 0.75174 0.41315 0.0
C2036 C 0.80491 0.75581 0.43833 0.0
C2037 C 0.81467 0.77202 0.44537 0.0
H2038 H 0.80258 0.73382 0.41767 0.0
H2039 H 0.79265 0.75037 0.44517 0.0
S2040 S 0.85786 0.79312 0.42578 0.0
N2041 N 0.85301 0.77448 0.41233 0.0
N2042 N 0.84117 0.79361 0.44123 0.0
C2043 C 0.83077 0.77806 0.43598 0.0
C2044 C 0.83703 0.76783 0.42005 0.0
C2045 C 0.80135 0.32138 0.42744 0.0
C2046 C 0.82076 0.32628 0.42817 0.0
C2047 C 0.79286 0.31299 0.44305 0.0
C2048 C 0.80352 0.30933 0.45986 0.0
H2049 H 0.79292 0.32315 0.41442 0.0
H2050 H 0.77827 0.30825 0.44151 0.0
S2051 S 0.85384 0.32232 0.47011 0.0
N2052 N 0.84958 0.32904 0.44802 0.0
N2053 N 0.83379 0.3131 0.47704 0.0
C2054 C 0.82252 0.31534 0.46115 0.0
C2055 C 0.8311 0.32386 0.4454 0.0
C2056 C 0.10435 0.716 0.71709 0.0
C2057 C 0.115 0.70057 0.72383 0.0
C2058 C 0.08795 0.7216 0.72582 0.0
C2059 C 0.08144 0.71219 0.74185 0.0
H2060 H 0.1088 0.72401 0.70503 0.0
H2061 H 0.08025 0.73337 0.71973 0.0
S2062 S 0.10412 0.67074 0.76518 0.0
N2063 N 0.11737 0.67546 0.74721 0.0
N2064 N 0.08743 0.68675 0.76434 0.0
C2065 C 0.09202 0.69677 0.74884 0.0
C2066 C 0.10856 0.69084 0.73971 0.0
C2067 C 0.79743 0.60324 0.6821 0.0
C2068 C 0.80907 0.61438 0.69455 0.0
C2069 C 0.78615 0.58843 0.68875 0.0
C2070 C 0.78623 0.58401 0.70807 0.0
H2071 H 0.79701 0.60599 0.66705 0.0
H2072 H 0.77738 0.58028 0.67872 0.0
S2073 S 0.813 0.60946 0.74675 0.0
N2074 N 0.8191 0.6204 0.72734 0.0
N2075 N 0.7982 0.59238 0.7397 0.0
C2076 C 0.79776 0.59495 0.72069 0.0
C2077 C 0.80911 0.61015 0.71396 0.0
C2078 C 0.94673 0.33014 0.72858 0.0
C2079 C 0.93675 0.34639 0.73309 0.0
C2080 C 0.96282 0.32473 0.73934 0.0
C2081 C 0.9696 0.33526 0.7552 0.0
H2082 H 0.94192 0.32128 0.71679 0.0
H2083 H 0.97004 0.3122 0.73507 0.0
S2084 S 0.94891 0.3794 0.77271 0.0
N2085 N 0.93533 0.37356 0.75398 0.0
N2086 N 0.96499 0.36283 0.77481 0.0
C2087 C 0.95985 0.35167 0.7598 0.0
C2088 C 0.94356 0.35732 0.74865 0.0
C2089 C 0.24034 0.4355 0.76833 0.0
C2090 C 0.22486 0.44318 0.75803 0.0
C2091 C 0.25525 0.44707 0.77542 0.0
C2092 C 0.25499 0.46674 0.77287 0.0
H2093 H 0.24164 0.42034 0.76968 0.0
H2094 H 0.26758 0.44046 0.78203 0.0
S2095 S 0.21663 0.49397 0.74886 0.0
N2096 N 0.20937 0.47175 0.74698 0.0
N2097 N 0.23724 0.49357 0.76077 0.0
C2098 C 0.2389 0.47475 0.76395 0.0
C2099 C 0.22387 0.46292 0.75637 0.0
C2100 C 0.10378 0.28764 0.31682 0.0
C2101 C 0.10296 0.29644 0.33455 0.0
C2102 C 0.08755 0.27963 0.30769 0.0
C2103 C 0.06978 0.28039 0.31578 0.0
H2104 H 0.11705 0.2871 0.30988 0.0
H2105 H 0.08886 0.2735 0.29381 0.0
S2106 S 0.06027 0.3013 0.36237 0.0
N2107 N 0.08314 0.30489 0.36019 0.0
N2108 N 0.05262 0.29006 0.343 0.0
C2109 C 0.06891 0.28874 0.33375 0.0
C2110 C 0.08548 0.2967 0.34313 0.0
C2111 C 0.20577 0.57193 0.30443 0.0
C2112 C 0.21453 0.58962 0.30837 0.0
C2113 C 0.21622 0.55649 0.29817 0.0
C2114 C 0.23572 0.55833 0.29566 0.0
H2115 H 0.19099 0.56973 0.30716 0.0
H2116 H 0.20927 0.54284 0.29647 0.0
S2117 S 0.26461 0.60226 0.30097 0.0
N2118 N 0.24331 0.60849 0.30683 0.0
N2119 N 0.26287 0.57961 0.29559 0.0
C2120 C 0.24427 0.57622 0.29832 0.0
C2121 C 0.23371 0.59183 0.30453 0.0
C2122 C 0.93185 0.75516 0.27594 0.0
C2123 C 0.93133 0.7357 0.27985 0.0
C2124 C 0.94785 0.76378 0.26872 0.0
C2125 C 0.96385 0.75328 0.26481 0.0
H2126 H 0.92007 0.76396 0.27922 0.0
H2127 H 0.948 0.77898 0.26694 0.0
S2128 S 0.9694 0.70177 0.27115 0.0
N2129 N 0.948 0.70598 0.27829 0.0
N2130 N 0.97797 0.72232 0.26424 0.0
C2131 C 0.96316 0.73366 0.2674 0.0
C2132 C 0.94689 0.72482 0.27502 0.0
C2133 C 0.84046 0.44545 0.27977 0.0
C2134 C 0.83846 0.44491 0.29944 0.0
C2135 C 0.83541 0.46142 0.26914 0.0
C2136 C 0.82809 0.4774 0.27778 0.0
H2137 H 0.84591 0.43338 0.2725 0.0
H2138 H 0.83696 0.46119 0.25401 0.0
S2139 S 0.82125 0.48369 0.32895 0.0
N2140 N 0.82945 0.46209 0.32723 0.0
N2141 N 0.81984 0.49209 0.3072 0.0
C2142 C 0.8261 0.47711 0.29742 0.0
C2143 C 0.83129 0.46087 0.30827 0.0
C2144 C 0.2626 0.58419 0.70601 0.0
C2145 C 0.25224 0.5954 0.71812 0.0
C2146 C 0.272 0.56802 0.71264 0.0
C2147 C 0.27149 0.56237 0.73166 0.0
H2148 H 0.2631 0.58768 0.69116 0.0
H2149 H 0.27968 0.55981 0.70275 0.0
S2150 S 0.24673 0.58723 0.76932 0.0
N2151 N 0.24275 0.60022 0.75026 0.0
N2152 N 0.25957 0.56945 0.76255 0.0
C2153 C 0.26136 0.57362 0.744 0.0
C2154 C 0.25193 0.59018 0.73726 0.0
C2155 C 0.23329 0.43958 0.35394 0.0
C2156 C 0.22979 0.4238 0.3421 0.0
C2157 C 0.24249 0.45589 0.34747 0.0
C2158 C 0.24857 0.4571 0.32888 0.0
H2159 H 0.22869 0.4394 0.36831 0.0
H2160 H 0.24462 0.46775 0.357 0.0
S2161 S 0.24462 0.41905 0.29282 0.0
N2162 N 0.23427 0.41004 0.31124 0.0
N2163 N 0.2516 0.44057 0.29914 0.0
C2164 C 0.24547 0.44131 0.317 0.0
C2165 C 0.23608 0.42472 0.32358 0.0
C2166 C 0.09082 0.73541 0.31646 0.0
C2167 C 0.08918 0.716 0.31235 0.0
C2168 C 0.07724 0.74817 0.30959 0.0
C2169 C 0.06144 0.74206 0.29834 0.0
H2170 H 0.10279 0.7408 0.32501 0.0
H2171 H 0.0793 0.76299 0.3129 0.0
S2172 S 0.04996 0.69248 0.28454 0.0
N2173 N 0.07026 0.69114 0.29688 0.0
N2174 N 0.04452 0.71507 0.28413 0.0
C2175 C 0.05955 0.72263 0.29422 0.0
C2176 C 0.07348 0.70963 0.30116 0.0
C2177 C 0.79867 0.60634 0.29877 0.0
C2178 C 0.81602 0.60806 0.30921 0.0
C2179 C 0.79312 0.58917 0.29 0.0
C2180 C 0.80483 0.57332 0.29142 0.0
H2181 H 0.78997 0.61863 0.29632 0.0
H2182 H 0.78038 0.58875 0.28092 0.0
S2183 S 0.84988 0.56974 0.31993 0.0
N2184 N 0.84347 0.59186 0.32259 0.0
N2185 N 0.83319 0.55975 0.30607 0.0
C2186 C 0.82138 0.57451 0.30312 0.0
C2187 C 0.82695 0.59186 0.31202 0.0
C2188 C 0.96377 0.31161 0.31563 0.0
C2189 C 0.95201 0.326 0.30844 0.0
C2190 C 0.97924 0.30547 0.30567 0.0
C2191 C 0.98357 0.31351 0.28818 0.0
H2192 H 0.96124 0.3053 0.32922 0.0
H2193 H 0.98811 0.2946 0.3119 0.0
S2194 S 0.95604 0.35011 0.26222 0.0
N2195 N 0.94494 0.34705 0.28198 0.0
N2196 N 0.97409 0.33563 0.26351 0.0
C2197 C 0.9717 0.32759 0.28065 0.0
C2198 C 0.95591 0.33377 0.2907 0.0
C2199 C 0.79742 0.44571 0.74068 0.0
C2200 C 0.80775 0.44847 0.72439 0.0
C2201 C 0.79128 0.46099 0.75125 0.0
C2202 C 0.79513 0.4798 0.74603 0.0
H2203 H 0.79389 0.43156 0.74525 0.0
H2204 H 0.78308 0.45792 0.76342 0.0
S2205 S 0.82249 0.49476 0.70502 0.0
N2206 N 0.82223 0.47147 0.70394 0.0
N2207 N 0.81045 0.50025 0.72359 0.0
C2208 C 0.80561 0.48279 0.72984 0.0
C2209 C 0.81191 0.46716 0.71907 0.0
C2210 C 0.08332 0.31723 0.72248 0.0
C2211 C 0.10127 0.31497 0.73156 0.0
C2212 C 0.06694 0.31014 0.73061 0.0
C2213 C 0.06811 0.30037 0.74786 0.0
H2214 H 0.0818 0.32575 0.70983 0.0
H2215 H 0.05326 0.31365 0.72419 0.0
S2216 S 0.1118 0.28823 0.7757 0.0
N2217 N 0.11931 0.30034 0.75752 0.0
N2218 N 0.08856 0.28711 0.77272 0.0
C2219 C 0.08603 0.29667 0.75617 0.0
C2220 C 0.10263 0.30394 0.74803 0.0
C2221 C 0.96212 0.71395 0.7031 0.0
C2222 C 0.94849 0.72744 0.69787 0.0
C2223 C 0.97889 0.71905 0.71322 0.0
C2224 C 0.98292 0.73789 0.71849 0.0
H2225 H 0.95956 0.69917 0.69984 0.0
H2226 H 0.98847 0.70794 0.71764 0.0
S2227 S 0.95264 0.77895 0.70726 0.0
N2228 N 0.94067 0.76078 0.69791 0.0
N2229 N 0.97239 0.77032 0.71685 0.0
C2230 C 0.97001 0.75175 0.71245 0.0
C2231 C 0.95276 0.74654 0.70216 0.0
C2232 C 0.74427 0.251 0.57638 0.0
C2233 C 0.72797 0.23956 0.57376 0.0
C2234 C 0.75202 0.26056 0.56118 0.0
C2235 C 0.74378 0.25906 0.54277 0.0
H2236 H 0.75171 0.25169 0.59009 0.0
H2237 H 0.76545 0.26791 0.56356 0.0
S2238 S 0.70021 0.23219 0.52858 0.0
N2239 N 0.70302 0.22847 0.55156 0.0
N2240 N 0.71784 0.24631 0.52294 0.0
C2241 C 0.72677 0.24882 0.54017 0.0
C2242 C 0.71878 0.2391 0.55569 0.0
C2243 C 0.30816 0.22298 0.60975 0.0
C2244 C 0.31422 0.23191 0.6268 0.0
C2245 C 0.29971 0.23337 0.59471 0.0
C2246 C 0.29718 0.25294 0.59636 0.0
H2247 H 0.31097 0.20817 0.60762 0.0
H2248 H 0.29636 0.22632 0.58138 0.0
S2249 S 0.30747 0.2821 0.63921 0.0
N2250 N 0.31463 0.26079 0.64529 0.0
N2251 N 0.29913 0.28027 0.61712 0.0
C2252 C 0.30185 0.26162 0.61383 0.0
C2253 C 0.31029 0.25111 0.62904 0.0
C2254 C 0.29099 0.82072 0.60474 0.0
C2255 C 0.2999 0.83858 0.60461 0.0
C2256 C 0.28132 0.81347 0.58848 0.0
C2257 C 0.28025 0.82376 0.57146 0.0
H2258 H 0.29124 0.81242 0.61758 0.0
H2259 H 0.27444 0.79977 0.5893 0.0
S2260 S 0.30294 0.87044 0.56333 0.0
N2261 N 0.30803 0.86592 0.58584 0.0
N2262 N 0.29021 0.85222 0.55524 0.0
C2263 C 0.28946 0.84149 0.57108 0.0
C2264 C 0.2992 0.8489 0.58766 0.0
C2265 C 0.72378 0.81734 0.58186 0.0
C2266 C 0.71593 0.83519 0.58456 0.0
C2267 C 0.73433 0.81361 0.56605 0.0
C2268 C 0.73738 0.82756 0.5523 0.0
H2269 H 0.7222 0.80635 0.59232 0.0
H2270 H 0.74052 0.79982 0.56481 0.0
S2271 S 0.71809 0.87592 0.55179 0.0
N2272 N 0.71078 0.86653 0.57153 0.0
N2273 N 0.73048 0.85944 0.54177 0.0
C2274 C 0.72915 0.84528 0.55458 0.0
C2275 C 0.71844 0.8491 0.57068 0.0
C2276 C 0.72592 0.79313 0.42201 0.0
C2277 C 0.70872 0.8028 0.42242 0.0
C2278 C 0.73593 0.78808 0.43879 0.0
C2279 C 0.7291 0.79258 0.4565 0.0
H2280 H 0.73221 0.79048 0.40865 0.0
H2281 H 0.74981 0.78203 0.43787 0.0
S2282 S 0.6843 0.81649 0.46536 0.0
N2283 N 0.68472 0.81542 0.44209 0.0
N2284 N 0.70376 0.80617 0.47356 0.0
C2285 C 0.71142 0.80111 0.45712 0.0
C2286 C 0.70113 0.80612 0.44007 0.0
C2287 C 0.7243 0.23573 0.42138 0.0
C2288 C 0.72874 0.21991 0.41049 0.0
C2289 C 0.73536 0.24099 0.43761 0.0
C2290 C 0.75145 0.23075 0.44374 0.0
H2291 H 0.71232 0.24434 0.4172 0.0
H2292 H 0.7311 0.25318 0.44547 0.0
S2293 S 0.76893 0.18774 0.42057 0.0
N2294 N 0.74989 0.19344 0.40763 0.0
N2295 N 0.77119 0.20391 0.43732 0.0
C2296 C 0.75598 0.21481 0.43303 0.0
C2297 C 0.74456 0.2093 0.41664 0.0
C2298 C 0.31582 0.23684 0.46691 0.0
C2299 C 0.33472 0.23244 0.46402 0.0
C2300 C 0.31099 0.24774 0.48239 0.0
C2301 C 0.32485 0.2547 0.49562 0.0
H2302 H 0.30467 0.23209 0.45695 0.0
H2303 H 0.29625 0.25091 0.48385 0.0
S2304 S 0.37628 0.24592 0.4952 0.0
N2305 N 0.36734 0.23508 0.47608 0.0
N2306 N 0.35822 0.25554 0.50528 0.0
C2307 C 0.34381 0.25022 0.49302 0.0
C2308 C 0.34874 0.2391 0.47721 0.0
C2309 C 0.31216 0.77551 0.44456 0.0
C2310 C 0.31866 0.79429 0.44668 0.0
C2311 C 0.30387 0.76586 0.45943 0.0
C2312 C 0.30178 0.77455 0.47709 0.0
H2313 H 0.31288 0.76841 0.43108 0.0
H2314 H 0.29845 0.75168 0.45677 0.0
S2315 S 0.31875 0.82285 0.49055 0.0
N2316 N 0.32408 0.82067 0.46824 0.0
N2317 N 0.30854 0.80268 0.49621 0.0
C2318 C 0.30913 0.79305 0.47965 0.0
C2319 C 0.31749 0.80289 0.46445 0.0
C2320 C 0.6299 0.18834 0.72545 0.0
C2321 C 0.62599 0.19173 0.70607 0.0
C2322 C 0.6167 0.19248 0.73893 0.0
C2323 C 0.59912 0.20023 0.73355 0.0
H2324 H 0.64345 0.18279 0.73028 0.0
H2325 H 0.62046 0.19009 0.75372 0.0
S2326 S 0.58109 0.20974 0.6845 0.0
N2327 N 0.60268 0.20191 0.6821 0.0
N2328 N 0.57787 0.20969 0.70743 0.0
C2329 C 0.5948 0.20318 0.71419 0.0
C2330 C 0.60824 0.19895 0.70047 0.0
C2331 C 0.34848 0.09579 0.75882 0.0
C2332 C 0.33749 0.11186 0.75487 0.0
C2333 C 0.34153 0.08071 0.76946 0.0
C2334 C 0.32331 0.08109 0.77647 0.0
H2335 H 0.36239 0.09467 0.75326 0.0
H2336 H 0.35023 0.0684 0.77173 0.0
S2337 S 0.28984 0.12075 0.77223 0.0
N2338 N 0.30813 0.12787 0.76036 0.0
N2339 N 0.29509 0.09947 0.78018 0.0
C2340 C 0.31245 0.0973 0.77319 0.0
C2341 C 0.31952 0.11267 0.76243 0.0
C2342 C 0.44443 0.83074 0.72089 0.0
C2343 C 0.43049 0.83861 0.73192 0.0
C2344 C 0.46125 0.82359 0.72924 0.0
C2345 C 0.46489 0.82416 0.74894 0.0
H2346 H 0.44247 0.83035 0.70564 0.0
H2347 H 0.47165 0.81785 0.72021 0.0
S2348 S 0.43225 0.8413 0.78433 0.0
N2349 N 0.42096 0.84508 0.76378 0.0
N2350 N 0.45262 0.83194 0.77934 0.0
C2351 C 0.45097 0.83163 0.76016 0.0
C2352 C 0.43379 0.83877 0.75169 0.0
C2353 C 0.70302 0.94647 0.73483 0.0
C2354 C 0.70563 0.94221 0.71571 0.0
C2355 C 0.71063 0.96309 0.74313 0.0
C2356 C 0.72124 0.97592 0.73265 0.0
H2357 H 0.69545 0.93667 0.74356 0.0
H2358 H 0.70869 0.96569 0.75797 0.0
S2359 S 0.73005 0.97276 0.68165 0.0
N2360 N 0.71795 0.9533 0.68613 0.0
N2361 N 0.73258 0.98419 0.70194 0.0
C2362 C 0.72342 0.97218 0.71345 0.0
C2363 C 0.71554 0.95542 0.70493 0.0
C2364 C 0.5663 0.82723 0.3041 0.0
C2365 C 0.5833 0.82509 0.29495 0.0
C2366 C 0.54926 0.81954 0.29645 0.0
C2367 C 0.54855 0.8091 0.27947 0.0
H2368 H 0.56628 0.8345 0.31755 0.0
H2369 H 0.53674 0.82106 0.30448 0.0
S2370 S 0.58913 0.80059 0.24941 0.0
N2371 N 0.59833 0.81286 0.26751 0.0
N2372 N 0.5664 0.79818 0.25313 0.0
C2373 C 0.56537 0.80764 0.26974 0.0
C2374 C 0.58271 0.81567 0.27748 0.0
C2375 C 0.73437 0.10841 0.28083 0.0
C2376 C 0.71478 0.10774 0.28315 0.0
C2377 C 0.74409 0.09242 0.27543 0.0
C2378 C 0.73462 0.07512 0.27185 0.0
H2379 H 0.74242 0.12124 0.284 0.0
H2380 H 0.75933 0.09339 0.27482 0.0
S2381 S 0.68321 0.06611 0.27423 0.0
N2382 N 0.68602 0.08855 0.28024 0.0
N2383 N 0.70444 0.05846 0.26968 0.0
C2384 C 0.71489 0.07448 0.27278 0.0
C2385 C 0.70492 0.09081 0.27851 0.0
C2386 C 0.42615 0.24277 0.31823 0.0
C2387 C 0.42843 0.22933 0.33275 0.0
C2388 C 0.4414 0.25407 0.3128 0.0
C2389 C 0.45936 0.25266 0.322 0.0
H2390 H 0.41245 0.2446 0.31107 0.0
H2391 H 0.43909 0.26424 0.30156 0.0
S2392 S 0.47278 0.21952 0.36066 0.0
N2393 N 0.45009 0.21507 0.35602 0.0
N2394 N 0.47868 0.23643 0.34593 0.0
C2395 C 0.46185 0.23922 0.33645 0.0
C2396 C 0.44641 0.22751 0.34177 0.0
C2397 C 0.29252 0.92753 0.33345 0.0
C2398 C 0.31201 0.92666 0.33081 0.0
C2399 C 0.28199 0.94316 0.32754 0.0
C2400 C 0.29036 0.95869 0.31857 0.0
H2401 H 0.28528 0.91605 0.34032 0.0
H2402 H 0.26708 0.9431 0.33027 0.0
S2403 S 0.34081 0.96331 0.30754 0.0
N2404 N 0.33929 0.94258 0.31809 0.0
N2405 N 0.31927 0.97197 0.3067 0.0
C2406 C 0.3097 0.95781 0.31513 0.0
C2407 C 0.32056 0.94181 0.32131 0.0
C2408 C 0.76132 0.10475 0.7037 0.0
C2409 C 0.75474 0.09895 0.68555 0.0
C2410 C 0.76633 0.09152 0.7177 0.0
C2411 C 0.76538 0.07202 0.71396 0.0
H2412 H 0.76138 0.11956 0.7075 0.0
H2413 H 0.77022 0.09658 0.73181 0.0
S2414 S 0.75089 0.04958 0.66821 0.0
N2415 N 0.74874 0.07245 0.6642 0.0
N2416 N 0.75872 0.04758 0.69046 0.0
C2417 C 0.7601 0.06605 0.69554 0.0
C2418 C 0.7546 0.07952 0.68135 0.0
C2419 C 0.7109 0.95298 0.3069 0.0
C2420 C 0.72049 0.93809 0.31618 0.0
C2421 C 0.72046 0.96959 0.30185 0.0
C2422 C 0.73992 0.97208 0.30609 0.0
H2423 H 0.69584 0.95188 0.30366 0.0
H2424 H 0.71256 0.98069 0.29475 0.0
S2425 S 0.77198 0.93695 0.32859 0.0
N2426 N 0.75096 0.92656 0.32815 0.0
N2427 N 0.76868 0.95799 0.31908 0.0
C2428 C 0.74973 0.95733 0.31518 0.0
C2429 C 0.74008 0.94031 0.32012 0.0
C2430 C 0.5736 0.23041 0.29795 0.0
C2431 C 0.58985 0.22873 0.28749 0.0
C2432 C 0.55711 0.23866 0.29012 0.0
C2433 C 0.55617 0.2458 0.27149 0.0
H2434 H 0.57363 0.2253 0.31237 0.0
H2435 H 0.54515 0.23981 0.29898 0.0
S2436 S 0.59509 0.24493 0.23818 0.0
N2437 N 0.60406 0.23483 0.25753 0.0
N2438 N 0.57321 0.25037 0.24277 0.0
C2439 C 0.5723 0.24394 0.26078 0.0
C2440 C 0.58907 0.23543 0.26877 0.0
C2441 C 0.31389 0.08086 0.34649 0.0
C2442 C 0.30539 0.0958 0.35588 0.0
C2443 C 0.30367 0.06432 0.34146 0.0
C2444 C 0.28456 0.06198 0.34566 0.0
H2445 H 0.32862 0.08186 0.34315 0.0
H2446 H 0.31083 0.05318 0.33432 0.0
S2447 S 0.25521 0.09743 0.36859 0.0
N2448 N 0.27632 0.10755 0.36818 0.0
N2449 N 0.25727 0.07642 0.35886 0.0
C2450 C 0.27583 0.07683 0.3549 0.0
C2451 C 0.28619 0.09373 0.35995 0.0
C2452 C 0.43905 0.80006 0.3079 0.0
C2453 C 0.43141 0.79483 0.32513 0.0
C2454 C 0.45511 0.79126 0.30142 0.0
C2455 C 0.46424 0.77687 0.31191 0.0
H2456 H 0.43252 0.81101 0.29927 0.0
H2457 H 0.46061 0.79608 0.28825 0.0
S2458 S 0.44985 0.75776 0.35788 0.0
N2459 N 0.43441 0.77442 0.35272 0.0
N2460 N 0.46412 0.75743 0.34013 0.0
C2461 C 0.45666 0.77136 0.32907 0.0
C2462 C 0.44037 0.7804 0.33575 0.0
C2463 C 0.31808 0.97353 0.73687 0.0
C2464 C 0.30567 0.95877 0.73103 0.0
C2465 C 0.31198 0.9885 0.7478 0.0
C2466 C 0.29318 0.98948 0.75316 0.0
H2467 H 0.33284 0.97314 0.7336 0.0
H2468 H 0.32232 0.99898 0.75286 0.0
S2469 S 0.25468 0.95522 0.74055 0.0
N2470 N 0.27335 0.94661 0.7306 0.0
N2471 N 0.26188 0.97508 0.751 0.0
C2472 C 0.28028 0.97554 0.74644 0.0
C2473 C 0.28653 0.9601 0.73539 0.0
C2474 C 0.57183 0.82092 0.70425 0.0
C2475 C 0.58802 0.81001 0.70215 0.0
C2476 C 0.55672 0.81422 0.71449 0.0
C2477 C 0.55703 0.79624 0.72287 0.0
H2478 H 0.57128 0.8352 0.6988 0.0
H2479 H 0.54513 0.82363 0.71679 0.0
S2480 S 0.59525 0.76139 0.72021 0.0
N2481 N 0.60287 0.77975 0.70819 0.0
N2482 N 0.57419 0.76706 0.7273 0.0
C2483 C 0.57242 0.78457 0.7197 0.0
C2484 C 0.58798 0.79148 0.70935 0.0
C2485 C 0.47296 0.23636 0.72553 0.0
C2486 C 0.46855 0.21964 0.7154 0.0
C2487 C 0.4916 0.24043 0.73226 0.0
C2488 C 0.50632 0.22788 0.72903 0.0
H2489 H 0.46179 0.24569 0.72934 0.0
H2490 H 0.49419 0.25267 0.74123 0.0
S2491 S 0.5026 0.18416 0.70019 0.0
N2492 N 0.48077 0.19197 0.70019 0.0
N2493 N 0.51564 0.19952 0.7128 0.0
C2494 C 0.50228 0.21203 0.71751 0.0
C2495 C 0.48342 0.20792 0.71072 0.0
C2496 C 0.72306 0.75857 0.08131 0.0
C2497 C 0.70456 0.75127 0.08209 0.0
C2498 C 0.72871 0.76895 0.0657 0.0
C2499 C 0.7161 0.77248 0.0502 0.0
H2500 H 0.73334 0.75611 0.09283 0.0
H2501 H 0.74314 0.77415 0.06572 0.0
S2502 S 0.66609 0.75641 0.04517 0.0
N2503 N 0.67357 0.74834 0.06604 0.0
N2504 N 0.68424 0.76791 0.03662 0.0
C2505 C 0.69743 0.76565 0.05095 0.0
C2506 C 0.69165 0.75503 0.0669 0.0
C2507 C 0.32014 0.71646 0.07822 0.0
C2508 C 0.30755 0.71319 0.09266 0.0
C2509 C 0.3145 0.726 0.06165 0.0
C2510 C 0.29596 0.73254 0.05866 0.0
H2511 H 0.33477 0.71234 0.0801 0.0
H2512 H 0.32502 0.729 0.05141 0.0
S2513 S 0.25703 0.72631 0.09131 0.0
N2514 N 0.27529 0.71621 0.10236 0.0
N2515 N 0.26461 0.73401 0.07095 0.0
C2516 C 0.28282 0.72828 0.07235 0.0
C2517 C 0.28863 0.71862 0.08941 0.0
C2518 C 0.29955 0.3061 0.09684 0.0
C2519 C 0.30822 0.32406 0.09692 0.0
C2520 C 0.29422 0.29693 0.07985 0.0
C2521 C 0.29769 0.30522 0.06223 0.0
H2522 H 0.29746 0.29881 0.11003 0.0
H2523 H 0.28836 0.28276 0.08062 0.0
S2524 S 0.31833 0.35298 0.05492 0.0
N2525 N 0.31862 0.35054 0.07811 0.0
N2526 N 0.30884 0.33326 0.04607 0.0
C2527 C 0.30536 0.32368 0.06217 0.0
C2528 C 0.31058 0.3331 0.07954 0.0
C2529 C 0.70884 0.30695 0.10869 0.0
C2530 C 0.71086 0.32666 0.11071 0.0
C2531 C 0.71593 0.29747 0.0932 0.0
C2532 C 0.72543 0.30726 0.07911 0.0
H2533 H 0.70196 0.29871 0.11933 0.0
H2534 H 0.71418 0.28228 0.09236 0.0
S2535 S 0.73317 0.35904 0.07678 0.0
N2536 N 0.72212 0.35576 0.09655 0.0
N2537 N 0.73566 0.33783 0.06764 0.0
C2538 C 0.72743 0.32695 0.08081 0.0
C2539 C 0.72009 0.33666 0.09653 0.0
C2540 C 0.72967 0.32063 0.95575 0.0
C2541 C 0.73982 0.33071 0.94225 0.0
C2542 C 0.73854 0.31393 0.97258 0.0
C2543 C 0.75795 0.31711 0.97679 0.0
H2544 H 0.71467 0.31795 0.95333 0.0
H2545 H 0.73007 0.30626 0.98243 0.0
S2546 S 0.79128 0.34161 0.94574 0.0
N2547 N 0.77066 0.34264 0.93395 0.0
N2548 N 0.78719 0.3305 0.96564 0.0
C2549 C 0.76829 0.32715 0.96343 0.0
C2550 C 0.75928 0.33383 0.94621 0.0
C2551 C 0.74683 0.72894 0.94129 0.0
C2552 C 0.74756 0.73646 0.92292 0.0
C2553 C 0.75142 0.74018 0.95729 0.0
C2554 C 0.75694 0.75918 0.9553 0.0
H2555 H 0.74144 0.71474 0.94334 0.0
H2556 H 0.74934 0.73441 0.97121 0.0
S2557 S 0.76405 0.78457 0.91043 0.0
N2558 N 0.75662 0.76327 0.90379 0.0
N2559 N 0.76485 0.78438 0.93376 0.0
C2560 C 0.75909 0.76635 0.93706 0.0
C2561 C 0.75454 0.75497 0.92087 0.0
C2562 C 0.33134 0.72128 0.94709 0.0
C2563 C 0.33834 0.73125 0.93164 0.0
C2564 C 0.32449 0.73078 0.96271 0.0
C2565 C 0.32454 0.7506 0.96359 0.0
H2566 H 0.33129 0.70599 0.94721 0.0
H2567 H 0.31929 0.72256 0.9743 0.0
S2568 S 0.33971 0.78338 0.92626 0.0
N2569 N 0.34369 0.76217 0.91778 0.0
N2570 N 0.33114 0.7799 0.94727 0.0
C2571 C 0.33132 0.76076 0.94822 0.0
C2572 C 0.33814 0.75112 0.93224 0.0
C2573 C 0.36526 0.30288 0.96528 0.0
C2574 C 0.35561 0.30104 0.94757 0.0
C2575 C 0.35891 0.29338 0.98118 0.0
C2576 C 0.34277 0.28154 0.97993 0.0
H2577 H 0.37783 0.31174 0.96685 0.0
H2578 H 0.36662 0.29547 0.99459 0.0
S2579 S 0.31338 0.27096 0.93628 0.0
N2580 N 0.32959 0.2861 0.92942 0.0
N2581 N 0.31787 0.26782 0.95914 0.0
C2582 C 0.33311 0.27946 0.96218 0.0
C2583 C 0.33948 0.28932 0.94605 0.0
C2584 C 0.58823 0.71854 0.21105 0.0
C2585 C 0.60573 0.71306 0.21934 0.0
C2586 C 0.57297 0.7226 0.22217 0.0
C2587 C 0.57457 0.72126 0.24199 0.0
H2588 H 0.58627 0.71959 0.19583 0.0
H2589 H 0.55974 0.72674 0.21521 0.0
S2590 S 0.61766 0.70879 0.27073 0.0
N2591 N 0.62402 0.70736 0.24866 0.0
N2592 N 0.59524 0.71486 0.2695 0.0
C2593 C 0.59197 0.71584 0.25048 0.0
C2594 C 0.60757 0.71178 0.23917 0.0
C2595 C 0.33325 0.58596 0.23859 0.0
C2596 C 0.31998 0.59953 0.23242 0.0
C2597 C 0.3281 0.57066 0.24997 0.0
C2598 C 0.30946 0.56823 0.25562 0.0
H2599 H 0.34775 0.58711 0.2345 0.0
H2600 H 0.33876 0.56051 0.2542 0.0
S2601 S 0.26966 0.60055 0.24456 0.0
N2602 N 0.28759 0.61001 0.23368 0.0
N2603 N 0.2779 0.58128 0.25491 0.0
C2604 C 0.29608 0.58177 0.24967 0.0
C2605 C 0.30133 0.59738 0.23812 0.0
C2606 C 0.45184 0.31991 0.21057 0.0
C2607 C 0.43484 0.31721 0.21978 0.0
C2608 C 0.46875 0.31172 0.21747 0.0
C2609 C 0.46936 0.3002 0.2337 0.0
H2610 H 0.45217 0.32887 0.1982 0.0
H2611 H 0.48154 0.31476 0.21018 0.0
S2612 S 0.42829 0.28758 0.26217 0.0
N2613 N 0.4194 0.30147 0.24539 0.0
N2614 N 0.45098 0.2859 0.25829 0.0
C2615 C 0.45225 0.29683 0.24263 0.0
C2616 C 0.43509 0.3054 0.23573 0.0
C2617 C 0.721 0.47133 0.23049 0.0
C2618 C 0.72919 0.45339 0.22912 0.0
C2619 C 0.73221 0.48746 0.23488 0.0
C2620 C 0.75186 0.48604 0.23795 0.0
H2621 H 0.70604 0.47303 0.2272 0.0
H2622 H 0.72565 0.50118 0.23478 0.0
S2623 S 0.77956 0.44205 0.23931 0.0
N2624 N 0.7577 0.43498 0.23372 0.0
N2625 N 0.77868 0.4652 0.24163 0.0
C2626 C 0.75994 0.46807 0.2379 0.0
C2627 C 0.74862 0.45175 0.23357 0.0
C2628 C 0.61485 0.30108 0.79326 0.0
C2629 C 0.61689 0.30291 0.8131 0.0
C2630 C 0.60121 0.28876 0.78471 0.0
C2631 C 0.5893 0.27783 0.79576 0.0
H2632 H 0.62435 0.30864 0.78431 0.0
H2633 H 0.60066 0.28707 0.7695 0.0
S2634 S 0.5868 0.27952 0.84789 0.0
N2635 N 0.60409 0.29443 0.84324 0.0
N2636 N 0.57899 0.27095 0.82725 0.0
C2637 C 0.59051 0.28026 0.81546 0.0
C2638 C 0.60417 0.29288 0.82412 0.0
C2639 C 0.76126 0.6054 0.80311 0.0
C2640 C 0.74264 0.60343 0.80897 0.0
C2641 C 0.77031 0.59049 0.79434 0.0
C2642 C 0.76121 0.57287 0.7912 0.0
H2643 H 0.76871 0.61881 0.80477 0.0
H2644 H 0.7844 0.59302 0.78952 0.0
S2645 S 0.71296 0.55992 0.80569 0.0
N2646 N 0.71584 0.58217 0.81227 0.0
N2647 N 0.73274 0.55406 0.79594 0.0
C2648 C 0.74283 0.57047 0.79778 0.0
C2649 C 0.73357 0.58577 0.80656 0.0
C2650 C 0.44323 0.74279 0.79419 0.0
C2651 C 0.44512 0.7235 0.79843 0.0
C2652 C 0.45782 0.75308 0.7862 0.0
C2653 C 0.47487 0.74452 0.78191 0.0
H2654 H 0.43062 0.7502 0.79776 0.0
H2655 H 0.45608 0.76813 0.78416 0.0
S2656 S 0.48653 0.69415 0.78879 0.0
N2657 N 0.46504 0.69594 0.79663 0.0
N2658 N 0.49246 0.71543 0.78132 0.0
C2659 C 0.47656 0.72502 0.78485 0.0
C2660 C 0.46167 0.71447 0.79318 0.0
C2661 C 0.35403 0.43817 0.82622 0.0
C2662 C 0.35933 0.4219 0.81648 0.0
C2663 C 0.34681 0.45395 0.81647 0.0
C2664 C 0.34468 0.45409 0.79662 0.0
H2665 H 0.35565 0.43878 0.84149 0.0
H2666 H 0.34302 0.46622 0.82449 0.0
S2667 S 0.35465 0.41439 0.76462 0.0
N2668 N 0.36072 0.40648 0.78593 0.0
N2669 N 0.34726 0.43611 0.76768 0.0
C2670 C 0.34965 0.43783 0.78674 0.0
C2671 C 0.35694 0.42176 0.79665 0.0
C2672 C 0.74858 0.60417 0.17942 0.0
C2673 C 0.74663 0.62004 0.19108 0.0
C2674 C 0.75913 0.58859 0.18571 0.0
C2675 C 0.76811 0.58836 0.20386 0.0
H2676 H 0.74132 0.60351 0.16562 0.0
H2677 H 0.75963 0.57635 0.17661 0.0
S2678 S 0.76968 0.62758 0.23863 0.0
N2679 N 0.7561 0.63537 0.22079 0.0
N2680 N 0.77608 0.6062 0.23252 0.0
C2681 C 0.76706 0.60454 0.21523 0.0
C2682 C 0.75629 0.62035 0.20887 0.0
C2683 C 0.71358 0.45761 0.80347 0.0
C2684 C 0.71894 0.43924 0.79865 0.0
C2685 C 0.71629 0.4729 0.79116 0.0
C2686 C 0.72431 0.47032 0.77356 0.0
H2687 H 0.70686 0.4601 0.81664 0.0
H2688 H 0.71188 0.48681 0.79527 0.0
S2689 S 0.74323 0.42556 0.75558 0.0
N2690 N 0.73428 0.41972 0.77591 0.0
N2691 N 0.73941 0.44836 0.75291 0.0
C2692 C 0.73035 0.45215 0.76892 0.0
C2693 C 0.72765 0.43665 0.78143 0.0
C2694 C 0.60429 0.72733 0.7969 0.0
C2695 C 0.6167 0.73296 0.81204 0.0
C2696 C 0.5874 0.737 0.79263 0.0
C2697 C 0.58213 0.75267 0.80338 0.0
H2698 H 0.60774 0.71547 0.78812 0.0
H2699 H 0.57829 0.73197 0.78095 0.0
S2700 S 0.60959 0.77304 0.84467 0.0
N2701 N 0.62218 0.75497 0.83817 0.0
N2702 N 0.59107 0.77353 0.82966 0.0
C2703 C 0.59445 0.75844 0.81854 0.0
C2704 C 0.61154 0.74853 0.82297 0.0
C2705 C 0.34672 0.57626 0.82208 0.0
C2706 C 0.33354 0.59054 0.8247 0.0
C2707 C 0.3411 0.55859 0.81481 0.0
C2708 C 0.32203 0.55438 0.80992 0.0
H2709 H 0.36164 0.57894 0.8252 0.0
H2710 H 0.35191 0.54833 0.81243 0.0
S2711 S 0.28176 0.58657 0.81483 0.0
N2712 N 0.30042 0.5991 0.82253 0.0
N2713 N 0.28978 0.5657 0.80896 0.0
C2714 C 0.30852 0.56818 0.81334 0.0
C2715 C 0.3143 0.5863 0.8207 0.0
C2716 C 0.47368 0.26831 0.8364 0.0
C2717 C 0.46788 0.28485 0.82686 0.0
C2718 C 0.48819 0.25717 0.82981 0.0
C2719 C 0.49762 0.26213 0.81347 0.0
H2720 H 0.46708 0.26399 0.84921 0.0
H2721 H 0.49199 0.2445 0.83753 0.0
S2722 S 0.48813 0.30441 0.78351 0.0
N2723 N 0.47247 0.3054 0.79994 0.0
N2724 N 0.50062 0.28543 0.7884 0.0
C2725 C 0.49214 0.27882 0.80393 0.0
C2726 C 0.4771 0.28993 0.81043 0.0
C2727 C 0.3038 0.43533 0.2513 0.0
C2728 C 0.30394 0.43609 0.23147 0.0
C2729 C 0.29604 0.44984 0.26173 0.0
C2730 C 0.28791 0.46575 0.25286 0.0
H2731 H 0.31001 0.42352 0.2589 0.0
H2732 H 0.29682 0.44876 0.277 0.0
S2733 S 0.28398 0.4745 0.20129 0.0
N2734 N 0.29472 0.454 0.20328 0.0
N2735 N 0.27984 0.48117 0.22304 0.0
C2736 C 0.28715 0.46641 0.23303 0.0
C2737 C 0.29523 0.45162 0.22231 0.0
C2738 C 0.57757 0.3483 0.23455 0.0
C2739 C 0.59544 0.34132 0.24013 0.0
C2740 C 0.56141 0.34302 0.24414 0.0
C2741 C 0.56255 0.33032 0.25941 0.0
H2742 H 0.5761 0.358 0.22277 0.0
H2743 H 0.54787 0.3485 0.23925 0.0
S2744 S 0.60606 0.30801 0.2794 0.0
N2745 N 0.61339 0.32123 0.26191 0.0
N2746 N 0.58301 0.31104 0.27971 0.0
C2747 C 0.58035 0.32326 0.26509 0.0
C2748 C 0.59681 0.32885 0.25552 0.0
C2749 C 0.44251 0.74039 0.21685 0.0
C2750 C 0.44054 0.72164 0.21033 0.0
C2751 C 0.45962 0.74702 0.22557 0.0
C2752 C 0.47523 0.73507 0.22805 0.0
H2753 H 0.43046 0.74964 0.21614 0.0
H2754 H 0.46023 0.76115 0.23145 0.0
S2755 S 0.47828 0.68597 0.21036 0.0
N2756 N 0.45639 0.69217 0.20463 0.0
N2757 N 0.48834 0.70448 0.2211 0.0
C2758 C 0.47379 0.7168 0.22032 0.0
C2759 C 0.4565 0.71011 0.21145 0.0
loop_
_geom_bond_atom_site_label_1
_geom_bond_atom_site_label_2
_geom_bond_distance
_geom_bond_site_symmetry_2
_ccdc_geom_bond_type
C0 C1 1.384 . S
C0 H13 0.947 . S
C0 C35 1.382 . S
C1 C0 1.384 . S
C1 C2 1.378 . S
C2 C1 1.378 . S
C2 C3 1.378 . S
C2 H14 0.952 . S
C3 C2 1.378 . S
C3 H15 0.950 . S
C3 C34 1.383 . S
H4 C23 0.947 . S
H5 C24 0.946 . S
H6 C26 0.953 . S
H7 C27 0.945 . S
H8 C29 0.952 . S
H9 C30 0.949 . S
H10 C32 0.950 . S
H11 C33 0.948 . S
H12 C35 0.951 . S
H13 C0 0.947 . S
H14 C2 0.952 . S
H15 C3 0.950 . S
N16 C19 1.382 . S
N16 C21 1.363 . S
N17 C19 1.371 . S
N17 C20 1.372 . S
N18 C20 1.361 . S
N18 C21 1.377 . S
C19 N16 1.382 . S
C19 N17 1.371 . S
C19 C22 1.480 . S
C20 N17 1.372 . S
C20 N18 1.361 . S
C20 C28 1.457 . S
C21 N16 1.363 . S
C21 N18 1.377 . S
C21 C34 1.479 . S
C22 C19 1.480 . S
C22 C23 1.383 . S
C22 C27 1.385 . S
C23 H4 0.947 . S
C23 C22 1.383 . S
C23 C24 1.388 . S
C24 H5 0.946 . S
C24 C23 1.388 . S
C24 C25 1.384 . S
C25 C24 1.384 . S
C25 C26 1.377 . S
C26 H6 0.953 . S
C26 C25 1.377 . S
C26 C27 1.369 . S
C27 H7 0.945 . S
C27 C22 1.385 . S
C27 C26 1.369 . S
C28 C20 1.457 . S
C28 C29 1.372 . S
C28 C33 1.364 . S
C29 H8 0.952 . S
C29 C28 1.372 . S
C29 C30 1.389 . S
C30 H9 0.949 . S
C30 C29 1.389 . S
C30 C31 1.387 . S
C31 C30 1.387 . S
C31 C32 1.372 . S
C32 H10 0.950 . S
C32 C31 1.372 . S
C32 C33 1.379 . S
C33 H11 0.948 . S
C33 C28 1.364 . S
C33 C32 1.379 . S
C34 C3 1.383 . S
C34 C21 1.479 . S
C34 C35 1.398 . S
C35 C0 1.382 . S
C35 H12 0.951 . S
C35 C34 1.398 . S
C36 C37 1.384 . S
C36 H49 0.947 . S
C36 C71 1.382 . S
C37 C36 1.384 . S
C37 C38 1.378 . S
C38 C37 1.378 . S
C38 C39 1.378 . S
C38 H50 0.952 . S
C39 C38 1.378 . S
C39 H51 0.950 . S
C39 C70 1.383 . S
H40 C59 0.947 . S
H41 C60 0.946 . S
H42 C62 0.953 . S
H43 C63 0.945 . S
H44 C65 0.952 . S
H45 C66 0.949 . S
H46 C68 0.950 . S
H47 C69 0.948 . S
H48 C71 0.951 . S
H49 C36 0.947 . S
H50 C38 0.952 . S
H51 C39 0.950 . S
N52 C55 1.382 . S
N52 C57 1.363 . S
N53 C55 1.371 . S
N53 C56 1.372 . S
N54 C56 1.361 . S
N54 C57 1.377 . S
C55 N52 1.382 . S
C55 N53 1.371 . S
C55 C58 1.480 . S
C56 N53 1.372 . S
C56 N54 1.361 . S
C56 C64 1.457 . S
C57 N52 1.363 . S
C57 N54 1.377 . S
C57 C70 1.479 . S
C58 C55 1.480 . S
C58 C59 1.383 . S
C58 C63 1.385 . S
C59 H40 0.947 . S
C59 C58 1.383 . S
C59 C60 1.388 . S
C60 H41 0.946 . S
C60 C59 1.388 . S
C60 C61 1.384 . S
C61 C60 1.384 . S
C61 C62 1.377 . S
C62 H42 0.953 . S
C62 C61 1.377 . S
C62 C63 1.369 . S
C63 H43 0.945 . S
C63 C58 1.385 . S
C63 C62 1.369 . S
C64 C56 1.457 . S
C64 C65 1.372 . S
C64 C69 1.364 . S
C65 H44 0.952 . S
C65 C64 1.372 . S
C65 C66 1.389 . S
C66 H45 0.949 . S
C66 C65 1.389 . S
C66 C67 1.387 . S
C67 C66 1.387 . S
C67 C68 1.372 . S
C68 H46 0.950 . S
C68 C67 1.372 . S
C68 C69 1.379 . S
C69 H47 0.948 . S
C69 C64 1.364 . S
C69 C68 1.379 . S
C70 C39 1.383 . S
C70 C57 1.479 . S
C70 C71 1.398 . S
C71 C36 1.382 . S
C71 H48 0.951 . S
C71 C70 1.398 . S
C72 C73 1.384 . S
C72 H85 0.947 . S
C72 C107 1.382 . S
C73 C72 1.384 . S
C73 C74 1.378 . S
C74 C73 1.378 . S
C74 C75 1.378 . S
C74 H86 0.952 . S
C75 C74 1.378 . S
C75 H87 0.950 . S
C75 C106 1.383 . S
H76 C95 0.947 . S
H77 C96 0.946 . S
H78 C98 0.953 . S
H79 C99 0.945 . S
H80 C101 0.952 . S
H81 C102 0.949 . S
H82 C104 0.950 . S
H83 C105 0.948 . S
H84 C107 0.951 . S
H85 C72 0.947 . S
H86 C74 0.952 . S
H87 C75 0.950 . S
N88 C91 1.382 . S
N88 C93 1.363 . S
N89 C91 1.371 . S
N89 C92 1.372 . S
N90 C92 1.361 . S
N90 C93 1.377 . S
C91 N88 1.382 . S
C91 N89 1.371 . S
C91 C94 1.480 . S
C92 N89 1.372 . S
C92 N90 1.361 . S
C92 C100 1.457 . S
C93 N88 1.363 . S
C93 N90 1.377 . S
C93 C106 1.479 . S
C94 C91 1.480 . S
C94 C95 1.383 . S
C94 C99 1.385 . S
C95 H76 0.947 . S
C95 C94 1.383 . S
C95 C96 1.388 . S
C96 H77 0.946 . S
C96 C95 1.388 . S
C96 C97 1.384 . S
C97 C96 1.384 . S
C97 C98 1.377 . S
C98 H78 0.953 . S
C98 C97 1.377 . S
C98 C99 1.369 . S
C99 H79 0.945 . S
C99 C94 1.385 . S
C99 C98 1.369 . S
C100 C92 1.457 . S
C100 C101 1.372 . S
C100 C105 1.364 . S
C101 H80 0.952 . S
C101 C100 1.372 . S
C101 C102 1.389 . S
C102 H81 0.949 . S
C102 C101 1.389 . S
C102 C103 1.387 . S
C103 C102 1.387 . S
C103 C104 1.372 . S
C104 H82 0.950 . S
C104 C103 1.372 . S
C104 C105 1.379 . S
C105 H83 0.948 . S
C105 C100 1.364 . S
C105 C104 1.379 . S
C106 C75 1.383 . S
C106 C93 1.479 . S
C106 C107 1.398 . S
C107 C72 1.382 . S
C107 H84 0.951 . S
C107 C106 1.398 . S
C108 C109 1.384 . S
C108 H121 0.947 . S
C108 C143 1.382 . S
C109 C108 1.384 . S
C109 C110 1.378 . S
C110 C109 1.378 . S
C110 C111 1.378 . S
C110 H122 0.952 . S
C111 C110 1.378 . S
C111 H123 0.950 . S
C111 C142 1.383 . S
H112 C131 0.947 . S
H113 C132 0.946 . S
H114 C134 0.953 . S
H115 C135 0.945 . S
H116 C137 0.952 . S
H117 C138 0.949 . S
H118 C140 0.950 . S
H119 C141 0.948 . S
H120 C143 0.951 . S
H121 C108 0.947 . S
H122 C110 0.952 . S
H123 C111 0.950 . S
N124 C127 1.382 . S
N124 C129 1.363 . S
N125 C127 1.371 . S
N125 C128 1.372 . S
N126 C128 1.361 . S
N126 C129 1.377 . S
C127 N124 1.382 . S
C127 N125 1.371 . S
C127 C130 1.480 . S
C128 N125 1.372 . S
C128 N126 1.361 . S
C128 C136 1.457 . S
C129 N124 1.363 . S
C129 N126 1.377 . S
C129 C142 1.479 . S
C130 C127 1.480 . S
C130 C131 1.383 . S
C130 C135 1.385 . S
C131 H112 0.947 . S
C131 C130 1.383 . S
C131 C132 1.388 . S
C132 H113 0.946 . S
C132 C131 1.388 . S
C132 C133 1.384 . S
C133 C132 1.384 . S
C133 C134 1.377 . S
C134 H114 0.953 . S
C134 C133 1.377 . S
C134 C135 1.369 . S
C135 H115 0.945 . S
C135 C130 1.385 . S
C135 C134 1.369 . S
C136 C128 1.457 . S
C136 C137 1.372 . S
C136 C141 1.364 . S
C137 H116 0.952 . S
C137 C136 1.372 . S
C137 C138 1.389 . S
C138 H117 0.949 . S
C138 C137 1.389 . S
C138 C139 1.387 . S
C139 C138 1.387 . S
C139 C140 1.372 . S
C140 H118 0.950 . S
C140 C139 1.372 . S
C140 C141 1.379 . S
C141 H119 0.948 . S
C141 C136 1.364 . S
C141 C140 1.379 . S
C142 C111 1.383 . S
C142 C129 1.479 . S
C142 C143 1.398 . S
C143 C108 1.382 . S
C143 H120 0.951 . S
C143 C142 1.398 . S
C144 C145 1.384 . S
C144 H157 0.947 . S
C144 C179 1.382 . S
C145 C144 1.384 . S
C145 C146 1.378 . S
C146 C145 1.378 . S
C146 C147 1.378 . S
C146 H158 0.952 . S
C147 C146 1.378 . S
C147 H159 0.950 . S
C147 C178 1.383 . S
H148 C167 0.947 . S
H149 C168 0.946 . S
H150 C170 0.953 . S
H151 C171 0.945 . S
H152 C173 0.952 . S
H153 C174 0.949 . S
H154 C176 0.950 . S
H155 C177 0.948 . S
H156 C179 0.951 . S
H157 C144 0.947 . S
H158 C146 0.952 . S
H159 C147 0.950 . S
N160 C163 1.382 . S
N160 C165 1.363 . S
N161 C163 1.371 . S
N161 C164 1.372 . S
N162 C164 1.361 . S
N162 C165 1.377 . S
C163 N160 1.382 . S
C163 N161 1.371 . S
C163 C166 1.480 . S
C164 N161 1.372 . S
C164 N162 1.361 . S
C164 C172 1.457 . S
C165 N160 1.363 . S
C165 N162 1.377 . S
C165 C178 1.479 . S
C166 C163 1.480 . S
C166 C167 1.383 . S
C166 C171 1.385 . S
C167 H148 0.947 . S
C167 C166 1.383 . S
C167 C168 1.388 . S
C168 H149 0.946 . S
C168 C167 1.388 . S
C168 C169 1.384 . S
C169 C168 1.384 . S
C169 C170 1.377 . S
C170 H150 0.953 . S
C170 C169 1.377 . S
C170 C171 1.369 . S
C171 H151 0.945 . S
C171 C166 1.385 . S
C171 C170 1.369 . S
C172 C164 1.457 . S
C172 C173 1.372 . S
C172 C177 1.364 . S
C173 H152 0.952 . S
C173 C172 1.372 . S
C173 C174 1.389 . S
C174 H153 0.949 . S
C174 C173 1.389 . S
C174 C175 1.387 . S
C175 C174 1.387 . S
C175 C176 1.372 . S
C176 H154 0.950 . S
C176 C175 1.372 . S
C176 C177 1.379 . S
C177 H155 0.948 . S
C177 C172 1.364 . S
C177 C176 1.379 . S
C178 C147 1.383 . S
C178 C165 1.479 . S
C178 C179 1.398 . S
C179 C144 1.382 . S
C179 H156 0.951 . S
C179 C178 1.398 . S
C180 C181 1.384 . S
C180 H193 0.947 . S
C180 C215 1.382 . S
C181 C180 1.384 . S
C181 C182 1.378 . S
C182 C181 1.378 . S
C182 C183 1.378 . S
C182 H194 0.952 . S
C183 C182 1.378 . S
C183 H195 0.950 . S
C183 C214 1.383 . S
H184 C203 0.947 . S
H185 C204 0.946 . S
H186 C206 0.953 . S
H187 C207 0.945 . S
H188 C209 0.952 . S
H189 C210 0.949 . S
H190 C212 0.950 . S
H191 C213 0.948 . S
H192 C215 0.951 . S
H193 C180 0.947 . S
H194 C182 0.952 . S
H195 C183 0.950 . S
N196 C199 1.382 . S
N196 C201 1.363 . S
N197 C199 1.371 . S
N197 C200 1.372 . S
N198 C200 1.361 . S
N198 C201 1.377 . S
C199 N196 1.382 . S
C199 N197 1.371 . S
C199 C202 1.480 . S
C200 N197 1.372 . S
C200 N198 1.361 . S
C200 C208 1.457 . S
C201 N196 1.363 . S
C201 N198 1.377 . S
C201 C214 1.479 . S
C202 C199 1.480 . S
C202 C203 1.383 . S
C202 C207 1.385 . S
C203 H184 0.947 . S
C203 C202 1.383 . S
C203 C204 1.388 . S
C204 H185 0.946 . S
C204 C203 1.388 . S
C204 C205 1.384 . S
C205 C204 1.384 . S
C205 C206 1.377 . S
C206 H186 0.953 . S
C206 C205 1.377 . S
C206 C207 1.369 . S
C207 H187 0.945 . S
C207 C202 1.385 . S
C207 C206 1.369 . S
C208 C200 1.457 . S
C208 C209 1.372 . S
C208 C213 1.364 . S
C209 H188 0.952 . S
C209 C208 1.372 . S
C209 C210 1.389 . S
C210 H189 0.949 . S
C210 C209 1.389 . S
C210 C211 1.387 . S
C211 C210 1.387 . S
C211 C212 1.372 . S
C212 H190 0.950 . S
C212 C211 1.372 . S
C212 C213 1.379 . S
C213 H191 0.948 . S
C213 C208 1.364 . S
C213 C212 1.379 . S
C214 C183 1.383 . S
C214 C201 1.479 . S
C214 C215 1.398 . S
C215 C180 1.382 . S
C215 H192 0.951 . S
C215 C214 1.398 . S
C216 C217 1.384 . S
C216 H229 0.947 . S
C216 C251 1.382 . S
C217 C216 1.384 . S
C217 C218 1.378 . S
C218 C217 1.378 . S
C218 C219 1.378 . S
C218 H230 0.952 . S
C219 C218 1.378 . S
C219 H231 0.950 . S
C219 C250 1.383 . S
H220 C239 0.947 . S
H221 C240 0.946 . S
H222 C242 0.953 . S
H223 C243 0.945 . S
H224 C245 0.952 . S
H225 C246 0.949 . S
H226 C248 0.950 . S
H227 C249 0.948 . S
H228 C251 0.951 . S
H229 C216 0.947 . S
H230 C218 0.952 . S
H231 C219 0.950 . S
N232 C235 1.382 . S
N232 C237 1.363 . S
N233 C235 1.371 . S
N233 C236 1.372 . S
N234 C236 1.361 . S
N234 C237 1.377 . S
C235 N232 1.382 . S
C235 N233 1.371 . S
C235 C238 1.480 . S
C236 N233 1.372 . S
C236 N234 1.361 . S
C236 C244 1.457 . S
C237 N232 1.363 . S
C237 N234 1.377 . S
C237 C250 1.479 . S
C238 C235 1.480 . S
C238 C239 1.383 . S
C238 C243 1.385 . S
C239 H220 0.947 . S
C239 C238 1.383 . S
C239 C240 1.388 . S
C240 H221 0.946 . S
C240 C239 1.388 . S
C240 C241 1.384 . S
C241 C240 1.384 . S
C241 C242 1.377 . S
C242 H222 0.953 . S
C242 C241 1.377 . S
C242 C243 1.369 . S
C243 H223 0.945 . S
C243 C238 1.385 . S
C243 C242 1.369 . S
C244 C236 1.457 . S
C244 C245 1.372 . S
C244 C249 1.364 . S
C245 H224 0.952 . S
C245 C244 1.372 . S
C245 C246 1.389 . S
C246 H225 0.949 . S
C246 C245 1.389 . S
C246 C247 1.387 . S
C247 C246 1.387 . S
C247 C248 1.372 . S
C248 H226 0.950 . S
C248 C247 1.372 . S
C248 C249 1.379 . S
C249 H227 0.948 . S
C249 C244 1.364 . S
C249 C248 1.379 . S
C250 C219 1.383 . S
C250 C237 1.479 . S
C250 C251 1.398 . S
C251 C216 1.382 . S
C251 H228 0.951 . S
C251 C250 1.398 . S
C252 C253 1.384 . S
C252 H265 0.947 . S
C252 C287 1.382 . S
C253 C252 1.384 . S
C253 C254 1.378 . S
C254 C253 1.378 . S
C254 C255 1.378 . S
C254 H266 0.952 . S
C255 C254 1.378 . S
C255 H267 0.950 . S
C255 C286 1.383 . S
H256 C275 0.947 . S
H257 C276 0.946 . S
H258 C278 0.953 . S
H259 C279 0.945 . S
H260 C281 0.952 . S
H261 C282 0.949 . S
H262 C284 0.950 . S
H263 C285 0.948 . S
H264 C287 0.951 . S
H265 C252 0.947 . S
H266 C254 0.952 . S
H267 C255 0.950 . S
N268 C271 1.382 . S
N268 C273 1.363 . S
N269 C271 1.371 . S
N269 C272 1.372 . S
N270 C272 1.361 . S
N270 C273 1.377 . S
C271 N268 1.382 . S
C271 N269 1.371 . S
C271 C274 1.480 . S
C272 N269 1.372 . S
C272 N270 1.361 . S
C272 C280 1.457 . S
C273 N268 1.363 . S
C273 N270 1.377 . S
C273 C286 1.479 . S
C274 C271 1.480 . S
C274 C275 1.383 . S
C274 C279 1.385 . S
C275 H256 0.947 . S
C275 C274 1.383 . S
C275 C276 1.388 . S
C276 H257 0.946 . S
C276 C275 1.388 . S
C276 C277 1.384 . S
C277 C276 1.384 . S
C277 C278 1.377 . S
C278 H258 0.953 . S
C278 C277 1.377 . S
C278 C279 1.369 . S
C279 H259 0.945 . S
C279 C274 1.385 . S
C279 C278 1.369 . S
C280 C272 1.457 . S
C280 C281 1.372 . S
C280 C285 1.364 . S
C281 H260 0.952 . S
C281 C280 1.372 . S
C281 C282 1.389 . S
C282 H261 0.949 . S
C282 C281 1.389 . S
C282 C283 1.387 . S
C283 C282 1.387 . S
C283 C284 1.372 . S
C284 H262 0.950 . S
C284 C283 1.372 . S
C284 C285 1.379 . S
C285 H263 0.948 . S
C285 C280 1.364 . S
C285 C284 1.379 . S
C286 C255 1.383 . S
C286 C273 1.479 . S
C286 C287 1.398 . S
C287 C252 1.382 . S
C287 H264 0.951 . S
C287 C286 1.398 . S
C288 C289 1.384 . S
C288 H301 0.947 . S
C288 C323 1.382 . S
C289 C288 1.384 . S
C289 C290 1.378 . S
C290 C289 1.378 . S
C290 C291 1.378 . S
C290 H302 0.952 . S
C291 C290 1.378 . S
C291 H303 0.950 . S
C291 C322 1.383 . S
H292 C311 0.947 . S
H293 C312 0.946 . S
H294 C314 0.953 . S
H295 C315 0.945 . S
H296 C317 0.952 . S
H297 C318 0.949 . S
H298 C320 0.950 . S
H299 C321 0.948 . S
H300 C323 0.951 . S
H301 C288 0.947 . S
H302 C290 0.952 . S
H303 C291 0.950 . S
N304 C307 1.382 . S
N304 C309 1.363 . S
N305 C307 1.371 . S
N305 C308 1.372 . S
N306 C308 1.361 . S
N306 C309 1.377 . S
C307 N304 1.382 . S
C307 N305 1.371 . S
C307 C310 1.480 . S
C308 N305 1.372 . S
C308 N306 1.361 . S
C308 C316 1.457 . S
C309 N304 1.363 . S
C309 N306 1.377 . S
C309 C322 1.479 . S
C310 C307 1.480 . S
C310 C311 1.383 . S
C310 C315 1.385 . S
C311 H292 0.947 . S
C311 C310 1.383 . S
C311 C312 1.388 . S
C312 H293 0.946 . S
C312 C311 1.388 . S
C312 C313 1.384 . S
C313 C312 1.384 . S
C313 C314 1.377 . S
C314 H294 0.953 . S
C314 C313 1.377 . S
C314 C315 1.369 . S
C315 H295 0.945 . S
C315 C310 1.385 . S
C315 C314 1.369 . S
C316 C308 1.457 . S
C316 C317 1.372 . S
C316 C321 1.364 . S
C317 H296 0.952 . S
C317 C316 1.372 . S
C317 C318 1.389 . S
C318 H297 0.949 . S
C318 C317 1.389 . S
C318 C319 1.387 . S
C319 C318 1.387 . S
C319 C320 1.372 . S
C320 H298 0.950 . S
C320 C319 1.372 . S
C320 C321 1.379 . S
C321 H299 0.948 . S
C321 C316 1.364 . S
C321 C320 1.379 . S
C322 C291 1.383 . S
C322 C309 1.479 . S
C322 C323 1.398 . S
C323 C288 1.382 . S
C323 H300 0.951 . S
C323 C322 1.398 . S
C324 C325 1.384 . S
C324 H337 0.947 . S
C324 C359 1.382 . S
C325 C324 1.384 . S
C325 C326 1.378 . S
C326 C325 1.378 . S
C326 C327 1.378 . S
C326 H338 0.952 . S
C327 C326 1.378 . S
C327 H339 0.950 . S
C327 C358 1.383 . S
H328 C347 0.947 . S
H329 C348 0.946 . S
H330 C350 0.953 . S
H331 C351 0.945 . S
H332 C353 0.952 . S
H333 C354 0.949 . S
H334 C356 0.950 . S
H335 C357 0.948 . S
H336 C359 0.951 . S
H337 C324 0.947 . S
H338 C326 0.952 . S
H339 C327 0.950 . S
N340 C343 1.382 . S
N340 C345 1.363 . S
N341 C343 1.371 . S
N341 C344 1.372 . S
N342 C344 1.361 . S
N342 C345 1.377 . S
C343 N340 1.382 . S
C343 N341 1.371 . S
C343 C346 1.480 . S
C344 N341 1.372 . S
C344 N342 1.361 . S
C344 C352 1.457 . S
C345 N340 1.363 . S
C345 N342 1.377 . S
C345 C358 1.479 . S
C346 C343 1.480 . S
C346 C347 1.383 . S
C346 C351 1.385 . S
C347 H328 0.947 . S
C347 C346 1.383 . S
C347 C348 1.388 . S
C348 H329 0.946 . S
C348 C347 1.388 . S
C348 C349 1.384 . S
C349 C348 1.384 . S
C349 C350 1.377 . S
C350 H330 0.953 . S
C350 C349 1.377 . S
C350 C351 1.369 . S
C351 H331 0.945 . S
C351 C346 1.385 . S
C351 C350 1.369 . S
C352 C344 1.457 . S
C352 C353 1.372 . S
C352 C357 1.364 . S
C353 H332 0.952 . S
C353 C352 1.372 . S
C353 C354 1.389 . S
C354 H333 0.949 . S
C354 C353 1.389 . S
C354 C355 1.387 . S
C355 C354 1.387 . S
C355 C356 1.372 . S
C356 H334 0.950 . S
C356 C355 1.372 . S
C356 C357 1.379 . S
C357 H335 0.948 . S
C357 C352 1.364 . S
C357 C356 1.379 . S
C358 C327 1.383 . S
C358 C345 1.479 . S
C358 C359 1.398 . S
C359 C324 1.382 . S
C359 H336 0.951 . S
C359 C358 1.398 . S
C360 C361 1.384 . S
C360 H373 0.947 . S
C360 C395 1.382 . S
C361 C360 1.384 . S
C361 C362 1.378 . S
C362 C361 1.378 . S
C362 C363 1.378 . S
C362 H374 0.952 . S
C363 C362 1.378 . S
C363 H375 0.950 . S
C363 C394 1.383 . S
H364 C383 0.947 . S
H365 C384 0.946 . S
H366 C386 0.953 . S
H367 C387 0.945 . S
H368 C389 0.952 . S
H369 C390 0.949 . S
H370 C392 0.950 . S
H371 C393 0.948 . S
H372 C395 0.951 . S
H373 C360 0.947 . S
H374 C362 0.952 . S
H375 C363 0.950 . S
N376 C379 1.382 . S
N376 C381 1.363 . S
N377 C379 1.371 . S
N377 C380 1.372 . S
N378 C380 1.361 . S
N378 C381 1.377 . S
C379 N376 1.382 . S
C379 N377 1.371 . S
C379 C382 1.480 . S
C380 N377 1.372 . S
C380 N378 1.361 . S
C380 C388 1.457 . S
C381 N376 1.363 . S
C381 N378 1.377 . S
C381 C394 1.479 . S
C382 C379 1.480 . S
C382 C383 1.383 . S
C382 C387 1.385 . S
C383 H364 0.947 . S
C383 C382 1.383 . S
C383 C384 1.388 . S
C384 H365 0.946 . S
C384 C383 1.388 . S
C384 C385 1.384 . S
C385 C384 1.384 . S
C385 C386 1.377 . S
C386 H366 0.953 . S
C386 C385 1.377 . S
C386 C387 1.369 . S
C387 H367 0.945 . S
C387 C382 1.385 . S
C387 C386 1.369 . S
C388 C380 1.457 . S
C388 C389 1.372 . S
C388 C393 1.364 . S
C389 H368 0.952 . S
C389 C388 1.372 . S
C389 C390 1.389 . S
C390 H369 0.949 . S
C390 C389 1.389 . S
C390 C391 1.387 . S
C391 C390 1.387 . S
C391 C392 1.372 . S
C392 H370 0.950 . S
C392 C391 1.372 . S
C392 C393 1.379 . S
C393 H371 0.948 . S
C393 C388 1.364 . S
C393 C392 1.379 . S
C394 C363 1.383 . S
C394 C381 1.479 . S
C394 C395 1.398 . S
C395 C360 1.382 . S
C395 H372 0.951 . S
C395 C394 1.398 . S
C396 C397 1.384 . S
C396 H409 0.947 . S
C396 C431 1.382 . S
C397 C396 1.384 . S
C397 C398 1.378 . S
C398 C397 1.378 . S
C398 C399 1.378 . S
C398 H410 0.952 . S
C399 C398 1.378 . S
C399 H411 0.950 . S
C399 C430 1.383 . S
H400 C419 0.947 . S
H401 C420 0.946 . S
H402 C422 0.953 . S
H403 C423 0.945 . S
H404 C425 0.952 . S
H405 C426 0.949 . S
H406 C428 0.950 . S
H407 C429 0.948 . S
H408 C431 0.951 . S
H409 C396 0.947 . S
H410 C398 0.952 . S
H411 C399 0.950 . S
N412 C415 1.382 . S
N412 C417 1.363 . S
N413 C415 1.371 . S
N413 C416 1.372 . S
N414 C416 1.361 . S
N414 C417 1.377 . S
C415 N412 1.382 . S
C415 N413 1.371 . S
C415 C418 1.480 . S
C416 N413 1.372 . S
C416 N414 1.361 . S
C416 C424 1.457 . S
C417 N412 1.363 . S
C417 N414 1.377 . S
C417 C430 1.479 . S
C418 C415 1.480 . S
C418 C419 1.383 . S
C418 C423 1.385 . S
C419 H400 0.947 . S
C419 C418 1.383 . S
C419 C420 1.388 . S
C420 H401 0.946 . S
C420 C419 1.388 . S
C420 C421 1.384 . S
C421 C420 1.384 . S
C421 C422 1.377 . S
C422 H402 0.953 . S
C422 C421 1.377 . S
C422 C423 1.369 . S
C423 H403 0.945 . S
C423 C418 1.385 . S
C423 C422 1.369 . S
C424 C416 1.457 . S
C424 C425 1.372 . S
C424 C429 1.364 . S
C425 H404 0.952 . S
C425 C424 1.372 . S
C425 C426 1.389 . S
C426 H405 0.949 . S
C426 C425 1.389 . S
C426 C427 1.387 . S
C427 C426 1.387 . S
C427 C428 1.372 . S
C428 H406 0.950 . S
C428 C427 1.372 . S
C428 C429 1.379 . S
C429 H407 0.948 . S
C429 C424 1.364 . S
C429 C428 1.379 . S
C430 C399 1.383 . S
C430 C417 1.479 . S
C430 C431 1.398 . S
C431 C396 1.382 . S
C431 H408 0.951 . S
C431 C430 1.398 . S
C432 C433 1.384 . S
C432 H445 0.947 . S
C432 C467 1.382 . S
C433 C432 1.384 . S
C433 C434 1.378 . S
C434 C433 1.378 . S
C434 C435 1.378 . S
C434 H446 0.952 . S
C435 C434 1.378 . S
C435 H447 0.950 . S
C435 C466 1.383 . S
H436 C455 0.947 . S
H437 C456 0.946 . S
H438 C458 0.953 . S
H439 C459 0.945 . S
H440 C461 0.952 . S
H441 C462 0.949 . S
H442 C464 0.950 . S
H443 C465 0.948 . S
H444 C467 0.951 . S
H445 C432 0.947 . S
H446 C434 0.952 . S
H447 C435 0.950 . S
N448 C451 1.382 . S
N448 C453 1.363 . S
N449 C451 1.371 . S
N449 C452 1.372 . S
N450 C452 1.361 . S
N450 C453 1.377 . S
C451 N448 1.382 . S
C451 N449 1.371 . S
C451 C454 1.480 . S
C452 N449 1.372 . S
C452 N450 1.361 . S
C452 C460 1.457 . S
C453 N448 1.363 . S
C453 N450 1.377 . S
C453 C466 1.479 . S
C454 C451 1.480 . S
C454 C455 1.383 . S
C454 C459 1.385 . S
C455 H436 0.947 . S
C455 C454 1.383 . S
C455 C456 1.388 . S
C456 H437 0.946 . S
C456 C455 1.388 . S
C456 C457 1.384 . S
C457 C456 1.384 . S
C457 C458 1.377 . S
C458 H438 0.953 . S
C458 C457 1.377 . S
C458 C459 1.369 . S
C459 H439 0.945 . S
C459 C454 1.385 . S
C459 C458 1.369 . S
C460 C452 1.457 . S
C460 C461 1.372 . S
C460 C465 1.364 . S
C461 H440 0.952 . S
C461 C460 1.372 . S
C461 C462 1.389 . S
C462 H441 0.949 . S
C462 C461 1.389 . S
C462 C463 1.387 . S
C463 C462 1.387 . S
C463 C464 1.372 . S
C464 H442 0.950 . S
C464 C463 1.372 . S
C464 C465 1.379 . S
C465 H443 0.948 . S
C465 C460 1.364 . S
C465 C464 1.379 . S
C466 C435 1.383 . S
C466 C453 1.479 . S
C466 C467 1.398 . S
C467 C432 1.382 . S
C467 H444 0.951 . S
C467 C466 1.398 . S
C468 C469 1.384 . S
C468 H481 0.947 . S
C468 C503 1.382 . S
C469 C468 1.384 . S
C469 C470 1.378 . S
C470 C469 1.378 . S
C470 C471 1.378 . S
C470 H482 0.952 . S
C471 C470 1.378 . S
C471 H483 0.950 . S
C471 C502 1.383 . S
H472 C491 0.947 . S
H473 C492 0.946 . S
H474 C494 0.953 . S
H475 C495 0.945 . S
H476 C497 0.952 . S
H477 C498 0.949 . S
H478 C500 0.950 . S
H479 C501 0.948 . S
H480 C503 0.951 . S
H481 C468 0.947 . S
H482 C470 0.952 . S
H483 C471 0.950 . S
N484 C487 1.382 . S
N484 C489 1.363 . S
N485 C487 1.371 . S
N485 C488 1.372 . S
N486 C488 1.361 . S
N486 C489 1.377 . S
C487 N484 1.382 . S
C487 N485 1.371 . S
C487 C490 1.480 . S
C488 N485 1.372 . S
C488 N486 1.361 . S
C488 C496 1.457 . S
C489 N484 1.363 . S
C489 N486 1.377 . S
C489 C502 1.479 . S
C490 C487 1.480 . S
C490 C491 1.383 . S
C490 C495 1.385 . S
C491 H472 0.947 . S
C491 C490 1.383 . S
C491 C492 1.388 . S
C492 H473 0.946 . S
C492 C491 1.388 . S
C492 C493 1.384 . S
C493 C492 1.384 . S
C493 C494 1.377 . S
C494 H474 0.953 . S
C494 C493 1.377 . S
C494 C495 1.369 . S
C495 H475 0.945 . S
C495 C490 1.385 . S
C495 C494 1.369 . S
C496 C488 1.457 . S
C496 C497 1.372 . S
C496 C501 1.364 . S
C497 H476 0.952 . S
C497 C496 1.372 . S
C497 C498 1.389 . S
C498 H477 0.949 . S
C498 C497 1.389 . S
C498 C499 1.387 . S
C499 C498 1.387 . S
C499 C500 1.372 . S
C500 H478 0.950 . S
C500 C499 1.372 . S
C500 C501 1.379 . S
C501 H479 0.948 . S
C501 C496 1.364 . S
C501 C500 1.379 . S
C502 C471 1.383 . S
C502 C489 1.479 . S
C502 C503 1.398 . S
C503 C468 1.382 . S
C503 H480 0.951 . S
C503 C502 1.398 . S
C504 C505 1.384 . S
C504 H517 0.947 . S
C504 C539 1.382 . S
C505 C504 1.384 . S
C505 C506 1.378 . S
C506 C505 1.378 . S
C506 C507 1.378 . S
C506 H518 0.952 . S
C507 C506 1.378 . S
C507 H519 0.950 . S
C507 C538 1.383 . S
H508 C527 0.947 . S
H509 C528 0.946 . S
H510 C530 0.953 . S
H511 C531 0.945 . S
H512 C533 0.952 . S
H513 C534 0.949 . S
H514 C536 0.950 . S
H515 C537 0.948 . S
H516 C539 0.951 . S
H517 C504 0.947 . S
H518 C506 0.952 . S
H519 C507 0.950 . S
N520 C523 1.382 . S
N520 C525 1.363 . S
N521 C523 1.371 . S
N521 C524 1.372 . S
N522 C524 1.361 . S
N522 C525 1.377 . S
C523 N520 1.382 . S
C523 N521 1.371 . S
C523 C526 1.480 . S
C524 N521 1.372 . S
C524 N522 1.361 . S
C524 C532 1.457 . S
C525 N520 1.363 . S
C525 N522 1.377 . S
C525 C538 1.479 . S
C526 C523 1.480 . S
C526 C527 1.383 . S
C526 C531 1.385 . S
C527 H508 0.947 . S
C527 C526 1.383 . S
C527 C528 1.388 . S
C528 H509 0.946 . S
C528 C527 1.388 . S
C528 C529 1.384 . S
C529 C528 1.384 . S
C529 C530 1.377 . S
C530 H510 0.953 . S
C530 C529 1.377 . S
C530 C531 1.369 . S
C531 H511 0.945 . S
C531 C526 1.385 . S
C531 C530 1.369 . S
C532 C524 1.457 . S
C532 C533 1.372 . S
C532 C537 1.364 . S
C533 H512 0.952 . S
C533 C532 1.372 . S
C533 C534 1.389 . S
C534 H513 0.949 . S
C534 C533 1.389 . S
C534 C535 1.387 . S
C535 C534 1.387 . S
C535 C536 1.372 . S
C536 H514 0.950 . S
C536 C535 1.372 . S
C536 C537 1.379 . S
C537 H515 0.948 . S
C537 C532 1.364 . S
C537 C536 1.379 . S
C538 C507 1.383 . S
C538 C525 1.479 . S
C538 C539 1.398 . S
C539 C504 1.382 . S
C539 H516 0.951 . S
C539 C538 1.398 . S
C540 C541 1.384 . S
C540 H553 0.947 . S
C540 C575 1.382 . S
C541 C540 1.384 . S
C541 C542 1.378 . S
C542 C541 1.378 . S
C542 C543 1.378 . S
C542 H554 0.952 . S
C543 C542 1.378 . S
C543 H555 0.950 . S
C543 C574 1.383 . S
H544 C563 0.947 . S
H545 C564 0.946 . S
H546 C566 0.953 . S
H547 C567 0.945 . S
H548 C569 0.952 . S
H549 C570 0.949 . S
H550 C572 0.950 . S
H551 C573 0.948 . S
H552 C575 0.951 . S
H553 C540 0.947 . S
H554 C542 0.952 . S
H555 C543 0.950 . S
N556 C559 1.382 . S
N556 C561 1.363 . S
N557 C559 1.371 . S
N557 C560 1.372 . S
N558 C560 1.361 . S
N558 C561 1.377 . S
C559 N556 1.382 . S
C559 N557 1.371 . S
C559 C562 1.480 . S
C560 N557 1.372 . S
C560 N558 1.361 . S
C560 C568 1.457 . S
C561 N556 1.363 . S
C561 N558 1.377 . S
C561 C574 1.479 . S
C562 C559 1.480 . S
C562 C563 1.383 . S
C562 C567 1.385 . S
C563 H544 0.947 . S
C563 C562 1.383 . S
C563 C564 1.388 . S
C564 H545 0.946 . S
C564 C563 1.388 . S
C564 C565 1.384 . S
C565 C564 1.384 . S
C565 C566 1.377 . S
C566 H546 0.953 . S
C566 C565 1.377 . S
C566 C567 1.369 . S
C567 H547 0.945 . S
C567 C562 1.385 . S
C567 C566 1.369 . S
C568 C560 1.457 . S
C568 C569 1.372 . S
C568 C573 1.364 . S
C569 H548 0.952 . S
C569 C568 1.372 . S
C569 C570 1.389 . S
C570 H549 0.949 . S
C570 C569 1.389 . S
C570 C571 1.387 . S
C571 C570 1.387 . S
C571 C572 1.372 . S
C572 H550 0.950 . S
C572 C571 1.372 . S
C572 C573 1.379 . S
C573 H551 0.948 . S
C573 C568 1.364 . S
C573 C572 1.379 . S
C574 C543 1.383 . S
C574 C561 1.479 . S
C574 C575 1.398 . S
C575 C540 1.382 . S
C575 H552 0.951 . S
C575 C574 1.398 . S
C576 C577 1.384 . S
C576 H589 0.947 . S
C576 C611 1.382 . S
C577 C576 1.384 . S
C577 C578 1.378 . S
C578 C577 1.378 . S
C578 C579 1.378 . S
C578 H590 0.952 . S
C579 C578 1.378 . S
C579 H591 0.950 . S
C579 C610 1.383 . S
H580 C599 0.947 . S
H581 C600 0.946 . S
H582 C602 0.953 . S
H583 C603 0.945 . S
H584 C605 0.952 . S
H585 C606 0.949 . S
H586 C608 0.950 . S
H587 C609 0.948 . S
H588 C611 0.951 . S
H589 C576 0.947 . S
H590 C578 0.952 . S
H591 C579 0.950 . S
N592 C595 1.382 . S
N592 C597 1.363 . S
N593 C595 1.371 . S
N593 C596 1.372 . S
N594 C596 1.361 . S
N594 C597 1.377 . S
C595 N592 1.382 . S
C595 N593 1.371 . S
C595 C598 1.480 . S
C596 N593 1.372 . S
C596 N594 1.361 . S
C596 C604 1.457 . S
C597 N592 1.363 . S
C597 N594 1.377 . S
C597 C610 1.479 . S
C598 C595 1.480 . S
C598 C599 1.383 . S
C598 C603 1.385 . S
C599 H580 0.947 . S
C599 C598 1.383 . S
C599 C600 1.388 . S
C600 H581 0.946 . S
C600 C599 1.388 . S
C600 C601 1.384 . S
C601 C600 1.384 . S
C601 C602 1.377 . S
C602 H582 0.953 . S
C602 C601 1.377 . S
C602 C603 1.369 . S
C603 H583 0.945 . S
C603 C598 1.385 . S
C603 C602 1.369 . S
C604 C596 1.457 . S
C604 C605 1.372 . S
C604 C609 1.364 . S
C605 H584 0.952 . S
C605 C604 1.372 . S
C605 C606 1.389 . S
C606 H585 0.949 . S
C606 C605 1.389 . S
C606 C607 1.387 . S
C607 C606 1.387 . S
C607 C608 1.372 . S
C608 H586 0.950 . S
C608 C607 1.372 . S
C608 C609 1.379 . S
C609 H587 0.948 . S
C609 C604 1.364 . S
C609 C608 1.379 . S
C610 C579 1.383 . S
C610 C597 1.479 . S
C610 C611 1.398 . S
C611 C576 1.382 . S
C611 H588 0.951 . S
C611 C610 1.398 . S
C612 C613 1.384 . S
C612 H625 0.947 . S
C612 C647 1.382 . S
C613 C612 1.384 . S
C613 C614 1.378 . S
C614 C613 1.378 . S
C614 C615 1.378 . S
C614 H626 0.952 . S
C615 C614 1.378 . S
C615 H627 0.950 . S
C615 C646 1.383 . S
H616 C635 0.947 . S
H617 C636 0.946 . S
H618 C638 0.953 . S
H619 C639 0.945 . S
H620 C641 0.952 . S
H621 C642 0.949 . S
H622 C644 0.950 . S
H623 C645 0.948 . S
H624 C647 0.951 . S
H625 C612 0.947 . S
H626 C614 0.952 . S
H627 C615 0.950 . S
N628 C631 1.382 . S
N628 C633 1.363 . S
N629 C631 1.371 . S
N629 C632 1.372 . S
N630 C632 1.361 . S
N630 C633 1.377 . S
C631 N628 1.382 . S
C631 N629 1.371 . S
C631 C634 1.480 . S
C632 N629 1.372 . S
C632 N630 1.361 . S
C632 C640 1.457 . S
C633 N628 1.363 . S
C633 N630 1.377 . S
C633 C646 1.479 . S
C634 C631 1.480 . S
C634 C635 1.383 . S
C634 C639 1.385 . S
C635 H616 0.947 . S
C635 C634 1.383 . S
C635 C636 1.388 . S
C636 H617 0.946 . S
C636 C635 1.388 . S
C636 C637 1.384 . S
C637 C636 1.384 . S
C637 C638 1.377 . S
C638 H618 0.953 . S
C638 C637 1.377 . S
C638 C639 1.369 . S
C639 H619 0.945 . S
C639 C634 1.385 . S
C639 C638 1.369 . S
C640 C632 1.457 . S
C640 C641 1.372 . S
C640 C645 1.364 . S
C641 H620 0.952 . S
C641 C640 1.372 . S
C641 C642 1.389 . S
C642 H621 0.949 . S
C642 C641 1.389 . S
C642 C643 1.387 . S
C643 C642 1.387 . S
C643 C644 1.372 . S
C644 H622 0.950 . S
C644 C643 1.372 . S
C644 C645 1.379 . S
C645 H623 0.948 . S
C645 C640 1.364 . S
C645 C644 1.379 . S
C646 C615 1.383 . S
C646 C633 1.479 . S
C646 C647 1.398 . S
C647 C612 1.382 . S
C647 H624 0.951 . S
C647 C646 1.398 . S
C648 C649 1.384 . S
C648 H661 0.947 . S
C648 C683 1.382 . S
C649 C648 1.384 . S
C649 C650 1.378 . S
C650 C649 1.378 . S
C650 C651 1.378 . S
C650 H662 0.952 . S
C651 C650 1.378 . S
C651 H663 0.950 . S
C651 C682 1.383 . S
H652 C671 0.947 . S
H653 C672 0.946 . S
H654 C674 0.953 . S
H655 C675 0.945 . S
H656 C677 0.952 . S
H657 C678 0.949 . S
H658 C680 0.950 . S
H659 C681 0.948 . S
H660 C683 0.951 . S
H661 C648 0.947 . S
H662 C650 0.952 . S
H663 C651 0.950 . S
N664 C667 1.382 . S
N664 C669 1.363 . S
N665 C667 1.371 . S
N665 C668 1.372 . S
N666 C668 1.361 . S
N666 C669 1.377 . S
C667 N664 1.382 . S
C667 N665 1.371 . S
C667 C670 1.480 . S
C668 N665 1.372 . S
C668 N666 1.361 . S
C668 C676 1.457 . S
C669 N664 1.363 . S
C669 N666 1.377 . S
C669 C682 1.479 . S
C670 C667 1.480 . S
C670 C671 1.383 . S
C670 C675 1.385 . S
C671 H652 0.947 . S
C671 C670 1.383 . S
C671 C672 1.388 . S
C672 H653 0.946 . S
C672 C671 1.388 . S
C672 C673 1.384 . S
C673 C672 1.384 . S
C673 C674 1.377 . S
C674 H654 0.953 . S
C674 C673 1.377 . S
C674 C675 1.369 . S
C675 H655 0.945 . S
C675 C670 1.385 . S
C675 C674 1.369 . S
C676 C668 1.457 . S
C676 C677 1.372 . S
C676 C681 1.364 . S
C677 H656 0.952 . S
C677 C676 1.372 . S
C677 C678 1.389 . S
C678 H657 0.949 . S
C678 C677 1.389 . S
C678 C679 1.387 . S
C679 C678 1.387 . S
C679 C680 1.372 . S
C680 H658 0.950 . S
C680 C679 1.372 . S
C680 C681 1.379 . S
C681 H659 0.948 . S
C681 C676 1.364 . S
C681 C680 1.379 . S
C682 C651 1.383 . S
C682 C669 1.479 . S
C682 C683 1.398 . S
C683 C648 1.382 . S
C683 H660 0.951 . S
C683 C682 1.398 . S
C684 C685 1.384 . S
C684 H697 0.947 . S
C684 C719 1.382 . S
C685 C684 1.384 . S
C685 C686 1.378 . S
C686 C685 1.378 . S
C686 C687 1.378 . S
C686 H698 0.952 . S
C687 C686 1.378 . S
C687 H699 0.950 . S
C687 C718 1.383 . S
H688 C707 0.947 . S
H689 C708 0.946 . S
H690 C710 0.953 . S
H691 C711 0.945 . S
H692 C713 0.952 . S
H693 C714 0.949 . S
H694 C716 0.950 . S
H695 C717 0.948 . S
H696 C719 0.951 . S
H697 C684 0.947 . S
H698 C686 0.952 . S
H699 C687 0.950 . S
N700 C703 1.382 . S
N700 C705 1.363 . S
N701 C703 1.371 . S
N701 C704 1.372 . S
N702 C704 1.361 . S
N702 C705 1.377 . S
C703 N700 1.382 . S
C703 N701 1.371 . S
C703 C706 1.480 . S
C704 N701 1.372 . S
C704 N702 1.361 . S
C704 C712 1.457 . S
C705 N700 1.363 . S
C705 N702 1.377 . S
C705 C718 1.479 . S
C706 C703 1.480 . S
C706 C707 1.383 . S
C706 C711 1.385 . S
C707 H688 0.947 . S
C707 C706 1.383 . S
C707 C708 1.388 . S
C708 H689 0.946 . S
C708 C707 1.388 . S
C708 C709 1.384 . S
C709 C708 1.384 . S
C709 C710 1.377 . S
C710 H690 0.953 . S
C710 C709 1.377 . S
C710 C711 1.369 . S
C711 H691 0.945 . S
C711 C706 1.385 . S
C711 C710 1.369 . S
C712 C704 1.457 . S
C712 C713 1.372 . S
C712 C717 1.364 . S
C713 H692 0.952 . S
C713 C712 1.372 . S
C713 C714 1.389 . S
C714 H693 0.949 . S
C714 C713 1.389 . S
C714 C715 1.387 . S
C715 C714 1.387 . S
C715 C716 1.372 . S
C716 H694 0.950 . S
C716 C715 1.372 . S
C716 C717 1.379 . S
C717 H695 0.948 . S
C717 C712 1.364 . S
C717 C716 1.379 . S
C718 C687 1.383 . S
C718 C705 1.479 . S
C718 C719 1.398 . S
C719 C684 1.382 . S
C719 H696 0.951 . S
C719 C718 1.398 . S
C720 C721 1.384 . S
C720 H733 0.947 . S
C720 C755 1.382 . S
C721 C720 1.384 . S
C721 C722 1.378 . S
C722 C721 1.378 . S
C722 C723 1.378 . S
C722 H734 0.952 . S
C723 C722 1.378 . S
C723 H735 0.950 . S
C723 C754 1.383 . S
H724 C743 0.947 . S
H725 C744 0.946 . S
H726 C746 0.953 . S
H727 C747 0.945 . S
H728 C749 0.952 . S
H729 C750 0.949 . S
H730 C752 0.950 . S
H731 C753 0.948 . S
H732 C755 0.951 . S
H733 C720 0.947 . S
H734 C722 0.952 . S
H735 C723 0.950 . S
N736 C739 1.382 . S
N736 C741 1.363 . S
N737 C739 1.371 . S
N737 C740 1.372 . S
N738 C740 1.361 . S
N738 C741 1.377 . S
C739 N736 1.382 . S
C739 N737 1.371 . S
C739 C742 1.480 . S
C740 N737 1.372 . S
C740 N738 1.361 . S
C740 C748 1.457 . S
C741 N736 1.363 . S
C741 N738 1.377 . S
C741 C754 1.479 . S
C742 C739 1.480 . S
C742 C743 1.383 . S
C742 C747 1.385 . S
C743 H724 0.947 . S
C743 C742 1.383 . S
C743 C744 1.388 . S
C744 H725 0.946 . S
C744 C743 1.388 . S
C744 C745 1.384 . S
C745 C744 1.384 . S
C745 C746 1.377 . S
C746 H726 0.953 . S
C746 C745 1.377 . S
C746 C747 1.369 . S
C747 H727 0.945 . S
C747 C742 1.385 . S
C747 C746 1.369 . S
C748 C740 1.457 . S
C748 C749 1.372 . S
C748 C753 1.364 . S
C749 H728 0.952 . S
C749 C748 1.372 . S
C749 C750 1.389 . S
C750 H729 0.949 . S
C750 C749 1.389 . S
C750 C751 1.387 . S
C751 C750 1.387 . S
C751 C752 1.372 . S
C752 H730 0.950 . S
C752 C751 1.372 . S
C752 C753 1.379 . S
C753 H731 0.948 . S
C753 C748 1.364 . S
C753 C752 1.379 . S
C754 C723 1.383 . S
C754 C741 1.479 . S
C754 C755 1.398 . S
C755 C720 1.382 . S
C755 H732 0.951 . S
C755 C754 1.398 . S
C756 C757 1.384 . S
C756 H769 0.947 . S
C756 C791 1.382 . S
C757 C756 1.384 . S
C757 C758 1.378 . S
C758 C757 1.378 . S
C758 C759 1.378 . S
C758 H770 0.952 . S
C759 C758 1.378 . S
C759 H771 0.950 . S
C759 C790 1.383 . S
H760 C779 0.947 . S
H761 C780 0.946 . S
H762 C782 0.953 . S
H763 C783 0.945 . S
H764 C785 0.952 . S
H765 C786 0.949 . S
H766 C788 0.950 . S
H767 C789 0.948 . S
H768 C791 0.951 . S
H769 C756 0.947 . S
H770 C758 0.952 . S
H771 C759 0.950 . S
N772 C775 1.382 . S
N772 C777 1.363 . S
N773 C775 1.371 . S
N773 C776 1.372 . S
N774 C776 1.361 . S
N774 C777 1.377 . S
C775 N772 1.382 . S
C775 N773 1.371 . S
C775 C778 1.480 . S
C776 N773 1.372 . S
C776 N774 1.361 . S
C776 C784 1.457 . S
C777 N772 1.363 . S
C777 N774 1.377 . S
C777 C790 1.479 . S
C778 C775 1.480 . S
C778 C779 1.383 . S
C778 C783 1.385 . S
C779 H760 0.947 . S
C779 C778 1.383 . S
C779 C780 1.388 . S
C780 H761 0.946 . S
C780 C779 1.388 . S
C780 C781 1.384 . S
C781 C780 1.384 . S
C781 C782 1.377 . S
C782 H762 0.953 . S
C782 C781 1.377 . S
C782 C783 1.369 . S
C783 H763 0.945 . S
C783 C778 1.385 . S
C783 C782 1.369 . S
C784 C776 1.457 . S
C784 C785 1.372 . S
C784 C789 1.364 . S
C785 H764 0.952 . S
C785 C784 1.372 . S
C785 C786 1.389 . S
C786 H765 0.949 . S
C786 C785 1.389 . S
C786 C787 1.387 . S
C787 C786 1.387 . S
C787 C788 1.372 . S
C788 H766 0.950 . S
C788 C787 1.372 . S
C788 C789 1.379 . S
C789 H767 0.948 . S
C789 C784 1.364 . S
C789 C788 1.379 . S
C790 C759 1.383 . S
C790 C777 1.479 . S
C790 C791 1.398 . S
C791 C756 1.382 . S
C791 H768 0.951 . S
C791 C790 1.398 . S
C792 C793 1.384 . S
C792 H805 0.947 . S
C792 C827 1.382 . S
C793 C792 1.384 . S
C793 C794 1.378 . S
C794 C793 1.378 . S
C794 C795 1.378 . S
C794 H806 0.952 . S
C795 C794 1.378 . S
C795 H807 0.950 . S
C795 C826 1.383 . S
H796 C815 0.947 . S
H797 C816 0.946 . S
H798 C818 0.953 . S
H799 C819 0.945 . S
H800 C821 0.952 . S
H801 C822 0.949 . S
H802 C824 0.950 . S
H803 C825 0.948 . S
H804 C827 0.951 . S
H805 C792 0.947 . S
H806 C794 0.952 . S
H807 C795 0.950 . S
N808 C811 1.382 . S
N808 C813 1.363 . S
N809 C811 1.371 . S
N809 C812 1.372 . S
N810 C812 1.361 . S
N810 C813 1.377 . S
C811 N808 1.382 . S
C811 N809 1.371 . S
C811 C814 1.480 . S
C812 N809 1.372 . S
C812 N810 1.361 . S
C812 C820 1.457 . S
C813 N808 1.363 . S
C813 N810 1.377 . S
C813 C826 1.479 . S
C814 C811 1.480 . S
C814 C815 1.383 . S
C814 C819 1.385 . S
C815 H796 0.947 . S
C815 C814 1.383 . S
C815 C816 1.388 . S
C816 H797 0.946 . S
C816 C815 1.388 . S
C816 C817 1.384 . S
C817 C816 1.384 . S
C817 C818 1.377 . S
C818 H798 0.953 . S
C818 C817 1.377 . S
C818 C819 1.369 . S
C819 H799 0.945 . S
C819 C814 1.385 . S
C819 C818 1.369 . S
C820 C812 1.457 . S
C820 C821 1.372 . S
C820 C825 1.364 . S
C821 H800 0.952 . S
C821 C820 1.372 . S
C821 C822 1.389 . S
C822 H801 0.949 . S
C822 C821 1.389 . S
C822 C823 1.387 . S
C823 C822 1.387 . S
C823 C824 1.372 . S
C824 H802 0.950 . S
C824 C823 1.372 . S
C824 C825 1.379 . S
C825 H803 0.948 . S
C825 C820 1.364 . S
C825 C824 1.379 . S
C826 C795 1.383 . S
C826 C813 1.479 . S
C826 C827 1.398 . S
C827 C792 1.382 . S
C827 H804 0.951 . S
C827 C826 1.398 . S
C828 C829 1.384 . S
C828 H841 0.947 . S
C828 C863 1.382 . S
C829 C828 1.384 . S
C829 C830 1.378 . S
C830 C829 1.378 . S
C830 C831 1.378 . S
C830 H842 0.952 . S
C831 C830 1.378 . S
C831 H843 0.950 . S
C831 C862 1.383 . S
H832 C851 0.947 . S
H833 C852 0.946 . S
H834 C854 0.953 . S
H835 C855 0.945 . S
H836 C857 0.952 . S
H837 C858 0.949 . S
H838 C860 0.950 . S
H839 C861 0.948 . S
H840 C863 0.951 . S
H841 C828 0.947 . S
H842 C830 0.952 . S
H843 C831 0.950 . S
N844 C847 1.382 . S
N844 C849 1.363 . S
N845 C847 1.371 . S
N845 C848 1.372 . S
N846 C848 1.361 . S
N846 C849 1.377 . S
C847 N844 1.382 . S
C847 N845 1.371 . S
C847 C850 1.480 . S
C848 N845 1.372 . S
C848 N846 1.361 . S
C848 C856 1.457 . S
C849 N844 1.363 . S
C849 N846 1.377 . S
C849 C862 1.479 . S
C850 C847 1.480 . S
C850 C851 1.383 . S
C850 C855 1.385 . S
C851 H832 0.947 . S
C851 C850 1.383 . S
C851 C852 1.388 . S
C852 H833 0.946 . S
C852 C851 1.388 . S
C852 C853 1.384 . S
C853 C852 1.384 . S
C853 C854 1.377 . S
C854 H834 0.953 . S
C854 C853 1.377 . S
C854 C855 1.369 . S
C855 H835 0.945 . S
C855 C850 1.385 . S
C855 C854 1.369 . S
C856 C848 1.457 . S
C856 C857 1.372 . S
C856 C861 1.364 . S
C857 H836 0.952 . S
C857 C856 1.372 . S
C857 C858 1.389 . S
C858 H837 0.949 . S
C858 C857 1.389 . S
C858 C859 1.387 . S
C859 C858 1.387 . S
C859 C860 1.372 . S
C860 H838 0.950 . S
C860 C859 1.372 . S
C860 C861 1.379 . S
C861 H839 0.948 . S
C861 C856 1.364 . S
C861 C860 1.379 . S
C862 C831 1.383 . S
C862 C849 1.479 . S
C862 C863 1.398 . S
C863 C828 1.382 . S
C863 H840 0.951 . S
C863 C862 1.398 . S
C864 C865 1.384 . S
C864 H877 0.947 . S
C864 C899 1.382 . S
C865 C864 1.384 . S
C865 C866 1.378 . S
C866 C865 1.378 . S
C866 C867 1.378 . S
C866 H878 0.952 . S
C867 C866 1.378 . S
C867 H879 0.950 . S
C867 C898 1.383 . S
H868 C887 0.947 . S
H869 C888 0.946 . S
H870 C890 0.953 . S
H871 C891 0.945 . S
H872 C893 0.952 . S
H873 C894 0.949 . S
H874 C896 0.950 . S
H875 C897 0.948 . S
H876 C899 0.951 . S
H877 C864 0.947 . S
H878 C866 0.952 . S
H879 C867 0.950 . S
N880 C883 1.382 . S
N880 C885 1.363 . S
N881 C883 1.371 . S
N881 C884 1.372 . S
N882 C884 1.361 . S
N882 C885 1.377 . S
C883 N880 1.382 . S
C883 N881 1.371 . S
C883 C886 1.480 . S
C884 N881 1.372 . S
C884 N882 1.361 . S
C884 C892 1.457 . S
C885 N880 1.363 . S
C885 N882 1.377 . S
C885 C898 1.479 . S
C886 C883 1.480 . S
C886 C887 1.383 . S
C886 C891 1.385 . S
C887 H868 0.947 . S
C887 C886 1.383 . S
C887 C888 1.388 . S
C888 H869 0.946 . S
C888 C887 1.388 . S
C888 C889 1.384 . S
C889 C888 1.384 . S
C889 C890 1.377 . S
C890 H870 0.953 . S
C890 C889 1.377 . S
C890 C891 1.369 . S
C891 H871 0.945 . S
C891 C886 1.385 . S
C891 C890 1.369 . S
C892 C884 1.457 . S
C892 C893 1.372 . S
C892 C897 1.364 . S
C893 H872 0.952 . S
C893 C892 1.372 . S
C893 C894 1.389 . S
C894 H873 0.949 . S
C894 C893 1.389 . S
C894 C895 1.387 . S
C895 C894 1.387 . S
C895 C896 1.372 . S
C896 H874 0.950 . S
C896 C895 1.372 . S
C896 C897 1.379 . S
C897 H875 0.948 . S
C897 C892 1.364 . S
C897 C896 1.379 . S
C898 C867 1.383 . S
C898 C885 1.479 . S
C898 C899 1.398 . S
C899 C864 1.382 . S
C899 H876 0.951 . S
C899 C898 1.398 . S
C900 C901 1.384 . S
C900 H913 0.947 . S
C900 C935 1.382 . S
C901 C900 1.384 . S
C901 C902 1.378 . S
C902 C901 1.378 . S
C902 C903 1.378 . S
C902 H914 0.952 . S
C903 C902 1.378 . S
C903 H915 0.950 . S
C903 C934 1.383 . S
H904 C923 0.947 . S
H905 C924 0.946 . S
H906 C926 0.953 . S
H907 C927 0.945 . S
H908 C929 0.952 . S
H909 C930 0.949 . S
H910 C932 0.950 . S
H911 C933 0.948 . S
H912 C935 0.951 . S
H913 C900 0.947 . S
H914 C902 0.952 . S
H915 C903 0.950 . S
N916 C919 1.382 . S
N916 C921 1.363 . S
N917 C919 1.371 . S
N917 C920 1.372 . S
N918 C920 1.361 . S
N918 C921 1.377 . S
C919 N916 1.382 . S
C919 N917 1.371 . S
C919 C922 1.480 . S
C920 N917 1.372 . S
C920 N918 1.361 . S
C920 C928 1.457 . S
C921 N916 1.363 . S
C921 N918 1.377 . S
C921 C934 1.479 . S
C922 C919 1.480 . S
C922 C923 1.383 . S
C922 C927 1.385 . S
C923 H904 0.947 . S
C923 C922 1.383 . S
C923 C924 1.388 . S
C924 H905 0.946 . S
C924 C923 1.388 . S
C924 C925 1.384 . S
C925 C924 1.384 . S
C925 C926 1.377 . S
C926 H906 0.953 . S
C926 C925 1.377 . S
C926 C927 1.369 . S
C927 H907 0.945 . S
C927 C922 1.385 . S
C927 C926 1.369 . S
C928 C920 1.457 . S
C928 C929 1.372 . S
C928 C933 1.364 . S
C929 H908 0.952 . S
C929 C928 1.372 . S
C929 C930 1.389 . S
C930 H909 0.949 . S
C930 C929 1.389 . S
C930 C931 1.387 . S
C931 C930 1.387 . S
C931 C932 1.372 . S
C932 H910 0.950 . S
C932 C931 1.372 . S
C932 C933 1.379 . S
C933 H911 0.948 . S
C933 C928 1.364 . S
C933 C932 1.379 . S
C934 C903 1.383 . S
C934 C921 1.479 . S
C934 C935 1.398 . S
C935 C900 1.382 . S
C935 H912 0.951 . S
C935 C934 1.398 . S
C936 C937 1.384 . S
C936 H949 0.947 . S
C936 C971 1.382 . S
C937 C936 1.384 . S
C937 C938 1.378 . S
C938 C937 1.378 . S
C938 C939 1.378 . S
C938 H950 0.952 . S
C939 C938 1.378 . S
C939 H951 0.950 . S
C939 C970 1.383 . S
H940 C959 0.947 . S
H941 C960 0.946 . S
H942 C962 0.953 . S
H943 C963 0.945 . S
H944 C965 0.952 . S
H945 C966 0.949 . S
H946 C968 0.950 . S
H947 C969 0.948 . S
H948 C971 0.951 . S
H949 C936 0.947 . S
H950 C938 0.952 . S
H951 C939 0.950 . S
N952 C955 1.382 . S
N952 C957 1.363 . S
N953 C955 1.371 . S
N953 C956 1.372 . S
N954 C956 1.361 . S
N954 C957 1.377 . S
C955 N952 1.382 . S
C955 N953 1.371 . S
C955 C958 1.480 . S
C956 N953 1.372 . S
C956 N954 1.361 . S
C956 C964 1.457 . S
C957 N952 1.363 . S
C957 N954 1.377 . S
C957 C970 1.479 . S
C958 C955 1.480 . S
C958 C959 1.383 . S
C958 C963 1.385 . S
C959 H940 0.947 . S
C959 C958 1.383 . S
C959 C960 1.388 . S
C960 H941 0.946 . S
C960 C959 1.388 . S
C960 C961 1.384 . S
C961 C960 1.384 . S
C961 C962 1.377 . S
C962 H942 0.953 . S
C962 C961 1.377 . S
C962 C963 1.369 . S
C963 H943 0.945 . S
C963 C958 1.385 . S
C963 C962 1.369 . S
C964 C956 1.457 . S
C964 C965 1.372 . S
C964 C969 1.364 . S
C965 H944 0.952 . S
C965 C964 1.372 . S
C965 C966 1.389 . S
C966 H945 0.949 . S
C966 C965 1.389 . S
C966 C967 1.387 . S
C967 C966 1.387 . S
C967 C968 1.372 . S
C968 H946 0.950 . S
C968 C967 1.372 . S
C968 C969 1.379 . S
C969 H947 0.948 . S
C969 C964 1.364 . S
C969 C968 1.379 . S
C970 C939 1.383 . S
C970 C957 1.479 . S
C970 C971 1.398 . S
C971 C936 1.382 . S
C971 H948 0.951 . S
C971 C970 1.398 . S
C972 C973 1.384 . S
C972 H985 0.947 . S
C972 C1007 1.382 . S
C973 C972 1.384 . S
C973 C974 1.378 . S
C974 C973 1.378 . S
C974 C975 1.378 . S
C974 H986 0.952 . S
C975 C974 1.378 . S
C975 H987 0.950 . S
C975 C1006 1.383 . S
H976 C995 0.947 . S
H977 C996 0.946 . S
H978 C998 0.953 . S
H979 C999 0.945 . S
H980 C1001 0.952 . S
H981 C1002 0.949 . S
H982 C1004 0.950 . S
H983 C1005 0.948 . S
H984 C1007 0.951 . S
H985 C972 0.947 . S
H986 C974 0.952 . S
H987 C975 0.950 . S
N988 C991 1.382 . S
N988 C993 1.363 . S
N989 C991 1.371 . S
N989 C992 1.372 . S
N990 C992 1.361 . S
N990 C993 1.377 . S
C991 N988 1.382 . S
C991 N989 1.371 . S
C991 C994 1.480 . S
C992 N989 1.372 . S
C992 N990 1.361 . S
C992 C1000 1.457 . S
C993 N988 1.363 . S
C993 N990 1.377 . S
C993 C1006 1.479 . S
C994 C991 1.480 . S
C994 C995 1.383 . S
C994 C999 1.385 . S
C995 H976 0.947 . S
C995 C994 1.383 . S
C995 C996 1.388 . S
C996 H977 0.946 . S
C996 C995 1.388 . S
C996 C997 1.384 . S
C997 C996 1.384 . S
C997 C998 1.377 . S
C998 H978 0.953 . S
C998 C997 1.377 . S
C998 C999 1.369 . S
C999 H979 0.945 . S
C999 C994 1.385 . S
C999 C998 1.369 . S
C1000 C992 1.457 . S
C1000 C1001 1.372 . S
C1000 C1005 1.364 . S
C1001 H980 0.952 . S
C1001 C1000 1.372 . S
C1001 C1002 1.389 . S
C1002 H981 0.949 . S
C1002 C1001 1.389 . S
C1002 C1003 1.387 . S
C1003 C1002 1.387 . S
C1003 C1004 1.372 . S
C1004 H982 0.950 . S
C1004 C1003 1.372 . S
C1004 C1005 1.379 . S
C1005 H983 0.948 . S
C1005 C1000 1.364 . S
C1005 C1004 1.379 . S
C1006 C975 1.383 . S
C1006 C993 1.479 . S
C1006 C1007 1.398 . S
C1007 C972 1.382 . S
C1007 H984 0.951 . S
C1007 C1006 1.398 . S
C1008 C1009 1.384 . S
C1008 H1021 0.947 . S
C1008 C1043 1.382 . S
C1009 C1008 1.384 . S
C1009 C1010 1.378 . S
C1010 C1009 1.378 . S
C1010 C1011 1.378 . S
C1010 H1022 0.952 . S
C1011 C1010 1.378 . S
C1011 H1023 0.950 . S
C1011 C1042 1.383 . S
H1012 C1031 0.947 . S
H1013 C1032 0.946 . S
H1014 C1034 0.953 . S
H1015 C1035 0.945 . S
H1016 C1037 0.952 . S
H1017 C1038 0.949 . S
H1018 C1040 0.950 . S
H1019 C1041 0.948 . S
H1020 C1043 0.951 . S
H1021 C1008 0.947 . S
H1022 C1010 0.952 . S
H1023 C1011 0.950 . S
N1024 C1027 1.382 . S
N1024 C1029 1.363 . S
N1025 C1027 1.371 . S
N1025 C1028 1.372 . S
N1026 C1028 1.361 . S
N1026 C1029 1.377 . S
C1027 N1024 1.382 . S
C1027 N1025 1.371 . S
C1027 C1030 1.480 . S
C1028 N1025 1.372 . S
C1028 N1026 1.361 . S
C1028 C1036 1.457 . S
C1029 N1024 1.363 . S
C1029 N1026 1.377 . S
C1029 C1042 1.479 . S
C1030 C1027 1.480 . S
C1030 C1031 1.383 . S
C1030 C1035 1.385 . S
C1031 H1012 0.947 . S
C1031 C1030 1.383 . S
C1031 C1032 1.388 . S
C1032 H1013 0.946 . S
C1032 C1031 1.388 . S
C1032 C1033 1.384 . S
C1033 C1032 1.384 . S
C1033 C1034 1.377 . S
C1034 H1014 0.953 . S
C1034 C1033 1.377 . S
C1034 C1035 1.369 . S
C1035 H1015 0.945 . S
C1035 C1030 1.385 . S
C1035 C1034 1.369 . S
C1036 C1028 1.457 . S
C1036 C1037 1.372 . S
C1036 C1041 1.364 . S
C1037 H1016 0.952 . S
C1037 C1036 1.372 . S
C1037 C1038 1.389 . S
C1038 H1017 0.949 . S
C1038 C1037 1.389 . S
C1038 C1039 1.387 . S
C1039 C1038 1.387 . S
C1039 C1040 1.372 . S
C1040 H1018 0.950 . S
C1040 C1039 1.372 . S
C1040 C1041 1.379 . S
C1041 H1019 0.948 . S
C1041 C1036 1.364 . S
C1041 C1040 1.379 . S
C1042 C1011 1.383 . S
C1042 C1029 1.479 . S
C1042 C1043 1.398 . S
C1043 C1008 1.382 . S
C1043 H1020 0.951 . S
C1043 C1042 1.398 . S
C1044 C1045 1.384 . S
C1044 H1057 0.947 . S
C1044 C1079 1.382 . S
C1045 C1044 1.384 . S
C1045 C1046 1.378 . S
C1046 C1045 1.378 . S
C1046 C1047 1.378 . S
C1046 H1058 0.952 . S
C1047 C1046 1.378 . S
C1047 H1059 0.950 . S
C1047 C1078 1.383 . S
H1048 C1067 0.947 . S
H1049 C1068 0.946 . S
H1050 C1070 0.953 . S
H1051 C1071 0.945 . S
H1052 C1073 0.952 . S
H1053 C1074 0.949 . S
H1054 C1076 0.950 . S
H1055 C1077 0.948 . S
H1056 C1079 0.951 . S
H1057 C1044 0.947 . S
H1058 C1046 0.952 . S
H1059 C1047 0.950 . S
N1060 C1063 1.382 . S
N1060 C1065 1.363 . S
N1061 C1063 1.371 . S
N1061 C1064 1.372 . S
N1062 C1064 1.361 . S
N1062 C1065 1.377 . S
C1063 N1060 1.382 . S
C1063 N1061 1.371 . S
C1063 C1066 1.480 . S
C1064 N1061 1.372 . S
C1064 N1062 1.361 . S
C1064 C1072 1.457 . S
C1065 N1060 1.363 . S
C1065 N1062 1.377 . S
C1065 C1078 1.479 . S
C1066 C1063 1.480 . S
C1066 C1067 1.383 . S
C1066 C1071 1.385 . S
C1067 H1048 0.947 . S
C1067 C1066 1.383 . S
C1067 C1068 1.388 . S
C1068 H1049 0.946 . S
C1068 C1067 1.388 . S
C1068 C1069 1.384 . S
C1069 C1068 1.384 . S
C1069 C1070 1.377 . S
C1070 H1050 0.953 . S
C1070 C1069 1.377 . S
C1070 C1071 1.369 . S
C1071 H1051 0.945 . S
C1071 C1066 1.385 . S
C1071 C1070 1.369 . S
C1072 C1064 1.457 . S
C1072 C1073 1.372 . S
C1072 C1077 1.364 . S
C1073 H1052 0.952 . S
C1073 C1072 1.372 . S
C1073 C1074 1.389 . S
C1074 H1053 0.949 . S
C1074 C1073 1.389 . S
C1074 C1075 1.387 . S
C1075 C1074 1.387 . S
C1075 C1076 1.372 . S
C1076 H1054 0.950 . S
C1076 C1075 1.372 . S
C1076 C1077 1.379 . S
C1077 H1055 0.948 . S
C1077 C1072 1.364 . S
C1077 C1076 1.379 . S
C1078 C1047 1.383 . S
C1078 C1065 1.479 . S
C1078 C1079 1.398 . S
C1079 C1044 1.382 . S
C1079 H1056 0.951 . S
C1079 C1078 1.398 . S
C1080 C1081 1.384 . S
C1080 H1093 0.947 . S
C1080 C1115 1.382 . S
C1081 C1080 1.384 . S
C1081 C1082 1.378 . S
C1082 C1081 1.378 . S
C1082 C1083 1.378 . S
C1082 H1094 0.952 . S
C1083 C1082 1.378 . S
C1083 H1095 0.950 . S
C1083 C1114 1.383 . S
H1084 C1103 0.947 . S
H1085 C1104 0.946 . S
H1086 C1106 0.953 . S
H1087 C1107 0.945 . S
H1088 C1109 0.952 . S
H1089 C1110 0.949 . S
H1090 C1112 0.950 . S
H1091 C1113 0.948 . S
H1092 C1115 0.951 . S
H1093 C1080 0.947 . S
H1094 C1082 0.952 . S
H1095 C1083 0.950 . S
N1096 C1099 1.382 . S
N1096 C1101 1.363 . S
N1097 C1099 1.371 . S
N1097 C1100 1.372 . S
N1098 C1100 1.361 . S
N1098 C1101 1.377 . S
C1099 N1096 1.382 . S
C1099 N1097 1.371 . S
C1099 C1102 1.480 . S
C1100 N1097 1.372 . S
C1100 N1098 1.361 . S
C1100 C1108 1.457 . S
C1101 N1096 1.363 . S
C1101 N1098 1.377 . S
C1101 C1114 1.479 . S
C1102 C1099 1.480 . S
C1102 C1103 1.383 . S
C1102 C1107 1.385 . S
C1103 H1084 0.947 . S
C1103 C1102 1.383 . S
C1103 C1104 1.388 . S
C1104 H1085 0.946 . S
C1104 C1103 1.388 . S
C1104 C1105 1.384 . S
C1105 C1104 1.384 . S
C1105 C1106 1.377 . S
C1106 H1086 0.953 . S
C1106 C1105 1.377 . S
C1106 C1107 1.369 . S
C1107 H1087 0.945 . S
C1107 C1102 1.385 . S
C1107 C1106 1.369 . S
C1108 C1100 1.457 . S
C1108 C1109 1.372 . S
C1108 C1113 1.364 . S
C1109 H1088 0.952 . S
C1109 C1108 1.372 . S
C1109 C1110 1.389 . S
C1110 H1089 0.949 . S
C1110 C1109 1.389 . S
C1110 C1111 1.387 . S
C1111 C1110 1.387 . S
C1111 C1112 1.372 . S
C1112 H1090 0.950 . S
C1112 C1111 1.372 . S
C1112 C1113 1.379 . S
C1113 H1091 0.948 . S
C1113 C1108 1.364 . S
C1113 C1112 1.379 . S
C1114 C1083 1.383 . S
C1114 C1101 1.479 . S
C1114 C1115 1.398 . S
C1115 C1080 1.382 . S
C1115 H1092 0.951 . S
C1115 C1114 1.398 . S
C1116 C1117 1.384 . S
C1116 H1129 0.947 . S
C1116 C1151 1.382 . S
C1117 C1116 1.384 . S
C1117 C1118 1.378 . S
C1118 C1117 1.378 . S
C1118 C1119 1.378 . S
C1118 H1130 0.952 . S
C1119 C1118 1.378 . S
C1119 H1131 0.950 . S
C1119 C1150 1.383 . S
H1120 C1139 0.947 . S
H1121 C1140 0.946 . S
H1122 C1142 0.953 . S
H1123 C1143 0.945 . S
H1124 C1145 0.952 . S
H1125 C1146 0.949 . S
H1126 C1148 0.950 . S
H1127 C1149 0.948 . S
H1128 C1151 0.951 . S
H1129 C1116 0.947 . S
H1130 C1118 0.952 . S
H1131 C1119 0.950 . S
N1132 C1135 1.382 . S
N1132 C1137 1.363 . S
N1133 C1135 1.371 . S
N1133 C1136 1.372 . S
N1134 C1136 1.361 . S
N1134 C1137 1.377 . S
C1135 N1132 1.382 . S
C1135 N1133 1.371 . S
C1135 C1138 1.480 . S
C1136 N1133 1.372 . S
C1136 N1134 1.361 . S
C1136 C1144 1.457 . S
C1137 N1132 1.363 . S
C1137 N1134 1.377 . S
C1137 C1150 1.479 . S
C1138 C1135 1.480 . S
C1138 C1139 1.383 . S
C1138 C1143 1.385 . S
C1139 H1120 0.947 . S
C1139 C1138 1.383 . S
C1139 C1140 1.388 . S
C1140 H1121 0.946 . S
C1140 C1139 1.388 . S
C1140 C1141 1.384 . S
C1141 C1140 1.384 . S
C1141 C1142 1.377 . S
C1142 H1122 0.953 . S
C1142 C1141 1.377 . S
C1142 C1143 1.369 . S
C1143 H1123 0.945 . S
C1143 C1138 1.385 . S
C1143 C1142 1.369 . S
C1144 C1136 1.457 . S
C1144 C1145 1.372 . S
C1144 C1149 1.364 . S
C1145 H1124 0.952 . S
C1145 C1144 1.372 . S
C1145 C1146 1.389 . S
C1146 H1125 0.949 . S
C1146 C1145 1.389 . S
C1146 C1147 1.387 . S
C1147 C1146 1.387 . S
C1147 C1148 1.372 . S
C1148 H1126 0.950 . S
C1148 C1147 1.372 . S
C1148 C1149 1.379 . S
C1149 H1127 0.948 . S
C1149 C1144 1.364 . S
C1149 C1148 1.379 . S
C1150 C1119 1.383 . S
C1150 C1137 1.479 . S
C1150 C1151 1.398 . S
C1151 C1116 1.382 . S
C1151 H1128 0.951 . S
C1151 C1150 1.398 . S
Cu1152 N1153 1.999 . S
Cu1152 O1158 1.974 1_554 S
Cu1152 N1163 1.985 . S
Cu1152 O1172 1.959 . S
N1153 Cu1152 1.999 . S
N1153 C1155 1.263 1_554 S
N1153 C1157 1.389 . S
N1154 C1155 1.358 . S
N1154 C1156 1.400 . S
C1155 N1153 1.263 1_556 S
C1155 N1154 1.358 . S
C1155 H1161 0.930 . S
C1156 N1154 1.400 . S
C1156 C1157 1.351 1_556 S
C1156 H1173 0.930 . S
C1157 N1153 1.389 . S
C1157 C1156 1.351 1_554 S
C1157 H1162 0.930 . S
O1158 Cu1152 1.974 1_556 S
O1158 C1168 1.282 . S
C1159 O1160 1.261 . S
C1159 O1172 1.251 . S
O1160 C1159 1.261 . S
H1161 C1155 0.930 . S
H1162 C1157 0.930 . S
N1163 Cu1152 1.985 . S
N1163 C1165 1.335 . S
N1163 C1166 1.390 . S
N1164 C1165 1.345 . S
N1164 C1167 1.336 . S
C1165 N1163 1.335 . S
C1165 N1164 1.345 . S
C1165 H1170 0.930 . S
C1166 N1163 1.390 . S
C1166 C1167 1.346 . S
C1166 H1171 0.930 . S
C1167 N1164 1.336 . S
C1167 C1166 1.346 . S
C1167 H1174 0.929 . S
C1168 O1158 1.282 . S
C1168 O1169 1.216 . S
O1169 C1168 1.216 . S
H1170 C1165 0.930 . S
H1171 C1166 0.930 . S
O1172 Cu1152 1.959 . S
O1172 C1159 1.251 . S
H1173 C1156 0.930 . S
H1174 C1167 0.929 . S
Cu1175 N1176 1.999 . S
Cu1175 O1181 1.974 . S
Cu1175 N1186 1.985 1_554 S
Cu1175 O1195 1.959 1_554 S
N1176 Cu1175 1.999 . S
N1176 C1178 1.263 . S
N1176 C1180 1.389 . S
N1177 C1178 1.358 . S
N1177 C1179 1.400 . S
C1178 N1176 1.263 . S
C1178 N1177 1.358 . S
C1178 H1184 0.930 . S
C1179 N1177 1.400 . S
C1179 C1180 1.351 . S
C1179 H1196 0.930 . S
C1180 N1176 1.389 . S
C1180 C1179 1.351 . S
C1180 H1185 0.930 . S
O1181 Cu1175 1.974 . S
O1181 C1191 1.282 . S
C1182 O1183 1.261 . S
C1182 O1195 1.251 . S
O1183 C1182 1.261 . S
H1184 C1178 0.930 . S
H1185 C1180 0.930 . S
N1186 Cu1175 1.985 1_556 S
N1186 C1188 1.335 . S
N1186 C1189 1.390 . S
N1187 C1188 1.345 . S
N1187 C1190 1.336 . S
C1188 N1186 1.335 . S
C1188 N1187 1.345 . S
C1188 H1193 0.930 . S
C1189 N1186 1.390 . S
C1189 C1190 1.346 . S
C1189 H1194 0.930 1_556 S
C1190 N1187 1.336 . S
C1190 C1189 1.346 . S
C1190 H1197 0.929 . S
C1191 O1181 1.282 . S
C1191 O1192 1.216 . S
O1192 C1191 1.216 . S
H1193 C1188 0.930 . S
H1194 C1189 0.930 1_554 S
O1195 Cu1175 1.959 1_556 S
O1195 C1182 1.251 . S
H1196 C1179 0.930 . S
H1197 C1190 0.929 . S
Cu1198 N1199 1.999 1_554 S
Cu1198 O1204 1.974 1_554 S
Cu1198 N1209 1.985 . S
Cu1198 O1218 1.959 . S
N1199 Cu1198 1.999 1_556 S
N1199 C1201 1.263 . S
N1199 C1203 1.389 . S
N1200 C1201 1.358 . S
N1200 C1202 1.400 . S
C1201 N1199 1.263 . S
C1201 N1200 1.358 . S
C1201 H1207 0.930 . S
C1202 N1200 1.400 . S
C1202 C1203 1.351 . S
C1202 H1219 0.930 . S
C1203 N1199 1.389 . S
C1203 C1202 1.351 . S
C1203 H1208 0.963 . S
O1204 Cu1198 1.974 1_556 S
O1204 C1214 1.282 . S
C1205 O1206 1.261 . S
C1205 O1218 1.251 . S
O1206 C1205 1.261 . S
H1207 C1201 0.930 . S
H1208 C1203 0.963 . S
N1209 Cu1198 1.985 . S
N1209 C1211 1.335 . S
N1209 C1212 1.390 . S
N1210 C1211 1.345 . S
N1210 C1213 1.336 . S
C1211 N1209 1.335 . S
C1211 N1210 1.345 . S
C1211 H1216 0.930 . S
C1212 N1209 1.390 . S
C1212 C1213 1.346 . S
C1212 H1217 0.938 . S
C1213 N1210 1.336 . S
C1213 C1212 1.346 . S
C1213 H1220 0.929 . S
C1214 O1204 1.282 . S
C1214 O1215 1.216 . S
O1215 C1214 1.216 . S
H1216 C1211 0.930 . S
H1217 C1212 0.938 . S
O1218 Cu1198 1.959 . S
O1218 C1205 1.251 . S
H1219 C1202 0.930 . S
H1220 C1213 0.929 . S
Cu1221 N1222 2.005 . S
Cu1221 O1227 1.980 . S
Cu1221 N1232 1.980 1_554 S
Cu1221 O1241 1.953 1_554 S
N1222 Cu1221 2.005 . S
N1222 C1224 1.263 . S
N1222 C1226 1.389 . S
N1223 C1224 1.358 . S
N1223 C1225 1.400 . S
C1224 N1222 1.263 . S
C1224 N1223 1.358 . S
C1224 H1230 0.930 . S
C1225 N1223 1.400 . S
C1225 C1226 1.351 . S
C1225 H1242 0.930 . S
C1226 N1222 1.389 . S
C1226 C1225 1.351 . S
C1226 H1231 0.930 . S
O1227 Cu1221 1.980 . S
O1227 C1237 1.282 . S
C1228 O1229 1.261 . S
C1228 O1241 1.251 . S
O1229 C1228 1.261 . S
H1230 C1224 0.930 . S
H1231 C1226 0.930 . S
N1232 Cu1221 1.980 1_556 S
N1232 C1234 1.335 . S
N1232 C1235 1.390 . S
N1233 C1234 1.345 . S
N1233 C1236 1.336 . S
C1234 N1232 1.335 . S
C1234 N1233 1.345 . S
C1234 H1239 0.930 . S
C1235 N1232 1.390 . S
C1235 C1236 1.346 . S
C1235 H1240 0.878 1_556 S
C1236 N1233 1.336 . S
C1236 C1235 1.346 . S
C1236 H1243 0.929 . S
C1237 O1227 1.282 . S
C1237 O1238 1.216 . S
O1238 C1237 1.216 . S
H1239 C1234 0.930 . S
H1240 C1235 0.878 1_554 S
O1241 Cu1221 1.953 1_556 S
O1241 C1228 1.251 . S
H1242 C1225 0.930 . S
H1243 C1236 0.929 . S
Cu1244 N1245 1.999 . S
Cu1244 O1250 1.974 . S
Cu1244 N1255 1.985 1_455 S
Cu1244 O1264 1.959 1_455 S
N1245 Cu1244 1.999 . S
N1245 C1247 1.263 . S
N1245 C1249 1.389 . S
N1246 C1247 1.358 . S
N1246 C1248 1.400 . S
C1247 N1245 1.263 . S
C1247 N1246 1.358 . S
C1247 H1253 0.930 . S
C1248 N1246 1.400 . S
C1248 C1249 1.351 . S
C1248 H1265 0.930 . S
C1249 N1245 1.389 . S
C1249 C1248 1.351 . S
C1249 H1254 0.930 . S
O1250 Cu1244 1.974 . S
O1250 C1260 1.282 . S
C1251 O1252 1.261 . S
C1251 O1264 1.251 . S
O1252 C1251 1.261 . S
H1253 C1247 0.930 . S
H1254 C1249 0.930 . S
N1255 Cu1244 1.985 1_655 S
N1255 C1257 1.335 . S
N1255 C1258 1.390 1_655 S
N1256 C1257 1.345 . S
N1256 C1259 1.336 . S
C1257 N1255 1.335 . S
C1257 N1256 1.345 . S
C1257 H1262 0.930 . S
C1258 N1255 1.390 1_455 S
C1258 C1259 1.346 1_455 S
C1258 H1263 0.930 . S
C1259 N1256 1.336 . S
C1259 C1258 1.346 1_655 S
C1259 H1266 0.929 . S
C1260 O1250 1.282 . S
C1260 O1261 1.216 . S
O1261 C1260 1.216 . S
H1262 C1257 0.930 . S
H1263 C1258 0.930 . S
O1264 Cu1244 1.959 1_655 S
O1264 C1251 1.251 . S
H1265 C1248 0.930 . S
H1266 C1259 0.929 . S
Cu1267 N1268 1.999 . S
Cu1267 O1273 1.974 . S
Cu1267 N1278 1.985 1_545 S
Cu1267 O1287 1.959 1_545 S
N1268 Cu1267 1.999 . S
N1268 C1270 1.263 . S
N1268 C1272 1.389 . S
N1269 C1270 1.358 . S
N1269 C1271 1.400 . S
C1270 N1268 1.263 . S
C1270 N1269 1.358 . S
C1270 H1276 0.930 . S
C1271 N1269 1.400 . S
C1271 C1272 1.351 . S
C1271 H1288 0.930 . S
C1272 N1268 1.389 . S
C1272 C1271 1.351 . S
C1272 H1277 0.930 . S
O1273 Cu1267 1.974 . S
O1273 C1283 1.282 . S
C1274 O1275 1.261 . S
C1274 O1287 1.251 . S
O1275 C1274 1.261 . S
H1276 C1270 0.930 . S
H1277 C1272 0.930 . S
N1278 Cu1267 1.985 1_565 S
N1278 C1280 1.335 . S
N1278 C1281 1.390 . S
N1279 C1280 1.345 . S
N1279 C1282 1.336 . S
C1280 N1278 1.335 . S
C1280 N1279 1.345 . S
C1280 H1285 0.930 . S
C1281 N1278 1.390 . S
C1281 C1282 1.346 . S
C1281 H1286 0.930 1_565 S
C1282 N1279 1.336 . S
C1282 C1281 1.346 . S
C1282 H1289 0.929 . S
C1283 O1273 1.282 . S
C1283 O1284 1.216 . S
O1284 C1283 1.216 . S
H1285 C1280 0.930 . S
H1286 C1281 0.930 1_545 S
O1287 Cu1267 1.959 1_565 S
O1287 C1274 1.251 . S
H1288 C1271 0.930 . S
H1289 C1282 0.929 . S
Cu1290 N1291 2.000 . S
Cu1290 O1296 1.975 . S
Cu1290 N1301 1.984 1_655 S
Cu1290 O1310 1.958 1_655 S
N1291 Cu1290 2.000 . S
N1291 C1293 1.263 . S
N1291 C1295 1.389 . S
N1292 C1293 1.358 . S
N1292 C1294 1.400 . S
C1293 N1291 1.263 . S
C1293 N1292 1.358 . S
C1293 H1299 0.930 . S
C1294 N1292 1.400 . S
C1294 C1295 1.351 . S
C1294 H1311 0.930 . S
C1295 N1291 1.389 . S
C1295 C1294 1.351 . S
C1295 H1300 0.930 . S
O1296 Cu1290 1.975 . S
O1296 C1306 1.282 . S
C1297 O1298 1.261 . S
C1297 O1310 1.251 . S
O1298 C1297 1.261 . S
H1299 C1293 0.930 . S
H1300 C1295 0.930 . S
N1301 Cu1290 1.984 1_455 S
N1301 C1303 1.335 . S
N1301 C1304 1.390 . S
N1302 C1303 1.345 . S
N1302 C1305 1.336 . S
C1303 N1301 1.335 . S
C1303 N1302 1.345 . S
C1303 H1308 0.930 . S
C1304 N1301 1.390 . S
C1304 C1305 1.346 . S
C1304 H1309 0.930 . S
C1305 N1302 1.336 . S
C1305 C1304 1.346 . S
C1305 H1312 0.929 . S
C1306 O1296 1.282 . S
C1306 O1307 1.216 . S
O1307 C1306 1.216 . S
H1308 C1303 0.930 . S
H1309 C1304 0.930 . S
O1310 Cu1290 1.958 1_455 S
O1310 C1297 1.251 . S
H1311 C1294 0.930 . S
H1312 C1305 0.929 . S
Cu1313 N1314 1.984 1_565 S
Cu1313 O1319 1.955 1_565 S
Cu1313 N1324 1.999 . S
Cu1313 O1333 1.978 . S
N1314 Cu1313 1.984 1_545 S
N1314 C1316 1.263 . S
N1314 C1318 1.389 . S
N1315 C1316 1.358 . S
N1315 C1317 1.400 . S
C1316 N1314 1.263 . S
C1316 N1315 1.358 . S
C1316 H1322 0.930 . S
C1317 N1315 1.400 . S
C1317 C1318 1.351 . S
C1317 H1334 0.930 . S
C1318 N1314 1.389 . S
C1318 C1317 1.351 . S
C1318 H1323 0.930 . S
O1319 Cu1313 1.955 1_545 S
O1319 C1329 1.282 . S
C1320 O1321 1.261 . S
C1320 O1333 1.251 . S
O1321 C1320 1.261 . S
H1322 C1316 0.930 . S
H1323 C1318 0.930 . S
N1324 Cu1313 1.999 . S
N1324 C1326 1.335 . S
N1324 C1327 1.390 . S
N1325 C1326 1.345 . S
N1325 C1328 1.336 . S
C1326 N1324 1.335 . S
C1326 N1325 1.345 . S
C1326 H1331 0.930 . S
C1327 N1324 1.390 . S
C1327 C1328 1.346 . S
C1327 H1332 0.930 . S
C1328 N1325 1.336 . S
C1328 C1327 1.346 . S
C1328 H1335 0.929 . S
C1329 O1319 1.282 . S
C1329 O1330 1.216 . S
O1330 C1329 1.216 . S
H1331 C1326 0.930 . S
H1332 C1327 0.930 . S
O1333 Cu1313 1.978 . S
O1333 C1320 1.251 . S
H1334 C1317 0.930 . S
H1335 C1328 0.929 . S
Cu1336 N1337 1.999 . S
Cu1336 O1342 1.974 . S
Cu1336 N1347 1.985 1_455 S
Cu1336 O1356 1.959 1_455 S
N1337 Cu1336 1.999 . S
N1337 C1339 1.263 . S
N1337 C1341 1.389 . S
N1338 C1339 1.358 . S
N1338 C1340 1.400 . S
C1339 N1337 1.263 . S
C1339 N1338 1.358 . S
C1339 H1345 0.930 . S
C1340 N1338 1.400 . S
C1340 C1341 1.351 . S
C1340 H1357 0.930 . S
C1341 N1337 1.389 . S
C1341 C1340 1.351 . S
C1341 H1346 0.930 . S
O1342 Cu1336 1.974 . S
O1342 C1352 1.282 . S
C1343 O1344 1.261 . S
C1343 O1356 1.251 . S
O1344 C1343 1.261 . S
H1345 C1339 0.930 . S
H1346 C1341 0.930 . S
N1347 Cu1336 1.985 1_655 S
N1347 C1349 1.335 . S
N1347 C1350 1.387 1_655 S
N1348 C1349 1.345 . S
N1348 C1351 1.336 . S
C1349 N1347 1.335 . S
C1349 N1348 1.345 . S
C1349 H1354 0.930 . S
C1350 N1347 1.387 1_455 S
C1350 C1351 1.331 1_455 S
C1350 H1355 0.946 . S
C1351 N1348 1.336 . S
C1351 C1350 1.331 1_655 S
C1351 H1358 0.929 . S
C1352 O1342 1.282 . S
C1352 O1353 1.216 . S
O1353 C1352 1.216 . S
H1354 C1349 0.930 . S
H1355 C1350 0.946 . S
O1356 Cu1336 1.959 1_655 S
O1356 C1343 1.251 . S
H1357 C1340 0.930 . S
H1358 C1351 0.929 . S
Cu1359 N1360 1.999 . S
Cu1359 O1365 1.974 . S
Cu1359 N1370 1.985 1_545 S
Cu1359 O1379 1.959 1_545 S
N1360 Cu1359 1.999 . S
N1360 C1362 1.263 . S
N1360 C1364 1.389 . S
N1361 C1362 1.358 . S
N1361 C1363 1.400 . S
C1362 N1360 1.263 . S
C1362 N1361 1.358 . S
C1362 H1368 0.930 . S
C1363 N1361 1.400 . S
C1363 C1364 1.351 . S
C1363 H1380 0.930 . S
C1364 N1360 1.389 . S
C1364 C1363 1.351 . S
C1364 H1369 0.930 . S
O1365 Cu1359 1.974 . S
O1365 C1375 1.282 . S
C1366 O1367 1.261 . S
C1366 O1379 1.251 . S
O1367 C1366 1.261 . S
H1368 C1362 0.930 . S
H1369 C1364 0.930 . S
N1370 Cu1359 1.985 1_565 S
N1370 C1372 1.335 . S
N1370 C1373 1.390 1_565 S
N1371 C1372 1.345 . S
N1371 C1374 1.336 . S
C1372 N1370 1.335 . S
C1372 N1371 1.345 . S
C1372 H1377 0.930 . S
C1373 N1370 1.390 1_545 S
C1373 C1374 1.346 1_545 S
C1373 H1378 0.930 . S
C1374 N1371 1.336 . S
C1374 C1373 1.346 1_565 S
C1374 H1381 0.929 . S
C1375 O1365 1.282 . S
C1375 O1376 1.216 . S
O1376 C1375 1.216 . S
H1377 C1372 0.930 . S
H1378 C1373 0.930 . S
O1379 Cu1359 1.959 1_565 S
O1379 C1366 1.251 . S
H1380 C1363 0.930 . S
H1381 C1374 0.929 . S
Cu1382 N1383 1.999 . S
Cu1382 O1388 1.974 . S
Cu1382 N1393 1.985 . S
Cu1382 O1402 1.959 . S
N1383 Cu1382 1.999 . S
N1383 C1385 1.263 1_455 S
N1383 C1387 1.389 . S
N1384 C1385 1.358 . S
N1384 C1386 1.400 . S
C1385 N1383 1.263 1_655 S
C1385 N1384 1.358 . S
C1385 H1391 0.930 . S
C1386 N1384 1.400 . S
C1386 C1387 1.351 1_655 S
C1386 H1403 0.930 . S
C1387 N1383 1.389 . S
C1387 C1386 1.351 1_455 S
C1387 H1392 0.930 . S
O1388 Cu1382 1.974 . S
O1388 C1398 1.282 1_455 S
C1389 O1390 1.261 . S
C1389 O1402 1.251 . S
O1390 C1389 1.261 . S
H1391 C1385 0.930 . S
H1392 C1387 0.930 . S
N1393 Cu1382 1.985 . S
N1393 C1395 1.335 . S
N1393 C1396 1.390 . S
N1394 C1395 1.345 . S
N1394 C1397 1.336 . S
C1395 N1393 1.335 . S
C1395 N1394 1.345 . S
C1395 H1400 0.930 . S
C1396 N1393 1.390 . S
C1396 C1397 1.346 . S
C1396 H1401 0.930 . S
C1397 N1394 1.336 . S
C1397 C1396 1.346 . S
C1397 H1404 0.929 . S
C1398 O1388 1.282 1_655 S
C1398 O1399 1.216 1_655 S
O1399 C1398 1.216 1_455 S
H1400 C1395 0.930 . S
H1401 C1396 0.930 . S
O1402 Cu1382 1.959 . S
O1402 C1389 1.251 . S
H1403 C1386 0.930 . S
H1404 C1397 0.929 . S
Cu1405 N1406 1.999 . S
Cu1405 O1411 1.974 . S
Cu1405 N1416 1.985 . S
Cu1405 O1425 1.959 1_545 S
N1406 Cu1405 1.999 . S
N1406 C1408 1.263 . S
N1406 C1410 1.389 . S
N1407 C1408 1.358 . S
N1407 C1409 1.400 . S
C1408 N1406 1.263 . S
C1408 N1407 1.358 . S
C1408 H1414 0.930 . S
C1409 N1407 1.400 . S
C1409 C1410 1.351 . S
C1409 H1426 0.930 . S
C1410 N1406 1.389 . S
C1410 C1409 1.351 . S
C1410 H1415 0.930 . S
O1411 Cu1405 1.974 . S
O1411 C1421 1.282 . S
C1412 O1413 1.246 1_565 S
C1412 O1425 1.251 . S
O1413 C1412 1.246 1_545 S
H1414 C1408 0.930 . S
H1415 C1410 0.930 . S
N1416 Cu1405 1.985 . S
N1416 C1418 1.335 1_545 S
N1416 C1419 1.390 . S
N1417 C1418 1.345 . S
N1417 C1420 1.336 . S
C1418 N1416 1.335 1_565 S
C1418 N1417 1.345 . S
C1418 H1423 0.930 . S
C1419 N1416 1.390 . S
C1419 C1420 1.346 1_545 S
C1419 H1424 0.930 . S
C1420 N1417 1.336 . S
C1420 C1419 1.346 1_565 S
C1420 H1427 0.929 . S
C1421 O1411 1.282 . S
C1421 O1422 1.216 . S
O1422 C1421 1.216 . S
H1423 C1418 0.930 . S
H1424 C1419 0.930 . S
O1425 Cu1405 1.959 1_565 S
O1425 C1412 1.251 . S
H1426 C1409 0.930 . S
H1427 C1420 0.929 . S
Cu1428 N1429 1.999 . S
Cu1428 O1434 1.974 . S
Cu1428 N1439 1.985 . S
Cu1428 O1448 1.959 . S
N1429 Cu1428 1.999 . S
N1429 C1431 1.263 . S
N1429 C1433 1.389 . S
N1430 C1431 1.358 . S
N1430 C1432 1.400 . S
C1431 N1429 1.263 . S
C1431 N1430 1.358 . S
C1431 H1437 0.930 . S
C1432 N1430 1.400 . S
C1432 C1433 1.351 . S
C1432 H1449 0.930 . S
C1433 N1429 1.389 . S
C1433 C1432 1.351 . S
C1433 H1438 0.930 . S
O1434 Cu1428 1.974 . S
O1434 C1444 1.282 . S
C1435 O1436 1.261 . S
C1435 O1448 1.251 . S
O1436 C1435 1.261 . S
H1437 C1431 0.930 . S
H1438 C1433 0.930 . S
N1439 Cu1428 1.985 . S
N1439 C1441 1.335 . S
N1439 C1442 1.390 . S
N1440 C1441 1.345 . S
N1440 C1443 1.336 . S
C1441 N1439 1.335 . S
C1441 N1440 1.345 . S
C1441 H1446 0.930 . S
C1442 N1439 1.390 . S
C1442 C1443 1.346 . S
C1442 H1447 0.930 . S
C1443 N1440 1.336 . S
C1443 C1442 1.346 . S
C1443 H1450 0.929 . S
C1444 O1434 1.282 . S
C1444 O1445 1.216 . S
O1445 C1444 1.216 . S
H1446 C1441 0.930 . S
H1447 C1442 0.930 . S
O1448 Cu1428 1.959 . S
O1448 C1435 1.251 . S
H1449 C1432 0.930 . S
H1450 C1443 0.929 . S
Cu1451 N1452 1.999 . S
Cu1451 O1457 1.974 . S
Cu1451 N1462 1.985 . S
Cu1451 O1471 1.959 . S
N1452 Cu1451 1.999 . S
N1452 C1454 1.263 . S
N1452 C1456 1.389 . S
N1453 C1454 1.358 . S
N1453 C1455 1.400 . S
C1454 N1452 1.263 . S
C1454 N1453 1.358 . S
C1454 H1460 0.930 . S
C1455 N1453 1.400 . S
C1455 C1456 1.351 . S
C1455 H1472 0.930 . S
C1456 N1452 1.389 . S
C1456 C1455 1.351 . S
C1456 H1461 0.930 . S
O1457 Cu1451 1.974 . S
O1457 C1467 1.282 . S
C1458 O1459 1.261 . S
C1458 O1471 1.251 . S
O1459 C1458 1.261 . S
H1460 C1454 0.930 . S
H1461 C1456 0.930 . S
N1462 Cu1451 1.985 . S
N1462 C1464 1.335 . S
N1462 C1465 1.390 . S
N1463 C1464 1.345 . S
N1463 C1466 1.336 . S
C1464 N1462 1.335 . S
C1464 N1463 1.345 . S
C1464 H1469 0.930 . S
C1465 N1462 1.390 . S
C1465 C1466 1.346 . S
C1465 H1470 0.930 . S
C1466 N1463 1.336 . S
C1466 C1465 1.346 . S
C1466 H1473 0.929 . S
C1467 O1457 1.282 . S
C1467 O1468 1.216 . S
O1468 C1467 1.216 . S
H1469 C1464 0.930 . S
H1470 C1465 0.930 . S
O1471 Cu1451 1.959 . S
O1471 C1458 1.251 . S
H1472 C1455 0.930 . S
H1473 C1466 0.929 . S
Cu1474 N1475 1.999 . S
Cu1474 O1480 1.974 . S
Cu1474 N1485 1.985 . S
Cu1474 O1494 1.959 . S
N1475 Cu1474 1.999 . S
N1475 C1477 1.263 . S
N1475 C1479 1.389 . S
N1476 C1477 1.358 . S
N1476 C1478 1.400 . S
C1477 N1475 1.263 . S
C1477 N1476 1.358 . S
C1477 H1483 0.930 . S
C1478 N1476 1.400 . S
C1478 C1479 1.351 . S
C1478 H1495 0.930 . S
C1479 N1475 1.389 . S
C1479 C1478 1.351 . S
C1479 H1484 0.930 . S
O1480 Cu1474 1.974 . S
O1480 C1490 1.282 . S
C1481 O1482 1.261 . S
C1481 O1494 1.251 . S
O1482 C1481 1.261 . S
H1483 C1477 0.930 . S
H1484 C1479 0.930 . S
N1485 Cu1474 1.985 . S
N1485 C1487 1.335 . S
N1485 C1488 1.390 . S
N1486 C1487 1.345 . S
N1486 C1489 1.336 . S
C1487 N1485 1.335 . S
C1487 N1486 1.345 . S
C1487 H1492 0.930 . S
C1488 N1485 1.390 . S
C1488 C1489 1.346 . S
C1488 H1493 0.930 . S
C1489 N1486 1.336 . S
C1489 C1488 1.346 . S
C1489 H1496 0.929 . S
C1490 O1480 1.282 . S
C1490 O1491 1.216 . S
O1491 C1490 1.216 . S
H1492 C1487 0.930 . S
H1493 C1488 0.930 . S
O1494 Cu1474 1.959 . S
O1494 C1481 1.251 . S
H1495 C1478 0.930 . S
H1496 C1489 0.929 . S
Cu1497 N1498 1.999 . S
Cu1497 O1503 1.974 . S
Cu1497 N1508 1.985 . S
Cu1497 O1517 1.959 . S
N1498 Cu1497 1.999 . S
N1498 C1500 1.263 . S
N1498 C1502 1.389 . S
N1499 C1500 1.358 . S
N1499 C1501 1.400 . S
C1500 N1498 1.263 . S
C1500 N1499 1.358 . S
C1500 H1506 0.930 . S
C1501 N1499 1.400 . S
C1501 C1502 1.351 . S
C1501 H1518 0.930 . S
C1502 N1498 1.389 . S
C1502 C1501 1.351 . S
C1502 H1507 0.930 . S
O1503 Cu1497 1.974 . S
O1503 C1513 1.282 . S
C1504 O1505 1.261 . S
C1504 O1517 1.251 . S
O1505 C1504 1.261 . S
H1506 C1500 0.930 . S
H1507 C1502 0.930 . S
N1508 Cu1497 1.985 . S
N1508 C1510 1.335 . S
N1508 C1511 1.390 . S
N1509 C1510 1.345 . S
N1509 C1512 1.336 . S
C1510 N1508 1.335 . S
C1510 N1509 1.345 . S
C1510 H1515 0.930 . S
C1511 N1508 1.390 . S
C1511 C1512 1.346 . S
C1511 H1516 0.930 . S
C1512 N1509 1.336 . S
C1512 C1511 1.346 . S
C1512 H1519 0.929 . S
C1513 O1503 1.282 . S
C1513 O1514 1.216 . S
O1514 C1513 1.216 . S
H1515 C1510 0.930 . S
H1516 C1511 0.930 . S
O1517 Cu1497 1.959 . S
O1517 C1504 1.251 . S
H1518 C1501 0.930 . S
H1519 C1512 0.929 . S
Cu1520 N1521 1.999 . S
Cu1520 O1526 1.974 . S
Cu1520 N1531 1.985 . S
Cu1520 O1540 1.959 . S
N1521 Cu1520 1.999 . S
N1521 C1523 1.263 . S
N1521 C1525 1.389 . S
N1522 C1523 1.358 . S
N1522 C1524 1.400 . S
C1523 N1521 1.263 . S
C1523 N1522 1.358 . S
C1523 H1529 0.930 . S
C1524 N1522 1.400 . S
C1524 C1525 1.351 . S
C1524 H1541 0.930 . S
C1525 N1521 1.389 . S
C1525 C1524 1.351 . S
C1525 H1530 0.930 . S
O1526 Cu1520 1.974 . S
O1526 C1536 1.282 . S
C1527 O1528 1.261 . S
C1527 O1540 1.251 . S
O1528 C1527 1.261 . S
H1529 C1523 0.930 . S
H1530 C1525 0.930 . S
N1531 Cu1520 1.985 . S
N1531 C1533 1.335 . S
N1531 C1534 1.390 . S
N1532 C1533 1.345 . S
N1532 C1535 1.336 . S
C1533 N1531 1.335 . S
C1533 N1532 1.345 . S
C1533 H1538 0.930 . S
C1534 N1531 1.390 . S
C1534 C1535 1.346 . S
C1534 H1539 0.930 . S
C1535 N1532 1.336 . S
C1535 C1534 1.346 . S
C1535 H1542 0.929 . S
C1536 O1526 1.282 . S
C1536 O1537 1.216 . S
O1537 C1536 1.216 . S
H1538 C1533 0.930 . S
H1539 C1534 0.930 . S
O1540 Cu1520 1.959 . S
O1540 C1527 1.251 . S
H1541 C1524 0.930 . S
H1542 C1535 0.929 . S
Cu1543 N1544 1.999 . S
Cu1543 O1549 1.974 . S
Cu1543 N1554 1.985 . S
Cu1543 O1563 1.959 . S
N1544 Cu1543 1.999 . S
N1544 C1546 1.263 . S
N1544 C1548 1.389 . S
N1545 C1546 1.358 . S
N1545 C1547 1.400 . S
C1546 N1544 1.263 . S
C1546 N1545 1.358 . S
C1546 H1552 0.930 . S
C1547 N1545 1.400 . S
C1547 C1548 1.351 . S
C1547 H1564 0.930 . S
C1548 N1544 1.389 . S
C1548 C1547 1.351 . S
C1548 H1553 0.930 . S
O1549 Cu1543 1.974 . S
O1549 C1559 1.282 . S
C1550 O1551 1.261 . S
C1550 O1563 1.251 . S
O1551 C1550 1.261 . S
H1552 C1546 0.930 . S
H1553 C1548 0.930 . S
N1554 Cu1543 1.985 . S
N1554 C1556 1.335 . S
N1554 C1557 1.390 . S
N1555 C1556 1.345 . S
N1555 C1558 1.336 . S
C1556 N1554 1.335 . S
C1556 N1555 1.345 . S
C1556 H1561 0.930 . S
C1557 N1554 1.390 . S
C1557 C1558 1.346 . S
C1557 H1562 0.930 . S
C1558 N1555 1.336 . S
C1558 C1557 1.346 . S
C1558 H1565 0.929 . S
C1559 O1549 1.282 . S
C1559 O1560 1.216 . S
O1560 C1559 1.216 . S
H1561 C1556 0.930 . S
H1562 C1557 0.930 . S
O1563 Cu1543 1.959 . S
O1563 C1550 1.251 . S
H1564 C1547 0.930 . S
H1565 C1558 0.929 . S
Cu1566 N1567 1.999 . S
Cu1566 O1572 1.974 . S
Cu1566 N1577 1.985 . S
Cu1566 O1586 1.959 . S
N1567 Cu1566 1.999 . S
N1567 C1569 1.263 . S
N1567 C1571 1.389 . S
N1568 C1569 1.358 . S
N1568 C1570 1.400 . S
C1569 N1567 1.263 . S
C1569 N1568 1.358 . S
C1569 H1575 0.930 . S
C1570 N1568 1.400 . S
C1570 C1571 1.351 . S
C1570 H1587 0.930 . S
C1571 N1567 1.389 . S
C1571 C1570 1.351 . S
C1571 H1576 0.930 . S
O1572 Cu1566 1.974 . S
O1572 C1582 1.282 . S
C1573 O1574 1.261 . S
C1573 O1586 1.251 . S
O1574 C1573 1.261 . S
H1575 C1569 0.930 . S
H1576 C1571 0.930 . S
N1577 Cu1566 1.985 . S
N1577 C1579 1.335 . S
N1577 C1580 1.390 . S
N1578 C1579 1.345 . S
N1578 C1581 1.336 . S
C1579 N1577 1.335 . S
C1579 N1578 1.345 . S
C1579 H1584 0.930 . S
C1580 N1577 1.390 . S
C1580 C1581 1.346 . S
C1580 H1585 0.930 . S
C1581 N1578 1.336 . S
C1581 C1580 1.346 . S
C1581 H1588 0.929 . S
C1582 O1572 1.282 . S
C1582 O1583 1.216 . S
O1583 C1582 1.216 . S
H1584 C1579 0.930 . S
H1585 C1580 0.930 . S
O1586 Cu1566 1.959 . S
O1586 C1573 1.251 . S
H1587 C1570 0.930 . S
H1588 C1581 0.929 . S
Cu1589 N1590 1.999 . S
Cu1589 O1595 1.974 . S
Cu1589 N1600 1.985 . S
Cu1589 O1609 1.959 . S
N1590 Cu1589 1.999 . S
N1590 C1592 1.263 . S
N1590 C1594 1.389 . S
N1591 C1592 1.358 . S
N1591 C1593 1.400 . S
C1592 N1590 1.263 . S
C1592 N1591 1.358 . S
C1592 H1598 0.930 . S
C1593 N1591 1.400 . S
C1593 C1594 1.351 . S
C1593 H1610 0.930 . S
C1594 N1590 1.389 . S
C1594 C1593 1.351 . S
C1594 H1599 0.930 . S
O1595 Cu1589 1.974 . S
O1595 C1605 1.282 . S
C1596 O1597 1.261 . S
C1596 O1609 1.251 . S
O1597 C1596 1.261 . S
H1598 C1592 0.930 . S
H1599 C1594 0.930 . S
N1600 Cu1589 1.985 . S
N1600 C1602 1.335 . S
N1600 C1603 1.390 . S
N1601 C1602 1.345 . S
N1601 C1604 1.336 . S
C1602 N1600 1.335 . S
C1602 N1601 1.345 . S
C1602 H1607 0.930 . S
C1603 N1600 1.390 . S
C1603 C1604 1.346 . S
C1603 H1608 0.930 . S
C1604 N1601 1.336 . S
C1604 C1603 1.346 . S
C1604 H1611 0.929 . S
C1605 O1595 1.282 . S
C1605 O1606 1.216 . S
O1606 C1605 1.216 . S
H1607 C1602 0.930 . S
H1608 C1603 0.930 . S
O1609 Cu1589 1.959 . S
O1609 C1596 1.251 . S
H1610 C1593 0.930 . S
H1611 C1604 0.929 . S
Cu1612 N1613 1.999 . S
Cu1612 O1618 1.974 . S
Cu1612 N1623 1.985 . S
Cu1612 O1632 1.959 . S
N1613 Cu1612 1.999 . S
N1613 C1615 1.263 . S
N1613 C1617 1.389 . S
N1614 C1615 1.358 . S
N1614 C1616 1.400 . S
C1615 N1613 1.263 . S
C1615 N1614 1.358 . S
C1615 H1621 0.930 . S
C1616 N1614 1.400 . S
C1616 C1617 1.351 . S
C1616 H1633 0.930 . S
C1617 N1613 1.389 . S
C1617 C1616 1.351 . S
C1617 H1622 0.930 . S
O1618 Cu1612 1.974 . S
O1618 C1628 1.282 . S
C1619 O1620 1.261 . S
C1619 O1632 1.251 . S
O1620 C1619 1.261 . S
H1621 C1615 0.930 . S
H1622 C1617 0.930 . S
N1623 Cu1612 1.985 . S
N1623 C1625 1.335 . S
N1623 C1626 1.390 . S
N1624 C1625 1.345 . S
N1624 C1627 1.336 . S
C1625 N1623 1.335 . S
C1625 N1624 1.345 . S
C1625 H1630 0.930 . S
C1626 N1623 1.390 . S
C1626 C1627 1.346 . S
C1626 H1631 0.930 . S
C1627 N1624 1.336 . S
C1627 C1626 1.346 . S
C1627 H1634 0.929 . S
C1628 O1618 1.282 . S
C1628 O1629 1.216 . S
O1629 C1628 1.216 . S
H1630 C1625 0.930 . S
H1631 C1626 0.930 . S
O1632 Cu1612 1.959 . S
O1632 C1619 1.251 . S
H1633 C1616 0.930 . S
H1634 C1627 0.929 . S
Cu1635 N1636 1.999 . S
Cu1635 O1641 1.974 . S
Cu1635 N1646 1.985 . S
Cu1635 O1655 1.959 . S
N1636 Cu1635 1.999 . S
N1636 C1638 1.263 . S
N1636 C1640 1.389 . S
N1637 C1638 1.358 . S
N1637 C1639 1.400 . S
C1638 N1636 1.263 . S
C1638 N1637 1.358 . S
C1638 H1644 0.930 . S
C1639 N1637 1.400 . S
C1639 C1640 1.351 . S
C1639 H1656 0.930 . S
C1640 N1636 1.389 . S
C1640 C1639 1.351 . S
C1640 H1645 0.930 . S
O1641 Cu1635 1.974 . S
O1641 C1651 1.282 . S
C1642 O1643 1.261 . S
C1642 O1655 1.251 . S
O1643 C1642 1.261 . S
H1644 C1638 0.930 . S
H1645 C1640 0.930 . S
N1646 Cu1635 1.985 . S
N1646 C1648 1.335 . S
N1646 C1649 1.390 . S
N1647 C1648 1.345 . S
N1647 C1650 1.336 . S
C1648 N1646 1.335 . S
C1648 N1647 1.345 . S
C1648 H1653 0.930 . S
C1649 N1646 1.390 . S
C1649 C1650 1.346 . S
C1649 H1654 0.930 . S
C1650 N1647 1.336 . S
C1650 C1649 1.346 . S
C1650 H1657 0.929 . S
C1651 O1641 1.282 . S
C1651 O1652 1.216 . S
O1652 C1651 1.216 . S
H1653 C1648 0.930 . S
H1654 C1649 0.930 . S
O1655 Cu1635 1.959 . S
O1655 C1642 1.251 . S
H1656 C1639 0.930 . S
H1657 C1650 0.929 . S
Cu1658 N1659 1.999 . S
Cu1658 O1664 1.974 . S
Cu1658 N1669 1.985 . S
Cu1658 O1678 1.959 . S
N1659 Cu1658 1.999 . S
N1659 C1661 1.263 . S
N1659 C1663 1.389 . S
N1660 C1661 1.358 . S
N1660 C1662 1.400 . S
C1661 N1659 1.263 . S
C1661 N1660 1.358 . S
C1661 H1667 0.930 . S
C1662 N1660 1.400 . S
C1662 C1663 1.351 . S
C1662 H1679 0.930 . S
C1663 N1659 1.389 . S
C1663 C1662 1.351 . S
C1663 H1668 0.930 . S
O1664 Cu1658 1.974 . S
O1664 C1674 1.282 . S
C1665 O1666 1.261 . S
C1665 O1678 1.251 . S
O1666 C1665 1.261 . S
H1667 C1661 0.930 . S
H1668 C1663 0.930 . S
N1669 Cu1658 1.985 . S
N1669 C1671 1.335 . S
N1669 C1672 1.390 . S
N1670 C1671 1.345 . S
N1670 C1673 1.336 . S
C1671 N1669 1.335 . S
C1671 N1670 1.345 . S
C1671 H1676 0.930 . S
C1672 N1669 1.390 . S
C1672 C1673 1.346 . S
C1672 H1677 0.930 . S
C1673 N1670 1.336 . S
C1673 C1672 1.346 . S
C1673 H1680 0.929 . S
C1674 O1664 1.282 . S
C1674 O1675 1.216 . S
O1675 C1674 1.216 . S
H1676 C1671 0.930 . S
H1677 C1672 0.930 . S
O1678 Cu1658 1.959 . S
O1678 C1665 1.251 . S
H1679 C1662 0.930 . S
H1680 C1673 0.929 . S
Cu1681 N1682 1.999 . S
Cu1681 O1687 1.974 . S
Cu1681 N1692 1.985 . S
Cu1681 O1701 1.959 . S
N1682 Cu1681 1.999 . S
N1682 C1684 1.263 . S
N1682 C1686 1.389 . S
N1683 C1684 1.358 . S
N1683 C1685 1.400 . S
C1684 N1682 1.263 . S
C1684 N1683 1.358 . S
C1684 H1690 0.930 . S
C1685 N1683 1.400 . S
C1685 C1686 1.351 . S
C1685 H1702 0.930 . S
C1686 N1682 1.389 . S
C1686 C1685 1.351 . S
C1686 H1691 0.930 . S
O1687 Cu1681 1.974 . S
O1687 C1697 1.282 . S
C1688 O1689 1.261 . S
C1688 O1701 1.251 . S
O1689 C1688 1.261 . S
H1690 C1684 0.930 . S
H1691 C1686 0.930 . S
N1692 Cu1681 1.985 . S
N1692 C1694 1.335 . S
N1692 C1695 1.390 . S
N1693 C1694 1.345 . S
N1693 C1696 1.336 . S
C1694 N1692 1.335 . S
C1694 N1693 1.345 . S
C1694 H1699 0.930 . S
C1695 N1692 1.390 . S
C1695 C1696 1.346 . S
C1695 H1700 0.930 . S
C1696 N1693 1.336 . S
C1696 C1695 1.346 . S
C1696 H1703 0.929 . S
C1697 O1687 1.282 . S
C1697 O1698 1.216 . S
O1698 C1697 1.216 . S
H1699 C1694 0.930 . S
H1700 C1695 0.930 . S
O1701 Cu1681 1.959 . S
O1701 C1688 1.251 . S
H1702 C1685 0.930 . S
H1703 C1696 0.929 . S
C1704 C1705 1.369 . S
C1704 C1706 1.419 . S
C1704 H1708 0.930 . S
C1705 C1704 1.369 . S
C1705 C1714 1.429 . S
C1706 C1704 1.419 . S
C1706 C1707 1.363 . S
C1706 H1709 0.929 . S
C1707 C1706 1.363 . S
C1707 C1713 1.428 . S
H1708 C1704 0.930 . S
H1709 C1706 0.929 . S
S1710 N1711 1.613 . S
S1710 N1712 1.610 . S
N1711 S1710 1.613 . S
N1711 C1714 1.350 . S
N1712 S1710 1.610 . S
N1712 C1713 1.351 . S
C1713 C1707 1.428 . S
C1713 N1712 1.351 . S
C1713 C1714 1.434 . S
C1714 C1705 1.429 . S
C1714 N1711 1.350 . S
C1714 C1713 1.434 . S
C1715 C1716 1.369 . S
C1715 C1717 1.419 . S
C1715 H1719 0.930 . S
C1716 C1715 1.369 . S
C1716 C1725 1.429 . S
C1717 C1715 1.419 . S
C1717 C1718 1.363 . S
C1717 H1720 0.929 . S
C1718 C1717 1.363 . S
C1718 C1724 1.428 . S
H1719 C1715 0.930 . S
H1720 C1717 0.929 . S
S1721 N1722 1.613 . S
S1721 N1723 1.610 . S
N1722 S1721 1.613 . S
N1722 C1725 1.350 . S
N1723 S1721 1.610 . S
N1723 C1724 1.351 . S
C1724 C1718 1.428 . S
C1724 N1723 1.351 . S
C1724 C1725 1.434 . S
C1725 C1716 1.429 . S
C1725 N1722 1.350 . S
C1725 C1724 1.434 . S
C1726 C1727 1.369 . S
C1726 C1728 1.419 . S
C1726 H1730 0.930 . S
C1727 C1726 1.369 . S
C1727 C1736 1.429 . S
C1728 C1726 1.419 . S
C1728 C1729 1.363 . S
C1728 H1731 0.929 . S
C1729 C1728 1.363 . S
C1729 C1735 1.428 . S
H1730 C1726 0.930 . S
H1731 C1728 0.929 . S
S1732 N1733 1.613 . S
S1732 N1734 1.610 . S
N1733 S1732 1.613 . S
N1733 C1736 1.350 . S
N1734 S1732 1.610 . S
N1734 C1735 1.351 . S
C1735 C1729 1.428 . S
C1735 N1734 1.351 . S
C1735 C1736 1.434 . S
C1736 C1727 1.429 . S
C1736 N1733 1.350 . S
C1736 C1735 1.434 . S
C1737 C1738 1.369 . S
C1737 C1739 1.419 . S
C1737 H1741 0.930 . S
C1738 C1737 1.369 . S
C1738 C1747 1.429 . S
C1739 C1737 1.419 . S
C1739 C1740 1.363 . S
C1739 H1742 0.929 . S
C1740 C1739 1.363 . S
C1740 C1746 1.428 . S
H1741 C1737 0.930 . S
H1742 C1739 0.929 . S
S1743 N1744 1.613 . S
S1743 N1745 1.610 . S
N1744 S1743 1.613 . S
N1744 C1747 1.350 . S
N1745 S1743 1.610 . S
N1745 C1746 1.351 . S
C1746 C1740 1.428 . S
C1746 N1745 1.351 . S
C1746 C1747 1.434 . S
C1747 C1738 1.429 . S
C1747 N1744 1.350 . S
C1747 C1746 1.434 . S
C1748 C1749 1.369 . S
C1748 C1750 1.419 . S
C1748 H1752 0.930 . S
C1749 C1748 1.369 . S
C1749 C1758 1.429 . S
C1750 C1748 1.419 . S
C1750 C1751 1.363 . S
C1750 H1753 0.929 . S
C1751 C1750 1.363 . S
C1751 C1757 1.428 . S
H1752 C1748 0.930 . S
H1753 C1750 0.929 . S
S1754 N1755 1.613 . S
S1754 N1756 1.610 . S
N1755 S1754 1.613 . S
N1755 C1758 1.350 . S
N1756 S1754 1.610 . S
N1756 C1757 1.351 . S
C1757 C1751 1.428 . S
C1757 N1756 1.351 . S
C1757 C1758 1.434 . S
C1758 C1749 1.429 . S
C1758 N1755 1.350 . S
C1758 C1757 1.434 . S
C1759 C1760 1.369 . S
C1759 C1761 1.419 . S
C1759 H1763 0.930 . S
C1760 C1759 1.369 . S
C1760 C1769 1.429 . S
C1761 C1759 1.419 . S
C1761 C1762 1.363 . S
C1761 H1764 0.929 . S
C1762 C1761 1.363 . S
C1762 C1768 1.428 . S
H1763 C1759 0.930 . S
H1764 C1761 0.929 . S
S1765 N1766 1.613 . S
S1765 N1767 1.610 . S
N1766 S1765 1.613 . S
N1766 C1769 1.350 . S
N1767 S1765 1.610 . S
N1767 C1768 1.351 . S
C1768 C1762 1.428 . S
C1768 N1767 1.351 . S
C1768 C1769 1.434 . S
C1769 C1760 1.429 . S
C1769 N1766 1.350 . S
C1769 C1768 1.434 . S
C1770 C1771 1.369 . S
C1770 C1772 1.419 . S
C1770 H1774 0.930 . S
C1771 C1770 1.369 . S
C1771 C1780 1.429 . S
C1772 C1770 1.419 . S
C1772 C1773 1.363 . S
C1772 H1775 0.929 . S
C1773 C1772 1.363 . S
C1773 C1779 1.428 . S
H1774 C1770 0.930 . S
H1775 C1772 0.929 . S
S1776 N1777 1.613 . S
S1776 N1778 1.610 . S
N1777 S1776 1.613 . S
N1777 C1780 1.350 . S
N1778 S1776 1.610 . S
N1778 C1779 1.351 . S
C1779 C1773 1.428 . S
C1779 N1778 1.351 . S
C1779 C1780 1.434 . S
C1780 C1771 1.429 . S
C1780 N1777 1.350 . S
C1780 C1779 1.434 . S
C1781 C1782 1.369 . S
C1781 C1783 1.419 . S
C1781 H1785 0.930 . S
C1782 C1781 1.369 . S
C1782 C1791 1.429 . S
C1783 C1781 1.419 . S
C1783 C1784 1.363 . S
C1783 H1786 0.929 . S
C1784 C1783 1.363 . S
C1784 C1790 1.428 . S
H1785 C1781 0.930 . S
H1786 C1783 0.929 . S
S1787 N1788 1.613 . S
S1787 N1789 1.610 . S
N1788 S1787 1.613 . S
N1788 C1791 1.350 . S
N1789 S1787 1.610 . S
N1789 C1790 1.351 . S
C1790 C1784 1.428 . S
C1790 N1789 1.351 . S
C1790 C1791 1.434 . S
C1791 C1782 1.429 . S
C1791 N1788 1.350 . S
C1791 C1790 1.434 . S
C1792 C1793 1.369 . S
C1792 C1794 1.419 . S
C1792 H1796 0.930 . S
C1793 C1792 1.369 . S
C1793 C1802 1.429 . S
C1794 C1792 1.419 . S
C1794 C1795 1.363 . S
C1794 H1797 0.929 . S
C1795 C1794 1.363 . S
C1795 C1801 1.428 . S
H1796 C1792 0.930 . S
H1797 C1794 0.929 . S
S1798 N1799 1.613 . S
S1798 N1800 1.610 . S
N1799 S1798 1.613 . S
N1799 C1802 1.350 . S
N1800 S1798 1.610 . S
N1800 C1801 1.351 . S
C1801 C1795 1.428 . S
C1801 N1800 1.351 . S
C1801 C1802 1.434 . S
C1802 C1793 1.429 . S
C1802 N1799 1.350 . S
C1802 C1801 1.434 . S
C1803 C1804 1.369 . S
C1803 C1805 1.419 . S
C1803 H1807 0.930 . S
C1804 C1803 1.369 . S
C1804 C1813 1.429 . S
C1805 C1803 1.419 . S
C1805 C1806 1.363 . S
C1805 H1808 0.929 . S
C1806 C1805 1.363 . S
C1806 C1812 1.428 . S
H1807 C1803 0.930 . S
H1808 C1805 0.929 . S
S1809 N1810 1.613 . S
S1809 N1811 1.610 . S
N1810 S1809 1.613 . S
N1810 C1813 1.350 . S
N1811 S1809 1.610 . S
N1811 C1812 1.351 . S
C1812 C1806 1.428 . S
C1812 N1811 1.351 . S
C1812 C1813 1.434 . S
C1813 C1804 1.429 . S
C1813 N1810 1.350 . S
C1813 C1812 1.434 . S
C1814 C1815 1.369 . S
C1814 C1816 1.419 . S
C1814 H1818 0.930 . S
C1815 C1814 1.369 . S
C1815 C1824 1.429 . S
C1816 C1814 1.419 . S
C1816 C1817 1.363 . S
C1816 H1819 0.929 . S
C1817 C1816 1.363 . S
C1817 C1823 1.428 . S
H1818 C1814 0.930 . S
H1819 C1816 0.929 . S
S1820 N1821 1.613 . S
S1820 N1822 1.610 . S
N1821 S1820 1.613 . S
N1821 C1824 1.350 . S
N1822 S1820 1.610 . S
N1822 C1823 1.351 . S
C1823 C1817 1.428 . S
C1823 N1822 1.351 . S
C1823 C1824 1.434 . S
C1824 C1815 1.429 . S
C1824 N1821 1.350 . S
C1824 C1823 1.434 . S
C1825 C1826 1.369 . S
C1825 C1827 1.419 . S
C1825 H1829 0.930 . S
C1826 C1825 1.369 . S
C1826 C1835 1.429 . S
C1827 C1825 1.419 . S
C1827 C1828 1.363 . S
C1827 H1830 0.929 . S
C1828 C1827 1.363 . S
C1828 C1834 1.428 . S
H1829 C1825 0.930 . S
H1830 C1827 0.929 . S
S1831 N1832 1.613 . S
S1831 N1833 1.610 . S
N1832 S1831 1.613 . S
N1832 C1835 1.350 . S
N1833 S1831 1.610 . S
N1833 C1834 1.351 . S
C1834 C1828 1.428 . S
C1834 N1833 1.351 . S
C1834 C1835 1.434 . S
C1835 C1826 1.429 . S
C1835 N1832 1.350 . S
C1835 C1834 1.434 . S
C1836 C1837 1.369 . S
C1836 C1838 1.419 . S
C1836 H1840 0.930 . S
C1837 C1836 1.369 . S
C1837 C1846 1.429 . S
C1838 C1836 1.419 . S
C1838 C1839 1.363 . S
C1838 H1841 0.929 . S
C1839 C1838 1.363 . S
C1839 C1845 1.428 . S
H1840 C1836 0.930 . S
H1841 C1838 0.929 . S
S1842 N1843 1.613 . S
S1842 N1844 1.610 . S
N1843 S1842 1.613 . S
N1843 C1846 1.350 . S
N1844 S1842 1.610 . S
N1844 C1845 1.351 . S
C1845 C1839 1.428 . S
C1845 N1844 1.351 . S
C1845 C1846 1.434 . S
C1846 C1837 1.429 . S
C1846 N1843 1.350 . S
C1846 C1845 1.434 . S
C1847 C1848 1.369 . S
C1847 C1849 1.419 . S
C1847 H1851 0.930 . S
C1848 C1847 1.369 . S
C1848 C1857 1.429 . S
C1849 C1847 1.419 . S
C1849 C1850 1.363 . S
C1849 H1852 0.929 . S
C1850 C1849 1.363 . S
C1850 C1856 1.428 . S
H1851 C1847 0.930 . S
H1852 C1849 0.929 . S
S1853 N1854 1.613 . S
S1853 N1855 1.610 . S
N1854 S1853 1.613 . S
N1854 C1857 1.350 . S
N1855 S1853 1.610 . S
N1855 C1856 1.351 . S
C1856 C1850 1.428 . S
C1856 N1855 1.351 . S
C1856 C1857 1.434 . S
C1857 C1848 1.429 . S
C1857 N1854 1.350 . S
C1857 C1856 1.434 . S
C1858 C1859 1.369 . S
C1858 C1860 1.419 . S
C1858 H1862 0.930 . S
C1859 C1858 1.369 . S
C1859 C1868 1.429 . S
C1860 C1858 1.419 . S
C1860 C1861 1.363 . S
C1860 H1863 0.929 . S
C1861 C1860 1.363 . S
C1861 C1867 1.428 . S
H1862 C1858 0.930 . S
H1863 C1860 0.929 . S
S1864 N1865 1.613 . S
S1864 N1866 1.610 . S
N1865 S1864 1.613 . S
N1865 C1868 1.350 . S
N1866 S1864 1.610 . S
N1866 C1867 1.351 . S
C1867 C1861 1.428 . S
C1867 N1866 1.351 . S
C1867 C1868 1.434 . S
C1868 C1859 1.429 . S
C1868 N1865 1.350 . S
C1868 C1867 1.434 . S
C1869 C1870 1.369 . S
C1869 C1871 1.419 . S
C1869 H1873 0.930 . S
C1870 C1869 1.369 . S
C1870 C1879 1.429 . S
C1871 C1869 1.419 . S
C1871 C1872 1.363 . S
C1871 H1874 0.929 . S
C1872 C1871 1.363 . S
C1872 C1878 1.428 . S
H1873 C1869 0.930 . S
H1874 C1871 0.929 . S
S1875 N1876 1.613 . S
S1875 N1877 1.610 . S
N1876 S1875 1.613 . S
N1876 C1879 1.350 . S
N1877 S1875 1.610 . S
N1877 C1878 1.351 . S
C1878 C1872 1.428 . S
C1878 N1877 1.351 . S
C1878 C1879 1.434 . S
C1879 C1870 1.429 . S
C1879 N1876 1.350 . S
C1879 C1878 1.434 . S
C1880 C1881 1.369 . S
C1880 C1882 1.419 . S
C1880 H1884 0.930 . S
C1881 C1880 1.369 . S
C1881 C1890 1.429 . S
C1882 C1880 1.419 . S
C1882 C1883 1.363 . S
C1882 H1885 0.929 . S
C1883 C1882 1.363 . S
C1883 C1889 1.428 . S
H1884 C1880 0.930 . S
H1885 C1882 0.929 . S
S1886 N1887 1.613 . S
S1886 N1888 1.610 . S
N1887 S1886 1.613 . S
N1887 C1890 1.350 . S
N1888 S1886 1.610 . S
N1888 C1889 1.351 . S
C1889 C1883 1.428 . S
C1889 N1888 1.351 . S
C1889 C1890 1.434 . S
C1890 C1881 1.429 . S
C1890 N1887 1.350 . S
C1890 C1889 1.434 . S
C1891 C1892 1.369 . S
C1891 C1893 1.419 . S
C1891 H1895 0.930 . S
C1892 C1891 1.369 . S
C1892 C1901 1.429 . S
C1893 C1891 1.419 . S
C1893 C1894 1.363 . S
C1893 H1896 0.929 . S
C1894 C1893 1.363 . S
C1894 C1900 1.428 . S
H1895 C1891 0.930 . S
H1896 C1893 0.929 . S
S1897 N1898 1.613 . S
S1897 N1899 1.610 . S
N1898 S1897 1.613 . S
N1898 C1901 1.350 . S
N1899 S1897 1.610 . S
N1899 C1900 1.351 . S
C1900 C1894 1.428 . S
C1900 N1899 1.351 . S
C1900 C1901 1.434 . S
C1901 C1892 1.429 . S
C1901 N1898 1.350 . S
C1901 C1900 1.434 . S
C1902 C1903 1.369 . S
C1902 C1904 1.419 . S
C1902 H1906 0.930 . S
C1903 C1902 1.369 . S
C1903 C1912 1.429 . S
C1904 C1902 1.419 . S
C1904 C1905 1.363 . S
C1904 H1907 0.929 . S
C1905 C1904 1.363 . S
C1905 C1911 1.428 . S
H1906 C1902 0.930 . S
H1907 C1904 0.929 . S
S1908 N1909 1.613 . S
S1908 N1910 1.610 . S
N1909 S1908 1.613 . S
N1909 C1912 1.350 . S
N1910 S1908 1.610 . S
N1910 C1911 1.351 . S
C1911 C1905 1.428 . S
C1911 N1910 1.351 . S
C1911 C1912 1.434 . S
C1912 C1903 1.429 . S
C1912 N1909 1.350 . S
C1912 C1911 1.434 . S
C1913 C1914 1.369 . S
C1913 C1915 1.419 . S
C1913 H1917 0.930 . S
C1914 C1913 1.369 . S
C1914 C1923 1.429 . S
C1915 C1913 1.419 . S
C1915 C1916 1.363 . S
C1915 H1918 0.929 . S
C1916 C1915 1.363 . S
C1916 C1922 1.428 . S
H1917 C1913 0.930 . S
H1918 C1915 0.929 . S
S1919 N1920 1.613 . S
S1919 N1921 1.610 . S
N1920 S1919 1.613 . S
N1920 C1923 1.350 . S
N1921 S1919 1.610 . S
N1921 C1922 1.351 . S
C1922 C1916 1.428 . S
C1922 N1921 1.351 . S
C1922 C1923 1.434 . S
C1923 C1914 1.429 . S
C1923 N1920 1.350 . S
C1923 C1922 1.434 . S
C1924 C1925 1.369 . S
C1924 C1926 1.419 . S
C1924 H1928 0.930 . S
C1925 C1924 1.369 . S
C1925 C1934 1.429 . S
C1926 C1924 1.419 . S
C1926 C1927 1.363 . S
C1926 H1929 0.929 . S
C1927 C1926 1.363 . S
C1927 C1933 1.428 . S
H1928 C1924 0.930 . S
H1929 C1926 0.929 . S
S1930 N1931 1.613 . S
S1930 N1932 1.610 . S
N1931 S1930 1.613 . S
N1931 C1934 1.350 . S
N1932 S1930 1.610 . S
N1932 C1933 1.351 . S
C1933 C1927 1.428 . S
C1933 N1932 1.351 . S
C1933 C1934 1.434 . S
C1934 C1925 1.429 . S
C1934 N1931 1.350 . S
C1934 C1933 1.434 . S
C1935 C1936 1.369 . S
C1935 C1937 1.419 . S
C1935 H1939 0.930 . S
C1936 C1935 1.369 . S
C1936 C1945 1.429 . S
C1937 C1935 1.419 . S
C1937 C1938 1.363 . S
C1937 H1940 0.929 . S
C1938 C1937 1.363 . S
C1938 C1944 1.428 . S
H1939 C1935 0.930 . S
H1940 C1937 0.929 . S
S1941 N1942 1.613 . S
S1941 N1943 1.610 . S
N1942 S1941 1.613 . S
N1942 C1945 1.350 . S
N1943 S1941 1.610 . S
N1943 C1944 1.351 . S
C1944 C1938 1.428 . S
C1944 N1943 1.351 . S
C1944 C1945 1.434 . S
C1945 C1936 1.429 . S
C1945 N1942 1.350 . S
C1945 C1944 1.434 . S
C1946 C1947 1.369 . S
C1946 C1948 1.419 . S
C1946 H1950 0.930 . S
C1947 C1946 1.369 . S
C1947 C1956 1.429 . S
C1948 C1946 1.419 . S
C1948 C1949 1.363 . S
C1948 H1951 0.929 . S
C1949 C1948 1.363 . S
C1949 C1955 1.428 . S
H1950 C1946 0.930 . S
H1951 C1948 0.929 . S
S1952 N1953 1.613 . S
S1952 N1954 1.610 . S
N1953 S1952 1.613 . S
N1953 C1956 1.350 . S
N1954 S1952 1.610 . S
N1954 C1955 1.351 . S
C1955 C1949 1.428 . S
C1955 N1954 1.351 . S
C1955 C1956 1.434 . S
C1956 C1947 1.429 . S
C1956 N1953 1.350 . S
C1956 C1955 1.434 . S
C1957 C1958 1.369 . S
C1957 C1959 1.419 . S
C1957 H1961 0.930 . S
C1958 C1957 1.369 . S
C1958 C1967 1.429 . S
C1959 C1957 1.419 . S
C1959 C1960 1.363 . S
C1959 H1962 0.929 . S
C1960 C1959 1.363 . S
C1960 C1966 1.428 . S
H1961 C1957 0.930 . S
H1962 C1959 0.929 . S
S1963 N1964 1.613 . S
S1963 N1965 1.610 . S
N1964 S1963 1.613 . S
N1964 C1967 1.350 . S
N1965 S1963 1.610 . S
N1965 C1966 1.351 . S
C1966 C1960 1.428 . S
C1966 N1965 1.351 . S
C1966 C1967 1.434 . S
C1967 C1958 1.429 . S
C1967 N1964 1.350 . S
C1967 C1966 1.434 . S
C1968 C1969 1.369 . S
C1968 C1970 1.419 . S
C1968 H1972 0.930 . S
C1969 C1968 1.369 . S
C1969 C1978 1.429 . S
C1970 C1968 1.419 . S
C1970 C1971 1.363 . S
C1970 H1973 0.929 . S
C1971 C1970 1.363 . S
C1971 C1977 1.428 . S
H1972 C1968 0.930 . S
H1973 C1970 0.929 . S
S1974 N1975 1.613 . S
S1974 N1976 1.610 . S
N1975 S1974 1.613 . S
N1975 C1978 1.350 . S
N1976 S1974 1.610 . S
N1976 C1977 1.351 . S
C1977 C1971 1.428 . S
C1977 N1976 1.351 . S
C1977 C1978 1.434 . S
C1978 C1969 1.429 . S
C1978 N1975 1.350 . S
C1978 C1977 1.434 . S
C1979 C1980 1.369 . S
C1979 C1981 1.419 . S
C1979 H1983 0.930 . S
C1980 C1979 1.369 . S
C1980 C1989 1.429 . S
C1981 C1979 1.419 . S
C1981 C1982 1.363 . S
C1981 H1984 0.929 . S
C1982 C1981 1.363 . S
C1982 C1988 1.428 . S
H1983 C1979 0.930 . S
H1984 C1981 0.929 . S
S1985 N1986 1.613 . S
S1985 N1987 1.610 . S
N1986 S1985 1.613 . S
N1986 C1989 1.350 . S
N1987 S1985 1.610 . S
N1987 C1988 1.351 . S
C1988 C1982 1.428 . S
C1988 N1987 1.351 . S
C1988 C1989 1.434 . S
C1989 C1980 1.429 . S
C1989 N1986 1.350 . S
C1989 C1988 1.434 . S
C1990 C1991 1.369 . S
C1990 C1992 1.419 . S
C1990 H1994 0.930 . S
C1991 C1990 1.369 . S
C1991 C2000 1.429 . S
C1992 C1990 1.419 . S
C1992 C1993 1.363 . S
C1992 H1995 0.929 . S
C1993 C1992 1.363 . S
C1993 C1999 1.428 . S
H1994 C1990 0.930 . S
H1995 C1992 0.929 . S
S1996 N1997 1.613 . S
S1996 N1998 1.610 . S
N1997 S1996 1.613 . S
N1997 C2000 1.350 . S
N1998 S1996 1.610 . S
N1998 C1999 1.351 . S
C1999 C1993 1.428 . S
C1999 N1998 1.351 . S
C1999 C2000 1.434 . S
C2000 C1991 1.429 . S
C2000 N1997 1.350 . S
C2000 C1999 1.434 . S
C2001 C2002 1.369 . S
C2001 C2003 1.419 . S
C2001 H2005 0.930 . S
C2002 C2001 1.369 . S
C2002 C2011 1.429 . S
C2003 C2001 1.419 . S
C2003 C2004 1.363 . S
C2003 H2006 0.929 . S
C2004 C2003 1.363 . S
C2004 C2010 1.428 . S
H2005 C2001 0.930 . S
H2006 C2003 0.929 . S
S2007 N2008 1.613 . S
S2007 N2009 1.610 . S
N2008 S2007 1.613 . S
N2008 C2011 1.350 . S
N2009 S2007 1.610 . S
N2009 C2010 1.351 . S
C2010 C2004 1.428 . S
C2010 N2009 1.351 . S
C2010 C2011 1.434 . S
C2011 C2002 1.429 . S
C2011 N2008 1.350 . S
C2011 C2010 1.434 . S
C2012 C2013 1.369 . S
C2012 C2014 1.419 . S
C2012 H2016 0.930 . S
C2013 C2012 1.369 . S
C2013 C2022 1.429 . S
C2014 C2012 1.419 . S
C2014 C2015 1.363 . S
C2014 H2017 0.929 . S
C2015 C2014 1.363 . S
C2015 C2021 1.428 . S
H2016 C2012 0.930 . S
H2017 C2014 0.929 . S
S2018 N2019 1.613 . S
S2018 N2020 1.610 . S
N2019 S2018 1.613 . S
N2019 C2022 1.350 . S
N2020 S2018 1.610 . S
N2020 C2021 1.351 . S
C2021 C2015 1.428 . S
C2021 N2020 1.351 . S
C2021 C2022 1.434 . S
C2022 C2013 1.429 . S
C2022 N2019 1.350 . S
C2022 C2021 1.434 . S
C2023 C2024 1.369 . S
C2023 C2025 1.419 . S
C2023 H2027 0.930 . S
C2024 C2023 1.369 . S
C2024 C2033 1.429 . S
C2025 C2023 1.419 . S
C2025 C2026 1.363 . S
C2025 H2028 0.929 . S
C2026 C2025 1.363 . S
C2026 C2032 1.428 . S
H2027 C2023 0.930 . S
H2028 C2025 0.929 . S
S2029 N2030 1.613 . S
S2029 N2031 1.610 . S
N2030 S2029 1.613 . S
N2030 C2033 1.350 . S
N2031 S2029 1.610 . S
N2031 C2032 1.351 . S
C2032 C2026 1.428 . S
C2032 N2031 1.351 . S
C2032 C2033 1.434 . S
C2033 C2024 1.429 . S
C2033 N2030 1.350 . S
C2033 C2032 1.434 . S
C2034 C2035 1.369 . S
C2034 C2036 1.419 . S
C2034 H2038 0.930 . S
C2035 C2034 1.369 . S
C2035 C2044 1.429 . S
C2036 C2034 1.419 . S
C2036 C2037 1.363 . S
C2036 H2039 0.929 . S
C2037 C2036 1.363 . S
C2037 C2043 1.428 . S
H2038 C2034 0.930 . S
H2039 C2036 0.929 . S
S2040 N2041 1.613 . S
S2040 N2042 1.610 . S
N2041 S2040 1.613 . S
N2041 C2044 1.350 . S
N2042 S2040 1.610 . S
N2042 C2043 1.351 . S
C2043 C2037 1.428 . S
C2043 N2042 1.351 . S
C2043 C2044 1.434 . S
C2044 C2035 1.429 . S
C2044 N2041 1.350 . S
C2044 C2043 1.434 . S
C2045 C2046 1.369 . S
C2045 C2047 1.419 . S
C2045 H2049 0.930 . S
C2046 C2045 1.369 . S
C2046 C2055 1.429 . S
C2047 C2045 1.419 . S
C2047 C2048 1.363 . S
C2047 H2050 0.929 . S
C2048 C2047 1.363 . S
C2048 C2054 1.428 . S
H2049 C2045 0.930 . S
H2050 C2047 0.929 . S
S2051 N2052 1.613 . S
S2051 N2053 1.610 . S
N2052 S2051 1.613 . S
N2052 C2055 1.350 . S
N2053 S2051 1.610 . S
N2053 C2054 1.351 . S
C2054 C2048 1.428 . S
C2054 N2053 1.351 . S
C2054 C2055 1.434 . S
C2055 C2046 1.429 . S
C2055 N2052 1.350 . S
C2055 C2054 1.434 . S
C2056 C2057 1.369 . S
C2056 C2058 1.419 . S
C2056 H2060 0.930 . S
C2057 C2056 1.369 . S
C2057 C2066 1.429 . S
C2058 C2056 1.419 . S
C2058 C2059 1.363 . S
C2058 H2061 0.929 . S
C2059 C2058 1.363 . S
C2059 C2065 1.428 . S
H2060 C2056 0.930 . S
H2061 C2058 0.929 . S
S2062 N2063 1.613 . S
S2062 N2064 1.610 . S
N2063 S2062 1.613 . S
N2063 C2066 1.350 . S
N2064 S2062 1.610 . S
N2064 C2065 1.351 . S
C2065 C2059 1.428 . S
C2065 N2064 1.351 . S
C2065 C2066 1.434 . S
C2066 C2057 1.429 . S
C2066 N2063 1.350 . S
C2066 C2065 1.434 . S
C2067 C2068 1.369 . S
C2067 C2069 1.419 . S
C2067 H2071 0.930 . S
C2068 C2067 1.369 . S
C2068 C2077 1.429 . S
C2069 C2067 1.419 . S
C2069 C2070 1.363 . S
C2069 H2072 0.929 . S
C2070 C2069 1.363 . S
C2070 C2076 1.428 . S
H2071 C2067 0.930 . S
H2072 C2069 0.929 . S
S2073 N2074 1.613 . S
S2073 N2075 1.610 . S
N2074 S2073 1.613 . S
N2074 C2077 1.350 . S
N2075 S2073 1.610 . S
N2075 C2076 1.351 . S
C2076 C2070 1.428 . S
C2076 N2075 1.351 . S
C2076 C2077 1.434 . S
C2077 C2068 1.429 . S
C2077 N2074 1.350 . S
C2077 C2076 1.434 . S
C2078 C2079 1.369 . S
C2078 C2080 1.419 . S
C2078 H2082 0.930 . S
C2079 C2078 1.369 . S
C2079 C2088 1.429 . S
C2080 C2078 1.419 . S
C2080 C2081 1.363 . S
C2080 H2083 0.929 . S
C2081 C2080 1.363 . S
C2081 C2087 1.428 . S
H2082 C2078 0.930 . S
H2083 C2080 0.929 . S
S2084 N2085 1.613 . S
S2084 N2086 1.610 . S
N2085 S2084 1.613 . S
N2085 C2088 1.350 . S
N2086 S2084 1.610 . S
N2086 C2087 1.351 . S
C2087 C2081 1.428 . S
C2087 N2086 1.351 . S
C2087 C2088 1.434 . S
C2088 C2079 1.429 . S
C2088 N2085 1.350 . S
C2088 C2087 1.434 . S
C2089 C2090 1.369 . S
C2089 C2091 1.419 . S
C2089 H2093 0.930 . S
C2090 C2089 1.369 . S
C2090 C2099 1.429 . S
C2091 C2089 1.419 . S
C2091 C2092 1.363 . S
C2091 H2094 0.929 . S
C2092 C2091 1.363 . S
C2092 C2098 1.428 . S
H2093 C2089 0.930 . S
H2094 C2091 0.929 . S
S2095 N2096 1.613 . S
S2095 N2097 1.610 . S
N2096 S2095 1.613 . S
N2096 C2099 1.350 . S
N2097 S2095 1.610 . S
N2097 C2098 1.351 . S
C2098 C2092 1.428 . S
C2098 N2097 1.351 . S
C2098 C2099 1.434 . S
C2099 C2090 1.429 . S
C2099 N2096 1.350 . S
C2099 C2098 1.434 . S
C2100 C2101 1.369 . S
C2100 C2102 1.419 . S
C2100 H2104 0.930 . S
C2101 C2100 1.369 . S
C2101 C2110 1.429 . S
C2102 C2100 1.419 . S
C2102 C2103 1.363 . S
C2102 H2105 0.929 . S
C2103 C2102 1.363 . S
C2103 C2109 1.428 . S
H2104 C2100 0.930 . S
H2105 C2102 0.929 . S
S2106 N2107 1.613 . S
S2106 N2108 1.610 . S
N2107 S2106 1.613 . S
N2107 C2110 1.350 . S
N2108 S2106 1.610 . S
N2108 C2109 1.351 . S
C2109 C2103 1.428 . S
C2109 N2108 1.351 . S
C2109 C2110 1.434 . S
C2110 C2101 1.429 . S
C2110 N2107 1.350 . S
C2110 C2109 1.434 . S
C2111 C2112 1.369 . S
C2111 C2113 1.419 . S
C2111 H2115 0.930 . S
C2112 C2111 1.369 . S
C2112 C2121 1.429 . S
C2113 C2111 1.419 . S
C2113 C2114 1.363 . S
C2113 H2116 0.929 . S
C2114 C2113 1.363 . S
C2114 C2120 1.428 . S
H2115 C2111 0.930 . S
H2116 C2113 0.929 . S
S2117 N2118 1.613 . S
S2117 N2119 1.610 . S
N2118 S2117 1.613 . S
N2118 C2121 1.350 . S
N2119 S2117 1.610 . S
N2119 C2120 1.351 . S
C2120 C2114 1.428 . S
C2120 N2119 1.351 . S
C2120 C2121 1.434 . S
C2121 C2112 1.429 . S
C2121 N2118 1.350 . S
C2121 C2120 1.434 . S
C2122 C2123 1.369 . S
C2122 C2124 1.419 . S
C2122 H2126 0.930 . S
C2123 C2122 1.369 . S
C2123 C2132 1.429 . S
C2124 C2122 1.419 . S
C2124 C2125 1.363 . S
C2124 H2127 0.929 . S
C2125 C2124 1.363 . S
C2125 C2131 1.428 . S
H2126 C2122 0.930 . S
H2127 C2124 0.929 . S
S2128 N2129 1.613 . S
S2128 N2130 1.610 . S
N2129 S2128 1.613 . S
N2129 C2132 1.350 . S
N2130 S2128 1.610 . S
N2130 C2131 1.351 . S
C2131 C2125 1.428 . S
C2131 N2130 1.351 . S
C2131 C2132 1.434 . S
C2132 C2123 1.429 . S
C2132 N2129 1.350 . S
C2132 C2131 1.434 . S
C2133 C2134 1.369 . S
C2133 C2135 1.419 . S
C2133 H2137 0.930 . S
C2134 C2133 1.369 . S
C2134 C2143 1.429 . S
C2135 C2133 1.419 . S
C2135 C2136 1.363 . S
C2135 H2138 0.929 . S
C2136 C2135 1.363 . S
C2136 C2142 1.428 . S
H2137 C2133 0.930 . S
H2138 C2135 0.929 . S
S2139 N2140 1.613 . S
S2139 N2141 1.610 . S
N2140 S2139 1.613 . S
N2140 C2143 1.350 . S
N2141 S2139 1.610 . S
N2141 C2142 1.351 . S
C2142 C2136 1.428 . S
C2142 N2141 1.351 . S
C2142 C2143 1.434 . S
C2143 C2134 1.429 . S
C2143 N2140 1.350 . S
C2143 C2142 1.434 . S
C2144 C2145 1.369 . S
C2144 C2146 1.419 . S
C2144 H2148 0.930 . S
C2145 C2144 1.369 . S
C2145 C2154 1.429 . S
C2146 C2144 1.419 . S
C2146 C2147 1.363 . S
C2146 H2149 0.929 . S
C2147 C2146 1.363 . S
C2147 C2153 1.428 . S
H2148 C2144 0.930 . S
H2149 C2146 0.929 . S
S2150 N2151 1.613 . S
S2150 N2152 1.610 . S
N2151 S2150 1.613 . S
N2151 C2154 1.350 . S
N2152 S2150 1.610 . S
N2152 C2153 1.351 . S
C2153 C2147 1.428 . S
C2153 N2152 1.351 . S
C2153 C2154 1.434 . S
C2154 C2145 1.429 . S
C2154 N2151 1.350 . S
C2154 C2153 1.434 . S
C2155 C2156 1.369 . S
C2155 C2157 1.419 . S
C2155 H2159 0.930 . S
C2156 C2155 1.369 . S
C2156 C2165 1.429 . S
C2157 C2155 1.419 . S
C2157 C2158 1.363 . S
C2157 H2160 0.929 . S
C2158 C2157 1.363 . S
C2158 C2164 1.428 . S
H2159 C2155 0.930 . S
H2160 C2157 0.929 . S
S2161 N2162 1.613 . S
S2161 N2163 1.610 . S
N2162 S2161 1.613 . S
N2162 C2165 1.350 . S
N2163 S2161 1.610 . S
N2163 C2164 1.351 . S
C2164 C2158 1.428 . S
C2164 N2163 1.351 . S
C2164 C2165 1.434 . S
C2165 C2156 1.429 . S
C2165 N2162 1.350 . S
C2165 C2164 1.434 . S
C2166 C2167 1.369 . S
C2166 C2168 1.419 . S
C2166 H2170 0.930 . S
C2167 C2166 1.369 . S
C2167 C2176 1.429 . S
C2168 C2166 1.419 . S
C2168 C2169 1.363 . S
C2168 H2171 0.929 . S
C2169 C2168 1.363 . S
C2169 C2175 1.428 . S
H2170 C2166 0.930 . S
H2171 C2168 0.929 . S
S2172 N2173 1.613 . S
S2172 N2174 1.610 . S
N2173 S2172 1.613 . S
N2173 C2176 1.350 . S
N2174 S2172 1.610 . S
N2174 C2175 1.351 . S
C2175 C2169 1.428 . S
C2175 N2174 1.351 . S
C2175 C2176 1.434 . S
C2176 C2167 1.429 . S
C2176 N2173 1.350 . S
C2176 C2175 1.434 . S
C2177 C2178 1.369 . S
C2177 C2179 1.419 . S
C2177 H2181 0.930 . S
C2178 C2177 1.369 . S
C2178 C2187 1.429 . S
C2179 C2177 1.419 . S
C2179 C2180 1.363 . S
C2179 H2182 0.929 . S
C2180 C2179 1.363 . S
C2180 C2186 1.428 . S
H2181 C2177 0.930 . S
H2182 C2179 0.929 . S
S2183 N2184 1.613 . S
S2183 N2185 1.610 . S
N2184 S2183 1.613 . S
N2184 C2187 1.350 . S
N2185 S2183 1.610 . S
N2185 C2186 1.351 . S
C2186 C2180 1.428 . S
C2186 N2185 1.351 . S
C2186 C2187 1.434 . S
C2187 C2178 1.429 . S
C2187 N2184 1.350 . S
C2187 C2186 1.434 . S
C2188 C2189 1.369 . S
C2188 C2190 1.419 . S
C2188 H2192 0.930 . S
C2189 C2188 1.369 . S
C2189 C2198 1.429 . S
C2190 C2188 1.419 . S
C2190 C2191 1.363 . S
C2190 H2193 0.929 . S
C2191 C2190 1.363 . S
C2191 C2197 1.428 . S
H2192 C2188 0.930 . S
H2193 C2190 0.929 . S
S2194 N2195 1.613 . S
S2194 N2196 1.610 . S
N2195 S2194 1.613 . S
N2195 C2198 1.350 . S
N2196 S2194 1.610 . S
N2196 C2197 1.351 . S
C2197 C2191 1.428 . S
C2197 N2196 1.351 . S
C2197 C2198 1.434 . S
C2198 C2189 1.429 . S
C2198 N2195 1.350 . S
C2198 C2197 1.434 . S
C2199 C2200 1.369 . S
C2199 C2201 1.419 . S
C2199 H2203 0.930 . S
C2200 C2199 1.369 . S
C2200 C2209 1.429 . S
C2201 C2199 1.419 . S
C2201 C2202 1.363 . S
C2201 H2204 0.929 . S
C2202 C2201 1.363 . S
C2202 C2208 1.428 . S
H2203 C2199 0.930 . S
H2204 C2201 0.929 . S
S2205 N2206 1.613 . S
S2205 N2207 1.610 . S
N2206 S2205 1.613 . S
N2206 C2209 1.350 . S
N2207 S2205 1.610 . S
N2207 C2208 1.351 . S
C2208 C2202 1.428 . S
C2208 N2207 1.351 . S
C2208 C2209 1.434 . S
C2209 C2200 1.429 . S
C2209 N2206 1.350 . S
C2209 C2208 1.434 . S
C2210 C2211 1.369 . S
C2210 C2212 1.419 . S
C2210 H2214 0.930 . S
C2211 C2210 1.369 . S
C2211 C2220 1.429 . S
C2212 C2210 1.419 . S
C2212 C2213 1.363 . S
C2212 H2215 0.929 . S
C2213 C2212 1.363 . S
C2213 C2219 1.428 . S
H2214 C2210 0.930 . S
H2215 C2212 0.929 . S
S2216 N2217 1.613 . S
S2216 N2218 1.610 . S
N2217 S2216 1.613 . S
N2217 C2220 1.350 . S
N2218 S2216 1.610 . S
N2218 C2219 1.351 . S
C2219 C2213 1.428 . S
C2219 N2218 1.351 . S
C2219 C2220 1.434 . S
C2220 C2211 1.429 . S
C2220 N2217 1.350 . S
C2220 C2219 1.434 . S
C2221 C2222 1.369 . S
C2221 C2223 1.419 . S
C2221 H2225 0.930 . S
C2222 C2221 1.369 . S
C2222 C2231 1.429 . S
C2223 C2221 1.419 . S
C2223 C2224 1.363 . S
C2223 H2226 0.929 . S
C2224 C2223 1.363 . S
C2224 C2230 1.428 . S
H2225 C2221 0.930 . S
H2226 C2223 0.929 . S
S2227 N2228 1.613 . S
S2227 N2229 1.610 . S
N2228 S2227 1.613 . S
N2228 C2231 1.350 . S
N2229 S2227 1.610 . S
N2229 C2230 1.351 . S
C2230 C2224 1.428 . S
C2230 N2229 1.351 . S
C2230 C2231 1.434 . S
C2231 C2222 1.429 . S
C2231 N2228 1.350 . S
C2231 C2230 1.434 . S
C2232 C2233 1.369 . S
C2232 C2234 1.419 . S
C2232 H2236 0.930 . S
C2233 C2232 1.369 . S
C2233 C2242 1.429 . S
C2234 C2232 1.419 . S
C2234 C2235 1.363 . S
C2234 H2237 0.929 . S
C2235 C2234 1.363 . S
C2235 C2241 1.428 . S
H2236 C2232 0.930 . S
H2237 C2234 0.929 . S
S2238 N2239 1.613 . S
S2238 N2240 1.610 . S
N2239 S2238 1.613 . S
N2239 C2242 1.350 . S
N2240 S2238 1.610 . S
N2240 C2241 1.351 . S
C2241 C2235 1.428 . S
C2241 N2240 1.351 . S
C2241 C2242 1.434 . S
C2242 C2233 1.429 . S
C2242 N2239 1.350 . S
C2242 C2241 1.434 . S
C2243 C2244 1.369 . S
C2243 C2245 1.419 . S
C2243 H2247 0.930 . S
C2244 C2243 1.369 . S
C2244 C2253 1.429 . S
C2245 C2243 1.419 . S
C2245 C2246 1.363 . S
C2245 H2248 0.929 . S
C2246 C2245 1.363 . S
C2246 C2252 1.428 . S
H2247 C2243 0.930 . S
H2248 C2245 0.929 . S
S2249 N2250 1.613 . S
S2249 N2251 1.610 . S
N2250 S2249 1.613 . S
N2250 C2253 1.350 . S
N2251 S2249 1.610 . S
N2251 C2252 1.351 . S
C2252 C2246 1.428 . S
C2252 N2251 1.351 . S
C2252 C2253 1.434 . S
C2253 C2244 1.429 . S
C2253 N2250 1.350 . S
C2253 C2252 1.434 . S
C2254 C2255 1.369 . S
C2254 C2256 1.419 . S
C2254 H2258 0.930 . S
C2255 C2254 1.369 . S
C2255 C2264 1.429 . S
C2256 C2254 1.419 . S
C2256 C2257 1.363 . S
C2256 H2259 0.929 . S
C2257 C2256 1.363 . S
C2257 C2263 1.428 . S
H2258 C2254 0.930 . S
H2259 C2256 0.929 . S
S2260 N2261 1.613 . S
S2260 N2262 1.610 . S
N2261 S2260 1.613 . S
N2261 C2264 1.350 . S
N2262 S2260 1.610 . S
N2262 C2263 1.351 . S
C2263 C2257 1.428 . S
C2263 N2262 1.351 . S
C2263 C2264 1.434 . S
C2264 C2255 1.429 . S
C2264 N2261 1.350 . S
C2264 C2263 1.434 . S
C2265 C2266 1.369 . S
C2265 C2267 1.419 . S
C2265 H2269 0.930 . S
C2266 C2265 1.369 . S
C2266 C2275 1.429 . S
C2267 C2265 1.419 . S
C2267 C2268 1.363 . S
C2267 H2270 0.929 . S
C2268 C2267 1.363 . S
C2268 C2274 1.428 . S
H2269 C2265 0.930 . S
H2270 C2267 0.929 . S
S2271 N2272 1.613 . S
S2271 N2273 1.610 . S
N2272 S2271 1.613 . S
N2272 C2275 1.350 . S
N2273 S2271 1.610 . S
N2273 C2274 1.351 . S
C2274 C2268 1.428 . S
C2274 N2273 1.351 . S
C2274 C2275 1.434 . S
C2275 C2266 1.429 . S
C2275 N2272 1.350 . S
C2275 C2274 1.434 . S
C2276 C2277 1.369 . S
C2276 C2278 1.419 . S
C2276 H2280 0.930 . S
C2277 C2276 1.369 . S
C2277 C2286 1.429 . S
C2278 C2276 1.419 . S
C2278 C2279 1.363 . S
C2278 H2281 0.929 . S
C2279 C2278 1.363 . S
C2279 C2285 1.428 . S
H2280 C2276 0.930 . S
H2281 C2278 0.929 . S
S2282 N2283 1.613 . S
S2282 N2284 1.610 . S
N2283 S2282 1.613 . S
N2283 C2286 1.350 . S
N2284 S2282 1.610 . S
N2284 C2285 1.351 . S
C2285 C2279 1.428 . S
C2285 N2284 1.351 . S
C2285 C2286 1.434 . S
C2286 C2277 1.429 . S
C2286 N2283 1.350 . S
C2286 C2285 1.434 . S
C2287 C2288 1.369 . S
C2287 C2289 1.419 . S
C2287 H2291 0.930 . S
C2288 C2287 1.369 . S
C2288 C2297 1.429 . S
C2289 C2287 1.419 . S
C2289 C2290 1.363 . S
C2289 H2292 0.929 . S
C2290 C2289 1.363 . S
C2290 C2296 1.428 . S
H2291 C2287 0.930 . S
H2292 C2289 0.929 . S
S2293 N2294 1.613 . S
S2293 N2295 1.610 . S
N2294 S2293 1.613 . S
N2294 C2297 1.350 . S
N2295 S2293 1.610 . S
N2295 C2296 1.351 . S
C2296 C2290 1.428 . S
C2296 N2295 1.351 . S
C2296 C2297 1.434 . S
C2297 C2288 1.429 . S
C2297 N2294 1.350 . S
C2297 C2296 1.434 . S
C2298 C2299 1.369 . S
C2298 C2300 1.419 . S
C2298 H2302 0.930 . S
C2299 C2298 1.369 . S
C2299 C2308 1.429 . S
C2300 C2298 1.419 . S
C2300 C2301 1.363 . S
C2300 H2303 0.929 . S
C2301 C2300 1.363 . S
C2301 C2307 1.428 . S
H2302 C2298 0.930 . S
H2303 C2300 0.929 . S
S2304 N2305 1.613 . S
S2304 N2306 1.610 . S
N2305 S2304 1.613 . S
N2305 C2308 1.350 . S
N2306 S2304 1.610 . S
N2306 C2307 1.351 . S
C2307 C2301 1.428 . S
C2307 N2306 1.351 . S
C2307 C2308 1.434 . S
C2308 C2299 1.429 . S
C2308 N2305 1.350 . S
C2308 C2307 1.434 . S
C2309 C2310 1.369 . S
C2309 C2311 1.419 . S
C2309 H2313 0.930 . S
C2310 C2309 1.369 . S
C2310 C2319 1.429 . S
C2311 C2309 1.419 . S
C2311 C2312 1.363 . S
C2311 H2314 0.929 . S
C2312 C2311 1.363 . S
C2312 C2318 1.428 . S
H2313 C2309 0.930 . S
H2314 C2311 0.929 . S
S2315 N2316 1.613 . S
S2315 N2317 1.610 . S
N2316 S2315 1.613 . S
N2316 C2319 1.350 . S
N2317 S2315 1.610 . S
N2317 C2318 1.351 . S
C2318 C2312 1.428 . S
C2318 N2317 1.351 . S
C2318 C2319 1.434 . S
C2319 C2310 1.429 . S
C2319 N2316 1.350 . S
C2319 C2318 1.434 . S
C2320 C2321 1.369 . S
C2320 C2322 1.419 . S
C2320 H2324 0.930 . S
C2321 C2320 1.369 . S
C2321 C2330 1.429 . S
C2322 C2320 1.419 . S
C2322 C2323 1.363 . S
C2322 H2325 0.929 . S
C2323 C2322 1.363 . S
C2323 C2329 1.428 . S
H2324 C2320 0.930 . S
H2325 C2322 0.929 . S
S2326 N2327 1.613 . S
S2326 N2328 1.610 . S
N2327 S2326 1.613 . S
N2327 C2330 1.350 . S
N2328 S2326 1.610 . S
N2328 C2329 1.351 . S
C2329 C2323 1.428 . S
C2329 N2328 1.351 . S
C2329 C2330 1.434 . S
C2330 C2321 1.429 . S
C2330 N2327 1.350 . S
C2330 C2329 1.434 . S
C2331 C2332 1.369 . S
C2331 C2333 1.419 . S
C2331 H2335 0.930 . S
C2332 C2331 1.369 . S
C2332 C2341 1.429 . S
C2333 C2331 1.419 . S
C2333 C2334 1.363 . S
C2333 H2336 0.929 . S
C2334 C2333 1.363 . S
C2334 C2340 1.428 . S
H2335 C2331 0.930 . S
H2336 C2333 0.929 . S
S2337 N2338 1.613 . S
S2337 N2339 1.610 . S
N2338 S2337 1.613 . S
N2338 C2341 1.350 . S
N2339 S2337 1.610 . S
N2339 C2340 1.351 . S
C2340 C2334 1.428 . S
C2340 N2339 1.351 . S
C2340 C2341 1.434 . S
C2341 C2332 1.429 . S
C2341 N2338 1.350 . S
C2341 C2340 1.434 . S
C2342 C2343 1.369 . S
C2342 C2344 1.419 . S
C2342 H2346 0.930 . S
C2343 C2342 1.369 . S
C2343 C2352 1.429 . S
C2344 C2342 1.419 . S
C2344 C2345 1.363 . S
C2344 H2347 0.929 . S
C2345 C2344 1.363 . S
C2345 C2351 1.428 . S
H2346 C2342 0.930 . S
H2347 C2344 0.929 . S
S2348 N2349 1.613 . S
S2348 N2350 1.610 . S
N2349 S2348 1.613 . S
N2349 C2352 1.350 . S
N2350 S2348 1.610 . S
N2350 C2351 1.351 . S
C2351 C2345 1.428 . S
C2351 N2350 1.351 . S
C2351 C2352 1.434 . S
C2352 C2343 1.429 . S
C2352 N2349 1.350 . S
C2352 C2351 1.434 . S
C2353 C2354 1.369 . S
C2353 C2355 1.419 . S
C2353 H2357 0.930 . S
C2354 C2353 1.369 . S
C2354 C2363 1.429 . S
C2355 C2353 1.419 . S
C2355 C2356 1.363 . S
C2355 H2358 0.929 . S
C2356 C2355 1.363 . S
C2356 C2362 1.428 . S
H2357 C2353 0.930 . S
H2358 C2355 0.929 . S
S2359 N2360 1.613 . S
S2359 N2361 1.610 . S
N2360 S2359 1.613 . S
N2360 C2363 1.350 . S
N2361 S2359 1.610 . S
N2361 C2362 1.351 . S
C2362 C2356 1.428 . S
C2362 N2361 1.351 . S
C2362 C2363 1.434 . S
C2363 C2354 1.429 . S
C2363 N2360 1.350 . S
C2363 C2362 1.434 . S
C2364 C2365 1.369 . S
C2364 C2366 1.419 . S
C2364 H2368 0.930 . S
C2365 C2364 1.369 . S
C2365 C2374 1.429 . S
C2366 C2364 1.419 . S
C2366 C2367 1.363 . S
C2366 H2369 0.929 . S
C2367 C2366 1.363 . S
C2367 C2373 1.428 . S
H2368 C2364 0.930 . S
H2369 C2366 0.929 . S
S2370 N2371 1.613 . S
S2370 N2372 1.610 . S
N2371 S2370 1.613 . S
N2371 C2374 1.350 . S
N2372 S2370 1.610 . S
N2372 C2373 1.351 . S
C2373 C2367 1.428 . S
C2373 N2372 1.351 . S
C2373 C2374 1.434 . S
C2374 C2365 1.429 . S
C2374 N2371 1.350 . S
C2374 C2373 1.434 . S
C2375 C2376 1.369 . S
C2375 C2377 1.419 . S
C2375 H2379 0.930 . S
C2376 C2375 1.369 . S
C2376 C2385 1.429 . S
C2377 C2375 1.419 . S
C2377 C2378 1.363 . S
C2377 H2380 0.929 . S
C2378 C2377 1.363 . S
C2378 C2384 1.428 . S
H2379 C2375 0.930 . S
H2380 C2377 0.929 . S
S2381 N2382 1.613 . S
S2381 N2383 1.610 . S
N2382 S2381 1.613 . S
N2382 C2385 1.350 . S
N2383 S2381 1.610 . S
N2383 C2384 1.351 . S
C2384 C2378 1.428 . S
C2384 N2383 1.351 . S
C2384 C2385 1.434 . S
C2385 C2376 1.429 . S
C2385 N2382 1.350 . S
C2385 C2384 1.434 . S
C2386 C2387 1.369 . S
C2386 C2388 1.419 . S
C2386 H2390 0.930 . S
C2387 C2386 1.369 . S
C2387 C2396 1.429 . S
C2388 C2386 1.419 . S
C2388 C2389 1.363 . S
C2388 H2391 0.929 . S
C2389 C2388 1.363 . S
C2389 C2395 1.428 . S
H2390 C2386 0.930 . S
H2391 C2388 0.929 . S
S2392 N2393 1.613 . S
S2392 N2394 1.610 . S
N2393 S2392 1.613 . S
N2393 C2396 1.350 . S
N2394 S2392 1.610 . S
N2394 C2395 1.351 . S
C2395 C2389 1.428 . S
C2395 N2394 1.351 . S
C2395 C2396 1.434 . S
C2396 C2387 1.429 . S
C2396 N2393 1.350 . S
C2396 C2395 1.434 . S
C2397 C2398 1.369 . S
C2397 C2399 1.419 . S
C2397 H2401 0.930 . S
C2398 C2397 1.369 . S
C2398 C2407 1.429 . S
C2399 C2397 1.419 . S
C2399 C2400 1.363 . S
C2399 H2402 0.929 . S
C2400 C2399 1.363 . S
C2400 C2406 1.428 . S
H2401 C2397 0.930 . S
H2402 C2399 0.929 . S
S2403 N2404 1.613 . S
S2403 N2405 1.610 . S
N2404 S2403 1.613 . S
N2404 C2407 1.350 . S
N2405 S2403 1.610 . S
N2405 C2406 1.351 . S
C2406 C2400 1.428 . S
C2406 N2405 1.351 . S
C2406 C2407 1.434 . S
C2407 C2398 1.429 . S
C2407 N2404 1.350 . S
C2407 C2406 1.434 . S
C2408 C2409 1.369 . S
C2408 C2410 1.419 . S
C2408 H2412 0.930 . S
C2409 C2408 1.369 . S
C2409 C2418 1.429 . S
C2410 C2408 1.419 . S
C2410 C2411 1.363 . S
C2410 H2413 0.929 . S
C2411 C2410 1.363 . S
C2411 C2417 1.428 . S
H2412 C2408 0.930 . S
H2413 C2410 0.929 . S
S2414 N2415 1.613 . S
S2414 N2416 1.610 . S
N2415 S2414 1.613 . S
N2415 C2418 1.350 . S
N2416 S2414 1.610 . S
N2416 C2417 1.351 . S
C2417 C2411 1.428 . S
C2417 N2416 1.351 . S
C2417 C2418 1.434 . S
C2418 C2409 1.429 . S
C2418 N2415 1.350 . S
C2418 C2417 1.434 . S
C2419 C2420 1.369 . S
C2419 C2421 1.419 . S
C2419 H2423 0.930 . S
C2420 C2419 1.369 . S
C2420 C2429 1.429 . S
C2421 C2419 1.419 . S
C2421 C2422 1.363 . S
C2421 H2424 0.929 . S
C2422 C2421 1.363 . S
C2422 C2428 1.428 . S
H2423 C2419 0.930 . S
H2424 C2421 0.929 . S
S2425 N2426 1.613 . S
S2425 N2427 1.610 . S
N2426 S2425 1.613 . S
N2426 C2429 1.350 . S
N2427 S2425 1.610 . S
N2427 C2428 1.351 . S
C2428 C2422 1.428 . S
C2428 N2427 1.351 . S
C2428 C2429 1.434 . S
C2429 C2420 1.429 . S
C2429 N2426 1.350 . S
C2429 C2428 1.434 . S
C2430 C2431 1.369 . S
C2430 C2432 1.419 . S
C2430 H2434 0.930 . S
C2431 C2430 1.369 . S
C2431 C2440 1.429 . S
C2432 C2430 1.419 . S
C2432 C2433 1.363 . S
C2432 H2435 0.929 . S
C2433 C2432 1.363 . S
C2433 C2439 1.428 . S
H2434 C2430 0.930 . S
H2435 C2432 0.929 . S
S2436 N2437 1.613 . S
S2436 N2438 1.610 . S
N2437 S2436 1.613 . S
N2437 C2440 1.350 . S
N2438 S2436 1.610 . S
N2438 C2439 1.351 . S
C2439 C2433 1.428 . S
C2439 N2438 1.351 . S
C2439 C2440 1.434 . S
C2440 C2431 1.429 . S
C2440 N2437 1.350 . S
C2440 C2439 1.434 . S
C2441 C2442 1.369 . S
C2441 C2443 1.419 . S
C2441 H2445 0.930 . S
C2442 C2441 1.369 . S
C2442 C2451 1.429 . S
C2443 C2441 1.419 . S
C2443 C2444 1.363 . S
C2443 H2446 0.929 . S
C2444 C2443 1.363 . S
C2444 C2450 1.428 . S
H2445 C2441 0.930 . S
H2446 C2443 0.929 . S
S2447 N2448 1.613 . S
S2447 N2449 1.610 . S
N2448 S2447 1.613 . S
N2448 C2451 1.350 . S
N2449 S2447 1.610 . S
N2449 C2450 1.351 . S
C2450 C2444 1.428 . S
C2450 N2449 1.351 . S
C2450 C2451 1.434 . S
C2451 C2442 1.429 . S
C2451 N2448 1.350 . S
C2451 C2450 1.434 . S
C2452 C2453 1.369 . S
C2452 C2454 1.419 . S
C2452 H2456 0.930 . S
C2453 C2452 1.369 . S
C2453 C2462 1.429 . S
C2454 C2452 1.419 . S
C2454 C2455 1.363 . S
C2454 H2457 0.929 . S
C2455 C2454 1.363 . S
C2455 C2461 1.428 . S
H2456 C2452 0.930 . S
H2457 C2454 0.929 . S
S2458 N2459 1.613 . S
S2458 N2460 1.610 . S
N2459 S2458 1.613 . S
N2459 C2462 1.350 . S
N2460 S2458 1.610 . S
N2460 C2461 1.351 . S
C2461 C2455 1.428 . S
C2461 N2460 1.351 . S
C2461 C2462 1.434 . S
C2462 C2453 1.429 . S
C2462 N2459 1.350 . S
C2462 C2461 1.434 . S
C2463 C2464 1.369 . S
C2463 C2465 1.419 . S
C2463 H2467 0.930 . S
C2464 C2463 1.369 . S
C2464 C2473 1.429 . S
C2465 C2463 1.419 . S
C2465 C2466 1.363 . S
C2465 H2468 0.929 . S
C2466 C2465 1.363 . S
C2466 C2472 1.428 . S
H2467 C2463 0.930 . S
H2468 C2465 0.929 . S
S2469 N2470 1.613 . S
S2469 N2471 1.610 . S
N2470 S2469 1.613 . S
N2470 C2473 1.350 . S
N2471 S2469 1.610 . S
N2471 C2472 1.351 . S
C2472 C2466 1.428 . S
C2472 N2471 1.351 . S
C2472 C2473 1.434 . S
C2473 C2464 1.429 . S
C2473 N2470 1.350 . S
C2473 C2472 1.434 . S
C2474 C2475 1.369 . S
C2474 C2476 1.419 . S
C2474 H2478 0.930 . S
C2475 C2474 1.369 . S
C2475 C2484 1.429 . S
C2476 C2474 1.419 . S
C2476 C2477 1.363 . S
C2476 H2479 0.929 . S
C2477 C2476 1.363 . S
C2477 C2483 1.428 . S
H2478 C2474 0.930 . S
H2479 C2476 0.929 . S
S2480 N2481 1.613 . S
S2480 N2482 1.610 . S
N2481 S2480 1.613 . S
N2481 C2484 1.350 . S
N2482 S2480 1.610 . S
N2482 C2483 1.351 . S
C2483 C2477 1.428 . S
C2483 N2482 1.351 . S
C2483 C2484 1.434 . S
C2484 C2475 1.429 . S
C2484 N2481 1.350 . S
C2484 C2483 1.434 . S
C2485 C2486 1.369 . S
C2485 C2487 1.419 . S
C2485 H2489 0.930 . S
C2486 C2485 1.369 . S
C2486 C2495 1.429 . S
C2487 C2485 1.419 . S
C2487 C2488 1.363 . S
C2487 H2490 0.929 . S
C2488 C2487 1.363 . S
C2488 C2494 1.428 . S
H2489 C2485 0.930 . S
H2490 C2487 0.929 . S
S2491 N2492 1.613 . S
S2491 N2493 1.610 . S
N2492 S2491 1.613 . S
N2492 C2495 1.350 . S
N2493 S2491 1.610 . S
N2493 C2494 1.351 . S
C2494 C2488 1.428 . S
C2494 N2493 1.351 . S
C2494 C2495 1.434 . S
C2495 C2486 1.429 . S
C2495 N2492 1.350 . S
C2495 C2494 1.434 . S
C2496 C2497 1.369 . S
C2496 C2498 1.419 . S
C2496 H2500 0.930 . S
C2497 C2496 1.369 . S
C2497 C2506 1.429 . S
C2498 C2496 1.419 . S
C2498 C2499 1.363 . S
C2498 H2501 0.929 . S
C2499 C2498 1.363 . S
C2499 C2505 1.428 . S
H2500 C2496 0.930 . S
H2501 C2498 0.929 . S
S2502 N2503 1.613 . S
S2502 N2504 1.610 . S
N2503 S2502 1.613 . S
N2503 C2506 1.350 . S
N2504 S2502 1.610 . S
N2504 C2505 1.351 . S
C2505 C2499 1.428 . S
C2505 N2504 1.351 . S
C2505 C2506 1.434 . S
C2506 C2497 1.429 . S
C2506 N2503 1.350 . S
C2506 C2505 1.434 . S
C2507 C2508 1.369 . S
C2507 C2509 1.419 . S
C2507 H2511 0.930 . S
C2508 C2507 1.369 . S
C2508 C2517 1.429 . S
C2509 C2507 1.419 . S
C2509 C2510 1.363 . S
C2509 H2512 0.929 . S
C2510 C2509 1.363 . S
C2510 C2516 1.428 . S
H2511 C2507 0.930 . S
H2512 C2509 0.929 . S
S2513 N2514 1.613 . S
S2513 N2515 1.610 . S
N2514 S2513 1.613 . S
N2514 C2517 1.350 . S
N2515 S2513 1.610 . S
N2515 C2516 1.351 . S
C2516 C2510 1.428 . S
C2516 N2515 1.351 . S
C2516 C2517 1.434 . S
C2517 C2508 1.429 . S
C2517 N2514 1.350 . S
C2517 C2516 1.434 . S
C2518 C2519 1.369 . S
C2518 C2520 1.419 . S
C2518 H2522 0.930 . S
C2519 C2518 1.369 . S
C2519 C2528 1.429 . S
C2520 C2518 1.419 . S
C2520 C2521 1.363 . S
C2520 H2523 0.929 . S
C2521 C2520 1.363 . S
C2521 C2527 1.428 . S
H2522 C2518 0.930 . S
H2523 C2520 0.929 . S
S2524 N2525 1.613 . S
S2524 N2526 1.610 . S
N2525 S2524 1.613 . S
N2525 C2528 1.350 . S
N2526 S2524 1.610 . S
N2526 C2527 1.351 . S
C2527 C2521 1.428 . S
C2527 N2526 1.351 . S
C2527 C2528 1.434 . S
C2528 C2519 1.429 . S
C2528 N2525 1.350 . S
C2528 C2527 1.434 . S
C2529 C2530 1.369 . S
C2529 C2531 1.419 . S
C2529 H2533 0.930 . S
C2530 C2529 1.369 . S
C2530 C2539 1.429 . S
C2531 C2529 1.419 . S
C2531 C2532 1.363 . S
C2531 H2534 0.929 . S
C2532 C2531 1.363 . S
C2532 C2538 1.428 . S
H2533 C2529 0.930 . S
H2534 C2531 0.929 . S
S2535 N2536 1.613 . S
S2535 N2537 1.610 . S
N2536 S2535 1.613 . S
N2536 C2539 1.350 . S
N2537 S2535 1.610 . S
N2537 C2538 1.351 . S
C2538 C2532 1.428 . S
C2538 N2537 1.351 . S
C2538 C2539 1.434 . S
C2539 C2530 1.429 . S
C2539 N2536 1.350 . S
C2539 C2538 1.434 . S
C2540 C2541 1.369 . S
C2540 C2542 1.419 . S
C2540 H2544 0.930 . S
C2541 C2540 1.369 . S
C2541 C2550 1.429 . S
C2542 C2540 1.419 . S
C2542 C2543 1.363 . S
C2542 H2545 0.929 . S
C2543 C2542 1.363 . S
C2543 C2549 1.428 . S
H2544 C2540 0.930 . S
H2545 C2542 0.929 . S
S2546 N2547 1.613 . S
S2546 N2548 1.610 . S
N2547 S2546 1.613 . S
N2547 C2550 1.350 . S
N2548 S2546 1.610 . S
N2548 C2549 1.351 . S
C2549 C2543 1.428 . S
C2549 N2548 1.351 . S
C2549 C2550 1.434 . S
C2550 C2541 1.429 . S
C2550 N2547 1.350 . S
C2550 C2549 1.434 . S
C2551 C2552 1.369 . S
C2551 C2553 1.419 . S
C2551 H2555 0.930 . S
C2552 C2551 1.369 . S
C2552 C2561 1.429 . S
C2553 C2551 1.419 . S
C2553 C2554 1.363 . S
C2553 H2556 0.929 . S
C2554 C2553 1.363 . S
C2554 C2560 1.428 . S
H2555 C2551 0.930 . S
H2556 C2553 0.929 . S
S2557 N2558 1.613 . S
S2557 N2559 1.610 . S
N2558 S2557 1.613 . S
N2558 C2561 1.350 . S
N2559 S2557 1.610 . S
N2559 C2560 1.351 . S
C2560 C2554 1.428 . S
C2560 N2559 1.351 . S
C2560 C2561 1.434 . S
C2561 C2552 1.429 . S
C2561 N2558 1.350 . S
C2561 C2560 1.434 . S
C2562 C2563 1.369 . S
C2562 C2564 1.419 . S
C2562 H2566 0.930 . S
C2563 C2562 1.369 . S
C2563 C2572 1.429 . S
C2564 C2562 1.419 . S
C2564 C2565 1.363 . S
C2564 H2567 0.929 . S
C2565 C2564 1.363 . S
C2565 C2571 1.428 . S
H2566 C2562 0.930 . S
H2567 C2564 0.929 . S
S2568 N2569 1.613 . S
S2568 N2570 1.610 . S
N2569 S2568 1.613 . S
N2569 C2572 1.350 . S
N2570 S2568 1.610 . S
N2570 C2571 1.351 . S
C2571 C2565 1.428 . S
C2571 N2570 1.351 . S
C2571 C2572 1.434 . S
C2572 C2563 1.429 . S
C2572 N2569 1.350 . S
C2572 C2571 1.434 . S
C2573 C2574 1.369 . S
C2573 C2575 1.419 . S
C2573 H2577 0.930 . S
C2574 C2573 1.369 . S
C2574 C2583 1.429 . S
C2575 C2573 1.419 . S
C2575 C2576 1.363 . S
C2575 H2578 0.929 . S
C2576 C2575 1.363 . S
C2576 C2582 1.428 . S
H2577 C2573 0.930 . S
H2578 C2575 0.929 . S
S2579 N2580 1.613 . S
S2579 N2581 1.610 . S
N2580 S2579 1.613 . S
N2580 C2583 1.350 . S
N2581 S2579 1.610 . S
N2581 C2582 1.351 . S
C2582 C2576 1.428 . S
C2582 N2581 1.351 . S
C2582 C2583 1.434 . S
C2583 C2574 1.429 . S
C2583 N2580 1.350 . S
C2583 C2582 1.434 . S
C2584 C2585 1.369 . S
C2584 C2586 1.419 . S
C2584 H2588 0.930 . S
C2585 C2584 1.369 . S
C2585 C2594 1.429 . S
C2586 C2584 1.419 . S
C2586 C2587 1.363 . S
C2586 H2589 0.929 . S
C2587 C2586 1.363 . S
C2587 C2593 1.428 . S
H2588 C2584 0.930 . S
H2589 C2586 0.929 . S
S2590 N2591 1.613 . S
S2590 N2592 1.610 . S
N2591 S2590 1.613 . S
N2591 C2594 1.350 . S
N2592 S2590 1.610 . S
N2592 C2593 1.351 . S
C2593 C2587 1.428 . S
C2593 N2592 1.351 . S
C2593 C2594 1.434 . S
C2594 C2585 1.429 . S
C2594 N2591 1.350 . S
C2594 C2593 1.434 . S
C2595 C2596 1.369 . S
C2595 C2597 1.419 . S
C2595 H2599 0.930 . S
C2596 C2595 1.369 . S
C2596 C2605 1.429 . S
C2597 C2595 1.419 . S
C2597 C2598 1.363 . S
C2597 H2600 0.929 . S
C2598 C2597 1.363 . S
C2598 C2604 1.428 . S
H2599 C2595 0.930 . S
H2600 C2597 0.929 . S
S2601 N2602 1.613 . S
S2601 N2603 1.610 . S
N2602 S2601 1.613 . S
N2602 C2605 1.350 . S
N2603 S2601 1.610 . S
N2603 C2604 1.351 . S
C2604 C2598 1.428 . S
C2604 N2603 1.351 . S
C2604 C2605 1.434 . S
C2605 C2596 1.429 . S
C2605 N2602 1.350 . S
C2605 C2604 1.434 . S
C2606 C2607 1.369 . S
C2606 C2608 1.419 . S
C2606 H2610 0.930 . S
C2607 C2606 1.369 . S
C2607 C2616 1.429 . S
C2608 C2606 1.419 . S
C2608 C2609 1.363 . S
C2608 H2611 0.929 . S
C2609 C2608 1.363 . S
C2609 C2615 1.428 . S
H2610 C2606 0.930 . S
H2611 C2608 0.929 . S
S2612 N2613 1.613 . S
S2612 N2614 1.610 . S
N2613 S2612 1.613 . S
N2613 C2616 1.350 . S
N2614 S2612 1.610 . S
N2614 C2615 1.351 . S
C2615 C2609 1.428 . S
C2615 N2614 1.351 . S
C2615 C2616 1.434 . S
C2616 C2607 1.429 . S
C2616 N2613 1.350 . S
C2616 C2615 1.434 . S
C2617 C2618 1.369 . S
C2617 C2619 1.419 . S
C2617 H2621 0.930 . S
C2618 C2617 1.369 . S
C2618 C2627 1.429 . S
C2619 C2617 1.419 . S
C2619 C2620 1.363 . S
C2619 H2622 0.929 . S
C2620 C2619 1.363 . S
C2620 C2626 1.428 . S
H2621 C2617 0.930 . S
H2622 C2619 0.929 . S
S2623 N2624 1.613 . S
S2623 N2625 1.610 . S
N2624 S2623 1.613 . S
N2624 C2627 1.350 . S
N2625 S2623 1.610 . S
N2625 C2626 1.351 . S
C2626 C2620 1.428 . S
C2626 N2625 1.351 . S
C2626 C2627 1.434 . S
C2627 C2618 1.429 . S
C2627 N2624 1.350 . S
C2627 C2626 1.434 . S
C2628 C2629 1.369 . S
C2628 C2630 1.419 . S
C2628 H2632 0.930 . S
C2629 C2628 1.369 . S
C2629 C2638 1.429 . S
C2630 C2628 1.419 . S
C2630 C2631 1.363 . S
C2630 H2633 0.929 . S
C2631 C2630 1.363 . S
C2631 C2637 1.428 . S
H2632 C2628 0.930 . S
H2633 C2630 0.929 . S
S2634 N2635 1.613 . S
S2634 N2636 1.610 . S
N2635 S2634 1.613 . S
N2635 C2638 1.350 . S
N2636 S2634 1.610 . S
N2636 C2637 1.351 . S
C2637 C2631 1.428 . S
C2637 N2636 1.351 . S
C2637 C2638 1.434 . S
C2638 C2629 1.429 . S
C2638 N2635 1.350 . S
C2638 C2637 1.434 . S
C2639 C2640 1.369 . S
C2639 C2641 1.419 . S
C2639 H2643 0.930 . S
C2640 C2639 1.369 . S
C2640 C2649 1.429 . S
C2641 C2639 1.419 . S
C2641 C2642 1.363 . S
C2641 H2644 0.929 . S
C2642 C2641 1.363 . S
C2642 C2648 1.428 . S
H2643 C2639 0.930 . S
H2644 C2641 0.929 . S
S2645 N2646 1.613 . S
S2645 N2647 1.610 . S
N2646 S2645 1.613 . S
N2646 C2649 1.350 . S
N2647 S2645 1.610 . S
N2647 C2648 1.351 . S
C2648 C2642 1.428 . S
C2648 N2647 1.351 . S
C2648 C2649 1.434 . S
C2649 C2640 1.429 . S
C2649 N2646 1.350 . S
C2649 C2648 1.434 . S
C2650 C2651 1.369 . S
C2650 C2652 1.419 . S
C2650 H2654 0.930 . S
C2651 C2650 1.369 . S
C2651 C2660 1.429 . S
C2652 C2650 1.419 . S
C2652 C2653 1.363 . S
C2652 H2655 0.929 . S
C2653 C2652 1.363 . S
C2653 C2659 1.428 . S
H2654 C2650 0.930 . S
H2655 C2652 0.929 . S
S2656 N2657 1.613 . S
S2656 N2658 1.610 . S
N2657 S2656 1.613 . S
N2657 C2660 1.350 . S
N2658 S2656 1.610 . S
N2658 C2659 1.351 . S
C2659 C2653 1.428 . S
C2659 N2658 1.351 . S
C2659 C2660 1.434 . S
C2660 C2651 1.429 . S
C2660 N2657 1.350 . S
C2660 C2659 1.434 . S
C2661 C2662 1.369 . S
C2661 C2663 1.419 . S
C2661 H2665 0.930 . S
C2662 C2661 1.369 . S
C2662 C2671 1.429 . S
C2663 C2661 1.419 . S
C2663 C2664 1.363 . S
C2663 H2666 0.929 . S
C2664 C2663 1.363 . S
C2664 C2670 1.428 . S
H2665 C2661 0.930 . S
H2666 C2663 0.929 . S
S2667 N2668 1.613 . S
S2667 N2669 1.610 . S
N2668 S2667 1.613 . S
N2668 C2671 1.350 . S
N2669 S2667 1.610 . S
N2669 C2670 1.351 . S
C2670 C2664 1.428 . S
C2670 N2669 1.351 . S
C2670 C2671 1.434 . S
C2671 C2662 1.429 . S
C2671 N2668 1.350 . S
C2671 C2670 1.434 . S
C2672 C2673 1.369 . S
C2672 C2674 1.419 . S
C2672 H2676 0.930 . S
C2673 C2672 1.369 . S
C2673 C2682 1.429 . S
C2674 C2672 1.419 . S
C2674 C2675 1.363 . S
C2674 H2677 0.929 . S
C2675 C2674 1.363 . S
C2675 C2681 1.428 . S
H2676 C2672 0.930 . S
H2677 C2674 0.929 . S
S2678 N2679 1.613 . S
S2678 N2680 1.610 . S
N2679 S2678 1.613 . S
N2679 C2682 1.350 . S
N2680 S2678 1.610 . S
N2680 C2681 1.351 . S
C2681 C2675 1.428 . S
C2681 N2680 1.351 . S
C2681 C2682 1.434 . S
C2682 C2673 1.429 . S
C2682 N2679 1.350 . S
C2682 C2681 1.434 . S
C2683 C2684 1.369 . S
C2683 C2685 1.419 . S
C2683 H2687 0.930 . S
C2684 C2683 1.369 . S
C2684 C2693 1.429 . S
C2685 C2683 1.419 . S
C2685 C2686 1.363 . S
C2685 H2688 0.929 . S
C2686 C2685 1.363 . S
C2686 C2692 1.428 . S
H2687 C2683 0.930 . S
H2688 C2685 0.929 . S
S2689 N2690 1.613 . S
S2689 N2691 1.610 . S
N2690 S2689 1.613 . S
N2690 C2693 1.350 . S
N2691 S2689 1.610 . S
N2691 C2692 1.351 . S
C2692 C2686 1.428 . S
C2692 N2691 1.351 . S
C2692 C2693 1.434 . S
C2693 C2684 1.429 . S
C2693 N2690 1.350 . S
C2693 C2692 1.434 . S
C2694 C2695 1.369 . S
C2694 C2696 1.419 . S
C2694 H2698 0.930 . S
C2695 C2694 1.369 . S
C2695 C2704 1.429 . S
C2696 C2694 1.419 . S
C2696 C2697 1.363 . S
C2696 H2699 0.929 . S
C2697 C2696 1.363 . S
C2697 C2703 1.428 . S
H2698 C2694 0.930 . S
H2699 C2696 0.929 . S
S2700 N2701 1.613 . S
S2700 N2702 1.610 . S
N2701 S2700 1.613 . S
N2701 C2704 1.350 . S
N2702 S2700 1.610 . S
N2702 C2703 1.351 . S
C2703 C2697 1.428 . S
C2703 N2702 1.351 . S
C2703 C2704 1.434 . S
C2704 C2695 1.429 . S
C2704 N2701 1.350 . S
C2704 C2703 1.434 . S
C2705 C2706 1.369 . S
C2705 C2707 1.419 . S
C2705 H2709 0.930 . S
C2706 C2705 1.369 . S
C2706 C2715 1.429 . S
C2707 C2705 1.419 . S
C2707 C2708 1.363 . S
C2707 H2710 0.929 . S
C2708 C2707 1.363 . S
C2708 C2714 1.428 . S
H2709 C2705 0.930 . S
H2710 C2707 0.929 . S
S2711 N2712 1.613 . S
S2711 N2713 1.610 . S
N2712 S2711 1.613 . S
N2712 C2715 1.350 . S
N2713 S2711 1.610 . S
N2713 C2714 1.351 . S
C2714 C2708 1.428 . S
C2714 N2713 1.351 . S
C2714 C2715 1.434 . S
C2715 C2706 1.429 . S
C2715 N2712 1.350 . S
C2715 C2714 1.434 . S
C2716 C2717 1.369 . S
C2716 C2718 1.419 . S
C2716 H2720 0.930 . S
C2717 C2716 1.369 . S
C2717 C2726 1.429 . S
C2718 C2716 1.419 . S
C2718 C2719 1.363 . S
C2718 H2721 0.929 . S
C2719 C2718 1.363 . S
C2719 C2725 1.428 . S
H2720 C2716 0.930 . S
H2721 C2718 0.929 . S
S2722 N2723 1.613 . S
S2722 N2724 1.610 . S
N2723 S2722 1.613 . S
N2723 C2726 1.350 . S
N2724 S2722 1.610 . S
N2724 C2725 1.351 . S
C2725 C2719 1.428 . S
C2725 N2724 1.351 . S
C2725 C2726 1.434 . S
C2726 C2717 1.429 . S
C2726 N2723 1.350 . S
C2726 C2725 1.434 . S
C2727 C2728 1.369 . S
C2727 C2729 1.419 . S
C2727 H2731 0.930 . S
C2728 C2727 1.369 . S
C2728 C2737 1.429 . S
C2729 C2727 1.419 . S
C2729 C2730 1.363 . S
C2729 H2732 0.929 . S
C2730 C2729 1.363 . S
C2730 C2736 1.428 . S
H2731 C2727 0.930 . S
H2732 C2729 0.929 . S
S2733 N2734 1.613 . S
S2733 N2735 1.610 . S
N2734 S2733 1.613 . S
N2734 C2737 1.350 . S
N2735 S2733 1.610 . S
N2735 C2736 1.351 . S
C2736 C2730 1.428 . S
C2736 N2735 1.351 . S
C2736 C2737 1.434 . S
C2737 C2728 1.429 . S
C2737 N2734 1.350 . S
C2737 C2736 1.434 . S
C2738 C2739 1.369 . S
C2738 C2740 1.419 . S
C2738 H2742 0.930 . S
C2739 C2738 1.369 . S
C2739 C2748 1.429 . S
C2740 C2738 1.419 . S
C2740 C2741 1.363 . S
C2740 H2743 0.929 . S
C2741 C2740 1.363 . S
C2741 C2747 1.428 . S
H2742 C2738 0.930 . S
H2743 C2740 0.929 . S
S2744 N2745 1.613 . S
S2744 N2746 1.610 . S
N2745 S2744 1.613 . S
N2745 C2748 1.350 . S
N2746 S2744 1.610 . S
N2746 C2747 1.351 . S
C2747 C2741 1.428 . S
C2747 N2746 1.351 . S
C2747 C2748 1.434 . S
C2748 C2739 1.429 . S
C2748 N2745 1.350 . S
C2748 C2747 1.434 . S
C2749 C2750 1.369 . S
C2749 C2751 1.419 . S
C2749 H2753 0.930 . S
C2750 C2749 1.369 . S
C2750 C2759 1.429 . S
C2751 C2749 1.419 . S
C2751 C2752 1.363 . S
C2751 H2754 0.929 . S
C2752 C2751 1.363 . S
C2752 C2758 1.428 . S
H2753 C2749 0.930 . S
H2754 C2751 0.929 . S
S2755 N2756 1.613 . S
S2755 N2757 1.610 . S
N2756 S2755 1.613 . S
N2756 C2759 1.350 . S
N2757 S2755 1.610 . S
N2757 C2758 1.351 . S
C2758 C2752 1.428 . S
C2758 N2757 1.351 . S
C2758 C2759 1.434 . S
C2759 C2750 1.429 . S
C2759 N2756 1.350 . S
C2759 C2758 1.434 . S
C1707 N1164 1.457 . S
C1705 C31 1.506 . S
C1718 C1191 1.594 . S
C1716 C61 1.595 . S
C1727 C73 1.523 . S
C1729 C1205 1.518 . S
C1740 N1223 1.451 . S
C1738 C133 1.480 . S
C1749 C175 1.578 . S
C1751 C1228 1.580 . S
C1760 C211 1.516 . S
C1762 C1168 1.523 . S
C1771 C241 1.437 . S
C1773 N1187 1.397 . S
C1784 N1200 1.455 . S
C1782 C253 1.496 . S
C1795 N1246 1.413 . S
C1793 C1 1.443 . S
C1804 C37 1.530 . S
C1806 N1269 1.505 . S
C1815 C103 1.587 . S
C1817 N1292 1.577 . S
C1828 N1325 1.425 . S
C1826 C139 1.469 . S
C1837 C145 1.546 . S
C1839 C1352 1.536 . S
C1850 C1375 1.577 . S
C1848 C205 1.577 . S
C1859 C247 1.518 . S
C1861 C1398 1.527 . S
C1872 C1412 1.448 . S
C1870 C283 1.452 . S
C1881 C25 1.451 . S
C1883 C1329 1.452 . S
C1892 C169 1.479 . S
C1894 N1371 1.448 . S
C1905 N1394 1.441 . S
C1903 C181 1.485 . S
C1914 C217 1.482 . S
C1916 N1407 1.456 . S
C1927 N1348 1.416 . S
C1925 C277 1.466 . S
C1938 C1274 1.664 . S
C1936 C97 1.668 . S
C1947 C109 1.523 . S
C1949 C1297 1.525 . S
C1960 C1251 1.604 . S
C1958 C67 1.602 . S
C1971 C1444 1.465 . S
C1969 C319 1.460 . S
C1980 C349 1.602 . S
C1982 C1458 1.600 . S
C1991 C361 1.516 . S
C1993 N1486 1.457 . S
C2004 N1499 1.440 . S
C2002 C421 1.464 . S
C2013 C463 1.587 . S
C2015 C1504 1.594 . S
C2024 C499 1.512 . S
C2026 N1440 1.465 . S
C2035 C529 1.528 . S
C2037 N1453 1.504 . S
C2046 C541 1.460 . S
C2048 C1490 1.451 . S
C2059 N1338 1.421 . S
C2057 C289 1.448 . S
C2068 C325 1.515 . S
C2070 N1522 1.468 . S
C2081 N1384 1.459 . S
C2079 C391 1.486 . S
C2090 C427 1.536 . S
C2092 C1559 1.543 . S
C2101 C433 1.580 . S
C2103 C1260 1.582 . S
C2114 C1573 1.605 . S
C2112 C493 1.605 . S
C2123 C535 1.549 . S
C2125 C1306 1.550 . S
C2136 N1591 1.401 . S
C2134 C571 1.444 . S
C2145 C313 1.463 . S
C2147 N1555 1.429 . S
C2158 N1568 1.482 . S
C2156 C457 1.508 . S
C2167 C469 1.489 . S
C2169 N1302 1.436 . S
C2180 C1596 1.446 . S
C2178 C505 1.443 . S
C2189 C565 1.441 . S
C2191 N1256 1.401 . S
C2200 C385 1.572 . S
C2202 C1527 1.570 . S
C2211 C397 1.565 . S
C2213 C1389 1.570 . S
C2222 C355 1.595 . S
C2224 C1343 1.598 . S
C2233 C607 1.521 . S
C2235 C1481 1.529 . S
C2246 C1513 1.541 . S
C2244 C637 1.549 . S
C2255 C649 1.486 . S
C2257 N1430 1.443 . S
C2266 C709 1.456 . S
C2268 N1463 1.417 . S
C2277 C751 1.591 . S
C2279 C1467 1.592 . S
C2288 C787 1.554 . S
C2290 N1476 1.531 . S
C2301 N1509 1.368 . S
C2299 C817 1.413 . S
C2310 C829 1.501 . S
C2312 C1435 1.498 . S
C2323 N1624 1.434 . S
C2321 C577 1.471 . S
C2332 C613 1.470 . S
C2334 N1361 1.439 . S
C2345 N1647 1.395 . S
C2343 C679 1.455 . S
C2354 C715 1.512 . S
C2356 N1417 1.473 . S
C2365 C721 1.549 . S
C2367 C1665 1.555 . S
C2376 C781 1.664 . S
C2378 C1283 1.665 . S
C2389 N1683 1.397 . S
C2387 C823 1.435 . S
C2398 C859 1.494 . S
C2400 C1320 1.492 . S
C2411 C1421 1.502 . S
C2409 C601 1.496 . S
C2422 N1279 1.480 . S
C2420 C745 1.530 . S
C2431 C757 1.579 . S
C2433 C1688 1.576 . S
C2442 C793 1.403 . S
C2444 N1315 1.368 . S
C2455 N1660 1.474 . S
C2453 C853 1.501 . S
C2466 C1366 1.580 . S
C2464 C673 1.579 . S
C2477 C1651 1.580 . S
C2475 C685 1.575 . S
C2488 C1628 1.573 . S
C2486 C643 1.563 . S
C2497 C895 1.419 . S
C2499 N1210 1.374 . S
C2508 C925 1.566 . S
C2510 C1237 1.560 . S
C2521 C1159 1.548 . S
C2519 C937 1.550 . S
C2532 N1177 1.389 . S
C2530 C997 1.418 . S
C2543 C1182 1.601 . S
C2541 C1039 1.598 . S
C2554 C1214 1.553 . S
C2552 C1075 1.539 . S
C2565 N1233 1.497 . S
C2563 C1105 1.540 . S
C2574 C1117 1.525 . S
C2576 N1154 1.495 . S
C2585 C865 1.390 . S
C2587 N1670 1.354 . S
C2598 N1578 1.462 . S
C2596 C901 1.493 . S
C2609 C1697 1.611 . S
C2607 C967 1.601 . S
C2620 C1605 1.406 . S
C2618 C1003 1.398 . S
C2629 C1009 1.576 . S
C2631 C1619 1.577 . S
C2642 C1536 1.588 . S
C2640 C1069 1.593 . S
C2653 C1642 1.651 . S
C2651 C1111 1.648 . S
C2662 C1147 1.501 . S
C2664 N1545 1.448 . S
C2675 N1601 1.360 . S
C2673 C889 1.388 . S
C2686 N1532 1.453 . S
C2684 C1033 1.480 . S
C2697 N1637 1.407 . S
C2695 C1045 1.435 . S
C2706 C1081 1.511 . S
C2708 C1550 1.519 . S
C2717 C1141 1.454 . S
C2719 N1614 1.416 . S
C2728 C961 1.665 . S
C2730 C1582 1.664 . S
C2739 C973 1.440 . S
C2741 N1693 1.411 . S
C2752 C1674 1.549 . S
C2750 C931 1.548 . S
