# Generated by pormake.
# Topology zzz, (3,6)-cn, num edge types: 1
# Building blocks:
#     Node 0, Type 0, BuildingBlock: BETDAH_clean_linker_0, # of connection points: 3
#     Node 1, Type 0, BuildingBlock: BETDAH_clean_linker_0, # of connection points: 3
#     Node 2, Type 0, BuildingBlock: BETDAH_clean_linker_0, # of connection points: 3
#     Node 3, Type 0, BuildingBlock: BETDAH_clean_linker_0, # of connection points: 3
#     Node 4, Type 0, BuildingBlock: BETDAH_clean_linker_0, # of connection points: 3
#     Node 5, Type 0, BuildingBlock: BETDAH_clean_linker_0, # of connection points: 3
#     Node 6, Type 0, BuildingBlock: BETDAH_clean_linker_0, # of connection points: 3
#     Node 7, Type 0, BuildingBlock: BETDAH_clean_linker_0, # of connection points: 3
#     Node 8, Type 1, BuildingBlock: CUKXOW_clean_sbu_0, # of connection points: 6
#     Node 9, Type 1, BuildingBlock: CUKXOW_clean_sbu_0, # of connection points: 6
#     Node 10, Type 1, BuildingBlock: CUKXOW_clean_sbu_0, # of connection points: 6
#     Node 11, Type 1, BuildingBlock: CUKXOW_clean_sbu_0, # of connection points: 6
#     Edge 12, Type (0, 1), BuildingBlock: TEMPAE_clean_linker_10, # of connection points: 2
#     Edge 13, Type (0, 1), BuildingBlock: TEMPAE_clean_linker_10, # of connection points: 2
#     Edge 14, Type (0, 1), BuildingBlock: TEMPAE_clean_linker_10, # of connection points: 2
#     Edge 15, Type (0, 1), BuildingBlock: TEMPAE_clean_linker_10, # of connection points: 2
#     Edge 16, Type (0, 1), BuildingBlock: TEMPAE_clean_linker_10, # of connection points: 2
#     Edge 17, Type (0, 1), BuildingBlock: TEMPAE_clean_linker_10, # of connection points: 2
#     Edge 18, Type (0, 1), BuildingBlock: TEMPAE_clean_linker_10, # of connection points: 2
#     Edge 19, Type (0, 1), BuildingBlock: TEMPAE_clean_linker_10, # of connection points: 2
#     Edge 20, Type (0, 1), BuildingBlock: TEMPAE_clean_linker_10, # of connection points: 2
#     Edge 21, Type (0, 1), BuildingBlock: TEMPAE_clean_linker_10, # of connection points: 2
#     Edge 22, Type (0, 1), BuildingBlock: TEMPAE_clean_linker_10, # of connection points: 2
#     Edge 23, Type (0, 1), BuildingBlock: TEMPAE_clean_linker_10, # of connection points: 2
#     Edge 24, Type (0, 1), BuildingBlock: TEMPAE_clean_linker_10, # of connection points: 2
#     Edge 25, Type (0, 1), BuildingBlock: TEMPAE_clean_linker_10, # of connection points: 2
#     Edge 26, Type (0, 1), BuildingBlock: TEMPAE_clean_linker_10, # of connection points: 2
#     Edge 27, Type (0, 1), BuildingBlock: TEMPAE_clean_linker_10, # of connection points: 2
#     Edge 28, Type (0, 1), BuildingBlock: TEMPAE_clean_linker_10, # of connection points: 2
#     Edge 29, Type (0, 1), BuildingBlock: TEMPAE_clean_linker_10, # of connection points: 2
#     Edge 30, Type (0, 1), BuildingBlock: TEMPAE_clean_linker_10, # of connection points: 2
#     Edge 31, Type (0, 1), BuildingBlock: TEMPAE_clean_linker_10, # of connection points: 2
#     Edge 32, Type (0, 1), BuildingBlock: TEMPAE_clean_linker_10, # of connection points: 2
#     Edge 33, Type (0, 1), BuildingBlock: TEMPAE_clean_linker_10, # of connection points: 2
#     Edge 34, Type (0, 1), BuildingBlock: TEMPAE_clean_linker_10, # of connection points: 2
#     Edge 35, Type (0, 1), BuildingBlock: TEMPAE_clean_linker_10, # of connection points: 2
# Relax obj value: 0.067
# Max RMSD: 0.118
# Mean RMSD: 0.083
data_MOF--net-zzz--node1-CUKXOW_clean_sbu_0--node2-BETDAH_clean_linker_0--edge1-TEMPAE_clean_linker_10
_symmetry_space_group_name_H-M    P1
_symmetry_Int_Tables_number       1
_symmetry_cell_setting            triclinic
loop_
_symmetry_equiv_pos_as_xyz
'x, y, z'
_cell_length_a     51.26178
_cell_length_b     53.219139
_cell_length_c     15.874648
_cell_angle_alpha  93.348047
_cell_angle_beta   86.60306
_cell_angle_gamma 93.90578
loop_
_atom_site_label
_atom_site_type_symbol
_atom_site_fract_x
_atom_site_fract_y
_atom_site_fract_z
_atom_type_partial_charge
H0 H 0.82394 0.50323 0.1578 0.0
H1 H 0.76418 0.52239 -0.00161 0.0
H2 H 0.75873 0.54252 0.266 0.0
C3 C 0.80506 0.5107 0.15048 0.0
C4 C 0.79212 0.52209 0.22089 0.0
C5 C 0.79533 0.51091 0.06996 0.0
C6 C 0.77152 0.52177 0.06078 0.0
C7 C 0.75786 0.53265 0.13218 0.0
C8 C 0.76863 0.5333 0.21167 0.0
N9 N 0.73383 0.54394 0.12585 0.0
C10 C 0.71757 0.53873 0.05922 0.0
H11 H 0.99015 0.83587 0.05671 0.0
H12 H 0.9469 0.77798 0.91388 0.0
H13 H 0.95586 0.77069 0.17929 0.0
C14 C 0.98013 0.81721 0.0532 0.0
C15 C 0.97524 0.804 0.1267 0.0
C16 C 0.96962 0.80831 0.97708 0.0
C17 C 0.95558 0.78478 0.97219 0.0
C18 C 0.95119 0.77093 0.04521 0.0
C19 C 0.9604 0.78088 0.12257 0.0
N20 N 0.9357 0.74794 0.04359 0.0
C21 C 0.94253 0.72751 0.99067 0.0
H22 H 0.66083 0.95039 0.01157 0.0
H23 H 0.7368 0.98239 0.93484 0.0
H24 H 0.71577 0.97602 0.19831 0.0
C25 C 0.68001 0.95808 0.02857 0.0
C26 C 0.68523 0.96288 0.11406 0.0
C27 C 0.69777 0.96654 0.96422 0.0
C28 C 0.72314 0.97555 0.98434 0.0
C29 C 0.73003 0.97741 0.06913 0.0
C30 C 0.71079 0.97197 0.13342 0.0
N31 N 0.75535 0.98671 0.09279 0.0
C32 C 0.77698 0.99037 0.03662 0.0
H33 H 0.53488 0.67907 0.1242 0.0
H34 H 0.57427 0.74015 0.99218 0.0
H35 H 0.56462 0.74523 0.26435 0.0
C36 C 0.54386 0.69817 0.12546 0.0
C37 C 0.54768 0.71124 0.20308 0.0
C38 C 0.55382 0.70809 0.04972 0.0
C39 C 0.56617 0.73248 0.05056 0.0
C40 C 0.56949 0.7462 0.12849 0.0
C41 C 0.56098 0.73514 0.20446 0.0
N42 N 0.5831 0.77027 0.13278 0.0
C43 C 0.57795 0.7895 0.08187 0.0
H44 H 0.18287 0.50697 0.31352 0.0
H45 H 0.24834 0.48309 0.43714 0.0
H46 H 0.2552 0.49573 0.16997 0.0
C47 C 0.20329 0.50254 0.31071 0.0
C48 C 0.21789 0.50293 0.23368 0.0
C49 C 0.21399 0.49518 0.38348 0.0
C50 C 0.24015 0.48891 0.38059 0.0
C51 C 0.25524 0.48943 0.30319 0.0
C52 C 0.24379 0.49586 0.22969 0.0
N53 N 0.28171 0.48305 0.29648 0.0
C54 C 0.2976 0.48392 0.3646 0.0
H55 H 0.04293 0.17681 0.37608 0.0
H56 H 0.05283 0.24802 0.5169 0.0
H57 H 0.07332 0.24231 0.24873 0.0
C58 C 0.04893 0.19681 0.37817 0.0
C59 C 0.05828 0.20792 0.30408 0.0
C60 C 0.04681 0.21107 0.45476 0.0
C61 C 0.05422 0.237 0.45744 0.0
C62 C 0.06404 0.24828 0.3825 0.0
C63 C 0.06596 0.23362 0.30629 0.0
N64 N 0.07283 0.27407 0.3811 0.0
C65 C 0.06443 0.29279 0.43885 0.0
H66 H 0.35871 0.05595 0.34731 0.0
H67 H 0.2795 0.04564 0.44885 0.0
H68 H 0.29513 0.05791 0.18398 0.0
C69 C 0.33787 0.05618 0.3388 0.0
C70 C 0.32919 0.05793 0.25771 0.0
C71 C 0.32014 0.05168 0.40757 0.0
C72 C 0.29311 0.04989 0.396 0.0
C73 C 0.28401 0.05287 0.31525 0.0
C74 C 0.30215 0.05666 0.24659 0.0
N75 N 0.25694 0.05108 0.29936 0.0
C76 C 0.23661 0.04587 0.35903 0.0
H77 H 0.47214 0.33188 0.29434 0.0
H78 H 0.42733 0.27526 0.43296 0.0
H79 H 0.43626 0.26723 0.16106 0.0
C80 C 0.46143 0.31355 0.29509 0.0
C81 C 0.45637 0.30021 0.21876 0.0
C82 C 0.45068 0.30507 0.37201 0.0
C83 C 0.43607 0.28181 0.37371 0.0
C84 C 0.43142 0.2678 0.29724 0.0
C85 C 0.4409 0.27745 0.21991 0.0
N86 N 0.41557 0.24496 0.29641 0.0
C87 C 0.4224 0.22418 0.3371 0.0
Tb88 Tb 0.99937 0.99505 0.61247 0.0
C89 C 0.05984 0.01024 0.64545 0.0
Tb90 Tb 0.01416 0.02685 0.77569 0.0
O91 O 0.98734 0.02773 0.54895 0.0
O92 O 0.01336 0.03182 0.64571 0.0
O93 O 0.04227 0.99813 0.59663 0.0
C94 C 0.02477 0.06659 0.88024 0.0
O95 O 0.0533 0.02289 0.71735 0.0
C96 C 0.0118 0.97768 0.78481 0.0
C97 C 0.95423 0.01382 0.73893 0.0
O98 O 0.03279 0.06421 0.80154 0.0
O99 O 0.0107 0.04638 0.9011 0.0
O100 O 0.02596 0.99295 0.83365 0.0
O101 O 0.99826 0.99059 0.74304 0.0
O102 O 0.97163 0.03031 0.77462 0.0
O103 O 0.96135 0.99584 0.68183 0.0
C104 C 0.99733 0.95257 0.51623 0.0
O105 O 0.98404 0.97202 0.50496 0.0
O106 O 0.01193 0.9574 0.57973 0.0
C107 C 0.99891 0.04361 0.60287 0.0
Tb108 Tb 0.50437 0.03096 0.64284 0.0
C109 C 0.53859 0.99036 0.5523 0.0
Tb110 Tb 0.5099 0.98188 0.73475 0.0
O111 O 0.54606 0.04156 0.65125 0.0
O112 O 0.52602 0.01948 0.7416 0.0
O113 O 0.5248 0.01004 0.54114 0.0
C114 C 0.52734 0.94249 0.80594 0.0
O115 O 0.53714 0.97814 0.62336 0.0
C116 C 0.46602 0.98464 0.6608 0.0
C117 C 0.47488 0.02253 0.82344 0.0
O118 O 0.51227 0.94127 0.74279 0.0
O119 O 0.53241 0.96599 0.82998 0.0
O120 O 0.46813 0.97146 0.72616 0.0
O121 O 0.48846 0.9933 0.63589 0.0
O122 O 0.48917 0.00326 0.83619 0.0
O123 O 0.47646 0.03418 0.75142 0.0
C124 C 0.48628 0.07027 0.57327 0.0
O125 O 0.5013 0.07153 0.63661 0.0
O126 O 0.48176 0.0468 0.54791 0.0
C127 C 0.54841 0.02818 0.71598 0.0
Tb128 Tb 0.51433 0.5217 0.637 0.0
C129 C 0.45419 0.5104 0.69933 0.0
Tb130 Tb 0.50041 0.48919 0.79189 0.0
O131 O 0.51933 0.48784 0.55147 0.0
O132 O 0.49555 0.4865 0.66133 0.0
O133 O 0.47182 0.52481 0.65584 0.0
C134 C 0.49536 0.44693 0.87456 0.0
O135 O 0.46108 0.4931 0.7497 0.0
C136 C 0.50863 0.53789 0.82569 0.0
C137 C 0.5606 0.50084 0.73071 0.0
O138 O 0.50831 0.44988 0.8029 0.0
O139 O 0.48563 0.46811 0.90152 0.0
O140 O 0.49507 0.52308 0.87709 0.0
O141 O 0.51902 0.52443 0.76757 0.0
O142 O 0.54301 0.48637 0.7742 0.0
O143 O 0.55363 0.51799 0.67985 0.0
C144 C 0.51873 0.56376 0.55317 0.0
O145 O 0.52929 0.54286 0.52766 0.0
O146 O 0.50543 0.56064 0.6241 0.0
C147 C 0.50577 0.47304 0.60287 0.0
Tb148 Tb 0.98643 0.50867 0.65088 0.0
C149 C 0.01042 0.45854 0.6906 0.0
Tb150 Tb 0.02362 0.50967 0.79967 0.0
O151 O 0.01856 0.50572 0.55357 0.0
O152 O 0.02525 0.52105 0.6747 0.0
O153 O 0.98981 0.46839 0.66106 0.0
C154 C 0.06706 0.51171 0.88446 0.0
O155 O 0.02736 0.47195 0.73854 0.0
C156 C 0.97352 0.50408 0.84051 0.0
C157 C 0.999 0.56014 0.76027 0.0
O158 O 0.04672 0.49618 0.89786 0.0
O159 O 0.06272 0.52618 0.82465 0.0
O160 O 0.99062 0.51368 0.89294 0.0
O161 O 0.98531 0.4958 0.77411 0.0
O162 O 0.01585 0.54936 0.8048 0.0
O163 O 0.98589 0.54795 0.69893 0.0
C164 C 0.94213 0.51266 0.57413 0.0
O165 O 0.94608 0.5194 0.65224 0.0
O166 O 0.96326 0.50363 0.53842 0.0
C167 C 0.03636 0.5129 0.6066 0.0
C168 C 0.21071 0.01964 0.46114 0.0
C169 C 0.21319 0.04067 0.41179 0.0
C170 C 0.18695 0.01325 0.50627 0.0
C171 C 0.16533 0.02824 0.50102 0.0
C172 C 0.16816 0.04988 0.45246 0.0
C173 C 0.19211 0.05581 0.40833 0.0
C174 C 0.18475 0.99014 0.5576 0.0
C175 C 0.14564 0.06637 0.44508 0.0
C176 C 0.09518 0.00117 0.53372 0.0
C177 C 0.08774 0.01206 0.61346 0.0
C178 C 0.12071 0.00543 0.49793 0.0
C179 C 0.13935 0.02089 0.54294 0.0
C180 C 0.13238 0.03091 0.62513 0.0
C181 C 0.10668 0.0264 0.65937 0.0
C182 C 0.12735 0.99433 0.41016 0.0
C183 C 0.15172 0.04734 0.67543 0.0
H184 H 0.22714 0.00792 0.46303 0.0
H185 H 0.19418 0.07201 0.36945 0.0
H186 H 0.17739 0.99504 0.62323 0.0
H187 H 0.1704 0.97589 0.53006 0.0
H188 H 0.2038 0.98147 0.55967 0.0
H189 H 0.15135 0.08303 0.40742 0.0
H190 H 0.12932 0.05525 0.4146 0.0
H191 H 0.1381 0.07309 0.5088 0.0
H192 H 0.08083 0.98996 0.4977 0.0
H193 H 0.10127 0.03483 0.72119 0.0
H194 H 0.14551 0.98411 0.40946 0.0
H195 H 0.13105 0.00973 0.3659 0.0
H196 H 0.11138 0.98114 0.38632 0.0
H197 H 0.17042 0.03807 0.67701 0.0
H198 H 0.14413 0.05156 0.74139 0.0
H199 H 0.15617 0.06543 0.64455 0.0
C200 C 0.45277 0.19056 0.33678 0.0
C201 C 0.43028 0.20155 0.37132 0.0
C202 C 0.46072 0.1683 0.36776 0.0
C203 C 0.44574 0.1569 0.43489 0.0
C204 C 0.42272 0.16787 0.46911 0.0
C205 C 0.41524 0.19018 0.43673 0.0
C206 C 0.48532 0.15717 0.32941 0.0
C207 C 0.40626 0.15626 0.54062 0.0
C208 C 0.45797 0.08884 0.47333 0.0
C209 C 0.47547 0.09215 0.5382 0.0
C210 C 0.44763 0.10971 0.44002 0.0
C211 C 0.45514 0.13438 0.47229 0.0
C212 C 0.47256 0.1377 0.53859 0.0
C213 C 0.48248 0.11653 0.57078 0.0
C214 C 0.42892 0.10539 0.36988 0.0
C215 C 0.48101 0.16366 0.57486 0.0
H216 H 0.46418 0.19943 0.28557 0.0
H217 H 0.3977 0.19877 0.46264 0.0
H218 H 0.49999 0.15713 0.37806 0.0
H219 H 0.48093 0.13728 0.30696 0.0
H220 H 0.49417 0.16781 0.27552 0.0
H221 H 0.38829 0.16643 0.55736 0.0
H222 H 0.40046 0.13625 0.5233 0.0
H223 H 0.41791 0.15648 0.59742 0.0
H224 H 0.4524 0.06995 0.44858 0.0
H225 H 0.49591 0.1191 0.62128 0.0
H226 H 0.43702 0.1152 0.31338 0.0
H227 H 0.41001 0.1135 0.38971 0.0
H228 H 0.42509 0.08504 0.35175 0.0
H229 H 0.49155 0.17477 0.52489 0.0
H230 H 0.49404 0.16294 0.62803 0.0
H231 H 0.4636 0.1739 0.59777 0.0
C232 C 0.31169 0.50037 0.50413 0.0
C233 C 0.31641 0.48603 0.42882 0.0
C234 C 0.33127 0.50479 0.5626 0.0
C235 C 0.35603 0.49482 0.54412 0.0
C236 C 0.36035 0.47949 0.46915 0.0
C237 C 0.3404 0.4753 0.4123 0.0
C238 C 0.32584 0.52091 0.64225 0.0
C239 C 0.38643 0.46844 0.44706 0.0
C240 C 0.41927 0.52688 0.61855 0.0
C241 C 0.4266 0.50983 0.67564 0.0
C242 C 0.3954 0.52314 0.57946 0.0
C243 C 0.3783 0.50196 0.59852 0.0
C244 C 0.38446 0.486 0.66177 0.0
C245 C 0.4086 0.49009 0.69956 0.0
C246 C 0.38954 0.54071 0.51262 0.0
C247 C 0.36654 0.46348 0.68493 0.0
H248 H 0.29299 0.50866 0.51618 0.0
H249 H 0.34386 0.46426 0.35353 0.0
H250 H 0.33203 0.5117 0.69806 0.0
H251 H 0.33737 0.53927 0.63859 0.0
H252 H 0.30478 0.5246 0.65221 0.0
H253 H 0.38611 0.45589 0.38863 0.0
H254 H 0.40182 0.48388 0.43772 0.0
H255 H 0.39209 0.45746 0.49963 0.0
H256 H 0.43286 0.54239 0.60041 0.0
H257 H 0.41393 0.47688 0.74403 0.0
H258 H 0.36928 0.54678 0.52279 0.0
H259 H 0.39105 0.53062 0.4495 0.0
H260 H 0.40332 0.55775 0.51191 0.0
H261 H 0.34582 0.46846 0.69089 0.0
H262 H 0.3716 0.45585 0.74512 0.0
H263 H 0.36818 0.44835 0.63415 0.0
C264 C 0.03753 0.31363 0.55296 0.0
C265 C 0.05666 0.31508 0.48667 0.0
C266 C 0.02872 0.33573 0.59495 0.0
C267 C 0.03925 0.35955 0.56894 0.0
C268 C 0.05898 0.36087 0.50268 0.0
C269 C 0.06745 0.33853 0.46236 0.0
C270 C 0.00787 0.33365 0.66586 0.0
C271 C 0.0707 0.38587 0.47299 0.0
C272 C 0.00171 0.41857 0.60294 0.0
C273 C 0.01542 0.43191 0.66703 0.0
C274 C 0.00847 0.39441 0.57302 0.0
C275 C 0.02929 0.38327 0.60858 0.0
C276 C 0.04226 0.39607 0.67635 0.0
C277 C 0.03526 0.42029 0.70449 0.0
C278 C 0.99429 0.38141 0.50021 0.0
C279 C 0.06438 0.38471 0.71644 0.0
H280 H 0.02923 0.2953 0.57098 0.0
H281 H 0.0822 0.33939 0.41051 0.0
H282 H 0.01456 0.34445 0.7234 0.0
H283 H 0.9899 0.34203 0.64792 0.0
H284 H 0.00278 0.31377 0.68147 0.0
H285 H 0.08619 0.38356 0.42167 0.0
H286 H 0.05515 0.39673 0.44949 0.0
H287 H 0.0793 0.39729 0.52643 0.0
H288 H 0.98636 0.42737 0.57361 0.0
H289 H 0.04586 0.43035 0.75455 0.0
H290 H 0.98754 0.36184 0.51506 0.0
H291 H 0.00792 0.38024 0.44334 0.0
H292 H 0.97711 0.39156 0.48464 0.0
H293 H 0.05869 0.36497 0.73218 0.0
H294 H 0.07025 0.39563 0.77486 0.0
H295 H 0.08167 0.38424 0.67103 0.0
C296 C 0.82292 0.9815 0.0044 0.0
C297 C 0.80109 0.99406 0.98578 0.0
C298 C 0.84705 0.9857 0.95922 0.0
C299 C 0.84929 0.00293 0.89396 0.0
C300 C 0.82703 0.01544 0.87438 0.0
C301 C 0.8031 0.01086 0.92083 0.0
C302 C 0.87023 0.97194 0.98211 0.0
C303 C 0.8286 0.03385 0.80519 0.0
C304 C 0.91871 0.02941 0.84058 0.0
C305 C 0.92642 0.01334 0.77164 0.0
C306 C 0.8933 0.02691 0.87889 0.0
C307 C 0.87509 0.00795 0.84745 0.0
C308 C 0.88234 0.99249 0.77541 0.0
C309 C 0.90788 0.99535 0.73846 0.0
C310 C 0.88634 0.04382 0.95548 0.0
C311 C 0.86349 0.97215 0.73958 0.0
H312 H 0.82118 0.96857 0.05511 0.0
H313 H 0.78606 0.02059 0.90704 0.0
H314 H 0.8781 0.9609 0.92597 0.0
H315 H 0.88613 0.98574 0.00257 0.0
H316 H 0.86512 0.95892 0.03363 0.0
H317 H 0.80937 0.04147 0.79622 0.0
H318 H 0.8429 0.04983 0.82042 0.0
H319 H 0.83573 0.02455 0.74462 0.0
H320 H 0.93278 0.04343 0.86668 0.0
H321 H 0.91351 0.9829 0.68497 0.0
H322 H 0.88327 0.03241 0.01196 0.0
H323 H 0.86775 0.05267 0.94723 0.0
H324 H 0.90188 0.05895 0.96786 0.0
H325 H 0.85951 0.95722 0.78546 0.0
H326 H 0.87126 0.96333 0.6789 0.0
H327 H 0.84452 0.98 0.72913 0.0
C328 C 0.58864 0.82073 0.97404 0.0
C329 C 0.57181 0.81132 0.03896 0.0
C330 C 0.58321 0.8427 0.93493 0.0
C331 C 0.56048 0.85536 0.96194 0.0
C332 C 0.54357 0.84582 0.02816 0.0
C333 C 0.54947 0.82385 0.06588 0.0
C334 C 0.60169 0.85231 0.86467 0.0
C335 C 0.51919 0.85876 0.05889 0.0
C336 C 0.55356 0.92358 0.91124 0.0
C337 C 0.53695 0.92046 0.84391 0.0
C338 C 0.56206 0.90254 0.949 0.0
C339 C 0.55359 0.87791 0.91873 0.0
C340 C 0.53733 0.87477 0.84934 0.0
C341 C 0.52922 0.89609 0.8128 0.0
C342 C 0.57949 0.90674 0.02261 0.0
C343 C 0.528 0.84887 0.81479 0.0
H344 H 0.60607 0.811 0.95418 0.0
H345 H 0.53668 0.81652 0.11686 0.0
H346 H 0.5912 0.8523 0.8055 0.0
H347 H 0.60879 0.87209 0.88049 0.0
H348 H 0.61887 0.8407 0.85271 0.0
H349 H 0.50845 0.84926 0.1123 0.0
H350 H 0.52441 0.87864 0.07963 0.0
H351 H 0.50584 0.85907 0.00648 0.0
H352 H 0.55969 0.94244 0.935 0.0
H353 H 0.5165 0.89365 0.76036 0.0
H354 H 0.5963 0.8946 0.01399 0.0
H355 H 0.56822 0.90147 0.08152 0.0
H356 H 0.58715 0.92671 0.03093 0.0
H357 H 0.54496 0.83733 0.79795 0.0
H358 H 0.51649 0.84967 0.75797 0.0
H359 H 0.51558 0.83904 0.86391 0.0
C360 C 0.70306 0.5167 0.9273 0.0
C361 C 0.6983 0.53333 0.99715 0.0
C362 C 0.68339 0.50999 0.87049 0.0
C363 C 0.65852 0.52003 0.88508 0.0
C364 C 0.65405 0.5374 0.95478 0.0
C365 C 0.67407 0.54384 0.01001 0.0
C366 C 0.68896 0.49168 0.79646 0.0
C367 C 0.62783 0.54856 0.9727 0.0
C368 C 0.60642 0.52068 0.72584 0.0
C369 C 0.58818 0.50181 0.75497 0.0
C370 C 0.63053 0.5256 0.76325 0.0
C371 C 0.63643 0.5114 0.83153 0.0
C372 C 0.61912 0.49092 0.8561 0.0
C373 C 0.59528 0.48629 0.81722 0.0
C374 C 0.64869 0.54729 0.73409 0.0
C375 C 0.62469 0.47523 0.92847 0.0
H376 H 0.72194 0.50861 0.91801 0.0
H377 H 0.67059 0.55668 0.06453 0.0
H378 H 0.67712 0.47369 0.80518 0.0
H379 H 0.68322 0.49926 0.7371 0.0
H380 H 0.70997 0.48759 0.78923 0.0
H381 H 0.62788 0.56243 0.02779 0.0
H382 H 0.62227 0.55809 0.91673 0.0
H383 H 0.6125 0.5333 0.98554 0.0
H384 H 0.60129 0.53265 0.67721 0.0
H385 H 0.58154 0.47143 0.83956 0.0
H386 H 0.66934 0.54209 0.73 0.0
H387 H 0.64719 0.56357 0.78065 0.0
H388 H 0.64373 0.55338 0.67153 0.0
H389 H 0.64502 0.46919 0.92156 0.0
H390 H 0.61099 0.45821 0.93294 0.0
H391 H 0.62278 0.48679 0.98875 0.0
C392 C 0.97211 0.70549 0.88815 0.0
C393 C 0.95018 0.70486 0.94478 0.0
C394 C 0.9812 0.68304 0.84972 0.0
C395 C 0.96804 0.65965 0.86942 0.0
C396 C 0.94541 0.65918 0.92523 0.0
C397 C 0.93675 0.6819 0.96236 0.0
C398 C 0.00528 0.68427 0.7902 0.0
C399 C 0.93084 0.63465 0.9479 0.0
C400 C 0.97678 0.59928 0.73462 0.0
C401 C 0.99356 0.58679 0.78245 0.0
C402 C 0.9692 0.62353 0.7601 0.0
C403 C 0.97849 0.63551 0.83544 0.0
C404 C 0.99627 0.62348 0.8821 0.0
C405 C 0.00365 0.5993 0.85493 0.0
C406 C 0.9504 0.63587 0.7083 0.0
C407 C 0.00657 0.63565 0.96293 0.0
H408 H 0.98247 0.72345 0.87546 0.0
H409 H 0.91985 0.68166 0.00687 0.0
H410 H 0.02138 0.67525 0.81813 0.0
H411 H 0.00125 0.67365 0.72963 0.0
H412 H 0.01207 0.70398 0.77678 0.0
H413 H 0.91301 0.63764 0.98955 0.0
H414 H 0.925 0.62361 0.8898 0.0
H415 H 0.94386 0.62308 0.98078 0.0
H416 H 0.96899 0.58989 0.67819 0.0
H417 H 0.01664 0.58988 0.89235 0.0
H418 H 0.95789 0.65539 0.69532 0.0
H419 H 0.93129 0.63713 0.74443 0.0
H420 H 0.94706 0.62521 0.64719 0.0
H421 H 0.01516 0.65498 0.95225 0.0
H422 H 0.02169 0.62464 0.98846 0.0
H423 H 0.99019 0.63736 0.01142 0.0
C424 C 0.05444 0.18232 0.56478 0.0
C425 C 0.03704 0.1973 0.52918 0.0
C426 C 0.04554 0.15923 0.59802 0.0
C427 C 0.01864 0.15125 0.59566 0.0
C428 C 1.00059 0.16827 0.57247 0.0
C429 C 0.01008 0.19118 0.53898 0.0
C430 C 0.06546 0.1419 0.62362 0.0
C431 C 0.97167 0.16089 0.57158 0.0
C432 C 0.00657 0.08245 0.52338 0.0
C433 C 1.00057 0.07123 0.60004 0.0
C434 C 0.01184 0.10863 0.52122 0.0
C435 C 0.01066 0.12387 0.59772 0.0
C436 C 0.00322 0.11264 0.67486 0.0
C437 C 0.99823 0.08636 0.67494 0.0
C438 C 0.01978 0.11981 0.43738 0.0
C439 C 1.0011 0.12826 0.75721 0.0
H440 H 0.07532 0.18698 0.55629 0.0
H441 H 0.99667 0.2027 0.51065 0.0
H442 H 0.05814 0.13168 0.68008 0.0
H443 H 0.06918 0.12762 0.57124 0.0
H444 H 0.08435 0.15239 0.63741 0.0
H445 H 0.95997 0.17775 0.57277 0.0
H446 H 0.9677 0.14921 0.51295 0.0
H447 H 0.96501 0.14953 0.62614 0.0
H448 H 0.0083 0.07063 0.46558 0.0
H449 H 0.99259 0.07759 0.73368 0.0
H450 H 0.03998 0.12871 0.43904 0.0
H451 H 0.00664 0.13475 0.42517 0.0
H452 H 0.01916 0.10544 0.38375 0.0
H453 H 0.02043 0.13774 0.77108 0.0
H454 H 0.99417 0.11669 0.81118 0.0
H455 H 0.9874 0.14329 0.75227 0.0
C456 C 0.34912 0.0608 0.52649 0.0
C457 C 0.33117 0.04409 0.48503 0.0
C458 C 0.36847 0.05168 0.57333 0.0
C459 C 0.37006 0.02531 0.57648 0.0
C460 C 0.35004 0.00862 0.54321 0.0
C461 C 0.33057 0.01831 0.49844 0.0
C462 C 0.38889 0.07012 0.61089 0.0
C463 C 0.35101 0.98038 0.54534 0.0
C464 C 0.43864 0.0023 0.55763 0.0
C465 C 0.44136 0.9945 0.63892 0.0
C466 C 0.41546 0.0124 0.53675 0.0
C467 C 0.39478 0.01513 0.59947 0.0
C468 C 0.39765 0.00753 0.68209 0.0
C469 C 0.42085 0.997 0.70059 0.0
C470 C 0.41299 0.01985 0.44727 0.0
C471 C 0.37662 0.01107 0.75147 0.0
H472 H 0.34964 0.08075 0.51533 0.0
H473 H 0.31685 0.00543 0.46533 0.0
H474 H 0.39408 0.06427 0.67342 0.0
H475 H 0.40696 0.07051 0.5688 0.0
H476 H 0.38208 0.08954 0.61822 0.0
H477 H 0.33225 0.97029 0.52775 0.0
H478 H 0.36684 0.97396 0.50005 0.0
H479 H 0.35555 0.97497 0.609 0.0
H480 H 0.45456 1.00024 0.51015 0.0
H481 H 0.42321 0.99131 0.76404 0.0
H482 H 0.40934 0.04015 0.44702 0.0
H483 H 0.39601 0.00905 0.41938 0.0
H484 H 0.43084 0.01639 0.40619 0.0
H485 H 0.37617 0.03143 0.7705 0.0
H486 H 0.38022 1.00069 0.80789 0.0
H487 H 0.35701 0.00467 0.72939 0.0
C488 C 0.47402 0.3254 0.49332 0.0
C489 C 0.45193 0.32344 0.445 0.0
C490 C 0.48173 0.3484 0.5358 0.0
C491 C 0.46755 0.36993 0.52646 0.0
C492 C 0.44384 0.36728 0.48434 0.0
C493 C 0.43611 0.34389 0.44532 0.0
C494 C 0.50644 0.35012 0.58344 0.0
C495 C 0.42829 0.38973 0.4714 0.0
C496 C 0.48008 0.43355 0.64254 0.0
C497 C 0.49747 0.44619 0.58507 0.0
C498 C 0.47146 0.40823 0.62692 0.0
C499 C 0.47912 0.39565 0.54948 0.0
C500 C 0.49645 0.40839 0.49057 0.0
C501 C 0.50578 0.4334 0.50981 0.0
C502 C 0.45391 0.39504 0.69273 0.0
C503 C 0.50445 0.39588 0.406 0.0
H504 H 0.48647 0.3097 0.49188 0.0
H505 H 0.41932 0.3424 0.40638 0.0
H506 H 0.52323 0.35644 0.54079 0.0
H507 H 0.5052 0.36397 0.63832 0.0
H508 H 0.51048 0.33149 0.60614 0.0
H509 H 0.40892 0.38402 0.4459 0.0
H510 H 0.42513 0.4011 0.53143 0.0
H511 H 0.43944 0.4021 0.42609 0.0
H512 H 0.47285 0.44354 0.69956 0.0
H513 H 0.51897 0.44318 0.46486 0.0
H514 H 0.46238 0.37733 0.70809 0.0
H515 H 0.43443 0.38978 0.66772 0.0
H516 H 0.45114 0.407 0.75192 0.0
H517 H 0.51445 0.3785 0.41532 0.0
H518 H 0.51778 0.40844 0.36695 0.0
H519 H 0.48681 0.3902 0.37037 0.0
C520 C 0.1901 0.51444 0.50736 0.0
C521 C 0.19595 0.49262 0.45837 0.0
C522 C 0.16532 0.51639 0.54882 0.0
C523 C 0.14608 0.49618 0.53927 0.0
C524 C 0.15311 0.473 0.49884 0.0
C525 C 0.17815 0.47147 0.45917 0.0
C526 C 0.15881 0.54111 0.59391 0.0
C527 C 0.13331 0.45089 0.48776 0.0
C528 C 0.07906 0.49981 0.65268 0.0
C529 C 0.06457 0.50929 0.59095 0.0
C530 C 0.10564 0.49548 0.63734 0.0
C531 C 0.11799 0.5007 0.55785 0.0
C532 C 0.10335 0.5099 0.49443 0.0
C533 C 0.07672 0.51392 0.51168 0.0
C534 C 0.12041 0.48503 0.70562 0.0
C535 C 0.11575 0.51534 0.4081 0.0
H536 H 0.2038 0.53088 0.50557 0.0
H537 H 0.18264 0.45476 0.41998 0.0
H538 H 0.14723 0.5517 0.55273 0.0
H539 H 0.14674 0.53789 0.65312 0.0
H540 H 0.17675 0.55297 0.6094 0.0
H541 H 0.14294 0.43304 0.4711 0.0
H542 H 0.1205 0.44846 0.54587 0.0
H543 H 0.1206 0.45437 0.43599 0.0
H544 H 0.0695 0.49477 0.71188 0.0
H545 H 0.06541 0.52082 0.4633 0.0
H546 H 0.13626 0.49898 0.72537 0.0
H547 H 0.12987 0.46773 0.68119 0.0
H548 H 0.10749 0.48038 0.76198 0.0
H549 H 0.1325 0.52955 0.41433 0.0
H550 H 0.10169 0.5225 0.36606 0.0
H551 H 0.12357 0.49793 0.37732 0.0
C552 C 0.95339 0.84674 0.92782 0.0
C553 C 0.96958 0.82668 0.91135 0.0
C554 C 0.95982 0.8701 0.89328 0.0
C555 C 0.9824 0.87303 0.83801 0.0
C556 C 0.9968 0.8518 0.8125 0.0
C557 C 0.99056 0.82888 0.85118 0.0
C558 C 0.94423 0.89227 0.92413 0.0
C559 C 0.02019 0.85374 0.75048 0.0
C560 C 0.98836 0.93673 0.74222 0.0
C561 C 0.00642 0.9503 0.79354 0.0
C562 C 0.98206 0.91095 0.7511 0.0
C563 C 0.99259 0.89887 0.81703 0.0
C564 C 0.01082 0.91245 0.86935 0.0
C565 C 0.01793 0.93792 0.85576 0.0
C566 C 0.96368 0.89681 0.69128 0.0
C567 C 0.02189 0.90041 0.94213 0.0
H568 H 0.93745 0.84502 0.97566 0.0
H569 H 0.00328 0.81344 0.83942 0.0
H570 H 0.95646 0.9055 0.9644 0.0
H571 H 0.9387 0.90277 0.87037 0.0
H572 H 0.92611 0.88638 0.96176 0.0
H573 H 0.02313 0.83532 0.71579 0.0
H574 H 0.01808 0.86818 0.70413 0.0
H575 H 0.03803 0.8592 0.78528 0.0
H576 H 0.97868 0.94634 0.69587 0.0
H577 H 0.03167 0.94841 0.89608 0.0
H578 H 0.94508 0.89084 0.72587 0.0
H579 H 0.97253 0.87945 0.66411 0.0
H580 H 0.95909 0.9084 0.63876 0.0
H581 H 0.00572 0.89385 0.98688 0.0
H582 H 0.03565 0.91361 0.97723 0.0
H583 H 0.03239 0.88364 0.91854 0.0
C584 C 0.66951 0.95521 0.84333 0.0
C585 C 0.68644 0.97293 0.88524 0.0
C586 C 0.64929 0.9631 0.79722 0.0
C587 C 0.64593 0.98921 0.79435 0.0
C588 C 0.6651 0.007 0.82688 0.0
C589 C 0.68541 0.99856 0.87097 0.0
C590 C 0.62987 0.9435 0.76035 0.0
C591 C 0.66223 0.03503 0.82578 0.0
C592 C 0.59369 0.01648 0.67389 0.0
C593 C 0.57324 0.01821 0.73618 0.0
C594 C 0.61704 0.00585 0.69027 0.0
C595 C 0.62042 0.99797 0.77221 0.0
C596 C 0.59981 0.99985 0.83562 0.0
C597 C 0.5763 0.00969 0.81634 0.0
C598 C 0.63798 0.00303 0.62002 0.0
C599 C 0.60273 0.99191 0.9243 0.0
H600 H 0.67034 0.93536 0.85418 0.0
H601 H 0.69835 0.01232 0.90372 0.0
H602 H 0.623 0.94939 0.69994 0.0
H603 H 0.63845 0.9249 0.74914 0.0
H604 H 0.61252 0.94114 0.80511 0.0
H605 H 0.68052 0.04617 0.84225 0.0
H606 H 0.65677 0.04026 0.76291 0.0
H607 H 0.64632 0.04041 0.87248 0.0
H608 H 0.59126 0.02303 0.61173 0.0
H609 H 0.56047 0.01118 0.86443 0.0
H610 H 0.64417 0.9834 0.61477 0.0
H611 H 0.6555 0.01558 0.63436 0.0
H612 H 0.63118 0.00774 0.558 0.0
H613 H 0.60653 0.97162 0.92294 0.0
H614 H 0.585 0.99501 0.96636 0.0
H615 H 0.61975 0.00265 0.95218 0.0
C616 C 0.57181 0.6711 0.97463 0.0
C617 C 0.55434 0.69024 0.97519 0.0
C618 C 0.56571 0.64721 0.93624 0.0
C619 C 0.54205 0.6428 0.89446 0.0
C620 C 0.52631 0.6632 0.88436 0.0
C621 C 0.53236 0.68666 0.92657 0.0
C622 C 0.58287 0.62602 0.95036 0.0
C623 C 0.50164 0.65966 0.8366 0.0
C624 C 0.53294 0.57789 0.78377 0.0
C625 C 0.51606 0.56501 0.842 0.0
C626 C 0.54029 0.60362 0.79732 0.0
C627 C 0.532 0.61638 0.87375 0.0
C628 C 0.51538 0.60334 0.9338 0.0
C629 C 0.50719 0.57791 0.91638 0.0
C630 C 0.55702 0.61707 0.7302 0.0
C631 C 0.50685 0.61603 0.01758 0.0
H632 H 0.58855 0.67382 0.01369 0.0
H633 H 0.51864 0.70134 0.92799 0.0
H634 H 0.57279 0.61358 0.99758 0.0
H635 H 0.58638 0.61429 0.89132 0.0
H636 H 0.60209 0.63314 0.9742 0.0
H637 H 0.49638 0.67776 0.81274 0.0
H638 H 0.50376 0.64564 0.7825 0.0
H639 H 0.48523 0.65265 0.87954 0.0
H640 H 0.54066 0.56782 0.72758 0.0
H641 H 0.49443 0.56795 0.962 0.0
H642 H 0.56053 0.60478 0.67219 0.0
H643 H 0.57622 0.62376 0.75478 0.0
H644 H 0.54739 0.63396 0.71293 0.0
H645 H 0.52429 0.62322 0.0521 0.0
H646 H 0.49458 0.60307 0.05828 0.0
H647 H 0.4955 0.63246 0.00699 0.0
C648 C 0.82573 0.48096 -0.00084 0.0
C649 C 0.81286 0.5033 0.99694 0.0
C650 C 0.85007 0.4783 0.95584 0.0
C651 C 0.86137 0.4983 0.90804 0.0
C652 C 0.84647 0.51905 0.89491 0.0
C653 C 0.82229 0.52139 0.94009 0.0
C654 C 0.86513 0.45576 0.97127 0.0
C655 C 0.85741 0.54036 0.84206 0.0
C656 C 0.93393 0.5136 0.93166 0.0
C657 C 0.94488 0.50235 0.85725 0.0
C658 C 0.90675 0.51234 0.94858 0.0
C659 C 0.89011 0.50006 0.88843 0.0
C660 C 0.90108 0.48897 0.81251 0.0
C661 C 0.92843 0.48963 0.79894 0.0
C662 C 0.89587 0.52403 0.03126 0.0
C663 C 0.88402 0.47642 0.74583 0.0
H664 H 0.81822 0.46685 0.0426 0.0
H665 H 0.81235 0.53867 0.938 0.0
H666 H 0.8757 0.44882 0.91247 0.0
H667 H 0.87995 0.46139 0.01822 0.0
H668 H 0.85211 0.44005 0.99631 0.0
H669 H 0.84149 0.55069 0.81812 0.0
H670 H 0.86957 0.5539 0.88145 0.0
H671 H 0.87001 0.53338 0.7877 0.0
H672 H 0.94664 0.52328 0.97703 0.0
H673 H 0.93693 0.48037 0.74222 0.0
H674 H 0.88385 0.50961 0.06679 0.0
H675 H 0.88291 0.53911 0.01888 0.0
H676 H 0.91152 0.53231 0.07191 0.0
H677 H 0.87434 0.45867 0.76902 0.0
H678 H 0.89545 0.47189 0.68582 0.0
H679 H 0.86834 0.48878 0.73247 0.0
C680 C 0.07481 0.17191 0.21582 0.0
C681 C 0.05868 0.19217 0.22498 0.0
C682 C 0.07106 0.15296 0.15196 0.0
C683 C 0.05034 0.15419 0.09754 0.0
C684 C 0.03502 0.17545 0.10351 0.0
C685 C 0.03949 0.19435 0.16731 0.0
C686 C 0.0881 0.1308 0.14655 0.0
C687 C 0.01262 0.17728 0.04703 0.0
C688 C 0.0476 0.10873 0.90506 0.0
C689 C 0.03079 0.08904 0.93568 0.0
C690 C 0.05396 0.13026 0.95665 0.0
C691 C 0.0431 0.13208 0.04056 0.0
C692 C 0.02576 0.11237 0.07136 0.0
C693 C 0.01988 0.09096 0.01842 0.0
C694 C 0.07263 0.1508 0.9219 0.0
C695 C 0.01359 0.11381 0.16042 0.0
H696 H 0.08945 0.17027 0.26145 0.0
H697 H 0.0268 0.2099 0.17585 0.0
H698 H 0.07645 0.11383 0.16837 0.0
H699 H 0.09516 0.12654 0.08017 0.0
H700 H 0.1053 0.13427 0.18606 0.0
H701 H 0.00474 0.19628 0.05279 0.0
H702 H 0.01888 0.17296 0.97997 0.0
H703 H 0.99657 0.16315 0.0644 0.0
H704 H 0.05598 0.10725 0.84076 0.0
H705 H 0.00677 0.07575 0.04174 0.0
H706 H 0.09063 0.15253 0.95792 0.0
H707 H 0.06366 0.16924 0.92964 0.0
H708 H 0.07828 0.14703 0.8539 0.0
H709 H 0.02913 0.11469 0.20646 0.0
H710 H 0.99973 0.09735 0.1734 0.0
H711 H 0.00295 0.13128 0.17155 0.0
C712 C 0.34541 0.03891 0.11873 0.0
C713 C 0.34869 0.05723 0.18489 0.0
C714 C 0.36591 0.03428 0.05848 0.0
C715 C 0.39011 0.04869 0.06361 0.0
C716 C 0.39299 0.06823 0.1275 0.0
C717 C 0.37231 0.07214 0.18777 0.0
C718 C 0.36161 0.01371 0.99024 0.0
C719 C 0.41829 0.08426 0.13493 0.0
C720 C 0.45109 0.01898 0.96594 0.0
C721 C 0.4544 0.03025 0.88805 0.0
C722 C 0.43042 0.02508 0.02418 0.0
C723 C 0.41263 0.04278 0.00388 0.0
C724 C 0.41603 0.0544 0.92589 0.0
C725 C 0.43684 0.04806 0.86913 0.0
C726 C 0.4272 0.01212 0.10659 0.0
C727 C 0.39756 0.07342 0.9021 0.0
H728 H 0.32728 0.0272 0.1167 0.0
H729 H 0.3749 0.08635 0.23891 0.0
H730 H 0.35812 0.02251 0.9307 0.0
H731 H 0.37901 0.00242 0.97872 0.0
H732 H 0.34432 1.00076 0.00604 0.0
H733 H 0.41558 0.10161 0.17601 0.0
H734 H 0.4329 0.07322 0.16275 0.0
H735 H 0.42648 0.08983 0.07199 0.0
H736 H 0.4644 0.00513 0.98101 0.0
H737 H 0.43897 0.05682 0.80895 0.0
H738 H 0.40799 0.00115 0.11046 0.0
H739 H 0.4273 0.02637 0.16049 0.0
H740 H 0.44292 0.99914 0.11361 0.0
H741 H 0.37729 0.06469 0.9017 0.0
H742 H 0.40295 0.08081 0.83894 0.0
H743 H 0.39753 0.0895 0.94987 0.0
C744 C 0.44575 0.31899 0.08598 0.0
C745 C 0.46466 0.31263 0.13981 0.0
C746 C 0.45146 0.33814 0.02915 0.0
C747 C 0.47651 0.35115 0.02729 0.0
C748 C 0.49644 0.34278 0.0747 0.0
C749 C 0.49029 0.32345 0.13008 0.0
C750 C 0.42999 0.34603 0.97731 0.0
C751 C 0.52351 0.3559 0.07357 0.0
C752 C 0.49661 0.40026 0.86766 0.0
C753 C 0.49064 0.42259 0.91398 0.0
C754 C 0.49167 0.37672 0.90282 0.0
C755 C 0.4808 0.37562 0.98659 0.0
C756 C 0.47483 0.3982 0.0337 0.0
C757 C 0.47962 0.42144 0.99641 0.0
C758 C 0.49771 0.35313 0.84977 0.0
C759 C 0.46367 0.39783 0.12393 0.0
H760 H 0.4259 0.31069 0.09364 0.0
H761 H 0.50494 0.31834 0.17146 0.0
H762 H 0.42256 0.36391 0.00563 0.0
H763 H 0.4376 0.34954 0.91188 0.0
H764 H 0.41333 0.33156 0.97484 0.0
H765 H 0.53754 0.34518 0.1056 0.0
H766 H 0.53117 0.35865 0.0077 0.0
H767 H 0.52253 0.37484 0.10638 0.0
H768 H 0.50481 0.40114 0.80325 0.0
H769 H 0.47499 0.43872 0.03201 0.0
H770 H 0.47912 0.34341 0.82931 0.0
H771 H 0.50754 0.33982 0.88663 0.0
H772 H 0.51036 0.35741 0.79249 0.0
H773 H 0.44489 0.38616 0.12687 0.0
H774 H 0.46014 0.41703 0.15169 0.0
H775 H 0.47733 0.38911 0.16358 0.0
C776 C 0.20164 0.49099 0.09097 0.0
C777 C 0.20448 0.50897 0.1583 0.0
C778 C 0.18217 0.49273 0.03329 0.0
C779 C 0.16522 0.51275 0.04438 0.0
C780 C 0.16991 0.53229 0.10701 0.0
C781 C 0.18967 0.53024 0.16285 0.0
C782 C 0.17819 0.4719 0.96574 0.0
C783 C 0.15233 0.55397 0.12113 0.0
C784 C 0.11456 0.52431 0.88872 0.0
C785 C 0.09212 0.51169 0.92487 0.0
C786 C 0.13885 0.52397 0.92474 0.0
C787 C 0.14041 0.51142 0.0002 0.0
C788 C 0.11772 0.49869 0.03701 0.0
C789 C 0.09387 0.4987 -0.00188 0.0
C790 C 0.16272 0.53714 0.88252 0.0
C791 C 0.1185 0.48548 0.11847 0.0
H792 H 0.21306 0.4745 0.08762 0.0
H793 H 0.19207 0.54422 0.2148 0.0
H794 H 0.16137 0.45895 0.98573 0.0
H795 H 0.17356 0.47964 0.90537 0.0
H796 H 0.19575 0.46076 0.95452 0.0
H797 H 0.16069 0.56918 0.16447 0.0
H798 H 0.14884 0.56213 0.06043 0.0
H799 H 0.13305 0.54697 0.14923 0.0
H800 H 0.11322 0.53413 0.83133 0.0
H801 H 0.07648 0.48894 0.02584 0.0
H802 H 0.17872 0.52407 0.87248 0.0
H803 H 0.16998 0.5533 0.92397 0.0
H804 H 0.15856 0.54426 0.82059 0.0
H805 H 0.1331 0.47094 0.11129 0.0
H806 H 0.09919 0.47626 0.1382 0.0
H807 H 0.1247 0.49927 0.16982 0.0
C808 C 0.00669 0.83055 0.21251 0.0
C809 C 0.98233 0.81701 0.20786 0.0
C810 C 0.01058 0.8502 0.27385 0.0
C811 C 0.9898 0.85589 0.33296 0.0
C812 C 0.96653 0.83998 0.33588 0.0
C813 C 0.96293 0.82074 0.27251 0.0
C814 C 0.03593 0.8664 0.26997 0.0
C815 C 0.94455 0.84474 0.40107 0.0
C816 C 0.00462 0.90687 0.50358 0.0
C817 C 0.99504 0.92794 0.46959 0.0
C818 C 0.00257 0.88306 0.46103 0.0
C819 C 0.99097 0.88046 0.38214 0.0
C820 C 0.9813 0.90176 0.34752 0.0
C821 C 0.98319 0.92525 0.39232 0.0
C822 C 0.01241 0.86082 0.50168 0.0
C823 C 0.96937 0.89984 0.2624 0.0
H824 H 0.02188 0.82729 0.16333 0.0
H825 H 0.9441 0.81023 0.26944 0.0
H826 H 0.03224 0.88519 0.24792 0.0
H827 H 0.04377 0.8694 0.3337 0.0
H828 H 0.05105 0.85791 0.22623 0.0
H829 H 0.92982 0.82846 0.40371 0.0
H830 H 0.95234 0.84868 0.46459 0.0
H831 H 0.93456 0.86158 0.3853 0.0
H832 H 0.01345 0.9089 0.56422 0.0
H833 H 0.97582 0.9416 0.36628 0.0
H834 H 0.02118 0.84726 0.45429 0.0
H835 H 0.99568 0.8507 0.53558 0.0
H836 H 0.02722 0.86695 0.54822 0.0
H837 H 0.98377 0.89284 0.21305 0.0
H838 H 0.96308 0.91824 0.24414 0.0
H839 H 0.95212 0.88607 0.26328 0.0
C840 C 0.63748 0.96621 0.15932 0.0
C841 C 0.66309 0.96188 0.18046 0.0
C842 C 0.61676 0.96734 0.22052 0.0
C843 C 0.62176 0.96581 0.3065 0.0
C844 C 0.64723 0.96107 0.3291 0.0
C845 C 0.66743 0.95865 0.26571 0.0
C846 C 0.58965 0.97131 0.19314 0.0
C847 C 0.65379 0.96027 0.42032 0.0
C848 C 0.5751 0.0029 0.45096 0.0
C849 C 0.55894 0.98369 0.48714 0.0
C850 C 0.59646 0.99723 0.39567 0.0
C851 C 0.60082 0.97171 0.37213 0.0
C852 C 0.58417 0.9522 0.4072 0.0
C853 C 0.56377 0.95845 0.46619 0.0
C854 C 0.61452 0.01856 0.3631 0.0
C855 C 0.58774 0.92485 0.38161 0.0
H856 H 0.63342 0.96983 0.09524 0.0
H857 H 0.68676 0.9549 0.2838 0.0
H858 H 0.57502 0.95781 0.22326 0.0
H859 H 0.58419 0.99062 0.21369 0.0
H860 H 0.58838 0.96892 0.12347 0.0
H861 H 0.67132 0.94948 0.4266 0.0
H862 H 0.6582 0.97985 0.44586 0.0
H863 H 0.63726 0.95188 0.45983 0.0
H864 H 0.57164 0.02243 0.46864 0.0
H865 H 0.55131 0.94363 0.49484 0.0
H866 H 0.61295 0.01952 0.29401 0.0
H867 H 0.63515 0.01514 0.37393 0.0
H868 H 0.60993 0.03711 0.39415 0.0
H869 H 0.58626 0.92168 0.31226 0.0
H870 H 0.57294 0.91196 0.41395 0.0
H871 H 0.60755 0.91985 0.39656 0.0
C872 C 0.55978 0.69317 0.33563 0.0
C873 C 0.54045 0.69768 0.28062 0.0
C874 C 0.5557 0.67382 0.3924 0.0
C875 C 0.53186 0.6587 0.39309 0.0
C876 C 0.51138 0.66494 0.34374 0.0
C877 C 0.51588 0.68451 0.28846 0.0
C878 C 0.57772 0.66814 0.44588 0.0
C879 C 0.48557 0.64945 0.34328 0.0
C880 C 0.53407 0.58917 0.43063 0.0
C881 C 0.52245 0.58794 0.5123 0.0
C882 C 0.53749 0.61223 0.39156 0.0
C883 C 0.52946 0.63455 0.43606 0.0
C884 C 0.51812 0.63341 0.51924 0.0
C885 C 0.51461 0.61004 0.55622 0.0
C886 C 0.54928 0.61264 0.30208 0.0
C887 C 0.50987 0.65681 0.5694 0.0
H888 H 0.57884 0.70327 0.32934 0.0
H889 H 0.50088 0.68817 0.24617 0.0
H890 H 0.57018 0.66427 0.51111 0.0
H891 H 0.58694 0.65099 0.41866 0.0
H892 H 0.59303 0.68393 0.44877 0.0
H893 H 0.47074 0.65848 0.309 0.0
H894 H 0.48863 0.63059 0.31205 0.0
H895 H 0.47767 0.64651 0.40879 0.0
H896 H 0.54015 0.57205 0.39689 0.0
H897 H 0.50593 0.60912 0.62003 0.0
H898 H 0.567 0.6258 0.29943 0.0
H899 H 0.53509 0.61959 0.26015 0.0
H900 H 0.55477 0.5937 0.27678 0.0
H901 H 0.52755 0.66878 0.58647 0.0
H902 H 0.49826 0.65225 0.62846 0.0
H903 H 0.49807 0.66813 0.53127 0.0
C904 C 0.82119 0.54611 0.31976 0.0
C905 C 0.80556 0.52418 0.30057 0.0
C906 C 0.84124 0.54582 0.37609 0.0
C907 C 0.8455 0.52308 0.41369 0.0
C908 C 0.82792 0.5017 0.40121 0.0
C909 C 0.80828 0.50239 0.34367 0.0
C910 C 0.85918 0.56919 0.38989 0.0
C911 C 0.83118 0.4775 0.4433 0.0
C912 C 0.91578 0.5096 0.44657 0.0
C913 C 0.91747 0.51522 0.53327 0.0
C914 C 0.89243 0.51229 0.40711 0.0
C915 C 0.87025 0.52063 0.45588 0.0
C916 C 0.87194 0.52638 0.54365 0.0
C917 C 0.89557 0.52357 0.58127 0.0
C918 C 0.89154 0.50628 0.31304 0.0
C919 C 0.84893 0.535 0.59906 0.0
H920 H 0.81921 0.56281 0.28526 0.0
H921 H 0.79627 0.4854 0.32782 0.0
H922 H 0.86171 0.57321 0.45843 0.0
H923 H 0.87879 0.56602 0.35919 0.0
H924 H 0.85164 0.58597 0.36339 0.0
H925 H 0.81407 0.46376 0.43566 0.0
H926 H 0.84895 0.46872 0.41528 0.0
H927 H 0.83393 0.48146 0.51175 0.0
H928 H 0.93275 0.50322 0.40947 0.0
H929 H 0.89685 0.52784 0.64858 0.0
H930 H 0.88604 0.52302 0.28125 0.0
H931 H 0.87636 0.49085 0.30047 0.0
H932 H 0.91061 0.50045 0.28411 0.0
H933 H 0.83429 0.54372 0.5633 0.0
H934 H 0.85562 0.54884 0.64961 0.0
H935 H 0.8391 0.51847 0.63016 0.0
loop_
_geom_bond_atom_site_label_1
_geom_bond_atom_site_label_2
_geom_bond_distance
_geom_bond_site_symmetry_2
_ccdc_geom_bond_type
H0 C3 0.929 . S
H1 C6 0.929 1_556 S
H2 C8 0.930 . S
C3 H0 0.929 . S
C3 C4 1.398 . S
C3 C5 1.396 . S
C4 C3 1.398 . S
C4 C8 1.407 . S
C5 C3 1.396 . S
C5 C6 1.394 . S
C6 H1 0.929 1_554 S
C6 C5 1.394 . S
C6 C7 1.382 . S
C7 C6 1.382 . S
C7 C8 1.392 . S
C7 N9 1.420 . S
C8 H2 0.930 . S
C8 C4 1.407 . S
C8 C7 1.392 . S
N9 C7 1.420 . S
N9 C10 1.244 . S
C10 N9 1.244 . S
H11 C14 0.929 . S
H12 C17 0.929 . S
H13 C19 0.930 . S
C14 H11 0.929 . S
C14 C15 1.398 . S
C14 C16 1.396 1_554 S
C15 C14 1.398 . S
C15 C19 1.407 . S
C16 C14 1.396 1_556 S
C16 C17 1.394 . S
C17 H12 0.929 . S
C17 C16 1.394 . S
C17 C18 1.382 1_556 S
C18 C17 1.382 1_554 S
C18 C19 1.392 . S
C18 N20 1.420 . S
C19 H13 0.930 . S
C19 C15 1.407 . S
C19 C18 1.392 . S
N20 C18 1.420 . S
N20 C21 1.244 1_554 S
C21 N20 1.244 1_556 S
H22 C25 0.929 . S
H23 C28 0.929 1_556 S
H24 C30 0.930 . S
C25 H22 0.929 . S
C25 C26 1.398 . S
C25 C27 1.396 . S
C26 C25 1.398 . S
C26 C30 1.407 . S
C27 C25 1.396 . S
C27 C28 1.394 . S
C28 H23 0.929 1_554 S
C28 C27 1.394 . S
C28 C29 1.382 . S
C29 C28 1.382 . S
C29 C30 1.392 . S
C29 N31 1.420 . S
C30 H24 0.930 . S
C30 C26 1.407 . S
C30 C29 1.392 . S
N31 C29 1.420 . S
N31 C32 1.244 . S
C32 N31 1.244 . S
H33 C36 0.929 . S
H34 C39 0.929 1_556 S
H35 C41 0.930 . S
C36 H33 0.929 . S
C36 C37 1.398 . S
C36 C38 1.396 . S
C37 C36 1.398 . S
C37 C41 1.407 . S
C38 C36 1.396 . S
C38 C39 1.394 . S
C39 H34 0.929 1_554 S
C39 C38 1.394 . S
C39 C40 1.382 . S
C40 C39 1.382 . S
C40 C41 1.392 . S
C40 N42 1.420 . S
C41 H35 0.930 . S
C41 C37 1.407 . S
C41 C40 1.392 . S
N42 C40 1.420 . S
N42 C43 1.244 . S
C43 N42 1.244 . S
H44 C47 0.929 . S
H45 C50 0.929 . S
H46 C52 0.930 . S
C47 H44 0.929 . S
C47 C48 1.398 . S
C47 C49 1.396 . S
C48 C47 1.398 . S
C48 C52 1.407 . S
C49 C47 1.396 . S
C49 C50 1.394 . S
C50 H45 0.929 . S
C50 C49 1.394 . S
C50 C51 1.382 . S
C51 C50 1.382 . S
C51 C52 1.392 . S
C51 N53 1.420 . S
C52 H46 0.930 . S
C52 C48 1.407 . S
C52 C51 1.392 . S
N53 C51 1.420 . S
N53 C54 1.244 . S
C54 N53 1.244 . S
H55 C58 0.929 . S
H56 C61 0.929 . S
H57 C63 0.930 . S
C58 H55 0.929 . S
C58 C59 1.398 . S
C58 C60 1.396 . S
C59 C58 1.398 . S
C59 C63 1.407 . S
C60 C58 1.396 . S
C60 C61 1.394 . S
C61 H56 0.929 . S
C61 C60 1.394 . S
C61 C62 1.382 . S
C62 C61 1.382 . S
C62 C63 1.392 . S
C62 N64 1.420 . S
C63 H57 0.930 . S
C63 C59 1.407 . S
C63 C62 1.392 . S
N64 C62 1.420 . S
N64 C65 1.244 . S
C65 N64 1.244 . S
H66 C69 0.929 . S
H67 C72 0.929 . S
H68 C74 0.930 . S
C69 H66 0.929 . S
C69 C70 1.398 . S
C69 C71 1.396 . S
C70 C69 1.398 . S
C70 C74 1.407 . S
C71 C69 1.396 . S
C71 C72 1.394 . S
C72 H67 0.929 . S
C72 C71 1.394 . S
C72 C73 1.382 . S
C73 C72 1.382 . S
C73 C74 1.392 . S
C73 N75 1.420 . S
C74 H68 0.930 . S
C74 C70 1.407 . S
C74 C73 1.392 . S
N75 C73 1.420 . S
N75 C76 1.244 . S
C76 N75 1.244 . S
H77 C80 0.929 . S
H78 C83 0.929 . S
H79 C85 0.930 . S
C80 H77 0.929 . S
C80 C81 1.398 . S
C80 C82 1.396 . S
C81 C80 1.398 . S
C81 C85 1.407 . S
C82 C80 1.396 . S
C82 C83 1.394 . S
C83 H78 0.929 . S
C83 C82 1.394 . S
C83 C84 1.382 . S
C84 C83 1.382 . S
C84 C85 1.392 . S
C84 N86 1.420 . S
C85 H79 0.930 . S
C85 C81 1.407 . S
C85 C84 1.392 . S
N86 C84 1.420 . S
N86 C87 1.244 . S
C87 N86 1.244 . S
Tb88 O91 2.409 1_565 S
Tb88 O92 2.565 1_665 S
Tb88 O93 2.374 1_665 S
Tb88 O101 2.365 1_655 S
Tb88 O103 2.347 1_565 S
Tb88 O105 2.463 . S
Tb88 O106 2.553 1_655 S
C89 O93 1.251 . S
C89 O95 1.263 . S
Tb90 O92 2.343 . S
Tb90 O95 2.353 . S
Tb90 O98 2.427 . S
Tb90 O99 2.524 . S
Tb90 O100 2.453 1_545 S
Tb90 O101 2.596 1_545 S
Tb90 O102 2.374 1_455 S
O91 Tb88 2.409 1_545 S
O91 C107 1.245 1_655 S
O92 Tb88 2.565 1_445 S
O92 Tb90 2.343 . S
O92 C107 1.259 . S
O93 Tb88 2.374 1_445 S
O93 C89 1.251 . S
C94 O98 1.275 . S
C94 O99 1.276 . S
O95 C89 1.263 . S
O95 Tb90 2.353 . S
C96 O100 1.245 . S
C96 O101 1.259 . S
C97 O102 1.250 . S
C97 O103 1.263 . S
O98 Tb90 2.427 . S
O98 C94 1.275 . S
O99 Tb90 2.524 . S
O99 C94 1.276 . S
O100 Tb90 2.453 1_565 S
O100 C96 1.245 . S
O101 Tb88 2.365 1_455 S
O101 Tb90 2.596 1_565 S
O101 C96 1.259 . S
O102 Tb90 2.374 1_655 S
O102 C97 1.250 . S
O103 Tb88 2.347 1_545 S
O103 C97 1.263 . S
C104 O105 1.275 . S
C104 O106 1.246 1_655 S
O105 Tb88 2.463 . S
O105 C104 1.275 . S
O106 Tb88 2.553 1_455 S
O106 C104 1.246 1_455 S
C107 O91 1.245 1_455 S
C107 O92 1.259 . S
Tb108 O111 2.453 . S
Tb108 O112 2.596 1_545 S
Tb108 O113 2.374 . S
Tb108 O121 2.343 . S
Tb108 O123 2.353 . S
Tb108 O125 2.427 . S
Tb108 O126 2.513 . S
C109 O113 1.246 1_565 S
C109 O115 1.266 . S
Tb110 O112 2.343 . S
Tb110 O115 2.353 . S
Tb110 O118 2.427 . S
Tb110 O119 2.513 . S
Tb110 O120 2.453 . S
Tb110 O121 2.596 1_565 S
Tb110 O122 2.374 . S
O111 Tb108 2.453 . S
O111 C127 1.245 . S
O112 Tb108 2.596 1_565 S
O112 Tb110 2.343 . S
O112 C127 1.259 1_565 S
O113 Tb108 2.374 . S
O113 C109 1.246 1_545 S
C114 O118 1.275 . S
C114 O119 1.246 . S
O115 C109 1.266 . S
O115 Tb110 2.353 . S
C116 O120 1.245 1_545 S
C116 O121 1.259 . S
C117 O122 1.250 1_545 S
C117 O123 1.263 . S
O118 Tb110 2.427 . S
O118 C114 1.275 . S
O119 Tb110 2.513 . S
O119 C114 1.246 . S
O120 Tb110 2.453 . S
O120 C116 1.245 1_565 S
O121 Tb108 2.343 . S
O121 Tb110 2.596 1_545 S
O121 C116 1.259 . S
O122 Tb110 2.374 . S
O122 C117 1.250 1_565 S
O123 Tb108 2.353 . S
O123 C117 1.263 . S
C124 O125 1.275 . S
C124 O126 1.246 . S
O125 Tb108 2.427 . S
O125 C124 1.275 . S
O126 Tb108 2.513 . S
O126 C124 1.246 . S
C127 O111 1.245 . S
C127 O112 1.259 1_545 S
Tb128 O131 2.453 . S
Tb128 O132 2.596 . S
Tb128 O133 2.374 . S
Tb128 O141 2.343 . S
Tb128 O143 2.353 . S
Tb128 O145 2.427 . S
Tb128 O146 2.513 . S
C129 O133 1.251 . S
C129 O135 1.263 . S
Tb130 O132 2.343 . S
Tb130 O135 2.353 . S
Tb130 O138 2.427 . S
Tb130 O139 2.513 . S
Tb130 O140 2.453 . S
Tb130 O141 2.596 . S
Tb130 O142 2.374 . S
O131 Tb128 2.453 . S
O131 C147 1.245 . S
O132 Tb128 2.596 . S
O132 Tb130 2.343 . S
O132 C147 1.259 . S
O133 Tb128 2.374 . S
O133 C129 1.251 . S
C134 O138 1.275 . S
C134 O139 1.246 . S
O135 C129 1.263 . S
O135 Tb130 2.353 . S
C136 O140 1.245 . S
C136 O141 1.259 . S
C137 O142 1.250 . S
C137 O143 1.263 . S
O138 Tb130 2.427 . S
O138 C134 1.275 . S
O139 Tb130 2.513 . S
O139 C134 1.246 . S
O140 Tb130 2.453 . S
O140 C136 1.245 . S
O141 Tb128 2.343 . S
O141 Tb130 2.596 . S
O141 C136 1.259 . S
O142 Tb130 2.374 . S
O142 C137 1.250 . S
O143 Tb128 2.353 . S
O143 C137 1.263 . S
C144 O145 1.275 . S
C144 O146 1.246 . S
O145 Tb128 2.427 . S
O145 C144 1.275 . S
O146 Tb128 2.513 . S
O146 C144 1.246 . S
C147 O131 1.245 . S
C147 O132 1.259 . S
Tb148 O151 2.453 1_655 S
Tb148 O152 2.596 1_655 S
Tb148 O153 2.374 1_655 S
Tb148 O161 2.343 . S
Tb148 O163 2.353 1_655 S
Tb148 O165 2.427 . S
Tb148 O166 2.513 . S
C149 O153 1.251 . S
C149 O155 1.263 . S
Tb150 O152 2.343 . S
Tb150 O155 2.353 . S
Tb150 O158 2.427 . S
Tb150 O159 2.513 . S
Tb150 O160 2.453 1_455 S
Tb150 O161 2.596 1_455 S
Tb150 O162 2.374 . S
O151 Tb148 2.453 1_455 S
O151 C167 1.245 . S
O152 Tb148 2.596 1_455 S
O152 Tb150 2.343 . S
O152 C167 1.259 . S
O153 Tb148 2.374 1_455 S
O153 C149 1.251 . S
C154 O158 1.275 . S
C154 O159 1.246 . S
O155 C149 1.263 . S
O155 Tb150 2.353 . S
C156 O160 1.245 . S
C156 O161 1.259 . S
C157 O162 1.250 . S
C157 O163 1.263 . S
O158 Tb150 2.427 . S
O158 C154 1.275 . S
O159 Tb150 2.513 . S
O159 C154 1.246 . S
O160 Tb150 2.453 1_655 S
O160 C156 1.245 . S
O161 Tb148 2.343 . S
O161 Tb150 2.596 1_655 S
O161 C156 1.259 . S
O162 Tb150 2.374 . S
O162 C157 1.250 . S
O163 Tb148 2.353 1_455 S
O163 C157 1.263 . S
C164 O165 1.275 . S
C164 O166 1.246 . S
O165 Tb148 2.427 . S
O165 C164 1.275 . S
O166 Tb148 2.513 . S
O166 C164 1.246 . S
C167 O151 1.245 . S
C167 O152 1.259 . S
C168 C169 1.391 . S
C168 C170 1.394 . S
C168 H184 0.931 . S
C169 C168 1.391 . S
C169 C173 1.376 . S
C170 C168 1.394 . S
C170 C171 1.369 . S
C170 C174 1.531 . S
C171 C170 1.369 . S
C171 C172 1.410 . S
C171 C179 1.503 . S
C172 C171 1.410 . S
C172 C173 1.392 . S
C172 C175 1.511 . S
C173 C169 1.376 . S
C173 C172 1.392 . S
C173 H185 0.929 . S
C174 C170 1.531 . S
C174 H186 0.960 . S
C174 H187 0.962 1_545 S
C174 H188 0.960 . S
C175 C172 1.511 . S
C175 H189 0.961 . S
C175 H190 0.961 . S
C175 H191 0.961 . S
C176 C177 1.370 . S
C176 C178 1.363 . S
C176 H192 0.931 1_545 S
C177 C176 1.370 . S
C177 C181 1.408 . S
C178 C176 1.363 . S
C178 C179 1.370 . S
C178 C182 1.524 1_545 S
C179 C171 1.503 . S
C179 C178 1.370 . S
C179 C180 1.403 . S
C180 C179 1.403 . S
C180 C181 1.404 . S
C180 C183 1.539 . S
C181 C177 1.408 . S
C181 C180 1.404 . S
C181 H193 0.930 . S
C182 C178 1.524 1_565 S
C182 H194 0.956 . S
C182 H195 0.961 1_565 S
C182 H196 0.961 . S
C183 C180 1.539 . S
C183 H197 0.958 . S
C183 H198 0.961 . S
C183 H199 0.960 . S
H184 C168 0.931 . S
H185 C173 0.929 . S
H186 C174 0.960 . S
H187 C174 0.962 1_565 S
H188 C174 0.960 . S
H189 C175 0.961 . S
H190 C175 0.961 . S
H191 C175 0.961 . S
H192 C176 0.931 1_565 S
H193 C181 0.930 . S
H194 C182 0.956 . S
H195 C182 0.961 1_545 S
H196 C182 0.961 . S
H197 C183 0.958 . S
H198 C183 0.961 . S
H199 C183 0.960 . S
C200 C201 1.391 . S
C200 C202 1.394 . S
C200 H216 0.931 . S
C201 C200 1.391 . S
C201 C205 1.376 . S
C202 C200 1.394 . S
C202 C203 1.369 . S
C202 C206 1.531 . S
C203 C202 1.369 . S
C203 C204 1.410 . S
C203 C211 1.503 . S
C204 C203 1.410 . S
C204 C205 1.392 . S
C204 C207 1.511 . S
C205 C201 1.376 . S
C205 C204 1.392 . S
C205 H217 0.929 . S
C206 C202 1.531 . S
C206 H218 0.960 . S
C206 H219 0.962 . S
C206 H220 0.960 . S
C207 C204 1.511 . S
C207 H221 0.961 . S
C207 H222 0.961 . S
C207 H223 0.961 . S
C208 C209 1.370 . S
C208 C210 1.363 . S
C208 H224 0.931 . S
C209 C208 1.370 . S
C209 C213 1.408 . S
C210 C208 1.363 . S
C210 C211 1.370 . S
C210 C214 1.524 . S
C211 C203 1.503 . S
C211 C210 1.370 . S
C211 C212 1.403 . S
C212 C211 1.403 . S
C212 C213 1.404 . S
C212 C215 1.539 . S
C213 C209 1.408 . S
C213 C212 1.404 . S
C213 H225 0.930 . S
C214 C210 1.524 . S
C214 H226 0.956 . S
C214 H227 0.961 . S
C214 H228 0.961 . S
C215 C212 1.539 . S
C215 H229 0.958 . S
C215 H230 0.961 . S
C215 H231 0.960 . S
H216 C200 0.931 . S
H217 C205 0.929 . S
H218 C206 0.960 . S
H219 C206 0.962 . S
H220 C206 0.960 . S
H221 C207 0.961 . S
H222 C207 0.961 . S
H223 C207 0.961 . S
H224 C208 0.931 . S
H225 C213 0.930 . S
H226 C214 0.956 . S
H227 C214 0.961 . S
H228 C214 0.961 . S
H229 C215 0.958 . S
H230 C215 0.961 . S
H231 C215 0.960 . S
C232 C233 1.391 . S
C232 C234 1.394 . S
C232 H248 0.931 . S
C233 C232 1.391 . S
C233 C237 1.376 . S
C234 C232 1.394 . S
C234 C235 1.369 . S
C234 C238 1.531 . S
C235 C234 1.369 . S
C235 C236 1.410 . S
C235 C243 1.503 . S
C236 C235 1.410 . S
C236 C237 1.392 . S
C236 C239 1.511 . S
C237 C233 1.376 . S
C237 C236 1.392 . S
C237 H249 0.929 . S
C238 C234 1.531 . S
C238 H250 0.960 . S
C238 H251 0.962 . S
C238 H252 0.960 . S
C239 C236 1.511 . S
C239 H253 0.961 . S
C239 H254 0.961 . S
C239 H255 0.961 . S
C240 C241 1.370 . S
C240 C242 1.363 . S
C240 H256 0.931 . S
C241 C240 1.370 . S
C241 C245 1.408 . S
C242 C240 1.363 . S
C242 C243 1.370 . S
C242 C246 1.524 . S
C243 C235 1.503 . S
C243 C242 1.370 . S
C243 C244 1.403 . S
C244 C243 1.403 . S
C244 C245 1.404 . S
C244 C247 1.539 . S
C245 C241 1.408 . S
C245 C244 1.404 . S
C245 H257 0.930 . S
C246 C242 1.524 . S
C246 H258 0.956 . S
C246 H259 0.961 . S
C246 H260 0.961 . S
C247 C244 1.539 . S
C247 H261 0.958 . S
C247 H262 0.961 . S
C247 H263 0.960 . S
H248 C232 0.931 . S
H249 C237 0.929 . S
H250 C238 0.960 . S
H251 C238 0.962 . S
H252 C238 0.960 . S
H253 C239 0.961 . S
H254 C239 0.961 . S
H255 C239 0.961 . S
H256 C240 0.931 . S
H257 C245 0.930 . S
H258 C246 0.956 . S
H259 C246 0.961 . S
H260 C246 0.961 . S
H261 C247 0.958 . S
H262 C247 0.961 . S
H263 C247 0.960 . S
C264 C265 1.391 . S
C264 C266 1.394 . S
C264 H280 0.931 . S
C265 C264 1.391 . S
C265 C269 1.376 . S
C266 C264 1.394 . S
C266 C267 1.369 . S
C266 C270 1.531 1_455 S
C267 C266 1.369 . S
C267 C268 1.410 . S
C267 C275 1.503 . S
C268 C267 1.410 . S
C268 C269 1.392 . S
C268 C271 1.511 . S
C269 C265 1.376 . S
C269 C268 1.392 . S
C269 H281 0.929 . S
C270 C266 1.531 1_655 S
C270 H282 0.960 . S
C270 H283 0.962 . S
C270 H284 0.960 . S
C271 C268 1.511 . S
C271 H285 0.961 . S
C271 H286 0.961 . S
C271 H287 0.961 . S
C272 C273 1.370 . S
C272 C274 1.363 . S
C272 H288 0.931 . S
C273 C272 1.370 . S
C273 C277 1.408 . S
C274 C272 1.363 . S
C274 C275 1.370 . S
C274 C278 1.524 . S
C275 C267 1.503 . S
C275 C274 1.370 . S
C275 C276 1.403 . S
C276 C275 1.403 . S
C276 C277 1.404 . S
C276 C279 1.539 . S
C277 C273 1.408 . S
C277 C276 1.404 . S
C277 H289 0.930 . S
C278 C274 1.524 . S
C278 H290 0.956 . S
C278 H291 0.961 . S
C278 H292 0.961 . S
C279 C276 1.539 . S
C279 H293 0.958 . S
C279 H294 0.961 . S
C279 H295 0.960 . S
H280 C264 0.931 . S
H281 C269 0.929 . S
H282 C270 0.960 . S
H283 C270 0.962 . S
H284 C270 0.960 . S
H285 C271 0.961 . S
H286 C271 0.961 . S
H287 C271 0.961 . S
H288 C272 0.931 . S
H289 C277 0.930 . S
H290 C278 0.956 . S
H291 C278 0.961 . S
H292 C278 0.961 . S
H293 C279 0.958 . S
H294 C279 0.961 . S
H295 C279 0.960 . S
C296 C297 1.391 . S
C296 C298 1.394 . S
C296 H312 0.931 . S
C297 C296 1.391 . S
C297 C301 1.376 . S
C298 C296 1.394 . S
C298 C299 1.369 . S
C298 C302 1.531 . S
C299 C298 1.369 . S
C299 C300 1.410 . S
C299 C307 1.503 . S
C300 C299 1.410 . S
C300 C301 1.392 . S
C300 C303 1.511 1_565 S
C301 C297 1.376 . S
C301 C300 1.392 . S
C301 H313 0.929 1_565 S
C302 C298 1.531 . S
C302 H314 0.960 . S
C302 H315 0.962 . S
C302 H316 0.960 . S
C303 C300 1.511 1_545 S
C303 H317 0.961 . S
C303 H318 0.961 . S
C303 H319 0.961 . S
C304 C305 1.370 1_545 S
C304 C306 1.363 1_545 S
C304 H320 0.931 . S
C305 C304 1.370 1_565 S
C305 C309 1.408 . S
C306 C304 1.363 1_565 S
C306 C307 1.370 . S
C306 C310 1.524 1_566 S
C307 C299 1.503 . S
C307 C306 1.370 . S
C307 C308 1.403 . S
C308 C307 1.403 . S
C308 C309 1.404 . S
C308 C311 1.539 . S
C309 C305 1.408 . S
C309 C308 1.404 . S
C309 H321 0.930 . S
C310 C306 1.524 1_544 S
C310 H322 0.956 1_545 S
C310 H323 0.961 . S
C310 H324 0.961 . S
C311 C308 1.539 . S
C311 H325 0.958 . S
C311 H326 0.961 . S
C311 H327 0.960 . S
H312 C296 0.931 . S
H313 C301 0.929 1_545 S
H314 C302 0.960 . S
H315 C302 0.962 . S
H316 C302 0.960 . S
H317 C303 0.961 . S
H318 C303 0.961 . S
H319 C303 0.961 . S
H320 C304 0.931 . S
H321 C309 0.930 . S
H322 C310 0.956 1_565 S
H323 C310 0.961 . S
H324 C310 0.961 . S
H325 C311 0.958 . S
H326 C311 0.961 . S
H327 C311 0.960 . S
C328 C329 1.391 . S
C328 C330 1.394 1_554 S
C328 H344 0.931 . S
C329 C328 1.391 . S
C329 C333 1.376 1_554 S
C330 C328 1.394 1_556 S
C330 C331 1.369 . S
C330 C334 1.531 . S
C331 C330 1.369 . S
C331 C332 1.410 . S
C331 C339 1.503 . S
C332 C331 1.410 . S
C332 C333 1.392 . S
C332 C335 1.511 . S
C333 C329 1.376 1_556 S
C333 C332 1.392 . S
C333 H345 0.929 . S
C334 C330 1.531 . S
C334 H346 0.960 . S
C334 H347 0.962 1_556 S
C334 H348 0.960 . S
C335 C332 1.511 . S
C335 H349 0.961 . S
C335 H350 0.961 . S
C335 H351 0.961 . S
C336 C337 1.370 . S
C336 C338 1.363 . S
C336 H352 0.931 . S
C337 C336 1.370 . S
C337 C341 1.408 . S
C338 C336 1.363 . S
C338 C339 1.370 . S
C338 C342 1.524 1_556 S
C339 C331 1.503 . S
C339 C338 1.370 . S
C339 C340 1.403 . S
C340 C339 1.403 . S
C340 C341 1.404 . S
C340 C343 1.539 . S
C341 C337 1.408 . S
C341 C340 1.404 . S
C341 H353 0.930 . S
C342 C338 1.524 1_554 S
C342 H354 0.956 . S
C342 H355 0.961 . S
C342 H356 0.961 . S
C343 C340 1.539 . S
C343 H357 0.958 . S
C343 H358 0.961 . S
C343 H359 0.960 . S
H344 C328 0.931 . S
H345 C333 0.929 . S
H346 C334 0.960 . S
H347 C334 0.962 1_554 S
H348 C334 0.960 . S
H349 C335 0.961 . S
H350 C335 0.961 . S
H351 C335 0.961 . S
H352 C336 0.931 . S
H353 C341 0.930 . S
H354 C342 0.956 . S
H355 C342 0.961 . S
H356 C342 0.961 . S
H357 C343 0.958 . S
H358 C343 0.961 . S
H359 C343 0.960 . S
C360 C361 1.390 1_556 S
C360 C362 1.394 . S
C360 H376 0.931 . S
C361 C360 1.390 1_554 S
C361 C365 1.374 1_554 S
C362 C360 1.394 . S
C362 C363 1.369 . S
C362 C366 1.531 . S
C363 C362 1.369 . S
C363 C364 1.410 . S
C363 C371 1.503 . S
C364 C363 1.410 . S
C364 C365 1.392 . S
C364 C367 1.511 . S
C365 C361 1.374 1_556 S
C365 C364 1.392 . S
C365 H377 0.930 . S
C366 C362 1.531 . S
C366 H378 0.960 . S
C366 H379 0.962 . S
C366 H380 0.960 . S
C367 C364 1.511 . S
C367 H381 0.961 . S
C367 H382 0.961 . S
C367 H383 0.961 . S
C368 C369 1.370 . S
C368 C370 1.363 . S
C368 H384 0.931 . S
C369 C368 1.370 . S
C369 C373 1.408 . S
C370 C368 1.363 . S
C370 C371 1.370 . S
C370 C374 1.524 . S
C371 C363 1.503 . S
C371 C370 1.370 . S
C371 C372 1.403 . S
C372 C371 1.403 . S
C372 C373 1.404 . S
C372 C375 1.539 1_556 S
C373 C369 1.408 . S
C373 C372 1.404 . S
C373 H385 0.930 . S
C374 C370 1.524 . S
C374 H386 0.956 . S
C374 H387 0.961 . S
C374 H388 0.961 . S
C375 C372 1.539 1_554 S
C375 H389 0.958 . S
C375 H390 0.961 . S
C375 H391 0.960 . S
H376 C360 0.931 . S
H377 C365 0.930 . S
H378 C366 0.960 . S
H379 C366 0.962 . S
H380 C366 0.960 . S
H381 C367 0.961 . S
H382 C367 0.961 . S
H383 C367 0.961 . S
H384 C368 0.931 . S
H385 C373 0.930 . S
H386 C374 0.956 . S
H387 C374 0.961 . S
H388 C374 0.961 . S
H389 C375 0.958 . S
H390 C375 0.961 . S
H391 C375 0.960 . S
C392 C393 1.391 . S
C392 C394 1.394 . S
C392 H408 0.931 1_556 S
C393 C392 1.391 . S
C393 C397 1.376 . S
C394 C392 1.394 . S
C394 C395 1.369 . S
C394 C398 1.531 1_655 S
C395 C394 1.369 . S
C395 C396 1.410 . S
C395 C403 1.503 . S
C396 C395 1.410 . S
C396 C397 1.392 . S
C396 C399 1.511 . S
C397 C393 1.376 . S
C397 C396 1.392 . S
C397 H409 0.929 . S
C398 C394 1.531 1_455 S
C398 H410 0.960 . S
C398 H411 0.962 . S
C398 H412 0.960 1_556 S
C399 C396 1.511 . S
C399 H413 0.961 . S
C399 H414 0.961 . S
C399 H415 0.961 . S
C400 C401 1.370 1_455 S
C400 C402 1.363 1_455 S
C400 H416 0.931 . S
C401 C400 1.370 1_655 S
C401 C405 1.408 . S
C402 C400 1.363 1_655 S
C402 C403 1.370 . S
C402 C406 1.524 1_655 S
C403 C395 1.503 . S
C403 C402 1.370 . S
C403 C404 1.403 . S
C404 C403 1.403 . S
C404 C405 1.404 . S
C404 C407 1.539 . S
C405 C401 1.408 . S
C405 C404 1.404 . S
C405 H417 0.930 . S
C406 C402 1.524 1_455 S
C406 H418 0.956 . S
C406 H419 0.961 1_455 S
C406 H420 0.961 . S
C407 C404 1.539 . S
C407 H421 0.958 1_556 S
C407 H422 0.961 . S
C407 H423 0.960 . S
H408 C392 0.931 1_554 S
H409 C397 0.929 . S
H410 C398 0.960 . S
H411 C398 0.962 . S
H412 C398 0.960 1_554 S
H413 C399 0.961 . S
H414 C399 0.961 . S
H415 C399 0.961 . S
H416 C400 0.931 . S
H417 C405 0.930 . S
H418 C406 0.956 . S
H419 C406 0.961 1_655 S
H420 C406 0.961 . S
H421 C407 0.958 1_554 S
H422 C407 0.961 . S
H423 C407 0.960 . S
C424 C425 1.391 . S
C424 C426 1.394 . S
C424 H440 0.931 . S
C425 C424 1.391 . S
C425 C429 1.376 . S
C426 C424 1.394 . S
C426 C427 1.369 . S
C426 C430 1.531 . S
C427 C426 1.369 . S
C427 C428 1.410 . S
C427 C435 1.503 . S
C428 C427 1.410 . S
C428 C429 1.392 . S
C428 C431 1.513 . S
C429 C425 1.376 . S
C429 C428 1.392 . S
C429 H441 0.929 . S
C430 C426 1.531 . S
C430 H442 0.960 . S
C430 H443 0.962 . S
C430 H444 0.960 . S
C431 C428 1.513 . S
C431 H445 0.959 1_455 S
C431 H446 0.960 1_455 S
C431 H447 0.961 . S
C432 C433 1.370 . S
C432 C434 1.363 . S
C432 H448 0.931 . S
C433 C432 1.370 . S
C433 C437 1.408 . S
C434 C432 1.363 . S
C434 C435 1.370 . S
C434 C438 1.524 . S
C435 C427 1.503 . S
C435 C434 1.370 . S
C435 C436 1.403 . S
C436 C435 1.403 . S
C436 C437 1.404 . S
C436 C439 1.539 . S
C437 C433 1.408 . S
C437 C436 1.404 . S
C437 H449 0.930 . S
C438 C434 1.524 . S
C438 H450 0.956 . S
C438 H451 0.961 . S
C438 H452 0.961 . S
C439 C436 1.539 . S
C439 H453 0.958 . S
C439 H454 0.961 . S
C439 H455 0.960 . S
H440 C424 0.931 . S
H441 C429 0.929 . S
H442 C430 0.960 . S
H443 C430 0.962 . S
H444 C430 0.960 . S
H445 C431 0.959 1_655 S
H446 C431 0.960 1_655 S
H447 C431 0.961 . S
H448 C432 0.931 . S
H449 C437 0.930 . S
H450 C438 0.956 . S
H451 C438 0.961 . S
H452 C438 0.961 . S
H453 C439 0.958 . S
H454 C439 0.961 . S
H455 C439 0.960 . S
C456 C457 1.391 . S
C456 C458 1.394 . S
C456 H472 0.931 . S
C457 C456 1.391 . S
C457 C461 1.376 . S
C458 C456 1.394 . S
C458 C459 1.369 . S
C458 C462 1.531 . S
C459 C458 1.369 . S
C459 C460 1.410 . S
C459 C467 1.503 . S
C460 C459 1.410 . S
C460 C461 1.392 . S
C460 C463 1.511 1_545 S
C461 C457 1.376 . S
C461 C460 1.392 . S
C461 H473 0.929 . S
C462 C458 1.531 . S
C462 H474 0.960 . S
C462 H475 0.962 . S
C462 H476 0.960 . S
C463 C460 1.511 1_565 S
C463 H477 0.961 . S
C463 H478 0.961 . S
C463 H479 0.961 . S
C464 C465 1.370 . S
C464 C466 1.363 . S
C464 H480 0.931 . S
C465 C464 1.370 . S
C465 C469 1.408 . S
C466 C464 1.363 . S
C466 C467 1.370 . S
C466 C470 1.524 . S
C467 C459 1.503 . S
C467 C466 1.370 . S
C467 C468 1.403 . S
C468 C467 1.403 . S
C468 C469 1.404 . S
C468 C471 1.539 . S
C469 C465 1.408 . S
C469 C468 1.404 . S
C469 H481 0.930 . S
C470 C466 1.524 . S
C470 H482 0.956 . S
C470 H483 0.961 . S
C470 H484 0.961 . S
C471 C468 1.539 . S
C471 H485 0.958 . S
C471 H486 0.961 . S
C471 H487 0.960 . S
H472 C456 0.931 . S
H473 C461 0.929 . S
H474 C462 0.960 . S
H475 C462 0.962 . S
H476 C462 0.960 . S
H477 C463 0.961 . S
H478 C463 0.961 . S
H479 C463 0.961 . S
H480 C464 0.931 . S
H481 C469 0.930 . S
H482 C470 0.956 . S
H483 C470 0.961 . S
H484 C470 0.961 . S
H485 C471 0.958 . S
H486 C471 0.961 . S
H487 C471 0.960 . S
C488 C489 1.391 . S
C488 C490 1.394 . S
C488 H504 0.931 . S
C489 C488 1.391 . S
C489 C493 1.376 . S
C490 C488 1.394 . S
C490 C491 1.369 . S
C490 C494 1.531 . S
C491 C490 1.369 . S
C491 C492 1.410 . S
C491 C499 1.503 . S
C492 C491 1.410 . S
C492 C493 1.392 . S
C492 C495 1.511 . S
C493 C489 1.376 . S
C493 C492 1.392 . S
C493 H505 0.929 . S
C494 C490 1.531 . S
C494 H506 0.960 . S
C494 H507 0.962 . S
C494 H508 0.960 . S
C495 C492 1.511 . S
C495 H509 0.961 . S
C495 H510 0.961 . S
C495 H511 0.961 . S
C496 C497 1.370 . S
C496 C498 1.363 . S
C496 H512 0.931 . S
C497 C496 1.370 . S
C497 C501 1.408 . S
C498 C496 1.363 . S
C498 C499 1.370 . S
C498 C502 1.524 . S
C499 C491 1.503 . S
C499 C498 1.370 . S
C499 C500 1.403 . S
C500 C499 1.403 . S
C500 C501 1.404 . S
C500 C503 1.539 . S
C501 C497 1.408 . S
C501 C500 1.404 . S
C501 H513 0.930 . S
C502 C498 1.524 . S
C502 H514 0.956 . S
C502 H515 0.961 . S
C502 H516 0.961 . S
C503 C500 1.539 . S
C503 H517 0.958 . S
C503 H518 0.961 . S
C503 H519 0.960 . S
H504 C488 0.931 . S
H505 C493 0.929 . S
H506 C494 0.960 . S
H507 C494 0.962 . S
H508 C494 0.960 . S
H509 C495 0.961 . S
H510 C495 0.961 . S
H511 C495 0.961 . S
H512 C496 0.931 . S
H513 C501 0.930 . S
H514 C502 0.956 . S
H515 C502 0.961 . S
H516 C502 0.961 . S
H517 C503 0.958 . S
H518 C503 0.961 . S
H519 C503 0.960 . S
C520 C521 1.391 . S
C520 C522 1.394 . S
C520 H536 0.931 . S
C521 C520 1.391 . S
C521 C525 1.376 . S
C522 C520 1.394 . S
C522 C523 1.369 . S
C522 C526 1.531 . S
C523 C522 1.369 . S
C523 C524 1.410 . S
C523 C531 1.503 . S
C524 C523 1.410 . S
C524 C525 1.392 . S
C524 C527 1.511 . S
C525 C521 1.376 . S
C525 C524 1.392 . S
C525 H537 0.929 . S
C526 C522 1.531 . S
C526 H538 0.960 . S
C526 H539 0.962 . S
C526 H540 0.960 . S
C527 C524 1.511 . S
C527 H541 0.961 . S
C527 H542 0.961 . S
C527 H543 0.961 . S
C528 C529 1.370 . S
C528 C530 1.363 . S
C528 H544 0.931 . S
C529 C528 1.370 . S
C529 C533 1.408 . S
C530 C528 1.363 . S
C530 C531 1.370 . S
C530 C534 1.524 . S
C531 C523 1.503 . S
C531 C530 1.370 . S
C531 C532 1.403 . S
C532 C531 1.403 . S
C532 C533 1.404 . S
C532 C535 1.539 . S
C533 C529 1.408 . S
C533 C532 1.404 . S
C533 H545 0.930 . S
C534 C530 1.524 . S
C534 H546 0.956 . S
C534 H547 0.961 . S
C534 H548 0.961 . S
C535 C532 1.539 . S
C535 H549 0.958 . S
C535 H550 0.961 . S
C535 H551 0.960 . S
H536 C520 0.931 . S
H537 C525 0.929 . S
H538 C526 0.960 . S
H539 C526 0.962 . S
H540 C526 0.960 . S
H541 C527 0.961 . S
H542 C527 0.961 . S
H543 C527 0.961 . S
H544 C528 0.931 . S
H545 C533 0.930 . S
H546 C534 0.956 . S
H547 C534 0.961 . S
H548 C534 0.961 . S
H549 C535 0.958 . S
H550 C535 0.961 . S
H551 C535 0.960 . S
C552 C553 1.391 . S
C552 C554 1.394 . S
C552 H568 0.931 . S
C553 C552 1.391 . S
C553 C557 1.376 . S
C554 C552 1.394 . S
C554 C555 1.369 . S
C554 C558 1.531 . S
C555 C554 1.369 . S
C555 C556 1.410 . S
C555 C563 1.503 . S
C556 C555 1.410 . S
C556 C557 1.392 . S
C556 C559 1.511 1_655 S
C557 C553 1.376 . S
C557 C556 1.392 . S
C557 H569 0.929 . S
C558 C554 1.531 . S
C558 H570 0.960 . S
C558 H571 0.962 . S
C558 H572 0.960 . S
C559 C556 1.511 1_455 S
C559 H573 0.961 . S
C559 H574 0.961 . S
C559 H575 0.961 . S
C560 C561 1.370 . S
C560 C562 1.363 . S
C560 H576 0.931 . S
C561 C560 1.370 . S
C561 C565 1.401 1_655 S
C562 C560 1.363 . S
C562 C563 1.370 . S
C562 C566 1.524 . S
C563 C555 1.503 . S
C563 C562 1.370 . S
C563 C564 1.403 . S
C564 C563 1.403 . S
C564 C565 1.399 1_655 S
C564 C567 1.539 1_655 S
C565 C561 1.401 1_455 S
C565 C564 1.399 1_455 S
C565 H577 0.942 . S
C566 C562 1.524 . S
C566 H578 0.956 . S
C566 H579 0.961 . S
C566 H580 0.961 . S
C567 C564 1.539 1_455 S
C567 H581 0.958 1_456 S
C567 H582 0.961 . S
C567 H583 0.960 . S
H568 C552 0.931 . S
H569 C557 0.929 . S
H570 C558 0.960 . S
H571 C558 0.962 . S
H572 C558 0.960 . S
H573 C559 0.961 . S
H574 C559 0.961 . S
H575 C559 0.961 . S
H576 C560 0.931 . S
H577 C565 0.942 . S
H578 C566 0.956 . S
H579 C566 0.961 . S
H580 C566 0.961 . S
H581 C567 0.958 1_654 S
H582 C567 0.961 . S
H583 C567 0.960 . S
C584 C585 1.391 . S
C584 C586 1.394 . S
C584 H600 0.931 1_556 S
C585 C584 1.391 . S
C585 C589 1.376 . S
C586 C584 1.394 . S
C586 C587 1.369 . S
C586 C590 1.531 . S
C587 C586 1.369 . S
C587 C588 1.410 . S
C587 C595 1.503 . S
C588 C587 1.410 . S
C588 C589 1.392 . S
C588 C591 1.511 1_565 S
C589 C585 1.376 . S
C589 C588 1.392 . S
C589 H601 0.929 1_565 S
C590 C586 1.531 . S
C590 H602 0.960 . S
C590 H603 0.962 . S
C590 H604 0.960 1_556 S
C591 C588 1.511 1_545 S
C591 H605 0.961 . S
C591 H606 0.961 . S
C591 H607 0.961 . S
C592 C593 1.370 . S
C592 C594 1.363 . S
C592 H608 0.931 . S
C593 C592 1.370 . S
C593 C597 1.408 1_565 S
C594 C592 1.363 . S
C594 C595 1.370 . S
C594 C598 1.524 . S
C595 C587 1.503 . S
C595 C594 1.370 . S
C595 C596 1.381 1_565 S
C596 C595 1.381 1_545 S
C596 C597 1.417 . S
C596 C599 1.552 1_556 S
C597 C593 1.408 1_545 S
C597 C596 1.417 . S
C597 H609 0.930 . S
C598 C594 1.524 . S
C598 H610 0.956 . S
C598 H611 0.961 . S
C598 H612 0.961 . S
C599 C596 1.552 1_554 S
C599 H613 0.958 1_545 S
C599 H614 0.961 . S
C599 H615 0.960 . S
H600 C584 0.931 1_554 S
H601 C589 0.929 1_545 S
H602 C590 0.960 . S
H603 C590 0.962 . S
H604 C590 0.960 1_554 S
H605 C591 0.961 . S
H606 C591 0.961 . S
H607 C591 0.961 . S
H608 C592 0.931 . S
H609 C597 0.930 . S
H610 C598 0.956 . S
H611 C598 0.961 . S
H612 C598 0.961 . S
H613 C599 0.958 1_565 S
H614 C599 0.961 . S
H615 C599 0.960 . S
C616 C617 1.391 . S
C616 C618 1.394 . S
C616 H632 0.931 . S
C617 C616 1.391 . S
C617 C621 1.376 . S
C618 C616 1.394 . S
C618 C619 1.369 . S
C618 C622 1.531 . S
C619 C618 1.369 . S
C619 C620 1.410 . S
C619 C627 1.503 . S
C620 C619 1.410 . S
C620 C621 1.392 . S
C620 C623 1.511 . S
C621 C617 1.376 . S
C621 C620 1.392 . S
C621 H633 0.929 1_556 S
C622 C618 1.531 . S
C622 H634 0.960 . S
C622 H635 0.962 . S
C622 H636 0.960 . S
C623 C620 1.511 . S
C623 H637 0.961 . S
C623 H638 0.961 . S
C623 H639 0.961 1_556 S
C624 C625 1.370 . S
C624 C626 1.363 . S
C624 H640 0.931 . S
C625 C624 1.370 . S
C625 C629 1.408 . S
C626 C624 1.363 . S
C626 C627 1.370 . S
C626 C630 1.524 . S
C627 C619 1.503 . S
C627 C626 1.370 . S
C627 C628 1.403 . S
C628 C627 1.403 . S
C628 C629 1.404 . S
C628 C631 1.539 1_556 S
C629 C625 1.408 . S
C629 C628 1.404 . S
C629 H641 0.930 . S
C630 C626 1.524 . S
C630 H642 0.956 . S
C630 H643 0.961 . S
C630 H644 0.961 . S
C631 C628 1.539 1_554 S
C631 H645 0.958 . S
C631 H646 0.961 . S
C631 H647 0.960 . S
H632 C616 0.931 . S
H633 C621 0.929 1_554 S
H634 C622 0.960 . S
H635 C622 0.962 . S
H636 C622 0.960 . S
H637 C623 0.961 . S
H638 C623 0.961 . S
H639 C623 0.961 1_554 S
H640 C624 0.931 . S
H641 C629 0.930 . S
H642 C630 0.956 . S
H643 C630 0.961 . S
H644 C630 0.961 . S
H645 C631 0.958 . S
H646 C631 0.961 . S
H647 C631 0.960 . S
C648 C649 1.391 1_554 S
C648 C650 1.394 1_554 S
C648 H664 0.931 . S
C649 C648 1.391 1_556 S
C649 C653 1.376 . S
C650 C648 1.394 1_556 S
C650 C651 1.369 . S
C650 C654 1.531 1_556 S
C651 C650 1.369 . S
C651 C652 1.410 . S
C651 C659 1.503 . S
C652 C651 1.410 . S
C652 C653 1.392 . S
C652 C655 1.511 . S
C653 C649 1.376 . S
C653 C652 1.392 . S
C653 H665 0.929 . S
C654 C650 1.531 1_554 S
C654 H666 0.960 . S
C654 H667 0.962 . S
C654 H668 0.960 . S
C655 C652 1.511 . S
C655 H669 0.961 . S
C655 H670 0.961 . S
C655 H671 0.961 . S
C656 C657 1.370 . S
C656 C658 1.363 . S
C656 H672 0.931 . S
C657 C656 1.370 . S
C657 C661 1.408 . S
C658 C656 1.363 . S
C658 C659 1.370 . S
C658 C662 1.524 . S
C659 C651 1.503 . S
C659 C658 1.370 . S
C659 C660 1.403 . S
C660 C659 1.403 . S
C660 C661 1.404 . S
C660 C663 1.539 . S
C661 C657 1.408 . S
C661 C660 1.404 . S
C661 H673 0.930 . S
C662 C658 1.524 . S
C662 H674 0.956 . S
C662 H675 0.961 . S
C662 H676 0.961 . S
C663 C660 1.539 . S
C663 H677 0.958 . S
C663 H678 0.961 . S
C663 H679 0.960 . S
H664 C648 0.931 . S
H665 C653 0.929 . S
H666 C654 0.960 . S
H667 C654 0.962 . S
H668 C654 0.960 . S
H669 C655 0.961 . S
H670 C655 0.961 . S
H671 C655 0.961 . S
H672 C656 0.931 . S
H673 C661 0.930 . S
H674 C662 0.956 . S
H675 C662 0.961 . S
H676 C662 0.961 . S
H677 C663 0.958 . S
H678 C663 0.961 . S
H679 C663 0.960 . S
C680 C681 1.391 . S
C680 C682 1.394 . S
C680 H696 0.931 . S
C681 C680 1.391 . S
C681 C685 1.376 . S
C682 C680 1.394 . S
C682 C683 1.369 . S
C682 C686 1.531 . S
C683 C682 1.369 . S
C683 C684 1.410 . S
C683 C691 1.503 . S
C684 C683 1.410 . S
C684 C685 1.392 . S
C684 C687 1.511 . S
C685 C681 1.376 . S
C685 C684 1.392 . S
C685 H697 0.929 . S
C686 C682 1.531 . S
C686 H698 0.960 . S
C686 H699 0.962 . S
C686 H700 0.960 . S
C687 C684 1.511 . S
C687 H701 0.961 1_455 S
C687 H702 0.961 . S
C687 H703 0.961 1_455 S
C688 C689 1.370 . S
C688 C690 1.363 . S
C688 H704 0.931 . S
C689 C688 1.370 . S
C689 C693 1.408 1_556 S
C690 C688 1.363 . S
C690 C691 1.370 1_556 S
C690 C694 1.524 . S
C691 C683 1.503 . S
C691 C690 1.370 1_554 S
C691 C692 1.403 . S
C692 C691 1.403 . S
C692 C693 1.404 . S
C692 C695 1.539 . S
C693 C689 1.408 1_554 S
C693 C692 1.404 . S
C693 H705 0.930 . S
C694 C690 1.524 . S
C694 H706 0.956 . S
C694 H707 0.961 . S
C694 H708 0.961 . S
C695 C692 1.539 . S
C695 H709 0.958 . S
C695 H710 0.961 1_455 S
C695 H711 0.960 . S
H696 C680 0.931 . S
H697 C685 0.929 . S
H698 C686 0.960 . S
H699 C686 0.962 . S
H700 C686 0.960 . S
H701 C687 0.961 1_655 S
H702 C687 0.961 . S
H703 C687 0.961 1_655 S
H704 C688 0.931 . S
H705 C693 0.930 . S
H706 C694 0.956 . S
H707 C694 0.961 . S
H708 C694 0.961 . S
H709 C695 0.958 . S
H710 C695 0.961 1_655 S
H711 C695 0.960 . S
C712 C713 1.391 . S
C712 C714 1.394 . S
C712 H728 0.931 . S
C713 C712 1.391 . S
C713 C717 1.376 . S
C714 C712 1.394 . S
C714 C715 1.369 . S
C714 C718 1.531 1_545 S
C715 C714 1.369 . S
C715 C716 1.410 . S
C715 C723 1.503 1_554 S
C716 C715 1.410 . S
C716 C717 1.392 . S
C716 C719 1.511 . S
C717 C713 1.376 . S
C717 C716 1.392 . S
C717 H729 0.929 . S
C718 C714 1.531 1_565 S
C718 H730 0.960 1_554 S
C718 H731 0.962 . S
C718 H732 0.960 . S
C719 C716 1.511 . S
C719 H733 0.961 . S
C719 H734 0.961 . S
C719 H735 0.961 1_554 S
C720 C721 1.370 . S
C720 C722 1.363 1_556 S
C720 H736 0.931 1_556 S
C721 C720 1.370 . S
C721 C725 1.408 . S
C722 C720 1.363 1_554 S
C722 C723 1.370 1_554 S
C722 C726 1.524 . S
C723 C715 1.503 1_556 S
C723 C722 1.370 1_556 S
C723 C724 1.403 . S
C724 C723 1.403 . S
C724 C725 1.404 . S
C724 C727 1.539 . S
C725 C721 1.408 . S
C725 C724 1.404 . S
C725 H737 0.930 . S
C726 C722 1.524 . S
C726 H738 0.956 . S
C726 H739 0.961 . S
C726 H740 0.961 . S
C727 C724 1.539 . S
C727 H741 0.958 . S
C727 H742 0.961 . S
C727 H743 0.960 . S
H728 C712 0.931 . S
H729 C717 0.929 . S
H730 C718 0.960 1_556 S
H731 C718 0.962 . S
H732 C718 0.960 . S
H733 C719 0.961 . S
H734 C719 0.961 . S
H735 C719 0.961 1_556 S
H736 C720 0.931 1_554 S
H737 C725 0.930 . S
H738 C726 0.956 . S
H739 C726 0.961 . S
H740 C726 0.961 . S
H741 C727 0.958 . S
H742 C727 0.961 . S
H743 C727 0.960 . S
C744 C745 1.391 . S
C744 C746 1.394 . S
C744 H760 0.931 . S
C745 C744 1.391 . S
C745 C749 1.376 . S
C746 C744 1.394 . S
C746 C747 1.369 . S
C746 C750 1.531 . S
C747 C746 1.369 . S
C747 C748 1.410 . S
C747 C755 1.503 . S
C748 C747 1.410 . S
C748 C749 1.392 . S
C748 C751 1.511 . S
C749 C745 1.376 . S
C749 C748 1.392 . S
C749 H761 0.929 . S
C750 C746 1.531 . S
C750 H762 0.960 . S
C750 H763 0.962 . S
C750 H764 0.960 . S
C751 C748 1.511 . S
C751 H765 0.961 . S
C751 H766 0.961 . S
C751 H767 0.961 . S
C752 C753 1.370 . S
C752 C754 1.363 . S
C752 H768 0.931 . S
C753 C752 1.370 . S
C753 C757 1.408 . S
C754 C752 1.363 . S
C754 C755 1.370 1_556 S
C754 C758 1.524 . S
C755 C747 1.503 . S
C755 C754 1.370 1_554 S
C755 C756 1.403 . S
C756 C755 1.403 . S
C756 C757 1.404 1_554 S
C756 C759 1.539 . S
C757 C753 1.408 . S
C757 C756 1.404 1_556 S
C757 H769 0.930 1_556 S
C758 C754 1.524 . S
C758 H770 0.956 . S
C758 H771 0.961 . S
C758 H772 0.961 . S
C759 C756 1.539 . S
C759 H773 0.958 . S
C759 H774 0.961 . S
C759 H775 0.960 . S
H760 C744 0.931 . S
H761 C749 0.929 . S
H762 C750 0.960 . S
H763 C750 0.962 . S
H764 C750 0.960 . S
H765 C751 0.961 . S
H766 C751 0.961 . S
H767 C751 0.961 . S
H768 C752 0.931 . S
H769 C757 0.930 1_554 S
H770 C758 0.956 . S
H771 C758 0.961 . S
H772 C758 0.961 . S
H773 C759 0.958 . S
H774 C759 0.961 . S
H775 C759 0.960 . S
C776 C777 1.391 . S
C776 C778 1.394 . S
C776 H792 0.931 . S
C777 C776 1.391 . S
C777 C781 1.376 . S
C778 C776 1.394 . S
C778 C779 1.369 . S
C778 C782 1.531 1_554 S
C779 C778 1.369 . S
C779 C780 1.410 . S
C779 C787 1.503 . S
C780 C779 1.410 . S
C780 C781 1.392 . S
C780 C783 1.511 . S
C781 C777 1.376 . S
C781 C780 1.392 . S
C781 H793 0.929 . S
C782 C778 1.531 1_556 S
C782 H794 0.960 . S
C782 H795 0.962 . S
C782 H796 0.960 . S
C783 C780 1.511 . S
C783 H797 0.961 . S
C783 H798 0.961 . S
C783 H799 0.961 . S
C784 C785 1.370 . S
C784 C786 1.363 . S
C784 H800 0.931 . S
C785 C784 1.370 . S
C785 C789 1.408 . S
C786 C784 1.363 . S
C786 C787 1.370 1_556 S
C786 C790 1.524 . S
C787 C779 1.503 . S
C787 C786 1.370 1_554 S
C787 C788 1.403 . S
C788 C787 1.403 . S
C788 C789 1.404 1_554 S
C788 C791 1.539 . S
C789 C785 1.408 . S
C789 C788 1.404 1_556 S
C789 H801 0.930 . S
C790 C786 1.524 . S
C790 H802 0.956 . S
C790 H803 0.961 1_556 S
C790 H804 0.961 . S
C791 C788 1.539 . S
C791 H805 0.958 . S
C791 H806 0.961 . S
C791 H807 0.960 . S
H792 C776 0.931 . S
H793 C781 0.929 . S
H794 C782 0.960 . S
H795 C782 0.962 . S
H796 C782 0.960 . S
H797 C783 0.961 . S
H798 C783 0.961 . S
H799 C783 0.961 . S
H800 C784 0.931 . S
H801 C789 0.930 . S
H802 C790 0.956 . S
H803 C790 0.961 1_554 S
H804 C790 0.961 . S
H805 C791 0.958 . S
H806 C791 0.961 . S
H807 C791 0.960 . S
C808 C809 1.391 . S
C808 C810 1.394 . S
C808 H824 0.931 . S
C809 C808 1.391 . S
C809 C813 1.376 . S
C810 C808 1.394 . S
C810 C811 1.369 . S
C810 C814 1.531 1_655 S
C811 C810 1.369 . S
C811 C812 1.410 . S
C811 C819 1.503 . S
C812 C811 1.410 . S
C812 C813 1.392 . S
C812 C815 1.511 . S
C813 C809 1.376 . S
C813 C812 1.392 . S
C813 H825 0.929 . S
C814 C810 1.531 1_455 S
C814 H826 0.960 . S
C814 H827 0.962 . S
C814 H828 0.960 . S
C815 C812 1.511 . S
C815 H829 0.961 . S
C815 H830 0.961 . S
C815 H831 0.961 . S
C816 C817 1.370 . S
C816 C818 1.363 . S
C816 H832 0.931 . S
C817 C816 1.370 . S
C817 C821 1.408 . S
C818 C816 1.363 . S
C818 C819 1.370 . S
C818 C822 1.524 . S
C819 C811 1.503 . S
C819 C818 1.370 . S
C819 C820 1.403 . S
C820 C819 1.403 . S
C820 C821 1.404 . S
C820 C823 1.539 . S
C821 C817 1.408 . S
C821 C820 1.404 . S
C821 H833 0.930 . S
C822 C818 1.524 . S
C822 H834 0.956 . S
C822 H835 0.961 . S
C822 H836 0.961 . S
C823 C820 1.539 . S
C823 H837 0.958 . S
C823 H838 0.961 . S
C823 H839 0.960 . S
H824 C808 0.931 . S
H825 C813 0.929 . S
H826 C814 0.960 . S
H827 C814 0.962 . S
H828 C814 0.960 . S
H829 C815 0.961 . S
H830 C815 0.961 . S
H831 C815 0.961 . S
H832 C816 0.931 . S
H833 C821 0.930 . S
H834 C822 0.956 . S
H835 C822 0.961 . S
H836 C822 0.961 . S
H837 C823 0.958 . S
H838 C823 0.961 . S
H839 C823 0.960 . S
C840 C841 1.391 . S
C840 C842 1.394 . S
C840 H856 0.931 . S
C841 C840 1.391 . S
C841 C845 1.376 . S
C842 C840 1.394 . S
C842 C843 1.369 . S
C842 C846 1.531 . S
C843 C842 1.369 . S
C843 C844 1.410 . S
C843 C851 1.503 . S
C844 C843 1.410 . S
C844 C845 1.392 . S
C844 C847 1.511 . S
C845 C841 1.376 . S
C845 C844 1.392 . S
C845 H857 0.929 . S
C846 C842 1.531 . S
C846 H858 0.960 . S
C846 H859 0.962 1_565 S
C846 H860 0.960 . S
C847 C844 1.511 . S
C847 H861 0.961 . S
C847 H862 0.961 . S
C847 H863 0.961 . S
C848 C849 1.370 1_545 S
C848 C850 1.363 . S
C848 H864 0.931 . S
C849 C848 1.370 1_565 S
C849 C853 1.408 . S
C850 C848 1.363 . S
C850 C851 1.370 1_545 S
C850 C854 1.524 . S
C851 C843 1.503 . S
C851 C850 1.370 1_565 S
C851 C852 1.403 . S
C852 C851 1.403 . S
C852 C853 1.404 . S
C852 C855 1.539 . S
C853 C849 1.408 . S
C853 C852 1.404 . S
C853 H865 0.930 . S
C854 C850 1.524 . S
C854 H866 0.956 . S
C854 H867 0.961 . S
C854 H868 0.961 . S
C855 C852 1.539 . S
C855 H869 0.958 . S
C855 H870 0.961 . S
C855 H871 0.960 . S
H856 C840 0.931 . S
H857 C845 0.929 . S
H858 C846 0.960 . S
H859 C846 0.962 1_545 S
H860 C846 0.960 . S
H861 C847 0.961 . S
H862 C847 0.961 . S
H863 C847 0.961 . S
H864 C848 0.931 . S
H865 C853 0.930 . S
H866 C854 0.956 . S
H867 C854 0.961 . S
H868 C854 0.961 . S
H869 C855 0.958 . S
H870 C855 0.961 . S
H871 C855 0.960 . S
C872 C873 1.391 . S
C872 C874 1.394 . S
C872 H888 0.931 . S
C873 C872 1.391 . S
C873 C877 1.376 . S
C874 C872 1.394 . S
C874 C875 1.369 . S
C874 C878 1.531 . S
C875 C874 1.369 . S
C875 C876 1.410 . S
C875 C883 1.503 . S
C876 C875 1.410 . S
C876 C877 1.392 . S
C876 C879 1.511 . S
C877 C873 1.376 . S
C877 C876 1.392 . S
C877 H889 0.929 . S
C878 C874 1.531 . S
C878 H890 0.960 . S
C878 H891 0.962 . S
C878 H892 0.960 . S
C879 C876 1.511 . S
C879 H893 0.961 . S
C879 H894 0.961 . S
C879 H895 0.961 . S
C880 C881 1.370 . S
C880 C882 1.363 . S
C880 H896 0.931 . S
C881 C880 1.370 . S
C881 C885 1.408 . S
C882 C880 1.363 . S
C882 C883 1.370 . S
C882 C886 1.524 . S
C883 C875 1.503 . S
C883 C882 1.370 . S
C883 C884 1.403 . S
C884 C883 1.403 . S
C884 C885 1.404 . S
C884 C887 1.539 . S
C885 C881 1.408 . S
C885 C884 1.404 . S
C885 H897 0.930 . S
C886 C882 1.524 . S
C886 H898 0.956 . S
C886 H899 0.961 . S
C886 H900 0.961 . S
C887 C884 1.539 . S
C887 H901 0.958 . S
C887 H902 0.961 . S
C887 H903 0.960 . S
H888 C872 0.931 . S
H889 C877 0.929 . S
H890 C878 0.960 . S
H891 C878 0.962 . S
H892 C878 0.960 . S
H893 C879 0.961 . S
H894 C879 0.961 . S
H895 C879 0.961 . S
H896 C880 0.931 . S
H897 C885 0.930 . S
H898 C886 0.956 . S
H899 C886 0.961 . S
H900 C886 0.961 . S
H901 C887 0.958 . S
H902 C887 0.961 . S
H903 C887 0.960 . S
C904 C905 1.391 . S
C904 C906 1.394 . S
C904 H920 0.931 . S
C905 C904 1.391 . S
C905 C909 1.376 . S
C906 C904 1.394 . S
C906 C907 1.369 . S
C906 C910 1.531 . S
C907 C906 1.369 . S
C907 C908 1.410 . S
C907 C915 1.503 . S
C908 C907 1.410 . S
C908 C909 1.392 . S
C908 C911 1.511 . S
C909 C905 1.376 . S
C909 C908 1.392 . S
C909 H921 0.929 . S
C910 C906 1.531 . S
C910 H922 0.960 . S
C910 H923 0.962 . S
C910 H924 0.960 . S
C911 C908 1.511 . S
C911 H925 0.961 . S
C911 H926 0.961 . S
C911 H927 0.961 . S
C912 C913 1.370 . S
C912 C914 1.363 . S
C912 H928 0.931 . S
C913 C912 1.370 . S
C913 C917 1.408 . S
C914 C912 1.363 . S
C914 C915 1.370 . S
C914 C918 1.524 . S
C915 C907 1.503 . S
C915 C914 1.370 . S
C915 C916 1.403 . S
C916 C915 1.403 . S
C916 C917 1.404 . S
C916 C919 1.539 . S
C917 C913 1.408 . S
C917 C916 1.404 . S
C917 H929 0.930 . S
C918 C914 1.524 . S
C918 H930 0.956 . S
C918 H931 0.961 . S
C918 H932 0.961 . S
C919 C916 1.539 . S
C919 H933 0.958 . S
C919 H934 0.961 . S
C919 H935 0.960 . S
H920 C904 0.931 . S
H921 C909 0.929 . S
H922 C910 0.960 . S
H923 C910 0.962 . S
H924 C910 0.960 . S
H925 C911 0.961 . S
H926 C911 0.961 . S
H927 C911 0.961 . S
H928 C912 0.931 . S
H929 C917 0.930 . S
H930 C918 0.956 . S
H931 C918 0.961 . S
H932 C918 0.961 . S
H933 C919 0.958 . S
H934 C919 0.961 . S
H935 C919 0.960 . S
C169 C76 1.567 . S
C177 C89 1.602 . S
C209 C124 1.608 . S
C201 C87 1.530 . S
C241 C129 1.334 . S
C233 C54 1.293 . S
C273 C149 1.471 . S
C265 C65 1.433 . S
C305 C97 1.602 1_565 S
C297 C32 1.559 1_556 S
C329 C43 1.559 . S
C337 C114 1.611 . S
C361 C10 1.334 . S
C369 C137 1.324 . S
C393 C21 1.468 . S
C401 C157 1.471 1_655 S
C433 C107 1.258 . S
C425 C60 1.262 . S
C465 C116 0.980 . S
C457 C71 1.012 . S
C497 C147 1.307 . S
C489 C82 1.261 . S
C521 C49 0.944 . S
C529 C167 0.959 . S
C553 C16 1.167 . S
C561 C96 1.229 1_655 S
C593 C127 0.973 1_565 S
C585 C27 0.918 1_556 S
C625 C136 1.305 . S
C617 C38 1.253 1_556 S
C649 C5 0.964 1_556 S
C657 C156 0.974 . S
C681 C59 1.440 . S
C689 C94 1.475 . S
C713 C70 1.483 . S
C721 C117 1.512 . S
C753 C134 1.579 . S
C745 C81 1.510 . S
C785 C154 1.577 . S
C777 C48 1.535 . S
C809 C15 1.434 . S
C817 C104 1.475 . S
C849 C109 1.511 . S
C841 C26 1.443 . S
C881 C144 1.584 . S
C873 C37 1.512 . S
C905 C4 1.579 . S
C913 C164 1.592 . S
