# Generated by pormake.
# Topology pyr, (3,6)-cn, num edge types: 1
# Building blocks:
#     Node 0, Type 0, BuildingBlock: KAKCAD_clean_linker_0, # of connection points: 3
#     Node 1, Type 0, BuildingBlock: KAKCAD_clean_linker_0, # of connection points: 3
#     Node 2, Type 0, BuildingBlock: KAKCAD_clean_linker_0, # of connection points: 3
#     Node 3, Type 0, BuildingBlock: KAKCAD_clean_linker_0, # of connection points: 3
#     Node 4, Type 0, BuildingBlock: KAKCAD_clean_linker_0, # of connection points: 3
#     Node 5, Type 0, BuildingBlock: KAKCAD_clean_linker_0, # of connection points: 3
#     Node 6, Type 0, BuildingBlock: KAKCAD_clean_linker_0, # of connection points: 3
#     Node 7, Type 0, BuildingBlock: KAKCAD_clean_linker_0, # of connection points: 3
#     Node 8, Type 1, BuildingBlock: VOLQOD_clean_sbu_1, # of connection points: 6
#     Node 9, Type 1, BuildingBlock: VOLQOD_clean_sbu_1, # of connection points: 6
#     Node 10, Type 1, BuildingBlock: VOLQOD_clean_sbu_1, # of connection points: 6
#     Node 11, Type 1, BuildingBlock: VOLQOD_clean_sbu_1, # of connection points: 6
#     Edge 12, Type (0, 1), BuildingBlock: MIFKUJ_clean_linker_0, # of connection points: 2
#     Edge 13, Type (0, 1), BuildingBlock: MIFKUJ_clean_linker_0, # of connection points: 2
#     Edge 14, Type (0, 1), BuildingBlock: MIFKUJ_clean_linker_0, # of connection points: 2
#     Edge 15, Type (0, 1), BuildingBlock: MIFKUJ_clean_linker_0, # of connection points: 2
#     Edge 16, Type (0, 1), BuildingBlock: MIFKUJ_clean_linker_0, # of connection points: 2
#     Edge 17, Type (0, 1), BuildingBlock: MIFKUJ_clean_linker_0, # of connection points: 2
#     Edge 18, Type (0, 1), BuildingBlock: MIFKUJ_clean_linker_0, # of connection points: 2
#     Edge 19, Type (0, 1), BuildingBlock: MIFKUJ_clean_linker_0, # of connection points: 2
#     Edge 20, Type (0, 1), BuildingBlock: MIFKUJ_clean_linker_0, # of connection points: 2
#     Edge 21, Type (0, 1), BuildingBlock: MIFKUJ_clean_linker_0, # of connection points: 2
#     Edge 22, Type (0, 1), BuildingBlock: MIFKUJ_clean_linker_0, # of connection points: 2
#     Edge 23, Type (0, 1), BuildingBlock: MIFKUJ_clean_linker_0, # of connection points: 2
#     Edge 24, Type (0, 1), BuildingBlock: MIFKUJ_clean_linker_0, # of connection points: 2
#     Edge 25, Type (0, 1), BuildingBlock: MIFKUJ_clean_linker_0, # of connection points: 2
#     Edge 26, Type (0, 1), BuildingBlock: MIFKUJ_clean_linker_0, # of connection points: 2
#     Edge 27, Type (0, 1), BuildingBlock: MIFKUJ_clean_linker_0, # of connection points: 2
#     Edge 28, Type (0, 1), BuildingBlock: MIFKUJ_clean_linker_0, # of connection points: 2
#     Edge 29, Type (0, 1), BuildingBlock: MIFKUJ_clean_linker_0, # of connection points: 2
#     Edge 30, Type (0, 1), BuildingBlock: MIFKUJ_clean_linker_0, # of connection points: 2
#     Edge 31, Type (0, 1), BuildingBlock: MIFKUJ_clean_linker_0, # of connection points: 2
#     Edge 32, Type (0, 1), BuildingBlock: MIFKUJ_clean_linker_0, # of connection points: 2
#     Edge 33, Type (0, 1), BuildingBlock: MIFKUJ_clean_linker_0, # of connection points: 2
#     Edge 34, Type (0, 1), BuildingBlock: MIFKUJ_clean_linker_0, # of connection points: 2
#     Edge 35, Type (0, 1), BuildingBlock: MIFKUJ_clean_linker_0, # of connection points: 2
# Relax obj value: 0.035
# Max RMSD: 0.119
# Mean RMSD: 0.043
data_MOF--net-pry--node1-VOLQOD_clean_sbu_1--node2-KAKCAD_clean_linker_0--edge1-MIFKUJ_clean_linker_0
_symmetry_space_group_name_H-M    P1
_symmetry_Int_Tables_number       1
_symmetry_cell_setting            triclinic
loop_
_symmetry_equiv_pos_as_xyz
'x, y, z'
_cell_length_a     56.35997
_cell_length_b     56.277581
_cell_length_c     56.497118
_cell_angle_alpha  90.376464
_cell_angle_beta   89.91149
_cell_angle_gamma 90.290319
loop_
_atom_site_label
_atom_site_type_symbol
_atom_site_fract_x
_atom_site_fract_y
_atom_site_fract_z
_atom_type_partial_charge
C0 C 0.07432 0.10835 0.20466 0.0
C1 C 0.08871 0.0989 0.22254 0.0
C2 C 0.08453 0.11903 0.18478 0.0
C3 C 0.10935 0.12056 0.18245 0.0
C4 C 0.12367 0.11102 0.20035 0.0
C5 C 0.11348 0.10027 0.22011 0.0
C6 C 0.12044 0.13256 0.1618 0.0
C7 C 0.11103 0.15381 0.15302 0.0
C8 C 0.12229 0.16596 0.13444 0.0
C9 C 0.14341 0.15677 0.12487 0.0
C10 C 0.1531 0.13547 0.13335 0.0
C11 C 0.14115 0.12332 0.15151 0.0
C12 C 0.17603 0.12628 0.12387 0.0
C13 C 0.18214 0.12898 0.09988 0.0
C14 C 0.19223 0.11497 0.13895 0.0
C15 C 0.21378 0.10644 0.13029 0.0
C16 C 0.22008 0.10944 0.10639 0.0
C17 C 0.1122 0.18849 0.12535 0.0
C18 C 0.08759 0.19082 0.12212 0.0
C19 C 0.12706 0.2078 0.1198 0.0
C20 C 0.11757 0.22889 0.1111 0.0
C21 C 0.09296 0.23122 0.10783 0.0
C22 C 0.07808 0.21194 0.11348 0.0
C23 C 0.20395 0.12085 0.0913 0.0
H24 H 0.05516 0.10738 0.20599 0.0
H25 H 0.073 0.12596 0.17118 0.0
H26 H 0.14283 0.11233 0.1994 0.0
H27 H 0.12504 0.09358 0.23381 0.0
H28 H 0.09538 0.16137 0.16122 0.0
H29 H 0.14793 0.10648 0.15767 0.0
H30 H 0.1524 0.16636 0.11091 0.0
H31 H 0.17005 0.13728 0.08761 0.0
H32 H 0.18845 0.1129 0.15762 0.0
H33 H 0.22543 0.09738 0.14244 0.0
H34 H 0.07566 0.17621 0.12603 0.0
H35 H 0.14606 0.20673 0.12237 0.0
H36 H 0.20822 0.12381 0.07287 0.0
H37 H 0.05903 0.21322 0.11144 0.0
H38 H 0.12957 0.24328 0.10668 0.0
C39 C 0.38932 0.9108 0.72186 0.0
C40 C 0.4137 0.90959 0.72697 0.0
C41 C 0.38037 0.90162 0.70065 0.0
C42 C 0.39558 0.89134 0.68373 0.0
C43 C 0.42 0.89034 0.68871 0.0
C44 C 0.42892 0.8992 0.7101 0.0
C45 C 0.38592 0.88154 0.66112 0.0
C46 C 0.36668 0.89257 0.6499 0.0
C47 C 0.35674 0.88291 0.62919 0.0
C48 C 0.36667 0.86236 0.61918 0.0
C49 C 0.386 0.8511 0.62998 0.0
C50 C 0.39543 0.86076 0.65098 0.0
C51 C 0.39584 0.82882 0.61981 0.0
C52 C 0.38065 0.81087 0.61119 0.0
C53 C 0.42049 0.82517 0.61897 0.0
C54 C 0.42973 0.80402 0.60982 0.0
C55 C 0.41452 0.78601 0.60133 0.0
C56 C 0.3352 0.89364 0.61876 0.0
C57 C 0.31606 0.89998 0.63341 0.0
C58 C 0.33328 0.89698 0.5942 0.0
C59 C 0.31252 0.90632 0.5845 0.0
C60 C 0.29324 0.91223 0.59916 0.0
C61 C 0.29529 0.90911 0.62371 0.0
C62 C 0.38988 0.78973 0.60205 0.0
H63 H 0.37706 0.91899 0.73417 0.0
H64 H 0.36141 0.90238 0.6977 0.0
H65 H 0.43233 0.88284 0.67602 0.0
H66 H 0.44774 0.89762 0.71349 0.0
H67 H 0.35942 0.90884 0.65719 0.0
H68 H 0.40966 0.85156 0.65988 0.0
H69 H 0.35906 0.85488 0.60315 0.0
H70 H 0.36157 0.813 0.61183 0.0
H71 H 0.43267 0.83874 0.6253 0.0
H72 H 0.44878 0.80162 0.60974 0.0
H73 H 0.31694 0.8974 0.65237 0.0
H74 H 0.34782 0.89237 0.58251 0.0
H75 H 0.3777 0.77632 0.59542 0.0
H76 H 0.28079 0.91372 0.63546 0.0
H77 H 0.31136 0.90842 0.56549 0.0
C78 C 0.69428 0.44582 0.91946 0.0
C79 C 0.71249 0.4319 0.92906 0.0
C80 C 0.67353 0.43516 0.91084 0.0
C81 C 0.67057 0.41034 0.91154 0.0
C82 C 0.68863 0.3965 0.92155 0.0
C83 C 0.70931 0.40716 0.93024 0.0
C84 C 0.64933 0.39872 0.90087 0.0
C85 C 0.6404 0.40658 0.8791 0.0
C86 C 0.62152 0.39462 0.86796 0.0
C87 C 0.61164 0.37445 0.87878 0.0
C88 C 0.62013 0.36634 0.90068 0.0
C89 C 0.63877 0.37889 0.91172 0.0
C90 C 0.61031 0.3442 0.9114 0.0
C91 C 0.5862 0.33809 0.90883 0.0
C92 C 0.62521 0.32848 0.92359 0.0
C93 C 0.61637 0.30716 0.93263 0.0
C94 C 0.59246 0.30064 0.92931 0.0
C95 C 0.61266 0.40276 0.84463 0.0
C96 C 0.60938 0.42708 0.84025 0.0
C97 C 0.60756 0.38627 0.82653 0.0
C98 C 0.59933 0.39392 0.80456 0.0
C99 C 0.59601 0.41824 0.80018 0.0
C100 C 0.60114 0.43474 0.81827 0.0
C101 C 0.57745 0.31653 0.91746 0.0
H102 H 0.6961 0.46496 0.91859 0.0
H103 H 0.65982 0.44636 0.90355 0.0
H104 H 0.68715 0.37732 0.92199 0.0
H105 H 0.72316 0.3959 0.93717 0.0
H106 H 0.64881 0.42146 0.87028 0.0
H107 H 0.64514 0.37326 0.92886 0.0
H108 H 0.59748 0.36488 0.86988 0.0
H109 H 0.57402 0.34988 0.89996 0.0
H110 H 0.64394 0.33229 0.92573 0.0
H111 H 0.62843 0.29573 0.94209 0.0
H112 H 0.61289 0.4402 0.85394 0.0
H113 H 0.61031 0.36744 0.82918 0.0
H114 H 0.559 0.31213 0.9143 0.0
H115 H 0.59849 0.45357 0.81556 0.0
H116 H 0.59594 0.38078 0.79087 0.0
C117 C 0.90301 0.59243 0.30527 0.0
C118 C 0.92766 0.59185 0.30165 0.0
C119 C 0.89366 0.5995 0.32708 0.0
C120 C 0.90874 0.60606 0.34584 0.0
C121 C 0.93343 0.60539 0.34225 0.0
C122 C 0.94279 0.5984 0.32037 0.0
C123 C 0.89867 0.61397 0.36889 0.0
C124 C 0.87852 0.60265 0.37832 0.0
C125 C 0.86824 0.61073 0.39948 0.0
C126 C 0.87828 0.63021 0.41144 0.0
C127 C 0.89819 0.64202 0.40212 0.0
C128 C 0.90845 0.63361 0.38099 0.0
C129 C 0.90707 0.66428 0.41329 0.0
C130 C 0.89101 0.68192 0.42054 0.0
C131 C 0.93154 0.66865 0.41562 0.0
C132 C 0.93977 0.6904 0.42459 0.0
C133 C 0.92367 0.70826 0.43118 0.0
C134 C 0.846 0.59987 0.40818 0.0
C135 C 0.82606 0.59871 0.39334 0.0
C136 C 0.84428 0.59134 0.43143 0.0
C137 C 0.82291 0.58171 0.43968 0.0
C138 C 0.80286 0.58104 0.42496 0.0
C139 C 0.8046 0.58958 0.40174 0.0
C140 C 0.89922 0.70367 0.42935 0.0
H141 H 0.89089 0.58789 0.29106 0.0
H142 H 0.87456 0.60028 0.32907 0.0
H143 H 0.94553 0.61007 0.35642 0.0
H144 H 0.96187 0.59789 0.31817 0.0
H145 H 0.87075 0.58748 0.36923 0.0
H146 H 0.92331 0.64313 0.37331 0.0
H147 H 0.87009 0.63664 0.42762 0.0
H148 H 0.87206 0.6792 0.41873 0.0
H149 H 0.94432 0.65532 0.4103 0.0
H150 H 0.95872 0.6935 0.42569 0.0
H151 H 0.82697 0.60535 0.37541 0.0
H152 H 0.85948 0.59208 0.44313 0.0
H153 H 0.8864 0.71702 0.43453 0.0
H154 H 0.78935 0.58914 0.3901 0.0
H155 H 0.82187 0.57529 0.45769 0.0
C156 C 0.94324 0.92746 0.83056 0.0
C157 C 0.9376 0.95057 0.82325 0.0
C158 C 0.9368 0.91949 0.85296 0.0
C159 C 0.92504 0.93458 0.86905 0.0
C160 C 0.92028 0.95806 0.86215 0.0
C161 C 0.92635 0.96592 0.83946 0.0
C162 C 0.91656 0.92514 0.8922 0.0
C163 C 0.92933 0.90725 0.90375 0.0
C164 C 0.91959 0.89498 0.92307 0.0
C165 C 0.89758 0.90229 0.93219 0.0
C166 C 0.88502 0.92096 0.92167 0.0
C167 C 0.89453 0.93212 0.90158 0.0
C168 C 0.86112 0.92765 0.9305 0.0
C169 C 0.84446 0.91002 0.93651 0.0
C170 C 0.85455 0.95166 0.93229 0.0
C171 C 0.83172 0.95789 0.93968 0.0
C172 C 0.81495 0.94023 0.94533 0.0
C173 C 0.93117 0.87304 0.93192 0.0
C174 C 0.94197 0.85724 0.91582 0.0
C175 C 0.93026 0.86685 0.95601 0.0
C176 C 0.93935 0.84511 0.96364 0.0
C177 C 0.9498 0.82931 0.94738 0.0
C178 C 0.9513 0.83575 0.92349 0.0
C179 C 0.82165 0.91624 0.94385 0.0
H180 H 0.95242 0.91528 0.81884 0.0
H181 H 0.94045 0.90116 0.85727 0.0
H182 H 0.91157 0.97033 0.87414 0.0
H183 H 0.92161 0.98382 0.83447 0.0
H184 H 0.9467 0.90228 0.89722 0.0
H185 H 0.88405 0.94531 0.89249 0.0
H186 H 0.88979 0.89296 0.94702 0.0
H187 H 0.84886 0.89136 0.93504 0.0
H188 H 0.86707 0.96563 0.92793 0.0
H189 H 0.82704 0.97652 0.94046 0.0
H190 H 0.94249 0.861 0.89706 0.0
H191 H 0.92234 0.87868 0.96894 0.0
H192 H 0.80922 0.90223 0.94834 0.0
H193 H 0.95889 0.82372 0.91051 0.0
H194 H 0.93813 0.84059 0.98221 0.0
C195 C 0.58175 0.04269 0.34275 0.0
C196 C 0.57653 0.05828 0.32411 0.0
C197 C 0.58825 0.05158 0.36502 0.0
C198 C 0.58955 0.07621 0.36908 0.0
C199 C 0.5844 0.09174 0.35044 0.0
C200 C 0.57801 0.08289 0.32824 0.0
C201 C 0.5969 0.086 0.3924 0.0
C202 C 0.61691 0.07704 0.40404 0.0
C203 C 0.62559 0.08809 0.42471 0.0
C204 C 0.61371 0.10808 0.43385 0.0
C205 C 0.59375 0.11734 0.42233 0.0
C206 C 0.5852 0.10583 0.40193 0.0
C207 C 0.58344 0.14039 0.43007 0.0
C208 C 0.58113 0.14619 0.45422 0.0
C209 C 0.5772 0.15743 0.41312 0.0
C210 C 0.56943 0.17988 0.42009 0.0
C211 C 0.5679 0.186 0.44419 0.0
C212 C 0.64828 0.08016 0.4354 0.0
C213 C 0.65381 0.05587 0.43691 0.0
C214 C 0.66511 0.097 0.44318 0.0
C215 C 0.687 0.08978 0.452 0.0
C216 C 0.69269 0.06555 0.45311 0.0
C217 C 0.67583 0.04864 0.44561 0.0
C218 C 0.57343 0.16878 0.46121 0.0
H219 H 0.58057 0.02363 0.34019 0.0
H220 H 0.59206 0.03922 0.37911 0.0
H221 H 0.58578 0.11081 0.35285 0.0
H222 H 0.57469 0.09541 0.31416 0.0
H223 H 0.62657 0.06237 0.39617 0.0
H224 H 0.56963 0.11265 0.39308 0.0
H225 H 0.6206 0.11703 0.44943 0.0
H226 H 0.58558 0.13339 0.46771 0.0
H227 H 0.57905 0.15375 0.39437 0.0
H228 H 0.56493 0.1926 0.40653 0.0
H229 H 0.64115 0.04244 0.43128 0.0
H230 H 0.66173 0.11586 0.44177 0.0
H231 H 0.57253 0.17297 0.47992 0.0
H232 H 0.67969 0.02983 0.44645 0.0
H233 H 0.6998 0.10324 0.45724 0.0
C234 C 0.32346 0.57231 0.09786 0.0
C235 C 0.31865 0.57705 0.07401 0.0
C236 C 0.34512 0.57911 0.10786 0.0
C237 C 0.36263 0.59045 0.09411 0.0
C238 C 0.358 0.59443 0.06997 0.0
C239 C 0.33614 0.58801 0.06009 0.0
C240 C 0.38508 0.59912 0.10522 0.0
C241 C 0.39569 0.58646 0.12374 0.0
C242 C 0.41557 0.59562 0.1358 0.0
C243 C 0.42561 0.61722 0.12828 0.0
C244 C 0.41564 0.62991 0.10943 0.0
C245 C 0.39524 0.62083 0.09824 0.0
C246 C 0.42579 0.65315 0.10197 0.0
C247 C 0.43398 0.66973 0.11887 0.0
C248 C 0.4267 0.65923 0.07787 0.0
C249 C 0.43508 0.68151 0.07088 0.0
C250 C 0.44294 0.69815 0.08779 0.0
C251 C 0.42485 0.58339 0.15716 0.0
C252 C 0.40904 0.57301 0.17344 0.0
C253 C 0.44932 0.58289 0.16207 0.0
C254 C 0.45768 0.57276 0.18299 0.0
C255 C 0.44178 0.56269 0.19932 0.0
C256 C 0.41741 0.56269 0.19419 0.0
C257 C 0.44255 0.69194 0.11184 0.0
H258 H 0.31011 0.56413 0.10902 0.0
H259 H 0.34775 0.57615 0.12659 0.0
H260 H 0.37118 0.60268 0.05869 0.0
H261 H 0.33287 0.59166 0.04158 0.0
H262 H 0.38838 0.56942 0.1289 0.0
H263 H 0.38669 0.63126 0.08468 0.0
H264 H 0.44094 0.62443 0.13741 0.0
H265 H 0.43318 0.66583 0.13759 0.0
H266 H 0.42093 0.64674 0.06437 0.0
H267 H 0.43549 0.6857 0.05219 0.0
H268 H 0.39006 0.57349 0.17056 0.0
H269 H 0.46203 0.59039 0.14979 0.0
H270 H 0.44823 0.70453 0.12529 0.0
H271 H 0.4047 0.55541 0.20662 0.0
H272 H 0.47658 0.5728 0.18642 0.0
C273 C 0.09452 0.32101 0.57651 0.0
C274 C 0.0699 0.31693 0.57643 0.0
C275 C 0.10375 0.34298 0.5835 0.0
C276 C 0.08862 0.36144 0.59069 0.0
C277 C 0.06398 0.35748 0.59056 0.0
C278 C 0.0547 0.33546 0.58344 0.0
C279 C 0.09883 0.38432 0.59915 0.0
C280 C 0.11817 0.39455 0.58722 0.0
C281 C 0.13008 0.41448 0.59658 0.0
C282 C 0.12176 0.42469 0.61778 0.0
C283 C 0.10212 0.41497 0.62975 0.0
C284 C 0.09068 0.39485 0.62022 0.0
C285 C 0.09472 0.42469 0.65312 0.0
C286 C 0.11184 0.43081 0.6702 0.0
C287 C 0.07057 0.42714 0.65886 0.0
C288 C 0.06371 0.43528 0.68128 0.0
C289 C 0.08086 0.44101 0.69846 0.0
C290 C 0.15224 0.42341 0.58526 0.0
C291 C 0.16867 0.40731 0.57552 0.0
C292 C 0.15777 0.44783 0.58508 0.0
C293 C 0.17946 0.45584 0.57597 0.0
C294 C 0.1959 0.43963 0.56659 0.0
C295 C 0.19015 0.41535 0.56617 0.0
C296 C 0.105 0.43889 0.69258 0.0
H297 H 0.10679 0.30701 0.57176 0.0
H298 H 0.12284 0.34529 0.58389 0.0
H299 H 0.05189 0.37144 0.59588 0.0
H300 H 0.03563 0.33298 0.58334 0.0
H301 H 0.12417 0.3867 0.57072 0.0
H302 H 0.07627 0.38656 0.62991 0.0
H303 H 0.13099 0.43983 0.6254 0.0
H304 H 0.13059 0.42884 0.66647 0.0
H305 H 0.05697 0.4227 0.64602 0.0
H306 H 0.04497 0.43654 0.68533 0.0
H307 H 0.16534 0.38835 0.57581 0.0
H308 H 0.14542 0.46077 0.5921 0.0
H309 H 0.11865 0.44342 0.70533 0.0
H310 H 0.20268 0.40243 0.5594 0.0
H311 H 0.18343 0.47469 0.57635 0.0
O312 O 0.9935 0.06273 0.53679 0.0
Zn313 Zn 0.98092 0.02927 0.53525 0.0
O314 O 0.00112 0.00881 0.51577 0.0
Zn315 Zn 0.98351 0.99778 0.48792 0.0
Zn316 Zn 0.02907 0.02694 0.5058 0.0
Zn317 Zn 0.01089 0.9813 0.53426 0.0
O318 O 0.9821 0.96211 0.48645 0.0
O319 O 2e-05 0.95048 0.51932 0.0
O320 O 0.94764 0.03023 0.5224 0.0
O321 O 0.94968 0.00902 0.48919 0.0
O322 O 0.99847 0.00953 0.45762 0.0
O323 O 0.03001 0.02963 0.47041 0.0
O324 O 0.05943 0.01142 0.51663 0.0
O325 O 0.97922 0.01752 0.56871 0.0
O326 O 0.04639 0.97998 0.5364 0.0
O327 O 0.9982 0.98304 0.5676 0.0
C328 C 0.01267 0.0724 0.52968 0.0
C329 C 0.98904 0.9457 0.50018 0.0
C330 C 0.0169 0.02208 0.45362 0.0
C331 C 0.93791 0.02148 0.50394 0.0
C332 C 0.06337 0.9928 0.52869 0.0
C333 C 0.98647 0.99878 0.57884 0.0
O334 O 0.02815 0.06057 0.51822 0.0
O335 O 0.50238 0.05682 0.99409 0.0
Zn336 Zn 0.48838 0.02386 0.9976 0.0
O337 O 0.50898 0.00401 0.01707 0.0
Zn338 Zn 0.52131 0.97766 0.99809 0.0
Zn339 Zn 0.53558 0.02285 0.0294 0.0
Zn340 Zn 0.49054 0.99137 0.04341 0.0
O341 O 0.51127 0.94604 0.01157 0.0
O342 O 0.4872 0.95583 0.04116 0.0
O343 O 0.48387 0.00946 0.96507 0.0
O344 O 0.50883 0.97899 0.96483 0.0
O345 O 0.55692 0.97836 0.99637 0.0
O346 O 0.5669 0.00948 0.01857 0.0
O347 O 0.53601 0.0232 0.06521 0.0
O348 O 0.45609 0.02767 0.0124 0.0
O349 O 0.50654 0.99855 0.07429 0.0
O350 O 0.45805 0.00603 0.04506 0.0
C351 C 0.52048 0.0671 0.00308 0.0
C352 C 0.49715 0.94019 0.02819 0.0
C353 C 0.57263 0.99194 0.00545 0.0
C354 C 0.49372 0.99205 0.95449 0.0
C355 C 0.52382 0.01183 0.08045 0.0
C356 C 0.44678 0.01986 0.03138 0.0
O357 O 0.53433 0.05628 0.01713 0.0
O358 O 0.52927 0.50191 0.55637 0.0
Zn359 Zn 0.52554 0.51544 0.52357 0.0
O360 O 0.50538 0.49496 0.50389 0.0
Zn361 Zn 0.52427 0.48111 0.47828 0.0
Zn362 Zn 0.49199 0.4695 0.52323 0.0
Zn363 Zn 0.47969 0.51382 0.49055 0.0
O364 O 0.51164 0.49074 0.44634 0.0
O365 O 0.48171 0.51481 0.45498 0.0
O366 O 0.55815 0.51885 0.50932 0.0
O367 O 0.55826 0.49225 0.48004 0.0
O368 O 0.52411 0.44543 0.47967 0.0
O369 O 0.50098 0.4373 0.51041 0.0
O370 O 0.45633 0.47111 0.52425 0.0
O371 O 0.51164 0.54815 0.52704 0.0
O372 O 0.44779 0.50028 0.49947 0.0
O373 O 0.48039 0.54737 0.50321 0.0
C374 C 0.5195 0.48451 0.56699 0.0
C375 C 0.49499 0.50447 0.43987 0.0
C376 C 0.514 0.4305 0.49325 0.0
C377 C 0.5688 0.50784 0.49269 0.0
C378 C 0.44124 0.48384 0.51345 0.0
C379 C 0.49384 0.55834 0.51776 0.0
O380 O 0.50451 0.47112 0.5565 0.0
O381 O 0.98857 0.51611 0.05419 0.0
Zn382 Zn 0.99075 0.5016 0.02159 0.0
O383 O 0.012 0.52017 0.00132 0.0
Zn384 Zn 0.99412 0.53268 0.97442 0.0
Zn385 Zn 0.02548 0.54663 0.01945 0.0
Zn386 Zn 0.03779 0.49988 0.99002 0.0
O387 O 0.00814 0.52126 0.94351 0.0
O388 O 0.03734 0.49736 0.95445 0.0
O389 O 0.95777 0.49971 0.0079 0.0
O390 O 0.96013 0.52137 0.97528 0.0
O391 O 0.99379 0.56864 0.9746 0.0
O392 O 0.01575 0.57785 0.00593 0.0
O393 O 0.06112 0.54599 0.0193 0.0
O394 O 0.00267 0.46816 0.02561 0.0
O395 O 0.0698 0.51279 -0.00025 0.0
O396 O 0.03524 0.46699 0.00353 0.0
C397 C 0.99921 0.53338 0.06436 0.0
C398 C 0.02492 0.50702 0.93837 0.0
C399 C 0.00325 0.58405 0.98831 0.0
C400 C 0.94825 0.50845 0.98949 0.0
C401 C 0.07622 0.53138 0.01103 0.0
C402 C 0.02053 0.45699 0.01744 0.0
O403 O 0.01419 0.54618 0.05327 0.0
H404 H 0.05203 0.11614 0.24922 0.0
H405 H 0.03757 0.10102 0.28714 0.0
H406 H 0.08704 0.04292 0.28259 0.0
H407 H 0.10163 0.05798 0.24474 0.0
H408 H 0.01766 0.06067 0.30323 0.0
H409 H 0.11082 0.03407 0.33692 0.0
H410 H 0.15275 0.04533 0.33073 0.0
H411 H 0.13154 0.11518 0.30946 0.0
H412 H 0.08956 0.10445 0.31585 0.0
H413 H 0.00381 0.99949 0.41253 0.0
H414 H 0.01442 0.01062 0.37203 0.0
H415 H 0.05332 0.0713 0.39893 0.0
H416 H 0.04373 0.05964 0.4393 0.0
H417 H 0.0779 0.05232 0.36655 0.0
H418 H 0.99595 0.07485 0.3725 0.0
H419 H 0.95327 0.0686 0.38012 0.0
H420 H 0.95048 0.01591 0.32486 0.0
H421 H 0.99322 0.02166 0.31711 0.0
C422 C 0.05952 0.09991 0.2561 0.0
C423 C 0.07814 0.08838 0.24415 0.0
C424 C 0.05125 0.0913 0.27777 0.0
C425 C 0.06148 0.07106 0.28784 0.0
C426 C 0.0792 0.05882 0.27533 0.0
C427 C 0.08755 0.06747 0.25376 0.0
C428 C 0.05471 0.06363 0.31206 0.0
C429 C 0.0308 0.05876 0.31709 0.0
C430 C 0.07181 0.06163 0.33025 0.0
C431 C 0.09704 0.06834 0.3266 0.0
C432 C 0.11513 0.05184 0.33099 0.0
C433 C 0.1389 0.05814 0.32744 0.0
C434 C 0.1448 0.08092 0.31962 0.0
C435 C 0.12695 0.0975 0.31542 0.0
C436 C 0.10316 0.09131 0.31898 0.0
C437 C 0.01462 0.01519 0.40975 0.0
C438 C 0.02297 0.02868 0.42907 0.0
C439 C 0.02057 0.02162 0.3866 0.0
C440 C 0.03443 0.04199 0.38235 0.0
C441 C 0.04269 0.05545 0.40169 0.0
C442 C 0.03717 0.04879 0.42479 0.0
C443 C 0.04075 0.04926 0.35789 0.0
C444 C 0.06468 0.05407 0.35274 0.0
C445 C 0.02354 0.0519 0.33985 0.0
C446 C 0.99782 0.04852 0.34438 0.0
C447 C 0.98626 0.06183 0.36208 0.0
C448 C 0.96206 0.05839 0.36641 0.0
C449 C 0.94919 0.04182 0.35302 0.0
C450 C 0.96048 0.02871 0.33523 0.0
C451 C 0.98468 0.03207 0.33085 0.0
H452 H 0.93045 0.03918 0.35641 0.0
H453 H 0.16321 0.08575 0.31687 0.0
H454 H 0.39252 0.90832 0.77078 0.0
H455 H 0.40761 0.92463 0.80802 0.0
H456 H 0.47177 0.94703 0.77297 0.0
H457 H 0.45637 0.93213 0.73522 0.0
H458 H 0.46545 0.91309 0.82486 0.0
H459 H 0.4568 0.98955 0.7812 0.0
H460 H 0.43261 0.01624 0.75667 0.0
H461 H 0.37678 0.0141 0.80844 0.0
H462 H 0.40056 0.98709 0.83309 0.0
H463 H 0.52109 0.97159 0.92031 0.0
H464 H 0.50911 0.95973 0.88039 0.0
H465 H 0.43847 0.98596 0.89398 0.0
H466 H 0.45088 0.99917 0.93341 0.0
H467 H 0.44835 0.99546 0.85153 0.0
H468 H 0.4546 0.92449 0.89713 0.0
H469 H 0.4737 0.89529 0.9232 0.0
H470 H 0.52765 0.88304 0.87084 0.0
H471 H 0.50903 0.9124 0.84457 0.0
C472 C 0.40966 0.9171 0.77077 0.0
C473 C 0.42312 0.919 0.74983 0.0
C474 C 0.41831 0.9262 0.79214 0.0
C475 C 0.44066 0.93711 0.79306 0.0
C476 C 0.45439 0.93873 0.77246 0.0
C477 C 0.44562 0.92999 0.75096 0.0
C478 C 0.4497 0.9465 0.81575 0.0
C479 C 0.46216 0.93121 0.83063 0.0
C480 C 0.44443 0.96976 0.82347 0.0
C481 C 0.4303 0.98611 0.80879 0.0
C482 C 0.43926 0.99458 0.7872 0.0
C483 C 0.42566 0.00981 0.77332 0.0
C484 C 0.40314 0.0168 0.78095 0.0
C485 C 0.39421 0.00864 0.80253 0.0
C486 C 0.40774 0.99338 0.81646 0.0
C487 C 0.50306 0.97498 0.91467 0.0
C488 C 0.48685 0.98614 0.92996 0.0
C489 C 0.49617 0.96805 0.89191 0.0
C490 C 0.47269 0.97136 0.88432 0.0
C491 C 0.45666 0.98312 0.8994 0.0
C492 C 0.46374 0.99064 0.92194 0.0
C493 C 0.4647 0.96219 0.86088 0.0
C494 C 0.4521 0.97741 0.84586 0.0
C495 C 0.46939 0.93858 0.85329 0.0
C496 C 0.48055 0.92082 0.86899 0.0
C497 C 0.47062 0.91568 0.89124 0.0
C498 C 0.48135 0.89909 0.90604 0.0
C499 C 0.50191 0.88737 0.89871 0.0
C500 C 0.51174 0.89216 0.87651 0.0
C501 C 0.5011 0.90876 0.86165 0.0
H502 H 0.51019 0.87453 0.91019 0.0
H503 H 0.39263 0.02859 0.77018 0.0
H504 H 0.56087 0.39842 0.77303 0.0
H505 H 0.54754 0.41089 0.73393 0.0
H506 H 0.59795 0.46881 0.73526 0.0
H507 H 0.6115 0.45635 0.77438 0.0
H508 H 0.55514 0.48293 0.71865 0.0
H509 H 0.60951 0.41935 0.70342 0.0
H510 H 0.62591 0.37906 0.70763 0.0
H511 H 0.56071 0.34884 0.68186 0.0
H512 H 0.54378 0.38895 0.67781 0.0
H513 H 0.55168 0.50811 0.59505 0.0
H514 H 0.56384 0.49806 0.63525 0.0
H515 H 0.51468 0.43907 0.63528 0.0
H516 H 0.50262 0.44874 0.59503 0.0
H517 H 0.55739 0.426 0.65125 0.0
H518 H 0.50299 0.48971 0.66649 0.0
H519 H 0.48672 0.53004 0.66221 0.0
H520 H 0.5521 0.5601 0.68772 0.0
H521 H 0.56889 0.51994 0.69184 0.0
C522 C 0.56924 0.41372 0.76495 0.0
C523 C 0.58736 0.4263 0.77675 0.0
C524 C 0.56156 0.42086 0.74262 0.0
C525 C 0.57196 0.4406 0.73156 0.0
C526 C 0.58969 0.45352 0.74349 0.0
C527 C 0.59736 0.44641 0.76586 0.0
C528 C 0.56453 0.44755 0.70742 0.0
C529 C 0.55591 0.4706 0.70382 0.0
C530 C 0.56513 0.4313 0.68821 0.0
C531 C 0.5753 0.40715 0.69053 0.0
C532 C 0.5986 0.4041 0.69883 0.0
C533 C 0.608 0.3813 0.70115 0.0
C534 C 0.59434 0.3614 0.69508 0.0
C535 C 0.57126 0.36427 0.6866 0.0
C536 C 0.56176 0.38703 0.68426 0.0
C537 C 0.54334 0.49307 0.60364 0.0
C538 C 0.52617 0.47923 0.59177 0.0
C539 C 0.55026 0.48741 0.62667 0.0
C540 C 0.54004 0.46792 0.63833 0.0
C541 C 0.52281 0.45418 0.6266 0.0
C542 C 0.51589 0.4598 0.6036 0.0
C543 C 0.54782 0.46133 0.66247 0.0
C544 C 0.55658 0.43834 0.66606 0.0
C545 C 0.54736 0.47766 0.68164 0.0
C546 C 0.53728 0.50182 0.67925 0.0
C547 C 0.51397 0.50493 0.671 0.0
C548 C 0.50464 0.52776 0.66864 0.0
C549 C 0.51839 0.54762 0.67463 0.0
C550 C 0.54148 0.5447 0.68305 0.0
C551 C 0.55091 0.5219 0.68543 0.0
H552 H 0.51113 0.56528 0.67278 0.0
H553 H 0.60165 0.34376 0.69689 0.0
H554 H 0.9638 0.61301 0.27707 0.0
H555 H 0.9786 0.60243 0.23766 0.0
H556 H 0.9281 0.54468 0.23377 0.0
H557 H 0.91357 0.55483 0.27337 0.0
H558 H 0.97187 0.53168 0.21727 0.0
H559 H 0.91677 0.59578 0.20626 0.0
H560 H 0.90048 0.63583 0.21312 0.0
H561 H 0.96571 0.66714 0.18893 0.0
H562 H 0.98251 0.62724 0.18224 0.0
H563 H 0.96814 0.51032 0.09371 0.0
H564 H 0.9588 0.51989 0.13485 0.0
H565 H 0.00881 0.57815 0.13326 0.0
H566 H 0.01808 0.56893 0.09196 0.0
H567 H 0.96761 0.59135 0.15315 0.0
H568 H 0.02211 0.52723 0.16214 0.0
H569 H 0.03829 0.48719 0.15505 0.0
H570 H 0.97454 0.45588 0.18285 0.0
H571 H 0.95783 0.49575 0.18981 0.0
C572 C 0.95607 0.59787 0.26795 0.0
C573 C 0.93744 0.58482 0.27825 0.0
C574 C 0.96442 0.59196 0.24537 0.0
C575 C 0.95425 0.57294 0.23271 0.0
C576 C 0.93613 0.55947 0.24323 0.0
C577 C 0.92772 0.56541 0.26575 0.0
C578 C 0.96204 0.56742 0.20825 0.0
C579 C 0.97075 0.54463 0.20318 0.0
C580 C 0.96107 0.58453 0.19004 0.0
C581 C 0.95099 0.60853 0.19401 0.0
C582 C 0.92771 0.6112 0.2026 0.0
C583 C 0.91837 0.63387 0.20642 0.0
C584 C 0.93208 0.65402 0.20153 0.0
C585 C 0.95513 0.65153 0.19275 0.0
C586 C 0.96457 0.62889 0.18893 0.0
C587 C 0.97725 0.52513 0.10209 0.0
C588 C 0.99389 0.53884 0.0895 0.0
C589 C 0.97195 0.5305 0.12567 0.0
C590 C 0.98331 0.54957 0.1372 0.0
C591 C -0.00012 0.56332 0.1247 0.0
C592 C 0.00519 0.55798 0.1011 0.0
C593 C 0.97734 0.55554 0.16209 0.0
C594 C 0.96893 0.57843 0.16725 0.0
C595 C 0.97861 0.53852 0.18037 0.0
C596 C 0.98864 0.51449 0.1763 0.0
C597 C 0.01146 0.51181 0.16657 0.0
C598 C 0.02074 0.48914 0.16261 0.0
C599 C 0.00743 0.469 0.16844 0.0
C600 C 0.98482 0.47149 0.17831 0.0
C601 C 0.97545 0.49413 0.1823 0.0
H602 H 0.01464 0.45146 0.16535 0.0
H603 H 0.92482 0.67156 0.20449 0.0
H604 H 0.26274 0.1084 0.12987 0.0
H605 H 0.30031 0.09273 0.11586 0.0
H606 H 0.26892 0.07704 0.04788 0.0
H607 H 0.23058 0.09068 0.06248 0.0
H608 H 0.29534 0.04253 0.05853 0.0
H609 H 0.30797 0.12615 0.05848 0.0
H610 H 0.30847 0.16713 0.07418 0.0
H611 H 0.35821 0.14679 0.12776 0.0
H612 H 0.35777 0.10559 0.11258 0.0
H613 H 0.4116 0.03568 0.00231 0.0
H614 H 0.37233 0.05038 0.01393 0.0
H615 H 0.38886 0.03769 0.08722 0.0
H616 H 0.42786 0.02234 0.07578 0.0
H617 H 0.37039 0.08721 0.07144 0.0
H618 H 0.35487 0.00191 0.06973 0.0
H619 H 0.35468 0.96249 0.05042 0.0
H620 H 0.31048 0.98922 0.99488 0.0
H621 H 0.31071 0.02892 0.0137 0.0
C622 C 0.26359 0.10128 0.11205 0.0
C623 C 0.24341 0.10081 0.09739 0.0
C624 C 0.28532 0.0927 0.10389 0.0
C625 C 0.28767 0.08413 0.08062 0.0
C626 C 0.26763 0.08367 0.06587 0.0
C627 C 0.24573 0.0918 0.07419 0.0
C628 C 0.31088 0.07507 0.07194 0.0
C629 C 0.31165 0.05254 0.06107 0.0
C630 C 0.33232 0.08795 0.07531 0.0
C631 C 0.33267 0.11272 0.0845 0.0
C632 C 0.31888 0.13037 0.07371 0.0
C633 C 0.31918 0.15365 0.0825 0.0
C634 C 0.33332 0.15955 0.10198 0.0
C635 C 0.34725 0.14219 0.11268 0.0
C636 C 0.347 0.11888 0.10398 0.0
C637 C 0.40679 0.03588 0.02089 0.0
C638 C 0.42276 0.02783 0.03815 0.0
C639 C 0.38441 0.04424 0.02746 0.0
C640 C 0.37785 0.04508 0.05139 0.0
C641 C 0.3937 0.03712 0.06866 0.0
C642 C 0.41588 0.02827 0.06208 0.0
C643 C 0.35461 0.0548 0.05848 0.0
C644 C 0.35394 0.07742 0.06892 0.0
C645 C 0.33326 0.0423 0.05421 0.0
C646 C 0.33306 0.01844 0.04296 0.0
C647 C 0.34533 0.99944 0.05326 0.0
C648 C 0.34516 0.97703 0.04244 0.0
C649 C 0.33264 0.97337 0.02139 0.0
C650 C 0.32021 0.99209 0.01116 0.0
C651 C 0.32034 0.01455 0.02191 0.0
H652 H 0.33253 0.956 0.01304 0.0
H653 H 0.33353 0.17758 0.10876 0.0
H654 H 0.24832 0.8978 0.60982 0.0
H655 H 0.21108 0.91273 0.59378 0.0
H656 H 0.24995 0.96132 0.54929 0.0
H657 H 0.28745 0.94655 0.56553 0.0
H658 H 0.21197 0.98254 0.57319 0.0
H659 H 0.22573 0.91453 0.52421 0.0
H660 H 0.23523 0.87266 0.51552 0.0
H661 H 0.17327 0.8501 0.55373 0.0
H662 H 0.16357 0.89184 0.56296 0.0
H663 H 0.10472 0.01341 0.51292 0.0
H664 H 0.14538 0.00087 0.52121 0.0
H665 H 0.11859 0.94376 0.56442 0.0
H666 H 0.07806 0.95582 0.55596 0.0
H667 H 0.15291 0.92829 0.53614 0.0
H668 H 0.14149 0.99518 0.5888 0.0
H669 H 0.132 0.03674 0.59897 0.0
H670 H 0.18936 0.06107 0.55511 0.0
H671 H 0.19899 0.01962 0.54443 0.0
C672 C 0.24894 0.91173 0.59669 0.0
C673 C 0.27077 0.92106 0.58895 0.0
C674 C 0.22768 0.92011 0.58741 0.0
C675 C 0.2278 0.93798 0.57021 0.0
C676 C 0.24953 0.94746 0.5625 0.0
C677 C 0.27088 0.93893 0.57166 0.0
C678 C 0.20507 0.94693 0.56077 0.0
C679 C 0.19921 0.97083 0.56465 0.0
C680 C 0.18833 0.93148 0.55004 0.0
C681 C 0.19403 0.90634 0.54442 0.0
C682 C 0.21423 0.90064 0.53092 0.0
C683 C 0.21963 0.87693 0.52587 0.0
C684 C 0.20489 0.85873 0.5341 0.0
C685 C 0.18468 0.86422 0.54737 0.0
C686 C 0.1792 0.88791 0.55249 0.0
C687 C 0.10748 0.9982 0.52421 0.0
C688 C 0.0881 0.98565 0.5338 0.0
C689 C 0.13074 0.9911 0.52898 0.0
C690 C 0.13502 0.97147 0.54357 0.0
C691 C 0.11571 0.95891 0.55306 0.0
C692 C 0.09252 0.96591 0.54825 0.0
C693 C 0.15953 0.96381 0.54906 0.0
C694 C 0.16576 0.94012 0.54439 0.0
C695 C 0.17654 0.97943 0.55919 0.0
C696 C 0.17077 0.00433 0.56559 0.0
C697 C 0.15194 0.0094 0.58116 0.0
C698 C 0.14657 0.03294 0.58705 0.0
C699 C 0.16002 0.05154 0.57763 0.0
C700 C 0.17892 0.04664 0.56235 0.0
C701 C 0.18436 0.02314 0.55639 0.0
H702 H 0.15584 0.06975 0.58222 0.0
H703 H 0.2091 0.84038 0.53017 0.0
H704 H 0.73824 0.46648 0.90678 0.0
H705 H 0.77702 0.48251 0.91816 0.0
H706 H 0.7772 0.4378 0.97988 0.0
H707 H 0.73814 0.42207 0.9689 0.0
H708 H 0.79411 0.48271 0.98964 0.0
H709 H 0.80709 0.42107 0.93163 0.0
H710 H 0.80162 0.40075 0.89321 0.0
H711 H 0.8281 0.46232 0.85705 0.0
H712 H 0.83341 0.48315 0.89527 0.0
H713 H 0.91741 0.48089 0.01506 0.0
H714 H 0.87627 0.47102 0.00558 0.0
H715 H 0.88059 0.51401 0.94277 0.0
H716 H 0.92187 0.52374 0.95191 0.0
H717 H 0.86081 0.47185 0.93321 0.0
H718 H 0.84972 0.53297 0.99132 0.0
H719 H 0.85524 0.5533 0.02972 0.0
H720 H 0.82536 0.49318 0.0657 0.0
H721 H 0.81997 0.47233 0.02752 0.0
C722 C 0.74634 0.46036 0.92299 0.0
C723 C 0.73519 0.44291 0.93688 0.0
C724 C 0.76858 0.4694 0.92937 0.0
C725 C 0.7801 0.46111 0.9497 0.0
C726 C 0.76864 0.44436 0.96407 0.0
C727 C 0.74643 0.43526 0.95768 0.0
C728 C 0.80452 0.46917 0.95546 0.0
C729 C 0.80876 0.48014 0.97743 0.0
C730 C 0.82349 0.46628 0.93927 0.0
C731 C 0.8204 0.45375 0.91629 0.0
C732 C 0.81156 0.43035 0.91547 0.0
C733 C 0.80852 0.41872 0.89373 0.0
C734 C 0.81444 0.43026 0.8727 0.0
C735 C 0.82348 0.45342 0.87336 0.0
C736 C 0.82652 0.46514 0.89505 0.0
C737 C 0.90961 0.48837 0.99928 0.0
C738 C 0.923 0.50312 0.98425 0.0
C739 C 0.88603 0.48279 0.99395 0.0
C740 C 0.87527 0.49197 0.97359 0.0
C741 C 0.88853 0.50676 0.95859 0.0
C742 C 0.91213 0.51233 0.96389 0.0
C743 C 0.85049 0.48539 0.96745 0.0
C744 C 0.84616 0.47461 0.9454 0.0
C745 C 0.83147 0.48849 0.98357 0.0
C746 C 0.83464 0.501 0.00657 0.0
C747 C 0.8445 0.524 0.00744 0.0
C748 C 0.84758 0.53563 0.02916 0.0
C749 C 0.84071 0.52452 0.05014 0.0
C750 C 0.8307 0.50176 0.04943 0.0
C751 C 0.8276 0.49003 0.02775 0.0
H752 H 0.8431 0.53356 0.06694 0.0
H753 H 0.81208 0.42123 0.85588 0.0
H754 H 0.76089 0.60438 0.42637 0.0
H755 H 0.7225 0.58929 0.44052 0.0
H756 H 0.7547 0.52205 0.45691 0.0
H757 H 0.79339 0.53736 0.44341 0.0
H758 H 0.70673 0.52715 0.42467 0.0
H759 H 0.74514 0.54289 0.50065 0.0
H760 H 0.76742 0.5685 0.52846 0.0
H761 H 0.71257 0.62105 0.52513 0.0
H762 H 0.69014 0.59588 0.49698 0.0
H763 H 0.60309 0.47813 0.47599 0.0
H764 H 0.64442 0.48802 0.46703 0.0
H765 H 0.63167 0.56093 0.48752 0.0
H766 H 0.59084 0.55065 0.498 0.0
H767 H 0.67213 0.55058 0.50214 0.0
H768 H 0.63413 0.53944 0.42693 0.0
H769 H 0.61091 0.51829 0.39632 0.0
H770 H 0.66277 0.46268 0.39425 0.0
H771 H 0.68616 0.48337 0.42507 0.0
C772 C 0.75973 0.58643 0.43309 0.0
C773 C 0.77994 0.57197 0.43388 0.0
C774 C 0.73791 0.57787 0.44116 0.0
C775 C 0.73593 0.55464 0.44973 0.0
C776 C 0.75603 0.54007 0.45038 0.0
C777 C 0.77801 0.5488 0.44278 0.0
C778 C 0.71263 0.54561 0.45758 0.0
C779 C 0.69922 0.53181 0.44177 0.0
C780 C 0.70273 0.55258 0.47948 0.0
C781 C 0.71611 0.56762 0.49652 0.0
C782 C 0.73796 0.56001 0.50566 0.0
C783 C 0.75058 0.57442 0.52152 0.0
C784 C 0.74145 0.59642 0.5285 0.0
C785 C 0.71964 0.60402 0.51968 0.0
C786 C 0.70696 0.58968 0.50379 0.0
C787 C 0.60921 0.49623 0.47865 0.0
C788 C 0.59381 0.51367 0.48757 0.0
C789 C 0.63279 0.50192 0.47338 0.0
C790 C 0.64114 0.52537 0.47606 0.0
C791 C 0.62575 0.54271 0.48528 0.0
C792 C 0.60239 0.53686 0.4912 0.0
C793 C 0.66579 0.53197 0.46918 0.0
C794 C 0.67953 0.54552 0.48511 0.0
C795 C 0.67575 0.52527 0.44706 0.0
C796 C 0.66175 0.51282 0.42849 0.0
C797 C 0.64049 0.52262 0.42006 0.0
C798 C 0.62731 0.51073 0.40266 0.0
C799 C 0.63532 0.48912 0.3934 0.0
C800 C 0.65657 0.4794 0.40147 0.0
C801 C 0.6698 0.49121 0.41889 0.0
H802 H 0.6251 0.47994 0.37993 0.0
H803 H 0.75125 0.60756 0.54079 0.0
H804 H 0.10624 0.27691 0.11863 0.0
H805 H 0.09036 0.31365 0.10247 0.0
H806 H 0.04048 0.27323 0.0604 0.0
H807 H 0.05698 0.23631 0.0757 0.0
H808 H 0.05955 0.30704 0.03468 0.0
H809 H 0.02266 0.30315 0.1105 0.0
H810 H 0.02059 0.29887 0.15387 0.0
H811 H 0.06377 0.36137 0.16275 0.0
H812 H 0.06639 0.36583 0.11942 0.0
H813 H 0.99206 0.42879 0.04498 0.0
H814 H 0.00031 0.38868 0.05902 0.0
H815 H 0.06729 0.38942 0.02194 0.0
H816 H 0.059 0.42922 0.00743 0.0
H817 H 0.03404 0.37342 0.08689 0.0
H818 H 0.08225 0.33425 0.00446 0.0
H819 H 0.08068 0.33737 0.96096 0.0
H820 H 0.0077 0.35859 0.96497 0.0
H821 H 0.00873 0.35528 0.00845 0.0
C822 C 0.09202 0.27579 0.10578 0.0
C823 C 0.08289 0.25364 0.09847 0.0
C824 C 0.08277 0.29684 0.09676 0.0
C825 C 0.06401 0.29621 0.08045 0.0
C826 C 0.05488 0.27414 0.07304 0.0
C827 C 0.0642 0.25306 0.08198 0.0
C828 C 0.05431 0.31859 0.07074 0.0
C829 C 0.05389 0.32153 0.04609 0.0
C830 C 0.04643 0.3373 0.08561 0.0
C831 C 0.04487 0.33471 0.1117 0.0
C832 C 0.03186 0.31588 0.1217 0.0
C833 C 0.03057 0.31344 0.14627 0.0
C834 C 0.04208 0.32981 0.16105 0.0
C835 C 0.05487 0.34869 0.15128 0.0
C836 C 0.05625 0.3512 0.12671 0.0
C837 C 0.00845 0.42034 0.03962 0.0
C838 C 0.02485 0.43224 0.02504 0.0
C839 C 0.01316 0.39743 0.04772 0.0
C840 C 0.03431 0.38596 0.04138 0.0
C841 C 0.05064 0.39773 0.02672 0.0
C842 C 0.04591 0.42056 0.01851 0.0
C843 C 0.03983 0.36208 0.05085 0.0
C844 C 0.03952 0.35888 0.07547 0.0
C845 C 0.04652 0.34295 0.03593 0.0
C846 C 0.04565 0.34471 0.00974 0.0
C847 C 0.06583 0.33947 0.99606 0.0
C848 C 0.06504 0.3413 0.9714 0.0
C849 C 0.04412 0.34824 0.96021 0.0
C850 C 0.02392 0.3533 0.97366 0.0
C851 C 0.02461 0.35148 0.99831 0.0
H852 H 0.04356 0.34966 0.94113 0.0
H853 H 0.04105 0.32789 0.18008 0.0
H854 H 0.61639 0.25827 0.93038 0.0
H855 H 0.60196 0.21989 0.94361 0.0
H856 H 0.53321 0.25015 0.95806 0.0
H857 H 0.54815 0.28926 0.94678 0.0
H858 H 0.54248 0.22096 0.99103 0.0
H859 H 0.54523 0.21483 0.90727 0.0
H860 H 0.56217 0.21775 0.86712 0.0
H861 H 0.61563 0.16691 0.88514 0.0
H862 H 0.59921 0.16393 0.92552 0.0
H863 H 0.49001 0.10119 0.98717 0.0
H864 H 0.49997 0.14196 0.97527 0.0
H865 H 0.57356 0.12926 0.99121 0.0
H866 H 0.56376 0.08884 0.00376 0.0
H867 H 0.55787 0.14949 0.94154 0.0
H868 H 0.55378 0.15952 0.02766 0.0
H869 H 0.53315 0.15646 0.06605 0.0
H870 H 0.47669 0.2 0.04 0.0
H871 H 0.49685 0.20301 0.0013 0.0
C872 C 0.59832 0.25702 0.9368 0.0
C873 C 0.58349 0.27707 0.93745 0.0
C874 C 0.58994 0.23484 0.94398 0.0
C875 C 0.56629 0.23191 0.9513 0.0
C876 C 0.55148 0.25187 0.95229 0.0
C877 C 0.56 0.27422 0.94554 0.0
C878 C 0.55725 0.20803 0.95813 0.0
C879 C 0.54556 0.20544 0.97997 0.0
C880 C 0.56117 0.18763 0.94379 0.0
C881 C 0.57109 0.18931 0.9195 0.0
C882 C 0.5607 0.2044 0.90273 0.0
C883 C 0.57019 0.20604 0.87992 0.0
C884 C 0.58999 0.19256 0.8736 0.0
C885 C 0.60031 0.17735 0.89007 0.0
C886 C 0.5909 0.17566 0.91291 0.0
C887 C 0.50828 0.10715 0.98825 0.0
C888 C 0.52611 0.09186 0.99642 0.0
C889 C 0.5139 0.13039 0.9815 0.0
C890 C 0.53746 0.13847 0.98243 0.0
C891 C 0.55528 0.12326 0.99045 0.0
C892 C 0.54962 0.10024 0.99768 0.0
C893 C 0.54374 0.16262 0.97445 0.0
C894 C 0.55475 0.16516 0.95237 0.0
C895 C 0.5387 0.18297 0.98826 0.0
C896 C 0.52666 0.18122 0.01151 0.0
C897 C 0.53684 0.16821 0.03003 0.0
C898 C 0.52527 0.16654 0.05187 0.0
C899 C 0.50358 0.17795 0.05543 0.0
C900 C 0.49346 0.19112 0.03719 0.0
C901 C 0.50496 0.19283 0.01531 0.0
H902 H 0.49465 0.17665 0.07235 0.0
H903 H 0.59732 0.19386 0.85594 0.0
H904 H 0.95924 0.71865 0.4627 0.0
H905 H 0.97322 0.75813 0.47523 0.0
H906 H 0.92143 0.79071 0.4298 0.0
H907 H 0.90763 0.75145 0.41702 0.0
H908 H 0.96589 0.81104 0.42568 0.0
H909 H 0.91151 0.78776 0.48789 0.0
H910 H 0.89658 0.76142 0.51934 0.0
H911 H 0.96259 0.76872 0.55661 0.0
H912 H 0.97803 0.79487 0.52518 0.0
H913 H 0.95937 0.92903 0.46563 0.0
H914 H 0.95118 0.88779 0.4549 0.0
H915 H -0.00038 0.86421 0.50885 0.0
H916 H 0.00743 0.90556 0.5202 0.0
H917 H 0.96106 0.83779 0.5094 0.0
H918 H 0.01492 0.86301 0.44939 0.0
H919 H 0.03079 0.88903 0.41813 0.0
H920 H 0.96789 0.87747 0.37675 0.0
H921 H 0.95149 0.85163 0.40791 0.0
C922 C 0.95094 0.73425 0.45533 0.0
C923 C 0.93225 0.73199 0.439 0.0
C924 C 0.95884 0.75675 0.46259 0.0
C925 C 0.94824 0.7773 0.45354 0.0
C926 C 0.92981 0.77506 0.43701 0.0
C927 C 0.92182 0.75263 0.42989 0.0
C928 C 0.95621 0.80126 0.46118 0.0
C929 C 0.96468 0.81699 0.44394 0.0
C930 C 0.95533 0.80868 0.48513 0.0
C931 C 0.94602 0.79304 0.50405 0.0
C932 C 0.92291 0.78358 0.50269 0.0
C933 C 0.91434 0.76872 0.52053 0.0
C934 C 0.92865 0.76334 0.53993 0.0
C935 C 0.95154 0.77287 0.54155 0.0
C936 C 0.9602 0.78772 0.52374 0.0
C937 C 0.96836 0.91511 0.4752 0.0
C938 C 0.98416 0.92061 0.4937 0.0
C939 C 0.96373 0.89151 0.46896 0.0
C940 C 0.97512 0.87289 0.48077 0.0
C941 C 0.9907 0.87829 0.49942 0.0
C942 C 0.99517 0.90193 0.50586 0.0
C943 C 0.97037 0.84784 0.4738 0.0
C944 C 0.96254 0.83184 0.49115 0.0
C945 C 0.97204 0.84009 0.44995 0.0
C946 C 0.9819 0.85552 0.43108 0.0
C947 C 0.0044 0.86614 0.43369 0.0
C948 C 0.0135 0.88084 0.41598 0.0
C949 C 0.00034 0.88494 0.39549 0.0
C950 C 0.97807 0.87429 0.39264 0.0
C951 C 0.96887 0.85959 0.41031 0.0
H952 H 0.00741 0.89633 0.38179 0.0
H953 H 0.92198 0.75184 0.55373 0.0
H954 H 0.39788 0.74096 0.609 0.0
H955 H 0.41394 0.70365 0.59375 0.0
H956 H 0.46969 0.7422 0.55807 0.0
H957 H 0.45324 0.77972 0.57262 0.0
H958 H 0.45167 0.70825 0.5299 0.0
H959 H 0.48112 0.71311 0.60905 0.0
H960 H 0.47867 0.71821 0.65236 0.0
H961 H 0.43358 0.65669 0.65708 0.0
H962 H 0.43549 0.65141 0.61374 0.0
H963 H 0.51895 0.58784 0.54733 0.0
H964 H 0.50854 0.628 0.56014 0.0
H965 H 0.44524 0.62485 0.51738 0.0
H966 H 0.45567 0.58487 0.50416 0.0
H967 H 0.47149 0.6428 0.58476 0.0
H968 H 0.43156 0.68001 0.49801 0.0
H969 H 0.4372 0.67591 0.45487 0.0
H970 H 0.50961 0.65529 0.46563 0.0
H971 H 0.50451 0.65958 0.5088 0.0
C972 C 0.41341 0.74154 0.5977 0.0
C973 C 0.4243 0.76332 0.59204 0.0
C974 C 0.42271 0.72018 0.5892 0.0
C975 C 0.44318 0.72013 0.57501 0.0
C976 C 0.45393 0.74183 0.56907 0.0
C977 C 0.44463 0.76323 0.57756 0.0
C978 C 0.45329 0.6974 0.56635 0.0
C979 C 0.45605 0.69394 0.54188 0.0
C980 C 0.45943 0.67892 0.58203 0.0
C981 C 0.45829 0.68199 0.60812 0.0
C982 C 0.47054 0.70078 0.6193 0.0
C983 C 0.46927 0.70368 0.64386 0.0
C984 C 0.45594 0.68782 0.65746 0.0
C985 C 0.44388 0.66898 0.64652 0.0
C986 C 0.44507 0.66601 0.62196 0.0
C987 C 0.50291 0.59574 0.54048 0.0
C988 C 0.48816 0.58311 0.52469 0.0
C989 C 0.49696 0.61868 0.54788 0.0
C990 C 0.47621 0.62949 0.53959 0.0
C991 C 0.46154 0.61702 0.52371 0.0
C992 C 0.4675 0.5941 0.51624 0.0
C993 C 0.46942 0.65345 0.54827 0.0
C994 C 0.46722 0.65713 0.57276 0.0
C995 C 0.46423 0.67226 0.53263 0.0
C996 C 0.46757 0.66992 0.50666 0.0
C997 C 0.44871 0.6747 0.49116 0.0
C998 C 0.45181 0.67232 0.4667 0.0
C999 C 0.47372 0.66528 0.45752 0.0
C1000 C 0.49262 0.66067 0.47277 0.0
C1001 C 0.48962 0.66304 0.49724 0.0
H1002 H 0.47608 0.66343 0.43858 0.0
H1003 H 0.45498 0.6901 0.67647 0.0
H1004 H 0.93481 0.92362 0.78282 0.0
H1005 H 0.9448 0.93519 0.74256 0.0
H1006 H 0.96035 0.00641 0.76655 0.0
H1007 H 0.95168 0.99473 0.80741 0.0
H1008 H 0.92797 0.99862 0.72284 0.0
H1009 H 0.00487 0.98071 0.75569 0.0
H1010 H 0.0332 0.95597 0.77764 0.0
H1011 H 0.02299 0.89904 0.72766 0.0
H1012 H 0.99429 0.92333 0.70561 0.0
H1013 H 0.97573 0.03289 0.61166 0.0
H1014 H 0.96845 0.02755 0.65391 0.0
H1015 H 0.97792 0.95187 0.64564 0.0
H1016 H 0.98628 0.95726 0.60357 0.0
H1017 H 0.99924 0.96527 0.68334 0.0
H1018 H 0.92159 0.97949 0.65187 0.0
H1019 H 0.89086 0.00116 0.62986 0.0
H1020 H 0.89935 0.06126 0.67635 0.0
H1021 H 0.93037 0.04004 0.69847 0.0
C1022 C 0.94076 0.94166 0.77977 0.0
C1023 C 0.94277 0.95813 0.79855 0.0
C1024 C 0.94622 0.94827 0.75666 0.0
C1025 C 0.95339 0.97156 0.75174 0.0
C1026 C 0.95479 0.98833 0.77014 0.0
C1027 C 0.94972 0.98162 0.79343 0.0
C1028 C 0.95966 0.97801 0.72724 0.0
C1029 C 0.94377 0.99179 0.71422 0.0
C1030 C 0.97987 0.96835 0.71602 0.0
C1031 C 0.99727 0.95377 0.72913 0.0
C1032 C 0.0085 0.96284 0.74951 0.0
C1033 C 0.02466 0.94891 0.76194 0.0
C1034 C 0.02985 0.92593 0.75408 0.0
C1035 C 0.01894 0.91684 0.73374 0.0
C1036 C 0.00274 0.9307 0.72125 0.0
C1037 C 0.97618 0.0151 0.61885 0.0
C1038 C 0.98149 0.99547 0.60429 0.0
C1039 C 0.97192 0.01206 0.643 0.0
C1040 C 0.97225 0.98926 0.65295 0.0
C1041 C 0.97758 0.96964 0.63841 0.0
C1042 C 0.98229 0.97273 0.61435 0.0
C1043 C 0.96739 0.98578 0.67854 0.0
C1044 C 0.98353 0.97244 0.69185 0.0
C1045 C 0.94714 0.9955 0.6899 0.0
C1046 C 0.92848 0.00828 0.67665 0.0
C1047 C 0.91703 0.99739 0.65728 0.0
C1048 C 0.89954 0.00958 0.64481 0.0
C1049 C 0.89321 0.0326 0.65166 0.0
C1050 C 0.9043 0.04344 0.67104 0.0
C1051 C 0.92183 0.03134 0.68356 0.0
H1052 H 0.87966 0.042 0.64198 0.0
H1053 H 0.04237 0.91517 0.76373 0.0
H1054 H 0.54273 0.07559 0.29427 0.0
H1055 H 0.53421 0.06294 0.25386 0.0
H1056 H 0.58606 0.00713 0.25965 0.0
H1057 H 0.59557 0.0205 0.29986 0.0
H1058 H 0.59155 0.0288 0.21936 0.0
H1059 H 0.52599 0.99467 0.25953 0.0
H1060 H 0.49171 0.99298 0.28665 0.0
H1061 H 0.45563 0.04522 0.24518 0.0
H1062 H 0.48983 0.04749 0.21798 0.0
H1063 H 0.5094 0.98269 0.11615 0.0
H1064 H 0.5193 0.98561 0.15807 0.0
H1065 H 0.56107 0.04855 0.14443 0.0
H1066 H 0.55191 0.04524 0.10226 0.0
H1067 H 0.50954 0.01664 0.18973 0.0
H1068 H 0.60585 0.05405 0.18314 0.0
H1069 H 0.64056 0.05081 0.15668 0.0
H1070 H 0.61606 0.98258 0.13227 0.0
H1071 H 0.58138 0.98526 0.15881 0.0
C1072 C 0.55241 0.06067 0.28695 0.0
C1073 C 0.56995 0.04915 0.30027 0.0
C1074 C 0.5473 0.05327 0.26391 0.0
C1075 C 0.55931 0.03392 0.25378 0.0
C1076 C 0.57653 0.02207 0.26714 0.0
C1077 C 0.58178 0.02959 0.29019 0.0
C1078 C 0.55455 0.02689 0.22887 0.0
C1079 C 0.57363 0.02599 0.2129 0.0
C1080 C 0.53123 0.02267 0.22052 0.0
C1081 C 0.51057 0.02137 0.2368 0.0
C1082 C 0.51082 0.00593 0.25628 0.0
C1083 C 0.49139 0.00485 0.27166 0.0
C1084 C 0.47153 0.01902 0.26766 0.0
C1085 C 0.47104 0.03427 0.24826 0.0
C1086 C 0.49043 0.03544 0.23284 0.0
C1087 C 0.52078 0.99712 0.12204 0.0
C1088 C 0.5299 0.01373 0.10586 0.0
C1089 C 0.5264 0.99877 0.14604 0.0
C1090 C 0.54114 0.01714 0.15442 0.0
C1091 C 0.5501 0.0339 0.13833 0.0
C1092 C 0.54474 0.03207 0.11424 0.0
C1093 C 0.54648 0.01919 0.18008 0.0
C1094 C 0.52749 0.0192 0.1962 0.0
C1095 C 0.56994 0.02186 0.18866 0.0
C1096 C 0.5909 0.01997 0.17283 0.0
C1097 C 0.60793 0.03831 0.17221 0.0
C1098 C 0.62758 0.03658 0.15718 0.0
C1099 C 0.63047 0.01654 0.14276 0.0
C1100 C 0.61375 0.99814 0.14339 0.0
C1101 C 0.59408 -0.00023 0.1584 0.0
H1102 H 0.64569 0.01524 0.13112 0.0
H1103 H 0.4565 0.01815 0.27958 0.0
H1104 H 0.47323 0.58321 0.23002 0.0
H1105 H 0.48439 0.56935 0.26935 0.0
H1106 H 0.44067 0.50687 0.2596 0.0
H1107 H 0.42911 0.52095 0.22041 0.0
H1108 H 0.43198 0.52502 0.30062 0.0
H1109 H 0.5025 0.50425 0.2594 0.0
H1110 H 0.53707 0.51005 0.23324 0.0
H1111 H 0.5643 0.56392 0.28018 0.0
H1112 H 0.52971 0.55868 0.30647 0.0
H1113 H 0.515 0.4809 0.40228 0.0
H1114 H 0.50737 0.48697 0.36016 0.0
H1115 H 0.45882 0.54354 0.37745 0.0
H1116 H 0.46583 0.53719 0.41951 0.0
H1117 H 0.51434 0.52259 0.33133 0.0
H1118 H 0.41402 0.54518 0.33879 0.0
H1119 H 0.37968 0.53489 0.36391 0.0
H1120 H 0.41245 0.4688 0.3822 0.0
H1121 H 0.44682 0.47854 0.35695 0.0
C1122 C 0.46634 0.56632 0.23612 0.0
C1123 C 0.45029 0.55316 0.22218 0.0
C1124 C 0.47274 0.55839 0.25859 0.0
C1125 C 0.46353 0.53694 0.2674 0.0
C1126 C 0.44795 0.52349 0.25323 0.0
C1127 C 0.44136 0.53154 0.23086 0.0
C1128 C 0.46899 0.52932 0.29192 0.0
C1129 C 0.45001 0.52439 0.30727 0.0
C1130 C 0.49253 0.528 0.30055 0.0
C1131 C 0.5134 0.53119 0.28482 0.0
C1132 C 0.51576 0.51746 0.26406 0.0
C1133 C 0.53538 0.52063 0.24922 0.0
C1134 C 0.55284 0.53738 0.25502 0.0
C1135 C 0.55075 0.55096 0.2757 0.0
C1136 C 0.53116 0.54788 0.29059 0.0
C1137 C 0.50267 0.49461 0.39713 0.0
C1138 C 0.49089 0.50844 0.4143 0.0
C1139 C 0.49837 0.4981 0.37303 0.0
C1140 C 0.48227 0.51548 0.36563 0.0
C1141 C 0.47093 0.52966 0.38273 0.0
C1142 C 0.47503 0.52606 0.4068 0.0
C1143 C 0.47729 0.51888 0.34008 0.0
C1144 C 0.49634 0.52306 0.32458 0.0
C1145 C 0.45385 0.51887 0.33112 0.0
C1146 C 0.43309 0.51271 0.34613 0.0
C1147 C 0.41385 0.52841 0.34808 0.0
C1148 C 0.39439 0.52268 0.36237 0.0
C1149 C 0.39392 0.50124 0.3747 0.0
C1150 C 0.41287 0.48544 0.37271 0.0
C1151 C 0.43236 0.49107 0.35843 0.0
H1152 H 0.37885 0.49685 0.38576 0.0
H1153 H 0.56802 0.5398 0.2435 0.0
H1154 H 0.09991 0.42691 0.74045 0.0
H1155 H 0.08841 0.43921 0.78032 0.0
H1156 H 0.03374 0.4838 0.75139 0.0
H1157 H 0.04563 0.47203 0.71124 0.0
H1158 H 0.05839 0.50636 0.78649 0.0
H1159 H 0.0189 0.43178 0.77606 0.0
H1160 H 0.01534 0.38926 0.76582 0.0
H1161 H 0.06475 0.37191 0.82076 0.0
H1162 H 0.06889 0.41439 0.83111 0.0
H1163 H 0.00248 0.52407 0.89896 0.0
H1164 H 0.0103 0.51375 0.85759 0.0
H1165 H 0.06635 0.46682 0.87935 0.0
H1166 H 0.05853 0.47677 0.92072 0.0
H1167 H 0.03789 0.44599 0.8469 0.0
H1168 H 0.07876 0.52097 0.85583 0.0
H1169 H 0.08216 0.56354 0.86597 0.0
H1170 H 0.02956 0.58013 0.8138 0.0
H1171 H 0.02562 0.53759 0.80356 0.0
C1172 C 0.08559 0.43951 0.74253 0.0
C1173 C 0.07369 0.44852 0.72268 0.0
C1174 C 0.07888 0.44635 0.76534 0.0
C1175 C 0.06004 0.4622 0.76882 0.0
C1176 C 0.04827 0.47146 0.74908 0.0
C1177 C 0.05496 0.46459 0.72619 0.0
C1178 C 0.05283 0.4691 0.79315 0.0
C1179 C 0.05352 0.49322 0.79961 0.0
C1180 C 0.04685 0.45189 0.81034 0.0
C1181 C 0.04435 0.4263 0.80422 0.0
C1182 C 0.02915 0.41892 0.78584 0.0
C1183 C 0.02701 0.39482 0.78004 0.0
C1184 C 0.03985 0.3779 0.7926 0.0
C1185 C 0.05483 0.38504 0.81103 0.0
C1186 C 0.05706 0.40913 0.81689 0.0
C1187 C 0.01652 0.5116 0.89497 0.0
C1188 C 0.02989 0.50127 0.91321 0.0
C1189 C 0.02101 0.50579 0.87129 0.0
C1190 C 0.03903 0.48966 0.86539 0.0
C1191 C 0.05235 0.4793 0.88352 0.0
C1192 C 0.04789 0.48509 0.90718 0.0
C1193 C 0.04384 0.48321 0.84036 0.0
C1194 C 0.04263 0.45916 0.83375 0.0
C1195 C 0.04928 0.50049 0.82306 0.0
C1196 C 0.05171 0.52608 0.82911 0.0
C1197 C 0.06778 0.53368 0.84665 0.0
C1198 C 0.06983 0.5578 0.85239 0.0
C1199 C 0.05603 0.57452 0.84059 0.0
C1200 C 0.04021 0.56715 0.82296 0.0
C1201 C 0.03807 0.54304 0.81717 0.0
H1202 H 0.05763 0.59319 0.84506 0.0
H1203 H 0.03816 0.35925 0.78808 0.0
H1204 H 0.80064 0.97603 0.97516 0.0
H1205 H 0.75995 0.9867 0.98598 0.0
H1206 H 0.73319 0.92955 0.94214 0.0
H1207 H 0.77369 0.91923 0.93074 0.0
H1208 H 0.70864 0.96992 0.93545 0.0
H1209 H 0.73567 0.92416 0.00194 0.0
H1210 H 0.76253 0.9143 0.03482 0.0
H1211 H 0.74929 0.98229 0.06702 0.0
H1212 H 0.72259 0.99269 0.03414 0.0
H1213 H 0.59142 0.95736 0.97691 0.0
H1214 H 0.63313 0.95065 0.96757 0.0
H1215 H 0.65311 0.00963 0.01255 0.0
H1216 H 0.61136 0.0164 0.02224 0.0
H1217 H 0.68171 0.97135 0.01911 0.0
H1218 H 0.65327 0.01648 0.95377 0.0
H1219 H 0.62626 0.02646 0.92106 0.0
H1220 H 0.6422 0.96015 0.88671 0.0
H1221 H 0.66906 0.9496 0.9194 0.0
C1222 C 0.78607 0.96586 0.96771 0.0
C1223 C 0.79038 0.94671 0.95218 0.0
C1224 C 0.76286 0.97185 0.97405 0.0
C1225 C 0.74358 0.95876 0.96504 0.0
C1226 C 0.74783 0.93983 0.94935 0.0
C1227 C 0.77098 0.93382 0.94303 0.0
C1228 C 0.71889 0.96479 0.97176 0.0
C1229 C 0.70268 0.96999 0.95372 0.0
C1230 C 0.71133 0.96555 0.99566 0.0
C1231 C 0.72735 0.95931 0.01545 0.0
C1232 C 0.73865 0.93709 0.01593 0.0
C1233 C 0.75381 0.93139 0.03458 0.0
C1234 C 0.75767 0.94768 0.05296 0.0
C1235 C 0.74632 0.9697 0.05275 0.0
C1236 C 0.73116 0.9755 0.03412 0.0
C1237 C 0.60464 0.96891 0.98489 0.0
C1238 C 0.598 0.9875 0.00025 0.0
C1239 C 0.62848 0.9651 0.97944 0.0
C1240 C 0.64617 0.97984 0.98912 0.0
C1241 C 0.63971 0.99811 0.00483 0.0
C1242 C 0.61583 0.00197 0.01029 0.0
C1243 C 0.6714 0.97612 0.98277 0.0
C1244 C 0.68771 0.97141 0.00085 0.0
C1245 C 0.67908 0.97584 0.95891 0.0
C1246 C 0.66302 0.98217 0.93915 0.0
C1247 C 0.65088 0.00394 0.93934 0.0
C1248 C 0.63562 0.00971 0.92078 0.0
C1249 C 0.63247 0.99392 0.90185 0.0
C1250 C 0.64463 0.97235 0.9014 0.0
C1251 C 0.6599 0.96648 0.91993 0.0
H1252 H 0.62065 0.99843 0.8875 0.0
H1253 H 0.76942 0.94323 0.06739 0.0
H1254 H 0.71758 0.08207 0.49133 0.0
H1255 H 0.75854 0.0729 0.50202 0.0
H1256 H 0.76289 0.02365 0.44334 0.0
H1257 H 0.72185 0.03263 0.43267 0.0
H1258 H 0.78494 0.00632 0.48166 0.0
H1259 H 0.78508 0.07968 0.43871 0.0
H1260 H 0.7729 0.12075 0.43009 0.0
H1261 H 0.79878 0.14377 0.49796 0.0
H1262 H 0.81081 0.10274 0.50712 0.0
H1263 H 0.91021 0.00258 0.46873 0.0
H1264 H 0.86785 0.00869 0.46228 0.0
H1265 H 0.86512 0.0552 0.52318 0.0
H1266 H 0.90754 0.04935 0.52974 0.0
H1267 H 0.8421 0.07364 0.48502 0.0
H1268 H 0.84348 -0.00018 0.527 0.0
H1269 H 0.85605 0.95869 0.53466 0.0
H1270 H 0.82791 0.93645 0.46745 0.0
H1271 H 0.81546 0.97755 0.45923 0.0
C1272 C 0.72725 0.06921 0.48079 0.0
C1273 C 0.71661 0.05822 0.46104 0.0
C1274 C 0.75063 0.06399 0.4869 0.0
C1275 C 0.76389 0.04791 0.47321 0.0
C1276 C 0.75298 0.03614 0.45411 0.0
C1277 C 0.72953 0.04124 0.44807 0.0
C1278 C 0.78941 0.04417 0.47817 0.0
C1279 C 0.79749 0.021 0.48216 0.0
C1280 C 0.8057 0.06339 0.47921 0.0
C1281 C 0.79862 0.0881 0.47369 0.0
C1282 C 0.78801 0.09347 0.45186 0.0
C1283 C 0.78116 0.11674 0.44687 0.0
C1284 C 0.785 0.13484 0.46349 0.0
C1285 C 0.79577 0.12972 0.48511 0.0
C1286 C 0.80262 0.10646 0.49021 0.0
C1287 C 0.90065 0.01413 0.48077 0.0
C1288 C 0.9123 0.02545 0.49979 0.0
C1289 C 0.8764 0.01749 0.47712 0.0
C1290 C 0.86332 0.03218 0.49242 0.0
C1291 C 0.87491 0.04374 0.51123 0.0
C1292 C 0.89915 0.04033 0.51496 0.0
C1293 C 0.83762 0.03581 0.48852 0.0
C1294 C 0.82953 0.05898 0.48466 0.0
C1295 C 0.82138 0.01657 0.48746 0.0
C1296 C 0.82873 0.99181 0.49241 0.0
C1297 C 0.84013 0.9862 0.51377 0.0
C1298 C 0.84721 0.96289 0.51823 0.0
C1299 C 0.84283 0.94498 0.50153 0.0
C1300 C 0.83131 0.95035 0.48036 0.0
C1301 C 0.82422 0.97364 0.4758 0.0
H1302 H 0.84832 0.92694 0.50501 0.0
H1303 H 0.77969 0.15285 0.45959 0.0
H1304 H 0.29435 0.53503 0.07562 0.0
H1305 H 0.25382 0.52713 0.06157 0.0
H1306 H 0.24881 0.59931 0.03701 0.0
H1307 H 0.28945 0.60717 0.0506 0.0
H1308 H 0.21062 0.58181 0.06869 0.0
H1309 H 0.25318 0.56171 0.99702 0.0
H1310 H 0.28361 0.54044 0.97386 0.0
H1311 H 0.25246 0.47358 0.99338 0.0
H1312 H 0.22203 0.49446 0.01695 0.0
H1313 H 0.09826 0.57433 0.01544 0.0
H1314 H 0.14026 0.58205 0.02297 0.0
H1315 H 0.15343 0.50655 0.02435 0.0
H1316 H 0.11164 0.49884 0.01532 0.0
H1317 H 0.1884 0.52604 0.00396 0.0
H1318 H 0.14769 0.54302 0.07642 0.0
H1319 H 0.11779 0.56175 0.10232 0.0
H1320 H 0.14571 0.63076 0.08557 0.0
H1321 H 0.1756 0.61246 0.05932 0.0
C1322 C 0.28463 0.54909 0.067 0.0
C1323 C 0.29494 0.57167 0.06411 0.0
C1324 C 0.2616 0.54456 0.05896 0.0
C1325 C 0.24846 0.56266 0.04826 0.0
C1326 C 0.25877 0.58515 0.04518 0.0
C1327 C 0.28195 0.58956 0.05282 0.0
C1328 C 0.22351 0.55842 0.04135 0.0
C1329 C 0.20568 0.5699 0.05431 0.0
C1330 C 0.21725 0.54221 0.0232 0.0
C1331 C 0.23548 0.52965 0.00895 0.0
C1332 C 0.25295 0.54247 0.99656 0.0
C1333 C 0.27017 0.53049 0.98332 0.0
C1334 C 0.27001 0.50568 0.9822 0.0
C1335 C 0.25258 0.4928 0.99428 0.0
C1336 C 0.23533 0.5047 0.00757 0.0
C1337 C 0.11016 0.55941 0.01727 0.0
C1338 C 0.10171 0.53599 0.01498 0.0
C1339 C 0.13415 0.56381 0.02171 0.0
C1340 C 0.15 0.54489 0.02486 0.0
C1341 C 0.14161 0.52147 0.02208 0.0
C1342 C 0.11772 0.51707 0.01699 0.0
C1343 C 0.1752 0.54948 0.03128 0.0
C1344 C 0.19317 0.53802 0.01831 0.0
C1345 C 0.18161 0.56532 0.04986 0.0
C1346 C 0.16373 0.57638 0.06573 0.0
C1347 C 0.14735 0.5622 0.07814 0.0
C1348 C 0.13042 0.57274 0.0929 0.0
C1349 C 0.12981 0.59743 0.09554 0.0
C1350 C 0.14618 0.61164 0.08348 0.0
C1351 C 0.16314 0.60119 0.06868 0.0
H1352 H 0.11668 0.60556 0.10697 0.0
H1353 H 0.28335 0.49643 0.97194 0.0
H1354 H 0.21872 0.42772 0.52557 0.0
H1355 H 0.25961 0.43743 0.51443 0.0
H1356 H 0.26765 0.4785 0.57874 0.0
H1357 H 0.2266 0.46931 0.58961 0.0
H1358 H 0.29014 0.49985 0.54418 0.0
H1359 H 0.28691 0.42041 0.57448 0.0
H1360 H 0.27261 0.37898 0.5766 0.0
H1361 H 0.29613 0.36642 0.5053 0.0
H1362 H 0.31028 0.40789 0.50265 0.0
H1363 H 0.42056 0.45457 0.54607 0.0
H1364 H 0.37829 0.44887 0.55371 0.0
H1365 H 0.36153 0.49752 0.49752 0.0
H1366 H 0.40381 0.50379 0.49011 0.0
H1367 H 0.34343 0.43161 0.52835 0.0
H1368 H 0.31108 0.52755 0.51138 0.0
H1369 H 0.32634 0.56867 0.51402 0.0
H1370 H 0.37609 0.54764 0.56732 0.0
H1371 H 0.36092 0.5065 0.56523 0.0
C1372 C 0.22918 0.43903 0.53717 0.0
C1373 C 0.21961 0.44764 0.55851 0.0
C1374 C 0.25252 0.44452 0.53083 0.0
C1375 C 0.26685 0.45831 0.54598 0.0
C1376 C 0.25695 0.46781 0.56679 0.0
C1377 C 0.2335 0.46257 0.57298 0.0
C1378 C 0.29245 0.46177 0.54084 0.0
C1379 C 0.30178 0.48494 0.54061 0.0
C1380 C 0.30776 0.4423 0.53668 0.0
C1381 C 0.29944 0.4173 0.53829 0.0
C1382 C 0.28889 0.40885 0.5592 0.0
C1383 C 0.28083 0.38536 0.56051 0.0
C1384 C 0.28341 0.3701 0.54108 0.0
C1385 C 0.29411 0.37827 0.52032 0.0
C1386 C 0.30217 0.40176 0.51891 0.0
C1387 C 0.40791 0.46407 0.5353 0.0
C1388 C 0.41559 0.47975 0.51756 0.0
C1389 C 0.38373 0.46074 0.53967 0.0
C1390 C 0.36675 0.47296 0.52637 0.0
C1391 C 0.37433 0.48823 0.5083 0.0
C1392 C 0.39852 0.49172 0.50403 0.0
C1393 C 0.34112 0.4697 0.53152 0.0
C1394 C 0.33178 0.44655 0.53173 0.0
C1395 C 0.32597 0.48915 0.53633 0.0
C1396 C 0.33503 0.5139 0.53794 0.0
C1397 C 0.32522 0.53173 0.52371 0.0
C1398 C 0.33386 0.55503 0.52511 0.0
C1399 C 0.35223 0.56074 0.54076 0.0
C1400 C 0.36193 0.54318 0.55513 0.0
C1401 C 0.35334 0.51986 0.55383 0.0
H1402 H 0.35891 0.57878 0.5418 0.0
H1403 H 0.27715 0.35192 0.54212 0.0
H1404 H 0.92603 0.79708 0.97447 0.0
H1405 H 0.93757 0.75616 0.98289 0.0
H1406 H 0.00345 0.76699 0.94532 0.0
H1407 H 0.9917 0.80777 0.93644 0.0
H1408 H 0.98436 0.72733 0.93148 0.0
H1409 H 0.00102 0.7626 0.00677 0.0
H1410 H 0.99289 0.78613 0.04283 0.0
H1411 H 0.93631 0.73832 0.0613 0.0
H1412 H 0.9439 0.71467 0.02518 0.0
H1413 H 0.02527 0.62149 0.01023 0.0
H1414 H 0.01864 0.66375 0.00399 0.0
H1415 H 0.96559 0.64714 0.95136 0.0
H1416 H 0.97251 0.60471 0.95708 0.0
H1417 H 0.98147 0.69039 0.01091 0.0
H1418 H 0.96487 0.69001 0.9096 0.0
H1419 H 0.97719 0.66739 0.87413 0.0
H1420 H 0.04171 0.64731 0.90883 0.0
H1421 H 0.02993 0.67007 0.94437 0.0
C1422 C 0.94315 0.79083 0.9684 0.0
C1423 C 0.95799 0.80555 0.95482 0.0
C1424 C 0.94974 0.76745 0.9732 0.0
C1425 C 0.97145 0.75852 0.96485 0.0
C1426 C 0.98657 0.77345 0.95184 0.0
C1427 C 0.97988 0.79673 0.94683 0.0
C1428 C 0.97788 0.7333 0.96866 0.0
C1429 C 0.98379 0.71928 0.94887 0.0
C1430 C 0.97748 0.72284 0.99137 0.0
C1431 C 0.97291 0.73698 0.01316 0.0
C1432 C 0.98674 0.7572 0.01843 0.0
C1433 C 0.98224 0.77054 0.0389 0.0
C1434 C 0.96406 0.76375 0.05432 0.0
C1435 C 0.95037 0.74357 0.04933 0.0
C1436 C 0.95478 0.73017 0.02888 0.0
C1437 C 0.01224 0.62677 0.99723 0.0
C1438 C 0.99945 0.60968 0.98409 0.0
C1439 C 0.00843 0.65097 0.99375 0.0
C1440 C 0.99175 0.65863 0.9771 0.0
C1441 C 0.97884 0.64164 0.96403 0.0
C1442 C 0.98277 0.61739 0.96737 0.0
C1443 C 0.98768 0.68441 0.9737 0.0
C1444 C 0.98212 0.69848 0.99354 0.0
C1445 C 0.989 0.69506 0.95112 0.0
C1446 C 0.99638 0.68155 0.92973 0.0
C1447 C 0.98172 0.68084 0.90962 0.0
C1448 C 0.9886 0.66798 0.88951 0.0
C1449 C 0.01018 0.65586 0.88926 0.0
C1450 C 0.02496 0.65664 0.90908 0.0
C1451 C 0.01817 0.66948 0.92922 0.0
H1452 H 0.01546 0.6459 0.87369 0.0
H1453 H 0.96061 0.77411 0.07015 0.0
H1454 H 0.4213 0.72779 0.05663 0.0
H1455 H 0.43347 0.76791 0.04545 0.0
H1456 H 0.4946 0.76284 0.09103 0.0
H1457 H 0.48219 0.7228 0.10263 0.0
H1458 H 0.47506 0.80386 0.09719 0.0
H1459 H 0.49941 0.75938 0.02966 0.0
H1460 H 0.49552 0.73098 0.99646 0.0
H1461 H 0.44143 0.77427 0.96549 0.0
H1462 H 0.44476 0.80278 0.99869 0.0
H1463 H 0.52093 0.90174 0.01023 0.0
H1464 H 0.51465 0.85987 0.01976 0.0
H1465 H 0.45659 0.87904 0.06582 0.0
H1466 H 0.46317 0.92093 0.05694 0.0
H1467 H 0.47982 0.82991 0.01357 0.0
H1468 H 0.4536 0.84266 0.11242 0.0
H1469 H 0.46226 0.87018 0.1455 0.0
H1470 H 0.52911 0.88842 0.11371 0.0
H1471 H 0.52101 0.86077 0.08063 0.0
C1472 C 0.43748 0.73515 0.06406 0.0
C1473 C 0.45085 0.72216 0.08044 0.0
C1474 C 0.44444 0.75806 0.05763 0.0
C1475 C 0.46514 0.76831 0.06715 0.0
C1476 C 0.47856 0.75532 0.08346 0.0
C1477 C 0.47146 0.73248 0.09009 0.0
C1478 C 0.47226 0.79287 0.06068 0.0
C1479 C 0.47618 0.80951 0.0789 0.0
C1480 C 0.47425 0.80019 0.03682 0.0
C1481 C 0.47221 0.78312 0.01678 0.0
C1482 C 0.48656 0.76276 0.01586 0.0
C1483 C 0.48448 0.74666 0.99703 0.0
C1484 C 0.4682 0.7508 0.9789 0.0
C1485 C 0.45402 0.77108 0.97955 0.0
C1486 C 0.45601 0.78723 0.99836 0.0
C1487 C 0.5068 0.89705 0.02237 0.0
C1488 C 0.49267 0.91471 0.03297 0.0
C1489 C 0.50321 0.87309 0.02776 0.0
C1490 C 0.4854 0.86633 0.04379 0.0
C1491 C 0.47081 0.88387 0.05383 0.0
C1492 C 0.47453 0.90782 0.04864 0.0
C1493 C 0.48205 0.84095 0.05009 0.0
C1494 C 0.47883 0.82419 0.03185 0.0
C1495 C 0.48139 0.83336 0.07393 0.0
C1496 C 0.48658 0.84979 0.09394 0.0
C1497 C 0.47019 0.85246 0.11255 0.0
C1498 C 0.475 0.8681 0.13129 0.0
C1499 C 0.49619 0.88109 0.13167 0.0
C1500 C 0.51267 0.87841 0.11336 0.0
C1501 C 0.50796 0.86277 0.0946 0.0
H1502 H 0.49986 0.89321 0.14618 0.0
H1503 H 0.46662 0.73831 0.96433 0.0
H1504 H 0.03312 0.29245 0.59699 0.0
H1505 H 0.01974 0.25203 0.58799 0.0
H1506 H 0.07249 0.24665 0.53282 0.0
H1507 H 0.08514 0.28742 0.54088 0.0
H1508 H 0.03291 0.22592 0.51892 0.0
H1509 H 0.08158 0.22361 0.58875 0.0
H1510 H 0.09362 0.23474 0.6293 0.0
H1511 H 0.02672 0.20979 0.65613 0.0
H1512 H 0.01416 0.19879 0.61567 0.0
H1513 H 0.04729 0.10099 0.51108 0.0
H1514 H 0.0536 0.14339 0.51846 0.0
H1515 H 0.99395 0.14419 0.56634 0.0
H1516 H 0.98742 0.10176 0.55908 0.0
H1517 H 0.03392 0.16744 0.58426 0.0
H1518 H 0.98704 0.16697 0.51346 0.0
H1519 H 0.97678 0.15493 0.47269 0.0
H1520 H 0.0425 0.18427 0.4474 0.0
H1521 H 0.05331 0.19618 0.48809 0.0
C1522 C 0.04155 0.28286 0.58262 0.0
C1523 C 0.06039 0.29311 0.56982 0.0
C1524 C 0.03406 0.25964 0.57767 0.0
C1525 C 0.04544 0.24613 0.56005 0.0
C1526 C 0.06355 0.25666 0.54661 0.0
C1527 C 0.07093 0.2799 0.5514 0.0
C1528 C 0.03918 0.22077 0.55614 0.0
C1529 C 0.03332 0.21311 0.53317 0.0
C1530 C 0.03929 0.20409 0.57482 0.0
C1531 C 0.04683 0.21063 0.59916 0.0
C1532 C 0.06937 0.22066 0.60328 0.0
C1533 C 0.0763 0.22692 0.62624 0.0
C1534 C 0.06092 0.22304 0.64527 0.0
C1535 C 0.0386 0.21283 0.64137 0.0
C1536 C 0.03157 0.20657 0.61843 0.0
C1537 C 0.03552 0.11014 0.52322 0.0
C1538 C 0.01682 0.09798 0.53446 0.0
C1539 C 0.03909 0.1344 0.52731 0.0
C1540 C 0.02409 0.14692 0.54276 0.0
C1541 C 0.00565 0.13482 0.55429 0.0
C1542 C 0.00193 0.11059 0.55007 0.0
C1543 C 0.02789 0.17264 0.54705 0.0
C1544 C 0.03331 0.18032 0.57007 0.0
C1545 C 0.02761 0.18927 0.52839 0.0
C1546 C 0.02107 0.18228 0.50387 0.0
C1547 C 0.99939 0.17069 0.49923 0.0
C1548 C 0.99346 0.16392 0.47613 0.0
C1549 C 0.009 0.16878 0.45747 0.0
C1550 C 0.03048 0.18049 0.46187 0.0
C1551 C 0.03651 0.18728 0.48495 0.0
H1552 H 0.00438 0.16352 0.43959 0.0
H1553 H 0.06632 0.2279 0.66304 0.0
H1554 H 0.53889 0.20044 0.48064 0.0
H1555 H 0.52893 0.24129 0.49203 0.0
H1556 H 0.57234 0.2678 0.43493 0.0
H1557 H 0.58305 0.22728 0.42407 0.0
H1558 H 0.5801 0.29254 0.47434 0.0
H1559 H 0.51142 0.26489 0.43085 0.0
H1560 H 0.47778 0.23794 0.42246 0.0
H1561 H 0.4483 0.25301 0.49103 0.0
H1562 H 0.48196 0.27982 0.49994 0.0
H1563 H 0.54063 0.40941 0.45856 0.0
H1564 H 0.54857 0.36717 0.45314 0.0
H1565 H 0.50487 0.35096 0.51371 0.0
H1566 H 0.49653 0.39326 0.51917 0.0
H1567 H 0.4967 0.32028 0.47702 0.0
H1568 H 0.56411 0.35043 0.51914 0.0
H1569 H 0.59758 0.37773 0.52701 0.0
H1570 H 0.62948 0.35808 0.46069 0.0
H1571 H 0.59603 0.3309 0.45227 0.0
C1572 C 0.54645 0.215 0.47065 0.0
C1573 C 0.5616 0.21061 0.45132 0.0
C1574 C 0.54059 0.23831 0.47705 0.0
C1575 C 0.54969 0.25757 0.46415 0.0
C1576 C 0.56505 0.25321 0.44508 0.0
C1577 C 0.57096 0.23001 0.43874 0.0
C1578 C 0.54341 0.28239 0.47035 0.0
C1579 C 0.56187 0.29864 0.47473 0.0
C1580 C 0.5196 0.29019 0.47153 0.0
C1581 C 0.49934 0.27414 0.46616 0.0
C1582 C 0.49786 0.2623 0.44421 0.0
C1583 C 0.47878 0.24709 0.43934 0.0
C1584 C 0.46095 0.24371 0.45623 0.0
C1585 C 0.46215 0.25561 0.47799 0.0
C1586 C 0.48121 0.27082 0.48295 0.0
C1587 C 0.53261 0.39691 0.47072 0.0
C1588 C 0.51805 0.40477 0.4894 0.0
C1589 C 0.53726 0.37276 0.46764 0.0
C1590 C 0.5276 0.35599 0.48325 0.0
C1591 C 0.51258 0.36365 0.50154 0.0
C1592 C 0.50788 0.38784 0.50465 0.0
C1593 C 0.53343 0.33049 0.48046 0.0
C1594 C 0.51491 0.31412 0.47682 0.0
C1595 C 0.5572 0.32255 0.47991 0.0
C1596 C 0.57746 0.33876 0.485 0.0
C1597 C 0.57818 0.35205 0.50616 0.0
C1598 C 0.59716 0.36749 0.51073 0.0
C1599 C 0.61562 0.36968 0.49434 0.0
C1600 C 0.61516 0.35638 0.47337 0.0
C1601 C 0.59621 0.34093 0.4687 0.0
H1602 H 0.6303 0.38164 0.4979 0.0
H1603 H 0.44619 0.23193 0.45243 0.0
loop_
_geom_bond_atom_site_label_1
_geom_bond_atom_site_label_2
_geom_bond_distance
_geom_bond_site_symmetry_2
_ccdc_geom_bond_type
C0 C1 1.386 . S
C0 C2 1.397 . S
C0 H24 0.931 . S
C1 C0 1.386 . S
C1 C5 1.397 . S
C2 C0 1.397 . S
C2 C3 1.384 . S
C2 H25 0.930 . S
C3 C2 1.384 . S
C3 C4 1.377 . S
C3 C6 1.481 . S
C4 C3 1.377 . S
C4 C5 1.389 . S
C4 H26 0.929 . S
C5 C1 1.397 . S
C5 C4 1.389 . S
C5 H27 0.931 . S
C6 C3 1.481 . S
C6 C7 1.387 . S
C6 C11 1.390 . S
C7 C6 1.387 . S
C7 C8 1.401 . S
C7 H28 0.930 . S
C8 C7 1.401 . S
C8 C9 1.376 . S
C8 C17 1.511 . S
C9 C8 1.376 . S
C9 C10 1.392 . S
C9 H30 0.931 . S
C10 C9 1.392 . S
C10 C11 1.361 . S
C10 C12 1.500 . S
C11 C6 1.390 . S
C11 C10 1.361 . S
C11 H29 0.931 . S
C12 C10 1.500 . S
C12 C13 1.371 . S
C12 C14 1.365 . S
C13 C12 1.371 . S
C13 C23 1.386 . S
C13 H31 0.931 . S
C14 C12 1.365 . S
C14 C15 1.409 . S
C14 H32 0.929 . S
C15 C14 1.409 . S
C15 C16 1.380 . S
C15 H33 0.930 . S
C16 C15 1.380 . S
C16 C23 1.357 . S
C17 C8 1.511 . S
C17 C18 1.341 . S
C17 C19 1.371 . S
C18 C17 1.341 . S
C18 C22 1.394 . S
C18 H34 0.930 . S
C19 C17 1.371 . S
C19 C20 1.392 . S
C19 H35 0.931 . S
C20 C19 1.392 . S
C20 C21 1.331 . S
C20 H38 0.932 . S
C21 C20 1.331 . S
C21 C22 1.336 . S
C22 C18 1.394 . S
C22 C21 1.336 . S
C22 H37 0.929 . S
C23 C13 1.386 . S
C23 C16 1.357 . S
C23 H36 0.928 . S
H24 C0 0.931 . S
H25 C2 0.930 . S
H26 C4 0.929 . S
H27 C5 0.931 . S
H28 C7 0.930 . S
H29 C11 0.931 . S
H30 C9 0.931 . S
H31 C13 0.931 . S
H32 C14 0.929 . S
H33 C15 0.930 . S
H34 C18 0.930 . S
H35 C19 0.931 . S
H36 C23 0.928 . S
H37 C22 0.929 . S
H38 C20 0.932 . S
C39 C40 1.386 . S
C39 C41 1.397 . S
C39 H63 0.931 . S
C40 C39 1.386 . S
C40 C44 1.397 . S
C41 C39 1.397 . S
C41 C42 1.384 . S
C41 H64 0.930 . S
C42 C41 1.384 . S
C42 C43 1.377 . S
C42 C45 1.481 . S
C43 C42 1.377 . S
C43 C44 1.389 . S
C43 H65 0.929 . S
C44 C40 1.397 . S
C44 C43 1.389 . S
C44 H66 0.931 . S
C45 C42 1.481 . S
C45 C46 1.387 . S
C45 C50 1.390 . S
C46 C45 1.387 . S
C46 C47 1.401 . S
C46 H67 0.930 . S
C47 C46 1.401 . S
C47 C48 1.376 . S
C47 C56 1.511 . S
C48 C47 1.376 . S
C48 C49 1.392 . S
C48 H69 0.931 . S
C49 C48 1.392 . S
C49 C50 1.361 . S
C49 C51 1.500 . S
C50 C45 1.390 . S
C50 C49 1.361 . S
C50 H68 0.931 . S
C51 C49 1.500 . S
C51 C52 1.371 . S
C51 C53 1.365 . S
C52 C51 1.371 . S
C52 C62 1.386 . S
C52 H70 0.931 . S
C53 C51 1.365 . S
C53 C54 1.409 . S
C53 H71 0.929 . S
C54 C53 1.409 . S
C54 C55 1.380 . S
C54 H72 0.930 . S
C55 C54 1.380 . S
C55 C62 1.357 . S
C56 C47 1.511 . S
C56 C57 1.341 . S
C56 C58 1.371 . S
C57 C56 1.341 . S
C57 C61 1.394 . S
C57 H73 0.930 . S
C58 C56 1.371 . S
C58 C59 1.392 . S
C58 H74 0.931 . S
C59 C58 1.392 . S
C59 C60 1.331 . S
C59 H77 0.932 . S
C60 C59 1.331 . S
C60 C61 1.336 . S
C61 C57 1.394 . S
C61 C60 1.336 . S
C61 H76 0.929 . S
C62 C52 1.386 . S
C62 C55 1.357 . S
C62 H75 0.928 . S
H63 C39 0.931 . S
H64 C41 0.930 . S
H65 C43 0.929 . S
H66 C44 0.931 . S
H67 C46 0.930 . S
H68 C50 0.931 . S
H69 C48 0.931 . S
H70 C52 0.931 . S
H71 C53 0.929 . S
H72 C54 0.930 . S
H73 C57 0.930 . S
H74 C58 0.931 . S
H75 C62 0.928 . S
H76 C61 0.929 . S
H77 C59 0.932 . S
C78 C79 1.386 . S
C78 C80 1.397 . S
C78 H102 0.931 . S
C79 C78 1.386 . S
C79 C83 1.397 . S
C80 C78 1.397 . S
C80 C81 1.384 . S
C80 H103 0.930 . S
C81 C80 1.384 . S
C81 C82 1.377 . S
C81 C84 1.481 . S
C82 C81 1.377 . S
C82 C83 1.389 . S
C82 H104 0.929 . S
C83 C79 1.397 . S
C83 C82 1.389 . S
C83 H105 0.931 . S
C84 C81 1.481 . S
C84 C85 1.387 . S
C84 C89 1.390 . S
C85 C84 1.387 . S
C85 C86 1.401 . S
C85 H106 0.930 . S
C86 C85 1.401 . S
C86 C87 1.376 . S
C86 C95 1.511 . S
C87 C86 1.376 . S
C87 C88 1.392 . S
C87 H108 0.931 . S
C88 C87 1.392 . S
C88 C89 1.361 . S
C88 C90 1.500 . S
C89 C84 1.390 . S
C89 C88 1.361 . S
C89 H107 0.931 . S
C90 C88 1.500 . S
C90 C91 1.371 . S
C90 C92 1.365 . S
C91 C90 1.371 . S
C91 C101 1.386 . S
C91 H109 0.931 . S
C92 C90 1.365 . S
C92 C93 1.409 . S
C92 H110 0.929 . S
C93 C92 1.409 . S
C93 C94 1.380 . S
C93 H111 0.930 . S
C94 C93 1.380 . S
C94 C101 1.357 . S
C95 C86 1.511 . S
C95 C96 1.341 . S
C95 C97 1.371 . S
C96 C95 1.341 . S
C96 C100 1.394 . S
C96 H112 0.930 . S
C97 C95 1.371 . S
C97 C98 1.392 . S
C97 H113 0.931 . S
C98 C97 1.392 . S
C98 C99 1.331 . S
C98 H116 0.932 . S
C99 C98 1.331 . S
C99 C100 1.336 . S
C100 C96 1.394 . S
C100 C99 1.336 . S
C100 H115 0.929 . S
C101 C91 1.386 . S
C101 C94 1.357 . S
C101 H114 0.928 . S
H102 C78 0.931 . S
H103 C80 0.930 . S
H104 C82 0.929 . S
H105 C83 0.931 . S
H106 C85 0.930 . S
H107 C89 0.931 . S
H108 C87 0.931 . S
H109 C91 0.931 . S
H110 C92 0.929 . S
H111 C93 0.930 . S
H112 C96 0.930 . S
H113 C97 0.931 . S
H114 C101 0.928 . S
H115 C100 0.929 . S
H116 C98 0.932 . S
C117 C118 1.386 . S
C117 C119 1.397 . S
C117 H141 0.931 . S
C118 C117 1.386 . S
C118 C122 1.397 . S
C119 C117 1.397 . S
C119 C120 1.384 . S
C119 H142 0.930 . S
C120 C119 1.384 . S
C120 C121 1.377 . S
C120 C123 1.481 . S
C121 C120 1.377 . S
C121 C122 1.389 . S
C121 H143 0.929 . S
C122 C118 1.397 . S
C122 C121 1.389 . S
C122 H144 0.931 . S
C123 C120 1.481 . S
C123 C124 1.387 . S
C123 C128 1.390 . S
C124 C123 1.387 . S
C124 C125 1.401 . S
C124 H145 0.930 . S
C125 C124 1.401 . S
C125 C126 1.376 . S
C125 C134 1.511 . S
C126 C125 1.376 . S
C126 C127 1.392 . S
C126 H147 0.931 . S
C127 C126 1.392 . S
C127 C128 1.361 . S
C127 C129 1.500 . S
C128 C123 1.390 . S
C128 C127 1.361 . S
C128 H146 0.931 . S
C129 C127 1.500 . S
C129 C130 1.371 . S
C129 C131 1.365 . S
C130 C129 1.371 . S
C130 C140 1.386 . S
C130 H148 0.931 . S
C131 C129 1.365 . S
C131 C132 1.409 . S
C131 H149 0.929 . S
C132 C131 1.409 . S
C132 C133 1.380 . S
C132 H150 0.930 . S
C133 C132 1.380 . S
C133 C140 1.357 . S
C134 C125 1.511 . S
C134 C135 1.341 . S
C134 C136 1.371 . S
C135 C134 1.341 . S
C135 C139 1.394 . S
C135 H151 0.930 . S
C136 C134 1.371 . S
C136 C137 1.392 . S
C136 H152 0.931 . S
C137 C136 1.392 . S
C137 C138 1.331 . S
C137 H155 0.932 . S
C138 C137 1.331 . S
C138 C139 1.336 . S
C139 C135 1.394 . S
C139 C138 1.336 . S
C139 H154 0.929 . S
C140 C130 1.386 . S
C140 C133 1.357 . S
C140 H153 0.928 . S
H141 C117 0.931 . S
H142 C119 0.930 . S
H143 C121 0.929 . S
H144 C122 0.931 . S
H145 C124 0.930 . S
H146 C128 0.931 . S
H147 C126 0.931 . S
H148 C130 0.931 . S
H149 C131 0.929 . S
H150 C132 0.930 . S
H151 C135 0.930 . S
H152 C136 0.931 . S
H153 C140 0.928 . S
H154 C139 0.929 . S
H155 C137 0.932 . S
C156 C157 1.386 . S
C156 C158 1.397 . S
C156 H180 0.931 . S
C157 C156 1.386 . S
C157 C161 1.397 . S
C158 C156 1.397 . S
C158 C159 1.384 . S
C158 H181 0.930 . S
C159 C158 1.384 . S
C159 C160 1.377 . S
C159 C162 1.481 . S
C160 C159 1.377 . S
C160 C161 1.389 . S
C160 H182 0.929 . S
C161 C157 1.397 . S
C161 C160 1.389 . S
C161 H183 0.931 . S
C162 C159 1.481 . S
C162 C163 1.387 . S
C162 C167 1.390 . S
C163 C162 1.387 . S
C163 C164 1.401 . S
C163 H184 0.930 . S
C164 C163 1.401 . S
C164 C165 1.376 . S
C164 C173 1.511 . S
C165 C164 1.376 . S
C165 C166 1.392 . S
C165 H186 0.931 . S
C166 C165 1.392 . S
C166 C167 1.361 . S
C166 C168 1.500 . S
C167 C162 1.390 . S
C167 C166 1.361 . S
C167 H185 0.931 . S
C168 C166 1.500 . S
C168 C169 1.371 . S
C168 C170 1.365 . S
C169 C168 1.371 . S
C169 C179 1.386 . S
C169 H187 0.931 . S
C170 C168 1.365 . S
C170 C171 1.409 . S
C170 H188 0.929 . S
C171 C170 1.409 . S
C171 C172 1.380 . S
C171 H189 0.930 . S
C172 C171 1.380 . S
C172 C179 1.357 . S
C173 C164 1.511 . S
C173 C174 1.341 . S
C173 C175 1.371 . S
C174 C173 1.341 . S
C174 C178 1.394 . S
C174 H190 0.930 . S
C175 C173 1.371 . S
C175 C176 1.392 . S
C175 H191 0.931 . S
C176 C175 1.392 . S
C176 C177 1.331 . S
C176 H194 0.932 . S
C177 C176 1.331 . S
C177 C178 1.336 . S
C178 C174 1.394 . S
C178 C177 1.336 . S
C178 H193 0.929 . S
C179 C169 1.386 . S
C179 C172 1.357 . S
C179 H192 0.928 . S
H180 C156 0.931 . S
H181 C158 0.930 . S
H182 C160 0.929 . S
H183 C161 0.931 . S
H184 C163 0.930 . S
H185 C167 0.931 . S
H186 C165 0.931 . S
H187 C169 0.931 . S
H188 C170 0.929 . S
H189 C171 0.930 . S
H190 C174 0.930 . S
H191 C175 0.931 . S
H192 C179 0.928 . S
H193 C178 0.929 . S
H194 C176 0.932 . S
C195 C196 1.386 . S
C195 C197 1.397 . S
C195 H219 0.931 . S
C196 C195 1.386 . S
C196 C200 1.397 . S
C197 C195 1.397 . S
C197 C198 1.384 . S
C197 H220 0.930 . S
C198 C197 1.384 . S
C198 C199 1.377 . S
C198 C201 1.481 . S
C199 C198 1.377 . S
C199 C200 1.389 . S
C199 H221 0.929 . S
C200 C196 1.397 . S
C200 C199 1.389 . S
C200 H222 0.931 . S
C201 C198 1.481 . S
C201 C202 1.387 . S
C201 C206 1.390 . S
C202 C201 1.387 . S
C202 C203 1.401 . S
C202 H223 0.930 . S
C203 C202 1.401 . S
C203 C204 1.376 . S
C203 C212 1.511 . S
C204 C203 1.376 . S
C204 C205 1.392 . S
C204 H225 0.931 . S
C205 C204 1.392 . S
C205 C206 1.361 . S
C205 C207 1.500 . S
C206 C201 1.390 . S
C206 C205 1.361 . S
C206 H224 0.931 . S
C207 C205 1.500 . S
C207 C208 1.371 . S
C207 C209 1.365 . S
C208 C207 1.371 . S
C208 C218 1.386 . S
C208 H226 0.931 . S
C209 C207 1.365 . S
C209 C210 1.409 . S
C209 H227 0.929 . S
C210 C209 1.409 . S
C210 C211 1.380 . S
C210 H228 0.930 . S
C211 C210 1.380 . S
C211 C218 1.357 . S
C212 C203 1.511 . S
C212 C213 1.341 . S
C212 C214 1.371 . S
C213 C212 1.341 . S
C213 C217 1.394 . S
C213 H229 0.930 . S
C214 C212 1.371 . S
C214 C215 1.392 . S
C214 H230 0.931 . S
C215 C214 1.392 . S
C215 C216 1.331 . S
C215 H233 0.932 . S
C216 C215 1.331 . S
C216 C217 1.336 . S
C217 C213 1.394 . S
C217 C216 1.336 . S
C217 H232 0.929 . S
C218 C208 1.386 . S
C218 C211 1.357 . S
C218 H231 0.928 . S
H219 C195 0.931 . S
H220 C197 0.930 . S
H221 C199 0.929 . S
H222 C200 0.931 . S
H223 C202 0.930 . S
H224 C206 0.931 . S
H225 C204 0.931 . S
H226 C208 0.931 . S
H227 C209 0.929 . S
H228 C210 0.930 . S
H229 C213 0.930 . S
H230 C214 0.931 . S
H231 C218 0.928 . S
H232 C217 0.929 . S
H233 C215 0.932 . S
C234 C235 1.386 . S
C234 C236 1.397 . S
C234 H258 0.931 . S
C235 C234 1.386 . S
C235 C239 1.397 . S
C236 C234 1.397 . S
C236 C237 1.384 . S
C236 H259 0.930 . S
C237 C236 1.384 . S
C237 C238 1.377 . S
C237 C240 1.481 . S
C238 C237 1.377 . S
C238 C239 1.389 . S
C238 H260 0.929 . S
C239 C235 1.397 . S
C239 C238 1.389 . S
C239 H261 0.931 . S
C240 C237 1.481 . S
C240 C241 1.387 . S
C240 C245 1.390 . S
C241 C240 1.387 . S
C241 C242 1.401 . S
C241 H262 0.930 . S
C242 C241 1.401 . S
C242 C243 1.376 . S
C242 C251 1.511 . S
C243 C242 1.376 . S
C243 C244 1.392 . S
C243 H264 0.931 . S
C244 C243 1.392 . S
C244 C245 1.361 . S
C244 C246 1.500 . S
C245 C240 1.390 . S
C245 C244 1.361 . S
C245 H263 0.931 . S
C246 C244 1.500 . S
C246 C247 1.371 . S
C246 C248 1.365 . S
C247 C246 1.371 . S
C247 C257 1.386 . S
C247 H265 0.931 . S
C248 C246 1.365 . S
C248 C249 1.409 . S
C248 H266 0.929 . S
C249 C248 1.409 . S
C249 C250 1.380 . S
C249 H267 0.930 . S
C250 C249 1.380 . S
C250 C257 1.357 . S
C251 C242 1.511 . S
C251 C252 1.341 . S
C251 C253 1.371 . S
C252 C251 1.341 . S
C252 C256 1.394 . S
C252 H268 0.930 . S
C253 C251 1.371 . S
C253 C254 1.392 . S
C253 H269 0.931 . S
C254 C253 1.392 . S
C254 C255 1.331 . S
C254 H272 0.932 . S
C255 C254 1.331 . S
C255 C256 1.336 . S
C256 C252 1.394 . S
C256 C255 1.336 . S
C256 H271 0.929 . S
C257 C247 1.386 . S
C257 C250 1.357 . S
C257 H270 0.928 . S
H258 C234 0.931 . S
H259 C236 0.930 . S
H260 C238 0.929 . S
H261 C239 0.931 . S
H262 C241 0.930 . S
H263 C245 0.931 . S
H264 C243 0.931 . S
H265 C247 0.931 . S
H266 C248 0.929 . S
H267 C249 0.930 . S
H268 C252 0.930 . S
H269 C253 0.931 . S
H270 C257 0.928 . S
H271 C256 0.929 . S
H272 C254 0.932 . S
C273 C274 1.386 . S
C273 C275 1.397 . S
C273 H297 0.931 . S
C274 C273 1.386 . S
C274 C278 1.397 . S
C275 C273 1.397 . S
C275 C276 1.384 . S
C275 H298 0.930 . S
C276 C275 1.384 . S
C276 C277 1.377 . S
C276 C279 1.481 . S
C277 C276 1.377 . S
C277 C278 1.389 . S
C277 H299 0.929 . S
C278 C274 1.397 . S
C278 C277 1.389 . S
C278 H300 0.931 . S
C279 C276 1.481 . S
C279 C280 1.387 . S
C279 C284 1.390 . S
C280 C279 1.387 . S
C280 C281 1.401 . S
C280 H301 0.930 . S
C281 C280 1.401 . S
C281 C282 1.376 . S
C281 C290 1.511 . S
C282 C281 1.376 . S
C282 C283 1.392 . S
C282 H303 0.931 . S
C283 C282 1.392 . S
C283 C284 1.361 . S
C283 C285 1.500 . S
C284 C279 1.390 . S
C284 C283 1.361 . S
C284 H302 0.931 . S
C285 C283 1.500 . S
C285 C286 1.371 . S
C285 C287 1.365 . S
C286 C285 1.371 . S
C286 C296 1.386 . S
C286 H304 0.931 . S
C287 C285 1.365 . S
C287 C288 1.409 . S
C287 H305 0.929 . S
C288 C287 1.409 . S
C288 C289 1.380 . S
C288 H306 0.930 . S
C289 C288 1.380 . S
C289 C296 1.357 . S
C290 C281 1.511 . S
C290 C291 1.341 . S
C290 C292 1.371 . S
C291 C290 1.341 . S
C291 C295 1.394 . S
C291 H307 0.930 . S
C292 C290 1.371 . S
C292 C293 1.392 . S
C292 H308 0.931 . S
C293 C292 1.392 . S
C293 C294 1.331 . S
C293 H311 0.932 . S
C294 C293 1.331 . S
C294 C295 1.336 . S
C295 C291 1.394 . S
C295 C294 1.336 . S
C295 H310 0.929 . S
C296 C286 1.386 . S
C296 C289 1.357 . S
C296 H309 0.928 . S
H297 C273 0.931 . S
H298 C275 0.930 . S
H299 C277 0.929 . S
H300 C278 0.931 . S
H301 C280 0.930 . S
H302 C284 0.931 . S
H303 C282 0.931 . S
H304 C286 0.931 . S
H305 C287 0.929 . S
H306 C288 0.930 . S
H307 C291 0.930 . S
H308 C292 0.931 . S
H309 C296 0.928 . S
H310 C295 0.929 . S
H311 C293 0.932 . S
O312 Zn313 1.962 . S
O312 C328 1.205 1_655 S
Zn313 O312 1.962 . S
Zn313 O314 1.949 1_655 S
Zn313 O320 1.919 . S
Zn313 O325 1.924 . S
O314 Zn313 1.949 1_455 S
O314 Zn315 1.923 1_445 S
O314 Zn316 1.950 . S
O314 Zn317 1.945 1_545 S
Zn315 O314 1.923 1_665 S
Zn315 O318 1.933 . S
Zn315 O321 1.941 1_565 S
Zn315 O322 1.965 1_665 S
Zn316 O314 1.950 . S
Zn316 O323 1.938 . S
Zn316 O324 1.912 . S
Zn316 O334 1.953 . S
Zn317 O314 1.945 1_565 S
Zn317 O319 1.932 1_455 S
Zn317 O326 1.977 . S
Zn317 O327 1.910 1_455 S
O318 Zn315 1.933 . S
O318 C329 1.226 . S
O319 Zn317 1.932 1_655 S
O319 C329 1.307 . S
O320 Zn313 1.919 . S
O320 C331 1.253 . S
O321 Zn315 1.941 1_545 S
O321 C331 1.283 . S
O322 Zn315 1.965 1_445 S
O322 C330 1.303 . S
O323 Zn316 1.938 . S
O323 C330 1.247 . S
O324 Zn316 1.912 . S
O324 C332 1.295 1_545 S
O325 Zn313 1.924 . S
O325 C333 1.308 . S
O326 Zn317 1.977 . S
O326 C332 1.272 . S
O327 Zn317 1.910 1_655 S
O327 C333 1.234 1_565 S
C328 O312 1.205 1_455 S
C328 O334 1.298 . S
C329 O318 1.226 . S
C329 O319 1.307 . S
C330 O322 1.303 . S
C330 O323 1.247 . S
C331 O320 1.253 . S
C331 O321 1.283 . S
C332 O324 1.295 1_565 S
C332 O326 1.272 . S
C333 O325 1.308 . S
C333 O327 1.234 1_545 S
O334 Zn316 1.953 . S
O334 C328 1.298 . S
O335 Zn336 1.953 . S
O335 C351 1.225 . S
Zn336 O335 1.953 . S
Zn336 O337 1.949 1_556 S
Zn336 O343 1.919 . S
Zn336 O348 1.924 1_556 S
O337 Zn336 1.949 1_554 S
O337 Zn338 1.923 1_545 S
O337 Zn339 1.950 . S
O337 Zn340 1.945 1_545 S
Zn338 O337 1.923 1_565 S
Zn338 O341 1.933 . S
Zn338 O344 1.941 1_554 S
Zn338 O345 1.965 . S
Zn339 O337 1.950 . S
Zn339 O346 1.938 . S
Zn339 O347 1.906 . S
Zn339 O357 1.953 . S
Zn340 O337 1.945 1_565 S
Zn340 O342 1.932 . S
Zn340 O349 1.977 1_565 S
Zn340 O350 1.910 1_565 S
O341 Zn338 1.933 . S
O341 C352 1.226 . S
O342 Zn340 1.932 . S
O342 C352 1.307 . S
O343 Zn336 1.919 . S
O343 C354 1.253 1_545 S
O344 Zn338 1.941 1_556 S
O344 C354 1.283 . S
O345 Zn338 1.965 . S
O345 C353 1.303 . S
O346 Zn339 1.938 . S
O346 C353 1.247 1_545 S
O347 Zn339 1.906 . S
O347 C355 1.304 . S
O348 Zn336 1.924 1_554 S
O348 C356 1.311 . S
O349 Zn340 1.977 1_545 S
O349 C355 1.272 . S
O350 Zn340 1.910 1_545 S
O350 C356 1.231 . S
C351 O335 1.225 . S
C351 O357 1.298 1_556 S
C352 O341 1.226 . S
C352 O342 1.307 . S
C353 O345 1.303 . S
C353 O346 1.247 1_565 S
C354 O343 1.253 1_565 S
C354 O344 1.283 . S
C355 O347 1.304 . S
C355 O349 1.272 . S
C356 O348 1.311 . S
C356 O350 1.231 . S
O357 Zn339 1.953 . S
O357 C351 1.298 1_554 S
O358 Zn359 1.953 . S
O358 C374 1.225 . S
Zn359 O358 1.953 . S
Zn359 O360 1.949 . S
Zn359 O366 1.919 . S
Zn359 O371 1.924 . S
O360 Zn359 1.949 . S
O360 Zn361 1.923 . S
O360 Zn362 1.950 . S
O360 Zn363 1.945 . S
Zn361 O360 1.923 . S
Zn361 O364 1.933 . S
Zn361 O367 1.941 . S
Zn361 O368 1.965 . S
Zn362 O360 1.950 . S
Zn362 O369 1.938 . S
Zn362 O370 1.906 . S
Zn362 O380 1.953 . S
Zn363 O360 1.945 . S
Zn363 O365 1.932 . S
Zn363 O372 1.977 . S
Zn363 O373 1.910 . S
O364 Zn361 1.933 . S
O364 C375 1.226 . S
O365 Zn363 1.932 . S
O365 C375 1.307 . S
O366 Zn359 1.919 . S
O366 C377 1.253 . S
O367 Zn361 1.941 . S
O367 C377 1.283 . S
O368 Zn361 1.965 . S
O368 C376 1.303 . S
O369 Zn362 1.938 . S
O369 C376 1.247 . S
O370 Zn362 1.906 . S
O370 C378 1.304 . S
O371 Zn359 1.924 . S
O371 C379 1.311 . S
O372 Zn363 1.977 . S
O372 C378 1.272 . S
O373 Zn363 1.910 . S
O373 C379 1.231 . S
C374 O358 1.225 . S
C374 O380 1.298 . S
C375 O364 1.226 . S
C375 O365 1.307 . S
C376 O368 1.303 . S
C376 O369 1.247 . S
C377 O366 1.253 . S
C377 O367 1.283 . S
C378 O370 1.304 . S
C378 O372 1.272 . S
C379 O371 1.311 . S
C379 O373 1.231 . S
O380 Zn362 1.953 . S
O380 C374 1.298 . S
O381 Zn382 1.953 . S
O381 C397 1.225 . S
Zn382 O381 1.953 . S
Zn382 O383 1.949 1_655 S
Zn382 O389 1.919 . S
Zn382 O394 1.924 . S
O383 Zn382 1.949 1_455 S
O383 Zn384 1.923 1_454 S
O383 Zn385 1.950 . S
O383 Zn386 1.945 1_554 S
Zn384 O383 1.923 1_656 S
Zn384 O387 1.933 1_655 S
Zn384 O390 1.941 . S
Zn384 O391 1.965 . S
Zn385 O383 1.950 . S
Zn385 O392 1.938 . S
Zn385 O393 1.906 . S
Zn385 O403 1.953 . S
Zn386 O383 1.945 1_556 S
Zn386 O388 1.932 . S
Zn386 O395 1.977 1_556 S
Zn386 O396 1.910 1_556 S
O387 Zn384 1.933 1_455 S
O387 C398 1.226 . S
O388 Zn386 1.932 . S
O388 C398 1.307 . S
O389 Zn382 1.919 . S
O389 C400 1.253 1_554 S
O390 Zn384 1.941 . S
O390 C400 1.283 . S
O391 Zn384 1.965 . S
O391 C399 1.303 . S
O392 Zn385 1.938 . S
O392 C399 1.247 1_454 S
O393 Zn385 1.906 . S
O393 C401 1.304 . S
O394 Zn382 1.924 . S
O394 C402 1.311 1_655 S
O395 Zn386 1.977 1_554 S
O395 C401 1.272 . S
O396 Zn386 1.910 1_554 S
O396 C402 1.231 . S
C397 O381 1.225 . S
C397 O403 1.298 1_655 S
C398 O387 1.226 . S
C398 O388 1.307 . S
C399 O391 1.303 . S
C399 O392 1.247 1_656 S
C400 O389 1.253 1_556 S
C400 O390 1.283 . S
C401 O393 1.304 . S
C401 O395 1.272 . S
C402 O394 1.311 1_455 S
C402 O396 1.231 . S
O403 Zn385 1.953 . S
O403 C397 1.298 1_455 S
H404 C422 0.951 . S
H405 C424 0.951 . S
H406 C426 0.950 . S
H407 C427 0.950 . S
H408 C429 0.950 . S
H409 C432 0.950 . S
H410 C433 0.950 . S
H411 C435 0.950 . S
H412 C436 0.950 . S
H413 C437 0.951 . S
H414 C439 0.951 . S
H415 C441 0.950 . S
H416 C442 0.950 . S
H417 C444 0.950 . S
H418 C447 0.950 . S
H419 C448 0.950 . S
H420 C450 0.930 1_565 S
H421 C451 0.950 . S
C422 H404 0.951 . S
C422 C423 1.366 . S
C422 C424 1.388 . S
C423 C422 1.366 . S
C423 C427 1.385 . S
C424 H405 0.951 . S
C424 C422 1.388 . S
C424 C425 1.366 . S
C425 C424 1.366 . S
C425 C426 1.414 . S
C425 C428 1.499 . S
C426 H406 0.950 . S
C426 C425 1.414 . S
C426 C427 1.374 . S
C427 H407 0.950 . S
C427 C423 1.385 . S
C427 C426 1.374 . S
C428 C425 1.499 . S
C428 C429 1.373 . S
C428 C430 1.389 . S
C429 H408 0.950 . S
C429 C428 1.373 . S
C429 C445 1.377 . S
C430 C428 1.389 . S
C430 C431 1.524 . S
C430 C444 1.377 . S
C431 C430 1.524 . S
C431 C432 1.397 . S
C431 C436 1.363 . S
C432 H409 0.950 . S
C432 C431 1.397 . S
C432 C433 1.334 . S
C433 H410 0.950 . S
C433 C432 1.334 . S
C433 C434 1.287 . S
C434 C433 1.287 . S
C434 C435 1.524 . S
C434 H453 0.913 . S
C435 H411 0.950 . S
C435 C434 1.524 . S
C435 C436 1.415 . S
C436 H412 0.950 . S
C436 C431 1.363 . S
C436 C435 1.415 . S
C437 H413 0.951 . S
C437 C438 1.366 . S
C437 C439 1.388 . S
C438 C437 1.366 . S
C438 C442 1.385 . S
C439 H414 0.951 . S
C439 C437 1.388 . S
C439 C440 1.366 . S
C440 C439 1.366 . S
C440 C441 1.414 . S
C440 C443 1.499 . S
C441 H415 0.950 . S
C441 C440 1.414 . S
C441 C442 1.374 . S
C442 H416 0.950 . S
C442 C438 1.385 . S
C442 C441 1.374 . S
C443 C440 1.499 . S
C443 C444 1.373 . S
C443 C445 1.389 . S
C444 H417 0.950 . S
C444 C430 1.377 . S
C444 C443 1.373 . S
C445 C429 1.377 . S
C445 C443 1.389 . S
C445 C446 1.524 . S
C446 C445 1.524 . S
C446 C447 1.397 . S
C446 C451 1.363 . S
C447 H418 0.950 . S
C447 C446 1.397 . S
C447 C448 1.334 1_455 S
C448 H419 0.950 . S
C448 C447 1.334 1_655 S
C448 C449 1.287 . S
C449 C448 1.287 . S
C449 C450 1.531 1_655 S
C449 H452 0.999 1_545 S
C450 H420 0.930 1_545 S
C450 C449 1.531 1_455 S
C450 C451 1.431 . S
C451 H421 0.950 . S
C451 C446 1.363 . S
C451 C450 1.431 . S
H452 C449 0.999 1_565 S
H453 C434 0.913 . S
H454 C472 0.951 . S
H455 C474 0.951 . S
H456 C476 0.950 . S
H457 C477 0.950 . S
H458 C479 0.950 . S
H459 C482 0.950 . S
H460 C483 0.950 . S
H461 C485 0.950 . S
H462 C486 0.950 . S
H463 C487 0.951 . S
H464 C489 0.951 . S
H465 C491 0.950 . S
H466 C492 0.950 . S
H467 C494 0.950 . S
H468 C497 0.950 . S
H469 C498 0.950 . S
H470 C500 0.950 . S
H471 C501 0.950 . S
C472 H454 0.951 . S
C472 C473 1.366 . S
C472 C474 1.388 . S
C473 C472 1.366 . S
C473 C477 1.385 . S
C474 H455 0.951 . S
C474 C472 1.388 . S
C474 C475 1.366 . S
C475 C474 1.366 . S
C475 C476 1.414 . S
C475 C478 1.499 . S
C476 H456 0.950 . S
C476 C475 1.414 . S
C476 C477 1.374 . S
C477 H457 0.950 . S
C477 C473 1.385 . S
C477 C476 1.374 . S
C478 C475 1.499 . S
C478 C479 1.373 . S
C478 C480 1.389 . S
C479 H458 0.950 . S
C479 C478 1.373 . S
C479 C495 1.377 . S
C480 C478 1.389 . S
C480 C481 1.524 . S
C480 C494 1.377 . S
C481 C480 1.524 . S
C481 C482 1.397 . S
C481 C486 1.363 . S
C482 H459 0.950 . S
C482 C481 1.397 . S
C482 C483 1.334 . S
C483 H460 0.950 . S
C483 C482 1.334 . S
C483 C484 1.287 . S
C484 C483 1.287 . S
C484 C485 1.524 . S
C484 H503 0.913 . S
C485 H461 0.950 . S
C485 C484 1.524 . S
C485 C486 1.415 . S
C486 H462 0.950 . S
C486 C481 1.363 . S
C486 C485 1.415 . S
C487 H463 0.951 . S
C487 C488 1.366 . S
C487 C489 1.388 . S
C488 C487 1.366 . S
C488 C492 1.385 . S
C489 H464 0.951 . S
C489 C487 1.388 . S
C489 C490 1.366 . S
C490 C489 1.366 . S
C490 C491 1.414 . S
C490 C493 1.499 . S
C491 H465 0.950 . S
C491 C490 1.414 . S
C491 C492 1.374 . S
C492 H466 0.950 . S
C492 C488 1.385 . S
C492 C491 1.374 . S
C493 C490 1.499 . S
C493 C494 1.373 . S
C493 C495 1.389 . S
C494 H467 0.950 . S
C494 C480 1.377 . S
C494 C493 1.373 . S
C495 C479 1.377 . S
C495 C493 1.389 . S
C495 C496 1.524 . S
C496 C495 1.524 . S
C496 C497 1.397 . S
C496 C501 1.363 . S
C497 H468 0.950 . S
C497 C496 1.397 . S
C497 C498 1.334 . S
C498 H469 0.950 . S
C498 C497 1.334 . S
C498 C499 1.287 . S
C499 C498 1.287 . S
C499 C500 1.524 . S
C499 H502 0.999 . S
C500 H470 0.950 . S
C500 C499 1.524 . S
C500 C501 1.415 . S
C501 H471 0.950 . S
C501 C496 1.363 . S
C501 C500 1.415 . S
H502 C499 0.999 . S
H503 C484 0.913 . S
H504 C522 0.951 . S
H505 C524 0.951 . S
H506 C526 0.950 . S
H507 C527 0.950 . S
H508 C529 0.950 . S
H509 C532 0.950 . S
H510 C533 0.950 . S
H511 C535 0.950 . S
H512 C536 0.950 . S
H513 C537 0.951 . S
H514 C539 0.951 . S
H515 C541 0.950 . S
H516 C542 0.950 . S
H517 C544 0.950 . S
H518 C547 0.950 . S
H519 C548 0.950 . S
H520 C550 0.950 . S
H521 C551 0.950 . S
C522 H504 0.951 . S
C522 C523 1.366 . S
C522 C524 1.388 . S
C523 C522 1.366 . S
C523 C527 1.385 . S
C524 H505 0.951 . S
C524 C522 1.388 . S
C524 C525 1.366 . S
C525 C524 1.366 . S
C525 C526 1.414 . S
C525 C528 1.499 . S
C526 H506 0.950 . S
C526 C525 1.414 . S
C526 C527 1.374 . S
C527 H507 0.950 . S
C527 C523 1.385 . S
C527 C526 1.374 . S
C528 C525 1.499 . S
C528 C529 1.373 . S
C528 C530 1.389 . S
C529 H508 0.950 . S
C529 C528 1.373 . S
C529 C545 1.377 . S
C530 C528 1.389 . S
C530 C531 1.524 . S
C530 C544 1.377 . S
C531 C530 1.524 . S
C531 C532 1.397 . S
C531 C536 1.363 . S
C532 H509 0.950 . S
C532 C531 1.397 . S
C532 C533 1.334 . S
C533 H510 0.950 . S
C533 C532 1.334 . S
C533 C534 1.287 . S
C534 C533 1.287 . S
C534 C535 1.524 . S
C534 H553 0.913 . S
C535 H511 0.950 . S
C535 C534 1.524 . S
C535 C536 1.415 . S
C536 H512 0.950 . S
C536 C531 1.363 . S
C536 C535 1.415 . S
C537 H513 0.951 . S
C537 C538 1.366 . S
C537 C539 1.388 . S
C538 C537 1.366 . S
C538 C542 1.385 . S
C539 H514 0.951 . S
C539 C537 1.388 . S
C539 C540 1.366 . S
C540 C539 1.366 . S
C540 C541 1.414 . S
C540 C543 1.499 . S
C541 H515 0.950 . S
C541 C540 1.414 . S
C541 C542 1.374 . S
C542 H516 0.950 . S
C542 C538 1.385 . S
C542 C541 1.374 . S
C543 C540 1.499 . S
C543 C544 1.373 . S
C543 C545 1.389 . S
C544 H517 0.950 . S
C544 C530 1.377 . S
C544 C543 1.373 . S
C545 C529 1.377 . S
C545 C543 1.389 . S
C545 C546 1.524 . S
C546 C545 1.524 . S
C546 C547 1.397 . S
C546 C551 1.363 . S
C547 H518 0.950 . S
C547 C546 1.397 . S
C547 C548 1.334 . S
C548 H519 0.950 . S
C548 C547 1.334 . S
C548 C549 1.287 . S
C549 C548 1.287 . S
C549 C550 1.524 . S
C549 H552 0.999 . S
C550 H520 0.950 . S
C550 C549 1.524 . S
C550 C551 1.415 . S
C551 H521 0.950 . S
C551 C546 1.363 . S
C551 C550 1.415 . S
H552 C549 0.999 . S
H553 C534 0.913 . S
H554 C572 0.951 . S
H555 C574 0.951 . S
H556 C576 0.950 . S
H557 C577 0.950 . S
H558 C579 0.950 . S
H559 C582 0.950 . S
H560 C583 0.950 . S
H561 C585 0.950 . S
H562 C586 0.950 . S
H563 C587 0.951 . S
H564 C589 0.951 . S
H565 C591 0.950 . S
H566 C592 0.950 . S
H567 C594 0.950 . S
H568 C597 0.950 . S
H569 C598 0.950 . S
H570 C600 0.950 . S
H571 C601 0.950 . S
C572 H554 0.951 . S
C572 C573 1.366 . S
C572 C574 1.388 . S
C573 C572 1.366 . S
C573 C577 1.385 . S
C574 H555 0.951 . S
C574 C572 1.388 . S
C574 C575 1.366 . S
C575 C574 1.366 . S
C575 C576 1.414 . S
C575 C578 1.499 . S
C576 H556 0.950 . S
C576 C575 1.414 . S
C576 C577 1.374 . S
C577 H557 0.950 . S
C577 C573 1.385 . S
C577 C576 1.374 . S
C578 C575 1.499 . S
C578 C579 1.373 . S
C578 C580 1.389 . S
C579 H558 0.950 . S
C579 C578 1.373 . S
C579 C595 1.377 . S
C580 C578 1.389 . S
C580 C581 1.524 . S
C580 C594 1.377 . S
C581 C580 1.524 . S
C581 C582 1.397 . S
C581 C586 1.363 . S
C582 H559 0.950 . S
C582 C581 1.397 . S
C582 C583 1.334 . S
C583 H560 0.950 . S
C583 C582 1.334 . S
C583 C584 1.287 . S
C584 C583 1.287 . S
C584 C585 1.524 . S
C584 H603 0.913 . S
C585 H561 0.950 . S
C585 C584 1.524 . S
C585 C586 1.415 . S
C586 H562 0.950 . S
C586 C581 1.363 . S
C586 C585 1.415 . S
C587 H563 0.951 . S
C587 C588 1.366 . S
C587 C589 1.388 . S
C588 C587 1.366 . S
C588 C592 1.385 . S
C589 H564 0.951 . S
C589 C587 1.388 . S
C589 C590 1.366 . S
C590 C589 1.366 . S
C590 C591 1.414 . S
C590 C593 1.499 . S
C591 H565 0.950 . S
C591 C590 1.414 . S
C591 C592 1.374 . S
C592 H566 0.950 . S
C592 C588 1.385 . S
C592 C591 1.374 . S
C593 C590 1.499 . S
C593 C594 1.373 . S
C593 C595 1.389 . S
C594 H567 0.950 . S
C594 C580 1.377 . S
C594 C593 1.373 . S
C595 C579 1.377 . S
C595 C593 1.389 . S
C595 C596 1.524 . S
C596 C595 1.524 . S
C596 C597 1.397 1_655 S
C596 C601 1.363 . S
C597 H568 0.950 . S
C597 C596 1.397 1_455 S
C597 C598 1.334 . S
C598 H569 0.950 . S
C598 C597 1.334 . S
C598 C599 1.287 . S
C599 C598 1.287 . S
C599 C600 1.524 . S
C599 H602 0.999 . S
C600 H570 0.950 . S
C600 C599 1.524 . S
C600 C601 1.415 1_455 S
C601 H571 0.950 . S
C601 C596 1.363 . S
C601 C600 1.415 1_655 S
H602 C599 0.999 . S
H603 C584 0.913 . S
H604 C622 0.951 . S
H605 C624 0.951 . S
H606 C626 0.950 . S
H607 C627 0.950 . S
H608 C629 0.950 . S
H609 C632 0.950 . S
H610 C633 0.950 . S
H611 C635 0.950 . S
H612 C636 0.950 . S
H613 C637 0.951 . S
H614 C639 0.951 . S
H615 C641 0.950 . S
H616 C642 0.950 . S
H617 C644 0.950 . S
H618 C647 0.950 . S
H619 C648 0.950 . S
H620 C650 0.950 1_556 S
H621 C651 0.950 . S
C622 H604 0.951 . S
C622 C623 1.366 . S
C622 C624 1.388 . S
C623 C622 1.366 . S
C623 C627 1.385 . S
C624 H605 0.951 . S
C624 C622 1.388 . S
C624 C625 1.366 . S
C625 C624 1.366 . S
C625 C626 1.414 . S
C625 C628 1.499 . S
C626 H606 0.950 . S
C626 C625 1.414 . S
C626 C627 1.374 . S
C627 H607 0.950 . S
C627 C623 1.385 . S
C627 C626 1.374 . S
C628 C625 1.499 . S
C628 C629 1.373 . S
C628 C630 1.389 . S
C629 H608 0.950 . S
C629 C628 1.373 . S
C629 C645 1.377 . S
C630 C628 1.389 . S
C630 C631 1.524 . S
C630 C644 1.377 . S
C631 C630 1.524 . S
C631 C632 1.397 . S
C631 C636 1.363 . S
C632 H609 0.950 . S
C632 C631 1.397 . S
C632 C633 1.334 . S
C633 H610 0.950 . S
C633 C632 1.334 . S
C633 C634 1.287 . S
C634 C633 1.287 . S
C634 C635 1.524 . S
C634 H653 0.913 . S
C635 H611 0.950 . S
C635 C634 1.524 . S
C635 C636 1.415 . S
C636 H612 0.950 . S
C636 C631 1.363 . S
C636 C635 1.415 . S
C637 H613 0.951 . S
C637 C638 1.366 . S
C637 C639 1.388 . S
C638 C637 1.366 . S
C638 C642 1.385 . S
C639 H614 0.951 . S
C639 C637 1.388 . S
C639 C640 1.366 . S
C640 C639 1.366 . S
C640 C641 1.414 . S
C640 C643 1.499 . S
C641 H615 0.950 . S
C641 C640 1.414 . S
C641 C642 1.374 . S
C642 H616 0.950 . S
C642 C638 1.385 . S
C642 C641 1.374 . S
C643 C640 1.499 . S
C643 C644 1.373 . S
C643 C645 1.389 . S
C644 H617 0.950 . S
C644 C630 1.377 . S
C644 C643 1.373 . S
C645 C629 1.377 . S
C645 C643 1.389 . S
C645 C646 1.524 . S
C646 C645 1.524 . S
C646 C647 1.397 . S
C646 C651 1.363 . S
C647 H618 0.950 . S
C647 C646 1.397 . S
C647 C648 1.334 1_545 S
C648 H619 0.950 . S
C648 C647 1.334 1_565 S
C648 C649 1.287 . S
C649 C648 1.287 . S
C649 C650 1.524 1_565 S
C649 H652 0.999 . S
C650 H620 0.950 1_554 S
C650 C649 1.524 1_545 S
C650 C651 1.415 . S
C651 H621 0.950 . S
C651 C646 1.363 . S
C651 C650 1.415 . S
H652 C649 0.999 . S
H653 C634 0.913 . S
H654 C672 0.951 . S
H655 C674 0.951 . S
H656 C676 0.950 . S
H657 C677 0.950 . S
H658 C679 0.950 . S
H659 C682 0.950 . S
H660 C683 0.950 . S
H661 C685 0.950 . S
H662 C686 0.950 . S
H663 C687 0.951 . S
H664 C689 0.951 . S
H665 C691 0.950 . S
H666 C692 0.950 . S
H667 C694 0.950 . S
H668 C697 0.950 . S
H669 C698 0.950 . S
H670 C700 0.950 . S
H671 C701 0.952 . S
C672 H654 0.951 . S
C672 C673 1.366 . S
C672 C674 1.388 . S
C673 C672 1.366 . S
C673 C677 1.385 . S
C674 H655 0.951 . S
C674 C672 1.388 . S
C674 C675 1.366 . S
C675 C674 1.366 . S
C675 C676 1.414 . S
C675 C678 1.499 . S
C676 H656 0.950 . S
C676 C675 1.414 . S
C676 C677 1.374 . S
C677 H657 0.950 . S
C677 C673 1.385 . S
C677 C676 1.374 . S
C678 C675 1.499 . S
C678 C679 1.373 . S
C678 C680 1.389 . S
C679 H658 0.950 . S
C679 C678 1.373 . S
C679 C695 1.377 . S
C680 C678 1.389 . S
C680 C681 1.524 . S
C680 C694 1.377 . S
C681 C680 1.524 . S
C681 C682 1.397 . S
C681 C686 1.363 . S
C682 H659 0.950 . S
C682 C681 1.397 . S
C682 C683 1.334 . S
C683 H660 0.950 . S
C683 C682 1.334 . S
C683 C684 1.287 . S
C684 C683 1.287 . S
C684 C685 1.524 . S
C684 H703 0.913 . S
C685 H661 0.950 . S
C685 C684 1.524 . S
C685 C686 1.415 . S
C686 H662 0.950 . S
C686 C681 1.363 . S
C686 C685 1.415 . S
C687 H663 0.951 . S
C687 C688 1.366 . S
C687 C689 1.388 . S
C688 C687 1.366 . S
C688 C692 1.385 . S
C689 H664 0.951 . S
C689 C687 1.388 . S
C689 C690 1.366 . S
C690 C689 1.366 . S
C690 C691 1.414 . S
C690 C693 1.499 . S
C691 H665 0.950 . S
C691 C690 1.414 . S
C691 C692 1.374 . S
C692 H666 0.950 . S
C692 C688 1.385 . S
C692 C691 1.374 . S
C693 C690 1.499 . S
C693 C694 1.373 . S
C693 C695 1.389 . S
C694 H667 0.950 . S
C694 C680 1.377 . S
C694 C693 1.373 . S
C695 C679 1.377 . S
C695 C693 1.389 . S
C695 C696 1.524 . S
C696 C695 1.524 . S
C696 C697 1.397 . S
C696 C701 1.363 1_565 S
C697 H668 0.950 . S
C697 C696 1.397 . S
C697 C698 1.350 . S
C698 H669 0.950 . S
C698 C697 1.350 . S
C698 C699 1.270 1_565 S
C699 C698 1.270 1_545 S
C699 C700 1.524 . S
C699 H702 0.999 . S
C700 H670 0.950 . S
C700 C699 1.524 . S
C700 C701 1.415 . S
C701 H671 0.952 . S
C701 C696 1.363 1_545 S
C701 C700 1.415 . S
H702 C699 0.999 . S
H703 C684 0.913 . S
H704 C722 0.951 . S
H705 C724 0.951 . S
H706 C726 0.950 . S
H707 C727 0.950 . S
H708 C729 0.950 . S
H709 C732 0.950 . S
H710 C733 0.950 . S
H711 C735 0.950 . S
H712 C736 0.950 . S
H713 C737 0.951 1_554 S
H714 C739 0.951 . S
H715 C741 0.950 . S
H716 C742 0.950 . S
H717 C744 0.950 . S
H718 C747 0.950 . S
H719 C748 0.950 . S
H720 C750 0.950 . S
H721 C751 0.950 . S
C722 H704 0.951 . S
C722 C723 1.366 . S
C722 C724 1.388 . S
C723 C722 1.366 . S
C723 C727 1.385 . S
C724 H705 0.951 . S
C724 C722 1.388 . S
C724 C725 1.366 . S
C725 C724 1.366 . S
C725 C726 1.414 . S
C725 C728 1.499 . S
C726 H706 0.950 . S
C726 C725 1.414 . S
C726 C727 1.374 . S
C727 H707 0.950 . S
C727 C723 1.385 . S
C727 C726 1.374 . S
C728 C725 1.499 . S
C728 C729 1.373 . S
C728 C730 1.389 . S
C729 H708 0.950 . S
C729 C728 1.373 . S
C729 C745 1.377 . S
C730 C728 1.389 . S
C730 C731 1.524 . S
C730 C744 1.377 . S
C731 C730 1.524 . S
C731 C732 1.397 . S
C731 C736 1.363 . S
C732 H709 0.950 . S
C732 C731 1.397 . S
C732 C733 1.334 . S
C733 H710 0.950 . S
C733 C732 1.334 . S
C733 C734 1.287 . S
C734 C733 1.287 . S
C734 C735 1.524 . S
C734 H753 0.913 . S
C735 H711 0.950 . S
C735 C734 1.524 . S
C735 C736 1.415 . S
C736 H712 0.950 . S
C736 C731 1.363 . S
C736 C735 1.415 . S
C737 H713 0.951 1_556 S
C737 C738 1.366 . S
C737 C739 1.388 . S
C738 C737 1.366 . S
C738 C742 1.385 . S
C739 H714 0.951 . S
C739 C737 1.388 . S
C739 C740 1.366 . S
C740 C739 1.366 . S
C740 C741 1.414 . S
C740 C743 1.499 . S
C741 H715 0.950 . S
C741 C740 1.414 . S
C741 C742 1.374 . S
C742 H716 0.950 . S
C742 C738 1.385 . S
C742 C741 1.374 . S
C743 C740 1.499 . S
C743 C744 1.373 . S
C743 C745 1.389 . S
C744 H717 0.950 . S
C744 C730 1.377 . S
C744 C743 1.373 . S
C745 C729 1.377 . S
C745 C743 1.389 . S
C745 C746 1.524 . S
C746 C745 1.524 . S
C746 C747 1.397 . S
C746 C751 1.363 1_556 S
C747 H718 0.950 . S
C747 C746 1.397 . S
C747 C748 1.334 . S
C748 H719 0.950 . S
C748 C747 1.334 . S
C748 C749 1.287 1_556 S
C749 C748 1.287 1_554 S
C749 C750 1.524 . S
C749 H752 0.999 . S
C750 H720 0.950 . S
C750 C749 1.524 . S
C750 C751 1.415 . S
C751 H721 0.950 . S
C751 C746 1.363 1_554 S
C751 C750 1.415 . S
H752 C749 0.999 . S
H753 C734 0.913 . S
H754 C772 0.951 . S
H755 C774 0.951 . S
H756 C776 0.950 . S
H757 C777 0.950 . S
H758 C779 0.950 . S
H759 C782 0.950 . S
H760 C783 0.950 . S
H761 C785 0.950 . S
H762 C786 0.950 . S
H763 C787 0.951 . S
H764 C789 0.951 . S
H765 C791 0.950 . S
H766 C792 0.950 . S
H767 C794 0.950 . S
H768 C797 0.950 . S
H769 C798 0.950 . S
H770 C800 0.950 . S
H771 C801 0.950 . S
C772 H754 0.951 . S
C772 C773 1.366 . S
C772 C774 1.388 . S
C773 C772 1.366 . S
C773 C777 1.385 . S
C774 H755 0.951 . S
C774 C772 1.388 . S
C774 C775 1.366 . S
C775 C774 1.366 . S
C775 C776 1.414 . S
C775 C778 1.499 . S
C776 H756 0.950 . S
C776 C775 1.414 . S
C776 C777 1.374 . S
C777 H757 0.950 . S
C777 C773 1.385 . S
C777 C776 1.374 . S
C778 C775 1.499 . S
C778 C779 1.373 . S
C778 C780 1.389 . S
C779 H758 0.950 . S
C779 C778 1.373 . S
C779 C795 1.377 . S
C780 C778 1.389 . S
C780 C781 1.524 . S
C780 C794 1.377 . S
C781 C780 1.524 . S
C781 C782 1.397 . S
C781 C786 1.363 . S
C782 H759 0.950 . S
C782 C781 1.397 . S
C782 C783 1.334 . S
C783 H760 0.950 . S
C783 C782 1.334 . S
C783 C784 1.287 . S
C784 C783 1.287 . S
C784 C785 1.524 . S
C784 H803 0.913 . S
C785 H761 0.950 . S
C785 C784 1.524 . S
C785 C786 1.415 . S
C786 H762 0.950 . S
C786 C781 1.363 . S
C786 C785 1.415 . S
C787 H763 0.951 . S
C787 C788 1.366 . S
C787 C789 1.388 . S
C788 C787 1.366 . S
C788 C792 1.385 . S
C789 H764 0.951 . S
C789 C787 1.388 . S
C789 C790 1.366 . S
C790 C789 1.366 . S
C790 C791 1.414 . S
C790 C793 1.499 . S
C791 H765 0.950 . S
C791 C790 1.414 . S
C791 C792 1.374 . S
C792 H766 0.950 . S
C792 C788 1.385 . S
C792 C791 1.374 . S
C793 C790 1.499 . S
C793 C794 1.373 . S
C793 C795 1.389 . S
C794 H767 0.950 . S
C794 C780 1.377 . S
C794 C793 1.373 . S
C795 C779 1.377 . S
C795 C793 1.389 . S
C795 C796 1.524 . S
C796 C795 1.524 . S
C796 C797 1.397 . S
C796 C801 1.363 . S
C797 H768 0.950 . S
C797 C796 1.397 . S
C797 C798 1.334 . S
C798 H769 0.950 . S
C798 C797 1.334 . S
C798 C799 1.287 . S
C799 C798 1.287 . S
C799 C800 1.524 . S
C799 H802 0.999 . S
C800 H770 0.950 . S
C800 C799 1.524 . S
C800 C801 1.415 . S
C801 H771 0.950 . S
C801 C796 1.363 . S
C801 C800 1.415 . S
H802 C799 0.999 . S
H803 C784 0.913 . S
H804 C822 0.951 . S
H805 C824 0.951 . S
H806 C826 0.950 . S
H807 C827 0.950 . S
H808 C829 0.950 . S
H809 C832 0.950 . S
H810 C833 0.950 . S
H811 C835 0.950 . S
H812 C836 0.950 . S
H813 C837 0.951 . S
H814 C839 0.951 . S
H815 C841 0.950 . S
H816 C842 0.950 . S
H817 C844 0.950 . S
H818 C847 0.950 . S
H819 C848 0.950 . S
H820 C850 0.950 . S
H821 C851 0.950 . S
C822 H804 0.951 . S
C822 C823 1.366 . S
C822 C824 1.388 . S
C823 C822 1.366 . S
C823 C827 1.385 . S
C824 H805 0.951 . S
C824 C822 1.388 . S
C824 C825 1.366 . S
C825 C824 1.366 . S
C825 C826 1.414 . S
C825 C828 1.499 . S
C826 H806 0.950 . S
C826 C825 1.414 . S
C826 C827 1.374 . S
C827 H807 0.950 . S
C827 C823 1.385 . S
C827 C826 1.374 . S
C828 C825 1.499 . S
C828 C829 1.373 . S
C828 C830 1.389 . S
C829 H808 0.950 . S
C829 C828 1.373 . S
C829 C845 1.377 . S
C830 C828 1.389 . S
C830 C831 1.524 . S
C830 C844 1.377 . S
C831 C830 1.524 . S
C831 C832 1.397 . S
C831 C836 1.363 . S
C832 H809 0.950 . S
C832 C831 1.397 . S
C832 C833 1.334 . S
C833 H810 0.950 . S
C833 C832 1.334 . S
C833 C834 1.287 . S
C834 C833 1.287 . S
C834 C835 1.524 . S
C834 H853 0.913 . S
C835 H811 0.950 . S
C835 C834 1.524 . S
C835 C836 1.415 . S
C836 H812 0.950 . S
C836 C831 1.363 . S
C836 C835 1.415 . S
C837 H813 0.951 . S
C837 C838 1.366 . S
C837 C839 1.388 . S
C838 C837 1.366 . S
C838 C842 1.385 . S
C839 H814 0.951 . S
C839 C837 1.388 . S
C839 C840 1.366 . S
C840 C839 1.366 . S
C840 C841 1.414 . S
C840 C843 1.499 . S
C841 H815 0.950 . S
C841 C840 1.414 . S
C841 C842 1.374 . S
C842 H816 0.950 . S
C842 C838 1.385 . S
C842 C841 1.374 . S
C843 C840 1.499 . S
C843 C844 1.373 . S
C843 C845 1.389 . S
C844 H817 0.950 . S
C844 C830 1.377 . S
C844 C843 1.373 . S
C845 C829 1.377 . S
C845 C843 1.389 . S
C845 C846 1.524 . S
C846 C845 1.524 . S
C846 C847 1.397 . S
C846 C851 1.363 . S
C847 H818 0.950 . S
C847 C846 1.397 . S
C847 C848 1.334 1_554 S
C848 H819 0.950 . S
C848 C847 1.334 1_556 S
C848 C849 1.287 . S
C849 C848 1.287 . S
C849 C850 1.524 . S
C849 H852 0.999 . S
C850 H820 0.950 . S
C850 C849 1.524 . S
C850 C851 1.415 1_556 S
C851 H821 0.950 . S
C851 C846 1.363 . S
C851 C850 1.415 1_554 S
H852 C849 0.999 . S
H853 C834 0.913 . S
H854 C872 0.951 . S
H855 C874 0.951 . S
H856 C876 0.950 . S
H857 C877 0.950 . S
H858 C879 0.950 . S
H859 C882 0.950 . S
H860 C883 0.950 . S
H861 C885 0.950 . S
H862 C886 0.950 . S
H863 C887 0.951 . S
H864 C889 0.951 . S
H865 C891 0.950 . S
H866 C892 0.950 . S
H867 C894 0.950 . S
H868 C897 0.950 . S
H869 C898 0.950 . S
H870 C900 0.950 . S
H871 C901 0.950 . S
C872 H854 0.951 . S
C872 C873 1.366 . S
C872 C874 1.388 . S
C873 C872 1.366 . S
C873 C877 1.385 . S
C874 H855 0.951 . S
C874 C872 1.388 . S
C874 C875 1.366 . S
C875 C874 1.366 . S
C875 C876 1.414 . S
C875 C878 1.499 . S
C876 H856 0.950 . S
C876 C875 1.414 . S
C876 C877 1.374 . S
C877 H857 0.950 . S
C877 C873 1.385 . S
C877 C876 1.374 . S
C878 C875 1.499 . S
C878 C879 1.373 . S
C878 C880 1.389 . S
C879 H858 0.950 . S
C879 C878 1.373 . S
C879 C895 1.377 . S
C880 C878 1.389 . S
C880 C881 1.524 . S
C880 C894 1.377 . S
C881 C880 1.524 . S
C881 C882 1.397 . S
C881 C886 1.363 . S
C882 H859 0.950 . S
C882 C881 1.397 . S
C882 C883 1.334 . S
C883 H860 0.950 . S
C883 C882 1.334 . S
C883 C884 1.287 . S
C884 C883 1.287 . S
C884 C885 1.524 . S
C884 H903 0.913 . S
C885 H861 0.950 . S
C885 C884 1.524 . S
C885 C886 1.415 . S
C886 H862 0.950 . S
C886 C881 1.363 . S
C886 C885 1.415 . S
C887 H863 0.951 . S
C887 C888 1.366 . S
C887 C889 1.388 . S
C888 C887 1.366 . S
C888 C892 1.385 . S
C889 H864 0.951 . S
C889 C887 1.388 . S
C889 C890 1.366 . S
C890 C889 1.366 . S
C890 C891 1.414 . S
C890 C893 1.499 . S
C891 H865 0.950 . S
C891 C890 1.414 . S
C891 C892 1.374 . S
C892 H866 0.950 . S
C892 C888 1.385 . S
C892 C891 1.374 . S
C893 C890 1.499 . S
C893 C894 1.373 . S
C893 C895 1.389 . S
C894 H867 0.950 . S
C894 C880 1.377 . S
C894 C893 1.373 . S
C895 C879 1.377 . S
C895 C893 1.389 . S
C895 C896 1.524 1_556 S
C896 C895 1.524 1_554 S
C896 C897 1.397 . S
C896 C901 1.363 . S
C897 H868 0.950 . S
C897 C896 1.397 . S
C897 C898 1.334 . S
C898 H869 0.950 . S
C898 C897 1.334 . S
C898 C899 1.287 . S
C899 C898 1.287 . S
C899 C900 1.524 . S
C899 H902 0.999 . S
C900 H870 0.950 . S
C900 C899 1.524 . S
C900 C901 1.415 . S
C901 H871 0.950 . S
C901 C896 1.363 . S
C901 C900 1.415 . S
H902 C899 0.999 . S
H903 C884 0.913 . S
H904 C922 0.951 . S
H905 C924 0.951 . S
H906 C926 0.950 . S
H907 C927 0.950 . S
H908 C929 0.950 . S
H909 C932 0.950 . S
H910 C933 0.950 . S
H911 C935 0.950 . S
H912 C936 0.950 . S
H913 C937 0.951 . S
H914 C939 0.951 . S
H915 C941 0.950 1_455 S
H916 C942 0.950 . S
H917 C944 0.950 . S
H918 C947 0.950 . S
H919 C948 0.950 . S
H920 C950 0.950 . S
H921 C951 0.950 . S
C922 H904 0.951 . S
C922 C923 1.366 . S
C922 C924 1.388 . S
C923 C922 1.366 . S
C923 C927 1.385 . S
C924 H905 0.951 . S
C924 C922 1.388 . S
C924 C925 1.366 . S
C925 C924 1.366 . S
C925 C926 1.414 . S
C925 C928 1.499 . S
C926 H906 0.950 . S
C926 C925 1.414 . S
C926 C927 1.374 . S
C927 H907 0.950 . S
C927 C923 1.385 . S
C927 C926 1.374 . S
C928 C925 1.499 . S
C928 C929 1.373 . S
C928 C930 1.389 . S
C929 H908 0.950 . S
C929 C928 1.373 . S
C929 C945 1.377 . S
C930 C928 1.389 . S
C930 C931 1.524 . S
C930 C944 1.377 . S
C931 C930 1.524 . S
C931 C932 1.397 . S
C931 C936 1.363 1_655 S
C932 H909 0.950 . S
C932 C931 1.397 . S
C932 C933 1.334 . S
C933 H910 0.950 . S
C933 C932 1.334 . S
C933 C934 1.287 . S
C934 C933 1.287 . S
C934 C935 1.524 1_655 S
C934 H953 0.913 1_655 S
C935 H911 0.950 . S
C935 C934 1.524 1_455 S
C935 C936 1.415 . S
C936 H912 0.950 . S
C936 C931 1.363 1_455 S
C936 C935 1.415 . S
C937 H913 0.951 . S
C937 C938 1.366 . S
C937 C939 1.388 . S
C938 C937 1.366 . S
C938 C942 1.385 1_655 S
C939 H914 0.951 . S
C939 C937 1.388 . S
C939 C940 1.366 . S
C940 C939 1.366 . S
C940 C941 1.414 . S
C940 C943 1.499 . S
C941 H915 0.950 1_655 S
C941 C940 1.414 . S
C941 C942 1.374 1_655 S
C942 H916 0.950 . S
C942 C938 1.385 1_455 S
C942 C941 1.374 1_455 S
C943 C940 1.499 . S
C943 C944 1.373 . S
C943 C945 1.389 . S
C944 H917 0.950 . S
C944 C930 1.377 . S
C944 C943 1.373 . S
C945 C929 1.377 . S
C945 C943 1.389 . S
C945 C946 1.524 . S
C946 C945 1.524 . S
C946 C947 1.397 . S
C946 C951 1.363 . S
C947 H918 0.950 . S
C947 C946 1.397 . S
C947 C948 1.334 . S
C948 H919 0.950 . S
C948 C947 1.334 . S
C948 C949 1.287 . S
C949 C948 1.287 . S
C949 C950 1.524 . S
C949 H952 0.999 . S
C950 H920 0.950 . S
C950 C949 1.524 . S
C950 C951 1.415 . S
C951 H921 0.950 . S
C951 C946 1.363 . S
C951 C950 1.415 . S
H952 C949 0.999 . S
H953 C934 0.913 1_455 S
H954 C972 0.951 . S
H955 C974 0.951 . S
H956 C976 0.950 . S
H957 C977 0.950 . S
H958 C979 0.950 . S
H959 C982 0.950 . S
H960 C983 0.950 . S
H961 C985 0.950 . S
H962 C986 0.950 . S
H963 C987 0.951 . S
H964 C989 0.951 . S
H965 C991 0.950 . S
H966 C992 0.950 . S
H967 C994 0.950 . S
H968 C997 0.950 . S
H969 C998 0.950 . S
H970 C1000 0.950 . S
H971 C1001 0.950 . S
C972 H954 0.951 . S
C972 C973 1.366 . S
C972 C974 1.388 . S
C973 C972 1.366 . S
C973 C977 1.385 . S
C974 H955 0.951 . S
C974 C972 1.388 . S
C974 C975 1.366 . S
C975 C974 1.366 . S
C975 C976 1.414 . S
C975 C978 1.499 . S
C976 H956 0.950 . S
C976 C975 1.414 . S
C976 C977 1.374 . S
C977 H957 0.950 . S
C977 C973 1.385 . S
C977 C976 1.374 . S
C978 C975 1.499 . S
C978 C979 1.373 . S
C978 C980 1.389 . S
C979 H958 0.950 . S
C979 C978 1.373 . S
C979 C995 1.377 . S
C980 C978 1.389 . S
C980 C981 1.524 . S
C980 C994 1.377 . S
C981 C980 1.524 . S
C981 C982 1.397 . S
C981 C986 1.363 . S
C982 H959 0.950 . S
C982 C981 1.397 . S
C982 C983 1.334 . S
C983 H960 0.950 . S
C983 C982 1.334 . S
C983 C984 1.287 . S
C984 C983 1.287 . S
C984 C985 1.524 . S
C984 H1003 0.913 . S
C985 H961 0.950 . S
C985 C984 1.524 . S
C985 C986 1.415 . S
C986 H962 0.950 . S
C986 C981 1.363 . S
C986 C985 1.415 . S
C987 H963 0.951 . S
C987 C988 1.366 . S
C987 C989 1.388 . S
C988 C987 1.366 . S
C988 C992 1.385 . S
C989 H964 0.951 . S
C989 C987 1.388 . S
C989 C990 1.366 . S
C990 C989 1.366 . S
C990 C991 1.414 . S
C990 C993 1.499 . S
C991 H965 0.950 . S
C991 C990 1.414 . S
C991 C992 1.374 . S
C992 H966 0.950 . S
C992 C988 1.385 . S
C992 C991 1.374 . S
C993 C990 1.499 . S
C993 C994 1.373 . S
C993 C995 1.389 . S
C994 H967 0.950 . S
C994 C980 1.377 . S
C994 C993 1.373 . S
C995 C979 1.377 . S
C995 C993 1.389 . S
C995 C996 1.524 . S
C996 C995 1.524 . S
C996 C997 1.397 . S
C996 C1001 1.363 . S
C997 H968 0.950 . S
C997 C996 1.397 . S
C997 C998 1.334 . S
C998 H969 0.950 . S
C998 C997 1.334 . S
C998 C999 1.287 . S
C999 C998 1.287 . S
C999 C1000 1.524 . S
C999 H1002 0.999 . S
C1000 H970 0.950 . S
C1000 C999 1.524 . S
C1000 C1001 1.415 . S
C1001 H971 0.950 . S
C1001 C996 1.363 . S
C1001 C1000 1.415 . S
H1002 C999 0.999 . S
H1003 C984 0.913 . S
H1004 C1022 0.951 . S
H1005 C1024 0.951 . S
H1006 C1026 0.950 . S
H1007 C1027 0.950 1_545 S
H1008 C1029 0.950 . S
H1009 C1032 0.950 . S
H1010 C1033 0.950 . S
H1011 C1035 0.950 . S
H1012 C1036 0.943 1_655 S
H1013 C1037 0.951 . S
H1014 C1039 0.951 . S
H1015 C1041 0.950 . S
H1016 C1042 0.950 . S
H1017 C1044 0.950 . S
H1018 C1047 0.950 1_565 S
H1019 C1048 0.950 . S
H1020 C1050 0.950 . S
H1021 C1051 0.950 . S
C1022 H1004 0.951 . S
C1022 C1023 1.366 . S
C1022 C1024 1.388 . S
C1023 C1022 1.366 . S
C1023 C1027 1.385 . S
C1024 H1005 0.951 . S
C1024 C1022 1.388 . S
C1024 C1025 1.366 . S
C1025 C1024 1.366 . S
C1025 C1026 1.414 1_565 S
C1025 C1028 1.499 . S
C1026 H1006 0.950 . S
C1026 C1025 1.414 1_545 S
C1026 C1027 1.374 1_545 S
C1027 H1007 0.950 1_565 S
C1027 C1023 1.385 . S
C1027 C1026 1.374 1_565 S
C1028 C1025 1.499 . S
C1028 C1029 1.373 1_565 S
C1028 C1030 1.389 . S
C1029 H1008 0.950 . S
C1029 C1028 1.373 1_545 S
C1029 C1045 1.377 . S
C1030 C1028 1.389 . S
C1030 C1031 1.524 . S
C1030 C1044 1.377 . S
C1031 C1030 1.524 . S
C1031 C1032 1.397 1_655 S
C1031 C1036 1.361 1_655 S
C1032 H1009 0.950 . S
C1032 C1031 1.397 1_455 S
C1032 C1033 1.334 . S
C1033 H1010 0.950 . S
C1033 C1032 1.334 . S
C1033 C1034 1.287 . S
C1034 C1033 1.287 . S
C1034 C1035 1.524 . S
C1034 H1053 0.913 . S
C1035 H1011 0.950 . S
C1035 C1034 1.524 . S
C1035 C1036 1.424 . S
C1036 H1012 0.943 1_455 S
C1036 C1031 1.361 1_455 S
C1036 C1035 1.424 . S
C1037 H1013 0.951 . S
C1037 C1038 1.360 1_545 S
C1037 C1039 1.388 . S
C1038 C1037 1.360 1_565 S
C1038 C1042 1.391 . S
C1039 H1014 0.951 . S
C1039 C1037 1.388 . S
C1039 C1040 1.366 1_545 S
C1040 C1039 1.366 1_565 S
C1040 C1041 1.414 . S
C1040 C1043 1.499 . S
C1041 H1015 0.950 . S
C1041 C1040 1.414 . S
C1041 C1042 1.374 . S
C1042 H1016 0.950 . S
C1042 C1038 1.391 . S
C1042 C1041 1.374 . S
C1043 C1040 1.499 . S
C1043 C1044 1.373 . S
C1043 C1045 1.389 1_565 S
C1044 H1017 0.950 . S
C1044 C1030 1.377 . S
C1044 C1043 1.373 . S
C1045 C1029 1.377 . S
C1045 C1043 1.389 1_545 S
C1045 C1046 1.524 . S
C1046 C1045 1.524 . S
C1046 C1047 1.397 . S
C1046 C1051 1.363 . S
C1047 H1018 0.950 1_545 S
C1047 C1046 1.397 . S
C1047 C1048 1.334 . S
C1048 H1019 0.950 . S
C1048 C1047 1.334 . S
C1048 C1049 1.287 . S
C1049 C1048 1.287 . S
C1049 C1050 1.524 . S
C1049 H1052 0.999 . S
C1050 H1020 0.950 . S
C1050 C1049 1.524 . S
C1050 C1051 1.415 . S
C1051 H1021 0.950 . S
C1051 C1046 1.363 . S
C1051 C1050 1.415 . S
H1052 C1049 0.999 . S
H1053 C1034 0.913 . S
H1054 C1072 0.951 . S
H1055 C1074 0.951 . S
H1056 C1076 0.950 . S
H1057 C1077 0.950 . S
H1058 C1079 0.950 . S
H1059 C1082 0.950 1_565 S
H1060 C1083 0.950 1_565 S
H1061 C1085 0.950 . S
H1062 C1086 0.950 . S
H1063 C1087 0.967 . S
H1064 C1089 0.951 1_565 S
H1065 C1091 0.950 . S
H1066 C1092 0.950 . S
H1067 C1094 0.950 . S
H1068 C1097 0.950 . S
H1069 C1098 0.950 . S
H1070 C1100 0.950 . S
H1071 C1101 0.962 . S
C1072 H1054 0.951 . S
C1072 C1073 1.366 . S
C1072 C1074 1.388 . S
C1073 C1072 1.366 . S
C1073 C1077 1.385 . S
C1074 H1055 0.951 . S
C1074 C1072 1.388 . S
C1074 C1075 1.366 . S
C1075 C1074 1.366 . S
C1075 C1076 1.414 . S
C1075 C1078 1.499 . S
C1076 H1056 0.950 . S
C1076 C1075 1.414 . S
C1076 C1077 1.374 . S
C1077 H1057 0.950 . S
C1077 C1073 1.385 . S
C1077 C1076 1.374 . S
C1078 C1075 1.499 . S
C1078 C1079 1.373 . S
C1078 C1080 1.389 . S
C1079 H1058 0.950 . S
C1079 C1078 1.373 . S
C1079 C1095 1.377 . S
C1080 C1078 1.389 . S
C1080 C1081 1.524 . S
C1080 C1094 1.377 . S
C1081 C1080 1.524 . S
C1081 C1082 1.397 . S
C1081 C1086 1.363 . S
C1082 H1059 0.950 1_545 S
C1082 C1081 1.397 . S
C1082 C1083 1.334 . S
C1083 H1060 0.950 1_545 S
C1083 C1082 1.334 . S
C1083 C1084 1.287 . S
C1084 C1083 1.287 . S
C1084 C1085 1.524 . S
C1084 H1103 0.913 . S
C1085 H1061 0.950 . S
C1085 C1084 1.524 . S
C1085 C1086 1.415 . S
C1086 H1062 0.950 . S
C1086 C1081 1.363 . S
C1086 C1085 1.415 . S
C1087 H1063 0.967 . S
C1087 C1088 1.353 1_565 S
C1087 C1089 1.385 1_565 S
C1088 C1087 1.353 1_545 S
C1088 C1092 1.385 . S
C1089 H1064 0.951 1_545 S
C1089 C1087 1.385 1_545 S
C1089 C1090 1.366 . S
C1090 C1089 1.366 . S
C1090 C1091 1.414 . S
C1090 C1093 1.499 . S
C1091 H1065 0.950 . S
C1091 C1090 1.414 . S
C1091 C1092 1.374 . S
C1092 H1066 0.950 . S
C1092 C1088 1.385 . S
C1092 C1091 1.374 . S
C1093 C1090 1.499 . S
C1093 C1094 1.373 . S
C1093 C1095 1.389 . S
C1094 H1067 0.950 . S
C1094 C1080 1.377 . S
C1094 C1093 1.373 . S
C1095 C1079 1.377 . S
C1095 C1093 1.389 . S
C1095 C1096 1.524 . S
C1096 C1095 1.524 . S
C1096 C1097 1.397 . S
C1096 C1101 1.363 . S
C1097 H1068 0.950 . S
C1097 C1096 1.397 . S
C1097 C1098 1.334 . S
C1098 H1069 0.950 . S
C1098 C1097 1.334 . S
C1098 C1099 1.287 . S
C1099 C1098 1.287 . S
C1099 C1100 1.524 . S
C1099 H1102 0.999 . S
C1100 H1070 0.950 . S
C1100 C1099 1.524 . S
C1100 C1101 1.415 . S
C1101 H1071 0.962 . S
C1101 C1096 1.363 . S
C1101 C1100 1.415 . S
H1102 C1099 0.999 . S
H1103 C1084 0.913 . S
H1104 C1122 0.951 . S
H1105 C1124 0.951 . S
H1106 C1126 0.950 . S
H1107 C1127 0.950 . S
H1108 C1129 0.950 . S
H1109 C1132 0.950 . S
H1110 C1133 0.950 . S
H1111 C1135 0.950 . S
H1112 C1136 0.950 . S
H1113 C1137 0.951 . S
H1114 C1139 0.951 . S
H1115 C1141 0.950 . S
H1116 C1142 0.950 . S
H1117 C1144 0.950 . S
H1118 C1147 0.950 . S
H1119 C1148 0.950 . S
H1120 C1150 0.950 . S
H1121 C1151 0.950 . S
C1122 H1104 0.951 . S
C1122 C1123 1.366 . S
C1122 C1124 1.388 . S
C1123 C1122 1.366 . S
C1123 C1127 1.385 . S
C1124 H1105 0.951 . S
C1124 C1122 1.388 . S
C1124 C1125 1.366 . S
C1125 C1124 1.366 . S
C1125 C1126 1.414 . S
C1125 C1128 1.499 . S
C1126 H1106 0.950 . S
C1126 C1125 1.414 . S
C1126 C1127 1.374 . S
C1127 H1107 0.950 . S
C1127 C1123 1.385 . S
C1127 C1126 1.374 . S
C1128 C1125 1.499 . S
C1128 C1129 1.373 . S
C1128 C1130 1.389 . S
C1129 H1108 0.950 . S
C1129 C1128 1.373 . S
C1129 C1145 1.377 . S
C1130 C1128 1.389 . S
C1130 C1131 1.524 . S
C1130 C1144 1.377 . S
C1131 C1130 1.524 . S
C1131 C1132 1.397 . S
C1131 C1136 1.363 . S
C1132 H1109 0.950 . S
C1132 C1131 1.397 . S
C1132 C1133 1.334 . S
C1133 H1110 0.950 . S
C1133 C1132 1.334 . S
C1133 C1134 1.287 . S
C1134 C1133 1.287 . S
C1134 C1135 1.524 . S
C1134 H1153 0.913 . S
C1135 H1111 0.950 . S
C1135 C1134 1.524 . S
C1135 C1136 1.415 . S
C1136 H1112 0.950 . S
C1136 C1131 1.363 . S
C1136 C1135 1.415 . S
C1137 H1113 0.951 . S
C1137 C1138 1.366 . S
C1137 C1139 1.388 . S
C1138 C1137 1.366 . S
C1138 C1142 1.385 . S
C1139 H1114 0.951 . S
C1139 C1137 1.388 . S
C1139 C1140 1.366 . S
C1140 C1139 1.366 . S
C1140 C1141 1.414 . S
C1140 C1143 1.499 . S
C1141 H1115 0.950 . S
C1141 C1140 1.414 . S
C1141 C1142 1.374 . S
C1142 H1116 0.950 . S
C1142 C1138 1.385 . S
C1142 C1141 1.374 . S
C1143 C1140 1.499 . S
C1143 C1144 1.373 . S
C1143 C1145 1.389 . S
C1144 H1117 0.950 . S
C1144 C1130 1.377 . S
C1144 C1143 1.373 . S
C1145 C1129 1.377 . S
C1145 C1143 1.389 . S
C1145 C1146 1.524 . S
C1146 C1145 1.524 . S
C1146 C1147 1.397 . S
C1146 C1151 1.363 . S
C1147 H1118 0.950 . S
C1147 C1146 1.397 . S
C1147 C1148 1.334 . S
C1148 H1119 0.950 . S
C1148 C1147 1.334 . S
C1148 C1149 1.287 . S
C1149 C1148 1.287 . S
C1149 C1150 1.524 . S
C1149 H1152 0.999 . S
C1150 H1120 0.950 . S
C1150 C1149 1.524 . S
C1150 C1151 1.415 . S
C1151 H1121 0.950 . S
C1151 C1146 1.363 . S
C1151 C1150 1.415 . S
H1152 C1149 0.999 . S
H1153 C1134 0.913 . S
H1154 C1172 0.951 . S
H1155 C1174 0.951 . S
H1156 C1176 0.950 . S
H1157 C1177 0.950 . S
H1158 C1179 0.950 . S
H1159 C1182 0.950 . S
H1160 C1183 0.936 1_655 S
H1161 C1185 0.950 . S
H1162 C1186 0.950 . S
H1163 C1187 0.951 . S
H1164 C1189 0.951 . S
H1165 C1191 0.950 . S
H1166 C1192 0.950 . S
H1167 C1194 0.950 . S
H1168 C1197 0.950 . S
H1169 C1198 0.950 . S
H1170 C1200 0.950 . S
H1171 C1201 0.950 . S
C1172 H1154 0.951 . S
C1172 C1173 1.366 . S
C1172 C1174 1.388 . S
C1173 C1172 1.366 . S
C1173 C1177 1.385 . S
C1174 H1155 0.951 . S
C1174 C1172 1.388 . S
C1174 C1175 1.366 . S
C1175 C1174 1.366 . S
C1175 C1176 1.414 . S
C1175 C1178 1.499 . S
C1176 H1156 0.950 . S
C1176 C1175 1.414 . S
C1176 C1177 1.374 . S
C1177 H1157 0.950 . S
C1177 C1173 1.385 . S
C1177 C1176 1.374 . S
C1178 C1175 1.499 . S
C1178 C1179 1.373 . S
C1178 C1180 1.389 . S
C1179 H1158 0.950 . S
C1179 C1178 1.373 . S
C1179 C1195 1.377 . S
C1180 C1178 1.389 . S
C1180 C1181 1.524 . S
C1180 C1194 1.377 . S
C1181 C1180 1.524 . S
C1181 C1182 1.397 . S
C1181 C1186 1.363 . S
C1182 H1159 0.950 . S
C1182 C1181 1.397 . S
C1182 C1183 1.345 . S
C1183 H1160 0.936 1_455 S
C1183 C1182 1.345 . S
C1183 C1184 1.290 . S
C1184 C1183 1.290 . S
C1184 C1185 1.524 . S
C1184 H1203 0.913 1_455 S
C1185 H1161 0.950 . S
C1185 C1184 1.524 . S
C1185 C1186 1.415 . S
C1186 H1162 0.950 . S
C1186 C1181 1.363 . S
C1186 C1185 1.415 . S
C1187 H1163 0.951 . S
C1187 C1188 1.366 . S
C1187 C1189 1.388 . S
C1188 C1187 1.366 . S
C1188 C1192 1.385 . S
C1189 H1164 0.951 . S
C1189 C1187 1.388 . S
C1189 C1190 1.366 . S
C1190 C1189 1.366 . S
C1190 C1191 1.414 . S
C1190 C1193 1.499 . S
C1191 H1165 0.950 . S
C1191 C1190 1.414 . S
C1191 C1192 1.374 . S
C1192 H1166 0.950 . S
C1192 C1188 1.385 . S
C1192 C1191 1.374 . S
C1193 C1190 1.499 . S
C1193 C1194 1.373 . S
C1193 C1195 1.389 . S
C1194 H1167 0.950 . S
C1194 C1180 1.377 . S
C1194 C1193 1.373 . S
C1195 C1179 1.377 . S
C1195 C1193 1.389 . S
C1195 C1196 1.524 . S
C1196 C1195 1.524 . S
C1196 C1197 1.397 . S
C1196 C1201 1.363 . S
C1197 H1168 0.950 . S
C1197 C1196 1.397 . S
C1197 C1198 1.334 . S
C1198 H1169 0.950 . S
C1198 C1197 1.334 . S
C1198 C1199 1.287 . S
C1199 C1198 1.287 . S
C1199 C1200 1.524 . S
C1199 H1202 0.999 . S
C1200 H1170 0.950 . S
C1200 C1199 1.524 . S
C1200 C1201 1.415 . S
C1201 H1171 0.950 . S
C1201 C1196 1.363 . S
C1201 C1200 1.415 . S
H1202 C1199 0.999 . S
H1203 C1184 0.913 1_655 S
H1204 C1222 0.951 . S
H1205 C1224 0.949 . S
H1206 C1226 0.950 . S
H1207 C1227 0.950 . S
H1208 C1229 0.950 . S
H1209 C1232 0.950 1_556 S
H1210 C1233 0.950 . S
H1211 C1235 0.950 . S
H1212 C1236 0.950 . S
H1213 C1237 0.951 . S
H1214 C1239 0.951 . S
H1215 C1241 0.950 . S
H1216 C1242 0.950 . S
H1217 C1244 0.950 1_554 S
H1218 C1247 0.950 . S
H1219 C1248 0.950 . S
H1220 C1250 0.950 . S
H1221 C1251 0.950 . S
C1222 H1204 0.951 . S
C1222 C1223 1.366 . S
C1222 C1224 1.388 . S
C1223 C1222 1.366 . S
C1223 C1227 1.385 . S
C1224 H1205 0.949 . S
C1224 C1222 1.388 . S
C1224 C1225 1.366 . S
C1225 C1224 1.366 . S
C1225 C1226 1.414 . S
C1225 C1228 1.499 . S
C1226 H1206 0.950 . S
C1226 C1225 1.414 . S
C1226 C1227 1.374 . S
C1227 H1207 0.950 . S
C1227 C1223 1.385 . S
C1227 C1226 1.374 . S
C1228 C1225 1.499 . S
C1228 C1229 1.373 . S
C1228 C1230 1.389 . S
C1229 H1208 0.950 . S
C1229 C1228 1.373 . S
C1229 C1245 1.377 . S
C1230 C1228 1.389 . S
C1230 C1231 1.524 1_556 S
C1230 C1244 1.377 . S
C1231 C1230 1.524 1_554 S
C1231 C1232 1.397 . S
C1231 C1236 1.363 . S
C1232 H1209 0.950 1_554 S
C1232 C1231 1.397 . S
C1232 C1233 1.334 . S
C1233 H1210 0.950 . S
C1233 C1232 1.334 . S
C1233 C1234 1.287 . S
C1234 C1233 1.287 . S
C1234 C1235 1.524 . S
C1234 H1253 0.913 . S
C1235 H1211 0.950 . S
C1235 C1234 1.524 . S
C1235 C1236 1.415 . S
C1236 H1212 0.950 . S
C1236 C1231 1.363 . S
C1236 C1235 1.415 . S
C1237 H1213 0.951 . S
C1237 C1238 1.366 . S
C1237 C1239 1.388 . S
C1238 C1237 1.366 . S
C1238 C1242 1.385 1_566 S
C1239 H1214 0.951 . S
C1239 C1237 1.388 . S
C1239 C1240 1.366 . S
C1240 C1239 1.366 . S
C1240 C1241 1.414 1_566 S
C1240 C1243 1.499 . S
C1241 H1215 0.950 . S
C1241 C1240 1.414 1_544 S
C1241 C1242 1.374 . S
C1242 H1216 0.950 . S
C1242 C1238 1.385 1_544 S
C1242 C1241 1.374 . S
C1243 C1240 1.499 . S
C1243 C1244 1.373 . S
C1243 C1245 1.389 . S
C1244 H1217 0.950 1_556 S
C1244 C1230 1.377 . S
C1244 C1243 1.373 . S
C1245 C1229 1.377 . S
C1245 C1243 1.389 . S
C1245 C1246 1.524 1_565 S
C1246 C1245 1.524 1_545 S
C1246 C1247 1.397 . S
C1246 C1251 1.363 1_545 S
C1247 H1218 0.950 . S
C1247 C1246 1.397 . S
C1247 C1248 1.334 . S
C1248 H1219 0.950 . S
C1248 C1247 1.334 . S
C1248 C1249 1.287 . S
C1249 C1248 1.287 . S
C1249 C1250 1.524 . S
C1249 H1252 0.999 . S
C1250 H1220 0.950 . S
C1250 C1249 1.524 . S
C1250 C1251 1.415 1_545 S
C1251 H1221 0.950 . S
C1251 C1246 1.363 1_565 S
C1251 C1250 1.415 1_565 S
H1252 C1249 0.999 . S
H1253 C1234 0.913 . S
H1254 C1272 0.951 . S
H1255 C1274 0.951 . S
H1256 C1276 0.950 . S
H1257 C1277 0.950 . S
H1258 C1279 0.950 1_565 S
H1259 C1282 0.950 . S
H1260 C1283 0.950 . S
H1261 C1285 0.950 . S
H1262 C1286 0.950 . S
H1263 C1287 0.951 1_565 S
H1264 C1289 0.951 1_565 S
H1265 C1291 0.950 . S
H1266 C1292 0.950 . S
H1267 C1294 0.950 . S
H1268 C1297 0.950 . S
H1269 C1298 0.950 . S
H1270 C1300 0.950 . S
H1271 C1301 0.950 . S
C1272 H1254 0.951 . S
C1272 C1273 1.366 . S
C1272 C1274 1.388 . S
C1273 C1272 1.366 . S
C1273 C1277 1.385 . S
C1274 H1255 0.951 . S
C1274 C1272 1.388 . S
C1274 C1275 1.366 . S
C1275 C1274 1.366 . S
C1275 C1276 1.414 . S
C1275 C1278 1.499 . S
C1276 H1256 0.950 . S
C1276 C1275 1.414 . S
C1276 C1277 1.374 . S
C1277 H1257 0.950 . S
C1277 C1273 1.385 . S
C1277 C1276 1.374 . S
C1278 C1275 1.499 . S
C1278 C1279 1.373 . S
C1278 C1280 1.389 . S
C1279 H1258 0.950 1_545 S
C1279 C1278 1.373 . S
C1279 C1295 1.377 . S
C1280 C1278 1.389 . S
C1280 C1281 1.524 . S
C1280 C1294 1.377 . S
C1281 C1280 1.524 . S
C1281 C1282 1.397 . S
C1281 C1286 1.363 . S
C1282 H1259 0.950 . S
C1282 C1281 1.397 . S
C1282 C1283 1.334 . S
C1283 H1260 0.950 . S
C1283 C1282 1.334 . S
C1283 C1284 1.287 . S
C1284 C1283 1.287 . S
C1284 C1285 1.524 . S
C1284 H1303 0.913 . S
C1285 H1261 0.950 . S
C1285 C1284 1.524 . S
C1285 C1286 1.415 . S
C1286 H1262 0.950 . S
C1286 C1281 1.363 . S
C1286 C1285 1.415 . S
C1287 H1263 0.951 1_545 S
C1287 C1288 1.366 . S
C1287 C1289 1.388 . S
C1288 C1287 1.366 . S
C1288 C1292 1.385 . S
C1289 H1264 0.951 1_545 S
C1289 C1287 1.388 . S
C1289 C1290 1.366 . S
C1290 C1289 1.366 . S
C1290 C1291 1.414 . S
C1290 C1293 1.499 . S
C1291 H1265 0.950 . S
C1291 C1290 1.414 . S
C1291 C1292 1.374 . S
C1292 H1266 0.950 . S
C1292 C1288 1.385 . S
C1292 C1291 1.374 . S
C1293 C1290 1.499 . S
C1293 C1294 1.373 . S
C1293 C1295 1.389 . S
C1294 H1267 0.950 . S
C1294 C1280 1.377 . S
C1294 C1293 1.373 . S
C1295 C1279 1.377 . S
C1295 C1293 1.389 . S
C1295 C1296 1.524 1_545 S
C1296 C1295 1.524 1_565 S
C1296 C1297 1.397 . S
C1296 C1301 1.363 . S
C1297 H1268 0.950 . S
C1297 C1296 1.397 . S
C1297 C1298 1.334 . S
C1298 H1269 0.950 . S
C1298 C1297 1.334 . S
C1298 C1299 1.287 . S
C1299 C1298 1.287 . S
C1299 C1300 1.524 . S
C1299 H1302 0.999 . S
C1300 H1270 0.950 . S
C1300 C1299 1.524 . S
C1300 C1301 1.415 . S
C1301 H1271 0.950 . S
C1301 C1296 1.363 . S
C1301 C1300 1.415 . S
H1302 C1299 0.999 . S
H1303 C1284 0.913 . S
H1304 C1322 0.951 . S
H1305 C1324 0.951 . S
H1306 C1326 0.950 . S
H1307 C1327 0.950 . S
H1308 C1329 0.950 . S
H1309 C1332 0.950 . S
H1310 C1333 0.950 . S
H1311 C1335 0.950 . S
H1312 C1336 0.950 . S
H1313 C1337 0.951 . S
H1314 C1339 0.951 1_556 S
H1315 C1341 0.950 . S
H1316 C1342 0.950 . S
H1317 C1344 0.950 . S
H1318 C1347 0.950 . S
H1319 C1348 0.950 . S
H1320 C1350 0.950 . S
H1321 C1351 0.950 . S
C1322 H1304 0.951 . S
C1322 C1323 1.366 . S
C1322 C1324 1.388 . S
C1323 C1322 1.366 . S
C1323 C1327 1.385 . S
C1324 H1305 0.951 . S
C1324 C1322 1.388 . S
C1324 C1325 1.366 . S
C1325 C1324 1.366 . S
C1325 C1326 1.414 . S
C1325 C1328 1.499 . S
C1326 H1306 0.950 . S
C1326 C1325 1.414 . S
C1326 C1327 1.374 . S
C1327 H1307 0.950 . S
C1327 C1323 1.385 . S
C1327 C1326 1.374 . S
C1328 C1325 1.499 . S
C1328 C1329 1.373 . S
C1328 C1330 1.389 . S
C1329 H1308 0.950 . S
C1329 C1328 1.373 . S
C1329 C1345 1.377 . S
C1330 C1328 1.389 . S
C1330 C1331 1.524 . S
C1330 C1344 1.377 . S
C1331 C1330 1.524 . S
C1331 C1332 1.397 . S
C1331 C1336 1.363 . S
C1332 H1309 0.950 . S
C1332 C1331 1.397 . S
C1332 C1333 1.334 . S
C1333 H1310 0.950 . S
C1333 C1332 1.334 . S
C1333 C1334 1.287 . S
C1334 C1333 1.287 . S
C1334 C1335 1.524 . S
C1334 H1353 0.913 . S
C1335 H1311 0.950 . S
C1335 C1334 1.524 . S
C1335 C1336 1.415 . S
C1336 H1312 0.950 . S
C1336 C1331 1.363 . S
C1336 C1335 1.415 . S
C1337 H1313 0.951 . S
C1337 C1338 1.366 1_556 S
C1337 C1339 1.388 1_556 S
C1338 C1337 1.366 1_554 S
C1338 C1342 1.385 . S
C1339 H1314 0.951 1_554 S
C1339 C1337 1.388 1_554 S
C1339 C1340 1.366 . S
C1340 C1339 1.366 . S
C1340 C1341 1.414 . S
C1340 C1343 1.499 . S
C1341 H1315 0.950 . S
C1341 C1340 1.414 . S
C1341 C1342 1.374 . S
C1342 H1316 0.950 . S
C1342 C1338 1.385 . S
C1342 C1341 1.374 . S
C1343 C1340 1.499 . S
C1343 C1344 1.373 . S
C1343 C1345 1.389 . S
C1344 H1317 0.950 . S
C1344 C1330 1.377 . S
C1344 C1343 1.373 . S
C1345 C1329 1.377 . S
C1345 C1343 1.389 . S
C1345 C1346 1.524 . S
C1346 C1345 1.524 . S
C1346 C1347 1.397 . S
C1346 C1351 1.363 . S
C1347 H1318 0.950 . S
C1347 C1346 1.397 . S
C1347 C1348 1.334 . S
C1348 H1319 0.950 . S
C1348 C1347 1.334 . S
C1348 C1349 1.287 . S
C1349 C1348 1.287 . S
C1349 C1350 1.524 . S
C1349 H1352 0.999 . S
C1350 H1320 0.950 . S
C1350 C1349 1.524 . S
C1350 C1351 1.415 . S
C1351 H1321 0.950 . S
C1351 C1346 1.363 . S
C1351 C1350 1.415 . S
H1352 C1349 0.999 . S
H1353 C1334 0.913 . S
H1354 C1372 0.951 . S
H1355 C1374 0.951 . S
H1356 C1376 0.950 . S
H1357 C1377 0.950 . S
H1358 C1379 0.950 . S
H1359 C1382 0.950 . S
H1360 C1383 0.950 . S
H1361 C1385 0.950 . S
H1362 C1386 0.950 . S
H1363 C1387 0.951 . S
H1364 C1389 0.951 . S
H1365 C1391 0.950 . S
H1366 C1392 0.950 . S
H1367 C1394 0.950 . S
H1368 C1397 0.950 . S
H1369 C1398 0.950 . S
H1370 C1400 0.950 . S
H1371 C1401 0.950 . S
C1372 H1354 0.951 . S
C1372 C1373 1.366 . S
C1372 C1374 1.388 . S
C1373 C1372 1.366 . S
C1373 C1377 1.385 . S
C1374 H1355 0.951 . S
C1374 C1372 1.388 . S
C1374 C1375 1.366 . S
C1375 C1374 1.366 . S
C1375 C1376 1.414 . S
C1375 C1378 1.499 . S
C1376 H1356 0.950 . S
C1376 C1375 1.414 . S
C1376 C1377 1.374 . S
C1377 H1357 0.950 . S
C1377 C1373 1.385 . S
C1377 C1376 1.374 . S
C1378 C1375 1.499 . S
C1378 C1379 1.373 . S
C1378 C1380 1.389 . S
C1379 H1358 0.950 . S
C1379 C1378 1.373 . S
C1379 C1395 1.377 . S
C1380 C1378 1.389 . S
C1380 C1381 1.524 . S
C1380 C1394 1.377 . S
C1381 C1380 1.524 . S
C1381 C1382 1.397 . S
C1381 C1386 1.363 . S
C1382 H1359 0.950 . S
C1382 C1381 1.397 . S
C1382 C1383 1.334 . S
C1383 H1360 0.950 . S
C1383 C1382 1.334 . S
C1383 C1384 1.287 . S
C1384 C1383 1.287 . S
C1384 C1385 1.524 . S
C1384 H1403 0.913 . S
C1385 H1361 0.950 . S
C1385 C1384 1.524 . S
C1385 C1386 1.415 . S
C1386 H1362 0.950 . S
C1386 C1381 1.363 . S
C1386 C1385 1.415 . S
C1387 H1363 0.951 . S
C1387 C1388 1.366 . S
C1387 C1389 1.388 . S
C1388 C1387 1.366 . S
C1388 C1392 1.385 . S
C1389 H1364 0.951 . S
C1389 C1387 1.388 . S
C1389 C1390 1.366 . S
C1390 C1389 1.366 . S
C1390 C1391 1.414 . S
C1390 C1393 1.499 . S
C1391 H1365 0.950 . S
C1391 C1390 1.414 . S
C1391 C1392 1.374 . S
C1392 H1366 0.950 . S
C1392 C1388 1.385 . S
C1392 C1391 1.374 . S
C1393 C1390 1.499 . S
C1393 C1394 1.373 . S
C1393 C1395 1.389 . S
C1394 H1367 0.950 . S
C1394 C1380 1.377 . S
C1394 C1393 1.373 . S
C1395 C1379 1.377 . S
C1395 C1393 1.389 . S
C1395 C1396 1.524 . S
C1396 C1395 1.524 . S
C1396 C1397 1.397 . S
C1396 C1401 1.363 . S
C1397 H1368 0.950 . S
C1397 C1396 1.397 . S
C1397 C1398 1.334 . S
C1398 H1369 0.950 . S
C1398 C1397 1.334 . S
C1398 C1399 1.287 . S
C1399 C1398 1.287 . S
C1399 C1400 1.524 . S
C1399 H1402 0.999 . S
C1400 H1370 0.950 . S
C1400 C1399 1.524 . S
C1400 C1401 1.415 . S
C1401 H1371 0.950 . S
C1401 C1396 1.363 . S
C1401 C1400 1.415 . S
H1402 C1399 0.999 . S
H1403 C1384 0.913 . S
H1404 C1422 0.951 . S
H1405 C1424 0.951 . S
H1406 C1426 0.950 . S
H1407 C1427 0.950 . S
H1408 C1429 0.950 . S
H1409 C1432 0.950 . S
H1410 C1433 0.950 . S
H1411 C1435 0.950 . S
H1412 C1436 0.950 . S
H1413 C1437 0.951 . S
H1414 C1439 0.951 1_455 S
H1415 C1441 0.950 . S
H1416 C1442 0.950 . S
H1417 C1444 0.950 1_554 S
H1418 C1447 0.950 . S
H1419 C1448 0.950 . S
H1420 C1450 0.950 . S
H1421 C1451 0.950 . S
C1422 H1404 0.951 . S
C1422 C1423 1.366 . S
C1422 C1424 1.388 . S
C1423 C1422 1.366 . S
C1423 C1427 1.385 . S
C1424 H1405 0.951 . S
C1424 C1422 1.388 . S
C1424 C1425 1.366 . S
C1425 C1424 1.366 . S
C1425 C1426 1.414 . S
C1425 C1428 1.499 . S
C1426 H1406 0.950 . S
C1426 C1425 1.414 . S
C1426 C1427 1.374 . S
C1427 H1407 0.950 . S
C1427 C1423 1.385 . S
C1427 C1426 1.374 . S
C1428 C1425 1.499 . S
C1428 C1429 1.373 . S
C1428 C1430 1.389 . S
C1429 H1408 0.950 . S
C1429 C1428 1.373 . S
C1429 C1445 1.377 . S
C1430 C1428 1.389 . S
C1430 C1431 1.524 1_556 S
C1430 C1444 1.377 . S
C1431 C1430 1.524 1_554 S
C1431 C1432 1.397 . S
C1431 C1436 1.363 . S
C1432 H1409 0.950 . S
C1432 C1431 1.397 . S
C1432 C1433 1.334 . S
C1433 H1410 0.950 . S
C1433 C1432 1.334 . S
C1433 C1434 1.287 . S
C1434 C1433 1.287 . S
C1434 C1435 1.524 . S
C1434 H1453 0.913 . S
C1435 H1411 0.950 . S
C1435 C1434 1.524 . S
C1435 C1436 1.415 . S
C1436 H1412 0.950 . S
C1436 C1431 1.363 . S
C1436 C1435 1.415 . S
C1437 H1413 0.951 . S
C1437 C1438 1.366 1_455 S
C1437 C1439 1.388 1_455 S
C1438 C1437 1.366 1_655 S
C1438 C1442 1.385 . S
C1439 H1414 0.951 1_655 S
C1439 C1437 1.388 1_655 S
C1439 C1440 1.366 . S
C1440 C1439 1.366 . S
C1440 C1441 1.414 . S
C1440 C1443 1.499 . S
C1441 H1415 0.950 . S
C1441 C1440 1.414 . S
C1441 C1442 1.374 . S
C1442 H1416 0.950 . S
C1442 C1438 1.385 . S
C1442 C1441 1.374 . S
C1443 C1440 1.499 . S
C1443 C1444 1.373 . S
C1443 C1445 1.389 . S
C1444 H1417 0.950 1_556 S
C1444 C1430 1.377 . S
C1444 C1443 1.373 . S
C1445 C1429 1.377 . S
C1445 C1443 1.389 . S
C1445 C1446 1.524 . S
C1446 C1445 1.524 . S
C1446 C1447 1.397 . S
C1446 C1451 1.363 1_655 S
C1447 H1418 0.950 . S
C1447 C1446 1.397 . S
C1447 C1448 1.334 . S
C1448 H1419 0.950 . S
C1448 C1447 1.334 . S
C1448 C1449 1.287 1_655 S
C1449 C1448 1.287 1_455 S
C1449 C1450 1.524 . S
C1449 H1452 0.999 . S
C1450 H1420 0.950 . S
C1450 C1449 1.524 . S
C1450 C1451 1.415 . S
C1451 H1421 0.950 . S
C1451 C1446 1.363 1_455 S
C1451 C1450 1.415 . S
H1452 C1449 0.999 . S
H1453 C1434 0.913 . S
H1454 C1472 0.951 . S
H1455 C1474 0.951 . S
H1456 C1476 0.950 . S
H1457 C1477 0.950 . S
H1458 C1479 0.950 . S
H1459 C1482 0.950 . S
H1460 C1483 0.950 . S
H1461 C1485 0.950 . S
H1462 C1486 0.950 . S
H1463 C1487 0.951 . S
H1464 C1489 0.951 . S
H1465 C1491 0.950 . S
H1466 C1492 0.950 . S
H1467 C1494 0.950 . S
H1468 C1497 0.950 . S
H1469 C1498 0.950 . S
H1470 C1500 0.950 . S
H1471 C1501 0.950 . S
C1472 H1454 0.951 . S
C1472 C1473 1.366 . S
C1472 C1474 1.388 . S
C1473 C1472 1.366 . S
C1473 C1477 1.385 . S
C1474 H1455 0.951 . S
C1474 C1472 1.388 . S
C1474 C1475 1.366 . S
C1475 C1474 1.366 . S
C1475 C1476 1.414 . S
C1475 C1478 1.499 . S
C1476 H1456 0.950 . S
C1476 C1475 1.414 . S
C1476 C1477 1.374 . S
C1477 H1457 0.950 . S
C1477 C1473 1.385 . S
C1477 C1476 1.374 . S
C1478 C1475 1.499 . S
C1478 C1479 1.373 . S
C1478 C1480 1.389 . S
C1479 H1458 0.950 . S
C1479 C1478 1.373 . S
C1479 C1495 1.377 . S
C1480 C1478 1.389 . S
C1480 C1481 1.524 . S
C1480 C1494 1.377 . S
C1481 C1480 1.524 . S
C1481 C1482 1.397 . S
C1481 C1486 1.363 1_554 S
C1482 H1459 0.950 . S
C1482 C1481 1.397 . S
C1482 C1483 1.334 1_554 S
C1483 H1460 0.950 . S
C1483 C1482 1.334 1_556 S
C1483 C1484 1.287 . S
C1484 C1483 1.287 . S
C1484 C1485 1.524 . S
C1484 H1503 0.913 . S
C1485 H1461 0.950 . S
C1485 C1484 1.524 . S
C1485 C1486 1.415 . S
C1486 H1462 0.950 . S
C1486 C1481 1.363 1_556 S
C1486 C1485 1.415 . S
C1487 H1463 0.951 . S
C1487 C1488 1.366 . S
C1487 C1489 1.388 . S
C1488 C1487 1.366 . S
C1488 C1492 1.385 . S
C1489 H1464 0.951 . S
C1489 C1487 1.388 . S
C1489 C1490 1.366 . S
C1490 C1489 1.366 . S
C1490 C1491 1.414 . S
C1490 C1493 1.499 . S
C1491 H1465 0.950 . S
C1491 C1490 1.414 . S
C1491 C1492 1.374 . S
C1492 H1466 0.950 . S
C1492 C1488 1.385 . S
C1492 C1491 1.374 . S
C1493 C1490 1.499 . S
C1493 C1494 1.373 . S
C1493 C1495 1.389 . S
C1494 H1467 0.950 . S
C1494 C1480 1.377 . S
C1494 C1493 1.373 . S
C1495 C1479 1.377 . S
C1495 C1493 1.389 . S
C1495 C1496 1.524 . S
C1496 C1495 1.524 . S
C1496 C1497 1.397 . S
C1496 C1501 1.363 . S
C1497 H1468 0.950 . S
C1497 C1496 1.397 . S
C1497 C1498 1.334 . S
C1498 H1469 0.950 . S
C1498 C1497 1.334 . S
C1498 C1499 1.287 . S
C1499 C1498 1.287 . S
C1499 C1500 1.524 . S
C1499 H1502 0.999 . S
C1500 H1470 0.950 . S
C1500 C1499 1.524 . S
C1500 C1501 1.415 . S
C1501 H1471 0.950 . S
C1501 C1496 1.363 . S
C1501 C1500 1.415 . S
H1502 C1499 0.999 . S
H1503 C1484 0.913 . S
H1504 C1522 0.951 . S
H1505 C1524 0.951 . S
H1506 C1526 0.950 . S
H1507 C1527 0.950 . S
H1508 C1529 0.950 . S
H1509 C1532 0.950 . S
H1510 C1533 0.950 . S
H1511 C1535 0.950 . S
H1512 C1536 0.950 . S
H1513 C1537 0.951 . S
H1514 C1539 0.951 . S
H1515 C1541 0.950 . S
H1516 C1542 0.950 . S
H1517 C1544 0.950 . S
H1518 C1547 0.949 1_655 S
H1519 C1548 0.950 . S
H1520 C1550 0.950 . S
H1521 C1551 0.950 . S
C1522 H1504 0.951 . S
C1522 C1523 1.366 . S
C1522 C1524 1.388 . S
C1523 C1522 1.366 . S
C1523 C1527 1.385 . S
C1524 H1505 0.951 . S
C1524 C1522 1.388 . S
C1524 C1525 1.366 . S
C1525 C1524 1.366 . S
C1525 C1526 1.414 . S
C1525 C1528 1.499 . S
C1526 H1506 0.950 . S
C1526 C1525 1.414 . S
C1526 C1527 1.374 . S
C1527 H1507 0.950 . S
C1527 C1523 1.385 . S
C1527 C1526 1.374 . S
C1528 C1525 1.499 . S
C1528 C1529 1.373 . S
C1528 C1530 1.389 . S
C1529 H1508 0.950 . S
C1529 C1528 1.373 . S
C1529 C1545 1.377 . S
C1530 C1528 1.389 . S
C1530 C1531 1.524 . S
C1530 C1544 1.377 . S
C1531 C1530 1.524 . S
C1531 C1532 1.397 . S
C1531 C1536 1.363 . S
C1532 H1509 0.950 . S
C1532 C1531 1.397 . S
C1532 C1533 1.334 . S
C1533 H1510 0.950 . S
C1533 C1532 1.334 . S
C1533 C1534 1.287 . S
C1534 C1533 1.287 . S
C1534 C1535 1.524 . S
C1534 H1553 0.913 . S
C1535 H1511 0.950 . S
C1535 C1534 1.524 . S
C1535 C1536 1.415 . S
C1536 H1512 0.950 . S
C1536 C1531 1.363 . S
C1536 C1535 1.415 . S
C1537 H1513 0.951 . S
C1537 C1538 1.366 . S
C1537 C1539 1.388 . S
C1538 C1537 1.366 . S
C1538 C1542 1.385 . S
C1539 H1514 0.951 . S
C1539 C1537 1.388 . S
C1539 C1540 1.366 . S
C1540 C1539 1.366 . S
C1540 C1541 1.414 . S
C1540 C1543 1.499 . S
C1541 H1515 0.950 . S
C1541 C1540 1.414 . S
C1541 C1542 1.374 . S
C1542 H1516 0.950 . S
C1542 C1538 1.385 . S
C1542 C1541 1.374 . S
C1543 C1540 1.499 . S
C1543 C1544 1.373 . S
C1543 C1545 1.389 . S
C1544 H1517 0.950 . S
C1544 C1530 1.377 . S
C1544 C1543 1.373 . S
C1545 C1529 1.377 . S
C1545 C1543 1.389 . S
C1545 C1546 1.524 . S
C1546 C1545 1.524 . S
C1546 C1547 1.398 . S
C1546 C1551 1.363 . S
C1547 H1518 0.949 1_455 S
C1547 C1546 1.398 . S
C1547 C1548 1.334 1_455 S
C1548 H1519 0.950 . S
C1548 C1547 1.334 1_655 S
C1548 C1549 1.287 . S
C1549 C1548 1.287 . S
C1549 C1550 1.524 1_655 S
C1549 H1552 0.999 . S
C1550 H1520 0.950 . S
C1550 C1549 1.524 1_455 S
C1550 C1551 1.415 . S
C1551 H1521 0.950 . S
C1551 C1546 1.363 . S
C1551 C1550 1.415 . S
H1552 C1549 0.999 . S
H1553 C1534 0.913 . S
H1554 C1572 0.951 . S
H1555 C1574 0.951 . S
H1556 C1576 0.950 . S
H1557 C1577 0.950 . S
H1558 C1579 0.950 . S
H1559 C1582 0.950 . S
H1560 C1583 0.950 . S
H1561 C1585 0.950 . S
H1562 C1586 0.950 . S
H1563 C1587 0.951 . S
H1564 C1589 0.951 . S
H1565 C1591 0.950 . S
H1566 C1592 0.950 . S
H1567 C1594 0.950 . S
H1568 C1597 0.950 . S
H1569 C1598 0.950 . S
H1570 C1600 0.950 . S
H1571 C1601 0.950 . S
C1572 H1554 0.951 . S
C1572 C1573 1.366 . S
C1572 C1574 1.388 . S
C1573 C1572 1.366 . S
C1573 C1577 1.385 . S
C1574 H1555 0.951 . S
C1574 C1572 1.388 . S
C1574 C1575 1.366 . S
C1575 C1574 1.366 . S
C1575 C1576 1.414 . S
C1575 C1578 1.499 . S
C1576 H1556 0.950 . S
C1576 C1575 1.414 . S
C1576 C1577 1.374 . S
C1577 H1557 0.950 . S
C1577 C1573 1.385 . S
C1577 C1576 1.374 . S
C1578 C1575 1.499 . S
C1578 C1579 1.373 . S
C1578 C1580 1.389 . S
C1579 H1558 0.950 . S
C1579 C1578 1.373 . S
C1579 C1595 1.377 . S
C1580 C1578 1.389 . S
C1580 C1581 1.524 . S
C1580 C1594 1.377 . S
C1581 C1580 1.524 . S
C1581 C1582 1.397 . S
C1581 C1586 1.363 . S
C1582 H1559 0.950 . S
C1582 C1581 1.397 . S
C1582 C1583 1.334 . S
C1583 H1560 0.950 . S
C1583 C1582 1.334 . S
C1583 C1584 1.287 . S
C1584 C1583 1.287 . S
C1584 C1585 1.524 . S
C1584 H1603 0.913 . S
C1585 H1561 0.950 . S
C1585 C1584 1.524 . S
C1585 C1586 1.415 . S
C1586 H1562 0.950 . S
C1586 C1581 1.363 . S
C1586 C1585 1.415 . S
C1587 H1563 0.951 . S
C1587 C1588 1.366 . S
C1587 C1589 1.388 . S
C1588 C1587 1.366 . S
C1588 C1592 1.385 . S
C1589 H1564 0.951 . S
C1589 C1587 1.388 . S
C1589 C1590 1.366 . S
C1590 C1589 1.366 . S
C1590 C1591 1.414 . S
C1590 C1593 1.499 . S
C1591 H1565 0.950 . S
C1591 C1590 1.414 . S
C1591 C1592 1.374 . S
C1592 H1566 0.950 . S
C1592 C1588 1.385 . S
C1592 C1591 1.374 . S
C1593 C1590 1.499 . S
C1593 C1594 1.373 . S
C1593 C1595 1.389 . S
C1594 H1567 0.950 . S
C1594 C1580 1.377 . S
C1594 C1593 1.373 . S
C1595 C1579 1.377 . S
C1595 C1593 1.389 . S
C1595 C1596 1.524 . S
C1596 C1595 1.524 . S
C1596 C1597 1.397 . S
C1596 C1601 1.363 . S
C1597 H1568 0.950 . S
C1597 C1596 1.397 . S
C1597 C1598 1.334 . S
C1598 H1569 0.950 . S
C1598 C1597 1.334 . S
C1598 C1599 1.287 . S
C1599 C1598 1.287 . S
C1599 C1600 1.524 . S
C1599 H1602 0.999 . S
C1600 H1570 0.950 . S
C1600 C1599 1.524 . S
C1600 C1601 1.415 . S
C1601 H1571 0.950 . S
C1601 C1596 1.363 . S
C1601 C1600 1.415 . S
H1602 C1599 0.999 . S
H1603 C1584 0.913 . S
C423 C1 1.622 . S
C438 C330 1.600 . S
C473 C40 1.604 . S
C488 C354 1.579 . S
C538 C374 1.407 . S
C523 C99 1.399 . S
C573 C118 1.401 . S
C588 C397 1.415 . S
C638 C356 1.709 . S
C623 C16 1.746 . S
C688 C332 1.684 . S
C673 C60 1.721 . S
C738 C400 1.602 . S
C723 C79 1.642 . S
C788 C377 1.546 . S
C773 C138 1.579 . S
C823 C21 1.353 . S
C838 C402 1.322 . S
C888 C351 1.686 . S
C873 C94 1.672 . S
C923 C133 1.638 . S
C938 C329 1.649 . S
C973 C55 1.337 . S
C988 C379 1.307 . S
C1038 C333 1.709 1_565 S
C1023 C157 1.688 . S
C1073 C196 1.640 . S
C1088 C355 1.641 . S
C1123 C255 1.822 . S
C1138 C375 1.853 . S
C1173 C289 1.824 . S
C1188 C398 1.848 . S
C1223 C172 1.592 . S
C1238 C353 1.576 1_556 S
C1288 C331 1.592 . S
C1273 C216 1.577 . S
C1338 C401 1.497 . S
C1323 C235 1.515 . S
C1388 C378 1.499 . S
C1373 C294 1.514 . S
C1423 C177 1.962 . S
C1438 C399 1.949 . S
C1488 C352 1.597 . S
C1473 C250 1.577 . S
C1538 C328 1.580 . S
C1523 C274 1.555 . S
C1573 C211 1.937 . S
C1588 C376 1.920 . S
