# Generated by pormake.
# Topology tbo, (3,4)-cn, num edge types: 1
# Building blocks:
#     Node 0, Type 0, BuildingBlock: WUSLED_clean_sbu_0, # of connection points: 3
#     Node 1, Type 0, BuildingBlock: WUSLED_clean_sbu_0, # of connection points: 3
#     Node 2, Type 0, BuildingBlock: WUSLED_clean_sbu_0, # of connection points: 3
#     Node 3, Type 0, BuildingBlock: WUSLED_clean_sbu_0, # of connection points: 3
#     Node 4, Type 0, BuildingBlock: WUSLED_clean_sbu_0, # of connection points: 3
#     Node 5, Type 0, BuildingBlock: WUSLED_clean_sbu_0, # of connection points: 3
#     Node 6, Type 0, BuildingBlock: WUSLED_clean_sbu_0, # of connection points: 3
#     Node 7, Type 0, BuildingBlock: WUSLED_clean_sbu_0, # of connection points: 3
#     Node 8, Type 0, BuildingBlock: WUSLED_clean_sbu_0, # of connection points: 3
#     Node 9, Type 0, BuildingBlock: WUSLED_clean_sbu_0, # of connection points: 3
#     Node 10, Type 0, BuildingBlock: WUSLED_clean_sbu_0, # of connection points: 3
#     Node 11, Type 0, BuildingBlock: WUSLED_clean_sbu_0, # of connection points: 3
#     Node 12, Type 0, BuildingBlock: WUSLED_clean_sbu_0, # of connection points: 3
#     Node 13, Type 0, BuildingBlock: WUSLED_clean_sbu_0, # of connection points: 3
#     Node 14, Type 0, BuildingBlock: WUSLED_clean_sbu_0, # of connection points: 3
#     Node 15, Type 0, BuildingBlock: WUSLED_clean_sbu_0, # of connection points: 3
#     Node 16, Type 0, BuildingBlock: WUSLED_clean_sbu_0, # of connection points: 3
#     Node 17, Type 0, BuildingBlock: WUSLED_clean_sbu_0, # of connection points: 3
#     Node 18, Type 0, BuildingBlock: WUSLED_clean_sbu_0, # of connection points: 3
#     Node 19, Type 0, BuildingBlock: WUSLED_clean_sbu_0, # of connection points: 3
#     Node 20, Type 0, BuildingBlock: WUSLED_clean_sbu_0, # of connection points: 3
#     Node 21, Type 0, BuildingBlock: WUSLED_clean_sbu_0, # of connection points: 3
#     Node 22, Type 0, BuildingBlock: WUSLED_clean_sbu_0, # of connection points: 3
#     Node 23, Type 0, BuildingBlock: WUSLED_clean_sbu_0, # of connection points: 3
#     Node 24, Type 0, BuildingBlock: WUSLED_clean_sbu_0, # of connection points: 3
#     Node 25, Type 0, BuildingBlock: WUSLED_clean_sbu_0, # of connection points: 3
#     Node 26, Type 0, BuildingBlock: WUSLED_clean_sbu_0, # of connection points: 3
#     Node 27, Type 0, BuildingBlock: WUSLED_clean_sbu_0, # of connection points: 3
#     Node 28, Type 0, BuildingBlock: WUSLED_clean_sbu_0, # of connection points: 3
#     Node 29, Type 0, BuildingBlock: WUSLED_clean_sbu_0, # of connection points: 3
#     Node 30, Type 0, BuildingBlock: WUSLED_clean_sbu_0, # of connection points: 3
#     Node 31, Type 0, BuildingBlock: WUSLED_clean_sbu_0, # of connection points: 3
#     Node 32, Type 1, BuildingBlock: NAHDIM_clean_linker_0, # of connection points: 4
#     Node 33, Type 1, BuildingBlock: NAHDIM_clean_linker_0, # of connection points: 4
#     Node 34, Type 1, BuildingBlock: NAHDIM_clean_linker_0, # of connection points: 4
#     Node 35, Type 1, BuildingBlock: NAHDIM_clean_linker_0, # of connection points: 4
#     Node 36, Type 1, BuildingBlock: NAHDIM_clean_linker_0, # of connection points: 4
#     Node 37, Type 1, BuildingBlock: NAHDIM_clean_linker_0, # of connection points: 4
#     Node 38, Type 1, BuildingBlock: NAHDIM_clean_linker_0, # of connection points: 4
#     Node 39, Type 1, BuildingBlock: NAHDIM_clean_linker_0, # of connection points: 4
#     Node 40, Type 1, BuildingBlock: NAHDIM_clean_linker_0, # of connection points: 4
#     Node 41, Type 1, BuildingBlock: NAHDIM_clean_linker_0, # of connection points: 4
#     Node 42, Type 1, BuildingBlock: NAHDIM_clean_linker_0, # of connection points: 4
#     Node 43, Type 1, BuildingBlock: NAHDIM_clean_linker_0, # of connection points: 4
#     Node 44, Type 1, BuildingBlock: NAHDIM_clean_linker_0, # of connection points: 4
#     Node 45, Type 1, BuildingBlock: NAHDIM_clean_linker_0, # of connection points: 4
#     Node 46, Type 1, BuildingBlock: NAHDIM_clean_linker_0, # of connection points: 4
#     Node 47, Type 1, BuildingBlock: NAHDIM_clean_linker_0, # of connection points: 4
#     Node 48, Type 1, BuildingBlock: NAHDIM_clean_linker_0, # of connection points: 4
#     Node 49, Type 1, BuildingBlock: NAHDIM_clean_linker_0, # of connection points: 4
#     Node 50, Type 1, BuildingBlock: NAHDIM_clean_linker_0, # of connection points: 4
#     Node 51, Type 1, BuildingBlock: NAHDIM_clean_linker_0, # of connection points: 4
#     Node 52, Type 1, BuildingBlock: NAHDIM_clean_linker_0, # of connection points: 4
#     Node 53, Type 1, BuildingBlock: NAHDIM_clean_linker_0, # of connection points: 4
#     Node 54, Type 1, BuildingBlock: NAHDIM_clean_linker_0, # of connection points: 4
#     Node 55, Type 1, BuildingBlock: NAHDIM_clean_linker_0, # of connection points: 4
#     Edge 56, Type (0, 1), BuildingBlock: XIVTED_clean_linker_0, # of connection points: 2
#     Edge 57, Type (0, 1), BuildingBlock: XIVTED_clean_linker_0, # of connection points: 2
#     Edge 58, Type (0, 1), BuildingBlock: XIVTED_clean_linker_0, # of connection points: 2
#     Edge 59, Type (0, 1), BuildingBlock: XIVTED_clean_linker_0, # of connection points: 2
#     Edge 60, Type (0, 1), BuildingBlock: XIVTED_clean_linker_0, # of connection points: 2
#     Edge 61, Type (0, 1), BuildingBlock: XIVTED_clean_linker_0, # of connection points: 2
#     Edge 62, Type (0, 1), BuildingBlock: XIVTED_clean_linker_0, # of connection points: 2
#     Edge 63, Type (0, 1), BuildingBlock: XIVTED_clean_linker_0, # of connection points: 2
#     Edge 64, Type (0, 1), BuildingBlock: XIVTED_clean_linker_0, # of connection points: 2
#     Edge 65, Type (0, 1), BuildingBlock: XIVTED_clean_linker_0, # of connection points: 2
#     Edge 66, Type (0, 1), BuildingBlock: XIVTED_clean_linker_0, # of connection points: 2
#     Edge 67, Type (0, 1), BuildingBlock: XIVTED_clean_linker_0, # of connection points: 2
#     Edge 68, Type (0, 1), BuildingBlock: XIVTED_clean_linker_0, # of connection points: 2
#     Edge 69, Type (0, 1), BuildingBlock: XIVTED_clean_linker_0, # of connection points: 2
#     Edge 70, Type (0, 1), BuildingBlock: XIVTED_clean_linker_0, # of connection points: 2
#     Edge 71, Type (0, 1), BuildingBlock: XIVTED_clean_linker_0, # of connection points: 2
#     Edge 72, Type (0, 1), BuildingBlock: XIVTED_clean_linker_0, # of connection points: 2
#     Edge 73, Type (0, 1), BuildingBlock: XIVTED_clean_linker_0, # of connection points: 2
#     Edge 74, Type (0, 1), BuildingBlock: XIVTED_clean_linker_0, # of connection points: 2
#     Edge 75, Type (0, 1), BuildingBlock: XIVTED_clean_linker_0, # of connection points: 2
#     Edge 76, Type (0, 1), BuildingBlock: XIVTED_clean_linker_0, # of connection points: 2
#     Edge 77, Type (0, 1), BuildingBlock: XIVTED_clean_linker_0, # of connection points: 2
#     Edge 78, Type (0, 1), BuildingBlock: XIVTED_clean_linker_0, # of connection points: 2
#     Edge 79, Type (0, 1), BuildingBlock: XIVTED_clean_linker_0, # of connection points: 2
#     Edge 80, Type (0, 1), BuildingBlock: XIVTED_clean_linker_0, # of connection points: 2
#     Edge 81, Type (0, 1), BuildingBlock: XIVTED_clean_linker_0, # of connection points: 2
#     Edge 82, Type (0, 1), BuildingBlock: XIVTED_clean_linker_0, # of connection points: 2
#     Edge 83, Type (0, 1), BuildingBlock: XIVTED_clean_linker_0, # of connection points: 2
#     Edge 84, Type (0, 1), BuildingBlock: XIVTED_clean_linker_0, # of connection points: 2
#     Edge 85, Type (0, 1), BuildingBlock: XIVTED_clean_linker_0, # of connection points: 2
#     Edge 86, Type (0, 1), BuildingBlock: XIVTED_clean_linker_0, # of connection points: 2
#     Edge 87, Type (0, 1), BuildingBlock: XIVTED_clean_linker_0, # of connection points: 2
#     Edge 88, Type (0, 1), BuildingBlock: XIVTED_clean_linker_0, # of connection points: 2
#     Edge 89, Type (0, 1), BuildingBlock: XIVTED_clean_linker_0, # of connection points: 2
#     Edge 90, Type (0, 1), BuildingBlock: XIVTED_clean_linker_0, # of connection points: 2
#     Edge 91, Type (0, 1), BuildingBlock: XIVTED_clean_linker_0, # of connection points: 2
#     Edge 92, Type (0, 1), BuildingBlock: XIVTED_clean_linker_0, # of connection points: 2
#     Edge 93, Type (0, 1), BuildingBlock: XIVTED_clean_linker_0, # of connection points: 2
#     Edge 94, Type (0, 1), BuildingBlock: XIVTED_clean_linker_0, # of connection points: 2
#     Edge 95, Type (0, 1), BuildingBlock: XIVTED_clean_linker_0, # of connection points: 2
#     Edge 96, Type (0, 1), BuildingBlock: XIVTED_clean_linker_0, # of connection points: 2
#     Edge 97, Type (0, 1), BuildingBlock: XIVTED_clean_linker_0, # of connection points: 2
#     Edge 98, Type (0, 1), BuildingBlock: XIVTED_clean_linker_0, # of connection points: 2
#     Edge 99, Type (0, 1), BuildingBlock: XIVTED_clean_linker_0, # of connection points: 2
#     Edge 100, Type (0, 1), BuildingBlock: XIVTED_clean_linker_0, # of connection points: 2
#     Edge 101, Type (0, 1), BuildingBlock: XIVTED_clean_linker_0, # of connection points: 2
#     Edge 102, Type (0, 1), BuildingBlock: XIVTED_clean_linker_0, # of connection points: 2
#     Edge 103, Type (0, 1), BuildingBlock: XIVTED_clean_linker_0, # of connection points: 2
#     Edge 104, Type (0, 1), BuildingBlock: XIVTED_clean_linker_0, # of connection points: 2
#     Edge 105, Type (0, 1), BuildingBlock: XIVTED_clean_linker_0, # of connection points: 2
#     Edge 106, Type (0, 1), BuildingBlock: XIVTED_clean_linker_0, # of connection points: 2
#     Edge 107, Type (0, 1), BuildingBlock: XIVTED_clean_linker_0, # of connection points: 2
#     Edge 108, Type (0, 1), BuildingBlock: XIVTED_clean_linker_0, # of connection points: 2
#     Edge 109, Type (0, 1), BuildingBlock: XIVTED_clean_linker_0, # of connection points: 2
#     Edge 110, Type (0, 1), BuildingBlock: XIVTED_clean_linker_0, # of connection points: 2
#     Edge 111, Type (0, 1), BuildingBlock: XIVTED_clean_linker_0, # of connection points: 2
#     Edge 112, Type (0, 1), BuildingBlock: XIVTED_clean_linker_0, # of connection points: 2
#     Edge 113, Type (0, 1), BuildingBlock: XIVTED_clean_linker_0, # of connection points: 2
#     Edge 114, Type (0, 1), BuildingBlock: XIVTED_clean_linker_0, # of connection points: 2
#     Edge 115, Type (0, 1), BuildingBlock: XIVTED_clean_linker_0, # of connection points: 2
#     Edge 116, Type (0, 1), BuildingBlock: XIVTED_clean_linker_0, # of connection points: 2
#     Edge 117, Type (0, 1), BuildingBlock: XIVTED_clean_linker_0, # of connection points: 2
#     Edge 118, Type (0, 1), BuildingBlock: XIVTED_clean_linker_0, # of connection points: 2
#     Edge 119, Type (0, 1), BuildingBlock: XIVTED_clean_linker_0, # of connection points: 2
#     Edge 120, Type (0, 1), BuildingBlock: XIVTED_clean_linker_0, # of connection points: 2
#     Edge 121, Type (0, 1), BuildingBlock: XIVTED_clean_linker_0, # of connection points: 2
#     Edge 122, Type (0, 1), BuildingBlock: XIVTED_clean_linker_0, # of connection points: 2
#     Edge 123, Type (0, 1), BuildingBlock: XIVTED_clean_linker_0, # of connection points: 2
#     Edge 124, Type (0, 1), BuildingBlock: XIVTED_clean_linker_0, # of connection points: 2
#     Edge 125, Type (0, 1), BuildingBlock: XIVTED_clean_linker_0, # of connection points: 2
#     Edge 126, Type (0, 1), BuildingBlock: XIVTED_clean_linker_0, # of connection points: 2
#     Edge 127, Type (0, 1), BuildingBlock: XIVTED_clean_linker_0, # of connection points: 2
#     Edge 128, Type (0, 1), BuildingBlock: XIVTED_clean_linker_0, # of connection points: 2
#     Edge 129, Type (0, 1), BuildingBlock: XIVTED_clean_linker_0, # of connection points: 2
#     Edge 130, Type (0, 1), BuildingBlock: XIVTED_clean_linker_0, # of connection points: 2
#     Edge 131, Type (0, 1), BuildingBlock: XIVTED_clean_linker_0, # of connection points: 2
#     Edge 132, Type (0, 1), BuildingBlock: XIVTED_clean_linker_0, # of connection points: 2
#     Edge 133, Type (0, 1), BuildingBlock: XIVTED_clean_linker_0, # of connection points: 2
#     Edge 134, Type (0, 1), BuildingBlock: XIVTED_clean_linker_0, # of connection points: 2
#     Edge 135, Type (0, 1), BuildingBlock: XIVTED_clean_linker_0, # of connection points: 2
#     Edge 136, Type (0, 1), BuildingBlock: XIVTED_clean_linker_0, # of connection points: 2
#     Edge 137, Type (0, 1), BuildingBlock: XIVTED_clean_linker_0, # of connection points: 2
#     Edge 138, Type (0, 1), BuildingBlock: XIVTED_clean_linker_0, # of connection points: 2
#     Edge 139, Type (0, 1), BuildingBlock: XIVTED_clean_linker_0, # of connection points: 2
#     Edge 140, Type (0, 1), BuildingBlock: XIVTED_clean_linker_0, # of connection points: 2
#     Edge 141, Type (0, 1), BuildingBlock: XIVTED_clean_linker_0, # of connection points: 2
#     Edge 142, Type (0, 1), BuildingBlock: XIVTED_clean_linker_0, # of connection points: 2
#     Edge 143, Type (0, 1), BuildingBlock: XIVTED_clean_linker_0, # of connection points: 2
#     Edge 144, Type (0, 1), BuildingBlock: XIVTED_clean_linker_0, # of connection points: 2
#     Edge 145, Type (0, 1), BuildingBlock: XIVTED_clean_linker_0, # of connection points: 2
#     Edge 146, Type (0, 1), BuildingBlock: XIVTED_clean_linker_0, # of connection points: 2
#     Edge 147, Type (0, 1), BuildingBlock: XIVTED_clean_linker_0, # of connection points: 2
#     Edge 148, Type (0, 1), BuildingBlock: XIVTED_clean_linker_0, # of connection points: 2
#     Edge 149, Type (0, 1), BuildingBlock: XIVTED_clean_linker_0, # of connection points: 2
#     Edge 150, Type (0, 1), BuildingBlock: XIVTED_clean_linker_0, # of connection points: 2
#     Edge 151, Type (0, 1), BuildingBlock: XIVTED_clean_linker_0, # of connection points: 2
# Relax obj value: 0.002
# Max RMSD: 0.048
# Mean RMSD: 0.021
data_MOF--net-tbo--node1-WUSLED_clean_sbu_0--node2-NAHDIM_clean_linker_0--edge1-XIVTED_clean_linker_0
_symmetry_space_group_name_H-M    P1
_symmetry_Int_Tables_number       1
_symmetry_cell_setting            triclinic
loop_
_symmetry_equiv_pos_as_xyz
'x, y, z'
_cell_length_a     123.04824
_cell_length_b     123.40762
_cell_length_c     123.18521
_cell_angle_alpha  89.578565
_cell_angle_beta   90.05402
_cell_angle_gamma 91.19994
loop_
_atom_site_label
_atom_site_type_symbol
_atom_site_fract_x
_atom_site_fract_y
_atom_site_fract_z
_atom_type_partial_charge
C0 C 0.15922 0.13361 0.17729 0.0
C1 C 0.1649 0.12746 0.16971 0.0
C2 C 0.17192 0.11606 0.18426 0.0
C3 C 0.17114 0.11873 0.17315 0.0
C4 C 0.16616 0.12225 0.1918 0.0
C5 C 0.15986 0.13092 0.18833 0.0
U6 U 0.15449 0.15738 0.15807 0.0
O7 O 0.13936 0.16408 0.15159 0.0
O8 O 0.15016 0.17418 0.1617 0.0
C9 C 0.14068 0.17326 0.15684 0.0
C10 C 0.15295 0.14308 0.17389 0.0
C11 C 0.13135 0.17678 0.16328 0.0
C12 C 0.1164 0.17292 0.17569 0.0
C13 C 0.12505 0.16935 0.16938 0.0
C14 C 0.12033 0.1914 0.16994 0.0
C15 C 0.11396 0.18401 0.1761 0.0
C16 C 0.12892 0.18781 0.16358 0.0
C17 C 0.17386 0.16261 0.13435 0.0
C18 C 0.17015 0.1749 0.11936 0.0
C19 C 0.18863 0.16958 0.12306 0.0
C20 C 0.18493 0.16315 0.13175 0.0
C21 C 0.18129 0.17557 0.11676 0.0
C22 C 0.16647 0.16853 0.1281 0.0
C23 C 0.17023 0.15614 0.14381 0.0
O24 O 0.15807 0.15247 0.17488 0.0
O25 O 0.14758 0.14214 0.16469 0.0
O26 O 0.16085 0.15092 0.1428 0.0
O27 O 0.17141 0.16094 0.15323 0.0
H28 H 0.16456 0.12944 0.16113 0.0
H29 H 0.17533 0.11407 0.1671 0.0
H30 H 0.16671 0.12058 0.20042 0.0
H31 H 0.15561 0.13564 0.19431 0.0
H32 H 0.1116 0.16698 0.18021 0.0
H33 H 0.12684 0.16079 0.1693 0.0
H34 H 0.11884 0.20002 0.1702 0.0
H35 H 0.13376 0.19367 0.159 0.0
H36 H 0.16423 0.17927 0.11461 0.0
H37 H 0.19728 0.17003 0.12145 0.0
H38 H 0.19076 0.15871 0.13654 0.0
H39 H 0.15788 0.16827 0.13002 0.0
C40 C 0.82574 0.16476 0.13302 0.0
C41 C 0.83063 0.17479 0.13033 0.0
C42 C 0.81739 0.17736 0.11587 0.0
C43 C 0.82649 0.18104 0.12184 0.0
C44 C 0.81268 0.16717 0.11848 0.0
C45 C 0.81683 0.16094 0.12699 0.0
U46 U 0.84605 0.16078 0.15579 0.0
O47 O 0.84351 0.15644 0.17292 0.0
O48 O 0.85313 0.14592 0.16253 0.0
C49 C 0.8485 0.14718 0.17204 0.0
C50 C 0.82965 0.15845 0.14233 0.0
C51 C 0.84245 0.1377 0.17632 0.0
C52 C 0.82599 0.12653 0.17731 0.0
C53 C 0.83192 0.13516 0.17263 0.0
C54 C 0.84118 0.12275 0.18918 0.0
C55 C 0.8305 0.12031 0.18574 0.0
C56 C 0.84709 0.13138 0.18452 0.0
C57 C 0.86925 0.18113 0.15955 0.0
C58 C 0.88038 0.18089 0.17584 0.0
C59 C 0.88422 0.19407 0.1616 0.0
C60 C 0.87558 0.1898 0.15548 0.0
C61 C 0.88663 0.18976 0.17191 0.0
C62 C 0.87177 0.17661 0.1697 0.0
C63 C 0.8598 0.17715 0.15338 0.0
O64 O 0.83901 0.1537 0.14094 0.0
O65 O 0.82891 0.16332 0.15174 0.0
O66 O 0.85045 0.17788 0.15844 0.0
O67 O 0.86098 0.16779 0.14853 0.0
H68 H 0.83752 0.17787 0.13494 0.0
H69 H 0.83023 0.1889 0.12015 0.0
H70 H 0.80578 0.16402 0.11395 0.0
H71 H 0.81299 0.15319 0.12895 0.0
H72 H 0.81776 0.12496 0.17454 0.0
H73 H 0.82822 0.13998 0.1663 0.0
H74 H 0.84497 0.11802 0.19552 0.0
H75 H 0.85523 0.13322 0.18742 0.0
H76 H 0.88191 0.17746 0.18379 0.0
H77 H 0.88897 0.20078 0.15826 0.0
H78 H 0.87376 0.19335 0.14764 0.0
H79 H 0.86693 0.16991 0.17297 0.0
C80 C 0.83207 0.84371 0.13941 0.0
C81 C 0.83769 0.83436 0.13659 0.0
C82 C 0.82551 0.83143 0.12121 0.0
C83 C 0.83443 0.82827 0.12758 0.0
C84 C 0.82 0.84089 0.12403 0.0
C85 C 0.82326 0.84697 0.13306 0.0
U86 U 0.85101 0.84878 0.16331 0.0
O87 O 0.85717 0.86412 0.17031 0.0
O88 O 0.84748 0.85271 0.18029 0.0
C89 C 0.85196 0.86246 0.17951 0.0
C90 C 0.83522 0.84998 0.14904 0.0
C91 C 0.84539 0.87156 0.18341 0.0
C92 C 0.84429 0.89055 0.18844 0.0
C93 C 0.85026 0.88188 0.18453 0.0
C94 C 0.82844 0.87871 0.19022 0.0
C95 C 0.8333 0.88906 0.19137 0.0
C96 C 0.8344 0.87007 0.18627 0.0
C97 C 0.87506 0.83019 0.16767 0.0
C98 C 0.88614 0.83082 0.18399 0.0
C99 C 0.89057 0.81848 0.16951 0.0
C100 C 0.88176 0.82221 0.16347 0.0
C101 C 0.89282 0.82268 0.17989 0.0
C102 C 0.87734 0.83455 0.17793 0.0
C103 C 0.86557 0.83366 0.16141 0.0
O104 O 0.83426 0.84474 0.15833 0.0
O105 O 0.84439 0.85559 0.14819 0.0
O106 O 0.86651 0.8432 0.15666 0.0
O107 O 0.85614 0.83207 0.16624 0.0
H108 H 0.84451 0.83172 0.14143 0.0
H109 H 0.83877 0.82097 0.12573 0.0
H110 H 0.81321 0.84365 0.11924 0.0
H111 H 0.81887 0.85419 0.13511 0.0
H112 H 0.84825 0.89844 0.18908 0.0
H113 H 0.85873 0.88324 0.1824 0.0
H114 H 0.82006 0.87722 0.19256 0.0
H115 H 0.8304 0.86221 0.18554 0.0
H116 H 0.88756 0.83414 0.19199 0.0
H117 H 0.89564 0.81233 0.16603 0.0
H118 H 0.88013 0.81879 0.15555 0.0
H119 H 0.87221 0.84071 0.1813 0.0
C120 C 0.13602 0.82559 0.15936 0.0
C121 C 0.13389 0.82901 0.16997 0.0
C122 C 0.11877 0.81599 0.17133 0.0
C123 C 0.12535 0.82424 0.17592 0.0
C124 C 0.12078 0.81285 0.16056 0.0
C125 C 0.12934 0.8176 0.15465 0.0
U126 U 0.15907 0.84636 0.15602 0.0
O127 O 0.17622 0.84398 0.1518 0.0
O128 O 0.16602 0.8541 0.14138 0.0
C129 C 0.17539 0.84927 0.14255 0.0
C130 C 0.14543 0.82998 0.15332 0.0
C131 C 0.17931 0.84342 0.13302 0.0
C132 C 0.17621 0.83082 0.11822 0.0
C133 C 0.17225 0.83677 0.12693 0.0
C134 C 0.19433 0.83809 0.12161 0.0
C135 C 0.18733 0.83132 0.11551 0.0
C136 C 0.19034 0.84408 0.13027 0.0
C137 C 0.16261 0.86886 0.17681 0.0
C138 C 0.17882 0.88042 0.17743 0.0
C139 C 0.16382 0.88363 0.18966 0.0
C140 C 0.15803 0.87492 0.18513 0.0
C141 C 0.17435 0.88641 0.18596 0.0
C142 C 0.17299 0.87172 0.17289 0.0
C143 C 0.15662 0.85942 0.17251 0.0
O144 O 0.14413 0.83949 0.14868 0.0
O145 O 0.15481 0.82915 0.15835 0.0
O146 O 0.16174 0.85019 0.17321 0.0
O147 O 0.15185 0.86089 0.16308 0.0
H148 H 0.13898 0.83519 0.17373 0.0
H149 H 0.12413 0.82678 0.18421 0.0
H150 H 0.11576 0.80667 0.15671 0.0
H151 H 0.13085 0.81491 0.14644 0.0
H152 H 0.17055 0.82583 0.11362 0.0
H153 H 0.1637 0.8361 0.12897 0.0
H154 H 0.20296 0.83854 0.11989 0.0
H155 H 0.19592 0.8491 0.13495 0.0
H156 H 0.18693 0.88226 0.17446 0.0
H157 H 0.16006 0.88818 0.19608 0.0
H158 H 0.14999 0.87284 0.1882 0.0
H159 H 0.17665 0.8671 0.16644 0.0
C160 C 0.14277 0.82566 0.83943 0.0
C161 C 0.1392 0.83148 0.83032 0.0
C162 C 0.12372 0.81902 0.82838 0.0
C163 C 0.12976 0.82819 0.82485 0.0
C164 C 0.12741 0.81317 0.83748 0.0
C165 C 0.13687 0.81648 0.84295 0.0
U166 U 0.16669 0.84515 0.84214 0.0
O167 O 0.17375 0.8532 0.85645 0.0
O168 O 0.18371 0.8424 0.84669 0.0
C169 C 0.18296 0.84805 0.85566 0.0
C170 C 0.15257 0.82923 0.84531 0.0
C171 C 0.1864 0.84246 0.8656 0.0
C172 C 0.18344 0.82854 0.87939 0.0
C173 C 0.18027 0.83367 0.86977 0.0
C174 C 0.19897 0.84088 0.88069 0.0
C175 C 0.1928 0.83212 0.885 0.0
C176 C 0.19578 0.846 0.87107 0.0
C177 C 0.16944 0.86759 0.82045 0.0
C178 C 0.18281 0.88236 0.8209 0.0
C179 C 0.17063 0.88047 0.80553 0.0
C180 C 0.16584 0.87129 0.81033 0.0
C181 C 0.17912 0.88618 0.81077 0.0
C182 C 0.17799 0.87313 0.82572 0.0
C183 C 0.16406 0.85803 0.82534 0.0
O184 O 0.16175 0.82806 0.84004 0.0
O185 O 0.15188 0.8387 0.85004 0.0
O186 O 0.1594 0.85956 0.83479 0.0
O187 O 0.16947 0.84898 0.82488 0.0
H188 H 0.14367 0.83862 0.82751 0.0
H189 H 0.12707 0.83297 0.81798 0.0
H190 H 0.12304 0.806 0.84033 0.0
H191 H 0.13955 0.81189 0.84995 0.0
H192 H 0.17843 0.82193 0.88254 0.0
H193 H 0.17297 0.83086 0.86564 0.0
H194 H 0.20629 0.84375 0.88472 0.0
H195 H 0.20062 0.85276 0.86793 0.0
H196 H 0.18928 0.88661 0.82518 0.0
H197 H 0.16773 0.88304 0.79763 0.0
H198 H 0.15928 0.86706 0.80614 0.0
H199 H 0.18086 0.87036 0.83355 0.0
C200 C 0.13515 0.16314 0.82762 0.0
C201 C 0.12901 0.16877 0.83525 0.0
C202 C 0.1171 0.17528 0.82089 0.0
C203 C 0.12004 0.17472 0.83193 0.0
C204 C 0.12326 0.16954 0.8133 0.0
C205 C 0.13218 0.16352 0.81665 0.0
U206 U 0.15978 0.16018 0.84594 0.0
O207 O 0.16713 0.1458 0.8533 0.0
O208 O 0.17662 0.15603 0.84198 0.0
C209 C 0.17621 0.14705 0.84777 0.0
C210 C 0.14494 0.15728 0.83089 0.0
C211 C 0.18005 0.1373 0.84233 0.0
C212 C 0.1775 0.12259 0.8295 0.0
C213 C 0.17379 0.13207 0.83432 0.0
C214 C 0.19379 0.12361 0.84055 0.0
C215 C 0.18751 0.1182 0.83263 0.0
C216 C 0.19008 0.13306 0.84535 0.0
C217 C 0.16507 0.18081 0.86835 0.0
C218 C 0.16613 0.18906 0.88619 0.0
C219 C 0.18265 0.18503 0.87648 0.0
C220 C 0.17647 0.18084 0.8679 0.0
C221 C 0.17756 0.1892 0.88574 0.0
C222 C 0.15995 0.18492 0.87757 0.0
C223 C 0.15842 0.17655 0.85932 0.0
O224 O 0.15418 0.16255 0.82914 0.0
O225 O 0.14454 0.1524 0.84042 0.0
O226 O 0.15356 0.16712 0.86111 0.0
O227 O 0.16278 0.17738 0.8496 0.0
H228 H 0.1312 0.16865 0.84377 0.0
H229 H 0.11541 0.17889 0.83803 0.0
H230 H 0.12138 0.16991 0.80472 0.0
H231 H 0.13688 0.15931 0.81063 0.0
H232 H 0.17242 0.11857 0.82351 0.0
H233 H 0.166 0.13525 0.8319 0.0
H234 H 0.20161 0.12057 0.84302 0.0
H235 H 0.19503 0.13703 0.85148 0.0
H236 H 0.16194 0.19204 0.89326 0.0
H237 H 0.19142 0.18514 0.87578 0.0
H238 H 0.18063 0.17767 0.86089 0.0
H239 H 0.15116 0.1849 0.8781 0.0
C240 C 0.82618 0.13309 0.84861 0.0
C241 C 0.83373 0.12701 0.84283 0.0
C242 C 0.8191 0.11538 0.83585 0.0
C243 C 0.83023 0.1182 0.83657 0.0
C244 C 0.81161 0.12142 0.8418 0.0
C245 C 0.81513 0.13018 0.84813 0.0
U246 U 0.84507 0.15756 0.85172 0.0
O247 O 0.84143 0.17453 0.85515 0.0
O248 O 0.8519 0.16546 0.86626 0.0
C249 C 0.84665 0.17447 0.86446 0.0
C250 C 0.8296 0.14288 0.85455 0.0
C251 C 0.84059 0.17869 0.87371 0.0
C252 C 0.82422 0.17931 0.88467 0.0
C253 C 0.83016 0.17467 0.87628 0.0
C254 C 0.83926 0.19179 0.88821 0.0
C255 C 0.82865 0.18803 0.89064 0.0
C256 C 0.84516 0.18717 0.87981 0.0
C257 C 0.86771 0.16277 0.83107 0.0
C258 C 0.87434 0.17953 0.82264 0.0
C259 C 0.88675 0.1649 0.82596 0.0
C260 C 0.87824 0.15863 0.83043 0.0
C261 C 0.88484 0.17537 0.82192 0.0
C262 C 0.86587 0.17333 0.82721 0.0
C263 C 0.85873 0.15594 0.83553 0.0
O264 O 0.83906 0.14251 0.85952 0.0
O265 O 0.82815 0.15201 0.84924 0.0
O266 O 0.8489 0.1598 0.83446 0.0
O267 O 0.86044 0.1515 0.8451 0.0
H268 H 0.84231 0.12917 0.84303 0.0
H269 H 0.83626 0.11364 0.83224 0.0
H270 H 0.80297 0.11963 0.84131 0.0
H271 H 0.80918 0.13485 0.85245 0.0
H272 H 0.81605 0.17628 0.88626 0.0
H273 H 0.82652 0.1681 0.87164 0.0
H274 H 0.84299 0.19836 0.89276 0.0
H275 H 0.85324 0.19033 0.87796 0.0
H276 H 0.87267 0.18763 0.81972 0.0
H277 H 0.89476 0.16147 0.82544 0.0
H278 H 0.87986 0.15051 0.83332 0.0
H279 H 0.85788 0.17682 0.82763 0.0
C280 C 0.84196 0.86805 0.8243 0.0
C281 C 0.83074 0.86786 0.82635 0.0
C282 C 0.82926 0.88604 0.81865 0.0
C283 C 0.82444 0.87675 0.82349 0.0
C284 C 0.84053 0.88616 0.81667 0.0
C285 C 0.8468 0.87724 0.81945 0.0
U286 U 0.84821 0.84433 0.84306 0.0
O287 O 0.85368 0.82791 0.8395 0.0
O288 O 0.8639 0.83877 0.84942 0.0
C289 C 0.86318 0.82954 0.84419 0.0
C290 C 0.84876 0.85885 0.8274 0.0
C291 C 0.87272 0.82683 0.83763 0.0
C292 C 0.88206 0.82616 0.82028 0.0
C293 C 0.87299 0.82891 0.82641 0.0
C294 C 0.89082 0.81942 0.83653 0.0
C295 C 0.89111 0.82137 0.82525 0.0
C296 C 0.8817 0.82211 0.84264 0.0
C297 C 0.82948 0.83824 0.86717 0.0
C298 C 0.83409 0.82655 0.88237 0.0
C299 C 0.81536 0.83144 0.87934 0.0
C300 C 0.81853 0.83759 0.87026 0.0
C301 C 0.82309 0.82586 0.88554 0.0
C302 C 0.83724 0.83264 0.87325 0.0
C303 C 0.83259 0.8447 0.85754 0.0
O304 O 0.85416 0.86002 0.83654 0.0
O305 O 0.84424 0.84916 0.82634 0.0
O306 O 0.83161 0.83969 0.84821 0.0
O307 O 0.84166 0.85048 0.85837 0.0
H308 H 0.82684 0.86087 0.83016 0.0
H309 H 0.81578 0.87628 0.82502 0.0
H310 H 0.84456 0.89323 0.81314 0.0
H311 H 0.85547 0.87756 0.81789 0.0
H312 H 0.88191 0.82765 0.81161 0.0
H313 H 0.86616 0.83261 0.82238 0.0
H314 H 0.89769 0.81594 0.84068 0.0
H315 H 0.88167 0.82051 0.8513 0.0
H316 H 0.84029 0.82247 0.88701 0.0
H317 H 0.80681 0.83095 0.88139 0.0
H318 H 0.81242 0.8418 0.86562 0.0
H319 H 0.84574 0.83301 0.87095 0.0
C320 C 0.16494 0.63244 0.68311 0.0
C321 C 0.17379 0.62781 0.67782 0.0
C322 C 0.17541 0.61451 0.69245 0.0
C323 C 0.17899 0.6189 0.68246 0.0
C324 C 0.16651 0.61923 0.69766 0.0
C325 C 0.16133 0.62809 0.69302 0.0
U326 U 0.16206 0.65544 0.66221 0.0
O327 O 0.14728 0.66221 0.65503 0.0
O328 O 0.15801 0.67248 0.66504 0.0
C329 C 0.14865 0.67156 0.65996 0.0
C330 C 0.15949 0.64195 0.67862 0.0
C331 C 0.13922 0.67545 0.66602 0.0
C332 C 0.12394 0.67225 0.6782 0.0
C333 C 0.13272 0.66834 0.67229 0.0
C334 C 0.12813 0.69044 0.6717 0.0
C335 C 0.12156 0.68337 0.67802 0.0
C336 C 0.13685 0.6865 0.66575 0.0
C337 C 0.18142 0.65976 0.63874 0.0
C338 C 0.17934 0.67543 0.62696 0.0
C339 C 0.1938 0.66284 0.62365 0.0
C340 C 0.19035 0.65659 0.63258 0.0
C341 C 0.18836 0.67237 0.62076 0.0
C342 C 0.1759 0.66918 0.63586 0.0
C343 C 0.17798 0.65337 0.64828 0.0
O344 O 0.16502 0.65115 0.67929 0.0
O345 O 0.15462 0.64061 0.66921 0.0
O346 O 0.16855 0.64826 0.64732 0.0
O347 O 0.17913 0.65837 0.65761 0.0
H348 H 0.17668 0.63111 0.67015 0.0
H349 H 0.18575 0.61542 0.6782 0.0
H350 H 0.16366 0.61622 0.70545 0.0
H351 H 0.15456 0.63163 0.69724 0.0
H352 H 0.119 0.66654 0.68285 0.0
H353 H 0.13445 0.65977 0.67266 0.0
H354 H 0.12668 0.69906 0.67151 0.0
H355 H 0.14184 0.69212 0.66101 0.0
H356 H 0.17506 0.68279 0.62507 0.0
H357 H 0.20069 0.66018 0.61898 0.0
H358 H 0.19468 0.64932 0.63469 0.0
H359 H 0.169 0.67176 0.64057 0.0
C360 C 0.83176 0.66259 0.63218 0.0
C361 C 0.83892 0.6691 0.62598 0.0
C362 C 0.82384 0.6753 0.61487 0.0
C363 C 0.83501 0.67534 0.61737 0.0
C364 C 0.81673 0.66864 0.62106 0.0
C365 C 0.82067 0.66234 0.62962 0.0
U366 U 0.85197 0.65954 0.65512 0.0
O367 O 0.84949 0.65528 0.67231 0.0
O368 O 0.85974 0.64518 0.66209 0.0
C369 C 0.85501 0.64632 0.67157 0.0
C370 C 0.83567 0.65654 0.64169 0.0
C371 C 0.84956 0.63656 0.67596 0.0
C372 C 0.83497 0.623 0.67551 0.0
C373 C 0.84017 0.63219 0.67106 0.0
C374 C 0.84856 0.62246 0.68975 0.0
C375 C 0.83911 0.61803 0.68493 0.0
C376 C 0.85373 0.63163 0.6853 0.0
C377 C 0.87464 0.68064 0.65832 0.0
C378 C 0.88592 0.68117 0.6745 0.0
C379 C 0.88959 0.6937 0.65964 0.0
C380 C 0.8809 0.68913 0.65381 0.0
C381 C 0.89213 0.68986 0.67011 0.0
C382 C 0.87726 0.67659 0.66865 0.0
C383 C 0.86521 0.67628 0.65236 0.0
O384 O 0.8451 0.65184 0.64054 0.0
O385 O 0.83474 0.66161 0.65097 0.0
O386 O 0.8559 0.6768 0.65752 0.0
O387 O 0.86662 0.6669 0.64761 0.0
H388 H 0.84752 0.66947 0.62788 0.0
H389 H 0.84075 0.68023 0.6127 0.0
H390 H 0.80807 0.66852 0.61949 0.0
H391 H 0.81501 0.65744 0.6344 0.0
H392 H 0.82777 0.61973 0.67154 0.0
H393 H 0.83685 0.63592 0.66382 0.0
H394 H 0.85187 0.61896 0.6971 0.0
H395 H 0.86095 0.63494 0.6892 0.0
H396 H 0.88756 0.67809 0.68258 0.0
H397 H 0.8943 0.70025 0.65595 0.0
H398 H 0.879 0.69231 0.64583 0.0
H399 H 0.87249 0.67002 0.67224 0.0
C400 C 0.82557 0.34461 0.6384 0.0
C401 C 0.8291 0.33426 0.63558 0.0
C402 C 0.81711 0.33421 0.6198 0.0
C403 C 0.8249 0.3291 0.62635 0.0
C404 C 0.81377 0.34466 0.62262 0.0
C405 C 0.81796 0.34979 0.63183 0.0
U406 U 0.84576 0.34768 0.66189 0.0
O407 O 0.85305 0.36254 0.66882 0.0
O408 O 0.84286 0.35176 0.67897 0.0
C409 C 0.84805 0.36115 0.67817 0.0
C410 C 0.82966 0.35013 0.64816 0.0
C411 C 0.842 0.37049 0.68205 0.0
C412 C 0.82605 0.38177 0.68153 0.0
C413 C 0.83193 0.37311 0.67747 0.0
C414 C 0.84034 0.38541 0.69464 0.0
C415 C 0.83013 0.38797 0.69024 0.0
C416 C 0.8462 0.37674 0.69058 0.0
C417 C 0.86903 0.32796 0.66518 0.0
C418 C 0.88289 0.33011 0.67912 0.0
C419 C 0.88298 0.3145 0.6673 0.0
C420 C 0.87373 0.31825 0.66201 0.0
C421 C 0.88772 0.32041 0.67588 0.0
C422 C 0.87361 0.33385 0.67381 0.0
C423 C 0.8594 0.33183 0.65939 0.0
O424 O 0.82872 0.34461 0.65729 0.0
O425 O 0.83911 0.35517 0.64711 0.0
O426 O 0.86058 0.34131 0.65456 0.0
O427 O 0.85016 0.3307 0.66466 0.0
H428 H 0.83502 0.33016 0.64057 0.0
H429 H 0.8276 0.32103 0.62446 0.0
H430 H 0.80796 0.34893 0.61765 0.0
H431 H 0.81521 0.35782 0.63385 0.0
H432 H 0.81818 0.38343 0.67803 0.0
H433 H 0.82857 0.36835 0.67086 0.0
H434 H 0.84381 0.39011 0.70122 0.0
H435 H 0.85399 0.37486 0.69417 0.0
H436 H 0.88639 0.33492 0.6856 0.0
H437 H 0.88637 0.30691 0.66472 0.0
H438 H 0.87025 0.31357 0.65541 0.0
H439 H 0.87006 0.34138 0.67636 0.0
C440 C 0.13794 0.32413 0.66515 0.0
C441 C 0.13674 0.32701 0.67607 0.0
C442 C 0.11893 0.31802 0.67665 0.0
C443 C 0.12737 0.32393 0.68178 0.0
C444 C 0.12021 0.31512 0.6657 0.0
C445 C 0.12965 0.31814 0.66 0.0
U446 U 0.16149 0.3439 0.66154 0.0
O447 O 0.17867 0.34131 0.65759 0.0
O448 O 0.16871 0.35144 0.64695 0.0
C449 C 0.17799 0.34649 0.64827 0.0
C450 C 0.14765 0.32767 0.65903 0.0
C451 C 0.18182 0.34044 0.63883 0.0
C452 C 0.17846 0.32764 0.62428 0.0
C453 C 0.17467 0.33368 0.63298 0.0
C454 C 0.19663 0.33499 0.62722 0.0
C455 C 0.18951 0.32814 0.62133 0.0
C456 C 0.19281 0.34109 0.63588 0.0
C457 C 0.16386 0.36706 0.68199 0.0
C458 C 0.17817 0.38091 0.6814 0.0
C459 C 0.16452 0.38118 0.69556 0.0
C460 C 0.15957 0.37189 0.69124 0.0
C461 C 0.17387 0.38582 0.69069 0.0
C462 C 0.17319 0.37159 0.67707 0.0
C463 C 0.15847 0.35731 0.67764 0.0
O464 O 0.14677 0.33696 0.65386 0.0
O465 O 0.15692 0.32678 0.66425 0.0
O466 O 0.1639 0.3483 0.67865 0.0
O467 O 0.15393 0.35846 0.66805 0.0
H468 H 0.14303 0.33169 0.68018 0.0
H469 H 0.12677 0.32616 0.69024 0.0
H470 H 0.11383 0.31071 0.66144 0.0
H471 H 0.13041 0.31593 0.65155 0.0
H472 H 0.17271 0.32259 0.61984 0.0
H473 H 0.16615 0.33302 0.63519 0.0
H474 H 0.20522 0.33546 0.62529 0.0
H475 H 0.19845 0.3462 0.64038 0.0
H476 H 0.18531 0.38433 0.67741 0.0
H477 H 0.1611 0.38463 0.70283 0.0
H478 H 0.15239 0.36845 0.69515 0.0
H479 H 0.17659 0.36794 0.6699 0.0
C480 C 0.13315 0.33108 0.34358 0.0
C481 C 0.13029 0.33706 0.33432 0.0
C482 C 0.11513 0.32454 0.33089 0.0
C483 C 0.12135 0.33383 0.32803 0.0
C484 C 0.11799 0.31865 0.34026 0.0
C485 C 0.12693 0.3219 0.34654 0.0
U486 U 0.15753 0.34976 0.348 0.0
O487 O 0.16446 0.35673 0.36292 0.0
O488 O 0.17429 0.34613 0.35281 0.0
C489 C 0.17357 0.35143 0.36198 0.0
C490 C 0.14275 0.33424 0.34998 0.0
C491 C 0.17696 0.34546 0.37171 0.0
C492 C 0.17407 0.33105 0.385 0.0
C493 C 0.1708 0.33657 0.37563 0.0
C494 C 0.18971 0.34322 0.38654 0.0
C495 C 0.18354 0.33435 0.3906 0.0
C496 C 0.18643 0.34872 0.37718 0.0
C497 C 0.16305 0.373 0.32829 0.0
C498 C 0.17937 0.38426 0.32989 0.0
C499 C 0.16592 0.38838 0.31616 0.0
C500 C 0.15954 0.37953 0.31968 0.0
C501 C 0.17593 0.39084 0.32121 0.0
C502 C 0.17297 0.37543 0.33341 0.0
C503 C 0.15635 0.36366 0.33185 0.0
O504 O 0.1521 0.33295 0.34506 0.0
O505 O 0.14213 0.34358 0.35498 0.0
O506 O 0.15125 0.36489 0.34112 0.0
O507 O 0.16099 0.3542 0.33103 0.0
H508 H 0.13505 0.34416 0.3319 0.0
H509 H 0.11948 0.33846 0.3208 0.0
H510 H 0.11329 0.31155 0.34276 0.0
H511 H 0.12904 0.31721 0.35368 0.0
H512 H 0.16907 0.32434 0.38798 0.0
H513 H 0.16344 0.33397 0.37148 0.0
H514 H 0.19712 0.34587 0.39055 0.0
H515 H 0.19129 0.35554 0.37422 0.0
H516 H 0.18709 0.38583 0.33386 0.0
H517 H 0.16296 0.39335 0.30956 0.0
H518 H 0.15186 0.37777 0.31568 0.0
H519 H 0.1758 0.37045 0.34007 0.0
C520 C 0.14046 0.66391 0.32752 0.0
C521 C 0.13568 0.67172 0.33411 0.0
C522 C 0.12089 0.67359 0.32108 0.0
C523 C 0.12597 0.67653 0.33091 0.0
C524 C 0.12583 0.66585 0.31448 0.0
C525 C 0.13552 0.66106 0.31769 0.0
U526 U 0.16482 0.66036 0.34654 0.0
O527 O 0.17229 0.6453 0.35228 0.0
O528 O 0.18184 0.65705 0.34259 0.0
C529 C 0.18137 0.6473 0.34696 0.0
C530 C 0.15052 0.65857 0.33078 0.0
C531 C 0.18503 0.63846 0.33999 0.0
C532 C 0.1953 0.62202 0.33776 0.0
C533 C 0.19183 0.63053 0.34427 0.0
C534 C 0.18518 0.6293 0.32259 0.0
C535 C 0.19203 0.62131 0.32683 0.0
C536 C 0.18168 0.63778 0.32912 0.0
C537 C 0.16886 0.67834 0.37131 0.0
C538 C 0.17011 0.68855 0.38806 0.0
C539 C 0.1855 0.67829 0.38195 0.0
C540 C 0.17954 0.67487 0.37288 0.0
C541 C 0.18087 0.68522 0.38964 0.0
C542 C 0.16417 0.68514 0.37897 0.0
C543 C 0.1626 0.67501 0.36168 0.0
O544 O 0.15946 0.66454 0.33001 0.0
O545 O 0.14995 0.65285 0.33981 0.0
O546 O 0.15801 0.66531 0.36223 0.0
O547 O 0.16735 0.67703 0.35231 0.0
H548 H 0.13942 0.67401 0.34175 0.0
H549 H 0.12233 0.68239 0.33623 0.0
H550 H 0.12226 0.66353 0.30678 0.0
H551 H 0.13913 0.65508 0.31248 0.0
H552 H 0.20042 0.61593 0.34135 0.0
H553 H 0.19442 0.63088 0.35267 0.0
H554 H 0.18261 0.6291 0.31418 0.0
H555 H 0.17638 0.64381 0.32567 0.0
H556 H 0.16623 0.69374 0.39389 0.0
H557 H 0.1938 0.67568 0.38283 0.0
H558 H 0.18329 0.6696 0.36704 0.0
H559 H 0.15591 0.68784 0.3779 0.0
C560 C 0.82537 0.63925 0.33805 0.0
C561 C 0.82763 0.63829 0.32694 0.0
C562 C 0.81885 0.62039 0.32673 0.0
C563 C 0.82435 0.62897 0.32132 0.0
C564 C 0.81663 0.62143 0.33788 0.0
C565 C 0.81985 0.63078 0.34347 0.0
U566 U 0.8444 0.66368 0.34192 0.0
O567 O 0.84103 0.68024 0.34722 0.0
O568 O 0.85197 0.67011 0.3568 0.0
C569 C 0.84653 0.67917 0.35631 0.0
C570 C 0.82892 0.64889 0.34415 0.0
C571 C 0.84104 0.68247 0.36643 0.0
C572 C 0.82666 0.69203 0.37569 0.0
C573 C 0.83147 0.68852 0.3661 0.0
C574 C 0.84082 0.6835 0.38616 0.0
C575 C 0.83129 0.68958 0.38583 0.0
C576 C 0.84567 0.68004 0.37657 0.0
C577 C 0.86724 0.66991 0.32198 0.0
C578 C 0.88313 0.68116 0.32617 0.0
C579 C 0.87752 0.67876 0.30747 0.0
C580 C 0.86887 0.67205 0.31091 0.0
C581 C 0.88475 0.68343 0.31506 0.0
C582 C 0.87443 0.67453 0.3296 0.0
C583 C 0.85788 0.66311 0.32548 0.0
O584 O 0.83846 0.64818 0.34887 0.0
O585 O 0.82748 0.65827 0.33928 0.0
O586 O 0.84839 0.6678 0.32494 0.0
O587 O 0.85922 0.65748 0.33447 0.0
H588 H 0.83194 0.64474 0.32262 0.0
H589 H 0.82608 0.62854 0.31272 0.0
H590 H 0.81259 0.61493 0.34236 0.0
H591 H 0.81812 0.63135 0.35207 0.0
H592 H 0.81927 0.69664 0.37518 0.0
H593 H 0.82773 0.69064 0.35843 0.0
H594 H 0.84468 0.68163 0.39383 0.0
H595 H 0.85313 0.67556 0.3771 0.0
H596 H 0.88861 0.68446 0.33224 0.0
H597 H 0.87839 0.68046 0.29888 0.0
H598 H 0.86336 0.66862 0.30492 0.0
H599 H 0.8733 0.67305 0.33821 0.0
C600 C 0.83811 0.36331 0.32468 0.0
C601 C 0.8269 0.36358 0.32676 0.0
C602 C 0.82616 0.38188 0.3192 0.0
C603 C 0.82098 0.37275 0.324 0.0
C604 C 0.83743 0.38157 0.31726 0.0
C605 C 0.84332 0.37237 0.31995 0.0
U606 U 0.84369 0.33843 0.34232 0.0
O607 O 0.84846 0.32204 0.33766 0.0
O608 O 0.85926 0.33194 0.34795 0.0
C609 C 0.85807 0.32302 0.34227 0.0
C610 C 0.84449 0.35369 0.32738 0.0
C611 C 0.86731 0.32037 0.33531 0.0
C612 C 0.87796 0.32339 0.31893 0.0
C613 C 0.86926 0.3261 0.3256 0.0
C614 C 0.88294 0.30927 0.33167 0.0
C615 C 0.8849 0.31491 0.32186 0.0
C616 C 0.87421 0.31198 0.33832 0.0
C617 C 0.82562 0.33149 0.36654 0.0
C618 C 0.8283 0.31516 0.37724 0.0
C619 C 0.81432 0.3277 0.38231 0.0
C620 C 0.81721 0.33438 0.37352 0.0
C621 C 0.81982 0.31798 0.38427 0.0
C622 C 0.83118 0.32186 0.36845 0.0
C623 C 0.82851 0.33853 0.35728 0.0
O624 O 0.85004 0.35424 0.33648 0.0
O625 O 0.83953 0.34426 0.32597 0.0
O626 O 0.82709 0.33416 0.34767 0.0
O627 O 0.8378 0.3439 0.35818 0.0
H628 H 0.82272 0.35668 0.33046 0.0
H629 H 0.81231 0.37262 0.3255 0.0
H630 H 0.84174 0.3885 0.31378 0.0
H631 H 0.85198 0.37233 0.31836 0.0
H632 H 0.87914 0.32781 0.31139 0.0
H633 H 0.86399 0.33261 0.32316 0.0
H634 H 0.8882 0.30282 0.33426 0.0
H635 H 0.87284 0.30751 0.34582 0.0
H636 H 0.83261 0.30768 0.37842 0.0
H637 H 0.80786 0.3302 0.38765 0.0
H638 H 0.81286 0.34182 0.37217 0.0
H639 H 0.8377 0.3195 0.36311 0.0
C640 C 0.66284 0.13379 0.67849 0.0
C641 C 0.66868 0.12767 0.67102 0.0
C642 C 0.67509 0.116 0.68564 0.0
C643 C 0.67471 0.11883 0.67455 0.0
C644 C 0.6692 0.12218 0.69308 0.0
C645 C 0.66312 0.13098 0.68952 0.0
U646 U 0.65815 0.1574 0.659 0.0
O647 O 0.64295 0.16395 0.65251 0.0
O648 O 0.65379 0.17422 0.66238 0.0
C649 C 0.64431 0.17324 0.65753 0.0
C650 C 0.65665 0.14328 0.67499 0.0
C651 C 0.63497 0.1768 0.66389 0.0
C652 C 0.62328 0.1752 0.67972 0.0
C653 C 0.63203 0.17154 0.67362 0.0
C654 C 0.62026 0.18934 0.66637 0.0
C655 C 0.61732 0.18419 0.6762 0.0
C656 C 0.62901 0.18568 0.66029 0.0
C657 C 0.67718 0.16237 0.63509 0.0
C658 C 0.67557 0.17833 0.6236 0.0
C659 C 0.68945 0.16523 0.61987 0.0
C660 C 0.68587 0.15896 0.62872 0.0
C661 C 0.68439 0.17503 0.61723 0.0
C662 C 0.67199 0.17205 0.63245 0.0
C663 C 0.67376 0.15592 0.64461 0.0
O664 O 0.66183 0.15265 0.67585 0.0
O665 O 0.65124 0.14225 0.66583 0.0
O666 O 0.66434 0.15079 0.6437 0.0
O667 O 0.67501 0.16081 0.65398 0.0
H668 H 0.66862 0.12975 0.66246 0.0
H669 H 0.67902 0.11418 0.66857 0.0
H670 H 0.66944 0.12038 0.70169 0.0
H671 H 0.65873 0.13566 0.69542 0.0
H672 H 0.62132 0.17112 0.68731 0.0
H673 H 0.63658 0.16467 0.67652 0.0
H674 H 0.61575 0.19618 0.66334 0.0
H675 H 0.63116 0.18981 0.65277 0.0
H676 H 0.67157 0.18589 0.62189 0.0
H677 H 0.69616 0.16237 0.61506 0.0
H678 H 0.68994 0.15149 0.63065 0.0
H679 H 0.66527 0.17481 0.63731 0.0
C680 C 0.32594 0.16322 0.63201 0.0
C681 C 0.33292 0.1695 0.62537 0.0
C682 C 0.31751 0.17528 0.61448 0.0
C683 C 0.32875 0.17544 0.61666 0.0
C684 C 0.31058 0.16896 0.62119 0.0
C685 C 0.31476 0.16298 0.62985 0.0
U686 U 0.34707 0.15965 0.65415 0.0
O687 O 0.34514 0.1557 0.67145 0.0
O688 O 0.35431 0.14489 0.66095 0.0
C689 C 0.35007 0.1464 0.67059 0.0
C690 C 0.33012 0.15724 0.64143 0.0
C691 C 0.34425 0.13703 0.67539 0.0
C692 C 0.3278 0.12605 0.67782 0.0
C693 C 0.3334 0.13461 0.67264 0.0
C694 C 0.34393 0.12207 0.68828 0.0
C695 C 0.33296 0.11976 0.68581 0.0
C696 C 0.34951 0.13064 0.68314 0.0
C697 C 0.37073 0.17962 0.6566 0.0
C698 C 0.38535 0.17657 0.66945 0.0
C699 C 0.38282 0.19449 0.66181 0.0
C700 C 0.374 0.19053 0.65575 0.0
C701 C 0.38854 0.18758 0.66882 0.0
C702 C 0.37649 0.17264 0.66344 0.0
C703 C 0.36093 0.17577 0.65087 0.0
O704 O 0.33928 0.15216 0.63991 0.0
O705 O 0.32982 0.16249 0.65067 0.0
O706 O 0.35185 0.17676 0.65634 0.0
O707 O 0.36167 0.16635 0.64603 0.0
H708 H 0.34158 0.16986 0.62697 0.0
H709 H 0.33434 0.1801 0.6116 0.0
H710 H 0.30187 0.1688 0.61991 0.0
H711 H 0.30925 0.15826 0.63496 0.0
H712 H 0.31934 0.12456 0.67578 0.0
H713 H 0.32922 0.13948 0.66666 0.0
H714 H 0.34822 0.11728 0.69424 0.0
H715 H 0.3579 0.13237 0.68531 0.0
H716 H 0.38965 0.17098 0.67463 0.0
H717 H 0.38494 0.20304 0.66123 0.0
H718 H 0.36958 0.19605 0.65058 0.0
H719 H 0.37403 0.16419 0.66426 0.0
C720 C 0.33029 0.84426 0.639 0.0
C721 C 0.33637 0.83563 0.6351 0.0
C722 C 0.32386 0.83345 0.61987 0.0
C723 C 0.33318 0.83026 0.6256 0.0
C724 C 0.31778 0.84208 0.62391 0.0
C725 C 0.32097 0.84742 0.63338 0.0
U726 U 0.34882 0.848 0.66362 0.0
O727 O 0.35545 0.86288 0.67102 0.0
O728 O 0.34463 0.85206 0.68047 0.0
C729 C 0.34976 0.86149 0.67997 0.0
C730 C 0.33351 0.85001 0.64893 0.0
C731 C 0.3434 0.87084 0.68343 0.0
C732 C 0.33192 0.88611 0.67926 0.0
C733 C 0.338 0.87732 0.67582 0.0
C734 C 0.33645 0.88195 0.69795 0.0
C735 C 0.33103 0.88853 0.69038 0.0
C736 C 0.34258 0.87321 0.6945 0.0
C737 C 0.37229 0.82889 0.6685 0.0
C738 C 0.38336 0.8299 0.6848 0.0
C739 C 0.38768 0.81709 0.67071 0.0
C740 C 0.3789 0.8207 0.66456 0.0
C741 C 0.39 0.82161 0.68094 0.0
C742 C 0.37459 0.83352 0.67863 0.0
C743 C 0.36299 0.83248 0.66201 0.0
O744 O 0.33215 0.84449 0.65801 0.0
O745 O 0.34287 0.85532 0.64847 0.0
O746 O 0.36425 0.84199 0.65724 0.0
O747 O 0.35343 0.83113 0.66664 0.0
H748 H 0.3436 0.83308 0.63937 0.0
H749 H 0.33811 0.82374 0.62266 0.0
H750 H 0.31047 0.84464 0.6198 0.0
H751 H 0.31616 0.85404 0.63633 0.0
H752 H 0.328 0.89106 0.67318 0.0
H753 H 0.33848 0.8756 0.66723 0.0
H754 H 0.3358 0.88342 0.70658 0.0
H755 H 0.34664 0.86824 0.70049 0.0
H756 H 0.38482 0.83347 0.69269 0.0
H757 H 0.3927 0.81081 0.66742 0.0
H758 H 0.37725 0.81708 0.65672 0.0
H759 H 0.36954 0.83986 0.68179 0.0
C760 C 0.6376 0.82318 0.66134 0.0
C761 C 0.63982 0.81637 0.67025 0.0
C762 C 0.62048 0.81398 0.67392 0.0
C763 C 0.63137 0.81184 0.67646 0.0
C764 C 0.61824 0.82075 0.66501 0.0
C765 C 0.6267 0.82525 0.65875 0.0
U766 U 0.65973 0.8448 0.65588 0.0
O767 O 0.67668 0.84311 0.65072 0.0
O768 O 0.66539 0.85226 0.64054 0.0
C769 C 0.67508 0.84803 0.64137 0.0
C770 C 0.64657 0.82784 0.65463 0.0
C771 C 0.67882 0.84211 0.63183 0.0
C772 C 0.67887 0.82583 0.62086 0.0
C773 C 0.67473 0.83167 0.62957 0.0
C774 C 0.691 0.84094 0.61642 0.0
C775 C 0.68715 0.83035 0.61426 0.0
C776 C 0.68687 0.84676 0.62514 0.0
C777 C 0.66354 0.86785 0.67622 0.0
C778 C 0.67989 0.87914 0.67753 0.0
C779 C 0.66413 0.88318 0.68844 0.0
C780 C 0.65848 0.8744 0.68387 0.0
C781 C 0.67497 0.88555 0.68548 0.0
C782 C 0.67421 0.87037 0.67293 0.0
C783 C 0.65775 0.85814 0.67221 0.0
O784 O 0.64468 0.83709 0.64966 0.0
O785 O 0.65637 0.8275 0.65889 0.0
O786 O 0.66323 0.84912 0.67279 0.0
O787 O 0.65245 0.85928 0.66302 0.0
H788 H 0.6481 0.8145 0.67245 0.0
H789 H 0.63337 0.80675 0.68335 0.0
H790 H 0.60992 0.82242 0.66276 0.0
H791 H 0.6247 0.83032 0.65184 0.0
H792 H 0.6758 0.81766 0.61952 0.0
H793 H 0.66851 0.82797 0.63469 0.0
H794 H 0.69724 0.84473 0.6114 0.0
H795 H 0.69008 0.85483 0.62675 0.0
H796 H 0.68825 0.88067 0.67512 0.0
H797 H 0.66002 0.88806 0.69437 0.0
H798 H 0.65022 0.87259 0.68646 0.0
H799 H 0.67824 0.86539 0.66701 0.0
C800 C 0.63611 0.83084 0.34221 0.0
C801 C 0.63373 0.83546 0.33207 0.0
C802 C 0.61868 0.82255 0.3297 0.0
C803 C 0.6251 0.83134 0.32585 0.0
C804 C 0.62092 0.81819 0.34003 0.0
C805 C 0.62958 0.82229 0.34622 0.0
U806 U 0.65942 0.85098 0.34696 0.0
O807 O 0.66672 0.85683 0.36225 0.0
O808 O 0.67663 0.84821 0.35043 0.0
C809 C 0.67601 0.85214 0.3603 0.0
C810 C 0.64566 0.83452 0.34842 0.0
C811 C 0.68016 0.84516 0.36908 0.0
C812 C 0.68733 0.84328 0.38739 0.0
C813 C 0.6833 0.84978 0.379 0.0
C814 C 0.68516 0.82746 0.37601 0.0
C815 C 0.68832 0.83204 0.38598 0.0
C816 C 0.68108 0.83393 0.36768 0.0
C817 C 0.66349 0.87535 0.32847 0.0
C818 C 0.67981 0.88662 0.33012 0.0
C819 C 0.6669 0.89008 0.31569 0.0
C820 C 0.66031 0.88149 0.31945 0.0
C821 C 0.67681 0.89265 0.3209 0.0
C822 C 0.67321 0.87803 0.33387 0.0
C823 C 0.65702 0.8658 0.33183 0.0
O824 O 0.65493 0.83413 0.34317 0.0
O825 O 0.64452 0.84354 0.35389 0.0
O826 O 0.65244 0.86636 0.34144 0.0
O827 O 0.66173 0.8565 0.33012 0.0
H828 H 0.63872 0.84208 0.32886 0.0
H829 H 0.6237 0.83482 0.31789 0.0
H830 H 0.61603 0.81154 0.34332 0.0
H831 H 0.63128 0.81867 0.35406 0.0
H832 H 0.68954 0.84705 0.39501 0.0
H833 H 0.68261 0.85841 0.38028 0.0
H834 H 0.68597 0.81887 0.37458 0.0
H835 H 0.67869 0.83013 0.36012 0.0
H836 H 0.68744 0.88827 0.33423 0.0
H837 H 0.66429 0.89466 0.30866 0.0
H838 H 0.65282 0.8795 0.3152 0.0
H839 H 0.67581 0.87332 0.34082 0.0
C840 C 0.63422 0.16228 0.32896 0.0
C841 C 0.63169 0.17182 0.33443 0.0
C842 C 0.61655 0.17481 0.32206 0.0
C843 C 0.62293 0.17804 0.33101 0.0
C844 C 0.61913 0.16519 0.31665 0.0
C845 C 0.62789 0.15898 0.32008 0.0
U846 U 0.65776 0.15738 0.3482 0.0
O847 O 0.66361 0.14224 0.35554 0.0
O848 O 0.67439 0.15211 0.34505 0.0
C849 C 0.67303 0.14302 0.35054 0.0
C850 C 0.64346 0.15575 0.33245 0.0
C851 C 0.67672 0.13314 0.34517 0.0
C852 C 0.67938 0.12228 0.32903 0.0
C853 C 0.67512 0.13143 0.33402 0.0
C854 C 0.68657 0.11635 0.34635 0.0
C855 C 0.68531 0.11472 0.33512 0.0
C856 C 0.68234 0.12548 0.3513 0.0
C857 C 0.66371 0.17696 0.37124 0.0
C858 C 0.67533 0.17265 0.38657 0.0
C859 C 0.67174 0.19139 0.38212 0.0
C860 C 0.66518 0.18801 0.37345 0.0
C861 C 0.67693 0.18375 0.38879 0.0
C862 C 0.66885 0.16929 0.37784 0.0
C863 C 0.6571 0.17359 0.36183 0.0
O864 O 0.65307 0.16046 0.33125 0.0
O865 O 0.64226 0.15083 0.34189 0.0
O866 O 0.6513 0.16459 0.36307 0.0
O867 O 0.66208 0.17424 0.35241 0.0
H868 H 0.63652 0.17449 0.34131 0.0
H869 H 0.62127 0.18547 0.33527 0.0
H870 H 0.61431 0.16239 0.30982 0.0
H871 H 0.62973 0.1516 0.3158 0.0
H872 H 0.67831 0.1213 0.32036 0.0
H873 H 0.67075 0.13725 0.32915 0.0
H874 H 0.69088 0.11058 0.35133 0.0
H875 H 0.68359 0.12664 0.35993 0.0
H876 H 0.67906 0.16652 0.3916 0.0
H877 H 0.67291 0.19999 0.38344 0.0
H878 H 0.66136 0.19405 0.36838 0.0
H879 H 0.66788 0.1607 0.37624 0.0
C880 C 0.32268 0.13982 0.3408 0.0
C881 C 0.32687 0.13713 0.33061 0.0
C882 C 0.31569 0.12059 0.33044 0.0
C883 C 0.32338 0.12762 0.32546 0.0
C884 C 0.31153 0.12337 0.34067 0.0
C885 C 0.31499 0.1329 0.34579 0.0
U886 U 0.34263 0.16358 0.34368 0.0
O887 O 0.33981 0.18072 0.34713 0.0
O888 O 0.34961 0.17105 0.35835 0.0
C889 C 0.34488 0.18033 0.35653 0.0
C890 C 0.32637 0.14973 0.34634 0.0
C891 C 0.33893 0.18479 0.36573 0.0
C892 C 0.32267 0.18577 0.37681 0.0
C893 C 0.32839 0.18107 0.3683 0.0
C894 C 0.33809 0.19775 0.38039 0.0
C895 C 0.32742 0.19425 0.38288 0.0
C896 C 0.34378 0.19307 0.37188 0.0
C897 C 0.36644 0.16754 0.32481 0.0
C898 C 0.37791 0.18363 0.32686 0.0
C899 C 0.38221 0.17034 0.31321 0.0
C900 C 0.37314 0.16406 0.31639 0.0
C901 C 0.3847 0.18021 0.31841 0.0
C902 C 0.36889 0.17734 0.33003 0.0
C903 C 0.35687 0.16104 0.32812 0.0
O904 O 0.33563 0.14898 0.35158 0.0
O905 O 0.32562 0.15873 0.34063 0.0
O906 O 0.34752 0.16579 0.32663 0.0
O907 O 0.35765 0.15632 0.33769 0.0
H908 H 0.33284 0.14239 0.32665 0.0
H909 H 0.32665 0.12583 0.31753 0.0
H910 H 0.30573 0.11808 0.34482 0.0
H911 H 0.31173 0.13485 0.35369 0.0
H912 H 0.31444 0.18295 0.37844 0.0
H913 H 0.32453 0.17465 0.36363 0.0
H914 H 0.34207 0.20413 0.38501 0.0
H915 H 0.35194 0.19599 0.37003 0.0
H916 H 0.37947 0.19126 0.33093 0.0
H917 H 0.38733 0.16742 0.30676 0.0
H918 H 0.37137 0.15648 0.3123 0.0
H919 H 0.36376 0.18017 0.33653 0.0
C920 C 0.34062 0.86981 0.32501 0.0
C921 C 0.32947 0.8697 0.32739 0.0
C922 C 0.32778 0.8877 0.31935 0.0
C923 C 0.3231 0.87852 0.32453 0.0
C924 C 0.33899 0.88775 0.31702 0.0
C925 C 0.34533 0.87888 0.31981 0.0
U926 U 0.34682 0.84616 0.34379 0.0
O927 O 0.35239 0.82976 0.3403 0.0
O928 O 0.36246 0.84066 0.35032 0.0
C929 C 0.36183 0.83142 0.3451 0.0
C930 C 0.34748 0.86067 0.32813 0.0
C931 C 0.37145 0.82873 0.33865 0.0
C932 C 0.38102 0.82815 0.32142 0.0
C933 C 0.37186 0.83087 0.32745 0.0
C934 C 0.38956 0.82132 0.33776 0.0
C935 C 0.38999 0.82333 0.32649 0.0
C936 C 0.38036 0.82397 0.34376 0.0
C937 C 0.32794 0.83989 0.36766 0.0
C938 C 0.33258 0.82803 0.38272 0.0
C939 C 0.31382 0.83279 0.37966 0.0
C940 C 0.31699 0.8391 0.37069 0.0
C941 C 0.32157 0.82718 0.38581 0.0
C942 C 0.33573 0.83428 0.37371 0.0
C943 C 0.33106 0.84644 0.3581 0.0
O944 O 0.35277 0.86187 0.33733 0.0
O945 O 0.34302 0.85096 0.32702 0.0
O946 O 0.33018 0.84145 0.34874 0.0
O947 O 0.34007 0.85227 0.35902 0.0
H948 H 0.32568 0.86279 0.33147 0.0
H949 H 0.31449 0.87811 0.32633 0.0
H950 H 0.34292 0.89473 0.31321 0.0
H951 H 0.35395 0.87915 0.31799 0.0
H952 H 0.38098 0.82969 0.31276 0.0
H953 H 0.36508 0.8346 0.32335 0.0
H954 H 0.39637 0.81781 0.34198 0.0
H955 H 0.38021 0.82233 0.35241 0.0
H956 H 0.33879 0.82394 0.38733 0.0
H957 H 0.30526 0.83218 0.38165 0.0
H958 H 0.31086 0.84331 0.36606 0.0
H959 H 0.34424 0.83475 0.37146 0.0
C960 C 0.6639 0.63372 0.18122 0.0
C961 C 0.65893 0.62495 0.18671 0.0
C962 C 0.67643 0.61622 0.18859 0.0
C963 C 0.66513 0.61627 0.19036 0.0
C964 C 0.68135 0.62503 0.18302 0.0
C965 C 0.67514 0.63367 0.17933 0.0
U966 U 0.65899 0.65705 0.16163 0.0
O967 O 0.64389 0.66306 0.15441 0.0
O968 O 0.65392 0.67373 0.16471 0.0
C969 C 0.6447 0.67241 0.15945 0.0
C970 C 0.6573 0.64285 0.17752 0.0
C971 C 0.63499 0.67586 0.16534 0.0
C972 C 0.61962 0.67206 0.17725 0.0
C973 C 0.62859 0.66848 0.1714 0.0
C974 C 0.62341 0.69044 0.17108 0.0
C975 C 0.61696 0.68311 0.17722 0.0
C976 C 0.63232 0.68684 0.16519 0.0
C977 C 0.67909 0.66269 0.13868 0.0
C978 C 0.67543 0.67487 0.12358 0.0
C979 C 0.69391 0.66964 0.12746 0.0
C980 C 0.69018 0.66327 0.13617 0.0
C981 C 0.68659 0.67555 0.12105 0.0
C982 C 0.67172 0.66854 0.13234 0.0
C983 C 0.67539 0.65621 0.14809 0.0
O984 O 0.66183 0.65252 0.17866 0.0
O985 O 0.65245 0.64154 0.16809 0.0
O986 O 0.66626 0.65062 0.14678 0.0
O987 O 0.67598 0.66118 0.15747 0.0
H988 H 0.65025 0.62481 0.18817 0.0
H989 H 0.66105 0.60955 0.19446 0.0
H990 H 0.69004 0.62535 0.18164 0.0
H991 H 0.67914 0.64035 0.17507 0.0
H992 H 0.61477 0.66616 0.18176 0.0
H993 H 0.63057 0.65996 0.17167 0.0
H994 H 0.62175 0.69902 0.17101 0.0
H995 H 0.63723 0.69266 0.16063 0.0
H996 H 0.66954 0.67917 0.11876 0.0
H997 H 0.70257 0.67011 0.1259 0.0
H998 H 0.69599 0.65887 0.14103 0.0
H999 H 0.66311 0.66825 0.13419 0.0
C1000 C 0.32845 0.666 0.13184 0.0
C1001 C 0.33339 0.67604 0.12927 0.0
C1002 C 0.32044 0.67865 0.11456 0.0
C1003 C 0.32942 0.68231 0.1207 0.0
C1004 C 0.31562 0.66849 0.1171 0.0
C1005 C 0.3196 0.66223 0.12568 0.0
U1006 U 0.3484 0.66222 0.15489 0.0
O1007 O 0.34585 0.65696 0.17177 0.0
O1008 O 0.3563 0.64757 0.16109 0.0
C1009 C 0.35131 0.64801 0.1705 0.0
C1010 C 0.33235 0.65957 0.14106 0.0
C1011 C 0.34558 0.638 0.17391 0.0
C1012 C 0.32935 0.62646 0.1741 0.0
C1013 C 0.33479 0.63595 0.17072 0.0
C1014 C 0.34549 0.62088 0.18375 0.0
C1015 C 0.33463 0.6188 0.18066 0.0
C1016 C 0.3509 0.63041 0.18041 0.0
C1017 C 0.37058 0.68385 0.15913 0.0
C1018 C 0.38543 0.68183 0.17195 0.0
C1019 C 0.38196 0.69939 0.16386 0.0
C1020 C 0.37327 0.69488 0.15803 0.0
C1021 C 0.38817 0.69293 0.17089 0.0
C1022 C 0.37669 0.67734 0.16614 0.0
C1023 C 0.36123 0.67938 0.15313 0.0
O1024 O 0.34194 0.65527 0.13974 0.0
O1025 O 0.33119 0.6641 0.1506 0.0
O1026 O 0.35195 0.67939 0.15839 0.0
O1027 O 0.36288 0.67031 0.1479 0.0
H1028 H 0.34023 0.67908 0.13398 0.0
H1029 H 0.33323 0.69014 0.11907 0.0
H1030 H 0.3088 0.66537 0.11245 0.0
H1031 H 0.31572 0.65448 0.12755 0.0
H1032 H 0.32095 0.62523 0.17169 0.0
H1033 H 0.33055 0.64171 0.16566 0.0
H1034 H 0.34987 0.6151 0.18864 0.0
H1035 H 0.35925 0.63185 0.1829 0.0
H1036 H 0.39009 0.6766 0.1772 0.0
H1037 H 0.38369 0.70799 0.16301 0.0
H1038 H 0.36857 0.70003 0.15273 0.0
H1039 H 0.37467 0.6688 0.16712 0.0
C1040 C 0.32592 0.34413 0.13942 0.0
C1041 C 0.33164 0.33484 0.13663 0.0
C1042 C 0.31948 0.33172 0.12129 0.0
C1043 C 0.32845 0.32869 0.12764 0.0
C1044 C 0.31384 0.3411 0.12411 0.0
C1045 C 0.31704 0.34725 0.13311 0.0
U1046 U 0.34475 0.34872 0.16335 0.0
O1047 O 0.35173 0.36381 0.17017 0.0
O1048 O 0.3414 0.35304 0.18024 0.0
C1049 C 0.34659 0.36243 0.17945 0.0
C1050 C 0.32913 0.35049 0.14897 0.0
C1051 C 0.34089 0.37192 0.18368 0.0
C1052 C 0.32449 0.38055 0.19003 0.0
C1053 C 0.32954 0.37189 0.18495 0.0
C1054 C 0.34199 0.38963 0.19215 0.0
C1055 C 0.33068 0.38944 0.19389 0.0
C1056 C 0.34703 0.38095 0.18714 0.0
C1057 C 0.36782 0.32905 0.16816 0.0
C1058 C 0.38311 0.33249 0.18025 0.0
C1059 C 0.37854 0.31411 0.17486 0.0
C1060 C 0.36994 0.31795 0.1686 0.0
C1061 C 0.38524 0.32133 0.18079 0.0
C1062 C 0.37445 0.33631 0.17404 0.0
C1063 C 0.35849 0.33284 0.16179 0.0
O1064 O 0.32785 0.34545 0.15834 0.0
O1065 O 0.33851 0.35572 0.14815 0.0
O1066 O 0.35984 0.34219 0.15673 0.0
O1067 O 0.34901 0.33178 0.16662 0.0
H1068 H 0.33852 0.33231 0.14145 0.0
H1069 H 0.33289 0.32145 0.1258 0.0
H1070 H 0.30699 0.34375 0.11932 0.0
H1071 H 0.31256 0.35442 0.13515 0.0
H1072 H 0.31578 0.38008 0.19129 0.0
H1073 H 0.32459 0.36504 0.1823 0.0
H1074 H 0.34699 0.39644 0.19481 0.0
H1075 H 0.35579 0.38117 0.1862 0.0
H1076 H 0.38816 0.33831 0.18458 0.0
H1077 H 0.37979 0.30546 0.17523 0.0
H1078 H 0.36485 0.31222 0.16418 0.0
H1079 H 0.37291 0.34492 0.17386 0.0
C1080 C 0.63231 0.32543 0.16263 0.0
C1081 C 0.63442 0.31832 0.17133 0.0
C1082 C 0.61504 0.316 0.17483 0.0
C1083 C 0.62589 0.31369 0.17736 0.0
C1084 C 0.61291 0.32304 0.16609 0.0
C1085 C 0.62145 0.32765 0.16002 0.0
U1086 U 0.65462 0.34709 0.15836 0.0
O1087 O 0.67162 0.34546 0.15326 0.0
O1088 O 0.66053 0.35532 0.14353 0.0
C1089 C 0.67013 0.35085 0.14416 0.0
C1090 C 0.64137 0.33032 0.15619 0.0
C1091 C 0.6738 0.34527 0.13437 0.0
C1092 C 0.67061 0.33236 0.11988 0.0
C1093 C 0.66678 0.33825 0.12868 0.0
C1094 C 0.68853 0.3405 0.12233 0.0
C1095 C 0.68158 0.33329 0.11668 0.0
C1096 C 0.68466 0.34644 0.13109 0.0
C1097 C 0.65846 0.36908 0.17974 0.0
C1098 C 0.67126 0.38422 0.17773 0.0
C1099 C 0.66281 0.38047 0.19517 0.0
C1100 C 0.65712 0.37168 0.19069 0.0
C1101 C 0.66996 0.38686 0.18875 0.0
C1102 C 0.66557 0.37538 0.17327 0.0
C1103 C 0.65265 0.35957 0.17536 0.0
O1104 O 0.63959 0.3398 0.15164 0.0
O1105 O 0.65112 0.32969 0.16048 0.0
O1106 O 0.65815 0.35056 0.1755 0.0
O1107 O 0.64732 0.36112 0.16624 0.0
H1108 H 0.64267 0.31633 0.17353 0.0
H1109 H 0.62781 0.30839 0.18411 0.0
H1110 H 0.60463 0.32486 0.16385 0.0
H1111 H 0.61954 0.33296 0.15327 0.0
H1112 H 0.66499 0.32701 0.11563 0.0
H1113 H 0.65837 0.33718 0.13115 0.0
H1114 H 0.69705 0.34131 0.12023 0.0
H1115 H 0.69022 0.35175 0.13546 0.0
H1116 H 0.67661 0.38902 0.17255 0.0
H1117 H 0.66177 0.38211 0.20372 0.0
H1118 H 0.65174 0.36683 0.19582 0.0
H1119 H 0.66674 0.37343 0.16479 0.0
C1120 C 0.63444 0.32934 0.84366 0.0
C1121 C 0.62855 0.33689 0.8376 0.0
C1122 C 0.61707 0.32236 0.83026 0.0
C1123 C 0.61991 0.33344 0.83102 0.0
C1124 C 0.62297 0.31484 0.83644 0.0
C1125 C 0.63157 0.31831 0.84308 0.0
U1126 U 0.65812 0.34882 0.84841 0.0
O1127 O 0.66463 0.35611 0.86336 0.0
O1128 O 0.67495 0.3458 0.85343 0.0
C1129 C 0.67391 0.35109 0.86258 0.0
C1130 C 0.64389 0.3328 0.85019 0.0
C1131 C 0.67727 0.34518 0.87237 0.0
C1132 C 0.67453 0.33061 0.8855 0.0
C1133 C 0.67129 0.33611 0.8761 0.0
C1134 C 0.68978 0.34319 0.88744 0.0
C1135 C 0.68379 0.33412 0.89131 0.0
C1136 C 0.68654 0.34867 0.87805 0.0
C1137 C 0.66291 0.37205 0.8283 0.0
C1138 C 0.67521 0.38729 0.83174 0.0
C1139 C 0.6691 0.38359 0.81341 0.0
C1140 C 0.66293 0.37473 0.81724 0.0
C1141 C 0.67534 0.38998 0.82061 0.0
C1142 C 0.6691 0.37837 0.83555 0.0
C1143 C 0.65664 0.36248 0.83209 0.0
O1144 O 0.65334 0.33182 0.84538 0.0
O1145 O 0.64294 0.34206 0.8553 0.0
O1146 O 0.65135 0.3636 0.84127 0.0
O1147 O 0.66171 0.35325 0.83143 0.0
H1148 H 0.63068 0.34544 0.83787 0.0
H1149 H 0.61546 0.33949 0.82653 0.0
H1150 H 0.62114 0.30624 0.83594 0.0
H1151 H 0.63609 0.31236 0.84763 0.0
H1152 H 0.66966 0.32375 0.88832 0.0
H1153 H 0.66409 0.33332 0.87179 0.0
H1154 H 0.69704 0.34602 0.89163 0.0
H1155 H 0.69127 0.35565 0.87524 0.0
H1156 H 0.6798 0.3921 0.83755 0.0
H1157 H 0.66913 0.38529 0.80478 0.0
H1158 H 0.65826 0.36987 0.81152 0.0
H1159 H 0.66923 0.37639 0.84413 0.0
C1160 C 0.63795 0.6614 0.83043 0.0
C1161 C 0.63589 0.67226 0.8329 0.0
C1162 C 0.61939 0.6715 0.82192 0.0
C1163 C 0.62667 0.67727 0.82867 0.0
C1164 C 0.62137 0.66053 0.81978 0.0
C1165 C 0.63057 0.65555 0.82398 0.0
U1166 U 0.66245 0.6586 0.84953 0.0
O1167 O 0.66997 0.64387 0.85594 0.0
O1168 O 0.6794 0.65498 0.84543 0.0
C1169 C 0.67895 0.64549 0.85033 0.0
C1170 C 0.64792 0.65612 0.83409 0.0
C1171 C 0.68245 0.63632 0.8437 0.0
C1172 C 0.67838 0.62164 0.8312 0.0
C1173 C 0.6749 0.63014 0.83769 0.0
C1174 C 0.69701 0.62545 0.83657 0.0
C1175 C 0.68949 0.61921 0.8305 0.0
C1176 C 0.6935 0.6339 0.84312 0.0
C1177 C 0.66716 0.67775 0.87319 0.0
C1178 C 0.68345 0.67681 0.88428 0.0
C1179 C 0.66944 0.68954 0.88875 0.0
C1180 C 0.66327 0.68591 0.87991 0.0
C1181 C 0.67962 0.68506 0.89103 0.0
C1182 C 0.67727 0.67319 0.87544 0.0
C1183 C 0.66066 0.67409 0.86386 0.0
O1184 O 0.65698 0.66182 0.83287 0.0
O1185 O 0.6473 0.65097 0.84345 0.0
O1186 O 0.65594 0.66449 0.86499 0.0
O1187 O 0.66527 0.67555 0.85433 0.0
H1188 H 0.6415 0.6769 0.83791 0.0
H1189 H 0.62541 0.68574 0.83043 0.0
H1190 H 0.61583 0.65578 0.8148 0.0
H1191 H 0.632 0.64714 0.82205 0.0
H1192 H 0.67234 0.61694 0.82677 0.0
H1193 H 0.66632 0.63192 0.83798 0.0
H1194 H 0.70563 0.62396 0.8361 0.0
H1195 H 0.69945 0.63865 0.84763 0.0
H1196 H 0.69131 0.67328 0.8857 0.0
H1197 H 0.66617 0.69579 0.89387 0.0
H1198 H 0.65545 0.68948 0.8783 0.0
H1199 H 0.68039 0.66687 0.87032 0.0
C1200 C 0.32784 0.63806 0.83885 0.0
C1201 C 0.32291 0.64007 0.82874 0.0
C1202 C 0.31938 0.62076 0.82628 0.0
C1203 C 0.31871 0.63152 0.82255 0.0
C1204 C 0.32435 0.61874 0.83635 0.0
C1205 C 0.32847 0.62731 0.8426 0.0
U1206 U 0.34846 0.661 0.84435 0.0
O1207 O 0.34615 0.6776 0.85001 0.0
O1208 O 0.35594 0.66643 0.85971 0.0
C1209 C 0.35142 0.67598 0.85914 0.0
C1210 C 0.33213 0.64705 0.84563 0.0
C1211 C 0.34587 0.67963 0.86897 0.0
C1212 C 0.32939 0.68196 0.87948 0.0
C1213 C 0.33478 0.67737 0.87069 0.0
C1214 C 0.34625 0.69068 0.88518 0.0
C1215 C 0.33503 0.68886 0.88669 0.0
C1216 C 0.35161 0.68612 0.87638 0.0
C1217 C 0.37123 0.6673 0.82441 0.0
C1218 C 0.38681 0.67888 0.8288 0.0
C1219 C 0.38139 0.67651 0.81005 0.0
C1220 C 0.37289 0.66955 0.81337 0.0
C1221 C 0.38842 0.68133 0.81773 0.0
C1222 C 0.37826 0.672 0.83212 0.0
C1223 C 0.36179 0.66056 0.82778 0.0
O1224 O 0.34157 0.64546 0.85033 0.0
O1225 O 0.33122 0.65691 0.84163 0.0
O1226 O 0.35244 0.6655 0.82748 0.0
O1227 O 0.36307 0.65463 0.83659 0.0
H1228 H 0.32226 0.64825 0.82559 0.0
H1229 H 0.31504 0.63332 0.81476 0.0
H1230 H 0.32488 0.61055 0.83948 0.0
H1231 H 0.33213 0.62553 0.8504 0.0
H1232 H 0.32073 0.68045 0.88036 0.0
H1233 H 0.33022 0.67235 0.86504 0.0
H1234 H 0.35088 0.69578 0.89069 0.0
H1235 H 0.36019 0.68791 0.8752 0.0
H1236 H 0.39215 0.6823 0.83494 0.0
H1237 H 0.38224 0.67833 0.80148 0.0
H1238 H 0.36748 0.66609 0.80731 0.0
H1239 H 0.37708 0.67045 0.84071 0.0
C1240 C 0.34361 0.36897 0.82341 0.0
C1241 C 0.33356 0.37165 0.82793 0.0
C1242 C 0.33183 0.38643 0.81485 0.0
C1243 C 0.32772 0.38032 0.82368 0.0
C1244 C 0.34202 0.38381 0.81053 0.0
C1245 C 0.34784 0.37515 0.81477 0.0
U1246 U 0.34806 0.34613 0.84394 0.0
O1247 O 0.35224 0.32914 0.8412 0.0
O1248 O 0.36334 0.33973 0.85044 0.0
C1249 C 0.36184 0.33027 0.84579 0.0
C1250 C 0.34963 0.35959 0.8274 0.0
C1251 C 0.371 0.32645 0.83932 0.0
C1252 C 0.38168 0.32682 0.82273 0.0
C1253 C 0.37318 0.33082 0.82898 0.0
C1254 C 0.38601 0.3142 0.83719 0.0
C1255 C 0.38814 0.31839 0.82673 0.0
C1256 C 0.3775 0.3182 0.84342 0.0
C1257 C 0.32941 0.34225 0.86836 0.0
C1258 C 0.3284 0.32556 0.87894 0.0
C1259 C 0.32082 0.342 0.88611 0.0
C1260 C 0.32401 0.34761 0.87669 0.0
C1261 C 0.32295 0.33089 0.88735 0.0
C1262 C 0.33164 0.3312 0.86957 0.0
C1263 C 0.33272 0.34827 0.8585 0.0
O1264 O 0.35497 0.36104 0.83654 0.0
O1265 O 0.34434 0.35025 0.82698 0.0
O1266 O 0.33124 0.34311 0.8493 0.0
O1267 O 0.34218 0.35339 0.85907 0.0
H1268 H 0.33019 0.36694 0.83462 0.0
H1269 H 0.31985 0.38204 0.82713 0.0
H1270 H 0.34552 0.38846 0.80385 0.0
H1271 H 0.35561 0.37321 0.81122 0.0
H1272 H 0.38301 0.33015 0.81468 0.0
H1273 H 0.36822 0.33721 0.8257 0.0
H1274 H 0.39092 0.30784 0.8406 0.0
H1275 H 0.37595 0.31477 0.85141 0.0
H1276 H 0.33005 0.317 0.87952 0.0
H1277 H 0.31683 0.34642 0.89247 0.0
H1278 H 0.32229 0.35615 0.87592 0.0
H1279 H 0.33586 0.32692 0.86324 0.0
C1280 C 0.29349 0.27098 0.06669 0.0
C1281 C 0.29652 0.28164 0.06083 0.0
C1282 C 0.28388 0.28176 0.04526 0.0
C1283 C 0.27463 0.2866 0.04098 0.0
C1284 C 0.27012 0.2832 0.03107 0.0
C1285 C 0.27497 0.27468 0.02533 0.0
C1286 C 0.28437 0.26977 0.02956 0.0
C1287 C 0.28877 0.27338 0.03944 0.0
C1288 C 0.26014 0.28868 0.02675 0.0
C1289 C 0.28975 0.26066 0.02363 0.0
C1290 C 0.31053 0.29599 0.96508 0.0
C1291 C 0.30317 0.29077 0.95643 0.0
C1292 C 0.28705 0.2864 0.96759 0.0
C1293 C 0.29124 0.2772 0.9728 0.0
C1294 C 0.28574 0.27225 0.98156 0.0
C1295 C 0.27591 0.27665 0.98531 0.0
C1296 C 0.27156 0.28577 0.97997 0.0
C1297 C 0.27713 0.29045 0.97109 0.0
C1298 C 0.29054 0.26243 0.98695 0.0
C1299 C 0.26113 0.29071 0.98378 0.0
C1300 C 0.22442 0.22837 0.96249 0.0
C1301 C 0.23443 0.22483 0.9666 0.0
C1302 C 0.23834 0.22842 0.97669 0.0
C1303 C 0.23231 0.23599 0.98266 0.0
C1304 C 0.22221 0.23952 0.9786 0.0
C1305 C 0.21834 0.23553 0.96863 0.0
C1306 C 0.24894 0.22413 0.98095 0.0
C1307 C 0.21555 0.24757 0.98473 0.0
C1308 C 0.21889 0.23421 0.06574 0.0
C1309 C 0.21183 0.22614 0.05927 0.0
C1310 C 0.22197 0.22565 0.04203 0.0
C1311 C 0.22972 0.21993 0.03626 0.0
C1312 C 0.23443 0.22421 0.02672 0.0
C1313 C 0.23115 0.23443 0.02278 0.0
C1314 C 0.22308 0.24015 0.0284 0.0
C1315 C 0.21863 0.23576 0.038 0.0
C1316 C 0.24302 0.21788 0.02095 0.0
C1317 C 0.2192 0.25096 0.02429 0.0
C1318 C 0.27022 0.2709 0.01489 0.0
C1319 C 0.27447 0.2753 0.00527 0.0
C1320 C 0.27053 0.27199 0.99514 0.0
C1321 C 0.26198 0.26417 0.99454 0.0
C1322 C 0.25776 0.26072 0.98451 0.0
C1323 C 0.24936 0.253 0.98402 0.0
C1324 C 0.24499 0.24828 0.99354 0.0
C1325 C 0.23662 0.24023 0.99312 0.0
C1326 C 0.23235 0.23587 0.00276 0.0
C1327 C 0.23626 0.23923 0.01288 0.0
C1328 C 0.24478 0.24709 0.01345 0.0
C1329 C 0.2491 0.25045 0.02348 0.0
C1330 C 0.25742 0.25825 0.02398 0.0
C1331 C 0.26176 0.26297 0.01446 0.0
C1332 C 0.2576 0.25963 0.00425 0.0
C1333 C 0.24911 0.25167 0.00375 0.0
C1334 C 0.23318 0.22898 0.93855 0.0
C1335 C 0.22599 0.22042 0.94429 0.0
O1336 O 0.2877 0.28539 0.05499 0.0
O1337 O 0.21803 0.22116 0.05141 0.0
O1338 O 0.22033 0.22512 0.95272 0.0
O1339 O 0.29232 0.29169 0.95932 0.0
H1340 H 0.30344 0.28027 0.05523 0.0
H1341 H 0.29122 0.26459 0.06077 0.0
H1342 H 0.28649 0.27212 0.07222 0.0
H1343 H 0.30052 0.26809 0.07149 0.0
H1344 H 0.27092 0.29306 0.04548 0.0
H1345 H 0.29597 0.26956 0.04254 0.0
H1346 H 0.26171 0.29181 0.01841 0.0
H1347 H 0.25762 0.2955 0.03195 0.0
H1348 H 0.2533 0.28269 0.02624 0.0
H1349 H 0.29659 0.25721 0.02832 0.0
H1350 H 0.29291 0.26371 0.01572 0.0
H1351 H 0.2837 0.25408 0.02191 0.0
H1352 H 0.30516 0.28208 0.95559 0.0
H1353 H 0.31921 0.29539 0.96272 0.0
H1354 H 0.30944 0.29178 0.97301 0.0
H1355 H 0.30855 0.30467 0.96611 0.0
H1356 H 0.29882 0.27383 0.97016 0.0
H1357 H 0.27391 0.29749 0.96701 0.0
H1358 H 0.29345 0.26463 0.99519 0.0
H1359 H 0.29749 0.25921 0.9823 0.0
H1360 H 0.28425 0.2559 0.98788 0.0
H1361 H 0.25898 0.298 0.97896 0.0
H1362 H 0.26189 0.293 0.99245 0.0
H1363 H 0.25437 0.28464 0.98316 0.0
H1364 H 0.23117 0.21387 0.94751 0.0
H1365 H 0.23927 0.21922 0.96209 0.0
H1366 H 0.21061 0.23819 0.96546 0.0
H1367 H 0.25531 0.23061 0.98048 0.0
H1368 H 0.25174 0.21708 0.97623 0.0
H1369 H 0.2481 0.22165 0.9896 0.0
H1370 H 0.20841 0.25029 0.98 0.0
H1371 H 0.22066 0.25478 0.98686 0.0
H1372 H 0.21261 0.24383 0.99244 0.0
H1373 H 0.20503 0.23048 0.05534 0.0
H1374 H 0.21396 0.23812 0.07211 0.0
H1375 H 0.22224 0.24068 0.06033 0.0
H1376 H 0.22578 0.23001 0.06967 0.0
H1377 H 0.23223 0.21213 0.03937 0.0
H1378 H 0.21258 0.24031 0.04227 0.0
H1379 H 0.2505 0.22297 0.01995 0.0
H1380 H 0.24009 0.21569 0.01271 0.0
H1381 H 0.24511 0.21033 0.02538 0.0
H1382 H 0.21212 0.25387 0.02894 0.0
H1383 H 0.21692 0.25038 0.01559 0.0
H1384 H 0.2259 0.25709 0.02495 0.0
H1385 H 0.28104 0.28129 0.00566 0.0
H1386 H 0.26086 0.26398 0.97692 0.0
H1387 H 0.24637 0.25074 0.97607 0.0
H1388 H 0.2259 0.22975 0.00238 0.0
H1389 H 0.24611 0.24708 0.03108 0.0
H1390 H 0.26042 0.26051 0.03193 0.0
H1391 H 0.22816 0.23569 0.93537 0.0
H1392 H 0.23762 0.22529 0.93171 0.0
H1393 H 0.23926 0.23241 0.9443 0.0
C1394 C 0.69132 0.2935 0.96671 0.0
C1395 C 0.70229 0.29596 0.96128 0.0
C1396 C 0.71477 0.2825 0.96777 0.0
C1397 C 0.7236 0.28875 0.97156 0.0
C1398 C 0.73021 0.28491 0.97998 0.0
C1399 C 0.72785 0.27465 0.98473 0.0
C1400 C 0.71917 0.26817 0.98062 0.0
C1401 C 0.71283 0.27213 0.97205 0.0
C1402 C 0.73955 0.29193 0.98397 0.0
C1403 C 0.71638 0.25722 0.98553 0.0
C1404 C 0.72227 0.27649 0.06878 0.0
C1405 C 0.71425 0.28315 0.06209 0.0
C1406 C 0.72331 0.28436 0.04427 0.0
C1407 C 0.7208 0.2737 0.04096 0.0
C1408 C 0.72472 0.26973 0.0311 0.0
C1409 C 0.73152 0.27643 0.02452 0.0
C1410 C 0.73408 0.28714 0.02783 0.0
C1411 C 0.72985 0.29098 0.03762 0.0
C1412 C 0.72159 0.25835 0.02772 0.0
C1413 C 0.7413 0.29452 0.02103 0.0
C1414 C 0.78575 0.2326 0.04242 0.0
C1415 C 0.77597 0.22764 0.03904 0.0
C1416 C 0.77104 0.2307 0.02924 0.0
C1417 C 0.77599 0.2389 0.02272 0.0
C1418 C 0.78608 0.2436 0.02591 0.0
C1419 C 0.79089 0.24028 0.03569 0.0
C1420 C 0.76047 0.22525 0.0259 0.0
C1421 C 0.79164 0.25227 0.0191 0.0
C1422 C 0.77031 0.2279 0.93831 0.0
C1423 C 0.78154 0.22736 0.94363 0.0
C1424 C 0.77806 0.22686 0.96312 0.0
C1425 C 0.77073 0.22144 0.97003 0.0
C1426 C 0.7675 0.22608 0.97984 0.0
C1427 C 0.77193 0.23628 0.98291 0.0
C1428 C 0.7797 0.2416 0.97616 0.0
C1429 C 0.78269 0.23683 0.96633 0.0
C1430 C 0.75928 0.22014 0.98689 0.0
C1431 C 0.78482 0.25232 0.97937 0.0
C1432 C 0.73392 0.27111 0.99452 0.0
C1433 C 0.7306 0.27513 0.00454 0.0
C1434 C 0.73586 0.27224 0.01415 0.0
C1435 C 0.74476 0.26519 0.01382 0.0
C1436 C 0.75041 0.26232 0.02331 0.0
C1437 C 0.7589 0.25507 0.02296 0.0
C1438 C 0.76208 0.2504 0.01311 0.0
C1439 C 0.77047 0.24275 0.01273 0.0
C1440 C 0.77352 0.23838 0.00279 0.0
C1441 C 0.76839 0.24141 0.99314 0.0
C1442 C 0.75992 0.24899 0.99335 0.0
C1443 C 0.75454 0.25218 0.9838 0.0
C1444 C 0.74612 0.25954 0.98413 0.0
C1445 C 0.74266 0.26387 0.99404 0.0
C1446 C 0.74806 0.26086 0.00375 0.0
C1447 C 0.75672 0.25344 0.0034 0.0
C1448 C 0.78581 0.24034 0.06751 0.0
C1449 C 0.78516 0.22931 0.06191 0.0
O1450 O 0.70791 0.28641 0.96013 0.0
O1451 O 0.78066 0.22211 0.95359 0.0
O1452 O 0.7905 0.23 0.05201 0.0
O1453 O 0.71967 0.28858 0.05375 0.0
H1454 H 0.70688 0.3017 0.9666 0.0
H1455 H 0.69263 0.28995 0.97491 0.0
H1456 H 0.68643 0.28763 0.96183 0.0
H1457 H 0.68668 0.30107 0.96764 0.0
H1458 H 0.72525 0.29665 0.96798 0.0
H1459 H 0.70604 0.26734 0.96895 0.0
H1460 H 0.73764 0.29494 0.99221 0.0
H1461 H 0.74116 0.29902 0.97856 0.0
H1462 H 0.74705 0.28711 0.98461 0.0
H1463 H 0.70913 0.25336 0.98166 0.0
H1464 H 0.71478 0.25807 0.99436 0.0
H1465 H 0.72337 0.25176 0.98464 0.0
H1466 H 0.70784 0.27768 0.05868 0.0
H1467 H 0.71797 0.27216 0.07551 0.0
H1468 H 0.72875 0.28184 0.07224 0.0
H1469 H 0.72616 0.27034 0.06361 0.0
H1470 H 0.71577 0.2684 0.04596 0.0
H1471 H 0.73174 0.29919 0.0402 0.0
H1472 H 0.71869 0.25831 0.01918 0.0
H1473 H 0.71514 0.2547 0.03298 0.0
H1474 H 0.72883 0.25314 0.02818 0.0
H1475 H 0.74347 0.30218 0.02528 0.0
H1476 H 0.73704 0.29657 0.01336 0.0
H1477 H 0.74889 0.29034 0.01885 0.0
H1478 H 0.7764 0.22722 0.06076 0.0
H1479 H 0.77223 0.22131 0.04399 0.0
H1480 H 0.79855 0.2439 0.03829 0.0
H1481 H 0.75385 0.23121 0.02614 0.0
H1482 H 0.75822 0.21831 0.0313 0.0
H1483 H 0.76106 0.22229 0.01743 0.0
H1484 H 0.79927 0.25538 0.02289 0.0
H1485 H 0.78608 0.25915 0.01784 0.0
H1486 H 0.79358 0.24897 0.01099 0.0
H1487 H 0.78465 0.23582 0.94463 0.0
H1488 H 0.77091 0.23198 0.93026 0.0
H1489 H 0.76479 0.23264 0.9435 0.0
H1490 H 0.76673 0.21964 0.93726 0.0
H1491 H 0.76736 0.21366 0.96756 0.0
H1492 H 0.78878 0.24082 0.96129 0.0
H1493 H 0.75224 0.2254 0.98842 0.0
H1494 H 0.76299 0.21822 0.99488 0.0
H1495 H 0.75629 0.21247 0.98315 0.0
H1496 H 0.79117 0.25514 0.97353 0.0
H1497 H 0.78853 0.25163 0.98756 0.0
H1498 H 0.77847 0.25856 0.9798 0.0
H1499 H 0.72376 0.28052 0.00487 0.0
H1500 H 0.74829 0.26561 0.03113 0.0
H1501 H 0.76289 0.25312 0.03054 0.0
H1502 H 0.77993 0.23247 0.00257 0.0
H1503 H 0.75675 0.249 0.97596 0.0
H1504 H 0.74228 0.26171 0.97653 0.0
H1505 H 0.78162 0.23992 0.0755 0.0
H1506 H 0.78176 0.24652 0.06241 0.0
H1507 H 0.79441 0.24295 0.06877 0.0
C1508 C 0.79814 0.77105 0.06706 0.0
C1509 C 0.80148 0.78151 0.061 0.0
C1510 C 0.78881 0.78149 0.04546 0.0
C1511 C 0.77954 0.78628 0.04116 0.0
C1512 C 0.77479 0.78256 0.03148 0.0
C1513 C 0.77941 0.77374 0.02599 0.0
C1514 C 0.78887 0.76892 0.0302 0.0
C1515 C 0.7935 0.77286 0.03985 0.0
C1516 C 0.76479 0.78798 0.02714 0.0
C1517 C 0.79402 0.75952 0.02452 0.0
C1518 C 0.78931 0.7707 0.94277 0.0
C1519 C 0.79666 0.77931 0.94814 0.0
C1520 C 0.7874 0.78114 0.96575 0.0
C1521 C 0.79097 0.77139 0.97039 0.0
C1522 C 0.78688 0.76768 0.98041 0.0
C1523 C 0.77895 0.77375 0.98585 0.0
C1524 C 0.77551 0.78367 0.98133 0.0
C1525 C 0.77985 0.78727 0.97137 0.0
C1526 C 0.79092 0.75718 0.98513 0.0
C1527 C 0.7671 0.79037 0.98694 0.0
C1528 C 0.72835 0.72342 0.96695 0.0
C1529 C 0.73746 0.71917 0.9723 0.0
C1530 C 0.7413 0.72369 0.98203 0.0
C1531 C 0.73596 0.73264 0.98654 0.0
C1532 C 0.7267 0.73684 0.9813 0.0
C1533 C 0.72302 0.73215 0.97158 0.0
C1534 C 0.75115 0.71897 0.98747 0.0
C1535 C 0.72081 0.74635 0.98591 0.0
C1536 C 0.72267 0.73493 0.06974 0.0
C1537 C 0.71589 0.72658 0.06336 0.0
C1538 C 0.72627 0.72565 0.04628 0.0
C1539 C 0.73398 0.7197 0.04069 0.0
C1540 C 0.73861 0.72359 0.03096 0.0
C1541 C 0.73529 0.73365 0.02664 0.0
C1542 C 0.7273 0.73962 0.03211 0.0
C1543 C 0.72293 0.73562 0.04191 0.0
C1544 C 0.7471 0.717 0.02535 0.0
C1545 C 0.72341 0.75028 0.02762 0.0
C1546 C 0.77432 0.7695 0.01589 0.0
C1547 C 0.77833 0.77336 0.00594 0.0
C1548 C 0.77406 0.76956 0.99612 0.0
C1549 C 0.76548 0.76175 0.99618 0.0
C1550 C 0.76095 0.7578 0.98645 0.0
C1551 C 0.75267 0.74995 0.98658 0.0
C1552 C 0.74853 0.7458 0.99643 0.0
C1553 C 0.74021 0.7377 0.99664 0.0
C1554 C 0.73607 0.73397 0.00657 0.0
C1555 C 0.74016 0.73793 0.0164 0.0
C1556 C 0.7487 0.7458 0.01637 0.0
C1557 C 0.75326 0.74971 0.02609 0.0
C1558 C 0.76165 0.75747 0.02597 0.0
C1559 C 0.76579 0.76163 0.01611 0.0
C1560 C 0.76136 0.75775 0.00621 0.0
C1561 C 0.75283 0.7498 0.00634 0.0
C1562 C 0.739 0.7161 0.94487 0.0
C1563 C 0.72902 0.71153 0.95097 0.0
O1564 O 0.79281 0.78539 0.05502 0.0
O1565 O 0.72235 0.72147 0.0558 0.0
O1566 O 0.7245 0.71949 0.95735 0.0
O1567 O 0.7909 0.78491 0.95591 0.0
H1568 H 0.80839 0.77985 0.05548 0.0
H1569 H 0.79577 0.76458 0.06126 0.0
H1570 H 0.79112 0.77248 0.07249 0.0
H1571 H 0.80504 0.76808 0.072 0.0
H1572 H 0.77599 0.79296 0.04548 0.0
H1573 H 0.80073 0.76908 0.04295 0.0
H1574 H 0.76619 0.79068 0.01863 0.0
H1575 H 0.7625 0.79508 0.03207 0.0
H1576 H 0.75786 0.78207 0.02709 0.0
H1577 H 0.80114 0.7564 0.02902 0.0
H1578 H 0.7967 0.7621 0.01628 0.0
H1579 H 0.78794 0.75282 0.02353 0.0
H1580 H 0.80373 0.77535 0.952 0.0
H1581 H 0.79387 0.76632 0.93644 0.0
H1582 H 0.78213 0.77452 0.93896 0.0
H1583 H 0.78638 0.76465 0.94886 0.0
H1584 H 0.79691 0.76657 0.96626 0.0
H1585 H 0.77718 0.79481 0.96779 0.0
H1586 H 0.79348 0.75836 0.99369 0.0
H1587 H 0.79787 0.75397 0.98048 0.0
H1588 H 0.78423 0.751 0.9851 0.0
H1589 H 0.76498 0.79771 0.98216 0.0
H1590 H 0.77021 0.79295 0.995 0.0
H1591 H 0.75959 0.7854 0.98833 0.0
H1592 H 0.7315 0.70461 0.95619 0.0
H1593 H 0.74169 0.71238 0.96894 0.0
H1594 H 0.71599 0.73537 0.96745 0.0
H1595 H 0.7578 0.72518 0.98775 0.0
H1596 H 0.75415 0.71174 0.98317 0.0
H1597 H 0.74916 0.71664 0.99597 0.0
H1598 H 0.71375 0.74869 0.98085 0.0
H1599 H 0.72649 0.75343 0.98657 0.0
H1600 H 0.71789 0.74434 0.99423 0.0
H1601 H 0.70911 0.73069 0.05915 0.0
H1602 H 0.71754 0.73896 0.07586 0.0
H1603 H 0.72607 0.74128 0.06422 0.0
H1604 H 0.72953 0.73095 0.07396 0.0
H1605 H 0.73649 0.71201 0.04407 0.0
H1606 H 0.71694 0.74035 0.04605 0.0
H1607 H 0.75449 0.72209 0.02377 0.0
H1608 H 0.74391 0.71423 0.01738 0.0
H1609 H 0.74942 0.70979 0.0302 0.0
H1610 H 0.71643 0.75343 0.03227 0.0
H1611 H 0.72095 0.74933 0.01899 0.0
H1612 H 0.73015 0.75639 0.02788 0.0
H1613 H 0.78494 0.77932 0.00584 0.0
H1614 H 0.76378 0.76071 0.97862 0.0
H1615 H 0.74955 0.74718 0.97884 0.0
H1616 H 0.72964 0.72782 0.00666 0.0
H1617 H 0.75042 0.7468 0.03392 0.0
H1618 H 0.76484 0.76015 0.0337 0.0
H1619 H 0.74249 0.70976 0.93962 0.0
H1620 H 0.7454 0.71881 0.95065 0.0
H1621 H 0.73675 0.72315 0.93973 0.0
C1622 C 0.19825 0.7955 0.96257 0.0
C1623 C 0.20935 0.79713 0.95711 0.0
C1624 C 0.22098 0.78328 0.96448 0.0
C1625 C 0.22977 0.78938 0.96861 0.0
C1626 C 0.23603 0.7854 0.97722 0.0
C1627 C 0.2334 0.77512 0.98181 0.0
C1628 C 0.22477 0.7688 0.97738 0.0
C1629 C 0.21876 0.77292 0.96864 0.0
C1630 C 0.24534 0.79224 0.98156 0.0
C1631 C 0.22171 0.75783 0.98208 0.0
C1632 C 0.22679 0.77498 0.0658 0.0
C1633 C 0.21894 0.78208 0.05937 0.0
C1634 C 0.2281 0.78364 0.04161 0.0
C1635 C 0.22541 0.77313 0.03798 0.0
C1636 C 0.22938 0.76934 0.02806 0.0
C1637 C 0.23636 0.7761 0.02172 0.0
C1638 C 0.23906 0.78667 0.02533 0.0
C1639 C 0.23481 0.79032 0.03519 0.0
C1640 C 0.22613 0.7581 0.02436 0.0
C1641 C 0.24648 0.79409 0.01879 0.0
C1642 C 0.29113 0.7332 0.03962 0.0
C1643 C 0.28152 0.72802 0.03609 0.0
C1644 C 0.27667 0.73098 0.02622 0.0
C1645 C 0.2815 0.73934 0.01982 0.0
C1646 C 0.29143 0.74427 0.02316 0.0
C1647 C 0.29619 0.74102 0.03299 0.0
C1648 C 0.26629 0.72528 0.02271 0.0
C1649 C 0.29686 0.75313 0.01648 0.0
C1650 C 0.28121 0.73379 0.93522 0.0
C1651 C 0.29176 0.73076 0.94098 0.0
C1652 C 0.28604 0.7295 0.96004 0.0
C1653 C 0.27901 0.72332 0.96661 0.0
C1654 C 0.27504 0.7274 0.97641 0.0
C1655 C 0.27844 0.73785 0.97984 0.0
C1656 C 0.28588 0.74401 0.97344 0.0
C1657 C 0.28955 0.73981 0.96357 0.0
C1658 C 0.26715 0.72059 0.98306 0.0
C1659 C 0.28998 0.75502 0.97705 0.0
C1660 C 0.23922 0.77134 0.99165 0.0
C1661 C 0.2357 0.77511 0.0017 0.0
C1662 C 0.24082 0.77206 0.01134 0.0
C1663 C 0.24978 0.76508 0.01101 0.0
C1664 C 0.25529 0.76206 0.02053 0.0
C1665 C 0.26391 0.75497 0.02016 0.0
C1666 C 0.26736 0.75061 0.01025 0.0
C1667 C 0.27596 0.74319 0.00983 0.0
C1668 C 0.27933 0.73917 0.99984 0.0
C1669 C 0.2743 0.74232 0.99016 0.0
C1670 C 0.26558 0.74962 0.99043 0.0
C1671 C 0.26026 0.75288 0.98087 0.0
C1672 C 0.2517 0.76008 0.98122 0.0
C1673 C 0.24804 0.76418 0.99116 0.0
C1674 C 0.25331 0.76102 0.00089 0.0
C1675 C 0.2621 0.75376 0.00052 0.0
C1676 C 0.29096 0.74138 0.06458 0.0
C1677 C 0.29021 0.73028 0.05913 0.0
O1678 O 0.21451 0.78726 0.95654 0.0
O1679 O 0.28938 0.72515 0.95052 0.0
O1680 O 0.29573 0.73074 0.04932 0.0
O1681 O 0.22449 0.78766 0.0512 0.0
H1682 H 0.21417 0.80295 0.96214 0.0
H1683 H 0.19935 0.79235 0.97096 0.0
H1684 H 0.19312 0.7896 0.95797 0.0
H1685 H 0.19399 0.80333 0.96303 0.0
H1686 H 0.23172 0.79726 0.9651 0.0
H1687 H 0.21203 0.76823 0.96527 0.0
H1688 H 0.24333 0.79502 0.98985 0.0
H1689 H 0.24709 0.79947 0.97638 0.0
H1690 H 0.2528 0.78735 0.98217 0.0
H1691 H 0.21459 0.75406 0.97791 0.0
H1692 H 0.21981 0.75861 0.99085 0.0
H1693 H 0.22869 0.75232 0.9814 0.0
H1694 H 0.21239 0.77689 0.05578 0.0
H1695 H 0.22239 0.77056 0.07241 0.0
H1696 H 0.23342 0.78004 0.06942 0.0
H1697 H 0.23049 0.7689 0.06043 0.0
H1698 H 0.22022 0.7678 0.04278 0.0
H1699 H 0.23683 0.79842 0.03802 0.0
H1700 H 0.22317 0.75835 0.01584 0.0
H1701 H 0.21968 0.75435 0.02955 0.0
H1702 H 0.23332 0.75283 0.02459 0.0
H1703 H 0.2486 0.80168 0.02319 0.0
H1704 H 0.24243 0.79627 0.01105 0.0
H1705 H 0.25409 0.78988 0.01674 0.0
H1706 H 0.28143 0.72833 0.05783 0.0
H1707 H 0.27786 0.72161 0.041 0.0
H1708 H 0.30371 0.74483 0.03573 0.0
H1709 H 0.25948 0.73103 0.02303 0.0
H1710 H 0.26423 0.71817 0.02796 0.0
H1711 H 0.26702 0.72252 0.01418 0.0
H1712 H 0.30434 0.75642 0.02041 0.0
H1713 H 0.29113 0.75985 0.01516 0.0
H1714 H 0.29903 0.74992 0.00839 0.0
H1715 H 0.29642 0.73834 0.94272 0.0
H1716 H 0.28303 0.73814 0.92748 0.0
H1717 H 0.27643 0.73923 0.94044 0.0
H1718 H 0.27618 0.72642 0.93346 0.0
H1719 H 0.27644 0.71532 0.9639 0.0
H1720 H 0.29533 0.74456 0.95885 0.0
H1721 H 0.25974 0.72527 0.98476 0.0
H1722 H 0.27092 0.71854 0.99099 0.0
H1723 H 0.26474 0.71295 0.97892 0.0
H1724 H 0.29642 0.75841 0.97161 0.0
H1725 H 0.29327 0.7545 0.98543 0.0
H1726 H 0.28313 0.76074 0.97718 0.0
H1727 H 0.22883 0.78048 0.00202 0.0
H1728 H 0.25298 0.76513 0.02839 0.0
H1729 H 0.26782 0.75292 0.02776 0.0
H1730 H 0.28595 0.73351 0.99958 0.0
H1731 H 0.26265 0.74991 0.973 0.0
H1732 H 0.24794 0.76234 0.97361 0.0
H1733 H 0.28662 0.74115 0.07249 0.0
H1734 H 0.28712 0.74756 0.05931 0.0
H1735 H 0.29958 0.74385 0.06596 0.0
C1736 C 0.06223 0.29679 0.26895 0.0
C1737 C 0.05627 0.29919 0.27957 0.0
C1738 C 0.04099 0.28591 0.27952 0.0
C1739 C 0.03696 0.27636 0.28433 0.0
C1740 C 0.02716 0.2715 0.28085 0.0
C1741 C 0.0213 0.27631 0.27225 0.0
C1742 C 0.02526 0.28602 0.26739 0.0
C1743 C 0.03504 0.29076 0.27109 0.0
C1744 C 0.0231 0.26121 0.28631 0.0
C1745 C 0.01918 0.29135 0.25821 0.0
C1746 C 0.93865 0.29911 0.29206 0.0
C1747 C 0.94869 0.29718 0.28584 0.0
C1748 C 0.96265 0.28356 0.28365 0.0
C1749 C 0.96703 0.28809 0.27405 0.0
C1750 C 0.97626 0.2837 0.26919 0.0
C1751 C 0.98122 0.27462 0.27402 0.0
C1752 C 0.97676 0.26996 0.28359 0.0
C1753 C 0.9675 0.27447 0.28825 0.0
C1754 C 0.98077 0.28882 0.25894 0.0
C1755 C 0.98185 0.26026 0.28893 0.0
C1756 C 0.96035 0.22249 0.22729 0.0
C1757 C 0.96452 0.23198 0.22235 0.0
C1758 C 0.9745 0.23655 0.22568 0.0
C1759 C 0.9804 0.23152 0.23413 0.0
C1760 C 0.97639 0.22175 0.23886 0.0
C1761 C 0.96645 0.21729 0.23527 0.0
C1762 C 0.97873 0.24677 0.22021 0.0
C1763 C 0.98252 0.21613 0.24781 0.0
C1764 C 0.06379 0.22124 0.23371 0.0
C1765 C 0.05719 0.21414 0.22582 0.0
C1766 C 0.03998 0.22401 0.22486 0.0
C1767 C 0.03413 0.23148 0.21873 0.0
C1768 C 0.02451 0.23591 0.2227 0.0
C1769 C 0.02056 0.23265 0.23302 0.0
C1770 C 0.02629 0.22491 0.23919 0.0
C1771 C 0.03597 0.22073 0.23509 0.0
C1772 C 0.01862 0.24415 0.21591 0.0
C1773 C 0.02219 0.22108 0.25014 0.0
C1774 C 0.01104 0.27114 0.26831 0.0
C1775 C 0.00124 0.27473 0.27257 0.0
C1776 C 0.99128 0.27023 0.26923 0.0
C1777 C 0.99104 0.26183 0.26147 0.0
C1778 C 0.98117 0.25708 0.25798 0.0
C1779 C 0.98103 0.2488 0.25036 0.0
C1780 C 0.99074 0.24499 0.24591 0.0
C1781 C 0.99068 0.23659 0.23814 0.0
C1782 C 0.00049 0.23285 0.23404 0.0
C1783 C 0.01045 0.23733 0.23741 0.0
C1784 C 0.01067 0.2459 0.24499 0.0
C1785 C 0.02053 0.25078 0.24836 0.0
C1786 C 0.02068 0.25907 0.25595 0.0
C1787 C 0.01097 0.2628 0.26049 0.0
C1788 C 0.00093 0.25811 0.2571 0.0
C1789 C 0.00078 0.24967 0.24932 0.0
C1790 C 0.93514 0.2241 0.23408 0.0
C1791 C 0.94105 0.22371 0.22317 0.0
O1792 O 0.05064 0.29002 0.28323 0.0
O1793 O 0.0494 0.22027 0.2206 0.0
O1794 O 0.9506 0.21805 0.22439 0.0
O1795 O 0.95387 0.28771 0.28872 0.0
H1796 H 0.0505 0.30589 0.27818 0.0
H1797 H 0.05637 0.29447 0.26248 0.0
H1798 H 0.06794 0.29002 0.27011 0.0
H1799 H 0.06687 0.3041 0.26613 0.0
H1800 H 0.04156 0.27268 0.29085 0.0
H1801 H 0.03796 0.29818 0.26729 0.0
H1802 H 0.01466 0.26226 0.28926 0.0
H1803 H 0.0283 0.25882 0.29327 0.0
H1804 H 0.0229 0.25451 0.28034 0.0
H1805 H 0.02357 0.29863 0.25495 0.0
H1806 H 0.01106 0.29381 0.26111 0.0
H1807 H 0.01786 0.28549 0.25152 0.0
H1808 H 0.95428 0.30434 0.2848 0.0
H1809 H 0.94023 0.30692 0.29657 0.0
H1810 H 0.93902 0.29383 0.29958 0.0
H1811 H 0.92548 0.29757 0.27959 0.0
H1812 H 0.96331 0.29506 0.27031 0.0
H1813 H 0.96405 0.27099 0.29562 0.0
H1814 H 0.98125 0.28262 0.25247 0.0
H1815 H 0.98914 0.29197 0.26045 0.0
H1816 H 0.97573 0.29559 0.25594 0.0
H1817 H 0.97737 0.25754 0.29633 0.0
H1818 H 0.99039 0.26228 0.29121 0.0
H1819 H 0.98205 0.25344 0.28312 0.0
H1820 H 0.94279 0.23222 0.22056 0.0
H1821 H 0.96006 0.23575 0.2158 0.0
H1822 H 0.96323 0.20986 0.23888 0.0
H1823 H 0.97894 0.25349 0.22616 0.0
H1824 H 0.97362 0.2492 0.2132 0.0
H1825 H 0.98718 0.24563 0.21734 0.0
H1826 H 0.97809 0.20883 0.25094 0.0
H1827 H 0.98399 0.22181 0.25463 0.0
H1828 H 0.99058 0.21365 0.24474 0.0
H1829 H 0.05317 0.20735 0.23035 0.0
H1830 H 0.07009 0.21637 0.23784 0.0
H1831 H 0.05843 0.22458 0.24005 0.0
H1832 H 0.06782 0.22811 0.22931 0.0
H1833 H 0.03724 0.23394 0.21084 0.0
H1834 H 0.04031 0.21493 0.23997 0.0
H1835 H 0.01738 0.25161 0.22069 0.0
H1836 H 0.01047 0.24085 0.21366 0.0
H1837 H 0.02311 0.24634 0.20836 0.0
H1838 H 0.02698 0.21428 0.25345 0.0
H1839 H 0.01353 0.2184 0.24953 0.0
H1840 H 0.02264 0.22788 0.25597 0.0
H1841 H 0.00137 0.28115 0.27855 0.0
H1842 H 0.97345 0.25969 0.26112 0.0
H1843 H 0.97319 0.24542 0.24802 0.0
H1844 H 0.00037 0.22632 0.22819 0.0
H1845 H 0.02826 0.24823 0.24516 0.0
H1846 H 0.02851 0.2625 0.25825 0.0
H1847 H 0.92743 0.22855 0.23323 0.0
H1848 H 0.94033 0.22838 0.24013 0.0
H1849 H 0.93329 0.21577 0.23715 0.0
C1850 C 0.70964 0.03772 0.30913 0.0
C1851 C 0.71725 0.04682 0.30497 0.0
C1852 C 0.72421 0.03875 0.28844 0.0
C1853 C 0.73458 0.03576 0.29201 0.0
C1854 C 0.7402 0.02748 0.28685 0.0
C1855 C 0.73537 0.02209 0.2779 0.0
C1856 C 0.72518 0.02545 0.27394 0.0
C1857 C 0.71977 0.03384 0.27921 0.0
C1858 C 0.7512 0.02431 0.2911 0.0
C1859 C 0.71988 0.01997 0.26434 0.0
C1860 C 0.74469 0.93601 0.29135 0.0
C1861 C 0.73443 0.94263 0.2898 0.0
C1862 C 0.73703 0.96231 0.29026 0.0
C1863 C 0.73116 0.96523 0.28095 0.0
C1864 C 0.73297 0.97535 0.27591 0.0
C1865 C 0.7408 0.98266 0.2803 0.0
C1866 C 0.74638 0.9799 0.28995 0.0
C1867 C 0.74432 0.96977 0.29487 0.0
C1868 C 0.72664 0.97819 0.26582 0.0
C1869 C 0.75465 0.98756 0.29494 0.0
C1870 C 0.78788 0.96646 0.22806 0.0
C1871 C 0.77732 0.96925 0.22489 0.0
C1872 C 0.77272 0.97894 0.22839 0.0
C1873 C 0.77871 0.98589 0.23537 0.0
C1874 C 0.78947 0.98327 0.23832 0.0
C1875 C 0.79396 0.97364 0.23449 0.0
C1876 C 0.76138 0.98167 0.22472 0.0
C1877 C 0.79611 0.99051 0.24571 0.0
C1878 C 0.77079 0.07052 0.22422 0.0
C1879 C 0.78192 0.06528 0.22359 0.0
C1880 C 0.77887 0.04569 0.22322 0.0
C1881 C 0.77121 0.03864 0.21854 0.0
C1882 C 0.76855 0.02862 0.22344 0.0
C1883 C 0.77388 0.02554 0.23313 0.0
C1884 C 0.78199 0.03245 0.23765 0.0
C1885 C 0.78441 0.04247 0.23264 0.0
C1886 C 0.75995 0.0214 0.21835 0.0
C1887 C 0.78807 0.02926 0.24778 0.0
C1888 C 0.74066 0.01247 0.27325 0.0
C1889 C 0.73834 0.0024 0.27809 0.0
C1890 C 0.74343 0.99303 0.27461 0.0
C1891 C 0.75104 0.99364 0.26602 0.0
C1892 C 0.75645 0.98439 0.26245 0.0
C1893 C 0.76386 0.98505 0.25396 0.0
C1894 C 0.76616 0.99497 0.24867 0.0
C1895 C 0.77355 0.99566 0.23988 0.0
C1896 C 0.77587 0.00571 0.235 0.0
C1897 C 0.77092 0.01514 0.2386 0.0
C1898 C 0.76333 0.01457 0.24722 0.0
C1899 C 0.75806 0.02385 0.25092 0.0
C1900 C 0.75063 0.0232 0.25944 0.0
C1901 C 0.74816 0.01323 0.26456 0.0
C1902 C 0.75336 0.00377 0.26094 0.0
C1903 C 0.76096 0.00444 0.25227 0.0
C1904 C 0.78312 0.9424 0.23437 0.0
C1905 C 0.78701 0.94716 0.22348 0.0
O1906 O 0.71826 0.04621 0.29377 0.0
O1907 O 0.7809 0.05541 0.21832 0.0
O1908 O 0.79247 0.95696 0.22514 0.0
O1909 O 0.73576 0.95245 0.2951 0.0
H1910 H 0.72527 0.04579 0.30894 0.0
H1911 H 0.71316 0.02971 0.30736 0.0
H1912 H 0.70155 0.03813 0.30513 0.0
H1913 H 0.70857 0.03833 0.31806 0.0
H1914 H 0.73835 0.03988 0.2988 0.0
H1915 H 0.71184 0.03632 0.2764 0.0
H1916 H 0.75071 0.01591 0.29437 0.0
H1917 H 0.75419 0.02977 0.29763 0.0
H1918 H 0.75722 0.02443 0.28438 0.0
H1919 H 0.71212 0.02379 0.26198 0.0
H1920 H 0.71822 0.0113 0.26631 0.0
H1921 H 0.72548 0.02027 0.25728 0.0
H1922 H 0.73342 0.94384 0.2809 0.0
H1923 H 0.74382 0.92808 0.28719 0.0
H1924 H 0.74631 0.93457 0.30012 0.0
H1925 H 0.75179 0.94048 0.2878 0.0
H1926 H 0.72511 0.95967 0.27765 0.0
H1927 H 0.74864 0.96751 0.30219 0.0
H1928 H 0.72278 0.98617 0.26682 0.0
H1929 H 0.72023 0.97201 0.26393 0.0
H1930 H 0.73227 0.97888 0.2588 0.0
H1931 H 0.75866 0.98399 0.30218 0.0
H1932 H 0.75062 0.99511 0.29739 0.0
H1933 H 0.76099 0.98981 0.28887 0.0
H1934 H 0.77983 0.94836 0.21818 0.0
H1935 H 0.7726 0.96402 0.21961 0.0
H1936 H 0.80215 0.9715 0.23679 0.0
H1937 H 0.75571 0.98085 0.23168 0.0
H1938 H 0.75842 0.97627 0.21813 0.0
H1939 H 0.76116 0.9902 0.2218 0.0
H1940 H 0.80414 0.98705 0.24771 0.0
H1941 H 0.79161 0.99186 0.25337 0.0
H1942 H 0.79747 0.99853 0.24175 0.0
H1943 H 0.78486 0.06416 0.23205 0.0
H1944 H 0.77147 0.07849 0.22835 0.0
H1945 H 0.7651 0.06522 0.22896 0.0
H1946 H 0.76734 0.07173 0.21597 0.0
H1947 H 0.76714 0.04112 0.21116 0.0
H1948 H 0.79073 0.04767 0.236 0.0
H1949 H 0.75341 0.01956 0.22434 0.0
H1950 H 0.76356 0.01358 0.21602 0.0
H1951 H 0.75627 0.02515 0.21102 0.0
H1952 H 0.79462 0.03521 0.24989 0.0
H1953 H 0.79172 0.02118 0.24669 0.0
H1954 H 0.78232 0.02858 0.2547 0.0
H1955 H 0.73261 0.00187 0.28477 0.0
H1956 H 0.755 0.97653 0.26618 0.0
H1957 H 0.76777 0.97765 0.25159 0.0
H1958 H 0.78156 0.0062 0.22829 0.0
H1959 H 0.7596 0.03174 0.24726 0.0
H1960 H 0.74683 0.0306 0.26196 0.0
H1961 H 0.79011 0.94127 0.23996 0.0
H1962 H 0.7789 0.93446 0.23312 0.0
H1963 H 0.7773 0.94794 0.23824 0.0
C1964 C 0.04177 0.70394 0.30859 0.0
C1965 C 0.04881 0.704 0.29834 0.0
C1966 C 0.04172 0.71928 0.28825 0.0
C1967 C 0.03669 0.71412 0.2794 0.0
C1968 C 0.02807 0.71899 0.27387 0.0
C1969 C 0.02439 0.7292 0.27729 0.0
C1970 C 0.02975 0.73461 0.28593 0.0
C1971 C 0.03847 0.72963 0.2912 0.0
C1972 C 0.02275 0.71311 0.2645 0.0
C1973 C 0.02604 0.7455 0.28981 0.0
C1974 C 0.93901 0.71399 0.29962 0.0
C1975 C 0.94912 0.7204 0.2976 0.0
C1976 C 0.96507 0.7206 0.28576 0.0
C1977 C 0.96925 0.73066 0.28934 0.0
C1978 C 0.97889 0.73511 0.28493 0.0
C1979 C 0.98433 0.72952 0.27663 0.0
C1980 C 0.98004 0.7195 0.27288 0.0
C1981 C 0.9705 0.71514 0.27756 0.0
C1982 C 0.98331 0.74576 0.28921 0.0
C1983 C 0.98558 0.71335 0.26399 0.0
C1984 C 0.96686 0.78156 0.22787 0.0
C1985 C 0.97236 0.7855 0.2371 0.0
C1986 C 0.98192 0.78067 0.2408 0.0
C1987 C 0.98609 0.77171 0.23518 0.0
C1988 C 0.98068 0.76781 0.22581 0.0
C1989 C 0.97114 0.77281 0.22227 0.0
C1990 C 0.98754 0.78508 0.25078 0.0
C1991 C 0.98493 0.75829 0.21961 0.0
C1992 C 0.07073 0.77228 0.2287 0.0
C1993 C 0.06453 0.77527 0.21836 0.0
C1994 C 0.04597 0.77741 0.22505 0.0
C1995 C 0.04067 0.78346 0.2329 0.0
C1996 C 0.03087 0.77973 0.23758 0.0
C1997 C 0.02614 0.7698 0.23408 0.0
C1998 C 0.03125 0.76383 0.22583 0.0
C1999 C 0.04114 0.76767 0.22143 0.0
C2000 C 0.02562 0.78635 0.2463 0.0
C2001 C 0.02623 0.75341 0.22163 0.0
C2002 C 0.01447 0.73383 0.27234 0.0
C2003 C 0.00441 0.73008 0.27626 0.0
C2004 C 0.99468 0.734 0.27207 0.0
C2005 C 0.99493 0.74198 0.26376 0.0
C2006 C 0.98531 0.74614 0.2594 0.0
C2007 C 0.98564 0.75414 0.25137 0.0
C2008 C 0.99562 0.75817 0.24729 0.0
C2009 C 0.99604 0.76637 0.23921 0.0
C2010 C 0.00607 0.76995 0.2351 0.0
C2011 C 0.0158 0.7657 0.23896 0.0
C2012 C 0.01556 0.75772 0.24727 0.0
C2013 C 0.02519 0.75347 0.25157 0.0
C2014 C 0.02487 0.74561 0.25974 0.0
C2015 C 0.0149 0.74174 0.26397 0.0
C2016 C 0.00509 0.74587 0.25972 0.0
C2017 C 0.00542 0.75391 0.2514 0.0
C2018 C 0.94504 0.78935 0.23865 0.0
C2019 C 0.95138 0.7939 0.22885 0.0
O2020 O 0.04964 0.71444 0.29411 0.0
O2021 O 0.05556 0.78134 0.22101 0.0
O2022 O 0.95743 0.78583 0.22412 0.0
O2023 O 0.95594 0.71586 0.29001 0.0
H2024 H 0.04487 0.69847 0.29236 0.0
H2025 H 0.03343 0.70657 0.30655 0.0
H2026 H 0.04525 0.70955 0.31475 0.0
H2027 H 0.04117 0.69564 0.31212 0.0
H2028 H 0.0395 0.70631 0.27679 0.0
H2029 H 0.04252 0.7336 0.29795 0.0
H2030 H 0.01445 0.71035 0.26692 0.0
H2031 H 0.0274 0.70594 0.26197 0.0
H2032 H 0.02192 0.71868 0.25744 0.0
H2033 H 0.0309 0.74852 0.29681 0.0
H2034 H 0.01736 0.74492 0.29224 0.0
H2035 H 0.02671 0.75152 0.28309 0.0
H2036 H 0.95332 0.72347 0.30502 0.0
H2037 H 0.93928 0.71162 0.30848 0.0
H2038 H 0.94052 0.70553 0.29661 0.0
H2039 H 0.92596 0.72452 0.29295 0.0
H2040 H 0.96511 0.73503 0.29563 0.0
H2041 H 0.96722 0.70742 0.27483 0.0
H2042 H 0.98321 0.75197 0.28265 0.0
H2043 H 0.99188 0.74486 0.29183 0.0
H2044 H 0.97851 0.74874 0.29618 0.0
H2045 H 0.98065 0.70624 0.26124 0.0
H2046 H 0.99353 0.71046 0.26698 0.0
H2047 H 0.98721 0.71878 0.25691 0.0
H2048 H 0.95689 0.80062 0.23154 0.0
H2049 H 0.96927 0.7923 0.24154 0.0
H2050 H 0.9669 0.76982 0.21514 0.0
H2051 H 0.98761 0.77874 0.25722 0.0
H2052 H 0.98351 0.79235 0.25402 0.0
H2053 H 0.99613 0.78725 0.24885 0.0
H2054 H 0.97973 0.75615 0.21253 0.0
H2055 H 0.98539 0.75112 0.22509 0.0
H2056 H 0.9933 0.76018 0.21669 0.0
H2057 H 0.06197 0.76765 0.21428 0.0
H2058 H 0.07801 0.76752 0.22667 0.0
H2059 H 0.06543 0.76726 0.23412 0.0
H2060 H 0.07335 0.7797 0.23314 0.0
H2061 H 0.04437 0.79105 0.23553 0.0
H2062 H 0.04487 0.76313 0.21501 0.0
H2063 H 0.02395 0.78121 0.25358 0.0
H2064 H 0.01771 0.78934 0.24331 0.0
H2065 H 0.03077 0.79342 0.24874 0.0
H2066 H 0.03072 0.75021 0.21456 0.0
H2067 H 0.01766 0.75472 0.2192 0.0
H2068 H 0.02617 0.74719 0.22818 0.0
H2069 H 0.00414 0.72401 0.28267 0.0
H2070 H 0.97739 0.74332 0.26219 0.0
H2071 H 0.97797 0.7571 0.24838 0.0
H2072 H 0.00633 0.77619 0.22884 0.0
H2073 H 0.0331 0.75619 0.24868 0.0
H2074 H 0.03253 0.74263 0.26273 0.0
H2075 H 0.94006 0.79578 0.24231 0.0
H2076 H 0.93959 0.78251 0.23617 0.0
H2077 H 0.95068 0.78635 0.24498 0.0
C2078 C 0.28899 0.96264 0.30933 0.0
C2079 C 0.28425 0.95389 0.30179 0.0
C2080 C 0.27949 0.9654 0.28615 0.0
C2081 C 0.27013 0.96991 0.29069 0.0
C2082 C 0.26505 0.9787 0.28565 0.0
C2083 C 0.26943 0.98312 0.27593 0.0
C2084 C 0.27865 0.97841 0.27118 0.0
C2085 C 0.28348 0.96953 0.27631 0.0
C2086 C 0.25513 0.98343 0.29085 0.0
C2087 C 0.28358 0.98296 0.26086 0.0
C2088 C 0.29699 0.04082 0.30432 0.0
C2089 C 0.29439 0.04951 0.29581 0.0
C2090 C 0.27874 0.0407 0.28711 0.0
C2091 C 0.28399 0.03589 0.27831 0.0
C2092 C 0.27917 0.02708 0.27285 0.0
C2093 C 0.26893 0.02295 0.27631 0.0
C2094 C 0.26343 0.02804 0.28491 0.0
C2095 C 0.26836 0.03697 0.29009 0.0
C2096 C 0.28515 0.02202 0.26354 0.0
C2097 C 0.25252 0.02381 0.28884 0.0
C2098 C 0.22127 0.04186 0.22345 0.0
C2099 C 0.23136 0.03799 0.21996 0.0
C2100 C 0.2355 0.02833 0.22421 0.0
C2101 C 0.22951 0.02247 0.2322 0.0
C2102 C 0.21933 0.02627 0.23564 0.0
C2103 C 0.21531 0.03588 0.23116 0.0
C2104 C 0.2463 0.02439 0.2202 0.0
C2105 C 0.21273 0.02022 0.24414 0.0
C2106 C 0.23151 0.93796 0.22536 0.0
C2107 C 0.22035 0.94302 0.22395 0.0
C2108 C 0.22408 0.96241 0.22246 0.0
C2109 C 0.23217 0.96878 0.21745 0.0
C2110 C 0.23556 0.97873 0.2219 0.0
C2111 C 0.23053 0.98247 0.23145 0.0
C2112 C 0.22195 0.9763 0.23625 0.0
C2113 C 0.21883 0.96631 0.23171 0.0
C2114 C 0.24466 0.98514 0.21651 0.0
C2115 C 0.21616 0.98023 0.24622 0.0
C2116 C 0.26481 0.99311 0.27118 0.0
C2117 C 0.2683 0.00302 0.2755 0.0
C2118 C 0.26443 0.01283 0.27148 0.0
C2119 C 0.25677 0.01281 0.26291 0.0
C2120 C 0.25269 0.02252 0.25867 0.0
C2121 C 0.24514 0.02241 0.25025 0.0
C2122 C 0.2415 0.01259 0.24564 0.0
C2123 C 0.23394 0.01239 0.23697 0.0
C2124 C 0.23051 0.00248 0.23258 0.0
C2125 C 0.23443 0.99268 0.23658 0.0
C2126 C 0.24199 0.99271 0.24525 0.0
C2127 C 0.24612 0.983 0.24947 0.0
C2128 C 0.25352 0.9831 0.25801 0.0
C2129 C 0.25719 0.99291 0.26258 0.0
C2130 C 0.25315 0.00281 0.25844 0.0
C2131 C 0.24553 0.0027 0.24978 0.0
C2132 C 0.23034 0.06568 0.22009 0.0
C2133 C 0.22208 0.05917 0.2133 0.0
O2134 O 0.28501 0.95725 0.29103 0.0
O2135 O 0.22143 0.95264 0.21811 0.0
O2136 O 0.21698 0.05126 0.21969 0.0
O2137 O 0.28347 0.04882 0.29297 0.0
H2138 H 0.27559 0.95223 0.3039 0.0
H2139 H 0.28431 0.9702 0.30865 0.0
H2140 H 0.2976 0.96453 0.30719 0.0
H2141 H 0.28859 0.95985 0.31792 0.0
H2142 H 0.26679 0.96672 0.2982 0.0
H2143 H 0.29064 0.96596 0.27282 0.0
H2144 H 0.25716 0.99169 0.29385 0.0
H2145 H 0.25206 0.97843 0.29777 0.0
H2146 H 0.24853 0.9842 0.28475 0.0
H2147 H 0.29089 0.9785 0.25831 0.0
H2148 H 0.28589 0.99162 0.26201 0.0
H2149 H 0.27749 0.98256 0.25422 0.0
H2150 H 0.29956 0.04825 0.28857 0.0
H2151 H 0.30567 0.04146 0.30677 0.0
H2152 H 0.29549 0.03262 0.30091 0.0
H2153 H 0.2918 0.04172 0.31162 0.0
H2154 H 0.29183 0.03896 0.27561 0.0
H2155 H 0.26431 0.04082 0.29681 0.0
H2156 H 0.28782 0.01381 0.26598 0.0
H2157 H 0.29242 0.0269 0.26103 0.0
H2158 H 0.27965 0.02107 0.25644 0.0
H2159 H 0.24936 0.0286 0.2957 0.0
H2160 H 0.2532 0.01523 0.29149 0.0
H2161 H 0.24655 0.02401 0.28209 0.0
H2162 H 0.22629 0.0553 0.20641 0.0
H2163 H 0.23608 0.04243 0.21395 0.0
H2164 H 0.20753 0.03888 0.23378 0.0
H2165 H 0.25229 0.0246 0.22695 0.0
H2166 H 0.24957 0.02941 0.21338 0.0
H2167 H 0.24546 0.01585 0.21748 0.0
H2168 H 0.2052 0.02451 0.24633 0.0
H2169 H 0.21769 0.01908 0.25158 0.0
H2170 H 0.21043 0.01204 0.24108 0.0
H2171 H 0.21703 0.94453 0.23218 0.0
H2172 H 0.23076 0.93019 0.22994 0.0
H2173 H 0.23696 0.94353 0.23 0.0
H2174 H 0.23529 0.93642 0.21734 0.0
H2175 H 0.23603 0.96577 0.2102 0.0
H2176 H 0.21222 0.96163 0.23533 0.0
H2177 H 0.25133 0.98666 0.22243 0.0
H2178 H 0.24165 0.99315 0.21384 0.0
H2179 H 0.24801 0.98092 0.20936 0.0
H2180 H 0.20904 0.97498 0.2484 0.0
H2181 H 0.21338 0.98864 0.24489 0.0
H2182 H 0.22189 0.98039 0.25319 0.0
H2183 H 0.2742 0.00311 0.28205 0.0
H2184 H 0.25527 0.03032 0.26186 0.0
H2185 H 0.24224 0.03013 0.24736 0.0
H2186 H 0.22473 0.00239 0.22591 0.0
H2187 H 0.24367 0.97519 0.24622 0.0
H2188 H 0.25639 0.97538 0.26097 0.0
H2189 H 0.23435 0.07209 0.21501 0.0
H2190 H 0.23675 0.06034 0.22329 0.0
H2191 H 0.22626 0.06955 0.22706 0.0
C2192 C 0.96676 0.81221 0.78638 0.0
C2193 C 0.95797 0.8045 0.78178 0.0
C2194 C 0.96934 0.78885 0.7777 0.0
C2195 C 0.97437 0.79322 0.76834 0.0
C2196 C 0.98326 0.78812 0.76358 0.0
C2197 C 0.98724 0.77849 0.76828 0.0
C2198 C 0.98201 0.7739 0.77749 0.0
C2199 C 0.97305 0.77909 0.78201 0.0
C2200 C 0.98855 0.79315 0.75365 0.0
C2201 C 0.98607 0.76366 0.78275 0.0
C2202 C 0.04696 0.81298 0.79041 0.0
C2203 C 0.05207 0.80189 0.79215 0.0
C2204 C 0.04491 0.7906 0.77771 0.0
C2205 C 0.03984 0.78204 0.78343 0.0
C2206 C 0.03104 0.77625 0.77888 0.0
C2207 C 0.02724 0.77913 0.76843 0.0
C2208 C 0.03263 0.7875 0.76248 0.0
C2209 C 0.04153 0.79303 0.76716 0.0
C2210 C 0.02564 0.7672 0.78535 0.0
C2211 C 0.02876 0.79083 0.75134 0.0
C2212 C 0.04672 0.72459 0.72377 0.0
C2213 C 0.04212 0.72159 0.73384 0.0
C2214 C 0.03237 0.72612 0.73736 0.0
C2215 C 0.02719 0.73392 0.73079 0.0
C2216 C 0.03174 0.73689 0.72063 0.0
C2217 C 0.04141 0.73211 0.71723 0.0
C2218 C 0.02761 0.72259 0.74815 0.0
C2219 C 0.02644 0.74518 0.71341 0.0
C2220 C 0.94222 0.72947 0.72793 0.0
C2221 C 0.948 0.72765 0.71711 0.0
C2222 C 0.96701 0.72571 0.7221 0.0
C2223 C 0.9725 0.72047 0.73049 0.0
C2224 C 0.98242 0.72464 0.73447 0.0
C2225 C 0.98704 0.73414 0.72973 0.0
C2226 C 0.98177 0.73918 0.72087 0.0
C2227 C 0.97178 0.73492 0.71716 0.0
C2228 C 0.98787 0.71901 0.74386 0.0
C2229 C 0.98666 0.7491 0.71537 0.0
C2230 C 0.99734 0.77368 0.76402 0.0
C2231 C 0.00724 0.77804 0.76765 0.0
C2232 C 0.01713 0.77398 0.76411 0.0
C2233 C 0.0172 0.76526 0.75673 0.0
C2234 C 0.02699 0.76089 0.75308 0.0
C2235 C 0.02697 0.75234 0.74577 0.0
C2236 C 0.01715 0.74776 0.74191 0.0
C2237 C 0.01703 0.73899 0.73457 0.0
C2238 C 0.00712 0.73475 0.73078 0.0
C2239 C 0.99725 0.73896 0.73418 0.0
C2240 C 0.99719 0.74762 0.74164 0.0
C2241 C 0.98739 0.75195 0.74537 0.0
C2242 C 0.98741 0.76051 0.75266 0.0
C2243 C 0.99722 0.76503 0.75656 0.0
C2244 C 0.0072 0.76079 0.75293 0.0
C2245 C 0.00718 0.75205 0.74548 0.0
C2246 C 0.06997 0.7214 0.73384 0.0
C2247 C 0.06359 0.71431 0.72577 0.0
O2248 O 0.96109 0.79381 0.78293 0.0
O2249 O 0.95722 0.72161 0.71886 0.0
O2250 O 0.05622 0.72052 0.72005 0.0
O2251 O 0.05298 0.7967 0.78225 0.0
H2252 H 0.95665 0.80638 0.77304 0.0
H2253 H 0.97448 0.81148 0.78183 0.0
H2254 H 0.96833 0.81029 0.79506 0.0
H2255 H 0.96415 0.82075 0.78567 0.0
H2256 H 0.9715 0.80065 0.76475 0.0
H2257 H 0.96909 0.77573 0.78917 0.0
H2258 H 0.99684 0.79617 0.75578 0.0
H2259 H 0.98386 0.80001 0.75033 0.0
H2260 H 0.98941 0.78696 0.74723 0.0
H2261 H 0.98119 0.7612 0.78996 0.0
H2262 H 0.99468 0.76487 0.78527 0.0
H2263 H 0.98581 0.75696 0.77679 0.0
H2264 H 0.04666 0.79712 0.79772 0.0
H2265 H 0.04626 0.81728 0.79827 0.0
H2266 H 0.03868 0.81192 0.78693 0.0
H2267 H 0.05195 0.81804 0.78472 0.0
H2268 H 0.04274 0.77991 0.79145 0.0
H2269 H 0.04562 0.79958 0.76278 0.0
H2270 H 0.01739 0.76968 0.78781 0.0
H2271 H 0.03032 0.76513 0.79277 0.0
H2272 H 0.0247 0.75984 0.78027 0.0
H2273 H 0.03369 0.79766 0.74788 0.0
H2274 H 0.02014 0.79328 0.75176 0.0
H2275 H 0.02916 0.78384 0.74575 0.0
H2276 H 0.05919 0.7077 0.73023 0.0
H2277 H 0.04603 0.71575 0.73902 0.0
H2278 H 0.04497 0.73436 0.70946 0.0
H2279 H 0.02793 0.72949 0.75387 0.0
H2280 H 0.03205 0.71573 0.75183 0.0
H2281 H 0.01894 0.72012 0.74713 0.0
H2282 H 0.03135 0.7471 0.70605 0.0
H2283 H 0.02519 0.75277 0.71799 0.0
H2284 H 0.01832 0.74208 0.71081 0.0
H2285 H 0.95019 0.73573 0.71362 0.0
H2286 H 0.93476 0.73422 0.72664 0.0
H2287 H 0.94768 0.73408 0.7335 0.0
H2288 H 0.93997 0.7216 0.73185 0.0
H2289 H 0.96883 0.71325 0.73412 0.0
H2290 H 0.96781 0.73871 0.71032 0.0
H2291 H 0.98921 0.72481 0.75061 0.0
H2292 H 0.99596 0.71615 0.74128 0.0
H2293 H 0.983 0.71195 0.74694 0.0
H2294 H 0.98207 0.75147 0.70799 0.0
H2295 H 0.99522 0.74761 0.71308 0.0
H2296 H 0.98672 0.75599 0.72111 0.0
H2297 H 0.00726 0.78471 0.77335 0.0
H2298 H 0.03479 0.76406 0.75582 0.0
H2299 H 0.03476 0.74935 0.7432 0.0
H2300 H 0.0071 0.72805 0.72511 0.0
H2301 H 0.97958 0.74877 0.74269 0.0
H2302 H 0.97963 0.76353 0.75522 0.0
H2303 H 0.07594 0.71646 0.73836 0.0
H2304 H 0.0644 0.72499 0.73983 0.0
H2305 H 0.07437 0.72809 0.7295 0.0
C2306 C 0.2026 0.04021 0.80107 0.0
C2307 C 0.21263 0.04778 0.80118 0.0
C2308 C 0.22286 0.04079 0.78599 0.0
C2309 C 0.2315 0.03578 0.79134 0.0
C2310 C 0.23696 0.02718 0.78651 0.0
C2311 C 0.23367 0.02351 0.77614 0.0
C2312 C 0.22525 0.02886 0.77053 0.0
C2313 C 0.22006 0.03756 0.77549 0.0
C2314 C 0.24607 0.02184 0.7926 0.0
C2315 C 0.22149 0.02514 0.75948 0.0
C2316 C 0.20131 0.94214 0.78729 0.0
C2317 C 0.20539 0.9522 0.78196 0.0
C2318 C 0.22063 0.96513 0.7822 0.0
C2319 C 0.21778 0.97022 0.77237 0.0
C2320 C 0.22352 0.97945 0.76862 0.0
C2321 C 0.23233 0.98365 0.77477 0.0
C2322 C 0.23539 0.97842 0.78452 0.0
C2323 C 0.22951 0.96919 0.7881 0.0
C2324 C 0.22005 0.98481 0.75815 0.0
C2325 C 0.2448 0.98268 0.79122 0.0
C2326 C 0.28383 0.9649 0.7266 0.0
C2327 C 0.27417 0.96941 0.72264 0.0
C2328 C 0.27032 0.97916 0.72683 0.0
C2329 C 0.27612 0.98444 0.73526 0.0
C2330 C 0.2859 0.98002 0.73916 0.0
C2331 C 0.28966 0.97035 0.73471 0.0
C2332 C 0.25998 0.98378 0.72229 0.0
C2333 C 0.29231 0.98545 0.74812 0.0
C2334 C 0.28043 0.06871 0.7328 0.0
C2335 C 0.29098 0.0634 0.72925 0.0
C2336 C 0.28504 0.04445 0.72748 0.0
C2337 C 0.27726 0.0385 0.72164 0.0
C2338 C 0.27297 0.02864 0.72567 0.0
C2339 C 0.2768 0.02451 0.73569 0.0
C2340 C 0.28503 0.03025 0.74141 0.0
C2341 C 0.28903 0.0402 0.73729 0.0
C2342 C 0.26424 0.0227 0.71931 0.0
C2343 C 0.28959 0.02588 0.75191 0.0
C2344 C 0.23842 0.01355 0.77158 0.0
C2345 C 0.23405 0.00359 0.7751 0.0
C2346 C 0.23797 0.99382 0.7712 0.0
C2347 C 0.24661 0.99391 0.76365 0.0
C2348 C 0.25087 0.98422 0.7597 0.0
C2349 C 0.25923 0.98439 0.75209 0.0
C2350 C 0.26357 0.99426 0.74806 0.0
C2351 C 0.27185 0.99451 0.74008 0.0
C2352 C 0.27602 0.00446 0.7363 0.0
C2353 C 0.27212 0.01425 0.74022 0.0
C2354 C 0.26381 0.01417 0.74816 0.0
C2355 C 0.25964 0.02386 0.75225 0.0
C2356 C 0.25143 0.02369 0.76002 0.0
C2357 C 0.24695 0.01382 0.76388 0.0
C2358 C 0.25105 0.00395 0.7599 0.0
C2359 C 0.25951 0.00413 0.75206 0.0
C2360 C 0.27362 0.9417 0.72293 0.0
C2361 C 0.28246 0.9478 0.71641 0.0
O2362 O 0.217 0.04863 0.79081 0.0
O2363 O 0.28858 0.05413 0.72333 0.0
O2364 O 0.28777 0.95536 0.72293 0.0
O2365 O 0.21498 0.95641 0.78626 0.0
H2366 H 0.21867 0.0443 0.80687 0.0
H2367 H 0.20494 0.03195 0.79857 0.0
H2368 H 0.19641 0.04324 0.79528 0.0
H2369 H 0.19895 0.03962 0.80931 0.0
H2370 H 0.23401 0.03856 0.79929 0.0
H2371 H 0.21346 0.04159 0.77138 0.0
H2372 H 0.24346 0.01352 0.79506 0.0
H2373 H 0.24848 0.0264 0.8 0.0
H2374 H 0.25329 0.02114 0.78726 0.0
H2375 H 0.21469 0.03002 0.7563 0.0
H2376 H 0.21879 0.0165 0.75992 0.0
H2377 H 0.22835 0.02572 0.75366 0.0
H2378 H 0.19912 0.95841 0.78029 0.0
H2379 H 0.19324 0.94434 0.79092 0.0
H2380 H 0.20558 0.94147 0.79539 0.0
H2381 H 0.20296 0.92959 0.77438 0.0
H2382 H 0.21104 0.9671 0.7676 0.0
H2383 H 0.23171 0.9652 0.79562 0.0
H2384 H 0.21782 0.99333 0.75973 0.0
H2385 H 0.21302 0.98055 0.75431 0.0
H2386 H 0.22694 0.98502 0.75233 0.0
H2387 H 0.24654 0.97736 0.7983 0.0
H2388 H 0.24294 0.9909 0.79421 0.0
H2389 H 0.25221 0.98343 0.78611 0.0
H2390 H 0.2787 0.95197 0.70936 0.0
H2391 H 0.26955 0.96541 0.71631 0.0
H2392 H 0.29712 0.96687 0.73768 0.0
H2393 H 0.25353 0.98336 0.72858 0.0
H2394 H 0.25703 0.97934 0.71502 0.0
H2395 H 0.26129 0.99245 0.72008 0.0
H2396 H 0.29947 0.98069 0.75063 0.0
H2397 H 0.28701 0.98659 0.7553 0.0
H2398 H 0.29518 0.9936 0.74536 0.0
H2399 H 0.29571 0.06136 0.73664 0.0
H2400 H 0.28227 0.07624 0.73742 0.0
H2401 H 0.2757 0.06309 0.73816 0.0
H2402 H 0.27536 0.07075 0.72563 0.0
H2403 H 0.27434 0.04176 0.714 0.0
H2404 H 0.29539 0.04446 0.74167 0.0
H2405 H 0.25703 0.02111 0.72455 0.0
H2406 H 0.2673 0.01474 0.71669 0.0
H2407 H 0.26166 0.02732 0.71201 0.0
H2408 H 0.29666 0.03079 0.75486 0.0
H2409 H 0.29216 0.01738 0.75082 0.0
H2410 H 0.28319 0.02584 0.75825 0.0
H2411 H 0.22738 0.00344 0.78086 0.0
H2412 H 0.24778 0.97639 0.76245 0.0
H2413 H 0.26218 0.97668 0.74935 0.0
H2414 H 0.28233 0.0046 0.73015 0.0
H2415 H 0.26267 0.03169 0.74948 0.0
H2416 H 0.24856 0.03139 0.7629 0.0
H2417 H 0.26943 0.93557 0.71775 0.0
H2418 H 0.26742 0.94738 0.72587 0.0
H2419 H 0.27722 0.93755 0.73007 0.0
C2420 C 0.96407 0.30702 0.71265 0.0
C2421 C 0.95711 0.29664 0.7116 0.0
C2422 C 0.9636 0.28553 0.72639 0.0
C2423 C 0.96771 0.27649 0.72108 0.0
C2424 C 0.97632 0.27067 0.72558 0.0
C2425 C 0.98094 0.27405 0.73556 0.0
C2426 C 0.97648 0.2829 0.74115 0.0
C2427 C 0.96772 0.28844 0.73655 0.0
C2428 C 0.98071 0.26113 0.71952 0.0
C2429 C 0.98124 0.2868 0.75176 0.0
C2430 C 0.04093 0.30619 0.71137 0.0
C2431 C 0.04972 0.29957 0.71706 0.0
C2432 C 0.03861 0.28377 0.72285 0.0
C2433 C 0.03373 0.28864 0.73186 0.0
C2434 C 0.02494 0.28358 0.73724 0.0
C2435 C 0.02083 0.2735 0.73347 0.0
C2436 C 0.02585 0.26844 0.72457 0.0
C2437 C 0.03478 0.2736 0.71947 0.0
C2438 C 0.01988 0.28913 0.74682 0.0
C2439 C 0.0216 0.25775 0.72027 0.0
C2440 C 0.04161 0.22441 0.78434 0.0
C2441 C 0.0376 0.23434 0.78799 0.0
C2442 C 0.02776 0.23834 0.784 0.0
C2443 C 0.02188 0.2324 0.77608 0.0
C2444 C 0.02583 0.22238 0.77244 0.0
C2445 C 0.03561 0.21849 0.77668 0.0
C2446 C 0.02367 0.24896 0.78823 0.0
C2447 C 0.01976 0.21583 0.764 0.0
C2448 C 0.93867 0.23535 0.79057 0.0
C2449 C 0.94283 0.22388 0.78886 0.0
C2450 C 0.96243 0.22602 0.78857 0.0
C2451 C 0.96936 0.2335 0.79366 0.0
C2452 C 0.97897 0.23718 0.78859 0.0
C2453 C 0.98182 0.23298 0.77833 0.0
C2454 C 0.97506 0.22499 0.7734 0.0
C2455 C 0.96536 0.22167 0.77854 0.0
C2456 C 0.98599 0.24565 0.79413 0.0
C2457 C 0.97806 0.22001 0.76269 0.0
C2458 C 0.99108 0.26903 0.73956 0.0
C2459 C 0.00087 0.27272 0.73499 0.0
C2460 C 0.01082 0.26867 0.73841 0.0
C2461 C 0.01109 0.2606 0.7466 0.0
C2462 C 0.02097 0.25637 0.75028 0.0
C2463 C 0.02115 0.24846 0.75838 0.0
C2464 C 0.01146 0.24456 0.76321 0.0
C2465 C 0.01158 0.23669 0.77162 0.0
C2466 C 0.0018 0.23298 0.77622 0.0
C2467 C 0.99183 0.23701 0.77277 0.0
C2468 C 0.99155 0.24494 0.76442 0.0
C2469 C 0.98167 0.24928 0.76081 0.0
C2470 C 0.98148 0.25707 0.75259 0.0
C2471 C 0.99116 0.26096 0.74777 0.0
C2472 C 0.00121 0.25673 0.7513 0.0
C2473 C 0.00141 0.24871 0.75962 0.0
C2474 C 0.06542 0.23379 0.78736 0.0
C2475 C 0.05905 0.22538 0.79419 0.0
O2476 O 0.95589 0.29173 0.72171 0.0
O2477 O 0.95302 0.22301 0.79356 0.0
O2478 O 0.05116 0.22025 0.78789 0.0
O2479 O 0.04683 0.28863 0.71709 0.0
H2480 H 0.96136 0.29113 0.70596 0.0
H2481 H 0.9723 0.30503 0.71568 0.0
H2482 H 0.9603 0.31271 0.71842 0.0
H2483 H 0.96499 0.31109 0.70461 0.0
H2484 H 0.96426 0.27405 0.71336 0.0
H2485 H 0.96439 0.29538 0.74061 0.0
H2486 H 0.98888 0.26329 0.71624 0.0
H2487 H 0.97536 0.25866 0.71266 0.0
H2488 H 0.98164 0.25411 0.72512 0.0
H2489 H 0.97701 0.29398 0.75494 0.0
H2490 H 0.98998 0.28895 0.75065 0.0
H2491 H 0.98071 0.2802 0.75791 0.0
H2492 H 0.05075 0.30243 0.72554 0.0
H2493 H 0.0433 0.31492 0.71119 0.0
H2494 H 0.03309 0.30536 0.71578 0.0
H2495 H 0.03969 0.30333 0.70291 0.0
H2496 H 0.03664 0.29643 0.73473 0.0
H2497 H 0.03862 0.26985 0.71257 0.0
H2498 H 0.01167 0.29193 0.74453 0.0
H2499 H 0.0248 0.29624 0.74957 0.0
H2500 H 0.01889 0.28334 0.75371 0.0
H2501 H 0.02622 0.25503 0.71308 0.0
H2502 H 0.01291 0.25844 0.718 0.0
H2503 H 0.02211 0.25144 0.72671 0.0
H2504 H 0.05515 0.22946 0.80115 0.0
H2505 H 0.04205 0.23905 0.79394 0.0
H2506 H 0.03872 0.21083 0.77393 0.0
H2507 H 0.02375 0.25508 0.78158 0.0
H2508 H 0.02869 0.25215 0.79504 0.0
H2509 H 0.01513 0.24794 0.79104 0.0
H2510 H 0.0242 0.20848 0.76161 0.0
H2511 H 0.01837 0.2209 0.75666 0.0
H2512 H 0.01167 0.2133 0.76723 0.0
H2513 H 0.94329 0.22241 0.77997 0.0
H2514 H 0.93051 0.23622 0.78682 0.0
H2515 H 0.94431 0.24136 0.7867 0.0
H2516 H 0.93813 0.23717 0.79937 0.0
H2517 H 0.96705 0.23667 0.80148 0.0
H2518 H 0.96012 0.21559 0.77481 0.0
H2519 H 0.98773 0.25253 0.78849 0.0
H2520 H 0.99388 0.24208 0.79642 0.0
H2521 H 0.98212 0.24882 0.80157 0.0
H2522 H 0.97266 0.213 0.7606 0.0
H2523 H 0.9866 0.21729 0.76291 0.0
H2524 H 0.97744 0.22619 0.75614 0.0
H2525 H 0.00075 0.27898 0.72875 0.0
H2526 H 0.02868 0.25913 0.74691 0.0
H2527 H 0.02899 0.24547 0.76084 0.0
H2528 H 0.00196 0.22697 0.78269 0.0
H2529 H 0.97397 0.24669 0.7643 0.0
H2530 H 0.97365 0.26006 0.7501 0.0
H2531 H 0.0718 0.23785 0.79236 0.0
H2532 H 0.05993 0.24011 0.78423 0.0
H2533 H 0.06933 0.22985 0.78032 0.0
C2534 C 0.79119 0.96139 0.80942 0.0
C2535 C 0.78652 0.95287 0.80159 0.0
C2536 C 0.78203 0.96471 0.7861 0.0
C2537 C 0.77267 0.96922 0.79064 0.0
C2538 C 0.76759 0.97802 0.78562 0.0
C2539 C 0.77196 0.98245 0.7759 0.0
C2540 C 0.7812 0.97777 0.77116 0.0
C2541 C 0.78605 0.96889 0.77629 0.0
C2542 C 0.75765 0.98272 0.79081 0.0
C2543 C 0.78609 0.98231 0.76082 0.0
C2544 C 0.78297 0.06605 0.77559 0.0
C2545 C 0.78951 0.05946 0.78382 0.0
C2546 C 0.77927 0.04206 0.78418 0.0
C2547 C 0.783 0.03822 0.77414 0.0
C2548 C 0.77899 0.0284 0.7699 0.0
C2549 C 0.77094 0.02238 0.77567 0.0
C2550 C 0.76718 0.0262 0.78577 0.0
C2551 C 0.77148 0.03596 0.78992 0.0
C2552 C 0.78338 0.02445 0.75922 0.0
C2553 C 0.75861 0.02 0.79216 0.0
C2554 C 0.72282 0.04026 0.72361 0.0
C2555 C 0.73297 0.03634 0.72036 0.0
C2556 C 0.73695 0.02664 0.72468 0.0
C2557 C 0.73075 0.02079 0.73252 0.0
C2558 C 0.72048 0.02462 0.7357 0.0
C2559 C 0.71663 0.03426 0.73113 0.0
C2560 C 0.74784 0.02268 0.72093 0.0
C2561 C 0.71366 0.01858 0.74403 0.0
C2562 C 0.73206 0.93618 0.72626 0.0
C2563 C 0.72108 0.94148 0.72435 0.0
C2564 C 0.72546 0.96082 0.72318 0.0
C2565 C 0.73351 0.96719 0.71812 0.0
C2566 C 0.73701 0.97709 0.72261 0.0
C2567 C 0.73211 0.98079 0.73225 0.0
C2568 C 0.72361 0.97459 0.73714 0.0
C2569 C 0.72038 0.96465 0.73256 0.0
C2570 C 0.74603 0.98354 0.71713 0.0
C2571 C 0.71797 0.97847 0.74722 0.0
C2572 C 0.76722 0.99235 0.77106 0.0
C2573 C 0.77076 0.00237 0.77512 0.0
C2574 C 0.76653 0.01205 0.77118 0.0
C2575 C 0.75847 0.01179 0.76298 0.0
C2576 C 0.75385 0.02137 0.75901 0.0
C2577 C 0.74614 0.02106 0.75075 0.0
C2578 C 0.74274 0.01116 0.74613 0.0
C2579 C 0.73513 0.01079 0.73751 0.0
C2580 C 0.7318 0.00079 0.73324 0.0
C2581 C 0.73593 0.99109 0.73726 0.0
C2582 C 0.74366 0.9913 0.74578 0.0
C2583 C 0.74808 0.98171 0.74996 0.0
C2584 C 0.75572 0.98201 0.7583 0.0
C2585 C 0.75933 0.99193 0.76271 0.0
C2586 C 0.75496 0.0017 0.75864 0.0
C2587 C 0.74709 0.00138 0.7502 0.0
C2588 C 0.73224 0.06398 0.72102 0.0
C2589 C 0.72415 0.05772 0.7138 0.0
O2590 O 0.78751 0.95649 0.79093 0.0
O2591 O 0.72263 0.95114 0.71868 0.0
O2592 O 0.71873 0.04974 0.71982 0.0
O2593 O 0.7829 0.05154 0.78862 0.0
H2594 H 0.7778 0.95124 0.8035 0.0
H2595 H 0.78661 0.96902 0.80882 0.0
H2596 H 0.79986 0.96323 0.80751 0.0
H2597 H 0.79057 0.95841 0.81794 0.0
H2598 H 0.76932 0.96601 0.79814 0.0
H2599 H 0.79321 0.96532 0.77279 0.0
H2600 H 0.75961 0.99104 0.79367 0.0
H2601 H 0.75468 0.97779 0.79782 0.0
H2602 H 0.75101 0.98333 0.78474 0.0
H2603 H 0.79336 0.97781 0.75822 0.0
H2604 H 0.78845 0.99096 0.76197 0.0
H2605 H 0.77995 0.98196 0.75421 0.0
H2606 H 0.79643 0.05561 0.77964 0.0
H2607 H 0.78823 0.07244 0.77177 0.0
H2608 H 0.77601 0.06994 0.77964 0.0
H2609 H 0.77975 0.06074 0.76905 0.0
H2610 H 0.78904 0.04278 0.76955 0.0
H2611 H 0.76866 0.03894 0.79765 0.0
H2612 H 0.78589 0.01589 0.76001 0.0
H2613 H 0.79044 0.02942 0.75633 0.0
H2614 H 0.77689 0.02474 0.75296 0.0
H2615 H 0.75579 0.02458 0.79932 0.0
H2616 H 0.76198 0.01222 0.79503 0.0
H2617 H 0.75151 0.01807 0.78689 0.0
H2618 H 0.72858 0.05395 0.70698 0.0
H2619 H 0.73787 0.04077 0.71449 0.0
H2620 H 0.7088 0.03729 0.73356 0.0
H2621 H 0.75374 0.02316 0.72774 0.0
H2622 H 0.75114 0.02752 0.714 0.0
H2623 H 0.74713 0.01405 0.71846 0.0
H2624 H 0.70609 0.02289 0.74601 0.0
H2625 H 0.71843 0.01745 0.7516 0.0
H2626 H 0.71144 0.01041 0.74092 0.0
H2627 H 0.71739 0.94296 0.73242 0.0
H2628 H 0.73093 0.92836 0.7307 0.0
H2629 H 0.73737 0.94158 0.73124 0.0
H2630 H 0.73621 0.93467 0.71842 0.0
H2631 H 0.73725 0.96424 0.71078 0.0
H2632 H 0.71377 0.96001 0.73622 0.0
H2633 H 0.75273 0.98513 0.72299 0.0
H2634 H 0.74293 0.99151 0.71443 0.0
H2635 H 0.74935 0.9793 0.70997 0.0
H2636 H 0.71099 0.9731 0.74959 0.0
H2637 H 0.71499 0.98681 0.74589 0.0
H2638 H 0.72384 0.97879 0.75406 0.0
H2639 H 0.77691 0.00263 0.78143 0.0
H2640 H 0.75617 0.02922 0.76223 0.0
H2641 H 0.74289 0.02869 0.748 0.0
H2642 H 0.72597 0.00057 0.72662 0.0
H2643 H 0.74569 0.97384 0.74681 0.0
H2644 H 0.75882 0.97437 0.76121 0.0
H2645 H 0.7365 0.07046 0.71624 0.0
H2646 H 0.73847 0.05849 0.72432 0.0
H2647 H 0.72795 0.06773 0.72794 0.0
C2648 C 0.31348 0.79667 0.54305 0.0
C2649 C 0.30276 0.79814 0.54912 0.0
C2650 C 0.29117 0.78351 0.54251 0.0
C2651 C 0.28257 0.78904 0.53767 0.0
C2652 C 0.2766 0.78437 0.52912 0.0
C2653 C 0.27935 0.77398 0.52532 0.0
C2654 C 0.28777 0.76822 0.53049 0.0
C2655 C 0.29348 0.77302 0.53915 0.0
C2656 C 0.26751 0.79063 0.524 0.0
C2657 C 0.29098 0.75717 0.52662 0.0
C2658 C 0.28793 0.77066 0.4419 0.0
C2659 C 0.29523 0.77924 0.44738 0.0
C2660 C 0.28606 0.78088 0.46507 0.0
C2661 C 0.28963 0.77107 0.46957 0.0
C2662 C 0.2857 0.76734 0.47965 0.0
C2663 C 0.27795 0.77346 0.48529 0.0
C2664 C 0.27448 0.78342 0.48087 0.0
C2665 C 0.27865 0.78703 0.47085 0.0
C2666 C 0.28975 0.75678 0.48424 0.0
C2667 C 0.26625 0.79017 0.48668 0.0
C2668 C 0.22697 0.72367 0.46757 0.0
C2669 C 0.23659 0.71982 0.47229 0.0
C2670 C 0.24057 0.72412 0.48207 0.0
C2671 C 0.2349 0.73251 0.48723 0.0
C2672 C 0.2251 0.73624 0.48264 0.0
C2673 C 0.22125 0.73172 0.4729 0.0
C2674 C 0.25094 0.71981 0.48684 0.0
C2675 C 0.21882 0.74513 0.48795 0.0
C2676 C 0.21857 0.73473 0.56961 0.0
C2677 C 0.2148 0.72479 0.5631 0.0
C2678 C 0.22685 0.72536 0.54711 0.0
C2679 C 0.23573 0.7205 0.5422 0.0
C2680 C 0.24005 0.72449 0.53238 0.0
C2681 C 0.23534 0.7336 0.52734 0.0
C2682 C 0.22631 0.73854 0.5322 0.0
C2683 C 0.22215 0.73437 0.54203 0.0
C2684 C 0.24966 0.71901 0.52738 0.0
C2685 C 0.2211 0.74825 0.52702 0.0
C2686 C 0.27398 0.76952 0.51546 0.0
C2687 C 0.27786 0.77315 0.50537 0.0
C2688 C 0.27332 0.76933 0.49569 0.0
C2689 C 0.26466 0.76161 0.49601 0.0
C2690 C 0.25987 0.75764 0.48642 0.0
C2691 C 0.25156 0.74983 0.4868 0.0
C2692 C 0.24768 0.74572 0.49677 0.0
C2693 C 0.23942 0.73758 0.49722 0.0
C2694 C 0.23559 0.73383 0.50727 0.0
C2695 C 0.23984 0.73796 0.51698 0.0
C2696 C 0.24822 0.74599 0.5167 0.0
C2697 C 0.25276 0.75024 0.5263 0.0
C2698 C 0.26113 0.75801 0.52592 0.0
C2699 C 0.26531 0.7618 0.51594 0.0
C2700 C 0.26071 0.75777 0.50617 0.0
C2701 C 0.25218 0.74984 0.50655 0.0
C2702 C 0.23726 0.7194 0.44467 0.0
C2703 C 0.22808 0.71321 0.45064 0.0
O2704 O 0.29744 0.78818 0.55034 0.0
O2705 O 0.22321 0.72111 0.55671 0.0
O2706 O 0.22298 0.71997 0.45792 0.0
O2707 O 0.28943 0.78471 0.45521 0.0
H2708 H 0.29772 0.80375 0.54423 0.0
H2709 H 0.31183 0.79339 0.53483 0.0
H2710 H 0.31875 0.79093 0.5475 0.0
H2711 H 0.31788 0.80458 0.54212 0.0
H2712 H 0.28054 0.79702 0.54055 0.0
H2713 H 0.30006 0.76878 0.54306 0.0
H2714 H 0.26998 0.7933 0.51572 0.0
H2715 H 0.26544 0.79791 0.52877 0.0
H2716 H 0.26012 0.78537 0.52318 0.0
H2717 H 0.29798 0.75394 0.53124 0.0
H2718 H 0.29315 0.75757 0.51788 0.0
H2719 H 0.28399 0.7514 0.52749 0.0
H2720 H 0.30232 0.77527 0.4512 0.0
H2721 H 0.29253 0.76638 0.43553 0.0
H2722 H 0.28074 0.77449 0.43813 0.0
H2723 H 0.28502 0.76453 0.44792 0.0
H2724 H 0.29544 0.76623 0.4653 0.0
H2725 H 0.27599 0.79461 0.46736 0.0
H2726 H 0.29254 0.75793 0.49274 0.0
H2727 H 0.29654 0.75351 0.4794 0.0
H2728 H 0.283 0.75068 0.48438 0.0
H2729 H 0.26391 0.79741 0.48187 0.0
H2730 H 0.26968 0.79292 0.49455 0.0
H2731 H 0.25883 0.7852 0.48846 0.0
H2732 H 0.23151 0.70619 0.45508 0.0
H2733 H 0.24112 0.71352 0.4684 0.0
H2734 H 0.21381 0.7346 0.46928 0.0
H2735 H 0.25742 0.7262 0.48643 0.0
H2736 H 0.25381 0.71256 0.48246 0.0
H2737 H 0.24972 0.71764 0.49552 0.0
H2738 H 0.21153 0.74738 0.48318 0.0
H2739 H 0.22414 0.75243 0.48895 0.0
H2740 H 0.21618 0.74245 0.49618 0.0
H2741 H 0.20781 0.72701 0.55787 0.0
H2742 H 0.21188 0.73756 0.57485 0.0
H2743 H 0.22101 0.74149 0.56409 0.0
H2744 H 0.22566 0.73275 0.5748 0.0
H2745 H 0.23932 0.71355 0.54615 0.0
H2746 H 0.21526 0.73827 0.54564 0.0
H2747 H 0.25656 0.7249 0.52659 0.0
H2748 H 0.24753 0.71619 0.5191 0.0
H2749 H 0.25236 0.71196 0.53228 0.0
H2750 H 0.21413 0.75121 0.53182 0.0
H2751 H 0.21818 0.74614 0.51875 0.0
H2752 H 0.22721 0.75494 0.52613 0.0
H2753 H 0.28455 0.77902 0.50505 0.0
H2754 H 0.26253 0.76047 0.47851 0.0
H2755 H 0.24824 0.74704 0.47915 0.0
H2756 H 0.22927 0.72757 0.50756 0.0
H2757 H 0.24992 0.74757 0.53421 0.0
H2758 H 0.26433 0.76098 0.53356 0.0
H2759 H 0.23403 0.72658 0.44034 0.0
H2760 H 0.24119 0.71404 0.4387 0.0
H2761 H 0.24358 0.72224 0.45048 0.0
C2762 C 0.81457 0.71892 0.46386 0.0
C2763 C 0.80409 0.71653 0.45752 0.0
C2764 C 0.79154 0.72945 0.46476 0.0
C2765 C 0.78311 0.7229 0.46899 0.0
C2766 C 0.77677 0.72646 0.47768 0.0
C2767 C 0.77903 0.73675 0.48228 0.0
C2768 C 0.78737 0.74349 0.4778 0.0
C2769 C 0.7934 0.7398 0.46895 0.0
C2770 C 0.7678 0.71916 0.48207 0.0
C2771 C 0.7901 0.75445 0.48256 0.0
C2772 C 0.78592 0.73431 0.56614 0.0
C2773 C 0.79341 0.72706 0.55959 0.0
C2774 C 0.78404 0.72621 0.54191 0.0
C2775 C 0.78705 0.73671 0.53834 0.0
C2776 C 0.78313 0.74085 0.52848 0.0
C2777 C 0.77589 0.73446 0.52214 0.0
C2778 C 0.77288 0.7239 0.52567 0.0
C2779 C 0.77706 0.71989 0.53548 0.0
C2780 C 0.78669 0.75209 0.52484 0.0
C2781 C 0.76518 0.71686 0.51912 0.0
C2782 C 0.72205 0.77856 0.54044 0.0
C2783 C 0.73162 0.78364 0.53659 0.0
C2784 C 0.73632 0.78045 0.52678 0.0
C2785 C 0.73135 0.77201 0.52071 0.0
C2786 C 0.72148 0.76716 0.52437 0.0
C2787 C 0.71689 0.7706 0.53416 0.0
C2788 C 0.74666 0.78605 0.52293 0.0
C2789 C 0.71592 0.7582 0.51805 0.0
C2790 C 0.72832 0.77539 0.43628 0.0
C2791 C 0.71932 0.7815 0.44209 0.0
C2792 C 0.72663 0.78244 0.46068 0.0
C2793 C 0.73314 0.78874 0.46758 0.0
C2794 C 0.73695 0.78458 0.47748 0.0
C2795 C 0.7339 0.77391 0.48068 0.0
C2796 C 0.72698 0.7676 0.47394 0.0
C2797 C 0.72355 0.77186 0.46394 0.0
C2798 C 0.74433 0.79154 0.48446 0.0
C2799 C 0.72324 0.75632 0.47725 0.0
C2800 C 0.77312 0.74015 0.49215 0.0
C2801 C 0.7766 0.73606 0.50215 0.0
C2802 C 0.7715 0.73887 0.51182 0.0
C2803 C 0.76262 0.74596 0.51158 0.0
C2804 C 0.75721 0.74885 0.52115 0.0
C2805 C 0.74866 0.75605 0.52087 0.0
C2806 C 0.74516 0.7606 0.511 0.0
C2807 C 0.73663 0.7681 0.51067 0.0
C2808 C 0.73316 0.77227 0.5007 0.0
C2809 C 0.73809 0.76926 0.49098 0.0
C2810 C 0.74681 0.76195 0.49117 0.0
C2811 C 0.75212 0.75891 0.48158 0.0
C2812 C 0.76063 0.75167 0.48186 0.0
C2813 C 0.76431 0.74733 0.49175 0.0
C2814 C 0.75908 0.75028 0.50152 0.0
C2815 C 0.75033 0.75759 0.50123 0.0
C2816 C 0.72372 0.77137 0.56548 0.0
C2817 C 0.72317 0.7824 0.55977 0.0
O2818 O 0.79806 0.72588 0.45674 0.0
O2819 O 0.72356 0.78689 0.45103 0.0
O2820 O 0.71753 0.78128 0.55007 0.0
O2821 O 0.78758 0.72186 0.55143 0.0
H2822 H 0.79939 0.71009 0.46195 0.0
H2823 H 0.81258 0.72161 0.4722 0.0
H2824 H 0.81946 0.72542 0.45978 0.0
H2825 H 0.81951 0.71151 0.46453 0.0
H2826 H 0.78149 0.715 0.46549 0.0
H2827 H 0.79989 0.74482 0.46552 0.0
H2828 H 0.77016 0.71608 0.4902 0.0
H2829 H 0.76613 0.7121 0.47672 0.0
H2830 H 0.76021 0.72376 0.48303 0.0
H2831 H 0.7973 0.75837 0.47861 0.0
H2832 H 0.79172 0.75363 0.49139 0.0
H2833 H 0.78307 0.75986 0.48157 0.0
H2834 H 0.80011 0.73207 0.55597 0.0
H2835 H 0.79056 0.73842 0.57273 0.0
H2836 H 0.77915 0.72943 0.56979 0.0
H2837 H 0.78241 0.74066 0.56085 0.0
H2838 H 0.79245 0.74176 0.54315 0.0
H2839 H 0.7748 0.7118 0.53826 0.0
H2840 H 0.78975 0.75189 0.51637 0.0
H2841 H 0.79316 0.7556 0.53013 0.0
H2842 H 0.77962 0.75753 0.52497 0.0
H2843 H 0.76295 0.70918 0.5234 0.0
H2844 H 0.76904 0.71486 0.51127 0.0
H2845 H 0.75765 0.72133 0.51728 0.0
H2846 H 0.73166 0.78528 0.55828 0.0
H2847 H 0.73536 0.79018 0.54117 0.0
H2848 H 0.7094 0.76687 0.53711 0.0
H2849 H 0.75339 0.78021 0.52307 0.0
H2850 H 0.74898 0.79308 0.52807 0.0
H2851 H 0.74569 0.78889 0.51441 0.0
H2852 H 0.70847 0.75502 0.52218 0.0
H2853 H 0.7216 0.75143 0.51689 0.0
H2854 H 0.71365 0.76126 0.50988 0.0
H2855 H 0.71284 0.77565 0.4447 0.0
H2856 H 0.72499 0.77117 0.42903 0.0
H2857 H 0.7318 0.7692 0.44178 0.0
H2858 H 0.73495 0.78109 0.43369 0.0
H2859 H 0.73543 0.79691 0.46506 0.0
H2860 H 0.71845 0.76683 0.45881 0.0
H2861 H 0.75179 0.78707 0.48658 0.0
H2862 H 0.74011 0.79344 0.49216 0.0
H2863 H 0.74672 0.79928 0.48037 0.0
H2864 H 0.71661 0.75314 0.47195 0.0
H2865 H 0.72034 0.75625 0.48578 0.0
H2866 H 0.73018 0.75075 0.47675 0.0
H2867 H 0.78344 0.73065 0.50241 0.0
H2868 H 0.75956 0.74562 0.52898 0.0
H2869 H 0.74485 0.75801 0.5285 0.0
H2870 H 0.72656 0.77796 0.5005 0.0
H2871 H 0.74974 0.7621 0.47374 0.0
H2872 H 0.76436 0.74958 0.47422 0.0
H2873 H 0.72813 0.77216 0.57333 0.0
H2874 H 0.72816 0.76561 0.56031 0.0
H2875 H 0.71543 0.76798 0.56704 0.0
C2876 C 0.79203 0.31266 0.54146 0.0
C2877 C 0.78678 0.30491 0.54983 0.0
C2878 C 0.78438 0.28835 0.53899 0.0
C2879 C 0.77554 0.29198 0.53277 0.0
C2880 C 0.77143 0.28586 0.52408 0.0
C2881 C 0.77626 0.27593 0.52145 0.0
C2882 C 0.78499 0.27211 0.52779 0.0
C2883 C 0.78888 0.27835 0.53653 0.0
C2884 C 0.76204 0.29014 0.51755 0.0
C2885 C 0.79034 0.26155 0.52519 0.0
C2886 C 0.8057 0.28832 0.43917 0.0
C2887 C 0.80294 0.28246 0.44935 0.0
C2888 C 0.78834 0.28075 0.46275 0.0
C2889 C 0.7927 0.27176 0.4682 0.0
C2890 C 0.78775 0.26753 0.47763 0.0
C2891 C 0.77826 0.27233 0.48169 0.0
C2892 C 0.77373 0.28122 0.4761 0.0
C2893 C 0.77883 0.28529 0.46668 0.0
C2894 C 0.79273 0.25798 0.48335 0.0
C2895 C 0.76357 0.28651 0.48016 0.0
C2896 C 0.7273 0.22149 0.46418 0.0
C2897 C 0.7368 0.2174 0.46893 0.0
C2898 C 0.74101 0.22182 0.47857 0.0
C2899 C 0.73572 0.23057 0.4835 0.0
C2900 C 0.72609 0.2346 0.47883 0.0
C2901 C 0.72197 0.22994 0.46927 0.0
C2902 C 0.75119 0.2172 0.48345 0.0
C2903 C 0.7202 0.2439 0.48389 0.0
C2904 C 0.71638 0.23579 0.56484 0.0
C2905 C 0.71276 0.22558 0.55867 0.0
C2906 C 0.72548 0.22544 0.54318 0.0
C2907 C 0.7346 0.22044 0.53893 0.0
C2908 C 0.73938 0.22405 0.52917 0.0
C2909 C 0.7349 0.23292 0.52352 0.0
C2910 C 0.72562 0.238 0.52772 0.0
C2911 C 0.72099 0.23422 0.53749 0.0
C2912 C 0.74926 0.21842 0.5249 0.0
C2913 C 0.72061 0.24746 0.52187 0.0
C2914 C 0.77253 0.2699 0.51169 0.0
C2915 C 0.7769 0.27308 0.50166 0.0
C2916 C 0.77331 0.26833 0.492 0.0
C2917 C 0.76511 0.26013 0.49229 0.0
C2918 C 0.76116 0.25532 0.48271 0.0
C2919 C 0.75301 0.24734 0.48307 0.0
C2920 C 0.74858 0.24376 0.49302 0.0
C2921 C 0.74031 0.23562 0.49347 0.0
C2922 C 0.73611 0.23224 0.50351 0.0
C2923 C 0.73986 0.23684 0.51319 0.0
C2924 C 0.74806 0.24506 0.51291 0.0
C2925 C 0.75191 0.24997 0.52247 0.0
C2926 C 0.75991 0.25812 0.5221 0.0
C2927 C 0.76443 0.26159 0.51216 0.0
C2928 C 0.7607 0.25671 0.50242 0.0
C2929 C 0.75246 0.24848 0.50279 0.0
C2930 C 0.73696 0.21653 0.44122 0.0
C2931 C 0.72777 0.21064 0.44744 0.0
O2932 O 0.7889 0.29423 0.54724 0.0
O2933 O 0.72138 0.22157 0.55276 0.0
O2934 O 0.72301 0.21763 0.45473 0.0
O2935 O 0.79306 0.2853 0.45379 0.0
H2936 H 0.77785 0.30612 0.5499 0.0
H2937 H 0.78853 0.31126 0.53328 0.0
H2938 H 0.80094 0.31143 0.54103 0.0
H2939 H 0.79054 0.32121 0.54369 0.0
H2940 H 0.77184 0.29963 0.53452 0.0
H2941 H 0.79565 0.27554 0.54137 0.0
H2942 H 0.76487 0.29227 0.50924 0.0
H2943 H 0.75849 0.29745 0.52124 0.0
H2944 H 0.75555 0.28379 0.51678 0.0
H2945 H 0.79707 0.25971 0.53089 0.0
H2946 H 0.79361 0.26188 0.5168 0.0
H2947 H 0.78421 0.25482 0.52555 0.0
H2948 H 0.80968 0.28185 0.45536 0.0
H2949 H 0.81333 0.29316 0.44111 0.0
H2950 H 0.80035 0.29565 0.43869 0.0
H2951 H 0.80508 0.27532 0.42658 0.0
H2952 H 0.79997 0.26805 0.46517 0.0
H2953 H 0.77548 0.29217 0.46241 0.0
H2954 H 0.78663 0.25126 0.48407 0.0
H2955 H 0.79516 0.26033 0.49171 0.0
H2956 H 0.79999 0.25498 0.47904 0.0
H2957 H 0.76083 0.29308 0.47467 0.0
H2958 H 0.76512 0.28996 0.48833 0.0
H2959 H 0.75691 0.28035 0.481 0.0
H2960 H 0.73108 0.20357 0.4519 0.0
H2961 H 0.741 0.21079 0.46519 0.0
H2962 H 0.71463 0.23301 0.46561 0.0
H2963 H 0.75785 0.2234 0.48315 0.0
H2964 H 0.75389 0.20987 0.47911 0.0
H2965 H 0.74978 0.21507 0.49212 0.0
H2966 H 0.71313 0.24647 0.47895 0.0
H2967 H 0.72587 0.25095 0.48489 0.0
H2968 H 0.71727 0.24148 0.49209 0.0
H2969 H 0.70598 0.22759 0.55308 0.0
H2970 H 0.70951 0.2389 0.56969 0.0
H2971 H 0.71906 0.24228 0.55911 0.0
H2972 H 0.72325 0.234 0.57038 0.0
H2973 H 0.73801 0.21367 0.54333 0.0
H2974 H 0.71392 0.23822 0.54059 0.0
H2975 H 0.75613 0.22434 0.5241 0.0
H2976 H 0.74751 0.21517 0.51669 0.0
H2977 H 0.75179 0.21166 0.53027 0.0
H2978 H 0.7134 0.25057 0.52619 0.0
H2979 H 0.71811 0.24498 0.51357 0.0
H2980 H 0.72673 0.25415 0.521 0.0
H2981 H 0.78309 0.27947 0.50136 0.0
H2982 H 0.76429 0.25773 0.47483 0.0
H2983 H 0.75025 0.24398 0.47543 0.0
H2984 H 0.72978 0.22599 0.50378 0.0
H2985 H 0.74876 0.2476 0.53036 0.0
H2986 H 0.76252 0.26165 0.52972 0.0
H2987 H 0.74069 0.21098 0.43529 0.0
H2988 H 0.74343 0.21935 0.44687 0.0
H2989 H 0.73379 0.22368 0.43679 0.0
C2990 C 0.19325 0.29589 0.46698 0.0
C2991 C 0.20401 0.29815 0.46109 0.0
C2992 C 0.21627 0.28432 0.46729 0.0
C2993 C 0.22507 0.2904 0.4714 0.0
C2994 C 0.23165 0.28619 0.47966 0.0
C2995 C 0.22931 0.27571 0.48391 0.0
C2996 C 0.22066 0.26942 0.47948 0.0
C2997 C 0.21434 0.27377 0.47108 0.0
C2998 C 0.24097 0.29302 0.484 0.0
C2999 C 0.21788 0.25824 0.48384 0.0
C3000 C 0.22596 0.27245 0.56804 0.0
C3001 C 0.21786 0.27997 0.56249 0.0
C3002 C 0.22598 0.28223 0.54431 0.0
C3003 C 0.22276 0.27201 0.54027 0.0
C3004 C 0.22621 0.26859 0.53002 0.0
C3005 C 0.2332 0.2754 0.52376 0.0
C3006 C 0.23638 0.28571 0.52774 0.0
C3007 C 0.23263 0.28902 0.53793 0.0
C3008 C 0.22243 0.25764 0.52592 0.0
C3009 C 0.24382 0.29318 0.52129 0.0
C3010 C 0.28391 0.22792 0.53954 0.0
C3011 C 0.27455 0.22338 0.53469 0.0
C3012 C 0.27055 0.22755 0.52488 0.0
C3013 C 0.27605 0.23639 0.51979 0.0
C3014 C 0.28578 0.24062 0.52437 0.0
C3015 C 0.28964 0.23625 0.53417 0.0
C3016 C 0.26031 0.22264 0.52006 0.0
C3017 C 0.2919 0.24996 0.51907 0.0
C3018 C 0.27203 0.2333 0.4351 0.0
C3019 C 0.28331 0.23147 0.43995 0.0
C3020 C 0.27964 0.22955 0.45936 0.0
C3021 C 0.27246 0.22351 0.4659 0.0
C3022 C 0.26911 0.2274 0.47601 0.0
C3023 C 0.27331 0.23746 0.47976 0.0
C3024 C 0.28095 0.24339 0.47339 0.0
C3025 C 0.28402 0.23939 0.46323 0.0
C3026 C 0.26102 0.2208 0.48264 0.0
C3027 C 0.28587 0.25396 0.47732 0.0
C3028 C 0.23541 0.27167 0.49347 0.0
C3029 C 0.23214 0.27515 0.50372 0.0
C3030 C 0.23734 0.27163 0.51315 0.0
C3031 C 0.24607 0.2644 0.5124 0.0
C3032 C 0.25152 0.26074 0.52173 0.0
C3033 C 0.25982 0.25331 0.52096 0.0
C3034 C 0.26308 0.24934 0.51082 0.0
C3035 C 0.27126 0.24151 0.51 0.0
C3036 C 0.2745 0.23793 0.4998 0.0
C3037 C 0.26963 0.24181 0.49031 0.0
C3038 C 0.26124 0.24945 0.49098 0.0
C3039 C 0.25597 0.25334 0.48163 0.0
C3040 C 0.2476 0.26072 0.4824 0.0
C3041 C 0.24411 0.26441 0.49256 0.0
C3042 C 0.2494 0.26071 0.50208 0.0
C3043 C 0.25795 0.25321 0.50129 0.0
C3044 C 0.27812 0.23214 0.56421 0.0
C3045 C 0.28122 0.22179 0.55826 0.0
O3046 O 0.20946 0.28852 0.45976 0.0
O3047 O 0.28232 0.22553 0.44951 0.0
O3048 O 0.28764 0.22443 0.54933 0.0
O3049 O 0.22296 0.28586 0.55424 0.0
H3050 H 0.2089 0.30387 0.46617 0.0
H3051 H 0.19484 0.2924 0.47515 0.0
H3052 H 0.18809 0.29003 0.46236 0.0
H3053 H 0.18875 0.30352 0.46802 0.0
H3054 H 0.22677 0.29845 0.46817 0.0
H3055 H 0.20758 0.26911 0.46772 0.0
H3056 H 0.23905 0.2956 0.49239 0.0
H3057 H 0.24256 0.30038 0.47896 0.0
H3058 H 0.24848 0.2882 0.48438 0.0
H3059 H 0.2106 0.25459 0.47982 0.0
H3060 H 0.21634 0.25863 0.49271 0.0
H3061 H 0.22485 0.25283 0.4826 0.0
H3062 H 0.21099 0.27507 0.55909 0.0
H3063 H 0.22192 0.2678 0.57471 0.0
H3064 H 0.23292 0.27722 0.57143 0.0
H3065 H 0.22917 0.26657 0.56214 0.0
H3066 H 0.21759 0.26663 0.54502 0.0
H3067 H 0.23504 0.29689 0.54106 0.0
H3068 H 0.21935 0.25836 0.51747 0.0
H3069 H 0.21592 0.25395 0.53107 0.0
H3070 H 0.2294 0.25207 0.52581 0.0
H3071 H 0.24621 0.30057 0.52588 0.0
H3072 H 0.23966 0.2957 0.5137 0.0
H3073 H 0.25128 0.28887 0.51893 0.0
H3074 H 0.27354 0.21768 0.55572 0.0
H3075 H 0.27037 0.21654 0.53844 0.0
H3076 H 0.29696 0.23956 0.53787 0.0
H3077 H 0.25376 0.2287 0.52016 0.0
H3078 H 0.25744 0.21529 0.52456 0.0
H3079 H 0.26173 0.22045 0.51146 0.0
H3080 H 0.29943 0.25223 0.52357 0.0
H3081 H 0.2866 0.25712 0.5186 0.0
H3082 H 0.29411 0.24778 0.51063 0.0
H3083 H 0.28716 0.23953 0.4415 0.0
H3084 H 0.27273 0.23793 0.42735 0.0
H3085 H 0.26706 0.23804 0.44082 0.0
H3086 H 0.26777 0.22543 0.43354 0.0
H3087 H 0.26927 0.21584 0.46292 0.0
H3088 H 0.28999 0.24388 0.45847 0.0
H3089 H 0.25403 0.22587 0.48488 0.0
H3090 H 0.26493 0.21808 0.49028 0.0
H3091 H 0.25792 0.21355 0.47822 0.0
H3092 H 0.29235 0.25716 0.47182 0.0
H3093 H 0.28935 0.25287 0.48557 0.0
H3094 H 0.27943 0.2601 0.47791 0.0
H3095 H 0.22539 0.28063 0.50437 0.0
H3096 H 0.24937 0.26349 0.52975 0.0
H3097 H 0.26363 0.2507 0.52843 0.0
H3098 H 0.28077 0.2319 0.49924 0.0
H3099 H 0.25823 0.25068 0.4736 0.0
H3100 H 0.24384 0.26343 0.47494 0.0
H3101 H 0.27326 0.23009 0.57157 0.0
H3102 H 0.27312 0.23729 0.5588 0.0
H3103 H 0.28548 0.23689 0.56664 0.0
C3104 C 0.79978 0.56332 0.73792 0.0
C3105 C 0.80324 0.55748 0.72757 0.0
C3106 C 0.78911 0.54317 0.72567 0.0
C3107 C 0.77987 0.53992 0.71982 0.0
C3108 C 0.77395 0.53046 0.72264 0.0
C3109 C 0.77737 0.52412 0.73157 0.0
C3110 C 0.78679 0.52726 0.73745 0.0
C3111 C 0.79257 0.53673 0.73444 0.0
C3112 C 0.76398 0.5273 0.71618 0.0
C3113 C 0.79068 0.52063 0.74699 0.0
C3114 C 0.77108 0.43984 0.72262 0.0
C3115 C 0.78252 0.44496 0.72241 0.0
C3116 C 0.77949 0.46437 0.72088 0.0
C3117 C 0.78354 0.46807 0.73088 0.0
C3118 C 0.78027 0.47801 0.73513 0.0
C3119 C 0.77276 0.48434 0.72928 0.0
C3120 C 0.76893 0.48078 0.71904 0.0
C3121 C 0.77246 0.47087 0.71492 0.0
C3122 C 0.78481 0.48173 0.74589 0.0
C3123 C 0.76101 0.48737 0.71254 0.0
C3124 C 0.72356 0.46613 0.78048 0.0
C3125 C 0.73376 0.47043 0.78362 0.0
C3126 C 0.73779 0.48021 0.77918 0.0
C3127 C 0.7316 0.48573 0.77128 0.0
C3128 C 0.72127 0.48154 0.76821 0.0
C3129 C 0.71736 0.47183 0.77293 0.0
C3130 C 0.74873 0.48458 0.78286 0.0
C3131 C 0.71446 0.48723 0.75982 0.0
C3132 C 0.72324 0.5694 0.7704 0.0
C3133 C 0.71621 0.56291 0.77852 0.0
C3134 C 0.72564 0.54547 0.77913 0.0
C3135 C 0.73308 0.53935 0.78501 0.0
C3136 C 0.73706 0.52961 0.78093 0.0
C3137 C 0.73335 0.5258 0.77075 0.0
C3138 C 0.72566 0.53182 0.76482 0.0
C3139 C 0.72195 0.54163 0.76901 0.0
C3140 C 0.74528 0.52342 0.78747 0.0
C3141 C 0.72135 0.5279 0.75403 0.0
C3142 C 0.77105 0.51428 0.73491 0.0
C3143 C 0.77406 0.50432 0.73062 0.0
C3144 C 0.76888 0.49466 0.7339 0.0
C3145 C 0.76044 0.49489 0.74169 0.0
C3146 C 0.7551 0.48532 0.74525 0.0
C3147 C 0.74708 0.48559 0.75319 0.0
C3148 C 0.74399 0.49545 0.7578 0.0
C3149 C 0.73609 0.49578 0.76612 0.0
C3150 C 0.73281 0.50575 0.77014 0.0
C3151 C 0.73745 0.51549 0.7663 0.0
C3152 C 0.74578 0.51529 0.75839 0.0
C3153 C 0.75104 0.52487 0.75476 0.0
C3154 C 0.7593 0.52457 0.74706 0.0
C3155 C 0.76256 0.51469 0.74262 0.0
C3156 C 0.75729 0.50494 0.74607 0.0
C3157 C 0.74898 0.50523 0.75405 0.0
C3158 C 0.73275 0.4427 0.7832 0.0
C3159 C 0.72487 0.44883 0.79046 0.0
O3160 O 0.7943 0.55257 0.72262 0.0
O3161 O 0.72233 0.55496 0.78351 0.0
O3162 O 0.71943 0.45656 0.78442 0.0
O3163 O 0.78237 0.45469 0.71669 0.0
H3164 H 0.80931 0.55125 0.7297 0.0
H3165 H 0.79627 0.55748 0.74391 0.0
H3166 H 0.79356 0.56946 0.73604 0.0
H3167 H 0.80693 0.56742 0.74174 0.0
H3168 H 0.77726 0.54489 0.71306 0.0
H3169 H 0.79971 0.53902 0.73906 0.0
H3170 H 0.76487 0.51899 0.71294 0.0
H3171 H 0.76253 0.53296 0.7093 0.0
H3172 H 0.75675 0.52718 0.72155 0.0
H3173 H 0.79814 0.52416 0.75075 0.0
H3174 H 0.79239 0.51226 0.74431 0.0
H3175 H 0.7842 0.52005 0.75325 0.0
H3176 H 0.78507 0.44633 0.73096 0.0
H3177 H 0.7711 0.43199 0.72709 0.0
H3178 H 0.76805 0.43845 0.71423 0.0
H3179 H 0.76542 0.44532 0.72681 0.0
H3180 H 0.78939 0.46331 0.7353 0.0
H3181 H 0.76954 0.46803 0.70712 0.0
H3182 H 0.78823 0.4901 0.7451 0.0
H3183 H 0.79126 0.47635 0.74898 0.0
H3184 H 0.77819 0.48191 0.75199 0.0
H3185 H 0.75841 0.48324 0.70496 0.0
H3186 H 0.76483 0.49533 0.71037 0.0
H3187 H 0.75371 0.48899 0.71752 0.0
H3188 H 0.72947 0.45283 0.79716 0.0
H3189 H 0.73869 0.46623 0.78951 0.0
H3190 H 0.70948 0.46851 0.77058 0.0
H3191 H 0.75467 0.48394 0.77613 0.0
H3192 H 0.7519 0.48009 0.79 0.0
H3193 H 0.74818 0.49328 0.78497 0.0
H3194 H 0.70687 0.48261 0.75788 0.0
H3195 H 0.71923 0.48847 0.75224 0.0
H3196 H 0.71227 0.49535 0.76285 0.0
H3197 H 0.7092 0.55908 0.7742 0.0
H3198 H 0.71838 0.57582 0.76645 0.0
H3199 H 0.72632 0.56404 0.76396 0.0
H3200 H 0.73032 0.57325 0.77458 0.0
H3201 H 0.73588 0.54233 0.79281 0.0
H3202 H 0.71618 0.54618 0.76431 0.0
H3203 H 0.75248 0.52171 0.78237 0.0
H3204 H 0.74166 0.5155 0.79007 0.0
H3205 H 0.74801 0.5279 0.7948 0.0
H3206 H 0.71464 0.53295 0.75092 0.0
H3207 H 0.71835 0.51937 0.75478 0.0
H3208 H 0.72802 0.52808 0.74797 0.0
H3209 H 0.78065 0.50407 0.72478 0.0
H3210 H 0.75714 0.47749 0.74201 0.0
H3211 H 0.74333 0.47796 0.75568 0.0
H3212 H 0.72665 0.50594 0.77642 0.0
H3213 H 0.7489 0.53271 0.75792 0.0
H3214 H 0.7631 0.5322 0.74463 0.0
H3215 H 0.72828 0.43871 0.77642 0.0
H3216 H 0.73703 0.43643 0.788 0.0
H3217 H 0.73897 0.44834 0.77971 0.0
C3218 C 0.21119 0.44238 0.7425 0.0
C3219 C 0.20743 0.44795 0.73202 0.0
C3220 C 0.22088 0.46286 0.72967 0.0
C3221 C 0.22989 0.46648 0.72366 0.0
C3222 C 0.23535 0.47626 0.72615 0.0
C3223 C 0.23169 0.48255 0.73492 0.0
C3224 C 0.22251 0.47902 0.74098 0.0
C3225 C 0.21719 0.46924 0.7383 0.0
C3226 C 0.24508 0.47983 0.71949 0.0
C3227 C 0.21838 0.48557 0.75036 0.0
C3228 C 0.20341 0.56242 0.71691 0.0
C3229 C 0.20752 0.55303 0.72308 0.0
C3230 C 0.22245 0.54036 0.72361 0.0
C3231 C 0.21988 0.53626 0.73401 0.0
C3232 C 0.22533 0.52734 0.73833 0.0
C3233 C 0.23355 0.52241 0.73218 0.0
C3234 C 0.23639 0.5267 0.72186 0.0
C3235 C 0.23081 0.53566 0.71772 0.0
C3236 C 0.22215 0.52304 0.74942 0.0
C3237 C 0.24518 0.52169 0.71515 0.0
C3238 C 0.28898 0.5434 0.7757 0.0
C3239 C 0.27902 0.54017 0.78031 0.0
C3240 C 0.27404 0.53023 0.77753 0.0
C3241 C 0.27909 0.52351 0.76983 0.0
C3242 C 0.2893 0.52665 0.7654 0.0
C3243 C 0.2942 0.53652 0.76853 0.0
C3244 C 0.26338 0.52695 0.78277 0.0
C3245 C 0.29496 0.51966 0.75724 0.0
C3246 C 0.27412 0.43959 0.78089 0.0
C3247 C 0.28573 0.44429 0.7811 0.0
C3248 C 0.28318 0.46375 0.78224 0.0
C3249 C 0.27613 0.47033 0.78797 0.0
C3250 C 0.27261 0.48016 0.78353 0.0
C3251 C 0.27648 0.48358 0.77322 0.0
C3252 C 0.28407 0.47721 0.76764 0.0
C3253 C 0.28733 0.46734 0.7722 0.0
C3254 C 0.26457 0.48679 0.78974 0.0
C3255 C 0.28864 0.48079 0.75679 0.0
C3256 C 0.23755 0.49274 0.73789 0.0
C3257 C 0.23386 0.50247 0.7335 0.0
C3258 C 0.23868 0.51241 0.73633 0.0
C3259 C 0.24762 0.51269 0.74357 0.0
C3260 C 0.25282 0.52251 0.7464 0.0
C3261 C 0.26144 0.52272 0.75373 0.0
C3262 C 0.2651 0.51311 0.75863 0.0
C3263 C 0.27364 0.51326 0.76634 0.0
C3264 C 0.27713 0.50354 0.77094 0.0
C3265 C 0.27231 0.49361 0.76809 0.0
C3266 C 0.26368 0.49331 0.76049 0.0
C3267 C 0.25853 0.48347 0.75757 0.0
C3268 C 0.25004 0.48325 0.75011 0.0
C3269 C 0.24631 0.49287 0.74533 0.0
C3270 C 0.25137 0.50288 0.74816 0.0
C3271 C 0.26007 0.5031 0.75574 0.0
C3272 C 0.29092 0.56748 0.76561 0.0
C3273 C 0.2888 0.56298 0.77703 0.0
O3274 O 0.21613 0.45319 0.72693 0.0
O3275 O 0.28591 0.45405 0.78663 0.0
O3276 O 0.29379 0.55306 0.77816 0.0
O3277 O 0.21697 0.54869 0.71898 0.0
H3278 H 0.2011 0.45393 0.73402 0.0
H3279 H 0.21447 0.44842 0.74833 0.0
H3280 H 0.21767 0.4365 0.74076 0.0
H3281 H 0.20424 0.43801 0.74644 0.0
H3282 H 0.23269 0.46156 0.71701 0.0
H3283 H 0.21021 0.46666 0.74305 0.0
H3284 H 0.24378 0.48806 0.7161 0.0
H3285 H 0.24669 0.4742 0.7127 0.0
H3286 H 0.25239 0.4803 0.72477 0.0
H3287 H 0.21133 0.48157 0.75449 0.0
H3288 H 0.21589 0.49366 0.74738 0.0
H3289 H 0.22498 0.48688 0.7564 0.0
H3290 H 0.20123 0.54682 0.72547 0.0
H3291 H 0.19515 0.55979 0.71378 0.0
H3292 H 0.20745 0.56227 0.70867 0.0
H3293 H 0.20544 0.57618 0.72853 0.0
H3294 H 0.21357 0.53992 0.73877 0.0
H3295 H 0.23282 0.53891 0.70976 0.0
H3296 H 0.22936 0.52315 0.75485 0.0
H3297 H 0.21926 0.51449 0.74875 0.0
H3298 H 0.21565 0.52783 0.75322 0.0
H3299 H 0.24689 0.52635 0.70757 0.0
H3300 H 0.24269 0.51328 0.71297 0.0
H3301 H 0.25279 0.52122 0.71998 0.0
H3302 H 0.27985 0.56202 0.77809 0.0
H3303 H 0.2752 0.54537 0.78617 0.0
H3304 H 0.30198 0.53905 0.76516 0.0
H3305 H 0.25678 0.52727 0.77664 0.0
H3306 H 0.26127 0.53234 0.7896 0.0
H3307 H 0.26371 0.51848 0.78585 0.0
H3308 H 0.30242 0.52367 0.7539 0.0
H3309 H 0.28936 0.51767 0.75043 0.0
H3310 H 0.29726 0.51191 0.76117 0.0
H3311 H 0.28839 0.44554 0.77255 0.0
H3312 H 0.27389 0.4317 0.77659 0.0
H3313 H 0.26869 0.44523 0.77652 0.0
H3314 H 0.27098 0.43836 0.78927 0.0
H3315 H 0.27312 0.46756 0.7958 0.0
H3316 H 0.29319 0.46251 0.76796 0.0
H3317 H 0.2572 0.48804 0.78472 0.0
H3318 H 0.2682 0.4949 0.79149 0.0
H3319 H 0.26211 0.48287 0.79753 0.0
H3320 H 0.2952 0.47544 0.75396 0.0
H3321 H 0.29191 0.48922 0.75731 0.0
H3322 H 0.28205 0.48072 0.75064 0.0
H3323 H 0.22695 0.50231 0.72802 0.0
H3324 H 0.25028 0.53016 0.74297 0.0
H3325 H 0.26516 0.53052 0.75558 0.0
H3326 H 0.2837 0.5037 0.77683 0.0
H3327 H 0.26099 0.47581 0.76103 0.0
H3328 H 0.24639 0.47544 0.74818 0.0
H3329 H 0.29979 0.56855 0.76414 0.0
H3330 H 0.28694 0.57541 0.76452 0.0
H3331 H 0.28753 0.56178 0.75947 0.0
C3332 C 0.30112 0.5406 0.19667 0.0
C3333 C 0.29508 0.54966 0.20244 0.0
C3334 C 0.28954 0.53988 0.21908 0.0
C3335 C 0.28075 0.53401 0.21454 0.0
C3336 C 0.27562 0.5255 0.2203 0.0
C3337 C 0.27943 0.52268 0.23077 0.0
C3338 C 0.28808 0.52873 0.23548 0.0
C3339 C 0.29294 0.53735 0.22961 0.0
C3340 C 0.26627 0.51935 0.21511 0.0
C3341 C 0.29237 0.52592 0.24661 0.0
C3342 C 0.30836 0.44081 0.22345 0.0
C3343 C 0.30404 0.45007 0.22951 0.0
C3344 C 0.29055 0.46429 0.22804 0.0
C3345 C 0.29277 0.46878 0.2383 0.0
C3346 C 0.28753 0.47814 0.24175 0.0
C3347 C 0.27967 0.48296 0.23495 0.0
C3348 C 0.27714 0.47823 0.2248 0.0
C3349 C 0.28267 0.469 0.22146 0.0
C3350 C 0.29056 0.48302 0.25257 0.0
C3351 C 0.26874 0.48305 0.21737 0.0
C3352 C 0.22739 0.46621 0.28366 0.0
C3353 C 0.23649 0.47158 0.28822 0.0
C3354 C 0.24071 0.4812 0.28358 0.0
C3355 C 0.23576 0.48555 0.2742 0.0
C3356 C 0.22647 0.48032 0.26972 0.0
C3357 C 0.22241 0.47071 0.27453 0.0
C3358 C 0.25058 0.48664 0.2886 0.0
C3359 C 0.22097 0.48478 0.25974 0.0
C3360 C 0.22485 0.56868 0.26841 0.0
C3361 C 0.21877 0.56261 0.27756 0.0
C3362 C 0.22891 0.5456 0.27879 0.0
C3363 C 0.23681 0.54013 0.28471 0.0
C3364 C 0.24084 0.5302 0.28116 0.0
C3365 C 0.23674 0.52556 0.27148 0.0
C3366 C 0.22858 0.53092 0.26554 0.0
C3367 C 0.22479 0.54091 0.26921 0.0
C3368 C 0.24951 0.52469 0.28773 0.0
C3369 C 0.22391 0.52611 0.25527 0.0
C3370 C 0.27478 0.51298 0.23641 0.0
C3371 C 0.27887 0.50289 0.23363 0.0
C3372 C 0.27463 0.4933 0.23817 0.0
C3373 C 0.26597 0.49373 0.24569 0.0
C3374 C 0.26128 0.48424 0.25019 0.0
C3375 C 0.2529 0.48476 0.25774 0.0
C3376 C 0.24888 0.49479 0.26108 0.0
C3377 C 0.2405 0.4954 0.26889 0.0
C3378 C 0.23669 0.5055 0.27202 0.0
C3379 C 0.24103 0.51511 0.26756 0.0
C3380 C 0.24941 0.51467 0.25972 0.0
C3381 C 0.25395 0.52415 0.25503 0.0
C3382 C 0.26218 0.52362 0.24731 0.0
C3383 C 0.26633 0.5136 0.24413 0.0
C3384 C 0.2619 0.50393 0.24877 0.0
C3385 C 0.25337 0.50446 0.25651 0.0
C3386 C 0.23734 0.44424 0.29201 0.0
C3387 C 0.22739 0.45037 0.29598 0.0
O3388 O 0.29506 0.54787 0.21358 0.0
O3389 O 0.22559 0.55532 0.28262 0.0
O3390 O 0.22321 0.45668 0.28767 0.0
O3391 O 0.29591 0.45559 0.22415 0.0
H3392 H 0.28658 0.54991 0.1994 0.0
H3393 H 0.29697 0.53265 0.19812 0.0
H3394 H 0.3096 0.54013 0.19972 0.0
H3395 H 0.30129 0.5421 0.18777 0.0
H3396 H 0.27786 0.53592 0.20648 0.0
H3397 H 0.29966 0.54195 0.2331 0.0
H3398 H 0.26884 0.51102 0.21319 0.0
H3399 H 0.26347 0.52329 0.20749 0.0
H3400 H 0.25932 0.51866 0.22083 0.0
H3401 H 0.29928 0.5313 0.24906 0.0
H3402 H 0.2951 0.5174 0.24673 0.0
H3403 H 0.28578 0.52657 0.2527 0.0
H3404 H 0.31035 0.4554 0.23336 0.0
H3405 H 0.3172 0.44298 0.22196 0.0
H3406 H 0.3059 0.44187 0.21467 0.0
H3407 H 0.30295 0.42638 0.23332 0.0
H3408 H 0.29869 0.46513 0.24361 0.0
H3409 H 0.28094 0.46546 0.2136 0.0
H3410 H 0.28347 0.48245 0.25814 0.0
H3411 H 0.29274 0.49174 0.25155 0.0
H3412 H 0.29749 0.47886 0.25646 0.0
H3413 H 0.26645 0.4775 0.21065 0.0
H3414 H 0.27207 0.4907 0.21378 0.0
H3415 H 0.26131 0.48504 0.222 0.0
H3416 H 0.22979 0.45562 0.30292 0.0
H3417 H 0.24043 0.46832 0.29534 0.0
H3418 H 0.21537 0.46657 0.27109 0.0
H3419 H 0.2574 0.48673 0.2827 0.0
H3420 H 0.25325 0.48248 0.29614 0.0
H3421 H 0.24878 0.49519 0.29053 0.0
H3422 H 0.21376 0.4798 0.2573 0.0
H3423 H 0.22683 0.48512 0.25288 0.0
H3424 H 0.21837 0.49319 0.26128 0.0
H3425 H 0.2116 0.5582 0.27412 0.0
H3426 H 0.21944 0.57463 0.26446 0.0
H3427 H 0.22754 0.56293 0.26212 0.0
H3428 H 0.23214 0.57303 0.27166 0.0
H3429 H 0.23992 0.54375 0.29211 0.0
H3430 H 0.21863 0.54494 0.26451 0.0
H3431 H 0.25659 0.52295 0.28249 0.0
H3432 H 0.24627 0.51683 0.2909 0.0
H3433 H 0.25234 0.52968 0.2947 0.0
H3434 H 0.21704 0.53085 0.25201 0.0
H3435 H 0.22103 0.51765 0.25682 0.0
H3436 H 0.23035 0.52583 0.24898 0.0
H3437 H 0.28546 0.5025 0.22779 0.0
H3438 H 0.26405 0.4763 0.24793 0.0
H3439 H 0.24964 0.47718 0.26096 0.0
H3440 H 0.2303 0.5059 0.27807 0.0
H3441 H 0.25118 0.5321 0.25725 0.0
H3442 H 0.26533 0.53118 0.24394 0.0
H3443 H 0.24053 0.43901 0.29862 0.0
H3444 H 0.24394 0.44999 0.28951 0.0
H3445 H 0.23518 0.43909 0.28493 0.0
C3446 C 0.79046 0.4584 0.3106 0.0
C3447 C 0.78523 0.45004 0.30293 0.0
C3448 C 0.78124 0.46195 0.28734 0.0
C3449 C 0.77228 0.46711 0.29195 0.0
C3450 C 0.7677 0.47617 0.28689 0.0
C3451 C 0.77218 0.48018 0.27704 0.0
C3452 C 0.781 0.47485 0.27223 0.0
C3453 C 0.78535 0.46573 0.27741 0.0
C3454 C 0.7582 0.48159 0.29216 0.0
C3455 C 0.78599 0.47892 0.26174 0.0
C3456 C 0.80824 0.54181 0.2949 0.0
C3457 C 0.80097 0.55001 0.28912 0.0
C3458 C 0.78503 0.53829 0.28515 0.0
C3459 C 0.78963 0.53271 0.27641 0.0
C3460 C 0.78427 0.52368 0.27185 0.0
C3461 C 0.77415 0.52009 0.27615 0.0
C3462 C 0.76941 0.52578 0.28481 0.0
C3463 C 0.77488 0.53488 0.28911 0.0
C3464 C 0.7895 0.51787 0.26254 0.0
C3465 C 0.75868 0.52211 0.28964 0.0
C3466 C 0.72459 0.54058 0.22611 0.0
C3467 C 0.73454 0.53652 0.22245 0.0
C3468 C 0.73842 0.52662 0.2264 0.0
C3469 C 0.73238 0.52077 0.23435 0.0
C3470 C 0.72231 0.52476 0.23796 0.0
C3471 C 0.71852 0.53457 0.2337 0.0
C3472 C 0.74904 0.52247 0.22214 0.0
C3473 C 0.71561 0.51871 0.24638 0.0
C3474 C 0.72428 0.43631 0.23394 0.0
C3475 C 0.71479 0.44251 0.22899 0.0
C3476 C 0.72246 0.46089 0.22677 0.0
C3477 C 0.73095 0.46621 0.22124 0.0
C3478 C 0.73544 0.47602 0.22507 0.0
C3479 C 0.73115 0.4807 0.23456 0.0
C3480 C 0.72226 0.4756 0.23993 0.0
C3481 C 0.71801 0.46574 0.23601 0.0
C3482 C 0.74487 0.4813 0.2191 0.0
C3483 C 0.71728 0.48055 0.24989 0.0
C3484 C 0.76804 0.49034 0.27215 0.0
C3485 C 0.77233 0.50015 0.27601 0.0
C3486 C 0.76884 0.51007 0.2719 0.0
C3487 C 0.76075 0.51028 0.26375 0.0
C3488 C 0.75695 0.52011 0.25952 0.0
C3489 C 0.74896 0.52023 0.25152 0.0
C3490 C 0.74463 0.51051 0.24726 0.0
C3491 C 0.73664 0.51054 0.23898 0.0
C3492 C 0.73251 0.50072 0.23496 0.0
C3493 C 0.73609 0.4908 0.23901 0.0
C3494 C 0.74406 0.49061 0.24728 0.0
C3495 C 0.74783 0.48077 0.25156 0.0
C3496 C 0.75562 0.48065 0.25975 0.0
C3497 C 0.76004 0.49036 0.2639 0.0
C3498 C 0.75638 0.50038 0.2597 0.0
C3499 C 0.74836 0.5005 0.2514 0.0
C3500 C 0.73419 0.56432 0.22358 0.0
C3501 C 0.72589 0.55816 0.21652 0.0
O3502 O 0.78628 0.45347 0.29221 0.0
O3503 O 0.71874 0.45121 0.22287 0.0
O3504 O 0.72055 0.5502 0.22262 0.0
O3505 O 0.79012 0.54684 0.29008 0.0
H3506 H 0.77648 0.44892 0.30496 0.0
H3507 H 0.78629 0.46627 0.30997 0.0
H3508 H 0.79918 0.45976 0.30855 0.0
H3509 H 0.78981 0.45555 0.31915 0.0
H3510 H 0.76886 0.46421 0.29954 0.0
H3511 H 0.7922 0.46167 0.27385 0.0
H3512 H 0.76071 0.48986 0.29479 0.0
H3513 H 0.75509 0.47699 0.29934 0.0
H3514 H 0.75148 0.48246 0.28621 0.0
H3515 H 0.79286 0.4739 0.25907 0.0
H3516 H 0.78897 0.48741 0.26276 0.0
H3517 H 0.77972 0.47894 0.25525 0.0
H3518 H 0.80324 0.55057 0.2804 0.0
H3519 H 0.81692 0.54442 0.29428 0.0
H3520 H 0.80737 0.53371 0.29112 0.0
H3521 H 0.80599 0.54106 0.30361 0.0
H3522 H 0.79741 0.53526 0.27312 0.0
H3523 H 0.77136 0.53925 0.29581 0.0
H3524 H 0.78361 0.5169 0.25575 0.0
H3525 H 0.79182 0.50963 0.26523 0.0
H3526 H 0.79687 0.52223 0.25947 0.0
H3527 H 0.75621 0.52725 0.29655 0.0
H3528 H 0.7592 0.51359 0.29251 0.0
H3529 H 0.75225 0.52236 0.28333 0.0
H3530 H 0.73015 0.55439 0.20959 0.0
H3531 H 0.73936 0.54097 0.21653 0.0
H3532 H 0.71084 0.5377 0.23644 0.0
H3533 H 0.75529 0.52295 0.22863 0.0
H3534 H 0.75204 0.52721 0.21501 0.0
H3535 H 0.7481 0.51383 0.21979 0.0
H3536 H 0.70841 0.52332 0.24896 0.0
H3537 H 0.72067 0.51695 0.25362 0.0
H3538 H 0.71276 0.51083 0.24301 0.0
H3539 H 0.70969 0.44533 0.23578 0.0
H3540 H 0.72119 0.42913 0.23858 0.0
H3541 H 0.7289 0.44164 0.23961 0.0
H3542 H 0.72992 0.43359 0.22752 0.0
H3543 H 0.73423 0.46251 0.21404 0.0
H3544 H 0.71112 0.46204 0.24012 0.0
H3545 H 0.75192 0.48223 0.22468 0.0
H3546 H 0.74262 0.48953 0.21633 0.0
H3547 H 0.7474 0.47654 0.21194 0.0
H3548 H 0.70998 0.47594 0.25276 0.0
H3549 H 0.71496 0.48903 0.24811 0.0
H3550 H 0.72336 0.4808 0.25655 0.0
H3551 H 0.77853 0.50006 0.28228 0.0
H3552 H 0.76007 0.52784 0.26241 0.0
H3553 H 0.74628 0.52805 0.24866 0.0
H3554 H 0.72638 0.5008 0.22862 0.0
H3555 H 0.74478 0.47303 0.24864 0.0
H3556 H 0.75819 0.47284 0.26276 0.0
H3557 H 0.73012 0.56803 0.23064 0.0
H3558 H 0.73836 0.57081 0.21875 0.0
H3559 H 0.74047 0.55874 0.22666 0.0
C3560 C 0.56328 0.21447 0.73481 0.0
C3561 C 0.55752 0.21128 0.72422 0.0
C3562 C 0.5428 0.22452 0.72298 0.0
C3563 C 0.53932 0.23381 0.71755 0.0
C3564 C 0.52968 0.23891 0.72052 0.0
C3565 C 0.52339 0.23461 0.72919 0.0
C3566 C 0.52679 0.22516 0.73469 0.0
C3567 C 0.53643 0.22018 0.73151 0.0
C3568 C 0.52624 0.24892 0.71443 0.0
C3569 C 0.52024 0.22036 0.74397 0.0
C3570 C 0.43934 0.22692 0.72617 0.0
C3571 C 0.44544 0.21878 0.71922 0.0
C3572 C 0.46358 0.22755 0.71812 0.0
C3573 C 0.46707 0.22465 0.72861 0.0
C3574 C 0.47696 0.22868 0.73278 0.0
C3575 C 0.48338 0.23598 0.72646 0.0
C3576 C 0.47997 0.23882 0.71587 0.0
C3577 C 0.47016 0.23448 0.71181 0.0
C3578 C 0.48049 0.22519 0.744 0.0
C3579 C 0.48662 0.24657 0.7089 0.0
C3580 C 0.46295 0.28674 0.77385 0.0
C3581 C 0.46696 0.27702 0.77808 0.0
C3582 C 0.4769 0.27297 0.77448 0.0
C3583 C 0.48293 0.27876 0.76647 0.0
C3584 C 0.47908 0.28875 0.76246 0.0
C3585 C 0.46918 0.29268 0.76632 0.0
C3586 C 0.48094 0.26248 0.77922 0.0
C3587 C 0.48534 0.29518 0.754 0.0
C3588 C 0.56684 0.2892 0.76878 0.0
C3589 C 0.56052 0.2961 0.77683 0.0
C3590 C 0.54275 0.2865 0.77715 0.0
C3591 C 0.53641 0.27889 0.78289 0.0
C3592 C 0.52664 0.27471 0.77858 0.0
C3593 C 0.52306 0.27837 0.7683 0.0
C3594 C 0.52927 0.28629 0.76255 0.0
C3595 C 0.53909 0.29022 0.76698 0.0
C3596 C 0.52022 0.26627 0.78493 0.0
C3597 C 0.52558 0.29053 0.75165 0.0
C3598 C 0.51325 0.23998 0.73255 0.0
C3599 C 0.50342 0.23623 0.7281 0.0
C3600 C 0.49355 0.24077 0.73105 0.0
C3601 C 0.49342 0.24937 0.73857 0.0
C3602 C 0.48365 0.25425 0.74159 0.0
C3603 C 0.48355 0.26244 0.74928 0.0
C3604 C 0.49324 0.26615 0.75421 0.0
C3605 C 0.4932 0.27428 0.76224 0.0
C3606 C 0.50302 0.27806 0.76667 0.0
C3607 C 0.51293 0.27379 0.76345 0.0
C3608 C 0.5131 0.26537 0.75571 0.0
C3609 C 0.5229 0.26062 0.75258 0.0
C3610 C 0.52298 0.25233 0.74498 0.0
C3611 C 0.51327 0.24847 0.74021 0.0
C3612 C 0.50331 0.25317 0.74324 0.0
C3613 C 0.50322 0.26159 0.75103 0.0
C3614 C 0.43811 0.2839 0.76684 0.0
C3615 C 0.44364 0.28469 0.77796 0.0
O3616 O 0.55233 0.22014 0.71975 0.0
O3617 O 0.5523 0.28992 0.78169 0.0
O3618 O 0.45325 0.29071 0.77702 0.0
O3619 O 0.45398 0.22396 0.7138 0.0
H3620 H 0.55145 0.20467 0.72591 0.0
H3621 H 0.55734 0.21721 0.74092 0.0
H3622 H 0.56928 0.22117 0.73333 0.0
H3623 H 0.56757 0.2074 0.73828 0.0
H3624 H 0.54424 0.2371 0.71096 0.0
H3625 H 0.53891 0.21297 0.73579 0.0
H3626 H 0.51791 0.24765 0.71113 0.0
H3627 H 0.53183 0.25104 0.70763 0.0
H3628 H 0.52599 0.25587 0.72008 0.0
H3629 H 0.52413 0.21315 0.74763 0.0
H3630 H 0.51201 0.21793 0.74104 0.0
H3631 H 0.5192 0.22654 0.75037 0.0
H3632 H 0.44861 0.21222 0.7245 0.0
H3633 H 0.43243 0.22281 0.73044 0.0
H3634 H 0.43617 0.23358 0.72102 0.0
H3635 H 0.44483 0.2305 0.7324 0.0
H3636 H 0.46218 0.21926 0.73364 0.0
H3637 H 0.46745 0.23664 0.70372 0.0
H3638 H 0.48914 0.22279 0.74392 0.0
H3639 H 0.47546 0.2183 0.74719 0.0
H3640 H 0.47977 0.23209 0.74966 0.0
H3641 H 0.48247 0.24856 0.70115 0.0
H3642 H 0.49456 0.24292 0.70701 0.0
H3643 H 0.4883 0.2542 0.71339 0.0
H3644 H 0.44527 0.2763 0.78077 0.0
H3645 H 0.46245 0.27264 0.78431 0.0
H3646 H 0.4661 0.30027 0.76325 0.0
H3647 H 0.48092 0.25618 0.77284 0.0
H3648 H 0.47584 0.2595 0.7861 0.0
H3649 H 0.48945 0.26358 0.7821 0.0
H3650 H 0.48097 0.30252 0.7513 0.0
H3651 H 0.48687 0.29003 0.74683 0.0
H3652 H 0.49337 0.29774 0.75734 0.0
H3653 H 0.55697 0.30312 0.77249 0.0
H3654 H 0.57349 0.29411 0.76497 0.0
H3655 H 0.5614 0.28621 0.76222 0.0
H3656 H 0.57038 0.2821 0.77298 0.0
H3657 H 0.53925 0.2761 0.79074 0.0
H3658 H 0.54381 0.29615 0.7624 0.0
H3659 H 0.51882 0.25895 0.77988 0.0
H3660 H 0.51213 0.26949 0.78703 0.0
H3661 H 0.52439 0.26385 0.79255 0.0
H3662 H 0.53076 0.29742 0.7487 0.0
H3663 H 0.51704 0.29322 0.75217 0.0
H3664 H 0.52584 0.28394 0.74559 0.0
H3665 H 0.50345 0.22959 0.72237 0.0
H3666 H 0.47594 0.25173 0.73808 0.0
H3667 H 0.47578 0.26583 0.75133 0.0
H3668 H 0.50294 0.28438 0.77275 0.0
H3669 H 0.53062 0.26321 0.756 0.0
H3670 H 0.53075 0.24895 0.74291 0.0
H3671 H 0.43035 0.27918 0.76749 0.0
H3672 H 0.44348 0.27969 0.76106 0.0
H3673 H 0.43643 0.2921 0.76355 0.0
C3674 C 0.54275 0.6948 0.79388 0.0
C3675 C 0.55172 0.70188 0.78861 0.0
C3676 C 0.54167 0.71862 0.78541 0.0
C3677 C 0.53589 0.71497 0.77622 0.0
C3678 C 0.52729 0.72093 0.77191 0.0
C3679 C 0.52429 0.73069 0.77692 0.0
C3680 C 0.5303 0.73459 0.78593 0.0
C3681 C 0.53898 0.72854 0.78999 0.0
C3682 C 0.52121 0.71662 0.76214 0.0
C3683 C 0.52734 0.74501 0.79142 0.0
C3684 C 0.44071 0.71622 0.80449 0.0
C3685 C 0.45046 0.7229 0.80177 0.0
C3686 C 0.46571 0.72328 0.78902 0.0
C3687 C 0.46988 0.73346 0.79223 0.0
C3688 C 0.47924 0.73797 0.78732 0.0
C3689 C 0.4844 0.73231 0.77887 0.0
C3690 C 0.48005 0.72218 0.77546 0.0
C3691 C 0.47081 0.71777 0.78064 0.0
C3692 C 0.48373 0.74872 0.79127 0.0
C3693 C 0.48526 0.71592 0.76644 0.0
C3694 C 0.4652 0.78309 0.7294 0.0
C3695 C 0.47064 0.78737 0.73852 0.0
C3696 C 0.48036 0.78288 0.74226 0.0
C3697 C 0.48474 0.77393 0.73681 0.0
C3698 C 0.47939 0.76968 0.72756 0.0
C3699 C 0.46969 0.77434 0.72397 0.0
C3700 C 0.48591 0.78765 0.75212 0.0
C3701 C 0.48386 0.76015 0.72154 0.0
C3702 C 0.56915 0.78088 0.7347 0.0
C3703 C 0.56388 0.78039 0.72343 0.0
C3704 C 0.54461 0.78175 0.72728 0.0
C3705 C 0.53877 0.78763 0.73486 0.0
C3706 C 0.52901 0.78347 0.73925 0.0
C3707 C 0.52487 0.77331 0.7357 0.0
C3708 C 0.53052 0.76755 0.72763 0.0
C3709 C 0.54039 0.7718 0.72357 0.0
C3710 C 0.52319 0.78989 0.74776 0.0
C3711 C 0.52613 0.75691 0.72332 0.0
C3712 C 0.51434 0.73625 0.77324 0.0
C3713 C 0.50442 0.73262 0.77759 0.0
C3714 C 0.49457 0.73675 0.77392 0.0
C3715 C 0.49456 0.74474 0.76563 0.0
C3716 C 0.4848 0.74885 0.76153 0.0
C3717 C 0.48487 0.75677 0.75342 0.0
C3718 C 0.49471 0.76084 0.74907 0.0
C3719 C 0.49487 0.76895 0.74089 0.0
C3720 C 0.50478 0.77272 0.73664 0.0
C3721 C 0.51465 0.76872 0.74043 0.0
C3722 C 0.51467 0.76066 0.74868 0.0
C3723 C 0.52443 0.7565 0.75276 0.0
C3724 C 0.52435 0.74847 0.76076 0.0
C3725 C 0.51452 0.74444 0.76514 0.0
C3726 C 0.50458 0.74865 0.76129 0.0
C3727 C 0.50465 0.75671 0.75299 0.0
C3728 C 0.4432 0.79054 0.7401 0.0
C3729 C 0.4494 0.79503 0.73018 0.0
O3730 O 0.54969 0.71278 0.79019 0.0
O3731 O 0.5542 0.78593 0.72356 0.0
O3732 O 0.45564 0.78702 0.7256 0.0
O3733 O 0.45691 0.71843 0.79382 0.0
H3734 H 0.55198 0.70016 0.77977 0.0
H3735 H 0.53477 0.69636 0.79004 0.0
H3736 H 0.54212 0.69656 0.80269 0.0
H3737 H 0.54451 0.68607 0.79284 0.0
H3738 H 0.53788 0.70742 0.77239 0.0
H3739 H 0.54352 0.73138 0.797 0.0
H3740 H 0.51282 0.71422 0.76456 0.0
H3741 H 0.52517 0.70949 0.75855 0.0
H3742 H 0.52061 0.72305 0.75583 0.0
H3743 H 0.53301 0.74714 0.79813 0.0
H3744 H 0.51897 0.74424 0.79475 0.0
H3745 H 0.52739 0.75174 0.7854 0.0
H3746 H 0.45504 0.7262 0.80887 0.0
H3747 H 0.44178 0.7139 0.81331 0.0
H3748 H 0.44212 0.70777 0.80139 0.0
H3749 H 0.42693 0.72621 0.7985 0.0
H3750 H 0.46597 0.73788 0.79864 0.0
H3751 H 0.46752 0.70995 0.77819 0.0
H3752 H 0.48324 0.75484 0.78465 0.0
H3753 H 0.49243 0.74797 0.79348 0.0
H3754 H 0.47923 0.75173 0.79842 0.0
H3755 H 0.48 0.70907 0.76363 0.0
H3756 H 0.49304 0.7126 0.7694 0.0
H3757 H 0.48713 0.72134 0.75942 0.0
H3758 H 0.45475 0.80194 0.73272 0.0
H3759 H 0.46738 0.79417 0.74283 0.0
H3760 H 0.4655 0.77109 0.71693 0.0
H3761 H 0.48621 0.78144 0.75868 0.0
H3762 H 0.48168 0.79485 0.75525 0.0
H3763 H 0.49442 0.79004 0.75009 0.0
H3764 H 0.47869 0.75774 0.71454 0.0
H3765 H 0.48454 0.75312 0.72716 0.0
H3766 H 0.49217 0.7622 0.71854 0.0
H3767 H 0.56237 0.77173 0.72139 0.0
H3768 H 0.57694 0.77649 0.73473 0.0
H3769 H 0.56366 0.77697 0.74079 0.0
H3770 H 0.57072 0.78942 0.73712 0.0
H3771 H 0.54204 0.79539 0.73753 0.0
H3772 H 0.54471 0.76745 0.71738 0.0
H3773 H 0.52133 0.78469 0.75494 0.0
H3774 H 0.51535 0.7927 0.74441 0.0
H3775 H 0.52803 0.79709 0.75044 0.0
H3776 H 0.53077 0.75413 0.71617 0.0
H3777 H 0.51745 0.75768 0.72098 0.0
H3778 H 0.52656 0.75061 0.72977 0.0
H3779 H 0.50434 0.72635 0.78381 0.0
H3780 H 0.47698 0.74601 0.76455 0.0
H3781 H 0.4771 0.75964 0.7506 0.0
H3782 H 0.50483 0.77895 0.73038 0.0
H3783 H 0.53226 0.75936 0.74977 0.0
H3784 H 0.53211 0.7455 0.76353 0.0
H3785 H 0.43807 0.79692 0.74364 0.0
H3786 H 0.44894 0.78782 0.74646 0.0
H3787 H 0.43792 0.78351 0.73778 0.0
C3788 C 0.46604 0.81466 0.28812 0.0
C3789 C 0.45733 0.80683 0.28361 0.0
C3790 C 0.46872 0.79119 0.27952 0.0
C3791 C 0.47356 0.7955 0.27004 0.0
C3792 C 0.48225 0.7903 0.26506 0.0
C3793 C 0.48627 0.78065 0.26967 0.0
C3794 C 0.48128 0.77615 0.27906 0.0
C3795 C 0.47248 0.78144 0.28379 0.0
C3796 C 0.48728 0.79523 0.25495 0.0
C3797 C 0.48537 0.76589 0.28423 0.0
C3798 C 0.57239 0.7886 0.26599 0.0
C3799 C 0.56601 0.78883 0.27664 0.0
C3800 C 0.54665 0.78991 0.27271 0.0
C3801 C 0.54252 0.78088 0.27846 0.0
C3802 C 0.53238 0.77622 0.27576 0.0
C3803 C 0.52629 0.78069 0.26713 0.0
C3804 C 0.53031 0.79001 0.26156 0.0
C3805 C 0.54041 0.79458 0.26453 0.0
C3806 C 0.52817 0.76648 0.28208 0.0
C3807 C 0.524 0.79506 0.25238 0.0
C3808 C 0.54228 0.72513 0.223 0.0
C3809 C 0.53805 0.72234 0.23328 0.0
C3810 C 0.52852 0.72705 0.23713 0.0
C3811 C 0.52317 0.73481 0.23065 0.0
C3812 C 0.52732 0.73754 0.22025 0.0
C3813 C 0.53678 0.73259 0.21654 0.0
C3814 C 0.5242 0.72379 0.24817 0.0
C3815 C 0.52182 0.74577 0.21312 0.0
C3816 C 0.438 0.73634 0.22634 0.0
C3817 C 0.44416 0.73177 0.21665 0.0
C3818 C 0.46259 0.72908 0.22351 0.0
C3819 C 0.46763 0.72383 0.23219 0.0
C3820 C 0.47778 0.72745 0.23611 0.0
C3821 C 0.48307 0.73644 0.23106 0.0
C3822 C 0.47824 0.74149 0.22197 0.0
C3823 C 0.46807 0.73775 0.21827 0.0
C3824 C 0.48278 0.72181 0.24574 0.0
C3825 C 0.48384 0.75089 0.21621 0.0
C3826 C 0.49604 0.77558 0.26498 0.0
C3827 C 0.50622 0.77979 0.268 0.0
C3828 C 0.51579 0.77557 0.26383 0.0
C3829 C 0.51526 0.76678 0.25654 0.0
C3830 C 0.52473 0.76231 0.25222 0.0
C3831 C 0.52413 0.7536 0.24512 0.0
C3832 C 0.51403 0.74908 0.24199 0.0
C3833 C 0.51334 0.74017 0.23483 0.0
C3834 C 0.50316 0.73614 0.23157 0.0
C3835 C 0.49358 0.7407 0.23535 0.0
C3836 C 0.4941 0.74938 0.24278 0.0
C3837 C 0.48462 0.75398 0.24694 0.0
C3838 C 0.48522 0.76256 0.25422 0.0
C3839 C 0.49533 0.76687 0.25759 0.0
C3840 C 0.50499 0.76241 0.25343 0.0
C3841 C 0.50437 0.7536 0.24608 0.0
C3842 C 0.56578 0.7221 0.23235 0.0
C3843 C 0.5592 0.71486 0.22457 0.0
O3844 O 0.46056 0.79618 0.28488 0.0
O3845 O 0.4526 0.72543 0.22032 0.0
O3846 O 0.55161 0.72094 0.219 0.0
O3847 O 0.55651 0.79446 0.27504 0.0
H3848 H 0.45598 0.80861 0.27486 0.0
H3849 H 0.47378 0.81391 0.2836 0.0
H3850 H 0.4676 0.81289 0.29684 0.0
H3851 H 0.46338 0.82317 0.28727 0.0
H3852 H 0.47069 0.80295 0.26651 0.0
H3853 H 0.46867 0.77812 0.29105 0.0
H3854 H 0.49556 0.79839 0.25687 0.0
H3855 H 0.48243 0.80199 0.25163 0.0
H3856 H 0.48808 0.78896 0.24859 0.0
H3857 H 0.48081 0.76362 0.29171 0.0
H3858 H 0.49412 0.76691 0.28629 0.0
H3859 H 0.48462 0.75912 0.27837 0.0
H3860 H 0.56422 0.78028 0.27905 0.0
H3861 H 0.58007 0.78414 0.26712 0.0
H3862 H 0.57435 0.79696 0.26309 0.0
H3863 H 0.56747 0.78439 0.25967 0.0
H3864 H 0.54712 0.77755 0.28515 0.0
H3865 H 0.54361 0.80168 0.26029 0.0
H3866 H 0.51988 0.76804 0.28519 0.0
H3867 H 0.53352 0.76442 0.28903 0.0
H3868 H 0.52755 0.75938 0.27663 0.0
H3869 H 0.52855 0.80189 0.24844 0.0
H3870 H 0.51621 0.79812 0.25555 0.0
H3871 H 0.52201 0.78886 0.24616 0.0
H3872 H 0.55498 0.70828 0.22924 0.0
H3873 H 0.54211 0.71652 0.23838 0.0
H3874 H 0.54005 0.73467 0.20861 0.0
H3875 H 0.52493 0.73079 0.25375 0.0
H3876 H 0.52867 0.7169 0.25177 0.0
H3877 H 0.51545 0.72148 0.2476 0.0
H3878 H 0.52644 0.7475 0.20553 0.0
H3879 H 0.52087 0.75346 0.21762 0.0
H3880 H 0.51356 0.74273 0.21092 0.0
H3881 H 0.44728 0.73878 0.2118 0.0
H3882 H 0.43103 0.74118 0.22348 0.0
H3883 H 0.44351 0.74172 0.23112 0.0
H3884 H 0.43494 0.72971 0.23175 0.0
H3885 H 0.46344 0.71703 0.23607 0.0
H3886 H 0.46458 0.74154 0.21118 0.0
H3887 H 0.48415 0.72771 0.2524 0.0
H3888 H 0.49083 0.71863 0.24345 0.0
H3889 H 0.47758 0.715 0.24883 0.0
H3890 H 0.47926 0.75363 0.20894 0.0
H3891 H 0.49211 0.74856 0.21364 0.0
H3892 H 0.48477 0.75782 0.22186 0.0
H3893 H 0.50671 0.78652 0.27362 0.0
H3894 H 0.53273 0.76546 0.25431 0.0
H3895 H 0.5317 0.75048 0.24208 0.0
H3896 H 0.50268 0.72941 0.22595 0.0
H3897 H 0.47662 0.75099 0.24465 0.0
H3898 H 0.47766 0.76578 0.25715 0.0
H3899 H 0.57195 0.71726 0.23672 0.0
H3900 H 0.5604 0.72572 0.23849 0.0
H3901 H 0.56999 0.72877 0.2278 0.0
C3902 C 0.56299 0.23499 0.2949 0.0
C3903 C 0.55696 0.22438 0.2979 0.0
C3904 C 0.5415 0.22406 0.28512 0.0
C3905 C 0.53729 0.21919 0.27577 0.0
C3906 C 0.52745 0.22253 0.27117 0.0
C3907 C 0.5217 0.23101 0.27606 0.0
C3908 C 0.52585 0.23596 0.28556 0.0
C3909 C 0.53569 0.23243 0.29002 0.0
C3910 C 0.52322 0.21705 0.26106 0.0
C3911 C 0.5199 0.24501 0.29099 0.0
C3912 C 0.43987 0.21029 0.30374 0.0
C3913 C 0.44991 0.2165 0.30099 0.0
C3914 C 0.46337 0.21859 0.28654 0.0
C3915 C 0.46793 0.22831 0.29057 0.0
C3916 C 0.47702 0.23325 0.28557 0.0
C3917 C 0.48164 0.2284 0.27633 0.0
C3918 C 0.47698 0.21872 0.27215 0.0
C3919 C 0.46787 0.21396 0.2773 0.0
C3920 C 0.48175 0.24361 0.2902 0.0
C3921 C 0.48169 0.21338 0.26229 0.0
C3922 C 0.45963 0.27978 0.22814 0.0
C3923 C 0.46411 0.28309 0.23813 0.0
C3924 C 0.47399 0.27893 0.24185 0.0
C3925 C 0.47942 0.27116 0.23557 0.0
C3926 C 0.47495 0.26783 0.22552 0.0
C3927 C 0.46515 0.27224 0.22191 0.0
C3928 C 0.47862 0.28284 0.25251 0.0
C3929 C 0.48052 0.25955 0.21862 0.0
C3930 C 0.56362 0.28385 0.2358 0.0
C3931 C 0.55856 0.28261 0.22451 0.0
C3932 C 0.53909 0.28304 0.2274 0.0
C3933 C 0.53274 0.28832 0.23502 0.0
C3934 C 0.52306 0.28352 0.23895 0.0
C3935 C 0.51955 0.27333 0.23488 0.0
C3936 C 0.52569 0.26823 0.22673 0.0
C3937 C 0.53545 0.27312 0.22313 0.0
C3938 C 0.5167 0.28924 0.24758 0.0
C3939 C 0.52199 0.25757 0.2219 0.0
C3940 C 0.51131 0.2347 0.27127 0.0
C3941 C 0.50164 0.23 0.27516 0.0
C3942 C 0.49155 0.23331 0.27129 0.0
C3943 C 0.49103 0.24147 0.26318 0.0
C3944 C 0.48102 0.24495 0.25905 0.0
C3945 C 0.4806 0.25312 0.25122 0.0
C3946 C 0.49017 0.25816 0.24725 0.0
C3947 C 0.48983 0.26665 0.23948 0.0
C3948 C 0.49951 0.27132 0.23555 0.0
C3949 C 0.5096 0.2679 0.23932 0.0
C3950 C 0.51011 0.2596 0.24727 0.0
C3951 C 0.52012 0.25617 0.25148 0.0
C3952 C 0.52054 0.24799 0.25929 0.0
C3953 C 0.51097 0.24295 0.26325 0.0
C3954 C 0.50079 0.24632 0.25918 0.0
C3955 C 0.50036 0.25467 0.2512 0.0
C3956 C 0.4362 0.28317 0.23787 0.0
C3957 C 0.44266 0.28998 0.22954 0.0
O3958 O 0.55115 0.22047 0.28904 0.0
O3959 O 0.54864 0.28773 0.22423 0.0
O3960 O 0.45006 0.28356 0.22421 0.0
O3961 O 0.45472 0.21345 0.29134 0.0
H3962 H 0.55131 0.22586 0.30474 0.0
H3963 H 0.55717 0.24132 0.29253 0.0
H3964 H 0.5686 0.23373 0.28797 0.0
H3965 H 0.56776 0.23802 0.30196 0.0
H3966 H 0.54178 0.21274 0.27205 0.0
H3967 H 0.53874 0.23631 0.29728 0.0
H3968 H 0.51493 0.21364 0.26258 0.0
H3969 H 0.52854 0.21043 0.25836 0.0
H3970 H 0.52259 0.22311 0.25439 0.0
H3971 H 0.52436 0.24828 0.29814 0.0
H3972 H 0.51177 0.24201 0.29369 0.0
H3973 H 0.51862 0.25172 0.2851 0.0
H3974 H 0.45576 0.21775 0.30781 0.0
H3975 H 0.44182 0.2059 0.31156 0.0
H3976 H 0.43975 0.2027 0.29865 0.0
H3977 H 0.42684 0.22264 0.30244 0.0
H3978 H 0.46448 0.23209 0.29764 0.0
H3979 H 0.46428 0.2065 0.27421 0.0
H3980 H 0.49031 0.24234 0.29269 0.0
H3981 H 0.47713 0.24645 0.29734 0.0
H3982 H 0.4818 0.25008 0.28389 0.0
H3983 H 0.47695 0.20603 0.25985 0.0
H3984 H 0.4902 0.21106 0.26399 0.0
H3985 H 0.4819 0.21921 0.25537 0.0
H3986 H 0.44703 0.29673 0.23373 0.0
H3987 H 0.46002 0.28892 0.24309 0.0
H3988 H 0.46167 0.26974 0.21422 0.0
H3989 H 0.4786 0.27604 0.25846 0.0
H3990 H 0.47392 0.28957 0.25598 0.0
H3991 H 0.48719 0.28563 0.2514 0.0
H3992 H 0.47565 0.25728 0.21136 0.0
H3993 H 0.48205 0.25214 0.2235 0.0
H3994 H 0.48852 0.26287 0.21589 0.0
H3995 H 0.55744 0.27379 0.22291 0.0
H3996 H 0.57159 0.27979 0.23617 0.0
H3997 H 0.55818 0.28003 0.24199 0.0
H3998 H 0.56481 0.29256 0.23782 0.0
H3999 H 0.53557 0.29608 0.23813 0.0
H4000 H 0.54019 0.26924 0.21691 0.0
H4001 H 0.51525 0.28372 0.25462 0.0
H4002 H 0.50864 0.29147 0.24428 0.0
H4003 H 0.52094 0.29671 0.25046 0.0
H4004 H 0.52693 0.25534 0.21474 0.0
H4005 H 0.51332 0.25795 0.21942 0.0
H4006 H 0.52265 0.25105 0.2281 0.0
H4007 H 0.50196 0.22378 0.28143 0.0
H4008 H 0.4734 0.2414 0.26185 0.0
H4009 H 0.47267 0.25547 0.24835 0.0
H4010 H 0.49918 0.27781 0.22957 0.0
H4011 H 0.52775 0.25979 0.24879 0.0
H4012 H 0.52847 0.24569 0.26221 0.0
H4013 H 0.43023 0.28827 0.24211 0.0
H4014 H 0.44173 0.27974 0.24407 0.0
H4015 H 0.4318 0.27637 0.23381 0.0
H4016 H 0.17394 0.19558 0.11061 0.0
H4017 H 0.22048 0.2068 0.06655 0.0
H4018 H 0.19783 0.17189 0.10228 0.0
H4019 H 0.19238 0.22679 0.06998 0.0
H4020 H 0.21273 0.19413 0.08 0.0
H4021 H 0.18089 0.20732 0.09609 0.0
C4022 C 0.18057 0.19277 0.10567 0.0
C4023 C 0.18529 0.18269 0.10772 0.0
C4024 C 0.2082 0.20122 0.07772 0.0
C4025 C 0.19346 0.19626 0.09115 0.0
C4026 C 0.2126 0.20843 0.07001 0.0
C4027 C 0.20693 0.21773 0.06695 0.0
C4028 C 0.19816 0.20345 0.08258 0.0
C4029 C 0.1969 0.21961 0.07196 0.0
C4030 C 0.18459 0.19953 0.09741 0.0
C4031 C 0.19404 0.17965 0.10115 0.0
N4032 N 0.19286 0.21256 0.07953 0.0
N4033 N 0.19786 0.18642 0.0932 0.0
H4034 H 0.79583 0.18043 0.11143 0.0
H4035 H 0.80692 0.22517 0.06511 0.0
H4036 H 0.82799 0.19019 0.10071 0.0
H4037 H 0.77492 0.2144 0.07524 0.0
H4038 H 0.81486 0.212 0.07763 0.0
H4039 H 0.78807 0.19232 0.0977 0.0
C4040 C 0.80127 0.18498 0.10612 0.0
C4041 C 0.8126 0.18429 0.10725 0.0
C4042 C 0.8061 0.21245 0.07705 0.0
C4043 C 0.80373 0.1981 0.09157 0.0
C4044 C 0.80158 0.21993 0.06988 0.0
C4045 C 0.79024 0.22075 0.06902 0.0
C4046 C 0.79925 0.20581 0.0835 0.0
C4047 C 0.78369 0.21393 0.07555 0.0
C4048 C 0.79683 0.19184 0.09831 0.0
C4049 C 0.81922 0.19056 0.10024 0.0
N4050 N 0.78828 0.20676 0.08251 0.0
N4051 N 0.81469 0.19722 0.09272 0.0
H4052 H 0.8046 0.82651 0.11486 0.0
H4053 H 0.82237 0.78763 0.06652 0.0
H4054 H 0.83802 0.8211 0.10615 0.0
H4055 H 0.789 0.79416 0.07431 0.0
H4056 H 0.82828 0.8003 0.08064 0.0
H4057 H 0.79874 0.8152 0.09967 0.0
C4058 C 0.81072 0.82303 0.1097 0.0
C4059 C 0.82184 0.82477 0.11182 0.0
C4060 C 0.81966 0.79905 0.0792 0.0
C4061 C 0.81515 0.81165 0.09446 0.0
C4062 C 0.8163 0.79185 0.07112 0.0
C4063 C 0.80519 0.78997 0.06913 0.0
C4064 C 0.81186 0.80434 0.08545 0.0
C4065 C 0.79764 0.7955 0.07548 0.0
C4066 C 0.80736 0.81651 0.10106 0.0
C4067 C 0.82937 0.81987 0.10494 0.0
N4068 N 0.80112 0.80241 0.08336 0.0
N4069 N 0.82589 0.81353 0.0966 0.0
H4070 H 0.20333 0.83661 0.10066 0.0
H4071 H 0.19982 0.7794 0.0705 0.0
H4072 H 0.18127 0.81052 0.11003 0.0
H4073 H 0.22635 0.80238 0.06596 0.0
H4074 H 0.19175 0.7916 0.08365 0.0
H4075 H 0.21079 0.82502 0.08662 0.0
C4076 C 0.20006 0.82845 0.0998 0.0
C4077 C 0.19166 0.82455 0.1066 0.0
C4078 C 0.19929 0.79403 0.07972 0.0
C4079 C 0.20008 0.81129 0.0904 0.0
C4080 C 0.20386 0.78709 0.07218 0.0
C4081 C 0.21364 0.78999 0.06696 0.0
C4082 C 0.20455 0.80392 0.08213 0.0
C4083 C 0.21869 0.79993 0.06963 0.0
C4084 C 0.2043 0.82185 0.09174 0.0
C4085 C 0.18763 0.81396 0.10492 0.0
N4086 N 0.21406 0.80656 0.07701 0.0
N4087 N 0.19187 0.80771 0.09701 0.0
H4088 H 0.20062 0.8419 0.90342 0.0
H4089 H 0.20301 0.78687 0.93819 0.0
H4090 H 0.19218 0.81045 0.89039 0.0
H4091 H 0.21198 0.81835 0.9507 0.0
H4092 H 0.19957 0.79519 0.92042 0.0
H4093 H 0.20545 0.83327 0.92058 0.0
C4094 C 0.19987 0.83317 0.90412 0.0
C4095 C 0.19598 0.82691 0.89542 0.0
C4096 C 0.20238 0.80027 0.92702 0.0
C4097 C 0.20138 0.81695 0.91516 0.0
C4098 C 0.20439 0.79551 0.93714 0.0
C4099 C 0.20796 0.80192 0.94587 0.0
C4100 C 0.20385 0.81152 0.92565 0.0
C4101 C 0.20939 0.81311 0.94414 0.0
C4102 C 0.20258 0.82824 0.91396 0.0
C4103 C 0.195 0.81563 0.89691 0.0
N4104 N 0.20733 0.81755 0.93425 0.0
N4105 N 0.19767 0.81102 0.90659 0.0
H4106 H 0.17362 0.2071 0.89824 0.0
H4107 H 0.22859 0.2019 0.93261 0.0
H4108 H 0.19661 0.1815 0.89411 0.0
H4109 H 0.20598 0.2277 0.93716 0.0
H4110 H 0.21661 0.1941 0.9188 0.0
H4111 H 0.18487 0.21445 0.91294 0.0
C4112 C 0.18099 0.20298 0.90045 0.0
C4113 C 0.18418 0.19368 0.89486 0.0
C4114 C 0.21419 0.20141 0.92287 0.0
C4115 C 0.19718 0.20215 0.91162 0.0
C4116 C 0.22101 0.20584 0.93079 0.0
C4117 C 0.21816 0.21532 0.93622 0.0
C4118 C 0.20444 0.20655 0.92024 0.0
C4119 C 0.20838 0.22026 0.93333 0.0
C4120 C 0.18745 0.20722 0.90881 0.0
C4121 C 0.1939 0.18878 0.89803 0.0
N4122 N 0.20186 0.2158 0.92554 0.0
N4123 N 0.20004 0.19308 0.90616 0.0
H4124 H 0.81475 0.1788 0.90574 0.0
H4125 H 0.79721 0.23591 0.93004 0.0
H4126 H 0.82752 0.20978 0.89461 0.0
H4127 H 0.78305 0.2053 0.94042 0.0
H4128 H 0.80903 0.22629 0.91761 0.0
H4129 H 0.80363 0.18817 0.91904 0.0
C4130 C 0.81521 0.18757 0.90608 0.0
C4131 C 0.8221 0.1935 0.89904 0.0
C4132 C 0.8034 0.22165 0.92265 0.0
C4133 C 0.80945 0.20427 0.91429 0.0
C4134 C 0.79668 0.22714 0.92976 0.0
C4135 C 0.78927 0.22138 0.93637 0.0
C4136 C 0.80265 0.21029 0.92205 0.0
C4137 C 0.78877 0.21003 0.93556 0.0
C4138 C 0.80889 0.1929 0.91371 0.0
C4139 C 0.82246 0.20484 0.89996 0.0
N4140 N 0.79538 0.20485 0.92853 0.0
N4141 N 0.81622 0.20984 0.90741 0.0
H4142 H 0.83096 0.80628 0.89244 0.0
H4143 H 0.78736 0.79795 0.93994 0.0
H4144 H 0.80738 0.83033 0.90065 0.0
H4145 H 0.8154 0.77791 0.93629 0.0
H4146 H 0.7941 0.80959 0.92513 0.0
H4147 H 0.825 0.79547 0.90809 0.0
C4148 C 0.82459 0.80935 0.89757 0.0
C4149 C 0.81967 0.81926 0.89517 0.0
C4150 C 0.79885 0.80271 0.92765 0.0
C4151 C 0.81266 0.80678 0.91304 0.0
C4152 C 0.79502 0.7961 0.93613 0.0
C4153 C 0.80098 0.7871 0.93953 0.0
C4154 C 0.80858 0.80019 0.92236 0.0
C4155 C 0.81068 0.78489 0.93406 0.0
C4156 C 0.82115 0.80313 0.90648 0.0
C4157 C 0.81131 0.82268 0.90203 0.0
N4158 N 0.81417 0.79137 0.92575 0.0
N4159 N 0.80805 0.81643 0.91062 0.0
H4160 H 0.10782 0.17658 0.19633 0.0
H4161 H 0.06448 0.22277 0.2062 0.0
H4162 H 0.09965 0.20041 0.17196 0.0
H4163 H 0.06766 0.19481 0.22709 0.0
H4164 H 0.07774 0.21509 0.19377 0.0
H4165 H 0.09346 0.18342 0.20789 0.0
C4166 C 0.10295 0.18318 0.19334 0.0
C4167 C 0.105 0.18791 0.18311 0.0
C4168 C 0.07544 0.21058 0.20101 0.0
C4169 C 0.08863 0.19594 0.19647 0.0
C4170 C 0.06785 0.21494 0.20808 0.0
C4171 C 0.06477 0.20929 0.21757 0.0
C4172 C 0.08017 0.2006 0.20354 0.0
C4173 C 0.06965 0.19932 0.21977 0.0
C4174 C 0.09478 0.18713 0.19999 0.0
C4175 C 0.09852 0.1966 0.17983 0.0
N4176 N 0.07712 0.19531 0.21283 0.0
N4177 N 0.09067 0.20036 0.1865 0.0
H4178 H 0.82968 0.11542 0.20746 0.0
H4179 H 0.78375 0.06888 0.20149 0.0
H4180 H 0.8163 0.10544 0.17661 0.0
H4181 H 0.79775 0.07876 0.23205 0.0
H4182 H 0.796 0.08174 0.19209 0.0
H4183 H 0.81854 0.1015 0.21646 0.0
C4184 C 0.82448 0.11023 0.20255 0.0
C4185 C 0.82396 0.11162 0.19124 0.0
C4186 C 0.79646 0.08104 0.20084 0.0
C4187 C 0.81099 0.09571 0.20157 0.0
C4188 C 0.7895 0.07368 0.2062 0.0
C4189 C 0.78986 0.07265 0.21755 0.0
C4190 C 0.80376 0.08749 0.2069 0.0
C4191 C 0.79731 0.07921 0.22328 0.0
C4192 C 0.81805 0.10231 0.20772 0.0
C4193 C 0.81688 0.10476 0.18536 0.0
N4194 N 0.80395 0.08634 0.2179 0.0
N4195 N 0.81067 0.09712 0.19059 0.0
H4196 H 0.89924 0.80159 0.182 0.0
H4197 H 0.94592 0.81513 0.22548 0.0
H4198 H 0.9072 0.83397 0.19289 0.0
H4199 H 0.93853 0.78289 0.21399 0.0
H4200 H 0.93217 0.82226 0.21314 0.0
H4201 H 0.91401 0.79468 0.19314 0.0
C4202 C 0.90414 0.80727 0.18666 0.0
C4203 C 0.90194 0.8184 0.18649 0.0
C4204 C 0.93361 0.81364 0.21323 0.0
C4205 C 0.91882 0.81048 0.19941 0.0
C4206 C 0.94149 0.80957 0.22024 0.0
C4207 C 0.9435 0.79843 0.22062 0.0
C4208 C 0.92759 0.80649 0.20662 0.0
C4209 C 0.93736 0.79155 0.21382 0.0
C4210 C 0.91255 0.8033 0.19307 0.0
C4211 C 0.90848 0.82532 0.19286 0.0
N4212 N 0.92968 0.7957 0.20711 0.0
N4213 N 0.9166 0.82125 0.19907 0.0
H4214 H 0.18781 0.90176 0.17635 0.0
H4215 H 0.20477 0.92939 0.23273 0.0
H4216 H 0.17555 0.89125 0.20761 0.0
H4217 H 0.21904 0.93864 0.20199 0.0
H4218 H 0.19322 0.91604 0.22343 0.0
H4219 H 0.19865 0.91591 0.18536 0.0
C4220 C 0.18741 0.90241 0.18511 0.0
C4221 C 0.18075 0.89529 0.19122 0.0
C4222 C 0.19882 0.92104 0.21869 0.0
C4223 C 0.19306 0.91154 0.20158 0.0
C4224 C 0.20537 0.92868 0.224 0.0
C4225 C 0.21273 0.93525 0.2181 0.0
C4226 C 0.19967 0.91986 0.20739 0.0
C4227 C 0.21335 0.93385 0.20681 0.0
C4228 C 0.19356 0.91053 0.19024 0.0
C4229 C 0.18043 0.89663 0.20253 0.0
N4230 N 0.20689 0.92631 0.20182 0.0
N4231 N 0.18651 0.90457 0.20733 0.0
H4232 H 0.11951 0.81892 0.80646 0.0
H4233 H 0.05742 0.79933 0.81361 0.0
H4234 H 0.10457 0.81164 0.83744 0.0
H4235 H 0.07163 0.80807 0.7827 0.0
H4236 H 0.07499 0.80279 0.82233 0.0
H4237 H 0.10238 0.81411 0.79747 0.0
C4238 C 0.11263 0.81633 0.81138 0.0
C4239 C 0.11349 0.81572 0.82274 0.0
C4240 C 0.07431 0.80387 0.81363 0.0
C4241 C 0.09387 0.8101 0.81247 0.0
C4242 C 0.0643 0.80185 0.80865 0.0
C4243 C 0.06313 0.80324 0.7974 0.0
C4244 C 0.08323 0.80742 0.80734 0.0
C4245 C 0.07224 0.80674 0.79137 0.0
C4246 C 0.10286 0.81353 0.80623 0.0
C4247 C 0.10434 0.81212 0.82867 0.0
N4248 N 0.08191 0.80871 0.79642 0.0
N4249 N 0.09492 0.80949 0.82347 0.0
H4250 H 0.19749 0.10144 0.84306 0.0
H4251 H 0.20265 0.0645 0.79015 0.0
H4252 H 0.18621 0.11141 0.81141 0.0
H4253 H 0.21507 0.05584 0.82171 0.0
H4254 H 0.19663 0.08178 0.79757 0.0
H4255 H 0.20401 0.08473 0.83521 0.0
C4256 C 0.19645 0.10016 0.83443 0.0
C4257 C 0.19134 0.1079 0.82788 0.0
C4258 C 0.20076 0.07614 0.80284 0.0
C4259 C 0.1987 0.08863 0.81882 0.0
C4260 C 0.20423 0.06632 0.7986 0.0
C4261 C 0.20956 0.05883 0.80529 0.0
C4262 C 0.20251 0.07843 0.81388 0.0
C4263 C 0.21117 0.06146 0.81624 0.0
C4264 C 0.20013 0.09057 0.82995 0.0
C4265 C 0.19001 0.10564 0.81679 0.0
N4266 N 0.20767 0.07102 0.82018 0.0
N4267 N 0.19368 0.09622 0.8126 0.0
H4268 H 0.88414 0.18669 0.80283 0.0
H4269 H 0.94245 0.21513 0.80972 0.0
H4270 H 0.90565 0.17894 0.82931 0.0
H4271 H 0.9249 0.21453 0.7794 0.0
H4272 H 0.92872 0.20274 0.81759 0.0
H4273 H 0.89858 0.19792 0.79466 0.0
C4274 C 0.89191 0.18738 0.80693 0.0
C4275 C 0.8937 0.18192 0.81677 0.0
C4276 C 0.92795 0.20522 0.80917 0.0
C4277 C 0.91027 0.19475 0.80748 0.0
C4278 C 0.9358 0.21226 0.80467 0.0
C4279 C 0.93494 0.21565 0.7938 0.0
C4280 C 0.91905 0.20178 0.80285 0.0
C4281 C 0.92596 0.21194 0.78774 0.0
C4282 C 0.90017 0.19373 0.80223 0.0
C4283 C 0.90397 0.18297 0.82167 0.0
N4284 N 0.91836 0.20524 0.79235 0.0
N4285 N 0.91186 0.18934 0.81701 0.0
H4286 H 0.81208 0.8943 0.82995 0.0
H4287 H 0.80549 0.94623 0.7917 0.0
H4288 H 0.83121 0.89971 0.80096 0.0
H4289 H 0.7816 0.93607 0.81549 0.0
H4290 H 0.8156 0.92974 0.79546 0.0
H4291 H 0.80135 0.91005 0.82527 0.0
C4292 C 0.81399 0.89872 0.82255 0.0
C4293 C 0.82259 0.89561 0.81584 0.0
C4294 C 0.80808 0.93106 0.79977 0.0
C4295 C 0.81041 0.91385 0.81054 0.0
C4296 C 0.80228 0.94044 0.79759 0.0
C4297 C 0.79253 0.94238 0.8031 0.0
C4298 C 0.80424 0.92368 0.80768 0.0
C4299 C 0.78896 0.93477 0.81091 0.0
C4300 C 0.80787 0.90776 0.81991 0.0
C4301 C 0.82478 0.90186 0.80648 0.0
N4302 N 0.79481 0.92577 0.81298 0.0
N4303 N 0.81876 0.91069 0.80413 0.0
H4304 H 0.19175 0.11017 0.17622 0.0
H4305 H 0.20292 0.06617 0.22252 0.0
H4306 H 0.16821 0.10145 0.20092 0.0
H4307 H 0.22268 0.06993 0.19379 0.0
H4308 H 0.19033 0.07944 0.21511 0.0
H4309 H 0.20337 0.09577 0.1828 0.0
C4310 C 0.18895 0.10517 0.18295 0.0
C4311 C 0.17894 0.10707 0.18801 0.0
C4312 C 0.19735 0.07727 0.21037 0.0
C4313 C 0.19239 0.09065 0.19574 0.0
C4314 C 0.20451 0.06967 0.21457 0.0
C4315 C 0.21373 0.06676 0.20863 0.0
C4316 C 0.19953 0.08217 0.20025 0.0
C4317 C 0.21557 0.0718 0.19853 0.0
C4318 C 0.19564 0.09697 0.18675 0.0
C4319 C 0.17591 0.10043 0.19686 0.0
N4320 N 0.20855 0.07927 0.19467 0.0
N4321 N 0.18262 0.09255 0.20047 0.0
H4322 H 0.20071 0.89254 0.80986 0.0
H4323 H 0.18724 0.94619 0.76662 0.0
H4324 H 0.16871 0.90236 0.79988 0.0
H4325 H 0.2252 0.93673 0.78135 0.0
H4326 H 0.17931 0.92805 0.77944 0.0
H4327 H 0.20853 0.90828 0.80014 0.0
C4328 C 0.19532 0.89805 0.80573 0.0
C4329 C 0.18403 0.89604 0.80559 0.0
C4330 C 0.18789 0.93015 0.77933 0.0
C4331 C 0.19293 0.91391 0.7944 0.0
C4332 C 0.19274 0.94085 0.77081 0.0
C4333 C 0.2071 0.94464 0.77385 0.0
C4334 C 0.19724 0.92296 0.78772 0.0
C4335 C 0.21664 0.93492 0.78019 0.0
C4336 C 0.1998 0.90699 0.80015 0.0
C4337 C 0.17747 0.90342 0.80002 0.0
N4338 N 0.21036 0.92553 0.78733 0.0
N4339 N 0.18202 0.91198 0.7946 0.0
H4340 H 0.10215 0.17112 0.80469 0.0
H4341 H 0.06992 0.22603 0.81357 0.0
H4342 H 0.11099 0.19503 0.82875 0.0
H4343 H 0.06634 0.20643 0.78489 0.0
H4344 H 0.08351 0.21352 0.82046 0.0
H4345 H 0.08759 0.18282 0.79844 0.0
C4346 C 0.10108 0.17883 0.80866 0.0
C4347 C 0.10788 0.18208 0.81726 0.0
C4348 C 0.07969 0.2119 0.8127 0.0
C4349 C 0.09108 0.19543 0.81023 0.0
C4350 C 0.07189 0.21899 0.8088 0.0
C4351 C 0.06683 0.21714 0.79876 0.0
C4352 C 0.0825 0.20288 0.80649 0.0
C4353 C 0.06988 0.20805 0.79278 0.0
C4354 C 0.09272 0.18548 0.80511 0.0
C4355 C 0.1059 0.19207 0.8222 0.0
N4356 N 0.07749 0.20123 0.79675 0.0
N4357 N 0.0977 0.19838 0.81861 0.0
H4358 H 0.82702 0.10999 0.8158 0.0
H4359 H 0.78021 0.06618 0.80308 0.0
H4360 H 0.80237 0.10053 0.83916 0.0
H4361 H 0.80917 0.07026 0.78364 0.0
H4362 H 0.78775 0.0792 0.81614 0.0
H4363 H 0.82027 0.09584 0.8037 0.0
C4364 C 0.82027 0.10487 0.81847 0.0
C4365 C 0.81528 0.10649 0.82857 0.0
C4366 C 0.79251 0.07715 0.80908 0.0
C4367 C 0.80734 0.09037 0.81457 0.0
C4368 C 0.78823 0.0697 0.80165 0.0
C4369 C 0.7942 0.06695 0.79239 0.0
C4370 C 0.80273 0.08206 0.80712 0.0
C4371 C 0.8044 0.07201 0.79077 0.0
C4372 C 0.81637 0.09682 0.8115 0.0
C4373 C 0.80639 0.09972 0.83141 0.0
N4374 N 0.80833 0.07933 0.79805 0.0
N4375 N 0.80267 0.092 0.82443 0.0
H4376 H 0.90409 0.8036 0.8276 0.0
H4377 H 0.94182 0.81854 0.77655 0.0
H4378 H 0.90026 0.8324 0.80794 0.0
H4379 H 0.95047 0.79493 0.80088 0.0
H4380 H 0.92536 0.82243 0.78685 0.0
H4381 H 0.92007 0.79912 0.8169 0.0
C4382 C 0.90662 0.80903 0.82109 0.0
C4383 C 0.90079 0.81843 0.81872 0.0
C4384 C 0.93081 0.81633 0.78989 0.0
C4385 C 0.91899 0.81319 0.80629 0.0
C4386 C 0.94015 0.81406 0.78398 0.0
C4387 C 0.94739 0.80623 0.78772 0.0
C4388 C 0.92869 0.81075 0.79966 0.0
C4389 C 0.945 0.80086 0.79756 0.0
C4390 C 0.91572 0.80641 0.81494 0.0
C4391 C 0.90436 0.82499 0.81 0.0
N4392 N 0.93583 0.80319 0.80317 0.0
N4393 N 0.91321 0.82224 0.80411 0.0
H4394 H 0.83999 0.90512 0.20542 0.0
H4395 H 0.78147 0.93222 0.20802 0.0
H4396 H 0.81205 0.89393 0.18713 0.0
H4397 H 0.80898 0.94363 0.22674 0.0
H4398 H 0.79286 0.91857 0.1998 0.0
H4399 H 0.82915 0.91978 0.2127 0.0
C4400 C 0.83161 0.90577 0.20286 0.0
C4401 C 0.82693 0.89822 0.19567 0.0
C4402 C 0.79647 0.92411 0.20562 0.0
C4403 C 0.81443 0.91493 0.2041 0.0
C4404 C 0.78997 0.93194 0.21028 0.0
C4405 C 0.79434 0.93922 0.21789 0.0
C4406 C 0.80744 0.92345 0.20866 0.0
C4407 C 0.80534 0.9383 0.22074 0.0
C4408 C 0.82541 0.91412 0.20708 0.0
C4409 C 0.81597 0.89943 0.19278 0.0
N4410 N 0.81152 0.93057 0.21612 0.0
N4411 N 0.81011 0.90759 0.19701 0.0
H4412 H 0.10472 0.82478 0.18611 0.0
H4413 H 0.07618 0.76768 0.20118 0.0
H4414 H 0.11323 0.79436 0.17161 0.0
H4415 H 0.07009 0.79714 0.21855 0.0
H4416 H 0.08888 0.77769 0.1894 0.0
H4417 H 0.09116 0.81515 0.19727 0.0
C4418 C 0.10376 0.81608 0.18527 0.0
C4419 C 0.11016 0.81039 0.17789 0.0
C4420 C 0.08471 0.782 0.19573 0.0
C4421 C 0.09456 0.79933 0.19058 0.0
C4422 C 0.07743 0.7763 0.20242 0.0
C4423 C 0.07191 0.78163 0.21071 0.0
C4424 C 0.08659 0.79314 0.19737 0.0
C4425 C 0.07403 0.79277 0.21213 0.0
C4426 C 0.09598 0.8106 0.19162 0.0
C4427 C 0.1084 0.79914 0.17705 0.0
N4428 N 0.08118 0.79816 0.20551 0.0
N4429 N 0.1008 0.794 0.18333 0.0
H4430 H 0.89169 0.21135 0.17436 0.0
H4431 H 0.93691 0.20186 0.22002 0.0
H4432 H 0.90138 0.1796 0.18513 0.0
H4433 H 0.92845 0.23334 0.20761 0.0
H4434 H 0.92428 0.19346 0.20703 0.0
H4435 H 0.90553 0.21947 0.1861 0.0
C4436 C 0.89681 0.20606 0.1791 0.0
C4437 C 0.89535 0.19476 0.17874 0.0
C4438 C 0.92526 0.2022 0.20707 0.0
C4439 C 0.91114 0.20405 0.19239 0.0
C4440 C 0.93249 0.20698 0.21446 0.0
C4441 C 0.93385 0.2183 0.21475 0.0
C4442 C 0.91925 0.20879 0.20002 0.0
C4443 C 0.92775 0.22458 0.20754 0.0
C4444 C 0.90468 0.21072 0.18587 0.0
C4445 C 0.9021 0.18836 0.18525 0.0
N4446 N 0.92072 0.21975 0.20048 0.0
N4447 N 0.90968 0.19309 0.19182 0.0
H4448 H 0.17606 0.68292 0.60555 0.0
H4449 H 0.2272 0.71102 0.57554 0.0
H4450 H 0.20937 0.67749 0.61478 0.0
H4451 H 0.19388 0.71868 0.56855 0.0
H4452 H 0.22087 0.69755 0.58894 0.0
H4453 H 0.18247 0.69495 0.59098 0.0
C4454 C 0.18472 0.68427 0.60453 0.0
C4455 C 0.19217 0.67923 0.61147 0.0
C4456 C 0.21493 0.70211 0.58441 0.0
C4457 C 0.19959 0.69294 0.5947 0.0
C4458 C 0.21855 0.70976 0.57674 0.0
C4459 C 0.21104 0.71587 0.57082 0.0
C4460 C 0.20373 0.7006 0.58624 0.0
C4461 C 0.19993 0.71406 0.57284 0.0
C4462 C 0.18838 0.6911 0.59617 0.0
C4463 C 0.20332 0.68111 0.60959 0.0
N4464 N 0.19661 0.7066 0.58037 0.0
N4465 N 0.20668 0.68785 0.60143 0.0
H4466 H 0.80736 0.67098 0.60028 0.0
H4467 H 0.81277 0.7287 0.57046 0.0
H4468 H 0.83056 0.69601 0.60952 0.0
H4469 H 0.78525 0.70694 0.56616 0.0
H4470 H 0.82051 0.71589 0.58343 0.0
H4471 H 0.80015 0.6832 0.58644 0.0
C4472 C 0.81094 0.67904 0.59943 0.0
C4473 C 0.81959 0.68245 0.60612 0.0
C4474 C 0.81282 0.71387 0.57959 0.0
C4475 C 0.81146 0.69641 0.59017 0.0
C4476 C 0.80844 0.72115 0.57216 0.0
C4477 C 0.79848 0.71878 0.56706 0.0
C4478 C 0.80718 0.70414 0.58202 0.0
C4479 C 0.79306 0.70899 0.56974 0.0
C4480 C 0.80684 0.68599 0.59149 0.0
C4481 C 0.824 0.69293 0.60447 0.0
N4482 N 0.79749 0.70201 0.57701 0.0
N4483 N 0.81989 0.69952 0.59668 0.0
H4484 H 0.79595 0.33408 0.61292 0.0
H4485 H 0.80683 0.30033 0.5588 0.0
H4486 H 0.82742 0.32174 0.60463 0.0
H4487 H 0.77671 0.31596 0.56608 0.0
H4488 H 0.81415 0.30644 0.57633 0.0
H4489 H 0.78842 0.32592 0.59654 0.0
C4490 C 0.8013 0.32968 0.60764 0.0
C4491 C 0.81238 0.32872 0.61012 0.0
C4492 C 0.8059 0.30843 0.57413 0.0
C4493 C 0.80373 0.31919 0.59133 0.0
C4494 C 0.80172 0.3049 0.56417 0.0
C4495 C 0.79111 0.30754 0.56105 0.0
C4496 C 0.79944 0.31467 0.58099 0.0
C4497 C 0.78488 0.31364 0.56821 0.0
C4498 C 0.79697 0.32496 0.5983 0.0
C4499 C 0.81883 0.32266 0.60308 0.0
N4500 N 0.78914 0.317 0.57782 0.0
N4501 N 0.81443 0.31818 0.59397 0.0
H4502 H 0.20504 0.33351 0.60602 0.0
H4503 H 0.19955 0.277 0.57483 0.0
H4504 H 0.18342 0.3073 0.61608 0.0
H4505 H 0.22598 0.2999 0.5694 0.0
H4506 H 0.19246 0.28882 0.5889 0.0
H4507 H 0.21186 0.32206 0.59153 0.0
C4508 C 0.20175 0.32535 0.60523 0.0
C4509 C 0.19363 0.32139 0.61232 0.0
C4510 C 0.19977 0.29131 0.58458 0.0
C4511 C 0.20131 0.3083 0.59562 0.0
C4512 C 0.20377 0.28459 0.57652 0.0
C4513 C 0.21321 0.28759 0.57077 0.0
C4514 C 0.20526 0.30109 0.58696 0.0
C4515 C 0.21855 0.29739 0.57347 0.0
C4516 C 0.20562 0.31884 0.59691 0.0
C4517 C 0.18955 0.31079 0.61073 0.0
N4518 N 0.21447 0.30381 0.58134 0.0
N4519 N 0.19343 0.30464 0.60256 0.0
H4520 H 0.18302 0.31248 0.39509 0.0
H4521 H 0.20598 0.31966 0.45557 0.0
H4522 H 0.1917 0.34336 0.40925 0.0
H4523 H 0.1968 0.28867 0.44205 0.0
H4524 H 0.20141 0.32837 0.43833 0.0
H4525 H 0.18845 0.30349 0.41195 0.0
C4526 C 0.18603 0.31738 0.40175 0.0
C4527 C 0.18691 0.32871 0.40073 0.0
C4528 C 0.20047 0.31965 0.43908 0.0
C4529 C 0.19323 0.31845 0.42003 0.0
C4530 C 0.20312 0.31468 0.44891 0.0
C4531 C 0.20193 0.30342 0.45017 0.0
C4532 C 0.19648 0.31333 0.43045 0.0
C4533 C 0.19798 0.29736 0.44134 0.0
C4534 C 0.18919 0.31223 0.41135 0.0
C4535 C 0.19102 0.33461 0.40959 0.0
N4536 N 0.19539 0.30239 0.43186 0.0
N4537 N 0.194 0.32942 0.41885 0.0
H4538 H 0.19509 0.67371 0.40223 0.0
H4539 H 0.21167 0.72405 0.44002 0.0
H4540 H 0.18131 0.70544 0.39885 0.0
H4541 H 0.22645 0.69273 0.44218 0.0
H4542 H 0.19966 0.71713 0.42566 0.0
H4543 H 0.20595 0.6803 0.4175 0.0
C4544 C 0.19436 0.68208 0.40467 0.0
C4545 C 0.18729 0.68903 0.39919 0.0
C4546 C 0.20546 0.71174 0.42935 0.0
C4547 C 0.19965 0.69662 0.4168 0.0
C4548 C 0.21227 0.71567 0.43758 0.0
C4549 C 0.21993 0.70889 0.44244 0.0
C4550 C 0.20638 0.70097 0.42587 0.0
C4551 C 0.22054 0.69817 0.43878 0.0
C4552 C 0.20053 0.68582 0.41344 0.0
C4553 C 0.18655 0.69974 0.40288 0.0
N4554 N 0.21387 0.69455 0.43072 0.0
N4555 N 0.19268 0.70321 0.41142 0.0
H4556 H 0.82324 0.70969 0.38991 0.0
H4557 H 0.80666 0.69551 0.45132 0.0
H4558 H 0.82814 0.67848 0.40495 0.0
H4559 H 0.80841 0.72814 0.43858 0.0
H4560 H 0.81253 0.68875 0.43369 0.0
H4561 H 0.8157 0.7162 0.40699 0.0
C4562 C 0.82265 0.70418 0.39678 0.0
C4563 C 0.82636 0.69353 0.39602 0.0
C4564 C 0.81153 0.69738 0.43471 0.0
C4565 C 0.8178 0.70095 0.41559 0.0
C4566 C 0.80813 0.70123 0.44474 0.0
C4567 C 0.80683 0.71237 0.44634 0.0
C4568 C 0.81371 0.70474 0.4262 0.0
C4569 C 0.80909 0.71947 0.43763 0.0
C4570 C 0.81841 0.70793 0.40654 0.0
C4571 C 0.8255 0.68679 0.40522 0.0
N4572 N 0.81239 0.71553 0.42792 0.0
N4573 N 0.82131 0.6906 0.41461 0.0
H4574 H 0.7993 0.31287 0.39178 0.0
H4575 H 0.82278 0.27028 0.44245 0.0
H4576 H 0.83316 0.30668 0.39799 0.0
H4577 H 0.78255 0.27856 0.43471 0.0
H4578 H 0.82765 0.28421 0.42408 0.0
H4579 H 0.79436 0.30085 0.40695 0.0
C4580 C 0.80571 0.30905 0.39636 0.0
C4581 C 0.81668 0.3108 0.39356 0.0
C4582 C 0.81932 0.28266 0.42652 0.0
C4583 C 0.81104 0.29694 0.41083 0.0
C4584 C 0.81641 0.27348 0.43737 0.0
C4585 C 0.802 0.27415 0.4418 0.0
C4586 C 0.8084 0.28939 0.41982 0.0
C4587 C 0.79106 0.27881 0.43253 0.0
C4588 C 0.80286 0.30214 0.40498 0.0
C4589 C 0.8246 0.30547 0.39972 0.0
N4590 N 0.79566 0.28685 0.42296 0.0
N4591 N 0.82162 0.29878 0.40806 0.0
H4592 H 0.10746 0.69959 0.67266 0.0
H4593 H 0.07363 0.69484 0.72801 0.0
H4594 H 0.11477 0.67688 0.69836 0.0
H4595 H 0.07187 0.72229 0.70626 0.0
H4596 H 0.08726 0.68692 0.71617 0.0
H4597 H 0.09299 0.70687 0.68386 0.0
C4598 C 0.10607 0.69614 0.68066 0.0
C4599 C 0.11242 0.68762 0.68456 0.0
C4600 C 0.08383 0.69463 0.71393 0.0
C4601 C 0.0957 0.69583 0.69736 0.0
C4602 C 0.07601 0.69911 0.72065 0.0
C4603 C 0.07143 0.70911 0.718 0.0
C4604 C 0.08714 0.7002 0.70448 0.0
C4605 C 0.07501 0.71446 0.7085 0.0
C4606 C 0.09776 0.70028 0.68703 0.0
C4607 C 0.11003 0.68335 0.69492 0.0
N4608 N 0.08262 0.70991 0.70207 0.0
N4609 N 0.10188 0.6875 0.70095 0.0
H4610 H 0.81717 0.61414 0.68736 0.0
H4611 H 0.82497 0.56054 0.72317 0.0
H4612 H 0.84832 0.59997 0.69384 0.0
H4613 H 0.79357 0.573 0.71473 0.0
H4614 H 0.83359 0.57454 0.71178 0.0
H4615 H 0.80827 0.59873 0.69655 0.0
C4616 C 0.82214 0.60774 0.69061 0.0
C4617 C 0.83353 0.60841 0.68989 0.0
C4618 C 0.82481 0.57416 0.71232 0.0
C4619 C 0.82339 0.5908 0.70055 0.0
C4620 C 0.81989 0.56615 0.7188 0.0
C4621 C 0.80854 0.56554 0.7198 0.0
C4622 C 0.81835 0.58174 0.70689 0.0
C4623 C 0.80235 0.57313 0.71408 0.0
C4624 C 0.81705 0.59897 0.6959 0.0
C4625 C 0.83954 0.59991 0.69437 0.0
N4626 N 0.80733 0.58095 0.70791 0.0
N4627 N 0.8344 0.59151 0.69955 0.0
H4628 H 0.90542 0.31126 0.6664 0.0
H4629 H 0.93917 0.30521 0.7217 0.0
H4630 H 0.89304 0.3208 0.6976 0.0
H4631 H 0.95044 0.29463 0.69047 0.0
H4632 H 0.92206 0.3107 0.71325 0.0
H4633 H 0.92182 0.30487 0.67526 0.0
C4634 C 0.9061 0.31194 0.67513 0.0
C4635 C 0.89778 0.31655 0.68125 0.0
C4636 C 0.92824 0.30708 0.70826 0.0
C4637 C 0.9167 0.30934 0.69148 0.0
C4638 C 0.93796 0.3039 0.7131 0.0
C4639 C 0.94614 0.29927 0.70681 0.0
C4640 C 0.92673 0.30573 0.69704 0.0
C4641 C 0.94428 0.298 0.69564 0.0
C4642 C 0.91552 0.30834 0.68019 0.0
C4643 C 0.89927 0.31741 0.69253 0.0
N4644 N 0.93479 0.30121 0.69113 0.0
N4645 N 0.90854 0.31384 0.69728 0.0
H4646 H 0.19568 0.39043 0.69319 0.0
H4647 H 0.18582 0.44403 0.72762 0.0
H4648 H 0.16403 0.40366 0.69902 0.0
H4649 H 0.21772 0.43268 0.71963 0.0
H4650 H 0.17777 0.42963 0.71653 0.0
H4651 H 0.20402 0.40621 0.70206 0.0
C4652 C 0.19048 0.3967 0.69623 0.0
C4653 C 0.17912 0.39566 0.69544 0.0
C4654 C 0.18654 0.43033 0.7171 0.0
C4655 C 0.18861 0.41368 0.70573 0.0
C4656 C 0.19113 0.43857 0.72341 0.0
C4657 C 0.20246 0.43961 0.72445 0.0
C4658 C 0.1933 0.42296 0.71188 0.0
C4659 C 0.20896 0.43221 0.71895 0.0
C4660 C 0.19525 0.40568 0.70135 0.0
C4661 C 0.17281 0.404 0.69964 0.0
N4662 N 0.20428 0.42417 0.71294 0.0
N4663 N 0.17763 0.41261 0.70464 0.0
H4664 H 0.0998 0.33699 0.32082 0.0
H4665 H 0.07004 0.28661 0.29176 0.0
H4666 H 0.10935 0.30377 0.32514 0.0
H4667 H 0.06134 0.31989 0.28633 0.0
H4668 H 0.08388 0.29268 0.30477 0.0
H4669 H 0.08511 0.33084 0.30886 0.0
C4670 C 0.09883 0.3284 0.31924 0.0
C4671 C 0.10586 0.32089 0.32397 0.0
C4672 C 0.0789 0.29866 0.3008 0.0
C4673 C 0.08898 0.31378 0.31033 0.0
C4674 C 0.07097 0.29519 0.29341 0.0
C4675 C 0.06442 0.30275 0.2881 0.0
C4676 C 0.08036 0.30978 0.30283 0.0
C4677 C 0.06612 0.31379 0.29037 0.0
C4678 C 0.0904 0.32489 0.31245 0.0
C4679 C 0.10407 0.30985 0.32177 0.0
N4680 N 0.07392 0.31697 0.29756 0.0
N4681 N 0.09584 0.30664 0.31509 0.0
H4682 H 0.1804 0.60997 0.31144 0.0
H4683 H 0.23002 0.57267 0.29428 0.0
H4684 H 0.21214 0.61201 0.32633 0.0
H4685 H 0.1985 0.57135 0.27898 0.0
H4686 H 0.22347 0.58659 0.3066 0.0
H4687 H 0.18675 0.59545 0.29986 0.0
C4688 C 0.18872 0.60741 0.31226 0.0
C4689 C 0.19574 0.61228 0.31987 0.0
C4690 C 0.21795 0.5832 0.30061 0.0
C4691 C 0.20306 0.5955 0.30669 0.0
C4692 C 0.22168 0.57522 0.29362 0.0
C4693 C 0.21472 0.57069 0.28574 0.0
C4694 C 0.20722 0.58678 0.29964 0.0
C4695 C 0.20406 0.57449 0.28506 0.0
C4696 C 0.19233 0.59906 0.30568 0.0
C4697 C 0.20639 0.60843 0.32068 0.0
N4698 N 0.20064 0.5823 0.29191 0.0
N4699 N 0.20972 0.6003 0.31416 0.0
H4700 H 0.89268 0.70182 0.32504 0.0
H4701 H 0.93948 0.71692 0.27442 0.0
H4702 H 0.89753 0.68194 0.29679 0.0
H4703 H 0.93674 0.73607 0.31141 0.0
H4704 H 0.92136 0.70353 0.28187 0.0
H4705 H 0.90753 0.71378 0.31899 0.0
C4706 C 0.89691 0.69989 0.31761 0.0
C4707 C 0.89382 0.69079 0.31145 0.0
C4708 C 0.92465 0.70992 0.28693 0.0
C4709 C 0.9107 0.70465 0.30437 0.0
C4710 C 0.93534 0.71854 0.28196 0.0
C4711 C 0.94137 0.72707 0.29294 0.0
C4712 C 0.91952 0.71187 0.30036 0.0
C4713 C 0.93359 0.73061 0.30528 0.0
C4714 C 0.90535 0.70679 0.31413 0.0
C4715 C 0.89949 0.68892 0.30175 0.0
N4716 N 0.92394 0.7218 0.30806 0.0
N4717 N 0.90764 0.69581 0.29849 0.0
H4718 H 0.82873 0.39531 0.30142 0.0
H4719 H 0.77947 0.43358 0.31693 0.0
H4720 H 0.8092 0.39086 0.33028 0.0
H4721 H 0.80378 0.44235 0.29306 0.0
H4722 H 0.78906 0.41676 0.32061 0.0
H4723 H 0.81858 0.41156 0.29702 0.0
C4724 C 0.82236 0.39775 0.30687 0.0
C4725 C 0.81988 0.39167 0.31628 0.0
C4726 C 0.79225 0.42231 0.3145 0.0
C4727 C 0.80807 0.41021 0.31114 0.0
C4728 C 0.78674 0.43187 0.31235 0.0
C4729 C 0.79069 0.43925 0.30451 0.0
C4730 C 0.80182 0.42012 0.30879 0.0
C4731 C 0.80031 0.43678 0.299 0.0
C4732 C 0.81652 0.40701 0.30431 0.0
C4733 C 0.81133 0.39516 0.32287 0.0
N4734 N 0.80553 0.42741 0.30122 0.0
N4735 N 0.80575 0.40418 0.32018 0.0
H4736 H 0.16618 0.5972 0.70336 0.0
H4737 H 0.22754 0.56913 0.72176 0.0
H4738 H 0.19735 0.61055 0.69338 0.0
H4739 H 0.18984 0.55991 0.73815 0.0
H4740 H 0.21633 0.58503 0.70869 0.0
H4741 H 0.17547 0.58297 0.71334 0.0
C4742 C 0.17498 0.59716 0.70326 0.0
C4743 C 0.18098 0.60522 0.69765 0.0
C4744 C 0.21191 0.58 0.71449 0.0
C4745 C 0.19165 0.58884 0.70897 0.0
C4746 C 0.21902 0.57078 0.72296 0.0
C4747 C 0.20951 0.56138 0.73038 0.0
C4748 C 0.19744 0.58087 0.71566 0.0
C4749 C 0.19526 0.565 0.73332 0.0
C4750 C 0.18027 0.589 0.70893 0.0
C4751 C 0.19238 0.60452 0.69757 0.0
N4752 N 0.19056 0.57385 0.72477 0.0
N4753 N 0.19736 0.5965 0.70322 0.0
H4754 H 0.1798 0.39751 0.30022 0.0
H4755 H 0.22242 0.44438 0.31695 0.0
H4756 H 0.18785 0.40537 0.3334 0.0
H4757 H 0.21322 0.43771 0.28385 0.0
H4758 H 0.20941 0.43043 0.32315 0.0
H4759 H 0.19152 0.41253 0.29407 0.0
C4760 C 0.18395 0.40244 0.30622 0.0
C4761 C 0.18284 0.40013 0.31735 0.0
C4762 C 0.21015 0.43207 0.31453 0.0
C4763 C 0.19642 0.41729 0.31034 0.0
C4764 C 0.21755 0.44006 0.311 0.0
C4765 C 0.21877 0.44232 0.29988 0.0
C4766 C 0.204 0.42618 0.30688 0.0
C4767 C 0.21241 0.43632 0.2925 0.0
C4768 C 0.1907 0.41099 0.3027 0.0
C4769 C 0.18858 0.40672 0.32473 0.0
N4770 N 0.20531 0.42852 0.29613 0.0
N4771 N 0.19513 0.41498 0.3211 0.0
H4772 H 0.11447 0.69474 0.323 0.0
H4773 H 0.05639 0.68353 0.29527 0.0
H4774 H 0.10333 0.66344 0.31158 0.0
H4775 H 0.0663 0.71466 0.30799 0.0
H4776 H 0.07391 0.67627 0.30067 0.0
H4777 H 0.09717 0.7024 0.31726 0.0
C4778 C 0.10838 0.68946 0.31934 0.0
C4779 C 0.1104 0.67842 0.31775 0.0
C4780 C 0.07232 0.68472 0.30222 0.0
C4781 C 0.09062 0.68717 0.31106 0.0
C4782 C 0.06233 0.68887 0.29909 0.0
C4783 C 0.05997 0.69976 0.301 0.0
C4784 C 0.08002 0.69147 0.30741 0.0
C4785 C 0.06788 0.70627 0.3062 0.0
C4786 C 0.09853 0.69386 0.31601 0.0
C4787 C 0.10224 0.67202 0.31282 0.0
N4788 N 0.07755 0.70202 0.30921 0.0
N4789 N 0.09274 0.67648 0.30967 0.0
H4790 H 0.80026 0.60783 0.32924 0.0
H4791 H 0.81584 0.56567 0.28302 0.0
H4792 H 0.83005 0.60994 0.31074 0.0
H4793 H 0.7908 0.55921 0.30682 0.0
H4794 H 0.81986 0.58305 0.29174 0.0
H4795 H 0.79545 0.59102 0.31984 0.0
C4796 C 0.80582 0.60476 0.32324 0.0
C4797 C 0.81561 0.61034 0.32083 0.0
C4798 C 0.81342 0.57788 0.295 0.0
C4799 C 0.81003 0.59117 0.30991 0.0
C4800 C 0.81109 0.568 0.28999 0.0
C4801 C 0.80282 0.5611 0.29405 0.0
C4802 C 0.80748 0.58089 0.30418 0.0
C4803 C 0.79708 0.56438 0.30328 0.0
C4804 C 0.80303 0.59519 0.31784 0.0
C4805 C 0.82235 0.60605 0.31279 0.0
N4806 N 0.7995 0.57406 0.30801 0.0
N4807 N 0.81944 0.59673 0.30764 0.0
H4808 H 0.89866 0.3284 0.31021 0.0
H4809 H 0.93509 0.27573 0.28302 0.0
H4810 H 0.89204 0.29454 0.31708 0.0
H4811 H 0.94001 0.31633 0.27348 0.0
H4812 H 0.91757 0.28243 0.29694 0.0
H4813 H 0.9133 0.32322 0.29802 0.0
C4814 C 0.90024 0.31988 0.30913 0.0
C4815 C 0.89405 0.3119 0.31466 0.0
C4816 C 0.92212 0.28835 0.29217 0.0
C4817 C 0.91087 0.30594 0.30081 0.0
C4818 C 0.93241 0.28402 0.28313 0.0
C4819 C 0.94079 0.29566 0.27786 0.0
C4820 C 0.91948 0.30251 0.29335 0.0
C4821 C 0.93548 0.30962 0.2771 0.0
C4822 C 0.90864 0.31694 0.30221 0.0
C4823 C 0.89665 0.30098 0.31309 0.0
N4824 N 0.92584 0.31164 0.28585 0.0
N4825 N 0.90486 0.29832 0.30628 0.0
H4826 H 0.82773 0.3932 0.71168 0.0
H4827 H 0.78571 0.44079 0.70061 0.0
H4828 H 0.81766 0.40295 0.67954 0.0
H4829 H 0.79677 0.43132 0.73245 0.0
H4830 H 0.79768 0.42737 0.6926 0.0
H4831 H 0.81684 0.40755 0.71931 0.0
C4832 C 0.82331 0.39842 0.7062 0.0
C4833 C 0.82365 0.39685 0.69493 0.0
C4834 C 0.79756 0.42829 0.70134 0.0
C4835 C 0.81097 0.41326 0.70367 0.0
C4836 C 0.79077 0.43597 0.70589 0.0
C4837 C 0.79039 0.43729 0.7172 0.0
C4838 C 0.80394 0.4218 0.70814 0.0
C4839 C 0.79693 0.43068 0.7237 0.0
C4840 C 0.81702 0.40658 0.71058 0.0
C4841 C 0.81755 0.40376 0.68828 0.0
N4842 N 0.80342 0.42324 0.71908 0.0
N4843 N 0.81146 0.41165 0.69275 0.0
H4844 H 0.10816 0.33024 0.69154 0.0
H4845 H 0.05828 0.28854 0.69954 0.0
H4846 H 0.10644 0.29926 0.67547 0.0
H4847 H 0.06517 0.31525 0.72104 0.0
H4848 H 0.07523 0.29274 0.68978 0.0
H4849 H 0.09172 0.32533 0.70157 0.0
C4850 C 0.10439 0.32235 0.69017 0.0
C4851 C 0.10878 0.31513 0.68268 0.0
C4852 C 0.07308 0.2976 0.6967 0.0
C4853 C 0.08974 0.30954 0.69404 0.0
C4854 C 0.06344 0.29518 0.7023 0.0
C4855 C 0.06046 0.3014 0.71129 0.0
C4856 C 0.07964 0.30644 0.69997 0.0
C4857 C 0.06728 0.31013 0.7143 0.0
C4858 C 0.09495 0.31958 0.69588 0.0
C4859 C 0.10331 0.30515 0.68107 0.0
N4860 N 0.07653 0.3124 0.70865 0.0
N4861 N 0.09407 0.30265 0.68669 0.0
H4862 H 0.90703 0.68022 0.68356 0.0
H4863 H 0.93549 0.73644 0.70101 0.0
H4864 H 0.89739 0.71151 0.67146 0.0
H4865 H 0.94286 0.70575 0.71594 0.0
H4866 H 0.92239 0.72721 0.68915 0.0
H4867 H 0.92103 0.68919 0.6946 0.0
C4868 C 0.90783 0.68897 0.68323 0.0
C4869 C 0.90098 0.69511 0.67656 0.0
C4870 C 0.92693 0.72246 0.69495 0.0
C4871 C 0.91708 0.70542 0.68912 0.0
C4872 C 0.93443 0.72773 0.70168 0.0
C4873 C 0.94041 0.72182 0.70932 0.0
C4874 C 0.9253 0.71119 0.6959 0.0
C4875 C 0.93856 0.71057 0.71003 0.0
C4876 C 0.91586 0.69408 0.68951 0.0
C4877 C 0.90255 0.70642 0.67635 0.0
N4878 N 0.93117 0.70562 0.7034 0.0
N4879 N 0.91041 0.71119 0.68254 0.0
H4880 H 0.67246 0.18641 0.6023 0.0
H4881 H 0.72463 0.21195 0.5718 0.0
H4882 H 0.70552 0.17934 0.61117 0.0
H4883 H 0.69164 0.22027 0.56408 0.0
H4884 H 0.71777 0.19915 0.58558 0.0
H4885 H 0.6793 0.19813 0.58766 0.0
C4886 C 0.68116 0.18734 0.6012 0.0
C4887 C 0.68841 0.18189 0.60803 0.0
C4888 C 0.71202 0.2037 0.58082 0.0
C4889 C 0.69632 0.19525 0.59117 0.0
C4890 C 0.71594 0.21097 0.57292 0.0
C4891 C 0.70868 0.21704 0.56667 0.0
C4892 C 0.70077 0.20256 0.58255 0.0
C4893 C 0.6975 0.21563 0.56861 0.0
C4894 C 0.68506 0.19399 0.59279 0.0
C4895 C 0.69961 0.18327 0.60605 0.0
N4896 N 0.69389 0.20854 0.57637 0.0
N4897 N 0.70321 0.18982 0.59784 0.0
H4898 H 0.32392 0.19568 0.60757 0.0
H4899 H 0.27446 0.20195 0.56629 0.0
H4900 H 0.30072 0.16989 0.60069 0.0
H4901 H 0.30161 0.22459 0.56736 0.0
H4902 H 0.2838 0.19029 0.57923 0.0
H4903 H 0.31583 0.20655 0.59315 0.0
C4904 C 0.31721 0.19224 0.60297 0.0
C4905 C 0.31298 0.18184 0.60542 0.0
C4906 C 0.28776 0.19777 0.57659 0.0
C4907 C 0.30355 0.19437 0.589 0.0
C4908 C 0.28243 0.20443 0.56921 0.0
C4909 C 0.28727 0.21426 0.56577 0.0
C4910 C 0.29797 0.201 0.58068 0.0
C4911 C 0.2976 0.21709 0.56984 0.0
C4912 C 0.31255 0.19849 0.59476 0.0
C4913 C 0.30413 0.17793 0.59927 0.0
N4914 N 0.30258 0.21053 0.57714 0.0
N4915 N 0.29968 0.18421 0.5914 0.0
H4916 H 0.32417 0.81168 0.61521 0.0
H4917 H 0.30093 0.81942 0.5549 0.0
H4918 H 0.31596 0.84261 0.60119 0.0
H4919 H 0.31012 0.78845 0.56802 0.0
H4920 H 0.30574 0.82789 0.57216 0.0
H4921 H 0.31864 0.80287 0.59829 0.0
C4922 C 0.32125 0.81663 0.60857 0.0
C4923 C 0.32052 0.82792 0.60966 0.0
C4924 C 0.30664 0.81922 0.57132 0.0
C4925 C 0.31407 0.81786 0.59029 0.0
C4926 C 0.30383 0.81439 0.56148 0.0
C4927 C 0.30494 0.8032 0.56009 0.0
C4928 C 0.31069 0.81285 0.57985 0.0
C4929 C 0.30897 0.79708 0.56882 0.0
C4930 C 0.31804 0.81158 0.59893 0.0
C4931 C 0.31652 0.83388 0.60081 0.0
N4932 N 0.3117 0.80199 0.57833 0.0
N4933 N 0.31347 0.82879 0.59153 0.0
H4934 H 0.67696 0.81643 0.59995 0.0
H4935 H 0.73256 0.7984 0.5722 0.0
H4936 H 0.70864 0.8294 0.60857 0.0
H4937 H 0.70124 0.78434 0.56409 0.0
H4938 H 0.72371 0.81058 0.58482 0.0
H4939 H 0.68547 0.80528 0.58613 0.0
C4940 C 0.6857 0.81694 0.59895 0.0
C4941 C 0.69208 0.82387 0.60546 0.0
C4942 C 0.71874 0.8049 0.58023 0.0
C4943 C 0.70187 0.81118 0.58959 0.0
C4944 C 0.72379 0.79798 0.573 0.0
C4945 C 0.71761 0.79046 0.56699 0.0
C4946 C 0.70741 0.80426 0.58157 0.0
C4947 C 0.70629 0.79012 0.56848 0.0
C4948 C 0.69055 0.81061 0.59101 0.0
C4949 C 0.70336 0.8243 0.60367 0.0
N4950 N 0.70155 0.79691 0.57563 0.0
N4951 N 0.70788 0.81802 0.59594 0.0
H4952 H 0.70515 0.83654 0.40007 0.0
H4953 H 0.70144 0.77833 0.42922 0.0
H4954 H 0.68136 0.81164 0.39208 0.0
H4955 H 0.72603 0.80251 0.43686 0.0
H4956 H 0.69362 0.79079 0.416 0.0
H4957 H 0.71242 0.82466 0.41418 0.0
C4958 C 0.7014 0.82861 0.40132 0.0
C4959 C 0.69266 0.82508 0.39482 0.0
C4960 C 0.70066 0.79344 0.42063 0.0
C4961 C 0.70103 0.81139 0.41088 0.0
C4962 C 0.7051 0.78634 0.4282 0.0
C4963 C 0.71423 0.78948 0.43432 0.0
C4964 C 0.70544 0.80377 0.41907 0.0
C4965 C 0.71884 0.79984 0.43247 0.0
C4966 C 0.70561 0.82181 0.40934 0.0
C4967 C 0.68822 0.81466 0.39675 0.0
N4968 N 0.71438 0.80663 0.42503 0.0
N4969 N 0.69247 0.8082 0.40457 0.0
H4970 H 0.69603 0.1748 0.39573 0.0
H4971 H 0.70988 0.22105 0.43888 0.0
H4972 H 0.67435 0.20097 0.4026 0.0
H4973 H 0.72697 0.19094 0.43734 0.0
H4974 H 0.69719 0.21429 0.42506 0.0
H4975 H 0.70783 0.18097 0.41045 0.0
C4976 C 0.69367 0.18178 0.40038 0.0
C4977 C 0.68413 0.18735 0.39788 0.0
C4978 C 0.70364 0.20911 0.42783 0.0
C4979 C 0.6978 0.1946 0.41467 0.0
C4980 C 0.71086 0.21295 0.43575 0.0
C4981 C 0.71934 0.20643 0.43946 0.0
C4982 C 0.70504 0.19878 0.42341 0.0
C4983 C 0.72042 0.19613 0.43486 0.0
C4984 C 0.70047 0.18534 0.40876 0.0
C4985 C 0.68169 0.1965 0.40409 0.0
N4986 N 0.71337 0.19263 0.42707 0.0
N4987 N 0.68849 0.19985 0.41216 0.0
H4988 H 0.327 0.21592 0.38748 0.0
H4989 H 0.28338 0.20955 0.43543 0.0
H4990 H 0.31355 0.185 0.398 0.0
H4991 H 0.29866 0.23994 0.42598 0.0
H4992 H 0.29429 0.20031 0.42183 0.0
H4993 H 0.31669 0.22476 0.40164 0.0
C4994 C 0.32195 0.21096 0.39283 0.0
C4995 C 0.32119 0.19967 0.39156 0.0
C4996 C 0.29531 0.20899 0.42278 0.0
C4997 C 0.30918 0.20982 0.40774 0.0
C4998 C 0.28913 0.21425 0.43056 0.0
C4999 C 0.29029 0.22549 0.43197 0.0
C5000 C 0.30262 0.21504 0.41627 0.0
C5001 C 0.29765 0.23124 0.42528 0.0
C5002 C 0.316 0.21604 0.40089 0.0
C5003 C 0.3143 0.19373 0.3986 0.0
N5004 N 0.30353 0.22595 0.41773 0.0
N5005 N 0.30857 0.19887 0.40639 0.0
H5006 H 0.32958 0.80755 0.39236 0.0
H5007 H 0.28577 0.79788 0.43942 0.0
H5008 H 0.30572 0.8312 0.40091 0.0
H5009 H 0.31403 0.77818 0.43557 0.0
H5010 H 0.29248 0.80984 0.42486 0.0
H5011 H 0.32363 0.79638 0.40774 0.0
C5012 C 0.32316 0.81046 0.39751 0.0
C5013 C 0.31816 0.82036 0.39528 0.0
C5014 C 0.29728 0.80297 0.42727 0.0
C5015 C 0.31115 0.80745 0.41284 0.0
C5016 C 0.29347 0.79617 0.43561 0.0
C5017 C 0.2995 0.78718 0.43889 0.0
C5018 C 0.30707 0.80064 0.42201 0.0
C5019 C 0.30925 0.78515 0.43343 0.0
C5020 C 0.31972 0.80403 0.40627 0.0
C5021 C 0.30971 0.82356 0.40217 0.0
N5022 N 0.31273 0.79182 0.42526 0.0
N5023 N 0.30646 0.81711 0.4106 0.0
H5024 H 0.61213 0.20532 0.68016 0.0
H5025 H 0.56203 0.19014 0.7193 0.0
H5026 H 0.60168 0.17244 0.68739 0.0
H5027 H 0.57211 0.22295 0.71147 0.0
H5028 H 0.57621 0.18348 0.70729 0.0
H5029 H 0.59721 0.21191 0.69117 0.0
C5030 C 0.60665 0.19947 0.68399 0.0
C5031 C 0.60818 0.18829 0.68283 0.0
C5032 C 0.57527 0.19214 0.70812 0.0
C5033 C 0.59111 0.19581 0.69559 0.0
C5034 C 0.56716 0.19594 0.71494 0.0
C5035 C 0.56577 0.20711 0.71623 0.0
C5036 C 0.58215 0.19956 0.70262 0.0
C5037 C 0.57279 0.21427 0.71056 0.0
C5038 C 0.59816 0.20325 0.69034 0.0
C5039 C 0.60092 0.18112 0.68816 0.0
N5040 N 0.58066 0.21038 0.70402 0.0
N5041 N 0.59271 0.185 0.69431 0.0
H5042 H 0.3178 0.10505 0.67795 0.0
H5043 H 0.3078 0.07663 0.7359 0.0
H5044 H 0.33412 0.11475 0.70747 0.0
H5045 H 0.28907 0.06851 0.70739 0.0
H5046 H 0.31814 0.09005 0.72526 0.0
H5047 H 0.3077 0.09111 0.68825 0.0
C5048 C 0.31925 0.10428 0.68659 0.0
C5049 C 0.32686 0.11109 0.69183 0.0
C5050 C 0.31183 0.08529 0.72128 0.0
C5051 C 0.31539 0.09508 0.70364 0.0
C5052 C 0.30596 0.0776 0.72735 0.0
C5053 C 0.29773 0.0713 0.72247 0.0
C5054 C 0.30941 0.08679 0.71023 0.0
C5055 C 0.29549 0.07306 0.71142 0.0
C5056 C 0.31351 0.09628 0.69245 0.0
C5057 C 0.32849 0.1096 0.70303 0.0
N5058 N 0.30132 0.08063 0.70566 0.0
N5059 N 0.32281 0.10178 0.70854 0.0
H5060 H 0.39659 0.80064 0.6837 0.0
H5061 H 0.44357 0.81607 0.72625 0.0
H5062 H 0.40443 0.83343 0.69338 0.0
H5063 H 0.43662 0.7834 0.71572 0.0
H5064 H 0.42961 0.82263 0.71384 0.0
H5065 H 0.41156 0.79422 0.69489 0.0
C5066 C 0.40151 0.80651 0.68811 0.0
C5067 C 0.39921 0.81761 0.68759 0.0
C5068 C 0.43119 0.81403 0.71415 0.0
C5069 C 0.41633 0.81027 0.70056 0.0
C5070 C 0.43919 0.8103 0.72121 0.0
C5071 C 0.44138 0.7992 0.72188 0.0
C5072 C 0.42522 0.80661 0.70779 0.0
C5073 C 0.4353 0.79204 0.71533 0.0
C5074 C 0.41003 0.80283 0.69455 0.0
C5075 C 0.40578 0.8248 0.69364 0.0
N5076 N 0.4275 0.79587 0.70857 0.0
N5077 N 0.41401 0.82101 0.69988 0.0
H5078 H 0.67461 0.89085 0.70702 0.0
H5079 H 0.72094 0.9372 0.70234 0.0
H5080 H 0.68978 0.9002 0.67668 0.0
H5081 H 0.70466 0.92824 0.73217 0.0
H5082 H 0.70938 0.92406 0.69262 0.0
H5083 H 0.68522 0.90493 0.71617 0.0
C5084 C 0.68009 0.89594 0.70224 0.0
C5085 C 0.68125 0.89434 0.69103 0.0
C5086 C 0.70828 0.92503 0.70127 0.0
C5087 C 0.69364 0.91042 0.70156 0.0
C5088 C 0.71484 0.93255 0.7068 0.0
C5089 C 0.71362 0.93393 0.71804 0.0
C5090 C 0.70052 0.91877 0.70704 0.0
C5091 C 0.70576 0.92754 0.72348 0.0
C5092 C 0.68622 0.90394 0.7075 0.0
C5093 C 0.68869 0.90105 0.68535 0.0
N5094 N 0.69952 0.92025 0.71793 0.0
N5095 N 0.69461 0.90879 0.69067 0.0
H5096 H 0.61351 0.801 0.32721 0.0
H5097 H 0.5699 0.81067 0.2801 0.0
H5098 H 0.60425 0.83279 0.31618 0.0
H5099 H 0.57794 0.77914 0.29269 0.0
H5100 H 0.58194 0.81903 0.29364 0.0
H5101 H 0.59995 0.79294 0.31513 0.0
C5102 C 0.60854 0.80631 0.32235 0.0
C5103 C 0.61005 0.81761 0.32273 0.0
C5104 C 0.581 0.81029 0.29352 0.0
C5105 C 0.59459 0.80839 0.30868 0.0
C5106 C 0.5741 0.80553 0.28582 0.0
C5107 C 0.5728 0.79421 0.2854 0.0
C5108 C 0.58675 0.80368 0.30076 0.0
C5109 C 0.57861 0.7879 0.29284 0.0
C5110 C 0.60083 0.80169 0.31538 0.0
C5111 C 0.60349 0.82404 0.31606 0.0
N5112 N 0.58534 0.79271 0.30019 0.0
N5113 N 0.59607 0.81934 0.30928 0.0
H5114 H 0.70538 0.10644 0.33914 0.0
H5115 H 0.69941 0.05758 0.2969 0.0
H5116 H 0.67702 0.10157 0.31896 0.0
H5117 H 0.72511 0.06065 0.32058 0.0
H5118 H 0.69184 0.0746 0.30345 0.0
H5119 H 0.71345 0.09057 0.33106 0.0
C5120 C 0.70081 0.102 0.33304 0.0
C5121 C 0.69043 0.10529 0.32984 0.0
C5122 C 0.69918 0.07158 0.30715 0.0
C5123 C 0.69974 0.0871 0.32039 0.0
C5124 C 0.70351 0.06191 0.30339 0.0
C5125 C 0.71294 0.05775 0.30816 0.0
C5126 C 0.70432 0.07711 0.31574 0.0
C5127 C 0.71788 0.0636 0.31662 0.0
C5128 C 0.70546 0.09296 0.32837 0.0
C5129 C 0.68505 0.09936 0.32166 0.0
N5130 N 0.71351 0.07296 0.32013 0.0
N5131 N 0.68975 0.09052 0.31726 0.0
H5132 H 0.39225 0.18438 0.29775 0.0
H5133 H 0.44223 0.22932 0.32015 0.0
H5134 H 0.39897 0.19158 0.33137 0.0
H5135 H 0.43549 0.21866 0.28023 0.0
H5136 H 0.42424 0.2148 0.32524 0.0
H5137 H 0.40754 0.19629 0.29245 0.0
C5138 C 0.39698 0.18837 0.30402 0.0
C5139 C 0.39425 0.18701 0.31503 0.0
C5140 C 0.42678 0.21602 0.31691 0.0
C5141 C 0.41163 0.20074 0.309 0.0
C5142 C 0.43738 0.22555 0.31384 0.0
C5143 C 0.44209 0.22437 0.29958 0.0
C5144 C 0.4205 0.20844 0.30619 0.0
C5145 C 0.43316 0.21873 0.2887 0.0
C5146 C 0.40566 0.19522 0.30098 0.0
C5147 C 0.40062 0.19253 0.32279 0.0
N5148 N 0.42377 0.21048 0.29343 0.0
N5149 N 0.40898 0.19918 0.31961 0.0
H5150 H 0.31099 0.89625 0.33098 0.0
H5151 H 0.30305 0.94715 0.29165 0.0
H5152 H 0.32919 0.90093 0.30128 0.0
H5153 H 0.27982 0.93743 0.31624 0.0
H5154 H 0.31339 0.93084 0.29558 0.0
H5155 H 0.30009 0.91187 0.32623 0.0
C5156 C 0.31265 0.90048 0.32341 0.0
C5157 C 0.32104 0.8972 0.31652 0.0
C5158 C 0.30596 0.93221 0.30002 0.0
C5159 C 0.30867 0.91529 0.31114 0.0
C5160 C 0.30004 0.94149 0.29775 0.0
C5161 C 0.2904 0.9435 0.30345 0.0
C5162 C 0.30237 0.92501 0.30821 0.0
C5163 C 0.28708 0.93606 0.31152 0.0
C5164 C 0.30644 0.90945 0.32074 0.0
C5165 C 0.32293 0.90322 0.30694 0.0
N5166 N 0.29306 0.92717 0.31368 0.0
N5167 N 0.31682 0.91198 0.30456 0.0
H5168 H 0.67045 0.10118 0.7019 0.0
H5169 H 0.72558 0.06873 0.69447 0.0
H5170 H 0.69505 0.10975 0.67818 0.0
H5171 H 0.70483 0.06496 0.72249 0.0
H5172 H 0.71336 0.0824 0.68722 0.0
H5173 H 0.68191 0.08659 0.70848 0.0
C5174 C 0.67826 0.10004 0.69809 0.0
C5175 C 0.68178 0.10679 0.68948 0.0
C5176 C 0.71142 0.07852 0.69491 0.0
C5177 C 0.69487 0.08993 0.69689 0.0
C5178 C 0.71835 0.07068 0.69901 0.0
C5179 C 0.7161 0.06553 0.70897 0.0
C5180 C 0.70216 0.08131 0.70084 0.0
C5181 C 0.70676 0.06856 0.71467 0.0
C5182 C 0.68477 0.09166 0.70182 0.0
C5183 C 0.6919 0.10471 0.68473 0.0
N5184 N 0.70012 0.07623 0.71051 0.0
N5185 N 0.69807 0.09649 0.6885 0.0
H5186 H 0.68911 0.90774 0.33203 0.0
H5187 H 0.71901 0.93077 0.27866 0.0
H5188 H 0.68158 0.897 0.29955 0.0
H5189 H 0.72802 0.9401 0.31116 0.0
H5190 H 0.70413 0.91955 0.2861 0.0
H5191 H 0.70233 0.92079 0.32449 0.0
C5192 C 0.69022 0.90814 0.32331 0.0
C5193 C 0.68426 0.90121 0.31643 0.0
C5194 C 0.70929 0.92413 0.29161 0.0
C5195 C 0.69934 0.9162 0.30773 0.0
C5196 C 0.71775 0.93055 0.28736 0.0
C5197 C 0.72466 0.93646 0.2943 0.0
C5198 C 0.70778 0.92352 0.3029 0.0
C5199 C 0.72279 0.93577 0.30553 0.0
C5200 C 0.69774 0.91563 0.31901 0.0
C5201 C 0.6859 0.90224 0.30518 0.0
N5202 N 0.71454 0.9294 0.30948 0.0
N5203 N 0.69332 0.90953 0.3012 0.0
H5204 H 0.61044 0.17953 0.30113 0.0
H5205 H 0.56222 0.21832 0.31873 0.0
H5206 H 0.60162 0.18539 0.33445 0.0
H5207 H 0.57051 0.21197 0.28541 0.0
H5208 H 0.57624 0.20581 0.32463 0.0
H5209 H 0.59546 0.19083 0.29519 0.0
C5210 C 0.60531 0.18312 0.30721 0.0
C5211 C 0.60733 0.18151 0.31832 0.0
C5212 C 0.57494 0.20707 0.31603 0.0
C5213 C 0.59021 0.19459 0.31156 0.0
C5214 C 0.56691 0.21418 0.31266 0.0
C5215 C 0.56508 0.21605 0.30156 0.0
C5216 C 0.58129 0.20186 0.30825 0.0
C5217 C 0.57155 0.21063 0.29404 0.0
C5218 C 0.59679 0.18963 0.30381 0.0
C5219 C 0.60049 0.18652 0.32581 0.0
N5220 N 0.57937 0.20379 0.29751 0.0
N5221 N 0.59226 0.19284 0.32229 0.0
H5222 H 0.29523 0.11117 0.32986 0.0
H5223 H 0.31339 0.06119 0.2935 0.0
H5224 H 0.32808 0.10659 0.31877 0.0
H5225 H 0.28195 0.06272 0.30878 0.0
H5226 H 0.31843 0.0786 0.30159 0.0
H5227 H 0.28976 0.09413 0.32122 0.0
C5228 C 0.30131 0.10658 0.32566 0.0
C5229 C 0.31215 0.11035 0.32507 0.0
C5230 C 0.31039 0.07519 0.30312 0.0
C5231 C 0.30589 0.0909 0.31503 0.0
C5232 C 0.3075 0.06528 0.29845 0.0
C5233 C 0.29716 0.06063 0.30027 0.0
C5234 C 0.30292 0.08048 0.30974 0.0
C5235 C 0.28993 0.06613 0.30699 0.0
C5236 C 0.29816 0.09687 0.32068 0.0
C5237 C 0.31961 0.10412 0.31932 0.0
N5238 N 0.29293 0.07579 0.31145 0.0
N5239 N 0.31634 0.09472 0.31454 0.0
H5240 H 0.40298 0.80557 0.3289 0.0
H5241 H 0.44115 0.82079 0.27829 0.0
H5242 H 0.39936 0.8345 0.30938 0.0
H5243 H 0.44977 0.79725 0.3027 0.0
H5244 H 0.42461 0.82459 0.28847 0.0
H5245 H 0.4191 0.80118 0.31838 0.0
C5246 C 0.40558 0.81105 0.32246 0.0
C5247 C 0.39976 0.82046 0.32007 0.0
C5248 C 0.43007 0.81853 0.29156 0.0
C5249 C 0.41813 0.81532 0.30785 0.0
C5250 C 0.43947 0.81631 0.28572 0.0
C5251 C 0.44672 0.80852 0.28952 0.0
C5252 C 0.4279 0.81294 0.30131 0.0
C5253 C 0.44429 0.80314 0.29935 0.0
C5254 C 0.41476 0.80849 0.31641 0.0
C5255 C 0.40344 0.82708 0.31145 0.0
N5256 N 0.43506 0.80542 0.30488 0.0
N5257 N 0.41237 0.82438 0.30565 0.0
H5258 H 0.33514 0.90262 0.7072 0.0
H5259 H 0.28182 0.93734 0.69691 0.0
H5260 H 0.31165 0.89554 0.68202 0.0
H5261 H 0.30086 0.93951 0.72625 0.0
H5262 H 0.29388 0.92334 0.6903 0.0
H5263 H 0.32379 0.91738 0.71337 0.0
C5264 C 0.32758 0.90412 0.70298 0.0
C5265 C 0.32436 0.89775 0.69407 0.0
C5266 C 0.29549 0.92693 0.69814 0.0
C5267 C 0.31141 0.91481 0.70101 0.0
C5268 C 0.28864 0.93497 0.70188 0.0
C5269 C 0.29047 0.93976 0.71203 0.0
C5270 C 0.30422 0.9236 0.70461 0.0
C5271 C 0.29928 0.93619 0.71828 0.0
C5272 C 0.32114 0.9126 0.70648 0.0
C5273 C 0.31458 0.90028 0.68881 0.0
N5274 N 0.30585 0.92835 0.71445 0.0
N5275 N 0.30847 0.90859 0.69236 0.0
H5276 H 0.602 0.82363 0.68127 0.0
H5277 H 0.57926 0.77012 0.71151 0.0
H5278 H 0.6186 0.79317 0.68165 0.0
H5279 H 0.5664 0.80188 0.71688 0.0
H5280 H 0.5926 0.77812 0.69893 0.0
H5281 H 0.58767 0.81545 0.69265 0.0
C5282 C 0.60259 0.8152 0.68369 0.0
C5283 C 0.61154 0.80909 0.68055 0.0
C5284 C 0.5868 0.78334 0.70278 0.0
C5285 C 0.59521 0.79971 0.69359 0.0
C5286 C 0.57916 0.77876 0.70991 0.0
C5287 C 0.57157 0.7853 0.71506 0.0
C5288 C 0.58691 0.79456 0.70081 0.0
C5289 C 0.57196 0.7965 0.71291 0.0
C5290 C 0.59445 0.81057 0.69023 0.0
C5291 C 0.61193 0.79823 0.684 0.0
N5292 N 0.57948 0.80078 0.70592 0.0
N5293 N 0.60389 0.7939 0.69032 0.0
H5294 H 0.40421 0.20305 0.66369 0.0
H5295 H 0.43317 0.20023 0.72183 0.0
H5296 H 0.39331 0.18208 0.68989 0.0
H5297 H 0.4396 0.2259 0.69862 0.0
H5298 H 0.41977 0.19231 0.70938 0.0
H5299 H 0.41841 0.21047 0.67559 0.0
C5300 C 0.40477 0.20001 0.67194 0.0
C5301 C 0.39751 0.19192 0.67577 0.0
C5302 C 0.42417 0.19963 0.70696 0.0
C5303 C 0.41385 0.20028 0.68938 0.0
C5304 C 0.43185 0.20411 0.71404 0.0
C5305 C 0.43768 0.21359 0.71116 0.0
C5306 C 0.42222 0.20469 0.69692 0.0
C5307 C 0.43545 0.21845 0.70107 0.0
C5308 C 0.41291 0.20423 0.67871 0.0
C5309 C 0.39879 0.18818 0.68649 0.0
N5310 N 0.42793 0.21393 0.69429 0.0
N5311 N 0.40678 0.19239 0.6929 0.0
H5312 H 0.70316 0.67167 0.10668 0.0
H5313 H 0.69622 0.72722 0.07368 0.0
H5314 H 0.67923 0.69547 0.11459 0.0
H5315 H 0.72465 0.70752 0.07124 0.0
H5316 H 0.68871 0.71454 0.08724 0.0
H5317 H 0.71005 0.68365 0.09227 0.0
C5318 C 0.69937 0.67942 0.10544 0.0
C5319 C 0.69061 0.68256 0.11194 0.0
C5320 C 0.69655 0.71294 0.08367 0.0
C5321 C 0.69838 0.69624 0.09529 0.0
C5322 C 0.7008 0.72013 0.0759 0.0
C5323 C 0.71096 0.71829 0.07115 0.0
C5324 C 0.70251 0.70384 0.08677 0.0
C5325 C 0.71669 0.70913 0.07452 0.0
C5326 C 0.70328 0.68623 0.09716 0.0
C5327 C 0.68589 0.69261 0.10973 0.0
N5328 N 0.71236 0.70222 0.08209 0.0
N5329 N 0.68984 0.69908 0.10161 0.0
H5330 H 0.29903 0.6819 0.10954 0.0
H5331 H 0.31181 0.72578 0.0628 0.0
H5332 H 0.33155 0.69118 0.09952 0.0
H5333 H 0.27944 0.71575 0.07246 0.0
H5334 H 0.31927 0.71268 0.0757 0.0
H5335 H 0.29176 0.69369 0.09545 0.0
C5336 C 0.30465 0.68633 0.10431 0.0
C5337 C 0.31593 0.68554 0.10575 0.0
C5338 C 0.31053 0.71327 0.07493 0.0
C5339 C 0.30763 0.69922 0.08965 0.0
C5340 C 0.30629 0.72071 0.06755 0.0
C5341 C 0.29499 0.72172 0.06645 0.0
C5342 C 0.30344 0.70687 0.08135 0.0
C5343 C 0.28819 0.71513 0.07296 0.0
C5344 C 0.30048 0.69313 0.0963 0.0
C5345 C 0.3228 0.69164 0.09882 0.0
N5346 N 0.29251 0.70799 0.08013 0.0
N5347 N 0.31854 0.69824 0.0911 0.0
H5348 H 0.29867 0.32639 0.11494 0.0
H5349 H 0.31728 0.28822 0.06634 0.0
H5350 H 0.3322 0.32172 0.10619 0.0
H5351 H 0.28376 0.2937 0.07442 0.0
H5352 H 0.3229 0.30091 0.08054 0.0
H5353 H 0.29304 0.31497 0.09975 0.0
C5354 C 0.30485 0.32305 0.10977 0.0
C5355 C 0.31594 0.32502 0.11188 0.0
C5356 C 0.31431 0.29942 0.07916 0.0
C5357 C 0.30953 0.31179 0.09452 0.0
C5358 C 0.31111 0.29221 0.07103 0.0
C5359 C 0.30004 0.29004 0.06909 0.0
C5360 C 0.3064 0.30443 0.0855 0.0
C5361 C 0.29237 0.29527 0.07555 0.0
C5362 C 0.30163 0.31647 0.10113 0.0
C5363 C 0.32357 0.32031 0.10499 0.0
N5364 N 0.2957 0.3022 0.08347 0.0
N5365 N 0.32023 0.31391 0.09664 0.0
H5366 H 0.69679 0.33876 0.10108 0.0
H5367 H 0.69533 0.28023 0.07349 0.0
H5368 H 0.67627 0.31209 0.11213 0.0
H5369 H 0.72092 0.30399 0.06773 0.0
H5370 H 0.68687 0.29267 0.08616 0.0
H5371 H 0.70442 0.32695 0.08732 0.0
C5372 C 0.69389 0.33043 0.10064 0.0
C5373 C 0.68588 0.32643 0.10784 0.0
C5374 C 0.69429 0.2952 0.08206 0.0
C5375 C 0.6945 0.31291 0.09198 0.0
C5376 C 0.69908 0.28813 0.0748 0.0
C5377 C 0.70871 0.29116 0.06938 0.0
C5378 C 0.69918 0.30539 0.08398 0.0
C5379 C 0.71338 0.30141 0.07156 0.0
C5380 C 0.69822 0.32371 0.09274 0.0
C5381 C 0.6823 0.31561 0.1067 0.0
N5382 N 0.70855 0.30817 0.07867 0.0
N5383 N 0.68664 0.30924 0.09895 0.0
H5384 H 0.69134 0.34315 0.9102 0.0
H5385 H 0.6962 0.2865 0.94186 0.0
H5386 H 0.68376 0.31222 0.89557 0.0
H5387 H 0.70396 0.31756 0.95603 0.0
H5388 H 0.69219 0.29562 0.92461 0.0
H5389 H 0.69661 0.33379 0.92683 0.0
C5390 C 0.69086 0.33438 0.91045 0.0
C5391 C 0.68711 0.32847 0.90145 0.0
C5392 C 0.69486 0.30043 0.93147 0.0
C5393 C 0.69302 0.31767 0.92058 0.0
C5394 C 0.69719 0.29522 0.94128 0.0
C5395 C 0.70058 0.30128 0.95032 0.0
C5396 C 0.69583 0.31178 0.93072 0.0
C5397 C 0.70152 0.31258 0.94921 0.0
C5398 C 0.69382 0.32903 0.91999 0.0
C5399 C 0.68648 0.31712 0.90234 0.0
N5400 N 0.69915 0.31746 0.93961 0.0
N5401 N 0.6894 0.31209 0.91173 0.0
H5402 H 0.68257 0.70601 0.89801 0.0
H5403 H 0.7249 0.69051 0.94475 0.0
H5404 H 0.69189 0.67322 0.90529 0.0
H5405 H 0.71469 0.72317 0.9384 0.0
H5406 H 0.71243 0.68397 0.93067 0.0
H5407 H 0.6938 0.7124 0.91311 0.0
C5408 C 0.6869 0.70013 0.90283 0.0
C5409 C 0.68628 0.68905 0.90034 0.0
C5410 C 0.71283 0.69256 0.93241 0.0
C5411 C 0.69929 0.69635 0.9176 0.0
C5412 C 0.71991 0.69628 0.94048 0.0
C5413 C 0.72069 0.70737 0.94287 0.0
C5414 C 0.70654 0.69999 0.92657 0.0
C5415 C 0.71421 0.71453 0.93692 0.0
C5416 C 0.69337 0.7038 0.91143 0.0
C5417 C 0.69224 0.68185 0.90679 0.0
N5418 N 0.70742 0.71072 0.92904 0.0
N5419 N 0.69849 0.68562 0.9151 0.0
H5420 H 0.33802 0.70991 0.89301 0.0
H5421 H 0.28939 0.70895 0.93621 0.0
H5422 H 0.31846 0.68125 0.89995 0.0
H5423 H 0.30937 0.73714 0.92872 0.0
H5424 H 0.3002 0.69837 0.92351 0.0
H5425 H 0.32799 0.71968 0.9067 0.0
C5426 C 0.3317 0.70562 0.8975 0.0
C5427 C 0.32913 0.69471 0.89534 0.0
C5428 C 0.30226 0.70685 0.92471 0.0
C5429 C 0.31741 0.70597 0.91097 0.0
C5430 C 0.29612 0.71286 0.93197 0.0
C5431 C 0.29861 0.72389 0.93364 0.0
C5432 C 0.31088 0.71192 0.91901 0.0
C5433 C 0.30727 0.72863 0.92779 0.0
C5434 C 0.3259 0.71124 0.90528 0.0
C5435 C 0.32065 0.68968 0.90127 0.0
N5436 N 0.31308 0.72263 0.92076 0.0
N5437 N 0.31509 0.69535 0.90881 0.0
H5438 H 0.30436 0.33321 0.89949 0.0
H5439 H 0.31817 0.2854 0.94114 0.0
H5440 H 0.33383 0.31485 0.8982 0.0
H5441 H 0.29358 0.30896 0.9474 0.0
H5442 H 0.32276 0.29492 0.92422 0.0
H5443 H 0.29915 0.32337 0.91604 0.0
C5444 C 0.30977 0.32717 0.90269 0.0
C5445 C 0.31958 0.3249 0.89739 0.0
C5446 C 0.3163 0.29796 0.92924 0.0
C5447 C 0.31352 0.31345 0.91626 0.0
C5448 C 0.31363 0.29249 0.93886 0.0
C5449 C 0.30532 0.29624 0.94556 0.0
C5450 C 0.31064 0.3073 0.92629 0.0
C5451 C 0.29988 0.30565 0.94236 0.0
C5452 C 0.30675 0.32151 0.91212 0.0
C5453 C 0.32612 0.31679 0.90186 0.0
N5454 N 0.30261 0.31083 0.93293 0.0
N5455 N 0.32297 0.31137 0.911 0.0
H5456 H 0.61026 0.67619 0.19745 0.0
H5457 H 0.5669 0.72275 0.20482 0.0
H5458 H 0.60253 0.69911 0.17208 0.0
H5459 H 0.56939 0.69543 0.22666 0.0
H5460 H 0.58028 0.71454 0.1929 0.0
H5461 H 0.59557 0.68331 0.2084 0.0
C5462 C 0.60542 0.68263 0.19411 0.0
C5463 C 0.6077 0.68706 0.1838 0.0
C5464 C 0.5778 0.71027 0.20023 0.0
C5465 C 0.59096 0.69542 0.19645 0.0
C5466 C 0.57014 0.71494 0.20702 0.0
C5467 C 0.56684 0.70963 0.21662 0.0
C5468 C 0.58238 0.70034 0.20318 0.0
C5469 C 0.57156 0.69968 0.21923 0.0
C5470 C 0.59706 0.68675 0.20041 0.0
C5471 C 0.60123 0.69556 0.18004 0.0
N5472 N 0.57911 0.69538 0.21256 0.0
N5473 N 0.59321 0.6995 0.18638 0.0
H5474 H 0.3359 0.60822 0.20036 0.0
H5475 H 0.29075 0.56321 0.18541 0.0
H5476 H 0.32007 0.60624 0.16911 0.0
H5477 H 0.31217 0.56027 0.21297 0.0
H5478 H 0.30021 0.58008 0.18023 0.0
H5479 H 0.32624 0.59159 0.20596 0.0
C5480 C 0.33046 0.60427 0.19464 0.0
C5481 C 0.32882 0.60868 0.18423 0.0
C5482 C 0.3028 0.5758 0.18746 0.0
C5483 C 0.31758 0.58973 0.19069 0.0
C5484 C 0.29735 0.56622 0.19045 0.0
C5485 C 0.3005 0.56047 0.19976 0.0
C5486 C 0.31151 0.57968 0.19381 0.0
C5487 C 0.30931 0.56457 0.20586 0.0
C5488 C 0.3249 0.59481 0.19788 0.0
C5489 C 0.32148 0.60328 0.17727 0.0
N5490 N 0.31448 0.57396 0.2028 0.0
N5491 N 0.31614 0.59412 0.18063 0.0
H5492 H 0.39207 0.32863 0.20076 0.0
H5493 H 0.43443 0.28135 0.2104 0.0
H5494 H 0.39896 0.30452 0.17662 0.0
H5495 H 0.43272 0.30958 0.23071 0.0
H5496 H 0.42097 0.28928 0.19821 0.0
H5497 H 0.40653 0.32144 0.21209 0.0
C5498 C 0.39667 0.32189 0.19777 0.0
C5499 C 0.39424 0.31719 0.18768 0.0
C5500 C 0.42363 0.29379 0.20527 0.0
C5501 C 0.41073 0.30876 0.20078 0.0
C5502 C 0.43134 0.28929 0.2122 0.0
C5503 C 0.43489 0.29495 0.22145 0.0
C5504 C 0.41926 0.30392 0.20771 0.0
C5505 C 0.43036 0.30506 0.22356 0.0
C5506 C 0.40491 0.31775 0.20429 0.0
C5507 C 0.40039 0.30831 0.18439 0.0
N5508 N 0.42277 0.30921 0.21677 0.0
N5509 N 0.40831 0.30437 0.19094 0.0
H5510 H 0.66285 0.40142 0.20374 0.0
H5511 H 0.72001 0.43312 0.20941 0.0
H5512 H 0.69117 0.39338 0.185 0.0
H5513 H 0.69392 0.43506 0.23263 0.0
H5514 H 0.70889 0.42032 0.19874 0.0
H5515 H 0.67347 0.41562 0.21277 0.0
C5516 C 0.67131 0.40262 0.20152 0.0
C5517 C 0.67614 0.39608 0.19367 0.0
C5518 C 0.70559 0.4236 0.20614 0.0
C5519 C 0.68833 0.41247 0.20391 0.0
C5520 C 0.71192 0.43089 0.21221 0.0
C5521 C 0.70788 0.43512 0.22192 0.0
C5522 C 0.69514 0.42058 0.20978 0.0
C5523 C 0.69735 0.432 0.22519 0.0
C5524 C 0.67736 0.41077 0.20665 0.0
C5525 C 0.68707 0.39824 0.19095 0.0
N5526 N 0.69135 0.42492 0.21915 0.0
N5527 N 0.69282 0.40622 0.1961 0.0
H5528 H 0.60194 0.30589 0.83346 0.0
H5529 H 0.57195 0.31536 0.7766 0.0
H5530 H 0.61198 0.33032 0.81006 0.0
H5531 H 0.56707 0.28653 0.79614 0.0
H5532 H 0.5853 0.32205 0.78982 0.0
H5533 H 0.58784 0.29965 0.82084 0.0
C5534 C 0.60122 0.30993 0.82567 0.0
C5535 C 0.60821 0.31865 0.82284 0.0
C5536 C 0.58125 0.31429 0.79127 0.0
C5537 C 0.59195 0.31164 0.80842 0.0
C5538 C 0.5736 0.31052 0.78376 0.0
C5539 C 0.56822 0.3005 0.78539 0.0
C5540 C 0.5836 0.30799 0.80048 0.0
C5541 C 0.57085 0.2944 0.79468 0.0
C5542 C 0.59313 0.30639 0.81849 0.0
C5543 C 0.60671 0.32369 0.8127 0.0
N5544 N 0.57833 0.29826 0.80189 0.0
N5545 N 0.59876 0.32011 0.80587 0.0
H5546 H 0.70596 0.60482 0.83409 0.0
H5547 H 0.69697 0.57362 0.77793 0.0
H5548 H 0.68165 0.61342 0.81041 0.0
H5549 H 0.72553 0.56995 0.79783 0.0
H5550 H 0.69017 0.58688 0.79079 0.0
H5551 H 0.71228 0.59077 0.82187 0.0
C5552 C 0.70196 0.6038 0.82632 0.0
C5553 C 0.69325 0.61038 0.8233 0.0
C5554 C 0.69788 0.58311 0.7924 0.0
C5555 C 0.70037 0.59415 0.80933 0.0
C5556 C 0.70173 0.5755 0.7851 0.0
C5557 C 0.7117 0.5705 0.78693 0.0
C5558 C 0.70408 0.58581 0.80161 0.0
C5559 C 0.71769 0.57344 0.79622 0.0
C5560 C 0.70555 0.59573 0.81937 0.0
C5561 C 0.68828 0.60848 0.81319 0.0
N5562 N 0.71376 0.58088 0.80323 0.0
N5563 N 0.6919 0.60056 0.80659 0.0
H5564 H 0.40133 0.6806 0.7995 0.0
H5565 H 0.43848 0.73835 0.81622 0.0
H5566 H 0.39552 0.69991 0.82794 0.0
H5567 H 0.43951 0.71885 0.77932 0.0
H5568 H 0.42134 0.72299 0.82186 0.0
H5569 H 0.41522 0.69387 0.79369 0.0
C5570 C 0.40292 0.68762 0.80451 0.0
C5571 C 0.39718 0.68911 0.81423 0.0
C5572 C 0.42508 0.72281 0.81393 0.0
C5573 C 0.41318 0.70421 0.80768 0.0
C5574 C 0.4351 0.73277 0.81031 0.0
C5575 C 0.44223 0.72927 0.79756 0.0
C5576 C 0.42144 0.71241 0.80445 0.0
C5577 C 0.43581 0.72038 0.7871 0.0
C5578 C 0.41089 0.69517 0.8012 0.0
C5579 C 0.3998 0.6983 0.82048 0.0
N5580 N 0.42659 0.71216 0.7922 0.0
N5581 N 0.40762 0.70549 0.8171 0.0
H5582 H 0.3294 0.39139 0.79328 0.0
H5583 H 0.28859 0.44011 0.803 0.0
H5584 H 0.31951 0.40164 0.82514 0.0
H5585 H 0.29954 0.43011 0.77146 0.0
H5586 H 0.30007 0.42637 0.8114 0.0
H5587 H 0.31877 0.40583 0.78526 0.0
C5588 C 0.32507 0.39674 0.79861 0.0
C5589 C 0.3254 0.3953 0.80992 0.0
C5590 C 0.30003 0.42724 0.80264 0.0
C5591 C 0.31303 0.41183 0.80074 0.0
C5592 C 0.29352 0.4351 0.79787 0.0
C5593 C 0.29327 0.43637 0.78653 0.0
C5594 C 0.30625 0.42051 0.79603 0.0
C5595 C 0.29962 0.42951 0.78023 0.0
C5596 C 0.31894 0.40496 0.79401 0.0
C5597 C 0.31941 0.40237 0.81638 0.0
N5598 N 0.30584 0.42189 0.78506 0.0
N5599 N 0.31347 0.41032 0.8117 0.0
H5600 H 0.67451 0.60491 0.20784 0.0
H5601 H 0.72626 0.56828 0.19665 0.0
H5602 H 0.6936 0.60665 0.17847 0.0
H5603 H 0.70751 0.56638 0.22618 0.0
H5604 H 0.7139 0.5819 0.18962 0.0
H5605 H 0.6859 0.59024 0.2144 0.0
C5606 C 0.68104 0.60217 0.20273 0.0
C5607 C 0.6831 0.60708 0.19259 0.0
C5608 C 0.7124 0.57844 0.1976 0.0
C5609 C 0.69628 0.59036 0.20013 0.0
C5610 C 0.71943 0.57064 0.20159 0.0
C5611 C 0.71777 0.56603 0.21191 0.0
C5612 C 0.70367 0.58178 0.20401 0.0
C5613 C 0.70896 0.56958 0.21809 0.0
C5614 C 0.68758 0.59383 0.20651 0.0
C5615 C 0.69179 0.60326 0.1864 0.0
N5616 N 0.70223 0.57723 0.21404 0.0
N5617 N 0.69805 0.59516 0.19028 0.0
H5618 H 0.67054 0.40454 0.80435 0.0
H5619 H 0.72661 0.43809 0.80988 0.0
H5620 H 0.69567 0.39662 0.82741 0.0
H5621 H 0.70523 0.44099 0.78229 0.0
H5622 H 0.7143 0.42426 0.81761 0.0
H5623 H 0.68216 0.41924 0.79726 0.0
C5624 C 0.6785 0.40585 0.80791 0.0
C5625 C 0.68212 0.39926 0.81648 0.0
C5626 C 0.71225 0.42798 0.80991 0.0
C5627 C 0.6954 0.41623 0.80849 0.0
C5628 C 0.71923 0.43592 0.80554 0.0
C5629 C 0.71682 0.44087 0.79556 0.0
C5630 C 0.70278 0.42492 0.80424 0.0
C5631 C 0.70729 0.43755 0.79012 0.0
C5632 C 0.68511 0.41429 0.80389 0.0
C5633 C 0.69244 0.40154 0.82091 0.0
N5634 N 0.70059 0.42981 0.79455 0.0
N5635 N 0.69871 0.40982 0.81686 0.0
H5636 H 0.61194 0.66926 0.80114 0.0
H5637 H 0.56071 0.70757 0.80848 0.0
H5638 H 0.60542 0.68614 0.83092 0.0
H5639 H 0.56719 0.68902 0.77976 0.0
H5640 H 0.57766 0.70104 0.81654 0.0
H5641 H 0.59613 0.67753 0.79291 0.0
C5642 C 0.60715 0.67468 0.80598 0.0
C5643 C 0.60996 0.67689 0.81679 0.0
C5644 C 0.57542 0.6985 0.80843 0.0
C5645 C 0.59182 0.68656 0.80732 0.0
C5646 C 0.5658 0.70227 0.80382 0.0
C5647 C 0.56264 0.69896 0.79337 0.0
C5648 C 0.58187 0.69131 0.80258 0.0
C5649 C 0.56939 0.6919 0.78777 0.0
C5650 C 0.59814 0.67946 0.80124 0.0
C5651 C 0.60358 0.68421 0.82255 0.0
N5652 N 0.57865 0.68831 0.79243 0.0
N5653 N 0.59477 0.68874 0.81777 0.0
H5654 H 0.32856 0.60121 0.82185 0.0
H5655 H 0.27802 0.57955 0.78657 0.0
H5656 H 0.29981 0.61975 0.81574 0.0
H5657 H 0.30947 0.56479 0.78599 0.0
H5658 H 0.2852 0.59324 0.79908 0.0
H5659 H 0.32099 0.58663 0.81055 0.0
C5660 C 0.32063 0.60218 0.81819 0.0
C5661 C 0.31483 0.61173 0.81969 0.0
C5662 C 0.29051 0.58696 0.7963 0.0
C5663 C 0.30614 0.59511 0.80677 0.0
C5664 C 0.2864 0.57911 0.78922 0.0
C5665 C 0.29309 0.5709 0.78542 0.0
C5666 C 0.30143 0.58663 0.79959 0.0
C5667 C 0.30397 0.57085 0.78889 0.0
C5668 C 0.31635 0.59389 0.8117 0.0
C5669 C 0.30463 0.61259 0.81468 0.0
N5670 N 0.30779 0.57858 0.79581 0.0
N5671 N 0.30061 0.60439 0.80847 0.0
H5672 H 0.40258 0.32912 0.81315 0.0
H5673 H 0.43081 0.27473 0.79342 0.0
H5674 H 0.39357 0.29706 0.82469 0.0
H5675 H 0.43902 0.30638 0.78042 0.0
H5676 H 0.41778 0.28299 0.80563 0.0
H5677 H 0.4165 0.32117 0.80168 0.0
C5678 C 0.4035 0.32041 0.81326 0.0
C5679 C 0.39686 0.31376 0.81991 0.0
C5680 C 0.42247 0.28816 0.80018 0.0
C5681 C 0.41287 0.30461 0.80686 0.0
C5682 C 0.42995 0.28345 0.79324 0.0
C5683 C 0.43613 0.2899 0.78603 0.0
C5684 C 0.42106 0.29943 0.79985 0.0
C5685 C 0.43453 0.30114 0.78597 0.0
C5686 C 0.41149 0.31588 0.80675 0.0
C5687 C 0.39857 0.30254 0.81983 0.0
N5688 N 0.42715 0.30555 0.79278 0.0
N5689 N 0.40637 0.29833 0.8134 0.0
H5690 H 0.31072 0.39878 0.19066 0.0
H5691 H 0.318 0.4401 0.24687 0.0
H5692 H 0.33874 0.39991 0.21181 0.0
H5693 H 0.28334 0.43631 0.22344 0.0
H5694 H 0.32698 0.42392 0.23288 0.0
H5695 H 0.30214 0.41244 0.202 0.0
C5696 C 0.31508 0.40188 0.19766 0.0
C5697 C 0.32549 0.39815 0.20026 0.0
C5698 C 0.31876 0.42661 0.23166 0.0
C5699 C 0.31575 0.41381 0.21316 0.0
C5700 C 0.31309 0.43601 0.2408 0.0
C5701 C 0.30005 0.44138 0.23568 0.0
C5702 C 0.31083 0.42175 0.22044 0.0
C5703 C 0.29129 0.43367 0.22594 0.0
C5704 C 0.31018 0.4097 0.20409 0.0
C5705 C 0.33079 0.40262 0.20936 0.0
N5706 N 0.29816 0.42523 0.21866 0.0
N5707 N 0.32585 0.41018 0.21547 0.0
H5708 H 0.59666 0.32572 0.1823 0.0
H5709 H 0.57403 0.27226 0.21274 0.0
H5710 H 0.6129 0.29507 0.18217 0.0
H5711 H 0.56077 0.30394 0.21751 0.0
H5712 H 0.58726 0.28018 0.2 0.0
H5713 H 0.58228 0.31755 0.19361 0.0
C5714 C 0.59716 0.31725 0.18458 0.0
C5715 C 0.60603 0.31108 0.18133 0.0
C5716 C 0.58139 0.2854 0.20375 0.0
C5717 C 0.58965 0.30171 0.19432 0.0
C5718 C 0.57382 0.28087 0.21097 0.0
C5719 C 0.56616 0.28741 0.21601 0.0
C5720 C 0.58138 0.29659 0.20159 0.0
C5721 C 0.5664 0.29857 0.21364 0.0
C5722 C 0.58899 0.31261 0.19109 0.0
C5723 C 0.6063 0.30017 0.18462 0.0
N5724 N 0.57387 0.3028 0.20658 0.0
N5725 N 0.59825 0.29585 0.19093 0.0
H5726 H 0.40302 0.70847 0.16422 0.0
H5727 H 0.43405 0.71209 0.22128 0.0
H5728 H 0.3942 0.68861 0.19198 0.0
H5729 H 0.43707 0.7363 0.19597 0.0
H5730 H 0.42108 0.7019 0.20992 0.0
H5731 H 0.41721 0.71729 0.17504 0.0
C5732 C 0.40404 0.70597 0.1726 0.0
C5733 C 0.3973 0.69785 0.17721 0.0
C5734 C 0.42462 0.70942 0.20685 0.0
C5735 C 0.41368 0.70784 0.18962 0.0
C5736 C 0.43201 0.71521 0.21331 0.0
C5737 C 0.4366 0.72506 0.20957 0.0
C5738 C 0.42186 0.71347 0.19655 0.0
C5739 C 0.43372 0.72875 0.19918 0.0
C5740 C 0.41219 0.71098 0.17876 0.0
C5741 C 0.39923 0.69477 0.18804 0.0
N5742 N 0.42653 0.72296 0.19304 0.0
N5743 N 0.40721 0.6998 0.19389 0.0
loop_
_geom_bond_atom_site_label_1
_geom_bond_atom_site_label_2
_geom_bond_distance
_geom_bond_site_symmetry_2
_ccdc_geom_bond_type
C0 C1 1.264 . S
C0 C5 1.479 . S
C0 C10 1.465 . S
C1 C0 1.264 . S
C1 C3 1.339 . S
C1 H28 0.931 . S
C2 C3 1.395 . S
C2 C4 1.320 . S
C3 C1 1.339 . S
C3 C2 1.395 . S
C3 H29 0.929 . S
C4 C2 1.320 . S
C4 C5 1.405 . S
C4 H30 0.930 . S
C5 C0 1.479 . S
C5 C4 1.405 . S
C5 H31 0.931 . S
U6 O7 2.454 . S
U6 O8 2.458 . S
U6 C9 2.984 . S
U6 C10 2.847 . S
U6 C23 2.882 . S
U6 O24 2.441 . S
U6 O25 2.420 . S
U6 O26 2.455 . S
U6 O27 2.449 . S
O7 U6 2.454 . S
O7 C9 1.353 . S
O8 U6 2.458 . S
O8 C9 1.286 . S
C9 U6 2.984 . S
C9 O7 1.353 . S
C9 O8 1.286 . S
C9 C11 1.363 . S
C10 C0 1.465 . S
C10 U6 2.847 . S
C10 O24 1.249 . S
C10 O25 1.202 . S
C11 C9 1.363 . S
C11 C13 1.408 . S
C11 C16 1.342 . S
C12 C13 1.310 . S
C12 C15 1.461 . S
C12 H32 0.932 . S
C13 C11 1.408 . S
C13 C12 1.310 . S
C13 H33 0.930 . S
C14 C15 1.474 . S
C14 C16 1.285 . S
C14 H34 0.929 . S
C15 C12 1.461 . S
C15 C14 1.474 . S
C16 C11 1.342 . S
C16 C14 1.285 . S
C16 H35 0.930 . S
C17 C20 1.424 . S
C17 C22 1.245 . S
C17 C23 1.428 . S
C18 C21 1.260 . S
C18 C22 1.477 . S
C18 H36 0.932 . S
C19 C20 1.384 . S
C19 C21 1.479 . S
C19 H37 0.929 . S
C20 C17 1.424 . S
C20 C19 1.384 . S
C20 H38 0.928 . S
C21 C18 1.260 . S
C21 C19 1.479 . S
C22 C17 1.245 . S
C22 C18 1.477 . S
C22 H39 0.932 . S
C23 U6 2.882 . S
C23 C17 1.428 . S
C23 O26 1.301 . S
C23 O27 1.282 . S
O24 U6 2.441 . S
O24 C10 1.249 . S
O25 U6 2.420 . S
O25 C10 1.202 . S
O26 U6 2.455 . S
O26 C23 1.301 . S
O27 U6 2.449 . S
O27 C23 1.282 . S
H28 C1 0.931 . S
H29 C3 0.929 . S
H30 C4 0.930 . S
H31 C5 0.931 . S
H32 C12 0.932 . S
H33 C13 0.930 . S
H34 C14 0.929 . S
H35 C16 0.930 . S
H36 C18 0.932 . S
H37 C19 0.929 . S
H38 C20 0.928 . S
H39 C22 0.932 . S
C40 C41 1.264 . S
C40 C45 1.479 . S
C40 C50 1.465 . S
C41 C40 1.264 . S
C41 C43 1.339 . S
C41 H68 0.931 . S
C42 C43 1.395 . S
C42 C44 1.320 . S
C43 C41 1.339 . S
C43 C42 1.395 . S
C43 H69 0.929 . S
C44 C42 1.320 . S
C44 C45 1.405 . S
C44 H70 0.930 . S
C45 C40 1.479 . S
C45 C44 1.405 . S
C45 H71 0.931 . S
U46 O47 2.454 . S
U46 O48 2.458 . S
U46 C49 2.984 . S
U46 C50 2.847 . S
U46 C63 2.882 . S
U46 O64 2.441 . S
U46 O65 2.420 . S
U46 O66 2.455 . S
U46 O67 2.449 . S
O47 U46 2.454 . S
O47 C49 1.353 . S
O48 U46 2.458 . S
O48 C49 1.286 . S
C49 U46 2.984 . S
C49 O47 1.353 . S
C49 O48 1.286 . S
C49 C51 1.363 . S
C50 C40 1.465 . S
C50 U46 2.847 . S
C50 O64 1.249 . S
C50 O65 1.202 . S
C51 C49 1.363 . S
C51 C53 1.408 . S
C51 C56 1.342 . S
C52 C53 1.310 . S
C52 C55 1.461 . S
C52 H72 0.932 . S
C53 C51 1.408 . S
C53 C52 1.310 . S
C53 H73 0.930 . S
C54 C55 1.474 . S
C54 C56 1.285 . S
C54 H74 0.929 . S
C55 C52 1.461 . S
C55 C54 1.474 . S
C56 C51 1.342 . S
C56 C54 1.285 . S
C56 H75 0.930 . S
C57 C60 1.424 . S
C57 C62 1.245 . S
C57 C63 1.428 . S
C58 C61 1.260 . S
C58 C62 1.477 . S
C58 H76 0.932 . S
C59 C60 1.384 . S
C59 C61 1.479 . S
C59 H77 0.929 . S
C60 C57 1.424 . S
C60 C59 1.384 . S
C60 H78 0.928 . S
C61 C58 1.260 . S
C61 C59 1.479 . S
C62 C57 1.245 . S
C62 C58 1.477 . S
C62 H79 0.932 . S
C63 U46 2.882 . S
C63 C57 1.428 . S
C63 O66 1.301 . S
C63 O67 1.282 . S
O64 U46 2.441 . S
O64 C50 1.249 . S
O65 U46 2.420 . S
O65 C50 1.202 . S
O66 U46 2.455 . S
O66 C63 1.301 . S
O67 U46 2.449 . S
O67 C63 1.282 . S
H68 C41 0.931 . S
H69 C43 0.929 . S
H70 C44 0.930 . S
H71 C45 0.931 . S
H72 C52 0.932 . S
H73 C53 0.930 . S
H74 C54 0.929 . S
H75 C56 0.930 . S
H76 C58 0.932 . S
H77 C59 0.929 . S
H78 C60 0.928 . S
H79 C62 0.932 . S
C80 C81 1.264 . S
C80 C85 1.479 . S
C80 C90 1.465 . S
C81 C80 1.264 . S
C81 C83 1.339 . S
C81 H108 0.931 . S
C82 C83 1.395 . S
C82 C84 1.320 . S
C83 C81 1.339 . S
C83 C82 1.395 . S
C83 H109 0.929 . S
C84 C82 1.320 . S
C84 C85 1.405 . S
C84 H110 0.930 . S
C85 C80 1.479 . S
C85 C84 1.405 . S
C85 H111 0.931 . S
U86 O87 2.454 . S
U86 O88 2.458 . S
U86 C89 2.984 . S
U86 C90 2.847 . S
U86 C103 2.882 . S
U86 O104 2.441 . S
U86 O105 2.420 . S
U86 O106 2.455 . S
U86 O107 2.449 . S
O87 U86 2.454 . S
O87 C89 1.353 . S
O88 U86 2.458 . S
O88 C89 1.286 . S
C89 U86 2.984 . S
C89 O87 1.353 . S
C89 O88 1.286 . S
C89 C91 1.363 . S
C90 C80 1.465 . S
C90 U86 2.847 . S
C90 O104 1.249 . S
C90 O105 1.202 . S
C91 C89 1.363 . S
C91 C93 1.408 . S
C91 C96 1.342 . S
C92 C93 1.310 . S
C92 C95 1.461 . S
C92 H112 0.932 . S
C93 C91 1.408 . S
C93 C92 1.310 . S
C93 H113 0.930 . S
C94 C95 1.474 . S
C94 C96 1.285 . S
C94 H114 0.929 . S
C95 C92 1.461 . S
C95 C94 1.474 . S
C96 C91 1.342 . S
C96 C94 1.285 . S
C96 H115 0.930 . S
C97 C100 1.424 . S
C97 C102 1.245 . S
C97 C103 1.428 . S
C98 C101 1.260 . S
C98 C102 1.477 . S
C98 H116 0.932 . S
C99 C100 1.384 . S
C99 C101 1.479 . S
C99 H117 0.929 . S
C100 C97 1.424 . S
C100 C99 1.384 . S
C100 H118 0.928 . S
C101 C98 1.260 . S
C101 C99 1.479 . S
C102 C97 1.245 . S
C102 C98 1.477 . S
C102 H119 0.932 . S
C103 U86 2.882 . S
C103 C97 1.428 . S
C103 O106 1.301 . S
C103 O107 1.282 . S
O104 U86 2.441 . S
O104 C90 1.249 . S
O105 U86 2.420 . S
O105 C90 1.202 . S
O106 U86 2.455 . S
O106 C103 1.301 . S
O107 U86 2.449 . S
O107 C103 1.282 . S
H108 C81 0.931 . S
H109 C83 0.929 . S
H110 C84 0.930 . S
H111 C85 0.931 . S
H112 C92 0.932 . S
H113 C93 0.930 . S
H114 C94 0.929 . S
H115 C96 0.930 . S
H116 C98 0.932 . S
H117 C99 0.929 . S
H118 C100 0.928 . S
H119 C102 0.932 . S
C120 C121 1.264 . S
C120 C125 1.479 . S
C120 C130 1.465 . S
C121 C120 1.264 . S
C121 C123 1.339 . S
C121 H148 0.931 . S
C122 C123 1.395 . S
C122 C124 1.320 . S
C123 C121 1.339 . S
C123 C122 1.395 . S
C123 H149 0.929 . S
C124 C122 1.320 . S
C124 C125 1.405 . S
C124 H150 0.930 . S
C125 C120 1.479 . S
C125 C124 1.405 . S
C125 H151 0.931 . S
U126 O127 2.454 . S
U126 O128 2.458 . S
U126 C129 2.984 . S
U126 C130 2.847 . S
U126 C143 2.882 . S
U126 O144 2.441 . S
U126 O145 2.420 . S
U126 O146 2.455 . S
U126 O147 2.449 . S
O127 U126 2.454 . S
O127 C129 1.353 . S
O128 U126 2.458 . S
O128 C129 1.286 . S
C129 U126 2.984 . S
C129 O127 1.353 . S
C129 O128 1.286 . S
C129 C131 1.363 . S
C130 C120 1.465 . S
C130 U126 2.847 . S
C130 O144 1.249 . S
C130 O145 1.202 . S
C131 C129 1.363 . S
C131 C133 1.408 . S
C131 C136 1.342 . S
C132 C133 1.310 . S
C132 C135 1.461 . S
C132 H152 0.932 . S
C133 C131 1.408 . S
C133 C132 1.310 . S
C133 H153 0.930 . S
C134 C135 1.474 . S
C134 C136 1.285 . S
C134 H154 0.929 . S
C135 C132 1.461 . S
C135 C134 1.474 . S
C136 C131 1.342 . S
C136 C134 1.285 . S
C136 H155 0.930 . S
C137 C140 1.424 . S
C137 C142 1.245 . S
C137 C143 1.428 . S
C138 C141 1.260 . S
C138 C142 1.477 . S
C138 H156 0.932 . S
C139 C140 1.384 . S
C139 C141 1.479 . S
C139 H157 0.929 . S
C140 C137 1.424 . S
C140 C139 1.384 . S
C140 H158 0.928 . S
C141 C138 1.260 . S
C141 C139 1.479 . S
C142 C137 1.245 . S
C142 C138 1.477 . S
C142 H159 0.932 . S
C143 U126 2.882 . S
C143 C137 1.428 . S
C143 O146 1.301 . S
C143 O147 1.282 . S
O144 U126 2.441 . S
O144 C130 1.249 . S
O145 U126 2.420 . S
O145 C130 1.202 . S
O146 U126 2.455 . S
O146 C143 1.301 . S
O147 U126 2.449 . S
O147 C143 1.282 . S
H148 C121 0.931 . S
H149 C123 0.929 . S
H150 C124 0.930 . S
H151 C125 0.931 . S
H152 C132 0.932 . S
H153 C133 0.930 . S
H154 C134 0.929 . S
H155 C136 0.930 . S
H156 C138 0.932 . S
H157 C139 0.929 . S
H158 C140 0.928 . S
H159 C142 0.932 . S
C160 C161 1.264 . S
C160 C165 1.479 . S
C160 C170 1.465 . S
C161 C160 1.264 . S
C161 C163 1.339 . S
C161 H188 0.931 . S
C162 C163 1.395 . S
C162 C164 1.320 . S
C163 C161 1.339 . S
C163 C162 1.395 . S
C163 H189 0.929 . S
C164 C162 1.320 . S
C164 C165 1.405 . S
C164 H190 0.930 . S
C165 C160 1.479 . S
C165 C164 1.405 . S
C165 H191 0.931 . S
U166 O167 2.454 . S
U166 O168 2.458 . S
U166 C169 2.984 . S
U166 C170 2.847 . S
U166 C183 2.882 . S
U166 O184 2.441 . S
U166 O185 2.420 . S
U166 O186 2.455 . S
U166 O187 2.449 . S
O167 U166 2.454 . S
O167 C169 1.353 . S
O168 U166 2.458 . S
O168 C169 1.286 . S
C169 U166 2.984 . S
C169 O167 1.353 . S
C169 O168 1.286 . S
C169 C171 1.363 . S
C170 C160 1.465 . S
C170 U166 2.847 . S
C170 O184 1.249 . S
C170 O185 1.202 . S
C171 C169 1.363 . S
C171 C173 1.408 . S
C171 C176 1.342 . S
C172 C173 1.310 . S
C172 C175 1.461 . S
C172 H192 0.932 . S
C173 C171 1.408 . S
C173 C172 1.310 . S
C173 H193 0.930 . S
C174 C175 1.474 . S
C174 C176 1.285 . S
C174 H194 0.929 . S
C175 C172 1.461 . S
C175 C174 1.474 . S
C176 C171 1.342 . S
C176 C174 1.285 . S
C176 H195 0.930 . S
C177 C180 1.424 . S
C177 C182 1.245 . S
C177 C183 1.428 . S
C178 C181 1.260 . S
C178 C182 1.477 . S
C178 H196 0.932 . S
C179 C180 1.384 . S
C179 C181 1.479 . S
C179 H197 0.929 . S
C180 C177 1.424 . S
C180 C179 1.384 . S
C180 H198 0.928 . S
C181 C178 1.260 . S
C181 C179 1.479 . S
C182 C177 1.245 . S
C182 C178 1.477 . S
C182 H199 0.932 . S
C183 U166 2.882 . S
C183 C177 1.428 . S
C183 O186 1.301 . S
C183 O187 1.282 . S
O184 U166 2.441 . S
O184 C170 1.249 . S
O185 U166 2.420 . S
O185 C170 1.202 . S
O186 U166 2.455 . S
O186 C183 1.301 . S
O187 U166 2.449 . S
O187 C183 1.282 . S
H188 C161 0.931 . S
H189 C163 0.929 . S
H190 C164 0.930 . S
H191 C165 0.931 . S
H192 C172 0.932 . S
H193 C173 0.930 . S
H194 C174 0.929 . S
H195 C176 0.930 . S
H196 C178 0.932 . S
H197 C179 0.929 . S
H198 C180 0.928 . S
H199 C182 0.932 . S
C200 C201 1.264 . S
C200 C205 1.479 . S
C200 C210 1.465 . S
C201 C200 1.264 . S
C201 C203 1.339 . S
C201 H228 0.931 . S
C202 C203 1.395 . S
C202 C204 1.320 . S
C203 C201 1.339 . S
C203 C202 1.395 . S
C203 H229 0.929 . S
C204 C202 1.320 . S
C204 C205 1.405 . S
C204 H230 0.930 . S
C205 C200 1.479 . S
C205 C204 1.405 . S
C205 H231 0.931 . S
U206 O207 2.454 . S
U206 O208 2.458 . S
U206 C209 2.984 . S
U206 C210 2.847 . S
U206 C223 2.882 . S
U206 O224 2.441 . S
U206 O225 2.420 . S
U206 O226 2.455 . S
U206 O227 2.449 . S
O207 U206 2.454 . S
O207 C209 1.353 . S
O208 U206 2.458 . S
O208 C209 1.286 . S
C209 U206 2.984 . S
C209 O207 1.353 . S
C209 O208 1.286 . S
C209 C211 1.363 . S
C210 C200 1.465 . S
C210 U206 2.847 . S
C210 O224 1.249 . S
C210 O225 1.202 . S
C211 C209 1.363 . S
C211 C213 1.408 . S
C211 C216 1.342 . S
C212 C213 1.310 . S
C212 C215 1.461 . S
C212 H232 0.932 . S
C213 C211 1.408 . S
C213 C212 1.310 . S
C213 H233 0.930 . S
C214 C215 1.474 . S
C214 C216 1.285 . S
C214 H234 0.929 . S
C215 C212 1.461 . S
C215 C214 1.474 . S
C216 C211 1.342 . S
C216 C214 1.285 . S
C216 H235 0.930 . S
C217 C220 1.424 . S
C217 C222 1.245 . S
C217 C223 1.428 . S
C218 C221 1.260 . S
C218 C222 1.477 . S
C218 H236 0.932 . S
C219 C220 1.384 . S
C219 C221 1.479 . S
C219 H237 0.929 . S
C220 C217 1.424 . S
C220 C219 1.384 . S
C220 H238 0.928 . S
C221 C218 1.260 . S
C221 C219 1.479 . S
C222 C217 1.245 . S
C222 C218 1.477 . S
C222 H239 0.932 . S
C223 U206 2.882 . S
C223 C217 1.428 . S
C223 O226 1.301 . S
C223 O227 1.282 . S
O224 U206 2.441 . S
O224 C210 1.249 . S
O225 U206 2.420 . S
O225 C210 1.202 . S
O226 U206 2.455 . S
O226 C223 1.301 . S
O227 U206 2.449 . S
O227 C223 1.282 . S
H228 C201 0.931 . S
H229 C203 0.929 . S
H230 C204 0.930 . S
H231 C205 0.931 . S
H232 C212 0.932 . S
H233 C213 0.930 . S
H234 C214 0.929 . S
H235 C216 0.930 . S
H236 C218 0.932 . S
H237 C219 0.929 . S
H238 C220 0.928 . S
H239 C222 0.932 . S
C240 C241 1.264 . S
C240 C245 1.479 . S
C240 C250 1.465 . S
C241 C240 1.264 . S
C241 C243 1.339 . S
C241 H268 0.931 . S
C242 C243 1.395 . S
C242 C244 1.320 . S
C243 C241 1.339 . S
C243 C242 1.395 . S
C243 H269 0.929 . S
C244 C242 1.320 . S
C244 C245 1.405 . S
C244 H270 0.930 . S
C245 C240 1.479 . S
C245 C244 1.405 . S
C245 H271 0.931 . S
U246 O247 2.454 . S
U246 O248 2.458 . S
U246 C249 2.984 . S
U246 C250 2.847 . S
U246 C263 2.882 . S
U246 O264 2.441 . S
U246 O265 2.420 . S
U246 O266 2.455 . S
U246 O267 2.449 . S
O247 U246 2.454 . S
O247 C249 1.353 . S
O248 U246 2.458 . S
O248 C249 1.286 . S
C249 U246 2.984 . S
C249 O247 1.353 . S
C249 O248 1.286 . S
C249 C251 1.363 . S
C250 C240 1.465 . S
C250 U246 2.847 . S
C250 O264 1.249 . S
C250 O265 1.202 . S
C251 C249 1.363 . S
C251 C253 1.408 . S
C251 C256 1.342 . S
C252 C253 1.310 . S
C252 C255 1.461 . S
C252 H272 0.932 . S
C253 C251 1.408 . S
C253 C252 1.310 . S
C253 H273 0.930 . S
C254 C255 1.474 . S
C254 C256 1.285 . S
C254 H274 0.929 . S
C255 C252 1.461 . S
C255 C254 1.474 . S
C256 C251 1.342 . S
C256 C254 1.285 . S
C256 H275 0.930 . S
C257 C260 1.424 . S
C257 C262 1.245 . S
C257 C263 1.428 . S
C258 C261 1.260 . S
C258 C262 1.477 . S
C258 H276 0.932 . S
C259 C260 1.384 . S
C259 C261 1.479 . S
C259 H277 0.929 . S
C260 C257 1.424 . S
C260 C259 1.384 . S
C260 H278 0.928 . S
C261 C258 1.260 . S
C261 C259 1.479 . S
C262 C257 1.245 . S
C262 C258 1.477 . S
C262 H279 0.932 . S
C263 U246 2.882 . S
C263 C257 1.428 . S
C263 O266 1.301 . S
C263 O267 1.282 . S
O264 U246 2.441 . S
O264 C250 1.249 . S
O265 U246 2.420 . S
O265 C250 1.202 . S
O266 U246 2.455 . S
O266 C263 1.301 . S
O267 U246 2.449 . S
O267 C263 1.282 . S
H268 C241 0.931 . S
H269 C243 0.929 . S
H270 C244 0.930 . S
H271 C245 0.931 . S
H272 C252 0.932 . S
H273 C253 0.930 . S
H274 C254 0.929 . S
H275 C256 0.930 . S
H276 C258 0.932 . S
H277 C259 0.929 . S
H278 C260 0.928 . S
H279 C262 0.932 . S
C280 C281 1.264 . S
C280 C285 1.479 . S
C280 C290 1.465 . S
C281 C280 1.264 . S
C281 C283 1.339 . S
C281 H308 0.931 . S
C282 C283 1.395 . S
C282 C284 1.320 . S
C283 C281 1.339 . S
C283 C282 1.395 . S
C283 H309 0.929 . S
C284 C282 1.320 . S
C284 C285 1.405 . S
C284 H310 0.930 . S
C285 C280 1.479 . S
C285 C284 1.405 . S
C285 H311 0.931 . S
U286 O287 2.454 . S
U286 O288 2.458 . S
U286 C289 2.984 . S
U286 C290 2.847 . S
U286 C303 2.882 . S
U286 O304 2.441 . S
U286 O305 2.420 . S
U286 O306 2.455 . S
U286 O307 2.449 . S
O287 U286 2.454 . S
O287 C289 1.353 . S
O288 U286 2.458 . S
O288 C289 1.286 . S
C289 U286 2.984 . S
C289 O287 1.353 . S
C289 O288 1.286 . S
C289 C291 1.363 . S
C290 C280 1.465 . S
C290 U286 2.847 . S
C290 O304 1.249 . S
C290 O305 1.202 . S
C291 C289 1.363 . S
C291 C293 1.408 . S
C291 C296 1.342 . S
C292 C293 1.310 . S
C292 C295 1.461 . S
C292 H312 0.932 . S
C293 C291 1.408 . S
C293 C292 1.310 . S
C293 H313 0.930 . S
C294 C295 1.474 . S
C294 C296 1.285 . S
C294 H314 0.929 . S
C295 C292 1.461 . S
C295 C294 1.474 . S
C296 C291 1.342 . S
C296 C294 1.285 . S
C296 H315 0.930 . S
C297 C300 1.424 . S
C297 C302 1.245 . S
C297 C303 1.428 . S
C298 C301 1.260 . S
C298 C302 1.477 . S
C298 H316 0.932 . S
C299 C300 1.384 . S
C299 C301 1.479 . S
C299 H317 0.929 . S
C300 C297 1.424 . S
C300 C299 1.384 . S
C300 H318 0.928 . S
C301 C298 1.260 . S
C301 C299 1.479 . S
C302 C297 1.245 . S
C302 C298 1.477 . S
C302 H319 0.932 . S
C303 U286 2.882 . S
C303 C297 1.428 . S
C303 O306 1.301 . S
C303 O307 1.282 . S
O304 U286 2.441 . S
O304 C290 1.249 . S
O305 U286 2.420 . S
O305 C290 1.202 . S
O306 U286 2.455 . S
O306 C303 1.301 . S
O307 U286 2.449 . S
O307 C303 1.282 . S
H308 C281 0.931 . S
H309 C283 0.929 . S
H310 C284 0.930 . S
H311 C285 0.931 . S
H312 C292 0.932 . S
H313 C293 0.930 . S
H314 C294 0.929 . S
H315 C296 0.930 . S
H316 C298 0.932 . S
H317 C299 0.929 . S
H318 C300 0.928 . S
H319 C302 0.932 . S
C320 C321 1.264 . S
C320 C325 1.479 . S
C320 C330 1.465 . S
C321 C320 1.264 . S
C321 C323 1.339 . S
C321 H348 0.931 . S
C322 C323 1.395 . S
C322 C324 1.320 . S
C323 C321 1.339 . S
C323 C322 1.395 . S
C323 H349 0.929 . S
C324 C322 1.320 . S
C324 C325 1.405 . S
C324 H350 0.930 . S
C325 C320 1.479 . S
C325 C324 1.405 . S
C325 H351 0.931 . S
U326 O327 2.454 . S
U326 O328 2.458 . S
U326 C329 2.984 . S
U326 C330 2.847 . S
U326 C343 2.882 . S
U326 O344 2.441 . S
U326 O345 2.420 . S
U326 O346 2.455 . S
U326 O347 2.449 . S
O327 U326 2.454 . S
O327 C329 1.353 . S
O328 U326 2.458 . S
O328 C329 1.286 . S
C329 U326 2.984 . S
C329 O327 1.353 . S
C329 O328 1.286 . S
C329 C331 1.363 . S
C330 C320 1.465 . S
C330 U326 2.847 . S
C330 O344 1.249 . S
C330 O345 1.202 . S
C331 C329 1.363 . S
C331 C333 1.408 . S
C331 C336 1.342 . S
C332 C333 1.310 . S
C332 C335 1.461 . S
C332 H352 0.932 . S
C333 C331 1.408 . S
C333 C332 1.310 . S
C333 H353 0.930 . S
C334 C335 1.474 . S
C334 C336 1.285 . S
C334 H354 0.929 . S
C335 C332 1.461 . S
C335 C334 1.474 . S
C336 C331 1.342 . S
C336 C334 1.285 . S
C336 H355 0.930 . S
C337 C340 1.424 . S
C337 C342 1.245 . S
C337 C343 1.428 . S
C338 C341 1.260 . S
C338 C342 1.477 . S
C338 H356 0.932 . S
C339 C340 1.384 . S
C339 C341 1.479 . S
C339 H357 0.929 . S
C340 C337 1.424 . S
C340 C339 1.384 . S
C340 H358 0.928 . S
C341 C338 1.260 . S
C341 C339 1.479 . S
C342 C337 1.245 . S
C342 C338 1.477 . S
C342 H359 0.932 . S
C343 U326 2.882 . S
C343 C337 1.428 . S
C343 O346 1.301 . S
C343 O347 1.282 . S
O344 U326 2.441 . S
O344 C330 1.249 . S
O345 U326 2.420 . S
O345 C330 1.202 . S
O346 U326 2.455 . S
O346 C343 1.301 . S
O347 U326 2.449 . S
O347 C343 1.282 . S
H348 C321 0.931 . S
H349 C323 0.929 . S
H350 C324 0.930 . S
H351 C325 0.931 . S
H352 C332 0.932 . S
H353 C333 0.930 . S
H354 C334 0.929 . S
H355 C336 0.930 . S
H356 C338 0.932 . S
H357 C339 0.929 . S
H358 C340 0.928 . S
H359 C342 0.932 . S
C360 C361 1.264 . S
C360 C365 1.479 . S
C360 C370 1.465 . S
C361 C360 1.264 . S
C361 C363 1.339 . S
C361 H388 0.931 . S
C362 C363 1.395 . S
C362 C364 1.320 . S
C363 C361 1.339 . S
C363 C362 1.395 . S
C363 H389 0.929 . S
C364 C362 1.320 . S
C364 C365 1.405 . S
C364 H390 0.930 . S
C365 C360 1.479 . S
C365 C364 1.405 . S
C365 H391 0.931 . S
U366 O367 2.454 . S
U366 O368 2.458 . S
U366 C369 2.984 . S
U366 C370 2.847 . S
U366 C383 2.882 . S
U366 O384 2.441 . S
U366 O385 2.420 . S
U366 O386 2.455 . S
U366 O387 2.449 . S
O367 U366 2.454 . S
O367 C369 1.353 . S
O368 U366 2.458 . S
O368 C369 1.286 . S
C369 U366 2.984 . S
C369 O367 1.353 . S
C369 O368 1.286 . S
C369 C371 1.363 . S
C370 C360 1.465 . S
C370 U366 2.847 . S
C370 O384 1.249 . S
C370 O385 1.202 . S
C371 C369 1.363 . S
C371 C373 1.408 . S
C371 C376 1.342 . S
C372 C373 1.310 . S
C372 C375 1.461 . S
C372 H392 0.932 . S
C373 C371 1.408 . S
C373 C372 1.310 . S
C373 H393 0.930 . S
C374 C375 1.474 . S
C374 C376 1.285 . S
C374 H394 0.929 . S
C375 C372 1.461 . S
C375 C374 1.474 . S
C376 C371 1.342 . S
C376 C374 1.285 . S
C376 H395 0.930 . S
C377 C380 1.424 . S
C377 C382 1.245 . S
C377 C383 1.428 . S
C378 C381 1.260 . S
C378 C382 1.477 . S
C378 H396 0.932 . S
C379 C380 1.384 . S
C379 C381 1.479 . S
C379 H397 0.929 . S
C380 C377 1.424 . S
C380 C379 1.384 . S
C380 H398 0.928 . S
C381 C378 1.260 . S
C381 C379 1.479 . S
C382 C377 1.245 . S
C382 C378 1.477 . S
C382 H399 0.932 . S
C383 U366 2.882 . S
C383 C377 1.428 . S
C383 O386 1.301 . S
C383 O387 1.282 . S
O384 U366 2.441 . S
O384 C370 1.249 . S
O385 U366 2.420 . S
O385 C370 1.202 . S
O386 U366 2.455 . S
O386 C383 1.301 . S
O387 U366 2.449 . S
O387 C383 1.282 . S
H388 C361 0.931 . S
H389 C363 0.929 . S
H390 C364 0.930 . S
H391 C365 0.931 . S
H392 C372 0.932 . S
H393 C373 0.930 . S
H394 C374 0.929 . S
H395 C376 0.930 . S
H396 C378 0.932 . S
H397 C379 0.929 . S
H398 C380 0.928 . S
H399 C382 0.932 . S
C400 C401 1.264 . S
C400 C405 1.479 . S
C400 C410 1.465 . S
C401 C400 1.264 . S
C401 C403 1.339 . S
C401 H428 0.931 . S
C402 C403 1.395 . S
C402 C404 1.320 . S
C403 C401 1.339 . S
C403 C402 1.395 . S
C403 H429 0.929 . S
C404 C402 1.320 . S
C404 C405 1.405 . S
C404 H430 0.930 . S
C405 C400 1.479 . S
C405 C404 1.405 . S
C405 H431 0.931 . S
U406 O407 2.454 . S
U406 O408 2.458 . S
U406 C409 2.984 . S
U406 C410 2.847 . S
U406 C423 2.882 . S
U406 O424 2.441 . S
U406 O425 2.420 . S
U406 O426 2.455 . S
U406 O427 2.449 . S
O407 U406 2.454 . S
O407 C409 1.353 . S
O408 U406 2.458 . S
O408 C409 1.286 . S
C409 U406 2.984 . S
C409 O407 1.353 . S
C409 O408 1.286 . S
C409 C411 1.363 . S
C410 C400 1.465 . S
C410 U406 2.847 . S
C410 O424 1.249 . S
C410 O425 1.202 . S
C411 C409 1.363 . S
C411 C413 1.408 . S
C411 C416 1.342 . S
C412 C413 1.310 . S
C412 C415 1.461 . S
C412 H432 0.932 . S
C413 C411 1.408 . S
C413 C412 1.310 . S
C413 H433 0.930 . S
C414 C415 1.474 . S
C414 C416 1.285 . S
C414 H434 0.929 . S
C415 C412 1.461 . S
C415 C414 1.474 . S
C416 C411 1.342 . S
C416 C414 1.285 . S
C416 H435 0.930 . S
C417 C420 1.424 . S
C417 C422 1.245 . S
C417 C423 1.428 . S
C418 C421 1.260 . S
C418 C422 1.477 . S
C418 H436 0.932 . S
C419 C420 1.384 . S
C419 C421 1.479 . S
C419 H437 0.929 . S
C420 C417 1.424 . S
C420 C419 1.384 . S
C420 H438 0.928 . S
C421 C418 1.260 . S
C421 C419 1.479 . S
C422 C417 1.245 . S
C422 C418 1.477 . S
C422 H439 0.932 . S
C423 U406 2.882 . S
C423 C417 1.428 . S
C423 O426 1.301 . S
C423 O427 1.282 . S
O424 U406 2.441 . S
O424 C410 1.249 . S
O425 U406 2.420 . S
O425 C410 1.202 . S
O426 U406 2.455 . S
O426 C423 1.301 . S
O427 U406 2.449 . S
O427 C423 1.282 . S
H428 C401 0.931 . S
H429 C403 0.929 . S
H430 C404 0.930 . S
H431 C405 0.931 . S
H432 C412 0.932 . S
H433 C413 0.930 . S
H434 C414 0.929 . S
H435 C416 0.930 . S
H436 C418 0.932 . S
H437 C419 0.929 . S
H438 C420 0.928 . S
H439 C422 0.932 . S
C440 C441 1.264 . S
C440 C445 1.479 . S
C440 C450 1.465 . S
C441 C440 1.264 . S
C441 C443 1.339 . S
C441 H468 0.931 . S
C442 C443 1.395 . S
C442 C444 1.320 . S
C443 C441 1.339 . S
C443 C442 1.395 . S
C443 H469 0.929 . S
C444 C442 1.320 . S
C444 C445 1.405 . S
C444 H470 0.930 . S
C445 C440 1.479 . S
C445 C444 1.405 . S
C445 H471 0.931 . S
U446 O447 2.454 . S
U446 O448 2.458 . S
U446 C449 2.984 . S
U446 C450 2.847 . S
U446 C463 2.882 . S
U446 O464 2.441 . S
U446 O465 2.420 . S
U446 O466 2.455 . S
U446 O467 2.449 . S
O447 U446 2.454 . S
O447 C449 1.353 . S
O448 U446 2.458 . S
O448 C449 1.286 . S
C449 U446 2.984 . S
C449 O447 1.353 . S
C449 O448 1.286 . S
C449 C451 1.363 . S
C450 C440 1.465 . S
C450 U446 2.847 . S
C450 O464 1.249 . S
C450 O465 1.202 . S
C451 C449 1.363 . S
C451 C453 1.408 . S
C451 C456 1.342 . S
C452 C453 1.310 . S
C452 C455 1.461 . S
C452 H472 0.932 . S
C453 C451 1.408 . S
C453 C452 1.310 . S
C453 H473 0.930 . S
C454 C455 1.474 . S
C454 C456 1.285 . S
C454 H474 0.929 . S
C455 C452 1.461 . S
C455 C454 1.474 . S
C456 C451 1.342 . S
C456 C454 1.285 . S
C456 H475 0.930 . S
C457 C460 1.424 . S
C457 C462 1.245 . S
C457 C463 1.428 . S
C458 C461 1.260 . S
C458 C462 1.477 . S
C458 H476 0.932 . S
C459 C460 1.384 . S
C459 C461 1.479 . S
C459 H477 0.929 . S
C460 C457 1.424 . S
C460 C459 1.384 . S
C460 H478 0.928 . S
C461 C458 1.260 . S
C461 C459 1.479 . S
C462 C457 1.245 . S
C462 C458 1.477 . S
C462 H479 0.932 . S
C463 U446 2.882 . S
C463 C457 1.428 . S
C463 O466 1.301 . S
C463 O467 1.282 . S
O464 U446 2.441 . S
O464 C450 1.249 . S
O465 U446 2.420 . S
O465 C450 1.202 . S
O466 U446 2.455 . S
O466 C463 1.301 . S
O467 U446 2.449 . S
O467 C463 1.282 . S
H468 C441 0.931 . S
H469 C443 0.929 . S
H470 C444 0.930 . S
H471 C445 0.931 . S
H472 C452 0.932 . S
H473 C453 0.930 . S
H474 C454 0.929 . S
H475 C456 0.930 . S
H476 C458 0.932 . S
H477 C459 0.929 . S
H478 C460 0.928 . S
H479 C462 0.932 . S
C480 C481 1.264 . S
C480 C485 1.479 . S
C480 C490 1.465 . S
C481 C480 1.264 . S
C481 C483 1.339 . S
C481 H508 0.931 . S
C482 C483 1.395 . S
C482 C484 1.320 . S
C483 C481 1.339 . S
C483 C482 1.395 . S
C483 H509 0.929 . S
C484 C482 1.320 . S
C484 C485 1.405 . S
C484 H510 0.930 . S
C485 C480 1.479 . S
C485 C484 1.405 . S
C485 H511 0.931 . S
U486 O487 2.454 . S
U486 O488 2.458 . S
U486 C489 2.984 . S
U486 C490 2.847 . S
U486 C503 2.882 . S
U486 O504 2.441 . S
U486 O505 2.420 . S
U486 O506 2.455 . S
U486 O507 2.449 . S
O487 U486 2.454 . S
O487 C489 1.353 . S
O488 U486 2.458 . S
O488 C489 1.286 . S
C489 U486 2.984 . S
C489 O487 1.353 . S
C489 O488 1.286 . S
C489 C491 1.363 . S
C490 C480 1.465 . S
C490 U486 2.847 . S
C490 O504 1.249 . S
C490 O505 1.202 . S
C491 C489 1.363 . S
C491 C493 1.408 . S
C491 C496 1.342 . S
C492 C493 1.310 . S
C492 C495 1.461 . S
C492 H512 0.932 . S
C493 C491 1.408 . S
C493 C492 1.310 . S
C493 H513 0.930 . S
C494 C495 1.474 . S
C494 C496 1.285 . S
C494 H514 0.929 . S
C495 C492 1.461 . S
C495 C494 1.474 . S
C496 C491 1.342 . S
C496 C494 1.285 . S
C496 H515 0.930 . S
C497 C500 1.424 . S
C497 C502 1.245 . S
C497 C503 1.428 . S
C498 C501 1.260 . S
C498 C502 1.477 . S
C498 H516 0.932 . S
C499 C500 1.384 . S
C499 C501 1.479 . S
C499 H517 0.929 . S
C500 C497 1.424 . S
C500 C499 1.384 . S
C500 H518 0.928 . S
C501 C498 1.260 . S
C501 C499 1.479 . S
C502 C497 1.245 . S
C502 C498 1.477 . S
C502 H519 0.932 . S
C503 U486 2.882 . S
C503 C497 1.428 . S
C503 O506 1.301 . S
C503 O507 1.282 . S
O504 U486 2.441 . S
O504 C490 1.249 . S
O505 U486 2.420 . S
O505 C490 1.202 . S
O506 U486 2.455 . S
O506 C503 1.301 . S
O507 U486 2.449 . S
O507 C503 1.282 . S
H508 C481 0.931 . S
H509 C483 0.929 . S
H510 C484 0.930 . S
H511 C485 0.931 . S
H512 C492 0.932 . S
H513 C493 0.930 . S
H514 C494 0.929 . S
H515 C496 0.930 . S
H516 C498 0.932 . S
H517 C499 0.929 . S
H518 C500 0.928 . S
H519 C502 0.932 . S
C520 C521 1.264 . S
C520 C525 1.479 . S
C520 C530 1.465 . S
C521 C520 1.264 . S
C521 C523 1.339 . S
C521 H548 0.931 . S
C522 C523 1.395 . S
C522 C524 1.320 . S
C523 C521 1.339 . S
C523 C522 1.395 . S
C523 H549 0.929 . S
C524 C522 1.320 . S
C524 C525 1.405 . S
C524 H550 0.930 . S
C525 C520 1.479 . S
C525 C524 1.405 . S
C525 H551 0.931 . S
U526 O527 2.454 . S
U526 O528 2.458 . S
U526 C529 2.984 . S
U526 C530 2.847 . S
U526 C543 2.882 . S
U526 O544 2.441 . S
U526 O545 2.420 . S
U526 O546 2.455 . S
U526 O547 2.449 . S
O527 U526 2.454 . S
O527 C529 1.353 . S
O528 U526 2.458 . S
O528 C529 1.286 . S
C529 U526 2.984 . S
C529 O527 1.353 . S
C529 O528 1.286 . S
C529 C531 1.363 . S
C530 C520 1.465 . S
C530 U526 2.847 . S
C530 O544 1.249 . S
C530 O545 1.202 . S
C531 C529 1.363 . S
C531 C533 1.408 . S
C531 C536 1.342 . S
C532 C533 1.310 . S
C532 C535 1.461 . S
C532 H552 0.932 . S
C533 C531 1.408 . S
C533 C532 1.310 . S
C533 H553 0.930 . S
C534 C535 1.474 . S
C534 C536 1.285 . S
C534 H554 0.929 . S
C535 C532 1.461 . S
C535 C534 1.474 . S
C536 C531 1.342 . S
C536 C534 1.285 . S
C536 H555 0.930 . S
C537 C540 1.424 . S
C537 C542 1.245 . S
C537 C543 1.428 . S
C538 C541 1.260 . S
C538 C542 1.477 . S
C538 H556 0.932 . S
C539 C540 1.384 . S
C539 C541 1.479 . S
C539 H557 0.929 . S
C540 C537 1.424 . S
C540 C539 1.384 . S
C540 H558 0.928 . S
C541 C538 1.260 . S
C541 C539 1.479 . S
C542 C537 1.245 . S
C542 C538 1.477 . S
C542 H559 0.932 . S
C543 U526 2.882 . S
C543 C537 1.428 . S
C543 O546 1.301 . S
C543 O547 1.282 . S
O544 U526 2.441 . S
O544 C530 1.249 . S
O545 U526 2.420 . S
O545 C530 1.202 . S
O546 U526 2.455 . S
O546 C543 1.301 . S
O547 U526 2.449 . S
O547 C543 1.282 . S
H548 C521 0.931 . S
H549 C523 0.929 . S
H550 C524 0.930 . S
H551 C525 0.931 . S
H552 C532 0.932 . S
H553 C533 0.930 . S
H554 C534 0.929 . S
H555 C536 0.930 . S
H556 C538 0.932 . S
H557 C539 0.929 . S
H558 C540 0.928 . S
H559 C542 0.932 . S
C560 C561 1.264 . S
C560 C565 1.479 . S
C560 C570 1.465 . S
C561 C560 1.264 . S
C561 C563 1.339 . S
C561 H588 0.931 . S
C562 C563 1.395 . S
C562 C564 1.320 . S
C563 C561 1.339 . S
C563 C562 1.395 . S
C563 H589 0.929 . S
C564 C562 1.320 . S
C564 C565 1.405 . S
C564 H590 0.930 . S
C565 C560 1.479 . S
C565 C564 1.405 . S
C565 H591 0.931 . S
U566 O567 2.454 . S
U566 O568 2.458 . S
U566 C569 2.984 . S
U566 C570 2.847 . S
U566 C583 2.882 . S
U566 O584 2.441 . S
U566 O585 2.420 . S
U566 O586 2.455 . S
U566 O587 2.449 . S
O567 U566 2.454 . S
O567 C569 1.353 . S
O568 U566 2.458 . S
O568 C569 1.286 . S
C569 U566 2.984 . S
C569 O567 1.353 . S
C569 O568 1.286 . S
C569 C571 1.363 . S
C570 C560 1.465 . S
C570 U566 2.847 . S
C570 O584 1.249 . S
C570 O585 1.202 . S
C571 C569 1.363 . S
C571 C573 1.408 . S
C571 C576 1.342 . S
C572 C573 1.310 . S
C572 C575 1.461 . S
C572 H592 0.932 . S
C573 C571 1.408 . S
C573 C572 1.310 . S
C573 H593 0.930 . S
C574 C575 1.474 . S
C574 C576 1.285 . S
C574 H594 0.929 . S
C575 C572 1.461 . S
C575 C574 1.474 . S
C576 C571 1.342 . S
C576 C574 1.285 . S
C576 H595 0.930 . S
C577 C580 1.424 . S
C577 C582 1.245 . S
C577 C583 1.428 . S
C578 C581 1.260 . S
C578 C582 1.477 . S
C578 H596 0.932 . S
C579 C580 1.384 . S
C579 C581 1.479 . S
C579 H597 0.929 . S
C580 C577 1.424 . S
C580 C579 1.384 . S
C580 H598 0.928 . S
C581 C578 1.260 . S
C581 C579 1.479 . S
C582 C577 1.245 . S
C582 C578 1.477 . S
C582 H599 0.932 . S
C583 U566 2.882 . S
C583 C577 1.428 . S
C583 O586 1.301 . S
C583 O587 1.282 . S
O584 U566 2.441 . S
O584 C570 1.249 . S
O585 U566 2.420 . S
O585 C570 1.202 . S
O586 U566 2.455 . S
O586 C583 1.301 . S
O587 U566 2.449 . S
O587 C583 1.282 . S
H588 C561 0.931 . S
H589 C563 0.929 . S
H590 C564 0.930 . S
H591 C565 0.931 . S
H592 C572 0.932 . S
H593 C573 0.930 . S
H594 C574 0.929 . S
H595 C576 0.930 . S
H596 C578 0.932 . S
H597 C579 0.929 . S
H598 C580 0.928 . S
H599 C582 0.932 . S
C600 C601 1.264 . S
C600 C605 1.479 . S
C600 C610 1.465 . S
C601 C600 1.264 . S
C601 C603 1.339 . S
C601 H628 0.931 . S
C602 C603 1.395 . S
C602 C604 1.320 . S
C603 C601 1.339 . S
C603 C602 1.395 . S
C603 H629 0.929 . S
C604 C602 1.320 . S
C604 C605 1.405 . S
C604 H630 0.930 . S
C605 C600 1.479 . S
C605 C604 1.405 . S
C605 H631 0.931 . S
U606 O607 2.454 . S
U606 O608 2.458 . S
U606 C609 2.984 . S
U606 C610 2.847 . S
U606 C623 2.882 . S
U606 O624 2.441 . S
U606 O625 2.420 . S
U606 O626 2.455 . S
U606 O627 2.449 . S
O607 U606 2.454 . S
O607 C609 1.353 . S
O608 U606 2.458 . S
O608 C609 1.286 . S
C609 U606 2.984 . S
C609 O607 1.353 . S
C609 O608 1.286 . S
C609 C611 1.363 . S
C610 C600 1.465 . S
C610 U606 2.847 . S
C610 O624 1.249 . S
C610 O625 1.202 . S
C611 C609 1.363 . S
C611 C613 1.408 . S
C611 C616 1.342 . S
C612 C613 1.310 . S
C612 C615 1.461 . S
C612 H632 0.932 . S
C613 C611 1.408 . S
C613 C612 1.310 . S
C613 H633 0.930 . S
C614 C615 1.474 . S
C614 C616 1.285 . S
C614 H634 0.929 . S
C615 C612 1.461 . S
C615 C614 1.474 . S
C616 C611 1.342 . S
C616 C614 1.285 . S
C616 H635 0.930 . S
C617 C620 1.424 . S
C617 C622 1.245 . S
C617 C623 1.428 . S
C618 C621 1.260 . S
C618 C622 1.477 . S
C618 H636 0.932 . S
C619 C620 1.384 . S
C619 C621 1.479 . S
C619 H637 0.929 . S
C620 C617 1.424 . S
C620 C619 1.384 . S
C620 H638 0.928 . S
C621 C618 1.260 . S
C621 C619 1.479 . S
C622 C617 1.245 . S
C622 C618 1.477 . S
C622 H639 0.932 . S
C623 U606 2.882 . S
C623 C617 1.428 . S
C623 O626 1.301 . S
C623 O627 1.282 . S
O624 U606 2.441 . S
O624 C610 1.249 . S
O625 U606 2.420 . S
O625 C610 1.202 . S
O626 U606 2.455 . S
O626 C623 1.301 . S
O627 U606 2.449 . S
O627 C623 1.282 . S
H628 C601 0.931 . S
H629 C603 0.929 . S
H630 C604 0.930 . S
H631 C605 0.931 . S
H632 C612 0.932 . S
H633 C613 0.930 . S
H634 C614 0.929 . S
H635 C616 0.930 . S
H636 C618 0.932 . S
H637 C619 0.929 . S
H638 C620 0.928 . S
H639 C622 0.932 . S
C640 C641 1.264 . S
C640 C645 1.479 . S
C640 C650 1.465 . S
C641 C640 1.264 . S
C641 C643 1.339 . S
C641 H668 0.931 . S
C642 C643 1.395 . S
C642 C644 1.320 . S
C643 C641 1.339 . S
C643 C642 1.395 . S
C643 H669 0.929 . S
C644 C642 1.320 . S
C644 C645 1.405 . S
C644 H670 0.930 . S
C645 C640 1.479 . S
C645 C644 1.405 . S
C645 H671 0.931 . S
U646 O647 2.454 . S
U646 O648 2.458 . S
U646 C649 2.984 . S
U646 C650 2.847 . S
U646 C663 2.882 . S
U646 O664 2.441 . S
U646 O665 2.420 . S
U646 O666 2.455 . S
U646 O667 2.449 . S
O647 U646 2.454 . S
O647 C649 1.353 . S
O648 U646 2.458 . S
O648 C649 1.286 . S
C649 U646 2.984 . S
C649 O647 1.353 . S
C649 O648 1.286 . S
C649 C651 1.363 . S
C650 C640 1.465 . S
C650 U646 2.847 . S
C650 O664 1.249 . S
C650 O665 1.202 . S
C651 C649 1.363 . S
C651 C653 1.408 . S
C651 C656 1.342 . S
C652 C653 1.310 . S
C652 C655 1.461 . S
C652 H672 0.932 . S
C653 C651 1.408 . S
C653 C652 1.310 . S
C653 H673 0.930 . S
C654 C655 1.474 . S
C654 C656 1.285 . S
C654 H674 0.929 . S
C655 C652 1.461 . S
C655 C654 1.474 . S
C656 C651 1.342 . S
C656 C654 1.285 . S
C656 H675 0.930 . S
C657 C660 1.424 . S
C657 C662 1.245 . S
C657 C663 1.428 . S
C658 C661 1.260 . S
C658 C662 1.477 . S
C658 H676 0.932 . S
C659 C660 1.384 . S
C659 C661 1.479 . S
C659 H677 0.929 . S
C660 C657 1.424 . S
C660 C659 1.384 . S
C660 H678 0.928 . S
C661 C658 1.260 . S
C661 C659 1.479 . S
C662 C657 1.245 . S
C662 C658 1.477 . S
C662 H679 0.932 . S
C663 U646 2.882 . S
C663 C657 1.428 . S
C663 O666 1.301 . S
C663 O667 1.282 . S
O664 U646 2.441 . S
O664 C650 1.249 . S
O665 U646 2.420 . S
O665 C650 1.202 . S
O666 U646 2.455 . S
O666 C663 1.301 . S
O667 U646 2.449 . S
O667 C663 1.282 . S
H668 C641 0.931 . S
H669 C643 0.929 . S
H670 C644 0.930 . S
H671 C645 0.931 . S
H672 C652 0.932 . S
H673 C653 0.930 . S
H674 C654 0.929 . S
H675 C656 0.930 . S
H676 C658 0.932 . S
H677 C659 0.929 . S
H678 C660 0.928 . S
H679 C662 0.932 . S
C680 C681 1.264 . S
C680 C685 1.479 . S
C680 C690 1.465 . S
C681 C680 1.264 . S
C681 C683 1.339 . S
C681 H708 0.931 . S
C682 C683 1.395 . S
C682 C684 1.320 . S
C683 C681 1.339 . S
C683 C682 1.395 . S
C683 H709 0.929 . S
C684 C682 1.320 . S
C684 C685 1.405 . S
C684 H710 0.930 . S
C685 C680 1.479 . S
C685 C684 1.405 . S
C685 H711 0.931 . S
U686 O687 2.454 . S
U686 O688 2.458 . S
U686 C689 2.984 . S
U686 C690 2.847 . S
U686 C703 2.882 . S
U686 O704 2.441 . S
U686 O705 2.420 . S
U686 O706 2.455 . S
U686 O707 2.449 . S
O687 U686 2.454 . S
O687 C689 1.353 . S
O688 U686 2.458 . S
O688 C689 1.286 . S
C689 U686 2.984 . S
C689 O687 1.353 . S
C689 O688 1.286 . S
C689 C691 1.363 . S
C690 C680 1.465 . S
C690 U686 2.847 . S
C690 O704 1.249 . S
C690 O705 1.202 . S
C691 C689 1.363 . S
C691 C693 1.408 . S
C691 C696 1.342 . S
C692 C693 1.310 . S
C692 C695 1.461 . S
C692 H712 0.932 . S
C693 C691 1.408 . S
C693 C692 1.310 . S
C693 H713 0.930 . S
C694 C695 1.474 . S
C694 C696 1.285 . S
C694 H714 0.929 . S
C695 C692 1.461 . S
C695 C694 1.474 . S
C696 C691 1.342 . S
C696 C694 1.285 . S
C696 H715 0.930 . S
C697 C700 1.424 . S
C697 C702 1.245 . S
C697 C703 1.428 . S
C698 C701 1.260 . S
C698 C702 1.477 . S
C698 H716 0.932 . S
C699 C700 1.384 . S
C699 C701 1.479 . S
C699 H717 0.929 . S
C700 C697 1.424 . S
C700 C699 1.384 . S
C700 H718 0.928 . S
C701 C698 1.260 . S
C701 C699 1.479 . S
C702 C697 1.245 . S
C702 C698 1.477 . S
C702 H719 0.932 . S
C703 U686 2.882 . S
C703 C697 1.428 . S
C703 O706 1.301 . S
C703 O707 1.282 . S
O704 U686 2.441 . S
O704 C690 1.249 . S
O705 U686 2.420 . S
O705 C690 1.202 . S
O706 U686 2.455 . S
O706 C703 1.301 . S
O707 U686 2.449 . S
O707 C703 1.282 . S
H708 C681 0.931 . S
H709 C683 0.929 . S
H710 C684 0.930 . S
H711 C685 0.931 . S
H712 C692 0.932 . S
H713 C693 0.930 . S
H714 C694 0.929 . S
H715 C696 0.930 . S
H716 C698 0.932 . S
H717 C699 0.929 . S
H718 C700 0.928 . S
H719 C702 0.932 . S
C720 C721 1.264 . S
C720 C725 1.479 . S
C720 C730 1.465 . S
C721 C720 1.264 . S
C721 C723 1.339 . S
C721 H748 0.931 . S
C722 C723 1.395 . S
C722 C724 1.320 . S
C723 C721 1.339 . S
C723 C722 1.395 . S
C723 H749 0.929 . S
C724 C722 1.320 . S
C724 C725 1.405 . S
C724 H750 0.930 . S
C725 C720 1.479 . S
C725 C724 1.405 . S
C725 H751 0.931 . S
U726 O727 2.454 . S
U726 O728 2.458 . S
U726 C729 2.984 . S
U726 C730 2.847 . S
U726 C743 2.882 . S
U726 O744 2.441 . S
U726 O745 2.420 . S
U726 O746 2.455 . S
U726 O747 2.449 . S
O727 U726 2.454 . S
O727 C729 1.353 . S
O728 U726 2.458 . S
O728 C729 1.286 . S
C729 U726 2.984 . S
C729 O727 1.353 . S
C729 O728 1.286 . S
C729 C731 1.363 . S
C730 C720 1.465 . S
C730 U726 2.847 . S
C730 O744 1.249 . S
C730 O745 1.202 . S
C731 C729 1.363 . S
C731 C733 1.408 . S
C731 C736 1.342 . S
C732 C733 1.310 . S
C732 C735 1.461 . S
C732 H752 0.932 . S
C733 C731 1.408 . S
C733 C732 1.310 . S
C733 H753 0.930 . S
C734 C735 1.474 . S
C734 C736 1.285 . S
C734 H754 0.929 . S
C735 C732 1.461 . S
C735 C734 1.474 . S
C736 C731 1.342 . S
C736 C734 1.285 . S
C736 H755 0.930 . S
C737 C740 1.424 . S
C737 C742 1.245 . S
C737 C743 1.428 . S
C738 C741 1.260 . S
C738 C742 1.477 . S
C738 H756 0.932 . S
C739 C740 1.384 . S
C739 C741 1.479 . S
C739 H757 0.929 . S
C740 C737 1.424 . S
C740 C739 1.384 . S
C740 H758 0.928 . S
C741 C738 1.260 . S
C741 C739 1.479 . S
C742 C737 1.245 . S
C742 C738 1.477 . S
C742 H759 0.932 . S
C743 U726 2.882 . S
C743 C737 1.428 . S
C743 O746 1.301 . S
C743 O747 1.282 . S
O744 U726 2.441 . S
O744 C730 1.249 . S
O745 U726 2.420 . S
O745 C730 1.202 . S
O746 U726 2.455 . S
O746 C743 1.301 . S
O747 U726 2.449 . S
O747 C743 1.282 . S
H748 C721 0.931 . S
H749 C723 0.929 . S
H750 C724 0.930 . S
H751 C725 0.931 . S
H752 C732 0.932 . S
H753 C733 0.930 . S
H754 C734 0.929 . S
H755 C736 0.930 . S
H756 C738 0.932 . S
H757 C739 0.929 . S
H758 C740 0.928 . S
H759 C742 0.932 . S
C760 C761 1.264 . S
C760 C765 1.479 . S
C760 C770 1.465 . S
C761 C760 1.264 . S
C761 C763 1.339 . S
C761 H788 0.931 . S
C762 C763 1.395 . S
C762 C764 1.320 . S
C763 C761 1.339 . S
C763 C762 1.395 . S
C763 H789 0.929 . S
C764 C762 1.320 . S
C764 C765 1.405 . S
C764 H790 0.930 . S
C765 C760 1.479 . S
C765 C764 1.405 . S
C765 H791 0.931 . S
U766 O767 2.454 . S
U766 O768 2.458 . S
U766 C769 2.984 . S
U766 C770 2.847 . S
U766 C783 2.882 . S
U766 O784 2.441 . S
U766 O785 2.420 . S
U766 O786 2.455 . S
U766 O787 2.449 . S
O767 U766 2.454 . S
O767 C769 1.353 . S
O768 U766 2.458 . S
O768 C769 1.286 . S
C769 U766 2.984 . S
C769 O767 1.353 . S
C769 O768 1.286 . S
C769 C771 1.363 . S
C770 C760 1.465 . S
C770 U766 2.847 . S
C770 O784 1.249 . S
C770 O785 1.202 . S
C771 C769 1.363 . S
C771 C773 1.408 . S
C771 C776 1.342 . S
C772 C773 1.310 . S
C772 C775 1.461 . S
C772 H792 0.932 . S
C773 C771 1.408 . S
C773 C772 1.310 . S
C773 H793 0.930 . S
C774 C775 1.474 . S
C774 C776 1.285 . S
C774 H794 0.929 . S
C775 C772 1.461 . S
C775 C774 1.474 . S
C776 C771 1.342 . S
C776 C774 1.285 . S
C776 H795 0.930 . S
C777 C780 1.424 . S
C777 C782 1.245 . S
C777 C783 1.428 . S
C778 C781 1.260 . S
C778 C782 1.477 . S
C778 H796 0.932 . S
C779 C780 1.384 . S
C779 C781 1.479 . S
C779 H797 0.929 . S
C780 C777 1.424 . S
C780 C779 1.384 . S
C780 H798 0.928 . S
C781 C778 1.260 . S
C781 C779 1.479 . S
C782 C777 1.245 . S
C782 C778 1.477 . S
C782 H799 0.932 . S
C783 U766 2.882 . S
C783 C777 1.428 . S
C783 O786 1.301 . S
C783 O787 1.282 . S
O784 U766 2.441 . S
O784 C770 1.249 . S
O785 U766 2.420 . S
O785 C770 1.202 . S
O786 U766 2.455 . S
O786 C783 1.301 . S
O787 U766 2.449 . S
O787 C783 1.282 . S
H788 C761 0.931 . S
H789 C763 0.929 . S
H790 C764 0.930 . S
H791 C765 0.931 . S
H792 C772 0.932 . S
H793 C773 0.930 . S
H794 C774 0.929 . S
H795 C776 0.930 . S
H796 C778 0.932 . S
H797 C779 0.929 . S
H798 C780 0.928 . S
H799 C782 0.932 . S
C800 C801 1.264 . S
C800 C805 1.479 . S
C800 C810 1.465 . S
C801 C800 1.264 . S
C801 C803 1.339 . S
C801 H828 0.931 . S
C802 C803 1.395 . S
C802 C804 1.320 . S
C803 C801 1.339 . S
C803 C802 1.395 . S
C803 H829 0.929 . S
C804 C802 1.320 . S
C804 C805 1.405 . S
C804 H830 0.930 . S
C805 C800 1.479 . S
C805 C804 1.405 . S
C805 H831 0.931 . S
U806 O807 2.454 . S
U806 O808 2.458 . S
U806 C809 2.984 . S
U806 C810 2.847 . S
U806 C823 2.882 . S
U806 O824 2.441 . S
U806 O825 2.420 . S
U806 O826 2.455 . S
U806 O827 2.449 . S
O807 U806 2.454 . S
O807 C809 1.353 . S
O808 U806 2.458 . S
O808 C809 1.286 . S
C809 U806 2.984 . S
C809 O807 1.353 . S
C809 O808 1.286 . S
C809 C811 1.363 . S
C810 C800 1.465 . S
C810 U806 2.847 . S
C810 O824 1.249 . S
C810 O825 1.202 . S
C811 C809 1.363 . S
C811 C813 1.408 . S
C811 C816 1.342 . S
C812 C813 1.310 . S
C812 C815 1.461 . S
C812 H832 0.932 . S
C813 C811 1.408 . S
C813 C812 1.310 . S
C813 H833 0.930 . S
C814 C815 1.474 . S
C814 C816 1.285 . S
C814 H834 0.929 . S
C815 C812 1.461 . S
C815 C814 1.474 . S
C816 C811 1.342 . S
C816 C814 1.285 . S
C816 H835 0.930 . S
C817 C820 1.424 . S
C817 C822 1.245 . S
C817 C823 1.428 . S
C818 C821 1.260 . S
C818 C822 1.477 . S
C818 H836 0.932 . S
C819 C820 1.384 . S
C819 C821 1.479 . S
C819 H837 0.929 . S
C820 C817 1.424 . S
C820 C819 1.384 . S
C820 H838 0.928 . S
C821 C818 1.260 . S
C821 C819 1.479 . S
C822 C817 1.245 . S
C822 C818 1.477 . S
C822 H839 0.932 . S
C823 U806 2.882 . S
C823 C817 1.428 . S
C823 O826 1.301 . S
C823 O827 1.282 . S
O824 U806 2.441 . S
O824 C810 1.249 . S
O825 U806 2.420 . S
O825 C810 1.202 . S
O826 U806 2.455 . S
O826 C823 1.301 . S
O827 U806 2.449 . S
O827 C823 1.282 . S
H828 C801 0.931 . S
H829 C803 0.929 . S
H830 C804 0.930 . S
H831 C805 0.931 . S
H832 C812 0.932 . S
H833 C813 0.930 . S
H834 C814 0.929 . S
H835 C816 0.930 . S
H836 C818 0.932 . S
H837 C819 0.929 . S
H838 C820 0.928 . S
H839 C822 0.932 . S
C840 C841 1.264 . S
C840 C845 1.479 . S
C840 C850 1.465 . S
C841 C840 1.264 . S
C841 C843 1.339 . S
C841 H868 0.931 . S
C842 C843 1.395 . S
C842 C844 1.320 . S
C843 C841 1.339 . S
C843 C842 1.395 . S
C843 H869 0.929 . S
C844 C842 1.320 . S
C844 C845 1.405 . S
C844 H870 0.930 . S
C845 C840 1.479 . S
C845 C844 1.405 . S
C845 H871 0.931 . S
U846 O847 2.454 . S
U846 O848 2.458 . S
U846 C849 2.984 . S
U846 C850 2.847 . S
U846 C863 2.882 . S
U846 O864 2.441 . S
U846 O865 2.420 . S
U846 O866 2.455 . S
U846 O867 2.449 . S
O847 U846 2.454 . S
O847 C849 1.353 . S
O848 U846 2.458 . S
O848 C849 1.286 . S
C849 U846 2.984 . S
C849 O847 1.353 . S
C849 O848 1.286 . S
C849 C851 1.363 . S
C850 C840 1.465 . S
C850 U846 2.847 . S
C850 O864 1.249 . S
C850 O865 1.202 . S
C851 C849 1.363 . S
C851 C853 1.408 . S
C851 C856 1.342 . S
C852 C853 1.310 . S
C852 C855 1.461 . S
C852 H872 0.932 . S
C853 C851 1.408 . S
C853 C852 1.310 . S
C853 H873 0.930 . S
C854 C855 1.474 . S
C854 C856 1.285 . S
C854 H874 0.929 . S
C855 C852 1.461 . S
C855 C854 1.474 . S
C856 C851 1.342 . S
C856 C854 1.285 . S
C856 H875 0.930 . S
C857 C860 1.424 . S
C857 C862 1.245 . S
C857 C863 1.428 . S
C858 C861 1.260 . S
C858 C862 1.477 . S
C858 H876 0.932 . S
C859 C860 1.384 . S
C859 C861 1.479 . S
C859 H877 0.929 . S
C860 C857 1.424 . S
C860 C859 1.384 . S
C860 H878 0.928 . S
C861 C858 1.260 . S
C861 C859 1.479 . S
C862 C857 1.245 . S
C862 C858 1.477 . S
C862 H879 0.932 . S
C863 U846 2.882 . S
C863 C857 1.428 . S
C863 O866 1.301 . S
C863 O867 1.282 . S
O864 U846 2.441 . S
O864 C850 1.249 . S
O865 U846 2.420 . S
O865 C850 1.202 . S
O866 U846 2.455 . S
O866 C863 1.301 . S
O867 U846 2.449 . S
O867 C863 1.282 . S
H868 C841 0.931 . S
H869 C843 0.929 . S
H870 C844 0.930 . S
H871 C845 0.931 . S
H872 C852 0.932 . S
H873 C853 0.930 . S
H874 C854 0.929 . S
H875 C856 0.930 . S
H876 C858 0.932 . S
H877 C859 0.929 . S
H878 C860 0.928 . S
H879 C862 0.932 . S
C880 C881 1.264 . S
C880 C885 1.479 . S
C880 C890 1.465 . S
C881 C880 1.264 . S
C881 C883 1.339 . S
C881 H908 0.931 . S
C882 C883 1.395 . S
C882 C884 1.320 . S
C883 C881 1.339 . S
C883 C882 1.395 . S
C883 H909 0.929 . S
C884 C882 1.320 . S
C884 C885 1.405 . S
C884 H910 0.930 . S
C885 C880 1.479 . S
C885 C884 1.405 . S
C885 H911 0.931 . S
U886 O887 2.454 . S
U886 O888 2.458 . S
U886 C889 2.984 . S
U886 C890 2.847 . S
U886 C903 2.882 . S
U886 O904 2.441 . S
U886 O905 2.420 . S
U886 O906 2.455 . S
U886 O907 2.449 . S
O887 U886 2.454 . S
O887 C889 1.353 . S
O888 U886 2.458 . S
O888 C889 1.286 . S
C889 U886 2.984 . S
C889 O887 1.353 . S
C889 O888 1.286 . S
C889 C891 1.363 . S
C890 C880 1.465 . S
C890 U886 2.847 . S
C890 O904 1.249 . S
C890 O905 1.202 . S
C891 C889 1.363 . S
C891 C893 1.408 . S
C891 C896 1.342 . S
C892 C893 1.310 . S
C892 C895 1.461 . S
C892 H912 0.932 . S
C893 C891 1.408 . S
C893 C892 1.310 . S
C893 H913 0.930 . S
C894 C895 1.474 . S
C894 C896 1.285 . S
C894 H914 0.929 . S
C895 C892 1.461 . S
C895 C894 1.474 . S
C896 C891 1.342 . S
C896 C894 1.285 . S
C896 H915 0.930 . S
C897 C900 1.424 . S
C897 C902 1.245 . S
C897 C903 1.428 . S
C898 C901 1.260 . S
C898 C902 1.477 . S
C898 H916 0.932 . S
C899 C900 1.384 . S
C899 C901 1.479 . S
C899 H917 0.929 . S
C900 C897 1.424 . S
C900 C899 1.384 . S
C900 H918 0.928 . S
C901 C898 1.260 . S
C901 C899 1.479 . S
C902 C897 1.245 . S
C902 C898 1.477 . S
C902 H919 0.932 . S
C903 U886 2.882 . S
C903 C897 1.428 . S
C903 O906 1.301 . S
C903 O907 1.282 . S
O904 U886 2.441 . S
O904 C890 1.249 . S
O905 U886 2.420 . S
O905 C890 1.202 . S
O906 U886 2.455 . S
O906 C903 1.301 . S
O907 U886 2.449 . S
O907 C903 1.282 . S
H908 C881 0.931 . S
H909 C883 0.929 . S
H910 C884 0.930 . S
H911 C885 0.931 . S
H912 C892 0.932 . S
H913 C893 0.930 . S
H914 C894 0.929 . S
H915 C896 0.930 . S
H916 C898 0.932 . S
H917 C899 0.929 . S
H918 C900 0.928 . S
H919 C902 0.932 . S
C920 C921 1.264 . S
C920 C925 1.479 . S
C920 C930 1.465 . S
C921 C920 1.264 . S
C921 C923 1.339 . S
C921 H948 0.931 . S
C922 C923 1.395 . S
C922 C924 1.320 . S
C923 C921 1.339 . S
C923 C922 1.395 . S
C923 H949 0.929 . S
C924 C922 1.320 . S
C924 C925 1.405 . S
C924 H950 0.930 . S
C925 C920 1.479 . S
C925 C924 1.405 . S
C925 H951 0.931 . S
U926 O927 2.454 . S
U926 O928 2.458 . S
U926 C929 2.984 . S
U926 C930 2.847 . S
U926 C943 2.882 . S
U926 O944 2.441 . S
U926 O945 2.420 . S
U926 O946 2.455 . S
U926 O947 2.449 . S
O927 U926 2.454 . S
O927 C929 1.353 . S
O928 U926 2.458 . S
O928 C929 1.286 . S
C929 U926 2.984 . S
C929 O927 1.353 . S
C929 O928 1.286 . S
C929 C931 1.363 . S
C930 C920 1.465 . S
C930 U926 2.847 . S
C930 O944 1.249 . S
C930 O945 1.202 . S
C931 C929 1.363 . S
C931 C933 1.408 . S
C931 C936 1.342 . S
C932 C933 1.310 . S
C932 C935 1.461 . S
C932 H952 0.932 . S
C933 C931 1.408 . S
C933 C932 1.310 . S
C933 H953 0.930 . S
C934 C935 1.474 . S
C934 C936 1.285 . S
C934 H954 0.929 . S
C935 C932 1.461 . S
C935 C934 1.474 . S
C936 C931 1.342 . S
C936 C934 1.285 . S
C936 H955 0.930 . S
C937 C940 1.424 . S
C937 C942 1.245 . S
C937 C943 1.428 . S
C938 C941 1.260 . S
C938 C942 1.477 . S
C938 H956 0.932 . S
C939 C940 1.384 . S
C939 C941 1.479 . S
C939 H957 0.929 . S
C940 C937 1.424 . S
C940 C939 1.384 . S
C940 H958 0.928 . S
C941 C938 1.260 . S
C941 C939 1.479 . S
C942 C937 1.245 . S
C942 C938 1.477 . S
C942 H959 0.932 . S
C943 U926 2.882 . S
C943 C937 1.428 . S
C943 O946 1.301 . S
C943 O947 1.282 . S
O944 U926 2.441 . S
O944 C930 1.249 . S
O945 U926 2.420 . S
O945 C930 1.202 . S
O946 U926 2.455 . S
O946 C943 1.301 . S
O947 U926 2.449 . S
O947 C943 1.282 . S
H948 C921 0.931 . S
H949 C923 0.929 . S
H950 C924 0.930 . S
H951 C925 0.931 . S
H952 C932 0.932 . S
H953 C933 0.930 . S
H954 C934 0.929 . S
H955 C936 0.930 . S
H956 C938 0.932 . S
H957 C939 0.929 . S
H958 C940 0.928 . S
H959 C942 0.932 . S
C960 C961 1.264 . S
C960 C965 1.479 . S
C960 C970 1.465 . S
C961 C960 1.264 . S
C961 C963 1.339 . S
C961 H988 0.931 . S
C962 C963 1.395 . S
C962 C964 1.320 . S
C963 C961 1.339 . S
C963 C962 1.395 . S
C963 H989 0.929 . S
C964 C962 1.320 . S
C964 C965 1.405 . S
C964 H990 0.930 . S
C965 C960 1.479 . S
C965 C964 1.405 . S
C965 H991 0.931 . S
U966 O967 2.454 . S
U966 O968 2.458 . S
U966 C969 2.984 . S
U966 C970 2.847 . S
U966 C983 2.882 . S
U966 O984 2.441 . S
U966 O985 2.420 . S
U966 O986 2.455 . S
U966 O987 2.449 . S
O967 U966 2.454 . S
O967 C969 1.353 . S
O968 U966 2.458 . S
O968 C969 1.286 . S
C969 U966 2.984 . S
C969 O967 1.353 . S
C969 O968 1.286 . S
C969 C971 1.363 . S
C970 C960 1.465 . S
C970 U966 2.847 . S
C970 O984 1.249 . S
C970 O985 1.202 . S
C971 C969 1.363 . S
C971 C973 1.408 . S
C971 C976 1.342 . S
C972 C973 1.310 . S
C972 C975 1.461 . S
C972 H992 0.932 . S
C973 C971 1.408 . S
C973 C972 1.310 . S
C973 H993 0.930 . S
C974 C975 1.474 . S
C974 C976 1.285 . S
C974 H994 0.929 . S
C975 C972 1.461 . S
C975 C974 1.474 . S
C976 C971 1.342 . S
C976 C974 1.285 . S
C976 H995 0.930 . S
C977 C980 1.424 . S
C977 C982 1.245 . S
C977 C983 1.428 . S
C978 C981 1.260 . S
C978 C982 1.477 . S
C978 H996 0.932 . S
C979 C980 1.384 . S
C979 C981 1.479 . S
C979 H997 0.929 . S
C980 C977 1.424 . S
C980 C979 1.384 . S
C980 H998 0.928 . S
C981 C978 1.260 . S
C981 C979 1.479 . S
C982 C977 1.245 . S
C982 C978 1.477 . S
C982 H999 0.932 . S
C983 U966 2.882 . S
C983 C977 1.428 . S
C983 O986 1.301 . S
C983 O987 1.282 . S
O984 U966 2.441 . S
O984 C970 1.249 . S
O985 U966 2.420 . S
O985 C970 1.202 . S
O986 U966 2.455 . S
O986 C983 1.301 . S
O987 U966 2.449 . S
O987 C983 1.282 . S
H988 C961 0.931 . S
H989 C963 0.929 . S
H990 C964 0.930 . S
H991 C965 0.931 . S
H992 C972 0.932 . S
H993 C973 0.930 . S
H994 C974 0.929 . S
H995 C976 0.930 . S
H996 C978 0.932 . S
H997 C979 0.929 . S
H998 C980 0.928 . S
H999 C982 0.932 . S
C1000 C1001 1.264 . S
C1000 C1005 1.479 . S
C1000 C1010 1.465 . S
C1001 C1000 1.264 . S
C1001 C1003 1.339 . S
C1001 H1028 0.931 . S
C1002 C1003 1.395 . S
C1002 C1004 1.320 . S
C1003 C1001 1.339 . S
C1003 C1002 1.395 . S
C1003 H1029 0.929 . S
C1004 C1002 1.320 . S
C1004 C1005 1.405 . S
C1004 H1030 0.930 . S
C1005 C1000 1.479 . S
C1005 C1004 1.405 . S
C1005 H1031 0.931 . S
U1006 O1007 2.454 . S
U1006 O1008 2.458 . S
U1006 C1009 2.984 . S
U1006 C1010 2.847 . S
U1006 C1023 2.882 . S
U1006 O1024 2.441 . S
U1006 O1025 2.420 . S
U1006 O1026 2.455 . S
U1006 O1027 2.449 . S
O1007 U1006 2.454 . S
O1007 C1009 1.353 . S
O1008 U1006 2.458 . S
O1008 C1009 1.286 . S
C1009 U1006 2.984 . S
C1009 O1007 1.353 . S
C1009 O1008 1.286 . S
C1009 C1011 1.363 . S
C1010 C1000 1.465 . S
C1010 U1006 2.847 . S
C1010 O1024 1.249 . S
C1010 O1025 1.202 . S
C1011 C1009 1.363 . S
C1011 C1013 1.408 . S
C1011 C1016 1.342 . S
C1012 C1013 1.310 . S
C1012 C1015 1.461 . S
C1012 H1032 0.932 . S
C1013 C1011 1.408 . S
C1013 C1012 1.310 . S
C1013 H1033 0.930 . S
C1014 C1015 1.474 . S
C1014 C1016 1.285 . S
C1014 H1034 0.929 . S
C1015 C1012 1.461 . S
C1015 C1014 1.474 . S
C1016 C1011 1.342 . S
C1016 C1014 1.285 . S
C1016 H1035 0.930 . S
C1017 C1020 1.424 . S
C1017 C1022 1.245 . S
C1017 C1023 1.428 . S
C1018 C1021 1.260 . S
C1018 C1022 1.477 . S
C1018 H1036 0.932 . S
C1019 C1020 1.384 . S
C1019 C1021 1.479 . S
C1019 H1037 0.929 . S
C1020 C1017 1.424 . S
C1020 C1019 1.384 . S
C1020 H1038 0.928 . S
C1021 C1018 1.260 . S
C1021 C1019 1.479 . S
C1022 C1017 1.245 . S
C1022 C1018 1.477 . S
C1022 H1039 0.932 . S
C1023 U1006 2.882 . S
C1023 C1017 1.428 . S
C1023 O1026 1.301 . S
C1023 O1027 1.282 . S
O1024 U1006 2.441 . S
O1024 C1010 1.249 . S
O1025 U1006 2.420 . S
O1025 C1010 1.202 . S
O1026 U1006 2.455 . S
O1026 C1023 1.301 . S
O1027 U1006 2.449 . S
O1027 C1023 1.282 . S
H1028 C1001 0.931 . S
H1029 C1003 0.929 . S
H1030 C1004 0.930 . S
H1031 C1005 0.931 . S
H1032 C1012 0.932 . S
H1033 C1013 0.930 . S
H1034 C1014 0.929 . S
H1035 C1016 0.930 . S
H1036 C1018 0.932 . S
H1037 C1019 0.929 . S
H1038 C1020 0.928 . S
H1039 C1022 0.932 . S
C1040 C1041 1.264 . S
C1040 C1045 1.479 . S
C1040 C1050 1.465 . S
C1041 C1040 1.264 . S
C1041 C1043 1.339 . S
C1041 H1068 0.931 . S
C1042 C1043 1.395 . S
C1042 C1044 1.320 . S
C1043 C1041 1.339 . S
C1043 C1042 1.395 . S
C1043 H1069 0.929 . S
C1044 C1042 1.320 . S
C1044 C1045 1.405 . S
C1044 H1070 0.930 . S
C1045 C1040 1.479 . S
C1045 C1044 1.405 . S
C1045 H1071 0.931 . S
U1046 O1047 2.454 . S
U1046 O1048 2.458 . S
U1046 C1049 2.984 . S
U1046 C1050 2.847 . S
U1046 C1063 2.882 . S
U1046 O1064 2.441 . S
U1046 O1065 2.420 . S
U1046 O1066 2.455 . S
U1046 O1067 2.449 . S
O1047 U1046 2.454 . S
O1047 C1049 1.353 . S
O1048 U1046 2.458 . S
O1048 C1049 1.286 . S
C1049 U1046 2.984 . S
C1049 O1047 1.353 . S
C1049 O1048 1.286 . S
C1049 C1051 1.363 . S
C1050 C1040 1.465 . S
C1050 U1046 2.847 . S
C1050 O1064 1.249 . S
C1050 O1065 1.202 . S
C1051 C1049 1.363 . S
C1051 C1053 1.408 . S
C1051 C1056 1.342 . S
C1052 C1053 1.310 . S
C1052 C1055 1.461 . S
C1052 H1072 0.932 . S
C1053 C1051 1.408 . S
C1053 C1052 1.310 . S
C1053 H1073 0.930 . S
C1054 C1055 1.474 . S
C1054 C1056 1.285 . S
C1054 H1074 0.929 . S
C1055 C1052 1.461 . S
C1055 C1054 1.474 . S
C1056 C1051 1.342 . S
C1056 C1054 1.285 . S
C1056 H1075 0.930 . S
C1057 C1060 1.424 . S
C1057 C1062 1.245 . S
C1057 C1063 1.428 . S
C1058 C1061 1.260 . S
C1058 C1062 1.477 . S
C1058 H1076 0.932 . S
C1059 C1060 1.384 . S
C1059 C1061 1.479 . S
C1059 H1077 0.929 . S
C1060 C1057 1.424 . S
C1060 C1059 1.384 . S
C1060 H1078 0.928 . S
C1061 C1058 1.260 . S
C1061 C1059 1.479 . S
C1062 C1057 1.245 . S
C1062 C1058 1.477 . S
C1062 H1079 0.932 . S
C1063 U1046 2.882 . S
C1063 C1057 1.428 . S
C1063 O1066 1.301 . S
C1063 O1067 1.282 . S
O1064 U1046 2.441 . S
O1064 C1050 1.249 . S
O1065 U1046 2.420 . S
O1065 C1050 1.202 . S
O1066 U1046 2.455 . S
O1066 C1063 1.301 . S
O1067 U1046 2.449 . S
O1067 C1063 1.282 . S
H1068 C1041 0.931 . S
H1069 C1043 0.929 . S
H1070 C1044 0.930 . S
H1071 C1045 0.931 . S
H1072 C1052 0.932 . S
H1073 C1053 0.930 . S
H1074 C1054 0.929 . S
H1075 C1056 0.930 . S
H1076 C1058 0.932 . S
H1077 C1059 0.929 . S
H1078 C1060 0.928 . S
H1079 C1062 0.932 . S
C1080 C1081 1.264 . S
C1080 C1085 1.479 . S
C1080 C1090 1.465 . S
C1081 C1080 1.264 . S
C1081 C1083 1.339 . S
C1081 H1108 0.931 . S
C1082 C1083 1.395 . S
C1082 C1084 1.320 . S
C1083 C1081 1.339 . S
C1083 C1082 1.395 . S
C1083 H1109 0.929 . S
C1084 C1082 1.320 . S
C1084 C1085 1.405 . S
C1084 H1110 0.930 . S
C1085 C1080 1.479 . S
C1085 C1084 1.405 . S
C1085 H1111 0.931 . S
U1086 O1087 2.454 . S
U1086 O1088 2.458 . S
U1086 C1089 2.984 . S
U1086 C1090 2.847 . S
U1086 C1103 2.882 . S
U1086 O1104 2.441 . S
U1086 O1105 2.420 . S
U1086 O1106 2.455 . S
U1086 O1107 2.449 . S
O1087 U1086 2.454 . S
O1087 C1089 1.353 . S
O1088 U1086 2.458 . S
O1088 C1089 1.286 . S
C1089 U1086 2.984 . S
C1089 O1087 1.353 . S
C1089 O1088 1.286 . S
C1089 C1091 1.363 . S
C1090 C1080 1.465 . S
C1090 U1086 2.847 . S
C1090 O1104 1.249 . S
C1090 O1105 1.202 . S
C1091 C1089 1.363 . S
C1091 C1093 1.408 . S
C1091 C1096 1.342 . S
C1092 C1093 1.310 . S
C1092 C1095 1.461 . S
C1092 H1112 0.932 . S
C1093 C1091 1.408 . S
C1093 C1092 1.310 . S
C1093 H1113 0.930 . S
C1094 C1095 1.474 . S
C1094 C1096 1.285 . S
C1094 H1114 0.929 . S
C1095 C1092 1.461 . S
C1095 C1094 1.474 . S
C1096 C1091 1.342 . S
C1096 C1094 1.285 . S
C1096 H1115 0.930 . S
C1097 C1100 1.424 . S
C1097 C1102 1.245 . S
C1097 C1103 1.428 . S
C1098 C1101 1.260 . S
C1098 C1102 1.477 . S
C1098 H1116 0.932 . S
C1099 C1100 1.384 . S
C1099 C1101 1.479 . S
C1099 H1117 0.929 . S
C1100 C1097 1.424 . S
C1100 C1099 1.384 . S
C1100 H1118 0.928 . S
C1101 C1098 1.260 . S
C1101 C1099 1.479 . S
C1102 C1097 1.245 . S
C1102 C1098 1.477 . S
C1102 H1119 0.932 . S
C1103 U1086 2.882 . S
C1103 C1097 1.428 . S
C1103 O1106 1.301 . S
C1103 O1107 1.282 . S
O1104 U1086 2.441 . S
O1104 C1090 1.249 . S
O1105 U1086 2.420 . S
O1105 C1090 1.202 . S
O1106 U1086 2.455 . S
O1106 C1103 1.301 . S
O1107 U1086 2.449 . S
O1107 C1103 1.282 . S
H1108 C1081 0.931 . S
H1109 C1083 0.929 . S
H1110 C1084 0.930 . S
H1111 C1085 0.931 . S
H1112 C1092 0.932 . S
H1113 C1093 0.930 . S
H1114 C1094 0.929 . S
H1115 C1096 0.930 . S
H1116 C1098 0.932 . S
H1117 C1099 0.929 . S
H1118 C1100 0.928 . S
H1119 C1102 0.932 . S
C1120 C1121 1.264 . S
C1120 C1125 1.479 . S
C1120 C1130 1.465 . S
C1121 C1120 1.264 . S
C1121 C1123 1.339 . S
C1121 H1148 0.931 . S
C1122 C1123 1.395 . S
C1122 C1124 1.320 . S
C1123 C1121 1.339 . S
C1123 C1122 1.395 . S
C1123 H1149 0.929 . S
C1124 C1122 1.320 . S
C1124 C1125 1.405 . S
C1124 H1150 0.930 . S
C1125 C1120 1.479 . S
C1125 C1124 1.405 . S
C1125 H1151 0.931 . S
U1126 O1127 2.454 . S
U1126 O1128 2.458 . S
U1126 C1129 2.984 . S
U1126 C1130 2.847 . S
U1126 C1143 2.882 . S
U1126 O1144 2.441 . S
U1126 O1145 2.420 . S
U1126 O1146 2.455 . S
U1126 O1147 2.449 . S
O1127 U1126 2.454 . S
O1127 C1129 1.353 . S
O1128 U1126 2.458 . S
O1128 C1129 1.286 . S
C1129 U1126 2.984 . S
C1129 O1127 1.353 . S
C1129 O1128 1.286 . S
C1129 C1131 1.363 . S
C1130 C1120 1.465 . S
C1130 U1126 2.847 . S
C1130 O1144 1.249 . S
C1130 O1145 1.202 . S
C1131 C1129 1.363 . S
C1131 C1133 1.408 . S
C1131 C1136 1.342 . S
C1132 C1133 1.310 . S
C1132 C1135 1.461 . S
C1132 H1152 0.932 . S
C1133 C1131 1.408 . S
C1133 C1132 1.310 . S
C1133 H1153 0.930 . S
C1134 C1135 1.474 . S
C1134 C1136 1.285 . S
C1134 H1154 0.929 . S
C1135 C1132 1.461 . S
C1135 C1134 1.474 . S
C1136 C1131 1.342 . S
C1136 C1134 1.285 . S
C1136 H1155 0.930 . S
C1137 C1140 1.424 . S
C1137 C1142 1.245 . S
C1137 C1143 1.428 . S
C1138 C1141 1.260 . S
C1138 C1142 1.477 . S
C1138 H1156 0.932 . S
C1139 C1140 1.384 . S
C1139 C1141 1.479 . S
C1139 H1157 0.929 . S
C1140 C1137 1.424 . S
C1140 C1139 1.384 . S
C1140 H1158 0.928 . S
C1141 C1138 1.260 . S
C1141 C1139 1.479 . S
C1142 C1137 1.245 . S
C1142 C1138 1.477 . S
C1142 H1159 0.932 . S
C1143 U1126 2.882 . S
C1143 C1137 1.428 . S
C1143 O1146 1.301 . S
C1143 O1147 1.282 . S
O1144 U1126 2.441 . S
O1144 C1130 1.249 . S
O1145 U1126 2.420 . S
O1145 C1130 1.202 . S
O1146 U1126 2.455 . S
O1146 C1143 1.301 . S
O1147 U1126 2.449 . S
O1147 C1143 1.282 . S
H1148 C1121 0.931 . S
H1149 C1123 0.929 . S
H1150 C1124 0.930 . S
H1151 C1125 0.931 . S
H1152 C1132 0.932 . S
H1153 C1133 0.930 . S
H1154 C1134 0.929 . S
H1155 C1136 0.930 . S
H1156 C1138 0.932 . S
H1157 C1139 0.929 . S
H1158 C1140 0.928 . S
H1159 C1142 0.932 . S
C1160 C1161 1.264 . S
C1160 C1165 1.479 . S
C1160 C1170 1.465 . S
C1161 C1160 1.264 . S
C1161 C1163 1.339 . S
C1161 H1188 0.931 . S
C1162 C1163 1.395 . S
C1162 C1164 1.320 . S
C1163 C1161 1.339 . S
C1163 C1162 1.395 . S
C1163 H1189 0.929 . S
C1164 C1162 1.320 . S
C1164 C1165 1.405 . S
C1164 H1190 0.930 . S
C1165 C1160 1.479 . S
C1165 C1164 1.405 . S
C1165 H1191 0.931 . S
U1166 O1167 2.454 . S
U1166 O1168 2.458 . S
U1166 C1169 2.984 . S
U1166 C1170 2.847 . S
U1166 C1183 2.882 . S
U1166 O1184 2.441 . S
U1166 O1185 2.420 . S
U1166 O1186 2.455 . S
U1166 O1187 2.449 . S
O1167 U1166 2.454 . S
O1167 C1169 1.353 . S
O1168 U1166 2.458 . S
O1168 C1169 1.286 . S
C1169 U1166 2.984 . S
C1169 O1167 1.353 . S
C1169 O1168 1.286 . S
C1169 C1171 1.363 . S
C1170 C1160 1.465 . S
C1170 U1166 2.847 . S
C1170 O1184 1.249 . S
C1170 O1185 1.202 . S
C1171 C1169 1.363 . S
C1171 C1173 1.408 . S
C1171 C1176 1.342 . S
C1172 C1173 1.310 . S
C1172 C1175 1.461 . S
C1172 H1192 0.932 . S
C1173 C1171 1.408 . S
C1173 C1172 1.310 . S
C1173 H1193 0.930 . S
C1174 C1175 1.474 . S
C1174 C1176 1.285 . S
C1174 H1194 0.929 . S
C1175 C1172 1.461 . S
C1175 C1174 1.474 . S
C1176 C1171 1.342 . S
C1176 C1174 1.285 . S
C1176 H1195 0.930 . S
C1177 C1180 1.424 . S
C1177 C1182 1.245 . S
C1177 C1183 1.428 . S
C1178 C1181 1.260 . S
C1178 C1182 1.477 . S
C1178 H1196 0.932 . S
C1179 C1180 1.384 . S
C1179 C1181 1.479 . S
C1179 H1197 0.929 . S
C1180 C1177 1.424 . S
C1180 C1179 1.384 . S
C1180 H1198 0.928 . S
C1181 C1178 1.260 . S
C1181 C1179 1.479 . S
C1182 C1177 1.245 . S
C1182 C1178 1.477 . S
C1182 H1199 0.932 . S
C1183 U1166 2.882 . S
C1183 C1177 1.428 . S
C1183 O1186 1.301 . S
C1183 O1187 1.282 . S
O1184 U1166 2.441 . S
O1184 C1170 1.249 . S
O1185 U1166 2.420 . S
O1185 C1170 1.202 . S
O1186 U1166 2.455 . S
O1186 C1183 1.301 . S
O1187 U1166 2.449 . S
O1187 C1183 1.282 . S
H1188 C1161 0.931 . S
H1189 C1163 0.929 . S
H1190 C1164 0.930 . S
H1191 C1165 0.931 . S
H1192 C1172 0.932 . S
H1193 C1173 0.930 . S
H1194 C1174 0.929 . S
H1195 C1176 0.930 . S
H1196 C1178 0.932 . S
H1197 C1179 0.929 . S
H1198 C1180 0.928 . S
H1199 C1182 0.932 . S
C1200 C1201 1.264 . S
C1200 C1205 1.479 . S
C1200 C1210 1.465 . S
C1201 C1200 1.264 . S
C1201 C1203 1.339 . S
C1201 H1228 0.931 . S
C1202 C1203 1.395 . S
C1202 C1204 1.320 . S
C1203 C1201 1.339 . S
C1203 C1202 1.395 . S
C1203 H1229 0.929 . S
C1204 C1202 1.320 . S
C1204 C1205 1.405 . S
C1204 H1230 0.930 . S
C1205 C1200 1.479 . S
C1205 C1204 1.405 . S
C1205 H1231 0.931 . S
U1206 O1207 2.454 . S
U1206 O1208 2.458 . S
U1206 C1209 2.984 . S
U1206 C1210 2.847 . S
U1206 C1223 2.882 . S
U1206 O1224 2.441 . S
U1206 O1225 2.420 . S
U1206 O1226 2.455 . S
U1206 O1227 2.449 . S
O1207 U1206 2.454 . S
O1207 C1209 1.353 . S
O1208 U1206 2.458 . S
O1208 C1209 1.286 . S
C1209 U1206 2.984 . S
C1209 O1207 1.353 . S
C1209 O1208 1.286 . S
C1209 C1211 1.363 . S
C1210 C1200 1.465 . S
C1210 U1206 2.847 . S
C1210 O1224 1.249 . S
C1210 O1225 1.202 . S
C1211 C1209 1.363 . S
C1211 C1213 1.408 . S
C1211 C1216 1.342 . S
C1212 C1213 1.310 . S
C1212 C1215 1.461 . S
C1212 H1232 0.932 . S
C1213 C1211 1.408 . S
C1213 C1212 1.310 . S
C1213 H1233 0.930 . S
C1214 C1215 1.474 . S
C1214 C1216 1.285 . S
C1214 H1234 0.929 . S
C1215 C1212 1.461 . S
C1215 C1214 1.474 . S
C1216 C1211 1.342 . S
C1216 C1214 1.285 . S
C1216 H1235 0.930 . S
C1217 C1220 1.424 . S
C1217 C1222 1.245 . S
C1217 C1223 1.428 . S
C1218 C1221 1.260 . S
C1218 C1222 1.477 . S
C1218 H1236 0.932 . S
C1219 C1220 1.384 . S
C1219 C1221 1.479 . S
C1219 H1237 0.929 . S
C1220 C1217 1.424 . S
C1220 C1219 1.384 . S
C1220 H1238 0.928 . S
C1221 C1218 1.260 . S
C1221 C1219 1.479 . S
C1222 C1217 1.245 . S
C1222 C1218 1.477 . S
C1222 H1239 0.932 . S
C1223 U1206 2.882 . S
C1223 C1217 1.428 . S
C1223 O1226 1.301 . S
C1223 O1227 1.282 . S
O1224 U1206 2.441 . S
O1224 C1210 1.249 . S
O1225 U1206 2.420 . S
O1225 C1210 1.202 . S
O1226 U1206 2.455 . S
O1226 C1223 1.301 . S
O1227 U1206 2.449 . S
O1227 C1223 1.282 . S
H1228 C1201 0.931 . S
H1229 C1203 0.929 . S
H1230 C1204 0.930 . S
H1231 C1205 0.931 . S
H1232 C1212 0.932 . S
H1233 C1213 0.930 . S
H1234 C1214 0.929 . S
H1235 C1216 0.930 . S
H1236 C1218 0.932 . S
H1237 C1219 0.929 . S
H1238 C1220 0.928 . S
H1239 C1222 0.932 . S
C1240 C1241 1.264 . S
C1240 C1245 1.479 . S
C1240 C1250 1.465 . S
C1241 C1240 1.264 . S
C1241 C1243 1.339 . S
C1241 H1268 0.931 . S
C1242 C1243 1.395 . S
C1242 C1244 1.320 . S
C1243 C1241 1.339 . S
C1243 C1242 1.395 . S
C1243 H1269 0.929 . S
C1244 C1242 1.320 . S
C1244 C1245 1.405 . S
C1244 H1270 0.930 . S
C1245 C1240 1.479 . S
C1245 C1244 1.405 . S
C1245 H1271 0.931 . S
U1246 O1247 2.454 . S
U1246 O1248 2.458 . S
U1246 C1249 2.984 . S
U1246 C1250 2.847 . S
U1246 C1263 2.882 . S
U1246 O1264 2.441 . S
U1246 O1265 2.420 . S
U1246 O1266 2.455 . S
U1246 O1267 2.449 . S
O1247 U1246 2.454 . S
O1247 C1249 1.353 . S
O1248 U1246 2.458 . S
O1248 C1249 1.286 . S
C1249 U1246 2.984 . S
C1249 O1247 1.353 . S
C1249 O1248 1.286 . S
C1249 C1251 1.363 . S
C1250 C1240 1.465 . S
C1250 U1246 2.847 . S
C1250 O1264 1.249 . S
C1250 O1265 1.202 . S
C1251 C1249 1.363 . S
C1251 C1253 1.408 . S
C1251 C1256 1.342 . S
C1252 C1253 1.310 . S
C1252 C1255 1.461 . S
C1252 H1272 0.932 . S
C1253 C1251 1.408 . S
C1253 C1252 1.310 . S
C1253 H1273 0.930 . S
C1254 C1255 1.474 . S
C1254 C1256 1.285 . S
C1254 H1274 0.929 . S
C1255 C1252 1.461 . S
C1255 C1254 1.474 . S
C1256 C1251 1.342 . S
C1256 C1254 1.285 . S
C1256 H1275 0.930 . S
C1257 C1260 1.424 . S
C1257 C1262 1.245 . S
C1257 C1263 1.428 . S
C1258 C1261 1.260 . S
C1258 C1262 1.477 . S
C1258 H1276 0.932 . S
C1259 C1260 1.384 . S
C1259 C1261 1.479 . S
C1259 H1277 0.929 . S
C1260 C1257 1.424 . S
C1260 C1259 1.384 . S
C1260 H1278 0.928 . S
C1261 C1258 1.260 . S
C1261 C1259 1.479 . S
C1262 C1257 1.245 . S
C1262 C1258 1.477 . S
C1262 H1279 0.932 . S
C1263 U1246 2.882 . S
C1263 C1257 1.428 . S
C1263 O1266 1.301 . S
C1263 O1267 1.282 . S
O1264 U1246 2.441 . S
O1264 C1250 1.249 . S
O1265 U1246 2.420 . S
O1265 C1250 1.202 . S
O1266 U1246 2.455 . S
O1266 C1263 1.301 . S
O1267 U1246 2.449 . S
O1267 C1263 1.282 . S
H1268 C1241 0.931 . S
H1269 C1243 0.929 . S
H1270 C1244 0.930 . S
H1271 C1245 0.931 . S
H1272 C1252 0.932 . S
H1273 C1253 0.930 . S
H1274 C1254 0.929 . S
H1275 C1256 0.930 . S
H1276 C1258 0.932 . S
H1277 C1259 0.929 . S
H1278 C1260 0.928 . S
H1279 C1262 0.932 . S
C1280 C1281 1.560 . S
C1280 H1341 0.959 . S
C1280 H1342 0.959 . S
C1280 H1343 0.960 . S
C1281 C1280 1.560 . S
C1281 O1336 1.426 . S
C1281 H1340 0.980 . S
C1282 C1283 1.407 . S
C1282 C1287 1.418 . S
C1282 O1336 1.334 . S
C1283 C1282 1.407 . S
C1283 C1284 1.360 . S
C1283 H1344 0.929 . S
C1284 C1283 1.360 . S
C1284 C1285 1.401 . S
C1284 C1288 1.527 . S
C1285 C1284 1.401 . S
C1285 C1286 1.405 . S
C1285 C1318 1.587 . S
C1286 C1285 1.405 . S
C1286 C1287 1.332 . S
C1286 C1289 1.496 . S
C1287 C1282 1.418 . S
C1287 C1286 1.332 . S
C1287 H1345 0.929 . S
C1288 C1284 1.527 . S
C1288 H1346 0.959 . S
C1288 H1347 0.961 . S
C1288 H1348 0.961 . S
C1289 C1286 1.496 . S
C1289 H1349 0.960 . S
C1289 H1350 0.960 . S
C1289 H1351 0.961 . S
C1290 C1291 1.517 . S
C1290 H1353 0.961 . S
C1290 H1354 0.960 . S
C1290 H1355 0.959 . S
C1291 C1290 1.517 . S
C1291 O1339 1.468 . S
C1291 H1352 0.980 . S
C1292 C1293 1.349 . S
C1292 C1297 1.367 . S
C1292 O1339 1.408 . S
C1293 C1292 1.349 . S
C1293 C1294 1.407 . S
C1293 H1356 0.930 . S
C1294 C1293 1.407 . S
C1294 C1295 1.449 . S
C1294 C1298 1.535 . S
C1295 C1294 1.449 . S
C1295 C1296 1.384 . S
C1295 C1320 1.553 . S
C1296 C1295 1.384 . S
C1296 C1297 1.364 . S
C1296 C1299 1.450 . S
C1297 C1292 1.367 . S
C1297 C1296 1.364 . S
C1297 H1357 0.931 . S
C1298 C1294 1.535 . S
C1298 H1358 0.959 . S
C1298 H1359 0.961 . S
C1298 H1360 0.959 . S
C1299 C1296 1.450 . S
C1299 H1361 0.960 . S
C1299 H1362 0.960 . S
C1299 H1363 0.960 . S
C1300 C1301 1.309 . S
C1300 C1305 1.304 . S
C1300 O1338 1.435 . S
C1301 C1300 1.309 . S
C1301 C1302 1.476 . S
C1301 H1365 0.930 . S
C1302 C1301 1.476 . S
C1302 C1303 1.400 . S
C1302 C1306 1.567 . S
C1303 C1302 1.400 . S
C1303 C1304 1.373 . S
C1303 C1325 1.432 . S
C1304 C1303 1.373 . S
C1304 C1305 1.339 . S
C1304 C1307 1.530 . S
C1305 C1300 1.304 . S
C1305 C1304 1.339 . S
C1305 H1366 0.930 . S
C1306 C1302 1.567 . S
C1306 H1367 0.961 . S
C1306 H1368 0.960 . S
C1306 H1369 0.958 . S
C1307 C1304 1.530 . S
C1307 H1370 0.961 . S
C1307 H1371 0.960 . S
C1307 H1372 0.960 . S
C1308 C1309 1.530 . S
C1308 H1374 0.961 . S
C1308 H1375 0.961 . S
C1308 H1376 0.959 . S
C1309 C1308 1.530 . S
C1309 O1337 1.412 . S
C1309 H1373 0.980 . S
C1310 C1311 1.288 . S
C1310 C1315 1.377 . S
C1310 O1337 1.393 . S
C1311 C1310 1.288 . S
C1311 C1312 1.369 . S
C1311 H1377 0.932 . S
C1312 C1311 1.369 . S
C1312 C1313 1.398 . S
C1312 C1316 1.527 . S
C1313 C1312 1.398 . S
C1313 C1314 1.380 . S
C1313 C1327 1.497 . S
C1314 C1313 1.380 . S
C1314 C1315 1.383 . S
C1314 C1317 1.603 . S
C1315 C1310 1.377 . S
C1315 C1314 1.383 . S
C1315 H1378 0.929 . S
C1316 C1312 1.527 . S
C1316 H1379 0.961 . S
C1316 H1380 0.959 . S
C1316 H1381 0.959 . S
C1317 C1314 1.603 . S
C1317 H1382 0.960 . S
C1317 H1383 0.962 . S
C1317 H1384 0.961 . S
C1318 C1285 1.587 . S
C1318 C1319 1.360 . S
C1318 C1331 1.412 . S
C1319 C1318 1.360 . S
C1319 C1320 1.365 1_554 S
C1319 H1385 0.929 . S
C1320 C1295 1.553 . S
C1320 C1319 1.365 1_556 S
C1320 C1321 1.404 . S
C1321 C1320 1.404 . S
C1321 C1322 1.395 . S
C1321 C1332 1.451 1_556 S
C1322 C1321 1.395 . S
C1322 C1323 1.322 . S
C1322 H1386 0.930 . S
C1323 C1322 1.322 . S
C1323 C1324 1.459 . S
C1323 H1387 0.929 . S
C1324 C1323 1.459 . S
C1324 C1325 1.445 . S
C1324 C1333 1.395 1_556 S
C1325 C1303 1.432 . S
C1325 C1324 1.445 . S
C1325 C1326 1.370 1_556 S
C1326 C1325 1.370 1_554 S
C1326 C1327 1.438 . S
C1326 H1388 0.930 . S
C1327 C1313 1.497 . S
C1327 C1326 1.438 . S
C1327 C1328 1.360 . S
C1328 C1327 1.360 . S
C1328 C1329 1.401 . S
C1328 C1333 1.446 . S
C1329 C1328 1.401 . S
C1329 C1330 1.347 . S
C1329 H1389 0.929 . S
C1330 C1329 1.347 . S
C1330 C1331 1.455 . S
C1330 H1390 0.930 . S
C1331 C1318 1.412 . S
C1331 C1330 1.455 . S
C1331 C1332 1.331 . S
C1332 C1321 1.451 1_554 S
C1332 C1331 1.331 . S
C1332 C1333 1.497 . S
C1333 C1324 1.395 1_554 S
C1333 C1328 1.446 . S
C1333 C1332 1.497 . S
C1334 C1335 1.582 . S
C1334 H1391 0.962 . S
C1334 H1392 0.959 . S
C1334 H1393 0.958 . S
C1335 C1334 1.582 . S
C1335 O1338 1.458 . S
C1335 H1364 0.980 . S
O1336 C1281 1.426 . S
O1336 C1282 1.334 . S
O1337 C1309 1.412 . S
O1337 C1310 1.393 . S
O1338 C1300 1.435 . S
O1338 C1335 1.458 . S
O1339 C1291 1.468 . S
O1339 C1292 1.408 . S
H1340 C1281 0.980 . S
H1341 C1280 0.959 . S
H1342 C1280 0.959 . S
H1343 C1280 0.960 . S
H1344 C1283 0.929 . S
H1345 C1287 0.929 . S
H1346 C1288 0.959 . S
H1347 C1288 0.961 . S
H1348 C1288 0.961 . S
H1349 C1289 0.960 . S
H1350 C1289 0.960 . S
H1351 C1289 0.961 . S
H1352 C1291 0.980 . S
H1353 C1290 0.961 . S
H1354 C1290 0.960 . S
H1355 C1290 0.959 . S
H1356 C1293 0.930 . S
H1357 C1297 0.931 . S
H1358 C1298 0.959 . S
H1359 C1298 0.961 . S
H1360 C1298 0.959 . S
H1361 C1299 0.960 . S
H1362 C1299 0.960 . S
H1363 C1299 0.960 . S
H1364 C1335 0.980 . S
H1365 C1301 0.930 . S
H1366 C1305 0.930 . S
H1367 C1306 0.961 . S
H1368 C1306 0.960 . S
H1369 C1306 0.958 . S
H1370 C1307 0.961 . S
H1371 C1307 0.960 . S
H1372 C1307 0.960 . S
H1373 C1309 0.980 . S
H1374 C1308 0.961 . S
H1375 C1308 0.961 . S
H1376 C1308 0.959 . S
H1377 C1311 0.932 . S
H1378 C1315 0.929 . S
H1379 C1316 0.961 . S
H1380 C1316 0.959 . S
H1381 C1316 0.959 . S
H1382 C1317 0.960 . S
H1383 C1317 0.962 . S
H1384 C1317 0.961 . S
H1385 C1319 0.929 . S
H1386 C1322 0.930 . S
H1387 C1323 0.929 . S
H1388 C1326 0.930 . S
H1389 C1329 0.929 . S
H1390 C1330 0.930 . S
H1391 C1334 0.962 . S
H1392 C1334 0.959 . S
H1393 C1334 0.958 . S
C1394 C1395 1.560 . S
C1394 H1455 0.959 . S
C1394 H1456 0.959 . S
C1394 H1457 0.960 . S
C1395 C1394 1.560 . S
C1395 O1450 1.426 . S
C1395 H1454 0.980 . S
C1396 C1397 1.407 . S
C1396 C1401 1.418 . S
C1396 O1450 1.334 . S
C1397 C1396 1.407 . S
C1397 C1398 1.360 . S
C1397 H1458 0.929 . S
C1398 C1397 1.360 . S
C1398 C1399 1.401 . S
C1398 C1402 1.527 . S
C1399 C1398 1.401 . S
C1399 C1400 1.405 . S
C1399 C1432 1.587 . S
C1400 C1399 1.405 . S
C1400 C1401 1.332 . S
C1400 C1403 1.496 . S
C1401 C1396 1.418 . S
C1401 C1400 1.332 . S
C1401 H1459 0.929 . S
C1402 C1398 1.527 . S
C1402 H1460 0.959 . S
C1402 H1461 0.961 . S
C1402 H1462 0.961 . S
C1403 C1400 1.496 . S
C1403 H1463 0.960 . S
C1403 H1464 0.960 . S
C1403 H1465 0.961 . S
C1404 C1405 1.517 . S
C1404 H1467 0.961 . S
C1404 H1468 0.960 . S
C1404 H1469 0.959 . S
C1405 C1404 1.517 . S
C1405 O1453 1.468 . S
C1405 H1466 0.980 . S
C1406 C1407 1.349 . S
C1406 C1411 1.367 . S
C1406 O1453 1.408 . S
C1407 C1406 1.349 . S
C1407 C1408 1.407 . S
C1407 H1470 0.930 . S
C1408 C1407 1.407 . S
C1408 C1409 1.449 . S
C1408 C1412 1.535 . S
C1409 C1408 1.449 . S
C1409 C1410 1.384 . S
C1409 C1434 1.553 . S
C1410 C1409 1.384 . S
C1410 C1411 1.364 . S
C1410 C1413 1.450 . S
C1411 C1406 1.367 . S
C1411 C1410 1.364 . S
C1411 H1471 0.931 . S
C1412 C1408 1.535 . S
C1412 H1472 0.959 . S
C1412 H1473 0.961 . S
C1412 H1474 0.959 . S
C1413 C1410 1.450 . S
C1413 H1475 0.960 . S
C1413 H1476 0.960 . S
C1413 H1477 0.960 . S
C1414 C1415 1.309 . S
C1414 C1419 1.304 . S
C1414 O1452 1.435 . S
C1415 C1414 1.309 . S
C1415 C1416 1.476 . S
C1415 H1479 0.930 . S
C1416 C1415 1.476 . S
C1416 C1417 1.400 . S
C1416 C1420 1.567 . S
C1417 C1416 1.400 . S
C1417 C1418 1.373 . S
C1417 C1439 1.432 . S
C1418 C1417 1.373 . S
C1418 C1419 1.339 . S
C1418 C1421 1.530 . S
C1419 C1414 1.304 . S
C1419 C1418 1.339 . S
C1419 H1480 0.930 . S
C1420 C1416 1.567 . S
C1420 H1481 0.961 . S
C1420 H1482 0.960 . S
C1420 H1483 0.958 . S
C1421 C1418 1.530 . S
C1421 H1484 0.961 . S
C1421 H1485 0.960 . S
C1421 H1486 0.960 . S
C1422 C1423 1.530 . S
C1422 H1488 0.961 . S
C1422 H1489 0.961 . S
C1422 H1490 0.959 . S
C1423 C1422 1.530 . S
C1423 O1451 1.412 . S
C1423 H1487 0.980 . S
C1424 C1425 1.288 . S
C1424 C1429 1.377 . S
C1424 O1451 1.393 . S
C1425 C1424 1.288 . S
C1425 C1426 1.369 . S
C1425 H1491 0.932 . S
C1426 C1425 1.369 . S
C1426 C1427 1.398 . S
C1426 C1430 1.527 . S
C1427 C1426 1.398 . S
C1427 C1428 1.380 . S
C1427 C1441 1.497 . S
C1428 C1427 1.380 . S
C1428 C1429 1.383 . S
C1428 C1431 1.603 . S
C1429 C1424 1.377 . S
C1429 C1428 1.383 . S
C1429 H1492 0.929 . S
C1430 C1426 1.527 . S
C1430 H1493 0.961 . S
C1430 H1494 0.959 . S
C1430 H1495 0.959 . S
C1431 C1428 1.603 . S
C1431 H1496 0.960 . S
C1431 H1497 0.962 . S
C1431 H1498 0.961 . S
C1432 C1399 1.587 . S
C1432 C1433 1.360 1_556 S
C1432 C1445 1.412 . S
C1433 C1432 1.360 1_554 S
C1433 C1434 1.365 . S
C1433 H1499 0.929 . S
C1434 C1409 1.553 . S
C1434 C1433 1.365 . S
C1434 C1435 1.404 . S
C1435 C1434 1.404 . S
C1435 C1436 1.395 . S
C1435 C1446 1.451 . S
C1436 C1435 1.395 . S
C1436 C1437 1.322 . S
C1436 H1500 0.930 . S
C1437 C1436 1.322 . S
C1437 C1438 1.459 . S
C1437 H1501 0.929 . S
C1438 C1437 1.459 . S
C1438 C1439 1.445 . S
C1438 C1447 1.395 . S
C1439 C1417 1.432 . S
C1439 C1438 1.445 . S
C1439 C1440 1.370 . S
C1440 C1439 1.370 . S
C1440 C1441 1.438 1_554 S
C1440 H1502 0.930 . S
C1441 C1427 1.497 . S
C1441 C1440 1.438 1_556 S
C1441 C1442 1.360 . S
C1442 C1441 1.360 . S
C1442 C1443 1.401 . S
C1442 C1447 1.446 1_556 S
C1443 C1442 1.401 . S
C1443 C1444 1.347 . S
C1443 H1503 0.929 . S
C1444 C1443 1.347 . S
C1444 C1445 1.455 . S
C1444 H1504 0.930 . S
C1445 C1432 1.412 . S
C1445 C1444 1.455 . S
C1445 C1446 1.331 1_556 S
C1446 C1435 1.451 . S
C1446 C1445 1.331 1_554 S
C1446 C1447 1.497 . S
C1447 C1438 1.395 . S
C1447 C1442 1.446 1_554 S
C1447 C1446 1.497 . S
C1448 C1449 1.582 . S
C1448 H1505 0.962 . S
C1448 H1506 0.959 . S
C1448 H1507 0.958 . S
C1449 C1448 1.582 . S
C1449 O1452 1.458 . S
C1449 H1478 0.980 . S
O1450 C1395 1.426 . S
O1450 C1396 1.334 . S
O1451 C1423 1.412 . S
O1451 C1424 1.393 . S
O1452 C1414 1.435 . S
O1452 C1449 1.458 . S
O1453 C1405 1.468 . S
O1453 C1406 1.408 . S
H1454 C1395 0.980 . S
H1455 C1394 0.959 . S
H1456 C1394 0.959 . S
H1457 C1394 0.960 . S
H1458 C1397 0.929 . S
H1459 C1401 0.929 . S
H1460 C1402 0.959 . S
H1461 C1402 0.961 . S
H1462 C1402 0.961 . S
H1463 C1403 0.960 . S
H1464 C1403 0.960 . S
H1465 C1403 0.961 . S
H1466 C1405 0.980 . S
H1467 C1404 0.961 . S
H1468 C1404 0.960 . S
H1469 C1404 0.959 . S
H1470 C1407 0.930 . S
H1471 C1411 0.931 . S
H1472 C1412 0.959 . S
H1473 C1412 0.961 . S
H1474 C1412 0.959 . S
H1475 C1413 0.960 . S
H1476 C1413 0.960 . S
H1477 C1413 0.960 . S
H1478 C1449 0.980 . S
H1479 C1415 0.930 . S
H1480 C1419 0.930 . S
H1481 C1420 0.961 . S
H1482 C1420 0.960 . S
H1483 C1420 0.958 . S
H1484 C1421 0.961 . S
H1485 C1421 0.960 . S
H1486 C1421 0.960 . S
H1487 C1423 0.980 . S
H1488 C1422 0.961 . S
H1489 C1422 0.961 . S
H1490 C1422 0.959 . S
H1491 C1425 0.932 . S
H1492 C1429 0.929 . S
H1493 C1430 0.961 . S
H1494 C1430 0.959 . S
H1495 C1430 0.959 . S
H1496 C1431 0.960 . S
H1497 C1431 0.962 . S
H1498 C1431 0.961 . S
H1499 C1433 0.929 . S
H1500 C1436 0.930 . S
H1501 C1437 0.929 . S
H1502 C1440 0.930 . S
H1503 C1443 0.929 . S
H1504 C1444 0.930 . S
H1505 C1448 0.962 . S
H1506 C1448 0.959 . S
H1507 C1448 0.958 . S
C1508 C1509 1.560 . S
C1508 H1569 0.959 . S
C1508 H1570 0.959 . S
C1508 H1571 0.960 . S
C1509 C1508 1.560 . S
C1509 O1564 1.426 . S
C1509 H1568 0.980 . S
C1510 C1511 1.407 . S
C1510 C1515 1.418 . S
C1510 O1564 1.334 . S
C1511 C1510 1.407 . S
C1511 C1512 1.360 . S
C1511 H1572 0.929 . S
C1512 C1511 1.360 . S
C1512 C1513 1.401 . S
C1512 C1516 1.527 . S
C1513 C1512 1.401 . S
C1513 C1514 1.405 . S
C1513 C1546 1.587 . S
C1514 C1513 1.405 . S
C1514 C1515 1.332 . S
C1514 C1517 1.496 . S
C1515 C1510 1.418 . S
C1515 C1514 1.332 . S
C1515 H1573 0.929 . S
C1516 C1512 1.527 . S
C1516 H1574 0.959 . S
C1516 H1575 0.961 . S
C1516 H1576 0.961 . S
C1517 C1514 1.496 . S
C1517 H1577 0.960 . S
C1517 H1578 0.960 . S
C1517 H1579 0.961 . S
C1518 C1519 1.517 . S
C1518 H1581 0.961 . S
C1518 H1582 0.960 . S
C1518 H1583 0.959 . S
C1519 C1518 1.517 . S
C1519 O1567 1.468 . S
C1519 H1580 0.980 . S
C1520 C1521 1.349 . S
C1520 C1525 1.367 . S
C1520 O1567 1.408 . S
C1521 C1520 1.349 . S
C1521 C1522 1.407 . S
C1521 H1584 0.930 . S
C1522 C1521 1.407 . S
C1522 C1523 1.449 . S
C1522 C1526 1.535 . S
C1523 C1522 1.449 . S
C1523 C1524 1.384 . S
C1523 C1548 1.553 . S
C1524 C1523 1.384 . S
C1524 C1525 1.364 . S
C1524 C1527 1.450 . S
C1525 C1520 1.367 . S
C1525 C1524 1.364 . S
C1525 H1585 0.931 . S
C1526 C1522 1.535 . S
C1526 H1586 0.959 . S
C1526 H1587 0.961 . S
C1526 H1588 0.959 . S
C1527 C1524 1.450 . S
C1527 H1589 0.960 . S
C1527 H1590 0.960 . S
C1527 H1591 0.960 . S
C1528 C1529 1.309 . S
C1528 C1533 1.304 . S
C1528 O1566 1.435 . S
C1529 C1528 1.309 . S
C1529 C1530 1.476 . S
C1529 H1593 0.930 . S
C1530 C1529 1.476 . S
C1530 C1531 1.400 . S
C1530 C1534 1.567 . S
C1531 C1530 1.400 . S
C1531 C1532 1.373 . S
C1531 C1553 1.432 . S
C1532 C1531 1.373 . S
C1532 C1533 1.339 . S
C1532 C1535 1.530 . S
C1533 C1528 1.304 . S
C1533 C1532 1.339 . S
C1533 H1594 0.930 . S
C1534 C1530 1.567 . S
C1534 H1595 0.961 . S
C1534 H1596 0.960 . S
C1534 H1597 0.958 . S
C1535 C1532 1.530 . S
C1535 H1598 0.961 . S
C1535 H1599 0.960 . S
C1535 H1600 0.960 . S
C1536 C1537 1.530 . S
C1536 H1602 0.961 . S
C1536 H1603 0.961 . S
C1536 H1604 0.959 . S
C1537 C1536 1.530 . S
C1537 O1565 1.412 . S
C1537 H1601 0.980 . S
C1538 C1539 1.288 . S
C1538 C1543 1.377 . S
C1538 O1565 1.393 . S
C1539 C1538 1.288 . S
C1539 C1540 1.369 . S
C1539 H1605 0.932 . S
C1540 C1539 1.369 . S
C1540 C1541 1.398 . S
C1540 C1544 1.527 . S
C1541 C1540 1.398 . S
C1541 C1542 1.380 . S
C1541 C1555 1.497 . S
C1542 C1541 1.380 . S
C1542 C1543 1.383 . S
C1542 C1545 1.603 . S
C1543 C1538 1.377 . S
C1543 C1542 1.383 . S
C1543 H1606 0.929 . S
C1544 C1540 1.527 . S
C1544 H1607 0.961 . S
C1544 H1608 0.959 . S
C1544 H1609 0.959 . S
C1545 C1542 1.603 . S
C1545 H1610 0.960 . S
C1545 H1611 0.962 . S
C1545 H1612 0.961 . S
C1546 C1513 1.587 . S
C1546 C1547 1.360 . S
C1546 C1559 1.412 . S
C1547 C1546 1.360 . S
C1547 C1548 1.365 1_554 S
C1547 H1613 0.929 . S
C1548 C1523 1.553 . S
C1548 C1547 1.365 1_556 S
C1548 C1549 1.404 . S
C1549 C1548 1.404 . S
C1549 C1550 1.395 . S
C1549 C1560 1.451 1_556 S
C1550 C1549 1.395 . S
C1550 C1551 1.322 . S
C1550 H1614 0.930 . S
C1551 C1550 1.322 . S
C1551 C1552 1.459 . S
C1551 H1615 0.929 . S
C1552 C1551 1.459 . S
C1552 C1553 1.445 . S
C1552 C1561 1.395 1_556 S
C1553 C1531 1.432 . S
C1553 C1552 1.445 . S
C1553 C1554 1.370 1_556 S
C1554 C1553 1.370 1_554 S
C1554 C1555 1.438 . S
C1554 H1616 0.930 . S
C1555 C1541 1.497 . S
C1555 C1554 1.438 . S
C1555 C1556 1.360 . S
C1556 C1555 1.360 . S
C1556 C1557 1.401 . S
C1556 C1561 1.446 . S
C1557 C1556 1.401 . S
C1557 C1558 1.347 . S
C1557 H1617 0.929 . S
C1558 C1557 1.347 . S
C1558 C1559 1.455 . S
C1558 H1618 0.930 . S
C1559 C1546 1.412 . S
C1559 C1558 1.455 . S
C1559 C1560 1.331 . S
C1560 C1549 1.451 1_554 S
C1560 C1559 1.331 . S
C1560 C1561 1.497 . S
C1561 C1552 1.395 1_554 S
C1561 C1556 1.446 . S
C1561 C1560 1.497 . S
C1562 C1563 1.582 . S
C1562 H1619 0.962 . S
C1562 H1620 0.959 . S
C1562 H1621 0.958 . S
C1563 C1562 1.582 . S
C1563 O1566 1.458 . S
C1563 H1592 0.980 . S
O1564 C1509 1.426 . S
O1564 C1510 1.334 . S
O1565 C1537 1.412 . S
O1565 C1538 1.393 . S
O1566 C1528 1.435 . S
O1566 C1563 1.458 . S
O1567 C1519 1.468 . S
O1567 C1520 1.408 . S
H1568 C1509 0.980 . S
H1569 C1508 0.959 . S
H1570 C1508 0.959 . S
H1571 C1508 0.960 . S
H1572 C1511 0.929 . S
H1573 C1515 0.929 . S
H1574 C1516 0.959 . S
H1575 C1516 0.961 . S
H1576 C1516 0.961 . S
H1577 C1517 0.960 . S
H1578 C1517 0.960 . S
H1579 C1517 0.961 . S
H1580 C1519 0.980 . S
H1581 C1518 0.961 . S
H1582 C1518 0.960 . S
H1583 C1518 0.959 . S
H1584 C1521 0.930 . S
H1585 C1525 0.931 . S
H1586 C1526 0.959 . S
H1587 C1526 0.961 . S
H1588 C1526 0.959 . S
H1589 C1527 0.960 . S
H1590 C1527 0.960 . S
H1591 C1527 0.960 . S
H1592 C1563 0.980 . S
H1593 C1529 0.930 . S
H1594 C1533 0.930 . S
H1595 C1534 0.961 . S
H1596 C1534 0.960 . S
H1597 C1534 0.958 . S
H1598 C1535 0.961 . S
H1599 C1535 0.960 . S
H1600 C1535 0.960 . S
H1601 C1537 0.980 . S
H1602 C1536 0.961 . S
H1603 C1536 0.961 . S
H1604 C1536 0.959 . S
H1605 C1539 0.932 . S
H1606 C1543 0.929 . S
H1607 C1544 0.961 . S
H1608 C1544 0.959 . S
H1609 C1544 0.959 . S
H1610 C1545 0.960 . S
H1611 C1545 0.962 . S
H1612 C1545 0.961 . S
H1613 C1547 0.929 . S
H1614 C1550 0.930 . S
H1615 C1551 0.929 . S
H1616 C1554 0.930 . S
H1617 C1557 0.929 . S
H1618 C1558 0.930 . S
H1619 C1562 0.962 . S
H1620 C1562 0.959 . S
H1621 C1562 0.958 . S
C1622 C1623 1.560 . S
C1622 H1683 0.959 . S
C1622 H1684 0.959 . S
C1622 H1685 0.960 . S
C1623 C1622 1.560 . S
C1623 O1678 1.426 . S
C1623 H1682 0.980 . S
C1624 C1625 1.407 . S
C1624 C1629 1.418 . S
C1624 O1678 1.334 . S
C1625 C1624 1.407 . S
C1625 C1626 1.360 . S
C1625 H1686 0.929 . S
C1626 C1625 1.360 . S
C1626 C1627 1.401 . S
C1626 C1630 1.527 . S
C1627 C1626 1.401 . S
C1627 C1628 1.405 . S
C1627 C1660 1.587 . S
C1628 C1627 1.405 . S
C1628 C1629 1.332 . S
C1628 C1631 1.496 . S
C1629 C1624 1.418 . S
C1629 C1628 1.332 . S
C1629 H1687 0.929 . S
C1630 C1626 1.527 . S
C1630 H1688 0.959 . S
C1630 H1689 0.961 . S
C1630 H1690 0.961 . S
C1631 C1628 1.496 . S
C1631 H1691 0.960 . S
C1631 H1692 0.960 . S
C1631 H1693 0.961 . S
C1632 C1633 1.517 . S
C1632 H1695 0.961 . S
C1632 H1696 0.960 . S
C1632 H1697 0.959 . S
C1633 C1632 1.517 . S
C1633 O1681 1.468 . S
C1633 H1694 0.980 . S
C1634 C1635 1.349 . S
C1634 C1639 1.367 . S
C1634 O1681 1.408 . S
C1635 C1634 1.349 . S
C1635 C1636 1.407 . S
C1635 H1698 0.930 . S
C1636 C1635 1.407 . S
C1636 C1637 1.449 . S
C1636 C1640 1.535 . S
C1637 C1636 1.449 . S
C1637 C1638 1.384 . S
C1637 C1662 1.553 . S
C1638 C1637 1.384 . S
C1638 C1639 1.364 . S
C1638 C1641 1.450 . S
C1639 C1634 1.367 . S
C1639 C1638 1.364 . S
C1639 H1699 0.931 . S
C1640 C1636 1.535 . S
C1640 H1700 0.959 . S
C1640 H1701 0.961 . S
C1640 H1702 0.959 . S
C1641 C1638 1.450 . S
C1641 H1703 0.960 . S
C1641 H1704 0.960 . S
C1641 H1705 0.960 . S
C1642 C1643 1.309 . S
C1642 C1647 1.304 . S
C1642 O1680 1.435 . S
C1643 C1642 1.309 . S
C1643 C1644 1.476 . S
C1643 H1707 0.930 . S
C1644 C1643 1.476 . S
C1644 C1645 1.400 . S
C1644 C1648 1.567 . S
C1645 C1644 1.400 . S
C1645 C1646 1.373 . S
C1645 C1667 1.432 . S
C1646 C1645 1.373 . S
C1646 C1647 1.339 . S
C1646 C1649 1.530 . S
C1647 C1642 1.304 . S
C1647 C1646 1.339 . S
C1647 H1708 0.930 . S
C1648 C1644 1.567 . S
C1648 H1709 0.961 . S
C1648 H1710 0.960 . S
C1648 H1711 0.958 . S
C1649 C1646 1.530 . S
C1649 H1712 0.961 . S
C1649 H1713 0.960 . S
C1649 H1714 0.960 . S
C1650 C1651 1.530 . S
C1650 H1716 0.961 . S
C1650 H1717 0.961 . S
C1650 H1718 0.959 . S
C1651 C1650 1.530 . S
C1651 O1679 1.412 . S
C1651 H1715 0.980 . S
C1652 C1653 1.288 . S
C1652 C1657 1.377 . S
C1652 O1679 1.393 . S
C1653 C1652 1.288 . S
C1653 C1654 1.369 . S
C1653 H1719 0.932 . S
C1654 C1653 1.369 . S
C1654 C1655 1.398 . S
C1654 C1658 1.527 . S
C1655 C1654 1.398 . S
C1655 C1656 1.380 . S
C1655 C1669 1.497 . S
C1656 C1655 1.380 . S
C1656 C1657 1.383 . S
C1656 C1659 1.603 . S
C1657 C1652 1.377 . S
C1657 C1656 1.383 . S
C1657 H1720 0.929 . S
C1658 C1654 1.527 . S
C1658 H1721 0.961 . S
C1658 H1722 0.959 . S
C1658 H1723 0.959 . S
C1659 C1656 1.603 . S
C1659 H1724 0.960 . S
C1659 H1725 0.962 . S
C1659 H1726 0.961 . S
C1660 C1627 1.587 . S
C1660 C1661 1.411 . S
C1660 C1673 1.412 . S
C1661 C1660 1.411 . S
C1661 C1662 1.314 1_556 S
C1661 H1727 0.929 . S
C1662 C1637 1.553 . S
C1662 C1661 1.314 1_554 S
C1662 C1663 1.404 . S
C1663 C1662 1.404 . S
C1663 C1664 1.395 . S
C1663 C1674 1.446 1_554 S
C1664 C1663 1.395 . S
C1664 C1665 1.322 . S
C1664 H1728 0.930 . S
C1665 C1664 1.322 . S
C1665 C1666 1.459 . S
C1665 H1729 0.929 . S
C1666 C1665 1.459 . S
C1666 C1667 1.445 . S
C1666 C1675 1.448 . S
C1667 C1645 1.432 . S
C1667 C1666 1.445 . S
C1667 C1668 1.370 . S
C1668 C1667 1.370 . S
C1668 C1669 1.438 1_554 S
C1668 H1730 0.930 . S
C1669 C1655 1.497 . S
C1669 C1668 1.438 1_556 S
C1669 C1670 1.360 . S
C1670 C1669 1.360 . S
C1670 C1671 1.401 . S
C1670 C1675 1.396 1_556 S
C1671 C1670 1.401 . S
C1671 C1672 1.347 . S
C1671 H1731 0.929 . S
C1672 C1671 1.347 . S
C1672 C1673 1.455 . S
C1672 H1732 0.930 . S
C1673 C1660 1.412 . S
C1673 C1672 1.455 . S
C1673 C1674 1.336 . S
C1674 C1663 1.446 1_556 S
C1674 C1673 1.336 . S
C1674 C1675 1.495 1_556 S
C1675 C1666 1.448 . S
C1675 C1670 1.396 1_554 S
C1675 C1674 1.495 1_554 S
C1676 C1677 1.582 . S
C1676 H1733 0.962 . S
C1676 H1734 0.959 . S
C1676 H1735 0.958 . S
C1677 C1676 1.582 . S
C1677 O1680 1.458 . S
C1677 H1706 0.980 . S
O1678 C1623 1.426 . S
O1678 C1624 1.334 . S
O1679 C1651 1.412 . S
O1679 C1652 1.393 . S
O1680 C1642 1.435 . S
O1680 C1677 1.458 . S
O1681 C1633 1.468 . S
O1681 C1634 1.408 . S
H1682 C1623 0.980 . S
H1683 C1622 0.959 . S
H1684 C1622 0.959 . S
H1685 C1622 0.960 . S
H1686 C1625 0.929 . S
H1687 C1629 0.929 . S
H1688 C1630 0.959 . S
H1689 C1630 0.961 . S
H1690 C1630 0.961 . S
H1691 C1631 0.960 . S
H1692 C1631 0.960 . S
H1693 C1631 0.961 . S
H1694 C1633 0.980 . S
H1695 C1632 0.961 . S
H1696 C1632 0.960 . S
H1697 C1632 0.959 . S
H1698 C1635 0.930 . S
H1699 C1639 0.931 . S
H1700 C1640 0.959 . S
H1701 C1640 0.961 . S
H1702 C1640 0.959 . S
H1703 C1641 0.960 . S
H1704 C1641 0.960 . S
H1705 C1641 0.960 . S
H1706 C1677 0.980 . S
H1707 C1643 0.930 . S
H1708 C1647 0.930 . S
H1709 C1648 0.961 . S
H1710 C1648 0.960 . S
H1711 C1648 0.958 . S
H1712 C1649 0.961 . S
H1713 C1649 0.960 . S
H1714 C1649 0.960 . S
H1715 C1651 0.980 . S
H1716 C1650 0.961 . S
H1717 C1650 0.961 . S
H1718 C1650 0.959 . S
H1719 C1653 0.932 . S
H1720 C1657 0.929 . S
H1721 C1658 0.961 . S
H1722 C1658 0.959 . S
H1723 C1658 0.959 . S
H1724 C1659 0.960 . S
H1725 C1659 0.962 . S
H1726 C1659 0.961 . S
H1727 C1661 0.929 . S
H1728 C1664 0.930 . S
H1729 C1665 0.929 . S
H1730 C1668 0.930 . S
H1731 C1671 0.929 . S
H1732 C1672 0.930 . S
H1733 C1676 0.962 . S
H1734 C1676 0.959 . S
H1735 C1676 0.958 . S
C1736 C1737 1.560 . S
C1736 H1797 0.959 . S
C1736 H1798 0.959 . S
C1736 H1799 0.960 . S
C1737 C1736 1.560 . S
C1737 O1792 1.426 . S
C1737 H1796 0.980 . S
C1738 C1739 1.407 . S
C1738 C1743 1.418 . S
C1738 O1792 1.334 . S
C1739 C1738 1.407 . S
C1739 C1740 1.360 . S
C1739 H1800 0.929 . S
C1740 C1739 1.360 . S
C1740 C1741 1.401 . S
C1740 C1744 1.527 . S
C1741 C1740 1.401 . S
C1741 C1742 1.405 . S
C1741 C1774 1.587 . S
C1742 C1741 1.405 . S
C1742 C1743 1.332 . S
C1742 C1745 1.496 . S
C1743 C1738 1.418 . S
C1743 C1742 1.332 . S
C1743 H1801 0.929 . S
C1744 C1740 1.527 . S
C1744 H1802 0.959 . S
C1744 H1803 0.961 . S
C1744 H1804 0.961 . S
C1745 C1742 1.496 . S
C1745 H1805 0.960 . S
C1745 H1806 0.960 . S
C1745 H1807 0.961 . S
C1746 C1747 1.517 . S
C1746 H1809 0.961 . S
C1746 H1810 0.960 . S
C1746 H1811 0.959 . S
C1747 C1746 1.517 . S
C1747 O1795 1.468 . S
C1747 H1808 0.980 . S
C1748 C1749 1.349 . S
C1748 C1753 1.367 . S
C1748 O1795 1.408 . S
C1749 C1748 1.349 . S
C1749 C1750 1.407 . S
C1749 H1812 0.930 . S
C1750 C1749 1.407 . S
C1750 C1751 1.449 . S
C1750 C1754 1.535 . S
C1751 C1750 1.449 . S
C1751 C1752 1.384 . S
C1751 C1776 1.553 . S
C1752 C1751 1.384 . S
C1752 C1753 1.364 . S
C1752 C1755 1.450 . S
C1753 C1748 1.367 . S
C1753 C1752 1.364 . S
C1753 H1813 0.931 . S
C1754 C1750 1.535 . S
C1754 H1814 0.959 . S
C1754 H1815 0.961 . S
C1754 H1816 0.959 . S
C1755 C1752 1.450 . S
C1755 H1817 0.960 . S
C1755 H1818 0.960 . S
C1755 H1819 0.960 . S
C1756 C1757 1.309 . S
C1756 C1761 1.304 . S
C1756 O1794 1.435 . S
C1757 C1756 1.309 . S
C1757 C1758 1.476 . S
C1757 H1821 0.930 . S
C1758 C1757 1.476 . S
C1758 C1759 1.400 . S
C1758 C1762 1.567 . S
C1759 C1758 1.400 . S
C1759 C1760 1.373 . S
C1759 C1781 1.432 . S
C1760 C1759 1.373 . S
C1760 C1761 1.339 . S
C1760 C1763 1.530 . S
C1761 C1756 1.304 . S
C1761 C1760 1.339 . S
C1761 H1822 0.930 . S
C1762 C1758 1.567 . S
C1762 H1823 0.961 . S
C1762 H1824 0.960 . S
C1762 H1825 0.958 . S
C1763 C1760 1.530 . S
C1763 H1826 0.961 . S
C1763 H1827 0.960 . S
C1763 H1828 0.960 . S
C1764 C1765 1.530 . S
C1764 H1830 0.961 . S
C1764 H1831 0.961 . S
C1764 H1832 0.959 . S
C1765 C1764 1.530 . S
C1765 O1793 1.412 . S
C1765 H1829 0.980 . S
C1766 C1767 1.288 . S
C1766 C1771 1.377 . S
C1766 O1793 1.393 . S
C1767 C1766 1.288 . S
C1767 C1768 1.369 . S
C1767 H1833 0.932 . S
C1768 C1767 1.369 . S
C1768 C1769 1.398 . S
C1768 C1772 1.527 . S
C1769 C1768 1.398 . S
C1769 C1770 1.380 . S
C1769 C1783 1.497 . S
C1770 C1769 1.380 . S
C1770 C1771 1.383 . S
C1770 C1773 1.603 . S
C1771 C1766 1.377 . S
C1771 C1770 1.383 . S
C1771 H1834 0.929 . S
C1772 C1768 1.527 . S
C1772 H1835 0.961 . S
C1772 H1836 0.959 . S
C1772 H1837 0.959 . S
C1773 C1770 1.603 . S
C1773 H1838 0.960 . S
C1773 H1839 0.962 . S
C1773 H1840 0.961 . S
C1774 C1741 1.587 . S
C1774 C1775 1.360 . S
C1774 C1787 1.412 . S
C1775 C1774 1.360 . S
C1775 C1776 1.365 1_455 S
C1775 H1841 0.929 . S
C1776 C1751 1.553 . S
C1776 C1775 1.365 1_655 S
C1776 C1777 1.404 . S
C1777 C1776 1.404 . S
C1777 C1778 1.395 . S
C1777 C1788 1.451 1_655 S
C1778 C1777 1.395 . S
C1778 C1779 1.322 . S
C1778 H1842 0.930 . S
C1779 C1778 1.322 . S
C1779 C1780 1.459 . S
C1779 H1843 0.929 . S
C1780 C1779 1.459 . S
C1780 C1781 1.445 . S
C1780 C1789 1.395 1_655 S
C1781 C1759 1.432 . S
C1781 C1780 1.445 . S
C1781 C1782 1.370 1_655 S
C1782 C1781 1.370 1_455 S
C1782 C1783 1.438 . S
C1782 H1844 0.930 . S
C1783 C1769 1.497 . S
C1783 C1782 1.438 . S
C1783 C1784 1.360 . S
C1784 C1783 1.360 . S
C1784 C1785 1.401 . S
C1784 C1789 1.446 . S
C1785 C1784 1.401 . S
C1785 C1786 1.347 . S
C1785 H1845 0.929 . S
C1786 C1785 1.347 . S
C1786 C1787 1.455 . S
C1786 H1846 0.930 . S
C1787 C1774 1.412 . S
C1787 C1786 1.455 . S
C1787 C1788 1.331 . S
C1788 C1777 1.451 1_455 S
C1788 C1787 1.331 . S
C1788 C1789 1.497 . S
C1789 C1780 1.395 1_455 S
C1789 C1784 1.446 . S
C1789 C1788 1.497 . S
C1790 C1791 1.582 . S
C1790 H1847 0.962 . S
C1790 H1848 0.959 . S
C1790 H1849 0.958 . S
C1791 C1790 1.582 . S
C1791 O1794 1.458 . S
C1791 H1820 0.980 . S
O1792 C1737 1.426 . S
O1792 C1738 1.334 . S
O1793 C1765 1.412 . S
O1793 C1766 1.393 . S
O1794 C1756 1.435 . S
O1794 C1791 1.458 . S
O1795 C1747 1.468 . S
O1795 C1748 1.408 . S
H1796 C1737 0.980 . S
H1797 C1736 0.959 . S
H1798 C1736 0.959 . S
H1799 C1736 0.960 . S
H1800 C1739 0.929 . S
H1801 C1743 0.929 . S
H1802 C1744 0.959 . S
H1803 C1744 0.961 . S
H1804 C1744 0.961 . S
H1805 C1745 0.960 . S
H1806 C1745 0.960 . S
H1807 C1745 0.961 . S
H1808 C1747 0.980 . S
H1809 C1746 0.961 . S
H1810 C1746 0.960 . S
H1811 C1746 0.959 . S
H1812 C1749 0.930 . S
H1813 C1753 0.931 . S
H1814 C1754 0.959 . S
H1815 C1754 0.961 . S
H1816 C1754 0.959 . S
H1817 C1755 0.960 . S
H1818 C1755 0.960 . S
H1819 C1755 0.960 . S
H1820 C1791 0.980 . S
H1821 C1757 0.930 . S
H1822 C1761 0.930 . S
H1823 C1762 0.961 . S
H1824 C1762 0.960 . S
H1825 C1762 0.958 . S
H1826 C1763 0.961 . S
H1827 C1763 0.960 . S
H1828 C1763 0.960 . S
H1829 C1765 0.980 . S
H1830 C1764 0.961 . S
H1831 C1764 0.961 . S
H1832 C1764 0.959 . S
H1833 C1767 0.932 . S
H1834 C1771 0.929 . S
H1835 C1772 0.961 . S
H1836 C1772 0.959 . S
H1837 C1772 0.959 . S
H1838 C1773 0.960 . S
H1839 C1773 0.962 . S
H1840 C1773 0.961 . S
H1841 C1775 0.929 . S
H1842 C1778 0.930 . S
H1843 C1779 0.929 . S
H1844 C1782 0.930 . S
H1845 C1785 0.929 . S
H1846 C1786 0.930 . S
H1847 C1790 0.962 . S
H1848 C1790 0.959 . S
H1849 C1790 0.958 . S
C1850 C1851 1.560 . S
C1850 H1911 0.959 . S
C1850 H1912 0.959 . S
C1850 H1913 0.960 . S
C1851 C1850 1.560 . S
C1851 O1906 1.426 . S
C1851 H1910 0.980 . S
C1852 C1853 1.407 . S
C1852 C1857 1.418 . S
C1852 O1906 1.334 . S
C1853 C1852 1.407 . S
C1853 C1854 1.360 . S
C1853 H1914 0.929 . S
C1854 C1853 1.360 . S
C1854 C1855 1.401 . S
C1854 C1858 1.527 . S
C1855 C1854 1.401 . S
C1855 C1856 1.405 . S
C1855 C1888 1.587 . S
C1856 C1855 1.405 . S
C1856 C1857 1.332 . S
C1856 C1859 1.496 . S
C1857 C1852 1.418 . S
C1857 C1856 1.332 . S
C1857 H1915 0.929 . S
C1858 C1854 1.527 . S
C1858 H1916 0.959 . S
C1858 H1917 0.961 . S
C1858 H1918 0.961 . S
C1859 C1856 1.496 . S
C1859 H1919 0.960 . S
C1859 H1920 0.960 . S
C1859 H1921 0.961 . S
C1860 C1861 1.517 . S
C1860 H1923 0.961 . S
C1860 H1924 0.960 . S
C1860 H1925 0.959 . S
C1861 C1860 1.517 . S
C1861 O1909 1.468 . S
C1861 H1922 0.980 . S
C1862 C1863 1.349 . S
C1862 C1867 1.367 . S
C1862 O1909 1.408 . S
C1863 C1862 1.349 . S
C1863 C1864 1.407 . S
C1863 H1926 0.930 . S
C1864 C1863 1.407 . S
C1864 C1865 1.449 . S
C1864 C1868 1.535 . S
C1865 C1864 1.449 . S
C1865 C1866 1.384 . S
C1865 C1890 1.553 . S
C1866 C1865 1.384 . S
C1866 C1867 1.364 . S
C1866 C1869 1.450 . S
C1867 C1862 1.367 . S
C1867 C1866 1.364 . S
C1867 H1927 0.931 . S
C1868 C1864 1.535 . S
C1868 H1928 0.959 . S
C1868 H1929 0.961 . S
C1868 H1930 0.959 . S
C1869 C1866 1.450 . S
C1869 H1931 0.960 . S
C1869 H1932 0.960 . S
C1869 H1933 0.960 . S
C1870 C1871 1.309 . S
C1870 C1875 1.304 . S
C1870 O1908 1.435 . S
C1871 C1870 1.309 . S
C1871 C1872 1.476 . S
C1871 H1935 0.930 . S
C1872 C1871 1.476 . S
C1872 C1873 1.400 . S
C1872 C1876 1.567 . S
C1873 C1872 1.400 . S
C1873 C1874 1.373 . S
C1873 C1895 1.432 . S
C1874 C1873 1.373 . S
C1874 C1875 1.339 . S
C1874 C1877 1.530 . S
C1875 C1870 1.304 . S
C1875 C1874 1.339 . S
C1875 H1936 0.930 . S
C1876 C1872 1.567 . S
C1876 H1937 0.961 . S
C1876 H1938 0.960 . S
C1876 H1939 0.958 . S
C1877 C1874 1.530 . S
C1877 H1940 0.961 . S
C1877 H1941 0.960 . S
C1877 H1942 0.960 . S
C1878 C1879 1.530 . S
C1878 H1944 0.961 . S
C1878 H1945 0.961 . S
C1878 H1946 0.959 . S
C1879 C1878 1.530 . S
C1879 O1907 1.412 . S
C1879 H1943 0.980 . S
C1880 C1881 1.288 . S
C1880 C1885 1.377 . S
C1880 O1907 1.393 . S
C1881 C1880 1.288 . S
C1881 C1882 1.369 . S
C1881 H1947 0.932 . S
C1882 C1881 1.369 . S
C1882 C1883 1.398 . S
C1882 C1886 1.527 . S
C1883 C1882 1.398 . S
C1883 C1884 1.380 . S
C1883 C1897 1.497 . S
C1884 C1883 1.380 . S
C1884 C1885 1.383 . S
C1884 C1887 1.603 . S
C1885 C1880 1.377 . S
C1885 C1884 1.383 . S
C1885 H1948 0.929 . S
C1886 C1882 1.527 . S
C1886 H1949 0.961 . S
C1886 H1950 0.959 . S
C1886 H1951 0.959 . S
C1887 C1884 1.603 . S
C1887 H1952 0.960 . S
C1887 H1953 0.962 . S
C1887 H1954 0.961 . S
C1888 C1855 1.587 . S
C1888 C1889 1.360 . S
C1888 C1901 1.412 . S
C1889 C1888 1.360 . S
C1889 C1890 1.365 1_545 S
C1889 H1955 0.929 . S
C1890 C1865 1.553 . S
C1890 C1889 1.365 1_565 S
C1890 C1891 1.404 . S
C1891 C1890 1.404 . S
C1891 C1892 1.395 . S
C1891 C1902 1.451 1_565 S
C1892 C1891 1.395 . S
C1892 C1893 1.322 . S
C1892 H1956 0.930 . S
C1893 C1892 1.322 . S
C1893 C1894 1.459 . S
C1893 H1957 0.929 . S
C1894 C1893 1.459 . S
C1894 C1895 1.445 . S
C1894 C1903 1.395 1_565 S
C1895 C1873 1.432 . S
C1895 C1894 1.445 . S
C1895 C1896 1.370 1_565 S
C1896 C1895 1.370 1_545 S
C1896 C1897 1.438 . S
C1896 H1958 0.930 . S
C1897 C1883 1.497 . S
C1897 C1896 1.438 . S
C1897 C1898 1.360 . S
C1898 C1897 1.360 . S
C1898 C1899 1.401 . S
C1898 C1903 1.446 . S
C1899 C1898 1.401 . S
C1899 C1900 1.347 . S
C1899 H1959 0.929 . S
C1900 C1899 1.347 . S
C1900 C1901 1.455 . S
C1900 H1960 0.930 . S
C1901 C1888 1.412 . S
C1901 C1900 1.455 . S
C1901 C1902 1.331 . S
C1902 C1891 1.451 1_545 S
C1902 C1901 1.331 . S
C1902 C1903 1.497 . S
C1903 C1894 1.395 1_545 S
C1903 C1898 1.446 . S
C1903 C1902 1.497 . S
C1904 C1905 1.582 . S
C1904 H1961 0.962 . S
C1904 H1962 0.959 . S
C1904 H1963 0.958 . S
C1905 C1904 1.582 . S
C1905 O1908 1.458 . S
C1905 H1934 0.980 . S
O1906 C1851 1.426 . S
O1906 C1852 1.334 . S
O1907 C1879 1.412 . S
O1907 C1880 1.393 . S
O1908 C1870 1.435 . S
O1908 C1905 1.458 . S
O1909 C1861 1.468 . S
O1909 C1862 1.408 . S
H1910 C1851 0.980 . S
H1911 C1850 0.959 . S
H1912 C1850 0.959 . S
H1913 C1850 0.960 . S
H1914 C1853 0.929 . S
H1915 C1857 0.929 . S
H1916 C1858 0.959 . S
H1917 C1858 0.961 . S
H1918 C1858 0.961 . S
H1919 C1859 0.960 . S
H1920 C1859 0.960 . S
H1921 C1859 0.961 . S
H1922 C1861 0.980 . S
H1923 C1860 0.961 . S
H1924 C1860 0.960 . S
H1925 C1860 0.959 . S
H1926 C1863 0.930 . S
H1927 C1867 0.931 . S
H1928 C1868 0.959 . S
H1929 C1868 0.961 . S
H1930 C1868 0.959 . S
H1931 C1869 0.960 . S
H1932 C1869 0.960 . S
H1933 C1869 0.960 . S
H1934 C1905 0.980 . S
H1935 C1871 0.930 . S
H1936 C1875 0.930 . S
H1937 C1876 0.961 . S
H1938 C1876 0.960 . S
H1939 C1876 0.958 . S
H1940 C1877 0.961 . S
H1941 C1877 0.960 . S
H1942 C1877 0.960 . S
H1943 C1879 0.980 . S
H1944 C1878 0.961 . S
H1945 C1878 0.961 . S
H1946 C1878 0.959 . S
H1947 C1881 0.932 . S
H1948 C1885 0.929 . S
H1949 C1886 0.961 . S
H1950 C1886 0.959 . S
H1951 C1886 0.959 . S
H1952 C1887 0.960 . S
H1953 C1887 0.962 . S
H1954 C1887 0.961 . S
H1955 C1889 0.929 . S
H1956 C1892 0.930 . S
H1957 C1893 0.929 . S
H1958 C1896 0.930 . S
H1959 C1899 0.929 . S
H1960 C1900 0.930 . S
H1961 C1904 0.962 . S
H1962 C1904 0.959 . S
H1963 C1904 0.958 . S
C1964 C1965 1.560 . S
C1964 H2025 0.959 . S
C1964 H2026 0.959 . S
C1964 H2027 0.960 . S
C1965 C1964 1.560 . S
C1965 O2020 1.426 . S
C1965 H2024 0.980 . S
C1966 C1967 1.407 . S
C1966 C1971 1.418 . S
C1966 O2020 1.334 . S
C1967 C1966 1.407 . S
C1967 C1968 1.360 . S
C1967 H2028 0.929 . S
C1968 C1967 1.360 . S
C1968 C1969 1.401 . S
C1968 C1972 1.527 . S
C1969 C1968 1.401 . S
C1969 C1970 1.405 . S
C1969 C2002 1.587 . S
C1970 C1969 1.405 . S
C1970 C1971 1.332 . S
C1970 C1973 1.496 . S
C1971 C1966 1.418 . S
C1971 C1970 1.332 . S
C1971 H2029 0.929 . S
C1972 C1968 1.527 . S
C1972 H2030 0.959 . S
C1972 H2031 0.961 . S
C1972 H2032 0.961 . S
C1973 C1970 1.496 . S
C1973 H2033 0.960 . S
C1973 H2034 0.960 . S
C1973 H2035 0.961 . S
C1974 C1975 1.517 . S
C1974 H2037 0.961 . S
C1974 H2038 0.960 . S
C1974 H2039 0.959 . S
C1975 C1974 1.517 . S
C1975 O2023 1.468 . S
C1975 H2036 0.980 . S
C1976 C1977 1.349 . S
C1976 C1981 1.367 . S
C1976 O2023 1.408 . S
C1977 C1976 1.349 . S
C1977 C1978 1.407 . S
C1977 H2040 0.930 . S
C1978 C1977 1.407 . S
C1978 C1979 1.449 . S
C1978 C1982 1.535 . S
C1979 C1978 1.449 . S
C1979 C1980 1.384 . S
C1979 C2004 1.553 . S
C1980 C1979 1.384 . S
C1980 C1981 1.364 . S
C1980 C1983 1.450 . S
C1981 C1976 1.367 . S
C1981 C1980 1.364 . S
C1981 H2041 0.931 . S
C1982 C1978 1.535 . S
C1982 H2042 0.959 . S
C1982 H2043 0.961 . S
C1982 H2044 0.959 . S
C1983 C1980 1.450 . S
C1983 H2045 0.960 . S
C1983 H2046 0.960 . S
C1983 H2047 0.960 . S
C1984 C1985 1.309 . S
C1984 C1989 1.304 . S
C1984 O2022 1.435 . S
C1985 C1984 1.309 . S
C1985 C1986 1.476 . S
C1985 H2049 0.930 . S
C1986 C1985 1.476 . S
C1986 C1987 1.400 . S
C1986 C1990 1.567 . S
C1987 C1986 1.400 . S
C1987 C1988 1.373 . S
C1987 C2009 1.432 . S
C1988 C1987 1.373 . S
C1988 C1989 1.339 . S
C1988 C1991 1.530 . S
C1989 C1984 1.304 . S
C1989 C1988 1.339 . S
C1989 H2050 0.930 . S
C1990 C1986 1.567 . S
C1990 H2051 0.961 . S
C1990 H2052 0.960 . S
C1990 H2053 0.958 . S
C1991 C1988 1.530 . S
C1991 H2054 0.961 . S
C1991 H2055 0.960 . S
C1991 H2056 0.960 . S
C1992 C1993 1.530 . S
C1992 H2058 0.961 . S
C1992 H2059 0.961 . S
C1992 H2060 0.959 . S
C1993 C1992 1.530 . S
C1993 O2021 1.412 . S
C1993 H2057 0.980 . S
C1994 C1995 1.288 . S
C1994 C1999 1.377 . S
C1994 O2021 1.393 . S
C1995 C1994 1.288 . S
C1995 C1996 1.369 . S
C1995 H2061 0.932 . S
C1996 C1995 1.369 . S
C1996 C1997 1.398 . S
C1996 C2000 1.527 . S
C1997 C1996 1.398 . S
C1997 C1998 1.380 . S
C1997 C2011 1.497 . S
C1998 C1997 1.380 . S
C1998 C1999 1.383 . S
C1998 C2001 1.603 . S
C1999 C1994 1.377 . S
C1999 C1998 1.383 . S
C1999 H2062 0.929 . S
C2000 C1996 1.527 . S
C2000 H2063 0.961 . S
C2000 H2064 0.959 . S
C2000 H2065 0.959 . S
C2001 C1998 1.603 . S
C2001 H2066 0.960 . S
C2001 H2067 0.962 . S
C2001 H2068 0.961 . S
C2002 C1969 1.587 . S
C2002 C2003 1.360 . S
C2002 C2015 1.412 . S
C2003 C2002 1.360 . S
C2003 C2004 1.365 1_455 S
C2003 H2069 0.929 . S
C2004 C1979 1.553 . S
C2004 C2003 1.365 1_655 S
C2004 C2005 1.404 . S
C2005 C2004 1.404 . S
C2005 C2006 1.395 . S
C2005 C2016 1.451 1_655 S
C2006 C2005 1.395 . S
C2006 C2007 1.322 . S
C2006 H2070 0.930 . S
C2007 C2006 1.322 . S
C2007 C2008 1.459 . S
C2007 H2071 0.929 . S
C2008 C2007 1.459 . S
C2008 C2009 1.445 . S
C2008 C2017 1.395 1_655 S
C2009 C1987 1.432 . S
C2009 C2008 1.445 . S
C2009 C2010 1.370 1_655 S
C2010 C2009 1.370 1_455 S
C2010 C2011 1.438 . S
C2010 H2072 0.930 . S
C2011 C1997 1.497 . S
C2011 C2010 1.438 . S
C2011 C2012 1.360 . S
C2012 C2011 1.360 . S
C2012 C2013 1.401 . S
C2012 C2017 1.446 . S
C2013 C2012 1.401 . S
C2013 C2014 1.347 . S
C2013 H2073 0.929 . S
C2014 C2013 1.347 . S
C2014 C2015 1.455 . S
C2014 H2074 0.930 . S
C2015 C2002 1.412 . S
C2015 C2014 1.455 . S
C2015 C2016 1.331 . S
C2016 C2005 1.451 1_455 S
C2016 C2015 1.331 . S
C2016 C2017 1.497 . S
C2017 C2008 1.395 1_455 S
C2017 C2012 1.446 . S
C2017 C2016 1.497 . S
C2018 C2019 1.582 . S
C2018 H2075 0.962 . S
C2018 H2076 0.959 . S
C2018 H2077 0.958 . S
C2019 C2018 1.582 . S
C2019 O2022 1.458 . S
C2019 H2048 0.980 . S
O2020 C1965 1.426 . S
O2020 C1966 1.334 . S
O2021 C1993 1.412 . S
O2021 C1994 1.393 . S
O2022 C1984 1.435 . S
O2022 C2019 1.458 . S
O2023 C1975 1.468 . S
O2023 C1976 1.408 . S
H2024 C1965 0.980 . S
H2025 C1964 0.959 . S
H2026 C1964 0.959 . S
H2027 C1964 0.960 . S
H2028 C1967 0.929 . S
H2029 C1971 0.929 . S
H2030 C1972 0.959 . S
H2031 C1972 0.961 . S
H2032 C1972 0.961 . S
H2033 C1973 0.960 . S
H2034 C1973 0.960 . S
H2035 C1973 0.961 . S
H2036 C1975 0.980 . S
H2037 C1974 0.961 . S
H2038 C1974 0.960 . S
H2039 C1974 0.959 . S
H2040 C1977 0.930 . S
H2041 C1981 0.931 . S
H2042 C1982 0.959 . S
H2043 C1982 0.961 . S
H2044 C1982 0.959 . S
H2045 C1983 0.960 . S
H2046 C1983 0.960 . S
H2047 C1983 0.960 . S
H2048 C2019 0.980 . S
H2049 C1985 0.930 . S
H2050 C1989 0.930 . S
H2051 C1990 0.961 . S
H2052 C1990 0.960 . S
H2053 C1990 0.958 . S
H2054 C1991 0.961 . S
H2055 C1991 0.960 . S
H2056 C1991 0.960 . S
H2057 C1993 0.980 . S
H2058 C1992 0.961 . S
H2059 C1992 0.961 . S
H2060 C1992 0.959 . S
H2061 C1995 0.932 . S
H2062 C1999 0.929 . S
H2063 C2000 0.961 . S
H2064 C2000 0.959 . S
H2065 C2000 0.959 . S
H2066 C2001 0.960 . S
H2067 C2001 0.962 . S
H2068 C2001 0.961 . S
H2069 C2003 0.929 . S
H2070 C2006 0.930 . S
H2071 C2007 0.929 . S
H2072 C2010 0.930 . S
H2073 C2013 0.929 . S
H2074 C2014 0.930 . S
H2075 C2018 0.962 . S
H2076 C2018 0.959 . S
H2077 C2018 0.958 . S
C2078 C2079 1.560 . S
C2078 H2139 0.959 . S
C2078 H2140 0.959 . S
C2078 H2141 0.960 . S
C2079 C2078 1.560 . S
C2079 O2134 1.426 . S
C2079 H2138 0.980 . S
C2080 C2081 1.407 . S
C2080 C2085 1.418 . S
C2080 O2134 1.334 . S
C2081 C2080 1.407 . S
C2081 C2082 1.360 . S
C2081 H2142 0.929 . S
C2082 C2081 1.360 . S
C2082 C2083 1.401 . S
C2082 C2086 1.527 . S
C2083 C2082 1.401 . S
C2083 C2084 1.405 . S
C2083 C2116 1.587 . S
C2084 C2083 1.405 . S
C2084 C2085 1.332 . S
C2084 C2087 1.496 . S
C2085 C2080 1.418 . S
C2085 C2084 1.332 . S
C2085 H2143 0.929 . S
C2086 C2082 1.527 . S
C2086 H2144 0.959 . S
C2086 H2145 0.961 . S
C2086 H2146 0.961 . S
C2087 C2084 1.496 . S
C2087 H2147 0.960 . S
C2087 H2148 0.960 . S
C2087 H2149 0.961 . S
C2088 C2089 1.517 . S
C2088 H2151 0.961 . S
C2088 H2152 0.960 . S
C2088 H2153 0.959 . S
C2089 C2088 1.517 . S
C2089 O2137 1.468 . S
C2089 H2150 0.980 . S
C2090 C2091 1.349 . S
C2090 C2095 1.367 . S
C2090 O2137 1.408 . S
C2091 C2090 1.349 . S
C2091 C2092 1.407 . S
C2091 H2154 0.930 . S
C2092 C2091 1.407 . S
C2092 C2093 1.449 . S
C2092 C2096 1.535 . S
C2093 C2092 1.449 . S
C2093 C2094 1.384 . S
C2093 C2118 1.553 . S
C2094 C2093 1.384 . S
C2094 C2095 1.364 . S
C2094 C2097 1.450 . S
C2095 C2090 1.367 . S
C2095 C2094 1.364 . S
C2095 H2155 0.931 . S
C2096 C2092 1.535 . S
C2096 H2156 0.959 . S
C2096 H2157 0.961 . S
C2096 H2158 0.959 . S
C2097 C2094 1.450 . S
C2097 H2159 0.960 . S
C2097 H2160 0.960 . S
C2097 H2161 0.960 . S
C2098 C2099 1.309 . S
C2098 C2103 1.304 . S
C2098 O2136 1.435 . S
C2099 C2098 1.309 . S
C2099 C2100 1.476 . S
C2099 H2163 0.930 . S
C2100 C2099 1.476 . S
C2100 C2101 1.400 . S
C2100 C2104 1.567 . S
C2101 C2100 1.400 . S
C2101 C2102 1.373 . S
C2101 C2123 1.432 . S
C2102 C2101 1.373 . S
C2102 C2103 1.339 . S
C2102 C2105 1.530 . S
C2103 C2098 1.304 . S
C2103 C2102 1.339 . S
C2103 H2164 0.930 . S
C2104 C2100 1.567 . S
C2104 H2165 0.961 . S
C2104 H2166 0.960 . S
C2104 H2167 0.958 . S
C2105 C2102 1.530 . S
C2105 H2168 0.961 . S
C2105 H2169 0.960 . S
C2105 H2170 0.960 . S
C2106 C2107 1.530 . S
C2106 H2172 0.961 . S
C2106 H2173 0.961 . S
C2106 H2174 0.959 . S
C2107 C2106 1.530 . S
C2107 O2135 1.412 . S
C2107 H2171 0.980 . S
C2108 C2109 1.288 . S
C2108 C2113 1.377 . S
C2108 O2135 1.393 . S
C2109 C2108 1.288 . S
C2109 C2110 1.369 . S
C2109 H2175 0.932 . S
C2110 C2109 1.369 . S
C2110 C2111 1.398 . S
C2110 C2114 1.527 . S
C2111 C2110 1.398 . S
C2111 C2112 1.380 . S
C2111 C2125 1.497 . S
C2112 C2111 1.380 . S
C2112 C2113 1.383 . S
C2112 C2115 1.603 . S
C2113 C2108 1.377 . S
C2113 C2112 1.383 . S
C2113 H2176 0.929 . S
C2114 C2110 1.527 . S
C2114 H2177 0.961 . S
C2114 H2178 0.959 . S
C2114 H2179 0.959 . S
C2115 C2112 1.603 . S
C2115 H2180 0.960 . S
C2115 H2181 0.962 . S
C2115 H2182 0.961 . S
C2116 C2083 1.587 . S
C2116 C2117 1.360 1_565 S
C2116 C2129 1.412 . S
C2117 C2116 1.360 1_545 S
C2117 C2118 1.365 . S
C2117 H2183 0.929 . S
C2118 C2093 1.553 . S
C2118 C2117 1.365 . S
C2118 C2119 1.404 . S
C2119 C2118 1.404 . S
C2119 C2120 1.395 . S
C2119 C2130 1.451 . S
C2120 C2119 1.395 . S
C2120 C2121 1.322 . S
C2120 H2184 0.930 . S
C2121 C2120 1.322 . S
C2121 C2122 1.459 . S
C2121 H2185 0.929 . S
C2122 C2121 1.459 . S
C2122 C2123 1.445 . S
C2122 C2131 1.395 . S
C2123 C2101 1.432 . S
C2123 C2122 1.445 . S
C2123 C2124 1.370 . S
C2124 C2123 1.370 . S
C2124 C2125 1.438 1_545 S
C2124 H2186 0.930 . S
C2125 C2111 1.497 . S
C2125 C2124 1.438 1_565 S
C2125 C2126 1.360 . S
C2126 C2125 1.360 . S
C2126 C2127 1.401 . S
C2126 C2131 1.446 1_565 S
C2127 C2126 1.401 . S
C2127 C2128 1.347 . S
C2127 H2187 0.929 . S
C2128 C2127 1.347 . S
C2128 C2129 1.455 . S
C2128 H2188 0.930 . S
C2129 C2116 1.412 . S
C2129 C2128 1.455 . S
C2129 C2130 1.331 1_565 S
C2130 C2119 1.451 . S
C2130 C2129 1.331 1_545 S
C2130 C2131 1.497 . S
C2131 C2122 1.395 . S
C2131 C2126 1.446 1_545 S
C2131 C2130 1.497 . S
C2132 C2133 1.582 . S
C2132 H2189 0.962 . S
C2132 H2190 0.959 . S
C2132 H2191 0.958 . S
C2133 C2132 1.582 . S
C2133 O2136 1.458 . S
C2133 H2162 0.980 . S
O2134 C2079 1.426 . S
O2134 C2080 1.334 . S
O2135 C2107 1.412 . S
O2135 C2108 1.393 . S
O2136 C2098 1.435 . S
O2136 C2133 1.458 . S
O2137 C2089 1.468 . S
O2137 C2090 1.408 . S
H2138 C2079 0.980 . S
H2139 C2078 0.959 . S
H2140 C2078 0.959 . S
H2141 C2078 0.960 . S
H2142 C2081 0.929 . S
H2143 C2085 0.929 . S
H2144 C2086 0.959 . S
H2145 C2086 0.961 . S
H2146 C2086 0.961 . S
H2147 C2087 0.960 . S
H2148 C2087 0.960 . S
H2149 C2087 0.961 . S
H2150 C2089 0.980 . S
H2151 C2088 0.961 . S
H2152 C2088 0.960 . S
H2153 C2088 0.959 . S
H2154 C2091 0.930 . S
H2155 C2095 0.931 . S
H2156 C2096 0.959 . S
H2157 C2096 0.961 . S
H2158 C2096 0.959 . S
H2159 C2097 0.960 . S
H2160 C2097 0.960 . S
H2161 C2097 0.960 . S
H2162 C2133 0.980 . S
H2163 C2099 0.930 . S
H2164 C2103 0.930 . S
H2165 C2104 0.961 . S
H2166 C2104 0.960 . S
H2167 C2104 0.958 . S
H2168 C2105 0.961 . S
H2169 C2105 0.960 . S
H2170 C2105 0.960 . S
H2171 C2107 0.980 . S
H2172 C2106 0.961 . S
H2173 C2106 0.961 . S
H2174 C2106 0.959 . S
H2175 C2109 0.932 . S
H2176 C2113 0.929 . S
H2177 C2114 0.961 . S
H2178 C2114 0.959 . S
H2179 C2114 0.959 . S
H2180 C2115 0.960 . S
H2181 C2115 0.962 . S
H2182 C2115 0.961 . S
H2183 C2117 0.929 . S
H2184 C2120 0.930 . S
H2185 C2121 0.929 . S
H2186 C2124 0.930 . S
H2187 C2127 0.929 . S
H2188 C2128 0.930 . S
H2189 C2132 0.962 . S
H2190 C2132 0.959 . S
H2191 C2132 0.958 . S
C2192 C2193 1.560 . S
C2192 H2253 0.959 . S
C2192 H2254 0.959 . S
C2192 H2255 0.960 . S
C2193 C2192 1.560 . S
C2193 O2248 1.426 . S
C2193 H2252 0.980 . S
C2194 C2195 1.407 . S
C2194 C2199 1.418 . S
C2194 O2248 1.334 . S
C2195 C2194 1.407 . S
C2195 C2196 1.360 . S
C2195 H2256 0.929 . S
C2196 C2195 1.360 . S
C2196 C2197 1.401 . S
C2196 C2200 1.527 . S
C2197 C2196 1.401 . S
C2197 C2198 1.405 . S
C2197 C2230 1.587 . S
C2198 C2197 1.405 . S
C2198 C2199 1.332 . S
C2198 C2201 1.496 . S
C2199 C2194 1.418 . S
C2199 C2198 1.332 . S
C2199 H2257 0.929 . S
C2200 C2196 1.527 . S
C2200 H2258 0.959 . S
C2200 H2259 0.961 . S
C2200 H2260 0.961 . S
C2201 C2198 1.496 . S
C2201 H2261 0.960 . S
C2201 H2262 0.960 . S
C2201 H2263 0.961 . S
C2202 C2203 1.517 . S
C2202 H2265 0.961 . S
C2202 H2266 0.960 . S
C2202 H2267 0.959 . S
C2203 C2202 1.517 . S
C2203 O2251 1.468 . S
C2203 H2264 0.980 . S
C2204 C2205 1.349 . S
C2204 C2209 1.367 . S
C2204 O2251 1.408 . S
C2205 C2204 1.349 . S
C2205 C2206 1.407 . S
C2205 H2268 0.930 . S
C2206 C2205 1.407 . S
C2206 C2207 1.449 . S
C2206 C2210 1.535 . S
C2207 C2206 1.449 . S
C2207 C2208 1.384 . S
C2207 C2232 1.553 . S
C2208 C2207 1.384 . S
C2208 C2209 1.364 . S
C2208 C2211 1.450 . S
C2209 C2204 1.367 . S
C2209 C2208 1.364 . S
C2209 H2269 0.931 . S
C2210 C2206 1.535 . S
C2210 H2270 0.959 . S
C2210 H2271 0.961 . S
C2210 H2272 0.959 . S
C2211 C2208 1.450 . S
C2211 H2273 0.960 . S
C2211 H2274 0.960 . S
C2211 H2275 0.960 . S
C2212 C2213 1.309 . S
C2212 C2217 1.304 . S
C2212 O2250 1.435 . S
C2213 C2212 1.309 . S
C2213 C2214 1.476 . S
C2213 H2277 0.930 . S
C2214 C2213 1.476 . S
C2214 C2215 1.400 . S
C2214 C2218 1.567 . S
C2215 C2214 1.400 . S
C2215 C2216 1.373 . S
C2215 C2237 1.432 . S
C2216 C2215 1.373 . S
C2216 C2217 1.339 . S
C2216 C2219 1.530 . S
C2217 C2212 1.304 . S
C2217 C2216 1.339 . S
C2217 H2278 0.930 . S
C2218 C2214 1.567 . S
C2218 H2279 0.961 . S
C2218 H2280 0.960 . S
C2218 H2281 0.958 . S
C2219 C2216 1.530 . S
C2219 H2282 0.961 . S
C2219 H2283 0.960 . S
C2219 H2284 0.960 . S
C2220 C2221 1.530 . S
C2220 H2286 0.961 . S
C2220 H2287 0.961 . S
C2220 H2288 0.959 . S
C2221 C2220 1.530 . S
C2221 O2249 1.412 . S
C2221 H2285 0.980 . S
C2222 C2223 1.288 . S
C2222 C2227 1.377 . S
C2222 O2249 1.393 . S
C2223 C2222 1.288 . S
C2223 C2224 1.369 . S
C2223 H2289 0.932 . S
C2224 C2223 1.369 . S
C2224 C2225 1.398 . S
C2224 C2228 1.527 . S
C2225 C2224 1.398 . S
C2225 C2226 1.380 . S
C2225 C2239 1.497 . S
C2226 C2225 1.380 . S
C2226 C2227 1.383 . S
C2226 C2229 1.603 . S
C2227 C2222 1.377 . S
C2227 C2226 1.383 . S
C2227 H2290 0.929 . S
C2228 C2224 1.527 . S
C2228 H2291 0.961 . S
C2228 H2292 0.959 . S
C2228 H2293 0.959 . S
C2229 C2226 1.603 . S
C2229 H2294 0.960 . S
C2229 H2295 0.962 . S
C2229 H2296 0.961 . S
C2230 C2197 1.587 . S
C2230 C2231 1.360 1_655 S
C2230 C2243 1.412 . S
C2231 C2230 1.360 1_455 S
C2231 C2232 1.365 . S
C2231 H2297 0.929 . S
C2232 C2207 1.553 . S
C2232 C2231 1.365 . S
C2232 C2233 1.404 . S
C2233 C2232 1.404 . S
C2233 C2234 1.395 . S
C2233 C2244 1.451 . S
C2234 C2233 1.395 . S
C2234 C2235 1.322 . S
C2234 H2298 0.930 . S
C2235 C2234 1.322 . S
C2235 C2236 1.459 . S
C2235 H2299 0.929 . S
C2236 C2235 1.459 . S
C2236 C2237 1.445 . S
C2236 C2245 1.395 . S
C2237 C2215 1.432 . S
C2237 C2236 1.445 . S
C2237 C2238 1.370 . S
C2238 C2237 1.370 . S
C2238 C2239 1.438 1_455 S
C2238 H2300 0.930 . S
C2239 C2225 1.497 . S
C2239 C2238 1.438 1_655 S
C2239 C2240 1.360 . S
C2240 C2239 1.360 . S
C2240 C2241 1.401 . S
C2240 C2245 1.446 1_655 S
C2241 C2240 1.401 . S
C2241 C2242 1.347 . S
C2241 H2301 0.929 . S
C2242 C2241 1.347 . S
C2242 C2243 1.455 . S
C2242 H2302 0.930 . S
C2243 C2230 1.412 . S
C2243 C2242 1.455 . S
C2243 C2244 1.331 1_655 S
C2244 C2233 1.451 . S
C2244 C2243 1.331 1_455 S
C2244 C2245 1.497 . S
C2245 C2236 1.395 . S
C2245 C2240 1.446 1_455 S
C2245 C2244 1.497 . S
C2246 C2247 1.582 . S
C2246 H2303 0.962 . S
C2246 H2304 0.959 . S
C2246 H2305 0.958 . S
C2247 C2246 1.582 . S
C2247 O2250 1.458 . S
C2247 H2276 0.980 . S
O2248 C2193 1.426 . S
O2248 C2194 1.334 . S
O2249 C2221 1.412 . S
O2249 C2222 1.393 . S
O2250 C2212 1.435 . S
O2250 C2247 1.458 . S
O2251 C2203 1.468 . S
O2251 C2204 1.408 . S
H2252 C2193 0.980 . S
H2253 C2192 0.959 . S
H2254 C2192 0.959 . S
H2255 C2192 0.960 . S
H2256 C2195 0.929 . S
H2257 C2199 0.929 . S
H2258 C2200 0.959 . S
H2259 C2200 0.961 . S
H2260 C2200 0.961 . S
H2261 C2201 0.960 . S
H2262 C2201 0.960 . S
H2263 C2201 0.961 . S
H2264 C2203 0.980 . S
H2265 C2202 0.961 . S
H2266 C2202 0.960 . S
H2267 C2202 0.959 . S
H2268 C2205 0.930 . S
H2269 C2209 0.931 . S
H2270 C2210 0.959 . S
H2271 C2210 0.961 . S
H2272 C2210 0.959 . S
H2273 C2211 0.960 . S
H2274 C2211 0.960 . S
H2275 C2211 0.960 . S
H2276 C2247 0.980 . S
H2277 C2213 0.930 . S
H2278 C2217 0.930 . S
H2279 C2218 0.961 . S
H2280 C2218 0.960 . S
H2281 C2218 0.958 . S
H2282 C2219 0.961 . S
H2283 C2219 0.960 . S
H2284 C2219 0.960 . S
H2285 C2221 0.980 . S
H2286 C2220 0.961 . S
H2287 C2220 0.961 . S
H2288 C2220 0.959 . S
H2289 C2223 0.932 . S
H2290 C2227 0.929 . S
H2291 C2228 0.961 . S
H2292 C2228 0.959 . S
H2293 C2228 0.959 . S
H2294 C2229 0.960 . S
H2295 C2229 0.962 . S
H2296 C2229 0.961 . S
H2297 C2231 0.929 . S
H2298 C2234 0.930 . S
H2299 C2235 0.929 . S
H2300 C2238 0.930 . S
H2301 C2241 0.929 . S
H2302 C2242 0.930 . S
H2303 C2246 0.962 . S
H2304 C2246 0.959 . S
H2305 C2246 0.958 . S
C2306 C2307 1.560 . S
C2306 H2367 0.959 . S
C2306 H2368 0.959 . S
C2306 H2369 0.960 . S
C2307 C2306 1.560 . S
C2307 O2362 1.426 . S
C2307 H2366 0.980 . S
C2308 C2309 1.407 . S
C2308 C2313 1.418 . S
C2308 O2362 1.334 . S
C2309 C2308 1.407 . S
C2309 C2310 1.360 . S
C2309 H2370 0.929 . S
C2310 C2309 1.360 . S
C2310 C2311 1.401 . S
C2310 C2314 1.527 . S
C2311 C2310 1.401 . S
C2311 C2312 1.405 . S
C2311 C2344 1.587 . S
C2312 C2311 1.405 . S
C2312 C2313 1.332 . S
C2312 C2315 1.496 . S
C2313 C2308 1.418 . S
C2313 C2312 1.332 . S
C2313 H2371 0.929 . S
C2314 C2310 1.527 . S
C2314 H2372 0.959 . S
C2314 H2373 0.961 . S
C2314 H2374 0.961 . S
C2315 C2312 1.496 . S
C2315 H2375 0.960 . S
C2315 H2376 0.960 . S
C2315 H2377 0.961 . S
C2316 C2317 1.517 . S
C2316 H2379 0.961 . S
C2316 H2380 0.960 . S
C2316 H2381 0.959 . S
C2317 C2316 1.517 . S
C2317 O2365 1.468 . S
C2317 H2378 0.980 . S
C2318 C2319 1.349 . S
C2318 C2323 1.367 . S
C2318 O2365 1.408 . S
C2319 C2318 1.349 . S
C2319 C2320 1.407 . S
C2319 H2382 0.930 . S
C2320 C2319 1.407 . S
C2320 C2321 1.449 . S
C2320 C2324 1.535 . S
C2321 C2320 1.449 . S
C2321 C2322 1.384 . S
C2321 C2346 1.553 . S
C2322 C2321 1.384 . S
C2322 C2323 1.364 . S
C2322 C2325 1.450 . S
C2323 C2318 1.367 . S
C2323 C2322 1.364 . S
C2323 H2383 0.931 . S
C2324 C2320 1.535 . S
C2324 H2384 0.959 . S
C2324 H2385 0.961 . S
C2324 H2386 0.959 . S
C2325 C2322 1.450 . S
C2325 H2387 0.960 . S
C2325 H2388 0.960 . S
C2325 H2389 0.960 . S
C2326 C2327 1.309 . S
C2326 C2331 1.304 . S
C2326 O2364 1.435 . S
C2327 C2326 1.309 . S
C2327 C2328 1.476 . S
C2327 H2391 0.930 . S
C2328 C2327 1.476 . S
C2328 C2329 1.400 . S
C2328 C2332 1.567 . S
C2329 C2328 1.400 . S
C2329 C2330 1.373 . S
C2329 C2351 1.432 . S
C2330 C2329 1.373 . S
C2330 C2331 1.339 . S
C2330 C2333 1.530 . S
C2331 C2326 1.304 . S
C2331 C2330 1.339 . S
C2331 H2392 0.930 . S
C2332 C2328 1.567 . S
C2332 H2393 0.961 . S
C2332 H2394 0.960 . S
C2332 H2395 0.958 . S
C2333 C2330 1.530 . S
C2333 H2396 0.961 . S
C2333 H2397 0.960 . S
C2333 H2398 0.960 . S
C2334 C2335 1.530 . S
C2334 H2400 0.961 . S
C2334 H2401 0.961 . S
C2334 H2402 0.959 . S
C2335 C2334 1.530 . S
C2335 O2363 1.412 . S
C2335 H2399 0.980 . S
C2336 C2337 1.288 . S
C2336 C2341 1.377 . S
C2336 O2363 1.393 . S
C2337 C2336 1.288 . S
C2337 C2338 1.369 . S
C2337 H2403 0.932 . S
C2338 C2337 1.369 . S
C2338 C2339 1.398 . S
C2338 C2342 1.527 . S
C2339 C2338 1.398 . S
C2339 C2340 1.380 . S
C2339 C2353 1.497 . S
C2340 C2339 1.380 . S
C2340 C2341 1.383 . S
C2340 C2343 1.603 . S
C2341 C2336 1.377 . S
C2341 C2340 1.383 . S
C2341 H2404 0.929 . S
C2342 C2338 1.527 . S
C2342 H2405 0.961 . S
C2342 H2406 0.959 . S
C2342 H2407 0.959 . S
C2343 C2340 1.603 . S
C2343 H2408 0.960 . S
C2343 H2409 0.962 . S
C2343 H2410 0.961 . S
C2344 C2311 1.587 . S
C2344 C2345 1.360 . S
C2344 C2357 1.412 . S
C2345 C2344 1.360 . S
C2345 C2346 1.365 1_545 S
C2345 H2411 0.929 . S
C2346 C2321 1.553 . S
C2346 C2345 1.365 1_565 S
C2346 C2347 1.404 . S
C2347 C2346 1.404 . S
C2347 C2348 1.395 . S
C2347 C2358 1.451 1_565 S
C2348 C2347 1.395 . S
C2348 C2349 1.322 . S
C2348 H2412 0.930 . S
C2349 C2348 1.322 . S
C2349 C2350 1.459 . S
C2349 H2413 0.929 . S
C2350 C2349 1.459 . S
C2350 C2351 1.445 . S
C2350 C2359 1.395 1_565 S
C2351 C2329 1.432 . S
C2351 C2350 1.445 . S
C2351 C2352 1.370 1_565 S
C2352 C2351 1.370 1_545 S
C2352 C2353 1.438 . S
C2352 H2414 0.930 . S
C2353 C2339 1.497 . S
C2353 C2352 1.438 . S
C2353 C2354 1.360 . S
C2354 C2353 1.360 . S
C2354 C2355 1.401 . S
C2354 C2359 1.446 . S
C2355 C2354 1.401 . S
C2355 C2356 1.347 . S
C2355 H2415 0.929 . S
C2356 C2355 1.347 . S
C2356 C2357 1.455 . S
C2356 H2416 0.930 . S
C2357 C2344 1.412 . S
C2357 C2356 1.455 . S
C2357 C2358 1.331 . S
C2358 C2347 1.451 1_545 S
C2358 C2357 1.331 . S
C2358 C2359 1.497 . S
C2359 C2350 1.395 1_545 S
C2359 C2354 1.446 . S
C2359 C2358 1.497 . S
C2360 C2361 1.582 . S
C2360 H2417 0.962 . S
C2360 H2418 0.959 . S
C2360 H2419 0.958 . S
C2361 C2360 1.582 . S
C2361 O2364 1.458 . S
C2361 H2390 0.980 . S
O2362 C2307 1.426 . S
O2362 C2308 1.334 . S
O2363 C2335 1.412 . S
O2363 C2336 1.393 . S
O2364 C2326 1.435 . S
O2364 C2361 1.458 . S
O2365 C2317 1.468 . S
O2365 C2318 1.408 . S
H2366 C2307 0.980 . S
H2367 C2306 0.959 . S
H2368 C2306 0.959 . S
H2369 C2306 0.960 . S
H2370 C2309 0.929 . S
H2371 C2313 0.929 . S
H2372 C2314 0.959 . S
H2373 C2314 0.961 . S
H2374 C2314 0.961 . S
H2375 C2315 0.960 . S
H2376 C2315 0.960 . S
H2377 C2315 0.961 . S
H2378 C2317 0.980 . S
H2379 C2316 0.961 . S
H2380 C2316 0.960 . S
H2381 C2316 0.959 . S
H2382 C2319 0.930 . S
H2383 C2323 0.931 . S
H2384 C2324 0.959 . S
H2385 C2324 0.961 . S
H2386 C2324 0.959 . S
H2387 C2325 0.960 . S
H2388 C2325 0.960 . S
H2389 C2325 0.960 . S
H2390 C2361 0.980 . S
H2391 C2327 0.930 . S
H2392 C2331 0.930 . S
H2393 C2332 0.961 . S
H2394 C2332 0.960 . S
H2395 C2332 0.958 . S
H2396 C2333 0.961 . S
H2397 C2333 0.960 . S
H2398 C2333 0.960 . S
H2399 C2335 0.980 . S
H2400 C2334 0.961 . S
H2401 C2334 0.961 . S
H2402 C2334 0.959 . S
H2403 C2337 0.932 . S
H2404 C2341 0.929 . S
H2405 C2342 0.961 . S
H2406 C2342 0.959 . S
H2407 C2342 0.959 . S
H2408 C2343 0.960 . S
H2409 C2343 0.962 . S
H2410 C2343 0.961 . S
H2411 C2345 0.929 . S
H2412 C2348 0.930 . S
H2413 C2349 0.929 . S
H2414 C2352 0.930 . S
H2415 C2355 0.929 . S
H2416 C2356 0.930 . S
H2417 C2360 0.962 . S
H2418 C2360 0.959 . S
H2419 C2360 0.958 . S
C2420 C2421 1.560 . S
C2420 H2481 0.959 . S
C2420 H2482 0.959 . S
C2420 H2483 0.960 . S
C2421 C2420 1.560 . S
C2421 O2476 1.426 . S
C2421 H2480 0.980 . S
C2422 C2423 1.407 . S
C2422 C2427 1.418 . S
C2422 O2476 1.334 . S
C2423 C2422 1.407 . S
C2423 C2424 1.360 . S
C2423 H2484 0.929 . S
C2424 C2423 1.360 . S
C2424 C2425 1.401 . S
C2424 C2428 1.527 . S
C2425 C2424 1.401 . S
C2425 C2426 1.405 . S
C2425 C2458 1.587 . S
C2426 C2425 1.405 . S
C2426 C2427 1.332 . S
C2426 C2429 1.496 . S
C2427 C2422 1.418 . S
C2427 C2426 1.332 . S
C2427 H2485 0.929 . S
C2428 C2424 1.527 . S
C2428 H2486 0.959 . S
C2428 H2487 0.961 . S
C2428 H2488 0.961 . S
C2429 C2426 1.496 . S
C2429 H2489 0.960 . S
C2429 H2490 0.960 . S
C2429 H2491 0.961 . S
C2430 C2431 1.517 . S
C2430 H2493 0.961 . S
C2430 H2494 0.960 . S
C2430 H2495 0.959 . S
C2431 C2430 1.517 . S
C2431 O2479 1.468 . S
C2431 H2492 0.980 . S
C2432 C2433 1.349 . S
C2432 C2437 1.367 . S
C2432 O2479 1.408 . S
C2433 C2432 1.349 . S
C2433 C2434 1.407 . S
C2433 H2496 0.930 . S
C2434 C2433 1.407 . S
C2434 C2435 1.449 . S
C2434 C2438 1.535 . S
C2435 C2434 1.449 . S
C2435 C2436 1.384 . S
C2435 C2460 1.553 . S
C2436 C2435 1.384 . S
C2436 C2437 1.364 . S
C2436 C2439 1.450 . S
C2437 C2432 1.367 . S
C2437 C2436 1.364 . S
C2437 H2497 0.931 . S
C2438 C2434 1.535 . S
C2438 H2498 0.959 . S
C2438 H2499 0.961 . S
C2438 H2500 0.959 . S
C2439 C2436 1.450 . S
C2439 H2501 0.960 . S
C2439 H2502 0.960 . S
C2439 H2503 0.960 . S
C2440 C2441 1.309 . S
C2440 C2445 1.304 . S
C2440 O2478 1.435 . S
C2441 C2440 1.309 . S
C2441 C2442 1.476 . S
C2441 H2505 0.930 . S
C2442 C2441 1.476 . S
C2442 C2443 1.400 . S
C2442 C2446 1.567 . S
C2443 C2442 1.400 . S
C2443 C2444 1.373 . S
C2443 C2465 1.432 . S
C2444 C2443 1.373 . S
C2444 C2445 1.339 . S
C2444 C2447 1.530 . S
C2445 C2440 1.304 . S
C2445 C2444 1.339 . S
C2445 H2506 0.930 . S
C2446 C2442 1.567 . S
C2446 H2507 0.961 . S
C2446 H2508 0.960 . S
C2446 H2509 0.958 . S
C2447 C2444 1.530 . S
C2447 H2510 0.961 . S
C2447 H2511 0.960 . S
C2447 H2512 0.960 . S
C2448 C2449 1.530 . S
C2448 H2514 0.961 . S
C2448 H2515 0.961 . S
C2448 H2516 0.959 . S
C2449 C2448 1.530 . S
C2449 O2477 1.412 . S
C2449 H2513 0.980 . S
C2450 C2451 1.288 . S
C2450 C2455 1.377 . S
C2450 O2477 1.393 . S
C2451 C2450 1.288 . S
C2451 C2452 1.369 . S
C2451 H2517 0.932 . S
C2452 C2451 1.369 . S
C2452 C2453 1.398 . S
C2452 C2456 1.527 . S
C2453 C2452 1.398 . S
C2453 C2454 1.380 . S
C2453 C2467 1.497 . S
C2454 C2453 1.380 . S
C2454 C2455 1.383 . S
C2454 C2457 1.603 . S
C2455 C2450 1.377 . S
C2455 C2454 1.383 . S
C2455 H2518 0.929 . S
C2456 C2452 1.527 . S
C2456 H2519 0.961 . S
C2456 H2520 0.959 . S
C2456 H2521 0.959 . S
C2457 C2454 1.603 . S
C2457 H2522 0.960 . S
C2457 H2523 0.962 . S
C2457 H2524 0.961 . S
C2458 C2425 1.587 . S
C2458 C2459 1.348 1_655 S
C2458 C2471 1.412 . S
C2459 C2458 1.348 1_455 S
C2459 C2460 1.377 . S
C2459 H2525 0.929 . S
C2460 C2435 1.553 . S
C2460 C2459 1.377 . S
C2460 C2461 1.404 . S
C2461 C2460 1.404 . S
C2461 C2462 1.395 . S
C2461 C2472 1.457 . S
C2462 C2461 1.395 . S
C2462 C2463 1.322 . S
C2462 H2526 0.930 . S
C2463 C2462 1.322 . S
C2463 C2464 1.459 . S
C2463 H2527 0.929 . S
C2464 C2463 1.459 . S
C2464 C2465 1.445 . S
C2464 C2473 1.451 . S
C2465 C2443 1.432 . S
C2465 C2464 1.445 . S
C2465 C2466 1.370 . S
C2466 C2465 1.370 . S
C2466 C2467 1.438 1_455 S
C2466 H2528 0.930 . S
C2467 C2453 1.497 . S
C2467 C2466 1.438 1_655 S
C2467 C2468 1.360 . S
C2468 C2467 1.360 . S
C2468 C2469 1.401 . S
C2468 C2473 1.393 1_655 S
C2469 C2468 1.401 . S
C2469 C2470 1.347 . S
C2469 H2529 0.929 . S
C2470 C2469 1.347 . S
C2470 C2471 1.455 . S
C2470 H2530 0.930 . S
C2471 C2458 1.412 . S
C2471 C2470 1.455 . S
C2471 C2472 1.325 1_655 S
C2472 C2461 1.457 . S
C2472 C2471 1.325 1_455 S
C2472 C2473 1.495 . S
C2473 C2464 1.451 . S
C2473 C2468 1.393 1_455 S
C2473 C2472 1.495 . S
C2474 C2475 1.582 . S
C2474 H2531 0.962 . S
C2474 H2532 0.959 . S
C2474 H2533 0.958 . S
C2475 C2474 1.582 . S
C2475 O2478 1.458 . S
C2475 H2504 0.980 . S
O2476 C2421 1.426 . S
O2476 C2422 1.334 . S
O2477 C2449 1.412 . S
O2477 C2450 1.393 . S
O2478 C2440 1.435 . S
O2478 C2475 1.458 . S
O2479 C2431 1.468 . S
O2479 C2432 1.408 . S
H2480 C2421 0.980 . S
H2481 C2420 0.959 . S
H2482 C2420 0.959 . S
H2483 C2420 0.960 . S
H2484 C2423 0.929 . S
H2485 C2427 0.929 . S
H2486 C2428 0.959 . S
H2487 C2428 0.961 . S
H2488 C2428 0.961 . S
H2489 C2429 0.960 . S
H2490 C2429 0.960 . S
H2491 C2429 0.961 . S
H2492 C2431 0.980 . S
H2493 C2430 0.961 . S
H2494 C2430 0.960 . S
H2495 C2430 0.959 . S
H2496 C2433 0.930 . S
H2497 C2437 0.931 . S
H2498 C2438 0.959 . S
H2499 C2438 0.961 . S
H2500 C2438 0.959 . S
H2501 C2439 0.960 . S
H2502 C2439 0.960 . S
H2503 C2439 0.960 . S
H2504 C2475 0.980 . S
H2505 C2441 0.930 . S
H2506 C2445 0.930 . S
H2507 C2446 0.961 . S
H2508 C2446 0.960 . S
H2509 C2446 0.958 . S
H2510 C2447 0.961 . S
H2511 C2447 0.960 . S
H2512 C2447 0.960 . S
H2513 C2449 0.980 . S
H2514 C2448 0.961 . S
H2515 C2448 0.961 . S
H2516 C2448 0.959 . S
H2517 C2451 0.932 . S
H2518 C2455 0.929 . S
H2519 C2456 0.961 . S
H2520 C2456 0.959 . S
H2521 C2456 0.959 . S
H2522 C2457 0.960 . S
H2523 C2457 0.962 . S
H2524 C2457 0.961 . S
H2525 C2459 0.929 . S
H2526 C2462 0.930 . S
H2527 C2463 0.929 . S
H2528 C2466 0.930 . S
H2529 C2469 0.929 . S
H2530 C2470 0.930 . S
H2531 C2474 0.962 . S
H2532 C2474 0.959 . S
H2533 C2474 0.958 . S
C2534 C2535 1.560 . S
C2534 H2595 0.959 . S
C2534 H2596 0.959 . S
C2534 H2597 0.960 . S
C2535 C2534 1.560 . S
C2535 O2590 1.426 . S
C2535 H2594 0.980 . S
C2536 C2537 1.407 . S
C2536 C2541 1.418 . S
C2536 O2590 1.334 . S
C2537 C2536 1.407 . S
C2537 C2538 1.360 . S
C2537 H2598 0.929 . S
C2538 C2537 1.360 . S
C2538 C2539 1.401 . S
C2538 C2542 1.527 . S
C2539 C2538 1.401 . S
C2539 C2540 1.405 . S
C2539 C2572 1.587 . S
C2540 C2539 1.405 . S
C2540 C2541 1.332 . S
C2540 C2543 1.496 . S
C2541 C2536 1.418 . S
C2541 C2540 1.332 . S
C2541 H2599 0.929 . S
C2542 C2538 1.527 . S
C2542 H2600 0.959 . S
C2542 H2601 0.961 . S
C2542 H2602 0.961 . S
C2543 C2540 1.496 . S
C2543 H2603 0.960 . S
C2543 H2604 0.960 . S
C2543 H2605 0.961 . S
C2544 C2545 1.517 . S
C2544 H2607 0.961 . S
C2544 H2608 0.960 . S
C2544 H2609 0.959 . S
C2545 C2544 1.517 . S
C2545 O2593 1.468 . S
C2545 H2606 0.980 . S
C2546 C2547 1.349 . S
C2546 C2551 1.367 . S
C2546 O2593 1.408 . S
C2547 C2546 1.349 . S
C2547 C2548 1.407 . S
C2547 H2610 0.930 . S
C2548 C2547 1.407 . S
C2548 C2549 1.449 . S
C2548 C2552 1.535 . S
C2549 C2548 1.449 . S
C2549 C2550 1.384 . S
C2549 C2574 1.553 . S
C2550 C2549 1.384 . S
C2550 C2551 1.364 . S
C2550 C2553 1.450 . S
C2551 C2546 1.367 . S
C2551 C2550 1.364 . S
C2551 H2611 0.931 . S
C2552 C2548 1.535 . S
C2552 H2612 0.959 . S
C2552 H2613 0.961 . S
C2552 H2614 0.959 . S
C2553 C2550 1.450 . S
C2553 H2615 0.960 . S
C2553 H2616 0.960 . S
C2553 H2617 0.960 . S
C2554 C2555 1.309 . S
C2554 C2559 1.304 . S
C2554 O2592 1.435 . S
C2555 C2554 1.309 . S
C2555 C2556 1.476 . S
C2555 H2619 0.930 . S
C2556 C2555 1.476 . S
C2556 C2557 1.400 . S
C2556 C2560 1.567 . S
C2557 C2556 1.400 . S
C2557 C2558 1.373 . S
C2557 C2579 1.432 . S
C2558 C2557 1.373 . S
C2558 C2559 1.339 . S
C2558 C2561 1.530 . S
C2559 C2554 1.304 . S
C2559 C2558 1.339 . S
C2559 H2620 0.930 . S
C2560 C2556 1.567 . S
C2560 H2621 0.961 . S
C2560 H2622 0.960 . S
C2560 H2623 0.958 . S
C2561 C2558 1.530 . S
C2561 H2624 0.961 . S
C2561 H2625 0.960 . S
C2561 H2626 0.960 . S
C2562 C2563 1.530 . S
C2562 H2628 0.961 . S
C2562 H2629 0.961 . S
C2562 H2630 0.959 . S
C2563 C2562 1.530 . S
C2563 O2591 1.412 . S
C2563 H2627 0.980 . S
C2564 C2565 1.288 . S
C2564 C2569 1.377 . S
C2564 O2591 1.393 . S
C2565 C2564 1.288 . S
C2565 C2566 1.369 . S
C2565 H2631 0.932 . S
C2566 C2565 1.369 . S
C2566 C2567 1.398 . S
C2566 C2570 1.527 . S
C2567 C2566 1.398 . S
C2567 C2568 1.380 . S
C2567 C2581 1.497 . S
C2568 C2567 1.380 . S
C2568 C2569 1.383 . S
C2568 C2571 1.603 . S
C2569 C2564 1.377 . S
C2569 C2568 1.383 . S
C2569 H2632 0.929 . S
C2570 C2566 1.527 . S
C2570 H2633 0.961 . S
C2570 H2634 0.959 . S
C2570 H2635 0.959 . S
C2571 C2568 1.603 . S
C2571 H2636 0.960 . S
C2571 H2637 0.962 . S
C2571 H2638 0.961 . S
C2572 C2539 1.587 . S
C2572 C2573 1.364 . S
C2572 C2585 1.412 . S
C2573 C2572 1.364 . S
C2573 C2574 1.361 1_565 S
C2573 H2639 0.929 . S
C2574 C2549 1.553 . S
C2574 C2573 1.361 1_545 S
C2574 C2575 1.404 . S
C2575 C2574 1.404 . S
C2575 C2576 1.395 . S
C2575 C2586 1.450 . S
C2576 C2575 1.395 . S
C2576 C2577 1.322 . S
C2576 H2640 0.930 . S
C2577 C2576 1.322 . S
C2577 C2578 1.459 . S
C2577 H2641 0.929 . S
C2578 C2577 1.459 . S
C2578 C2579 1.445 . S
C2578 C2587 1.461 . S
C2579 C2557 1.432 . S
C2579 C2578 1.445 . S
C2579 C2580 1.370 . S
C2580 C2579 1.370 . S
C2580 C2581 1.438 1_545 S
C2580 H2642 0.930 . S
C2581 C2567 1.497 . S
C2581 C2580 1.438 1_565 S
C2581 C2582 1.360 . S
C2582 C2581 1.360 . S
C2582 C2583 1.401 . S
C2582 C2587 1.384 1_565 S
C2583 C2582 1.401 . S
C2583 C2584 1.347 . S
C2583 H2643 0.929 . S
C2584 C2583 1.347 . S
C2584 C2585 1.455 . S
C2584 H2644 0.930 . S
C2585 C2572 1.412 . S
C2585 C2584 1.455 . S
C2585 C2586 1.332 1_565 S
C2586 C2575 1.450 . S
C2586 C2585 1.332 1_545 S
C2586 C2587 1.494 . S
C2587 C2578 1.461 . S
C2587 C2582 1.384 1_545 S
C2587 C2586 1.494 . S
C2588 C2589 1.582 . S
C2588 H2645 0.962 . S
C2588 H2646 0.959 . S
C2588 H2647 0.958 . S
C2589 C2588 1.582 . S
C2589 O2592 1.458 . S
C2589 H2618 0.980 . S
O2590 C2535 1.426 . S
O2590 C2536 1.334 . S
O2591 C2563 1.412 . S
O2591 C2564 1.393 . S
O2592 C2554 1.435 . S
O2592 C2589 1.458 . S
O2593 C2545 1.468 . S
O2593 C2546 1.408 . S
H2594 C2535 0.980 . S
H2595 C2534 0.959 . S
H2596 C2534 0.959 . S
H2597 C2534 0.960 . S
H2598 C2537 0.929 . S
H2599 C2541 0.929 . S
H2600 C2542 0.959 . S
H2601 C2542 0.961 . S
H2602 C2542 0.961 . S
H2603 C2543 0.960 . S
H2604 C2543 0.960 . S
H2605 C2543 0.961 . S
H2606 C2545 0.980 . S
H2607 C2544 0.961 . S
H2608 C2544 0.960 . S
H2609 C2544 0.959 . S
H2610 C2547 0.930 . S
H2611 C2551 0.931 . S
H2612 C2552 0.959 . S
H2613 C2552 0.961 . S
H2614 C2552 0.959 . S
H2615 C2553 0.960 . S
H2616 C2553 0.960 . S
H2617 C2553 0.960 . S
H2618 C2589 0.980 . S
H2619 C2555 0.930 . S
H2620 C2559 0.930 . S
H2621 C2560 0.961 . S
H2622 C2560 0.960 . S
H2623 C2560 0.958 . S
H2624 C2561 0.961 . S
H2625 C2561 0.960 . S
H2626 C2561 0.960 . S
H2627 C2563 0.980 . S
H2628 C2562 0.961 . S
H2629 C2562 0.961 . S
H2630 C2562 0.959 . S
H2631 C2565 0.932 . S
H2632 C2569 0.929 . S
H2633 C2570 0.961 . S
H2634 C2570 0.959 . S
H2635 C2570 0.959 . S
H2636 C2571 0.960 . S
H2637 C2571 0.962 . S
H2638 C2571 0.961 . S
H2639 C2573 0.929 . S
H2640 C2576 0.930 . S
H2641 C2577 0.929 . S
H2642 C2580 0.930 . S
H2643 C2583 0.929 . S
H2644 C2584 0.930 . S
H2645 C2588 0.962 . S
H2646 C2588 0.959 . S
H2647 C2588 0.958 . S
C2648 C2649 1.560 . S
C2648 H2709 0.959 . S
C2648 H2710 0.959 . S
C2648 H2711 0.960 . S
C2649 C2648 1.560 . S
C2649 O2704 1.426 . S
C2649 H2708 0.980 . S
C2650 C2651 1.407 . S
C2650 C2655 1.418 . S
C2650 O2704 1.334 . S
C2651 C2650 1.407 . S
C2651 C2652 1.360 . S
C2651 H2712 0.929 . S
C2652 C2651 1.360 . S
C2652 C2653 1.401 . S
C2652 C2656 1.527 . S
C2653 C2652 1.401 . S
C2653 C2654 1.405 . S
C2653 C2686 1.587 . S
C2654 C2653 1.405 . S
C2654 C2655 1.332 . S
C2654 C2657 1.496 . S
C2655 C2650 1.418 . S
C2655 C2654 1.332 . S
C2655 H2713 0.929 . S
C2656 C2652 1.527 . S
C2656 H2714 0.959 . S
C2656 H2715 0.961 . S
C2656 H2716 0.961 . S
C2657 C2654 1.496 . S
C2657 H2717 0.960 . S
C2657 H2718 0.960 . S
C2657 H2719 0.961 . S
C2658 C2659 1.517 . S
C2658 H2721 0.961 . S
C2658 H2722 0.960 . S
C2658 H2723 0.959 . S
C2659 C2658 1.517 . S
C2659 O2707 1.468 . S
C2659 H2720 0.980 . S
C2660 C2661 1.349 . S
C2660 C2665 1.367 . S
C2660 O2707 1.408 . S
C2661 C2660 1.349 . S
C2661 C2662 1.407 . S
C2661 H2724 0.930 . S
C2662 C2661 1.407 . S
C2662 C2663 1.449 . S
C2662 C2666 1.535 . S
C2663 C2662 1.449 . S
C2663 C2664 1.384 . S
C2663 C2688 1.553 . S
C2664 C2663 1.384 . S
C2664 C2665 1.364 . S
C2664 C2667 1.450 . S
C2665 C2660 1.367 . S
C2665 C2664 1.364 . S
C2665 H2725 0.931 . S
C2666 C2662 1.535 . S
C2666 H2726 0.959 . S
C2666 H2727 0.961 . S
C2666 H2728 0.959 . S
C2667 C2664 1.450 . S
C2667 H2729 0.960 . S
C2667 H2730 0.960 . S
C2667 H2731 0.960 . S
C2668 C2669 1.309 . S
C2668 C2673 1.304 . S
C2668 O2706 1.435 . S
C2669 C2668 1.309 . S
C2669 C2670 1.476 . S
C2669 H2733 0.930 . S
C2670 C2669 1.476 . S
C2670 C2671 1.400 . S
C2670 C2674 1.567 . S
C2671 C2670 1.400 . S
C2671 C2672 1.373 . S
C2671 C2693 1.432 . S
C2672 C2671 1.373 . S
C2672 C2673 1.339 . S
C2672 C2675 1.530 . S
C2673 C2668 1.304 . S
C2673 C2672 1.339 . S
C2673 H2734 0.930 . S
C2674 C2670 1.567 . S
C2674 H2735 0.961 . S
C2674 H2736 0.960 . S
C2674 H2737 0.958 . S
C2675 C2672 1.530 . S
C2675 H2738 0.961 . S
C2675 H2739 0.960 . S
C2675 H2740 0.960 . S
C2676 C2677 1.530 . S
C2676 H2742 0.961 . S
C2676 H2743 0.961 . S
C2676 H2744 0.959 . S
C2677 C2676 1.530 . S
C2677 O2705 1.412 . S
C2677 H2741 0.980 . S
C2678 C2679 1.288 . S
C2678 C2683 1.377 . S
C2678 O2705 1.393 . S
C2679 C2678 1.288 . S
C2679 C2680 1.369 . S
C2679 H2745 0.932 . S
C2680 C2679 1.369 . S
C2680 C2681 1.398 . S
C2680 C2684 1.527 . S
C2681 C2680 1.398 . S
C2681 C2682 1.380 . S
C2681 C2695 1.497 . S
C2682 C2681 1.380 . S
C2682 C2683 1.383 . S
C2682 C2685 1.603 . S
C2683 C2678 1.377 . S
C2683 C2682 1.383 . S
C2683 H2746 0.929 . S
C2684 C2680 1.527 . S
C2684 H2747 0.961 . S
C2684 H2748 0.959 . S
C2684 H2749 0.959 . S
C2685 C2682 1.603 . S
C2685 H2750 0.960 . S
C2685 H2751 0.962 . S
C2685 H2752 0.961 . S
C2686 C2653 1.587 . S
C2686 C2687 1.360 . S
C2686 C2699 1.412 . S
C2687 C2686 1.360 . S
C2687 C2688 1.365 . S
C2687 H2753 0.929 . S
C2688 C2663 1.553 . S
C2688 C2687 1.365 . S
C2688 C2689 1.404 . S
C2689 C2688 1.404 . S
C2689 C2690 1.395 . S
C2689 C2700 1.451 . S
C2690 C2689 1.395 . S
C2690 C2691 1.322 . S
C2690 H2754 0.930 . S
C2691 C2690 1.322 . S
C2691 C2692 1.459 . S
C2691 H2755 0.929 . S
C2692 C2691 1.459 . S
C2692 C2693 1.445 . S
C2692 C2701 1.395 . S
C2693 C2671 1.432 . S
C2693 C2692 1.445 . S
C2693 C2694 1.370 . S
C2694 C2693 1.370 . S
C2694 C2695 1.438 . S
C2694 H2756 0.930 . S
C2695 C2681 1.497 . S
C2695 C2694 1.438 . S
C2695 C2696 1.360 . S
C2696 C2695 1.360 . S
C2696 C2697 1.401 . S
C2696 C2701 1.446 . S
C2697 C2696 1.401 . S
C2697 C2698 1.347 . S
C2697 H2757 0.929 . S
C2698 C2697 1.347 . S
C2698 C2699 1.455 . S
C2698 H2758 0.930 . S
C2699 C2686 1.412 . S
C2699 C2698 1.455 . S
C2699 C2700 1.331 . S
C2700 C2689 1.451 . S
C2700 C2699 1.331 . S
C2700 C2701 1.497 . S
C2701 C2692 1.395 . S
C2701 C2696 1.446 . S
C2701 C2700 1.497 . S
C2702 C2703 1.582 . S
C2702 H2759 0.962 . S
C2702 H2760 0.959 . S
C2702 H2761 0.958 . S
C2703 C2702 1.582 . S
C2703 O2706 1.458 . S
C2703 H2732 0.980 . S
O2704 C2649 1.426 . S
O2704 C2650 1.334 . S
O2705 C2677 1.412 . S
O2705 C2678 1.393 . S
O2706 C2668 1.435 . S
O2706 C2703 1.458 . S
O2707 C2659 1.468 . S
O2707 C2660 1.408 . S
H2708 C2649 0.980 . S
H2709 C2648 0.959 . S
H2710 C2648 0.959 . S
H2711 C2648 0.960 . S
H2712 C2651 0.929 . S
H2713 C2655 0.929 . S
H2714 C2656 0.959 . S
H2715 C2656 0.961 . S
H2716 C2656 0.961 . S
H2717 C2657 0.960 . S
H2718 C2657 0.960 . S
H2719 C2657 0.961 . S
H2720 C2659 0.980 . S
H2721 C2658 0.961 . S
H2722 C2658 0.960 . S
H2723 C2658 0.959 . S
H2724 C2661 0.930 . S
H2725 C2665 0.931 . S
H2726 C2666 0.959 . S
H2727 C2666 0.961 . S
H2728 C2666 0.959 . S
H2729 C2667 0.960 . S
H2730 C2667 0.960 . S
H2731 C2667 0.960 . S
H2732 C2703 0.980 . S
H2733 C2669 0.930 . S
H2734 C2673 0.930 . S
H2735 C2674 0.961 . S
H2736 C2674 0.960 . S
H2737 C2674 0.958 . S
H2738 C2675 0.961 . S
H2739 C2675 0.960 . S
H2740 C2675 0.960 . S
H2741 C2677 0.980 . S
H2742 C2676 0.961 . S
H2743 C2676 0.961 . S
H2744 C2676 0.959 . S
H2745 C2679 0.932 . S
H2746 C2683 0.929 . S
H2747 C2684 0.961 . S
H2748 C2684 0.959 . S
H2749 C2684 0.959 . S
H2750 C2685 0.960 . S
H2751 C2685 0.962 . S
H2752 C2685 0.961 . S
H2753 C2687 0.929 . S
H2754 C2690 0.930 . S
H2755 C2691 0.929 . S
H2756 C2694 0.930 . S
H2757 C2697 0.929 . S
H2758 C2698 0.930 . S
H2759 C2702 0.962 . S
H2760 C2702 0.959 . S
H2761 C2702 0.958 . S
C2762 C2763 1.560 . S
C2762 H2823 0.959 . S
C2762 H2824 0.959 . S
C2762 H2825 0.960 . S
C2763 C2762 1.560 . S
C2763 O2818 1.426 . S
C2763 H2822 0.980 . S
C2764 C2765 1.407 . S
C2764 C2769 1.418 . S
C2764 O2818 1.334 . S
C2765 C2764 1.407 . S
C2765 C2766 1.360 . S
C2765 H2826 0.929 . S
C2766 C2765 1.360 . S
C2766 C2767 1.401 . S
C2766 C2770 1.527 . S
C2767 C2766 1.401 . S
C2767 C2768 1.405 . S
C2767 C2800 1.587 . S
C2768 C2767 1.405 . S
C2768 C2769 1.332 . S
C2768 C2771 1.496 . S
C2769 C2764 1.418 . S
C2769 C2768 1.332 . S
C2769 H2827 0.929 . S
C2770 C2766 1.527 . S
C2770 H2828 0.959 . S
C2770 H2829 0.961 . S
C2770 H2830 0.961 . S
C2771 C2768 1.496 . S
C2771 H2831 0.960 . S
C2771 H2832 0.960 . S
C2771 H2833 0.961 . S
C2772 C2773 1.517 . S
C2772 H2835 0.961 . S
C2772 H2836 0.960 . S
C2772 H2837 0.959 . S
C2773 C2772 1.517 . S
C2773 O2821 1.468 . S
C2773 H2834 0.980 . S
C2774 C2775 1.349 . S
C2774 C2779 1.367 . S
C2774 O2821 1.408 . S
C2775 C2774 1.349 . S
C2775 C2776 1.407 . S
C2775 H2838 0.930 . S
C2776 C2775 1.407 . S
C2776 C2777 1.449 . S
C2776 C2780 1.535 . S
C2777 C2776 1.449 . S
C2777 C2778 1.384 . S
C2777 C2802 1.553 . S
C2778 C2777 1.384 . S
C2778 C2779 1.364 . S
C2778 C2781 1.450 . S
C2779 C2774 1.367 . S
C2779 C2778 1.364 . S
C2779 H2839 0.931 . S
C2780 C2776 1.535 . S
C2780 H2840 0.959 . S
C2780 H2841 0.961 . S
C2780 H2842 0.959 . S
C2781 C2778 1.450 . S
C2781 H2843 0.960 . S
C2781 H2844 0.960 . S
C2781 H2845 0.960 . S
C2782 C2783 1.309 . S
C2782 C2787 1.304 . S
C2782 O2820 1.435 . S
C2783 C2782 1.309 . S
C2783 C2784 1.476 . S
C2783 H2847 0.930 . S
C2784 C2783 1.476 . S
C2784 C2785 1.400 . S
C2784 C2788 1.567 . S
C2785 C2784 1.400 . S
C2785 C2786 1.373 . S
C2785 C2807 1.432 . S
C2786 C2785 1.373 . S
C2786 C2787 1.339 . S
C2786 C2789 1.530 . S
C2787 C2782 1.304 . S
C2787 C2786 1.339 . S
C2787 H2848 0.930 . S
C2788 C2784 1.567 . S
C2788 H2849 0.961 . S
C2788 H2850 0.960 . S
C2788 H2851 0.958 . S
C2789 C2786 1.530 . S
C2789 H2852 0.961 . S
C2789 H2853 0.960 . S
C2789 H2854 0.960 . S
C2790 C2791 1.530 . S
C2790 H2856 0.961 . S
C2790 H2857 0.961 . S
C2790 H2858 0.959 . S
C2791 C2790 1.530 . S
C2791 O2819 1.412 . S
C2791 H2855 0.980 . S
C2792 C2793 1.288 . S
C2792 C2797 1.377 . S
C2792 O2819 1.393 . S
C2793 C2792 1.288 . S
C2793 C2794 1.369 . S
C2793 H2859 0.932 . S
C2794 C2793 1.369 . S
C2794 C2795 1.398 . S
C2794 C2798 1.527 . S
C2795 C2794 1.398 . S
C2795 C2796 1.380 . S
C2795 C2809 1.497 . S
C2796 C2795 1.380 . S
C2796 C2797 1.383 . S
C2796 C2799 1.603 . S
C2797 C2792 1.377 . S
C2797 C2796 1.383 . S
C2797 H2860 0.929 . S
C2798 C2794 1.527 . S
C2798 H2861 0.961 . S
C2798 H2862 0.959 . S
C2798 H2863 0.959 . S
C2799 C2796 1.603 . S
C2799 H2864 0.960 . S
C2799 H2865 0.962 . S
C2799 H2866 0.961 . S
C2800 C2767 1.587 . S
C2800 C2801 1.360 . S
C2800 C2813 1.412 . S
C2801 C2800 1.360 . S
C2801 C2802 1.365 . S
C2801 H2867 0.929 . S
C2802 C2777 1.553 . S
C2802 C2801 1.365 . S
C2802 C2803 1.404 . S
C2803 C2802 1.404 . S
C2803 C2804 1.395 . S
C2803 C2814 1.451 . S
C2804 C2803 1.395 . S
C2804 C2805 1.322 . S
C2804 H2868 0.930 . S
C2805 C2804 1.322 . S
C2805 C2806 1.459 . S
C2805 H2869 0.929 . S
C2806 C2805 1.459 . S
C2806 C2807 1.445 . S
C2806 C2815 1.395 . S
C2807 C2785 1.432 . S
C2807 C2806 1.445 . S
C2807 C2808 1.370 . S
C2808 C2807 1.370 . S
C2808 C2809 1.438 . S
C2808 H2870 0.930 . S
C2809 C2795 1.497 . S
C2809 C2808 1.438 . S
C2809 C2810 1.360 . S
C2810 C2809 1.360 . S
C2810 C2811 1.401 . S
C2810 C2815 1.446 . S
C2811 C2810 1.401 . S
C2811 C2812 1.347 . S
C2811 H2871 0.929 . S
C2812 C2811 1.347 . S
C2812 C2813 1.455 . S
C2812 H2872 0.930 . S
C2813 C2800 1.412 . S
C2813 C2812 1.455 . S
C2813 C2814 1.331 . S
C2814 C2803 1.451 . S
C2814 C2813 1.331 . S
C2814 C2815 1.497 . S
C2815 C2806 1.395 . S
C2815 C2810 1.446 . S
C2815 C2814 1.497 . S
C2816 C2817 1.582 . S
C2816 H2873 0.962 . S
C2816 H2874 0.959 . S
C2816 H2875 0.958 . S
C2817 C2816 1.582 . S
C2817 O2820 1.458 . S
C2817 H2846 0.980 . S
O2818 C2763 1.426 . S
O2818 C2764 1.334 . S
O2819 C2791 1.412 . S
O2819 C2792 1.393 . S
O2820 C2782 1.435 . S
O2820 C2817 1.458 . S
O2821 C2773 1.468 . S
O2821 C2774 1.408 . S
H2822 C2763 0.980 . S
H2823 C2762 0.959 . S
H2824 C2762 0.959 . S
H2825 C2762 0.960 . S
H2826 C2765 0.929 . S
H2827 C2769 0.929 . S
H2828 C2770 0.959 . S
H2829 C2770 0.961 . S
H2830 C2770 0.961 . S
H2831 C2771 0.960 . S
H2832 C2771 0.960 . S
H2833 C2771 0.961 . S
H2834 C2773 0.980 . S
H2835 C2772 0.961 . S
H2836 C2772 0.960 . S
H2837 C2772 0.959 . S
H2838 C2775 0.930 . S
H2839 C2779 0.931 . S
H2840 C2780 0.959 . S
H2841 C2780 0.961 . S
H2842 C2780 0.959 . S
H2843 C2781 0.960 . S
H2844 C2781 0.960 . S
H2845 C2781 0.960 . S
H2846 C2817 0.980 . S
H2847 C2783 0.930 . S
H2848 C2787 0.930 . S
H2849 C2788 0.961 . S
H2850 C2788 0.960 . S
H2851 C2788 0.958 . S
H2852 C2789 0.961 . S
H2853 C2789 0.960 . S
H2854 C2789 0.960 . S
H2855 C2791 0.980 . S
H2856 C2790 0.961 . S
H2857 C2790 0.961 . S
H2858 C2790 0.959 . S
H2859 C2793 0.932 . S
H2860 C2797 0.929 . S
H2861 C2798 0.961 . S
H2862 C2798 0.959 . S
H2863 C2798 0.959 . S
H2864 C2799 0.960 . S
H2865 C2799 0.962 . S
H2866 C2799 0.961 . S
H2867 C2801 0.929 . S
H2868 C2804 0.930 . S
H2869 C2805 0.929 . S
H2870 C2808 0.930 . S
H2871 C2811 0.929 . S
H2872 C2812 0.930 . S
H2873 C2816 0.962 . S
H2874 C2816 0.959 . S
H2875 C2816 0.958 . S
C2876 C2877 1.560 . S
C2876 H2937 0.959 . S
C2876 H2938 0.959 . S
C2876 H2939 0.960 . S
C2877 C2876 1.560 . S
C2877 O2932 1.426 . S
C2877 H2936 0.980 . S
C2878 C2879 1.407 . S
C2878 C2883 1.418 . S
C2878 O2932 1.334 . S
C2879 C2878 1.407 . S
C2879 C2880 1.360 . S
C2879 H2940 0.929 . S
C2880 C2879 1.360 . S
C2880 C2881 1.401 . S
C2880 C2884 1.527 . S
C2881 C2880 1.401 . S
C2881 C2882 1.405 . S
C2881 C2914 1.587 . S
C2882 C2881 1.405 . S
C2882 C2883 1.332 . S
C2882 C2885 1.496 . S
C2883 C2878 1.418 . S
C2883 C2882 1.332 . S
C2883 H2941 0.929 . S
C2884 C2880 1.527 . S
C2884 H2942 0.959 . S
C2884 H2943 0.961 . S
C2884 H2944 0.961 . S
C2885 C2882 1.496 . S
C2885 H2945 0.960 . S
C2885 H2946 0.960 . S
C2885 H2947 0.961 . S
C2886 C2887 1.517 . S
C2886 H2949 0.961 . S
C2886 H2950 0.960 . S
C2886 H2951 0.959 . S
C2887 C2886 1.517 . S
C2887 O2935 1.468 . S
C2887 H2948 0.980 . S
C2888 C2889 1.349 . S
C2888 C2893 1.367 . S
C2888 O2935 1.408 . S
C2889 C2888 1.349 . S
C2889 C2890 1.407 . S
C2889 H2952 0.930 . S
C2890 C2889 1.407 . S
C2890 C2891 1.449 . S
C2890 C2894 1.535 . S
C2891 C2890 1.449 . S
C2891 C2892 1.384 . S
C2891 C2916 1.553 . S
C2892 C2891 1.384 . S
C2892 C2893 1.364 . S
C2892 C2895 1.450 . S
C2893 C2888 1.367 . S
C2893 C2892 1.364 . S
C2893 H2953 0.931 . S
C2894 C2890 1.535 . S
C2894 H2954 0.959 . S
C2894 H2955 0.961 . S
C2894 H2956 0.959 . S
C2895 C2892 1.450 . S
C2895 H2957 0.960 . S
C2895 H2958 0.960 . S
C2895 H2959 0.960 . S
C2896 C2897 1.309 . S
C2896 C2901 1.304 . S
C2896 O2934 1.435 . S
C2897 C2896 1.309 . S
C2897 C2898 1.476 . S
C2897 H2961 0.930 . S
C2898 C2897 1.476 . S
C2898 C2899 1.400 . S
C2898 C2902 1.567 . S
C2899 C2898 1.400 . S
C2899 C2900 1.373 . S
C2899 C2921 1.432 . S
C2900 C2899 1.373 . S
C2900 C2901 1.339 . S
C2900 C2903 1.530 . S
C2901 C2896 1.304 . S
C2901 C2900 1.339 . S
C2901 H2962 0.930 . S
C2902 C2898 1.567 . S
C2902 H2963 0.961 . S
C2902 H2964 0.960 . S
C2902 H2965 0.958 . S
C2903 C2900 1.530 . S
C2903 H2966 0.961 . S
C2903 H2967 0.960 . S
C2903 H2968 0.960 . S
C2904 C2905 1.530 . S
C2904 H2970 0.961 . S
C2904 H2971 0.961 . S
C2904 H2972 0.959 . S
C2905 C2904 1.530 . S
C2905 O2933 1.412 . S
C2905 H2969 0.980 . S
C2906 C2907 1.288 . S
C2906 C2911 1.377 . S
C2906 O2933 1.393 . S
C2907 C2906 1.288 . S
C2907 C2908 1.369 . S
C2907 H2973 0.932 . S
C2908 C2907 1.369 . S
C2908 C2909 1.398 . S
C2908 C2912 1.527 . S
C2909 C2908 1.398 . S
C2909 C2910 1.380 . S
C2909 C2923 1.497 . S
C2910 C2909 1.380 . S
C2910 C2911 1.383 . S
C2910 C2913 1.603 . S
C2911 C2906 1.377 . S
C2911 C2910 1.383 . S
C2911 H2974 0.929 . S
C2912 C2908 1.527 . S
C2912 H2975 0.961 . S
C2912 H2976 0.959 . S
C2912 H2977 0.959 . S
C2913 C2910 1.603 . S
C2913 H2978 0.960 . S
C2913 H2979 0.962 . S
C2913 H2980 0.961 . S
C2914 C2881 1.587 . S
C2914 C2915 1.360 . S
C2914 C2927 1.412 . S
C2915 C2914 1.360 . S
C2915 C2916 1.365 . S
C2915 H2981 0.929 . S
C2916 C2891 1.553 . S
C2916 C2915 1.365 . S
C2916 C2917 1.404 . S
C2917 C2916 1.404 . S
C2917 C2918 1.395 . S
C2917 C2928 1.451 . S
C2918 C2917 1.395 . S
C2918 C2919 1.322 . S
C2918 H2982 0.930 . S
C2919 C2918 1.322 . S
C2919 C2920 1.459 . S
C2919 H2983 0.929 . S
C2920 C2919 1.459 . S
C2920 C2921 1.445 . S
C2920 C2929 1.395 . S
C2921 C2899 1.432 . S
C2921 C2920 1.445 . S
C2921 C2922 1.370 . S
C2922 C2921 1.370 . S
C2922 C2923 1.438 . S
C2922 H2984 0.930 . S
C2923 C2909 1.497 . S
C2923 C2922 1.438 . S
C2923 C2924 1.360 . S
C2924 C2923 1.360 . S
C2924 C2925 1.401 . S
C2924 C2929 1.446 . S
C2925 C2924 1.401 . S
C2925 C2926 1.347 . S
C2925 H2985 0.929 . S
C2926 C2925 1.347 . S
C2926 C2927 1.455 . S
C2926 H2986 0.930 . S
C2927 C2914 1.412 . S
C2927 C2926 1.455 . S
C2927 C2928 1.331 . S
C2928 C2917 1.451 . S
C2928 C2927 1.331 . S
C2928 C2929 1.497 . S
C2929 C2920 1.395 . S
C2929 C2924 1.446 . S
C2929 C2928 1.497 . S
C2930 C2931 1.582 . S
C2930 H2987 0.962 . S
C2930 H2988 0.959 . S
C2930 H2989 0.958 . S
C2931 C2930 1.582 . S
C2931 O2934 1.458 . S
C2931 H2960 0.980 . S
O2932 C2877 1.426 . S
O2932 C2878 1.334 . S
O2933 C2905 1.412 . S
O2933 C2906 1.393 . S
O2934 C2896 1.435 . S
O2934 C2931 1.458 . S
O2935 C2887 1.468 . S
O2935 C2888 1.408 . S
H2936 C2877 0.980 . S
H2937 C2876 0.959 . S
H2938 C2876 0.959 . S
H2939 C2876 0.960 . S
H2940 C2879 0.929 . S
H2941 C2883 0.929 . S
H2942 C2884 0.959 . S
H2943 C2884 0.961 . S
H2944 C2884 0.961 . S
H2945 C2885 0.960 . S
H2946 C2885 0.960 . S
H2947 C2885 0.961 . S
H2948 C2887 0.980 . S
H2949 C2886 0.961 . S
H2950 C2886 0.960 . S
H2951 C2886 0.959 . S
H2952 C2889 0.930 . S
H2953 C2893 0.931 . S
H2954 C2894 0.959 . S
H2955 C2894 0.961 . S
H2956 C2894 0.959 . S
H2957 C2895 0.960 . S
H2958 C2895 0.960 . S
H2959 C2895 0.960 . S
H2960 C2931 0.980 . S
H2961 C2897 0.930 . S
H2962 C2901 0.930 . S
H2963 C2902 0.961 . S
H2964 C2902 0.960 . S
H2965 C2902 0.958 . S
H2966 C2903 0.961 . S
H2967 C2903 0.960 . S
H2968 C2903 0.960 . S
H2969 C2905 0.980 . S
H2970 C2904 0.961 . S
H2971 C2904 0.961 . S
H2972 C2904 0.959 . S
H2973 C2907 0.932 . S
H2974 C2911 0.929 . S
H2975 C2912 0.961 . S
H2976 C2912 0.959 . S
H2977 C2912 0.959 . S
H2978 C2913 0.960 . S
H2979 C2913 0.962 . S
H2980 C2913 0.961 . S
H2981 C2915 0.929 . S
H2982 C2918 0.930 . S
H2983 C2919 0.929 . S
H2984 C2922 0.930 . S
H2985 C2925 0.929 . S
H2986 C2926 0.930 . S
H2987 C2930 0.962 . S
H2988 C2930 0.959 . S
H2989 C2930 0.958 . S
C2990 C2991 1.560 . S
C2990 H3051 0.959 . S
C2990 H3052 0.959 . S
C2990 H3053 0.960 . S
C2991 C2990 1.560 . S
C2991 O3046 1.426 . S
C2991 H3050 0.980 . S
C2992 C2993 1.407 . S
C2992 C2997 1.418 . S
C2992 O3046 1.334 . S
C2993 C2992 1.407 . S
C2993 C2994 1.360 . S
C2993 H3054 0.929 . S
C2994 C2993 1.360 . S
C2994 C2995 1.401 . S
C2994 C2998 1.527 . S
C2995 C2994 1.401 . S
C2995 C2996 1.405 . S
C2995 C3028 1.587 . S
C2996 C2995 1.405 . S
C2996 C2997 1.332 . S
C2996 C2999 1.496 . S
C2997 C2992 1.418 . S
C2997 C2996 1.332 . S
C2997 H3055 0.929 . S
C2998 C2994 1.527 . S
C2998 H3056 0.959 . S
C2998 H3057 0.961 . S
C2998 H3058 0.961 . S
C2999 C2996 1.496 . S
C2999 H3059 0.960 . S
C2999 H3060 0.960 . S
C2999 H3061 0.961 . S
C3000 C3001 1.517 . S
C3000 H3063 0.961 . S
C3000 H3064 0.960 . S
C3000 H3065 0.959 . S
C3001 C3000 1.517 . S
C3001 O3049 1.468 . S
C3001 H3062 0.980 . S
C3002 C3003 1.349 . S
C3002 C3007 1.367 . S
C3002 O3049 1.408 . S
C3003 C3002 1.349 . S
C3003 C3004 1.407 . S
C3003 H3066 0.930 . S
C3004 C3003 1.407 . S
C3004 C3005 1.449 . S
C3004 C3008 1.535 . S
C3005 C3004 1.449 . S
C3005 C3006 1.384 . S
C3005 C3030 1.553 . S
C3006 C3005 1.384 . S
C3006 C3007 1.364 . S
C3006 C3009 1.450 . S
C3007 C3002 1.367 . S
C3007 C3006 1.364 . S
C3007 H3067 0.931 . S
C3008 C3004 1.535 . S
C3008 H3068 0.959 . S
C3008 H3069 0.961 . S
C3008 H3070 0.959 . S
C3009 C3006 1.450 . S
C3009 H3071 0.960 . S
C3009 H3072 0.960 . S
C3009 H3073 0.960 . S
C3010 C3011 1.309 . S
C3010 C3015 1.304 . S
C3010 O3048 1.435 . S
C3011 C3010 1.309 . S
C3011 C3012 1.476 . S
C3011 H3075 0.930 . S
C3012 C3011 1.476 . S
C3012 C3013 1.400 . S
C3012 C3016 1.567 . S
C3013 C3012 1.400 . S
C3013 C3014 1.373 . S
C3013 C3035 1.432 . S
C3014 C3013 1.373 . S
C3014 C3015 1.339 . S
C3014 C3017 1.530 . S
C3015 C3010 1.304 . S
C3015 C3014 1.339 . S
C3015 H3076 0.930 . S
C3016 C3012 1.567 . S
C3016 H3077 0.961 . S
C3016 H3078 0.960 . S
C3016 H3079 0.958 . S
C3017 C3014 1.530 . S
C3017 H3080 0.961 . S
C3017 H3081 0.960 . S
C3017 H3082 0.960 . S
C3018 C3019 1.530 . S
C3018 H3084 0.961 . S
C3018 H3085 0.961 . S
C3018 H3086 0.959 . S
C3019 C3018 1.530 . S
C3019 O3047 1.412 . S
C3019 H3083 0.980 . S
C3020 C3021 1.288 . S
C3020 C3025 1.377 . S
C3020 O3047 1.393 . S
C3021 C3020 1.288 . S
C3021 C3022 1.369 . S
C3021 H3087 0.932 . S
C3022 C3021 1.369 . S
C3022 C3023 1.398 . S
C3022 C3026 1.527 . S
C3023 C3022 1.398 . S
C3023 C3024 1.380 . S
C3023 C3037 1.497 . S
C3024 C3023 1.380 . S
C3024 C3025 1.383 . S
C3024 C3027 1.603 . S
C3025 C3020 1.377 . S
C3025 C3024 1.383 . S
C3025 H3088 0.929 . S
C3026 C3022 1.527 . S
C3026 H3089 0.961 . S
C3026 H3090 0.959 . S
C3026 H3091 0.959 . S
C3027 C3024 1.603 . S
C3027 H3092 0.960 . S
C3027 H3093 0.962 . S
C3027 H3094 0.961 . S
C3028 C2995 1.587 . S
C3028 C3029 1.360 . S
C3028 C3041 1.412 . S
C3029 C3028 1.360 . S
C3029 C3030 1.365 . S
C3029 H3095 0.929 . S
C3030 C3005 1.553 . S
C3030 C3029 1.365 . S
C3030 C3031 1.404 . S
C3031 C3030 1.404 . S
C3031 C3032 1.395 . S
C3031 C3042 1.451 . S
C3032 C3031 1.395 . S
C3032 C3033 1.322 . S
C3032 H3096 0.930 . S
C3033 C3032 1.322 . S
C3033 C3034 1.459 . S
C3033 H3097 0.929 . S
C3034 C3033 1.459 . S
C3034 C3035 1.445 . S
C3034 C3043 1.395 . S
C3035 C3013 1.432 . S
C3035 C3034 1.445 . S
C3035 C3036 1.370 . S
C3036 C3035 1.370 . S
C3036 C3037 1.438 . S
C3036 H3098 0.930 . S
C3037 C3023 1.497 . S
C3037 C3036 1.438 . S
C3037 C3038 1.360 . S
C3038 C3037 1.360 . S
C3038 C3039 1.401 . S
C3038 C3043 1.446 . S
C3039 C3038 1.401 . S
C3039 C3040 1.347 . S
C3039 H3099 0.929 . S
C3040 C3039 1.347 . S
C3040 C3041 1.455 . S
C3040 H3100 0.930 . S
C3041 C3028 1.412 . S
C3041 C3040 1.455 . S
C3041 C3042 1.331 . S
C3042 C3031 1.451 . S
C3042 C3041 1.331 . S
C3042 C3043 1.497 . S
C3043 C3034 1.395 . S
C3043 C3038 1.446 . S
C3043 C3042 1.497 . S
C3044 C3045 1.582 . S
C3044 H3101 0.962 . S
C3044 H3102 0.959 . S
C3044 H3103 0.958 . S
C3045 C3044 1.582 . S
C3045 O3048 1.458 . S
C3045 H3074 0.980 . S
O3046 C2991 1.426 . S
O3046 C2992 1.334 . S
O3047 C3019 1.412 . S
O3047 C3020 1.393 . S
O3048 C3010 1.435 . S
O3048 C3045 1.458 . S
O3049 C3001 1.468 . S
O3049 C3002 1.408 . S
H3050 C2991 0.980 . S
H3051 C2990 0.959 . S
H3052 C2990 0.959 . S
H3053 C2990 0.960 . S
H3054 C2993 0.929 . S
H3055 C2997 0.929 . S
H3056 C2998 0.959 . S
H3057 C2998 0.961 . S
H3058 C2998 0.961 . S
H3059 C2999 0.960 . S
H3060 C2999 0.960 . S
H3061 C2999 0.961 . S
H3062 C3001 0.980 . S
H3063 C3000 0.961 . S
H3064 C3000 0.960 . S
H3065 C3000 0.959 . S
H3066 C3003 0.930 . S
H3067 C3007 0.931 . S
H3068 C3008 0.959 . S
H3069 C3008 0.961 . S
H3070 C3008 0.959 . S
H3071 C3009 0.960 . S
H3072 C3009 0.960 . S
H3073 C3009 0.960 . S
H3074 C3045 0.980 . S
H3075 C3011 0.930 . S
H3076 C3015 0.930 . S
H3077 C3016 0.961 . S
H3078 C3016 0.960 . S
H3079 C3016 0.958 . S
H3080 C3017 0.961 . S
H3081 C3017 0.960 . S
H3082 C3017 0.960 . S
H3083 C3019 0.980 . S
H3084 C3018 0.961 . S
H3085 C3018 0.961 . S
H3086 C3018 0.959 . S
H3087 C3021 0.932 . S
H3088 C3025 0.929 . S
H3089 C3026 0.961 . S
H3090 C3026 0.959 . S
H3091 C3026 0.959 . S
H3092 C3027 0.960 . S
H3093 C3027 0.962 . S
H3094 C3027 0.961 . S
H3095 C3029 0.929 . S
H3096 C3032 0.930 . S
H3097 C3033 0.929 . S
H3098 C3036 0.930 . S
H3099 C3039 0.929 . S
H3100 C3040 0.930 . S
H3101 C3044 0.962 . S
H3102 C3044 0.959 . S
H3103 C3044 0.958 . S
C3104 C3105 1.560 . S
C3104 H3165 0.959 . S
C3104 H3166 0.959 . S
C3104 H3167 0.960 . S
C3105 C3104 1.560 . S
C3105 O3160 1.426 . S
C3105 H3164 0.980 . S
C3106 C3107 1.407 . S
C3106 C3111 1.418 . S
C3106 O3160 1.334 . S
C3107 C3106 1.407 . S
C3107 C3108 1.360 . S
C3107 H3168 0.929 . S
C3108 C3107 1.360 . S
C3108 C3109 1.401 . S
C3108 C3112 1.527 . S
C3109 C3108 1.401 . S
C3109 C3110 1.405 . S
C3109 C3142 1.587 . S
C3110 C3109 1.405 . S
C3110 C3111 1.332 . S
C3110 C3113 1.496 . S
C3111 C3106 1.418 . S
C3111 C3110 1.332 . S
C3111 H3169 0.929 . S
C3112 C3108 1.527 . S
C3112 H3170 0.959 . S
C3112 H3171 0.961 . S
C3112 H3172 0.961 . S
C3113 C3110 1.496 . S
C3113 H3173 0.960 . S
C3113 H3174 0.960 . S
C3113 H3175 0.961 . S
C3114 C3115 1.517 . S
C3114 H3177 0.961 . S
C3114 H3178 0.960 . S
C3114 H3179 0.959 . S
C3115 C3114 1.517 . S
C3115 O3163 1.468 . S
C3115 H3176 0.980 . S
C3116 C3117 1.349 . S
C3116 C3121 1.367 . S
C3116 O3163 1.408 . S
C3117 C3116 1.349 . S
C3117 C3118 1.407 . S
C3117 H3180 0.930 . S
C3118 C3117 1.407 . S
C3118 C3119 1.449 . S
C3118 C3122 1.535 . S
C3119 C3118 1.449 . S
C3119 C3120 1.384 . S
C3119 C3144 1.553 . S
C3120 C3119 1.384 . S
C3120 C3121 1.364 . S
C3120 C3123 1.450 . S
C3121 C3116 1.367 . S
C3121 C3120 1.364 . S
C3121 H3181 0.931 . S
C3122 C3118 1.535 . S
C3122 H3182 0.959 . S
C3122 H3183 0.961 . S
C3122 H3184 0.959 . S
C3123 C3120 1.450 . S
C3123 H3185 0.960 . S
C3123 H3186 0.960 . S
C3123 H3187 0.960 . S
C3124 C3125 1.309 . S
C3124 C3129 1.304 . S
C3124 O3162 1.435 . S
C3125 C3124 1.309 . S
C3125 C3126 1.476 . S
C3125 H3189 0.930 . S
C3126 C3125 1.476 . S
C3126 C3127 1.400 . S
C3126 C3130 1.567 . S
C3127 C3126 1.400 . S
C3127 C3128 1.373 . S
C3127 C3149 1.432 . S
C3128 C3127 1.373 . S
C3128 C3129 1.339 . S
C3128 C3131 1.530 . S
C3129 C3124 1.304 . S
C3129 C3128 1.339 . S
C3129 H3190 0.930 . S
C3130 C3126 1.567 . S
C3130 H3191 0.961 . S
C3130 H3192 0.960 . S
C3130 H3193 0.958 . S
C3131 C3128 1.530 . S
C3131 H3194 0.961 . S
C3131 H3195 0.960 . S
C3131 H3196 0.960 . S
C3132 C3133 1.530 . S
C3132 H3198 0.961 . S
C3132 H3199 0.961 . S
C3132 H3200 0.959 . S
C3133 C3132 1.530 . S
C3133 O3161 1.412 . S
C3133 H3197 0.980 . S
C3134 C3135 1.288 . S
C3134 C3139 1.377 . S
C3134 O3161 1.393 . S
C3135 C3134 1.288 . S
C3135 C3136 1.369 . S
C3135 H3201 0.932 . S
C3136 C3135 1.369 . S
C3136 C3137 1.398 . S
C3136 C3140 1.527 . S
C3137 C3136 1.398 . S
C3137 C3138 1.380 . S
C3137 C3151 1.497 . S
C3138 C3137 1.380 . S
C3138 C3139 1.383 . S
C3138 C3141 1.603 . S
C3139 C3134 1.377 . S
C3139 C3138 1.383 . S
C3139 H3202 0.929 . S
C3140 C3136 1.527 . S
C3140 H3203 0.961 . S
C3140 H3204 0.959 . S
C3140 H3205 0.959 . S
C3141 C3138 1.603 . S
C3141 H3206 0.960 . S
C3141 H3207 0.962 . S
C3141 H3208 0.961 . S
C3142 C3109 1.587 . S
C3142 C3143 1.360 . S
C3142 C3155 1.412 . S
C3143 C3142 1.360 . S
C3143 C3144 1.365 . S
C3143 H3209 0.929 . S
C3144 C3119 1.553 . S
C3144 C3143 1.365 . S
C3144 C3145 1.404 . S
C3145 C3144 1.404 . S
C3145 C3146 1.395 . S
C3145 C3156 1.451 . S
C3146 C3145 1.395 . S
C3146 C3147 1.322 . S
C3146 H3210 0.930 . S
C3147 C3146 1.322 . S
C3147 C3148 1.459 . S
C3147 H3211 0.929 . S
C3148 C3147 1.459 . S
C3148 C3149 1.445 . S
C3148 C3157 1.395 . S
C3149 C3127 1.432 . S
C3149 C3148 1.445 . S
C3149 C3150 1.370 . S
C3150 C3149 1.370 . S
C3150 C3151 1.438 . S
C3150 H3212 0.930 . S
C3151 C3137 1.497 . S
C3151 C3150 1.438 . S
C3151 C3152 1.360 . S
C3152 C3151 1.360 . S
C3152 C3153 1.401 . S
C3152 C3157 1.446 . S
C3153 C3152 1.401 . S
C3153 C3154 1.347 . S
C3153 H3213 0.929 . S
C3154 C3153 1.347 . S
C3154 C3155 1.455 . S
C3154 H3214 0.930 . S
C3155 C3142 1.412 . S
C3155 C3154 1.455 . S
C3155 C3156 1.331 . S
C3156 C3145 1.451 . S
C3156 C3155 1.331 . S
C3156 C3157 1.497 . S
C3157 C3148 1.395 . S
C3157 C3152 1.446 . S
C3157 C3156 1.497 . S
C3158 C3159 1.582 . S
C3158 H3215 0.962 . S
C3158 H3216 0.959 . S
C3158 H3217 0.958 . S
C3159 C3158 1.582 . S
C3159 O3162 1.458 . S
C3159 H3188 0.980 . S
O3160 C3105 1.426 . S
O3160 C3106 1.334 . S
O3161 C3133 1.412 . S
O3161 C3134 1.393 . S
O3162 C3124 1.435 . S
O3162 C3159 1.458 . S
O3163 C3115 1.468 . S
O3163 C3116 1.408 . S
H3164 C3105 0.980 . S
H3165 C3104 0.959 . S
H3166 C3104 0.959 . S
H3167 C3104 0.960 . S
H3168 C3107 0.929 . S
H3169 C3111 0.929 . S
H3170 C3112 0.959 . S
H3171 C3112 0.961 . S
H3172 C3112 0.961 . S
H3173 C3113 0.960 . S
H3174 C3113 0.960 . S
H3175 C3113 0.961 . S
H3176 C3115 0.980 . S
H3177 C3114 0.961 . S
H3178 C3114 0.960 . S
H3179 C3114 0.959 . S
H3180 C3117 0.930 . S
H3181 C3121 0.931 . S
H3182 C3122 0.959 . S
H3183 C3122 0.961 . S
H3184 C3122 0.959 . S
H3185 C3123 0.960 . S
H3186 C3123 0.960 . S
H3187 C3123 0.960 . S
H3188 C3159 0.980 . S
H3189 C3125 0.930 . S
H3190 C3129 0.930 . S
H3191 C3130 0.961 . S
H3192 C3130 0.960 . S
H3193 C3130 0.958 . S
H3194 C3131 0.961 . S
H3195 C3131 0.960 . S
H3196 C3131 0.960 . S
H3197 C3133 0.980 . S
H3198 C3132 0.961 . S
H3199 C3132 0.961 . S
H3200 C3132 0.959 . S
H3201 C3135 0.932 . S
H3202 C3139 0.929 . S
H3203 C3140 0.961 . S
H3204 C3140 0.959 . S
H3205 C3140 0.959 . S
H3206 C3141 0.960 . S
H3207 C3141 0.962 . S
H3208 C3141 0.961 . S
H3209 C3143 0.929 . S
H3210 C3146 0.930 . S
H3211 C3147 0.929 . S
H3212 C3150 0.930 . S
H3213 C3153 0.929 . S
H3214 C3154 0.930 . S
H3215 C3158 0.962 . S
H3216 C3158 0.959 . S
H3217 C3158 0.958 . S
C3218 C3219 1.560 . S
C3218 H3279 0.959 . S
C3218 H3280 0.959 . S
C3218 H3281 0.960 . S
C3219 C3218 1.560 . S
C3219 O3274 1.426 . S
C3219 H3278 0.980 . S
C3220 C3221 1.407 . S
C3220 C3225 1.418 . S
C3220 O3274 1.334 . S
C3221 C3220 1.407 . S
C3221 C3222 1.360 . S
C3221 H3282 0.929 . S
C3222 C3221 1.360 . S
C3222 C3223 1.401 . S
C3222 C3226 1.527 . S
C3223 C3222 1.401 . S
C3223 C3224 1.405 . S
C3223 C3256 1.587 . S
C3224 C3223 1.405 . S
C3224 C3225 1.332 . S
C3224 C3227 1.496 . S
C3225 C3220 1.418 . S
C3225 C3224 1.332 . S
C3225 H3283 0.929 . S
C3226 C3222 1.527 . S
C3226 H3284 0.959 . S
C3226 H3285 0.961 . S
C3226 H3286 0.961 . S
C3227 C3224 1.496 . S
C3227 H3287 0.960 . S
C3227 H3288 0.960 . S
C3227 H3289 0.961 . S
C3228 C3229 1.517 . S
C3228 H3291 0.961 . S
C3228 H3292 0.960 . S
C3228 H3293 0.959 . S
C3229 C3228 1.517 . S
C3229 O3277 1.468 . S
C3229 H3290 0.980 . S
C3230 C3231 1.349 . S
C3230 C3235 1.367 . S
C3230 O3277 1.408 . S
C3231 C3230 1.349 . S
C3231 C3232 1.407 . S
C3231 H3294 0.930 . S
C3232 C3231 1.407 . S
C3232 C3233 1.449 . S
C3232 C3236 1.535 . S
C3233 C3232 1.449 . S
C3233 C3234 1.384 . S
C3233 C3258 1.553 . S
C3234 C3233 1.384 . S
C3234 C3235 1.364 . S
C3234 C3237 1.450 . S
C3235 C3230 1.367 . S
C3235 C3234 1.364 . S
C3235 H3295 0.931 . S
C3236 C3232 1.535 . S
C3236 H3296 0.959 . S
C3236 H3297 0.961 . S
C3236 H3298 0.959 . S
C3237 C3234 1.450 . S
C3237 H3299 0.960 . S
C3237 H3300 0.960 . S
C3237 H3301 0.960 . S
C3238 C3239 1.309 . S
C3238 C3243 1.304 . S
C3238 O3276 1.435 . S
C3239 C3238 1.309 . S
C3239 C3240 1.476 . S
C3239 H3303 0.930 . S
C3240 C3239 1.476 . S
C3240 C3241 1.400 . S
C3240 C3244 1.567 . S
C3241 C3240 1.400 . S
C3241 C3242 1.373 . S
C3241 C3263 1.432 . S
C3242 C3241 1.373 . S
C3242 C3243 1.339 . S
C3242 C3245 1.530 . S
C3243 C3238 1.304 . S
C3243 C3242 1.339 . S
C3243 H3304 0.930 . S
C3244 C3240 1.567 . S
C3244 H3305 0.961 . S
C3244 H3306 0.960 . S
C3244 H3307 0.958 . S
C3245 C3242 1.530 . S
C3245 H3308 0.961 . S
C3245 H3309 0.960 . S
C3245 H3310 0.960 . S
C3246 C3247 1.530 . S
C3246 H3312 0.961 . S
C3246 H3313 0.961 . S
C3246 H3314 0.959 . S
C3247 C3246 1.530 . S
C3247 O3275 1.412 . S
C3247 H3311 0.980 . S
C3248 C3249 1.288 . S
C3248 C3253 1.377 . S
C3248 O3275 1.393 . S
C3249 C3248 1.288 . S
C3249 C3250 1.369 . S
C3249 H3315 0.932 . S
C3250 C3249 1.369 . S
C3250 C3251 1.398 . S
C3250 C3254 1.527 . S
C3251 C3250 1.398 . S
C3251 C3252 1.380 . S
C3251 C3265 1.497 . S
C3252 C3251 1.380 . S
C3252 C3253 1.383 . S
C3252 C3255 1.603 . S
C3253 C3248 1.377 . S
C3253 C3252 1.383 . S
C3253 H3316 0.929 . S
C3254 C3250 1.527 . S
C3254 H3317 0.961 . S
C3254 H3318 0.959 . S
C3254 H3319 0.959 . S
C3255 C3252 1.603 . S
C3255 H3320 0.960 . S
C3255 H3321 0.962 . S
C3255 H3322 0.961 . S
C3256 C3223 1.587 . S
C3256 C3257 1.360 . S
C3256 C3269 1.412 . S
C3257 C3256 1.360 . S
C3257 C3258 1.365 . S
C3257 H3323 0.929 . S
C3258 C3233 1.553 . S
C3258 C3257 1.365 . S
C3258 C3259 1.404 . S
C3259 C3258 1.404 . S
C3259 C3260 1.395 . S
C3259 C3270 1.451 . S
C3260 C3259 1.395 . S
C3260 C3261 1.322 . S
C3260 H3324 0.930 . S
C3261 C3260 1.322 . S
C3261 C3262 1.459 . S
C3261 H3325 0.929 . S
C3262 C3261 1.459 . S
C3262 C3263 1.445 . S
C3262 C3271 1.395 . S
C3263 C3241 1.432 . S
C3263 C3262 1.445 . S
C3263 C3264 1.370 . S
C3264 C3263 1.370 . S
C3264 C3265 1.438 . S
C3264 H3326 0.930 . S
C3265 C3251 1.497 . S
C3265 C3264 1.438 . S
C3265 C3266 1.360 . S
C3266 C3265 1.360 . S
C3266 C3267 1.401 . S
C3266 C3271 1.446 . S
C3267 C3266 1.401 . S
C3267 C3268 1.347 . S
C3267 H3327 0.929 . S
C3268 C3267 1.347 . S
C3268 C3269 1.455 . S
C3268 H3328 0.930 . S
C3269 C3256 1.412 . S
C3269 C3268 1.455 . S
C3269 C3270 1.331 . S
C3270 C3259 1.451 . S
C3270 C3269 1.331 . S
C3270 C3271 1.497 . S
C3271 C3262 1.395 . S
C3271 C3266 1.446 . S
C3271 C3270 1.497 . S
C3272 C3273 1.582 . S
C3272 H3329 0.962 . S
C3272 H3330 0.959 . S
C3272 H3331 0.958 . S
C3273 C3272 1.582 . S
C3273 O3276 1.458 . S
C3273 H3302 0.980 . S
O3274 C3219 1.426 . S
O3274 C3220 1.334 . S
O3275 C3247 1.412 . S
O3275 C3248 1.393 . S
O3276 C3238 1.435 . S
O3276 C3273 1.458 . S
O3277 C3229 1.468 . S
O3277 C3230 1.408 . S
H3278 C3219 0.980 . S
H3279 C3218 0.959 . S
H3280 C3218 0.959 . S
H3281 C3218 0.960 . S
H3282 C3221 0.929 . S
H3283 C3225 0.929 . S
H3284 C3226 0.959 . S
H3285 C3226 0.961 . S
H3286 C3226 0.961 . S
H3287 C3227 0.960 . S
H3288 C3227 0.960 . S
H3289 C3227 0.961 . S
H3290 C3229 0.980 . S
H3291 C3228 0.961 . S
H3292 C3228 0.960 . S
H3293 C3228 0.959 . S
H3294 C3231 0.930 . S
H3295 C3235 0.931 . S
H3296 C3236 0.959 . S
H3297 C3236 0.961 . S
H3298 C3236 0.959 . S
H3299 C3237 0.960 . S
H3300 C3237 0.960 . S
H3301 C3237 0.960 . S
H3302 C3273 0.980 . S
H3303 C3239 0.930 . S
H3304 C3243 0.930 . S
H3305 C3244 0.961 . S
H3306 C3244 0.960 . S
H3307 C3244 0.958 . S
H3308 C3245 0.961 . S
H3309 C3245 0.960 . S
H3310 C3245 0.960 . S
H3311 C3247 0.980 . S
H3312 C3246 0.961 . S
H3313 C3246 0.961 . S
H3314 C3246 0.959 . S
H3315 C3249 0.932 . S
H3316 C3253 0.929 . S
H3317 C3254 0.961 . S
H3318 C3254 0.959 . S
H3319 C3254 0.959 . S
H3320 C3255 0.960 . S
H3321 C3255 0.962 . S
H3322 C3255 0.961 . S
H3323 C3257 0.929 . S
H3324 C3260 0.930 . S
H3325 C3261 0.929 . S
H3326 C3264 0.930 . S
H3327 C3267 0.929 . S
H3328 C3268 0.930 . S
H3329 C3272 0.962 . S
H3330 C3272 0.959 . S
H3331 C3272 0.958 . S
C3332 C3333 1.560 . S
C3332 H3393 0.959 . S
C3332 H3394 0.959 . S
C3332 H3395 0.960 . S
C3333 C3332 1.560 . S
C3333 O3388 1.426 . S
C3333 H3392 0.980 . S
C3334 C3335 1.407 . S
C3334 C3339 1.418 . S
C3334 O3388 1.334 . S
C3335 C3334 1.407 . S
C3335 C3336 1.360 . S
C3335 H3396 0.929 . S
C3336 C3335 1.360 . S
C3336 C3337 1.401 . S
C3336 C3340 1.527 . S
C3337 C3336 1.401 . S
C3337 C3338 1.405 . S
C3337 C3370 1.587 . S
C3338 C3337 1.405 . S
C3338 C3339 1.332 . S
C3338 C3341 1.496 . S
C3339 C3334 1.418 . S
C3339 C3338 1.332 . S
C3339 H3397 0.929 . S
C3340 C3336 1.527 . S
C3340 H3398 0.959 . S
C3340 H3399 0.961 . S
C3340 H3400 0.961 . S
C3341 C3338 1.496 . S
C3341 H3401 0.960 . S
C3341 H3402 0.960 . S
C3341 H3403 0.961 . S
C3342 C3343 1.517 . S
C3342 H3405 0.961 . S
C3342 H3406 0.960 . S
C3342 H3407 0.959 . S
C3343 C3342 1.517 . S
C3343 O3391 1.468 . S
C3343 H3404 0.980 . S
C3344 C3345 1.349 . S
C3344 C3349 1.367 . S
C3344 O3391 1.408 . S
C3345 C3344 1.349 . S
C3345 C3346 1.407 . S
C3345 H3408 0.930 . S
C3346 C3345 1.407 . S
C3346 C3347 1.449 . S
C3346 C3350 1.535 . S
C3347 C3346 1.449 . S
C3347 C3348 1.384 . S
C3347 C3372 1.553 . S
C3348 C3347 1.384 . S
C3348 C3349 1.364 . S
C3348 C3351 1.450 . S
C3349 C3344 1.367 . S
C3349 C3348 1.364 . S
C3349 H3409 0.931 . S
C3350 C3346 1.535 . S
C3350 H3410 0.959 . S
C3350 H3411 0.961 . S
C3350 H3412 0.959 . S
C3351 C3348 1.450 . S
C3351 H3413 0.960 . S
C3351 H3414 0.960 . S
C3351 H3415 0.960 . S
C3352 C3353 1.309 . S
C3352 C3357 1.304 . S
C3352 O3390 1.435 . S
C3353 C3352 1.309 . S
C3353 C3354 1.476 . S
C3353 H3417 0.930 . S
C3354 C3353 1.476 . S
C3354 C3355 1.400 . S
C3354 C3358 1.567 . S
C3355 C3354 1.400 . S
C3355 C3356 1.373 . S
C3355 C3377 1.432 . S
C3356 C3355 1.373 . S
C3356 C3357 1.339 . S
C3356 C3359 1.530 . S
C3357 C3352 1.304 . S
C3357 C3356 1.339 . S
C3357 H3418 0.930 . S
C3358 C3354 1.567 . S
C3358 H3419 0.961 . S
C3358 H3420 0.960 . S
C3358 H3421 0.958 . S
C3359 C3356 1.530 . S
C3359 H3422 0.961 . S
C3359 H3423 0.960 . S
C3359 H3424 0.960 . S
C3360 C3361 1.530 . S
C3360 H3426 0.961 . S
C3360 H3427 0.961 . S
C3360 H3428 0.959 . S
C3361 C3360 1.530 . S
C3361 O3389 1.412 . S
C3361 H3425 0.980 . S
C3362 C3363 1.288 . S
C3362 C3367 1.377 . S
C3362 O3389 1.393 . S
C3363 C3362 1.288 . S
C3363 C3364 1.369 . S
C3363 H3429 0.932 . S
C3364 C3363 1.369 . S
C3364 C3365 1.398 . S
C3364 C3368 1.527 . S
C3365 C3364 1.398 . S
C3365 C3366 1.380 . S
C3365 C3379 1.497 . S
C3366 C3365 1.380 . S
C3366 C3367 1.383 . S
C3366 C3369 1.603 . S
C3367 C3362 1.377 . S
C3367 C3366 1.383 . S
C3367 H3430 0.929 . S
C3368 C3364 1.527 . S
C3368 H3431 0.961 . S
C3368 H3432 0.959 . S
C3368 H3433 0.959 . S
C3369 C3366 1.603 . S
C3369 H3434 0.960 . S
C3369 H3435 0.962 . S
C3369 H3436 0.961 . S
C3370 C3337 1.587 . S
C3370 C3371 1.360 . S
C3370 C3383 1.412 . S
C3371 C3370 1.360 . S
C3371 C3372 1.365 . S
C3371 H3437 0.929 . S
C3372 C3347 1.553 . S
C3372 C3371 1.365 . S
C3372 C3373 1.404 . S
C3373 C3372 1.404 . S
C3373 C3374 1.395 . S
C3373 C3384 1.451 . S
C3374 C3373 1.395 . S
C3374 C3375 1.322 . S
C3374 H3438 0.930 . S
C3375 C3374 1.322 . S
C3375 C3376 1.459 . S
C3375 H3439 0.929 . S
C3376 C3375 1.459 . S
C3376 C3377 1.445 . S
C3376 C3385 1.395 . S
C3377 C3355 1.432 . S
C3377 C3376 1.445 . S
C3377 C3378 1.370 . S
C3378 C3377 1.370 . S
C3378 C3379 1.438 . S
C3378 H3440 0.930 . S
C3379 C3365 1.497 . S
C3379 C3378 1.438 . S
C3379 C3380 1.360 . S
C3380 C3379 1.360 . S
C3380 C3381 1.401 . S
C3380 C3385 1.446 . S
C3381 C3380 1.401 . S
C3381 C3382 1.347 . S
C3381 H3441 0.929 . S
C3382 C3381 1.347 . S
C3382 C3383 1.455 . S
C3382 H3442 0.930 . S
C3383 C3370 1.412 . S
C3383 C3382 1.455 . S
C3383 C3384 1.331 . S
C3384 C3373 1.451 . S
C3384 C3383 1.331 . S
C3384 C3385 1.497 . S
C3385 C3376 1.395 . S
C3385 C3380 1.446 . S
C3385 C3384 1.497 . S
C3386 C3387 1.582 . S
C3386 H3443 0.962 . S
C3386 H3444 0.959 . S
C3386 H3445 0.958 . S
C3387 C3386 1.582 . S
C3387 O3390 1.458 . S
C3387 H3416 0.980 . S
O3388 C3333 1.426 . S
O3388 C3334 1.334 . S
O3389 C3361 1.412 . S
O3389 C3362 1.393 . S
O3390 C3352 1.435 . S
O3390 C3387 1.458 . S
O3391 C3343 1.468 . S
O3391 C3344 1.408 . S
H3392 C3333 0.980 . S
H3393 C3332 0.959 . S
H3394 C3332 0.959 . S
H3395 C3332 0.960 . S
H3396 C3335 0.929 . S
H3397 C3339 0.929 . S
H3398 C3340 0.959 . S
H3399 C3340 0.961 . S
H3400 C3340 0.961 . S
H3401 C3341 0.960 . S
H3402 C3341 0.960 . S
H3403 C3341 0.961 . S
H3404 C3343 0.980 . S
H3405 C3342 0.961 . S
H3406 C3342 0.960 . S
H3407 C3342 0.959 . S
H3408 C3345 0.930 . S
H3409 C3349 0.931 . S
H3410 C3350 0.959 . S
H3411 C3350 0.961 . S
H3412 C3350 0.959 . S
H3413 C3351 0.960 . S
H3414 C3351 0.960 . S
H3415 C3351 0.960 . S
H3416 C3387 0.980 . S
H3417 C3353 0.930 . S
H3418 C3357 0.930 . S
H3419 C3358 0.961 . S
H3420 C3358 0.960 . S
H3421 C3358 0.958 . S
H3422 C3359 0.961 . S
H3423 C3359 0.960 . S
H3424 C3359 0.960 . S
H3425 C3361 0.980 . S
H3426 C3360 0.961 . S
H3427 C3360 0.961 . S
H3428 C3360 0.959 . S
H3429 C3363 0.932 . S
H3430 C3367 0.929 . S
H3431 C3368 0.961 . S
H3432 C3368 0.959 . S
H3433 C3368 0.959 . S
H3434 C3369 0.960 . S
H3435 C3369 0.962 . S
H3436 C3369 0.961 . S
H3437 C3371 0.929 . S
H3438 C3374 0.930 . S
H3439 C3375 0.929 . S
H3440 C3378 0.930 . S
H3441 C3381 0.929 . S
H3442 C3382 0.930 . S
H3443 C3386 0.962 . S
H3444 C3386 0.959 . S
H3445 C3386 0.958 . S
C3446 C3447 1.560 . S
C3446 H3507 0.959 . S
C3446 H3508 0.959 . S
C3446 H3509 0.960 . S
C3447 C3446 1.560 . S
C3447 O3502 1.426 . S
C3447 H3506 0.980 . S
C3448 C3449 1.407 . S
C3448 C3453 1.418 . S
C3448 O3502 1.334 . S
C3449 C3448 1.407 . S
C3449 C3450 1.360 . S
C3449 H3510 0.929 . S
C3450 C3449 1.360 . S
C3450 C3451 1.401 . S
C3450 C3454 1.527 . S
C3451 C3450 1.401 . S
C3451 C3452 1.405 . S
C3451 C3484 1.587 . S
C3452 C3451 1.405 . S
C3452 C3453 1.332 . S
C3452 C3455 1.496 . S
C3453 C3448 1.418 . S
C3453 C3452 1.332 . S
C3453 H3511 0.929 . S
C3454 C3450 1.527 . S
C3454 H3512 0.959 . S
C3454 H3513 0.961 . S
C3454 H3514 0.961 . S
C3455 C3452 1.496 . S
C3455 H3515 0.960 . S
C3455 H3516 0.960 . S
C3455 H3517 0.961 . S
C3456 C3457 1.517 . S
C3456 H3519 0.961 . S
C3456 H3520 0.960 . S
C3456 H3521 0.959 . S
C3457 C3456 1.517 . S
C3457 O3505 1.468 . S
C3457 H3518 0.980 . S
C3458 C3459 1.349 . S
C3458 C3463 1.367 . S
C3458 O3505 1.408 . S
C3459 C3458 1.349 . S
C3459 C3460 1.407 . S
C3459 H3522 0.930 . S
C3460 C3459 1.407 . S
C3460 C3461 1.449 . S
C3460 C3464 1.535 . S
C3461 C3460 1.449 . S
C3461 C3462 1.384 . S
C3461 C3486 1.553 . S
C3462 C3461 1.384 . S
C3462 C3463 1.364 . S
C3462 C3465 1.450 . S
C3463 C3458 1.367 . S
C3463 C3462 1.364 . S
C3463 H3523 0.931 . S
C3464 C3460 1.535 . S
C3464 H3524 0.959 . S
C3464 H3525 0.961 . S
C3464 H3526 0.959 . S
C3465 C3462 1.450 . S
C3465 H3527 0.960 . S
C3465 H3528 0.960 . S
C3465 H3529 0.960 . S
C3466 C3467 1.309 . S
C3466 C3471 1.304 . S
C3466 O3504 1.435 . S
C3467 C3466 1.309 . S
C3467 C3468 1.476 . S
C3467 H3531 0.930 . S
C3468 C3467 1.476 . S
C3468 C3469 1.400 . S
C3468 C3472 1.567 . S
C3469 C3468 1.400 . S
C3469 C3470 1.373 . S
C3469 C3491 1.432 . S
C3470 C3469 1.373 . S
C3470 C3471 1.339 . S
C3470 C3473 1.530 . S
C3471 C3466 1.304 . S
C3471 C3470 1.339 . S
C3471 H3532 0.930 . S
C3472 C3468 1.567 . S
C3472 H3533 0.961 . S
C3472 H3534 0.960 . S
C3472 H3535 0.958 . S
C3473 C3470 1.530 . S
C3473 H3536 0.961 . S
C3473 H3537 0.960 . S
C3473 H3538 0.960 . S
C3474 C3475 1.530 . S
C3474 H3540 0.961 . S
C3474 H3541 0.961 . S
C3474 H3542 0.959 . S
C3475 C3474 1.530 . S
C3475 O3503 1.412 . S
C3475 H3539 0.980 . S
C3476 C3477 1.288 . S
C3476 C3481 1.377 . S
C3476 O3503 1.393 . S
C3477 C3476 1.288 . S
C3477 C3478 1.369 . S
C3477 H3543 0.932 . S
C3478 C3477 1.369 . S
C3478 C3479 1.398 . S
C3478 C3482 1.527 . S
C3479 C3478 1.398 . S
C3479 C3480 1.380 . S
C3479 C3493 1.497 . S
C3480 C3479 1.380 . S
C3480 C3481 1.383 . S
C3480 C3483 1.603 . S
C3481 C3476 1.377 . S
C3481 C3480 1.383 . S
C3481 H3544 0.929 . S
C3482 C3478 1.527 . S
C3482 H3545 0.961 . S
C3482 H3546 0.959 . S
C3482 H3547 0.959 . S
C3483 C3480 1.603 . S
C3483 H3548 0.960 . S
C3483 H3549 0.962 . S
C3483 H3550 0.961 . S
C3484 C3451 1.587 . S
C3484 C3485 1.360 . S
C3484 C3497 1.412 . S
C3485 C3484 1.360 . S
C3485 C3486 1.365 . S
C3485 H3551 0.929 . S
C3486 C3461 1.553 . S
C3486 C3485 1.365 . S
C3486 C3487 1.404 . S
C3487 C3486 1.404 . S
C3487 C3488 1.395 . S
C3487 C3498 1.451 . S
C3488 C3487 1.395 . S
C3488 C3489 1.322 . S
C3488 H3552 0.930 . S
C3489 C3488 1.322 . S
C3489 C3490 1.459 . S
C3489 H3553 0.929 . S
C3490 C3489 1.459 . S
C3490 C3491 1.445 . S
C3490 C3499 1.395 . S
C3491 C3469 1.432 . S
C3491 C3490 1.445 . S
C3491 C3492 1.370 . S
C3492 C3491 1.370 . S
C3492 C3493 1.438 . S
C3492 H3554 0.930 . S
C3493 C3479 1.497 . S
C3493 C3492 1.438 . S
C3493 C3494 1.360 . S
C3494 C3493 1.360 . S
C3494 C3495 1.401 . S
C3494 C3499 1.446 . S
C3495 C3494 1.401 . S
C3495 C3496 1.347 . S
C3495 H3555 0.929 . S
C3496 C3495 1.347 . S
C3496 C3497 1.455 . S
C3496 H3556 0.930 . S
C3497 C3484 1.412 . S
C3497 C3496 1.455 . S
C3497 C3498 1.331 . S
C3498 C3487 1.451 . S
C3498 C3497 1.331 . S
C3498 C3499 1.497 . S
C3499 C3490 1.395 . S
C3499 C3494 1.446 . S
C3499 C3498 1.497 . S
C3500 C3501 1.582 . S
C3500 H3557 0.962 . S
C3500 H3558 0.959 . S
C3500 H3559 0.958 . S
C3501 C3500 1.582 . S
C3501 O3504 1.458 . S
C3501 H3530 0.980 . S
O3502 C3447 1.426 . S
O3502 C3448 1.334 . S
O3503 C3475 1.412 . S
O3503 C3476 1.393 . S
O3504 C3466 1.435 . S
O3504 C3501 1.458 . S
O3505 C3457 1.468 . S
O3505 C3458 1.408 . S
H3506 C3447 0.980 . S
H3507 C3446 0.959 . S
H3508 C3446 0.959 . S
H3509 C3446 0.960 . S
H3510 C3449 0.929 . S
H3511 C3453 0.929 . S
H3512 C3454 0.959 . S
H3513 C3454 0.961 . S
H3514 C3454 0.961 . S
H3515 C3455 0.960 . S
H3516 C3455 0.960 . S
H3517 C3455 0.961 . S
H3518 C3457 0.980 . S
H3519 C3456 0.961 . S
H3520 C3456 0.960 . S
H3521 C3456 0.959 . S
H3522 C3459 0.930 . S
H3523 C3463 0.931 . S
H3524 C3464 0.959 . S
H3525 C3464 0.961 . S
H3526 C3464 0.959 . S
H3527 C3465 0.960 . S
H3528 C3465 0.960 . S
H3529 C3465 0.960 . S
H3530 C3501 0.980 . S
H3531 C3467 0.930 . S
H3532 C3471 0.930 . S
H3533 C3472 0.961 . S
H3534 C3472 0.960 . S
H3535 C3472 0.958 . S
H3536 C3473 0.961 . S
H3537 C3473 0.960 . S
H3538 C3473 0.960 . S
H3539 C3475 0.980 . S
H3540 C3474 0.961 . S
H3541 C3474 0.961 . S
H3542 C3474 0.959 . S
H3543 C3477 0.932 . S
H3544 C3481 0.929 . S
H3545 C3482 0.961 . S
H3546 C3482 0.959 . S
H3547 C3482 0.959 . S
H3548 C3483 0.960 . S
H3549 C3483 0.962 . S
H3550 C3483 0.961 . S
H3551 C3485 0.929 . S
H3552 C3488 0.930 . S
H3553 C3489 0.929 . S
H3554 C3492 0.930 . S
H3555 C3495 0.929 . S
H3556 C3496 0.930 . S
H3557 C3500 0.962 . S
H3558 C3500 0.959 . S
H3559 C3500 0.958 . S
C3560 C3561 1.560 . S
C3560 H3621 0.959 . S
C3560 H3622 0.959 . S
C3560 H3623 0.960 . S
C3561 C3560 1.560 . S
C3561 O3616 1.426 . S
C3561 H3620 0.980 . S
C3562 C3563 1.407 . S
C3562 C3567 1.418 . S
C3562 O3616 1.334 . S
C3563 C3562 1.407 . S
C3563 C3564 1.360 . S
C3563 H3624 0.929 . S
C3564 C3563 1.360 . S
C3564 C3565 1.401 . S
C3564 C3568 1.527 . S
C3565 C3564 1.401 . S
C3565 C3566 1.405 . S
C3565 C3598 1.587 . S
C3566 C3565 1.405 . S
C3566 C3567 1.332 . S
C3566 C3569 1.496 . S
C3567 C3562 1.418 . S
C3567 C3566 1.332 . S
C3567 H3625 0.929 . S
C3568 C3564 1.527 . S
C3568 H3626 0.959 . S
C3568 H3627 0.961 . S
C3568 H3628 0.961 . S
C3569 C3566 1.496 . S
C3569 H3629 0.960 . S
C3569 H3630 0.960 . S
C3569 H3631 0.961 . S
C3570 C3571 1.517 . S
C3570 H3633 0.961 . S
C3570 H3634 0.960 . S
C3570 H3635 0.959 . S
C3571 C3570 1.517 . S
C3571 O3619 1.468 . S
C3571 H3632 0.980 . S
C3572 C3573 1.349 . S
C3572 C3577 1.367 . S
C3572 O3619 1.408 . S
C3573 C3572 1.349 . S
C3573 C3574 1.407 . S
C3573 H3636 0.930 . S
C3574 C3573 1.407 . S
C3574 C3575 1.449 . S
C3574 C3578 1.535 . S
C3575 C3574 1.449 . S
C3575 C3576 1.384 . S
C3575 C3600 1.553 . S
C3576 C3575 1.384 . S
C3576 C3577 1.364 . S
C3576 C3579 1.450 . S
C3577 C3572 1.367 . S
C3577 C3576 1.364 . S
C3577 H3637 0.931 . S
C3578 C3574 1.535 . S
C3578 H3638 0.959 . S
C3578 H3639 0.961 . S
C3578 H3640 0.959 . S
C3579 C3576 1.450 . S
C3579 H3641 0.960 . S
C3579 H3642 0.960 . S
C3579 H3643 0.960 . S
C3580 C3581 1.309 . S
C3580 C3585 1.304 . S
C3580 O3618 1.435 . S
C3581 C3580 1.309 . S
C3581 C3582 1.476 . S
C3581 H3645 0.930 . S
C3582 C3581 1.476 . S
C3582 C3583 1.400 . S
C3582 C3586 1.567 . S
C3583 C3582 1.400 . S
C3583 C3584 1.373 . S
C3583 C3605 1.432 . S
C3584 C3583 1.373 . S
C3584 C3585 1.339 . S
C3584 C3587 1.530 . S
C3585 C3580 1.304 . S
C3585 C3584 1.339 . S
C3585 H3646 0.930 . S
C3586 C3582 1.567 . S
C3586 H3647 0.961 . S
C3586 H3648 0.960 . S
C3586 H3649 0.958 . S
C3587 C3584 1.530 . S
C3587 H3650 0.961 . S
C3587 H3651 0.960 . S
C3587 H3652 0.960 . S
C3588 C3589 1.530 . S
C3588 H3654 0.961 . S
C3588 H3655 0.961 . S
C3588 H3656 0.959 . S
C3589 C3588 1.530 . S
C3589 O3617 1.412 . S
C3589 H3653 0.980 . S
C3590 C3591 1.288 . S
C3590 C3595 1.377 . S
C3590 O3617 1.393 . S
C3591 C3590 1.288 . S
C3591 C3592 1.369 . S
C3591 H3657 0.932 . S
C3592 C3591 1.369 . S
C3592 C3593 1.398 . S
C3592 C3596 1.527 . S
C3593 C3592 1.398 . S
C3593 C3594 1.380 . S
C3593 C3607 1.497 . S
C3594 C3593 1.380 . S
C3594 C3595 1.383 . S
C3594 C3597 1.603 . S
C3595 C3590 1.377 . S
C3595 C3594 1.383 . S
C3595 H3658 0.929 . S
C3596 C3592 1.527 . S
C3596 H3659 0.961 . S
C3596 H3660 0.959 . S
C3596 H3661 0.959 . S
C3597 C3594 1.603 . S
C3597 H3662 0.960 . S
C3597 H3663 0.962 . S
C3597 H3664 0.961 . S
C3598 C3565 1.587 . S
C3598 C3599 1.360 . S
C3598 C3611 1.412 . S
C3599 C3598 1.360 . S
C3599 C3600 1.365 . S
C3599 H3665 0.929 . S
C3600 C3575 1.553 . S
C3600 C3599 1.365 . S
C3600 C3601 1.404 . S
C3601 C3600 1.404 . S
C3601 C3602 1.395 . S
C3601 C3612 1.451 . S
C3602 C3601 1.395 . S
C3602 C3603 1.322 . S
C3602 H3666 0.930 . S
C3603 C3602 1.322 . S
C3603 C3604 1.459 . S
C3603 H3667 0.929 . S
C3604 C3603 1.459 . S
C3604 C3605 1.445 . S
C3604 C3613 1.395 . S
C3605 C3583 1.432 . S
C3605 C3604 1.445 . S
C3605 C3606 1.370 . S
C3606 C3605 1.370 . S
C3606 C3607 1.438 . S
C3606 H3668 0.930 . S
C3607 C3593 1.497 . S
C3607 C3606 1.438 . S
C3607 C3608 1.360 . S
C3608 C3607 1.360 . S
C3608 C3609 1.401 . S
C3608 C3613 1.446 . S
C3609 C3608 1.401 . S
C3609 C3610 1.347 . S
C3609 H3669 0.929 . S
C3610 C3609 1.347 . S
C3610 C3611 1.455 . S
C3610 H3670 0.930 . S
C3611 C3598 1.412 . S
C3611 C3610 1.455 . S
C3611 C3612 1.331 . S
C3612 C3601 1.451 . S
C3612 C3611 1.331 . S
C3612 C3613 1.497 . S
C3613 C3604 1.395 . S
C3613 C3608 1.446 . S
C3613 C3612 1.497 . S
C3614 C3615 1.582 . S
C3614 H3671 0.962 . S
C3614 H3672 0.959 . S
C3614 H3673 0.958 . S
C3615 C3614 1.582 . S
C3615 O3618 1.458 . S
C3615 H3644 0.980 . S
O3616 C3561 1.426 . S
O3616 C3562 1.334 . S
O3617 C3589 1.412 . S
O3617 C3590 1.393 . S
O3618 C3580 1.435 . S
O3618 C3615 1.458 . S
O3619 C3571 1.468 . S
O3619 C3572 1.408 . S
H3620 C3561 0.980 . S
H3621 C3560 0.959 . S
H3622 C3560 0.959 . S
H3623 C3560 0.960 . S
H3624 C3563 0.929 . S
H3625 C3567 0.929 . S
H3626 C3568 0.959 . S
H3627 C3568 0.961 . S
H3628 C3568 0.961 . S
H3629 C3569 0.960 . S
H3630 C3569 0.960 . S
H3631 C3569 0.961 . S
H3632 C3571 0.980 . S
H3633 C3570 0.961 . S
H3634 C3570 0.960 . S
H3635 C3570 0.959 . S
H3636 C3573 0.930 . S
H3637 C3577 0.931 . S
H3638 C3578 0.959 . S
H3639 C3578 0.961 . S
H3640 C3578 0.959 . S
H3641 C3579 0.960 . S
H3642 C3579 0.960 . S
H3643 C3579 0.960 . S
H3644 C3615 0.980 . S
H3645 C3581 0.930 . S
H3646 C3585 0.930 . S
H3647 C3586 0.961 . S
H3648 C3586 0.960 . S
H3649 C3586 0.958 . S
H3650 C3587 0.961 . S
H3651 C3587 0.960 . S
H3652 C3587 0.960 . S
H3653 C3589 0.980 . S
H3654 C3588 0.961 . S
H3655 C3588 0.961 . S
H3656 C3588 0.959 . S
H3657 C3591 0.932 . S
H3658 C3595 0.929 . S
H3659 C3596 0.961 . S
H3660 C3596 0.959 . S
H3661 C3596 0.959 . S
H3662 C3597 0.960 . S
H3663 C3597 0.962 . S
H3664 C3597 0.961 . S
H3665 C3599 0.929 . S
H3666 C3602 0.930 . S
H3667 C3603 0.929 . S
H3668 C3606 0.930 . S
H3669 C3609 0.929 . S
H3670 C3610 0.930 . S
H3671 C3614 0.962 . S
H3672 C3614 0.959 . S
H3673 C3614 0.958 . S
C3674 C3675 1.560 . S
C3674 H3735 0.959 . S
C3674 H3736 0.959 . S
C3674 H3737 0.960 . S
C3675 C3674 1.560 . S
C3675 O3730 1.426 . S
C3675 H3734 0.980 . S
C3676 C3677 1.407 . S
C3676 C3681 1.418 . S
C3676 O3730 1.334 . S
C3677 C3676 1.407 . S
C3677 C3678 1.360 . S
C3677 H3738 0.929 . S
C3678 C3677 1.360 . S
C3678 C3679 1.401 . S
C3678 C3682 1.527 . S
C3679 C3678 1.401 . S
C3679 C3680 1.405 . S
C3679 C3712 1.587 . S
C3680 C3679 1.405 . S
C3680 C3681 1.332 . S
C3680 C3683 1.496 . S
C3681 C3676 1.418 . S
C3681 C3680 1.332 . S
C3681 H3739 0.929 . S
C3682 C3678 1.527 . S
C3682 H3740 0.959 . S
C3682 H3741 0.961 . S
C3682 H3742 0.961 . S
C3683 C3680 1.496 . S
C3683 H3743 0.960 . S
C3683 H3744 0.960 . S
C3683 H3745 0.961 . S
C3684 C3685 1.517 . S
C3684 H3747 0.961 . S
C3684 H3748 0.960 . S
C3684 H3749 0.959 . S
C3685 C3684 1.517 . S
C3685 O3733 1.468 . S
C3685 H3746 0.980 . S
C3686 C3687 1.349 . S
C3686 C3691 1.367 . S
C3686 O3733 1.408 . S
C3687 C3686 1.349 . S
C3687 C3688 1.407 . S
C3687 H3750 0.930 . S
C3688 C3687 1.407 . S
C3688 C3689 1.449 . S
C3688 C3692 1.535 . S
C3689 C3688 1.449 . S
C3689 C3690 1.384 . S
C3689 C3714 1.553 . S
C3690 C3689 1.384 . S
C3690 C3691 1.364 . S
C3690 C3693 1.450 . S
C3691 C3686 1.367 . S
C3691 C3690 1.364 . S
C3691 H3751 0.931 . S
C3692 C3688 1.535 . S
C3692 H3752 0.959 . S
C3692 H3753 0.961 . S
C3692 H3754 0.959 . S
C3693 C3690 1.450 . S
C3693 H3755 0.960 . S
C3693 H3756 0.960 . S
C3693 H3757 0.960 . S
C3694 C3695 1.309 . S
C3694 C3699 1.304 . S
C3694 O3732 1.435 . S
C3695 C3694 1.309 . S
C3695 C3696 1.476 . S
C3695 H3759 0.930 . S
C3696 C3695 1.476 . S
C3696 C3697 1.400 . S
C3696 C3700 1.567 . S
C3697 C3696 1.400 . S
C3697 C3698 1.373 . S
C3697 C3719 1.432 . S
C3698 C3697 1.373 . S
C3698 C3699 1.339 . S
C3698 C3701 1.530 . S
C3699 C3694 1.304 . S
C3699 C3698 1.339 . S
C3699 H3760 0.930 . S
C3700 C3696 1.567 . S
C3700 H3761 0.961 . S
C3700 H3762 0.960 . S
C3700 H3763 0.958 . S
C3701 C3698 1.530 . S
C3701 H3764 0.961 . S
C3701 H3765 0.960 . S
C3701 H3766 0.960 . S
C3702 C3703 1.530 . S
C3702 H3768 0.961 . S
C3702 H3769 0.961 . S
C3702 H3770 0.959 . S
C3703 C3702 1.530 . S
C3703 O3731 1.412 . S
C3703 H3767 0.980 . S
C3704 C3705 1.288 . S
C3704 C3709 1.377 . S
C3704 O3731 1.393 . S
C3705 C3704 1.288 . S
C3705 C3706 1.369 . S
C3705 H3771 0.932 . S
C3706 C3705 1.369 . S
C3706 C3707 1.398 . S
C3706 C3710 1.527 . S
C3707 C3706 1.398 . S
C3707 C3708 1.380 . S
C3707 C3721 1.497 . S
C3708 C3707 1.380 . S
C3708 C3709 1.383 . S
C3708 C3711 1.603 . S
C3709 C3704 1.377 . S
C3709 C3708 1.383 . S
C3709 H3772 0.929 . S
C3710 C3706 1.527 . S
C3710 H3773 0.961 . S
C3710 H3774 0.959 . S
C3710 H3775 0.959 . S
C3711 C3708 1.603 . S
C3711 H3776 0.960 . S
C3711 H3777 0.962 . S
C3711 H3778 0.961 . S
C3712 C3679 1.587 . S
C3712 C3713 1.360 . S
C3712 C3725 1.412 . S
C3713 C3712 1.360 . S
C3713 C3714 1.365 . S
C3713 H3779 0.929 . S
C3714 C3689 1.553 . S
C3714 C3713 1.365 . S
C3714 C3715 1.404 . S
C3715 C3714 1.404 . S
C3715 C3716 1.395 . S
C3715 C3726 1.451 . S
C3716 C3715 1.395 . S
C3716 C3717 1.322 . S
C3716 H3780 0.930 . S
C3717 C3716 1.322 . S
C3717 C3718 1.459 . S
C3717 H3781 0.929 . S
C3718 C3717 1.459 . S
C3718 C3719 1.445 . S
C3718 C3727 1.395 . S
C3719 C3697 1.432 . S
C3719 C3718 1.445 . S
C3719 C3720 1.370 . S
C3720 C3719 1.370 . S
C3720 C3721 1.438 . S
C3720 H3782 0.930 . S
C3721 C3707 1.497 . S
C3721 C3720 1.438 . S
C3721 C3722 1.360 . S
C3722 C3721 1.360 . S
C3722 C3723 1.401 . S
C3722 C3727 1.446 . S
C3723 C3722 1.401 . S
C3723 C3724 1.347 . S
C3723 H3783 0.929 . S
C3724 C3723 1.347 . S
C3724 C3725 1.455 . S
C3724 H3784 0.930 . S
C3725 C3712 1.412 . S
C3725 C3724 1.455 . S
C3725 C3726 1.331 . S
C3726 C3715 1.451 . S
C3726 C3725 1.331 . S
C3726 C3727 1.497 . S
C3727 C3718 1.395 . S
C3727 C3722 1.446 . S
C3727 C3726 1.497 . S
C3728 C3729 1.582 . S
C3728 H3785 0.962 . S
C3728 H3786 0.959 . S
C3728 H3787 0.958 . S
C3729 C3728 1.582 . S
C3729 O3732 1.458 . S
C3729 H3758 0.980 . S
O3730 C3675 1.426 . S
O3730 C3676 1.334 . S
O3731 C3703 1.412 . S
O3731 C3704 1.393 . S
O3732 C3694 1.435 . S
O3732 C3729 1.458 . S
O3733 C3685 1.468 . S
O3733 C3686 1.408 . S
H3734 C3675 0.980 . S
H3735 C3674 0.959 . S
H3736 C3674 0.959 . S
H3737 C3674 0.960 . S
H3738 C3677 0.929 . S
H3739 C3681 0.929 . S
H3740 C3682 0.959 . S
H3741 C3682 0.961 . S
H3742 C3682 0.961 . S
H3743 C3683 0.960 . S
H3744 C3683 0.960 . S
H3745 C3683 0.961 . S
H3746 C3685 0.980 . S
H3747 C3684 0.961 . S
H3748 C3684 0.960 . S
H3749 C3684 0.959 . S
H3750 C3687 0.930 . S
H3751 C3691 0.931 . S
H3752 C3692 0.959 . S
H3753 C3692 0.961 . S
H3754 C3692 0.959 . S
H3755 C3693 0.960 . S
H3756 C3693 0.960 . S
H3757 C3693 0.960 . S
H3758 C3729 0.980 . S
H3759 C3695 0.930 . S
H3760 C3699 0.930 . S
H3761 C3700 0.961 . S
H3762 C3700 0.960 . S
H3763 C3700 0.958 . S
H3764 C3701 0.961 . S
H3765 C3701 0.960 . S
H3766 C3701 0.960 . S
H3767 C3703 0.980 . S
H3768 C3702 0.961 . S
H3769 C3702 0.961 . S
H3770 C3702 0.959 . S
H3771 C3705 0.932 . S
H3772 C3709 0.929 . S
H3773 C3710 0.961 . S
H3774 C3710 0.959 . S
H3775 C3710 0.959 . S
H3776 C3711 0.960 . S
H3777 C3711 0.962 . S
H3778 C3711 0.961 . S
H3779 C3713 0.929 . S
H3780 C3716 0.930 . S
H3781 C3717 0.929 . S
H3782 C3720 0.930 . S
H3783 C3723 0.929 . S
H3784 C3724 0.930 . S
H3785 C3728 0.962 . S
H3786 C3728 0.959 . S
H3787 C3728 0.958 . S
C3788 C3789 1.560 . S
C3788 H3849 0.959 . S
C3788 H3850 0.959 . S
C3788 H3851 0.960 . S
C3789 C3788 1.560 . S
C3789 O3844 1.426 . S
C3789 H3848 0.980 . S
C3790 C3791 1.407 . S
C3790 C3795 1.418 . S
C3790 O3844 1.334 . S
C3791 C3790 1.407 . S
C3791 C3792 1.360 . S
C3791 H3852 0.929 . S
C3792 C3791 1.360 . S
C3792 C3793 1.401 . S
C3792 C3796 1.527 . S
C3793 C3792 1.401 . S
C3793 C3794 1.405 . S
C3793 C3826 1.587 . S
C3794 C3793 1.405 . S
C3794 C3795 1.332 . S
C3794 C3797 1.496 . S
C3795 C3790 1.418 . S
C3795 C3794 1.332 . S
C3795 H3853 0.929 . S
C3796 C3792 1.527 . S
C3796 H3854 0.959 . S
C3796 H3855 0.961 . S
C3796 H3856 0.961 . S
C3797 C3794 1.496 . S
C3797 H3857 0.960 . S
C3797 H3858 0.960 . S
C3797 H3859 0.961 . S
C3798 C3799 1.517 . S
C3798 H3861 0.961 . S
C3798 H3862 0.960 . S
C3798 H3863 0.959 . S
C3799 C3798 1.517 . S
C3799 O3847 1.468 . S
C3799 H3860 0.980 . S
C3800 C3801 1.349 . S
C3800 C3805 1.367 . S
C3800 O3847 1.408 . S
C3801 C3800 1.349 . S
C3801 C3802 1.407 . S
C3801 H3864 0.930 . S
C3802 C3801 1.407 . S
C3802 C3803 1.449 . S
C3802 C3806 1.535 . S
C3803 C3802 1.449 . S
C3803 C3804 1.384 . S
C3803 C3828 1.553 . S
C3804 C3803 1.384 . S
C3804 C3805 1.364 . S
C3804 C3807 1.450 . S
C3805 C3800 1.367 . S
C3805 C3804 1.364 . S
C3805 H3865 0.931 . S
C3806 C3802 1.535 . S
C3806 H3866 0.959 . S
C3806 H3867 0.961 . S
C3806 H3868 0.959 . S
C3807 C3804 1.450 . S
C3807 H3869 0.960 . S
C3807 H3870 0.960 . S
C3807 H3871 0.960 . S
C3808 C3809 1.309 . S
C3808 C3813 1.304 . S
C3808 O3846 1.435 . S
C3809 C3808 1.309 . S
C3809 C3810 1.476 . S
C3809 H3873 0.930 . S
C3810 C3809 1.476 . S
C3810 C3811 1.400 . S
C3810 C3814 1.567 . S
C3811 C3810 1.400 . S
C3811 C3812 1.373 . S
C3811 C3833 1.432 . S
C3812 C3811 1.373 . S
C3812 C3813 1.339 . S
C3812 C3815 1.530 . S
C3813 C3808 1.304 . S
C3813 C3812 1.339 . S
C3813 H3874 0.930 . S
C3814 C3810 1.567 . S
C3814 H3875 0.961 . S
C3814 H3876 0.960 . S
C3814 H3877 0.958 . S
C3815 C3812 1.530 . S
C3815 H3878 0.961 . S
C3815 H3879 0.960 . S
C3815 H3880 0.960 . S
C3816 C3817 1.530 . S
C3816 H3882 0.961 . S
C3816 H3883 0.961 . S
C3816 H3884 0.959 . S
C3817 C3816 1.530 . S
C3817 O3845 1.412 . S
C3817 H3881 0.980 . S
C3818 C3819 1.288 . S
C3818 C3823 1.377 . S
C3818 O3845 1.393 . S
C3819 C3818 1.288 . S
C3819 C3820 1.369 . S
C3819 H3885 0.932 . S
C3820 C3819 1.369 . S
C3820 C3821 1.398 . S
C3820 C3824 1.527 . S
C3821 C3820 1.398 . S
C3821 C3822 1.380 . S
C3821 C3835 1.497 . S
C3822 C3821 1.380 . S
C3822 C3823 1.383 . S
C3822 C3825 1.603 . S
C3823 C3818 1.377 . S
C3823 C3822 1.383 . S
C3823 H3886 0.929 . S
C3824 C3820 1.527 . S
C3824 H3887 0.961 . S
C3824 H3888 0.959 . S
C3824 H3889 0.959 . S
C3825 C3822 1.603 . S
C3825 H3890 0.960 . S
C3825 H3891 0.962 . S
C3825 H3892 0.961 . S
C3826 C3793 1.587 . S
C3826 C3827 1.360 . S
C3826 C3839 1.412 . S
C3827 C3826 1.360 . S
C3827 C3828 1.365 . S
C3827 H3893 0.929 . S
C3828 C3803 1.553 . S
C3828 C3827 1.365 . S
C3828 C3829 1.404 . S
C3829 C3828 1.404 . S
C3829 C3830 1.395 . S
C3829 C3840 1.451 . S
C3830 C3829 1.395 . S
C3830 C3831 1.322 . S
C3830 H3894 0.930 . S
C3831 C3830 1.322 . S
C3831 C3832 1.459 . S
C3831 H3895 0.929 . S
C3832 C3831 1.459 . S
C3832 C3833 1.445 . S
C3832 C3841 1.395 . S
C3833 C3811 1.432 . S
C3833 C3832 1.445 . S
C3833 C3834 1.370 . S
C3834 C3833 1.370 . S
C3834 C3835 1.438 . S
C3834 H3896 0.930 . S
C3835 C3821 1.497 . S
C3835 C3834 1.438 . S
C3835 C3836 1.360 . S
C3836 C3835 1.360 . S
C3836 C3837 1.401 . S
C3836 C3841 1.446 . S
C3837 C3836 1.401 . S
C3837 C3838 1.347 . S
C3837 H3897 0.929 . S
C3838 C3837 1.347 . S
C3838 C3839 1.455 . S
C3838 H3898 0.930 . S
C3839 C3826 1.412 . S
C3839 C3838 1.455 . S
C3839 C3840 1.331 . S
C3840 C3829 1.451 . S
C3840 C3839 1.331 . S
C3840 C3841 1.497 . S
C3841 C3832 1.395 . S
C3841 C3836 1.446 . S
C3841 C3840 1.497 . S
C3842 C3843 1.582 . S
C3842 H3899 0.962 . S
C3842 H3900 0.959 . S
C3842 H3901 0.958 . S
C3843 C3842 1.582 . S
C3843 O3846 1.458 . S
C3843 H3872 0.980 . S
O3844 C3789 1.426 . S
O3844 C3790 1.334 . S
O3845 C3817 1.412 . S
O3845 C3818 1.393 . S
O3846 C3808 1.435 . S
O3846 C3843 1.458 . S
O3847 C3799 1.468 . S
O3847 C3800 1.408 . S
H3848 C3789 0.980 . S
H3849 C3788 0.959 . S
H3850 C3788 0.959 . S
H3851 C3788 0.960 . S
H3852 C3791 0.929 . S
H3853 C3795 0.929 . S
H3854 C3796 0.959 . S
H3855 C3796 0.961 . S
H3856 C3796 0.961 . S
H3857 C3797 0.960 . S
H3858 C3797 0.960 . S
H3859 C3797 0.961 . S
H3860 C3799 0.980 . S
H3861 C3798 0.961 . S
H3862 C3798 0.960 . S
H3863 C3798 0.959 . S
H3864 C3801 0.930 . S
H3865 C3805 0.931 . S
H3866 C3806 0.959 . S
H3867 C3806 0.961 . S
H3868 C3806 0.959 . S
H3869 C3807 0.960 . S
H3870 C3807 0.960 . S
H3871 C3807 0.960 . S
H3872 C3843 0.980 . S
H3873 C3809 0.930 . S
H3874 C3813 0.930 . S
H3875 C3814 0.961 . S
H3876 C3814 0.960 . S
H3877 C3814 0.958 . S
H3878 C3815 0.961 . S
H3879 C3815 0.960 . S
H3880 C3815 0.960 . S
H3881 C3817 0.980 . S
H3882 C3816 0.961 . S
H3883 C3816 0.961 . S
H3884 C3816 0.959 . S
H3885 C3819 0.932 . S
H3886 C3823 0.929 . S
H3887 C3824 0.961 . S
H3888 C3824 0.959 . S
H3889 C3824 0.959 . S
H3890 C3825 0.960 . S
H3891 C3825 0.962 . S
H3892 C3825 0.961 . S
H3893 C3827 0.929 . S
H3894 C3830 0.930 . S
H3895 C3831 0.929 . S
H3896 C3834 0.930 . S
H3897 C3837 0.929 . S
H3898 C3838 0.930 . S
H3899 C3842 0.962 . S
H3900 C3842 0.959 . S
H3901 C3842 0.958 . S
C3902 C3903 1.560 . S
C3902 H3963 0.959 . S
C3902 H3964 0.959 . S
C3902 H3965 0.960 . S
C3903 C3902 1.560 . S
C3903 O3958 1.426 . S
C3903 H3962 0.980 . S
C3904 C3905 1.407 . S
C3904 C3909 1.418 . S
C3904 O3958 1.334 . S
C3905 C3904 1.407 . S
C3905 C3906 1.360 . S
C3905 H3966 0.929 . S
C3906 C3905 1.360 . S
C3906 C3907 1.401 . S
C3906 C3910 1.527 . S
C3907 C3906 1.401 . S
C3907 C3908 1.405 . S
C3907 C3940 1.587 . S
C3908 C3907 1.405 . S
C3908 C3909 1.332 . S
C3908 C3911 1.496 . S
C3909 C3904 1.418 . S
C3909 C3908 1.332 . S
C3909 H3967 0.929 . S
C3910 C3906 1.527 . S
C3910 H3968 0.959 . S
C3910 H3969 0.961 . S
C3910 H3970 0.961 . S
C3911 C3908 1.496 . S
C3911 H3971 0.960 . S
C3911 H3972 0.960 . S
C3911 H3973 0.961 . S
C3912 C3913 1.517 . S
C3912 H3975 0.961 . S
C3912 H3976 0.960 . S
C3912 H3977 0.959 . S
C3913 C3912 1.517 . S
C3913 O3961 1.468 . S
C3913 H3974 0.980 . S
C3914 C3915 1.349 . S
C3914 C3919 1.367 . S
C3914 O3961 1.408 . S
C3915 C3914 1.349 . S
C3915 C3916 1.407 . S
C3915 H3978 0.930 . S
C3916 C3915 1.407 . S
C3916 C3917 1.449 . S
C3916 C3920 1.535 . S
C3917 C3916 1.449 . S
C3917 C3918 1.384 . S
C3917 C3942 1.553 . S
C3918 C3917 1.384 . S
C3918 C3919 1.364 . S
C3918 C3921 1.450 . S
C3919 C3914 1.367 . S
C3919 C3918 1.364 . S
C3919 H3979 0.931 . S
C3920 C3916 1.535 . S
C3920 H3980 0.959 . S
C3920 H3981 0.961 . S
C3920 H3982 0.959 . S
C3921 C3918 1.450 . S
C3921 H3983 0.960 . S
C3921 H3984 0.960 . S
C3921 H3985 0.960 . S
C3922 C3923 1.309 . S
C3922 C3927 1.304 . S
C3922 O3960 1.435 . S
C3923 C3922 1.309 . S
C3923 C3924 1.476 . S
C3923 H3987 0.930 . S
C3924 C3923 1.476 . S
C3924 C3925 1.400 . S
C3924 C3928 1.567 . S
C3925 C3924 1.400 . S
C3925 C3926 1.373 . S
C3925 C3947 1.432 . S
C3926 C3925 1.373 . S
C3926 C3927 1.339 . S
C3926 C3929 1.530 . S
C3927 C3922 1.304 . S
C3927 C3926 1.339 . S
C3927 H3988 0.930 . S
C3928 C3924 1.567 . S
C3928 H3989 0.961 . S
C3928 H3990 0.960 . S
C3928 H3991 0.958 . S
C3929 C3926 1.530 . S
C3929 H3992 0.961 . S
C3929 H3993 0.960 . S
C3929 H3994 0.960 . S
C3930 C3931 1.530 . S
C3930 H3996 0.961 . S
C3930 H3997 0.961 . S
C3930 H3998 0.959 . S
C3931 C3930 1.530 . S
C3931 O3959 1.412 . S
C3931 H3995 0.980 . S
C3932 C3933 1.288 . S
C3932 C3937 1.377 . S
C3932 O3959 1.393 . S
C3933 C3932 1.288 . S
C3933 C3934 1.369 . S
C3933 H3999 0.932 . S
C3934 C3933 1.369 . S
C3934 C3935 1.398 . S
C3934 C3938 1.527 . S
C3935 C3934 1.398 . S
C3935 C3936 1.380 . S
C3935 C3949 1.497 . S
C3936 C3935 1.380 . S
C3936 C3937 1.383 . S
C3936 C3939 1.603 . S
C3937 C3932 1.377 . S
C3937 C3936 1.383 . S
C3937 H4000 0.929 . S
C3938 C3934 1.527 . S
C3938 H4001 0.961 . S
C3938 H4002 0.959 . S
C3938 H4003 0.959 . S
C3939 C3936 1.603 . S
C3939 H4004 0.960 . S
C3939 H4005 0.962 . S
C3939 H4006 0.961 . S
C3940 C3907 1.587 . S
C3940 C3941 1.360 . S
C3940 C3953 1.412 . S
C3941 C3940 1.360 . S
C3941 C3942 1.365 . S
C3941 H4007 0.929 . S
C3942 C3917 1.553 . S
C3942 C3941 1.365 . S
C3942 C3943 1.404 . S
C3943 C3942 1.404 . S
C3943 C3944 1.395 . S
C3943 C3954 1.451 . S
C3944 C3943 1.395 . S
C3944 C3945 1.322 . S
C3944 H4008 0.930 . S
C3945 C3944 1.322 . S
C3945 C3946 1.459 . S
C3945 H4009 0.929 . S
C3946 C3945 1.459 . S
C3946 C3947 1.445 . S
C3946 C3955 1.395 . S
C3947 C3925 1.432 . S
C3947 C3946 1.445 . S
C3947 C3948 1.370 . S
C3948 C3947 1.370 . S
C3948 C3949 1.438 . S
C3948 H4010 0.930 . S
C3949 C3935 1.497 . S
C3949 C3948 1.438 . S
C3949 C3950 1.360 . S
C3950 C3949 1.360 . S
C3950 C3951 1.401 . S
C3950 C3955 1.446 . S
C3951 C3950 1.401 . S
C3951 C3952 1.347 . S
C3951 H4011 0.929 . S
C3952 C3951 1.347 . S
C3952 C3953 1.455 . S
C3952 H4012 0.930 . S
C3953 C3940 1.412 . S
C3953 C3952 1.455 . S
C3953 C3954 1.331 . S
C3954 C3943 1.451 . S
C3954 C3953 1.331 . S
C3954 C3955 1.497 . S
C3955 C3946 1.395 . S
C3955 C3950 1.446 . S
C3955 C3954 1.497 . S
C3956 C3957 1.582 . S
C3956 H4013 0.962 . S
C3956 H4014 0.959 . S
C3956 H4015 0.958 . S
C3957 C3956 1.582 . S
C3957 O3960 1.458 . S
C3957 H3986 0.980 . S
O3958 C3903 1.426 . S
O3958 C3904 1.334 . S
O3959 C3931 1.412 . S
O3959 C3932 1.393 . S
O3960 C3922 1.435 . S
O3960 C3957 1.458 . S
O3961 C3913 1.468 . S
O3961 C3914 1.408 . S
H3962 C3903 0.980 . S
H3963 C3902 0.959 . S
H3964 C3902 0.959 . S
H3965 C3902 0.960 . S
H3966 C3905 0.929 . S
H3967 C3909 0.929 . S
H3968 C3910 0.959 . S
H3969 C3910 0.961 . S
H3970 C3910 0.961 . S
H3971 C3911 0.960 . S
H3972 C3911 0.960 . S
H3973 C3911 0.961 . S
H3974 C3913 0.980 . S
H3975 C3912 0.961 . S
H3976 C3912 0.960 . S
H3977 C3912 0.959 . S
H3978 C3915 0.930 . S
H3979 C3919 0.931 . S
H3980 C3920 0.959 . S
H3981 C3920 0.961 . S
H3982 C3920 0.959 . S
H3983 C3921 0.960 . S
H3984 C3921 0.960 . S
H3985 C3921 0.960 . S
H3986 C3957 0.980 . S
H3987 C3923 0.930 . S
H3988 C3927 0.930 . S
H3989 C3928 0.961 . S
H3990 C3928 0.960 . S
H3991 C3928 0.958 . S
H3992 C3929 0.961 . S
H3993 C3929 0.960 . S
H3994 C3929 0.960 . S
H3995 C3931 0.980 . S
H3996 C3930 0.961 . S
H3997 C3930 0.961 . S
H3998 C3930 0.959 . S
H3999 C3933 0.932 . S
H4000 C3937 0.929 . S
H4001 C3938 0.961 . S
H4002 C3938 0.959 . S
H4003 C3938 0.959 . S
H4004 C3939 0.960 . S
H4005 C3939 0.962 . S
H4006 C3939 0.961 . S
H4007 C3941 0.929 . S
H4008 C3944 0.930 . S
H4009 C3945 0.929 . S
H4010 C3948 0.930 . S
H4011 C3951 0.929 . S
H4012 C3952 0.930 . S
H4013 C3956 0.962 . S
H4014 C3956 0.959 . S
H4015 C3956 0.958 . S
H4016 C4022 0.930 . S
H4017 C4026 0.930 . S
H4018 C4031 0.929 . S
H4019 C4029 0.929 . S
H4020 C4024 0.929 . S
H4021 C4030 0.929 . S
C4022 H4016 0.930 . S
C4022 C4023 1.367 . S
C4022 C4030 1.378 . S
C4023 C4022 1.367 . S
C4023 C4031 1.433 . S
C4024 H4020 0.929 . S
C4024 C4026 1.378 . S
C4024 C4028 1.350 . S
C4025 C4028 1.463 . S
C4025 C4030 1.350 . S
C4025 N4033 1.427 . S
C4026 H4017 0.930 . S
C4026 C4024 1.378 . S
C4026 C4027 1.367 . S
C4027 C4026 1.367 . S
C4027 C4029 1.433 . S
C4028 C4024 1.350 . S
C4028 C4025 1.463 . S
C4028 N4032 1.427 . S
C4029 H4019 0.929 . S
C4029 C4027 1.433 . S
C4029 N4032 1.384 . S
C4030 H4021 0.929 . S
C4030 C4022 1.378 . S
C4030 C4025 1.350 . S
C4031 H4018 0.929 . S
C4031 C4023 1.433 . S
C4031 N4033 1.384 . S
N4032 C4028 1.427 . S
N4032 C4029 1.384 . S
N4033 C4025 1.427 . S
N4033 C4031 1.384 . S
H4034 C4040 0.930 . S
H4035 C4044 0.930 . S
H4036 C4049 0.929 . S
H4037 C4047 0.929 . S
H4038 C4042 0.929 . S
H4039 C4048 0.929 . S
C4040 H4034 0.930 . S
C4040 C4041 1.367 . S
C4040 C4048 1.378 . S
C4041 C4040 1.367 . S
C4041 C4049 1.433 . S
C4042 H4038 0.929 . S
C4042 C4044 1.378 . S
C4042 C4046 1.350 . S
C4043 C4046 1.463 . S
C4043 C4048 1.350 . S
C4043 N4051 1.427 . S
C4044 H4035 0.930 . S
C4044 C4042 1.378 . S
C4044 C4045 1.367 . S
C4045 C4044 1.367 . S
C4045 C4047 1.433 . S
C4046 C4042 1.350 . S
C4046 C4043 1.463 . S
C4046 N4050 1.427 . S
C4047 H4037 0.929 . S
C4047 C4045 1.433 . S
C4047 N4050 1.384 . S
C4048 H4039 0.929 . S
C4048 C4040 1.378 . S
C4048 C4043 1.350 . S
C4049 H4036 0.929 . S
C4049 C4041 1.433 . S
C4049 N4051 1.384 . S
N4050 C4046 1.427 . S
N4050 C4047 1.384 . S
N4051 C4043 1.427 . S
N4051 C4049 1.384 . S
H4052 C4058 0.930 . S
H4053 C4062 0.930 . S
H4054 C4067 0.929 . S
H4055 C4065 0.929 . S
H4056 C4060 0.929 . S
H4057 C4066 0.929 . S
C4058 H4052 0.930 . S
C4058 C4059 1.367 . S
C4058 C4066 1.378 . S
C4059 C4058 1.367 . S
C4059 C4067 1.433 . S
C4060 H4056 0.929 . S
C4060 C4062 1.378 . S
C4060 C4064 1.350 . S
C4061 C4064 1.463 . S
C4061 C4066 1.350 . S
C4061 N4069 1.427 . S
C4062 H4053 0.930 . S
C4062 C4060 1.378 . S
C4062 C4063 1.367 . S
C4063 C4062 1.367 . S
C4063 C4065 1.433 . S
C4064 C4060 1.350 . S
C4064 C4061 1.463 . S
C4064 N4068 1.427 . S
C4065 H4055 0.929 . S
C4065 C4063 1.433 . S
C4065 N4068 1.384 . S
C4066 H4057 0.929 . S
C4066 C4058 1.378 . S
C4066 C4061 1.350 . S
C4067 H4054 0.929 . S
C4067 C4059 1.433 . S
C4067 N4069 1.384 . S
N4068 C4064 1.427 . S
N4068 C4065 1.384 . S
N4069 C4061 1.427 . S
N4069 C4067 1.384 . S
H4070 C4076 0.930 . S
H4071 C4080 0.930 . S
H4072 C4085 0.929 . S
H4073 C4083 0.929 . S
H4074 C4078 0.929 . S
H4075 C4084 0.929 . S
C4076 H4070 0.930 . S
C4076 C4077 1.367 . S
C4076 C4084 1.378 . S
C4077 C4076 1.367 . S
C4077 C4085 1.433 . S
C4078 H4074 0.929 . S
C4078 C4080 1.378 . S
C4078 C4082 1.350 . S
C4079 C4082 1.463 . S
C4079 C4084 1.350 . S
C4079 N4087 1.427 . S
C4080 H4071 0.930 . S
C4080 C4078 1.378 . S
C4080 C4081 1.367 . S
C4081 C4080 1.367 . S
C4081 C4083 1.433 . S
C4082 C4078 1.350 . S
C4082 C4079 1.463 . S
C4082 N4086 1.427 . S
C4083 H4073 0.929 . S
C4083 C4081 1.433 . S
C4083 N4086 1.384 . S
C4084 H4075 0.929 . S
C4084 C4076 1.378 . S
C4084 C4079 1.350 . S
C4085 H4072 0.929 . S
C4085 C4077 1.433 . S
C4085 N4087 1.384 . S
N4086 C4082 1.427 . S
N4086 C4083 1.384 . S
N4087 C4079 1.427 . S
N4087 C4085 1.384 . S
H4088 C4094 0.930 . S
H4089 C4098 0.930 . S
H4090 C4103 0.929 . S
H4091 C4101 0.929 . S
H4092 C4096 0.929 . S
H4093 C4102 0.929 . S
C4094 H4088 0.930 . S
C4094 C4095 1.367 . S
C4094 C4102 1.378 . S
C4095 C4094 1.367 . S
C4095 C4103 1.433 . S
C4096 H4092 0.929 . S
C4096 C4098 1.378 . S
C4096 C4100 1.350 . S
C4097 C4100 1.463 . S
C4097 C4102 1.350 . S
C4097 N4105 1.427 . S
C4098 H4089 0.930 . S
C4098 C4096 1.378 . S
C4098 C4099 1.367 . S
C4099 C4098 1.367 . S
C4099 C4101 1.433 . S
C4100 C4096 1.350 . S
C4100 C4097 1.463 . S
C4100 N4104 1.427 . S
C4101 H4091 0.929 . S
C4101 C4099 1.433 . S
C4101 N4104 1.384 . S
C4102 H4093 0.929 . S
C4102 C4094 1.378 . S
C4102 C4097 1.350 . S
C4103 H4090 0.929 . S
C4103 C4095 1.433 . S
C4103 N4105 1.384 . S
N4104 C4100 1.427 . S
N4104 C4101 1.384 . S
N4105 C4097 1.427 . S
N4105 C4103 1.384 . S
H4106 C4112 0.930 . S
H4107 C4116 0.930 . S
H4108 C4121 0.929 . S
H4109 C4119 0.929 . S
H4110 C4114 0.929 . S
H4111 C4120 0.929 . S
C4112 H4106 0.930 . S
C4112 C4113 1.367 . S
C4112 C4120 1.378 . S
C4113 C4112 1.367 . S
C4113 C4121 1.433 . S
C4114 H4110 0.929 . S
C4114 C4116 1.378 . S
C4114 C4118 1.350 . S
C4115 C4118 1.463 . S
C4115 C4120 1.350 . S
C4115 N4123 1.427 . S
C4116 H4107 0.930 . S
C4116 C4114 1.378 . S
C4116 C4117 1.367 . S
C4117 C4116 1.367 . S
C4117 C4119 1.433 . S
C4118 C4114 1.350 . S
C4118 C4115 1.463 . S
C4118 N4122 1.427 . S
C4119 H4109 0.929 . S
C4119 C4117 1.433 . S
C4119 N4122 1.384 . S
C4120 H4111 0.929 . S
C4120 C4112 1.378 . S
C4120 C4115 1.350 . S
C4121 H4108 0.929 . S
C4121 C4113 1.433 . S
C4121 N4123 1.384 . S
N4122 C4118 1.427 . S
N4122 C4119 1.384 . S
N4123 C4115 1.427 . S
N4123 C4121 1.384 . S
H4124 C4130 0.930 . S
H4125 C4134 0.930 . S
H4126 C4139 0.929 . S
H4127 C4137 0.929 . S
H4128 C4132 0.929 . S
H4129 C4138 0.929 . S
C4130 H4124 0.930 . S
C4130 C4131 1.367 . S
C4130 C4138 1.378 . S
C4131 C4130 1.367 . S
C4131 C4139 1.433 . S
C4132 H4128 0.929 . S
C4132 C4134 1.378 . S
C4132 C4136 1.350 . S
C4133 C4136 1.463 . S
C4133 C4138 1.350 . S
C4133 N4141 1.427 . S
C4134 H4125 0.930 . S
C4134 C4132 1.378 . S
C4134 C4135 1.367 . S
C4135 C4134 1.367 . S
C4135 C4137 1.433 . S
C4136 C4132 1.350 . S
C4136 C4133 1.463 . S
C4136 N4140 1.427 . S
C4137 H4127 0.929 . S
C4137 C4135 1.433 . S
C4137 N4140 1.384 . S
C4138 H4129 0.929 . S
C4138 C4130 1.378 . S
C4138 C4133 1.350 . S
C4139 H4126 0.929 . S
C4139 C4131 1.433 . S
C4139 N4141 1.384 . S
N4140 C4136 1.427 . S
N4140 C4137 1.384 . S
N4141 C4133 1.427 . S
N4141 C4139 1.384 . S
H4142 C4148 0.930 . S
H4143 C4152 0.930 . S
H4144 C4157 0.929 . S
H4145 C4155 0.929 . S
H4146 C4150 0.929 . S
H4147 C4156 0.929 . S
C4148 H4142 0.930 . S
C4148 C4149 1.367 . S
C4148 C4156 1.378 . S
C4149 C4148 1.367 . S
C4149 C4157 1.433 . S
C4150 H4146 0.929 . S
C4150 C4152 1.378 . S
C4150 C4154 1.350 . S
C4151 C4154 1.463 . S
C4151 C4156 1.350 . S
C4151 N4159 1.427 . S
C4152 H4143 0.930 . S
C4152 C4150 1.378 . S
C4152 C4153 1.367 . S
C4153 C4152 1.367 . S
C4153 C4155 1.433 . S
C4154 C4150 1.350 . S
C4154 C4151 1.463 . S
C4154 N4158 1.427 . S
C4155 H4145 0.929 . S
C4155 C4153 1.433 . S
C4155 N4158 1.384 . S
C4156 H4147 0.929 . S
C4156 C4148 1.378 . S
C4156 C4151 1.350 . S
C4157 H4144 0.929 . S
C4157 C4149 1.433 . S
C4157 N4159 1.384 . S
N4158 C4154 1.427 . S
N4158 C4155 1.384 . S
N4159 C4151 1.427 . S
N4159 C4157 1.384 . S
H4160 C4166 0.930 . S
H4161 C4170 0.930 . S
H4162 C4175 0.929 . S
H4163 C4173 0.929 . S
H4164 C4168 0.929 . S
H4165 C4174 0.929 . S
C4166 H4160 0.930 . S
C4166 C4167 1.367 . S
C4166 C4174 1.378 . S
C4167 C4166 1.367 . S
C4167 C4175 1.433 . S
C4168 H4164 0.929 . S
C4168 C4170 1.378 . S
C4168 C4172 1.350 . S
C4169 C4172 1.463 . S
C4169 C4174 1.350 . S
C4169 N4177 1.427 . S
C4170 H4161 0.930 . S
C4170 C4168 1.378 . S
C4170 C4171 1.367 . S
C4171 C4170 1.367 . S
C4171 C4173 1.433 . S
C4172 C4168 1.350 . S
C4172 C4169 1.463 . S
C4172 N4176 1.427 . S
C4173 H4163 0.929 . S
C4173 C4171 1.433 . S
C4173 N4176 1.384 . S
C4174 H4165 0.929 . S
C4174 C4166 1.378 . S
C4174 C4169 1.350 . S
C4175 H4162 0.929 . S
C4175 C4167 1.433 . S
C4175 N4177 1.384 . S
N4176 C4172 1.427 . S
N4176 C4173 1.384 . S
N4177 C4169 1.427 . S
N4177 C4175 1.384 . S
H4178 C4184 0.930 . S
H4179 C4188 0.930 . S
H4180 C4193 0.929 . S
H4181 C4191 0.929 . S
H4182 C4186 0.929 . S
H4183 C4192 0.929 . S
C4184 H4178 0.930 . S
C4184 C4185 1.367 . S
C4184 C4192 1.378 . S
C4185 C4184 1.367 . S
C4185 C4193 1.433 . S
C4186 H4182 0.929 . S
C4186 C4188 1.378 . S
C4186 C4190 1.350 . S
C4187 C4190 1.463 . S
C4187 C4192 1.350 . S
C4187 N4195 1.427 . S
C4188 H4179 0.930 . S
C4188 C4186 1.378 . S
C4188 C4189 1.367 . S
C4189 C4188 1.367 . S
C4189 C4191 1.433 . S
C4190 C4186 1.350 . S
C4190 C4187 1.463 . S
C4190 N4194 1.427 . S
C4191 H4181 0.929 . S
C4191 C4189 1.433 . S
C4191 N4194 1.384 . S
C4192 H4183 0.929 . S
C4192 C4184 1.378 . S
C4192 C4187 1.350 . S
C4193 H4180 0.929 . S
C4193 C4185 1.433 . S
C4193 N4195 1.384 . S
N4194 C4190 1.427 . S
N4194 C4191 1.384 . S
N4195 C4187 1.427 . S
N4195 C4193 1.384 . S
H4196 C4202 0.930 . S
H4197 C4206 0.930 . S
H4198 C4211 0.929 . S
H4199 C4209 0.929 . S
H4200 C4204 0.929 . S
H4201 C4210 0.929 . S
C4202 H4196 0.930 . S
C4202 C4203 1.367 . S
C4202 C4210 1.378 . S
C4203 C4202 1.367 . S
C4203 C4211 1.433 . S
C4204 H4200 0.929 . S
C4204 C4206 1.378 . S
C4204 C4208 1.350 . S
C4205 C4208 1.463 . S
C4205 C4210 1.350 . S
C4205 N4213 1.427 . S
C4206 H4197 0.930 . S
C4206 C4204 1.378 . S
C4206 C4207 1.367 . S
C4207 C4206 1.367 . S
C4207 C4209 1.433 . S
C4208 C4204 1.350 . S
C4208 C4205 1.463 . S
C4208 N4212 1.427 . S
C4209 H4199 0.929 . S
C4209 C4207 1.433 . S
C4209 N4212 1.384 . S
C4210 H4201 0.929 . S
C4210 C4202 1.378 . S
C4210 C4205 1.350 . S
C4211 H4198 0.929 . S
C4211 C4203 1.433 . S
C4211 N4213 1.384 . S
N4212 C4208 1.427 . S
N4212 C4209 1.384 . S
N4213 C4205 1.427 . S
N4213 C4211 1.384 . S
H4214 C4220 0.930 . S
H4215 C4224 0.930 . S
H4216 C4229 0.929 . S
H4217 C4227 0.929 . S
H4218 C4222 0.929 . S
H4219 C4228 0.929 . S
C4220 H4214 0.930 . S
C4220 C4221 1.367 . S
C4220 C4228 1.378 . S
C4221 C4220 1.367 . S
C4221 C4229 1.433 . S
C4222 H4218 0.929 . S
C4222 C4224 1.378 . S
C4222 C4226 1.350 . S
C4223 C4226 1.463 . S
C4223 C4228 1.350 . S
C4223 N4231 1.427 . S
C4224 H4215 0.930 . S
C4224 C4222 1.378 . S
C4224 C4225 1.367 . S
C4225 C4224 1.367 . S
C4225 C4227 1.433 . S
C4226 C4222 1.350 . S
C4226 C4223 1.463 . S
C4226 N4230 1.427 . S
C4227 H4217 0.929 . S
C4227 C4225 1.433 . S
C4227 N4230 1.384 . S
C4228 H4219 0.929 . S
C4228 C4220 1.378 . S
C4228 C4223 1.350 . S
C4229 H4216 0.929 . S
C4229 C4221 1.433 . S
C4229 N4231 1.384 . S
N4230 C4226 1.427 . S
N4230 C4227 1.384 . S
N4231 C4223 1.427 . S
N4231 C4229 1.384 . S
H4232 C4238 0.930 . S
H4233 C4242 0.930 . S
H4234 C4247 0.929 . S
H4235 C4245 0.929 . S
H4236 C4240 0.929 . S
H4237 C4246 0.929 . S
C4238 H4232 0.930 . S
C4238 C4239 1.367 . S
C4238 C4246 1.378 . S
C4239 C4238 1.367 . S
C4239 C4247 1.433 . S
C4240 H4236 0.929 . S
C4240 C4242 1.378 . S
C4240 C4244 1.350 . S
C4241 C4244 1.463 . S
C4241 C4246 1.350 . S
C4241 N4249 1.427 . S
C4242 H4233 0.930 . S
C4242 C4240 1.378 . S
C4242 C4243 1.367 . S
C4243 C4242 1.367 . S
C4243 C4245 1.433 . S
C4244 C4240 1.350 . S
C4244 C4241 1.463 . S
C4244 N4248 1.427 . S
C4245 H4235 0.929 . S
C4245 C4243 1.433 . S
C4245 N4248 1.384 . S
C4246 H4237 0.929 . S
C4246 C4238 1.378 . S
C4246 C4241 1.350 . S
C4247 H4234 0.929 . S
C4247 C4239 1.433 . S
C4247 N4249 1.384 . S
N4248 C4244 1.427 . S
N4248 C4245 1.384 . S
N4249 C4241 1.427 . S
N4249 C4247 1.384 . S
H4250 C4256 0.930 . S
H4251 C4260 0.930 . S
H4252 C4265 0.929 . S
H4253 C4263 0.929 . S
H4254 C4258 0.929 . S
H4255 C4264 0.929 . S
C4256 H4250 0.930 . S
C4256 C4257 1.367 . S
C4256 C4264 1.378 . S
C4257 C4256 1.367 . S
C4257 C4265 1.433 . S
C4258 H4254 0.929 . S
C4258 C4260 1.378 . S
C4258 C4262 1.350 . S
C4259 C4262 1.463 . S
C4259 C4264 1.350 . S
C4259 N4267 1.427 . S
C4260 H4251 0.930 . S
C4260 C4258 1.378 . S
C4260 C4261 1.367 . S
C4261 C4260 1.367 . S
C4261 C4263 1.433 . S
C4262 C4258 1.350 . S
C4262 C4259 1.463 . S
C4262 N4266 1.427 . S
C4263 H4253 0.929 . S
C4263 C4261 1.433 . S
C4263 N4266 1.384 . S
C4264 H4255 0.929 . S
C4264 C4256 1.378 . S
C4264 C4259 1.350 . S
C4265 H4252 0.929 . S
C4265 C4257 1.433 . S
C4265 N4267 1.384 . S
N4266 C4262 1.427 . S
N4266 C4263 1.384 . S
N4267 C4259 1.427 . S
N4267 C4265 1.384 . S
H4268 C4274 0.930 . S
H4269 C4278 0.930 . S
H4270 C4283 0.929 . S
H4271 C4281 0.929 . S
H4272 C4276 0.929 . S
H4273 C4282 0.929 . S
C4274 H4268 0.930 . S
C4274 C4275 1.367 . S
C4274 C4282 1.378 . S
C4275 C4274 1.367 . S
C4275 C4283 1.433 . S
C4276 H4272 0.929 . S
C4276 C4278 1.378 . S
C4276 C4280 1.350 . S
C4277 C4280 1.463 . S
C4277 C4282 1.350 . S
C4277 N4285 1.427 . S
C4278 H4269 0.930 . S
C4278 C4276 1.378 . S
C4278 C4279 1.367 . S
C4279 C4278 1.367 . S
C4279 C4281 1.433 . S
C4280 C4276 1.350 . S
C4280 C4277 1.463 . S
C4280 N4284 1.427 . S
C4281 H4271 0.929 . S
C4281 C4279 1.433 . S
C4281 N4284 1.384 . S
C4282 H4273 0.929 . S
C4282 C4274 1.378 . S
C4282 C4277 1.350 . S
C4283 H4270 0.929 . S
C4283 C4275 1.433 . S
C4283 N4285 1.384 . S
N4284 C4280 1.427 . S
N4284 C4281 1.384 . S
N4285 C4277 1.427 . S
N4285 C4283 1.384 . S
H4286 C4292 0.930 . S
H4287 C4296 0.930 . S
H4288 C4301 0.929 . S
H4289 C4299 0.929 . S
H4290 C4294 0.929 . S
H4291 C4300 0.929 . S
C4292 H4286 0.930 . S
C4292 C4293 1.367 . S
C4292 C4300 1.378 . S
C4293 C4292 1.367 . S
C4293 C4301 1.433 . S
C4294 H4290 0.929 . S
C4294 C4296 1.378 . S
C4294 C4298 1.350 . S
C4295 C4298 1.463 . S
C4295 C4300 1.350 . S
C4295 N4303 1.427 . S
C4296 H4287 0.930 . S
C4296 C4294 1.378 . S
C4296 C4297 1.367 . S
C4297 C4296 1.367 . S
C4297 C4299 1.433 . S
C4298 C4294 1.350 . S
C4298 C4295 1.463 . S
C4298 N4302 1.427 . S
C4299 H4289 0.929 . S
C4299 C4297 1.433 . S
C4299 N4302 1.384 . S
C4300 H4291 0.929 . S
C4300 C4292 1.378 . S
C4300 C4295 1.350 . S
C4301 H4288 0.929 . S
C4301 C4293 1.433 . S
C4301 N4303 1.384 . S
N4302 C4298 1.427 . S
N4302 C4299 1.384 . S
N4303 C4295 1.427 . S
N4303 C4301 1.384 . S
H4304 C4310 0.930 . S
H4305 C4314 0.930 . S
H4306 C4319 0.929 . S
H4307 C4317 0.929 . S
H4308 C4312 0.929 . S
H4309 C4318 0.929 . S
C4310 H4304 0.930 . S
C4310 C4311 1.367 . S
C4310 C4318 1.378 . S
C4311 C4310 1.367 . S
C4311 C4319 1.433 . S
C4312 H4308 0.929 . S
C4312 C4314 1.378 . S
C4312 C4316 1.350 . S
C4313 C4316 1.463 . S
C4313 C4318 1.350 . S
C4313 N4321 1.427 . S
C4314 H4305 0.930 . S
C4314 C4312 1.378 . S
C4314 C4315 1.367 . S
C4315 C4314 1.367 . S
C4315 C4317 1.433 . S
C4316 C4312 1.350 . S
C4316 C4313 1.463 . S
C4316 N4320 1.427 . S
C4317 H4307 0.929 . S
C4317 C4315 1.433 . S
C4317 N4320 1.384 . S
C4318 H4309 0.929 . S
C4318 C4310 1.378 . S
C4318 C4313 1.350 . S
C4319 H4306 0.929 . S
C4319 C4311 1.433 . S
C4319 N4321 1.384 . S
N4320 C4316 1.427 . S
N4320 C4317 1.384 . S
N4321 C4313 1.427 . S
N4321 C4319 1.384 . S
H4322 C4328 0.930 . S
H4323 C4332 0.930 . S
H4324 C4337 0.929 . S
H4325 C4335 0.929 . S
H4326 C4330 0.929 . S
H4327 C4336 0.929 . S
C4328 H4322 0.930 . S
C4328 C4329 1.367 . S
C4328 C4336 1.378 . S
C4329 C4328 1.367 . S
C4329 C4337 1.433 . S
C4330 H4326 0.929 . S
C4330 C4332 1.378 . S
C4330 C4334 1.350 . S
C4331 C4334 1.463 . S
C4331 C4336 1.350 . S
C4331 N4339 1.427 . S
C4332 H4323 0.930 . S
C4332 C4330 1.378 . S
C4332 C4333 1.367 . S
C4333 C4332 1.367 . S
C4333 C4335 1.433 . S
C4334 C4330 1.350 . S
C4334 C4331 1.463 . S
C4334 N4338 1.427 . S
C4335 H4325 0.929 . S
C4335 C4333 1.433 . S
C4335 N4338 1.384 . S
C4336 H4327 0.929 . S
C4336 C4328 1.378 . S
C4336 C4331 1.350 . S
C4337 H4324 0.929 . S
C4337 C4329 1.433 . S
C4337 N4339 1.384 . S
N4338 C4334 1.427 . S
N4338 C4335 1.384 . S
N4339 C4331 1.427 . S
N4339 C4337 1.384 . S
H4340 C4346 0.930 . S
H4341 C4350 0.930 . S
H4342 C4355 0.929 . S
H4343 C4353 0.929 . S
H4344 C4348 0.929 . S
H4345 C4354 0.929 . S
C4346 H4340 0.930 . S
C4346 C4347 1.367 . S
C4346 C4354 1.378 . S
C4347 C4346 1.367 . S
C4347 C4355 1.433 . S
C4348 H4344 0.929 . S
C4348 C4350 1.378 . S
C4348 C4352 1.350 . S
C4349 C4352 1.463 . S
C4349 C4354 1.350 . S
C4349 N4357 1.427 . S
C4350 H4341 0.930 . S
C4350 C4348 1.378 . S
C4350 C4351 1.367 . S
C4351 C4350 1.367 . S
C4351 C4353 1.433 . S
C4352 C4348 1.350 . S
C4352 C4349 1.463 . S
C4352 N4356 1.427 . S
C4353 H4343 0.929 . S
C4353 C4351 1.433 . S
C4353 N4356 1.384 . S
C4354 H4345 0.929 . S
C4354 C4346 1.378 . S
C4354 C4349 1.350 . S
C4355 H4342 0.929 . S
C4355 C4347 1.433 . S
C4355 N4357 1.384 . S
N4356 C4352 1.427 . S
N4356 C4353 1.384 . S
N4357 C4349 1.427 . S
N4357 C4355 1.384 . S
H4358 C4364 0.930 . S
H4359 C4368 0.930 . S
H4360 C4373 0.929 . S
H4361 C4371 0.929 . S
H4362 C4366 0.929 . S
H4363 C4372 0.929 . S
C4364 H4358 0.930 . S
C4364 C4365 1.367 . S
C4364 C4372 1.378 . S
C4365 C4364 1.367 . S
C4365 C4373 1.433 . S
C4366 H4362 0.929 . S
C4366 C4368 1.378 . S
C4366 C4370 1.350 . S
C4367 C4370 1.463 . S
C4367 C4372 1.350 . S
C4367 N4375 1.427 . S
C4368 H4359 0.930 . S
C4368 C4366 1.378 . S
C4368 C4369 1.367 . S
C4369 C4368 1.367 . S
C4369 C4371 1.433 . S
C4370 C4366 1.350 . S
C4370 C4367 1.463 . S
C4370 N4374 1.427 . S
C4371 H4361 0.929 . S
C4371 C4369 1.433 . S
C4371 N4374 1.384 . S
C4372 H4363 0.929 . S
C4372 C4364 1.378 . S
C4372 C4367 1.350 . S
C4373 H4360 0.929 . S
C4373 C4365 1.433 . S
C4373 N4375 1.384 . S
N4374 C4370 1.427 . S
N4374 C4371 1.384 . S
N4375 C4367 1.427 . S
N4375 C4373 1.384 . S
H4376 C4382 0.930 . S
H4377 C4386 0.930 . S
H4378 C4391 0.929 . S
H4379 C4389 0.929 . S
H4380 C4384 0.929 . S
H4381 C4390 0.929 . S
C4382 H4376 0.930 . S
C4382 C4383 1.367 . S
C4382 C4390 1.378 . S
C4383 C4382 1.367 . S
C4383 C4391 1.433 . S
C4384 H4380 0.929 . S
C4384 C4386 1.378 . S
C4384 C4388 1.350 . S
C4385 C4388 1.463 . S
C4385 C4390 1.350 . S
C4385 N4393 1.427 . S
C4386 H4377 0.930 . S
C4386 C4384 1.378 . S
C4386 C4387 1.367 . S
C4387 C4386 1.367 . S
C4387 C4389 1.433 . S
C4388 C4384 1.350 . S
C4388 C4385 1.463 . S
C4388 N4392 1.427 . S
C4389 H4379 0.929 . S
C4389 C4387 1.433 . S
C4389 N4392 1.384 . S
C4390 H4381 0.929 . S
C4390 C4382 1.378 . S
C4390 C4385 1.350 . S
C4391 H4378 0.929 . S
C4391 C4383 1.433 . S
C4391 N4393 1.384 . S
N4392 C4388 1.427 . S
N4392 C4389 1.384 . S
N4393 C4385 1.427 . S
N4393 C4391 1.384 . S
H4394 C4400 0.930 . S
H4395 C4404 0.930 . S
H4396 C4409 0.929 . S
H4397 C4407 0.929 . S
H4398 C4402 0.929 . S
H4399 C4408 0.929 . S
C4400 H4394 0.930 . S
C4400 C4401 1.367 . S
C4400 C4408 1.378 . S
C4401 C4400 1.367 . S
C4401 C4409 1.433 . S
C4402 H4398 0.929 . S
C4402 C4404 1.378 . S
C4402 C4406 1.350 . S
C4403 C4406 1.463 . S
C4403 C4408 1.350 . S
C4403 N4411 1.427 . S
C4404 H4395 0.930 . S
C4404 C4402 1.378 . S
C4404 C4405 1.367 . S
C4405 C4404 1.367 . S
C4405 C4407 1.433 . S
C4406 C4402 1.350 . S
C4406 C4403 1.463 . S
C4406 N4410 1.427 . S
C4407 H4397 0.929 . S
C4407 C4405 1.433 . S
C4407 N4410 1.384 . S
C4408 H4399 0.929 . S
C4408 C4400 1.378 . S
C4408 C4403 1.350 . S
C4409 H4396 0.929 . S
C4409 C4401 1.433 . S
C4409 N4411 1.384 . S
N4410 C4406 1.427 . S
N4410 C4407 1.384 . S
N4411 C4403 1.427 . S
N4411 C4409 1.384 . S
H4412 C4418 0.930 . S
H4413 C4422 0.930 . S
H4414 C4427 0.929 . S
H4415 C4425 0.929 . S
H4416 C4420 0.929 . S
H4417 C4426 0.929 . S
C4418 H4412 0.930 . S
C4418 C4419 1.367 . S
C4418 C4426 1.378 . S
C4419 C4418 1.367 . S
C4419 C4427 1.433 . S
C4420 H4416 0.929 . S
C4420 C4422 1.378 . S
C4420 C4424 1.350 . S
C4421 C4424 1.463 . S
C4421 C4426 1.350 . S
C4421 N4429 1.427 . S
C4422 H4413 0.930 . S
C4422 C4420 1.378 . S
C4422 C4423 1.367 . S
C4423 C4422 1.367 . S
C4423 C4425 1.433 . S
C4424 C4420 1.350 . S
C4424 C4421 1.463 . S
C4424 N4428 1.427 . S
C4425 H4415 0.929 . S
C4425 C4423 1.433 . S
C4425 N4428 1.384 . S
C4426 H4417 0.929 . S
C4426 C4418 1.378 . S
C4426 C4421 1.350 . S
C4427 H4414 0.929 . S
C4427 C4419 1.433 . S
C4427 N4429 1.384 . S
N4428 C4424 1.427 . S
N4428 C4425 1.384 . S
N4429 C4421 1.427 . S
N4429 C4427 1.384 . S
H4430 C4436 0.930 . S
H4431 C4440 0.930 . S
H4432 C4445 0.929 . S
H4433 C4443 0.929 . S
H4434 C4438 0.929 . S
H4435 C4444 0.929 . S
C4436 H4430 0.930 . S
C4436 C4437 1.367 . S
C4436 C4444 1.378 . S
C4437 C4436 1.367 . S
C4437 C4445 1.433 . S
C4438 H4434 0.929 . S
C4438 C4440 1.378 . S
C4438 C4442 1.350 . S
C4439 C4442 1.463 . S
C4439 C4444 1.350 . S
C4439 N4447 1.427 . S
C4440 H4431 0.930 . S
C4440 C4438 1.378 . S
C4440 C4441 1.367 . S
C4441 C4440 1.367 . S
C4441 C4443 1.433 . S
C4442 C4438 1.350 . S
C4442 C4439 1.463 . S
C4442 N4446 1.427 . S
C4443 H4433 0.929 . S
C4443 C4441 1.433 . S
C4443 N4446 1.384 . S
C4444 H4435 0.929 . S
C4444 C4436 1.378 . S
C4444 C4439 1.350 . S
C4445 H4432 0.929 . S
C4445 C4437 1.433 . S
C4445 N4447 1.384 . S
N4446 C4442 1.427 . S
N4446 C4443 1.384 . S
N4447 C4439 1.427 . S
N4447 C4445 1.384 . S
H4448 C4454 0.930 . S
H4449 C4458 0.930 . S
H4450 C4463 0.929 . S
H4451 C4461 0.929 . S
H4452 C4456 0.929 . S
H4453 C4462 0.929 . S
C4454 H4448 0.930 . S
C4454 C4455 1.367 . S
C4454 C4462 1.378 . S
C4455 C4454 1.367 . S
C4455 C4463 1.433 . S
C4456 H4452 0.929 . S
C4456 C4458 1.378 . S
C4456 C4460 1.350 . S
C4457 C4460 1.463 . S
C4457 C4462 1.350 . S
C4457 N4465 1.427 . S
C4458 H4449 0.930 . S
C4458 C4456 1.378 . S
C4458 C4459 1.367 . S
C4459 C4458 1.367 . S
C4459 C4461 1.433 . S
C4460 C4456 1.350 . S
C4460 C4457 1.463 . S
C4460 N4464 1.427 . S
C4461 H4451 0.929 . S
C4461 C4459 1.433 . S
C4461 N4464 1.384 . S
C4462 H4453 0.929 . S
C4462 C4454 1.378 . S
C4462 C4457 1.350 . S
C4463 H4450 0.929 . S
C4463 C4455 1.433 . S
C4463 N4465 1.384 . S
N4464 C4460 1.427 . S
N4464 C4461 1.384 . S
N4465 C4457 1.427 . S
N4465 C4463 1.384 . S
H4466 C4472 0.930 . S
H4467 C4476 0.930 . S
H4468 C4481 0.929 . S
H4469 C4479 0.929 . S
H4470 C4474 0.929 . S
H4471 C4480 0.929 . S
C4472 H4466 0.930 . S
C4472 C4473 1.367 . S
C4472 C4480 1.378 . S
C4473 C4472 1.367 . S
C4473 C4481 1.433 . S
C4474 H4470 0.929 . S
C4474 C4476 1.378 . S
C4474 C4478 1.350 . S
C4475 C4478 1.463 . S
C4475 C4480 1.350 . S
C4475 N4483 1.427 . S
C4476 H4467 0.930 . S
C4476 C4474 1.378 . S
C4476 C4477 1.367 . S
C4477 C4476 1.367 . S
C4477 C4479 1.433 . S
C4478 C4474 1.350 . S
C4478 C4475 1.463 . S
C4478 N4482 1.427 . S
C4479 H4469 0.929 . S
C4479 C4477 1.433 . S
C4479 N4482 1.384 . S
C4480 H4471 0.929 . S
C4480 C4472 1.378 . S
C4480 C4475 1.350 . S
C4481 H4468 0.929 . S
C4481 C4473 1.433 . S
C4481 N4483 1.384 . S
N4482 C4478 1.427 . S
N4482 C4479 1.384 . S
N4483 C4475 1.427 . S
N4483 C4481 1.384 . S
H4484 C4490 0.930 . S
H4485 C4494 0.930 . S
H4486 C4499 0.929 . S
H4487 C4497 0.929 . S
H4488 C4492 0.929 . S
H4489 C4498 0.929 . S
C4490 H4484 0.930 . S
C4490 C4491 1.367 . S
C4490 C4498 1.378 . S
C4491 C4490 1.367 . S
C4491 C4499 1.433 . S
C4492 H4488 0.929 . S
C4492 C4494 1.378 . S
C4492 C4496 1.350 . S
C4493 C4496 1.463 . S
C4493 C4498 1.350 . S
C4493 N4501 1.427 . S
C4494 H4485 0.930 . S
C4494 C4492 1.378 . S
C4494 C4495 1.367 . S
C4495 C4494 1.367 . S
C4495 C4497 1.433 . S
C4496 C4492 1.350 . S
C4496 C4493 1.463 . S
C4496 N4500 1.427 . S
C4497 H4487 0.929 . S
C4497 C4495 1.433 . S
C4497 N4500 1.384 . S
C4498 H4489 0.929 . S
C4498 C4490 1.378 . S
C4498 C4493 1.350 . S
C4499 H4486 0.929 . S
C4499 C4491 1.433 . S
C4499 N4501 1.384 . S
N4500 C4496 1.427 . S
N4500 C4497 1.384 . S
N4501 C4493 1.427 . S
N4501 C4499 1.384 . S
H4502 C4508 0.930 . S
H4503 C4512 0.930 . S
H4504 C4517 0.929 . S
H4505 C4515 0.929 . S
H4506 C4510 0.929 . S
H4507 C4516 0.929 . S
C4508 H4502 0.930 . S
C4508 C4509 1.367 . S
C4508 C4516 1.378 . S
C4509 C4508 1.367 . S
C4509 C4517 1.433 . S
C4510 H4506 0.929 . S
C4510 C4512 1.378 . S
C4510 C4514 1.350 . S
C4511 C4514 1.463 . S
C4511 C4516 1.350 . S
C4511 N4519 1.427 . S
C4512 H4503 0.930 . S
C4512 C4510 1.378 . S
C4512 C4513 1.367 . S
C4513 C4512 1.367 . S
C4513 C4515 1.433 . S
C4514 C4510 1.350 . S
C4514 C4511 1.463 . S
C4514 N4518 1.427 . S
C4515 H4505 0.929 . S
C4515 C4513 1.433 . S
C4515 N4518 1.384 . S
C4516 H4507 0.929 . S
C4516 C4508 1.378 . S
C4516 C4511 1.350 . S
C4517 H4504 0.929 . S
C4517 C4509 1.433 . S
C4517 N4519 1.384 . S
N4518 C4514 1.427 . S
N4518 C4515 1.384 . S
N4519 C4511 1.427 . S
N4519 C4517 1.384 . S
H4520 C4526 0.930 . S
H4521 C4530 0.930 . S
H4522 C4535 0.929 . S
H4523 C4533 0.929 . S
H4524 C4528 0.929 . S
H4525 C4534 0.929 . S
C4526 H4520 0.930 . S
C4526 C4527 1.367 . S
C4526 C4534 1.378 . S
C4527 C4526 1.367 . S
C4527 C4535 1.433 . S
C4528 H4524 0.929 . S
C4528 C4530 1.378 . S
C4528 C4532 1.350 . S
C4529 C4532 1.463 . S
C4529 C4534 1.350 . S
C4529 N4537 1.427 . S
C4530 H4521 0.930 . S
C4530 C4528 1.378 . S
C4530 C4531 1.367 . S
C4531 C4530 1.367 . S
C4531 C4533 1.433 . S
C4532 C4528 1.350 . S
C4532 C4529 1.463 . S
C4532 N4536 1.427 . S
C4533 H4523 0.929 . S
C4533 C4531 1.433 . S
C4533 N4536 1.384 . S
C4534 H4525 0.929 . S
C4534 C4526 1.378 . S
C4534 C4529 1.350 . S
C4535 H4522 0.929 . S
C4535 C4527 1.433 . S
C4535 N4537 1.384 . S
N4536 C4532 1.427 . S
N4536 C4533 1.384 . S
N4537 C4529 1.427 . S
N4537 C4535 1.384 . S
H4538 C4544 0.930 . S
H4539 C4548 0.930 . S
H4540 C4553 0.929 . S
H4541 C4551 0.929 . S
H4542 C4546 0.929 . S
H4543 C4552 0.929 . S
C4544 H4538 0.930 . S
C4544 C4545 1.367 . S
C4544 C4552 1.378 . S
C4545 C4544 1.367 . S
C4545 C4553 1.433 . S
C4546 H4542 0.929 . S
C4546 C4548 1.378 . S
C4546 C4550 1.350 . S
C4547 C4550 1.463 . S
C4547 C4552 1.350 . S
C4547 N4555 1.427 . S
C4548 H4539 0.930 . S
C4548 C4546 1.378 . S
C4548 C4549 1.367 . S
C4549 C4548 1.367 . S
C4549 C4551 1.433 . S
C4550 C4546 1.350 . S
C4550 C4547 1.463 . S
C4550 N4554 1.427 . S
C4551 H4541 0.929 . S
C4551 C4549 1.433 . S
C4551 N4554 1.384 . S
C4552 H4543 0.929 . S
C4552 C4544 1.378 . S
C4552 C4547 1.350 . S
C4553 H4540 0.929 . S
C4553 C4545 1.433 . S
C4553 N4555 1.384 . S
N4554 C4550 1.427 . S
N4554 C4551 1.384 . S
N4555 C4547 1.427 . S
N4555 C4553 1.384 . S
H4556 C4562 0.930 . S
H4557 C4566 0.930 . S
H4558 C4571 0.929 . S
H4559 C4569 0.929 . S
H4560 C4564 0.929 . S
H4561 C4570 0.929 . S
C4562 H4556 0.930 . S
C4562 C4563 1.367 . S
C4562 C4570 1.378 . S
C4563 C4562 1.367 . S
C4563 C4571 1.433 . S
C4564 H4560 0.929 . S
C4564 C4566 1.378 . S
C4564 C4568 1.350 . S
C4565 C4568 1.463 . S
C4565 C4570 1.350 . S
C4565 N4573 1.427 . S
C4566 H4557 0.930 . S
C4566 C4564 1.378 . S
C4566 C4567 1.367 . S
C4567 C4566 1.367 . S
C4567 C4569 1.433 . S
C4568 C4564 1.350 . S
C4568 C4565 1.463 . S
C4568 N4572 1.427 . S
C4569 H4559 0.929 . S
C4569 C4567 1.433 . S
C4569 N4572 1.384 . S
C4570 H4561 0.929 . S
C4570 C4562 1.378 . S
C4570 C4565 1.350 . S
C4571 H4558 0.929 . S
C4571 C4563 1.433 . S
C4571 N4573 1.384 . S
N4572 C4568 1.427 . S
N4572 C4569 1.384 . S
N4573 C4565 1.427 . S
N4573 C4571 1.384 . S
H4574 C4580 0.930 . S
H4575 C4584 0.930 . S
H4576 C4589 0.929 . S
H4577 C4587 0.929 . S
H4578 C4582 0.929 . S
H4579 C4588 0.929 . S
C4580 H4574 0.930 . S
C4580 C4581 1.367 . S
C4580 C4588 1.378 . S
C4581 C4580 1.367 . S
C4581 C4589 1.433 . S
C4582 H4578 0.929 . S
C4582 C4584 1.378 . S
C4582 C4586 1.350 . S
C4583 C4586 1.463 . S
C4583 C4588 1.350 . S
C4583 N4591 1.427 . S
C4584 H4575 0.930 . S
C4584 C4582 1.378 . S
C4584 C4585 1.367 . S
C4585 C4584 1.367 . S
C4585 C4587 1.433 . S
C4586 C4582 1.350 . S
C4586 C4583 1.463 . S
C4586 N4590 1.427 . S
C4587 H4577 0.929 . S
C4587 C4585 1.433 . S
C4587 N4590 1.384 . S
C4588 H4579 0.929 . S
C4588 C4580 1.378 . S
C4588 C4583 1.350 . S
C4589 H4576 0.929 . S
C4589 C4581 1.433 . S
C4589 N4591 1.384 . S
N4590 C4586 1.427 . S
N4590 C4587 1.384 . S
N4591 C4583 1.427 . S
N4591 C4589 1.384 . S
H4592 C4598 0.930 . S
H4593 C4602 0.930 . S
H4594 C4607 0.929 . S
H4595 C4605 0.929 . S
H4596 C4600 0.929 . S
H4597 C4606 0.929 . S
C4598 H4592 0.930 . S
C4598 C4599 1.367 . S
C4598 C4606 1.378 . S
C4599 C4598 1.367 . S
C4599 C4607 1.433 . S
C4600 H4596 0.929 . S
C4600 C4602 1.378 . S
C4600 C4604 1.350 . S
C4601 C4604 1.463 . S
C4601 C4606 1.350 . S
C4601 N4609 1.427 . S
C4602 H4593 0.930 . S
C4602 C4600 1.378 . S
C4602 C4603 1.367 . S
C4603 C4602 1.367 . S
C4603 C4605 1.433 . S
C4604 C4600 1.350 . S
C4604 C4601 1.463 . S
C4604 N4608 1.427 . S
C4605 H4595 0.929 . S
C4605 C4603 1.433 . S
C4605 N4608 1.384 . S
C4606 H4597 0.929 . S
C4606 C4598 1.378 . S
C4606 C4601 1.350 . S
C4607 H4594 0.929 . S
C4607 C4599 1.433 . S
C4607 N4609 1.384 . S
N4608 C4604 1.427 . S
N4608 C4605 1.384 . S
N4609 C4601 1.427 . S
N4609 C4607 1.384 . S
H4610 C4616 0.930 . S
H4611 C4620 0.930 . S
H4612 C4625 0.929 . S
H4613 C4623 0.929 . S
H4614 C4618 0.929 . S
H4615 C4624 0.929 . S
C4616 H4610 0.930 . S
C4616 C4617 1.367 . S
C4616 C4624 1.378 . S
C4617 C4616 1.367 . S
C4617 C4625 1.433 . S
C4618 H4614 0.929 . S
C4618 C4620 1.378 . S
C4618 C4622 1.350 . S
C4619 C4622 1.463 . S
C4619 C4624 1.350 . S
C4619 N4627 1.427 . S
C4620 H4611 0.930 . S
C4620 C4618 1.378 . S
C4620 C4621 1.367 . S
C4621 C4620 1.367 . S
C4621 C4623 1.433 . S
C4622 C4618 1.350 . S
C4622 C4619 1.463 . S
C4622 N4626 1.427 . S
C4623 H4613 0.929 . S
C4623 C4621 1.433 . S
C4623 N4626 1.384 . S
C4624 H4615 0.929 . S
C4624 C4616 1.378 . S
C4624 C4619 1.350 . S
C4625 H4612 0.929 . S
C4625 C4617 1.433 . S
C4625 N4627 1.384 . S
N4626 C4622 1.427 . S
N4626 C4623 1.384 . S
N4627 C4619 1.427 . S
N4627 C4625 1.384 . S
H4628 C4634 0.930 . S
H4629 C4638 0.930 . S
H4630 C4643 0.929 . S
H4631 C4641 0.929 . S
H4632 C4636 0.929 . S
H4633 C4642 0.929 . S
C4634 H4628 0.930 . S
C4634 C4635 1.367 . S
C4634 C4642 1.378 . S
C4635 C4634 1.367 . S
C4635 C4643 1.433 . S
C4636 H4632 0.929 . S
C4636 C4638 1.378 . S
C4636 C4640 1.350 . S
C4637 C4640 1.463 . S
C4637 C4642 1.350 . S
C4637 N4645 1.427 . S
C4638 H4629 0.930 . S
C4638 C4636 1.378 . S
C4638 C4639 1.367 . S
C4639 C4638 1.367 . S
C4639 C4641 1.433 . S
C4640 C4636 1.350 . S
C4640 C4637 1.463 . S
C4640 N4644 1.427 . S
C4641 H4631 0.929 . S
C4641 C4639 1.433 . S
C4641 N4644 1.384 . S
C4642 H4633 0.929 . S
C4642 C4634 1.378 . S
C4642 C4637 1.350 . S
C4643 H4630 0.929 . S
C4643 C4635 1.433 . S
C4643 N4645 1.384 . S
N4644 C4640 1.427 . S
N4644 C4641 1.384 . S
N4645 C4637 1.427 . S
N4645 C4643 1.384 . S
H4646 C4652 0.930 . S
H4647 C4656 0.930 . S
H4648 C4661 0.929 . S
H4649 C4659 0.929 . S
H4650 C4654 0.929 . S
H4651 C4660 0.929 . S
C4652 H4646 0.930 . S
C4652 C4653 1.367 . S
C4652 C4660 1.378 . S
C4653 C4652 1.367 . S
C4653 C4661 1.433 . S
C4654 H4650 0.929 . S
C4654 C4656 1.378 . S
C4654 C4658 1.350 . S
C4655 C4658 1.463 . S
C4655 C4660 1.350 . S
C4655 N4663 1.427 . S
C4656 H4647 0.930 . S
C4656 C4654 1.378 . S
C4656 C4657 1.367 . S
C4657 C4656 1.367 . S
C4657 C4659 1.433 . S
C4658 C4654 1.350 . S
C4658 C4655 1.463 . S
C4658 N4662 1.427 . S
C4659 H4649 0.929 . S
C4659 C4657 1.433 . S
C4659 N4662 1.384 . S
C4660 H4651 0.929 . S
C4660 C4652 1.378 . S
C4660 C4655 1.350 . S
C4661 H4648 0.929 . S
C4661 C4653 1.433 . S
C4661 N4663 1.384 . S
N4662 C4658 1.427 . S
N4662 C4659 1.384 . S
N4663 C4655 1.427 . S
N4663 C4661 1.384 . S
H4664 C4670 0.930 . S
H4665 C4674 0.930 . S
H4666 C4679 0.929 . S
H4667 C4677 0.929 . S
H4668 C4672 0.929 . S
H4669 C4678 0.929 . S
C4670 H4664 0.930 . S
C4670 C4671 1.367 . S
C4670 C4678 1.378 . S
C4671 C4670 1.367 . S
C4671 C4679 1.433 . S
C4672 H4668 0.929 . S
C4672 C4674 1.378 . S
C4672 C4676 1.350 . S
C4673 C4676 1.463 . S
C4673 C4678 1.350 . S
C4673 N4681 1.427 . S
C4674 H4665 0.930 . S
C4674 C4672 1.378 . S
C4674 C4675 1.367 . S
C4675 C4674 1.367 . S
C4675 C4677 1.433 . S
C4676 C4672 1.350 . S
C4676 C4673 1.463 . S
C4676 N4680 1.427 . S
C4677 H4667 0.929 . S
C4677 C4675 1.433 . S
C4677 N4680 1.384 . S
C4678 H4669 0.929 . S
C4678 C4670 1.378 . S
C4678 C4673 1.350 . S
C4679 H4666 0.929 . S
C4679 C4671 1.433 . S
C4679 N4681 1.384 . S
N4680 C4676 1.427 . S
N4680 C4677 1.384 . S
N4681 C4673 1.427 . S
N4681 C4679 1.384 . S
H4682 C4688 0.930 . S
H4683 C4692 0.930 . S
H4684 C4697 0.929 . S
H4685 C4695 0.929 . S
H4686 C4690 0.929 . S
H4687 C4696 0.929 . S
C4688 H4682 0.930 . S
C4688 C4689 1.367 . S
C4688 C4696 1.378 . S
C4689 C4688 1.367 . S
C4689 C4697 1.433 . S
C4690 H4686 0.929 . S
C4690 C4692 1.378 . S
C4690 C4694 1.350 . S
C4691 C4694 1.463 . S
C4691 C4696 1.350 . S
C4691 N4699 1.427 . S
C4692 H4683 0.930 . S
C4692 C4690 1.378 . S
C4692 C4693 1.367 . S
C4693 C4692 1.367 . S
C4693 C4695 1.433 . S
C4694 C4690 1.350 . S
C4694 C4691 1.463 . S
C4694 N4698 1.427 . S
C4695 H4685 0.929 . S
C4695 C4693 1.433 . S
C4695 N4698 1.384 . S
C4696 H4687 0.929 . S
C4696 C4688 1.378 . S
C4696 C4691 1.350 . S
C4697 H4684 0.929 . S
C4697 C4689 1.433 . S
C4697 N4699 1.384 . S
N4698 C4694 1.427 . S
N4698 C4695 1.384 . S
N4699 C4691 1.427 . S
N4699 C4697 1.384 . S
H4700 C4706 0.930 . S
H4701 C4710 0.930 . S
H4702 C4715 0.929 . S
H4703 C4713 0.929 . S
H4704 C4708 0.929 . S
H4705 C4714 0.929 . S
C4706 H4700 0.930 . S
C4706 C4707 1.367 . S
C4706 C4714 1.378 . S
C4707 C4706 1.367 . S
C4707 C4715 1.433 . S
C4708 H4704 0.929 . S
C4708 C4710 1.378 . S
C4708 C4712 1.350 . S
C4709 C4712 1.463 . S
C4709 C4714 1.350 . S
C4709 N4717 1.427 . S
C4710 H4701 0.930 . S
C4710 C4708 1.378 . S
C4710 C4711 1.367 . S
C4711 C4710 1.367 . S
C4711 C4713 1.433 . S
C4712 C4708 1.350 . S
C4712 C4709 1.463 . S
C4712 N4716 1.427 . S
C4713 H4703 0.929 . S
C4713 C4711 1.433 . S
C4713 N4716 1.384 . S
C4714 H4705 0.929 . S
C4714 C4706 1.378 . S
C4714 C4709 1.350 . S
C4715 H4702 0.929 . S
C4715 C4707 1.433 . S
C4715 N4717 1.384 . S
N4716 C4712 1.427 . S
N4716 C4713 1.384 . S
N4717 C4709 1.427 . S
N4717 C4715 1.384 . S
H4718 C4724 0.930 . S
H4719 C4728 0.930 . S
H4720 C4733 0.929 . S
H4721 C4731 0.929 . S
H4722 C4726 0.929 . S
H4723 C4732 0.929 . S
C4724 H4718 0.930 . S
C4724 C4725 1.367 . S
C4724 C4732 1.378 . S
C4725 C4724 1.367 . S
C4725 C4733 1.433 . S
C4726 H4722 0.929 . S
C4726 C4728 1.378 . S
C4726 C4730 1.350 . S
C4727 C4730 1.463 . S
C4727 C4732 1.350 . S
C4727 N4735 1.427 . S
C4728 H4719 0.930 . S
C4728 C4726 1.378 . S
C4728 C4729 1.367 . S
C4729 C4728 1.367 . S
C4729 C4731 1.433 . S
C4730 C4726 1.350 . S
C4730 C4727 1.463 . S
C4730 N4734 1.427 . S
C4731 H4721 0.929 . S
C4731 C4729 1.433 . S
C4731 N4734 1.384 . S
C4732 H4723 0.929 . S
C4732 C4724 1.378 . S
C4732 C4727 1.350 . S
C4733 H4720 0.929 . S
C4733 C4725 1.433 . S
C4733 N4735 1.384 . S
N4734 C4730 1.427 . S
N4734 C4731 1.384 . S
N4735 C4727 1.427 . S
N4735 C4733 1.384 . S
H4736 C4742 0.930 . S
H4737 C4746 0.930 . S
H4738 C4751 0.929 . S
H4739 C4749 0.929 . S
H4740 C4744 0.929 . S
H4741 C4750 0.929 . S
C4742 H4736 0.930 . S
C4742 C4743 1.367 . S
C4742 C4750 1.378 . S
C4743 C4742 1.367 . S
C4743 C4751 1.433 . S
C4744 H4740 0.929 . S
C4744 C4746 1.378 . S
C4744 C4748 1.350 . S
C4745 C4748 1.463 . S
C4745 C4750 1.350 . S
C4745 N4753 1.427 . S
C4746 H4737 0.930 . S
C4746 C4744 1.378 . S
C4746 C4747 1.367 . S
C4747 C4746 1.367 . S
C4747 C4749 1.433 . S
C4748 C4744 1.350 . S
C4748 C4745 1.463 . S
C4748 N4752 1.427 . S
C4749 H4739 0.929 . S
C4749 C4747 1.433 . S
C4749 N4752 1.384 . S
C4750 H4741 0.929 . S
C4750 C4742 1.378 . S
C4750 C4745 1.350 . S
C4751 H4738 0.929 . S
C4751 C4743 1.433 . S
C4751 N4753 1.384 . S
N4752 C4748 1.427 . S
N4752 C4749 1.384 . S
N4753 C4745 1.427 . S
N4753 C4751 1.384 . S
H4754 C4760 0.930 . S
H4755 C4764 0.930 . S
H4756 C4769 0.929 . S
H4757 C4767 0.929 . S
H4758 C4762 0.929 . S
H4759 C4768 0.929 . S
C4760 H4754 0.930 . S
C4760 C4761 1.367 . S
C4760 C4768 1.378 . S
C4761 C4760 1.367 . S
C4761 C4769 1.433 . S
C4762 H4758 0.929 . S
C4762 C4764 1.378 . S
C4762 C4766 1.350 . S
C4763 C4766 1.463 . S
C4763 C4768 1.350 . S
C4763 N4771 1.427 . S
C4764 H4755 0.930 . S
C4764 C4762 1.378 . S
C4764 C4765 1.367 . S
C4765 C4764 1.367 . S
C4765 C4767 1.433 . S
C4766 C4762 1.350 . S
C4766 C4763 1.463 . S
C4766 N4770 1.427 . S
C4767 H4757 0.929 . S
C4767 C4765 1.433 . S
C4767 N4770 1.384 . S
C4768 H4759 0.929 . S
C4768 C4760 1.378 . S
C4768 C4763 1.350 . S
C4769 H4756 0.929 . S
C4769 C4761 1.433 . S
C4769 N4771 1.384 . S
N4770 C4766 1.427 . S
N4770 C4767 1.384 . S
N4771 C4763 1.427 . S
N4771 C4769 1.384 . S
H4772 C4778 0.930 . S
H4773 C4782 0.930 . S
H4774 C4787 0.929 . S
H4775 C4785 0.929 . S
H4776 C4780 0.929 . S
H4777 C4786 0.929 . S
C4778 H4772 0.930 . S
C4778 C4779 1.367 . S
C4778 C4786 1.378 . S
C4779 C4778 1.367 . S
C4779 C4787 1.433 . S
C4780 H4776 0.929 . S
C4780 C4782 1.378 . S
C4780 C4784 1.350 . S
C4781 C4784 1.463 . S
C4781 C4786 1.350 . S
C4781 N4789 1.427 . S
C4782 H4773 0.930 . S
C4782 C4780 1.378 . S
C4782 C4783 1.367 . S
C4783 C4782 1.367 . S
C4783 C4785 1.433 . S
C4784 C4780 1.350 . S
C4784 C4781 1.463 . S
C4784 N4788 1.427 . S
C4785 H4775 0.929 . S
C4785 C4783 1.433 . S
C4785 N4788 1.384 . S
C4786 H4777 0.929 . S
C4786 C4778 1.378 . S
C4786 C4781 1.350 . S
C4787 H4774 0.929 . S
C4787 C4779 1.433 . S
C4787 N4789 1.384 . S
N4788 C4784 1.427 . S
N4788 C4785 1.384 . S
N4789 C4781 1.427 . S
N4789 C4787 1.384 . S
H4790 C4796 0.930 . S
H4791 C4800 0.930 . S
H4792 C4805 0.929 . S
H4793 C4803 0.929 . S
H4794 C4798 0.929 . S
H4795 C4804 0.929 . S
C4796 H4790 0.930 . S
C4796 C4797 1.367 . S
C4796 C4804 1.378 . S
C4797 C4796 1.367 . S
C4797 C4805 1.433 . S
C4798 H4794 0.929 . S
C4798 C4800 1.378 . S
C4798 C4802 1.350 . S
C4799 C4802 1.463 . S
C4799 C4804 1.350 . S
C4799 N4807 1.427 . S
C4800 H4791 0.930 . S
C4800 C4798 1.378 . S
C4800 C4801 1.367 . S
C4801 C4800 1.367 . S
C4801 C4803 1.433 . S
C4802 C4798 1.350 . S
C4802 C4799 1.463 . S
C4802 N4806 1.427 . S
C4803 H4793 0.929 . S
C4803 C4801 1.433 . S
C4803 N4806 1.384 . S
C4804 H4795 0.929 . S
C4804 C4796 1.378 . S
C4804 C4799 1.350 . S
C4805 H4792 0.929 . S
C4805 C4797 1.433 . S
C4805 N4807 1.384 . S
N4806 C4802 1.427 . S
N4806 C4803 1.384 . S
N4807 C4799 1.427 . S
N4807 C4805 1.384 . S
H4808 C4814 0.930 . S
H4809 C4818 0.930 . S
H4810 C4823 0.929 . S
H4811 C4821 0.929 . S
H4812 C4816 0.929 . S
H4813 C4822 0.929 . S
C4814 H4808 0.930 . S
C4814 C4815 1.367 . S
C4814 C4822 1.378 . S
C4815 C4814 1.367 . S
C4815 C4823 1.433 . S
C4816 H4812 0.929 . S
C4816 C4818 1.378 . S
C4816 C4820 1.350 . S
C4817 C4820 1.463 . S
C4817 C4822 1.350 . S
C4817 N4825 1.427 . S
C4818 H4809 0.930 . S
C4818 C4816 1.378 . S
C4818 C4819 1.367 . S
C4819 C4818 1.367 . S
C4819 C4821 1.433 . S
C4820 C4816 1.350 . S
C4820 C4817 1.463 . S
C4820 N4824 1.427 . S
C4821 H4811 0.929 . S
C4821 C4819 1.433 . S
C4821 N4824 1.384 . S
C4822 H4813 0.929 . S
C4822 C4814 1.378 . S
C4822 C4817 1.350 . S
C4823 H4810 0.929 . S
C4823 C4815 1.433 . S
C4823 N4825 1.384 . S
N4824 C4820 1.427 . S
N4824 C4821 1.384 . S
N4825 C4817 1.427 . S
N4825 C4823 1.384 . S
H4826 C4832 0.930 . S
H4827 C4836 0.930 . S
H4828 C4841 0.929 . S
H4829 C4839 0.929 . S
H4830 C4834 0.929 . S
H4831 C4840 0.929 . S
C4832 H4826 0.930 . S
C4832 C4833 1.367 . S
C4832 C4840 1.378 . S
C4833 C4832 1.367 . S
C4833 C4841 1.433 . S
C4834 H4830 0.929 . S
C4834 C4836 1.378 . S
C4834 C4838 1.350 . S
C4835 C4838 1.463 . S
C4835 C4840 1.350 . S
C4835 N4843 1.427 . S
C4836 H4827 0.930 . S
C4836 C4834 1.378 . S
C4836 C4837 1.367 . S
C4837 C4836 1.367 . S
C4837 C4839 1.433 . S
C4838 C4834 1.350 . S
C4838 C4835 1.463 . S
C4838 N4842 1.427 . S
C4839 H4829 0.929 . S
C4839 C4837 1.433 . S
C4839 N4842 1.384 . S
C4840 H4831 0.929 . S
C4840 C4832 1.378 . S
C4840 C4835 1.350 . S
C4841 H4828 0.929 . S
C4841 C4833 1.433 . S
C4841 N4843 1.384 . S
N4842 C4838 1.427 . S
N4842 C4839 1.384 . S
N4843 C4835 1.427 . S
N4843 C4841 1.384 . S
H4844 C4850 0.930 . S
H4845 C4854 0.930 . S
H4846 C4859 0.929 . S
H4847 C4857 0.929 . S
H4848 C4852 0.929 . S
H4849 C4858 0.929 . S
C4850 H4844 0.930 . S
C4850 C4851 1.367 . S
C4850 C4858 1.378 . S
C4851 C4850 1.367 . S
C4851 C4859 1.433 . S
C4852 H4848 0.929 . S
C4852 C4854 1.378 . S
C4852 C4856 1.350 . S
C4853 C4856 1.463 . S
C4853 C4858 1.350 . S
C4853 N4861 1.427 . S
C4854 H4845 0.930 . S
C4854 C4852 1.378 . S
C4854 C4855 1.367 . S
C4855 C4854 1.367 . S
C4855 C4857 1.433 . S
C4856 C4852 1.350 . S
C4856 C4853 1.463 . S
C4856 N4860 1.427 . S
C4857 H4847 0.929 . S
C4857 C4855 1.433 . S
C4857 N4860 1.384 . S
C4858 H4849 0.929 . S
C4858 C4850 1.378 . S
C4858 C4853 1.350 . S
C4859 H4846 0.929 . S
C4859 C4851 1.433 . S
C4859 N4861 1.384 . S
N4860 C4856 1.427 . S
N4860 C4857 1.384 . S
N4861 C4853 1.427 . S
N4861 C4859 1.384 . S
H4862 C4868 0.930 . S
H4863 C4872 0.930 . S
H4864 C4877 0.929 . S
H4865 C4875 0.929 . S
H4866 C4870 0.929 . S
H4867 C4876 0.929 . S
C4868 H4862 0.930 . S
C4868 C4869 1.367 . S
C4868 C4876 1.378 . S
C4869 C4868 1.367 . S
C4869 C4877 1.433 . S
C4870 H4866 0.929 . S
C4870 C4872 1.378 . S
C4870 C4874 1.350 . S
C4871 C4874 1.463 . S
C4871 C4876 1.350 . S
C4871 N4879 1.427 . S
C4872 H4863 0.930 . S
C4872 C4870 1.378 . S
C4872 C4873 1.367 . S
C4873 C4872 1.367 . S
C4873 C4875 1.433 . S
C4874 C4870 1.350 . S
C4874 C4871 1.463 . S
C4874 N4878 1.427 . S
C4875 H4865 0.929 . S
C4875 C4873 1.433 . S
C4875 N4878 1.384 . S
C4876 H4867 0.929 . S
C4876 C4868 1.378 . S
C4876 C4871 1.350 . S
C4877 H4864 0.929 . S
C4877 C4869 1.433 . S
C4877 N4879 1.384 . S
N4878 C4874 1.427 . S
N4878 C4875 1.384 . S
N4879 C4871 1.427 . S
N4879 C4877 1.384 . S
H4880 C4886 0.930 . S
H4881 C4890 0.930 . S
H4882 C4895 0.929 . S
H4883 C4893 0.929 . S
H4884 C4888 0.929 . S
H4885 C4894 0.929 . S
C4886 H4880 0.930 . S
C4886 C4887 1.367 . S
C4886 C4894 1.378 . S
C4887 C4886 1.367 . S
C4887 C4895 1.433 . S
C4888 H4884 0.929 . S
C4888 C4890 1.378 . S
C4888 C4892 1.350 . S
C4889 C4892 1.463 . S
C4889 C4894 1.350 . S
C4889 N4897 1.427 . S
C4890 H4881 0.930 . S
C4890 C4888 1.378 . S
C4890 C4891 1.367 . S
C4891 C4890 1.367 . S
C4891 C4893 1.433 . S
C4892 C4888 1.350 . S
C4892 C4889 1.463 . S
C4892 N4896 1.427 . S
C4893 H4883 0.929 . S
C4893 C4891 1.433 . S
C4893 N4896 1.384 . S
C4894 H4885 0.929 . S
C4894 C4886 1.378 . S
C4894 C4889 1.350 . S
C4895 H4882 0.929 . S
C4895 C4887 1.433 . S
C4895 N4897 1.384 . S
N4896 C4892 1.427 . S
N4896 C4893 1.384 . S
N4897 C4889 1.427 . S
N4897 C4895 1.384 . S
H4898 C4904 0.930 . S
H4899 C4908 0.930 . S
H4900 C4913 0.929 . S
H4901 C4911 0.929 . S
H4902 C4906 0.929 . S
H4903 C4912 0.929 . S
C4904 H4898 0.930 . S
C4904 C4905 1.367 . S
C4904 C4912 1.378 . S
C4905 C4904 1.367 . S
C4905 C4913 1.433 . S
C4906 H4902 0.929 . S
C4906 C4908 1.378 . S
C4906 C4910 1.350 . S
C4907 C4910 1.463 . S
C4907 C4912 1.350 . S
C4907 N4915 1.427 . S
C4908 H4899 0.930 . S
C4908 C4906 1.378 . S
C4908 C4909 1.367 . S
C4909 C4908 1.367 . S
C4909 C4911 1.433 . S
C4910 C4906 1.350 . S
C4910 C4907 1.463 . S
C4910 N4914 1.427 . S
C4911 H4901 0.929 . S
C4911 C4909 1.433 . S
C4911 N4914 1.384 . S
C4912 H4903 0.929 . S
C4912 C4904 1.378 . S
C4912 C4907 1.350 . S
C4913 H4900 0.929 . S
C4913 C4905 1.433 . S
C4913 N4915 1.384 . S
N4914 C4910 1.427 . S
N4914 C4911 1.384 . S
N4915 C4907 1.427 . S
N4915 C4913 1.384 . S
H4916 C4922 0.930 . S
H4917 C4926 0.930 . S
H4918 C4931 0.929 . S
H4919 C4929 0.929 . S
H4920 C4924 0.929 . S
H4921 C4930 0.929 . S
C4922 H4916 0.930 . S
C4922 C4923 1.367 . S
C4922 C4930 1.378 . S
C4923 C4922 1.367 . S
C4923 C4931 1.433 . S
C4924 H4920 0.929 . S
C4924 C4926 1.378 . S
C4924 C4928 1.350 . S
C4925 C4928 1.463 . S
C4925 C4930 1.350 . S
C4925 N4933 1.427 . S
C4926 H4917 0.930 . S
C4926 C4924 1.378 . S
C4926 C4927 1.367 . S
C4927 C4926 1.367 . S
C4927 C4929 1.433 . S
C4928 C4924 1.350 . S
C4928 C4925 1.463 . S
C4928 N4932 1.427 . S
C4929 H4919 0.929 . S
C4929 C4927 1.433 . S
C4929 N4932 1.384 . S
C4930 H4921 0.929 . S
C4930 C4922 1.378 . S
C4930 C4925 1.350 . S
C4931 H4918 0.929 . S
C4931 C4923 1.433 . S
C4931 N4933 1.384 . S
N4932 C4928 1.427 . S
N4932 C4929 1.384 . S
N4933 C4925 1.427 . S
N4933 C4931 1.384 . S
H4934 C4940 0.930 . S
H4935 C4944 0.930 . S
H4936 C4949 0.929 . S
H4937 C4947 0.929 . S
H4938 C4942 0.929 . S
H4939 C4948 0.929 . S
C4940 H4934 0.930 . S
C4940 C4941 1.367 . S
C4940 C4948 1.378 . S
C4941 C4940 1.367 . S
C4941 C4949 1.433 . S
C4942 H4938 0.929 . S
C4942 C4944 1.378 . S
C4942 C4946 1.350 . S
C4943 C4946 1.463 . S
C4943 C4948 1.350 . S
C4943 N4951 1.427 . S
C4944 H4935 0.930 . S
C4944 C4942 1.378 . S
C4944 C4945 1.367 . S
C4945 C4944 1.367 . S
C4945 C4947 1.433 . S
C4946 C4942 1.350 . S
C4946 C4943 1.463 . S
C4946 N4950 1.427 . S
C4947 H4937 0.929 . S
C4947 C4945 1.433 . S
C4947 N4950 1.384 . S
C4948 H4939 0.929 . S
C4948 C4940 1.378 . S
C4948 C4943 1.350 . S
C4949 H4936 0.929 . S
C4949 C4941 1.433 . S
C4949 N4951 1.384 . S
N4950 C4946 1.427 . S
N4950 C4947 1.384 . S
N4951 C4943 1.427 . S
N4951 C4949 1.384 . S
H4952 C4958 0.930 . S
H4953 C4962 0.930 . S
H4954 C4967 0.929 . S
H4955 C4965 0.929 . S
H4956 C4960 0.929 . S
H4957 C4966 0.929 . S
C4958 H4952 0.930 . S
C4958 C4959 1.367 . S
C4958 C4966 1.378 . S
C4959 C4958 1.367 . S
C4959 C4967 1.433 . S
C4960 H4956 0.929 . S
C4960 C4962 1.378 . S
C4960 C4964 1.350 . S
C4961 C4964 1.463 . S
C4961 C4966 1.350 . S
C4961 N4969 1.427 . S
C4962 H4953 0.930 . S
C4962 C4960 1.378 . S
C4962 C4963 1.367 . S
C4963 C4962 1.367 . S
C4963 C4965 1.433 . S
C4964 C4960 1.350 . S
C4964 C4961 1.463 . S
C4964 N4968 1.427 . S
C4965 H4955 0.929 . S
C4965 C4963 1.433 . S
C4965 N4968 1.384 . S
C4966 H4957 0.929 . S
C4966 C4958 1.378 . S
C4966 C4961 1.350 . S
C4967 H4954 0.929 . S
C4967 C4959 1.433 . S
C4967 N4969 1.384 . S
N4968 C4964 1.427 . S
N4968 C4965 1.384 . S
N4969 C4961 1.427 . S
N4969 C4967 1.384 . S
H4970 C4976 0.930 . S
H4971 C4980 0.930 . S
H4972 C4985 0.929 . S
H4973 C4983 0.929 . S
H4974 C4978 0.929 . S
H4975 C4984 0.929 . S
C4976 H4970 0.930 . S
C4976 C4977 1.367 . S
C4976 C4984 1.378 . S
C4977 C4976 1.367 . S
C4977 C4985 1.433 . S
C4978 H4974 0.929 . S
C4978 C4980 1.378 . S
C4978 C4982 1.350 . S
C4979 C4982 1.463 . S
C4979 C4984 1.350 . S
C4979 N4987 1.427 . S
C4980 H4971 0.930 . S
C4980 C4978 1.378 . S
C4980 C4981 1.367 . S
C4981 C4980 1.367 . S
C4981 C4983 1.433 . S
C4982 C4978 1.350 . S
C4982 C4979 1.463 . S
C4982 N4986 1.427 . S
C4983 H4973 0.929 . S
C4983 C4981 1.433 . S
C4983 N4986 1.384 . S
C4984 H4975 0.929 . S
C4984 C4976 1.378 . S
C4984 C4979 1.350 . S
C4985 H4972 0.929 . S
C4985 C4977 1.433 . S
C4985 N4987 1.384 . S
N4986 C4982 1.427 . S
N4986 C4983 1.384 . S
N4987 C4979 1.427 . S
N4987 C4985 1.384 . S
H4988 C4994 0.930 . S
H4989 C4998 0.930 . S
H4990 C5003 0.929 . S
H4991 C5001 0.929 . S
H4992 C4996 0.929 . S
H4993 C5002 0.929 . S
C4994 H4988 0.930 . S
C4994 C4995 1.367 . S
C4994 C5002 1.378 . S
C4995 C4994 1.367 . S
C4995 C5003 1.433 . S
C4996 H4992 0.929 . S
C4996 C4998 1.378 . S
C4996 C5000 1.350 . S
C4997 C5000 1.463 . S
C4997 C5002 1.350 . S
C4997 N5005 1.427 . S
C4998 H4989 0.930 . S
C4998 C4996 1.378 . S
C4998 C4999 1.367 . S
C4999 C4998 1.367 . S
C4999 C5001 1.433 . S
C5000 C4996 1.350 . S
C5000 C4997 1.463 . S
C5000 N5004 1.427 . S
C5001 H4991 0.929 . S
C5001 C4999 1.433 . S
C5001 N5004 1.384 . S
C5002 H4993 0.929 . S
C5002 C4994 1.378 . S
C5002 C4997 1.350 . S
C5003 H4990 0.929 . S
C5003 C4995 1.433 . S
C5003 N5005 1.384 . S
N5004 C5000 1.427 . S
N5004 C5001 1.384 . S
N5005 C4997 1.427 . S
N5005 C5003 1.384 . S
H5006 C5012 0.930 . S
H5007 C5016 0.930 . S
H5008 C5021 0.929 . S
H5009 C5019 0.929 . S
H5010 C5014 0.929 . S
H5011 C5020 0.929 . S
C5012 H5006 0.930 . S
C5012 C5013 1.367 . S
C5012 C5020 1.378 . S
C5013 C5012 1.367 . S
C5013 C5021 1.433 . S
C5014 H5010 0.929 . S
C5014 C5016 1.378 . S
C5014 C5018 1.350 . S
C5015 C5018 1.463 . S
C5015 C5020 1.350 . S
C5015 N5023 1.427 . S
C5016 H5007 0.930 . S
C5016 C5014 1.378 . S
C5016 C5017 1.367 . S
C5017 C5016 1.367 . S
C5017 C5019 1.433 . S
C5018 C5014 1.350 . S
C5018 C5015 1.463 . S
C5018 N5022 1.427 . S
C5019 H5009 0.929 . S
C5019 C5017 1.433 . S
C5019 N5022 1.384 . S
C5020 H5011 0.929 . S
C5020 C5012 1.378 . S
C5020 C5015 1.350 . S
C5021 H5008 0.929 . S
C5021 C5013 1.433 . S
C5021 N5023 1.384 . S
N5022 C5018 1.427 . S
N5022 C5019 1.384 . S
N5023 C5015 1.427 . S
N5023 C5021 1.384 . S
H5024 C5030 0.930 . S
H5025 C5034 0.930 . S
H5026 C5039 0.929 . S
H5027 C5037 0.929 . S
H5028 C5032 0.929 . S
H5029 C5038 0.929 . S
C5030 H5024 0.930 . S
C5030 C5031 1.367 . S
C5030 C5038 1.378 . S
C5031 C5030 1.367 . S
C5031 C5039 1.433 . S
C5032 H5028 0.929 . S
C5032 C5034 1.378 . S
C5032 C5036 1.350 . S
C5033 C5036 1.463 . S
C5033 C5038 1.350 . S
C5033 N5041 1.427 . S
C5034 H5025 0.930 . S
C5034 C5032 1.378 . S
C5034 C5035 1.367 . S
C5035 C5034 1.367 . S
C5035 C5037 1.433 . S
C5036 C5032 1.350 . S
C5036 C5033 1.463 . S
C5036 N5040 1.427 . S
C5037 H5027 0.929 . S
C5037 C5035 1.433 . S
C5037 N5040 1.384 . S
C5038 H5029 0.929 . S
C5038 C5030 1.378 . S
C5038 C5033 1.350 . S
C5039 H5026 0.929 . S
C5039 C5031 1.433 . S
C5039 N5041 1.384 . S
N5040 C5036 1.427 . S
N5040 C5037 1.384 . S
N5041 C5033 1.427 . S
N5041 C5039 1.384 . S
H5042 C5048 0.930 . S
H5043 C5052 0.930 . S
H5044 C5057 0.929 . S
H5045 C5055 0.929 . S
H5046 C5050 0.929 . S
H5047 C5056 0.929 . S
C5048 H5042 0.930 . S
C5048 C5049 1.367 . S
C5048 C5056 1.378 . S
C5049 C5048 1.367 . S
C5049 C5057 1.433 . S
C5050 H5046 0.929 . S
C5050 C5052 1.378 . S
C5050 C5054 1.350 . S
C5051 C5054 1.463 . S
C5051 C5056 1.350 . S
C5051 N5059 1.427 . S
C5052 H5043 0.930 . S
C5052 C5050 1.378 . S
C5052 C5053 1.367 . S
C5053 C5052 1.367 . S
C5053 C5055 1.433 . S
C5054 C5050 1.350 . S
C5054 C5051 1.463 . S
C5054 N5058 1.427 . S
C5055 H5045 0.929 . S
C5055 C5053 1.433 . S
C5055 N5058 1.384 . S
C5056 H5047 0.929 . S
C5056 C5048 1.378 . S
C5056 C5051 1.350 . S
C5057 H5044 0.929 . S
C5057 C5049 1.433 . S
C5057 N5059 1.384 . S
N5058 C5054 1.427 . S
N5058 C5055 1.384 . S
N5059 C5051 1.427 . S
N5059 C5057 1.384 . S
H5060 C5066 0.930 . S
H5061 C5070 0.930 . S
H5062 C5075 0.929 . S
H5063 C5073 0.929 . S
H5064 C5068 0.929 . S
H5065 C5074 0.929 . S
C5066 H5060 0.930 . S
C5066 C5067 1.367 . S
C5066 C5074 1.378 . S
C5067 C5066 1.367 . S
C5067 C5075 1.433 . S
C5068 H5064 0.929 . S
C5068 C5070 1.378 . S
C5068 C5072 1.350 . S
C5069 C5072 1.463 . S
C5069 C5074 1.350 . S
C5069 N5077 1.427 . S
C5070 H5061 0.930 . S
C5070 C5068 1.378 . S
C5070 C5071 1.367 . S
C5071 C5070 1.367 . S
C5071 C5073 1.433 . S
C5072 C5068 1.350 . S
C5072 C5069 1.463 . S
C5072 N5076 1.427 . S
C5073 H5063 0.929 . S
C5073 C5071 1.433 . S
C5073 N5076 1.384 . S
C5074 H5065 0.929 . S
C5074 C5066 1.378 . S
C5074 C5069 1.350 . S
C5075 H5062 0.929 . S
C5075 C5067 1.433 . S
C5075 N5077 1.384 . S
N5076 C5072 1.427 . S
N5076 C5073 1.384 . S
N5077 C5069 1.427 . S
N5077 C5075 1.384 . S
H5078 C5084 0.930 . S
H5079 C5088 0.930 . S
H5080 C5093 0.929 . S
H5081 C5091 0.929 . S
H5082 C5086 0.929 . S
H5083 C5092 0.929 . S
C5084 H5078 0.930 . S
C5084 C5085 1.367 . S
C5084 C5092 1.378 . S
C5085 C5084 1.367 . S
C5085 C5093 1.433 . S
C5086 H5082 0.929 . S
C5086 C5088 1.378 . S
C5086 C5090 1.350 . S
C5087 C5090 1.463 . S
C5087 C5092 1.350 . S
C5087 N5095 1.427 . S
C5088 H5079 0.930 . S
C5088 C5086 1.378 . S
C5088 C5089 1.367 . S
C5089 C5088 1.367 . S
C5089 C5091 1.433 . S
C5090 C5086 1.350 . S
C5090 C5087 1.463 . S
C5090 N5094 1.427 . S
C5091 H5081 0.929 . S
C5091 C5089 1.433 . S
C5091 N5094 1.384 . S
C5092 H5083 0.929 . S
C5092 C5084 1.378 . S
C5092 C5087 1.350 . S
C5093 H5080 0.929 . S
C5093 C5085 1.433 . S
C5093 N5095 1.384 . S
N5094 C5090 1.427 . S
N5094 C5091 1.384 . S
N5095 C5087 1.427 . S
N5095 C5093 1.384 . S
H5096 C5102 0.930 . S
H5097 C5106 0.930 . S
H5098 C5111 0.929 . S
H5099 C5109 0.929 . S
H5100 C5104 0.929 . S
H5101 C5110 0.929 . S
C5102 H5096 0.930 . S
C5102 C5103 1.367 . S
C5102 C5110 1.378 . S
C5103 C5102 1.367 . S
C5103 C5111 1.433 . S
C5104 H5100 0.929 . S
C5104 C5106 1.378 . S
C5104 C5108 1.350 . S
C5105 C5108 1.463 . S
C5105 C5110 1.350 . S
C5105 N5113 1.427 . S
C5106 H5097 0.930 . S
C5106 C5104 1.378 . S
C5106 C5107 1.367 . S
C5107 C5106 1.367 . S
C5107 C5109 1.433 . S
C5108 C5104 1.350 . S
C5108 C5105 1.463 . S
C5108 N5112 1.427 . S
C5109 H5099 0.929 . S
C5109 C5107 1.433 . S
C5109 N5112 1.384 . S
C5110 H5101 0.929 . S
C5110 C5102 1.378 . S
C5110 C5105 1.350 . S
C5111 H5098 0.929 . S
C5111 C5103 1.433 . S
C5111 N5113 1.384 . S
N5112 C5108 1.427 . S
N5112 C5109 1.384 . S
N5113 C5105 1.427 . S
N5113 C5111 1.384 . S
H5114 C5120 0.930 . S
H5115 C5124 0.930 . S
H5116 C5129 0.929 . S
H5117 C5127 0.929 . S
H5118 C5122 0.929 . S
H5119 C5128 0.929 . S
C5120 H5114 0.930 . S
C5120 C5121 1.367 . S
C5120 C5128 1.378 . S
C5121 C5120 1.367 . S
C5121 C5129 1.433 . S
C5122 H5118 0.929 . S
C5122 C5124 1.378 . S
C5122 C5126 1.350 . S
C5123 C5126 1.463 . S
C5123 C5128 1.350 . S
C5123 N5131 1.427 . S
C5124 H5115 0.930 . S
C5124 C5122 1.378 . S
C5124 C5125 1.367 . S
C5125 C5124 1.367 . S
C5125 C5127 1.433 . S
C5126 C5122 1.350 . S
C5126 C5123 1.463 . S
C5126 N5130 1.427 . S
C5127 H5117 0.929 . S
C5127 C5125 1.433 . S
C5127 N5130 1.384 . S
C5128 H5119 0.929 . S
C5128 C5120 1.378 . S
C5128 C5123 1.350 . S
C5129 H5116 0.929 . S
C5129 C5121 1.433 . S
C5129 N5131 1.384 . S
N5130 C5126 1.427 . S
N5130 C5127 1.384 . S
N5131 C5123 1.427 . S
N5131 C5129 1.384 . S
H5132 C5138 0.930 . S
H5133 C5142 0.930 . S
H5134 C5147 0.929 . S
H5135 C5145 0.929 . S
H5136 C5140 0.929 . S
H5137 C5146 0.929 . S
C5138 H5132 0.930 . S
C5138 C5139 1.367 . S
C5138 C5146 1.378 . S
C5139 C5138 1.367 . S
C5139 C5147 1.433 . S
C5140 H5136 0.929 . S
C5140 C5142 1.378 . S
C5140 C5144 1.350 . S
C5141 C5144 1.463 . S
C5141 C5146 1.350 . S
C5141 N5149 1.427 . S
C5142 H5133 0.930 . S
C5142 C5140 1.378 . S
C5142 C5143 1.367 . S
C5143 C5142 1.367 . S
C5143 C5145 1.433 . S
C5144 C5140 1.350 . S
C5144 C5141 1.463 . S
C5144 N5148 1.427 . S
C5145 H5135 0.929 . S
C5145 C5143 1.433 . S
C5145 N5148 1.384 . S
C5146 H5137 0.929 . S
C5146 C5138 1.378 . S
C5146 C5141 1.350 . S
C5147 H5134 0.929 . S
C5147 C5139 1.433 . S
C5147 N5149 1.384 . S
N5148 C5144 1.427 . S
N5148 C5145 1.384 . S
N5149 C5141 1.427 . S
N5149 C5147 1.384 . S
H5150 C5156 0.930 . S
H5151 C5160 0.930 . S
H5152 C5165 0.929 . S
H5153 C5163 0.929 . S
H5154 C5158 0.929 . S
H5155 C5164 0.929 . S
C5156 H5150 0.930 . S
C5156 C5157 1.367 . S
C5156 C5164 1.378 . S
C5157 C5156 1.367 . S
C5157 C5165 1.433 . S
C5158 H5154 0.929 . S
C5158 C5160 1.378 . S
C5158 C5162 1.350 . S
C5159 C5162 1.463 . S
C5159 C5164 1.350 . S
C5159 N5167 1.427 . S
C5160 H5151 0.930 . S
C5160 C5158 1.378 . S
C5160 C5161 1.367 . S
C5161 C5160 1.367 . S
C5161 C5163 1.433 . S
C5162 C5158 1.350 . S
C5162 C5159 1.463 . S
C5162 N5166 1.427 . S
C5163 H5153 0.929 . S
C5163 C5161 1.433 . S
C5163 N5166 1.384 . S
C5164 H5155 0.929 . S
C5164 C5156 1.378 . S
C5164 C5159 1.350 . S
C5165 H5152 0.929 . S
C5165 C5157 1.433 . S
C5165 N5167 1.384 . S
N5166 C5162 1.427 . S
N5166 C5163 1.384 . S
N5167 C5159 1.427 . S
N5167 C5165 1.384 . S
H5168 C5174 0.930 . S
H5169 C5178 0.930 . S
H5170 C5183 0.929 . S
H5171 C5181 0.929 . S
H5172 C5176 0.929 . S
H5173 C5182 0.929 . S
C5174 H5168 0.930 . S
C5174 C5175 1.367 . S
C5174 C5182 1.378 . S
C5175 C5174 1.367 . S
C5175 C5183 1.433 . S
C5176 H5172 0.929 . S
C5176 C5178 1.378 . S
C5176 C5180 1.350 . S
C5177 C5180 1.463 . S
C5177 C5182 1.350 . S
C5177 N5185 1.427 . S
C5178 H5169 0.930 . S
C5178 C5176 1.378 . S
C5178 C5179 1.367 . S
C5179 C5178 1.367 . S
C5179 C5181 1.433 . S
C5180 C5176 1.350 . S
C5180 C5177 1.463 . S
C5180 N5184 1.427 . S
C5181 H5171 0.929 . S
C5181 C5179 1.433 . S
C5181 N5184 1.384 . S
C5182 H5173 0.929 . S
C5182 C5174 1.378 . S
C5182 C5177 1.350 . S
C5183 H5170 0.929 . S
C5183 C5175 1.433 . S
C5183 N5185 1.384 . S
N5184 C5180 1.427 . S
N5184 C5181 1.384 . S
N5185 C5177 1.427 . S
N5185 C5183 1.384 . S
H5186 C5192 0.930 . S
H5187 C5196 0.930 . S
H5188 C5201 0.929 . S
H5189 C5199 0.929 . S
H5190 C5194 0.929 . S
H5191 C5200 0.929 . S
C5192 H5186 0.930 . S
C5192 C5193 1.367 . S
C5192 C5200 1.378 . S
C5193 C5192 1.367 . S
C5193 C5201 1.433 . S
C5194 H5190 0.929 . S
C5194 C5196 1.378 . S
C5194 C5198 1.350 . S
C5195 C5198 1.463 . S
C5195 C5200 1.350 . S
C5195 N5203 1.427 . S
C5196 H5187 0.930 . S
C5196 C5194 1.378 . S
C5196 C5197 1.367 . S
C5197 C5196 1.367 . S
C5197 C5199 1.433 . S
C5198 C5194 1.350 . S
C5198 C5195 1.463 . S
C5198 N5202 1.427 . S
C5199 H5189 0.929 . S
C5199 C5197 1.433 . S
C5199 N5202 1.384 . S
C5200 H5191 0.929 . S
C5200 C5192 1.378 . S
C5200 C5195 1.350 . S
C5201 H5188 0.929 . S
C5201 C5193 1.433 . S
C5201 N5203 1.384 . S
N5202 C5198 1.427 . S
N5202 C5199 1.384 . S
N5203 C5195 1.427 . S
N5203 C5201 1.384 . S
H5204 C5210 0.930 . S
H5205 C5214 0.930 . S
H5206 C5219 0.929 . S
H5207 C5217 0.929 . S
H5208 C5212 0.929 . S
H5209 C5218 0.929 . S
C5210 H5204 0.930 . S
C5210 C5211 1.367 . S
C5210 C5218 1.378 . S
C5211 C5210 1.367 . S
C5211 C5219 1.433 . S
C5212 H5208 0.929 . S
C5212 C5214 1.378 . S
C5212 C5216 1.350 . S
C5213 C5216 1.463 . S
C5213 C5218 1.350 . S
C5213 N5221 1.427 . S
C5214 H5205 0.930 . S
C5214 C5212 1.378 . S
C5214 C5215 1.367 . S
C5215 C5214 1.367 . S
C5215 C5217 1.433 . S
C5216 C5212 1.350 . S
C5216 C5213 1.463 . S
C5216 N5220 1.427 . S
C5217 H5207 0.929 . S
C5217 C5215 1.433 . S
C5217 N5220 1.384 . S
C5218 H5209 0.929 . S
C5218 C5210 1.378 . S
C5218 C5213 1.350 . S
C5219 H5206 0.929 . S
C5219 C5211 1.433 . S
C5219 N5221 1.384 . S
N5220 C5216 1.427 . S
N5220 C5217 1.384 . S
N5221 C5213 1.427 . S
N5221 C5219 1.384 . S
H5222 C5228 0.930 . S
H5223 C5232 0.930 . S
H5224 C5237 0.929 . S
H5225 C5235 0.929 . S
H5226 C5230 0.929 . S
H5227 C5236 0.929 . S
C5228 H5222 0.930 . S
C5228 C5229 1.367 . S
C5228 C5236 1.378 . S
C5229 C5228 1.367 . S
C5229 C5237 1.433 . S
C5230 H5226 0.929 . S
C5230 C5232 1.378 . S
C5230 C5234 1.350 . S
C5231 C5234 1.463 . S
C5231 C5236 1.350 . S
C5231 N5239 1.427 . S
C5232 H5223 0.930 . S
C5232 C5230 1.378 . S
C5232 C5233 1.367 . S
C5233 C5232 1.367 . S
C5233 C5235 1.433 . S
C5234 C5230 1.350 . S
C5234 C5231 1.463 . S
C5234 N5238 1.427 . S
C5235 H5225 0.929 . S
C5235 C5233 1.433 . S
C5235 N5238 1.384 . S
C5236 H5227 0.929 . S
C5236 C5228 1.378 . S
C5236 C5231 1.350 . S
C5237 H5224 0.929 . S
C5237 C5229 1.433 . S
C5237 N5239 1.384 . S
N5238 C5234 1.427 . S
N5238 C5235 1.384 . S
N5239 C5231 1.427 . S
N5239 C5237 1.384 . S
H5240 C5246 0.930 . S
H5241 C5250 0.930 . S
H5242 C5255 0.929 . S
H5243 C5253 0.929 . S
H5244 C5248 0.929 . S
H5245 C5254 0.929 . S
C5246 H5240 0.930 . S
C5246 C5247 1.367 . S
C5246 C5254 1.378 . S
C5247 C5246 1.367 . S
C5247 C5255 1.433 . S
C5248 H5244 0.929 . S
C5248 C5250 1.378 . S
C5248 C5252 1.350 . S
C5249 C5252 1.463 . S
C5249 C5254 1.350 . S
C5249 N5257 1.427 . S
C5250 H5241 0.930 . S
C5250 C5248 1.378 . S
C5250 C5251 1.367 . S
C5251 C5250 1.367 . S
C5251 C5253 1.433 . S
C5252 C5248 1.350 . S
C5252 C5249 1.463 . S
C5252 N5256 1.427 . S
C5253 H5243 0.929 . S
C5253 C5251 1.433 . S
C5253 N5256 1.384 . S
C5254 H5245 0.929 . S
C5254 C5246 1.378 . S
C5254 C5249 1.350 . S
C5255 H5242 0.929 . S
C5255 C5247 1.433 . S
C5255 N5257 1.384 . S
N5256 C5252 1.427 . S
N5256 C5253 1.384 . S
N5257 C5249 1.427 . S
N5257 C5255 1.384 . S
H5258 C5264 0.930 . S
H5259 C5268 0.930 . S
H5260 C5273 0.929 . S
H5261 C5271 0.929 . S
H5262 C5266 0.929 . S
H5263 C5272 0.929 . S
C5264 H5258 0.930 . S
C5264 C5265 1.367 . S
C5264 C5272 1.378 . S
C5265 C5264 1.367 . S
C5265 C5273 1.433 . S
C5266 H5262 0.929 . S
C5266 C5268 1.378 . S
C5266 C5270 1.350 . S
C5267 C5270 1.463 . S
C5267 C5272 1.350 . S
C5267 N5275 1.427 . S
C5268 H5259 0.930 . S
C5268 C5266 1.378 . S
C5268 C5269 1.367 . S
C5269 C5268 1.367 . S
C5269 C5271 1.433 . S
C5270 C5266 1.350 . S
C5270 C5267 1.463 . S
C5270 N5274 1.427 . S
C5271 H5261 0.929 . S
C5271 C5269 1.433 . S
C5271 N5274 1.384 . S
C5272 H5263 0.929 . S
C5272 C5264 1.378 . S
C5272 C5267 1.350 . S
C5273 H5260 0.929 . S
C5273 C5265 1.433 . S
C5273 N5275 1.384 . S
N5274 C5270 1.427 . S
N5274 C5271 1.384 . S
N5275 C5267 1.427 . S
N5275 C5273 1.384 . S
H5276 C5282 0.930 . S
H5277 C5286 0.930 . S
H5278 C5291 0.929 . S
H5279 C5289 0.929 . S
H5280 C5284 0.929 . S
H5281 C5290 0.929 . S
C5282 H5276 0.930 . S
C5282 C5283 1.367 . S
C5282 C5290 1.378 . S
C5283 C5282 1.367 . S
C5283 C5291 1.433 . S
C5284 H5280 0.929 . S
C5284 C5286 1.378 . S
C5284 C5288 1.350 . S
C5285 C5288 1.463 . S
C5285 C5290 1.350 . S
C5285 N5293 1.427 . S
C5286 H5277 0.930 . S
C5286 C5284 1.378 . S
C5286 C5287 1.367 . S
C5287 C5286 1.367 . S
C5287 C5289 1.433 . S
C5288 C5284 1.350 . S
C5288 C5285 1.463 . S
C5288 N5292 1.427 . S
C5289 H5279 0.929 . S
C5289 C5287 1.433 . S
C5289 N5292 1.384 . S
C5290 H5281 0.929 . S
C5290 C5282 1.378 . S
C5290 C5285 1.350 . S
C5291 H5278 0.929 . S
C5291 C5283 1.433 . S
C5291 N5293 1.384 . S
N5292 C5288 1.427 . S
N5292 C5289 1.384 . S
N5293 C5285 1.427 . S
N5293 C5291 1.384 . S
H5294 C5300 0.930 . S
H5295 C5304 0.930 . S
H5296 C5309 0.929 . S
H5297 C5307 0.929 . S
H5298 C5302 0.929 . S
H5299 C5308 0.929 . S
C5300 H5294 0.930 . S
C5300 C5301 1.367 . S
C5300 C5308 1.378 . S
C5301 C5300 1.367 . S
C5301 C5309 1.433 . S
C5302 H5298 0.929 . S
C5302 C5304 1.378 . S
C5302 C5306 1.350 . S
C5303 C5306 1.463 . S
C5303 C5308 1.350 . S
C5303 N5311 1.427 . S
C5304 H5295 0.930 . S
C5304 C5302 1.378 . S
C5304 C5305 1.367 . S
C5305 C5304 1.367 . S
C5305 C5307 1.433 . S
C5306 C5302 1.350 . S
C5306 C5303 1.463 . S
C5306 N5310 1.427 . S
C5307 H5297 0.929 . S
C5307 C5305 1.433 . S
C5307 N5310 1.384 . S
C5308 H5299 0.929 . S
C5308 C5300 1.378 . S
C5308 C5303 1.350 . S
C5309 H5296 0.929 . S
C5309 C5301 1.433 . S
C5309 N5311 1.384 . S
N5310 C5306 1.427 . S
N5310 C5307 1.384 . S
N5311 C5303 1.427 . S
N5311 C5309 1.384 . S
H5312 C5318 0.930 . S
H5313 C5322 0.930 . S
H5314 C5327 0.929 . S
H5315 C5325 0.929 . S
H5316 C5320 0.929 . S
H5317 C5326 0.929 . S
C5318 H5312 0.930 . S
C5318 C5319 1.367 . S
C5318 C5326 1.378 . S
C5319 C5318 1.367 . S
C5319 C5327 1.433 . S
C5320 H5316 0.929 . S
C5320 C5322 1.378 . S
C5320 C5324 1.350 . S
C5321 C5324 1.463 . S
C5321 C5326 1.350 . S
C5321 N5329 1.427 . S
C5322 H5313 0.930 . S
C5322 C5320 1.378 . S
C5322 C5323 1.367 . S
C5323 C5322 1.367 . S
C5323 C5325 1.433 . S
C5324 C5320 1.350 . S
C5324 C5321 1.463 . S
C5324 N5328 1.427 . S
C5325 H5315 0.929 . S
C5325 C5323 1.433 . S
C5325 N5328 1.384 . S
C5326 H5317 0.929 . S
C5326 C5318 1.378 . S
C5326 C5321 1.350 . S
C5327 H5314 0.929 . S
C5327 C5319 1.433 . S
C5327 N5329 1.384 . S
N5328 C5324 1.427 . S
N5328 C5325 1.384 . S
N5329 C5321 1.427 . S
N5329 C5327 1.384 . S
H5330 C5336 0.930 . S
H5331 C5340 0.930 . S
H5332 C5345 0.929 . S
H5333 C5343 0.929 . S
H5334 C5338 0.929 . S
H5335 C5344 0.929 . S
C5336 H5330 0.930 . S
C5336 C5337 1.367 . S
C5336 C5344 1.378 . S
C5337 C5336 1.367 . S
C5337 C5345 1.433 . S
C5338 H5334 0.929 . S
C5338 C5340 1.378 . S
C5338 C5342 1.350 . S
C5339 C5342 1.463 . S
C5339 C5344 1.350 . S
C5339 N5347 1.427 . S
C5340 H5331 0.930 . S
C5340 C5338 1.378 . S
C5340 C5341 1.367 . S
C5341 C5340 1.367 . S
C5341 C5343 1.433 . S
C5342 C5338 1.350 . S
C5342 C5339 1.463 . S
C5342 N5346 1.427 . S
C5343 H5333 0.929 . S
C5343 C5341 1.433 . S
C5343 N5346 1.384 . S
C5344 H5335 0.929 . S
C5344 C5336 1.378 . S
C5344 C5339 1.350 . S
C5345 H5332 0.929 . S
C5345 C5337 1.433 . S
C5345 N5347 1.384 . S
N5346 C5342 1.427 . S
N5346 C5343 1.384 . S
N5347 C5339 1.427 . S
N5347 C5345 1.384 . S
H5348 C5354 0.930 . S
H5349 C5358 0.930 . S
H5350 C5363 0.929 . S
H5351 C5361 0.929 . S
H5352 C5356 0.929 . S
H5353 C5362 0.929 . S
C5354 H5348 0.930 . S
C5354 C5355 1.367 . S
C5354 C5362 1.378 . S
C5355 C5354 1.367 . S
C5355 C5363 1.433 . S
C5356 H5352 0.929 . S
C5356 C5358 1.378 . S
C5356 C5360 1.350 . S
C5357 C5360 1.463 . S
C5357 C5362 1.350 . S
C5357 N5365 1.427 . S
C5358 H5349 0.930 . S
C5358 C5356 1.378 . S
C5358 C5359 1.367 . S
C5359 C5358 1.367 . S
C5359 C5361 1.433 . S
C5360 C5356 1.350 . S
C5360 C5357 1.463 . S
C5360 N5364 1.427 . S
C5361 H5351 0.929 . S
C5361 C5359 1.433 . S
C5361 N5364 1.384 . S
C5362 H5353 0.929 . S
C5362 C5354 1.378 . S
C5362 C5357 1.350 . S
C5363 H5350 0.929 . S
C5363 C5355 1.433 . S
C5363 N5365 1.384 . S
N5364 C5360 1.427 . S
N5364 C5361 1.384 . S
N5365 C5357 1.427 . S
N5365 C5363 1.384 . S
H5366 C5372 0.930 . S
H5367 C5376 0.930 . S
H5368 C5381 0.929 . S
H5369 C5379 0.929 . S
H5370 C5374 0.929 . S
H5371 C5380 0.929 . S
C5372 H5366 0.930 . S
C5372 C5373 1.367 . S
C5372 C5380 1.378 . S
C5373 C5372 1.367 . S
C5373 C5381 1.433 . S
C5374 H5370 0.929 . S
C5374 C5376 1.378 . S
C5374 C5378 1.350 . S
C5375 C5378 1.463 . S
C5375 C5380 1.350 . S
C5375 N5383 1.427 . S
C5376 H5367 0.930 . S
C5376 C5374 1.378 . S
C5376 C5377 1.367 . S
C5377 C5376 1.367 . S
C5377 C5379 1.433 . S
C5378 C5374 1.350 . S
C5378 C5375 1.463 . S
C5378 N5382 1.427 . S
C5379 H5369 0.929 . S
C5379 C5377 1.433 . S
C5379 N5382 1.384 . S
C5380 H5371 0.929 . S
C5380 C5372 1.378 . S
C5380 C5375 1.350 . S
C5381 H5368 0.929 . S
C5381 C5373 1.433 . S
C5381 N5383 1.384 . S
N5382 C5378 1.427 . S
N5382 C5379 1.384 . S
N5383 C5375 1.427 . S
N5383 C5381 1.384 . S
H5384 C5390 0.930 . S
H5385 C5394 0.930 . S
H5386 C5399 0.929 . S
H5387 C5397 0.929 . S
H5388 C5392 0.929 . S
H5389 C5398 0.929 . S
C5390 H5384 0.930 . S
C5390 C5391 1.367 . S
C5390 C5398 1.378 . S
C5391 C5390 1.367 . S
C5391 C5399 1.433 . S
C5392 H5388 0.929 . S
C5392 C5394 1.378 . S
C5392 C5396 1.350 . S
C5393 C5396 1.463 . S
C5393 C5398 1.350 . S
C5393 N5401 1.427 . S
C5394 H5385 0.930 . S
C5394 C5392 1.378 . S
C5394 C5395 1.367 . S
C5395 C5394 1.367 . S
C5395 C5397 1.433 . S
C5396 C5392 1.350 . S
C5396 C5393 1.463 . S
C5396 N5400 1.427 . S
C5397 H5387 0.929 . S
C5397 C5395 1.433 . S
C5397 N5400 1.384 . S
C5398 H5389 0.929 . S
C5398 C5390 1.378 . S
C5398 C5393 1.350 . S
C5399 H5386 0.929 . S
C5399 C5391 1.433 . S
C5399 N5401 1.384 . S
N5400 C5396 1.427 . S
N5400 C5397 1.384 . S
N5401 C5393 1.427 . S
N5401 C5399 1.384 . S
H5402 C5408 0.930 . S
H5403 C5412 0.930 . S
H5404 C5417 0.929 . S
H5405 C5415 0.929 . S
H5406 C5410 0.929 . S
H5407 C5416 0.929 . S
C5408 H5402 0.930 . S
C5408 C5409 1.367 . S
C5408 C5416 1.378 . S
C5409 C5408 1.367 . S
C5409 C5417 1.433 . S
C5410 H5406 0.929 . S
C5410 C5412 1.378 . S
C5410 C5414 1.350 . S
C5411 C5414 1.463 . S
C5411 C5416 1.350 . S
C5411 N5419 1.427 . S
C5412 H5403 0.930 . S
C5412 C5410 1.378 . S
C5412 C5413 1.367 . S
C5413 C5412 1.367 . S
C5413 C5415 1.433 . S
C5414 C5410 1.350 . S
C5414 C5411 1.463 . S
C5414 N5418 1.427 . S
C5415 H5405 0.929 . S
C5415 C5413 1.433 . S
C5415 N5418 1.384 . S
C5416 H5407 0.929 . S
C5416 C5408 1.378 . S
C5416 C5411 1.350 . S
C5417 H5404 0.929 . S
C5417 C5409 1.433 . S
C5417 N5419 1.384 . S
N5418 C5414 1.427 . S
N5418 C5415 1.384 . S
N5419 C5411 1.427 . S
N5419 C5417 1.384 . S
H5420 C5426 0.930 . S
H5421 C5430 0.930 . S
H5422 C5435 0.929 . S
H5423 C5433 0.929 . S
H5424 C5428 0.929 . S
H5425 C5434 0.929 . S
C5426 H5420 0.930 . S
C5426 C5427 1.367 . S
C5426 C5434 1.378 . S
C5427 C5426 1.367 . S
C5427 C5435 1.433 . S
C5428 H5424 0.929 . S
C5428 C5430 1.378 . S
C5428 C5432 1.350 . S
C5429 C5432 1.463 . S
C5429 C5434 1.350 . S
C5429 N5437 1.427 . S
C5430 H5421 0.930 . S
C5430 C5428 1.378 . S
C5430 C5431 1.367 . S
C5431 C5430 1.367 . S
C5431 C5433 1.433 . S
C5432 C5428 1.350 . S
C5432 C5429 1.463 . S
C5432 N5436 1.427 . S
C5433 H5423 0.929 . S
C5433 C5431 1.433 . S
C5433 N5436 1.384 . S
C5434 H5425 0.929 . S
C5434 C5426 1.378 . S
C5434 C5429 1.350 . S
C5435 H5422 0.929 . S
C5435 C5427 1.433 . S
C5435 N5437 1.384 . S
N5436 C5432 1.427 . S
N5436 C5433 1.384 . S
N5437 C5429 1.427 . S
N5437 C5435 1.384 . S
H5438 C5444 0.930 . S
H5439 C5448 0.930 . S
H5440 C5453 0.929 . S
H5441 C5451 0.929 . S
H5442 C5446 0.929 . S
H5443 C5452 0.929 . S
C5444 H5438 0.930 . S
C5444 C5445 1.367 . S
C5444 C5452 1.378 . S
C5445 C5444 1.367 . S
C5445 C5453 1.433 . S
C5446 H5442 0.929 . S
C5446 C5448 1.378 . S
C5446 C5450 1.350 . S
C5447 C5450 1.463 . S
C5447 C5452 1.350 . S
C5447 N5455 1.427 . S
C5448 H5439 0.930 . S
C5448 C5446 1.378 . S
C5448 C5449 1.367 . S
C5449 C5448 1.367 . S
C5449 C5451 1.433 . S
C5450 C5446 1.350 . S
C5450 C5447 1.463 . S
C5450 N5454 1.427 . S
C5451 H5441 0.929 . S
C5451 C5449 1.433 . S
C5451 N5454 1.384 . S
C5452 H5443 0.929 . S
C5452 C5444 1.378 . S
C5452 C5447 1.350 . S
C5453 H5440 0.929 . S
C5453 C5445 1.433 . S
C5453 N5455 1.384 . S
N5454 C5450 1.427 . S
N5454 C5451 1.384 . S
N5455 C5447 1.427 . S
N5455 C5453 1.384 . S
H5456 C5462 0.930 . S
H5457 C5466 0.930 . S
H5458 C5471 0.929 . S
H5459 C5469 0.929 . S
H5460 C5464 0.929 . S
H5461 C5470 0.929 . S
C5462 H5456 0.930 . S
C5462 C5463 1.367 . S
C5462 C5470 1.378 . S
C5463 C5462 1.367 . S
C5463 C5471 1.433 . S
C5464 H5460 0.929 . S
C5464 C5466 1.378 . S
C5464 C5468 1.350 . S
C5465 C5468 1.463 . S
C5465 C5470 1.350 . S
C5465 N5473 1.427 . S
C5466 H5457 0.930 . S
C5466 C5464 1.378 . S
C5466 C5467 1.367 . S
C5467 C5466 1.367 . S
C5467 C5469 1.433 . S
C5468 C5464 1.350 . S
C5468 C5465 1.463 . S
C5468 N5472 1.427 . S
C5469 H5459 0.929 . S
C5469 C5467 1.433 . S
C5469 N5472 1.384 . S
C5470 H5461 0.929 . S
C5470 C5462 1.378 . S
C5470 C5465 1.350 . S
C5471 H5458 0.929 . S
C5471 C5463 1.433 . S
C5471 N5473 1.384 . S
N5472 C5468 1.427 . S
N5472 C5469 1.384 . S
N5473 C5465 1.427 . S
N5473 C5471 1.384 . S
H5474 C5480 0.930 . S
H5475 C5484 0.930 . S
H5476 C5489 0.929 . S
H5477 C5487 0.929 . S
H5478 C5482 0.929 . S
H5479 C5488 0.929 . S
C5480 H5474 0.930 . S
C5480 C5481 1.367 . S
C5480 C5488 1.378 . S
C5481 C5480 1.367 . S
C5481 C5489 1.433 . S
C5482 H5478 0.929 . S
C5482 C5484 1.378 . S
C5482 C5486 1.350 . S
C5483 C5486 1.463 . S
C5483 C5488 1.350 . S
C5483 N5491 1.427 . S
C5484 H5475 0.930 . S
C5484 C5482 1.378 . S
C5484 C5485 1.367 . S
C5485 C5484 1.367 . S
C5485 C5487 1.433 . S
C5486 C5482 1.350 . S
C5486 C5483 1.463 . S
C5486 N5490 1.427 . S
C5487 H5477 0.929 . S
C5487 C5485 1.433 . S
C5487 N5490 1.384 . S
C5488 H5479 0.929 . S
C5488 C5480 1.378 . S
C5488 C5483 1.350 . S
C5489 H5476 0.929 . S
C5489 C5481 1.433 . S
C5489 N5491 1.384 . S
N5490 C5486 1.427 . S
N5490 C5487 1.384 . S
N5491 C5483 1.427 . S
N5491 C5489 1.384 . S
H5492 C5498 0.930 . S
H5493 C5502 0.930 . S
H5494 C5507 0.929 . S
H5495 C5505 0.929 . S
H5496 C5500 0.929 . S
H5497 C5506 0.929 . S
C5498 H5492 0.930 . S
C5498 C5499 1.367 . S
C5498 C5506 1.378 . S
C5499 C5498 1.367 . S
C5499 C5507 1.433 . S
C5500 H5496 0.929 . S
C5500 C5502 1.378 . S
C5500 C5504 1.350 . S
C5501 C5504 1.463 . S
C5501 C5506 1.350 . S
C5501 N5509 1.427 . S
C5502 H5493 0.930 . S
C5502 C5500 1.378 . S
C5502 C5503 1.367 . S
C5503 C5502 1.367 . S
C5503 C5505 1.433 . S
C5504 C5500 1.350 . S
C5504 C5501 1.463 . S
C5504 N5508 1.427 . S
C5505 H5495 0.929 . S
C5505 C5503 1.433 . S
C5505 N5508 1.384 . S
C5506 H5497 0.929 . S
C5506 C5498 1.378 . S
C5506 C5501 1.350 . S
C5507 H5494 0.929 . S
C5507 C5499 1.433 . S
C5507 N5509 1.384 . S
N5508 C5504 1.427 . S
N5508 C5505 1.384 . S
N5509 C5501 1.427 . S
N5509 C5507 1.384 . S
H5510 C5516 0.930 . S
H5511 C5520 0.930 . S
H5512 C5525 0.929 . S
H5513 C5523 0.929 . S
H5514 C5518 0.929 . S
H5515 C5524 0.929 . S
C5516 H5510 0.930 . S
C5516 C5517 1.367 . S
C5516 C5524 1.378 . S
C5517 C5516 1.367 . S
C5517 C5525 1.433 . S
C5518 H5514 0.929 . S
C5518 C5520 1.378 . S
C5518 C5522 1.350 . S
C5519 C5522 1.463 . S
C5519 C5524 1.350 . S
C5519 N5527 1.427 . S
C5520 H5511 0.930 . S
C5520 C5518 1.378 . S
C5520 C5521 1.367 . S
C5521 C5520 1.367 . S
C5521 C5523 1.433 . S
C5522 C5518 1.350 . S
C5522 C5519 1.463 . S
C5522 N5526 1.427 . S
C5523 H5513 0.929 . S
C5523 C5521 1.433 . S
C5523 N5526 1.384 . S
C5524 H5515 0.929 . S
C5524 C5516 1.378 . S
C5524 C5519 1.350 . S
C5525 H5512 0.929 . S
C5525 C5517 1.433 . S
C5525 N5527 1.384 . S
N5526 C5522 1.427 . S
N5526 C5523 1.384 . S
N5527 C5519 1.427 . S
N5527 C5525 1.384 . S
H5528 C5534 0.930 . S
H5529 C5538 0.930 . S
H5530 C5543 0.929 . S
H5531 C5541 0.929 . S
H5532 C5536 0.929 . S
H5533 C5542 0.929 . S
C5534 H5528 0.930 . S
C5534 C5535 1.367 . S
C5534 C5542 1.378 . S
C5535 C5534 1.367 . S
C5535 C5543 1.433 . S
C5536 H5532 0.929 . S
C5536 C5538 1.378 . S
C5536 C5540 1.350 . S
C5537 C5540 1.463 . S
C5537 C5542 1.350 . S
C5537 N5545 1.427 . S
C5538 H5529 0.930 . S
C5538 C5536 1.378 . S
C5538 C5539 1.367 . S
C5539 C5538 1.367 . S
C5539 C5541 1.433 . S
C5540 C5536 1.350 . S
C5540 C5537 1.463 . S
C5540 N5544 1.427 . S
C5541 H5531 0.929 . S
C5541 C5539 1.433 . S
C5541 N5544 1.384 . S
C5542 H5533 0.929 . S
C5542 C5534 1.378 . S
C5542 C5537 1.350 . S
C5543 H5530 0.929 . S
C5543 C5535 1.433 . S
C5543 N5545 1.384 . S
N5544 C5540 1.427 . S
N5544 C5541 1.384 . S
N5545 C5537 1.427 . S
N5545 C5543 1.384 . S
H5546 C5552 0.930 . S
H5547 C5556 0.930 . S
H5548 C5561 0.929 . S
H5549 C5559 0.929 . S
H5550 C5554 0.929 . S
H5551 C5560 0.929 . S
C5552 H5546 0.930 . S
C5552 C5553 1.367 . S
C5552 C5560 1.378 . S
C5553 C5552 1.367 . S
C5553 C5561 1.433 . S
C5554 H5550 0.929 . S
C5554 C5556 1.378 . S
C5554 C5558 1.350 . S
C5555 C5558 1.463 . S
C5555 C5560 1.350 . S
C5555 N5563 1.427 . S
C5556 H5547 0.930 . S
C5556 C5554 1.378 . S
C5556 C5557 1.367 . S
C5557 C5556 1.367 . S
C5557 C5559 1.433 . S
C5558 C5554 1.350 . S
C5558 C5555 1.463 . S
C5558 N5562 1.427 . S
C5559 H5549 0.929 . S
C5559 C5557 1.433 . S
C5559 N5562 1.384 . S
C5560 H5551 0.929 . S
C5560 C5552 1.378 . S
C5560 C5555 1.350 . S
C5561 H5548 0.929 . S
C5561 C5553 1.433 . S
C5561 N5563 1.384 . S
N5562 C5558 1.427 . S
N5562 C5559 1.384 . S
N5563 C5555 1.427 . S
N5563 C5561 1.384 . S
H5564 C5570 0.930 . S
H5565 C5574 0.930 . S
H5566 C5579 0.929 . S
H5567 C5577 0.929 . S
H5568 C5572 0.929 . S
H5569 C5578 0.929 . S
C5570 H5564 0.930 . S
C5570 C5571 1.367 . S
C5570 C5578 1.378 . S
C5571 C5570 1.367 . S
C5571 C5579 1.433 . S
C5572 H5568 0.929 . S
C5572 C5574 1.378 . S
C5572 C5576 1.350 . S
C5573 C5576 1.463 . S
C5573 C5578 1.350 . S
C5573 N5581 1.427 . S
C5574 H5565 0.930 . S
C5574 C5572 1.378 . S
C5574 C5575 1.367 . S
C5575 C5574 1.367 . S
C5575 C5577 1.433 . S
C5576 C5572 1.350 . S
C5576 C5573 1.463 . S
C5576 N5580 1.427 . S
C5577 H5567 0.929 . S
C5577 C5575 1.433 . S
C5577 N5580 1.384 . S
C5578 H5569 0.929 . S
C5578 C5570 1.378 . S
C5578 C5573 1.350 . S
C5579 H5566 0.929 . S
C5579 C5571 1.433 . S
C5579 N5581 1.384 . S
N5580 C5576 1.427 . S
N5580 C5577 1.384 . S
N5581 C5573 1.427 . S
N5581 C5579 1.384 . S
H5582 C5588 0.930 . S
H5583 C5592 0.930 . S
H5584 C5597 0.929 . S
H5585 C5595 0.929 . S
H5586 C5590 0.929 . S
H5587 C5596 0.929 . S
C5588 H5582 0.930 . S
C5588 C5589 1.367 . S
C5588 C5596 1.378 . S
C5589 C5588 1.367 . S
C5589 C5597 1.433 . S
C5590 H5586 0.929 . S
C5590 C5592 1.378 . S
C5590 C5594 1.350 . S
C5591 C5594 1.463 . S
C5591 C5596 1.350 . S
C5591 N5599 1.427 . S
C5592 H5583 0.930 . S
C5592 C5590 1.378 . S
C5592 C5593 1.367 . S
C5593 C5592 1.367 . S
C5593 C5595 1.433 . S
C5594 C5590 1.350 . S
C5594 C5591 1.463 . S
C5594 N5598 1.427 . S
C5595 H5585 0.929 . S
C5595 C5593 1.433 . S
C5595 N5598 1.384 . S
C5596 H5587 0.929 . S
C5596 C5588 1.378 . S
C5596 C5591 1.350 . S
C5597 H5584 0.929 . S
C5597 C5589 1.433 . S
C5597 N5599 1.384 . S
N5598 C5594 1.427 . S
N5598 C5595 1.384 . S
N5599 C5591 1.427 . S
N5599 C5597 1.384 . S
H5600 C5606 0.930 . S
H5601 C5610 0.930 . S
H5602 C5615 0.929 . S
H5603 C5613 0.929 . S
H5604 C5608 0.929 . S
H5605 C5614 0.929 . S
C5606 H5600 0.930 . S
C5606 C5607 1.367 . S
C5606 C5614 1.378 . S
C5607 C5606 1.367 . S
C5607 C5615 1.433 . S
C5608 H5604 0.929 . S
C5608 C5610 1.378 . S
C5608 C5612 1.350 . S
C5609 C5612 1.463 . S
C5609 C5614 1.350 . S
C5609 N5617 1.427 . S
C5610 H5601 0.930 . S
C5610 C5608 1.378 . S
C5610 C5611 1.367 . S
C5611 C5610 1.367 . S
C5611 C5613 1.433 . S
C5612 C5608 1.350 . S
C5612 C5609 1.463 . S
C5612 N5616 1.427 . S
C5613 H5603 0.929 . S
C5613 C5611 1.433 . S
C5613 N5616 1.384 . S
C5614 H5605 0.929 . S
C5614 C5606 1.378 . S
C5614 C5609 1.350 . S
C5615 H5602 0.929 . S
C5615 C5607 1.433 . S
C5615 N5617 1.384 . S
N5616 C5612 1.427 . S
N5616 C5613 1.384 . S
N5617 C5609 1.427 . S
N5617 C5615 1.384 . S
H5618 C5624 0.930 . S
H5619 C5628 0.930 . S
H5620 C5633 0.929 . S
H5621 C5631 0.929 . S
H5622 C5626 0.929 . S
H5623 C5632 0.929 . S
C5624 H5618 0.930 . S
C5624 C5625 1.367 . S
C5624 C5632 1.378 . S
C5625 C5624 1.367 . S
C5625 C5633 1.433 . S
C5626 H5622 0.929 . S
C5626 C5628 1.378 . S
C5626 C5630 1.350 . S
C5627 C5630 1.463 . S
C5627 C5632 1.350 . S
C5627 N5635 1.427 . S
C5628 H5619 0.930 . S
C5628 C5626 1.378 . S
C5628 C5629 1.367 . S
C5629 C5628 1.367 . S
C5629 C5631 1.433 . S
C5630 C5626 1.350 . S
C5630 C5627 1.463 . S
C5630 N5634 1.427 . S
C5631 H5621 0.929 . S
C5631 C5629 1.433 . S
C5631 N5634 1.384 . S
C5632 H5623 0.929 . S
C5632 C5624 1.378 . S
C5632 C5627 1.350 . S
C5633 H5620 0.929 . S
C5633 C5625 1.433 . S
C5633 N5635 1.384 . S
N5634 C5630 1.427 . S
N5634 C5631 1.384 . S
N5635 C5627 1.427 . S
N5635 C5633 1.384 . S
H5636 C5642 0.930 . S
H5637 C5646 0.930 . S
H5638 C5651 0.929 . S
H5639 C5649 0.929 . S
H5640 C5644 0.929 . S
H5641 C5650 0.929 . S
C5642 H5636 0.930 . S
C5642 C5643 1.367 . S
C5642 C5650 1.378 . S
C5643 C5642 1.367 . S
C5643 C5651 1.433 . S
C5644 H5640 0.929 . S
C5644 C5646 1.378 . S
C5644 C5648 1.350 . S
C5645 C5648 1.463 . S
C5645 C5650 1.350 . S
C5645 N5653 1.427 . S
C5646 H5637 0.930 . S
C5646 C5644 1.378 . S
C5646 C5647 1.367 . S
C5647 C5646 1.367 . S
C5647 C5649 1.433 . S
C5648 C5644 1.350 . S
C5648 C5645 1.463 . S
C5648 N5652 1.427 . S
C5649 H5639 0.929 . S
C5649 C5647 1.433 . S
C5649 N5652 1.384 . S
C5650 H5641 0.929 . S
C5650 C5642 1.378 . S
C5650 C5645 1.350 . S
C5651 H5638 0.929 . S
C5651 C5643 1.433 . S
C5651 N5653 1.384 . S
N5652 C5648 1.427 . S
N5652 C5649 1.384 . S
N5653 C5645 1.427 . S
N5653 C5651 1.384 . S
H5654 C5660 0.930 . S
H5655 C5664 0.930 . S
H5656 C5669 0.929 . S
H5657 C5667 0.929 . S
H5658 C5662 0.929 . S
H5659 C5668 0.929 . S
C5660 H5654 0.930 . S
C5660 C5661 1.367 . S
C5660 C5668 1.378 . S
C5661 C5660 1.367 . S
C5661 C5669 1.433 . S
C5662 H5658 0.929 . S
C5662 C5664 1.378 . S
C5662 C5666 1.350 . S
C5663 C5666 1.463 . S
C5663 C5668 1.350 . S
C5663 N5671 1.427 . S
C5664 H5655 0.930 . S
C5664 C5662 1.378 . S
C5664 C5665 1.367 . S
C5665 C5664 1.367 . S
C5665 C5667 1.433 . S
C5666 C5662 1.350 . S
C5666 C5663 1.463 . S
C5666 N5670 1.427 . S
C5667 H5657 0.929 . S
C5667 C5665 1.433 . S
C5667 N5670 1.384 . S
C5668 H5659 0.929 . S
C5668 C5660 1.378 . S
C5668 C5663 1.350 . S
C5669 H5656 0.929 . S
C5669 C5661 1.433 . S
C5669 N5671 1.384 . S
N5670 C5666 1.427 . S
N5670 C5667 1.384 . S
N5671 C5663 1.427 . S
N5671 C5669 1.384 . S
H5672 C5678 0.930 . S
H5673 C5682 0.930 . S
H5674 C5687 0.929 . S
H5675 C5685 0.929 . S
H5676 C5680 0.929 . S
H5677 C5686 0.929 . S
C5678 H5672 0.930 . S
C5678 C5679 1.367 . S
C5678 C5686 1.378 . S
C5679 C5678 1.367 . S
C5679 C5687 1.433 . S
C5680 H5676 0.929 . S
C5680 C5682 1.378 . S
C5680 C5684 1.350 . S
C5681 C5684 1.463 . S
C5681 C5686 1.350 . S
C5681 N5689 1.427 . S
C5682 H5673 0.930 . S
C5682 C5680 1.378 . S
C5682 C5683 1.367 . S
C5683 C5682 1.367 . S
C5683 C5685 1.433 . S
C5684 C5680 1.350 . S
C5684 C5681 1.463 . S
C5684 N5688 1.427 . S
C5685 H5675 0.929 . S
C5685 C5683 1.433 . S
C5685 N5688 1.384 . S
C5686 H5677 0.929 . S
C5686 C5678 1.378 . S
C5686 C5681 1.350 . S
C5687 H5674 0.929 . S
C5687 C5679 1.433 . S
C5687 N5689 1.384 . S
N5688 C5684 1.427 . S
N5688 C5685 1.384 . S
N5689 C5681 1.427 . S
N5689 C5687 1.384 . S
H5690 C5696 0.930 . S
H5691 C5700 0.930 . S
H5692 C5705 0.929 . S
H5693 C5703 0.929 . S
H5694 C5698 0.929 . S
H5695 C5704 0.929 . S
C5696 H5690 0.930 . S
C5696 C5697 1.367 . S
C5696 C5704 1.378 . S
C5697 C5696 1.367 . S
C5697 C5705 1.433 . S
C5698 H5694 0.929 . S
C5698 C5700 1.378 . S
C5698 C5702 1.350 . S
C5699 C5702 1.463 . S
C5699 C5704 1.350 . S
C5699 N5707 1.427 . S
C5700 H5691 0.930 . S
C5700 C5698 1.378 . S
C5700 C5701 1.367 . S
C5701 C5700 1.367 . S
C5701 C5703 1.433 . S
C5702 C5698 1.350 . S
C5702 C5699 1.463 . S
C5702 N5706 1.427 . S
C5703 H5693 0.929 . S
C5703 C5701 1.433 . S
C5703 N5706 1.384 . S
C5704 H5695 0.929 . S
C5704 C5696 1.378 . S
C5704 C5699 1.350 . S
C5705 H5692 0.929 . S
C5705 C5697 1.433 . S
C5705 N5707 1.384 . S
N5706 C5702 1.427 . S
N5706 C5703 1.384 . S
N5707 C5699 1.427 . S
N5707 C5705 1.384 . S
H5708 C5714 0.930 . S
H5709 C5718 0.930 . S
H5710 C5723 0.929 . S
H5711 C5721 0.929 . S
H5712 C5716 0.929 . S
H5713 C5722 0.929 . S
C5714 H5708 0.930 . S
C5714 C5715 1.367 . S
C5714 C5722 1.378 . S
C5715 C5714 1.367 . S
C5715 C5723 1.433 . S
C5716 H5712 0.929 . S
C5716 C5718 1.378 . S
C5716 C5720 1.350 . S
C5717 C5720 1.463 . S
C5717 C5722 1.350 . S
C5717 N5725 1.427 . S
C5718 H5709 0.930 . S
C5718 C5716 1.378 . S
C5718 C5719 1.367 . S
C5719 C5718 1.367 . S
C5719 C5721 1.433 . S
C5720 C5716 1.350 . S
C5720 C5717 1.463 . S
C5720 N5724 1.427 . S
C5721 H5711 0.929 . S
C5721 C5719 1.433 . S
C5721 N5724 1.384 . S
C5722 H5713 0.929 . S
C5722 C5714 1.378 . S
C5722 C5717 1.350 . S
C5723 H5710 0.929 . S
C5723 C5715 1.433 . S
C5723 N5725 1.384 . S
N5724 C5720 1.427 . S
N5724 C5721 1.384 . S
N5725 C5717 1.427 . S
N5725 C5723 1.384 . S
H5726 C5732 0.930 . S
H5727 C5736 0.930 . S
H5728 C5741 0.929 . S
H5729 C5739 0.929 . S
H5730 C5734 0.929 . S
H5731 C5740 0.929 . S
C5732 H5726 0.930 . S
C5732 C5733 1.367 . S
C5732 C5740 1.378 . S
C5733 C5732 1.367 . S
C5733 C5741 1.433 . S
C5734 H5730 0.929 . S
C5734 C5736 1.378 . S
C5734 C5738 1.350 . S
C5735 C5738 1.463 . S
C5735 C5740 1.350 . S
C5735 N5743 1.427 . S
C5736 H5727 0.930 . S
C5736 C5734 1.378 . S
C5736 C5737 1.367 . S
C5737 C5736 1.367 . S
C5737 C5739 1.433 . S
C5738 C5734 1.350 . S
C5738 C5735 1.463 . S
C5738 N5742 1.427 . S
C5739 H5729 0.929 . S
C5739 C5737 1.433 . S
C5739 N5742 1.384 . S
C5740 H5731 0.929 . S
C5740 C5732 1.378 . S
C5740 C5735 1.350 . S
C5741 H5728 0.929 . S
C5741 C5733 1.433 . S
C5741 N5743 1.384 . S
N5742 C5738 1.427 . S
N5742 C5739 1.384 . S
N5743 C5735 1.427 . S
N5743 C5741 1.384 . S
C4027 C1309 1.353 . S
C4023 C21 1.618 . S
C4045 C1449 1.221 . S
C4041 C42 1.567 . S
C4059 C82 1.533 . S
C4063 C1509 1.150 . S
C4081 C1633 1.013 . S
C4077 C135 1.675 . S
C4095 C175 1.367 . S
C4099 C1623 1.062 . S
C4113 C221 1.672 . S
C4117 C1335 1.238 . S
C4131 C255 1.546 . S
C4135 C1423 1.287 . S
C4153 C1519 0.921 . S
C4149 C301 1.587 . S
C4171 C1765 1.391 . S
C4167 C15 1.609 . S
C4185 C55 1.487 . S
C4189 C1879 1.204 . S
C4203 C101 1.677 . S
C4207 C2019 1.308 . S
C4225 C2107 1.273 . S
C4221 C141 1.524 . S
C4239 C162 1.529 . S
C4243 C2203 0.879 . S
C4261 C2307 1.148 . S
C4257 C215 1.516 . S
C4275 C261 1.522 . S
C4279 C2449 1.327 . S
C4297 C2535 1.119 . S
C4293 C282 1.456 . S
C4311 C2 1.730 . S
C4315 C2133 1.337 . S
C4329 C181 1.492 . S
C4333 C2317 0.914 . S
C4351 C2475 1.264 . S
C4347 C202 1.649 . S
C4365 C242 1.630 . S
C4369 C2545 0.966 . S
C4387 C2193 1.088 . S
C4383 C295 1.457 . S
C4405 C1905 1.225 . S
C4401 C95 1.653 . S
C4419 C122 1.509 . S
C4423 C1993 1.309 . S
C4441 C1791 1.162 . S
C4437 C61 1.518 . S
C4459 C2677 1.298 . S
C4455 C341 1.577 . S
C4473 C362 1.530 . S
C4477 C2773 0.917 . S
C4491 C402 1.511 . S
C4495 C2877 1.151 . S
C4513 C3001 0.970 . S
C4509 C455 1.573 . S
C4527 C495 1.388 . S
C4531 C2991 1.040 . S
C4545 C541 1.695 . S
C4549 C2703 1.291 . S
C4563 C575 1.437 . S
C4567 C2763 1.106 . S
C4581 C621 1.612 . S
C4585 C2887 0.992 . S
C4603 C2247 1.285 . S
C4599 C335 1.641 . S
C4617 C375 1.419 . S
C4621 C3105 1.066 . S
C4639 C2421 1.141 . S
C4635 C421 1.530 . S
C4653 C461 1.419 . S
C4657 C3219 1.102 . S
C4671 C482 1.493 . S
C4675 C1737 1.126 . S
C4693 C3361 1.311 . S
C4689 C535 1.544 . S
C4707 C581 1.550 . S
C4711 C1975 0.899 . S
C4729 C3447 1.155 . S
C4725 C602 1.462 . S
C4743 C322 1.693 . S
C4747 C3229 0.974 . S
C4765 C3387 1.176 . S
C4761 C501 1.555 . S
C4779 C522 1.580 . S
C4783 C1965 1.187 . S
C4801 C3457 0.986 . S
C4797 C562 1.579 . S
C4815 C615 1.561 . S
C4819 C1747 0.881 . S
C4833 C415 1.612 . S
C4837 C3115 0.926 . S
C4851 C442 1.522 . S
C4855 C2431 0.896 . S
C4869 C381 1.435 . S
C4873 C2221 1.221 . S
C4887 C661 1.547 . S
C4891 C2905 1.272 . S
C4909 C3045 1.190 . S
C4905 C682 1.517 . S
C4923 C722 1.527 . S
C4927 C2649 1.151 . S
C4941 C775 1.718 . S
C4945 C2817 1.309 . S
C4959 C815 1.400 . S
C4963 C2791 1.139 . S
C4977 C861 1.640 . S
C4981 C2931 1.222 . S
C4999 C3019 1.226 . S
C4995 C895 1.505 . S
C5013 C941 1.626 . S
C5017 C2659 0.945 . S
C5035 C3561 1.104 . S
C5031 C655 1.509 . S
C5049 C695 1.459 . S
C5053 C2335 1.191 . S
C5071 C3729 1.308 . S
C5067 C741 1.687 . S
C5085 C781 1.543 . S
C5089 C2563 1.314 . S
C5103 C802 1.554 . S
C5107 C3799 0.895 . S
C5121 C855 1.495 . S
C5125 C1851 1.109 . S
C5143 C3913 0.940 . S
C5139 C901 1.551 . S
C5157 C922 1.502 . S
C5161 C2079 1.174 . S
C5179 C2589 1.292 . S
C5175 C642 1.659 . S
C5197 C1861 0.932 . S
C5193 C821 1.519 . S
C5211 C842 1.572 . S
C5215 C3903 1.160 . S
C5229 C882 1.599 . S
C5233 C2089 0.973 . S
C5251 C3789 1.123 . S
C5247 C935 1.502 . S
C5269 C2361 1.240 . S
C5265 C735 1.645 . S
C5287 C3703 1.331 . S
C5283 C762 1.551 . S
C5305 C3571 0.948 . S
C5301 C701 1.555 . S
C5319 C981 1.559 . S
C5323 C1537 1.294 . S
C5337 C1002 1.555 . S
C5341 C1677 1.241 . S
C5359 C1281 1.163 . S
C5355 C1042 1.525 . S
C5377 C1405 0.996 . S
C5373 C1095 1.666 . S
C5395 C1395 1.098 . S
C5391 C1135 1.437 . S
C5413 C1563 1.284 . S
C5409 C1181 1.684 . S
C5431 C1651 1.212 . S
C5427 C1215 1.493 . S
C5445 C1261 1.695 . S
C5449 C1291 1.038 . S
C5463 C975 1.637 . S
C5467 C3843 1.270 . S
C5485 C3333 1.109 . S
C5481 C1015 1.455 . S
C5503 C3957 1.219 . S
C5499 C1061 1.619 . S
C5521 C3475 1.263 . S
C5517 C1101 1.508 . S
C5535 C1122 1.481 . S
C5539 C3589 1.235 . S
C5557 C3133 1.279 . S
C5553 C1175 1.549 . S
C5575 C3685 0.946 . S
C5571 C1221 1.589 . S
C5589 C1242 1.541 . S
C5593 C3247 1.308 . S
C5611 C3501 1.241 . S
C5607 C962 1.652 . S
C5629 C3159 1.168 . S
C5625 C1141 1.577 . S
C5647 C3675 1.163 . S
C5643 C1162 1.570 . S
C5661 C1202 1.617 . S
C5665 C3273 1.229 . S
C5679 C1255 1.684 . S
C5683 C3615 1.341 . S
C5697 C1055 1.601 . S
C5701 C3343 0.971 . S
C5715 C1082 1.541 . S
C5719 C3931 1.322 . S
C5737 C3817 1.225 . S
C5733 C1021 1.449 . S
