# Generated by pormake.
# Topology pto, (3,4)-cn, num edge types: 1
# Building blocks:
#     Node 0, Type 0, BuildingBlock: KAKCAD_clean_linker_0, # of connection points: 3
#     Node 1, Type 0, BuildingBlock: KAKCAD_clean_linker_0, # of connection points: 3
#     Node 2, Type 0, BuildingBlock: KAKCAD_clean_linker_0, # of connection points: 3
#     Node 3, Type 0, BuildingBlock: KAKCAD_clean_linker_0, # of connection points: 3
#     Node 4, Type 0, BuildingBlock: KAKCAD_clean_linker_0, # of connection points: 3
#     Node 5, Type 0, BuildingBlock: KAKCAD_clean_linker_0, # of connection points: 3
#     Node 6, Type 0, BuildingBlock: KAKCAD_clean_linker_0, # of connection points: 3
#     Node 7, Type 0, BuildingBlock: KAKCAD_clean_linker_0, # of connection points: 3
#     Node 8, Type 1, BuildingBlock: KOZSID_clean_sbu_0, # of connection points: 4
#     Node 9, Type 1, BuildingBlock: KOZSID_clean_sbu_0, # of connection points: 4
#     Node 10, Type 1, BuildingBlock: KOZSID_clean_sbu_0, # of connection points: 4
#     Node 11, Type 1, BuildingBlock: KOZSID_clean_sbu_0, # of connection points: 4
#     Node 12, Type 1, BuildingBlock: KOZSID_clean_sbu_0, # of connection points: 4
#     Node 13, Type 1, BuildingBlock: KOZSID_clean_sbu_0, # of connection points: 4
#     Edge 14, Type (0, 1), BuildingBlock: XUDNAN_clean_linker_2, # of connection points: 2
#     Edge 15, Type (0, 1), BuildingBlock: XUDNAN_clean_linker_2, # of connection points: 2
#     Edge 16, Type (0, 1), BuildingBlock: XUDNAN_clean_linker_2, # of connection points: 2
#     Edge 17, Type (0, 1), BuildingBlock: XUDNAN_clean_linker_2, # of connection points: 2
#     Edge 18, Type (0, 1), BuildingBlock: XUDNAN_clean_linker_2, # of connection points: 2
#     Edge 19, Type (0, 1), BuildingBlock: XUDNAN_clean_linker_2, # of connection points: 2
#     Edge 20, Type (0, 1), BuildingBlock: XUDNAN_clean_linker_2, # of connection points: 2
#     Edge 21, Type (0, 1), BuildingBlock: XUDNAN_clean_linker_2, # of connection points: 2
#     Edge 22, Type (0, 1), BuildingBlock: XUDNAN_clean_linker_2, # of connection points: 2
#     Edge 23, Type (0, 1), BuildingBlock: XUDNAN_clean_linker_2, # of connection points: 2
#     Edge 24, Type (0, 1), BuildingBlock: XUDNAN_clean_linker_2, # of connection points: 2
#     Edge 25, Type (0, 1), BuildingBlock: XUDNAN_clean_linker_2, # of connection points: 2
#     Edge 26, Type (0, 1), BuildingBlock: XUDNAN_clean_linker_2, # of connection points: 2
#     Edge 27, Type (0, 1), BuildingBlock: XUDNAN_clean_linker_2, # of connection points: 2
#     Edge 28, Type (0, 1), BuildingBlock: XUDNAN_clean_linker_2, # of connection points: 2
#     Edge 29, Type (0, 1), BuildingBlock: XUDNAN_clean_linker_2, # of connection points: 2
#     Edge 30, Type (0, 1), BuildingBlock: XUDNAN_clean_linker_2, # of connection points: 2
#     Edge 31, Type (0, 1), BuildingBlock: XUDNAN_clean_linker_2, # of connection points: 2
#     Edge 32, Type (0, 1), BuildingBlock: XUDNAN_clean_linker_2, # of connection points: 2
#     Edge 33, Type (0, 1), BuildingBlock: XUDNAN_clean_linker_2, # of connection points: 2
#     Edge 34, Type (0, 1), BuildingBlock: XUDNAN_clean_linker_2, # of connection points: 2
#     Edge 35, Type (0, 1), BuildingBlock: XUDNAN_clean_linker_2, # of connection points: 2
#     Edge 36, Type (0, 1), BuildingBlock: XUDNAN_clean_linker_2, # of connection points: 2
#     Edge 37, Type (0, 1), BuildingBlock: XUDNAN_clean_linker_2, # of connection points: 2
# Relax obj value: 0.000
# Max RMSD: 0.024
# Mean RMSD: 0.010
data_MOF--net-pto--node1-KOZSID_clean_sbu_0--node2-KAKCAD_clean_linker_0--edge1-XUDNAN_clean_linker_2
_symmetry_space_group_name_H-M    P1
_symmetry_Int_Tables_number       1
_symmetry_cell_setting            triclinic
loop_
_symmetry_equiv_pos_as_xyz
'x, y, z'
_cell_length_a     46.839092
_cell_length_b     62.995042
_cell_length_c     54.998
_cell_angle_alpha  88.064723
_cell_angle_beta   88.186314
_cell_angle_gamma 92.939179
loop_
_atom_site_label
_atom_site_type_symbol
_atom_site_fract_x
_atom_site_fract_y
_atom_site_fract_z
_atom_type_partial_charge
C0 C 0.28 0.18795 0.34923 0.0
C1 C 0.25426 0.18329 0.3626 0.0
C2 C 0.28223 0.20482 0.33185 0.0
C3 C 0.25865 0.21721 0.32731 0.0
C4 C 0.23262 0.21188 0.3401 0.0
C5 C 0.23052 0.19526 0.35762 0.0
C6 C 0.26117 0.23602 0.30995 0.0
C7 C 0.27756 0.23567 0.28808 0.0
C8 C 0.27976 0.25347 0.27181 0.0
C9 C 0.26506 0.27169 0.27745 0.0
C10 C 0.24818 0.27224 0.29899 0.0
C11 C 0.24686 0.25449 0.31525 0.0
C12 C 0.23108 0.29094 0.30435 0.0
C13 C 0.24249 0.31187 0.29997 0.0
C14 C 0.20303 0.28786 0.31417 0.0
C15 C 0.18702 0.30519 0.31998 0.0
C16 C 0.19855 0.32611 0.31611 0.0
C17 C 0.29665 0.25281 0.24853 0.0
C18 C 0.31577 0.26985 0.24091 0.0
C19 C 0.29338 0.23527 0.23355 0.0
C20 C 0.30856 0.23492 0.21126 0.0
C21 C 0.32761 0.25198 0.20358 0.0
C22 C 0.33124 0.26937 0.21875 0.0
C23 C 0.22638 0.32928 0.30578 0.0
H24 H 0.29867 0.17903 0.35279 0.0
H25 H 0.30268 0.20852 0.32253 0.0
H26 H 0.21376 0.22063 0.33667 0.0
H27 H 0.21025 0.19177 0.36734 0.0
H28 H 0.28853 0.22151 0.28361 0.0
H29 H 0.23485 0.25521 0.33233 0.0
H30 H 0.26589 0.28515 0.26458 0.0
H31 H 0.26408 0.3148 0.29256 0.0
H32 H 0.19331 0.27198 0.31724 0.0
H33 H 0.16542 0.30216 0.32735 0.0
H34 H 0.31884 0.28351 0.25216 0.0
H35 H 0.27865 0.22198 0.23885 0.0
H36 H 0.23596 0.3452 0.30271 0.0
H37 H 0.34563 0.28281 0.21325 0.0
H38 H 0.30549 0.22122 0.20006 0.0
C39 C 0.30996 0.78256 0.7999 0.0
C40 C 0.32508 0.76417 0.80409 0.0
C41 C 0.29273 0.78434 0.77964 0.0
C42 C 0.29052 0.76783 0.76305 0.0
C43 C 0.30689 0.74995 0.7667 0.0
C44 C 0.32379 0.74808 0.78704 0.0
C45 C 0.26989 0.76856 0.74296 0.0
C46 C 0.26529 0.78768 0.73008 0.0
C47 C 0.24469 0.78852 0.71193 0.0
C48 C 0.22874 0.76971 0.70666 0.0
C49 C 0.23367 0.75043 0.71898 0.0
C50 C 0.25403 0.75003 0.73707 0.0
C51 C 0.21779 0.73036 0.71342 0.0
C52 C 0.18828 0.72755 0.71857 0.0
C53 C 0.23288 0.71305 0.70559 0.0
C54 C 0.21901 0.69304 0.70386 0.0
C55 C 0.18978 0.68972 0.71044 0.0
C56 C 0.24011 0.80904 0.69855 0.0
C57 C 0.2417 0.82836 0.71068 0.0
C58 C 0.23472 0.80961 0.67351 0.0
C59 C 0.23122 0.82898 0.66094 0.0
C60 C 0.23317 0.84831 0.67305 0.0
C61 C 0.23846 0.84769 0.6981 0.0
C62 C 0.17439 0.70738 0.7172 0.0
H63 H 0.31048 0.79516 0.81283 0.0
H64 H 0.28026 0.79825 0.77756 0.0
H65 H 0.30632 0.73717 0.754 0.0
H66 H 0.33563 0.73389 0.78962 0.0
H67 H 0.27821 0.80185 0.73391 0.0
H68 H 0.25689 0.73519 0.74706 0.0
H69 H 0.21256 0.76998 0.69302 0.0
H70 H 0.1763 0.74068 0.72487 0.0
H71 H 0.25566 0.71491 0.70143 0.0
H72 H 0.23144 0.68003 0.69791 0.0
H73 H 0.24538 0.8286 0.73001 0.0
H74 H 0.23365 0.79512 0.66346 0.0
H75 H 0.15195 0.70547 0.72258 0.0
H76 H 0.24052 0.8622 0.70805 0.0
H77 H 0.22681 0.82874 0.64174 0.0
C78 C 0.71016 0.76678 0.2235 0.0
C79 C 0.7095 0.78718 0.2124 0.0
C80 C 0.72917 0.76279 0.24202 0.0
C81 C 0.74807 0.77907 0.24982 0.0
C82 C 0.74772 0.79937 0.23839 0.0
C83 C 0.72864 0.80338 0.21995 0.0
C84 C 0.76764 0.77506 0.27013 0.0
C85 C 0.78144 0.75583 0.27219 0.0
C86 C 0.79938 0.75171 0.29165 0.0
C87 C 0.80378 0.7673 0.30908 0.0
C88 C 0.79006 0.78666 0.30742 0.0
C89 C 0.77204 0.7903 0.28788 0.0
C90 C 0.79309 0.80271 0.32661 0.0
C91 C 0.79251 0.79633 0.35136 0.0
C92 C 0.79474 0.82462 0.3204 0.0
C93 C 0.79455 0.83972 0.33847 0.0
C94 C 0.79276 0.83331 0.36323 0.0
C95 C 0.813 0.73091 0.29374 0.0
C96 C 0.79701 0.71196 0.28963 0.0
C97 C 0.84205 0.72981 0.29911 0.0
C98 C 0.85505 0.71024 0.29946 0.0
C99 C 0.83921 0.69136 0.29454 0.0
C100 C 0.80991 0.69246 0.29008 0.0
C101 C 0.7924 0.81143 0.36943 0.0
H102 H 0.69545 0.75402 0.21831 0.0
H103 H 0.72856 0.74705 0.25064 0.0
H104 H 0.76231 0.81218 0.24363 0.0
H105 H 0.729 0.81917 0.21149 0.0
H106 H 0.77858 0.74413 0.25836 0.0
H107 H 0.76051 0.80477 0.28699 0.0
H108 H 0.81756 0.76421 0.32411 0.0
H109 H 0.79106 0.77962 0.35685 0.0
H110 H 0.79566 0.83012 0.3015 0.0
H111 H 0.79473 0.85641 0.333 0.0
H112 H 0.77444 0.71221 0.28596 0.0
H113 H 0.85497 0.74415 0.30225 0.0
H114 H 0.79152 0.80591 0.38832 0.0
H115 H 0.79687 0.67821 0.28681 0.0
H116 H 0.8777 0.71002 0.30278 0.0
C117 C 0.79813 0.20955 0.67919 0.0
C118 C 0.77182 0.20208 0.6702 0.0
C119 C 0.7991 0.22513 0.69681 0.0
C120 C 0.77376 0.23345 0.70598 0.0
C121 C 0.74749 0.22583 0.69708 0.0
C122 C 0.74654 0.21037 0.67946 0.0
C123 C 0.77449 0.25005 0.72469 0.0
C124 C 0.79494 0.26728 0.7229 0.0
C125 C 0.79453 0.28353 0.73981 0.0
C126 C 0.77407 0.28216 0.75911 0.0
C127 C 0.75382 0.26495 0.76137 0.0
C128 C 0.75402 0.24908 0.74405 0.0
C129 C 0.73209 0.26366 0.7816 0.0
C130 C 0.74038 0.26385 0.80589 0.0
C131 C 0.70289 0.26195 0.77668 0.0
C132 C 0.68229 0.26045 0.79571 0.0
C133 C 0.69039 0.26009 0.82019 0.0
C134 C 0.81464 0.30244 0.73679 0.0
C135 C 0.84429 0.30023 0.73574 0.0
C136 C 0.80417 0.32288 0.73486 0.0
C137 C 0.82297 0.3408 0.73168 0.0
C138 C 0.85282 0.33878 0.73088 0.0
C139 C 0.86317 0.31818 0.73312 0.0
C140 C 0.7198 0.26187 0.82498 0.0
H141 H 0.81802 0.20361 0.67233 0.0
H142 H 0.81967 0.23053 0.70341 0.0
H143 H 0.72758 0.23203 0.70352 0.0
H144 H 0.72588 0.2048 0.67319 0.0
H145 H 0.81042 0.26855 0.70778 0.0
H146 H 0.73841 0.23577 0.74593 0.0
H147 H 0.77369 0.29463 0.77221 0.0
H148 H 0.76283 0.26502 0.8101 0.0
H149 H 0.69599 0.26202 0.75806 0.0
H150 H 0.65998 0.25972 0.7911 0.0
H151 H 0.85285 0.28461 0.73738 0.0
H152 H 0.78134 0.32495 0.73536 0.0
H153 H 0.72708 0.26129 0.84346 0.0
H154 H 0.88589 0.31584 0.73316 0.0
H155 H 0.81396 0.3562 0.72946 0.0
C156 C 0.78518 0.84494 0.6797 0.0
C157 C 0.78897 0.86439 0.69145 0.0
C158 C 0.78529 0.8255 0.69294 0.0
C159 C 0.78886 0.82514 0.71821 0.0
C160 C 0.7936 0.84449 0.72977 0.0
C161 C 0.79384 0.86382 0.71657 0.0
C162 C 0.7861 0.80492 0.73299 0.0
C163 C 0.80242 0.78748 0.72729 0.0
C164 C 0.80121 0.76913 0.74276 0.0
C165 C 0.78255 0.76809 0.76341 0.0
C166 C 0.76598 0.78528 0.76919 0.0
C167 C 0.7679 0.80358 0.75384 0.0
C168 C 0.74794 0.78464 0.79198 0.0
C169 C 0.73067 0.76643 0.7991 0.0
C170 C 0.74834 0.80223 0.80704 0.0
C171 C 0.73207 0.8016 0.8288 0.0
C172 C 0.7149 0.78338 0.83602 0.0
C173 C 0.82107 0.75175 0.73884 0.0
C174 C 0.82541 0.74322 0.71577 0.0
C175 C 0.83603 0.74363 0.75854 0.0
C176 C 0.85489 0.72744 0.75535 0.0
C177 C 0.85932 0.71886 0.73237 0.0
C178 C 0.8442 0.72677 0.71261 0.0
C179 C 0.7142 0.76585 0.82085 0.0
H180 H 0.78118 0.8447 0.66043 0.0
H181 H 0.7815 0.8108 0.68361 0.0
H182 H 0.7969 0.84466 0.74918 0.0
H183 H 0.79769 0.87836 0.72618 0.0
H184 H 0.81714 0.78868 0.71165 0.0
H185 H 0.75511 0.81691 0.75813 0.0
H186 H 0.78162 0.75408 0.77546 0.0
H187 H 0.72978 0.75268 0.7878 0.0
H188 H 0.76164 0.81641 0.80221 0.0
H189 H 0.73283 0.81546 0.83993 0.0
H190 H 0.8141 0.74912 0.70027 0.0
H191 H 0.83345 0.75 0.77648 0.0
H192 H 0.7013 0.75154 0.82599 0.0
H193 H 0.84728 0.72051 0.69467 0.0
H194 H 0.86596 0.72155 0.771 0.0
C195 C 0.69399 0.25281 0.25478 0.0
C196 C 0.70253 0.25899 0.23073 0.0
C197 C 0.71417 0.25138 0.27289 0.0
C198 C 0.74331 0.25635 0.26742 0.0
C199 C 0.75193 0.26212 0.24327 0.0
C200 C 0.73177 0.26328 0.22507 0.0
C201 C 0.76434 0.25657 0.28711 0.0
C202 C 0.76405 0.23989 0.30478 0.0
C203 C 0.78301 0.24058 0.3241 0.0
C204 C 0.80204 0.25843 0.3259 0.0
C205 C 0.80235 0.27538 0.30856 0.0
C206 C 0.78378 0.27413 0.28903 0.0
C207 C 0.8203 0.29518 0.31169 0.0
C208 C 0.81941 0.30551 0.33393 0.0
C209 C 0.8367 0.30473 0.29202 0.0
C210 C 0.85138 0.32445 0.2944 0.0
C211 C 0.84949 0.33517 0.31634 0.0
C212 C 0.78235 0.22291 0.34276 0.0
C213 C 0.75627 0.21522 0.35392 0.0
C214 C 0.8077 0.21362 0.34954 0.0
C215 C 0.80695 0.19686 0.36701 0.0
C216 C 0.78089 0.18936 0.37837 0.0
C217 C 0.75557 0.19875 0.37167 0.0
C218 C 0.83367 0.32537 0.33617 0.0
H219 H 0.67162 0.24924 0.25963 0.0
H220 H 0.70684 0.24704 0.29136 0.0
H221 H 0.77427 0.26591 0.2385 0.0
H222 H 0.73895 0.26819 0.20673 0.0
H223 H 0.74925 0.22622 0.30333 0.0
H224 H 0.7834 0.2874 0.27598 0.0
H225 H 0.81623 0.25934 0.34107 0.0
H226 H 0.80675 0.29861 0.34931 0.0
H227 H 0.8378 0.29708 0.2747 0.0
H228 H 0.86331 0.33169 0.2788 0.0
H229 H 0.73642 0.22216 0.34914 0.0
H230 H 0.82807 0.21917 0.34113 0.0
H231 H 0.832 0.33323 0.35334 0.0
H232 H 0.73517 0.19319 0.38002 0.0
H233 H 0.82679 0.18999 0.37192 0.0
C234 C 0.29368 0.26056 0.82105 0.0
C235 C 0.32227 0.25492 0.81913 0.0
C236 C 0.27793 0.26381 0.80021 0.0
C237 C 0.29031 0.26125 0.77695 0.0
C238 C 0.319 0.25578 0.77497 0.0
C239 C 0.33493 0.25284 0.79586 0.0
C240 C 0.27281 0.26355 0.75501 0.0
C241 C 0.2552 0.28081 0.75235 0.0
C242 C 0.23659 0.28224 0.73285 0.0
C243 C 0.23599 0.26613 0.71574 0.0
C244 C 0.25329 0.24857 0.71818 0.0
C245 C 0.27196 0.24763 0.73771 0.0
C246 C 0.24992 0.23023 0.70185 0.0
C247 C 0.22248 0.22262 0.69556 0.0
C248 C 0.27374 0.21937 0.69368 0.0
C249 C 0.27012 0.20101 0.68016 0.0
C250 C 0.24258 0.19302 0.67465 0.0
C251 C 0.2163 0.29969 0.73146 0.0
C252 C 0.20158 0.3057 0.7526 0.0
C253 C 0.2108 0.31003 0.70913 0.0
C254 C 0.19081 0.32586 0.70799 0.0
C255 C 0.1757 0.33149 0.72911 0.0
C256 C 0.18157 0.32137 0.75144 0.0
C257 C 0.21888 0.20428 0.68214 0.0
H258 H 0.28344 0.26242 0.83874 0.0
H259 H 0.25579 0.26782 0.80233 0.0
H260 H 0.32909 0.25377 0.75726 0.0
H261 H 0.3569 0.24841 0.79387 0.0
H262 H 0.2559 0.29314 0.76564 0.0
H263 H 0.28461 0.23385 0.74033 0.0
H264 H 0.2213 0.26688 0.70095 0.0
H265 H 0.20361 0.23038 0.70174 0.0
H266 H 0.29519 0.22491 0.69803 0.0
H267 H 0.28882 0.19267 0.67473 0.0
H268 H 0.20501 0.29793 0.77006 0.0
H269 H 0.22193 0.30588 0.69254 0.0
H270 H 0.19738 0.19874 0.67792 0.0
H271 H 0.17059 0.32552 0.76811 0.0
H272 H 0.18669 0.33331 0.6905 0.0
C273 C 0.25463 0.83239 0.33519 0.0
C274 C 0.25313 0.82685 0.36019 0.0
C275 C 0.25708 0.81672 0.31788 0.0
C276 C 0.2583 0.79514 0.32518 0.0
C277 C 0.2576 0.78974 0.35023 0.0
C278 C 0.25497 0.80538 0.36749 0.0
C279 C 0.25978 0.77827 0.30682 0.0
C280 C 0.27644 0.78174 0.28515 0.0
C281 C 0.27799 0.76584 0.2679 0.0
C282 C 0.26248 0.74635 0.27237 0.0
C283 C 0.24556 0.74257 0.29375 0.0
C284 C 0.2444 0.75858 0.3109 0.0
C285 C 0.22927 0.72181 0.29811 0.0
C286 C 0.21398 0.71239 0.27931 0.0
C287 C 0.22951 0.71099 0.32087 0.0
C288 C 0.21532 0.69099 0.32457 0.0
C289 C 0.20038 0.68143 0.30566 0.0
C290 C 0.29559 0.76948 0.24505 0.0
C291 C 0.29373 0.78826 0.23079 0.0
C292 C 0.31358 0.75381 0.23688 0.0
C293 C 0.32901 0.7567 0.21473 0.0
C294 C 0.32656 0.77522 0.20015 0.0
C295 C 0.30893 0.79105 0.2085 0.0
C296 C 0.19962 0.69247 0.28306 0.0
H297 H 0.25297 0.84877 0.32898 0.0
H298 H 0.25724 0.82147 0.29877 0.0
H299 H 0.25914 0.77339 0.35656 0.0
H300 H 0.25437 0.80063 0.38662 0.0
H301 H 0.28884 0.79663 0.28193 0.0
H302 H 0.23085 0.75587 0.32716 0.0
H303 H 0.26358 0.73405 0.2591 0.0
H304 H 0.21315 0.72043 0.26164 0.0
H305 H 0.24121 0.71777 0.33566 0.0
H306 H 0.21606 0.68299 0.34226 0.0
H307 H 0.27992 0.80055 0.23657 0.0
H308 H 0.31563 0.73926 0.2476 0.0
H309 H 0.18847 0.6855 0.26808 0.0
H310 H 0.30683 0.80558 0.19775 0.0
H311 H 0.34227 0.74417 0.20872 0.0
C312 C 0.06254 0.54309 0.33808 0.0
C313 C 0.06878 0.55222 0.36007 0.0
C314 C 0.05099 0.54216 0.37737 0.0
C315 C 0.03481 0.52765 0.36502 0.0
N316 N 0.04123 0.5277 0.34086 0.0
Co317 Co 0.02154 0.51003 0.316 0.0
N318 N 0.99534 0.49526 0.34156 0.0
C319 C 0.99538 0.49824 0.36581 0.0
C320 C 0.97637 0.48489 0.37908 0.0
C321 C 0.96346 0.47249 0.36237 0.0
C322 C 0.97517 0.47918 0.3397 0.0
N323 N 0.0014 0.4927 0.29107 0.0
C324 C 0.97987 0.47746 0.29381 0.0
C325 C 0.97172 0.46982 0.27153 0.0
C326 C 0.98906 0.48026 0.25416 0.0
C327 C 0.00657 0.49376 0.26669 0.0
N328 N 0.04822 0.52442 0.29051 0.0
C329 C 0.04922 0.52066 0.26642 0.0
C330 C 0.07006 0.53269 0.25349 0.0
C331 C 0.0832 0.54492 0.27027 0.0
C332 C 0.06942 0.53971 0.29256 0.0
N333 N 0.04909 0.48733 0.32063 0.0
C334 C 0.08457 0.4528 0.32752 0.0
C335 C 0.07635 0.45913 0.30428 0.0
C336 C 0.05897 0.47635 0.30127 0.0
C337 C 0.07551 0.46462 0.34715 0.0
C338 C 0.05792 0.48163 0.34334 0.0
N339 N 0.99391 0.5327 0.31132 0.0
C340 C 0.96936 0.55639 0.28453 0.0
C341 C 0.95497 0.56498 0.30422 0.0
C342 C 0.9606 0.55725 0.3276 0.0
C343 C 0.97988 0.54116 0.33071 0.0
C344 C 0.98853 0.54048 0.28845 0.0
H345 H 0.98299 0.53578 0.34895 0.0
H346 H 0.99875 0.53479 0.27262 0.0
H347 H 0.05341 0.48019 0.2831 0.0
H348 H 0.05147 0.48976 0.35911 0.0
C349 C 0.01375 0.51355 0.37565 0.0
C350 C 0.07722 0.54981 0.31509 0.0
C351 C 0.96676 0.4695 0.31703 0.0
C352 C 0.02923 0.50661 0.25629 0.0
H353 H 0.08446 0.56494 0.36331 0.0
H354 H 0.04989 0.54513 0.39664 0.0
H355 H 0.97264 0.48407 0.39862 0.0
H356 H 0.94747 0.45978 0.36655 0.0
H357 H 0.95516 0.45776 0.26817 0.0
H358 H 0.98922 0.47799 0.23473 0.0
H359 H 0.07486 0.53277 0.2341 0.0
H360 H 0.1008 0.55649 0.26649 0.0
H361 H 0.08252 0.4505 0.28841 0.0
H362 H 0.08179 0.46076 0.36549 0.0
H363 H 0.96609 0.56206 0.26606 0.0
H364 H 0.94979 0.56329 0.34344 0.0
C365 C 0.05597 0.5487 0.74174 0.0
C366 C 0.06634 0.55503 0.76389 0.0
C367 C 0.04953 0.54459 0.78163 0.0
C368 C 0.02984 0.53259 0.76942 0.0
N369 N 0.03323 0.53454 0.74489 0.0
Co370 Co 0.00816 0.52093 0.72021 0.0
N371 N 0.98285 0.50608 0.7464 0.0
C372 C 0.98474 0.50796 0.77074 0.0
C373 C 0.96625 0.49424 0.7841 0.0
C374 C 0.95227 0.48246 0.76736 0.0
C375 C 0.96297 0.4898 0.74462 0.0
N376 N 0.98318 0.50722 0.69568 0.0
C377 C 0.96287 0.49119 0.69889 0.0
C378 C 0.95149 0.48527 0.677 0.0
C379 C 0.96591 0.49751 0.65918 0.0
C380 C 0.98508 0.51017 0.67122 0.0
N381 N 0.03341 0.53559 0.69399 0.0
C382 C 0.03045 0.53446 0.66966 0.0
C383 C 0.05066 0.54662 0.65616 0.0
C384 C 0.06734 0.55634 0.67283 0.0
C385 C 0.05619 0.5496 0.69565 0.0
N386 N 0.03222 0.49585 0.71997 0.0
C387 C 0.05983 0.45716 0.72061 0.0
C388 C 0.05424 0.46757 0.69857 0.0
C389 C 0.04037 0.4868 0.69866 0.0
C390 C 0.0528 0.46697 0.74218 0.0
C391 C 0.03946 0.48624 0.74146 0.0
N392 N 0.98406 0.5462 0.72051 0.0
C393 C 0.96391 0.5761 0.69932 0.0
C394 C 0.95891 0.58596 0.72128 0.0
C395 C 0.96468 0.57495 0.74282 0.0
C396 C 0.9767 0.55517 0.74203 0.0
C397 C 0.97646 0.55634 0.69935 0.0
H398 H 0.98058 0.54784 0.75915 0.0
H399 H 0.98057 0.54996 0.682 0.0
H400 H 0.03573 0.49378 0.68136 0.0
H401 H 0.03449 0.49277 0.75857 0.0
C402 C 0.00704 0.52024 0.78044 0.0
C403 C 0.06749 0.55743 0.71829 0.0
C404 C 0.95581 0.47972 0.72192 0.0
C405 C 0.00763 0.52266 0.66007 0.0
H406 H 0.08379 0.56644 0.76699 0.0
H407 H 0.051 0.54603 0.80112 0.0
H408 H 0.96456 0.49205 0.80371 0.0
H409 H 0.93704 0.4693 0.77164 0.0
H410 H 0.93546 0.47267 0.67419 0.0
H411 H 0.96389 0.49636 0.63971 0.0
H412 H 0.05266 0.54854 0.63654 0.0
H413 H 0.08538 0.56744 0.66866 0.0
H414 H 0.0595 0.46052 0.68141 0.0
H415 H 0.05726 0.45962 0.75967 0.0
H416 H 0.95943 0.58403 0.68218 0.0
H417 H 0.96047 0.58182 0.7603 0.0
C418 C 0.2617 0.98293 0.55277 0.0
C419 C 0.28704 0.97683 0.56272 0.0
C420 C 0.30876 0.98763 0.54971 0.0
C421 C 0.29555 0.99977 0.53274 0.0
N422 N 0.26666 0.99751 0.53418 0.0
Co423 Co 0.2392 0.01254 0.51318 0.0
N424 N 0.27126 0.0286 0.49424 0.0
C425 C 0.29962 0.0267 0.49694 0.0
C426 C 0.31646 0.04059 0.48231 0.0
C427 C 0.29777 0.05235 0.46977 0.0
C428 C 0.27047 0.04484 0.47745 0.0
N429 N 0.21173 0.02767 0.49229 0.0
C430 C 0.21667 0.04386 0.47559 0.0
C431 C 0.19152 0.05022 0.46558 0.0
C432 C 0.16978 0.038 0.47683 0.0
C433 C 0.18287 0.02487 0.49291 0.0
N434 N 0.20704 0.99654 0.53207 0.0
C435 C 0.17869 0.99758 0.52832 0.0
C436 C 0.16176 0.98423 0.54348 0.0
C437 C 0.18032 0.97398 0.55778 0.0
C438 C 0.20768 0.98182 0.55062 0.0
N439 N 0.23803 0.03587 0.53658 0.0
C440 C 0.23557 0.06826 0.57074 0.0
C441 C 0.2107 0.05928 0.56106 0.0
C442 C 0.2124 0.04333 0.54417 0.0
C443 C 0.26182 0.06107 0.56256 0.0
C444 C 0.26256 0.04493 0.54564 0.0
N445 N 0.24029 0.98896 0.48985 0.0
C446 C 0.21504 0.96152 0.46795 0.0
C447 C 0.24047 0.95191 0.46233 0.0
C448 C 0.26607 0.96187 0.46936 0.0
C449 C 0.26549 0.98025 0.48305 0.0
C450 C 0.21547 0.97993 0.48134 0.0
H451 H 0.28564 0.98678 0.4884 0.0
H452 H 0.19528 0.98621 0.48498 0.0
H453 H 0.19264 0.0372 0.53755 0.0
H454 H 0.28317 0.03991 0.54027 0.0
C455 C 0.30968 0.01332 0.51515 0.0
C456 C 0.23353 0.97438 0.56162 0.0
C457 C 0.2445 0.05451 0.4696 0.0
C458 C 0.16861 0.0109 0.51003 0.0
H459 H 0.28964 0.9657 0.5778 0.0
H460 H 0.33148 0.9867 0.55228 0.0
H461 H 0.33957 0.04259 0.48165 0.0
H462 H 0.30366 0.06542 0.45704 0.0
H463 H 0.18913 0.06281 0.45202 0.0
H464 H 0.14709 0.03904 0.4742 0.0
H465 H 0.13868 0.98199 0.54387 0.0
H466 H 0.17432 0.96188 0.5717 0.0
H467 H 0.18986 0.06459 0.56642 0.0
H468 H 0.28169 0.06749 0.56958 0.0
H469 H 0.19472 0.95466 0.46232 0.0
H470 H 0.28635 0.95506 0.4652 0.0
C471 C 0.46681 0.79927 0.04322 0.0
C472 C 0.45688 0.81899 0.04883 0.0
C473 C 0.47189 0.83371 0.03409 0.0
C474 C 0.49027 0.82226 0.02057 0.0
N475 N 0.48787 0.80106 0.02565 0.0
Co476 Co 0.51231 0.7789 0.01165 0.0
N477 N 0.53451 0.80069 0.99018 0.0
C478 C 0.52958 0.8216 0.98758 0.0
C479 C 0.5476 0.83248 0.97086 0.0
C480 C 0.56511 0.81763 0.96218 0.0
C481 C 0.55681 0.7985 0.97429 0.0
N482 N 0.53762 0.75688 0.99847 0.0
C483 C 0.56033 0.75898 0.98249 0.0
C484 C 0.57268 0.73969 0.97904 0.0
C485 C 0.55718 0.72484 0.9933 0.0
C486 C 0.53646 0.73588 0.00469 0.0
N487 N 0.48933 0.75698 0.03241 0.0
C488 C 0.49217 0.73571 0.0329 0.0
C489 C 0.47273 0.72458 0.04822 0.0
C490 C 0.45646 0.73962 0.05815 0.0
C491 C 0.46713 0.75918 0.04843 0.0
N492 N 0.48515 0.77427 0.98497 0.0
C493 C 0.4462 0.76738 0.94742 0.0
C494 C 0.46117 0.75072 0.95737 0.0
C495 C 0.48016 0.75444 0.97599 0.0
C496 C 0.45137 0.78765 0.95647 0.0
C497 C 0.47081 0.79072 0.975 0.0
N498 N 0.53934 0.7835 0.03831 0.0
C499 C 0.56476 0.76988 0.07264 0.0
C500 C 0.57615 0.79023 0.07731 0.0
C501 C 0.56913 0.80708 0.06179 0.0
C502 C 0.55083 0.80341 0.04262 0.0
C503 C 0.54668 0.76689 0.05318 0.0
H504 H 0.54619 0.81695 0.03158 0.0
H505 H 0.5387 0.75101 0.05067 0.0
H506 H 0.49052 0.74094 0.98278 0.0
H507 H 0.47373 0.80655 0.981 0.0
C508 C 0.50936 0.83084 0.00243 0.0
C509 C 0.45556 0.77935 0.05511 0.0
C510 C 0.57105 0.77882 0.97026 0.0
C511 C 0.51466 0.72684 0.02021 0.0
H512 H 0.4405 0.82245 0.06222 0.0
H513 H 0.46966 0.85073 0.03332 0.0
H514 H 0.54826 0.84927 0.9659 0.0
H515 H 0.58223 0.82059 0.94862 0.0
H516 H 0.59094 0.73665 0.96736 0.0
H517 H 0.56046 0.70798 0.99498 0.0
H518 H 0.47093 0.70759 0.05205 0.0
H519 H 0.43887 0.73653 0.07124 0.0
H520 H 0.45851 0.73477 0.95074 0.0
H521 H 0.44016 0.8011 0.94962 0.0
H522 H 0.56923 0.75629 0.08422 0.0
H523 H 0.57779 0.8231 0.06428 0.0
C524 C 0.81592 0.99517 0.56502 0.0
C525 C 0.84225 0.99017 0.574 0.0
C526 C 0.86253 0.99658 0.55642 0.0
C527 C 0.84762 0.00525 0.53779 0.0
N528 N 0.81924 0.00502 0.54274 0.0
Co529 Co 0.79017 0.01573 0.52058 0.0
N530 N 0.81967 0.03206 0.49995 0.0
C531 C 0.84791 0.02914 0.49923 0.0
C532 C 0.863 0.04387 0.48421 0.0
C533 C 0.84296 0.05686 0.47501 0.0
C534 C 0.81664 0.04917 0.48485 0.0
N535 N 0.76137 0.02644 0.49833 0.0
C536 C 0.76325 0.04385 0.48323 0.0
C537 C 0.73814 0.04599 0.4709 0.0
C538 C 0.71986 0.02925 0.47884 0.0
C539 C 0.73487 0.01788 0.49545 0.0
N540 N 0.76034 0.9994 0.54092 0.0
C541 C 0.7337 0.99391 0.53393 0.0
C542 C 0.71807 0.98169 0.55121 0.0
C543 C 0.7361 0.97904 0.57008 0.0
C544 C 0.7619 0.98985 0.56325 0.0
N545 N 0.78582 0.04051 0.54064 0.0
C546 C 0.77913 0.07795 0.56593 0.0
C547 C 0.7553 0.06572 0.5586 0.0
C548 C 0.75908 0.04707 0.54615 0.0
C549 C 0.80641 0.07064 0.561 0.0
C550 C 0.80928 0.05193 0.54829 0.0
N551 N 0.79427 0.99085 0.50049 0.0
C552 C 0.7938 0.97471 0.46133 0.0
C553 C 0.79287 0.95436 0.47262 0.0
C554 C 0.79439 0.95281 0.49798 0.0
C555 C 0.79507 0.97111 0.51149 0.0
C556 C 0.79454 0.99276 0.47561 0.0
H557 H 0.79532 0.9691 0.53096 0.0
H558 H 0.79436 0.00824 0.46658 0.0
H559 H 0.74032 0.03817 0.54052 0.0
H560 H 0.83053 0.04698 0.54417 0.0
C561 C 0.85969 0.01604 0.51694 0.0
C562 C 0.78828 0.98808 0.57684 0.0
C563 C 0.78897 0.05794 0.47957 0.0
C564 C 0.72324 1.00232 0.51221 0.0
H565 H 0.84632 0.98225 0.59122 0.0
H566 H 0.88545 0.9954 0.55732 0.0
H567 H 0.88598 0.04588 0.48156 0.0
H568 H 0.84747 0.07061 0.46296 0.0
H569 H 0.73353 0.0584 0.45773 0.0
H570 H 0.69778 0.02642 0.47406 0.0
H571 H 0.69613 0.97557 0.55031 0.0
H572 H 0.73108 0.96959 0.5866 0.0
H573 H 0.73379 0.07055 0.56239 0.0
H574 H 0.82543 0.07962 0.56624 0.0
H575 H 0.79278 0.97666 0.44174 0.0
H576 H 0.79446 0.93746 0.50748 0.0
C577 C 0.47282 0.27562 0.05092 0.0
C578 C 0.46104 0.29482 0.05598 0.0
C579 C 0.47638 0.31016 0.0423 0.0
C580 C 0.49649 0.29949 0.02965 0.0
N581 N 0.49501 0.27825 0.03445 0.0
Co582 Co 0.51981 0.25673 0.01957 0.0
N583 N 0.5422 0.27929 0.99927 0.0
C584 C 0.53964 0.30056 0.99999 0.0
C585 C 0.55681 0.31197 0.98309 0.0
C586 C 0.5709 0.29714 0.97057 0.0
C587 C 0.56158 0.2774 0.98068 0.0
N588 N 0.5439 0.23515 0.00407 0.0
C589 C 0.56303 0.23746 0.98503 0.0
C590 C 0.57437 0.21824 0.97933 0.0
C591 C 0.56127 0.20312 0.99481 0.0
C592 C 0.54286 0.21394 0.00908 0.0
N593 N 0.49794 0.23418 0.04025 0.0
C594 C 0.50288 0.2132 0.04168 0.0
C595 C 0.48494 0.2017 0.05795 0.0
C596 C 0.46755 0.21618 0.0676 0.0
C597 C 0.47587 0.23576 0.05654 0.0
N598 N 0.49213 0.25315 0.99323 0.0
C599 C 0.4519 0.24813 0.95651 0.0
C600 C 0.46105 0.23054 0.96972 0.0
C601 C 0.48117 0.23337 0.98774 0.0
C602 C 0.46359 0.26824 0.96174 0.0
C603 C 0.48339 0.27039 0.98011 0.0
N604 N 0.54747 0.26031 0.04624 0.0
C605 C 0.57714 0.24507 0.07698 0.0
C606 C 0.58095 0.26467 0.08783 0.0
C607 C 0.56904 0.28226 0.07677 0.0
C608 C 0.55283 0.27979 0.05606 0.0
C609 C 0.56046 0.24326 0.0564 0.0
H610 H 0.54446 0.29387 0.04867 0.0
H611 H 0.55797 0.22777 0.04948 0.0
H612 H 0.48751 0.21934 0.99708 0.0
H613 H 0.49118 0.28618 0.98351 0.0
C614 C 0.51781 0.30901 0.01395 0.0
C615 C 0.46228 0.25537 0.06233 0.0
C616 C 0.57003 0.25723 0.97102 0.0
C617 C 0.52365 0.20462 0.02672 0.0
H618 H 0.44329 0.29747 0.0684 0.0
H619 H 0.47341 0.32709 0.04181 0.0
H620 H 0.55772 0.32898 0.97934 0.0
H621 H 0.58544 0.30056 0.95512 0.0
H622 H 0.59001 0.2154 0.96504 0.0
H623 H 0.56428 0.18619 0.99521 0.0
H624 H 0.48443 0.18477 0.06215 0.0
H625 H 0.45064 0.21274 0.08125 0.0
H626 H 0.45285 0.21461 0.9661 0.0
H627 H 0.45696 0.28236 0.95212 0.0
H628 H 0.58605 0.23097 0.08484 0.0
H629 H 0.572 0.29791 0.08419 0.0
H630 H 0.19323 0.36417 0.29071 0.0
H631 H 0.16519 0.3294 0.35743 0.0
H632 H 0.1347 0.35862 0.36834 0.0
H633 H 0.19502 0.41723 0.31645 0.0
H634 H 0.18218 0.42972 0.28922 0.0
H635 H 0.20291 0.40649 0.28716 0.0
H636 H 0.16227 0.38748 0.26392 0.0
H637 H 0.14138 0.4106 0.26601 0.0
H638 H 0.12662 0.38507 0.27744 0.0
H639 H 0.10527 0.39056 0.371 0.0
H640 H 0.07917 0.42323 0.36545 0.0
H641 H 0.12769 0.43825 0.29787 0.0
C642 C 0.18104 0.36285 0.3078 0.0
C643 C 0.18153 0.3444 0.32315 0.0
C644 C 0.16488 0.3432 0.34519 0.0
C645 C 0.14762 0.35979 0.35164 0.0
C646 C 0.14732 0.37759 0.33595 0.0
C647 C 0.16368 0.37931 0.31455 0.0
C648 C 0.15872 0.3999 0.3006 0.0
C649 C 0.18636 0.41418 0.29822 0.0
C650 C 0.14652 0.39549 0.27551 0.0
C651 C 0.13671 0.40929 0.31733 0.0
C652 C 0.13055 0.39621 0.33767 0.0
C653 C 0.11018 0.4011 0.35531 0.0
C654 C 0.09559 0.41982 0.35206 0.0
C655 C 0.10141 0.43354 0.33131 0.0
C656 C 0.12249 0.42814 0.31387 0.0
H657 H 0.13441 0.67651 0.69941 0.0
H658 H 0.21393 0.65298 0.72546 0.0
H659 H 0.1919 0.6167 0.72854 0.0
H660 H 0.08841 0.64313 0.73963 0.0
H661 H 0.0611 0.63894 0.71766 0.0
H662 H 0.0835 0.66309 0.71607 0.0
H663 H 0.09836 0.65577 0.67147 0.0
H664 H 0.07604 0.63158 0.67296 0.0
H665 H 0.11347 0.63083 0.66454 0.0
H666 H 0.16132 0.58294 0.72976 0.0
H667 H 0.12322 0.55411 0.72988 0.0
H668 H 0.06301 0.59931 0.70485 0.0
C669 C 0.14722 0.66377 0.7058 0.0
C670 C 0.17615 0.66773 0.71182 0.0
C671 C 0.19204 0.65044 0.72005 0.0
C672 C 0.17964 0.62972 0.72207 0.0
C673 C 0.1512 0.62641 0.71598 0.0
C674 C 0.1351 0.64293 0.7081 0.0
C675 C 0.10467 0.63506 0.70344 0.0
C676 C 0.08316 0.64568 0.7202 0.0
C677 C 0.09774 0.63852 0.6765 0.0
C678 C 0.1062 0.6116 0.71011 0.0
C679 C 0.13331 0.60694 0.71716 0.0
C680 C 0.14001 0.58638 0.72428 0.0
C681 C 0.11836 0.57015 0.72432 0.0
C682 C 0.09042 0.57466 0.71747 0.0
C683 C 0.08431 0.59559 0.71015 0.0
H684 H 0.88074 0.67541 0.3238 0.0
H685 H 0.82987 0.66064 0.2613 0.0
H686 H 0.8526 0.62641 0.25819 0.0
H687 H 0.94525 0.65331 0.30108 0.0
H688 H 0.95526 0.64303 0.33041 0.0
H689 H 0.93431 0.66617 0.32838 0.0
H690 H 0.89553 0.64747 0.35746 0.0
H691 H 0.91633 0.62423 0.35949 0.0
H692 H 0.87987 0.62187 0.34998 0.0
H693 H 0.88123 0.59422 0.26104 0.0
H694 H 0.9146 0.56606 0.26948 0.0
H695 H 0.94802 0.60157 0.32958 0.0
C696 C 0.87444 0.66502 0.30941 0.0
C697 C 0.85324 0.67071 0.29295 0.0
C698 C 0.84557 0.65652 0.27447 0.0
C699 C 0.85849 0.63706 0.27244 0.0
C700 C 0.87915 0.63193 0.28898 0.0
C701 C 0.88716 0.64546 0.3071 0.0
C702 C 0.91033 0.63615 0.32224 0.0
C703 C 0.93792 0.65052 0.32041 0.0
C704 C 0.89988 0.6322 0.34887 0.0
C705 C 0.91418 0.61536 0.30966 0.0
C706 C 0.8959 0.61328 0.29056 0.0
C707 C 0.89568 0.59566 0.27593 0.0
C708 C 0.91483 0.57981 0.28079 0.0
C709 C 0.93403 0.58162 0.30011 0.0
C710 C 0.93343 0.59961 0.31484 0.0
H711 H 0.84571 0.37954 0.74681 0.0
H712 H 0.90573 0.34206 0.707 0.0
H713 H 0.939 0.37352 0.70193 0.0
H714 H 0.85727 0.42649 0.70777 0.0
H715 H 0.85323 0.44452 0.73226 0.0
H716 H 0.83482 0.41868 0.73412 0.0
H717 H 0.85816 0.41064 0.7753 0.0
H718 H 0.87681 0.43641 0.77348 0.0
H719 H 0.89657 0.41275 0.77704 0.0
H720 H 0.9662 0.40917 0.70136 0.0
H721 H 0.98366 0.44686 0.7033 0.0
H722 H 0.90402 0.46177 0.7395 0.0
C723 C 0.86565 0.37784 0.73677 0.0
C724 C 0.87296 0.358 0.72757 0.0
C725 C 0.89968 0.35676 0.71487 0.0
C726 C 0.91873 0.37464 0.71168 0.0
C727 C 0.91074 0.39384 0.72096 0.0
C728 C 0.8847 0.39561 0.73301 0.0
C729 C 0.88077 0.41829 0.74036 0.0
C730 C 0.855 0.42754 0.72788 0.0
C731 C 0.87791 0.41959 0.7682 0.0
C732 C 0.90869 0.42899 0.7306 0.0
C733 C 0.92583 0.41455 0.71971 0.0
C734 C 0.9529 0.42061 0.70975 0.0
C735 C 0.96262 0.44198 0.71091 0.0
C736 C 0.94527 0.45703 0.72177 0.0
C737 C 0.91787 0.45046 0.73151 0.0
H738 H 0.27121 0.14209 0.36104 0.0
H739 H 0.23245 0.18678 0.40871 0.0
H740 H 0.22752 0.15906 0.44162 0.0
H741 H 0.22605 0.09699 0.38083 0.0
H742 H 0.25377 0.07825 0.3788 0.0
H743 H 0.25572 0.10189 0.35934 0.0
H744 H 0.30594 0.11214 0.37514 0.0
H745 H 0.30411 0.08852 0.39467 0.0
H746 H 0.3106 0.11425 0.4074 0.0
H747 H 0.22593 0.12653 0.4691 0.0
H748 H 0.22644 0.09067 0.48898 0.0
H749 H 0.26475 0.06658 0.42342 0.0
C750 C 0.26199 0.14605 0.37851 0.0
C751 C 0.25221 0.16658 0.38238 0.0
C752 C 0.23986 0.17111 0.40534 0.0
C753 C 0.23711 0.15551 0.42417 0.0
C754 C 0.24671 0.1354 0.41974 0.0
C755 C 0.2588 0.13056 0.39747 0.0
C756 C 0.26625 0.10741 0.39724 0.0
C757 C 0.24944 0.09543 0.37791 0.0
C758 C 0.29865 0.10547 0.39338 0.0
C759 C 0.25632 0.1 0.42278 0.0
C760 C 0.24533 0.11646 0.4355 0.0
C761 C 0.23457 0.11353 0.45936 0.0
C762 C 0.23493 0.0932 0.47049 0.0
C763 C 0.24586 0.07611 0.45774 0.0
C764 C 0.25664 0.07954 0.43358 0.0
H765 H 0.36376 0.79207 0.82469 0.0
H766 H 0.32163 0.7293 0.83484 0.0
H767 H 0.34716 0.72371 0.87293 0.0
H768 H 0.43205 0.77741 0.84631 0.0
H769 H 0.4394 0.80213 0.86105 0.0
H770 H 0.41719 0.80149 0.83492 0.0
H771 H 0.37666 0.81814 0.85982 0.0
H772 H 0.39873 0.81876 0.88606 0.0
H773 H 0.36373 0.80539 0.88818 0.0
H774 H 0.37644 0.72505 0.91004 0.0
H775 H 0.40962 0.73237 0.94291 0.0
H776 H 0.435 0.7936 0.90784 0.0
C777 C 0.35985 0.77722 0.83504 0.0
C778 C 0.34076 0.76109 0.82685 0.0
C779 C 0.33638 0.74176 0.8407 0.0
C780 C 0.35065 0.73849 0.86241 0.0
C781 C 0.36938 0.75465 0.86996 0.0
C782 C 0.37421 0.77358 0.85666 0.0
C783 C 0.39615 0.78804 0.86855 0.0
C784 C 0.42277 0.79252 0.8517 0.0
C785 C 0.38302 0.80881 0.8761 0.0
C786 C 0.40282 0.77429 0.8906 0.0
C787 C 0.38697 0.75517 0.89111 0.0
C788 C 0.38917 0.73989 0.90974 0.0
C789 C 0.4083 0.74416 0.92825 0.0
C790 C 0.42529 0.76348 0.92796 0.0
C791 C 0.42224 0.77875 0.90884 0.0
H792 H 0.81997 0.87321 0.36577 0.0
H793 H 0.75767 0.82966 0.40402 0.0
H794 H 0.75108 0.85592 0.43558 0.0
H795 H 0.8519 0.89479 0.41901 0.0
H796 H 0.85652 0.92149 0.40616 0.0
H797 H 0.85679 0.89917 0.38654 0.0
H798 H 0.81606 0.91482 0.36192 0.0
H799 H 0.8156 0.93716 0.38151 0.0
H800 H 0.78327 0.92105 0.37753 0.0
H801 H 0.75056 0.88665 0.46271 0.0
H802 H 0.75685 0.91999 0.48447 0.0
H803 H 0.81912 0.94436 0.42894 0.0
C804 C 0.80486 0.86923 0.38072 0.0
C805 C 0.78953 0.84922 0.38245 0.0
C806 C 0.77012 0.84463 0.40248 0.0
C807 C 0.76603 0.85954 0.42042 0.0
C808 C 0.7814 0.87905 0.41813 0.0
C809 C 0.80046 0.88397 0.39886 0.0
C810 C 0.81424 0.90616 0.40088 0.0
C811 C 0.84679 0.90534 0.4033 0.0
C812 C 0.80684 0.92065 0.37917 0.0
C813 C 0.79992 0.9129 0.42433 0.0
C814 C 0.78106 0.89696 0.4339 0.0
C815 C 0.76536 0.89922 0.45547 0.0
C816 C 0.76922 0.91819 0.46776 0.0
C817 C 0.78869 0.93474 0.45856 0.0
C818 C 0.804 0.93207 0.43637 0.0
H819 H 0.69199 0.2767 0.86626 0.0
H820 H 0.63856 0.23724 0.82066 0.0
H821 H 0.60166 0.23364 0.85352 0.0
H822 H 0.67515 0.24539 0.9216 0.0
H823 H 0.67603 0.26811 0.94068 0.0
H824 H 0.69776 0.26863 0.91303 0.0
H825 H 0.67469 0.30313 0.89841 0.0
H826 H 0.65271 0.30262 0.92593 0.0
H827 H 0.63633 0.3034 0.89672 0.0
H828 H 0.57 0.23457 0.89111 0.0
H829 H 0.54743 0.23805 0.93202 0.0
H830 H 0.62304 0.27373 0.95455 0.0
C831 C 0.67273 0.2671 0.86312 0.0
C832 C 0.66828 0.25755 0.84048 0.0
C833 C 0.64241 0.24532 0.8374 0.0
C834 C 0.6213 0.24299 0.85609 0.0
C835 C 0.6264 0.25269 0.878 0.0
C836 C 0.65161 0.26428 0.88174 0.0
C837 C 0.65217 0.27238 0.9074 0.0
C838 C 0.67673 0.26307 0.92151 0.0
C839 C 0.65409 0.29684 0.90708 0.0
C840 C 0.62329 0.26358 0.91743 0.0
C841 C 0.60865 0.25245 0.90007 0.0
C842 C 0.5813 0.24317 0.90487 0.0
C843 C 0.56866 0.24523 0.92807 0.0
C844 C 0.58344 0.2563 0.9462 0.0
C845 C 0.61117 0.26546 0.94084 0.0
H846 H 0.2515 0.86033 0.62606 0.0
H847 H 0.20711 0.88345 0.68967 0.0
H848 H 0.20333 0.91821 0.66846 0.0
H849 H 0.29118 0.90864 0.60862 0.0
H850 H 0.28737 0.90554 0.57641 0.0
H851 H 0.28706 0.88242 0.59662 0.0
H852 H 0.2379 0.86936 0.58078 0.0
H853 H 0.23817 0.89237 0.5604 0.0
H854 H 0.20851 0.88675 0.58173 0.0
H855 H 0.20533 0.95089 0.64073 0.0
H856 H 0.21072 0.97842 0.60736 0.0
H857 H 0.25097 0.93352 0.56107 0.0
C858 C 0.24065 0.87256 0.63549 0.0
C859 C 0.22985 0.86906 0.65973 0.0
C860 C 0.21615 0.88575 0.67136 0.0
C861 C 0.21371 0.90556 0.65939 0.0
C862 C 0.22481 0.90848 0.63566 0.0
C863 C 0.23777 0.8924 0.62373 0.0
C864 C 0.24756 0.8996 0.59809 0.0
C865 C 0.28023 0.89901 0.59475 0.0
C866 C 0.23211 0.88623 0.57913 0.0
C867 C 0.23811 0.92226 0.5975 0.0
C868 C 0.2252 0.92711 0.61942 0.0
C869 C 0.21523 0.94722 0.62343 0.0
C870 C 0.21836 0.96273 0.60447 0.0
C871 C 0.23109 0.95795 0.58179 0.0
C872 C 0.24111 0.93748 0.5783 0.0
H873 H 0.69407 0.76246 0.17412 0.0
H874 H 0.67722 0.82204 0.2079 0.0
H875 H 0.64194 0.82955 0.17673 0.0
H876 H 0.68827 0.78152 0.11197 0.0
H877 H 0.67109 0.75714 0.10224 0.0
H878 H 0.69527 0.75656 0.12705 0.0
H879 H 0.65566 0.7372 0.15477 0.0
H880 H 0.63136 0.73774 0.13005 0.0
H881 H 0.6216 0.74895 0.15867 0.0
H882 H 0.6076 0.83016 0.14257 0.0
H883 H 0.57715 0.82413 0.10746 0.0
H884 H 0.61713 0.76451 0.0953 0.0
C885 C 0.68286 0.77704 0.17503 0.0
C886 C 0.68848 0.79169 0.19343 0.0
C887 C 0.67357 0.81071 0.1938 0.0
C888 C 0.65338 0.81507 0.17626 0.0
C889 C 0.64836 0.80029 0.1584 0.0
C890 C 0.66272 0.78169 0.1576 0.0
C891 C 0.65335 0.76848 0.13646 0.0
C892 C 0.67849 0.76578 0.11836 0.0
C893 C 0.63968 0.74681 0.14554 0.0
C894 C 0.63134 0.7825 0.1256 0.0
C895 C 0.62879 0.80076 0.13854 0.0
C896 C 0.60957 0.816 0.13218 0.0
C897 C 0.59249 0.81248 0.11207 0.0
C898 C 0.59476 0.7939 0.09842 0.0
C899 C 0.61458 0.77878 0.1054 0.0
H900 H 0.8024 0.16589 0.66659 0.0
H901 H 0.73821 0.20165 0.63039 0.0
H902 H 0.73408 0.17428 0.5995 0.0
H903 H 0.83714 0.14757 0.61125 0.0
H904 H 0.84357 0.12179 0.62456 0.0
H905 H 0.84221 0.14452 0.64351 0.0
H906 H 0.80269 0.12476 0.67094 0.0
H907 H 0.80388 0.102 0.65205 0.0
H908 H 0.77052 0.11438 0.65744 0.0
H909 H 0.73563 0.14267 0.57328 0.0
H910 H 0.74318 0.10892 0.5531 0.0
H911 H 0.80664 0.09348 0.60582 0.0
C912 C 0.78777 0.16811 0.65197 0.0
C913 C 0.77052 0.18592 0.65102 0.0
C914 C 0.75134 0.18803 0.63176 0.0
C915 C 0.74896 0.17263 0.61402 0.0
C916 C 0.76598 0.15518 0.61566 0.0
C917 C 0.7851 0.15284 0.63407 0.0
C918 C 0.80039 0.13228 0.63187 0.0
C919 C 0.83275 0.13682 0.62753 0.0
C920 C 0.79398 0.11748 0.65442 0.0
C921 C 0.7867 0.12339 0.60948 0.0
C922 C 0.76695 0.1369 0.60042 0.0
C923 C 0.75107 0.13198 0.58018 0.0
C924 C 0.75537 0.1127 0.56894 0.0
C925 C 0.77539 0.0985 0.57793 0.0
C926 C 0.79138 0.10408 0.59838 0.0
H927 H 0.38463 0.26207 0.1932 0.0
H928 H 0.30571 0.24137 0.15986 0.0
H929 H 0.33136 0.24071 0.11994 0.0
H930 H 0.41322 0.29619 0.14316 0.0
H931 H 0.44958 0.28892 0.14695 0.0
H932 H 0.42494 0.28813 0.17283 0.0
H933 H 0.43512 0.24862 0.18177 0.0
H934 H 0.4598 0.24931 0.15593 0.0
H935 H 0.43038 0.22968 0.15819 0.0
H936 H 0.36563 0.242 0.08368 0.0
H937 H 0.40665 0.24452 0.05384 0.0
H938 H 0.46318 0.26421 0.11061 0.0
C939 C 0.37273 0.25758 0.17744 0.0
C940 C 0.34316 0.25178 0.17961 0.0
C941 C 0.32841 0.24568 0.15865 0.0
C942 C 0.34276 0.24536 0.13589 0.0
C943 C 0.37191 0.25109 0.13439 0.0
C944 C 0.38677 0.25702 0.15461 0.0
C945 C 0.41819 0.2619 0.14814 0.0
C946 C 0.42699 0.28517 0.15306 0.0
C947 C 0.43698 0.24646 0.16182 0.0
C948 C 0.41861 0.25796 0.12111 0.0
C949 C 0.39168 0.25174 0.11353 0.0
C950 C 0.38678 0.24691 0.0894 0.0
C951 C 0.41006 0.24838 0.07261 0.0
C952 C 0.43771 0.25464 0.08009 0.0
C953 C 0.44205 0.25954 0.10457 0.0
H954 H 0.85244 0.68108 0.70853 0.0
H955 H 0.91302 0.71835 0.74991 0.0
H956 H 0.94618 0.68924 0.74889 0.0
H957 H 0.86302 0.63179 0.73771 0.0
H958 H 0.86026 0.61623 0.7109 0.0
H959 H 0.84218 0.64069 0.71268 0.0
H960 H 0.86807 0.65482 0.67261 0.0
H961 H 0.88616 0.63032 0.67063 0.0
H962 H 0.90658 0.65538 0.67011 0.0
H963 H 0.97075 0.65542 0.74691 0.0
H964 H 0.98623 0.61879 0.7429 0.0
H965 H 0.91099 0.60291 0.70188 0.0
C966 C 0.87297 0.68325 0.71688 0.0
C967 C 0.88013 0.70198 0.72938 0.0
C968 C 0.90697 0.70408 0.74046 0.0
C969 C 0.92602 0.68768 0.73987 0.0
C970 C 0.91808 0.66925 0.72796 0.0
C971 C 0.89233 0.66694 0.71648 0.0
C972 C 0.88857 0.64495 0.70609 0.0
C973 C 0.86193 0.6327 0.71753 0.0
C974 C 0.88727 0.64647 0.6782 0.0
C975 C 0.91589 0.63517 0.71404 0.0
C976 C 0.93261 0.64958 0.72653 0.0
C977 C 0.95805 0.64407 0.73691 0.0
C978 C 0.9666 0.62323 0.73465 0.0
C979 C 0.94985 0.60814 0.72204 0.0
C980 C 0.92435 0.61427 0.71132 0.0
H981 H 0.90457 0.34971 0.30372 0.0
H982 H 0.82368 0.36991 0.33295 0.0
H983 H 0.84449 0.40661 0.33532 0.0
H984 H 0.94905 0.3823 0.34157 0.0
H985 H 0.97646 0.38807 0.3182 0.0
H986 H 0.95498 0.36352 0.31814 0.0
H987 H 0.94035 0.3725 0.27407 0.0
H988 H 0.9617 0.39712 0.27404 0.0
H989 H 0.92428 0.39735 0.26741 0.0
H990 H 0.87361 0.44128 0.33348 0.0
H991 H 0.9104 0.47105 0.33057 0.0
H992 H 0.97313 0.42815 0.30471 0.0
C993 C 0.89128 0.36191 0.31053 0.0
C994 C 0.86251 0.35702 0.31814 0.0
C995 C 0.84582 0.37332 0.32721 0.0
C996 C 0.8574 0.39421 0.32849 0.0
C997 C 0.88581 0.39853 0.32084 0.0
C998 C 0.90265 0.38282 0.31226 0.0
C999 C 0.93284 0.3916 0.30599 0.0
C1000 C 0.95461 0.38073 0.32193 0.0
C1001 C 0.94021 0.38951 0.27876 0.0
C1002 C 0.9303 0.41468 0.31231 0.0
C1003 C 0.9029 0.41838 0.32061 0.0
C1004 C 0.89518 0.43854 0.32718 0.0
C1005 C 0.91612 0.45531 0.32549 0.0
C1006 C 0.94446 0.45174 0.31764 0.0
C1007 C 0.95156 0.43119 0.31084 0.0
H1008 H 0.17764 0.37045 0.70419 0.0
H1009 H 0.1229 0.32843 0.75177 0.0
H1010 H 0.08635 0.35519 0.75239 0.0
H1011 H 0.16171 0.41826 0.73228 0.0
H1012 H 0.16189 0.43428 0.70448 0.0
H1013 H 0.18313 0.41129 0.70622 0.0
H1014 H 0.15816 0.39612 0.6687 0.0
H1015 H 0.13685 0.41911 0.66683 0.0
H1016 H 0.11969 0.39281 0.66904 0.0
H1017 H 0.05718 0.38697 0.75033 0.0
H1018 H 0.03681 0.42218 0.74546 0.0
H1019 H 0.10927 0.44397 0.69848 0.0
C1020 C 0.15775 0.36676 0.71438 0.0
C1021 C 0.15321 0.34735 0.72804 0.0
C1022 C 0.12706 0.34327 0.74145 0.0
C1023 C 0.10606 0.35832 0.74178 0.0
C1024 C 0.11136 0.37738 0.72848 0.0
C1025 C 0.13647 0.38168 0.71493 0.0
C1026 C 0.13716 0.40388 0.70318 0.0
C1027 C 0.16247 0.41774 0.71208 0.0
C1028 C 0.13801 0.40292 0.67528 0.0
C1029 C 0.10877 0.41149 0.71262 0.0
C1030 C 0.09423 0.39584 0.72708 0.0
C1031 C 0.06821 0.39928 0.73888 0.0
C1032 C 0.05687 0.41933 0.73608 0.0
C1033 C 0.07145 0.4357 0.72157 0.0
C1034 C 0.09754 0.43161 0.70939 0.0
H1035 H 0.14715 0.66739 0.29121 0.0
H1036 H 0.22183 0.64654 0.32816 0.0
H1037 H 0.19891 0.61044 0.33379 0.0
H1038 H 0.09502 0.63692 0.32896 0.0
H1039 H 0.0718 0.63091 0.30432 0.0
H1040 H 0.09425 0.65503 0.30293 0.0
H1041 H 0.11631 0.64439 0.26156 0.0
H1042 H 0.09399 0.6202 0.26288 0.0
H1043 H 0.13226 0.61905 0.25935 0.0
H1044 H 0.16803 0.57649 0.33515 0.0
H1045 H 0.13028 0.54753 0.3336 0.0
H1046 H 0.07565 0.59044 0.29618 0.0
C1047 C 0.15875 0.65519 0.30034 0.0
C1048 C 0.1863 0.6598 0.30926 0.0
C1049 C 0.20059 0.64345 0.32142 0.0
C1050 C 0.18783 0.62286 0.32456 0.0
C1051 C 0.16071 0.61885 0.3155 0.0
C1052 C 0.14626 0.63457 0.30374 0.0
C1053 C 0.11707 0.62618 0.29617 0.0
C1054 C 0.09313 0.63796 0.30886 0.0
C1055 C 0.11479 0.62754 0.26834 0.0
C1056 C 0.11736 0.6033 0.30552 0.0
C1057 C 0.1428 0.59937 0.3165 0.0
C1058 C 0.14804 0.57939 0.3266 0.0
C1059 C 0.12661 0.56307 0.32563 0.0
C1060 C 0.10032 0.56691 0.31477 0.0
C1061 C 0.09571 0.58721 0.30448 0.0
H1062 H 0.80768 0.87566 0.64426 0.0
H1063 H 0.76505 0.9004 0.70781 0.0
H1064 H 0.76219 0.93503 0.68617 0.0
H1065 H 0.84863 0.92356 0.62542 0.0
H1066 H 0.84402 0.91996 0.59339 0.0
H1067 H 0.84371 0.89715 0.61407 0.0
H1068 H 0.79396 0.88432 0.59926 0.0
H1069 H 0.79423 0.90701 0.57842 0.0
H1070 H 0.76496 0.90205 0.60027 0.0
H1071 H 0.76342 0.96715 0.65746 0.0
H1072 H 0.76729 0.99372 0.62295 0.0
H1073 H 0.807 0.94775 0.5778 0.0
C1074 C 0.79757 0.88828 0.65363 0.0
C1075 C 0.78695 0.88523 0.67795 0.0
C1076 C 0.77404 0.90235 0.68945 0.0
C1077 C 0.77211 0.9221 0.67724 0.0
C1078 C 0.78297 0.92458 0.65341 0.0
C1079 C 0.79527 0.9081 0.64165 0.0
C1080 C 0.80461 0.91479 0.61575 0.0
C1081 C 0.83718 0.91381 0.61195 0.0
C1082 C 0.78847 0.90124 0.59734 0.0
C1083 C 0.79561 0.93756 0.61483 0.0
C1084 C 0.7833 0.94296 0.63677 0.0
C1085 C 0.77312 0.96313 0.64022 0.0
C1086 C 0.77545 0.97811 0.62065 0.0
C1087 C 0.78781 0.97278 0.59805 0.0
C1088 C 0.79793 0.95225 0.59513 0.0
H1089 H 0.70291 0.24474 0.18392 0.0
H1090 H 0.65326 0.28004 0.23512 0.0
H1091 H 0.61728 0.28568 0.20399 0.0
H1092 H 0.6894 0.27666 0.13022 0.0
H1093 H 0.68665 0.25435 0.11059 0.0
H1094 H 0.70873 0.25323 0.13679 0.0
H1095 H 0.68091 0.21856 0.15237 0.0
H1096 H 0.65877 0.21956 0.12621 0.0
H1097 H 0.64254 0.21827 0.15641 0.0
H1098 H 0.58726 0.28817 0.16723 0.0
H1099 H 0.56361 0.28559 0.12788 0.0
H1100 H 0.63188 0.24792 0.10055 0.0
C1101 C 0.6845 0.25372 0.1885 0.0
C1102 C 0.68083 0.26194 0.21194 0.0
C1103 C 0.65632 0.27341 0.21736 0.0
C1104 C 0.63587 0.2768 0.19977 0.0
C1105 C 0.64011 0.26849 0.17685 0.0
C1106 C 0.66368 0.25705 0.1712 0.0
C1107 C 0.6627 0.24945 0.14534 0.0
C1108 C 0.6884 0.259 0.12982 0.0
C1109 C 0.66113 0.22501 0.14508 0.0
C1110 C 0.63496 0.25847 0.13734 0.0
C1111 C 0.62241 0.26953 0.15576 0.0
C1112 C 0.59687 0.27953 0.15268 0.0
C1113 C 0.58369 0.27809 0.13022 0.0
C1114 C 0.59592 0.26661 0.11114 0.0
C1115 C 0.62193 0.25668 0.11485 0.0
H1116 H 0.27287 0.17842 0.63511 0.0
H1117 H 0.2026 0.16097 0.68646 0.0
H1118 H 0.19429 0.12707 0.6661 0.0
H1119 H 0.24045 0.15641 0.58283 0.0
H1120 H 0.27318 0.14699 0.57004 0.0
H1121 H 0.27429 0.16977 0.58897 0.0
H1122 H 0.30928 0.15127 0.61732 0.0
H1123 H 0.30825 0.12841 0.59848 0.0
H1124 H 0.29939 0.12527 0.63057 0.0
H1125 H 0.19281 0.09546 0.64015 0.0
H1126 H 0.19788 0.06801 0.60966 0.0
H1127 H 0.26904 0.1054 0.57463 0.0
C1128 C 0.25591 0.16737 0.64218 0.0
C1129 C 0.23825 0.17246 0.66231 0.0
C1130 C 0.2161 0.15763 0.67084 0.0
C1131 C 0.21133 0.13824 0.65951 0.0
C1132 C 0.22892 0.1338 0.63965 0.0
C1133 C 0.25078 0.14789 0.631 0.0
C1134 C 0.2661 0.13928 0.60897 0.0
C1135 C 0.26333 0.15399 0.58636 0.0
C1136 C 0.29762 0.13585 0.61415 0.0
C1137 C 0.2493 0.11823 0.60656 0.0
C1138 C 0.22803 0.11542 0.62453 0.0
C1139 C 0.20937 0.09747 0.62597 0.0
C1140 C 0.21232 0.08202 0.60846 0.0
C1141 C 0.23373 0.08457 0.58964 0.0
C1142 C 0.25263 0.10288 0.5889 0.0
H1143 H 0.38232 0.76701 0.18846 0.0
H1144 H 0.30466 0.78878 0.15716 0.0
H1145 H 0.32903 0.7919 0.11658 0.0
H1146 H 0.43135 0.8015 0.1516 0.0
H1147 H 0.45794 0.78196 0.14883 0.0
H1148 H 0.43433 0.78139 0.17536 0.0
H1149 H 0.41834 0.74229 0.16747 0.0
H1150 H 0.44182 0.74278 0.14086 0.0
H1151 H 0.40428 0.73571 0.13837 0.0
H1152 H 0.36143 0.79164 0.07921 0.0
H1153 H 0.40064 0.78995 0.04808 0.0
H1154 H 0.45746 0.76934 0.1038 0.0
C1155 C 0.37044 0.77237 0.17304 0.0
C1156 C 0.34159 0.77767 0.17594 0.0
C1157 C 0.32686 0.78486 0.15538 0.0
C1158 C 0.34046 0.78656 0.13225 0.0
C1159 C 0.36886 0.78111 0.13 0.0
C1160 C 0.38376 0.77431 0.14986 0.0
C1161 C 0.41425 0.76977 0.14255 0.0
C1162 C 0.43573 0.78454 0.15534 0.0
C1163 C 0.42 0.74624 0.14761 0.0
C1164 C 0.41415 0.77501 0.11548 0.0
C1165 C 0.38769 0.7814 0.10857 0.0
C1166 C 0.38226 0.78678 0.08442 0.0
C1167 C 0.40454 0.78578 0.06691 0.0
C1168 C 0.43187 0.77964 0.07372 0.0
C1169 C 0.43667 0.77412 0.09827 0.0
H1170 H 0.80551 0.15077 0.37615 0.0
H1171 H 0.75405 0.18859 0.42325 0.0
H1172 H 0.75191 0.15955 0.45478 0.0
H1173 H 0.76777 0.10096 0.3915 0.0
H1174 H 0.79923 0.08567 0.39008 0.0
H1175 H 0.7978 0.1098 0.37175 0.0
H1176 H 0.84447 0.12455 0.3906 0.0
H1177 H 0.84597 0.10049 0.40908 0.0
H1178 H 0.84629 0.12589 0.42321 0.0
H1179 H 0.75518 0.12626 0.48114 0.0
H1180 H 0.76201 0.0905 0.49959 0.0
H1181 H 0.80917 0.07373 0.43459 0.0
C1182 C 0.79404 0.15298 0.39321 0.0
C1183 C 0.78004 0.17195 0.39734 0.0
C1184 C 0.76481 0.17414 0.41971 0.0
C1185 C 0.76359 0.15778 0.43774 0.0
C1186 C 0.77752 0.13924 0.43307 0.0
C1187 C 0.79229 0.13669 0.41129 0.0
C1188 C 0.80438 0.11484 0.41045 0.0
C1189 C 0.79152 0.10207 0.38972 0.0
C1190 C 0.83723 0.11656 0.40821 0.0
C1191 C 0.79414 0.10552 0.43516 0.0
C1192 C 0.77888 0.11992 0.44801 0.0
C1193 C 0.76718 0.1149 0.47126 0.0
C1194 C 0.77115 0.09463 0.4816 0.0
C1195 C 0.78663 0.07967 0.4687 0.0
C1196 C 0.79801 0.08514 0.44511 0.0
H1197 H 0.37617 0.27048 0.83011 0.0
H1198 H 0.30456 0.22967 0.85852 0.0
H1199 H 0.33051 0.2227 0.89615 0.0
H1200 H 0.43264 0.23989 0.85544 0.0
H1201 H 0.45456 0.26308 0.86252 0.0
H1202 H 0.43088 0.26418 0.83736 0.0
H1203 H 0.40703 0.29641 0.85592 0.0
H1204 H 0.4306 0.29539 0.88114 0.0
H1205 H 0.3924 0.29414 0.88668 0.0
H1206 H 0.36401 0.22021 0.93067 0.0
H1207 H 0.40193 0.22374 0.9607 0.0
H1208 H 0.45144 0.26697 0.91059 0.0
C1209 C 0.36613 0.25993 0.84419 0.0
C1210 C 0.33838 0.25057 0.84143 0.0
C1211 C 0.32572 0.2371 0.86037 0.0
C1212 C 0.34034 0.23297 0.88173 0.0
C1213 C 0.36757 0.24254 0.88398 0.0
C1214 C 0.38031 0.25583 0.8658 0.0
C1215 C 0.40933 0.26473 0.87326 0.0
C1216 C 0.43326 0.25753 0.85612 0.0
C1217 C 0.40985 0.28911 0.87431 0.0
C1218 C 0.41083 0.2544 0.89847 0.0
C1219 C 0.38663 0.24151 0.90418 0.0
C1220 C 0.38309 0.23023 0.92639 0.0
C1221 C 0.40479 0.23225 0.94328 0.0
C1222 C 0.42963 0.2456 0.93799 0.0
C1223 C 0.4326 0.25677 0.91522 0.0
H1224 H 0.27926 0.86705 0.3624 0.0
H1225 H 0.21591 0.82366 0.39948 0.0
H1226 H 0.207 0.85057 0.42997 0.0
H1227 H 0.30783 0.88987 0.4169 0.0
H1228 H 0.31299 0.91632 0.40343 0.0
H1229 H 0.31488 0.89356 0.38458 0.0
H1230 H 0.27576 0.90831 0.35739 0.0
H1231 H 0.27378 0.93113 0.37613 0.0
H1232 H 0.24197 0.91474 0.37113 0.0
H1233 H 0.20345 0.88231 0.45546 0.0
H1234 H 0.20645 0.91687 0.47529 0.0
H1235 H 0.27268 0.93997 0.42259 0.0
C1236 C 0.26349 0.86325 0.37693 0.0
C1237 C 0.24836 0.84318 0.37862 0.0
C1238 C 0.22805 0.83877 0.39801 0.0
C1239 C 0.22273 0.854 0.41535 0.0
C1240 C 0.23799 0.87357 0.41318 0.0
C1241 C 0.25806 0.87825 0.39457 0.0
C1242 C 0.27141 0.90058 0.39652 0.0
C1243 C 0.30369 0.90004 0.40061 0.0
C1244 C 0.26536 0.91451 0.37395 0.0
C1245 C 0.25548 0.90776 0.419 0.0
C1246 C 0.23627 0.8919 0.42823 0.0
C1247 C 0.21848 0.89483 0.44847 0.0
C1248 C 0.22025 0.91453 0.45953 0.0
C1249 C 0.23974 0.93107 0.45045 0.0
C1250 C 0.25777 0.92753 0.43003 0.0
H1251 H 0.65914 0.76847 0.84489 0.0
H1252 H 0.73262 0.797 0.88005 0.0
H1253 H 0.70434 0.79749 0.91865 0.0
H1254 H 0.60683 0.79811 0.87456 0.0
H1255 H 0.58011 0.77646 0.87742 0.0
H1256 H 0.6065 0.77729 0.85284 0.0
H1257 H 0.62161 0.73976 0.86621 0.0
H1258 H 0.59522 0.73882 0.89084 0.0
H1259 H 0.63217 0.73491 0.89706 0.0
H1260 H 0.6677 0.79627 0.95297 0.0
H1261 H 0.62467 0.79352 0.9806 0.0
H1262 H 0.57516 0.76561 0.9235 0.0
C1263 C 0.66939 0.77452 0.86081 0.0
C1264 C 0.69809 0.78273 0.85945 0.0
C1265 C 0.71058 0.79085 0.88059 0.0
C1266 C 0.69475 0.79107 0.90264 0.0
C1267 C 0.66645 0.78307 0.9033 0.0
C1268 C 0.65386 0.77491 0.88298 0.0
C1269 C 0.62276 0.76801 0.88839 0.0
C1270 C 0.60289 0.78073 0.87235 0.0
C1271 C 0.61765 0.74394 0.88545 0.0
C1272 C 0.61978 0.77377 0.91484 0.0
C1273 C 0.64529 0.78234 0.92312 0.0
C1274 C 0.64767 0.78943 0.94676 0.0
C1275 C 0.62327 0.78783 0.96229 0.0
C1276 C 0.597 0.77924 0.95406 0.0
C1277 C 0.59524 0.77203 0.93013 0.0
loop_
_geom_bond_atom_site_label_1
_geom_bond_atom_site_label_2
_geom_bond_distance
_geom_bond_site_symmetry_2
_ccdc_geom_bond_type
C0 C1 1.386 . S
C0 C2 1.397 . S
C0 H24 0.931 . S
C1 C0 1.386 . S
C1 C5 1.397 . S
C2 C0 1.397 . S
C2 C3 1.384 . S
C2 H25 0.930 . S
C3 C2 1.384 . S
C3 C4 1.377 . S
C3 C6 1.481 . S
C4 C3 1.377 . S
C4 C5 1.389 . S
C4 H26 0.929 . S
C5 C1 1.397 . S
C5 C4 1.389 . S
C5 H27 0.931 . S
C6 C3 1.481 . S
C6 C7 1.387 . S
C6 C11 1.390 . S
C7 C6 1.387 . S
C7 C8 1.401 . S
C7 H28 0.930 . S
C8 C7 1.401 . S
C8 C9 1.376 . S
C8 C17 1.511 . S
C9 C8 1.376 . S
C9 C10 1.392 . S
C9 H30 0.931 . S
C10 C9 1.392 . S
C10 C11 1.361 . S
C10 C12 1.500 . S
C11 C6 1.390 . S
C11 C10 1.361 . S
C11 H29 0.931 . S
C12 C10 1.500 . S
C12 C13 1.371 . S
C12 C14 1.365 . S
C13 C12 1.371 . S
C13 C23 1.386 . S
C13 H31 0.931 . S
C14 C12 1.365 . S
C14 C15 1.409 . S
C14 H32 0.929 . S
C15 C14 1.409 . S
C15 C16 1.380 . S
C15 H33 0.930 . S
C16 C15 1.380 . S
C16 C23 1.357 . S
C17 C8 1.511 . S
C17 C18 1.341 . S
C17 C19 1.371 . S
C18 C17 1.341 . S
C18 C22 1.394 . S
C18 H34 0.930 . S
C19 C17 1.371 . S
C19 C20 1.392 . S
C19 H35 0.931 . S
C20 C19 1.392 . S
C20 C21 1.331 . S
C20 H38 0.932 . S
C21 C20 1.331 . S
C21 C22 1.336 . S
C22 C18 1.394 . S
C22 C21 1.336 . S
C22 H37 0.929 . S
C23 C13 1.386 . S
C23 C16 1.357 . S
C23 H36 0.928 . S
H24 C0 0.931 . S
H25 C2 0.930 . S
H26 C4 0.929 . S
H27 C5 0.931 . S
H28 C7 0.930 . S
H29 C11 0.931 . S
H30 C9 0.931 . S
H31 C13 0.931 . S
H32 C14 0.929 . S
H33 C15 0.930 . S
H34 C18 0.930 . S
H35 C19 0.931 . S
H36 C23 0.928 . S
H37 C22 0.929 . S
H38 C20 0.932 . S
C39 C40 1.386 . S
C39 C41 1.397 . S
C39 H63 0.931 . S
C40 C39 1.386 . S
C40 C44 1.397 . S
C41 C39 1.397 . S
C41 C42 1.384 . S
C41 H64 0.930 . S
C42 C41 1.384 . S
C42 C43 1.377 . S
C42 C45 1.481 . S
C43 C42 1.377 . S
C43 C44 1.389 . S
C43 H65 0.929 . S
C44 C40 1.397 . S
C44 C43 1.389 . S
C44 H66 0.931 . S
C45 C42 1.481 . S
C45 C46 1.387 . S
C45 C50 1.390 . S
C46 C45 1.387 . S
C46 C47 1.401 . S
C46 H67 0.930 . S
C47 C46 1.401 . S
C47 C48 1.376 . S
C47 C56 1.511 . S
C48 C47 1.376 . S
C48 C49 1.392 . S
C48 H69 0.931 . S
C49 C48 1.392 . S
C49 C50 1.361 . S
C49 C51 1.500 . S
C50 C45 1.390 . S
C50 C49 1.361 . S
C50 H68 0.931 . S
C51 C49 1.500 . S
C51 C52 1.371 . S
C51 C53 1.365 . S
C52 C51 1.371 . S
C52 C62 1.386 . S
C52 H70 0.931 . S
C53 C51 1.365 . S
C53 C54 1.409 . S
C53 H71 0.929 . S
C54 C53 1.409 . S
C54 C55 1.380 . S
C54 H72 0.930 . S
C55 C54 1.380 . S
C55 C62 1.357 . S
C56 C47 1.511 . S
C56 C57 1.341 . S
C56 C58 1.371 . S
C57 C56 1.341 . S
C57 C61 1.394 . S
C57 H73 0.930 . S
C58 C56 1.371 . S
C58 C59 1.392 . S
C58 H74 0.931 . S
C59 C58 1.392 . S
C59 C60 1.331 . S
C59 H77 0.932 . S
C60 C59 1.331 . S
C60 C61 1.336 . S
C61 C57 1.394 . S
C61 C60 1.336 . S
C61 H76 0.929 . S
C62 C52 1.386 . S
C62 C55 1.357 . S
C62 H75 0.928 . S
H63 C39 0.931 . S
H64 C41 0.930 . S
H65 C43 0.929 . S
H66 C44 0.931 . S
H67 C46 0.930 . S
H68 C50 0.931 . S
H69 C48 0.931 . S
H70 C52 0.931 . S
H71 C53 0.929 . S
H72 C54 0.930 . S
H73 C57 0.930 . S
H74 C58 0.931 . S
H75 C62 0.928 . S
H76 C61 0.929 . S
H77 C59 0.932 . S
C78 C79 1.386 . S
C78 C80 1.397 . S
C78 H102 0.931 . S
C79 C78 1.386 . S
C79 C83 1.397 . S
C80 C78 1.397 . S
C80 C81 1.384 . S
C80 H103 0.930 . S
C81 C80 1.384 . S
C81 C82 1.377 . S
C81 C84 1.481 . S
C82 C81 1.377 . S
C82 C83 1.389 . S
C82 H104 0.929 . S
C83 C79 1.397 . S
C83 C82 1.389 . S
C83 H105 0.931 . S
C84 C81 1.481 . S
C84 C85 1.387 . S
C84 C89 1.390 . S
C85 C84 1.387 . S
C85 C86 1.401 . S
C85 H106 0.930 . S
C86 C85 1.401 . S
C86 C87 1.376 . S
C86 C95 1.511 . S
C87 C86 1.376 . S
C87 C88 1.392 . S
C87 H108 0.931 . S
C88 C87 1.392 . S
C88 C89 1.361 . S
C88 C90 1.500 . S
C89 C84 1.390 . S
C89 C88 1.361 . S
C89 H107 0.931 . S
C90 C88 1.500 . S
C90 C91 1.371 . S
C90 C92 1.365 . S
C91 C90 1.371 . S
C91 C101 1.386 . S
C91 H109 0.931 . S
C92 C90 1.365 . S
C92 C93 1.409 . S
C92 H110 0.929 . S
C93 C92 1.409 . S
C93 C94 1.380 . S
C93 H111 0.930 . S
C94 C93 1.380 . S
C94 C101 1.357 . S
C95 C86 1.511 . S
C95 C96 1.341 . S
C95 C97 1.371 . S
C96 C95 1.341 . S
C96 C100 1.394 . S
C96 H112 0.930 . S
C97 C95 1.371 . S
C97 C98 1.392 . S
C97 H113 0.931 . S
C98 C97 1.392 . S
C98 C99 1.331 . S
C98 H116 0.932 . S
C99 C98 1.331 . S
C99 C100 1.336 . S
C100 C96 1.394 . S
C100 C99 1.336 . S
C100 H115 0.929 . S
C101 C91 1.386 . S
C101 C94 1.357 . S
C101 H114 0.928 . S
H102 C78 0.931 . S
H103 C80 0.930 . S
H104 C82 0.929 . S
H105 C83 0.931 . S
H106 C85 0.930 . S
H107 C89 0.931 . S
H108 C87 0.931 . S
H109 C91 0.931 . S
H110 C92 0.929 . S
H111 C93 0.930 . S
H112 C96 0.930 . S
H113 C97 0.931 . S
H114 C101 0.928 . S
H115 C100 0.929 . S
H116 C98 0.932 . S
C117 C118 1.386 . S
C117 C119 1.397 . S
C117 H141 0.931 . S
C118 C117 1.386 . S
C118 C122 1.397 . S
C119 C117 1.397 . S
C119 C120 1.384 . S
C119 H142 0.930 . S
C120 C119 1.384 . S
C120 C121 1.377 . S
C120 C123 1.481 . S
C121 C120 1.377 . S
C121 C122 1.389 . S
C121 H143 0.929 . S
C122 C118 1.397 . S
C122 C121 1.389 . S
C122 H144 0.931 . S
C123 C120 1.481 . S
C123 C124 1.387 . S
C123 C128 1.390 . S
C124 C123 1.387 . S
C124 C125 1.401 . S
C124 H145 0.930 . S
C125 C124 1.401 . S
C125 C126 1.376 . S
C125 C134 1.511 . S
C126 C125 1.376 . S
C126 C127 1.392 . S
C126 H147 0.931 . S
C127 C126 1.392 . S
C127 C128 1.361 . S
C127 C129 1.500 . S
C128 C123 1.390 . S
C128 C127 1.361 . S
C128 H146 0.931 . S
C129 C127 1.500 . S
C129 C130 1.371 . S
C129 C131 1.365 . S
C130 C129 1.371 . S
C130 C140 1.386 . S
C130 H148 0.931 . S
C131 C129 1.365 . S
C131 C132 1.409 . S
C131 H149 0.929 . S
C132 C131 1.409 . S
C132 C133 1.380 . S
C132 H150 0.930 . S
C133 C132 1.380 . S
C133 C140 1.357 . S
C134 C125 1.511 . S
C134 C135 1.341 . S
C134 C136 1.371 . S
C135 C134 1.341 . S
C135 C139 1.394 . S
C135 H151 0.930 . S
C136 C134 1.371 . S
C136 C137 1.392 . S
C136 H152 0.931 . S
C137 C136 1.392 . S
C137 C138 1.331 . S
C137 H155 0.932 . S
C138 C137 1.331 . S
C138 C139 1.336 . S
C139 C135 1.394 . S
C139 C138 1.336 . S
C139 H154 0.929 . S
C140 C130 1.386 . S
C140 C133 1.357 . S
C140 H153 0.928 . S
H141 C117 0.931 . S
H142 C119 0.930 . S
H143 C121 0.929 . S
H144 C122 0.931 . S
H145 C124 0.930 . S
H146 C128 0.931 . S
H147 C126 0.931 . S
H148 C130 0.931 . S
H149 C131 0.929 . S
H150 C132 0.930 . S
H151 C135 0.930 . S
H152 C136 0.931 . S
H153 C140 0.928 . S
H154 C139 0.929 . S
H155 C137 0.932 . S
C156 C157 1.386 . S
C156 C158 1.397 . S
C156 H180 0.931 . S
C157 C156 1.386 . S
C157 C161 1.397 . S
C158 C156 1.397 . S
C158 C159 1.384 . S
C158 H181 0.930 . S
C159 C158 1.384 . S
C159 C160 1.377 . S
C159 C162 1.481 . S
C160 C159 1.377 . S
C160 C161 1.389 . S
C160 H182 0.929 . S
C161 C157 1.397 . S
C161 C160 1.389 . S
C161 H183 0.931 . S
C162 C159 1.481 . S
C162 C163 1.387 . S
C162 C167 1.390 . S
C163 C162 1.387 . S
C163 C164 1.401 . S
C163 H184 0.930 . S
C164 C163 1.401 . S
C164 C165 1.376 . S
C164 C173 1.511 . S
C165 C164 1.376 . S
C165 C166 1.392 . S
C165 H186 0.931 . S
C166 C165 1.392 . S
C166 C167 1.361 . S
C166 C168 1.500 . S
C167 C162 1.390 . S
C167 C166 1.361 . S
C167 H185 0.931 . S
C168 C166 1.500 . S
C168 C169 1.371 . S
C168 C170 1.365 . S
C169 C168 1.371 . S
C169 C179 1.386 . S
C169 H187 0.931 . S
C170 C168 1.365 . S
C170 C171 1.409 . S
C170 H188 0.929 . S
C171 C170 1.409 . S
C171 C172 1.380 . S
C171 H189 0.930 . S
C172 C171 1.380 . S
C172 C179 1.357 . S
C173 C164 1.511 . S
C173 C174 1.341 . S
C173 C175 1.371 . S
C174 C173 1.341 . S
C174 C178 1.394 . S
C174 H190 0.930 . S
C175 C173 1.371 . S
C175 C176 1.392 . S
C175 H191 0.931 . S
C176 C175 1.392 . S
C176 C177 1.331 . S
C176 H194 0.932 . S
C177 C176 1.331 . S
C177 C178 1.336 . S
C178 C174 1.394 . S
C178 C177 1.336 . S
C178 H193 0.929 . S
C179 C169 1.386 . S
C179 C172 1.357 . S
C179 H192 0.928 . S
H180 C156 0.931 . S
H181 C158 0.930 . S
H182 C160 0.929 . S
H183 C161 0.931 . S
H184 C163 0.930 . S
H185 C167 0.931 . S
H186 C165 0.931 . S
H187 C169 0.931 . S
H188 C170 0.929 . S
H189 C171 0.930 . S
H190 C174 0.930 . S
H191 C175 0.931 . S
H192 C179 0.928 . S
H193 C178 0.929 . S
H194 C176 0.932 . S
C195 C196 1.386 . S
C195 C197 1.397 . S
C195 H219 0.931 . S
C196 C195 1.386 . S
C196 C200 1.397 . S
C197 C195 1.397 . S
C197 C198 1.384 . S
C197 H220 0.930 . S
C198 C197 1.384 . S
C198 C199 1.377 . S
C198 C201 1.481 . S
C199 C198 1.377 . S
C199 C200 1.389 . S
C199 H221 0.929 . S
C200 C196 1.397 . S
C200 C199 1.389 . S
C200 H222 0.931 . S
C201 C198 1.481 . S
C201 C202 1.387 . S
C201 C206 1.390 . S
C202 C201 1.387 . S
C202 C203 1.401 . S
C202 H223 0.930 . S
C203 C202 1.401 . S
C203 C204 1.376 . S
C203 C212 1.511 . S
C204 C203 1.376 . S
C204 C205 1.392 . S
C204 H225 0.931 . S
C205 C204 1.392 . S
C205 C206 1.361 . S
C205 C207 1.500 . S
C206 C201 1.390 . S
C206 C205 1.361 . S
C206 H224 0.931 . S
C207 C205 1.500 . S
C207 C208 1.371 . S
C207 C209 1.365 . S
C208 C207 1.371 . S
C208 C218 1.386 . S
C208 H226 0.931 . S
C209 C207 1.365 . S
C209 C210 1.409 . S
C209 H227 0.929 . S
C210 C209 1.409 . S
C210 C211 1.380 . S
C210 H228 0.930 . S
C211 C210 1.380 . S
C211 C218 1.357 . S
C212 C203 1.511 . S
C212 C213 1.341 . S
C212 C214 1.371 . S
C213 C212 1.341 . S
C213 C217 1.394 . S
C213 H229 0.930 . S
C214 C212 1.371 . S
C214 C215 1.392 . S
C214 H230 0.931 . S
C215 C214 1.392 . S
C215 C216 1.331 . S
C215 H233 0.932 . S
C216 C215 1.331 . S
C216 C217 1.336 . S
C217 C213 1.394 . S
C217 C216 1.336 . S
C217 H232 0.929 . S
C218 C208 1.386 . S
C218 C211 1.357 . S
C218 H231 0.928 . S
H219 C195 0.931 . S
H220 C197 0.930 . S
H221 C199 0.929 . S
H222 C200 0.931 . S
H223 C202 0.930 . S
H224 C206 0.931 . S
H225 C204 0.931 . S
H226 C208 0.931 . S
H227 C209 0.929 . S
H228 C210 0.930 . S
H229 C213 0.930 . S
H230 C214 0.931 . S
H231 C218 0.928 . S
H232 C217 0.929 . S
H233 C215 0.932 . S
C234 C235 1.386 . S
C234 C236 1.397 . S
C234 H258 0.931 . S
C235 C234 1.386 . S
C235 C239 1.397 . S
C236 C234 1.397 . S
C236 C237 1.384 . S
C236 H259 0.930 . S
C237 C236 1.384 . S
C237 C238 1.377 . S
C237 C240 1.481 . S
C238 C237 1.377 . S
C238 C239 1.389 . S
C238 H260 0.929 . S
C239 C235 1.397 . S
C239 C238 1.389 . S
C239 H261 0.931 . S
C240 C237 1.481 . S
C240 C241 1.387 . S
C240 C245 1.390 . S
C241 C240 1.387 . S
C241 C242 1.401 . S
C241 H262 0.930 . S
C242 C241 1.401 . S
C242 C243 1.376 . S
C242 C251 1.511 . S
C243 C242 1.376 . S
C243 C244 1.392 . S
C243 H264 0.931 . S
C244 C243 1.392 . S
C244 C245 1.361 . S
C244 C246 1.500 . S
C245 C240 1.390 . S
C245 C244 1.361 . S
C245 H263 0.931 . S
C246 C244 1.500 . S
C246 C247 1.371 . S
C246 C248 1.365 . S
C247 C246 1.371 . S
C247 C257 1.386 . S
C247 H265 0.931 . S
C248 C246 1.365 . S
C248 C249 1.409 . S
C248 H266 0.929 . S
C249 C248 1.409 . S
C249 C250 1.380 . S
C249 H267 0.930 . S
C250 C249 1.380 . S
C250 C257 1.357 . S
C251 C242 1.511 . S
C251 C252 1.341 . S
C251 C253 1.371 . S
C252 C251 1.341 . S
C252 C256 1.394 . S
C252 H268 0.930 . S
C253 C251 1.371 . S
C253 C254 1.392 . S
C253 H269 0.931 . S
C254 C253 1.392 . S
C254 C255 1.331 . S
C254 H272 0.932 . S
C255 C254 1.331 . S
C255 C256 1.336 . S
C256 C252 1.394 . S
C256 C255 1.336 . S
C256 H271 0.929 . S
C257 C247 1.386 . S
C257 C250 1.357 . S
C257 H270 0.928 . S
H258 C234 0.931 . S
H259 C236 0.930 . S
H260 C238 0.929 . S
H261 C239 0.931 . S
H262 C241 0.930 . S
H263 C245 0.931 . S
H264 C243 0.931 . S
H265 C247 0.931 . S
H266 C248 0.929 . S
H267 C249 0.930 . S
H268 C252 0.930 . S
H269 C253 0.931 . S
H270 C257 0.928 . S
H271 C256 0.929 . S
H272 C254 0.932 . S
C273 C274 1.386 . S
C273 C275 1.397 . S
C273 H297 0.931 . S
C274 C273 1.386 . S
C274 C278 1.397 . S
C275 C273 1.397 . S
C275 C276 1.384 . S
C275 H298 0.930 . S
C276 C275 1.384 . S
C276 C277 1.377 . S
C276 C279 1.481 . S
C277 C276 1.377 . S
C277 C278 1.389 . S
C277 H299 0.929 . S
C278 C274 1.397 . S
C278 C277 1.389 . S
C278 H300 0.931 . S
C279 C276 1.481 . S
C279 C280 1.387 . S
C279 C284 1.390 . S
C280 C279 1.387 . S
C280 C281 1.401 . S
C280 H301 0.930 . S
C281 C280 1.401 . S
C281 C282 1.376 . S
C281 C290 1.511 . S
C282 C281 1.376 . S
C282 C283 1.392 . S
C282 H303 0.931 . S
C283 C282 1.392 . S
C283 C284 1.361 . S
C283 C285 1.500 . S
C284 C279 1.390 . S
C284 C283 1.361 . S
C284 H302 0.931 . S
C285 C283 1.500 . S
C285 C286 1.371 . S
C285 C287 1.365 . S
C286 C285 1.371 . S
C286 C296 1.386 . S
C286 H304 0.931 . S
C287 C285 1.365 . S
C287 C288 1.409 . S
C287 H305 0.929 . S
C288 C287 1.409 . S
C288 C289 1.380 . S
C288 H306 0.930 . S
C289 C288 1.380 . S
C289 C296 1.357 . S
C290 C281 1.511 . S
C290 C291 1.341 . S
C290 C292 1.371 . S
C291 C290 1.341 . S
C291 C295 1.394 . S
C291 H307 0.930 . S
C292 C290 1.371 . S
C292 C293 1.392 . S
C292 H308 0.931 . S
C293 C292 1.392 . S
C293 C294 1.331 . S
C293 H311 0.932 . S
C294 C293 1.331 . S
C294 C295 1.336 . S
C295 C291 1.394 . S
C295 C294 1.336 . S
C295 H310 0.929 . S
C296 C286 1.386 . S
C296 C289 1.357 . S
C296 H309 0.928 . S
H297 C273 0.931 . S
H298 C275 0.930 . S
H299 C277 0.929 . S
H300 C278 0.931 . S
H301 C280 0.930 . S
H302 C284 0.931 . S
H303 C282 0.931 . S
H304 C286 0.931 . S
H305 C287 0.929 . S
H306 C288 0.930 . S
H307 C291 0.930 . S
H308 C292 0.931 . S
H309 C296 0.928 . S
H310 C295 0.929 . S
H311 C293 0.932 . S
C312 C313 1.443 . S
C312 N316 1.376 . S
C312 C350 1.389 . S
C313 C312 1.443 . S
C313 C314 1.340 . S
C313 H353 0.951 . S
C314 C313 1.340 . S
C314 C315 1.439 . S
C314 H354 0.950 . S
C315 C314 1.439 . S
C315 N316 1.374 . S
C315 C349 1.395 . S
N316 C312 1.376 . S
N316 C315 1.374 . S
N316 Co317 2.008 . S
Co317 N316 2.008 . S
Co317 N318 1.994 1_455 S
Co317 N323 2.008 . S
Co317 N328 1.995 . S
Co317 N333 2.282 . S
Co317 N339 2.282 1_455 S
N318 Co317 1.994 1_655 S
N318 C319 1.376 1_655 S
N318 C322 1.384 . S
C319 N318 1.376 1_455 S
C319 C320 1.440 1_455 S
C319 C349 1.397 . S
C320 C319 1.440 1_655 S
C320 C321 1.339 . S
C320 H355 0.949 . S
C321 C320 1.339 . S
C321 C322 1.439 . S
C321 H356 0.950 . S
C322 N318 1.384 . S
C322 C321 1.439 . S
C322 C351 1.392 . S
N323 Co317 2.008 . S
N323 C324 1.376 1_455 S
N323 C327 1.374 . S
C324 N323 1.376 1_655 S
C324 C325 1.443 . S
C324 C351 1.389 . S
C325 C324 1.443 . S
C325 C326 1.340 . S
C325 H357 0.951 . S
C326 C325 1.340 . S
C326 C327 1.439 1_655 S
C326 H358 0.950 . S
C327 N323 1.374 . S
C327 C326 1.439 1_455 S
C327 C352 1.395 . S
N328 Co317 1.995 . S
N328 C329 1.376 . S
N328 C332 1.383 . S
C329 N328 1.376 . S
C329 C330 1.446 . S
C329 C352 1.391 . S
C330 C329 1.446 . S
C330 C331 1.339 . S
C330 H359 0.949 . S
C331 C330 1.339 . S
C331 C332 1.439 . S
C331 H360 0.950 . S
C332 N328 1.383 . S
C332 C331 1.439 . S
C332 C350 1.392 . S
N333 Co317 2.282 . S
N333 C336 1.332 . S
N333 C338 1.332 . S
C334 C335 1.386 . S
C334 C337 1.388 . S
C335 C334 1.386 . S
C335 C336 1.382 . S
C335 H361 0.950 . S
C336 N333 1.332 . S
C336 C335 1.382 . S
C336 H347 0.952 . S
C337 C334 1.388 . S
C337 C338 1.382 . S
C337 H362 0.950 . S
C338 N333 1.332 . S
C338 C337 1.382 . S
C338 H348 0.948 . S
N339 Co317 2.282 1_655 S
N339 C343 1.332 . S
N339 C344 1.332 . S
C340 C341 1.388 . S
C340 C344 1.382 . S
C340 H363 0.950 . S
C341 C340 1.388 . S
C341 C342 1.386 . S
C342 C341 1.386 . S
C342 C343 1.382 . S
C342 H364 0.950 . S
C343 N339 1.332 . S
C343 C342 1.382 . S
C343 H345 0.952 . S
C344 N339 1.332 . S
C344 C340 1.382 . S
C344 H346 0.948 . S
H345 C343 0.952 . S
H346 C344 0.948 . S
H347 C336 0.952 . S
H348 C338 0.948 . S
C349 C315 1.395 . S
C349 C319 1.397 . S
C350 C312 1.389 . S
C350 C332 1.392 . S
C351 C322 1.392 . S
C351 C324 1.389 . S
C352 C327 1.395 . S
C352 C329 1.391 . S
H353 C313 0.951 . S
H354 C314 0.950 . S
H355 C320 0.949 . S
H356 C321 0.950 . S
H357 C325 0.951 . S
H358 C326 0.950 . S
H359 C330 0.949 . S
H360 C331 0.950 . S
H361 C335 0.950 . S
H362 C337 0.950 . S
H363 C340 0.950 . S
H364 C342 0.950 . S
C365 C366 1.443 . S
C365 N369 1.376 . S
C365 C403 1.389 . S
C366 C365 1.443 . S
C366 C367 1.340 . S
C366 H406 0.951 . S
C367 C366 1.340 . S
C367 C368 1.439 . S
C367 H407 0.950 . S
C368 C367 1.439 . S
C368 N369 1.374 . S
C368 C402 1.395 . S
N369 C365 1.376 . S
N369 C368 1.374 . S
N369 Co370 2.008 . S
Co370 N369 2.008 . S
Co370 N371 1.995 1_455 S
Co370 N376 2.008 1_455 S
Co370 N381 1.995 . S
Co370 N386 2.282 . S
Co370 N392 2.282 1_455 S
N371 Co370 1.995 1_655 S
N371 C372 1.376 . S
N371 C375 1.383 . S
C372 N371 1.376 . S
C372 C373 1.446 . S
C372 C402 1.391 1_655 S
C373 C372 1.446 . S
C373 C374 1.339 . S
C373 H408 0.949 . S
C374 C373 1.339 . S
C374 C375 1.439 . S
C374 H409 0.950 . S
C375 N371 1.383 . S
C375 C374 1.439 . S
C375 C404 1.392 . S
N376 Co370 2.008 1_655 S
N376 C377 1.376 . S
N376 C380 1.374 . S
C377 N376 1.376 . S
C377 C378 1.443 . S
C377 C404 1.389 . S
C378 C377 1.443 . S
C378 C379 1.340 . S
C378 H410 0.951 . S
C379 C378 1.340 . S
C379 C380 1.439 . S
C379 H411 0.950 . S
C380 N376 1.374 . S
C380 C379 1.439 . S
C380 C405 1.395 1_655 S
N381 Co370 1.995 . S
N381 C382 1.376 . S
N381 C385 1.383 . S
C382 N381 1.376 . S
C382 C383 1.446 . S
C382 C405 1.391 . S
C383 C382 1.446 . S
C383 C384 1.339 . S
C383 H412 0.949 . S
C384 C383 1.339 . S
C384 C385 1.439 . S
C384 H413 0.950 . S
C385 N381 1.383 . S
C385 C384 1.439 . S
C385 C403 1.392 . S
N386 Co370 2.282 . S
N386 C389 1.332 . S
N386 C391 1.332 . S
C387 C388 1.386 . S
C387 C390 1.388 . S
C388 C387 1.386 . S
C388 C389 1.382 . S
C388 H414 0.950 . S
C389 N386 1.332 . S
C389 C388 1.382 . S
C389 H400 0.952 . S
C390 C387 1.388 . S
C390 C391 1.382 . S
C390 H415 0.950 . S
C391 N386 1.332 . S
C391 C390 1.382 . S
C391 H401 0.948 . S
N392 Co370 2.282 1_655 S
N392 C396 1.332 . S
N392 C397 1.332 . S
C393 C394 1.388 . S
C393 C397 1.382 . S
C393 H416 0.950 . S
C394 C393 1.388 . S
C394 C395 1.386 . S
C395 C394 1.386 . S
C395 C396 1.382 . S
C395 H417 0.950 . S
C396 N392 1.332 . S
C396 C395 1.382 . S
C396 H398 0.952 . S
C397 N392 1.332 . S
C397 C393 1.382 . S
C397 H399 0.948 . S
H398 C396 0.952 . S
H399 C397 0.948 . S
H400 C389 0.952 . S
H401 C391 0.948 . S
C402 C368 1.395 . S
C402 C372 1.391 1_455 S
C403 C365 1.389 . S
C403 C385 1.392 . S
C404 C375 1.392 . S
C404 C377 1.389 . S
C405 C380 1.395 1_455 S
C405 C382 1.391 . S
H406 C366 0.951 . S
H407 C367 0.950 . S
H408 C373 0.949 . S
H409 C374 0.950 . S
H410 C378 0.951 . S
H411 C379 0.950 . S
H412 C383 0.949 . S
H413 C384 0.950 . S
H414 C388 0.950 . S
H415 C390 0.950 . S
H416 C393 0.950 . S
H417 C395 0.950 . S
C418 C419 1.443 . S
C418 N422 1.376 . S
C418 C456 1.389 . S
C419 C418 1.443 . S
C419 C420 1.340 . S
C419 H459 0.951 . S
C420 C419 1.340 . S
C420 C421 1.439 . S
C420 H460 0.950 . S
C421 C420 1.439 . S
C421 N422 1.374 . S
C421 C455 1.395 1_565 S
N422 C418 1.376 . S
N422 C421 1.374 . S
N422 Co423 2.008 1_565 S
Co423 N422 2.008 1_545 S
Co423 N424 1.995 . S
Co423 N429 2.008 . S
Co423 N434 1.995 1_545 S
Co423 N439 2.282 . S
Co423 N445 2.282 1_545 S
N424 Co423 1.995 . S
N424 C425 1.376 . S
N424 C428 1.383 . S
C425 N424 1.376 . S
C425 C426 1.446 . S
C425 C455 1.391 . S
C426 C425 1.446 . S
C426 C427 1.339 . S
C426 H461 0.949 . S
C427 C426 1.339 . S
C427 C428 1.439 . S
C427 H462 0.950 . S
C428 N424 1.383 . S
C428 C427 1.439 . S
C428 C457 1.392 . S
N429 Co423 2.008 . S
N429 C430 1.376 . S
N429 C433 1.374 . S
C430 N429 1.376 . S
C430 C431 1.443 . S
C430 C457 1.389 . S
C431 C430 1.443 . S
C431 C432 1.340 . S
C431 H463 0.951 . S
C432 C431 1.340 . S
C432 C433 1.439 . S
C432 H464 0.950 . S
C433 N429 1.374 . S
C433 C432 1.439 . S
C433 C458 1.395 . S
N434 Co423 1.995 1_565 S
N434 C435 1.376 . S
N434 C438 1.383 . S
C435 N434 1.376 . S
C435 C436 1.446 . S
C435 C458 1.391 1_565 S
C436 C435 1.446 . S
C436 C437 1.339 . S
C436 H465 0.949 . S
C437 C436 1.339 . S
C437 C438 1.439 . S
C437 H466 0.950 . S
C438 N434 1.383 . S
C438 C437 1.439 . S
C438 C456 1.392 . S
N439 Co423 2.282 . S
N439 C442 1.332 . S
N439 C444 1.332 . S
C440 C441 1.386 . S
C440 C443 1.388 . S
C441 C440 1.386 . S
C441 C442 1.382 . S
C441 H467 0.950 . S
C442 N439 1.332 . S
C442 C441 1.382 . S
C442 H453 0.952 . S
C443 C440 1.388 . S
C443 C444 1.382 . S
C443 H468 0.950 . S
C444 N439 1.332 . S
C444 C443 1.382 . S
C444 H454 0.948 . S
N445 Co423 2.282 1_565 S
N445 C449 1.332 . S
N445 C450 1.332 . S
C446 C447 1.388 . S
C446 C450 1.382 . S
C446 H469 0.950 . S
C447 C446 1.388 . S
C447 C448 1.386 . S
C448 C447 1.386 . S
C448 C449 1.382 . S
C448 H470 0.950 . S
C449 N445 1.332 . S
C449 C448 1.382 . S
C449 H451 0.952 . S
C450 N445 1.332 . S
C450 C446 1.382 . S
C450 H452 0.948 . S
H451 C449 0.952 . S
H452 C450 0.948 . S
H453 C442 0.952 . S
H454 C444 0.948 . S
C455 C421 1.395 1_545 S
C455 C425 1.391 . S
C456 C418 1.389 . S
C456 C438 1.392 . S
C457 C428 1.392 . S
C457 C430 1.389 . S
C458 C433 1.395 . S
C458 C435 1.391 1_545 S
H459 C419 0.951 . S
H460 C420 0.950 . S
H461 C426 0.949 . S
H462 C427 0.950 . S
H463 C431 0.951 . S
H464 C432 0.950 . S
H465 C436 0.949 . S
H466 C437 0.950 . S
H467 C441 0.950 . S
H468 C443 0.950 . S
H469 C446 0.950 . S
H470 C448 0.950 . S
C471 C472 1.443 . S
C471 N475 1.376 . S
C471 C509 1.389 . S
C472 C471 1.443 . S
C472 C473 1.340 . S
C472 H512 0.951 . S
C473 C472 1.340 . S
C473 C474 1.439 . S
C473 H513 0.950 . S
C474 C473 1.439 . S
C474 N475 1.374 . S
C474 C508 1.395 . S
N475 C471 1.376 . S
N475 C474 1.374 . S
N475 Co476 2.008 . S
Co476 N475 2.008 . S
Co476 N477 1.995 1_554 S
Co476 N482 2.008 1_554 S
Co476 N487 1.995 . S
Co476 N492 2.282 1_554 S
Co476 N498 2.282 . S
N477 Co476 1.995 1_556 S
N477 C478 1.376 . S
N477 C481 1.383 . S
C478 N477 1.376 . S
C478 C479 1.446 . S
C478 C508 1.391 1_556 S
C479 C478 1.446 . S
C479 C480 1.339 . S
C479 H514 0.949 . S
C480 C479 1.339 . S
C480 C481 1.439 . S
C480 H515 0.950 . S
C481 N477 1.383 . S
C481 C480 1.439 . S
C481 C510 1.392 . S
N482 Co476 2.008 1_556 S
N482 C483 1.376 . S
N482 C486 1.374 . S
C483 N482 1.376 . S
C483 C484 1.443 . S
C483 C510 1.389 . S
C484 C483 1.443 . S
C484 C485 1.340 . S
C484 H516 0.951 . S
C485 C484 1.340 . S
C485 C486 1.439 . S
C485 H517 0.950 . S
C486 N482 1.374 . S
C486 C485 1.439 . S
C486 C511 1.395 1_556 S
N487 Co476 1.995 . S
N487 C488 1.376 . S
N487 C491 1.383 . S
C488 N487 1.376 . S
C488 C489 1.446 . S
C488 C511 1.391 . S
C489 C488 1.446 . S
C489 C490 1.339 . S
C489 H518 0.949 . S
C490 C489 1.339 . S
C490 C491 1.439 . S
C490 H519 0.950 . S
C491 N487 1.383 . S
C491 C490 1.439 . S
C491 C509 1.392 . S
N492 Co476 2.282 1_556 S
N492 C495 1.332 . S
N492 C497 1.332 . S
C493 C494 1.386 . S
C493 C496 1.388 . S
C494 C493 1.386 . S
C494 C495 1.382 . S
C494 H520 0.950 . S
C495 N492 1.332 . S
C495 C494 1.382 . S
C495 H506 0.952 . S
C496 C493 1.388 . S
C496 C497 1.382 . S
C496 H521 0.950 . S
C497 N492 1.332 . S
C497 C496 1.382 . S
C497 H507 0.948 . S
N498 Co476 2.282 . S
N498 C502 1.332 . S
N498 C503 1.332 . S
C499 C500 1.388 . S
C499 C503 1.382 . S
C499 H522 0.950 . S
C500 C499 1.388 . S
C500 C501 1.386 . S
C501 C500 1.386 . S
C501 C502 1.382 . S
C501 H523 0.950 . S
C502 N498 1.332 . S
C502 C501 1.382 . S
C502 H504 0.952 . S
C503 N498 1.332 . S
C503 C499 1.382 . S
C503 H505 0.948 . S
H504 C502 0.952 . S
H505 C503 0.948 . S
H506 C495 0.952 . S
H507 C497 0.948 . S
C508 C474 1.395 . S
C508 C478 1.391 1_554 S
C509 C471 1.389 . S
C509 C491 1.392 . S
C510 C481 1.392 . S
C510 C483 1.389 . S
C511 C486 1.395 1_554 S
C511 C488 1.391 . S
H512 C472 0.951 . S
H513 C473 0.950 . S
H514 C479 0.949 . S
H515 C480 0.950 . S
H516 C484 0.951 . S
H517 C485 0.950 . S
H518 C489 0.949 . S
H519 C490 0.950 . S
H520 C494 0.950 . S
H521 C496 0.950 . S
H522 C499 0.950 . S
H523 C501 0.950 . S
C524 C525 1.443 . S
C524 N528 1.395 . S
C524 C562 1.389 . S
C525 C524 1.443 . S
C525 C526 1.340 . S
C525 H565 0.951 . S
C526 C525 1.340 . S
C526 C527 1.404 1_565 S
C526 H566 0.950 . S
C527 C526 1.404 1_545 S
C527 N528 1.375 1_545 S
C527 C561 1.425 . S
N528 C524 1.395 . S
N528 C527 1.375 1_565 S
N528 Co529 1.995 1_565 S
Co529 N528 1.995 1_545 S
Co529 N530 1.995 . S
Co529 N535 2.008 . S
Co529 N540 2.002 . S
Co529 N545 2.282 . S
Co529 N551 2.282 1_545 S
N530 Co529 1.995 . S
N530 C531 1.376 . S
N530 C534 1.383 . S
C531 N530 1.376 . S
C531 C532 1.446 . S
C531 C561 1.391 . S
C532 C531 1.446 . S
C532 C533 1.339 . S
C532 H567 0.949 . S
C533 C532 1.339 . S
C533 C534 1.439 . S
C533 H568 0.950 . S
C534 N530 1.383 . S
C534 C533 1.439 . S
C534 C563 1.392 . S
N535 Co529 2.008 . S
N535 C536 1.376 . S
N535 C539 1.374 . S
C536 N535 1.376 . S
C536 C537 1.443 . S
C536 C563 1.389 . S
C537 C536 1.443 . S
C537 C538 1.340 . S
C537 H569 0.951 . S
C538 C537 1.340 . S
C538 C539 1.439 . S
C538 H570 0.950 . S
C539 N535 1.374 . S
C539 C538 1.439 . S
C539 C564 1.395 . S
N540 Co529 2.002 . S
N540 C541 1.379 . S
N540 C544 1.370 1_545 S
C541 N540 1.379 . S
C541 C542 1.446 1_545 S
C541 C564 1.391 . S
C542 C541 1.446 1_565 S
C542 C543 1.339 . S
C542 H571 0.949 . S
C543 C542 1.339 . S
C543 C544 1.439 . S
C543 H572 0.950 . S
C544 N540 1.370 1_565 S
C544 C543 1.439 . S
C544 C562 1.392 . S
N545 Co529 2.282 . S
N545 C548 1.332 . S
N545 C550 1.332 . S
C546 C547 1.386 . S
C546 C549 1.388 . S
C547 C546 1.386 . S
C547 C548 1.382 . S
C547 H573 0.950 . S
C548 N545 1.332 . S
C548 C547 1.382 . S
C548 H559 0.952 . S
C549 C546 1.388 . S
C549 C550 1.382 . S
C549 H574 0.950 . S
C550 N545 1.332 . S
C550 C549 1.382 . S
C550 H560 0.948 . S
N551 Co529 2.282 1_565 S
N551 C555 1.332 . S
N551 C556 1.332 . S
C552 C553 1.388 . S
C552 C556 1.382 . S
C552 H575 0.950 . S
C553 C552 1.388 . S
C553 C554 1.386 . S
C554 C553 1.386 . S
C554 C555 1.382 . S
C554 H576 0.950 . S
C555 N551 1.332 . S
C555 C554 1.382 . S
C555 H557 0.952 . S
C556 N551 1.332 . S
C556 C552 1.382 . S
C556 H558 0.948 . S
H557 C555 0.952 . S
H558 C556 0.948 . S
H559 C548 0.952 . S
H560 C550 0.948 . S
C561 C527 1.425 . S
C561 C531 1.391 . S
C562 C524 1.389 . S
C562 C544 1.392 . S
C563 C534 1.392 . S
C563 C536 1.389 . S
C564 C539 1.395 . S
C564 C541 1.391 . S
H565 C525 0.951 . S
H566 C526 0.950 . S
H567 C532 0.949 . S
H568 C533 0.950 . S
H569 C537 0.951 . S
H570 C538 0.950 . S
H571 C542 0.949 . S
H572 C543 0.950 . S
H573 C547 0.950 . S
H574 C549 0.950 . S
H575 C552 0.950 . S
H576 C554 0.950 . S
C577 C578 1.443 . S
C577 N581 1.376 . S
C577 C615 1.389 . S
C578 C577 1.443 . S
C578 C579 1.340 . S
C578 H618 0.951 . S
C579 C578 1.340 . S
C579 C580 1.439 . S
C579 H619 0.950 . S
C580 C579 1.439 . S
C580 N581 1.374 . S
C580 C614 1.395 . S
N581 C577 1.376 . S
N581 C580 1.374 . S
N581 Co582 2.008 . S
Co582 N581 2.008 . S
Co582 N583 1.995 . S
Co582 N588 2.010 1_554 S
Co582 N593 1.995 . S
Co582 N598 2.282 1_554 S
Co582 N604 2.282 . S
N583 Co582 1.995 . S
N583 C584 1.376 . S
N583 C587 1.383 1_554 S
C584 N583 1.376 . S
C584 C585 1.446 1_554 S
C584 C614 1.391 . S
C585 C584 1.446 1_556 S
C585 C586 1.339 . S
C585 H620 0.949 . S
C586 C585 1.339 . S
C586 C587 1.439 . S
C586 H621 0.950 . S
C587 N583 1.383 1_556 S
C587 C586 1.439 . S
C587 C616 1.392 . S
N588 Co582 2.010 1_556 S
N588 C589 1.374 . S
N588 C592 1.374 1_556 S
C589 N588 1.374 . S
C589 C590 1.443 . S
C589 C616 1.389 . S
C590 C589 1.443 . S
C590 C591 1.340 . S
C590 H622 0.951 . S
C591 C590 1.340 . S
C591 C592 1.406 1_556 S
C591 H623 0.950 . S
C592 N588 1.374 1_554 S
C592 C591 1.406 1_554 S
C592 C617 1.423 . S
N593 Co582 1.995 . S
N593 C594 1.376 . S
N593 C597 1.383 . S
C594 N593 1.376 . S
C594 C595 1.446 . S
C594 C617 1.391 . S
C595 C594 1.446 . S
C595 C596 1.339 . S
C595 H624 0.949 . S
C596 C595 1.339 . S
C596 C597 1.439 . S
C596 H625 0.950 . S
C597 N593 1.383 . S
C597 C596 1.439 . S
C597 C615 1.392 . S
N598 Co582 2.282 1_556 S
N598 C601 1.332 . S
N598 C603 1.332 . S
C599 C600 1.386 . S
C599 C602 1.388 . S
C600 C599 1.386 . S
C600 C601 1.382 . S
C600 H626 0.950 . S
C601 N598 1.332 . S
C601 C600 1.382 . S
C601 H612 0.952 . S
C602 C599 1.388 . S
C602 C603 1.382 . S
C602 H627 0.950 . S
C603 N598 1.332 . S
C603 C602 1.382 . S
C603 H613 0.948 . S
N604 Co582 2.282 . S
N604 C608 1.332 . S
N604 C609 1.332 . S
C605 C606 1.388 . S
C605 C609 1.382 . S
C605 H628 0.950 . S
C606 C605 1.388 . S
C606 C607 1.386 . S
C607 C606 1.386 . S
C607 C608 1.382 . S
C607 H629 0.950 . S
C608 N604 1.332 . S
C608 C607 1.382 . S
C608 H610 0.952 . S
C609 N604 1.332 . S
C609 C605 1.382 . S
C609 H611 0.948 . S
H610 C608 0.952 . S
H611 C609 0.948 . S
H612 C601 0.952 . S
H613 C603 0.948 . S
C614 C580 1.395 . S
C614 C584 1.391 . S
C615 C577 1.389 . S
C615 C597 1.392 . S
C616 C587 1.392 . S
C616 C589 1.389 . S
C617 C592 1.423 . S
C617 C594 1.391 . S
H618 C578 0.951 . S
H619 C579 0.950 . S
H620 C585 0.949 . S
H621 C586 0.950 . S
H622 C590 0.951 . S
H623 C591 0.950 . S
H624 C595 0.949 . S
H625 C596 0.950 . S
H626 C600 0.950 . S
H627 C602 0.950 . S
H628 C605 0.950 . S
H629 C607 0.950 . S
H630 C642 0.930 . S
H631 C644 0.930 . S
H632 C645 0.930 . S
H633 C649 0.959 . S
H634 C649 0.959 . S
H635 C649 0.961 . S
H636 C650 0.960 . S
H637 C650 0.961 . S
H638 C650 0.959 . S
H639 C653 0.929 . S
H640 C654 0.931 . S
H641 C656 0.930 . S
C642 H630 0.930 . S
C642 C643 1.399 . S
C642 C647 1.399 . S
C643 C642 1.399 . S
C643 C644 1.376 . S
C644 H631 0.930 . S
C644 C643 1.376 . S
C644 C645 1.388 . S
C645 H632 0.930 . S
C645 C644 1.388 . S
C645 C646 1.390 . S
C646 C645 1.390 . S
C646 C647 1.394 . S
C646 C652 1.465 . S
C647 C642 1.399 . S
C647 C646 1.394 . S
C647 C648 1.516 . S
C648 C647 1.516 . S
C648 C649 1.502 . S
C648 C650 1.561 . S
C648 C651 1.526 . S
C649 H633 0.959 . S
C649 H634 0.959 . S
C649 H635 0.961 . S
C649 C648 1.502 . S
C650 H636 0.960 . S
C650 H637 0.961 . S
C650 H638 0.959 . S
C650 C648 1.561 . S
C651 C648 1.526 . S
C651 C652 1.396 . S
C651 C656 1.390 . S
C652 C646 1.465 . S
C652 C651 1.396 . S
C652 C653 1.399 . S
C653 H639 0.929 . S
C653 C652 1.399 . S
C653 C654 1.385 . S
C654 H640 0.931 . S
C654 C653 1.385 . S
C654 C655 1.389 . S
C655 C654 1.389 . S
C655 C656 1.387 . S
C656 H641 0.930 . S
C656 C651 1.390 . S
C656 C655 1.387 . S
H657 C669 0.930 . S
H658 C671 0.930 . S
H659 C672 0.930 . S
H660 C676 0.959 . S
H661 C676 0.959 . S
H662 C676 0.961 . S
H663 C677 0.960 . S
H664 C677 0.961 . S
H665 C677 0.959 . S
H666 C680 0.929 . S
H667 C681 0.931 . S
H668 C683 0.930 . S
C669 H657 0.930 . S
C669 C670 1.399 . S
C669 C674 1.399 . S
C670 C669 1.399 . S
C670 C671 1.376 . S
C671 H658 0.930 . S
C671 C670 1.376 . S
C671 C672 1.388 . S
C672 H659 0.930 . S
C672 C671 1.388 . S
C672 C673 1.390 . S
C673 C672 1.390 . S
C673 C674 1.394 . S
C673 C679 1.465 . S
C674 C669 1.399 . S
C674 C673 1.394 . S
C674 C675 1.516 . S
C675 C674 1.516 . S
C675 C676 1.502 . S
C675 C677 1.561 . S
C675 C678 1.526 . S
C676 H660 0.959 . S
C676 H661 0.959 . S
C676 H662 0.961 . S
C676 C675 1.502 . S
C677 H663 0.960 . S
C677 H664 0.961 . S
C677 H665 0.959 . S
C677 C675 1.561 . S
C678 C675 1.526 . S
C678 C679 1.396 . S
C678 C683 1.390 . S
C679 C673 1.465 . S
C679 C678 1.396 . S
C679 C680 1.399 . S
C680 H666 0.929 . S
C680 C679 1.399 . S
C680 C681 1.385 . S
C681 H667 0.931 . S
C681 C680 1.385 . S
C681 C682 1.389 . S
C682 C681 1.389 . S
C682 C683 1.387 . S
C683 H668 0.930 . S
C683 C678 1.390 . S
C683 C682 1.387 . S
H684 C696 0.930 . S
H685 C698 0.930 . S
H686 C699 0.930 . S
H687 C703 0.959 . S
H688 C703 0.959 . S
H689 C703 0.961 . S
H690 C704 0.960 . S
H691 C704 0.961 . S
H692 C704 0.959 . S
H693 C707 0.929 . S
H694 C708 0.931 . S
H695 C710 0.930 . S
C696 H684 0.930 . S
C696 C697 1.399 . S
C696 C701 1.399 . S
C697 C696 1.399 . S
C697 C698 1.376 . S
C698 H685 0.930 . S
C698 C697 1.376 . S
C698 C699 1.388 . S
C699 H686 0.930 . S
C699 C698 1.388 . S
C699 C700 1.390 . S
C700 C699 1.390 . S
C700 C701 1.394 . S
C700 C706 1.465 . S
C701 C696 1.399 . S
C701 C700 1.394 . S
C701 C702 1.516 . S
C702 C701 1.516 . S
C702 C703 1.502 . S
C702 C704 1.561 . S
C702 C705 1.526 . S
C703 H687 0.959 . S
C703 H688 0.959 . S
C703 H689 0.961 . S
C703 C702 1.502 . S
C704 H690 0.960 . S
C704 H691 0.961 . S
C704 H692 0.959 . S
C704 C702 1.561 . S
C705 C702 1.526 . S
C705 C706 1.396 . S
C705 C710 1.390 . S
C706 C700 1.465 . S
C706 C705 1.396 . S
C706 C707 1.399 . S
C707 H693 0.929 . S
C707 C706 1.399 . S
C707 C708 1.385 . S
C708 H694 0.931 . S
C708 C707 1.385 . S
C708 C709 1.389 . S
C709 C708 1.389 . S
C709 C710 1.387 . S
C710 H695 0.930 . S
C710 C705 1.390 . S
C710 C709 1.387 . S
H711 C723 0.930 . S
H712 C725 0.930 . S
H713 C726 0.930 . S
H714 C730 0.959 . S
H715 C730 0.959 . S
H716 C730 0.961 . S
H717 C731 0.960 . S
H718 C731 0.961 . S
H719 C731 0.959 . S
H720 C734 0.929 . S
H721 C735 0.931 . S
H722 C737 0.930 . S
C723 H711 0.930 . S
C723 C724 1.399 . S
C723 C728 1.399 . S
C724 C723 1.399 . S
C724 C725 1.376 . S
C725 H712 0.930 . S
C725 C724 1.376 . S
C725 C726 1.388 . S
C726 H713 0.930 . S
C726 C725 1.388 . S
C726 C727 1.390 . S
C727 C726 1.390 . S
C727 C728 1.394 . S
C727 C733 1.465 . S
C728 C723 1.399 . S
C728 C727 1.394 . S
C728 C729 1.516 . S
C729 C728 1.516 . S
C729 C730 1.502 . S
C729 C731 1.561 . S
C729 C732 1.526 . S
C730 H714 0.959 . S
C730 H715 0.959 . S
C730 H716 0.961 . S
C730 C729 1.502 . S
C731 H717 0.960 . S
C731 H718 0.961 . S
C731 H719 0.959 . S
C731 C729 1.561 . S
C732 C729 1.526 . S
C732 C733 1.396 . S
C732 C737 1.390 . S
C733 C727 1.465 . S
C733 C732 1.396 . S
C733 C734 1.399 . S
C734 H720 0.929 . S
C734 C733 1.399 . S
C734 C735 1.385 . S
C735 H721 0.931 . S
C735 C734 1.385 . S
C735 C736 1.389 . S
C736 C735 1.389 . S
C736 C737 1.387 . S
C737 H722 0.930 . S
C737 C732 1.390 . S
C737 C736 1.387 . S
H738 C750 0.930 . S
H739 C752 0.930 . S
H740 C753 0.930 . S
H741 C757 0.959 . S
H742 C757 0.959 . S
H743 C757 0.961 . S
H744 C758 0.960 . S
H745 C758 0.961 . S
H746 C758 0.959 . S
H747 C761 0.929 . S
H748 C762 0.931 . S
H749 C764 0.930 . S
C750 H738 0.930 . S
C750 C751 1.399 . S
C750 C755 1.399 . S
C751 C750 1.399 . S
C751 C752 1.376 . S
C752 H739 0.930 . S
C752 C751 1.376 . S
C752 C753 1.388 . S
C753 H740 0.930 . S
C753 C752 1.388 . S
C753 C754 1.390 . S
C754 C753 1.390 . S
C754 C755 1.394 . S
C754 C760 1.465 . S
C755 C750 1.399 . S
C755 C754 1.394 . S
C755 C756 1.516 . S
C756 C755 1.516 . S
C756 C757 1.502 . S
C756 C758 1.561 . S
C756 C759 1.526 . S
C757 H741 0.959 . S
C757 H742 0.959 . S
C757 H743 0.961 . S
C757 C756 1.502 . S
C758 H744 0.960 . S
C758 H745 0.961 . S
C758 H746 0.959 . S
C758 C756 1.561 . S
C759 C756 1.526 . S
C759 C760 1.396 . S
C759 C764 1.390 . S
C760 C754 1.465 . S
C760 C759 1.396 . S
C760 C761 1.399 . S
C761 H747 0.929 . S
C761 C760 1.399 . S
C761 C762 1.385 . S
C762 H748 0.931 . S
C762 C761 1.385 . S
C762 C763 1.389 . S
C763 C762 1.389 . S
C763 C764 1.387 . S
C764 H749 0.930 . S
C764 C759 1.390 . S
C764 C763 1.387 . S
H765 C777 0.930 . S
H766 C779 0.930 . S
H767 C780 0.930 . S
H768 C784 0.959 . S
H769 C784 0.959 . S
H770 C784 0.961 . S
H771 C785 0.960 . S
H772 C785 0.961 . S
H773 C785 0.959 . S
H774 C788 0.929 . S
H775 C789 0.931 . S
H776 C791 0.930 . S
C777 H765 0.930 . S
C777 C778 1.399 . S
C777 C782 1.399 . S
C778 C777 1.399 . S
C778 C779 1.376 . S
C779 H766 0.930 . S
C779 C778 1.376 . S
C779 C780 1.388 . S
C780 H767 0.930 . S
C780 C779 1.388 . S
C780 C781 1.390 . S
C781 C780 1.390 . S
C781 C782 1.394 . S
C781 C787 1.465 . S
C782 C777 1.399 . S
C782 C781 1.394 . S
C782 C783 1.516 . S
C783 C782 1.516 . S
C783 C784 1.502 . S
C783 C785 1.561 . S
C783 C786 1.526 . S
C784 H768 0.959 . S
C784 H769 0.959 . S
C784 H770 0.961 . S
C784 C783 1.502 . S
C785 H771 0.960 . S
C785 H772 0.961 . S
C785 H773 0.959 . S
C785 C783 1.561 . S
C786 C783 1.526 . S
C786 C787 1.396 . S
C786 C791 1.390 . S
C787 C781 1.465 . S
C787 C786 1.396 . S
C787 C788 1.399 . S
C788 H774 0.929 . S
C788 C787 1.399 . S
C788 C789 1.385 . S
C789 H775 0.931 . S
C789 C788 1.385 . S
C789 C790 1.389 . S
C790 C789 1.389 . S
C790 C791 1.387 . S
C791 H776 0.930 . S
C791 C786 1.390 . S
C791 C790 1.387 . S
H792 C804 0.930 . S
H793 C806 0.930 . S
H794 C807 0.930 . S
H795 C811 0.959 . S
H796 C811 0.959 . S
H797 C811 0.961 . S
H798 C812 0.960 . S
H799 C812 0.961 . S
H800 C812 0.959 . S
H801 C815 0.929 . S
H802 C816 0.931 . S
H803 C818 0.930 . S
C804 H792 0.930 . S
C804 C805 1.399 . S
C804 C809 1.399 . S
C805 C804 1.399 . S
C805 C806 1.376 . S
C806 H793 0.930 . S
C806 C805 1.376 . S
C806 C807 1.388 . S
C807 H794 0.930 . S
C807 C806 1.388 . S
C807 C808 1.390 . S
C808 C807 1.390 . S
C808 C809 1.394 . S
C808 C814 1.465 . S
C809 C804 1.399 . S
C809 C808 1.394 . S
C809 C810 1.516 . S
C810 C809 1.516 . S
C810 C811 1.502 . S
C810 C812 1.561 . S
C810 C813 1.526 . S
C811 H795 0.959 . S
C811 H796 0.959 . S
C811 H797 0.961 . S
C811 C810 1.502 . S
C812 H798 0.960 . S
C812 H799 0.961 . S
C812 H800 0.959 . S
C812 C810 1.561 . S
C813 C810 1.526 . S
C813 C814 1.396 . S
C813 C818 1.390 . S
C814 C808 1.465 . S
C814 C813 1.396 . S
C814 C815 1.399 . S
C815 H801 0.929 . S
C815 C814 1.399 . S
C815 C816 1.385 . S
C816 H802 0.931 . S
C816 C815 1.385 . S
C816 C817 1.389 . S
C817 C816 1.389 . S
C817 C818 1.387 . S
C818 H803 0.930 . S
C818 C813 1.390 . S
C818 C817 1.387 . S
H819 C831 0.930 . S
H820 C833 0.930 . S
H821 C834 0.930 . S
H822 C838 0.959 . S
H823 C838 0.959 . S
H824 C838 0.961 . S
H825 C839 0.960 . S
H826 C839 0.961 . S
H827 C839 0.959 . S
H828 C842 0.929 . S
H829 C843 0.931 . S
H830 C845 0.930 . S
C831 H819 0.930 . S
C831 C832 1.399 . S
C831 C836 1.399 . S
C832 C831 1.399 . S
C832 C833 1.376 . S
C833 H820 0.930 . S
C833 C832 1.376 . S
C833 C834 1.388 . S
C834 H821 0.930 . S
C834 C833 1.388 . S
C834 C835 1.390 . S
C835 C834 1.390 . S
C835 C836 1.394 . S
C835 C841 1.465 . S
C836 C831 1.399 . S
C836 C835 1.394 . S
C836 C837 1.516 . S
C837 C836 1.516 . S
C837 C838 1.502 . S
C837 C839 1.561 . S
C837 C840 1.526 . S
C838 H822 0.959 . S
C838 H823 0.959 . S
C838 H824 0.961 . S
C838 C837 1.502 . S
C839 H825 0.960 . S
C839 H826 0.961 . S
C839 H827 0.959 . S
C839 C837 1.561 . S
C840 C837 1.526 . S
C840 C841 1.396 . S
C840 C845 1.390 . S
C841 C835 1.465 . S
C841 C840 1.396 . S
C841 C842 1.399 . S
C842 H828 0.929 . S
C842 C841 1.399 . S
C842 C843 1.385 . S
C843 H829 0.931 . S
C843 C842 1.385 . S
C843 C844 1.389 . S
C844 C843 1.389 . S
C844 C845 1.387 . S
C845 H830 0.930 . S
C845 C840 1.390 . S
C845 C844 1.387 . S
H846 C858 0.930 . S
H847 C860 0.930 . S
H848 C861 0.930 . S
H849 C865 0.959 . S
H850 C865 0.959 . S
H851 C865 0.961 . S
H852 C866 0.960 . S
H853 C866 0.961 . S
H854 C866 0.959 . S
H855 C869 0.929 . S
H856 C870 0.931 . S
H857 C872 0.930 . S
C858 H846 0.930 . S
C858 C859 1.399 . S
C858 C863 1.399 . S
C859 C858 1.399 . S
C859 C860 1.376 . S
C860 H847 0.930 . S
C860 C859 1.376 . S
C860 C861 1.388 . S
C861 H848 0.930 . S
C861 C860 1.388 . S
C861 C862 1.390 . S
C862 C861 1.390 . S
C862 C863 1.394 . S
C862 C868 1.465 . S
C863 C858 1.399 . S
C863 C862 1.394 . S
C863 C864 1.516 . S
C864 C863 1.516 . S
C864 C865 1.502 . S
C864 C866 1.561 . S
C864 C867 1.526 . S
C865 H849 0.959 . S
C865 H850 0.959 . S
C865 H851 0.961 . S
C865 C864 1.502 . S
C866 H852 0.960 . S
C866 H853 0.961 . S
C866 H854 0.959 . S
C866 C864 1.561 . S
C867 C864 1.526 . S
C867 C868 1.396 . S
C867 C872 1.390 . S
C868 C862 1.465 . S
C868 C867 1.396 . S
C868 C869 1.399 . S
C869 H855 0.929 . S
C869 C868 1.399 . S
C869 C870 1.385 . S
C870 H856 0.931 . S
C870 C869 1.385 . S
C870 C871 1.389 . S
C871 C870 1.389 . S
C871 C872 1.387 . S
C872 H857 0.930 . S
C872 C867 1.390 . S
C872 C871 1.387 . S
H873 C885 0.930 . S
H874 C887 0.930 . S
H875 C888 0.930 . S
H876 C892 0.959 . S
H877 C892 0.959 . S
H878 C892 0.961 . S
H879 C893 0.960 . S
H880 C893 0.961 . S
H881 C893 0.959 . S
H882 C896 0.929 . S
H883 C897 0.931 . S
H884 C899 0.930 . S
C885 H873 0.930 . S
C885 C886 1.399 . S
C885 C890 1.399 . S
C886 C885 1.399 . S
C886 C887 1.376 . S
C887 H874 0.930 . S
C887 C886 1.376 . S
C887 C888 1.388 . S
C888 H875 0.930 . S
C888 C887 1.388 . S
C888 C889 1.390 . S
C889 C888 1.390 . S
C889 C890 1.394 . S
C889 C895 1.465 . S
C890 C885 1.399 . S
C890 C889 1.394 . S
C890 C891 1.516 . S
C891 C890 1.516 . S
C891 C892 1.502 . S
C891 C893 1.561 . S
C891 C894 1.526 . S
C892 H876 0.959 . S
C892 H877 0.959 . S
C892 H878 0.961 . S
C892 C891 1.502 . S
C893 H879 0.960 . S
C893 H880 0.961 . S
C893 H881 0.959 . S
C893 C891 1.561 . S
C894 C891 1.526 . S
C894 C895 1.396 . S
C894 C899 1.390 . S
C895 C889 1.465 . S
C895 C894 1.396 . S
C895 C896 1.399 . S
C896 H882 0.929 . S
C896 C895 1.399 . S
C896 C897 1.385 . S
C897 H883 0.931 . S
C897 C896 1.385 . S
C897 C898 1.389 . S
C898 C897 1.389 . S
C898 C899 1.387 . S
C899 H884 0.930 . S
C899 C894 1.390 . S
C899 C898 1.387 . S
H900 C912 0.930 . S
H901 C914 0.930 . S
H902 C915 0.930 . S
H903 C919 0.959 . S
H904 C919 0.959 . S
H905 C919 0.961 . S
H906 C920 0.960 . S
H907 C920 0.961 . S
H908 C920 0.959 . S
H909 C923 0.929 . S
H910 C924 0.931 . S
H911 C926 0.930 . S
C912 H900 0.930 . S
C912 C913 1.399 . S
C912 C917 1.399 . S
C913 C912 1.399 . S
C913 C914 1.376 . S
C914 H901 0.930 . S
C914 C913 1.376 . S
C914 C915 1.388 . S
C915 H902 0.930 . S
C915 C914 1.388 . S
C915 C916 1.390 . S
C916 C915 1.390 . S
C916 C917 1.394 . S
C916 C922 1.465 . S
C917 C912 1.399 . S
C917 C916 1.394 . S
C917 C918 1.516 . S
C918 C917 1.516 . S
C918 C919 1.502 . S
C918 C920 1.561 . S
C918 C921 1.526 . S
C919 H903 0.959 . S
C919 H904 0.959 . S
C919 H905 0.961 . S
C919 C918 1.502 . S
C920 H906 0.960 . S
C920 H907 0.961 . S
C920 H908 0.959 . S
C920 C918 1.561 . S
C921 C918 1.526 . S
C921 C922 1.396 . S
C921 C926 1.390 . S
C922 C916 1.465 . S
C922 C921 1.396 . S
C922 C923 1.399 . S
C923 H909 0.929 . S
C923 C922 1.399 . S
C923 C924 1.385 . S
C924 H910 0.931 . S
C924 C923 1.385 . S
C924 C925 1.389 . S
C925 C924 1.389 . S
C925 C926 1.387 . S
C926 H911 0.930 . S
C926 C921 1.390 . S
C926 C925 1.387 . S
H927 C939 0.930 . S
H928 C941 0.930 . S
H929 C942 0.930 . S
H930 C946 0.959 . S
H931 C946 0.959 . S
H932 C946 0.961 . S
H933 C947 0.960 . S
H934 C947 0.961 . S
H935 C947 0.959 . S
H936 C950 0.929 . S
H937 C951 0.931 . S
H938 C953 0.930 . S
C939 H927 0.930 . S
C939 C940 1.399 . S
C939 C944 1.399 . S
C940 C939 1.399 . S
C940 C941 1.376 . S
C941 H928 0.930 . S
C941 C940 1.376 . S
C941 C942 1.388 . S
C942 H929 0.930 . S
C942 C941 1.388 . S
C942 C943 1.390 . S
C943 C942 1.390 . S
C943 C944 1.394 . S
C943 C949 1.465 . S
C944 C939 1.399 . S
C944 C943 1.394 . S
C944 C945 1.516 . S
C945 C944 1.516 . S
C945 C946 1.502 . S
C945 C947 1.561 . S
C945 C948 1.526 . S
C946 H930 0.959 . S
C946 H931 0.959 . S
C946 H932 0.961 . S
C946 C945 1.502 . S
C947 H933 0.960 . S
C947 H934 0.961 . S
C947 H935 0.959 . S
C947 C945 1.561 . S
C948 C945 1.526 . S
C948 C949 1.396 . S
C948 C953 1.390 . S
C949 C943 1.465 . S
C949 C948 1.396 . S
C949 C950 1.399 . S
C950 H936 0.929 . S
C950 C949 1.399 . S
C950 C951 1.385 . S
C951 H937 0.931 . S
C951 C950 1.385 . S
C951 C952 1.389 . S
C952 C951 1.389 . S
C952 C953 1.387 . S
C953 H938 0.930 . S
C953 C948 1.390 . S
C953 C952 1.387 . S
H954 C966 0.930 . S
H955 C968 0.930 . S
H956 C969 0.930 . S
H957 C973 0.959 . S
H958 C973 0.959 . S
H959 C973 0.961 . S
H960 C974 0.960 . S
H961 C974 0.961 . S
H962 C974 0.959 . S
H963 C977 0.929 . S
H964 C978 0.931 . S
H965 C980 0.930 . S
C966 H954 0.930 . S
C966 C967 1.399 . S
C966 C971 1.399 . S
C967 C966 1.399 . S
C967 C968 1.376 . S
C968 H955 0.930 . S
C968 C967 1.376 . S
C968 C969 1.388 . S
C969 H956 0.930 . S
C969 C968 1.388 . S
C969 C970 1.390 . S
C970 C969 1.390 . S
C970 C971 1.394 . S
C970 C976 1.465 . S
C971 C966 1.399 . S
C971 C970 1.394 . S
C971 C972 1.516 . S
C972 C971 1.516 . S
C972 C973 1.502 . S
C972 C974 1.561 . S
C972 C975 1.526 . S
C973 H957 0.959 . S
C973 H958 0.959 . S
C973 H959 0.961 . S
C973 C972 1.502 . S
C974 H960 0.960 . S
C974 H961 0.961 . S
C974 H962 0.959 . S
C974 C972 1.561 . S
C975 C972 1.526 . S
C975 C976 1.396 . S
C975 C980 1.390 . S
C976 C970 1.465 . S
C976 C975 1.396 . S
C976 C977 1.399 . S
C977 H963 0.929 . S
C977 C976 1.399 . S
C977 C978 1.385 . S
C978 H964 0.931 . S
C978 C977 1.385 . S
C978 C979 1.389 . S
C979 C978 1.389 . S
C979 C980 1.387 . S
C980 H965 0.930 . S
C980 C975 1.390 . S
C980 C979 1.387 . S
H981 C993 0.930 . S
H982 C995 0.930 . S
H983 C996 0.930 . S
H984 C1000 0.959 . S
H985 C1000 0.959 . S
H986 C1000 0.961 . S
H987 C1001 0.960 . S
H988 C1001 0.961 . S
H989 C1001 0.959 . S
H990 C1004 0.929 . S
H991 C1005 0.931 . S
H992 C1007 0.930 . S
C993 H981 0.930 . S
C993 C994 1.399 . S
C993 C998 1.399 . S
C994 C993 1.399 . S
C994 C995 1.376 . S
C995 H982 0.930 . S
C995 C994 1.376 . S
C995 C996 1.388 . S
C996 H983 0.930 . S
C996 C995 1.388 . S
C996 C997 1.390 . S
C997 C996 1.390 . S
C997 C998 1.394 . S
C997 C1003 1.465 . S
C998 C993 1.399 . S
C998 C997 1.394 . S
C998 C999 1.516 . S
C999 C998 1.516 . S
C999 C1000 1.502 . S
C999 C1001 1.561 . S
C999 C1002 1.526 . S
C1000 H984 0.959 . S
C1000 H985 0.959 . S
C1000 H986 0.961 . S
C1000 C999 1.502 . S
C1001 H987 0.960 . S
C1001 H988 0.961 . S
C1001 H989 0.959 . S
C1001 C999 1.561 . S
C1002 C999 1.526 . S
C1002 C1003 1.396 . S
C1002 C1007 1.390 . S
C1003 C997 1.465 . S
C1003 C1002 1.396 . S
C1003 C1004 1.399 . S
C1004 H990 0.929 . S
C1004 C1003 1.399 . S
C1004 C1005 1.385 . S
C1005 H991 0.931 . S
C1005 C1004 1.385 . S
C1005 C1006 1.389 . S
C1006 C1005 1.389 . S
C1006 C1007 1.387 . S
C1007 H992 0.930 . S
C1007 C1002 1.390 . S
C1007 C1006 1.387 . S
H1008 C1020 0.930 . S
H1009 C1022 0.930 . S
H1010 C1023 0.930 . S
H1011 C1027 0.959 . S
H1012 C1027 0.959 . S
H1013 C1027 0.961 . S
H1014 C1028 0.960 . S
H1015 C1028 0.961 . S
H1016 C1028 0.959 . S
H1017 C1031 0.929 . S
H1018 C1032 0.931 . S
H1019 C1034 0.930 . S
C1020 H1008 0.930 . S
C1020 C1021 1.399 . S
C1020 C1025 1.399 . S
C1021 C1020 1.399 . S
C1021 C1022 1.376 . S
C1022 H1009 0.930 . S
C1022 C1021 1.376 . S
C1022 C1023 1.388 . S
C1023 H1010 0.930 . S
C1023 C1022 1.388 . S
C1023 C1024 1.390 . S
C1024 C1023 1.390 . S
C1024 C1025 1.394 . S
C1024 C1030 1.465 . S
C1025 C1020 1.399 . S
C1025 C1024 1.394 . S
C1025 C1026 1.516 . S
C1026 C1025 1.516 . S
C1026 C1027 1.502 . S
C1026 C1028 1.561 . S
C1026 C1029 1.526 . S
C1027 H1011 0.959 . S
C1027 H1012 0.959 . S
C1027 H1013 0.961 . S
C1027 C1026 1.502 . S
C1028 H1014 0.960 . S
C1028 H1015 0.961 . S
C1028 H1016 0.959 . S
C1028 C1026 1.561 . S
C1029 C1026 1.526 . S
C1029 C1030 1.396 . S
C1029 C1034 1.390 . S
C1030 C1024 1.465 . S
C1030 C1029 1.396 . S
C1030 C1031 1.399 . S
C1031 H1017 0.929 . S
C1031 C1030 1.399 . S
C1031 C1032 1.385 . S
C1032 H1018 0.931 . S
C1032 C1031 1.385 . S
C1032 C1033 1.389 . S
C1033 C1032 1.389 . S
C1033 C1034 1.387 . S
C1034 H1019 0.930 . S
C1034 C1029 1.390 . S
C1034 C1033 1.387 . S
H1035 C1047 0.930 . S
H1036 C1049 0.930 . S
H1037 C1050 0.930 . S
H1038 C1054 0.959 . S
H1039 C1054 0.959 . S
H1040 C1054 0.961 . S
H1041 C1055 0.960 . S
H1042 C1055 0.961 . S
H1043 C1055 0.959 . S
H1044 C1058 0.929 . S
H1045 C1059 0.931 . S
H1046 C1061 0.930 . S
C1047 H1035 0.930 . S
C1047 C1048 1.399 . S
C1047 C1052 1.399 . S
C1048 C1047 1.399 . S
C1048 C1049 1.376 . S
C1049 H1036 0.930 . S
C1049 C1048 1.376 . S
C1049 C1050 1.388 . S
C1050 H1037 0.930 . S
C1050 C1049 1.388 . S
C1050 C1051 1.390 . S
C1051 C1050 1.390 . S
C1051 C1052 1.394 . S
C1051 C1057 1.465 . S
C1052 C1047 1.399 . S
C1052 C1051 1.394 . S
C1052 C1053 1.516 . S
C1053 C1052 1.516 . S
C1053 C1054 1.502 . S
C1053 C1055 1.561 . S
C1053 C1056 1.526 . S
C1054 H1038 0.959 . S
C1054 H1039 0.959 . S
C1054 H1040 0.961 . S
C1054 C1053 1.502 . S
C1055 H1041 0.960 . S
C1055 H1042 0.961 . S
C1055 H1043 0.959 . S
C1055 C1053 1.561 . S
C1056 C1053 1.526 . S
C1056 C1057 1.396 . S
C1056 C1061 1.390 . S
C1057 C1051 1.465 . S
C1057 C1056 1.396 . S
C1057 C1058 1.399 . S
C1058 H1044 0.929 . S
C1058 C1057 1.399 . S
C1058 C1059 1.385 . S
C1059 H1045 0.931 . S
C1059 C1058 1.385 . S
C1059 C1060 1.389 . S
C1060 C1059 1.389 . S
C1060 C1061 1.387 . S
C1061 H1046 0.930 . S
C1061 C1056 1.390 . S
C1061 C1060 1.387 . S
H1062 C1074 0.930 . S
H1063 C1076 0.930 . S
H1064 C1077 0.930 . S
H1065 C1081 0.959 . S
H1066 C1081 0.959 . S
H1067 C1081 0.961 . S
H1068 C1082 0.960 . S
H1069 C1082 0.961 . S
H1070 C1082 0.959 . S
H1071 C1085 0.929 . S
H1072 C1086 0.931 . S
H1073 C1088 0.930 . S
C1074 H1062 0.930 . S
C1074 C1075 1.399 . S
C1074 C1079 1.399 . S
C1075 C1074 1.399 . S
C1075 C1076 1.376 . S
C1076 H1063 0.930 . S
C1076 C1075 1.376 . S
C1076 C1077 1.388 . S
C1077 H1064 0.930 . S
C1077 C1076 1.388 . S
C1077 C1078 1.390 . S
C1078 C1077 1.390 . S
C1078 C1079 1.394 . S
C1078 C1084 1.465 . S
C1079 C1074 1.399 . S
C1079 C1078 1.394 . S
C1079 C1080 1.516 . S
C1080 C1079 1.516 . S
C1080 C1081 1.502 . S
C1080 C1082 1.561 . S
C1080 C1083 1.526 . S
C1081 H1065 0.959 . S
C1081 H1066 0.959 . S
C1081 H1067 0.961 . S
C1081 C1080 1.502 . S
C1082 H1068 0.960 . S
C1082 H1069 0.961 . S
C1082 H1070 0.959 . S
C1082 C1080 1.561 . S
C1083 C1080 1.526 . S
C1083 C1084 1.396 . S
C1083 C1088 1.390 . S
C1084 C1078 1.465 . S
C1084 C1083 1.396 . S
C1084 C1085 1.399 . S
C1085 H1071 0.929 . S
C1085 C1084 1.399 . S
C1085 C1086 1.385 . S
C1086 H1072 0.931 . S
C1086 C1085 1.385 . S
C1086 C1087 1.389 . S
C1087 C1086 1.389 . S
C1087 C1088 1.387 . S
C1088 H1073 0.930 . S
C1088 C1083 1.390 . S
C1088 C1087 1.387 . S
H1089 C1101 0.930 . S
H1090 C1103 0.930 . S
H1091 C1104 0.930 . S
H1092 C1108 0.959 . S
H1093 C1108 0.959 . S
H1094 C1108 0.961 . S
H1095 C1109 0.960 . S
H1096 C1109 0.961 . S
H1097 C1109 0.959 . S
H1098 C1112 0.929 . S
H1099 C1113 0.931 . S
H1100 C1115 0.930 . S
C1101 H1089 0.930 . S
C1101 C1102 1.399 . S
C1101 C1106 1.399 . S
C1102 C1101 1.399 . S
C1102 C1103 1.376 . S
C1103 H1090 0.930 . S
C1103 C1102 1.376 . S
C1103 C1104 1.388 . S
C1104 H1091 0.930 . S
C1104 C1103 1.388 . S
C1104 C1105 1.390 . S
C1105 C1104 1.390 . S
C1105 C1106 1.394 . S
C1105 C1111 1.465 . S
C1106 C1101 1.399 . S
C1106 C1105 1.394 . S
C1106 C1107 1.516 . S
C1107 C1106 1.516 . S
C1107 C1108 1.502 . S
C1107 C1109 1.561 . S
C1107 C1110 1.526 . S
C1108 H1092 0.959 . S
C1108 H1093 0.959 . S
C1108 H1094 0.961 . S
C1108 C1107 1.502 . S
C1109 H1095 0.960 . S
C1109 H1096 0.961 . S
C1109 H1097 0.959 . S
C1109 C1107 1.561 . S
C1110 C1107 1.526 . S
C1110 C1111 1.396 . S
C1110 C1115 1.390 . S
C1111 C1105 1.465 . S
C1111 C1110 1.396 . S
C1111 C1112 1.399 . S
C1112 H1098 0.929 . S
C1112 C1111 1.399 . S
C1112 C1113 1.385 . S
C1113 H1099 0.931 . S
C1113 C1112 1.385 . S
C1113 C1114 1.389 . S
C1114 C1113 1.389 . S
C1114 C1115 1.387 . S
C1115 H1100 0.930 . S
C1115 C1110 1.390 . S
C1115 C1114 1.387 . S
H1116 C1128 0.930 . S
H1117 C1130 0.930 . S
H1118 C1131 0.930 . S
H1119 C1135 0.959 . S
H1120 C1135 0.959 . S
H1121 C1135 0.961 . S
H1122 C1136 0.960 . S
H1123 C1136 0.961 . S
H1124 C1136 0.959 . S
H1125 C1139 0.929 . S
H1126 C1140 0.931 . S
H1127 C1142 0.930 . S
C1128 H1116 0.930 . S
C1128 C1129 1.399 . S
C1128 C1133 1.399 . S
C1129 C1128 1.399 . S
C1129 C1130 1.376 . S
C1130 H1117 0.930 . S
C1130 C1129 1.376 . S
C1130 C1131 1.388 . S
C1131 H1118 0.930 . S
C1131 C1130 1.388 . S
C1131 C1132 1.390 . S
C1132 C1131 1.390 . S
C1132 C1133 1.394 . S
C1132 C1138 1.465 . S
C1133 C1128 1.399 . S
C1133 C1132 1.394 . S
C1133 C1134 1.516 . S
C1134 C1133 1.516 . S
C1134 C1135 1.502 . S
C1134 C1136 1.561 . S
C1134 C1137 1.526 . S
C1135 H1119 0.959 . S
C1135 H1120 0.959 . S
C1135 H1121 0.961 . S
C1135 C1134 1.502 . S
C1136 H1122 0.960 . S
C1136 H1123 0.961 . S
C1136 H1124 0.959 . S
C1136 C1134 1.561 . S
C1137 C1134 1.526 . S
C1137 C1138 1.396 . S
C1137 C1142 1.390 . S
C1138 C1132 1.465 . S
C1138 C1137 1.396 . S
C1138 C1139 1.399 . S
C1139 H1125 0.929 . S
C1139 C1138 1.399 . S
C1139 C1140 1.385 . S
C1140 H1126 0.931 . S
C1140 C1139 1.385 . S
C1140 C1141 1.389 . S
C1141 C1140 1.389 . S
C1141 C1142 1.387 . S
C1142 H1127 0.930 . S
C1142 C1137 1.390 . S
C1142 C1141 1.387 . S
H1143 C1155 0.930 . S
H1144 C1157 0.930 . S
H1145 C1158 0.930 . S
H1146 C1162 0.959 . S
H1147 C1162 0.959 . S
H1148 C1162 0.961 . S
H1149 C1163 0.960 . S
H1150 C1163 0.961 . S
H1151 C1163 0.959 . S
H1152 C1166 0.929 . S
H1153 C1167 0.931 . S
H1154 C1169 0.930 . S
C1155 H1143 0.930 . S
C1155 C1156 1.399 . S
C1155 C1160 1.399 . S
C1156 C1155 1.399 . S
C1156 C1157 1.376 . S
C1157 H1144 0.930 . S
C1157 C1156 1.376 . S
C1157 C1158 1.388 . S
C1158 H1145 0.930 . S
C1158 C1157 1.388 . S
C1158 C1159 1.390 . S
C1159 C1158 1.390 . S
C1159 C1160 1.394 . S
C1159 C1165 1.465 . S
C1160 C1155 1.399 . S
C1160 C1159 1.394 . S
C1160 C1161 1.516 . S
C1161 C1160 1.516 . S
C1161 C1162 1.502 . S
C1161 C1163 1.561 . S
C1161 C1164 1.526 . S
C1162 H1146 0.959 . S
C1162 H1147 0.959 . S
C1162 H1148 0.961 . S
C1162 C1161 1.502 . S
C1163 H1149 0.960 . S
C1163 H1150 0.961 . S
C1163 H1151 0.959 . S
C1163 C1161 1.561 . S
C1164 C1161 1.526 . S
C1164 C1165 1.396 . S
C1164 C1169 1.390 . S
C1165 C1159 1.465 . S
C1165 C1164 1.396 . S
C1165 C1166 1.399 . S
C1166 H1152 0.929 . S
C1166 C1165 1.399 . S
C1166 C1167 1.385 . S
C1167 H1153 0.931 . S
C1167 C1166 1.385 . S
C1167 C1168 1.389 . S
C1168 C1167 1.389 . S
C1168 C1169 1.387 . S
C1169 H1154 0.930 . S
C1169 C1164 1.390 . S
C1169 C1168 1.387 . S
H1170 C1182 0.930 . S
H1171 C1184 0.930 . S
H1172 C1185 0.930 . S
H1173 C1189 0.959 . S
H1174 C1189 0.959 . S
H1175 C1189 0.961 . S
H1176 C1190 0.960 . S
H1177 C1190 0.961 . S
H1178 C1190 0.959 . S
H1179 C1193 0.929 . S
H1180 C1194 0.931 . S
H1181 C1196 0.930 . S
C1182 H1170 0.930 . S
C1182 C1183 1.399 . S
C1182 C1187 1.399 . S
C1183 C1182 1.399 . S
C1183 C1184 1.376 . S
C1184 H1171 0.930 . S
C1184 C1183 1.376 . S
C1184 C1185 1.388 . S
C1185 H1172 0.930 . S
C1185 C1184 1.388 . S
C1185 C1186 1.390 . S
C1186 C1185 1.390 . S
C1186 C1187 1.394 . S
C1186 C1192 1.465 . S
C1187 C1182 1.399 . S
C1187 C1186 1.394 . S
C1187 C1188 1.516 . S
C1188 C1187 1.516 . S
C1188 C1189 1.502 . S
C1188 C1190 1.561 . S
C1188 C1191 1.526 . S
C1189 H1173 0.959 . S
C1189 H1174 0.959 . S
C1189 H1175 0.961 . S
C1189 C1188 1.502 . S
C1190 H1176 0.960 . S
C1190 H1177 0.961 . S
C1190 H1178 0.959 . S
C1190 C1188 1.561 . S
C1191 C1188 1.526 . S
C1191 C1192 1.396 . S
C1191 C1196 1.390 . S
C1192 C1186 1.465 . S
C1192 C1191 1.396 . S
C1192 C1193 1.399 . S
C1193 H1179 0.929 . S
C1193 C1192 1.399 . S
C1193 C1194 1.385 . S
C1194 H1180 0.931 . S
C1194 C1193 1.385 . S
C1194 C1195 1.389 . S
C1195 C1194 1.389 . S
C1195 C1196 1.387 . S
C1196 H1181 0.930 . S
C1196 C1191 1.390 . S
C1196 C1195 1.387 . S
H1197 C1209 0.930 . S
H1198 C1211 0.930 . S
H1199 C1212 0.930 . S
H1200 C1216 0.959 . S
H1201 C1216 0.959 . S
H1202 C1216 0.961 . S
H1203 C1217 0.960 . S
H1204 C1217 0.961 . S
H1205 C1217 0.959 . S
H1206 C1220 0.929 . S
H1207 C1221 0.931 . S
H1208 C1223 0.930 . S
C1209 H1197 0.930 . S
C1209 C1210 1.399 . S
C1209 C1214 1.399 . S
C1210 C1209 1.399 . S
C1210 C1211 1.376 . S
C1211 H1198 0.930 . S
C1211 C1210 1.376 . S
C1211 C1212 1.388 . S
C1212 H1199 0.930 . S
C1212 C1211 1.388 . S
C1212 C1213 1.390 . S
C1213 C1212 1.390 . S
C1213 C1214 1.394 . S
C1213 C1219 1.465 . S
C1214 C1209 1.399 . S
C1214 C1213 1.394 . S
C1214 C1215 1.516 . S
C1215 C1214 1.516 . S
C1215 C1216 1.502 . S
C1215 C1217 1.561 . S
C1215 C1218 1.526 . S
C1216 H1200 0.959 . S
C1216 H1201 0.959 . S
C1216 H1202 0.961 . S
C1216 C1215 1.502 . S
C1217 H1203 0.960 . S
C1217 H1204 0.961 . S
C1217 H1205 0.959 . S
C1217 C1215 1.561 . S
C1218 C1215 1.526 . S
C1218 C1219 1.396 . S
C1218 C1223 1.390 . S
C1219 C1213 1.465 . S
C1219 C1218 1.396 . S
C1219 C1220 1.399 . S
C1220 H1206 0.929 . S
C1220 C1219 1.399 . S
C1220 C1221 1.385 . S
C1221 H1207 0.931 . S
C1221 C1220 1.385 . S
C1221 C1222 1.389 . S
C1222 C1221 1.389 . S
C1222 C1223 1.387 . S
C1223 H1208 0.930 . S
C1223 C1218 1.390 . S
C1223 C1222 1.387 . S
H1224 C1236 0.930 . S
H1225 C1238 0.930 . S
H1226 C1239 0.930 . S
H1227 C1243 0.959 . S
H1228 C1243 0.959 . S
H1229 C1243 0.961 . S
H1230 C1244 0.960 . S
H1231 C1244 0.961 . S
H1232 C1244 0.959 . S
H1233 C1247 0.929 . S
H1234 C1248 0.931 . S
H1235 C1250 0.930 . S
C1236 H1224 0.930 . S
C1236 C1237 1.399 . S
C1236 C1241 1.399 . S
C1237 C1236 1.399 . S
C1237 C1238 1.376 . S
C1238 H1225 0.930 . S
C1238 C1237 1.376 . S
C1238 C1239 1.388 . S
C1239 H1226 0.930 . S
C1239 C1238 1.388 . S
C1239 C1240 1.390 . S
C1240 C1239 1.390 . S
C1240 C1241 1.394 . S
C1240 C1246 1.465 . S
C1241 C1236 1.399 . S
C1241 C1240 1.394 . S
C1241 C1242 1.516 . S
C1242 C1241 1.516 . S
C1242 C1243 1.502 . S
C1242 C1244 1.561 . S
C1242 C1245 1.526 . S
C1243 H1227 0.959 . S
C1243 H1228 0.959 . S
C1243 H1229 0.961 . S
C1243 C1242 1.502 . S
C1244 H1230 0.960 . S
C1244 H1231 0.961 . S
C1244 H1232 0.959 . S
C1244 C1242 1.561 . S
C1245 C1242 1.526 . S
C1245 C1246 1.396 . S
C1245 C1250 1.390 . S
C1246 C1240 1.465 . S
C1246 C1245 1.396 . S
C1246 C1247 1.399 . S
C1247 H1233 0.929 . S
C1247 C1246 1.399 . S
C1247 C1248 1.385 . S
C1248 H1234 0.931 . S
C1248 C1247 1.385 . S
C1248 C1249 1.389 . S
C1249 C1248 1.389 . S
C1249 C1250 1.387 . S
C1250 H1235 0.930 . S
C1250 C1245 1.390 . S
C1250 C1249 1.387 . S
H1251 C1263 0.930 . S
H1252 C1265 0.930 . S
H1253 C1266 0.930 . S
H1254 C1270 0.959 . S
H1255 C1270 0.959 . S
H1256 C1270 0.961 . S
H1257 C1271 0.960 . S
H1258 C1271 0.961 . S
H1259 C1271 0.959 . S
H1260 C1274 0.929 . S
H1261 C1275 0.931 . S
H1262 C1277 0.930 . S
C1263 H1251 0.930 . S
C1263 C1264 1.399 . S
C1263 C1268 1.399 . S
C1264 C1263 1.399 . S
C1264 C1265 1.376 . S
C1265 H1252 0.930 . S
C1265 C1264 1.376 . S
C1265 C1266 1.388 . S
C1266 H1253 0.930 . S
C1266 C1265 1.388 . S
C1266 C1267 1.390 . S
C1267 C1266 1.390 . S
C1267 C1268 1.394 . S
C1267 C1273 1.465 . S
C1268 C1263 1.399 . S
C1268 C1267 1.394 . S
C1268 C1269 1.516 . S
C1269 C1268 1.516 . S
C1269 C1270 1.502 . S
C1269 C1271 1.561 . S
C1269 C1272 1.526 . S
C1270 H1254 0.959 . S
C1270 H1255 0.959 . S
C1270 H1256 0.961 . S
C1270 C1269 1.502 . S
C1271 H1257 0.960 . S
C1271 H1258 0.961 . S
C1271 H1259 0.959 . S
C1271 C1269 1.561 . S
C1272 C1269 1.526 . S
C1272 C1273 1.396 . S
C1272 C1277 1.390 . S
C1273 C1267 1.465 . S
C1273 C1272 1.396 . S
C1273 C1274 1.399 . S
C1274 H1260 0.929 . S
C1274 C1273 1.399 . S
C1274 C1275 1.385 . S
C1275 H1261 0.931 . S
C1275 C1274 1.385 . S
C1275 C1276 1.389 . S
C1276 C1275 1.389 . S
C1276 C1277 1.387 . S
C1277 H1262 0.930 . S
C1277 C1272 1.390 . S
C1277 C1276 1.387 . S
C655 C334 1.571 . S
C643 C16 1.562 . S
C682 C403 1.517 . S
C670 C55 1.541 . S
C709 C341 1.535 . S
C697 C99 1.560 . S
C736 C404 1.538 . S
C724 C138 1.527 . S
C763 C457 1.573 . S
C751 C1 1.570 . S
C790 C493 1.512 . S
C778 C40 1.517 . S
C805 C94 1.556 . S
C817 C553 1.530 . S
C844 C616 1.520 . S
C832 C133 1.518 . S
C871 C456 1.542 . S
C859 C60 1.528 . S
C886 C79 1.524 . S
C898 C500 1.534 . S
C925 C546 1.524 . S
C913 C118 1.544 . S
C952 C615 1.517 . S
C940 C21 1.525 . S
C967 C177 1.539 . S
C979 C394 1.536 . S
C1006 C351 1.554 . S
C994 C211 1.555 . S
C1021 C255 1.536 . S
C1033 C387 1.526 . S
C1048 C289 1.562 . S
C1060 C350 1.565 . S
C1087 C562 1.524 . S
C1075 C157 1.547 . S
C1114 C606 1.526 . S
C1102 C196 1.521 . S
C1141 C440 1.553 . S
C1129 C250 1.554 . S
C1156 C294 1.508 . S
C1168 C509 1.524 . S
C1195 C563 1.530 . S
C1183 C216 1.544 . S
C1222 C599 1.528 . S
C1210 C235 1.512 . S
C1249 C447 1.571 . S
C1237 C274 1.559 . S
C1264 C172 1.513 . S
C1276 C510 1.529 . S
