# Generated by pormake.
# Topology pyr, (3,6)-cn, num edge types: 1
# Building blocks:
#     Node 0, Type 0, BuildingBlock: CUQRIR_clean_linker_1, # of connection points: 3
#     Node 1, Type 0, BuildingBlock: CUQRIR_clean_linker_1, # of connection points: 3
#     Node 2, Type 0, BuildingBlock: CUQRIR_clean_linker_1, # of connection points: 3
#     Node 3, Type 0, BuildingBlock: CUQRIR_clean_linker_1, # of connection points: 3
#     Node 4, Type 0, BuildingBlock: CUQRIR_clean_linker_1, # of connection points: 3
#     Node 5, Type 0, BuildingBlock: CUQRIR_clean_linker_1, # of connection points: 3
#     Node 6, Type 0, BuildingBlock: CUQRIR_clean_linker_1, # of connection points: 3
#     Node 7, Type 0, BuildingBlock: CUQRIR_clean_linker_1, # of connection points: 3
#     Node 8, Type 1, BuildingBlock: LEVNOQ01_clean_sbu_1, # of connection points: 6
#     Node 9, Type 1, BuildingBlock: LEVNOQ01_clean_sbu_1, # of connection points: 6
#     Node 10, Type 1, BuildingBlock: LEVNOQ01_clean_sbu_1, # of connection points: 6
#     Node 11, Type 1, BuildingBlock: LEVNOQ01_clean_sbu_1, # of connection points: 6
#     Edge 12, Type (0, 1), BuildingBlock: AJUNOK_clean_linker_0, # of connection points: 2
#     Edge 13, Type (0, 1), BuildingBlock: AJUNOK_clean_linker_0, # of connection points: 2
#     Edge 14, Type (0, 1), BuildingBlock: AJUNOK_clean_linker_0, # of connection points: 2
#     Edge 15, Type (0, 1), BuildingBlock: AJUNOK_clean_linker_0, # of connection points: 2
#     Edge 16, Type (0, 1), BuildingBlock: AJUNOK_clean_linker_0, # of connection points: 2
#     Edge 17, Type (0, 1), BuildingBlock: AJUNOK_clean_linker_0, # of connection points: 2
#     Edge 18, Type (0, 1), BuildingBlock: AJUNOK_clean_linker_0, # of connection points: 2
#     Edge 19, Type (0, 1), BuildingBlock: AJUNOK_clean_linker_0, # of connection points: 2
#     Edge 20, Type (0, 1), BuildingBlock: AJUNOK_clean_linker_0, # of connection points: 2
#     Edge 21, Type (0, 1), BuildingBlock: AJUNOK_clean_linker_0, # of connection points: 2
#     Edge 22, Type (0, 1), BuildingBlock: AJUNOK_clean_linker_0, # of connection points: 2
#     Edge 23, Type (0, 1), BuildingBlock: AJUNOK_clean_linker_0, # of connection points: 2
#     Edge 24, Type (0, 1), BuildingBlock: AJUNOK_clean_linker_0, # of connection points: 2
#     Edge 25, Type (0, 1), BuildingBlock: AJUNOK_clean_linker_0, # of connection points: 2
#     Edge 26, Type (0, 1), BuildingBlock: AJUNOK_clean_linker_0, # of connection points: 2
#     Edge 27, Type (0, 1), BuildingBlock: AJUNOK_clean_linker_0, # of connection points: 2
#     Edge 28, Type (0, 1), BuildingBlock: AJUNOK_clean_linker_0, # of connection points: 2
#     Edge 29, Type (0, 1), BuildingBlock: AJUNOK_clean_linker_0, # of connection points: 2
#     Edge 30, Type (0, 1), BuildingBlock: AJUNOK_clean_linker_0, # of connection points: 2
#     Edge 31, Type (0, 1), BuildingBlock: AJUNOK_clean_linker_0, # of connection points: 2
#     Edge 32, Type (0, 1), BuildingBlock: AJUNOK_clean_linker_0, # of connection points: 2
#     Edge 33, Type (0, 1), BuildingBlock: AJUNOK_clean_linker_0, # of connection points: 2
#     Edge 34, Type (0, 1), BuildingBlock: AJUNOK_clean_linker_0, # of connection points: 2
#     Edge 35, Type (0, 1), BuildingBlock: AJUNOK_clean_linker_0, # of connection points: 2
# Relax obj value: 0.108
# Max RMSD: 0.216
# Mean RMSD: 0.158
data_MOF--net-pry--node1-LEVNOQ01_clean_sbu_1--node2-CUQRIR_clean_linker_1--edge1-AJUNOK_clean_linker_0
_symmetry_space_group_name_H-M    P1
_symmetry_Int_Tables_number       1
_symmetry_cell_setting            triclinic
loop_
_symmetry_equiv_pos_as_xyz
'x, y, z'
_cell_length_a     24.875478
_cell_length_b     23.729977
_cell_length_c     22.792459
_cell_angle_alpha  91.150389
_cell_angle_beta   92.500474
_cell_angle_gamma 96.383873
loop_
_atom_site_label
_atom_site_type_symbol
_atom_site_fract_x
_atom_site_fract_y
_atom_site_fract_z
_atom_type_partial_charge
C0 C 0.12708 0.19947 0.1719 0.0
N1 N 0.16517 0.16492 0.18661 0.0
N2 N 0.1371 0.2244 0.12007 0.0
C3 C 0.07739 0.20595 0.20588 0.0
C4 C 0.18218 0.2027 0.10273 0.0
N5 N 0.19875 0.16529 0.14245 0.0
C6 C 0.21265 0.22237 0.04997 0.0
H7 H 0.04448 0.21964 0.17694 0.0
H8 H 0.08747 0.2385 0.24142 0.0
H9 H 0.06261 0.16533 0.22617 0.0
H10 H 0.20755 0.26731 0.04104 0.0
H11 H 0.19599 0.19634 0.01101 0.0
H12 H 0.25642 0.21781 0.05612 0.0
C13 C 0.38258 0.87452 0.59577 0.0
N14 N 0.3671 0.91533 0.63153 0.0
N15 N 0.42483 0.85102 0.62023 0.0
C16 C 0.35316 0.85326 0.53903 0.0
C17 C 0.43554 0.88025 0.67194 0.0
N18 N 0.40112 0.9202 0.67864 0.0
C19 C 0.47462 0.86441 0.71946 0.0
H20 H 0.32524 0.81478 0.54747 0.0
H21 H 0.38243 0.84119 0.50699 0.0
H22 H 0.32953 0.88583 0.51959 0.0
H23 H 0.50396 0.90175 0.73222 0.0
H24 H 0.49732 0.82935 0.70489 0.0
H25 H 0.4521 0.85156 0.75891 0.0
C26 C 0.6543 0.34985 0.81636 0.0
N27 N 0.6688 0.33455 0.87097 0.0
N28 N 0.68647 0.3965 0.80041 0.0
C29 C 0.60294 0.32566 0.78288 0.0
C30 C 0.72012 0.40948 0.84788 0.0
N31 N 0.70863 0.37254 0.8911 0.0
C32 C 0.76246 0.46012 0.85264 0.0
H33 H 0.61261 0.31158 0.73829 0.0
H34 H 0.57527 0.35904 0.77789 0.0
H35 H 0.58166 0.28898 0.80493 0.0
H36 H 0.74782 0.49372 0.88033 0.0
H37 H 0.77097 0.47745 0.80872 0.0
H38 H 0.80049 0.44833 0.87382 0.0
C39 C 0.87292 0.57574 0.40398 0.0
N40 N 0.91319 0.61407 0.38713 0.0
N41 N 0.85535 0.59051 0.45681 0.0
C42 C 0.84709 0.52589 0.36699 0.0
C43 C 0.88857 0.63788 0.47281 0.0
N44 N 0.92415 0.65223 0.43074 0.0
C45 C 0.87837 0.67665 0.5233 0.0
H46 H 0.81246 0.53878 0.34015 0.0
H47 H 0.83118 0.49117 0.39561 0.0
H48 H 0.87653 0.5102 0.33713 0.0
H49 H 0.85031 0.65489 0.55428 0.0
H50 H 0.86062 0.7142 0.50595 0.0
H51 H 0.91701 0.69184 0.54757 0.0
C52 C 0.82749 0.87303 0.91884 0.0
N53 N 0.86588 0.85555 0.88433 0.0
N54 N 0.80722 0.91919 0.89656 0.0
C55 C 0.80546 0.84061 0.9703 0.0
C56 C 0.83395 0.92872 0.84674 0.0
N57 N 0.869 0.88968 0.83837 0.0
C58 C 0.82668 0.97773 0.8073 0.0
H59 H 0.78506 0.79878 0.95442 0.0
H60 H 0.7761 0.86335 0.994 0.0
H61 H 0.83932 0.8326 1.00121 0.0
H62 H 0.86611 0.99553 0.79063 0.0
H63 H 0.80852 0.01179 0.8309 0.0
H64 H 0.79929 0.96258 0.76915 0.0
C65 C 0.70154 0.17418 0.46249 0.0
N66 N 0.71491 0.13232 0.42648 0.0
N67 N 0.64923 0.18348 0.45237 0.0
C68 C 0.74073 0.20874 0.50467 0.0
C69 C 0.63129 0.14561 0.40868 0.0
N70 N 0.67087 0.11383 0.39307 0.0
C71 C 0.57816 0.14652 0.37405 0.0
H72 H 0.76581 0.18056 0.5294 0.0
H73 H 0.71924 0.23382 0.53586 0.0
H74 H 0.76838 0.23811 0.47951 0.0
H75 H 0.58597 0.15622 0.32755 0.0
H76 H 0.5531 0.17816 0.39158 0.0
H77 H 0.55451 0.10413 0.37476 0.0
C78 C 0.33243 0.6491 0.20804 0.0
N79 N 0.38031 0.67945 0.22302 0.0
N80 N 0.30063 0.68068 0.17647 0.0
C81 C 0.31848 0.58706 0.22004 0.0
C82 C 0.33023 0.73154 0.17358 0.0
N83 N 0.37947 0.73102 0.2014 0.0
C84 C 0.31343 0.78002 0.13807 0.0
H85 H 0.29377 0.56521 0.18285 0.0
H86 H 0.29433 0.5831 0.25983 0.0
H87 H 0.35546 0.56555 0.22771 0.0
H88 H 0.26887 0.776 0.12976 0.0
H89 H 0.33316 0.78047 0.09532 0.0
H90 H 0.327 0.82091 0.16148 0.0
C91 C 0.08552 0.41795 0.62237 0.0
N92 N 0.1175 0.39172 0.58638 0.0
N93 N 0.11179 0.46658 0.64609 0.0
C94 C 0.03244 0.39064 0.64345 0.0
C95 C 0.16053 0.47054 0.62181 0.0
N96 N 0.16388 0.42563 0.58496 0.0
C97 C 0.20771 0.51303 0.64136 0.0
H98 H 0.01183 0.3603 0.60977 0.0
H99 H 0.00552 0.42337 0.65396 0.0
H100 H 0.04019 0.36726 0.68409 0.0
H101 H 0.24047 0.49048 0.66133 0.0
H102 H 0.19594 0.54453 0.67362 0.0
H103 H 0.22409 0.53577 0.60285 0.0
O104 O 0.04496 0.00448 0.67621 0.0
Mg105 Mg 0.08304 0.0549 0.6136 0.0
O106 O 0.99345 0.97059 0.60125 0.0
Mg107 Mg 0.0384 0.01606 0.51826 0.0
O108 O 0.05842 0.11328 0.55629 0.0
O109 O 0.08398 0.13109 0.65091 0.0
O110 O 0.08761 0.06174 0.43511 0.0
O111 O 0.95094 0.04622 0.49674 0.0
Mg112 Mg 0.00984 0.9884 0.42116 0.0
O113 O 0.01254 0.92076 0.477 0.0
O114 O 0.0745 0.9942 0.36869 0.0
O115 O 0.94999 0.04318 0.40141 0.0
O116 O 0.96861 0.91748 0.38884 0.0
C117 C 0.16751 0.00539 0.57586 0.0
C118 C 0.00545 0.97096 0.65655 0.0
C119 C 0.07263 0.14938 0.5997 0.0
C120 C 0.09981 0.04057 0.38562 0.0
C121 C 0.92808 0.05643 0.44757 0.0
C122 C 0.98539 0.8918 0.43383 0.0
O123 O 0.1633 0.04759 0.60851 0.0
O124 O 0.12614 0.98322 0.54423 0.0
O125 O 0.44472 0.1262 0.13603 0.0
Mg126 Mg 0.5203 0.13316 0.09854 0.0
O127 O 0.4226 0.05603 0.0729 0.0
Mg128 Mg 0.51091 0.03743 0.04092 0.0
O129 O 0.53575 0.13152 0.01079 0.0
O130 O 0.52772 0.21031 0.06474 0.0
O131 O 0.59676 0.01932 1.00987 0.0
O132 O 0.46823 0.03207 0.93851 0.0
Mg133 Mg 0.49451 0.95377 0.98828 0.0
O134 O 0.49042 0.94294 0.07658 0.0
O135 O 0.56337 0.96503 0.93651 0.0
O136 O 0.41926 0.95079 0.94368 0.0
O137 O 0.50208 0.87432 0.0116 0.0
C138 C 0.58973 0.08004 0.16612 0.0
C139 C 0.40867 0.091 0.11153 0.0
C140 C 0.53987 0.18659 0.0166 0.0
C141 C 0.60423 0.99114 0.96348 0.0
C142 C 0.43086 0.99524 0.91567 0.0
C143 C 0.4945 0.88983 0.06452 0.0
O144 O 0.5885 0.13071 0.15192 0.0
O145 O 0.55787 0.04137 0.13815 0.0
O146 O 0.42826 0.58224 0.61474 0.0
Mg147 Mg 0.44792 0.50009 0.63372 0.0
O148 O 0.48051 0.59768 0.53895 0.0
Mg149 Mg 0.50593 0.50768 0.51776 0.0
O150 O 0.52504 0.4968 0.61401 0.0
O151 O 0.49756 0.49154 0.70569 0.0
O152 O 0.53569 0.41529 0.50714 0.0
O153 O 0.59568 0.54703 0.51674 0.0
Mg154 Mg 0.53759 0.46921 0.41462 0.0
O155 O 0.48997 0.53315 0.4204 0.0
O156 O 0.50723 0.38351 0.41989 0.0
O157 O 0.61869 0.49469 0.44256 0.0
O158 O 0.52163 0.50175 0.33623 0.0
C159 C 0.38439 0.43358 0.54844 0.0
C160 C 0.44962 0.61545 0.57706 0.0
C161 C 0.53569 0.4906 0.66916 0.0
C162 C 0.52772 0.37414 0.46974 0.0
C163 C 0.63152 0.53022 0.48432 0.0
C164 C 0.49462 0.53636 0.36394 0.0
O165 O 0.40175 0.42711 0.60036 0.0
O166 O 0.41267 0.46684 0.51503 0.0
O167 O 0.98205 0.41723 0.08086 0.0
Mg168 Mg 0.01295 0.50437 0.08684 0.0
O169 O 0.03582 0.44833 0.01418 0.0
Mg170 Mg 0.99685 0.54113 1.00863 0.0
O171 O 0.97269 0.56909 0.11066 0.0
O172 O 0.01413 0.51552 0.17405 0.0
O173 O 0.96409 0.62858 0.98423 0.0
O174 O 0.90871 0.49048 0.01411 0.0
Mg175 Mg 0.94594 0.51786 0.92191 0.0
O176 O 0.02645 0.52818 0.90833 0.0
O177 O 0.90174 0.59001 0.9211 0.0
O178 O 0.91487 0.43421 0.9402 0.0
O179 O 0.96073 0.51397 0.8369 0.0
C180 C 0.11355 0.56878 0.05539 0.0
C181 C 0.01733 0.40712 0.04531 0.0
C182 C 0.98646 0.55708 0.16453 0.0
C183 C 0.92488 0.63415 0.94745 0.0
C184 C 0.89284 0.4439 0.98722 0.0
C185 C 0.01121 0.5218 0.85282 0.0
O186 O 0.09777 0.52337 0.08034 0.0
O187 O 0.08034 0.59135 0.02215 0.0
C188 C 0.16094 0.1618 0.29484 0.0
C189 C 0.16713 0.13388 0.24059 0.0
C190 C 0.14384 0.13151 0.34448 0.0
C191 C 0.13391 0.07204 0.34191 0.0
H192 H 0.16483 0.20768 0.29732 0.0
H193 H 0.13436 0.15497 0.38323 0.0
S194 S 0.15836 0.97872 0.21474 0.0
N195 N 0.17035 0.04367 0.19024 0.0
N196 N 0.1432 0.98622 0.28405 0.0
C197 C 0.14771 0.0437 0.29028 0.0
C198 C 0.16326 0.07467 0.23947 0.0
C199 C 0.44269 0.99311 0.75069 0.0
C200 C 0.39807 0.95416 0.73167 0.0
C201 C 0.45009 0.01262 0.80969 0.0
C202 C 0.41312 0.99356 0.85202 0.0
H203 H 0.47448 0.00462 0.72073 0.0
H204 H 0.48758 0.03818 0.82315 0.0
S205 S 0.28556 0.89803 0.82254 0.0
N206 N 0.31384 0.90213 0.75834 0.0
N207 N 0.32641 0.93929 0.86843 0.0
C208 C 0.36562 0.95906 0.83196 0.0
C209 C 0.35842 0.93916 0.77207 0.0
C210 C 0.64629 0.48297 0.78091 0.0
C211 C 0.66978 0.43618 0.75914 0.0
C212 C 0.60664 0.50621 0.74743 0.0
C213 C 0.59005 0.48323 0.69155 0.0
H214 H 0.65292 0.49632 0.82662 0.0
H215 H 0.58477 0.53787 0.76782 0.0
S216 S 0.65113 0.3719 0.60986 0.0
N217 N 0.68372 0.37677 0.67483 0.0
N218 N 0.60799 0.42004 0.61116 0.0
C219 C 0.6197 0.44314 0.66583 0.0
C220 C 0.66033 0.4197 0.70005 0.0
C221 C 0.98837 0.6053 0.32295 0.0
C222 C 0.93501 0.61665 0.32959 0.0
C223 C 0.00605 0.59126 0.26758 0.0
C224 C 0.97093 0.58818 0.21694 0.0
H225 H 0.01511 0.60281 0.36137 0.0
H226 H 0.04659 0.57896 0.26506 0.0
S227 S 0.82993 0.62446 0.21048 0.0
N228 N 0.84943 0.63242 0.2807 0.0
N229 N 0.88243 0.60501 0.17633 0.0
C230 C 0.9191 0.60506 0.22226 0.0
C231 C 0.90114 0.61946 0.27881 0.0
C232 C 0.28916 0.1476 0.18262 0.0
C233 C 0.24701 0.13639 0.13975 0.0
C234 C 0.34004 0.12862 0.17491 0.0
C235 C 0.35099 0.09754 0.12395 0.0
H236 H 0.28373 0.17404 0.2207 0.0
H237 H 0.37197 0.14099 0.20801 0.0
S238 S 0.2507 0.05016 1.00278 0.0
N239 N 0.21685 0.08674 0.04808 0.0
N240 N 0.3125 0.05159 0.03292 0.0
C241 C 0.30763 0.0824 0.08289 0.0
C242 C 0.25575 0.10184 0.09088 0.0
C243 C 0.3162 0.99506 0.60669 0.0
C244 C 0.31658 0.93889 0.624 0.0
C245 C 0.26776 0.01524 0.58726 0.0
C246 C 0.21836 0.97949 0.58328 0.0
H247 H 0.35376 0.02295 0.60695 0.0
H248 H 0.26874 0.05944 0.57583 0.0
S249 S 0.19812 0.82934 0.62631 0.0
N250 N 0.2637 0.84823 0.63832 0.0
N251 N 0.17275 0.88595 0.60073 0.0
C252 C 0.21834 0.92324 0.60068 0.0
C253 C 0.2674 0.90308 0.62152 0.0
C254 C 0.78051 0.33586 0.94739 0.0
C255 C 0.73904 0.37115 0.94563 0.0
C256 C 0.83123 0.35571 0.97325 0.0
C257 C 0.84063 0.41101 0.99785 0.0
H258 H 0.77696 0.298 0.9195 0.0
H259 H 0.86496 0.33182 0.96512 0.0
S260 S 0.73652 0.50619 0.02832 0.0
N261 N 0.70398 0.45305 0.9885 0.0
N262 N 0.79943 0.49082 0.03805 0.0
C263 C 0.79566 0.43958 1.00957 0.0
C264 C 0.74415 0.41921 0.98305 0.0
C265 C 0.76074 0.60405 0.43456 0.0
C266 C 0.79954 0.58134 0.47087 0.0
C267 C 0.70558 0.59122 0.44299 0.0
C268 C 0.68765 0.55614 0.48864 0.0
H269 H 0.77337 0.62981 0.39784 0.0
H270 H 0.67671 0.60623 0.41165 0.0
S271 S 0.77356 0.4915 0.59937 0.0
N272 N 0.81719 0.52615 0.55648 0.0
N273 N 0.71262 0.50237 0.57317 0.0
C274 C 0.72608 0.53613 0.52752 0.0
C275 C 0.78246 0.54878 0.51847 0.0
C276 C 0.08251 0.26837 0.04286 0.0
C277 C 0.11221 0.27212 0.09718 0.0
C278 C 0.0526 0.31274 0.02444 0.0
C279 C 0.05152 0.36166 0.06018 0.0
H280 H 0.08108 0.23027 0.01563 0.0
H281 H 0.02908 0.30806 0.98317 0.0
S282 S 0.12634 0.39342 0.20352 0.0
N283 N 0.1419 0.33015 0.18367 0.0
N284 N 0.08517 0.41221 0.15045 0.0
C285 C 0.08262 0.36627 0.11341 0.0
C286 C 0.11315 0.32186 0.13155 0.0
C287 C 0.64127 0.23939 0.90657 0.0
C288 C 0.63604 0.29751 0.90685 0.0
C289 C 0.60712 0.20241 0.93925 0.0
C290 C 0.5669 0.22295 0.97279 0.0
H291 H 0.67223 0.22285 0.88143 0.0
H292 H 0.61383 0.15809 0.94025 0.0
S293 S 0.53379 0.37158 0.98077 0.0
N294 N 0.58588 0.37366 0.93804 0.0
N295 N 0.5211 0.30473 0.99965 0.0
C296 C 0.56001 0.28096 0.97081 0.0
C297 C 0.59488 0.31823 0.93782 0.0
C298 C 0.92246 0.74464 0.38706 0.0
C299 C 0.94871 0.70922 0.42422 0.0
C300 C 0.93497 0.80332 0.39106 0.0
C301 C 0.97429 0.82918 0.43264 0.0
H302 H 0.8895 0.72694 0.35732 0.0
H303 H 0.91215 0.82862 0.36224 0.0
S304 S 0.05815 0.75354 0.53646 0.0
N305 N 0.01819 0.70247 0.50096 0.0
N306 N 0.04227 0.81379 0.50894 0.0
C307 C 0.00261 0.79388 0.46854 0.0
C308 C 0.98984 0.73366 0.46402 0.0
C309 C 0.40612 0.75055 0.64128 0.0
C310 C 0.43378 0.7932 0.60908 0.0
C311 C 0.41014 0.69349 0.62873 0.0
C312 C 0.44228 0.67656 0.58341 0.0
H313 H 0.38067 0.76171 0.67612 0.0
H314 H 0.38815 0.66251 0.65561 0.0
S315 S 0.52005 0.77377 0.48389 0.0
N316 N 0.49193 0.81645 0.5286 0.0
N317 N 0.50062 0.70852 0.50449 0.0
C318 C 0.46935 0.71932 0.54987 0.0
C319 C 0.46487 0.77779 0.56288 0.0
C320 C 0.88568 0.89266 0.73213 0.0
C321 C 0.90589 0.89057 0.79088 0.0
C322 C 0.91865 0.91497 0.68732 0.0
C323 C 0.97326 0.93583 0.69964 0.0
H324 H 0.84287 0.88138 0.72193 0.0
H325 H 0.90027 0.9195 0.64396 0.0
S326 S 0.04785 0.92972 0.84426 0.0
N327 N 0.98501 0.90455 0.85705 0.0
N328 N 0.04782 0.944 0.77365 0.0
C329 C 0.99504 0.9282 0.75706 0.0
C330 C 0.96127 0.906 0.80239 0.0
C331 C 0.69249 0.11645 0.2899 0.0
C332 C 0.66967 0.08554 0.33625 0.0
C333 C 0.67029 0.1086 0.23241 0.0
C334 C 0.62403 0.06976 0.21904 0.0
H335 H 0.72232 0.1525 0.2992 0.0
H336 H 0.68586 0.13765 0.1995 0.0
S337 S 0.55802 0.96829 0.32214 0.0
N338 N 0.60588 0.00645 0.36299 0.0
N339 N 0.56312 0.99218 0.25475 0.0
C340 C 0.60598 0.03268 0.26308 0.0
C341 C 0.62924 0.04039 0.32178 0.0
C342 C 0.40403 0.64777 0.32065 0.0
C343 C 0.41996 0.66085 0.2636 0.0
C344 C 0.42979 0.6091 0.35432 0.0
C345 C 0.47236 0.58237 0.33175 0.0
H346 H 0.36812 0.66357 0.33689 0.0
H347 H 0.41406 0.59757 0.39656 0.0
S348 S 0.53762 0.61264 0.19069 0.0
N349 N 0.48639 0.65118 0.19039 0.0
N350 N 0.53604 0.57982 0.2538 0.0
C351 C 0.49245 0.59988 0.27752 0.0
C352 C 0.46601 0.63904 0.24339 0.0
C353 C 0.06205 0.5321 0.70075 0.0
C354 C 0.09895 0.49175 0.70079 0.0
C355 C 0.03791 0.54624 0.75255 0.0
C356 C 0.04992 0.52037 0.80594 0.0
H357 H 0.04901 0.54958 0.65969 0.0
H358 H 0.00665 0.5746 0.74996 0.0
S359 S 0.14723 0.41485 0.82905 0.0
N360 N 0.14942 0.42873 0.75836 0.0
N361 N 0.10397 0.4554 0.85626 0.0
C362 C 0.08991 0.48312 0.80733 0.0
C363 C 0.11437 0.46862 0.75441 0.0
C364 C 0.71248 0.93432 0.8745 0.0
C365 C 0.75873 0.94264 0.91236 0.0
C366 C 0.66367 0.95323 0.89028 0.0
C367 C 0.65907 0.98122 0.94475 0.0
H368 H 0.71381 0.91147 0.83307 0.0
H369 H 0.62875 0.94408 0.86014 0.0
S370 S 0.77103 0.01772 0.05695 0.0
N371 N 0.79906 0.98403 1.00416 0.0
N372 N 0.70704 0.01946 0.03492 0.0
C373 C 0.70609 0.99214 0.98189 0.0
C374 C 0.75595 0.97273 0.9655 0.0
C375 C 0.77728 0.06567 0.46295 0.0
C376 C 0.76712 0.11095 0.42671 0.0
C377 C 0.82989 0.04954 0.47141 0.0
C378 C 0.87405 0.07768 0.44316 0.0
H379 H 0.74441 0.04361 0.48601 0.0
H380 H 0.83585 0.01417 0.49938 0.0
S381 S 0.8695 0.2014 0.3471 0.0
N382 N 0.8063 0.1864 0.36629 0.0
N383 N 0.90418 0.15381 0.37862 0.0
C384 C 0.8643 0.12298 0.40682 0.0
C385 C 0.81113 0.14033 0.39962 0.0
C386 C 0.20698 0.63895 0.17416 0.0
C387 C 0.25205 0.66019 0.14378 0.0
C388 C 0.16185 0.61063 0.14407 0.0
C389 C 0.16052 0.60292 0.08264 0.0
H390 H 0.20766 0.64267 0.22164 0.0
H391 H 0.12799 0.59362 0.16922 0.0
S392 S 0.26861 0.6516 0.98322 0.0
N393 N 0.29357 0.67224 0.04957 0.0
N394 N 0.20693 0.62001 0.99214 0.0
C395 C 0.2045 0.62575 0.05133 0.0
C396 C 0.25098 0.65415 0.08226 0.0
C397 C 0.24453 0.37412 0.58383 0.0
C398 C 0.21288 0.4132 0.55822 0.0
C399 C 0.29947 0.37513 0.57237 0.0
C400 C 0.32545 0.41685 0.53673 0.0
H401 H 0.22864 0.34647 0.61746 0.0
H402 H 0.32309 0.34719 0.59707 0.0
S403 S 0.25747 0.52223 0.45136 0.0
N404 N 0.20867 0.48837 0.48838 0.0
N405 N 0.3128 0.4924 0.46864 0.0
C406 C 0.29279 0.45189 0.50564 0.0
C407 C 0.23638 0.44986 0.51643 0.0
C408 C 0.92824 0.79582 0.93444 0.0
C409 C 0.88758 0.80181 0.89079 0.0
C410 C 0.94001 0.74185 0.95285 0.0
C411 C 0.91059 0.69152 0.92936 0.0
H412 H 0.94961 0.83332 0.9561 0.0
H413 H 0.97183 0.73969 0.98643 0.0
S414 S 0.79782 0.6853 0.81556 0.0
N415 N 0.81725 0.75374 0.82565 0.0
N416 N 0.8379 0.65261 0.85977 0.0
C417 C 0.86977 0.69745 0.88535 0.0
C418 C 0.85867 0.75233 0.86626 0.0
C419 C 0.43972 0.81995 0.20043 0.0
C420 C 0.42564 0.76399 0.1796 0.0
C421 C 0.4672 0.86037 0.16501 0.0
C422 C 0.48146 0.84549 0.10803 0.0
H423 H 0.42445 0.83368 0.24148 0.0
H424 H 0.47325 0.90418 0.18046 0.0
S425 S 0.45784 0.70212 0.03668 0.0
N426 N 0.42925 0.69529 0.10038 0.0
N427 N 0.486 0.76835 0.03643 0.0
C428 C 0.47301 0.78787 0.08997 0.0
C429 C 0.44364 0.74777 0.12508 0.0
C430 C 0.12684 0.30214 0.6331 0.0
C431 C 0.11324 0.33083 0.58251 0.0
C432 C 0.113 0.24408 0.63742 0.0
C433 C 0.08429 0.21146 0.59134 0.0
H434 H 0.14648 0.3257 0.67084 0.0
H435 H 0.12483 0.22498 0.67807 0.0
S436 S 0.0381 0.26736 0.44914 0.0
N437 N 0.06872 0.32385 0.48549 0.0
N438 N 0.04317 0.21294 0.49249 0.0
C439 C 0.07093 0.23952 0.53968 0.0
C440 C 0.08507 0.29959 0.53562 0.0
C441 C 0.57799 0.23113 0.49941 0.0
C442 C 0.62484 0.23407 0.46652 0.0
C443 C 0.54732 0.27752 0.50309 0.0
C444 C 0.56259 0.32772 0.47343 0.0
H445 H 0.56381 0.19183 0.51994 0.0
H446 H 0.51047 0.27326 0.52701 0.0
S447 S 0.68282 0.35687 0.38343 0.0
N448 N 0.68567 0.29144 0.40572 0.0
N449 N 0.62856 0.37822 0.41225 0.0
C450 C 0.61043 0.33158 0.44236 0.0
C451 C 0.64151 0.28484 0.43902 0.0
loop_
_geom_bond_atom_site_label_1
_geom_bond_atom_site_label_2
_geom_bond_distance
_geom_bond_site_symmetry_2
_ccdc_geom_bond_type
C0 N1 1.317 . S
C0 N2 1.348 . S
C0 C3 1.485 . S
N1 C0 1.317 . S
N1 N5 1.370 . S
N2 C0 1.348 . S
N2 C4 1.346 . S
C3 C0 1.485 . S
C3 H7 0.960 . S
C3 H8 0.961 . S
C3 H9 0.960 . S
C4 N2 1.346 . S
C4 N5 1.307 . S
C4 C6 1.486 . S
N5 N1 1.370 . S
N5 C4 1.307 . S
C6 C4 1.486 . S
C6 H10 0.960 . S
C6 H11 0.960 . S
C6 H12 0.959 . S
H7 C3 0.960 . S
H8 C3 0.961 . S
H9 C3 0.960 . S
H10 C6 0.960 . S
H11 C6 0.960 . S
H12 C6 0.959 . S
C13 N14 1.317 . S
C13 N15 1.348 . S
C13 C16 1.485 . S
N14 C13 1.317 . S
N14 N18 1.370 . S
N15 C13 1.348 . S
N15 C17 1.346 . S
C16 C13 1.485 . S
C16 H20 0.960 . S
C16 H21 0.961 . S
C16 H22 0.960 . S
C17 N15 1.346 . S
C17 N18 1.307 . S
C17 C19 1.486 . S
N18 N14 1.370 . S
N18 C17 1.307 . S
C19 C17 1.486 . S
C19 H23 0.960 . S
C19 H24 0.960 . S
C19 H25 0.959 . S
H20 C16 0.960 . S
H21 C16 0.961 . S
H22 C16 0.960 . S
H23 C19 0.960 . S
H24 C19 0.960 . S
H25 C19 0.959 . S
C26 N27 1.317 . S
C26 N28 1.348 . S
C26 C29 1.485 . S
N27 C26 1.317 . S
N27 N31 1.370 . S
N28 C26 1.348 . S
N28 C30 1.346 . S
C29 C26 1.485 . S
C29 H33 0.960 . S
C29 H34 0.961 . S
C29 H35 0.960 . S
C30 N28 1.346 . S
C30 N31 1.307 . S
C30 C32 1.486 . S
N31 N27 1.370 . S
N31 C30 1.307 . S
C32 C30 1.486 . S
C32 H36 0.960 . S
C32 H37 0.960 . S
C32 H38 0.959 . S
H33 C29 0.960 . S
H34 C29 0.961 . S
H35 C29 0.960 . S
H36 C32 0.960 . S
H37 C32 0.960 . S
H38 C32 0.959 . S
C39 N40 1.317 . S
C39 N41 1.348 . S
C39 C42 1.485 . S
N40 C39 1.317 . S
N40 N44 1.370 . S
N41 C39 1.348 . S
N41 C43 1.346 . S
C42 C39 1.485 . S
C42 H46 0.960 . S
C42 H47 0.961 . S
C42 H48 0.960 . S
C43 N41 1.346 . S
C43 N44 1.307 . S
C43 C45 1.486 . S
N44 N40 1.370 . S
N44 C43 1.307 . S
C45 C43 1.486 . S
C45 H49 0.960 . S
C45 H50 0.960 . S
C45 H51 0.959 . S
H46 C42 0.960 . S
H47 C42 0.961 . S
H48 C42 0.960 . S
H49 C45 0.960 . S
H50 C45 0.960 . S
H51 C45 0.959 . S
C52 N53 1.317 . S
C52 N54 1.348 . S
C52 C55 1.485 . S
N53 C52 1.317 . S
N53 N57 1.370 . S
N54 C52 1.348 . S
N54 C56 1.346 . S
C55 C52 1.485 . S
C55 H59 0.960 . S
C55 H60 0.961 1_556 S
C55 H61 0.960 . S
C56 N54 1.346 . S
C56 N57 1.307 . S
C56 C58 1.486 . S
N57 N53 1.370 . S
N57 C56 1.307 . S
C58 C56 1.486 . S
C58 H62 0.960 1_565 S
C58 H63 0.960 . S
C58 H64 0.959 . S
H59 C55 0.960 . S
H60 C55 0.961 1_554 S
H61 C55 0.960 . S
H62 C58 0.960 1_545 S
H63 C58 0.960 . S
H64 C58 0.959 . S
C65 N66 1.317 . S
C65 N67 1.348 . S
C65 C68 1.485 . S
N66 C65 1.317 . S
N66 N70 1.370 . S
N67 C65 1.348 . S
N67 C69 1.346 . S
C68 C65 1.485 . S
C68 H72 0.960 . S
C68 H73 0.961 . S
C68 H74 0.960 . S
C69 N67 1.346 . S
C69 N70 1.307 . S
C69 C71 1.486 . S
N70 N66 1.370 . S
N70 C69 1.307 . S
C71 C69 1.486 . S
C71 H75 0.960 . S
C71 H76 0.960 . S
C71 H77 0.959 . S
H72 C68 0.960 . S
H73 C68 0.961 . S
H74 C68 0.960 . S
H75 C71 0.960 . S
H76 C71 0.960 . S
H77 C71 0.959 . S
C78 N79 1.317 . S
C78 N80 1.348 . S
C78 C81 1.485 . S
N79 C78 1.317 . S
N79 N83 1.370 . S
N80 C78 1.348 . S
N80 C82 1.346 . S
C81 C78 1.485 . S
C81 H85 0.960 . S
C81 H86 0.961 . S
C81 H87 0.960 . S
C82 N80 1.346 . S
C82 N83 1.307 . S
C82 C84 1.486 . S
N83 N79 1.370 . S
N83 C82 1.307 . S
C84 C82 1.486 . S
C84 H88 0.960 . S
C84 H89 0.960 . S
C84 H90 0.959 . S
H85 C81 0.960 . S
H86 C81 0.961 . S
H87 C81 0.960 . S
H88 C84 0.960 . S
H89 C84 0.960 . S
H90 C84 0.959 . S
C91 N92 1.317 . S
C91 N93 1.348 . S
C91 C94 1.485 . S
N92 C91 1.317 . S
N92 N96 1.370 . S
N93 C91 1.348 . S
N93 C95 1.346 . S
C94 C91 1.485 . S
C94 H98 0.960 . S
C94 H99 0.961 . S
C94 H100 0.960 . S
C95 N93 1.346 . S
C95 N96 1.307 . S
C95 C97 1.486 . S
N96 N92 1.370 . S
N96 C95 1.307 . S
C97 C95 1.486 . S
C97 H101 0.960 . S
C97 H102 0.960 . S
C97 H103 0.959 . S
H98 C94 0.960 . S
H99 C94 0.961 . S
H100 C94 0.960 . S
H101 C97 0.960 . S
H102 C97 0.960 . S
H103 C97 0.959 . S
O104 Mg105 1.990 . S
O104 C118 1.253 1_545 S
Mg105 O104 1.990 . S
Mg105 O108 2.180 . S
Mg105 O109 2.117 . S
Mg105 O123 2.030 1_545 S
O106 Mg107 2.072 1_565 S
O106 C118 1.260 . S
Mg107 O106 2.072 1_545 S
Mg107 O108 2.099 . S
Mg107 O110 2.079 . S
Mg107 O111 2.072 1_455 S
Mg107 O113 2.099 1_545 S
Mg107 O124 2.079 1_545 S
O108 Mg105 2.180 . S
O108 Mg107 2.099 . S
O108 C119 1.279 . S
O109 Mg105 2.117 . S
O109 C119 1.250 . S
O110 Mg107 2.079 . S
O110 C120 1.264 . S
O111 Mg107 2.072 1_655 S
O111 C121 1.260 . S
Mg112 O113 2.180 1_655 S
Mg112 O114 2.030 1_665 S
Mg112 O115 1.990 1_565 S
Mg112 O116 2.117 . S
O113 Mg107 2.099 1_565 S
O113 Mg112 2.180 1_455 S
O113 C122 1.279 1_455 S
O114 Mg112 2.030 1_445 S
O114 C120 1.248 . S
O115 Mg112 1.990 1_545 S
O115 C121 1.253 . S
O116 Mg112 2.117 . S
O116 C122 1.250 . S
C117 O123 1.248 . S
C117 O124 1.264 . S
C118 O104 1.253 1_565 S
C118 O106 1.260 . S
C119 O108 1.279 . S
C119 O109 1.250 . S
C120 O110 1.264 . S
C120 O114 1.248 . S
C121 O111 1.260 . S
C121 O115 1.253 . S
C122 O113 1.279 1_655 S
C122 O116 1.250 . S
O123 Mg105 2.030 1_565 S
O123 C117 1.248 . S
O124 Mg107 2.079 1_565 S
O124 C117 1.264 . S
O125 Mg126 1.990 . S
O125 C139 1.253 . S
Mg126 O125 1.990 . S
Mg126 O129 2.180 . S
Mg126 O130 2.117 . S
Mg126 O144 2.030 . S
O127 Mg128 2.072 . S
O127 C139 1.260 . S
Mg128 O127 2.072 . S
Mg128 O129 2.099 . S
Mg128 O131 2.079 . S
Mg128 O132 2.072 1_554 S
Mg128 O134 2.099 1_545 S
Mg128 O145 2.079 . S
O129 Mg126 2.180 . S
O129 Mg128 2.099 . S
O129 C140 1.279 1_554 S
O130 Mg126 2.117 . S
O130 C140 1.250 1_554 S
O131 Mg128 2.079 . S
O131 C141 1.264 1_544 S
O132 Mg128 2.072 1_556 S
O132 C142 1.260 1_545 S
Mg133 O134 2.180 1_556 S
Mg133 O135 2.030 . S
Mg133 O136 1.990 . S
Mg133 O137 2.117 1_556 S
O134 Mg128 2.099 1_565 S
O134 Mg133 2.180 1_554 S
O134 C143 1.279 . S
O135 Mg133 2.030 . S
O135 C141 1.248 . S
O136 Mg133 1.990 . S
O136 C142 1.253 . S
O137 Mg133 2.117 1_554 S
O137 C143 1.250 . S
C138 O144 1.248 . S
C138 O145 1.264 . S
C139 O125 1.253 . S
C139 O127 1.260 . S
C140 O129 1.279 1_556 S
C140 O130 1.250 1_556 S
C141 O131 1.264 1_566 S
C141 O135 1.248 . S
C142 O132 1.260 1_565 S
C142 O136 1.253 . S
C143 O134 1.279 . S
C143 O137 1.250 . S
O144 Mg126 2.030 . S
O144 C138 1.248 . S
O145 Mg128 2.079 . S
O145 C138 1.264 . S
O146 Mg147 1.990 . S
O146 C160 1.253 . S
Mg147 O146 1.990 . S
Mg147 O150 2.180 . S
Mg147 O151 2.117 . S
Mg147 O165 2.030 . S
O148 Mg149 2.072 . S
O148 C160 1.260 . S
Mg149 O148 2.072 . S
Mg149 O150 2.099 . S
Mg149 O152 2.079 . S
Mg149 O153 2.072 . S
Mg149 O155 2.099 . S
Mg149 O166 2.079 . S
O150 Mg147 2.180 . S
O150 Mg149 2.099 . S
O150 C161 1.279 . S
O151 Mg147 2.117 . S
O151 C161 1.250 . S
O152 Mg149 2.079 . S
O152 C162 1.264 . S
O153 Mg149 2.072 . S
O153 C163 1.260 . S
Mg154 O155 2.180 . S
Mg154 O156 2.030 . S
Mg154 O157 1.990 . S
Mg154 O158 2.117 . S
O155 Mg149 2.099 . S
O155 Mg154 2.180 . S
O155 C164 1.279 . S
O156 Mg154 2.030 . S
O156 C162 1.248 . S
O157 Mg154 1.990 . S
O157 C163 1.253 . S
O158 Mg154 2.117 . S
O158 C164 1.250 . S
C159 O165 1.248 . S
C159 O166 1.264 . S
C160 O146 1.253 . S
C160 O148 1.260 . S
C161 O150 1.279 . S
C161 O151 1.250 . S
C162 O152 1.264 . S
C162 O156 1.248 . S
C163 O153 1.260 . S
C163 O157 1.253 . S
C164 O155 1.279 . S
C164 O158 1.250 . S
O165 Mg147 2.030 . S
O165 C159 1.248 . S
O166 Mg149 2.079 . S
O166 C159 1.264 . S
O167 Mg168 1.990 . S
O167 C181 1.253 . S
Mg168 O167 1.990 . S
Mg168 O171 2.172 1_455 S
Mg168 O172 2.117 1_455 S
Mg168 O186 2.030 . S
O169 Mg170 2.072 . S
O169 C181 1.260 . S
Mg170 O169 2.072 . S
Mg170 O171 2.097 1_455 S
Mg170 O173 2.079 1_454 S
Mg170 O174 2.072 1_454 S
Mg170 O176 2.099 1_554 S
Mg170 O187 2.079 . S
O171 Mg168 2.172 1_655 S
O171 Mg170 2.097 1_655 S
O171 C182 1.286 . S
O172 Mg168 2.117 1_655 S
O172 C182 1.250 . S
O173 Mg170 2.079 1_656 S
O173 C183 1.264 . S
O174 Mg170 2.072 1_656 S
O174 C184 1.260 . S
Mg175 O176 2.180 1_655 S
Mg175 O177 2.030 . S
Mg175 O178 1.990 . S
Mg175 O179 2.117 . S
O176 Mg170 2.099 1_556 S
O176 Mg175 2.180 1_455 S
O176 C185 1.279 . S
O177 Mg175 2.030 . S
O177 C183 1.248 . S
O178 Mg175 1.990 . S
O178 C184 1.253 . S
O179 Mg175 2.117 . S
O179 C185 1.250 1_655 S
C180 O186 1.248 . S
C180 O187 1.264 . S
C181 O167 1.253 . S
C181 O169 1.260 . S
C182 O171 1.286 . S
C182 O172 1.250 . S
C183 O173 1.264 . S
C183 O177 1.248 . S
C184 O174 1.260 . S
C184 O178 1.253 . S
C185 O176 1.279 . S
C185 O179 1.250 1_455 S
O186 Mg168 2.030 . S
O186 C180 1.248 . S
O187 Mg170 2.079 . S
O187 C180 1.264 . S
C188 C189 1.369 . S
C188 C190 1.419 . S
C188 H192 0.930 . S
C189 C188 1.369 . S
C189 C198 1.429 . S
C190 C188 1.419 . S
C190 C191 1.363 . S
C190 H193 0.929 . S
C191 C190 1.363 . S
C191 C197 1.428 . S
H192 C188 0.930 . S
H193 C190 0.929 . S
S194 N195 1.613 1_565 S
S194 N196 1.610 . S
N195 S194 1.613 1_545 S
N195 C198 1.350 . S
N196 S194 1.610 . S
N196 C197 1.351 1_565 S
C197 C191 1.428 . S
C197 N196 1.351 1_545 S
C197 C198 1.434 . S
C198 C189 1.429 . S
C198 N195 1.350 . S
C198 C197 1.434 . S
C199 C200 1.369 . S
C199 C201 1.419 . S
C199 H203 0.930 . S
C200 C199 1.369 . S
C200 C209 1.429 . S
C201 C199 1.419 . S
C201 C202 1.363 . S
C201 H204 0.929 . S
C202 C201 1.363 . S
C202 C208 1.428 . S
H203 C199 0.930 . S
H204 C201 0.929 . S
S205 N206 1.613 1_545 S
S205 N207 1.610 . S
N206 S205 1.613 1_565 S
N206 C209 1.350 . S
N207 S205 1.610 . S
N207 C208 1.351 1_545 S
C208 C202 1.428 . S
C208 N207 1.351 1_565 S
C208 C209 1.434 . S
C209 C200 1.429 . S
C209 N206 1.350 . S
C209 C208 1.434 . S
C210 C211 1.369 . S
C210 C212 1.419 . S
C210 H214 0.930 . S
C211 C210 1.369 . S
C211 C220 1.429 . S
C212 C210 1.419 . S
C212 C213 1.363 . S
C212 H215 0.929 . S
C213 C212 1.363 . S
C213 C219 1.428 . S
H214 C210 0.930 . S
H215 C212 0.929 . S
S216 N217 1.613 . S
S216 N218 1.610 . S
N217 S216 1.613 . S
N217 C220 1.350 . S
N218 S216 1.610 . S
N218 C219 1.351 . S
C219 C213 1.428 . S
C219 N218 1.351 . S
C219 C220 1.434 . S
C220 C211 1.429 . S
C220 N217 1.350 . S
C220 C219 1.434 . S
C221 C222 1.369 . S
C221 C223 1.419 . S
C221 H225 0.930 1_655 S
C222 C221 1.369 . S
C222 C231 1.429 . S
C223 C221 1.419 . S
C223 C224 1.363 . S
C223 H226 0.929 1_655 S
C224 C223 1.363 . S
C224 C230 1.428 . S
H225 C221 0.930 1_455 S
H226 C223 0.929 1_455 S
S227 N228 1.613 . S
S227 N229 1.610 . S
N228 S227 1.613 . S
N228 C231 1.350 . S
N229 S227 1.610 . S
N229 C230 1.351 . S
C230 C224 1.428 . S
C230 N229 1.351 . S
C230 C231 1.434 . S
C231 C222 1.429 . S
C231 N228 1.350 . S
C231 C230 1.434 . S
C232 C233 1.369 . S
C232 C234 1.419 . S
C232 H236 0.930 . S
C233 C232 1.369 . S
C233 C242 1.429 . S
C234 C232 1.419 . S
C234 C235 1.363 . S
C234 H237 0.929 . S
C235 C234 1.363 . S
C235 C241 1.428 . S
H236 C232 0.930 . S
H237 C234 0.929 . S
S238 N239 1.613 1_565 S
S238 N240 1.610 1_565 S
N239 S238 1.613 1_545 S
N239 C242 1.350 . S
N240 S238 1.610 1_545 S
N240 C241 1.351 . S
C241 C235 1.428 . S
C241 N240 1.351 . S
C241 C242 1.434 . S
C242 C233 1.429 . S
C242 N239 1.350 . S
C242 C241 1.434 . S
C243 C244 1.369 . S
C243 C245 1.419 . S
C243 H247 0.930 . S
C244 C243 1.369 . S
C244 C253 1.429 . S
C245 C243 1.419 . S
C245 C246 1.363 . S
C245 H248 0.929 . S
C246 C245 1.363 . S
C246 C252 1.428 . S
H247 C243 0.930 . S
H248 C245 0.929 . S
S249 N250 1.613 . S
S249 N251 1.610 . S
N250 S249 1.613 . S
N250 C253 1.350 . S
N251 S249 1.610 . S
N251 C252 1.351 . S
C252 C246 1.428 . S
C252 N251 1.351 . S
C252 C253 1.434 . S
C253 C244 1.429 . S
C253 N250 1.350 . S
C253 C252 1.434 . S
C254 C255 1.369 . S
C254 C256 1.419 . S
C254 H258 0.930 . S
C255 C254 1.369 . S
C255 C264 1.429 . S
C256 C254 1.419 . S
C256 C257 1.363 . S
C256 H259 0.929 . S
C257 C256 1.363 . S
C257 C263 1.428 . S
H258 C254 0.930 . S
H259 C256 0.929 . S
S260 N261 1.613 . S
S260 N262 1.610 . S
N261 S260 1.613 . S
N261 C264 1.350 1_554 S
N262 S260 1.610 . S
N262 C263 1.351 1_554 S
C263 C257 1.428 . S
C263 N262 1.351 1_556 S
C263 C264 1.434 . S
C264 C255 1.429 . S
C264 N261 1.350 1_556 S
C264 C263 1.434 . S
C265 C266 1.369 . S
C265 C267 1.419 . S
C265 H269 0.930 . S
C266 C265 1.369 . S
C266 C275 1.429 . S
C267 C265 1.419 . S
C267 C268 1.363 . S
C267 H270 0.929 . S
C268 C267 1.363 . S
C268 C274 1.428 . S
H269 C265 0.930 . S
H270 C267 0.929 . S
S271 N272 1.613 . S
S271 N273 1.610 . S
N272 S271 1.613 . S
N272 C275 1.350 . S
N273 S271 1.610 . S
N273 C274 1.351 . S
C274 C268 1.428 . S
C274 N273 1.351 . S
C274 C275 1.434 . S
C275 C266 1.429 . S
C275 N272 1.350 . S
C275 C274 1.434 . S
C276 C277 1.369 . S
C276 C278 1.419 . S
C276 H280 0.930 1_554 S
C277 C276 1.369 . S
C277 C286 1.429 . S
C278 C276 1.419 . S
C278 C279 1.363 . S
C278 H281 0.929 1_554 S
C279 C278 1.363 . S
C279 C285 1.428 . S
H280 C276 0.930 1_556 S
H281 C278 0.929 1_556 S
S282 N283 1.613 . S
S282 N284 1.610 . S
N283 S282 1.613 . S
N283 C286 1.350 . S
N284 S282 1.610 . S
N284 C285 1.351 . S
C285 C279 1.428 . S
C285 N284 1.351 . S
C285 C286 1.434 . S
C286 C277 1.429 . S
C286 N283 1.350 . S
C286 C285 1.434 . S
C287 C288 1.369 . S
C287 C289 1.419 . S
C287 H291 0.930 . S
C288 C287 1.369 . S
C288 C297 1.429 . S
C289 C287 1.419 . S
C289 C290 1.363 . S
C289 H292 0.929 . S
C290 C289 1.363 . S
C290 C296 1.428 . S
H291 C287 0.930 . S
H292 C289 0.929 . S
S293 N294 1.613 . S
S293 N295 1.610 . S
N294 S293 1.613 . S
N294 C297 1.350 . S
N295 S293 1.610 . S
N295 C296 1.351 . S
C296 C290 1.428 . S
C296 N295 1.351 . S
C296 C297 1.434 . S
C297 C288 1.429 . S
C297 N294 1.350 . S
C297 C296 1.434 . S
C298 C299 1.369 . S
C298 C300 1.419 . S
C298 H302 0.930 . S
C299 C298 1.369 . S
C299 C308 1.429 . S
C300 C298 1.419 . S
C300 C301 1.363 . S
C300 H303 0.929 . S
C301 C300 1.363 . S
C301 C307 1.428 1_655 S
H302 C298 0.930 . S
H303 C300 0.929 . S
S304 N305 1.613 . S
S304 N306 1.610 . S
N305 S304 1.613 . S
N305 C308 1.350 1_455 S
N306 S304 1.610 . S
N306 C307 1.351 . S
C307 C301 1.428 1_455 S
C307 N306 1.351 . S
C307 C308 1.434 1_455 S
C308 C299 1.429 . S
C308 N305 1.350 1_655 S
C308 C307 1.434 1_655 S
C309 C310 1.369 . S
C309 C311 1.419 . S
C309 H313 0.930 . S
C310 C309 1.369 . S
C310 C319 1.429 . S
C311 C309 1.419 . S
C311 C312 1.363 . S
C311 H314 0.929 . S
C312 C311 1.363 . S
C312 C318 1.428 . S
H313 C309 0.930 . S
H314 C311 0.929 . S
S315 N316 1.613 . S
S315 N317 1.610 . S
N316 S315 1.613 . S
N316 C319 1.350 . S
N317 S315 1.610 . S
N317 C318 1.351 . S
C318 C312 1.428 . S
C318 N317 1.351 . S
C318 C319 1.434 . S
C319 C310 1.429 . S
C319 N316 1.350 . S
C319 C318 1.434 . S
C320 C321 1.369 . S
C320 C322 1.419 . S
C320 H324 0.930 . S
C321 C320 1.369 . S
C321 C330 1.429 . S
C322 C320 1.419 . S
C322 C323 1.363 . S
C322 H325 0.929 . S
C323 C322 1.363 . S
C323 C329 1.428 1_655 S
H324 C320 0.930 . S
H325 C322 0.929 . S
S326 N327 1.613 1_455 S
S326 N328 1.610 . S
N327 S326 1.613 1_655 S
N327 C330 1.350 1_545 S
N328 S326 1.610 . S
N328 C329 1.351 1_545 S
C329 C323 1.428 1_455 S
C329 N328 1.351 1_565 S
C329 C330 1.434 1_455 S
C330 C321 1.429 . S
C330 N327 1.350 1_565 S
C330 C329 1.434 1_655 S
C331 C332 1.369 . S
C331 C333 1.419 . S
C331 H335 0.930 . S
C332 C331 1.369 . S
C332 C341 1.429 . S
C333 C331 1.419 . S
C333 C334 1.363 . S
C333 H336 0.929 . S
C334 C333 1.363 . S
C334 C340 1.428 . S
H335 C331 0.930 . S
H336 C333 0.929 . S
S337 N338 1.613 1_565 S
S337 N339 1.610 . S
N338 S337 1.613 1_545 S
N338 C341 1.350 . S
N339 S337 1.610 . S
N339 C340 1.351 1_565 S
C340 C334 1.428 . S
C340 N339 1.351 1_545 S
C340 C341 1.434 . S
C341 C332 1.429 . S
C341 N338 1.350 . S
C341 C340 1.434 . S
C342 C343 1.369 . S
C342 C344 1.419 . S
C342 H346 0.930 . S
C343 C342 1.369 . S
C343 C352 1.429 . S
C344 C342 1.419 . S
C344 C345 1.363 . S
C344 H347 0.929 . S
C345 C344 1.363 . S
C345 C351 1.428 . S
H346 C342 0.930 . S
H347 C344 0.929 . S
S348 N349 1.613 . S
S348 N350 1.610 . S
N349 S348 1.613 . S
N349 C352 1.350 . S
N350 S348 1.610 . S
N350 C351 1.351 . S
C351 C345 1.428 . S
C351 N350 1.351 . S
C351 C352 1.434 . S
C352 C343 1.429 . S
C352 N349 1.350 . S
C352 C351 1.434 . S
C353 C354 1.369 . S
C353 C355 1.419 . S
C353 H357 0.930 . S
C354 C353 1.369 . S
C354 C363 1.429 . S
C355 C353 1.419 . S
C355 C356 1.363 . S
C355 H358 0.929 . S
C356 C355 1.363 . S
C356 C362 1.428 . S
H357 C353 0.930 . S
H358 C355 0.929 . S
S359 N360 1.613 . S
S359 N361 1.610 . S
N360 S359 1.613 . S
N360 C363 1.350 . S
N361 S359 1.610 . S
N361 C362 1.351 . S
C362 C356 1.428 . S
C362 N361 1.351 . S
C362 C363 1.434 . S
C363 C354 1.429 . S
C363 N360 1.350 . S
C363 C362 1.434 . S
C364 C365 1.369 . S
C364 C366 1.419 . S
C364 H368 0.930 . S
C365 C364 1.369 . S
C365 C374 1.429 . S
C366 C364 1.419 . S
C366 C367 1.363 . S
C366 H369 0.929 . S
C367 C366 1.363 . S
C367 C373 1.428 1_556 S
H368 C364 0.930 . S
H369 C366 0.929 . S
S370 N371 1.604 1_545 S
S370 N372 1.610 . S
N371 S370 1.604 1_565 S
N371 C374 1.353 1_554 S
N372 S370 1.610 . S
N372 C373 1.351 1_545 S
C373 C367 1.428 1_554 S
C373 N372 1.351 1_565 S
C373 C374 1.434 1_554 S
C374 C365 1.429 . S
C374 N371 1.353 1_556 S
C374 C373 1.434 1_556 S
C375 C376 1.369 . S
C375 C377 1.419 . S
C375 H379 0.930 . S
C376 C375 1.369 . S
C376 C385 1.429 . S
C377 C375 1.419 . S
C377 C378 1.363 . S
C377 H380 0.929 . S
C378 C377 1.363 . S
C378 C384 1.428 . S
H379 C375 0.930 . S
H380 C377 0.929 . S
S381 N382 1.613 . S
S381 N383 1.610 . S
N382 S381 1.613 . S
N382 C385 1.350 . S
N383 S381 1.610 . S
N383 C384 1.351 . S
C384 C378 1.428 . S
C384 N383 1.351 . S
C384 C385 1.434 . S
C385 C376 1.429 . S
C385 N382 1.350 . S
C385 C384 1.434 . S
C386 C387 1.369 . S
C386 C388 1.419 . S
C386 H390 0.930 . S
C387 C386 1.369 . S
C387 C396 1.429 . S
C388 C386 1.419 . S
C388 C389 1.363 . S
C388 H391 0.929 . S
C389 C388 1.363 . S
C389 C395 1.428 . S
H390 C386 0.930 . S
H391 C388 0.929 . S
S392 N393 1.613 1_556 S
S392 N394 1.610 . S
N393 S392 1.613 1_554 S
N393 C396 1.350 . S
N394 S392 1.610 . S
N394 C395 1.351 1_556 S
C395 C389 1.428 . S
C395 N394 1.351 1_554 S
C395 C396 1.434 . S
C396 C387 1.429 . S
C396 N393 1.350 . S
C396 C395 1.434 . S
C397 C398 1.369 . S
C397 C399 1.419 . S
C397 H401 0.930 . S
C398 C397 1.369 . S
C398 C407 1.429 . S
C399 C397 1.419 . S
C399 C400 1.363 . S
C399 H402 0.929 . S
C400 C399 1.363 . S
C400 C406 1.428 . S
H401 C397 0.930 . S
H402 C399 0.929 . S
S403 N404 1.613 . S
S403 N405 1.610 . S
N404 S403 1.613 . S
N404 C407 1.350 . S
N405 S403 1.610 . S
N405 C406 1.351 . S
C406 C400 1.428 . S
C406 N405 1.351 . S
C406 C407 1.434 . S
C407 C398 1.429 . S
C407 N404 1.350 . S
C407 C406 1.434 . S
C408 C409 1.369 . S
C408 C410 1.419 . S
C408 H412 0.930 . S
C409 C408 1.369 . S
C409 C418 1.429 . S
C410 C408 1.419 . S
C410 C411 1.363 . S
C410 H413 0.929 1_655 S
C411 C410 1.363 . S
C411 C417 1.428 . S
H412 C408 0.930 . S
H413 C410 0.929 1_455 S
S414 N415 1.613 1_554 S
S414 N416 1.610 1_554 S
N415 S414 1.613 1_556 S
N415 C418 1.350 . S
N416 S414 1.610 1_556 S
N416 C417 1.352 . S
C417 C411 1.428 . S
C417 N416 1.352 . S
C417 C418 1.434 . S
C418 C409 1.429 . S
C418 N415 1.350 . S
C418 C417 1.434 . S
C419 C420 1.369 . S
C419 C421 1.419 . S
C419 H423 0.930 . S
C420 C419 1.369 . S
C420 C429 1.429 . S
C421 C419 1.419 . S
C421 C422 1.363 . S
C421 H424 0.929 . S
C422 C421 1.363 . S
C422 C428 1.428 . S
H423 C419 0.930 . S
H424 C421 0.929 . S
S425 N426 1.613 1_556 S
S425 N427 1.610 1_556 S
N426 S425 1.613 1_554 S
N426 C429 1.350 . S
N427 S425 1.610 1_554 S
N427 C428 1.351 . S
C428 C422 1.428 . S
C428 N427 1.351 . S
C428 C429 1.434 . S
C429 C420 1.429 . S
C429 N426 1.350 . S
C429 C428 1.434 . S
C430 C431 1.369 . S
C430 C432 1.419 . S
C430 H434 0.930 . S
C431 C430 1.369 . S
C431 C440 1.429 . S
C432 C430 1.419 . S
C432 C433 1.363 . S
C432 H435 0.929 . S
C433 C432 1.363 . S
C433 C439 1.428 . S
H434 C430 0.930 . S
H435 C432 0.929 . S
S436 N437 1.613 . S
S436 N438 1.610 . S
N437 S436 1.613 . S
N437 C440 1.350 . S
N438 S436 1.610 . S
N438 C439 1.351 . S
C439 C433 1.428 . S
C439 N438 1.351 . S
C439 C440 1.434 . S
C440 C431 1.429 . S
C440 N437 1.350 . S
C440 C439 1.434 . S
C441 C442 1.369 . S
C441 C443 1.419 . S
C441 H445 0.930 . S
C442 C441 1.369 . S
C442 C451 1.429 . S
C443 C441 1.419 . S
C443 C444 1.363 . S
C443 H446 0.929 . S
C444 C443 1.363 . S
C444 C450 1.428 . S
H445 C441 0.930 . S
H446 C443 0.929 . S
S447 N448 1.613 . S
S447 N449 1.610 . S
N448 S447 1.613 . S
N448 C451 1.350 . S
N449 S447 1.610 . S
N449 C450 1.351 . S
C450 C444 1.428 . S
C450 N449 1.351 . S
C450 C451 1.434 . S
C451 C442 1.429 . S
C451 N448 1.350 . S
C451 C450 1.434 . S
C189 N1 1.491 . S
C191 C120 1.493 . S
C200 N18 1.700 . S
C202 C142 1.660 . S
C213 C161 1.012 . S
C211 N28 1.202 . S
C222 N40 1.786 . S
C224 C182 1.484 . S
C235 C139 1.884 . S
C233 N5 1.950 . S
C246 C117 1.572 . S
C244 N14 1.611 . S
C257 C184 1.350 . S
C255 N31 1.395 . S
C268 C163 1.213 . S
C266 N41 1.254 . S
C277 N2 1.540 . S
C279 C181 1.512 . S
C290 C140 1.339 . S
C288 N27 1.605 . S
C299 N44 1.665 . S
C301 C122 1.474 . S
C310 N15 1.396 . S
C312 C160 1.354 . S
C323 C118 1.708 1_655 S
C321 N57 1.792 . S
C332 N70 1.274 . S
C334 C138 1.287 . S
C343 N79 1.430 . S
C345 C164 1.254 . S
C354 N93 1.482 . S
C356 C185 1.245 . S
C365 N54 1.542 . S
C367 C141 1.504 . S
C378 C121 1.930 . S
C376 N66 1.969 . S
C389 C180 0.980 . S
C387 N80 1.016 . S
C400 C159 1.460 . S
C398 N96 1.517 . S
C409 N53 1.503 . S
C411 C183 1.498 . S
C422 C143 1.201 . S
C420 N83 1.443 . S
C433 C119 1.437 . S
C431 N92 1.570 . S
C442 N67 1.444 . S
C444 C162 1.427 . S
