# Generated by pormake.
# Topology zzz, (3,6)-cn, num edge types: 1
# Building blocks:
#     Node 0, Type 0, BuildingBlock: BETDAH_clean_linker_0, # of connection points: 3
#     Node 1, Type 0, BuildingBlock: BETDAH_clean_linker_0, # of connection points: 3
#     Node 2, Type 0, BuildingBlock: BETDAH_clean_linker_0, # of connection points: 3
#     Node 3, Type 0, BuildingBlock: BETDAH_clean_linker_0, # of connection points: 3
#     Node 4, Type 0, BuildingBlock: BETDAH_clean_linker_0, # of connection points: 3
#     Node 5, Type 0, BuildingBlock: BETDAH_clean_linker_0, # of connection points: 3
#     Node 6, Type 0, BuildingBlock: BETDAH_clean_linker_0, # of connection points: 3
#     Node 7, Type 0, BuildingBlock: BETDAH_clean_linker_0, # of connection points: 3
#     Node 8, Type 1, BuildingBlock: NUHQIS_clean_sbu_0, # of connection points: 6
#     Node 9, Type 1, BuildingBlock: NUHQIS_clean_sbu_0, # of connection points: 6
#     Node 10, Type 1, BuildingBlock: NUHQIS_clean_sbu_0, # of connection points: 6
#     Node 11, Type 1, BuildingBlock: NUHQIS_clean_sbu_0, # of connection points: 6
#     Edge 12, Type (0, 1), BuildingBlock: EZIPEK_clean_linker_0, # of connection points: 2
#     Edge 13, Type (0, 1), BuildingBlock: EZIPEK_clean_linker_0, # of connection points: 2
#     Edge 14, Type (0, 1), BuildingBlock: EZIPEK_clean_linker_0, # of connection points: 2
#     Edge 15, Type (0, 1), BuildingBlock: EZIPEK_clean_linker_0, # of connection points: 2
#     Edge 16, Type (0, 1), BuildingBlock: EZIPEK_clean_linker_0, # of connection points: 2
#     Edge 17, Type (0, 1), BuildingBlock: EZIPEK_clean_linker_0, # of connection points: 2
#     Edge 18, Type (0, 1), BuildingBlock: EZIPEK_clean_linker_0, # of connection points: 2
#     Edge 19, Type (0, 1), BuildingBlock: EZIPEK_clean_linker_0, # of connection points: 2
#     Edge 20, Type (0, 1), BuildingBlock: EZIPEK_clean_linker_0, # of connection points: 2
#     Edge 21, Type (0, 1), BuildingBlock: EZIPEK_clean_linker_0, # of connection points: 2
#     Edge 22, Type (0, 1), BuildingBlock: EZIPEK_clean_linker_0, # of connection points: 2
#     Edge 23, Type (0, 1), BuildingBlock: EZIPEK_clean_linker_0, # of connection points: 2
#     Edge 24, Type (0, 1), BuildingBlock: EZIPEK_clean_linker_0, # of connection points: 2
#     Edge 25, Type (0, 1), BuildingBlock: EZIPEK_clean_linker_0, # of connection points: 2
#     Edge 26, Type (0, 1), BuildingBlock: EZIPEK_clean_linker_0, # of connection points: 2
#     Edge 27, Type (0, 1), BuildingBlock: EZIPEK_clean_linker_0, # of connection points: 2
#     Edge 28, Type (0, 1), BuildingBlock: EZIPEK_clean_linker_0, # of connection points: 2
#     Edge 29, Type (0, 1), BuildingBlock: EZIPEK_clean_linker_0, # of connection points: 2
#     Edge 30, Type (0, 1), BuildingBlock: EZIPEK_clean_linker_0, # of connection points: 2
#     Edge 31, Type (0, 1), BuildingBlock: EZIPEK_clean_linker_0, # of connection points: 2
#     Edge 32, Type (0, 1), BuildingBlock: EZIPEK_clean_linker_0, # of connection points: 2
#     Edge 33, Type (0, 1), BuildingBlock: EZIPEK_clean_linker_0, # of connection points: 2
#     Edge 34, Type (0, 1), BuildingBlock: EZIPEK_clean_linker_0, # of connection points: 2
#     Edge 35, Type (0, 1), BuildingBlock: EZIPEK_clean_linker_0, # of connection points: 2
# Relax obj value: 0.344
# Max RMSD: 0.179
# Mean RMSD: 0.139
data_MOF--net-zzz--node1-NUHQIS_clean_sbu_0--node2-BETDAH_clean_linker_0--edge1-EZIPEK_clean_linker_0
_symmetry_space_group_name_H-M    P1
_symmetry_Int_Tables_number       1
_symmetry_cell_setting            triclinic
loop_
_symmetry_equiv_pos_as_xyz
'x, y, z'
_cell_length_a     38.477064
_cell_length_b     38.529923
_cell_length_c     10.569596
_cell_angle_alpha  89.774709
_cell_angle_beta   88.892653
_cell_angle_gamma 89.980982
loop_
_atom_site_label
_atom_site_type_symbol
_atom_site_fract_x
_atom_site_fract_y
_atom_site_fract_z
_atom_type_partial_charge
H0 H 0.85018 0.47979 0.31945 0.0
H1 H 0.74599 0.49034 0.19286 0.0
H2 H 0.78066 0.5509 0.51041 0.0
C3 C 0.82497 0.49211 0.33018 0.0
C4 C 0.81935 0.51599 0.42833 0.0
C5 C 0.79819 0.48164 0.25135 0.0
C6 C 0.76596 0.49814 0.25766 0.0
C7 C 0.75971 0.52442 0.34706 0.0
C8 C 0.78607 0.53227 0.43617 0.0
N9 N 0.72719 0.54265 0.34976 0.0
C10 C 0.70058 0.53852 0.26114 0.0
H11 H 0.05943 0.85068 0.39074 0.0
H12 H 0.05184 0.7468 0.24888 0.0
H13 H 0.97633 0.78489 0.52346 0.0
C14 C 0.04598 0.82601 0.38924 0.0
C15 C 1.01689 0.82135 0.46863 0.0
C16 C 0.0587 0.79944 0.31079 0.0
C17 C 0.04155 0.76731 0.30847 0.0
C18 C 1.01096 0.76203 0.38139 0.0
C19 C 0.99918 0.78902 0.46389 0.0
N20 N 0.99172 0.73019 0.37409 0.0
C21 C 0.99783 0.70277 0.2884 0.0
H22 H 0.67602 0.99897 0.41793 0.0
H23 H 0.77986 0.98642 0.26957 0.0
H24 H 0.76108 0.03568 0.63267 0.0
C25 C 0.70375 1.00201 0.42729 0.0
C26 C 0.71526 0.01692 0.53785 0.0
C27 C 0.72664 0.98895 0.33434 0.0
C28 C 0.76227 0.99568 0.34312 0.0
C29 C 0.775 1.01416 0.44765 0.0
C30 C 0.75141 0.02347 0.54825 0.0
N31 N 0.81113 0.02293 0.45458 0.0
C32 C 0.83592 0.01906 0.35574 0.0
H33 H 0.56038 0.6898 0.42229 0.0
H34 H 0.55821 0.78985 0.24138 0.0
H35 H 0.49536 0.76883 0.57737 0.0
C36 C 0.55151 0.7163 0.41846 0.0
C37 C 0.52757 0.72621 0.51127 0.0
C38 C 0.56347 0.7388 0.32218 0.0
C39 C 0.54966 0.77248 0.31632 0.0
C40 C 0.5247 0.78362 0.4071 0.0
C41 C 0.51412 0.76042 0.50622 0.0
N42 N 0.50982 0.81766 0.40084 0.0
C43 C 0.51423 0.84162 0.30089 0.0
H44 H 0.1903 0.57928 0.25625 0.0
H45 H 0.29284 0.56271 0.39421 0.0
H46 H 0.24918 0.49084 0.12725 0.0
C47 C 0.21384 0.56384 0.25611 0.0
C48 C 0.2161 0.53462 0.1778 0.0
C49 C 0.24155 0.57433 0.33116 0.0
C50 C 0.27174 0.5543 0.33542 0.0
C51 C 0.27428 0.52316 0.2673 0.0
C52 C 0.24678 0.51397 0.18465 0.0
N53 N 0.30385 0.50087 0.28186 0.0
C54 C 0.33062 0.50599 0.36938 0.0
H55 H 0.96816 0.20013 0.25534 0.0
H56 H 0.98525 0.30341 0.38364 0.0
H57 H 0.03613 0.26774 0.03918 0.0
C58 C 0.98097 0.22497 0.2412 0.0
C59 C 1.00326 0.2297 0.13621 0.0
C60 C 0.97364 0.25186 0.32616 0.0
C61 C 0.99034 0.28376 0.31327 0.0
C62 C 1.01317 0.29011 0.21066 0.0
C63 C 0.01924 0.26297 0.12047 0.0
N64 N 0.02949 0.32348 0.19582 0.0
C65 C 0.0263 0.3515 0.28138 0.0
H66 H 0.32491 0.97387 0.19292 0.0
H67 H 0.22218 0.98842 0.34509 0.0
H68 H 0.25727 0.04822 0.01919 0.0
C69 C 0.29966 0.98632 0.1865 0.0
C70 C 0.29477 1.01178 0.09433 0.0
C71 C 0.27356 0.97786 0.27552 0.0
C72 C 0.24135 0.99445 0.27224 0.0
C73 C 0.23474 0.01971 0.17944 0.0
C74 C 0.26174 0.02836 0.08978 0.0
N75 N 0.20179 0.03715 0.17689 0.0
C76 C 0.17438 0.03284 0.26626 0.0
H77 H 0.56715 0.3383 0.20185 0.0
H78 H 0.54688 0.2368 0.35267 0.0
H79 H 0.47527 0.28372 0.09172 0.0
C80 C 0.55118 0.3151 0.20441 0.0
C81 C 0.52078 0.31457 0.1342 0.0
C82 C 0.56055 0.28734 0.28319 0.0
C83 C 0.53945 0.2579 0.291 0.0
C84 C 0.50821 0.25637 0.22452 0.0
C85 C 0.49919 0.28467 0.14388 0.0
N86 N 0.48513 0.22743 0.24155 0.0
C87 C 0.4898 0.20025 0.32929 0.0
Tb88 Tb 0.02874 1.01376 0.91168 0.0
Eu89 Eu 0.97477 0.03391 0.69248 0.0
C90 C 0.05721 0.02877 0.62964 0.0
C91 C 1.00626 0.09384 0.88057 0.0
C92 C 0.09191 0.9625 0.09645 0.0
C93 C 0.13227 0.91828 0.01905 0.0
C94 C 0.11662 0.95098 1.00598 0.0
C95 C 0.08482 0.94201 0.20315 0.0
C96 C 0.10027 0.90964 0.21599 0.0
C97 C 0.12312 0.89669 0.12193 0.0
C98 C 0.07061 0.99382 0.07779 0.0
O99 O 0.98016 0.02725 0.01262 0.0
O100 O 0.94401 1.0104 0.85756 0.0
O101 O 0.99159 0.97948 0.64255 0.0
O102 O 1.00897 0.96351 0.8402 0.0
C103 C 0.94901 0.01812 0.97659 0.0
O104 O 0.92037 0.03489 0.63686 0.0
O105 O 0.96021 0.05204 0.50504 0.0
O106 O 0.02776 0.04411 0.60161 0.0
O107 O 0.06069 1.01177 0.73702 0.0
O108 O 0.02857 0.07086 0.9244 0.0
O109 O 0.98252 0.08488 0.79801 0.0
C110 C 1.00085 0.95529 0.72292 0.0
O111 O 0.07925 1.01466 0.98493 0.0
O112 O 0.03716 0.98861 0.08418 0.0
C113 C 0.90861 0.08438 0.51167 0.0
C114 C 0.89782 0.15602 0.51212 0.0
C115 C 0.88368 0.13579 0.61066 0.0
C116 C 0.8893 0.09996 0.61089 0.0
C117 C 0.91682 0.10394 0.40318 0.0
C118 C 0.91166 0.13968 0.40378 0.0
C119 C 0.92699 0.05132 0.53132 0.0
H120 H 0.1505 0.90958 0.94678 0.0
H121 H 0.12275 0.96645 0.92276 0.0
H122 H 0.06589 0.95034 0.27394 0.0
H123 H 0.09267 0.8939 0.29672 0.0
H124 H 0.87217 0.14801 0.69356 0.0
H125 H 0.8815 0.08524 0.69394 0.0
H126 H 0.93086 0.09233 0.32411 0.0
H127 H 0.92198 0.15492 0.32525 0.0
Tb128 Tb 0.51281 0.04171 0.93078 0.0
Eu129 Eu 0.50094 0.99497 0.68462 0.0
C130 C 0.50111 0.08019 0.66577 0.0
C131 C 0.43646 0.01971 0.87453 0.0
C132 C 0.55345 0.04679 0.2203 0.0
C133 C 0.6148 0.03739 0.25436 0.0
C134 C 0.58672 0.06001 0.24167 0.0
C135 C 0.54813 1.01073 0.23289 0.0
C136 C 0.57644 0.98818 0.23538 0.0
C137 C 0.6103 1.00135 0.23818 0.0
C138 C 0.52974 0.0666 0.13879 0.0
O139 O 0.50316 0.98853 0.99933 0.0
O140 O 0.52262 0.95771 0.82992 0.0
O141 O 0.5565 1.01276 0.65828 0.0
O142 O 0.56509 0.02406 0.86732 0.0
C143 C 0.51466 0.95933 0.95072 0.0
O144 O 0.50493 0.94479 0.58919 0.0
O145 O 0.48138 0.98836 0.49464 0.0
O146 O 0.49612 0.05007 0.6108 0.0
O147 O 0.50828 0.08283 0.78706 0.0
O148 O 0.45656 0.04618 0.90255 0.0
O149 O 0.44943 0.9957 0.79842 0.0
C150 C 0.5774 0.01998 0.75098 0.0
O151 O 0.54386 0.07669 0.03161 0.0
O152 O 0.49951 0.0525 0.12096 0.0
C153 C 0.4549 0.93485 0.46799 0.0
C154 C 0.38413 0.92041 0.44908 0.0
C155 C 0.40257 0.93441 0.34525 0.0
C156 C 0.43783 0.94168 0.35488 0.0
C157 C 0.43746 0.91644 0.56548 0.0
C158 C 0.40207 0.90903 0.55563 0.0
C159 C 0.48628 0.95492 0.49436 0.0
H160 H 0.64065 0.04832 0.26081 0.0
H161 H 0.59185 0.08749 0.23224 0.0
H162 H 0.52254 0.99955 0.22325 0.0
H163 H 0.57176 0.96078 0.22544 0.0
H164 H 0.38891 0.94348 0.26267 0.0
H165 H 0.4507 0.95634 0.27991 0.0
H166 H 0.45002 0.91113 0.65434 0.0
H167 H 0.38801 0.89837 0.63659 0.0
Tb168 Tb 0.49557 0.53195 0.94114 0.0
Eu169 Eu 0.53804 0.51306 0.68649 0.0
C170 C 0.45267 0.51675 0.68978 0.0
C171 C 0.51514 0.45389 0.89749 0.0
C172 C 0.49742 0.5761 0.22761 0.0
C173 C 0.51432 0.63598 0.25782 0.0
C174 C 0.48836 0.61083 0.24887 0.0
C175 C 0.53263 0.5665 0.23725 0.0
C176 C 0.55854 0.59181 0.23635 0.0
C177 C 0.54958 0.62704 0.23752 0.0
C178 C 0.47438 0.55419 0.15107 0.0
O179 O 0.54904 0.52114 1.00032 0.0
O180 O 0.57883 0.53432 0.81888 0.0
O181 O 0.52006 0.56796 0.65302 0.0
O182 O 0.5164 0.58127 0.86228 0.0
C183 C 0.57829 0.52925 0.94169 0.0
O184 O 0.58525 0.51679 0.56831 0.0
O185 O 0.54132 0.48704 0.50486 0.0
O186 O 0.48166 0.50744 0.63117 0.0
O187 O 0.4523 0.52816 0.80769 0.0
O188 O 0.48954 0.47527 0.92828 0.0
O189 O 0.53825 0.46442 0.8119 0.0
C190 C 0.51682 0.59108 0.74266 0.0
O191 O 0.46543 0.56825 0.04409 0.0
O192 O 0.48451 0.52231 0.13418 0.0
C193 C 0.59583 0.46455 0.45685 0.0
C194 C 0.6169 0.39542 0.43685 0.0
C195 C 0.62799 0.41541 0.53904 0.0
C196 C 0.61717 0.44992 0.54966 0.0
C197 C 0.58879 0.44577 0.34725 0.0
C198 C 0.59935 0.41136 0.33712 0.0
C199 C 0.57396 0.49469 0.48561 0.0
H200 H 0.50656 0.66297 0.26387 0.0
H201 H 0.46153 0.61912 0.24322 0.0
H202 H 0.54055 0.53967 0.22807 0.0
H203 H 0.58509 0.58354 0.22366 0.0
H204 H 0.64126 0.40327 0.61711 0.0
H205 H 0.62257 0.46387 0.63587 0.0
H206 H 0.57216 0.45657 0.27539 0.0
H207 H 0.59064 0.39624 0.25753 0.0
Tb208 Tb 1.00627 0.49969 0.9126 0.0
Eu209 Eu 0.03082 0.5508 0.68532 0.0
C210 C 0.02384 0.46818 0.63821 0.0
C211 C 0.0856 0.52408 0.8953 0.0
C212 C 0.96096 0.43314 0.1105 0.0
C213 C 0.91869 0.39557 0.01231 0.0
C214 C 0.95211 0.4098 0.01442 0.0
C215 C 0.93856 0.43705 0.21525 0.0
C216 C 0.90522 0.42318 0.21251 0.0
C217 C 0.89395 0.4054 0.10461 0.0
C218 C 0.98871 0.4589 0.09148 0.0
O219 O 0.99144 0.55264 0.97327 0.0
O220 O 0.03289 0.58285 0.86375 0.0
O221 O 0.9718 0.54989 0.67486 0.0
O222 O 0.95974 0.50098 0.79258 0.0
C223 C 1.01012 0.58107 0.95725 0.0
O224 O 0.02675 0.60196 0.59786 0.0
O225 O 0.0591 0.56237 0.50993 0.0
O226 O 0.02125 0.49932 0.58806 0.0
O227 O 0.02496 0.46419 0.76205 0.0
O228 O 0.0586 0.51586 0.96762 0.0
O229 O 0.08153 0.53308 0.77569 0.0
C230 C 0.94997 0.52539 0.71194 0.0
O231 O 1.01289 0.45202 1.00763 0.0
O232 O 0.97775 0.4907 0.08043 0.0
C233 C 0.07788 0.61995 0.48734 0.0
C234 C 0.14443 0.64876 0.47797 0.0
C235 C 0.121 0.65865 0.57467 0.0
C236 C 0.088 0.64338 0.58155 0.0
C237 C 0.09861 0.61622 0.37814 0.0
C238 C 0.13177 0.63051 0.37349 0.0
C239 C 0.04964 0.59494 0.50899 0.0
H240 H 0.91129 0.37997 0.93225 0.0
H241 H 0.96978 0.40497 0.93577 0.0
H242 H 0.94531 0.4541 0.29235 0.0
H243 H 0.88707 0.43013 0.28777 0.0
H244 H 0.12969 0.67426 0.65297 0.0
H245 H 0.0719 0.6475 0.66535 0.0
H246 H 0.09075 0.59913 0.3026 0.0
H247 H 0.14883 0.62368 0.29484 0.0
C248 C 0.12758 0.06267 0.39445 0.0
C249 C 0.14438 0.03142 0.35639 0.0
C250 C 0.10248 0.99811 0.48975 0.0
C251 C 0.08732 0.02963 0.53519 0.0
N252 N 0.08968 0.09206 0.54625 0.0
N253 N 0.149 0.96929 0.37062 0.0
C254 C 0.10092 0.06194 0.49102 0.0
C255 C 0.13224 0.99913 0.40557 0.0
N256 N 0.13658 0.09318 0.33602 0.0
N257 N 0.08727 0.96715 0.52188 0.0
H258 H 0.16784 0.96857 0.29849 0.0
H259 H 0.14515 0.94542 0.41503 0.0
H260 H 0.06456 0.9654 0.57661 0.0
H261 H 0.09526 0.94318 0.48713 0.0
H262 H 0.12267 0.11617 0.34772 0.0
H263 H 0.15638 0.09497 0.26746 0.0
H264 H 0.1012 0.11611 0.52924 0.0
H265 H 0.0708 0.09274 0.61829 0.0
C266 C 0.46669 0.16385 0.51015 0.0
C267 C 0.4935 0.17101 0.41925 0.0
C268 C 0.52712 0.12135 0.50134 0.0
C269 C 0.49904 0.11247 0.58512 0.0
N270 N 0.44065 0.12307 0.661 0.0
N271 N 0.54848 0.15595 0.32239 0.0
C272 C 0.46851 0.13329 0.58772 0.0
C273 C 0.52359 0.14963 0.41373 0.0
N274 N 0.43973 0.18674 0.52408 0.0
N275 N 0.55746 0.103 0.50737 0.0
H276 H 0.54686 0.17641 0.25786 0.0
H277 H 0.56997 0.14021 0.30561 0.0
H278 H 0.56036 0.08137 0.56569 0.0
H279 H 0.58049 0.11032 0.46159 0.0
H280 H 0.42122 0.18535 0.59699 0.0
H281 H 0.43727 0.20886 0.46768 0.0
H282 H 0.41619 0.13449 0.65696 0.0
H283 H 0.44129 0.10143 0.72054 0.0
C284 C 0.36545 0.48534 0.55517 0.0
C285 C 0.35989 0.51013 0.45737 0.0
C286 C 0.4141 0.53999 0.5155 0.0
C287 C 0.41943 0.51567 0.61539 0.0
N288 N 0.39769 0.46805 0.74175 0.0
N289 N 0.37556 0.56414 0.35706 0.0
C290 C 0.39419 0.4893 0.6389 0.0
C291 C 0.38322 0.53843 0.44177 0.0
N292 N 0.34376 0.45732 0.56551 0.0
N293 N 0.43905 0.56431 0.48925 0.0
H294 H 0.35394 0.56325 0.29912 0.0
H295 H 0.38894 0.58754 0.34969 0.0
H296 H 0.46151 0.56683 0.54157 0.0
H297 H 0.4385 0.58104 0.4122 0.0
H298 H 0.34818 0.43615 0.62443 0.0
H299 H 0.32204 0.45423 0.50904 0.0
H300 H 0.37869 0.45067 0.77316 0.0
H301 H 0.41889 0.46936 0.80155 0.0
C302 C 0.05422 0.40508 0.37246 0.0
C303 C 0.02561 0.38172 0.36831 0.0
C304 C 0.99978 0.4108 0.55467 0.0
C305 C 0.02609 0.43687 0.55114 0.0
N306 N 0.07789 0.45961 0.44849 0.0
N307 N 0.96616 0.37075 0.43035 0.0
C308 C 0.05306 0.43431 0.45686 0.0
C309 C 0.997 0.38693 0.45234 0.0
N310 N 0.08285 0.39902 0.29721 0.0
N311 N 0.97744 0.40821 0.65599 0.0
H312 H 0.96223 0.356 0.34934 0.0
H313 H 0.94349 0.37593 0.48254 0.0
H314 H 0.97769 0.42534 0.73168 0.0
H315 H 0.96028 0.38747 0.66839 0.0
H316 H 0.10614 0.41251 0.3049 0.0
H317 H 0.08406 0.37883 0.23175 0.0
H318 H 0.09548 0.4619 0.37283 0.0
H319 H 0.08002 0.47939 0.51495 0.0
C320 C 0.85943 0.03414 0.13917 0.0
C321 C 0.86358 0.01692 0.25685 0.0
C322 C 0.92148 0.99644 0.18369 0.0
C323 C 0.91901 1.01685 0.07149 0.0
N324 N 0.88657 0.05848 0.94973 0.0
N325 N 0.89944 0.98347 0.39605 0.0
C326 C 0.88808 0.03637 0.05081 0.0
C327 C 0.89488 0.99858 0.28034 0.0
N328 N 0.82776 0.04791 0.11056 0.0
N329 N 0.94841 0.97354 0.19511 0.0
H330 H 0.88014 0.9832 0.46676 0.0
H331 H 0.92312 0.97352 0.4255 0.0
H332 H 0.96754 0.97029 0.12495 0.0
H333 H 0.9501 0.95537 0.26787 0.0
H334 H 0.82159 0.05719 0.02112 0.0
H335 H 0.80656 0.04742 0.1736 0.0
H336 H 0.86682 0.0766 0.93778 0.0
H337 H 0.90658 0.06094 0.88263 0.0
C338 C 0.5468 0.88397 0.16012 0.0
C339 C 0.51483 0.86919 0.20311 0.0
C340 C 0.48286 0.91212 0.07567 0.0
C341 C 0.51486 0.92693 0.0319 0.0
N342 N 0.57727 0.92358 0.0162 0.0
N343 N 0.45267 0.86517 0.18762 0.0
C344 C 0.5468 0.9115 0.0682 0.0
C345 C 0.48294 0.88205 0.15607 0.0
N346 N 0.57715 0.87261 0.21125 0.0
N347 N 0.45227 0.92714 0.04109 0.0
H348 H 0.45177 0.84359 0.24749 0.0
H349 H 0.42866 0.87081 0.14905 0.0
H350 H 0.45124 0.94845 0.98074 0.0
H351 H 0.42789 0.91994 0.07607 0.0
H352 H 0.60114 0.88444 0.19524 0.0
H353 H 0.57809 0.85228 0.27658 0.0
H354 H 0.60117 0.91134 0.02625 0.0
H355 H 0.57849 0.94556 0.95863 0.0
C356 C 0.65443 0.5031 0.1561 0.0
C357 C 0.67137 0.5355 0.17255 0.0
C358 C 0.62837 0.56358 0.03454 0.0
C359 C 0.61142 0.53117 0.0166 0.0
N360 N 0.61099 0.4692 0.04581 0.0
N361 N 0.67866 0.5952 0.11 0.0
C362 C 0.62534 0.50065 0.07332 0.0
C363 C 0.65967 0.56525 0.10572 0.0
N364 N 0.66604 0.47474 0.22121 0.0
N365 N 0.613 0.59324 0.99171 0.0
H366 H 0.7011 0.59754 0.16323 0.0
H367 H 0.67393 0.61684 0.0537 0.0
H368 H 0.5887 0.59315 0.95015 0.0
H369 H 0.62204 0.61814 1.00967 0.0
H370 H 0.65464 0.45034 0.21912 0.0
H371 H 0.68703 0.47571 0.28207 0.0
H372 H 0.62131 0.44538 0.07231 0.0
H373 H 0.58929 0.46672 0.98935 0.0
C374 C 0.99548 0.63808 0.2554 0.0
C375 C 1.00038 0.67202 0.2047 0.0
C376 C 1.00456 0.64648 0.99108 0.0
C377 C 1.00517 0.61225 0.04334 0.0
N378 N 1.00612 0.57632 0.23121 0.0
N379 N 1.01248 0.70835 0.02349 0.0
C380 C 1.00171 0.60827 0.17724 0.0
C381 C 1.00601 0.67609 0.07238 0.0
N382 N 0.98425 0.63424 0.37805 0.0
N383 N 0.99996 0.65089 0.86413 0.0
H384 H 1.01166 0.73073 0.07857 0.0
H385 H 0.02096 0.71257 0.93049 0.0
H386 H 0.99539 0.63027 0.80321 0.0
H387 H 0.99626 0.67503 0.82179 0.0
H388 H 0.97565 0.61065 0.41562 0.0
H389 H 0.9806 0.65519 0.43915 0.0
H390 H 1.00525 0.57189 0.3283 0.0
H391 H 1.0139 0.55449 0.18027 0.0
C392 C 0.95778 0.22948 0.53789 0.0
C393 C 0.94694 0.24555 0.42567 0.0
C394 C 0.89066 0.21682 0.44404 0.0
C395 C 0.90589 0.19322 0.52902 0.0
N396 N 0.95059 0.18042 0.67932 0.0
N397 N 0.90079 0.26341 0.29121 0.0
C398 C 0.93777 0.20156 0.58744 0.0
C399 C 0.91199 0.24292 0.38782 0.0
N400 N 0.98802 0.23984 0.59143 0.0
N401 N 0.85688 0.21208 0.41143 0.0
H402 H 0.91658 0.28286 0.25191 0.0
H403 H 0.87642 0.26144 0.25096 0.0
H404 H 0.84182 0.19236 0.45282 0.0
H405 H 0.84343 0.22841 0.35093 0.0
H406 H 0.9966 0.23081 0.67837 0.0
H407 H 1.00289 0.26006 0.55286 0.0
H408 H 0.97589 0.18189 0.71184 0.0
H409 H 0.93588 0.16076 0.72176 0.0
C410 C 0.30155 0.97128 0.47771 0.0
C411 C 0.28334 0.95478 0.38081 0.0
C412 C 0.32332 0.90558 0.39011 0.0
C413 C 0.34645 0.92713 0.45686 0.0
N414 N 0.35562 0.98133 0.57118 0.0
N415 N 0.26989 0.90291 0.26935 0.0
C416 C 0.33471 0.95939 0.50662 0.0
C417 C 0.29137 0.92007 0.34893 0.0
N418 N 0.29013 1.00153 0.52964 0.0
N419 N 0.33293 0.87238 0.3616 0.0
H420 H 0.24656 0.9141 0.2406 0.0
H421 H 0.27488 0.87838 0.23252 0.0
H422 H 0.35644 0.86194 0.39157 0.0
H423 H 0.31713 0.85478 0.31549 0.0
H424 H 0.26595 1.01234 0.50979 0.0
H425 H 0.26595 1.01234 0.50979 0.0
H426 H 0.38164 0.97639 0.59027 0.0
H427 H 0.38164 0.97639 0.59027 0.0
C428 C 0.57709 0.30767 0.4889 0.0
C429 C 0.58878 0.29342 0.37378 0.0
C430 C 0.635 0.33668 0.36272 0.0
C431 C 0.61471 0.35728 0.44675 0.0
N432 N 0.56459 0.36227 0.58863 0.0
N433 N 0.63506 0.28644 0.22282 0.0
C434 C 0.58599 0.34239 0.51412 0.0
C435 C 0.62095 0.30457 0.32155 0.0
N436 N 0.55448 0.28955 0.56467 0.0
N437 N 0.66607 0.34901 0.31744 0.0
H438 H 0.62386 0.26318 0.19342 0.0
H439 H 0.65682 0.29442 0.17044 0.0
H440 H 0.67597 0.37282 0.347 0.0
H441 H 0.68279 0.33487 0.25871 0.0
H442 H 0.5457 0.29861 0.65239 0.0
H443 H 0.54771 0.26399 0.54458 0.0
H444 H 0.54099 0.35324 0.62595 0.0
H445 H 0.56887 0.38851 0.60511 0.0
C446 C 0.23028 0.63759 0.34718 0.0
C447 C 0.23666 0.60574 0.40973 0.0
C448 C 0.19506 0.62035 0.57594 0.0
C449 C 0.1826 0.64751 0.49742 0.0
N450 N 0.19616 0.69098 0.34258 0.0
N451 N 0.23863 0.57598 0.60934 0.0
C452 C 0.20391 0.65985 0.39676 0.0
C453 C 0.22404 0.60066 0.53417 0.0
N454 N 0.2471 0.64434 0.23507 0.0
N455 N 0.17663 0.61039 0.68109 0.0
H456 H 0.25982 0.56113 0.57916 0.0
H457 H 0.2321 0.57281 0.70483 0.0
H458 H 0.15833 0.62634 0.725 0.0
H459 H 0.17937 0.58603 0.72271 0.0
H460 H 0.24171 0.66552 0.17734 0.0
H461 H 0.26659 0.62785 0.2003 0.0
H462 H 0.21085 0.70234 0.26985 0.0
H463 H 0.17582 0.70626 0.37843 0.0
C464 C 0.12068 0.81758 0.29632 0.0
C465 C 0.09029 0.80712 0.23246 0.0
C466 C 0.11156 0.83804 0.04548 0.0
C467 C 0.13154 0.85894 0.1251 0.0
N468 N 0.16633 0.8614 0.30904 0.0
N469 N 0.05956 0.8033 0.03526 0.0
C470 C 0.14105 0.84505 0.24323 0.0
C471 C 0.08716 0.81498 0.10196 0.0
N472 N 0.12793 0.80303 0.41062 0.0
N473 N 0.1153 0.84105 0.9178 0.0
H474 H 0.04109 0.78634 0.07342 0.0
H475 H 0.05439 0.81183 0.94379 0.0
H476 H 0.13374 0.85762 0.87663 0.0
H477 H 0.10353 0.82392 0.85588 0.0
H478 H 0.15002 0.80878 0.46181 0.0
H479 H 0.11247 0.78322 0.44929 0.0
H480 H 0.17293 0.85511 0.40133 0.0
H481 H 0.18033 0.88199 0.26839 0.0
C482 C 0.68821 0.94258 0.27363 0.0
C483 C 0.71135 0.96853 0.23023 0.0
C484 C 0.66474 0.99362 0.11004 0.0
C485 C 0.64127 0.97979 0.20328 0.0
N486 N 0.63057 0.93563 0.36486 0.0
N487 N 0.72565 1.00559 0.05626 0.0
C488 C 0.65221 0.95094 0.27752 0.0
C489 C 0.70095 0.98862 0.1267 0.0
N490 N 0.70128 0.91398 0.33149 0.0
N491 N 0.6522 1.0132 0.01342 0.0
H492 H 0.75204 1.00156 0.07246 0.0
H493 H 0.72028 0.02297 0.98362 0.0
H494 H 0.62552 1.0163 1.00119 0.0
H495 H 0.66775 0.02457 0.94322 0.0
H496 H 0.68575 0.89343 0.36321 0.0
H497 H 0.72813 0.91036 0.33704 0.0
H498 H 0.63902 0.91713 0.42949 0.0
H499 H 0.60481 0.94291 0.37928 0.0
C500 C 0.61223 0.7009 0.26691 0.0
C501 C 0.58718 0.72437 0.2218 0.0
C502 C 0.56212 0.6782 0.10002 0.0
C503 C 0.57425 0.65488 0.19438 0.0
N504 N 0.6191 0.6423 0.34695 0.0
N505 N 0.55904 0.73863 0.02957 0.0
C506 C 0.60355 0.66493 0.26633 0.0
C507 C 0.56984 0.71404 0.11274 0.0
N508 N 0.64024 0.71366 0.32777 0.0
N509 N 0.54076 0.66627 1.00851 0.0
H510 H 0.56521 0.76475 0.04272 0.0
H511 H 0.54631 0.7331 0.94604 0.0
H512 H 0.53612 0.63975 0.99772 0.0
H513 H 0.52768 0.68229 0.94593 0.0
H514 H 0.66026 0.69806 0.36093 0.0
H515 H 0.64396 0.74044 0.33523 0.0
H516 H 0.63792 0.64979 0.41084 0.0
H517 H 0.61233 0.61628 0.35384 0.0
C518 C 0.82139 0.45914 0.04738 0.0
C519 C 0.80512 0.45215 0.16558 0.0
C520 C 0.83343 0.39566 0.17489 0.0
C521 C 0.85623 0.4069 0.07731 0.0
N522 N 0.86078 0.43867 0.8816 0.0
N523 N 0.78749 0.40925 0.32186 0.0
C524 C 0.8458 0.43473 0.99852 0.0
C525 C 0.80746 0.41856 0.21981 0.0
N526 N 0.81547 0.49015 0.98865 0.0
N527 N 0.83941 0.36487 0.23418 0.0
H528 H 0.76814 0.42524 0.36052 0.0
H529 H 0.76814 0.42524 0.36052 0.0
H530 H 0.85932 0.34832 0.20318 0.0
H531 H 0.82416 0.35619 0.31074 0.0
H532 H 0.82923 0.49898 0.90915 0.0
H533 H 0.79673 0.50755 0.02253 0.0
H534 H 0.8544 0.45852 0.8196 0.0
H535 H 0.87725 0.41999 0.84235 0.0
C536 C 0.03829 0.18085 0.02422 0.0
C537 C 1.00655 0.19924 0.04458 0.0
C538 C 0.97502 0.14833 0.96368 0.0
C539 C 1.00667 0.13088 0.93214 0.0
N540 N 0.06892 0.13625 0.90407 0.0
N541 N 0.94606 0.20368 0.99206 0.0
C542 C 0.03849 0.1489 0.95378 0.0
C543 C 0.9755 0.18404 0.99925 0.0
N544 N 0.06809 0.19273 0.07687 0.0
N545 N 0.94446 0.13038 0.97026 0.0
H546 H 0.94574 0.23004 0.01463 0.0
H547 H 0.9234 0.19472 0.95066 0.0
H548 H 0.94324 0.10359 0.96004 0.0
H549 H 0.92123 0.14137 1.00293 0.0
H550 H 0.09105 0.17838 0.07744 0.0
H551 H 0.06913 0.21568 0.12847 0.0
H552 H 0.09231 0.14982 0.90728 0.0
H553 H 0.07006 0.11418 0.84745 0.0
C554 C 0.33769 0.99521 0.92181 0.0
C555 C 0.32629 0.02017 0.01115 0.0
C556 C 0.38648 0.04204 0.02155 0.0
C557 C 0.39855 0.0177 0.92762 0.0
N558 N 0.38507 0.96103 0.83791 0.0
N559 N 0.33811 0.07256 0.12302 0.0
C560 C 0.37398 0.99167 0.88942 0.0
C561 C 0.35015 0.04545 0.05186 0.0
N562 N 0.31333 0.97451 0.86768 0.0
N563 N 0.40981 0.05794 0.09784 0.0
H564 H 0.31191 0.07521 0.1485 0.0
H565 H 0.35322 0.0941 0.14452 0.0
H566 H 0.43533 0.04949 0.10428 0.0
H567 H 0.40282 0.07424 0.17241 0.0
H568 H 0.31869 0.95807 0.79181 0.0
H569 H 0.28688 0.97672 0.8903 0.0
H570 H 0.36864 0.94005 0.82283 0.0
H571 H 0.41077 0.95374 0.82553 0.0
C572 C 0.49068 0.37271 0.10312 0.0
C573 C 0.51347 0.3468 0.05563 0.0
C574 C 0.54152 0.39107 0.91629 0.0
C575 C 0.51722 0.41723 0.95832 0.0
N576 N 0.48239 0.43378 0.14118 0.0
N577 N 0.55614 0.32959 0.90073 0.0
C578 C 0.49497 0.40818 0.064 0.0
C579 C 0.53722 0.35562 0.9564 0.0
N580 N 0.46522 0.36367 0.18878 0.0
N581 N 0.57148 0.40011 0.8527 0.0
H582 H 0.55307 0.30359 0.92682 0.0
H583 H 0.57231 0.33305 0.82171 0.0
H584 H 0.57961 0.4253 0.83541 0.0
H585 H 0.59167 0.38279 0.83386 0.0
H586 H 0.44514 0.38035 0.21602 0.0
H587 H 0.46215 0.33844 0.22296 0.0
H588 H 0.46802 0.42919 0.22402 0.0
H589 H 0.49209 0.4589 0.137 0.0
C590 C 0.17491 0.55641 1.01003 0.0
C591 C 0.18602 0.52839 0.08817 0.0
C592 C 0.13453 0.49524 0.01872 0.0
C593 C 0.12129 0.52498 0.95473 0.0
N594 N 0.12625 0.58655 0.91713 0.0
N595 N 0.17204 0.47294 0.18284 0.0
C596 C 0.14088 0.55626 0.95739 0.0
C597 C 0.16479 0.49812 0.09601 0.0
N598 N 0.19714 0.58342 0.98604 0.0
N599 N 0.11849 0.46392 1.00435 0.0
H600 H 0.19323 0.47421 0.24249 0.0
H601 H 0.15535 0.45231 0.20343 0.0
H602 H 0.09676 0.46071 0.94804 0.0
H603 H 0.12863 0.44068 0.03821 0.0
H604 H 0.19117 0.60455 0.92896 0.0
H605 H 0.22294 0.58326 0.01481 0.0
H606 H 0.13705 0.6108 0.93473 0.0
H607 H 0.10171 0.58786 0.87754 0.0
C608 C 0.0324 0.86211 0.64677 0.0
C609 C 1.00751 0.85103 0.55732 0.0
C610 C 0.97403 0.9045 0.6045 0.0
C611 C 1.00179 0.91789 0.67766 0.0
N612 N 0.05879 0.90798 0.76516 0.0
N613 N 0.95585 0.8644 0.44158 0.0
C614 C 0.03107 0.89615 0.69891 0.0
C615 C 0.97841 0.87282 0.53475 0.0
N616 N 0.05891 0.8409 0.68107 0.0
N617 N 0.9428 0.92138 0.60546 0.0
H618 H 0.95772 0.8414 0.39026 0.0
H619 H 0.93684 0.88132 0.40921 0.0
H620 H 0.93801 0.94349 0.65974 0.0
H621 H 0.92061 0.9114 0.56399 0.0
H622 H 0.06166 0.81524 0.65105 0.0
H623 H 0.06166 0.81524 0.65105 0.0
H624 H 0.08075 0.89279 0.78086 0.0
H625 H 0.06091 0.93322 0.79867 0.0
C626 C 0.67187 0.99045 0.6878 0.0
C627 C 0.68734 0.02137 0.63943 0.0
C628 C 0.63367 0.05283 0.70203 0.0
C629 C 0.61613 0.02076 0.72441 0.0
N630 N 0.61859 0.95827 0.72814 0.0
N631 N 0.68261 0.08249 0.59937 0.0
C632 C 0.63538 0.98935 0.7158 0.0
C633 C 0.66829 0.05287 0.64853 0.0
N634 N 0.69221 0.96175 0.70242 0.0
N635 N 0.61722 0.08323 0.73133 0.0
H636 H 0.70819 0.08335 0.56481 0.0
H637 H 0.66878 0.1055 0.58795 0.0
H638 H 0.59206 0.08398 0.76988 0.0
H639 H 0.62946 0.10731 0.7274 0.0
H640 H 0.68353 0.93905 0.74651 0.0
H641 H 0.71886 0.96221 0.68159 0.0
H642 H 0.63046 0.93448 0.70989 0.0
H643 H 0.59194 0.95642 0.74633 0.0
C644 C 0.48802 0.67865 0.60279 0.0
C645 C 0.51904 0.69858 0.60957 0.0
C646 C 0.54806 0.64859 0.70862 0.0
C647 C 0.51685 0.62904 0.70695 0.0
N648 N 0.45481 0.62902 0.68137 0.0
N649 N 0.57461 0.70573 0.70598 0.0
C650 C 0.48602 0.64533 0.66385 0.0
C651 C 0.54744 0.68462 0.67721 0.0
N652 N 0.46122 0.69047 0.5318 0.0
N653 N 0.57885 0.63237 0.73142 0.0
H654 H 0.57461 0.73212 0.68302 0.0
H655 H 0.59488 0.69789 0.76354 0.0
H656 H 0.58058 0.60561 0.74464 0.0
H657 H 0.60285 0.64476 0.72315 0.0
H658 H 0.4398 0.67527 0.50972 0.0
H659 H 0.46143 0.71492 0.48924 0.0
H660 H 0.43109 0.64067 0.66146 0.0
H661 H 0.45257 0.60499 0.72676 0.0
C662 C 0.86418 0.55305 0.55028 0.0
C663 C 0.84864 0.52037 0.52289 0.0
C664 C 0.90027 0.4918 0.61074 0.0
C665 C 0.91412 0.5239 0.65224 0.0
N666 N 0.9032 0.58495 0.68589 0.0
N667 N 0.84834 0.45886 0.56834 0.0
C668 C 0.89417 0.55452 0.6297 0.0
C669 C 0.8654 0.48994 0.56846 0.0
N670 N 0.85194 0.58259 0.49521 0.0
N671 N 0.92131 0.46356 0.59889 0.0
H672 H 0.82213 0.4568 0.54571 0.0
H673 H 0.8591 0.43607 0.60393 0.0
H674 H 0.94802 0.46558 0.60901 0.0
H675 H 0.91321 0.44025 0.5593 0.0
H676 H 0.86457 0.60643 0.50158 0.0
H677 H 0.83117 0.5827 0.43352 0.0
H678 H 0.88795 0.60727 0.68127 0.0
H679 H 0.92372 0.58678 0.74856 0.0
loop_
_geom_bond_atom_site_label_1
_geom_bond_atom_site_label_2
_geom_bond_distance
_geom_bond_site_symmetry_2
_ccdc_geom_bond_type
H0 C3 0.929 . S
H1 C6 0.929 . S
H2 C8 0.930 . S
C3 H0 0.929 . S
C3 C4 1.398 . S
C3 C5 1.396 . S
C4 C3 1.398 . S
C4 C8 1.407 . S
C5 C3 1.396 . S
C5 C6 1.394 . S
C6 H1 0.929 . S
C6 C5 1.394 . S
C6 C7 1.382 . S
C7 C6 1.382 . S
C7 C8 1.392 . S
C7 N9 1.420 . S
C8 H2 0.930 . S
C8 C4 1.407 . S
C8 C7 1.392 . S
N9 C7 1.420 . S
N9 C10 1.244 . S
C10 N9 1.244 . S
H11 C14 0.929 . S
H12 C17 0.929 . S
H13 C19 0.930 . S
C14 H11 0.929 . S
C14 C15 1.395 1_655 S
C14 C16 1.394 1_655 S
C15 C14 1.395 1_455 S
C15 C19 1.414 . S
C16 C14 1.394 1_455 S
C16 C17 1.397 . S
C17 H12 0.929 . S
C17 C16 1.397 . S
C17 C18 1.382 . S
C18 C17 1.382 . S
C18 C19 1.392 . S
C18 N20 1.420 . S
C19 H13 0.930 . S
C19 C15 1.414 . S
C19 C18 1.392 . S
N20 C18 1.420 . S
N20 C21 1.232 1_455 S
C21 N20 1.232 1_655 S
H22 C25 0.929 . S
H23 C28 0.929 . S
H24 C30 0.930 . S
C25 H22 0.929 . S
C25 C26 1.395 1_565 S
C25 C27 1.395 1_565 S
C26 C25 1.395 1_545 S
C26 C30 1.414 . S
C27 C25 1.395 1_545 S
C27 C28 1.397 . S
C28 H23 0.929 . S
C28 C27 1.397 . S
C28 C29 1.382 . S
C29 C28 1.382 . S
C29 C30 1.392 . S
C29 N31 1.420 . S
C30 H24 0.930 . S
C30 C26 1.414 . S
C30 C29 1.392 . S
N31 C29 1.420 . S
N31 C32 1.231 1_545 S
C32 N31 1.231 1_565 S
H33 C36 0.929 . S
H34 C39 0.929 . S
H35 C41 0.930 . S
C36 H33 0.929 . S
C36 C37 1.398 . S
C36 C38 1.396 . S
C37 C36 1.398 . S
C37 C41 1.407 . S
C38 C36 1.396 . S
C38 C39 1.394 . S
C39 H34 0.929 . S
C39 C38 1.394 . S
C39 C40 1.382 . S
C40 C39 1.382 . S
C40 C41 1.392 . S
C40 N42 1.420 . S
C41 H35 0.930 . S
C41 C37 1.407 . S
C41 C40 1.392 . S
N42 C40 1.420 . S
N42 C43 1.244 . S
C43 N42 1.244 . S
H44 C47 0.929 . S
H45 C50 0.929 . S
H46 C52 0.930 . S
C47 H44 0.929 . S
C47 C48 1.398 1_554 S
C47 C49 1.396 . S
C48 C47 1.398 1_556 S
C48 C52 1.407 . S
C49 C47 1.396 . S
C49 C50 1.394 . S
C50 H45 0.929 . S
C50 C49 1.394 . S
C50 C51 1.382 . S
C51 C50 1.382 . S
C51 C52 1.392 1_554 S
C51 N53 1.420 . S
C52 H46 0.930 . S
C52 C48 1.407 . S
C52 C51 1.392 1_556 S
N53 C51 1.420 . S
N53 C54 1.244 . S
C54 N53 1.244 . S
H55 C58 0.929 . S
H56 C61 0.929 . S
H57 C63 0.930 . S
C58 H55 0.929 . S
C58 C59 1.398 1_654 S
C58 C60 1.394 1_655 S
C59 C58 1.398 1_456 S
C59 C63 1.407 . S
C60 C58 1.394 1_455 S
C60 C61 1.398 . S
C61 H56 0.929 . S
C61 C60 1.398 . S
C61 C62 1.382 . S
C62 C61 1.382 . S
C62 C63 1.392 1_554 S
C62 N64 1.420 . S
C63 H57 0.930 . S
C63 C59 1.407 . S
C63 C62 1.392 1_556 S
N64 C62 1.420 . S
N64 C65 1.235 1_455 S
C65 N64 1.235 1_655 S
H66 C69 0.929 . S
H67 C72 0.929 . S
H68 C74 0.930 . S
C69 H66 0.929 . S
C69 C70 1.398 1_564 S
C69 C71 1.393 1_565 S
C70 C69 1.398 1_546 S
C70 C74 1.407 . S
C71 C69 1.393 1_545 S
C71 C72 1.398 . S
C72 H67 0.929 . S
C72 C71 1.398 . S
C72 C73 1.382 . S
C73 C72 1.382 . S
C73 C74 1.392 1_554 S
C73 N75 1.420 . S
C74 H68 0.930 . S
C74 C70 1.407 . S
C74 C73 1.392 1_556 S
N75 C73 1.420 . S
N75 C76 1.235 1_545 S
C76 N75 1.235 1_565 S
H77 C80 0.929 . S
H78 C83 0.929 . S
H79 C85 0.930 . S
C80 H77 0.929 . S
C80 C81 1.398 1_554 S
C80 C82 1.396 . S
C81 C80 1.398 1_556 S
C81 C85 1.407 . S
C82 C80 1.396 . S
C82 C83 1.394 . S
C83 H78 0.929 . S
C83 C82 1.394 . S
C83 C84 1.382 . S
C84 C83 1.382 . S
C84 C85 1.392 1_554 S
C84 N86 1.420 . S
C85 H79 0.930 . S
C85 C81 1.407 . S
C85 C84 1.392 1_556 S
N86 C84 1.420 . S
N86 C87 1.244 . S
C87 N86 1.244 . S
Tb88 C98 2.825 1_556 S
Tb88 O99 2.347 1_455 S
Tb88 O102 2.366 . S
Tb88 O107 2.418 . S
Tb88 O108 2.384 1_565 S
Tb88 O111 2.479 1_556 S
Tb88 O112 2.471 1_556 S
Eu89 O100 2.418 . S
Eu89 O101 2.384 1_545 S
Eu89 O104 2.479 . S
Eu89 O105 2.471 . S
Eu89 O106 2.347 1_655 S
Eu89 O109 2.366 . S
Eu89 C119 2.825 . S
C90 O106 1.259 1_565 S
C90 O107 1.265 . S
C91 O108 1.255 . S
C91 O109 1.265 1_455 S
C92 C94 1.380 . S
C92 C95 1.374 . S
C92 C98 1.507 . S
C93 C94 1.384 . S
C93 C97 1.387 . S
C93 H120 0.930 . S
C94 C92 1.380 . S
C94 C93 1.384 . S
C94 H121 0.931 . S
C95 C92 1.374 . S
C95 C96 1.390 . S
C95 H122 0.930 1_455 S
C96 C95 1.390 . S
C96 C97 1.391 . S
C96 H123 0.930 1_455 S
C97 C93 1.387 . S
C97 C96 1.391 . S
C98 Tb88 2.825 1_554 S
C98 C92 1.507 . S
C98 O111 1.238 . S
C98 O112 1.247 . S
O99 Tb88 2.347 1_655 S
O99 C103 1.259 1_565 S
O100 Eu89 2.418 . S
O100 C103 1.265 . S
O101 Eu89 2.384 1_565 S
O101 C110 1.255 . S
O102 Tb88 2.366 . S
O102 C110 1.265 1_455 S
C103 O99 1.259 1_545 S
C103 O100 1.265 . S
O104 Eu89 2.479 . S
O104 C119 1.238 . S
O105 Eu89 2.471 . S
O105 C119 1.247 . S
O106 Eu89 2.347 1_455 S
O106 C90 1.259 1_545 S
O107 Tb88 2.418 . S
O107 C90 1.265 . S
O108 Tb88 2.384 1_545 S
O108 C91 1.255 . S
O109 Eu89 2.366 . S
O109 C91 1.265 1_655 S
C110 O101 1.255 . S
C110 O102 1.265 1_655 S
O111 Tb88 2.479 1_554 S
O111 C98 1.238 . S
O112 Tb88 2.471 1_554 S
O112 C98 1.247 . S
C113 C116 1.380 . S
C113 C117 1.374 . S
C113 C119 1.507 . S
C114 C115 1.387 . S
C114 C118 1.391 . S
C115 C114 1.387 . S
C115 C116 1.384 . S
C115 H124 0.930 . S
C116 C113 1.380 . S
C116 C115 1.384 . S
C116 H125 0.931 . S
C117 C113 1.374 . S
C117 C118 1.390 . S
C117 H126 0.930 1_655 S
C118 C114 1.391 . S
C118 C117 1.390 . S
C118 H127 0.930 1_655 S
C119 Eu89 2.825 . S
C119 O104 1.238 . S
C119 O105 1.247 . S
C119 C113 1.507 . S
H120 C93 0.930 . S
H121 C94 0.931 . S
H122 C95 0.930 1_655 S
H123 C96 0.930 1_655 S
H124 C115 0.930 . S
H125 C116 0.931 . S
H126 C117 0.930 1_455 S
H127 C118 0.930 1_455 S
Tb128 C138 2.825 1_556 S
Tb128 O139 2.347 1_545 S
Tb128 O142 2.366 . S
Tb128 O147 2.418 . S
Tb128 O148 2.384 . S
Tb128 O151 2.479 1_556 S
Tb128 O152 2.471 1_556 S
Eu129 O140 2.418 . S
Eu129 O141 2.384 . S
Eu129 O144 2.479 . S
Eu129 O145 2.471 . S
Eu129 O146 2.347 1_565 S
Eu129 O149 2.366 . S
Eu129 C159 2.825 . S
C130 O146 1.259 . S
C130 O147 1.265 . S
C131 O148 1.255 . S
C131 O149 1.265 1_545 S
C132 C134 1.380 . S
C132 C135 1.374 . S
C132 C138 1.507 . S
C133 C134 1.384 . S
C133 C137 1.387 . S
C133 H160 0.930 . S
C134 C132 1.380 . S
C134 C133 1.384 . S
C134 H161 0.931 . S
C135 C132 1.374 . S
C135 C136 1.390 . S
C135 H162 0.930 1_545 S
C136 C135 1.390 . S
C136 C137 1.391 . S
C136 H163 0.930 1_545 S
C137 C133 1.387 . S
C137 C136 1.391 . S
C138 Tb128 2.825 1_554 S
C138 C132 1.507 . S
C138 O151 1.238 . S
C138 O152 1.247 . S
O139 Tb128 2.347 1_565 S
O139 C143 1.259 . S
O140 Eu129 2.418 . S
O140 C143 1.265 . S
O141 Eu129 2.384 . S
O141 C150 1.255 . S
O142 Tb128 2.366 . S
O142 C150 1.265 1_545 S
C143 O139 1.259 . S
C143 O140 1.265 . S
O144 Eu129 2.479 . S
O144 C159 1.238 . S
O145 Eu129 2.471 . S
O145 C159 1.247 . S
O146 Eu129 2.347 1_545 S
O146 C130 1.259 . S
O147 Tb128 2.418 . S
O147 C130 1.265 . S
O148 Tb128 2.384 . S
O148 C131 1.255 . S
O149 Eu129 2.366 . S
O149 C131 1.265 1_565 S
C150 O141 1.255 . S
C150 O142 1.265 1_565 S
O151 Tb128 2.479 1_554 S
O151 C138 1.238 . S
O152 Tb128 2.471 1_554 S
O152 C138 1.247 . S
C153 C156 1.380 . S
C153 C157 1.374 . S
C153 C159 1.507 . S
C154 C155 1.387 . S
C154 C158 1.391 . S
C155 C154 1.387 . S
C155 C156 1.384 . S
C155 H164 0.930 . S
C156 C153 1.380 . S
C156 C155 1.384 . S
C156 H165 0.931 . S
C157 C153 1.374 . S
C157 C158 1.390 . S
C157 H166 0.930 1_565 S
C158 C154 1.391 . S
C158 C157 1.390 . S
C158 H167 0.930 1_565 S
C159 Eu129 2.825 . S
C159 O144 1.238 . S
C159 O145 1.247 . S
C159 C153 1.507 . S
H160 C133 0.930 . S
H161 C134 0.931 . S
H162 C135 0.930 1_565 S
H163 C136 0.930 1_565 S
H164 C155 0.930 . S
H165 C156 0.931 . S
H166 C157 0.930 1_545 S
H167 C158 0.930 1_545 S
Tb168 C178 2.825 1_556 S
Tb168 O179 2.347 . S
Tb168 O182 2.366 . S
Tb168 O187 2.418 . S
Tb168 O188 2.384 . S
Tb168 O191 2.479 1_556 S
Tb168 O192 2.471 1_556 S
Eu169 O180 2.418 . S
Eu169 O181 2.384 . S
Eu169 O184 2.479 . S
Eu169 O185 2.471 . S
Eu169 O186 2.347 . S
Eu169 O189 2.366 . S
Eu169 C199 2.825 . S
C170 O186 1.259 . S
C170 O187 1.265 . S
C171 O188 1.255 . S
C171 O189 1.265 . S
C172 C174 1.380 . S
C172 C175 1.374 . S
C172 C178 1.507 . S
C173 C174 1.384 . S
C173 C177 1.387 . S
C173 H200 0.930 . S
C174 C172 1.380 . S
C174 C173 1.384 . S
C174 H201 0.931 . S
C175 C172 1.374 . S
C175 C176 1.390 . S
C175 H202 0.930 . S
C176 C175 1.390 . S
C176 C177 1.391 . S
C176 H203 0.930 . S
C177 C173 1.387 . S
C177 C176 1.391 . S
C178 Tb168 2.825 1_554 S
C178 C172 1.507 . S
C178 O191 1.238 . S
C178 O192 1.247 . S
O179 Tb168 2.347 . S
O179 C183 1.259 . S
O180 Eu169 2.418 . S
O180 C183 1.265 . S
O181 Eu169 2.384 . S
O181 C190 1.255 . S
O182 Tb168 2.366 . S
O182 C190 1.265 . S
C183 O179 1.259 . S
C183 O180 1.265 . S
O184 Eu169 2.479 . S
O184 C199 1.238 . S
O185 Eu169 2.471 . S
O185 C199 1.247 . S
O186 Eu169 2.347 . S
O186 C170 1.259 . S
O187 Tb168 2.418 . S
O187 C170 1.265 . S
O188 Tb168 2.384 . S
O188 C171 1.255 . S
O189 Eu169 2.366 . S
O189 C171 1.265 . S
C190 O181 1.255 . S
C190 O182 1.265 . S
O191 Tb168 2.479 1_554 S
O191 C178 1.238 . S
O192 Tb168 2.471 1_554 S
O192 C178 1.247 . S
C193 C196 1.380 . S
C193 C197 1.374 . S
C193 C199 1.507 . S
C194 C195 1.387 . S
C194 C198 1.391 . S
C195 C194 1.387 . S
C195 C196 1.384 . S
C195 H204 0.930 . S
C196 C193 1.380 . S
C196 C195 1.384 . S
C196 H205 0.931 . S
C197 C193 1.374 . S
C197 C198 1.390 . S
C197 H206 0.930 . S
C198 C194 1.391 . S
C198 C197 1.390 . S
C198 H207 0.930 . S
C199 Eu169 2.825 . S
C199 O184 1.238 . S
C199 O185 1.247 . S
C199 C193 1.507 . S
H200 C173 0.930 . S
H201 C174 0.931 . S
H202 C175 0.930 . S
H203 C176 0.930 . S
H204 C195 0.930 . S
H205 C196 0.931 . S
H206 C197 0.930 . S
H207 C198 0.930 . S
Tb208 C218 2.825 1_556 S
Tb208 O219 2.347 . S
Tb208 O222 2.366 . S
Tb208 O227 2.418 . S
Tb208 O228 2.384 1_655 S
Tb208 O231 2.479 1_556 S
Tb208 O232 2.471 1_556 S
Eu209 O220 2.418 . S
Eu209 O221 2.384 1_455 S
Eu209 O224 2.479 . S
Eu209 O225 2.471 . S
Eu209 O226 2.347 . S
Eu209 O229 2.366 . S
Eu209 C239 2.825 . S
C210 O226 1.259 1_655 S
C210 O227 1.265 . S
C211 O228 1.255 . S
C211 O229 1.265 . S
C212 C214 1.380 . S
C212 C215 1.374 . S
C212 C218 1.507 . S
C213 C214 1.384 . S
C213 C217 1.387 . S
C213 H240 0.930 . S
C214 C212 1.380 . S
C214 C213 1.384 . S
C214 H241 0.931 . S
C215 C212 1.374 . S
C215 C216 1.390 . S
C215 H242 0.930 . S
C216 C215 1.390 . S
C216 C217 1.391 . S
C216 H243 0.930 . S
C217 C213 1.387 . S
C217 C216 1.391 . S
C218 Tb208 2.825 1_554 S
C218 C212 1.507 . S
C218 O231 1.238 . S
C218 O232 1.247 . S
O219 Tb208 2.347 . S
O219 C223 1.259 1_655 S
O220 Eu209 2.418 . S
O220 C223 1.265 . S
O221 Eu209 2.384 1_655 S
O221 C230 1.255 . S
O222 Tb208 2.366 . S
O222 C230 1.265 . S
C223 O219 1.259 1_455 S
C223 O220 1.265 . S
O224 Eu209 2.479 . S
O224 C239 1.238 . S
O225 Eu209 2.471 . S
O225 C239 1.247 . S
O226 Eu209 2.347 . S
O226 C210 1.259 1_455 S
O227 Tb208 2.418 . S
O227 C210 1.265 . S
O228 Tb208 2.384 1_455 S
O228 C211 1.255 . S
O229 Eu209 2.366 . S
O229 C211 1.265 . S
C230 O221 1.255 . S
C230 O222 1.265 . S
O231 Tb208 2.479 1_554 S
O231 C218 1.238 . S
O232 Tb208 2.471 1_554 S
O232 C218 1.247 . S
C233 C236 1.380 . S
C233 C237 1.374 . S
C233 C239 1.507 . S
C234 C235 1.387 . S
C234 C238 1.391 . S
C235 C234 1.387 . S
C235 C236 1.384 . S
C235 H244 0.930 . S
C236 C233 1.380 . S
C236 C235 1.384 . S
C236 H245 0.931 . S
C237 C233 1.374 . S
C237 C238 1.390 . S
C237 H246 0.930 . S
C238 C234 1.391 . S
C238 C237 1.390 . S
C238 H247 0.930 . S
C239 Eu209 2.825 . S
C239 O224 1.238 . S
C239 O225 1.247 . S
C239 C233 1.507 . S
H240 C213 0.930 . S
H241 C214 0.931 . S
H242 C215 0.930 . S
H243 C216 0.930 . S
H244 C235 0.930 . S
H245 C236 0.931 . S
H246 C237 0.930 . S
H247 C238 0.930 . S
C248 C249 1.364 1_545 S
C248 C254 1.379 . S
C248 N256 1.356 . S
C249 C248 1.364 1_565 S
C249 C255 1.362 . S
C250 C251 1.370 . S
C250 C255 1.379 . S
C250 N257 1.356 . S
C251 C250 1.370 . S
C251 C254 1.356 1_565 S
N252 C254 1.356 . S
N252 H264 0.984 . S
N252 H265 0.985 . S
N253 C255 1.356 . S
N253 H258 0.984 . S
N253 H259 0.985 . S
C254 C248 1.379 . S
C254 C251 1.356 1_545 S
C254 N252 1.356 . S
C255 C249 1.362 . S
C255 C250 1.379 . S
C255 N253 1.356 . S
N256 C248 1.356 . S
N256 H262 0.984 . S
N256 H263 0.984 . S
N257 C250 1.356 . S
N257 H260 0.984 . S
N257 H261 0.985 . S
H258 N253 0.984 . S
H259 N253 0.985 . S
H260 N257 0.984 . S
H261 N257 0.985 . S
H262 N256 0.984 . S
H263 N256 0.984 . S
H264 N252 0.984 . S
H265 N252 0.985 . S
C266 C267 1.363 . S
C266 C272 1.379 . S
C266 N274 1.356 . S
C267 C266 1.363 . S
C267 C273 1.363 . S
C268 C269 1.363 . S
C268 C273 1.379 . S
C268 N275 1.356 . S
C269 C268 1.363 . S
C269 C272 1.363 . S
N270 C272 1.356 . S
N270 H282 0.984 . S
N270 H283 0.985 . S
N271 C273 1.356 . S
N271 H276 0.984 . S
N271 H277 0.985 . S
C272 C266 1.379 . S
C272 C269 1.363 . S
C272 N270 1.356 . S
C273 C267 1.363 . S
C273 C268 1.379 . S
C273 N271 1.356 . S
N274 C266 1.356 . S
N274 H280 0.984 . S
N274 H281 0.984 . S
N275 C268 1.356 . S
N275 H278 0.984 . S
N275 H279 0.985 . S
H276 N271 0.984 . S
H277 N271 0.985 . S
H278 N275 0.984 . S
H279 N275 0.985 . S
H280 N274 0.984 . S
H281 N274 0.984 . S
H282 N270 0.984 . S
H283 N270 0.985 . S
C284 C285 1.363 . S
C284 C290 1.379 . S
C284 N292 1.356 . S
C285 C284 1.363 . S
C285 C291 1.363 . S
C286 C287 1.363 . S
C286 C291 1.379 . S
C286 N293 1.356 . S
C287 C286 1.363 . S
C287 C290 1.363 . S
N288 C290 1.356 . S
N288 H300 0.984 . S
N288 H301 0.985 . S
N289 C291 1.356 . S
N289 H294 0.984 . S
N289 H295 0.985 . S
C290 C284 1.379 . S
C290 C287 1.363 . S
C290 N288 1.356 . S
C291 C285 1.363 . S
C291 C286 1.379 . S
C291 N289 1.356 . S
N292 C284 1.356 . S
N292 H298 0.984 . S
N292 H299 0.984 . S
N293 C286 1.356 . S
N293 H296 0.984 . S
N293 H297 0.985 . S
H294 N289 0.984 . S
H295 N289 0.985 . S
H296 N293 0.984 . S
H297 N293 0.985 . S
H298 N292 0.984 . S
H299 N292 0.984 . S
H300 N288 0.984 . S
H301 N288 0.985 . S
C302 C303 1.372 . S
C302 C308 1.379 . S
C302 N310 1.356 . S
C303 C302 1.372 . S
C303 C309 1.355 1_455 S
C304 C305 1.363 1_655 S
C304 C309 1.379 . S
C304 N311 1.356 . S
C305 C304 1.363 1_455 S
C305 C308 1.363 . S
N306 C308 1.356 . S
N306 H318 0.984 . S
N306 H319 0.985 . S
N307 C309 1.356 . S
N307 H312 0.984 . S
N307 H313 0.985 . S
C308 C302 1.379 . S
C308 C305 1.363 . S
C308 N306 1.356 . S
C309 C303 1.355 1_655 S
C309 C304 1.379 . S
C309 N307 1.356 . S
N310 C302 1.356 . S
N310 H316 0.984 . S
N310 H317 0.984 . S
N311 C304 1.356 . S
N311 H314 0.984 . S
N311 H315 0.985 . S
H312 N307 0.984 . S
H313 N307 0.985 . S
H314 N311 0.984 . S
H315 N311 0.985 . S
H316 N310 0.984 . S
H317 N310 0.984 . S
H318 N306 0.984 . S
H319 N306 0.985 . S
C320 C321 1.367 . S
C320 C326 1.379 . S
C320 N328 1.356 . S
C321 C320 1.367 . S
C321 C327 1.359 1_545 S
C322 C323 1.351 1_565 S
C322 C327 1.379 . S
C322 N329 1.356 . S
C323 C322 1.351 1_545 S
C323 C326 1.375 . S
N324 C326 1.356 . S
N324 H336 0.984 . S
N324 H337 0.985 1_554 S
N325 C327 1.356 . S
N325 H330 0.984 . S
N325 H331 0.985 . S
C326 C320 1.379 . S
C326 C323 1.375 . S
C326 N324 1.356 . S
C327 C321 1.359 1_565 S
C327 C322 1.379 . S
C327 N325 1.356 . S
N328 C320 1.356 . S
N328 H334 0.984 . S
N328 H335 0.984 . S
N329 C322 1.356 . S
N329 H332 0.984 . S
N329 H333 0.985 . S
H330 N325 0.984 . S
H331 N325 0.985 . S
H332 N329 0.984 . S
H333 N329 0.985 . S
H334 N328 0.984 . S
H335 N328 0.984 . S
H336 N324 0.984 . S
H337 N324 0.985 1_556 S
C338 C339 1.363 . S
C338 C344 1.379 . S
C338 N346 1.356 . S
C339 C338 1.363 . S
C339 C345 1.363 . S
C340 C341 1.363 . S
C340 C345 1.379 . S
C340 N347 1.356 . S
C341 C340 1.363 . S
C341 C344 1.363 . S
N342 C344 1.356 . S
N342 H354 0.984 . S
N342 H355 0.985 1_554 S
N343 C345 1.356 . S
N343 H348 0.984 . S
N343 H349 0.985 . S
C344 C338 1.379 . S
C344 C341 1.363 . S
C344 N342 1.356 . S
C345 C339 1.363 . S
C345 C340 1.379 . S
C345 N343 1.356 . S
N346 C338 1.356 . S
N346 H352 0.984 . S
N346 H353 0.984 . S
N347 C340 1.356 . S
N347 H350 0.984 . S
N347 H351 0.985 . S
H348 N343 0.984 . S
H349 N343 0.985 . S
H350 N347 0.984 . S
H351 N347 0.985 . S
H352 N346 0.984 . S
H353 N346 0.984 . S
H354 N342 0.984 . S
H355 N342 0.985 1_556 S
C356 C357 1.363 . S
C356 C362 1.379 . S
C356 N364 1.356 . S
C357 C356 1.363 . S
C357 C363 1.363 . S
C358 C359 1.363 . S
C358 C363 1.379 . S
C358 N365 1.356 . S
C359 C358 1.363 . S
C359 C362 1.363 . S
N360 C362 1.356 . S
N360 H372 0.984 . S
N360 H373 0.985 1_554 S
N361 C363 1.356 . S
N361 H366 0.984 . S
N361 H367 0.985 . S
C362 C356 1.379 . S
C362 C359 1.363 . S
C362 N360 1.356 . S
C363 C357 1.363 . S
C363 C358 1.379 . S
C363 N361 1.356 . S
N364 C356 1.356 . S
N364 H370 0.984 . S
N364 H371 0.984 . S
N365 C358 1.356 . S
N365 H368 0.984 . S
N365 H369 0.985 . S
H366 N361 0.984 . S
H367 N361 0.985 . S
H368 N365 0.984 . S
H369 N365 0.985 . S
H370 N364 0.984 . S
H371 N364 0.984 . S
H372 N360 0.984 . S
H373 N360 0.985 1_556 S
C374 C375 1.362 1_455 S
C374 C380 1.379 . S
C374 N382 1.356 . S
C375 C374 1.362 1_655 S
C375 C381 1.364 . S
C376 C377 1.363 . S
C376 C381 1.379 . S
C376 N383 1.356 1_554 S
C377 C376 1.363 . S
C377 C380 1.363 1_655 S
N378 C380 1.356 . S
N378 H390 0.984 . S
N378 H391 0.985 . S
N379 C381 1.356 . S
N379 H384 0.984 . S
N379 H385 0.985 . S
C380 C374 1.379 . S
C380 C377 1.363 1_455 S
C380 N378 1.356 . S
C381 C375 1.364 . S
C381 C376 1.379 . S
C381 N379 1.356 . S
N382 C374 1.356 . S
N382 H388 0.984 . S
N382 H389 0.984 . S
N383 C376 1.356 1_556 S
N383 H386 0.984 . S
N383 H387 0.985 . S
H384 N379 0.984 . S
H385 N379 0.985 . S
H386 N383 0.984 . S
H387 N383 0.985 . S
H388 N382 0.984 . S
H389 N382 0.984 . S
H390 N378 0.984 . S
H391 N378 0.985 . S
C392 C393 1.364 . S
C392 C398 1.379 . S
C392 N400 1.356 1_655 S
C393 C392 1.364 . S
C393 C399 1.370 . S
C394 C395 1.363 . S
C394 C399 1.379 . S
C394 N401 1.356 . S
C395 C394 1.363 . S
C395 C398 1.363 . S
N396 C398 1.356 . S
N396 H408 0.984 . S
N396 H409 0.985 . S
N397 C399 1.356 . S
N397 H402 0.984 1_655 S
N397 H403 0.985 1_554 S
C398 C392 1.379 . S
C398 C395 1.363 . S
C398 N396 1.356 . S
C399 C393 1.370 . S
C399 C394 1.379 . S
C399 N397 1.356 . S
N400 C392 1.356 1_455 S
N400 H406 0.984 . S
N400 H407 0.984 . S
N401 C394 1.356 . S
N401 H404 0.984 . S
N401 H405 0.985 . S
H402 N397 0.984 1_455 S
H403 N397 0.985 1_556 S
H404 N401 0.984 . S
H405 N401 0.985 . S
H406 N400 0.984 . S
H407 N400 0.984 . S
H408 N396 0.984 . S
H409 N396 0.985 . S
C410 C411 1.364 . S
C410 C416 1.379 . S
C410 N418 1.356 1_565 S
C411 C410 1.364 . S
C411 C417 1.367 . S
C412 C413 1.363 . S
C412 C417 1.379 . S
C412 N419 1.356 . S
C413 C412 1.363 . S
C413 C416 1.363 . S
N414 C416 1.356 . S
N414 H426 0.984 . S
N414 H427 0.985 . S
N415 C417 1.356 . S
N415 H420 0.984 1_565 S
N415 H421 0.985 . S
C416 C410 1.379 . S
C416 C413 1.363 . S
C416 N414 1.356 . S
C417 C411 1.367 . S
C417 C412 1.379 . S
C417 N415 1.356 . S
N418 C410 1.356 1_545 S
N418 H424 0.984 1_554 S
N418 H425 0.984 . S
N419 C412 1.356 . S
N419 H422 0.984 . S
N419 H423 0.985 . S
H420 N415 0.984 1_545 S
H421 N415 0.985 . S
H422 N419 0.984 . S
H423 N419 0.985 . S
H424 N418 0.984 1_556 S
H425 N418 0.984 . S
H426 N414 0.984 . S
H427 N414 0.985 . S
C428 C429 1.363 . S
C428 C434 1.379 . S
C428 N436 1.356 . S
C429 C428 1.363 . S
C429 C435 1.363 . S
C430 C431 1.363 . S
C430 C435 1.379 . S
C430 N437 1.356 . S
C431 C430 1.363 . S
C431 C434 1.363 . S
N432 C434 1.356 . S
N432 H444 0.984 . S
N432 H445 0.985 . S
N433 C435 1.356 . S
N433 H438 0.985 . S
N433 H439 0.985 1_554 S
C434 C428 1.379 . S
C434 C431 1.363 . S
C434 N432 1.356 . S
C435 C429 1.363 . S
C435 C430 1.379 . S
C435 N433 1.356 . S
N436 C428 1.356 . S
N436 H442 0.984 . S
N436 H443 0.984 . S
N437 C430 1.356 . S
N437 H440 0.984 . S
N437 H441 0.985 . S
H438 N433 0.985 . S
H439 N433 0.985 1_556 S
H440 N437 0.984 . S
H441 N437 0.985 . S
H442 N436 0.984 . S
H443 N436 0.984 . S
H444 N432 0.984 . S
H445 N432 0.985 . S
C446 C447 1.363 . S
C446 C452 1.379 . S
C446 N454 1.356 . S
C447 C446 1.363 . S
C447 C453 1.363 . S
C448 C449 1.363 . S
C448 C453 1.379 . S
C448 N455 1.356 . S
C449 C448 1.363 . S
C449 C452 1.363 . S
N450 C452 1.356 . S
N450 H462 0.984 . S
N450 H463 0.985 . S
N451 C453 1.356 . S
N451 H456 0.984 . S
N451 H457 0.985 . S
C452 C446 1.379 . S
C452 C449 1.363 . S
C452 N450 1.356 . S
C453 C447 1.363 . S
C453 C448 1.379 . S
C453 N451 1.356 . S
N454 C446 1.356 . S
N454 H460 0.984 . S
N454 H461 0.984 . S
N455 C448 1.356 . S
N455 H458 0.984 . S
N455 H459 0.985 . S
H456 N451 0.984 . S
H457 N451 0.985 . S
H458 N455 0.984 . S
H459 N455 0.985 . S
H460 N454 0.984 . S
H461 N454 0.984 . S
H462 N450 0.984 . S
H463 N450 0.985 . S
C464 C465 1.366 . S
C464 C470 1.379 . S
C464 N472 1.356 1_455 S
C465 C464 1.366 . S
C465 C471 1.368 . S
C466 C467 1.363 . S
C466 C471 1.379 . S
C466 N473 1.356 . S
C467 C466 1.363 . S
C467 C470 1.363 . S
N468 C470 1.356 . S
N468 H480 0.984 . S
N468 H481 0.985 . S
N469 C471 1.344 1_655 S
N469 H474 1.003 . S
N469 H475 0.979 1_655 S
C470 C464 1.379 . S
C470 C467 1.363 . S
C470 N468 1.356 . S
C471 C465 1.368 . S
C471 C466 1.379 . S
C471 N469 1.344 1_455 S
N472 C464 1.356 1_655 S
N472 H478 0.984 . S
N472 H479 0.984 . S
N473 C466 1.356 . S
N473 H476 0.984 . S
N473 H477 0.985 . S
H474 N469 1.003 . S
H475 N469 0.979 1_455 S
H476 N473 0.984 . S
H477 N473 0.985 . S
H478 N472 0.984 . S
H479 N472 0.984 . S
H480 N468 0.984 . S
H481 N468 0.985 . S
C482 C483 1.357 1_565 S
C482 C488 1.379 1_565 S
C482 N490 1.356 . S
C483 C482 1.357 1_545 S
C483 C489 1.379 . S
C484 C485 1.363 . S
C484 C489 1.379 . S
C484 N491 1.356 . S
C485 C484 1.363 . S
C485 C488 1.363 . S
N486 C488 1.356 . S
N486 H498 0.984 1_545 S
N486 H499 0.985 . S
N487 C489 1.356 . S
N487 H492 0.984 . S
N487 H493 0.985 . S
C488 C482 1.379 1_545 S
C488 C485 1.363 . S
C488 N486 1.356 . S
C489 C483 1.379 . S
C489 C484 1.379 . S
C489 N487 1.356 . S
N490 C482 1.356 . S
N490 H496 0.984 . S
N490 H497 0.984 . S
N491 C484 1.356 . S
N491 H494 0.984 . S
N491 H495 0.985 . S
H492 N487 0.984 . S
H493 N487 0.985 . S
H494 N491 0.984 . S
H495 N491 0.985 . S
H496 N490 0.984 . S
H497 N490 0.984 . S
H498 N486 0.984 1_565 S
H499 N486 0.985 . S
C500 C501 1.363 . S
C500 C506 1.379 . S
C500 N508 1.356 . S
C501 C500 1.363 . S
C501 C507 1.363 . S
C502 C503 1.363 . S
C502 C507 1.379 . S
C502 N509 1.356 . S
C503 C502 1.363 . S
C503 C506 1.363 . S
N504 C506 1.356 . S
N504 H516 0.984 . S
N504 H517 0.985 . S
N505 C507 1.356 . S
N505 H510 0.984 . S
N505 H511 0.985 . S
C506 C500 1.379 . S
C506 C503 1.363 . S
C506 N504 1.356 . S
C507 C501 1.363 . S
C507 C502 1.379 . S
C507 N505 1.356 . S
N508 C500 1.356 . S
N508 H514 0.984 . S
N508 H515 0.984 . S
N509 C502 1.356 . S
N509 H512 0.984 . S
N509 H513 0.985 . S
H510 N505 0.984 . S
H511 N505 0.985 . S
H512 N509 0.984 . S
H513 N509 0.985 . S
H514 N508 0.984 . S
H515 N508 0.984 . S
H516 N504 0.984 . S
H517 N504 0.985 . S
C518 C519 1.363 . S
C518 C524 1.379 . S
C518 N526 1.356 . S
C519 C518 1.363 . S
C519 C525 1.363 . S
C520 C521 1.363 . S
C520 C525 1.379 . S
C520 N527 1.356 . S
C521 C520 1.363 . S
C521 C524 1.363 . S
N522 C524 1.356 . S
N522 H534 0.984 . S
N522 H535 0.985 . S
N523 C525 1.356 . S
N523 H528 0.984 . S
N523 H529 0.985 . S
C524 C518 1.379 . S
C524 C521 1.363 . S
C524 N522 1.356 . S
C525 C519 1.363 . S
C525 C520 1.379 . S
C525 N523 1.356 . S
N526 C518 1.356 . S
N526 H532 0.984 . S
N526 H533 0.984 . S
N527 C520 1.356 . S
N527 H530 0.984 . S
N527 H531 0.985 . S
H528 N523 0.984 . S
H529 N523 0.985 . S
H530 N527 0.984 . S
H531 N527 0.985 . S
H532 N526 0.984 . S
H533 N526 0.984 . S
H534 N522 0.984 . S
H535 N522 0.985 . S
C536 C537 1.363 . S
C536 C542 1.379 . S
C536 N544 1.356 1_556 S
C537 C536 1.363 . S
C537 C543 1.363 1_455 S
C538 C539 1.363 1_655 S
C538 C543 1.379 . S
C538 N545 1.356 . S
C539 C538 1.363 1_455 S
C539 C542 1.363 . S
N540 C542 1.356 1_554 S
N540 H552 0.984 . S
N540 H553 0.985 . S
N541 C543 1.356 . S
N541 H546 0.984 . S
N541 H547 0.985 . S
C542 C536 1.379 . S
C542 C539 1.363 . S
C542 N540 1.356 1_556 S
C543 C537 1.363 1_655 S
C543 C538 1.379 . S
C543 N541 1.356 . S
N544 C536 1.356 1_554 S
N544 H550 0.984 . S
N544 H551 0.984 1_554 S
N545 C538 1.356 . S
N545 H548 0.984 . S
N545 H549 0.985 . S
H546 N541 0.984 . S
H547 N541 0.985 . S
H548 N545 0.984 . S
H549 N545 0.985 . S
H550 N544 0.984 . S
H551 N544 0.984 1_556 S
H552 N540 0.984 . S
H553 N540 0.985 . S
C554 C555 1.363 . S
C554 C560 1.379 . S
C554 N562 1.356 . S
C555 C554 1.363 . S
C555 C561 1.363 . S
C556 C557 1.363 . S
C556 C561 1.379 . S
C556 N563 1.356 1_556 S
C557 C556 1.363 . S
C557 C560 1.363 . S
N558 C560 1.356 . S
N558 H570 0.984 . S
N558 H571 0.985 . S
N559 C561 1.356 1_554 S
N559 H564 0.985 . S
N559 H565 0.985 . S
C560 C554 1.379 . S
C560 C557 1.363 . S
C560 N558 1.356 . S
C561 C555 1.363 . S
C561 C556 1.379 . S
C561 N559 1.356 1_556 S
N562 C554 1.356 . S
N562 H568 0.984 . S
N562 H569 0.984 . S
N563 C556 1.356 1_554 S
N563 H566 0.984 . S
N563 H567 0.985 . S
H564 N559 0.985 . S
H565 N559 0.985 . S
H566 N563 0.984 . S
H567 N563 0.985 . S
H568 N562 0.984 . S
H569 N562 0.984 . S
H570 N558 0.984 . S
H571 N558 0.985 . S
C572 C573 1.363 . S
C572 C578 1.379 . S
C572 N580 1.356 1_556 S
C573 C572 1.363 . S
C573 C579 1.363 . S
C574 C575 1.363 . S
C574 C579 1.379 . S
C574 N581 1.356 . S
C575 C574 1.363 . S
C575 C578 1.363 . S
N576 C578 1.356 1_554 S
N576 H588 0.984 . S
N576 H589 0.985 . S
N577 C579 1.356 . S
N577 H582 0.984 . S
N577 H583 0.985 . S
C578 C572 1.379 . S
C578 C575 1.363 . S
C578 N576 1.356 1_556 S
C579 C573 1.363 . S
C579 C574 1.379 . S
C579 N577 1.356 . S
N580 C572 1.356 1_554 S
N580 H586 0.984 . S
N580 H587 0.984 1_554 S
N581 C574 1.356 . S
N581 H584 0.984 . S
N581 H585 0.985 . S
H582 N577 0.984 . S
H583 N577 0.985 . S
H584 N581 0.984 . S
H585 N581 0.985 . S
H586 N580 0.984 . S
H587 N580 0.984 1_556 S
H588 N576 0.984 . S
H589 N576 0.985 . S
C590 C591 1.363 . S
C590 C596 1.379 . S
C590 N598 1.356 1_556 S
C591 C590 1.363 . S
C591 C597 1.363 . S
C592 C593 1.363 . S
C592 C597 1.379 . S
C592 N599 1.356 . S
C593 C592 1.363 . S
C593 C596 1.363 . S
N594 C596 1.356 1_554 S
N594 H606 0.984 . S
N594 H607 0.985 . S
N595 C597 1.356 . S
N595 H600 0.984 . S
N595 H601 0.985 . S
C596 C590 1.379 . S
C596 C593 1.363 . S
C596 N594 1.356 1_556 S
C597 C591 1.363 . S
C597 C592 1.379 . S
C597 N595 1.356 . S
N598 C590 1.356 1_554 S
N598 H604 0.984 . S
N598 H605 0.984 . S
N599 C592 1.356 . S
N599 H602 0.984 . S
N599 H603 0.985 . S
H600 N595 0.984 . S
H601 N595 0.985 . S
H602 N599 0.984 . S
H603 N599 0.985 . S
H604 N598 0.984 . S
H605 N598 0.984 . S
H606 N594 0.984 . S
H607 N594 0.985 . S
C608 C609 1.363 1_455 S
C608 C614 1.379 . S
C608 N616 1.356 . S
C609 C608 1.363 1_655 S
C609 C615 1.363 . S
C610 C611 1.363 . S
C610 C615 1.379 . S
C610 N617 1.356 . S
C611 C610 1.363 . S
C611 C614 1.363 1_655 S
N612 C614 1.356 . S
N612 H624 0.984 . S
N612 H625 0.985 . S
N613 C615 1.356 . S
N613 H618 0.984 . S
N613 H619 0.985 . S
C614 C608 1.379 . S
C614 C611 1.363 1_455 S
C614 N612 1.356 . S
C615 C609 1.363 . S
C615 C610 1.379 . S
C615 N613 1.356 . S
N616 C608 1.356 . S
N616 H622 0.984 . S
N616 H623 0.984 . S
N617 C610 1.356 . S
N617 H620 0.984 . S
N617 H621 0.985 . S
H618 N613 0.984 . S
H619 N613 0.985 . S
H620 N617 0.984 . S
H621 N617 0.985 . S
H622 N616 0.984 . S
H623 N616 0.984 . S
H624 N612 0.984 . S
H625 N612 0.985 . S
C626 C627 1.363 . S
C626 C632 1.379 . S
C626 N634 1.356 . S
C627 C626 1.363 . S
C627 C633 1.363 1_565 S
C628 C629 1.363 1_545 S
C628 C633 1.379 . S
C628 N635 1.356 . S
C629 C628 1.363 1_565 S
C629 C632 1.363 . S
N630 C632 1.356 . S
N630 H642 0.984 . S
N630 H643 0.985 . S
N631 C633 1.356 . S
N631 H636 0.984 . S
N631 H637 0.985 . S
C632 C626 1.379 . S
C632 C629 1.363 . S
C632 N630 1.356 . S
C633 C627 1.363 1_545 S
C633 C628 1.379 . S
C633 N631 1.356 . S
N634 C626 1.356 . S
N634 H640 0.984 . S
N634 H641 0.984 . S
N635 C628 1.356 . S
N635 H638 0.984 . S
N635 H639 0.985 . S
H636 N631 0.984 . S
H637 N631 0.985 . S
H638 N635 0.984 . S
H639 N635 0.985 . S
H640 N634 0.984 . S
H641 N634 0.984 . S
H642 N630 0.984 . S
H643 N630 0.985 . S
C644 C645 1.363 . S
C644 C650 1.379 . S
C644 N652 1.356 . S
C645 C644 1.363 . S
C645 C651 1.363 . S
C646 C647 1.363 . S
C646 C651 1.379 . S
C646 N653 1.356 . S
C647 C646 1.363 . S
C647 C650 1.363 . S
N648 C650 1.356 . S
N648 H660 0.984 . S
N648 H661 0.985 . S
N649 C651 1.356 . S
N649 H654 0.984 . S
N649 H655 0.985 . S
C650 C644 1.379 . S
C650 C647 1.363 . S
C650 N648 1.356 . S
C651 C645 1.363 . S
C651 C646 1.379 . S
C651 N649 1.356 . S
N652 C644 1.356 . S
N652 H658 0.984 . S
N652 H659 0.984 . S
N653 C646 1.356 . S
N653 H656 0.984 . S
N653 H657 0.985 . S
H654 N649 0.984 . S
H655 N649 0.985 . S
H656 N653 0.984 . S
H657 N653 0.985 . S
H658 N652 0.984 . S
H659 N652 0.984 . S
H660 N648 0.984 . S
H661 N648 0.985 . S
C662 C663 1.363 . S
C662 C668 1.379 . S
C662 N670 1.356 . S
C663 C662 1.363 . S
C663 C669 1.363 . S
C664 C665 1.363 . S
C664 C669 1.379 . S
C664 N671 1.356 . S
C665 C664 1.363 . S
C665 C668 1.363 . S
N666 C668 1.356 . S
N666 H678 0.984 . S
N666 H679 0.985 . S
N667 C669 1.356 . S
N667 H672 0.984 . S
N667 H673 0.985 . S
C668 C662 1.379 . S
C668 C665 1.363 . S
C668 N666 1.356 . S
C669 C663 1.363 . S
C669 C664 1.379 . S
C669 N667 1.356 . S
N670 C662 1.356 . S
N670 H676 0.984 . S
N670 H677 0.984 . S
N671 C664 1.356 . S
N671 H674 0.984 . S
N671 H675 0.985 . S
H672 N667 0.984 . S
H673 N667 0.985 . S
H674 N671 0.984 . S
H675 N671 0.985 . S
H676 N670 0.984 . S
H677 N670 0.984 . S
H678 N666 0.984 . S
H679 N666 0.985 . S
C249 C76 1.949 . S
C251 C90 2.200 . S
C269 C130 2.218 . S
C267 C87 1.967 . S
C287 C170 2.229 . S
C285 C54 1.983 . S
C305 C210 2.212 1_455 S
C303 C65 1.962 1_455 S
C323 C103 2.203 1_554 S
C321 C32 1.952 1_545 S
C339 C43 1.966 . S
C341 C143 2.220 1_554 S
C357 C10 1.979 . S
C359 C183 2.228 1_554 S
C375 C21 1.962 . S
C377 C223 2.213 1_654 S
C395 C114 0.772 . S
C393 C60 0.768 1_655 S
C413 C154 0.770 . S
C411 C71 0.769 1_565 S
C431 C194 0.760 . S
C429 C82 0.759 . S
C447 C49 0.758 . S
C449 C234 0.755 . S
C465 C16 0.770 . S
C467 C97 0.775 . S
C485 C137 0.770 . S
C483 C27 0.768 . S
C503 C177 0.760 . S
C501 C38 0.759 . S
C519 C5 0.758 . S
C521 C217 0.762 . S
C537 C59 2.231 . S
C539 C91 2.570 . S
C555 C70 2.188 . S
C557 C131 2.532 . S
C575 C171 2.519 . S
C573 C81 2.172 . S
C593 C211 2.560 . S
C591 C48 2.210 . S
C609 C15 2.234 1_655 S
C611 C110 2.578 . S
C629 C150 2.532 . S
C627 C26 2.192 1_565 S
C647 C190 2.519 . S
C645 C37 2.183 . S
C663 C4 2.225 . S
C665 C230 2.564 . S
