# Generated by pormake.
# Topology anh, (6,3)-cn, num edge types: 1
# Building blocks:
#     Node 0, Type 0, BuildingBlock: BETFAJ_clean_sbu_0, # of connection points: 6
#     Node 1, Type 0, BuildingBlock: BETFAJ_clean_sbu_0, # of connection points: 6
#     Node 2, Type 0, BuildingBlock: BETFAJ_clean_sbu_0, # of connection points: 6
#     Node 3, Type 1, BuildingBlock: BELTOD_clean_linker_0, # of connection points: 3
#     Node 4, Type 1, BuildingBlock: BELTOD_clean_linker_0, # of connection points: 3
#     Node 5, Type 1, BuildingBlock: BELTOD_clean_linker_0, # of connection points: 3
#     Node 6, Type 1, BuildingBlock: BELTOD_clean_linker_0, # of connection points: 3
#     Node 7, Type 1, BuildingBlock: BELTOD_clean_linker_0, # of connection points: 3
#     Node 8, Type 1, BuildingBlock: BELTOD_clean_linker_0, # of connection points: 3
#     Edge 9, Type (0, 1), BuildingBlock: EZIPEK_clean_linker_0, # of connection points: 2
#     Edge 10, Type (0, 1), BuildingBlock: EZIPEK_clean_linker_0, # of connection points: 2
#     Edge 11, Type (0, 1), BuildingBlock: EZIPEK_clean_linker_0, # of connection points: 2
#     Edge 12, Type (0, 1), BuildingBlock: EZIPEK_clean_linker_0, # of connection points: 2
#     Edge 13, Type (0, 1), BuildingBlock: EZIPEK_clean_linker_0, # of connection points: 2
#     Edge 14, Type (0, 1), BuildingBlock: EZIPEK_clean_linker_0, # of connection points: 2
#     Edge 15, Type (0, 1), BuildingBlock: EZIPEK_clean_linker_0, # of connection points: 2
#     Edge 16, Type (0, 1), BuildingBlock: EZIPEK_clean_linker_0, # of connection points: 2
#     Edge 17, Type (0, 1), BuildingBlock: EZIPEK_clean_linker_0, # of connection points: 2
#     Edge 18, Type (0, 1), BuildingBlock: EZIPEK_clean_linker_0, # of connection points: 2
#     Edge 19, Type (0, 1), BuildingBlock: EZIPEK_clean_linker_0, # of connection points: 2
#     Edge 20, Type (0, 1), BuildingBlock: EZIPEK_clean_linker_0, # of connection points: 2
#     Edge 21, Type (0, 1), BuildingBlock: EZIPEK_clean_linker_0, # of connection points: 2
#     Edge 22, Type (0, 1), BuildingBlock: EZIPEK_clean_linker_0, # of connection points: 2
#     Edge 23, Type (0, 1), BuildingBlock: EZIPEK_clean_linker_0, # of connection points: 2
#     Edge 24, Type (0, 1), BuildingBlock: EZIPEK_clean_linker_0, # of connection points: 2
#     Edge 25, Type (0, 1), BuildingBlock: EZIPEK_clean_linker_0, # of connection points: 2
#     Edge 26, Type (0, 1), BuildingBlock: EZIPEK_clean_linker_0, # of connection points: 2
# Relax obj value: 0.220
# Max RMSD: 0.227
# Mean RMSD: 0.160
data_MOF--net-anh--node1-BETFAJ_clean_sbu_0--node2-BELTOD_clean_linker_0--edge1-EZIPEK_clean_linker_0
_symmetry_space_group_name_H-M    P1
_symmetry_Int_Tables_number       1
_symmetry_cell_setting            triclinic
loop_
_symmetry_equiv_pos_as_xyz
'x, y, z'
_cell_length_a     28.086876
_cell_length_b     33.34916
_cell_length_c     47.038392
_cell_angle_alpha  91.807392
_cell_angle_beta   89.934153
_cell_angle_gamma 130.84767
loop_
_atom_site_label
_atom_site_type_symbol
_atom_site_fract_x
_atom_site_fract_y
_atom_site_fract_z
_atom_type_partial_charge
Sm0 Sm 0.13178 0.54141 0.1445 0.0
Sm1 Sm 1.04898 0.56686 0.14569 0.0
C2 C 0.20703 0.52527 0.12633 0.0
C3 C 0.25149 0.52304 0.14023 0.0
C4 C 0.28849 0.51789 0.12357 0.0
C5 C 0.32457 0.50833 0.13647 0.0
C6 C 0.32345 0.50352 0.16607 0.0
C7 C 0.29109 0.51362 0.183 0.0
C8 C 0.25502 0.52332 0.17004 0.0
C9 C 0.10581 0.5395 0.20128 0.0
C10 C 0.20206 0.66668 0.14923 0.0
C11 C 0.98775 0.59849 0.16085 0.0
C12 C 0.92999 0.56897 0.17716 0.0
C13 C 0.92349 0.5418 0.20127 0.0
C14 C 0.86375 0.499 0.21052 0.0
C15 C 0.81047 0.48241 0.19524 0.0
C16 C 0.81709 0.51343 0.1734 0.0
C17 C 0.87659 0.55676 0.16454 0.0
C18 C 0.06303 0.54172 0.0916 0.0
C19 C 0.9798 0.44271 0.14825 0.0
O20 O 0.22292 0.57183 0.12723 0.0
O21 O 0.14761 0.48657 0.13155 0.0
O22 O 0.08521 0.54939 0.18132 0.0
O23 O 0.14243 0.53172 0.19169 0.0
O24 O 0.2091 0.63178 0.15266 0.0
O25 O 0.14607 0.65145 0.14392 0.0
O26 O 1.03817 0.61419 0.17459 0.0
O27 O 0.98055 0.57712 0.13566 0.0
O28 O 0.10645 0.57096 0.11023 0.0
O29 O 1.01041 0.5271 0.10092 0.0
O30 O 0.97571 0.47857 0.15643 0.0
O31 O 1.03271 0.45748 0.13773 0.0
H32 H 0.2869 0.51846 0.10058 0.0
H33 H 0.3495 0.50054 0.12318 0.0
H34 H 0.28972 0.5098 0.20584 0.0
H35 H 0.2275 0.52824 0.18318 0.0
H36 H 0.96405 0.55037 0.21142 0.0
H37 H 0.85927 0.47612 0.22781 0.0
H38 H 0.77616 0.50142 0.1616 0.0
H39 H 0.88061 0.57709 0.14594 0.0
Sm40 Sm 0.60765 0.0075 0.47082 0.0
Sm41 Sm 0.5301 0.0387 0.46541 0.0
C42 C 0.65195 0.96261 0.48838 0.0
C43 C 0.62859 0.90797 0.48891 0.0
C44 C 0.58239 0.87134 0.50789 0.0
C45 C 0.56119 0.82002 0.50827 0.0
C46 C 0.58339 0.80244 0.48886 0.0
C47 C 0.63284 0.84122 0.47115 0.0
C48 C 0.6542 0.89258 0.47088 0.0
C49 C 0.59432 0.02318 0.41556 0.0
C50 C 0.45206 0.91207 0.46222 0.0
C51 C 0.48276 0.0836 0.4528 0.0
C52 C 0.49869 0.13321 0.46308 0.0
C53 C 0.46795 0.14958 0.45173 0.0
C54 C 0.48284 0.19652 0.46216 0.0
C55 C 0.52901 0.22766 0.48385 0.0
C56 C 0.55998 0.21131 0.495 0.0
C57 C 0.54455 0.16421 0.48481 0.0
C58 C 0.55135 0.02884 0.52126 0.0
C59 C 0.68686 0.13335 0.46849 0.0
O60 O 0.62485 0.97415 0.5052 0.0
O61 O 0.66401 0.98321 0.46338 0.0
O62 O 0.55015 0.99971 0.43326 0.0
O63 O 0.64537 0.03601 0.42635 0.0
O64 O 0.50632 0.92524 0.46947 0.0
O65 O 0.44898 0.94896 0.45677 0.0
O66 O 0.52554 0.08892 0.43766 0.0
O67 O 0.45897 0.04745 0.47174 0.0
O68 O 0.59082 0.04928 0.50173 0.0
O69 O 0.49972 0.01657 0.51197 0.0
O70 O 0.63216 0.11948 0.4612 0.0
O71 O 0.68977 0.09768 0.4772 0.0
H72 H 0.56321 0.88246 0.52295 0.0
H73 H 0.52912 0.79566 0.52484 0.0
H74 H 0.6579 0.83371 0.45799 0.0
H75 H 0.6918 0.92068 0.45681 0.0
H76 H 0.43226 0.12594 0.43502 0.0
H77 H 0.45838 0.20854 0.45342 0.0
H78 H 0.5955 0.23471 0.5118 0.0
H79 H 0.56781 0.15151 0.49406 0.0
Sm80 Sm 0.6301 0.58347 0.84727 0.0
Sm81 Sm 0.5432 0.46873 0.83411 0.0
C82 C 0.7087 0.68797 0.843 0.0
C83 C 0.69753 0.72472 0.83803 0.0
C84 C 0.63686 0.70448 0.83023 0.0
C85 C 0.62673 0.73834 0.82213 0.0
C86 C 0.67722 0.79312 0.82163 0.0
C87 C 0.73768 0.81377 0.83023 0.0
C88 C 0.7478 0.7797 0.83834 0.0
C89 C 0.57448 0.52383 0.89478 0.0
C90 C 0.47548 0.52223 0.84289 0.0
C91 C 0.48041 0.36555 0.82694 0.0
C92 C 0.4948 0.33036 0.82596 0.0
C93 C 0.54616 0.34297 0.84141 0.0
C94 C 0.56324 0.31206 0.83739 0.0
C95 C 0.52958 0.26876 0.81765 0.0
C96 C 0.4776 0.25565 0.80271 0.0
C97 C 0.46027 0.28619 0.80689 0.0
C98 C 0.57451 0.52851 0.78704 0.0
C99 C 0.6986 0.5298 0.84495 0.0
O100 O 0.69191 0.65477 0.82165 0.0
O101 O 0.69191 0.66519 0.8675 0.0
O102 O 0.59575 0.51471 0.87448 0.0
O103 O 0.58463 0.56731 0.89124 0.0
O104 O 0.53441 0.56731 0.83966 0.0
O105 O 0.46695 0.47796 0.84473 0.0
O106 O 0.48598 0.388 0.85148 0.0
O107 O 0.50282 0.39789 0.80612 0.0
O108 O 0.61181 0.53782 0.80644 0.0
O109 O 0.51765 0.48693 0.79281 0.0
O110 O 0.64035 0.48528 0.83735 0.0
O111 O 0.70718 0.57378 0.85081 0.0
H112 H 0.59758 0.66232 0.82948 0.0
H113 H 0.57985 0.7217 0.81545 0.0
H114 H 0.7772 0.85603 0.82989 0.0
H115 H 0.79503 0.79608 0.84403 0.0
H116 H 0.574 0.37741 0.85592 0.0
H117 H 0.60377 0.32284 0.84892 0.0
H118 H 0.45141 0.22252 0.78731 0.0
H119 H 0.42104 0.27631 0.79454 0.0
P120 P 0.62933 0.04054 0.19565 0.0
H121 H 0.58595 0.96622 0.14703 0.0
H122 H 0.4853 0.88283 0.1336 0.0
H123 H 0.39975 0.91023 0.19881 0.0
H124 H 0.50024 0.99324 0.21146 0.0
H125 H 0.75342 0.10577 0.16963 0.0
H126 H 0.83009 0.19856 0.15767 0.0
H127 H 0.69892 0.2198 0.18015 0.0
H128 H 0.61991 0.12513 0.19106 0.0
H129 H 0.64019 0.98876 0.24103 0.0
H130 H 0.59445 0.08914 0.23472 0.0
O131 O 0.66822 0.01893 0.19036 0.0
H132 H 0.62401 0.98444 0.29224 0.0
H133 H 0.57726 0.08392 0.28609 0.0
C134 C 0.5515 0.9881 0.17952 0.0
C135 C 0.54469 0.95589 0.1571 0.0
C136 C 0.48526 0.90756 0.14891 0.0
C137 C 0.42896 0.89033 0.16162 0.0
C138 C 0.43755 0.92268 0.18504 0.0
C139 C 0.49699 0.97106 0.19317 0.0
C140 C 0.68033 0.10763 0.18187 0.0
C141 C 0.73988 0.12951 0.17165 0.0
C142 C 0.78428 0.18302 0.1648 0.0
C143 C 0.7711 0.21686 0.16824 0.0
C144 C 0.71069 0.19482 0.17742 0.0
C145 C 0.66557 0.14064 0.18388 0.0
C146 C 0.62073 0.04083 0.23388 0.0
C147 C 0.62745 0.01047 0.25054 0.0
C148 C 0.61754 0.00744 0.2798 0.0
C149 C 0.59969 0.034 0.29297 0.0
C150 C 0.59139 0.06337 0.27632 0.0
C151 C 0.60204 0.06689 0.24702 0.0
P152 P 0.6738 0.58346 0.57178 0.0
H153 H 0.73837 0.5489 0.54759 0.0
H154 H 0.70043 0.46411 0.52658 0.0
H155 H 0.50875 0.39532 0.54039 0.0
H156 H 0.54687 0.48014 0.56223 0.0
H157 H 0.68621 0.67533 0.58503 0.0
H158 H 0.6497 0.71529 0.56071 0.0
H159 H 0.55335 0.58755 0.49698 0.0
H160 H 0.5919 0.54875 0.52049 0.0
H161 H 0.74954 0.6065 0.62232 0.0
H162 H 0.56106 0.54382 0.60329 0.0
O163 O 0.75166 0.62866 0.56821 0.0
H164 H 0.72729 0.59668 0.67327 0.0
H165 H 0.53869 0.53362 0.65442 0.0
C166 C 0.64535 0.52095 0.5562 0.0
C167 C 0.68818 0.51574 0.54615 0.0
C168 C 0.66662 0.46742 0.53413 0.0
C169 C 0.60187 0.42365 0.53183 0.0
C170 C 0.5589 0.42876 0.54194 0.0
C171 C 0.5806 0.47699 0.55436 0.0
C172 C 0.64111 0.6087 0.55486 0.0
C173 C 0.65688 0.6557 0.56593 0.0
C174 C 0.63619 0.6785 0.5521 0.0
C175 C 0.59911 0.65439 0.52705 0.0
C176 C 0.582 0.60665 0.51629 0.0
C177 C 0.6037 0.58436 0.52987 0.0
C178 C 0.6572 0.57656 0.60912 0.0
C179 C 0.70358 0.59103 0.6291 0.0
C180 C 0.69101 0.58554 0.65812 0.0
C181 C 0.63166 0.56504 0.66751 0.0
C182 C 0.58498 0.5501 0.64752 0.0
C183 C 0.59767 0.55574 0.61844 0.0
P184 P 0.10815 0.55312 0.87077 0.0
H185 H 0.20513 0.5874 0.82613 0.0
H186 H 0.28659 0.58253 0.82071 0.0
H187 H 0.21125 0.47679 0.8899 0.0
H188 H 0.1303 0.48217 0.89502 0.0
H189 H 0.07958 0.62496 0.87202 0.0
H190 H 0.98778 0.61738 0.86601 0.0
H191 H 0.87381 0.45113 0.84453 0.0
H192 H 0.96749 0.45883 0.85051 0.0
H193 H 0.19937 0.61778 0.91794 0.0
H194 H 1.00523 0.47392 0.9083 0.0
O195 O 0.16376 0.61824 0.86638 0.0
H196 H 0.19058 0.61352 0.96985 0.0
H197 H 0.99659 0.46978 0.96042 0.0
C198 C 0.15535 0.53207 0.85968 0.0
C199 C 0.20235 0.55944 0.83882 0.0
C200 C 0.2501 0.55543 0.83527 0.0
C201 C 0.25366 0.52133 0.85117 0.0
C202 C 0.20855 0.49704 0.87345 0.0
C203 C 0.16086 0.50115 0.87708 0.0
C204 C 1.03427 0.54322 0.86075 0.0
C205 C 1.03582 0.58655 0.86521 0.0
C206 C 0.98185 0.58216 0.86203 0.0
C207 C 0.92108 0.53373 0.8545 0.0
C208 C 0.91869 0.48973 0.85009 0.0
C209 C 0.97338 0.4942 0.85334 0.0
C210 C 0.10248 0.54691 0.90911 0.0
C211 C 0.15487 0.58523 0.92691 0.0
C212 C 0.15003 0.58273 0.95657 0.0
C213 C 0.09284 0.54158 0.969 0.0
C214 C 1.04108 0.50198 0.95125 0.0
C215 C 1.04596 0.50451 0.92153 0.0
P216 P 0.09892 0.50607 0.41924 0.0
H217 H 0.23171 0.57853 0.43659 0.0
H218 H 0.30776 0.67336 0.44854 0.0
H219 H 0.15921 0.67942 0.44691 0.0
H220 H 0.08172 0.58307 0.43529 0.0
H221 H 0.06393 0.44999 0.47207 0.0
H222 H 0.96597 0.36387 0.48608 0.0
H223 H 0.86828 0.36009 0.4141 0.0
H224 H 0.96617 0.44542 0.39968 0.0
H225 H 0.13207 0.47646 0.36842 0.0
H226 H 1.05077 0.54797 0.3868 0.0
O227 O 0.1374 0.48387 0.42228 0.0
H228 H 0.12951 0.48893 0.31768 0.0
H229 H 1.04815 0.56022 0.3357 0.0
C230 C 0.15038 0.57299 0.43521 0.0
C231 C 0.21456 0.59944 0.4395 0.0
C232 C 0.25843 0.65396 0.44614 0.0
C233 C 0.2395 0.68374 0.44836 0.0
C234 C 0.17496 0.65725 0.4452 0.0
C235 C 0.13072 0.60224 0.43868 0.0
C236 C 1.02301 0.4547 0.43479 0.0
C237 C 1.02108 0.4317 0.45979 0.0
C238 C 0.96519 0.38227 0.46773 0.0
C239 C 0.9098 0.35522 0.45102 0.0
C240 C 0.91039 0.3802 0.42732 0.0
C241 C 0.96653 0.4293 0.41918 0.0
C242 C 0.09201 0.51161 0.3816 0.0
C243 C 0.11345 0.49466 0.36168 0.0
C244 C 0.11215 0.50181 0.33266 0.0
C245 C 0.0891 0.5258 0.32305 0.0
C246 C 0.06643 0.54189 0.3428 0.0
C247 C 0.06803 0.53494 0.37192 0.0
P248 P 0.67068 0.07243 0.73607 0.0
H249 H 0.72258 0.14913 0.78385 0.0
H250 H 0.68725 0.19238 0.80699 0.0
H251 H 0.51157 0.08748 0.75921 0.0
H252 H 0.54667 0.0438 0.73614 0.0
H253 H 0.75747 0.05321 0.74006 0.0
H254 H 0.75096 0.98404 0.76158 0.0
H255 H 0.56244 0.90701 0.78813 0.0
H256 H 0.56915 0.97717 0.76666 0.0
H257 H 0.64772 0.12445 0.69731 0.0
H258 H 0.62575 0.98364 0.69545 0.0
O259 O 0.74719 0.12469 0.73335 0.0
H260 H 0.61602 0.10824 0.64691 0.0
H261 H 0.59456 0.9678 0.64474 0.0
C262 C 0.6379 0.09429 0.75775 0.0
C263 C 0.67592 0.13461 0.77878 0.0
C264 C 0.65581 0.15921 0.79202 0.0
C265 C 0.59722 0.14341 0.78451 0.0
C266 C 0.55704 0.1002 0.76516 0.0
C267 C 0.57715 0.07548 0.75197 0.0
C268 C 0.6642 0.0208 0.75221 0.0
C269 C 0.71485 0.02185 0.7507 0.0
C270 C 0.7112 0.98239 0.76294 0.0
C271 C 0.65657 0.94086 0.77667 0.0
C272 C 0.60523 0.93914 0.77786 0.0
C273 C 0.60904 0.97899 0.76563 0.0
C274 C 0.63799 0.05477 0.70031 0.0
C275 C 0.63479 0.08944 0.68624 0.0
C276 C 0.61697 0.08036 0.65749 0.0
C277 C 0.60275 0.03675 0.64219 0.0
C278 C 0.60489 1.00142 0.65629 0.0
C279 C 0.62258 0.01046 0.68521 0.0
P280 P 0.45482 0.32475 0.08243 0.0
H281 H 0.44552 0.24876 0.11667 0.0
H282 H 0.51596 0.26351 0.15471 0.0
H283 H 0.65907 0.42496 0.12981 0.0
H284 H 0.58839 0.41108 0.09279 0.0
H285 H 0.39558 0.2935 0.1375 0.0
H286 H 0.37526 0.33666 0.17254 0.0
H287 H 0.46516 0.47025 0.11871 0.0
H288 H 0.49136 0.43022 0.08552 0.0
H289 H 0.56247 0.36818 0.04465 0.0
H290 H 0.39789 0.35331 0.04686 0.0
O291 O 0.38924 0.26178 0.07664 0.0
H292 H 0.59628 0.4197 0.00155 0.0
H293 H 0.43198 0.40501 0.00407 0.0
C294 C 0.51279 0.32822 0.10111 0.0
C295 C 0.49305 0.2866 0.11859 0.0
C296 C 0.53265 0.29507 0.14049 0.0
C297 C 0.5923 0.34518 0.14484 0.0
C298 C 0.61313 0.3859 0.12648 0.0
C299 C 0.57336 0.37767 0.10498 0.0
C300 C 0.44069 0.35686 0.1079 0.0
C301 C 0.41132 0.33227 0.1334 0.0
C302 C 0.40066 0.35711 0.15354 0.0
C303 C 0.41672 0.40556 0.14759 0.0
C304 C 0.451 0.43215 0.12328 0.0
C305 C 0.46425 0.40847 0.10389 0.0
C306 C 0.4786 0.35831 0.0494 0.0
C307 C 0.53406 0.37648 0.03615 0.0
C308 C 0.55349 0.40597 0.01168 0.0
C309 C 0.51733 0.41713 0.00021 0.0
C310 C 0.46101 0.3976 0.01302 0.0
C311 C 0.44141 0.3678 0.03721 0.0
C312 C 0.4095 0.50499 0.18087 0.0
C313 C 0.34446 0.47654 0.17731 0.0
C314 C 0.32451 0.39657 0.16228 0.0
C315 C 0.39041 0.42542 0.16392 0.0
N316 N 0.49281 0.50108 0.18291 0.0
N317 N 0.2391 0.3924 0.17733 0.0
C318 C 0.43199 0.47764 0.17639 0.0
C319 C 0.30178 0.42096 0.17316 0.0
N320 N 0.44941 0.55839 0.18667 0.0
N321 N 0.28437 0.34889 0.14747 0.0
H322 H 0.22145 0.41011 0.1848 0.0
H323 H 0.2063 0.35105 0.17638 0.0
H324 H 0.29838 0.33021 0.13712 0.0
H325 H 0.23745 0.33009 0.14298 0.0
H326 H 0.49826 0.5829 0.18649 0.0
H327 H 0.43257 0.57807 0.19089 0.0
H328 H 0.52444 0.53791 0.19358 0.0
H329 H 0.50967 0.4812 0.17972 0.0
C330 C 0.75378 0.23208 0.48059 0.0
C331 C 0.7462 0.19024 0.46564 0.0
C332 C 0.84485 0.25704 0.44056 0.0
C333 C 0.85358 0.29849 0.45641 0.0
N334 N 0.82168 0.3261 0.49418 0.0
N335 N 0.78982 0.16341 0.43405 0.0
C336 C 0.80952 0.28611 0.47722 0.0
C337 C 0.79346 0.20294 0.44652 0.0
N338 N 0.70733 0.22027 0.49791 0.0
N339 N 0.88507 0.26942 0.41916 0.0
H340 H 0.75186 0.12335 0.43613 0.0
H341 H 0.82647 0.17004 0.42307 0.0
H342 H 0.92539 0.30815 0.41517 0.0
H343 H 0.8766 0.24181 0.40403 0.0
H344 H 0.70546 0.24837 0.50643 0.0
H345 H 0.66844 0.18166 0.50274 0.0
H346 H 0.79594 0.31988 0.51202 0.0
H347 H 0.86052 0.36602 0.49156 0.0
C348 C 0.66376 0.86018 0.82957 0.0
C349 C 0.66722 0.82843 0.81047 0.0
C350 C 0.64863 0.86186 0.7701 0.0
C351 C 0.65362 0.89866 0.78885 0.0
N352 N 0.6711 0.93654 0.83622 0.0
N353 N 0.6696 0.80254 0.76234 0.0
C354 C 0.66208 0.89858 0.8186 0.0
C355 C 0.66108 0.82996 0.78065 0.0
N356 N 0.66082 0.85284 0.85816 0.0
N357 N 0.6308 0.8568 0.74227 0.0
H358 H 0.67848 0.77847 0.76918 0.0
H359 H 0.67285 0.80683 0.74042 0.0
H360 H 0.62099 0.8794 0.73391 0.0
H361 H 0.62004 0.82703 0.72816 0.0
H362 H 0.65147 0.8706 0.87299 0.0
H363 H 0.66259 0.82544 0.86688 0.0
H364 H 0.68473 0.94246 0.85758 0.0
H365 H 0.66913 0.96472 0.82906 0.0
C366 C 0.69832 0.42769 0.20625 0.0
C367 C 0.74807 0.42943 0.19831 0.0
C368 C 0.67831 0.35209 0.16615 0.0
C369 C 0.63311 0.35794 0.16947 0.0
N370 N 0.58903 0.38693 0.19814 0.0
N371 N 0.77979 0.38142 0.18116 0.0
C372 C 0.63901 0.39023 0.19201 0.0
C373 C 0.73559 0.38674 0.18218 0.0
N374 N 0.71049 0.46515 0.22544 0.0
N375 N 0.66842 0.3168 0.14597 0.0
H376 H 0.82219 0.40677 0.19272 0.0
H377 H 0.7721 0.34924 0.17124 0.0
H378 H 0.6257 0.29006 0.13468 0.0
H379 H 0.7024 0.31469 0.13992 0.0
H380 H 0.67841 0.46978 0.23092 0.0
H381 H 0.75425 0.49198 0.236 0.0
H382 H 0.58914 0.40864 0.21455 0.0
H383 H 0.54556 0.35948 0.18748 0.0
C384 C 0.37584 0.81981 0.48215 0.0
C385 C 0.39403 0.85408 0.45923 0.0
C386 C 0.30852 0.77614 0.42925 0.0
C387 C 0.28861 0.74294 0.45266 0.0
N388 N 0.29493 0.73447 0.50275 0.0
N389 N 0.3714 0.86486 0.41174 0.0
C390 C 0.31988 0.76528 0.4795 0.0
C391 C 0.35803 0.8323 0.43315 0.0
N392 N 0.41241 0.83881 0.50645 0.0
N393 N 0.28252 0.75368 0.40279 0.0
H394 H 0.41029 0.90522 0.41206 0.0
H395 H 0.34173 0.85237 0.39408 0.0
H396 H 0.24578 0.71307 0.39904 0.0
H397 H 0.30031 0.77451 0.38415 0.0
H398 H 0.4065 0.81449 0.52205 0.0
H399 H 0.45152 0.87856 0.51044 0.0
H400 H 0.31098 0.74941 0.52354 0.0
H401 H 0.25409 0.69455 0.50154 0.0
C402 C 0.52213 0.19035 0.82459 0.0
C403 C 0.55051 0.23863 0.81108 0.0
C404 C 0.60752 0.22337 0.77975 0.0
C405 C 0.58151 0.17634 0.79413 0.0
N406 N 0.5215 0.11833 0.83254 0.0
N407 N 0.62755 0.30596 0.77923 0.0
C408 C 0.5409 0.16075 0.81726 0.0
C409 C 0.59562 0.25667 0.78974 0.0
N410 N 0.47626 0.17237 0.84395 0.0
N411 N 0.64152 0.23504 0.75578 0.0
H412 H 0.61872 0.33087 0.78529 0.0
H413 H 0.66617 0.32402 0.76617 0.0
H414 H 0.65188 0.21202 0.74784 0.0
H415 H 0.65544 0.26516 0.74241 0.0
H416 H 0.44845 0.13475 0.85219 0.0
H417 H 0.46342 0.19418 0.85071 0.0
H418 H 0.49719 0.10796 0.85141 0.0
H419 H 0.53362 0.09539 0.82737 0.0
C420 C 0.59134 0.73285 0.47322 0.0
C421 C 0.56263 0.74738 0.49005 0.0
C422 C 0.53347 0.68083 0.52384 0.0
C423 C 0.57945 0.68008 0.51196 0.0
N424 N 0.64993 0.70327 0.47342 0.0
N425 N 0.46619 0.70098 0.51525 0.0
C426 C 0.6068 0.70446 0.48571 0.0
C427 C 0.52129 0.71138 0.51095 0.0
N428 N 0.59663 0.74048 0.44472 0.0
N429 N 0.50244 0.65335 0.54758 0.0
H430 H 0.45275 0.71746 0.50258 0.0
H431 H 0.43123 0.67161 0.52841 0.0
H432 H 0.50752 0.62812 0.55662 0.0
H433 H 0.47388 0.65758 0.55884 0.0
H434 H 0.61209 0.72621 0.43091 0.0
H435 H 0.57794 0.75535 0.43485 0.0
H436 H 0.67518 0.72513 0.45573 0.0
H437 H 0.66381 0.68379 0.48203 0.0
C438 C 0.79268 0.54706 0.87313 0.0
C439 C 0.75522 0.5299 0.84741 0.0
C440 C 0.82693 0.51612 0.82595 0.0
C441 C 0.86184 0.53021 0.85214 0.0
N442 N 0.86711 0.54968 0.90222 0.0
N443 N 0.73529 0.49191 0.79994 0.0
C444 C 0.84172 0.54344 0.87598 0.0
C445 C 0.77192 0.51229 0.82421 0.0
N446 N 0.78131 0.56676 0.89543 0.0
N447 N 0.84852 0.50923 0.8019 0.0
H448 H 0.69947 0.49291 0.79648 0.0
H449 H 0.73799 0.47133 0.78386 0.0
H450 H 0.88775 0.51207 0.80204 0.0
H451 H 0.83127 0.5053 0.7815 0.0
H452 H 0.81155 0.5871 0.91308 0.0
H453 H 0.74319 0.56541 0.89569 0.0
H454 H 0.85071 0.55329 0.92113 0.0
H455 H 0.90077 0.54596 0.90544 0.0
C456 C 0.26013 0.75929 0.17005 0.0
C457 C 0.25837 0.72486 0.15063 0.0
C458 C 0.35598 0.80346 0.13002 0.0
C459 C 0.36405 0.83621 0.15315 0.0
N460 N 0.29659 0.84738 0.17624 0.0
N461 N 0.30534 0.71502 0.111 0.0
C462 C 0.30865 0.81519 0.16831 0.0
C463 C 0.30666 0.74715 0.13035 0.0
N464 N 0.21639 0.73904 0.19072 0.0
N465 N 0.3873 0.82639 0.10552 0.0
H466 H 0.26802 0.67422 0.10887 0.0
H467 H 0.34328 0.72883 0.09815 0.0
H468 H 0.41384 0.86687 0.10271 0.0
H469 H 0.37942 0.80485 0.08688 0.0
H470 H 0.2195 0.76299 0.2068 0.0
H471 H 0.18085 0.69841 0.19333 0.0
H472 H 0.25433 0.83323 0.1852 0.0
H473 H 0.32438 0.88617 0.16941 0.0
C474 C 0.577 0.32244 0.47878 0.0
C475 C 0.54433 0.27699 0.49551 0.0
C476 C 0.55163 0.32821 0.53648 0.0
C477 C 0.57953 0.37234 0.51909 0.0
N478 N 0.60677 0.40801 0.47227 0.0
N479 N 0.48877 0.23318 0.53832 0.0
C480 C 0.58862 0.36841 0.48977 0.0
C481 C 0.52805 0.27884 0.5238 0.0
N482 N 0.59924 0.32254 0.45289 0.0
N483 N 0.55011 0.33396 0.56529 0.0
H484 H 0.46995 0.19612 0.52962 0.0
H485 H 0.4701 0.23128 0.55789 0.0
H486 H 0.56767 0.36963 0.57554 0.0
H487 H 0.53667 0.30475 0.5793 0.0
H488 H 0.62932 0.35647 0.44119 0.0
H489 H 0.59223 0.28983 0.44419 0.0
H490 H 0.60798 0.40492 0.45022 0.0
H491 H 0.61486 0.44196 0.47949 0.0
C492 C 0.40835 0.54723 0.82428 0.0
C493 C 0.41787 0.52106 0.84423 0.0
C494 C 0.31208 0.48362 0.8634 0.0
C495 C 0.30686 0.51613 0.84662 0.0
N496 N 0.33247 0.54604 0.79867 0.0
N497 N 0.37908 0.47192 0.88708 0.0
C498 C 0.35104 0.54007 0.82379 0.0
C499 C 0.36969 0.49158 0.86489 0.0
N500 N 0.45324 0.5784 0.80473 0.0
N501 N 0.25865 0.43812 0.87371 0.0
H502 H 0.42063 0.47872 0.89006 0.0
H503 H 0.34875 0.45449 0.90414 0.0
H504 H 0.21422 0.42258 0.86643 0.0
H505 H 0.25807 0.41081 0.88429 0.0
H506 H 0.45419 0.60465 0.79272 0.0
H507 H 0.4912 0.5802 0.80156 0.0
H508 H 0.35914 0.55929 0.78039 0.0
H509 H 0.28558 0.52768 0.79446 0.0
C510 C 0.93069 0.35912 0.17499 0.0
C511 C 0.9256 0.38492 0.15321 0.0
C512 C 0.81884 0.3003 0.14074 0.0
C513 C 0.82245 0.27563 0.16378 0.0
N514 N 0.87662 0.28567 0.20672 0.0
N515 N 0.86083 0.38201 0.11815 0.0
C516 C 0.87703 0.30629 0.18196 0.0
C517 C 0.86827 0.35609 0.13705 0.0
N518 N 0.98704 0.3849 0.18906 0.0
N519 N 0.76953 0.26999 0.12157 0.0
H520 H 0.89675 0.42182 0.11378 0.0
H521 H 0.81787 0.36515 0.1083 0.0
H522 H 0.73288 0.22934 0.12344 0.0
H523 H 0.7673 0.28413 0.10265 0.0
H524 H 0.99587 0.3662 0.20261 0.0
H525 H 1.02668 0.42417 0.18572 0.0
H526 H 0.91191 0.30777 0.22245 0.0
H527 H 0.83789 0.24786 0.21298 0.0
C528 C 0.07871 0.50691 0.04733 0.0
C529 C 0.0748 0.54356 0.06053 0.0
C530 C 0.07911 0.57646 0.01369 0.0
C531 C 0.08645 0.54188 0.00059 0.0
N532 N 0.10234 0.47957 0.00494 0.0
N533 N 0.0833 0.61998 0.05715 0.0
C534 C 0.08881 0.50857 0.01744 0.0
C535 C 0.07854 0.58033 0.04393 0.0
N536 N 0.07115 0.46962 0.06327 0.0
N537 N 0.07043 0.60431 -0.00286 0.0
H538 H 0.08282 0.62406 0.0792 0.0
H539 H 0.09331 0.65157 0.04653 0.0
H540 H 0.07091 0.60288 0.97496 0.0
H541 H 0.05759 0.62543 0.00517 0.0
H542 H 0.06613 0.43786 0.05466 0.0
H543 H 0.06609 0.46862 0.08524 0.0
H544 H 0.11142 0.45881 0.01627 0.0
H545 H 0.10901 0.47928 0.98313 0.0
C546 C 0.63073 0.07611 0.37183 0.0
C547 C 0.5874 0.02618 0.38449 0.0
C548 C 0.54287 0.98392 0.33705 0.0
C549 C 0.59233 0.0324 0.32443 0.0
N550 N 0.68927 0.12335 0.33004 0.0
N551 N 0.50879 0.93071 0.37853 0.0
C552 C 0.63763 0.07832 0.34187 0.0
C553 C 0.54458 0.9795 0.367 0.0
N554 N 0.66482 0.12172 0.38846 0.0
N555 N 0.49405 0.94218 0.32042 0.0
H556 H 0.5102 0.92543 0.40012 0.0
H557 H 0.48183 0.89532 0.36632 0.0
H558 H 0.49132 0.94423 0.29846 0.0
H559 H 0.45365 0.90761 0.32873 0.0
H560 H 0.6924 0.15944 0.3803 0.0
H561 H 0.66038 0.1216 0.41039 0.0
H562 H 0.72747 0.15582 0.34203 0.0
H563 H 0.69687 0.12674 0.30822 0.0
C564 C 0.60171 0.58287 0.74431 0.0
C565 C 0.59377 0.54089 0.75702 0.0
C566 C 0.60666 0.51316 0.71082 0.0
C567 C 0.61767 0.5566 0.69829 0.0
N568 N 0.63423 0.63712 0.70313 0.0
N569 N 0.60226 0.47332 0.75394 0.0
C570 C 0.6175 0.59271 0.71505 0.0
C571 C 0.60033 0.5082 0.74073 0.0
N572 N 0.59363 0.61295 0.76022 0.0
N573 N 0.59996 0.47547 0.69396 0.0
H574 H 0.59793 0.46838 0.77579 0.0
H575 H 0.61418 0.45291 0.74371 0.0
H576 H 0.60436 0.47764 0.67192 0.0
H577 H 0.58464 0.43972 0.70141 0.0
H578 H 0.59136 0.64014 0.75176 0.0
H579 H 0.58642 0.60899 0.78206 0.0
H580 H 0.64125 0.66782 0.71466 0.0
H581 H 0.64531 0.64513 0.68174 0.0
C582 C 0.51734 0.98773 0.56957 0.0
C583 C 0.5655 0.02918 0.55209 0.0
C584 C 0.64007 0.0673 0.59286 0.0
C585 C 0.59009 0.03085 0.61094 0.0
N586 N 0.47907 0.96022 0.61737 0.0
N587 N 0.66988 0.11609 0.55027 0.0
C588 C 0.52812 0.992 0.59954 0.0
C589 C 0.62636 0.07087 0.56447 0.0
N590 N 0.46195 0.94323 0.55765 0.0
N591 N 0.70097 0.09863 0.60278 0.0
H592 H 0.66077 0.12355 0.53069 0.0
H593 H 0.71235 0.14938 0.55958 0.0
H594 H 0.71287 0.09714 0.6235 0.0
H595 H 0.73952 0.12195 0.58964 0.0
H596 H 0.42861 0.90952 0.56899 0.0
H597 H 0.45154 0.93759 0.53594 0.0
H598 H 0.43204 0.93555 0.61062 0.0
H599 H 0.48519 0.96161 0.63936 0.0
C600 C 0.50603 0.44347 0.92413 0.0
C601 C 0.55962 0.49808 0.92242 0.0
C602 C 0.58497 0.50093 0.97277 0.0
C603 C 0.53485 0.44525 0.9733 0.0
N604 N 0.45679 0.36175 0.94775 0.0
N605 N 0.65736 0.57672 0.94373 0.0
C606 C 0.49817 0.416 0.94844 0.0
C607 C 0.60122 0.52643 0.94639 0.0
N608 N 0.46078 0.41812 0.90309 0.0
N609 N 0.6159 0.52958 -0.00251 0.0
H610 H 0.67157 0.5965 0.92471 0.0
H611 H 0.69229 0.59705 0.95968 0.0
H612 H 0.60566 0.51209 0.01711 0.0
H613 H 0.64816 0.5709 -0.00112 0.0
H614 H 0.41725 0.38012 0.90474 0.0
H615 H 0.46453 0.43709 0.88514 0.0
H616 H 0.43386 0.33855 0.92915 0.0
H617 H 0.45008 0.33994 0.9651 0.0
C618 C 0.14934 0.58268 0.24991 0.0
C619 C 0.0966 0.54226 0.23229 0.0
C620 C 1.03625 0.4941 0.27459 0.0
C621 C 0.08928 0.53399 0.29211 0.0
N622 N 0.19133 0.62123 0.29761 0.0
N623 N 0.98552 0.46705 0.22794 0.0
C624 C 0.14428 0.58 0.28008 0.0
C625 C 1.03855 0.50047 0.2447 0.0
N626 N 0.20471 0.62308 0.23768 0.0
N627 N 0.9846 0.44904 0.28642 0.0
H628 H 0.986 0.471 0.20617 0.0
H629 H 0.94048 0.43892 0.23574 0.0
H630 H 0.98032 0.44381 0.30831 0.0
H631 H 0.94764 0.41547 0.27457 0.0
H632 H 0.24727 0.65012 0.24892 0.0
H633 H 0.20864 0.62858 0.21582 0.0
H634 H 0.23011 0.65804 0.29046 0.0
H635 H 0.18933 0.62009 0.31975 0.0
loop_
_geom_bond_atom_site_label_1
_geom_bond_atom_site_label_2
_geom_bond_distance
_geom_bond_site_symmetry_2
_ccdc_geom_bond_type
Sm0 C2 2.846 . S
Sm0 O20 2.543 . S
Sm0 O21 2.450 . S
Sm0 O22 2.681 . S
Sm0 O23 2.464 . S
Sm0 O24 2.396 . S
Sm0 O28 2.386 . S
Sm0 O31 2.408 1_455 S
Sm1 C11 2.846 . S
Sm1 O22 2.386 1_655 S
Sm1 O25 2.408 1_655 S
Sm1 O26 2.543 . S
Sm1 O27 2.450 . S
Sm1 O28 2.681 1_655 S
Sm1 O29 2.464 . S
Sm1 O30 2.396 . S
C2 Sm0 2.846 . S
C2 C3 1.506 . S
C2 O20 1.261 . S
C2 O21 1.242 . S
C3 C2 1.506 . S
C3 C4 1.358 . S
C3 C8 1.382 . S
C4 C3 1.358 . S
C4 C5 1.385 . S
C4 H32 0.930 . S
C5 C4 1.385 . S
C5 C6 1.395 . S
C5 H33 0.929 . S
C6 C5 1.395 . S
C6 C7 1.335 . S
C7 C6 1.335 . S
C7 C8 1.398 . S
C7 H34 0.930 . S
C8 C3 1.382 . S
C8 C7 1.398 . S
C8 H35 0.929 . S
C9 O22 1.271 . S
C9 O23 1.251 . S
C10 O24 1.252 . S
C10 O25 1.272 . S
C11 Sm1 2.846 . S
C11 C12 1.506 . S
C11 O26 1.261 . S
C11 O27 1.242 . S
C12 C11 1.506 . S
C12 C13 1.358 . S
C12 C17 1.382 . S
C13 C12 1.358 . S
C13 C14 1.385 . S
C13 H36 0.930 . S
C14 C13 1.385 . S
C14 C15 1.395 . S
C14 H37 0.929 . S
C15 C14 1.395 . S
C15 C16 1.335 . S
C16 C15 1.335 . S
C16 C17 1.398 . S
C16 H38 0.930 . S
C17 C12 1.382 . S
C17 C16 1.398 . S
C17 H39 0.929 . S
C18 O28 1.271 . S
C18 O29 1.251 1_455 S
C19 O30 1.252 . S
C19 O31 1.272 . S
O20 Sm0 2.543 . S
O20 C2 1.261 . S
O21 Sm0 2.450 . S
O21 C2 1.242 . S
O22 Sm0 2.681 . S
O22 Sm1 2.386 1_455 S
O22 C9 1.271 . S
O23 Sm0 2.464 . S
O23 C9 1.251 . S
O24 Sm0 2.396 . S
O24 C10 1.252 . S
O25 Sm1 2.408 1_455 S
O25 C10 1.272 . S
O26 Sm1 2.543 . S
O26 C11 1.261 . S
O27 Sm1 2.450 . S
O27 C11 1.242 . S
O28 Sm0 2.386 . S
O28 Sm1 2.681 1_455 S
O28 C18 1.271 . S
O29 Sm1 2.464 . S
O29 C18 1.251 1_655 S
O30 Sm1 2.396 . S
O30 C19 1.252 . S
O31 Sm0 2.408 1_655 S
O31 C19 1.272 . S
H32 C4 0.930 . S
H33 C5 0.929 . S
H34 C7 0.930 . S
H35 C8 0.929 . S
H36 C13 0.930 . S
H37 C14 0.929 . S
H38 C16 0.930 . S
H39 C17 0.929 . S
Sm40 C42 2.846 . S
Sm40 O60 2.543 . S
Sm40 O61 2.450 . S
Sm40 O62 2.681 1_565 S
Sm40 O63 2.464 . S
Sm40 O64 2.396 . S
Sm40 O68 2.386 . S
Sm40 O71 2.408 1_565 S
Sm41 C51 2.846 . S
Sm41 O62 2.386 . S
Sm41 O65 2.408 1_545 S
Sm41 O66 2.543 . S
Sm41 O67 2.450 . S
Sm41 O68 2.681 1_545 S
Sm41 O69 2.464 . S
Sm41 O70 2.396 . S
C42 Sm40 2.846 . S
C42 C43 1.506 . S
C42 O60 1.261 . S
C42 O61 1.242 . S
C43 C42 1.506 . S
C43 C44 1.358 . S
C43 C48 1.382 . S
C44 C43 1.358 . S
C44 C45 1.385 . S
C44 H72 0.930 . S
C45 C44 1.385 . S
C45 C46 1.395 . S
C45 H73 0.929 . S
C46 C45 1.395 . S
C46 C47 1.335 . S
C47 C46 1.335 . S
C47 C48 1.398 . S
C47 H74 0.930 . S
C48 C43 1.382 . S
C48 C47 1.398 . S
C48 H75 0.929 . S
C49 O62 1.271 . S
C49 O63 1.251 1_545 S
C50 O64 1.252 . S
C50 O65 1.272 . S
C51 Sm41 2.846 . S
C51 C52 1.506 . S
C51 O66 1.261 . S
C51 O67 1.242 . S
C52 C51 1.506 . S
C52 C53 1.358 . S
C52 C57 1.382 . S
C53 C52 1.358 . S
C53 C54 1.385 . S
C53 H76 0.930 . S
C54 C53 1.385 . S
C54 C55 1.395 . S
C54 H77 0.929 . S
C55 C54 1.395 . S
C55 C56 1.335 . S
C56 C55 1.335 . S
C56 C57 1.398 . S
C56 H78 0.930 . S
C57 C52 1.382 . S
C57 C56 1.398 . S
C57 H79 0.929 . S
C58 O68 1.271 1_545 S
C58 O69 1.251 . S
C59 O70 1.252 . S
C59 O71 1.272 . S
O60 Sm40 2.543 . S
O60 C42 1.261 . S
O61 Sm40 2.450 . S
O61 C42 1.242 . S
O62 Sm40 2.681 1_545 S
O62 Sm41 2.386 . S
O62 C49 1.271 . S
O63 Sm40 2.464 . S
O63 C49 1.251 1_565 S
O64 Sm40 2.396 . S
O64 C50 1.252 . S
O65 Sm41 2.408 1_565 S
O65 C50 1.272 . S
O66 Sm41 2.543 . S
O66 C51 1.261 . S
O67 Sm41 2.450 . S
O67 C51 1.242 . S
O68 Sm40 2.386 . S
O68 Sm41 2.681 1_565 S
O68 C58 1.271 1_565 S
O69 Sm41 2.464 . S
O69 C58 1.251 . S
O70 Sm41 2.396 . S
O70 C59 1.252 . S
O71 Sm40 2.408 1_545 S
O71 C59 1.272 . S
H72 C44 0.930 . S
H73 C45 0.929 . S
H74 C47 0.930 . S
H75 C48 0.929 . S
H76 C53 0.930 . S
H77 C54 0.929 . S
H78 C56 0.930 . S
H79 C57 0.929 . S
Sm80 C82 2.846 . S
Sm80 O100 2.543 . S
Sm80 O101 2.450 . S
Sm80 O102 2.681 . S
Sm80 O103 2.464 . S
Sm80 O104 2.396 . S
Sm80 O108 2.386 . S
Sm80 O111 2.408 . S
Sm81 C91 2.846 . S
Sm81 O102 2.386 . S
Sm81 O105 2.408 . S
Sm81 O106 2.543 . S
Sm81 O107 2.450 . S
Sm81 O108 2.681 . S
Sm81 O109 2.464 . S
Sm81 O110 2.396 . S
C82 Sm80 2.846 . S
C82 C83 1.506 . S
C82 O100 1.261 . S
C82 O101 1.242 . S
C83 C82 1.506 . S
C83 C84 1.358 . S
C83 C88 1.382 . S
C84 C83 1.358 . S
C84 C85 1.385 . S
C84 H112 0.930 . S
C85 C84 1.385 . S
C85 C86 1.395 . S
C85 H113 0.929 . S
C86 C85 1.395 . S
C86 C87 1.335 . S
C87 C86 1.335 . S
C87 C88 1.398 . S
C87 H114 0.930 . S
C88 C83 1.382 . S
C88 C87 1.398 . S
C88 H115 0.929 . S
C89 O102 1.271 . S
C89 O103 1.251 . S
C90 O104 1.252 . S
C90 O105 1.272 . S
C91 Sm81 2.846 . S
C91 C92 1.506 . S
C91 O106 1.261 . S
C91 O107 1.242 . S
C92 C91 1.506 . S
C92 C93 1.358 . S
C92 C97 1.382 . S
C93 C92 1.358 . S
C93 C94 1.385 . S
C93 H116 0.930 . S
C94 C93 1.385 . S
C94 C95 1.395 . S
C94 H117 0.929 . S
C95 C94 1.395 . S
C95 C96 1.335 . S
C96 C95 1.335 . S
C96 C97 1.398 . S
C96 H118 0.930 . S
C97 C92 1.382 . S
C97 C96 1.398 . S
C97 H119 0.929 . S
C98 O108 1.271 . S
C98 O109 1.251 . S
C99 O110 1.252 . S
C99 O111 1.272 . S
O100 Sm80 2.543 . S
O100 C82 1.261 . S
O101 Sm80 2.450 . S
O101 C82 1.242 . S
O102 Sm80 2.681 . S
O102 Sm81 2.386 . S
O102 C89 1.271 . S
O103 Sm80 2.464 . S
O103 C89 1.251 . S
O104 Sm80 2.396 . S
O104 C90 1.252 . S
O105 Sm81 2.408 . S
O105 C90 1.272 . S
O106 Sm81 2.543 . S
O106 C91 1.261 . S
O107 Sm81 2.450 . S
O107 C91 1.242 . S
O108 Sm80 2.386 . S
O108 Sm81 2.681 . S
O108 C98 1.271 . S
O109 Sm81 2.464 . S
O109 C98 1.251 . S
O110 Sm81 2.396 . S
O110 C99 1.252 . S
O111 Sm80 2.408 . S
O111 C99 1.272 . S
H112 C84 0.930 . S
H113 C85 0.929 . S
H114 C87 0.930 . S
H115 C88 0.929 . S
H116 C93 0.930 . S
H117 C94 0.929 . S
H118 C96 0.930 . S
H119 C97 0.929 . S
P120 O131 1.490 . S
P120 C134 1.812 . S
P120 C140 1.803 1_565 S
P120 C146 1.819 1_565 S
H121 C135 0.941 . S
H122 C136 0.939 . S
H123 C138 0.940 . S
H124 C139 0.940 . S
H125 C141 0.939 . S
H126 C142 0.942 . S
H127 C144 0.940 . S
H128 C145 0.939 . S
H129 C147 0.941 . S
H130 C151 0.939 . S
O131 P120 1.490 . S
H132 C148 0.939 . S
H133 C150 0.940 . S
C134 P120 1.812 . S
C134 C135 1.389 . S
C134 C139 1.391 . S
C135 H121 0.941 . S
C135 C134 1.389 . S
C135 C136 1.397 . S
C136 H122 0.939 . S
C136 C135 1.397 . S
C136 C137 1.378 . S
C137 C136 1.378 . S
C137 C138 1.378 . S
C138 H123 0.940 . S
C138 C137 1.378 . S
C138 C139 1.396 . S
C139 H124 0.940 . S
C139 C134 1.391 . S
C139 C138 1.396 . S
C140 P120 1.803 1_545 S
C140 C141 1.378 . S
C140 C145 1.400 . S
C141 H125 0.939 . S
C141 C140 1.378 . S
C141 C142 1.361 . S
C142 H126 0.942 . S
C142 C141 1.361 . S
C142 C143 1.369 . S
C143 C142 1.369 . S
C143 C144 1.404 . S
C144 H127 0.940 . S
C144 C143 1.404 . S
C144 C145 1.389 . S
C145 H128 0.939 . S
C145 C140 1.400 . S
C145 C144 1.389 . S
C146 P120 1.819 1_545 S
C146 C147 1.391 1_545 S
C146 C151 1.391 . S
C147 H129 0.941 . S
C147 C146 1.391 1_565 S
C147 C148 1.396 . S
C148 H132 0.939 . S
C148 C147 1.396 . S
C148 C149 1.397 1_565 S
C149 C148 1.397 1_545 S
C149 C150 1.385 . S
C150 H133 0.940 . S
C150 C149 1.385 . S
C150 C151 1.388 . S
C151 H130 0.939 . S
C151 C146 1.391 . S
C151 C150 1.388 . S
P152 O163 1.490 . S
P152 C166 1.812 . S
P152 C172 1.803 . S
P152 C178 1.819 . S
H153 C167 0.941 . S
H154 C168 0.939 . S
H155 C170 0.940 . S
H156 C171 0.940 . S
H157 C173 0.939 . S
H158 C174 0.942 . S
H159 C176 0.940 . S
H160 C177 0.939 . S
H161 C179 0.941 . S
H162 C183 0.939 . S
O163 P152 1.490 . S
H164 C180 0.939 . S
H165 C182 0.940 . S
C166 P152 1.812 . S
C166 C167 1.389 . S
C166 C171 1.391 . S
C167 H153 0.941 . S
C167 C166 1.389 . S
C167 C168 1.397 . S
C168 H154 0.939 . S
C168 C167 1.397 . S
C168 C169 1.378 . S
C169 C168 1.378 . S
C169 C170 1.378 . S
C170 H155 0.940 . S
C170 C169 1.378 . S
C170 C171 1.396 . S
C171 H156 0.940 . S
C171 C166 1.391 . S
C171 C170 1.396 . S
C172 P152 1.803 . S
C172 C173 1.378 . S
C172 C177 1.400 . S
C173 H157 0.939 . S
C173 C172 1.378 . S
C173 C174 1.361 . S
C174 H158 0.942 . S
C174 C173 1.361 . S
C174 C175 1.369 . S
C175 C174 1.369 . S
C175 C176 1.404 . S
C176 H159 0.940 . S
C176 C175 1.404 . S
C176 C177 1.389 . S
C177 H160 0.939 . S
C177 C172 1.400 . S
C177 C176 1.389 . S
C178 P152 1.819 . S
C178 C179 1.391 . S
C178 C183 1.391 . S
C179 H161 0.941 . S
C179 C178 1.391 . S
C179 C180 1.396 . S
C180 H164 0.939 . S
C180 C179 1.396 . S
C180 C181 1.397 . S
C181 C180 1.397 . S
C181 C182 1.385 . S
C182 H165 0.940 . S
C182 C181 1.385 . S
C182 C183 1.388 . S
C183 H162 0.939 . S
C183 C178 1.391 . S
C183 C182 1.388 . S
P184 O195 1.490 . S
P184 C198 1.812 . S
P184 C204 1.803 . S
P184 C210 1.819 . S
H185 C199 0.941 . S
H186 C200 0.939 . S
H187 C202 0.940 . S
H188 C203 0.940 . S
H189 C205 0.939 . S
H190 C206 0.942 . S
H191 C208 0.940 . S
H192 C209 0.939 1_455 S
H193 C211 0.941 . S
H194 C215 0.939 1_655 S
O195 P184 1.490 . S
H196 C212 0.939 . S
H197 C214 0.940 1_655 S
C198 P184 1.812 . S
C198 C199 1.389 . S
C198 C203 1.391 . S
C199 H185 0.941 . S
C199 C198 1.389 . S
C199 C200 1.397 . S
C200 H186 0.939 . S
C200 C199 1.397 . S
C200 C201 1.378 . S
C201 C200 1.378 . S
C201 C202 1.378 . S
C202 H187 0.940 . S
C202 C201 1.378 . S
C202 C203 1.396 . S
C203 H188 0.940 . S
C203 C198 1.391 . S
C203 C202 1.396 . S
C204 P184 1.803 . S
C204 C205 1.378 . S
C204 C209 1.400 1_455 S
C205 H189 0.939 . S
C205 C204 1.378 . S
C205 C206 1.361 1_455 S
C206 H190 0.942 . S
C206 C205 1.361 1_655 S
C206 C207 1.369 . S
C207 C206 1.369 . S
C207 C208 1.404 . S
C208 H191 0.940 . S
C208 C207 1.404 . S
C208 C209 1.389 . S
C209 H192 0.939 1_655 S
C209 C204 1.400 1_655 S
C209 C208 1.389 . S
C210 P184 1.819 . S
C210 C211 1.391 . S
C210 C215 1.391 . S
C211 H193 0.941 . S
C211 C210 1.391 . S
C211 C212 1.396 . S
C212 H196 0.939 . S
C212 C211 1.396 . S
C212 C213 1.397 . S
C213 C212 1.397 . S
C213 C214 1.385 . S
C214 H197 0.940 1_455 S
C214 C213 1.385 . S
C214 C215 1.388 . S
C215 H194 0.939 1_455 S
C215 C210 1.391 . S
C215 C214 1.388 . S
P216 O227 1.490 . S
P216 C230 1.812 . S
P216 C236 1.803 1_455 S
P216 C242 1.819 . S
H217 C231 0.941 . S
H218 C232 0.939 . S
H219 C234 0.940 . S
H220 C235 0.940 . S
H221 C237 0.939 . S
H222 C238 0.942 . S
H223 C240 0.940 . S
H224 C241 0.939 . S
H225 C243 0.941 . S
H226 C247 0.939 . S
O227 P216 1.490 . S
H228 C244 0.939 . S
H229 C246 0.940 . S
C230 P216 1.812 . S
C230 C231 1.389 . S
C230 C235 1.391 . S
C231 H217 0.941 . S
C231 C230 1.389 . S
C231 C232 1.397 . S
C232 H218 0.939 . S
C232 C231 1.397 . S
C232 C233 1.378 . S
C233 C232 1.378 . S
C233 C234 1.378 . S
C234 H219 0.940 . S
C234 C233 1.378 . S
C234 C235 1.396 . S
C235 H220 0.940 . S
C235 C230 1.391 . S
C235 C234 1.396 . S
C236 P216 1.803 1_655 S
C236 C237 1.378 . S
C236 C241 1.400 . S
C237 H221 0.939 . S
C237 C236 1.378 . S
C237 C238 1.361 . S
C238 H222 0.942 . S
C238 C237 1.361 . S
C238 C239 1.369 . S
C239 C238 1.369 . S
C239 C240 1.404 . S
C240 H223 0.940 . S
C240 C239 1.404 . S
C240 C241 1.389 . S
C241 H224 0.939 . S
C241 C236 1.400 . S
C241 C240 1.389 . S
C242 P216 1.819 . S
C242 C243 1.391 . S
C242 C247 1.391 1_455 S
C243 H225 0.941 . S
C243 C242 1.391 . S
C243 C244 1.396 . S
C244 H228 0.939 . S
C244 C243 1.396 . S
C244 C245 1.397 . S
C245 C244 1.397 . S
C245 C246 1.385 1_455 S
C246 H229 0.940 . S
C246 C245 1.385 1_655 S
C246 C247 1.388 . S
C247 H226 0.939 . S
C247 C242 1.391 1_655 S
C247 C246 1.388 . S
P248 O259 1.490 . S
P248 C262 1.812 . S
P248 C268 1.803 1_545 S
P248 C274 1.819 . S
H249 C263 0.941 . S
H250 C264 0.939 . S
H251 C266 0.940 . S
H252 C267 0.940 . S
H253 C269 0.939 . S
H254 C270 0.942 . S
H255 C272 0.940 . S
H256 C273 0.939 . S
H257 C275 0.941 . S
H258 C279 0.939 . S
O259 P248 1.490 . S
H260 C276 0.939 . S
H261 C278 0.940 . S
C262 P248 1.812 . S
C262 C263 1.389 . S
C262 C267 1.391 . S
C263 H249 0.941 . S
C263 C262 1.389 . S
C263 C264 1.397 . S
C264 H250 0.939 . S
C264 C263 1.397 . S
C264 C265 1.378 . S
C265 C264 1.378 . S
C265 C266 1.378 . S
C266 H251 0.940 . S
C266 C265 1.378 . S
C266 C267 1.396 . S
C267 H252 0.940 . S
C267 C262 1.391 . S
C267 C266 1.396 . S
C268 P248 1.803 1_565 S
C268 C269 1.378 . S
C268 C273 1.400 . S
C269 H253 0.939 . S
C269 C268 1.378 . S
C269 C270 1.361 . S
C270 H254 0.942 . S
C270 C269 1.361 . S
C270 C271 1.369 . S
C271 C270 1.369 . S
C271 C272 1.404 . S
C272 H255 0.940 . S
C272 C271 1.404 . S
C272 C273 1.389 . S
C273 H256 0.939 . S
C273 C268 1.400 . S
C273 C272 1.389 . S
C274 P248 1.819 . S
C274 C275 1.391 . S
C274 C279 1.391 1_545 S
C275 H257 0.941 . S
C275 C274 1.391 . S
C275 C276 1.396 . S
C276 H260 0.939 . S
C276 C275 1.396 . S
C276 C277 1.397 . S
C277 C276 1.397 . S
C277 C278 1.385 1_545 S
C278 H261 0.940 . S
C278 C277 1.385 1_565 S
C278 C279 1.388 . S
C279 H258 0.939 . S
C279 C274 1.391 1_565 S
C279 C278 1.388 . S
P280 O291 1.490 . S
P280 C294 1.812 . S
P280 C300 1.803 . S
P280 C306 1.819 . S
H281 C295 0.941 . S
H282 C296 0.939 . S
H283 C298 0.940 . S
H284 C299 0.940 . S
H285 C301 0.939 . S
H286 C302 0.942 . S
H287 C304 0.940 . S
H288 C305 0.939 . S
H289 C307 0.941 . S
H290 C311 0.939 . S
O291 P280 1.490 . S
H292 C308 0.962 . S
H293 C310 0.940 . S
C294 P280 1.812 . S
C294 C295 1.389 . S
C294 C299 1.391 . S
C295 H281 0.941 . S
C295 C294 1.389 . S
C295 C296 1.397 . S
C296 H282 0.939 . S
C296 C295 1.397 . S
C296 C297 1.378 . S
C297 C296 1.378 . S
C297 C298 1.378 . S
C298 H283 0.940 . S
C298 C297 1.378 . S
C298 C299 1.396 . S
C299 H284 0.940 . S
C299 C294 1.391 . S
C299 C298 1.396 . S
C300 P280 1.803 . S
C300 C301 1.378 . S
C300 C305 1.400 . S
C301 H285 0.939 . S
C301 C300 1.378 . S
C301 C302 1.361 . S
C302 H286 0.942 . S
C302 C301 1.361 . S
C302 C303 1.369 . S
C303 C302 1.369 . S
C303 C304 1.404 . S
C304 H287 0.940 . S
C304 C303 1.404 . S
C304 C305 1.389 . S
C305 H288 0.939 . S
C305 C300 1.400 . S
C305 C304 1.389 . S
C306 P280 1.819 . S
C306 C307 1.391 . S
C306 C311 1.391 . S
C307 H289 0.941 . S
C307 C306 1.391 . S
C307 C308 1.365 1_554 S
C308 H292 0.962 . S
C308 C307 1.365 1_556 S
C308 C309 1.407 . S
C309 C308 1.407 . S
C309 C310 1.385 1_556 S
C310 H293 0.940 . S
C310 C309 1.385 1_554 S
C310 C311 1.388 . S
C311 H290 0.939 . S
C311 C306 1.391 . S
C311 C310 1.388 . S
C312 C313 1.363 . S
C312 C318 1.379 . S
C312 N320 1.356 . S
C313 C312 1.363 . S
C313 C319 1.363 . S
C314 C315 1.363 . S
C314 C319 1.379 . S
C314 N321 1.356 . S
C315 C314 1.363 . S
C315 C318 1.363 . S
N316 C318 1.356 . S
N316 H328 0.984 . S
N316 H329 0.985 . S
N317 C319 1.356 . S
N317 H322 0.984 . S
N317 H323 0.985 . S
C318 C312 1.379 . S
C318 C315 1.363 . S
C318 N316 1.356 . S
C319 C313 1.363 . S
C319 C314 1.379 . S
C319 N317 1.356 . S
N320 C312 1.356 . S
N320 H326 0.984 . S
N320 H327 0.984 . S
N321 C314 1.356 . S
N321 H324 0.984 . S
N321 H325 0.985 . S
H322 N317 0.984 . S
H323 N317 0.985 . S
H324 N321 0.984 . S
H325 N321 0.985 . S
H326 N320 0.984 . S
H327 N320 0.984 . S
H328 N316 0.984 . S
H329 N316 0.985 . S
C330 C331 1.363 . S
C330 C336 1.379 . S
C330 N338 1.356 . S
C331 C330 1.363 . S
C331 C337 1.363 . S
C332 C333 1.363 . S
C332 C337 1.379 . S
C332 N339 1.356 . S
C333 C332 1.363 . S
C333 C336 1.363 . S
N334 C336 1.356 . S
N334 H346 0.984 . S
N334 H347 0.985 . S
N335 C337 1.356 . S
N335 H340 0.984 . S
N335 H341 0.985 . S
C336 C330 1.379 . S
C336 C333 1.363 . S
C336 N334 1.356 . S
C337 C331 1.363 . S
C337 C332 1.379 . S
C337 N335 1.356 . S
N338 C330 1.356 . S
N338 H344 0.984 . S
N338 H345 0.984 . S
N339 C332 1.356 . S
N339 H342 0.984 . S
N339 H343 0.985 . S
H340 N335 0.984 . S
H341 N335 0.985 . S
H342 N339 0.984 . S
H343 N339 0.985 . S
H344 N338 0.984 . S
H345 N338 0.984 . S
H346 N334 0.984 . S
H347 N334 0.985 . S
C348 C349 1.363 . S
C348 C354 1.379 . S
C348 N356 1.356 . S
C349 C348 1.363 . S
C349 C355 1.363 . S
C350 C351 1.363 . S
C350 C355 1.379 . S
C350 N357 1.356 . S
C351 C350 1.363 . S
C351 C354 1.363 . S
N352 C354 1.356 . S
N352 H364 0.984 . S
N352 H365 0.985 . S
N353 C355 1.356 . S
N353 H358 0.984 . S
N353 H359 0.985 . S
C354 C348 1.379 . S
C354 C351 1.363 . S
C354 N352 1.356 . S
C355 C349 1.363 . S
C355 C350 1.379 . S
C355 N353 1.356 . S
N356 C348 1.356 . S
N356 H362 0.984 . S
N356 H363 0.984 . S
N357 C350 1.356 . S
N357 H360 0.984 . S
N357 H361 0.985 . S
H358 N353 0.984 . S
H359 N353 0.985 . S
H360 N357 0.984 . S
H361 N357 0.985 . S
H362 N356 0.984 . S
H363 N356 0.984 . S
H364 N352 0.984 . S
H365 N352 0.985 . S
C366 C367 1.363 . S
C366 C372 1.379 . S
C366 N374 1.356 . S
C367 C366 1.363 . S
C367 C373 1.363 . S
C368 C369 1.363 . S
C368 C373 1.379 . S
C368 N375 1.356 . S
C369 C368 1.363 . S
C369 C372 1.363 . S
N370 C372 1.356 . S
N370 H382 0.984 . S
N370 H383 0.985 . S
N371 C373 1.356 . S
N371 H376 0.984 . S
N371 H377 0.985 . S
C372 C366 1.379 . S
C372 C369 1.363 . S
C372 N370 1.356 . S
C373 C367 1.363 . S
C373 C368 1.379 . S
C373 N371 1.356 . S
N374 C366 1.356 . S
N374 H380 0.984 . S
N374 H381 0.984 . S
N375 C368 1.356 . S
N375 H378 0.984 . S
N375 H379 0.985 . S
H376 N371 0.984 . S
H377 N371 0.985 . S
H378 N375 0.984 . S
H379 N375 0.985 . S
H380 N374 0.984 . S
H381 N374 0.984 . S
H382 N370 0.984 . S
H383 N370 0.985 . S
C384 C385 1.363 . S
C384 C390 1.379 . S
C384 N392 1.356 . S
C385 C384 1.363 . S
C385 C391 1.363 . S
C386 C387 1.363 . S
C386 C391 1.379 . S
C386 N393 1.356 . S
C387 C386 1.363 . S
C387 C390 1.363 . S
N388 C390 1.356 . S
N388 H400 0.984 . S
N388 H401 0.985 . S
N389 C391 1.356 . S
N389 H394 0.984 . S
N389 H395 0.985 . S
C390 C384 1.379 . S
C390 C387 1.363 . S
C390 N388 1.356 . S
C391 C385 1.363 . S
C391 C386 1.379 . S
C391 N389 1.356 . S
N392 C384 1.356 . S
N392 H398 0.984 . S
N392 H399 0.984 . S
N393 C386 1.356 . S
N393 H396 0.984 . S
N393 H397 0.985 . S
H394 N389 0.984 . S
H395 N389 0.985 . S
H396 N393 0.984 . S
H397 N393 0.985 . S
H398 N392 0.984 . S
H399 N392 0.984 . S
H400 N388 0.984 . S
H401 N388 0.985 . S
C402 C403 1.363 . S
C402 C408 1.379 . S
C402 N410 1.356 . S
C403 C402 1.363 . S
C403 C409 1.363 . S
C404 C405 1.363 . S
C404 C409 1.379 . S
C404 N411 1.356 . S
C405 C404 1.363 . S
C405 C408 1.363 . S
N406 C408 1.356 . S
N406 H418 0.984 . S
N406 H419 0.985 . S
N407 C409 1.356 . S
N407 H412 0.984 . S
N407 H413 0.985 . S
C408 C402 1.379 . S
C408 C405 1.363 . S
C408 N406 1.356 . S
C409 C403 1.363 . S
C409 C404 1.379 . S
C409 N407 1.356 . S
N410 C402 1.356 . S
N410 H416 0.984 . S
N410 H417 0.984 . S
N411 C404 1.356 . S
N411 H414 0.984 . S
N411 H415 0.985 . S
H412 N407 0.984 . S
H413 N407 0.985 . S
H414 N411 0.984 . S
H415 N411 0.985 . S
H416 N410 0.984 . S
H417 N410 0.984 . S
H418 N406 0.984 . S
H419 N406 0.985 . S
C420 C421 1.363 . S
C420 C426 1.379 . S
C420 N428 1.356 . S
C421 C420 1.363 . S
C421 C427 1.363 . S
C422 C423 1.363 . S
C422 C427 1.379 . S
C422 N429 1.356 . S
C423 C422 1.363 . S
C423 C426 1.363 . S
N424 C426 1.356 . S
N424 H436 0.984 . S
N424 H437 0.985 . S
N425 C427 1.356 . S
N425 H430 0.984 . S
N425 H431 0.985 . S
C426 C420 1.379 . S
C426 C423 1.363 . S
C426 N424 1.356 . S
C427 C421 1.363 . S
C427 C422 1.379 . S
C427 N425 1.356 . S
N428 C420 1.356 . S
N428 H434 0.984 . S
N428 H435 0.984 . S
N429 C422 1.356 . S
N429 H432 0.984 . S
N429 H433 0.985 . S
H430 N425 0.984 . S
H431 N425 0.985 . S
H432 N429 0.984 . S
H433 N429 0.985 . S
H434 N428 0.984 . S
H435 N428 0.984 . S
H436 N424 0.984 . S
H437 N424 0.985 . S
C438 C439 1.363 . S
C438 C444 1.379 . S
C438 N446 1.356 . S
C439 C438 1.363 . S
C439 C445 1.363 . S
C440 C441 1.363 . S
C440 C445 1.379 . S
C440 N447 1.356 . S
C441 C440 1.363 . S
C441 C444 1.363 . S
N442 C444 1.356 . S
N442 H454 0.984 . S
N442 H455 0.985 . S
N443 C445 1.356 . S
N443 H448 0.984 . S
N443 H449 0.985 . S
C444 C438 1.379 . S
C444 C441 1.363 . S
C444 N442 1.356 . S
C445 C439 1.363 . S
C445 C440 1.379 . S
C445 N443 1.356 . S
N446 C438 1.356 . S
N446 H452 0.984 . S
N446 H453 0.984 . S
N447 C440 1.356 . S
N447 H450 0.984 . S
N447 H451 0.985 . S
H448 N443 0.984 . S
H449 N443 0.985 . S
H450 N447 0.984 . S
H451 N447 0.985 . S
H452 N446 0.984 . S
H453 N446 0.984 . S
H454 N442 0.984 . S
H455 N442 0.985 . S
C456 C457 1.363 . S
C456 C462 1.379 . S
C456 N464 1.356 . S
C457 C456 1.363 . S
C457 C463 1.363 . S
C458 C459 1.363 . S
C458 C463 1.379 . S
C458 N465 1.356 . S
C459 C458 1.363 . S
C459 C462 1.363 . S
N460 C462 1.356 . S
N460 H472 0.984 . S
N460 H473 0.985 . S
N461 C463 1.356 . S
N461 H466 0.984 . S
N461 H467 0.985 . S
C462 C456 1.379 . S
C462 C459 1.363 . S
C462 N460 1.356 . S
C463 C457 1.363 . S
C463 C458 1.379 . S
C463 N461 1.356 . S
N464 C456 1.356 . S
N464 H470 0.984 . S
N464 H471 0.984 . S
N465 C458 1.356 . S
N465 H468 0.984 . S
N465 H469 0.985 . S
H466 N461 0.984 . S
H467 N461 0.985 . S
H468 N465 0.984 . S
H469 N465 0.985 . S
H470 N464 0.984 . S
H471 N464 0.984 . S
H472 N460 0.984 . S
H473 N460 0.985 . S
C474 C475 1.363 . S
C474 C480 1.379 . S
C474 N482 1.356 . S
C475 C474 1.363 . S
C475 C481 1.363 . S
C476 C477 1.363 . S
C476 C481 1.379 . S
C476 N483 1.356 . S
C477 C476 1.363 . S
C477 C480 1.363 . S
N478 C480 1.356 . S
N478 H490 0.984 . S
N478 H491 0.985 . S
N479 C481 1.356 . S
N479 H484 0.984 . S
N479 H485 0.985 . S
C480 C474 1.379 . S
C480 C477 1.363 . S
C480 N478 1.356 . S
C481 C475 1.363 . S
C481 C476 1.379 . S
C481 N479 1.356 . S
N482 C474 1.356 . S
N482 H488 0.984 . S
N482 H489 0.984 . S
N483 C476 1.356 . S
N483 H486 0.984 . S
N483 H487 0.985 . S
H484 N479 0.984 . S
H485 N479 0.985 . S
H486 N483 0.984 . S
H487 N483 0.985 . S
H488 N482 0.984 . S
H489 N482 0.984 . S
H490 N478 0.984 . S
H491 N478 0.985 . S
C492 C493 1.363 . S
C492 C498 1.379 . S
C492 N500 1.356 . S
C493 C492 1.363 . S
C493 C499 1.363 . S
C494 C495 1.363 . S
C494 C499 1.379 . S
C494 N501 1.356 . S
C495 C494 1.363 . S
C495 C498 1.363 . S
N496 C498 1.356 . S
N496 H508 0.984 . S
N496 H509 0.985 . S
N497 C499 1.356 . S
N497 H502 0.984 . S
N497 H503 0.985 . S
C498 C492 1.379 . S
C498 C495 1.363 . S
C498 N496 1.356 . S
C499 C493 1.363 . S
C499 C494 1.379 . S
C499 N497 1.356 . S
N500 C492 1.356 . S
N500 H506 0.984 . S
N500 H507 0.984 . S
N501 C494 1.356 . S
N501 H504 0.984 . S
N501 H505 0.985 . S
H502 N497 0.984 . S
H503 N497 0.985 . S
H504 N501 0.984 . S
H505 N501 0.985 . S
H506 N500 0.984 . S
H507 N500 0.984 . S
H508 N496 0.984 . S
H509 N496 0.985 . S
C510 C511 1.363 . S
C510 C516 1.379 . S
C510 N518 1.356 . S
C511 C510 1.363 . S
C511 C517 1.363 . S
C512 C513 1.363 . S
C512 C517 1.379 . S
C512 N519 1.356 . S
C513 C512 1.363 . S
C513 C516 1.363 . S
N514 C516 1.356 . S
N514 H526 0.984 . S
N514 H527 0.985 . S
N515 C517 1.356 . S
N515 H520 0.984 . S
N515 H521 0.985 . S
C516 C510 1.379 . S
C516 C513 1.363 . S
C516 N514 1.356 . S
C517 C511 1.363 . S
C517 C512 1.379 . S
C517 N515 1.356 . S
N518 C510 1.356 . S
N518 H524 0.984 . S
N518 H525 0.984 . S
N519 C512 1.356 . S
N519 H522 0.984 . S
N519 H523 0.985 . S
H520 N515 0.984 . S
H521 N515 0.985 . S
H522 N519 0.984 . S
H523 N519 0.985 . S
H524 N518 0.984 . S
H525 N518 0.984 . S
H526 N514 0.984 . S
H527 N514 0.985 . S
C528 C529 1.363 . S
C528 C534 1.379 . S
C528 N536 1.356 . S
C529 C528 1.363 . S
C529 C535 1.363 . S
C530 C531 1.363 . S
C530 C535 1.379 . S
C530 N537 1.356 . S
C531 C530 1.363 . S
C531 C534 1.363 . S
N532 C534 1.356 . S
N532 H544 0.984 . S
N532 H545 0.985 1_554 S
N533 C535 1.356 . S
N533 H538 0.984 . S
N533 H539 0.985 . S
C534 C528 1.379 . S
C534 C531 1.363 . S
C534 N532 1.356 . S
C535 C529 1.363 . S
C535 C530 1.379 . S
C535 N533 1.356 . S
N536 C528 1.356 . S
N536 H542 0.984 . S
N536 H543 0.984 . S
N537 C530 1.356 . S
N537 H540 0.984 1_554 S
N537 H541 0.985 . S
H538 N533 0.984 . S
H539 N533 0.985 . S
H540 N537 0.984 1_556 S
H541 N537 0.985 . S
H542 N536 0.984 . S
H543 N536 0.984 . S
H544 N532 0.984 . S
H545 N532 0.985 1_556 S
C546 C547 1.363 . S
C546 C552 1.379 . S
C546 N554 1.356 . S
C547 C546 1.363 . S
C547 C553 1.363 1_545 S
C548 C549 1.363 1_565 S
C548 C553 1.379 . S
C548 N555 1.356 . S
C549 C548 1.363 1_545 S
C549 C552 1.363 . S
N550 C552 1.356 . S
N550 H562 0.984 . S
N550 H563 0.985 . S
N551 C553 1.356 . S
N551 H556 0.984 . S
N551 H557 0.985 . S
C552 C546 1.379 . S
C552 C549 1.363 . S
C552 N550 1.356 . S
C553 C547 1.363 1_565 S
C553 C548 1.379 . S
C553 N551 1.356 . S
N554 C546 1.356 . S
N554 H560 0.984 . S
N554 H561 0.984 . S
N555 C548 1.356 . S
N555 H558 0.984 . S
N555 H559 0.985 . S
H556 N551 0.984 . S
H557 N551 0.985 . S
H558 N555 0.984 . S
H559 N555 0.985 . S
H560 N554 0.984 . S
H561 N554 0.984 . S
H562 N550 0.984 . S
H563 N550 0.985 . S
C564 C565 1.363 . S
C564 C570 1.379 . S
C564 N572 1.356 . S
C565 C564 1.363 . S
C565 C571 1.363 . S
C566 C567 1.363 . S
C566 C571 1.379 . S
C566 N573 1.356 . S
C567 C566 1.363 . S
C567 C570 1.363 . S
N568 C570 1.356 . S
N568 H580 0.984 . S
N568 H581 0.985 . S
N569 C571 1.356 . S
N569 H574 0.984 . S
N569 H575 0.985 . S
C570 C564 1.379 . S
C570 C567 1.363 . S
C570 N568 1.356 . S
C571 C565 1.363 . S
C571 C566 1.379 . S
C571 N569 1.356 . S
N572 C564 1.356 . S
N572 H578 0.984 . S
N572 H579 0.984 . S
N573 C566 1.356 . S
N573 H576 0.984 . S
N573 H577 0.985 . S
H574 N569 0.984 . S
H575 N569 0.985 . S
H576 N573 0.984 . S
H577 N573 0.985 . S
H578 N572 0.984 . S
H579 N572 0.984 . S
H580 N568 0.984 . S
H581 N568 0.985 . S
C582 C583 1.363 1_565 S
C582 C588 1.379 . S
C582 N590 1.356 . S
C583 C582 1.363 1_545 S
C583 C589 1.363 . S
C584 C585 1.363 1_545 S
C584 C589 1.379 . S
C584 N591 1.356 . S
C585 C584 1.363 1_565 S
C585 C588 1.363 . S
N586 C588 1.356 . S
N586 H598 0.984 . S
N586 H599 0.985 . S
N587 C589 1.356 . S
N587 H592 0.984 . S
N587 H593 0.985 . S
C588 C582 1.379 . S
C588 C585 1.363 . S
C588 N586 1.356 . S
C589 C583 1.363 . S
C589 C584 1.379 . S
C589 N587 1.356 . S
N590 C582 1.356 . S
N590 H596 0.984 . S
N590 H597 0.984 . S
N591 C584 1.356 . S
N591 H594 0.984 . S
N591 H595 0.985 . S
H592 N587 0.984 . S
H593 N587 0.985 . S
H594 N591 0.984 . S
H595 N591 0.985 . S
H596 N590 0.984 . S
H597 N590 0.984 . S
H598 N586 0.984 . S
H599 N586 0.985 . S
C600 C601 1.363 . S
C600 C606 1.379 . S
C600 N608 1.356 . S
C601 C600 1.363 . S
C601 C607 1.363 . S
C602 C603 1.363 . S
C602 C607 1.379 . S
C602 N609 1.356 . S
C603 C602 1.363 . S
C603 C606 1.363 . S
N604 C606 1.356 . S
N604 H616 0.984 . S
N604 H617 0.985 . S
N605 C607 1.356 . S
N605 H610 0.984 . S
N605 H611 0.985 . S
C606 C600 1.379 . S
C606 C603 1.363 . S
C606 N604 1.356 . S
C607 C601 1.363 . S
C607 C602 1.379 . S
C607 N605 1.356 . S
N608 C600 1.356 . S
N608 H614 0.984 . S
N608 H615 0.984 . S
N609 C602 1.356 . S
N609 H612 0.984 1_556 S
N609 H613 0.985 . S
H610 N605 0.984 . S
H611 N605 0.985 . S
H612 N609 0.984 1_554 S
H613 N609 0.985 . S
H614 N608 0.984 . S
H615 N608 0.984 . S
H616 N604 0.984 . S
H617 N604 0.985 . S
C618 C619 1.363 . S
C618 C624 1.379 . S
C618 N626 1.356 . S
C619 C618 1.363 . S
C619 C625 1.363 1_455 S
C620 C621 1.363 1_655 S
C620 C625 1.379 . S
C620 N627 1.356 . S
C621 C620 1.363 1_455 S
C621 C624 1.363 . S
N622 C624 1.356 . S
N622 H634 0.984 . S
N622 H635 0.985 . S
N623 C625 1.356 . S
N623 H628 0.984 . S
N623 H629 0.985 . S
C624 C618 1.379 . S
C624 C621 1.363 . S
C624 N622 1.356 . S
C625 C619 1.363 1_655 S
C625 C620 1.379 . S
C625 N623 1.356 . S
N626 C618 1.356 . S
N626 H632 0.984 . S
N626 H633 0.984 . S
N627 C620 1.356 . S
N627 H630 0.984 . S
N627 H631 0.985 . S
H628 N623 0.984 . S
H629 N623 0.985 . S
H630 N627 0.984 . S
H631 N627 0.985 . S
H632 N626 0.984 . S
H633 N626 0.984 . S
H634 N622 0.984 . S
H635 N622 0.985 . S
C313 C6 0.927 . S
C315 C303 1.055 . S
C331 C59 1.971 . S
C333 C239 1.904 . S
C349 C86 1.394 . S
C351 C271 1.383 . S
C367 C15 0.743 . S
C369 C297 0.738 . S
C387 C233 1.960 . S
C385 C50 2.047 . S
C405 C265 1.385 . S
C403 C95 1.357 . S
C421 C46 1.319 . S
C423 C175 1.356 . S
C439 C99 3.116 . S
C441 C207 3.036 . S
C457 C10 2.079 . S
C459 C137 1.999 . S
C477 C169 1.394 . S
C475 C55 1.357 . S
C495 C201 3.041 . S
C493 C90 3.078 . S
C511 C19 1.973 . S
C513 C143 1.938 . S
C531 C213 1.762 1_554 S
C529 C18 1.730 . S
C547 C49 1.324 . S
C549 C149 1.339 . S
C565 C98 1.450 . S
C567 C181 1.478 . S
C585 C277 1.439 1_565 S
C583 C58 1.438 . S
C603 C309 1.062 . S
C601 C89 1.056 . S
C619 C9 1.313 . S
C621 C245 1.319 . S
