# Generated by pormake.
# Topology rtl, (3,6)-cn, num edge types: 1
# Building blocks:
#     Node 0, Type 0, BuildingBlock: CUQRIR_clean_linker_1, # of connection points: 3
#     Node 1, Type 0, BuildingBlock: CUQRIR_clean_linker_1, # of connection points: 3
#     Node 2, Type 0, BuildingBlock: CUQRIR_clean_linker_1, # of connection points: 3
#     Node 3, Type 0, BuildingBlock: CUQRIR_clean_linker_1, # of connection points: 3
#     Node 4, Type 1, BuildingBlock: LEVNOQ01_clean_sbu_1, # of connection points: 6
#     Node 5, Type 1, BuildingBlock: LEVNOQ01_clean_sbu_1, # of connection points: 6
#     Edge 6, Type (0, 1), BuildingBlock: EZIPEK_clean_linker_0, # of connection points: 2
#     Edge 7, Type (0, 1), BuildingBlock: EZIPEK_clean_linker_0, # of connection points: 2
#     Edge 8, Type (0, 1), BuildingBlock: EZIPEK_clean_linker_0, # of connection points: 2
#     Edge 9, Type (0, 1), BuildingBlock: EZIPEK_clean_linker_0, # of connection points: 2
#     Edge 10, Type (0, 1), BuildingBlock: EZIPEK_clean_linker_0, # of connection points: 2
#     Edge 11, Type (0, 1), BuildingBlock: EZIPEK_clean_linker_0, # of connection points: 2
#     Edge 12, Type (0, 1), BuildingBlock: EZIPEK_clean_linker_0, # of connection points: 2
#     Edge 13, Type (0, 1), BuildingBlock: EZIPEK_clean_linker_0, # of connection points: 2
#     Edge 14, Type (0, 1), BuildingBlock: EZIPEK_clean_linker_0, # of connection points: 2
#     Edge 15, Type (0, 1), BuildingBlock: EZIPEK_clean_linker_0, # of connection points: 2
#     Edge 16, Type (0, 1), BuildingBlock: EZIPEK_clean_linker_0, # of connection points: 2
#     Edge 17, Type (0, 1), BuildingBlock: EZIPEK_clean_linker_0, # of connection points: 2
# Relax obj value: 0.023
# Max RMSD: 0.120
# Mean RMSD: 0.100
data_MOF--net-rtl--node1-LEVNOQ01_clean_sbu_1--node2-CUQRIR_clean_linker_1--edge1-EZIPEK_clean_linker_0
_symmetry_space_group_name_H-M    P1
_symmetry_Int_Tables_number       1
_symmetry_cell_setting            triclinic
loop_
_symmetry_equiv_pos_as_xyz
'x, y, z'
_cell_length_a     24.628839
_cell_length_b     24.550018
_cell_length_c     13.617941
_cell_angle_alpha  89.606587
_cell_angle_beta   99.771455
_cell_angle_gamma 90.397427
loop_
_atom_site_label
_atom_site_type_symbol
_atom_site_fract_x
_atom_site_fract_y
_atom_site_fract_z
_atom_type_partial_charge
C0 C 0.20685 0.75928 0.07727 0.0
N1 N 0.16762 0.79362 0.0982 0.0
N2 N 0.23042 0.73215 0.16018 0.0
C3 C 0.22268 0.75217 0.9762 0.0
C4 C 0.20492 0.75137 0.23299 0.0
N5 N 0.1675 0.78964 0.196 0.0
C6 C 0.21664 0.73253 0.33962 0.0
H7 H 0.2001 0.71655 0.93931 0.0
H8 H 0.26741 0.74397 0.98323 0.0
H9 H 0.21227 0.78874 0.92861 0.0
H10 H 0.25304 0.75509 0.37888 0.0
H11 H 0.22663 0.68848 0.34376 0.0
H12 H 0.18119 0.74027 0.37803 0.0
C13 C 0.68416 0.74702 0.71199 0.0
N14 N 0.63979 0.71686 0.66699 0.0
N15 N 0.71162 0.76921 0.64354 0.0
C16 C 0.70916 0.7455 0.82118 0.0
C17 C 0.68633 0.74867 0.5562 0.0
N18 N 0.64382 0.71581 0.56977 0.0
C19 C 0.70752 0.75521 0.45909 0.0
H20 H 0.69718 0.78241 0.85863 0.0
H21 H 0.75479 0.74631 0.83037 0.0
H22 H 0.69715 0.70823 0.85873 0.0
H23 H 0.72346 0.71551 0.43818 0.0
H24 H 0.7408 0.78618 0.46369 0.0
H25 H 0.67364 0.7674 0.39887 0.0
C26 C 0.79555 0.2327 0.09833 0.0
N27 N 0.83907 0.20404 0.07456 0.0
N28 N 0.76389 0.25338 1.01571 0.0
C29 C 0.77778 0.23428 0.19903 0.0
C30 C 0.78662 0.23457 0.93992 0.0
N31 N 0.83142 0.20419 0.97454 0.0
C32 C 0.7645 0.2452 0.83158 0.0
H33 H 0.73233 0.23718 0.19067 0.0
H34 H 0.79503 0.27109 0.23991 0.0
H35 H 0.79052 0.19717 0.24352 0.0
H36 H 0.79136 0.27557 0.80233 0.0
H37 H 0.72189 0.26124 0.82086 0.0
H38 H 0.76506 0.20727 0.78793 0.0
C39 C 0.28539 0.24784 0.41517 0.0
N40 N 0.32163 0.28673 0.45524 0.0
N41 N 0.25865 0.22647 0.48536 0.0
C42 C 0.27585 0.23076 0.30791 0.0
C43 C 0.28047 0.25283 0.56996 0.0
N44 N 0.31957 0.28895 0.55245 0.0
C45 C 0.2631 0.24332 0.66937 0.0
H46 H 0.24138 0.25486 0.26635 0.0
H47 H 0.26415 0.18704 0.3012 0.0
H48 H 0.31305 0.23822 0.27371 0.0
H49 H 0.28703 0.2088 0.70741 0.0
H50 H 0.21875 0.23231 0.65976 0.0
H51 H 0.27098 0.27986 0.71728 0.0
O52 O 0.00956 0.08899 0.78266 0.0
Mg53 Mg 0.07094 0.0475 0.72449 0.0
O54 O 0.9455 0.05211 0.66889 0.0
Mg55 Mg -0.00821 -0.00696 0.57823 0.0
O56 O 0.06885 0.05131 0.57479 0.0
O57 O 0.12977 0.09641 0.68878 0.0
O58 O 0.03646 0.93277 0.48605 0.0
O59 O 0.95937 0.04928 0.43685 0.0
Mg60 Mg 0.91162 0.94882 0.4255 0.0
O61 O 0.91463 0.93483 0.57616 0.0
O62 O 0.97252 0.91168 0.35768 0.0
O63 O 0.87839 0.02104 0.36109 0.0
O64 O 0.85315 0.89665 0.45397 0.0
C65 C 0.0696 0.93893 0.79163 0.0
C66 C 0.95958 0.08329 0.74346 0.0
C67 C 0.11134 0.08372 0.5974 0.0
C68 C 0.02178 0.90886 0.40263 0.0
C69 C 0.91598 0.05658 0.37198 0.0
C70 C 0.87189 0.9036 0.54735 0.0
O71 O 0.10372 -0.02242 0.79459 0.0
O72 O 0.02577 0.93948 0.72558 0.0
O73 O 0.61308 0.5253 0.25562 0.0
Mg74 Mg 0.56875 0.45592 0.20485 0.0
O75 O 0.52692 0.54856 0.21289 0.0
Mg76 Mg 0.49282 0.4933 0.06754 0.0
O77 O 0.56833 0.43291 0.05982 0.0
O78 O 0.62333 0.39771 0.19473 0.0
O79 O 0.4588 0.43944 0.92015 0.0
O80 O 0.53628 0.55529 0.97233 0.0
Mg81 Mg 0.41222 0.53298 0.93433 0.0
O82 O 0.41673 0.55208 0.0803 0.0
O83 O 0.3723 0.46199 0.88109 0.0
O84 O 0.46629 0.57241 0.85266 0.0
O85 O 0.35396 0.5857 0.95461 0.0
C86 C 0.46409 0.41382 0.24768 0.0
C87 C 0.57469 0.55739 0.26437 0.0
C88 C 0.60808 0.40065 0.09971 0.0
C89 C 0.4109 0.43094 0.86897 0.0
C90 C 0.51663 0.57829 0.88957 0.0
C91 C 0.3738 0.58217 0.04816 0.0
O92 O 0.51256 0.42326 0.29177 0.0
O93 O 0.44854 0.43171 0.15939 0.0
C94 C 0.2341 0.12984 0.49949 0.0
C95 C 0.2175 0.18401 0.47555 0.0
C96 C 0.12148 0.15988 0.48148 0.0
C97 C 0.13983 0.10855 0.52122 0.0
N98 N 0.20722 0.03781 0.54032 0.0
N99 N 0.14656 0.24949 0.42406 0.0
C100 C 0.19417 0.09108 0.51927 0.0
C101 C 0.16107 0.19827 0.45797 0.0
N102 N 0.28865 0.11709 0.50957 0.0
N103 N 0.06681 0.17217 0.47195 0.0
H104 H 0.17562 0.27774 0.4076 0.0
H105 H 0.10639 0.26388 0.4098 0.0
H106 H 0.03783 0.14351 0.4873 0.0
H107 H 0.04966 0.20931 0.44664 0.0
H108 H 0.30514 0.0797 0.53505 0.0
H109 H 0.31807 0.14513 0.49373 0.0
H110 H 0.24532 0.02076 0.53641 0.0
H111 H 0.17768 0.00959 0.5552 0.0
C112 C 0.25361 0.63545 0.14764 0.0
C113 C 0.27103 0.68996 0.16578 0.0
C114 C 0.36441 0.66712 0.14279 0.0
C115 C 0.34579 0.6136 0.11644 0.0
N116 N 0.27908 0.5421 0.11917 0.0
N117 N 0.34358 0.75552 0.20682 0.0
C118 C 0.29249 0.59611 0.12878 0.0
C119 C 0.3271 0.70475 0.17352 0.0
N120 N 0.19915 0.62255 0.14208 0.0
N121 N 0.4162 0.68281 0.13078 0.0
H122 H 0.31598 0.78364 0.22734 0.0
H123 H 0.38453 0.76828 0.22122 0.0
H124 H 0.44408 0.65561 0.10875 0.0
H125 H 0.43083 0.72268 0.13859 0.0
H126 H 0.18212 0.58497 0.11869 0.0
H127 H 0.17026 0.6508 0.15725 0.0
H128 H 0.24232 0.52555 0.13412 0.0
H129 H 0.30724 0.51305 0.10392 0.0
C130 C 0.81171 0.78133 0.65158 0.0
C131 C 0.75983 0.80388 0.6588 0.0
C132 C 0.79706 0.89595 0.64712 0.0
C133 C 0.84441 0.87293 0.61876 0.0
N134 N 0.90363 0.79647 0.61218 0.0
N135 N 0.70314 0.88121 0.67522 0.0
C136 C 0.85439 0.8163 0.62923 0.0
C137 C 0.75307 0.86099 0.66316 0.0
N138 N 0.81847 0.72632 0.66172 0.0
N139 N 0.79405 0.95123 0.65505 0.0
H140 H 0.67075 0.85603 0.68815 0.0
H141 H 0.69304 0.92231 0.66979 0.0
H142 H 0.82637 0.97677 0.64286 0.0
H143 H 0.76225 0.97135 0.68083 0.0
H144 H 0.85524 0.70619 0.65959 0.0
H145 H 0.7869 0.70071 0.67707 0.0
H146 H 0.91339 0.75536 0.61168 0.0
H147 H 0.93554 0.82231 0.59906 0.0
C148 C 0.66537 0.27265 1.01169 0.0
C149 C 0.71958 0.29176 1.01097 0.0
C150 C 0.68894 0.38596 1.01852 0.0
C151 C 0.63793 0.36626 0.03878 0.0
N152 N 0.57395 0.29273 0.0466 0.0
N153 N 0.78418 0.3653 1.00883 0.0
C154 C 0.62458 0.31006 1.03062 0.0
C155 C 0.73146 0.34825 1.01084 0.0
N156 N 0.65388 0.2186 0.99632 0.0
N157 N 0.69655 0.44079 1.00911 0.0
H158 H 0.81587 0.33832 1.0022 0.0
H159 H 0.7973 0.40557 1.01852 0.0
H160 H 0.66533 0.46863 1.01444 0.0
H161 H 0.73138 0.45831 0.9878 0.0
H162 H 0.61449 0.20186 0.98909 0.0
H163 H 0.68396 0.19082 0.98439 0.0
H164 H 0.56285 0.25201 0.05207 0.0
H165 H 0.54304 0.32 0.05671 0.0
C166 C 0.07839 0.79845 0.25423 0.0
C167 C 0.13198 0.81853 0.25162 0.0
C168 C 0.11447 0.89774 0.34916 0.0
C169 C 0.0616 0.87641 0.35687 0.0
N170 N 0.00038 0.7983 0.34101 0.0
N171 N 0.20709 0.87605 0.32677 0.0
C172 C 0.04539 0.82438 0.31599 0.0
C173 C 0.15204 0.86458 0.30885 0.0
N174 N 0.05963 0.75381 0.19933 0.0
N175 N 0.12799 0.9505 0.37416 0.0
H176 H 0.2359 0.85204 0.29949 0.0
H177 H 0.22427 0.90634 0.37596 0.0
H178 H 0.10087 -0.02238 0.39866 0.0
H179 H 0.16419 0.96893 0.36013 0.0
H180 H 0.01872 0.7408 0.18865 0.0
H181 H 0.08472 0.73153 0.16017 0.0
H182 H -0.01059 0.75845 0.32027 0.0
H183 H 0.97754 0.81406 0.39201 0.0
C184 C 0.59013 0.70475 0.81347 0.0
C185 C 0.5982 0.68959 0.71694 0.0
C186 C 0.54807 0.6054 0.73165 0.0
C187 C 0.5503 0.61429 0.83513 0.0
N188 N 0.571 0.676 0.97451 0.0
N189 N 0.52919 0.65863 0.58376 0.0
C190 C 0.57067 0.66513 0.87641 0.0
C191 C 0.5626 0.64832 0.67187 0.0
N192 N 0.59299 0.7585 0.83836 0.0
N193 N 0.52962 0.55723 0.68866 0.0
H194 H 0.5271 0.69779 0.55309 0.0
H195 H 0.49854 0.63147 0.55169 0.0
H196 H 0.51932 0.52384 0.72986 0.0
H197 H 0.52928 0.55002 0.61305 0.0
H198 H 0.58232 0.77349 0.90381 0.0
H199 H 0.59994 0.78845 0.78696 0.0
H200 H 0.59046 0.71007 1.01017 0.0
H201 H 0.55505 0.64905 1.02154 0.0
C202 C 0.89634 0.19609 0.24554 0.0
C203 C 0.88357 0.17826 0.14562 0.0
C204 C 0.91566 0.08779 0.19651 0.0
C205 C 0.91321 0.10097 0.29708 0.0
N206 N 0.91092 0.17046 0.42103 0.0
N207 N 0.94431 0.131 0.05698 0.0
C208 C 0.9081 0.15644 0.32348 0.0
C209 C 0.90956 0.12986 0.12452 0.0
N210 N 0.89938 0.25057 0.26385 0.0
N211 N 0.92684 0.03617 0.1697 0.0
H212 H 0.95469 0.16787 1.02624 0.0
H213 H 0.96887 0.09794 0.04541 0.0
H214 H 0.93574 0.00434 0.22093 0.0
H215 H 0.92553 0.02564 0.09513 0.0
H216 H 0.91235 0.26709 0.33419 0.0
H217 H 0.89295 0.2788 0.20527 0.0
H218 H 0.90216 0.20935 0.44381 0.0
H219 H 0.91985 0.14227 0.47912 0.0
C220 C 0.3884 0.30283 0.70735 0.0
C221 C 0.35115 0.32474 0.62544 0.0
C222 C 0.37267 0.41611 0.69017 0.0
C223 C 0.40101 0.39408 0.78101 0.0
N224 N 0.43502 0.31532 0.87822 0.0
N225 N 0.29693 0.40104 0.55631 0.0
C226 C 0.40963 0.33704 0.78985 0.0
C227 C 0.34086 0.38121 0.62064 0.0
N228 N 0.40248 0.24922 0.70679 0.0
N229 N 0.37561 0.47061 0.67087 0.0
H230 H 0.26826 0.37524 0.51474 0.0
H231 H 0.28506 0.44176 0.55499 0.0
H232 H 0.40033 0.49713 0.71906 0.0
H233 H 0.35866 0.4878 0.60235 0.0
H234 H 0.43329 0.23178 0.75914 0.0
H235 H 0.38566 0.22299 0.64962 0.0
H236 H 0.4372 0.27365 0.89299 0.0
H237 H 0.45127 0.33926 0.93923 0.0
C238 C 0.63658 0.62025 0.51109 0.0
C239 C 0.6214 0.67552 0.49651 0.0
C240 C 0.57241 0.65427 0.32834 0.0
C241 C 0.58441 0.59822 0.34619 0.0
N242 N 0.61233 0.52704 0.46741 0.0
N243 N 0.5671 0.74411 0.39955 0.0
C244 C 0.61179 0.58095 0.44161 0.0
C245 C 0.58695 0.6922 0.40721 0.0
N246 N 0.6759 0.60544 0.58966 0.0
N247 N 0.54957 0.6717 0.23534 0.0
H248 H 0.5771 0.77233 0.45692 0.0
H249 H 0.53738 0.75759 0.34093 0.0
H250 H 0.5376 0.64495 0.17678 0.0
H251 H 0.54581 0.71262 0.21477 0.0
H252 H 0.69225 0.56633 0.59832 0.0
H253 H 0.69589 0.63343 0.6409 0.0
H254 H 0.62743 0.513 0.53918 0.0
H255 H 0.59172 0.49724 0.42073 0.0
C256 C 0.84809 0.11772 0.8938 0.0
C257 C 0.86025 0.1737 0.91002 0.0
C258 C 0.92251 0.17179 0.78821 0.0
C259 C 0.9181 0.11419 0.78617 0.0
N260 N 0.8787 0.03102 0.8398 0.0
N261 N 0.9089 0.25486 0.87613 0.0
C262 C 0.88063 0.08668 0.8382 0.0
C263 C 0.89675 0.20124 0.85663 0.0
N264 N 0.80583 0.09453 0.93275 0.0
N265 N 0.95087 0.19805 0.72372 0.0
H266 H 0.89105 0.27695 0.92747 0.0
H267 H 0.93947 0.27621 0.84761 0.0
H268 H 0.96932 0.17728 0.67148 0.0
H269 H 0.95171 0.24021 0.71537 0.0
H270 H 0.79132 0.05516 0.91608 0.0
H271 H 0.78257 0.11639 0.97616 0.0
H272 H 0.85695 0.00869 0.88575 0.0
H273 H 0.90163 0.00681 0.79956 0.0
C274 C 0.33627 0.36463 0.34584 0.0
C275 C 0.35719 0.31852 0.40258 0.0
C276 C 0.44481 0.32939 0.34204 0.0
C277 C 0.42661 0.38039 0.29861 0.0
N278 N 0.35804 0.45141 0.27712 0.0
N279 N 0.43107 0.25634 0.45645 0.0
C280 C 0.37307 0.39937 0.30507 0.0
C281 C 0.41168 0.30105 0.40189 0.0
N282 N 0.28097 0.37424 0.32766 0.0
N283 N 0.4919 0.30639 0.32093 0.0
H284 H 0.40584 0.23189 0.4927 0.0
H285 H 0.47237 0.2451 0.46939 0.0
H286 H 0.5156 0.32418 0.27259 0.0
H287 H 0.50458 0.26715 0.34289 0.0
H288 H 0.26308 0.4044 0.2786 0.0
H289 H 0.2526 0.3487 0.35402 0.0
H290 H 0.32145 0.46869 0.29042 0.0
H291 H 0.38438 0.47912 0.25036 0.0
C292 C 0.13866 0.88576 0.03691 0.0
C293 C 0.13344 0.8288 1.02749 0.0
C294 C 0.07621 0.84148 0.86202 0.0
C295 C 0.07953 0.89882 0.87585 0.0
N296 N 0.09378 0.9717 0.9963 0.0
N297 N 0.08661 0.75213 0.94102 0.0
C298 C 0.10353 0.91948 0.97056 0.0
C299 C 0.09822 0.80654 0.94344 0.0
N300 N 0.18097 0.90795 0.1019 0.0
N301 N 0.05544 0.82031 0.77086 0.0
H302 H 0.10303 0.7258 0.99868 0.0
H303 H 0.05745 0.73423 0.88614 0.0
H304 H 0.03891 0.84423 0.70983 0.0
H305 H 0.05781 0.77913 0.75424 0.0
H306 H 0.18846 0.9498 0.10662 0.0
H307 H 0.21258 0.88398 0.1397 0.0
H308 H 0.10833 -0.01293 0.06721 0.0
H309 H 0.06597 -0.00314 0.9508 0.0
loop_
_geom_bond_atom_site_label_1
_geom_bond_atom_site_label_2
_geom_bond_distance
_geom_bond_site_symmetry_2
_ccdc_geom_bond_type
C0 N1 1.317 . S
C0 N2 1.348 . S
C0 C3 1.485 1_554 S
N1 C0 1.317 . S
N1 N5 1.370 . S
N2 C0 1.348 . S
N2 C4 1.346 . S
C3 C0 1.485 1_556 S
C3 H7 0.960 . S
C3 H8 0.961 . S
C3 H9 0.960 . S
C4 N2 1.346 . S
C4 N5 1.307 . S
C4 C6 1.486 . S
N5 N1 1.370 . S
N5 C4 1.307 . S
C6 C4 1.486 . S
C6 H10 0.960 . S
C6 H11 0.960 . S
C6 H12 0.959 . S
H7 C3 0.960 . S
H8 C3 0.961 . S
H9 C3 0.960 . S
H10 C6 0.960 . S
H11 C6 0.960 . S
H12 C6 0.959 . S
C13 N14 1.317 . S
C13 N15 1.348 . S
C13 C16 1.485 . S
N14 C13 1.317 . S
N14 N18 1.370 . S
N15 C13 1.348 . S
N15 C17 1.346 . S
C16 C13 1.485 . S
C16 H20 0.960 . S
C16 H21 0.961 . S
C16 H22 0.960 . S
C17 N15 1.346 . S
C17 N18 1.307 . S
C17 C19 1.486 . S
N18 N14 1.370 . S
N18 C17 1.307 . S
C19 C17 1.486 . S
C19 H23 0.960 . S
C19 H24 0.960 . S
C19 H25 0.959 . S
H20 C16 0.960 . S
H21 C16 0.961 . S
H22 C16 0.960 . S
H23 C19 0.960 . S
H24 C19 0.960 . S
H25 C19 0.959 . S
C26 N27 1.317 . S
C26 N28 1.346 1_554 S
C26 C29 1.485 . S
N27 C26 1.317 . S
N27 N31 1.370 1_554 S
N28 C26 1.346 1_556 S
N28 C30 1.349 . S
C29 C26 1.485 . S
C29 H33 0.960 . S
C29 H34 0.961 . S
C29 H35 0.960 . S
C30 N28 1.349 . S
C30 N31 1.307 . S
C30 C32 1.486 . S
N31 N27 1.370 1_556 S
N31 C30 1.307 . S
C32 C30 1.486 . S
C32 H36 0.960 . S
C32 H37 0.960 . S
C32 H38 0.959 . S
H33 C29 0.960 . S
H34 C29 0.961 . S
H35 C29 0.960 . S
H36 C32 0.960 . S
H37 C32 0.960 . S
H38 C32 0.959 . S
C39 N40 1.317 . S
C39 N41 1.348 . S
C39 C42 1.485 . S
N40 C39 1.317 . S
N40 N44 1.370 . S
N41 C39 1.348 . S
N41 C43 1.346 . S
C42 C39 1.485 . S
C42 H46 0.960 . S
C42 H47 0.961 . S
C42 H48 0.960 . S
C43 N41 1.346 . S
C43 N44 1.307 . S
C43 C45 1.486 . S
N44 N40 1.370 . S
N44 C43 1.307 . S
C45 C43 1.486 . S
C45 H49 0.960 . S
C45 H50 0.960 . S
C45 H51 0.959 . S
H46 C42 0.960 . S
H47 C42 0.961 . S
H48 C42 0.960 . S
H49 C45 0.960 . S
H50 C45 0.960 . S
H51 C45 0.959 . S
O52 Mg53 1.990 . S
O52 C66 1.253 1_455 S
Mg53 O52 1.990 . S
Mg53 O56 2.180 . S
Mg53 O57 2.117 . S
Mg53 O71 2.030 . S
O54 Mg55 2.072 1_655 S
O54 C66 1.260 . S
Mg55 O54 2.072 1_455 S
Mg55 O56 2.099 . S
Mg55 O58 2.079 1_545 S
Mg55 O59 2.072 1_455 S
Mg55 O61 2.099 1_445 S
Mg55 O72 2.079 1_545 S
O56 Mg53 2.180 . S
O56 Mg55 2.099 . S
O56 C67 1.279 . S
O57 Mg53 2.117 . S
O57 C67 1.250 . S
O58 Mg55 2.079 1_565 S
O58 C68 1.264 . S
O59 Mg55 2.072 1_655 S
O59 C69 1.260 . S
Mg60 O61 2.180 . S
Mg60 O62 2.030 1_655 S
Mg60 O63 1.990 1_565 S
Mg60 O64 2.117 . S
O61 Mg55 2.099 1_665 S
O61 Mg60 2.180 . S
O61 C70 1.279 . S
O62 Mg60 2.030 1_455 S
O62 C68 1.248 . S
O63 Mg60 1.990 1_545 S
O63 C69 1.253 . S
O64 Mg60 2.117 . S
O64 C70 1.250 . S
C65 O71 1.248 1_565 S
C65 O72 1.264 . S
C66 O52 1.253 1_655 S
C66 O54 1.260 . S
C67 O56 1.279 . S
C67 O57 1.250 . S
C68 O58 1.264 . S
C68 O62 1.248 . S
C69 O59 1.260 . S
C69 O63 1.253 . S
C70 O61 1.279 . S
C70 O64 1.250 . S
O71 Mg53 2.030 . S
O71 C65 1.248 1_545 S
O72 Mg55 2.079 1_565 S
O72 C65 1.264 . S
O73 Mg74 1.990 . S
O73 C87 1.253 . S
Mg74 O73 1.990 . S
Mg74 O77 2.180 . S
Mg74 O78 2.117 . S
Mg74 O92 2.030 . S
O75 Mg76 2.072 . S
O75 C87 1.260 . S
Mg76 O75 2.072 . S
Mg76 O77 2.099 . S
Mg76 O79 2.079 1_554 S
Mg76 O80 2.072 1_554 S
Mg76 O82 2.099 1_554 S
Mg76 O93 2.079 . S
O77 Mg74 2.180 . S
O77 Mg76 2.099 . S
O77 C88 1.279 . S
O78 Mg74 2.117 . S
O78 C88 1.250 . S
O79 Mg76 2.079 1_556 S
O79 C89 1.264 . S
O80 Mg76 2.072 1_556 S
O80 C90 1.260 . S
Mg81 O82 2.180 . S
Mg81 O83 2.030 . S
Mg81 O84 1.990 . S
Mg81 O85 2.117 . S
O82 Mg76 2.099 1_556 S
O82 Mg81 2.180 . S
O82 C91 1.279 1_556 S
O83 Mg81 2.030 . S
O83 C89 1.248 . S
O84 Mg81 1.990 . S
O84 C90 1.253 . S
O85 Mg81 2.117 . S
O85 C91 1.250 1_556 S
C86 O92 1.248 . S
C86 O93 1.264 . S
C87 O73 1.253 . S
C87 O75 1.260 . S
C88 O77 1.279 . S
C88 O78 1.250 . S
C89 O79 1.264 . S
C89 O83 1.248 . S
C90 O80 1.260 . S
C90 O84 1.253 . S
C91 O82 1.279 1_554 S
C91 O85 1.250 1_554 S
O92 Mg74 2.030 . S
O92 C86 1.248 . S
O93 Mg76 2.079 . S
O93 C86 1.264 . S
C94 C95 1.363 . S
C94 C100 1.379 . S
C94 N102 1.356 . S
C95 C94 1.363 . S
C95 C101 1.363 . S
C96 C97 1.363 . S
C96 C101 1.379 . S
C96 N103 1.356 . S
C97 C96 1.363 . S
C97 C100 1.363 . S
N98 C100 1.356 . S
N98 H110 0.984 . S
N98 H111 0.985 . S
N99 C101 1.356 . S
N99 H104 0.984 . S
N99 H105 0.985 . S
C100 C94 1.379 . S
C100 C97 1.363 . S
C100 N98 1.356 . S
C101 C95 1.363 . S
C101 C96 1.379 . S
C101 N99 1.356 . S
N102 C94 1.356 . S
N102 H108 0.984 . S
N102 H109 0.984 . S
N103 C96 1.356 . S
N103 H106 0.984 . S
N103 H107 0.985 . S
H104 N99 0.984 . S
H105 N99 0.985 . S
H106 N103 0.984 . S
H107 N103 0.985 . S
H108 N102 0.984 . S
H109 N102 0.984 . S
H110 N98 0.984 . S
H111 N98 0.985 . S
C112 C113 1.363 . S
C112 C118 1.379 . S
C112 N120 1.356 1_554 S
C113 C112 1.363 . S
C113 C119 1.363 . S
C114 C115 1.363 . S
C114 C119 1.379 . S
C114 N121 1.356 . S
C115 C114 1.363 . S
C115 C118 1.363 . S
N116 C118 1.356 1_556 S
N116 H128 0.984 . S
N116 H129 0.985 . S
N117 C119 1.356 . S
N117 H122 0.984 . S
N117 H123 0.985 . S
C118 C112 1.379 . S
C118 C115 1.363 . S
C118 N116 1.356 1_554 S
C119 C113 1.363 . S
C119 C114 1.379 . S
C119 N117 1.356 . S
N120 C112 1.356 1_556 S
N120 H126 0.984 . S
N120 H127 0.984 . S
N121 C114 1.356 . S
N121 H124 0.984 . S
N121 H125 0.985 . S
H122 N117 0.984 . S
H123 N117 0.985 . S
H124 N121 0.984 . S
H125 N121 0.985 . S
H126 N120 0.984 . S
H127 N120 0.984 . S
H128 N116 0.984 . S
H129 N116 0.985 . S
C130 C131 1.363 . S
C130 C136 1.379 . S
C130 N138 1.356 . S
C131 C130 1.363 . S
C131 C137 1.363 . S
C132 C133 1.363 . S
C132 C137 1.379 . S
C132 N139 1.356 . S
C133 C132 1.363 . S
C133 C136 1.363 . S
N134 C136 1.356 . S
N134 H146 0.984 . S
N134 H147 0.985 . S
N135 C137 1.356 . S
N135 H140 0.984 . S
N135 H141 0.985 . S
C136 C130 1.379 . S
C136 C133 1.363 . S
C136 N134 1.356 . S
C137 C131 1.363 . S
C137 C132 1.379 . S
C137 N135 1.356 . S
N138 C130 1.356 . S
N138 H144 0.984 . S
N138 H145 0.984 . S
N139 C132 1.356 . S
N139 H142 0.984 . S
N139 H143 0.985 . S
H140 N135 0.984 . S
H141 N135 0.985 . S
H142 N139 0.984 . S
H143 N139 0.985 . S
H144 N138 0.984 . S
H145 N138 0.984 . S
H146 N134 0.984 . S
H147 N134 0.985 . S
C148 C149 1.360 1_554 S
C148 C154 1.379 . S
C148 N156 1.356 . S
C149 C148 1.360 1_556 S
C149 C155 1.365 . S
C150 C151 1.363 1_556 S
C150 C155 1.379 . S
C150 N157 1.356 . S
C151 C150 1.363 1_554 S
C151 C154 1.363 . S
N152 C154 1.356 . S
N152 H164 0.984 . S
N152 H165 0.985 . S
N153 C155 1.356 . S
N153 H158 0.984 . S
N153 H159 0.985 . S
C154 C148 1.379 . S
C154 C151 1.363 . S
C154 N152 1.356 . S
C155 C149 1.365 . S
C155 C150 1.379 . S
C155 N153 1.356 . S
N156 C148 1.356 . S
N156 H162 0.984 . S
N156 H163 0.984 . S
N157 C150 1.356 . S
N157 H160 0.984 . S
N157 H161 0.985 . S
H158 N153 0.984 . S
H159 N153 0.985 . S
H160 N157 0.984 . S
H161 N157 0.985 . S
H162 N156 0.984 . S
H163 N156 0.984 . S
H164 N152 0.984 . S
H165 N152 0.985 . S
C166 C167 1.363 . S
C166 C172 1.379 . S
C166 N174 1.356 . S
C167 C166 1.363 . S
C167 C173 1.363 . S
C168 C169 1.363 . S
C168 C173 1.379 . S
C168 N175 1.356 . S
C169 C168 1.363 . S
C169 C172 1.363 . S
N170 C172 1.356 . S
N170 H182 0.984 . S
N170 H183 0.985 . S
N171 C173 1.356 . S
N171 H176 0.984 . S
N171 H177 0.985 . S
C172 C166 1.379 . S
C172 C169 1.363 . S
C172 N170 1.356 . S
C173 C167 1.363 . S
C173 C168 1.379 . S
C173 N171 1.356 . S
N174 C166 1.356 . S
N174 H180 0.984 . S
N174 H181 0.984 . S
N175 C168 1.356 . S
N175 H178 0.984 1_565 S
N175 H179 0.985 1_565 S
H176 N171 0.984 . S
H177 N171 0.985 . S
H178 N175 0.984 1_545 S
H179 N175 0.985 1_545 S
H180 N174 0.984 . S
H181 N174 0.984 . S
H182 N170 0.984 . S
H183 N170 0.985 . S
C184 C185 1.363 . S
C184 C190 1.379 . S
C184 N192 1.356 . S
C185 C184 1.363 . S
C185 C191 1.363 . S
C186 C187 1.363 . S
C186 C191 1.379 . S
C186 N193 1.356 . S
C187 C186 1.363 . S
C187 C190 1.363 . S
N188 C190 1.356 . S
N188 H200 0.984 . S
N188 H201 0.985 . S
N189 C191 1.356 . S
N189 H194 0.984 . S
N189 H195 0.985 . S
C190 C184 1.379 . S
C190 C187 1.363 . S
C190 N188 1.356 . S
C191 C185 1.363 . S
C191 C186 1.379 . S
C191 N189 1.356 . S
N192 C184 1.356 . S
N192 H198 0.984 . S
N192 H199 0.984 . S
N193 C186 1.356 . S
N193 H196 0.984 . S
N193 H197 0.985 . S
H194 N189 0.984 . S
H195 N189 0.985 . S
H196 N193 0.984 . S
H197 N193 0.985 . S
H198 N192 0.984 . S
H199 N192 0.984 . S
H200 N188 0.984 . S
H201 N188 0.985 . S
C202 C203 1.363 . S
C202 C208 1.379 . S
C202 N210 1.356 . S
C203 C202 1.363 . S
C203 C209 1.363 . S
C204 C205 1.363 . S
C204 C209 1.379 . S
C204 N211 1.356 . S
C205 C204 1.363 . S
C205 C208 1.363 . S
N206 C208 1.356 . S
N206 H218 0.984 . S
N206 H219 0.985 . S
N207 C209 1.356 . S
N207 H212 0.984 1_554 S
N207 H213 0.981 1_554 S
C208 C202 1.379 . S
C208 C205 1.363 . S
C208 N206 1.356 . S
C209 C203 1.363 . S
C209 C204 1.379 . S
C209 N207 1.356 . S
N210 C202 1.356 . S
N210 H216 0.984 . S
N210 H217 0.984 . S
N211 C204 1.356 . S
N211 H214 0.984 . S
N211 H215 0.985 . S
H212 N207 0.984 1_556 S
H213 N207 0.981 1_556 S
H214 N211 0.984 . S
H215 N211 0.985 . S
H216 N210 0.984 . S
H217 N210 0.984 . S
H218 N206 0.984 . S
H219 N206 0.985 . S
C220 C221 1.363 . S
C220 C226 1.379 . S
C220 N228 1.356 . S
C221 C220 1.363 . S
C221 C227 1.363 . S
C222 C223 1.363 . S
C222 C227 1.379 . S
C222 N229 1.356 . S
C223 C222 1.363 . S
C223 C226 1.363 . S
N224 C226 1.356 . S
N224 H236 0.984 . S
N224 H237 0.985 . S
N225 C227 1.356 . S
N225 H230 0.984 . S
N225 H231 0.985 . S
C226 C220 1.379 . S
C226 C223 1.363 . S
C226 N224 1.356 . S
C227 C221 1.363 . S
C227 C222 1.379 . S
C227 N225 1.356 . S
N228 C220 1.356 . S
N228 H234 0.984 . S
N228 H235 0.984 . S
N229 C222 1.356 . S
N229 H232 0.984 . S
N229 H233 0.985 . S
H230 N225 0.984 . S
H231 N225 0.985 . S
H232 N229 0.984 . S
H233 N229 0.985 . S
H234 N228 0.984 . S
H235 N228 0.984 . S
H236 N224 0.984 . S
H237 N224 0.985 . S
C238 C239 1.363 . S
C238 C244 1.379 . S
C238 N246 1.356 . S
C239 C238 1.363 . S
C239 C245 1.363 . S
C240 C241 1.363 . S
C240 C245 1.379 . S
C240 N247 1.356 . S
C241 C240 1.363 . S
C241 C244 1.363 . S
N242 C244 1.356 . S
N242 H254 0.984 . S
N242 H255 0.985 . S
N243 C245 1.356 . S
N243 H248 0.984 . S
N243 H249 0.985 . S
C244 C238 1.379 . S
C244 C241 1.363 . S
C244 N242 1.356 . S
C245 C239 1.363 . S
C245 C240 1.379 . S
C245 N243 1.356 . S
N246 C238 1.356 . S
N246 H252 0.984 . S
N246 H253 0.984 . S
N247 C240 1.356 . S
N247 H250 0.984 . S
N247 H251 0.985 . S
H248 N243 0.984 . S
H249 N243 0.985 . S
H250 N247 0.984 . S
H251 N247 0.985 . S
H252 N246 0.984 . S
H253 N246 0.984 . S
H254 N242 0.984 . S
H255 N242 0.985 . S
C256 C257 1.363 . S
C256 C262 1.379 . S
C256 N264 1.356 . S
C257 C256 1.363 . S
C257 C263 1.363 . S
C258 C259 1.363 . S
C258 C263 1.379 . S
C258 N265 1.356 . S
C259 C258 1.363 . S
C259 C262 1.363 . S
N260 C262 1.356 . S
N260 H272 0.984 1_545 S
N260 H273 0.985 . S
N261 C263 1.356 . S
N261 H266 0.984 . S
N261 H267 0.985 . S
C262 C256 1.379 . S
C262 C259 1.363 . S
C262 N260 1.356 . S
C263 C257 1.363 . S
C263 C258 1.379 . S
C263 N261 1.356 . S
N264 C256 1.356 . S
N264 H270 0.984 . S
N264 H271 0.984 . S
N265 C258 1.356 . S
N265 H268 0.984 . S
N265 H269 0.985 . S
H266 N261 0.984 . S
H267 N261 0.985 . S
H268 N265 0.984 . S
H269 N265 0.985 . S
H270 N264 0.984 . S
H271 N264 0.984 . S
H272 N260 0.984 1_565 S
H273 N260 0.985 . S
C274 C275 1.363 . S
C274 C280 1.379 . S
C274 N282 1.356 . S
C275 C274 1.363 . S
C275 C281 1.363 . S
C276 C277 1.363 . S
C276 C281 1.379 . S
C276 N283 1.356 . S
C277 C276 1.363 . S
C277 C280 1.363 . S
N278 C280 1.356 . S
N278 H290 0.984 . S
N278 H291 0.985 . S
N279 C281 1.356 . S
N279 H284 0.984 . S
N279 H285 0.985 . S
C280 C274 1.379 . S
C280 C277 1.363 . S
C280 N278 1.356 . S
C281 C275 1.363 . S
C281 C276 1.379 . S
C281 N279 1.356 . S
N282 C274 1.356 . S
N282 H288 0.984 . S
N282 H289 0.984 . S
N283 C276 1.356 . S
N283 H286 0.984 . S
N283 H287 0.985 . S
H284 N279 0.984 . S
H285 N279 0.985 . S
H286 N283 0.984 . S
H287 N283 0.985 . S
H288 N282 0.984 . S
H289 N282 0.984 . S
H290 N278 0.984 . S
H291 N278 0.985 . S
C292 C293 1.363 . S
C292 C298 1.379 . S
C292 N300 1.356 1_556 S
C293 C292 1.363 . S
C293 C299 1.363 . S
C294 C295 1.363 . S
C294 C299 1.379 . S
C294 N301 1.356 . S
C295 C294 1.363 . S
C295 C298 1.363 . S
N296 C298 1.356 . S
N296 H308 0.984 1_565 S
N296 H309 0.985 1_565 S
N297 C299 1.356 . S
N297 H302 0.984 . S
N297 H303 0.985 . S
C298 C292 1.379 . S
C298 C295 1.363 . S
C298 N296 1.356 . S
C299 C293 1.363 . S
C299 C294 1.379 . S
C299 N297 1.356 . S
N300 C292 1.356 1_554 S
N300 H306 0.984 . S
N300 H307 0.984 . S
N301 C294 1.356 . S
N301 H304 0.984 . S
N301 H305 0.985 . S
H302 N297 0.984 . S
H303 N297 0.985 . S
H304 N301 0.984 . S
H305 N301 0.985 . S
H306 N300 0.984 . S
H307 N300 0.984 . S
H308 N296 0.984 1_545 S
H309 N296 0.985 1_545 S
C97 C67 1.291 . S
C95 N41 1.484 . S
C113 N2 1.482 . S
C115 C91 1.291 . S
C131 N15 1.582 . S
C133 C70 1.366 . S
C149 N28 1.578 . S
C151 C88 1.366 . S
C169 C68 1.454 . S
C167 N5 1.487 . S
C187 C90 1.500 . S
C185 N14 1.568 . S
C203 N27 1.543 . S
C205 C69 1.502 . S
C221 N44 1.480 . S
C223 C89 1.435 . S
C241 C87 1.501 . S
C239 N18 1.544 . S
C259 C66 1.500 . S
C257 N31 1.573 . S
C277 C86 1.453 . S
C275 N40 1.482 . S
C293 N1 1.482 1_556 S
C295 C65 1.435 . S
