# Generated by pormake.
# Topology zzz, (3,6)-cn, num edge types: 1
# Building blocks:
#     Node 0, Type 0, BuildingBlock: CUQRIR_clean_linker_1, # of connection points: 3
#     Node 1, Type 0, BuildingBlock: CUQRIR_clean_linker_1, # of connection points: 3
#     Node 2, Type 0, BuildingBlock: CUQRIR_clean_linker_1, # of connection points: 3
#     Node 3, Type 0, BuildingBlock: CUQRIR_clean_linker_1, # of connection points: 3
#     Node 4, Type 0, BuildingBlock: CUQRIR_clean_linker_1, # of connection points: 3
#     Node 5, Type 0, BuildingBlock: CUQRIR_clean_linker_1, # of connection points: 3
#     Node 6, Type 0, BuildingBlock: CUQRIR_clean_linker_1, # of connection points: 3
#     Node 7, Type 0, BuildingBlock: CUQRIR_clean_linker_1, # of connection points: 3
#     Node 8, Type 1, BuildingBlock: BETDIP_clean_sbu_0, # of connection points: 6
#     Node 9, Type 1, BuildingBlock: BETDIP_clean_sbu_0, # of connection points: 6
#     Node 10, Type 1, BuildingBlock: BETDIP_clean_sbu_0, # of connection points: 6
#     Node 11, Type 1, BuildingBlock: BETDIP_clean_sbu_0, # of connection points: 6
#     Edge 12, Type (0, 1), BuildingBlock: AJUNOK_clean_linker_0, # of connection points: 2
#     Edge 13, Type (0, 1), BuildingBlock: AJUNOK_clean_linker_0, # of connection points: 2
#     Edge 14, Type (0, 1), BuildingBlock: AJUNOK_clean_linker_0, # of connection points: 2
#     Edge 15, Type (0, 1), BuildingBlock: AJUNOK_clean_linker_0, # of connection points: 2
#     Edge 16, Type (0, 1), BuildingBlock: AJUNOK_clean_linker_0, # of connection points: 2
#     Edge 17, Type (0, 1), BuildingBlock: AJUNOK_clean_linker_0, # of connection points: 2
#     Edge 18, Type (0, 1), BuildingBlock: AJUNOK_clean_linker_0, # of connection points: 2
#     Edge 19, Type (0, 1), BuildingBlock: AJUNOK_clean_linker_0, # of connection points: 2
#     Edge 20, Type (0, 1), BuildingBlock: AJUNOK_clean_linker_0, # of connection points: 2
#     Edge 21, Type (0, 1), BuildingBlock: AJUNOK_clean_linker_0, # of connection points: 2
#     Edge 22, Type (0, 1), BuildingBlock: AJUNOK_clean_linker_0, # of connection points: 2
#     Edge 23, Type (0, 1), BuildingBlock: AJUNOK_clean_linker_0, # of connection points: 2
#     Edge 24, Type (0, 1), BuildingBlock: AJUNOK_clean_linker_0, # of connection points: 2
#     Edge 25, Type (0, 1), BuildingBlock: AJUNOK_clean_linker_0, # of connection points: 2
#     Edge 26, Type (0, 1), BuildingBlock: AJUNOK_clean_linker_0, # of connection points: 2
#     Edge 27, Type (0, 1), BuildingBlock: AJUNOK_clean_linker_0, # of connection points: 2
#     Edge 28, Type (0, 1), BuildingBlock: AJUNOK_clean_linker_0, # of connection points: 2
#     Edge 29, Type (0, 1), BuildingBlock: AJUNOK_clean_linker_0, # of connection points: 2
#     Edge 30, Type (0, 1), BuildingBlock: AJUNOK_clean_linker_0, # of connection points: 2
#     Edge 31, Type (0, 1), BuildingBlock: AJUNOK_clean_linker_0, # of connection points: 2
#     Edge 32, Type (0, 1), BuildingBlock: AJUNOK_clean_linker_0, # of connection points: 2
#     Edge 33, Type (0, 1), BuildingBlock: AJUNOK_clean_linker_0, # of connection points: 2
#     Edge 34, Type (0, 1), BuildingBlock: AJUNOK_clean_linker_0, # of connection points: 2
#     Edge 35, Type (0, 1), BuildingBlock: AJUNOK_clean_linker_0, # of connection points: 2
# Relax obj value: 0.442
# Max RMSD: 0.199
# Mean RMSD: 0.144
data_MOF--net-zzz--node1-BETDIP_clean_sbu_0--node2-CUQRIR_clean_linker_1--edge1-AJUNOK_clean_linker_0
_symmetry_space_group_name_H-M    P1
_symmetry_Int_Tables_number       1
_symmetry_cell_setting            triclinic
loop_
_symmetry_equiv_pos_as_xyz
'x, y, z'
_cell_length_a     34.16008
_cell_length_b     34.084451
_cell_length_c     9.0002071
_cell_angle_alpha  89.95807
_cell_angle_beta   89.951089
_cell_angle_gamma 90.039682
loop_
_atom_site_label
_atom_site_type_symbol
_atom_site_fract_x
_atom_site_fract_y
_atom_site_fract_z
_atom_type_partial_charge
C0 C 0.76403 0.53614 0.42337 0.0
N1 N 0.79573 0.51164 0.44345 0.0
N2 N 0.73675 0.52031 0.3268 0.0
C3 C 0.75877 0.57444 0.50206 0.0
C4 C 0.75372 0.48606 0.28705 0.0
N5 N 0.78759 0.48029 0.36096 0.0
C6 C 0.74106 0.46109 0.15636 0.0
H7 H 0.72753 0.57865 0.53215 0.0
H8 H 0.7674 0.59862 0.42622 0.0
H9 H 0.77726 0.57577 0.60324 0.0
H10 H 0.71858 0.47567 0.08688 0.0
H11 H 0.72971 0.4326 0.19794 0.0
H12 H 0.76634 0.45442 0.0833 0.0
C13 C 1.01575 0.76323 0.41338 0.0
N14 N 0.04387 0.78949 0.45974 0.0
N15 N 1.03165 0.73318 0.33103 0.0
C16 C 0.9728 0.76855 0.43804 0.0
C17 C 0.06992 0.74269 0.32647 0.0
N18 N 0.07742 0.77591 0.40388 0.0
C19 C 0.09867 0.72338 0.22248 0.0
H20 H 0.95747 0.73985 0.43377 0.0
H21 H 0.96094 0.78764 0.34889 0.0
H22 H 0.96743 0.78309 0.54647 0.0
H23 H 0.09478 0.73536 0.1089 0.0
H24 H 0.09272 0.69158 0.21482 0.0
H25 H 0.1293 0.72884 0.25741 0.0
C26 C 0.79963 1.02053 0.40516 0.0
N27 N 0.77394 0.04923 0.45066 0.0
N28 N 0.82846 1.03538 0.31457 0.0
C29 C 0.79515 0.97786 0.44029 0.0
C30 C 0.819 0.07371 0.30508 0.0
N31 N 0.78693 0.08223 0.38736 0.0
C32 C 0.8377 0.10179 0.19647 0.0
H33 H 0.77924 0.97381 0.54679 0.0
H34 H 0.82428 0.96354 0.44583 0.0
H35 H 0.77807 0.96367 0.35031 0.0
H36 H 0.82172 0.10079 0.08947 0.0
H37 H 0.86803 0.09301 0.17089 0.0
H38 H 0.83664 0.13232 0.23878 0.0
C39 C 0.55461 0.80377 0.41888 0.0
N40 N 0.52571 0.77832 0.4641 0.0
N41 N 0.53942 0.83519 0.34258 0.0
C42 C 0.59743 0.79646 0.43894 0.0
C43 C 0.50081 0.82732 0.33989 0.0
N44 N 0.4924 0.79379 0.41386 0.0
C45 C 0.47251 0.84864 0.23996 0.0
H46 H 0.61418 0.82428 0.42995 0.0
H47 H 0.60756 0.7761 0.3508 0.0
H48 H 0.60287 0.78237 0.54821 0.0
H49 H 0.47618 0.83802 0.12433 0.0
H50 H 0.47922 0.88033 0.23805 0.0
H51 H 0.44175 0.84353 0.27407 0.0
C52 C 0.30124 0.51418 0.26081 0.0
N53 N 0.27335 0.54143 0.22111 0.0
N54 N 0.33165 0.53101 0.33859 0.0
C55 C 0.29744 0.4711 0.23337 0.0
C56 C 0.3206 0.56891 0.34721 0.0
N57 N 0.28604 0.57524 0.2777 0.0
C58 C 0.34151 0.59875 0.44156 0.0
H59 H 0.27865 0.45813 0.32128 0.0
H60 H 0.32656 0.45671 0.23688 0.0
H61 H 0.28318 0.4658 0.12444 0.0
H62 H 0.37331 0.59466 0.43043 0.0
H63 H 0.33506 0.59358 0.56059 0.0
H64 H 0.3329 0.62914 0.41249 0.0
C65 C 0.05422 0.29847 0.24696 0.0
N66 N 1.02655 0.27087 0.20841 0.0
N67 N 0.03891 0.32664 0.3399 0.0
C68 C 0.09639 0.2968 0.20275 0.0
C69 C 1.00145 0.3149 0.35705 0.0
N70 N 0.99404 0.28191 0.27917 0.0
C71 C 0.97466 0.32969 0.4784 0.0
H72 H 0.11306 0.28128 0.29071 0.0
H73 H 0.10846 0.32691 0.19216 0.0
H74 H 0.09997 0.28066 0.09658 0.0
H75 H 0.94365 0.32773 0.44279 0.0
H76 H 0.98178 0.36008 0.51173 0.0
H77 H 0.97795 0.31067 0.57775 0.0
C78 C 0.27122 0.055 0.28029 0.0
N79 N 0.29818 1.0279 0.23184 0.0
N80 N 0.23928 0.03722 0.34461 0.0
C81 C 0.27706 0.09844 0.27356 0.0
C82 C 0.24836 0.99884 0.33572 0.0
N83 N 0.28354 0.99308 0.27011 0.0
C84 C 0.22537 0.96732 0.41355 0.0
H85 H 0.29275 0.10802 0.37517 0.0
H86 H 0.24838 0.1137 0.26955 0.0
H87 H 0.29506 0.10648 0.17543 0.0
H88 H 0.2329 0.93776 0.3708 0.0
H89 H 0.19393 0.97345 0.4002 0.0
H90 H 0.23098 0.96831 0.53471 0.0
C91 C 0.52997 0.27842 0.31916 0.0
N92 N 0.55134 0.31221 0.29973 0.0
N93 N 0.54616 0.25462 0.42634 0.0
C94 C 0.49431 0.26831 0.2304 0.0
C95 C 0.57774 0.27563 0.47106 0.0
N96 N 0.58149 0.30931 0.39251 0.0
C97 C 0.60185 0.26612 0.60761 0.0
H98 H 0.46828 0.28154 0.28438 0.0
H99 H 0.49021 0.23604 0.22484 0.0
H100 H 0.4967 0.28062 0.11653 0.0
H101 H 0.62904 0.25084 0.57304 0.0
H102 H 0.58552 0.2472 0.68648 0.0
H103 H 0.61046 0.29309 0.66823 0.0
Tb104 Tb 0.05491 1.02233 0.95045 0.0
Tb105 Tb 1.01212 0.03813 0.71685 0.0
C106 C 0.08621 0.99966 0.18785 0.0
C107 C 0.11527 0.97144 0.23586 0.0
C108 C 0.11228 0.95651 0.37938 0.0
C109 C 0.13337 0.92343 0.41874 0.0
C110 C 0.15819 0.90515 0.31425 0.0
C111 C 0.16578 0.92434 0.17839 0.0
C112 C 0.14369 0.95698 0.13792 0.0
C113 C 0.10221 0.04801 0.72974 0.0
C114 C 0.0398 0.95133 0.72022 0.0
C115 C 0.97876 0.05896 0.48111 0.0
C116 C 0.94623 0.08403 0.44043 0.0
C117 C 0.94643 0.10115 0.29962 0.0
C118 C 0.92414 0.13446 0.27465 0.0
C119 C 0.9045 0.15201 0.39465 0.0
C120 C 0.89649 0.1295 0.52172 0.0
C121 C 0.91842 0.09563 0.5467 0.0
C122 C 0.96529 1.01296 0.94008 0.0
C123 C 1.02824 0.1098 0.94391 0.0
O124 O 0.05363 0.98509 0.1359 0.0
O125 O 0.09931 1.02845 0.10736 0.0
O126 O 0.07385 1.02404 0.71725 0.0
O127 O 0.10369 0.05792 0.86731 0.0
O128 O 0.04781 0.96023 0.86123 0.0
O129 O 1.03157 0.98103 0.63271 0.0
O130 O 1.00941 0.07685 0.5358 0.0
O131 O 0.96941 1.02782 0.55639 0.0
O132 O 0.99345 0.03718 0.94974 0.0
O133 O 0.96404 1.00207 0.80359 0.0
O134 O 1.01792 0.10014 0.80576 0.0
O135 O 0.03914 0.08107 0.03211 0.0
H136 H 0.09138 0.96859 0.45708 0.0
H137 H 0.1265 0.91 0.52461 0.0
H138 H 0.18525 0.91138 0.09703 0.0
H139 H 0.14689 0.96913 0.02728 0.0
H140 H 0.96685 0.09151 0.21498 0.0
H141 H 0.92919 0.15071 0.17287 0.0
H142 H 0.88051 0.14224 0.61384 0.0
H143 H 0.91735 0.08178 0.65501 0.0
Tb144 Tb 0.5467 0.06117 0.97218 0.0
Tb145 Tb 0.52875 1.01738 0.73975 0.0
C146 C 0.5709 0.0947 0.20254 0.0
C147 C 0.60097 0.12236 0.24836 0.0
C148 C 0.60959 0.15681 0.16887 0.0
C149 C 0.64162 0.17985 0.21081 0.0
C150 C 0.66523 0.1682 0.33123 0.0
C151 C 0.65316 0.13623 0.41938 0.0
C152 C 0.62214 0.11302 0.3751 0.0
C153 C 0.52178 0.10672 0.74546 0.0
C154 C 0.61596 0.04337 0.73666 0.0
C155 C 0.50559 0.98548 0.50444 0.0
C156 C 0.47749 0.9567 0.45206 0.0
C157 C 0.46493 0.92534 0.54101 0.0
C158 C 0.43273 0.90305 0.49669 0.0
C159 C 0.41196 0.91352 0.36743 0.0
C160 C 0.42865 0.94122 0.26954 0.0
C161 C 0.46135 0.9624 0.31182 0.0
C162 C 0.55533 0.97114 0.96065 0.0
C163 C 0.45928 1.03504 0.97342 0.0
O164 O 0.58327 0.06031 0.15883 0.0
O165 O 0.54302 0.10839 0.11921 0.0
O166 O 0.54551 0.07824 0.74002 0.0
O167 O 0.51028 0.10899 0.88133 0.0
O168 O 0.60796 0.05245 0.87773 0.0
O169 O 0.58584 1.03514 0.65151 0.0
O170 O 0.49116 1.01831 0.5556 0.0
O171 O 0.53398 0.97208 0.58597 0.0
O172 O 0.53147 0.99958 0.97335 0.0
O173 O 0.56482 0.96915 0.82268 0.0
O174 O 0.46763 1.02549 0.83331 0.0
O175 O 0.48899 0.04451 0.05907 0.0
H176 H 0.59314 0.16464 0.07038 0.0
H177 H 0.65056 0.20396 0.13994 0.0
H178 H 0.67035 0.12603 0.51275 0.0
H179 H 0.61474 0.0873 0.4394 0.0
H180 H 0.47833 0.91967 0.64795 0.0
H181 H 0.42163 0.8806 0.57083 0.0
H182 H 0.41428 0.94983 0.16743 0.0
H183 H 0.47227 0.98531 0.23971 0.0
Tb184 Tb 0.50275 0.54933 0.95733 0.0
Tb185 Tb 0.55926 0.53552 0.78269 0.0
C186 C 0.45651 0.57187 0.15679 0.0
C187 C 0.43448 0.60481 0.21629 0.0
C188 C 0.44483 0.61871 0.35685 0.0
C189 C 0.42759 0.65239 0.41209 0.0
C190 C 0.39969 0.67283 0.32677 0.0
C191 C 0.38559 0.65577 0.19484 0.0
C192 C 0.40322 0.62199 0.13889 0.0
C193 C 0.47028 0.5163 0.71694 0.0
C194 C 0.52728 0.61778 0.72971 0.0
C195 C 0.62002 0.5141 0.65121 0.0
C196 C 0.65211 0.49097 0.71704 0.0
C197 C 0.6447 0.46649 0.8395 0.0
C198 C 0.66137 0.42896 0.84072 0.0
C199 C 0.67941 0.4161 0.70874 0.0
C200 C 0.69973 0.44485 0.62788 0.0
C201 C 0.68549 0.48334 0.63299 0.0
C202 C 0.58761 0.56146 0.04368 0.0
C203 C 0.53147 0.46352 0.98579 0.0
O204 O 0.49451 0.57401 0.16734 0.0
O205 O 0.44516 0.55673 0.03139 0.0
O206 O 0.49745 0.54242 0.71492 0.0
O207 O 0.46602 0.50542 0.85303 0.0
O208 O 0.51414 0.61031 0.86621 0.0
O209 O 0.54146 0.58759 0.65638 0.0
O210 O 0.58645 0.49583 0.6373 0.0
O211 O 0.6157 0.54914 0.70456 0.0
O212 O 0.56164 0.53583 1.02124 0.0
O213 O 0.5919 0.57865 0.91785 0.0
O214 O 0.54871 0.47321 0.85865 0.0
O215 O 0.51393 0.49192 0.05807 0.0
H216 H 0.46757 0.60451 0.42125 0.0
H217 H 0.43946 0.66443 0.51388 0.0
H218 H 0.36405 0.67088 0.1276 0.0
H219 H 0.39378 0.61068 0.03234 0.0
H220 H 0.62178 0.47335 0.9179 0.0
H221 H 0.65027 0.4077 0.91955 0.0
H222 H 0.71908 0.43663 0.53778 0.0
H223 H 0.69588 0.50493 0.55604 0.0
Tb224 Tb 1.02652 0.50661 0.95092 0.0
Tb225 Tb 0.04238 0.55116 0.72229 0.0
C226 C 1.00576 0.47171 0.18397 0.0
C227 C 0.98279 0.43737 0.22282 0.0
C228 C 0.9652 0.43604 0.36266 0.0
C229 C 0.93371 0.41104 0.38551 0.0
C230 C 0.91796 0.39073 0.26343 0.0
C231 C 0.94197 0.38388 0.13948 0.0
C232 C 0.97418 0.40841 0.11669 0.0
C233 C 0.05419 0.46141 0.72737 0.0
C234 C 0.95566 0.52137 0.71882 0.0
C235 C 0.06465 0.58487 0.48852 0.0
C236 C 0.09236 0.61413 0.43628 0.0
C237 C 0.10425 0.64578 0.52486 0.0
C238 C 0.13636 0.66835 0.48124 0.0
C239 C 0.15787 0.65768 0.35383 0.0
C240 C 0.14152 0.63003 0.25509 0.0
C241 C 0.10881 0.60866 0.29633 0.0
C242 C 1.01527 0.59661 0.94669 0.0
C243 C 0.11267 0.53566 0.95451 0.0
O244 O 0.98642 0.50122 0.12699 0.0
O245 O 0.03792 0.46445 0.11223 0.0
O246 O 1.02948 0.48911 0.71664 0.0
O247 O 0.06386 0.45951 0.86499 0.0
O248 O 0.96489 0.51058 0.85701 0.0
O249 O 0.98458 0.53392 0.63456 0.0
O250 O 0.07944 0.55189 0.53626 0.0
O251 O 0.0365 0.59749 0.57284 0.0
O252 O 0.03976 0.56866 0.95662 0.0
O253 O 1.00512 0.59831 0.80935 0.0
O254 O 0.10418 0.5442 0.81351 0.0
O255 O 0.08276 0.52688 0.04006 0.0
H256 H 0.97291 0.45708 0.44808 0.0
H257 H 0.91675 0.41481 0.4864 0.0
H258 H 0.93109 0.36684 0.04672 0.0
H259 H 0.98881 0.40819 1.00983 0.0
H260 H 0.09047 0.65143 0.63118 0.0
H261 H 0.147 0.69097 0.5554 0.0
H262 H 0.15625 0.62143 0.15368 0.0
H263 H 0.09826 0.58569 0.22392 0.0
C264 C 0.16821 0.05159 0.37831 0.0
C265 C 0.20679 0.0519 0.43537 0.0
C266 C 0.13465 0.05118 0.47244 0.0
C267 C 0.13793 0.05061 0.62873 0.0
H268 H 0.16411 0.0492 0.2595 0.0
H269 H 0.10586 0.05046 0.42259 0.0
S270 S 0.23228 0.05154 0.83579 0.0
N271 N 0.24577 0.05219 0.6595 0.0
N272 N 0.18392 0.05179 0.83519 0.0
C273 C 0.17642 0.0526 0.68695 0.0
C274 C 0.21035 0.05309 0.59113 0.0
C275 C 0.5662 0.1877 0.50409 0.0
C276 C 0.53606 0.21539 0.48269 0.0
C277 C 0.56094 0.15312 0.58768 0.0
C278 C 0.52466 0.14276 0.64835 0.0
H279 H 0.59519 0.19442 0.46434 0.0
H280 H 0.58616 0.13533 0.61353 0.0
S281 S 0.43508 0.2043 0.63001 0.0
N282 N 0.46796 0.23014 0.53691 0.0
N283 N 0.45732 0.16363 0.68393 0.0
C284 C 0.49357 0.16952 0.6262 0.0
C285 C 0.49927 0.20577 0.54447 0.0
C286 C 0.40285 0.5148 0.36561 0.0
C287 C 0.36447 0.51497 0.42487 0.0
C288 C 0.437 0.51501 0.45762 0.0
C289 C 0.43443 0.51488 0.61448 0.0
H290 H 0.40623 0.51641 0.24649 0.0
H291 H 0.46555 0.51584 0.40547 0.0
S292 S 0.34038 0.51275 0.82633 0.0
N293 N 0.32641 0.51317 0.65083 0.0
N294 N 0.38869 0.51254 0.82279 0.0
C295 C 0.39591 0.51267 0.67421 0.0
C296 C 0.36162 0.51278 0.58045 0.0
C297 C 0.05829 0.39656 0.3732 0.0
C298 C 0.05674 0.35789 0.42883 0.0
C299 C 0.05861 0.42991 0.46872 0.0
C300 C 0.0575 0.42609 0.62485 0.0
H301 H 0.05663 0.40088 0.25446 0.0
H302 H 0.05859 0.45896 0.42013 0.0
S303 S 0.05889 0.33094 0.82806 0.0
N304 N 0.05869 0.31803 0.65125 0.0
N305 N 0.05935 0.3794 0.82947 0.0
C306 C 0.05955 0.38739 0.68151 0.0
C307 C 0.05939 0.35376 0.58432 0.0
C308 C 0.89746 1.01249 0.28645 0.0
C309 C 0.85955 1.01704 0.22644 0.0
C310 C 0.93139 1.01001 0.1946 0.0
C311 C 0.92903 1.01227 0.03823 0.0
H312 H 0.90103 1.01336 0.4058 0.0
H313 H 0.95985 1.00744 0.24638 0.0
S314 S 0.83618 1.01986 0.8241 0.0
N315 N 0.82178 1.02004 0.99935 0.0
N316 N 0.88433 1.01555 0.82827 0.0
C317 C 0.89092 1.01383 0.97702 0.0
C318 C 0.85665 1.01611 0.0703 0.0
C319 C 0.55665 0.90555 0.31246 0.0
C320 C 0.55697 0.86691 0.25566 0.0
C321 C 0.55722 0.93909 0.2182 0.0
C322 C 0.5579 0.9356 0.06212 0.0
H323 H 0.55315 0.90967 0.4308 0.0
H324 H 0.55605 0.96799 0.26756 0.0
S325 S 0.56094 0.84093 0.85607 0.0
N326 N 0.55977 0.82758 0.03248 0.0
N327 N 0.56125 0.88939 0.85621 0.0
C328 C 0.5606 0.89703 1.00439 0.0
C329 C 0.56008 0.86315 0.10044 0.0
C330 C 0.69099 0.57083 0.21666 0.0
C331 C 0.69758 0.53329 0.27817 0.0
C332 C 0.65475 0.5807 0.1478 0.0
C333 C 0.62299 0.55395 0.14098 0.0
H334 H 0.71467 0.59193 0.21406 0.0
H335 H 0.65207 0.60911 0.09487 0.0
S336 S 0.62381 0.45236 0.28891 0.0
N337 N 0.66801 0.46925 0.32413 0.0
N338 N 0.60035 0.48912 0.21072 0.0
C339 C 0.62849 0.51735 0.20981 0.0
C340 C 0.6655 0.50672 0.27364 0.0
C341 C 1.01393 0.66271 0.29867 0.0
C342 C 1.01476 0.70137 0.24189 0.0
C343 C 1.01307 0.6291 0.2044 0.0
C344 C 1.01324 0.63242 0.04801 0.0
H345 H 1.0164 0.65858 0.41735 0.0
H346 H 1.0132 0.6002 0.25419 0.0
S347 S 1.01313 0.72712 0.84137 0.0
N348 N 1.01379 0.74053 1.01769 0.0
N349 N 1.0119 0.67867 0.8419 0.0
C350 C 1.01177 0.67107 0.99014 0.0
C351 C 1.01258 0.70502 0.08613 0.0
C352 C 0.92775 0.25334 0.28421 0.0
C353 C 0.96654 0.25425 0.33459 0.0
C354 C 0.90339 0.22199 0.32402 0.0
C355 C 0.9175 0.19224 0.41796 0.0
H356 H 0.91753 0.27504 0.20536 0.0
H357 H 0.87533 0.21877 0.2694 0.0
S358 S 1.01623 0.18634 0.58998 0.0
N359 N 1.01659 0.22733 0.49326 0.0
N360 N 0.97167 0.16843 0.57005 0.0
C361 C 0.95483 0.19635 0.48308 0.0
C362 C 0.97935 0.22741 0.43987 0.0
C363 C 0.32181 0.93588 0.18735 0.0
C364 C 0.30741 0.95968 0.30169 0.0
C365 C 0.35178 0.90891 0.21685 0.0
C366 C 0.36915 0.90764 0.35913 0.0
H367 H 0.3122 0.94045 0.07407 0.0
H368 H 0.36632 0.89514 0.12341 0.0
S369 S 0.32972 0.95196 0.7033 0.0
N370 N 0.30483 0.97241 0.567 0.0
N371 N 0.35856 0.91956 0.62293 0.0
C372 C 0.34799 0.92382 0.47813 0.0
C373 C 0.31873 0.95202 0.44844 0.0
C374 C 0.59099 0.37112 0.51976 0.0
C375 C 0.60694 0.3406 0.43649 0.0
C376 C 0.61475 0.39478 0.60732 0.0
C377 C 0.65569 0.38877 0.61666 0.0
H378 H 0.55958 0.37496 0.52538 0.0
H379 H 0.60041 0.41779 0.66915 0.0
S380 S 0.71192 0.31471 0.40499 0.0
N381 N 0.66585 0.30679 0.35723 0.0
N382 N 0.7113 0.35213 0.52186 0.0
C383 C 0.67232 0.3598 0.52586 0.0
C384 C 0.6478 0.33551 0.43599 0.0
C385 C 0.24895 0.6323 0.18682 0.0
C386 C 0.26169 0.60861 0.30447 0.0
C387 C 0.21948 0.66021 0.21054 0.0
C388 C 0.20089 0.66266 0.3504 0.0
H389 H 0.25964 0.62713 0.07527 0.0
H390 H 0.20623 0.67396 0.11435 0.0
S391 S 0.23638 0.61948 0.70264 0.0
N392 N 0.26138 0.59713 0.57092 0.0
N393 N 0.20928 0.65227 0.61624 0.0
C394 C 0.22062 0.64657 0.473 0.0
C395 C 0.24914 0.6172 0.44906 0.0
C396 C 0.11806 0.81283 0.23126 0.0
C397 C 0.11103 0.79974 0.37639 0.0
C398 C 0.14542 0.84195 0.20376 0.0
C399 C 0.16247 0.86219 0.32351 0.0
H400 H 0.09986 0.80307 0.14015 0.0
H401 H 0.14634 0.8536 0.0918 0.0
S402 S 0.16529 0.82812 0.71412 0.0
N403 N 0.13315 0.79896 0.63238 0.0
N404 N 0.18204 0.85776 0.58301 0.0
C405 C 0.16199 0.8439 0.4638 0.0
C406 C 0.13533 0.81268 0.49105 0.0
C407 C 0.75002 0.12594 0.2239 0.0
C408 C 0.76438 0.11716 0.36615 0.0
C409 C 0.72482 0.15744 0.20214 0.0
C410 C 0.70768 0.17555 0.3264 0.0
H411 H 0.75616 0.10684 0.13085 0.0
H412 H 0.7117 0.16033 0.09302 0.0
S413 S 0.74843 0.17522 0.70706 0.0
N414 N 0.7725 0.14001 0.61975 0.0
N415 N 0.71854 0.19484 0.58302 0.0
C416 C 0.72835 0.17348 0.46134 0.0
C417 C 0.75659 0.14328 0.48228 0.0
C418 C 0.44655 0.76142 0.24704 0.0
C419 C 0.45703 0.77226 0.3918 0.0
C420 C 0.41594 0.73554 0.22248 0.0
C421 C 0.39893 0.71571 0.34334 0.0
H422 H 0.46406 0.77056 0.15292 0.0
H423 H 0.41201 0.72519 0.10964 0.0
S424 S 0.40617 0.74473 0.7386 0.0
N425 N 0.43929 0.772 0.65286 0.0
N426 N 0.38463 0.71833 0.60795 0.0
C427 C 0.40364 0.73199 0.48582 0.0
C428 C 0.43352 0.76026 0.51053 0.0
C429 C 0.81724 0.41471 0.37132 0.0
C430 C 0.81603 0.45281 0.31318 0.0
C431 C 0.84819 0.3897 0.33353 0.0
C432 C 0.8775 0.40248 0.23474 0.0
H433 H 0.79594 0.40554 0.45351 0.0
H434 H 0.85166 0.3624 0.39379 0.0
S435 S 0.88207 0.49895 0.04275 0.0
N436 N 0.84248 0.50114 0.14642 0.0
N437 N 0.89949 0.45422 0.06567 0.0
C438 C 0.87276 0.43889 0.16161 0.0
C439 C 0.84251 0.46441 0.20529 0.0
C440 C 0.05916 0.20466 0.16095 0.0
C441 C 1.02998 0.23283 0.12752 0.0
C442 C 0.05844 0.16578 0.10056 0.0
C443 C 1.02849 0.15233 1.00324 0.0
H444 H 0.08207 0.21214 0.2389 0.0
H445 H 0.08162 0.14578 0.13201 0.0
S446 S 0.943 0.21272 0.89059 0.0
N447 N 0.96986 0.24331 0.98971 0.0
N448 N 0.9668 0.17053 0.89035 0.0
C449 C 0.99884 0.17995 0.97186 0.0
C450 C 1.00006 0.21974 0.02993 0.0
C451 C 0.34566 1.02159 1.01755 0.0
C452 C 0.33745 1.03355 0.1651 0.0
C453 C 0.38428 1.02243 0.95583 0.0
C454 C 0.41731 1.03495 0.03858 0.0
H455 H 0.32179 1.01105 0.94947 0.0
H456 H 0.38831 1.01274 0.84235 0.0
S457 S 0.41192 0.06899 0.43262 0.0
N458 N 0.36609 0.05782 0.39244 0.0
N459 N 0.43747 0.06026 0.28027 0.0
C460 C 0.40909 0.04735 0.18667 0.0
C461 C 0.3698 0.04638 0.24869 0.0
C462 C 0.5673 0.35845 0.0897 0.0
C463 C 0.54274 0.34714 0.20898 0.0
C464 C 0.56232 0.39475 1.01305 0.0
C465 C 0.53363 0.4225 0.05538 0.0
H466 H 0.59098 0.33924 0.0567 0.0
H467 H 0.582 0.40166 0.92298 0.0
S468 S 0.46172 0.40717 0.36173 0.0
N469 N 0.48801 0.36651 0.36277 0.0
N470 N 0.47961 0.43452 0.22611 0.0
C471 C 0.50868 0.41108 0.17403 0.0
C472 C 0.51306 0.37373 0.24876 0.0
C473 C 0.22691 0.54677 1.00178 0.0
C474 C 0.23433 0.53598 0.15142 0.0
C475 C 0.18836 0.54637 0.93833 0.0
C476 C 0.15464 0.5356 1.02111 0.0
H477 H 0.25126 0.5561 0.9334 0.0
H478 H 0.18493 0.5549 0.82326 0.0
S479 S 0.15808 0.50423 0.41896 0.0
N480 N 0.20425 0.51418 0.37972 0.0
N481 N 0.13324 0.51246 0.26467 0.0
C482 C 0.16218 0.52419 0.17098 0.0
C483 C 0.20129 0.52474 0.23471 0.0
C484 C 0.04982 0.83658 0.67794 0.0
C485 C 0.03923 0.82888 0.52819 0.0
C486 C 0.05 0.87539 0.73977 0.0
C487 C 0.03965 0.90907 0.65553 0.0
H488 H 0.05862 0.81231 0.74794 0.0
H489 H 0.05867 0.87897 0.85465 0.0
S490 S 1.00931 0.90497 0.2569 0.0
N491 N 1.01843 0.85869 0.29825 0.0
N492 N 1.01753 0.93016 0.41045 0.0
C493 C 1.02855 0.90126 0.50563 0.0
C494 C 1.02867 0.86191 0.44344 0.0
C495 C 0.72882 0.05922 0.67233 0.0
C496 C 0.73561 0.04494 0.52643 0.0
C497 C 0.69093 0.05838 0.74089 0.0
C498 C 0.65753 0.04289 0.66796 0.0
H499 H 0.75307 0.07134 0.73439 0.0
H500 H 0.6878 0.07045 0.85151 0.0
S501 S 0.65995 0.99932 0.28717 0.0
N502 N 0.70549 1.01391 0.3142 0.0
N503 N 0.63594 1.01041 0.44078 0.0
C504 C 0.66466 1.02719 0.52364 0.0
C505 C 0.70295 1.02869 0.45392 0.0
C506 C 0.52117 0.73195 0.68312 0.0
C507 C 0.52919 0.73875 0.53083 0.0
C508 C 0.52014 0.69341 0.74585 0.0
C509 C 0.5275 0.65923 0.66037 0.0
H510 H 0.51506 0.75676 0.75448 0.0
H511 H 0.51364 0.69047 0.86311 0.0
S512 S 0.54918 0.6607 0.25406 0.0
N513 N 0.54346 0.70754 0.29586 0.0
N514 N 0.54316 0.63625 0.41103 0.0
C515 C 0.53587 0.66597 0.50762 0.0
C516 C 0.5363 0.70513 0.44397 0.0
C517 C 0.8486 0.48734 0.61939 0.0
C518 C 0.83356 0.51702 0.52413 0.0
C519 C 0.88715 0.48878 0.68204 0.0
C520 C 0.91345 0.52016 0.6549 0.0
H521 H 0.83051 0.46206 0.64375 0.0
H522 H 0.8968 0.46429 0.74916 0.0
S523 S 0.89109 0.60389 0.40228 0.0
N524 N 0.85042 0.57763 0.39863 0.0
N525 N 0.92127 0.58082 0.51602 0.0
C526 C 0.89901 0.54964 0.55737 0.0
C527 C 0.85977 0.54814 0.49349 0.0
loop_
_geom_bond_atom_site_label_1
_geom_bond_atom_site_label_2
_geom_bond_distance
_geom_bond_site_symmetry_2
_ccdc_geom_bond_type
C0 N1 1.317 . S
C0 N2 1.348 . S
C0 C3 1.485 . S
N1 C0 1.317 . S
N1 N5 1.370 . S
N2 C0 1.348 . S
N2 C4 1.346 . S
C3 C0 1.485 . S
C3 H7 0.960 . S
C3 H8 0.961 . S
C3 H9 0.960 . S
C4 N2 1.346 . S
C4 N5 1.307 . S
C4 C6 1.486 . S
N5 N1 1.370 . S
N5 C4 1.307 . S
C6 C4 1.486 . S
C6 H10 0.960 . S
C6 H11 0.960 . S
C6 H12 0.959 . S
H7 C3 0.960 . S
H8 C3 0.961 . S
H9 C3 0.960 . S
H10 C6 0.960 . S
H11 C6 0.960 . S
H12 C6 0.959 . S
C13 N14 1.317 . S
C13 N15 1.348 . S
C13 C16 1.485 . S
N14 C13 1.317 . S
N14 N18 1.371 . S
N15 C13 1.348 . S
N15 C17 1.346 1_655 S
C16 C13 1.485 . S
C16 H20 0.960 1_655 S
C16 H21 0.961 . S
C16 H22 0.960 . S
C17 N15 1.346 1_455 S
C17 N18 1.307 1_455 S
C17 C19 1.486 . S
N18 N14 1.371 . S
N18 C17 1.307 1_655 S
C19 C17 1.486 . S
C19 H23 0.960 1_455 S
C19 H24 0.960 . S
C19 H25 0.959 . S
H20 C16 0.960 1_455 S
H21 C16 0.961 . S
H22 C16 0.960 . S
H23 C19 0.960 1_655 S
H24 C19 0.960 . S
H25 C19 0.959 . S
C26 N27 1.317 . S
C26 N28 1.348 . S
C26 C29 1.485 . S
N27 C26 1.317 . S
N27 N31 1.371 . S
N28 C26 1.348 . S
N28 C30 1.346 1_565 S
C29 C26 1.485 . S
C29 H33 0.960 1_565 S
C29 H34 0.961 . S
C29 H35 0.960 . S
C30 N28 1.346 1_545 S
C30 N31 1.307 1_545 S
C30 C32 1.486 . S
N31 N27 1.371 . S
N31 C30 1.307 1_565 S
C32 C30 1.486 . S
C32 H36 0.960 1_545 S
C32 H37 0.960 . S
C32 H38 0.959 . S
H33 C29 0.960 1_545 S
H34 C29 0.961 . S
H35 C29 0.960 . S
H36 C32 0.960 1_565 S
H37 C32 0.960 . S
H38 C32 0.959 . S
C39 N40 1.317 . S
C39 N41 1.348 . S
C39 C42 1.485 . S
N40 C39 1.317 . S
N40 N44 1.370 . S
N41 C39 1.348 . S
N41 C43 1.346 . S
C42 C39 1.485 . S
C42 H46 0.960 . S
C42 H47 0.961 . S
C42 H48 0.960 . S
C43 N41 1.346 . S
C43 N44 1.307 . S
C43 C45 1.486 . S
N44 N40 1.370 . S
N44 C43 1.307 . S
C45 C43 1.486 . S
C45 H49 0.960 . S
C45 H50 0.960 . S
C45 H51 0.959 . S
H46 C42 0.960 . S
H47 C42 0.961 . S
H48 C42 0.960 . S
H49 C45 0.960 . S
H50 C45 0.960 . S
H51 C45 0.959 . S
C52 N53 1.317 . S
C52 N54 1.348 1_556 S
C52 C55 1.485 . S
N53 C52 1.317 . S
N53 N57 1.370 1_556 S
N54 C52 1.348 1_554 S
N54 C56 1.346 . S
C55 C52 1.485 . S
C55 H59 0.960 . S
C55 H60 0.961 . S
C55 H61 0.960 . S
C56 N54 1.346 . S
C56 N57 1.307 . S
C56 C58 1.486 . S
N57 N53 1.370 1_554 S
N57 C56 1.307 . S
C58 C56 1.486 . S
C58 H62 0.960 . S
C58 H63 0.960 . S
C58 H64 0.959 . S
H59 C55 0.960 . S
H60 C55 0.961 . S
H61 C55 0.960 . S
H62 C58 0.960 . S
H63 C58 0.960 . S
H64 C58 0.959 . S
C65 N66 1.317 . S
C65 N67 1.350 1_556 S
C65 C68 1.485 . S
N66 C65 1.317 . S
N66 N70 1.371 1_556 S
N67 C65 1.350 1_554 S
N67 C69 1.345 1_655 S
C68 C65 1.485 . S
C68 H72 0.960 1_655 S
C68 H73 0.961 . S
C68 H74 0.960 . S
C69 N67 1.345 1_455 S
C69 N70 1.307 1_455 S
C69 C71 1.487 . S
N70 N66 1.371 1_554 S
N70 C69 1.307 1_655 S
C71 C69 1.487 . S
C71 H75 0.960 1_455 S
C71 H76 0.960 . S
C71 H77 0.959 . S
H72 C68 0.960 1_455 S
H73 C68 0.961 . S
H74 C68 0.960 . S
H75 C71 0.960 1_655 S
H76 C71 0.960 . S
H77 C71 0.959 . S
C78 N79 1.317 . S
C78 N80 1.350 1_556 S
C78 C81 1.485 . S
N79 C78 1.317 . S
N79 N83 1.371 1_556 S
N80 C78 1.350 1_554 S
N80 C82 1.345 1_565 S
C81 C78 1.485 . S
C81 H85 0.960 1_565 S
C81 H86 0.961 . S
C81 H87 0.960 . S
C82 N80 1.345 1_545 S
C82 N83 1.307 1_545 S
C82 C84 1.487 . S
N83 N79 1.371 1_554 S
N83 C82 1.307 1_565 S
C84 C82 1.487 . S
C84 H88 0.960 1_545 S
C84 H89 0.960 . S
C84 H90 0.959 . S
H85 C81 0.960 1_545 S
H86 C81 0.961 . S
H87 C81 0.960 . S
H88 C84 0.960 1_565 S
H89 C84 0.960 . S
H90 C84 0.959 . S
C91 N92 1.317 . S
C91 N93 1.348 1_556 S
C91 C94 1.485 . S
N92 C91 1.317 . S
N92 N96 1.370 1_556 S
N93 C91 1.348 1_554 S
N93 C95 1.346 . S
C94 C91 1.485 . S
C94 H98 0.960 . S
C94 H99 0.961 . S
C94 H100 0.960 . S
C95 N93 1.346 . S
C95 N96 1.307 . S
C95 C97 1.486 . S
N96 N92 1.370 1_554 S
N96 C95 1.307 . S
C97 C95 1.486 . S
C97 H101 0.960 . S
C97 H102 0.960 . S
C97 H103 0.959 . S
H98 C94 0.960 . S
H99 C94 0.961 . S
H100 C94 0.960 . S
H101 C97 0.960 . S
H102 C97 0.960 . S
H103 C97 0.959 . S
Tb104 C106 2.809 1_556 S
Tb104 O124 2.484 1_556 S
Tb104 O125 2.440 1_556 S
Tb104 O126 2.658 1_565 S
Tb104 O127 2.409 . S
Tb104 O128 2.378 . S
Tb104 O132 2.325 1_455 S
Tb104 O135 2.341 1_565 S
Tb105 C115 2.809 . S
Tb105 O126 2.325 1_655 S
Tb105 O129 2.341 1_545 S
Tb105 O130 2.484 . S
Tb105 O131 2.440 . S
Tb105 O132 2.658 1_545 S
Tb105 O133 2.409 . S
Tb105 O134 2.378 . S
C106 Tb104 2.809 1_554 S
C106 C107 1.514 . S
C106 O124 1.248 . S
C106 O125 1.266 . S
C107 C106 1.514 . S
C107 C108 1.359 . S
C107 C112 1.348 . S
C108 C107 1.359 . S
C108 C109 1.380 . S
C108 H136 0.929 1_455 S
C109 C108 1.380 . S
C109 C110 1.347 . S
C109 H137 0.949 . S
C110 C109 1.347 . S
C110 C111 1.369 . S
C111 C110 1.369 . S
C111 C112 1.408 . S
C111 H138 0.930 . S
C112 C107 1.348 . S
C112 C111 1.408 . S
C112 H139 0.930 . S
C113 O126 1.281 1_565 S
C113 O127 1.254 . S
C114 O128 1.236 1_655 S
C114 O129 1.266 . S
C115 Tb105 2.809 . S
C115 C116 1.514 . S
C115 O130 1.248 . S
C115 O131 1.266 . S
C116 C115 1.514 . S
C116 C117 1.359 . S
C116 C121 1.348 . S
C117 C116 1.359 . S
C117 C118 1.380 . S
C117 H140 0.929 1_655 S
C118 C117 1.380 . S
C118 C119 1.347 . S
C118 H141 0.943 . S
C119 C118 1.347 . S
C119 C120 1.369 . S
C120 C119 1.369 . S
C120 C121 1.408 . S
C120 H142 0.930 . S
C121 C116 1.348 . S
C121 C120 1.408 . S
C121 H143 0.930 . S
C122 O132 1.281 1_545 S
C122 O133 1.254 . S
C123 O134 1.236 1_455 S
C123 O135 1.266 . S
O124 Tb104 2.484 1_554 S
O124 C106 1.248 . S
O125 Tb104 2.440 1_554 S
O125 C106 1.266 . S
O126 Tb104 2.658 1_545 S
O126 Tb105 2.325 1_455 S
O126 C113 1.281 1_545 S
O127 Tb104 2.409 . S
O127 C113 1.254 . S
O128 Tb104 2.378 . S
O128 C114 1.236 1_455 S
O129 Tb105 2.341 1_565 S
O129 C114 1.266 . S
O130 Tb105 2.484 . S
O130 C115 1.248 . S
O131 Tb105 2.440 . S
O131 C115 1.266 . S
O132 Tb104 2.325 1_655 S
O132 Tb105 2.658 1_565 S
O132 C122 1.281 1_565 S
O133 Tb105 2.409 . S
O133 C122 1.254 . S
O134 Tb105 2.378 . S
O134 C123 1.236 1_655 S
O135 Tb104 2.341 1_545 S
O135 C123 1.266 . S
H136 C108 0.929 1_655 S
H137 C109 0.949 . S
H138 C111 0.930 . S
H139 C112 0.930 . S
H140 C117 0.929 1_455 S
H141 C118 0.943 . S
H142 C120 0.930 . S
H143 C121 0.930 . S
Tb144 C146 2.809 1_556 S
Tb144 O164 2.484 1_556 S
Tb144 O165 2.440 1_556 S
Tb144 O166 2.658 . S
Tb144 O167 2.409 . S
Tb144 O168 2.378 . S
Tb144 O172 2.325 1_545 S
Tb144 O175 2.341 . S
Tb145 C155 2.809 . S
Tb145 O166 2.325 1_565 S
Tb145 O169 2.341 . S
Tb145 O170 2.484 . S
Tb145 O171 2.440 . S
Tb145 O172 2.658 . S
Tb145 O173 2.409 . S
Tb145 O174 2.378 . S
C146 Tb144 2.809 1_554 S
C146 C147 1.514 . S
C146 O164 1.248 . S
C146 O165 1.266 . S
C147 C146 1.514 . S
C147 C148 1.359 . S
C147 C152 1.348 . S
C148 C147 1.359 . S
C148 C149 1.380 . S
C148 H176 0.929 1_545 S
C149 C148 1.380 . S
C149 C150 1.347 . S
C149 H177 0.931 1_545 S
C150 C149 1.347 . S
C150 C151 1.369 . S
C151 C150 1.369 . S
C151 C152 1.408 . S
C151 H178 0.930 . S
C152 C147 1.348 . S
C152 C151 1.408 . S
C152 H179 0.930 . S
C153 O166 1.281 . S
C153 O167 1.254 . S
C154 O168 1.236 1_565 S
C154 O169 1.266 . S
C155 Tb145 2.809 . S
C155 C156 1.514 . S
C155 O170 1.248 . S
C155 O171 1.266 . S
C156 C155 1.514 . S
C156 C157 1.359 . S
C156 C161 1.348 . S
C157 C156 1.359 . S
C157 C158 1.380 . S
C157 H180 0.929 1_565 S
C158 C157 1.380 . S
C158 C159 1.347 . S
C158 H181 0.931 1_565 S
C159 C158 1.347 . S
C159 C160 1.369 . S
C160 C159 1.369 . S
C160 C161 1.408 . S
C160 H182 0.930 . S
C161 C156 1.348 . S
C161 C160 1.408 . S
C161 H183 0.930 . S
C162 O172 1.281 . S
C162 O173 1.254 . S
C163 O174 1.236 1_545 S
C163 O175 1.266 . S
O164 Tb144 2.484 1_554 S
O164 C146 1.248 . S
O165 Tb144 2.440 1_554 S
O165 C146 1.266 . S
O166 Tb144 2.658 . S
O166 Tb145 2.325 1_545 S
O166 C153 1.281 . S
O167 Tb144 2.409 . S
O167 C153 1.254 . S
O168 Tb144 2.378 . S
O168 C154 1.236 1_545 S
O169 Tb145 2.341 . S
O169 C154 1.266 . S
O170 Tb145 2.484 . S
O170 C155 1.248 . S
O171 Tb145 2.440 . S
O171 C155 1.266 . S
O172 Tb144 2.325 1_565 S
O172 Tb145 2.658 . S
O172 C162 1.281 . S
O173 Tb145 2.409 . S
O173 C162 1.254 . S
O174 Tb145 2.378 . S
O174 C163 1.236 1_565 S
O175 Tb144 2.341 . S
O175 C163 1.266 . S
H176 C148 0.929 1_565 S
H177 C149 0.931 1_565 S
H178 C151 0.930 . S
H179 C152 0.930 . S
H180 C157 0.929 1_545 S
H181 C158 0.931 1_545 S
H182 C160 0.930 . S
H183 C161 0.930 . S
Tb184 C186 2.809 1_556 S
Tb184 O204 2.484 1_556 S
Tb184 O205 2.440 1_556 S
Tb184 O206 2.658 . S
Tb184 O207 2.409 . S
Tb184 O208 2.378 . S
Tb184 O212 2.325 . S
Tb184 O215 2.341 . S
Tb185 C195 2.809 . S
Tb185 O206 2.325 . S
Tb185 O209 2.341 . S
Tb185 O210 2.484 . S
Tb185 O211 2.440 . S
Tb185 O212 2.658 . S
Tb185 O213 2.409 . S
Tb185 O214 2.378 . S
C186 Tb184 2.809 1_554 S
C186 C187 1.514 . S
C186 O204 1.248 . S
C186 O205 1.266 . S
C187 C186 1.514 . S
C187 C188 1.359 . S
C187 C192 1.348 . S
C188 C187 1.359 . S
C188 C189 1.380 . S
C188 H216 0.929 . S
C189 C188 1.380 . S
C189 C190 1.347 . S
C189 H217 0.931 . S
C190 C189 1.347 . S
C190 C191 1.369 . S
C191 C190 1.369 . S
C191 C192 1.408 . S
C191 H218 0.930 . S
C192 C187 1.348 . S
C192 C191 1.408 . S
C192 H219 0.930 . S
C193 O206 1.281 . S
C193 O207 1.254 . S
C194 O208 1.236 . S
C194 O209 1.266 . S
C195 Tb185 2.809 . S
C195 C196 1.514 . S
C195 O210 1.248 . S
C195 O211 1.266 . S
C196 C195 1.514 . S
C196 C197 1.359 . S
C196 C201 1.348 . S
C197 C196 1.359 . S
C197 C198 1.380 . S
C197 H220 0.929 . S
C198 C197 1.380 . S
C198 C199 1.347 . S
C198 H221 0.931 . S
C199 C198 1.347 . S
C199 C200 1.369 . S
C200 C199 1.369 . S
C200 C201 1.408 . S
C200 H222 0.930 . S
C201 C196 1.348 . S
C201 C200 1.408 . S
C201 H223 0.930 . S
C202 O212 1.281 . S
C202 O213 1.254 . S
C203 O214 1.236 . S
C203 O215 1.266 . S
O204 Tb184 2.484 1_554 S
O204 C186 1.248 . S
O205 Tb184 2.440 1_554 S
O205 C186 1.266 . S
O206 Tb184 2.658 . S
O206 Tb185 2.325 . S
O206 C193 1.281 . S
O207 Tb184 2.409 . S
O207 C193 1.254 . S
O208 Tb184 2.378 . S
O208 C194 1.236 . S
O209 Tb185 2.341 . S
O209 C194 1.266 . S
O210 Tb185 2.484 . S
O210 C195 1.248 . S
O211 Tb185 2.440 . S
O211 C195 1.266 . S
O212 Tb184 2.325 . S
O212 Tb185 2.658 . S
O212 C202 1.281 . S
O213 Tb185 2.409 . S
O213 C202 1.254 . S
O214 Tb185 2.378 . S
O214 C203 1.236 . S
O215 Tb184 2.341 . S
O215 C203 1.266 . S
H216 C188 0.929 . S
H217 C189 0.931 . S
H218 C191 0.930 . S
H219 C192 0.930 . S
H220 C197 0.929 . S
H221 C198 0.931 . S
H222 C200 0.930 . S
H223 C201 0.930 . S
Tb224 C226 2.809 1_556 S
Tb224 O244 2.484 1_556 S
Tb224 O245 2.440 1_556 S
Tb224 O246 2.658 1_655 S
Tb224 O247 2.409 . S
Tb224 O248 2.378 . S
Tb224 O252 2.325 . S
Tb224 O255 2.341 1_655 S
Tb225 C235 2.809 . S
Tb225 O246 2.325 . S
Tb225 O249 2.341 1_455 S
Tb225 O250 2.484 . S
Tb225 O251 2.440 . S
Tb225 O252 2.658 1_455 S
Tb225 O253 2.409 . S
Tb225 O254 2.378 . S
C226 Tb224 2.809 1_554 S
C226 C227 1.514 . S
C226 O244 1.248 . S
C226 O245 1.266 . S
C227 C226 1.514 . S
C227 C228 1.359 . S
C227 C232 1.348 . S
C228 C227 1.359 . S
C228 C229 1.380 . S
C228 H256 0.929 . S
C229 C228 1.380 . S
C229 C230 1.347 . S
C229 H257 0.931 . S
C230 C229 1.347 . S
C230 C231 1.369 . S
C231 C230 1.369 . S
C231 C232 1.408 . S
C231 H258 0.930 . S
C232 C227 1.348 . S
C232 C231 1.408 . S
C232 H259 0.930 . S
C233 O246 1.276 1_655 S
C233 O247 1.260 . S
C234 O248 1.236 . S
C234 O249 1.266 . S
C235 Tb225 2.809 . S
C235 C236 1.514 . S
C235 O250 1.248 . S
C235 O251 1.266 . S
C236 C235 1.514 . S
C236 C237 1.359 . S
C236 C241 1.348 . S
C237 C236 1.359 . S
C237 C238 1.380 . S
C237 H260 0.929 . S
C238 C237 1.380 . S
C238 C239 1.347 . S
C238 H261 0.931 . S
C239 C238 1.347 . S
C239 C240 1.369 . S
C240 C239 1.369 . S
C240 C241 1.408 . S
C240 H262 0.930 . S
C241 C236 1.348 . S
C241 C240 1.408 . S
C241 H263 0.930 . S
C242 O252 1.274 1_455 S
C242 O253 1.263 . S
C243 O254 1.236 . S
C243 O255 1.266 . S
O244 Tb224 2.484 1_554 S
O244 C226 1.248 . S
O245 Tb224 2.440 1_554 S
O245 C226 1.266 . S
O246 Tb224 2.658 1_455 S
O246 Tb225 2.325 . S
O246 C233 1.276 1_455 S
O247 Tb224 2.409 . S
O247 C233 1.260 . S
O248 Tb224 2.378 . S
O248 C234 1.236 . S
O249 Tb225 2.341 1_655 S
O249 C234 1.266 . S
O250 Tb225 2.484 . S
O250 C235 1.248 . S
O251 Tb225 2.440 . S
O251 C235 1.266 . S
O252 Tb224 2.325 . S
O252 Tb225 2.658 1_655 S
O252 C242 1.274 1_655 S
O253 Tb225 2.409 . S
O253 C242 1.263 . S
O254 Tb225 2.378 . S
O254 C243 1.236 . S
O255 Tb224 2.341 1_455 S
O255 C243 1.266 . S
H256 C228 0.929 . S
H257 C229 0.931 . S
H258 C231 0.930 . S
H259 C232 0.930 . S
H260 C237 0.929 . S
H261 C238 0.931 . S
H262 C240 0.930 . S
H263 C241 0.930 . S
C264 C265 1.367 1_565 S
C264 C266 1.419 . S
C264 H268 0.930 . S
C265 C264 1.367 1_545 S
C265 C274 1.431 . S
C266 C264 1.419 . S
C266 C267 1.379 . S
C266 H269 0.929 . S
C267 C266 1.379 . S
C267 C273 1.412 1_565 S
H268 C264 0.930 . S
H269 C266 0.929 . S
S270 N271 1.613 . S
S270 N272 1.610 . S
N271 S270 1.613 . S
N271 C274 1.350 . S
N272 S270 1.610 . S
N272 C273 1.351 . S
C273 C267 1.412 1_545 S
C273 N272 1.351 . S
C273 C274 1.434 . S
C274 C265 1.431 . S
C274 N271 1.350 . S
C274 C273 1.434 . S
C275 C276 1.369 . S
C275 C277 1.419 . S
C275 H279 0.930 . S
C276 C275 1.369 . S
C276 C285 1.429 . S
C277 C275 1.419 . S
C277 C278 1.363 . S
C277 H280 0.929 . S
C278 C277 1.363 . S
C278 C284 1.428 . S
H279 C275 0.930 . S
H280 C277 0.929 . S
S281 N282 1.613 . S
S281 N283 1.610 . S
N282 S281 1.613 . S
N282 C285 1.350 . S
N283 S281 1.610 . S
N283 C284 1.351 . S
C284 C278 1.428 . S
C284 N283 1.351 . S
C284 C285 1.434 . S
C285 C276 1.429 . S
C285 N282 1.350 . S
C285 C284 1.434 . S
C286 C287 1.369 . S
C286 C288 1.419 . S
C286 H290 0.930 . S
C287 C286 1.369 . S
C287 C296 1.429 . S
C288 C286 1.419 . S
C288 C289 1.363 . S
C288 H291 0.929 . S
C289 C288 1.363 . S
C289 C295 1.428 . S
H290 C286 0.930 . S
H291 C288 0.929 . S
S292 N293 1.613 . S
S292 N294 1.610 . S
N293 S292 1.613 . S
N293 C296 1.350 . S
N294 S292 1.610 . S
N294 C295 1.351 . S
C295 C289 1.428 . S
C295 N294 1.351 . S
C295 C296 1.434 . S
C296 C287 1.429 . S
C296 N293 1.350 . S
C296 C295 1.434 . S
C297 C298 1.352 1_655 S
C297 C299 1.419 . S
C297 H301 0.930 . S
C298 C297 1.352 1_455 S
C298 C307 1.446 . S
C299 C297 1.419 . S
C299 C300 1.363 1_655 S
C299 H302 0.929 . S
C300 C299 1.363 1_455 S
C300 C306 1.428 . S
H301 C297 0.930 . S
H302 C299 0.929 . S
S303 N304 1.613 . S
S303 N305 1.610 . S
N304 S303 1.613 . S
N304 C307 1.350 . S
N305 S303 1.610 . S
N305 C306 1.351 . S
C306 C300 1.428 . S
C306 N305 1.351 . S
C306 C307 1.434 . S
C307 C298 1.446 . S
C307 N304 1.350 . S
C307 C306 1.434 . S
C308 C309 1.371 . S
C308 C310 1.419 . S
C308 H312 0.930 . S
C309 C308 1.371 . S
C309 C318 1.426 1_545 S
C310 C308 1.419 . S
C310 C311 1.384 . S
C310 H313 0.929 . S
C311 C310 1.384 . S
C311 C317 1.408 1_545 S
H312 C308 0.930 . S
H313 C310 0.929 . S
S314 N315 1.613 . S
S314 N316 1.610 . S
N315 S314 1.613 . S
N315 C318 1.350 . S
N316 S314 1.610 . S
N316 C317 1.351 . S
C317 C311 1.408 1_565 S
C317 N316 1.351 . S
C317 C318 1.434 . S
C318 C309 1.426 1_565 S
C318 N315 1.350 . S
C318 C317 1.434 . S
C319 C320 1.369 . S
C319 C321 1.419 . S
C319 H323 0.930 . S
C320 C319 1.369 . S
C320 C329 1.429 . S
C321 C319 1.419 . S
C321 C322 1.363 . S
C321 H324 0.929 . S
C322 C321 1.363 . S
C322 C328 1.428 . S
H323 C319 0.930 . S
H324 C321 0.929 . S
S325 N326 1.613 . S
S325 N327 1.610 . S
N326 S325 1.613 . S
N326 C329 1.350 . S
N327 S325 1.610 . S
N327 C328 1.351 . S
C328 C322 1.428 . S
C328 N327 1.351 . S
C328 C329 1.434 . S
C329 C320 1.429 . S
C329 N326 1.350 . S
C329 C328 1.434 . S
C330 C331 1.369 . S
C330 C332 1.419 . S
C330 H334 0.930 . S
C331 C330 1.369 . S
C331 C340 1.429 . S
C332 C330 1.419 . S
C332 C333 1.363 . S
C332 H335 0.929 . S
C333 C332 1.363 . S
C333 C339 1.428 . S
H334 C330 0.930 . S
H335 C332 0.929 . S
S336 N337 1.613 . S
S336 N338 1.610 . S
N337 S336 1.613 . S
N337 C340 1.350 . S
N338 S336 1.610 . S
N338 C339 1.351 . S
C339 C333 1.428 . S
C339 N338 1.351 . S
C339 C340 1.434 . S
C340 C331 1.429 . S
C340 N337 1.350 . S
C340 C339 1.434 . S
C341 C342 1.354 1_455 S
C341 C343 1.419 . S
C341 H345 0.930 . S
C342 C341 1.354 1_655 S
C342 C351 1.444 . S
C343 C341 1.419 . S
C343 C344 1.363 1_455 S
C343 H346 0.929 . S
C344 C343 1.363 1_655 S
C344 C350 1.428 . S
H345 C341 0.930 . S
H346 C343 0.929 . S
S347 N348 1.613 . S
S347 N349 1.610 . S
N348 S347 1.613 . S
N348 C351 1.350 . S
N349 S347 1.610 . S
N349 C350 1.351 . S
C350 C344 1.428 . S
C350 N349 1.351 . S
C350 C351 1.434 . S
C351 C342 1.444 . S
C351 N348 1.350 . S
C351 C350 1.434 . S
C352 C353 1.378 . S
C352 C354 1.419 . S
C352 H356 0.930 1_554 S
C353 C352 1.378 . S
C353 C362 1.435 . S
C354 C352 1.419 . S
C354 C355 1.363 . S
C354 H357 0.929 . S
C355 C354 1.363 . S
C355 C361 1.428 . S
H356 C352 0.930 1_556 S
H357 C354 0.929 . S
S358 N359 1.598 1_655 S
S358 N360 1.610 . S
N359 S358 1.598 1_455 S
N359 C362 1.339 1_455 S
N360 S358 1.610 . S
N360 C361 1.351 . S
C361 C355 1.428 . S
C361 N360 1.351 . S
C361 C362 1.434 . S
C362 C353 1.435 . S
C362 N359 1.339 1_655 S
C362 C361 1.434 . S
C363 C364 1.377 . S
C363 C365 1.419 . S
C363 H367 0.930 . S
C364 C363 1.377 . S
C364 C373 1.427 1_565 S
C365 C363 1.419 . S
C365 C366 1.363 . S
C365 H368 0.929 . S
C366 C365 1.363 . S
C366 C372 1.428 . S
H367 C363 0.930 . S
H368 C365 0.929 . S
S369 N370 1.613 . S
S369 N371 1.610 1_545 S
N370 S369 1.613 . S
N370 C373 1.350 . S
N371 S369 1.610 1_565 S
N371 C372 1.351 . S
C372 C366 1.428 . S
C372 N371 1.351 . S
C372 C373 1.434 1_565 S
C373 C364 1.427 1_545 S
C373 N370 1.350 . S
C373 C372 1.434 1_545 S
C374 C375 1.369 . S
C374 C376 1.419 . S
C374 H378 0.930 . S
C375 C374 1.369 . S
C375 C384 1.429 . S
C376 C374 1.419 . S
C376 C377 1.363 . S
C376 H379 0.929 . S
C377 C376 1.363 . S
C377 C383 1.428 . S
H378 C374 0.930 . S
H379 C376 0.929 . S
S380 N381 1.613 . S
S380 N382 1.610 . S
N381 S380 1.613 . S
N381 C384 1.350 . S
N382 S380 1.610 . S
N382 C383 1.351 . S
C383 C377 1.428 . S
C383 N382 1.351 . S
C383 C384 1.434 . S
C384 C375 1.429 . S
C384 N381 1.350 . S
C384 C383 1.434 . S
C385 C386 1.369 . S
C385 C387 1.419 . S
C385 H389 0.930 . S
C386 C385 1.369 . S
C386 C395 1.429 . S
C387 C385 1.419 . S
C387 C388 1.363 . S
C387 H390 0.929 . S
C388 C387 1.363 . S
C388 C394 1.428 . S
H389 C385 0.930 . S
H390 C387 0.929 . S
S391 N392 1.613 . S
S391 N393 1.610 . S
N392 S391 1.613 . S
N392 C395 1.350 . S
N393 S391 1.610 . S
N393 C394 1.351 . S
C394 C388 1.428 . S
C394 N393 1.351 . S
C394 C395 1.434 . S
C395 C386 1.429 . S
C395 N392 1.350 . S
C395 C394 1.434 . S
C396 C397 1.369 1_655 S
C396 C398 1.419 1_655 S
C396 H400 0.930 . S
C397 C396 1.369 1_455 S
C397 C406 1.429 . S
C398 C396 1.419 1_455 S
C398 C399 1.363 . S
C398 H401 0.929 . S
C399 C398 1.363 . S
C399 C405 1.428 . S
H400 C396 0.930 . S
H401 C398 0.929 . S
S402 N403 1.613 . S
S402 N404 1.610 . S
N403 S402 1.613 . S
N403 C406 1.350 . S
N404 S402 1.610 . S
N404 C405 1.351 . S
C405 C399 1.428 . S
C405 N404 1.351 . S
C405 C406 1.434 . S
C406 C397 1.429 . S
C406 N403 1.350 . S
C406 C405 1.434 . S
C407 C408 1.369 1_565 S
C407 C409 1.419 1_565 S
C407 H411 0.930 . S
C408 C407 1.369 1_545 S
C408 C417 1.429 . S
C409 C407 1.419 1_545 S
C409 C410 1.363 . S
C409 H412 0.929 . S
C410 C409 1.363 . S
C410 C416 1.428 . S
H411 C407 0.930 . S
H412 C409 0.929 . S
S413 N414 1.613 . S
S413 N415 1.610 . S
N414 S413 1.613 . S
N414 C417 1.350 . S
N415 S413 1.610 . S
N415 C416 1.351 . S
C416 C410 1.428 . S
C416 N415 1.351 . S
C416 C417 1.434 . S
C417 C408 1.429 . S
C417 N414 1.350 . S
C417 C416 1.434 . S
C418 C419 1.369 . S
C418 C420 1.419 . S
C418 H422 0.930 . S
C419 C418 1.369 . S
C419 C428 1.429 . S
C420 C418 1.419 . S
C420 C421 1.363 . S
C420 H423 0.929 . S
C421 C420 1.363 . S
C421 C427 1.428 . S
H422 C418 0.930 . S
H423 C420 0.929 . S
S424 N425 1.613 . S
S424 N426 1.610 . S
N425 S424 1.613 . S
N425 C428 1.350 . S
N426 S424 1.610 . S
N426 C427 1.351 . S
C427 C421 1.428 . S
C427 N426 1.351 . S
C427 C428 1.434 . S
C428 C419 1.429 . S
C428 N425 1.350 . S
C428 C427 1.434 . S
C429 C430 1.369 . S
C429 C431 1.419 . S
C429 H433 0.930 . S
C430 C429 1.369 . S
C430 C439 1.429 . S
C431 C429 1.419 . S
C431 C432 1.363 . S
C431 H434 0.929 . S
C432 C431 1.363 . S
C432 C438 1.428 . S
H433 C429 0.930 . S
H434 C431 0.929 . S
S435 N436 1.613 . S
S435 N437 1.610 . S
N436 S435 1.613 . S
N436 C439 1.350 . S
N437 S435 1.610 . S
N437 C438 1.351 . S
C438 C432 1.428 . S
C438 N437 1.351 . S
C438 C439 1.434 . S
C439 C430 1.429 . S
C439 N436 1.350 . S
C439 C438 1.434 . S
C440 C441 1.369 . S
C440 C442 1.419 . S
C440 H444 0.930 . S
C441 C440 1.369 . S
C441 C450 1.429 1_456 S
C442 C440 1.419 . S
C442 C443 1.363 . S
C442 H445 0.929 . S
C443 C442 1.363 . S
C443 C449 1.428 1_456 S
H444 C440 0.930 . S
H445 C442 0.929 . S
S446 N447 1.613 . S
S446 N448 1.610 . S
N447 S446 1.613 . S
N447 C450 1.350 . S
N448 S446 1.610 . S
N448 C449 1.351 . S
C449 C443 1.428 1_654 S
C449 N448 1.351 . S
C449 C450 1.434 . S
C450 C441 1.429 1_654 S
C450 N447 1.350 . S
C450 C449 1.434 . S
C451 C452 1.365 1_564 S
C451 C453 1.416 1_565 S
C451 H455 0.938 . S
C452 C451 1.365 1_546 S
C452 C461 1.429 . S
C453 C451 1.416 1_545 S
C453 C454 1.363 1_554 S
C453 H456 0.929 1_545 S
C454 C453 1.363 1_556 S
C454 C460 1.428 . S
H455 C451 0.938 . S
H456 C453 0.929 1_565 S
S457 N458 1.613 . S
S457 N459 1.610 . S
N458 S457 1.613 . S
N458 C461 1.350 . S
N459 S457 1.610 . S
N459 C460 1.351 . S
C460 C454 1.428 . S
C460 N459 1.351 . S
C460 C461 1.434 . S
C461 C452 1.429 . S
C461 N458 1.350 . S
C461 C460 1.434 . S
C462 C463 1.369 . S
C462 C464 1.419 . S
C462 H466 0.930 . S
C463 C462 1.369 . S
C463 C472 1.429 . S
C464 C462 1.419 . S
C464 C465 1.363 . S
C464 H467 0.929 . S
C465 C464 1.363 . S
C465 C471 1.428 . S
H466 C462 0.930 . S
H467 C464 0.929 . S
S468 N469 1.613 . S
S468 N470 1.610 . S
N469 S468 1.613 . S
N469 C472 1.350 . S
N470 S468 1.610 . S
N470 C471 1.351 . S
C471 C465 1.428 . S
C471 N470 1.351 . S
C471 C472 1.434 . S
C472 C463 1.429 . S
C472 N469 1.350 . S
C472 C471 1.434 . S
C473 C474 1.369 . S
C473 C475 1.419 . S
C473 H477 0.930 . S
C474 C473 1.369 . S
C474 C483 1.429 . S
C475 C473 1.419 . S
C475 C476 1.363 . S
C475 H478 0.929 . S
C476 C475 1.363 . S
C476 C482 1.428 . S
H477 C473 0.930 . S
H478 C475 0.929 . S
S479 N480 1.613 . S
S479 N481 1.610 . S
N480 S479 1.613 . S
N480 C483 1.350 . S
N481 S479 1.610 . S
N481 C482 1.351 . S
C482 C476 1.428 . S
C482 N481 1.351 . S
C482 C483 1.434 . S
C483 C474 1.429 . S
C483 N480 1.350 . S
C483 C482 1.434 . S
C484 C485 1.369 . S
C484 C486 1.419 . S
C484 H488 0.930 . S
C485 C484 1.369 . S
C485 C494 1.429 . S
C486 C484 1.419 . S
C486 C487 1.363 . S
C486 H489 0.929 . S
C487 C486 1.363 . S
C487 C493 1.428 . S
H488 C484 0.930 . S
H489 C486 0.929 . S
S490 N491 1.613 . S
S490 N492 1.610 . S
N491 S490 1.613 . S
N491 C494 1.350 . S
N492 S490 1.610 . S
N492 C493 1.351 . S
C493 C487 1.428 . S
C493 N492 1.351 . S
C493 C494 1.434 . S
C494 C485 1.429 . S
C494 N491 1.350 . S
C494 C493 1.434 . S
C495 C496 1.369 1_545 S
C495 C497 1.419 . S
C495 H499 0.930 . S
C496 C495 1.369 1_565 S
C496 C505 1.429 . S
C497 C495 1.419 . S
C497 C498 1.363 1_545 S
C497 H500 0.929 . S
C498 C497 1.363 1_565 S
C498 C504 1.428 . S
H499 C495 0.930 . S
H500 C497 0.929 . S
S501 N502 1.613 . S
S501 N503 1.610 . S
N502 S501 1.613 . S
N502 C505 1.350 . S
N503 S501 1.610 . S
N503 C504 1.351 . S
C504 C498 1.428 . S
C504 N503 1.351 . S
C504 C505 1.434 . S
C505 C496 1.429 . S
C505 N502 1.350 . S
C505 C504 1.434 . S
C506 C507 1.369 . S
C506 C508 1.419 . S
C506 H510 0.930 . S
C507 C506 1.369 . S
C507 C516 1.429 . S
C508 C506 1.419 . S
C508 C509 1.363 . S
C508 H511 0.929 . S
C509 C508 1.363 . S
C509 C515 1.428 . S
H510 C506 0.930 . S
H511 C508 0.929 . S
S512 N513 1.613 . S
S512 N514 1.610 . S
N513 S512 1.613 . S
N513 C516 1.350 . S
N514 S512 1.610 . S
N514 C515 1.351 . S
C515 C509 1.428 . S
C515 N514 1.351 . S
C515 C516 1.434 . S
C516 C507 1.429 . S
C516 N513 1.350 . S
C516 C515 1.434 . S
C517 C518 1.369 . S
C517 C519 1.419 . S
C517 H521 0.930 . S
C518 C517 1.369 . S
C518 C527 1.429 . S
C519 C517 1.419 . S
C519 C520 1.363 . S
C519 H522 0.929 . S
C520 C519 1.363 . S
C520 C526 1.428 . S
H521 C517 0.930 . S
H522 C519 0.929 . S
S523 N524 1.613 1_554 S
S523 N525 1.610 1_554 S
N524 S523 1.613 1_556 S
N524 C527 1.350 . S
N525 S523 1.610 1_556 S
N525 C526 1.351 . S
C526 C520 1.428 . S
C526 N525 1.351 . S
C526 C527 1.434 . S
C527 C518 1.429 . S
C527 N524 1.350 . S
C527 C526 1.434 . S
C265 N80 1.985 1_545 S
C267 C113 2.161 . S
C278 C153 2.186 . S
C276 N93 2.018 . S
C289 C193 2.203 . S
C287 N54 2.037 . S
C300 C233 2.179 1_455 S
C298 N67 2.004 1_455 S
C311 C122 2.164 1_554 S
C309 N28 1.996 1_545 S
C320 N41 2.015 . S
C322 C162 2.187 1_554 S
C331 N2 2.031 . S
C333 C202 2.200 1_554 S
C342 N15 2.012 . S
C344 C242 2.180 1_654 S
C355 C119 0.773 . S
C353 N70 0.784 . S
C366 C159 0.766 . S
C364 N83 0.783 . S
C377 C199 0.774 . S
C375 N96 0.760 . S
C386 N57 0.782 . S
C388 C239 0.756 . S
C397 N18 0.775 1_455 S
C399 C110 0.789 . S
C410 C150 0.781 . S
C408 N31 0.766 1_545 S
C421 C190 0.776 . S
C419 N44 0.762 . S
C430 N5 0.781 . S
C432 C230 0.760 . S
C441 N66 2.403 1_455 S
C443 C123 2.522 . S
C452 N79 2.357 1_545 S
C454 C163 2.467 . S
C465 C203 2.448 . S
C463 N92 2.341 . S
C476 C243 2.506 . S
C474 N53 2.392 . S
C485 N14 2.394 . S
C487 C114 2.528 . S
C498 C154 2.469 . S
C496 N27 2.341 . S
C509 C194 2.447 . S
C507 N40 2.314 . S
C518 N1 2.375 . S
C520 C234 2.508 . S
