# Generated by pormake.
# Topology pyr, (3,6)-cn, num edge types: 1
# Building blocks:
#     Node 0, Type 0, BuildingBlock: CUQRIR_clean_linker_1, # of connection points: 3
#     Node 1, Type 0, BuildingBlock: CUQRIR_clean_linker_1, # of connection points: 3
#     Node 2, Type 0, BuildingBlock: CUQRIR_clean_linker_1, # of connection points: 3
#     Node 3, Type 0, BuildingBlock: CUQRIR_clean_linker_1, # of connection points: 3
#     Node 4, Type 0, BuildingBlock: CUQRIR_clean_linker_1, # of connection points: 3
#     Node 5, Type 0, BuildingBlock: CUQRIR_clean_linker_1, # of connection points: 3
#     Node 6, Type 0, BuildingBlock: CUQRIR_clean_linker_1, # of connection points: 3
#     Node 7, Type 0, BuildingBlock: CUQRIR_clean_linker_1, # of connection points: 3
#     Node 8, Type 1, BuildingBlock: BETGAK_clean_sbu_0, # of connection points: 6
#     Node 9, Type 1, BuildingBlock: BETGAK_clean_sbu_0, # of connection points: 6
#     Node 10, Type 1, BuildingBlock: BETGAK_clean_sbu_0, # of connection points: 6
#     Node 11, Type 1, BuildingBlock: BETGAK_clean_sbu_0, # of connection points: 6
#     Edge 12, Type (0, 1), BuildingBlock: CIFDUS_clean_linker_0, # of connection points: 2
#     Edge 13, Type (0, 1), BuildingBlock: CIFDUS_clean_linker_0, # of connection points: 2
#     Edge 14, Type (0, 1), BuildingBlock: CIFDUS_clean_linker_0, # of connection points: 2
#     Edge 15, Type (0, 1), BuildingBlock: CIFDUS_clean_linker_0, # of connection points: 2
#     Edge 16, Type (0, 1), BuildingBlock: CIFDUS_clean_linker_0, # of connection points: 2
#     Edge 17, Type (0, 1), BuildingBlock: CIFDUS_clean_linker_0, # of connection points: 2
#     Edge 18, Type (0, 1), BuildingBlock: CIFDUS_clean_linker_0, # of connection points: 2
#     Edge 19, Type (0, 1), BuildingBlock: CIFDUS_clean_linker_0, # of connection points: 2
#     Edge 20, Type (0, 1), BuildingBlock: CIFDUS_clean_linker_0, # of connection points: 2
#     Edge 21, Type (0, 1), BuildingBlock: CIFDUS_clean_linker_0, # of connection points: 2
#     Edge 22, Type (0, 1), BuildingBlock: CIFDUS_clean_linker_0, # of connection points: 2
#     Edge 23, Type (0, 1), BuildingBlock: CIFDUS_clean_linker_0, # of connection points: 2
#     Edge 24, Type (0, 1), BuildingBlock: CIFDUS_clean_linker_0, # of connection points: 2
#     Edge 25, Type (0, 1), BuildingBlock: CIFDUS_clean_linker_0, # of connection points: 2
#     Edge 26, Type (0, 1), BuildingBlock: CIFDUS_clean_linker_0, # of connection points: 2
#     Edge 27, Type (0, 1), BuildingBlock: CIFDUS_clean_linker_0, # of connection points: 2
#     Edge 28, Type (0, 1), BuildingBlock: CIFDUS_clean_linker_0, # of connection points: 2
#     Edge 29, Type (0, 1), BuildingBlock: CIFDUS_clean_linker_0, # of connection points: 2
#     Edge 30, Type (0, 1), BuildingBlock: CIFDUS_clean_linker_0, # of connection points: 2
#     Edge 31, Type (0, 1), BuildingBlock: CIFDUS_clean_linker_0, # of connection points: 2
#     Edge 32, Type (0, 1), BuildingBlock: CIFDUS_clean_linker_0, # of connection points: 2
#     Edge 33, Type (0, 1), BuildingBlock: CIFDUS_clean_linker_0, # of connection points: 2
#     Edge 34, Type (0, 1), BuildingBlock: CIFDUS_clean_linker_0, # of connection points: 2
#     Edge 35, Type (0, 1), BuildingBlock: CIFDUS_clean_linker_0, # of connection points: 2
# Relax obj value: 0.244
# Max RMSD: 0.265
# Mean RMSD: 0.172
data_MOF--net-pyr--node1-BETGAK_clean_sbu_0--node2-CUQRIR_clean_linker_1--edge1-CIFDUS_clean_linker_0
_symmetry_space_group_name_H-M    P1
_symmetry_Int_Tables_number       1
_symmetry_cell_setting            triclinic
loop_
_symmetry_equiv_pos_as_xyz
'x, y, z'
_cell_length_a     30.563653
_cell_length_b     32.344798
_cell_length_c     29.278083
_cell_angle_alpha  90.315236
_cell_angle_beta   90.015699
_cell_angle_gamma 107.81518
loop_
_atom_site_label
_atom_site_type_symbol
_atom_site_fract_x
_atom_site_fract_y
_atom_site_fract_z
_atom_type_partial_charge
C0 C 0.37867 0.41338 0.23404 0.0
N1 N 0.39399 0.37989 0.24646 0.0
N2 N 0.38548 0.42235 0.18893 0.0
C3 C 0.34743 0.43058 0.26353 0.0
C4 C 0.40944 0.39544 0.17522 0.0
N5 N 0.41466 0.36987 0.20997 0.0
C6 C 0.42164 0.38957 0.12642 0.0
H7 H 0.31112 0.41459 0.25347 0.0
H8 H 0.35518 0.46606 0.25879 0.0
H9 H 0.35156 0.42453 0.30026 0.0
H10 H 0.4131 0.41338 0.10371 0.0
H11 H 0.40283 0.35607 0.11496 0.0
H12 H 0.45892 0.39366 0.12379 0.0
C13 C 0.37681 1.05168 0.57011 0.0
N14 N 0.36033 1.07277 0.60279 0.0
N15 N 0.41506 1.04292 0.58487 0.0
C16 C 0.35184 1.03396 0.5264 0.0
C17 C 0.42151 1.0602 0.6275 0.0
N18 N 0.38806 0.07775 0.63876 0.0
C19 C 0.456 1.05313 0.66097 0.0
H20 H 0.36829 1.01269 0.50783 0.0
H21 H 0.35193 1.06122 0.5036 0.0
H22 H 0.31551 1.01562 0.53395 0.0
H23 H 0.46149 0.07621 0.69015 0.0
H24 H 0.48937 1.05718 0.64382 0.0
H25 H 0.44326 1.01947 0.67419 0.0
C26 C 0.6238 0.41837 0.88797 0.0
N27 N 0.6498 0.41388 0.92468 0.0
N28 N 0.64267 0.45664 0.86549 0.0
C29 C 0.57857 0.38583 0.87549 0.0
C30 C 0.68165 0.47528 0.89017 0.0
N31 N 0.68646 0.44968 0.92589 0.0
C32 C 0.71503 0.51914 0.87951 0.0
H33 H 0.58279 0.35302 0.87288 0.0
H34 H 0.5647 0.39397 0.84293 0.0
H35 H 0.55339 0.38479 0.90309 0.0
H36 H 0.69852 0.53977 0.86037 0.0
H37 H 0.74311 0.51465 0.85797 0.0
H38 H 0.73026 0.53641 0.91131 0.0
C39 C 0.85131 0.73571 0.37289 0.0
N40 N 0.89323 0.76496 0.36213 0.0
N41 N 0.829 0.75075 0.40633 0.0
C42 C 0.83158 0.69201 0.35016 0.0
C43 C 0.8582 0.79095 0.41521 0.0
N44 N 0.89702 0.80056 0.38878 0.0
C45 C 0.84852 0.82168 0.44999 0.0
H46 H 0.83734 0.6947 0.31272 0.0
H47 H 0.79432 0.67781 0.35671 0.0
H48 H 0.84905 0.66925 0.36376 0.0
H49 H 0.8166 0.80691 0.46951 0.0
H50 H 0.8448 0.85066 0.43232 0.0
H51 H 0.87774 0.83283 0.47424 0.0
C52 C 0.67617 0.87803 0.93638 0.0
N53 N 0.70323 0.86146 0.91014 0.0
N54 N 0.66814 0.91225 0.91562 0.0
C55 C 0.6607 0.86355 0.98399 0.0
C56 C 0.69128 0.91591 0.87575 0.0
N57 N 0.7124 0.88491 0.87223 0.0
C58 C 0.70016 0.95431 0.84449 0.0
H59 H 0.6595 0.82927 0.98934 0.0
H60 H 0.62628 0.86718 0.99044 0.0
H61 H 0.68507 0.88451 1.00889 0.0
H62 H 0.73353 0.97834 0.85385 0.0
H63 H 0.6727 0.97002 0.84766 0.0
H64 H 0.70235 0.94417 0.80853 0.0
C65 C 0.7634 0.24825 0.6277 0.0
N66 N 0.77746 0.22296 0.5974 0.0
N67 N 0.72567 0.25726 0.61184 0.0
C68 C 0.78838 0.26698 0.67087 0.0
C69 C 0.71757 0.23703 0.57084 0.0
N70 N 0.74877 0.21624 0.562 0.0
C71 C 0.68326 0.24297 0.53645 0.0
H72 H 0.77347 0.24502 0.69963 0.0
H73 H 0.78427 0.29921 0.67859 0.0
H74 H 0.82546 0.27004 0.66823 0.0
H75 H 0.70039 0.27105 0.5144 0.0
H76 H 0.65366 0.24952 0.55351 0.0
H77 H 0.67038 0.21381 0.51435 0.0
C78 C 0.36061 0.75022 0.2904 0.0
N79 N 0.40059 0.78138 0.3025 0.0
N80 N 0.34166 0.76087 0.25193 0.0
C81 C 0.33794 0.71051 0.31848 0.0
C82 C 0.37126 0.80014 0.24092 0.0
N83 N 0.40639 0.81383 0.2718 0.0
C84 C 0.36848 0.82335 0.1969 0.0
H85 H 0.35086 0.68354 0.30736 0.0
H86 H 0.30008 0.70014 0.31399 0.0
H87 H 0.34597 0.71686 0.3553 0.0
H88 H 0.35107 0.80006 0.16976 0.0
H89 H 0.4032 0.84191 0.18451 0.0
H90 H 0.34863 0.84643 0.20279 0.0
C91 C 0.13703 0.43372 0.7807 0.0
N92 N 0.16459 0.42611 0.74638 0.0
N93 N 0.15605 0.47297 0.80237 0.0
C94 C 0.09018 0.40349 0.79146 0.0
C95 C 0.1968 0.48883 0.77933 0.0
N96 N 0.20224 0.46118 0.74546 0.0
C97 C 0.23191 0.53209 0.78972 0.0
H98 H 0.07231 0.38847 0.75971 0.0
H99 H 0.06894 0.42062 0.80969 0.0
H100 H 0.09407 0.37705 0.81353 0.0
H101 H 0.26357 0.52676 0.80323 0.0
H102 H 0.22045 0.55116 0.81596 0.0
H103 H 0.24096 0.55136 0.75794 0.0
La104 La 0.05306 0.13839 0.51937 0.0
La105 La 0.0496 0.08673 0.60113 0.0
C106 C 0.05349 0.19198 0.45742 0.0
C107 C 0.09414 0.21898 0.4335 0.0
C108 C 0.13787 0.2211 0.45011 0.0
C109 C 0.17683 0.23889 0.42353 0.0
C110 C 0.17282 0.25549 0.38003 0.0
C111 C 0.1291 0.25582 0.36484 0.0
C112 C 0.08996 0.23723 0.39121 0.0
C113 C 0.12812 0.11499 0.53302 0.0
C114 C 0.08579 0.18945 0.61387 0.0
C115 C 0.0558 1.03369 0.66173 0.0
C116 C 1.01936 0.99953 0.68401 0.0
C117 C 0.97375 0.9922 0.67004 0.0
C118 C 0.93768 0.96717 0.69668 0.0
C119 C 0.94655 0.94867 0.73772 0.0
C120 C 0.99253 0.9534 0.74964 0.0
C121 C 1.02871 0.97899 0.72312 0.0
C122 C 0.97555 0.1115 0.59005 0.0
C123 C 1.01351 1.03635 0.50556 0.0
O124 O 0.04509 0.15049 0.45005 0.0
O125 O 0.05112 0.20059 0.50082 0.0
O126 O 0.11263 0.12107 0.49363 0.0
O127 O 0.1049 0.12651 0.56274 0.0
O128 O 0.06529 0.18983 0.57384 0.0
O129 O 0.09075 0.15192 0.62796 0.0
O130 O 0.05421 1.0728 0.6704 0.0
O131 O 0.06191 1.02809 0.61823 0.0
O132 O 0.99047 0.10337 0.62907 0.0
O133 O 0.99789 0.10013 0.55915 0.0
O134 O 1.03263 1.0347 0.54622 0.0
O135 O 1.01046 0.07455 0.49167 0.0
H136 H 0.14169 0.20706 0.4828 0.0
H137 H 0.20967 0.2377 0.43628 0.0
H138 H 0.12489 0.26942 0.33203 0.0
H139 H 0.05642 0.2357 0.37788 0.0
H140 H 0.96598 1.00817 0.64003 0.0
H141 H 0.90297 0.96499 0.68657 0.0
H142 H 1.00061 0.93897 0.78054 0.0
H143 H 0.06382 0.98447 0.73435 0.0
La144 La 0.57353 0.12655 0.13141 0.0
La145 La 0.4906 0.11078 0.0915 0.0
C146 C 0.64966 0.15757 0.17214 0.0
C147 C 0.6674 0.15437 0.21829 0.0
C148 C 0.66644 0.11423 0.23727 0.0
C149 C 0.68207 0.11226 0.28187 0.0
C150 C 0.69864 0.15031 0.30826 0.0
C151 C 0.69975 0.19034 0.28881 0.0
C152 C 0.68465 0.19233 0.24425 0.0
C153 C 0.518 1.04892 0.16128 0.0
C154 C 0.49971 0.16429 0.17497 0.0
C155 C 0.41503 0.08251 1.04904 0.0
C156 C 0.40178 0.07686 1.00019 0.0
C157 C 0.38087 0.10511 0.97936 0.0
C158 C 0.36975 0.10101 0.93282 0.0
C159 C 0.37891 1.06829 0.90629 0.0
C160 C 0.39925 1.03971 0.92735 0.0
C161 C 0.41044 1.04385 0.97372 0.0
C162 C 0.54921 0.18829 0.06383 0.0
C163 C 0.56208 0.07445 1.04352 0.0
O164 O 0.6393 0.12275 0.14676 0.0
O165 O 0.61862 0.17748 0.16916 0.0
O166 O 0.56091 1.05854 0.15164 0.0
O167 O 0.50667 0.08342 0.15528 0.0
O168 O 0.54349 0.17345 0.16418 0.0
O169 O 0.47098 0.12944 0.15698 0.0
O170 O 0.432 0.12237 0.06356 0.0
O171 O 0.43794 1.05777 0.06527 0.0
O172 O 0.50671 0.18067 0.07495 0.0
O173 O 0.5581 0.15262 0.06797 0.0
O174 O 0.51834 1.06702 0.05239 0.0
O175 O 0.59247 0.1055 0.06591 0.0
H176 H 0.65323 0.08432 0.21797 0.0
H177 H 0.68097 0.08098 0.2957 0.0
H178 H 0.71107 0.22023 0.3084 0.0
H179 H 0.68555 0.22357 0.23035 0.0
H180 H 0.37344 0.13063 0.99903 0.0
H181 H 0.35375 0.12327 0.91766 0.0
H182 H 0.40742 1.01454 0.90776 0.0
H183 H 0.42634 1.0214 0.98859 0.0
La184 La 0.51483 0.57815 0.55539 0.0
La185 La 0.52401 0.65275 0.60745 0.0
C186 C 0.53288 0.51565 0.51599 0.0
C187 C 0.55624 0.48458 0.53153 0.0
C188 C 0.55068 0.46816 0.57623 0.0
C189 C 0.57832 0.44392 0.59239 0.0
C190 C 0.61222 0.43603 0.56425 0.0
C191 C 0.61635 0.45119 0.51899 0.0
C192 C 0.58871 0.47527 0.50288 0.0
C193 C 0.43748 0.57121 0.60272 0.0
C194 C 0.55461 0.58168 0.65905 0.0
C195 C 0.50685 0.71443 0.64869 0.0
C196 C 0.49443 0.75269 0.63431 0.0
C197 C 0.50903 0.77284 0.59219 0.0
C198 C 0.49335 0.80691 0.57754 0.0
C199 C 0.46246 0.82071 0.6046 0.0
C200 C 0.44848 0.80072 0.64691 0.0
C201 C 0.46438 0.76701 0.66162 0.0
C202 C 0.60231 0.6566 0.56453 0.0
C203 C 0.4885 0.65357 0.50328 0.0
O204 O 0.49293 0.51271 0.53392 0.0
O205 O 0.55923 0.55582 0.51432 0.0
O206 O 0.43903 0.55948 0.56038 0.0
O207 O 0.47888 0.58732 0.61616 0.0
O208 O 0.55171 0.56392 0.61755 0.0
O209 O 0.54078 0.61634 0.66438 0.0
O210 O 0.54848 0.71391 0.63917 0.0
O211 O 0.47591 0.6773 0.63958 0.0
O212 O 0.59902 0.66902 0.60623 0.0
O213 O 0.56192 0.64275 0.54796 0.0
O214 O 0.4946 0.67268 0.54404 0.0
O215 O 0.4959 0.61527 0.49892 0.0
H216 H 0.52601 0.47515 0.59915 0.0
H217 H 0.57418 0.43263 0.62734 0.0
H218 H 0.64128 0.44475 0.49599 0.0
H219 H 0.59366 0.48775 0.46835 0.0
H220 H 0.53185 0.76178 0.57034 0.0
H221 H 0.50449 0.82179 0.54476 0.0
H222 H 0.42525 0.81125 0.66873 0.0
H223 H 0.45256 0.75159 0.69403 0.0
La224 La 1.015 0.57759 0.11316 0.0
La225 La 1.01723 0.64361 0.05515 0.0
C226 C 0.03836 0.51867 0.15353 0.0
C227 C 0.08282 0.50969 0.15119 0.0
C228 C 0.09549 0.48487 0.18487 0.0
C229 C 0.13898 0.47879 0.18363 0.0
C230 C 0.17043 0.49796 0.14906 0.0
C231 C 0.15761 0.5224 0.11519 0.0
C232 C 0.11401 0.52786 0.11599 0.0
C233 C 0.97512 0.63288 0.15597 0.0
C234 C 0.10491 0.65842 0.11275 0.0
C235 C 1.00164 0.70357 1.00911 0.0
C236 C 0.96253 0.72052 1.00406 0.0
C237 C 0.95306 0.73473 0.96116 0.0
C238 C 0.91629 0.75134 0.95568 0.0
C239 C 0.88862 0.75423 0.99316 0.0
C240 C 0.8979 0.73954 1.03607 0.0
C241 C 0.9344 0.7225 1.04144 0.0
C242 C 0.05947 0.58968 1.01501 0.0
C243 C 0.92524 0.56397 0.05778 0.0
O244 O 0.03956 0.55548 0.17262 0.0
O245 O 1.01489 0.51258 0.1156 0.0
O246 O 0.96188 0.59067 0.15703 0.0
O247 O 1.01041 0.64279 0.12979 0.0
O248 O 0.08859 0.61595 0.11666 0.0
O249 O 0.07966 0.67889 0.0919 0.0
O250 O 0.9955 0.66444 0.99355 0.0
O251 O 1.02196 0.7094 1.04878 0.0
O252 O 0.0725 0.63162 1.01295 0.0
O253 O 1.02314 0.57927 1.03943 0.0
O254 O 0.94311 0.6063 1.05182 0.0
O255 O 0.94976 0.54302 0.07935 0.0
H256 H 0.07205 0.4707 0.21234 0.0
H257 H 0.14848 0.45992 0.21017 0.0
H258 H 0.18137 0.53736 0.08823 0.0
H259 H 0.1049 0.54676 0.08933 0.0
H260 H 0.97432 0.73326 0.93196 0.0
H261 H 0.91014 0.76288 0.92235 0.0
H262 H 0.87684 0.74113 0.06539 0.0
H263 H 0.94079 0.71113 0.07478 0.0
H264 H 0.31817 0.31902 0.22401 0.0
H265 H 0.4062 0.37374 0.33753 0.0
H266 H 0.34459 0.33714 0.39109 0.0
H267 H 0.26211 0.29892 0.40367 0.0
H268 H 0.17554 0.2439 0.28792 0.0
H269 H 0.24023 0.27183 0.23669 0.0
C270 C 0.3244 0.3209 0.26057 0.0
C271 C 0.36659 0.34788 0.27714 0.0
C272 C 0.28867 0.30116 0.29039 0.0
C273 C 0.37424 0.35204 0.32437 0.0
C274 C 0.33878 0.33182 0.35472 0.0
C275 C 0.25753 0.29224 0.36737 0.0
C276 C 0.21353 0.27029 0.34967 0.0
C277 C 0.29523 0.30775 0.33793 0.0
C278 C 0.20843 0.2621 0.30244 0.0
C279 C 0.24556 0.27751 0.27309 0.0
H280 H 0.34989 1.01657 0.69873 0.0
H281 H 0.40442 0.15469 0.68233 0.0
H282 H 0.40232 0.16503 0.76563 0.0
H283 H 0.39405 0.13311 0.84307 0.0
H284 H 0.34029 0.99395 0.85781 0.0
H285 H 0.33269 0.98534 0.77516 0.0
C286 C 0.35979 1.04889 0.71366 0.0
C287 C 0.37659 0.08492 0.6851 0.0
C288 C 0.3594 1.05415 0.7611 0.0
C289 C 0.39058 0.12677 0.70406 0.0
C290 C 0.38981 0.13248 0.75152 0.0
C291 C 0.37972 0.10101 0.82823 0.0
C292 C 0.36851 1.06415 0.85657 0.0
C293 C 0.37562 0.09624 0.78046 0.0
C294 C 0.35018 1.02275 0.83675 0.0
C295 C 0.3456 1.01778 0.78951 0.0
H296 H 0.61402 0.52866 0.85639 0.0
H297 H 0.63447 0.42237 0.77974 0.0
H298 H 0.61016 0.45044 0.70934 0.0
H299 H 0.58323 0.50664 0.66828 0.0
H300 H 0.56342 0.61268 0.74679 0.0
H301 H 0.58729 0.58407 0.8159 0.0
C302 C 0.61324 0.51163 0.82428 0.0
C303 C 0.62642 0.47317 0.82392 0.0
C304 C 0.59927 0.52831 0.78347 0.0
C305 C 0.62458 0.45174 0.78156 0.0
C306 C 0.61071 0.46803 0.74104 0.0
C307 C 0.58406 0.52356 0.70038 0.0
C308 C 0.57108 0.56233 0.70109 0.0
C309 C 0.598 0.50651 0.74125 0.0
C310 C 0.57289 0.58314 0.74395 0.0
C311 C 0.58664 0.56662 0.78408 0.0
H312 H 0.93182 0.69901 0.35542 0.0
H313 H 0.91599 0.80701 0.27991 0.0
H314 H 0.94184 0.77859 0.20994 0.0
H315 H 0.96209 0.71751 0.16683 0.0
H316 H 0.97067 0.60748 0.2448 0.0
H317 H 0.95437 0.64116 0.31463 0.0
C318 C 0.9352 0.71729 0.32403 0.0
C319 C 0.92263 0.75647 0.32466 0.0
C320 C 0.94797 0.69921 0.28289 0.0
C321 C 0.92657 0.77806 0.28225 0.0
C322 C 0.94063 0.761 0.24151 0.0
C323 C 0.96106 0.70099 0.19907 0.0
C324 C 0.96826 0.65902 0.19898 0.0
C325 C 0.95044 0.72079 0.24075 0.0
C326 C 0.96563 0.63911 0.24221 0.0
C327 C 0.95622 0.65865 0.28287 0.0
H328 H 0.37749 0.2827 0.21963 0.0
H329 H 0.50432 0.3835 0.19423 0.0
H330 H 0.54459 0.32879 0.18634 0.0
H331 H 0.54186 0.25171 0.18175 0.0
H332 H 0.41427 0.15189 0.20969 0.0
H333 H 0.37652 0.20705 0.22418 0.0
C334 C 0.4141 0.29301 0.21403 0.0
C335 C 0.43802 0.33722 0.20805 0.0
C336 C 0.43694 0.26146 0.2104 0.0
C337 C 0.48531 0.34955 0.19874 0.0
C338 C 0.50828 0.31833 0.19449 0.0
C339 C 0.50616 0.24206 0.19231 0.0
C340 C 0.48092 0.19766 0.19454 0.0
C341 C 0.4843 0.27406 0.19974 0.0
C342 C 0.4345 0.18579 0.20768 0.0
C343 C 0.41275 0.21732 0.21562 0.0
H344 H 0.3357 0.12064 0.53994 0.0
H345 H 0.28697 1.04316 0.65928 0.0
H346 H 0.21156 1.05327 0.65068 0.0
H347 H 0.15741 0.07945 0.60533 0.0
H348 H 0.20281 0.14609 0.47868 0.0
H349 H 0.28098 0.14382 0.49272 0.0
C350 C 0.30844 0.1061 0.56398 0.0
C351 C 0.31723 0.08216 0.60078 0.0
C352 C 0.26427 0.10935 0.55678 0.0
C353 C 0.28184 1.06335 0.63186 0.0
C354 C 0.23834 1.06838 0.62637 0.0
C355 C 0.18457 0.09341 0.58095 0.0
C356 C 0.17473 0.11277 0.54108 0.0
C357 C 0.22895 0.09066 0.58849 0.0
C358 C 0.20977 0.13065 0.50941 0.0
C359 C 0.25441 0.12957 0.51754 0.0
H360 H 0.77719 0.47222 0.90612 0.0
H361 H 0.68361 0.4545 1.01916 0.0
H362 H 0.7486 0.48611 0.07136 0.0
H363 H 0.8332 0.525 0.08404 0.0
H364 H 0.92381 0.54744 0.96784 0.0
H365 H 0.85969 0.50939 0.91821 0.0
C366 C 0.77093 0.47501 0.94225 0.0
C367 C 0.72505 0.46069 0.95833 0.0
C368 C 0.80843 0.49516 0.97168 0.0
C369 C 0.71816 0.46434 1.00556 0.0
C370 C 0.75553 0.48314 1.03541 0.0
C371 C 0.83884 0.52135 1.0479 0.0
C372 C 0.88379 0.53932 1.02983 0.0
C373 C 0.80096 0.49965 1.01883 0.0
C374 C 0.88998 0.53424 0.98279 0.0
C375 C 0.85317 0.51229 0.95429 0.0
H376 H 0.81067 0.72694 0.49505 0.0
H377 H 0.74498 0.72835 0.3655 0.0
H378 H 0.6691 0.69698 0.40089 0.0
H379 H 0.62013 0.67135 0.47054 0.0
H380 H 0.68761 0.67405 0.60034 0.0
H381 H 0.76256 0.70101 0.56367 0.0
C382 C 0.77972 0.72008 0.47453 0.0
C383 C 0.78398 0.72976 0.42731 0.0
C384 C 0.73588 0.70271 0.49552 0.0
C385 C 0.74313 0.72086 0.40158 0.0
C386 C 0.69954 0.70305 0.42203 0.0
C387 C 0.65121 0.6774 0.49073 0.0
C388 C 0.64751 0.67025 0.53863 0.0
C389 C 0.69519 0.69401 0.46919 0.0
C390 C 0.68874 0.67902 0.56374 0.0
C391 C 0.73198 0.69461 0.54268 0.0
H392 H 0.37469 0.50156 0.18378 0.0
H393 H 0.31879 0.36937 0.13756 0.0
H394 H 0.24682 0.38236 0.11659 0.0
H395 H 0.19531 0.42767 0.12435 0.0
H396 H 0.24947 0.55891 0.17414 0.0
H397 H 0.32608 0.5502 0.1818 0.0
C398 C 0.34723 0.47629 0.16749 0.0
C399 C 0.35195 0.43468 0.1621 0.0
C400 C 0.30504 0.48347 0.15784 0.0
C401 C 0.31615 0.40184 0.14132 0.0
C402 C 0.27466 0.40903 0.13024 0.0
C403 C 0.22419 0.45439 0.13624 0.0
C404 C 0.21713 0.49365 0.14925 0.0
C405 C 0.26796 0.44904 0.14047 0.0
C406 C 0.25447 0.52838 0.16427 0.0
C407 C 0.29815 0.52338 0.16854 0.0
H408 H 0.67217 0.33778 0.93096 0.0
H409 H 0.59054 0.40967 0.99348 0.0
H410 H 0.55281 0.34738 1.04198 0.0
H411 H 0.5389 0.27018 0.06395 0.0
H412 H 0.6221 0.1981 1.00426 0.0
H413 H 0.66277 0.26158 0.95826 0.0
C414 C 0.64705 0.34017 0.9561 0.0
C415 C 0.63516 0.37934 0.95904 0.0
C416 C 0.625 0.30348 0.98419 0.0
C417 C 0.60132 0.3808 0.99107 0.0
C418 C 0.57931 0.34479 1.01857 0.0
C419 C 0.56616 0.26829 1.04111 0.0
C420 C 0.57679 0.22856 1.03774 0.0
C421 C 0.59017 0.30558 1.01504 0.0
C422 C 0.61273 0.22764 1.00797 0.0
C423 C 0.63611 0.26422 0.98141 0.0
H424 H 0.90238 0.88386 0.36639 0.0
H425 H 0.97375 0.80947 0.43971 0.0
H426 H 1.01593 0.87458 0.48339 0.0
H427 H 1.02669 0.95256 0.50788 0.0
H428 H 0.95378 1.02563 0.43326 0.0
H429 H 0.91867 0.96256 0.38489 0.0
C430 C 0.92894 0.88218 0.39019 0.0
C431 C 0.9354 0.84077 0.3977 0.0
C432 C 0.95191 0.92004 0.417 0.0
C433 C 0.96876 0.84019 0.43095 0.0
C434 C 0.99219 0.87768 0.45713 0.0
C435 C 1.00329 0.95499 0.48097 0.0
C436 C 0.99322 0.99519 0.47549 0.0
C437 C 0.98307 0.91775 0.45176 0.0
C438 C 0.96279 0.99627 0.43945 0.0
C439 C 0.94248 0.95973 0.41123 0.0
H440 H 0.36186 0.96114 0.58572 0.0
H441 H 0.49935 1.04223 0.55816 0.0
H442 H 0.52629 0.97796 0.55546 0.0
H443 H 0.51175 0.90016 0.57285 0.0
H444 H 0.37373 0.82058 0.60352 0.0
H445 H 0.34537 0.88259 0.59229 0.0
C446 C 0.39732 0.96432 0.57741 0.0
C447 C 0.42872 1.00583 0.57185 0.0
C448 C 0.41235 0.92764 0.57723 0.0
C449 C 0.47484 1.01025 0.5622 0.0
C450 C 0.49012 0.97366 0.56105 0.0
C451 C 0.47535 0.8963 0.57592 0.0
C452 C 0.4449 0.85624 0.58971 0.0
C453 C 0.45944 0.93236 0.57029 0.0
C454 C 0.39782 0.85144 0.59374 0.0
C455 C 0.38161 0.88679 0.58727 0.0
H456 H 0.80057 0.91387 0.89551 0.0
H457 H 0.70893 0.86216 0.78352 0.0
H458 H 0.77479 0.87162 0.73193 0.0
H459 H 0.85805 0.89993 0.71846 0.0
H460 H 0.94875 0.95654 0.83081 0.0
H461 H 0.88403 0.93774 0.88313 0.0
C462 C 0.79545 0.90414 0.85991 0.0
C463 C 0.75065 0.88745 0.84279 0.0
C464 C 0.83322 0.91015 0.83087 0.0
C465 C 0.74353 0.87518 0.79681 0.0
C466 C 0.78103 0.88055 0.76762 0.0
C467 C 0.86375 0.90805 0.7544 0.0
C468 C 0.90837 0.93002 0.77036 0.0
C469 C 0.82603 0.89885 0.78414 0.0
C470 C 0.9151 0.93921 0.81736 0.0
C471 C 0.87794 0.92902 0.84736 0.0
H472 H 0.70585 0.14015 0.52216 0.0
H473 H 0.80541 0.26489 0.50069 0.0
H474 H 0.80614 0.25045 0.41874 0.0
H475 H 0.76926 0.20781 0.35297 0.0
H476 H 0.65825 0.08921 0.37285 0.0
H477 H 0.67183 0.09453 0.45516 0.0
C478 C 0.72883 0.16309 0.49938 0.0
C479 C 0.75706 0.20262 0.51704 0.0
C480 C 0.72625 0.15583 0.45196 0.0
C481 C 0.78505 0.23354 0.48752 0.0
C482 C 0.78489 0.22552 0.4408 0.0
C483 C 0.74809 0.18298 0.37524 0.0
C484 C 0.7122 0.14873 0.35677 0.0
C485 C 0.7542 0.1876 0.42252 0.0
C486 C 0.68617 0.11601 0.38603 0.0
C487 C 0.6936 0.11924 0.43322 0.0
H488 H 0.44105 0.71795 0.30646 0.0
H489 H 0.42161 0.82333 0.3852 0.0
H490 H 0.44739 0.79431 0.45451 0.0
H491 H 0.46883 0.73382 0.49499 0.0
H492 H 0.48178 0.62626 0.41401 0.0
H493 H 0.46466 0.66028 0.34511 0.0
C494 C 0.44409 0.73565 0.33845 0.0
C495 C 0.43058 0.77414 0.33932 0.0
C496 C 0.45644 0.7171 0.37884 0.0
C497 C 0.4332 0.79498 0.38216 0.0
C498 C 0.44705 0.77755 0.42231 0.0
C499 C 0.46801 0.71767 0.46235 0.0
C500 C 0.47666 0.67652 0.461 0.0
C501 C 0.4576 0.73778 0.42155 0.0
C502 C 0.47524 0.65719 0.41746 0.0
C503 C 0.46556 0.67696 0.37745 0.0
H504 H 0.1195 0.44839 0.88969 0.0
H505 H 0.14375 0.55202 0.792 0.0
H506 H 0.11877 0.59669 0.84766 0.0
H507 H 0.09193 0.60893 0.92573 0.0
H508 H 0.05835 0.50348 1.02152 0.0
H509 H 0.08432 0.45828 0.9664 0.0
C510 C 0.11901 0.48058 0.88028 0.0
C511 C 0.13542 0.4967 0.83592 0.0
C512 C 0.10289 0.5065 0.91291 0.0
C513 C 0.13304 0.53856 0.82543 0.0
C514 C 0.11846 0.56439 0.8576 0.0
C515 C 0.09003 0.576 0.93482 0.0
C516 C 0.07325 0.56055 0.97908 0.0
C517 C 0.10381 0.54922 0.90181 0.0
C518 C 0.07095 0.51714 0.98862 0.0
C519 C 0.086 0.49099 0.95667 0.0
H520 H 0.587 0.9273 0.91352 0.0
H521 H 0.7239 0.97349 0.96838 0.0
H522 H 0.70451 1.03145 1.01028 0.0
H523 H 0.64711 1.06592 1.03434 0.0
H524 H 0.50885 1.01816 0.98138 0.0
H525 H 0.53004 0.96424 0.93512 0.0
C526 C 0.61227 0.95039 0.93456 0.0
C527 C 0.65648 0.94662 0.93855 0.0
C528 C 0.60063 0.98318 0.95862 0.0
C529 C 0.68958 0.97628 0.9655 0.0
C530 C 0.67851 1.00921 0.98921 0.0
C531 C 0.62182 1.04416 1.01215 0.0
C532 C 0.57651 1.04592 1.01136 0.0
C533 C 0.63397 1.01266 0.98643 0.0
C534 C 0.54397 1.01729 0.98272 0.0
C535 C 0.55599 0.98637 0.95634 0.0
H536 H 0.84844 0.2249 0.54072 0.0
H537 H 0.78745 0.17567 0.66971 0.0
H538 H 0.84472 0.13752 0.68001 0.0
H539 H 0.91041 0.11615 0.65048 0.0
H540 H 0.96188 0.15569 0.5154 0.0
H541 H 0.90802 0.19781 0.50765 0.0
C542 C 0.84624 0.2046 0.57018 0.0
C543 C 0.81293 0.2025 0.60391 0.0
C544 C 0.87734 0.18071 0.5744 0.0
C545 C 0.81303 0.17813 0.64346 0.0
C546 C 0.84541 0.15596 0.64908 0.0
C547 C 0.90952 0.13381 0.61927 0.0
C548 C 0.94026 0.13337 0.5837 0.0
C549 C 0.87744 0.15667 0.61452 0.0
C550 C 0.93865 0.15587 0.54324 0.0
C551 C 0.90799 0.18 0.53891 0.0
H552 H 0.27376 0.78994 0.21772 0.0
H553 H 0.31597 0.67502 0.22935 0.0
H554 H 0.24676 0.63282 0.18824 0.0
H555 H 0.17366 0.62833 0.14793 0.0
H556 H 0.13603 0.74546 0.13053 0.0
H557 H 0.2041 0.78674 0.17315 0.0
C558 C 0.26821 0.75579 0.21078 0.0
C559 C 0.30026 0.73584 0.22729 0.0
C560 C 0.22903 0.73194 0.18539 0.0
C561 C 0.29172 0.69124 0.21822 0.0
C562 C 0.25223 0.6671 0.19416 0.0
C563 C 0.1805 0.66296 0.15311 0.0
C564 C 0.14926 0.6835 0.13568 0.0
C565 C 0.22052 0.68702 0.17745 0.0
C566 C 0.15918 0.72852 0.14299 0.0
C567 C 0.19819 0.75229 0.16772 0.0
H568 H 0.2949 0.48332 0.76203 0.0
H569 H 0.19709 0.46727 0.65258 0.0
H570 H 0.25988 0.49754 0.59864 0.0
H571 H 0.34377 0.53432 0.58266 0.0
H572 H 0.43953 0.55878 0.69515 0.0
H573 H 0.37731 0.52203 0.74707 0.0
C574 C 0.28705 0.4865 0.72642 0.0
C575 C 0.24029 0.47196 0.712 0.0
C576 C 0.32361 0.50686 0.69579 0.0
C577 C 0.23197 0.4762 0.66515 0.0
C578 C 0.26825 0.49461 0.63419 0.0
C579 C 0.35112 0.53178 0.61856 0.0
C580 C 0.3972 0.54988 0.6344 0.0
C581 C 0.31435 0.51092 0.64908 0.0
C582 C 0.4051 0.54584 0.68138 0.0
C583 C 0.36925 0.52442 0.71133 0.0
H584 H 0.75594 0.86908 0.98467 0.0
H585 H 0.70805 0.79072 0.86488 0.0
H586 H 0.76016 0.74804 0.8813 0.0
H587 H 0.82323 0.73707 0.92703 0.0
H588 H 0.87106 0.81621 1.04685 0.0
H589 H 0.8141 0.85401 1.03409 0.0
C590 C 0.75577 0.84161 0.96326 0.0
C591 C 0.72779 0.8322 0.9242 0.0
C592 C 0.78601 0.81781 0.97276 0.0
C593 C 0.7291 0.79783 0.89541 0.0
C594 C 0.75897 0.77378 0.90467 0.0
C595 C 0.8209 0.76243 0.95042 0.0
C596 C 0.85135 0.7741 0.98761 0.0
C597 C 0.78826 0.7841 0.94275 0.0
C598 C 0.84774 0.80656 1.01812 0.0
C599 C 0.81538 0.82831 1.01072 0.0
H600 H 0.38758 0.89008 0.27734 0.0
H601 H 0.49803 0.83674 0.25229 0.0
H602 H 0.54292 0.90547 0.21685 0.0
H603 H 0.54703 0.97819 0.18398 0.0
H604 H 0.43296 1.02841 0.20371 0.0
H605 H 0.39325 0.96393 0.24861 0.0
C606 C 0.42238 0.89411 0.26598 0.0
C607 C 0.43952 0.85776 0.26924 0.0
C608 C 0.44673 0.93305 0.24264 0.0
C609 C 0.48413 0.86377 0.25226 0.0
C610 C 0.50939 0.90305 0.23075 0.0
C611 C 0.51353 0.97533 0.19827 0.0
C612 C 0.49329 1.009 0.18978 0.0
C613 C 0.49046 0.93745 0.22419 0.0
C614 C 0.44973 1.00377 0.20899 0.0
C615 C 0.42699 0.96666 0.23503 0.0
H616 H 0.17399 0.34485 0.76003 0.0
H617 H 0.12251 0.41842 0.6636 0.0
H618 H 0.09499 0.35412 0.61412 0.0
H619 H 0.08276 0.27484 0.59813 0.0
H620 H 0.13204 0.20062 0.69632 0.0
H621 H 0.16215 0.26557 0.74384 0.0
C622 C 0.15759 0.34711 0.72773 0.0
C623 C 0.15258 0.38797 0.71508 0.0
C624 C 0.14053 0.30892 0.69942 0.0
C625 C 0.12919 0.38878 0.6737 0.0
C626 C 0.11271 0.35143 0.64548 0.0
C627 C 0.10017 0.27261 0.62983 0.0
C628 C 0.10458 0.23147 0.64275 0.0
C629 C 0.11784 0.31098 0.65782 0.0
C630 C 0.12752 0.23073 0.68455 0.0
C631 C 0.14504 0.26838 0.71212 0.0
H632 H 0.76081 0.34064 0.59192 0.0
H633 H 0.64723 0.248 0.65755 0.0
H634 H 0.60214 0.29903 0.65397 0.0
H635 H 0.59082 0.36399 0.61848 0.0
H636 H 0.70435 0.45514 0.54938 0.0
H637 H 0.75375 0.41091 0.56755 0.0
C638 C 0.727 0.33278 0.60731 0.0
C639 C 0.70726 0.29123 0.62543 0.0
C640 C 0.70083 0.36139 0.60291 0.0
C641 C 0.66305 0.28031 0.64427 0.0
C642 C 0.63715 0.30916 0.64142 0.0
C643 C 0.62664 0.37472 0.60835 0.0
C644 C 0.64348 0.41225 0.58153 0.0
C645 C 0.65491 0.3489 0.61868 0.0
C646 C 0.69007 0.42567 0.56878 0.0
C647 C 0.7185 0.40059 0.57947 0.0
loop_
_geom_bond_atom_site_label_1
_geom_bond_atom_site_label_2
_geom_bond_distance
_geom_bond_site_symmetry_2
_ccdc_geom_bond_type
C0 N1 1.317 . S
C0 N2 1.348 . S
C0 C3 1.485 . S
N1 C0 1.317 . S
N1 N5 1.370 . S
N2 C0 1.348 . S
N2 C4 1.346 . S
C3 C0 1.485 . S
C3 H7 0.960 . S
C3 H8 0.961 . S
C3 H9 0.960 . S
C4 N2 1.346 . S
C4 N5 1.307 . S
C4 C6 1.486 . S
N5 N1 1.370 . S
N5 C4 1.307 . S
C6 C4 1.486 . S
C6 H10 0.960 . S
C6 H11 0.960 . S
C6 H12 0.959 . S
H7 C3 0.960 . S
H8 C3 0.961 . S
H9 C3 0.960 . S
H10 C6 0.960 . S
H11 C6 0.960 . S
H12 C6 0.959 . S
C13 N14 1.317 . S
C13 N15 1.348 . S
C13 C16 1.485 . S
N14 C13 1.317 . S
N14 N18 1.370 . S
N15 C13 1.348 . S
N15 C17 1.346 . S
C16 C13 1.485 . S
C16 H20 0.960 . S
C16 H21 0.961 . S
C16 H22 0.960 . S
C17 N15 1.346 . S
C17 N18 1.307 . S
C17 C19 1.486 . S
N18 N14 1.370 . S
N18 C17 1.307 . S
C19 C17 1.486 . S
C19 H23 0.960 . S
C19 H24 0.960 . S
C19 H25 0.959 . S
H20 C16 0.960 . S
H21 C16 0.961 . S
H22 C16 0.960 . S
H23 C19 0.960 . S
H24 C19 0.960 . S
H25 C19 0.959 . S
C26 N27 1.317 . S
C26 N28 1.348 . S
C26 C29 1.485 . S
N27 C26 1.317 . S
N27 N31 1.370 . S
N28 C26 1.348 . S
N28 C30 1.346 . S
C29 C26 1.485 . S
C29 H33 0.960 . S
C29 H34 0.961 . S
C29 H35 0.960 . S
C30 N28 1.346 . S
C30 N31 1.307 . S
C30 C32 1.486 . S
N31 N27 1.370 . S
N31 C30 1.307 . S
C32 C30 1.486 . S
C32 H36 0.960 . S
C32 H37 0.960 . S
C32 H38 0.959 . S
H33 C29 0.960 . S
H34 C29 0.961 . S
H35 C29 0.960 . S
H36 C32 0.960 . S
H37 C32 0.960 . S
H38 C32 0.959 . S
C39 N40 1.317 . S
C39 N41 1.348 . S
C39 C42 1.485 . S
N40 C39 1.317 . S
N40 N44 1.370 . S
N41 C39 1.348 . S
N41 C43 1.346 . S
C42 C39 1.485 . S
C42 H46 0.960 . S
C42 H47 0.961 . S
C42 H48 0.960 . S
C43 N41 1.346 . S
C43 N44 1.307 . S
C43 C45 1.486 . S
N44 N40 1.370 . S
N44 C43 1.307 . S
C45 C43 1.486 . S
C45 H49 0.960 . S
C45 H50 0.960 . S
C45 H51 0.959 . S
H46 C42 0.960 . S
H47 C42 0.961 . S
H48 C42 0.960 . S
H49 C45 0.960 . S
H50 C45 0.960 . S
H51 C45 0.959 . S
C52 N53 1.317 . S
C52 N54 1.348 . S
C52 C55 1.485 . S
N53 C52 1.317 . S
N53 N57 1.370 . S
N54 C52 1.348 . S
N54 C56 1.346 . S
C55 C52 1.485 . S
C55 H59 0.960 . S
C55 H60 0.961 . S
C55 H61 0.960 . S
C56 N54 1.346 . S
C56 N57 1.307 . S
C56 C58 1.486 . S
N57 N53 1.370 . S
N57 C56 1.307 . S
C58 C56 1.486 . S
C58 H62 0.960 . S
C58 H63 0.960 . S
C58 H64 0.959 . S
H59 C55 0.960 . S
H60 C55 0.961 . S
H61 C55 0.960 . S
H62 C58 0.960 . S
H63 C58 0.960 . S
H64 C58 0.959 . S
C65 N66 1.317 . S
C65 N67 1.348 . S
C65 C68 1.485 . S
N66 C65 1.317 . S
N66 N70 1.370 . S
N67 C65 1.348 . S
N67 C69 1.346 . S
C68 C65 1.485 . S
C68 H72 0.960 . S
C68 H73 0.961 . S
C68 H74 0.960 . S
C69 N67 1.346 . S
C69 N70 1.307 . S
C69 C71 1.486 . S
N70 N66 1.370 . S
N70 C69 1.307 . S
C71 C69 1.486 . S
C71 H75 0.960 . S
C71 H76 0.960 . S
C71 H77 0.959 . S
H72 C68 0.960 . S
H73 C68 0.961 . S
H74 C68 0.960 . S
H75 C71 0.960 . S
H76 C71 0.960 . S
H77 C71 0.959 . S
C78 N79 1.317 . S
C78 N80 1.348 . S
C78 C81 1.485 . S
N79 C78 1.317 . S
N79 N83 1.370 . S
N80 C78 1.348 . S
N80 C82 1.346 . S
C81 C78 1.485 . S
C81 H85 0.960 . S
C81 H86 0.961 . S
C81 H87 0.960 . S
C82 N80 1.346 . S
C82 N83 1.307 . S
C82 C84 1.486 . S
N83 N79 1.370 . S
N83 C82 1.307 . S
C84 C82 1.486 . S
C84 H88 0.960 . S
C84 H89 0.960 . S
C84 H90 0.959 . S
H85 C81 0.960 . S
H86 C81 0.961 . S
H87 C81 0.960 . S
H88 C84 0.960 . S
H89 C84 0.960 . S
H90 C84 0.959 . S
C91 N92 1.317 . S
C91 N93 1.348 . S
C91 C94 1.485 . S
N92 C91 1.317 . S
N92 N96 1.370 . S
N93 C91 1.348 . S
N93 C95 1.346 . S
C94 C91 1.485 . S
C94 H98 0.960 . S
C94 H99 0.961 . S
C94 H100 0.960 . S
C95 N93 1.346 . S
C95 N96 1.307 . S
C95 C97 1.486 . S
N96 N92 1.370 . S
N96 C95 1.307 . S
C97 C95 1.486 . S
C97 H101 0.960 . S
C97 H102 0.960 . S
C97 H103 0.959 . S
H98 C94 0.960 . S
H99 C94 0.961 . S
H100 C94 0.960 . S
H101 C97 0.960 . S
H102 C97 0.960 . S
H103 C97 0.959 . S
La104 C106 2.928 . S
La104 O124 2.521 . S
La104 O125 2.628 . S
La104 O126 2.554 . S
La104 O127 2.757 1_545 S
La104 O128 2.470 . S
La104 O133 2.482 . S
La104 O135 2.503 1_545 S
La105 C115 2.928 1_545 S
La105 O127 2.482 1_645 S
La105 O129 2.503 1_655 S
La105 O130 2.521 1_545 S
La105 O131 2.628 1_545 S
La105 O132 2.554 . S
La105 O133 2.757 1_655 S
La105 O134 2.470 1_545 S
C106 La104 2.928 . S
C106 C107 1.503 . S
C106 O124 1.261 . S
C106 O125 1.243 . S
C107 C106 1.503 . S
C107 C108 1.394 . S
C107 C112 1.373 . S
C108 C107 1.394 . S
C108 C109 1.380 . S
C108 H136 0.930 . S
C109 C108 1.380 . S
C109 C110 1.376 . S
C109 H137 0.930 . S
C110 C109 1.376 . S
C110 C111 1.370 . S
C111 C110 1.370 . S
C111 C112 1.396 . S
C111 H138 0.929 . S
C112 C107 1.373 . S
C112 C111 1.396 . S
C112 H139 0.929 . S
C113 O126 1.240 1_565 S
C113 O127 1.289 . S
C114 O128 1.258 . S
C114 O129 1.256 . S
C115 La105 2.928 1_565 S
C115 C116 1.503 . S
C115 O130 1.261 . S
C115 O131 1.243 . S
C116 C115 1.503 . S
C116 C117 1.394 . S
C116 C121 1.373 . S
C117 C116 1.394 . S
C117 C118 1.380 . S
C117 H140 0.930 . S
C118 C117 1.380 . S
C118 C119 1.376 . S
C118 H141 0.930 . S
C119 C118 1.376 . S
C119 C120 1.370 . S
C120 C119 1.370 . S
C120 C121 1.396 . S
C120 H142 0.929 . S
C121 C116 1.373 . S
C121 C120 1.396 . S
C121 H143 0.929 . S
C122 O132 1.240 . S
C122 O133 1.289 1_655 S
C123 O134 1.258 . S
C123 O135 1.256 1_655 S
O124 La104 2.521 . S
O124 C106 1.261 . S
O125 La104 2.628 . S
O125 C106 1.243 . S
O126 La104 2.554 . S
O126 C113 1.240 1_545 S
O127 La104 2.757 1_565 S
O127 La105 2.482 1_465 S
O127 C113 1.289 . S
O128 La104 2.470 . S
O128 C114 1.258 . S
O129 La105 2.503 1_455 S
O129 C114 1.256 . S
O130 La105 2.521 1_565 S
O130 C115 1.261 . S
O131 La105 2.628 1_565 S
O131 C115 1.243 . S
O132 La105 2.554 . S
O132 C122 1.240 . S
O133 La104 2.482 . S
O133 La105 2.757 1_455 S
O133 C122 1.289 1_455 S
O134 La105 2.470 1_565 S
O134 C123 1.258 . S
O135 La104 2.503 1_565 S
O135 C123 1.256 1_455 S
H136 C108 0.930 . S
H137 C109 0.930 . S
H138 C111 0.929 . S
H139 C112 0.929 . S
H140 C117 0.930 . S
H141 C118 0.930 . S
H142 C120 0.929 . S
H143 C121 0.929 . S
La144 C146 2.928 . S
La144 O164 2.521 . S
La144 O165 2.628 . S
La144 O166 2.554 1_545 S
La144 O167 2.757 . S
La144 O168 2.470 . S
La144 O173 2.482 . S
La144 O175 2.503 . S
La145 C155 2.934 1_554 S
La145 O167 2.482 . S
La145 O169 2.503 . S
La145 O170 2.521 1_554 S
La145 O171 2.628 1_544 S
La145 O172 2.554 1_554 S
La145 O173 2.757 . S
La145 O174 2.470 1_554 S
C146 La144 2.928 . S
C146 C147 1.503 . S
C146 O164 1.261 . S
C146 O165 1.243 . S
C147 C146 1.503 . S
C147 C148 1.394 . S
C147 C152 1.373 . S
C148 C147 1.394 . S
C148 C149 1.380 . S
C148 H176 0.930 . S
C149 C148 1.380 . S
C149 C150 1.376 . S
C149 H177 0.930 . S
C150 C149 1.376 . S
C150 C151 1.370 . S
C151 C150 1.370 . S
C151 C152 1.396 . S
C151 H178 0.929 . S
C152 C147 1.373 . S
C152 C151 1.396 . S
C152 H179 0.929 . S
C153 O166 1.240 . S
C153 O167 1.289 1_565 S
C154 O168 1.258 . S
C154 O169 1.256 . S
C155 La145 2.934 1_556 S
C155 C156 1.498 1_545 S
C155 O170 1.272 . S
C155 O171 1.237 1_545 S
C156 C155 1.498 1_565 S
C156 C157 1.394 . S
C156 C161 1.373 . S
C157 C156 1.394 . S
C157 C158 1.380 . S
C157 H180 0.930 1_565 S
C158 C157 1.380 . S
C158 C159 1.376 . S
C158 H181 0.930 . S
C159 C158 1.376 . S
C159 C160 1.370 . S
C160 C159 1.370 . S
C160 C161 1.396 . S
C160 H182 0.929 . S
C161 C156 1.373 . S
C161 C160 1.396 . S
C161 H183 0.929 . S
C162 O172 1.240 1_554 S
C162 O173 1.289 . S
C163 O174 1.265 . S
C163 O175 1.237 1_556 S
O164 La144 2.521 . S
O164 C146 1.261 . S
O165 La144 2.628 . S
O165 C146 1.243 . S
O166 La144 2.554 1_565 S
O166 C153 1.240 . S
O167 La144 2.757 . S
O167 La145 2.482 . S
O167 C153 1.289 1_545 S
O168 La144 2.470 . S
O168 C154 1.258 . S
O169 La145 2.503 . S
O169 C154 1.256 . S
O170 La145 2.521 1_556 S
O170 C155 1.272 . S
O171 La145 2.628 1_566 S
O171 C155 1.237 1_565 S
O172 La145 2.554 1_556 S
O172 C162 1.240 1_556 S
O173 La144 2.482 . S
O173 La145 2.757 . S
O173 C162 1.289 . S
O174 La145 2.470 1_556 S
O174 C163 1.265 . S
O175 La144 2.503 . S
O175 C163 1.237 1_554 S
H176 C148 0.930 . S
H177 C149 0.930 . S
H178 C151 0.929 . S
H179 C152 0.929 . S
H180 C157 0.930 1_545 S
H181 C158 0.930 . S
H182 C160 0.929 . S
H183 C161 0.929 . S
La184 C186 2.928 . S
La184 O204 2.521 . S
La184 O205 2.628 . S
La184 O206 2.554 . S
La184 O207 2.757 . S
La184 O208 2.470 . S
La184 O213 2.482 . S
La184 O215 2.503 . S
La185 C195 2.928 . S
La185 O207 2.482 . S
La185 O209 2.503 . S
La185 O210 2.521 . S
La185 O211 2.628 . S
La185 O212 2.554 . S
La185 O213 2.757 . S
La185 O214 2.470 . S
C186 La184 2.928 . S
C186 C187 1.503 . S
C186 O204 1.261 . S
C186 O205 1.243 . S
C187 C186 1.503 . S
C187 C188 1.394 . S
C187 C192 1.373 . S
C188 C187 1.394 . S
C188 C189 1.380 . S
C188 H216 0.930 . S
C189 C188 1.380 . S
C189 C190 1.376 . S
C189 H217 0.930 . S
C190 C189 1.376 . S
C190 C191 1.370 . S
C191 C190 1.370 . S
C191 C192 1.396 . S
C191 H218 0.929 . S
C192 C187 1.373 . S
C192 C191 1.396 . S
C192 H219 0.929 . S
C193 O206 1.240 . S
C193 O207 1.289 . S
C194 O208 1.258 . S
C194 O209 1.256 . S
C195 La185 2.928 . S
C195 C196 1.503 . S
C195 O210 1.261 . S
C195 O211 1.243 . S
C196 C195 1.503 . S
C196 C197 1.394 . S
C196 C201 1.373 . S
C197 C196 1.394 . S
C197 C198 1.380 . S
C197 H220 0.930 . S
C198 C197 1.380 . S
C198 C199 1.376 . S
C198 H221 0.930 . S
C199 C198 1.376 . S
C199 C200 1.370 . S
C200 C199 1.370 . S
C200 C201 1.396 . S
C200 H222 0.929 . S
C201 C196 1.373 . S
C201 C200 1.396 . S
C201 H223 0.929 . S
C202 O212 1.240 . S
C202 O213 1.289 . S
C203 O214 1.258 . S
C203 O215 1.256 . S
O204 La184 2.521 . S
O204 C186 1.261 . S
O205 La184 2.628 . S
O205 C186 1.243 . S
O206 La184 2.554 . S
O206 C193 1.240 . S
O207 La184 2.757 . S
O207 La185 2.482 . S
O207 C193 1.289 . S
O208 La184 2.470 . S
O208 C194 1.258 . S
O209 La185 2.503 . S
O209 C194 1.256 . S
O210 La185 2.521 . S
O210 C195 1.261 . S
O211 La185 2.628 . S
O211 C195 1.243 . S
O212 La185 2.554 . S
O212 C202 1.240 . S
O213 La184 2.482 . S
O213 La185 2.757 . S
O213 C202 1.289 . S
O214 La185 2.470 . S
O214 C203 1.258 . S
O215 La184 2.503 . S
O215 C203 1.256 . S
H216 C188 0.930 . S
H217 C189 0.930 . S
H218 C191 0.929 . S
H219 C192 0.929 . S
H220 C197 0.930 . S
H221 C198 0.930 . S
H222 C200 0.929 . S
H223 C201 0.929 . S
La224 C226 2.928 . S
La224 O244 2.521 . S
La224 O245 2.628 . S
La224 O246 2.554 1_455 S
La224 O247 2.757 1_455 S
La224 O248 2.470 . S
La224 O253 2.482 1_554 S
La224 O255 2.503 1_455 S
La225 C235 2.928 . S
La225 O247 2.482 1_556 S
La225 O249 2.503 1_656 S
La225 O250 2.521 . S
La225 O251 2.628 . S
La225 O252 2.554 1_655 S
La225 O253 2.757 1_655 S
La225 O254 2.470 . S
C226 La224 2.928 . S
C226 C227 1.503 . S
C226 O244 1.261 . S
C226 O245 1.243 . S
C227 C226 1.503 . S
C227 C228 1.394 . S
C227 C232 1.373 . S
C228 C227 1.394 . S
C228 C229 1.380 . S
C228 H256 0.930 . S
C229 C228 1.380 . S
C229 C230 1.376 . S
C229 H257 0.930 . S
C230 C229 1.376 . S
C230 C231 1.370 . S
C231 C230 1.370 . S
C231 C232 1.396 . S
C231 H258 0.929 . S
C232 C227 1.373 . S
C232 C231 1.396 . S
C232 H259 0.929 . S
C233 O246 1.240 . S
C233 O247 1.289 . S
C234 O248 1.258 . S
C234 O249 1.256 . S
C235 La225 2.928 . S
C235 C236 1.503 . S
C235 O250 1.261 . S
C235 O251 1.243 . S
C236 C235 1.503 . S
C236 C237 1.394 . S
C236 C241 1.373 . S
C237 C236 1.394 . S
C237 C238 1.380 . S
C237 H260 0.930 . S
C238 C237 1.380 . S
C238 C239 1.376 . S
C238 H261 0.930 . S
C239 C238 1.376 . S
C239 C240 1.370 . S
C240 C239 1.370 . S
C240 C241 1.396 . S
C240 H262 0.929 . S
C241 C236 1.373 . S
C241 C240 1.396 . S
C241 H263 0.929 . S
C242 O252 1.240 . S
C242 O253 1.289 . S
C243 O254 1.258 . S
C243 O255 1.256 1_556 S
O244 La224 2.521 . S
O244 C226 1.261 . S
O245 La224 2.628 . S
O245 C226 1.243 . S
O246 La224 2.554 1_655 S
O246 C233 1.240 . S
O247 La224 2.757 1_655 S
O247 La225 2.482 1_554 S
O247 C233 1.289 . S
O248 La224 2.470 . S
O248 C234 1.258 . S
O249 La225 2.503 1_454 S
O249 C234 1.256 . S
O250 La225 2.521 . S
O250 C235 1.261 . S
O251 La225 2.628 . S
O251 C235 1.243 . S
O252 La225 2.554 1_455 S
O252 C242 1.240 . S
O253 La224 2.482 1_556 S
O253 La225 2.757 1_455 S
O253 C242 1.289 . S
O254 La225 2.470 . S
O254 C243 1.258 . S
O255 La224 2.503 1_655 S
O255 C243 1.256 1_554 S
H256 C228 0.930 . S
H257 C229 0.930 . S
H258 C231 0.929 . S
H259 C232 0.929 . S
H260 C237 0.930 . S
H261 C238 0.930 . S
H262 C240 0.929 . S
H263 C241 0.929 . S
H264 C270 0.930 . S
H265 C273 0.930 . S
H266 C274 0.930 . S
H267 C275 0.930 . S
H268 C278 0.930 . S
H269 C279 0.930 . S
C270 H264 0.930 . S
C270 C271 1.355 . S
C270 C272 1.415 . S
C271 C270 1.355 . S
C271 C273 1.419 . S
C272 C270 1.415 . S
C272 C277 1.425 . S
C272 C279 1.409 . S
C273 H265 0.930 . S
C273 C271 1.419 . S
C273 C274 1.362 . S
C274 H266 0.930 . S
C274 C273 1.362 . S
C274 C277 1.409 . S
C275 H267 0.930 . S
C275 C276 1.355 . S
C275 C277 1.415 . S
C276 C275 1.355 . S
C276 C278 1.419 . S
C277 C272 1.425 . S
C277 C274 1.409 . S
C277 C275 1.415 . S
C278 H268 0.930 . S
C278 C276 1.419 . S
C278 C279 1.362 . S
C279 H269 0.930 . S
C279 C272 1.409 . S
C279 C278 1.362 . S
H280 C286 0.930 . S
H281 C289 0.930 . S
H282 C290 0.930 . S
H283 C291 0.930 . S
H284 C294 0.930 . S
H285 C295 0.930 . S
C286 H280 0.930 . S
C286 C287 1.355 . S
C286 C288 1.415 . S
C287 C286 1.355 . S
C287 C289 1.419 . S
C288 C286 1.415 . S
C288 C293 1.425 . S
C288 C295 1.409 . S
C289 H281 0.930 . S
C289 C287 1.419 . S
C289 C290 1.362 . S
C290 H282 0.930 . S
C290 C289 1.362 . S
C290 C293 1.409 . S
C291 H283 0.930 . S
C291 C292 1.355 . S
C291 C293 1.415 . S
C292 C291 1.355 . S
C292 C294 1.419 . S
C293 C288 1.425 . S
C293 C290 1.409 . S
C293 C291 1.415 . S
C294 H284 0.930 . S
C294 C292 1.419 . S
C294 C295 1.362 . S
C295 H285 0.930 . S
C295 C288 1.409 . S
C295 C294 1.362 . S
H296 C302 0.930 . S
H297 C305 0.930 . S
H298 C306 0.930 . S
H299 C307 0.930 . S
H300 C310 0.930 . S
H301 C311 0.930 . S
C302 H296 0.930 . S
C302 C303 1.355 . S
C302 C304 1.415 . S
C303 C302 1.355 . S
C303 C305 1.419 . S
C304 C302 1.415 . S
C304 C309 1.425 . S
C304 C311 1.409 . S
C305 H297 0.930 . S
C305 C303 1.419 . S
C305 C306 1.362 . S
C306 H298 0.930 . S
C306 C305 1.362 . S
C306 C309 1.409 . S
C307 H299 0.930 . S
C307 C308 1.355 . S
C307 C309 1.415 . S
C308 C307 1.355 . S
C308 C310 1.419 . S
C309 C304 1.425 . S
C309 C306 1.409 . S
C309 C307 1.415 . S
C310 H300 0.930 . S
C310 C308 1.419 . S
C310 C311 1.362 . S
C311 H301 0.930 . S
C311 C304 1.409 . S
C311 C310 1.362 . S
H312 C318 0.930 . S
H313 C321 0.930 . S
H314 C322 0.930 . S
H315 C323 0.930 . S
H316 C326 0.930 . S
H317 C327 0.930 . S
C318 H312 0.930 . S
C318 C319 1.355 . S
C318 C320 1.415 . S
C319 C318 1.355 . S
C319 C321 1.419 . S
C320 C318 1.415 . S
C320 C325 1.425 . S
C320 C327 1.409 . S
C321 H313 0.930 . S
C321 C319 1.419 . S
C321 C322 1.362 . S
C322 H314 0.930 . S
C322 C321 1.362 . S
C322 C325 1.409 . S
C323 H315 0.930 . S
C323 C324 1.355 . S
C323 C325 1.415 . S
C324 C323 1.355 . S
C324 C326 1.419 . S
C325 C320 1.425 . S
C325 C322 1.409 . S
C325 C323 1.415 . S
C326 H316 0.930 . S
C326 C324 1.419 . S
C326 C327 1.362 . S
C327 H317 0.930 . S
C327 C320 1.409 . S
C327 C326 1.362 . S
H328 C334 0.930 . S
H329 C337 0.930 . S
H330 C338 0.930 . S
H331 C339 0.930 . S
H332 C342 0.930 . S
H333 C343 0.930 . S
C334 H328 0.930 . S
C334 C335 1.355 . S
C334 C336 1.415 . S
C335 C334 1.355 . S
C335 C337 1.419 . S
C336 C334 1.415 . S
C336 C341 1.425 . S
C336 C343 1.409 . S
C337 H329 0.930 . S
C337 C335 1.419 . S
C337 C338 1.362 . S
C338 H330 0.930 . S
C338 C337 1.362 . S
C338 C341 1.409 . S
C339 H331 0.930 . S
C339 C340 1.355 . S
C339 C341 1.415 . S
C340 C339 1.355 . S
C340 C342 1.419 . S
C341 C336 1.425 . S
C341 C338 1.409 . S
C341 C339 1.415 . S
C342 H332 0.930 . S
C342 C340 1.419 . S
C342 C343 1.362 . S
C343 H333 0.930 . S
C343 C336 1.409 . S
C343 C342 1.362 . S
H344 C350 0.930 . S
H345 C353 0.930 . S
H346 C354 0.930 . S
H347 C355 0.930 . S
H348 C358 0.930 . S
H349 C359 0.930 . S
C350 H344 0.930 . S
C350 C351 1.355 . S
C350 C352 1.415 . S
C351 C350 1.355 . S
C351 C353 1.419 . S
C352 C350 1.415 . S
C352 C357 1.425 . S
C352 C359 1.409 . S
C353 H345 0.930 . S
C353 C351 1.419 . S
C353 C354 1.362 . S
C354 H346 0.930 . S
C354 C353 1.362 . S
C354 C357 1.409 . S
C355 H347 0.930 . S
C355 C356 1.355 . S
C355 C357 1.415 . S
C356 C355 1.355 . S
C356 C358 1.419 1_565 S
C357 C352 1.425 . S
C357 C354 1.409 . S
C357 C355 1.415 . S
C358 H348 0.930 . S
C358 C356 1.419 1_545 S
C358 C359 1.362 1_545 S
C359 H349 0.930 . S
C359 C352 1.409 . S
C359 C358 1.362 1_565 S
H360 C366 0.930 . S
H361 C369 0.930 . S
H362 C370 0.930 . S
H363 C371 0.930 . S
H364 C374 0.930 . S
H365 C375 0.930 . S
C366 H360 0.930 . S
C366 C367 1.355 . S
C366 C368 1.415 . S
C367 C366 1.355 . S
C367 C369 1.419 . S
C368 C366 1.415 . S
C368 C373 1.425 . S
C368 C375 1.409 . S
C369 H361 0.930 . S
C369 C367 1.419 . S
C369 C370 1.362 . S
C370 H362 0.930 . S
C370 C369 1.362 . S
C370 C373 1.409 . S
C371 H363 0.930 . S
C371 C372 1.355 . S
C371 C373 1.415 . S
C372 C371 1.355 . S
C372 C374 1.419 . S
C373 C368 1.425 . S
C373 C370 1.409 . S
C373 C371 1.415 . S
C374 H364 0.930 . S
C374 C372 1.419 . S
C374 C375 1.362 . S
C375 H365 0.930 . S
C375 C368 1.409 . S
C375 C374 1.362 . S
H376 C382 0.930 . S
H377 C385 0.930 . S
H378 C386 0.930 . S
H379 C387 0.930 . S
H380 C390 0.930 . S
H381 C391 0.930 . S
C382 H376 0.930 . S
C382 C383 1.355 . S
C382 C384 1.415 . S
C383 C382 1.355 . S
C383 C385 1.419 . S
C384 C382 1.415 . S
C384 C389 1.425 . S
C384 C391 1.409 . S
C385 H377 0.930 . S
C385 C383 1.419 . S
C385 C386 1.362 . S
C386 H378 0.930 . S
C386 C385 1.362 . S
C386 C389 1.409 . S
C387 H379 0.930 . S
C387 C388 1.355 . S
C387 C389 1.415 . S
C388 C387 1.355 . S
C388 C390 1.419 . S
C389 C384 1.425 . S
C389 C386 1.409 . S
C389 C387 1.415 . S
C390 H380 0.930 . S
C390 C388 1.419 . S
C390 C391 1.362 . S
C391 H381 0.930 . S
C391 C384 1.409 . S
C391 C390 1.362 . S
H392 C398 0.930 . S
H393 C401 0.930 . S
H394 C402 0.930 . S
H395 C403 0.930 . S
H396 C406 0.930 . S
H397 C407 0.930 . S
C398 H392 0.930 . S
C398 C399 1.355 . S
C398 C400 1.415 . S
C399 C398 1.355 . S
C399 C401 1.419 . S
C400 C398 1.415 . S
C400 C405 1.425 . S
C400 C407 1.409 . S
C401 H393 0.930 . S
C401 C399 1.419 . S
C401 C402 1.362 . S
C402 H394 0.930 . S
C402 C401 1.362 . S
C402 C405 1.409 . S
C403 H395 0.930 . S
C403 C404 1.355 . S
C403 C405 1.415 . S
C404 C403 1.355 . S
C404 C406 1.419 . S
C405 C400 1.425 . S
C405 C402 1.409 . S
C405 C403 1.415 . S
C406 H396 0.930 . S
C406 C404 1.419 . S
C406 C407 1.362 . S
C407 H397 0.930 . S
C407 C400 1.409 . S
C407 C406 1.362 . S
H408 C414 0.930 . S
H409 C417 0.930 . S
H410 C418 0.930 . S
H411 C419 0.930 1_554 S
H412 C422 0.930 . S
H413 C423 0.930 . S
C414 H408 0.930 . S
C414 C415 1.355 . S
C414 C416 1.415 . S
C415 C414 1.355 . S
C415 C417 1.419 . S
C416 C414 1.415 . S
C416 C421 1.425 . S
C416 C423 1.409 . S
C417 H409 0.930 . S
C417 C415 1.419 . S
C417 C418 1.362 . S
C418 H410 0.930 . S
C418 C417 1.362 . S
C418 C421 1.409 . S
C419 H411 0.930 1_556 S
C419 C420 1.355 . S
C419 C421 1.415 . S
C420 C419 1.355 . S
C420 C422 1.419 . S
C421 C416 1.425 . S
C421 C418 1.409 . S
C421 C419 1.415 . S
C422 H412 0.930 . S
C422 C420 1.419 . S
C422 C423 1.362 . S
C423 H413 0.930 . S
C423 C416 1.409 . S
C423 C422 1.362 . S
H424 C430 0.930 . S
H425 C433 0.930 . S
H426 C434 0.930 . S
H427 C435 0.930 . S
H428 C438 0.930 . S
H429 C439 0.930 . S
C430 H424 0.930 . S
C430 C431 1.355 . S
C430 C432 1.415 . S
C431 C430 1.355 . S
C431 C433 1.419 . S
C432 C430 1.415 . S
C432 C437 1.425 . S
C432 C439 1.409 . S
C433 H425 0.930 . S
C433 C431 1.419 . S
C433 C434 1.362 . S
C434 H426 0.930 . S
C434 C433 1.362 . S
C434 C437 1.409 . S
C435 H427 0.930 . S
C435 C436 1.355 . S
C435 C437 1.415 . S
C436 C435 1.355 . S
C436 C438 1.419 . S
C437 C432 1.425 . S
C437 C434 1.409 . S
C437 C435 1.415 . S
C438 H428 0.930 . S
C438 C436 1.419 . S
C438 C439 1.362 . S
C439 H429 0.930 . S
C439 C432 1.409 . S
C439 C438 1.362 . S
H440 C446 0.930 . S
H441 C449 0.930 . S
H442 C450 0.930 . S
H443 C451 0.930 . S
H444 C454 0.930 . S
H445 C455 0.930 . S
C446 H440 0.930 . S
C446 C447 1.355 . S
C446 C448 1.415 . S
C447 C446 1.355 . S
C447 C449 1.419 . S
C448 C446 1.415 . S
C448 C453 1.425 . S
C448 C455 1.409 . S
C449 H441 0.930 . S
C449 C447 1.419 . S
C449 C450 1.362 . S
C450 H442 0.930 . S
C450 C449 1.362 . S
C450 C453 1.409 . S
C451 H443 0.930 . S
C451 C452 1.355 . S
C451 C453 1.415 . S
C452 C451 1.355 . S
C452 C454 1.419 . S
C453 C448 1.425 . S
C453 C450 1.409 . S
C453 C451 1.415 . S
C454 H444 0.930 . S
C454 C452 1.419 . S
C454 C455 1.362 . S
C455 H445 0.930 . S
C455 C448 1.409 . S
C455 C454 1.362 . S
H456 C462 0.930 . S
H457 C465 0.930 . S
H458 C466 0.930 . S
H459 C467 0.930 . S
H460 C470 0.930 . S
H461 C471 0.930 . S
C462 H456 0.930 . S
C462 C463 1.355 . S
C462 C464 1.415 . S
C463 C462 1.355 . S
C463 C465 1.419 . S
C464 C462 1.415 . S
C464 C469 1.425 . S
C464 C471 1.409 . S
C465 H457 0.930 . S
C465 C463 1.419 . S
C465 C466 1.362 . S
C466 H458 0.930 . S
C466 C465 1.362 . S
C466 C469 1.409 . S
C467 H459 0.930 . S
C467 C468 1.355 . S
C467 C469 1.415 . S
C468 C467 1.355 . S
C468 C470 1.419 . S
C469 C464 1.425 . S
C469 C466 1.409 . S
C469 C467 1.415 . S
C470 H460 0.930 . S
C470 C468 1.419 . S
C470 C471 1.362 . S
C471 H461 0.930 . S
C471 C464 1.409 . S
C471 C470 1.362 . S
H472 C478 0.930 . S
H473 C481 0.930 . S
H474 C482 0.930 . S
H475 C483 0.930 . S
H476 C486 0.930 . S
H477 C487 0.930 . S
C478 H472 0.930 . S
C478 C479 1.355 . S
C478 C480 1.415 . S
C479 C478 1.355 . S
C479 C481 1.419 . S
C480 C478 1.415 . S
C480 C485 1.425 . S
C480 C487 1.409 . S
C481 H473 0.930 . S
C481 C479 1.419 . S
C481 C482 1.362 . S
C482 H474 0.930 . S
C482 C481 1.362 . S
C482 C485 1.409 . S
C483 H475 0.930 . S
C483 C484 1.355 . S
C483 C485 1.415 . S
C484 C483 1.355 . S
C484 C486 1.419 . S
C485 C480 1.425 . S
C485 C482 1.409 . S
C485 C483 1.415 . S
C486 H476 0.930 . S
C486 C484 1.419 . S
C486 C487 1.362 . S
C487 H477 0.930 . S
C487 C480 1.409 . S
C487 C486 1.362 . S
H488 C494 0.930 . S
H489 C497 0.930 . S
H490 C498 0.930 . S
H491 C499 0.930 . S
H492 C502 0.930 . S
H493 C503 0.930 . S
C494 H488 0.930 . S
C494 C495 1.355 . S
C494 C496 1.415 . S
C495 C494 1.355 . S
C495 C497 1.419 . S
C496 C494 1.415 . S
C496 C501 1.425 . S
C496 C503 1.409 . S
C497 H489 0.930 . S
C497 C495 1.419 . S
C497 C498 1.362 . S
C498 H490 0.930 . S
C498 C497 1.362 . S
C498 C501 1.409 . S
C499 H491 0.930 . S
C499 C500 1.355 . S
C499 C501 1.415 . S
C500 C499 1.355 . S
C500 C502 1.419 . S
C501 C496 1.425 . S
C501 C498 1.409 . S
C501 C499 1.415 . S
C502 H492 0.930 . S
C502 C500 1.419 . S
C502 C503 1.362 . S
C503 H493 0.930 . S
C503 C496 1.409 . S
C503 C502 1.362 . S
H504 C510 0.930 . S
H505 C513 0.930 . S
H506 C514 0.930 . S
H507 C515 0.930 . S
H508 C518 0.930 . S
H509 C519 0.930 . S
C510 H504 0.930 . S
C510 C511 1.355 . S
C510 C512 1.415 . S
C511 C510 1.355 . S
C511 C513 1.419 . S
C512 C510 1.415 . S
C512 C517 1.425 . S
C512 C519 1.409 . S
C513 H505 0.930 . S
C513 C511 1.419 . S
C513 C514 1.362 . S
C514 H506 0.930 . S
C514 C513 1.362 . S
C514 C517 1.409 . S
C515 H507 0.930 . S
C515 C516 1.355 . S
C515 C517 1.415 . S
C516 C515 1.355 . S
C516 C518 1.419 . S
C517 C512 1.425 . S
C517 C514 1.409 . S
C517 C515 1.415 . S
C518 H508 0.930 . S
C518 C516 1.419 . S
C518 C519 1.362 . S
C519 H509 0.930 . S
C519 C512 1.409 . S
C519 C518 1.362 . S
H520 C526 0.930 . S
H521 C529 0.930 . S
H522 C530 0.930 . S
H523 C531 0.930 . S
H524 C534 0.930 . S
H525 C535 0.930 . S
C526 H520 0.930 . S
C526 C527 1.355 . S
C526 C528 1.415 . S
C527 C526 1.355 . S
C527 C529 1.419 . S
C528 C526 1.415 . S
C528 C533 1.425 . S
C528 C535 1.409 . S
C529 H521 0.930 . S
C529 C527 1.419 . S
C529 C530 1.362 . S
C530 H522 0.930 . S
C530 C529 1.362 . S
C530 C533 1.409 . S
C531 H523 0.930 . S
C531 C532 1.355 . S
C531 C533 1.415 . S
C532 C531 1.355 . S
C532 C534 1.419 . S
C533 C528 1.425 . S
C533 C530 1.409 . S
C533 C531 1.415 . S
C534 H524 0.930 . S
C534 C532 1.419 . S
C534 C535 1.362 . S
C535 H525 0.930 . S
C535 C528 1.409 . S
C535 C534 1.362 . S
H536 C542 0.930 . S
H537 C545 0.930 . S
H538 C546 0.930 . S
H539 C547 0.930 . S
H540 C550 0.915 1_455 S
H541 C551 0.930 . S
C542 H536 0.930 . S
C542 C543 1.355 . S
C542 C544 1.415 . S
C543 C542 1.355 . S
C543 C545 1.419 . S
C544 C542 1.415 . S
C544 C549 1.425 . S
C544 C551 1.409 . S
C545 H537 0.930 . S
C545 C543 1.419 . S
C545 C546 1.362 . S
C546 H538 0.930 . S
C546 C545 1.362 . S
C546 C549 1.409 . S
C547 H539 0.930 . S
C547 C548 1.355 . S
C547 C549 1.415 . S
C548 C547 1.355 . S
C548 C550 1.419 . S
C549 C544 1.425 . S
C549 C546 1.409 . S
C549 C547 1.415 . S
C550 H540 0.915 1_655 S
C550 C548 1.419 . S
C550 C551 1.362 . S
C551 H541 0.930 . S
C551 C544 1.409 . S
C551 C550 1.362 . S
H552 C558 0.930 . S
H553 C561 0.930 . S
H554 C562 0.930 . S
H555 C563 0.930 . S
H556 C566 0.930 . S
H557 C567 0.930 . S
C558 H552 0.930 . S
C558 C559 1.355 . S
C558 C560 1.415 . S
C559 C558 1.355 . S
C559 C561 1.419 . S
C560 C558 1.415 . S
C560 C565 1.425 . S
C560 C567 1.409 . S
C561 H553 0.930 . S
C561 C559 1.419 . S
C561 C562 1.362 . S
C562 H554 0.930 . S
C562 C561 1.362 . S
C562 C565 1.409 . S
C563 H555 0.930 . S
C563 C564 1.355 . S
C563 C565 1.415 . S
C564 C563 1.355 . S
C564 C566 1.419 . S
C565 C560 1.425 . S
C565 C562 1.409 . S
C565 C563 1.415 . S
C566 H556 0.930 . S
C566 C564 1.419 . S
C566 C567 1.362 . S
C567 H557 0.930 . S
C567 C560 1.409 . S
C567 C566 1.362 . S
H568 C574 0.930 . S
H569 C577 0.930 . S
H570 C578 0.930 . S
H571 C579 0.930 . S
H572 C582 0.930 . S
H573 C583 0.930 . S
C574 H568 0.930 . S
C574 C575 1.355 . S
C574 C576 1.415 . S
C575 C574 1.355 . S
C575 C577 1.419 . S
C576 C574 1.415 . S
C576 C581 1.425 . S
C576 C583 1.409 . S
C577 H569 0.930 . S
C577 C575 1.419 . S
C577 C578 1.362 . S
C578 H570 0.930 . S
C578 C577 1.362 . S
C578 C581 1.409 . S
C579 H571 0.930 . S
C579 C580 1.355 . S
C579 C581 1.415 . S
C580 C579 1.355 . S
C580 C582 1.419 . S
C581 C576 1.425 . S
C581 C578 1.409 . S
C581 C579 1.415 . S
C582 H572 0.930 . S
C582 C580 1.419 . S
C582 C583 1.362 . S
C583 H573 0.930 . S
C583 C576 1.409 . S
C583 C582 1.362 . S
H584 C590 0.930 . S
H585 C593 0.930 . S
H586 C594 0.930 . S
H587 C595 0.930 . S
H588 C598 0.930 . S
H589 C599 0.930 . S
C590 H584 0.930 . S
C590 C591 1.355 . S
C590 C592 1.415 . S
C591 C590 1.355 . S
C591 C593 1.419 . S
C592 C590 1.415 . S
C592 C597 1.425 . S
C592 C599 1.409 . S
C593 H585 0.930 . S
C593 C591 1.419 . S
C593 C594 1.362 . S
C594 H586 0.930 . S
C594 C593 1.362 . S
C594 C597 1.409 . S
C595 H587 0.930 . S
C595 C596 1.355 . S
C595 C597 1.415 . S
C596 C595 1.355 . S
C596 C598 1.419 . S
C597 C592 1.425 . S
C597 C594 1.409 . S
C597 C595 1.415 . S
C598 H588 0.930 . S
C598 C596 1.419 . S
C598 C599 1.362 . S
C599 H589 0.930 . S
C599 C592 1.409 . S
C599 C598 1.362 . S
H600 C606 0.930 . S
H601 C609 0.930 . S
H602 C610 0.930 . S
H603 C611 0.930 . S
H604 C614 0.930 . S
H605 C615 0.930 . S
C606 H600 0.930 . S
C606 C607 1.355 . S
C606 C608 1.415 . S
C607 C606 1.355 . S
C607 C609 1.419 . S
C608 C606 1.415 . S
C608 C613 1.425 . S
C608 C615 1.409 . S
C609 H601 0.930 . S
C609 C607 1.419 . S
C609 C610 1.362 . S
C610 H602 0.930 . S
C610 C609 1.362 . S
C610 C613 1.409 . S
C611 H603 0.930 . S
C611 C612 1.355 . S
C611 C613 1.415 . S
C612 C611 1.355 . S
C612 C614 1.419 . S
C613 C608 1.425 . S
C613 C610 1.409 . S
C613 C611 1.415 . S
C614 H604 0.930 . S
C614 C612 1.419 . S
C614 C615 1.362 . S
C615 H605 0.930 . S
C615 C608 1.409 . S
C615 C614 1.362 . S
H616 C622 0.930 . S
H617 C625 0.930 . S
H618 C626 0.930 . S
H619 C627 0.930 . S
H620 C630 0.930 . S
H621 C631 0.930 . S
C622 H616 0.930 . S
C622 C623 1.355 . S
C622 C624 1.415 . S
C623 C622 1.355 . S
C623 C625 1.419 . S
C624 C622 1.415 . S
C624 C629 1.425 . S
C624 C631 1.409 . S
C625 H617 0.930 . S
C625 C623 1.419 . S
C625 C626 1.362 . S
C626 H618 0.930 . S
C626 C625 1.362 . S
C626 C629 1.409 . S
C627 H619 0.930 . S
C627 C628 1.355 . S
C627 C629 1.415 . S
C628 C627 1.355 . S
C628 C630 1.419 . S
C629 C624 1.425 . S
C629 C626 1.409 . S
C629 C627 1.415 . S
C630 H620 0.930 . S
C630 C628 1.419 . S
C630 C631 1.362 . S
C631 H621 0.930 . S
C631 C624 1.409 . S
C631 C630 1.362 . S
H632 C638 0.930 . S
H633 C641 0.930 . S
H634 C642 0.930 . S
H635 C643 0.930 . S
H636 C646 0.930 . S
H637 C647 0.930 . S
C638 H632 0.930 . S
C638 C639 1.355 . S
C638 C640 1.415 . S
C639 C638 1.355 . S
C639 C641 1.419 . S
C640 C638 1.415 . S
C640 C645 1.425 . S
C640 C647 1.409 . S
C641 H633 0.930 . S
C641 C639 1.419 . S
C641 C642 1.362 . S
C642 H634 0.930 . S
C642 C641 1.362 . S
C642 C645 1.409 . S
C643 H635 0.930 . S
C643 C644 1.355 . S
C643 C645 1.415 . S
C644 C643 1.355 . S
C644 C646 1.419 . S
C645 C640 1.425 . S
C645 C642 1.409 . S
C645 C643 1.415 . S
C646 H636 0.930 . S
C646 C644 1.419 . S
C646 C647 1.362 . S
C647 H637 0.930 . S
C647 C640 1.409 . S
C647 C646 1.362 . S
C271 N1 0.943 . S
C276 C110 0.939 . S
C287 N18 1.020 . S
C292 C159 1.100 . S
C308 C194 2.141 . S
C303 N28 2.203 . S
C319 N40 2.633 . S
C324 C233 2.650 . S
C340 C154 2.312 . S
C335 N5 2.243 . S
C356 C113 0.535 . S
C351 N14 0.615 . S
C372 C243 1.991 . S
C367 N31 2.022 . S
C388 C202 1.473 . S
C383 N41 1.522 . S
C399 N2 1.261 . S
C404 C230 1.325 . S
C420 C162 2.475 1_556 S
C415 N27 2.532 . S
C431 N44 2.445 . S
C436 C123 2.471 . S
C447 N15 0.746 . S
C452 C199 0.785 . S
C468 C119 1.495 . S
C463 N57 1.500 . S
C479 N70 0.993 . S
C484 C150 1.000 . S
C495 N79 2.343 . S
C500 C203 2.350 . S
C511 N93 2.469 . S
C516 C242 2.455 . S
C527 N54 1.828 . S
C532 C163 2.005 1_565 S
C548 C122 1.362 . S
C543 N66 1.464 . S
C564 C234 1.460 . S
C559 N80 1.554 . S
C580 C193 1.773 . S
C575 N96 1.788 . S
C591 N53 1.454 . S
C596 C239 1.474 . S
C612 C153 2.145 . S
C607 N83 2.155 . S
C628 C114 2.655 . S
C623 N92 2.641 . S
C639 N67 0.931 . S
C644 C190 0.965 . S
