# Generated by pormake.
# Topology ptr, (4,4)-cn, num edge types: 1
# Building blocks:
#     Node 0, Type 0, BuildingBlock: AZAVOO_clean_sbu_0, # of connection points: 4
#     Node 1, Type 0, BuildingBlock: AZAVOO_clean_sbu_0, # of connection points: 4
#     Node 2, Type 0, BuildingBlock: AZAVOO_clean_sbu_0, # of connection points: 4
#     Node 3, Type 0, BuildingBlock: AZAVOO_clean_sbu_0, # of connection points: 4
#     Node 4, Type 0, BuildingBlock: AZAVOO_clean_sbu_0, # of connection points: 4
#     Node 5, Type 0, BuildingBlock: AZAVOO_clean_sbu_0, # of connection points: 4
#     Node 6, Type 0, BuildingBlock: AZAVOO_clean_sbu_0, # of connection points: 4
#     Node 7, Type 0, BuildingBlock: AZAVOO_clean_sbu_0, # of connection points: 4
#     Node 8, Type 0, BuildingBlock: AZAVOO_clean_sbu_0, # of connection points: 4
#     Node 9, Type 0, BuildingBlock: AZAVOO_clean_sbu_0, # of connection points: 4
#     Node 10, Type 0, BuildingBlock: AZAVOO_clean_sbu_0, # of connection points: 4
#     Node 11, Type 0, BuildingBlock: AZAVOO_clean_sbu_0, # of connection points: 4
#     Node 12, Type 0, BuildingBlock: AZAVOO_clean_sbu_0, # of connection points: 4
#     Node 13, Type 0, BuildingBlock: AZAVOO_clean_sbu_0, # of connection points: 4
#     Node 14, Type 0, BuildingBlock: AZAVOO_clean_sbu_0, # of connection points: 4
#     Node 15, Type 0, BuildingBlock: AZAVOO_clean_sbu_0, # of connection points: 4
#     Node 16, Type 0, BuildingBlock: AZAVOO_clean_sbu_0, # of connection points: 4
#     Node 17, Type 0, BuildingBlock: AZAVOO_clean_sbu_0, # of connection points: 4
#     Node 18, Type 1, BuildingBlock: MUDLON_clean_linker_0, # of connection points: 4
#     Node 19, Type 1, BuildingBlock: MUDLON_clean_linker_0, # of connection points: 4
#     Node 20, Type 1, BuildingBlock: MUDLON_clean_linker_0, # of connection points: 4
#     Node 21, Type 1, BuildingBlock: MUDLON_clean_linker_0, # of connection points: 4
#     Node 22, Type 1, BuildingBlock: MUDLON_clean_linker_0, # of connection points: 4
#     Node 23, Type 1, BuildingBlock: MUDLON_clean_linker_0, # of connection points: 4
#     Node 24, Type 1, BuildingBlock: MUDLON_clean_linker_0, # of connection points: 4
#     Node 25, Type 1, BuildingBlock: MUDLON_clean_linker_0, # of connection points: 4
#     Node 26, Type 1, BuildingBlock: MUDLON_clean_linker_0, # of connection points: 4
#     Node 27, Type 1, BuildingBlock: MUDLON_clean_linker_0, # of connection points: 4
#     Node 28, Type 1, BuildingBlock: MUDLON_clean_linker_0, # of connection points: 4
#     Node 29, Type 1, BuildingBlock: MUDLON_clean_linker_0, # of connection points: 4
#     Node 30, Type 1, BuildingBlock: MUDLON_clean_linker_0, # of connection points: 4
#     Node 31, Type 1, BuildingBlock: MUDLON_clean_linker_0, # of connection points: 4
#     Node 32, Type 1, BuildingBlock: MUDLON_clean_linker_0, # of connection points: 4
#     Node 33, Type 1, BuildingBlock: MUDLON_clean_linker_0, # of connection points: 4
#     Node 34, Type 1, BuildingBlock: MUDLON_clean_linker_0, # of connection points: 4
#     Node 35, Type 1, BuildingBlock: MUDLON_clean_linker_0, # of connection points: 4
#     Edge 36, Type (0, 1), BuildingBlock: FUNLAD_clean_linker_0, # of connection points: 2
#     Edge 37, Type (0, 1), BuildingBlock: FUNLAD_clean_linker_0, # of connection points: 2
#     Edge 38, Type (0, 1), BuildingBlock: FUNLAD_clean_linker_0, # of connection points: 2
#     Edge 39, Type (0, 1), BuildingBlock: FUNLAD_clean_linker_0, # of connection points: 2
#     Edge 40, Type (0, 1), BuildingBlock: FUNLAD_clean_linker_0, # of connection points: 2
#     Edge 41, Type (0, 1), BuildingBlock: FUNLAD_clean_linker_0, # of connection points: 2
#     Edge 42, Type (0, 1), BuildingBlock: FUNLAD_clean_linker_0, # of connection points: 2
#     Edge 43, Type (0, 1), BuildingBlock: FUNLAD_clean_linker_0, # of connection points: 2
#     Edge 44, Type (0, 1), BuildingBlock: FUNLAD_clean_linker_0, # of connection points: 2
#     Edge 45, Type (0, 1), BuildingBlock: FUNLAD_clean_linker_0, # of connection points: 2
#     Edge 46, Type (0, 1), BuildingBlock: FUNLAD_clean_linker_0, # of connection points: 2
#     Edge 47, Type (0, 1), BuildingBlock: FUNLAD_clean_linker_0, # of connection points: 2
#     Edge 48, Type (0, 1), BuildingBlock: FUNLAD_clean_linker_0, # of connection points: 2
#     Edge 49, Type (0, 1), BuildingBlock: FUNLAD_clean_linker_0, # of connection points: 2
#     Edge 50, Type (0, 1), BuildingBlock: FUNLAD_clean_linker_0, # of connection points: 2
#     Edge 51, Type (0, 1), BuildingBlock: FUNLAD_clean_linker_0, # of connection points: 2
#     Edge 52, Type (0, 1), BuildingBlock: FUNLAD_clean_linker_0, # of connection points: 2
#     Edge 53, Type (0, 1), BuildingBlock: FUNLAD_clean_linker_0, # of connection points: 2
#     Edge 54, Type (0, 1), BuildingBlock: FUNLAD_clean_linker_0, # of connection points: 2
#     Edge 55, Type (0, 1), BuildingBlock: FUNLAD_clean_linker_0, # of connection points: 2
#     Edge 56, Type (0, 1), BuildingBlock: FUNLAD_clean_linker_0, # of connection points: 2
#     Edge 57, Type (0, 1), BuildingBlock: FUNLAD_clean_linker_0, # of connection points: 2
#     Edge 58, Type (0, 1), BuildingBlock: FUNLAD_clean_linker_0, # of connection points: 2
#     Edge 59, Type (0, 1), BuildingBlock: FUNLAD_clean_linker_0, # of connection points: 2
#     Edge 60, Type (0, 1), BuildingBlock: FUNLAD_clean_linker_0, # of connection points: 2
#     Edge 61, Type (0, 1), BuildingBlock: FUNLAD_clean_linker_0, # of connection points: 2
#     Edge 62, Type (0, 1), BuildingBlock: FUNLAD_clean_linker_0, # of connection points: 2
#     Edge 63, Type (0, 1), BuildingBlock: FUNLAD_clean_linker_0, # of connection points: 2
#     Edge 64, Type (0, 1), BuildingBlock: FUNLAD_clean_linker_0, # of connection points: 2
#     Edge 65, Type (0, 1), BuildingBlock: FUNLAD_clean_linker_0, # of connection points: 2
#     Edge 66, Type (0, 1), BuildingBlock: FUNLAD_clean_linker_0, # of connection points: 2
#     Edge 67, Type (0, 1), BuildingBlock: FUNLAD_clean_linker_0, # of connection points: 2
#     Edge 68, Type (0, 1), BuildingBlock: FUNLAD_clean_linker_0, # of connection points: 2
#     Edge 69, Type (0, 1), BuildingBlock: FUNLAD_clean_linker_0, # of connection points: 2
#     Edge 70, Type (0, 1), BuildingBlock: FUNLAD_clean_linker_0, # of connection points: 2
#     Edge 71, Type (0, 1), BuildingBlock: FUNLAD_clean_linker_0, # of connection points: 2
#     Edge 72, Type (0, 1), BuildingBlock: FUNLAD_clean_linker_0, # of connection points: 2
#     Edge 73, Type (0, 1), BuildingBlock: FUNLAD_clean_linker_0, # of connection points: 2
#     Edge 74, Type (0, 1), BuildingBlock: FUNLAD_clean_linker_0, # of connection points: 2
#     Edge 75, Type (0, 1), BuildingBlock: FUNLAD_clean_linker_0, # of connection points: 2
#     Edge 76, Type (0, 1), BuildingBlock: FUNLAD_clean_linker_0, # of connection points: 2
#     Edge 77, Type (0, 1), BuildingBlock: FUNLAD_clean_linker_0, # of connection points: 2
#     Edge 78, Type (0, 1), BuildingBlock: FUNLAD_clean_linker_0, # of connection points: 2
#     Edge 79, Type (0, 1), BuildingBlock: FUNLAD_clean_linker_0, # of connection points: 2
#     Edge 80, Type (0, 1), BuildingBlock: FUNLAD_clean_linker_0, # of connection points: 2
#     Edge 81, Type (0, 1), BuildingBlock: FUNLAD_clean_linker_0, # of connection points: 2
#     Edge 82, Type (0, 1), BuildingBlock: FUNLAD_clean_linker_0, # of connection points: 2
#     Edge 83, Type (0, 1), BuildingBlock: FUNLAD_clean_linker_0, # of connection points: 2
#     Edge 84, Type (0, 1), BuildingBlock: FUNLAD_clean_linker_0, # of connection points: 2
#     Edge 85, Type (0, 1), BuildingBlock: FUNLAD_clean_linker_0, # of connection points: 2
#     Edge 86, Type (0, 1), BuildingBlock: FUNLAD_clean_linker_0, # of connection points: 2
#     Edge 87, Type (0, 1), BuildingBlock: FUNLAD_clean_linker_0, # of connection points: 2
#     Edge 88, Type (0, 1), BuildingBlock: FUNLAD_clean_linker_0, # of connection points: 2
#     Edge 89, Type (0, 1), BuildingBlock: FUNLAD_clean_linker_0, # of connection points: 2
#     Edge 90, Type (0, 1), BuildingBlock: FUNLAD_clean_linker_0, # of connection points: 2
#     Edge 91, Type (0, 1), BuildingBlock: FUNLAD_clean_linker_0, # of connection points: 2
#     Edge 92, Type (0, 1), BuildingBlock: FUNLAD_clean_linker_0, # of connection points: 2
#     Edge 93, Type (0, 1), BuildingBlock: FUNLAD_clean_linker_0, # of connection points: 2
#     Edge 94, Type (0, 1), BuildingBlock: FUNLAD_clean_linker_0, # of connection points: 2
#     Edge 95, Type (0, 1), BuildingBlock: FUNLAD_clean_linker_0, # of connection points: 2
#     Edge 96, Type (0, 1), BuildingBlock: FUNLAD_clean_linker_0, # of connection points: 2
#     Edge 97, Type (0, 1), BuildingBlock: FUNLAD_clean_linker_0, # of connection points: 2
#     Edge 98, Type (0, 1), BuildingBlock: FUNLAD_clean_linker_0, # of connection points: 2
#     Edge 99, Type (0, 1), BuildingBlock: FUNLAD_clean_linker_0, # of connection points: 2
#     Edge 100, Type (0, 1), BuildingBlock: FUNLAD_clean_linker_0, # of connection points: 2
#     Edge 101, Type (0, 1), BuildingBlock: FUNLAD_clean_linker_0, # of connection points: 2
#     Edge 102, Type (0, 1), BuildingBlock: FUNLAD_clean_linker_0, # of connection points: 2
#     Edge 103, Type (0, 1), BuildingBlock: FUNLAD_clean_linker_0, # of connection points: 2
#     Edge 104, Type (0, 1), BuildingBlock: FUNLAD_clean_linker_0, # of connection points: 2
#     Edge 105, Type (0, 1), BuildingBlock: FUNLAD_clean_linker_0, # of connection points: 2
#     Edge 106, Type (0, 1), BuildingBlock: FUNLAD_clean_linker_0, # of connection points: 2
#     Edge 107, Type (0, 1), BuildingBlock: FUNLAD_clean_linker_0, # of connection points: 2
# Relax obj value: 0.069
# Max RMSD: 0.224
# Mean RMSD: 0.108
data_MOF--net-ptr--node1-AZAVOO_clean_sbu_0--node2-MUDLON_clean_linker_0--edge1-FUNLAD_clean_linker_0
_symmetry_space_group_name_H-M    P1
_symmetry_Int_Tables_number       1
_symmetry_cell_setting            triclinic
loop_
_symmetry_equiv_pos_as_xyz
'x, y, z'
_cell_length_a     119.04651
_cell_length_b     117.46965
_cell_length_c     67.03554
_cell_angle_alpha  90.933646
_cell_angle_beta   90.928198
_cell_angle_gamma 120.01185
loop_
_atom_site_label
_atom_site_type_symbol
_atom_site_fract_x
_atom_site_fract_y
_atom_site_fract_z
_atom_type_partial_charge
Mg0 Mg 0.00301 0.35824 0.99399 0.0
O1 O 0.99585 0.36628 0.01952 0.0
O2 O 0.97893 0.36733 0.0067 0.0
Mg3 Mg 0.97548 0.36053 0.97401 0.0
C4 C 0.9867 0.36892 0.02124 0.0
C5 C 0.02271 0.35059 0.00593 0.0
O6 O 0.02163 0.34942 0.98636 0.0
O7 O 0.9857 0.33771 0.99748 0.0
O8 O 0.96948 0.33952 0.98367 0.0
O9 O 0.01631 0.37853 0.98411 0.0
O10 O 0.99607 0.36625 0.97297 0.0
C11 C 0.97381 0.3327 0.99199 0.0
C12 C 0.00671 0.37741 0.9732 0.0
O13 O 0.01562 0.35409 0.01515 0.0
Mg14 Mg 0.63663 0.64211 0.04709 0.0
O15 O 0.62128 0.63339 0.0217 0.0
O16 O 0.60294 0.63163 0.03305 0.0
Mg17 Mg 0.60654 0.63888 0.06573 0.0
C18 C 0.60939 0.63023 0.01914 0.0
C19 C 0.66175 0.64449 0.03149 0.0
O20 O 0.66091 0.63948 0.04916 0.0
O21 O 0.63876 0.66222 0.04276 0.0
O22 O 0.62069 0.66004 0.05595 0.0
O23 O 0.63044 0.622 0.05762 0.0
O24 O 0.62226 0.6342 0.06814 0.0
C25 C 0.63162 0.667 0.04776 0.0
C26 C 0.62214 0.62318 0.06843 0.0
O27 O 0.65279 0.6466 0.0255 0.0
Mg28 Mg 0.36317 0.99298 0.99069 0.0
O29 O 0.37652 0.9966 0.01799 0.0
O30 O 0.39653 0.01224 0.01046 0.0
Mg31 Mg 0.396 0.01823 0.97833 0.0
C32 C 0.38853 0.00407 0.02265 0.0
C33 C 0.33435 0.97737 0.00071 0.0
O34 O 0.33387 0.97876 0.98136 0.0
O35 O 0.36363 0.01226 0.99693 0.0
O36 O 0.38346 0.02725 0.98761 0.0
O37 O 0.3674 0.97771 0.97905 0.0
O38 O 0.37874 0.99878 0.97201 0.0
C39 C 0.37229 0.02417 0.99416 0.0
C40 C 0.37726 0.98715 0.97048 0.0
O41 O 0.34536 0.98213 0.00956 0.0
Mg42 Mg 0.99846 0.64753 0.03676 0.0
O43 O 0.99957 0.63622 0.00911 0.0
O44 O 0.01713 0.63418 0.01336 0.0
Mg45 Mg 0.02712 0.6439 0.04315 0.0
C46 C 0.00715 0.63218 0.00311 0.0
C47 C 0.97315 0.64837 0.03034 0.0
O48 O 0.97165 0.64346 0.04821 0.0
O49 O 0.01508 0.66687 0.02572 0.0
O50 O 0.0321 0.66405 0.03108 0.0
O51 O 0.98707 0.62854 0.05241 0.0
O52 O 0.00844 0.64066 0.05395 0.0
C53 C 0.02725 0.67104 0.02533 0.0
C54 C 0.9981 0.63001 0.05854 0.0
O55 O 0.98336 0.65104 0.02101 0.0
Mg56 Mg 0.37167 0.35552 0.98443 0.0
O57 O 0.385 0.36405 0.01245 0.0
O58 O 0.40402 0.36578 0.00499 0.0
Mg59 Mg 0.40294 0.35856 0.9728 0.0
C60 C 0.39666 0.3672 0.01722 0.0
C61 C 0.34304 0.34503 0.99271 0.0
O62 O 0.34291 0.34195 0.97374 0.0
O63 O 0.36885 0.33525 0.99013 0.0
O64 O 0.38784 0.33746 0.98128 0.0
O65 O 0.37898 0.37577 0.97336 0.0
O66 O 0.38773 0.36349 0.96636 0.0
C67 C 0.37627 0.33046 0.98738 0.0
C68 C 0.38812 0.37461 0.96503 0.0
O69 O 0.35387 0.35096 0.00226 0.0
Mg70 Mg 0.63055 0.00039 0.03503 0.0
O71 O 0.61587 0.99352 0.00868 0.0
O72 O 0.59749 0.97621 0.01849 0.0
Mg73 Mg 0.60043 0.97202 0.05075 0.0
C74 C 0.60412 0.98448 0.0053 0.0
C75 C 0.65843 0.01875 0.02235 0.0
O76 O 0.66 0.01708 0.04131 0.0
O77 O 0.63364 0.98303 0.02973 0.0
O78 O 0.61548 0.96623 0.04117 0.0
O79 O 0.62331 0.01345 0.04621 0.0
O80 O 0.61551 0.99284 0.05496 0.0
C81 C 0.62672 0.97089 0.03374 0.0
C82 C 0.6148 0.00343 0.0558 0.0
O83 O 0.64702 0.01299 0.01465 0.0
Mg84 Mg 0.66973 0.6915 0.31914 0.0
O85 O 0.66559 0.70042 0.34702 0.0
O86 O 0.64877 0.70307 0.33877 0.0
Mg87 Mg 0.64267 0.69666 0.30616 0.0
C88 C 0.65734 0.70396 0.3514 0.0
C89 C 0.69155 0.68593 0.32651 0.0
O90 O 0.69231 0.68921 0.30772 0.0
O91 O 0.65171 0.67165 0.32419 0.0
O92 O 0.63573 0.67515 0.31412 0.0
O93 O 0.68338 0.7116 0.30873 0.0
O94 O 0.66244 0.7006 0.30082 0.0
C95 C 0.63969 0.66755 0.3206 0.0
C96 C 0.67346 0.71132 0.3 0.0
O97 O 0.68267 0.68587 0.33688 0.0
Mg98 Mg 0.30301 0.97508 0.37624 0.0
O99 O 0.28721 0.96737 0.35136 0.0
O100 O 0.26956 0.96629 0.36448 0.0
Mg101 Mg 0.27389 0.97274 0.39742 0.0
C102 C 0.27544 0.9648 0.34978 0.0
C103 C 0.33015 0.9846 0.36162 0.0
O104 O 0.3318 0.98746 0.38087 0.0
O105 O 0.30592 0.99561 0.37359 0.0
O106 O 0.2885 0.99395 0.38837 0.0
O107 O 0.29644 0.95466 0.38531 0.0
O108 O 0.28889 0.967 0.39769 0.0
C109 C 0.2993 0.00073 0.37977 0.0
C110 C 0.28838 0.95578 0.3968 0.0
O111 O 0.31875 0.97935 0.35398 0.0
Mg112 Mg 0.03598 0.33167 0.31655 0.0
O113 O 0.0495 0.33957 0.3444 0.0
O114 O 0.06726 0.35811 0.33605 0.0
Mg115 Mg 0.06511 0.36202 0.30337 0.0
C116 C 0.06068 0.34945 0.34879 0.0
C117 C 0.01059 0.30681 0.32765 0.0
O118 O 0.01242 0.30344 0.30972 0.0
O119 O 0.0306 0.34754 0.32063 0.0
O120 O 0.04833 0.36565 0.31111 0.0
O121 O 0.04551 0.32033 0.307 0.0
O122 O 0.05189 0.34072 0.2984 0.0
C123 C 0.0367 0.35982 0.31727 0.0
C124 C 0.05382 0.33086 0.29815 0.0
O125 O 0.01898 0.3179 0.33525 0.0
Mg126 Mg 0.66885 0.97612 0.36983 0.0
O127 O 0.67334 0.96623 0.34354 0.0
O128 O 0.68946 0.96303 0.35401 0.0
Mg129 Mg 0.69544 0.9709 0.38604 0.0
C130 C 0.68129 0.96209 0.34056 0.0
C131 C 0.64475 0.97233 0.34515 0.0
O132 O 0.6406 0.96024 0.35073 0.0
O133 O 0.6871 0.99565 0.36383 0.0
O134 O 0.70269 0.99184 0.37498 0.0
O135 O 0.65503 0.95642 0.38185 0.0
O136 O 0.67587 0.96775 0.39012 0.0
C137 C 0.69906 0.99943 0.36736 0.0
C138 C 0.66488 0.9571 0.39143 0.0
O139 O 0.65633 0.98117 0.34976 0.0
Mg140 Mg 0.0338 0.69649 0.319 0.0
O141 O 0.04839 0.70804 0.34474 0.0
O142 O 0.06776 0.71136 0.33562 0.0
Mg143 Mg 0.06562 0.70173 0.30488 0.0
C144 C 0.06054 0.71277 0.34813 0.0
C145 C 0.0133 0.70066 0.34171 0.0
O146 O 0.02023 0.71238 0.33428 0.0
O147 O 0.03332 0.67757 0.32783 0.0
O148 O 0.0526 0.68124 0.31762 0.0
O149 O 0.03882 0.71535 0.30427 0.0
O150 O 0.0487 0.70401 0.29865 0.0
C151 C 0.04162 0.67384 0.32536 0.0
C152 C 0.04793 0.71438 0.29554 0.0
O153 O 0.01671 0.69211 0.3387 0.0
Mg154 Mg 0.30421 0.34288 0.36812 0.0
O155 O 0.29218 0.33841 0.33913 0.0
O156 O 0.2733 0.31987 0.34248 0.0
Mg157 Mg 0.27326 0.31258 0.37397 0.0
C158 C 0.28107 0.32963 0.33221 0.0
C159 C 0.33311 0.36356 0.36102 0.0
O160 O 0.33378 0.36169 0.38017 0.0
O161 O 0.30852 0.32653 0.36096 0.0
O162 O 0.28967 0.30833 0.36633 0.0
O163 O 0.29516 0.35418 0.37987 0.0
O164 O 0.28733 0.33293 0.38411 0.0
C165 C 0.30163 0.31404 0.36181 0.0
C166 C 0.28606 0.34313 0.38643 0.0
O167 O 0.32217 0.35745 0.35184 0.0
Mg168 Mg 0.34483 0.02857 0.65281 0.0
O169 O 0.33974 0.0385 0.67827 0.0
O170 O 0.32398 0.04182 0.66635 0.0
Mg171 Mg 0.31893 0.03412 0.63409 0.0
C172 C 0.33177 0.04272 0.68042 0.0
C173 C 0.36786 0.03185 0.6801 0.0
O174 O 0.37243 0.04408 0.67483 0.0
O175 O 0.32626 0.00909 0.65768 0.0
O176 O 0.31113 0.01298 0.64473 0.0
O177 O 0.35924 0.04827 0.64172 0.0
O178 O 0.33867 0.03734 0.63173 0.0
C179 C 0.31445 0.00531 0.65294 0.0
C180 C 0.3498 0.04794 0.63138 0.0
O181 O 0.35648 0.02319 0.67422 0.0
Mg182 Mg 0.96794 0.3021 0.71725 0.0
O183 O 0.95349 0.29296 0.69058 0.0
O184 O 0.93424 0.28937 0.70089 0.0
Mg185 Mg 0.93621 0.29566 0.73375 0.0
C186 C 0.94146 0.28897 0.68732 0.0
C187 C 0.98594 0.30002 0.68577 0.0
O188 O 0.97634 0.28779 0.68497 0.0
O189 O 0.96839 0.32153 0.71321 0.0
O190 O 0.94928 0.31724 0.72507 0.0
O191 O 0.9632 0.28222 0.72705 0.0
O192 O 0.95285 0.29246 0.73689 0.0
C193 C 0.96025 0.32515 0.71772 0.0
C194 C 0.95384 0.28202 0.73691 0.0
O195 O 0.98513 0.30835 0.69708 0.0
Mg196 Mg 0.70008 0.6558 0.6565 0.0
O197 O 0.71462 0.66252 0.68311 0.0
O198 O 0.7336 0.67862 0.67264 0.0
Mg199 Mg 0.73128 0.68217 0.63983 0.0
C200 C 0.72658 0.67107 0.68627 0.0
C201 C 0.67238 0.64384 0.67108 0.0
O202 O 0.67198 0.64917 0.65419 0.0
O203 O 0.69864 0.67428 0.66 0.0
O204 O 0.71749 0.68983 0.64833 0.0
O205 O 0.70591 0.64128 0.64672 0.0
O206 O 0.71513 0.66177 0.63676 0.0
C207 C 0.70634 0.68618 0.65551 0.0
C208 C 0.71485 0.65067 0.63663 0.0
O209 O 0.68305 0.64481 0.6769 0.0
Mg210 Mg 0.33021 0.31167 0.70437 0.0
O211 O 0.33614 0.30373 0.67708 0.0
O212 O 0.35278 0.30139 0.68766 0.0
Mg213 Mg 0.35724 0.30725 0.72065 0.0
C214 C 0.34484 0.3006 0.67392 0.0
C215 C 0.31068 0.32013 0.69584 0.0
O216 O 0.31198 0.32032 0.71537 0.0
O217 O 0.34807 0.33202 0.70117 0.0
O218 O 0.36385 0.32861 0.7126 0.0
O219 O 0.31658 0.29115 0.71353 0.0
O220 O 0.33711 0.30267 0.72358 0.0
C221 C 0.35999 0.3362 0.70571 0.0
C222 C 0.3263 0.2917 0.72338 0.0
O223 O 0.31757 0.317 0.6853 0.0
Mg224 Mg 0.69612 0.02367 0.64238 0.0
O225 O 0.70902 0.0342 0.67013 0.0
O226 O 0.72851 0.03638 0.66507 0.0
Mg227 Mg 0.72813 0.02745 0.63437 0.0
C228 C 0.72072 0.03811 0.67587 0.0
C229 C 0.67455 0.02804 0.66144 0.0
O230 O 0.68182 0.03985 0.65443 0.0
O231 O 0.69399 0.00412 0.65165 0.0
O232 O 0.71348 0.00678 0.64503 0.0
O233 O 0.70302 0.04309 0.62834 0.0
O234 O 0.71244 0.0311 0.62487 0.0
C235 C 0.70186 0.99973 0.65088 0.0
C236 C 0.7125 0.04189 0.62154 0.0
O237 O 0.67803 0.01949 0.6592 0.0
Mg238 Mg 0.96364 0.67518 0.6981 0.0
O239 O 0.94976 0.66836 0.67062 0.0
O240 O 0.93067 0.65196 0.68021 0.0
Mg241 Mg 0.93225 0.64833 0.71319 0.0
C242 C 0.93793 0.65962 0.66687 0.0
C243 C 0.99149 0.69501 0.68835 0.0
O244 O 0.99122 0.69607 0.70786 0.0
O245 O 0.96562 0.65699 0.69492 0.0
O246 O 0.94657 0.64117 0.70563 0.0
O247 O 0.95734 0.68941 0.70731 0.0
O248 O 0.94806 0.66884 0.71693 0.0
C249 C 0.95791 0.64502 0.6991 0.0
C250 C 0.94825 0.6799 0.717 0.0
O251 O 0.98114 0.68682 0.67887 0.0
H252 H 0.24625 0.36406 0.13519 0.0
N253 N 0.22715 0.34714 0.11081 0.0
H254 H 0.25288 0.35967 0.16759 0.0
H255 H 0.2152 0.3238 0.13011 0.0
H256 H 0.2214 0.31942 0.16261 0.0
H257 H 0.22144 0.32283 0.09681 0.0
H258 H 0.23378 0.31832 0.07208 0.0
H259 H 0.24515 0.36437 0.08749 0.0
H260 H 0.25739 0.35999 0.06253 0.0
H261 H 0.22521 0.3685 0.1076 0.0
H262 H 0.20242 0.32624 0.10699 0.0
H263 H 0.20542 0.36986 0.10625 0.0
H264 H 0.18252 0.3274 0.10747 0.0
H265 H 0.14412 0.36579 0.15123 0.0
H266 H 0.13376 0.3577 0.18315 0.0
H267 H 0.12625 0.31874 0.16664 0.0
H268 H 0.13681 0.32703 0.13475 0.0
H269 H 0.12607 0.32922 0.1059 0.0
H270 H 0.10878 0.32754 0.08375 0.0
H271 H 0.1287 0.36989 0.08055 0.0
H272 H 0.14598 0.37146 0.10278 0.0
H273 H 0.17047 0.36889 0.13371 0.0
H274 H 0.18991 0.3675 0.12857 0.0
H275 H 0.16741 0.33202 0.09234 0.0
N276 N 0.1465 0.35205 0.12159 0.0
H277 H 0.14783 0.33315 0.09873 0.0
C278 C 0.23022 0.34434 0.1303 0.0
C279 C 0.24077 0.35433 0.14123 0.0
C280 C 0.24449 0.3518 0.15975 0.0
C281 C 0.23767 0.33918 0.16773 0.0
C282 C 0.22697 0.3292 0.1568 0.0
C283 C 0.22332 0.33174 0.13824 0.0
C284 C 0.23254 0.34398 0.09407 0.0
C285 C 0.22914 0.33095 0.08918 0.0
C286 C 0.2362 0.3284 0.07509 0.0
C287 C 0.24659 0.33882 0.06548 0.0
C288 C 0.24937 0.35176 0.06954 0.0
C289 C 0.24243 0.35429 0.08378 0.0
C290 C 0.21527 0.34734 0.10798 0.0
C291 C 0.21588 0.35952 0.10725 0.0
C292 C 0.20454 0.36024 0.1067 0.0
C293 C 0.19229 0.34876 0.10735 0.0
C294 C 0.19172 0.33647 0.10699 0.0
C295 C 0.20313 0.33577 0.10706 0.0
C296 C 0.1411 0.34702 0.14065 0.0
C297 C 0.14037 0.35555 0.15465 0.0
C298 C 0.13454 0.35092 0.17288 0.0
C299 C 0.12923 0.33759 0.17739 0.0
C300 C 0.1302 0.32905 0.16349 0.0
C301 C 0.13619 0.33375 0.14528 0.0
C302 C 0.13732 0.35053 0.10605 0.0
C303 C 0.12685 0.33813 0.10019 0.0
C304 C 0.11691 0.33719 0.08762 0.0
C305 C 0.11731 0.34859 0.08057 0.0
C306 C 0.12815 0.36092 0.08561 0.0
C307 C 0.13802 0.36185 0.09828 0.0
C308 C 0.15778 0.35127 0.11648 0.0
C309 C 0.1698 0.3609 0.12451 0.0
C310 C 0.18093 0.36011 0.12137 0.0
C311 C 0.18035 0.34971 0.1098 0.0
C312 C 0.16825 0.34011 0.10147 0.0
C313 C 0.15703 0.34081 0.10493 0.0
H314 H 0.72002 0.80942 0.14077 0.0
N315 N 0.70415 0.81618 0.12319 0.0
H316 H 0.71694 0.79805 0.17219 0.0
H317 H 0.68483 0.8106 0.14956 0.0
H318 H 0.68173 0.79937 0.18115 0.0
H319 H 0.67855 0.79711 0.11875 0.0
H320 H 0.66963 0.77819 0.09577 0.0
H321 H 0.71619 0.81216 0.09312 0.0
H322 H 0.70723 0.7932 0.06967 0.0
H323 H 0.72036 0.83975 0.13909 0.0
H324 H 0.68433 0.81863 0.10492 0.0
H325 H 0.71814 0.85927 0.13975 0.0
H326 H 0.6825 0.8382 0.10445 0.0
H327 H 0.71024 0.92069 0.14291 0.0
H328 H 0.70795 0.92901 0.17546 0.0
H329 H 0.67527 0.89078 0.1872 0.0
H330 H 0.67766 0.88257 0.15493 0.0
H331 H 0.66926 0.88739 0.12411 0.0
H332 H 0.65795 0.89362 0.09994 0.0
H333 H 0.69396 0.91735 0.07001 0.0
H334 H 0.70528 0.91118 0.09462 0.0
H335 H 0.71712 0.89584 0.12374 0.0
H336 H 0.7194 0.87634 0.12114 0.0
H337 H 0.67771 0.85168 0.12394 0.0
N338 N 0.69548 0.89685 0.12664 0.0
H339 H 0.67556 0.87119 0.12505 0.0
C340 C 0.7027 0.81083 0.14283 0.0
C341 C 0.71176 0.80742 0.14971 0.0
C342 C 0.71 0.80098 0.16769 0.0
C343 C 0.69907 0.79778 0.17916 0.0
C344 C 0.69017 0.80157 0.17254 0.0
C345 C 0.69196 0.80804 0.15454 0.0
C346 C 0.6981 0.8061 0.10766 0.0
C347 C 0.68485 0.7965 0.10788 0.0
C348 C 0.67972 0.7857 0.09459 0.0
C349 C 0.68773 0.78416 0.08092 0.0
C350 C 0.70085 0.79405 0.08014 0.0
C351 C 0.70595 0.80491 0.09339 0.0
C352 C 0.7026 0.82762 0.12208 0.0
C353 C 0.71206 0.83936 0.1315 0.0
C354 C 0.71082 0.85057 0.1317 0.0
C355 C 0.70014 0.8504 0.1221 0.0
C356 C 0.69074 0.83868 0.11234 0.0
C357 C 0.69186 0.82739 0.11247 0.0
C358 C 0.69426 0.90102 0.14646 0.0
C359 C 0.70267 0.9141 0.15263 0.0
C360 C 0.70128 0.91885 0.17112 0.0
C361 C 0.6914 0.91055 0.18388 0.0
C362 C 0.68306 0.89737 0.17781 0.0
C363 C 0.68443 0.89266 0.15926 0.0
C364 C 0.68818 0.89891 0.1112 0.0
C365 C 0.6747 0.89372 0.11216 0.0
C366 C 0.66821 0.89725 0.09823 0.0
C367 C 0.67507 0.90605 0.0831 0.0
C368 C 0.68843 0.91069 0.08163 0.0
C369 C 0.6949 0.90714 0.09557 0.0
C370 C 0.69625 0.88503 0.12486 0.0
C371 C 0.7085 0.88619 0.12366 0.0
C372 C 0.70977 0.87501 0.12236 0.0
C373 C 0.69875 0.86234 0.12255 0.0
C374 C 0.68642 0.86122 0.12351 0.0
C375 C 0.68517 0.87243 0.12443 0.0
H376 H 0.13743 0.78323 0.12694 0.0
N377 N 0.13654 0.80323 0.11063 0.0
H378 H 0.12765 0.77235 0.15803 0.0
H379 H 0.12413 0.81081 0.13741 0.0
H380 H 0.11459 0.80022 0.16846 0.0
H381 H 0.11196 0.79958 0.10639 0.0
H382 H 0.0956 0.78505 0.08181 0.0
H383 H 0.14072 0.79375 0.07715 0.0
H384 H 0.12462 0.77991 0.05144 0.0
H385 H 0.16209 0.8145 0.11292 0.0
H386 H 0.13109 0.82325 0.10806 0.0
H387 H 0.17791 0.83793 0.11633 0.0
H388 H 0.14671 0.8467 0.11281 0.0
H389 H 0.22227 0.89834 0.14605 0.0
H390 H 0.23263 0.90671 0.17864 0.0
H391 H 0.20359 0.91717 0.19281 0.0
H392 H 0.19338 0.90901 0.15962 0.0
H393 H 0.20957 0.92239 0.11453 0.0
H394 H 0.22679 0.93316 0.09036 0.0
H395 H 0.23098 0.8987 0.08748 0.0
H396 H 0.21379 0.88802 0.11138 0.0
H397 H 0.20088 0.87747 0.14695 0.0
H398 H 0.18486 0.85464 0.14072 0.0
H399 H 0.16399 0.86604 0.09985 0.0
N400 N 0.2011 0.89901 0.13049 0.0
H401 H 0.17986 0.88919 0.10716 0.0
C402 C 0.13156 0.79781 0.1298 0.0
C403 C 0.13257 0.78704 0.1361 0.0
C404 C 0.12703 0.7809 0.15387 0.0
C405 C 0.12032 0.78542 0.16567 0.0
C406 C 0.11957 0.79642 0.15958 0.0
C407 C 0.12513 0.80256 0.14183 0.0
C408 C 0.12751 0.79741 0.09393 0.0
C409 C 0.11486 0.79546 0.09435 0.0
C410 C 0.10549 0.7872 0.08006 0.0
C411 C 0.10866 0.78098 0.06481 0.0
C412 C 0.12169 0.78414 0.06331 0.0
C413 C 0.13096 0.79217 0.07784 0.0
C414 C 0.14547 0.81715 0.11052 0.0
C415 C 0.15874 0.82154 0.11258 0.0
C416 C 0.16772 0.83493 0.11478 0.0
C417 C 0.1636 0.84425 0.11532 0.0
C418 C 0.15027 0.83984 0.11242 0.0
C419 C 0.14129 0.82641 0.10988 0.0
C420 C 0.20701 0.90312 0.15026 0.0
C421 C 0.21807 0.90241 0.15607 0.0
C422 C 0.22395 0.90711 0.17487 0.0
C423 C 0.21895 0.91261 0.18837 0.0
C424 C 0.20778 0.91312 0.18268 0.0
C425 C 0.20188 0.9084 0.16381 0.0
C426 C 0.21032 0.90442 0.11473 0.0
C427 C 0.21409 0.91712 0.10841 0.0
C428 C 0.22397 0.92327 0.09475 0.0
C429 C 0.23027 0.91679 0.08709 0.0
C430 C 0.22621 0.90389 0.09292 0.0
C431 C 0.21637 0.89777 0.10665 0.0
C432 C 0.19153 0.88522 0.12771 0.0
C433 C 0.19283 0.87522 0.13687 0.0
C434 C 0.18367 0.86202 0.13303 0.0
C435 C 0.17314 0.85841 0.1196 0.0
C436 C 0.17186 0.86841 0.11046 0.0
C437 C 0.18094 0.88165 0.11455 0.0
H438 H 0.3275 0.20769 0.87846 0.0
N439 N 0.30698 0.18541 0.89298 0.0
H440 H 0.32756 0.21879 0.84813 0.0
H441 H 0.28771 0.17784 0.86595 0.0
H442 H 0.28771 0.189 0.83525 0.0
H443 H 0.29391 0.19502 0.91177 0.0
H444 H 0.30237 0.21314 0.93641 0.0
H445 H 0.33094 0.19664 0.91255 0.0
H446 H 0.33917 0.21413 0.93779 0.0
H447 H 0.32898 0.1881 0.87549 0.0
H448 H 0.2954 0.16161 0.90848 0.0
H449 H 0.3363 0.17224 0.87521 0.0
H450 H 0.30273 0.14543 0.90808 0.0
H451 H 0.36193 0.12478 0.8726 0.0
H452 H 0.36049 0.11155 0.84302 0.0
H453 H 0.31862 0.09228 0.84388 0.0
H454 H 0.32022 0.10584 0.87303 0.0
H455 H 0.32058 0.10353 0.90803 0.0
H456 H 0.31983 0.08916 0.93456 0.0
H457 H 0.36149 0.11286 0.94289 0.0
H458 H 0.36203 0.1273 0.91666 0.0
H459 H 0.34044 0.13708 0.86172 0.0
H460 H 0.33074 0.15096 0.86082 0.0
H461 H 0.32066 0.14303 0.92259 0.0
N462 N 0.34255 0.12396 0.89288 0.0
H463 H 0.3301 0.12897 0.9236 0.0
C464 C 0.30755 0.19184 0.8745 0.0
C465 C 0.3188 0.20342 0.86908 0.0
C466 C 0.31885 0.20975 0.85163 0.0
C467 C 0.30766 0.20474 0.83925 0.0
C468 C 0.29646 0.19312 0.84456 0.0
C469 C 0.29645 0.18672 0.86199 0.0
C470 C 0.31167 0.1944 0.91013 0.0
C471 C 0.30372 0.199 0.9177 0.0
C472 C 0.30858 0.20933 0.93188 0.0
C473 C 0.32153 0.21523 0.93897 0.0
C474 C 0.32924 0.21003 0.93234 0.0
C475 C 0.32445 0.19984 0.91796 0.0
C476 C 0.31146 0.17602 0.89187 0.0
C477 C 0.32301 0.1788 0.88242 0.0
C478 C 0.32723 0.16966 0.88224 0.0
C479 C 0.32005 0.15752 0.89148 0.0
C480 C 0.30851 0.15473 0.90092 0.0
C481 C 0.30428 0.1639 0.90107 0.0
C482 C 0.34124 0.11631 0.87498 0.0
C483 C 0.35247 0.11775 0.86627 0.0
C484 C 0.35161 0.1101 0.84951 0.0
C485 C 0.33943 0.1008 0.84113 0.0
C486 C 0.32815 0.09943 0.84983 0.0
C487 C 0.32904 0.1071 0.8666 0.0
C488 C 0.34143 0.11648 0.91036 0.0
C489 C 0.32951 0.10572 0.91579 0.0
C490 C 0.32911 0.0975 0.93094 0.0
C491 C 0.34061 0.09978 0.94078 0.0
C492 C 0.35241 0.1109 0.93588 0.0
C493 C 0.35278 0.11914 0.92083 0.0
C494 C 0.33555 0.13118 0.89234 0.0
C495 C 0.33581 0.13792 0.87498 0.0
C496 C 0.3304 0.14605 0.87453 0.0
C497 C 0.32484 0.14802 0.89159 0.0
C498 C 0.32459 0.14146 0.90904 0.0
C499 C 0.33001 0.13329 0.90952 0.0
H500 H 0.763 0.12147 0.86346 0.0
N501 N 0.78121 0.12359 0.88899 0.0
H502 H 0.75596 0.10895 0.83183 0.0
H503 H 0.79275 0.11107 0.87081 0.0
H504 H 0.78616 0.09898 0.83888 0.0
H505 H 0.77692 0.09921 0.89896 0.0
H506 H 0.76155 0.08471 0.92312 0.0
H507 H 0.76715 0.12903 0.91358 0.0
H508 H 0.75151 0.11444 0.93766 0.0
H509 H 0.79502 0.1489 0.88105 0.0
H510 H 0.79803 0.11759 0.9086 0.0
H511 H 0.81796 0.1641 0.889 0.0
H512 H 0.82074 0.13276 0.91735 0.0
H513 H 0.86756 0.19506 0.88483 0.0
H514 H 0.87905 0.2042 0.85434 0.0
H515 H 0.90833 0.19467 0.8726 0.0
H516 H 0.89699 0.18611 0.90375 0.0
H517 H 0.88741 0.18727 0.95098 0.0
H518 H 0.89851 0.20631 0.97422 0.0
H519 H 0.88689 0.22825 0.93638 0.0
H520 H 0.8759 0.20944 0.91363 0.0
H521 H 0.85565 0.19115 0.92107 0.0
H522 H 0.83274 0.17562 0.91606 0.0
H523 H 0.84143 0.14478 0.90261 0.0
N524 N 0.87582 0.18604 0.91604 0.0
H525 H 0.86452 0.16039 0.90846 0.0
C526 C 0.77841 0.11731 0.86944 0.0
C527 C 0.76817 0.1167 0.85799 0.0
C528 C 0.76421 0.10958 0.83989 0.0
C529 C 0.77048 0.10292 0.83277 0.0
C530 C 0.78099 0.10382 0.84404 0.0
C531 C 0.78488 0.11088 0.86224 0.0
C532 C 0.77314 0.11524 0.90442 0.0
C533 C 0.77155 0.1027 0.90749 0.0
C534 C 0.76269 0.09437 0.92124 0.0
C535 C 0.75523 0.09838 0.93218 0.0
C536 C 0.75719 0.1111 0.9296 0.0
C537 C 0.76606 0.11943 0.91583 0.0
C538 C 0.79474 0.13217 0.89431 0.0
C539 C 0.80062 0.14536 0.88899 0.0
C540 C 0.8137 0.15403 0.89371 0.0
C541 C 0.82121 0.1497 0.90399 0.0
C542 C 0.8153 0.13643 0.90928 0.0
C543 C 0.80222 0.12773 0.90442 0.0
C544 C 0.88152 0.19001 0.89673 0.0
C545 C 0.87639 0.19484 0.88227 0.0
C546 C 0.88295 0.19998 0.86466 0.0
C547 C 0.89469 0.20026 0.86097 0.0
C548 C 0.89946 0.19485 0.87508 0.0
C549 C 0.89295 0.18985 0.8928 0.0
C550 C 0.88074 0.19679 0.9306 0.0
C551 C 0.88706 0.19612 0.94798 0.0
C552 C 0.89346 0.20702 0.96114 0.0
C553 C 0.89357 0.21879 0.95715 0.0
C554 C 0.88683 0.21928 0.94009 0.0
C555 C 0.88055 0.20847 0.92694 0.0
C556 C 0.86198 0.17696 0.91525 0.0
C557 C 0.85277 0.18107 0.91738 0.0
C558 C 0.83955 0.17214 0.91428 0.0
C559 C 0.8352 0.15895 0.90874 0.0
C560 C 0.84438 0.15481 0.9071 0.0
C561 C 0.85759 0.16372 0.91038 0.0
H562 H 0.8048 0.7163 0.88347 0.0
N563 N 0.799 0.69808 0.9106 0.0
H564 H 0.79608 0.71313 0.84919 0.0
H565 H 0.783 0.67441 0.89139 0.0
H566 H 0.77447 0.67113 0.85719 0.0
H567 H 0.78771 0.67396 0.92804 0.0
H568 H 0.76818 0.66452 0.94794 0.0
H569 H 0.7869 0.71015 0.92449 0.0
H570 H 0.76743 0.70083 0.94454 0.0
H571 H 0.82004 0.71647 0.92996 0.0
H572 H 0.80388 0.67805 0.90175 0.0
H573 H 0.84068 0.71703 0.93562 0.0
H574 H 0.8245 0.67869 0.90662 0.0
H575 H 0.90481 0.71708 0.89527 0.0
H576 H 0.90997 0.71272 0.86181 0.0
H577 H 0.87292 0.67671 0.85747 0.0
H578 H 0.86802 0.68099 0.89098 0.0
H579 H 0.87866 0.67615 0.91913 0.0
H580 H 0.89091 0.66873 0.93905 0.0
H581 H 0.91367 0.70777 0.96557 0.0
H582 H 0.90153 0.71522 0.945 0.0
H583 H 0.87891 0.72097 0.91292 0.0
H584 H 0.85782 0.71963 0.91463 0.0
H585 H 0.84027 0.67868 0.92968 0.0
N586 N 0.8841 0.70169 0.91616 0.0
H587 H 0.86136 0.68007 0.92741 0.0
C588 C 0.79457 0.69567 0.89 0.0
C589 C 0.79829 0.70642 0.87768 0.0
C590 C 0.79333 0.70457 0.85812 0.0
C591 C 0.78452 0.69187 0.8505 0.0
C592 C 0.78108 0.68105 0.86271 0.0
C593 C 0.78605 0.68292 0.88226 0.0
C594 C 0.78877 0.69282 0.9248 0.0
C595 C 0.78351 0.67998 0.93189 0.0
C596 C 0.77234 0.67459 0.94328 0.0
C597 C 0.76621 0.6819 0.94761 0.0
C598 C 0.77183 0.6949 0.94118 0.0
C599 C 0.78299 0.70028 0.92991 0.0
C600 C 0.81049 0.69736 0.91524 0.0
C601 C 0.82094 0.70813 0.92512 0.0
C602 C 0.83273 0.70845 0.92821 0.0
C603 C 0.83432 0.69797 0.92136 0.0
C604 C 0.82361 0.68689 0.91224 0.0
C605 C 0.8118 0.68656 0.90926 0.0
C606 C 0.88609 0.69943 0.89565 0.0
C607 C 0.89776 0.70836 0.88693 0.0
C608 C 0.90064 0.70587 0.86779 0.0
C609 C 0.89186 0.69434 0.85699 0.0
C610 C 0.87995 0.6856 0.8655 0.0
C611 C 0.8771 0.68809 0.88465 0.0
C612 C 0.88924 0.69633 0.9305 0.0
C613 C 0.88607 0.68307 0.92952 0.0
C614 C 0.89309 0.67881 0.94101 0.0
C615 C 0.9034 0.68769 0.95374 0.0
C616 C 0.90596 0.70073 0.95563 0.0
C617 C 0.89896 0.70498 0.94408 0.0
C618 C 0.87177 0.70071 0.92005 0.0
C619 C 0.87053 0.71178 0.91693 0.0
C620 C 0.85846 0.71099 0.918 0.0
C621 C 0.84731 0.69903 0.92228 0.0
C622 C 0.84863 0.688 0.92612 0.0
C623 C 0.86074 0.68882 0.92499 0.0
H624 H 0.76288 0.62021 0.46195 0.0
N625 N 0.78358 0.63593 0.4413 0.0
H626 H 0.75837 0.62338 0.49644 0.0
H627 H 0.80017 0.65561 0.46734 0.0
H628 H 0.79589 0.65878 0.50197 0.0
H629 H 0.79088 0.66204 0.43963 0.0
H630 H 0.77928 0.6711 0.42165 0.0
H631 H 0.76464 0.62359 0.41404 0.0
H632 H 0.75276 0.6325 0.39627 0.0
H633 H 0.78953 0.61768 0.44969 0.0
H634 H 0.80536 0.65587 0.42379 0.0
H635 H 0.81036 0.6188 0.44714 0.0
H636 H 0.82601 0.6567 0.41975 0.0
H637 H 0.8738 0.62289 0.46067 0.0
H638 H 0.88185 0.62466 0.49516 0.0
H639 H 0.88097 0.6607 0.50401 0.0
H640 H 0.87303 0.65891 0.46982 0.0
H641 H 0.88822 0.66555 0.44176 0.0
H642 H 0.90826 0.67425 0.42338 0.0
H643 H 0.89335 0.63659 0.39259 0.0
H644 H 0.87361 0.62785 0.41187 0.0
H645 H 0.84622 0.61881 0.43275 0.0
H646 H 0.82537 0.61774 0.42794 0.0
H647 H 0.84437 0.66001 0.43685 0.0
N648 N 0.86896 0.63975 0.44183 0.0
H649 H 0.86527 0.66096 0.43946 0.0
C650 C 0.78178 0.63764 0.46212 0.0
C651 C 0.77015 0.62856 0.47074 0.0
C652 C 0.76765 0.63036 0.49046 0.0
C653 C 0.77678 0.64134 0.50197 0.0
C654 C 0.7886 0.6503 0.49343 0.0
C655 C 0.79108 0.64848 0.47367 0.0
C656 C 0.77864 0.64208 0.42809 0.0
C657 C 0.78278 0.65558 0.42981 0.0
C658 C 0.77604 0.66073 0.41967 0.0
C659 C 0.76498 0.6525 0.4077 0.0
C660 C 0.7613 0.63915 0.40519 0.0
C661 C 0.76807 0.63403 0.41531 0.0
C662 C 0.79574 0.63659 0.43697 0.0
C663 C 0.79744 0.62617 0.44295 0.0
C664 C 0.80939 0.62681 0.44129 0.0
C665 C 0.82001 0.63784 0.43311 0.0
C666 C 0.81819 0.64814 0.42645 0.0
C667 C 0.80624 0.64761 0.42857 0.0
C668 C 0.87265 0.64062 0.46264 0.0
C669 C 0.87521 0.63107 0.47018 0.0
C670 C 0.87988 0.63215 0.48979 0.0
C671 C 0.88204 0.64283 0.50227 0.0
C672 C 0.87924 0.65228 0.49482 0.0
C673 C 0.87467 0.65124 0.47518 0.0
C674 C 0.87952 0.64596 0.42836 0.0
C675 C 0.88918 0.65924 0.43084 0.0
C676 C 0.90064 0.66422 0.42021 0.0
C677 C 0.90256 0.65605 0.40678 0.0
C678 C 0.89237 0.64307 0.40322 0.0
C679 C 0.88102 0.63808 0.41401 0.0
C680 C 0.85719 0.63986 0.43708 0.0
C681 C 0.84584 0.62783 0.4333 0.0
C682 C 0.83391 0.62726 0.43082 0.0
C683 C 0.83299 0.63874 0.43264 0.0
C684 C 0.84457 0.65092 0.43535 0.0
C685 C 0.85657 0.65149 0.43722 0.0
H686 H 0.37773 0.14249 0.47449 0.0
N687 N 0.36193 0.15003 0.45895 0.0
H688 H 0.37511 0.1307 0.50538 0.0
H689 H 0.34362 0.14499 0.48691 0.0
H690 H 0.34094 0.13327 0.51795 0.0
H691 H 0.33586 0.13233 0.45568 0.0
H692 H 0.32551 0.11302 0.43345 0.0
H693 H 0.37251 0.14484 0.42801 0.0
H694 H 0.36212 0.12555 0.40525 0.0
H695 H 0.37922 0.17295 0.47559 0.0
H696 H 0.34297 0.15429 0.4417 0.0
H697 H 0.37877 0.19344 0.47678 0.0
H698 H 0.34289 0.17485 0.44175 0.0
H699 H 0.37901 0.25811 0.47817 0.0
H700 H 0.37771 0.26791 0.51002 0.0
H701 H 0.34055 0.23349 0.51997 0.0
H702 H 0.34191 0.22382 0.48833 0.0
H703 H 0.33613 0.22915 0.4571 0.0
H704 H 0.32713 0.23649 0.43087 0.0
H705 H 0.36396 0.25441 0.40153 0.0
H706 H 0.37309 0.24754 0.42862 0.0
H707 H 0.38172 0.23171 0.45941 0.0
H708 H 0.38173 0.21095 0.45775 0.0
H709 H 0.33985 0.18979 0.46092 0.0
N710 N 0.3615 0.23526 0.46145 0.0
H711 H 0.33999 0.2106 0.46105 0.0
C712 C 0.36089 0.14456 0.4784 0.0
C713 C 0.36982 0.14069 0.48412 0.0
C714 C 0.36832 0.13401 0.50179 0.0
C715 C 0.35779 0.13102 0.51409 0.0
C716 C 0.34906 0.1353 0.50867 0.0
C717 C 0.35061 0.14204 0.49099 0.0
C718 C 0.35503 0.14005 0.44353 0.0
C719 C 0.34163 0.1311 0.44447 0.0
C720 C 0.33569 0.12007 0.43162 0.0
C721 C 0.34301 0.11769 0.41765 0.0
C722 C 0.35625 0.12703 0.416 0.0
C723 C 0.36217 0.1381 0.42884 0.0
C724 C 0.3612 0.16197 0.45867 0.0
C725 C 0.37122 0.17329 0.46825 0.0
C726 C 0.371 0.18506 0.46874 0.0
C727 C 0.36083 0.18591 0.45924 0.0
C728 C 0.35078 0.17456 0.44952 0.0
C729 C 0.35089 0.1627 0.44936 0.0
C730 C 0.36063 0.24027 0.4808 0.0
C731 C 0.37065 0.25267 0.48734 0.0
C732 C 0.36989 0.25822 0.50551 0.0
C733 C 0.359 0.25148 0.51745 0.0
C734 C 0.34899 0.23899 0.51097 0.0
C735 C 0.3498 0.2334 0.49286 0.0
C736 C 0.35541 0.23804 0.445 0.0
C737 C 0.34228 0.23459 0.44503 0.0
C738 C 0.33708 0.2387 0.42981 0.0
C739 C 0.34484 0.24617 0.4141 0.0
C740 C 0.35777 0.24893 0.41358 0.0
C741 C 0.36299 0.24495 0.42895 0.0
C742 C 0.36094 0.22273 0.46069 0.0
C743 C 0.37257 0.22256 0.4597 0.0
C744 C 0.37253 0.21065 0.45893 0.0
C745 C 0.36079 0.19859 0.45946 0.0
C746 C 0.34908 0.19882 0.4603 0.0
C747 C 0.34914 0.21076 0.4607 0.0
H748 H 0.80603 0.11296 0.47206 0.0
N749 N 0.80902 0.13286 0.45021 0.0
H750 H 0.79337 0.10474 0.50221 0.0
H751 H 0.79647 0.14377 0.46952 0.0
H752 H 0.78368 0.13558 0.49965 0.0
H753 H 0.78915 0.13618 0.43596 0.0
H754 H 0.77249 0.1219 0.41132 0.0
H755 H 0.80977 0.11527 0.42586 0.0
H756 H 0.793 0.10069 0.40152 0.0
H757 H 0.82981 0.14418 0.47427 0.0
H758 H 0.81123 0.15266 0.42551 0.0
H759 H 0.84668 0.16713 0.47654 0.0
H760 H 0.82854 0.17543 0.42679 0.0
H761 H 0.89982 0.22713 0.47659 0.0
H762 H 0.90959 0.23495 0.50974 0.0
H763 H 0.87987 0.24451 0.52349 0.0
H764 H 0.87031 0.23695 0.48987 0.0
H765 H 0.88546 0.25098 0.44568 0.0
H766 H 0.90293 0.26352 0.42259 0.0
H767 H 0.91048 0.23122 0.41829 0.0
H768 H 0.89305 0.21879 0.44081 0.0
H769 H 0.88143 0.2062 0.46714 0.0
H770 H 0.86486 0.18335 0.46216 0.0
H771 H 0.83718 0.19528 0.4448 0.0
N772 N 0.87872 0.22776 0.46075 0.0
H773 H 0.8543 0.21831 0.4483 0.0
C774 C 0.80211 0.12886 0.46856 0.0
C775 C 0.80127 0.11799 0.47817 0.0
C776 C 0.7941 0.11338 0.49539 0.0
C777 C 0.78755 0.11954 0.50328 0.0
C778 C 0.78854 0.13058 0.49379 0.0
C779 C 0.79582 0.13526 0.47661 0.0
C780 C 0.80074 0.12676 0.43277 0.0
C781 C 0.79026 0.12871 0.42811 0.0
C782 C 0.78067 0.12045 0.41409 0.0
C783 C 0.78129 0.11001 0.40461 0.0
C784 C 0.79225 0.10869 0.40832 0.0
C785 C 0.80185 0.117 0.42226 0.0
C786 C 0.81909 0.14654 0.44997 0.0
C787 C 0.82944 0.15097 0.4639 0.0
C788 C 0.83919 0.16412 0.46501 0.0
C789 C 0.83909 0.17325 0.45178 0.0
C790 C 0.82885 0.16878 0.43749 0.0
C791 C 0.8189 0.15561 0.43667 0.0
C792 C 0.88432 0.23154 0.48067 0.0
C793 C 0.89534 0.23083 0.48669 0.0
C794 C 0.9009 0.23525 0.50578 0.0
C795 C 0.89555 0.24041 0.51928 0.0
C796 C 0.88436 0.2408 0.51336 0.0
C797 C 0.87883 0.23641 0.49424 0.0
C798 C 0.88784 0.23395 0.44505 0.0
C799 C 0.89073 0.24654 0.43939 0.0
C800 C 0.90077 0.25371 0.42636 0.0
C801 C 0.90815 0.2484 0.41872 0.0
C802 C 0.90489 0.23555 0.42372 0.0
C803 C 0.89487 0.2284 0.43676 0.0
C804 C 0.86916 0.21404 0.45777 0.0
C805 C 0.8719 0.20397 0.46186 0.0
C806 C 0.86228 0.1908 0.45929 0.0
C807 C 0.84955 0.18734 0.4532 0.0
C808 C 0.84687 0.19748 0.44915 0.0
C809 C 0.85661 0.21067 0.4513 0.0
H810 H 0.02969 0.55969 0.2071 0.0
N811 N 0.01364 0.54142 0.23148 0.0
H812 H 0.02406 0.56861 0.17832 0.0
H813 H 0.98909 0.5332 0.21662 0.0
H814 H 0.98336 0.54188 0.18774 0.0
H815 H 0.99648 0.5482 0.2469 0.0
H816 H 0.00103 0.56389 0.27415 0.0
H817 H 0.03345 0.55073 0.25761 0.0
H818 H 0.03774 0.56572 0.2861 0.0
H819 H 0.02367 0.5278 0.21581 0.0
H820 H 0.99131 0.52357 0.24942 0.0
H821 H 0.01459 0.50395 0.21538 0.0
H822 H 0.98207 0.49964 0.24898 0.0
H823 H 0.00065 0.44933 0.21183 0.0
H824 H 0.00324 0.43843 0.18251 0.0
H825 H 0.96155 0.41432 0.17578 0.0
H826 H 0.95905 0.42547 0.20517 0.0
H827 H 0.9626 0.4226 0.24957 0.0
H828 H 0.96944 0.4123 0.27484 0.0
H829 H 0.00902 0.44407 0.27076 0.0
H830 H 0.00204 0.45446 0.2462 0.0
H831 H 0.98698 0.46128 0.19759 0.0
H832 H 0.99534 0.48469 0.1995 0.0
H833 H 0.9865 0.48239 0.26196 0.0
N834 N 0.97772 0.44384 0.22887 0.0
H835 H 0.97805 0.4587 0.26029 0.0
C836 C 0.00988 0.54581 0.21396 0.0
C837 C 0.01958 0.55571 0.2028 0.0
C838 C 0.01633 0.56072 0.18633 0.0
C839 C 0.00326 0.55593 0.18073 0.0
C840 C 0.99352 0.54586 0.19179 0.0
C841 C 0.99678 0.54082 0.20823 0.0
C842 C 0.01486 0.54862 0.2498 0.0
C843 C 0.00549 0.55193 0.25538 0.0
C844 C 0.00806 0.56083 0.27126 0.0
C845 C 0.01992 0.56638 0.2822 0.0
C846 C 0.02871 0.56205 0.27766 0.0
C847 C 0.02624 0.55336 0.26151 0.0
C848 C 0.00823 0.52743 0.23267 0.0
C849 C 0.01463 0.52168 0.22319 0.0
C850 C 0.00938 0.50808 0.22284 0.0
C851 C 0.99757 0.49992 0.23204 0.0
C852 C 0.99123 0.5057 0.24189 0.0
C853 C 0.99649 0.51936 0.24213 0.0
C854 C 0.97959 0.43821 0.21071 0.0
C855 C 0.99205 0.44169 0.20411 0.0
C856 C 0.99353 0.43541 0.18733 0.0
C857 C 0.98261 0.42544 0.17684 0.0
C858 C 0.97017 0.42207 0.18337 0.0
C859 C 0.9687 0.42839 0.20015 0.0
C860 C 0.98176 0.4392 0.24587 0.0
C861 C 0.97268 0.42746 0.25454 0.0
C862 C 0.97663 0.42156 0.26883 0.0
C863 C 0.9898 0.42729 0.27467 0.0
C864 C 0.99879 0.43944 0.26678 0.0
C865 C 0.99482 0.44535 0.25254 0.0
C866 C 0.98264 0.45799 0.22925 0.0
C867 C 0.98708 0.46561 0.21199 0.0
C868 C 0.99182 0.47914 0.21297 0.0
C869 C 0.99191 0.48544 0.23099 0.0
C870 C 0.98671 0.47783 0.2479 0.0
C871 C 0.98201 0.46428 0.24697 0.0
H872 H 0.57762 0.52605 0.22987 0.0
N873 N 0.55474 0.51785 0.24611 0.0
H874 H 0.58541 0.53789 0.19875 0.0
H875 H 0.54012 0.52227 0.21846 0.0
H876 H 0.54778 0.53384 0.18728 0.0
H877 H 0.54898 0.53761 0.25013 0.0
H878 H 0.55996 0.55668 0.27275 0.0
H879 H 0.5703 0.52079 0.27701 0.0
H880 H 0.58129 0.53988 0.30003 0.0
H881 H 0.54977 0.49339 0.24092 0.0
H882 H 0.53126 0.51609 0.25382 0.0
H883 H 0.52863 0.47321 0.24001 0.0
H884 H 0.51014 0.49599 0.25334 0.0
H885 H 0.47412 0.42 0.21169 0.0
H886 H 0.46514 0.41205 0.17791 0.0
H887 H 0.44442 0.43348 0.18135 0.0
H888 H 0.45326 0.44116 0.21512 0.0
H889 H 0.45842 0.44912 0.25065 0.0
H890 H 0.44001 0.44128 0.27274 0.0
H891 H 0.43893 0.40407 0.27677 0.0
H892 H 0.45726 0.41195 0.25444 0.0
H893 H 0.49019 0.43823 0.25577 0.0
H894 H 0.51093 0.4587 0.26074 0.0
H895 H 0.49529 0.47957 0.22875 0.0
N896 N 0.4691 0.43471 0.23631 0.0
H897 H 0.47458 0.45917 0.22431 0.0
C898 C 0.55831 0.52318 0.22649 0.0
C899 C 0.571 0.52753 0.22045 0.0
C900 C 0.57544 0.53432 0.20278 0.0
C901 C 0.56718 0.53677 0.19069 0.0
C902 C 0.55429 0.53195 0.19626 0.0
C903 C 0.54991 0.52532 0.21411 0.0
C904 C 0.55884 0.52773 0.26189 0.0
C905 C 0.55569 0.53779 0.26136 0.0
C906 C 0.56201 0.54873 0.27436 0.0
C907 C 0.57161 0.54988 0.28807 0.0
C908 C 0.57408 0.53938 0.28945 0.0
C909 C 0.56773 0.52843 0.27646 0.0
C910 C 0.54216 0.50623 0.2475 0.0
C911 C 0.54115 0.49397 0.24387 0.0
C912 C 0.52907 0.48247 0.24344 0.0
C913 C 0.51768 0.48298 0.24662 0.0
C914 C 0.51871 0.49527 0.25063 0.0
C915 C 0.53083 0.50679 0.25107 0.0
C916 C 0.46438 0.43112 0.21594 0.0
C917 C 0.46774 0.42306 0.20502 0.0
C918 C 0.46263 0.41858 0.18573 0.0
C919 C 0.45402 0.42209 0.17696 0.0
C920 C 0.45088 0.43044 0.18778 0.0
C921 C 0.45602 0.43493 0.20707 0.0
C922 C 0.45921 0.43106 0.25091 0.0
C923 C 0.45435 0.43935 0.25648 0.0
C924 C 0.44384 0.43487 0.26916 0.0
C925 C 0.43796 0.42202 0.27637 0.0
C926 C 0.44312 0.41394 0.27123 0.0
C927 C 0.45363 0.41844 0.25863 0.0
C928 C 0.48089 0.44712 0.23958 0.0
C929 C 0.49126 0.44727 0.24999 0.0
C930 C 0.50309 0.45894 0.2527 0.0
C931 C 0.5048 0.47076 0.24502 0.0
C932 C 0.49427 0.47067 0.23502 0.0
C933 C 0.48241 0.45896 0.23234 0.0
H934 H 0.53925 0.98935 0.22112 0.0
N935 N 0.53743 0.00733 0.24533 0.0
H936 H 0.54746 0.99276 0.18748 0.0
H937 H 0.5461 0.02904 0.22421 0.0
H938 H 0.55464 0.03262 0.19031 0.0
H939 H 0.56047 0.02261 0.26272 0.0
H940 H 0.57437 0.01581 0.27969 0.0
H941 H 0.52979 0.98211 0.25771 0.0
H942 H 0.54342 0.97534 0.275 0.0
H943 H 0.51835 0.9832 0.23031 0.0
H944 H 0.52497 0.01824 0.26237 0.0
H945 H 0.49521 0.97487 0.22989 0.0
H946 H 0.50161 0.0102 0.2611 0.0
H947 H 0.42166 0.9559 0.21314 0.0
H948 H 0.41311 0.95905 0.18156 0.0
H949 H 0.44414 0.99956 0.18202 0.0
H950 H 0.45238 0.99638 0.21379 0.0
H951 H 0.44493 0.99789 0.24624 0.0
H952 H 0.43148 0.00193 0.26922 0.0
H953 H 0.41011 0.96052 0.2818 0.0
H954 H 0.4236 0.95657 0.25866 0.0
H955 H 0.45729 0.97125 0.20932 0.0
H956 H 0.48032 0.97908 0.21302 0.0
H957 H 0.48061 0.99427 0.27227 0.0
N958 N 0.44168 0.97383 0.23525 0.0
H959 H 0.45774 0.98697 0.26836 0.0
C960 C 0.54195 0.00895 0.22517 0.0
C961 C 0.54234 0.99875 0.21448 0.0
C962 C 0.54703 0.00071 0.19519 0.0
C963 C 0.55158 0.01292 0.18624 0.0
C964 C 0.55118 0.02311 0.19688 0.0
C965 C 0.54632 0.02109 0.21615 0.0
C966 C 0.54408 0.003 0.25876 0.0
C967 C 0.5566 0.01231 0.26578 0.0
C968 C 0.56453 0.00838 0.27549 0.0
C969 C 0.56008 0.99499 0.27848 0.0
C970 C 0.54726 0.98571 0.27254 0.0
C971 C 0.53935 0.98964 0.26273 0.0
C972 C 0.52352 0.00139 0.24663 0.0
C973 C 0.51488 0.9891 0.23749 0.0
C974 C 0.50155 0.98438 0.237 0.0
C975 C 0.49649 0.99192 0.24521 0.0
C976 C 0.50511 0.00405 0.2548 0.0
C977 C 0.51847 0.00869 0.25551 0.0
C978 C 0.43763 0.97583 0.21579 0.0
C979 C 0.42665 0.96541 0.20627 0.0
C980 C 0.42183 0.96723 0.18821 0.0
C981 C 0.42793 0.97957 0.17925 0.0
C982 C 0.43909 0.98998 0.18865 0.0
C983 C 0.44387 0.98816 0.20677 0.0
C984 C 0.43518 0.97686 0.25068 0.0
C985 C 0.43742 0.98971 0.25403 0.0
C986 C 0.42971 0.99199 0.26715 0.0
C987 C 0.41968 0.98152 0.2772 0.0
C988 C 0.41783 0.9688 0.27442 0.0
C989 C 0.4255 0.96652 0.26122 0.0
C990 C 0.45559 0.97902 0.23796 0.0
C991 C 0.4623 0.97653 0.22299 0.0
C992 C 0.4755 0.98083 0.22527 0.0
C993 C 0.48239 0.98739 0.24293 0.0
C994 C 0.47569 0.98954 0.25826 0.0
C995 C 0.46247 0.98534 0.25591 0.0
H996 H 0.43283 0.95602 0.80247 0.0
N997 N 0.45444 0.97272 0.78454 0.0
H998 H 0.4261 0.95836 0.83585 0.0
H999 H 0.4695 0.99163 0.81307 0.0
H1000 H 0.46311 0.99375 0.84649 0.0
H1001 H 0.45978 0.99827 0.78483 0.0
H1002 H 0.44781 0.00654 0.76592 0.0
H1003 H 0.43841 0.96083 0.75354 0.0
H1004 H 0.42683 0.9692 0.73368 0.0
H1005 H 0.45739 0.95221 0.77732 0.0
H1006 H 0.47864 0.99449 0.78201 0.0
H1007 H 0.47758 0.95198 0.77339 0.0
H1008 H 0.49906 0.99443 0.78007 0.0
H1009 H 0.54576 0.95619 0.79665 0.0
H1010 H 0.5571 0.9598 0.82898 0.0
H1011 H 0.55419 0.99458 0.83967 0.0
H1012 H 0.54285 0.99089 0.80728 0.0
H1013 H 0.55721 0.99654 0.7767 0.0
H1014 H 0.575 0.00418 0.75362 0.0
H1015 H 0.5562 0.9658 0.7242 0.0
H1016 H 0.53872 0.95809 0.74812 0.0
H1017 H 0.5146 0.95353 0.79307 0.0
H1018 H 0.49461 0.95436 0.79278 0.0
H1019 H 0.51398 0.99139 0.76258 0.0
N1020 N 0.53752 0.97113 0.77998 0.0
H1021 H 0.53418 0.99092 0.76444 0.0
C1022 C 0.45164 0.97355 0.80519 0.0
C1023 C 0.43954 0.96415 0.81218 0.0
C1024 C 0.43575 0.96548 0.83129 0.0
C1025 C 0.44405 0.97629 0.84384 0.0
C1026 C 0.45641 0.98542 0.83711 0.0
C1027 C 0.46014 0.98413 0.81795 0.0
C1028 C 0.4498 0.97882 0.77077 0.0
C1029 C 0.45276 0.99194 0.77349 0.0
C1030 C 0.44592 0.99668 0.76255 0.0
C1031 C 0.43613 0.98845 0.74853 0.0
C1032 C 0.43401 0.9757 0.74476 0.0
C1033 C 0.44073 0.97093 0.75587 0.0
C1034 C 0.46653 0.97328 0.78045 0.0
C1035 C 0.46648 0.96145 0.77761 0.0
C1036 C 0.47808 0.96136 0.77565 0.0
C1037 C 0.4901 0.97317 0.77701 0.0
C1038 C 0.49007 0.98513 0.77893 0.0
C1039 C 0.47838 0.98519 0.78034 0.0
C1040 C 0.5434 0.97318 0.79966 0.0
C1041 C 0.5475 0.96452 0.80608 0.0
C1042 C 0.55404 0.96666 0.82443 0.0
C1043 C 0.55657 0.9775 0.83679 0.0
C1044 C 0.55227 0.98608 0.83052 0.0
C1045 C 0.5458 0.98399 0.81204 0.0
C1046 C 0.54673 0.97664 0.76428 0.0
C1047 C 0.55683 0.98983 0.76513 0.0
C1048 C 0.56698 0.99421 0.75179 0.0
C1049 C 0.56717 0.98555 0.73722 0.0
C1050 C 0.55654 0.97264 0.73554 0.0
C1051 C 0.54647 0.96825 0.74901 0.0
C1052 C 0.52587 0.97201 0.77863 0.0
C1053 C 0.5145 0.96181 0.78638 0.0
C1054 C 0.50302 0.96227 0.78597 0.0
C1055 C 0.5025 0.97285 0.77734 0.0
C1056 C 0.51395 0.98312 0.76952 0.0
C1057 C 0.52556 0.98279 0.77037 0.0
H1058 H 0.96297 0.53978 0.8224 0.0
N1059 N 0.97964 0.537 0.80001 0.0
H1060 H 0.96763 0.55318 0.85311 0.0
H1061 H 0.00329 0.55077 0.81969 0.0
H1062 H 0.00804 0.56418 0.85027 0.0
H1063 H 0.00036 0.55988 0.7875 0.0
H1064 H 2e-05 0.57352 0.76083 0.0
H1065 H 0.9602 0.53144 0.77452 0.0
H1066 H 0.95952 0.54536 0.74837 0.0
H1067 H 0.96712 0.51204 0.81016 0.0
H1068 H 0.0028 0.54137 0.78479 0.0
H1069 H 0.97437 0.49594 0.8073 0.0
H1070 H 0.00989 0.52531 0.78118 0.0
H1071 H 0.98952 0.46008 0.81775 0.0
H1072 H 0.9891 0.44933 0.84866 0.0
H1073 H 0.02971 0.46163 0.8427 0.0
H1074 H 0.02977 0.47171 0.81104 0.0
H1075 H 0.02429 0.4714 0.76241 0.0
H1076 H 0.0193 0.45327 0.73853 0.0
H1077 H 0.98139 0.43061 0.76356 0.0
H1078 H 0.98642 0.4484 0.78728 0.0
H1079 H 0.98519 0.46693 0.78274 0.0
H1080 H 0.97827 0.48313 0.78334 0.0
H1081 H 0.01719 0.51333 0.80087 0.0
N1082 N 0.00981 0.47138 0.79223 0.0
H1083 H 0.02421 0.497 0.79953 0.0
C1084 C 0.9827 0.54416 0.81885 0.0
C1085 C 0.97279 0.54498 0.82858 0.0
C1086 C 0.97549 0.55271 0.84598 0.0
C1087 C 0.98821 0.55976 0.85406 0.0
C1088 C 0.99812 0.55875 0.84451 0.0
C1089 C 0.99542 0.55108 0.82699 0.0
C1090 C 0.98026 0.54457 0.78294 0.0
C1091 C 0.99151 0.55644 0.77869 0.0
C1092 C 0.99126 0.56433 0.76352 0.0
C1093 C 0.97971 0.56063 0.75252 0.0
C1094 C 0.96864 0.54846 0.75629 0.0
C1095 C 0.96896 0.54052 0.77132 0.0
C1096 C 0.9843 0.52786 0.79761 0.0
C1097 C 0.97646 0.51495 0.8038 0.0
C1098 C 0.98059 0.50576 0.802 0.0
C1099 C 0.99269 0.5093 0.79388 0.0
C1100 C 0.00057 0.52228 0.78768 0.0
C1101 C 0.99645 0.53149 0.78959 0.0
C1102 C 0.00968 0.46655 0.81191 0.0
C1103 C 0.99835 0.46051 0.8231 0.0
C1104 C 0.99816 0.45446 0.84096 0.0
C1105 C 0.00934 0.45447 0.84816 0.0
C1106 C 0.02083 0.46114 0.83742 0.0
C1107 C 0.02095 0.46703 0.81943 0.0
C1108 C 0.00575 0.46143 0.77652 0.0
C1109 C 0.0148 0.46263 0.76237 0.0
C1110 C 0.01197 0.45226 0.74885 0.0
C1111 C -7e-05 0.44055 0.74914 0.0
C1112 C 0.99066 0.43959 0.76272 0.0
C1113 C 0.99356 0.44985 0.77637 0.0
C1114 C 0.00536 0.48074 0.79096 0.0
C1115 C 0.99235 0.477 0.78645 0.0
C1116 C 0.98833 0.48632 0.78699 0.0
C1117 C 0.99714 0.49954 0.79225 0.0
C1118 C 0.01017 0.50328 0.79647 0.0
C1119 C 0.01419 0.49397 0.7958 0.0
H1120 H 0.47554 0.45219 0.80874 0.0
N1121 N 0.47453 0.47097 0.78868 0.0
H1122 H 0.46473 0.44234 0.83977 0.0
H1123 H 0.4608 0.47903 0.81175 0.0
H1124 H 0.45026 0.4695 0.84284 0.0
H1125 H 0.44932 0.46478 0.78135 0.0
H1126 H 0.43448 0.44863 0.75672 0.0
H1127 H 0.48105 0.46169 0.75729 0.0
H1128 H 0.4665 0.44632 0.73132 0.0
H1129 H 0.50007 0.48299 0.79267 0.0
H1130 H 0.46847 0.49016 0.7814 0.0
H1131 H 0.51539 0.5066 0.79348 0.0
H1132 H 0.48357 0.5139 0.78351 0.0
H1133 H 0.55816 0.56965 0.81809 0.0
H1134 H 0.56629 0.57892 0.85127 0.0
H1135 H 0.53463 0.58665 0.85776 0.0
H1136 H 0.5267 0.57764 0.82387 0.0
H1137 H 0.54537 0.59007 0.7787 0.0
H1138 H 0.56362 0.60004 0.75612 0.0
H1139 H 0.56902 0.56651 0.76215 0.0
H1140 H 0.55103 0.55677 0.7849 0.0
H1141 H 0.53705 0.54779 0.81887 0.0
H1142 H 0.52155 0.52458 0.81515 0.0
H1143 H 0.50084 0.53262 0.76903 0.0
N1144 N 0.53687 0.56788 0.79832 0.0
H1145 H 0.51616 0.55621 0.77376 0.0
C1146 C 0.46904 0.46633 0.80791 0.0
C1147 C 0.47016 0.45609 0.8163 0.0
C1148 C 0.46403 0.45054 0.83405 0.0
C1149 C 0.45661 0.45513 0.84375 0.0
C1150 C 0.45579 0.46565 0.83561 0.0
C1151 C 0.46192 0.47119 0.81786 0.0
C1152 C 0.46625 0.46409 0.77157 0.0
C1153 C 0.45318 0.46089 0.77042 0.0
C1154 C 0.44468 0.45169 0.75607 0.0
C1155 C 0.44916 0.4458 0.74224 0.0
C1156 C 0.46256 0.45021 0.74215 0.0
C1157 C 0.47095 0.45914 0.75681 0.0
C1158 C 0.48319 0.48488 0.7873 0.0
C1159 C 0.49648 0.48973 0.7904 0.0
C1160 C 0.50518 0.50324 0.79109 0.0
C1161 C 0.50072 0.51224 0.78902 0.0
C1162 C 0.48738 0.50731 0.78513 0.0
C1163 C 0.4787 0.49373 0.7841 0.0
C1164 C 0.5418 0.57304 0.81829 0.0
C1165 C 0.55295 0.57339 0.82645 0.0
C1166 C 0.55754 0.57859 0.84564 0.0
C1167 C 0.5511 0.5835 0.85725 0.0
C1168 C 0.53991 0.58308 0.84914 0.0
C1169 C 0.53532 0.57788 0.82986 0.0
C1170 C 0.54677 0.5727 0.78347 0.0
C1171 C 0.5504 0.58482 0.7749 0.0
C1172 C 0.5608 0.59047 0.76198 0.0
C1173 C 0.56781 0.58409 0.75743 0.0
C1174 C 0.56393 0.57175 0.76558 0.0
C1175 C 0.55353 0.5661 0.77846 0.0
C1176 C 0.5277 0.5539 0.79676 0.0
C1177 C 0.52913 0.54471 0.80814 0.0
C1178 C 0.52029 0.53129 0.80576 0.0
C1179 C 0.50995 0.52663 0.79165 0.0
C1180 C 0.50856 0.53582 0.78022 0.0
C1181 C 0.51734 0.5493 0.78283 0.0
H1182 H 0.6648 0.87733 0.55547 0.0
N1183 N 0.64463 0.85419 0.56826 0.0
H1184 H 0.66548 0.88816 0.52446 0.0
H1185 H 0.62643 0.84566 0.53928 0.0
H1186 H 0.62701 0.85658 0.50805 0.0
H1187 H 0.62959 0.86289 0.58263 0.0
H1188 H 0.63566 0.88103 0.60653 0.0
H1189 H 0.66677 0.86566 0.59309 0.0
H1190 H 0.67259 0.88323 0.61744 0.0
H1191 H 0.66946 0.86031 0.55921 0.0
H1192 H 0.63207 0.82863 0.57553 0.0
H1193 H 0.67782 0.84533 0.55746 0.0
H1194 H 0.64019 0.81321 0.57271 0.0
H1195 H 0.7 0.7937 0.53742 0.0
H1196 H 0.69739 0.78073 0.50702 0.0
H1197 H 0.65593 0.76526 0.50755 0.0
H1198 H 0.65868 0.77808 0.53831 0.0
H1199 H 0.66137 0.77095 0.57174 0.0
H1200 H 0.66257 0.7572 0.59762 0.0
H1201 H 0.70303 0.78602 0.6088 0.0
H1202 H 0.70151 0.79992 0.58343 0.0
H1203 H 0.68645 0.81421 0.53621 0.0
H1204 H 0.67707 0.82845 0.53791 0.0
H1205 H 0.65388 0.80642 0.58728 0.0
N1206 N 0.68156 0.79395 0.55874 0.0
H1207 H 0.66263 0.79181 0.58475 0.0
C1208 C 0.64555 0.86058 0.54964 0.0
C1209 C 0.65659 0.87259 0.5451 0.0
C1210 C 0.65697 0.87878 0.52734 0.0
C1211 C 0.64631 0.87319 0.5138 0.0
C1212 C 0.63533 0.86115 0.51826 0.0
C1213 C 0.635 0.85488 0.53599 0.0
C1214 C 0.64767 0.8629 0.58558 0.0
C1215 C 0.63889 0.86711 0.59049 0.0
C1216 C 0.64238 0.87748 0.60426 0.0
C1217 C 0.65473 0.88379 0.61372 0.0
C1218 C 0.66313 0.87886 0.61003 0.0
C1219 C 0.65972 0.86863 0.59603 0.0
C1220 C 0.65009 0.84563 0.56775 0.0
C1221 C 0.66298 0.8501 0.56236 0.0
C1222 C 0.66775 0.84142 0.56114 0.0
C1223 C 0.65968 0.82797 0.56477 0.0
C1224 C 0.64677 0.82351 0.5701 0.0
C1225 C 0.64207 0.83228 0.57165 0.0
C1226 C 0.6796 0.7869 0.54001 0.0
C1227 C 0.69038 0.78759 0.53081 0.0
C1228 C 0.68885 0.78021 0.51342 0.0
C1229 C 0.67644 0.77196 0.50479 0.0
C1230 C 0.6656 0.77139 0.51393 0.0
C1231 C 0.66716 0.77877 0.53141 0.0
C1232 C 0.68139 0.7865 0.57573 0.0
C1233 C 0.67041 0.77442 0.58007 0.0
C1234 C 0.67115 0.76653 0.5948 0.0
C1235 C 0.68294 0.77041 0.60521 0.0
C1236 C 0.69374 0.78276 0.60135 0.0
C1237 C 0.69293 0.79072 0.58679 0.0
C1238 C 0.67535 0.80184 0.56017 0.0
C1239 C 0.67923 0.81236 0.54726 0.0
C1240 C 0.67394 0.82059 0.54842 0.0
C1241 C 0.66478 0.81871 0.5629 0.0
C1242 C 0.66077 0.8081 0.57576 0.0
C1243 C 0.66591 0.7997 0.57436 0.0
H1244 H 0.23433 0.86309 0.55963 0.0
N1245 N 0.21428 0.85901 0.5815 0.0
H1246 H 0.24102 0.87472 0.5282 0.0
H1247 H 0.2007 0.8679 0.55935 0.0
H1248 H 0.20708 0.8791 0.52788 0.0
H1249 H 0.21272 0.88118 0.58963 0.0
H1250 H 0.22682 0.89918 0.61242 0.0
H1251 H 0.23108 0.85932 0.60843 0.0
H1252 H 0.24545 0.87755 0.63142 0.0
H1253 H 0.20406 0.83365 0.57241 0.0
H1254 H 0.19408 0.86175 0.59592 0.0
H1255 H 0.18106 0.81676 0.57096 0.0
H1256 H 0.1713 0.84526 0.59383 0.0
H1257 H 0.11938 0.77451 0.55293 0.0
H1258 H 0.11032 0.76136 0.52211 0.0
H1259 H 0.10167 0.79052 0.49982 0.0
H1260 H 0.11066 0.80356 0.53089 0.0
H1261 H 0.09918 0.79925 0.57333 0.0
H1262 H 0.0825 0.78577 0.59696 0.0
H1263 H 0.1034 0.76551 0.61101 0.0
H1264 H 0.12011 0.77914 0.58749 0.0
H1265 H 0.14023 0.79914 0.54159 0.0
H1266 H 0.16299 0.81282 0.54988 0.0
H1267 H 0.15371 0.8253 0.6051 0.0
N1268 N 0.11962 0.79734 0.56301 0.0
H1269 H 0.13071 0.81189 0.59651 0.0
C1270 C 0.21704 0.86455 0.56189 0.0
C1271 C 0.22827 0.86641 0.55258 0.0
C1272 C 0.23203 0.87301 0.53461 0.0
C1273 C 0.22461 0.8779 0.52558 0.0
C1274 C 0.21311 0.87564 0.53459 0.0
C1275 C 0.20939 0.86909 0.55257 0.0
C1276 C 0.22072 0.86874 0.59741 0.0
C1277 C 0.21947 0.88002 0.59913 0.0
C1278 C 0.22761 0.89038 0.61222 0.0
C1279 C 0.23729 0.88981 0.6237 0.0
C1280 C 0.23814 0.8783 0.62267 0.0
C1281 C 0.22989 0.86786 0.60969 0.0
C1282 C 0.20092 0.849 0.58415 0.0
C1283 C 0.19694 0.83612 0.57758 0.0
C1284 C 0.18379 0.82653 0.57657 0.0
C1285 C 0.17429 0.82967 0.58203 0.0
C1286 C 0.17833 0.84241 0.58967 0.0
C1287 C 0.19148 0.85196 0.59079 0.0
C1288 C 0.11559 0.79 0.54424 0.0
C1289 C 0.11553 0.77807 0.54146 0.0
C1290 C 0.11035 0.77056 0.52383 0.0
C1291 C 0.10521 0.77487 0.50861 0.0
C1292 C 0.10565 0.78699 0.51121 0.0
C1293 C 0.11076 0.79444 0.5289 0.0
C1294 C 0.11079 0.79015 0.57857 0.0
C1295 C 0.10023 0.79203 0.58176 0.0
C1296 C 0.09076 0.78435 0.59526 0.0
C1297 C 0.09163 0.77454 0.60574 0.0
C1298 C 0.10241 0.77288 0.60294 0.0
C1299 C 0.11195 0.78066 0.58954 0.0
C1300 C 0.13336 0.80396 0.56869 0.0
C1301 C 0.14284 0.80444 0.55578 0.0
C1302 C 0.15605 0.81235 0.56056 0.0
C1303 C 0.16024 0.82013 0.57823 0.0
C1304 C 0.15086 0.8195 0.5913 0.0
C1305 C 0.13764 0.81167 0.58648 0.0
H1306 H 0.19487 0.31371 0.54056 0.0
N1307 N 0.19579 0.33052 0.56834 0.0
H1308 H 0.20518 0.31883 0.50811 0.0
H1309 H 0.20819 0.35485 0.55153 0.0
H1310 H 0.21818 0.35999 0.51914 0.0
H1311 H 0.2173 0.35305 0.58248 0.0
H1312 H 0.23479 0.35411 0.60342 0.0
H1313 H 0.19562 0.31094 0.58758 0.0
H1314 H 0.21313 0.31186 0.60841 0.0
H1315 H 0.17074 0.31304 0.56871 0.0
H1316 H 0.19807 0.35409 0.58036 0.0
H1317 H 0.15278 0.31715 0.57343 0.0
H1318 H 0.18033 0.35859 0.58326 0.0
H1319 H 0.10411 0.32968 0.5552 0.0
H1320 H 0.09396 0.32853 0.52297 0.0
H1321 H 0.12121 0.36975 0.51499 0.0
H1322 H 0.13163 0.37072 0.54735 0.0
H1323 H 0.11633 0.36613 0.59178 0.0
H1324 H 0.09801 0.35867 0.61396 0.0
H1325 H 0.09308 0.31962 0.61211 0.0
H1326 H 0.11125 0.32713 0.5896 0.0
H1327 H 0.12506 0.33088 0.55403 0.0
H1328 H 0.14233 0.32584 0.55575 0.0
H1329 H 0.16284 0.3573 0.59981 0.0
N1330 N 0.12449 0.35156 0.57338 0.0
H1331 H 0.14573 0.36296 0.59678 0.0
C1332 C 0.20071 0.33381 0.54851 0.0
C1333 C 0.19978 0.3238 0.53578 0.0
C1334 C 0.20563 0.32675 0.51723 0.0
C1335 C 0.21254 0.33984 0.51107 0.0
C1336 C 0.21306 0.34983 0.52356 0.0
C1337 C 0.20725 0.34686 0.54212 0.0
C1338 C 0.20511 0.33186 0.58348 0.0
C1339 C 0.21615 0.34405 0.58845 0.0
C1340 C 0.22622 0.34464 0.60029 0.0
C1341 C 0.22542 0.33306 0.60743 0.0
C1342 C 0.21403 0.32098 0.60334 0.0
C1343 C 0.20401 0.32041 0.59145 0.0
C1344 C 0.1857 0.33324 0.57369 0.0
C1345 C 0.17283 0.32295 0.57229 0.0
C1346 C 0.16259 0.32538 0.57473 0.0
C1347 C 0.16501 0.33829 0.57819 0.0
C1348 C 0.17799 0.34851 0.58065 0.0
C1349 C 0.18824 0.34599 0.57867 0.0
C1350 C 0.11871 0.35036 0.55376 0.0
C1351 C 0.10799 0.33848 0.54656 0.0
C1352 C 0.10211 0.33785 0.52811 0.0
C1353 C 0.10667 0.34908 0.51645 0.0
C1354 C 0.11752 0.36089 0.52351 0.0
C1355 C 0.12346 0.36149 0.54198 0.0
C1356 C 0.11517 0.34725 0.58903 0.0
C1357 C 0.11146 0.35604 0.59655 0.0
C1358 C 0.10101 0.35175 0.60924 0.0
C1359 C 0.09402 0.33851 0.61469 0.0
C1360 C 0.09815 0.32983 0.60795 0.0
C1361 C 0.10862 0.33414 0.59523 0.0
C1362 C 0.13418 0.34759 0.57498 0.0
C1363 C 0.13324 0.33683 0.56398 0.0
C1364 C 0.14315 0.33378 0.56523 0.0
C1365 C 0.15411 0.34114 0.57792 0.0
C1366 C 0.15474 0.35156 0.58953 0.0
C1367 C 0.14493 0.35477 0.58795 0.0
C1368 C 0.99415 0.37783 0.05639 0.0
C1369 C 0.98504 0.37425 0.0405 0.0
C1370 C 0.99268 0.38331 0.07419 0.0
C1371 C 0.98204 0.38533 0.07645 0.0
C1372 C 0.97282 0.38144 0.06076 0.0
C1373 C 0.97431 0.37604 0.04301 0.0
C1374 C 0.98003 0.39133 0.09479 0.0
C1375 C 0.9895 0.39897 0.10822 0.0
C1376 C 0.98734 0.40551 0.12574 0.0
C1377 C 0.99559 0.40881 0.14265 0.0
C1378 C 0.99401 0.41518 0.15925 0.0
C1379 C 0.98422 0.41856 0.15924 0.0
H1380 H 0.97135 0.40711 0.11264 0.0
C1381 C 0.97604 0.41539 0.14222 0.0
C1382 C 0.9776 0.40899 0.12564 0.0
H1383 H 0.96859 0.41811 0.14153 0.0
H1384 H 0.00248 0.3765 0.05503 0.0
H1385 H 0.99983 0.38579 0.0861 0.0
H1386 H 0.96448 0.38276 0.06209 0.0
H1387 H 0.96703 0.37332 0.03119 0.0
H1388 H 0.9703 0.38966 0.09686 0.0
H1389 H 0.99923 0.40057 0.10653 0.0
H1390 H 0.00323 0.40634 0.1431 0.0
H1391 H 0.0004 0.41735 0.17219 0.0
C1392 C 0.61201 0.59996 0.07971 0.0
C1393 C 0.61319 0.61246 0.08125 0.0
C1394 C 0.60469 0.59029 0.09336 0.0
C1395 C 0.59848 0.59299 0.10888 0.0
C1396 C 0.59936 0.60534 0.11003 0.0
C1397 C 0.60653 0.61494 0.09625 0.0
C1398 C 0.59222 0.58372 0.12525 0.0
C1399 C 0.58681 0.57059 0.12312 0.0
C1400 C 0.58182 0.56189 0.14042 0.0
C1401 C 0.57057 0.5495 0.13819 0.0
C1402 C 0.56573 0.54128 0.15451 0.0
C1403 C 0.5723 0.54519 0.17316 0.0
H1404 H 0.59731 0.57509 0.16111 0.0
C1405 C 0.58373 0.55744 0.17522 0.0
C1406 C 0.58842 0.56573 0.15906 0.0
H1407 H 0.58894 0.56071 0.18946 0.0
H1408 H 0.61706 0.59776 0.06832 0.0
H1409 H 0.60446 0.58097 0.09227 0.0
H1410 H 0.59473 0.60769 0.12192 0.0
H1411 H 0.60729 0.62449 0.0979 0.0
H1412 H 0.59204 0.58794 0.13972 0.0
H1413 H 0.58572 0.56607 0.10841 0.0
H1414 H 0.56542 0.54629 0.1239 0.0
H1415 H 0.55694 0.53184 0.15255 0.0
C1416 C 0.38572 0.99234 0.05475 0.0
C1417 C 0.39346 0.00292 0.04252 0.0
C1418 C 0.39064 0.99088 0.07301 0.0
C1419 C 0.40341 0.0 0.07944 0.0
C1420 C 0.41097 0.0108 0.06756 0.0
C1421 C 0.40611 0.0122 0.04923 0.0
C1422 C 0.40907 0.99864 0.09854 0.0
C1423 C 0.40566 0.9869 0.10637 0.0
C1424 C 0.41166 0.98541 0.12502 0.0
C1425 C 0.41183 0.97368 0.12779 0.0
C1426 C 0.41725 0.97184 0.14523 0.0
C1427 C 0.42248 0.98165 0.16044 0.0
H1428 H 0.41648 0.0042 0.13897 0.0
C1429 C 0.42219 0.99335 0.15774 0.0
C1430 C 0.41682 0.99521 0.14025 0.0
H1431 H 0.42584 0.00097 0.16934 0.0
H1432 H 0.3759 0.98506 0.05011 0.0
H1433 H 0.38438 0.98266 0.08208 0.0
H1434 H 0.42079 0.01805 0.07229 0.0
H1435 H 0.41231 0.02053 0.04028 0.0
H1436 H 0.4169 0.00755 0.10555 0.0
H1437 H 0.39875 0.97795 0.09823 0.0
H1438 H 0.40787 0.96595 0.11634 0.0
H1439 H 0.41742 0.96277 0.14672 0.0
C1440 C 0.3966 0.99492 0.94904 0.0
C1441 C 0.38648 0.9847 0.95928 0.0
C1442 C 0.40472 0.99247 0.93717 0.0
C1443 C 0.40294 0.9797 0.93534 0.0
C1444 C 0.39294 0.96953 0.94584 0.0
C1445 C 0.38483 0.97201 0.95777 0.0
C1446 C 0.41046 0.97643 0.92118 0.0
C1447 C 0.4222 0.98539 0.91465 0.0
C1448 C 0.42861 0.98278 0.89778 0.0
C1449 C 0.43706 0.99339 0.88623 0.0
C1450 C 0.44234 0.99131 0.86906 0.0
C1451 C 0.43943 0.97856 0.86317 0.0
H1452 H 0.42006 0.9617 0.90136 0.0
C1453 C 0.43149 0.968 0.8753 0.0
C1454 C 0.42614 0.97007 0.89245 0.0
H1455 H 0.4293 0.9581 0.87143 0.0
H1456 H 0.39803 0.00477 0.94964 0.0
H1457 H 0.41197 0.00051 0.92882 0.0
H1458 H 0.39126 0.95959 0.94455 0.0
H1459 H 0.37708 0.9639 0.96543 0.0
H1460 H 0.40577 0.96639 0.91528 0.0
H1461 H 0.42691 0.99539 0.92071 0.0
H1462 H 0.43918 0.00328 0.89004 0.0
H1463 H 0.44829 0.99967 0.86 0.0
C1464 C 0.99746 0.38746 0.95019 0.0
C1465 C 0.00806 0.3885 0.9613 0.0
C1466 C 0.99903 0.39757 0.93775 0.0
C1467 C 0.01128 0.40891 0.93611 0.0
C1468 C 0.02181 0.41003 0.94744 0.0
C1469 C 0.02021 0.39999 0.96004 0.0
C1470 C 0.01364 0.41911 0.92138 0.0
C1471 C 0.00444 0.42179 0.91504 0.0
C1472 C 0.00655 0.43091 0.89861 0.0
C1473 C 0.99976 0.43782 0.89821 0.0
C1474 C 0.00096 0.44581 0.88219 0.0
C1475 C 0.00879 0.44684 0.86602 0.0
H1476 H 0.01956 0.42655 0.88209 0.0
C1477 C 0.0156 0.43992 0.86652 0.0
C1478 C 0.01453 0.43208 0.88262 0.0
H1479 H 0.02144 0.44015 0.85414 0.0
H1480 H 0.988 0.3787 0.95064 0.0
H1481 H 0.99077 0.3962 0.92884 0.0
H1482 H 0.03137 0.41861 0.94631 0.0
H1483 H 0.02859 0.40109 0.96833 0.0
H1484 H 0.02336 0.42465 0.91562 0.0
H1485 H 0.9951 0.41728 0.92216 0.0
H1486 H 0.99349 0.437 0.91029 0.0
H1487 H 0.99569 0.4511 0.88245 0.0
C1488 C 0.59 0.6217 0.99573 0.0
C1489 C 0.60281 0.62451 -0.00045 0.0
C1490 C 0.58369 0.61601 0.97744 0.0
C1491 C 0.59007 0.61301 0.96252 0.0
C1492 C 0.60283 0.61578 0.96637 0.0
C1493 C 0.60916 0.62154 0.98459 0.0
C1494 C 0.58358 0.60648 0.94318 0.0
C1495 C 0.57359 0.60722 0.93486 0.0
C1496 C 0.56741 0.60071 0.91536 0.0
C1497 C 0.56185 0.60629 0.90315 0.0
C1498 C 0.55637 0.60063 0.88442 0.0
C1499 C 0.55619 0.58915 0.87761 0.0
H1500 H 0.57056 0.58411 0.91817 0.0
C1501 C 0.56131 0.58329 0.8902 0.0
C1502 C 0.56684 0.58899 0.90885 0.0
H1503 H 0.56101 0.57425 0.88566 0.0
H1504 H 0.58478 0.62379 0.00693 0.0
H1505 H 0.57373 0.61369 0.9753 0.0
H1506 H 0.60794 0.61349 0.95521 0.0
H1507 H 0.619 0.6235 0.98701 0.0
H1508 H 0.58764 0.60135 0.93508 0.0
H1509 H 0.5703 0.6134 0.94186 0.0
H1510 H 0.56204 0.61525 0.90791 0.0
H1511 H 0.55258 0.60544 0.87508 0.0
C1512 C 0.01329 0.62173 0.97573 0.0
C1513 C 0.00415 0.62459 0.98395 0.0
C1514 C 0.01037 0.6141 0.95818 0.0
C1515 C 0.99813 0.60894 0.94853 0.0
C1516 C 0.98914 0.6121 0.95644 0.0
C1517 C 0.9921 0.61983 0.97395 0.0
C1518 C 0.99448 0.60045 0.93007 0.0
C1519 C 0.00034 0.59361 0.92467 0.0
C1520 C 0.99684 0.58495 0.9064 0.0
C1521 C 0.00208 0.57661 0.90447 0.0
C1522 C 0.99929 0.56844 0.88754 0.0
C1523 C 0.99115 0.56838 0.87211 0.0
H1524 H 0.98479 0.59147 0.8912 0.0
C1525 C 0.98593 0.57674 0.87392 0.0
C1526 C 0.98878 0.58499 0.89079 0.0
H1527 H 0.97981 0.5771 0.86209 0.0
H1528 H 0.02276 0.62541 0.98284 0.0
H1529 H 0.01782 0.61242 0.95224 0.0
H1530 H 0.9797 0.60842 0.9492 0.0
H1531 H 0.98484 0.62188 0.97982 0.0
H1532 H 0.98629 0.59944 0.92129 0.0
H1533 H 0.00785 0.59391 0.93442 0.0
H1534 H 0.00836 0.57638 0.91614 0.0
H1535 H 0.0034 0.56205 0.88662 0.0
C1536 C 0.39925 0.39786 0.95358 0.0
C1537 C 0.39866 0.38563 0.95445 0.0
C1538 C 0.4087 0.40796 0.94238 0.0
C1539 C 0.4177 0.40597 0.93172 0.0
C1540 C 0.4174 0.39393 0.93328 0.0
C1541 C 0.40795 0.38384 0.9444 0.0
C1542 C 0.42735 0.416 0.91847 0.0
C1543 C 0.42555 0.42519 0.90952 0.0
C1544 C 0.43415 0.43377 0.89382 0.0
C1545 C 0.42893 0.43853 0.87947 0.0
C1546 C 0.43632 0.44573 0.86351 0.0
C1547 C 0.44917 0.44845 0.86163 0.0
H1548 H 0.45175 0.43395 0.90362 0.0
C1549 C 0.4546 0.4442 0.87648 0.0
C1550 C 0.4472 0.43699 0.89246 0.0
H1551 H 0.46456 0.4464 0.87569 0.0
H1552 H 0.39231 0.3996 0.96132 0.0
H1553 H 0.40888 0.41726 0.94212 0.0
H1554 H 0.42426 0.39215 0.92536 0.0
H1555 H 0.40777 0.37455 0.94471 0.0
H1556 H 0.43552 0.41485 0.9144 0.0
H1557 H 0.41677 0.42556 0.91219 0.0
H1558 H 0.41894 0.43629 0.88021 0.0
H1559 H 0.4318 0.44877 0.85226 0.0
C1560 C 0.60496 0.99199 0.97018 0.0
C1561 C 0.59781 0.98377 0.9857 0.0
C1562 C 0.59889 0.99149 0.95189 0.0
C1563 C 0.58552 0.98274 0.94871 0.0
C1564 C 0.57837 0.97463 0.96426 0.0
C1565 C 0.58444 0.97506 0.98249 0.0
C1566 C 0.57861 0.98201 0.92965 0.0
C1567 C 0.58444 0.98503 0.91192 0.0
C1568 C 0.57727 0.9835 0.89281 0.0
C1569 C 0.58174 0.98066 0.87523 0.0
C1570 C 0.57505 0.97878 0.85706 0.0
C1571 C 0.56384 0.97989 0.85603 0.0
H1572 H 0.56269 0.98747 0.90488 0.0
C1573 C 0.55957 0.98313 0.8735 0.0
C1574 C 0.5662 0.98491 0.89173 0.0
H1575 H 0.55097 0.98408 0.87314 0.0
H1576 H 0.61525 0.99889 0.97218 0.0
H1577 H 0.60466 0.99817 0.94047 0.0
H1578 H 0.56804 0.96786 0.96227 0.0
H1579 H 0.57859 0.96864 0.99412 0.0
H1580 H 0.56819 0.97801 0.93015 0.0
H1581 H 0.59458 0.98777 0.91109 0.0
H1582 H 0.59032 0.97969 0.8756 0.0
H1583 H 0.57869 0.9765 0.84377 0.0
C1584 C 0.60367 0.0155 0.06781 0.0
C1585 C 0.60454 0.004 0.06712 0.0
C1586 C 0.59443 0.01623 0.07959 0.0
C1587 C 0.58593 0.00545 0.09094 0.0
C1588 C 0.58652 0.99383 0.08961 0.0
C1589 C 0.59576 0.99313 0.07796 0.0
C1590 C 0.57656 0.0059 0.10482 0.0
C1591 C 0.5782 0.01706 0.11357 0.0
C1592 C 0.57028 0.01689 0.1306 0.0
C1593 C 0.57599 0.02695 0.14534 0.0
C1594 C 0.5696 0.02605 0.16307 0.0
C1595 C 0.55737 0.01506 0.16631 0.0
H1596 H 0.55261 0.99881 0.1218 0.0
C1597 C 0.55124 0.00551 0.15095 0.0
C1598 C 0.55757 0.00645 0.13319 0.0
H1599 H 0.54167 0.9971 0.15291 0.0
H1600 H 0.61023 0.02401 0.05947 0.0
H1601 H 0.59404 0.02523 0.07977 0.0
H1602 H 0.58005 0.98535 0.09811 0.0
H1603 H 0.59617 0.98414 0.07787 0.0
H1604 H 0.56887 0.99649 0.10974 0.0
H1605 H 0.58656 0.02644 0.11008 0.0
H1606 H 0.5857 0.03518 0.14362 0.0
H1607 H 0.57454 0.03356 0.17467 0.0
C1608 C 0.98768 0.60792 0.07435 0.0
C1609 C 0.99892 0.61978 0.07003 0.0
C1610 C 0.98851 0.59857 0.086 0.0
C1611 C 0.00061 0.60095 0.09362 0.0
C1612 C 0.01183 0.61264 0.08881 0.0
C1613 C 0.011 0.62199 0.07729 0.0
C1614 C 0.00206 0.59163 0.1067 0.0
C1615 C 0.9926 0.58301 0.11835 0.0
C1616 C 0.99483 0.5751 0.13333 0.0
C1617 C 0.98732 0.5713 0.15047 0.0
C1618 C 0.98983 0.56479 0.16565 0.0
C1619 C 0.99986 0.56184 0.16392 0.0
H1620 H 0.01012 0.57386 0.11784 0.0
C1621 C 0.00698 0.56509 0.14635 0.0
C1622 C 0.00446 0.57159 0.13117 0.0
H1623 H 0.01456 0.56265 0.14437 0.0
H1624 H 0.97824 0.60589 0.06885 0.0
H1625 H 0.97967 0.5895 0.08888 0.0
H1626 H 0.02129 0.61471 0.09438 0.0
H1627 H 0.01985 0.63104 0.07439 0.0
H1628 H 0.0117 0.59284 0.10809 0.0
H1629 H 0.9833 0.58263 0.11839 0.0
H1630 H 0.97977 0.57377 0.15245 0.0
H1631 H 0.9842 0.56247 0.17903 0.0
C1632 C 0.41492 0.37677 0.04274 0.0
C1633 C 0.40204 0.37304 0.03735 0.0
C1634 C 0.42021 0.38266 0.0614 0.0
C1635 C 0.41277 0.38506 0.07513 0.0
C1636 C 0.39981 0.38106 0.06996 0.0
C1637 C 0.39451 0.37518 0.05125 0.0
C1638 C 0.41808 0.39131 0.09515 0.0
C1639 C 0.43084 0.39955 0.09904 0.0
C1640 C 0.43647 0.40554 0.11908 0.0
C1641 C 0.44975 0.41033 0.12283 0.0
C1642 C 0.45548 0.41581 0.1415 0.0
C1643 C 0.44806 0.41675 0.15685 0.0
H1644 H 0.41892 0.40356 0.13197 0.0
C1645 C 0.43483 0.41225 0.15299 0.0
C1646 C 0.42909 0.40674 0.13432 0.0
H1647 H 0.42883 0.41278 0.16453 0.0
H1648 H 0.42098 0.37516 0.03254 0.0
H1649 H 0.43006 0.38509 0.06503 0.0
H1650 H 0.39381 0.38263 0.08034 0.0
H1651 H 0.38453 0.37238 0.04766 0.0
H1652 H 0.41114 0.38904 0.10685 0.0
H1653 H 0.43766 0.40187 0.08712 0.0
H1654 H 0.45572 0.40969 0.11134 0.0
H1655 H 0.46574 0.41937 0.14388 0.0
C1656 C 0.66916 0.71458 0.38383 0.0
C1657 C 0.65798 0.70982 0.37144 0.0
C1658 C 0.67006 0.72101 0.40206 0.0
C1659 C 0.65976 0.72274 0.40829 0.0
C1660 C 0.64841 0.71749 0.39631 0.0
C1661 C 0.64756 0.71121 0.37802 0.0
C1662 C 0.6605 0.72995 0.42713 0.0
C1663 C 0.67169 0.74008 0.43462 0.0
C1664 C 0.67244 0.74806 0.45258 0.0
C1665 C 0.68275 0.76105 0.45459 0.0
C1666 C 0.68391 0.76886 0.47131 0.0
C1667 C 0.67486 0.7638 0.48659 0.0
H1668 H 0.65549 0.73286 0.46713 0.0
C1669 C 0.66455 0.75076 0.48462 0.0
C1670 C 0.66335 0.74295 0.46783 0.0
H1671 H 0.65757 0.74645 0.4963 0.0
H1672 H 0.67733 0.7136 0.37927 0.0
H1673 H 0.67881 0.72459 0.41122 0.0
H1674 H 0.64028 0.71855 0.40087 0.0
H1675 H 0.63876 0.70755 0.36895 0.0
H1676 H 0.65141 0.72754 0.43401 0.0
H1677 H 0.68057 0.74327 0.42654 0.0
H1678 H 0.6899 0.76523 0.4431 0.0
H1679 H 0.69188 0.77891 0.4722 0.0
C1680 C 0.27118 0.94623 0.42238 0.0
C1681 C 0.27909 0.94461 0.40865 0.0
C1682 C 0.26325 0.93602 0.43484 0.0
C1683 C 0.263 0.92391 0.43374 0.0
C1684 C 0.27072 0.92223 0.41971 0.0
C1685 C 0.27864 0.93244 0.40725 0.0
C1686 C 0.25575 0.91326 0.44802 0.0
C1687 C 0.24564 0.91207 0.45842 0.0
C1688 C 0.2396 0.90256 0.47465 0.0
C1689 C 0.23331 0.90552 0.48967 0.0
C1690 C 0.22825 0.8974 0.50597 0.0
C1691 C 0.22924 0.88601 0.50754 0.0
H1692 H 0.24451 0.88799 0.46421 0.0
C1693 C 0.2351 0.88275 0.49214 0.0
C1694 C 0.24019 0.89091 0.47582 0.0
H1695 H 0.23575 0.87389 0.4927 0.0
H1696 H 0.27142 0.95553 0.424 0.0
H1697 H 0.2578 0.93793 0.44582 0.0
H1698 H 0.2708 0.91306 0.41862 0.0
H1699 H 0.28463 0.93087 0.39684 0.0
H1700 H 0.25928 0.90647 0.45045 0.0
H1701 H 0.24208 0.91883 0.45591 0.0
H1702 H 0.23265 0.91439 0.48913 0.0
H1703 H 0.22393 0.90029 0.51766 0.0
C1704 C 0.05941 0.34172 0.38385 0.0
C1705 C 0.0664 0.35076 0.3691 0.0
C1706 C 0.06502 0.34275 0.40277 0.0
C1707 C 0.07784 0.35282 0.40735 0.0
C1708 C 0.0847 0.36197 0.39267 0.0
C1709 C 0.07908 0.36097 0.37381 0.0
C1710 C 0.08454 0.35426 0.427 0.0
C1711 C 0.08004 0.34517 0.44124 0.0
C1712 C 0.08715 0.34674 0.46044 0.0
C1713 C 0.08006 0.34016 0.47711 0.0
C1714 C 0.08637 0.34106 0.4953 0.0
C1715 C 0.09999 0.34844 0.49718 0.0
H1716 H 0.10664 0.35902 0.44959 0.0
C1717 C 0.10712 0.35501 0.48045 0.0
C1718 C 0.10079 0.35415 0.46226 0.0
H1719 H 0.11762 0.36057 0.48128 0.0
H1720 H 0.04958 0.3338 0.3808 0.0
H1721 H 0.05917 0.33562 0.4136 0.0
H1722 H 0.09454 0.36988 0.39572 0.0
H1723 H 0.08477 0.36814 0.36287 0.0
H1724 H 0.09374 0.36327 0.4297 0.0
H1725 H 0.07073 0.33625 0.43919 0.0
H1726 H 0.06956 0.33434 0.47611 0.0
H1727 H 0.08056 0.33603 0.50794 0.0
C1728 C 0.06697 0.32067 0.28721 0.0
C1729 C 0.06526 0.33166 0.28843 0.0
C1730 C 0.07742 0.32131 0.27694 0.0
C1731 C 0.08636 0.333 0.26782 0.0
C1732 C 0.08486 0.34407 0.26968 0.0
C1733 C 0.07438 0.34339 0.27968 0.0
C1734 C 0.09714 0.33409 0.25569 0.0
C1735 C 0.09656 0.32394 0.24513 0.0
C1736 C 0.10598 0.32607 0.22936 0.0
C1737 C 0.10161 0.31812 0.2119 0.0
C1738 C 0.10949 0.32138 0.19529 0.0
C1739 C 0.12192 0.33261 0.19595 0.0
H1740 H 0.12273 0.34259 0.24411 0.0
C1741 C 0.12671 0.33987 0.21399 0.0
C1742 C 0.11885 0.33659 0.23059 0.0
H1743 H 0.13638 0.34838 0.21505 0.0
H1744 H 0.06014 0.3115 0.29389 0.0
H1745 H 0.07846 0.31267 0.27619 0.0
H1746 H 0.09162 0.35321 0.26283 0.0
H1747 H 0.07335 0.35202 0.28017 0.0
H1748 H 0.10509 0.34397 0.25335 0.0
H1749 H 0.08802 0.31423 0.24589 0.0
H1750 H 0.09179 0.30987 0.21065 0.0
H1751 H 0.10555 0.3156 0.18158 0.0
C1752 C 0.68671 0.73469 0.28971 0.0
C1753 C 0.67477 0.72287 0.28944 0.0
C1754 C 0.68829 0.74527 0.2784 0.0
C1755 C 0.67796 0.74418 0.2664 0.0
C1756 C 0.66587 0.73257 0.26689 0.0
C1757 C 0.66429 0.722 0.27821 0.0
C1758 C 0.67944 0.7547 0.25277 0.0
C1759 C 0.69089 0.76354 0.2452 0.0
C1760 C 0.69234 0.77296 0.22947 0.0
C1761 C 0.70474 0.78371 0.22632 0.0
C1762 C 0.70685 0.79206 0.21045 0.0
C1763 C 0.69661 0.7898 0.19726 0.0
H1764 H 0.67236 0.76255 0.21797 0.0
C1765 C 0.68412 0.77926 0.20069 0.0
C1766 C 0.682 0.7709 0.21656 0.0
H1767 H 0.67606 0.7771 0.19058 0.0
H1768 H 0.69493 0.73574 0.29843 0.0
H1769 H 0.69763 0.7542 0.27911 0.0
H1770 H 0.65771 0.73149 0.25797 0.0
H1771 H 0.65495 0.71304 0.27769 0.0
H1772 H 0.67061 0.75453 0.24795 0.0
H1773 H 0.6997 0.76367 0.25004 0.0
H1774 H 0.71289 0.78552 0.23596 0.0
H1775 H 0.71657 0.80017 0.20834 0.0
C1776 C 0.27357 0.956 0.31472 0.0
C1777 C 0.26826 0.95969 0.33043 0.0
C1778 C 0.26658 0.9508 0.29672 0.0
C1779 C 0.2541 0.94917 0.29405 0.0
C1780 C 0.24894 0.95315 0.30954 0.0
C1781 C 0.25588 0.95826 0.32757 0.0
C1782 C 0.24633 0.94366 0.27519 0.0
C1783 C 0.24742 0.93499 0.26315 0.0
C1784 C 0.23954 0.92922 0.24443 0.0
C1785 C 0.23779 0.91721 0.23692 0.0
C1786 C 0.23086 0.91167 0.21901 0.0
C1787 C 0.22562 0.9181 0.20804 0.0
H1788 H 0.23566 0.94511 0.23848 0.0
C1789 C 0.2273 0.93011 0.21559 0.0
C1790 C 0.23421 0.93564 0.23355 0.0
H1791 H 0.22361 0.93545 0.20732 0.0
H1792 H 0.28312 0.95705 0.31634 0.0
H1793 H 0.27106 0.94823 0.28489 0.0
H1794 H 0.23941 0.95214 0.3078 0.0
H1795 H 0.25151 0.96108 0.33927 0.0
H1796 H 0.23896 0.94626 0.27185 0.0
H1797 H 0.25392 0.93144 0.26759 0.0
H1798 H 0.24181 0.91207 0.24495 0.0
H1799 H 0.22963 0.90234 0.21373 0.0
C1800 C 0.68947 0.95089 0.31779 0.0
C1801 C 0.68124 0.95609 0.32087 0.0
C1802 C 0.68971 0.94543 0.29927 0.0
C1803 C 0.68164 0.94495 0.28332 0.0
C1804 C 0.67348 0.95023 0.28631 0.0
C1805 C 0.67321 0.95567 0.30491 0.0
C1806 C 0.68201 0.93959 0.26323 0.0
C1807 C 0.68551 0.9304 0.26042 0.0
C1808 C 0.68656 0.92538 0.24044 0.0
C1809 C 0.68577 0.91306 0.23893 0.0
C1810 C 0.68723 0.9082 0.22059 0.0
C1811 C 0.6897 0.91565 0.20334 0.0
H1812 H 0.69009 0.94255 0.22378 0.0
C1813 C 0.69058 0.92802 0.20484 0.0
C1814 C 0.68904 0.93285 0.22318 0.0
H1815 H 0.6924 0.93396 0.1918 0.0
H1816 H 0.69587 0.95112 0.32966 0.0
H1817 H 0.69647 0.94189 0.29743 0.0
H1818 H 0.66727 0.95011 0.27422 0.0
H1819 H 0.66679 0.95964 0.30671 0.0
H1820 H 0.67892 0.94306 0.25053 0.0
H1821 H 0.68734 0.92601 0.2733 0.0
H1822 H 0.68402 0.90717 0.25202 0.0
H1823 H 0.68667 0.89871 0.21997 0.0
C1824 C 0.06604 0.7228 0.27156 0.0
C1825 C 0.05726 0.72482 0.28267 0.0
C1826 C 0.07436 0.73226 0.25846 0.0
C1827 C 0.07418 0.74407 0.25628 0.0
C1828 C 0.06547 0.74613 0.26754 0.0
C1829 C 0.05711 0.73663 0.28064 0.0
C1830 C 0.08216 0.75392 0.24134 0.0
C1831 C 0.09291 0.75477 0.23352 0.0
C1832 C 0.10006 0.76352 0.21691 0.0
C1833 C 0.11273 0.7662 0.21332 0.0
C1834 C 0.11944 0.77352 0.19695 0.0
C1835 C 0.11357 0.77829 0.18373 0.0
H1836 H 0.08434 0.76621 0.20545 0.0
C1837 C 0.10094 0.77574 0.18742 0.0
C1838 C 0.09423 0.7684 0.20374 0.0
H1839 H 0.09605 0.77904 0.17727 0.0
H1840 H 0.06626 0.71372 0.27252 0.0
H1841 H 0.08055 0.73001 0.24961 0.0
H1842 H 0.06502 0.75506 0.26602 0.0
H1843 H 0.05042 0.73846 0.28895 0.0
H1844 H 0.07899 0.76071 0.23676 0.0
H1845 H 0.09676 0.74885 0.23948 0.0
H1846 H 0.11743 0.76249 0.22311 0.0
H1847 H 0.12919 0.7754 0.19459 0.0
C1848 C 0.26464 0.32178 0.30385 0.0
C1849 C 0.27684 0.33118 0.31201 0.0
C1850 C 0.26036 0.32365 0.2853 0.0
C1851 C 0.26823 0.33496 0.27444 0.0
C1852 C 0.28044 0.34429 0.28253 0.0
C1853 C 0.28474 0.3424 0.30102 0.0
C1854 C 0.2638 0.33773 0.25522 0.0
C1855 C 0.25471 0.32833 0.24294 0.0
C1856 C 0.25035 0.33133 0.22386 0.0
C1857 C 0.2457 0.32189 0.20819 0.0
C1858 C 0.24157 0.32441 0.19001 0.0
C1859 C 0.24184 0.33639 0.18719 0.0
H1860 H 0.25348 0.35054 0.23317 0.0
C1861 C 0.24623 0.34572 0.20306 0.0
C1862 C 0.25042 0.34322 0.22119 0.0
H1863 H 0.24627 0.3549 0.20157 0.0
H1864 H 0.25827 0.31306 0.31194 0.0
H1865 H 0.25074 0.31639 0.27987 0.0
H1866 H 0.28667 0.35313 0.27455 0.0
H1867 H 0.29418 0.34988 0.30684 0.0
H1868 H 0.26862 0.34791 0.25072 0.0
H1869 H 0.25077 0.31804 0.24635 0.0
H1870 H 0.24545 0.31261 0.2099 0.0
H1871 H 0.23839 0.31706 0.17805 0.0
C1872 C 0.27322 0.3533 0.39882 0.0
C1873 C 0.27458 0.34216 0.3962 0.0
C1874 C 0.26287 0.35254 0.40952 0.0
C1875 C 0.25372 0.34059 0.41784 0.0
C1876 C 0.25478 0.32936 0.41439 0.0
C1877 C 0.26513 0.33014 0.40382 0.0
C1878 C 0.2433 0.33948 0.43094 0.0
C1879 C 0.24442 0.34958 0.44232 0.0
C1880 C 0.23542 0.34773 0.45866 0.0
C1881 C 0.24025 0.35627 0.47544 0.0
C1882 C 0.23266 0.35397 0.49218 0.0
C1883 C 0.21999 0.34312 0.49243 0.0
H1884 H 0.21826 0.3308 0.44547 0.0
C1885 C 0.21488 0.335 0.47518 0.0
C1886 C 0.22249 0.3373 0.45843 0.0
H1887 H 0.20505 0.32676 0.47475 0.0
H1888 H 0.28027 0.36268 0.39295 0.0
H1889 H 0.26216 0.36132 0.41133 0.0
H1890 H 0.24783 0.32002 0.42051 0.0
H1891 H 0.26587 0.32137 0.40212 0.0
H1892 H 0.23523 0.32964 0.43312 0.0
H1893 H 0.25308 0.35918 0.44148 0.0
H1894 H 0.25014 0.36442 0.47597 0.0
H1895 H 0.23694 0.36036 0.50525 0.0
C1896 C 0.65197 0.9339 0.40286 0.0
C1897 C 0.66365 0.946 0.40316 0.0
C1898 C 0.65067 0.92365 0.41477 0.0
C1899 C 0.66101 0.92537 0.42741 0.0
C1900 C 0.67277 0.93735 0.42721 0.0
C1901 C 0.67408 0.94755 0.41529 0.0
C1902 C 0.66001 0.91513 0.44122 0.0
C1903 C 0.6487 0.90507 0.44734 0.0
C1904 C 0.64796 0.89598 0.46314 0.0
C1905 C 0.6366 0.88951 0.47415 0.0
C1906 C 0.63589 0.88175 0.49021 0.0
C1907 C 0.64654 0.88027 0.49556 0.0
H1908 H 0.66708 0.89819 0.45925 0.0
C1909 C 0.65767 0.8862 0.48398 0.0
C1910 C 0.65836 0.89389 0.46785 0.0
H1911 H 0.66591 0.88498 0.48749 0.0
H1912 H 0.6438 0.93236 0.3935 0.0
H1913 H 0.64156 0.91447 0.41393 0.0
H1914 H 0.68094 0.93895 0.43665 0.0
H1915 H 0.6832 0.95675 0.41595 0.0
H1916 H 0.66906 0.91667 0.44784 0.0
H1917 H 0.6396 0.9041 0.44203 0.0
H1918 H 0.62839 0.89081 0.47075 0.0
H1919 H 0.62719 0.87732 0.49889 0.0
C1920 C 0.05899 0.72099 0.38229 0.0
C1921 C 0.06662 0.72051 0.36685 0.0
C1922 C 0.06483 0.7286 0.39968 0.0
C1923 C 0.07844 0.73593 0.40195 0.0
C1924 C 0.08603 0.73551 0.38649 0.0
C1925 C 0.08021 0.72782 0.36922 0.0
C1926 C 0.08507 0.74453 0.41979 0.0
C1927 C 0.07992 0.74218 0.43802 0.0
C1928 C 0.08676 0.75075 0.45582 0.0
C1929 C 0.08418 0.74522 0.47477 0.0
C1930 C 0.09033 0.75301 0.49185 0.0
C1931 C 0.09903 0.76656 0.49037 0.0
H1932 H 0.09741 0.76901 0.44004 0.0
C1933 C 0.1015 0.77214 0.47144 0.0
C1934 C 0.09545 0.76433 0.45433 0.0
H1935 H 0.10816 0.78256 0.46984 0.0
H1936 H 0.04849 0.71554 0.38092 0.0
H1937 H 0.05866 0.72895 0.41106 0.0
H1938 H 0.09653 0.74114 0.38778 0.0
H1939 H 0.08641 0.72778 0.35761 0.0
H1940 H 0.09485 0.75269 0.41796 0.0
H1941 H 0.07071 0.73331 0.44031 0.0
H1942 H 0.07744 0.73482 0.47636 0.0
H1943 H 0.08807 0.74847 0.50627 0.0
C1944 C 0.3403 0.05083 0.71547 0.0
C1945 C 0.33175 0.04924 0.69956 0.0
C1946 C 0.34053 0.05745 0.73317 0.0
C1947 C 0.33215 0.0626 0.73533 0.0
C1948 C 0.3236 0.06095 0.71945 0.0
C1949 C 0.32335 0.05432 0.70184 0.0
C1950 C 0.33234 0.07024 0.75337 0.0
C1951 C 0.33701 0.06954 0.77148 0.0
C1952 C 0.33724 0.07743 0.78926 0.0
C1953 C 0.34617 0.07984 0.80495 0.0
C1954 C 0.34686 0.08737 0.82178 0.0
C1955 C 0.33854 0.09259 0.82339 0.0
H1956 H 0.32134 0.08042 0.77972 0.0
C1957 C 0.32939 0.08994 0.8079 0.0
C1958 C 0.3287 0.0824 0.79107 0.0
H1959 H 0.32285 0.09382 0.80863 0.0
H1960 H 0.34697 0.04712 0.71418 0.0
H1961 H 0.34752 0.05879 0.74479 0.0
H1962 H 0.31709 0.06486 0.72062 0.0
H1963 H 0.31664 0.05333 0.68993 0.0
H1964 H 0.32835 0.0767 0.75144 0.0
H1965 H 0.34109 0.06318 0.77345 0.0
H1966 H 0.35275 0.076 0.80411 0.0
H1967 H 0.35385 0.08901 0.83362 0.0
C1968 C 0.9467 0.25946 0.74924 0.0
C1969 C 0.94463 0.2702 0.74771 0.0
C1970 C 0.93856 0.24868 0.76065 0.0
C1971 C 0.92815 0.24841 0.77065 0.0
C1972 C 0.92576 0.25888 0.76843 0.0
C1973 C 0.93399 0.26972 0.75726 0.0
C1974 C 0.9198 0.23759 0.78393 0.0
C1975 C 0.92438 0.2313 0.79512 0.0
C1976 C 0.91667 0.22221 0.81094 0.0
C1977 C 0.92302 0.22207 0.82864 0.0
C1978 C 0.91593 0.21465 0.84467 0.0
C1979 C 0.90231 0.20699 0.84319 0.0
H1980 H 0.89798 0.21368 0.79532 0.0
C1981 C 0.89603 0.20654 0.82497 0.0
C1982 C 0.90313 0.21411 0.80904 0.0
H1983 H 0.8856 0.20048 0.82309 0.0
H1984 H 0.95477 0.25948 0.74197 0.0
H1985 H 0.94046 0.2406 0.76164 0.0
H1986 H 0.91775 0.25887 0.77591 0.0
H1987 H 0.93211 0.27781 0.75644 0.0
H1988 H 0.91004 0.23583 0.78626 0.0
H1989 H 0.93454 0.23407 0.79437 0.0
H1990 H 0.93347 0.22818 0.83042 0.0
H1991 H 0.92112 0.21538 0.85848 0.0
C1992 C 0.74597 0.68089 0.7097 0.0
C1993 C 0.73261 0.67224 0.7063 0.0
C1994 C 0.75174 0.68201 0.72847 0.0
C1995 C 0.74426 0.67459 0.74443 0.0
C1996 C 0.73095 0.66582 0.74096 0.0
C1997 C 0.72517 0.66468 0.72215 0.0
C1998 C 0.74999 0.67544 0.76468 0.0
C1999 C 0.76122 0.68586 0.77155 0.0
C2000 C 0.76695 0.68683 0.79183 0.0
C2001 C 0.78024 0.69574 0.79524 0.0
C2002 C 0.78599 0.69727 0.81417 0.0
C2003 C 0.77856 0.68996 0.83019 0.0
H2004 H 0.74915 0.67291 0.80619 0.0
C2005 C 0.76525 0.68107 0.82682 0.0
C2006 C 0.75949 0.67954 0.8079 0.0
H2007 H 0.75919 0.67552 0.83895 0.0
H2008 H 0.75204 0.68675 0.6978 0.0
H2009 H 0.76211 0.68853 0.73017 0.0
H2010 H 0.72497 0.65989 0.7529 0.0
H2011 H 0.71486 0.65787 0.72007 0.0
H2012 H 0.74458 0.66717 0.77424 0.0
H2013 H 0.76661 0.69413 0.76199 0.0
H2014 H 0.78621 0.70153 0.78319 0.0
H2015 H 0.79628 0.70413 0.81623 0.0
C2016 C 0.73339 0.65889 0.61346 0.0
C2017 C 0.72427 0.64873 0.62509 0.0
C2018 C 0.7415 0.65679 0.60105 0.0
C2019 C 0.74072 0.64443 0.6 0.0
C2020 C 0.7318 0.63435 0.61195 0.0
C2021 C 0.72369 0.63648 0.62446 0.0
C2022 C 0.74799 0.64136 0.58507 0.0
C2023 C 0.75902 0.65061 0.57692 0.0
C2024 C 0.76474 0.64808 0.55902 0.0
C2025 C 0.77217 0.65862 0.54661 0.0
C2026 C 0.77648 0.65651 0.52842 0.0
C2027 C 0.77355 0.6438 0.52231 0.0
H2028 H 0.75721 0.62716 0.56296 0.0
C2029 C 0.76678 0.63336 0.53528 0.0
C2030 C 0.76244 0.63547 0.55347 0.0
H2031 H 0.76466 0.62351 0.53122 0.0
H2032 H 0.73397 0.66838 0.61334 0.0
H2033 H 0.74788 0.6647 0.59162 0.0
H2034 H 0.73089 0.6247 0.61128 0.0
H2035 H 0.71674 0.62843 0.63318 0.0
H2036 H 0.74357 0.63119 0.57989 0.0
H2037 H 0.76346 0.66073 0.58237 0.0
H2038 H 0.77417 0.66846 0.55056 0.0
H2039 H 0.78161 0.66477 0.51876 0.0
C2040 C 0.3415 0.05878 0.60824 0.0
C2041 C 0.35166 0.05946 0.62014 0.0
C2042 C 0.34341 0.06948 0.59697 0.0
C2043 C 0.35555 0.08115 0.59739 0.0
C2044 C 0.36567 0.08182 0.60934 0.0
C2045 C 0.36375 0.07113 0.62067 0.0
C2046 C 0.35829 0.09236 0.58446 0.0
C2047 C 0.34905 0.09481 0.57742 0.0
C2048 C 0.35151 0.10503 0.56256 0.0
C2049 C 0.34102 0.10362 0.55072 0.0
C2050 C 0.34299 0.11232 0.53544 0.0
C2051 C 0.3555 0.1227 0.53172 0.0
H2052 H 0.37223 0.11765 0.56877 0.0
C2053 C 0.36591 0.12453 0.54418 0.0
C2054 C 0.36395 0.11584 0.5595 0.0
H2055 H 0.37563 0.13262 0.54196 0.0
H2056 H 0.33214 0.04987 0.60723 0.0
H2057 H 0.33548 0.06835 0.58745 0.0
H2058 H 0.37516 0.09062 0.60978 0.0
H2059 H 0.37179 0.07197 0.62963 0.0
H2060 H 0.3683 0.09855 0.58031 0.0
H2061 H 0.33908 0.08862 0.58179 0.0
H2062 H 0.33132 0.09547 0.55283 0.0
H2063 H 0.33477 0.11058 0.52603 0.0
C2064 C 0.94254 0.28134 0.65249 0.0
C2065 C 0.93561 0.28372 0.66719 0.0
C2066 C 0.9369 0.27633 0.63357 0.0
C2067 C 0.9242 0.27362 0.62896 0.0
C2068 C 0.91737 0.27618 0.64355 0.0
C2069 C 0.92295 0.28108 0.66247 0.0
C2070 C 0.91789 0.26858 0.60897 0.0
C2071 C 0.92079 0.26129 0.59666 0.0
C2072 C 0.91415 0.25606 0.57691 0.0
C2073 C 0.91329 0.24453 0.56889 0.0
C2074 C 0.90714 0.23935 0.55032 0.0
C2075 C 0.90184 0.2457 0.53924 0.0
H2076 H 0.90984 0.27165 0.57108 0.0
C2077 C 0.90287 0.25735 0.54717 0.0
C2078 C 0.90897 0.26249 0.56575 0.0
H2079 H 0.89919 0.26267 0.53882 0.0
H2080 H 0.95233 0.28334 0.65558 0.0
H2081 H 0.9426 0.27484 0.62253 0.0
H2082 H 0.90763 0.2743 0.64034 0.0
H2083 H 0.91735 0.28287 0.67335 0.0
H2084 H 0.91004 0.27034 0.60482 0.0
H2085 H 0.92773 0.25841 0.6016 0.0
H2086 H 0.91726 0.23942 0.57711 0.0
H2087 H 0.90645 0.23032 0.54473 0.0
C2088 C 0.35683 0.29487 0.64914 0.0
C2089 C 0.34579 0.2957 0.65385 0.0
C2090 C 0.35771 0.2898 0.63063 0.0
C2091 C 0.34745 0.2852 0.61636 0.0
C2092 C 0.33656 0.28636 0.62087 0.0
C2093 C 0.33573 0.29155 0.63939 0.0
C2094 C 0.34782 0.27934 0.59663 0.0
C2095 C 0.35592 0.27472 0.59268 0.0
C2096 C 0.35642 0.26893 0.57304 0.0
C2097 C 0.36797 0.26927 0.56794 0.0
C2098 C 0.36884 0.2637 0.54987 0.0
C2099 C 0.35808 0.25748 0.53659 0.0
H2100 H 0.33643 0.26188 0.56338 0.0
C2101 C 0.34645 0.257 0.54175 0.0
C2102 C 0.34561 0.26268 0.55977 0.0
H2103 H 0.33801 0.2523 0.53177 0.0
H2104 H 0.36489 0.29819 0.65976 0.0
H2105 H 0.36655 0.28969 0.62768 0.0
H2106 H 0.32857 0.28306 0.61012 0.0
H2107 H 0.3271 0.29209 0.6425 0.0
H2108 H 0.34104 0.27873 0.58506 0.0
H2109 H 0.36274 0.27528 0.60411 0.0
H2110 H 0.3764 0.2739 0.57796 0.0
H2111 H 0.37788 0.26408 0.54644 0.0
C2112 C 0.7238 0.06478 0.60851 0.0
C2113 C 0.72323 0.05263 0.61082 0.0
C2114 C 0.7337 0.07469 0.59764 0.0
C2115 C 0.74318 0.07259 0.58876 0.0
C2116 C 0.74276 0.06058 0.59158 0.0
C2117 C 0.73288 0.05069 0.60237 0.0
C2118 C 0.75357 0.08248 0.57627 0.0
C2119 C 0.75273 0.09205 0.56672 0.0
C2120 C 0.76235 0.10044 0.55189 0.0
C2121 C 0.75828 0.10542 0.53619 0.0
C2122 C 0.76663 0.1121 0.52075 0.0
C2123 C 0.77926 0.11398 0.5208 0.0
H2124 H 0.77897 0.09995 0.56487 0.0
C2125 C 0.78359 0.10972 0.53712 0.0
C2126 C 0.77527 0.1031 0.55258 0.0
H2127 H 0.79338 0.11133 0.53778 0.0
H2128 H 0.71656 0.06661 0.61501 0.0
H2129 H 0.73388 0.08395 0.59634 0.0
H2130 H 0.74996 0.0587 0.58501 0.0
H2131 H 0.73272 0.04144 0.60377 0.0
H2132 H 0.76168 0.08096 0.57338 0.0
H2133 H 0.7441 0.09289 0.56809 0.0
H2134 H 0.74843 0.10365 0.5354 0.0
H2135 H 0.76301 0.11526 0.50835 0.0
C2136 C 0.91911 0.64942 0.64238 0.0
C2137 C 0.93238 0.6582 0.6464 0.0
C2138 C 0.91383 0.64789 0.62312 0.0
C2139 C 0.92168 0.65514 0.60738 0.0
C2140 C 0.93496 0.66379 0.6113 0.0
C2141 C 0.94025 0.66538 0.63062 0.0
C2142 C 0.91641 0.6535 0.58663 0.0
C2143 C 0.90393 0.64981 0.58234 0.0
C2144 C 0.89856 0.64802 0.56165 0.0
C2145 C 0.88781 0.64967 0.55807 0.0
C2146 C 0.88243 0.64796 0.53883 0.0
C2147 C 0.88755 0.64435 0.52278 0.0
H2148 H 0.91163 0.64251 0.54789 0.0
C2149 C 0.89815 0.64244 0.52641 0.0
C2150 C 0.9036 0.64425 0.54563 0.0
H2151 H 0.90233 0.63971 0.51432 0.0
H2152 H 0.91277 0.64365 0.6541 0.0
H2153 H 0.90364 0.64081 0.6206 0.0
H2154 H 0.94125 0.66939 0.5994 0.0
H2155 H 0.95053 0.67217 0.63314 0.0
H2156 H 0.92319 0.65597 0.5746 0.0
H2157 H 0.89748 0.64865 0.59439 0.0
H2158 H 0.88364 0.6524 0.57019 0.0
H2159 H 0.87417 0.64935 0.53652 0.0
C2160 C 0.92877 0.67124 0.73835 0.0
C2161 C 0.93873 0.68178 0.72836 0.0
C2162 C 0.92068 0.67328 0.75095 0.0
C2163 C 0.92254 0.68599 0.75415 0.0
C2164 C 0.932 0.69638 0.74325 0.0
C2165 C 0.94003 0.69432 0.7305 0.0
C2166 C 0.91526 0.68887 0.76933 0.0
C2167 C 0.91044 0.68157 0.78565 0.0
C2168 C 0.90462 0.68497 0.80254 0.0
C2169 C 0.89747 0.67519 0.81624 0.0
C2170 C 0.89296 0.67814 0.83353 0.0
C2171 C 0.89554 0.69101 0.83761 0.0
H2172 H 0.91258 0.70574 0.79644 0.0
C2173 C 0.90238 0.70076 0.82366 0.0
C2174 C 0.9069 0.6978 0.80632 0.0
H2175 H 0.90444 0.71075 0.82632 0.0
H2176 H 0.92738 0.66144 0.73689 0.0
H2177 H 0.91313 0.66487 0.75832 0.0
H2178 H 0.93353 0.70623 0.74521 0.0
H2179 H 0.94757 0.70264 0.72291 0.0
H2180 H 0.91469 0.69774 0.76759 0.0
H2181 H 0.91122 0.67282 0.78734 0.0
H2182 H 0.89565 0.66525 0.81383 0.0
H2183 H 0.8879 0.67043 0.84409 0.0
C2184 C 0.31342 0.26803 0.73269 0.0
C2185 C 0.32506 0.28017 0.73388 0.0
C2186 C 0.31203 0.25738 0.74363 0.0
C2187 C 0.32226 0.25869 0.75612 0.0
C2188 C 0.33402 0.27069 0.75675 0.0
C2189 C 0.33539 0.28132 0.74585 0.0
C2190 C 0.32112 0.24796 0.76895 0.0
C2191 C 0.30973 0.23801 0.77507 0.0
C2192 C 0.30891 0.22846 0.79012 0.0
C2193 C 0.2979 0.22237 0.80195 0.0
C2194 C 0.29726 0.21428 0.81747 0.0
C2195 C 0.30763 0.21206 0.82142 0.0
H2196 H 0.32735 0.22962 0.78404 0.0
C2197 C 0.31834 0.21756 0.80891 0.0
C2198 C 0.31895 0.22561 0.79335 0.0
H2199 H 0.32633 0.21576 0.8113 0.0
H2200 H 0.30531 0.26679 0.72344 0.0
H2201 H 0.30294 0.24819 0.74219 0.0
H2202 H 0.3421 0.27198 0.76611 0.0
H2203 H 0.34449 0.29052 0.74718 0.0
H2204 H 0.33013 0.24905 0.77499 0.0
H2205 H 0.30072 0.23753 0.77048 0.0
H2206 H 0.28995 0.22427 0.79966 0.0
H2207 H 0.28889 0.2102 0.82688 0.0
C2208 C 0.73817 0.04906 0.70251 0.0
C2209 C 0.72563 0.04542 0.69523 0.0
C2210 C 0.74314 0.05659 0.72016 0.0
C2211 C 0.73566 0.06064 0.731 0.0
C2212 C 0.72313 0.05696 0.72379 0.0
C2213 C 0.71812 0.04936 0.70618 0.0
C2214 C 0.74088 0.06925 0.74923 0.0
C2215 C 0.75029 0.06968 0.76121 0.0
C2216 C 0.75554 0.07845 0.77926 0.0
C2217 C 0.76046 0.0746 0.79533 0.0
C2218 C 0.7654 0.08256 0.8126 0.0
C2219 C 0.76572 0.09469 0.81406 0.0
H2220 H 0.75281 0.09419 0.76813 0.0
C2221 C 0.76112 0.0987 0.79771 0.0
C2222 C 0.75608 0.09068 0.78051 0.0
H2223 H 0.7615 0.10811 0.79811 0.0
H2224 H 0.74426 0.04626 0.69442 0.0
H2225 H 0.75297 0.05952 0.72488 0.0
H2226 H 0.7172 0.06003 0.73176 0.0
H2227 H 0.70846 0.04681 0.70098 0.0
H2228 H 0.73643 0.07506 0.75327 0.0
H2229 H 0.75386 0.06294 0.75838 0.0
H2230 H 0.76026 0.06528 0.79469 0.0
H2231 H 0.7687 0.07906 0.82496 0.0
C2232 C 0.04054 0.34522 0.00585 0.0
C2233 C 0.03253 0.34857 0.01664 0.0
C2234 C 0.0503 0.34394 0.01557 0.0
C2235 C 0.05232 0.34605 0.03635 0.0
C2236 C 0.04404 0.34896 0.04723 0.0
C2237 C 0.03428 0.35029 0.03748 0.0
C2238 C 0.06287 0.34514 0.04706 0.0
C2239 C 0.07404 0.34778 0.03839 0.0
C2240 C 0.0849 0.34747 0.04913 0.0
C2241 C 0.09759 0.35537 0.04251 0.0
C2242 C 0.1081 0.35559 0.05248 0.0
C2243 C 0.10612 0.34774 0.06912 0.0
H2244 H 0.07321 0.33286 0.07068 0.0
C2245 C 0.09338 0.33952 0.07537 0.0
C2246 C 0.08288 0.33938 0.0655 0.0
H2247 H 0.09155 0.33341 0.08821 0.0
H2248 H 0.03937 0.34367 0.98981 0.0
H2249 H 0.05615 0.3412 0.00674 0.0
H2250 H 0.04528 0.35048 0.06329 0.0
H2251 H 0.02822 0.3528 0.04624 0.0
H2252 H 0.06171 0.34307 0.06286 0.0
H2253 H 0.07571 0.35114 0.02316 0.0
H2254 H 0.09941 0.36157 0.02979 0.0
H2255 H 0.11779 0.36191 0.04718 0.0
C2256 C 0.64845 0.68921 0.03613 0.0
C2257 C 0.63652 0.68122 0.04519 0.0
C2258 C 0.65367 0.70283 0.03555 0.0
C2259 C 0.64712 0.70879 0.04422 0.0
C2260 C 0.63487 0.70072 0.05224 0.0
C2261 C 0.62964 0.68712 0.05276 0.0
C2262 C 0.65286 0.72332 0.04615 0.0
C2263 C 0.66572 0.73193 0.04577 0.0
C2264 C 0.67162 0.74603 0.05205 0.0
C2265 C 0.68451 0.75264 0.05941 0.0
C2266 C 0.68996 0.7653 0.06789 0.0
C2267 C 0.68266 0.77168 0.06908 0.0
H2268 H 0.65485 0.74826 0.04568 0.0
C2269 C 0.67006 0.76543 0.06051 0.0
C2270 C 0.66461 0.75276 0.05197 0.0
H2271 H 0.6643 0.77022 0.0608 0.0
H2272 H 0.65391 0.68498 0.02983 0.0
H2273 H 0.66288 0.70859 0.0285 0.0
H2274 H 0.62952 0.705 0.05881 0.0
H2275 H 0.62037 0.68129 0.05969 0.0
H2276 H 0.64632 0.72682 0.05033 0.0
H2277 H 0.67238 0.72833 0.04314 0.0
H2278 H 0.6902 0.74777 0.05949 0.0
H2279 H 0.69967 0.76979 0.07445 0.0
C2280 C 0.31011 0.96515 0.00207 0.0
C2281 C 0.32226 0.97062 0.01201 0.0
C2282 C 0.29866 0.95897 0.01273 0.0
C2283 C 0.29914 0.95809 0.03361 0.0
C2284 C 0.31129 0.96366 0.04354 0.0
C2285 C 0.32273 0.9698 0.03287 0.0
C2286 C 0.28724 0.95191 0.04559 0.0
C2287 C 0.27552 0.94264 0.03821 0.0
C2288 C 0.26379 0.93637 0.05054 0.0
C2289 C 0.25394 0.92349 0.04561 0.0
C2290 C 0.24295 0.91717 0.05727 0.0
C2291 C 0.24152 0.92369 0.07396 0.0
H2292 H 0.26937 0.95311 0.0708 0.0
C2293 C 0.25118 0.93673 0.0785 0.0
C2294 C 0.26219 0.94303 0.06691 0.0
H2295 H 0.25039 0.942 0.09131 0.0
H2296 H 0.3094 0.96571 0.98602 0.0
H2297 H 0.28952 0.95518 0.00457 0.0
H2298 H 0.31194 0.96322 0.05962 0.0
H2299 H 0.33194 0.97397 0.041 0.0
H2300 H 0.28837 0.95466 0.06136 0.0
H2301 H 0.27458 0.93889 0.023 0.0
H2302 H 0.25486 0.91822 0.03291 0.0
H2303 H 0.23558 0.90717 0.05325 0.0
C2304 C 0.37822 0.04787 0.9938 0.0
C2305 C 0.36893 0.03466 0.99694 0.0
C2306 C 0.37465 0.05752 0.99363 0.0
C2307 C 0.36171 0.05419 0.99639 0.0
C2308 C 0.35259 0.04116 0.00098 0.0
C2309 C 0.35617 0.03149 0.00122 0.0
C2310 C 0.358 0.06435 0.99285 0.0
C2311 C 0.34616 0.06137 0.98569 0.0
C2312 C 0.34353 0.0713 0.97665 0.0
C2313 C 0.33432 0.06723 0.96089 0.0
C2314 C 0.33291 0.07644 0.94987 0.0
C2315 C 0.34059 0.08996 0.95453 0.0
H2316 H 0.3574 0.08818 0.99482 0.0
C2317 C 0.34911 0.09396 0.97129 0.0
C2318 C 0.35056 0.08473 0.98227 0.0
H2319 H 0.35492 0.10427 0.9756 0.0
H2320 H 0.38818 0.05072 0.99072 0.0
H2321 H 0.38191 0.06752 0.99032 0.0
H2322 H 0.34263 0.03831 0.00395 0.0
H2323 H 0.34881 0.02146 0.00402 0.0
H2324 H 0.36579 0.07453 0.99331 0.0
H2325 H 0.3387 0.05113 0.98352 0.0
H2326 H 0.32869 0.05694 0.95635 0.0
H2327 H 0.32632 0.07298 0.937 0.0
C2328 C 0.95145 0.31297 0.99043 0.0
C2329 C 0.96484 0.31842 0.99427 0.0
C2330 C 0.94309 0.29938 0.99065 0.0
C2331 C 0.94793 0.29089 0.99478 0.0
C2332 C 0.96125 0.29635 -0.00087 0.0
C2333 C 0.96961 0.30997 -0.00095 0.0
C2334 C 0.93965 0.27636 0.99242 0.0
C2335 C 0.92665 0.26993 0.9942 0.0
C2336 C 0.91795 0.25597 0.98758 0.0
C2337 C 0.90491 0.25186 0.98287 0.0
C2338 C 0.89678 0.2395 0.97394 0.0
C2339 C 0.90147 0.23091 0.96964 0.0
H2340 H 0.93221 0.24953 0.9887 0.0
C2341 C 0.91424 0.23461 0.97569 0.0
C2342 C 0.9224 0.247 0.98462 0.0
H2343 H 0.91815 0.2282 0.97264 0.0
H2344 H 0.94743 0.31917 0.98668 0.0
H2345 H 0.93298 0.2956 0.98662 0.0
H2346 H 0.96525 0.29004 0.00217 0.0
H2347 H 0.97987 0.31382 0.00203 0.0
H2348 H 0.94451 0.27104 0.98793 0.0
H2349 H 0.922 0.27539 -0.00093 0.0
H2350 H 0.90114 0.25846 0.98524 0.0
H2351 H 0.88691 0.23683 0.96982 0.0
C2352 C 0.68337 0.6463 0.02645 0.0
C2353 C 0.67337 0.64839 0.01944 0.0
C2354 C 0.69471 0.65066 0.01573 0.0
C2355 C 0.69627 0.65715 0.99764 0.0
C2356 C 0.6862 0.6591 0.99057 0.0
C2357 C 0.67486 0.65473 0.00128 0.0
C2358 C 0.70846 0.66269 0.98631 0.0
C2359 C 0.71714 0.65853 0.98787 0.0
C2360 C 0.72957 0.6645 0.97705 0.0
C2361 C 0.73961 0.66249 0.98411 0.0
C2362 C 0.75152 0.66808 0.9746 0.0
C2363 C 0.75362 0.67581 0.95779 0.0
H2364 H 0.72403 0.67335 0.95333 0.0
C2365 C 0.7435 0.6776 0.95046 0.0
C2366 C 0.7316 0.67196 0.95987 0.0
H2367 H 0.74471 0.68321 0.9372 0.0
H2368 H 0.68257 0.64152 0.04046 0.0
H2369 H 0.70233 0.64926 0.02207 0.0
H2370 H 0.68716 0.66414 0.97675 0.0
H2371 H 0.66736 0.65653 0.99548 0.0
H2372 H 0.71024 0.6706 0.97641 0.0
H2373 H 0.71532 0.65061 0.99778 0.0
H2374 H 0.73831 0.6567 0.99719 0.0
H2375 H 0.75914 0.66653 0.98057 0.0
C2376 C 0.96535 0.65751 0.00331 0.0
C2377 C 0.96337 0.65131 0.02171 0.0
C2378 C 0.95634 0.66077 0.99566 0.0
C2379 C 0.94517 0.65793 0.00631 0.0
C2380 C 0.94303 0.65139 0.02439 0.0
C2381 C 0.95204 0.64817 0.03207 0.0
C2382 C 0.93547 0.66146 0.99893 0.0
C2383 C 0.93852 0.67163 0.98689 0.0
C2384 C 0.9291 0.67557 0.97961 0.0
C2385 C 0.93399 0.68819 0.97193 0.0
C2386 C 0.92564 0.6922 0.96407 0.0
C2387 C 0.91213 0.68367 0.9636 0.0
H2388 H 0.91134 0.65713 0.98463 0.0
C2389 C 0.90718 0.67107 0.97145 0.0
C2390 C 0.91556 0.66704 0.97932 0.0
H2391 H 0.89683 0.66426 0.97136 0.0
H2392 H 0.9739 0.65995 0.99485 0.0
H2393 H 0.95813 0.66538 0.98132 0.0
H2394 H 0.93445 0.64894 0.03279 0.0
H2395 H 0.95016 0.64331 0.04622 0.0
H2396 H 0.92575 0.65595 0.00464 0.0
H2397 H 0.94855 0.67779 0.98275 0.0
H2398 H 0.94436 0.69495 0.97179 0.0
H2399 H 0.92983 0.70187 0.95779 0.0
C2400 C 0.35783 0.30773 0.99348 0.0
C2401 C 0.37102 0.31615 0.98965 0.0
C2402 C 0.35253 0.29408 0.99282 0.0
C2403 C 0.36034 0.28854 0.98827 0.0
C2404 C 0.37368 0.29701 0.98582 0.0
C2405 C 0.37896 0.31063 0.98645 0.0
C2406 C 0.35503 0.27421 0.98423 0.0
C2407 C 0.34232 0.26536 0.98127 0.0
C2408 C 0.33771 0.25204 0.9723 0.0
C2409 C 0.32513 0.24182 0.97605 0.0
C2410 C 0.32002 0.22964 0.96593 0.0
C2411 C 0.32733 0.22752 0.95157 0.0
H2412 H 0.35467 0.25755 0.95443 0.0
C2413 C 0.34001 0.23771 0.94814 0.0
C2414 C 0.34514 0.2498 0.95835 0.0
H2415 H 0.34582 0.23662 0.93682 0.0
H2416 H 0.35146 0.31166 0.99626 0.0
H2417 H 0.34229 0.28802 0.99541 0.0
H2418 H 0.37999 0.29309 0.9825 0.0
H2419 H 0.3892 0.3168 0.98368 0.0
H2420 H 0.36206 0.27104 0.98189 0.0
H2421 H 0.33497 0.26798 0.98427 0.0
H2422 H 0.31916 0.24333 0.98658 0.0
H2423 H 0.31026 0.22199 0.9691 0.0
C2424 C 0.68229 0.03399 0.01909 0.0
C2425 C 0.66975 0.02732 0.01029 0.0
C2426 C 0.69299 0.04222 0.00782 0.0
C2427 C 0.69137 0.044 0.98749 0.0
C2428 C 0.67888 0.03715 0.97864 0.0
C2429 C 0.66816 0.02895 0.98992 0.0
C2430 C 0.70248 0.05262 0.97492 0.0
C2431 C 0.71363 0.06286 0.9823 0.0
C2432 C 0.72448 0.07167 0.96948 0.0
C2433 C 0.73291 0.08471 0.97601 0.0
C2434 C 0.743 0.09337 0.96406 0.0
C2435 C 0.74496 0.0891 0.94542 0.0
H2436 H 0.72066 0.05722 0.94578 0.0
C2437 C 0.73677 0.07593 0.93915 0.0
C2438 C 0.72667 0.0673 0.95106 0.0
H2439 H 0.73798 0.07235 0.92482 0.0
H2440 H 0.68386 0.03286 0.03472 0.0
H2441 H 0.7025 0.04697 0.01506 0.0
H2442 H 0.67737 0.03824 0.96296 0.0
H2443 H 0.65864 0.0239 0.98265 0.0
H2444 H 0.70105 0.05086 0.95888 0.0
H2445 H 0.7146 0.06546 0.9981 0.0
H2446 H 0.73155 0.08828 0.99026 0.0
H2447 H 0.74927 0.1034 0.96943 0.0
C2448 C 0.62572 0.94928 0.03843 0.0
C2449 C 0.63233 0.96218 0.03145 0.0
C2450 C 0.63173 0.94167 0.03901 0.0
C2451 C 0.64451 0.94675 0.03241 0.0
C2452 C 0.65081 0.95937 0.02439 0.0
C2453 C 0.64482 0.967 0.02391 0.0
C2454 C 0.65214 0.94 0.03572 0.0
C2455 C 0.64711 0.92762 0.04219 0.0
C2456 C 0.65513 0.92211 0.05004 0.0
C2457 C 0.64917 0.9085 0.05285 0.0
C2458 C 0.65579 0.90314 0.06281 0.0
C2459 C 0.66854 0.91131 0.07023 0.0
H2460 H 0.67298 0.94078 0.0557 0.0
C2461 C 0.67468 0.92485 0.06676 0.0
C2462 C 0.66806 0.93021 0.05689 0.0
H2463 H 0.68441 0.93146 0.07263 0.0
H2464 H 0.61608 0.94522 0.04432 0.0
H2465 H 0.62646 0.93212 0.04556 0.0
H2466 H 0.66063 0.96357 0.01919 0.0
H2467 H 0.65018 0.97686 0.01831 0.0
H2468 H 0.66252 0.94585 0.03364 0.0
H2469 H 0.63668 0.92129 0.04265 0.0
H2470 H 0.6392 0.90202 0.04786 0.0
H2471 H 0.65083 0.89265 0.0651 0.0
C2472 C 0.03272 0.69447 0.02094 0.0
C2473 C 0.03631 0.68475 0.01971 0.0
C2474 C 0.04203 0.70776 0.01898 0.0
C2475 C 0.05509 0.71154 0.01564 0.0
C2476 C 0.05836 0.70171 0.01279 0.0
C2477 C 0.04913 0.68849 0.01494 0.0
C2478 C 0.06585 0.72545 0.0168 0.0
C2479 C 0.06528 0.73513 0.027 0.0
C2480 C 0.07711 0.74757 0.03356 0.0
C2481 C 0.07625 0.75885 0.03775 0.0
C2482 C 0.08674 0.77004 0.04681 0.0
C2483 C 0.09824 0.77008 0.05226 0.0
H2484 H 0.08972 0.73918 0.03595 0.0
C2485 C 0.09918 0.75889 0.04744 0.0
C2486 C 0.08879 0.74781 0.03821 0.0
H2487 H 0.10766 0.75831 0.05184 0.0
H2488 H 0.02289 0.69189 0.02441 0.0
H2489 H 0.039 0.715 0.02062 0.0
H2490 H 0.06828 0.70428 0.00997 0.0
H2491 H 0.05217 0.68123 0.01357 0.0
H2492 H 0.07513 0.72739 0.01116 0.0
H2493 H 0.05609 0.7336 0.03237 0.0
H2494 H 0.06733 0.75889 0.03448 0.0
H2495 H 0.08569 0.77852 0.05003 0.0
C2496 C 0.31908 0.3364 0.99133 0.0
C2497 C 0.33083 0.34197 0.00249 0.0
C2498 C 0.30759 0.33392 0.00031 0.0
C2499 C 0.3076 0.337 0.02068 0.0
C2500 C 0.31925 0.34218 0.03196 0.0
C2501 C 0.33077 0.34473 0.02296 0.0
C2502 C 0.2957 0.33495 0.03064 0.0
C2503 C 0.28595 0.33546 0.02097 0.0
C2504 C 0.27487 0.33501 0.03152 0.0
C2505 C 0.2693 0.34223 0.02415 0.0
C2506 C 0.25971 0.34306 0.03475 0.0
C2507 C 0.25534 0.33647 0.05275 0.0
H2508 H 0.27383 0.32187 0.05476 0.0
C2509 C 0.26034 0.32858 0.05949 0.0
C2510 C 0.27003 0.32786 0.049 0.0
H2511 H 0.25718 0.32342 0.07334 0.0
H2512 H 0.31876 0.33403 0.97557 0.0
H2513 H 0.29873 0.32952 0.99126 0.0
H2514 H 0.31951 0.34453 0.04772 0.0
H2515 H 0.33963 0.34893 0.03201 0.0
H2516 H 0.29552 0.33415 0.04677 0.0
H2517 H 0.2867 0.3376 0.00519 0.0
H2518 H 0.27274 0.34768 0.01058 0.0
H2519 H 0.25592 0.3491 0.02911 0.0
C2520 C 0.70005 0.67836 0.35492 0.0
C2521 C 0.70077 0.68217 0.33501 0.0
C2522 C 0.7087 0.67459 0.36258 0.0
C2523 C 0.71829 0.67463 0.35046 0.0
C2524 C 0.71892 0.6784 0.33057 0.0
C2525 C 0.71032 0.68217 0.32296 0.0
C2526 C 0.72748 0.67035 0.35759 0.0
C2527 C 0.73065 0.67029 0.37696 0.0
C2528 C 0.73988 0.66602 0.38394 0.0
C2529 C 0.74578 0.67022 0.40298 0.0
C2530 C 0.75414 0.66609 0.41045 0.0
C2531 C 0.75677 0.65757 0.39909 0.0
H2532 H 0.73794 0.65371 0.35799 0.0
C2533 C 0.75091 0.65338 0.37998 0.0
C2534 C 0.74253 0.65751 0.3725 0.0
H2535 H 0.75273 0.64682 0.37083 0.0
H2536 H 0.69274 0.67815 0.36455 0.0
H2537 H 0.70761 0.6714 0.37782 0.0
H2538 H 0.72612 0.67845 0.32084 0.0
H2539 H 0.71115 0.68501 0.30752 0.0
H2540 H 0.73223 0.66773 0.34621 0.0
H2541 H 0.7268 0.67403 0.38825 0.0
H2542 H 0.74383 0.67667 0.41222 0.0
H2543 H 0.75826 0.66931 0.42539 0.0
C2544 C 0.29822 0.02125 0.38628 0.0
C2545 C 0.30468 0.0151 0.37801 0.0
C2546 C 0.30388 0.03493 0.38642 0.0
C2547 C 0.31611 0.04281 0.37808 0.0
C2548 C 0.32235 0.03663 0.36924 0.0
C2549 C 0.31671 0.02294 0.36915 0.0
C2550 C 0.32324 0.05743 0.38014 0.0
C2551 C 0.31757 0.06458 0.38474 0.0
C2552 C 0.32493 0.07883 0.39051 0.0
C2553 C 0.31829 0.08591 0.39102 0.0
C2554 C 0.32433 0.09878 0.39891 0.0
C2555 C 0.33716 0.10485 0.40654 0.0
H2556 H 0.34337 0.07999 0.39798 0.0
C2557 C 0.34398 0.09797 0.40531 0.0
C2558 C 0.33794 0.08511 0.39748 0.0
H2559 H 0.35378 0.10225 0.41142 0.0
H2560 H 0.28897 0.01554 0.3933 0.0
H2561 H 0.29883 0.03921 0.39387 0.0
H2562 H 0.33181 0.04242 0.36282 0.0
H2563 H 0.32197 0.01856 0.36259 0.0
H2564 H 0.33365 0.06239 0.37819 0.0
H2565 H 0.30707 0.05981 0.38484 0.0
H2566 H 0.30826 0.08133 0.38585 0.0
H2567 H 0.31885 0.10385 0.39951 0.0
C2568 C 0.9956 0.30277 0.35585 0.0
C2569 C 0.99845 0.29832 0.33809 0.0
C2570 C 0.98376 0.29511 0.36502 0.0
C2571 C 0.97449 0.28282 0.35659 0.0
C2572 C 0.97753 0.27818 0.33926 0.0
C2573 C 0.98934 0.28587 0.33001 0.0
C2574 C 0.96172 0.27449 0.36572 0.0
C2575 C 0.95563 0.27953 0.37636 0.0
C2576 C 0.94303 0.2714 0.38616 0.0
C2577 C 0.93983 0.27707 0.40207 0.0
C2578 C 0.92838 0.2697 0.41231 0.0
C2579 C 0.91977 0.25649 0.40674 0.0
H2580 H 0.93601 0.25368 0.36746 0.0
C2581 C 0.92272 0.25093 0.39036 0.0
C2582 C 0.9342 0.2583 0.38011 0.0
H2583 H 0.91616 0.24086 0.38546 0.0
H2584 H 0.00246 0.31227 0.36257 0.0
H2585 H 0.98199 0.29882 0.37879 0.0
H2586 H 0.97064 0.26867 0.33262 0.0
H2587 H 0.99126 0.28211 0.31641 0.0
H2588 H 0.95724 0.26394 0.36324 0.0
H2589 H 0.96018 0.29012 0.37852 0.0
H2590 H 0.94639 0.28715 0.40696 0.0
H2591 H 0.92647 0.27426 0.42499 0.0
C2592 C 0.03617 0.38082 0.31507 0.0
C2593 C 0.02983 0.36736 0.31925 0.0
C2594 C 0.02934 0.38762 0.31467 0.0
C2595 C 0.01599 0.38113 0.31858 0.0
C2596 C 0.00978 0.36782 0.32352 0.0
C2597 C 0.01662 0.36101 0.32395 0.0
C2598 C 0.00796 0.38742 0.31525 0.0
C2599 C 0.01291 0.40052 0.31456 0.0
C2600 C 0.00551 0.40667 0.30665 0.0
C2601 C 0.01015 0.42007 0.31085 0.0
C2602 C 0.00463 0.42667 0.3013 0.0
C2603 C 0.99439 0.42001 0.28718 0.0
H2604 H 0.99124 0.38969 0.28894 0.0
C2605 C 0.9894 0.40648 0.28359 0.0
C2606 C 0.9949 0.39989 0.29315 0.0
H2607 H 0.98172 0.4011 0.27251 0.0
H2608 H 0.04633 0.38604 0.31138 0.0
H2609 H 0.03447 0.39777 0.31027 0.0
H2610 H 0.9995 0.36254 0.32647 0.0
H2611 H 0.01142 0.35065 0.32728 0.0
H2612 H 0.99764 0.38088 0.31252 0.0
H2613 H 0.02294 0.40711 0.31921 0.0
H2614 H 0.01835 0.42556 0.3211 0.0
H2615 H 0.00862 0.43707 0.30455 0.0
C2616 C 0.63388 0.64461 0.32992 0.0
C2617 C 0.63007 0.65341 0.32284 0.0
C2618 C 0.62498 0.6311 0.33026 0.0
C2619 C 0.61207 0.62607 0.32328 0.0
C2620 C 0.60816 0.63496 0.31716 0.0
C2621 C 0.61702 0.64844 0.31691 0.0
C2622 C 0.60249 0.61172 0.32124 0.0
C2623 C 0.60575 0.60224 0.32094 0.0
C2624 C 0.59653 0.58826 0.31497 0.0
C2625 C 0.60167 0.58053 0.30793 0.0
C2626 C 0.59353 0.56786 0.30004 0.0
C2627 C 0.58 0.56255 0.29909 0.0
H2628 H 0.5785 0.58801 0.32117 0.0
C2629 C 0.57478 0.56996 0.30718 0.0
C2630 C 0.58293 0.58265 0.31515 0.0
H2631 H 0.56438 0.56603 0.30702 0.0
H2632 H 0.64381 0.64811 0.33489 0.0
H2633 H 0.62837 0.62473 0.33582 0.0
H2634 H 0.59828 0.63145 0.31192 0.0
H2635 H 0.61367 0.6549 0.31152 0.0
H2636 H 0.59253 0.60908 0.31782 0.0
H2637 H 0.61584 0.60494 0.32301 0.0
H2638 H 0.61207 0.58451 0.30773 0.0
H2639 H 0.5979 0.56249 0.29379 0.0
C2640 C 0.35359 0.99143 0.35867 0.0
C2641 C 0.34125 0.98655 0.34956 0.0
C2642 C 0.36392 0.99243 0.34775 0.0
C2643 C 0.36212 0.98852 0.32746 0.0
C2644 C 0.34994 0.98417 0.31816 0.0
C2645 C 0.33957 0.98311 0.32911 0.0
C2646 C 0.37271 0.98881 0.31566 0.0
C2647 C 0.38218 0.98714 0.32388 0.0
C2648 C 0.39219 0.98635 0.312 0.0
C2649 C 0.39769 0.97902 0.31923 0.0
C2650 C 0.40677 0.97761 0.30812 0.0
C2651 C 0.4107 0.98369 0.28966 0.0
H2652 H 0.39268 0.99881 0.28801 0.0
C2653 C 0.40555 0.99141 0.28274 0.0
C2654 C 0.39639 0.99275 0.29378 0.0
H2655 H 0.40835 0.99618 0.26852 0.0
H2656 H 0.35526 0.99432 0.37434 0.0
H2657 H 0.37328 0.99628 0.35527 0.0
H2658 H 0.34834 0.98125 0.30249 0.0
H2659 H 0.33021 0.97941 0.32162 0.0
H2660 H 0.37204 0.98936 0.29956 0.0
H2661 H 0.38205 0.98525 0.3397 0.0
H2662 H 0.39474 0.97413 0.33333 0.0
H2663 H 0.4107 0.97173 0.31394 0.0
C2664 C 0.62246 0.96629 0.33265 0.0
C2665 C 0.6356 0.97586 0.33569 0.0
C2666 C 0.61352 0.96974 0.32542 0.0
C2667 C 0.61754 0.98287 0.32084 0.0
C2668 C 0.63072 0.99239 0.32359 0.0
C2669 C 0.63966 0.98893 0.33087 0.0
C2670 C 0.60825 0.98714 0.31421 0.0
C2671 C 0.5964 0.97891 0.30603 0.0
C2672 C 0.58711 0.98321 0.2996 0.0
C2673 C 0.57769 0.97575 0.28475 0.0
C2674 C 0.56883 0.97947 0.27815 0.0
C2675 C 0.56906 0.99067 0.28642 0.0
H2676 H 0.594 -0.0 0.32021 0.0
C2677 C 0.57829 0.99796 0.30167 0.0
C2678 C 0.5872 0.99426 0.30822 0.0
H2679 H 0.57859 0.00649 0.30863 0.0
H2680 H 0.61897 0.95614 0.33637 0.0
H2681 H 0.60344 0.96212 0.3241 0.0
H2682 H 0.63411 0.00258 0.3203 0.0
H2683 H 0.6497 0.99657 0.33309 0.0
H2684 H 0.61153 0.99757 0.31557 0.0
H2685 H 0.59353 0.9687 0.30292 0.0
H2686 H 0.57732 0.96713 0.27795 0.0
H2687 H 0.562 0.97372 0.26618 0.0
C2688 C 0.04742 0.6562 0.32849 0.0
C2689 C 0.03805 0.6601 0.32967 0.0
C2690 C 0.04383 0.64294 0.32914 0.0
C2691 C 0.03073 0.6332 0.33112 0.0
C2692 C 0.02148 0.63718 0.33348 0.0
C2693 C 0.02509 0.65049 0.33286 0.0
C2694 C 0.02616 0.61892 0.32803 0.0
C2695 C 0.0341 0.61382 0.32846 0.0
C2696 C 0.03037 0.60076 0.31933 0.0
C2697 C 0.0399 0.59932 0.30949 0.0
C2698 C 0.03658 0.58797 0.29813 0.0
C2699 C 0.02364 0.57758 0.29668 0.0
H2700 H 0.01003 0.59078 0.32686 0.0
C2701 C 0.01424 0.57865 0.30778 0.0
C2702 C 0.01755 0.59015 0.3189 0.0
H2703 H 0.00425 0.57074 0.30753 0.0
H2704 H 0.05751 0.66334 0.32612 0.0
H2705 H 0.05133 0.64047 0.32686 0.0
H2706 H 0.01132 0.62993 0.33495 0.0
H2707 H 0.01761 0.65314 0.33385 0.0
H2708 H 0.01608 0.61267 0.32329 0.0
H2709 H 0.04418 0.61993 0.33322 0.0
H2710 H 0.04986 0.60734 0.30963 0.0
H2711 H 0.04412 0.5877 0.28966 0.0
C2712 C 0.35724 0.37823 0.35984 0.0
C2713 C 0.34504 0.37186 0.34994 0.0
C2714 C 0.36858 0.38527 0.34914 0.0
C2715 C 0.36794 0.38612 0.32826 0.0
C2716 C 0.35573 0.37996 0.31846 0.0
C2717 C 0.3444 0.37296 0.32916 0.0
C2718 C 0.37973 0.39239 0.31602 0.0
C2719 C 0.39162 0.4014 0.32317 0.0
C2720 C 0.40335 0.40667 0.31081 0.0
C2721 C 0.41386 0.41932 0.31513 0.0
C2722 C 0.4251 0.42439 0.30391 0.0
C2723 C 0.42611 0.41679 0.28839 0.0
H2724 H 0.39671 0.3891 0.29197 0.0
C2725 C 0.41565 0.40407 0.28425 0.0
C2726 C 0.40442 0.39905 0.29535 0.0
H2727 H 0.41609 0.39801 0.2723 0.0
H2728 H 0.35807 0.37753 0.37583 0.0
H2729 H 0.37779 0.38957 0.35723 0.0
H2730 H 0.35494 0.38038 0.3024 0.0
H2731 H 0.33516 0.36817 0.32105 0.0
H2732 H 0.37846 0.38951 0.30029 0.0
H2733 H 0.39283 0.40534 0.33831 0.0
H2734 H 0.41335 0.42532 0.32713 0.0
H2735 H 0.43306 0.43417 0.30757 0.0
C2736 C 0.30088 0.29232 0.36179 0.0
C2737 C 0.308 0.30602 0.35957 0.0
C2738 C 0.30719 0.28501 0.36299 0.0
C2739 C 0.32079 0.29124 0.36186 0.0
C2740 C 0.3278 0.3048 0.35849 0.0
C2741 C 0.32149 0.3121 0.35726 0.0
C2742 C 0.32813 0.28443 0.36685 0.0
C2743 C 0.3229 0.27125 0.36647 0.0
C2744 C 0.32928 0.26449 0.37601 0.0
C2745 C 0.3215 0.25132 0.38135 0.0
C2746 C 0.32665 0.24512 0.39288 0.0
C2747 C 0.33974 0.25196 0.39937 0.0
H2748 H 0.34916 0.28093 0.37675 0.0
C2749 C 0.34774 0.26483 0.39286 0.0
C2750 C 0.34262 0.27099 0.38119 0.0
H2751 H 0.35787 0.27044 0.39751 0.0
H2752 H 0.29047 0.28729 0.36358 0.0
H2753 H 0.30139 0.27466 0.36601 0.0
H2754 H 0.33828 0.30987 0.35761 0.0
H2755 H 0.3273 0.32262 0.35545 0.0
H2756 H 0.33799 0.29071 0.37244 0.0
H2757 H 0.31307 0.26506 0.3606 0.0
H2758 H 0.31125 0.24597 0.37732 0.0
H2759 H 0.32028 0.23508 0.39715 0.0
C2760 C 0.70573 0.0229 0.36012 0.0
C2761 C 0.7091 0.01319 0.36354 0.0
C2762 C 0.71538 0.03613 0.35881 0.0
C2763 C 0.72859 0.03987 0.36088 0.0
C2764 C 0.73191 0.03005 0.36302 0.0
C2765 C 0.72231 0.01689 0.36447 0.0
C2766 C 0.73919 0.05384 0.36208 0.0
C2767 C 0.73753 0.06372 0.36903 0.0
C2768 C 0.7486 0.07677 0.37549 0.0
C2769 C 0.74677 0.08367 0.39118 0.0
C2770 C 0.7573 0.09489 0.39992 0.0
C2771 C 0.76992 0.09957 0.393 0.0
H2772 H 0.76276 0.07724 0.35493 0.0
C2773 C 0.7716 0.09325 0.37627 0.0
C2774 C 0.76105 0.08198 0.36755 0.0
H2775 H 0.78114 0.09679 0.37025 0.0
H2776 H 0.69565 0.02037 0.35911 0.0
H2777 H 0.71243 0.04336 0.35648 0.0
H2778 H 0.74199 0.03261 0.36443 0.0
H2779 H 0.72527 0.00966 0.3668 0.0
H2780 H 0.74896 0.05565 0.35986 0.0
H2781 H 0.72789 0.06167 0.37292 0.0
H2782 H 0.73728 0.07996 0.39749 0.0
H2783 H 0.75561 0.09941 0.41287 0.0
C2784 C 0.99322 0.68429 0.35879 0.0
C2785 C 0.00102 0.69705 0.35177 0.0
C2786 C 0.98115 0.68057 0.36685 0.0
C2787 C 0.97654 0.68951 0.36793 0.0
C2788 C 0.98457 0.70241 0.36166 0.0
C2789 C 0.99665 0.70614 0.35359 0.0
C2790 C 0.96352 0.68579 0.37563 0.0
C2791 C 0.9535 0.67333 0.37495 0.0
C2792 C 0.94046 0.66933 0.38277 0.0
C2793 C 0.93266 0.65627 0.38845 0.0
C2794 C 0.92037 0.65199 0.39601 0.0
C2795 C 0.91545 0.66062 0.39781 0.0
H2796 H 0.94106 0.68801 0.37946 0.0
C2797 C 0.92315 0.67366 0.39175 0.0
C2798 C 0.93553 0.67798 0.38429 0.0
H2799 H 0.91959 0.68051 0.39263 0.0
H2800 H 0.99637 0.6771 0.35785 0.0
H2801 H 0.97554 0.6707 0.37229 0.0
H2802 H 0.98136 0.70955 0.36258 0.0
H2803 H 0.00245 0.71607 0.34844 0.0
H2804 H 0.96217 0.69365 0.38163 0.0
H2805 H 0.95486 0.66552 0.36879 0.0
H2806 H 0.93618 0.64938 0.38738 0.0
H2807 H 0.91487 0.64195 0.40088 0.0
C2808 C 0.37182 0.01481 0.69555 0.0
C2809 C 0.37637 0.028 0.69087 0.0
C2810 C 0.38018 0.01102 0.70419 0.0
C2811 C 0.39334 0.02035 0.7082 0.0
C2812 C 0.39772 0.0336 0.70426 0.0
C2813 C 0.38936 0.03739 0.69564 0.0
C2814 C 0.40275 0.01671 0.71658 0.0
C2815 C 0.40111 0.00451 0.71489 0.0
C2816 C 0.41044 0.00081 0.72324 0.0
C2817 C 0.40577 0.98768 0.72826 0.0
C2818 C 0.41411 0.9837 0.73625 0.0
C2819 C 0.42745 0.99272 0.73911 0.0
H2820 H 0.42786 0.01997 0.72151 0.0
C2821 C 0.43221 0.00584 0.73367 0.0
C2822 C 0.42381 0.00985 0.72582 0.0
H2823 H 0.44244 0.013 0.73534 0.0
H2824 H 0.36183 0.00735 0.6923 0.0
H2825 H 0.37622 0.00079 0.70772 0.0
H2826 H 0.40774 0.04103 0.70744 0.0
H2827 H 0.39318 0.04766 0.69235 0.0
H2828 H 0.41145 0.02448 0.72403 0.0
H2829 H 0.39243 0.9967 0.70744 0.0
H2830 H 0.39554 0.98049 0.72635 0.0
H2831 H 0.41 0.97358 0.7406 0.0
C2832 C 0.97587 0.34826 0.70763 0.0
C2833 C 0.96379 0.33907 0.71518 0.0
C2834 C 0.97952 0.36157 0.70671 0.0
C2835 C 0.97117 0.36598 0.71349 0.0
C2836 C 0.95889 0.35668 0.72017 0.0
C2837 C 0.95524 0.34341 0.72105 0.0
C2838 C 0.97491 0.38013 0.71475 0.0
C2839 C 0.98725 0.39021 0.71457 0.0
C2840 C 0.9909 0.40397 0.72023 0.0
C2841 C 0.0034 0.41239 0.72837 0.0
C2842 C 0.00662 0.42468 0.73668 0.0
C2843 C 0.99741 0.42881 0.73697 0.0
H2844 H 0.97253 0.40271 0.71203 0.0
C2845 C 0.98525 0.42085 0.72746 0.0
C2846 C 0.98205 0.4086 0.71901 0.0
H2847 H 0.97806 0.42393 0.72709 0.0
H2848 H 0.98263 0.34523 0.70271 0.0
H2849 H 0.9889 0.36828 0.70082 0.0
H2850 H 0.95218 0.35972 0.72531 0.0
H2851 H 0.94581 0.33663 0.72678 0.0
H2852 H 0.96719 0.38216 0.71814 0.0
H2853 H 0.99514 0.38822 0.71267 0.0
H2854 H 0.01048 0.40918 0.72928 0.0
H2855 H 0.01607 0.43058 0.74395 0.0
C2856 C 0.64893 0.63612 0.67652 0.0
C2857 C 0.66053 0.63672 0.68286 0.0
C2858 C 0.63766 0.6293 0.6874 0.0
C2859 C 0.63769 0.62281 0.70485 0.0
C2860 C 0.64934 0.62359 0.71134 0.0
C2861 C 0.66063 0.63043 0.70046 0.0
C2862 C 0.62594 0.61548 0.717 0.0
C2863 C 0.61371 0.61076 0.70984 0.0
C2864 C 0.60203 0.60364 0.72217 0.0
C2865 C 0.59064 0.60367 0.71647 0.0
C2866 C 0.5795 0.59726 0.72779 0.0
C2867 C 0.57946 0.59054 0.74496 0.0
H2868 H 0.61033 0.59604 0.7437 0.0
C2869 C 0.59077 0.59024 0.75041 0.0
C2870 C 0.60192 0.59668 0.73913 0.0
H2871 H 0.59108 0.5852 0.76361 0.0
H2872 H 0.64855 0.64098 0.66314 0.0
H2873 H 0.62906 0.6294 0.68219 0.0
H2874 H 0.6497 0.61881 0.72483 0.0
H2875 H 0.66942 0.63075 0.70581 0.0
H2876 H 0.62756 0.6139 0.73244 0.0
H2877 H 0.61203 0.61234 0.69444 0.0
H2878 H 0.5904 0.60881 0.70334 0.0
H2879 H 0.57089 0.59751 0.72304 0.0
C2880 C 0.71043 0.70922 0.6537 0.0
C2881 C 0.70185 0.69585 0.65706 0.0
C2882 C 0.70588 0.71809 0.65244 0.0
C2883 C 0.69261 0.71377 0.65455 0.0
C2884 C 0.68414 0.70054 0.65881 0.0
C2885 C 0.68871 0.69168 0.6602 0.0
C2886 C 0.68708 0.72231 0.64972 0.0
C2887 C 0.69412 0.73554 0.65008 0.0
C2888 C 0.68958 0.74387 0.64041 0.0
C2889 C 0.69526 0.75717 0.6463 0.0
C2890 C 0.6926 0.7657 0.63554 0.0
C2891 C 0.68435 0.76113 0.61845 0.0
H2892 H 0.67666 0.72911 0.61836 0.0
C2893 C 0.67834 0.7477 0.613 0.0
C2894 C 0.68091 0.73918 0.62382 0.0
H2895 H 0.67218 0.74386 0.59969 0.0
H2896 H 0.72062 0.71279 0.65126 0.0
H2897 H 0.7127 0.72811 0.64866 0.0
H2898 H 0.67386 0.69693 0.66037 0.0
H2899 H 0.68181 0.68145 0.66282 0.0
H2900 H 0.67697 0.71743 0.64474 0.0
H2901 H 0.7038 0.74051 0.6569 0.0
H2902 H 0.70203 0.76106 0.65893 0.0
H2903 H 0.69727 0.77595 0.64032 0.0
C2904 C 0.30751 0.98212 0.66267 0.0
C2905 C 0.30428 0.99145 0.656 0.0
C2906 C 0.29796 0.96884 0.66376 0.0
C2907 C 0.28498 0.96461 0.6581 0.0
C2908 C 0.28171 0.97406 0.65241 0.0
C2909 C 0.29121 0.98728 0.6513 0.0
C2910 C 0.27459 0.95051 0.65708 0.0
C2911 C 0.27685 0.94037 0.65563 0.0
C2912 C 0.26648 0.92665 0.65034 0.0
C2913 C 0.26999 0.91821 0.64076 0.0
C2914 C 0.26049 0.90591 0.63307 0.0
C2915 C 0.24725 0.90175 0.63487 0.0
H2916 H 0.2501 0.92798 0.66155 0.0
C2917 C 0.24373 0.90979 0.64568 0.0
C2918 C 0.25323 0.92207 0.65347 0.0
H2919 H 0.23361 0.90671 0.64768 0.0
H2920 H 0.31746 0.98502 0.66665 0.0
H2921 H 0.30087 0.96199 0.66888 0.0
H2922 H 0.27179 0.97115 0.64817 0.0
H2923 H 0.28831 0.99418 0.64631 0.0
H2924 H 0.26472 0.94861 0.65524 0.0
H2925 H 0.28677 0.9423 0.65591 0.0
H2926 H 0.2801 0.92139 0.63832 0.0
H2927 H 0.26354 0.89999 0.62474 0.0
C2928 C 0.00899 0.31634 0.67822 0.0
C2929 C 0.99801 0.30381 0.67498 0.0
C2930 C 0.02066 0.31965 0.66908 0.0
C2931 C 0.02161 0.31048 0.6565 0.0
C2932 C 0.01052 0.29814 0.65271 0.0
C2933 C 0.99887 0.29479 0.66196 0.0
C2934 C 0.03388 0.31358 0.6467 0.0
C2935 C 0.04571 0.322 0.6548 0.0
C2936 C 0.05812 0.32553 0.64499 0.0
C2937 C 0.06935 0.33725 0.65107 0.0
C2938 C 0.0811 0.3413 0.64168 0.0
C2939 C 0.08192 0.33365 0.62604 0.0
H2940 H 0.0508 0.30827 0.62516 0.0
C2941 C 0.07081 0.32166 0.62048 0.0
C2942 C 0.05906 0.3176 0.62988 0.0
H2943 H 0.07107 0.31555 0.60843 0.0
H2944 H 0.00863 0.32357 0.68803 0.0
H2945 H 0.02885 0.32943 0.67178 0.0
H2946 H 0.01095 0.29097 0.64285 0.0
H2947 H 0.99057 0.28509 0.65904 0.0
H2948 H 0.03299 0.30855 0.63256 0.0
H2949 H 0.04642 0.32685 0.66907 0.0
H2950 H 0.06898 0.34347 0.66287 0.0
H2951 H 0.08953 0.3505 0.64654 0.0
C2952 C 0.29895 0.32229 0.66585 0.0
C2953 C 0.30086 0.32281 0.68666 0.0
C2954 C 0.28918 0.32421 0.65749 0.0
C2955 C 0.28115 0.32673 0.66982 0.0
C2956 C 0.28316 0.32734 0.69058 0.0
C2957 C 0.29293 0.32548 0.6989 0.0
C2958 C 0.27012 0.32801 0.66183 0.0
C2959 C 0.26938 0.33164 0.64311 0.0
C2960 C 0.25807 0.33247 0.63517 0.0
C2961 C 0.25981 0.34059 0.61901 0.0
C2962 C 0.24929 0.34111 0.61046 0.0
C2963 C 0.23673 0.3334 0.61775 0.0
H2964 H 0.24366 0.3182 0.65472 0.0
C2965 C 0.23499 0.32535 0.63405 0.0
C2966 C 0.24552 0.32486 0.64265 0.0
H2967 H 0.22544 0.3193 0.64002 0.0
H2968 H 0.30485 0.32017 0.65602 0.0
H2969 H 0.28774 0.32331 0.64144 0.0
H2970 H 0.27709 0.32918 0.70045 0.0
H2971 H 0.2941 0.32593 0.715 0.0
H2972 H 0.26252 0.32632 0.67213 0.0
H2973 H 0.27751 0.33455 0.63336 0.0
H2974 H 0.26932 0.34645 0.61282 0.0
H2975 H 0.25094 0.34723 0.59768 0.0
C2976 C 0.6839 0.97691 0.65801 0.0
C2977 C 0.69715 0.98572 0.65518 0.0
C2978 C 0.67925 0.96339 0.65913 0.0
C2979 C 0.68779 0.9584 0.6574 0.0
C2980 C 0.70112 0.96733 0.656 0.0
C2981 C 0.70575 0.9808 0.65484 0.0
C2982 C 0.68333 0.94409 0.65532 0.0
C2983 C 0.67099 0.93467 0.65091 0.0
C2984 C 0.6675 0.9212 0.64379 0.0
C2985 C 0.65481 0.91076 0.64609 0.0
C2986 C 0.65079 0.89839 0.63722 0.0
C2987 C 0.65933 0.89627 0.62556 0.0
H2988 H 0.68589 0.92683 0.62995 0.0
C2989 C 0.67214 0.90666 0.62374 0.0
C2990 C 0.67617 0.91895 0.63272 0.0
H2991 H 0.67892 0.90557 0.61447 0.0
H2992 H 0.67702 0.98037 0.65861 0.0
H2993 H 0.66896 0.95697 0.66087 0.0
H2994 H 0.70797 0.96384 0.65486 0.0
H2995 H 0.71605 0.9873 0.65293 0.0
H2996 H 0.69082 0.94139 0.65566 0.0
H2997 H 0.6632 0.9369 0.65115 0.0
H2998 H 0.6479 0.91225 0.6544 0.0
H2999 H 0.64089 0.89059 0.63913 0.0
C3000 C 0.01482 0.71269 0.68841 0.0
C3001 C 0.00363 0.70328 0.67775 0.0
C3002 C 0.02628 0.72065 0.67852 0.0
C3003 C 0.02681 0.71941 0.65769 0.0
C3004 C 0.01572 0.70982 0.64711 0.0
C3005 C 0.00422 0.70188 0.657 0.0
C3006 C 0.03879 0.72779 0.64664 0.0
C3007 C 0.0478 0.74002 0.65294 0.0
C3008 C 0.0594 0.74867 0.64132 0.0
C3009 C 0.06477 0.76235 0.64317 0.0
C3010 C 0.07538 0.77078 0.6319 0.0
C3011 C 0.08097 0.7657 0.61877 0.0
H3012 H 0.06161 0.73311 0.62728 0.0
C3013 C 0.07592 0.75203 0.61747 0.0
C3014 C 0.06523 0.74359 0.62862 0.0
H3015 H 0.08001 0.74783 0.60744 0.0
H3016 H 0.01474 0.71393 0.70444 0.0
H3017 H 0.03474 0.72762 0.68731 0.0
H3018 H 0.01589 0.70858 0.63109 0.0
H3019 H 0.99579 0.69467 0.64837 0.0
H3020 H 0.03976 0.72406 0.63222 0.0
H3021 H 0.04619 0.74428 0.66633 0.0
H3022 H 0.06057 0.76652 0.65304 0.0
H3023 H 0.07919 0.78129 0.63338 0.0
C3024 C 0.95391 0.622 0.70061 0.0
C3025 C 0.96254 0.63544 0.69782 0.0
C3026 C 0.95847 0.61317 0.7021 0.0
C3027 C 0.97182 0.61758 0.7008 0.0
C3028 C 0.98036 0.63089 0.6971 0.0
C3029 C 0.97577 0.63972 0.69548 0.0
C3030 C 0.97726 0.60902 0.70598 0.0
C3031 C 0.97023 0.59579 0.70538 0.0
C3032 C 0.97445 0.58738 0.71564 0.0
C3033 C 0.96869 0.57403 0.70995 0.0
C3034 C 0.97091 0.56542 0.72128 0.0
C3035 C 0.97882 0.56996 0.73873 0.0
H3036 H 0.98711 0.60213 0.73792 0.0
C3037 C 0.98496 0.58343 0.74397 0.0
C3038 C 0.98281 0.59203 0.7326 0.0
H3039 H 0.99086 0.58725 0.75753 0.0
H3040 H 0.94364 0.61835 0.70241 0.0
H3041 H 0.95157 0.60308 0.70544 0.0
H3042 H 0.99069 0.63457 0.69618 0.0
H3043 H 0.9827 0.65 0.69331 0.0
H3044 H 0.98726 0.61389 0.71154 0.0
H3045 H 0.96071 0.59086 0.69801 0.0
H3046 H 0.96215 0.57018 0.69704 0.0
H3047 H 0.96616 0.55514 0.71666 0.0
C3048 C 0.383 0.35459 0.70592 0.0
C3049 C 0.3697 0.35033 0.70383 0.0
C3050 C 0.39223 0.36795 0.70605 0.0
C3051 C 0.38843 0.37746 0.70397 0.0
C3052 C 0.37516 0.37321 0.70142 0.0
C3053 C 0.36588 0.35978 0.70118 0.0
C3054 C 0.39794 0.39177 0.70662 0.0
C3055 C 0.41071 0.39695 0.70344 0.0
C3056 C 0.42077 0.41022 0.71097 0.0
C3057 C 0.43297 0.41206 0.71662 0.0
C3058 C 0.44229 0.42375 0.72607 0.0
C3059 C 0.43979 0.43411 0.72974 0.0
H3060 H 0.40923 0.41979 0.70896 0.0
C3061 C 0.42783 0.43256 0.72291 0.0
C3062 C 0.41839 0.42072 0.71371 0.0
H3063 H 0.42565 0.4404 0.72498 0.0
H3064 H 0.38631 0.34761 0.70801 0.0
H3065 H 0.40227 0.37072 0.70874 0.0
H3066 H 0.37193 0.38032 0.70002 0.0
H3067 H 0.35571 0.35685 0.69961 0.0
H3068 H 0.39437 0.39794 0.71276 0.0
H3069 H 0.41417 0.39076 0.69703 0.0
H3070 H 0.43508 0.40415 0.71465 0.0
H3071 H 0.45121 0.42434 0.73134 0.0
C3072 C 0.6541 0.0117 0.67764 0.0
C3073 C 0.66208 0.02448 0.67084 0.0
C3074 C 0.64209 0.00813 0.68577 0.0
C3075 C 0.63772 0.01726 0.68715 0.0
C3076 C 0.64586 0.03013 0.68086 0.0
C3077 C 0.65788 0.0337 0.67269 0.0
C3078 C 0.62498 0.0138 0.69569 0.0
C3079 C 0.61482 0.00143 0.69545 0.0
C3080 C 0.60233 0.99762 0.70513 0.0
C3081 C 0.5948 0.98463 0.71131 0.0
C3082 C 0.58329 0.98068 0.7213 0.0
C3083 C 0.57888 0.98958 0.7251 0.0
H3084 H 0.60306 0.01644 0.7032 0.0
C3085 C 0.58617 0.00248 0.71825 0.0
C3086 C 0.59778 0.00647 0.70836 0.0
H3087 H 0.58293 0.00952 0.72057 0.0
H3088 H 0.6571 0.0044 0.67665 0.0
H3089 H 0.63638 0.99827 0.69118 0.0
H3090 H 0.64282 0.0374 0.68202 0.0
H3091 H 0.66382 0.04365 0.6677 0.0
H3092 H 0.62406 0.02177 0.70235 0.0
H3093 H 0.61577 0.99353 0.68859 0.0
H3094 H 0.59804 0.97759 0.70893 0.0
H3095 H 0.57808 0.97073 0.72661 0.0
loop_
_geom_bond_atom_site_label_1
_geom_bond_atom_site_label_2
_geom_bond_distance
_geom_bond_site_symmetry_2
_ccdc_geom_bond_type
Mg0 O1 2.033 . S
Mg0 O7 1.987 1_455 S
Mg0 O9 2.112 1_554 S
Mg0 O10 2.249 1_454 S
Mg0 O13 2.011 . S
O1 Mg0 2.033 . S
O1 C4 1.250 1_455 S
O2 Mg3 2.028 1_554 S
O2 C4 1.248 . S
Mg3 O2 2.028 1_556 S
Mg3 O8 2.032 . S
Mg3 O10 2.079 . S
C4 O1 1.250 1_655 S
C4 O2 1.248 . S
C5 O6 1.264 . S
C5 O13 1.249 . S
O6 C5 1.264 . S
O7 Mg0 1.987 1_655 S
O7 C11 1.244 1_554 S
O8 Mg3 2.032 . S
O8 C11 1.260 . S
O9 Mg0 2.112 1_556 S
O9 C12 1.252 . S
O10 Mg0 2.249 1_656 S
O10 Mg3 2.079 . S
O10 C12 1.273 1_655 S
C11 O7 1.244 1_556 S
C11 O8 1.260 . S
C12 O9 1.252 . S
C12 O10 1.273 1_455 S
O13 Mg0 2.011 . S
O13 C5 1.249 . S
Mg14 O15 2.028 1_554 S
Mg14 O21 1.986 . S
Mg14 O23 2.114 . S
Mg14 O24 2.251 . S
Mg14 O27 2.010 . S
O15 Mg14 2.028 1_556 S
O15 C18 1.250 . S
O16 Mg17 2.028 . S
O16 C18 1.248 1_554 S
Mg17 O16 2.028 . S
Mg17 O22 2.032 . S
Mg17 O24 2.079 . S
C18 O15 1.250 . S
C18 O16 1.248 1_556 S
C19 O20 1.264 . S
C19 O27 1.249 . S
O20 C19 1.264 . S
O21 Mg14 1.986 . S
O21 C25 1.246 . S
O22 Mg17 2.032 . S
O22 C25 1.259 . S
O23 Mg14 2.114 . S
O23 C26 1.252 . S
O24 Mg14 2.251 . S
O24 Mg17 2.079 . S
O24 C26 1.273 . S
C25 O21 1.246 . S
C25 O22 1.259 . S
C26 O23 1.252 . S
C26 O24 1.273 . S
O27 Mg14 2.010 . S
O27 C19 1.249 . S
Mg28 O29 2.020 . S
Mg28 O35 1.986 1_565 S
Mg28 O37 2.114 1_554 S
Mg28 O38 2.251 1_564 S
Mg28 O41 2.010 . S
O29 Mg28 2.020 . S
O29 C32 1.242 1_565 S
O30 Mg31 2.028 1_554 S
O30 C32 1.248 . S
Mg31 O30 2.028 1_556 S
Mg31 O36 2.032 1_556 S
Mg31 O38 2.079 . S
C32 O29 1.242 1_545 S
C32 O30 1.248 . S
C33 O34 1.264 . S
C33 O41 1.249 . S
O34 C33 1.264 . S
O35 Mg28 1.986 1_545 S
O35 C39 1.246 . S
O36 Mg31 2.032 1_554 S
O36 C39 1.259 . S
O37 Mg28 2.114 1_556 S
O37 C40 1.252 . S
O38 Mg28 2.251 1_546 S
O38 Mg31 2.079 . S
O38 C40 1.273 1_545 S
C39 O35 1.246 . S
C39 O36 1.259 . S
C40 O37 1.252 . S
C40 O38 1.273 1_565 S
O41 Mg28 2.010 . S
O41 C33 1.249 . S
Mg42 O43 2.059 1_554 S
Mg42 O49 1.986 1_655 S
Mg42 O51 2.114 . S
Mg42 O52 2.251 1_655 S
Mg42 O55 2.010 . S
O43 Mg42 2.059 1_556 S
O43 C46 1.168 1_655 S
O44 Mg45 2.028 . S
O44 C46 1.248 1_554 S
Mg45 O44 2.028 . S
Mg45 O50 2.032 . S
Mg45 O52 2.079 . S
C46 O43 1.168 1_455 S
C46 O44 1.248 1_556 S
C47 O48 1.264 . S
C47 O55 1.249 . S
O48 C47 1.264 . S
O49 Mg42 1.986 1_455 S
O49 C53 1.246 . S
O50 Mg45 2.032 . S
O50 C53 1.259 . S
O51 Mg42 2.114 . S
O51 C54 1.252 . S
O52 Mg42 2.251 1_455 S
O52 Mg45 2.079 . S
O52 C54 1.273 1_455 S
C53 O49 1.246 . S
C53 O50 1.259 . S
C54 O51 1.252 . S
C54 O52 1.273 1_655 S
O55 Mg42 2.010 . S
O55 C47 1.249 . S
Mg56 O57 2.028 . S
Mg56 O63 1.986 . S
Mg56 O65 2.114 1_554 S
Mg56 O66 2.251 1_554 S
Mg56 O69 2.010 . S
O57 Mg56 2.028 . S
O57 C60 1.250 . S
O58 Mg59 2.028 1_554 S
O58 C60 1.248 . S
Mg59 O58 2.028 1_556 S
Mg59 O64 2.029 1_556 S
Mg59 O66 2.079 . S
C60 O57 1.250 . S
C60 O58 1.248 . S
C61 O62 1.264 . S
C61 O69 1.249 . S
O62 C61 1.264 . S
O63 Mg56 1.986 . S
O63 C67 1.246 . S
O64 Mg59 2.029 1_554 S
O64 C67 1.263 . S
O65 Mg56 2.114 1_556 S
O65 C68 1.252 . S
O66 Mg56 2.251 1_556 S
O66 Mg59 2.079 . S
O66 C68 1.273 . S
C67 O63 1.246 . S
C67 O64 1.263 . S
C68 O65 1.252 . S
C68 O66 1.273 . S
O69 Mg56 2.010 . S
O69 C61 1.249 . S
Mg70 O71 2.077 . S
Mg70 O77 1.986 1_545 S
Mg70 O79 2.114 . S
Mg70 O80 2.251 1_545 S
Mg70 O83 2.010 . S
O71 Mg70 2.077 . S
O71 C74 1.233 1_544 S
O72 Mg73 2.028 . S
O72 C74 1.248 1_554 S
Mg73 O72 2.028 . S
Mg73 O78 2.032 . S
Mg73 O80 2.079 . S
C74 O71 1.233 1_566 S
C74 O72 1.248 1_556 S
C75 O76 1.264 . S
C75 O83 1.249 . S
O76 C75 1.264 . S
O77 Mg70 1.986 1_565 S
O77 C81 1.246 . S
O78 Mg73 2.032 . S
O78 C81 1.259 . S
O79 Mg70 2.114 . S
O79 C82 1.252 . S
O80 Mg70 2.251 1_565 S
O80 Mg73 2.079 . S
O80 C82 1.273 1_565 S
C81 O77 1.246 . S
C81 O78 1.259 . S
C82 O79 1.252 . S
C82 O80 1.273 1_545 S
O83 Mg70 2.010 . S
O83 C75 1.249 . S
Mg84 O85 2.028 . S
Mg84 O91 1.986 . S
Mg84 O93 2.114 . S
Mg84 O94 2.251 . S
Mg84 O97 2.010 . S
O85 Mg84 2.028 . S
O85 C88 1.250 . S
O86 Mg87 2.028 . S
O86 C88 1.248 . S
Mg87 O86 2.028 . S
Mg87 O92 2.032 . S
Mg87 O94 2.079 . S
C88 O85 1.250 . S
C88 O86 1.248 . S
C89 O90 1.264 . S
C89 O97 1.249 . S
O90 C89 1.264 . S
O91 Mg84 1.986 . S
O91 C95 1.246 . S
O92 Mg87 2.032 . S
O92 C95 1.259 . S
O93 Mg84 2.114 . S
O93 C96 1.252 . S
O94 Mg84 2.251 . S
O94 Mg87 2.079 . S
O94 C96 1.273 . S
C95 O91 1.246 . S
C95 O92 1.259 . S
C96 O93 1.252 . S
C96 O94 1.273 . S
O97 Mg84 2.010 . S
O97 C89 1.249 . S
Mg98 O99 2.028 . S
Mg98 O105 1.986 . S
Mg98 O107 2.114 . S
Mg98 O108 2.251 . S
Mg98 O111 2.010 . S
O99 Mg98 2.028 . S
O99 C102 1.250 . S
O100 Mg101 2.028 . S
O100 C102 1.248 . S
Mg101 O100 2.028 . S
Mg101 O106 2.032 . S
Mg101 O108 2.079 . S
C102 O99 1.250 . S
C102 O100 1.248 . S
C103 O104 1.264 . S
C103 O111 1.249 . S
O104 C103 1.264 . S
O105 Mg98 1.986 . S
O105 C109 1.260 . S
O106 Mg101 2.032 . S
O106 C109 1.261 . S
O107 Mg98 2.114 . S
O107 C110 1.252 . S
O108 Mg98 2.251 . S
O108 Mg101 2.079 . S
O108 C110 1.273 . S
C109 O105 1.260 . S
C109 O106 1.261 . S
C110 O107 1.252 . S
C110 O108 1.273 . S
O111 Mg98 2.010 . S
O111 C103 1.249 . S
Mg112 O113 2.028 . S
Mg112 O119 1.986 . S
Mg112 O121 2.114 . S
Mg112 O122 2.251 . S
Mg112 O125 2.010 . S
O113 Mg112 2.028 . S
O113 C116 1.250 . S
O114 Mg115 2.028 . S
O114 C116 1.248 . S
Mg115 O114 2.028 . S
Mg115 O120 2.032 . S
Mg115 O122 2.079 . S
C116 O113 1.250 . S
C116 O114 1.248 . S
C117 O118 1.264 . S
C117 O125 1.249 1_655 S
O118 C117 1.264 . S
O119 Mg112 1.986 . S
O119 C123 1.246 . S
O120 Mg115 2.032 . S
O120 C123 1.259 . S
O121 Mg112 2.114 . S
O121 C124 1.252 . S
O122 Mg112 2.251 . S
O122 Mg115 2.079 . S
O122 C124 1.273 . S
C123 O119 1.246 . S
C123 O120 1.259 . S
C124 O121 1.252 . S
C124 O122 1.273 . S
O125 Mg112 2.010 . S
O125 C117 1.249 1_455 S
Mg126 O127 2.028 . S
Mg126 O133 1.986 . S
Mg126 O135 2.114 . S
Mg126 O136 2.251 . S
Mg126 O139 2.010 . S
O127 Mg126 2.028 . S
O127 C130 1.250 . S
O128 Mg129 2.028 . S
O128 C130 1.248 . S
Mg129 O128 2.028 . S
Mg129 O134 2.032 . S
Mg129 O136 2.079 . S
C130 O127 1.250 . S
C130 O128 1.248 . S
C131 O132 1.264 . S
C131 O139 1.249 . S
O132 C131 1.264 . S
O133 Mg126 1.986 . S
O133 C137 1.246 . S
O134 Mg129 2.032 . S
O134 C137 1.259 . S
O135 Mg126 2.114 . S
O135 C138 1.252 . S
O136 Mg126 2.251 . S
O136 Mg129 2.079 . S
O136 C138 1.273 . S
C137 O133 1.246 . S
C137 O134 1.259 . S
C138 O135 1.252 . S
C138 O136 1.273 . S
O139 Mg126 2.010 . S
O139 C131 1.249 . S
Mg140 O141 2.028 . S
Mg140 O147 1.986 . S
Mg140 O149 2.114 . S
Mg140 O150 2.251 . S
Mg140 O153 2.010 . S
O141 Mg140 2.028 . S
O141 C144 1.250 . S
O142 Mg143 2.028 . S
O142 C144 1.248 . S
Mg143 O142 2.028 . S
Mg143 O148 2.032 . S
Mg143 O150 2.079 . S
C144 O141 1.250 . S
C144 O142 1.248 . S
C145 O146 1.264 . S
C145 O153 1.249 1_655 S
O146 C145 1.264 . S
O147 Mg140 1.986 . S
O147 C151 1.246 . S
O148 Mg143 2.032 . S
O148 C151 1.259 . S
O149 Mg140 2.114 . S
O149 C152 1.252 . S
O150 Mg140 2.251 . S
O150 Mg143 2.079 . S
O150 C152 1.273 . S
C151 O147 1.246 . S
C151 O148 1.259 . S
C152 O149 1.252 . S
C152 O150 1.273 . S
O153 Mg140 2.010 . S
O153 C145 1.249 1_455 S
Mg154 O155 2.028 . S
Mg154 O161 1.986 . S
Mg154 O163 2.114 . S
Mg154 O164 2.251 . S
Mg154 O167 2.010 . S
O155 Mg154 2.028 . S
O155 C158 1.250 . S
O156 Mg157 2.028 . S
O156 C158 1.248 . S
Mg157 O156 2.028 . S
Mg157 O162 2.032 . S
Mg157 O164 2.079 . S
C158 O155 1.250 . S
C158 O156 1.248 . S
C159 O160 1.264 . S
C159 O167 1.249 . S
O160 C159 1.264 . S
O161 Mg154 1.986 . S
O161 C165 1.246 . S
O162 Mg157 2.032 . S
O162 C165 1.259 . S
O163 Mg154 2.114 . S
O163 C166 1.252 . S
O164 Mg154 2.251 . S
O164 Mg157 2.079 . S
O164 C166 1.273 . S
C165 O161 1.246 . S
C165 O162 1.259 . S
C166 O163 1.252 . S
C166 O164 1.273 . S
O167 Mg154 2.010 . S
O167 C159 1.249 . S
Mg168 O169 2.028 . S
Mg168 O175 1.986 . S
Mg168 O177 2.114 . S
Mg168 O178 2.251 . S
Mg168 O181 2.010 . S
O169 Mg168 2.028 . S
O169 C172 1.250 . S
O170 Mg171 2.028 . S
O170 C172 1.248 . S
Mg171 O170 2.028 . S
Mg171 O176 2.032 . S
Mg171 O178 2.079 . S
C172 O169 1.250 . S
C172 O170 1.248 . S
C173 O174 1.264 . S
C173 O181 1.249 . S
O174 C173 1.264 . S
O175 Mg168 1.986 . S
O175 C179 1.246 . S
O176 Mg171 2.032 . S
O176 C179 1.259 . S
O177 Mg168 2.114 . S
O177 C180 1.252 . S
O178 Mg168 2.251 . S
O178 Mg171 2.079 . S
O178 C180 1.273 . S
C179 O175 1.246 . S
C179 O176 1.259 . S
C180 O177 1.252 . S
C180 O178 1.273 . S
O181 Mg168 2.010 . S
O181 C173 1.249 . S
Mg182 O183 2.028 . S
Mg182 O189 1.986 . S
Mg182 O191 2.114 . S
Mg182 O192 2.251 . S
Mg182 O195 2.010 . S
O183 Mg182 2.028 . S
O183 C186 1.250 . S
O184 Mg185 2.028 . S
O184 C186 1.248 . S
Mg185 O184 2.028 . S
Mg185 O190 2.032 . S
Mg185 O192 2.079 . S
C186 O183 1.250 . S
C186 O184 1.248 . S
C187 O188 1.264 . S
C187 O195 1.249 1_455 S
O188 C187 1.264 . S
O189 Mg182 1.986 . S
O189 C193 1.246 . S
O190 Mg185 2.032 . S
O190 C193 1.259 . S
O191 Mg182 2.114 . S
O191 C194 1.252 . S
O192 Mg182 2.251 . S
O192 Mg185 2.079 . S
O192 C194 1.273 . S
C193 O189 1.246 . S
C193 O190 1.259 . S
C194 O191 1.252 . S
C194 O192 1.273 . S
O195 Mg182 2.010 . S
O195 C187 1.249 1_655 S
Mg196 O197 2.028 . S
Mg196 O203 1.986 . S
Mg196 O205 2.114 . S
Mg196 O206 2.251 . S
Mg196 O209 2.010 . S
O197 Mg196 2.028 . S
O197 C200 1.250 . S
O198 Mg199 2.028 . S
O198 C200 1.248 . S
Mg199 O198 2.028 . S
Mg199 O204 2.032 . S
Mg199 O206 2.079 . S
C200 O197 1.250 . S
C200 O198 1.248 . S
C201 O202 1.264 . S
C201 O209 1.249 . S
O202 C201 1.264 . S
O203 Mg196 1.986 . S
O203 C207 1.246 . S
O204 Mg199 2.032 . S
O204 C207 1.259 . S
O205 Mg196 2.114 . S
O205 C208 1.252 . S
O206 Mg196 2.251 . S
O206 Mg199 2.079 . S
O206 C208 1.273 . S
C207 O203 1.246 . S
C207 O204 1.259 . S
C208 O205 1.252 . S
C208 O206 1.273 . S
O209 Mg196 2.010 . S
O209 C201 1.249 . S
Mg210 O211 2.028 . S
Mg210 O217 1.986 . S
Mg210 O219 2.114 . S
Mg210 O220 2.251 . S
Mg210 O223 2.010 . S
O211 Mg210 2.028 . S
O211 C214 1.250 . S
O212 Mg213 2.028 . S
O212 C214 1.248 . S
Mg213 O212 2.028 . S
Mg213 O218 2.032 . S
Mg213 O220 2.079 . S
C214 O211 1.250 . S
C214 O212 1.248 . S
C215 O216 1.264 . S
C215 O223 1.249 . S
O216 C215 1.264 . S
O217 Mg210 1.986 . S
O217 C221 1.246 . S
O218 Mg213 2.032 . S
O218 C221 1.259 . S
O219 Mg210 2.114 . S
O219 C222 1.252 . S
O220 Mg210 2.251 . S
O220 Mg213 2.079 . S
O220 C222 1.273 . S
C221 O217 1.246 . S
C221 O218 1.259 . S
C222 O219 1.252 . S
C222 O220 1.273 . S
O223 Mg210 2.010 . S
O223 C215 1.249 . S
Mg224 O225 2.028 . S
Mg224 O231 1.986 . S
Mg224 O233 2.114 . S
Mg224 O234 2.251 . S
Mg224 O237 2.010 . S
O225 Mg224 2.028 . S
O225 C228 1.250 . S
O226 Mg227 2.028 . S
O226 C228 1.248 . S
Mg227 O226 2.028 . S
Mg227 O232 2.032 . S
Mg227 O234 2.079 . S
C228 O225 1.250 . S
C228 O226 1.248 . S
C229 O230 1.264 . S
C229 O237 1.249 . S
O230 C229 1.264 . S
O231 Mg224 1.986 . S
O231 C235 1.246 . S
O232 Mg227 2.032 . S
O232 C235 1.259 . S
O233 Mg224 2.114 . S
O233 C236 1.252 . S
O234 Mg224 2.251 . S
O234 Mg227 2.079 . S
O234 C236 1.273 . S
C235 O231 1.246 . S
C235 O232 1.259 . S
C236 O233 1.252 . S
C236 O234 1.273 . S
O237 Mg224 2.010 . S
O237 C229 1.249 . S
Mg238 O239 2.028 . S
Mg238 O245 1.986 . S
Mg238 O247 2.114 . S
Mg238 O248 2.251 . S
Mg238 O251 2.043 . S
O239 Mg238 2.028 . S
O239 C242 1.250 . S
O240 Mg241 2.028 . S
O240 C242 1.248 . S
Mg241 O240 2.028 . S
Mg241 O246 2.032 . S
Mg241 O248 2.079 . S
C242 O239 1.250 . S
C242 O240 1.248 . S
C243 O244 1.264 . S
C243 O251 1.230 1_455 S
O244 C243 1.264 . S
O245 Mg238 1.986 . S
O245 C249 1.246 . S
O246 Mg241 2.032 . S
O246 C249 1.259 . S
O247 Mg238 2.114 . S
O247 C250 1.252 . S
O248 Mg238 2.251 . S
O248 Mg241 2.079 . S
O248 C250 1.273 . S
C249 O245 1.246 . S
C249 O246 1.259 . S
C250 O247 1.252 . S
C250 O248 1.273 . S
O251 Mg238 2.043 . S
O251 C243 1.230 1_655 S
H252 C279 0.929 . S
N253 C278 1.433 . S
N253 C284 1.435 . S
N253 C290 1.423 . S
H254 C280 0.930 . S
H255 C283 0.931 . S
H256 C282 0.929 . S
H257 C285 0.930 . S
H258 C286 0.932 . S
H259 C289 0.929 . S
H260 C288 0.931 . S
H261 C291 0.929 . S
H262 C295 0.932 . S
H263 C292 0.931 . S
H264 C294 0.929 . S
H265 C297 0.929 . S
H266 C298 0.930 . S
H267 C300 0.929 . S
H268 C301 0.931 . S
H269 C303 0.930 . S
H270 C304 0.932 . S
H271 C306 0.931 . S
H272 C307 0.929 . S
H273 C309 0.929 . S
H274 C310 0.931 . S
H275 C312 0.929 . S
N276 C296 1.433 . S
N276 C302 1.435 . S
N276 C308 1.423 . S
H277 C313 0.932 . S
C278 N253 1.433 . S
C278 C279 1.363 . S
C278 C283 1.370 . S
C279 H252 0.929 . S
C279 C278 1.363 . S
C279 C280 1.385 . S
C280 H254 0.930 . S
C280 C279 1.385 . S
C280 C281 1.357 . S
C281 C280 1.357 . S
C281 C282 1.406 . S
C282 H256 0.929 . S
C282 C281 1.406 . S
C282 C283 1.391 . S
C283 H255 0.931 . S
C283 C278 1.370 . S
C283 C282 1.391 . S
C284 N253 1.435 . S
C284 C285 1.358 . S
C284 C289 1.371 . S
C285 H257 0.930 . S
C285 C284 1.358 . S
C285 C286 1.405 . S
C286 H258 0.932 . S
C286 C285 1.405 . S
C286 C287 1.383 . S
C287 C286 1.383 . S
C287 C288 1.393 . S
C288 H260 0.931 . S
C288 C287 1.393 . S
C288 C289 1.382 . S
C289 H259 0.929 . S
C289 C284 1.371 . S
C289 C288 1.382 . S
C290 N253 1.423 . S
C290 C291 1.362 . S
C290 C295 1.388 . S
C291 H261 0.929 . S
C291 C290 1.362 . S
C291 C292 1.376 . S
C292 H263 0.931 . S
C292 C291 1.376 . S
C292 C293 1.396 . S
C293 C292 1.396 . S
C293 C294 1.348 . S
C293 C311 1.472 . S
C294 H264 0.929 . S
C294 C293 1.348 . S
C294 C295 1.443 . S
C295 H262 0.932 . S
C295 C290 1.388 . S
C295 C294 1.443 . S
C296 N276 1.433 . S
C296 C297 1.363 . S
C296 C301 1.370 . S
C297 H265 0.929 . S
C297 C296 1.363 . S
C297 C298 1.385 . S
C298 H266 0.930 . S
C298 C297 1.385 . S
C298 C299 1.357 . S
C299 C298 1.357 . S
C299 C300 1.406 . S
C300 H267 0.929 . S
C300 C299 1.406 . S
C300 C301 1.391 . S
C301 H268 0.931 . S
C301 C296 1.370 . S
C301 C300 1.391 . S
C302 N276 1.435 . S
C302 C303 1.358 . S
C302 C307 1.371 . S
C303 H269 0.930 . S
C303 C302 1.358 . S
C303 C304 1.405 . S
C304 H270 0.932 . S
C304 C303 1.405 . S
C304 C305 1.383 . S
C305 C304 1.383 . S
C305 C306 1.393 . S
C306 H271 0.931 . S
C306 C305 1.393 . S
C306 C307 1.382 . S
C307 H272 0.929 . S
C307 C302 1.371 . S
C307 C306 1.382 . S
C308 N276 1.423 . S
C308 C309 1.362 . S
C308 C313 1.388 . S
C309 H273 0.929 . S
C309 C308 1.362 . S
C309 C310 1.376 . S
C310 H274 0.931 . S
C310 C309 1.376 . S
C310 C311 1.396 . S
C311 C293 1.472 . S
C311 C310 1.396 . S
C311 C312 1.348 . S
C312 H275 0.929 . S
C312 C311 1.348 . S
C312 C313 1.443 . S
C313 H277 0.932 . S
C313 C308 1.388 . S
C313 C312 1.443 . S
H314 C341 0.929 . S
N315 C340 1.433 . S
N315 C346 1.435 . S
N315 C352 1.423 . S
H316 C342 0.930 . S
H317 C345 0.931 . S
H318 C344 0.929 . S
H319 C347 0.930 . S
H320 C348 0.932 . S
H321 C351 0.929 . S
H322 C350 0.931 . S
H323 C353 0.929 . S
H324 C357 0.932 . S
H325 C354 0.931 . S
H326 C356 0.929 . S
H327 C359 0.929 . S
H328 C360 0.930 . S
H329 C362 0.929 . S
H330 C363 0.931 . S
H331 C365 0.930 . S
H332 C366 0.932 . S
H333 C368 0.931 . S
H334 C369 0.929 . S
H335 C371 0.929 . S
H336 C372 0.931 . S
H337 C374 0.929 . S
N338 C358 1.433 . S
N338 C364 1.435 . S
N338 C370 1.423 . S
H339 C375 0.932 . S
C340 N315 1.433 . S
C340 C341 1.363 . S
C340 C345 1.370 . S
C341 H314 0.929 . S
C341 C340 1.363 . S
C341 C342 1.385 . S
C342 H316 0.930 . S
C342 C341 1.385 . S
C342 C343 1.357 . S
C343 C342 1.357 . S
C343 C344 1.406 . S
C344 H318 0.929 . S
C344 C343 1.406 . S
C344 C345 1.391 . S
C345 H317 0.931 . S
C345 C340 1.370 . S
C345 C344 1.391 . S
C346 N315 1.435 . S
C346 C347 1.358 . S
C346 C351 1.371 . S
C347 H319 0.930 . S
C347 C346 1.358 . S
C347 C348 1.405 . S
C348 H320 0.932 . S
C348 C347 1.405 . S
C348 C349 1.383 . S
C349 C348 1.383 . S
C349 C350 1.393 . S
C350 H322 0.931 . S
C350 C349 1.393 . S
C350 C351 1.382 . S
C351 H321 0.929 . S
C351 C346 1.371 . S
C351 C350 1.382 . S
C352 N315 1.423 . S
C352 C353 1.362 . S
C352 C357 1.388 . S
C353 H323 0.929 . S
C353 C352 1.362 . S
C353 C354 1.376 . S
C354 H325 0.931 . S
C354 C353 1.376 . S
C354 C355 1.396 . S
C355 C354 1.396 . S
C355 C356 1.348 . S
C355 C373 1.472 . S
C356 H326 0.929 . S
C356 C355 1.348 . S
C356 C357 1.443 . S
C357 H324 0.932 . S
C357 C352 1.388 . S
C357 C356 1.443 . S
C358 N338 1.433 . S
C358 C359 1.363 . S
C358 C363 1.370 . S
C359 H327 0.929 . S
C359 C358 1.363 . S
C359 C360 1.385 . S
C360 H328 0.930 . S
C360 C359 1.385 . S
C360 C361 1.357 . S
C361 C360 1.357 . S
C361 C362 1.406 . S
C362 H329 0.929 . S
C362 C361 1.406 . S
C362 C363 1.391 . S
C363 H330 0.931 . S
C363 C358 1.370 . S
C363 C362 1.391 . S
C364 N338 1.435 . S
C364 C365 1.358 . S
C364 C369 1.371 . S
C365 H331 0.930 . S
C365 C364 1.358 . S
C365 C366 1.405 . S
C366 H332 0.932 . S
C366 C365 1.405 . S
C366 C367 1.383 . S
C367 C366 1.383 . S
C367 C368 1.393 . S
C368 H333 0.931 . S
C368 C367 1.393 . S
C368 C369 1.382 . S
C369 H334 0.929 . S
C369 C364 1.371 . S
C369 C368 1.382 . S
C370 N338 1.423 . S
C370 C371 1.362 . S
C370 C375 1.388 . S
C371 H335 0.929 . S
C371 C370 1.362 . S
C371 C372 1.376 . S
C372 H336 0.931 . S
C372 C371 1.376 . S
C372 C373 1.396 . S
C373 C355 1.472 . S
C373 C372 1.396 . S
C373 C374 1.348 . S
C374 H337 0.929 . S
C374 C373 1.348 . S
C374 C375 1.443 . S
C375 H339 0.932 . S
C375 C370 1.388 . S
C375 C374 1.443 . S
H376 C403 0.929 . S
N377 C402 1.433 . S
N377 C408 1.435 . S
N377 C414 1.423 . S
H378 C404 0.930 . S
H379 C407 0.931 . S
H380 C406 0.929 . S
H381 C409 0.930 . S
H382 C410 0.932 . S
H383 C413 0.929 . S
H384 C412 0.931 . S
H385 C415 0.929 . S
H386 C419 0.932 . S
H387 C416 0.931 . S
H388 C418 0.929 . S
H389 C421 0.929 . S
H390 C422 0.930 . S
H391 C424 0.929 . S
H392 C425 0.931 . S
H393 C427 0.930 . S
H394 C428 0.932 . S
H395 C430 0.931 . S
H396 C431 0.929 . S
H397 C433 0.929 . S
H398 C434 0.931 . S
H399 C436 0.929 . S
N400 C420 1.433 . S
N400 C426 1.435 . S
N400 C432 1.423 . S
H401 C437 0.932 . S
C402 N377 1.433 . S
C402 C403 1.363 . S
C402 C407 1.370 . S
C403 H376 0.929 . S
C403 C402 1.363 . S
C403 C404 1.385 . S
C404 H378 0.930 . S
C404 C403 1.385 . S
C404 C405 1.357 . S
C405 C404 1.357 . S
C405 C406 1.406 . S
C406 H380 0.929 . S
C406 C405 1.406 . S
C406 C407 1.391 . S
C407 H379 0.931 . S
C407 C402 1.370 . S
C407 C406 1.391 . S
C408 N377 1.435 . S
C408 C409 1.358 . S
C408 C413 1.371 . S
C409 H381 0.930 . S
C409 C408 1.358 . S
C409 C410 1.405 . S
C410 H382 0.932 . S
C410 C409 1.405 . S
C410 C411 1.383 . S
C411 C410 1.383 . S
C411 C412 1.393 . S
C412 H384 0.931 . S
C412 C411 1.393 . S
C412 C413 1.382 . S
C413 H383 0.929 . S
C413 C408 1.371 . S
C413 C412 1.382 . S
C414 N377 1.423 . S
C414 C415 1.362 . S
C414 C419 1.388 . S
C415 H385 0.929 . S
C415 C414 1.362 . S
C415 C416 1.376 . S
C416 H387 0.931 . S
C416 C415 1.376 . S
C416 C417 1.396 . S
C417 C416 1.396 . S
C417 C418 1.348 . S
C417 C435 1.472 . S
C418 H388 0.929 . S
C418 C417 1.348 . S
C418 C419 1.443 . S
C419 H386 0.932 . S
C419 C414 1.388 . S
C419 C418 1.443 . S
C420 N400 1.433 . S
C420 C421 1.363 . S
C420 C425 1.370 . S
C421 H389 0.929 . S
C421 C420 1.363 . S
C421 C422 1.385 . S
C422 H390 0.930 . S
C422 C421 1.385 . S
C422 C423 1.357 . S
C423 C422 1.357 . S
C423 C424 1.406 . S
C424 H391 0.929 . S
C424 C423 1.406 . S
C424 C425 1.391 . S
C425 H392 0.931 . S
C425 C420 1.370 . S
C425 C424 1.391 . S
C426 N400 1.435 . S
C426 C427 1.358 . S
C426 C431 1.371 . S
C427 H393 0.930 . S
C427 C426 1.358 . S
C427 C428 1.405 . S
C428 H394 0.932 . S
C428 C427 1.405 . S
C428 C429 1.383 . S
C429 C428 1.383 . S
C429 C430 1.393 . S
C430 H395 0.931 . S
C430 C429 1.393 . S
C430 C431 1.382 . S
C431 H396 0.929 . S
C431 C426 1.371 . S
C431 C430 1.382 . S
C432 N400 1.423 . S
C432 C433 1.362 . S
C432 C437 1.388 . S
C433 H397 0.929 . S
C433 C432 1.362 . S
C433 C434 1.376 . S
C434 H398 0.931 . S
C434 C433 1.376 . S
C434 C435 1.396 . S
C435 C417 1.472 . S
C435 C434 1.396 . S
C435 C436 1.348 . S
C436 H399 0.929 . S
C436 C435 1.348 . S
C436 C437 1.443 . S
C437 H401 0.932 . S
C437 C432 1.388 . S
C437 C436 1.443 . S
H438 C465 0.929 . S
N439 C464 1.433 . S
N439 C470 1.435 . S
N439 C476 1.423 . S
H440 C466 0.930 . S
H441 C469 0.931 . S
H442 C468 0.929 . S
H443 C471 0.930 . S
H444 C472 0.932 . S
H445 C475 0.929 . S
H446 C474 0.931 . S
H447 C477 0.929 . S
H448 C481 0.932 . S
H449 C478 0.931 . S
H450 C480 0.929 . S
H451 C483 0.929 . S
H452 C484 0.930 . S
H453 C486 0.929 . S
H454 C487 0.931 . S
H455 C489 0.930 . S
H456 C490 0.932 . S
H457 C492 0.931 . S
H458 C493 0.929 . S
H459 C495 0.929 . S
H460 C496 0.931 . S
H461 C498 0.929 . S
N462 C482 1.433 . S
N462 C488 1.435 . S
N462 C494 1.423 . S
H463 C499 0.932 . S
C464 N439 1.433 . S
C464 C465 1.363 . S
C464 C469 1.370 . S
C465 H438 0.929 . S
C465 C464 1.363 . S
C465 C466 1.385 . S
C466 H440 0.930 . S
C466 C465 1.385 . S
C466 C467 1.357 . S
C467 C466 1.357 . S
C467 C468 1.406 . S
C468 H442 0.929 . S
C468 C467 1.406 . S
C468 C469 1.391 . S
C469 H441 0.931 . S
C469 C464 1.370 . S
C469 C468 1.391 . S
C470 N439 1.435 . S
C470 C471 1.358 . S
C470 C475 1.371 . S
C471 H443 0.930 . S
C471 C470 1.358 . S
C471 C472 1.405 . S
C472 H444 0.932 . S
C472 C471 1.405 . S
C472 C473 1.383 . S
C473 C472 1.383 . S
C473 C474 1.393 . S
C474 H446 0.931 . S
C474 C473 1.393 . S
C474 C475 1.382 . S
C475 H445 0.929 . S
C475 C470 1.371 . S
C475 C474 1.382 . S
C476 N439 1.423 . S
C476 C477 1.362 . S
C476 C481 1.388 . S
C477 H447 0.929 . S
C477 C476 1.362 . S
C477 C478 1.376 . S
C478 H449 0.931 . S
C478 C477 1.376 . S
C478 C479 1.396 . S
C479 C478 1.396 . S
C479 C480 1.348 . S
C479 C497 1.472 . S
C480 H450 0.929 . S
C480 C479 1.348 . S
C480 C481 1.443 . S
C481 H448 0.932 . S
C481 C476 1.388 . S
C481 C480 1.443 . S
C482 N462 1.433 . S
C482 C483 1.363 . S
C482 C487 1.370 . S
C483 H451 0.929 . S
C483 C482 1.363 . S
C483 C484 1.385 . S
C484 H452 0.930 . S
C484 C483 1.385 . S
C484 C485 1.357 . S
C485 C484 1.357 . S
C485 C486 1.406 . S
C486 H453 0.929 . S
C486 C485 1.406 . S
C486 C487 1.391 . S
C487 H454 0.931 . S
C487 C482 1.370 . S
C487 C486 1.391 . S
C488 N462 1.435 . S
C488 C489 1.358 . S
C488 C493 1.371 . S
C489 H455 0.930 . S
C489 C488 1.358 . S
C489 C490 1.405 . S
C490 H456 0.932 . S
C490 C489 1.405 . S
C490 C491 1.383 . S
C491 C490 1.383 . S
C491 C492 1.393 . S
C492 H457 0.931 . S
C492 C491 1.393 . S
C492 C493 1.382 . S
C493 H458 0.929 . S
C493 C488 1.371 . S
C493 C492 1.382 . S
C494 N462 1.423 . S
C494 C495 1.362 . S
C494 C499 1.388 . S
C495 H459 0.929 . S
C495 C494 1.362 . S
C495 C496 1.376 . S
C496 H460 0.931 . S
C496 C495 1.376 . S
C496 C497 1.396 . S
C497 C479 1.472 . S
C497 C496 1.396 . S
C497 C498 1.348 . S
C498 H461 0.929 . S
C498 C497 1.348 . S
C498 C499 1.443 . S
C499 H463 0.932 . S
C499 C494 1.388 . S
C499 C498 1.443 . S
H500 C527 0.929 . S
N501 C526 1.433 . S
N501 C532 1.435 . S
N501 C538 1.423 . S
H502 C528 0.930 . S
H503 C531 0.931 . S
H504 C530 0.929 . S
H505 C533 0.930 . S
H506 C534 0.932 . S
H507 C537 0.929 . S
H508 C536 0.931 . S
H509 C539 0.929 . S
H510 C543 0.932 . S
H511 C540 0.931 . S
H512 C542 0.929 . S
H513 C545 0.929 . S
H514 C546 0.930 . S
H515 C548 0.929 . S
H516 C549 0.931 . S
H517 C551 0.930 . S
H518 C552 0.932 . S
H519 C554 0.931 . S
H520 C555 0.929 . S
H521 C557 0.929 . S
H522 C558 0.931 . S
H523 C560 0.929 . S
N524 C544 1.433 . S
N524 C550 1.435 . S
N524 C556 1.423 . S
H525 C561 0.932 . S
C526 N501 1.433 . S
C526 C527 1.363 . S
C526 C531 1.370 . S
C527 H500 0.929 . S
C527 C526 1.363 . S
C527 C528 1.385 . S
C528 H502 0.930 . S
C528 C527 1.385 . S
C528 C529 1.357 . S
C529 C528 1.357 . S
C529 C530 1.406 . S
C530 H504 0.929 . S
C530 C529 1.406 . S
C530 C531 1.391 . S
C531 H503 0.931 . S
C531 C526 1.370 . S
C531 C530 1.391 . S
C532 N501 1.435 . S
C532 C533 1.358 . S
C532 C537 1.371 . S
C533 H505 0.930 . S
C533 C532 1.358 . S
C533 C534 1.405 . S
C534 H506 0.932 . S
C534 C533 1.405 . S
C534 C535 1.383 . S
C535 C534 1.383 . S
C535 C536 1.393 . S
C536 H508 0.931 . S
C536 C535 1.393 . S
C536 C537 1.382 . S
C537 H507 0.929 . S
C537 C532 1.371 . S
C537 C536 1.382 . S
C538 N501 1.423 . S
C538 C539 1.362 . S
C538 C543 1.388 . S
C539 H509 0.929 . S
C539 C538 1.362 . S
C539 C540 1.376 . S
C540 H511 0.931 . S
C540 C539 1.376 . S
C540 C541 1.396 . S
C541 C540 1.396 . S
C541 C542 1.348 . S
C541 C559 1.472 . S
C542 H512 0.929 . S
C542 C541 1.348 . S
C542 C543 1.443 . S
C543 H510 0.932 . S
C543 C538 1.388 . S
C543 C542 1.443 . S
C544 N524 1.433 . S
C544 C545 1.363 . S
C544 C549 1.370 . S
C545 H513 0.929 . S
C545 C544 1.363 . S
C545 C546 1.385 . S
C546 H514 0.930 . S
C546 C545 1.385 . S
C546 C547 1.357 . S
C547 C546 1.357 . S
C547 C548 1.406 . S
C548 H515 0.929 . S
C548 C547 1.406 . S
C548 C549 1.391 . S
C549 H516 0.931 . S
C549 C544 1.370 . S
C549 C548 1.391 . S
C550 N524 1.435 . S
C550 C551 1.358 . S
C550 C555 1.371 . S
C551 H517 0.930 . S
C551 C550 1.358 . S
C551 C552 1.405 . S
C552 H518 0.932 . S
C552 C551 1.405 . S
C552 C553 1.383 . S
C553 C552 1.383 . S
C553 C554 1.393 . S
C554 H519 0.931 . S
C554 C553 1.393 . S
C554 C555 1.382 . S
C555 H520 0.929 . S
C555 C550 1.371 . S
C555 C554 1.382 . S
C556 N524 1.423 . S
C556 C557 1.362 . S
C556 C561 1.388 . S
C557 H521 0.929 . S
C557 C556 1.362 . S
C557 C558 1.376 . S
C558 H522 0.931 . S
C558 C557 1.376 . S
C558 C559 1.396 . S
C559 C541 1.472 . S
C559 C558 1.396 . S
C559 C560 1.348 . S
C560 H523 0.929 . S
C560 C559 1.348 . S
C560 C561 1.443 . S
C561 H525 0.932 . S
C561 C556 1.388 . S
C561 C560 1.443 . S
H562 C589 0.929 . S
N563 C588 1.433 . S
N563 C594 1.435 . S
N563 C600 1.423 . S
H564 C590 0.930 . S
H565 C593 0.931 . S
H566 C592 0.929 . S
H567 C595 0.930 . S
H568 C596 0.932 . S
H569 C599 0.929 . S
H570 C598 0.931 . S
H571 C601 0.929 . S
H572 C605 0.932 . S
H573 C602 0.931 . S
H574 C604 0.929 . S
H575 C607 0.929 . S
H576 C608 0.930 . S
H577 C610 0.929 . S
H578 C611 0.931 . S
H579 C613 0.930 . S
H580 C614 0.932 . S
H581 C616 0.931 . S
H582 C617 0.929 . S
H583 C619 0.929 . S
H584 C620 0.931 . S
H585 C622 0.929 . S
N586 C606 1.433 . S
N586 C612 1.435 . S
N586 C618 1.423 . S
H587 C623 0.932 . S
C588 N563 1.433 . S
C588 C589 1.363 . S
C588 C593 1.370 . S
C589 H562 0.929 . S
C589 C588 1.363 . S
C589 C590 1.385 . S
C590 H564 0.930 . S
C590 C589 1.385 . S
C590 C591 1.357 . S
C591 C590 1.357 . S
C591 C592 1.406 . S
C592 H566 0.929 . S
C592 C591 1.406 . S
C592 C593 1.391 . S
C593 H565 0.931 . S
C593 C588 1.370 . S
C593 C592 1.391 . S
C594 N563 1.435 . S
C594 C595 1.358 . S
C594 C599 1.371 . S
C595 H567 0.930 . S
C595 C594 1.358 . S
C595 C596 1.405 . S
C596 H568 0.932 . S
C596 C595 1.405 . S
C596 C597 1.383 . S
C597 C596 1.383 . S
C597 C598 1.393 . S
C598 H570 0.931 . S
C598 C597 1.393 . S
C598 C599 1.382 . S
C599 H569 0.929 . S
C599 C594 1.371 . S
C599 C598 1.382 . S
C600 N563 1.423 . S
C600 C601 1.362 . S
C600 C605 1.388 . S
C601 H571 0.929 . S
C601 C600 1.362 . S
C601 C602 1.376 . S
C602 H573 0.931 . S
C602 C601 1.376 . S
C602 C603 1.396 . S
C603 C602 1.396 . S
C603 C604 1.348 . S
C603 C621 1.472 . S
C604 H574 0.929 . S
C604 C603 1.348 . S
C604 C605 1.443 . S
C605 H572 0.932 . S
C605 C600 1.388 . S
C605 C604 1.443 . S
C606 N586 1.433 . S
C606 C607 1.363 . S
C606 C611 1.370 . S
C607 H575 0.929 . S
C607 C606 1.363 . S
C607 C608 1.385 . S
C608 H576 0.930 . S
C608 C607 1.385 . S
C608 C609 1.357 . S
C609 C608 1.357 . S
C609 C610 1.406 . S
C610 H577 0.929 . S
C610 C609 1.406 . S
C610 C611 1.391 . S
C611 H578 0.931 . S
C611 C606 1.370 . S
C611 C610 1.391 . S
C612 N586 1.435 . S
C612 C613 1.358 . S
C612 C617 1.371 . S
C613 H579 0.930 . S
C613 C612 1.358 . S
C613 C614 1.405 . S
C614 H580 0.932 . S
C614 C613 1.405 . S
C614 C615 1.383 . S
C615 C614 1.383 . S
C615 C616 1.393 . S
C616 H581 0.931 . S
C616 C615 1.393 . S
C616 C617 1.382 . S
C617 H582 0.929 . S
C617 C612 1.371 . S
C617 C616 1.382 . S
C618 N586 1.423 . S
C618 C619 1.362 . S
C618 C623 1.388 . S
C619 H583 0.929 . S
C619 C618 1.362 . S
C619 C620 1.376 . S
C620 H584 0.931 . S
C620 C619 1.376 . S
C620 C621 1.396 . S
C621 C603 1.472 . S
C621 C620 1.396 . S
C621 C622 1.348 . S
C622 H585 0.929 . S
C622 C621 1.348 . S
C622 C623 1.443 . S
C623 H587 0.932 . S
C623 C618 1.388 . S
C623 C622 1.443 . S
H624 C651 0.929 . S
N625 C650 1.433 . S
N625 C656 1.435 . S
N625 C662 1.423 . S
H626 C652 0.930 . S
H627 C655 0.931 . S
H628 C654 0.929 . S
H629 C657 0.930 . S
H630 C658 0.932 . S
H631 C661 0.929 . S
H632 C660 0.931 . S
H633 C663 0.929 . S
H634 C667 0.932 . S
H635 C664 0.931 . S
H636 C666 0.929 . S
H637 C669 0.929 . S
H638 C670 0.930 . S
H639 C672 0.929 . S
H640 C673 0.931 . S
H641 C675 0.930 . S
H642 C676 0.932 . S
H643 C678 0.931 . S
H644 C679 0.929 . S
H645 C681 0.929 . S
H646 C682 0.931 . S
H647 C684 0.929 . S
N648 C668 1.433 . S
N648 C674 1.435 . S
N648 C680 1.423 . S
H649 C685 0.932 . S
C650 N625 1.433 . S
C650 C651 1.363 . S
C650 C655 1.370 . S
C651 H624 0.929 . S
C651 C650 1.363 . S
C651 C652 1.385 . S
C652 H626 0.930 . S
C652 C651 1.385 . S
C652 C653 1.357 . S
C653 C652 1.357 . S
C653 C654 1.406 . S
C654 H628 0.929 . S
C654 C653 1.406 . S
C654 C655 1.391 . S
C655 H627 0.931 . S
C655 C650 1.370 . S
C655 C654 1.391 . S
C656 N625 1.435 . S
C656 C657 1.358 . S
C656 C661 1.371 . S
C657 H629 0.930 . S
C657 C656 1.358 . S
C657 C658 1.405 . S
C658 H630 0.932 . S
C658 C657 1.405 . S
C658 C659 1.383 . S
C659 C658 1.383 . S
C659 C660 1.393 . S
C660 H632 0.931 . S
C660 C659 1.393 . S
C660 C661 1.382 . S
C661 H631 0.929 . S
C661 C656 1.371 . S
C661 C660 1.382 . S
C662 N625 1.423 . S
C662 C663 1.362 . S
C662 C667 1.388 . S
C663 H633 0.929 . S
C663 C662 1.362 . S
C663 C664 1.376 . S
C664 H635 0.931 . S
C664 C663 1.376 . S
C664 C665 1.396 . S
C665 C664 1.396 . S
C665 C666 1.348 . S
C665 C683 1.472 . S
C666 H636 0.929 . S
C666 C665 1.348 . S
C666 C667 1.443 . S
C667 H634 0.932 . S
C667 C662 1.388 . S
C667 C666 1.443 . S
C668 N648 1.433 . S
C668 C669 1.363 . S
C668 C673 1.370 . S
C669 H637 0.929 . S
C669 C668 1.363 . S
C669 C670 1.385 . S
C670 H638 0.930 . S
C670 C669 1.385 . S
C670 C671 1.357 . S
C671 C670 1.357 . S
C671 C672 1.406 . S
C672 H639 0.929 . S
C672 C671 1.406 . S
C672 C673 1.391 . S
C673 H640 0.931 . S
C673 C668 1.370 . S
C673 C672 1.391 . S
C674 N648 1.435 . S
C674 C675 1.358 . S
C674 C679 1.371 . S
C675 H641 0.930 . S
C675 C674 1.358 . S
C675 C676 1.405 . S
C676 H642 0.932 . S
C676 C675 1.405 . S
C676 C677 1.383 . S
C677 C676 1.383 . S
C677 C678 1.393 . S
C678 H643 0.931 . S
C678 C677 1.393 . S
C678 C679 1.382 . S
C679 H644 0.929 . S
C679 C674 1.371 . S
C679 C678 1.382 . S
C680 N648 1.423 . S
C680 C681 1.362 . S
C680 C685 1.388 . S
C681 H645 0.929 . S
C681 C680 1.362 . S
C681 C682 1.376 . S
C682 H646 0.931 . S
C682 C681 1.376 . S
C682 C683 1.396 . S
C683 C665 1.472 . S
C683 C682 1.396 . S
C683 C684 1.348 . S
C684 H647 0.929 . S
C684 C683 1.348 . S
C684 C685 1.443 . S
C685 H649 0.932 . S
C685 C680 1.388 . S
C685 C684 1.443 . S
H686 C713 0.929 . S
N687 C712 1.433 . S
N687 C718 1.435 . S
N687 C724 1.423 . S
H688 C714 0.930 . S
H689 C717 0.931 . S
H690 C716 0.929 . S
H691 C719 0.930 . S
H692 C720 0.932 . S
H693 C723 0.929 . S
H694 C722 0.931 . S
H695 C725 0.929 . S
H696 C729 0.932 . S
H697 C726 0.931 . S
H698 C728 0.929 . S
H699 C731 0.929 . S
H700 C732 0.930 . S
H701 C734 0.929 . S
H702 C735 0.931 . S
H703 C737 0.930 . S
H704 C738 0.932 . S
H705 C740 0.931 . S
H706 C741 0.929 . S
H707 C743 0.929 . S
H708 C744 0.931 . S
H709 C746 0.929 . S
N710 C730 1.433 . S
N710 C736 1.435 . S
N710 C742 1.423 . S
H711 C747 0.932 . S
C712 N687 1.433 . S
C712 C713 1.363 . S
C712 C717 1.370 . S
C713 H686 0.929 . S
C713 C712 1.363 . S
C713 C714 1.385 . S
C714 H688 0.930 . S
C714 C713 1.385 . S
C714 C715 1.357 . S
C715 C714 1.357 . S
C715 C716 1.406 . S
C716 H690 0.929 . S
C716 C715 1.406 . S
C716 C717 1.391 . S
C717 H689 0.931 . S
C717 C712 1.370 . S
C717 C716 1.391 . S
C718 N687 1.435 . S
C718 C719 1.358 . S
C718 C723 1.371 . S
C719 H691 0.930 . S
C719 C718 1.358 . S
C719 C720 1.405 . S
C720 H692 0.932 . S
C720 C719 1.405 . S
C720 C721 1.383 . S
C721 C720 1.383 . S
C721 C722 1.393 . S
C722 H694 0.931 . S
C722 C721 1.393 . S
C722 C723 1.382 . S
C723 H693 0.929 . S
C723 C718 1.371 . S
C723 C722 1.382 . S
C724 N687 1.423 . S
C724 C725 1.362 . S
C724 C729 1.388 . S
C725 H695 0.929 . S
C725 C724 1.362 . S
C725 C726 1.376 . S
C726 H697 0.931 . S
C726 C725 1.376 . S
C726 C727 1.396 . S
C727 C726 1.396 . S
C727 C728 1.348 . S
C727 C745 1.472 . S
C728 H698 0.929 . S
C728 C727 1.348 . S
C728 C729 1.443 . S
C729 H696 0.932 . S
C729 C724 1.388 . S
C729 C728 1.443 . S
C730 N710 1.433 . S
C730 C731 1.363 . S
C730 C735 1.370 . S
C731 H699 0.929 . S
C731 C730 1.363 . S
C731 C732 1.385 . S
C732 H700 0.930 . S
C732 C731 1.385 . S
C732 C733 1.357 . S
C733 C732 1.357 . S
C733 C734 1.406 . S
C734 H701 0.929 . S
C734 C733 1.406 . S
C734 C735 1.391 . S
C735 H702 0.931 . S
C735 C730 1.370 . S
C735 C734 1.391 . S
C736 N710 1.435 . S
C736 C737 1.358 . S
C736 C741 1.371 . S
C737 H703 0.930 . S
C737 C736 1.358 . S
C737 C738 1.405 . S
C738 H704 0.932 . S
C738 C737 1.405 . S
C738 C739 1.383 . S
C739 C738 1.383 . S
C739 C740 1.393 . S
C740 H705 0.931 . S
C740 C739 1.393 . S
C740 C741 1.382 . S
C741 H706 0.929 . S
C741 C736 1.371 . S
C741 C740 1.382 . S
C742 N710 1.423 . S
C742 C743 1.362 . S
C742 C747 1.388 . S
C743 H707 0.929 . S
C743 C742 1.362 . S
C743 C744 1.376 . S
C744 H708 0.931 . S
C744 C743 1.376 . S
C744 C745 1.396 . S
C745 C727 1.472 . S
C745 C744 1.396 . S
C745 C746 1.348 . S
C746 H709 0.929 . S
C746 C745 1.348 . S
C746 C747 1.443 . S
C747 H711 0.932 . S
C747 C742 1.388 . S
C747 C746 1.443 . S
H748 C775 0.929 . S
N749 C774 1.433 . S
N749 C780 1.435 . S
N749 C786 1.423 . S
H750 C776 0.930 . S
H751 C779 0.931 . S
H752 C778 0.929 . S
H753 C781 0.930 . S
H754 C782 0.932 . S
H755 C785 0.929 . S
H756 C784 0.931 . S
H757 C787 0.929 . S
H758 C791 0.932 . S
H759 C788 0.931 . S
H760 C790 0.929 . S
H761 C793 0.929 . S
H762 C794 0.930 . S
H763 C796 0.929 . S
H764 C797 0.931 . S
H765 C799 0.930 . S
H766 C800 0.932 . S
H767 C802 0.931 . S
H768 C803 0.929 . S
H769 C805 0.929 . S
H770 C806 0.931 . S
H771 C808 0.929 . S
N772 C792 1.433 . S
N772 C798 1.435 . S
N772 C804 1.423 . S
H773 C809 0.932 . S
C774 N749 1.433 . S
C774 C775 1.363 . S
C774 C779 1.370 . S
C775 H748 0.929 . S
C775 C774 1.363 . S
C775 C776 1.385 . S
C776 H750 0.930 . S
C776 C775 1.385 . S
C776 C777 1.357 . S
C777 C776 1.357 . S
C777 C778 1.406 . S
C778 H752 0.929 . S
C778 C777 1.406 . S
C778 C779 1.391 . S
C779 H751 0.931 . S
C779 C774 1.370 . S
C779 C778 1.391 . S
C780 N749 1.435 . S
C780 C781 1.358 . S
C780 C785 1.371 . S
C781 H753 0.930 . S
C781 C780 1.358 . S
C781 C782 1.405 . S
C782 H754 0.932 . S
C782 C781 1.405 . S
C782 C783 1.383 . S
C783 C782 1.383 . S
C783 C784 1.393 . S
C784 H756 0.931 . S
C784 C783 1.393 . S
C784 C785 1.382 . S
C785 H755 0.929 . S
C785 C780 1.371 . S
C785 C784 1.382 . S
C786 N749 1.423 . S
C786 C787 1.362 . S
C786 C791 1.388 . S
C787 H757 0.929 . S
C787 C786 1.362 . S
C787 C788 1.376 . S
C788 H759 0.931 . S
C788 C787 1.376 . S
C788 C789 1.396 . S
C789 C788 1.396 . S
C789 C790 1.348 . S
C789 C807 1.472 . S
C790 H760 0.929 . S
C790 C789 1.348 . S
C790 C791 1.443 . S
C791 H758 0.932 . S
C791 C786 1.388 . S
C791 C790 1.443 . S
C792 N772 1.433 . S
C792 C793 1.363 . S
C792 C797 1.370 . S
C793 H761 0.929 . S
C793 C792 1.363 . S
C793 C794 1.385 . S
C794 H762 0.930 . S
C794 C793 1.385 . S
C794 C795 1.357 . S
C795 C794 1.357 . S
C795 C796 1.406 . S
C796 H763 0.929 . S
C796 C795 1.406 . S
C796 C797 1.391 . S
C797 H764 0.931 . S
C797 C792 1.370 . S
C797 C796 1.391 . S
C798 N772 1.435 . S
C798 C799 1.358 . S
C798 C803 1.371 . S
C799 H765 0.930 . S
C799 C798 1.358 . S
C799 C800 1.405 . S
C800 H766 0.932 . S
C800 C799 1.405 . S
C800 C801 1.383 . S
C801 C800 1.383 . S
C801 C802 1.393 . S
C802 H767 0.931 . S
C802 C801 1.393 . S
C802 C803 1.382 . S
C803 H768 0.929 . S
C803 C798 1.371 . S
C803 C802 1.382 . S
C804 N772 1.423 . S
C804 C805 1.362 . S
C804 C809 1.388 . S
C805 H769 0.929 . S
C805 C804 1.362 . S
C805 C806 1.376 . S
C806 H770 0.931 . S
C806 C805 1.376 . S
C806 C807 1.396 . S
C807 C789 1.472 . S
C807 C806 1.396 . S
C807 C808 1.348 . S
C808 H771 0.929 . S
C808 C807 1.348 . S
C808 C809 1.443 . S
C809 H773 0.932 . S
C809 C804 1.388 . S
C809 C808 1.443 . S
H810 C837 0.929 . S
N811 C836 1.433 . S
N811 C842 1.435 . S
N811 C848 1.423 . S
H812 C838 0.930 . S
H813 C841 0.931 . S
H814 C840 0.929 . S
H815 C843 0.930 . S
H816 C844 0.932 . S
H817 C847 0.929 . S
H818 C846 0.931 . S
H819 C849 0.929 . S
H820 C853 0.932 1_655 S
H821 C850 0.931 . S
H822 C852 0.940 . S
H823 C855 0.929 . S
H824 C856 0.930 . S
H825 C858 0.929 . S
H826 C859 0.931 . S
H827 C861 0.930 . S
H828 C862 0.932 . S
H829 C864 0.931 . S
H830 C865 0.929 . S
H831 C867 0.929 . S
H832 C868 0.931 . S
H833 C870 0.984 . S
N834 C854 1.433 . S
N834 C860 1.435 . S
N834 C866 1.423 . S
H835 C871 0.932 1_655 S
C836 N811 1.433 . S
C836 C837 1.363 . S
C836 C841 1.370 1_455 S
C837 H810 0.929 . S
C837 C836 1.363 . S
C837 C838 1.385 . S
C838 H812 0.930 . S
C838 C837 1.385 . S
C838 C839 1.357 1_455 S
C839 C838 1.357 1_655 S
C839 C840 1.406 . S
C840 H814 0.929 . S
C840 C839 1.406 . S
C840 C841 1.391 . S
C841 H813 0.931 . S
C841 C836 1.370 1_655 S
C841 C840 1.391 . S
C842 N811 1.435 . S
C842 C843 1.358 1_455 S
C842 C847 1.371 . S
C843 H815 0.930 . S
C843 C842 1.358 1_655 S
C843 C844 1.405 . S
C844 H816 0.932 . S
C844 C843 1.405 . S
C844 C845 1.383 1_655 S
C845 C844 1.383 1_455 S
C845 C846 1.393 . S
C846 H818 0.931 . S
C846 C845 1.393 . S
C846 C847 1.382 . S
C847 H817 0.929 . S
C847 C842 1.371 . S
C847 C846 1.382 . S
C848 N811 1.423 . S
C848 C849 1.362 . S
C848 C853 1.388 . S
C849 H819 0.929 . S
C849 C848 1.362 . S
C849 C850 1.376 . S
C850 H821 0.931 . S
C850 C849 1.376 . S
C850 C851 1.396 . S
C851 C850 1.396 . S
C851 C852 1.348 . S
C851 C869 1.472 . S
C852 H822 0.940 . S
C852 C851 1.348 . S
C852 C853 1.443 . S
C853 H820 0.932 1_455 S
C853 C848 1.388 . S
C853 C852 1.443 . S
C854 N834 1.433 . S
C854 C855 1.363 . S
C854 C859 1.370 1_455 S
C855 H823 0.929 . S
C855 C854 1.363 . S
C855 C856 1.385 . S
C856 H824 0.930 . S
C856 C855 1.385 . S
C856 C857 1.357 1_455 S
C857 C856 1.357 1_655 S
C857 C858 1.406 . S
C858 H825 0.929 . S
C858 C857 1.406 . S
C858 C859 1.391 . S
C859 H826 0.931 . S
C859 C854 1.370 1_655 S
C859 C858 1.391 . S
C860 N834 1.435 . S
C860 C861 1.358 1_455 S
C860 C865 1.371 . S
C861 H827 0.930 . S
C861 C860 1.358 1_655 S
C861 C862 1.405 . S
C862 H828 0.932 . S
C862 C861 1.405 . S
C862 C863 1.383 1_655 S
C863 C862 1.383 1_455 S
C863 C864 1.393 . S
C864 H829 0.931 . S
C864 C863 1.393 . S
C864 C865 1.382 . S
C865 H830 0.929 . S
C865 C860 1.371 . S
C865 C864 1.382 . S
C866 N834 1.423 . S
C866 C867 1.362 . S
C866 C871 1.388 . S
C867 H831 0.929 . S
C867 C866 1.362 . S
C867 C868 1.376 . S
C868 H832 0.931 . S
C868 C867 1.376 . S
C868 C869 1.396 . S
C869 C851 1.472 . S
C869 C868 1.396 . S
C869 C870 1.348 . S
C870 H833 0.984 . S
C870 C869 1.348 . S
C870 C871 1.443 . S
C871 H835 0.932 1_455 S
C871 C866 1.388 . S
C871 C870 1.443 . S
H872 C899 0.929 . S
N873 C898 1.433 . S
N873 C904 1.435 . S
N873 C910 1.423 . S
H874 C900 0.930 . S
H875 C903 0.931 . S
H876 C902 0.929 . S
H877 C905 0.930 . S
H878 C906 0.932 . S
H879 C909 0.929 . S
H880 C908 0.931 . S
H881 C911 0.929 . S
H882 C915 0.932 . S
H883 C912 0.931 . S
H884 C914 0.929 . S
H885 C917 0.929 . S
H886 C918 0.930 . S
H887 C920 0.929 . S
H888 C921 0.931 . S
H889 C923 0.930 . S
H890 C924 0.932 . S
H891 C926 0.931 . S
H892 C927 0.929 . S
H893 C929 0.929 . S
H894 C930 0.931 . S
H895 C932 0.929 . S
N896 C916 1.433 . S
N896 C922 1.435 . S
N896 C928 1.423 . S
H897 C933 0.932 . S
C898 N873 1.433 . S
C898 C899 1.363 . S
C898 C903 1.370 . S
C899 H872 0.929 . S
C899 C898 1.363 . S
C899 C900 1.385 . S
C900 H874 0.930 . S
C900 C899 1.385 . S
C900 C901 1.357 . S
C901 C900 1.357 . S
C901 C902 1.406 . S
C902 H876 0.929 . S
C902 C901 1.406 . S
C902 C903 1.391 . S
C903 H875 0.931 . S
C903 C898 1.370 . S
C903 C902 1.391 . S
C904 N873 1.435 . S
C904 C905 1.358 . S
C904 C909 1.371 . S
C905 H877 0.930 . S
C905 C904 1.358 . S
C905 C906 1.405 . S
C906 H878 0.932 . S
C906 C905 1.405 . S
C906 C907 1.383 . S
C907 C906 1.383 . S
C907 C908 1.393 . S
C908 H880 0.931 . S
C908 C907 1.393 . S
C908 C909 1.382 . S
C909 H879 0.929 . S
C909 C904 1.371 . S
C909 C908 1.382 . S
C910 N873 1.423 . S
C910 C911 1.362 . S
C910 C915 1.388 . S
C911 H881 0.929 . S
C911 C910 1.362 . S
C911 C912 1.376 . S
C912 H883 0.931 . S
C912 C911 1.376 . S
C912 C913 1.396 . S
C913 C912 1.396 . S
C913 C914 1.348 . S
C913 C931 1.472 . S
C914 H884 0.929 . S
C914 C913 1.348 . S
C914 C915 1.443 . S
C915 H882 0.932 . S
C915 C910 1.388 . S
C915 C914 1.443 . S
C916 N896 1.433 . S
C916 C917 1.363 . S
C916 C921 1.370 . S
C917 H885 0.929 . S
C917 C916 1.363 . S
C917 C918 1.385 . S
C918 H886 0.930 . S
C918 C917 1.385 . S
C918 C919 1.357 . S
C919 C918 1.357 . S
C919 C920 1.406 . S
C920 H887 0.929 . S
C920 C919 1.406 . S
C920 C921 1.391 . S
C921 H888 0.931 . S
C921 C916 1.370 . S
C921 C920 1.391 . S
C922 N896 1.435 . S
C922 C923 1.358 . S
C922 C927 1.371 . S
C923 H889 0.930 . S
C923 C922 1.358 . S
C923 C924 1.405 . S
C924 H890 0.932 . S
C924 C923 1.405 . S
C924 C925 1.383 . S
C925 C924 1.383 . S
C925 C926 1.393 . S
C926 H891 0.931 . S
C926 C925 1.393 . S
C926 C927 1.382 . S
C927 H892 0.929 . S
C927 C922 1.371 . S
C927 C926 1.382 . S
C928 N896 1.423 . S
C928 C929 1.362 . S
C928 C933 1.388 . S
C929 H893 0.929 . S
C929 C928 1.362 . S
C929 C930 1.376 . S
C930 H894 0.931 . S
C930 C929 1.376 . S
C930 C931 1.396 . S
C931 C913 1.472 . S
C931 C930 1.396 . S
C931 C932 1.348 . S
C932 H895 0.929 . S
C932 C931 1.348 . S
C932 C933 1.443 . S
C933 H897 0.932 . S
C933 C928 1.388 . S
C933 C932 1.443 . S
H934 C961 0.929 . S
N935 C960 1.433 . S
N935 C966 1.435 . S
N935 C972 1.423 . S
H936 C962 0.930 . S
H937 C965 0.931 . S
H938 C964 0.929 . S
H939 C967 0.930 . S
H940 C968 0.932 . S
H941 C971 0.929 . S
H942 C970 0.931 . S
H943 C973 0.929 . S
H944 C977 0.932 1_545 S
H945 C974 0.931 . S
H946 C976 0.929 . S
H947 C979 0.929 . S
H948 C980 0.930 . S
H949 C982 0.929 . S
H950 C983 0.931 . S
H951 C985 0.930 . S
H952 C986 0.932 . S
H953 C988 0.931 . S
H954 C989 0.929 . S
H955 C991 0.929 . S
H956 C992 0.931 . S
H957 C994 0.929 . S
N958 C978 1.433 . S
N958 C984 1.435 . S
N958 C990 1.423 . S
H959 C995 0.932 1_545 S
C960 N935 1.433 . S
C960 C961 1.363 . S
C960 C965 1.370 1_565 S
C961 H934 0.929 . S
C961 C960 1.363 . S
C961 C962 1.385 . S
C962 H936 0.930 . S
C962 C961 1.385 . S
C962 C963 1.357 1_565 S
C963 C962 1.357 1_545 S
C963 C964 1.406 . S
C964 H938 0.929 . S
C964 C963 1.406 . S
C964 C965 1.391 . S
C965 H937 0.931 . S
C965 C960 1.370 1_545 S
C965 C964 1.391 . S
C966 N935 1.435 . S
C966 C967 1.358 1_565 S
C966 C971 1.371 . S
C967 H939 0.930 . S
C967 C966 1.358 1_545 S
C967 C968 1.405 . S
C968 H940 0.932 . S
C968 C967 1.405 . S
C968 C969 1.383 1_545 S
C969 C968 1.383 1_565 S
C969 C970 1.393 . S
C970 H942 0.931 . S
C970 C969 1.393 . S
C970 C971 1.382 . S
C971 H941 0.929 . S
C971 C966 1.371 . S
C971 C970 1.382 . S
C972 N935 1.423 . S
C972 C973 1.362 . S
C972 C977 1.388 . S
C973 H943 0.929 . S
C973 C972 1.362 . S
C973 C974 1.376 . S
C974 H945 0.931 . S
C974 C973 1.376 . S
C974 C975 1.396 . S
C975 C974 1.396 . S
C975 C976 1.348 . S
C975 C993 1.472 . S
C976 H946 0.929 . S
C976 C975 1.348 . S
C976 C977 1.443 . S
C977 H944 0.932 1_565 S
C977 C972 1.388 . S
C977 C976 1.443 . S
C978 N958 1.433 . S
C978 C979 1.363 . S
C978 C983 1.370 1_565 S
C979 H947 0.929 . S
C979 C978 1.363 . S
C979 C980 1.385 . S
C980 H948 0.930 . S
C980 C979 1.385 . S
C980 C981 1.357 1_565 S
C981 C980 1.357 1_545 S
C981 C982 1.406 . S
C982 H949 0.929 . S
C982 C981 1.406 . S
C982 C983 1.391 . S
C983 H950 0.931 . S
C983 C978 1.370 1_545 S
C983 C982 1.391 . S
C984 N958 1.435 . S
C984 C985 1.358 1_565 S
C984 C989 1.371 . S
C985 H951 0.930 . S
C985 C984 1.358 1_545 S
C985 C986 1.405 . S
C986 H952 0.932 . S
C986 C985 1.405 . S
C986 C987 1.383 1_545 S
C987 C986 1.383 1_565 S
C987 C988 1.393 . S
C988 H953 0.931 . S
C988 C987 1.393 . S
C988 C989 1.382 . S
C989 H954 0.929 . S
C989 C984 1.371 . S
C989 C988 1.382 . S
C990 N958 1.423 . S
C990 C991 1.362 . S
C990 C995 1.388 . S
C991 H955 0.929 . S
C991 C990 1.362 . S
C991 C992 1.376 . S
C992 H956 0.931 . S
C992 C991 1.376 . S
C992 C993 1.396 . S
C993 C975 1.472 . S
C993 C992 1.396 . S
C993 C994 1.348 . S
C994 H957 0.929 . S
C994 C993 1.348 . S
C994 C995 1.443 . S
C995 H959 0.932 1_565 S
C995 C990 1.388 . S
C995 C994 1.443 . S
H996 C1023 0.929 . S
N997 C1022 1.433 . S
N997 C1028 1.435 . S
N997 C1034 1.423 . S
H998 C1024 0.930 . S
H999 C1027 0.930 . S
H1000 C1026 0.948 . S
H1001 C1029 0.930 . S
H1002 C1030 0.932 . S
H1003 C1033 0.929 . S
H1004 C1032 0.931 . S
H1005 C1035 0.929 . S
H1006 C1039 1.004 . S
H1007 C1036 0.931 . S
H1008 C1038 0.917 1_545 S
H1009 C1041 0.929 . S
H1010 C1042 0.930 . S
H1011 C1044 0.929 . S
H1012 C1045 1.010 . S
H1013 C1047 0.930 . S
H1014 C1048 0.932 . S
H1015 C1050 0.931 . S
H1016 C1051 0.929 . S
H1017 C1053 0.929 . S
H1018 C1054 0.931 . S
H1019 C1056 0.895 1_545 S
N1020 C1040 1.433 . S
N1020 C1046 1.435 . S
N1020 C1052 1.423 . S
H1021 C1057 0.973 . S
C1022 N997 1.433 . S
C1022 C1023 1.363 . S
C1022 C1027 1.363 1_565 S
C1023 H996 0.929 . S
C1023 C1022 1.363 . S
C1023 C1024 1.385 . S
C1024 H998 0.930 . S
C1024 C1023 1.385 . S
C1024 C1025 1.357 . S
C1025 C1024 1.357 . S
C1025 C1026 1.413 1_565 S
C1026 H1000 0.948 . S
C1026 C1025 1.413 1_545 S
C1026 C1027 1.386 . S
C1027 H999 0.930 . S
C1027 C1022 1.363 1_545 S
C1027 C1026 1.386 . S
C1028 N997 1.435 . S
C1028 C1029 1.358 1_565 S
C1028 C1033 1.371 . S
C1029 H1001 0.930 . S
C1029 C1028 1.358 1_545 S
C1029 C1030 1.405 . S
C1030 H1002 0.932 . S
C1030 C1029 1.405 . S
C1030 C1031 1.383 . S
C1031 C1030 1.383 . S
C1031 C1032 1.393 1_545 S
C1032 H1004 0.931 . S
C1032 C1031 1.393 1_565 S
C1032 C1033 1.382 . S
C1033 H1003 0.929 . S
C1033 C1028 1.371 . S
C1033 C1032 1.382 . S
C1034 N997 1.423 . S
C1034 C1035 1.362 . S
C1034 C1039 1.367 1_565 S
C1035 H1005 0.929 . S
C1035 C1034 1.362 . S
C1035 C1036 1.376 . S
C1036 H1007 0.931 . S
C1036 C1035 1.376 . S
C1036 C1037 1.396 . S
C1037 C1036 1.396 . S
C1037 C1038 1.395 . S
C1037 C1055 1.472 . S
C1038 H1008 0.917 1_565 S
C1038 C1037 1.395 . S
C1038 C1039 1.365 1_565 S
C1039 H1006 1.004 . S
C1039 C1034 1.367 1_545 S
C1039 C1038 1.365 1_545 S
C1040 N1020 1.433 . S
C1040 C1041 1.363 . S
C1040 C1045 1.310 1_565 S
C1041 H1009 0.929 . S
C1041 C1040 1.363 . S
C1041 C1042 1.385 . S
C1042 H1010 0.930 . S
C1042 C1041 1.385 . S
C1042 C1043 1.357 . S
C1043 C1042 1.357 . S
C1043 C1044 1.406 1_565 S
C1044 H1011 0.929 . S
C1044 C1043 1.406 1_545 S
C1044 C1045 1.378 . S
C1045 H1012 1.010 . S
C1045 C1040 1.310 1_545 S
C1045 C1044 1.378 . S
C1046 N1020 1.435 . S
C1046 C1047 1.358 1_565 S
C1046 C1051 1.371 . S
C1047 H1013 0.930 . S
C1047 C1046 1.358 1_545 S
C1047 C1048 1.405 . S
C1048 H1014 0.932 . S
C1048 C1047 1.405 . S
C1048 C1049 1.383 . S
C1049 C1048 1.383 . S
C1049 C1050 1.393 1_545 S
C1050 H1015 0.931 . S
C1050 C1049 1.393 1_565 S
C1050 C1051 1.382 . S
C1051 H1016 0.929 . S
C1051 C1046 1.371 . S
C1051 C1050 1.382 . S
C1052 N1020 1.423 . S
C1052 C1053 1.362 . S
C1052 C1057 1.310 1_565 S
C1053 H1017 0.929 . S
C1053 C1052 1.362 . S
C1053 C1054 1.376 . S
C1054 H1018 0.931 . S
C1054 C1053 1.376 . S
C1054 C1055 1.396 . S
C1055 C1037 1.472 . S
C1055 C1054 1.396 . S
C1055 C1056 1.362 . S
C1056 H1019 0.895 1_565 S
C1056 C1055 1.362 . S
C1056 C1057 1.511 1_565 S
C1057 H1021 0.973 . S
C1057 C1052 1.310 1_545 S
C1057 C1056 1.511 1_545 S
H1058 C1085 0.929 . S
N1059 C1084 1.433 . S
N1059 C1090 1.435 . S
N1059 C1096 1.423 . S
H1060 C1086 0.930 . S
H1061 C1089 0.931 . S
H1062 C1088 0.929 . S
H1063 C1091 0.930 . S
H1064 C1092 0.932 . S
H1065 C1095 0.929 . S
H1066 C1094 0.931 . S
H1067 C1097 0.929 . S
H1068 C1101 0.932 1_455 S
H1069 C1098 0.931 . S
H1070 C1100 0.929 . S
H1071 C1103 0.929 . S
H1072 C1104 0.930 . S
H1073 C1106 0.929 . S
H1074 C1107 0.931 . S
H1075 C1109 0.930 . S
H1076 C1110 0.932 . S
H1077 C1112 0.931 . S
H1078 C1113 0.929 . S
H1079 C1115 0.929 . S
H1080 C1116 0.931 . S
H1081 C1118 0.944 . S
N1082 C1102 1.433 . S
N1082 C1108 1.435 . S
N1082 C1114 1.423 . S
H1083 C1119 0.932 1_455 S
C1084 N1059 1.433 . S
C1084 C1085 1.363 . S
C1084 C1089 1.370 1_655 S
C1085 H1058 0.929 . S
C1085 C1084 1.363 . S
C1085 C1086 1.385 . S
C1086 H1060 0.930 . S
C1086 C1085 1.385 . S
C1086 C1087 1.357 1_655 S
C1087 C1086 1.357 1_455 S
C1087 C1088 1.406 . S
C1088 H1062 0.929 . S
C1088 C1087 1.406 . S
C1088 C1089 1.391 . S
C1089 H1061 0.931 . S
C1089 C1084 1.370 1_455 S
C1089 C1088 1.391 . S
C1090 N1059 1.435 . S
C1090 C1091 1.358 1_655 S
C1090 C1095 1.371 . S
C1091 H1063 0.930 . S
C1091 C1090 1.358 1_455 S
C1091 C1092 1.405 . S
C1092 H1064 0.932 . S
C1092 C1091 1.405 . S
C1092 C1093 1.383 1_455 S
C1093 C1092 1.383 1_655 S
C1093 C1094 1.393 . S
C1094 H1066 0.931 . S
C1094 C1093 1.393 . S
C1094 C1095 1.382 . S
C1095 H1065 0.929 . S
C1095 C1090 1.371 . S
C1095 C1094 1.382 . S
C1096 N1059 1.423 . S
C1096 C1097 1.362 . S
C1096 C1101 1.388 . S
C1097 H1067 0.929 . S
C1097 C1096 1.362 . S
C1097 C1098 1.376 . S
C1098 H1069 0.931 . S
C1098 C1097 1.376 . S
C1098 C1099 1.396 . S
C1099 C1098 1.396 . S
C1099 C1100 1.348 . S
C1099 C1117 1.472 . S
C1100 H1070 0.929 . S
C1100 C1099 1.348 . S
C1100 C1101 1.443 . S
C1101 H1068 0.932 1_655 S
C1101 C1096 1.388 . S
C1101 C1100 1.443 . S
C1102 N1082 1.433 . S
C1102 C1103 1.363 . S
C1102 C1107 1.370 1_655 S
C1103 H1071 0.929 . S
C1103 C1102 1.363 . S
C1103 C1104 1.385 . S
C1104 H1072 0.930 . S
C1104 C1103 1.385 . S
C1104 C1105 1.357 1_655 S
C1105 C1104 1.357 1_455 S
C1105 C1106 1.406 . S
C1106 H1073 0.929 . S
C1106 C1105 1.406 . S
C1106 C1107 1.391 . S
C1107 H1074 0.931 . S
C1107 C1102 1.370 1_455 S
C1107 C1106 1.391 . S
C1108 N1082 1.435 . S
C1108 C1109 1.358 1_655 S
C1108 C1113 1.371 . S
C1109 H1075 0.930 . S
C1109 C1108 1.358 1_455 S
C1109 C1110 1.405 . S
C1110 H1076 0.932 . S
C1110 C1109 1.405 . S
C1110 C1111 1.383 1_455 S
C1111 C1110 1.383 1_655 S
C1111 C1112 1.393 . S
C1112 H1077 0.931 . S
C1112 C1111 1.393 . S
C1112 C1113 1.382 . S
C1113 H1078 0.929 . S
C1113 C1108 1.371 . S
C1113 C1112 1.382 . S
C1114 N1082 1.423 . S
C1114 C1115 1.362 . S
C1114 C1119 1.388 . S
C1115 H1079 0.929 . S
C1115 C1114 1.362 . S
C1115 C1116 1.376 . S
C1116 H1080 0.931 . S
C1116 C1115 1.376 . S
C1116 C1117 1.396 . S
C1117 C1099 1.472 . S
C1117 C1116 1.396 . S
C1117 C1118 1.348 . S
C1118 H1081 0.944 . S
C1118 C1117 1.348 . S
C1118 C1119 1.443 . S
C1119 H1083 0.932 1_655 S
C1119 C1114 1.388 . S
C1119 C1118 1.443 . S
H1120 C1147 0.929 . S
N1121 C1146 1.433 . S
N1121 C1152 1.435 . S
N1121 C1158 1.423 . S
H1122 C1148 0.930 . S
H1123 C1151 0.931 . S
H1124 C1150 0.929 . S
H1125 C1153 0.930 . S
H1126 C1154 0.932 . S
H1127 C1157 0.929 . S
H1128 C1156 0.931 . S
H1129 C1159 0.929 . S
H1130 C1163 0.932 . S
H1131 C1160 0.931 . S
H1132 C1162 0.929 . S
H1133 C1165 0.929 . S
H1134 C1166 0.930 . S
H1135 C1168 0.929 . S
H1136 C1169 0.931 . S
H1137 C1171 0.930 . S
H1138 C1172 0.932 . S
H1139 C1174 0.931 . S
H1140 C1175 0.929 . S
H1141 C1177 0.929 . S
H1142 C1178 0.931 . S
H1143 C1180 0.929 . S
N1144 C1164 1.433 . S
N1144 C1170 1.435 . S
N1144 C1176 1.423 . S
H1145 C1181 0.932 . S
C1146 N1121 1.433 . S
C1146 C1147 1.363 . S
C1146 C1151 1.370 . S
C1147 H1120 0.929 . S
C1147 C1146 1.363 . S
C1147 C1148 1.385 . S
C1148 H1122 0.930 . S
C1148 C1147 1.385 . S
C1148 C1149 1.357 . S
C1149 C1148 1.357 . S
C1149 C1150 1.406 . S
C1150 H1124 0.929 . S
C1150 C1149 1.406 . S
C1150 C1151 1.391 . S
C1151 H1123 0.931 . S
C1151 C1146 1.370 . S
C1151 C1150 1.391 . S
C1152 N1121 1.435 . S
C1152 C1153 1.358 . S
C1152 C1157 1.371 . S
C1153 H1125 0.930 . S
C1153 C1152 1.358 . S
C1153 C1154 1.405 . S
C1154 H1126 0.932 . S
C1154 C1153 1.405 . S
C1154 C1155 1.383 . S
C1155 C1154 1.383 . S
C1155 C1156 1.393 . S
C1156 H1128 0.931 . S
C1156 C1155 1.393 . S
C1156 C1157 1.382 . S
C1157 H1127 0.929 . S
C1157 C1152 1.371 . S
C1157 C1156 1.382 . S
C1158 N1121 1.423 . S
C1158 C1159 1.362 . S
C1158 C1163 1.388 . S
C1159 H1129 0.929 . S
C1159 C1158 1.362 . S
C1159 C1160 1.376 . S
C1160 H1131 0.931 . S
C1160 C1159 1.376 . S
C1160 C1161 1.396 . S
C1161 C1160 1.396 . S
C1161 C1162 1.348 . S
C1161 C1179 1.472 . S
C1162 H1132 0.929 . S
C1162 C1161 1.348 . S
C1162 C1163 1.443 . S
C1163 H1130 0.932 . S
C1163 C1158 1.388 . S
C1163 C1162 1.443 . S
C1164 N1144 1.433 . S
C1164 C1165 1.363 . S
C1164 C1169 1.370 . S
C1165 H1133 0.929 . S
C1165 C1164 1.363 . S
C1165 C1166 1.385 . S
C1166 H1134 0.930 . S
C1166 C1165 1.385 . S
C1166 C1167 1.357 . S
C1167 C1166 1.357 . S
C1167 C1168 1.406 . S
C1168 H1135 0.929 . S
C1168 C1167 1.406 . S
C1168 C1169 1.391 . S
C1169 H1136 0.931 . S
C1169 C1164 1.370 . S
C1169 C1168 1.391 . S
C1170 N1144 1.435 . S
C1170 C1171 1.358 . S
C1170 C1175 1.371 . S
C1171 H1137 0.930 . S
C1171 C1170 1.358 . S
C1171 C1172 1.405 . S
C1172 H1138 0.932 . S
C1172 C1171 1.405 . S
C1172 C1173 1.383 . S
C1173 C1172 1.383 . S
C1173 C1174 1.393 . S
C1174 H1139 0.931 . S
C1174 C1173 1.393 . S
C1174 C1175 1.382 . S
C1175 H1140 0.929 . S
C1175 C1170 1.371 . S
C1175 C1174 1.382 . S
C1176 N1144 1.423 . S
C1176 C1177 1.362 . S
C1176 C1181 1.388 . S
C1177 H1141 0.929 . S
C1177 C1176 1.362 . S
C1177 C1178 1.376 . S
C1178 H1142 0.931 . S
C1178 C1177 1.376 . S
C1178 C1179 1.396 . S
C1179 C1161 1.472 . S
C1179 C1178 1.396 . S
C1179 C1180 1.348 . S
C1180 H1143 0.929 . S
C1180 C1179 1.348 . S
C1180 C1181 1.443 . S
C1181 H1145 0.932 . S
C1181 C1176 1.388 . S
C1181 C1180 1.443 . S
H1182 C1209 0.929 . S
N1183 C1208 1.433 . S
N1183 C1214 1.435 . S
N1183 C1220 1.423 . S
H1184 C1210 0.930 . S
H1185 C1213 0.931 . S
H1186 C1212 0.929 . S
H1187 C1215 0.930 . S
H1188 C1216 0.932 . S
H1189 C1219 0.929 . S
H1190 C1218 0.931 . S
H1191 C1221 0.929 . S
H1192 C1225 0.932 . S
H1193 C1222 0.931 . S
H1194 C1224 0.929 . S
H1195 C1227 0.929 . S
H1196 C1228 0.930 . S
H1197 C1230 0.929 . S
H1198 C1231 0.931 . S
H1199 C1233 0.930 . S
H1200 C1234 0.932 . S
H1201 C1236 0.931 . S
H1202 C1237 0.929 . S
H1203 C1239 0.929 . S
H1204 C1240 0.931 . S
H1205 C1242 0.929 . S
N1206 C1226 1.433 . S
N1206 C1232 1.435 . S
N1206 C1238 1.423 . S
H1207 C1243 0.932 . S
C1208 N1183 1.433 . S
C1208 C1209 1.363 . S
C1208 C1213 1.370 . S
C1209 H1182 0.929 . S
C1209 C1208 1.363 . S
C1209 C1210 1.385 . S
C1210 H1184 0.930 . S
C1210 C1209 1.385 . S
C1210 C1211 1.357 . S
C1211 C1210 1.357 . S
C1211 C1212 1.406 . S
C1212 H1186 0.929 . S
C1212 C1211 1.406 . S
C1212 C1213 1.391 . S
C1213 H1185 0.931 . S
C1213 C1208 1.370 . S
C1213 C1212 1.391 . S
C1214 N1183 1.435 . S
C1214 C1215 1.358 . S
C1214 C1219 1.371 . S
C1215 H1187 0.930 . S
C1215 C1214 1.358 . S
C1215 C1216 1.405 . S
C1216 H1188 0.932 . S
C1216 C1215 1.405 . S
C1216 C1217 1.383 . S
C1217 C1216 1.383 . S
C1217 C1218 1.393 . S
C1218 H1190 0.931 . S
C1218 C1217 1.393 . S
C1218 C1219 1.382 . S
C1219 H1189 0.929 . S
C1219 C1214 1.371 . S
C1219 C1218 1.382 . S
C1220 N1183 1.423 . S
C1220 C1221 1.362 . S
C1220 C1225 1.388 . S
C1221 H1191 0.929 . S
C1221 C1220 1.362 . S
C1221 C1222 1.376 . S
C1222 H1193 0.931 . S
C1222 C1221 1.376 . S
C1222 C1223 1.396 . S
C1223 C1222 1.396 . S
C1223 C1224 1.348 . S
C1223 C1241 1.472 . S
C1224 H1194 0.929 . S
C1224 C1223 1.348 . S
C1224 C1225 1.443 . S
C1225 H1192 0.932 . S
C1225 C1220 1.388 . S
C1225 C1224 1.443 . S
C1226 N1206 1.433 . S
C1226 C1227 1.363 . S
C1226 C1231 1.370 . S
C1227 H1195 0.929 . S
C1227 C1226 1.363 . S
C1227 C1228 1.385 . S
C1228 H1196 0.930 . S
C1228 C1227 1.385 . S
C1228 C1229 1.357 . S
C1229 C1228 1.357 . S
C1229 C1230 1.406 . S
C1230 H1197 0.929 . S
C1230 C1229 1.406 . S
C1230 C1231 1.391 . S
C1231 H1198 0.931 . S
C1231 C1226 1.370 . S
C1231 C1230 1.391 . S
C1232 N1206 1.435 . S
C1232 C1233 1.358 . S
C1232 C1237 1.371 . S
C1233 H1199 0.930 . S
C1233 C1232 1.358 . S
C1233 C1234 1.405 . S
C1234 H1200 0.932 . S
C1234 C1233 1.405 . S
C1234 C1235 1.383 . S
C1235 C1234 1.383 . S
C1235 C1236 1.393 . S
C1236 H1201 0.931 . S
C1236 C1235 1.393 . S
C1236 C1237 1.382 . S
C1237 H1202 0.929 . S
C1237 C1232 1.371 . S
C1237 C1236 1.382 . S
C1238 N1206 1.423 . S
C1238 C1239 1.362 . S
C1238 C1243 1.388 . S
C1239 H1203 0.929 . S
C1239 C1238 1.362 . S
C1239 C1240 1.376 . S
C1240 H1204 0.931 . S
C1240 C1239 1.376 . S
C1240 C1241 1.396 . S
C1241 C1223 1.472 . S
C1241 C1240 1.396 . S
C1241 C1242 1.348 . S
C1242 H1205 0.929 . S
C1242 C1241 1.348 . S
C1242 C1243 1.443 . S
C1243 H1207 0.932 . S
C1243 C1238 1.388 . S
C1243 C1242 1.443 . S
H1244 C1271 0.929 . S
N1245 C1270 1.433 . S
N1245 C1276 1.435 . S
N1245 C1282 1.423 . S
H1246 C1272 0.930 . S
H1247 C1275 0.931 . S
H1248 C1274 0.929 . S
H1249 C1277 0.930 . S
H1250 C1278 0.932 . S
H1251 C1281 0.929 . S
H1252 C1280 0.931 . S
H1253 C1283 0.929 . S
H1254 C1287 0.932 . S
H1255 C1284 0.931 . S
H1256 C1286 0.929 . S
H1257 C1289 0.929 . S
H1258 C1290 0.930 . S
H1259 C1292 0.929 . S
H1260 C1293 0.931 . S
H1261 C1295 0.930 . S
H1262 C1296 0.932 . S
H1263 C1298 0.931 . S
H1264 C1299 0.929 . S
H1265 C1301 0.929 . S
H1266 C1302 0.931 . S
H1267 C1304 0.929 . S
N1268 C1288 1.433 . S
N1268 C1294 1.435 . S
N1268 C1300 1.423 . S
H1269 C1305 0.932 . S
C1270 N1245 1.433 . S
C1270 C1271 1.363 . S
C1270 C1275 1.370 . S
C1271 H1244 0.929 . S
C1271 C1270 1.363 . S
C1271 C1272 1.385 . S
C1272 H1246 0.930 . S
C1272 C1271 1.385 . S
C1272 C1273 1.357 . S
C1273 C1272 1.357 . S
C1273 C1274 1.406 . S
C1274 H1248 0.929 . S
C1274 C1273 1.406 . S
C1274 C1275 1.391 . S
C1275 H1247 0.931 . S
C1275 C1270 1.370 . S
C1275 C1274 1.391 . S
C1276 N1245 1.435 . S
C1276 C1277 1.358 . S
C1276 C1281 1.371 . S
C1277 H1249 0.930 . S
C1277 C1276 1.358 . S
C1277 C1278 1.405 . S
C1278 H1250 0.932 . S
C1278 C1277 1.405 . S
C1278 C1279 1.383 . S
C1279 C1278 1.383 . S
C1279 C1280 1.393 . S
C1280 H1252 0.931 . S
C1280 C1279 1.393 . S
C1280 C1281 1.382 . S
C1281 H1251 0.929 . S
C1281 C1276 1.371 . S
C1281 C1280 1.382 . S
C1282 N1245 1.423 . S
C1282 C1283 1.362 . S
C1282 C1287 1.388 . S
C1283 H1253 0.929 . S
C1283 C1282 1.362 . S
C1283 C1284 1.376 . S
C1284 H1255 0.931 . S
C1284 C1283 1.376 . S
C1284 C1285 1.396 . S
C1285 C1284 1.396 . S
C1285 C1286 1.348 . S
C1285 C1303 1.472 . S
C1286 H1256 0.929 . S
C1286 C1285 1.348 . S
C1286 C1287 1.443 . S
C1287 H1254 0.932 . S
C1287 C1282 1.388 . S
C1287 C1286 1.443 . S
C1288 N1268 1.433 . S
C1288 C1289 1.363 . S
C1288 C1293 1.370 . S
C1289 H1257 0.929 . S
C1289 C1288 1.363 . S
C1289 C1290 1.385 . S
C1290 H1258 0.930 . S
C1290 C1289 1.385 . S
C1290 C1291 1.357 . S
C1291 C1290 1.357 . S
C1291 C1292 1.406 . S
C1292 H1259 0.929 . S
C1292 C1291 1.406 . S
C1292 C1293 1.391 . S
C1293 H1260 0.931 . S
C1293 C1288 1.370 . S
C1293 C1292 1.391 . S
C1294 N1268 1.435 . S
C1294 C1295 1.358 . S
C1294 C1299 1.371 . S
C1295 H1261 0.930 . S
C1295 C1294 1.358 . S
C1295 C1296 1.405 . S
C1296 H1262 0.932 . S
C1296 C1295 1.405 . S
C1296 C1297 1.383 . S
C1297 C1296 1.383 . S
C1297 C1298 1.393 . S
C1298 H1263 0.931 . S
C1298 C1297 1.393 . S
C1298 C1299 1.382 . S
C1299 H1264 0.929 . S
C1299 C1294 1.371 . S
C1299 C1298 1.382 . S
C1300 N1268 1.423 . S
C1300 C1301 1.362 . S
C1300 C1305 1.388 . S
C1301 H1265 0.929 . S
C1301 C1300 1.362 . S
C1301 C1302 1.376 . S
C1302 H1266 0.931 . S
C1302 C1301 1.376 . S
C1302 C1303 1.396 . S
C1303 C1285 1.472 . S
C1303 C1302 1.396 . S
C1303 C1304 1.348 . S
C1304 H1267 0.929 . S
C1304 C1303 1.348 . S
C1304 C1305 1.443 . S
C1305 H1269 0.932 . S
C1305 C1300 1.388 . S
C1305 C1304 1.443 . S
H1306 C1333 0.929 . S
N1307 C1332 1.433 . S
N1307 C1338 1.435 . S
N1307 C1344 1.423 . S
H1308 C1334 0.930 . S
H1309 C1337 0.931 . S
H1310 C1336 0.929 . S
H1311 C1339 0.930 . S
H1312 C1340 0.932 . S
H1313 C1343 0.929 . S
H1314 C1342 0.931 . S
H1315 C1345 0.929 . S
H1316 C1349 0.932 . S
H1317 C1346 0.931 . S
H1318 C1348 0.929 . S
H1319 C1351 0.929 . S
H1320 C1352 0.930 . S
H1321 C1354 0.929 . S
H1322 C1355 0.931 . S
H1323 C1357 0.930 . S
H1324 C1358 0.932 . S
H1325 C1360 0.931 . S
H1326 C1361 0.929 . S
H1327 C1363 0.929 . S
H1328 C1364 0.931 . S
H1329 C1366 0.929 . S
N1330 C1350 1.433 . S
N1330 C1356 1.435 . S
N1330 C1362 1.423 . S
H1331 C1367 0.932 . S
C1332 N1307 1.433 . S
C1332 C1333 1.363 . S
C1332 C1337 1.370 . S
C1333 H1306 0.929 . S
C1333 C1332 1.363 . S
C1333 C1334 1.385 . S
C1334 H1308 0.930 . S
C1334 C1333 1.385 . S
C1334 C1335 1.357 . S
C1335 C1334 1.357 . S
C1335 C1336 1.406 . S
C1336 H1310 0.929 . S
C1336 C1335 1.406 . S
C1336 C1337 1.391 . S
C1337 H1309 0.931 . S
C1337 C1332 1.370 . S
C1337 C1336 1.391 . S
C1338 N1307 1.435 . S
C1338 C1339 1.358 . S
C1338 C1343 1.371 . S
C1339 H1311 0.930 . S
C1339 C1338 1.358 . S
C1339 C1340 1.405 . S
C1340 H1312 0.932 . S
C1340 C1339 1.405 . S
C1340 C1341 1.383 . S
C1341 C1340 1.383 . S
C1341 C1342 1.393 . S
C1342 H1314 0.931 . S
C1342 C1341 1.393 . S
C1342 C1343 1.382 . S
C1343 H1313 0.929 . S
C1343 C1338 1.371 . S
C1343 C1342 1.382 . S
C1344 N1307 1.423 . S
C1344 C1345 1.362 . S
C1344 C1349 1.388 . S
C1345 H1315 0.929 . S
C1345 C1344 1.362 . S
C1345 C1346 1.376 . S
C1346 H1317 0.931 . S
C1346 C1345 1.376 . S
C1346 C1347 1.396 . S
C1347 C1346 1.396 . S
C1347 C1348 1.348 . S
C1347 C1365 1.472 . S
C1348 H1318 0.929 . S
C1348 C1347 1.348 . S
C1348 C1349 1.443 . S
C1349 H1316 0.932 . S
C1349 C1344 1.388 . S
C1349 C1348 1.443 . S
C1350 N1330 1.433 . S
C1350 C1351 1.363 . S
C1350 C1355 1.370 . S
C1351 H1319 0.929 . S
C1351 C1350 1.363 . S
C1351 C1352 1.385 . S
C1352 H1320 0.930 . S
C1352 C1351 1.385 . S
C1352 C1353 1.357 . S
C1353 C1352 1.357 . S
C1353 C1354 1.406 . S
C1354 H1321 0.929 . S
C1354 C1353 1.406 . S
C1354 C1355 1.391 . S
C1355 H1322 0.931 . S
C1355 C1350 1.370 . S
C1355 C1354 1.391 . S
C1356 N1330 1.435 . S
C1356 C1357 1.358 . S
C1356 C1361 1.371 . S
C1357 H1323 0.930 . S
C1357 C1356 1.358 . S
C1357 C1358 1.405 . S
C1358 H1324 0.932 . S
C1358 C1357 1.405 . S
C1358 C1359 1.383 . S
C1359 C1358 1.383 . S
C1359 C1360 1.393 . S
C1360 H1325 0.931 . S
C1360 C1359 1.393 . S
C1360 C1361 1.382 . S
C1361 H1326 0.929 . S
C1361 C1356 1.371 . S
C1361 C1360 1.382 . S
C1362 N1330 1.423 . S
C1362 C1363 1.362 . S
C1362 C1367 1.388 . S
C1363 H1327 0.929 . S
C1363 C1362 1.362 . S
C1363 C1364 1.376 . S
C1364 H1328 0.931 . S
C1364 C1363 1.376 . S
C1364 C1365 1.396 . S
C1365 C1347 1.472 . S
C1365 C1364 1.396 . S
C1365 C1366 1.348 . S
C1366 H1329 0.929 . S
C1366 C1365 1.348 . S
C1366 C1367 1.443 . S
C1367 H1331 0.932 . S
C1367 C1362 1.388 . S
C1367 C1366 1.443 . S
C1368 C1369 1.382 1_455 S
C1368 C1370 1.383 . S
C1368 H1384 0.951 . S
C1369 C1368 1.382 1_655 S
C1369 C1373 1.399 . S
C1370 C1368 1.383 . S
C1370 C1371 1.448 . S
C1370 H1385 0.951 . S
C1371 C1370 1.448 . S
C1371 C1372 1.362 1_455 S
C1371 C1374 1.448 . S
C1372 C1371 1.362 1_655 S
C1372 C1373 1.335 . S
C1372 H1386 1.001 . S
C1373 C1369 1.399 . S
C1373 C1372 1.335 . S
C1373 H1387 0.950 . S
C1374 C1371 1.448 . S
C1374 C1375 1.297 . S
C1374 H1388 0.915 1_455 S
C1375 C1374 1.297 . S
C1375 C1376 1.479 . S
C1375 H1389 0.950 . S
C1376 C1375 1.479 . S
C1376 C1377 1.375 . S
C1376 C1382 1.404 . S
C1377 C1376 1.375 . S
C1377 C1378 1.353 1_455 S
C1377 H1390 0.950 . S
C1378 C1377 1.353 1_655 S
C1378 C1379 1.410 . S
C1378 H1391 0.954 . S
C1379 C1378 1.410 . S
C1379 C1381 1.384 . S
H1380 C1382 0.949 . S
C1381 C1379 1.384 . S
C1381 C1382 1.385 1_655 S
C1381 H1383 0.950 . S
C1382 C1376 1.404 . S
C1382 H1380 0.949 . S
C1382 C1381 1.385 1_455 S
H1383 C1381 0.950 . S
H1384 C1368 0.951 . S
H1385 C1370 0.951 . S
H1386 C1372 1.001 . S
H1387 C1373 0.950 . S
H1388 C1374 0.915 1_655 S
H1389 C1375 0.950 . S
H1390 C1377 0.950 . S
H1391 C1378 0.954 . S
C1392 C1393 1.386 . S
C1392 C1394 1.383 . S
C1392 H1408 0.951 . S
C1393 C1392 1.386 . S
C1393 C1397 1.383 . S
C1394 C1392 1.383 . S
C1394 C1395 1.402 . S
C1394 H1409 0.951 . S
C1395 C1394 1.402 . S
C1395 C1396 1.375 . S
C1395 C1398 1.481 . S
C1396 C1395 1.375 . S
C1396 C1397 1.367 . S
C1396 H1410 0.951 . S
C1397 C1393 1.383 . S
C1397 C1396 1.367 . S
C1397 H1411 0.950 . S
C1398 C1395 1.481 . S
C1398 C1399 1.297 . S
C1398 H1412 0.950 . S
C1399 C1398 1.297 . S
C1399 C1400 1.479 . S
C1399 H1413 0.950 . S
C1400 C1399 1.479 . S
C1400 C1401 1.375 . S
C1400 C1406 1.404 . S
C1401 C1400 1.375 . S
C1401 C1402 1.369 . S
C1401 H1414 0.950 . S
C1402 C1401 1.369 . S
C1402 C1403 1.392 . S
C1402 H1415 0.951 . S
C1403 C1402 1.392 . S
C1403 C1405 1.384 . S
H1404 C1406 0.949 . S
C1405 C1403 1.384 . S
C1405 C1406 1.385 . S
C1405 H1407 0.950 . S
C1406 C1400 1.404 . S
C1406 H1404 0.949 . S
C1406 C1405 1.385 . S
H1407 C1405 0.950 . S
H1408 C1392 0.951 . S
H1409 C1394 0.951 . S
H1410 C1396 0.951 . S
H1411 C1397 0.950 . S
H1412 C1398 0.950 . S
H1413 C1399 0.950 . S
H1414 C1401 0.950 . S
H1415 C1402 0.951 . S
C1416 C1417 1.386 1_565 S
C1416 C1418 1.383 . S
C1416 H1432 0.951 . S
C1417 C1416 1.386 1_545 S
C1417 C1421 1.383 . S
C1418 C1416 1.383 . S
C1418 C1419 1.402 1_565 S
C1418 H1433 0.951 . S
C1419 C1418 1.402 1_545 S
C1419 C1420 1.375 . S
C1419 C1422 1.481 . S
C1420 C1419 1.375 . S
C1420 C1421 1.367 . S
C1420 H1434 0.951 . S
C1421 C1417 1.383 . S
C1421 C1420 1.367 . S
C1421 H1435 0.950 . S
C1422 C1419 1.481 . S
C1422 C1423 1.297 . S
C1422 H1436 0.950 . S
C1423 C1422 1.297 . S
C1423 C1424 1.479 . S
C1423 H1437 0.950 1_545 S
C1424 C1423 1.479 . S
C1424 C1425 1.375 1_545 S
C1424 C1430 1.404 . S
C1425 C1424 1.375 1_565 S
C1425 C1426 1.369 . S
C1425 H1438 0.950 . S
C1426 C1425 1.369 . S
C1426 C1427 1.392 1_565 S
C1426 H1439 0.951 . S
C1427 C1426 1.392 1_545 S
C1427 C1429 1.384 . S
H1428 C1430 0.949 . S
C1429 C1427 1.384 . S
C1429 C1430 1.385 . S
C1429 H1431 0.950 . S
C1430 C1424 1.404 . S
C1430 H1428 0.949 . S
C1430 C1429 1.385 . S
H1431 C1429 0.950 . S
H1432 C1416 0.951 . S
H1433 C1418 0.951 . S
H1434 C1420 0.951 . S
H1435 C1421 0.950 . S
H1436 C1422 0.950 . S
H1437 C1423 0.950 1_565 S
H1438 C1425 0.950 . S
H1439 C1426 0.951 . S
C1440 C1441 1.386 . S
C1440 C1442 1.373 . S
C1440 H1456 0.951 1_565 S
C1441 C1440 1.386 . S
C1441 C1445 1.383 . S
C1442 C1440 1.373 . S
C1442 C1443 1.420 . S
C1442 H1457 0.943 1_565 S
C1443 C1442 1.420 . S
C1443 C1444 1.375 . S
C1443 C1446 1.481 . S
C1444 C1443 1.375 . S
C1444 C1445 1.367 . S
C1444 H1458 0.951 . S
C1445 C1441 1.383 . S
C1445 C1444 1.367 . S
C1445 H1459 0.950 . S
C1446 C1443 1.481 . S
C1446 C1447 1.297 1_565 S
C1446 H1460 0.950 . S
C1447 C1446 1.297 1_545 S
C1447 C1448 1.511 . S
C1447 H1461 0.950 . S
C1448 C1447 1.511 . S
C1448 C1449 1.393 . S
C1448 C1454 1.358 1_545 S
C1449 C1448 1.393 . S
C1449 C1450 1.369 . S
C1449 H1462 0.950 . S
C1450 C1449 1.369 . S
C1450 C1451 1.392 1_545 S
C1450 H1463 0.951 . S
C1451 C1450 1.392 1_565 S
C1451 C1453 1.384 . S
H1452 C1454 0.949 . S
C1453 C1451 1.384 . S
C1453 C1454 1.385 . S
C1453 H1455 0.950 . S
C1454 C1448 1.358 1_565 S
C1454 H1452 0.949 . S
C1454 C1453 1.385 . S
H1455 C1453 0.950 . S
H1456 C1440 0.951 1_545 S
H1457 C1442 0.943 1_545 S
H1458 C1444 0.951 . S
H1459 C1445 0.950 . S
H1460 C1446 0.950 . S
H1461 C1447 0.950 . S
H1462 C1449 0.950 . S
H1463 C1450 0.951 . S
C1464 C1465 1.386 1_655 S
C1464 C1466 1.365 . S
C1464 H1480 0.951 . S
C1465 C1464 1.386 1_455 S
C1465 C1469 1.383 . S
C1466 C1464 1.365 . S
C1466 C1467 1.377 1_655 S
C1466 H1481 0.995 . S
C1467 C1466 1.377 1_455 S
C1467 C1468 1.375 . S
C1467 C1470 1.481 . S
C1468 C1467 1.375 . S
C1468 C1469 1.367 . S
C1468 H1482 0.951 . S
C1469 C1465 1.383 . S
C1469 C1468 1.367 . S
C1469 H1483 0.950 . S
C1470 C1467 1.481 . S
C1470 C1471 1.297 . S
C1470 H1484 0.950 . S
C1471 C1470 1.297 . S
C1471 C1472 1.479 . S
C1471 H1485 0.950 1_455 S
C1472 C1471 1.479 . S
C1472 C1473 1.375 1_455 S
C1472 C1478 1.404 . S
C1473 C1472 1.375 1_655 S
C1473 C1474 1.369 . S
C1473 H1486 0.950 . S
C1474 C1473 1.369 . S
C1474 C1475 1.392 1_655 S
C1474 H1487 0.951 . S
C1475 C1474 1.392 1_455 S
C1475 C1477 1.384 . S
H1476 C1478 0.949 . S
C1477 C1475 1.384 . S
C1477 C1478 1.385 . S
C1477 H1479 0.950 . S
C1478 C1472 1.404 . S
C1478 H1476 0.949 . S
C1478 C1477 1.385 . S
H1479 C1477 0.950 . S
H1480 C1464 0.951 . S
H1481 C1466 0.995 . S
H1482 C1468 0.951 . S
H1483 C1469 0.950 . S
H1484 C1470 0.950 . S
H1485 C1471 0.950 1_655 S
H1486 C1473 0.950 . S
H1487 C1474 0.951 . S
C1488 C1489 1.386 . S
C1488 C1490 1.383 . S
C1488 H1504 0.951 . S
C1489 C1488 1.386 . S
C1489 C1493 1.383 . S
C1490 C1488 1.383 . S
C1490 C1491 1.402 . S
C1490 H1505 0.951 . S
C1491 C1490 1.402 . S
C1491 C1492 1.375 . S
C1491 C1494 1.481 . S
C1492 C1491 1.375 . S
C1492 C1493 1.367 . S
C1492 H1506 0.951 . S
C1493 C1489 1.383 . S
C1493 C1492 1.367 . S
C1493 H1507 0.950 . S
C1494 C1491 1.481 . S
C1494 C1495 1.297 . S
C1494 H1508 0.950 . S
C1495 C1494 1.297 . S
C1495 C1496 1.479 . S
C1495 H1509 0.950 . S
C1496 C1495 1.479 . S
C1496 C1497 1.375 . S
C1496 C1502 1.404 . S
C1497 C1496 1.375 . S
C1497 C1498 1.369 . S
C1497 H1510 0.950 . S
C1498 C1497 1.369 . S
C1498 C1499 1.392 . S
C1498 H1511 0.951 . S
C1499 C1498 1.392 . S
C1499 C1501 1.384 . S
H1500 C1502 0.949 . S
C1501 C1499 1.384 . S
C1501 C1502 1.385 . S
C1501 H1503 0.950 . S
C1502 C1496 1.404 . S
C1502 H1500 0.949 . S
C1502 C1501 1.385 . S
H1503 C1501 0.950 . S
H1504 C1488 0.951 . S
H1505 C1490 0.951 . S
H1506 C1492 0.951 . S
H1507 C1493 0.950 . S
H1508 C1494 0.950 . S
H1509 C1495 0.950 . S
H1510 C1497 0.950 . S
H1511 C1498 0.951 . S
C1512 C1513 1.386 . S
C1512 C1514 1.362 . S
C1512 H1528 0.951 . S
C1513 C1512 1.386 . S
C1513 C1517 1.383 . S
C1514 C1512 1.362 . S
C1514 C1515 1.402 . S
C1514 H1529 0.978 1_455 S
C1515 C1514 1.402 . S
C1515 C1516 1.375 . S
C1515 C1518 1.481 . S
C1516 C1515 1.375 . S
C1516 C1517 1.367 . S
C1516 H1530 0.951 . S
C1517 C1513 1.383 . S
C1517 C1516 1.367 . S
C1517 H1531 0.950 . S
C1518 C1515 1.481 . S
C1518 C1519 1.297 1_455 S
C1518 H1532 0.950 . S
C1519 C1518 1.297 1_655 S
C1519 C1520 1.513 . S
C1519 H1533 0.950 . S
C1520 C1519 1.513 . S
C1520 C1521 1.343 . S
C1520 C1526 1.404 1_655 S
C1521 C1520 1.343 . S
C1521 C1522 1.367 1_655 S
C1521 H1534 0.950 . S
C1522 C1521 1.367 1_455 S
C1522 C1523 1.393 . S
C1522 H1535 0.972 1_455 S
C1523 C1522 1.393 . S
C1523 C1525 1.384 . S
H1524 C1526 0.949 . S
C1525 C1523 1.384 . S
C1525 C1526 1.385 . S
C1525 H1527 0.950 . S
C1526 C1520 1.404 1_455 S
C1526 H1524 0.949 . S
C1526 C1525 1.385 . S
H1527 C1525 0.950 . S
H1528 C1512 0.951 . S
H1529 C1514 0.978 1_655 S
H1530 C1516 0.951 . S
H1531 C1517 0.950 . S
H1532 C1518 0.950 . S
H1533 C1519 0.950 . S
H1534 C1521 0.950 . S
H1535 C1522 0.972 1_655 S
C1536 C1537 1.386 . S
C1536 C1538 1.383 . S
C1536 H1552 0.951 . S
C1537 C1536 1.386 . S
C1537 C1541 1.383 . S
C1538 C1536 1.383 . S
C1538 C1539 1.402 . S
C1538 H1553 0.951 . S
C1539 C1538 1.402 . S
C1539 C1540 1.375 . S
C1539 C1542 1.481 . S
C1540 C1539 1.375 . S
C1540 C1541 1.367 . S
C1540 H1554 0.951 . S
C1541 C1537 1.383 . S
C1541 C1540 1.367 . S
C1541 H1555 0.950 . S
C1542 C1539 1.481 . S
C1542 C1543 1.297 . S
C1542 H1556 0.950 . S
C1543 C1542 1.297 . S
C1543 C1544 1.479 . S
C1543 H1557 0.950 . S
C1544 C1543 1.479 . S
C1544 C1545 1.375 . S
C1544 C1550 1.404 . S
C1545 C1544 1.375 . S
C1545 C1546 1.369 . S
C1545 H1558 0.950 . S
C1546 C1545 1.369 . S
C1546 C1547 1.392 . S
C1546 H1559 0.951 . S
C1547 C1546 1.392 . S
C1547 C1549 1.384 . S
H1548 C1550 0.949 . S
C1549 C1547 1.384 . S
C1549 C1550 1.385 . S
C1549 H1551 0.950 . S
C1550 C1544 1.404 . S
C1550 H1548 0.949 . S
C1550 C1549 1.385 . S
H1551 C1549 0.950 . S
H1552 C1536 0.951 . S
H1553 C1538 0.951 . S
H1554 C1540 0.951 . S
H1555 C1541 0.950 . S
H1556 C1542 0.950 . S
H1557 C1543 0.950 . S
H1558 C1545 0.950 . S
H1559 C1546 0.951 . S
C1560 C1561 1.386 . S
C1560 C1562 1.383 . S
C1560 H1576 0.968 1_565 S
C1561 C1560 1.386 . S
C1561 C1565 1.383 . S
C1562 C1560 1.383 . S
C1562 C1563 1.402 . S
C1562 H1577 0.951 . S
C1563 C1562 1.402 . S
C1563 C1564 1.375 . S
C1563 C1566 1.481 . S
C1564 C1563 1.375 . S
C1564 C1565 1.367 . S
C1564 H1578 0.951 . S
C1565 C1561 1.383 . S
C1565 C1564 1.367 . S
C1565 H1579 0.950 . S
C1566 C1563 1.481 . S
C1566 C1567 1.297 . S
C1566 H1580 0.950 . S
C1567 C1566 1.297 . S
C1567 C1568 1.479 . S
C1567 H1581 0.950 . S
C1568 C1567 1.479 . S
C1568 C1569 1.375 . S
C1568 C1574 1.404 . S
C1569 C1568 1.375 . S
C1569 C1570 1.369 . S
C1569 H1582 0.950 . S
C1570 C1569 1.369 . S
C1570 C1571 1.392 . S
C1570 H1583 0.951 . S
C1571 C1570 1.392 . S
C1571 C1573 1.384 . S
H1572 C1574 0.949 . S
C1573 C1571 1.384 . S
C1573 C1574 1.385 . S
C1573 H1575 0.950 . S
C1574 C1568 1.404 . S
C1574 H1572 0.949 . S
C1574 C1573 1.385 . S
H1575 C1573 0.950 . S
H1576 C1560 0.968 1_545 S
H1577 C1562 0.951 . S
H1578 C1564 0.951 . S
H1579 C1565 0.950 . S
H1580 C1566 0.950 . S
H1581 C1567 0.950 . S
H1582 C1569 0.950 . S
H1583 C1570 0.951 . S
C1584 C1585 1.386 . S
C1584 C1586 1.383 . S
C1584 H1600 0.951 . S
C1585 C1584 1.386 . S
C1585 C1589 1.383 1_545 S
C1586 C1584 1.383 . S
C1586 C1587 1.402 . S
C1586 H1601 0.951 . S
C1587 C1586 1.402 . S
C1587 C1588 1.375 1_545 S
C1587 C1590 1.474 . S
C1588 C1587 1.375 1_565 S
C1588 C1589 1.367 . S
C1588 H1602 0.951 . S
C1589 C1585 1.383 1_565 S
C1589 C1588 1.367 . S
C1589 H1603 0.950 . S
C1590 C1587 1.474 . S
C1590 C1591 1.331 . S
C1590 H1604 0.922 1_545 S
C1591 C1590 1.331 . S
C1591 C1592 1.479 . S
C1591 H1605 0.950 . S
C1592 C1591 1.479 . S
C1592 C1593 1.375 . S
C1592 C1598 1.404 1_545 S
C1593 C1592 1.375 . S
C1593 C1594 1.369 . S
C1593 H1606 0.950 . S
C1594 C1593 1.369 . S
C1594 C1595 1.392 . S
C1594 H1607 0.951 . S
C1595 C1594 1.392 . S
C1595 C1597 1.384 1_545 S
H1596 C1598 0.949 . S
C1597 C1595 1.384 1_565 S
C1597 C1598 1.385 . S
C1597 H1599 0.950 . S
C1598 C1592 1.404 1_565 S
C1598 H1596 0.949 . S
C1598 C1597 1.385 . S
H1599 C1597 0.950 . S
H1600 C1584 0.951 . S
H1601 C1586 0.951 . S
H1602 C1588 0.951 . S
H1603 C1589 0.950 . S
H1604 C1590 0.922 1_565 S
H1605 C1591 0.950 . S
H1606 C1593 0.950 . S
H1607 C1594 0.951 . S
C1608 C1609 1.386 . S
C1608 C1610 1.383 . S
C1608 H1624 0.951 . S
C1609 C1608 1.386 . S
C1609 C1613 1.383 1_655 S
C1610 C1608 1.383 . S
C1610 C1611 1.402 . S
C1610 H1625 0.951 . S
C1611 C1610 1.402 . S
C1611 C1612 1.375 1_655 S
C1611 C1614 1.456 1_655 S
C1612 C1611 1.375 1_455 S
C1612 C1613 1.367 . S
C1612 H1626 0.951 . S
C1613 C1609 1.383 1_455 S
C1613 C1612 1.367 . S
C1613 H1627 0.950 . S
C1614 C1611 1.456 1_455 S
C1614 C1615 1.279 1_455 S
C1614 H1628 0.998 . S
C1615 C1614 1.279 1_655 S
C1615 C1616 1.479 . S
C1615 H1629 0.950 . S
C1616 C1615 1.479 . S
C1616 C1617 1.375 . S
C1616 C1622 1.404 1_655 S
C1617 C1616 1.375 . S
C1617 C1618 1.369 . S
C1617 H1630 0.950 . S
C1618 C1617 1.369 . S
C1618 C1619 1.392 . S
C1618 H1631 0.951 . S
C1619 C1618 1.392 . S
C1619 C1621 1.384 1_655 S
H1620 C1622 0.949 . S
C1621 C1619 1.384 1_455 S
C1621 C1622 1.385 . S
C1621 H1623 0.950 . S
C1622 C1616 1.404 1_455 S
C1622 H1620 0.949 . S
C1622 C1621 1.385 . S
H1623 C1621 0.950 . S
H1624 C1608 0.951 . S
H1625 C1610 0.951 . S
H1626 C1612 0.951 . S
H1627 C1613 0.950 . S
H1628 C1614 0.998 . S
H1629 C1615 0.950 . S
H1630 C1617 0.950 . S
H1631 C1618 0.951 . S
C1632 C1633 1.386 . S
C1632 C1634 1.383 . S
C1632 H1648 0.951 . S
C1633 C1632 1.386 . S
C1633 C1637 1.383 . S
C1634 C1632 1.383 . S
C1634 C1635 1.402 . S
C1634 H1649 0.951 . S
C1635 C1634 1.402 . S
C1635 C1636 1.375 . S
C1635 C1638 1.481 . S
C1636 C1635 1.375 . S
C1636 C1637 1.367 . S
C1636 H1650 0.951 . S
C1637 C1633 1.383 . S
C1637 C1636 1.367 . S
C1637 H1651 0.950 . S
C1638 C1635 1.481 . S
C1638 C1639 1.297 . S
C1638 H1652 0.950 . S
C1639 C1638 1.297 . S
C1639 C1640 1.479 . S
C1639 H1653 0.950 . S
C1640 C1639 1.479 . S
C1640 C1641 1.375 . S
C1640 C1646 1.404 . S
C1641 C1640 1.375 . S
C1641 C1642 1.369 . S
C1641 H1654 0.950 . S
C1642 C1641 1.369 . S
C1642 C1643 1.392 . S
C1642 H1655 0.951 . S
C1643 C1642 1.392 . S
C1643 C1645 1.384 . S
H1644 C1646 0.949 . S
C1645 C1643 1.384 . S
C1645 C1646 1.385 . S
C1645 H1647 0.950 . S
C1646 C1640 1.404 . S
C1646 H1644 0.949 . S
C1646 C1645 1.385 . S
H1647 C1645 0.950 . S
H1648 C1632 0.951 . S
H1649 C1634 0.951 . S
H1650 C1636 0.951 . S
H1651 C1637 0.950 . S
H1652 C1638 0.950 . S
H1653 C1639 0.950 . S
H1654 C1641 0.950 . S
H1655 C1642 0.951 . S
C1656 C1657 1.386 . S
C1656 C1658 1.383 . S
C1656 H1672 0.951 . S
C1657 C1656 1.386 . S
C1657 C1661 1.383 . S
C1658 C1656 1.383 . S
C1658 C1659 1.402 . S
C1658 H1673 0.951 . S
C1659 C1658 1.402 . S
C1659 C1660 1.375 . S
C1659 C1662 1.481 . S
C1660 C1659 1.375 . S
C1660 C1661 1.367 . S
C1660 H1674 0.951 . S
C1661 C1657 1.383 . S
C1661 C1660 1.367 . S
C1661 H1675 0.950 . S
C1662 C1659 1.481 . S
C1662 C1663 1.297 . S
C1662 H1676 0.950 . S
C1663 C1662 1.297 . S
C1663 C1664 1.479 . S
C1663 H1677 0.950 . S
C1664 C1663 1.479 . S
C1664 C1665 1.375 . S
C1664 C1670 1.404 . S
C1665 C1664 1.375 . S
C1665 C1666 1.369 . S
C1665 H1678 0.950 . S
C1666 C1665 1.369 . S
C1666 C1667 1.392 . S
C1666 H1679 0.951 . S
C1667 C1666 1.392 . S
C1667 C1669 1.384 . S
H1668 C1670 0.949 . S
C1669 C1667 1.384 . S
C1669 C1670 1.385 . S
C1669 H1671 0.950 . S
C1670 C1664 1.404 . S
C1670 H1668 0.949 . S
C1670 C1669 1.385 . S
H1671 C1669 0.950 . S
H1672 C1656 0.951 . S
H1673 C1658 0.951 . S
H1674 C1660 0.951 . S
H1675 C1661 0.950 . S
H1676 C1662 0.950 . S
H1677 C1663 0.950 . S
H1678 C1665 0.950 . S
H1679 C1666 0.951 . S
C1680 C1681 1.386 . S
C1680 C1682 1.383 . S
C1680 H1696 0.951 . S
C1681 C1680 1.386 . S
C1681 C1685 1.383 . S
C1682 C1680 1.383 . S
C1682 C1683 1.402 . S
C1682 H1697 0.951 . S
C1683 C1682 1.402 . S
C1683 C1684 1.375 . S
C1683 C1686 1.481 . S
C1684 C1683 1.375 . S
C1684 C1685 1.367 . S
C1684 H1698 0.951 . S
C1685 C1681 1.383 . S
C1685 C1684 1.367 . S
C1685 H1699 0.950 . S
C1686 C1683 1.481 . S
C1686 C1687 1.297 . S
C1686 H1700 0.950 . S
C1687 C1686 1.297 . S
C1687 C1688 1.479 . S
C1687 H1701 0.950 . S
C1688 C1687 1.479 . S
C1688 C1689 1.375 . S
C1688 C1694 1.404 . S
C1689 C1688 1.375 . S
C1689 C1690 1.369 . S
C1689 H1702 0.950 . S
C1690 C1689 1.369 . S
C1690 C1691 1.392 . S
C1690 H1703 0.951 . S
C1691 C1690 1.392 . S
C1691 C1693 1.384 . S
H1692 C1694 0.949 . S
C1693 C1691 1.384 . S
C1693 C1694 1.385 . S
C1693 H1695 0.950 . S
C1694 C1688 1.404 . S
C1694 H1692 0.949 . S
C1694 C1693 1.385 . S
H1695 C1693 0.950 . S
H1696 C1680 0.951 . S
H1697 C1682 0.951 . S
H1698 C1684 0.951 . S
H1699 C1685 0.950 . S
H1700 C1686 0.950 . S
H1701 C1687 0.950 . S
H1702 C1689 0.950 . S
H1703 C1690 0.951 . S
C1704 C1705 1.386 . S
C1704 C1706 1.383 . S
C1704 H1720 0.951 . S
C1705 C1704 1.386 . S
C1705 C1709 1.383 . S
C1706 C1704 1.383 . S
C1706 C1707 1.402 . S
C1706 H1721 0.951 . S
C1707 C1706 1.402 . S
C1707 C1708 1.375 . S
C1707 C1710 1.481 . S
C1708 C1707 1.375 . S
C1708 C1709 1.367 . S
C1708 H1722 0.951 . S
C1709 C1705 1.383 . S
C1709 C1708 1.367 . S
C1709 H1723 0.950 . S
C1710 C1707 1.481 . S
C1710 C1711 1.297 . S
C1710 H1724 0.950 . S
C1711 C1710 1.297 . S
C1711 C1712 1.479 . S
C1711 H1725 0.950 . S
C1712 C1711 1.479 . S
C1712 C1713 1.375 . S
C1712 C1718 1.404 . S
C1713 C1712 1.375 . S
C1713 C1714 1.369 . S
C1713 H1726 0.950 . S
C1714 C1713 1.369 . S
C1714 C1715 1.392 . S
C1714 H1727 0.951 . S
C1715 C1714 1.392 . S
C1715 C1717 1.384 . S
H1716 C1718 0.949 . S
C1717 C1715 1.384 . S
C1717 C1718 1.385 . S
C1717 H1719 0.950 . S
C1718 C1712 1.404 . S
C1718 H1716 0.949 . S
C1718 C1717 1.385 . S
H1719 C1717 0.950 . S
H1720 C1704 0.951 . S
H1721 C1706 0.951 . S
H1722 C1708 0.951 . S
H1723 C1709 0.950 . S
H1724 C1710 0.950 . S
H1725 C1711 0.950 . S
H1726 C1713 0.950 . S
H1727 C1714 0.951 . S
C1728 C1729 1.386 . S
C1728 C1730 1.383 . S
C1728 H1744 0.951 . S
C1729 C1728 1.386 . S
C1729 C1733 1.383 . S
C1730 C1728 1.383 . S
C1730 C1731 1.402 . S
C1730 H1745 0.951 . S
C1731 C1730 1.402 . S
C1731 C1732 1.375 . S
C1731 C1734 1.481 . S
C1732 C1731 1.375 . S
C1732 C1733 1.367 . S
C1732 H1746 0.951 . S
C1733 C1729 1.383 . S
C1733 C1732 1.367 . S
C1733 H1747 0.950 . S
C1734 C1731 1.481 . S
C1734 C1735 1.297 . S
C1734 H1748 0.950 . S
C1735 C1734 1.297 . S
C1735 C1736 1.479 . S
C1735 H1749 0.950 . S
C1736 C1735 1.479 . S
C1736 C1737 1.375 . S
C1736 C1742 1.404 . S
C1737 C1736 1.375 . S
C1737 C1738 1.369 . S
C1737 H1750 0.950 . S
C1738 C1737 1.369 . S
C1738 C1739 1.392 . S
C1738 H1751 0.951 . S
C1739 C1738 1.392 . S
C1739 C1741 1.384 . S
H1740 C1742 0.949 . S
C1741 C1739 1.384 . S
C1741 C1742 1.385 . S
C1741 H1743 0.950 . S
C1742 C1736 1.404 . S
C1742 H1740 0.949 . S
C1742 C1741 1.385 . S
H1743 C1741 0.950 . S
H1744 C1728 0.951 . S
H1745 C1730 0.951 . S
H1746 C1732 0.951 . S
H1747 C1733 0.950 . S
H1748 C1734 0.950 . S
H1749 C1735 0.950 . S
H1750 C1737 0.950 . S
H1751 C1738 0.951 . S
C1752 C1753 1.386 . S
C1752 C1754 1.383 . S
C1752 H1768 0.951 . S
C1753 C1752 1.386 . S
C1753 C1757 1.383 . S
C1754 C1752 1.383 . S
C1754 C1755 1.402 . S
C1754 H1769 0.951 . S
C1755 C1754 1.402 . S
C1755 C1756 1.375 . S
C1755 C1758 1.481 . S
C1756 C1755 1.375 . S
C1756 C1757 1.367 . S
C1756 H1770 0.951 . S
C1757 C1753 1.383 . S
C1757 C1756 1.367 . S
C1757 H1771 0.950 . S
C1758 C1755 1.481 . S
C1758 C1759 1.297 . S
C1758 H1772 0.950 . S
C1759 C1758 1.297 . S
C1759 C1760 1.479 . S
C1759 H1773 0.950 . S
C1760 C1759 1.479 . S
C1760 C1761 1.375 . S
C1760 C1766 1.404 . S
C1761 C1760 1.375 . S
C1761 C1762 1.369 . S
C1761 H1774 0.950 . S
C1762 C1761 1.369 . S
C1762 C1763 1.392 . S
C1762 H1775 0.951 . S
C1763 C1762 1.392 . S
C1763 C1765 1.384 . S
H1764 C1766 0.949 . S
C1765 C1763 1.384 . S
C1765 C1766 1.385 . S
C1765 H1767 0.950 . S
C1766 C1760 1.404 . S
C1766 H1764 0.949 . S
C1766 C1765 1.385 . S
H1767 C1765 0.950 . S
H1768 C1752 0.951 . S
H1769 C1754 0.951 . S
H1770 C1756 0.951 . S
H1771 C1757 0.950 . S
H1772 C1758 0.950 . S
H1773 C1759 0.950 . S
H1774 C1761 0.950 . S
H1775 C1762 0.951 . S
C1776 C1777 1.386 . S
C1776 C1778 1.383 . S
C1776 H1792 0.951 . S
C1777 C1776 1.386 . S
C1777 C1781 1.383 . S
C1778 C1776 1.383 . S
C1778 C1779 1.402 . S
C1778 H1793 0.951 . S
C1779 C1778 1.402 . S
C1779 C1780 1.375 . S
C1779 C1782 1.481 . S
C1780 C1779 1.375 . S
C1780 C1781 1.367 . S
C1780 H1794 0.951 . S
C1781 C1777 1.383 . S
C1781 C1780 1.367 . S
C1781 H1795 0.950 . S
C1782 C1779 1.481 . S
C1782 C1783 1.297 . S
C1782 H1796 0.950 . S
C1783 C1782 1.297 . S
C1783 C1784 1.479 . S
C1783 H1797 0.950 . S
C1784 C1783 1.479 . S
C1784 C1785 1.375 . S
C1784 C1790 1.404 . S
C1785 C1784 1.375 . S
C1785 C1786 1.369 . S
C1785 H1798 0.950 . S
C1786 C1785 1.369 . S
C1786 C1787 1.392 . S
C1786 H1799 0.951 . S
C1787 C1786 1.392 . S
C1787 C1789 1.384 . S
H1788 C1790 0.949 . S
C1789 C1787 1.384 . S
C1789 C1790 1.385 . S
C1789 H1791 0.950 . S
C1790 C1784 1.404 . S
C1790 H1788 0.949 . S
C1790 C1789 1.385 . S
H1791 C1789 0.950 . S
H1792 C1776 0.951 . S
H1793 C1778 0.951 . S
H1794 C1780 0.951 . S
H1795 C1781 0.950 . S
H1796 C1782 0.950 . S
H1797 C1783 0.950 . S
H1798 C1785 0.950 . S
H1799 C1786 0.951 . S
C1800 C1801 1.386 . S
C1800 C1802 1.383 . S
C1800 H1816 0.951 . S
C1801 C1800 1.386 . S
C1801 C1805 1.383 . S
C1802 C1800 1.383 . S
C1802 C1803 1.402 . S
C1802 H1817 0.951 . S
C1803 C1802 1.402 . S
C1803 C1804 1.375 . S
C1803 C1806 1.481 . S
C1804 C1803 1.375 . S
C1804 C1805 1.367 . S
C1804 H1818 0.951 . S
C1805 C1801 1.383 . S
C1805 C1804 1.367 . S
C1805 H1819 0.950 . S
C1806 C1803 1.481 . S
C1806 C1807 1.297 . S
C1806 H1820 0.950 . S
C1807 C1806 1.297 . S
C1807 C1808 1.479 . S
C1807 H1821 0.950 . S
C1808 C1807 1.479 . S
C1808 C1809 1.375 . S
C1808 C1814 1.404 . S
C1809 C1808 1.375 . S
C1809 C1810 1.369 . S
C1809 H1822 0.950 . S
C1810 C1809 1.369 . S
C1810 C1811 1.392 . S
C1810 H1823 0.951 . S
C1811 C1810 1.392 . S
C1811 C1813 1.384 . S
H1812 C1814 0.949 . S
C1813 C1811 1.384 . S
C1813 C1814 1.385 . S
C1813 H1815 0.950 . S
C1814 C1808 1.404 . S
C1814 H1812 0.949 . S
C1814 C1813 1.385 . S
H1815 C1813 0.950 . S
H1816 C1800 0.951 . S
H1817 C1802 0.951 . S
H1818 C1804 0.951 . S
H1819 C1805 0.950 . S
H1820 C1806 0.950 . S
H1821 C1807 0.950 . S
H1822 C1809 0.950 . S
H1823 C1810 0.951 . S
C1824 C1825 1.386 . S
C1824 C1826 1.383 . S
C1824 H1840 0.951 . S
C1825 C1824 1.386 . S
C1825 C1829 1.383 . S
C1826 C1824 1.383 . S
C1826 C1827 1.402 . S
C1826 H1841 0.951 . S
C1827 C1826 1.402 . S
C1827 C1828 1.375 . S
C1827 C1830 1.481 . S
C1828 C1827 1.375 . S
C1828 C1829 1.367 . S
C1828 H1842 0.951 . S
C1829 C1825 1.383 . S
C1829 C1828 1.367 . S
C1829 H1843 0.950 . S
C1830 C1827 1.481 . S
C1830 C1831 1.297 . S
C1830 H1844 0.950 . S
C1831 C1830 1.297 . S
C1831 C1832 1.479 . S
C1831 H1845 0.950 . S
C1832 C1831 1.479 . S
C1832 C1833 1.375 . S
C1832 C1838 1.404 . S
C1833 C1832 1.375 . S
C1833 C1834 1.369 . S
C1833 H1846 0.950 . S
C1834 C1833 1.369 . S
C1834 C1835 1.392 . S
C1834 H1847 0.951 . S
C1835 C1834 1.392 . S
C1835 C1837 1.384 . S
H1836 C1838 0.949 . S
C1837 C1835 1.384 . S
C1837 C1838 1.385 . S
C1837 H1839 0.950 . S
C1838 C1832 1.404 . S
C1838 H1836 0.949 . S
C1838 C1837 1.385 . S
H1839 C1837 0.950 . S
H1840 C1824 0.951 . S
H1841 C1826 0.951 . S
H1842 C1828 0.951 . S
H1843 C1829 0.950 . S
H1844 C1830 0.950 . S
H1845 C1831 0.950 . S
H1846 C1833 0.950 . S
H1847 C1834 0.951 . S
C1848 C1849 1.386 . S
C1848 C1850 1.383 . S
C1848 H1864 0.951 . S
C1849 C1848 1.386 . S
C1849 C1853 1.383 . S
C1850 C1848 1.383 . S
C1850 C1851 1.402 . S
C1850 H1865 0.951 . S
C1851 C1850 1.402 . S
C1851 C1852 1.375 . S
C1851 C1854 1.481 . S
C1852 C1851 1.375 . S
C1852 C1853 1.367 . S
C1852 H1866 0.951 . S
C1853 C1849 1.383 . S
C1853 C1852 1.367 . S
C1853 H1867 0.950 . S
C1854 C1851 1.481 . S
C1854 C1855 1.297 . S
C1854 H1868 0.950 . S
C1855 C1854 1.297 . S
C1855 C1856 1.479 . S
C1855 H1869 0.950 . S
C1856 C1855 1.479 . S
C1856 C1857 1.375 . S
C1856 C1862 1.404 . S
C1857 C1856 1.375 . S
C1857 C1858 1.369 . S
C1857 H1870 0.950 . S
C1858 C1857 1.369 . S
C1858 C1859 1.392 . S
C1858 H1871 0.951 . S
C1859 C1858 1.392 . S
C1859 C1861 1.384 . S
H1860 C1862 0.949 . S
C1861 C1859 1.384 . S
C1861 C1862 1.385 . S
C1861 H1863 0.950 . S
C1862 C1856 1.404 . S
C1862 H1860 0.949 . S
C1862 C1861 1.385 . S
H1863 C1861 0.950 . S
H1864 C1848 0.951 . S
H1865 C1850 0.951 . S
H1866 C1852 0.951 . S
H1867 C1853 0.950 . S
H1868 C1854 0.950 . S
H1869 C1855 0.950 . S
H1870 C1857 0.950 . S
H1871 C1858 0.951 . S
C1872 C1873 1.386 . S
C1872 C1874 1.383 . S
C1872 H1888 0.951 . S
C1873 C1872 1.386 . S
C1873 C1877 1.383 . S
C1874 C1872 1.383 . S
C1874 C1875 1.402 . S
C1874 H1889 0.951 . S
C1875 C1874 1.402 . S
C1875 C1876 1.375 . S
C1875 C1878 1.481 . S
C1876 C1875 1.375 . S
C1876 C1877 1.367 . S
C1876 H1890 0.951 . S
C1877 C1873 1.383 . S
C1877 C1876 1.367 . S
C1877 H1891 0.950 . S
C1878 C1875 1.481 . S
C1878 C1879 1.297 . S
C1878 H1892 0.950 . S
C1879 C1878 1.297 . S
C1879 C1880 1.479 . S
C1879 H1893 0.950 . S
C1880 C1879 1.479 . S
C1880 C1881 1.375 . S
C1880 C1886 1.404 . S
C1881 C1880 1.375 . S
C1881 C1882 1.369 . S
C1881 H1894 0.950 . S
C1882 C1881 1.369 . S
C1882 C1883 1.392 . S
C1882 H1895 0.951 . S
C1883 C1882 1.392 . S
C1883 C1885 1.384 . S
H1884 C1886 0.949 . S
C1885 C1883 1.384 . S
C1885 C1886 1.385 . S
C1885 H1887 0.950 . S
C1886 C1880 1.404 . S
C1886 H1884 0.949 . S
C1886 C1885 1.385 . S
H1887 C1885 0.950 . S
H1888 C1872 0.951 . S
H1889 C1874 0.951 . S
H1890 C1876 0.951 . S
H1891 C1877 0.950 . S
H1892 C1878 0.950 . S
H1893 C1879 0.950 . S
H1894 C1881 0.950 . S
H1895 C1882 0.951 . S
C1896 C1897 1.386 . S
C1896 C1898 1.383 . S
C1896 H1912 0.951 . S
C1897 C1896 1.386 . S
C1897 C1901 1.383 . S
C1898 C1896 1.383 . S
C1898 C1899 1.402 . S
C1898 H1913 0.951 . S
C1899 C1898 1.402 . S
C1899 C1900 1.375 . S
C1899 C1902 1.481 . S
C1900 C1899 1.375 . S
C1900 C1901 1.367 . S
C1900 H1914 0.951 . S
C1901 C1897 1.383 . S
C1901 C1900 1.367 . S
C1901 H1915 0.950 . S
C1902 C1899 1.481 . S
C1902 C1903 1.297 . S
C1902 H1916 0.950 . S
C1903 C1902 1.297 . S
C1903 C1904 1.479 . S
C1903 H1917 0.950 . S
C1904 C1903 1.479 . S
C1904 C1905 1.375 . S
C1904 C1910 1.404 . S
C1905 C1904 1.375 . S
C1905 C1906 1.369 . S
C1905 H1918 0.950 . S
C1906 C1905 1.369 . S
C1906 C1907 1.392 . S
C1906 H1919 0.951 . S
C1907 C1906 1.392 . S
C1907 C1909 1.384 . S
H1908 C1910 0.949 . S
C1909 C1907 1.384 . S
C1909 C1910 1.385 . S
C1909 H1911 0.950 . S
C1910 C1904 1.404 . S
C1910 H1908 0.949 . S
C1910 C1909 1.385 . S
H1911 C1909 0.950 . S
H1912 C1896 0.951 . S
H1913 C1898 0.951 . S
H1914 C1900 0.951 . S
H1915 C1901 0.950 . S
H1916 C1902 0.950 . S
H1917 C1903 0.950 . S
H1918 C1905 0.950 . S
H1919 C1906 0.951 . S
C1920 C1921 1.386 . S
C1920 C1922 1.383 . S
C1920 H1936 0.951 . S
C1921 C1920 1.386 . S
C1921 C1925 1.383 . S
C1922 C1920 1.383 . S
C1922 C1923 1.402 . S
C1922 H1937 0.951 . S
C1923 C1922 1.402 . S
C1923 C1924 1.375 . S
C1923 C1926 1.481 . S
C1924 C1923 1.375 . S
C1924 C1925 1.367 . S
C1924 H1938 0.951 . S
C1925 C1921 1.383 . S
C1925 C1924 1.367 . S
C1925 H1939 0.950 . S
C1926 C1923 1.481 . S
C1926 C1927 1.297 . S
C1926 H1940 0.950 . S
C1927 C1926 1.297 . S
C1927 C1928 1.479 . S
C1927 H1941 0.950 . S
C1928 C1927 1.479 . S
C1928 C1929 1.375 . S
C1928 C1934 1.404 . S
C1929 C1928 1.375 . S
C1929 C1930 1.369 . S
C1929 H1942 0.950 . S
C1930 C1929 1.369 . S
C1930 C1931 1.392 . S
C1930 H1943 0.951 . S
C1931 C1930 1.392 . S
C1931 C1933 1.384 . S
H1932 C1934 0.949 . S
C1933 C1931 1.384 . S
C1933 C1934 1.385 . S
C1933 H1935 0.950 . S
C1934 C1928 1.404 . S
C1934 H1932 0.949 . S
C1934 C1933 1.385 . S
H1935 C1933 0.950 . S
H1936 C1920 0.951 . S
H1937 C1922 0.951 . S
H1938 C1924 0.951 . S
H1939 C1925 0.950 . S
H1940 C1926 0.950 . S
H1941 C1927 0.950 . S
H1942 C1929 0.950 . S
H1943 C1930 0.951 . S
C1944 C1945 1.386 . S
C1944 C1946 1.383 . S
C1944 H1960 0.951 . S
C1945 C1944 1.386 . S
C1945 C1949 1.383 . S
C1946 C1944 1.383 . S
C1946 C1947 1.402 . S
C1946 H1961 0.951 . S
C1947 C1946 1.402 . S
C1947 C1948 1.375 . S
C1947 C1950 1.481 . S
C1948 C1947 1.375 . S
C1948 C1949 1.367 . S
C1948 H1962 0.951 . S
C1949 C1945 1.383 . S
C1949 C1948 1.367 . S
C1949 H1963 0.950 . S
C1950 C1947 1.481 . S
C1950 C1951 1.297 . S
C1950 H1964 0.950 . S
C1951 C1950 1.297 . S
C1951 C1952 1.479 . S
C1951 H1965 0.950 . S
C1952 C1951 1.479 . S
C1952 C1953 1.375 . S
C1952 C1958 1.404 . S
C1953 C1952 1.375 . S
C1953 C1954 1.369 . S
C1953 H1966 0.950 . S
C1954 C1953 1.369 . S
C1954 C1955 1.392 . S
C1954 H1967 0.951 . S
C1955 C1954 1.392 . S
C1955 C1957 1.384 . S
H1956 C1958 0.949 . S
C1957 C1955 1.384 . S
C1957 C1958 1.385 . S
C1957 H1959 0.950 . S
C1958 C1952 1.404 . S
C1958 H1956 0.949 . S
C1958 C1957 1.385 . S
H1959 C1957 0.950 . S
H1960 C1944 0.951 . S
H1961 C1946 0.951 . S
H1962 C1948 0.951 . S
H1963 C1949 0.950 . S
H1964 C1950 0.950 . S
H1965 C1951 0.950 . S
H1966 C1953 0.950 . S
H1967 C1954 0.951 . S
C1968 C1969 1.386 . S
C1968 C1970 1.383 . S
C1968 H1984 0.951 . S
C1969 C1968 1.386 . S
C1969 C1973 1.383 . S
C1970 C1968 1.383 . S
C1970 C1971 1.402 . S
C1970 H1985 0.951 . S
C1971 C1970 1.402 . S
C1971 C1972 1.375 . S
C1971 C1974 1.481 . S
C1972 C1971 1.375 . S
C1972 C1973 1.367 . S
C1972 H1986 0.951 . S
C1973 C1969 1.383 . S
C1973 C1972 1.367 . S
C1973 H1987 0.950 . S
C1974 C1971 1.481 . S
C1974 C1975 1.297 . S
C1974 H1988 0.950 . S
C1975 C1974 1.297 . S
C1975 C1976 1.479 . S
C1975 H1989 0.950 . S
C1976 C1975 1.479 . S
C1976 C1977 1.375 . S
C1976 C1982 1.404 . S
C1977 C1976 1.375 . S
C1977 C1978 1.369 . S
C1977 H1990 0.950 . S
C1978 C1977 1.369 . S
C1978 C1979 1.392 . S
C1978 H1991 0.951 . S
C1979 C1978 1.392 . S
C1979 C1981 1.384 . S
H1980 C1982 0.949 . S
C1981 C1979 1.384 . S
C1981 C1982 1.385 . S
C1981 H1983 0.950 . S
C1982 C1976 1.404 . S
C1982 H1980 0.949 . S
C1982 C1981 1.385 . S
H1983 C1981 0.950 . S
H1984 C1968 0.951 . S
H1985 C1970 0.951 . S
H1986 C1972 0.951 . S
H1987 C1973 0.950 . S
H1988 C1974 0.950 . S
H1989 C1975 0.950 . S
H1990 C1977 0.950 . S
H1991 C1978 0.951 . S
C1992 C1993 1.386 . S
C1992 C1994 1.383 . S
C1992 H2008 0.951 . S
C1993 C1992 1.386 . S
C1993 C1997 1.383 . S
C1994 C1992 1.383 . S
C1994 C1995 1.402 . S
C1994 H2009 0.951 . S
C1995 C1994 1.402 . S
C1995 C1996 1.375 . S
C1995 C1998 1.481 . S
C1996 C1995 1.375 . S
C1996 C1997 1.367 . S
C1996 H2010 0.951 . S
C1997 C1993 1.383 . S
C1997 C1996 1.367 . S
C1997 H2011 0.950 . S
C1998 C1995 1.481 . S
C1998 C1999 1.297 . S
C1998 H2012 0.950 . S
C1999 C1998 1.297 . S
C1999 C2000 1.479 . S
C1999 H2013 0.950 . S
C2000 C1999 1.479 . S
C2000 C2001 1.375 . S
C2000 C2006 1.404 . S
C2001 C2000 1.375 . S
C2001 C2002 1.369 . S
C2001 H2014 0.950 . S
C2002 C2001 1.369 . S
C2002 C2003 1.392 . S
C2002 H2015 0.951 . S
C2003 C2002 1.392 . S
C2003 C2005 1.384 . S
H2004 C2006 0.949 . S
C2005 C2003 1.384 . S
C2005 C2006 1.385 . S
C2005 H2007 0.950 . S
C2006 C2000 1.404 . S
C2006 H2004 0.949 . S
C2006 C2005 1.385 . S
H2007 C2005 0.950 . S
H2008 C1992 0.951 . S
H2009 C1994 0.951 . S
H2010 C1996 0.951 . S
H2011 C1997 0.950 . S
H2012 C1998 0.950 . S
H2013 C1999 0.950 . S
H2014 C2001 0.950 . S
H2015 C2002 0.951 . S
C2016 C2017 1.386 . S
C2016 C2018 1.383 . S
C2016 H2032 0.951 . S
C2017 C2016 1.386 . S
C2017 C2021 1.383 . S
C2018 C2016 1.383 . S
C2018 C2019 1.402 . S
C2018 H2033 0.951 . S
C2019 C2018 1.402 . S
C2019 C2020 1.375 . S
C2019 C2022 1.481 . S
C2020 C2019 1.375 . S
C2020 C2021 1.367 . S
C2020 H2034 0.951 . S
C2021 C2017 1.383 . S
C2021 C2020 1.367 . S
C2021 H2035 0.950 . S
C2022 C2019 1.481 . S
C2022 C2023 1.297 . S
C2022 H2036 0.950 . S
C2023 C2022 1.297 . S
C2023 C2024 1.479 . S
C2023 H2037 0.950 . S
C2024 C2023 1.479 . S
C2024 C2025 1.375 . S
C2024 C2030 1.404 . S
C2025 C2024 1.375 . S
C2025 C2026 1.369 . S
C2025 H2038 0.950 . S
C2026 C2025 1.369 . S
C2026 C2027 1.392 . S
C2026 H2039 0.951 . S
C2027 C2026 1.392 . S
C2027 C2029 1.384 . S
H2028 C2030 0.949 . S
C2029 C2027 1.384 . S
C2029 C2030 1.385 . S
C2029 H2031 0.950 . S
C2030 C2024 1.404 . S
C2030 H2028 0.949 . S
C2030 C2029 1.385 . S
H2031 C2029 0.950 . S
H2032 C2016 0.951 . S
H2033 C2018 0.951 . S
H2034 C2020 0.951 . S
H2035 C2021 0.950 . S
H2036 C2022 0.950 . S
H2037 C2023 0.950 . S
H2038 C2025 0.950 . S
H2039 C2026 0.951 . S
C2040 C2041 1.386 . S
C2040 C2042 1.383 . S
C2040 H2056 0.951 . S
C2041 C2040 1.386 . S
C2041 C2045 1.383 . S
C2042 C2040 1.383 . S
C2042 C2043 1.402 . S
C2042 H2057 0.951 . S
C2043 C2042 1.402 . S
C2043 C2044 1.375 . S
C2043 C2046 1.481 . S
C2044 C2043 1.375 . S
C2044 C2045 1.367 . S
C2044 H2058 0.951 . S
C2045 C2041 1.383 . S
C2045 C2044 1.367 . S
C2045 H2059 0.950 . S
C2046 C2043 1.481 . S
C2046 C2047 1.297 . S
C2046 H2060 0.950 . S
C2047 C2046 1.297 . S
C2047 C2048 1.479 . S
C2047 H2061 0.950 . S
C2048 C2047 1.479 . S
C2048 C2049 1.375 . S
C2048 C2054 1.404 . S
C2049 C2048 1.375 . S
C2049 C2050 1.369 . S
C2049 H2062 0.950 . S
C2050 C2049 1.369 . S
C2050 C2051 1.392 . S
C2050 H2063 0.951 . S
C2051 C2050 1.392 . S
C2051 C2053 1.384 . S
H2052 C2054 0.949 . S
C2053 C2051 1.384 . S
C2053 C2054 1.385 . S
C2053 H2055 0.950 . S
C2054 C2048 1.404 . S
C2054 H2052 0.949 . S
C2054 C2053 1.385 . S
H2055 C2053 0.950 . S
H2056 C2040 0.951 . S
H2057 C2042 0.951 . S
H2058 C2044 0.951 . S
H2059 C2045 0.950 . S
H2060 C2046 0.950 . S
H2061 C2047 0.950 . S
H2062 C2049 0.950 . S
H2063 C2050 0.951 . S
C2064 C2065 1.386 . S
C2064 C2066 1.383 . S
C2064 H2080 0.951 . S
C2065 C2064 1.386 . S
C2065 C2069 1.383 . S
C2066 C2064 1.383 . S
C2066 C2067 1.402 . S
C2066 H2081 0.951 . S
C2067 C2066 1.402 . S
C2067 C2068 1.375 . S
C2067 C2070 1.481 . S
C2068 C2067 1.375 . S
C2068 C2069 1.367 . S
C2068 H2082 0.951 . S
C2069 C2065 1.383 . S
C2069 C2068 1.367 . S
C2069 H2083 0.950 . S
C2070 C2067 1.481 . S
C2070 C2071 1.297 . S
C2070 H2084 0.950 . S
C2071 C2070 1.297 . S
C2071 C2072 1.479 . S
C2071 H2085 0.950 . S
C2072 C2071 1.479 . S
C2072 C2073 1.375 . S
C2072 C2078 1.404 . S
C2073 C2072 1.375 . S
C2073 C2074 1.369 . S
C2073 H2086 0.950 . S
C2074 C2073 1.369 . S
C2074 C2075 1.392 . S
C2074 H2087 0.951 . S
C2075 C2074 1.392 . S
C2075 C2077 1.384 . S
H2076 C2078 0.949 . S
C2077 C2075 1.384 . S
C2077 C2078 1.385 . S
C2077 H2079 0.950 . S
C2078 C2072 1.404 . S
C2078 H2076 0.949 . S
C2078 C2077 1.385 . S
H2079 C2077 0.950 . S
H2080 C2064 0.951 . S
H2081 C2066 0.951 . S
H2082 C2068 0.951 . S
H2083 C2069 0.950 . S
H2084 C2070 0.950 . S
H2085 C2071 0.950 . S
H2086 C2073 0.950 . S
H2087 C2074 0.951 . S
C2088 C2089 1.386 . S
C2088 C2090 1.383 . S
C2088 H2104 0.951 . S
C2089 C2088 1.386 . S
C2089 C2093 1.383 . S
C2090 C2088 1.383 . S
C2090 C2091 1.402 . S
C2090 H2105 0.951 . S
C2091 C2090 1.402 . S
C2091 C2092 1.375 . S
C2091 C2094 1.481 . S
C2092 C2091 1.375 . S
C2092 C2093 1.367 . S
C2092 H2106 0.951 . S
C2093 C2089 1.383 . S
C2093 C2092 1.367 . S
C2093 H2107 0.950 . S
C2094 C2091 1.481 . S
C2094 C2095 1.297 . S
C2094 H2108 0.950 . S
C2095 C2094 1.297 . S
C2095 C2096 1.479 . S
C2095 H2109 0.950 . S
C2096 C2095 1.479 . S
C2096 C2097 1.375 . S
C2096 C2102 1.404 . S
C2097 C2096 1.375 . S
C2097 C2098 1.369 . S
C2097 H2110 0.950 . S
C2098 C2097 1.369 . S
C2098 C2099 1.392 . S
C2098 H2111 0.951 . S
C2099 C2098 1.392 . S
C2099 C2101 1.384 . S
H2100 C2102 0.949 . S
C2101 C2099 1.384 . S
C2101 C2102 1.385 . S
C2101 H2103 0.950 . S
C2102 C2096 1.404 . S
C2102 H2100 0.949 . S
C2102 C2101 1.385 . S
H2103 C2101 0.950 . S
H2104 C2088 0.951 . S
H2105 C2090 0.951 . S
H2106 C2092 0.951 . S
H2107 C2093 0.950 . S
H2108 C2094 0.950 . S
H2109 C2095 0.950 . S
H2110 C2097 0.950 . S
H2111 C2098 0.951 . S
C2112 C2113 1.386 . S
C2112 C2114 1.383 . S
C2112 H2128 0.951 . S
C2113 C2112 1.386 . S
C2113 C2117 1.383 . S
C2114 C2112 1.383 . S
C2114 C2115 1.402 . S
C2114 H2129 0.951 . S
C2115 C2114 1.402 . S
C2115 C2116 1.375 . S
C2115 C2118 1.481 . S
C2116 C2115 1.375 . S
C2116 C2117 1.367 . S
C2116 H2130 0.951 . S
C2117 C2113 1.383 . S
C2117 C2116 1.367 . S
C2117 H2131 0.950 . S
C2118 C2115 1.481 . S
C2118 C2119 1.297 . S
C2118 H2132 0.950 . S
C2119 C2118 1.297 . S
C2119 C2120 1.479 . S
C2119 H2133 0.950 . S
C2120 C2119 1.479 . S
C2120 C2121 1.375 . S
C2120 C2126 1.404 . S
C2121 C2120 1.375 . S
C2121 C2122 1.369 . S
C2121 H2134 0.950 . S
C2122 C2121 1.369 . S
C2122 C2123 1.392 . S
C2122 H2135 0.951 . S
C2123 C2122 1.392 . S
C2123 C2125 1.384 . S
H2124 C2126 0.949 . S
C2125 C2123 1.384 . S
C2125 C2126 1.385 . S
C2125 H2127 0.950 . S
C2126 C2120 1.404 . S
C2126 H2124 0.949 . S
C2126 C2125 1.385 . S
H2127 C2125 0.950 . S
H2128 C2112 0.951 . S
H2129 C2114 0.951 . S
H2130 C2116 0.951 . S
H2131 C2117 0.950 . S
H2132 C2118 0.950 . S
H2133 C2119 0.950 . S
H2134 C2121 0.950 . S
H2135 C2122 0.951 . S
C2136 C2137 1.386 . S
C2136 C2138 1.383 . S
C2136 H2152 0.951 . S
C2137 C2136 1.386 . S
C2137 C2141 1.383 . S
C2138 C2136 1.383 . S
C2138 C2139 1.402 . S
C2138 H2153 0.951 . S
C2139 C2138 1.402 . S
C2139 C2140 1.375 . S
C2139 C2142 1.481 . S
C2140 C2139 1.375 . S
C2140 C2141 1.367 . S
C2140 H2154 0.951 . S
C2141 C2137 1.383 . S
C2141 C2140 1.367 . S
C2141 H2155 0.950 . S
C2142 C2139 1.481 . S
C2142 C2143 1.297 . S
C2142 H2156 0.950 . S
C2143 C2142 1.297 . S
C2143 C2144 1.479 . S
C2143 H2157 0.950 . S
C2144 C2143 1.479 . S
C2144 C2145 1.375 . S
C2144 C2150 1.404 . S
C2145 C2144 1.375 . S
C2145 C2146 1.369 . S
C2145 H2158 0.950 . S
C2146 C2145 1.369 . S
C2146 C2147 1.392 . S
C2146 H2159 0.951 . S
C2147 C2146 1.392 . S
C2147 C2149 1.384 . S
H2148 C2150 0.949 . S
C2149 C2147 1.384 . S
C2149 C2150 1.385 . S
C2149 H2151 0.950 . S
C2150 C2144 1.404 . S
C2150 H2148 0.949 . S
C2150 C2149 1.385 . S
H2151 C2149 0.950 . S
H2152 C2136 0.951 . S
H2153 C2138 0.951 . S
H2154 C2140 0.951 . S
H2155 C2141 0.950 . S
H2156 C2142 0.950 . S
H2157 C2143 0.950 . S
H2158 C2145 0.950 . S
H2159 C2146 0.951 . S
C2160 C2161 1.386 . S
C2160 C2162 1.383 . S
C2160 H2176 0.951 . S
C2161 C2160 1.386 . S
C2161 C2165 1.383 . S
C2162 C2160 1.383 . S
C2162 C2163 1.402 . S
C2162 H2177 0.951 . S
C2163 C2162 1.402 . S
C2163 C2164 1.375 . S
C2163 C2166 1.481 . S
C2164 C2163 1.375 . S
C2164 C2165 1.367 . S
C2164 H2178 0.951 . S
C2165 C2161 1.383 . S
C2165 C2164 1.367 . S
C2165 H2179 0.950 . S
C2166 C2163 1.481 . S
C2166 C2167 1.297 . S
C2166 H2180 0.950 . S
C2167 C2166 1.297 . S
C2167 C2168 1.479 . S
C2167 H2181 0.950 . S
C2168 C2167 1.479 . S
C2168 C2169 1.375 . S
C2168 C2174 1.404 . S
C2169 C2168 1.375 . S
C2169 C2170 1.369 . S
C2169 H2182 0.950 . S
C2170 C2169 1.369 . S
C2170 C2171 1.392 . S
C2170 H2183 0.951 . S
C2171 C2170 1.392 . S
C2171 C2173 1.384 . S
H2172 C2174 0.949 . S
C2173 C2171 1.384 . S
C2173 C2174 1.385 . S
C2173 H2175 0.950 . S
C2174 C2168 1.404 . S
C2174 H2172 0.949 . S
C2174 C2173 1.385 . S
H2175 C2173 0.950 . S
H2176 C2160 0.951 . S
H2177 C2162 0.951 . S
H2178 C2164 0.951 . S
H2179 C2165 0.950 . S
H2180 C2166 0.950 . S
H2181 C2167 0.950 . S
H2182 C2169 0.950 . S
H2183 C2170 0.951 . S
C2184 C2185 1.386 . S
C2184 C2186 1.383 . S
C2184 H2200 0.951 . S
C2185 C2184 1.386 . S
C2185 C2189 1.383 . S
C2186 C2184 1.383 . S
C2186 C2187 1.402 . S
C2186 H2201 0.951 . S
C2187 C2186 1.402 . S
C2187 C2188 1.375 . S
C2187 C2190 1.481 . S
C2188 C2187 1.375 . S
C2188 C2189 1.367 . S
C2188 H2202 0.951 . S
C2189 C2185 1.383 . S
C2189 C2188 1.367 . S
C2189 H2203 0.950 . S
C2190 C2187 1.481 . S
C2190 C2191 1.297 . S
C2190 H2204 0.950 . S
C2191 C2190 1.297 . S
C2191 C2192 1.479 . S
C2191 H2205 0.950 . S
C2192 C2191 1.479 . S
C2192 C2193 1.375 . S
C2192 C2198 1.404 . S
C2193 C2192 1.375 . S
C2193 C2194 1.369 . S
C2193 H2206 0.950 . S
C2194 C2193 1.369 . S
C2194 C2195 1.392 . S
C2194 H2207 0.951 . S
C2195 C2194 1.392 . S
C2195 C2197 1.384 . S
H2196 C2198 0.949 . S
C2197 C2195 1.384 . S
C2197 C2198 1.385 . S
C2197 H2199 0.950 . S
C2198 C2192 1.404 . S
C2198 H2196 0.949 . S
C2198 C2197 1.385 . S
H2199 C2197 0.950 . S
H2200 C2184 0.951 . S
H2201 C2186 0.951 . S
H2202 C2188 0.951 . S
H2203 C2189 0.950 . S
H2204 C2190 0.950 . S
H2205 C2191 0.950 . S
H2206 C2193 0.950 . S
H2207 C2194 0.951 . S
C2208 C2209 1.386 . S
C2208 C2210 1.383 . S
C2208 H2224 0.951 . S
C2209 C2208 1.386 . S
C2209 C2213 1.383 . S
C2210 C2208 1.383 . S
C2210 C2211 1.402 . S
C2210 H2225 0.951 . S
C2211 C2210 1.402 . S
C2211 C2212 1.375 . S
C2211 C2214 1.481 . S
C2212 C2211 1.375 . S
C2212 C2213 1.367 . S
C2212 H2226 0.951 . S
C2213 C2209 1.383 . S
C2213 C2212 1.367 . S
C2213 H2227 0.950 . S
C2214 C2211 1.481 . S
C2214 C2215 1.297 . S
C2214 H2228 0.950 . S
C2215 C2214 1.297 . S
C2215 C2216 1.479 . S
C2215 H2229 0.950 . S
C2216 C2215 1.479 . S
C2216 C2217 1.375 . S
C2216 C2222 1.404 . S
C2217 C2216 1.375 . S
C2217 C2218 1.369 . S
C2217 H2230 0.950 . S
C2218 C2217 1.369 . S
C2218 C2219 1.392 . S
C2218 H2231 0.951 . S
C2219 C2218 1.392 . S
C2219 C2221 1.384 . S
H2220 C2222 0.949 . S
C2221 C2219 1.384 . S
C2221 C2222 1.385 . S
C2221 H2223 0.950 . S
C2222 C2216 1.404 . S
C2222 H2220 0.949 . S
C2222 C2221 1.385 . S
H2223 C2221 0.950 . S
H2224 C2208 0.951 . S
H2225 C2210 0.951 . S
H2226 C2212 0.951 . S
H2227 C2213 0.950 . S
H2228 C2214 0.950 . S
H2229 C2215 0.950 . S
H2230 C2217 0.950 . S
H2231 C2218 0.951 . S
C2232 C2233 1.386 . S
C2232 C2234 1.383 . S
C2232 H2248 0.951 . S
C2233 C2232 1.386 . S
C2233 C2237 1.383 . S
C2234 C2232 1.383 . S
C2234 C2235 1.402 . S
C2234 H2249 0.951 . S
C2235 C2234 1.402 . S
C2235 C2236 1.375 . S
C2235 C2238 1.481 . S
C2236 C2235 1.375 . S
C2236 C2237 1.367 . S
C2236 H2250 0.951 . S
C2237 C2233 1.383 . S
C2237 C2236 1.367 . S
C2237 H2251 0.950 . S
C2238 C2235 1.481 . S
C2238 C2239 1.297 . S
C2238 H2252 0.950 . S
C2239 C2238 1.297 . S
C2239 C2240 1.479 . S
C2239 H2253 0.950 . S
C2240 C2239 1.479 . S
C2240 C2241 1.375 . S
C2240 C2246 1.404 . S
C2241 C2240 1.375 . S
C2241 C2242 1.369 . S
C2241 H2254 0.950 . S
C2242 C2241 1.369 . S
C2242 C2243 1.392 . S
C2242 H2255 0.951 . S
C2243 C2242 1.392 . S
C2243 C2245 1.384 . S
H2244 C2246 0.949 . S
C2245 C2243 1.384 . S
C2245 C2246 1.385 . S
C2245 H2247 0.950 . S
C2246 C2240 1.404 . S
C2246 H2244 0.949 . S
C2246 C2245 1.385 . S
H2247 C2245 0.950 . S
H2248 C2232 0.951 . S
H2249 C2234 0.951 . S
H2250 C2236 0.951 . S
H2251 C2237 0.950 . S
H2252 C2238 0.950 . S
H2253 C2239 0.950 . S
H2254 C2241 0.950 . S
H2255 C2242 0.951 . S
C2256 C2257 1.386 . S
C2256 C2258 1.383 . S
C2256 H2272 0.951 . S
C2257 C2256 1.386 . S
C2257 C2261 1.383 . S
C2258 C2256 1.383 . S
C2258 C2259 1.402 . S
C2258 H2273 0.951 . S
C2259 C2258 1.402 . S
C2259 C2260 1.375 . S
C2259 C2262 1.481 . S
C2260 C2259 1.375 . S
C2260 C2261 1.367 . S
C2260 H2274 0.951 . S
C2261 C2257 1.383 . S
C2261 C2260 1.367 . S
C2261 H2275 0.950 . S
C2262 C2259 1.481 . S
C2262 C2263 1.297 . S
C2262 H2276 0.950 . S
C2263 C2262 1.297 . S
C2263 C2264 1.479 . S
C2263 H2277 0.950 . S
C2264 C2263 1.479 . S
C2264 C2265 1.375 . S
C2264 C2270 1.404 . S
C2265 C2264 1.375 . S
C2265 C2266 1.369 . S
C2265 H2278 0.950 . S
C2266 C2265 1.369 . S
C2266 C2267 1.392 . S
C2266 H2279 0.951 . S
C2267 C2266 1.392 . S
C2267 C2269 1.384 . S
H2268 C2270 0.949 . S
C2269 C2267 1.384 . S
C2269 C2270 1.385 . S
C2269 H2271 0.950 . S
C2270 C2264 1.404 . S
C2270 H2268 0.949 . S
C2270 C2269 1.385 . S
H2271 C2269 0.950 . S
H2272 C2256 0.951 . S
H2273 C2258 0.951 . S
H2274 C2260 0.951 . S
H2275 C2261 0.950 . S
H2276 C2262 0.950 . S
H2277 C2263 0.950 . S
H2278 C2265 0.950 . S
H2279 C2266 0.951 . S
C2280 C2281 1.386 . S
C2280 C2282 1.383 . S
C2280 H2296 0.951 . S
C2281 C2280 1.386 . S
C2281 C2285 1.383 . S
C2282 C2280 1.383 . S
C2282 C2283 1.402 . S
C2282 H2297 0.951 . S
C2283 C2282 1.402 . S
C2283 C2284 1.375 . S
C2283 C2286 1.481 . S
C2284 C2283 1.375 . S
C2284 C2285 1.367 . S
C2284 H2298 0.951 . S
C2285 C2281 1.383 . S
C2285 C2284 1.367 . S
C2285 H2299 0.950 . S
C2286 C2283 1.481 . S
C2286 C2287 1.297 . S
C2286 H2300 0.950 . S
C2287 C2286 1.297 . S
C2287 C2288 1.479 . S
C2287 H2301 0.950 . S
C2288 C2287 1.479 . S
C2288 C2289 1.375 . S
C2288 C2294 1.404 . S
C2289 C2288 1.375 . S
C2289 C2290 1.369 . S
C2289 H2302 0.950 . S
C2290 C2289 1.369 . S
C2290 C2291 1.392 . S
C2290 H2303 0.951 . S
C2291 C2290 1.392 . S
C2291 C2293 1.384 . S
H2292 C2294 0.949 . S
C2293 C2291 1.384 . S
C2293 C2294 1.385 . S
C2293 H2295 0.950 . S
C2294 C2288 1.404 . S
C2294 H2292 0.949 . S
C2294 C2293 1.385 . S
H2295 C2293 0.950 . S
H2296 C2280 0.951 . S
H2297 C2282 0.951 . S
H2298 C2284 0.951 . S
H2299 C2285 0.950 . S
H2300 C2286 0.950 . S
H2301 C2287 0.950 . S
H2302 C2289 0.950 . S
H2303 C2290 0.951 . S
C2304 C2305 1.386 . S
C2304 C2306 1.383 . S
C2304 H2320 0.951 . S
C2305 C2304 1.386 . S
C2305 C2309 1.383 1_556 S
C2306 C2304 1.383 . S
C2306 C2307 1.402 . S
C2306 H2321 0.951 . S
C2307 C2306 1.402 . S
C2307 C2308 1.375 1_556 S
C2307 C2310 1.481 . S
C2308 C2307 1.375 1_554 S
C2308 C2309 1.367 . S
C2308 H2322 0.951 . S
C2309 C2305 1.383 1_554 S
C2309 C2308 1.367 . S
C2309 H2323 0.950 . S
C2310 C2307 1.481 . S
C2310 C2311 1.297 . S
C2310 H2324 0.950 . S
C2311 C2310 1.297 . S
C2311 C2312 1.479 . S
C2311 H2325 0.950 . S
C2312 C2311 1.479 . S
C2312 C2313 1.375 . S
C2312 C2318 1.404 . S
C2313 C2312 1.375 . S
C2313 C2314 1.369 . S
C2313 H2326 0.950 . S
C2314 C2313 1.369 . S
C2314 C2315 1.392 . S
C2314 H2327 0.951 . S
C2315 C2314 1.392 . S
C2315 C2317 1.384 . S
H2316 C2318 0.949 . S
C2317 C2315 1.384 . S
C2317 C2318 1.385 . S
C2317 H2319 0.950 . S
C2318 C2312 1.404 . S
C2318 H2316 0.949 . S
C2318 C2317 1.385 . S
H2319 C2317 0.950 . S
H2320 C2304 0.951 . S
H2321 C2306 0.951 . S
H2322 C2308 0.951 . S
H2323 C2309 0.950 . S
H2324 C2310 0.950 . S
H2325 C2311 0.950 . S
H2326 C2313 0.950 . S
H2327 C2314 0.951 . S
C2328 C2329 1.386 . S
C2328 C2330 1.383 . S
C2328 H2344 0.951 1_556 S
C2329 C2328 1.386 . S
C2329 C2333 1.383 . S
C2330 C2328 1.383 . S
C2330 C2331 1.402 . S
C2330 H2345 0.951 . S
C2331 C2330 1.402 . S
C2331 C2332 1.375 . S
C2331 C2334 1.481 . S
C2332 C2331 1.375 . S
C2332 C2333 1.367 . S
C2332 H2346 0.951 . S
C2333 C2329 1.383 . S
C2333 C2332 1.367 . S
C2333 H2347 0.950 . S
C2334 C2331 1.481 . S
C2334 C2335 1.297 . S
C2334 H2348 0.950 . S
C2335 C2334 1.297 . S
C2335 C2336 1.479 . S
C2335 H2349 0.950 . S
C2336 C2335 1.479 . S
C2336 C2337 1.375 . S
C2336 C2342 1.404 . S
C2337 C2336 1.375 . S
C2337 C2338 1.369 . S
C2337 H2350 0.950 . S
C2338 C2337 1.369 . S
C2338 C2339 1.392 . S
C2338 H2351 0.951 . S
C2339 C2338 1.392 . S
C2339 C2341 1.384 . S
H2340 C2342 0.949 . S
C2341 C2339 1.384 . S
C2341 C2342 1.385 . S
C2341 H2343 0.950 . S
C2342 C2336 1.404 . S
C2342 H2340 0.949 . S
C2342 C2341 1.385 . S
H2343 C2341 0.950 . S
H2344 C2328 0.951 1_554 S
H2345 C2330 0.951 . S
H2346 C2332 0.951 . S
H2347 C2333 0.950 . S
H2348 C2334 0.950 . S
H2349 C2335 0.950 . S
H2350 C2337 0.950 . S
H2351 C2338 0.951 . S
C2352 C2353 1.386 1_554 S
C2352 C2354 1.383 1_554 S
C2352 H2368 0.951 . S
C2353 C2352 1.386 1_556 S
C2353 C2357 1.383 . S
C2354 C2352 1.383 1_556 S
C2354 C2355 1.402 . S
C2354 H2369 0.967 . S
C2355 C2354 1.402 . S
C2355 C2356 1.375 . S
C2355 C2358 1.481 . S
C2356 C2355 1.375 . S
C2356 C2357 1.367 . S
C2356 H2370 0.951 . S
C2357 C2353 1.383 . S
C2357 C2356 1.367 . S
C2357 H2371 0.950 . S
C2358 C2355 1.481 . S
C2358 C2359 1.297 . S
C2358 H2372 0.950 . S
C2359 C2358 1.297 . S
C2359 C2360 1.479 . S
C2359 H2373 0.950 . S
C2360 C2359 1.479 . S
C2360 C2361 1.375 . S
C2360 C2366 1.404 . S
C2361 C2360 1.375 . S
C2361 C2362 1.369 . S
C2361 H2374 0.950 . S
C2362 C2361 1.369 . S
C2362 C2363 1.392 . S
C2362 H2375 0.951 . S
C2363 C2362 1.392 . S
C2363 C2365 1.384 . S
H2364 C2366 0.949 . S
C2365 C2363 1.384 . S
C2365 C2366 1.385 . S
C2365 H2367 0.950 . S
C2366 C2360 1.404 . S
C2366 H2364 0.949 . S
C2366 C2365 1.385 . S
H2367 C2365 0.950 . S
H2368 C2352 0.951 . S
H2369 C2354 0.967 . S
H2370 C2356 0.951 . S
H2371 C2357 0.950 . S
H2372 C2358 0.950 . S
H2373 C2359 0.950 . S
H2374 C2361 0.950 . S
H2375 C2362 0.951 . S
C2376 C2377 1.434 . S
C2376 C2378 1.383 . S
C2376 H2392 0.951 . S
C2377 C2376 1.434 . S
C2377 C2381 1.348 1_556 S
C2378 C2376 1.383 . S
C2378 C2379 1.402 . S
C2378 H2393 0.951 . S
C2379 C2378 1.402 . S
C2379 C2380 1.375 1_556 S
C2379 C2382 1.481 . S
C2380 C2379 1.375 1_554 S
C2380 C2381 1.367 . S
C2380 H2394 0.951 . S
C2381 C2377 1.348 1_554 S
C2381 C2380 1.367 . S
C2381 H2395 0.950 . S
C2382 C2379 1.481 . S
C2382 C2383 1.297 . S
C2382 H2396 0.950 . S
C2383 C2382 1.297 . S
C2383 C2384 1.479 . S
C2383 H2397 0.950 . S
C2384 C2383 1.479 . S
C2384 C2385 1.375 . S
C2384 C2390 1.404 . S
C2385 C2384 1.375 . S
C2385 C2386 1.369 . S
C2385 H2398 0.950 . S
C2386 C2385 1.369 . S
C2386 C2387 1.392 . S
C2386 H2399 0.951 . S
C2387 C2386 1.392 . S
C2387 C2389 1.384 . S
H2388 C2390 0.949 . S
C2389 C2387 1.384 . S
C2389 C2390 1.385 . S
C2389 H2391 0.950 . S
C2390 C2384 1.404 . S
C2390 H2388 0.949 . S
C2390 C2389 1.385 . S
H2391 C2389 0.950 . S
H2392 C2376 0.951 . S
H2393 C2378 0.951 . S
H2394 C2380 0.951 . S
H2395 C2381 0.950 . S
H2396 C2382 0.950 . S
H2397 C2383 0.950 . S
H2398 C2385 0.950 . S
H2399 C2386 0.951 . S
C2400 C2401 1.386 . S
C2400 C2402 1.383 . S
C2400 H2416 0.945 1_556 S
C2401 C2400 1.386 . S
C2401 C2405 1.383 . S
C2402 C2400 1.383 . S
C2402 C2403 1.402 . S
C2402 H2417 0.951 . S
C2403 C2402 1.402 . S
C2403 C2404 1.375 . S
C2403 C2406 1.481 . S
C2404 C2403 1.375 . S
C2404 C2405 1.367 . S
C2404 H2418 0.951 . S
C2405 C2401 1.383 . S
C2405 C2404 1.367 . S
C2405 H2419 0.950 . S
C2406 C2403 1.481 . S
C2406 C2407 1.297 . S
C2406 H2420 0.950 . S
C2407 C2406 1.297 . S
C2407 C2408 1.479 . S
C2407 H2421 0.950 . S
C2408 C2407 1.479 . S
C2408 C2409 1.375 . S
C2408 C2414 1.404 . S
C2409 C2408 1.375 . S
C2409 C2410 1.369 . S
C2409 H2422 0.950 . S
C2410 C2409 1.369 . S
C2410 C2411 1.392 . S
C2410 H2423 0.951 . S
C2411 C2410 1.392 . S
C2411 C2413 1.384 . S
H2412 C2414 0.949 . S
C2413 C2411 1.384 . S
C2413 C2414 1.385 . S
C2413 H2415 0.950 . S
C2414 C2408 1.404 . S
C2414 H2412 0.949 . S
C2414 C2413 1.385 . S
H2415 C2413 0.950 . S
H2416 C2400 0.945 1_554 S
H2417 C2402 0.951 . S
H2418 C2404 0.951 . S
H2419 C2405 0.950 . S
H2420 C2406 0.950 . S
H2421 C2407 0.950 . S
H2422 C2409 0.950 . S
H2423 C2410 0.951 . S
C2424 C2425 1.392 . S
C2424 C2426 1.385 1_554 S
C2424 H2440 0.951 . S
C2425 C2424 1.392 . S
C2425 C2429 1.369 1_554 S
C2426 C2424 1.385 1_556 S
C2426 C2427 1.398 . S
C2426 H2441 0.952 1_556 S
C2427 C2426 1.398 . S
C2427 C2428 1.375 . S
C2427 C2430 1.481 . S
C2428 C2427 1.375 . S
C2428 C2429 1.367 . S
C2428 H2442 0.951 . S
C2429 C2425 1.369 1_556 S
C2429 C2428 1.367 . S
C2429 H2443 0.950 . S
C2430 C2427 1.481 . S
C2430 C2431 1.297 . S
C2430 H2444 0.950 . S
C2431 C2430 1.297 . S
C2431 C2432 1.479 . S
C2431 H2445 0.950 . S
C2432 C2431 1.479 . S
C2432 C2433 1.375 . S
C2432 C2438 1.404 . S
C2433 C2432 1.375 . S
C2433 C2434 1.369 . S
C2433 H2446 0.950 . S
C2434 C2433 1.369 . S
C2434 C2435 1.392 . S
C2434 H2447 0.951 . S
C2435 C2434 1.392 . S
C2435 C2437 1.384 . S
H2436 C2438 0.949 . S
C2437 C2435 1.384 . S
C2437 C2438 1.385 . S
C2437 H2439 0.950 . S
C2438 C2432 1.404 . S
C2438 H2436 0.949 . S
C2438 C2437 1.385 . S
H2439 C2437 0.950 . S
H2440 C2424 0.951 . S
H2441 C2426 0.952 1_554 S
H2442 C2428 0.951 . S
H2443 C2429 0.950 . S
H2444 C2430 0.950 . S
H2445 C2431 0.950 . S
H2446 C2433 0.950 . S
H2447 C2434 0.951 . S
C2448 C2449 1.386 . S
C2448 C2450 1.383 . S
C2448 H2464 0.951 . S
C2449 C2448 1.386 . S
C2449 C2453 1.383 . S
C2450 C2448 1.383 . S
C2450 C2451 1.402 . S
C2450 H2465 0.951 . S
C2451 C2450 1.402 . S
C2451 C2452 1.375 . S
C2451 C2454 1.481 . S
C2452 C2451 1.375 . S
C2452 C2453 1.367 . S
C2452 H2466 0.951 . S
C2453 C2449 1.383 . S
C2453 C2452 1.367 . S
C2453 H2467 0.950 . S
C2454 C2451 1.481 . S
C2454 C2455 1.297 . S
C2454 H2468 0.950 . S
C2455 C2454 1.297 . S
C2455 C2456 1.479 . S
C2455 H2469 0.950 . S
C2456 C2455 1.479 . S
C2456 C2457 1.375 . S
C2456 C2462 1.404 . S
C2457 C2456 1.375 . S
C2457 C2458 1.369 . S
C2457 H2470 0.950 . S
C2458 C2457 1.369 . S
C2458 C2459 1.392 . S
C2458 H2471 0.951 . S
C2459 C2458 1.392 . S
C2459 C2461 1.384 . S
H2460 C2462 0.949 . S
C2461 C2459 1.384 . S
C2461 C2462 1.385 . S
C2461 H2463 0.950 . S
C2462 C2456 1.404 . S
C2462 H2460 0.949 . S
C2462 C2461 1.385 . S
H2463 C2461 0.950 . S
H2464 C2448 0.951 . S
H2465 C2450 0.951 . S
H2466 C2452 0.951 . S
H2467 C2453 0.950 . S
H2468 C2454 0.950 . S
H2469 C2455 0.950 . S
H2470 C2457 0.950 . S
H2471 C2458 0.951 . S
C2472 C2473 1.386 . S
C2472 C2474 1.383 . S
C2472 H2488 0.951 . S
C2473 C2472 1.386 . S
C2473 C2477 1.383 . S
C2474 C2472 1.383 . S
C2474 C2475 1.402 . S
C2474 H2489 0.951 . S
C2475 C2474 1.402 . S
C2475 C2476 1.375 . S
C2475 C2478 1.481 . S
C2476 C2475 1.375 . S
C2476 C2477 1.367 . S
C2476 H2490 0.951 . S
C2477 C2473 1.383 . S
C2477 C2476 1.367 . S
C2477 H2491 0.950 . S
C2478 C2475 1.481 . S
C2478 C2479 1.297 . S
C2478 H2492 0.950 . S
C2479 C2478 1.297 . S
C2479 C2480 1.479 . S
C2479 H2493 0.950 . S
C2480 C2479 1.479 . S
C2480 C2481 1.375 . S
C2480 C2486 1.404 . S
C2481 C2480 1.375 . S
C2481 C2482 1.369 . S
C2481 H2494 0.950 . S
C2482 C2481 1.369 . S
C2482 C2483 1.392 . S
C2482 H2495 0.951 . S
C2483 C2482 1.392 . S
C2483 C2485 1.384 . S
H2484 C2486 0.949 . S
C2485 C2483 1.384 . S
C2485 C2486 1.385 . S
C2485 H2487 0.950 . S
C2486 C2480 1.404 . S
C2486 H2484 0.949 . S
C2486 C2485 1.385 . S
H2487 C2485 0.950 . S
H2488 C2472 0.951 . S
H2489 C2474 0.951 . S
H2490 C2476 0.951 . S
H2491 C2477 0.950 . S
H2492 C2478 0.950 . S
H2493 C2479 0.950 . S
H2494 C2481 0.950 . S
H2495 C2482 0.951 . S
C2496 C2497 1.386 . S
C2496 C2498 1.383 . S
C2496 H2512 0.951 . S
C2497 C2496 1.386 . S
C2497 C2501 1.383 . S
C2498 C2496 1.383 . S
C2498 C2499 1.402 . S
C2498 H2513 0.951 . S
C2499 C2498 1.402 . S
C2499 C2500 1.375 . S
C2499 C2502 1.481 . S
C2500 C2499 1.375 . S
C2500 C2501 1.367 . S
C2500 H2514 0.951 . S
C2501 C2497 1.383 . S
C2501 C2500 1.367 . S
C2501 H2515 0.950 . S
C2502 C2499 1.481 . S
C2502 C2503 1.297 . S
C2502 H2516 0.950 . S
C2503 C2502 1.297 . S
C2503 C2504 1.479 . S
C2503 H2517 0.950 . S
C2504 C2503 1.479 . S
C2504 C2505 1.375 . S
C2504 C2510 1.404 . S
C2505 C2504 1.375 . S
C2505 C2506 1.369 . S
C2505 H2518 0.950 . S
C2506 C2505 1.369 . S
C2506 C2507 1.392 . S
C2506 H2519 0.951 . S
C2507 C2506 1.392 . S
C2507 C2509 1.384 . S
H2508 C2510 0.949 . S
C2509 C2507 1.384 . S
C2509 C2510 1.385 . S
C2509 H2511 0.950 . S
C2510 C2504 1.404 . S
C2510 H2508 0.949 . S
C2510 C2509 1.385 . S
H2511 C2509 0.950 . S
H2512 C2496 0.951 . S
H2513 C2498 0.951 . S
H2514 C2500 0.951 . S
H2515 C2501 0.950 . S
H2516 C2502 0.950 . S
H2517 C2503 0.950 . S
H2518 C2505 0.950 . S
H2519 C2506 0.951 . S
C2520 C2521 1.386 . S
C2520 C2522 1.383 . S
C2520 H2536 0.951 . S
C2521 C2520 1.386 . S
C2521 C2525 1.383 . S
C2522 C2520 1.383 . S
C2522 C2523 1.402 . S
C2522 H2537 0.951 . S
C2523 C2522 1.402 . S
C2523 C2524 1.375 . S
C2523 C2526 1.481 . S
C2524 C2523 1.375 . S
C2524 C2525 1.367 . S
C2524 H2538 0.951 . S
C2525 C2521 1.383 . S
C2525 C2524 1.367 . S
C2525 H2539 0.950 . S
C2526 C2523 1.481 . S
C2526 C2527 1.297 . S
C2526 H2540 0.950 . S
C2527 C2526 1.297 . S
C2527 C2528 1.479 . S
C2527 H2541 0.950 . S
C2528 C2527 1.479 . S
C2528 C2529 1.375 . S
C2528 C2534 1.404 . S
C2529 C2528 1.375 . S
C2529 C2530 1.369 . S
C2529 H2542 0.950 . S
C2530 C2529 1.369 . S
C2530 C2531 1.392 . S
C2530 H2543 0.951 . S
C2531 C2530 1.392 . S
C2531 C2533 1.384 . S
H2532 C2534 0.949 . S
C2533 C2531 1.384 . S
C2533 C2534 1.385 . S
C2533 H2535 0.950 . S
C2534 C2528 1.404 . S
C2534 H2532 0.949 . S
C2534 C2533 1.385 . S
H2535 C2533 0.950 . S
H2536 C2520 0.951 . S
H2537 C2522 0.951 . S
H2538 C2524 0.951 . S
H2539 C2525 0.950 . S
H2540 C2526 0.950 . S
H2541 C2527 0.950 . S
H2542 C2529 0.950 . S
H2543 C2530 0.951 . S
C2544 C2545 1.386 . S
C2544 C2546 1.383 . S
C2544 H2560 0.951 . S
C2545 C2544 1.386 . S
C2545 C2549 1.383 . S
C2546 C2544 1.383 . S
C2546 C2547 1.402 . S
C2546 H2561 0.951 . S
C2547 C2546 1.402 . S
C2547 C2548 1.375 . S
C2547 C2550 1.481 . S
C2548 C2547 1.375 . S
C2548 C2549 1.367 . S
C2548 H2562 0.951 . S
C2549 C2545 1.383 . S
C2549 C2548 1.367 . S
C2549 H2563 0.950 . S
C2550 C2547 1.481 . S
C2550 C2551 1.297 . S
C2550 H2564 0.950 . S
C2551 C2550 1.297 . S
C2551 C2552 1.479 . S
C2551 H2565 0.950 . S
C2552 C2551 1.479 . S
C2552 C2553 1.375 . S
C2552 C2558 1.404 . S
C2553 C2552 1.375 . S
C2553 C2554 1.369 . S
C2553 H2566 0.950 . S
C2554 C2553 1.369 . S
C2554 C2555 1.392 . S
C2554 H2567 0.951 . S
C2555 C2554 1.392 . S
C2555 C2557 1.384 . S
H2556 C2558 0.949 . S
C2557 C2555 1.384 . S
C2557 C2558 1.385 . S
C2557 H2559 0.950 . S
C2558 C2552 1.404 . S
C2558 H2556 0.949 . S
C2558 C2557 1.385 . S
H2559 C2557 0.950 . S
H2560 C2544 0.951 . S
H2561 C2546 0.951 . S
H2562 C2548 0.951 . S
H2563 C2549 0.950 . S
H2564 C2550 0.950 . S
H2565 C2551 0.950 . S
H2566 C2553 0.950 . S
H2567 C2554 0.951 . S
C2568 C2569 1.386 . S
C2568 C2570 1.383 . S
C2568 H2584 0.951 . S
C2569 C2568 1.386 . S
C2569 C2573 1.383 . S
C2570 C2568 1.383 . S
C2570 C2571 1.402 . S
C2570 H2585 0.951 . S
C2571 C2570 1.402 . S
C2571 C2572 1.375 . S
C2571 C2574 1.481 . S
C2572 C2571 1.375 . S
C2572 C2573 1.367 . S
C2572 H2586 0.951 . S
C2573 C2569 1.383 . S
C2573 C2572 1.367 . S
C2573 H2587 0.950 . S
C2574 C2571 1.481 . S
C2574 C2575 1.297 . S
C2574 H2588 0.950 . S
C2575 C2574 1.297 . S
C2575 C2576 1.479 . S
C2575 H2589 0.950 . S
C2576 C2575 1.479 . S
C2576 C2577 1.375 . S
C2576 C2582 1.404 . S
C2577 C2576 1.375 . S
C2577 C2578 1.369 . S
C2577 H2590 0.950 . S
C2578 C2577 1.369 . S
C2578 C2579 1.392 . S
C2578 H2591 0.951 . S
C2579 C2578 1.392 . S
C2579 C2581 1.384 . S
H2580 C2582 0.949 . S
C2581 C2579 1.384 . S
C2581 C2582 1.385 . S
C2581 H2583 0.950 . S
C2582 C2576 1.404 . S
C2582 H2580 0.949 . S
C2582 C2581 1.385 . S
H2583 C2581 0.950 . S
H2584 C2568 0.951 . S
H2585 C2570 0.951 . S
H2586 C2572 0.951 . S
H2587 C2573 0.950 . S
H2588 C2574 0.950 . S
H2589 C2575 0.950 . S
H2590 C2577 0.950 . S
H2591 C2578 0.951 . S
C2592 C2593 1.386 . S
C2592 C2594 1.383 . S
C2592 H2608 0.951 . S
C2593 C2592 1.386 . S
C2593 C2597 1.383 . S
C2594 C2592 1.383 . S
C2594 C2595 1.402 . S
C2594 H2609 0.951 . S
C2595 C2594 1.402 . S
C2595 C2596 1.375 . S
C2595 C2598 1.481 . S
C2596 C2595 1.375 . S
C2596 C2597 1.367 . S
C2596 H2610 0.951 . S
C2597 C2593 1.383 . S
C2597 C2596 1.367 . S
C2597 H2611 0.950 . S
C2598 C2595 1.481 . S
C2598 C2599 1.297 . S
C2598 H2612 0.950 . S
C2599 C2598 1.297 . S
C2599 C2600 1.479 . S
C2599 H2613 0.950 . S
C2600 C2599 1.479 . S
C2600 C2601 1.375 . S
C2600 C2606 1.404 . S
C2601 C2600 1.375 . S
C2601 C2602 1.369 . S
C2601 H2614 0.950 . S
C2602 C2601 1.369 . S
C2602 C2603 1.392 . S
C2602 H2615 0.951 . S
C2603 C2602 1.392 . S
C2603 C2605 1.384 . S
H2604 C2606 0.949 . S
C2605 C2603 1.384 . S
C2605 C2606 1.385 . S
C2605 H2607 0.950 . S
C2606 C2600 1.404 . S
C2606 H2604 0.949 . S
C2606 C2605 1.385 . S
H2607 C2605 0.950 . S
H2608 C2592 0.951 . S
H2609 C2594 0.951 . S
H2610 C2596 0.951 . S
H2611 C2597 0.950 . S
H2612 C2598 0.950 . S
H2613 C2599 0.950 . S
H2614 C2601 0.950 . S
H2615 C2602 0.951 . S
C2616 C2617 1.386 . S
C2616 C2618 1.383 . S
C2616 H2632 0.951 . S
C2617 C2616 1.386 . S
C2617 C2621 1.383 . S
C2618 C2616 1.383 . S
C2618 C2619 1.402 . S
C2618 H2633 0.951 . S
C2619 C2618 1.402 . S
C2619 C2620 1.375 . S
C2619 C2622 1.481 . S
C2620 C2619 1.375 . S
C2620 C2621 1.367 . S
C2620 H2634 0.951 . S
C2621 C2617 1.383 . S
C2621 C2620 1.367 . S
C2621 H2635 0.950 . S
C2622 C2619 1.481 . S
C2622 C2623 1.297 . S
C2622 H2636 0.950 . S
C2623 C2622 1.297 . S
C2623 C2624 1.479 . S
C2623 H2637 0.950 . S
C2624 C2623 1.479 . S
C2624 C2625 1.375 . S
C2624 C2630 1.404 . S
C2625 C2624 1.375 . S
C2625 C2626 1.369 . S
C2625 H2638 0.950 . S
C2626 C2625 1.369 . S
C2626 C2627 1.392 . S
C2626 H2639 0.951 . S
C2627 C2626 1.392 . S
C2627 C2629 1.384 . S
H2628 C2630 0.949 . S
C2629 C2627 1.384 . S
C2629 C2630 1.385 . S
C2629 H2631 0.950 . S
C2630 C2624 1.404 . S
C2630 H2628 0.949 . S
C2630 C2629 1.385 . S
H2631 C2629 0.950 . S
H2632 C2616 0.951 . S
H2633 C2618 0.951 . S
H2634 C2620 0.951 . S
H2635 C2621 0.950 . S
H2636 C2622 0.950 . S
H2637 C2623 0.950 . S
H2638 C2625 0.950 . S
H2639 C2626 0.951 . S
C2640 C2641 1.386 . S
C2640 C2642 1.383 . S
C2640 H2656 0.951 . S
C2641 C2640 1.386 . S
C2641 C2645 1.383 . S
C2642 C2640 1.383 . S
C2642 C2643 1.402 . S
C2642 H2657 0.951 . S
C2643 C2642 1.402 . S
C2643 C2644 1.375 . S
C2643 C2646 1.481 . S
C2644 C2643 1.375 . S
C2644 C2645 1.367 . S
C2644 H2658 0.919 1_565 S
C2645 C2641 1.383 . S
C2645 C2644 1.367 . S
C2645 H2659 0.950 . S
C2646 C2643 1.481 . S
C2646 C2647 1.297 . S
C2646 H2660 0.950 . S
C2647 C2646 1.297 . S
C2647 C2648 1.479 . S
C2647 H2661 0.950 . S
C2648 C2647 1.479 . S
C2648 C2649 1.375 . S
C2648 C2654 1.404 . S
C2649 C2648 1.375 . S
C2649 C2650 1.369 . S
C2649 H2662 0.950 . S
C2650 C2649 1.369 . S
C2650 C2651 1.392 . S
C2650 H2663 0.951 . S
C2651 C2650 1.392 . S
C2651 C2653 1.388 . S
H2652 C2654 0.949 1_545 S
C2653 C2651 1.388 . S
C2653 C2654 1.384 . S
C2653 H2655 0.947 1_565 S
C2654 C2648 1.404 . S
C2654 H2652 0.949 1_565 S
C2654 C2653 1.384 . S
H2655 C2653 0.947 1_545 S
H2656 C2640 0.951 . S
H2657 C2642 0.951 . S
H2658 C2644 0.919 1_545 S
H2659 C2645 0.950 . S
H2660 C2646 0.950 . S
H2661 C2647 0.950 . S
H2662 C2649 0.950 . S
H2663 C2650 0.951 . S
C2664 C2665 1.386 . S
C2664 C2666 1.383 . S
C2664 H2680 0.951 . S
C2665 C2664 1.386 . S
C2665 C2669 1.383 . S
C2666 C2664 1.383 . S
C2666 C2667 1.402 . S
C2666 H2681 0.951 . S
C2667 C2666 1.402 . S
C2667 C2668 1.375 . S
C2667 C2670 1.481 . S
C2668 C2667 1.375 . S
C2668 C2669 1.367 . S
C2668 H2682 0.951 1_565 S
C2669 C2665 1.383 . S
C2669 C2668 1.367 . S
C2669 H2683 0.950 . S
C2670 C2667 1.481 . S
C2670 C2671 1.297 . S
C2670 H2684 0.950 . S
C2671 C2670 1.297 . S
C2671 C2672 1.479 . S
C2671 H2685 0.950 . S
C2672 C2671 1.479 . S
C2672 C2673 1.375 . S
C2672 C2678 1.404 . S
C2673 C2672 1.375 . S
C2673 C2674 1.369 . S
C2673 H2686 0.950 . S
C2674 C2673 1.369 . S
C2674 C2675 1.392 . S
C2674 H2687 0.951 . S
C2675 C2674 1.392 . S
C2675 C2677 1.384 1_565 S
H2676 C2678 0.949 1_545 S
C2677 C2675 1.384 1_545 S
C2677 C2678 1.385 1_545 S
C2677 H2679 0.950 . S
C2678 C2672 1.404 . S
C2678 H2676 0.949 1_565 S
C2678 C2677 1.385 1_565 S
H2679 C2677 0.950 . S
H2680 C2664 0.951 . S
H2681 C2666 0.951 . S
H2682 C2668 0.951 1_545 S
H2683 C2669 0.950 . S
H2684 C2670 0.950 . S
H2685 C2671 0.950 . S
H2686 C2673 0.950 . S
H2687 C2674 0.951 . S
C2688 C2689 1.386 . S
C2688 C2690 1.383 . S
C2688 H2704 0.951 . S
C2689 C2688 1.386 . S
C2689 C2693 1.383 . S
C2690 C2688 1.383 . S
C2690 C2691 1.402 . S
C2690 H2705 0.951 . S
C2691 C2690 1.402 . S
C2691 C2692 1.375 . S
C2691 C2694 1.481 . S
C2692 C2691 1.375 . S
C2692 C2693 1.367 . S
C2692 H2706 0.951 . S
C2693 C2689 1.383 . S
C2693 C2692 1.367 . S
C2693 H2707 0.950 . S
C2694 C2691 1.481 . S
C2694 C2695 1.297 . S
C2694 H2708 0.950 . S
C2695 C2694 1.297 . S
C2695 C2696 1.479 . S
C2695 H2709 0.950 . S
C2696 C2695 1.479 . S
C2696 C2697 1.375 . S
C2696 C2702 1.404 . S
C2697 C2696 1.375 . S
C2697 C2698 1.369 . S
C2697 H2710 0.950 . S
C2698 C2697 1.369 . S
C2698 C2699 1.392 . S
C2698 H2711 0.951 . S
C2699 C2698 1.392 . S
C2699 C2701 1.384 . S
H2700 C2702 0.949 . S
C2701 C2699 1.384 . S
C2701 C2702 1.385 . S
C2701 H2703 0.938 1_455 S
C2702 C2696 1.404 . S
C2702 H2700 0.949 . S
C2702 C2701 1.385 . S
H2703 C2701 0.938 1_655 S
H2704 C2688 0.951 . S
H2705 C2690 0.951 . S
H2706 C2692 0.951 . S
H2707 C2693 0.950 . S
H2708 C2694 0.950 . S
H2709 C2695 0.950 . S
H2710 C2697 0.950 . S
H2711 C2698 0.951 . S
C2712 C2713 1.386 . S
C2712 C2714 1.383 . S
C2712 H2728 0.951 . S
C2713 C2712 1.386 . S
C2713 C2717 1.383 . S
C2714 C2712 1.383 . S
C2714 C2715 1.402 . S
C2714 H2729 0.951 . S
C2715 C2714 1.402 . S
C2715 C2716 1.375 . S
C2715 C2718 1.481 . S
C2716 C2715 1.375 . S
C2716 C2717 1.367 . S
C2716 H2730 0.951 . S
C2717 C2713 1.383 . S
C2717 C2716 1.367 . S
C2717 H2731 0.950 . S
C2718 C2715 1.481 . S
C2718 C2719 1.297 . S
C2718 H2732 0.950 . S
C2719 C2718 1.297 . S
C2719 C2720 1.479 . S
C2719 H2733 0.950 . S
C2720 C2719 1.479 . S
C2720 C2721 1.375 . S
C2720 C2726 1.404 . S
C2721 C2720 1.375 . S
C2721 C2722 1.369 . S
C2721 H2734 0.950 . S
C2722 C2721 1.369 . S
C2722 C2723 1.392 . S
C2722 H2735 0.951 . S
C2723 C2722 1.392 . S
C2723 C2725 1.384 . S
H2724 C2726 0.949 . S
C2725 C2723 1.384 . S
C2725 C2726 1.385 . S
C2725 H2727 0.950 . S
C2726 C2720 1.404 . S
C2726 H2724 0.949 . S
C2726 C2725 1.385 . S
H2727 C2725 0.950 . S
H2728 C2712 0.951 . S
H2729 C2714 0.951 . S
H2730 C2716 0.951 . S
H2731 C2717 0.950 . S
H2732 C2718 0.950 . S
H2733 C2719 0.950 . S
H2734 C2721 0.950 . S
H2735 C2722 0.951 . S
C2736 C2737 1.386 . S
C2736 C2738 1.383 . S
C2736 H2752 0.951 . S
C2737 C2736 1.386 . S
C2737 C2741 1.383 . S
C2738 C2736 1.383 . S
C2738 C2739 1.402 . S
C2738 H2753 0.951 . S
C2739 C2738 1.402 . S
C2739 C2740 1.375 . S
C2739 C2742 1.481 . S
C2740 C2739 1.375 . S
C2740 C2741 1.367 . S
C2740 H2754 0.951 . S
C2741 C2737 1.383 . S
C2741 C2740 1.367 . S
C2741 H2755 0.950 . S
C2742 C2739 1.481 . S
C2742 C2743 1.297 . S
C2742 H2756 0.950 . S
C2743 C2742 1.297 . S
C2743 C2744 1.479 . S
C2743 H2757 0.950 . S
C2744 C2743 1.479 . S
C2744 C2745 1.375 . S
C2744 C2750 1.404 . S
C2745 C2744 1.375 . S
C2745 C2746 1.369 . S
C2745 H2758 0.950 . S
C2746 C2745 1.369 . S
C2746 C2747 1.392 . S
C2746 H2759 0.951 . S
C2747 C2746 1.392 . S
C2747 C2749 1.384 . S
H2748 C2750 0.949 . S
C2749 C2747 1.384 . S
C2749 C2750 1.385 . S
C2749 H2751 0.950 . S
C2750 C2744 1.404 . S
C2750 H2748 0.949 . S
C2750 C2749 1.385 . S
H2751 C2749 0.950 . S
H2752 C2736 0.951 . S
H2753 C2738 0.951 . S
H2754 C2740 0.951 . S
H2755 C2741 0.950 . S
H2756 C2742 0.950 . S
H2757 C2743 0.950 . S
H2758 C2745 0.950 . S
H2759 C2746 0.951 . S
C2760 C2761 1.386 . S
C2760 C2762 1.383 . S
C2760 H2776 0.951 . S
C2761 C2760 1.386 . S
C2761 C2765 1.383 . S
C2762 C2760 1.383 . S
C2762 C2763 1.402 . S
C2762 H2777 0.951 . S
C2763 C2762 1.402 . S
C2763 C2764 1.375 . S
C2763 C2766 1.481 . S
C2764 C2763 1.375 . S
C2764 C2765 1.367 . S
C2764 H2778 0.951 . S
C2765 C2761 1.383 . S
C2765 C2764 1.367 . S
C2765 H2779 0.950 . S
C2766 C2763 1.481 . S
C2766 C2767 1.297 . S
C2766 H2780 0.950 . S
C2767 C2766 1.297 . S
C2767 C2768 1.479 . S
C2767 H2781 0.950 . S
C2768 C2767 1.479 . S
C2768 C2769 1.375 . S
C2768 C2774 1.404 . S
C2769 C2768 1.375 . S
C2769 C2770 1.369 . S
C2769 H2782 0.950 . S
C2770 C2769 1.369 . S
C2770 C2771 1.392 . S
C2770 H2783 0.951 . S
C2771 C2770 1.392 . S
C2771 C2773 1.384 . S
H2772 C2774 0.949 . S
C2773 C2771 1.384 . S
C2773 C2774 1.385 . S
C2773 H2775 0.950 . S
C2774 C2768 1.404 . S
C2774 H2772 0.949 . S
C2774 C2773 1.385 . S
H2775 C2773 0.950 . S
H2776 C2760 0.951 . S
H2777 C2762 0.951 . S
H2778 C2764 0.951 . S
H2779 C2765 0.950 . S
H2780 C2766 0.950 . S
H2781 C2767 0.950 . S
H2782 C2769 0.950 . S
H2783 C2770 0.951 . S
C2784 C2785 1.386 . S
C2784 C2786 1.383 . S
C2784 H2800 0.951 . S
C2785 C2784 1.386 . S
C2785 C2789 1.383 . S
C2786 C2784 1.383 . S
C2786 C2787 1.402 . S
C2786 H2801 0.951 . S
C2787 C2786 1.402 . S
C2787 C2788 1.375 . S
C2787 C2790 1.481 . S
C2788 C2787 1.375 . S
C2788 C2789 1.367 . S
C2788 H2802 0.951 . S
C2789 C2785 1.383 . S
C2789 C2788 1.367 . S
C2789 H2803 0.950 . S
C2790 C2787 1.481 . S
C2790 C2791 1.297 . S
C2790 H2804 0.950 . S
C2791 C2790 1.297 . S
C2791 C2792 1.479 . S
C2791 H2805 0.950 . S
C2792 C2791 1.479 . S
C2792 C2793 1.375 . S
C2792 C2798 1.404 . S
C2793 C2792 1.375 . S
C2793 C2794 1.369 . S
C2793 H2806 0.950 . S
C2794 C2793 1.369 . S
C2794 C2795 1.392 . S
C2794 H2807 0.951 . S
C2795 C2794 1.392 . S
C2795 C2797 1.384 . S
H2796 C2798 0.949 . S
C2797 C2795 1.384 . S
C2797 C2798 1.385 . S
C2797 H2799 0.950 . S
C2798 C2792 1.404 . S
C2798 H2796 0.949 . S
C2798 C2797 1.385 . S
H2799 C2797 0.950 . S
H2800 C2784 0.951 . S
H2801 C2786 0.951 . S
H2802 C2788 0.951 . S
H2803 C2789 0.950 . S
H2804 C2790 0.950 . S
H2805 C2791 0.950 . S
H2806 C2793 0.950 . S
H2807 C2794 0.951 . S
C2808 C2809 1.386 . S
C2808 C2810 1.383 . S
C2808 H2824 0.951 . S
C2809 C2808 1.386 . S
C2809 C2813 1.383 . S
C2810 C2808 1.383 . S
C2810 C2811 1.402 . S
C2810 H2825 0.951 . S
C2811 C2810 1.402 . S
C2811 C2812 1.375 . S
C2811 C2814 1.481 . S
C2812 C2811 1.375 . S
C2812 C2813 1.367 . S
C2812 H2826 0.951 . S
C2813 C2809 1.383 . S
C2813 C2812 1.367 . S
C2813 H2827 0.950 . S
C2814 C2811 1.481 . S
C2814 C2815 1.297 . S
C2814 H2828 0.950 . S
C2815 C2814 1.297 . S
C2815 C2816 1.479 . S
C2815 H2829 0.950 . S
C2816 C2815 1.479 . S
C2816 C2817 1.406 . S
C2816 C2822 1.404 . S
C2817 C2816 1.406 . S
C2817 C2818 1.349 1_545 S
C2817 H2830 0.940 1_545 S
C2818 C2817 1.349 1_565 S
C2818 C2819 1.392 1_565 S
C2818 H2831 0.951 . S
C2819 C2818 1.392 1_545 S
C2819 C2821 1.384 . S
H2820 C2822 0.949 . S
C2821 C2819 1.384 . S
C2821 C2822 1.385 . S
C2821 H2823 0.950 . S
C2822 C2816 1.404 . S
C2822 H2820 0.949 . S
C2822 C2821 1.385 . S
H2823 C2821 0.950 . S
H2824 C2808 0.951 . S
H2825 C2810 0.951 . S
H2826 C2812 0.951 . S
H2827 C2813 0.950 . S
H2828 C2814 0.950 . S
H2829 C2815 0.950 . S
H2830 C2817 0.940 1_565 S
H2831 C2818 0.951 . S
C2832 C2833 1.386 . S
C2832 C2834 1.383 . S
C2832 H2848 0.951 . S
C2833 C2832 1.386 . S
C2833 C2837 1.383 . S
C2834 C2832 1.383 . S
C2834 C2835 1.402 . S
C2834 H2849 0.951 . S
C2835 C2834 1.402 . S
C2835 C2836 1.375 . S
C2835 C2838 1.481 . S
C2836 C2835 1.375 . S
C2836 C2837 1.367 . S
C2836 H2850 0.951 . S
C2837 C2833 1.383 . S
C2837 C2836 1.367 . S
C2837 H2851 0.950 . S
C2838 C2835 1.481 . S
C2838 C2839 1.297 . S
C2838 H2852 0.950 . S
C2839 C2838 1.297 . S
C2839 C2840 1.479 . S
C2839 H2853 0.950 . S
C2840 C2839 1.479 . S
C2840 C2841 1.375 . S
C2840 C2846 1.404 . S
C2841 C2840 1.375 . S
C2841 C2842 1.369 . S
C2841 H2854 0.920 1_655 S
C2842 C2841 1.369 . S
C2842 C2843 1.392 . S
C2842 H2855 0.951 1_655 S
C2843 C2842 1.392 . S
C2843 C2845 1.384 . S
H2844 C2846 0.949 . S
C2845 C2843 1.384 . S
C2845 C2846 1.385 . S
C2845 H2847 0.950 . S
C2846 C2840 1.404 . S
C2846 H2844 0.949 . S
C2846 C2845 1.385 . S
H2847 C2845 0.950 . S
H2848 C2832 0.951 . S
H2849 C2834 0.951 . S
H2850 C2836 0.951 . S
H2851 C2837 0.950 . S
H2852 C2838 0.950 . S
H2853 C2839 0.950 . S
H2854 C2841 0.920 1_455 S
H2855 C2842 0.951 1_455 S
C2856 C2857 1.386 . S
C2856 C2858 1.383 . S
C2856 H2872 0.951 . S
C2857 C2856 1.386 . S
C2857 C2861 1.383 . S
C2858 C2856 1.383 . S
C2858 C2859 1.402 . S
C2858 H2873 0.951 . S
C2859 C2858 1.402 . S
C2859 C2860 1.375 . S
C2859 C2862 1.481 . S
C2860 C2859 1.375 . S
C2860 C2861 1.367 . S
C2860 H2874 0.951 . S
C2861 C2857 1.383 . S
C2861 C2860 1.367 . S
C2861 H2875 0.950 . S
C2862 C2859 1.481 . S
C2862 C2863 1.297 . S
C2862 H2876 0.950 . S
C2863 C2862 1.297 . S
C2863 C2864 1.479 . S
C2863 H2877 0.950 . S
C2864 C2863 1.479 . S
C2864 C2865 1.375 . S
C2864 C2870 1.404 . S
C2865 C2864 1.375 . S
C2865 C2866 1.369 . S
C2865 H2878 0.950 . S
C2866 C2865 1.369 . S
C2866 C2867 1.392 . S
C2866 H2879 0.951 . S
C2867 C2866 1.392 . S
C2867 C2869 1.384 . S
H2868 C2870 0.949 . S
C2869 C2867 1.384 . S
C2869 C2870 1.385 . S
C2869 H2871 0.950 . S
C2870 C2864 1.404 . S
C2870 H2868 0.949 . S
C2870 C2869 1.385 . S
H2871 C2869 0.950 . S
H2872 C2856 0.951 . S
H2873 C2858 0.951 . S
H2874 C2860 0.951 . S
H2875 C2861 0.950 . S
H2876 C2862 0.950 . S
H2877 C2863 0.950 . S
H2878 C2865 0.950 . S
H2879 C2866 0.951 . S
C2880 C2881 1.386 . S
C2880 C2882 1.383 . S
C2880 H2896 0.951 . S
C2881 C2880 1.386 . S
C2881 C2885 1.383 . S
C2882 C2880 1.383 . S
C2882 C2883 1.402 . S
C2882 H2897 0.951 . S
C2883 C2882 1.402 . S
C2883 C2884 1.375 . S
C2883 C2886 1.481 . S
C2884 C2883 1.375 . S
C2884 C2885 1.367 . S
C2884 H2898 0.951 . S
C2885 C2881 1.383 . S
C2885 C2884 1.367 . S
C2885 H2899 0.950 . S
C2886 C2883 1.481 . S
C2886 C2887 1.297 . S
C2886 H2900 0.950 . S
C2887 C2886 1.297 . S
C2887 C2888 1.479 . S
C2887 H2901 0.950 . S
C2888 C2887 1.479 . S
C2888 C2889 1.375 . S
C2888 C2894 1.404 . S
C2889 C2888 1.375 . S
C2889 C2890 1.369 . S
C2889 H2902 0.950 . S
C2890 C2889 1.369 . S
C2890 C2891 1.392 . S
C2890 H2903 0.951 . S
C2891 C2890 1.392 . S
C2891 C2893 1.384 . S
H2892 C2894 0.949 . S
C2893 C2891 1.384 . S
C2893 C2894 1.385 . S
C2893 H2895 0.950 . S
C2894 C2888 1.404 . S
C2894 H2892 0.949 . S
C2894 C2893 1.385 . S
H2895 C2893 0.950 . S
H2896 C2880 0.951 . S
H2897 C2882 0.951 . S
H2898 C2884 0.951 . S
H2899 C2885 0.950 . S
H2900 C2886 0.950 . S
H2901 C2887 0.950 . S
H2902 C2889 0.950 . S
H2903 C2890 0.951 . S
C2904 C2905 1.386 . S
C2904 C2906 1.383 . S
C2904 H2920 0.951 . S
C2905 C2904 1.386 . S
C2905 C2909 1.383 . S
C2906 C2904 1.383 . S
C2906 C2907 1.402 . S
C2906 H2921 0.951 . S
C2907 C2906 1.402 . S
C2907 C2908 1.375 . S
C2907 C2910 1.481 . S
C2908 C2907 1.375 . S
C2908 C2909 1.367 . S
C2908 H2922 0.951 . S
C2909 C2905 1.383 . S
C2909 C2908 1.367 . S
C2909 H2923 0.950 . S
C2910 C2907 1.481 . S
C2910 C2911 1.297 . S
C2910 H2924 0.950 . S
C2911 C2910 1.297 . S
C2911 C2912 1.479 . S
C2911 H2925 0.950 . S
C2912 C2911 1.479 . S
C2912 C2913 1.375 . S
C2912 C2918 1.404 . S
C2913 C2912 1.375 . S
C2913 C2914 1.369 . S
C2913 H2926 0.950 . S
C2914 C2913 1.369 . S
C2914 C2915 1.392 . S
C2914 H2927 0.951 . S
C2915 C2914 1.392 . S
C2915 C2917 1.384 . S
H2916 C2918 0.949 . S
C2917 C2915 1.384 . S
C2917 C2918 1.385 . S
C2917 H2919 0.950 . S
C2918 C2912 1.404 . S
C2918 H2916 0.949 . S
C2918 C2917 1.385 . S
H2919 C2917 0.950 . S
H2920 C2904 0.951 . S
H2921 C2906 0.951 . S
H2922 C2908 0.951 . S
H2923 C2909 0.950 . S
H2924 C2910 0.950 . S
H2925 C2911 0.950 . S
H2926 C2913 0.950 . S
H2927 C2914 0.951 . S
C2928 C2929 1.386 . S
C2928 C2930 1.383 . S
C2928 H2944 0.951 . S
C2929 C2928 1.386 . S
C2929 C2933 1.383 . S
C2930 C2928 1.383 . S
C2930 C2931 1.402 . S
C2930 H2945 0.951 . S
C2931 C2930 1.402 . S
C2931 C2932 1.375 . S
C2931 C2934 1.481 . S
C2932 C2931 1.375 . S
C2932 C2933 1.367 . S
C2932 H2946 0.951 . S
C2933 C2929 1.383 . S
C2933 C2932 1.367 . S
C2933 H2947 0.950 . S
C2934 C2931 1.481 . S
C2934 C2935 1.297 . S
C2934 H2948 0.950 . S
C2935 C2934 1.297 . S
C2935 C2936 1.479 . S
C2935 H2949 0.950 . S
C2936 C2935 1.479 . S
C2936 C2937 1.375 . S
C2936 C2942 1.404 . S
C2937 C2936 1.375 . S
C2937 C2938 1.369 . S
C2937 H2950 0.950 . S
C2938 C2937 1.369 . S
C2938 C2939 1.392 . S
C2938 H2951 0.951 . S
C2939 C2938 1.392 . S
C2939 C2941 1.384 . S
H2940 C2942 0.949 . S
C2941 C2939 1.384 . S
C2941 C2942 1.385 . S
C2941 H2943 0.950 . S
C2942 C2936 1.404 . S
C2942 H2940 0.949 . S
C2942 C2941 1.385 . S
H2943 C2941 0.950 . S
H2944 C2928 0.951 . S
H2945 C2930 0.951 . S
H2946 C2932 0.951 . S
H2947 C2933 0.950 . S
H2948 C2934 0.950 . S
H2949 C2935 0.950 . S
H2950 C2937 0.950 . S
H2951 C2938 0.951 . S
C2952 C2953 1.386 . S
C2952 C2954 1.383 . S
C2952 H2968 0.951 . S
C2953 C2952 1.386 . S
C2953 C2957 1.383 . S
C2954 C2952 1.383 . S
C2954 C2955 1.402 . S
C2954 H2969 0.951 . S
C2955 C2954 1.402 . S
C2955 C2956 1.375 . S
C2955 C2958 1.481 . S
C2956 C2955 1.375 . S
C2956 C2957 1.367 . S
C2956 H2970 0.951 . S
C2957 C2953 1.383 . S
C2957 C2956 1.367 . S
C2957 H2971 0.950 . S
C2958 C2955 1.481 . S
C2958 C2959 1.297 . S
C2958 H2972 0.950 . S
C2959 C2958 1.297 . S
C2959 C2960 1.479 . S
C2959 H2973 0.950 . S
C2960 C2959 1.479 . S
C2960 C2961 1.375 . S
C2960 C2966 1.404 . S
C2961 C2960 1.375 . S
C2961 C2962 1.369 . S
C2961 H2974 0.950 . S
C2962 C2961 1.369 . S
C2962 C2963 1.392 . S
C2962 H2975 0.951 . S
C2963 C2962 1.392 . S
C2963 C2965 1.384 . S
H2964 C2966 0.949 . S
C2965 C2963 1.384 . S
C2965 C2966 1.385 . S
C2965 H2967 0.950 . S
C2966 C2960 1.404 . S
C2966 H2964 0.949 . S
C2966 C2965 1.385 . S
H2967 C2965 0.950 . S
H2968 C2952 0.951 . S
H2969 C2954 0.951 . S
H2970 C2956 0.951 . S
H2971 C2957 0.950 . S
H2972 C2958 0.950 . S
H2973 C2959 0.950 . S
H2974 C2961 0.950 . S
H2975 C2962 0.951 . S
C2976 C2977 1.386 . S
C2976 C2978 1.383 . S
C2976 H2992 0.951 . S
C2977 C2976 1.386 . S
C2977 C2981 1.383 . S
C2978 C2976 1.383 . S
C2978 C2979 1.402 . S
C2978 H2993 0.951 . S
C2979 C2978 1.402 . S
C2979 C2980 1.375 . S
C2979 C2982 1.481 . S
C2980 C2979 1.375 . S
C2980 C2981 1.367 . S
C2980 H2994 0.951 . S
C2981 C2977 1.383 . S
C2981 C2980 1.367 . S
C2981 H2995 0.950 . S
C2982 C2979 1.481 . S
C2982 C2983 1.297 . S
C2982 H2996 0.950 . S
C2983 C2982 1.297 . S
C2983 C2984 1.479 . S
C2983 H2997 0.950 . S
C2984 C2983 1.479 . S
C2984 C2985 1.375 . S
C2984 C2990 1.404 . S
C2985 C2984 1.375 . S
C2985 C2986 1.369 . S
C2985 H2998 0.950 . S
C2986 C2985 1.369 . S
C2986 C2987 1.392 . S
C2986 H2999 0.951 . S
C2987 C2986 1.392 . S
C2987 C2989 1.384 . S
H2988 C2990 0.949 . S
C2989 C2987 1.384 . S
C2989 C2990 1.385 . S
C2989 H2991 0.950 . S
C2990 C2984 1.404 . S
C2990 H2988 0.949 . S
C2990 C2989 1.385 . S
H2991 C2989 0.950 . S
H2992 C2976 0.951 . S
H2993 C2978 0.951 . S
H2994 C2980 0.951 . S
H2995 C2981 0.950 . S
H2996 C2982 0.950 . S
H2997 C2983 0.950 . S
H2998 C2985 0.950 . S
H2999 C2986 0.951 . S
C3000 C3001 1.386 . S
C3000 C3002 1.383 . S
C3000 H3016 0.951 . S
C3001 C3000 1.386 . S
C3001 C3005 1.383 . S
C3002 C3000 1.383 . S
C3002 C3003 1.402 . S
C3002 H3017 0.951 . S
C3003 C3002 1.402 . S
C3003 C3004 1.375 . S
C3003 C3006 1.481 . S
C3004 C3003 1.375 . S
C3004 C3005 1.367 . S
C3004 H3018 0.951 . S
C3005 C3001 1.383 . S
C3005 C3004 1.367 . S
C3005 H3019 0.950 . S
C3006 C3003 1.481 . S
C3006 C3007 1.297 . S
C3006 H3020 0.950 . S
C3007 C3006 1.297 . S
C3007 C3008 1.479 . S
C3007 H3021 0.950 . S
C3008 C3007 1.479 . S
C3008 C3009 1.375 . S
C3008 C3014 1.404 . S
C3009 C3008 1.375 . S
C3009 C3010 1.369 . S
C3009 H3022 0.950 . S
C3010 C3009 1.369 . S
C3010 C3011 1.392 . S
C3010 H3023 0.951 . S
C3011 C3010 1.392 . S
C3011 C3013 1.384 . S
H3012 C3014 0.949 . S
C3013 C3011 1.384 . S
C3013 C3014 1.385 . S
C3013 H3015 0.950 . S
C3014 C3008 1.404 . S
C3014 H3012 0.949 . S
C3014 C3013 1.385 . S
H3015 C3013 0.950 . S
H3016 C3000 0.951 . S
H3017 C3002 0.951 . S
H3018 C3004 0.951 . S
H3019 C3005 0.950 . S
H3020 C3006 0.950 . S
H3021 C3007 0.950 . S
H3022 C3009 0.950 . S
H3023 C3010 0.951 . S
C3024 C3025 1.386 . S
C3024 C3026 1.383 . S
C3024 H3040 0.951 . S
C3025 C3024 1.386 . S
C3025 C3029 1.383 . S
C3026 C3024 1.383 . S
C3026 C3027 1.402 . S
C3026 H3041 0.951 . S
C3027 C3026 1.402 . S
C3027 C3028 1.375 . S
C3027 C3030 1.481 . S
C3028 C3027 1.375 . S
C3028 C3029 1.367 . S
C3028 H3042 0.951 . S
C3029 C3025 1.383 . S
C3029 C3028 1.367 . S
C3029 H3043 0.950 . S
C3030 C3027 1.481 . S
C3030 C3031 1.297 . S
C3030 H3044 0.950 . S
C3031 C3030 1.297 . S
C3031 C3032 1.479 . S
C3031 H3045 0.950 . S
C3032 C3031 1.479 . S
C3032 C3033 1.375 . S
C3032 C3038 1.404 . S
C3033 C3032 1.375 . S
C3033 C3034 1.369 . S
C3033 H3046 0.950 . S
C3034 C3033 1.369 . S
C3034 C3035 1.392 . S
C3034 H3047 0.951 . S
C3035 C3034 1.392 . S
C3035 C3037 1.371 . S
H3036 C3038 0.972 1_455 S
C3037 C3035 1.371 . S
C3037 C3038 1.433 . S
C3037 H3039 0.924 1_655 S
C3038 C3032 1.404 . S
C3038 H3036 0.972 1_655 S
C3038 C3037 1.433 . S
H3039 C3037 0.924 1_455 S
H3040 C3024 0.951 . S
H3041 C3026 0.951 . S
H3042 C3028 0.951 . S
H3043 C3029 0.950 . S
H3044 C3030 0.950 . S
H3045 C3031 0.950 . S
H3046 C3033 0.950 . S
H3047 C3034 0.951 . S
C3048 C3049 1.386 . S
C3048 C3050 1.383 . S
C3048 H3064 0.951 . S
C3049 C3048 1.386 . S
C3049 C3053 1.383 . S
C3050 C3048 1.383 . S
C3050 C3051 1.402 . S
C3050 H3065 0.951 . S
C3051 C3050 1.402 . S
C3051 C3052 1.375 . S
C3051 C3054 1.481 . S
C3052 C3051 1.375 . S
C3052 C3053 1.367 . S
C3052 H3066 0.951 . S
C3053 C3049 1.383 . S
C3053 C3052 1.367 . S
C3053 H3067 0.950 . S
C3054 C3051 1.481 . S
C3054 C3055 1.297 . S
C3054 H3068 0.950 . S
C3055 C3054 1.297 . S
C3055 C3056 1.479 . S
C3055 H3069 0.950 . S
C3056 C3055 1.479 . S
C3056 C3057 1.375 . S
C3056 C3062 1.404 . S
C3057 C3056 1.375 . S
C3057 C3058 1.369 . S
C3057 H3070 0.950 . S
C3058 C3057 1.369 . S
C3058 C3059 1.392 . S
C3058 H3071 0.951 . S
C3059 C3058 1.392 . S
C3059 C3061 1.384 . S
H3060 C3062 0.949 . S
C3061 C3059 1.384 . S
C3061 C3062 1.385 . S
C3061 H3063 0.950 . S
C3062 C3056 1.404 . S
C3062 H3060 0.949 . S
C3062 C3061 1.385 . S
H3063 C3061 0.950 . S
H3064 C3048 0.951 . S
H3065 C3050 0.951 . S
H3066 C3052 0.951 . S
H3067 C3053 0.950 . S
H3068 C3054 0.950 . S
H3069 C3055 0.950 . S
H3070 C3057 0.950 . S
H3071 C3058 0.951 . S
C3072 C3073 1.386 . S
C3072 C3074 1.383 . S
C3072 H3088 0.951 . S
C3073 C3072 1.386 . S
C3073 C3077 1.383 . S
C3074 C3072 1.383 . S
C3074 C3075 1.402 . S
C3074 H3089 0.951 . S
C3075 C3074 1.402 . S
C3075 C3076 1.375 . S
C3075 C3078 1.481 . S
C3076 C3075 1.375 . S
C3076 C3077 1.367 . S
C3076 H3090 0.951 . S
C3077 C3073 1.383 . S
C3077 C3076 1.367 . S
C3077 H3091 0.950 . S
C3078 C3075 1.481 . S
C3078 C3079 1.297 . S
C3078 H3092 0.950 . S
C3079 C3078 1.297 . S
C3079 C3080 1.479 . S
C3079 H3093 0.950 . S
C3080 C3079 1.479 . S
C3080 C3081 1.375 1_545 S
C3080 C3086 1.404 . S
C3081 C3080 1.375 1_565 S
C3081 C3082 1.369 . S
C3081 H3094 0.950 . S
C3082 C3081 1.369 . S
C3082 C3083 1.392 1_565 S
C3082 H3095 0.951 . S
C3083 C3082 1.392 1_545 S
C3083 C3085 1.384 . S
H3084 C3086 0.949 . S
C3085 C3083 1.384 . S
C3085 C3086 1.385 . S
C3085 H3087 0.950 . S
C3086 C3080 1.404 . S
C3086 H3084 0.949 . S
C3086 C3085 1.385 . S
H3087 C3085 0.950 . S
H3088 C3072 0.951 . S
H3089 C3074 0.951 . S
H3090 C3076 0.951 . S
H3091 C3077 0.950 . S
H3092 C3078 0.950 . S
H3093 C3079 0.950 . S
H3094 C3081 0.950 . S
H3095 C3082 0.951 . S
C1369 C4 1.561 . S
C1379 C857 1.524 . S
C1393 C26 1.599 . S
C1403 C901 1.537 . S
C1427 C981 1.513 . S
C1417 C32 1.486 . S
C1441 C40 1.503 . S
C1451 C1025 1.473 . S
C1465 C12 1.555 . S
C1475 C1105 1.531 . S
C1489 C18 1.570 . S
C1499 C1167 1.497 . S
C1513 C46 1.587 . S
C1523 C1087 1.501 . S
C1547 C1149 1.557 . S
C1537 C68 1.579 . S
C1571 C1043 1.497 . S
C1561 C74 1.507 . S
C1585 C82 1.484 . S
C1595 C963 1.466 . S
C1619 C839 1.556 . S
C1609 C54 1.566 . S
C1633 C60 1.523 . S
C1643 C919 1.569 . S
C1657 C88 1.600 . S
C1667 C1229 1.622 . S
C1681 C110 1.618 . S
C1691 C1273 1.586 . S
C1715 C1353 1.543 . S
C1705 C116 1.564 . S
C1729 C124 1.523 . S
C1739 C299 1.403 . S
C1753 C96 1.585 . S
C1763 C343 1.493 . S
C1777 C102 1.525 . S
C1787 C423 1.523 . S
C1801 C130 1.624 . S
C1811 C361 1.612 . S
C1825 C152 1.638 . S
C1835 C405 1.503 . S
C1859 C281 1.601 . S
C1849 C158 1.570 . S
C1883 C1335 1.519 . S
C1873 C166 1.544 . S
C1907 C1211 1.528 . S
C1897 C138 1.566 . S
C1931 C1291 1.571 . S
C1921 C144 1.549 . S
C1945 C172 1.602 . S
C1955 C485 1.550 . S
C1969 C194 1.618 . S
C1979 C547 1.485 . S
C1993 C200 1.609 . S
C2003 C591 1.555 . S
C2017 C208 1.547 . S
C2027 C653 1.534 . S
C2051 C715 1.560 . S
C2041 C180 1.577 . S
C2075 C795 1.590 . S
C2065 C186 1.561 . S
C2099 C733 1.666 . S
C2089 C214 1.631 . S
C2123 C777 1.533 . S
C2113 C236 1.615 . S
C2137 C242 1.597 . S
C2147 C671 1.552 . S
C2171 C609 1.412 . S
C2161 C250 1.532 . S
C2185 C222 1.571 . S
C2195 C467 1.558 . S
C2219 C529 1.567 . S
C2209 C228 1.559 . S
C2243 C305 1.272 . S
C2233 C5 1.230 . S
C2257 C25 1.340 . S
C2267 C349 1.302 . S
C2291 C429 1.250 . S
C2281 C33 1.218 . S
C2315 C491 1.191 . S
C2305 C39 1.259 1_556 S
C2339 C553 1.184 . S
C2329 C11 1.334 . S
C2363 C597 1.243 . S
C2353 C19 1.178 1_556 S
C2377 C47 1.147 1_556 S
C2387 C615 1.333 . S
C2401 C67 1.319 1_556 S
C2411 C473 1.182 . S
C2425 C75 1.229 . S
C2435 C535 1.288 . S
C2449 C81 1.290 . S
C2459 C367 1.269 . S
C2483 C411 1.186 . S
C2473 C53 1.297 . S
C2497 C61 1.148 . S
C2507 C287 1.280 . S
C2531 C659 1.305 . S
C2521 C89 1.091 . S
C2545 C109 1.355 1_545 S
C2555 C721 1.288 . S
C2569 C117 1.099 . S
C2579 C801 1.315 . S
C2603 C863 1.168 . S
C2593 C123 1.232 . S
C2617 C95 1.325 . S
C2627 C907 1.281 . S
C2641 C103 1.119 . S
C2651 C987 1.138 . S
C2665 C131 1.013 . S
C2675 C969 1.263 . S
C2689 C151 1.301 . S
C2699 C845 1.238 . S
C2723 C925 1.348 . S
C2713 C159 1.077 . S
C2737 C165 1.308 . S
C2747 C739 1.284 . S
C2761 C137 1.356 1_545 S
C2771 C783 1.216 . S
C2795 C677 1.249 . S
C2785 C145 1.203 . S
C2819 C1031 1.312 . S
C2809 C173 1.118 . S
C2833 C193 1.279 . S
C2843 C1111 1.234 . S
C2857 C201 1.174 . S
C2867 C1173 1.282 . S
C2891 C1235 1.153 . S
C2881 C207 1.271 . S
C2915 C1279 1.346 . S
C2905 C179 1.368 1_565 S
C2929 C187 1.121 . S
C2939 C1359 1.358 . S
C2953 C215 1.113 . S
C2963 C1341 1.321 . S
C2977 C235 1.362 1_565 S
C2987 C1217 1.216 . S
C3011 C1297 1.360 . S
C3001 C243 1.135 . S
C3035 C1093 1.202 . S
C3025 C249 1.221 . S
C3059 C1155 1.264 . S
C3049 C221 1.330 . S
C3073 C229 1.134 . S
C3083 C1049 1.162 . S
