# Generated by pormake.
# Topology eea, (3,6)-cn, num edge types: 1
# Building blocks:
#     Node 0, Type 0, BuildingBlock: KAKCAD_clean_linker_0, # of connection points: 3
#     Node 1, Type 0, BuildingBlock: KAKCAD_clean_linker_0, # of connection points: 3
#     Node 2, Type 0, BuildingBlock: KAKCAD_clean_linker_0, # of connection points: 3
#     Node 3, Type 0, BuildingBlock: KAKCAD_clean_linker_0, # of connection points: 3
#     Node 4, Type 0, BuildingBlock: KAKCAD_clean_linker_0, # of connection points: 3
#     Node 5, Type 0, BuildingBlock: KAKCAD_clean_linker_0, # of connection points: 3
#     Node 6, Type 0, BuildingBlock: KAKCAD_clean_linker_0, # of connection points: 3
#     Node 7, Type 0, BuildingBlock: KAKCAD_clean_linker_0, # of connection points: 3
#     Node 8, Type 0, BuildingBlock: KAKCAD_clean_linker_0, # of connection points: 3
#     Node 9, Type 0, BuildingBlock: KAKCAD_clean_linker_0, # of connection points: 3
#     Node 10, Type 0, BuildingBlock: KAKCAD_clean_linker_0, # of connection points: 3
#     Node 11, Type 0, BuildingBlock: KAKCAD_clean_linker_0, # of connection points: 3
#     Node 12, Type 0, BuildingBlock: KAKCAD_clean_linker_0, # of connection points: 3
#     Node 13, Type 0, BuildingBlock: KAKCAD_clean_linker_0, # of connection points: 3
#     Node 14, Type 0, BuildingBlock: KAKCAD_clean_linker_0, # of connection points: 3
#     Node 15, Type 0, BuildingBlock: KAKCAD_clean_linker_0, # of connection points: 3
#     Node 16, Type 0, BuildingBlock: KAKCAD_clean_linker_0, # of connection points: 3
#     Node 17, Type 0, BuildingBlock: KAKCAD_clean_linker_0, # of connection points: 3
#     Node 18, Type 1, BuildingBlock: KUMBUR_clean_sbu_0, # of connection points: 6
#     Node 19, Type 1, BuildingBlock: KUMBUR_clean_sbu_0, # of connection points: 6
#     Node 20, Type 1, BuildingBlock: KUMBUR_clean_sbu_0, # of connection points: 6
#     Node 21, Type 1, BuildingBlock: KUMBUR_clean_sbu_0, # of connection points: 6
#     Node 22, Type 1, BuildingBlock: KUMBUR_clean_sbu_0, # of connection points: 6
#     Node 23, Type 1, BuildingBlock: KUMBUR_clean_sbu_0, # of connection points: 6
#     Node 24, Type 1, BuildingBlock: KUMBUR_clean_sbu_0, # of connection points: 6
#     Node 25, Type 1, BuildingBlock: KUMBUR_clean_sbu_0, # of connection points: 6
#     Node 26, Type 1, BuildingBlock: KUMBUR_clean_sbu_0, # of connection points: 6
#     Edge 27, Type (0, 1), BuildingBlock: KIFKEQ_clean_linker_1, # of connection points: 2
#     Edge 28, Type (0, 1), BuildingBlock: KIFKEQ_clean_linker_1, # of connection points: 2
#     Edge 29, Type (0, 1), BuildingBlock: KIFKEQ_clean_linker_1, # of connection points: 2
#     Edge 30, Type (0, 1), BuildingBlock: KIFKEQ_clean_linker_1, # of connection points: 2
#     Edge 31, Type (0, 1), BuildingBlock: KIFKEQ_clean_linker_1, # of connection points: 2
#     Edge 32, Type (0, 1), BuildingBlock: KIFKEQ_clean_linker_1, # of connection points: 2
#     Edge 33, Type (0, 1), BuildingBlock: KIFKEQ_clean_linker_1, # of connection points: 2
#     Edge 34, Type (0, 1), BuildingBlock: KIFKEQ_clean_linker_1, # of connection points: 2
#     Edge 35, Type (0, 1), BuildingBlock: KIFKEQ_clean_linker_1, # of connection points: 2
#     Edge 36, Type (0, 1), BuildingBlock: KIFKEQ_clean_linker_1, # of connection points: 2
#     Edge 37, Type (0, 1), BuildingBlock: KIFKEQ_clean_linker_1, # of connection points: 2
#     Edge 38, Type (0, 1), BuildingBlock: KIFKEQ_clean_linker_1, # of connection points: 2
#     Edge 39, Type (0, 1), BuildingBlock: KIFKEQ_clean_linker_1, # of connection points: 2
#     Edge 40, Type (0, 1), BuildingBlock: KIFKEQ_clean_linker_1, # of connection points: 2
#     Edge 41, Type (0, 1), BuildingBlock: KIFKEQ_clean_linker_1, # of connection points: 2
#     Edge 42, Type (0, 1), BuildingBlock: KIFKEQ_clean_linker_1, # of connection points: 2
#     Edge 43, Type (0, 1), BuildingBlock: KIFKEQ_clean_linker_1, # of connection points: 2
#     Edge 44, Type (0, 1), BuildingBlock: KIFKEQ_clean_linker_1, # of connection points: 2
#     Edge 45, Type (0, 1), BuildingBlock: KIFKEQ_clean_linker_1, # of connection points: 2
#     Edge 46, Type (0, 1), BuildingBlock: KIFKEQ_clean_linker_1, # of connection points: 2
#     Edge 47, Type (0, 1), BuildingBlock: KIFKEQ_clean_linker_1, # of connection points: 2
#     Edge 48, Type (0, 1), BuildingBlock: KIFKEQ_clean_linker_1, # of connection points: 2
#     Edge 49, Type (0, 1), BuildingBlock: KIFKEQ_clean_linker_1, # of connection points: 2
#     Edge 50, Type (0, 1), BuildingBlock: KIFKEQ_clean_linker_1, # of connection points: 2
#     Edge 51, Type (0, 1), BuildingBlock: KIFKEQ_clean_linker_1, # of connection points: 2
#     Edge 52, Type (0, 1), BuildingBlock: KIFKEQ_clean_linker_1, # of connection points: 2
#     Edge 53, Type (0, 1), BuildingBlock: KIFKEQ_clean_linker_1, # of connection points: 2
#     Edge 54, Type (0, 1), BuildingBlock: KIFKEQ_clean_linker_1, # of connection points: 2
#     Edge 55, Type (0, 1), BuildingBlock: KIFKEQ_clean_linker_1, # of connection points: 2
#     Edge 56, Type (0, 1), BuildingBlock: KIFKEQ_clean_linker_1, # of connection points: 2
#     Edge 57, Type (0, 1), BuildingBlock: KIFKEQ_clean_linker_1, # of connection points: 2
#     Edge 58, Type (0, 1), BuildingBlock: KIFKEQ_clean_linker_1, # of connection points: 2
#     Edge 59, Type (0, 1), BuildingBlock: KIFKEQ_clean_linker_1, # of connection points: 2
#     Edge 60, Type (0, 1), BuildingBlock: KIFKEQ_clean_linker_1, # of connection points: 2
#     Edge 61, Type (0, 1), BuildingBlock: KIFKEQ_clean_linker_1, # of connection points: 2
#     Edge 62, Type (0, 1), BuildingBlock: KIFKEQ_clean_linker_1, # of connection points: 2
#     Edge 63, Type (0, 1), BuildingBlock: KIFKEQ_clean_linker_1, # of connection points: 2
#     Edge 64, Type (0, 1), BuildingBlock: KIFKEQ_clean_linker_1, # of connection points: 2
#     Edge 65, Type (0, 1), BuildingBlock: KIFKEQ_clean_linker_1, # of connection points: 2
#     Edge 66, Type (0, 1), BuildingBlock: KIFKEQ_clean_linker_1, # of connection points: 2
#     Edge 67, Type (0, 1), BuildingBlock: KIFKEQ_clean_linker_1, # of connection points: 2
#     Edge 68, Type (0, 1), BuildingBlock: KIFKEQ_clean_linker_1, # of connection points: 2
#     Edge 69, Type (0, 1), BuildingBlock: KIFKEQ_clean_linker_1, # of connection points: 2
#     Edge 70, Type (0, 1), BuildingBlock: KIFKEQ_clean_linker_1, # of connection points: 2
#     Edge 71, Type (0, 1), BuildingBlock: KIFKEQ_clean_linker_1, # of connection points: 2
#     Edge 72, Type (0, 1), BuildingBlock: KIFKEQ_clean_linker_1, # of connection points: 2
#     Edge 73, Type (0, 1), BuildingBlock: KIFKEQ_clean_linker_1, # of connection points: 2
#     Edge 74, Type (0, 1), BuildingBlock: KIFKEQ_clean_linker_1, # of connection points: 2
#     Edge 75, Type (0, 1), BuildingBlock: KIFKEQ_clean_linker_1, # of connection points: 2
#     Edge 76, Type (0, 1), BuildingBlock: KIFKEQ_clean_linker_1, # of connection points: 2
#     Edge 77, Type (0, 1), BuildingBlock: KIFKEQ_clean_linker_1, # of connection points: 2
#     Edge 78, Type (0, 1), BuildingBlock: KIFKEQ_clean_linker_1, # of connection points: 2
#     Edge 79, Type (0, 1), BuildingBlock: KIFKEQ_clean_linker_1, # of connection points: 2
#     Edge 80, Type (0, 1), BuildingBlock: KIFKEQ_clean_linker_1, # of connection points: 2
# Relax obj value: 0.009
# Max RMSD: 0.095
# Mean RMSD: 0.061
data_MOF--net-eea--node1-KUMBUR_clean_sbu_0--node2-KAKCAD_clean_linker_0--edge1-KIFKEQ_clean_linker_1
_symmetry_space_group_name_H-M    P1
_symmetry_Int_Tables_number       1
_symmetry_cell_setting            triclinic
loop_
_symmetry_equiv_pos_as_xyz
'x, y, z'
_cell_length_a     63.308564
_cell_length_b     64.793796
_cell_length_c     89.153399
_cell_angle_alpha  90.24889
_cell_angle_beta   90.005458
_cell_angle_gamma 120.01148
loop_
_atom_site_label
_atom_site_type_symbol
_atom_site_fract_x
_atom_site_fract_y
_atom_site_fract_z
_atom_type_partial_charge
C0 C 0.27522 0.14875 0.48765 0.0
C1 C 0.29362 0.14322 0.49072 0.0
C2 C 0.26347 0.14317 0.47372 0.0
C3 C 0.26989 0.132 0.4625 0.0
C4 C 0.28854 0.12681 0.46549 0.0
C5 C 0.30023 0.1323 0.47943 0.0
C6 C 0.25675 0.12525 0.44789 0.0
C7 C 0.2502 0.14057 0.44076 0.0
C8 C 0.23709 0.13397 0.42717 0.0
C9 C 0.23058 0.11173 0.42073 0.0
C10 C 0.23742 0.09647 0.42753 0.0
C11 C 0.25043 0.10329 0.44109 0.0
C12 C 0.23121 0.07347 0.42036 0.0
C13 C 0.20729 0.05778 0.41546 0.0
C14 C 0.2493 0.06726 0.41819 0.0
C15 C 0.24365 0.04585 0.41108 0.0
C16 C 0.21972 0.03011 0.40621 0.0
C17 C 0.23045 0.15039 0.41962 0.0
C18 C 0.22315 0.16414 0.42805 0.0
C19 C 0.23145 0.15251 0.40389 0.0
C20 C 0.22526 0.16795 0.39679 0.0
C21 C 0.21822 0.18181 0.40526 0.0
C22 C 0.21723 0.17977 0.42095 0.0
C23 C 0.20156 0.03619 0.40855 0.0
H24 H 0.26989 0.15742 0.49602 0.0
H25 H 0.24903 0.14721 0.47185 0.0
H26 H 0.29415 0.11848 0.45704 0.0
H27 H 0.31413 0.12755 0.48145 0.0
H28 H 0.25584 0.15791 0.44564 0.0
H29 H 0.25505 0.09114 0.44653 0.0
H30 H 0.2203 0.10627 0.41034 0.0
H31 H 0.19301 0.06214 0.41709 0.0
H32 H 0.2679 0.07915 0.42179 0.0
H33 H 0.25793 0.04148 0.40949 0.0
H34 H 0.22175 0.16266 0.44015 0.0
H35 H 0.23742 0.14256 0.39704 0.0
H36 H 0.183 0.0244 0.40483 0.0
H37 H 0.21158 0.19006 0.42774 0.0
H38 H 0.22648 0.16941 0.38468 0.0
C39 C 0.8862 0.15648 0.48264 0.0
C40 C 0.87737 0.13849 0.4936 0.0
C41 C 0.89238 0.15235 0.46831 0.0
C42 C 0.88967 0.13008 0.46454 0.0
C43 C 0.88134 0.11225 0.47554 0.0
C44 C 0.87539 0.11644 0.48991 0.0
C45 C 0.89431 0.12507 0.44897 0.0
C46 C 0.91534 0.14152 0.44121 0.0
C47 C 0.91914 0.13758 0.42611 0.0
C48 C 0.90147 0.11637 0.41904 0.0
C49 C 0.88065 0.09935 0.42677 0.0
C50 C 0.87718 0.10405 0.44169 0.0
C51 C 0.86243 0.07667 0.41932 0.0
C52 C 0.85625 0.0762 0.40411 0.0
C53 C 0.85107 0.0552 0.4274 0.0
C54 C 0.83391 0.03391 0.42053 0.0
C55 C 0.82781 0.03339 0.4053 0.0
C56 C 0.94125 0.15565 0.41772 0.0
C57 C 0.95271 0.18003 0.42148 0.0
C58 C 0.95103 0.14886 0.40573 0.0
C59 C 0.97104 0.16586 0.39756 0.0
C60 C 0.98264 0.19023 0.40143 0.0
C61 C 0.97328 0.19689 0.41371 0.0
C62 C 0.83928 0.05483 0.39718 0.0
H63 H 0.88765 0.17356 0.48495 0.0
H64 H 0.89849 0.16634 0.46002 0.0
H65 H 0.87937 0.09501 0.47301 0.0
H66 H 0.86919 0.10233 0.49811 0.0
H67 H 0.92885 0.1572 0.44716 0.0
H68 H 0.8607 0.09161 0.44756 0.0
H69 H 0.9038 0.11297 0.40745 0.0
H70 H 0.86432 0.09238 0.39755 0.0
H71 H 0.85557 0.05475 0.43907 0.0
H72 H 0.82525 0.0179 0.42724 0.0
H73 H 0.94576 0.18639 0.43037 0.0
H74 H 0.9434 0.13034 0.40256 0.0
H75 H 0.83535 0.05515 0.38539 0.0
H76 H 0.98179 0.21519 0.41752 0.0
H77 H 0.97713 0.15969 0.38812 0.0
C78 C 0.8968 0.75595 0.48731 0.0
C79 C 0.87281 0.73844 0.49102 0.0
C80 C 0.90226 0.76636 0.47302 0.0
C81 C 0.88383 0.75964 0.46212 0.0
C82 C 0.85985 0.74226 0.46591 0.0
C83 C 0.85443 0.73186 0.48013 0.0
C84 C 0.88937 0.77031 0.44677 0.0
C85 C 0.91037 0.77415 0.43904 0.0
C86 C 0.91501 0.783 0.42427 0.0
C87 C 0.89769 0.78729 0.41709 0.0
C88 C 0.87643 0.78363 0.42458 0.0
C89 C 0.87302 0.77579 0.43959 0.0
C90 C 0.85745 0.78731 0.41678 0.0
C91 C 0.8635 0.8036 0.40489 0.0
C92 C 0.83278 0.77426 0.42112 0.0
C93 C 0.81502 0.77771 0.41415 0.0
C94 C 0.82088 0.79357 0.40205 0.0
C95 C 0.93779 0.7874 0.41634 0.0
C96 C 0.95988 0.79603 0.4243 0.0
C97 C 0.93775 0.78291 0.40085 0.0
C98 C 0.95908 0.78673 0.3936 0.0
C99 C 0.98091 0.79483 0.40169 0.0
C100 C 0.98106 0.79953 0.4171 0.0
C101 C 0.8455 0.80641 0.39751 0.0
H102 H 0.91147 0.76134 0.49536 0.0
H103 H 0.92089 0.77981 0.47055 0.0
H104 H 0.84521 0.73638 0.45778 0.0
H105 H 0.83569 0.7187 0.48261 0.0
H106 H 0.92276 0.76948 0.4444 0.0
H107 H 0.85759 0.774 0.44589 0.0
H108 H 0.90083 0.79341 0.40562 0.0
H109 H 0.88218 0.81442 0.40123 0.0
H110 H 0.82683 0.76102 0.42987 0.0
H111 H 0.79665 0.76783 0.41848 0.0
H112 H 0.96091 0.80026 0.43614 0.0
H113 H 0.92113 0.7759 0.39433 0.0
H114 H 0.85108 0.81856 0.38816 0.0
H115 H 0.99767 0.80609 0.4236 0.0
H116 H 0.95832 0.7827 0.38174 0.0
C117 C 0.14338 0.24703 0.53671 0.0
C118 C 0.14057 0.26675 0.53342 0.0
C119 C 0.13797 0.23679 0.55103 0.0
C120 C 0.12935 0.24584 0.56239 0.0
C121 C 0.12627 0.26537 0.55904 0.0
C122 C 0.13188 0.27573 0.54477 0.0
C123 C 0.12377 0.23511 0.5777 0.0
C124 C 0.13973 0.229 0.58482 0.0
C125 C 0.13494 0.2193 0.59938 0.0
C126 C 0.11354 0.21542 0.60672 0.0
C127 C 0.09737 0.22149 0.59986 0.0
C128 C 0.10271 0.23136 0.58537 0.0
C129 C 0.07504 0.21786 0.60785 0.0
C130 C 0.05978 0.19649 0.61544 0.0
C131 C 0.06872 0.23579 0.60782 0.0
C132 C 0.04761 0.2324 0.61507 0.0
C133 C 0.03198 0.21084 0.62243 0.0
C134 C 0.15271 0.21397 0.60704 0.0
C135 C 0.16478 0.20415 0.59903 0.0
C136 C 0.15826 0.21926 0.62236 0.0
C137 C 0.17561 0.21517 0.62941 0.0
C138 C 0.18795 0.20568 0.62134 0.0
C139 C 0.18214 0.20007 0.60607 0.0
C140 C 0.03848 0.19298 0.62259 0.0
H141 H 0.15019 0.23976 0.52828 0.0
H142 H 0.14036 0.22164 0.55318 0.0
H143 H 0.11987 0.27293 0.56753 0.0
H144 H 0.12926 0.29074 0.54261 0.0
H145 H 0.15641 0.23262 0.57919 0.0
H146 H 0.09014 0.2357 0.57991 0.0
H147 H 0.10955 0.20787 0.61788 0.0
H148 H 0.06401 0.18223 0.61557 0.0
H149 H 0.08028 0.25263 0.60231 0.0
H150 H 0.04368 0.24685 0.61498 0.0
H151 H 0.16082 0.19959 0.58727 0.0
H152 H 0.14957 0.22706 0.62889 0.0
H153 H 0.02685 0.17602 0.62793 0.0
H154 H 0.1914 0.19298 0.59943 0.0
H155 H 0.17934 0.21946 0.64121 0.0
C156 C 0.71653 0.84578 0.5428 0.0
C157 C 0.72525 0.86382 0.53191 0.0
C158 C 0.7273 0.85024 0.55702 0.0
C159 C 0.74698 0.87285 0.56068 0.0
C160 C 0.7559 0.89079 0.54973 0.0
C161 C 0.7452 0.88632 0.53551 0.0
C162 C 0.75794 0.87789 0.57593 0.0
C163 C 0.76265 0.86138 0.58318 0.0
C164 C 0.77332 0.86631 0.59752 0.0
C165 C 0.77882 0.88771 0.60473 0.0
C166 C 0.774 0.90426 0.59773 0.0
C167 C 0.76374 0.89933 0.58329 0.0
C168 C 0.77962 0.92664 0.60558 0.0
C169 C 0.77276 0.92616 0.62062 0.0
C170 C 0.79204 0.94861 0.59814 0.0
C171 C 0.79769 0.96974 0.60566 0.0
C172 C 0.7908 0.96925 0.62069 0.0
C173 C 0.77913 0.84935 0.60497 0.0
C174 C 0.7617 0.82501 0.60572 0.0
C175 C 0.80212 0.85756 0.61157 0.0
C176 C 0.8076 0.84175 0.61882 0.0
C177 C 0.79012 0.81738 0.61975 0.0
C178 C 0.76708 0.8092 0.61311 0.0
C179 C 0.7782 0.94725 0.62808 0.0
H180 H 0.70099 0.82835 0.54047 0.0
H181 H 0.71985 0.83614 0.56527 0.0
H182 H 0.77131 0.90828 0.55213 0.0
H183 H 0.75267 0.90048 0.5273 0.0
H184 H 0.75871 0.84501 0.57749 0.0
H185 H 0.75964 0.91193 0.57795 0.0
H186 H 0.78694 0.89153 0.61584 0.0
H187 H 0.763 0.90944 0.62657 0.0
H188 H 0.79767 0.94949 0.58658 0.0
H189 H 0.80723 0.98644 0.59966 0.0
H190 H 0.74374 0.81828 0.60085 0.0
H191 H 0.816 0.87621 0.61098 0.0
H192 H 0.7728 0.94638 0.6397 0.0
H193 H 0.75304 0.79063 0.6138 0.0
H194 H 0.82569 0.84863 0.6235 0.0
C195 C 0.11657 0.85309 0.53674 0.0
C196 C 0.14073 0.85928 0.53335 0.0
C197 C 0.11049 0.85759 0.55102 0.0
C198 C 0.12843 0.86834 0.56225 0.0
C199 C 0.15246 0.87403 0.55893 0.0
C200 C 0.15853 0.86959 0.54468 0.0
C201 C 0.12237 0.87429 0.57723 0.0
C202 C 0.1006 0.85836 0.58461 0.0
C203 C 0.09484 0.86405 0.59875 0.0
C204 C 0.11119 0.88616 0.60539 0.0
C205 C 0.13315 0.90211 0.59828 0.0
C206 C 0.13853 0.89608 0.58422 0.0
C207 C 0.15075 0.92499 0.60561 0.0
C208 C 0.14291 0.93997 0.6118 0.0
C209 C 0.1756 0.93198 0.6064 0.0
C210 C 0.19229 0.95351 0.61325 0.0
C211 C 0.18458 0.96873 0.61934 0.0
C212 C 0.0721 0.84674 0.60675 0.0
C213 C 0.05027 0.83261 0.59879 0.0
C214 C 0.07212 0.84395 0.62241 0.0
C215 C 0.05097 0.82737 0.62988 0.0
C216 C 0.02933 0.81298 0.62186 0.0
C217 C 0.02919 0.81588 0.60625 0.0
C218 C 0.15964 0.96166 0.61851 0.0
H219 H 0.10245 0.84532 0.52824 0.0
H220 H 0.09186 0.8532 0.55314 0.0
H221 H 0.16664 0.88188 0.56739 0.0
H222 H 0.17721 0.87412 0.54256 0.0
H223 H 0.0885 0.84118 0.57952 0.0
H224 H 0.15518 0.9087 0.57857 0.0
H225 H 0.107 0.89093 0.61619 0.0
H226 H 0.12388 0.93512 0.61121 0.0
H227 H 0.1821 0.92061 0.6019 0.0
H228 H 0.2112 0.95803 0.61394 0.0
H229 H 0.04939 0.83454 0.58679 0.0
H230 H 0.08865 0.85418 0.62891 0.0
H231 H 0.15305 0.97304 0.62283 0.0
H232 H 0.0127 0.80525 0.59979 0.0
H233 H 0.05174 0.82533 0.64188 0.0
C234 C 0.94024 0.47943 0.82103 0.0
C235 C 0.95694 0.47193 0.82466 0.0
C236 C 0.93018 0.47564 0.80661 0.0
C237 C 0.93671 0.46435 0.79553 0.0
C238 C 0.9536 0.45707 0.79918 0.0
C239 C 0.96355 0.46076 0.81357 0.0
C240 C 0.92608 0.46012 0.78019 0.0
C241 C 0.92297 0.4776 0.77293 0.0
C242 C 0.91354 0.47386 0.75828 0.0
C243 C 0.90794 0.45261 0.75074 0.0
C244 C 0.91065 0.4347 0.75783 0.0
C245 C 0.91933 0.43858 0.7727 0.0
C246 C 0.90449 0.41206 0.74978 0.0
C247 C 0.88626 0.40261 0.73862 0.0
C248 C 0.91689 0.39969 0.75312 0.0
C249 C 0.91093 0.37835 0.74582 0.0
C250 C 0.89302 0.3691 0.73447 0.0
C251 C 0.90874 0.49172 0.75098 0.0
C252 C 0.89876 0.50329 0.75927 0.0
C253 C 0.91293 0.49649 0.73555 0.0
C254 C 0.90655 0.51182 0.72851 0.0
C255 C 0.89605 0.52297 0.73674 0.0
C256 C 0.89261 0.5188 0.75226 0.0
C257 C 0.88096 0.38175 0.7309 0.0
H258 H 0.93463 0.48788 0.82939 0.0
H259 H 0.91701 0.48121 0.80422 0.0
H260 H 0.95941 0.44875 0.79083 0.0
H261 H 0.97671 0.45517 0.81595 0.0
H262 H 0.92835 0.49436 0.77858 0.0
H263 H 0.92051 0.42466 0.77864 0.0
H264 H 0.90122 0.45 0.73934 0.0
H265 H 0.87581 0.41111 0.73584 0.0
H266 H 0.93142 0.40644 0.76135 0.0
H267 H 0.92036 0.36911 0.74927 0.0
H268 H 0.89508 0.4999 0.77114 0.0
H269 H 0.92096 0.48821 0.72886 0.0
H270 H 0.86742 0.37575 0.72207 0.0
H271 H 0.88503 0.52742 0.75902 0.0
H272 H 0.90932 0.51445 0.71653 0.0
C273 C 0.55036 0.49075 0.81424 0.0
C274 C 0.54068 0.47258 0.82506 0.0
C275 C 0.5567 0.48655 0.79997 0.0
C276 C 0.55349 0.46407 0.79616 0.0
C277 C 0.54423 0.44605 0.80707 0.0
C278 C 0.53792 0.45025 0.82133 0.0
C279 C 0.55925 0.45915 0.7808 0.0
C280 C 0.58037 0.47603 0.77328 0.0
C281 C 0.58592 0.47122 0.75885 0.0
C282 C 0.57009 0.44921 0.75198 0.0
C283 C 0.5486 0.43225 0.75917 0.0
C284 C 0.5434 0.43747 0.77358 0.0
C285 C 0.5313 0.40931 0.75158 0.0
C286 C 0.52687 0.40849 0.73606 0.0
C287 C 0.51865 0.38811 0.75985 0.0
C288 C 0.50176 0.3668 0.75285 0.0
C289 C 0.49724 0.36598 0.73734 0.0
C290 C 0.60805 0.48936 0.75085 0.0
C291 C 0.61369 0.51324 0.75048 0.0
C292 C 0.62349 0.48292 0.74338 0.0
C293 C 0.64425 0.50007 0.73583 0.0
C294 C 0.64997 0.52404 0.73547 0.0
C295 C 0.63428 0.53032 0.74282 0.0
C296 C 0.51019 0.38711 0.72903 0.0
H297 H 0.55246 0.50808 0.81666 0.0
H298 H 0.56354 0.50075 0.79178 0.0
H299 H 0.54195 0.42866 0.80462 0.0
H300 H 0.53098 0.43598 0.82946 0.0
H301 H 0.59281 0.49273 0.77877 0.0
H302 H 0.52657 0.42489 0.77906 0.0
H303 H 0.57444 0.44544 0.74092 0.0
H304 H 0.53598 0.42446 0.72933 0.0
H305 H 0.5218 0.38791 0.77177 0.0
H306 H 0.49198 0.35104 0.7597 0.0
H307 H 0.60192 0.51867 0.75591 0.0
H308 H 0.61972 0.46467 0.74359 0.0
H309 H 0.50754 0.38719 0.71704 0.0
H310 H 0.63772 0.54845 0.74253 0.0
H311 H 0.65603 0.49459 0.73051 0.0
C312 C 0.5616 0.08835 0.81941 0.0
C313 C 0.53763 0.07094 0.82321 0.0
C314 C 0.56713 0.09799 0.80493 0.0
C315 C 0.54886 0.09042 0.79384 0.0
C316 C 0.52496 0.07283 0.79762 0.0
C317 C 0.51943 0.06326 0.81209 0.0
C318 C 0.55459 0.10099 0.77846 0.0
C319 C 0.57647 0.10611 0.77124 0.0
C320 C 0.58212 0.11623 0.75678 0.0
C321 C 0.56533 0.12119 0.74956 0.0
C322 C 0.54315 0.11578 0.75644 0.0
C323 C 0.53805 0.10583 0.77088 0.0
C324 C 0.52498 0.12006 0.7485 0.0
C325 C 0.53204 0.1419 0.74138 0.0
C326 C 0.50025 0.10224 0.74811 0.0
C327 C 0.48299 0.10611 0.74079 0.0
C328 C 0.48995 0.12802 0.73381 0.0
C329 C 0.60523 0.12102 0.74915 0.0
C330 C 0.62689 0.12876 0.75743 0.0
C331 C 0.60578 0.11738 0.73358 0.0
C332 C 0.62722 0.12107 0.72658 0.0
C333 C 0.64862 0.12822 0.73496 0.0
C334 C 0.64821 0.13218 0.75045 0.0
C335 C 0.51468 0.1459 0.73422 0.0
H336 H 0.57603 0.09489 0.82771 0.0
H337 H 0.58567 0.11172 0.80251 0.0
H338 H 0.51049 0.06619 0.78934 0.0
H339 H 0.50087 0.04956 0.8145 0.0
H340 H 0.58879 0.10151 0.77676 0.0
H341 H 0.52129 0.10229 0.77635 0.0
H342 H 0.56935 0.12905 0.73849 0.0
H343 H 0.55094 0.15601 0.74155 0.0
H344 H 0.49425 0.08517 0.75339 0.0
H345 H 0.46407 0.09205 0.7408 0.0
H346 H 0.62745 0.13228 0.76935 0.0
H347 H 0.58948 0.11107 0.72682 0.0
H348 H 0.52064 0.16292 0.72889 0.0
H349 H 0.66448 0.13805 0.75719 0.0
H350 H 0.62685 0.11763 0.71465 0.0
C351 C 0.81172 0.57861 0.87062 0.0
C352 C 0.80737 0.59708 0.86644 0.0
C353 C 0.80636 0.56915 0.88513 0.0
C354 C 0.79647 0.57787 0.89589 0.0
C355 C 0.7918 0.59612 0.89166 0.0
C356 C 0.79718 0.6056 0.87714 0.0
C357 C 0.79137 0.56816 0.91148 0.0
C358 C 0.80786 0.56301 0.91885 0.0
C359 C 0.80336 0.55376 0.93351 0.0
C360 C 0.78182 0.54956 0.94079 0.0
C361 C 0.76517 0.55478 0.93372 0.0
C362 C 0.77014 0.56412 0.91909 0.0
C363 C 0.74263 0.55065 0.94165 0.0
C364 C 0.72776 0.52914 0.94921 0.0
C365 C 0.73585 0.56827 0.94171 0.0
C366 C 0.71482 0.56454 0.94923 0.0
C367 C 0.69983 0.54298 0.95671 0.0
C368 C 0.82141 0.54895 0.94125 0.0
C369 C 0.83354 0.5391 0.93334 0.0
C370 C 0.82708 0.55462 0.95653 0.0
C371 C 0.8446 0.55081 0.96362 0.0
C372 C 0.85693 0.54122 0.95566 0.0
C373 C 0.85104 0.53531 0.94043 0.0
C374 C 0.7065 0.52527 0.95656 0.0
H375 H 0.81912 0.57127 0.86263 0.0
H376 H 0.80979 0.55482 0.88787 0.0
H377 H 0.78449 0.6035 0.89968 0.0
H378 H 0.7939 0.62003 0.87443 0.0
H379 H 0.82467 0.56691 0.9133 0.0
H380 H 0.75712 0.56769 0.91348 0.0
H381 H 0.77804 0.54234 0.95204 0.0
H382 H 0.7324 0.51516 0.94929 0.0
H383 H 0.747 0.58508 0.93607 0.0
H384 H 0.71008 0.57846 0.94901 0.0
H385 H 0.82948 0.53425 0.92162 0.0
H386 H 0.81833 0.56244 0.96296 0.0
H387 H 0.69542 0.50852 0.96228 0.0
H388 H 0.8603 0.52815 0.93385 0.0
H389 H 0.84841 0.55534 0.9754 0.0
C390 C 0.38358 0.17906 0.87534 0.0
C391 C 0.39156 0.19694 0.86436 0.0
C392 C 0.39504 0.18385 0.88937 0.0
C393 C 0.41466 0.20665 0.89273 0.0
C394 C 0.42283 0.22441 0.8817 0.0
C395 C 0.41146 0.21961 0.86768 0.0
C396 C 0.42653 0.21208 0.90771 0.0
C397 C 0.43228 0.19608 0.91466 0.0
C398 C 0.44428 0.20165 0.92859 0.0
C399 C 0.45039 0.22337 0.93563 0.0
C400 C 0.4443 0.23937 0.92904 0.0
C401 C 0.43237 0.23352 0.91506 0.0
C402 C 0.45018 0.26203 0.93678 0.0
C403 C 0.44816 0.26282 0.95247 0.0
C404 C 0.45771 0.28305 0.92854 0.0
C405 C 0.46279 0.30421 0.93578 0.0
C406 C 0.46079 0.30491 0.95144 0.0
C407 C 0.45042 0.18481 0.93588 0.0
C408 C 0.43282 0.16057 0.9371 0.0
C409 C 0.47376 0.19296 0.94196 0.0
C410 C 0.4794 0.17719 0.94913 0.0
C411 C 0.46174 0.15294 0.95052 0.0
C412 C 0.43837 0.14483 0.94441 0.0
C413 C 0.45357 0.28407 0.95973 0.0
H414 H 0.36812 0.16149 0.87323 0.0
H415 H 0.3882 0.16987 0.89769 0.0
H416 H 0.43819 0.24203 0.88386 0.0
H417 H 0.41841 0.23365 0.85939 0.0
H418 H 0.42805 0.17958 0.90903 0.0
H419 H 0.42706 0.24543 0.90999 0.0
H420 H 0.45982 0.22771 0.94632 0.0
H421 H 0.44198 0.24692 0.95917 0.0
H422 H 0.45993 0.28326 0.91649 0.0
H423 H 0.4686 0.32013 0.92916 0.0
H424 H 0.41459 0.15389 0.93268 0.0
H425 H 0.48776 0.21153 0.94101 0.0
H426 H 0.45164 0.28411 0.9718 0.0
H427 H 0.42418 0.12638 0.94548 0.0
H428 H 0.49771 0.184 0.95343 0.0
C429 C 0.78388 0.18925 0.8697 0.0
C430 C 0.80825 0.19653 0.86611 0.0
C431 C 0.77766 0.19307 0.88414 0.0
C432 C 0.79567 0.20418 0.89529 0.0
C433 C 0.81992 0.21089 0.89175 0.0
C434 C 0.82612 0.20716 0.87736 0.0
C435 C 0.78955 0.20939 0.91048 0.0
C436 C 0.76827 0.1927 0.918 0.0
C437 C 0.76299 0.19749 0.93254 0.0
C438 C 0.77926 0.21936 0.93945 0.0
C439 C 0.80058 0.23624 0.93213 0.0
C440 C 0.80541 0.23114 0.91763 0.0
C441 C 0.81807 0.25904 0.93969 0.0
C442 C 0.80973 0.27196 0.94809 0.0
C443 C 0.84334 0.26802 0.93857 0.0
C444 C 0.85987 0.2894 0.94563 0.0
C445 C 0.85156 0.30236 0.95402 0.0
C446 C 0.74078 0.17958 0.94066 0.0
C447 C 0.7183 0.16658 0.93317 0.0
C448 C 0.74187 0.1755 0.95606 0.0
C449 C 0.72101 0.15897 0.96378 0.0
C450 C 0.69851 0.14602 0.95631 0.0
C451 C 0.69743 0.15003 0.94089 0.0
C452 C 0.82628 0.29337 0.95516 0.0
H453 H 0.7697 0.18114 0.86126 0.0
H454 H 0.75884 0.18785 0.88644 0.0
H455 H 0.83418 0.21898 0.90014 0.0
H456 H 0.84497 0.21249 0.87508 0.0
H457 H 0.75622 0.17566 0.91274 0.0
H458 H 0.82147 0.24439 0.91177 0.0
H459 H 0.77542 0.22319 0.95064 0.0
H460 H 0.7904 0.26566 0.94908 0.0
H461 H 0.8504 0.25839 0.93234 0.0
H462 H 0.8792 0.29591 0.94436 0.0
H463 H 0.71676 0.1694 0.92135 0.0
H464 H 0.75893 0.18495 0.96216 0.0
H465 H 0.81924 0.30277 0.96165 0.0
H466 H 0.68048 0.14015 0.93472 0.0
H467 H 0.72251 0.15652 0.97566 0.0
C468 C 0.60532 0.81368 0.1552 0.0
C469 C 0.62319 0.80747 0.15836 0.0
C470 C 0.594 0.80871 0.14114 0.0
C471 C 0.60037 0.7975 0.12991 0.0
C472 C 0.61848 0.79161 0.13303 0.0
C473 C 0.62972 0.79649 0.1471 0.0
C474 C 0.58798 0.79165 0.11505 0.0
C475 C 0.58277 0.80785 0.10783 0.0
C476 C 0.57112 0.80238 0.09376 0.0
C477 C 0.56479 0.78045 0.08692 0.0
C478 C 0.57001 0.76412 0.0939 0.0
C479 C 0.58143 0.76981 0.10801 0.0
C480 C 0.56392 0.74133 0.08632 0.0
C481 C 0.54182 0.72816 0.07845 0.0
C482 C 0.58044 0.73282 0.08665 0.0
C483 C 0.57506 0.71172 0.07923 0.0
C484 C 0.55308 0.69866 0.07124 0.0
C485 C 0.56559 0.81953 0.08613 0.0
C486 C 0.55728 0.83262 0.09436 0.0
C487 C 0.56819 0.82263 0.0705 0.0
C488 C 0.56221 0.83809 0.06325 0.0
C489 C 0.55375 0.85108 0.07146 0.0
C490 C 0.55152 0.84827 0.08712 0.0
C491 C 0.53649 0.70709 0.07098 0.0
H492 H 0.59971 0.82192 0.16371 0.0
H493 H 0.57991 0.81321 0.13916 0.0
H494 H 0.62416 0.78338 0.12455 0.0
H495 H 0.64372 0.79187 0.1491 0.0
H496 H 0.58839 0.825 0.11299 0.0
H497 H 0.58481 0.75697 0.11366 0.0
H498 H 0.55585 0.77608 0.07607 0.0
H499 H 0.52858 0.73407 0.07811 0.0
H500 H 0.59773 0.74265 0.09247 0.0
H501 H 0.5881 0.70557 0.07985 0.0
H502 H 0.55485 0.83053 0.10639 0.0
H503 H 0.57491 0.81314 0.06382 0.0
H504 H 0.51949 0.69759 0.06482 0.0
H505 H 0.54543 0.85825 0.09384 0.0
H506 H 0.56392 0.83958 0.05117 0.0
C507 C 0.21885 0.82341 0.14804 0.0
C508 C 0.20926 0.80512 0.15879 0.0
C509 C 0.22515 0.81938 0.13371 0.0
C510 C 0.22199 0.79697 0.12977 0.0
C511 C 0.21286 0.77885 0.14062 0.0
C512 C 0.20659 0.78287 0.15493 0.0
C513 C 0.22765 0.79221 0.11434 0.0
C514 C 0.24867 0.80921 0.10679 0.0
C515 C 0.25413 0.80453 0.09231 0.0
C516 C 0.23832 0.78255 0.0854 0.0
C517 C 0.21692 0.76548 0.09261 0.0
C518 C 0.2118 0.77057 0.10708 0.0
C519 C 0.1996 0.74259 0.08497 0.0
C520 C 0.1952 0.74187 0.06945 0.0
C521 C 0.18695 0.72133 0.09318 0.0
C522 C 0.17006 0.70007 0.08613 0.0
C523 C 0.16558 0.69934 0.07062 0.0
C524 C 0.27612 0.82278 0.08425 0.0
C525 C 0.28154 0.8466 0.08389 0.0
C526 C 0.29157 0.8165 0.07667 0.0
C527 C 0.31212 0.83372 0.06899 0.0
C528 C 0.3176 0.85761 0.0686 0.0
C529 C 0.30192 0.86376 0.0761 0.0
C530 C 0.17855 0.72052 0.06237 0.0
H531 H 0.22088 0.84068 0.15056 0.0
H532 H 0.23189 0.83365 0.12558 0.0
H533 H 0.21064 0.76151 0.13806 0.0
H534 H 0.19971 0.76852 0.163 0.0
H535 H 0.26111 0.8259 0.1123 0.0
H536 H 0.19503 0.75792 0.11259 0.0
H537 H 0.24262 0.77889 0.07429 0.0
H538 H 0.2043 0.75787 0.06275 0.0
H539 H 0.19007 0.72104 0.1051 0.0
H540 H 0.16026 0.68427 0.09295 0.0
H541 H 0.26975 0.85191 0.08941 0.0
H542 H 0.28797 0.7983 0.07687 0.0
H543 H 0.17596 0.72068 0.05038 0.0
H544 H 0.30517 0.88182 0.07581 0.0
H545 H 0.32393 0.82834 0.06357 0.0
C546 C 0.23018 0.42193 0.15315 0.0
C547 C 0.20618 0.40465 0.157 0.0
C548 C 0.23571 0.43152 0.13866 0.0
C549 C 0.21741 0.42403 0.1276 0.0
C550 C 0.1935 0.40647 0.13141 0.0
C551 C 0.18797 0.39697 0.14589 0.0
C552 C 0.22302 0.43468 0.11223 0.0
C553 C 0.24484 0.4399 0.10489 0.0
C554 C 0.25025 0.45 0.09042 0.0
C555 C 0.23327 0.45482 0.0833 0.0
C556 C 0.21115 0.44931 0.09031 0.0
C557 C 0.20635 0.43946 0.10478 0.0
C558 C 0.19266 0.4533 0.0825 0.0
C559 C 0.19934 0.47483 0.0751 0.0
C560 C 0.16794 0.4355 0.08263 0.0
C561 C 0.15027 0.43923 0.07576 0.0
C562 C 0.15674 0.46098 0.06868 0.0
C563 C 0.27331 0.45492 0.08264 0.0
C564 C 0.29506 0.46264 0.0908 0.0
C565 C 0.27371 0.45145 0.06704 0.0
C566 C 0.2951 0.4553 0.05989 0.0
C567 C 0.31659 0.46243 0.06815 0.0
C568 C 0.31634 0.4662 0.08368 0.0
C569 C 0.18159 0.47867 0.06832 0.0
H570 H 0.24463 0.42844 0.16145 0.0
H571 H 0.25426 0.4452 0.13621 0.0
H572 H 0.179 0.39984 0.12315 0.0
H573 H 0.16939 0.38334 0.14832 0.0
H574 H 0.25728 0.43537 0.11032 0.0
H575 H 0.18968 0.43592 0.11037 0.0
H576 H 0.23708 0.46264 0.07222 0.0
H577 H 0.21823 0.48895 0.07488 0.0
H578 H 0.16223 0.41854 0.08799 0.0
H579 H 0.13149 0.4249 0.07596 0.0
H580 H 0.29575 0.46604 0.10274 0.0
H581 H 0.25732 0.44514 0.06036 0.0
H582 H 0.18732 0.49573 0.06313 0.0
H583 H 0.33269 0.47203 0.09033 0.0
H584 H 0.29462 0.452 0.04793 0.0
C585 C 0.47475 0.91 0.20231 0.0
C586 C 0.47131 0.92924 0.1987 0.0
C587 C 0.46927 0.89999 0.21669 0.0
C588 C 0.45991 0.90878 0.22776 0.0
C589 C 0.45597 0.92766 0.22404 0.0
C590 C 0.4617 0.93783 0.20973 0.0
C591 C 0.45496 0.89886 0.24328 0.0
C592 C 0.47203 0.89472 0.25073 0.0
C593 C 0.46818 0.88636 0.2656 0.0
C594 C 0.44692 0.88261 0.27309 0.0
C595 C 0.42934 0.88651 0.26588 0.0
C596 C 0.43357 0.89431 0.25084 0.0
C597 C 0.40687 0.88287 0.27403 0.0
C598 C 0.39652 0.86634 0.28582 0.0
C599 C 0.39556 0.89611 0.27015 0.0
C600 C 0.37458 0.89271 0.27756 0.0
C601 C 0.36451 0.87659 0.28958 0.0
C602 C 0.4866 0.88192 0.27329 0.0
C603 C 0.49935 0.87287 0.26519 0.0
C604 C 0.49189 0.88689 0.28869 0.0
C605 C 0.50952 0.88315 0.2957 0.0
C606 C 0.52257 0.87466 0.28746 0.0
C607 C 0.51719 0.86947 0.27215 0.0
C608 C 0.37598 0.86353 0.29359 0.0
H609 H 0.48226 0.90306 0.19412 0.0
H610 H 0.47235 0.88536 0.21916 0.0
H611 H 0.44898 0.93499 0.23231 0.0
H612 H 0.45862 0.95248 0.20729 0.0
H613 H 0.48879 0.89879 0.24505 0.0
H614 H 0.42009 0.89663 0.24479 0.0
H615 H 0.44417 0.8767 0.28461 0.0
H616 H 0.40409 0.85532 0.2891 0.0
H617 H 0.40294 0.90944 0.26144 0.0
H618 H 0.36628 0.90279 0.27365 0.0
H619 H 0.4955 0.86827 0.25343 0.0
H620 H 0.48285 0.89423 0.2953 0.0
H621 H 0.36935 0.85117 0.30286 0.0
H622 H 0.52671 0.8626 0.26555 0.0
H623 H 0.51343 0.88753 0.30749 0.0
C624 C 0.05938 0.51466 0.20671 0.0
C625 C 0.06744 0.53288 0.19596 0.0
C626 C 0.0702 0.51921 0.2209 0.0
C627 C 0.08922 0.5421 0.2247 0.0
C628 C 0.09769 0.56018 0.21387 0.0
C629 C 0.08697 0.5556 0.19965 0.0
C630 C 0.09925 0.54733 0.24018 0.0
C631 C 0.10455 0.53144 0.24769 0.0
C632 C 0.11237 0.53538 0.26277 0.0
C633 C 0.11495 0.55578 0.27015 0.0
C634 C 0.11069 0.57231 0.2626 0.0
C635 C 0.10273 0.56791 0.24765 0.0
C636 C 0.11497 0.59443 0.27026 0.0
C637 C 0.10648 0.59371 0.28492 0.0
C638 C 0.12812 0.61652 0.26303 0.0
C639 C 0.13298 0.63752 0.27038 0.0
C640 C 0.12463 0.63684 0.28507 0.0
C641 C 0.11796 0.5184 0.27076 0.0
C642 C 0.10574 0.49401 0.26702 0.0
C643 C 0.13559 0.52642 0.28227 0.0
C644 C 0.14042 0.51053 0.28999 0.0
C645 C 0.1285 0.48619 0.28609 0.0
C646 C 0.11124 0.47826 0.27436 0.0
C647 C 0.11118 0.61471 0.29223 0.0
H648 H 0.04418 0.49705 0.20433 0.0
H649 H 0.06308 0.505 0.22908 0.0
H650 H 0.11256 0.57791 0.21643 0.0
H651 H 0.09395 0.56992 0.19155 0.0
H652 H 0.10292 0.51622 0.24159 0.0
H653 H 0.09855 0.5802 0.24197 0.0
H654 H 0.12048 0.55908 0.28181 0.0
H655 H 0.09613 0.5769 0.29071 0.0
H656 H 0.13504 0.61761 0.25177 0.0
H657 H 0.14316 0.65429 0.26453 0.0
H658 H 0.09171 0.48684 0.25846 0.0
H659 H 0.14595 0.54507 0.28535 0.0
H660 H 0.10465 0.61368 0.30359 0.0
H661 H 0.10194 0.45987 0.27067 0.0
H662 H 0.15346 0.51751 0.2991 0.0
C663 C 0.44986 0.5216 0.20329 0.0
C664 C 0.47422 0.52882 0.19968 0.0
C665 C 0.44368 0.52546 0.21771 0.0
C666 C 0.46172 0.53658 0.22885 0.0
C667 C 0.48594 0.5432 0.22532 0.0
C668 C 0.4921 0.53941 0.21093 0.0
C669 C 0.4556 0.54205 0.24396 0.0
C670 C 0.43425 0.52555 0.25148 0.0
C671 C 0.42854 0.53081 0.26578 0.0
C672 C 0.44451 0.55305 0.27242 0.0
C673 C 0.46606 0.56955 0.26516 0.0
C674 C 0.47137 0.56397 0.25094 0.0
C675 C 0.48341 0.59253 0.27248 0.0
C676 C 0.4752 0.60707 0.27893 0.0
C677 C 0.50842 0.60012 0.27294 0.0
C678 C 0.52492 0.6218 0.27969 0.0
C679 C 0.51687 0.63662 0.28599 0.0
C680 C 0.40629 0.5129 0.27393 0.0
C681 C 0.38442 0.49818 0.26615 0.0
C682 C 0.4068 0.51015 0.28957 0.0
C683 C 0.38608 0.49311 0.29719 0.0
C684 C 0.36442 0.47819 0.28935 0.0
C685 C 0.3638 0.48098 0.27375 0.0
C686 C 0.49176 0.62893 0.28553 0.0
H687 H 0.43567 0.51354 0.19485 0.0
H688 H 0.42489 0.52034 0.22001 0.0
H689 H 0.50022 0.55132 0.2337 0.0
H690 H 0.51094 0.5447 0.20864 0.0
H691 H 0.42249 0.5083 0.24639 0.0
H692 H 0.48768 0.57701 0.24518 0.0
H693 H 0.44036 0.5575 0.28334 0.0
H694 H 0.45604 0.60174 0.2786 0.0
H695 H 0.5152 0.5891 0.26824 0.0
H696 H 0.54399 0.62679 0.2801 0.0
H697 H 0.38315 0.50003 0.25417 0.0
H698 H 0.42338 0.52081 0.29594 0.0
H699 H 0.48488 0.63997 0.29004 0.0
H700 H 0.34725 0.46995 0.26742 0.0
H701 H 0.38722 0.49118 0.30918 0.0
Tb702 Tb 0.49587 0.9849 0.99375 0.0
C703 C 0.55227 0.07315 0.03421 0.0
C704 C 0.59395 0.08191 0.03189 0.0
C705 C 0.58549 0.11395 0.03699 0.0
C706 C 0.56867 0.06556 0.03157 0.0
C707 C 0.56041 0.09729 0.03747 0.0
C708 C 0.60226 0.10626 0.03416 0.0
C709 C 0.51876 0.08604 0.04327 0.0
N710 N 0.52832 0.05642 0.03479 0.0
C711 C 0.51166 0.0623 0.03996 0.0
C712 C 0.54319 0.1037 0.04174 0.0
Tb713 Tb 0.51807 0.01807 0.02888 0.0
N714 N 0.55982 0.04186 0.02972 0.0
C715 C 0.57553 0.03312 0.02943 0.0
C716 C 0.61007 0.07316 0.0305 0.0
C717 C 0.6008 0.04861 0.02955 0.0
H718 H 0.49271 0.04879 0.04111 0.0
H719 H 0.61309 0.04158 0.02885 0.0
H720 H 0.6216 0.11915 0.03428 0.0
H721 H 0.50538 0.09069 0.04696 0.0
H722 H 0.56885 0.01425 0.0286 0.0
H723 H 0.40094 0.96173 0.99396 0.0
H724 H 0.62963 0.08511 0.03064 0.0
H725 H 0.52092 0.95395 0.98147 0.0
H726 H 0.44522 0.98895 0.99401 0.0
H727 H 0.50807 0.91194 0.97577 0.0
H728 H 0.59213 0.13264 0.03927 0.0
H729 H 0.38425 0.91815 0.99238 0.0
H730 H 0.39209 0.88397 0.98887 0.0
H731 H 0.54868 0.12205 0.04438 0.0
H732 H 0.4214 0.87029 0.98384 0.0
N733 N 0.4541 0.96123 0.993 0.0
C734 C 0.43845 0.97005 0.99327 0.0
C735 C 0.40382 0.93005 0.99243 0.0
C736 C 0.41985 0.92121 0.99105 0.0
C737 C 0.41318 0.95463 0.99326 0.0
C738 C 0.44515 0.93749 0.99126 0.0
H739 H 0.46477 0.8807 0.97858 0.0
N740 N 0.48541 0.94647 0.98791 0.0
C741 C 0.49477 0.91668 0.97949 0.0
C742 C 0.46146 0.9298 0.98861 0.0
C743 C 0.50197 0.94048 0.9827 0.0
C744 C 0.47033 0.89909 0.98114 0.0
C745 C 0.45321 0.90562 0.98544 0.0
O746 O 0.51412 0.9906 0.97306 0.0
O747 O 0.52526 0.01414 1.00571 0.0
O748 O 0.51393 0.04201 0.01345 0.0
O749 O 0.48842 0.01463 0.99519 0.0
O750 O 0.53441 0.99567 0.99109 0.0
O751 O 0.4831 0.99544 0.97515 0.0
O752 O 0.49937 0.01172 0.04944 0.0
O753 O 0.48866 0.98877 0.01693 0.0
O754 O 0.5002 0.96108 0.00916 0.0
O755 O 0.52571 0.98847 0.0274 0.0
O756 O 0.47962 0.0076 0.03134 0.0
O757 O 0.531 0.00788 0.04758 0.0
C758 C 0.54326 0.01368 1.00005 0.0
C759 C 0.49027 0.98421 0.95129 0.0
C760 C 0.48929 0.98742 0.92393 0.0
C761 C 0.49801 0.99804 0.93814 0.0
C762 C 0.47298 0.96267 0.92318 0.0
C763 C 0.47384 0.95968 0.9502 0.0
C764 C 0.46535 0.94899 0.93621 0.0
C765 C 0.49935 0.03606 1.00157 0.0
C766 C 0.49927 0.99565 0.96605 0.0
C767 C 0.42812 0.88902 0.98605 0.0
C768 C 0.41144 0.89681 0.98889 0.0
C769 C 0.4707 0.98945 0.02249 0.0
C770 C 0.5228 0.01841 0.07141 0.0
C771 C 0.51538 0.00436 0.08449 0.0
C772 C 0.52306 0.01498 0.09882 0.0
C773 C 0.53807 0.03995 0.09971 0.0
C774 C 0.53805 0.04313 0.07268 0.0
C775 C 0.54554 0.0538 0.08675 0.0
C776 C 0.51486 0.96707 0.02099 0.0
C777 C 0.51441 0.00707 0.05657 0.0
H778 H 0.51044 0.01708 0.93902 0.0
H779 H 0.46625 0.95379 0.91248 0.0
H780 H 0.46753 0.94879 0.96013 0.0
H781 H 0.45277 0.93 0.93546 0.0
H782 H 0.50391 0.9852 0.08344 0.0
H783 H 0.54388 0.0489 0.11046 0.0
H784 H 0.54414 0.0542 0.06282 0.0
H785 H 0.55713 0.07295 0.08763 0.0
Tb786 Tb 0.02696 0.50685 0.99516 0.0
C787 C 0.93155 0.47344 0.02965 0.0
C788 C 0.92164 0.50458 0.02602 0.0
C789 C 0.88917 0.46372 0.02976 0.0
C790 C 0.93895 0.497 0.027 0.0
C791 C 0.90664 0.45655 0.03141 0.0
C792 C 0.89667 0.48772 0.02706 0.0
C793 C 0.91835 0.42738 0.03761 0.0
N794 N 0.94901 0.46734 0.03129 0.0
C795 C 0.94285 0.44485 0.03583 0.0
C796 C 0.90013 0.43317 0.03521 0.0
Tb797 Tb 0.98858 0.49696 0.02773 0.0
N798 N 0.96323 0.5127 0.02619 0.0
C799 C 0.97147 0.53663 0.02549 0.0
C800 C 0.92998 0.52892 0.02443 0.0
C801 C 0.95502 0.54504 0.0244 0.0
H802 H 0.95679 0.44017 0.03763 0.0
H803 H 0.96169 0.56396 0.02345 0.0
H804 H 0.88307 0.49314 0.02616 0.0
H805 H 0.91355 0.40948 0.04083 0.0
H806 H 0.99072 0.54941 0.02534 0.0
H807 H 0.05453 0.44048 1.00126 0.0
H808 H 0.91729 0.53548 0.02356 0.0
H809 H 0.0581 0.56167 0.98199 0.0
H810 H 0.02535 0.45464 0.99842 0.0
H811 H 0.10117 0.5922 0.97786 0.0
H812 H 0.8699 0.45098 0.03093 0.0
H813 H 0.09888 0.46918 1.00135 0.0
H814 H 0.13293 0.51146 0.99807 0.0
H815 H 0.88117 0.41964 0.03666 0.0
H816 H 0.14576 0.55305 0.99165 0.0
N817 N 0.05262 0.49144 0.99734 0.0
C818 C 0.04455 0.46755 0.99836 0.0
C819 C 0.0861 0.47558 1.0001 0.0
C820 C 0.09431 0.4998 0.99799 0.0
C821 C 0.0611 0.45934 1.0 0.0
C822 C 0.07688 0.50716 0.99651 0.0
H823 H 0.13398 0.58327 0.98373 0.0
N824 N 0.06642 0.53597 0.99062 0.0
C825 C 0.09664 0.57491 0.98224 0.0
C826 C 0.08407 0.53037 0.99302 0.0
C827 C 0.07224 0.55754 0.98457 0.0
C828 C 0.11511 0.56985 0.98563 0.0
C829 C 0.10891 0.54714 0.99078 0.0
O830 O 0.02307 0.5167 0.9733 0.0
O831 O 0.9955 0.50661 1.00451 0.0
O832 O 0.96658 0.46978 0.01113 0.0
O833 O 0.99746 0.46925 0.99718 0.0
O834 O 0.01493 0.53233 0.98923 0.0
O835 O 0.01896 0.48223 0.97761 0.0
O836 O 0.99106 0.4854 0.04932 0.0
O837 O 0.02056 0.49785 0.01859 0.0
O838 O 0.04884 0.53624 0.01061 0.0
O839 O 0.0185 0.53438 0.02666 0.0
O840 O 1.00019 0.47115 0.03321 0.0
O841 O 0.99593 0.52047 0.04585 0.0
C842 C 0.99588 0.52368 0.99758 0.0
C843 C 0.03418 0.49933 0.95394 0.0
C844 C 0.03657 0.49874 0.92664 0.0
C845 C 0.0233 0.49636 0.93981 0.0
C846 C 0.06101 0.50425 0.92787 0.0
C847 C 0.05849 0.50464 0.95496 0.0
C848 C 0.07183 0.50715 0.94196 0.0
C849 C 0.9743 0.45952 1.00141 0.0
C850 C 0.01981 0.49693 0.96741 0.0
C851 C 0.12654 0.54036 0.99312 0.0
C852 C 0.11924 0.51669 0.99676 0.0
C853 C 0.01984 0.4805 0.0254 0.0
C854 C 0.98055 0.5023 0.06929 0.0
C855 C 0.99205 0.50565 0.08323 0.0
C856 C 0.97915 0.50276 0.09664 0.0
C857 C 0.95446 0.49654 0.09582 0.0
C858 C 0.95598 0.49619 0.06867 0.0
C859 C 0.94301 0.49332 0.0819 0.0
C860 C 0.04109 0.54521 0.02126 0.0
C861 C 0.99465 0.50504 0.05566 0.0
H862 H 1.00436 0.49184 0.93912 0.0
H863 H 0.07184 0.50652 0.91796 0.0
H864 H 0.06712 0.5068 0.96573 0.0
H865 H 0.09064 0.51136 0.94281 0.0
H866 H 0.01118 0.51078 0.08359 0.0
H867 H 0.94391 0.49389 0.10592 0.0
H868 H 0.94685 0.49365 0.05803 0.0
H869 H 0.924 0.4885 0.08138 0.0
Tb870 Tb 0.51975 0.49649 0.02872 0.0
C871 C 0.46213 0.531 0.99158 0.0
C872 C 0.42006 0.49988 0.99412 0.0
C873 C 0.42985 0.54086 0.99035 0.0
C874 C 0.44515 0.50739 0.99384 0.0
C875 C 0.45473 0.54799 0.98945 0.0
C876 C 0.41253 0.51683 0.9927 0.0
C877 C 0.4968 0.57722 0.98449 0.0
N878 N 0.48591 0.53706 0.99071 0.0
C879 C 0.50319 0.55965 0.98661 0.0
C880 C 0.47251 0.57145 0.9861 0.0
Tb881 Tb 0.49474 0.5073 0.9949 0.0
N882 N 0.45322 0.49162 0.99506 0.0
C883 C 0.43685 0.46769 0.99547 0.0
C884 C 0.40332 0.47552 0.99543 0.0
C885 C 0.41176 0.45934 0.99588 0.0
H886 H 0.52204 0.56432 0.98543 0.0
H887 H 0.39895 0.44042 0.99662 0.0
H888 H 0.39334 0.51145 0.99304 0.0
H889 H 0.51063 0.5952 0.98162 0.0
H890 H 0.44296 0.45487 0.99593 0.0
H891 H 0.61583 0.56257 0.02557 0.0
H892 H 0.38388 0.46901 0.99575 0.0
H893 H 0.49326 0.44153 0.04181 0.0
H894 H 0.57204 0.54859 0.02671 0.0
H895 H 0.50448 0.41096 0.0473 0.0
H896 H 0.42378 0.55368 0.9889 0.0
H897 H 0.63056 0.53374 0.02689 0.0
H898 H 0.62081 0.49141 0.0308 0.0
H899 H 0.46759 0.58506 0.98439 0.0
H900 H 0.59033 0.44986 0.03676 0.0
N901 N 0.56132 0.51174 0.02816 0.0
C902 C 0.57789 0.53561 0.02735 0.0
C903 C 0.61117 0.52741 0.02737 0.0
C904 C 0.59431 0.50321 0.02927 0.0
C905 C 0.60292 0.54372 0.02668 0.0
C906 C 0.56927 0.49595 0.02972 0.0
H907 H 0.54687 0.41975 0.0433 0.0
N908 N 0.52876 0.46723 0.03432 0.0
C909 C 0.51811 0.42823 0.04315 0.0
C910 C 0.5523 0.47275 0.03293 0.0
C911 C 0.51183 0.44565 0.04004 0.0
C912 C 0.54202 0.43322 0.04082 0.0
C913 C 0.55961 0.4559 0.03596 0.0
O914 O 0.50322 0.48643 0.04998 0.0
O915 O 0.48942 0.49706 0.01811 0.0
O916 O 0.49914 0.53406 0.01144 0.0
O917 O 0.52934 0.53413 0.02641 0.0
O918 O 0.48126 0.47048 0.03298 0.0
O919 O 0.53515 0.52067 0.04671 0.0
O920 O 0.51087 0.51934 0.97372 0.0
O921 O 0.52487 0.5061 1.00531 0.0
O922 O 0.51316 0.46754 0.01326 0.0
O923 O 0.48617 0.4699 0.99618 0.0
O924 O 0.53325 0.53314 0.99068 0.0
O925 O 0.47972 0.48421 0.97639 0.0
C926 C 0.47176 0.47951 0.02437 0.0
C927 C 0.52963 0.5032 0.07063 0.0
C928 C 0.53006 0.50411 0.09807 0.0
C929 C 0.52077 0.50676 0.08429 0.0
C930 C 0.54819 0.49757 0.0979 0.0
C931 C 0.54784 0.49692 0.07076 0.0
C932 C 0.55698 0.49405 0.08434 0.0
C933 C 0.51662 0.54404 0.02164 0.0
C934 C 0.51957 0.50599 0.05641 0.0
C935 C 0.58434 0.4626 0.03467 0.0
C936 C 0.60169 0.48625 0.03129 0.0
C937 C 0.54255 0.52355 0.99898 0.0
C938 C 0.48489 0.50267 0.95281 0.0
C939 C 0.49334 0.49869 0.93914 0.0
C940 C 0.48396 0.5013 0.92538 0.0
C941 C 0.46606 0.50813 0.9256 0.0
C942 C 0.46697 0.50933 0.95276 0.0
C943 C 0.45766 0.51209 0.9392 0.0
C944 C 0.49725 0.45894 1.00202 0.0
C945 C 0.49507 0.4998 0.96695 0.0
H946 H 0.50694 0.51196 0.08414 0.0
H947 H 0.55545 0.49497 0.10827 0.0
H948 H 0.55502 0.49429 0.0604 0.0
H949 H 0.57095 0.48906 0.08435 0.0
H950 H 0.50696 0.49321 0.93925 0.0
H951 H 0.4587 0.51066 0.91525 0.0
H952 H 0.46017 0.51238 0.96314 0.0
H953 H 0.4439 0.51734 0.93923 0.0
Tb954 Tb 0.16286 0.31756 0.32747 0.0
C955 C 0.21872 0.40613 0.36736 0.0
C956 C 0.26066 0.41522 0.36625 0.0
C957 C 0.25154 0.44714 0.36997 0.0
C958 C 0.23545 0.39866 0.36559 0.0
C959 C 0.22647 0.43037 0.3699 0.0
C960 C 0.26862 0.43957 0.36813 0.0
C961 C 0.18423 0.41928 0.37326 0.0
N962 N 0.19475 0.38934 0.3673 0.0
C963 C 0.17749 0.39542 0.37078 0.0
C964 C 0.20882 0.43689 0.37265 0.0
Tb965 Tb 0.1854 0.3509 0.3625 0.0
N966 N 0.22696 0.37499 0.36389 0.0
C967 C 0.24288 0.3665 0.36387 0.0
C968 C 0.27704 0.40672 0.36535 0.0
C969 C 0.26808 0.38221 0.36438 0.0
H970 H 0.15843 0.38197 0.37119 0.0
H971 H 0.28057 0.3754 0.36395 0.0
H972 H 0.28791 0.45261 0.36852 0.0
H973 H 0.17046 0.42407 0.37564 0.0
H974 H 0.23637 0.34766 0.36303 0.0
H975 H 0.06722 0.2919 0.32646 0.0
H976 H 0.29655 0.41884 0.36575 0.0
H977 H 0.18907 0.28781 0.31478 0.0
H978 H 0.11127 0.31996 0.32676 0.0
H979 H 0.17735 0.24614 0.30907 0.0
H980 H 0.2579 0.4659 0.37177 0.0
H981 H 0.05161 0.24847 0.32556 0.0
H982 H 0.06064 0.21498 0.32262 0.0
H983 H 0.214 0.45534 0.37464 0.0
H984 H 0.09085 0.20239 0.31769 0.0
N985 N 0.12117 0.29293 0.32651 0.0
C986 C 0.10503 0.30116 0.32632 0.0
C987 C 0.0711 0.26075 0.32572 0.0
C988 C 0.08765 0.25248 0.32472 0.0
C989 C 0.07985 0.28524 0.32615 0.0
C990 C 0.11282 0.26927 0.325 0.0
H991 H 0.13448 0.21402 0.31215 0.0
N992 N 0.15333 0.27941 0.32142 0.0
C993 C 0.16372 0.25038 0.31289 0.0
C994 C 0.12959 0.26221 0.32229 0.0
C995 C 0.17028 0.27401 0.31612 0.0
C996 C 0.13954 0.23228 0.31471 0.0
C997 C 0.122 0.23816 0.31915 0.0
O998 O 0.18112 0.3241 0.30673 0.0
O999 O 0.19258 0.34648 0.33946 0.0
O1000 O 0.18339 0.37462 0.34599 0.0
O1001 O 0.15383 0.34624 0.32998 0.0
O1002 O 0.20136 0.32812 0.32463 0.0
O1003 O 0.15034 0.32916 0.30924 0.0
O1004 O 0.16712 0.34595 0.38307 0.0
O1005 O 0.15594 0.32161 0.35065 0.0
O1006 O 0.16701 0.29373 0.34304 0.0
O1007 O 0.19302 0.32128 0.3611 0.0
O1008 O 0.14674 0.33995 0.3653 0.0
O1009 O 0.1981 0.34086 0.38137 0.0
C1010 C 0.21048 0.34584 0.3338 0.0
C1011 C 0.15709 0.31822 0.28518 0.0
C1012 C 0.15627 0.32153 0.25781 0.0
C1013 C 0.16515 0.33205 0.27203 0.0
C1014 C 0.13948 0.29689 0.25706 0.0
C1015 C 0.14021 0.2938 0.28408 0.0
C1016 C 0.13155 0.28322 0.27008 0.0
C1017 C 0.16659 0.36822 0.33541 0.0
C1018 C 0.16634 0.32946 0.29995 0.0
C1019 C 0.09707 0.22103 0.31986 0.0
C1020 C 0.07989 0.2282 0.32268 0.0
C1021 C 0.13792 0.32201 0.35629 0.0
C1022 C 0.19052 0.35252 0.40504 0.0
C1023 C 0.18168 0.33903 0.41828 0.0
C1024 C 0.18913 0.35006 0.43249 0.0
C1025 C 0.20578 0.37471 0.43318 0.0
C1026 C 0.20716 0.37701 0.40606 0.0
C1027 C 0.21475 0.38801 0.42006 0.0
C1028 C 0.18182 0.29974 0.35483 0.0
C1029 C 0.18183 0.3409 0.3903 0.0
H1030 H 0.17797 0.351 0.27292 0.0
H1031 H 0.13261 0.28808 0.24635 0.0
H1032 H 0.1337 0.28292 0.29401 0.0
H1033 H 0.11862 0.26431 0.26932 0.0
H1034 H 0.16869 0.3201 0.41751 0.0
H1035 H 0.21211 0.3837 0.44389 0.0
H1036 H 0.21425 0.38764 0.39607 0.0
H1037 H 0.22762 0.40694 0.42076 0.0
Tb1038 Tb 0.69146 0.84187 0.32906 0.0
C1039 C 0.59554 0.80749 0.36349 0.0
C1040 C 0.5863 0.83894 0.35928 0.0
C1041 C 0.55336 0.79841 0.36333 0.0
C1042 C 0.6033 0.831 0.36055 0.0
C1043 C 0.57055 0.79101 0.36546 0.0
C1044 C 0.56123 0.82237 0.3602 0.0
C1045 C 0.58181 0.76223 0.37343 0.0
N1046 N 0.61277 0.80128 0.36572 0.0
C1047 C 0.60639 0.77934 0.3714 0.0
C1048 C 0.56376 0.76794 0.37017 0.0
Tb1049 Tb 0.65256 0.83002 0.36171 0.0
N1050 N 0.62767 0.84637 0.35998 0.0
C1051 C 0.63625 0.8704 0.35945 0.0
C1052 C 0.59505 0.86334 0.35766 0.0
C1053 C 0.62014 0.87917 0.35803 0.0
H1054 H 0.62022 0.77474 0.37388 0.0
H1055 H 0.62713 0.89815 0.35715 0.0
H1056 H 0.54787 0.82805 0.35904 0.0
H1057 H 0.57682 0.74465 0.37749 0.0
H1058 H 0.65554 0.88301 0.3596 0.0
H1059 H 0.71527 0.77239 0.33104 0.0
H1060 H 0.58262 0.87018 0.35657 0.0
H1061 H 0.72525 0.89775 0.31812 0.0
H1062 H 0.68749 0.78837 0.32909 0.0
H1063 H 0.76905 0.92771 0.31604 0.0
H1064 H 0.53403 0.78595 0.36459 0.0
H1065 H 0.75974 0.79974 0.3334 0.0
H1066 H 0.79503 0.84184 0.33313 0.0
H1067 H 0.54475 0.75472 0.37184 0.0
H1068 H 0.80984 0.88451 0.32902 0.0
N1069 N 0.71572 0.82481 0.33051 0.0
C1070 C 0.7068 0.80072 0.32997 0.0
C1071 C 0.74761 0.80695 0.33249 0.0
C1072 C 0.75678 0.83154 0.33202 0.0
C1073 C 0.72254 0.79147 0.33109 0.0
C1074 C 0.74015 0.83994 0.33082 0.0
H1075 H 0.80026 0.9167 0.32223 0.0
N1076 N 0.73164 0.87043 0.32608 0.0
C1077 C 0.76352 0.90981 0.31969 0.0
C1078 C 0.74846 0.86374 0.32856 0.0
C1079 C 0.73874 0.89279 0.32085 0.0
C1080 C 0.78108 0.90356 0.32326 0.0
C1081 C 0.77363 0.88009 0.32739 0.0
O1082 O 0.69012 0.85511 0.30776 0.0
O1083 O 0.65938 0.84048 0.33847 0.0
O1084 O 0.63079 0.80135 0.34582 0.0
O1085 O 0.661 0.80461 0.32911 0.0
O1086 O 0.68004 0.86804 0.32441 0.0
O1087 O 0.68383 0.81945 0.3103 0.0
O1088 O 0.65568 0.81824 0.38314 0.0
O1089 O 0.68433 0.8311 0.35213 0.0
O1090 O 0.71303 0.86988 0.34538 0.0
O1091 O 0.68244 0.86743 0.36134 0.0
O1092 O 0.6641 0.80387 0.36643 0.0
O1093 O 0.66016 0.85313 0.3801 0.0
C1094 C 0.66027 0.85825 0.33212 0.0
C1095 C 0.70109 0.83898 0.28755 0.0
C1096 C 0.70408 0.83854 0.26026 0.0
C1097 C 0.69037 0.83556 0.27332 0.0
C1098 C 0.72881 0.84509 0.26171 0.0
C1099 C 0.72569 0.84532 0.28877 0.0
C1100 C 0.73947 0.84842 0.27589 0.0
C1101 C 0.63854 0.79319 0.3347 0.0
C1102 C 0.6862 0.83576 0.30089 0.0
C1103 C 0.79039 0.87218 0.32965 0.0
C1104 C 0.78196 0.8479 0.33198 0.0
C1105 C 0.68349 0.8133 0.35836 0.0
C1106 C 0.6446 0.83435 0.40332 0.0
C1107 C 0.65572 0.83753 0.4174 0.0
C1108 C 0.64243 0.83456 0.43066 0.0
C1109 C 0.61772 0.8282 0.42956 0.0
C1110 C 0.62004 0.82823 0.40245 0.0
C1111 C 0.60667 0.82509 0.41553 0.0
C1112 C 0.70509 0.87844 0.35613 0.0
C1113 C 0.65904 0.83759 0.38974 0.0
H1114 H 0.67122 0.8302 0.27248 0.0
H1115 H 0.73997 0.84784 0.25189 0.0
H1116 H 0.7342 0.84781 0.29961 0.0
H1117 H 0.75849 0.85343 0.27689 0.0
H1118 H 0.67485 0.84271 0.41798 0.0
H1119 H 0.60687 0.82543 0.43953 0.0
H1120 H 0.61123 0.82598 0.39173 0.0
H1121 H 0.58767 0.82025 0.41479 0.0
Tb1122 Tb 0.18289 0.82676 0.36207 0.0
C1123 C 0.1277 0.86425 0.32421 0.0
C1124 C 0.08546 0.8341 0.32743 0.0
C1125 C 0.09614 0.87508 0.32263 0.0
C1126 C 0.11042 0.84104 0.32708 0.0
C1127 C 0.12081 0.88147 0.32145 0.0
C1128 C 0.07847 0.85139 0.32565 0.0
C1129 C 0.16262 0.909 0.31478 0.0
N1130 N 0.15116 0.86948 0.32296 0.0
C1131 C 0.16846 0.8912 0.31761 0.0
C1132 C 0.13876 0.90426 0.31697 0.0
Tb1133 Tb 0.15952 0.8397 0.32828 0.0
N1134 N 0.11803 0.82495 0.32844 0.0
C1135 C 0.1012 0.80112 0.32886 0.0
C1136 C 0.06831 0.80991 0.32898 0.0
C1137 C 0.07621 0.79331 0.32942 0.0
H1138 H 0.18699 0.89513 0.31595 0.0
H1139 H 0.06308 0.77448 0.33024 0.0
H1140 H 0.05941 0.84648 0.32607 0.0
H1141 H 0.17653 0.92636 0.31093 0.0
H1142 H 0.10679 0.78794 0.32931 0.0
H1143 H 0.2787 0.8936 0.36382 0.0
H1144 H 0.04896 0.80382 0.32937 0.0
H1145 H 0.15524 0.76907 0.36985 0.0
H1146 H 0.23467 0.87912 0.36372 0.0
H1147 H 0.16644 0.73781 0.37241 0.0
H1148 H 0.09047 0.8881 0.32073 0.0
H1149 H 0.29373 0.86496 0.36298 0.0
H1150 H 0.28412 0.82228 0.36351 0.0
H1151 H 0.13424 0.91802 0.3147 0.0
H1152 H 0.25348 0.77972 0.36599 0.0
N1153 N 0.22439 0.84237 0.36259 0.0
C1154 C 0.24075 0.86628 0.36347 0.0
C1155 C 0.27428 0.85844 0.36298 0.0
C1156 C 0.25748 0.83399 0.36302 0.0
C1157 C 0.26586 0.87464 0.36351 0.0
C1158 C 0.23239 0.82649 0.36299 0.0
H1159 H 0.2095 0.74805 0.36962 0.0
N1160 N 0.19153 0.79665 0.36527 0.0
C1161 C 0.18037 0.756 0.37009 0.0
C1162 C 0.21531 0.80272 0.36441 0.0
C1163 C 0.17411 0.77377 0.36869 0.0
C1164 C 0.20468 0.76183 0.36846 0.0
C1165 C 0.22259 0.78552 0.36584 0.0
O1166 O 0.16604 0.8129 0.38285 0.0
O1167 O 0.1533 0.82886 0.35152 0.0
O1168 O 0.16607 0.86815 0.34412 0.0
O1169 O 0.19152 0.86426 0.36173 0.0
O1170 O 0.14421 0.80074 0.36537 0.0
O1171 O 0.19663 0.84859 0.38123 0.0
O1172 O 0.17681 0.85041 0.30726 0.0
O1173 O 0.18922 0.83858 0.33924 0.0
O1174 O 0.17948 0.8014 0.34474 0.0
O1175 O 0.14943 0.80186 0.32995 0.0
O1176 O 0.19836 0.86562 0.32466 0.0
O1177 O 0.14467 0.81615 0.30995 0.0
C1178 C 0.13533 0.81102 0.35735 0.0
C1179 C 0.19117 0.82856 0.40421 0.0
C1180 C 0.19254 0.82967 0.43164 0.0
C1181 C 0.18335 0.83294 0.418 0.0
C1182 C 0.20963 0.82181 0.43117 0.0
C1183 C 0.20829 0.82087 0.40402 0.0
C1184 C 0.21742 0.81748 0.41746 0.0
C1185 C 0.18129 0.87591 0.35572 0.0
C1186 C 0.1812 0.8321 0.39018 0.0
C1187 C 0.24749 0.79267 0.36507 0.0
C1188 C 0.26493 0.8169 0.36365 0.0
C1189 C 0.20731 0.85632 0.33349 0.0
C1190 C 0.15117 0.83428 0.2862 0.0
C1191 C 0.16003 0.83036 0.27266 0.0
C1192 C 0.15115 0.83318 0.25876 0.0
C1193 C 0.13342 0.84024 0.25871 0.0
C1194 C 0.13341 0.84114 0.28586 0.0
C1195 C 0.12466 0.84417 0.27217 0.0
C1196 C 0.16212 0.79178 0.33445 0.0
C1197 C 0.16066 0.83107 0.30053 0.0
H1198 H 0.17036 0.83921 0.41807 0.0
H1199 H 0.21681 0.81874 0.44142 0.0
H1200 H 0.21458 0.8175 0.39355 0.0
H1201 H 0.23056 0.81144 0.41725 0.0
H1202 H 0.17352 0.82472 0.27297 0.0
H1203 H 0.12647 0.84294 0.24825 0.0
H1204 H 0.12626 0.84409 0.29614 0.0
H1205 H 0.11101 0.84957 0.27198 0.0
Tb1206 Tb 0.82885 0.65157 0.66129 0.0
C1207 C 0.8857 0.73994 0.70156 0.0
C1208 C 0.92736 0.74881 0.69885 0.0
C1209 C 0.91887 0.78081 0.70406 0.0
C1210 C 0.90209 0.7324 0.69874 0.0
C1211 C 0.89382 0.76409 0.70476 0.0
C1212 C 0.93564 0.77317 0.70107 0.0
C1213 C 0.85227 0.75277 0.71089 0.0
N1214 N 0.86179 0.72316 0.70234 0.0
C1215 C 0.84518 0.72902 0.70765 0.0
C1216 C 0.87664 0.77047 0.70918 0.0
Tb1217 Tb 0.85149 0.68481 0.69635 0.0
N1218 N 0.89326 0.7087 0.69693 0.0
C1219 C 0.90903 0.70003 0.69649 0.0
C1220 C 0.9435 0.74013 0.6973 0.0
C1221 C 0.93428 0.71558 0.6964 0.0
H1222 H 0.82628 0.71547 0.70893 0.0
H1223 H 0.9466 0.7086 0.69557 0.0
H1224 H 0.95497 0.78611 0.70101 0.0
H1225 H 0.83892 0.7574 0.71468 0.0
H1226 H 0.90239 0.68116 0.6957 0.0
H1227 H 0.73376 0.62788 0.6619 0.0
H1228 H 0.96305 0.75213 0.69727 0.0
H1229 H 0.85399 0.62082 0.64875 0.0
H1230 H 0.77797 0.65528 0.66178 0.0
H1231 H 0.84133 0.57883 0.64318 0.0
H1232 H 0.9255 0.79952 0.7063 0.0
H1233 H 0.71727 0.58433 0.66034 0.0
H1234 H 0.72531 0.5503 0.65676 0.0
H1235 H 0.88212 0.78883 0.71177 0.0
H1236 H 0.75475 0.53682 0.65159 0.0
N1237 N 0.78707 0.62771 0.66068 0.0
C1238 C 0.77132 0.63641 0.66105 0.0
C1239 C 0.73683 0.59632 0.66031 0.0
C1240 C 0.75295 0.5876 0.65883 0.0
C1241 C 0.74607 0.62087 0.66113 0.0
C1242 C 0.77822 0.60399 0.65894 0.0
H1243 H 0.79814 0.54743 0.64617 0.0
N1244 N 0.8185 0.61318 0.65538 0.0
C1245 C 0.828 0.58349 0.64694 0.0
C1246 C 0.7946 0.59641 0.65619 0.0
C1247 C 0.83509 0.60728 0.65008 0.0
C1248 C 0.80362 0.56581 0.6487 0.0
C1249 C 0.78645 0.57224 0.65306 0.0
O1250 O 0.84704 0.65749 0.64055 0.0
O1251 O 0.85837 0.68104 0.67308 0.0
O1252 O 0.84669 0.70852 0.68108 0.0
O1253 O 0.82104 0.68103 0.66293 0.0
O1254 O 0.8673 0.66231 0.6585 0.0
O1255 O 0.81589 0.66208 0.64276 0.0
O1256 O 0.83344 0.67898 0.71713 0.0
O1257 O 0.82197 0.65539 0.68454 0.0
O1258 O 0.83372 0.62792 0.67652 0.0
O1259 O 0.85933 0.65537 0.69471 0.0
O1260 O 0.81302 0.67406 0.69915 0.0
O1261 O 0.86438 0.67408 0.7148 0.0
C1262 C 0.87627 0.68046 0.66735 0.0
C1263 C 0.82309 0.65101 0.61886 0.0
C1264 C 0.82252 0.65411 0.59148 0.0
C1265 C 0.83123 0.66475 0.60569 0.0
C1266 C 0.80583 0.62945 0.59076 0.0
C1267 C 0.80629 0.62657 0.6178 0.0
C1268 C 0.79781 0.61586 0.60381 0.0
C1269 C 0.8318 0.70241 0.66937 0.0
C1270 C 0.83208 0.66245 0.63361 0.0
C1271 C 0.7614 0.55554 0.65377 0.0
C1272 C 0.74465 0.56322 0.6567 0.0
C1273 C 0.80406 0.65595 0.69026 0.0
C1274 C 0.85746 0.68518 0.73877 0.0
C1275 C 0.8494 0.67135 0.75192 0.0
C1276 C 0.85827 0.68186 0.76613 0.0
C1277 C 0.87506 0.70649 0.7669 0.0
C1278 C 0.87435 0.7096 0.73988 0.0
C1279 C 0.88299 0.72017 0.75388 0.0
C1280 C 0.84868 0.63405 0.6882 0.0
C1281 C 0.84832 0.67384 0.72401 0.0
H1282 H 0.84396 0.68373 0.60654 0.0
H1283 H 0.79909 0.62056 0.58006 0.0
H1284 H 0.79968 0.61576 0.62775 0.0
H1285 H 0.78495 0.59694 0.60308 0.0
H1286 H 0.8366 0.6524 0.75102 0.0
H1287 H 0.88194 0.71528 0.77761 0.0
H1288 H 0.8809 0.72048 0.72995 0.0
H1289 H 0.89594 0.73908 0.75465 0.0
Tb1290 Tb 0.35908 0.17375 0.6617 0.0
C1291 C 0.2635 0.14062 0.69597 0.0
C1292 C 0.25423 0.17193 0.69128 0.0
C1293 C 0.22132 0.13151 0.69568 0.0
C1294 C 0.27125 0.16405 0.69273 0.0
C1295 C 0.23852 0.12419 0.69803 0.0
C1296 C 0.22917 0.15538 0.69228 0.0
C1297 C 0.24982 0.09571 0.70659 0.0
N1298 N 0.28075 0.13449 0.69844 0.0
C1299 C 0.27439 0.11277 0.70447 0.0
C1300 C 0.23176 0.10128 0.70308 0.0
Tb1301 Tb 0.32051 0.16318 0.69436 0.0
N1302 N 0.29561 0.17944 0.69214 0.0
C1303 C 0.30418 0.20345 0.69138 0.0
C1304 C 0.26296 0.1963 0.68946 0.0
C1305 C 0.28805 0.21216 0.6898 0.0
H1306 H 0.28825 0.10829 0.70715 0.0
H1307 H 0.29501 0.23112 0.68875 0.0
H1308 H 0.21579 0.16102 0.69099 0.0
H1309 H 0.24485 0.07828 0.71092 0.0
H1310 H 0.32347 0.21607 0.69149 0.0
H1311 H 0.38443 0.10566 0.66695 0.0
H1312 H 0.25051 0.2031 0.68824 0.0
H1313 H 0.39147 0.22892 0.64935 0.0
H1314 H 0.35602 0.12081 0.6644 0.0
H1315 H 0.43491 0.25897 0.64576 0.0
H1316 H 0.20199 0.11909 0.69701 0.0
H1317 H 0.42894 0.13362 0.66741 0.0
H1318 H 0.4637 0.1757 0.66479 0.0
H1319 H 0.21276 0.08811 0.70482 0.0
H1320 H 0.47758 0.21774 0.65909 0.0
N1321 N 0.38392 0.15742 0.66381 0.0
C1322 C 0.37532 0.1334 0.6645 0.0
C1323 C 0.41652 0.14046 0.66628 0.0
C1324 C 0.42528 0.16485 0.66456 0.0
C1325 C 0.39142 0.12463 0.66597 0.0
C1326 C 0.40829 0.17279 0.66323 0.0
H1327 H 0.46692 0.24893 0.65164 0.0
N1328 N 0.39888 0.20251 0.65779 0.0
C1329 C 0.42989 0.24145 0.64993 0.0
C1330 C 0.41608 0.19629 0.66015 0.0
C1331 C 0.4053 0.22437 0.65195 0.0
C1332 C 0.44791 0.23575 0.65332 0.0
C1333 C 0.44108 0.21273 0.65815 0.0
O1334 O 0.35642 0.18509 0.64003 0.0
O1335 O 0.32703 0.17255 0.67097 0.0
O1336 O 0.29876 0.13386 0.67884 0.0
O1337 O 0.32906 0.13638 0.66253 0.0
O1338 O 0.34704 0.19927 0.65626 0.0
O1339 O 0.35189 0.15026 0.64359 0.0
O1340 O 0.32362 0.1521 0.71602 0.0
O1341 O 0.35249 0.1643 0.68506 0.0
O1342 O 0.38083 0.20286 0.67734 0.0
O1343 O 0.35049 0.20058 0.69351 0.0
O1344 O 0.33244 0.13759 0.69978 0.0
O1345 O 0.3276 0.1867 0.71245 0.0
C1346 C 0.32751 0.18982 0.66421 0.0
C1347 C 0.3683 0.16873 0.62039 0.0
C1348 C 0.37191 0.16939 0.5931 0.0
C1349 C 0.35804 0.16638 0.6061 0.0
C1350 C 0.39633 0.17495 0.59468 0.0
C1351 C 0.39255 0.17399 0.62171 0.0
C1352 C 0.40651 0.17718 0.60891 0.0
C1353 C 0.30656 0.12522 0.66803 0.0
C1354 C 0.35334 0.16564 0.6337 0.0
C1355 C 0.45825 0.20532 0.66037 0.0
C1356 C 0.45035 0.18139 0.6636 0.0
C1357 C 0.35195 0.14699 0.69182 0.0
C1358 C 0.31183 0.1683 0.73577 0.0
C1359 C 0.32249 0.17103 0.74996 0.0
C1360 C 0.30887 0.16792 0.76309 0.0
C1361 C 0.28428 0.16188 0.76174 0.0
C1362 C 0.28739 0.16253 0.73466 0.0
C1363 C 0.27368 0.15925 0.7476 0.0
C1364 C 0.37303 0.21161 0.68807 0.0
C1365 C 0.32657 0.17149 0.72233 0.0
H1366 H 0.33912 0.16182 0.60516 0.0
H1367 H 0.40765 0.17777 0.58493 0.0
H1368 H 0.40069 0.17555 0.63258 0.0
H1369 H 0.42527 0.18138 0.61001 0.0
H1370 H 0.34154 0.17596 0.75073 0.0
H1371 H 0.27316 0.159 0.77159 0.0
H1372 H 0.27893 0.16064 0.72386 0.0
H1373 H 0.25477 0.15466 0.74667 0.0
Tb1374 Tb 0.85284 0.16277 0.69552 0.0
C1375 C 0.79417 0.19674 0.65844 0.0
C1376 C 0.75192 0.16633 0.66146 0.0
C1377 C 0.76246 0.2074 0.65713 0.0
C1378 C 0.77689 0.17335 0.66104 0.0
C1379 C 0.78721 0.21403 0.65617 0.0
C1380 C 0.74483 0.18356 0.65979 0.0
C1381 C 0.82943 0.24262 0.65111 0.0
N1382 N 0.81781 0.20233 0.65755 0.0
C1383 C 0.83538 0.22477 0.65338 0.0
C1384 C 0.80527 0.2373 0.65267 0.0
Tb1385 Tb 0.82595 0.17216 0.66208 0.0
N1386 N 0.78455 0.15731 0.66254 0.0
C1387 C 0.76782 0.13351 0.66346 0.0
C1388 C 0.73485 0.14215 0.66322 0.0
C1389 C 0.74284 0.12565 0.66403 0.0
H1390 H 0.85414 0.22917 0.65223 0.0
H1391 H 0.72977 0.10685 0.66515 0.0
H1392 H 0.72575 0.17857 0.66022 0.0
H1393 H 0.84349 0.26047 0.64816 0.0
H1394 H 0.77355 0.12045 0.66421 0.0
H1395 H 0.94899 0.22836 0.69249 0.0
H1396 H 0.71549 0.13602 0.66368 0.0
H1397 H 0.82509 0.10603 0.70584 0.0
H1398 H 0.90522 0.21466 0.69368 0.0
H1399 H 0.8359 0.07483 0.70988 0.0
H1400 H 0.75673 0.22044 0.65554 0.0
H1401 H 0.96339 0.19925 0.69355 0.0
H1402 H 0.95328 0.15671 0.6968 0.0
H1403 H 0.8007 0.25113 0.65085 0.0
H1404 H 0.92245 0.11482 0.70163 0.0
N1405 N 0.89429 0.17776 0.69499 0.0
C1406 C 0.91097 0.20159 0.69421 0.0
C1407 C 0.94403 0.19306 0.69408 0.0
C1408 C 0.92702 0.16886 0.69578 0.0
C1409 C 0.93597 0.20953 0.69352 0.0
C1410 C 0.90204 0.16176 0.69632 0.0
H1411 H 0.87861 0.08415 0.70674 0.0
N1412 N 0.86124 0.13278 0.70011 0.0
C1413 C 0.84985 0.09263 0.70676 0.0
C1414 C 0.88486 0.13838 0.699 0.0
C1415 C 0.84382 0.11042 0.70451 0.0
C1416 C 0.87397 0.09794 0.70494 0.0
C1417 C 0.89191 0.12116 0.70124 0.0
O1418 O 0.83741 0.15238 0.717 0.0
O1419 O 0.8219 0.16284 0.68543 0.0
O1420 O 0.83092 0.19929 0.67847 0.0
O1421 O 0.86246 0.20041 0.69272 0.0
O1422 O 0.81454 0.13704 0.70074 0.0
O1423 O 0.86849 0.18721 0.71338 0.0
O1424 O 0.84174 0.18243 0.6407 0.0
O1425 O 0.85684 0.17196 0.67214 0.0
O1426 O 0.84751 0.1353 0.67924 0.0
O1427 O 0.81652 0.1346 0.66466 0.0
O1428 O 0.86426 0.19789 0.6569 0.0
O1429 O 0.80982 0.14804 0.6441 0.0
C1430 C 0.80459 0.14567 0.69218 0.0
C1431 C 0.86412 0.17014 0.73739 0.0
C1432 C 0.86495 0.17151 0.76482 0.0
C1433 C 0.85541 0.17384 0.75105 0.0
C1434 C 0.88331 0.16529 0.76462 0.0
C1435 C 0.88247 0.16405 0.73746 0.0
C1436 C 0.89198 0.16163 0.75103 0.0
C1437 C 0.84932 0.20992 0.68802 0.0
C1438 C 0.85348 0.1723 0.72324 0.0
C1439 C 0.91665 0.12783 0.70009 0.0
C1440 C 0.9342 0.15166 0.69734 0.0
C1441 C 0.87416 0.18915 0.66541 0.0
C1442 C 0.81543 0.16548 0.62008 0.0
C1443 C 0.82455 0.16177 0.6066 0.0
C1444 C 0.81644 0.16539 0.59269 0.0
C1445 C 0.79892 0.17268 0.59248 0.0
C1446 C 0.79787 0.17261 0.61966 0.0
C1447 C 0.78966 0.17616 0.6059 0.0
C1448 C 0.82947 0.12488 0.66939 0.0
C1449 C 0.82533 0.16277 0.63436 0.0
H1450 H 0.8414 0.1788 0.75092 0.0
H1451 H 0.89081 0.16296 0.77498 0.0
H1452 H 0.8894 0.16115 0.72708 0.0
H1453 H 0.90607 0.15681 0.75103 0.0
H1454 H 0.83837 0.15655 0.60697 0.0
H1455 H 0.79217 0.17543 0.58195 0.0
H1456 H 0.79064 0.17554 0.62992 0.0
H1457 H 0.77611 0.18169 0.60563 0.0
H1458 H 0.33757 0.85334 0.04207 0.0
H1459 H 0.34799 0.90401 0.07707 0.0
H1460 H 0.37372 0.88409 0.02916 0.0
H1461 H 0.38343 0.93462 0.06396 0.0
H1462 H 0.42983 0.99 0.02994 0.0
H1463 H 0.39187 0.95727 0.0398 0.0
H1464 H 0.42002 0.9093 0.03385 0.0
H1465 H 0.45819 0.94225 0.02414 0.0
C1466 C 0.34755 0.87093 0.04707 0.0
C1467 C 0.33966 0.87615 0.06061 0.0
C1468 C 0.36819 0.88854 0.03962 0.0
C1469 C 0.38122 0.91181 0.04547 0.0
C1470 C 0.37345 0.91698 0.05901 0.0
C1471 C 0.35305 0.89939 0.06651 0.0
C1472 C 0.42771 0.97236 0.03052 0.0
C1473 C 0.44677 0.96858 0.02609 0.0
C1474 C 0.40608 0.95368 0.03622 0.0
C1475 C 0.40306 0.93078 0.03771 0.0
C1476 C 0.42177 0.92673 0.03273 0.0
C1477 C 0.44358 0.94555 0.02713 0.0
H1478 H 0.11068 0.44603 0.07932 0.0
H1479 H 0.15899 0.48563 0.04292 0.0
H1480 H 0.07863 0.45118 0.06812 0.0
H1481 H 0.12681 0.49133 0.03194 0.0
H1482 H 0.06792 0.5159 0.02819 0.0
H1483 H 0.10189 0.5119 0.03803 0.0
H1484 H 0.05282 0.43671 0.04485 0.0
H1485 H 0.01913 0.44071 0.03481 0.0
C1486 C 0.11449 0.45568 0.06887 0.0
C1487 C 0.13748 0.46513 0.06198 0.0
C1488 C 0.09607 0.45872 0.06248 0.0
C1489 C 0.10011 0.47151 0.04909 0.0
C1490 C 0.12321 0.48151 0.04232 0.0
C1491 C 0.14165 0.47827 0.04866 0.0
C1492 C 0.06456 0.49848 0.03152 0.0
C1493 C 0.04104 0.47847 0.03039 0.0
C1494 C 0.08397 0.49619 0.0372 0.0
C1495 C 0.08003 0.47398 0.04223 0.0
C1496 C 0.05642 0.45409 0.04117 0.0
C1497 C 0.03716 0.45633 0.03538 0.0
H1498 H 0.58438 0.68987 0.05491 0.0
H1499 H 0.50928 0.65702 0.0693 0.0
H1500 H 0.57564 0.65295 0.04231 0.0
H1501 H 0.50052 0.62022 0.05649 0.0
H1502 H 0.48958 0.5662 0.01953 0.0
H1503 H 0.49849 0.60415 0.03072 0.0
H1504 H 0.56477 0.61201 0.04994 0.0
H1505 H 0.55616 0.57434 0.03859 0.0
C1506 C 0.56604 0.67475 0.05546 0.0
C1507 C 0.54756 0.67637 0.06319 0.0
C1508 C 0.56104 0.65364 0.0482 0.0
C1509 C 0.53741 0.63371 0.04844 0.0
C1510 C 0.51883 0.6354 0.05595 0.0
C1511 C 0.52386 0.65649 0.06329 0.0
C1512 C 0.50619 0.57613 0.026 0.0
C1513 C 0.52224 0.5673 0.02809 0.0
C1514 C 0.51117 0.59776 0.03252 0.0
C1515 C 0.53233 0.61104 0.04119 0.0
C1516 C 0.54847 0.60231 0.04316 0.0
C1517 C 0.54344 0.58064 0.03672 0.0
H1518 H 0.84963 0.34363 0.9559 0.0
H1519 H 0.89358 0.31282 0.969 0.0
H1520 H 0.87905 0.38125 0.96767 0.0
H1521 H 0.92302 0.35046 0.98071 0.0
H1522 H 0.98306 0.42902 0.98471 0.0
H1523 H 0.95324 0.39107 0.97354 0.0
H1524 H 0.89478 0.39904 0.99228 0.0
H1525 H 0.92452 0.43729 1.00309 0.0
C1526 C 0.86543 0.34479 0.96142 0.0
C1527 C 0.86925 0.32519 0.96147 0.0
C1528 C 0.88231 0.36637 0.96817 0.0
C1529 C 0.90343 0.36889 0.97511 0.0
C1530 C 0.90715 0.34924 0.97525 0.0
C1531 C 0.89027 0.32766 0.96853 0.0
C1532 C 0.96386 0.4227 0.98647 0.0
C1533 C 0.95623 0.43616 0.99491 0.0
C1534 C 0.94675 0.40084 0.98014 0.0
C1535 C 0.92161 0.39197 0.98204 0.0
C1536 C 0.91399 0.40545 0.99048 0.0
C1537 C 0.93109 0.42728 0.99682 0.0
H1538 H 0.69454 0.57345 0.9756 0.0
H1539 H 0.65411 0.50354 0.9555 0.0
H1540 H 0.6574 0.56788 0.98751 0.0
H1541 H 0.61668 0.49816 0.96695 0.0
H1542 H 0.55469 0.48822 0.99735 0.0
H1543 H 0.59331 0.49223 0.9889 0.0
H1544 H 0.62125 0.56731 0.9811 0.0
H1545 H 0.58321 0.56333 0.99028 0.0
C1546 C 0.67764 0.55692 0.97366 0.0
C1547 C 0.67726 0.53902 0.96451 0.0
C1548 C 0.65627 0.55371 0.98045 0.0
C1549 C 0.6338 0.53264 0.97812 0.0
C1550 C 0.63358 0.51451 0.96922 0.0
C1551 C 0.65505 0.51761 0.96257 0.0
C1552 C 0.56934 0.50564 0.99416 0.0
C1553 C 0.56621 0.52561 0.99486 0.0
C1554 C 0.59139 0.50792 0.98909 0.0
C1555 C 0.61064 0.53015 0.98432 0.0
C1556 C 0.60724 0.55001 0.98498 0.0
C1557 C 0.58533 0.54774 0.99014 0.0
H1558 H 0.44691 0.10661 0.94297 0.0
H1559 H 0.49005 0.16117 0.97564 0.0
H1560 H 0.45603 0.07898 0.95577 0.0
H1561 H 0.50053 0.13396 0.98787 0.0
H1562 H 0.49278 0.07051 0.01512 0.0
H1563 H 0.48409 0.09912 1.00302 0.0
H1564 H 0.48829 0.07126 0.95965 0.0
H1565 H 0.49639 0.04245 0.97186 0.0
C1566 C 0.45834 0.11275 0.95289 0.0
C1567 C 0.46769 0.13616 0.95826 0.0
C1568 C 0.4639 0.09698 0.96011 0.0
C1569 C 0.47918 0.10425 0.97282 0.0
C1570 C 0.48853 0.12766 0.97821 0.0
C1571 C 0.48278 0.14339 0.97105 0.0
C1572 C 0.4922 0.07078 1.00304 0.0
C1573 C 0.49527 0.05428 0.99446 0.0
C1574 C 0.48717 0.08714 0.99606 0.0
C1575 C 0.48532 0.08744 0.98033 0.0
C1576 C 0.48899 0.07121 0.97178 0.0
C1577 C 0.49373 0.05474 0.97878 0.0
H1578 H 0.69515 0.11431 0.97777 0.0
H1579 H 0.65159 0.13734 0.95348 0.0
H1580 H 0.65875 0.08442 0.99067 0.0
H1581 H 0.61504 0.10677 0.96591 0.0
H1582 H 0.5551 0.0606 0.99832 0.0
H1583 H 0.59357 0.09419 0.9897 0.0
H1584 H 0.62293 0.04711 0.98398 0.0
H1585 H 0.58473 0.01383 0.99304 0.0
C1586 C 0.67785 0.11313 0.97525 0.0
C1587 C 0.67633 0.1282 0.96451 0.0
C1588 C 0.65692 0.09582 0.98255 0.0
C1589 C 0.63392 0.09309 0.9793 0.0
C1590 C 0.63247 0.10851 0.96882 0.0
C1591 C 0.6534 0.12583 0.96152 0.0
C1592 C 0.57 0.05761 0.99559 0.0
C1593 C 0.56715 0.03473 0.99663 0.0
C1594 C 0.59195 0.07678 0.99046 0.0
C1595 C 0.61137 0.07337 0.9861 0.0
C1596 C 0.60855 0.05051 0.98745 0.0
C1597 C 0.58664 0.0314 0.99256 0.0
H1598 H 0.86595 0.50418 0.95202 0.0
H1599 H 0.89167 0.57052 0.97611 0.0
H1600 H 0.89873 0.49978 0.96295 0.0
H1601 H 0.9238 0.56555 0.98758 0.0
H1602 H 0.99574 0.56379 0.98958 0.0
H1603 H 0.96154 0.56765 0.98033 0.0
H1604 H 0.91365 0.49185 0.98578 0.0
H1605 H 0.94807 0.48806 0.99445 0.0
C1606 C 0.87853 0.51781 0.95968 0.0
C1607 C 0.87617 0.5378 0.96306 0.0
C1608 C 0.89719 0.51512 0.96613 0.0
C1609 C 0.91403 0.53233 0.97615 0.0
C1610 C 0.91139 0.55209 0.97976 0.0
C1611 C 0.89273 0.55479 0.97331 0.0
C1612 C 0.97782 0.54803 0.98891 0.0
C1613 C 0.97446 0.52576 0.99316 0.0
C1614 C 0.95817 0.55022 0.9837 0.0
C1615 C 0.93471 0.53009 0.98238 0.0
C1616 C 0.93144 0.50773 0.98655 0.0
C1617 C 0.95113 0.50558 0.99175 0.0
H1618 H 0.48989 0.32569 0.97585 0.0
H1619 H 0.4434 0.33444 0.94422 0.0
H1620 H 0.49917 0.36304 0.98813 0.0
H1621 H 0.45175 0.37125 0.95678 0.0
H1622 H 0.49061 0.44802 0.97241 0.0
H1623 H 0.48235 0.41104 0.96026 0.0
H1624 H 0.48292 0.38138 1.00353 0.0
H1625 H 0.49195 0.41875 0.01549 0.0
C1626 C 0.48147 0.33554 0.97165 0.0
C1627 C 0.46604 0.32731 0.95907 0.0
C1628 C 0.48667 0.35688 0.97871 0.0
C1629 C 0.47627 0.37027 0.97346 0.0
C1630 C 0.46054 0.36174 0.96096 0.0
C1631 C 0.45564 0.3406 0.95379 0.0
C1632 C 0.48891 0.43355 0.97931 0.0
C1633 C 0.49207 0.4363 0.99491 0.0
C1634 C 0.48407 0.41228 0.97236 0.0
C1635 C 0.48186 0.39308 0.98089 0.0
C1636 C 0.48495 0.39588 0.99654 0.0
C1637 C 0.49015 0.41733 1.00345 0.0
H1638 H 0.13434 0.69348 0.04744 0.0
H1639 H 0.15513 0.65361 0.0768 0.0
H1640 H 0.10452 0.65645 0.03526 0.0
H1641 H 0.1245 0.61662 0.06498 0.0
H1642 H 0.04719 0.55587 0.05094 0.0
H1643 H 0.07744 0.59323 0.06287 0.0
H1644 H 0.10508 0.62342 0.01927 0.0
H1645 H 0.07472 0.58613 1.00742 0.0
C1646 C 0.13276 0.67693 0.05125 0.0
C1647 C 0.14729 0.67669 0.06314 0.0
C1648 C 0.11554 0.6557 0.0443 0.0
C1649 C 0.11217 0.6337 0.04922 0.0
C1650 C 0.12653 0.63334 0.0611 0.0
C1651 C 0.14401 0.65457 0.06791 0.0
C1652 C 0.05969 0.57055 0.04393 0.0
C1653 C 0.05888 0.56806 0.02826 0.0
C1654 C 0.07709 0.59182 0.05075 0.0
C1655 C 0.09368 0.61115 0.04199 0.0
C1656 C 0.09251 0.60879 0.02629 0.0
C1657 C 0.07536 0.58738 0.0195 0.0
H1658 H 0.33766 0.48531 0.04175 0.0
H1659 H 0.34611 0.44566 0.07775 0.0
H1660 H 0.37447 0.48947 0.02971 0.0
H1661 H 0.38271 0.44982 0.06579 0.0
H1662 H 0.43105 0.43927 0.03249 0.0
H1663 H 0.39291 0.435 0.04212 0.0
H1664 H 0.42073 0.5102 0.03553 0.0
H1665 H 0.45912 0.51452 0.02624 0.0
C1666 C 0.34732 0.47743 0.04706 0.0
C1667 C 0.33899 0.4652 0.06074 0.0
C1668 C 0.36845 0.47994 0.04022 0.0
C1669 C 0.38143 0.46989 0.04677 0.0
C1670 C 0.37299 0.45756 0.06038 0.0
C1671 C 0.35214 0.45536 0.06731 0.0
C1672 C 0.42887 0.45482 0.03292 0.0
C1673 C 0.44787 0.47711 0.02828 0.0
C1674 C 0.4071 0.4524 0.0385 0.0
C1675 C 0.40381 0.47226 0.03962 0.0
C1676 C 0.42261 0.49452 0.03466 0.0
C1677 C 0.44457 0.49698 0.02925 0.0
H1678 H 0.57661 0.88023 0.04747 0.0
H1679 H 0.51591 0.8589 0.07779 0.0
H1680 H 0.56571 0.90687 0.03478 0.0
H1681 H 0.50562 0.88616 0.06534 0.0
H1682 H 0.51745 0.96007 0.05067 0.0
H1683 H 0.52596 0.93118 0.06263 0.0
H1684 H 0.5307 0.90437 0.01907 0.0
H1685 H 0.52249 0.93355 1.00715 0.0
C1686 C 0.56083 0.88103 0.05137 0.0
C1687 C 0.54717 0.86739 0.0637 0.0
C1688 C 0.55465 0.89634 0.04409 0.0
C1689 C 0.53485 0.89856 0.04909 0.0
C1690 C 0.52114 0.88496 0.06137 0.0
C1691 C 0.52715 0.86945 0.06854 0.0
C1692 C 0.52028 0.94798 0.04366 0.0
C1693 C 0.51914 0.94891 0.02796 0.0
C1694 C 0.52496 0.93135 0.0505 0.0
C1695 C 0.52893 0.91552 0.04177 0.0
C1696 C 0.52775 0.91642 0.02606 0.0
C1697 C 0.52275 0.93289 0.01923 0.0
H1698 H 0.99807 0.23804 0.39769 0.0
H1699 H 0.01688 0.18464 0.38512 0.0
H1700 H 0.03443 0.26809 0.38596 0.0
H1701 H 0.05131 0.21422 0.37121 0.0
H1702 H 0.12756 0.27656 0.36212 0.0
H1703 H 0.08959 0.2442 0.37174 0.0
H1704 H 0.05591 0.28781 0.36631 0.0
H1705 H 0.09485 0.32077 0.35839 0.0
C1706 C 0.00976 0.23247 0.39238 0.0
C1707 C 1.00429 0.20858 0.39281 0.0
C1708 C 0.0306 0.24989 0.38512 0.0
C1709 C 0.04631 0.24401 0.37739 0.0
C1710 C 0.04029 0.21992 0.37725 0.0
C1711 C 0.01993 0.20261 0.38505 0.0
C1712 C 0.11187 0.27898 0.36287 0.0
C1713 C 0.11397 0.30102 0.35943 0.0
C1714 C 0.08986 0.26032 0.36834 0.0
C1715 C 0.06923 0.26307 0.37015 0.0
C1716 C 0.0713 0.28493 0.3658 0.0
C1717 C 0.09356 0.30385 0.36097 0.0
H1718 H 0.77144 0.76118 0.39974 0.0
H1719 H 0.82529 0.8326 0.38635 0.0
H1720 H 0.73979 0.76682 0.38953 0.0
H1721 H 0.79376 0.83683 0.37395 0.0
H1722 H 0.72971 0.84877 0.36548 0.0
H1723 H 0.76294 0.84426 0.37542 0.0
H1724 H 0.71807 0.76761 0.37056 0.0
H1725 H 0.68444 0.77251 0.36215 0.0
C1726 C 0.77679 0.77817 0.39459 0.0
C1727 C 0.80136 0.79654 0.39433 0.0
C1728 C 0.75835 0.78119 0.38822 0.0
C1729 C 0.76373 0.80233 0.38067 0.0
C1730 C 0.78842 0.82043 0.37988 0.0
C1731 C 0.80683 0.81774 0.38679 0.0
C1732 C 0.72717 0.83102 0.36651 0.0
C1733 C 0.70469 0.81097 0.36281 0.0
C1734 C 0.74633 0.82833 0.37215 0.0
C1735 C 0.74363 0.80548 0.37401 0.0
C1736 C 0.72106 0.78552 0.36991 0.0
C1737 C 0.7017 0.78825 0.36482 0.0
H1738 H 0.24381 0.02373 0.38295 0.0
H1739 H 0.18227 0.98555 0.41247 0.0
H1740 H 0.23419 0.98624 0.37053 0.0
H1741 H 0.1727 0.94803 0.40009 0.0
H1742 H 0.18527 0.8857 0.38552 0.0
H1743 H 0.1942 0.9231 0.39773 0.0
H1744 H 0.19883 0.95456 0.35439 0.0
H1745 H 0.19009 0.91723 0.34224 0.0
C1746 C 0.22828 0.00729 0.38679 0.0
C1747 C 0.21378 0.00746 0.39865 0.0
C1748 C 0.2227 0.98592 0.37963 0.0
C1749 C 0.20273 0.96431 0.38438 0.0
C1750 C 0.18828 0.96446 0.39629 0.0
C1751 C 0.19365 0.98588 0.40329 0.0
C1752 C 0.18823 0.90064 0.37862 0.0
C1753 C 0.18674 0.89855 0.36292 0.0
C1754 C 0.19315 0.92193 0.3856 0.0
C1755 C 0.1971 0.94163 0.37699 0.0
C1756 C 0.19587 0.93961 0.36128 0.0
C1757 C 0.19058 0.91819 0.35432 0.0
H1758 H 0.56353 0.66828 0.2769 0.0
H1759 H 0.51059 0.65799 0.31096 0.0
H1760 H 0.59302 0.70546 0.28881 0.0
H1761 H 0.53951 0.69605 0.32225 0.0
H1762 H 0.60504 0.75212 0.34837 0.0
H1763 H 0.57564 0.71467 0.3366 0.0
H1764 H 0.60317 0.74524 0.29297 0.0
H1765 H 0.63292 0.78253 0.30496 0.0
C1766 C 0.55812 0.67391 0.28693 0.0
C1767 C 0.53463 0.65993 0.29299 0.0
C1768 C 0.57497 0.69551 0.29364 0.0
C1769 C 0.56874 0.7039 0.30653 0.0
C1770 C 0.54515 0.69006 0.31248 0.0
C1771 C 0.52837 0.66833 0.30585 0.0
C1772 C 0.60451 0.75093 0.33629 0.0
C1773 C 0.62097 0.77032 0.3276 0.0
C1774 C 0.58768 0.72941 0.32949 0.0
C1775 C 0.58681 0.72685 0.31378 0.0
C1776 C 0.60347 0.74635 0.30509 0.0
C1777 C 0.62048 0.76777 0.31194 0.0
H1778 H 0.32918 0.83711 0.305 0.0
H1779 H 0.3488 0.90923 0.29319 0.0
H1780 H 0.29383 0.83268 0.31816 0.0
H1781 H 0.31184 0.90357 0.30431 0.0
H1782 H 0.25074 0.89696 0.33184 0.0
H1783 H 0.28965 0.90194 0.32383 0.0
H1784 H 0.25546 0.82559 0.31704 0.0
H1785 H 0.21737 0.8209 0.32652 0.0
C1786 C 0.32612 0.8521 0.30509 0.0
C1787 C 0.34229 0.87355 0.29776 0.0
C1788 C 0.30526 0.84933 0.31246 0.0
C1789 C 0.29933 0.86761 0.31238 0.0
C1790 C 0.31555 0.88903 0.30507 0.0
C1791 C 0.33678 0.8921 0.29819 0.0
C1792 C 0.25185 0.88128 0.32892 0.0
C1793 C 0.23123 0.85856 0.33013 0.0
C1794 C 0.27413 0.88407 0.32405 0.0
C1795 C 0.27613 0.86427 0.31936 0.0
C1796 C 0.25526 0.84141 0.32072 0.0
C1797 C 0.23318 0.83861 0.32615 0.0
H1798 H 0.0982 0.43802 0.29092 0.0
H1799 H 0.17157 0.49549 0.29981 0.0
H1800 H 0.1079 0.41036 0.30256 0.0
H1801 H 0.18003 0.46846 0.31347 0.0
H1802 H 0.19877 0.41124 0.32387 0.0
H1803 H 0.18968 0.43967 0.31208 0.0
H1804 H 0.11339 0.39476 0.32352 0.0
H1805 H 0.12261 0.36544 0.33383 0.0
C1806 C 0.1164 0.44494 0.29539 0.0
C1807 C 0.13407 0.46924 0.29416 0.0
C1808 C 0.12183 0.42899 0.30251 0.0
C1809 C 0.14482 0.43691 0.30916 0.0
C1810 C 0.16227 0.46132 0.30828 0.0
C1811 C 0.15715 0.47712 0.30067 0.0
C1812 C 0.18011 0.40762 0.32378 0.0
C1813 C 0.16132 0.38624 0.32956 0.0
C1814 C 0.17481 0.42401 0.31715 0.0
C1815 C 0.15066 0.41974 0.31666 0.0
C1816 C 0.13207 0.39856 0.32312 0.0
C1817 C 0.1373 0.3818 0.32923 0.0
H1818 H 0.34443 0.48198 0.31581 0.0
H1819 H 0.33549 0.43179 0.28091 0.0
H1820 H 0.30856 0.45067 0.32876 0.0
H1821 H 0.29973 0.40072 0.29373 0.0
H1822 H 0.25126 0.34467 0.32688 0.0
H1823 H 0.28987 0.37729 0.31758 0.0
H1824 H 0.26275 0.42607 0.32363 0.0
H1825 H 0.22409 0.39336 0.33269 0.0
C1826 C 0.33487 0.46425 0.31095 0.0
C1827 C 0.34273 0.45935 0.29732 0.0
C1828 C 0.3143 0.44641 0.31832 0.0
C1829 C 0.30143 0.42322 0.3123 0.0
C1830 C 0.30944 0.41832 0.29875 0.0
C1831 C 0.32977 0.43619 0.29132 0.0
C1832 C 0.25377 0.36247 0.32647 0.0
C1833 C 0.23482 0.36654 0.33074 0.0
C1834 C 0.27578 0.38109 0.32108 0.0
C1835 C 0.27928 0.40421 0.31978 0.0
C1836 C 0.26068 0.4085 0.32463 0.0
C1837 C 0.23853 0.38977 0.32988 0.0
H1838 H 0.56855 0.89018 0.27701 0.0
H1839 H 0.52111 0.85295 0.31416 0.0
H1840 H 0.60112 0.88592 0.28862 0.0
H1841 H 0.55383 0.84855 0.32578 0.0
H1842 H 0.6123 0.82276 0.32904 0.0
H1843 H 0.57833 0.82668 0.31915 0.0
H1844 H 0.62716 0.90194 0.31255 0.0
H1845 H 0.66086 0.89811 0.32284 0.0
C1846 C 0.56505 0.88097 0.28762 0.0
C1847 C 0.54225 0.87187 0.29465 0.0
C1848 C 0.58375 0.87869 0.29432 0.0
C1849 C 0.58002 0.86693 0.30811 0.0
C1850 C 0.55716 0.85759 0.31511 0.0
C1851 C 0.53853 0.86024 0.30851 0.0
C1852 C 0.61561 0.8402 0.3258 0.0
C1853 C 0.63907 0.86027 0.32709 0.0
C1854 C 0.59621 0.84243 0.32008 0.0
C1855 C 0.6001 0.86463 0.3151 0.0
C1856 C 0.62363 0.8846 0.31626 0.0
C1857 C 0.64287 0.88243 0.32218 0.0
H1858 H 0.16812 0.67853 0.28625 0.0
H1859 H 0.09356 0.64558 0.30159 0.0
H1860 H 0.17702 0.71571 0.29863 0.0
H1861 H 0.10259 0.68266 0.31424 0.0
H1862 H 0.12197 0.76141 0.31796 0.0
H1863 H 0.11292 0.72361 0.30656 0.0
H1864 H 0.18017 0.73192 0.32443 0.0
H1865 H 0.18951 0.76997 0.33564 0.0
C1866 C 0.15365 0.67926 0.29227 0.0
C1867 C 0.13012 0.6592 0.29291 0.0
C1868 C 0.1588 0.70045 0.29948 0.0
C1869 C 0.14049 0.70207 0.3074 0.0
C1870 C 0.117 0.68197 0.30811 0.0
C1871 C 0.11189 0.66071 0.30099 0.0
C1872 C 0.13482 0.75519 0.31949 0.0
C1873 C 0.1564 0.76865 0.32778 0.0
C1874 C 0.12954 0.73345 0.31304 0.0
C1875 C 0.14581 0.7248 0.31464 0.0
C1876 C 0.16738 0.73823 0.32293 0.0
C1877 C 0.17261 0.75992 0.32946 0.0
H1878 H 0.82051 0.98839 0.41008 0.0
H1879 H 0.79368 0.02649 0.38381 0.0
H1880 H 0.79026 0.95109 0.39841 0.0
H1881 H 0.76412 0.98919 0.37177 0.0
H1882 H 0.73517 0.92071 0.34243 0.0
H1883 H 0.76506 0.9582 0.3543 0.0
H1884 H 0.74355 0.92519 0.39783 0.0
H1885 H 0.71383 0.88758 0.38584 0.0
C1886 C 0.80811 0.98888 0.40192 0.0
C1887 C 0.8096 0.01059 0.39796 0.0
C1888 C 0.79084 0.96747 0.39519 0.0
C1889 C 0.77486 0.96727 0.3842 0.0
C1890 C 0.7764 0.98888 0.38011 0.0
C1891 C 0.79345 0.01027 0.38697 0.0
C1892 C 0.73715 0.9214 0.35448 0.0
C1893 C 0.72262 0.90124 0.36321 0.0
C1894 C 0.75398 0.94291 0.3613 0.0
C1895 C 0.7567 0.94456 0.37698 0.0
C1896 C 0.742 0.92435 0.38571 0.0
C1897 C 0.72494 0.90293 0.37889 0.0
H1898 H 1.00133 0.81692 0.37499 0.0
H1899 H 0.01103 0.77898 0.41156 0.0
H1900 H 0.03828 0.82129 0.36296 0.0
H1901 H 0.04767 0.78325 0.39958 0.0
H1902 H 0.09452 0.77113 0.36575 0.0
H1903 H 0.05674 0.76737 0.37561 0.0
H1904 H 0.08527 0.84268 0.36897 0.0
H1905 H 0.12345 0.84652 0.35945 0.0
C1906 C 0.0113 0.80947 0.38042 0.0
C1907 C 1.00329 0.79764 0.39424 0.0
C1908 C 0.0325 0.8121 0.37359 0.0
C1909 C 0.04581 0.80254 0.38031 0.0
C1910 C 0.03769 0.79063 0.39407 0.0
C1911 C 0.01681 0.78835 0.40099 0.0
C1912 C 0.09261 0.78684 0.36626 0.0
C1913 C 0.11174 0.80902 0.36158 0.0
C1914 C 0.07104 0.78471 0.37194 0.0
C1915 C 0.06805 0.80473 0.3731 0.0
C1916 C 0.08697 0.82689 0.36809 0.0
C1917 C 0.10878 0.82909 0.36259 0.0
H1918 H 0.18863 0.1733 0.38096 0.0
H1919 H 0.23451 0.22821 0.41261 0.0
H1920 H 0.17862 0.20099 0.36874 0.0
H1921 H 0.22527 0.25616 0.40018 0.0
H1922 H 0.18615 0.29416 0.38453 0.0
H1923 H 0.19378 0.26502 0.3967 0.0
H1924 H 0.19502 0.23541 0.35336 0.0
H1925 H 0.18672 0.26429 0.34134 0.0
C1926 C 0.19672 0.19138 0.38521 0.0
C1927 C 0.21224 0.19861 0.39776 0.0
C1928 C 0.19108 0.20728 0.37819 0.0
C1929 C 0.20107 0.23084 0.38348 0.0
C1930 C 0.2168 0.23804 0.39598 0.0
C1931 C 0.22219 0.22207 0.40309 0.0
C1932 C 0.18807 0.28142 0.37761 0.0
C1933 C 0.1858 0.28146 0.36195 0.0
C1934 C 0.19254 0.26474 0.38458 0.0
C1935 C 0.19522 0.2479 0.37604 0.0
C1936 C 0.19269 0.24784 0.36034 0.0
C1937 C 0.1879 0.26438 0.3534 0.0
H1938 H 0.67037 0.51987 0.70908 0.0
H1939 H 0.68055 0.57022 0.74425 0.0
H1940 H 0.70689 0.55063 0.69645 0.0
H1941 H 0.71636 0.60082 0.73142 0.0
H1942 H 0.76321 0.65652 0.6977 0.0
H1943 H 0.72514 0.62373 0.70738 0.0
H1944 H 0.75319 0.5757 0.70134 0.0
H1945 H 0.7915 0.60872 0.69179 0.0
C1946 C 0.68038 0.53739 0.71418 0.0
C1947 C 0.6723 0.54253 0.72767 0.0
C1948 C 0.70124 0.555 0.70689 0.0
C1949 C 0.7143 0.57818 0.71286 0.0
C1950 C 0.70637 0.58325 0.72638 0.0
C1951 C 0.68575 0.56567 0.73371 0.0
C1952 C 0.76106 0.63886 0.69823 0.0
C1953 C 0.78012 0.63507 0.69381 0.0
C1954 C 0.73935 0.62014 0.70383 0.0
C1955 C 0.73627 0.5972 0.70524 0.0
C1956 C 0.755 0.59316 0.70029 0.0
C1957 C 0.77688 0.61202 0.69478 0.0
H1958 H 0.45376 0.0983 0.71452 0.0
H1959 H 0.48396 0.16699 0.7362 0.0
H1960 H 0.42188 0.10386 0.70329 0.0
H1961 H 0.45158 0.17234 0.72539 0.0
H1962 H 0.39975 0.18278 0.6949 0.0
H1963 H 0.43426 0.17905 0.70369 0.0
H1964 H 0.38592 0.10354 0.7103 0.0
H1965 H 0.35192 0.1073 0.70081 0.0
C1966 C 0.45349 0.11456 0.71694 0.0
C1967 C 0.4713 0.13212 0.72633 0.0
C1968 C 0.43513 0.11774 0.71055 0.0
C1969 C 0.43383 0.13844 0.71353 0.0
C1970 C 0.45205 0.15628 0.72266 0.0
C1971 C 0.47061 0.1532 0.72892 0.0
C1972 C 0.39669 0.16535 0.69795 0.0
C1973 C 0.37334 0.14517 0.69668 0.0
C1974 C 0.4164 0.16322 0.70321 0.0
C1975 C 0.41308 0.14092 0.70761 0.0
C1976 C 0.38946 0.1209 0.70666 0.0
C1977 C 0.36987 0.12304 0.70133 0.0
H1978 H 0.92273 0.34998 0.72907 0.0
H1979 H 0.84914 0.33604 0.72161 0.0
H1980 H 0.91188 0.31195 0.71816 0.0
H1981 H 0.83945 0.29975 0.70858 0.0
H1982 H 0.81873 0.22325 0.70001 0.0
H1983 H 0.8293 0.26161 0.71095 0.0
H1984 H 0.90465 0.28888 0.69794 0.0
H1985 H 0.89401 0.24954 0.68853 0.0
C1986 C 0.90423 0.33899 0.72506 0.0
C1987 C 0.88683 0.34634 0.72655 0.0
C1988 C 0.89813 0.31719 0.71835 0.0
C1989 C 0.87467 0.30236 0.71235 0.0
C1990 C 0.85753 0.31013 0.71334 0.0
C1991 C 0.86336 0.3315 0.72057 0.0
C1992 C 0.83753 0.23755 0.69961 0.0
C1993 C 0.85564 0.23359 0.69365 0.0
C1994 C 0.84367 0.25974 0.70572 0.0
C1995 C 0.86798 0.27876 0.70547 0.0
C1996 C 0.88589 0.27474 0.69888 0.0
C1997 C 0.87984 0.25225 0.69331 0.0
H1998 H 0.23179 0.99959 0.61081 0.0
H1999 H 0.17814 0.99047 0.64406 0.0
H2000 H 0.26139 0.0366 0.62284 0.0
H2001 H 0.20721 0.02839 0.65544 0.0
H2002 H 0.27236 0.08454 0.68184 0.0
H2003 H 0.24299 0.04695 0.67017 0.0
H2004 H 0.27184 0.07654 0.62653 0.0
H2005 H 0.30153 0.11391 0.63842 0.0
C2006 C 0.22625 0.00544 0.62069 0.0
C2007 C 0.20251 0.99185 0.62647 0.0
C2008 C 0.24317 0.02694 0.62747 0.0
C2009 C 0.23678 0.03564 0.64013 0.0
C2010 C 0.21297 0.02216 0.64585 0.0
C2011 C 0.19611 0.00052 0.63915 0.0
C2012 C 0.27215 0.08309 0.66978 0.0
C2013 C 0.28898 0.10223 0.66105 0.0
C2014 C 0.25534 0.0615 0.66303 0.0
C2015 C 0.25484 0.05862 0.64735 0.0
C2016 C 0.27185 0.07787 0.63864 0.0
C2017 C 0.28883 0.09935 0.64543 0.0
H2018 H 0.00995 0.18633 0.64844 0.0
H2019 H 1.00116 0.22638 0.61273 0.0
H2020 H 0.97234 0.18059 0.66003 0.0
H2021 H 0.96424 0.22118 0.62455 0.0
H2022 H 0.88771 0.15478 0.66377 0.0
H2023 H 0.92647 0.15985 0.65453 0.0
H2024 H 0.95292 0.23481 0.64786 0.0
H2025 H 0.91439 0.22975 0.65731 0.0
C2026 C 1.00004 0.19382 0.64299 0.0
C2027 C 0.00889 0.20702 0.62964 0.0
C2028 C 0.9785 0.19057 0.64969 0.0
C2029 C 0.96542 0.20062 0.6433 0.0
C2030 C 0.97414 0.21361 0.62993 0.0
C2031 C 0.99544 0.21665 0.62318 0.0
C2032 C 0.90204 0.17242 0.66071 0.0
C2033 C 0.89824 0.192 0.66158 0.0
C2034 C 0.92421 0.17531 0.65535 0.0
C2035 C 0.94274 0.19772 0.65037 0.0
C2036 C 0.93894 0.21728 0.65145 0.0
C2037 C 0.91695 0.21442 0.65693 0.0
H2038 H 0.77647 0.77149 0.61171 0.0
H2039 H 0.81719 0.82516 0.64537 0.0
H2040 H 0.78627 0.74413 0.62424 0.0
H2041 H 0.82841 0.79831 0.65734 0.0
H2042 H 0.8231 0.73505 0.68348 0.0
H2043 H 0.81291 0.76296 0.67185 0.0
H2044 H 0.81951 0.73783 0.62804 0.0
H2045 H 0.82908 0.70969 0.63979 0.0
C2046 C 0.78748 0.77748 0.6218 0.0
C2047 C 0.79604 0.80059 0.62749 0.0
C2048 C 0.79345 0.76188 0.62887 0.0
C2049 C 0.80834 0.76905 0.64175 0.0
C2050 C 0.81674 0.79209 0.64753 0.0
C2051 C 0.81058 0.80763 0.64052 0.0
C2052 C 0.82277 0.73582 0.67141 0.0
C2053 C 0.82698 0.72032 0.66256 0.0
C2054 C 0.81684 0.75176 0.6647 0.0
C2055 C 0.81523 0.75259 0.64898 0.0
C2056 C 0.82 0.73734 0.64017 0.0
C2057 C 0.82563 0.72128 0.64689 0.0
H2058 H 0.00924 0.81699 0.64825 0.0
H2059 H 0.99963 0.76689 0.61313 0.0
H2060 H 0.97314 0.78582 0.66113 0.0
H2061 H 0.96367 0.736 0.62587 0.0
H2062 H 0.91709 0.68 0.65962 0.0
H2063 H 0.95501 0.71287 0.64982 0.0
H2064 H 0.92687 0.76075 0.65632 0.0
H2065 H 0.88873 0.72766 0.66595 0.0
C2066 C 0.99945 0.79934 0.64331 0.0
C2067 C 0.00724 0.79439 0.62966 0.0
C2068 C 0.97875 0.78158 0.65063 0.0
C2069 C 0.9657 0.75846 0.64455 0.0
C2070 C 0.97353 0.75357 0.63092 0.0
C2071 C 0.99398 0.77133 0.62354 0.0
C2072 C 0.9192 0.69764 0.65916 0.0
C2073 C 0.90016 0.70137 0.66373 0.0
C2074 C 0.94081 0.71641 0.65349 0.0
C2075 C 0.94383 0.73933 0.65219 0.0
C2076 C 0.92512 0.7433 0.65729 0.0
C2077 C 0.90333 0.7244 0.66285 0.0
H2078 H 0.22249 0.23479 0.64191 0.0
H2079 H 0.19732 0.16884 0.61746 0.0
H2080 H 0.25468 0.22993 0.65334 0.0
H2081 H 0.23021 0.16452 0.62841 0.0
H2082 H 0.28007 0.15356 0.66072 0.0
H2083 H 0.24539 0.15666 0.65144 0.0
H2084 H 0.29254 0.23253 0.64578 0.0
H2085 H 0.32689 0.22936 0.65545 0.0
C2086 C 0.22368 0.21916 0.63902 0.0
C2087 C 0.20724 0.20226 0.62869 0.0
C2088 C 0.24237 0.21652 0.64545 0.0
C2089 C 0.24523 0.19692 0.64173 0.0
C2090 C 0.22851 0.17976 0.63164 0.0
C2091 C 0.20979 0.1824 0.6252 0.0
C2092 C 0.28286 0.17092 0.65773 0.0
C2093 C 0.306 0.19135 0.65923 0.0
C2094 C 0.26307 0.17268 0.65223 0.0
C2095 C 0.26606 0.19489 0.64794 0.0
C2096 C 0.28938 0.21522 0.64926 0.0
C2097 C 0.30911 0.21342 0.65471 0.0
H2098 H 0.76056 0.97772 0.63821 0.0
H2099 H 0.83413 0.0112 0.62107 0.0
H2100 H 0.76994 0.0148 0.65098 0.0
H2101 H 0.84341 0.04839 0.63369 0.0
H2102 H 0.85686 0.10303 0.67092 0.0
H2103 H 0.84745 0.06475 0.65995 0.0
H2104 H 0.77948 0.05557 0.64275 0.0
H2105 H 0.78868 0.09362 0.65377 0.0
C2106 C 0.77877 0.99297 0.63726 0.0
C2107 C 0.79661 0.99162 0.62863 0.0
C2108 C 0.78407 0.01421 0.64447 0.0
C2109 C 0.80739 0.03445 0.64331 0.0
C2110 C 0.82535 0.033 0.63487 0.0
C2111 C 0.81997 0.01182 0.62754 0.0
C2112 C 0.8398 0.09275 0.66492 0.0
C2113 C 0.82349 0.10135 0.66325 0.0
C2114 C 0.83452 0.07093 0.65855 0.0
C2115 C 0.81274 0.05722 0.6505 0.0
C2116 C 0.79629 0.06565 0.64903 0.0
C2117 C 0.80165 0.08753 0.65527 0.0
H2118 H 0.48702 0.32034 0.74352 0.0
H2119 H 0.46573 0.35996 0.7143 0.0
H2120 H 0.45643 0.28327 0.73175 0.0
H2121 H 0.43588 0.32287 0.70221 0.0
H2122 H 0.4059 0.2529 0.67426 0.0
H2123 H 0.43617 0.29019 0.68611 0.0
H2124 H 0.40971 0.25936 0.72974 0.0
H2125 H 0.37959 0.22195 0.71779 0.0
C2126 C 0.47579 0.32122 0.73467 0.0
C2127 C 0.47893 0.34329 0.72992 0.0
C2128 C 0.45832 0.29994 0.7279 0.0
C2129 C 0.4438 0.30021 0.71608 0.0
C2130 C 0.44702 0.32218 0.7112 0.0
C2131 C 0.46425 0.34344 0.7181 0.0
C2132 C 0.40681 0.25399 0.68634 0.0
C2133 C 0.39072 0.23447 0.6951 0.0
C2134 C 0.42389 0.27542 0.69314 0.0
C2135 C 0.42537 0.27762 0.70885 0.0
C2136 C 0.40913 0.25809 0.71761 0.0
C2137 C 0.39182 0.23678 0.71079 0.0
H2138 H 0.66977 0.15043 0.70841 0.0
H2139 H 0.67821 0.11183 0.74508 0.0
H2140 H 0.70672 0.15448 0.69667 0.0
H2141 H 0.715 0.11596 0.73344 0.0
H2142 H 0.7644 0.10544 0.70099 0.0
H2143 H 0.72604 0.10093 0.7104 0.0
H2144 H 0.75265 0.1756 0.70239 0.0
H2145 H 0.79117 0.18012 0.69327 0.0
C2146 C 0.67946 0.14275 0.71393 0.0
C2147 C 0.67108 0.13086 0.72771 0.0
C2148 C 0.70068 0.14521 0.70726 0.0
C2149 C 0.71374 0.13547 0.7141 0.0
C2150 C 0.70523 0.12345 0.72781 0.0
C2151 C 0.68427 0.12129 0.73455 0.0
C2152 C 0.76191 0.12081 0.70108 0.0
C2153 C 0.7806 0.14301 0.69608 0.0
C2154 C 0.74001 0.11826 0.70653 0.0
C2155 C 0.7363 0.13791 0.70717 0.0
C2156 C 0.75483 0.16006 0.70189 0.0
C2157 C 0.77689 0.16265 0.6966 0.0
H2158 H 0.85539 0.52643 0.74242 0.0
H2159 H 0.91885 0.55454 0.71376 0.0
H2160 H 0.84294 0.55233 0.73034 0.0
H2161 H 0.9058 0.57984 0.70138 0.0
H2162 H 0.85994 0.60355 0.67367 0.0
H2163 H 0.87032 0.57545 0.68504 0.0
H2164 H 0.86045 0.59732 0.72907 0.0
H2165 H 0.84983 0.62515 0.71767 0.0
C2166 C 0.86679 0.5382 0.73362 0.0
C2167 C 0.88825 0.53849 0.72915 0.0
C2168 C 0.85954 0.55292 0.72665 0.0
C2169 C 0.8734 0.56803 0.71493 0.0
C2170 C 0.89463 0.56811 0.71027 0.0
C2171 C 0.90205 0.55359 0.71736 0.0
C2172 C 0.85948 0.60194 0.68573 0.0
C2173 C 0.8538 0.61624 0.69478 0.0
C2174 C 0.86574 0.58614 0.69224 0.0
C2175 C 0.86613 0.58421 0.70792 0.0
C2176 C 0.86007 0.59829 0.71696 0.0
C2177 C 0.85415 0.61429 0.71044 0.0
H2178 H 0.49641 0.97689 0.19254 0.0
H2179 H 0.46243 0.9079 0.17089 0.0
H2180 H 0.50852 0.99618 0.16814 0.0
H2181 H 0.47478 0.92731 0.14637 0.0
H2182 H 0.4788 0.97521 0.10546 0.0
H2183 H 0.46616 0.95345 0.12917 0.0
H2184 H 0.53748 1.00034 0.14782 0.0
H2185 H 0.55036 0.02162 0.12417 0.0
C2186 C 0.4914 0.96583 0.18256 0.0
C2187 C 0.47841 0.94084 0.18369 0.0
C2188 C 0.49854 0.97689 0.16857 0.0
C2189 C 0.49271 0.9633 0.15529 0.0
C2190 C 0.47946 0.93829 0.15637 0.0
C2191 C 0.47255 0.92719 0.17042 0.0
C2192 C 0.49194 0.98066 0.11452 0.0
C2193 C 0.51555 1.00045 0.11287 0.0
C2194 C 0.48464 0.9682 0.12813 0.0
C2195 C 0.50071 0.97536 0.14046 0.0
C2196 C 0.52448 0.99467 0.13867 0.0
C2197 C 0.53183 0.00694 0.12507 0.0
H2198 H 0.05628 0.56249 0.18038 0.0
H2199 H 0.05013 0.49305 0.17812 0.0
H2200 H 0.03531 0.55505 0.1564 0.0
H2201 H 0.02799 0.4851 0.15449 0.0
H2202 H 0.01198 0.48906 0.10493 0.0
H2203 H 0.03382 0.49672 0.12862 0.0
H2204 H 0.9954 0.5313 0.1457 0.0
H2205 H 0.97451 0.52476 0.12172 0.0
C2206 C 0.05055 0.54567 0.17475 0.0
C2207 C 0.05497 0.5284 0.18118 0.0
C2208 C 0.03819 0.54125 0.16109 0.0
C2209 C 0.02982 0.51942 0.15354 0.0
C2210 C 0.03437 0.5022 0.15992 0.0
C2211 C 0.04682 0.50665 0.17356 0.0
C2212 C 0.00837 0.49852 0.11369 0.0
C2213 C 0.99158 0.50642 0.11138 0.0
C2214 C 0.02067 0.50264 0.12735 0.0
C2215 C 0.01642 0.51467 0.13908 0.0
C2216 C 0.99939 0.52228 0.13684 0.0
C2217 C 0.98714 0.51824 0.12315 0.0
H2218 H 0.45048 0.49008 0.18092 0.0
H2219 H 0.51367 0.56064 0.18343 0.0
H2220 H 0.46322 0.48456 0.15606 0.0
H2221 H 0.52628 0.55525 0.15862 0.0
H2222 H 0.55695 0.52689 0.12302 0.0
H2223 H 0.54259 0.53267 0.14709 0.0
H2224 H 0.46873 0.49763 0.13008 0.0
H2225 H 0.48304 0.49093 0.10609 0.0
C2226 C 0.46693 0.50451 0.1761 0.0
C2227 C 0.48119 0.5257 0.18424 0.0
C2228 C 0.47423 0.50137 0.16183 0.0
C2229 C 0.4959 0.51938 0.15537 0.0
C2230 C 0.50978 0.54079 0.16337 0.0
C2231 C 0.50254 0.54389 0.17761 0.0
C2232 C 0.53761 0.52021 0.12442 0.0
C2233 C 0.52116 0.50833 0.11261 0.0
C2234 C 0.52939 0.5238 0.1382 0.0
C2235 C 0.50448 0.51569 0.14055 0.0
C2236 C 0.488 0.50392 0.12871 0.0
C2237 C 0.49625 0.50032 0.1149 0.0
H2238 H 0.97469 0.51199 0.8422 0.0
H2239 H 0.96325 0.44045 0.84163 0.0
H2240 H 0.9938 0.5187 0.86688 0.0
H2241 H 0.98207 0.44701 0.86633 0.0
H2242 H 0.04111 0.47551 0.90224 0.0
H2243 H 0.0218 0.46954 0.87776 0.0
H2244 H 0.98517 0.50694 0.89291 0.0
H2245 H 1.0054 0.5139 0.91719 0.0
C2246 C 0.97601 0.49761 0.84743 0.0
C2247 C 0.9676 0.47574 0.83994 0.0
C2248 C 0.98694 0.50144 0.86157 0.0
C2249 C 0.98961 0.48344 0.86855 0.0
C2250 C 0.98077 0.46143 0.86115 0.0
C2251 C 0.96994 0.45764 0.84701 0.0
C2252 C 0.02919 0.48273 0.90029 0.0
C2253 C 0.02483 0.4952 0.91168 0.0
C2254 C 0.01785 0.47903 0.88632 0.0
C2255 C 1.00182 0.48765 0.88339 0.0
C2256 C 0.99756 0.50024 0.89475 0.0
C2257 C 0.00894 0.50398 0.90873 0.0
H2258 H 0.56367 0.51237 0.84306 0.0
H2259 H 0.50002 0.44203 0.84103 0.0
H2260 H 0.55019 0.51925 0.86728 0.0
H2261 H 0.48709 0.44855 0.86545 0.0
H2262 H 0.4568 0.47834 0.90052 0.0
H2263 H 0.47092 0.47182 0.87652 0.0
H2264 H 0.54484 0.50675 0.89341 0.0
H2265 H 0.5308 0.5141 0.91728 0.0
C2266 C 0.54682 0.49837 0.84778 0.0
C2267 C 0.53293 0.47666 0.84006 0.0
C2268 C 0.53923 0.50221 0.86175 0.0
C2269 C 0.51752 0.48447 0.86833 0.0
C2270 C 0.50374 0.46272 0.86065 0.0
C2271 C 0.51133 0.45887 0.84671 0.0
C2272 C 0.4761 0.48484 0.89909 0.0
C2273 C 0.49265 0.49683 0.91084 0.0
C2274 C 0.48417 0.48084 0.88537 0.0
C2275 C 0.50903 0.4887 0.88302 0.0
C2276 C 0.5256 0.50065 0.89478 0.0
C2277 C 0.51751 0.50462 0.90853 0.0
H2278 H 0.56413 0.05813 0.8415 0.0
H2279 H 0.49732 0.06072 0.84002 0.0
H2280 H 0.55314 0.03985 0.86627 0.0
H2281 H 0.48641 0.04263 0.86476 0.0
H2282 H 0.46081 0.98353 0.89978 0.0
H2283 H 0.47323 0.00473 0.87611 0.0
H2284 H 0.54723 0.04587 0.89249 0.0
H2285 H 0.53489 0.02387 0.9161 0.0
C2286 C 0.54724 0.05508 0.84652 0.0
C2287 C 0.53153 0.06074 0.83866 0.0
C2288 C 0.54094 0.04462 0.86077 0.0
C2289 C 0.51878 0.03957 0.86754 0.0
C2290 C 0.50338 0.04577 0.85981 0.0
C2291 C 0.50964 0.05616 0.84558 0.0
C2292 C 0.47978 0.997 0.89835 0.0
C2293 C 0.49686 0.0018 0.90986 0.0
C2294 C 0.48687 0.00941 0.88479 0.0
C2295 C 0.51127 0.02707 0.88231 0.0
C2296 C 0.52833 0.03221 0.89392 0.0
C2297 C 0.5212 0.01978 0.90753 0.0
H2298 H 0.16553 0.31435 0.52694 0.0
H2299 H 0.13036 0.24508 0.50568 0.0
H2300 H 0.17612 0.33328 0.50247 0.0
H2301 H 0.14047 0.264 0.48105 0.0
H2302 H 0.18475 0.3069 0.43975 0.0
H2303 H 0.17261 0.28621 0.46381 0.0
H2304 H 0.15955 0.34122 0.48116 0.0
H2305 H 0.1723 0.36203 0.45733 0.0
C2306 C 0.15979 0.30314 0.51701 0.0
C2307 C 0.14699 0.27818 0.51832 0.0
C2308 C 0.16581 0.314 0.50292 0.0
C2309 C 0.15903 0.30026 0.48965 0.0
C2310 C 0.1463 0.27524 0.49096 0.0
C2311 C 0.14044 0.26436 0.5051 0.0
C2312 C 0.17905 0.3144 0.44868 0.0
C2313 C 0.17974 0.33624 0.44666 0.0
C2314 C 0.17204 0.30253 0.4625 0.0
C2315 C 0.16533 0.31211 0.47461 0.0
C2316 C 0.16521 0.33355 0.47232 0.0
C2317 C 0.17242 0.34547 0.4586 0.0
H2318 H 0.70793 0.82375 0.51429 0.0
H2319 H 0.71546 0.89379 0.51565 0.0
H2320 H 0.68746 0.81622 0.49004 0.0
H2321 H 0.69604 0.8867 0.49114 0.0
H2322 H 0.63695 0.85682 0.45528 0.0
H2323 H 0.6565 0.86316 0.4797 0.0
H2324 H 0.6955 0.82835 0.46406 0.0
H2325 H 0.67506 0.82102 0.43982 0.0
C2326 C 0.70523 0.83754 0.50942 0.0
C2327 C 0.71332 0.85937 0.51694 0.0
C2328 C 0.69375 0.83333 0.49544 0.0
C2329 C 0.69008 0.85085 0.48864 0.0
C2330 C 0.69829 0.8727 0.49613 0.0
C2331 C 0.70972 0.87689 0.5101 0.0
C2332 C 0.64945 0.85024 0.4571 0.0
C2333 C 0.6544 0.83838 0.44558 0.0
C2334 C 0.66091 0.85415 0.47105 0.0
C2335 C 0.67766 0.84636 0.47383 0.0
C2336 C 0.68253 0.83439 0.46234 0.0
C2337 C 0.67103 0.83045 0.44839 0.0
H2338 H 0.18123 0.88928 0.51714 0.0
H2339 H 0.11562 0.82043 0.51485 0.0
H2340 H 0.19316 0.8826 0.49243 0.0
H2341 H 0.12762 0.81365 0.4901 0.0
H2342 H 0.1464 0.81893 0.44005 0.0
H2343 H 0.13342 0.82674 0.46417 0.0
H2344 H 0.20735 0.85827 0.48071 0.0
H2345 H 0.22047 0.85138 0.45648 0.0
C2346 C 0.16943 0.87262 0.51141 0.0
C2347 C 0.14755 0.85532 0.51804 0.0
C2348 C 0.17627 0.86878 0.49723 0.0
C2349 C 0.16145 0.84752 0.48929 0.0
C2350 C 0.13935 0.83036 0.49581 0.0
C2351 C 0.13247 0.83423 0.51001 0.0
C2352 C 0.15993 0.82779 0.44878 0.0
C2353 C 0.1845 0.8345 0.4463 0.0
C2354 C 0.15243 0.83202 0.46267 0.0
C2355 C 0.16931 0.84313 0.47442 0.0
C2356 C 0.19388 0.84993 0.47189 0.0
C2357 C 0.20136 0.8457 0.45803 0.0
H2358 H 0.63999 0.84777 0.17559 0.0
H2359 H 0.6327 0.77784 0.1751 0.0
H2360 H 0.65978 0.85569 0.20011 0.0
H2361 H 0.65221 0.7856 0.19964 0.0
H2362 H 0.71051 0.81634 0.23594 0.0
H2363 H 0.69146 0.80959 0.21132 0.0
H2364 H 0.65149 0.84389 0.22608 0.0
H2365 H 0.67145 0.85166 0.25049 0.0
C2366 C 0.64242 0.83402 0.18079 0.0
C2367 C 0.63488 0.81222 0.17339 0.0
C2368 C 0.65374 0.83853 0.19484 0.0
C2369 C 0.65767 0.82131 0.20183 0.0
C2370 C 0.6499 0.79943 0.19446 0.0
C2371 C 0.63869 0.79496 0.1804 0.0
C2372 C 0.69791 0.82273 0.23388 0.0
C2373 C 0.69253 0.83455 0.2452 0.0
C2374 C 0.68673 0.81858 0.21981 0.0
C2375 C 0.66984 0.8261 0.21673 0.0
C2376 C 0.66457 0.83806 0.22802 0.0
C2377 C 0.6758 0.84225 0.24208 0.0
H2378 H 0.2321 0.84469 0.17699 0.0
H2379 H 0.16859 0.77429 0.17463 0.0
H2380 H 0.21837 0.85128 0.20121 0.0
H2381 H 0.1554 0.78052 0.19904 0.0
H2382 H 0.12448 0.81029 0.23376 0.0
H2383 H 0.13903 0.8038 0.20992 0.0
H2384 H 0.2126 0.83848 0.22737 0.0
H2385 H 0.19811 0.84576 0.25112 0.0
C2386 C 0.21524 0.83061 0.18164 0.0
C2387 C 0.20144 0.80898 0.17382 0.0
C2388 C 0.20751 0.83428 0.19561 0.0
C2389 C 0.18575 0.81645 0.20209 0.0
C2390 C 0.1721 0.79476 0.19432 0.0
C2391 C 0.17983 0.79107 0.18039 0.0
C2392 C 0.14379 0.81672 0.23249 0.0
C2393 C 0.16012 0.82864 0.24436 0.0
C2394 C 0.15211 0.81274 0.21886 0.0
C2395 C 0.177 0.82057 0.21671 0.0
C2396 C 0.19335 0.83241 0.22859 0.0
C2397 C 0.185 0.83635 0.24226 0.0
H2398 H 0.23228 0.3915 0.17541 0.0
H2399 H 0.16609 0.3952 0.17377 0.0
H2400 H 0.22099 0.37333 0.20021 0.0
H2401 H 0.15491 0.37727 0.19855 0.0
H2402 H 0.12816 0.31829 0.23361 0.0
H2403 H 0.14104 0.3394 0.20993 0.0
H2404 H 0.21509 0.37929 0.22641 0.0
H2405 H 0.20226 0.35733 0.25002 0.0
C2406 C 0.21547 0.38872 0.18041 0.0
C2407 C 0.2 0.39462 0.17249 0.0
C2408 C 0.209 0.37832 0.19467 0.0
C2409 C 0.18691 0.37361 0.20141 0.0
C2410 C 0.17179 0.38012 0.19362 0.0
C2411 C 0.17822 0.39043 0.17938 0.0
C2412 C 0.14723 0.33146 0.2322 0.0
C2413 C 0.16418 0.33591 0.24374 0.0
C2414 C 0.1546 0.34383 0.21863 0.0
C2415 C 0.17915 0.36113 0.21618 0.0
C2416 C 0.19608 0.36592 0.22781 0.0
C2417 C 0.18868 0.35352 0.24143 0.0
H2418 H 0.8477 0.60688 0.84972 0.0
H2419 H 0.78207 0.61165 0.84835 0.0
H2420 H 0.85901 0.62503 0.82502 0.0
H2421 H 0.7939 0.63072 0.82385 0.0
H2422 H 0.8122 0.64634 0.77394 0.0
H2423 H 0.7993 0.62428 0.79752 0.0
H2424 H 0.87346 0.66347 0.81389 0.0
H2425 H 0.8864 0.68478 0.79025 0.0
C2426 C 0.83557 0.61166 0.84413 0.0
C2427 C 0.81396 0.60778 0.85111 0.0
C2428 C 0.84222 0.62235 0.83 0.0
C2429 C 0.82747 0.62952 0.82241 0.0
C2430 C 0.80564 0.62528 0.82927 0.0
C2431 C 0.79899 0.6146 0.84343 0.0
C2432 C 0.82579 0.64999 0.7825 0.0
C2433 C 0.85033 0.66746 0.78019 0.0
C2434 C 0.81835 0.63753 0.7961 0.0
C2435 C 0.8353 0.6421 0.80769 0.0
C2436 C 0.85989 0.65924 0.80522 0.0
C2437 C 0.86729 0.67171 0.79169 0.0
H2438 H 0.38071 0.22636 0.84834 0.0
H2439 H 0.374 0.15666 0.8469 0.0
H2440 H 0.36098 0.21903 0.82394 0.0
H2441 H 0.35314 0.14885 0.82277 0.0
H2442 H 0.34109 0.15398 0.77246 0.0
H2443 H 0.36105 0.16093 0.79683 0.0
H2444 H 0.32175 0.19551 0.81235 0.0
H2445 H 0.30275 0.18963 0.78779 0.0
C2446 C 0.37505 0.20946 0.84281 0.0
C2447 C 0.37905 0.19214 0.84957 0.0
C2448 C 0.36342 0.20513 0.8289 0.0
C2449 C 0.35538 0.18331 0.8214 0.0
C2450 C 0.35931 0.16594 0.82816 0.0
C2451 C 0.37101 0.1703 0.84209 0.0
C2452 C 0.33689 0.16327 0.78103 0.0
C2453 C 0.32038 0.17133 0.77813 0.0
C2454 C 0.3481 0.16699 0.79507 0.0
C2455 C 0.34304 0.17881 0.80656 0.0
C2456 C 0.32632 0.18662 0.80371 0.0
C2457 C 0.31517 0.18297 0.78967 0.0
H2458 H 0.84769 0.22833 0.84984 0.0
H2459 H 0.7847 0.15764 0.84744 0.0
H2460 H 0.86054 0.22275 0.82515 0.0
H2461 H 0.79768 0.15192 0.82271 0.0
H2462 H 0.81782 0.15788 0.77281 0.0
H2463 H 0.80331 0.16462 0.79671 0.0
H2464 H 0.87712 0.20029 0.81381 0.0
H2465 H 0.89168 0.19449 0.7898 0.0
C2466 C 0.83665 0.21151 0.84407 0.0
C2467 C 0.81529 0.19334 0.85069 0.0
C2468 C 0.84404 0.2083 0.8299 0.0
C2469 C 0.8303 0.18679 0.82196 0.0
C2470 C 0.8086 0.1688 0.82842 0.0
C2471 C 0.80115 0.17206 0.84261 0.0
C2472 C 0.83098 0.16742 0.78161 0.0
C2473 C 0.85594 0.17563 0.77936 0.0
C2474 C 0.82262 0.17104 0.79538 0.0
C2475 C 0.83902 0.18301 0.80722 0.0
C2476 C 0.86397 0.19127 0.80491 0.0
C2477 C 0.87231 0.18767 0.79118 0.0
H2478 H 0.27235 0.13793 0.51826 0.0
H2479 H 0.34188 0.16004 0.49717 0.0
H2480 H 0.29167 0.14528 0.54286 0.0
H2481 H 0.36107 0.16702 0.52181 0.0
H2482 H 0.37826 0.14789 0.56836 0.0
H2483 H 0.3599 0.14275 0.54361 0.0
H2484 H 0.32184 0.17869 0.55879 0.0
H2485 H 0.34049 0.18422 0.58352 0.0
C2486 C 0.2918 0.14462 0.51885 0.0
C2487 C 0.30554 0.14836 0.50571 0.0
C2488 C 0.30285 0.14879 0.53296 0.0
C2489 C 0.32787 0.15666 0.53426 0.0
C2490 C 0.34168 0.16062 0.52116 0.0
C2491 C 0.33066 0.15657 0.50704 0.0
C2492 C 0.36624 0.155 0.56639 0.0
C2493 C 0.36088 0.16649 0.57795 0.0
C2494 C 0.3557 0.15201 0.5522 0.0
C2495 C 0.33943 0.16032 0.54926 0.0
C2496 C 0.33407 0.17183 0.56079 0.0
C2497 C 0.34472 0.17495 0.57496 0.0
H2498 H 0.89806 0.17945 0.51073 0.0
H2499 H 0.83862 0.10653 0.51056 0.0
H2500 H 0.88398 0.18614 0.53478 0.0
H2501 H 0.82509 0.11315 0.53475 0.0
H2502 H 0.82319 0.12814 0.5851 0.0
H2503 H 0.83899 0.12184 0.56155 0.0
H2504 H 0.84758 0.18786 0.54447 0.0
H2505 H 0.83202 0.19429 0.56808 0.0
C2506 C 0.88197 0.16485 0.51576 0.0
C2507 C 0.8695 0.14244 0.50862 0.0
C2508 C 0.87396 0.1687 0.52957 0.0
C2509 C 0.85343 0.15017 0.53666 0.0
C2510 C 0.84116 0.12769 0.52966 0.0
C2511 C 0.84902 0.1239 0.5158 0.0
C2512 C 0.82862 0.14138 0.57635 0.0
C2513 C 0.82631 0.16168 0.57843 0.0
C2514 C 0.83749 0.13768 0.56283 0.0
C2515 C 0.84451 0.15434 0.55115 0.0
C2516 C 0.8425 0.1748 0.5533 0.0
C2517 C 0.83338 0.17837 0.56676 0.0
H2518 H 0.89015 0.75896 0.51876 0.0
H2519 H 0.84197 0.69139 0.49745 0.0
H2520 H 0.87875 0.73986 0.54335 0.0
H2521 H 0.83061 0.67243 0.52188 0.0
H2522 H 0.79445 0.65084 0.56728 0.0
H2523 H 0.8074 0.67181 0.54354 0.0
H2524 H 0.88162 0.71095 0.55977 0.0
H2525 H 0.86856 0.68982 0.58368 0.0
C2526 C 0.87732 0.74001 0.51929 0.0
C2527 C 0.86681 0.7268 0.50608 0.0
C2528 C 0.87076 0.72906 0.5334 0.0
C2529 C 0.85352 0.70463 0.53465 0.0
C2530 C 0.84348 0.69138 0.52141 0.0
C2531 C 0.85002 0.70228 0.50736 0.0
C2532 C 0.81357 0.66382 0.5658 0.0
C2533 C 0.83049 0.66838 0.57737 0.0
C2534 C 0.82103 0.67586 0.55214 0.0
C2535 C 0.84564 0.69288 0.54961 0.0
C2536 C 0.8625 0.69805 0.56134 0.0
C2537 C 0.85501 0.68595 0.57506 0.0
loop_
_geom_bond_atom_site_label_1
_geom_bond_atom_site_label_2
_geom_bond_distance
_geom_bond_site_symmetry_2
_ccdc_geom_bond_type
C0 C1 1.386 . S
C0 C2 1.397 . S
C0 H24 0.931 . S
C1 C0 1.386 . S
C1 C5 1.397 . S
C2 C0 1.397 . S
C2 C3 1.384 . S
C2 H25 0.930 . S
C3 C2 1.384 . S
C3 C4 1.377 . S
C3 C6 1.481 . S
C4 C3 1.377 . S
C4 C5 1.389 . S
C4 H26 0.929 . S
C5 C1 1.397 . S
C5 C4 1.389 . S
C5 H27 0.931 . S
C6 C3 1.481 . S
C6 C7 1.387 . S
C6 C11 1.390 . S
C7 C6 1.387 . S
C7 C8 1.401 . S
C7 H28 0.930 . S
C8 C7 1.401 . S
C8 C9 1.376 . S
C8 C17 1.511 . S
C9 C8 1.376 . S
C9 C10 1.392 . S
C9 H30 0.931 . S
C10 C9 1.392 . S
C10 C11 1.361 . S
C10 C12 1.500 . S
C11 C6 1.390 . S
C11 C10 1.361 . S
C11 H29 0.931 . S
C12 C10 1.500 . S
C12 C13 1.371 . S
C12 C14 1.365 . S
C13 C12 1.371 . S
C13 C23 1.386 . S
C13 H31 0.931 . S
C14 C12 1.365 . S
C14 C15 1.409 . S
C14 H32 0.929 . S
C15 C14 1.409 . S
C15 C16 1.380 . S
C15 H33 0.930 . S
C16 C15 1.380 . S
C16 C23 1.357 . S
C17 C8 1.511 . S
C17 C18 1.341 . S
C17 C19 1.371 . S
C18 C17 1.341 . S
C18 C22 1.394 . S
C18 H34 0.930 . S
C19 C17 1.371 . S
C19 C20 1.392 . S
C19 H35 0.931 . S
C20 C19 1.392 . S
C20 C21 1.331 . S
C20 H38 0.932 . S
C21 C20 1.331 . S
C21 C22 1.336 . S
C22 C18 1.394 . S
C22 C21 1.336 . S
C22 H37 0.929 . S
C23 C13 1.386 . S
C23 C16 1.357 . S
C23 H36 0.928 . S
H24 C0 0.931 . S
H25 C2 0.930 . S
H26 C4 0.929 . S
H27 C5 0.931 . S
H28 C7 0.930 . S
H29 C11 0.931 . S
H30 C9 0.931 . S
H31 C13 0.931 . S
H32 C14 0.929 . S
H33 C15 0.930 . S
H34 C18 0.930 . S
H35 C19 0.931 . S
H36 C23 0.928 . S
H37 C22 0.929 . S
H38 C20 0.932 . S
C39 C40 1.386 . S
C39 C41 1.397 . S
C39 H63 0.931 . S
C40 C39 1.386 . S
C40 C44 1.397 . S
C41 C39 1.397 . S
C41 C42 1.384 . S
C41 H64 0.930 . S
C42 C41 1.384 . S
C42 C43 1.377 . S
C42 C45 1.481 . S
C43 C42 1.377 . S
C43 C44 1.389 . S
C43 H65 0.929 . S
C44 C40 1.397 . S
C44 C43 1.389 . S
C44 H66 0.931 . S
C45 C42 1.481 . S
C45 C46 1.387 . S
C45 C50 1.390 . S
C46 C45 1.387 . S
C46 C47 1.401 . S
C46 H67 0.930 . S
C47 C46 1.401 . S
C47 C48 1.376 . S
C47 C56 1.511 . S
C48 C47 1.376 . S
C48 C49 1.392 . S
C48 H69 0.931 . S
C49 C48 1.392 . S
C49 C50 1.361 . S
C49 C51 1.500 . S
C50 C45 1.390 . S
C50 C49 1.361 . S
C50 H68 0.931 . S
C51 C49 1.500 . S
C51 C52 1.371 . S
C51 C53 1.365 . S
C52 C51 1.371 . S
C52 C62 1.386 . S
C52 H70 0.931 . S
C53 C51 1.365 . S
C53 C54 1.409 . S
C53 H71 0.929 . S
C54 C53 1.409 . S
C54 C55 1.380 . S
C54 H72 0.930 . S
C55 C54 1.380 . S
C55 C62 1.357 . S
C56 C47 1.511 . S
C56 C57 1.341 . S
C56 C58 1.371 . S
C57 C56 1.341 . S
C57 C61 1.394 . S
C57 H73 0.930 . S
C58 C56 1.371 . S
C58 C59 1.392 . S
C58 H74 0.931 . S
C59 C58 1.392 . S
C59 C60 1.331 . S
C59 H77 0.932 . S
C60 C59 1.331 . S
C60 C61 1.336 . S
C61 C57 1.394 . S
C61 C60 1.336 . S
C61 H76 0.929 . S
C62 C52 1.386 . S
C62 C55 1.357 . S
C62 H75 0.928 . S
H63 C39 0.931 . S
H64 C41 0.930 . S
H65 C43 0.929 . S
H66 C44 0.931 . S
H67 C46 0.930 . S
H68 C50 0.931 . S
H69 C48 0.931 . S
H70 C52 0.931 . S
H71 C53 0.929 . S
H72 C54 0.930 . S
H73 C57 0.930 . S
H74 C58 0.931 . S
H75 C62 0.928 . S
H76 C61 0.929 . S
H77 C59 0.932 . S
C78 C79 1.386 . S
C78 C80 1.397 . S
C78 H102 0.931 . S
C79 C78 1.386 . S
C79 C83 1.397 . S
C80 C78 1.397 . S
C80 C81 1.384 . S
C80 H103 0.930 . S
C81 C80 1.384 . S
C81 C82 1.377 . S
C81 C84 1.481 . S
C82 C81 1.377 . S
C82 C83 1.389 . S
C82 H104 0.929 . S
C83 C79 1.397 . S
C83 C82 1.389 . S
C83 H105 0.931 . S
C84 C81 1.481 . S
C84 C85 1.387 . S
C84 C89 1.390 . S
C85 C84 1.387 . S
C85 C86 1.401 . S
C85 H106 0.930 . S
C86 C85 1.401 . S
C86 C87 1.376 . S
C86 C95 1.511 . S
C87 C86 1.376 . S
C87 C88 1.392 . S
C87 H108 0.931 . S
C88 C87 1.392 . S
C88 C89 1.361 . S
C88 C90 1.500 . S
C89 C84 1.390 . S
C89 C88 1.361 . S
C89 H107 0.931 . S
C90 C88 1.500 . S
C90 C91 1.371 . S
C90 C92 1.365 . S
C91 C90 1.371 . S
C91 C101 1.386 . S
C91 H109 0.931 . S
C92 C90 1.365 . S
C92 C93 1.409 . S
C92 H110 0.929 . S
C93 C92 1.409 . S
C93 C94 1.380 . S
C93 H111 0.930 . S
C94 C93 1.380 . S
C94 C101 1.357 . S
C95 C86 1.511 . S
C95 C96 1.341 . S
C95 C97 1.371 . S
C96 C95 1.341 . S
C96 C100 1.394 . S
C96 H112 0.930 . S
C97 C95 1.371 . S
C97 C98 1.392 . S
C97 H113 0.931 . S
C98 C97 1.392 . S
C98 C99 1.331 . S
C98 H116 0.932 . S
C99 C98 1.331 . S
C99 C100 1.336 . S
C100 C96 1.394 . S
C100 C99 1.336 . S
C100 H115 0.929 . S
C101 C91 1.386 . S
C101 C94 1.357 . S
C101 H114 0.928 . S
H102 C78 0.931 . S
H103 C80 0.930 . S
H104 C82 0.929 . S
H105 C83 0.931 . S
H106 C85 0.930 . S
H107 C89 0.931 . S
H108 C87 0.931 . S
H109 C91 0.931 . S
H110 C92 0.929 . S
H111 C93 0.930 . S
H112 C96 0.930 . S
H113 C97 0.931 . S
H114 C101 0.928 . S
H115 C100 0.929 . S
H116 C98 0.932 . S
C117 C118 1.386 . S
C117 C119 1.397 . S
C117 H141 0.931 . S
C118 C117 1.386 . S
C118 C122 1.397 . S
C119 C117 1.397 . S
C119 C120 1.384 . S
C119 H142 0.930 . S
C120 C119 1.384 . S
C120 C121 1.377 . S
C120 C123 1.481 . S
C121 C120 1.377 . S
C121 C122 1.389 . S
C121 H143 0.929 . S
C122 C118 1.397 . S
C122 C121 1.389 . S
C122 H144 0.931 . S
C123 C120 1.481 . S
C123 C124 1.387 . S
C123 C128 1.390 . S
C124 C123 1.387 . S
C124 C125 1.401 . S
C124 H145 0.930 . S
C125 C124 1.401 . S
C125 C126 1.376 . S
C125 C134 1.511 . S
C126 C125 1.376 . S
C126 C127 1.392 . S
C126 H147 0.931 . S
C127 C126 1.392 . S
C127 C128 1.361 . S
C127 C129 1.500 . S
C128 C123 1.390 . S
C128 C127 1.361 . S
C128 H146 0.931 . S
C129 C127 1.500 . S
C129 C130 1.371 . S
C129 C131 1.365 . S
C130 C129 1.371 . S
C130 C140 1.386 . S
C130 H148 0.931 . S
C131 C129 1.365 . S
C131 C132 1.409 . S
C131 H149 0.929 . S
C132 C131 1.409 . S
C132 C133 1.380 . S
C132 H150 0.930 . S
C133 C132 1.380 . S
C133 C140 1.357 . S
C134 C125 1.511 . S
C134 C135 1.341 . S
C134 C136 1.371 . S
C135 C134 1.341 . S
C135 C139 1.394 . S
C135 H151 0.930 . S
C136 C134 1.371 . S
C136 C137 1.392 . S
C136 H152 0.931 . S
C137 C136 1.392 . S
C137 C138 1.331 . S
C137 H155 0.932 . S
C138 C137 1.331 . S
C138 C139 1.336 . S
C139 C135 1.394 . S
C139 C138 1.336 . S
C139 H154 0.929 . S
C140 C130 1.386 . S
C140 C133 1.357 . S
C140 H153 0.928 . S
H141 C117 0.931 . S
H142 C119 0.930 . S
H143 C121 0.929 . S
H144 C122 0.931 . S
H145 C124 0.930 . S
H146 C128 0.931 . S
H147 C126 0.931 . S
H148 C130 0.931 . S
H149 C131 0.929 . S
H150 C132 0.930 . S
H151 C135 0.930 . S
H152 C136 0.931 . S
H153 C140 0.928 . S
H154 C139 0.929 . S
H155 C137 0.932 . S
C156 C157 1.386 . S
C156 C158 1.397 . S
C156 H180 0.931 . S
C157 C156 1.386 . S
C157 C161 1.397 . S
C158 C156 1.397 . S
C158 C159 1.384 . S
C158 H181 0.930 . S
C159 C158 1.384 . S
C159 C160 1.377 . S
C159 C162 1.481 . S
C160 C159 1.377 . S
C160 C161 1.389 . S
C160 H182 0.929 . S
C161 C157 1.397 . S
C161 C160 1.389 . S
C161 H183 0.931 . S
C162 C159 1.481 . S
C162 C163 1.387 . S
C162 C167 1.390 . S
C163 C162 1.387 . S
C163 C164 1.401 . S
C163 H184 0.930 . S
C164 C163 1.401 . S
C164 C165 1.376 . S
C164 C173 1.511 . S
C165 C164 1.376 . S
C165 C166 1.392 . S
C165 H186 0.931 . S
C166 C165 1.392 . S
C166 C167 1.361 . S
C166 C168 1.500 . S
C167 C162 1.390 . S
C167 C166 1.361 . S
C167 H185 0.931 . S
C168 C166 1.500 . S
C168 C169 1.371 . S
C168 C170 1.365 . S
C169 C168 1.371 . S
C169 C179 1.386 . S
C169 H187 0.931 . S
C170 C168 1.365 . S
C170 C171 1.409 . S
C170 H188 0.929 . S
C171 C170 1.409 . S
C171 C172 1.380 . S
C171 H189 0.930 . S
C172 C171 1.380 . S
C172 C179 1.357 . S
C173 C164 1.511 . S
C173 C174 1.341 . S
C173 C175 1.371 . S
C174 C173 1.341 . S
C174 C178 1.394 . S
C174 H190 0.930 . S
C175 C173 1.371 . S
C175 C176 1.392 . S
C175 H191 0.931 . S
C176 C175 1.392 . S
C176 C177 1.331 . S
C176 H194 0.932 . S
C177 C176 1.331 . S
C177 C178 1.336 . S
C178 C174 1.394 . S
C178 C177 1.336 . S
C178 H193 0.929 . S
C179 C169 1.386 . S
C179 C172 1.357 . S
C179 H192 0.928 . S
H180 C156 0.931 . S
H181 C158 0.930 . S
H182 C160 0.929 . S
H183 C161 0.931 . S
H184 C163 0.930 . S
H185 C167 0.931 . S
H186 C165 0.931 . S
H187 C169 0.931 . S
H188 C170 0.929 . S
H189 C171 0.930 . S
H190 C174 0.930 . S
H191 C175 0.931 . S
H192 C179 0.928 . S
H193 C178 0.929 . S
H194 C176 0.932 . S
C195 C196 1.386 . S
C195 C197 1.397 . S
C195 H219 0.931 . S
C196 C195 1.386 . S
C196 C200 1.397 . S
C197 C195 1.397 . S
C197 C198 1.384 . S
C197 H220 0.930 . S
C198 C197 1.384 . S
C198 C199 1.377 . S
C198 C201 1.481 . S
C199 C198 1.377 . S
C199 C200 1.389 . S
C199 H221 0.929 . S
C200 C196 1.397 . S
C200 C199 1.389 . S
C200 H222 0.931 . S
C201 C198 1.481 . S
C201 C202 1.387 . S
C201 C206 1.390 . S
C202 C201 1.387 . S
C202 C203 1.401 . S
C202 H223 0.930 . S
C203 C202 1.401 . S
C203 C204 1.376 . S
C203 C212 1.511 . S
C204 C203 1.376 . S
C204 C205 1.392 . S
C204 H225 0.931 . S
C205 C204 1.392 . S
C205 C206 1.361 . S
C205 C207 1.500 . S
C206 C201 1.390 . S
C206 C205 1.361 . S
C206 H224 0.931 . S
C207 C205 1.500 . S
C207 C208 1.371 . S
C207 C209 1.365 . S
C208 C207 1.371 . S
C208 C218 1.386 . S
C208 H226 0.931 . S
C209 C207 1.365 . S
C209 C210 1.409 . S
C209 H227 0.929 . S
C210 C209 1.409 . S
C210 C211 1.380 . S
C210 H228 0.930 . S
C211 C210 1.380 . S
C211 C218 1.357 . S
C212 C203 1.511 . S
C212 C213 1.341 . S
C212 C214 1.371 . S
C213 C212 1.341 . S
C213 C217 1.394 . S
C213 H229 0.930 . S
C214 C212 1.371 . S
C214 C215 1.392 . S
C214 H230 0.931 . S
C215 C214 1.392 . S
C215 C216 1.331 . S
C215 H233 0.932 . S
C216 C215 1.331 . S
C216 C217 1.336 . S
C217 C213 1.394 . S
C217 C216 1.336 . S
C217 H232 0.929 . S
C218 C208 1.386 . S
C218 C211 1.357 . S
C218 H231 0.928 . S
H219 C195 0.931 . S
H220 C197 0.930 . S
H221 C199 0.929 . S
H222 C200 0.931 . S
H223 C202 0.930 . S
H224 C206 0.931 . S
H225 C204 0.931 . S
H226 C208 0.931 . S
H227 C209 0.929 . S
H228 C210 0.930 . S
H229 C213 0.930 . S
H230 C214 0.931 . S
H231 C218 0.928 . S
H232 C217 0.929 . S
H233 C215 0.932 . S
C234 C235 1.386 . S
C234 C236 1.397 . S
C234 H258 0.931 . S
C235 C234 1.386 . S
C235 C239 1.397 . S
C236 C234 1.397 . S
C236 C237 1.384 . S
C236 H259 0.930 . S
C237 C236 1.384 . S
C237 C238 1.377 . S
C237 C240 1.481 . S
C238 C237 1.377 . S
C238 C239 1.389 . S
C238 H260 0.929 . S
C239 C235 1.397 . S
C239 C238 1.389 . S
C239 H261 0.931 . S
C240 C237 1.481 . S
C240 C241 1.387 . S
C240 C245 1.390 . S
C241 C240 1.387 . S
C241 C242 1.401 . S
C241 H262 0.930 . S
C242 C241 1.401 . S
C242 C243 1.376 . S
C242 C251 1.511 . S
C243 C242 1.376 . S
C243 C244 1.392 . S
C243 H264 0.931 . S
C244 C243 1.392 . S
C244 C245 1.361 . S
C244 C246 1.500 . S
C245 C240 1.390 . S
C245 C244 1.361 . S
C245 H263 0.931 . S
C246 C244 1.500 . S
C246 C247 1.371 . S
C246 C248 1.365 . S
C247 C246 1.371 . S
C247 C257 1.386 . S
C247 H265 0.931 . S
C248 C246 1.365 . S
C248 C249 1.409 . S
C248 H266 0.929 . S
C249 C248 1.409 . S
C249 C250 1.380 . S
C249 H267 0.930 . S
C250 C249 1.380 . S
C250 C257 1.357 . S
C251 C242 1.511 . S
C251 C252 1.341 . S
C251 C253 1.371 . S
C252 C251 1.341 . S
C252 C256 1.394 . S
C252 H268 0.930 . S
C253 C251 1.371 . S
C253 C254 1.392 . S
C253 H269 0.931 . S
C254 C253 1.392 . S
C254 C255 1.331 . S
C254 H272 0.932 . S
C255 C254 1.331 . S
C255 C256 1.336 . S
C256 C252 1.394 . S
C256 C255 1.336 . S
C256 H271 0.929 . S
C257 C247 1.386 . S
C257 C250 1.357 . S
C257 H270 0.928 . S
H258 C234 0.931 . S
H259 C236 0.930 . S
H260 C238 0.929 . S
H261 C239 0.931 . S
H262 C241 0.930 . S
H263 C245 0.931 . S
H264 C243 0.931 . S
H265 C247 0.931 . S
H266 C248 0.929 . S
H267 C249 0.930 . S
H268 C252 0.930 . S
H269 C253 0.931 . S
H270 C257 0.928 . S
H271 C256 0.929 . S
H272 C254 0.932 . S
C273 C274 1.386 . S
C273 C275 1.397 . S
C273 H297 0.931 . S
C274 C273 1.386 . S
C274 C278 1.397 . S
C275 C273 1.397 . S
C275 C276 1.384 . S
C275 H298 0.930 . S
C276 C275 1.384 . S
C276 C277 1.377 . S
C276 C279 1.481 . S
C277 C276 1.377 . S
C277 C278 1.389 . S
C277 H299 0.929 . S
C278 C274 1.397 . S
C278 C277 1.389 . S
C278 H300 0.931 . S
C279 C276 1.481 . S
C279 C280 1.387 . S
C279 C284 1.390 . S
C280 C279 1.387 . S
C280 C281 1.401 . S
C280 H301 0.930 . S
C281 C280 1.401 . S
C281 C282 1.376 . S
C281 C290 1.511 . S
C282 C281 1.376 . S
C282 C283 1.392 . S
C282 H303 0.931 . S
C283 C282 1.392 . S
C283 C284 1.361 . S
C283 C285 1.500 . S
C284 C279 1.390 . S
C284 C283 1.361 . S
C284 H302 0.931 . S
C285 C283 1.500 . S
C285 C286 1.371 . S
C285 C287 1.365 . S
C286 C285 1.371 . S
C286 C296 1.386 . S
C286 H304 0.931 . S
C287 C285 1.365 . S
C287 C288 1.409 . S
C287 H305 0.929 . S
C288 C287 1.409 . S
C288 C289 1.380 . S
C288 H306 0.930 . S
C289 C288 1.380 . S
C289 C296 1.357 . S
C290 C281 1.511 . S
C290 C291 1.341 . S
C290 C292 1.371 . S
C291 C290 1.341 . S
C291 C295 1.394 . S
C291 H307 0.930 . S
C292 C290 1.371 . S
C292 C293 1.392 . S
C292 H308 0.931 . S
C293 C292 1.392 . S
C293 C294 1.331 . S
C293 H311 0.932 . S
C294 C293 1.331 . S
C294 C295 1.336 . S
C295 C291 1.394 . S
C295 C294 1.336 . S
C295 H310 0.929 . S
C296 C286 1.386 . S
C296 C289 1.357 . S
C296 H309 0.928 . S
H297 C273 0.931 . S
H298 C275 0.930 . S
H299 C277 0.929 . S
H300 C278 0.931 . S
H301 C280 0.930 . S
H302 C284 0.931 . S
H303 C282 0.931 . S
H304 C286 0.931 . S
H305 C287 0.929 . S
H306 C288 0.930 . S
H307 C291 0.930 . S
H308 C292 0.931 . S
H309 C296 0.928 . S
H310 C295 0.929 . S
H311 C293 0.932 . S
C312 C313 1.386 . S
C312 C314 1.397 . S
C312 H336 0.931 . S
C313 C312 1.386 . S
C313 C317 1.397 . S
C314 C312 1.397 . S
C314 C315 1.384 . S
C314 H337 0.930 . S
C315 C314 1.384 . S
C315 C316 1.377 . S
C315 C318 1.481 . S
C316 C315 1.377 . S
C316 C317 1.389 . S
C316 H338 0.929 . S
C317 C313 1.397 . S
C317 C316 1.389 . S
C317 H339 0.931 . S
C318 C315 1.481 . S
C318 C319 1.387 . S
C318 C323 1.390 . S
C319 C318 1.387 . S
C319 C320 1.401 . S
C319 H340 0.930 . S
C320 C319 1.401 . S
C320 C321 1.376 . S
C320 C329 1.511 . S
C321 C320 1.376 . S
C321 C322 1.392 . S
C321 H342 0.931 . S
C322 C321 1.392 . S
C322 C323 1.361 . S
C322 C324 1.500 . S
C323 C318 1.390 . S
C323 C322 1.361 . S
C323 H341 0.931 . S
C324 C322 1.500 . S
C324 C325 1.371 . S
C324 C326 1.365 . S
C325 C324 1.371 . S
C325 C335 1.386 . S
C325 H343 0.931 . S
C326 C324 1.365 . S
C326 C327 1.409 . S
C326 H344 0.929 . S
C327 C326 1.409 . S
C327 C328 1.380 . S
C327 H345 0.930 . S
C328 C327 1.380 . S
C328 C335 1.357 . S
C329 C320 1.511 . S
C329 C330 1.341 . S
C329 C331 1.371 . S
C330 C329 1.341 . S
C330 C334 1.394 . S
C330 H346 0.930 . S
C331 C329 1.371 . S
C331 C332 1.392 . S
C331 H347 0.931 . S
C332 C331 1.392 . S
C332 C333 1.331 . S
C332 H350 0.932 . S
C333 C332 1.331 . S
C333 C334 1.336 . S
C334 C330 1.394 . S
C334 C333 1.336 . S
C334 H349 0.929 . S
C335 C325 1.386 . S
C335 C328 1.357 . S
C335 H348 0.928 . S
H336 C312 0.931 . S
H337 C314 0.930 . S
H338 C316 0.929 . S
H339 C317 0.931 . S
H340 C319 0.930 . S
H341 C323 0.931 . S
H342 C321 0.931 . S
H343 C325 0.931 . S
H344 C326 0.929 . S
H345 C327 0.930 . S
H346 C330 0.930 . S
H347 C331 0.931 . S
H348 C335 0.928 . S
H349 C334 0.929 . S
H350 C332 0.932 . S
C351 C352 1.386 . S
C351 C353 1.397 . S
C351 H375 0.931 . S
C352 C351 1.386 . S
C352 C356 1.397 . S
C353 C351 1.397 . S
C353 C354 1.384 . S
C353 H376 0.930 . S
C354 C353 1.384 . S
C354 C355 1.377 . S
C354 C357 1.481 . S
C355 C354 1.377 . S
C355 C356 1.389 . S
C355 H377 0.929 . S
C356 C352 1.397 . S
C356 C355 1.389 . S
C356 H378 0.931 . S
C357 C354 1.481 . S
C357 C358 1.387 . S
C357 C362 1.390 . S
C358 C357 1.387 . S
C358 C359 1.401 . S
C358 H379 0.930 . S
C359 C358 1.401 . S
C359 C360 1.376 . S
C359 C368 1.511 . S
C360 C359 1.376 . S
C360 C361 1.392 . S
C360 H381 0.931 . S
C361 C360 1.392 . S
C361 C362 1.361 . S
C361 C363 1.500 . S
C362 C357 1.390 . S
C362 C361 1.361 . S
C362 H380 0.931 . S
C363 C361 1.500 . S
C363 C364 1.371 . S
C363 C365 1.365 . S
C364 C363 1.371 . S
C364 C374 1.386 . S
C364 H382 0.931 . S
C365 C363 1.365 . S
C365 C366 1.409 . S
C365 H383 0.929 . S
C366 C365 1.409 . S
C366 C367 1.380 . S
C366 H384 0.930 . S
C367 C366 1.380 . S
C367 C374 1.357 . S
C368 C359 1.511 . S
C368 C369 1.341 . S
C368 C370 1.371 . S
C369 C368 1.341 . S
C369 C373 1.394 . S
C369 H385 0.930 . S
C370 C368 1.371 . S
C370 C371 1.392 . S
C370 H386 0.931 . S
C371 C370 1.392 . S
C371 C372 1.331 . S
C371 H389 0.932 . S
C372 C371 1.331 . S
C372 C373 1.336 . S
C373 C369 1.394 . S
C373 C372 1.336 . S
C373 H388 0.929 . S
C374 C364 1.386 . S
C374 C367 1.357 . S
C374 H387 0.928 . S
H375 C351 0.931 . S
H376 C353 0.930 . S
H377 C355 0.929 . S
H378 C356 0.931 . S
H379 C358 0.930 . S
H380 C362 0.931 . S
H381 C360 0.931 . S
H382 C364 0.931 . S
H383 C365 0.929 . S
H384 C366 0.930 . S
H385 C369 0.930 . S
H386 C370 0.931 . S
H387 C374 0.928 . S
H388 C373 0.929 . S
H389 C371 0.932 . S
C390 C391 1.386 . S
C390 C392 1.397 . S
C390 H414 0.931 . S
C391 C390 1.386 . S
C391 C395 1.397 . S
C392 C390 1.397 . S
C392 C393 1.384 . S
C392 H415 0.930 . S
C393 C392 1.384 . S
C393 C394 1.377 . S
C393 C396 1.481 . S
C394 C393 1.377 . S
C394 C395 1.389 . S
C394 H416 0.929 . S
C395 C391 1.397 . S
C395 C394 1.389 . S
C395 H417 0.931 . S
C396 C393 1.481 . S
C396 C397 1.387 . S
C396 C401 1.390 . S
C397 C396 1.387 . S
C397 C398 1.401 . S
C397 H418 0.930 . S
C398 C397 1.401 . S
C398 C399 1.376 . S
C398 C407 1.511 . S
C399 C398 1.376 . S
C399 C400 1.392 . S
C399 H420 0.931 . S
C400 C399 1.392 . S
C400 C401 1.361 . S
C400 C402 1.500 . S
C401 C396 1.390 . S
C401 C400 1.361 . S
C401 H419 0.931 . S
C402 C400 1.500 . S
C402 C403 1.371 . S
C402 C404 1.365 . S
C403 C402 1.371 . S
C403 C413 1.386 . S
C403 H421 0.931 . S
C404 C402 1.365 . S
C404 C405 1.409 . S
C404 H422 0.929 . S
C405 C404 1.409 . S
C405 C406 1.380 . S
C405 H423 0.930 . S
C406 C405 1.380 . S
C406 C413 1.357 . S
C407 C398 1.511 . S
C407 C408 1.341 . S
C407 C409 1.371 . S
C408 C407 1.341 . S
C408 C412 1.394 . S
C408 H424 0.930 . S
C409 C407 1.371 . S
C409 C410 1.392 . S
C409 H425 0.931 . S
C410 C409 1.392 . S
C410 C411 1.331 . S
C410 H428 0.932 . S
C411 C410 1.331 . S
C411 C412 1.336 . S
C412 C408 1.394 . S
C412 C411 1.336 . S
C412 H427 0.929 . S
C413 C403 1.386 . S
C413 C406 1.357 . S
C413 H426 0.928 . S
H414 C390 0.931 . S
H415 C392 0.930 . S
H416 C394 0.929 . S
H417 C395 0.931 . S
H418 C397 0.930 . S
H419 C401 0.931 . S
H420 C399 0.931 . S
H421 C403 0.931 . S
H422 C404 0.929 . S
H423 C405 0.930 . S
H424 C408 0.930 . S
H425 C409 0.931 . S
H426 C413 0.928 . S
H427 C412 0.929 . S
H428 C410 0.932 . S
C429 C430 1.386 . S
C429 C431 1.397 . S
C429 H453 0.931 . S
C430 C429 1.386 . S
C430 C434 1.397 . S
C431 C429 1.397 . S
C431 C432 1.384 . S
C431 H454 0.930 . S
C432 C431 1.384 . S
C432 C433 1.377 . S
C432 C435 1.481 . S
C433 C432 1.377 . S
C433 C434 1.389 . S
C433 H455 0.929 . S
C434 C430 1.397 . S
C434 C433 1.389 . S
C434 H456 0.931 . S
C435 C432 1.481 . S
C435 C436 1.387 . S
C435 C440 1.390 . S
C436 C435 1.387 . S
C436 C437 1.401 . S
C436 H457 0.930 . S
C437 C436 1.401 . S
C437 C438 1.376 . S
C437 C446 1.511 . S
C438 C437 1.376 . S
C438 C439 1.392 . S
C438 H459 0.931 . S
C439 C438 1.392 . S
C439 C440 1.361 . S
C439 C441 1.500 . S
C440 C435 1.390 . S
C440 C439 1.361 . S
C440 H458 0.931 . S
C441 C439 1.500 . S
C441 C442 1.371 . S
C441 C443 1.365 . S
C442 C441 1.371 . S
C442 C452 1.386 . S
C442 H460 0.931 . S
C443 C441 1.365 . S
C443 C444 1.409 . S
C443 H461 0.929 . S
C444 C443 1.409 . S
C444 C445 1.380 . S
C444 H462 0.930 . S
C445 C444 1.380 . S
C445 C452 1.357 . S
C446 C437 1.511 . S
C446 C447 1.341 . S
C446 C448 1.371 . S
C447 C446 1.341 . S
C447 C451 1.394 . S
C447 H463 0.930 . S
C448 C446 1.371 . S
C448 C449 1.392 . S
C448 H464 0.931 . S
C449 C448 1.392 . S
C449 C450 1.331 . S
C449 H467 0.932 . S
C450 C449 1.331 . S
C450 C451 1.336 . S
C451 C447 1.394 . S
C451 C450 1.336 . S
C451 H466 0.929 . S
C452 C442 1.386 . S
C452 C445 1.357 . S
C452 H465 0.928 . S
H453 C429 0.931 . S
H454 C431 0.930 . S
H455 C433 0.929 . S
H456 C434 0.931 . S
H457 C436 0.930 . S
H458 C440 0.931 . S
H459 C438 0.931 . S
H460 C442 0.931 . S
H461 C443 0.929 . S
H462 C444 0.930 . S
H463 C447 0.930 . S
H464 C448 0.931 . S
H465 C452 0.928 . S
H466 C451 0.929 . S
H467 C449 0.932 . S
C468 C469 1.386 . S
C468 C470 1.397 . S
C468 H492 0.931 . S
C469 C468 1.386 . S
C469 C473 1.397 . S
C470 C468 1.397 . S
C470 C471 1.384 . S
C470 H493 0.930 . S
C471 C470 1.384 . S
C471 C472 1.377 . S
C471 C474 1.481 . S
C472 C471 1.377 . S
C472 C473 1.389 . S
C472 H494 0.929 . S
C473 C469 1.397 . S
C473 C472 1.389 . S
C473 H495 0.931 . S
C474 C471 1.481 . S
C474 C475 1.387 . S
C474 C479 1.390 . S
C475 C474 1.387 . S
C475 C476 1.401 . S
C475 H496 0.930 . S
C476 C475 1.401 . S
C476 C477 1.376 . S
C476 C485 1.511 . S
C477 C476 1.376 . S
C477 C478 1.392 . S
C477 H498 0.931 . S
C478 C477 1.392 . S
C478 C479 1.361 . S
C478 C480 1.500 . S
C479 C474 1.390 . S
C479 C478 1.361 . S
C479 H497 0.931 . S
C480 C478 1.500 . S
C480 C481 1.371 . S
C480 C482 1.365 . S
C481 C480 1.371 . S
C481 C491 1.386 . S
C481 H499 0.931 . S
C482 C480 1.365 . S
C482 C483 1.409 . S
C482 H500 0.929 . S
C483 C482 1.409 . S
C483 C484 1.380 . S
C483 H501 0.930 . S
C484 C483 1.380 . S
C484 C491 1.357 . S
C485 C476 1.511 . S
C485 C486 1.341 . S
C485 C487 1.371 . S
C486 C485 1.341 . S
C486 C490 1.394 . S
C486 H502 0.930 . S
C487 C485 1.371 . S
C487 C488 1.392 . S
C487 H503 0.931 . S
C488 C487 1.392 . S
C488 C489 1.331 . S
C488 H506 0.932 . S
C489 C488 1.331 . S
C489 C490 1.336 . S
C490 C486 1.394 . S
C490 C489 1.336 . S
C490 H505 0.929 . S
C491 C481 1.386 . S
C491 C484 1.357 . S
C491 H504 0.928 . S
H492 C468 0.931 . S
H493 C470 0.930 . S
H494 C472 0.929 . S
H495 C473 0.931 . S
H496 C475 0.930 . S
H497 C479 0.931 . S
H498 C477 0.931 . S
H499 C481 0.931 . S
H500 C482 0.929 . S
H501 C483 0.930 . S
H502 C486 0.930 . S
H503 C487 0.931 . S
H504 C491 0.928 . S
H505 C490 0.929 . S
H506 C488 0.932 . S
C507 C508 1.386 . S
C507 C509 1.397 . S
C507 H531 0.931 . S
C508 C507 1.386 . S
C508 C512 1.397 . S
C509 C507 1.397 . S
C509 C510 1.384 . S
C509 H532 0.930 . S
C510 C509 1.384 . S
C510 C511 1.377 . S
C510 C513 1.481 . S
C511 C510 1.377 . S
C511 C512 1.389 . S
C511 H533 0.929 . S
C512 C508 1.397 . S
C512 C511 1.389 . S
C512 H534 0.931 . S
C513 C510 1.481 . S
C513 C514 1.387 . S
C513 C518 1.390 . S
C514 C513 1.387 . S
C514 C515 1.401 . S
C514 H535 0.930 . S
C515 C514 1.401 . S
C515 C516 1.376 . S
C515 C524 1.511 . S
C516 C515 1.376 . S
C516 C517 1.392 . S
C516 H537 0.931 . S
C517 C516 1.392 . S
C517 C518 1.361 . S
C517 C519 1.500 . S
C518 C513 1.390 . S
C518 C517 1.361 . S
C518 H536 0.931 . S
C519 C517 1.500 . S
C519 C520 1.371 . S
C519 C521 1.365 . S
C520 C519 1.371 . S
C520 C530 1.386 . S
C520 H538 0.931 . S
C521 C519 1.365 . S
C521 C522 1.409 . S
C521 H539 0.929 . S
C522 C521 1.409 . S
C522 C523 1.380 . S
C522 H540 0.930 . S
C523 C522 1.380 . S
C523 C530 1.357 . S
C524 C515 1.511 . S
C524 C525 1.341 . S
C524 C526 1.371 . S
C525 C524 1.341 . S
C525 C529 1.394 . S
C525 H541 0.930 . S
C526 C524 1.371 . S
C526 C527 1.392 . S
C526 H542 0.931 . S
C527 C526 1.392 . S
C527 C528 1.331 . S
C527 H545 0.932 . S
C528 C527 1.331 . S
C528 C529 1.336 . S
C529 C525 1.394 . S
C529 C528 1.336 . S
C529 H544 0.929 . S
C530 C520 1.386 . S
C530 C523 1.357 . S
C530 H543 0.928 . S
H531 C507 0.931 . S
H532 C509 0.930 . S
H533 C511 0.929 . S
H534 C512 0.931 . S
H535 C514 0.930 . S
H536 C518 0.931 . S
H537 C516 0.931 . S
H538 C520 0.931 . S
H539 C521 0.929 . S
H540 C522 0.930 . S
H541 C525 0.930 . S
H542 C526 0.931 . S
H543 C530 0.928 . S
H544 C529 0.929 . S
H545 C527 0.932 . S
C546 C547 1.386 . S
C546 C548 1.397 . S
C546 H570 0.931 . S
C547 C546 1.386 . S
C547 C551 1.397 . S
C548 C546 1.397 . S
C548 C549 1.384 . S
C548 H571 0.930 . S
C549 C548 1.384 . S
C549 C550 1.377 . S
C549 C552 1.481 . S
C550 C549 1.377 . S
C550 C551 1.389 . S
C550 H572 0.929 . S
C551 C547 1.397 . S
C551 C550 1.389 . S
C551 H573 0.931 . S
C552 C549 1.481 . S
C552 C553 1.387 . S
C552 C557 1.390 . S
C553 C552 1.387 . S
C553 C554 1.401 . S
C553 H574 0.930 . S
C554 C553 1.401 . S
C554 C555 1.376 . S
C554 C563 1.511 . S
C555 C554 1.376 . S
C555 C556 1.392 . S
C555 H576 0.931 . S
C556 C555 1.392 . S
C556 C557 1.361 . S
C556 C558 1.500 . S
C557 C552 1.390 . S
C557 C556 1.361 . S
C557 H575 0.931 . S
C558 C556 1.500 . S
C558 C559 1.371 . S
C558 C560 1.365 . S
C559 C558 1.371 . S
C559 C569 1.386 . S
C559 H577 0.931 . S
C560 C558 1.365 . S
C560 C561 1.409 . S
C560 H578 0.929 . S
C561 C560 1.409 . S
C561 C562 1.380 . S
C561 H579 0.930 . S
C562 C561 1.380 . S
C562 C569 1.357 . S
C563 C554 1.511 . S
C563 C564 1.341 . S
C563 C565 1.371 . S
C564 C563 1.341 . S
C564 C568 1.394 . S
C564 H580 0.930 . S
C565 C563 1.371 . S
C565 C566 1.392 . S
C565 H581 0.931 . S
C566 C565 1.392 . S
C566 C567 1.331 . S
C566 H584 0.932 . S
C567 C566 1.331 . S
C567 C568 1.336 . S
C568 C564 1.394 . S
C568 C567 1.336 . S
C568 H583 0.929 . S
C569 C559 1.386 . S
C569 C562 1.357 . S
C569 H582 0.928 . S
H570 C546 0.931 . S
H571 C548 0.930 . S
H572 C550 0.929 . S
H573 C551 0.931 . S
H574 C553 0.930 . S
H575 C557 0.931 . S
H576 C555 0.931 . S
H577 C559 0.931 . S
H578 C560 0.929 . S
H579 C561 0.930 . S
H580 C564 0.930 . S
H581 C565 0.931 . S
H582 C569 0.928 . S
H583 C568 0.929 . S
H584 C566 0.932 . S
C585 C586 1.386 . S
C585 C587 1.397 . S
C585 H609 0.931 . S
C586 C585 1.386 . S
C586 C590 1.397 . S
C587 C585 1.397 . S
C587 C588 1.384 . S
C587 H610 0.930 . S
C588 C587 1.384 . S
C588 C589 1.377 . S
C588 C591 1.481 . S
C589 C588 1.377 . S
C589 C590 1.389 . S
C589 H611 0.929 . S
C590 C586 1.397 . S
C590 C589 1.389 . S
C590 H612 0.931 . S
C591 C588 1.481 . S
C591 C592 1.387 . S
C591 C596 1.390 . S
C592 C591 1.387 . S
C592 C593 1.401 . S
C592 H613 0.930 . S
C593 C592 1.401 . S
C593 C594 1.376 . S
C593 C602 1.511 . S
C594 C593 1.376 . S
C594 C595 1.392 . S
C594 H615 0.931 . S
C595 C594 1.392 . S
C595 C596 1.361 . S
C595 C597 1.500 . S
C596 C591 1.390 . S
C596 C595 1.361 . S
C596 H614 0.931 . S
C597 C595 1.500 . S
C597 C598 1.371 . S
C597 C599 1.365 . S
C598 C597 1.371 . S
C598 C608 1.386 . S
C598 H616 0.931 . S
C599 C597 1.365 . S
C599 C600 1.409 . S
C599 H617 0.929 . S
C600 C599 1.409 . S
C600 C601 1.380 . S
C600 H618 0.930 . S
C601 C600 1.380 . S
C601 C608 1.357 . S
C602 C593 1.511 . S
C602 C603 1.341 . S
C602 C604 1.371 . S
C603 C602 1.341 . S
C603 C607 1.394 . S
C603 H619 0.930 . S
C604 C602 1.371 . S
C604 C605 1.392 . S
C604 H620 0.931 . S
C605 C604 1.392 . S
C605 C606 1.331 . S
C605 H623 0.932 . S
C606 C605 1.331 . S
C606 C607 1.336 . S
C607 C603 1.394 . S
C607 C606 1.336 . S
C607 H622 0.929 . S
C608 C598 1.386 . S
C608 C601 1.357 . S
C608 H621 0.928 . S
H609 C585 0.931 . S
H610 C587 0.930 . S
H611 C589 0.929 . S
H612 C590 0.931 . S
H613 C592 0.930 . S
H614 C596 0.931 . S
H615 C594 0.931 . S
H616 C598 0.931 . S
H617 C599 0.929 . S
H618 C600 0.930 . S
H619 C603 0.930 . S
H620 C604 0.931 . S
H621 C608 0.928 . S
H622 C607 0.929 . S
H623 C605 0.932 . S
C624 C625 1.386 . S
C624 C626 1.397 . S
C624 H648 0.931 . S
C625 C624 1.386 . S
C625 C629 1.397 . S
C626 C624 1.397 . S
C626 C627 1.384 . S
C626 H649 0.930 . S
C627 C626 1.384 . S
C627 C628 1.377 . S
C627 C630 1.481 . S
C628 C627 1.377 . S
C628 C629 1.389 . S
C628 H650 0.929 . S
C629 C625 1.397 . S
C629 C628 1.389 . S
C629 H651 0.931 . S
C630 C627 1.481 . S
C630 C631 1.387 . S
C630 C635 1.390 . S
C631 C630 1.387 . S
C631 C632 1.401 . S
C631 H652 0.930 . S
C632 C631 1.401 . S
C632 C633 1.376 . S
C632 C641 1.511 . S
C633 C632 1.376 . S
C633 C634 1.392 . S
C633 H654 0.931 . S
C634 C633 1.392 . S
C634 C635 1.361 . S
C634 C636 1.500 . S
C635 C630 1.390 . S
C635 C634 1.361 . S
C635 H653 0.931 . S
C636 C634 1.500 . S
C636 C637 1.371 . S
C636 C638 1.365 . S
C637 C636 1.371 . S
C637 C647 1.386 . S
C637 H655 0.931 . S
C638 C636 1.365 . S
C638 C639 1.409 . S
C638 H656 0.929 . S
C639 C638 1.409 . S
C639 C640 1.380 . S
C639 H657 0.930 . S
C640 C639 1.380 . S
C640 C647 1.357 . S
C641 C632 1.511 . S
C641 C642 1.341 . S
C641 C643 1.371 . S
C642 C641 1.341 . S
C642 C646 1.394 . S
C642 H658 0.930 . S
C643 C641 1.371 . S
C643 C644 1.392 . S
C643 H659 0.931 . S
C644 C643 1.392 . S
C644 C645 1.331 . S
C644 H662 0.932 . S
C645 C644 1.331 . S
C645 C646 1.336 . S
C646 C642 1.394 . S
C646 C645 1.336 . S
C646 H661 0.929 . S
C647 C637 1.386 . S
C647 C640 1.357 . S
C647 H660 0.928 . S
H648 C624 0.931 . S
H649 C626 0.930 . S
H650 C628 0.929 . S
H651 C629 0.931 . S
H652 C631 0.930 . S
H653 C635 0.931 . S
H654 C633 0.931 . S
H655 C637 0.931 . S
H656 C638 0.929 . S
H657 C639 0.930 . S
H658 C642 0.930 . S
H659 C643 0.931 . S
H660 C647 0.928 . S
H661 C646 0.929 . S
H662 C644 0.932 . S
C663 C664 1.386 . S
C663 C665 1.397 . S
C663 H687 0.931 . S
C664 C663 1.386 . S
C664 C668 1.397 . S
C665 C663 1.397 . S
C665 C666 1.384 . S
C665 H688 0.930 . S
C666 C665 1.384 . S
C666 C667 1.377 . S
C666 C669 1.481 . S
C667 C666 1.377 . S
C667 C668 1.389 . S
C667 H689 0.929 . S
C668 C664 1.397 . S
C668 C667 1.389 . S
C668 H690 0.931 . S
C669 C666 1.481 . S
C669 C670 1.387 . S
C669 C674 1.390 . S
C670 C669 1.387 . S
C670 C671 1.401 . S
C670 H691 0.930 . S
C671 C670 1.401 . S
C671 C672 1.376 . S
C671 C680 1.511 . S
C672 C671 1.376 . S
C672 C673 1.392 . S
C672 H693 0.931 . S
C673 C672 1.392 . S
C673 C674 1.361 . S
C673 C675 1.500 . S
C674 C669 1.390 . S
C674 C673 1.361 . S
C674 H692 0.931 . S
C675 C673 1.500 . S
C675 C676 1.371 . S
C675 C677 1.365 . S
C676 C675 1.371 . S
C676 C686 1.386 . S
C676 H694 0.931 . S
C677 C675 1.365 . S
C677 C678 1.409 . S
C677 H695 0.929 . S
C678 C677 1.409 . S
C678 C679 1.380 . S
C678 H696 0.930 . S
C679 C678 1.380 . S
C679 C686 1.357 . S
C680 C671 1.511 . S
C680 C681 1.341 . S
C680 C682 1.371 . S
C681 C680 1.341 . S
C681 C685 1.394 . S
C681 H697 0.930 . S
C682 C680 1.371 . S
C682 C683 1.392 . S
C682 H698 0.931 . S
C683 C682 1.392 . S
C683 C684 1.331 . S
C683 H701 0.932 . S
C684 C683 1.331 . S
C684 C685 1.336 . S
C685 C681 1.394 . S
C685 C684 1.336 . S
C685 H700 0.929 . S
C686 C676 1.386 . S
C686 C679 1.357 . S
C686 H699 0.928 . S
H687 C663 0.931 . S
H688 C665 0.930 . S
H689 C667 0.929 . S
H690 C668 0.931 . S
H691 C670 0.930 . S
H692 C674 0.931 . S
H693 C672 0.931 . S
H694 C676 0.931 . S
H695 C677 0.929 . S
H696 C678 0.930 . S
H697 C681 0.930 . S
H698 C682 0.931 . S
H699 C686 0.928 . S
H700 C685 0.929 . S
H701 C683 0.932 . S
Tb702 N733 2.660 . S
Tb702 N740 2.600 . S
Tb702 O746 2.546 . S
Tb702 O747 2.650 1_565 S
Tb702 O749 2.320 1_565 S
Tb702 O750 2.552 1_565 S
Tb702 O751 2.413 . S
Tb702 O753 2.362 1_556 S
Tb702 O754 2.421 . S
Tb702 C766 2.833 . S
C703 C706 1.432 . S
C703 C707 1.414 . S
C703 N710 1.359 . S
C704 C706 1.417 . S
C704 C708 1.432 . S
C704 C716 1.410 . S
C705 C707 1.444 . S
C705 C708 1.317 . S
C705 H728 0.929 . S
C706 C703 1.432 . S
C706 C704 1.417 . S
C706 N714 1.360 . S
C707 C703 1.414 . S
C707 C705 1.444 . S
C707 C712 1.385 . S
C708 C704 1.432 . S
C708 C705 1.317 . S
C708 H720 0.930 . S
C709 C711 1.392 . S
C709 C712 1.370 . S
C709 H721 0.931 . S
N710 C703 1.359 . S
N710 C711 1.327 . S
N710 Tb713 2.600 . S
C711 C709 1.392 . S
C711 N710 1.327 . S
C711 H718 0.930 . S
C712 C707 1.385 . S
C712 C709 1.370 . S
C712 H731 0.930 . S
Tb713 N710 2.600 . S
Tb713 N714 2.660 . S
Tb713 O747 2.295 1_554 S
Tb713 O748 2.421 . S
Tb713 O752 2.546 . S
Tb713 O753 2.610 1_545 S
Tb713 O755 2.320 1_545 S
Tb713 O756 2.552 1_545 S
Tb713 O757 2.413 . S
Tb713 C777 2.833 . S
N714 C706 1.360 . S
N714 Tb713 2.660 . S
N714 C715 1.305 . S
C715 N714 1.305 . S
C715 C717 1.407 . S
C715 H722 0.930 . S
C716 C704 1.410 . S
C716 C717 1.345 . S
C716 H724 0.930 . S
C717 C715 1.407 . S
C717 C716 1.345 . S
C717 H719 0.930 . S
H718 C711 0.930 . S
H719 C717 0.930 . S
H720 C708 0.930 . S
H721 C709 0.931 . S
H722 C715 0.930 . S
H723 C737 0.930 . S
H724 C716 0.930 . S
H725 C743 0.930 . S
H726 C734 0.930 . S
H727 C741 0.931 . S
H728 C705 0.929 . S
H729 C735 0.930 . S
H730 C768 0.930 . S
H731 C712 0.930 . S
H732 C767 0.929 . S
N733 Tb702 2.660 . S
N733 C734 1.305 . S
N733 C738 1.360 . S
C734 H726 0.930 . S
C734 N733 1.305 . S
C734 C737 1.407 . S
C735 H729 0.930 . S
C735 C736 1.410 . S
C735 C737 1.345 . S
C736 C735 1.410 . S
C736 C738 1.417 . S
C736 C768 1.432 . S
C737 H723 0.930 . S
C737 C734 1.407 . S
C737 C735 1.345 . S
C738 N733 1.360 . S
C738 C736 1.417 . S
C738 C742 1.432 . S
H739 C744 0.930 . S
N740 Tb702 2.600 . S
N740 C742 1.359 . S
N740 C743 1.327 . S
C741 H727 0.931 . S
C741 C743 1.392 . S
C741 C744 1.370 . S
C742 C738 1.432 . S
C742 N740 1.359 . S
C742 C745 1.414 . S
C743 H725 0.930 . S
C743 N740 1.327 . S
C743 C741 1.392 . S
C744 H739 0.930 . S
C744 C741 1.370 . S
C744 C745 1.385 . S
C745 C742 1.414 . S
C745 C744 1.385 . S
C745 C767 1.444 . S
O746 Tb702 2.546 . S
O746 C766 1.251 . S
O747 Tb702 2.650 1_545 S
O747 Tb713 2.295 1_556 S
O747 C758 1.339 . S
O748 Tb713 2.421 . S
O748 C765 1.262 1_554 S
O749 Tb702 2.320 1_545 S
O749 C765 1.260 . S
O750 Tb702 2.552 1_545 S
O750 C758 1.243 . S
O751 Tb702 2.413 . S
O751 C766 1.256 . S
O752 Tb713 2.546 . S
O752 C777 1.251 . S
O753 Tb702 2.362 1_554 S
O753 Tb713 2.610 1_565 S
O753 C769 1.283 . S
O754 Tb702 2.421 . S
O754 C776 1.262 1_556 S
O755 Tb713 2.320 1_565 S
O755 C776 1.260 . S
O756 Tb713 2.552 1_565 S
O756 C769 1.243 . S
O757 Tb713 2.413 . S
O757 C777 1.256 . S
C758 O747 1.339 . S
C758 O750 1.243 . S
C759 C761 1.382 1_565 S
C759 C763 1.393 . S
C759 C766 1.500 . S
C760 C761 1.400 . S
C760 C762 1.384 1_545 S
C761 C759 1.382 1_545 S
C761 C760 1.400 . S
C761 H778 0.930 . S
C762 C760 1.384 1_565 S
C762 C764 1.392 . S
C762 H779 0.931 . S
C763 C759 1.393 . S
C763 C764 1.401 . S
C763 H780 0.930 . S
C764 C762 1.392 . S
C764 C763 1.401 . S
C764 H781 0.930 . S
C765 O748 1.262 1_556 S
C765 O749 1.260 . S
C766 Tb702 2.833 . S
C766 O746 1.251 . S
C766 O751 1.256 . S
C766 C759 1.500 . S
C767 H732 0.929 . S
C767 C745 1.444 . S
C767 C768 1.317 . S
C768 H730 0.930 . S
C768 C736 1.432 . S
C768 C767 1.317 . S
C769 O753 1.283 . S
C769 O756 1.243 . S
C770 C771 1.382 1_545 S
C770 C774 1.393 . S
C770 C777 1.500 . S
C771 C770 1.382 1_565 S
C771 C772 1.400 . S
C771 H782 0.930 . S
C772 C771 1.400 . S
C772 C773 1.384 1_565 S
C773 C772 1.384 1_545 S
C773 C775 1.392 . S
C773 H783 0.931 . S
C774 C770 1.393 . S
C774 C775 1.401 . S
C774 H784 0.930 . S
C775 C773 1.392 . S
C775 C774 1.401 . S
C775 H785 0.930 . S
C776 O754 1.262 1_554 S
C776 O755 1.260 . S
C777 Tb713 2.833 . S
C777 O752 1.251 . S
C777 O757 1.256 . S
C777 C770 1.500 . S
H778 C761 0.930 . S
H779 C762 0.931 . S
H780 C763 0.930 . S
H781 C764 0.930 . S
H782 C771 0.930 . S
H783 C773 0.931 . S
H784 C774 0.930 . S
H785 C775 0.930 . S
Tb786 N817 2.660 . S
Tb786 N824 2.600 . S
Tb786 O830 2.546 . S
Tb786 O831 2.610 1_455 S
Tb786 O833 2.320 1_455 S
Tb786 O834 2.552 1_455 S
Tb786 O835 2.413 . S
Tb786 O837 2.362 1_556 S
Tb786 O838 2.421 . S
Tb786 C850 2.833 . S
C787 C790 1.432 . S
C787 C791 1.414 . S
C787 N794 1.359 . S
C788 C790 1.417 . S
C788 C792 1.432 . S
C788 C800 1.410 . S
C789 C791 1.444 . S
C789 C792 1.317 . S
C789 H812 0.929 . S
C790 C787 1.432 . S
C790 C788 1.417 . S
C790 N798 1.360 . S
C791 C787 1.414 . S
C791 C789 1.444 . S
C791 C796 1.385 . S
C792 C788 1.432 . S
C792 C789 1.317 . S
C792 H804 0.930 . S
C793 C795 1.392 . S
C793 C796 1.370 . S
C793 H805 0.931 . S
N794 C787 1.359 . S
N794 C795 1.327 . S
N794 Tb797 2.600 . S
C795 C793 1.392 . S
C795 N794 1.327 . S
C795 H802 0.930 . S
C796 C791 1.385 . S
C796 C793 1.370 . S
C796 H815 0.930 . S
Tb797 N794 2.600 . S
Tb797 N798 2.660 . S
Tb797 O831 2.362 1_554 S
Tb797 O832 2.421 . S
Tb797 O836 2.546 . S
Tb797 O837 2.610 1_655 S
Tb797 O839 2.320 1_655 S
Tb797 O840 2.552 1_655 S
Tb797 O841 2.413 . S
Tb797 C861 2.833 . S
N798 C790 1.360 . S
N798 Tb797 2.660 . S
N798 C799 1.305 . S
C799 N798 1.305 . S
C799 C801 1.407 . S
C799 H806 0.930 . S
C800 C788 1.410 . S
C800 C801 1.345 . S
C800 H808 0.930 . S
C801 C799 1.407 . S
C801 C800 1.345 . S
C801 H803 0.930 . S
H802 C795 0.930 . S
H803 C801 0.930 . S
H804 C792 0.930 . S
H805 C793 0.931 . S
H806 C799 0.930 . S
H807 C821 0.930 . S
H808 C800 0.930 . S
H809 C827 0.930 . S
H810 C818 0.930 . S
H811 C825 0.931 . S
H812 C789 0.929 . S
H813 C819 0.930 . S
H814 C852 0.930 . S
H815 C796 0.930 . S
H816 C851 0.929 . S
N817 Tb786 2.660 . S
N817 C818 1.305 . S
N817 C822 1.360 . S
C818 H810 0.930 . S
C818 N817 1.305 . S
C818 C821 1.407 . S
C819 H813 0.930 . S
C819 C820 1.410 . S
C819 C821 1.345 . S
C820 C819 1.410 . S
C820 C822 1.417 . S
C820 C852 1.432 . S
C821 H807 0.930 . S
C821 C818 1.407 . S
C821 C819 1.345 . S
C822 N817 1.360 . S
C822 C820 1.417 . S
C822 C826 1.432 . S
H823 C828 0.930 . S
N824 Tb786 2.600 . S
N824 C826 1.359 . S
N824 C827 1.327 . S
C825 H811 0.931 . S
C825 C827 1.392 . S
C825 C828 1.370 . S
C826 C822 1.432 . S
C826 N824 1.359 . S
C826 C829 1.414 . S
C827 H809 0.930 . S
C827 N824 1.327 . S
C827 C825 1.392 . S
C828 H823 0.930 . S
C828 C825 1.370 . S
C828 C829 1.385 . S
C829 C826 1.414 . S
C829 C828 1.385 . S
C829 C851 1.444 . S
O830 Tb786 2.546 . S
O830 C850 1.251 . S
O831 Tb786 2.610 1_655 S
O831 Tb797 2.362 1_556 S
O831 C842 1.283 . S
O832 Tb797 2.421 . S
O832 C849 1.262 1_554 S
O833 Tb786 2.320 1_655 S
O833 C849 1.260 . S
O834 Tb786 2.552 1_655 S
O834 C842 1.243 . S
O835 Tb786 2.413 . S
O835 C850 1.256 . S
O836 Tb797 2.546 . S
O836 C861 1.251 . S
O837 Tb786 2.362 1_554 S
O837 Tb797 2.610 1_455 S
O837 C853 1.283 . S
O838 Tb786 2.421 . S
O838 C860 1.262 1_556 S
O839 Tb797 2.320 1_455 S
O839 C860 1.260 . S
O840 Tb797 2.552 1_455 S
O840 C853 1.243 . S
O841 Tb797 2.413 . S
O841 C861 1.256 . S
C842 O831 1.283 . S
C842 O834 1.243 . S
C843 C845 1.382 1_455 S
C843 C847 1.393 . S
C843 C850 1.500 . S
C844 C845 1.400 . S
C844 C846 1.384 1_655 S
C845 C843 1.382 1_655 S
C845 C844 1.400 . S
C845 H862 0.930 . S
C846 C844 1.384 1_455 S
C846 C848 1.392 . S
C846 H863 0.931 . S
C847 C843 1.393 . S
C847 C848 1.401 . S
C847 H864 0.930 . S
C848 C846 1.392 . S
C848 C847 1.401 . S
C848 H865 0.930 . S
C849 O832 1.262 1_556 S
C849 O833 1.260 . S
C850 Tb786 2.833 . S
C850 O830 1.251 . S
C850 O835 1.256 . S
C850 C843 1.500 . S
C851 H816 0.929 . S
C851 C829 1.444 . S
C851 C852 1.317 . S
C852 H814 0.930 . S
C852 C820 1.432 . S
C852 C851 1.317 . S
C853 O837 1.283 . S
C853 O840 1.243 . S
C854 C855 1.382 1_655 S
C854 C858 1.393 . S
C854 C861 1.500 . S
C855 C854 1.382 1_455 S
C855 C856 1.400 . S
C855 H866 0.930 . S
C856 C855 1.400 . S
C856 C857 1.384 1_455 S
C857 C856 1.384 1_655 S
C857 C859 1.392 . S
C857 H867 0.931 . S
C858 C854 1.393 . S
C858 C859 1.401 . S
C858 H868 0.930 . S
C859 C857 1.392 . S
C859 C858 1.401 . S
C859 H869 0.930 . S
C860 O838 1.262 1_554 S
C860 O839 1.260 . S
C861 Tb797 2.833 . S
C861 O836 1.251 . S
C861 O841 1.256 . S
C861 C854 1.500 . S
H862 C845 0.930 . S
H863 C846 0.931 . S
H864 C847 0.930 . S
H865 C848 0.930 . S
H866 C855 0.930 . S
H867 C857 0.931 . S
H868 C858 0.930 . S
H869 C859 0.930 . S
Tb870 N901 2.660 . S
Tb870 N908 2.600 . S
Tb870 O914 2.546 . S
Tb870 O915 2.610 . S
Tb870 O917 2.320 . S
Tb870 O918 2.552 . S
Tb870 O919 2.413 . S
Tb870 O921 2.362 1_554 S
Tb870 O922 2.421 . S
Tb870 C934 2.833 . S
C871 C874 1.432 . S
C871 C875 1.414 . S
C871 N878 1.359 . S
C872 C874 1.417 . S
C872 C876 1.432 . S
C872 C884 1.410 . S
C873 C875 1.444 . S
C873 C876 1.317 . S
C873 H896 0.929 . S
C874 C871 1.432 . S
C874 C872 1.417 . S
C874 N882 1.360 . S
C875 C871 1.414 . S
C875 C873 1.444 . S
C875 C880 1.385 . S
C876 C872 1.432 . S
C876 C873 1.317 . S
C876 H888 0.930 . S
C877 C879 1.392 . S
C877 C880 1.370 . S
C877 H889 0.931 . S
N878 C871 1.359 . S
N878 C879 1.327 . S
N878 Tb881 2.600 . S
C879 C877 1.392 . S
C879 N878 1.327 . S
C879 H886 0.930 . S
C880 C875 1.385 . S
C880 C877 1.370 . S
C880 H899 0.930 . S
Tb881 N878 2.600 . S
Tb881 N882 2.660 . S
Tb881 O915 2.362 1_556 S
Tb881 O916 2.421 . S
Tb881 O920 2.546 . S
Tb881 O921 2.610 . S
Tb881 O923 2.320 . S
Tb881 O924 2.552 . S
Tb881 O925 2.413 . S
Tb881 C945 2.833 . S
N882 C874 1.360 . S
N882 Tb881 2.660 . S
N882 C883 1.305 . S
C883 N882 1.305 . S
C883 C885 1.407 . S
C883 H890 0.930 . S
C884 C872 1.410 . S
C884 C885 1.345 . S
C884 H892 0.930 . S
C885 C883 1.407 . S
C885 C884 1.345 . S
C885 H887 0.930 . S
H886 C879 0.930 . S
H887 C885 0.930 . S
H888 C876 0.930 . S
H889 C877 0.931 . S
H890 C883 0.930 . S
H891 C905 0.930 . S
H892 C884 0.930 . S
H893 C911 0.930 . S
H894 C902 0.930 . S
H895 C909 0.931 . S
H896 C873 0.929 . S
H897 C903 0.930 . S
H898 C936 0.930 . S
H899 C880 0.930 . S
H900 C935 0.929 . S
N901 Tb870 2.660 . S
N901 C902 1.305 . S
N901 C906 1.360 . S
C902 H894 0.930 . S
C902 N901 1.305 . S
C902 C905 1.407 . S
C903 H897 0.930 . S
C903 C904 1.410 . S
C903 C905 1.345 . S
C904 C903 1.410 . S
C904 C906 1.417 . S
C904 C936 1.432 . S
C905 H891 0.930 . S
C905 C902 1.407 . S
C905 C903 1.345 . S
C906 N901 1.360 . S
C906 C904 1.417 . S
C906 C910 1.432 . S
H907 C912 0.930 . S
N908 Tb870 2.600 . S
N908 C910 1.359 . S
N908 C911 1.327 . S
C909 H895 0.931 . S
C909 C911 1.392 . S
C909 C912 1.370 . S
C910 C906 1.432 . S
C910 N908 1.359 . S
C910 C913 1.414 . S
C911 H893 0.930 . S
C911 N908 1.327 . S
C911 C909 1.392 . S
C912 H907 0.930 . S
C912 C909 1.370 . S
C912 C913 1.385 . S
C913 C910 1.414 . S
C913 C912 1.385 . S
C913 C935 1.444 . S
O914 Tb870 2.546 . S
O914 C934 1.251 . S
O915 Tb870 2.610 . S
O915 Tb881 2.362 1_554 S
O915 C926 1.283 . S
O916 Tb881 2.421 . S
O916 C933 1.262 1_556 S
O917 Tb870 2.320 . S
O917 C933 1.260 . S
O918 Tb870 2.552 . S
O918 C926 1.243 . S
O919 Tb870 2.413 . S
O919 C934 1.256 . S
O920 Tb881 2.546 . S
O920 C945 1.251 . S
O921 Tb870 2.362 1_556 S
O921 Tb881 2.610 . S
O921 C937 1.283 . S
O922 Tb870 2.421 . S
O922 C944 1.262 1_554 S
O923 Tb881 2.320 . S
O923 C944 1.260 . S
O924 Tb881 2.552 . S
O924 C937 1.243 . S
O925 Tb881 2.413 . S
O925 C945 1.256 . S
C926 O915 1.283 . S
C926 O918 1.243 . S
C927 C929 1.382 . S
C927 C931 1.393 . S
C927 C934 1.500 . S
C928 C929 1.400 . S
C928 C930 1.384 . S
C929 C927 1.382 . S
C929 C928 1.400 . S
C929 H946 0.930 . S
C930 C928 1.384 . S
C930 C932 1.392 . S
C930 H947 0.931 . S
C931 C927 1.393 . S
C931 C932 1.401 . S
C931 H948 0.930 . S
C932 C930 1.392 . S
C932 C931 1.401 . S
C932 H949 0.930 . S
C933 O916 1.262 1_554 S
C933 O917 1.260 . S
C934 Tb870 2.833 . S
C934 O914 1.251 . S
C934 O919 1.256 . S
C934 C927 1.500 . S
C935 H900 0.929 . S
C935 C913 1.444 . S
C935 C936 1.317 . S
C936 H898 0.930 . S
C936 C904 1.432 . S
C936 C935 1.317 . S
C937 O921 1.283 . S
C937 O924 1.243 . S
C938 C939 1.382 . S
C938 C942 1.393 . S
C938 C945 1.500 . S
C939 C938 1.382 . S
C939 C940 1.400 . S
C939 H950 0.930 . S
C940 C939 1.400 . S
C940 C941 1.384 . S
C941 C940 1.384 . S
C941 C943 1.392 . S
C941 H951 0.931 . S
C942 C938 1.393 . S
C942 C943 1.401 . S
C942 H952 0.930 . S
C943 C941 1.392 . S
C943 C942 1.401 . S
C943 H953 0.930 . S
C944 O922 1.262 1_556 S
C944 O923 1.260 . S
C945 Tb881 2.833 . S
C945 O920 1.251 . S
C945 O925 1.256 . S
C945 C938 1.500 . S
H946 C929 0.930 . S
H947 C930 0.931 . S
H948 C931 0.930 . S
H949 C932 0.930 . S
H950 C939 0.930 . S
H951 C941 0.931 . S
H952 C942 0.930 . S
H953 C943 0.930 . S
Tb954 N985 2.660 . S
Tb954 N992 2.600 . S
Tb954 O998 2.546 . S
Tb954 O999 2.610 . S
Tb954 O1001 2.320 . S
Tb954 O1002 2.552 . S
Tb954 O1003 2.413 . S
Tb954 O1005 2.362 . S
Tb954 O1006 2.421 . S
Tb954 C1018 2.833 . S
C955 C958 1.432 . S
C955 C959 1.414 . S
C955 N962 1.359 . S
C956 C958 1.417 . S
C956 C960 1.432 . S
C956 C968 1.410 . S
C957 C959 1.444 . S
C957 C960 1.317 . S
C957 H980 0.929 . S
C958 C955 1.432 . S
C958 C956 1.417 . S
C958 N966 1.360 . S
C959 C955 1.414 . S
C959 C957 1.444 . S
C959 C964 1.385 . S
C960 C956 1.432 . S
C960 C957 1.317 . S
C960 H972 0.930 . S
C961 C963 1.392 . S
C961 C964 1.370 . S
C961 H973 0.931 . S
N962 C955 1.359 . S
N962 C963 1.327 . S
N962 Tb965 2.600 . S
C963 C961 1.392 . S
C963 N962 1.327 . S
C963 H970 0.930 . S
C964 C959 1.385 . S
C964 C961 1.370 . S
C964 H983 0.930 . S
Tb965 N962 2.600 . S
Tb965 N966 2.660 . S
Tb965 O999 2.362 . S
Tb965 O1000 2.421 . S
Tb965 O1004 2.546 . S
Tb965 O1005 2.610 . S
Tb965 O1007 2.320 . S
Tb965 O1008 2.552 . S
Tb965 O1009 2.413 . S
Tb965 C1029 2.833 . S
N966 C958 1.360 . S
N966 Tb965 2.660 . S
N966 C967 1.305 . S
C967 N966 1.305 . S
C967 C969 1.407 . S
C967 H974 0.930 . S
C968 C956 1.410 . S
C968 C969 1.345 . S
C968 H976 0.930 . S
C969 C967 1.407 . S
C969 C968 1.345 . S
C969 H971 0.930 . S
H970 C963 0.930 . S
H971 C969 0.930 . S
H972 C960 0.930 . S
H973 C961 0.931 . S
H974 C967 0.930 . S
H975 C989 0.930 . S
H976 C968 0.930 . S
H977 C995 0.930 . S
H978 C986 0.930 . S
H979 C993 0.931 . S
H980 C957 0.929 . S
H981 C987 0.930 . S
H982 C1020 0.930 . S
H983 C964 0.930 . S
H984 C1019 0.929 . S
N985 Tb954 2.660 . S
N985 C986 1.305 . S
N985 C990 1.360 . S
C986 H978 0.930 . S
C986 N985 1.305 . S
C986 C989 1.407 . S
C987 H981 0.930 . S
C987 C988 1.410 . S
C987 C989 1.345 . S
C988 C987 1.410 . S
C988 C990 1.417 . S
C988 C1020 1.432 . S
C989 H975 0.930 . S
C989 C986 1.407 . S
C989 C987 1.345 . S
C990 N985 1.360 . S
C990 C988 1.417 . S
C990 C994 1.432 . S
H991 C996 0.930 . S
N992 Tb954 2.600 . S
N992 C994 1.359 . S
N992 C995 1.327 . S
C993 H979 0.931 . S
C993 C995 1.392 . S
C993 C996 1.370 . S
C994 C990 1.432 . S
C994 N992 1.359 . S
C994 C997 1.414 . S
C995 H977 0.930 . S
C995 N992 1.327 . S
C995 C993 1.392 . S
C996 H991 0.930 . S
C996 C993 1.370 . S
C996 C997 1.385 . S
C997 C994 1.414 . S
C997 C996 1.385 . S
C997 C1019 1.444 . S
O998 Tb954 2.546 . S
O998 C1018 1.251 . S
O999 Tb954 2.610 . S
O999 Tb965 2.362 . S
O999 C1010 1.283 . S
O1000 Tb965 2.421 . S
O1000 C1017 1.262 . S
O1001 Tb954 2.320 . S
O1001 C1017 1.260 . S
O1002 Tb954 2.552 . S
O1002 C1010 1.243 . S
O1003 Tb954 2.413 . S
O1003 C1018 1.256 . S
O1004 Tb965 2.546 . S
O1004 C1029 1.251 . S
O1005 Tb954 2.362 . S
O1005 Tb965 2.610 . S
O1005 C1021 1.283 . S
O1006 Tb954 2.421 . S
O1006 C1028 1.262 . S
O1007 Tb965 2.320 . S
O1007 C1028 1.260 . S
O1008 Tb965 2.552 . S
O1008 C1021 1.243 . S
O1009 Tb965 2.413 . S
O1009 C1029 1.256 . S
C1010 O999 1.283 . S
C1010 O1002 1.243 . S
C1011 C1013 1.382 . S
C1011 C1015 1.393 . S
C1011 C1018 1.500 . S
C1012 C1013 1.400 . S
C1012 C1014 1.384 . S
C1013 C1011 1.382 . S
C1013 C1012 1.400 . S
C1013 H1030 0.930 . S
C1014 C1012 1.384 . S
C1014 C1016 1.392 . S
C1014 H1031 0.931 . S
C1015 C1011 1.393 . S
C1015 C1016 1.401 . S
C1015 H1032 0.930 . S
C1016 C1014 1.392 . S
C1016 C1015 1.401 . S
C1016 H1033 0.930 . S
C1017 O1000 1.262 . S
C1017 O1001 1.260 . S
C1018 Tb954 2.833 . S
C1018 O998 1.251 . S
C1018 O1003 1.256 . S
C1018 C1011 1.500 . S
C1019 H984 0.929 . S
C1019 C997 1.444 . S
C1019 C1020 1.317 . S
C1020 H982 0.930 . S
C1020 C988 1.432 . S
C1020 C1019 1.317 . S
C1021 O1005 1.283 . S
C1021 O1008 1.243 . S
C1022 C1023 1.382 . S
C1022 C1026 1.393 . S
C1022 C1029 1.500 . S
C1023 C1022 1.382 . S
C1023 C1024 1.400 . S
C1023 H1034 0.930 . S
C1024 C1023 1.400 . S
C1024 C1025 1.384 . S
C1025 C1024 1.384 . S
C1025 C1027 1.392 . S
C1025 H1035 0.931 . S
C1026 C1022 1.393 . S
C1026 C1027 1.401 . S
C1026 H1036 0.930 . S
C1027 C1025 1.392 . S
C1027 C1026 1.401 . S
C1027 H1037 0.930 . S
C1028 O1006 1.262 . S
C1028 O1007 1.260 . S
C1029 Tb965 2.833 . S
C1029 O1004 1.251 . S
C1029 O1009 1.256 . S
C1029 C1022 1.500 . S
H1030 C1013 0.930 . S
H1031 C1014 0.931 . S
H1032 C1015 0.930 . S
H1033 C1016 0.930 . S
H1034 C1023 0.930 . S
H1035 C1025 0.931 . S
H1036 C1026 0.930 . S
H1037 C1027 0.930 . S
Tb1038 N1069 2.660 . S
Tb1038 N1076 2.600 . S
Tb1038 O1082 2.546 . S
Tb1038 O1083 2.610 . S
Tb1038 O1085 2.320 . S
Tb1038 O1086 2.552 . S
Tb1038 O1087 2.413 . S
Tb1038 O1089 2.362 . S
Tb1038 O1090 2.421 . S
Tb1038 C1102 2.833 . S
C1039 C1042 1.432 . S
C1039 C1043 1.414 . S
C1039 N1046 1.359 . S
C1040 C1042 1.417 . S
C1040 C1044 1.432 . S
C1040 C1052 1.410 . S
C1041 C1043 1.444 . S
C1041 C1044 1.317 . S
C1041 H1064 0.929 . S
C1042 C1039 1.432 . S
C1042 C1040 1.417 . S
C1042 N1050 1.360 . S
C1043 C1039 1.414 . S
C1043 C1041 1.444 . S
C1043 C1048 1.385 . S
C1044 C1040 1.432 . S
C1044 C1041 1.317 . S
C1044 H1056 0.930 . S
C1045 C1047 1.392 . S
C1045 C1048 1.370 . S
C1045 H1057 0.931 . S
N1046 C1039 1.359 . S
N1046 C1047 1.327 . S
N1046 Tb1049 2.600 . S
C1047 C1045 1.392 . S
C1047 N1046 1.327 . S
C1047 H1054 0.930 . S
C1048 C1043 1.385 . S
C1048 C1045 1.370 . S
C1048 H1067 0.930 . S
Tb1049 N1046 2.600 . S
Tb1049 N1050 2.660 . S
Tb1049 O1083 2.362 . S
Tb1049 O1084 2.421 . S
Tb1049 O1088 2.546 . S
Tb1049 O1089 2.610 . S
Tb1049 O1091 2.320 . S
Tb1049 O1092 2.552 . S
Tb1049 O1093 2.413 . S
Tb1049 C1113 2.833 . S
N1050 C1042 1.360 . S
N1050 Tb1049 2.660 . S
N1050 C1051 1.305 . S
C1051 N1050 1.305 . S
C1051 C1053 1.407 . S
C1051 H1058 0.930 . S
C1052 C1040 1.410 . S
C1052 C1053 1.345 . S
C1052 H1060 0.930 . S
C1053 C1051 1.407 . S
C1053 C1052 1.345 . S
C1053 H1055 0.930 . S
H1054 C1047 0.930 . S
H1055 C1053 0.930 . S
H1056 C1044 0.930 . S
H1057 C1045 0.931 . S
H1058 C1051 0.930 . S
H1059 C1073 0.930 . S
H1060 C1052 0.930 . S
H1061 C1079 0.930 . S
H1062 C1070 0.930 . S
H1063 C1077 0.931 . S
H1064 C1041 0.929 . S
H1065 C1071 0.930 . S
H1066 C1104 0.930 . S
H1067 C1048 0.930 . S
H1068 C1103 0.929 . S
N1069 Tb1038 2.660 . S
N1069 C1070 1.305 . S
N1069 C1074 1.360 . S
C1070 H1062 0.930 . S
C1070 N1069 1.305 . S
C1070 C1073 1.407 . S
C1071 H1065 0.930 . S
C1071 C1072 1.410 . S
C1071 C1073 1.345 . S
C1072 C1071 1.410 . S
C1072 C1074 1.417 . S
C1072 C1104 1.432 . S
C1073 H1059 0.930 . S
C1073 C1070 1.407 . S
C1073 C1071 1.345 . S
C1074 N1069 1.360 . S
C1074 C1072 1.417 . S
C1074 C1078 1.432 . S
H1075 C1080 0.930 . S
N1076 Tb1038 2.600 . S
N1076 C1078 1.359 . S
N1076 C1079 1.327 . S
C1077 H1063 0.931 . S
C1077 C1079 1.392 . S
C1077 C1080 1.370 . S
C1078 C1074 1.432 . S
C1078 N1076 1.359 . S
C1078 C1081 1.414 . S
C1079 H1061 0.930 . S
C1079 N1076 1.327 . S
C1079 C1077 1.392 . S
C1080 H1075 0.930 . S
C1080 C1077 1.370 . S
C1080 C1081 1.385 . S
C1081 C1078 1.414 . S
C1081 C1080 1.385 . S
C1081 C1103 1.444 . S
O1082 Tb1038 2.546 . S
O1082 C1102 1.251 . S
O1083 Tb1038 2.610 . S
O1083 Tb1049 2.362 . S
O1083 C1094 1.283 . S
O1084 Tb1049 2.421 . S
O1084 C1101 1.262 . S
O1085 Tb1038 2.320 . S
O1085 C1101 1.260 . S
O1086 Tb1038 2.552 . S
O1086 C1094 1.243 . S
O1087 Tb1038 2.413 . S
O1087 C1102 1.256 . S
O1088 Tb1049 2.546 . S
O1088 C1113 1.251 . S
O1089 Tb1038 2.362 . S
O1089 Tb1049 2.610 . S
O1089 C1105 1.283 . S
O1090 Tb1038 2.421 . S
O1090 C1112 1.262 . S
O1091 Tb1049 2.320 . S
O1091 C1112 1.260 . S
O1092 Tb1049 2.552 . S
O1092 C1105 1.243 . S
O1093 Tb1049 2.413 . S
O1093 C1113 1.256 . S
C1094 O1083 1.283 . S
C1094 O1086 1.243 . S
C1095 C1097 1.382 . S
C1095 C1099 1.393 . S
C1095 C1102 1.500 . S
C1096 C1097 1.400 . S
C1096 C1098 1.384 . S
C1097 C1095 1.382 . S
C1097 C1096 1.400 . S
C1097 H1114 0.930 . S
C1098 C1096 1.384 . S
C1098 C1100 1.392 . S
C1098 H1115 0.931 . S
C1099 C1095 1.393 . S
C1099 C1100 1.401 . S
C1099 H1116 0.930 . S
C1100 C1098 1.392 . S
C1100 C1099 1.401 . S
C1100 H1117 0.930 . S
C1101 O1084 1.262 . S
C1101 O1085 1.260 . S
C1102 Tb1038 2.833 . S
C1102 O1082 1.251 . S
C1102 O1087 1.256 . S
C1102 C1095 1.500 . S
C1103 H1068 0.929 . S
C1103 C1081 1.444 . S
C1103 C1104 1.317 . S
C1104 H1066 0.930 . S
C1104 C1072 1.432 . S
C1104 C1103 1.317 . S
C1105 O1089 1.283 . S
C1105 O1092 1.243 . S
C1106 C1107 1.382 . S
C1106 C1110 1.393 . S
C1106 C1113 1.500 . S
C1107 C1106 1.382 . S
C1107 C1108 1.400 . S
C1107 H1118 0.930 . S
C1108 C1107 1.400 . S
C1108 C1109 1.384 . S
C1109 C1108 1.384 . S
C1109 C1111 1.392 . S
C1109 H1119 0.931 . S
C1110 C1106 1.393 . S
C1110 C1111 1.401 . S
C1110 H1120 0.930 . S
C1111 C1109 1.392 . S
C1111 C1110 1.401 . S
C1111 H1121 0.930 . S
C1112 O1090 1.262 . S
C1112 O1091 1.260 . S
C1113 Tb1049 2.833 . S
C1113 O1088 1.251 . S
C1113 O1093 1.256 . S
C1113 C1106 1.500 . S
H1114 C1097 0.930 . S
H1115 C1098 0.931 . S
H1116 C1099 0.930 . S
H1117 C1100 0.930 . S
H1118 C1107 0.930 . S
H1119 C1109 0.931 . S
H1120 C1110 0.930 . S
H1121 C1111 0.930 . S
Tb1122 N1153 2.660 . S
Tb1122 N1160 2.600 . S
Tb1122 O1166 2.546 . S
Tb1122 O1167 2.610 . S
Tb1122 O1169 2.320 . S
Tb1122 O1170 2.552 . S
Tb1122 O1171 2.413 . S
Tb1122 O1173 2.362 . S
Tb1122 O1174 2.421 . S
Tb1122 C1186 2.833 . S
C1123 C1126 1.432 . S
C1123 C1127 1.414 . S
C1123 N1130 1.359 . S
C1124 C1126 1.417 . S
C1124 C1128 1.432 . S
C1124 C1136 1.410 . S
C1125 C1127 1.444 . S
C1125 C1128 1.317 . S
C1125 H1148 0.929 . S
C1126 C1123 1.432 . S
C1126 C1124 1.417 . S
C1126 N1134 1.360 . S
C1127 C1123 1.414 . S
C1127 C1125 1.444 . S
C1127 C1132 1.385 . S
C1128 C1124 1.432 . S
C1128 C1125 1.317 . S
C1128 H1140 0.930 . S
C1129 C1131 1.392 . S
C1129 C1132 1.370 . S
C1129 H1141 0.931 . S
N1130 C1123 1.359 . S
N1130 C1131 1.327 . S
N1130 Tb1133 2.600 . S
C1131 C1129 1.392 . S
C1131 N1130 1.327 . S
C1131 H1138 0.930 . S
C1132 C1127 1.385 . S
C1132 C1129 1.370 . S
C1132 H1151 0.930 . S
Tb1133 N1130 2.600 . S
Tb1133 N1134 2.660 . S
Tb1133 O1167 2.362 . S
Tb1133 O1168 2.421 . S
Tb1133 O1172 2.546 . S
Tb1133 O1173 2.610 . S
Tb1133 O1175 2.320 . S
Tb1133 O1176 2.552 . S
Tb1133 O1177 2.413 . S
Tb1133 C1197 2.833 . S
N1134 C1126 1.360 . S
N1134 Tb1133 2.660 . S
N1134 C1135 1.305 . S
C1135 N1134 1.305 . S
C1135 C1137 1.407 . S
C1135 H1142 0.930 . S
C1136 C1124 1.410 . S
C1136 C1137 1.345 . S
C1136 H1144 0.930 . S
C1137 C1135 1.407 . S
C1137 C1136 1.345 . S
C1137 H1139 0.930 . S
H1138 C1131 0.930 . S
H1139 C1137 0.930 . S
H1140 C1128 0.930 . S
H1141 C1129 0.931 . S
H1142 C1135 0.930 . S
H1143 C1157 0.930 . S
H1144 C1136 0.930 . S
H1145 C1163 0.930 . S
H1146 C1154 0.930 . S
H1147 C1161 0.931 . S
H1148 C1125 0.929 . S
H1149 C1155 0.930 . S
H1150 C1188 0.930 . S
H1151 C1132 0.930 . S
H1152 C1187 0.929 . S
N1153 Tb1122 2.660 . S
N1153 C1154 1.305 . S
N1153 C1158 1.360 . S
C1154 H1146 0.930 . S
C1154 N1153 1.305 . S
C1154 C1157 1.407 . S
C1155 H1149 0.930 . S
C1155 C1156 1.410 . S
C1155 C1157 1.345 . S
C1156 C1155 1.410 . S
C1156 C1158 1.417 . S
C1156 C1188 1.432 . S
C1157 H1143 0.930 . S
C1157 C1154 1.407 . S
C1157 C1155 1.345 . S
C1158 N1153 1.360 . S
C1158 C1156 1.417 . S
C1158 C1162 1.432 . S
H1159 C1164 0.930 . S
N1160 Tb1122 2.600 . S
N1160 C1162 1.359 . S
N1160 C1163 1.327 . S
C1161 H1147 0.931 . S
C1161 C1163 1.392 . S
C1161 C1164 1.370 . S
C1162 C1158 1.432 . S
C1162 N1160 1.359 . S
C1162 C1165 1.414 . S
C1163 H1145 0.930 . S
C1163 N1160 1.327 . S
C1163 C1161 1.392 . S
C1164 H1159 0.930 . S
C1164 C1161 1.370 . S
C1164 C1165 1.385 . S
C1165 C1162 1.414 . S
C1165 C1164 1.385 . S
C1165 C1187 1.444 . S
O1166 Tb1122 2.546 . S
O1166 C1186 1.251 . S
O1167 Tb1122 2.610 . S
O1167 Tb1133 2.362 . S
O1167 C1178 1.283 . S
O1168 Tb1133 2.421 . S
O1168 C1185 1.262 . S
O1169 Tb1122 2.320 . S
O1169 C1185 1.260 . S
O1170 Tb1122 2.552 . S
O1170 C1178 1.243 . S
O1171 Tb1122 2.413 . S
O1171 C1186 1.256 . S
O1172 Tb1133 2.546 . S
O1172 C1197 1.251 . S
O1173 Tb1122 2.362 . S
O1173 Tb1133 2.610 . S
O1173 C1189 1.283 . S
O1174 Tb1122 2.421 . S
O1174 C1196 1.262 . S
O1175 Tb1133 2.320 . S
O1175 C1196 1.260 . S
O1176 Tb1133 2.552 . S
O1176 C1189 1.243 . S
O1177 Tb1133 2.413 . S
O1177 C1197 1.256 . S
C1178 O1167 1.283 . S
C1178 O1170 1.243 . S
C1179 C1181 1.382 . S
C1179 C1183 1.393 . S
C1179 C1186 1.500 . S
C1180 C1181 1.400 . S
C1180 C1182 1.384 . S
C1181 C1179 1.382 . S
C1181 C1180 1.400 . S
C1181 H1198 0.930 . S
C1182 C1180 1.384 . S
C1182 C1184 1.392 . S
C1182 H1199 0.931 . S
C1183 C1179 1.393 . S
C1183 C1184 1.401 . S
C1183 H1200 0.930 . S
C1184 C1182 1.392 . S
C1184 C1183 1.401 . S
C1184 H1201 0.930 . S
C1185 O1168 1.262 . S
C1185 O1169 1.260 . S
C1186 Tb1122 2.833 . S
C1186 O1166 1.251 . S
C1186 O1171 1.256 . S
C1186 C1179 1.500 . S
C1187 H1152 0.929 . S
C1187 C1165 1.444 . S
C1187 C1188 1.317 . S
C1188 H1150 0.930 . S
C1188 C1156 1.432 . S
C1188 C1187 1.317 . S
C1189 O1173 1.283 . S
C1189 O1176 1.243 . S
C1190 C1191 1.382 . S
C1190 C1194 1.393 . S
C1190 C1197 1.500 . S
C1191 C1190 1.382 . S
C1191 C1192 1.400 . S
C1191 H1202 0.930 . S
C1192 C1191 1.400 . S
C1192 C1193 1.384 . S
C1193 C1192 1.384 . S
C1193 C1195 1.392 . S
C1193 H1203 0.931 . S
C1194 C1190 1.393 . S
C1194 C1195 1.401 . S
C1194 H1204 0.930 . S
C1195 C1193 1.392 . S
C1195 C1194 1.401 . S
C1195 H1205 0.930 . S
C1196 O1174 1.262 . S
C1196 O1175 1.260 . S
C1197 Tb1133 2.833 . S
C1197 O1172 1.251 . S
C1197 O1177 1.256 . S
C1197 C1190 1.500 . S
H1198 C1181 0.930 . S
H1199 C1182 0.931 . S
H1200 C1183 0.930 . S
H1201 C1184 0.930 . S
H1202 C1191 0.930 . S
H1203 C1193 0.931 . S
H1204 C1194 0.930 . S
H1205 C1195 0.930 . S
Tb1206 N1237 2.660 . S
Tb1206 N1244 2.600 . S
Tb1206 O1250 2.546 . S
Tb1206 O1251 2.610 . S
Tb1206 O1253 2.320 . S
Tb1206 O1254 2.552 . S
Tb1206 O1255 2.413 . S
Tb1206 O1257 2.362 . S
Tb1206 O1258 2.421 . S
Tb1206 C1270 2.833 . S
C1207 C1210 1.432 . S
C1207 C1211 1.414 . S
C1207 N1214 1.359 . S
C1208 C1210 1.417 . S
C1208 C1212 1.432 . S
C1208 C1220 1.410 . S
C1209 C1211 1.444 . S
C1209 C1212 1.317 . S
C1209 H1232 0.929 . S
C1210 C1207 1.432 . S
C1210 C1208 1.417 . S
C1210 N1218 1.360 . S
C1211 C1207 1.414 . S
C1211 C1209 1.444 . S
C1211 C1216 1.385 . S
C1212 C1208 1.432 . S
C1212 C1209 1.317 . S
C1212 H1224 0.930 . S
C1213 C1215 1.392 . S
C1213 C1216 1.370 . S
C1213 H1225 0.931 . S
N1214 C1207 1.359 . S
N1214 C1215 1.327 . S
N1214 Tb1217 2.600 . S
C1215 C1213 1.392 . S
C1215 N1214 1.327 . S
C1215 H1222 0.930 . S
C1216 C1211 1.385 . S
C1216 C1213 1.370 . S
C1216 H1235 0.930 . S
Tb1217 N1214 2.600 . S
Tb1217 N1218 2.660 . S
Tb1217 O1251 2.362 . S
Tb1217 O1252 2.421 . S
Tb1217 O1256 2.546 . S
Tb1217 O1257 2.610 . S
Tb1217 O1259 2.320 . S
Tb1217 O1260 2.552 . S
Tb1217 O1261 2.413 . S
Tb1217 C1281 2.833 . S
N1218 C1210 1.360 . S
N1218 Tb1217 2.660 . S
N1218 C1219 1.305 . S
C1219 N1218 1.305 . S
C1219 C1221 1.407 . S
C1219 H1226 0.930 . S
C1220 C1208 1.410 . S
C1220 C1221 1.345 . S
C1220 H1228 0.930 . S
C1221 C1219 1.407 . S
C1221 C1220 1.345 . S
C1221 H1223 0.930 . S
H1222 C1215 0.930 . S
H1223 C1221 0.930 . S
H1224 C1212 0.930 . S
H1225 C1213 0.931 . S
H1226 C1219 0.930 . S
H1227 C1241 0.930 . S
H1228 C1220 0.930 . S
H1229 C1247 0.930 . S
H1230 C1238 0.930 . S
H1231 C1245 0.931 . S
H1232 C1209 0.929 . S
H1233 C1239 0.930 . S
H1234 C1272 0.930 . S
H1235 C1216 0.930 . S
H1236 C1271 0.929 . S
N1237 Tb1206 2.660 . S
N1237 C1238 1.305 . S
N1237 C1242 1.360 . S
C1238 H1230 0.930 . S
C1238 N1237 1.305 . S
C1238 C1241 1.407 . S
C1239 H1233 0.930 . S
C1239 C1240 1.410 . S
C1239 C1241 1.345 . S
C1240 C1239 1.410 . S
C1240 C1242 1.417 . S
C1240 C1272 1.432 . S
C1241 H1227 0.930 . S
C1241 C1238 1.407 . S
C1241 C1239 1.345 . S
C1242 N1237 1.360 . S
C1242 C1240 1.417 . S
C1242 C1246 1.432 . S
H1243 C1248 0.930 . S
N1244 Tb1206 2.600 . S
N1244 C1246 1.359 . S
N1244 C1247 1.327 . S
C1245 H1231 0.931 . S
C1245 C1247 1.392 . S
C1245 C1248 1.370 . S
C1246 C1242 1.432 . S
C1246 N1244 1.359 . S
C1246 C1249 1.414 . S
C1247 H1229 0.930 . S
C1247 N1244 1.327 . S
C1247 C1245 1.392 . S
C1248 H1243 0.930 . S
C1248 C1245 1.370 . S
C1248 C1249 1.385 . S
C1249 C1246 1.414 . S
C1249 C1248 1.385 . S
C1249 C1271 1.444 . S
O1250 Tb1206 2.546 . S
O1250 C1270 1.251 . S
O1251 Tb1206 2.610 . S
O1251 Tb1217 2.362 . S
O1251 C1262 1.283 . S
O1252 Tb1217 2.421 . S
O1252 C1269 1.262 . S
O1253 Tb1206 2.320 . S
O1253 C1269 1.260 . S
O1254 Tb1206 2.552 . S
O1254 C1262 1.243 . S
O1255 Tb1206 2.413 . S
O1255 C1270 1.256 . S
O1256 Tb1217 2.546 . S
O1256 C1281 1.251 . S
O1257 Tb1206 2.362 . S
O1257 Tb1217 2.610 . S
O1257 C1273 1.283 . S
O1258 Tb1206 2.421 . S
O1258 C1280 1.262 . S
O1259 Tb1217 2.320 . S
O1259 C1280 1.260 . S
O1260 Tb1217 2.552 . S
O1260 C1273 1.243 . S
O1261 Tb1217 2.413 . S
O1261 C1281 1.256 . S
C1262 O1251 1.283 . S
C1262 O1254 1.243 . S
C1263 C1265 1.382 . S
C1263 C1267 1.393 . S
C1263 C1270 1.500 . S
C1264 C1265 1.400 . S
C1264 C1266 1.384 . S
C1265 C1263 1.382 . S
C1265 C1264 1.400 . S
C1265 H1282 0.930 . S
C1266 C1264 1.384 . S
C1266 C1268 1.392 . S
C1266 H1283 0.931 . S
C1267 C1263 1.393 . S
C1267 C1268 1.401 . S
C1267 H1284 0.930 . S
C1268 C1266 1.392 . S
C1268 C1267 1.401 . S
C1268 H1285 0.930 . S
C1269 O1252 1.262 . S
C1269 O1253 1.260 . S
C1270 Tb1206 2.833 . S
C1270 O1250 1.251 . S
C1270 O1255 1.256 . S
C1270 C1263 1.500 . S
C1271 H1236 0.929 . S
C1271 C1249 1.444 . S
C1271 C1272 1.317 . S
C1272 H1234 0.930 . S
C1272 C1240 1.432 . S
C1272 C1271 1.317 . S
C1273 O1257 1.283 . S
C1273 O1260 1.243 . S
C1274 C1275 1.382 . S
C1274 C1278 1.393 . S
C1274 C1281 1.500 . S
C1275 C1274 1.382 . S
C1275 C1276 1.400 . S
C1275 H1286 0.930 . S
C1276 C1275 1.400 . S
C1276 C1277 1.384 . S
C1277 C1276 1.384 . S
C1277 C1279 1.392 . S
C1277 H1287 0.931 . S
C1278 C1274 1.393 . S
C1278 C1279 1.401 . S
C1278 H1288 0.930 . S
C1279 C1277 1.392 . S
C1279 C1278 1.401 . S
C1279 H1289 0.930 . S
C1280 O1258 1.262 . S
C1280 O1259 1.260 . S
C1281 Tb1217 2.833 . S
C1281 O1256 1.251 . S
C1281 O1261 1.256 . S
C1281 C1274 1.500 . S
H1282 C1265 0.930 . S
H1283 C1266 0.931 . S
H1284 C1267 0.930 . S
H1285 C1268 0.930 . S
H1286 C1275 0.930 . S
H1287 C1277 0.931 . S
H1288 C1278 0.930 . S
H1289 C1279 0.930 . S
Tb1290 N1321 2.660 . S
Tb1290 N1328 2.600 . S
Tb1290 O1334 2.546 . S
Tb1290 O1335 2.610 . S
Tb1290 O1337 2.320 . S
Tb1290 O1338 2.552 . S
Tb1290 O1339 2.413 . S
Tb1290 O1341 2.362 . S
Tb1290 O1342 2.421 . S
Tb1290 C1354 2.833 . S
C1291 C1294 1.432 . S
C1291 C1295 1.414 . S
C1291 N1298 1.359 . S
C1292 C1294 1.417 . S
C1292 C1296 1.432 . S
C1292 C1304 1.410 . S
C1293 C1295 1.444 . S
C1293 C1296 1.317 . S
C1293 H1316 0.929 . S
C1294 C1291 1.432 . S
C1294 C1292 1.417 . S
C1294 N1302 1.360 . S
C1295 C1291 1.414 . S
C1295 C1293 1.444 . S
C1295 C1300 1.385 . S
C1296 C1292 1.432 . S
C1296 C1293 1.317 . S
C1296 H1308 0.930 . S
C1297 C1299 1.392 . S
C1297 C1300 1.370 . S
C1297 H1309 0.931 . S
N1298 C1291 1.359 . S
N1298 C1299 1.327 . S
N1298 Tb1301 2.600 . S
C1299 C1297 1.392 . S
C1299 N1298 1.327 . S
C1299 H1306 0.930 . S
C1300 C1295 1.385 . S
C1300 C1297 1.370 . S
C1300 H1319 0.930 . S
Tb1301 N1298 2.600 . S
Tb1301 N1302 2.660 . S
Tb1301 O1335 2.362 . S
Tb1301 O1336 2.421 . S
Tb1301 O1340 2.546 . S
Tb1301 O1341 2.610 . S
Tb1301 O1343 2.320 . S
Tb1301 O1344 2.552 . S
Tb1301 O1345 2.413 . S
Tb1301 C1365 2.833 . S
N1302 C1294 1.360 . S
N1302 Tb1301 2.660 . S
N1302 C1303 1.305 . S
C1303 N1302 1.305 . S
C1303 C1305 1.407 . S
C1303 H1310 0.930 . S
C1304 C1292 1.410 . S
C1304 C1305 1.345 . S
C1304 H1312 0.930 . S
C1305 C1303 1.407 . S
C1305 C1304 1.345 . S
C1305 H1307 0.930 . S
H1306 C1299 0.930 . S
H1307 C1305 0.930 . S
H1308 C1296 0.930 . S
H1309 C1297 0.931 . S
H1310 C1303 0.930 . S
H1311 C1325 0.930 . S
H1312 C1304 0.930 . S
H1313 C1331 0.930 . S
H1314 C1322 0.930 . S
H1315 C1329 0.931 . S
H1316 C1293 0.929 . S
H1317 C1323 0.930 . S
H1318 C1356 0.930 . S
H1319 C1300 0.930 . S
H1320 C1355 0.929 . S
N1321 Tb1290 2.660 . S
N1321 C1322 1.305 . S
N1321 C1326 1.360 . S
C1322 H1314 0.930 . S
C1322 N1321 1.305 . S
C1322 C1325 1.407 . S
C1323 H1317 0.930 . S
C1323 C1324 1.410 . S
C1323 C1325 1.345 . S
C1324 C1323 1.410 . S
C1324 C1326 1.417 . S
C1324 C1356 1.432 . S
C1325 H1311 0.930 . S
C1325 C1322 1.407 . S
C1325 C1323 1.345 . S
C1326 N1321 1.360 . S
C1326 C1324 1.417 . S
C1326 C1330 1.432 . S
H1327 C1332 0.930 . S
N1328 Tb1290 2.600 . S
N1328 C1330 1.359 . S
N1328 C1331 1.327 . S
C1329 H1315 0.931 . S
C1329 C1331 1.392 . S
C1329 C1332 1.370 . S
C1330 C1326 1.432 . S
C1330 N1328 1.359 . S
C1330 C1333 1.414 . S
C1331 H1313 0.930 . S
C1331 N1328 1.327 . S
C1331 C1329 1.392 . S
C1332 H1327 0.930 . S
C1332 C1329 1.370 . S
C1332 C1333 1.385 . S
C1333 C1330 1.414 . S
C1333 C1332 1.385 . S
C1333 C1355 1.444 . S
O1334 Tb1290 2.546 . S
O1334 C1354 1.251 . S
O1335 Tb1290 2.610 . S
O1335 Tb1301 2.362 . S
O1335 C1346 1.283 . S
O1336 Tb1301 2.421 . S
O1336 C1353 1.262 . S
O1337 Tb1290 2.320 . S
O1337 C1353 1.260 . S
O1338 Tb1290 2.552 . S
O1338 C1346 1.243 . S
O1339 Tb1290 2.413 . S
O1339 C1354 1.256 . S
O1340 Tb1301 2.546 . S
O1340 C1365 1.251 . S
O1341 Tb1290 2.362 . S
O1341 Tb1301 2.610 . S
O1341 C1357 1.283 . S
O1342 Tb1290 2.421 . S
O1342 C1364 1.262 . S
O1343 Tb1301 2.320 . S
O1343 C1364 1.260 . S
O1344 Tb1301 2.552 . S
O1344 C1357 1.243 . S
O1345 Tb1301 2.413 . S
O1345 C1365 1.256 . S
C1346 O1335 1.283 . S
C1346 O1338 1.243 . S
C1347 C1349 1.382 . S
C1347 C1351 1.393 . S
C1347 C1354 1.500 . S
C1348 C1349 1.400 . S
C1348 C1350 1.384 . S
C1349 C1347 1.382 . S
C1349 C1348 1.400 . S
C1349 H1366 0.930 . S
C1350 C1348 1.384 . S
C1350 C1352 1.392 . S
C1350 H1367 0.931 . S
C1351 C1347 1.393 . S
C1351 C1352 1.401 . S
C1351 H1368 0.930 . S
C1352 C1350 1.392 . S
C1352 C1351 1.401 . S
C1352 H1369 0.930 . S
C1353 O1336 1.262 . S
C1353 O1337 1.260 . S
C1354 Tb1290 2.833 . S
C1354 O1334 1.251 . S
C1354 O1339 1.256 . S
C1354 C1347 1.500 . S
C1355 H1320 0.929 . S
C1355 C1333 1.444 . S
C1355 C1356 1.317 . S
C1356 H1318 0.930 . S
C1356 C1324 1.432 . S
C1356 C1355 1.317 . S
C1357 O1341 1.283 . S
C1357 O1344 1.243 . S
C1358 C1359 1.382 . S
C1358 C1362 1.393 . S
C1358 C1365 1.500 . S
C1359 C1358 1.382 . S
C1359 C1360 1.400 . S
C1359 H1370 0.930 . S
C1360 C1359 1.400 . S
C1360 C1361 1.384 . S
C1361 C1360 1.384 . S
C1361 C1363 1.392 . S
C1361 H1371 0.931 . S
C1362 C1358 1.393 . S
C1362 C1363 1.401 . S
C1362 H1372 0.930 . S
C1363 C1361 1.392 . S
C1363 C1362 1.401 . S
C1363 H1373 0.930 . S
C1364 O1342 1.262 . S
C1364 O1343 1.260 . S
C1365 Tb1301 2.833 . S
C1365 O1340 1.251 . S
C1365 O1345 1.256 . S
C1365 C1358 1.500 . S
H1366 C1349 0.930 . S
H1367 C1350 0.931 . S
H1368 C1351 0.930 . S
H1369 C1352 0.930 . S
H1370 C1359 0.930 . S
H1371 C1361 0.931 . S
H1372 C1362 0.930 . S
H1373 C1363 0.930 . S
Tb1374 N1405 2.660 . S
Tb1374 N1412 2.600 . S
Tb1374 O1418 2.546 . S
Tb1374 O1419 2.610 . S
Tb1374 O1421 2.320 . S
Tb1374 O1422 2.552 . S
Tb1374 O1423 2.413 . S
Tb1374 O1425 2.362 . S
Tb1374 O1426 2.421 . S
Tb1374 C1438 2.833 . S
C1375 C1378 1.432 . S
C1375 C1379 1.414 . S
C1375 N1382 1.359 . S
C1376 C1378 1.417 . S
C1376 C1380 1.432 . S
C1376 C1388 1.410 . S
C1377 C1379 1.444 . S
C1377 C1380 1.317 . S
C1377 H1400 0.929 . S
C1378 C1375 1.432 . S
C1378 C1376 1.417 . S
C1378 N1386 1.360 . S
C1379 C1375 1.414 . S
C1379 C1377 1.444 . S
C1379 C1384 1.385 . S
C1380 C1376 1.432 . S
C1380 C1377 1.317 . S
C1380 H1392 0.930 . S
C1381 C1383 1.392 . S
C1381 C1384 1.370 . S
C1381 H1393 0.931 . S
N1382 C1375 1.359 . S
N1382 C1383 1.327 . S
N1382 Tb1385 2.600 . S
C1383 C1381 1.392 . S
C1383 N1382 1.327 . S
C1383 H1390 0.930 . S
C1384 C1379 1.385 . S
C1384 C1381 1.370 . S
C1384 H1403 0.930 . S
Tb1385 N1382 2.600 . S
Tb1385 N1386 2.660 . S
Tb1385 O1419 2.362 . S
Tb1385 O1420 2.421 . S
Tb1385 O1424 2.546 . S
Tb1385 O1425 2.610 . S
Tb1385 O1427 2.320 . S
Tb1385 O1428 2.552 . S
Tb1385 O1429 2.413 . S
Tb1385 C1449 2.833 . S
N1386 C1378 1.360 . S
N1386 Tb1385 2.660 . S
N1386 C1387 1.305 . S
C1387 N1386 1.305 . S
C1387 C1389 1.407 . S
C1387 H1394 0.930 . S
C1388 C1376 1.410 . S
C1388 C1389 1.345 . S
C1388 H1396 0.930 . S
C1389 C1387 1.407 . S
C1389 C1388 1.345 . S
C1389 H1391 0.930 . S
H1390 C1383 0.930 . S
H1391 C1389 0.930 . S
H1392 C1380 0.930 . S
H1393 C1381 0.931 . S
H1394 C1387 0.930 . S
H1395 C1409 0.930 . S
H1396 C1388 0.930 . S
H1397 C1415 0.930 . S
H1398 C1406 0.930 . S
H1399 C1413 0.931 . S
H1400 C1377 0.929 . S
H1401 C1407 0.930 . S
H1402 C1440 0.930 . S
H1403 C1384 0.930 . S
H1404 C1439 0.929 . S
N1405 Tb1374 2.660 . S
N1405 C1406 1.305 . S
N1405 C1410 1.360 . S
C1406 H1398 0.930 . S
C1406 N1405 1.305 . S
C1406 C1409 1.407 . S
C1407 H1401 0.930 . S
C1407 C1408 1.410 . S
C1407 C1409 1.345 . S
C1408 C1407 1.410 . S
C1408 C1410 1.417 . S
C1408 C1440 1.432 . S
C1409 H1395 0.930 . S
C1409 C1406 1.407 . S
C1409 C1407 1.345 . S
C1410 N1405 1.360 . S
C1410 C1408 1.417 . S
C1410 C1414 1.432 . S
H1411 C1416 0.930 . S
N1412 Tb1374 2.600 . S
N1412 C1414 1.359 . S
N1412 C1415 1.327 . S
C1413 H1399 0.931 . S
C1413 C1415 1.392 . S
C1413 C1416 1.370 . S
C1414 C1410 1.432 . S
C1414 N1412 1.359 . S
C1414 C1417 1.414 . S
C1415 H1397 0.930 . S
C1415 N1412 1.327 . S
C1415 C1413 1.392 . S
C1416 H1411 0.930 . S
C1416 C1413 1.370 . S
C1416 C1417 1.385 . S
C1417 C1414 1.414 . S
C1417 C1416 1.385 . S
C1417 C1439 1.444 . S
O1418 Tb1374 2.546 . S
O1418 C1438 1.251 . S
O1419 Tb1374 2.610 . S
O1419 Tb1385 2.362 . S
O1419 C1430 1.283 . S
O1420 Tb1385 2.421 . S
O1420 C1437 1.262 . S
O1421 Tb1374 2.320 . S
O1421 C1437 1.260 . S
O1422 Tb1374 2.552 . S
O1422 C1430 1.243 . S
O1423 Tb1374 2.413 . S
O1423 C1438 1.256 . S
O1424 Tb1385 2.546 . S
O1424 C1449 1.251 . S
O1425 Tb1374 2.362 . S
O1425 Tb1385 2.610 . S
O1425 C1441 1.283 . S
O1426 Tb1374 2.421 . S
O1426 C1448 1.262 . S
O1427 Tb1385 2.320 . S
O1427 C1448 1.260 . S
O1428 Tb1385 2.552 . S
O1428 C1441 1.243 . S
O1429 Tb1385 2.413 . S
O1429 C1449 1.256 . S
C1430 O1419 1.283 . S
C1430 O1422 1.243 . S
C1431 C1433 1.382 . S
C1431 C1435 1.393 . S
C1431 C1438 1.500 . S
C1432 C1433 1.400 . S
C1432 C1434 1.384 . S
C1433 C1431 1.382 . S
C1433 C1432 1.400 . S
C1433 H1450 0.930 . S
C1434 C1432 1.384 . S
C1434 C1436 1.392 . S
C1434 H1451 0.931 . S
C1435 C1431 1.393 . S
C1435 C1436 1.401 . S
C1435 H1452 0.930 . S
C1436 C1434 1.392 . S
C1436 C1435 1.401 . S
C1436 H1453 0.930 . S
C1437 O1420 1.262 . S
C1437 O1421 1.260 . S
C1438 Tb1374 2.833 . S
C1438 O1418 1.251 . S
C1438 O1423 1.256 . S
C1438 C1431 1.500 . S
C1439 H1404 0.929 . S
C1439 C1417 1.444 . S
C1439 C1440 1.317 . S
C1440 H1402 0.930 . S
C1440 C1408 1.432 . S
C1440 C1439 1.317 . S
C1441 O1425 1.283 . S
C1441 O1428 1.243 . S
C1442 C1443 1.382 . S
C1442 C1446 1.393 . S
C1442 C1449 1.500 . S
C1443 C1442 1.382 . S
C1443 C1444 1.400 . S
C1443 H1454 0.930 . S
C1444 C1443 1.400 . S
C1444 C1445 1.384 . S
C1445 C1444 1.384 . S
C1445 C1447 1.392 . S
C1445 H1455 0.931 . S
C1446 C1442 1.393 . S
C1446 C1447 1.401 . S
C1446 H1456 0.930 . S
C1447 C1445 1.392 . S
C1447 C1446 1.401 . S
C1447 H1457 0.930 . S
C1448 O1426 1.262 . S
C1448 O1427 1.260 . S
C1449 Tb1385 2.833 . S
C1449 O1424 1.251 . S
C1449 O1429 1.256 . S
C1449 C1442 1.500 . S
H1450 C1433 0.930 . S
H1451 C1434 0.931 . S
H1452 C1435 0.930 . S
H1453 C1436 0.930 . S
H1454 C1443 0.930 . S
H1455 C1445 0.931 . S
H1456 C1446 0.930 . S
H1457 C1447 0.930 . S
H1458 C1466 0.950 . S
H1459 C1471 0.950 . S
H1460 C1468 0.950 . S
H1461 C1470 0.950 . S
H1462 C1472 0.950 . S
H1463 C1474 0.950 . S
H1464 C1476 0.950 . S
H1465 C1477 0.950 . S
C1466 H1458 0.950 . S
C1466 C1467 1.386 . S
C1466 C1468 1.391 . S
C1467 C1466 1.386 . S
C1467 C1471 1.393 . S
C1468 H1460 0.950 . S
C1468 C1466 1.391 . S
C1468 C1469 1.400 . S
C1469 C1468 1.400 . S
C1469 C1470 1.398 . S
C1469 C1475 1.491 . S
C1470 H1461 0.950 . S
C1470 C1469 1.398 . S
C1470 C1471 1.391 . S
C1471 H1459 0.950 . S
C1471 C1467 1.393 . S
C1471 C1470 1.391 . S
C1472 H1462 0.950 . S
C1472 C1473 1.386 . S
C1472 C1474 1.391 . S
C1473 C1472 1.386 . S
C1473 C1477 1.393 . S
C1474 H1463 0.950 . S
C1474 C1472 1.391 . S
C1474 C1475 1.400 . S
C1475 C1469 1.491 . S
C1475 C1474 1.400 . S
C1475 C1476 1.398 . S
C1476 H1464 0.950 . S
C1476 C1475 1.398 . S
C1476 C1477 1.391 . S
C1477 H1465 0.950 . S
C1477 C1473 1.393 . S
C1477 C1476 1.391 . S
H1478 C1486 0.950 . S
H1479 C1491 0.950 . S
H1480 C1488 0.950 . S
H1481 C1490 0.950 . S
H1482 C1492 0.950 . S
H1483 C1494 0.950 . S
H1484 C1496 0.950 . S
H1485 C1497 0.950 . S
C1486 H1478 0.950 . S
C1486 C1487 1.386 . S
C1486 C1488 1.391 . S
C1487 C1486 1.386 . S
C1487 C1491 1.393 . S
C1488 H1480 0.950 . S
C1488 C1486 1.391 . S
C1488 C1489 1.400 . S
C1489 C1488 1.400 . S
C1489 C1490 1.398 . S
C1489 C1495 1.491 . S
C1490 H1481 0.950 . S
C1490 C1489 1.398 . S
C1490 C1491 1.391 . S
C1491 H1479 0.950 . S
C1491 C1487 1.393 . S
C1491 C1490 1.391 . S
C1492 H1482 0.950 . S
C1492 C1493 1.386 . S
C1492 C1494 1.391 . S
C1493 C1492 1.386 . S
C1493 C1497 1.393 . S
C1494 H1483 0.950 . S
C1494 C1492 1.391 . S
C1494 C1495 1.400 . S
C1495 C1489 1.491 . S
C1495 C1494 1.400 . S
C1495 C1496 1.398 . S
C1496 H1484 0.950 . S
C1496 C1495 1.398 . S
C1496 C1497 1.391 . S
C1497 H1485 0.950 . S
C1497 C1493 1.393 . S
C1497 C1496 1.391 . S
H1498 C1506 0.950 . S
H1499 C1511 0.950 . S
H1500 C1508 0.950 . S
H1501 C1510 0.950 . S
H1502 C1512 0.950 . S
H1503 C1514 0.950 . S
H1504 C1516 0.950 . S
H1505 C1517 0.950 . S
C1506 H1498 0.950 . S
C1506 C1507 1.386 . S
C1506 C1508 1.391 . S
C1507 C1506 1.386 . S
C1507 C1511 1.393 . S
C1508 H1500 0.950 . S
C1508 C1506 1.391 . S
C1508 C1509 1.400 . S
C1509 C1508 1.400 . S
C1509 C1510 1.398 . S
C1509 C1515 1.491 . S
C1510 H1501 0.950 . S
C1510 C1509 1.398 . S
C1510 C1511 1.391 . S
C1511 H1499 0.950 . S
C1511 C1507 1.393 . S
C1511 C1510 1.391 . S
C1512 H1502 0.950 . S
C1512 C1513 1.386 . S
C1512 C1514 1.391 . S
C1513 C1512 1.386 . S
C1513 C1517 1.393 . S
C1514 H1503 0.950 . S
C1514 C1512 1.391 . S
C1514 C1515 1.400 . S
C1515 C1509 1.491 . S
C1515 C1514 1.400 . S
C1515 C1516 1.398 . S
C1516 H1504 0.950 . S
C1516 C1515 1.398 . S
C1516 C1517 1.391 . S
C1517 H1505 0.950 . S
C1517 C1513 1.393 . S
C1517 C1516 1.391 . S
H1518 C1526 0.950 . S
H1519 C1531 0.950 . S
H1520 C1528 0.950 . S
H1521 C1530 0.950 . S
H1522 C1532 0.950 . S
H1523 C1534 0.950 . S
H1524 C1536 0.950 . S
H1525 C1537 0.950 . S
C1526 H1518 0.950 . S
C1526 C1527 1.386 . S
C1526 C1528 1.391 . S
C1527 C1526 1.386 . S
C1527 C1531 1.393 . S
C1528 H1520 0.950 . S
C1528 C1526 1.391 . S
C1528 C1529 1.400 . S
C1529 C1528 1.400 . S
C1529 C1530 1.398 . S
C1529 C1535 1.491 . S
C1530 H1521 0.950 . S
C1530 C1529 1.398 . S
C1530 C1531 1.391 . S
C1531 H1519 0.950 . S
C1531 C1527 1.393 . S
C1531 C1530 1.391 . S
C1532 H1522 0.950 . S
C1532 C1533 1.386 . S
C1532 C1534 1.391 . S
C1533 C1532 1.386 . S
C1533 C1537 1.393 . S
C1534 H1523 0.950 . S
C1534 C1532 1.391 . S
C1534 C1535 1.400 . S
C1535 C1529 1.491 . S
C1535 C1534 1.400 . S
C1535 C1536 1.398 . S
C1536 H1524 0.950 . S
C1536 C1535 1.398 . S
C1536 C1537 1.391 . S
C1537 H1525 0.950 . S
C1537 C1533 1.393 . S
C1537 C1536 1.391 . S
H1538 C1546 0.950 . S
H1539 C1551 0.950 . S
H1540 C1548 0.950 . S
H1541 C1550 0.950 . S
H1542 C1552 0.950 . S
H1543 C1554 0.950 . S
H1544 C1556 0.950 . S
H1545 C1557 0.950 . S
C1546 H1538 0.950 . S
C1546 C1547 1.386 . S
C1546 C1548 1.391 . S
C1547 C1546 1.386 . S
C1547 C1551 1.393 . S
C1548 H1540 0.950 . S
C1548 C1546 1.391 . S
C1548 C1549 1.400 . S
C1549 C1548 1.400 . S
C1549 C1550 1.398 . S
C1549 C1555 1.491 . S
C1550 H1541 0.950 . S
C1550 C1549 1.398 . S
C1550 C1551 1.391 . S
C1551 H1539 0.950 . S
C1551 C1547 1.393 . S
C1551 C1550 1.391 . S
C1552 H1542 0.950 . S
C1552 C1553 1.386 . S
C1552 C1554 1.391 . S
C1553 C1552 1.386 . S
C1553 C1557 1.393 . S
C1554 H1543 0.950 . S
C1554 C1552 1.391 . S
C1554 C1555 1.400 . S
C1555 C1549 1.491 . S
C1555 C1554 1.400 . S
C1555 C1556 1.398 . S
C1556 H1544 0.950 . S
C1556 C1555 1.398 . S
C1556 C1557 1.391 . S
C1557 H1545 0.950 . S
C1557 C1553 1.393 . S
C1557 C1556 1.391 . S
H1558 C1566 0.950 . S
H1559 C1571 0.950 . S
H1560 C1568 0.950 . S
H1561 C1570 0.950 . S
H1562 C1572 0.950 1_554 S
H1563 C1574 0.950 . S
H1564 C1576 0.950 . S
H1565 C1577 0.950 . S
C1566 H1558 0.950 . S
C1566 C1567 1.386 . S
C1566 C1568 1.391 . S
C1567 C1566 1.386 . S
C1567 C1571 1.393 . S
C1568 H1560 0.950 . S
C1568 C1566 1.391 . S
C1568 C1569 1.400 . S
C1569 C1568 1.400 . S
C1569 C1570 1.398 . S
C1569 C1575 1.491 . S
C1570 H1561 0.950 . S
C1570 C1569 1.398 . S
C1570 C1571 1.391 . S
C1571 H1559 0.950 . S
C1571 C1567 1.393 . S
C1571 C1570 1.391 . S
C1572 H1562 0.950 1_556 S
C1572 C1573 1.386 . S
C1572 C1574 1.391 . S
C1573 C1572 1.386 . S
C1573 C1577 1.393 . S
C1574 H1563 0.950 . S
C1574 C1572 1.391 . S
C1574 C1575 1.400 . S
C1575 C1569 1.491 . S
C1575 C1574 1.400 . S
C1575 C1576 1.398 . S
C1576 H1564 0.950 . S
C1576 C1575 1.398 . S
C1576 C1577 1.391 . S
C1577 H1565 0.950 . S
C1577 C1573 1.393 . S
C1577 C1576 1.391 . S
H1578 C1586 0.950 . S
H1579 C1591 0.950 . S
H1580 C1588 0.950 . S
H1581 C1590 0.950 . S
H1582 C1592 0.950 . S
H1583 C1594 0.950 . S
H1584 C1596 0.950 . S
H1585 C1597 0.950 1_554 S
C1586 H1578 0.950 . S
C1586 C1587 1.386 . S
C1586 C1588 1.391 . S
C1587 C1586 1.386 . S
C1587 C1591 1.393 . S
C1588 H1580 0.950 . S
C1588 C1586 1.391 . S
C1588 C1589 1.400 . S
C1589 C1588 1.400 . S
C1589 C1590 1.398 . S
C1589 C1595 1.491 . S
C1590 H1581 0.950 . S
C1590 C1589 1.398 . S
C1590 C1591 1.391 . S
C1591 H1579 0.950 . S
C1591 C1587 1.393 . S
C1591 C1590 1.391 . S
C1592 H1582 0.950 . S
C1592 C1593 1.386 . S
C1592 C1594 1.391 . S
C1593 C1592 1.386 . S
C1593 C1597 1.393 . S
C1594 H1583 0.950 . S
C1594 C1592 1.391 . S
C1594 C1595 1.400 . S
C1595 C1589 1.491 . S
C1595 C1594 1.400 . S
C1595 C1596 1.398 . S
C1596 H1584 0.950 . S
C1596 C1595 1.398 . S
C1596 C1597 1.391 . S
C1597 H1585 0.950 1_556 S
C1597 C1593 1.393 . S
C1597 C1596 1.391 . S
H1598 C1606 0.950 . S
H1599 C1611 0.950 . S
H1600 C1608 0.950 . S
H1601 C1610 0.950 . S
H1602 C1612 0.950 . S
H1603 C1614 0.950 . S
H1604 C1616 0.950 . S
H1605 C1617 0.950 . S
C1606 H1598 0.950 . S
C1606 C1607 1.386 . S
C1606 C1608 1.391 . S
C1607 C1606 1.386 . S
C1607 C1611 1.393 . S
C1608 H1600 0.950 . S
C1608 C1606 1.391 . S
C1608 C1609 1.400 . S
C1609 C1608 1.400 . S
C1609 C1610 1.398 . S
C1609 C1615 1.491 . S
C1610 H1601 0.950 . S
C1610 C1609 1.398 . S
C1610 C1611 1.391 . S
C1611 H1599 0.950 . S
C1611 C1607 1.393 . S
C1611 C1610 1.391 . S
C1612 H1602 0.950 . S
C1612 C1613 1.386 . S
C1612 C1614 1.391 . S
C1613 C1612 1.386 . S
C1613 C1617 1.393 . S
C1614 H1603 0.950 . S
C1614 C1612 1.391 . S
C1614 C1615 1.400 . S
C1615 C1609 1.491 . S
C1615 C1614 1.400 . S
C1615 C1616 1.398 . S
C1616 H1604 0.950 . S
C1616 C1615 1.398 . S
C1616 C1617 1.391 . S
C1617 H1605 0.950 . S
C1617 C1613 1.393 . S
C1617 C1616 1.391 . S
H1618 C1626 0.950 . S
H1619 C1631 0.950 . S
H1620 C1628 0.950 . S
H1621 C1630 0.950 . S
H1622 C1632 0.950 . S
H1623 C1634 0.950 . S
H1624 C1636 0.950 . S
H1625 C1637 0.950 1_554 S
C1626 H1618 0.950 . S
C1626 C1627 1.386 . S
C1626 C1628 1.391 . S
C1627 C1626 1.386 . S
C1627 C1631 1.393 . S
C1628 H1620 0.950 . S
C1628 C1626 1.391 . S
C1628 C1629 1.400 . S
C1629 C1628 1.400 . S
C1629 C1630 1.398 . S
C1629 C1635 1.491 . S
C1630 H1621 0.950 . S
C1630 C1629 1.398 . S
C1630 C1631 1.391 . S
C1631 H1619 0.950 . S
C1631 C1627 1.393 . S
C1631 C1630 1.391 . S
C1632 H1622 0.950 . S
C1632 C1633 1.386 . S
C1632 C1634 1.391 . S
C1633 C1632 1.386 . S
C1633 C1637 1.393 . S
C1634 H1623 0.950 . S
C1634 C1632 1.391 . S
C1634 C1635 1.400 . S
C1635 C1629 1.491 . S
C1635 C1634 1.400 . S
C1635 C1636 1.398 . S
C1636 H1624 0.950 . S
C1636 C1635 1.398 . S
C1636 C1637 1.391 . S
C1637 H1625 0.950 1_556 S
C1637 C1633 1.393 . S
C1637 C1636 1.391 . S
H1638 C1646 0.950 . S
H1639 C1651 0.950 . S
H1640 C1648 0.950 . S
H1641 C1650 0.950 . S
H1642 C1652 0.950 . S
H1643 C1654 0.950 . S
H1644 C1656 0.950 . S
H1645 C1657 0.963 . S
C1646 H1638 0.950 . S
C1646 C1647 1.386 . S
C1646 C1648 1.391 . S
C1647 C1646 1.386 . S
C1647 C1651 1.393 . S
C1648 H1640 0.950 . S
C1648 C1646 1.391 . S
C1648 C1649 1.400 . S
C1649 C1648 1.400 . S
C1649 C1650 1.398 . S
C1649 C1655 1.491 . S
C1650 H1641 0.950 . S
C1650 C1649 1.398 . S
C1650 C1651 1.391 . S
C1651 H1639 0.950 . S
C1651 C1647 1.393 . S
C1651 C1650 1.391 . S
C1652 H1642 0.950 . S
C1652 C1653 1.386 . S
C1652 C1654 1.391 . S
C1653 C1652 1.386 . S
C1653 C1657 1.393 . S
C1654 H1643 0.950 . S
C1654 C1652 1.391 . S
C1654 C1655 1.400 . S
C1655 C1649 1.491 . S
C1655 C1654 1.400 . S
C1655 C1656 1.398 . S
C1656 H1644 0.950 . S
C1656 C1655 1.398 . S
C1656 C1657 1.391 . S
C1657 H1645 0.963 . S
C1657 C1653 1.393 . S
C1657 C1656 1.391 . S
H1658 C1666 0.950 . S
H1659 C1671 0.950 . S
H1660 C1668 0.950 . S
H1661 C1670 0.950 . S
H1662 C1672 0.950 . S
H1663 C1674 0.950 . S
H1664 C1676 0.950 . S
H1665 C1677 0.950 . S
C1666 H1658 0.950 . S
C1666 C1667 1.386 . S
C1666 C1668 1.391 . S
C1667 C1666 1.386 . S
C1667 C1671 1.393 . S
C1668 H1660 0.950 . S
C1668 C1666 1.391 . S
C1668 C1669 1.400 . S
C1669 C1668 1.400 . S
C1669 C1670 1.398 . S
C1669 C1675 1.491 . S
C1670 H1661 0.950 . S
C1670 C1669 1.398 . S
C1670 C1671 1.391 . S
C1671 H1659 0.950 . S
C1671 C1667 1.393 . S
C1671 C1670 1.391 . S
C1672 H1662 0.950 . S
C1672 C1673 1.386 . S
C1672 C1674 1.391 . S
C1673 C1672 1.386 . S
C1673 C1677 1.393 . S
C1674 H1663 0.950 . S
C1674 C1672 1.391 . S
C1674 C1675 1.400 . S
C1675 C1669 1.491 . S
C1675 C1674 1.400 . S
C1675 C1676 1.398 . S
C1676 H1664 0.950 . S
C1676 C1675 1.398 . S
C1676 C1677 1.391 . S
C1677 H1665 0.950 . S
C1677 C1673 1.393 . S
C1677 C1676 1.391 . S
H1678 C1686 0.950 . S
H1679 C1691 0.950 . S
H1680 C1688 0.950 . S
H1681 C1690 0.950 . S
H1682 C1692 0.950 . S
H1683 C1694 0.950 . S
H1684 C1696 0.950 . S
H1685 C1697 0.908 1_556 S
C1686 H1678 0.950 . S
C1686 C1687 1.386 . S
C1686 C1688 1.391 . S
C1687 C1686 1.386 . S
C1687 C1691 1.393 . S
C1688 H1680 0.950 . S
C1688 C1686 1.391 . S
C1688 C1689 1.400 . S
C1689 C1688 1.400 . S
C1689 C1690 1.398 . S
C1689 C1695 1.491 . S
C1690 H1681 0.950 . S
C1690 C1689 1.398 . S
C1690 C1691 1.391 . S
C1691 H1679 0.950 . S
C1691 C1687 1.393 . S
C1691 C1690 1.391 . S
C1692 H1682 0.950 . S
C1692 C1693 1.386 . S
C1692 C1694 1.391 . S
C1693 C1692 1.386 . S
C1693 C1697 1.393 . S
C1694 H1683 0.950 . S
C1694 C1692 1.391 . S
C1694 C1695 1.400 . S
C1695 C1689 1.491 . S
C1695 C1694 1.400 . S
C1695 C1696 1.398 . S
C1696 H1684 0.950 . S
C1696 C1695 1.398 . S
C1696 C1697 1.391 . S
C1697 H1685 0.908 1_554 S
C1697 C1693 1.393 . S
C1697 C1696 1.391 . S
H1698 C1706 0.950 . S
H1699 C1711 0.950 . S
H1700 C1708 0.950 . S
H1701 C1710 0.950 . S
H1702 C1712 0.950 . S
H1703 C1714 0.950 . S
H1704 C1716 0.950 . S
H1705 C1717 0.950 . S
C1706 H1698 0.950 . S
C1706 C1707 1.386 . S
C1706 C1708 1.391 1_655 S
C1707 C1706 1.386 . S
C1707 C1711 1.393 1_655 S
C1708 H1700 0.950 . S
C1708 C1706 1.391 1_455 S
C1708 C1709 1.400 . S
C1709 C1708 1.400 . S
C1709 C1710 1.398 . S
C1709 C1715 1.491 . S
C1710 H1701 0.950 . S
C1710 C1709 1.398 . S
C1710 C1711 1.391 . S
C1711 H1699 0.950 . S
C1711 C1707 1.393 1_455 S
C1711 C1710 1.391 . S
C1712 H1702 0.950 . S
C1712 C1713 1.386 . S
C1712 C1714 1.391 . S
C1713 C1712 1.386 . S
C1713 C1717 1.393 . S
C1714 H1703 0.950 . S
C1714 C1712 1.391 . S
C1714 C1715 1.400 . S
C1715 C1709 1.491 . S
C1715 C1714 1.400 . S
C1715 C1716 1.398 . S
C1716 H1704 0.950 . S
C1716 C1715 1.398 . S
C1716 C1717 1.391 . S
C1717 H1705 0.950 . S
C1717 C1713 1.393 . S
C1717 C1716 1.391 . S
H1718 C1726 0.950 . S
H1719 C1731 0.950 . S
H1720 C1728 0.950 . S
H1721 C1730 0.950 . S
H1722 C1732 0.950 . S
H1723 C1734 0.950 . S
H1724 C1736 0.950 . S
H1725 C1737 0.950 . S
C1726 H1718 0.950 . S
C1726 C1727 1.386 . S
C1726 C1728 1.391 . S
C1727 C1726 1.386 . S
C1727 C1731 1.393 . S
C1728 H1720 0.950 . S
C1728 C1726 1.391 . S
C1728 C1729 1.400 . S
C1729 C1728 1.400 . S
C1729 C1730 1.398 . S
C1729 C1735 1.491 . S
C1730 H1721 0.950 . S
C1730 C1729 1.398 . S
C1730 C1731 1.391 . S
C1731 H1719 0.950 . S
C1731 C1727 1.393 . S
C1731 C1730 1.391 . S
C1732 H1722 0.950 . S
C1732 C1733 1.386 . S
C1732 C1734 1.391 . S
C1733 C1732 1.386 . S
C1733 C1737 1.393 . S
C1734 H1723 0.950 . S
C1734 C1732 1.391 . S
C1734 C1735 1.400 . S
C1735 C1729 1.491 . S
C1735 C1734 1.400 . S
C1735 C1736 1.398 . S
C1736 H1724 0.950 . S
C1736 C1735 1.398 . S
C1736 C1737 1.391 . S
C1737 H1725 0.950 . S
C1737 C1733 1.393 . S
C1737 C1736 1.391 . S
H1738 C1746 0.950 . S
H1739 C1751 0.950 . S
H1740 C1748 0.950 . S
H1741 C1750 0.950 . S
H1742 C1752 0.950 . S
H1743 C1754 0.950 . S
H1744 C1756 0.950 . S
H1745 C1757 0.950 . S
C1746 H1738 0.950 . S
C1746 C1747 1.386 . S
C1746 C1748 1.391 1_545 S
C1747 C1746 1.386 . S
C1747 C1751 1.393 . S
C1748 H1740 0.950 . S
C1748 C1746 1.391 1_565 S
C1748 C1749 1.400 . S
C1749 C1748 1.400 . S
C1749 C1750 1.398 . S
C1749 C1755 1.491 . S
C1750 H1741 0.950 . S
C1750 C1749 1.398 . S
C1750 C1751 1.391 1_565 S
C1751 H1739 0.950 . S
C1751 C1747 1.393 . S
C1751 C1750 1.391 1_545 S
C1752 H1742 0.950 . S
C1752 C1753 1.386 . S
C1752 C1754 1.391 . S
C1753 C1752 1.386 . S
C1753 C1757 1.393 . S
C1754 H1743 0.950 . S
C1754 C1752 1.391 . S
C1754 C1755 1.400 . S
C1755 C1749 1.491 . S
C1755 C1754 1.400 . S
C1755 C1756 1.398 . S
C1756 H1744 0.950 . S
C1756 C1755 1.398 . S
C1756 C1757 1.391 . S
C1757 H1745 0.950 . S
C1757 C1753 1.393 . S
C1757 C1756 1.391 . S
H1758 C1766 0.950 . S
H1759 C1771 0.950 . S
H1760 C1768 0.950 . S
H1761 C1770 0.950 . S
H1762 C1772 0.950 . S
H1763 C1774 0.950 . S
H1764 C1776 0.950 . S
H1765 C1777 0.950 . S
C1766 H1758 0.950 . S
C1766 C1767 1.386 . S
C1766 C1768 1.391 . S
C1767 C1766 1.386 . S
C1767 C1771 1.393 . S
C1768 H1760 0.950 . S
C1768 C1766 1.391 . S
C1768 C1769 1.400 . S
C1769 C1768 1.400 . S
C1769 C1770 1.398 . S
C1769 C1775 1.491 . S
C1770 H1761 0.950 . S
C1770 C1769 1.398 . S
C1770 C1771 1.391 . S
C1771 H1759 0.950 . S
C1771 C1767 1.393 . S
C1771 C1770 1.391 . S
C1772 H1762 0.950 . S
C1772 C1773 1.386 . S
C1772 C1774 1.391 . S
C1773 C1772 1.386 . S
C1773 C1777 1.393 . S
C1774 H1763 0.950 . S
C1774 C1772 1.391 . S
C1774 C1775 1.400 . S
C1775 C1769 1.491 . S
C1775 C1774 1.400 . S
C1775 C1776 1.398 . S
C1776 H1764 0.950 . S
C1776 C1775 1.398 . S
C1776 C1777 1.391 . S
C1777 H1765 0.950 . S
C1777 C1773 1.393 . S
C1777 C1776 1.391 . S
H1778 C1786 0.950 . S
H1779 C1791 0.950 . S
H1780 C1788 0.950 . S
H1781 C1790 0.950 . S
H1782 C1792 0.950 . S
H1783 C1794 0.950 . S
H1784 C1796 0.950 . S
H1785 C1797 0.950 . S
C1786 H1778 0.950 . S
C1786 C1787 1.386 . S
C1786 C1788 1.391 . S
C1787 C1786 1.386 . S
C1787 C1791 1.393 . S
C1788 H1780 0.950 . S
C1788 C1786 1.391 . S
C1788 C1789 1.400 . S
C1789 C1788 1.400 . S
C1789 C1790 1.398 . S
C1789 C1795 1.491 . S
C1790 H1781 0.950 . S
C1790 C1789 1.398 . S
C1790 C1791 1.391 . S
C1791 H1779 0.950 . S
C1791 C1787 1.393 . S
C1791 C1790 1.391 . S
C1792 H1782 0.950 . S
C1792 C1793 1.386 . S
C1792 C1794 1.391 . S
C1793 C1792 1.386 . S
C1793 C1797 1.393 . S
C1794 H1783 0.950 . S
C1794 C1792 1.391 . S
C1794 C1795 1.400 . S
C1795 C1789 1.491 . S
C1795 C1794 1.400 . S
C1795 C1796 1.398 . S
C1796 H1784 0.950 . S
C1796 C1795 1.398 . S
C1796 C1797 1.391 . S
C1797 H1785 0.950 . S
C1797 C1793 1.393 . S
C1797 C1796 1.391 . S
H1798 C1806 0.950 . S
H1799 C1811 0.950 . S
H1800 C1808 0.950 . S
H1801 C1810 0.950 . S
H1802 C1812 0.950 . S
H1803 C1814 0.950 . S
H1804 C1816 0.950 . S
H1805 C1817 0.950 . S
C1806 H1798 0.950 . S
C1806 C1807 1.386 . S
C1806 C1808 1.391 . S
C1807 C1806 1.386 . S
C1807 C1811 1.393 . S
C1808 H1800 0.950 . S
C1808 C1806 1.391 . S
C1808 C1809 1.400 . S
C1809 C1808 1.400 . S
C1809 C1810 1.398 . S
C1809 C1815 1.491 . S
C1810 H1801 0.950 . S
C1810 C1809 1.398 . S
C1810 C1811 1.391 . S
C1811 H1799 0.950 . S
C1811 C1807 1.393 . S
C1811 C1810 1.391 . S
C1812 H1802 0.950 . S
C1812 C1813 1.386 . S
C1812 C1814 1.391 . S
C1813 C1812 1.386 . S
C1813 C1817 1.393 . S
C1814 H1803 0.950 . S
C1814 C1812 1.391 . S
C1814 C1815 1.400 . S
C1815 C1809 1.491 . S
C1815 C1814 1.400 . S
C1815 C1816 1.398 . S
C1816 H1804 0.950 . S
C1816 C1815 1.398 . S
C1816 C1817 1.391 . S
C1817 H1805 0.950 . S
C1817 C1813 1.393 . S
C1817 C1816 1.391 . S
H1818 C1826 0.950 . S
H1819 C1831 0.950 . S
H1820 C1828 0.950 . S
H1821 C1830 0.950 . S
H1822 C1832 0.950 . S
H1823 C1834 0.950 . S
H1824 C1836 0.950 . S
H1825 C1837 0.950 . S
C1826 H1818 0.950 . S
C1826 C1827 1.386 . S
C1826 C1828 1.391 . S
C1827 C1826 1.386 . S
C1827 C1831 1.393 . S
C1828 H1820 0.950 . S
C1828 C1826 1.391 . S
C1828 C1829 1.400 . S
C1829 C1828 1.400 . S
C1829 C1830 1.398 . S
C1829 C1835 1.491 . S
C1830 H1821 0.950 . S
C1830 C1829 1.398 . S
C1830 C1831 1.391 . S
C1831 H1819 0.950 . S
C1831 C1827 1.393 . S
C1831 C1830 1.391 . S
C1832 H1822 0.950 . S
C1832 C1833 1.386 . S
C1832 C1834 1.391 . S
C1833 C1832 1.386 . S
C1833 C1837 1.393 . S
C1834 H1823 0.950 . S
C1834 C1832 1.391 . S
C1834 C1835 1.400 . S
C1835 C1829 1.491 . S
C1835 C1834 1.400 . S
C1835 C1836 1.398 . S
C1836 H1824 0.950 . S
C1836 C1835 1.398 . S
C1836 C1837 1.391 . S
C1837 H1825 0.950 . S
C1837 C1833 1.393 . S
C1837 C1836 1.391 . S
H1838 C1846 0.950 . S
H1839 C1851 0.950 . S
H1840 C1848 0.950 . S
H1841 C1850 0.950 . S
H1842 C1852 0.950 . S
H1843 C1854 0.950 . S
H1844 C1856 0.950 . S
H1845 C1857 0.950 . S
C1846 H1838 0.950 . S
C1846 C1847 1.386 . S
C1846 C1848 1.391 . S
C1847 C1846 1.386 . S
C1847 C1851 1.393 . S
C1848 H1840 0.950 . S
C1848 C1846 1.391 . S
C1848 C1849 1.400 . S
C1849 C1848 1.400 . S
C1849 C1850 1.398 . S
C1849 C1855 1.491 . S
C1850 H1841 0.950 . S
C1850 C1849 1.398 . S
C1850 C1851 1.391 . S
C1851 H1839 0.950 . S
C1851 C1847 1.393 . S
C1851 C1850 1.391 . S
C1852 H1842 0.950 . S
C1852 C1853 1.386 . S
C1852 C1854 1.391 . S
C1853 C1852 1.386 . S
C1853 C1857 1.393 . S
C1854 H1843 0.950 . S
C1854 C1852 1.391 . S
C1854 C1855 1.400 . S
C1855 C1849 1.491 . S
C1855 C1854 1.400 . S
C1855 C1856 1.398 . S
C1856 H1844 0.950 . S
C1856 C1855 1.398 . S
C1856 C1857 1.391 . S
C1857 H1845 0.950 . S
C1857 C1853 1.393 . S
C1857 C1856 1.391 . S
H1858 C1866 0.950 . S
H1859 C1871 0.950 . S
H1860 C1868 0.950 . S
H1861 C1870 0.950 . S
H1862 C1872 0.950 . S
H1863 C1874 0.950 . S
H1864 C1876 0.950 . S
H1865 C1877 0.950 . S
C1866 H1858 0.950 . S
C1866 C1867 1.386 . S
C1866 C1868 1.391 . S
C1867 C1866 1.386 . S
C1867 C1871 1.393 . S
C1868 H1860 0.950 . S
C1868 C1866 1.391 . S
C1868 C1869 1.400 . S
C1869 C1868 1.400 . S
C1869 C1870 1.398 . S
C1869 C1875 1.491 . S
C1870 H1861 0.950 . S
C1870 C1869 1.398 . S
C1870 C1871 1.391 . S
C1871 H1859 0.950 . S
C1871 C1867 1.393 . S
C1871 C1870 1.391 . S
C1872 H1862 0.950 . S
C1872 C1873 1.386 . S
C1872 C1874 1.391 . S
C1873 C1872 1.386 . S
C1873 C1877 1.393 . S
C1874 H1863 0.950 . S
C1874 C1872 1.391 . S
C1874 C1875 1.400 . S
C1875 C1869 1.491 . S
C1875 C1874 1.400 . S
C1875 C1876 1.398 . S
C1876 H1864 0.950 . S
C1876 C1875 1.398 . S
C1876 C1877 1.391 . S
C1877 H1865 0.950 . S
C1877 C1873 1.393 . S
C1877 C1876 1.391 . S
H1878 C1886 0.950 . S
H1879 C1891 0.950 . S
H1880 C1888 0.950 . S
H1881 C1890 0.950 . S
H1882 C1892 0.950 . S
H1883 C1894 0.950 . S
H1884 C1896 0.950 . S
H1885 C1897 0.950 . S
C1886 H1878 0.950 . S
C1886 C1887 1.386 1_565 S
C1886 C1888 1.391 . S
C1887 C1886 1.386 1_545 S
C1887 C1891 1.393 . S
C1888 H1880 0.950 . S
C1888 C1886 1.391 . S
C1888 C1889 1.400 . S
C1889 C1888 1.400 . S
C1889 C1890 1.398 . S
C1889 C1895 1.491 . S
C1890 H1881 0.950 . S
C1890 C1889 1.398 . S
C1890 C1891 1.391 1_565 S
C1891 H1879 0.950 . S
C1891 C1887 1.393 . S
C1891 C1890 1.391 1_545 S
C1892 H1882 0.950 . S
C1892 C1893 1.386 . S
C1892 C1894 1.391 . S
C1893 C1892 1.386 . S
C1893 C1897 1.393 . S
C1894 H1883 0.950 . S
C1894 C1892 1.391 . S
C1894 C1895 1.400 . S
C1895 C1889 1.491 . S
C1895 C1894 1.400 . S
C1895 C1896 1.398 . S
C1896 H1884 0.950 . S
C1896 C1895 1.398 . S
C1896 C1897 1.391 . S
C1897 H1885 0.950 . S
C1897 C1893 1.393 . S
C1897 C1896 1.391 . S
H1898 C1906 0.950 . S
H1899 C1911 0.950 . S
H1900 C1908 0.950 . S
H1901 C1910 0.950 . S
H1902 C1912 0.950 . S
H1903 C1914 0.950 . S
H1904 C1916 0.950 . S
H1905 C1917 0.950 . S
C1906 H1898 0.950 . S
C1906 C1907 1.386 . S
C1906 C1908 1.391 1_655 S
C1907 C1906 1.386 . S
C1907 C1911 1.393 1_655 S
C1908 H1900 0.950 . S
C1908 C1906 1.391 1_455 S
C1908 C1909 1.400 . S
C1909 C1908 1.400 . S
C1909 C1910 1.398 . S
C1909 C1915 1.491 . S
C1910 H1901 0.950 . S
C1910 C1909 1.398 . S
C1910 C1911 1.391 . S
C1911 H1899 0.950 . S
C1911 C1907 1.393 1_455 S
C1911 C1910 1.391 . S
C1912 H1902 0.950 . S
C1912 C1913 1.386 . S
C1912 C1914 1.391 . S
C1913 C1912 1.386 . S
C1913 C1917 1.393 . S
C1914 H1903 0.950 . S
C1914 C1912 1.391 . S
C1914 C1915 1.400 . S
C1915 C1909 1.491 . S
C1915 C1914 1.400 . S
C1915 C1916 1.398 . S
C1916 H1904 0.950 . S
C1916 C1915 1.398 . S
C1916 C1917 1.391 . S
C1917 H1905 0.950 . S
C1917 C1913 1.393 . S
C1917 C1916 1.391 . S
H1918 C1926 0.950 . S
H1919 C1931 0.950 . S
H1920 C1928 0.950 . S
H1921 C1930 0.950 . S
H1922 C1932 0.950 . S
H1923 C1934 0.950 . S
H1924 C1936 0.950 . S
H1925 C1937 0.950 . S
C1926 H1918 0.950 . S
C1926 C1927 1.386 . S
C1926 C1928 1.391 . S
C1927 C1926 1.386 . S
C1927 C1931 1.393 . S
C1928 H1920 0.950 . S
C1928 C1926 1.391 . S
C1928 C1929 1.400 . S
C1929 C1928 1.400 . S
C1929 C1930 1.398 . S
C1929 C1935 1.491 . S
C1930 H1921 0.950 . S
C1930 C1929 1.398 . S
C1930 C1931 1.391 . S
C1931 H1919 0.950 . S
C1931 C1927 1.393 . S
C1931 C1930 1.391 . S
C1932 H1922 0.950 . S
C1932 C1933 1.386 . S
C1932 C1934 1.391 . S
C1933 C1932 1.386 . S
C1933 C1937 1.393 . S
C1934 H1923 0.950 . S
C1934 C1932 1.391 . S
C1934 C1935 1.400 . S
C1935 C1929 1.491 . S
C1935 C1934 1.400 . S
C1935 C1936 1.398 . S
C1936 H1924 0.950 . S
C1936 C1935 1.398 . S
C1936 C1937 1.391 . S
C1937 H1925 0.950 . S
C1937 C1933 1.393 . S
C1937 C1936 1.391 . S
H1938 C1946 0.950 . S
H1939 C1951 0.950 . S
H1940 C1948 0.950 . S
H1941 C1950 0.950 . S
H1942 C1952 0.950 . S
H1943 C1954 0.950 . S
H1944 C1956 0.950 . S
H1945 C1957 0.950 . S
C1946 H1938 0.950 . S
C1946 C1947 1.386 . S
C1946 C1948 1.391 . S
C1947 C1946 1.386 . S
C1947 C1951 1.393 . S
C1948 H1940 0.950 . S
C1948 C1946 1.391 . S
C1948 C1949 1.400 . S
C1949 C1948 1.400 . S
C1949 C1950 1.398 . S
C1949 C1955 1.491 . S
C1950 H1941 0.950 . S
C1950 C1949 1.398 . S
C1950 C1951 1.391 . S
C1951 H1939 0.950 . S
C1951 C1947 1.393 . S
C1951 C1950 1.391 . S
C1952 H1942 0.950 . S
C1952 C1953 1.386 . S
C1952 C1954 1.391 . S
C1953 C1952 1.386 . S
C1953 C1957 1.393 . S
C1954 H1943 0.950 . S
C1954 C1952 1.391 . S
C1954 C1955 1.400 . S
C1955 C1949 1.491 . S
C1955 C1954 1.400 . S
C1955 C1956 1.398 . S
C1956 H1944 0.950 . S
C1956 C1955 1.398 . S
C1956 C1957 1.391 . S
C1957 H1945 0.950 . S
C1957 C1953 1.393 . S
C1957 C1956 1.391 . S
H1958 C1966 0.950 . S
H1959 C1971 0.950 . S
H1960 C1968 0.950 . S
H1961 C1970 0.950 . S
H1962 C1972 0.950 . S
H1963 C1974 0.950 . S
H1964 C1976 0.950 . S
H1965 C1977 0.950 . S
C1966 H1958 0.950 . S
C1966 C1967 1.386 . S
C1966 C1968 1.391 . S
C1967 C1966 1.386 . S
C1967 C1971 1.393 . S
C1968 H1960 0.950 . S
C1968 C1966 1.391 . S
C1968 C1969 1.400 . S
C1969 C1968 1.400 . S
C1969 C1970 1.398 . S
C1969 C1975 1.491 . S
C1970 H1961 0.950 . S
C1970 C1969 1.398 . S
C1970 C1971 1.391 . S
C1971 H1959 0.950 . S
C1971 C1967 1.393 . S
C1971 C1970 1.391 . S
C1972 H1962 0.950 . S
C1972 C1973 1.386 . S
C1972 C1974 1.391 . S
C1973 C1972 1.386 . S
C1973 C1977 1.393 . S
C1974 H1963 0.950 . S
C1974 C1972 1.391 . S
C1974 C1975 1.400 . S
C1975 C1969 1.491 . S
C1975 C1974 1.400 . S
C1975 C1976 1.398 . S
C1976 H1964 0.950 . S
C1976 C1975 1.398 . S
C1976 C1977 1.391 . S
C1977 H1965 0.950 . S
C1977 C1973 1.393 . S
C1977 C1976 1.391 . S
H1978 C1986 0.950 . S
H1979 C1991 0.950 . S
H1980 C1988 0.950 . S
H1981 C1990 0.950 . S
H1982 C1992 0.950 . S
H1983 C1994 0.950 . S
H1984 C1996 0.950 . S
H1985 C1997 0.950 . S
C1986 H1978 0.950 . S
C1986 C1987 1.386 . S
C1986 C1988 1.391 . S
C1987 C1986 1.386 . S
C1987 C1991 1.393 . S
C1988 H1980 0.950 . S
C1988 C1986 1.391 . S
C1988 C1989 1.400 . S
C1989 C1988 1.400 . S
C1989 C1990 1.398 . S
C1989 C1995 1.491 . S
C1990 H1981 0.950 . S
C1990 C1989 1.398 . S
C1990 C1991 1.391 . S
C1991 H1979 0.950 . S
C1991 C1987 1.393 . S
C1991 C1990 1.391 . S
C1992 H1982 0.950 . S
C1992 C1993 1.386 . S
C1992 C1994 1.391 . S
C1993 C1992 1.386 . S
C1993 C1997 1.393 . S
C1994 H1983 0.950 . S
C1994 C1992 1.391 . S
C1994 C1995 1.400 . S
C1995 C1989 1.491 . S
C1995 C1994 1.400 . S
C1995 C1996 1.398 . S
C1996 H1984 0.950 . S
C1996 C1995 1.398 . S
C1996 C1997 1.391 . S
C1997 H1985 0.950 . S
C1997 C1993 1.393 . S
C1997 C1996 1.391 . S
H1998 C2006 0.950 . S
H1999 C2011 0.950 . S
H2000 C2008 0.950 . S
H2001 C2010 0.950 . S
H2002 C2012 0.950 . S
H2003 C2014 0.950 . S
H2004 C2016 0.950 . S
H2005 C2017 0.950 . S
C2006 H1998 0.950 . S
C2006 C2007 1.386 1_545 S
C2006 C2008 1.391 . S
C2007 C2006 1.386 1_565 S
C2007 C2011 1.393 . S
C2008 H2000 0.950 . S
C2008 C2006 1.391 . S
C2008 C2009 1.400 . S
C2009 C2008 1.400 . S
C2009 C2010 1.398 . S
C2009 C2015 1.491 . S
C2010 H2001 0.950 . S
C2010 C2009 1.398 . S
C2010 C2011 1.391 1_545 S
C2011 H1999 0.950 . S
C2011 C2007 1.393 . S
C2011 C2010 1.391 1_565 S
C2012 H2002 0.950 . S
C2012 C2013 1.386 . S
C2012 C2014 1.391 . S
C2013 C2012 1.386 . S
C2013 C2017 1.393 . S
C2014 H2003 0.950 . S
C2014 C2012 1.391 . S
C2014 C2015 1.400 . S
C2015 C2009 1.491 . S
C2015 C2014 1.400 . S
C2015 C2016 1.398 . S
C2016 H2004 0.950 . S
C2016 C2015 1.398 . S
C2016 C2017 1.391 . S
C2017 H2005 0.950 . S
C2017 C2013 1.393 . S
C2017 C2016 1.391 . S
H2018 C2026 0.950 . S
H2019 C2031 0.950 . S
H2020 C2028 0.950 . S
H2021 C2030 0.950 . S
H2022 C2032 0.950 . S
H2023 C2034 0.950 . S
H2024 C2036 0.950 . S
H2025 C2037 0.950 . S
C2026 H2018 0.950 . S
C2026 C2027 1.386 . S
C2026 C2028 1.391 1_455 S
C2027 C2026 1.386 . S
C2027 C2031 1.393 1_455 S
C2028 H2020 0.950 . S
C2028 C2026 1.391 1_655 S
C2028 C2029 1.400 . S
C2029 C2028 1.400 . S
C2029 C2030 1.398 . S
C2029 C2035 1.491 . S
C2030 H2021 0.950 . S
C2030 C2029 1.398 . S
C2030 C2031 1.391 . S
C2031 H2019 0.950 . S
C2031 C2027 1.393 1_655 S
C2031 C2030 1.391 . S
C2032 H2022 0.950 . S
C2032 C2033 1.386 . S
C2032 C2034 1.391 . S
C2033 C2032 1.386 . S
C2033 C2037 1.393 . S
C2034 H2023 0.950 . S
C2034 C2032 1.391 . S
C2034 C2035 1.400 . S
C2035 C2029 1.491 . S
C2035 C2034 1.400 . S
C2035 C2036 1.398 . S
C2036 H2024 0.950 . S
C2036 C2035 1.398 . S
C2036 C2037 1.391 . S
C2037 H2025 0.950 . S
C2037 C2033 1.393 . S
C2037 C2036 1.391 . S
H2038 C2046 0.950 . S
H2039 C2051 0.950 . S
H2040 C2048 0.950 . S
H2041 C2050 0.950 . S
H2042 C2052 0.950 . S
H2043 C2054 0.950 . S
H2044 C2056 0.950 . S
H2045 C2057 0.950 . S
C2046 H2038 0.950 . S
C2046 C2047 1.386 . S
C2046 C2048 1.391 . S
C2047 C2046 1.386 . S
C2047 C2051 1.393 . S
C2048 H2040 0.950 . S
C2048 C2046 1.391 . S
C2048 C2049 1.400 . S
C2049 C2048 1.400 . S
C2049 C2050 1.398 . S
C2049 C2055 1.491 . S
C2050 H2041 0.950 . S
C2050 C2049 1.398 . S
C2050 C2051 1.391 . S
C2051 H2039 0.950 . S
C2051 C2047 1.393 . S
C2051 C2050 1.391 . S
C2052 H2042 0.950 . S
C2052 C2053 1.386 . S
C2052 C2054 1.391 . S
C2053 C2052 1.386 . S
C2053 C2057 1.393 . S
C2054 H2043 0.950 . S
C2054 C2052 1.391 . S
C2054 C2055 1.400 . S
C2055 C2049 1.491 . S
C2055 C2054 1.400 . S
C2055 C2056 1.398 . S
C2056 H2044 0.950 . S
C2056 C2055 1.398 . S
C2056 C2057 1.391 . S
C2057 H2045 0.950 . S
C2057 C2053 1.393 . S
C2057 C2056 1.391 . S
H2058 C2066 0.950 . S
H2059 C2071 0.954 . S
H2060 C2068 0.950 . S
H2061 C2070 0.950 . S
H2062 C2072 0.950 . S
H2063 C2074 0.950 . S
H2064 C2076 0.950 . S
H2065 C2077 0.950 . S
C2066 H2058 0.950 . S
C2066 C2067 1.386 . S
C2066 C2068 1.391 1_455 S
C2067 C2066 1.386 . S
C2067 C2071 1.393 1_455 S
C2068 H2060 0.950 . S
C2068 C2066 1.391 1_655 S
C2068 C2069 1.400 . S
C2069 C2068 1.400 . S
C2069 C2070 1.398 . S
C2069 C2075 1.491 . S
C2070 H2061 0.950 . S
C2070 C2069 1.398 . S
C2070 C2071 1.391 . S
C2071 H2059 0.954 . S
C2071 C2067 1.393 1_655 S
C2071 C2070 1.391 . S
C2072 H2062 0.950 . S
C2072 C2073 1.386 . S
C2072 C2074 1.391 . S
C2073 C2072 1.386 . S
C2073 C2077 1.393 . S
C2074 H2063 0.950 . S
C2074 C2072 1.391 . S
C2074 C2075 1.400 . S
C2075 C2069 1.491 . S
C2075 C2074 1.400 . S
C2075 C2076 1.398 . S
C2076 H2064 0.950 . S
C2076 C2075 1.398 . S
C2076 C2077 1.391 . S
C2077 H2065 0.950 . S
C2077 C2073 1.393 . S
C2077 C2076 1.391 . S
H2078 C2086 0.950 . S
H2079 C2091 0.950 . S
H2080 C2088 0.950 . S
H2081 C2090 0.950 . S
H2082 C2092 0.950 . S
H2083 C2094 0.950 . S
H2084 C2096 0.950 . S
H2085 C2097 0.950 . S
C2086 H2078 0.950 . S
C2086 C2087 1.386 . S
C2086 C2088 1.391 . S
C2087 C2086 1.386 . S
C2087 C2091 1.393 . S
C2088 H2080 0.950 . S
C2088 C2086 1.391 . S
C2088 C2089 1.400 . S
C2089 C2088 1.400 . S
C2089 C2090 1.398 . S
C2089 C2095 1.491 . S
C2090 H2081 0.950 . S
C2090 C2089 1.398 . S
C2090 C2091 1.391 . S
C2091 H2079 0.950 . S
C2091 C2087 1.393 . S
C2091 C2090 1.391 . S
C2092 H2082 0.950 . S
C2092 C2093 1.386 . S
C2092 C2094 1.391 . S
C2093 C2092 1.386 . S
C2093 C2097 1.393 . S
C2094 H2083 0.950 . S
C2094 C2092 1.391 . S
C2094 C2095 1.400 . S
C2095 C2089 1.491 . S
C2095 C2094 1.400 . S
C2095 C2096 1.398 . S
C2096 H2084 0.950 . S
C2096 C2095 1.398 . S
C2096 C2097 1.391 . S
C2097 H2085 0.950 . S
C2097 C2093 1.393 . S
C2097 C2096 1.391 . S
H2098 C2106 0.950 . S
H2099 C2111 0.950 . S
H2100 C2108 0.950 . S
H2101 C2110 0.950 . S
H2102 C2112 0.950 . S
H2103 C2114 0.950 . S
H2104 C2116 0.950 . S
H2105 C2117 0.950 . S
C2106 H2098 0.950 . S
C2106 C2107 1.386 . S
C2106 C2108 1.391 1_565 S
C2107 C2106 1.386 . S
C2107 C2111 1.393 . S
C2108 H2100 0.950 . S
C2108 C2106 1.391 1_545 S
C2108 C2109 1.400 . S
C2109 C2108 1.400 . S
C2109 C2110 1.398 . S
C2109 C2115 1.491 . S
C2110 H2101 0.950 . S
C2110 C2109 1.398 . S
C2110 C2111 1.391 1_545 S
C2111 H2099 0.950 . S
C2111 C2107 1.393 . S
C2111 C2110 1.391 1_565 S
C2112 H2102 0.950 . S
C2112 C2113 1.386 . S
C2112 C2114 1.391 . S
C2113 C2112 1.386 . S
C2113 C2117 1.393 . S
C2114 H2103 0.950 . S
C2114 C2112 1.391 . S
C2114 C2115 1.400 . S
C2115 C2109 1.491 . S
C2115 C2114 1.400 . S
C2115 C2116 1.398 . S
C2116 H2104 0.950 . S
C2116 C2115 1.398 . S
C2116 C2117 1.391 . S
C2117 H2105 0.950 . S
C2117 C2113 1.393 . S
C2117 C2116 1.391 . S
H2118 C2126 0.950 . S
H2119 C2131 0.950 . S
H2120 C2128 0.950 . S
H2121 C2130 0.950 . S
H2122 C2132 0.950 . S
H2123 C2134 0.950 . S
H2124 C2136 0.950 . S
H2125 C2137 0.950 . S
C2126 H2118 0.950 . S
C2126 C2127 1.386 . S
C2126 C2128 1.391 . S
C2127 C2126 1.386 . S
C2127 C2131 1.393 . S
C2128 H2120 0.950 . S
C2128 C2126 1.391 . S
C2128 C2129 1.400 . S
C2129 C2128 1.400 . S
C2129 C2130 1.398 . S
C2129 C2135 1.491 . S
C2130 H2121 0.950 . S
C2130 C2129 1.398 . S
C2130 C2131 1.391 . S
C2131 H2119 0.950 . S
C2131 C2127 1.393 . S
C2131 C2130 1.391 . S
C2132 H2122 0.950 . S
C2132 C2133 1.386 . S
C2132 C2134 1.391 . S
C2133 C2132 1.386 . S
C2133 C2137 1.393 . S
C2134 H2123 0.950 . S
C2134 C2132 1.391 . S
C2134 C2135 1.400 . S
C2135 C2129 1.491 . S
C2135 C2134 1.400 . S
C2135 C2136 1.398 . S
C2136 H2124 0.950 . S
C2136 C2135 1.398 . S
C2136 C2137 1.391 . S
C2137 H2125 0.950 . S
C2137 C2133 1.393 . S
C2137 C2136 1.391 . S
H2138 C2146 0.950 . S
H2139 C2151 0.950 . S
H2140 C2148 0.950 . S
H2141 C2150 0.950 . S
H2142 C2152 0.950 . S
H2143 C2154 0.950 . S
H2144 C2156 0.950 . S
H2145 C2157 0.950 . S
C2146 H2138 0.950 . S
C2146 C2147 1.386 . S
C2146 C2148 1.391 . S
C2147 C2146 1.386 . S
C2147 C2151 1.393 . S
C2148 H2140 0.950 . S
C2148 C2146 1.391 . S
C2148 C2149 1.400 . S
C2149 C2148 1.400 . S
C2149 C2150 1.398 . S
C2149 C2155 1.491 . S
C2150 H2141 0.950 . S
C2150 C2149 1.398 . S
C2150 C2151 1.391 . S
C2151 H2139 0.950 . S
C2151 C2147 1.393 . S
C2151 C2150 1.391 . S
C2152 H2142 0.950 . S
C2152 C2153 1.386 . S
C2152 C2154 1.391 . S
C2153 C2152 1.386 . S
C2153 C2157 1.393 . S
C2154 H2143 0.950 . S
C2154 C2152 1.391 . S
C2154 C2155 1.400 . S
C2155 C2149 1.491 . S
C2155 C2154 1.400 . S
C2155 C2156 1.398 . S
C2156 H2144 0.950 . S
C2156 C2155 1.398 . S
C2156 C2157 1.391 . S
C2157 H2145 0.950 . S
C2157 C2153 1.393 . S
C2157 C2156 1.391 . S
H2158 C2166 0.950 . S
H2159 C2171 0.950 . S
H2160 C2168 0.950 . S
H2161 C2170 0.950 . S
H2162 C2172 0.950 . S
H2163 C2174 0.950 . S
H2164 C2176 0.950 . S
H2165 C2177 0.950 . S
C2166 H2158 0.950 . S
C2166 C2167 1.386 . S
C2166 C2168 1.391 . S
C2167 C2166 1.386 . S
C2167 C2171 1.393 . S
C2168 H2160 0.950 . S
C2168 C2166 1.391 . S
C2168 C2169 1.400 . S
C2169 C2168 1.400 . S
C2169 C2170 1.398 . S
C2169 C2175 1.491 . S
C2170 H2161 0.950 . S
C2170 C2169 1.398 . S
C2170 C2171 1.391 . S
C2171 H2159 0.950 . S
C2171 C2167 1.393 . S
C2171 C2170 1.391 . S
C2172 H2162 0.950 . S
C2172 C2173 1.386 . S
C2172 C2174 1.391 . S
C2173 C2172 1.386 . S
C2173 C2177 1.393 . S
C2174 H2163 0.950 . S
C2174 C2172 1.391 . S
C2174 C2175 1.400 . S
C2175 C2169 1.491 . S
C2175 C2174 1.400 . S
C2175 C2176 1.398 . S
C2176 H2164 0.950 . S
C2176 C2175 1.398 . S
C2176 C2177 1.391 . S
C2177 H2165 0.950 . S
C2177 C2173 1.393 . S
C2177 C2176 1.391 . S
H2178 C2186 0.950 . S
H2179 C2191 0.950 . S
H2180 C2188 0.950 . S
H2181 C2190 0.950 . S
H2182 C2192 0.950 . S
H2183 C2194 0.950 . S
H2184 C2196 0.950 . S
H2185 C2197 0.950 1_545 S
C2186 H2178 0.950 . S
C2186 C2187 1.386 . S
C2186 C2188 1.391 . S
C2187 C2186 1.386 . S
C2187 C2191 1.393 . S
C2188 H2180 0.950 . S
C2188 C2186 1.391 . S
C2188 C2189 1.400 . S
C2189 C2188 1.400 . S
C2189 C2190 1.398 . S
C2189 C2195 1.491 . S
C2190 H2181 0.950 . S
C2190 C2189 1.398 . S
C2190 C2191 1.391 . S
C2191 H2179 0.950 . S
C2191 C2187 1.393 . S
C2191 C2190 1.391 . S
C2192 H2182 0.950 . S
C2192 C2193 1.386 . S
C2192 C2194 1.391 . S
C2193 C2192 1.386 . S
C2193 C2197 1.393 . S
C2194 H2183 0.950 . S
C2194 C2192 1.391 . S
C2194 C2195 1.400 . S
C2195 C2189 1.491 . S
C2195 C2194 1.400 . S
C2195 C2196 1.398 . S
C2196 H2184 0.950 . S
C2196 C2195 1.398 . S
C2196 C2197 1.391 . S
C2197 H2185 0.950 1_565 S
C2197 C2193 1.393 . S
C2197 C2196 1.391 . S
H2198 C2206 0.950 . S
H2199 C2211 0.950 . S
H2200 C2208 0.950 . S
H2201 C2210 0.950 . S
H2202 C2212 0.962 . S
H2203 C2214 0.950 . S
H2204 C2216 0.950 . S
H2205 C2217 0.950 . S
C2206 H2198 0.950 . S
C2206 C2207 1.386 . S
C2206 C2208 1.391 . S
C2207 C2206 1.386 . S
C2207 C2211 1.393 . S
C2208 H2200 0.950 . S
C2208 C2206 1.391 . S
C2208 C2209 1.400 . S
C2209 C2208 1.400 . S
C2209 C2210 1.398 . S
C2209 C2215 1.491 . S
C2210 H2201 0.950 . S
C2210 C2209 1.398 . S
C2210 C2211 1.391 . S
C2211 H2199 0.950 . S
C2211 C2207 1.393 . S
C2211 C2210 1.391 . S
C2212 H2202 0.962 . S
C2212 C2213 1.386 . S
C2212 C2214 1.391 . S
C2213 C2212 1.386 . S
C2213 C2217 1.393 . S
C2214 H2203 0.950 . S
C2214 C2212 1.391 . S
C2214 C2215 1.400 . S
C2215 C2209 1.491 . S
C2215 C2214 1.400 . S
C2215 C2216 1.398 . S
C2216 H2204 0.950 . S
C2216 C2215 1.398 . S
C2216 C2217 1.391 . S
C2217 H2205 0.950 . S
C2217 C2213 1.393 . S
C2217 C2216 1.391 . S
H2218 C2226 0.950 . S
H2219 C2231 0.950 . S
H2220 C2228 0.950 . S
H2221 C2230 0.950 . S
H2222 C2232 0.950 . S
H2223 C2234 0.950 . S
H2224 C2236 0.950 . S
H2225 C2237 0.950 . S
C2226 H2218 0.950 . S
C2226 C2227 1.386 . S
C2226 C2228 1.391 . S
C2227 C2226 1.386 . S
C2227 C2231 1.393 . S
C2228 H2220 0.950 . S
C2228 C2226 1.391 . S
C2228 C2229 1.400 . S
C2229 C2228 1.400 . S
C2229 C2230 1.398 . S
C2229 C2235 1.491 . S
C2230 H2221 0.950 . S
C2230 C2229 1.398 . S
C2230 C2231 1.391 . S
C2231 H2219 0.950 . S
C2231 C2227 1.393 . S
C2231 C2230 1.391 . S
C2232 H2222 0.950 . S
C2232 C2233 1.386 . S
C2232 C2234 1.391 . S
C2233 C2232 1.386 . S
C2233 C2237 1.393 . S
C2234 H2223 0.950 . S
C2234 C2232 1.391 . S
C2234 C2235 1.400 . S
C2235 C2229 1.491 . S
C2235 C2234 1.400 . S
C2235 C2236 1.398 . S
C2236 H2224 0.950 . S
C2236 C2235 1.398 . S
C2236 C2237 1.391 . S
C2237 H2225 0.950 . S
C2237 C2233 1.393 . S
C2237 C2236 1.391 . S
H2238 C2246 0.950 . S
H2239 C2251 0.950 . S
H2240 C2248 0.950 . S
H2241 C2250 0.950 . S
H2242 C2252 0.950 . S
H2243 C2254 0.950 . S
H2244 C2256 0.950 . S
H2245 C2257 0.950 . S
C2246 H2238 0.950 . S
C2246 C2247 1.386 . S
C2246 C2248 1.391 . S
C2247 C2246 1.386 . S
C2247 C2251 1.393 . S
C2248 H2240 0.950 . S
C2248 C2246 1.391 . S
C2248 C2249 1.400 . S
C2249 C2248 1.400 . S
C2249 C2250 1.398 . S
C2249 C2255 1.491 . S
C2250 H2241 0.950 . S
C2250 C2249 1.398 . S
C2250 C2251 1.391 . S
C2251 H2239 0.950 . S
C2251 C2247 1.393 . S
C2251 C2250 1.391 . S
C2252 H2242 0.950 . S
C2252 C2253 1.386 . S
C2252 C2254 1.391 . S
C2253 C2252 1.386 . S
C2253 C2257 1.393 . S
C2254 H2243 0.950 . S
C2254 C2252 1.391 . S
C2254 C2255 1.400 . S
C2255 C2249 1.491 . S
C2255 C2254 1.400 . S
C2255 C2256 1.398 . S
C2256 H2244 0.950 . S
C2256 C2255 1.398 . S
C2256 C2257 1.391 . S
C2257 H2245 0.950 . S
C2257 C2253 1.393 . S
C2257 C2256 1.391 . S
H2258 C2266 0.950 . S
H2259 C2271 0.950 . S
H2260 C2268 0.950 . S
H2261 C2270 0.950 . S
H2262 C2272 0.950 . S
H2263 C2274 0.950 . S
H2264 C2276 0.950 . S
H2265 C2277 0.950 . S
C2266 H2258 0.950 . S
C2266 C2267 1.386 . S
C2266 C2268 1.391 . S
C2267 C2266 1.386 . S
C2267 C2271 1.393 . S
C2268 H2260 0.950 . S
C2268 C2266 1.391 . S
C2268 C2269 1.400 . S
C2269 C2268 1.400 . S
C2269 C2270 1.398 . S
C2269 C2275 1.491 . S
C2270 H2261 0.950 . S
C2270 C2269 1.398 . S
C2270 C2271 1.391 . S
C2271 H2259 0.950 . S
C2271 C2267 1.393 . S
C2271 C2270 1.391 . S
C2272 H2262 0.950 . S
C2272 C2273 1.386 . S
C2272 C2274 1.391 . S
C2273 C2272 1.386 . S
C2273 C2277 1.393 . S
C2274 H2263 0.950 . S
C2274 C2272 1.391 . S
C2274 C2275 1.400 . S
C2275 C2269 1.491 . S
C2275 C2274 1.400 . S
C2275 C2276 1.398 . S
C2276 H2264 0.950 . S
C2276 C2275 1.398 . S
C2276 C2277 1.391 . S
C2277 H2265 0.950 . S
C2277 C2273 1.393 . S
C2277 C2276 1.391 . S
H2278 C2286 0.950 . S
H2279 C2291 0.950 . S
H2280 C2288 0.950 . S
H2281 C2290 0.950 . S
H2282 C2292 0.950 . S
H2283 C2294 0.950 . S
H2284 C2296 0.950 . S
H2285 C2297 0.950 . S
C2286 H2278 0.950 . S
C2286 C2287 1.386 . S
C2286 C2288 1.391 . S
C2287 C2286 1.386 . S
C2287 C2291 1.393 . S
C2288 H2280 0.950 . S
C2288 C2286 1.391 . S
C2288 C2289 1.400 . S
C2289 C2288 1.400 . S
C2289 C2290 1.398 . S
C2289 C2295 1.491 . S
C2290 H2281 0.950 . S
C2290 C2289 1.398 . S
C2290 C2291 1.391 . S
C2291 H2279 0.950 . S
C2291 C2287 1.393 . S
C2291 C2290 1.391 . S
C2292 H2282 0.950 . S
C2292 C2293 1.386 . S
C2292 C2294 1.391 . S
C2293 C2292 1.386 . S
C2293 C2297 1.393 . S
C2294 H2283 0.950 . S
C2294 C2292 1.391 . S
C2294 C2295 1.400 . S
C2295 C2289 1.491 . S
C2295 C2294 1.400 . S
C2295 C2296 1.398 . S
C2296 H2284 0.950 . S
C2296 C2295 1.398 . S
C2296 C2297 1.391 . S
C2297 H2285 0.950 . S
C2297 C2293 1.393 . S
C2297 C2296 1.391 . S
H2298 C2306 0.950 . S
H2299 C2311 0.950 . S
H2300 C2308 0.950 . S
H2301 C2310 0.950 . S
H2302 C2312 0.950 . S
H2303 C2314 0.950 . S
H2304 C2316 0.950 . S
H2305 C2317 0.950 . S
C2306 H2298 0.950 . S
C2306 C2307 1.386 . S
C2306 C2308 1.391 . S
C2307 C2306 1.386 . S
C2307 C2311 1.393 . S
C2308 H2300 0.950 . S
C2308 C2306 1.391 . S
C2308 C2309 1.400 . S
C2309 C2308 1.400 . S
C2309 C2310 1.398 . S
C2309 C2315 1.491 . S
C2310 H2301 0.950 . S
C2310 C2309 1.398 . S
C2310 C2311 1.391 . S
C2311 H2299 0.950 . S
C2311 C2307 1.393 . S
C2311 C2310 1.391 . S
C2312 H2302 0.950 . S
C2312 C2313 1.386 . S
C2312 C2314 1.391 . S
C2313 C2312 1.386 . S
C2313 C2317 1.393 . S
C2314 H2303 0.950 . S
C2314 C2312 1.391 . S
C2314 C2315 1.400 . S
C2315 C2309 1.491 . S
C2315 C2314 1.400 . S
C2315 C2316 1.398 . S
C2316 H2304 0.950 . S
C2316 C2315 1.398 . S
C2316 C2317 1.391 . S
C2317 H2305 0.950 . S
C2317 C2313 1.393 . S
C2317 C2316 1.391 . S
H2318 C2326 0.950 . S
H2319 C2331 0.950 . S
H2320 C2328 0.950 . S
H2321 C2330 0.950 . S
H2322 C2332 0.950 . S
H2323 C2334 0.950 . S
H2324 C2336 0.950 . S
H2325 C2337 0.950 . S
C2326 H2318 0.950 . S
C2326 C2327 1.386 . S
C2326 C2328 1.391 . S
C2327 C2326 1.386 . S
C2327 C2331 1.393 . S
C2328 H2320 0.950 . S
C2328 C2326 1.391 . S
C2328 C2329 1.400 . S
C2329 C2328 1.400 . S
C2329 C2330 1.398 . S
C2329 C2335 1.491 . S
C2330 H2321 0.950 . S
C2330 C2329 1.398 . S
C2330 C2331 1.391 . S
C2331 H2319 0.950 . S
C2331 C2327 1.393 . S
C2331 C2330 1.391 . S
C2332 H2322 0.950 . S
C2332 C2333 1.386 . S
C2332 C2334 1.391 . S
C2333 C2332 1.386 . S
C2333 C2337 1.393 . S
C2334 H2323 0.950 . S
C2334 C2332 1.391 . S
C2334 C2335 1.400 . S
C2335 C2329 1.491 . S
C2335 C2334 1.400 . S
C2335 C2336 1.398 . S
C2336 H2324 0.950 . S
C2336 C2335 1.398 . S
C2336 C2337 1.391 . S
C2337 H2325 0.950 . S
C2337 C2333 1.393 . S
C2337 C2336 1.391 . S
H2338 C2346 0.950 . S
H2339 C2351 0.950 . S
H2340 C2348 0.950 . S
H2341 C2350 0.950 . S
H2342 C2352 0.950 . S
H2343 C2354 0.950 . S
H2344 C2356 0.950 . S
H2345 C2357 0.950 . S
C2346 H2338 0.950 . S
C2346 C2347 1.386 . S
C2346 C2348 1.391 . S
C2347 C2346 1.386 . S
C2347 C2351 1.393 . S
C2348 H2340 0.950 . S
C2348 C2346 1.391 . S
C2348 C2349 1.400 . S
C2349 C2348 1.400 . S
C2349 C2350 1.398 . S
C2349 C2355 1.491 . S
C2350 H2341 0.950 . S
C2350 C2349 1.398 . S
C2350 C2351 1.391 . S
C2351 H2339 0.950 . S
C2351 C2347 1.393 . S
C2351 C2350 1.391 . S
C2352 H2342 0.950 . S
C2352 C2353 1.386 . S
C2352 C2354 1.391 . S
C2353 C2352 1.386 . S
C2353 C2357 1.393 . S
C2354 H2343 0.950 . S
C2354 C2352 1.391 . S
C2354 C2355 1.400 . S
C2355 C2349 1.491 . S
C2355 C2354 1.400 . S
C2355 C2356 1.398 . S
C2356 H2344 0.950 . S
C2356 C2355 1.398 . S
C2356 C2357 1.391 . S
C2357 H2345 0.950 . S
C2357 C2353 1.393 . S
C2357 C2356 1.391 . S
H2358 C2366 0.950 . S
H2359 C2371 0.950 . S
H2360 C2368 0.950 . S
H2361 C2370 0.950 . S
H2362 C2372 0.950 . S
H2363 C2374 0.950 . S
H2364 C2376 0.950 . S
H2365 C2377 0.950 . S
C2366 H2358 0.950 . S
C2366 C2367 1.386 . S
C2366 C2368 1.391 . S
C2367 C2366 1.386 . S
C2367 C2371 1.393 . S
C2368 H2360 0.950 . S
C2368 C2366 1.391 . S
C2368 C2369 1.400 . S
C2369 C2368 1.400 . S
C2369 C2370 1.398 . S
C2369 C2375 1.491 . S
C2370 H2361 0.950 . S
C2370 C2369 1.398 . S
C2370 C2371 1.391 . S
C2371 H2359 0.950 . S
C2371 C2367 1.393 . S
C2371 C2370 1.391 . S
C2372 H2362 0.950 . S
C2372 C2373 1.386 . S
C2372 C2374 1.391 . S
C2373 C2372 1.386 . S
C2373 C2377 1.393 . S
C2374 H2363 0.950 . S
C2374 C2372 1.391 . S
C2374 C2375 1.400 . S
C2375 C2369 1.491 . S
C2375 C2374 1.400 . S
C2375 C2376 1.398 . S
C2376 H2364 0.950 . S
C2376 C2375 1.398 . S
C2376 C2377 1.391 . S
C2377 H2365 0.950 . S
C2377 C2373 1.393 . S
C2377 C2376 1.391 . S
H2378 C2386 0.950 . S
H2379 C2391 0.950 . S
H2380 C2388 0.950 . S
H2381 C2390 0.950 . S
H2382 C2392 0.950 . S
H2383 C2394 0.950 . S
H2384 C2396 0.950 . S
H2385 C2397 0.950 . S
C2386 H2378 0.950 . S
C2386 C2387 1.386 . S
C2386 C2388 1.391 . S
C2387 C2386 1.386 . S
C2387 C2391 1.393 . S
C2388 H2380 0.950 . S
C2388 C2386 1.391 . S
C2388 C2389 1.400 . S
C2389 C2388 1.400 . S
C2389 C2390 1.398 . S
C2389 C2395 1.491 . S
C2390 H2381 0.950 . S
C2390 C2389 1.398 . S
C2390 C2391 1.391 . S
C2391 H2379 0.950 . S
C2391 C2387 1.393 . S
C2391 C2390 1.391 . S
C2392 H2382 0.950 . S
C2392 C2393 1.386 . S
C2392 C2394 1.391 . S
C2393 C2392 1.386 . S
C2393 C2397 1.393 . S
C2394 H2383 0.950 . S
C2394 C2392 1.391 . S
C2394 C2395 1.400 . S
C2395 C2389 1.491 . S
C2395 C2394 1.400 . S
C2395 C2396 1.398 . S
C2396 H2384 0.950 . S
C2396 C2395 1.398 . S
C2396 C2397 1.391 . S
C2397 H2385 0.950 . S
C2397 C2393 1.393 . S
C2397 C2396 1.391 . S
H2398 C2406 0.950 . S
H2399 C2411 0.950 . S
H2400 C2408 0.950 . S
H2401 C2410 0.950 . S
H2402 C2412 0.950 . S
H2403 C2414 0.950 . S
H2404 C2416 0.950 . S
H2405 C2417 0.950 . S
C2406 H2398 0.950 . S
C2406 C2407 1.386 . S
C2406 C2408 1.391 . S
C2407 C2406 1.386 . S
C2407 C2411 1.393 . S
C2408 H2400 0.950 . S
C2408 C2406 1.391 . S
C2408 C2409 1.400 . S
C2409 C2408 1.400 . S
C2409 C2410 1.398 . S
C2409 C2415 1.491 . S
C2410 H2401 0.950 . S
C2410 C2409 1.398 . S
C2410 C2411 1.391 . S
C2411 H2399 0.950 . S
C2411 C2407 1.393 . S
C2411 C2410 1.391 . S
C2412 H2402 0.950 . S
C2412 C2413 1.386 . S
C2412 C2414 1.391 . S
C2413 C2412 1.386 . S
C2413 C2417 1.393 . S
C2414 H2403 0.950 . S
C2414 C2412 1.391 . S
C2414 C2415 1.400 . S
C2415 C2409 1.491 . S
C2415 C2414 1.400 . S
C2415 C2416 1.398 . S
C2416 H2404 0.950 . S
C2416 C2415 1.398 . S
C2416 C2417 1.391 . S
C2417 H2405 0.950 . S
C2417 C2413 1.393 . S
C2417 C2416 1.391 . S
H2418 C2426 0.950 . S
H2419 C2431 0.950 . S
H2420 C2428 0.950 . S
H2421 C2430 0.950 . S
H2422 C2432 0.950 . S
H2423 C2434 0.950 . S
H2424 C2436 0.950 . S
H2425 C2437 0.950 . S
C2426 H2418 0.950 . S
C2426 C2427 1.386 . S
C2426 C2428 1.391 . S
C2427 C2426 1.386 . S
C2427 C2431 1.393 . S
C2428 H2420 0.950 . S
C2428 C2426 1.391 . S
C2428 C2429 1.400 . S
C2429 C2428 1.400 . S
C2429 C2430 1.398 . S
C2429 C2435 1.491 . S
C2430 H2421 0.950 . S
C2430 C2429 1.398 . S
C2430 C2431 1.391 . S
C2431 H2419 0.950 . S
C2431 C2427 1.393 . S
C2431 C2430 1.391 . S
C2432 H2422 0.950 . S
C2432 C2433 1.386 . S
C2432 C2434 1.391 . S
C2433 C2432 1.386 . S
C2433 C2437 1.393 . S
C2434 H2423 0.950 . S
C2434 C2432 1.391 . S
C2434 C2435 1.400 . S
C2435 C2429 1.491 . S
C2435 C2434 1.400 . S
C2435 C2436 1.398 . S
C2436 H2424 0.950 . S
C2436 C2435 1.398 . S
C2436 C2437 1.391 . S
C2437 H2425 0.950 . S
C2437 C2433 1.393 . S
C2437 C2436 1.391 . S
H2438 C2446 0.950 . S
H2439 C2451 0.950 . S
H2440 C2448 0.950 . S
H2441 C2450 0.950 . S
H2442 C2452 0.950 . S
H2443 C2454 0.950 . S
H2444 C2456 0.950 . S
H2445 C2457 0.950 . S
C2446 H2438 0.950 . S
C2446 C2447 1.386 . S
C2446 C2448 1.391 . S
C2447 C2446 1.386 . S
C2447 C2451 1.393 . S
C2448 H2440 0.950 . S
C2448 C2446 1.391 . S
C2448 C2449 1.400 . S
C2449 C2448 1.400 . S
C2449 C2450 1.398 . S
C2449 C2455 1.491 . S
C2450 H2441 0.950 . S
C2450 C2449 1.398 . S
C2450 C2451 1.391 . S
C2451 H2439 0.950 . S
C2451 C2447 1.393 . S
C2451 C2450 1.391 . S
C2452 H2442 0.950 . S
C2452 C2453 1.386 . S
C2452 C2454 1.391 . S
C2453 C2452 1.386 . S
C2453 C2457 1.393 . S
C2454 H2443 0.950 . S
C2454 C2452 1.391 . S
C2454 C2455 1.400 . S
C2455 C2449 1.491 . S
C2455 C2454 1.400 . S
C2455 C2456 1.398 . S
C2456 H2444 0.950 . S
C2456 C2455 1.398 . S
C2456 C2457 1.391 . S
C2457 H2445 0.950 . S
C2457 C2453 1.393 . S
C2457 C2456 1.391 . S
H2458 C2466 0.950 . S
H2459 C2471 0.950 . S
H2460 C2468 0.950 . S
H2461 C2470 0.950 . S
H2462 C2472 0.950 . S
H2463 C2474 0.950 . S
H2464 C2476 0.950 . S
H2465 C2477 0.950 . S
C2466 H2458 0.950 . S
C2466 C2467 1.386 . S
C2466 C2468 1.391 . S
C2467 C2466 1.386 . S
C2467 C2471 1.393 . S
C2468 H2460 0.950 . S
C2468 C2466 1.391 . S
C2468 C2469 1.400 . S
C2469 C2468 1.400 . S
C2469 C2470 1.398 . S
C2469 C2475 1.491 . S
C2470 H2461 0.950 . S
C2470 C2469 1.398 . S
C2470 C2471 1.391 . S
C2471 H2459 0.950 . S
C2471 C2467 1.393 . S
C2471 C2470 1.391 . S
C2472 H2462 0.950 . S
C2472 C2473 1.386 . S
C2472 C2474 1.391 . S
C2473 C2472 1.386 . S
C2473 C2477 1.393 . S
C2474 H2463 0.950 . S
C2474 C2472 1.391 . S
C2474 C2475 1.400 . S
C2475 C2469 1.491 . S
C2475 C2474 1.400 . S
C2475 C2476 1.398 . S
C2476 H2464 0.950 . S
C2476 C2475 1.398 . S
C2476 C2477 1.391 . S
C2477 H2465 0.950 . S
C2477 C2473 1.393 . S
C2477 C2476 1.391 . S
H2478 C2486 0.950 . S
H2479 C2491 0.950 . S
H2480 C2488 0.950 . S
H2481 C2490 0.950 . S
H2482 C2492 0.950 . S
H2483 C2494 0.950 . S
H2484 C2496 0.950 . S
H2485 C2497 0.950 . S
C2486 H2478 0.950 . S
C2486 C2487 1.386 . S
C2486 C2488 1.391 . S
C2487 C2486 1.386 . S
C2487 C2491 1.393 . S
C2488 H2480 0.950 . S
C2488 C2486 1.391 . S
C2488 C2489 1.400 . S
C2489 C2488 1.400 . S
C2489 C2490 1.398 . S
C2489 C2495 1.491 . S
C2490 H2481 0.950 . S
C2490 C2489 1.398 . S
C2490 C2491 1.391 . S
C2491 H2479 0.950 . S
C2491 C2487 1.393 . S
C2491 C2490 1.391 . S
C2492 H2482 0.950 . S
C2492 C2493 1.386 . S
C2492 C2494 1.391 . S
C2493 C2492 1.386 . S
C2493 C2497 1.393 . S
C2494 H2483 0.950 . S
C2494 C2492 1.391 . S
C2494 C2495 1.400 . S
C2495 C2489 1.491 . S
C2495 C2494 1.400 . S
C2495 C2496 1.398 . S
C2496 H2484 0.950 . S
C2496 C2495 1.398 . S
C2496 C2497 1.391 . S
C2497 H2485 0.950 . S
C2497 C2493 1.393 . S
C2497 C2496 1.391 . S
H2498 C2506 0.950 . S
H2499 C2511 0.950 . S
H2500 C2508 0.950 . S
H2501 C2510 0.950 . S
H2502 C2512 0.950 . S
H2503 C2514 0.950 . S
H2504 C2516 0.950 . S
H2505 C2517 0.950 . S
C2506 H2498 0.950 . S
C2506 C2507 1.386 . S
C2506 C2508 1.391 . S
C2507 C2506 1.386 . S
C2507 C2511 1.393 . S
C2508 H2500 0.950 . S
C2508 C2506 1.391 . S
C2508 C2509 1.400 . S
C2509 C2508 1.400 . S
C2509 C2510 1.398 . S
C2509 C2515 1.491 . S
C2510 H2501 0.950 . S
C2510 C2509 1.398 . S
C2510 C2511 1.391 . S
C2511 H2499 0.950 . S
C2511 C2507 1.393 . S
C2511 C2510 1.391 . S
C2512 H2502 0.950 . S
C2512 C2513 1.386 . S
C2512 C2514 1.391 . S
C2513 C2512 1.386 . S
C2513 C2517 1.393 . S
C2514 H2503 0.950 . S
C2514 C2512 1.391 . S
C2514 C2515 1.400 . S
C2515 C2509 1.491 . S
C2515 C2514 1.400 . S
C2515 C2516 1.398 . S
C2516 H2504 0.950 . S
C2516 C2515 1.398 . S
C2516 C2517 1.391 . S
C2517 H2505 0.950 . S
C2517 C2513 1.393 . S
C2517 C2516 1.391 . S
H2518 C2526 0.950 . S
H2519 C2531 0.950 . S
H2520 C2528 0.950 . S
H2521 C2530 0.950 . S
H2522 C2532 0.950 . S
H2523 C2534 0.950 . S
H2524 C2536 0.950 . S
H2525 C2537 0.950 . S
C2526 H2518 0.950 . S
C2526 C2527 1.386 . S
C2526 C2528 1.391 . S
C2527 C2526 1.386 . S
C2527 C2531 1.393 . S
C2528 H2520 0.950 . S
C2528 C2526 1.391 . S
C2528 C2529 1.400 . S
C2529 C2528 1.400 . S
C2529 C2530 1.398 . S
C2529 C2535 1.491 . S
C2530 H2521 0.950 . S
C2530 C2529 1.398 . S
C2530 C2531 1.391 . S
C2531 H2519 0.950 . S
C2531 C2527 1.393 . S
C2531 C2530 1.391 . S
C2532 H2522 0.950 . S
C2532 C2533 1.386 . S
C2532 C2534 1.391 . S
C2533 C2532 1.386 . S
C2533 C2537 1.393 . S
C2534 H2523 0.950 . S
C2534 C2532 1.391 . S
C2534 C2535 1.400 . S
C2535 C2529 1.491 . S
C2535 C2534 1.400 . S
C2535 C2536 1.398 . S
C2536 H2524 0.950 . S
C2536 C2535 1.398 . S
C2536 C2537 1.391 . S
C2537 H2525 0.950 . S
C2537 C2533 1.393 . S
C2537 C2536 1.391 . S
C1467 C528 1.424 . S
C1473 C769 1.349 . S
C1487 C562 1.485 . S
C1493 C853 1.403 . S
C1507 C484 1.467 . S
C1513 C933 1.418 . S
C1527 C445 1.432 . S
C1533 C849 1.396 . S
C1553 C937 1.364 . S
C1547 C367 1.424 . S
C1567 C411 1.390 . S
C1573 C765 1.340 . S
C1593 C758 1.347 . S
C1587 C450 1.432 . S
C1613 C842 1.415 . S
C1607 C372 1.470 . S
C1627 C406 1.466 . S
C1633 C944 1.417 . S
C1647 C523 1.423 . S
C1653 C860 1.377 . S
C1667 C567 1.403 . S
C1673 C926 1.346 . S
C1693 C776 1.356 . S
C1687 C489 1.401 . S
C1713 C1021 1.358 . S
C1707 C60 1.418 . S
C1727 C94 1.485 . S
C1733 C1105 1.424 . S
C1747 C16 1.470 . S
C1753 C1185 1.426 . S
C1767 C679 1.426 . S
C1773 C1101 1.380 . S
C1787 C601 1.426 . S
C1793 C1189 1.334 . S
C1807 C645 1.388 . S
C1813 C1017 1.341 . S
C1827 C684 1.432 . S
C1833 C1010 1.374 . S
C1847 C606 1.472 . S
C1853 C1094 1.391 . S
C1873 C1196 1.422 . S
C1867 C640 1.466 . S
C1887 C55 1.429 . S
C1893 C1112 1.396 . S
C1913 C1178 1.326 . S
C1907 C99 1.400 . S
C1927 C21 1.399 . S
C1933 C1028 1.354 . S
C1953 C1273 1.346 . S
C1947 C294 1.424 . S
C1967 C328 1.486 . S
C1973 C1357 1.427 . S
C1993 C1437 1.424 . S
C1987 C250 1.469 . S
C2013 C1353 1.380 . S
C2007 C211 1.426 . S
C2033 C1441 1.362 . S
C2027 C133 1.426 . S
C2047 C177 1.388 . S
C2053 C1269 1.336 . S
C2067 C216 1.430 . S
C2073 C1262 1.363 . S
C2087 C138 1.469 . S
C2093 C1346 1.384 . S
C2113 C1448 1.441 . S
C2107 C172 1.477 . S
C2127 C289 1.427 . S
C2133 C1364 1.391 . S
C2147 C333 1.403 . S
C2153 C1430 1.345 . S
C2167 C255 1.411 . S
C2173 C1280 1.379 . S
C2187 C586 1.459 . S
C2193 C772 1.325 . S
C2213 C856 1.341 . S
C2207 C625 1.494 . S
C2227 C664 1.475 . S
C2233 C928 1.320 . S
C2247 C235 1.507 . S
C2253 C844 1.341 . S
C2267 C274 1.463 . S
C2273 C940 1.336 . S
C2293 C760 1.323 . S
C2287 C313 1.459 . S
C2307 C118 1.459 . S
C2313 C1024 1.341 . S
C2327 C157 1.498 . S
C2333 C1108 1.366 . S
C2347 C196 1.477 . S
C2353 C1180 1.360 . S
C2367 C469 1.507 . S
C2373 C1096 1.339 . S
C2393 C1192 1.348 . S
C2387 C508 1.463 . S
C2407 C547 1.460 . S
C2413 C1012 1.321 . S
C2427 C352 1.460 . S
C2433 C1276 1.327 . S
C2447 C391 1.495 . S
C2453 C1360 1.328 . S
C2473 C1432 1.361 . S
C2467 C430 1.477 . S
C2487 C1 1.509 . S
C2493 C1348 1.344 . S
C2507 C40 1.462 . S
C2513 C1444 1.349 . S
C2527 C79 1.460 . S
C2533 C1264 1.327 . S
