# Generated by pormake.
# Topology bwt, (3,3)-cn, num edge types: 1
# Building blocks:
#     Node 0, Type 0, BuildingBlock: OLANEW_clean_sbu_2, # of connection points: 3
#     Node 1, Type 0, BuildingBlock: OLANEW_clean_sbu_2, # of connection points: 3
#     Node 2, Type 0, BuildingBlock: OLANEW_clean_sbu_2, # of connection points: 3
#     Node 3, Type 0, BuildingBlock: OLANEW_clean_sbu_2, # of connection points: 3
#     Node 4, Type 0, BuildingBlock: OLANEW_clean_sbu_2, # of connection points: 3
#     Node 5, Type 0, BuildingBlock: OLANEW_clean_sbu_2, # of connection points: 3
#     Node 6, Type 0, BuildingBlock: OLANEW_clean_sbu_2, # of connection points: 3
#     Node 7, Type 0, BuildingBlock: OLANEW_clean_sbu_2, # of connection points: 3
#     Node 8, Type 0, BuildingBlock: OLANEW_clean_sbu_2, # of connection points: 3
#     Node 9, Type 0, BuildingBlock: OLANEW_clean_sbu_2, # of connection points: 3
#     Node 10, Type 0, BuildingBlock: OLANEW_clean_sbu_2, # of connection points: 3
#     Node 11, Type 0, BuildingBlock: OLANEW_clean_sbu_2, # of connection points: 3
#     Node 12, Type 0, BuildingBlock: OLANEW_clean_sbu_2, # of connection points: 3
#     Node 13, Type 0, BuildingBlock: OLANEW_clean_sbu_2, # of connection points: 3
#     Node 14, Type 0, BuildingBlock: OLANEW_clean_sbu_2, # of connection points: 3
#     Node 15, Type 0, BuildingBlock: OLANEW_clean_sbu_2, # of connection points: 3
#     Node 16, Type 0, BuildingBlock: OLANEW_clean_sbu_2, # of connection points: 3
#     Node 17, Type 0, BuildingBlock: OLANEW_clean_sbu_2, # of connection points: 3
#     Node 18, Type 0, BuildingBlock: OLANEW_clean_sbu_2, # of connection points: 3
#     Node 19, Type 0, BuildingBlock: OLANEW_clean_sbu_2, # of connection points: 3
#     Node 20, Type 0, BuildingBlock: OLANEW_clean_sbu_2, # of connection points: 3
#     Node 21, Type 0, BuildingBlock: OLANEW_clean_sbu_2, # of connection points: 3
#     Node 22, Type 0, BuildingBlock: OLANEW_clean_sbu_2, # of connection points: 3
#     Node 23, Type 0, BuildingBlock: OLANEW_clean_sbu_2, # of connection points: 3
#     Node 24, Type 1, BuildingBlock: QEWDON_clean_linker_0, # of connection points: 3
#     Node 25, Type 1, BuildingBlock: QEWDON_clean_linker_0, # of connection points: 3
#     Node 26, Type 1, BuildingBlock: QEWDON_clean_linker_0, # of connection points: 3
#     Node 27, Type 1, BuildingBlock: QEWDON_clean_linker_0, # of connection points: 3
#     Node 28, Type 1, BuildingBlock: QEWDON_clean_linker_0, # of connection points: 3
#     Node 29, Type 1, BuildingBlock: QEWDON_clean_linker_0, # of connection points: 3
#     Node 30, Type 1, BuildingBlock: QEWDON_clean_linker_0, # of connection points: 3
#     Node 31, Type 1, BuildingBlock: QEWDON_clean_linker_0, # of connection points: 3
#     Node 32, Type 1, BuildingBlock: QEWDON_clean_linker_0, # of connection points: 3
#     Node 33, Type 1, BuildingBlock: QEWDON_clean_linker_0, # of connection points: 3
#     Node 34, Type 1, BuildingBlock: QEWDON_clean_linker_0, # of connection points: 3
#     Node 35, Type 1, BuildingBlock: QEWDON_clean_linker_0, # of connection points: 3
#     Node 36, Type 1, BuildingBlock: QEWDON_clean_linker_0, # of connection points: 3
#     Node 37, Type 1, BuildingBlock: QEWDON_clean_linker_0, # of connection points: 3
#     Node 38, Type 1, BuildingBlock: QEWDON_clean_linker_0, # of connection points: 3
#     Node 39, Type 1, BuildingBlock: QEWDON_clean_linker_0, # of connection points: 3
#     Node 40, Type 1, BuildingBlock: QEWDON_clean_linker_0, # of connection points: 3
#     Node 41, Type 1, BuildingBlock: QEWDON_clean_linker_0, # of connection points: 3
#     Node 42, Type 1, BuildingBlock: QEWDON_clean_linker_0, # of connection points: 3
#     Node 43, Type 1, BuildingBlock: QEWDON_clean_linker_0, # of connection points: 3
#     Node 44, Type 1, BuildingBlock: QEWDON_clean_linker_0, # of connection points: 3
#     Node 45, Type 1, BuildingBlock: QEWDON_clean_linker_0, # of connection points: 3
#     Node 46, Type 1, BuildingBlock: QEWDON_clean_linker_0, # of connection points: 3
#     Node 47, Type 1, BuildingBlock: QEWDON_clean_linker_0, # of connection points: 3
#     Edge 48, Type (0, 1), BuildingBlock: OJICUG_clean_linker_0, # of connection points: 2
#     Edge 49, Type (0, 1), BuildingBlock: OJICUG_clean_linker_0, # of connection points: 2
#     Edge 50, Type (0, 1), BuildingBlock: OJICUG_clean_linker_0, # of connection points: 2
#     Edge 51, Type (0, 1), BuildingBlock: OJICUG_clean_linker_0, # of connection points: 2
#     Edge 52, Type (0, 1), BuildingBlock: OJICUG_clean_linker_0, # of connection points: 2
#     Edge 53, Type (0, 1), BuildingBlock: OJICUG_clean_linker_0, # of connection points: 2
#     Edge 54, Type (0, 1), BuildingBlock: OJICUG_clean_linker_0, # of connection points: 2
#     Edge 55, Type (0, 1), BuildingBlock: OJICUG_clean_linker_0, # of connection points: 2
#     Edge 56, Type (0, 1), BuildingBlock: OJICUG_clean_linker_0, # of connection points: 2
#     Edge 57, Type (0, 1), BuildingBlock: OJICUG_clean_linker_0, # of connection points: 2
#     Edge 58, Type (0, 1), BuildingBlock: OJICUG_clean_linker_0, # of connection points: 2
#     Edge 59, Type (0, 1), BuildingBlock: OJICUG_clean_linker_0, # of connection points: 2
#     Edge 60, Type (0, 1), BuildingBlock: OJICUG_clean_linker_0, # of connection points: 2
#     Edge 61, Type (0, 1), BuildingBlock: OJICUG_clean_linker_0, # of connection points: 2
#     Edge 62, Type (0, 1), BuildingBlock: OJICUG_clean_linker_0, # of connection points: 2
#     Edge 63, Type (0, 1), BuildingBlock: OJICUG_clean_linker_0, # of connection points: 2
#     Edge 64, Type (0, 1), BuildingBlock: OJICUG_clean_linker_0, # of connection points: 2
#     Edge 65, Type (0, 1), BuildingBlock: OJICUG_clean_linker_0, # of connection points: 2
#     Edge 66, Type (0, 1), BuildingBlock: OJICUG_clean_linker_0, # of connection points: 2
#     Edge 67, Type (0, 1), BuildingBlock: OJICUG_clean_linker_0, # of connection points: 2
#     Edge 68, Type (0, 1), BuildingBlock: OJICUG_clean_linker_0, # of connection points: 2
#     Edge 69, Type (0, 1), BuildingBlock: OJICUG_clean_linker_0, # of connection points: 2
#     Edge 70, Type (0, 1), BuildingBlock: OJICUG_clean_linker_0, # of connection points: 2
#     Edge 71, Type (0, 1), BuildingBlock: OJICUG_clean_linker_0, # of connection points: 2
#     Edge 72, Type (0, 1), BuildingBlock: OJICUG_clean_linker_0, # of connection points: 2
#     Edge 73, Type (0, 1), BuildingBlock: OJICUG_clean_linker_0, # of connection points: 2
#     Edge 74, Type (0, 1), BuildingBlock: OJICUG_clean_linker_0, # of connection points: 2
#     Edge 75, Type (0, 1), BuildingBlock: OJICUG_clean_linker_0, # of connection points: 2
#     Edge 76, Type (0, 1), BuildingBlock: OJICUG_clean_linker_0, # of connection points: 2
#     Edge 77, Type (0, 1), BuildingBlock: OJICUG_clean_linker_0, # of connection points: 2
#     Edge 78, Type (0, 1), BuildingBlock: OJICUG_clean_linker_0, # of connection points: 2
#     Edge 79, Type (0, 1), BuildingBlock: OJICUG_clean_linker_0, # of connection points: 2
#     Edge 80, Type (0, 1), BuildingBlock: OJICUG_clean_linker_0, # of connection points: 2
#     Edge 81, Type (0, 1), BuildingBlock: OJICUG_clean_linker_0, # of connection points: 2
#     Edge 82, Type (0, 1), BuildingBlock: OJICUG_clean_linker_0, # of connection points: 2
#     Edge 83, Type (0, 1), BuildingBlock: OJICUG_clean_linker_0, # of connection points: 2
#     Edge 84, Type (0, 1), BuildingBlock: OJICUG_clean_linker_0, # of connection points: 2
#     Edge 85, Type (0, 1), BuildingBlock: OJICUG_clean_linker_0, # of connection points: 2
#     Edge 86, Type (0, 1), BuildingBlock: OJICUG_clean_linker_0, # of connection points: 2
#     Edge 87, Type (0, 1), BuildingBlock: OJICUG_clean_linker_0, # of connection points: 2
#     Edge 88, Type (0, 1), BuildingBlock: OJICUG_clean_linker_0, # of connection points: 2
#     Edge 89, Type (0, 1), BuildingBlock: OJICUG_clean_linker_0, # of connection points: 2
#     Edge 90, Type (0, 1), BuildingBlock: OJICUG_clean_linker_0, # of connection points: 2
#     Edge 91, Type (0, 1), BuildingBlock: OJICUG_clean_linker_0, # of connection points: 2
#     Edge 92, Type (0, 1), BuildingBlock: OJICUG_clean_linker_0, # of connection points: 2
#     Edge 93, Type (0, 1), BuildingBlock: OJICUG_clean_linker_0, # of connection points: 2
#     Edge 94, Type (0, 1), BuildingBlock: OJICUG_clean_linker_0, # of connection points: 2
#     Edge 95, Type (0, 1), BuildingBlock: OJICUG_clean_linker_0, # of connection points: 2
#     Edge 96, Type (0, 1), BuildingBlock: OJICUG_clean_linker_0, # of connection points: 2
#     Edge 97, Type (0, 1), BuildingBlock: OJICUG_clean_linker_0, # of connection points: 2
#     Edge 98, Type (0, 1), BuildingBlock: OJICUG_clean_linker_0, # of connection points: 2
#     Edge 99, Type (0, 1), BuildingBlock: OJICUG_clean_linker_0, # of connection points: 2
#     Edge 100, Type (0, 1), BuildingBlock: OJICUG_clean_linker_0, # of connection points: 2
#     Edge 101, Type (0, 1), BuildingBlock: OJICUG_clean_linker_0, # of connection points: 2
#     Edge 102, Type (0, 1), BuildingBlock: OJICUG_clean_linker_0, # of connection points: 2
#     Edge 103, Type (0, 1), BuildingBlock: OJICUG_clean_linker_0, # of connection points: 2
#     Edge 104, Type (0, 1), BuildingBlock: OJICUG_clean_linker_0, # of connection points: 2
#     Edge 105, Type (0, 1), BuildingBlock: OJICUG_clean_linker_0, # of connection points: 2
#     Edge 106, Type (0, 1), BuildingBlock: OJICUG_clean_linker_0, # of connection points: 2
#     Edge 107, Type (0, 1), BuildingBlock: OJICUG_clean_linker_0, # of connection points: 2
#     Edge 108, Type (0, 1), BuildingBlock: OJICUG_clean_linker_0, # of connection points: 2
#     Edge 109, Type (0, 1), BuildingBlock: OJICUG_clean_linker_0, # of connection points: 2
#     Edge 110, Type (0, 1), BuildingBlock: OJICUG_clean_linker_0, # of connection points: 2
#     Edge 111, Type (0, 1), BuildingBlock: OJICUG_clean_linker_0, # of connection points: 2
#     Edge 112, Type (0, 1), BuildingBlock: OJICUG_clean_linker_0, # of connection points: 2
#     Edge 113, Type (0, 1), BuildingBlock: OJICUG_clean_linker_0, # of connection points: 2
#     Edge 114, Type (0, 1), BuildingBlock: OJICUG_clean_linker_0, # of connection points: 2
#     Edge 115, Type (0, 1), BuildingBlock: OJICUG_clean_linker_0, # of connection points: 2
#     Edge 116, Type (0, 1), BuildingBlock: OJICUG_clean_linker_0, # of connection points: 2
#     Edge 117, Type (0, 1), BuildingBlock: OJICUG_clean_linker_0, # of connection points: 2
#     Edge 118, Type (0, 1), BuildingBlock: OJICUG_clean_linker_0, # of connection points: 2
#     Edge 119, Type (0, 1), BuildingBlock: OJICUG_clean_linker_0, # of connection points: 2
# Relax obj value: 0.026
# Max RMSD: 0.062
# Mean RMSD: 0.047
data_MOF--net-bwt--node1-OLANEW_clean_sbu_2--node2-QEWDON_clean_linker_0--edge1-OJICUG_clean_linker_0
_symmetry_space_group_name_H-M    P1
_symmetry_Int_Tables_number       1
_symmetry_cell_setting            triclinic
loop_
_symmetry_equiv_pos_as_xyz
'x, y, z'
_cell_length_a     47.748618
_cell_length_b     47.531714
_cell_length_c     47.511428
_cell_angle_alpha  91.184322
_cell_angle_beta   91.283166
_cell_angle_gamma 91.115796
loop_
_atom_site_label
_atom_site_type_symbol
_atom_site_fract_x
_atom_site_fract_y
_atom_site_fract_z
_atom_type_partial_charge
O0 O 0.22063 0.53767 0.3091 0.0
Cd1 Cd 0.22679 0.53964 0.25824 0.0
O2 O 0.24214 0.49733 0.31244 0.0
Cd3 Cd 0.26122 0.50144 0.27137 0.0
O4 O 0.29682 0.51155 0.24505 0.0
C5 C 0.31345 0.49227 0.23786 0.0
O6 O 0.30776 0.46623 0.24491 0.0
C7 C 0.22779 0.51668 0.32361 0.0
C8 C 0.18186 0.50988 0.23265 0.0
O9 O 0.20463 0.49759 0.23938 0.0
O10 O 0.18067 0.53651 0.23717 0.0
O11 O 0.27341 0.44374 0.76254 0.0
Cd12 Cd 0.2601 0.43353 0.7133 0.0
O13 O 0.25817 0.48711 0.7617 0.0
Cd14 Cd 0.23401 0.47971 0.72259 0.0
O15 O 0.19845 0.47302 0.69331 0.0
C16 C 0.17463 0.4709 0.70457 0.0
O17 O 0.17334 0.47262 0.73215 0.0
C18 C 0.27126 0.46786 0.77435 0.0
C19 C 0.30133 0.45947 0.68174 0.0
O20 O 0.27866 0.47206 0.68766 0.0
O21 O 0.30393 0.43399 0.68955 0.0
O22 O 0.69896 0.96119 0.63584 0.0
Cd23 Cd 0.71285 0.95601 0.68528 0.0
O24 O 0.71672 0.004 0.63234 0.0
Cd25 Cd 0.73865 0.00213 0.67307 0.0
O26 O 0.77248 -0.00236 0.7043 0.0
C27 C 0.78461 0.01925 0.71551 0.0
O28 O 0.77563 0.04432 0.70906 0.0
C29 C 0.70273 0.98325 0.62159 0.0
C30 C 0.66975 0.97509 0.71892 0.0
O31 O 0.69025 0.99143 0.71264 0.0
O32 O 0.66995 0.94954 0.70979 0.0
O33 O 0.78529 0.97535 0.25238 0.0
Cd34 Cd 0.78569 0.96817 0.30313 0.0
O35 O 0.75712 0.93919 0.24225 0.0
Cd36 Cd 0.7437 0.93429 0.28557 0.0
O37 O 0.70969 0.93569 0.3156 0.0
C38 C 0.69218 0.91522 0.31612 0.0
O39 O 0.69633 0.89287 0.30014 0.0
C40 C 0.77309 0.95904 0.23422 0.0
C41 C 0.83812 0.9474 0.31799 0.0
O42 O 0.8174 0.93074 0.31165 0.0
O43 O 0.83382 0.97393 0.31815 0.0
O44 O 0.2938 0.21301 0.52275 0.0
Cd45 Cd 0.24325 0.22044 0.52269 0.0
O46 O 0.30024 0.23656 0.484 0.0
Cd47 Cd 0.25911 0.25561 0.48607 0.0
O48 O 0.23268 0.29113 0.49652 0.0
C49 C 0.22667 0.3089 0.47781 0.0
O50 O 0.23493 0.30438 0.45193 0.0
C51 C 0.3098 0.22101 0.50329 0.0
C52 C 0.21707 0.17389 0.49596 0.0
O53 O 0.22414 0.19564 0.48207 0.0
O54 O 0.22165 0.1745 0.52265 0.0
O55 O 0.2381 0.78401 0.98036 0.0
Cd56 Cd 0.28903 0.78354 0.97652 0.0
O57 O 0.22957 0.76034 0.94073 0.0
Cd58 Cd 0.27303 0.74725 0.93729 0.0
O59 O 0.30537 0.71538 0.93996 0.0
C60 C 0.30844 0.69838 0.9193 0.0
O61 O 0.29351 0.70184 0.89611 0.0
C62 C 0.22074 0.77422 0.9618 0.0
C63 C 0.30613 0.83673 0.95913 0.0
O64 O 0.30106 0.81664 0.94122 0.0
O65 O 0.30398 0.8314 0.98533 0.0
O66 O 0.75146 0.28855 0.4427 0.0
Cd67 Cd 0.70274 0.27749 0.42912 0.0
O68 O 0.74815 0.27034 0.4847 0.0
Cd69 Cd 0.70995 0.24657 0.4725 0.0
O70 O 0.68455 0.20967 0.45908 0.0
C71 C 0.679 0.19112 0.47714 0.0
O72 O 0.68741 0.19557 0.50341 0.0
C73 C 0.76189 0.28463 0.46715 0.0
C74 C 0.67296 0.32413 0.44706 0.0
O75 O 0.67568 0.30265 0.46269 0.0
O76 O 0.68311 0.32294 0.42233 0.0
O77 O 0.6299 0.70687 0.97476 0.0
Cd78 Cd 0.67867 0.72253 0.9705 0.0
O79 O 0.62382 0.72665 0.01638 0.0
Cd80 Cd 0.66411 0.74917 0.01575 0.0
O81 O 0.69573 0.78274 0.01251 0.0
C82 C 0.70687 0.79422 0.03453 0.0
O83 O 0.70001 0.78477 0.0593 0.0
C84 C 0.61455 0.71129 -0.00413 0.0
C85 C 0.7136 0.68027 0.98946 0.0
O86 O 0.70655 0.7005 0.00592 0.0
O87 O 0.70459 0.68034 0.96385 0.0
O88 O 0.52987 0.31141 0.21884 0.0
Cd89 Cd 0.53086 0.26065 0.22615 0.0
O90 O 0.49101 0.31695 0.24215 0.0
Cd91 Cd 0.49297 0.27534 0.26058 0.0
O92 O 0.50064 0.24677 0.29522 0.0
C93 C 0.4806 0.23946 0.31083 0.0
O94 O 0.45519 0.24789 0.30464 0.0
C95 C 0.51013 0.32705 0.22688 0.0
C96 C 0.50095 0.23376 0.18189 0.0
O97 O 0.48884 0.24135 0.20454 0.0
O98 O 0.52743 0.23823 0.18044 0.0
O99 O 0.97067 0.2328 0.79274 0.0
Cd100 Cd 0.96665 0.28398 0.79241 0.0
O101 O 0.93241 0.2239 0.76718 0.0
Cd102 Cd 0.92784 0.26764 0.75499 0.0
O103 O 0.92848 0.30081 0.72385 0.0
C104 C 0.90825 0.3022 0.70611 0.0
O105 O 0.88669 0.28483 0.70828 0.0
C106 C 0.953 0.2152 0.7818 0.0
C107 C 0.95225 0.30222 0.84627 0.0
O108 O 0.9334 0.29699 0.82713 0.0
O109 O 0.97796 0.29953 0.83972 0.0
O110 O 0.43932 0.74201 0.30689 0.0
Cd111 Cd 0.43139 0.69126 0.30184 0.0
O112 O 0.47685 0.74267 0.28079 0.0
Cd113 Cd 0.46626 0.70284 0.25869 0.0
O114 O 0.45612 0.67999 0.21902 0.0
C115 C 0.45387 0.69535 0.1975 0.0
O116 O 0.45754 0.72271 0.20082 0.0
C117 C 0.46078 0.75498 0.2979 0.0
C118 C 0.46488 0.66824 0.34401 0.0
O119 O 0.47354 0.67061 0.31881 0.0
O120 O 0.43975 0.67552 0.34904 0.0
O121 O 0.96695 0.66691 0.68232 0.0
Cd122 Cd 0.96445 0.71648 0.69653 0.0
O123 O 0.00547 0.65842 0.70674 0.0
Cd124 Cd 0.00482 0.69826 0.73049 0.0
O125 O 0.00224 0.72609 0.76755 0.0
C126 C 0.02426 0.7331 0.78175 0.0
O127 O 0.04865 0.7246 0.77298 0.0
C128 C 0.98644 0.6503 0.68908 0.0
C129 C -0.00791 0.74829 0.65664 0.0
O130 O 0.00473 0.74057 0.6792 0.0
O131 O 0.96609 0.74159 0.65326 0.0
O132 O 0.75397 0.44179 0.6386 0.0
Cd133 Cd 0.78461 0.42491 0.67618 0.0
O134 O 0.71923 0.45138 0.66678 0.0
Cd135 Cd 0.67637 0.4664 0.67132 0.0
O136 O 0.63502 0.48316 0.66125 0.0
C137 C 0.61741 0.46747 0.64759 0.0
O138 O 0.624 0.44137 0.64156 0.0
C139 C 0.72918 0.45019 0.64218 0.0
C140 C 0.83958 0.44363 0.66918 0.0
O141 O 0.83028 0.42127 0.65634 0.0
O142 O 0.82297 0.45687 0.68537 0.0
O143 O 0.73183 0.55153 0.20284 0.0
Cd144 Cd 0.71246 0.55232 0.2499 0.0
O145 O 0.7696 0.5268 0.21072 0.0
Cd146 Cd 0.80748 0.50414 0.19865 0.0
O147 O 0.8473 0.48523 0.18683 0.0
C148 C 0.86132 0.49593 0.16712 0.0
O149 O 0.85141 0.5179 0.15419 0.0
C150 C 0.75385 0.54013 0.19383 0.0
C151 C 0.65648 0.53485 0.24475 0.0
O152 O 0.6638 0.56037 0.24007 0.0
O153 O 0.67546 0.51781 0.25258 0.0
O154 O 0.29295 0.02823 0.30231 0.0
Cd155 Cd 0.32729 0.02267 0.26541 0.0
O156 O 0.26874 0.98903 0.29278 0.0
Cd157 Cd 0.2314 0.96323 0.30163 0.0
O158 O 0.1913 0.94828 0.31804 0.0
C159 C 0.17526 0.96638 0.3289 0.0
O160 O 0.18297 -0.00694 0.32905 0.0
C161 C 0.27296 0.01129 0.30771 0.0
C162 C 0.37213 0.99039 0.28339 0.0
O163 O 0.37115 0.01662 0.29 0.0
O164 O 0.35199 0.97948 0.26829 0.0
O165 O 0.20548 0.00579 0.79116 0.0
Cd166 Cd 0.17472 0.00637 0.74934 0.0
O167 O 0.24243 0.00416 0.76438 0.0
Cd168 Cd 0.28816 0.00314 0.76159 0.0
O169 O 0.33275 0.00376 0.77324 0.0
C170 C 0.34438 0.98136 0.78122 0.0
O171 O 0.32951 0.95781 0.78123 0.0
C172 C 0.23183 0.00399 0.7887 0.0
C173 C 0.12048 0.02323 0.76107 0.0
O174 O 0.12786 -0.00224 0.76475 0.0
O175 O 0.13878 0.04075 0.75206 0.0
O176 O 0.68305 0.76684 0.39755 0.0
Cd177 Cd 0.71619 0.80219 0.38075 0.0
O178 O 0.71083 0.74824 0.42966 0.0
Cd179 Cd 0.71551 0.71335 0.45879 0.0
O180 O 0.69917 0.67233 0.47169 0.0
C181 C 0.68839 0.65722 0.45173 0.0
O182 O 0.68963 0.66646 0.42591 0.0
C183 C 0.68717 0.74923 0.41692 0.0
C184 C 0.70366 0.85531 0.40248 0.0
O185 O 0.69108 0.84557 0.38014 0.0
O186 O 0.72226 0.8401 0.41424 0.0
O187 O 0.78911 0.21454 0.02439 0.0
Cd188 Cd 0.74689 0.18484 0.02675 0.0
O189 O 0.7636 0.25256 0.02327 0.0
Cd190 Cd 0.76199 0.29856 0.0218 0.0
O191 O 0.77339 0.34336 0.02164 0.0
C192 C 0.78114 0.35465 -0.001 0.0
O193 O 0.78121 0.33928 0.9757 0.0
C194 C 0.78741 0.24106 0.02237 0.0
C195 C 0.75799 0.1302 0.04357 0.0
O196 O 0.76106 0.13736 0.01795 0.0
O197 O 0.74987 0.14889 0.06126 0.0
O198 O 0.21997 0.72644 0.55864 0.0
Cd199 Cd 0.26381 0.70136 0.56327 0.0
O200 O 0.23494 0.76208 0.53366 0.0
Cd201 Cd 0.22664 0.8002 0.50937 0.0
O202 O 0.20712 0.83709 0.49051 0.0
C203 C 0.19705 0.85586 0.50663 0.0
O204 O 0.20001 0.85346 0.53401 0.0
C205 C 0.21519 0.74918 0.54594 0.0
C206 C 0.25406 0.64688 0.54212 0.0
O207 O 0.24789 0.65351 0.56747 0.0
O208 O 0.26556 0.66576 0.52707 0.0
O209 O 0.3023 0.30569 0.0492 0.0
Cd210 Cd 0.26531 0.34035 0.04883 0.0
O211 O 0.28001 0.27415 0.02194 0.0
Cd212 Cd 0.27883 0.234 -0.00201 0.0
O213 O 0.29179 0.1928 0.98186 0.0
C214 C 0.29386 0.17256 -0.00119 0.0
O215 O 0.28624 0.17626 0.02499 0.0
C216 C 0.30159 0.28183 0.03662 0.0
C217 C 0.27952 0.38448 0.01392 0.0
O218 O 0.28925 0.38376 0.03923 0.0
O219 O 0.26286 0.36452 0.00522 0.0
O220 O 0.40422 0.66323 0.76212 0.0
Cd221 Cd 0.3908 0.70122 0.7945 0.0
O222 O 0.43387 0.68773 0.7369 0.0
Cd223 Cd 0.46473 0.68977 0.70324 0.0
O224 O 0.49114 0.67758 0.66796 0.0
C225 C 0.48102 0.67478 0.64303 0.0
O226 O 0.45453 0.68041 0.63827 0.0
C227 C 0.42098 0.66467 0.74172 0.0
C228 C 0.40881 0.69344 0.85013 0.0
O229 O 0.38617 0.68145 0.84058 0.0
O230 O 0.42287 0.70877 0.83339 0.0
O231 O -0.00125 0.77834 0.2095 0.0
Cd232 Cd 0.005 0.73886 0.17647 0.0
O233 O 0.02998 0.76339 0.24024 0.0
Cd234 Cd 0.05309 0.76877 0.28059 0.0
O235 O 0.05784 0.78144 0.32508 0.0
C236 C 0.06176 0.80717 0.33229 0.0
O237 O 0.06471 0.82596 0.31262 0.0
C238 C 0.0114 0.78096 0.23327 0.0
C239 C 0.02419 0.75396 0.1237 0.0
O240 O -0.00172 0.75619 0.12972 0.0
O241 O 0.04107 0.74507 0.14273 0.0
O242 O 0.53589 0.18669 0.72987 0.0
Cd243 Cd 0.53536 0.23365 0.71013 0.0
O244 O 0.51185 0.19492 0.76804 0.0
Cd245 Cd 0.49019 0.18372 0.80685 0.0
O246 O 0.47249 0.17312 0.8477 0.0
C247 C 0.48427 0.15469 0.86269 0.0
O248 O 0.50659 0.14229 0.85314 0.0
C249 C 0.52513 0.17793 0.75239 0.0
C250 C 0.51666 0.22888 0.65418 0.0
O251 O 0.54223 0.22419 0.66099 0.0
O252 O 0.50009 0.23639 0.67368 0.0
O253 O 0.04498 0.31899 0.31963 0.0
Cd254 Cd 0.04322 0.28329 0.35577 0.0
O255 O 0.01836 0.29527 0.28861 0.0
Cd256 Cd -0.00454 0.29206 0.2479 0.0
O257 O 0.98087 0.30299 0.20547 0.0
C258 C -0.00176 0.30314 0.18556 0.0
O259 O 0.02392 0.29479 0.19046 0.0
C260 C 0.03307 0.3171 0.29546 0.0
C261 C 0.00505 0.29705 0.39709 0.0
O262 O 0.02992 0.30769 0.39792 0.0
O263 O -0.00172 0.27988 0.3768 0.0
H264 H 0.19192 0.47434 0.44654 0.0
C265 C 0.19957 0.4929 0.45816 0.0
C266 C 0.20962 0.51614 0.44341 0.0
C267 C 0.19866 0.49376 0.48773 0.0
H268 H 0.22636 0.55836 0.44701 0.0
C269 C 0.21883 0.54038 0.45849 0.0
C270 C 0.21875 0.54154 0.48807 0.0
C271 C 0.20845 0.51809 0.50252 0.0
C272 C 0.18757 0.46916 0.50309 0.0
H273 H 0.20869 0.51842 0.52533 0.0
C274 C 0.19513 0.4417 0.4952 0.0
C275 C 0.18446 0.41817 0.50931 0.0
C276 C 0.16925 0.47295 0.52553 0.0
H277 H 0.16286 0.49383 0.53192 0.0
C278 C 0.15856 0.44974 0.53963 0.0
H279 H 0.20996 0.43873 0.47851 0.0
C280 C 0.16604 0.42252 0.5316 0.0
H281 H 0.1572 0.40489 0.54269 0.0
H282 H 0.14431 0.45285 0.55678 0.0
H283 H 0.335 0.5272 0.88227 0.0
C284 C 0.32886 0.51161 0.89741 0.0
C285 C 0.31368 0.48738 0.88827 0.0
C286 C 0.33698 0.51534 0.92588 0.0
H287 H 0.29471 0.44839 0.90085 0.0
C288 C 0.30629 0.46711 0.90799 0.0
C289 C 0.31338 0.47086 0.93672 0.0
C290 C 0.329 0.49502 0.9454 0.0
C291 C 0.3538 0.54048 0.93536 0.0
H292 H 0.33439 0.49854 0.96748 0.0
C293 C 0.34537 0.56762 0.92815 0.0
C294 C 0.36076 0.59164 0.93791 0.0
C295 C 0.37806 0.53743 0.9522 0.0
H296 H 0.38505 0.51673 0.95794 0.0
C297 C 0.39367 0.56108 0.96155 0.0
H298 H 0.32618 0.57001 0.9159 0.0
C299 C 0.38509 0.588 0.95455 0.0
H300 H 0.39752 0.60596 0.96218 0.0
H301 H 0.41241 0.55855 0.97442 0.0
H302 H 0.65035 0.02417 0.50285 0.0
C303 C 0.65651 0.00603 0.49042 0.0
C304 C 0.6689 0.9833 0.50397 0.0
C305 C 0.6515 0.00526 0.46109 0.0
H306 H 0.68605 0.94211 0.49832 0.0
C307 C 0.67634 0.95964 0.48793 0.0
C308 C 0.67179 0.95846 0.45863 0.0
C309 C 0.65906 0.98125 0.44535 0.0
C310 C 0.63893 0.02984 0.44701 0.0
H311 H 0.65595 0.98069 0.42268 0.0
C312 C 0.64733 0.05742 0.45521 0.0
C313 C 0.63534 0.08094 0.44246 0.0
C314 C 0.61845 0.026 0.42549 0.0
H315 H 0.61133 0.00508 0.41888 0.0
C316 C 0.60655 0.04922 0.41263 0.0
H317 H 0.66377 0.06058 0.47112 0.0
C318 C 0.61486 0.07653 0.42102 0.0
H319 H 0.60504 0.09416 0.41097 0.0
H320 H 0.59066 0.04604 0.3962 0.0
H321 H 0.78747 0.93829 0.10142 0.0
C322 C 0.78444 0.95976 0.09489 0.0
C323 C 0.78163 0.9812 0.11533 0.0
C324 C 0.78404 0.96591 0.0661 0.0
H325 H 0.77656 0.02561 0.1225 0.0
C326 C 0.77854 0.00907 0.10669 0.0
C327 C 0.77748 0.01568 0.07795 0.0
C328 C 0.78038 -0.00616 0.05781 0.0
C329 C 0.7873 0.94307 0.0447 0.0
H330 H 0.77893 -0.00167 0.03557 0.0
C331 C 0.77236 0.91741 0.04679 0.0
C332 C 0.77541 0.8956 0.02663 0.0
C333 C 0.80542 0.94678 0.02213 0.0
H334 H 0.81735 0.96623 0.02014 0.0
C335 C 0.80869 0.92521 0.00217 0.0
H336 H 0.75775 0.91477 0.0637 0.0
C337 C 0.79385 0.89978 0.00435 0.0
H338 H 0.79699 0.88331 0.98872 0.0
H339 H 0.82287 0.92818 0.98497 0.0
H340 H 0.43566 0.1889 0.46855 0.0
C341 C 0.4455 0.19415 0.48881 0.0
C342 C 0.42873 0.20137 0.51162 0.0
C343 C 0.47478 0.1929 0.49217 0.0
H344 H 0.42844 0.2125 0.55565 0.0
C345 C 0.44149 0.20726 0.53803 0.0
C346 C 0.47077 0.20677 0.54183 0.0
C347 C 0.48725 0.19949 0.51868 0.0
C348 C 0.49226 0.18462 0.46798 0.0
H349 H 0.50986 0.19958 0.521 0.0
C350 C 0.48679 0.19531 0.44105 0.0
C351 C 0.50287 0.18717 0.41786 0.0
C352 C 0.51429 0.16574 0.47159 0.0
H353 H 0.51882 0.15693 0.492 0.0
C354 C 0.53034 0.15759 0.44873 0.0
H355 H 0.47041 0.21054 0.43831 0.0
C356 C 0.5247 0.16814 0.42203 0.0
H357 H 0.53724 0.16116 0.40461 0.0
H358 H 0.54713 0.14287 0.45168 0.0
H359 H 0.08966 0.7936 0.9364 0.0
C360 C 0.08223 0.78914 0.95727 0.0
C361 C 0.10162 0.78401 0.97913 0.0
C362 C 0.05337 0.78951 0.96237 0.0
H363 H 0.10684 0.77556 0.02319 0.0
C364 C 0.09183 0.77922 0.00632 0.0
C365 C 0.06299 0.77882 0.01183 0.0
C366 C 0.04393 0.78406 0.9896 0.0
C367 C 0.0331 0.79602 0.93935 0.0
H368 H 0.02161 0.78326 -0.00682 0.0
C369 C 0.03537 0.7835 0.9124 0.0
C370 C 0.01636 0.78992 0.89042 0.0
C371 C 0.01151 0.81508 0.94418 0.0
H372 H 0.00944 0.82525 0.96463 0.0
C373 C -0.00728 0.82166 0.92251 0.0
H374 H 0.05151 0.76821 0.90879 0.0
C375 C -0.0049 0.80926 0.89581 0.0
H376 H 0.98043 0.81505 0.87932 0.0
H377 H 0.97632 0.83656 0.92638 0.0
H378 H 0.86663 0.34401 0.53584 0.0
C379 C 0.88233 0.33912 0.52044 0.0
C380 C 0.87435 0.3255 0.4949 0.0
C381 C 0.9104 0.34736 0.52576 0.0
H382 H 0.88865 0.30914 0.45534 0.0
C383 C 0.89487 0.31961 0.47503 0.0
C384 C 0.92322 0.32677 0.48037 0.0
C385 C 0.93071 0.34102 0.50576 0.0
C386 C 0.91873 0.36245 0.55232 0.0
H387 H 0.95247 0.3465 0.51048 0.0
C388 C 0.9125 0.35083 0.57846 0.0
C389 C 0.9216 0.36439 0.60379 0.0
C390 C 0.93374 0.38811 0.5516 0.0
H391 H 0.93873 0.39746 0.53167 0.0
C392 C 0.94228 0.40199 0.57661 0.0
H393 H 0.90167 0.3306 0.57894 0.0
C394 C 0.93639 0.3902 0.60255 0.0
H395 H 0.94346 0.40127 0.62164 0.0
H396 H 0.95372 0.42184 0.57591 0.0
H397 H 0.4941 0.66044 0.03285 0.0
C398 C 0.48316 0.66455 0.01317 0.0
C399 C 0.49838 0.67462 0.99043 0.0
C400 C 0.45414 0.65904 0.01044 0.0
H401 H 0.49613 0.68693 0.94721 0.0
C402 C 0.48433 0.6792 0.96477 0.0
C403 C 0.45531 0.67435 0.96155 0.0
C404 C 0.44036 0.66396 0.98448 0.0
C405 C 0.4384 0.64824 0.03483 0.0
H406 H 0.4179 0.6605 0.98239 0.0
C407 C 0.4441 0.65903 0.06226 0.0
C408 C 0.42991 0.6484 0.08559 0.0
C409 C 0.41804 0.62667 0.03097 0.0
H410 H 0.41341 0.61767 0.01024 0.0
C411 C 0.40389 0.61602 0.05397 0.0
H412 H 0.45971 0.67571 0.06548 0.0
C413 C 0.40978 0.6267 0.08111 0.0
H414 H 0.39828 0.61826 0.09853 0.0
H415 H 0.38831 0.59934 0.05075 0.0
H416 H 0.47398 0.45367 0.19579 0.0
C417 C 0.49372 0.46372 0.20227 0.0
C418 C 0.5164 0.44699 0.21002 0.0
C419 C 0.49659 0.49323 0.2021 0.0
H420 H 0.55972 0.447 0.22316 0.0
C421 C 0.54219 0.46001 0.21752 0.0
C422 C 0.54547 0.48947 0.21812 0.0
C423 C 0.52248 0.50592 0.21031 0.0
C424 C 0.47255 0.51071 0.1933 0.0
H425 H 0.52444 0.52866 0.21121 0.0
C426 C 0.44528 0.50414 0.20211 0.0
C427 C 0.42226 0.52014 0.19339 0.0
C428 C 0.47662 0.53384 0.17578 0.0
H429 H 0.4973 0.53927 0.16839 0.0
C430 C 0.45394 0.5499 0.16714 0.0
H431 H 0.44211 0.4869 0.21635 0.0
C432 C 0.42692 0.54312 0.17579 0.0
H433 H 0.40967 0.55568 0.16843 0.0
H434 H 0.45727 0.56756 0.15351 0.0
H435 H 0.93056 0.08226 0.79464 0.0
C436 C 0.95176 0.07554 0.79099 0.0
C437 C 0.97324 0.09579 0.78809 0.0
C438 C 0.95755 0.04669 0.78992 0.0
H439 H 0.01737 0.10249 0.78209 0.0
C440 C 0.00078 0.08686 0.78419 0.0
C441 C 0.00702 0.05808 0.78253 0.0
C442 C 0.98516 0.03814 0.78554 0.0
C443 C 0.93467 0.02549 0.79323 0.0
H444 H 0.98938 0.01587 0.78363 0.0
C445 C 0.90882 0.02825 0.77883 0.0
C446 C 0.88695 0.00831 0.78195 0.0
C447 C 0.93852 0.00245 0.81086 0.0
H448 H 0.95812 -6e-05 0.82238 0.0
C449 C 0.9169 0.98269 0.81419 0.0
H450 H 0.90605 0.04553 0.76457 0.0
C451 C 0.89128 0.98555 0.79989 0.0
H452 H 0.87479 0.97007 0.80309 0.0
H453 H 0.91998 0.96513 0.82799 0.0
H454 H 0.52138 0.86981 0.34683 0.0
C455 C 0.50501 0.88377 0.33994 0.0
C456 C 0.48047 0.87251 0.32694 0.0
C457 C 0.50793 0.91289 0.34523 0.0
H458 H 0.44023 0.8818 0.30875 0.0
C459 C 0.45919 0.89068 0.31856 0.0
C460 C 0.46219 0.91999 0.32249 0.0
C461 C 0.4866 0.93087 0.33625 0.0
C462 C 0.53294 0.92455 0.36076 0.0
H463 H 0.48945 0.95338 0.3395 0.0
C464 C 0.56007 0.91873 0.3516 0.0
C465 C 0.58389 0.93003 0.36624 0.0
C466 C 0.5297 0.94167 0.38484 0.0
H467 H 0.50899 0.94637 0.39231 0.0
C468 C 0.55315 0.95249 0.39976 0.0
H469 H 0.56247 0.9062 0.33252 0.0
C470 C 0.58005 0.94672 0.39061 0.0
H471 H 0.59784 0.95527 0.40271 0.0
H472 H 0.55047 0.96544 0.41847 0.0
H473 H 0.02262 0.5278 0.64068 0.0
C474 C 0.00233 0.51767 0.64329 0.0
C475 C 0.97959 0.53383 0.65175 0.0
C476 C -0.00106 0.4886 0.63778 0.0
H477 H 0.93586 0.53297 0.66168 0.0
C478 C 0.95338 0.52058 0.6549 0.0
C479 C 0.94968 0.49147 0.65012 0.0
C480 C 0.9725 0.47566 0.6411 0.0
C481 C 0.0233 0.47157 0.62966 0.0
H482 H 0.97004 0.4531 0.63782 0.0
C483 C 0.0489 0.47469 0.64471 0.0
C484 C 0.07211 0.45843 0.63756 0.0
C485 C 0.02109 0.45198 0.60714 0.0
H486 H 0.00162 0.44921 0.59517 0.0
C487 C 0.04417 0.43608 0.59964 0.0
H488 H 0.05066 0.48967 0.66221 0.0
C489 C 0.06956 0.43926 0.61468 0.0
H490 H 0.087 0.42633 0.60879 0.0
H491 H 0.04233 0.4211 0.58218 0.0
H492 H 0.65439 0.50336 0.53855 0.0
C493 C 0.65289 0.48314 0.52759 0.0
C494 C 0.66444 0.4594 0.54004 0.0
C495 C 0.6385 0.4805 0.50147 0.0
H496 H 0.67217 0.41522 0.53543 0.0
C497 C 0.6623 0.43323 0.52602 0.0
C498 C 0.64881 0.43034 0.49959 0.0
C499 C 0.63671 0.45407 0.4875 0.0
C500 C 0.62495 0.50514 0.48882 0.0
H501 H 0.62609 0.45205 0.46713 0.0
C502 C 0.64002 0.53056 0.48552 0.0
C503 C 0.6274 0.55342 0.47217 0.0
C504 C 0.59689 0.50303 0.47935 0.0
H505 H 0.58481 0.48375 0.48191 0.0
C506 C 0.58411 0.52582 0.4667 0.0
H507 H 0.66182 0.53213 0.49234 0.0
C508 C 0.59924 0.5508 0.46296 0.0
H509 H 0.58884 0.56818 0.45301 0.0
H510 H 0.56243 0.52407 0.45962 0.0
H511 H 0.80079 0.5178 0.07013 0.0
C512 C 0.79262 0.5365 0.06045 0.0
C513 C 0.77695 0.55529 0.07647 0.0
C514 C 0.79731 0.54145 0.03188 0.0
H515 H 0.75339 0.59332 0.07632 0.0
C516 C 0.76605 0.57926 0.0639 0.0
C517 C 0.77103 0.58498 0.03553 0.0
C518 C 0.78681 0.56593 0.01965 0.0
C519 C 0.81221 0.52047 0.0146 0.0
H520 H 0.79057 0.56985 -0.00234 0.0
C521 C 0.80433 0.49182 0.0153 0.0
C522 C 0.81787 0.47167 -0.00141 0.0
C523 C 0.83393 0.52891 -0.00298 0.0
H524 H 0.84043 0.55083 -0.0038 0.0
C525 C 0.84768 0.50902 0.98061 0.0
H526 H 0.787 0.48541 0.02821 0.0
C527 C 0.83976 0.4806 0.98134 0.0
H528 H 0.85091 0.4656 0.96854 0.0
H529 H 0.86456 0.51565 0.96728 0.0
H530 H 0.18052 -0.00396 0.40039 0.0
C531 C 0.18233 0.01659 0.41066 0.0
C532 C 0.20134 0.03683 0.40081 0.0
C533 C 0.16535 0.02267 0.43364 0.0
H534 H 0.21888 0.07856 0.40791 0.0
C535 C 0.20331 0.06331 0.41446 0.0
C536 C 0.18648 0.0698 0.4375 0.0
C537 C 0.16733 0.04939 0.44683 0.0
C538 C 0.14683 0.00048 0.44491 0.0
H539 H 0.15447 0.05402 0.4648 0.0
C540 C 0.15782 0.97417 0.45161 0.0
C541 C 0.14112 0.9536 0.46434 0.0
C542 C 0.11861 0.00581 0.45025 0.0
H543 H 0.10968 0.02589 0.44512 0.0
C544 C 0.10171 0.98518 0.46227 0.0
H545 H 0.17981 0.97027 0.44825 0.0
C546 C 0.11289 0.95928 0.46948 0.0
H547 H 0.09954 0.94372 0.47915 0.0
H548 H 0.07994 0.98936 0.46625 0.0
H549 H 0.31408 0.02815 0.8954 0.0
C550 C 0.31509 0.00672 0.90268 0.0
C551 C 0.30064 0.98511 0.88753 0.0
C552 C 0.33156 0.00062 0.92661 0.0
H553 H 0.29029 0.94088 0.88557 0.0
C554 C 0.3023 0.95734 0.89675 0.0
C555 C 0.3183 0.95083 0.92081 0.0
C556 C 0.33303 0.97261 0.93552 0.0
C557 C 0.34704 0.02345 0.9425 0.0
H558 H 0.34546 0.96782 0.95411 0.0
C559 C 0.3339 0.04895 0.94907 0.0
C560 C 0.34804 0.06995 0.96545 0.0
C561 C 0.37483 0.01959 0.95187 0.0
H562 H 0.3856 0.00035 0.9468 0.0
C563 C 0.38905 0.0406 0.96778 0.0
H564 H 0.31233 0.05203 0.94243 0.0
C565 C 0.37569 0.06555 0.97474 0.0
H566 H 0.38692 0.08152 0.98731 0.0
H567 H 0.41044 0.03746 0.9749 0.0
H568 H 0.61068 0.66224 0.48568 0.0
C569 C 0.59313 0.66135 0.47081 0.0
C570 C 0.59497 0.67505 0.44494 0.0
C571 C 0.56852 0.64667 0.47787 0.0
H572 H 0.57276 0.68383 0.40616 0.0
C573 C 0.57216 0.67271 0.42582 0.0
C574 C 0.54794 0.65705 0.432 0.0
C575 C 0.54588 0.64465 0.45847 0.0
C576 C 0.567 0.63295 0.50542 0.0
H577 H 0.52711 0.63283 0.46367 0.0
C578 C 0.5489 0.64285 0.52619 0.0
C579 C 0.54912 0.63096 0.55316 0.0
C580 C 0.58498 0.61085 0.51151 0.0
H581 H 0.59925 0.60336 0.49587 0.0
C582 C 0.58468 0.59836 0.53779 0.0
H583 H 0.53563 0.66052 0.5217 0.0
C584 C 0.56695 0.60835 0.55854 0.0
H585 H 0.56721 0.59838 0.57884 0.0
H586 H 0.59847 0.5811 0.54219 0.0
H587 H 0.8974 0.3199 0.0402 0.0
C588 C 0.90388 0.31966 0.01848 0.0
C589 C 0.88731 0.30516 -0.00203 0.0
C590 C 0.92822 0.33456 0.0109 0.0
H591 H 0.88302 0.29317 0.9542 0.0
C592 C 0.8954 0.30522 0.96979 0.0
C593 C 0.91978 0.31964 0.96176 0.0
C594 C 0.93602 0.33439 0.98248 0.0
C595 C 0.94561 0.35015 0.03262 0.0
H596 H 0.95489 0.34557 0.97651 0.0
C597 C 0.95161 0.33806 0.05884 0.0
C598 C 0.96906 0.35229 0.07891 0.0
C599 C 0.95676 0.37703 0.02706 0.0
H600 H 0.95214 0.38708 0.00729 0.0
C601 C 0.97386 0.39132 0.04708 0.0
H602 H 0.94357 0.31717 0.06328 0.0
C603 C 0.98018 0.37896 0.07277 0.0
H604 H -0.00638 0.39026 0.08796 0.0
H605 H 0.98234 0.41199 0.04262 0.0
H606 H 0.10685 0.81408 0.50593 0.0
C607 C 0.09301 0.80833 0.52276 0.0
C608 C 0.1028 0.79088 0.54406 0.0
C609 C 0.06542 0.81807 0.52292 0.0
H610 H 0.09283 0.76953 0.582 0.0
C611 C 0.08513 0.78342 0.56587 0.0
C612 C 0.05776 0.79361 0.567 0.0
C613 C 0.04795 0.81085 0.5453 0.0
C614 C 0.05479 0.83521 0.49934 0.0
H615 H 0.02671 0.81845 0.54567 0.0
C616 C 0.05987 0.82708 0.47127 0.0
C617 C 0.04971 0.84297 0.44868 0.0
C618 C 0.03952 0.85963 0.50466 0.0
H619 H 0.03551 0.86649 0.52605 0.0
C620 C 0.0296 0.87564 0.48237 0.0
H621 H 0.07159 0.80822 0.46701 0.0
C622 C 0.03456 0.86737 0.45458 0.0
H623 H 0.02599 0.87971 0.43769 0.0
H624 H 0.01784 0.89443 0.48663 0.0
H625 H 0.39013 0.18371 0.01523 0.0
C626 C 0.40285 0.18779 0.03413 0.0
C627 C 0.3966 0.21043 0.05215 0.0
C628 C 0.42547 0.17039 0.04046 0.0
H629 H 0.40824 0.23327 0.09032 0.0
C630 C 0.41305 0.21561 0.07656 0.0
C631 C 0.4355 0.1982 0.0834 0.0
C632 C 0.44165 0.17559 0.06519 0.0
C633 C 0.43233 0.14684 0.02117 0.0
H634 H 0.45902 0.16208 0.0702 0.0
C635 C 0.43848 0.15195 -0.00709 0.0
C636 C 0.44625 0.12979 0.97473 0.0
C637 C 0.43348 0.11931 0.03115 0.0
H638 H 0.42875 0.11496 0.05284 0.0
C639 C 0.44051 0.09715 0.0131 0.0
H640 H 0.43836 0.17336 0.9855 0.0
C641 C 0.44687 0.10228 0.9851 0.0
H642 H 0.45223 0.08468 0.97155 0.0
H643 H 0.44108 0.0759 0.02084 0.0
H644 H 0.46543 0.57252 0.65012 0.0
C645 C 0.44669 0.55933 0.65091 0.0
C646 C 0.42566 0.56597 0.66996 0.0
C647 C 0.44351 0.53562 0.63289 0.0
H648 H 0.38538 0.55398 0.68572 0.0
C649 C 0.40151 0.54887 0.67084 0.0
C650 C 0.39794 0.52529 0.6528 0.0
C651 C 0.41909 0.51869 0.63386 0.0
C652 C 0.46578 0.52819 0.61322 0.0
H653 H 0.41663 0.50037 0.61998 0.0
C654 C 0.49225 0.52041 0.62356 0.0
C655 C 0.51282 0.51113 0.60496 0.0
C656 C 0.46018 0.52746 0.58411 0.0
H657 H 0.43985 0.53335 0.57581 0.0
C658 C 0.48082 0.51912 0.56551 0.0
H659 H 0.49632 0.52031 0.64611 0.0
C660 C 0.50693 0.51081 0.57582 0.0
H661 H 0.5225 0.50403 0.56103 0.0
H662 H 0.47643 0.51872 0.54305 0.0
H663 H 0.02523 0.87348 0.32885 0.0
C664 C 0.00444 0.88221 0.32885 0.0
C665 C 0.98401 0.87144 0.30974 0.0
C666 C -0.00178 0.90423 0.34773 0.0
H667 H 0.94149 0.87416 0.29451 0.0
C668 C 0.95705 0.88246 0.3096 0.0
C669 C 0.95012 0.904 0.32875 0.0
C670 C 0.97089 0.9149 0.34768 0.0
C671 C 0.02039 0.91638 0.36706 0.0
H672 H 0.96584 0.93179 0.36225 0.0
C673 C 0.04744 0.92219 0.35715 0.0
C674 C 0.06827 0.93461 0.37504 0.0
C675 C 0.01456 0.92279 0.39531 0.0
H676 H -0.00593 0.91822 0.40364 0.0
C677 C 0.03528 0.9348 0.41324 0.0
H678 H 0.052 0.918 0.33523 0.0
C679 C 0.06194 0.94076 0.40319 0.0
H680 H 0.07768 0.95007 0.41742 0.0
H681 H 0.03066 0.93949 0.43502 0.0
H682 H 0.50543 0.05506 0.80193 0.0
C683 C 0.52431 0.04555 0.79418 0.0
C684 C 0.54292 0.06156 0.77837 0.0
C685 C 0.52967 0.01719 0.79955 0.0
H686 H 0.58106 0.06158 0.75524 0.0
C687 C 0.56712 0.04919 0.76801 0.0
C688 C 0.57323 0.02103 0.77367 0.0
C689 C 0.55435 0.00516 0.78958 0.0
C690 C 0.50888 -0.00014 0.81456 0.0
H691 H 0.55858 0.98333 0.79385 0.0
C692 C 0.48044 1e-05 0.80622 0.0
C693 C 0.46049 0.98323 0.81984 0.0
C694 C 0.51734 0.98277 0.83681 0.0
H695 H 0.53911 0.98238 0.84367 0.0
C696 C 0.49764 0.9663 0.85064 0.0
H697 H 0.47402 0.01253 0.78848 0.0
C698 C 0.46941 0.96647 0.84227 0.0
H699 H 0.45456 0.95363 0.85348 0.0
H700 H 0.50427 0.95334 0.86794 0.0
H701 H 0.01249 0.40074 0.19344 0.0
C702 C 0.0317 0.41315 0.19615 0.0
C703 C 0.05036 0.40756 0.21845 0.0
C704 C 0.03777 0.43475 0.17737 0.0
H705 H 0.0894 0.41931 0.23932 0.0
C706 C 0.07516 0.42359 0.22189 0.0
C707 C 0.08173 0.445 0.20309 0.0
C708 C 0.06288 0.45053 0.18083 0.0
C709 C 0.0177 0.44104 0.15431 0.0
H710 H 0.06765 0.46715 0.1663 0.0
C711 C -0.01009 0.44784 0.16034 0.0
C712 C 0.97093 0.45493 0.13861 0.0
C713 C 0.02641 0.44094 0.12631 0.0
H714 H 0.04772 0.43571 0.12125 0.0
C715 C 0.00756 0.44732 0.1046 0.0
H716 H 0.9835 0.44873 0.18207 0.0
C717 C 0.98001 0.45422 0.11063 0.0
H718 H 0.96582 0.45903 0.09337 0.0
H719 H 0.01433 0.44693 0.08301 0.0
C720 C 0.15757 0.46395 0.22068 0.0
C721 C 0.15708 0.4935 0.22182 0.0
H722 H 0.13415 0.4255 0.21357 0.0
C723 C 0.13211 0.50704 0.21443 0.0
H724 H 0.17647 0.45285 0.22612 0.0
C725 C 0.10785 0.4913 0.20717 0.0
C726 C 0.10806 0.46176 0.20738 0.0
H727 H 0.13107 0.52978 0.21504 0.0
H728 H 0.08864 0.50224 0.20257 0.0
C729 C 0.13331 0.44826 0.21362 0.0
C730 C 0.32251 0.50373 0.66348 0.0
C731 C 0.3249 0.47496 0.66907 0.0
H732 H 0.34384 0.54215 0.65354 0.0
C733 C 0.35092 0.46211 0.66548 0.0
H734 H 0.30275 0.51424 0.66582 0.0
C735 C 0.37449 0.47818 0.65838 0.0
C736 C 0.37242 0.50733 0.65491 0.0
H737 H 0.35341 0.43995 0.66954 0.0
H738 H 0.39461 0.46811 0.6573 0.0
C739 C 0.34605 0.51976 0.65654 0.0
C740 C 0.62112 0.96961 0.73712 0.0
C741 C 0.64592 0.9858 0.73509 0.0
H742 H 0.57861 0.96813 0.75044 0.0
C743 C 0.64723 0.0129 0.74747 0.0
H744 H 0.61942 0.94867 0.72774 0.0
C745 C 0.62397 0.02391 0.76083 0.0
C746 C 0.59875 0.00819 0.7619 0.0
H747 H 0.66612 0.0258 0.7465 0.0
H748 H 0.62566 0.04491 0.77005 0.0
C749 C 0.59775 0.98072 0.75029 0.0
C750 C 0.88966 0.95478 0.32767 0.0
C751 C 0.86649 0.93635 0.32338 0.0
H752 H 0.93428 0.95906 0.33251 0.0
C753 C 0.8709 0.90721 0.32265 0.0
H754 H 0.88698 0.97736 0.32832 0.0
C755 C 0.89796 0.89676 0.32519 0.0
C756 C 0.92125 0.91519 0.32846 0.0
H757 H 0.85351 0.89242 0.31955 0.0
H758 H 0.90066 0.87419 0.32428 0.0
C759 C 0.91677 0.94431 0.3302 0.0
C760 C 0.20221 0.1473 0.45191 0.0
C761 C 0.20575 0.14815 0.48136 0.0
H762 H 0.19279 0.12196 0.415 0.0
C763 C 0.20028 0.12359 0.49646 0.0
H764 H 0.20606 0.16588 0.43965 0.0
C765 C 0.19277 0.09839 0.4823 0.0
C766 C 0.1906 0.09722 0.45275 0.0
H767 H 0.20277 0.12355 0.51918 0.0
H768 H 0.18997 0.07954 0.49444 0.0
C769 C 0.19472 0.12211 0.43777 0.0
C770 C 0.3132 0.88839 0.96913 0.0
C771 C 0.31248 0.86562 0.94975 0.0
H772 H 0.31526 0.93313 0.9752 0.0
C773 C 0.31599 0.87097 0.92106 0.0
H774 H 0.31052 0.88499 0.99139 0.0
C775 C 0.31902 0.89855 0.91182 0.0
C776 C 0.31841 0.92145 0.93102 0.0
H777 H 0.31577 0.85388 0.90561 0.0
H778 H 0.32134 0.90197 0.88951 0.0
C779 C 0.31607 0.91601 0.95986 0.0
C780 C 0.65125 0.35178 0.48595 0.0
C781 C 0.66131 0.35056 0.4584 0.0
H782 H 0.63868 0.37802 0.52037 0.0
C783 C 0.66321 0.37555 0.44314 0.0
H784 H 0.64925 0.3329 0.49819 0.0
C785 C 0.65729 0.40146 0.45594 0.0
C786 C 0.64934 0.40284 0.48422 0.0
H787 H 0.6708 0.37532 0.42182 0.0
H788 H 0.6607 0.42051 0.44426 0.0
C789 C 0.64529 0.37764 0.4987 0.0
C790 C 0.73282 0.63181 0.98409 0.0
C791 C 0.73051 0.65683 0.0001 0.0
H792 H 0.74698 0.58937 0.98283 0.0
C793 C 0.7433 0.6587 0.02698 0.0
H794 H 0.72313 0.6297 0.9633 0.0
C795 C 0.75736 0.63575 0.038 0.0
C796 C 0.75866 0.61026 0.02253 0.0
H797 H 0.74214 0.67779 0.03973 0.0
H798 H 0.76689 0.63789 0.05885 0.0
C799 C 0.74665 0.60873 -0.00477 0.0
C800 C 0.4978 0.21387 0.13252 0.0
C801 C 0.48454 0.22173 0.15755 0.0
H802 H 0.49264 0.20016 0.08939 0.0
C803 C 0.45519 0.21962 0.15856 0.0
H804 H 0.5204 0.2152 0.13109 0.0
C805 C 0.43938 0.21103 0.13474 0.0
C806 C 0.45255 0.20426 0.10939 0.0
H807 H 0.44432 0.22536 0.17754 0.0
H808 H 0.41676 0.21016 0.136 0.0
C809 C 0.48195 0.20513 0.10868 0.0
C810 C 0.9647 0.3101 0.89741 0.0
C811 C 0.94445 0.30959 0.87545 0.0
H812 H 0.9728 0.31329 0.94186 0.0
C813 C 0.91639 0.31455 0.88191 0.0
H814 H 0.98651 0.30631 0.89314 0.0
C815 C 0.90858 0.31891 0.9098 0.0
C816 C 0.92861 0.31817 0.93193 0.0
H817 H 0.90031 0.31456 0.86546 0.0
H818 H 0.88672 0.32243 0.91406 0.0
C819 C 0.95686 0.31426 0.92535 0.0
C820 C 0.47713 0.66383 0.39544 0.0
C821 C 0.48431 0.66011 0.36703 0.0
H822 H 0.49178 0.66569 0.43854 0.0
C823 C 0.51148 0.65153 0.36076 0.0
H824 H 0.45632 0.67038 0.40096 0.0
C825 C 0.53159 0.64873 0.38221 0.0
C826 C 0.52505 0.65457 0.41041 0.0
H827 H 0.51762 0.64817 0.33916 0.0
H828 H 0.55268 0.6432 0.37661 0.0
C829 C 0.49736 0.66106 0.41698 0.0
C830 C 0.03518 0.7727 0.63973 0.0
C831 C 0.00756 0.76302 0.63448 0.0
H832 H 0.07233 0.79077 0.62277 0.0
C833 C -0.00437 0.76587 0.60737 0.0
H834 H 0.04488 0.77111 0.66045 0.0
C835 C 0.01152 0.77686 0.58561 0.0
C836 C 0.0396 0.78531 0.59058 0.0
H837 H 0.97436 0.7586 0.60267 0.0
H838 H 0.00219 0.77755 0.56465 0.0
C839 C 0.05095 0.78385 0.61808 0.0
C840 C 0.88417 0.44492 0.64215 0.0
C841 C 0.86842 0.45436 0.66504 0.0
H842 H 0.9219 0.44991 0.61896 0.0
C843 C 0.88011 0.47496 0.68359 0.0
H844 H 0.87568 0.42906 0.62746 0.0
C845 C 0.90672 0.48635 0.67909 0.0
C846 C 0.92214 0.47778 0.65564 0.0
H847 H 0.86866 0.48239 0.70162 0.0
H848 H 0.91517 0.50202 0.694 0.0
C849 C 0.9107 0.4567 0.63738 0.0
C850 C 0.61713 0.50102 0.2535 0.0
C851 C 0.62725 0.52492 0.23987 0.0
H852 H 0.58305 0.47201 0.25852 0.0
C853 C 0.60971 0.53829 0.22038 0.0
H854 H 0.63009 0.49051 0.26888 0.0
C855 C 0.58299 0.52717 0.21366 0.0
C856 C 0.57304 0.50272 0.22672 0.0
H857 H 0.61707 0.5567 0.20945 0.0
H858 H 0.57061 0.53721 0.19752 0.0
C859 C 0.59022 0.49029 0.2473 0.0
C860 C 0.4024 0.94853 0.27798 0.0
C861 C 0.39573 0.97312 0.29298 0.0
H862 H 0.42928 0.9134 0.27458 0.0
C863 C 0.41157 0.98081 0.3173 0.0
H864 H 0.39078 0.94232 0.25893 0.0
C865 C 0.4332 0.96373 0.32689 0.0
C866 C 0.43979 0.93888 0.31202 0.0
H867 H 0.40678 -0.00036 0.32933 0.0
H868 H 0.44427 0.96973 0.34629 0.0
C869 C 0.42438 0.93184 0.28715 0.0
C870 C 0.07424 0.01618 0.78411 0.0
C871 C 0.0916 0.03207 0.76672 0.0
H872 H 0.03443 0.01231 0.80355 0.0
C873 C 0.08103 0.05642 0.75449 0.0
H874 H 0.08189 -0.00263 0.79395 0.0
C875 C 0.05359 0.06461 0.75935 0.0
C876 C 0.03619 0.04899 0.77707 0.0
H877 H 0.09381 0.06893 0.74072 0.0
H878 H 0.04597 0.08304 0.74883 0.0
C879 C 0.04694 0.02467 0.78944 0.0
C880 C 0.71425 0.89596 0.43536 0.0
C881 C 0.6964 0.8829 0.41496 0.0
H882 H 0.72087 0.93046 0.46444 0.0
C883 C 0.6711 0.89583 0.40761 0.0
H884 H 0.73401 0.88668 0.44127 0.0
C885 C 0.66336 0.92083 0.42118 0.0
C886 C 0.68086 0.9334 0.44224 0.0
H887 H 0.65682 0.88609 0.39213 0.0
H888 H 0.64325 0.92971 0.41597 0.0
C889 C 0.70665 0.92099 0.44872 0.0
C890 C 0.78037 0.08343 0.0365 0.0
C891 C 0.76326 0.10111 0.05239 0.0
H892 H 0.79917 0.04312 0.03255 0.0
C893 C 0.7509 0.09065 0.07667 0.0
H894 H 0.79032 0.09101 0.01776 0.0
C895 C 0.75528 0.06296 0.08474 0.0
C896 C 0.77268 0.0452 0.06909 0.0
H897 H 0.73734 0.1037 0.08916 0.0
H898 H 0.7446 0.05543 0.10306 0.0
C899 C 0.78527 0.05589 0.0449 0.0
C900 C 0.26037 0.60872 0.50605 0.0
C901 C 0.24679 0.61875 0.53001 0.0
H902 H 0.26315 0.57601 0.47486 0.0
C903 C 0.22512 0.60239 0.5413 0.0
H904 H 0.27737 0.62074 0.4971 0.0
C905 C 0.21633 0.57707 0.52808 0.0
C906 C 0.22935 0.56735 0.50354 0.0
H907 H 0.21419 0.6097 0.55972 0.0
H908 H 0.19869 0.56567 0.53656 0.0
C909 C 0.25199 0.58317 0.49317 0.0
C910 C 0.27036 0.41398 0.972 0.0
C911 C 0.28766 0.40737 -0.00494 0.0
H912 H 0.26413 0.43997 0.93643 0.0
C913 C 0.31306 0.42236 -0.00046 0.0
H914 H 0.25049 0.403 0.96825 0.0
C915 C 0.32141 0.44303 0.98076 0.0
C916 C 0.30424 0.44954 0.9574 0.0
H917 H 0.32687 0.41756 0.01711 0.0
H918 H 0.34162 0.45338 0.98424 0.0
C919 C 0.27836 0.43506 0.95361 0.0
C920 C 0.40897 0.66689 0.89537 0.0
C921 C 0.41877 0.68955 0.87949 0.0
H922 H 0.41318 0.64397 0.93355 0.0
C923 C 0.43892 0.70824 0.89163 0.0
H924 H 0.3934 0.65215 0.88656 0.0
C925 C 0.44972 0.70393 0.91868 0.0
C926 C 0.44112 0.68046 0.93413 0.0
H927 H 0.44652 0.72619 0.88014 0.0
H928 H 0.46519 0.71888 0.92733 0.0
C929 C 0.42017 0.6623 0.92238 0.0
C930 C 0.01938 0.77923 0.07813 0.0
C931 C 0.03418 0.76073 0.09536 0.0
H932 H 0.01732 0.80035 0.03887 0.0
C933 C 0.05837 0.7482 0.08509 0.0
H934 H 0.0007 0.7893 0.0856 0.0
C935 C 0.06743 0.75376 0.05797 0.0
C936 C 0.05293 0.7726 0.04066 0.0
H937 H 0.06999 0.73355 0.09778 0.0
H938 H 0.08562 0.74287 0.05051 0.0
C939 C 0.02881 0.78535 0.05121 0.0
C940 C 0.51916 0.20554 0.60665 0.0
C941 C 0.50627 0.22472 0.62486 0.0
H942 H 0.51763 0.18404 0.56666 0.0
C943 C 0.48262 0.23901 0.61522 0.0
H944 H 0.53735 0.1941 0.61364 0.0
C945 C 0.47179 0.23394 0.588 0.0
C946 C 0.48385 0.21381 0.57002 0.0
H947 H 0.47249 0.25418 0.62872 0.0
H948 H 0.45382 0.24578 0.58119 0.0
C949 C 0.50791 0.19991 0.57962 0.0
C950 C 0.98796 0.32939 0.43501 0.0
C951 C 0.98466 0.30443 0.41884 0.0
H952 H 0.97082 0.35655 0.46639 0.0
C953 C 0.96153 0.2866 0.42342 0.0
H954 H 0.00556 0.3436 0.43181 0.0
C955 C 0.94203 0.29359 0.44373 0.0
C956 C 0.94479 0.31894 0.45953 0.0
H957 H 0.95865 0.26704 0.4115 0.0
H958 H 0.92486 0.27893 0.44711 0.0
C959 C 0.96811 0.33671 0.45497 0.0
C960 C 0.22795 0.49192 0.36974 0.0
C961 C 0.22072 0.5154 0.35377 0.0
H962 H 0.23002 0.47374 0.41061 0.0
C963 C 0.20784 0.53821 0.3672 0.0
H964 H 0.23779 0.47394 0.36003 0.0
C965 C 0.20338 0.53804 0.39616 0.0
C966 C 0.21156 0.51501 0.41228 0.0
H967 H 0.20184 0.55655 0.35552 0.0
H968 H 0.1939 0.55614 0.40603 0.0
C969 C 0.22335 0.4917 0.39869 0.0
C970 C 0.28186 0.50016 0.8159 0.0
C971 C 0.28359 0.4734 0.80288 0.0
H972 H 0.2901 0.52557 0.85308 0.0
C973 C 0.29682 0.45182 0.8176 0.0
H974 H 0.27192 0.51729 0.80511 0.0
C975 C 0.30731 0.45664 0.84499 0.0
C976 C 0.30487 0.48314 0.85829 0.0
H977 H 0.29873 0.43103 0.80815 0.0
H978 H 0.31713 0.4395 0.85588 0.0
C979 C 0.29245 0.50499 0.8433 0.0
C980 C 0.6963 0.00832 0.57593 0.0
C981 C 0.69192 0.98425 0.59214 0.0
H982 H 0.69243 0.02688 0.53533 0.0
C983 C 0.67811 0.96065 0.57957 0.0
H984 H 0.70679 0.0269 0.58498 0.0
C985 C 0.66983 0.96071 0.5512 0.0
C986 C 0.6751 0.98438 0.53474 0.0
H987 H 0.6742 0.94183 0.59147 0.0
H988 H 0.65962 0.94204 0.54201 0.0
C989 C 0.68792 0.00839 0.54753 0.0
C990 C 0.76293 0.94603 0.18353 0.0
C991 C 0.77669 0.96371 0.20376 0.0
H992 H 0.75359 0.9378 0.13982 0.0
C993 C 0.79318 0.98642 0.19458 0.0
H994 H 0.75008 0.92833 0.18984 0.0
C995 C 0.79528 0.99175 0.16588 0.0
C996 C 0.78098 0.97447 0.14571 0.0
H997 H 0.80419 0.00037 0.20958 0.0
H998 H 0.80802 0.0095 0.15948 0.0
C999 C 0.76508 0.95135 0.15483 0.0
C1000 C 0.35101 0.19814 0.52627 0.0
C1001 C 0.3398 0.2136 0.50392 0.0
H1002 H 0.38783 0.18175 0.54597 0.0
C1003 C 0.35784 0.22312 0.48297 0.0
H1004 H 0.33771 0.19031 0.54266 0.0
C1005 C 0.38659 0.21824 0.48493 0.0
C1006 C 0.39792 0.20381 0.5079 0.0
H1007 H 0.34989 0.23501 0.46541 0.0
H1008 H 0.40008 0.22673 0.46902 0.0
C1009 C 0.37975 0.19333 0.52825 0.0
C1010 C 0.18041 0.79319 0.9887 0.0
C1011 C 0.19027 0.77818 0.96524 0.0
H1012 H 0.14477 0.80722 0.0112 0.0
C1013 C 0.17071 0.76631 0.94562 0.0
H1014 H 0.19487 0.80278 0.00413 0.0
C1015 C 0.14195 0.76877 0.94977 0.0
C1016 C 0.13212 0.78312 0.97364 0.0
H1017 H 0.17758 0.75464 0.9273 0.0
H1018 H 0.12741 0.75871 0.93471 0.0
C1019 C 0.15168 0.79563 -0.00715 0.0
C1020 C 0.80567 0.31125 0.45517 0.0
C1021 C 0.79006 0.2964 0.47495 0.0
H1022 H 0.84425 0.33249 0.44616 0.0
C1023 C 0.80182 0.29262 0.50201 0.0
H1024 H 0.79721 0.31477 0.43422 0.0
C1025 C 0.82887 0.30284 0.50885 0.0
C1026 C 0.84473 0.31692 0.48873 0.0
H1027 H 0.79032 0.28139 0.5178 0.0
H1028 H 0.83769 0.29895 0.52957 0.0
C1029 C 0.83267 0.32136 0.46197 0.0
C1030 C 0.57511 0.68307 0.973 0.0
C1031 C 0.58552 0.69964 -0.0041 0.0
H1032 H 0.5396 0.66171 0.95363 0.0
C1033 C 0.56754 0.70597 0.01812 0.0
H1034 H 0.58841 0.67756 0.95565 0.0
C1035 C 0.53948 0.69691 0.01689 0.0
C1036 C 0.52882 0.68138 -0.00659 0.0
H1037 H 0.57491 0.71861 0.03612 0.0
H1038 H 0.52586 0.70303 0.0338 0.0
C1039 C 0.5471 0.67405 0.97178 0.0
C1040 C 0.53269 0.36931 0.20542 0.0
C1041 C 0.51023 0.35729 0.21991 0.0
H1042 H 0.55201 0.40703 0.19052 0.0
C1043 C 0.48863 0.37478 0.22901 0.0
H1044 H 0.54958 0.35645 0.19793 0.0
C1045 C 0.49007 0.40378 0.22476 0.0
C1046 C 0.51317 0.41592 0.21142 0.0
H1047 H 0.47096 0.36621 0.24013 0.0
H1048 H 0.47366 0.41685 0.23297 0.0
C1049 C 0.53416 0.39831 0.20126 0.0
C1050 C 0.98001 0.17475 0.80079 0.0
C1051 C 0.95704 0.18459 0.78508 0.0
H1052 H 0.00286 0.13903 0.81447 0.0
C1053 C 0.9386 0.1649 0.77163 0.0
H1054 H -0.00547 0.18932 0.81157 0.0
C1055 C 0.94349 0.13607 0.77318 0.0
C1056 C 0.96691 0.12628 0.78822 0.0
H1057 H 0.92069 0.17173 0.75936 0.0
H1058 H 0.92939 0.12149 0.76186 0.0
C1059 C 0.98488 0.14593 0.80234 0.0
C1060 C 0.49223 0.79803 0.30041 0.0
C1061 C 0.46674 0.78457 0.30694 0.0
H1062 H 0.5167 0.83642 0.30199 0.0
C1063 C 0.44667 0.79985 0.32172 0.0
H1064 H 0.50821 0.78679 0.2892 0.0
C1065 C 0.45154 0.82818 0.3289 0.0
C1066 C 0.47668 0.84181 0.32173 0.0
H1067 H 0.42688 0.79013 0.32721 0.0
H1068 H 0.43546 0.83958 0.3398 0.0
C1069 C 0.49721 0.82635 0.30789 0.0
C1070 C 0.96433 0.61152 0.65916 0.0
C1071 C 0.98624 0.62114 0.67738 0.0
H1072 H 0.94537 0.57652 0.63639 0.0
C1073 C 0.00721 0.60226 0.68523 0.0
H1074 H 0.94795 0.62552 0.65249 0.0
C1075 C 0.00569 0.57413 0.67597 0.0
C1076 C 0.98313 0.5643 0.65875 0.0
H1077 H 0.02445 0.60899 0.69914 0.0
H1078 H 0.02158 0.55984 0.68323 0.0
C1079 C 0.96279 0.58342 0.64998 0.0
C1080 C 0.72122 0.47254 0.59553 0.0
C1081 C 0.71128 0.45601 0.61749 0.0
H1082 H 0.71337 0.48741 0.5537 0.0
C1083 C 0.68489 0.4427 0.61462 0.0
H1084 H 0.74171 0.48271 0.59726 0.0
C1085 C 0.66896 0.44515 0.58987 0.0
C1086 C 0.67908 0.46117 0.56767 0.0
H1087 H 0.67727 0.42916 0.63095 0.0
H1088 H 0.64919 0.43366 0.58757 0.0
C1089 C 0.70503 0.47538 0.57084 0.0
C1090 C 0.73809 0.54471 0.14385 0.0
C1091 C 0.76019 0.54233 0.16366 0.0
H1092 H 0.72621 0.55052 0.10063 0.0
C1093 C 0.7879 0.5438 0.15447 0.0
H1094 H 0.71649 0.54386 0.15035 0.0
C1095 C 0.79342 0.54713 0.12591 0.0
C1096 C 0.77128 0.54977 0.10628 0.0
H1097 H 0.80527 0.5436 0.16942 0.0
H1098 H 0.81494 0.5487 0.11928 0.0
C1099 C 0.74359 0.54849 0.11545 0.0
C1100 C 0.24836 -0.00289 0.35101 0.0
C1101 C 0.25454 0.01771 0.33126 0.0
H1102 H 0.22736 0.98713 0.38889 0.0
C1103 C 0.24356 0.04467 0.33453 0.0
H1104 H 0.25712 0.97631 0.34913 0.0
C1105 C 0.22604 0.05078 0.35689 0.0
C1106 C 0.2197 0.03019 0.37679 0.0
H1107 H 0.24816 0.06088 0.3195 0.0
H1108 H 0.21723 0.07156 0.35841 0.0
C1109 C 0.23127 0.00332 0.37369 0.0
C1110 C 0.27025 0.97935 0.81349 0.0
C1111 C 0.24993 0.00026 0.81379 0.0
H1112 H 0.3024 0.95842 0.83658 0.0
C1113 C 0.24651 0.01659 0.83838 0.0
H1114 H 0.27274 0.96602 0.79499 0.0
C1115 C 0.26356 0.0123 0.86223 0.0
C1116 C 0.28376 0.99118 0.86194 0.0
H1117 H 0.23077 0.03269 0.83909 0.0
H1118 H 0.26049 0.02497 0.88108 0.0
C1119 C 0.28699 0.97483 0.83732 0.0
C1120 C 0.65674 0.72668 0.45232 0.0
C1121 C 0.66448 0.72952 0.42421 0.0
H1122 H 0.62844 0.70782 0.48094 0.0
C1123 C 0.65012 0.71375 0.40306 0.0
H1124 H 0.66743 0.73894 0.46892 0.0
C1125 C 0.62846 0.69515 0.40994 0.0
C1126 C 0.61996 0.69273 0.43804 0.0
H1127 H 0.65597 0.71548 0.38125 0.0
H1128 H 0.61836 0.68274 0.39312 0.0
C1129 C 0.63457 0.70864 0.45917 0.0
C1130 C 0.81228 0.27844 -0.00368 0.0
C1131 C 0.81273 0.25826 0.01745 0.0
H1132 H 0.83558 0.30925 0.97379 0.0
C1133 C 0.83773 0.25392 0.03271 0.0
H1134 H 0.79342 0.2816 0.98378 0.0
C1135 C 0.86188 0.26984 0.02708 0.0
C1136 C 0.86145 0.28978 0.00565 0.0
H1137 H 0.83857 0.23828 0.04896 0.0
H1138 H 0.88106 0.26602 0.03888 0.0
C1139 C 0.8364 0.29402 0.99043 0.0
C1140 C 0.16342 0.74109 0.54309 0.0
C1141 C 0.18646 0.75992 0.54509 0.0
H1142 H 0.11862 0.73637 0.54102 0.0
C1143 C 0.18174 0.78889 0.54716 0.0
H1144 H 0.16651 0.71858 0.54184 0.0
C1145 C 0.1545 0.79907 0.54599 0.0
C1146 C 0.13156 0.78026 0.54371 0.0
H1147 H 0.19913 0.80351 0.55055 0.0
H1148 H 0.15128 0.82153 0.54772 0.0
C1149 C 0.13615 0.7512 0.54252 0.0
C1150 C 0.32224 0.23421 0.04134 0.0
C1151 C 0.32599 0.26341 0.03918 0.0
H1152 H 0.3419 0.19433 0.04636 0.0
C1153 C 0.35323 0.27509 0.04095 0.0
H1154 H 0.3014 0.22504 0.04189 0.0
C1155 C 0.3763 0.25777 0.04452 0.0
C1156 C 0.37249 0.22849 0.04617 0.0
H1157 H 0.35668 0.29762 0.03971 0.0
H1158 H 0.39712 0.26722 0.04618 0.0
C1159 C 0.34531 0.21679 0.04433 0.0
C1160 C 0.42788 0.64198 0.6944 0.0
C1161 C 0.4249 0.6395 0.72361 0.0
H1162 H 0.43138 0.62042 0.65453 0.0
C1163 C 0.42364 0.61257 0.73516 0.0
H1164 H 0.42719 0.66234 0.68471 0.0
C1165 C 0.4251 0.58859 0.7178 0.0
C1166 C 0.42803 0.59115 0.68861 0.0
H1167 H 0.42104 0.61005 0.75757 0.0
H1168 H 0.42334 0.56801 0.72705 0.0
C1169 C 0.42989 0.61801 0.67708 0.0
C1170 C 0.00285 0.79963 0.28184 0.0
C1171 C 0.00412 0.80414 0.25276 0.0
H1172 H -0.00396 0.81781 0.32277 0.0
C1173 C -0.00249 0.83073 0.2424 0.0
H1174 H 0.00617 0.77895 0.29025 0.0
C1175 C -0.00923 0.85268 0.26095 0.0
C1176 C -0.00928 0.84834 0.29006 0.0
H1177 H -0.00214 0.83461 0.22002 0.0
H1178 H 0.98597 0.87313 0.25264 0.0
C1179 C -0.00338 0.82166 0.30039 0.0
C1180 C 0.52979 0.13941 0.78752 0.0
C1181 C 0.52812 0.14799 0.75944 0.0
H1182 H 0.53539 0.10496 0.81554 0.0
C1183 C 0.53104 0.12781 0.7377 0.0
H1184 H 0.52925 0.15468 0.80463 0.0
C1185 C 0.5355 0.09967 0.7439 0.0
C1186 C 0.53691 0.09111 0.77195 0.0
H1187 H 0.53006 0.13382 0.71583 0.0
H1188 H 0.53791 0.08455 0.72678 0.0
C1189 C 0.53376 0.1111 0.79374 0.0
C1190 C 0.03855 0.36835 0.28568 0.0
C1191 C 0.03649 0.34036 0.27565 0.0
H1192 H 0.0444 0.41175 0.27515 0.0
C1193 C 0.03906 0.33474 0.24674 0.0
H1194 H 0.03705 0.37324 0.30797 0.0
C1195 C 0.04251 0.3567 0.22796 0.0
C1196 C 0.04446 0.38462 0.238 0.0
H1197 H 0.03946 0.31329 0.23886 0.0
H1198 H 0.04468 0.35185 0.20574 0.0
C1199 C 0.04263 0.39031 0.267 0.0
C1200 C 0.34873 0.52766 0.22128 0.0
C1201 C 0.34026 0.49942 0.22435 0.0
H1202 H 0.38134 0.55636 0.20963 0.0
C1203 C 0.35838 0.47807 0.21588 0.0
H1204 H 0.33531 0.54464 0.22769 0.0
C1205 C 0.3847 0.48479 0.20528 0.0
C1206 C 0.39358 0.51304 0.20304 0.0
H1207 H 0.35244 0.4561 0.21779 0.0
H1208 H 0.39814 0.46781 0.19896 0.0
C1209 C 0.37511 0.53439 0.21081 0.0
C1210 C 0.14954 0.465 0.65763 0.0
C1211 C 0.14865 0.46713 0.68717 0.0
H1212 H 0.12602 0.46074 0.61873 0.0
C1213 C 0.12251 0.46591 0.70015 0.0
H1214 H 0.16935 0.46586 0.64699 0.0
C1215 C 0.09781 0.46294 0.68402 0.0
C1216 C 0.0986 0.46109 0.6545 0.0
H1217 H 0.12104 0.46735 0.72285 0.0
H1218 H 0.07804 0.46187 0.69474 0.0
C1219 C 0.12475 0.46194 0.64145 0.0
C1220 C 0.82321 0.04013 0.74645 0.0
C1221 C 0.80982 0.01629 0.73389 0.0
H1222 H 0.8577 0.05629 0.77184 0.0
C1223 C 0.82144 0.98971 0.73808 0.0
H1224 H 0.81474 0.0609 0.74376 0.0
C1225 C 0.84622 0.9871 0.75394 0.0
C1226 C 0.85994 0.011 0.76608 0.0
H1227 H 0.81172 0.97091 0.72864 0.0
H1228 H 0.85501 0.9664 0.75606 0.0
C1229 C 0.84795 0.03751 0.76239 0.0
C1230 C 0.64576 0.89584 0.33106 0.0
C1231 C 0.66569 0.91801 0.3315 0.0
H1232 H 0.60464 0.88196 0.34216 0.0
C1233 C 0.65915 0.94357 0.345 0.0
H1234 H 0.6502 0.87579 0.32105 0.0
C1235 C 0.63286 0.94726 0.35672 0.0
C1236 C 0.61253 0.92539 0.35548 0.0
H1237 H 0.67401 0.96109 0.34574 0.0
H1238 H 0.62821 0.9676 0.36597 0.0
C1239 C 0.61952 0.89946 0.34296 0.0
C1240 C 0.20659 0.35534 0.46499 0.0
C1241 C 0.2134 0.33576 0.48568 0.0
H1242 H 0.19158 0.39642 0.45613 0.0
C1243 C 0.20906 0.34286 0.5141 0.0
H1244 H 0.20949 0.35048 0.44288 0.0
C1245 C 0.19911 0.36935 0.52173 0.0
C1246 C 0.19314 0.3893 0.5011 0.0
H1247 H 0.21416 0.32828 0.53059 0.0
H1248 H 0.19701 0.3745 0.54388 0.0
C1249 C 0.19651 0.38177 0.4726 0.0
C1250 C 0.32594 0.65228 0.90104 0.0
C1251 C 0.32529 0.67276 0.92277 0.0
H1252 H 0.33802 0.61079 0.8886 0.0
C1253 C 0.3388 0.66736 0.94864 0.0
H1254 H 0.31602 0.65587 0.88074 0.0
C1255 C 0.35125 0.64142 0.9532 0.0
C1256 C 0.35049 0.62031 0.93198 0.0
H1257 H 0.33883 0.68273 0.96579 0.0
H1258 H 0.36035 0.63749 0.97379 0.0
C1259 C 0.33837 0.62634 0.9056 0.0
C1260 C 0.66024 0.14319 0.48841 0.0
C1261 C 0.66563 0.16383 0.46837 0.0
H1262 H 0.64605 0.10112 0.49604 0.0
C1263 C 0.6595 0.15752 0.43981 0.0
H1264 H 0.66452 0.14739 0.5106 0.0
C1265 C 0.64908 0.13085 0.43143 0.0
C1266 C 0.64456 0.10991 0.45142 0.0
H1267 H 0.66341 0.17293 0.42382 0.0
H1268 H 0.64543 0.12636 0.4092 0.0
C1269 C 0.64982 0.11658 0.48005 0.0
C1270 C 0.73803 0.83198 0.05667 0.0
C1271 C 0.72571 0.81918 0.03237 0.0
H1272 H 0.76372 0.8658 0.0739 0.0
C1273 C 0.73066 0.83115 0.00609 0.0
H1274 H 0.73476 0.82324 0.07724 0.0
C1275 C 0.74704 0.8557 0.00421 0.0
C1276 C 0.75895 0.86882 0.02856 0.0
H1277 H 0.72142 0.82188 0.98695 0.0
H1278 H 0.74976 0.86477 0.98371 0.0
C1279 C 0.75448 0.8565 0.05478 0.0
C1280 C 0.46406 0.21563 0.35416 0.0
C1281 C 0.48623 0.22409 0.3371 0.0
H1282 H 0.45185 0.19687 0.39267 0.0
C1283 C 0.51388 0.21912 0.34619 0.0
H1284 H 0.4425 0.21899 0.34771 0.0
C1285 C 0.51926 0.20674 0.37214 0.0
C1286 C 0.49712 0.19892 0.38956 0.0
H1287 H 0.53147 0.22545 0.3336 0.0
H1288 H 0.54084 0.20408 0.3789 0.0
C1289 C 0.46943 0.20314 0.38005 0.0
C1290 C 0.9352 0.33618 0.67689 0.0
C1291 C 0.91044 0.32062 0.68146 0.0
H1292 H 0.95827 0.36183 0.64873 0.0
C1293 C 0.88855 0.32129 0.6612 0.0
H1294 H 0.95248 0.33613 0.69205 0.0
C1295 C 0.89179 0.33624 0.63641 0.0
C1296 C 0.91701 0.35081 0.63128 0.0
H1297 H 0.86912 0.30971 0.66416 0.0
H1298 H 0.87467 0.33604 0.62106 0.0
C1299 C 0.93846 0.35106 0.65208 0.0
C1300 C 0.44375 0.65381 0.16481 0.0
C1301 C 0.44752 0.68302 0.16907 0.0
H1302 H 0.43551 0.61992 0.1351 0.0
C1303 C 0.44529 0.70063 0.14574 0.0
H1304 H 0.44538 0.63964 0.18231 0.0
C1305 C 0.43955 0.68938 0.1188 0.0
C1306 C 0.43588 0.6602 0.11443 0.0
H1307 H 0.44795 0.72323 0.14823 0.0
H1308 H 0.43765 0.70364 0.1014 0.0
C1309 C 0.43796 0.64253 0.13777 0.0
C1310 C -0.00401 0.75423 0.82038 0.0
C1311 C 0.02225 0.74885 0.80886 0.0
H1312 H 0.97354 0.77076 0.85526 0.0
C1313 C 0.04658 0.75766 0.82403 0.0
H1314 H 0.97682 0.74759 0.80934 0.0
C1315 C 0.0447 0.77123 0.85031 0.0
C1316 C 0.01844 0.7762 0.86209 0.0
H1317 H 0.06715 0.75395 0.81571 0.0
H1318 H 0.06386 0.77793 0.86133 0.0
C1319 C -0.00589 0.76766 0.84671 0.0
C1320 C 0.57475 0.46381 0.61623 0.0
C1321 C 0.59054 0.47873 0.63713 0.0
H1322 H 0.53795 0.46246 0.58965 0.0
C1323 C 0.58067 0.50459 0.64736 0.0
H1324 H 0.58184 0.4439 0.60779 0.0
C1325 C 0.55538 0.51517 0.637 0.0
C1326 C 0.53975 0.50029 0.61594 0.0
H1327 H 0.5924 0.5166 0.66344 0.0
H1328 H 0.54819 0.53514 0.64522 0.0
C1329 C 0.54973 0.47454 0.60565 0.0
C1330 C 0.90017 0.46144 0.17326 0.0
C1331 C 0.88882 0.48454 0.15929 0.0
H1332 H 0.93477 0.43364 0.17743 0.0
C1333 C 0.9043 0.49719 0.13797 0.0
H1334 H 0.88874 0.45114 0.18972 0.0
C1335 C 0.93067 0.48729 0.13106 0.0
C1336 C 0.94225 0.46444 0.14524 0.0
H1337 H 0.89625 0.51505 0.12679 0.0
H1338 H 0.94229 0.49805 0.11504 0.0
C1339 C 0.92661 0.4515 0.16632 0.0
C1340 C 0.13369 0.97683 0.35822 0.0
C1341 C 0.1483 0.95776 0.34128 0.0
H1342 H 0.09719 0.98431 0.38245 0.0
C1343 C 0.13675 0.93066 0.33613 0.0
H1344 H 0.14197 -0.00212 0.36258 0.0
C1345 C 0.11083 0.92303 0.34721 0.0
C1346 C 0.0962 0.94219 0.36403 0.0
H1347 H 0.14751 0.91547 0.32319 0.0
H1348 H 0.10226 0.90211 0.3427 0.0
C1349 C 0.10807 0.96905 0.3697 0.0
C1350 C 0.38703 0.95698 0.79928 0.0
C1351 C 0.37405 0.98189 0.79105 0.0
H1352 H 0.42446 0.93779 0.81443 0.0
C1353 C 0.3896 0.00731 0.79265 0.0
H1354 H 0.37566 0.93703 0.79831 0.0
C1355 C 0.41753 0.00779 0.80217 0.0
C1356 C 0.43058 0.98285 0.81027 0.0
H1357 H 0.38019 0.02692 0.78665 0.0
H1358 H 0.42882 0.02778 0.80345 0.0
C1359 C 0.41497 0.95745 0.80874 0.0
C1360 C 0.65602 0.61785 0.43603 0.0
C1361 C 0.67327 0.6305 0.45724 0.0
H1362 H 0.62827 0.58362 0.42408 0.0
C1363 C 0.67548 0.61757 0.48352 0.0
H1364 H 0.65363 0.62739 0.41563 0.0
C1365 C 0.66093 0.59231 0.48834 0.0
C1366 C 0.64361 0.57975 0.46708 0.0
H1367 H 0.68851 0.62691 0.50032 0.0
H1368 H 0.66278 0.58289 0.50884 0.0
C1369 C 0.64131 0.59285 0.44092 0.0
C1370 C 0.79222 0.40061 0.02414 0.0
C1371 C 0.79052 0.38455 -0.00104 0.0
H1372 H 0.80266 0.44045 0.04388 0.0
C1373 C 0.79816 0.39724 0.97373 0.0
H1374 H 0.78667 0.39143 0.04398 0.0
C1375 C 0.80715 0.42541 0.97364 0.0
C1376 C 0.80878 0.44154 -0.0012 0.0
H1377 H 0.79708 0.38549 0.95395 0.0
H1378 H 0.81238 0.43466 0.95375 0.0
C1379 C 0.80128 0.42877 0.02406 0.0
C1380 C 0.18494 0.88789 0.46695 0.0
C1381 C 0.18173 0.87991 0.49503 0.0
H1382 H 0.17455 0.91765 0.43516 0.0
C1383 C 0.16387 0.8954 0.51233 0.0
H1384 H 0.19849 0.87628 0.45311 0.0
C1385 C 0.14994 0.91871 0.50198 0.0
C1386 C 0.15384 0.92727 0.47421 0.0
H1387 H 0.16075 0.88961 0.53399 0.0
H1388 H 0.1368 0.93059 0.516 0.0
C1389 C 0.17131 0.91153 0.4567 0.0
C1390 C 0.32008 0.12926 0.01029 0.0
C1391 C 0.30698 0.146 0.99004 0.0
H1392 H 0.34364 0.09225 0.01822 0.0
C1393 C 0.3073 0.1375 0.96155 0.0
H1394 H 0.3204 0.13543 0.03237 0.0
C1395 C 0.32029 0.11253 0.95351 0.0
C1396 C 0.33371 0.09605 0.97377 0.0
H1397 H 0.29739 0.15005 0.94552 0.0
H1398 H 0.32029 0.10633 0.93144 0.0
C1399 C 0.33354 0.10468 0.0022 0.0
C1400 C 0.48743 0.66099 0.59228 0.0
C1401 C 0.49857 0.66424 0.61985 0.0
H1402 H 0.49452 0.64776 0.54966 0.0
C1403 C 0.52649 0.65677 0.62518 0.0
H1404 H 0.46597 0.66648 0.58745 0.0
C1405 C 0.54281 0.64609 0.60353 0.0
C1406 C 0.53164 0.64263 0.57599 0.0
H1407 H 0.53577 0.65904 0.64613 0.0
H1408 H 0.56432 0.64076 0.60834 0.0
C1409 C 0.50381 0.65037 0.57058 0.0
C1410 C 0.05403 0.79648 0.38302 0.0
C1411 C 0.06041 0.81614 0.3623 0.0
H1412 H 0.04532 0.78954 0.42633 0.0
C1413 C 0.0642 0.84461 0.37037 0.0
H1414 H 0.05087 0.77439 0.37754 0.0
C1415 C 0.06107 0.8533 0.39842 0.0
C1416 C 0.05418 0.83369 0.41905 0.0
H1417 H 0.06933 0.86028 0.355 0.0
H1418 H 0.06413 0.87536 0.40398 0.0
C1419 C 0.05095 0.80514 0.41105 0.0
C1420 C 0.48746 0.12783 0.90735 0.0
C1421 C 0.4737 0.14778 0.89087 0.0
H1422 H 0.48986 0.10684 0.94664 0.0
C1423 C 0.45026 0.16129 0.90186 0.0
H1424 H 0.5056 0.11705 0.89959 0.0
C1425 C 0.44105 0.15523 0.9289 0.0
C1426 C 0.45508 0.13552 0.94551 0.0
H1427 H 0.43912 0.17669 0.88968 0.0
H1428 H 0.42291 0.16594 0.93677 0.0
C1429 C 0.47829 0.1218 0.9343 0.0
C1430 C 0.96234 0.3164 0.14906 0.0
C1431 C -0.00947 0.31483 0.15795 0.0
H1432 H 0.93346 0.3292 0.11671 0.0
C1433 C 0.01152 0.32539 0.14054 0.0
H1434 H 0.94575 0.30845 0.16209 0.0
C1435 C 0.00447 0.33761 0.11494 0.0
C1436 C 0.97633 0.33908 0.10599 0.0
H1437 H 0.03341 0.3247 0.14693 0.0
H1438 H 0.02105 0.34577 0.10202 0.0
C1439 C 0.95532 0.32816 0.12313 0.0
loop_
_geom_bond_atom_site_label_1
_geom_bond_atom_site_label_2
_geom_bond_distance
_geom_bond_site_symmetry_2
_ccdc_geom_bond_type
O0 Cd1 2.300 . S
O0 C7 1.275 . S
Cd1 O0 2.300 . S
Cd1 O9 2.381 . S
Cd1 O10 2.378 . S
O2 Cd3 2.385 . S
O2 C7 1.255 . S
Cd3 O2 2.385 . S
Cd3 O4 2.317 . S
O4 Cd3 2.317 . S
O4 C5 1.232 . S
C5 O4 1.232 . S
C5 O6 1.218 . S
O6 C5 1.218 . S
C7 O0 1.275 . S
C7 O2 1.255 . S
C8 O9 1.258 . S
C8 O10 1.256 . S
O9 Cd1 2.381 . S
O9 C8 1.258 . S
O10 Cd1 2.378 . S
O10 C8 1.256 . S
O11 Cd12 2.300 . S
O11 C18 1.275 . S
Cd12 O11 2.300 . S
Cd12 O20 2.381 . S
Cd12 O21 2.378 . S
O13 Cd14 2.385 . S
O13 C18 1.255 . S
Cd14 O13 2.385 . S
Cd14 O15 2.317 . S
O15 Cd14 2.317 . S
O15 C16 1.232 . S
C16 O15 1.232 . S
C16 O17 1.218 . S
O17 C16 1.218 . S
C18 O11 1.275 . S
C18 O13 1.255 . S
C19 O20 1.258 . S
C19 O21 1.256 . S
O20 Cd12 2.381 . S
O20 C19 1.258 . S
O21 Cd12 2.378 . S
O21 C19 1.256 . S
O22 Cd23 2.300 1_545 S
O22 C29 1.275 . S
Cd23 O22 2.300 1_565 S
Cd23 O31 2.381 1_565 S
Cd23 O32 2.378 . S
O24 Cd25 2.385 . S
O24 C29 1.255 1_565 S
Cd25 O24 2.385 . S
Cd25 O26 2.317 . S
O26 Cd25 2.317 . S
O26 C27 1.232 . S
C27 O26 1.232 . S
C27 O28 1.218 . S
O28 C27 1.218 . S
C29 O22 1.275 . S
C29 O24 1.255 1_545 S
C30 O31 1.258 1_565 S
C30 O32 1.256 . S
O31 Cd23 2.381 1_545 S
O31 C30 1.258 1_545 S
O32 Cd23 2.378 . S
O32 C30 1.256 . S
O33 Cd34 2.300 1_565 S
O33 C40 1.275 . S
Cd34 O33 2.300 1_545 S
Cd34 O42 2.381 1_545 S
Cd34 O43 2.378 . S
O35 Cd36 2.385 . S
O35 C40 1.255 1_545 S
Cd36 O35 2.385 . S
Cd36 O37 2.317 . S
O37 Cd36 2.317 . S
O37 C38 1.232 . S
C38 O37 1.232 . S
C38 O39 1.218 . S
O39 C38 1.218 . S
C40 O33 1.275 . S
C40 O35 1.255 1_565 S
C41 O42 1.258 1_545 S
C41 O43 1.256 . S
O42 Cd34 2.381 1_565 S
O42 C41 1.258 1_565 S
O43 Cd34 2.378 . S
O43 C41 1.256 . S
O44 Cd45 2.300 . S
O44 C51 1.275 . S
Cd45 O44 2.300 . S
Cd45 O53 2.381 . S
Cd45 O54 2.378 . S
O46 Cd47 2.385 . S
O46 C51 1.255 . S
Cd47 O46 2.385 . S
Cd47 O48 2.317 . S
O48 Cd47 2.317 . S
O48 C49 1.232 . S
C49 O48 1.232 . S
C49 O50 1.218 . S
O50 C49 1.218 . S
C51 O44 1.275 . S
C51 O46 1.255 . S
C52 O53 1.258 . S
C52 O54 1.256 . S
O53 Cd45 2.381 . S
O53 C52 1.258 . S
O54 Cd45 2.378 . S
O54 C52 1.256 . S
O55 Cd56 2.300 1_556 S
O55 C62 1.275 . S
Cd56 O55 2.300 1_554 S
Cd56 O64 2.381 1_554 S
Cd56 O65 2.378 . S
O57 Cd58 2.385 . S
O57 C62 1.255 1_554 S
Cd58 O57 2.385 . S
Cd58 O59 2.317 . S
O59 Cd58 2.317 . S
O59 C60 1.232 . S
C60 O59 1.232 . S
C60 O61 1.218 . S
O61 C60 1.218 . S
C62 O55 1.275 . S
C62 O57 1.255 1_556 S
C63 O64 1.258 1_554 S
C63 O65 1.256 . S
O64 Cd56 2.381 1_556 S
O64 C63 1.258 1_556 S
O65 Cd56 2.378 . S
O65 C63 1.256 . S
O66 Cd67 2.300 . S
O66 C73 1.275 . S
Cd67 O66 2.300 . S
Cd67 O75 2.381 . S
Cd67 O76 2.378 . S
O68 Cd69 2.385 . S
O68 C73 1.255 . S
Cd69 O68 2.385 . S
Cd69 O70 2.317 . S
O70 Cd69 2.317 . S
O70 C71 1.232 . S
C71 O70 1.232 . S
C71 O72 1.218 . S
O72 C71 1.218 . S
C73 O66 1.275 . S
C73 O68 1.255 . S
C74 O75 1.258 . S
C74 O76 1.256 . S
O75 Cd67 2.381 . S
O75 C74 1.258 . S
O76 Cd67 2.378 . S
O76 C74 1.256 . S
O77 Cd78 2.300 1_554 S
O77 C84 1.275 . S
Cd78 O77 2.300 1_556 S
Cd78 O86 2.381 1_556 S
Cd78 O87 2.378 . S
O79 Cd80 2.385 . S
O79 C84 1.255 1_556 S
Cd80 O79 2.385 . S
Cd80 O81 2.317 . S
O81 Cd80 2.317 . S
O81 C82 1.232 . S
C82 O81 1.232 . S
C82 O83 1.218 . S
O83 C82 1.218 . S
C84 O77 1.275 . S
C84 O79 1.255 1_554 S
C85 O86 1.258 1_556 S
C85 O87 1.256 . S
O86 Cd78 2.381 1_554 S
O86 C85 1.258 1_554 S
O87 Cd78 2.378 . S
O87 C85 1.256 . S
O88 Cd89 2.300 . S
O88 C95 1.275 . S
Cd89 O88 2.300 . S
Cd89 O97 2.381 . S
Cd89 O98 2.378 . S
O90 Cd91 2.385 . S
O90 C95 1.255 . S
Cd91 O90 2.385 . S
Cd91 O92 2.317 . S
O92 Cd91 2.317 . S
O92 C93 1.232 . S
C93 O92 1.232 . S
C93 O94 1.218 . S
O94 C93 1.218 . S
C95 O88 1.275 . S
C95 O90 1.255 . S
C96 O97 1.258 . S
C96 O98 1.256 . S
O97 Cd89 2.381 . S
O97 C96 1.258 . S
O98 Cd89 2.378 . S
O98 C96 1.256 . S
O99 Cd100 2.300 1_655 S
O99 C106 1.275 . S
Cd100 O99 2.300 1_455 S
Cd100 O108 2.381 1_455 S
Cd100 O109 2.378 . S
O101 Cd102 2.385 . S
O101 C106 1.255 1_455 S
Cd102 O101 2.385 . S
Cd102 O103 2.317 . S
O103 Cd102 2.317 . S
O103 C104 1.232 . S
C104 O103 1.232 . S
C104 O105 1.218 . S
O105 C104 1.218 . S
C106 O99 1.275 . S
C106 O101 1.255 1_655 S
C107 O108 1.258 1_455 S
C107 O109 1.256 . S
O108 Cd100 2.381 1_655 S
O108 C107 1.258 1_655 S
O109 Cd100 2.378 . S
O109 C107 1.256 . S
O110 Cd111 2.300 . S
O110 C117 1.275 . S
Cd111 O110 2.300 . S
Cd111 O119 2.381 . S
Cd111 O120 2.378 . S
O112 Cd113 2.385 . S
O112 C117 1.255 . S
Cd113 O112 2.385 . S
Cd113 O114 2.317 . S
O114 Cd113 2.317 . S
O114 C115 1.232 . S
C115 O114 1.232 . S
C115 O116 1.218 . S
O116 C115 1.218 . S
C117 O110 1.275 . S
C117 O112 1.255 . S
C118 O119 1.258 . S
C118 O120 1.256 . S
O119 Cd111 2.381 . S
O119 C118 1.258 . S
O120 Cd111 2.378 . S
O120 C118 1.256 . S
O121 Cd122 2.300 1_455 S
O121 C128 1.275 . S
Cd122 O121 2.300 1_655 S
Cd122 O130 2.381 1_655 S
Cd122 O131 2.378 . S
O123 Cd124 2.385 . S
O123 C128 1.255 1_655 S
Cd124 O123 2.385 . S
Cd124 O125 2.317 . S
O125 Cd124 2.317 . S
O125 C126 1.232 . S
C126 O125 1.232 . S
C126 O127 1.218 . S
O127 C126 1.218 . S
C128 O121 1.275 . S
C128 O123 1.255 1_455 S
C129 O130 1.258 1_655 S
C129 O131 1.256 . S
O130 Cd122 2.381 1_455 S
O130 C129 1.258 1_455 S
O131 Cd122 2.378 . S
O131 C129 1.256 . S
O132 Cd133 2.300 . S
O132 C139 1.275 . S
Cd133 O132 2.300 . S
Cd133 O141 2.381 . S
Cd133 O142 2.378 . S
O134 Cd135 2.385 . S
O134 C139 1.255 . S
Cd135 O134 2.385 . S
Cd135 O136 2.317 . S
O136 Cd135 2.317 . S
O136 C137 1.232 . S
C137 O136 1.232 . S
C137 O138 1.218 . S
O138 C137 1.218 . S
C139 O132 1.275 . S
C139 O134 1.255 . S
C140 O141 1.258 . S
C140 O142 1.256 . S
O141 Cd133 2.381 . S
O141 C140 1.258 . S
O142 Cd133 2.378 . S
O142 C140 1.256 . S
O143 Cd144 2.300 . S
O143 C150 1.275 . S
Cd144 O143 2.300 . S
Cd144 O152 2.381 . S
Cd144 O153 2.378 . S
O145 Cd146 2.385 . S
O145 C150 1.255 . S
Cd146 O145 2.385 . S
Cd146 O147 2.317 . S
O147 Cd146 2.317 . S
O147 C148 1.232 . S
C148 O147 1.232 . S
C148 O149 1.218 . S
O149 C148 1.218 . S
C150 O143 1.275 . S
C150 O145 1.255 . S
C151 O152 1.258 . S
C151 O153 1.256 . S
O152 Cd144 2.381 . S
O152 C151 1.258 . S
O153 Cd144 2.378 . S
O153 C151 1.256 . S
O154 Cd155 2.300 . S
O154 C161 1.275 . S
Cd155 O154 2.300 . S
Cd155 O163 2.381 1_565 S
Cd155 O164 2.378 . S
O156 Cd157 2.385 . S
O156 C161 1.255 . S
Cd157 O156 2.385 . S
Cd157 O158 2.317 . S
O158 Cd157 2.317 . S
O158 C159 1.232 . S
C159 O158 1.232 . S
C159 O160 1.218 . S
O160 C159 1.218 . S
C161 O154 1.275 . S
C161 O156 1.255 . S
C162 O163 1.258 . S
C162 O164 1.256 1_545 S
O163 Cd155 2.381 1_545 S
O163 C162 1.258 . S
O164 Cd155 2.378 . S
O164 C162 1.256 1_565 S
O165 Cd166 2.300 . S
O165 C172 1.275 . S
Cd166 O165 2.300 . S
Cd166 O174 2.381 1_545 S
Cd166 O175 2.378 . S
O167 Cd168 2.385 . S
O167 C172 1.255 . S
Cd168 O167 2.385 . S
Cd168 O169 2.317 . S
O169 Cd168 2.317 . S
O169 C170 1.232 . S
C170 O169 1.232 . S
C170 O171 1.218 . S
O171 C170 1.218 . S
C172 O165 1.275 . S
C172 O167 1.255 . S
C173 O174 1.258 . S
C173 O175 1.256 1_565 S
O174 Cd166 2.381 1_565 S
O174 C173 1.258 . S
O175 Cd166 2.378 . S
O175 C173 1.256 1_545 S
O176 Cd177 2.300 . S
O176 C183 1.275 . S
Cd177 O176 2.300 . S
Cd177 O185 2.381 . S
Cd177 O186 2.378 . S
O178 Cd179 2.385 . S
O178 C183 1.255 . S
Cd179 O178 2.385 . S
Cd179 O180 2.317 . S
O180 Cd179 2.317 . S
O180 C181 1.232 . S
C181 O180 1.232 . S
C181 O182 1.218 . S
O182 C181 1.218 . S
C183 O176 1.275 . S
C183 O178 1.255 . S
C184 O185 1.258 . S
C184 O186 1.256 . S
O185 Cd177 2.381 . S
O185 C184 1.258 . S
O186 Cd177 2.378 . S
O186 C184 1.256 . S
O187 Cd188 2.300 . S
O187 C194 1.275 . S
Cd188 O187 2.300 . S
Cd188 O196 2.381 1_554 S
Cd188 O197 2.378 . S
O189 Cd190 2.385 . S
O189 C194 1.255 . S
Cd190 O189 2.385 . S
Cd190 O191 2.317 . S
O191 Cd190 2.317 . S
O191 C192 1.232 . S
C192 O191 1.232 . S
C192 O193 1.218 . S
O193 C192 1.218 . S
C194 O187 1.275 . S
C194 O189 1.255 . S
C195 O196 1.258 . S
C195 O197 1.256 1_556 S
O196 Cd188 2.381 1_556 S
O196 C195 1.258 . S
O197 Cd188 2.378 . S
O197 C195 1.256 1_554 S
O198 Cd199 2.300 . S
O198 C205 1.275 . S
Cd199 O198 2.300 . S
Cd199 O207 2.381 . S
Cd199 O208 2.378 . S
O200 Cd201 2.385 . S
O200 C205 1.255 . S
Cd201 O200 2.385 . S
Cd201 O202 2.317 . S
O202 Cd201 2.317 . S
O202 C203 1.232 . S
C203 O202 1.232 . S
C203 O204 1.218 . S
O204 C203 1.218 . S
C205 O198 1.275 . S
C205 O200 1.255 . S
C206 O207 1.258 . S
C206 O208 1.256 . S
O207 Cd199 2.381 . S
O207 C206 1.258 . S
O208 Cd199 2.378 . S
O208 C206 1.256 . S
O209 Cd210 2.300 . S
O209 C216 1.275 . S
Cd210 O209 2.300 . S
Cd210 O218 2.381 1_556 S
Cd210 O219 2.378 . S
O211 Cd212 2.385 . S
O211 C216 1.255 . S
Cd212 O211 2.385 . S
Cd212 O213 2.317 . S
O213 Cd212 2.317 . S
O213 C214 1.232 . S
C214 O213 1.232 . S
C214 O215 1.218 . S
O215 C214 1.218 . S
C216 O209 1.275 . S
C216 O211 1.255 . S
C217 O218 1.258 . S
C217 O219 1.256 1_554 S
O218 Cd210 2.381 1_554 S
O218 C217 1.258 . S
O219 Cd210 2.378 . S
O219 C217 1.256 1_556 S
O220 Cd221 2.300 . S
O220 C227 1.275 . S
Cd221 O220 2.300 . S
Cd221 O229 2.381 . S
Cd221 O230 2.378 . S
O222 Cd223 2.385 . S
O222 C227 1.255 . S
Cd223 O222 2.385 . S
Cd223 O224 2.317 . S
O224 Cd223 2.317 . S
O224 C225 1.232 . S
C225 O224 1.232 . S
C225 O226 1.218 . S
O226 C225 1.218 . S
C227 O220 1.275 . S
C227 O222 1.255 . S
C228 O229 1.258 . S
C228 O230 1.256 . S
O229 Cd221 2.381 . S
O229 C228 1.258 . S
O230 Cd221 2.378 . S
O230 C228 1.256 . S
O231 Cd232 2.300 . S
O231 C238 1.275 . S
Cd232 O231 2.300 . S
Cd232 O240 2.381 1_455 S
Cd232 O241 2.378 . S
O233 Cd234 2.385 . S
O233 C238 1.255 . S
Cd234 O233 2.385 . S
Cd234 O235 2.317 . S
O235 Cd234 2.317 . S
O235 C236 1.232 . S
C236 O235 1.232 . S
C236 O237 1.218 . S
O237 C236 1.218 . S
C238 O231 1.275 . S
C238 O233 1.255 . S
C239 O240 1.258 . S
C239 O241 1.256 1_655 S
O240 Cd232 2.381 1_655 S
O240 C239 1.258 . S
O241 Cd232 2.378 . S
O241 C239 1.256 1_455 S
O242 Cd243 2.300 . S
O242 C249 1.275 . S
Cd243 O242 2.300 . S
Cd243 O251 2.381 . S
Cd243 O252 2.378 . S
O244 Cd245 2.385 . S
O244 C249 1.255 . S
Cd245 O244 2.385 . S
Cd245 O246 2.317 . S
O246 Cd245 2.317 . S
O246 C247 1.232 . S
C247 O246 1.232 . S
C247 O248 1.218 . S
O248 C247 1.218 . S
C249 O242 1.275 . S
C249 O244 1.255 . S
C250 O251 1.258 . S
C250 O252 1.256 . S
O251 Cd243 2.381 . S
O251 C250 1.258 . S
O252 Cd243 2.378 . S
O252 C250 1.256 . S
O253 Cd254 2.300 . S
O253 C260 1.275 . S
Cd254 O253 2.300 . S
Cd254 O262 2.381 1_655 S
Cd254 O263 2.378 . S
O255 Cd256 2.385 . S
O255 C260 1.255 . S
Cd256 O255 2.385 . S
Cd256 O257 2.317 . S
O257 Cd256 2.317 . S
O257 C258 1.232 . S
C258 O257 1.232 . S
C258 O259 1.218 . S
O259 C258 1.218 . S
C260 O253 1.275 . S
C260 O255 1.255 . S
C261 O262 1.258 . S
C261 O263 1.256 1_455 S
O262 Cd254 2.381 1_455 S
O262 C261 1.258 . S
O263 Cd254 2.378 . S
O263 C261 1.256 1_655 S
H264 C265 0.949 . S
C265 H264 0.949 . S
C265 C266 1.395 . S
C265 C267 1.391 . S
C266 C265 1.395 . S
C266 C269 1.390 . S
C267 C265 1.391 . S
C267 C271 1.387 . S
C267 C272 1.491 . S
H268 C269 0.950 . S
C269 C266 1.390 . S
C269 H268 0.950 . S
C269 C270 1.378 . S
C270 C269 1.378 . S
C270 C271 1.409 . S
C271 C267 1.387 . S
C271 C270 1.409 . S
C271 H273 0.951 . S
C272 C267 1.491 . S
C272 C274 1.382 . S
C272 C276 1.404 . S
H273 C271 0.951 . S
C274 C272 1.382 . S
C274 C275 1.390 . S
C274 H279 0.949 . S
C275 C274 1.390 . S
C275 C280 1.399 . S
C276 C272 1.404 . S
C276 H277 0.950 . S
C276 C278 1.375 . S
H277 C276 0.950 . S
C278 C276 1.375 . S
C278 C280 1.382 . S
C278 H282 0.950 . S
H279 C274 0.949 . S
C280 C275 1.399 . S
C280 C278 1.382 . S
C280 H281 0.952 . S
H281 C280 0.952 . S
H282 C278 0.950 . S
H283 C284 0.949 . S
C284 H283 0.949 . S
C284 C285 1.395 . S
C284 C286 1.391 . S
C285 C284 1.395 . S
C285 C288 1.390 . S
C286 C284 1.391 . S
C286 C290 1.387 1_556 S
C286 C291 1.491 1_556 S
H287 C288 0.950 . S
C288 C285 1.390 . S
C288 H287 0.950 . S
C288 C289 1.378 . S
C289 C288 1.378 . S
C289 C290 1.409 1_556 S
C290 C286 1.387 1_554 S
C290 C289 1.409 1_554 S
C290 H292 0.951 . S
C291 C286 1.491 1_554 S
C291 C293 1.382 1_554 S
C291 C295 1.404 . S
H292 C290 0.951 . S
C293 C291 1.382 1_556 S
C293 C294 1.390 1_556 S
C293 H298 0.949 . S
C294 C293 1.390 1_554 S
C294 C299 1.399 . S
C295 C291 1.404 . S
C295 H296 0.950 . S
C295 C297 1.375 . S
H296 C295 0.950 . S
C297 C295 1.375 . S
C297 C299 1.382 . S
C297 H301 0.950 . S
H298 C293 0.949 . S
C299 C294 1.399 . S
C299 C297 1.382 . S
C299 H300 0.952 . S
H300 C299 0.952 . S
H301 C297 0.950 . S
H302 C303 0.949 . S
C303 H302 0.949 . S
C303 C304 1.395 . S
C303 C305 1.391 . S
C304 C303 1.395 . S
C304 C307 1.390 . S
C305 C303 1.391 . S
C305 C309 1.387 . S
C305 C310 1.491 . S
H306 C307 0.950 . S
C307 C304 1.390 . S
C307 H306 0.950 . S
C307 C308 1.378 . S
C308 C307 1.378 . S
C308 C309 1.409 . S
C309 C305 1.387 . S
C309 C308 1.409 . S
C309 H311 0.951 . S
C310 C305 1.491 . S
C310 C312 1.382 . S
C310 C314 1.404 . S
H311 C309 0.951 . S
C312 C310 1.382 . S
C312 C313 1.390 . S
C312 H317 0.949 . S
C313 C312 1.390 . S
C313 C318 1.399 . S
C314 C310 1.404 . S
C314 H315 0.950 . S
C314 C316 1.375 . S
H315 C314 0.950 . S
C316 C314 1.375 . S
C316 C318 1.382 . S
C316 H320 0.950 . S
H317 C312 0.949 . S
C318 C313 1.399 . S
C318 C316 1.382 . S
C318 H319 0.952 . S
H319 C318 0.952 . S
H320 C316 0.950 . S
H321 C322 0.949 . S
C322 H321 0.949 . S
C322 C323 1.395 . S
C322 C324 1.391 . S
C323 C322 1.395 . S
C323 C326 1.390 . S
C324 C322 1.391 . S
C324 C328 1.387 1_554 S
C324 C329 1.491 1_554 S
H325 C326 0.950 . S
C326 C323 1.390 . S
C326 H325 0.950 . S
C326 C327 1.378 . S
C327 C326 1.378 . S
C327 C328 1.409 1_554 S
C328 C324 1.387 1_556 S
C328 C327 1.409 1_556 S
C328 H330 0.951 . S
C329 C324 1.491 1_556 S
C329 C331 1.382 1_556 S
C329 C333 1.404 . S
H330 C328 0.951 . S
C331 C329 1.382 1_554 S
C331 C332 1.390 1_554 S
C331 H336 0.949 . S
C332 C331 1.390 1_556 S
C332 C337 1.399 . S
C333 C329 1.404 . S
C333 H334 0.950 . S
C333 C335 1.375 . S
H334 C333 0.950 . S
C335 C333 1.375 . S
C335 C337 1.382 . S
C335 H339 0.950 . S
H336 C331 0.949 . S
C337 C332 1.399 . S
C337 C335 1.382 . S
C337 H338 0.952 . S
H338 C337 0.952 . S
H339 C335 0.950 . S
H340 C341 0.949 . S
C341 H340 0.949 . S
C341 C342 1.395 . S
C341 C343 1.391 . S
C342 C341 1.395 . S
C342 C345 1.390 . S
C343 C341 1.391 . S
C343 C347 1.387 . S
C343 C348 1.491 . S
H344 C345 0.950 . S
C345 C342 1.390 . S
C345 H344 0.950 . S
C345 C346 1.378 . S
C346 C345 1.378 . S
C346 C347 1.409 . S
C347 C343 1.387 . S
C347 C346 1.409 . S
C347 H349 0.951 . S
C348 C343 1.491 . S
C348 C350 1.382 . S
C348 C352 1.404 . S
H349 C347 0.951 . S
C350 C348 1.382 . S
C350 C351 1.390 . S
C350 H355 0.949 . S
C351 C350 1.390 . S
C351 C356 1.399 . S
C352 C348 1.404 . S
C352 H353 0.950 . S
C352 C354 1.375 . S
H353 C352 0.950 . S
C354 C352 1.375 . S
C354 C356 1.382 . S
C354 H358 0.950 . S
H355 C350 0.949 . S
C356 C351 1.399 . S
C356 C354 1.382 . S
C356 H357 0.952 . S
H357 C356 0.952 . S
H358 C354 0.950 . S
H359 C360 0.949 . S
C360 H359 0.949 . S
C360 C361 1.395 . S
C360 C362 1.391 . S
C361 C360 1.395 . S
C361 C364 1.390 . S
C362 C360 1.391 . S
C362 C366 1.387 1_455 S
C362 C367 1.491 1_455 S
H363 C364 0.950 . S
C364 C361 1.390 . S
C364 H363 0.950 . S
C364 C365 1.378 . S
C365 C364 1.378 . S
C365 C366 1.409 1_455 S
C366 C362 1.387 1_655 S
C366 C365 1.409 1_655 S
C366 H368 0.951 . S
C367 C362 1.491 1_655 S
C367 C369 1.382 1_655 S
C367 C371 1.404 . S
H368 C366 0.951 . S
C369 C367 1.382 1_455 S
C369 C370 1.390 1_455 S
C369 H374 0.949 . S
C370 C369 1.390 1_655 S
C370 C375 1.399 . S
C371 C367 1.404 . S
C371 H372 0.950 . S
C371 C373 1.375 . S
H372 C371 0.950 . S
C373 C371 1.375 . S
C373 C375 1.382 . S
C373 H377 0.950 . S
H374 C369 0.949 . S
C375 C370 1.399 . S
C375 C373 1.382 . S
C375 H376 0.952 . S
H376 C375 0.952 . S
H377 C373 0.950 . S
H378 C379 0.949 . S
C379 H378 0.949 . S
C379 C380 1.395 . S
C379 C381 1.391 . S
C380 C379 1.395 . S
C380 C383 1.390 . S
C381 C379 1.391 . S
C381 C385 1.387 1_655 S
C381 C386 1.491 1_655 S
H382 C383 0.950 . S
C383 C380 1.390 . S
C383 H382 0.950 . S
C383 C384 1.378 . S
C384 C383 1.378 . S
C384 C385 1.409 1_655 S
C385 C381 1.387 1_455 S
C385 C384 1.409 1_455 S
C385 H387 0.951 . S
C386 C381 1.491 1_455 S
C386 C388 1.382 1_455 S
C386 C390 1.404 . S
H387 C385 0.951 . S
C388 C386 1.382 1_655 S
C388 C389 1.390 1_655 S
C388 H393 0.949 . S
C389 C388 1.390 1_455 S
C389 C394 1.399 . S
C390 C386 1.404 . S
C390 H391 0.950 . S
C390 C392 1.375 . S
H391 C390 0.950 . S
C392 C390 1.375 . S
C392 C394 1.382 . S
C392 H396 0.950 . S
H393 C388 0.949 . S
C394 C389 1.399 . S
C394 C392 1.382 . S
C394 H395 0.952 . S
H395 C394 0.952 . S
H396 C392 0.950 . S
H397 C398 0.949 . S
C398 H397 0.949 . S
C398 C399 1.395 . S
C398 C400 1.391 . S
C399 C398 1.395 . S
C399 C402 1.390 . S
C400 C398 1.391 . S
C400 C404 1.387 . S
C400 C405 1.491 . S
H401 C402 0.950 . S
C402 C399 1.390 . S
C402 H401 0.950 . S
C402 C403 1.378 . S
C403 C402 1.378 . S
C403 C404 1.409 . S
C404 C400 1.387 . S
C404 C403 1.409 . S
C404 H406 0.951 . S
C405 C400 1.491 . S
C405 C407 1.382 . S
C405 C409 1.404 . S
H406 C404 0.951 . S
C407 C405 1.382 . S
C407 C408 1.390 . S
C407 H412 0.949 . S
C408 C407 1.390 . S
C408 C413 1.399 . S
C409 C405 1.404 . S
C409 H410 0.950 . S
C409 C411 1.375 . S
H410 C409 0.950 . S
C411 C409 1.375 . S
C411 C413 1.382 . S
C411 H415 0.950 . S
H412 C407 0.949 . S
C413 C408 1.399 . S
C413 C411 1.382 . S
C413 H414 0.952 . S
H414 C413 0.952 . S
H415 C411 0.950 . S
H416 C417 0.949 . S
C417 H416 0.949 . S
C417 C418 1.395 . S
C417 C419 1.391 . S
C418 C417 1.395 . S
C418 C421 1.390 . S
C419 C417 1.391 . S
C419 C423 1.387 . S
C419 C424 1.491 . S
H420 C421 0.950 . S
C421 C418 1.390 . S
C421 H420 0.950 . S
C421 C422 1.378 . S
C422 C421 1.378 . S
C422 C423 1.409 . S
C423 C419 1.387 . S
C423 C422 1.409 . S
C423 H425 0.951 . S
C424 C419 1.491 . S
C424 C426 1.382 . S
C424 C428 1.404 . S
H425 C423 0.951 . S
C426 C424 1.382 . S
C426 C427 1.390 . S
C426 H431 0.949 . S
C427 C426 1.390 . S
C427 C432 1.399 . S
C428 C424 1.404 . S
C428 H429 0.950 . S
C428 C430 1.375 . S
H429 C428 0.950 . S
C430 C428 1.375 . S
C430 C432 1.382 . S
C430 H434 0.950 . S
H431 C426 0.949 . S
C432 C427 1.399 . S
C432 C430 1.382 . S
C432 H433 0.952 . S
H433 C432 0.952 . S
H434 C430 0.950 . S
H435 C436 0.949 . S
C436 H435 0.949 . S
C436 C437 1.395 . S
C436 C438 1.391 . S
C437 C436 1.395 . S
C437 C440 1.390 . S
C438 C436 1.391 . S
C438 C442 1.387 1_545 S
C438 C443 1.491 1_545 S
H439 C440 0.950 . S
C440 C437 1.390 . S
C440 H439 0.950 . S
C440 C441 1.378 . S
C441 C440 1.378 . S
C441 C442 1.409 1_545 S
C442 C438 1.387 1_565 S
C442 C441 1.409 1_565 S
C442 H444 0.951 . S
C443 C438 1.491 1_565 S
C443 C445 1.382 1_565 S
C443 C447 1.404 . S
H444 C442 0.951 . S
C445 C443 1.382 1_545 S
C445 C446 1.390 1_545 S
C445 H450 0.949 . S
C446 C445 1.390 1_565 S
C446 C451 1.399 . S
C447 C443 1.404 . S
C447 H448 0.950 . S
C447 C449 1.375 . S
H448 C447 0.950 . S
C449 C447 1.375 . S
C449 C451 1.382 . S
C449 H453 0.950 . S
H450 C445 0.949 . S
C451 C446 1.399 . S
C451 C449 1.382 . S
C451 H452 0.952 . S
H452 C451 0.952 . S
H453 C449 0.950 . S
H454 C455 0.949 . S
C455 H454 0.949 . S
C455 C456 1.395 . S
C455 C457 1.391 . S
C456 C455 1.395 . S
C456 C459 1.390 . S
C457 C455 1.391 . S
C457 C461 1.387 1_565 S
C457 C462 1.491 1_565 S
H458 C459 0.950 . S
C459 C456 1.390 . S
C459 H458 0.950 . S
C459 C460 1.378 . S
C460 C459 1.378 . S
C460 C461 1.409 1_565 S
C461 C457 1.387 1_545 S
C461 C460 1.409 1_545 S
C461 H463 0.951 . S
C462 C457 1.491 1_545 S
C462 C464 1.382 1_545 S
C462 C466 1.404 . S
H463 C461 0.951 . S
C464 C462 1.382 1_565 S
C464 C465 1.390 1_565 S
C464 H469 0.949 . S
C465 C464 1.390 1_545 S
C465 C470 1.399 . S
C466 C462 1.404 . S
C466 H467 0.950 . S
C466 C468 1.375 . S
H467 C466 0.950 . S
C468 C466 1.375 . S
C468 C470 1.382 . S
C468 H472 0.950 . S
H469 C464 0.949 . S
C470 C465 1.399 . S
C470 C468 1.382 . S
C470 H471 0.952 . S
H471 C470 0.952 . S
H472 C468 0.950 . S
H473 C474 0.949 . S
C474 H473 0.949 . S
C474 C475 1.395 . S
C474 C476 1.391 . S
C475 C474 1.395 . S
C475 C478 1.390 . S
C476 C474 1.391 . S
C476 C480 1.387 . S
C476 C481 1.491 . S
H477 C478 0.950 . S
C478 C475 1.390 . S
C478 H477 0.950 . S
C478 C479 1.378 . S
C479 C478 1.378 . S
C479 C480 1.409 . S
C480 C476 1.387 . S
C480 C479 1.409 . S
C480 H482 0.951 . S
C481 C476 1.491 . S
C481 C483 1.382 . S
C481 C485 1.404 . S
H482 C480 0.951 . S
C483 C481 1.382 . S
C483 C484 1.390 . S
C483 H488 0.949 . S
C484 C483 1.390 . S
C484 C489 1.399 . S
C485 C481 1.404 . S
C485 H486 0.950 . S
C485 C487 1.375 . S
H486 C485 0.950 . S
C487 C485 1.375 . S
C487 C489 1.382 . S
C487 H491 0.950 . S
H488 C483 0.949 . S
C489 C484 1.399 . S
C489 C487 1.382 . S
C489 H490 0.952 . S
H490 C489 0.952 . S
H491 C487 0.950 . S
H492 C493 0.949 . S
C493 H492 0.949 . S
C493 C494 1.395 . S
C493 C495 1.391 . S
C494 C493 1.395 . S
C494 C497 1.390 . S
C495 C493 1.391 . S
C495 C499 1.387 . S
C495 C500 1.491 . S
H496 C497 0.950 . S
C497 C494 1.390 . S
C497 H496 0.950 . S
C497 C498 1.378 . S
C498 C497 1.378 . S
C498 C499 1.409 . S
C499 C495 1.387 . S
C499 C498 1.409 . S
C499 H501 0.951 . S
C500 C495 1.491 . S
C500 C502 1.382 . S
C500 C504 1.404 . S
H501 C499 0.951 . S
C502 C500 1.382 . S
C502 C503 1.390 . S
C502 H507 0.949 . S
C503 C502 1.390 . S
C503 C508 1.399 . S
C504 C500 1.404 . S
C504 H505 0.950 . S
C504 C506 1.375 . S
H505 C504 0.950 . S
C506 C504 1.375 . S
C506 C508 1.382 . S
C506 H510 0.950 . S
H507 C502 0.949 . S
C508 C503 1.399 . S
C508 C506 1.382 . S
C508 H509 0.952 . S
H509 C508 0.952 . S
H510 C506 0.950 . S
H511 C512 0.949 . S
C512 H511 0.949 . S
C512 C513 1.395 . S
C512 C514 1.391 . S
C513 C512 1.395 . S
C513 C516 1.390 . S
C514 C512 1.391 . S
C514 C518 1.387 1_554 S
C514 C519 1.488 1_554 S
H515 C516 0.950 . S
C516 C513 1.390 . S
C516 H515 0.950 . S
C516 C517 1.378 . S
C517 C516 1.378 . S
C517 C518 1.409 1_554 S
C518 C514 1.387 1_556 S
C518 C517 1.409 1_556 S
C518 H520 0.951 . S
C519 C514 1.488 1_556 S
C519 C521 1.379 1_556 S
C519 C523 1.409 . S
H520 C518 0.951 . S
C521 C519 1.379 1_554 S
C521 C522 1.390 1_554 S
C521 H526 0.949 . S
C522 C521 1.390 1_556 S
C522 C527 1.399 . S
C523 C519 1.409 . S
C523 H524 0.950 . S
C523 C525 1.375 . S
H524 C523 0.950 . S
C525 C523 1.375 . S
C525 C527 1.382 . S
C525 H529 0.950 . S
H526 C521 0.949 . S
C527 C522 1.399 . S
C527 C525 1.382 . S
C527 H528 0.952 . S
H528 C527 0.952 . S
H529 C525 0.950 . S
H530 C531 0.949 . S
C531 H530 0.949 . S
C531 C532 1.395 . S
C531 C533 1.391 . S
C532 C531 1.395 . S
C532 C535 1.390 . S
C533 C531 1.391 . S
C533 C537 1.387 . S
C533 C538 1.491 . S
H534 C535 0.950 . S
C535 C532 1.390 . S
C535 H534 0.950 . S
C535 C536 1.378 . S
C536 C535 1.378 . S
C536 C537 1.409 . S
C537 C533 1.387 . S
C537 C536 1.409 . S
C537 H539 0.951 . S
C538 C533 1.491 . S
C538 C540 1.382 . S
C538 C542 1.404 . S
H539 C537 0.951 . S
C540 C538 1.382 . S
C540 C541 1.390 . S
C540 H545 0.949 . S
C541 C540 1.390 . S
C541 C546 1.399 . S
C542 C538 1.404 . S
C542 H543 0.950 . S
C542 C544 1.375 . S
H543 C542 0.950 . S
C544 C542 1.375 . S
C544 C546 1.382 . S
C544 H548 0.950 . S
H545 C540 0.949 . S
C546 C541 1.399 . S
C546 C544 1.382 . S
C546 H547 0.952 . S
H547 C546 0.952 . S
H548 C544 0.950 . S
H549 C550 0.949 . S
C550 H549 0.949 . S
C550 C551 1.395 . S
C550 C552 1.391 . S
C551 C550 1.395 . S
C551 C554 1.390 . S
C552 C550 1.391 . S
C552 C556 1.387 1_556 S
C552 C557 1.486 1_556 S
H553 C554 0.950 . S
C554 C551 1.390 . S
C554 H553 0.950 . S
C554 C555 1.378 . S
C555 C554 1.378 . S
C555 C556 1.409 1_556 S
C556 C552 1.387 1_554 S
C556 C555 1.409 1_554 S
C556 H558 0.951 . S
C557 C552 1.486 1_554 S
C557 C559 1.380 1_554 S
C557 C561 1.410 . S
H558 C556 0.951 . S
C559 C557 1.380 1_556 S
C559 C560 1.390 1_556 S
C559 H564 0.949 . S
C560 C559 1.390 1_554 S
C560 C565 1.399 . S
C561 C557 1.410 . S
C561 H562 0.950 . S
C561 C563 1.375 . S
H562 C561 0.950 . S
C563 C561 1.375 . S
C563 C565 1.382 . S
C563 H567 0.950 . S
H564 C559 0.949 . S
C565 C560 1.399 . S
C565 C563 1.382 . S
C565 H566 0.952 . S
H566 C565 0.952 . S
H567 C563 0.950 . S
H568 C569 0.949 . S
C569 H568 0.949 . S
C569 C570 1.395 . S
C569 C571 1.391 . S
C570 C569 1.395 . S
C570 C573 1.390 . S
C571 C569 1.391 . S
C571 C575 1.387 . S
C571 C576 1.491 . S
H572 C573 0.950 . S
C573 C570 1.390 . S
C573 H572 0.950 . S
C573 C574 1.378 . S
C574 C573 1.378 . S
C574 C575 1.409 . S
C575 C571 1.387 . S
C575 C574 1.409 . S
C575 H577 0.951 . S
C576 C571 1.491 . S
C576 C578 1.382 . S
C576 C580 1.404 . S
H577 C575 0.951 . S
C578 C576 1.382 . S
C578 C579 1.390 . S
C578 H583 0.949 . S
C579 C578 1.390 . S
C579 C584 1.399 . S
C580 C576 1.404 . S
C580 H581 0.950 . S
C580 C582 1.375 . S
H581 C580 0.950 . S
C582 C580 1.375 . S
C582 C584 1.382 . S
C582 H586 0.950 . S
H583 C578 0.949 . S
C584 C579 1.399 . S
C584 C582 1.382 . S
C584 H585 0.952 . S
H585 C584 0.952 . S
H586 C582 0.950 . S
H587 C588 0.949 . S
C588 H587 0.949 . S
C588 C589 1.395 . S
C588 C590 1.391 . S
C589 C588 1.395 . S
C589 C592 1.390 . S
C590 C588 1.391 . S
C590 C594 1.387 1_655 S
C590 C595 1.486 1_655 S
H591 C592 0.950 . S
C592 C589 1.390 . S
C592 H591 0.950 . S
C592 C593 1.378 . S
C593 C592 1.378 . S
C593 C594 1.409 1_655 S
C594 C590 1.387 1_455 S
C594 C593 1.409 1_455 S
C594 H596 0.951 . S
C595 C590 1.486 1_455 S
C595 C597 1.380 1_455 S
C595 C599 1.410 . S
H596 C594 0.951 . S
C597 C595 1.380 1_655 S
C597 C598 1.390 1_655 S
C597 H602 0.949 . S
C598 C597 1.390 1_455 S
C598 C603 1.399 . S
C599 C595 1.410 . S
C599 H600 0.950 . S
C599 C601 1.375 . S
H600 C599 0.950 . S
C601 C599 1.375 . S
C601 C603 1.382 . S
C601 H605 0.950 . S
H602 C597 0.949 . S
C603 C598 1.399 . S
C603 C601 1.382 . S
C603 H604 0.952 . S
H604 C603 0.952 . S
H605 C601 0.950 . S
H606 C607 0.949 . S
C607 H606 0.949 . S
C607 C608 1.395 . S
C607 C609 1.391 . S
C608 C607 1.395 . S
C608 C611 1.390 . S
C609 C607 1.391 . S
C609 C613 1.387 1_455 S
C609 C614 1.488 1_455 S
H610 C611 0.950 . S
C611 C608 1.390 . S
C611 H610 0.950 . S
C611 C612 1.378 . S
C612 C611 1.378 . S
C612 C613 1.409 1_455 S
C613 C609 1.387 1_655 S
C613 C612 1.409 1_655 S
C613 H615 0.951 . S
C614 C609 1.488 1_655 S
C614 C616 1.379 1_655 S
C614 C618 1.409 . S
H615 C613 0.951 . S
C616 C614 1.379 1_455 S
C616 C617 1.390 1_455 S
C616 H621 0.949 . S
C617 C616 1.390 1_655 S
C617 C622 1.399 . S
C618 C614 1.409 . S
C618 H619 0.950 . S
C618 C620 1.375 . S
H619 C618 0.950 . S
C620 C618 1.375 . S
C620 C622 1.382 . S
C620 H624 0.950 . S
H621 C616 0.949 . S
C622 C617 1.399 . S
C622 C620 1.382 . S
C622 H623 0.952 . S
H623 C622 0.952 . S
H624 C620 0.950 . S
H625 C626 0.949 . S
C626 H625 0.949 . S
C626 C627 1.395 . S
C626 C628 1.391 . S
C627 C626 1.395 . S
C627 C630 1.390 . S
C628 C626 1.391 . S
C628 C632 1.387 . S
C628 C633 1.491 . S
H629 C630 0.950 . S
C630 C627 1.390 . S
C630 H629 0.950 . S
C630 C631 1.378 . S
C631 C630 1.378 . S
C631 C632 1.409 . S
C632 C628 1.387 . S
C632 C631 1.409 . S
C632 H634 0.951 . S
C633 C628 1.491 . S
C633 C635 1.382 . S
C633 C637 1.404 . S
H634 C632 0.951 . S
C635 C633 1.382 . S
C635 C636 1.390 . S
C635 H640 0.949 . S
C636 C635 1.390 . S
C636 C641 1.399 . S
C637 C633 1.404 . S
C637 H638 0.950 . S
C637 C639 1.375 . S
H638 C637 0.950 . S
C639 C637 1.375 . S
C639 C641 1.382 . S
C639 H643 0.950 . S
H640 C635 0.949 . S
C641 C636 1.399 . S
C641 C639 1.382 . S
C641 H642 0.952 . S
H642 C641 0.952 . S
H643 C639 0.950 . S
H644 C645 0.949 . S
C645 H644 0.949 . S
C645 C646 1.395 . S
C645 C647 1.391 . S
C646 C645 1.395 . S
C646 C649 1.390 . S
C647 C645 1.391 . S
C647 C651 1.387 . S
C647 C652 1.491 . S
H648 C649 0.950 . S
C649 C646 1.390 . S
C649 H648 0.950 . S
C649 C650 1.378 . S
C650 C649 1.378 . S
C650 C651 1.409 . S
C651 C647 1.387 . S
C651 C650 1.409 . S
C651 H653 0.951 . S
C652 C647 1.491 . S
C652 C654 1.382 . S
C652 C656 1.404 . S
H653 C651 0.951 . S
C654 C652 1.382 . S
C654 C655 1.390 . S
C654 H659 0.949 . S
C655 C654 1.390 . S
C655 C660 1.399 . S
C656 C652 1.404 . S
C656 H657 0.950 . S
C656 C658 1.375 . S
H657 C656 0.950 . S
C658 C656 1.375 . S
C658 C660 1.382 . S
C658 H662 0.950 . S
H659 C654 0.949 . S
C660 C655 1.399 . S
C660 C658 1.382 . S
C660 H661 0.952 . S
H661 C660 0.952 . S
H662 C658 0.950 . S
H663 C664 0.949 . S
C664 H663 0.949 . S
C664 C665 1.395 . S
C664 C666 1.391 . S
C665 C664 1.395 . S
C665 C668 1.390 . S
C666 C664 1.391 . S
C666 C670 1.387 1_565 S
C666 C671 1.486 1_565 S
H667 C668 0.950 . S
C668 C665 1.390 . S
C668 H667 0.950 . S
C668 C669 1.378 . S
C669 C668 1.378 . S
C669 C670 1.409 1_565 S
C670 C666 1.387 1_545 S
C670 C669 1.409 1_545 S
C670 H672 0.951 . S
C671 C666 1.486 1_545 S
C671 C673 1.380 1_545 S
C671 C675 1.410 . S
H672 C670 0.951 . S
C673 C671 1.380 1_565 S
C673 C674 1.390 1_565 S
C673 H678 0.949 . S
C674 C673 1.390 1_545 S
C674 C679 1.399 . S
C675 C671 1.410 . S
C675 H676 0.950 . S
C675 C677 1.375 . S
H676 C675 0.950 . S
C677 C675 1.375 . S
C677 C679 1.382 . S
C677 H681 0.950 . S
H678 C673 0.949 . S
C679 C674 1.399 . S
C679 C677 1.382 . S
C679 H680 0.952 . S
H680 C679 0.952 . S
H681 C677 0.950 . S
H682 C683 0.949 . S
C683 H682 0.949 . S
C683 C684 1.395 . S
C683 C685 1.391 . S
C684 C683 1.395 . S
C684 C687 1.390 . S
C685 C683 1.391 . S
C685 C689 1.387 1_545 S
C685 C690 1.488 1_545 S
H686 C687 0.950 . S
C687 C684 1.390 . S
C687 H686 0.950 . S
C687 C688 1.378 . S
C688 C687 1.378 . S
C688 C689 1.409 1_545 S
C689 C685 1.387 1_565 S
C689 C688 1.409 1_565 S
C689 H691 0.951 . S
C690 C685 1.488 1_565 S
C690 C692 1.379 1_565 S
C690 C694 1.409 . S
H691 C689 0.951 . S
C692 C690 1.379 1_545 S
C692 C693 1.390 1_545 S
C692 H697 0.949 . S
C693 C692 1.390 1_565 S
C693 C698 1.399 . S
C694 C690 1.409 . S
C694 H695 0.950 . S
C694 C696 1.375 . S
H695 C694 0.950 . S
C696 C694 1.375 . S
C696 C698 1.382 . S
C696 H700 0.950 . S
H697 C692 0.949 . S
C698 C693 1.399 . S
C698 C696 1.382 . S
C698 H699 0.952 . S
H699 C698 0.952 . S
H700 C696 0.950 . S
H701 C702 0.949 . S
C702 H701 0.949 . S
C702 C703 1.395 . S
C702 C704 1.391 . S
C703 C702 1.395 . S
C703 C706 1.390 . S
C704 C702 1.391 . S
C704 C708 1.387 . S
C704 C709 1.491 . S
H705 C706 0.950 . S
C706 C703 1.390 . S
C706 H705 0.950 . S
C706 C707 1.378 . S
C707 C706 1.378 . S
C707 C708 1.409 . S
C708 C704 1.387 . S
C708 C707 1.409 . S
C708 H710 0.951 . S
C709 C704 1.491 . S
C709 C711 1.382 . S
C709 C713 1.404 . S
H710 C708 0.951 . S
C711 C709 1.382 . S
C711 C712 1.390 . S
C711 H716 0.949 . S
C712 C711 1.390 . S
C712 C717 1.399 . S
C713 C709 1.404 . S
C713 H714 0.950 . S
C713 C715 1.375 . S
H714 C713 0.950 . S
C715 C713 1.375 . S
C715 C717 1.382 . S
C715 H719 0.950 . S
H716 C711 0.949 . S
C717 C712 1.399 . S
C717 C715 1.382 . S
C717 H718 0.952 . S
H718 C717 0.952 . S
H719 C715 0.950 . S
C720 C721 1.387 . S
C720 H724 0.950 . S
C720 C729 1.390 . S
C721 C720 1.387 . S
C721 C723 1.387 . S
H722 C729 0.950 . S
C723 C721 1.387 . S
C723 C725 1.390 . S
C723 H727 0.950 . S
H724 C720 0.950 . S
C725 C723 1.390 . S
C725 C726 1.387 . S
C725 H728 0.950 . S
C726 C725 1.387 . S
C726 C729 1.387 . S
H727 C723 0.950 . S
H728 C725 0.950 . S
C729 C720 1.390 . S
C729 H722 0.950 . S
C729 C726 1.387 . S
C730 C731 1.387 . S
C730 H734 0.950 . S
C730 C739 1.390 . S
C731 C730 1.387 . S
C731 C733 1.387 . S
H732 C739 0.950 . S
C733 C731 1.387 . S
C733 C735 1.390 . S
C733 H737 0.950 . S
H734 C730 0.950 . S
C735 C733 1.390 . S
C735 C736 1.387 . S
C735 H738 0.950 . S
C736 C735 1.387 . S
C736 C739 1.387 . S
H737 C733 0.950 . S
H738 C735 0.950 . S
C739 C730 1.390 . S
C739 H732 0.950 . S
C739 C736 1.387 . S
C740 C741 1.387 . S
C740 H744 0.950 . S
C740 C749 1.390 . S
C741 C740 1.387 . S
C741 C743 1.387 1_565 S
H742 C749 0.950 . S
C743 C741 1.387 1_545 S
C743 C745 1.390 . S
C743 H747 0.950 . S
H744 C740 0.950 . S
C745 C743 1.390 . S
C745 C746 1.387 1_545 S
C745 H748 0.950 . S
C746 C745 1.387 1_565 S
C746 C749 1.387 . S
H747 C743 0.950 . S
H748 C745 0.950 . S
C749 C740 1.390 . S
C749 H742 0.950 . S
C749 C746 1.387 . S
C750 C751 1.387 1_565 S
C750 H754 0.950 . S
C750 C759 1.390 . S
C751 C750 1.387 1_545 S
C751 C753 1.387 . S
H752 C759 0.950 1_455 S
C753 C751 1.387 . S
C753 C755 1.390 . S
C753 H757 0.950 . S
H754 C750 0.950 . S
C755 C753 1.390 . S
C755 C756 1.387 1_655 S
C755 H758 0.950 1_655 S
C756 C755 1.387 1_455 S
C756 C759 1.387 1_445 S
H757 C753 0.950 . S
H758 C755 0.950 1_455 S
C759 C750 1.390 . S
C759 H752 0.950 1_655 S
C759 C756 1.387 1_665 S
C760 C761 1.387 . S
C760 H764 0.950 . S
C760 C769 1.390 . S
C761 C760 1.387 . S
C761 C763 1.387 . S
H762 C769 0.950 . S
C763 C761 1.387 . S
C763 C765 1.390 . S
C763 H767 0.950 . S
H764 C760 0.950 . S
C765 C763 1.390 . S
C765 C766 1.387 . S
C765 H768 0.950 . S
C766 C765 1.387 . S
C766 C769 1.387 . S
H767 C763 0.950 . S
H768 C765 0.950 . S
C769 C760 1.390 . S
C769 H762 0.950 . S
C769 C766 1.387 . S
C770 C771 1.387 1_556 S
C770 H774 0.950 . S
C770 C779 1.390 . S
C771 C770 1.387 1_554 S
C771 C773 1.387 . S
H772 C779 0.948 1_545 S
C773 C771 1.387 . S
C773 C775 1.390 . S
C773 H777 0.950 . S
H774 C770 0.950 . S
C775 C773 1.390 . S
C775 C776 1.387 1_565 S
C775 H778 0.950 1_565 S
C776 C775 1.387 1_545 S
C776 C779 1.387 1_544 S
H777 C773 0.950 . S
H778 C775 0.950 1_545 S
C779 C770 1.390 . S
C779 H772 0.948 1_565 S
C779 C776 1.387 1_566 S
C780 C781 1.387 . S
C780 H784 0.950 . S
C780 C789 1.390 . S
C781 C780 1.387 . S
C781 C783 1.387 . S
H782 C789 0.950 . S
C783 C781 1.387 . S
C783 C785 1.390 . S
C783 H787 0.950 . S
H784 C780 0.950 . S
C785 C783 1.390 . S
C785 C786 1.387 . S
C785 H788 0.950 . S
C786 C785 1.387 . S
C786 C789 1.387 . S
H787 C783 0.950 . S
H788 C785 0.950 . S
C789 C780 1.390 . S
C789 H782 0.950 . S
C789 C786 1.387 . S
C790 C791 1.387 . S
C790 H794 0.950 . S
C790 C799 1.390 . S
C791 C790 1.387 . S
C791 C793 1.387 1_556 S
H792 C799 0.950 . S
C793 C791 1.387 1_554 S
C793 C795 1.390 . S
C793 H797 0.950 . S
H794 C790 0.950 . S
C795 C793 1.390 . S
C795 C796 1.387 1_554 S
C795 H798 0.950 . S
C796 C795 1.387 1_556 S
C796 C799 1.387 . S
H797 C793 0.950 . S
H798 C795 0.950 . S
C799 C790 1.390 . S
C799 H792 0.950 . S
C799 C796 1.387 . S
C800 C801 1.387 . S
C800 H804 0.950 . S
C800 C809 1.390 . S
C801 C800 1.387 . S
C801 C803 1.387 . S
H802 C809 0.950 . S
C803 C801 1.387 . S
C803 C805 1.390 . S
C803 H807 0.950 . S
H804 C800 0.950 . S
C805 C803 1.390 . S
C805 C806 1.387 . S
C805 H808 0.950 . S
C806 C805 1.387 . S
C806 C809 1.387 . S
H807 C803 0.950 . S
H808 C805 0.950 . S
C809 C800 1.390 . S
C809 H802 0.950 . S
C809 C806 1.387 . S
C810 C811 1.387 . S
C810 H814 0.950 . S
C810 C819 1.390 . S
C811 C810 1.387 . S
C811 C813 1.387 . S
H812 C819 0.953 1_554 S
C813 C811 1.387 . S
C813 C815 1.390 . S
C813 H817 0.950 . S
H814 C810 0.950 . S
C815 C813 1.390 . S
C815 C816 1.387 1_556 S
C815 H818 0.950 1_556 S
C816 C815 1.387 1_554 S
C816 C819 1.387 1_554 S
H817 C813 0.950 . S
H818 C815 0.950 1_554 S
C819 C810 1.390 . S
C819 H812 0.953 1_556 S
C819 C816 1.387 1_556 S
C820 C821 1.387 . S
C820 H824 0.950 . S
C820 C829 1.390 . S
C821 C820 1.387 . S
C821 C823 1.387 . S
H822 C829 0.950 . S
C823 C821 1.387 . S
C823 C825 1.390 . S
C823 H827 0.950 . S
H824 C820 0.950 . S
C825 C823 1.390 . S
C825 C826 1.387 . S
C825 H828 0.950 . S
C826 C825 1.387 . S
C826 C829 1.387 . S
H827 C823 0.950 . S
H828 C825 0.950 . S
C829 C820 1.390 . S
C829 H822 0.950 . S
C829 C826 1.387 . S
C830 C831 1.387 . S
C830 H834 0.950 . S
C830 C839 1.390 . S
C831 C830 1.387 . S
C831 C833 1.387 1_655 S
H832 C839 0.950 . S
C833 C831 1.387 1_455 S
C833 C835 1.390 . S
C833 H837 0.950 . S
H834 C830 0.950 . S
C835 C833 1.390 . S
C835 C836 1.387 1_455 S
C835 H838 0.950 . S
C836 C835 1.387 1_655 S
C836 C839 1.387 . S
H837 C833 0.950 . S
H838 C835 0.950 . S
C839 C830 1.390 . S
C839 H832 0.950 . S
C839 C836 1.387 . S
C840 C841 1.387 . S
C840 H844 0.950 . S
C840 C849 1.390 . S
C841 C840 1.387 . S
C841 C843 1.387 . S
H842 C849 0.950 . S
C843 C841 1.387 . S
C843 C845 1.390 . S
C843 H847 0.950 . S
H844 C840 0.950 . S
C845 C843 1.390 . S
C845 C846 1.387 . S
C845 H848 0.950 . S
C846 C845 1.387 . S
C846 C849 1.387 . S
H847 C843 0.950 . S
H848 C845 0.950 . S
C849 C840 1.390 . S
C849 H842 0.950 . S
C849 C846 1.387 . S
C850 C851 1.387 . S
C850 H854 0.950 . S
C850 C859 1.390 . S
C851 C850 1.387 . S
C851 C853 1.387 . S
H852 C859 0.950 . S
C853 C851 1.387 . S
C853 C855 1.390 . S
C853 H857 0.950 . S
H854 C850 0.950 . S
C855 C853 1.390 . S
C855 C856 1.387 . S
C855 H858 0.950 . S
C856 C855 1.387 . S
C856 C859 1.387 . S
H857 C853 0.950 . S
H858 C855 0.950 . S
C859 C850 1.390 . S
C859 H852 0.950 . S
C859 C856 1.387 . S
C860 C861 1.387 1_565 S
C860 H864 0.950 . S
C860 C869 1.390 . S
C861 C860 1.387 1_545 S
C861 C863 1.387 . S
H862 C869 0.950 . S
C863 C861 1.387 . S
C863 C865 1.390 . S
C863 H867 0.950 . S
H864 C860 0.950 . S
C865 C863 1.390 . S
C865 C866 1.387 . S
C865 H868 0.950 . S
C866 C865 1.387 . S
C866 C869 1.387 1_545 S
H867 C863 0.950 . S
H868 C865 0.950 . S
C869 C860 1.390 . S
C869 H862 0.950 . S
C869 C866 1.387 1_565 S
C870 C871 1.387 . S
C870 H874 0.950 . S
C870 C879 1.392 . S
C871 C870 1.387 . S
C871 C873 1.387 . S
H872 C879 0.948 1_645 S
C873 C871 1.387 . S
C873 C875 1.390 . S
C873 H877 0.950 . S
H874 C870 0.950 . S
C875 C873 1.390 . S
C875 C876 1.387 1_455 S
C875 H878 0.950 1_455 S
C876 C875 1.387 1_655 S
C876 C879 1.388 1_655 S
H877 C873 0.950 . S
H878 C875 0.950 1_655 S
C879 C870 1.392 . S
C879 H872 0.948 1_465 S
C879 C876 1.388 1_455 S
C880 C881 1.387 . S
C880 H884 0.950 . S
C880 C889 1.390 . S
C881 C880 1.387 . S
C881 C883 1.387 . S
H882 C889 0.950 . S
C883 C881 1.387 . S
C883 C885 1.390 . S
C883 H887 0.950 . S
H884 C880 0.950 . S
C885 C883 1.390 . S
C885 C886 1.387 . S
C885 H888 0.950 . S
C886 C885 1.387 . S
C886 C889 1.387 . S
H887 C883 0.950 . S
H888 C885 0.950 . S
C889 C880 1.390 . S
C889 H882 0.950 . S
C889 C886 1.387 . S
C890 C891 1.387 . S
C890 H894 0.950 . S
C890 C899 1.387 1_556 S
C891 C890 1.387 . S
C891 C893 1.387 . S
H892 C899 0.955 1_565 S
C893 C891 1.387 . S
C893 C895 1.390 . S
C893 H897 0.950 . S
H894 C890 0.950 . S
C895 C893 1.390 . S
C895 C896 1.387 1_545 S
C895 H898 0.950 1_545 S
C896 C895 1.387 1_565 S
C896 C899 1.387 1_566 S
H897 C893 0.950 . S
H898 C895 0.950 1_565 S
C899 C890 1.387 1_554 S
C899 H892 0.955 1_545 S
C899 C896 1.387 1_544 S
C900 C901 1.387 . S
C900 H904 0.950 . S
C900 C909 1.390 . S
C901 C900 1.387 . S
C901 C903 1.387 . S
H902 C909 0.950 . S
C903 C901 1.387 . S
C903 C905 1.390 . S
C903 H907 0.950 . S
H904 C900 0.950 . S
C905 C903 1.390 . S
C905 C906 1.387 . S
C905 H908 0.950 . S
C906 C905 1.387 . S
C906 C909 1.387 . S
H907 C903 0.950 . S
H908 C905 0.950 . S
C909 C900 1.390 . S
C909 H902 0.950 . S
C909 C906 1.387 . S
C910 C911 1.387 1_556 S
C910 H914 0.950 . S
C910 C919 1.390 . S
C911 C910 1.387 1_554 S
C911 C913 1.387 . S
H912 C919 0.950 . S
C913 C911 1.387 . S
C913 C915 1.390 . S
C913 H917 0.950 . S
H914 C910 0.950 . S
C915 C913 1.390 . S
C915 C916 1.387 . S
C915 H918 0.950 . S
C916 C915 1.387 . S
C916 C919 1.387 1_554 S
H917 C913 0.950 . S
H918 C915 0.950 . S
C919 C910 1.390 . S
C919 H912 0.950 . S
C919 C916 1.387 1_556 S
C920 C921 1.387 . S
C920 H924 0.950 . S
C920 C929 1.390 . S
C921 C920 1.387 . S
C921 C923 1.387 . S
H922 C929 0.950 . S
C923 C921 1.387 . S
C923 C925 1.390 . S
C923 H927 0.950 . S
H924 C920 0.950 . S
C925 C923 1.390 . S
C925 C926 1.387 . S
C925 H928 0.950 . S
C926 C925 1.387 . S
C926 C929 1.387 . S
H927 C923 0.950 . S
H928 C925 0.950 . S
C929 C920 1.390 . S
C929 H922 0.950 . S
C929 C926 1.387 . S
C930 C931 1.387 . S
C930 H934 0.950 . S
C930 C939 1.390 . S
C931 C930 1.387 . S
C931 C933 1.387 . S
H932 C939 0.946 1_456 S
C933 C931 1.387 . S
C933 C935 1.390 . S
C933 H937 0.950 . S
H934 C930 0.950 . S
C935 C933 1.390 . S
C935 C936 1.387 1_554 S
C935 H938 0.950 1_554 S
C936 C935 1.387 1_556 S
C936 C939 1.387 1_556 S
H937 C933 0.950 . S
H938 C935 0.950 1_556 S
C939 C930 1.390 . S
C939 H932 0.946 1_654 S
C939 C936 1.387 1_554 S
C940 C941 1.387 . S
C940 H944 0.950 . S
C940 C949 1.390 . S
C941 C940 1.387 . S
C941 C943 1.387 . S
H942 C949 0.950 . S
C943 C941 1.387 . S
C943 C945 1.390 . S
C943 H947 0.950 . S
H944 C940 0.950 . S
C945 C943 1.390 . S
C945 C946 1.387 . S
C945 H948 0.950 . S
C946 C945 1.387 . S
C946 C949 1.387 . S
H947 C943 0.950 . S
H948 C945 0.950 . S
C949 C940 1.390 . S
C949 H942 0.950 . S
C949 C946 1.387 . S
C950 C951 1.387 1_655 S
C950 H954 0.950 . S
C950 C959 1.390 . S
C951 C950 1.387 1_455 S
C951 C953 1.387 . S
H952 C959 0.950 . S
C953 C951 1.387 . S
C953 C955 1.390 . S
C953 H957 0.950 . S
H954 C950 0.950 . S
C955 C953 1.390 . S
C955 C956 1.387 . S
C955 H958 0.950 . S
C956 C955 1.387 . S
C956 C959 1.387 1_455 S
H957 C953 0.950 . S
H958 C955 0.950 . S
C959 C950 1.390 . S
C959 H952 0.950 . S
C959 C956 1.387 1_655 S
C960 C961 1.387 . S
C960 H964 0.950 . S
C960 C969 1.390 . S
C961 C960 1.387 . S
C961 C963 1.387 . S
H962 C969 0.950 . S
C963 C961 1.387 . S
C963 C965 1.390 . S
C963 H967 0.950 . S
H964 C960 0.950 . S
C965 C963 1.390 . S
C965 C966 1.387 . S
C965 H968 0.950 . S
C966 C965 1.387 . S
C966 C969 1.387 . S
H967 C963 0.950 . S
H968 C965 0.950 . S
C969 C960 1.390 . S
C969 H962 0.950 . S
C969 C966 1.387 . S
C970 C971 1.387 . S
C970 H974 0.950 . S
C970 C979 1.390 . S
C971 C970 1.387 . S
C971 C973 1.387 . S
H972 C979 0.950 . S
C973 C971 1.387 . S
C973 C975 1.390 . S
C973 H977 0.950 . S
H974 C970 0.950 . S
C975 C973 1.390 . S
C975 C976 1.387 . S
C975 H978 0.950 . S
C976 C975 1.387 . S
C976 C979 1.387 . S
H977 C973 0.950 . S
H978 C975 0.950 . S
C979 C970 1.390 . S
C979 H972 0.950 . S
C979 C976 1.387 . S
C980 C981 1.387 . S
C980 H984 0.950 1_545 S
C980 C989 1.390 . S
C981 C980 1.387 . S
C981 C983 1.387 . S
H982 C989 0.950 . S
C983 C981 1.387 . S
C983 C985 1.390 . S
C983 H987 0.950 . S
H984 C980 0.950 1_565 S
C985 C983 1.390 . S
C985 C986 1.387 . S
C985 H988 0.950 . S
C986 C985 1.387 . S
C986 C989 1.387 . S
H987 C983 0.950 . S
H988 C985 0.950 . S
C989 C980 1.390 . S
C989 H982 0.950 . S
C989 C986 1.387 . S
C990 C991 1.387 . S
C990 H994 0.950 . S
C990 C999 1.390 . S
C991 C990 1.387 . S
C991 C993 1.387 . S
H992 C999 0.950 . S
C993 C991 1.387 . S
C993 C995 1.390 . S
C993 H997 0.950 1_565 S
H994 C990 0.950 . S
C995 C993 1.390 . S
C995 C996 1.387 . S
C995 H998 0.950 . S
C996 C995 1.387 . S
C996 C999 1.387 . S
H997 C993 0.950 1_545 S
H998 C995 0.950 . S
C999 C990 1.390 . S
C999 H992 0.950 . S
C999 C996 1.387 . S
C1000 C1001 1.387 . S
C1000 H1004 0.950 . S
C1000 C1009 1.390 . S
C1001 C1000 1.387 . S
C1001 C1003 1.387 . S
H1002 C1009 0.950 . S
C1003 C1001 1.387 . S
C1003 C1005 1.390 . S
C1003 H1007 0.950 . S
H1004 C1000 0.950 . S
C1005 C1003 1.390 . S
C1005 C1006 1.387 . S
C1005 H1008 0.950 . S
C1006 C1005 1.387 . S
C1006 C1009 1.387 . S
H1007 C1003 0.950 . S
H1008 C1005 0.950 . S
C1009 C1000 1.390 . S
C1009 H1002 0.950 . S
C1009 C1006 1.387 . S
C1010 C1011 1.387 . S
C1010 H1014 0.950 . S
C1010 C1019 1.390 . S
C1011 C1010 1.387 . S
C1011 C1013 1.387 . S
H1012 C1019 0.950 . S
C1013 C1011 1.387 . S
C1013 C1015 1.390 . S
C1013 H1017 0.950 . S
H1014 C1010 0.950 . S
C1015 C1013 1.390 . S
C1015 C1016 1.387 . S
C1015 H1018 0.950 . S
C1016 C1015 1.387 . S
C1016 C1019 1.387 . S
H1017 C1013 0.950 . S
H1018 C1015 0.950 . S
C1019 C1010 1.390 . S
C1019 H1012 0.950 . S
C1019 C1016 1.387 . S
C1020 C1021 1.387 . S
C1020 H1024 0.950 . S
C1020 C1029 1.390 . S
C1021 C1020 1.387 . S
C1021 C1023 1.387 . S
H1022 C1029 0.950 . S
C1023 C1021 1.387 . S
C1023 C1025 1.390 . S
C1023 H1027 0.950 . S
H1024 C1020 0.950 . S
C1025 C1023 1.390 . S
C1025 C1026 1.387 . S
C1025 H1028 0.950 . S
C1026 C1025 1.387 . S
C1026 C1029 1.387 . S
H1027 C1023 0.950 . S
H1028 C1025 0.950 . S
C1029 C1020 1.390 . S
C1029 H1022 0.950 . S
C1029 C1026 1.387 . S
C1030 C1031 1.387 . S
C1030 H1034 0.950 . S
C1030 C1039 1.390 . S
C1031 C1030 1.387 . S
C1031 C1033 1.387 . S
H1032 C1039 0.950 . S
C1033 C1031 1.387 . S
C1033 C1035 1.390 . S
C1033 H1037 0.950 . S
H1034 C1030 0.950 . S
C1035 C1033 1.390 . S
C1035 C1036 1.387 . S
C1035 H1038 0.950 . S
C1036 C1035 1.387 . S
C1036 C1039 1.387 . S
H1037 C1033 0.950 . S
H1038 C1035 0.950 . S
C1039 C1030 1.390 . S
C1039 H1032 0.950 . S
C1039 C1036 1.387 . S
C1040 C1041 1.387 . S
C1040 H1044 0.950 . S
C1040 C1049 1.390 . S
C1041 C1040 1.387 . S
C1041 C1043 1.387 . S
H1042 C1049 0.950 . S
C1043 C1041 1.387 . S
C1043 C1045 1.390 . S
C1043 H1047 0.950 . S
H1044 C1040 0.950 . S
C1045 C1043 1.390 . S
C1045 C1046 1.387 . S
C1045 H1048 0.950 . S
C1046 C1045 1.387 . S
C1046 C1049 1.387 . S
H1047 C1043 0.950 . S
H1048 C1045 0.950 . S
C1049 C1040 1.390 . S
C1049 H1042 0.950 . S
C1049 C1046 1.387 . S
C1050 C1051 1.387 . S
C1050 H1054 0.950 . S
C1050 C1059 1.390 . S
C1051 C1050 1.387 . S
C1051 C1053 1.387 . S
H1052 C1059 0.950 . S
C1053 C1051 1.387 . S
C1053 C1055 1.390 . S
C1053 H1057 0.950 . S
H1054 C1050 0.950 . S
C1055 C1053 1.390 . S
C1055 C1056 1.387 . S
C1055 H1058 0.950 . S
C1056 C1055 1.387 . S
C1056 C1059 1.387 . S
H1057 C1053 0.950 . S
H1058 C1055 0.950 . S
C1059 C1050 1.390 . S
C1059 H1052 0.950 . S
C1059 C1056 1.387 . S
C1060 C1061 1.387 . S
C1060 H1064 0.950 . S
C1060 C1069 1.390 . S
C1061 C1060 1.387 . S
C1061 C1063 1.387 . S
H1062 C1069 0.950 . S
C1063 C1061 1.387 . S
C1063 C1065 1.390 . S
C1063 H1067 0.950 . S
H1064 C1060 0.950 . S
C1065 C1063 1.390 . S
C1065 C1066 1.387 . S
C1065 H1068 0.950 . S
C1066 C1065 1.387 . S
C1066 C1069 1.387 . S
H1067 C1063 0.950 . S
H1068 C1065 0.950 . S
C1069 C1060 1.390 . S
C1069 H1062 0.950 . S
C1069 C1066 1.387 . S
C1070 C1071 1.387 . S
C1070 H1074 0.950 . S
C1070 C1079 1.390 . S
C1071 C1070 1.387 . S
C1071 C1073 1.387 . S
H1072 C1079 0.950 . S
C1073 C1071 1.387 . S
C1073 C1075 1.390 . S
C1073 H1077 0.950 . S
H1074 C1070 0.950 . S
C1075 C1073 1.390 . S
C1075 C1076 1.387 . S
C1075 H1078 0.950 . S
C1076 C1075 1.387 . S
C1076 C1079 1.387 . S
H1077 C1073 0.950 . S
H1078 C1075 0.950 . S
C1079 C1070 1.390 . S
C1079 H1072 0.950 . S
C1079 C1076 1.387 . S
C1080 C1081 1.387 . S
C1080 H1084 0.950 . S
C1080 C1089 1.390 . S
C1081 C1080 1.387 . S
C1081 C1083 1.387 . S
H1082 C1089 0.950 . S
C1083 C1081 1.387 . S
C1083 C1085 1.390 . S
C1083 H1087 0.950 . S
H1084 C1080 0.950 . S
C1085 C1083 1.390 . S
C1085 C1086 1.387 . S
C1085 H1088 0.950 . S
C1086 C1085 1.387 . S
C1086 C1089 1.387 . S
H1087 C1083 0.950 . S
H1088 C1085 0.950 . S
C1089 C1080 1.390 . S
C1089 H1082 0.950 . S
C1089 C1086 1.387 . S
C1090 C1091 1.387 . S
C1090 H1094 0.950 . S
C1090 C1099 1.390 . S
C1091 C1090 1.387 . S
C1091 C1093 1.387 . S
H1092 C1099 0.950 . S
C1093 C1091 1.387 . S
C1093 C1095 1.390 . S
C1093 H1097 0.950 . S
H1094 C1090 0.950 . S
C1095 C1093 1.390 . S
C1095 C1096 1.387 . S
C1095 H1098 0.950 . S
C1096 C1095 1.387 . S
C1096 C1099 1.387 . S
H1097 C1093 0.950 . S
H1098 C1095 0.950 . S
C1099 C1090 1.390 . S
C1099 H1092 0.950 . S
C1099 C1096 1.387 . S
C1100 C1101 1.387 . S
C1100 H1104 0.950 . S
C1100 C1109 1.390 . S
C1101 C1100 1.387 . S
C1101 C1103 1.387 . S
H1102 C1109 0.950 . S
C1103 C1101 1.387 . S
C1103 C1105 1.390 . S
C1103 H1107 0.950 1_565 S
H1104 C1100 0.950 . S
C1105 C1103 1.390 . S
C1105 C1106 1.387 . S
C1105 H1108 0.950 . S
C1106 C1105 1.387 . S
C1106 C1109 1.387 . S
H1107 C1103 0.950 1_545 S
H1108 C1105 0.950 . S
C1109 C1100 1.390 . S
C1109 H1102 0.950 . S
C1109 C1106 1.387 . S
C1110 C1111 1.387 . S
C1110 H1114 0.950 . S
C1110 C1119 1.390 . S
C1111 C1110 1.387 . S
C1111 C1113 1.387 . S
H1112 C1119 0.950 . S
C1113 C1111 1.387 . S
C1113 C1115 1.390 . S
C1113 H1117 0.950 1_545 S
H1114 C1110 0.950 . S
C1115 C1113 1.390 . S
C1115 C1116 1.387 . S
C1115 H1118 0.950 . S
C1116 C1115 1.387 . S
C1116 C1119 1.387 . S
H1117 C1113 0.950 1_565 S
H1118 C1115 0.950 . S
C1119 C1110 1.390 . S
C1119 H1112 0.950 . S
C1119 C1116 1.387 . S
C1120 C1121 1.387 . S
C1120 H1124 0.950 . S
C1120 C1129 1.390 . S
C1121 C1120 1.387 . S
C1121 C1123 1.387 . S
H1122 C1129 0.950 . S
C1123 C1121 1.387 . S
C1123 C1125 1.390 . S
C1123 H1127 0.950 . S
H1124 C1120 0.950 . S
C1125 C1123 1.390 . S
C1125 C1126 1.387 . S
C1125 H1128 0.950 . S
C1126 C1125 1.387 . S
C1126 C1129 1.387 . S
H1127 C1123 0.950 . S
H1128 C1125 0.950 . S
C1129 C1120 1.390 . S
C1129 H1122 0.950 . S
C1129 C1126 1.387 . S
C1130 C1131 1.387 . S
C1130 H1134 0.950 . S
C1130 C1139 1.390 . S
C1131 C1130 1.387 . S
C1131 C1133 1.387 . S
H1132 C1139 0.950 . S
C1133 C1131 1.387 . S
C1133 C1135 1.390 . S
C1133 H1137 0.950 . S
H1134 C1130 0.950 . S
C1135 C1133 1.390 . S
C1135 C1136 1.387 . S
C1135 H1138 0.950 . S
C1136 C1135 1.387 . S
C1136 C1139 1.387 . S
H1137 C1133 0.950 . S
H1138 C1135 0.950 . S
C1139 C1130 1.390 . S
C1139 H1132 0.950 . S
C1139 C1136 1.387 . S
C1140 C1141 1.387 . S
C1140 H1144 0.950 . S
C1140 C1149 1.390 . S
C1141 C1140 1.387 . S
C1141 C1143 1.387 . S
H1142 C1149 0.950 . S
C1143 C1141 1.387 . S
C1143 C1145 1.390 . S
C1143 H1147 0.950 . S
H1144 C1140 0.950 . S
C1145 C1143 1.390 . S
C1145 C1146 1.387 . S
C1145 H1148 0.950 . S
C1146 C1145 1.387 . S
C1146 C1149 1.387 . S
H1147 C1143 0.950 . S
H1148 C1145 0.950 . S
C1149 C1140 1.390 . S
C1149 H1142 0.950 . S
C1149 C1146 1.387 . S
C1150 C1151 1.387 . S
C1150 H1154 0.950 . S
C1150 C1159 1.390 . S
C1151 C1150 1.387 . S
C1151 C1153 1.387 . S
H1152 C1159 0.950 . S
C1153 C1151 1.387 . S
C1153 C1155 1.390 . S
C1153 H1157 0.950 . S
H1154 C1150 0.950 . S
C1155 C1153 1.390 . S
C1155 C1156 1.387 . S
C1155 H1158 0.950 . S
C1156 C1155 1.387 . S
C1156 C1159 1.387 . S
H1157 C1153 0.950 . S
H1158 C1155 0.950 . S
C1159 C1150 1.390 . S
C1159 H1152 0.950 . S
C1159 C1156 1.387 . S
C1160 C1161 1.387 . S
C1160 H1164 0.950 . S
C1160 C1169 1.390 . S
C1161 C1160 1.387 . S
C1161 C1163 1.387 . S
H1162 C1169 0.950 . S
C1163 C1161 1.387 . S
C1163 C1165 1.390 . S
C1163 H1167 0.950 . S
H1164 C1160 0.950 . S
C1165 C1163 1.390 . S
C1165 C1166 1.387 . S
C1165 H1168 0.950 . S
C1166 C1165 1.387 . S
C1166 C1169 1.387 . S
H1167 C1163 0.950 . S
H1168 C1165 0.950 . S
C1169 C1160 1.390 . S
C1169 H1162 0.950 . S
C1169 C1166 1.387 . S
C1170 C1171 1.387 . S
C1170 H1174 0.950 . S
C1170 C1179 1.390 . S
C1171 C1170 1.387 . S
C1171 C1173 1.387 . S
H1172 C1179 0.950 . S
C1173 C1171 1.387 . S
C1173 C1175 1.390 . S
C1173 H1177 0.950 . S
H1174 C1170 0.950 . S
C1175 C1173 1.390 . S
C1175 C1176 1.387 . S
C1175 H1178 0.950 . S
C1176 C1175 1.387 . S
C1176 C1179 1.387 . S
H1177 C1173 0.950 . S
H1178 C1175 0.950 . S
C1179 C1170 1.390 . S
C1179 H1172 0.950 . S
C1179 C1176 1.387 . S
C1180 C1181 1.387 . S
C1180 H1184 0.950 . S
C1180 C1189 1.390 . S
C1181 C1180 1.387 . S
C1181 C1183 1.387 . S
H1182 C1189 0.950 . S
C1183 C1181 1.387 . S
C1183 C1185 1.390 . S
C1183 H1187 0.950 . S
H1184 C1180 0.950 . S
C1185 C1183 1.390 . S
C1185 C1186 1.387 . S
C1185 H1188 0.950 . S
C1186 C1185 1.387 . S
C1186 C1189 1.387 . S
H1187 C1183 0.950 . S
H1188 C1185 0.950 . S
C1189 C1180 1.390 . S
C1189 H1182 0.950 . S
C1189 C1186 1.387 . S
C1190 C1191 1.387 . S
C1190 H1194 0.950 . S
C1190 C1199 1.390 . S
C1191 C1190 1.387 . S
C1191 C1193 1.387 . S
H1192 C1199 0.950 . S
C1193 C1191 1.387 . S
C1193 C1195 1.390 . S
C1193 H1197 0.950 . S
H1194 C1190 0.950 . S
C1195 C1193 1.390 . S
C1195 C1196 1.387 . S
C1195 H1198 0.950 . S
C1196 C1195 1.387 . S
C1196 C1199 1.387 . S
H1197 C1193 0.950 . S
H1198 C1195 0.950 . S
C1199 C1190 1.390 . S
C1199 H1192 0.950 . S
C1199 C1196 1.387 . S
C1200 C1201 1.387 . S
C1200 H1204 0.950 . S
C1200 C1209 1.390 . S
C1201 C1200 1.387 . S
C1201 C1203 1.387 . S
H1202 C1209 0.950 . S
C1203 C1201 1.387 . S
C1203 C1205 1.390 . S
C1203 H1207 0.950 . S
H1204 C1200 0.950 . S
C1205 C1203 1.390 . S
C1205 C1206 1.387 . S
C1205 H1208 0.950 . S
C1206 C1205 1.387 . S
C1206 C1209 1.387 . S
H1207 C1203 0.950 . S
H1208 C1205 0.950 . S
C1209 C1200 1.390 . S
C1209 H1202 0.950 . S
C1209 C1206 1.387 . S
C1210 C1211 1.387 . S
C1210 H1214 0.950 . S
C1210 C1219 1.390 . S
C1211 C1210 1.387 . S
C1211 C1213 1.387 . S
H1212 C1219 0.950 . S
C1213 C1211 1.387 . S
C1213 C1215 1.390 . S
C1213 H1217 0.950 . S
H1214 C1210 0.950 . S
C1215 C1213 1.390 . S
C1215 C1216 1.387 . S
C1215 H1218 0.950 . S
C1216 C1215 1.387 . S
C1216 C1219 1.387 . S
H1217 C1213 0.950 . S
H1218 C1215 0.950 . S
C1219 C1210 1.390 . S
C1219 H1212 0.950 . S
C1219 C1216 1.387 . S
C1220 C1221 1.387 1_545 S
C1220 H1224 0.950 . S
C1220 C1229 1.390 . S
C1221 C1220 1.387 1_565 S
C1221 C1223 1.387 . S
H1222 C1229 0.950 . S
C1223 C1221 1.387 . S
C1223 C1225 1.390 . S
C1223 H1227 0.950 . S
H1224 C1220 0.950 . S
C1225 C1223 1.390 . S
C1225 C1226 1.387 . S
C1225 H1228 0.950 . S
C1226 C1225 1.387 . S
C1226 C1229 1.387 1_565 S
H1227 C1223 0.950 . S
H1228 C1225 0.950 . S
C1229 C1220 1.390 . S
C1229 H1222 0.950 . S
C1229 C1226 1.387 1_545 S
C1230 C1231 1.387 1_565 S
C1230 H1234 0.950 . S
C1230 C1239 1.390 . S
C1231 C1230 1.387 1_545 S
C1231 C1233 1.387 . S
H1232 C1239 0.950 . S
C1233 C1231 1.387 . S
C1233 C1235 1.390 . S
C1233 H1237 0.950 . S
H1234 C1230 0.950 . S
C1235 C1233 1.390 . S
C1235 C1236 1.387 . S
C1235 H1238 0.950 . S
C1236 C1235 1.387 . S
C1236 C1239 1.387 1_545 S
H1237 C1233 0.950 . S
H1238 C1235 0.950 . S
C1239 C1230 1.390 . S
C1239 H1232 0.950 . S
C1239 C1236 1.387 1_565 S
C1240 C1241 1.387 . S
C1240 H1244 0.950 . S
C1240 C1249 1.390 . S
C1241 C1240 1.387 . S
C1241 C1243 1.387 . S
H1242 C1249 0.950 . S
C1243 C1241 1.387 . S
C1243 C1245 1.390 . S
C1243 H1247 0.950 . S
H1244 C1240 0.950 . S
C1245 C1243 1.390 . S
C1245 C1246 1.387 . S
C1245 H1248 0.950 . S
C1246 C1245 1.387 . S
C1246 C1249 1.387 . S
H1247 C1243 0.950 . S
H1248 C1245 0.950 . S
C1249 C1240 1.390 . S
C1249 H1242 0.950 . S
C1249 C1246 1.387 . S
C1250 C1251 1.387 1_556 S
C1250 H1254 0.950 . S
C1250 C1259 1.390 . S
C1251 C1250 1.387 1_554 S
C1251 C1253 1.387 . S
H1252 C1259 0.950 . S
C1253 C1251 1.387 . S
C1253 C1255 1.390 . S
C1253 H1257 0.950 . S
H1254 C1250 0.950 . S
C1255 C1253 1.390 . S
C1255 C1256 1.387 . S
C1255 H1258 0.950 . S
C1256 C1255 1.387 . S
C1256 C1259 1.387 1_554 S
H1257 C1253 0.950 . S
H1258 C1255 0.950 . S
C1259 C1250 1.390 . S
C1259 H1252 0.950 . S
C1259 C1256 1.387 1_556 S
C1260 C1261 1.387 . S
C1260 H1264 0.950 . S
C1260 C1269 1.390 . S
C1261 C1260 1.387 . S
C1261 C1263 1.387 . S
H1262 C1269 0.950 . S
C1263 C1261 1.387 . S
C1263 C1265 1.390 . S
C1263 H1267 0.950 . S
H1264 C1260 0.950 . S
C1265 C1263 1.390 . S
C1265 C1266 1.387 . S
C1265 H1268 0.950 . S
C1266 C1265 1.387 . S
C1266 C1269 1.387 . S
H1267 C1263 0.950 . S
H1268 C1265 0.950 . S
C1269 C1260 1.390 . S
C1269 H1262 0.950 . S
C1269 C1266 1.387 . S
C1270 C1271 1.387 1_554 S
C1270 H1274 0.950 . S
C1270 C1279 1.390 . S
C1271 C1270 1.387 1_556 S
C1271 C1273 1.387 . S
H1272 C1279 0.950 . S
C1273 C1271 1.387 . S
C1273 C1275 1.390 . S
C1273 H1277 0.950 . S
H1274 C1270 0.950 . S
C1275 C1273 1.390 . S
C1275 C1276 1.387 . S
C1275 H1278 0.950 . S
C1276 C1275 1.387 . S
C1276 C1279 1.387 1_556 S
H1277 C1273 0.950 . S
H1278 C1275 0.950 . S
C1279 C1270 1.390 . S
C1279 H1272 0.950 . S
C1279 C1276 1.387 1_554 S
C1280 C1281 1.387 . S
C1280 H1284 0.950 . S
C1280 C1289 1.390 . S
C1281 C1280 1.387 . S
C1281 C1283 1.387 . S
H1282 C1289 0.950 . S
C1283 C1281 1.387 . S
C1283 C1285 1.390 . S
C1283 H1287 0.950 . S
H1284 C1280 0.950 . S
C1285 C1283 1.390 . S
C1285 C1286 1.387 . S
C1285 H1288 0.950 . S
C1286 C1285 1.387 . S
C1286 C1289 1.387 . S
H1287 C1283 0.950 . S
H1288 C1285 0.950 . S
C1289 C1280 1.390 . S
C1289 H1282 0.950 . S
C1289 C1286 1.387 . S
C1290 C1291 1.387 . S
C1290 H1294 0.950 . S
C1290 C1299 1.390 . S
C1291 C1290 1.387 . S
C1291 C1293 1.387 1_455 S
H1292 C1299 0.950 . S
C1293 C1291 1.387 1_655 S
C1293 C1295 1.390 . S
C1293 H1297 0.950 . S
H1294 C1290 0.950 . S
C1295 C1293 1.390 . S
C1295 C1296 1.387 1_655 S
C1295 H1298 0.950 . S
C1296 C1295 1.387 1_455 S
C1296 C1299 1.387 . S
H1297 C1293 0.950 . S
H1298 C1295 0.950 . S
C1299 C1290 1.390 . S
C1299 H1292 0.950 . S
C1299 C1296 1.387 . S
C1300 C1301 1.387 . S
C1300 H1304 0.950 . S
C1300 C1309 1.390 . S
C1301 C1300 1.387 . S
C1301 C1303 1.387 . S
H1302 C1309 0.950 . S
C1303 C1301 1.387 . S
C1303 C1305 1.390 . S
C1303 H1307 0.950 . S
H1304 C1300 0.950 . S
C1305 C1303 1.390 . S
C1305 C1306 1.387 . S
C1305 H1308 0.950 . S
C1306 C1305 1.387 . S
C1306 C1309 1.387 . S
H1307 C1303 0.950 . S
H1308 C1305 0.950 . S
C1309 C1300 1.390 . S
C1309 H1302 0.950 . S
C1309 C1306 1.387 . S
C1310 C1311 1.387 . S
C1310 H1314 0.950 . S
C1310 C1319 1.390 . S
C1311 C1310 1.387 . S
C1311 C1313 1.387 1_655 S
H1312 C1319 0.950 . S
C1313 C1311 1.387 1_455 S
C1313 C1315 1.390 . S
C1313 H1317 0.950 . S
H1314 C1310 0.950 . S
C1315 C1313 1.390 . S
C1315 C1316 1.387 1_455 S
C1315 H1318 0.950 . S
C1316 C1315 1.387 1_655 S
C1316 C1319 1.387 . S
H1317 C1313 0.950 . S
H1318 C1315 0.950 . S
C1319 C1310 1.390 . S
C1319 H1312 0.950 . S
C1319 C1316 1.387 . S
C1320 C1321 1.387 . S
C1320 H1324 0.950 . S
C1320 C1329 1.390 . S
C1321 C1320 1.387 . S
C1321 C1323 1.387 . S
H1322 C1329 0.950 . S
C1323 C1321 1.387 . S
C1323 C1325 1.390 . S
C1323 H1327 0.950 . S
H1324 C1320 0.950 . S
C1325 C1323 1.390 . S
C1325 C1326 1.387 . S
C1325 H1328 0.950 . S
C1326 C1325 1.387 . S
C1326 C1329 1.387 . S
H1327 C1323 0.950 . S
H1328 C1325 0.950 . S
C1329 C1320 1.390 . S
C1329 H1322 0.950 . S
C1329 C1326 1.387 . S
C1330 C1331 1.387 . S
C1330 H1334 0.950 . S
C1330 C1339 1.390 . S
C1331 C1330 1.387 . S
C1331 C1333 1.387 . S
H1332 C1339 0.950 . S
C1333 C1331 1.387 . S
C1333 C1335 1.390 . S
C1333 H1337 0.950 . S
H1334 C1330 0.950 . S
C1335 C1333 1.390 . S
C1335 C1336 1.387 . S
C1335 H1338 0.950 . S
C1336 C1335 1.387 . S
C1336 C1339 1.387 . S
H1337 C1333 0.950 . S
H1338 C1335 0.950 . S
C1339 C1330 1.390 . S
C1339 H1332 0.950 . S
C1339 C1336 1.387 . S
C1340 C1341 1.387 . S
C1340 H1344 0.950 . S
C1340 C1349 1.390 . S
C1341 C1340 1.387 . S
C1341 C1343 1.387 1_545 S
H1342 C1349 0.950 . S
C1343 C1341 1.387 1_565 S
C1343 C1345 1.390 . S
C1343 H1347 0.950 . S
H1344 C1340 0.950 . S
C1345 C1343 1.390 . S
C1345 C1346 1.387 1_565 S
C1345 H1348 0.950 . S
C1346 C1345 1.387 1_545 S
C1346 C1349 1.387 . S
H1347 C1343 0.950 . S
H1348 C1345 0.950 . S
C1349 C1340 1.390 . S
C1349 H1342 0.950 . S
C1349 C1346 1.387 . S
C1350 C1351 1.387 . S
C1350 H1354 0.950 . S
C1350 C1359 1.390 . S
C1351 C1350 1.387 . S
C1351 C1353 1.387 1_565 S
H1352 C1359 0.950 . S
C1353 C1351 1.387 1_545 S
C1353 C1355 1.390 . S
C1353 H1357 0.950 . S
H1354 C1350 0.950 . S
C1355 C1353 1.390 . S
C1355 C1356 1.387 1_545 S
C1355 H1358 0.950 . S
C1356 C1355 1.387 1_565 S
C1356 C1359 1.387 . S
H1357 C1353 0.950 . S
H1358 C1355 0.950 . S
C1359 C1350 1.390 . S
C1359 H1352 0.950 . S
C1359 C1356 1.387 . S
C1360 C1361 1.387 . S
C1360 H1364 0.950 . S
C1360 C1369 1.390 . S
C1361 C1360 1.387 . S
C1361 C1363 1.387 . S
H1362 C1369 0.950 . S
C1363 C1361 1.387 . S
C1363 C1365 1.390 . S
C1363 H1367 0.950 . S
H1364 C1360 0.950 . S
C1365 C1363 1.390 . S
C1365 C1366 1.387 . S
C1365 H1368 0.950 . S
C1366 C1365 1.387 . S
C1366 C1369 1.387 . S
H1367 C1363 0.950 . S
H1368 C1365 0.950 . S
C1369 C1360 1.390 . S
C1369 H1362 0.950 . S
C1369 C1366 1.387 . S
C1370 C1371 1.387 1_554 S
C1370 H1374 0.950 . S
C1370 C1379 1.390 . S
C1371 C1370 1.387 1_556 S
C1371 C1373 1.387 . S
H1372 C1379 0.950 . S
C1373 C1371 1.387 . S
C1373 C1375 1.390 . S
C1373 H1377 0.950 . S
H1374 C1370 0.950 . S
C1375 C1373 1.390 . S
C1375 C1376 1.387 . S
C1375 H1378 0.950 . S
C1376 C1375 1.387 . S
C1376 C1379 1.387 1_556 S
H1377 C1373 0.950 . S
H1378 C1375 0.950 . S
C1379 C1370 1.390 . S
C1379 H1372 0.950 . S
C1379 C1376 1.387 1_554 S
C1380 C1381 1.387 . S
C1380 H1384 0.950 . S
C1380 C1389 1.390 . S
C1381 C1380 1.387 . S
C1381 C1383 1.387 . S
H1382 C1389 0.950 . S
C1383 C1381 1.387 . S
C1383 C1385 1.390 . S
C1383 H1387 0.950 . S
H1384 C1380 0.950 . S
C1385 C1383 1.390 . S
C1385 C1386 1.387 . S
C1385 H1388 0.950 . S
C1386 C1385 1.387 . S
C1386 C1389 1.387 . S
H1387 C1383 0.950 . S
H1388 C1385 0.950 . S
C1389 C1380 1.390 . S
C1389 H1382 0.950 . S
C1389 C1386 1.387 . S
C1390 C1391 1.387 . S
C1390 H1394 0.950 . S
C1390 C1399 1.390 . S
C1391 C1390 1.387 . S
C1391 C1393 1.387 1_554 S
H1392 C1399 0.950 . S
C1393 C1391 1.387 1_556 S
C1393 C1395 1.390 . S
C1393 H1397 0.950 . S
H1394 C1390 0.950 . S
C1395 C1393 1.390 . S
C1395 C1396 1.387 1_556 S
C1395 H1398 0.950 . S
C1396 C1395 1.387 1_554 S
C1396 C1399 1.387 . S
H1397 C1393 0.950 . S
H1398 C1395 0.950 . S
C1399 C1390 1.390 . S
C1399 H1392 0.950 . S
C1399 C1396 1.387 . S
C1400 C1401 1.387 . S
C1400 H1404 0.950 . S
C1400 C1409 1.390 . S
C1401 C1400 1.387 . S
C1401 C1403 1.387 . S
H1402 C1409 0.950 . S
C1403 C1401 1.387 . S
C1403 C1405 1.390 . S
C1403 H1407 0.950 . S
H1404 C1400 0.950 . S
C1405 C1403 1.390 . S
C1405 C1406 1.387 . S
C1405 H1408 0.950 . S
C1406 C1405 1.387 . S
C1406 C1409 1.387 . S
H1407 C1403 0.950 . S
H1408 C1405 0.950 . S
C1409 C1400 1.390 . S
C1409 H1402 0.950 . S
C1409 C1406 1.387 . S
C1410 C1411 1.387 1_455 S
C1410 H1414 0.950 . S
C1410 C1419 1.390 . S
C1411 C1410 1.387 1_655 S
C1411 C1413 1.387 . S
H1412 C1419 0.950 . S
C1413 C1411 1.387 . S
C1413 C1415 1.390 . S
C1413 H1417 0.950 . S
H1414 C1410 0.950 . S
C1415 C1413 1.390 . S
C1415 C1416 1.387 . S
C1415 H1418 0.950 . S
C1416 C1415 1.387 . S
C1416 C1419 1.387 1_655 S
H1417 C1413 0.950 . S
H1418 C1415 0.950 . S
C1419 C1410 1.390 . S
C1419 H1412 0.950 . S
C1419 C1416 1.387 1_455 S
C1420 C1421 1.387 . S
C1420 H1424 0.950 . S
C1420 C1429 1.390 . S
C1421 C1420 1.387 . S
C1421 C1423 1.387 . S
H1422 C1429 0.950 . S
C1423 C1421 1.387 . S
C1423 C1425 1.390 . S
C1423 H1427 0.950 . S
H1424 C1420 0.950 . S
C1425 C1423 1.390 . S
C1425 C1426 1.387 . S
C1425 H1428 0.950 . S
C1426 C1425 1.387 . S
C1426 C1429 1.387 . S
H1427 C1423 0.950 . S
H1428 C1425 0.950 . S
C1429 C1420 1.390 . S
C1429 H1422 0.950 . S
C1429 C1426 1.387 . S
C1430 C1431 1.387 1_655 S
C1430 H1434 0.950 . S
C1430 C1439 1.390 . S
C1431 C1430 1.387 1_455 S
C1431 C1433 1.387 . S
H1432 C1439 0.950 . S
C1433 C1431 1.387 . S
C1433 C1435 1.390 . S
C1433 H1437 0.950 . S
H1434 C1430 0.950 . S
C1435 C1433 1.390 . S
C1435 C1436 1.387 . S
C1435 H1438 0.950 . S
C1436 C1435 1.387 . S
C1436 C1439 1.387 1_455 S
H1437 C1433 0.950 . S
H1438 C1435 0.950 . S
C1439 C1430 1.390 . S
C1439 H1432 0.950 . S
C1439 C1436 1.387 1_655 S
C726 C707 1.486 1_455 S
C721 C8 1.507 . S
C736 C650 1.467 . S
C731 C19 1.474 . S
C746 C688 1.360 1_565 S
C741 C30 1.396 . S
C756 C669 1.466 1_545 S
C751 C41 1.476 . S
C766 C536 1.486 1_545 S
C761 C52 1.506 . S
C771 C63 1.477 . S
C776 C555 1.465 1_554 S
C786 C498 1.466 . S
C781 C74 1.473 . S
C791 C85 1.397 . S
C796 C517 1.360 1_556 S
C806 C631 1.486 1_554 S
C801 C96 1.505 . S
C811 C107 1.476 . S
C816 C593 1.465 1_455 S
C821 C118 1.472 . S
C826 C574 1.468 . S
C836 C612 1.359 1_655 S
C831 C129 1.396 . S
C846 C479 1.488 1_655 S
C841 C140 1.478 . S
C851 C151 1.431 . S
C856 C422 1.470 . S
C866 C460 1.364 1_545 S
C861 C162 1.383 . S
C871 C173 1.455 . S
C876 C441 1.466 1_565 S
C886 C308 1.488 1_565 S
C881 C184 1.477 . S
C896 C327 1.467 1_556 S
C891 C195 1.455 . S
C901 C206 1.430 . S
C906 C270 1.470 . S
C911 C217 1.382 . S
C916 C289 1.363 1_554 S
C921 C228 1.479 . S
C926 C403 1.487 1_556 S
C931 C239 1.455 . S
C936 C365 1.466 1_655 S
C946 C346 1.468 . S
C941 C250 1.434 . S
C951 C261 1.383 . S
C956 C384 1.361 1_455 S
C966 C266 1.444 . S
C961 C7 1.514 . S
C976 C285 1.392 . S
C971 C18 1.481 . S
C981 C29 1.421 . S
C986 C304 1.376 . S
C991 C40 1.420 . S
C996 C323 1.373 . S
C1006 C342 1.447 . S
C1001 C51 1.513 . S
C1011 C62 1.420 . S
C1016 C361 1.376 . S
C1026 C380 1.396 . S
C1021 C73 1.482 . S
C1036 C399 1.380 . S
C1031 C84 1.417 . S
C1046 C418 1.447 . S
C1041 C95 1.513 . S
C1051 C106 1.421 . S
C1056 C437 1.377 . S
C1061 C117 1.481 . S
C1066 C456 1.392 . S
C1071 C128 1.420 . S
C1076 C475 1.379 . S
C1081 C139 1.418 . S
C1086 C494 1.443 . S
C1091 C150 1.359 . S
C1096 C513 1.392 . S
C1101 C161 1.350 . S
C1106 C532 1.377 . S
C1111 C172 1.348 . S
C1116 C551 1.375 . S
C1121 C183 1.421 . S
C1126 C570 1.444 . S
C1136 C589 1.376 . S
C1131 C194 1.347 . S
C1146 C608 1.391 . S
C1141 C205 1.359 . S
C1156 C627 1.379 . S
C1151 C216 1.349 . S
C1166 C646 1.446 . S
C1161 C227 1.422 . S
C1171 C238 1.348 . S
C1176 C665 1.375 . S
C1181 C249 1.364 . S
C1186 C684 1.395 . S
C1191 C260 1.346 . S
C1196 C703 1.375 . S
C1201 C5 1.370 . S
C1206 C427 1.465 . S
C1216 C484 1.489 . S
C1211 C16 1.391 . S
C1221 C27 1.331 . S
C1226 C446 1.474 . S
C1236 C465 1.441 . S
C1231 C38 1.328 . S
C1241 C49 1.365 . S
C1246 C275 1.464 . S
C1251 C60 1.332 . S
C1256 C294 1.441 . S
C1261 C71 1.386 . S
C1266 C313 1.488 . S
C1271 C82 1.331 . S
C1276 C332 1.474 . S
C1286 C351 1.464 . S
C1281 C93 1.365 . S
C1296 C389 1.443 . S
C1291 C104 1.332 . S
C1301 C115 1.391 . S
C1306 C408 1.489 . S
C1311 C126 1.335 . S
C1316 C370 1.475 . S
C1326 C655 1.442 . S
C1321 C137 1.261 . S
C1336 C712 1.466 . S
C1331 C148 1.263 . S
C1341 C159 1.286 1_545 S
C1346 C674 1.441 . S
C1356 C693 1.433 . S
C1351 C170 1.247 1_565 S
C1361 C181 1.260 . S
C1366 C503 1.442 . S
C1371 C192 1.245 1_556 S
C1376 C522 1.430 . S
C1381 C203 1.264 . S
C1386 C541 1.466 . S
C1396 C560 1.441 . S
C1391 C214 1.289 1_554 S
C1406 C579 1.442 . S
C1401 C225 1.262 . S
C1416 C617 1.431 . S
C1411 C236 1.250 1_655 S
C1421 C247 1.261 . S
C1426 C636 1.469 . S
C1436 C598 1.437 . S
C1431 C258 1.289 1_455 S
