# Generated by pormake.
# Topology pyr, (3,6)-cn, num edge types: 1
# Building blocks:
#     Node 0, Type 0, BuildingBlock: KAKCAD_clean_linker_0, # of connection points: 3
#     Node 1, Type 0, BuildingBlock: KAKCAD_clean_linker_0, # of connection points: 3
#     Node 2, Type 0, BuildingBlock: KAKCAD_clean_linker_0, # of connection points: 3
#     Node 3, Type 0, BuildingBlock: KAKCAD_clean_linker_0, # of connection points: 3
#     Node 4, Type 0, BuildingBlock: KAKCAD_clean_linker_0, # of connection points: 3
#     Node 5, Type 0, BuildingBlock: KAKCAD_clean_linker_0, # of connection points: 3
#     Node 6, Type 0, BuildingBlock: KAKCAD_clean_linker_0, # of connection points: 3
#     Node 7, Type 0, BuildingBlock: KAKCAD_clean_linker_0, # of connection points: 3
#     Node 8, Type 1, BuildingBlock: INOVEN_clean_sbu_0, # of connection points: 6
#     Node 9, Type 1, BuildingBlock: INOVEN_clean_sbu_0, # of connection points: 6
#     Node 10, Type 1, BuildingBlock: INOVEN_clean_sbu_0, # of connection points: 6
#     Node 11, Type 1, BuildingBlock: INOVEN_clean_sbu_0, # of connection points: 6
#     Edge 12, Type (0, 1), BuildingBlock: TEMPAE_clean_linker_10, # of connection points: 2
#     Edge 13, Type (0, 1), BuildingBlock: TEMPAE_clean_linker_10, # of connection points: 2
#     Edge 14, Type (0, 1), BuildingBlock: TEMPAE_clean_linker_10, # of connection points: 2
#     Edge 15, Type (0, 1), BuildingBlock: TEMPAE_clean_linker_10, # of connection points: 2
#     Edge 16, Type (0, 1), BuildingBlock: TEMPAE_clean_linker_10, # of connection points: 2
#     Edge 17, Type (0, 1), BuildingBlock: TEMPAE_clean_linker_10, # of connection points: 2
#     Edge 18, Type (0, 1), BuildingBlock: TEMPAE_clean_linker_10, # of connection points: 2
#     Edge 19, Type (0, 1), BuildingBlock: TEMPAE_clean_linker_10, # of connection points: 2
#     Edge 20, Type (0, 1), BuildingBlock: TEMPAE_clean_linker_10, # of connection points: 2
#     Edge 21, Type (0, 1), BuildingBlock: TEMPAE_clean_linker_10, # of connection points: 2
#     Edge 22, Type (0, 1), BuildingBlock: TEMPAE_clean_linker_10, # of connection points: 2
#     Edge 23, Type (0, 1), BuildingBlock: TEMPAE_clean_linker_10, # of connection points: 2
#     Edge 24, Type (0, 1), BuildingBlock: TEMPAE_clean_linker_10, # of connection points: 2
#     Edge 25, Type (0, 1), BuildingBlock: TEMPAE_clean_linker_10, # of connection points: 2
#     Edge 26, Type (0, 1), BuildingBlock: TEMPAE_clean_linker_10, # of connection points: 2
#     Edge 27, Type (0, 1), BuildingBlock: TEMPAE_clean_linker_10, # of connection points: 2
#     Edge 28, Type (0, 1), BuildingBlock: TEMPAE_clean_linker_10, # of connection points: 2
#     Edge 29, Type (0, 1), BuildingBlock: TEMPAE_clean_linker_10, # of connection points: 2
#     Edge 30, Type (0, 1), BuildingBlock: TEMPAE_clean_linker_10, # of connection points: 2
#     Edge 31, Type (0, 1), BuildingBlock: TEMPAE_clean_linker_10, # of connection points: 2
#     Edge 32, Type (0, 1), BuildingBlock: TEMPAE_clean_linker_10, # of connection points: 2
#     Edge 33, Type (0, 1), BuildingBlock: TEMPAE_clean_linker_10, # of connection points: 2
#     Edge 34, Type (0, 1), BuildingBlock: TEMPAE_clean_linker_10, # of connection points: 2
#     Edge 35, Type (0, 1), BuildingBlock: TEMPAE_clean_linker_10, # of connection points: 2
# Relax obj value: 0.091
# Max RMSD: 0.125
# Mean RMSD: 0.058
data_MOF--net-pyr--node1-INOVEN_clean_sbu_0--node2-KAKCAD_clean_linker_0--edge1-TEMPAE_clean_linker_10
_symmetry_space_group_name_H-M    P1
_symmetry_Int_Tables_number       1
_symmetry_cell_setting            triclinic
loop_
_symmetry_equiv_pos_as_xyz
'x, y, z'
_cell_length_a     47.264443
_cell_length_b     50.036871
_cell_length_c     44.798981
_cell_angle_alpha  90.86832
_cell_angle_beta   88.710038
_cell_angle_gamma 100.97309
loop_
_atom_site_label
_atom_site_type_symbol
_atom_site_fract_x
_atom_site_fract_y
_atom_site_fract_z
_atom_type_partial_charge
C0 C 0.23849 0.24102 0.26441 0.0
C1 C 0.24809 0.23043 0.29036 0.0
C2 C 0.25823 0.25447 0.24347 0.0
C3 C 0.288 0.25749 0.24797 0.0
C4 C 0.29763 0.24742 0.27423 0.0
C5 C 0.27783 0.23413 0.29535 0.0
C6 C 0.30875 0.26984 0.22445 0.0
C7 C 0.30485 0.29342 0.21001 0.0
C8 C 0.32223 0.30347 0.18536 0.0
C9 C 0.34433 0.29002 0.17546 0.0
C10 C 0.34909 0.26659 0.19023 0.0
C11 C 0.33095 0.25669 0.21461 0.0
C12 C 0.37141 0.25105 0.17944 0.0
C13 C 0.37725 0.24813 0.14876 0.0
C14 C 0.38542 0.23712 0.19981 0.0
C15 C 0.40298 0.21921 0.18983 0.0
C16 C 0.40782 0.21525 0.15912 0.0
C17 C 0.31459 0.32628 0.16866 0.0
C18 C 0.30555 0.32224 0.13903 0.0
C19 C 0.31085 0.35008 0.18396 0.0
C20 C 0.29608 0.36837 0.17081 0.0
C21 C 0.28439 0.36299 0.14226 0.0
C22 C 0.29048 0.34042 0.12594 0.0
C23 C 0.39545 0.23067 0.13876 0.0
H24 H 0.21566 0.23862 0.26016 0.0
H25 H 0.25018 0.26176 0.22329 0.0
H26 H 0.32047 0.2496 0.27828 0.0
H27 H 0.28576 0.22602 0.31512 0.0
H28 H 0.28738 0.30341 0.21725 0.0
H29 H 0.33298 0.23777 0.22504 0.0
H30 H 0.35762 0.29784 0.15635 0.0
H31 H 0.36688 0.25841 0.13231 0.0
H32 H 0.38217 0.23938 0.22365 0.0
H33 H 0.41175 0.20769 0.20638 0.0
H34 H 0.30795 0.30388 0.12691 0.0
H35 H 0.31777 0.35365 0.20681 0.0
H36 H 0.39923 0.22886 0.11496 0.0
H37 H 0.28169 0.33558 0.10397 0.0
H38 H 0.29235 0.3859 0.18371 0.0
C39 C 0.30923 0.86986 0.73058 0.0
C40 C 0.33814 0.88333 0.72995 0.0
C41 C 0.29505 0.8617 0.70406 0.0
C42 C 0.30963 0.86658 0.67645 0.0
C43 C 0.33867 0.87972 0.67579 0.0
C44 C 0.35276 0.88824 0.70235 0.0
C45 C 0.2944 0.85778 0.64849 0.0
C46 C 0.26729 0.8641 0.64354 0.0
C47 C 0.25165 0.85454 0.61786 0.0
C48 C 0.26388 0.83835 0.59709 0.0
C49 C 0.29164 0.83309 0.60116 0.0
C50 C 0.3067 0.84275 0.62696 0.0
C51 C 0.30506 0.81695 0.57905 0.0
C52 C 0.29073 0.79096 0.57014 0.0
C53 C 0.33356 0.82638 0.56921 0.0
C54 C 0.34833 0.80926 0.5529 0.0
C55 C 0.33494 0.78233 0.54643 0.0
C56 C 0.22365 0.86301 0.61209 0.0
C57 C 0.20618 0.8697 0.63587 0.0
C58 C 0.21512 0.86649 0.58273 0.0
C59 C 0.19085 0.87764 0.5774 0.0
C60 C 0.17508 0.88681 0.60119 0.0
C61 C 0.18266 0.88197 0.63054 0.0
C62 C 0.30561 0.77371 0.55396 0.0
H63 H 0.29743 0.86609 0.75159 0.0
H64 H 0.27271 0.85139 0.70512 0.0
H65 H 0.35031 0.88377 0.65474 0.0
H66 H 0.37509 0.89856 0.70136 0.0
H67 H 0.25897 0.87723 0.65955 0.0
H68 H 0.3277 0.83783 0.63073 0.0
H69 H 0.2522 0.83009 0.57748 0.0
H70 H 0.26873 0.7833 0.57749 0.0
H71 H 0.34484 0.84656 0.57539 0.0
H72 H 0.37081 0.81652 0.54697 0.0
H73 H 0.21108 0.86633 0.65882 0.0
H74 H 0.22774 0.86177 0.56362 0.0
H75 H 0.29482 0.75299 0.54945 0.0
H76 H 0.17131 0.88863 0.64964 0.0
H77 H 0.18513 0.87983 0.55443 0.0
C78 C 0.74485 0.4184 0.90837 0.0
C79 C 0.76801 0.40512 0.91366 0.0
C80 C 0.71962 0.40464 0.89454 0.0
C81 C 0.7165 0.37699 0.88613 0.0
C82 C 0.73964 0.36373 0.89148 0.0
C83 C 0.76506 0.37762 0.90476 0.0
C84 C 0.68906 0.36176 0.8726 0.0
C85 C 0.67591 0.37281 0.84894 0.0
C86 C 0.65018 0.35862 0.8359 0.0
C87 C 0.63778 0.33253 0.84748 0.0
C88 C 0.65055 0.3208 0.87127 0.0
C89 C 0.6761 0.33596 0.88347 0.0
C90 C 0.63757 0.29298 0.88393 0.0
C91 C 0.60749 0.28334 0.88576 0.0
C92 C 0.65537 0.27602 0.89545 0.0
C93 C 0.6437 0.25107 0.90911 0.0
C94 C 0.6137 0.2417 0.91145 0.0
C95 C 0.63679 0.37114 0.81014 0.0
C96 C 0.63956 0.39967 0.80769 0.0
C97 C 0.62164 0.35499 0.7873 0.0
C98 C 0.61011 0.36687 0.76304 0.0
C99 C 0.61349 0.3954 0.76042 0.0
C100 C 0.62835 0.41151 0.78332 0.0
C101 C 0.59579 0.25812 0.89915 0.0
H102 H 0.74634 0.43959 0.91472 0.0
H103 H 0.70226 0.41551 0.89097 0.0
H104 H 0.73816 0.34252 0.88521 0.0
H105 H 0.78227 0.36662 0.90857 0.0
H106 H 0.68643 0.3923 0.84014 0.0
H107 H 0.68576 0.32801 0.90226 0.0
H108 H 0.61816 0.3213 0.83797 0.0
H109 H 0.5928 0.29558 0.87758 0.0
H110 H 0.6786 0.2819 0.89389 0.0
H111 H 0.65834 0.23893 0.91763 0.0
H112 H 0.65022 0.41314 0.82484 0.0
H113 H 0.61916 0.33305 0.78767 0.0
H114 H 0.57258 0.25183 0.90058 0.0
H115 H 0.63102 0.43348 0.78268 0.0
H116 H 0.59908 0.35362 0.7459 0.0
C117 C 0.86556 0.63144 0.26142 0.0
C118 C 0.89568 0.63412 0.25786 0.0
C119 C 0.85331 0.64369 0.28572 0.0
C120 C 0.87069 0.65926 0.30736 0.0
C121 C 0.90084 0.66226 0.30363 0.0
C122 C 0.9131 0.64981 0.27941 0.0
C123 C 0.8573 0.67183 0.33378 0.0
C124 C 0.83224 0.65729 0.34824 0.0
C125 C 0.81886 0.66858 0.37266 0.0
C126 C 0.83126 0.6951 0.38251 0.0
C127 C 0.85639 0.7103 0.36889 0.0
C128 C 0.86925 0.69827 0.34456 0.0
C129 C 0.86881 0.73868 0.38036 0.0
C130 C 0.85064 0.75597 0.39167 0.0
C131 C 0.8988 0.74856 0.38113 0.0
C132 C 0.91013 0.77448 0.39325 0.0
C133 C 0.8919 0.79149 0.40518 0.0
C134 C 0.79195 0.6529 0.3879 0.0
C135 C 0.77117 0.63445 0.3719 0.0
C136 C 0.78641 0.65658 0.41867 0.0
C137 C 0.76089 0.643 0.43263 0.0
C138 C 0.74019 0.62479 0.41656 0.0
C139 C 0.74586 0.62047 0.38606 0.0
C140 C 0.86192 0.78169 0.40399 0.0
H141 H 0.85127 0.6194 0.24564 0.0
H142 H 0.83006 0.64106 0.28741 0.0
H143 H 0.91505 0.67387 0.31977 0.0
H144 H 0.93636 0.65268 0.27747 0.0
H145 H 0.82356 0.63672 0.34087 0.0
H146 H 0.8881 0.70982 0.33336 0.0
H147 H 0.82123 0.70407 0.40106 0.0
H148 H 0.82745 0.74969 0.39107 0.0
H149 H 0.91369 0.73605 0.3729 0.0
H150 H 0.9333 0.78116 0.39314 0.0
H151 H 0.77406 0.63116 0.34819 0.0
H152 H 0.80191 0.66982 0.43227 0.0
H153 H 0.84691 0.79366 0.41312 0.0
H154 H 0.73032 0.60674 0.37292 0.0
H155 H 0.75751 0.64652 0.45625 0.0
C156 C 0.72694 0.76772 0.72812 0.0
C157 C 0.7329 0.79535 0.72017 0.0
C158 C 0.71099 0.7594 0.75419 0.0
C159 C 0.70074 0.77855 0.77278 0.0
C160 C 0.70488 0.80574 0.76352 0.0
C161 C 0.72073 0.81402 0.73762 0.0
C162 C 0.68979 0.77161 0.80363 0.0
C163 C 0.70413 0.75605 0.82163 0.0
C164 C 0.69841 0.75404 0.85251 0.0
C165 C 0.67859 0.76878 0.86554 0.0
C166 C 0.66375 0.7845 0.84778 0.0
C167 C 0.66851 0.78436 0.81663 0.0
C168 C 0.64568 0.80323 0.86153 0.0
C169 C 0.63102 0.79753 0.88909 0.0
C170 C 0.64401 0.82792 0.84753 0.0
C171 C 0.62825 0.84612 0.86043 0.0
C172 C 0.61455 0.84101 0.88849 0.0
C173 C 0.71546 0.73846 0.87087 0.0
C174 C 0.72229 0.71398 0.85973 0.0
C175 C 0.72719 0.74893 0.89817 0.0
C176 C 0.74631 0.73586 0.91319 0.0
C177 C 0.75436 0.71217 0.90114 0.0
C178 C 0.74162 0.70116 0.87449 0.0
C179 C 0.61597 0.81628 0.90255 0.0
H180 H 0.73567 0.75277 0.71493 0.0
H181 H 0.70781 0.73821 0.7605 0.0
H182 H 0.6978 0.8212 0.77744 0.0
H183 H 0.72525 0.83554 0.73264 0.0
H184 H 0.72133 0.74699 0.81192 0.0
H185 H 0.65666 0.79535 0.80231 0.0
H186 H 0.67547 0.76858 0.88954 0.0
H187 H 0.63129 0.7787 0.90054 0.0
H188 H 0.65548 0.83383 0.82679 0.0
H189 H 0.6272 0.86445 0.84833 0.0
H190 H 0.71332 0.7051 0.839 0.0
H191 H 0.72259 0.76782 0.90735 0.0
H192 H 0.60607 0.81156 0.92433 0.0
H193 H 0.7474 0.68316 0.86424 0.0
H194 H 0.75521 0.74467 0.93397 0.0
C195 C 0.77577 0.22426 0.27115 0.0
C196 C 0.76291 0.24379 0.25734 0.0
C197 C 0.78907 0.22982 0.29853 0.0
C198 C 0.79028 0.25526 0.31277 0.0
C199 C 0.77862 0.27535 0.29818 0.0
C200 C 0.7648 0.26956 0.27084 0.0
C201 C 0.80088 0.25936 0.34392 0.0
C202 C 0.82246 0.24592 0.35368 0.0
C203 C 0.82786 0.24412 0.38422 0.0
C204 C 0.81342 0.25837 0.40494 0.0
C205 C 0.79291 0.27319 0.39554 0.0
C206 C 0.7866 0.27338 0.36504 0.0
C207 C 0.77586 0.28621 0.41765 0.0
C208 C 0.76463 0.27251 0.44377 0.0
C209 C 0.7691 0.31171 0.41176 0.0
C210 C 0.75046 0.32272 0.4308 0.0
C211 C 0.73825 0.30854 0.4563 0.0
C212 C 0.8452 0.22434 0.39474 0.0
C213 C 0.84287 0.19877 0.3805 0.0
C214 C 0.86179 0.22955 0.42058 0.0
C215 C 0.87444 0.20921 0.43275 0.0
C216 C 0.87104 0.18331 0.41913 0.0
C217 C 0.85583 0.17863 0.3924 0.0
C218 C 0.74604 0.28359 0.46293 0.0
H219 H 0.77408 0.20399 0.26163 0.0
H220 H 0.79694 0.21348 0.30921 0.0
H221 H 0.77946 0.29529 0.30824 0.0
H222 H 0.75506 0.28497 0.26059 0.0
H223 H 0.83416 0.23561 0.33755 0.0
H224 H 0.76909 0.2829 0.35813 0.0
H225 H 0.81713 0.257 0.42859 0.0
H226 H 0.76921 0.25268 0.44881 0.0
H227 H 0.77765 0.32286 0.39197 0.0
H228 H 0.74462 0.34179 0.42473 0.0
H229 H 0.82995 0.19374 0.36083 0.0
H230 H 0.86438 0.24912 0.4319 0.0
H231 H 0.73718 0.27228 0.4825 0.0
H232 H 0.85331 0.15912 0.38097 0.0
H233 H 0.88592 0.21349 0.45344 0.0
C234 C 0.25597 0.63356 0.19266 0.0
C235 C 0.25227 0.63666 0.16179 0.0
C236 C 0.28137 0.64631 0.20695 0.0
C237 C 0.30421 0.66259 0.19093 0.0
C238 C 0.30068 0.66533 0.15999 0.0
C239 C 0.27523 0.65274 0.14576 0.0
C240 C 0.33114 0.6772 0.20641 0.0
C241 C 0.34262 0.66551 0.23091 0.0
C242 C 0.36722 0.67935 0.24632 0.0
C243 C 0.38063 0.70557 0.23586 0.0
C244 C 0.37028 0.71744 0.21074 0.0
C245 C 0.34539 0.7031 0.19671 0.0
C246 C 0.38517 0.74472 0.19853 0.0
C247 C 0.39477 0.76735 0.21729 0.0
C248 C 0.38899 0.74857 0.16748 0.0
C249 C 0.40151 0.77407 0.15556 0.0
C250 C 0.41052 0.79702 0.17415 0.0
C251 C 0.37881 0.66617 0.27291 0.0
C252 C 0.36066 0.64663 0.29071 0.0
C253 C 0.40815 0.67254 0.28079 0.0
C254 C 0.41874 0.65999 0.30514 0.0
C255 C 0.40067 0.64004 0.32255 0.0
C256 C 0.37135 0.63369 0.31461 0.0
C257 C 0.40706 0.79305 0.20533 0.0
H258 H 0.23925 0.62111 0.20598 0.0
H259 H 0.28281 0.64373 0.23078 0.0
H260 H 0.31768 0.6772 0.14649 0.0
H261 H 0.27349 0.6561 0.12212 0.0
H262 H 0.33264 0.64512 0.23739 0.0
H263 H 0.33663 0.71264 0.17843 0.0
H264 H 0.3993 0.71685 0.24704 0.0
H265 H 0.39205 0.76542 0.24127 0.0
H266 H 0.38241 0.73167 0.15218 0.0
H267 H 0.40434 0.77559 0.13157 0.0
H268 H 0.33784 0.6412 0.28648 0.0
H269 H 0.42335 0.68704 0.26794 0.0
H270 H 0.41323 0.80994 0.22069 0.0
H271 H 0.35633 0.61832 0.32655 0.0
H272 H 0.44129 0.66628 0.31027 0.0
C273 C 0.13606 0.26282 0.67437 0.0
C274 C 0.10592 0.25478 0.67209 0.0
C275 C 0.1485 0.28793 0.68735 0.0
C276 C 0.13142 0.30633 0.69832 0.0
C277 C 0.10124 0.29822 0.69646 0.0
C278 C 0.08873 0.27292 0.68361 0.0
C279 C 0.14527 0.33399 0.71063 0.0
C280 C 0.17163 0.34785 0.69814 0.0
C281 C 0.18544 0.37346 0.70903 0.0
C282 C 0.17248 0.38552 0.73304 0.0
C283 C 0.14618 0.37236 0.74636 0.0
C284 C 0.13265 0.34669 0.73469 0.0
C285 C 0.13333 0.38541 0.77272 0.0
C286 C 0.15085 0.39792 0.79599 0.0
C287 C 0.10366 0.38598 0.77475 0.0
C288 C 0.09205 0.39912 0.79889 0.0
C289 C 0.10961 0.41186 0.82217 0.0
C290 C 0.21355 0.38734 0.69517 0.0
C291 C 0.23622 0.37309 0.69034 0.0
C292 C 0.21776 0.41457 0.6859 0.0
C293 C 0.24364 0.42697 0.67153 0.0
C294 C 0.26643 0.41271 0.66645 0.0
C295 C 0.26227 0.3856 0.67654 0.0
C296 C 0.13923 0.4107 0.8203 0.0
H297 H 0.15032 0.24993 0.66558 0.0
H298 H 0.17175 0.29286 0.68875 0.0
H299 H 0.08717 0.31164 0.70438 0.0
H300 H 0.06547 0.26758 0.68286 0.0
H301 H 0.1813 0.33902 0.67918 0.0
H302 H 0.11278 0.33622 0.74504 0.0
H303 H 0.18304 0.40524 0.74148 0.0
H304 H 0.1737 0.39757 0.79562 0.0
H305 H 0.08945 0.37685 0.75722 0.0
H306 H 0.06929 0.39973 0.79883 0.0
H307 H 0.23388 0.35219 0.69751 0.0
H308 H 0.20067 0.42609 0.68901 0.0
H309 H 0.15363 0.41946 0.8378 0.0
H310 H 0.27922 0.37389 0.67404 0.0
H311 H 0.24539 0.44762 0.66383 0.0
Gd312 Gd 0.01293 0.03502 0.50902 0.0
Gd313 Gd 0.97777 1.0147 0.56436 0.0
C314 C 0.02153 0.07472 0.5662 0.0
C315 C 0.03254 0.05195 0.45701 0.0
C316 C 0.05535 0.07332 0.44479 0.0
C317 C 0.08238 0.08008 0.45822 0.0
C318 C 0.05005 0.08697 0.41904 0.0
C319 C 0.09904 0.11303 0.41928 0.0
C320 C 0.07169 0.10672 0.40641 0.0
C321 C 0.10413 0.09968 0.44544 0.0
C322 C 0.04023 1.00979 0.54875 0.0
C323 C 0.96929 0.97509 0.50737 0.0
C324 C 0.95865 0.9958 0.61563 0.0
C325 C 0.93955 0.97051 0.62502 0.0
C326 C 0.91801 0.97183 0.64662 0.0
C327 C 0.94093 0.94547 0.61096 0.0
C328 C 0.89887 0.92343 0.63976 0.0
C329 C 0.92086 0.92209 0.61841 0.0
C330 C 0.89779 0.9486 0.65383 0.0
C331 C 0.94981 0.03862 0.5241 0.0
O332 O 0.02569 0.07302 0.53696 0.0
O333 O 1.00602 0.05413 0.58133 0.0
O334 O 0.04092 0.03204 0.47083 0.0
O335 O 0.01093 0.06028 0.47053 0.0
O336 O 0.05277 0.03109 0.53399 0.0
O337 O 0.01451 1.00259 0.54094 0.0
O338 O 0.96671 0.97633 0.53679 0.0
O339 O 0.98317 0.99634 0.49201 0.0
O340 O 0.94624 1.01232 0.60044 0.0
O341 O 0.9841 0.9936 0.60478 0.0
O342 O 0.93709 1.01883 0.54089 0.0
O343 O 0.97556 0.0463 0.53161 0.0
H344 H 0.08681 0.07001 0.47836 0.0
H345 H 0.02927 0.08207 0.40847 0.0
H346 H 0.06727 0.1165 0.38607 0.0
H347 H 0.12494 0.10437 0.45594 0.0
H348 H 0.91634 0.99105 0.65734 0.0
H349 H 0.95719 0.94404 0.59389 0.0
H350 H 0.9225 0.90304 0.60733 0.0
H351 H 0.88081 0.95059 0.66986 0.0
Gd352 Gd 0.54375 1.02521 0.06099 0.0
Gd353 Gd 0.48821 1.0167 0.03541 0.0
C354 C 0.4966 0.0573 0.0881 0.0
C355 C 0.59263 0.04338 0.08588 0.0
C356 C 0.60764 0.06862 0.09982 0.0
C357 C 0.63176 0.0678 0.11702 0.0
C358 C 0.598 0.09329 0.09673 0.0
C359 C 0.6363 0.11601 0.12883 0.0
C360 C 0.61233 0.11691 0.11108 0.0
C361 C 0.64601 0.09127 0.13136 0.0
C362 C 0.50951 0.97757 0.07919 0.0
C363 C 0.53715 0.98633 1.00528 0.0
C364 C 0.43878 0.99729 1.01231 0.0
C365 C 0.42912 0.98349 0.98407 0.0
C366 C 0.4096 0.994 0.96672 0.0
C367 C 0.43984 0.96064 0.97363 0.0
C368 C 0.41152 0.95909 0.92871 0.0
C369 C 0.431 0.94848 0.94627 0.0
C370 C 0.40099 0.98204 0.93926 0.0
C371 C 0.52187 0.06413 1.0162 0.0
O372 O 0.5239 0.05944 0.0802 0.0
O373 O 0.47746 0.03691 0.07784 0.0
O374 O 0.56998 0.03047 0.10042 0.0
O375 O 0.58881 0.04406 0.05713 0.0
O376 O 0.53641 0.98039 0.07145 0.0
O377 O 0.50163 1.00035 0.07735 0.0
O378 O 0.50964 0.98798 1.007 0.0
O379 O 0.55618 1.00142 1.02239 0.0
O380 O 0.45144 1.02275 1.01011 0.0
O381 O 0.45145 0.98378 0.03097 0.0
O382 O 0.49478 0.06103 1.02339 0.0
O383 O 0.53028 0.0416 1.01879 0.0
H384 H 0.6395 0.04892 0.1195 0.0
H385 H 0.57932 0.09421 0.08348 0.0
H386 H 0.60435 0.13568 0.10884 0.0
H387 H 0.66471 0.09006 0.14445 0.0
H388 H 0.40129 1.01175 0.97426 0.0
H389 H 0.45512 0.95221 0.98649 0.0
H390 H 0.43929 0.93066 0.93901 0.0
H391 H 0.38643 0.9911 0.92608 0.0
Gd392 Gd 0.50276 0.49092 0.52187 0.0
Gd393 Gd 0.50649 0.5377 0.55966 0.0
C394 C 0.53045 0.48986 0.58883 0.0
C395 C 0.51259 0.44881 0.49215 0.0
C396 C 0.53178 0.42943 0.49633 0.0
C397 C 0.52606 0.40395 0.48207 0.0
C398 C 0.55618 0.43642 0.51415 0.0
C399 C 0.57011 0.39327 0.50178 0.0
C400 C 0.57513 0.41843 0.51698 0.0
C401 C 0.54514 0.38598 0.4847 0.0
C402 C 0.45246 0.49179 0.55224 0.0
C403 C 0.47879 0.53927 0.49287 0.0
C404 C 0.4945 0.57995 0.58667 0.0
C405 C 0.47623 0.59862 0.57638 0.0
C406 C 0.48783 0.62642 0.5733 0.0
C407 C 0.44804 0.58846 0.56674 0.0
C408 C 0.44321 0.63367 0.55169 0.0
C409 C 0.43164 0.60587 0.55468 0.0
C410 C 0.47147 0.64382 0.56094 0.0
C411 C 0.55665 0.53723 0.52902 0.0
O412 O 0.52956 0.48042 0.56093 0.0
O413 O 0.51982 0.5118 0.59535 0.0
O414 O 0.49157 0.4477 0.51174 0.0
O415 O 0.52536 0.47373 0.48617 0.0
O416 O 0.4542 0.48552 0.52416 0.0
O417 O 0.4775 0.49755 0.56285 0.0
O418 O 0.48108 0.54939 0.52039 0.0
O419 O 0.48793 0.51649 0.48652 0.0
O420 O 0.51849 0.58053 0.57143 0.0
O421 O 0.48127 0.55519 0.59288 0.0
O422 O 0.55498 0.54337 0.55719 0.0
O423 O 0.53155 0.5312 0.51848 0.0
H424 H 0.5072 0.3982 0.4684 0.0
H425 H 0.56107 0.4561 0.52518 0.0
H426 H 0.59439 0.42474 0.52994 0.0
H427 H 0.5407 0.36662 0.47291 0.0
H428 H 0.50963 0.63461 0.58017 0.0
H429 H 0.43867 0.567 0.56817 0.0
H430 H 0.40993 0.59762 0.5476 0.0
H431 H 0.48068 0.6653 0.55919 0.0
Gd432 Gd 1.00886 0.49806 0.05606 0.0
Gd433 Gd 1.0035 0.55353 1.02714 0.0
C434 C 0.06252 0.55098 0.06125 0.0
C435 C 0.02637 0.45469 0.07207 0.0
C436 C 0.05465 0.44697 0.07479 0.0
C437 C 0.05707 0.42422 0.09162 0.0
C438 C 0.0794 0.46247 0.0613 0.0
C439 C 0.10888 0.43243 0.08165 0.0
C440 C 0.10632 0.45528 0.06474 0.0
C441 C 0.08392 0.41699 0.09503 0.0
C442 C 0.97864 0.52969 0.08892 0.0
C443 C 0.95298 0.49913 1.01627 0.0
C444 C 0.98495 0.59834 1.02075 0.0
C445 C 0.9618 0.60774 1.00462 0.0
C446 C 0.96768 0.63268 0.98965 0.0
C447 C 0.93328 0.59305 1.00593 0.0
C448 C 0.91668 0.62908 0.97955 0.0
C449 C 0.91094 0.60373 0.99371 0.0
C450 C 0.94532 0.64319 0.97702 0.0
C451 C 0.02627 0.5217 0.98605 0.0
O452 O 0.05327 0.52425 0.06335 0.0
O453 O 0.04651 0.56706 0.04939 0.0
O454 O 0.02079 0.47321 0.09109 0.0
O455 O 0.0185 0.45852 0.04486 0.0
O456 O 0.97229 0.50323 0.08778 0.0
O457 O 1.00128 0.53783 0.07333 0.0
O458 O 0.96077 0.52609 1.01563 0.0
O459 O 0.96908 0.4836 1.02887 0.0
O460 O 1.00675 0.59251 1.00494 0.0
O461 O 0.97641 0.58113 0.04235 0.0
O462 O 0.02146 0.54587 0.9805 0.0
O463 O 0.01869 0.51659 1.01284 0.0
H464 H 0.03821 0.41216 0.10234 0.0
H465 H 0.07792 0.48013 0.04818 0.0
H466 H 0.12507 0.46747 0.05399 0.0
H467 H 0.08522 0.39956 0.10862 0.0
H468 H 0.98946 0.64437 0.98843 0.0
H469 H 0.92808 0.57362 1.01709 0.0
H470 H 0.88908 0.59231 0.99561 0.0
H471 H 0.95026 0.66282 0.96625 0.0
C472 C 0.22873 0.2195 0.3422 0.0
C473 C 0.22705 0.21446 0.31137 0.0
C474 C 0.20871 0.20438 0.36211 0.0
C475 C 0.18683 0.18359 0.35083 0.0
C476 C 0.18523 0.17832 0.31972 0.0
C477 C 0.20529 0.19391 0.30037 0.0
C478 C 0.21084 0.21072 0.39512 0.0
C479 C 0.16242 0.1561 0.30687 0.0
C480 C 0.14958 0.12553 0.39948 0.0
C481 C 0.12251 0.1325 0.40449 0.0
C482 C 0.17117 0.1425 0.38294 0.0
C483 C 0.16555 0.16709 0.37137 0.0
C484 C 0.13867 0.17479 0.37747 0.0
C485 C 0.11739 0.1573 0.39384 0.0
C486 C 0.19947 0.13348 0.37666 0.0
C487 C 0.13203 0.20102 0.36579 0.0
H488 H 0.24546 0.23551 0.35068 0.0
H489 H 0.20423 0.18973 0.27656 0.0
H490 H 0.19048 0.21627 0.40365 0.0
H491 H 0.21386 0.19242 0.40742 0.0
H492 H 0.22899 0.22768 0.40025 0.0
H493 H 0.16433 0.15447 0.28217 0.0
H494 H 0.16407 0.1362 0.31659 0.0
H495 H 0.14066 0.16004 0.31278 0.0
H496 H 0.15349 0.10623 0.40746 0.0
H497 H 0.09656 0.16286 0.39801 0.0
H498 H 0.21777 0.14991 0.38267 0.0
H499 H 0.20164 0.12922 0.35242 0.0
H500 H 0.20123 0.11486 0.38912 0.0
H501 H 0.14941 0.21839 0.3717 0.0
H502 H 0.11117 0.20519 0.37475 0.0
H503 H 0.13107 0.19997 0.34107 0.0
C504 C 0.35093 0.87554 0.78246 0.0
C505 C 0.35253 0.89304 0.7581 0.0
C506 C 0.3625 0.88507 0.81002 0.0
C507 C 0.37552 0.91284 0.81332 0.0
C508 C 0.3779 0.93041 0.78854 0.0
C509 C 0.36652 0.92023 0.76111 0.0
C510 C 0.36001 0.86564 0.83583 0.0
C511 C 0.39131 0.96022 0.79133 0.0
C512 C 0.37368 0.94454 0.89045 0.0
C513 C 0.40225 0.94644 0.89943 0.0
C514 C 0.36477 0.93367 0.86247 0.0
C515 C 0.38477 0.92396 0.84317 0.0
C516 C 0.41347 0.92522 0.85228 0.0
C517 C 0.42194 0.93665 0.88022 0.0
C518 C 0.334 0.93281 0.85344 0.0
C519 C 0.43526 0.91473 0.83239 0.0
H520 H 0.34035 0.85443 0.77997 0.0
H521 H 0.36752 0.93379 0.74231 0.0
H522 H 0.38136 0.86667 0.84606 0.0
H523 H 0.34537 0.87158 0.85335 0.0
H524 H 0.35153 0.84426 0.8289 0.0
H525 H 0.39301 0.97076 0.76952 0.0
H526 H 0.3781 0.97044 0.80694 0.0
H527 H 0.41316 0.96268 0.80077 0.0
H528 H 0.35816 0.95152 0.90536 0.0
H529 H 0.44414 0.93834 0.88679 0.0
H530 H 0.32325 0.91148 0.84886 0.0
H531 H 0.33366 0.94435 0.83254 0.0
H532 H 0.32126 0.94152 0.87092 0.0
H533 H 0.427 0.89319 0.82602 0.0
H534 H 0.45635 0.91609 0.84334 0.0
H535 H 0.43874 0.9266 0.81147 0.0
C536 C 0.61764 0.43198 0.72065 0.0
C537 C 0.60174 0.40838 0.73409 0.0
C538 C 0.60685 0.44463 0.6964 0.0
C539 C 0.57911 0.43388 0.68509 0.0
C540 C 0.56299 0.40999 0.69844 0.0
C541 C 0.57448 0.39753 0.72242 0.0
C542 C 0.62522 0.4697 0.68291 0.0
C543 C 0.53322 0.39782 0.68772 0.0
C544 C 0.53978 0.48259 0.64345 0.0
C545 C 0.54323 0.47554 0.61322 0.0
C546 C 0.55102 0.46917 0.66676 0.0
C547 C 0.56665 0.44813 0.66013 0.0
C548 C 0.57039 0.441 0.62962 0.0
C549 C 0.55856 0.45455 0.60673 0.0
C550 C 0.546 0.47748 0.69868 0.0
C551 C 0.58706 0.41905 0.62109 0.0
H552 H 0.63886 0.44051 0.72892 0.0
H553 H 0.56169 0.37954 0.73254 0.0
H554 H 0.62826 0.46651 0.65857 0.0
H555 H 0.61417 0.48727 0.68574 0.0
H556 H 0.64674 0.47498 0.69326 0.0
H557 H 0.52354 0.37899 0.69988 0.0
H558 H 0.51886 0.41284 0.69071 0.0
H559 H 0.53408 0.39293 0.66352 0.0
H560 H 0.52791 0.49856 0.64905 0.0
H561 H 0.56153 0.44876 0.58364 0.0
H562 H 0.56695 0.48488 0.70952 0.0
H563 H 0.53471 0.45961 0.71144 0.0
H564 H 0.53298 0.49375 0.70033 0.0
H565 H 0.60926 0.42443 0.62974 0.0
H566 H 0.58838 0.41595 0.59651 0.0
H567 H 0.57675 0.39952 0.63144 0.0
C568 C 0.93263 0.60792 0.23606 0.0
C569 C 0.90869 0.62037 0.23205 0.0
C570 C 0.94438 0.59419 0.21237 0.0
C571 C 0.93221 0.59283 0.18356 0.0
C572 C 0.90839 0.60576 0.17921 0.0
C573 C 0.89694 0.61918 0.20334 0.0
C574 C 0.96956 0.58063 0.21837 0.0
C575 C 0.89477 0.60523 0.14901 0.0
C576 C 0.9774 0.57431 0.11629 0.0
C577 C 0.96609 0.54648 0.11196 0.0
C578 C 0.96643 0.58969 0.13908 0.0
C579 C 0.94368 0.57704 0.15839 0.0
C580 C 0.93206 0.549 0.15386 0.0
C581 C 0.94327 0.5342 0.13081 0.0
C582 C 0.97944 0.61949 0.1427 0.0
C583 C 0.90795 0.53443 0.1737 0.0
H584 H 0.94183 0.60829 0.25803 0.0
H585 H 0.87878 0.62898 0.19961 0.0
H586 H 0.96329 0.55837 0.21436 0.0
H587 H 0.98775 0.58835 0.20278 0.0
H588 H 0.97719 0.58413 0.24163 0.0
H589 H 0.87715 0.61708 0.14883 0.0
H590 H 0.9113 0.61363 0.13191 0.0
H591 H 0.88585 0.5839 0.14232 0.0
H592 H 0.99511 0.58405 0.10206 0.0
H593 H 0.93433 0.51275 0.1278 0.0
H594 H 0.98934 0.62322 0.16496 0.0
H595 H 0.96237 0.63188 0.14161 0.0
H596 H 0.99617 0.62663 0.12529 0.0
H597 H 0.91498 0.5355 0.19723 0.0
H598 H 0.90104 0.51269 0.16722 0.0
H599 H 0.88906 0.54456 0.17278 0.0
C600 C 0.41613 0.17884 0.12231 0.0
C601 C 0.42409 0.1939 0.14855 0.0
C602 C 0.42981 0.15746 0.11314 0.0
C603 C 0.45136 0.15023 0.13111 0.0
C604 C 0.45979 0.16539 0.1574 0.0
C605 C 0.44646 0.18731 0.1655 0.0
C606 C 0.42077 0.14226 0.08447 0.0
C607 C 0.48238 0.15802 0.17739 0.0
C608 C 0.46175 0.07724 0.12013 0.0
C609 C 0.48682 0.08081 0.10227 0.0
C610 C 0.45075 0.0998 0.13092 0.0
C611 C 0.46456 0.1264 0.12259 0.0
C612 C 0.49011 0.13006 0.10481 0.0
C613 C 0.50122 0.10722 0.09533 0.0
C614 C 0.42394 0.09513 0.15058 0.0
C615 C 0.5049 0.15794 0.09449 0.0
H616 H 0.39861 0.18318 0.1092 0.0
H617 H 0.45342 0.19908 0.18539 0.0
H618 H 0.43994 0.14138 0.06999 0.0
H619 H 0.41029 0.12099 0.0895 0.0
H620 H 0.40547 0.15186 0.0718 0.0
H621 H 0.48644 0.17177 0.19716 0.0
H622 H 0.47538 0.13681 0.18526 0.0
H623 H 0.50296 0.15885 0.16474 0.0
H624 H 0.45065 0.0568 0.12546 0.0
H625 H 0.5204 0.11001 0.08111 0.0
H626 H 0.40584 0.101 0.13855 0.0
H627 H 0.42748 0.10808 0.17099 0.0
H628 H 0.41747 0.07351 0.15734 0.0
H629 H 0.49023 0.16661 0.08004 0.0
H630 H 0.52519 0.15736 0.08168 0.0
H631 H 0.50993 0.17195 0.11386 0.0
C632 C 0.1548 0.91983 0.57025 0.0
C633 C 0.15239 0.90305 0.59542 0.0
C634 C 0.13447 0.93607 0.56486 0.0
C635 C 0.11187 0.93674 0.5859 0.0
C636 C 0.10931 0.92026 0.61154 0.0
C637 C 0.12918 0.90312 0.61563 0.0
C638 C 0.13739 0.95273 0.53669 0.0
C639 C 0.08598 0.92117 0.63491 0.0
C640 C 0.08116 1.00071 0.57832 0.0
C641 C 0.05637 0.99088 0.56209 0.0
C642 C 0.09833 0.98284 0.58838 0.0
C643 C 0.09107 0.95482 0.58072 0.0
C644 C 0.06548 0.94475 0.56511 0.0
C645 C 0.04809 0.9629 0.55649 0.0
C646 C 0.12485 0.9941 0.60607 0.0
C647 C 0.05757 0.91525 0.55549 0.0
H648 H 0.17293 0.92086 0.55484 0.0
H649 H 0.12653 0.88996 0.63485 0.0
H650 H 0.11676 0.94889 0.52458 0.0
H651 H 0.14241 0.97473 0.54246 0.0
H652 H 0.15467 0.94805 0.52139 0.0
H653 H 0.08751 0.90773 0.65408 0.0
H654 H 0.08744 0.94234 0.64339 0.0
H655 H 0.06442 0.91491 0.62497 0.0
H656 H 0.08728 1.02239 0.58278 0.0
H657 H 0.02891 0.95539 0.54373 0.0
H658 H 0.14441 0.99424 0.5919 0.0
H659 H 0.1263 0.98104 0.62557 0.0
H660 H 0.12491 1.01522 0.61414 0.0
H661 H 0.07354 0.91076 0.53852 0.0
H662 H 0.03578 0.9103 0.54569 0.0
H663 H 0.05825 0.90162 0.57462 0.0
C664 C 0.79348 0.43552 0.95457 0.0
C665 C 0.79499 0.41969 0.92859 0.0
C666 C 0.81863 0.44859 0.9693 0.0
C667 C 0.84628 0.44644 0.95756 0.0
C668 C 0.84792 0.43087 0.93103 0.0
C669 C 0.82242 0.41752 0.91714 0.0
C670 C 0.81557 0.46441 0.99775 0.0
C671 C 0.87672 0.42837 0.91718 0.0
C672 C 0.91187 0.50004 0.98116 0.0
C673 C 0.92532 0.48585 1.00179 0.0
C674 C 0.88641 0.48754 0.96661 0.0
C675 C 0.87341 0.4602 0.9731 0.0
C676 C 0.88661 0.44595 0.9943 0.0
C677 C 0.9124 0.45876 1.00806 0.0
C678 C 0.87364 0.50352 0.94386 0.0
C679 C 0.87342 0.41706 1.00255 0.0
H680 H 0.77249 0.43717 0.96385 0.0
H681 H 0.82397 0.40562 0.89696 0.0
H682 H 0.82618 0.45584 1.01624 0.0
H683 H 0.82656 0.48591 0.99512 0.0
H684 H 0.79266 0.46399 1.00422 0.0
H685 H 0.87447 0.41636 0.89601 0.0
H686 H 0.88958 0.44891 0.91256 0.0
H687 H 0.88907 0.41843 0.93299 0.0
H688 H 0.92157 0.52089 0.97589 0.0
H689 H 0.92233 0.44753 1.02402 0.0
H690 H 0.85119 0.5048 0.95052 0.0
H691 H 0.87278 0.49289 0.92189 0.0
H692 H 0.88625 0.5245 0.9412 0.0
H693 H 0.85083 0.41595 1.01052 0.0
H694 H 0.88557 0.40906 1.02022 0.0
H695 H 0.87283 0.4036 0.98258 0.0
C696 C 0.69634 0.62541 0.44968 0.0
C697 C 0.71276 0.61067 0.43161 0.0
C698 C 0.67066 0.61253 0.46422 0.0
C699 C 0.66122 0.58395 0.46133 0.0
C700 C 0.67776 0.56893 0.44317 0.0
C701 C 0.70305 0.58246 0.42831 0.0
C702 C 0.65358 0.62959 0.48273 0.0
C703 C 0.66905 0.53843 0.43987 0.0
C704 C 0.61057 0.55038 0.52388 0.0
C705 C 0.58342 0.54668 0.51068 0.0
C706 C 0.63601 0.56152 0.50781 0.0
C707 C 0.63443 0.56988 0.47786 0.0
C708 C 0.60706 0.56577 0.46426 0.0
C709 C 0.582 0.55395 0.48067 0.0
C710 C 0.6646 0.5648 0.52313 0.0
C711 C 0.60408 0.57476 0.43268 0.0
H712 H 0.70343 0.64723 0.45215 0.0
H713 H 0.71566 0.57082 0.41462 0.0
H714 H 0.63106 0.62637 0.47491 0.0
H715 H 0.65269 0.62322 0.5064 0.0
H716 H 0.66301 0.65166 0.48168 0.0
H717 H 0.68408 0.52965 0.42493 0.0
H718 H 0.66843 0.52882 0.4621 0.0
H719 H 0.64704 0.53303 0.43078 0.0
H720 H 0.6119 0.54476 0.54701 0.0
H721 H 0.56114 0.55138 0.4703 0.0
H722 H 0.67408 0.58675 0.52565 0.0
H723 H 0.67995 0.55539 0.50935 0.0
H724 H 0.6625 0.55543 0.54559 0.0
H725 H 0.61138 0.59714 0.43122 0.0
H726 H 0.58151 0.56944 0.42495 0.0
H727 H 0.61805 0.56525 0.41723 0.0
C728 C 0.24121 0.38428 0.15131 0.0
C729 C 0.26266 0.37838 0.13147 0.0
C730 C 0.21827 0.39559 0.14128 0.0
C731 C 0.21659 0.40117 0.11057 0.0
C732 C 0.23877 0.39641 0.09056 0.0
C733 C 0.26153 0.38496 0.10123 0.0
C734 C 0.19501 0.40023 0.16338 0.0
C735 C 0.23786 0.40237 0.05771 0.0
C736 C 0.14009 0.39741 0.08486 0.0
C737 C 0.13743 0.42484 0.08596 0.0
C738 C 0.16616 0.38957 0.09154 0.0
C739 C 0.19027 0.40968 0.09937 0.0
C740 C 0.18816 0.43753 0.09916 0.0
C741 C 0.16172 0.44479 0.09251 0.0
C742 C 0.1675 0.35965 0.09145 0.0
C743 C 0.21341 0.45955 0.10726 0.0
H744 H 0.24153 0.37881 0.1746 0.0
H745 H 0.27814 0.38068 0.08581 0.0
H746 H 0.19111 0.42132 0.16168 0.0
H747 H 0.17451 0.38622 0.15814 0.0
H748 H 0.2006 0.39675 0.18677 0.0
H749 H 0.25819 0.40034 0.04572 0.0
H750 H 0.2198 0.38803 0.0474 0.0
H751 H 0.23384 0.42325 0.05447 0.0
H752 H 0.12157 0.38194 0.07922 0.0
H753 H 0.15979 0.46603 0.09358 0.0
H754 H 0.17083 0.3532 0.1145 0.0
H755 H 0.18605 0.35582 0.07752 0.0
H756 H 0.1475 0.34675 0.08289 0.0
H757 H 0.21788 0.45835 0.13136 0.0
H758 H 0.20932 0.48024 0.1027 0.0
H759 H 0.23309 0.45663 0.09465 0.0
C760 C 0.57791 0.19674 0.91516 0.0
C761 C 0.60139 0.21515 0.92692 0.0
C762 C 0.56643 0.17179 0.92936 0.0
C763 C 0.57821 0.16488 0.95647 0.0
C764 C 0.60184 0.18343 0.96851 0.0
C765 C 0.61318 0.20803 0.9536 0.0
C766 C 0.54153 0.15276 0.91531 0.0
C767 C 0.61487 0.17752 0.99756 0.0
C768 C 0.5284 0.11436 1.00732 0.0
C769 C 0.53815 0.08979 1.00221 0.0
C770 C 0.5416 0.13879 0.9933 0.0
C771 C 0.56499 0.13896 0.97283 0.0
C772 C 0.57523 0.11425 0.96783 0.0
C773 C 0.56194 0.0901 0.98277 0.0
C774 C 0.5302 0.16445 1.00023 0.0
C775 C 0.59981 0.11315 0.9461 0.0
H776 H 0.5687 0.20165 0.89447 0.0
H777 H 0.63104 0.22205 0.96327 0.0
H778 H 0.54705 0.13234 0.9118 0.0
H779 H 0.52239 0.15022 0.93054 0.0
H780 H 0.53563 0.16029 0.89354 0.0
H781 H 0.63345 0.19363 1.00381 0.0
H782 H 0.59832 0.17575 1.01577 0.0
H783 H 0.62221 0.15777 0.99595 0.0
H784 H 0.51017 0.11449 1.02243 0.0
H785 H 0.56961 0.0713 0.97851 0.0
H786 H 0.52134 0.17165 0.97976 0.0
H787 H 0.54796 0.18084 1.00771 0.0
H788 H 0.513 0.16136 1.01785 0.0
H789 H 0.59385 0.11864 0.92349 0.0
H790 H 0.60563 0.09266 0.9449 0.0
H791 H 0.61909 0.12826 0.95262 0.0
C792 C 0.92991 0.82366 0.43473 0.0
C793 C 0.90386 0.81905 0.4191 0.0
C794 C 0.94087 0.84908 0.44842 0.0
C795 C 0.92541 0.87072 0.44699 0.0
C796 C 0.89923 0.86632 0.4312 0.0
C797 C 0.88897 0.84084 0.41736 0.0
C798 C 0.96897 0.8527 0.4647 0.0
C799 C 0.88181 0.88854 0.42911 0.0
C800 C 0.93943 0.92739 0.50674 0.0
C801 C 0.95738 0.94877 0.4915 0.0
C802 C 0.92877 0.90218 0.49255 0.0
C803 C 0.93639 0.89775 0.4623 0.0
C804 C 0.9545 0.91924 0.44678 0.0
C805 C 0.96457 0.9444 0.46142 0.0
C806 C 0.9093 0.88021 0.51006 0.0
C807 C 0.96356 0.91554 0.4147 0.0
H808 H 0.94162 0.80719 0.43685 0.0
H809 H 0.86921 0.83813 0.40497 0.0
H810 H 0.98436 0.87042 0.45565 0.0
H811 H 0.9653 0.85702 0.48869 0.0
H812 H 0.97906 0.83441 0.46284 0.0
H813 H 0.86179 0.88198 0.41627 0.0
H814 H 0.87583 0.89495 0.45184 0.0
H815 H 0.89492 0.90667 0.41822 0.0
H816 H 0.93359 0.93033 0.52993 0.0
H817 H 0.97853 0.96054 0.44935 0.0
H818 H 0.91923 0.86188 0.51114 0.0
H819 H 0.88844 0.8741 0.49861 0.0
H820 H 0.90496 0.88689 0.53321 0.0
H821 H 0.97518 0.89827 0.41284 0.0
H822 H 0.97777 0.93406 0.4057 0.0
H823 H 0.94427 0.91043 0.40056 0.0
C824 C 0.37769 0.7612 0.55294 0.0
C825 C 0.35263 0.76211 0.53719 0.0
C826 C 0.39233 0.73963 0.5489 0.0
C827 C 0.38184 0.71855 0.52829 0.0
C828 C 0.35778 0.72032 0.51068 0.0
C829 C 0.34314 0.74198 0.51564 0.0
C830 C 0.41773 0.73841 0.56843 0.0
C831 C 0.34657 0.69864 0.48784 0.0
C832 C 0.43538 0.6718 0.51935 0.0
C833 C 0.42508 0.65247 0.54124 0.0
C834 C 0.41983 0.69205 0.5124 0.0
C835 C 0.39402 0.69337 0.52851 0.0
C836 C 0.38264 0.67276 0.54918 0.0
C837 C 0.39824 0.65239 0.55509 0.0
C838 C 0.43205 0.71306 0.4894 0.0
C839 C 0.35533 0.67357 0.56708 0.0
H840 H 0.38485 0.77647 0.56996 0.0
H841 H 0.32385 0.74278 0.50331 0.0
H842 H 0.41223 0.72082 0.58368 0.0
H843 H 0.43661 0.73537 0.55457 0.0
H844 H 0.42407 0.75719 0.58215 0.0
H845 H 0.33225 0.7059 0.47171 0.0
H846 H 0.3646 0.692 0.47533 0.0
H847 H 0.33401 0.68058 0.49932 0.0
H848 H 0.45601 0.67159 0.50836 0.0
H849 H 0.39034 0.63743 0.57207 0.0
H850 H 0.44295 0.73192 0.50084 0.0
H851 H 0.41467 0.71839 0.47574 0.0
H852 H 0.44808 0.7058 0.47435 0.0
H853 H 0.35919 0.69102 0.58302 0.0
H854 H 0.34793 0.65463 0.57996 0.0
H855 H 0.33779 0.6766 0.55224 0.0
C856 C 0.75227 0.82843 0.67991 0.0
C857 C 0.75503 0.80578 0.6969 0.0
C858 C 0.7762 0.84387 0.66514 0.0
C859 C 0.80333 0.83597 0.66676 0.0
C860 C 0.80532 0.81105 0.68028 0.0
C861 C 0.78119 0.79635 0.69552 0.0
C862 C 0.77306 0.87021 0.65076 0.0
C863 C 0.8336 0.80132 0.68129 0.0
C864 C 0.86479 0.88066 0.62435 0.0
C865 C 0.87649 0.89906 0.64689 0.0
C866 C 0.84186 0.85902 0.63063 0.0
C867 C 0.82993 0.8562 0.65993 0.0
C868 C 0.84235 0.87409 0.68293 0.0
C869 C 0.86568 0.89499 0.6762 0.0
C870 C 0.82979 0.83992 0.60568 0.0
C871 C 0.83031 0.87184 0.71454 0.0
H872 H 0.73187 0.83534 0.68006 0.0
H873 H 0.78363 0.77879 0.70838 0.0
H874 H 0.78333 0.88758 0.66496 0.0
H875 H 0.78415 0.87238 0.62862 0.0
H876 H 0.7501 0.87163 0.64792 0.0
H877 H 0.83035 0.77927 0.68638 0.0
H878 H 0.84567 0.80507 0.65975 0.0
H879 H 0.84712 0.81274 0.69895 0.0
H880 H 0.87285 0.88365 0.60157 0.0
H881 H 0.87513 0.90857 0.69391 0.0
H882 H 0.80987 0.84576 0.5975 0.0
H883 H 0.82404 0.81863 0.61358 0.0
H884 H 0.84531 0.84074 0.58656 0.0
H885 H 0.80749 0.87441 0.71479 0.0
H886 H 0.84256 0.88734 0.72979 0.0
H887 H 0.83072 0.85136 0.72344 0.0
C888 C 0.7549 0.22015 0.20802 0.0
C889 C 0.74492 0.23559 0.23089 0.0
C890 C 0.73585 0.20557 0.18743 0.0
C891 C 0.70614 0.20657 0.18981 0.0
C892 C 0.69657 0.22463 0.21065 0.0
C893 C 0.71613 0.23895 0.23108 0.0
C894 C 0.74705 0.18682 0.16531 0.0
C895 C 0.66519 0.22671 0.21348 0.0
C896 C 0.65896 0.16568 0.131 0.0
C897 C 0.6512 0.14045 0.14518 0.0
C898 C 0.67576 0.18805 0.14568 0.0
C899 C 0.68499 0.18491 0.17506 0.0
C900 C 0.67589 0.15986 0.18992 0.0
C901 C 0.65905 0.13803 0.17483 0.0
C902 C 0.68468 0.21453 0.1293 0.0
C903 C 0.68501 0.15566 0.22137 0.0
H904 H 0.77729 0.21792 0.20757 0.0
H905 H 0.70832 0.25091 0.24872 0.0
H906 H 0.74034 0.16546 0.17279 0.0
H907 H 0.73786 0.18828 0.14297 0.0
H908 H 0.77094 0.19147 0.16319 0.0
H909 H 0.66228 0.24551 0.22571 0.0
H910 H 0.65538 0.22648 0.19119 0.0
H911 H 0.65329 0.20892 0.22595 0.0
H912 H 0.6529 0.16763 0.10805 0.0
H913 H 0.65249 0.11873 0.18608 0.0
H914 H 0.70766 0.21696 0.12222 0.0
H915 H 0.68261 0.23207 0.14408 0.0
H916 H 0.67163 0.21525 0.10911 0.0
H917 H 0.70878 0.15761 0.22187 0.0
H918 H 0.67494 0.13535 0.23017 0.0
H919 H 0.67911 0.17151 0.23658 0.0
C920 C 0.39405 0.61481 0.37255 0.0
C921 C 0.41216 0.6259 0.3485 0.0
C922 C 0.40416 0.60084 0.3962 0.0
C923 C 0.43352 0.59826 0.39692 0.0
C924 C 0.45215 0.60995 0.3733 0.0
C925 C 0.4413 0.6231 0.34944 0.0
C926 C 0.38319 0.58862 0.42046 0.0
C927 C 0.48379 0.60865 0.37327 0.0
C928 C 0.46456 0.58179 0.47218 0.0
C929 C 0.46642 0.55415 0.46872 0.0
C930 C 0.45434 0.59639 0.44915 0.0
C931 C 0.44466 0.58303 0.42196 0.0
C932 C 0.44582 0.55494 0.41868 0.0
C933 C 0.45698 0.54108 0.44172 0.0
C934 C 0.45407 0.62624 0.45407 0.0
C935 C 0.43504 0.53938 0.39077 0.0
H936 H 0.37174 0.61711 0.37324 0.0
H937 H 0.45589 0.63085 0.33128 0.0
H938 H 0.38382 0.5667 0.42291 0.0
H939 H 0.38948 0.59879 0.44212 0.0
H940 H 0.36071 0.59066 0.41585 0.0
H941 H 0.49592 0.62002 0.35442 0.0
H942 H 0.49344 0.6172 0.39455 0.0
H943 H 0.48654 0.58715 0.37173 0.0
H944 H 0.47173 0.59231 0.49279 0.0
H945 H 0.45802 0.51976 0.43864 0.0
H946 H 0.43167 0.629 0.45883 0.0
H947 H 0.46199 0.63811 0.43383 0.0
H948 H 0.46754 0.6348 0.47321 0.0
H949 H 0.41238 0.54125 0.38695 0.0
H950 H 0.4361 0.51744 0.39205 0.0
H951 H 0.44803 0.54815 0.37112 0.0
C952 C 0.06876 0.41796 0.85855 0.0
C953 C 0.09733 0.42651 0.84795 0.0
C954 C 0.0569 0.43196 0.88197 0.0
C955 C 0.07391 0.45505 0.89585 0.0
C956 C 0.10288 0.46345 0.8858 0.0
C957 C 0.11405 0.44938 0.86203 0.0
C958 C 0.02586 0.42227 0.89151 0.0
C959 C 0.12207 0.48775 0.89983 0.0
C960 C 0.0375 0.50971 0.93306 0.0
C961 C 0.03775 0.50371 0.96358 0.0
C962 C 0.04861 0.49383 0.91103 0.0
C963 C 0.06099 0.47143 0.91946 0.0
C964 C 0.06137 0.46527 0.95034 0.0
C965 C 0.04956 0.48129 0.97194 0.0
C966 C 0.04716 0.50116 0.87861 0.0
C967 C 0.07472 0.44201 0.96064 0.0
H968 H 0.05549 0.40016 0.84863 0.0
H969 H 0.1359 0.45683 0.85411 0.0
H970 H 0.02444 0.41792 0.91576 0.0
H971 H 0.01338 0.43854 0.88771 0.0
H972 H 0.01559 0.40366 0.87916 0.0
H973 H 0.14467 0.49049 0.89126 0.0
H974 H 0.11368 0.50649 0.8952 0.0
H975 H 0.12201 0.48551 0.92444 0.0
H976 H 0.02838 0.52692 0.92627 0.0
H977 H 0.05019 0.47663 0.99542 0.0
H978 H 0.03572 0.48335 0.86579 0.0
H979 H 0.06925 0.50668 0.86887 0.0
H980 H 0.03593 0.51849 0.87557 0.0
H981 H 0.06381 0.42268 0.95014 0.0
H982 H 0.07335 0.43974 0.9853 0.0
H983 H 0.09773 0.44532 0.95345 0.0
C984 C 0.61067 0.88984 0.89875 0.0
C985 C 0.60005 0.86195 0.90336 0.0
C986 C 0.59795 0.90988 0.91296 0.0
C987 C 0.57468 0.90206 0.93335 0.0
C988 C 0.56357 0.87407 0.93803 0.0
C989 C 0.57608 0.85437 0.92265 0.0
C990 C 0.61014 0.93951 0.90692 0.0
C991 C 0.53921 0.86493 0.96016 0.0
C992 C 0.56992 0.9538 0.99498 0.0
C993 C 0.54653 0.96516 0.98622 0.0
C994 C 0.57861 0.93271 0.97842 0.0
C995 C 0.56411 0.92321 0.9519 0.0
C996 C 0.5405 0.93468 0.9428 0.0
C997 C 0.53168 0.95528 0.96038 0.0
C998 C 0.60334 0.92055 0.98941 0.0
C999 C 0.525 0.92561 0.91424 0.0
H1000 H 0.62955 0.89627 0.88462 0.0
H1001 H 0.56717 0.83302 0.92605 0.0
H1002 H 0.59253 0.95062 0.90228 0.0
H1003 H 0.62143 0.94911 0.92693 0.0
H1004 H 0.62566 0.94214 0.88771 0.0
H1005 H 0.53198 0.84246 0.96007 0.0
H1006 H 0.54631 0.87162 0.98298 0.0
H1007 H 0.52054 0.87449 0.95523 0.0
H1008 H 0.5811 0.96099 1.01529 0.0
H1009 H 0.5135 0.96398 0.95366 0.0
H1010 H 0.62166 0.92452 0.97316 0.0
H1011 H 0.59666 0.89813 0.9913 0.0
H1012 H 0.61104 0.929 1.01149 0.0
H1013 H 0.54019 0.93033 0.89495 0.0
H1014 H 0.50632 0.93572 0.91097 0.0
H1015 H 0.51723 0.90325 0.91417 0.0
C1016 C 0.90852 0.16567 0.44782 0.0
C1017 C 0.88193 0.16078 0.43347 0.0
C1018 C 0.91846 0.14464 0.46221 0.0
C1019 C 0.90157 0.11804 0.46189 0.0
C1020 C 0.87491 0.11286 0.44718 0.0
C1021 C 0.8653 0.13434 0.43337 0.0
C1022 C 0.94694 0.1509 0.47792 0.0
C1023 C 0.85646 0.08468 0.44619 0.0
C1024 C 0.9413 0.06087 0.47719 0.0
C1025 C 0.93452 0.05608 0.50737 0.0
C1026 C 0.92998 0.08047 0.46176 0.0
C1027 C 0.91177 0.09568 0.47719 0.0
C1028 C 0.90414 0.09018 0.50755 0.0
C1029 C 0.91555 0.07022 0.52229 0.0
C1030 C 0.93816 0.08543 0.42926 0.0
C1031 C 0.88499 0.10616 0.52477 0.0
H1032 H 0.92166 0.18594 0.44769 0.0
H1033 H 0.84444 0.13044 0.4229 0.0
H1034 H 0.94373 0.14543 0.50183 0.0
H1035 H 0.96194 0.13847 0.46805 0.0
H1036 H 0.95727 0.17274 0.47643 0.0
H1037 H 0.83674 0.08389 0.4329 0.0
H1038 H 0.86902 0.06999 0.43636 0.0
H1039 H 0.84988 0.07783 0.46917 0.0
H1040 H 0.95567 0.04945 0.46576 0.0
H1041 H 0.91067 0.06649 0.5458 0.0
H1042 H 0.95076 0.10637 0.42653 0.0
H1043 H 0.91849 0.08381 0.41576 0.0
H1044 H 0.95123 0.0708 0.42018 0.0
H1045 H 0.89568 0.1279 0.52608 0.0
H1046 H 0.88012 0.09852 0.54783 0.0
H1047 H 0.86439 0.10524 0.51307 0.0
C1048 C 0.22499 0.61421 0.11661 0.0
C1049 C 0.22467 0.6235 0.14646 0.0
C1050 C 0.19936 0.6024 0.10188 0.0
C1051 C 0.17235 0.59933 0.1172 0.0
C1052 C 0.17182 0.60836 0.14735 0.0
C1053 C 0.19773 0.62036 0.16146 0.0
C1054 C 0.20123 0.59323 0.06977 0.0
C1055 C 0.14373 0.60547 0.1648 0.0
C1056 C 0.1021 0.59149 0.07319 0.0
C1057 C 0.09136 0.56328 0.07416 0.0
C1058 C 0.12842 0.60334 0.08663 0.0
C1059 C 0.14469 0.58679 0.10174 0.0
C1060 C 0.13417 0.55826 0.10243 0.0
C1061 C 0.10787 0.54694 0.0887 0.0
C1062 C 0.13872 0.63374 0.0849 0.0
C1063 C 0.15048 0.53963 0.11817 0.0
H1064 H 0.24541 0.61587 0.10465 0.0
H1065 H 0.19671 0.62771 0.18424 0.0
H1066 H 0.19251 0.57108 0.06779 0.0
H1067 H 0.18786 0.6038 0.0557 0.0
H1068 H 0.2237 0.59732 0.06074 0.0
H1069 H 0.14684 0.61287 0.18822 0.0
H1070 H 0.12916 0.61709 0.15384 0.0
H1071 H 0.13274 0.5838 0.16505 0.0
H1072 H 0.08978 0.60448 0.06212 0.0
H1073 H 0.10006 0.52515 0.08977 0.0
H1074 H 0.16071 0.63833 0.07473 0.0
H1075 H 0.14006 0.64279 0.1077 0.0
H1076 H 0.12424 0.64377 0.07158 0.0
H1077 H 0.17285 0.54223 0.10908 0.0
H1078 H 0.14008 0.51785 0.1159 0.0
H1079 H 0.15191 0.54507 0.14227 0.0
C1080 C 0.30487 0.45397 0.6525 0.0
C1081 C 0.29413 0.42573 0.65048 0.0
C1082 C 0.33045 0.4663 0.63726 0.0
C1083 C 0.34639 0.45014 0.61993 0.0
C1084 C 0.33598 0.42167 0.61808 0.0
C1085 C 0.31002 0.40996 0.63292 0.0
C1086 C 0.34032 0.49677 0.63955 0.0
C1087 C 0.35227 0.40345 0.60024 0.0
C1088 C 0.39844 0.48038 0.55694 0.0
C1089 C 0.4254 0.48352 0.57045 0.0
C1090 C 0.37263 0.47053 0.57302 0.0
C1091 C 0.37364 0.46289 0.6033 0.0
C1092 C 0.40084 0.46643 0.61718 0.0
C1093 C 0.42629 0.47698 0.60074 0.0
C1094 C 0.34426 0.46784 0.55738 0.0
C1095 C 0.40319 0.45815 0.64914 0.0
H1096 H 0.29346 0.4666 0.66623 0.0
H1097 H 0.30203 0.38832 0.6303 0.0
H1098 H 0.36197 0.50163 0.64956 0.0
H1099 H 0.34227 0.50574 0.61693 0.0
H1100 H 0.32527 0.50665 0.6533 0.0
H1101 H 0.34224 0.38157 0.60221 0.0
H1102 H 0.35313 0.40901 0.57632 0.0
H1103 H 0.37484 0.40633 0.60788 0.0
H1104 H 0.39753 0.48549 0.5336 0.0
H1105 H 0.44702 0.47917 0.61134 0.0
H1106 H 0.32935 0.47829 0.57057 0.0
H1107 H 0.33393 0.44605 0.55556 0.0
H1108 H 0.3469 0.47655 0.53459 0.0
H1109 H 0.38959 0.46862 0.66403 0.0
H1110 H 0.42573 0.46293 0.65703 0.0
H1111 H 0.39504 0.43594 0.6513 0.0
C1112 C 0.80124 0.71631 0.92801 0.0
C1113 C 0.77708 0.69976 0.9152 0.0
C1114 C 0.82373 0.70506 0.93948 0.0
C1115 C 0.82239 0.67658 0.93761 0.0
C1116 C 0.79799 0.6597 0.92509 0.0
C1117 C 0.77553 0.67143 0.91437 0.0
C1118 C 0.84918 0.72371 0.95315 0.0
C1119 C 0.79586 0.62925 0.92246 0.0
C1120 C 0.8931 0.65089 0.93943 0.0
C1121 C 0.89263 0.64123 0.96865 0.0
C1122 C 0.87025 0.66224 0.92894 0.0
C1123 C 0.84671 0.66448 0.94837 0.0
C1124 C 0.84636 0.65506 0.97805 0.0
C1125 C 0.86921 0.64331 0.98773 0.0
C1126 C 0.87116 0.6716 0.89699 0.0
C1127 C 0.82199 0.6576 0.99963 0.0
H1128 H 0.80302 0.73822 0.92839 0.0
H1129 H 0.75678 0.65834 0.90511 0.0
H1130 H 0.85279 0.71683 0.97594 0.0
H1131 H 0.86897 0.72294 0.93965 0.0
H1132 H 0.84615 0.74518 0.95454 0.0
H1133 H 0.77548 0.61897 0.91206 0.0
H1134 H 0.81427 0.62465 0.90881 0.0
H1135 H 0.79717 0.62046 0.94486 0.0
H1136 H 0.91115 0.64914 0.92464 0.0
H1137 H 0.86902 0.63613 1.01046 0.0
H1138 H 0.8706 0.69364 0.89639 0.0
H1139 H 0.85187 0.6607 0.88519 0.0
H1140 H 0.89076 0.66802 0.88463 0.0
H1141 H 0.81991 0.67925 1.00193 0.0
H1142 H 0.82525 0.64974 1.02211 0.0
H1143 H 0.80131 0.64621 0.99092 0.0
C1144 C 0.44454 0.84342 0.17592 0.0
C1145 C 0.42333 0.82468 0.16095 0.0
C1146 C 0.45706 0.86891 0.16342 0.0
C1147 C 0.44868 0.8762 0.13487 0.0
C1148 C 0.4271 0.85761 0.11976 0.0
C1149 C 0.41465 0.83245 0.13294 0.0
C1150 C 0.47976 0.88791 0.18064 0.0
C1151 C 0.41747 0.86409 0.08925 0.0
C1152 C 0.46715 0.95123 0.10952 0.0
C1153 C 0.49274 0.95186 0.09273 0.0
C1154 C 0.45265 0.92696 0.12341 0.0
C1155 C 0.46359 0.90244 0.12012 0.0
C1156 C 0.48908 0.90298 0.10261 0.0
C1157 C 0.5033 0.92751 0.08945 0.0
C1158 C 0.42581 0.92766 0.14201 0.0
C1159 C 0.5015 0.87756 0.09778 0.0
H1160 H 0.45198 0.838 0.19728 0.0
H1161 H 0.39791 0.81885 0.12113 0.0
H1162 H 0.50073 0.89041 0.16838 0.0
H1163 H 0.47398 0.90835 0.1827 0.0
H1164 H 0.48252 0.88033 0.20337 0.0
H1165 H 0.40004 0.84793 0.0806 0.0
H1166 H 0.40964 0.88363 0.09005 0.0
H1167 H 0.43601 0.8666 0.07323 0.0
H1168 H 0.45877 0.96984 0.11233 0.0
H1169 H 0.52292 0.92758 0.0764 0.0
H1170 H 0.4291 0.92174 0.16527 0.0
H1171 H 0.40747 0.91266 0.13316 0.0
H1172 H 0.4199 0.94811 0.14241 0.0
H1173 H 0.5074 0.87005 0.11952 0.0
H1174 H 0.52094 0.88106 0.0829 0.0
H1175 H 0.4851 0.86122 0.08782 0.0
C1176 C 0.06749 0.22507 0.64073 0.0
C1177 C 0.09276 0.22786 0.65751 0.0
C1178 C 0.05548 0.20023 0.6264 0.0
C1179 C 0.06903 0.17734 0.62839 0.0
C1180 C 0.0944 0.17992 0.64535 0.0
C1181 C 0.10575 0.20487 0.65975 0.0
C1182 C 0.02832 0.19858 0.60883 0.0
C1183 C 0.10979 0.15629 0.64813 0.0
C1184 C 0.02586 0.10549 0.61207 0.0
C1185 C 0.03403 0.10075 0.58236 0.0
C1186 C 0.03686 0.1302 0.62716 0.0
C1187 C 0.0569 0.15086 0.61251 0.0
C1188 C 0.06544 0.14608 0.58262 0.0
C1189 C 0.05386 0.12133 0.56796 0.0
C1190 C 0.02681 0.1343 0.65882 0.0
C1191 C 0.08694 0.16717 0.56607 0.0
H1192 H 0.05726 0.2425 0.63823 0.0
H1193 H 0.12486 0.20621 0.67301 0.0
H1194 H 0.03265 0.19414 0.585 0.0
H1195 H 0.01147 0.18162 0.61715 0.0
H1196 H 0.01971 0.21773 0.61026 0.0
H1197 H 0.12939 0.16149 0.66188 0.0
H1198 H 0.0951 0.13873 0.65837 0.0
H1199 H 0.11618 0.14963 0.62565 0.0
H1200 H 0.0105 0.08998 0.62354 0.0
H1201 H 0.06052 0.11807 0.54509 0.0
H1202 H 0.0167 0.15257 0.66022 0.0
H1203 H 0.0455 0.13798 0.67388 0.0
H1204 H 0.011 0.11649 0.6671 0.0
H1205 H 0.07858 0.18636 0.5646 0.0
H1206 H 0.09172 0.16034 0.5431 0.0
H1207 H 0.10739 0.17188 0.57847 0.0
C1208 C 0.71722 0.34663 0.47887 0.0
C1209 C 0.71535 0.31863 0.47385 0.0
C1210 C 0.69326 0.357 0.48927 0.0
C1211 C 0.66695 0.33885 0.49519 0.0
C1212 C 0.66581 0.31043 0.49324 0.0
C1213 C 0.69 0.30062 0.48235 0.0
C1214 C 0.69541 0.38747 0.49122 0.0
C1215 C 0.63835 0.29042 0.5001 0.0
C1216 C 0.60645 0.3714 0.52726 0.0
C1217 C 0.59245 0.37619 0.50114 0.0
C1218 C 0.62999 0.35798 0.52604 0.0
C1219 C 0.6399 0.34969 0.49799 0.0
C1220 C 0.62511 0.35359 0.47173 0.0
C1221 C 0.6015 0.36668 0.47367 0.0
C1222 C 0.64484 0.35362 0.55454 0.0
C1223 C 0.63509 0.34517 0.44132 0.0
H1224 H 0.73701 0.3606 0.47312 0.0
H1225 H 0.68829 0.27893 0.47857 0.0
H1226 H 0.68326 0.39415 0.4727 0.0
H1227 H 0.68564 0.39335 0.51247 0.0
H1228 H 0.71809 0.39859 0.48961 0.0
H1229 H 0.64248 0.26956 0.50348 0.0
H1230 H 0.62731 0.29683 0.52035 0.0
H1231 H 0.62344 0.2897 0.4812 0.0
H1232 H 0.59929 0.37858 0.54857 0.0
H1233 H 0.59097 0.37068 0.45341 0.0
H1234 H 0.6659 0.36784 0.55547 0.0
H1235 H 0.6492 0.33263 0.55525 0.0
H1236 H 0.63183 0.35721 0.57466 0.0
H1237 H 0.65704 0.3568 0.43618 0.0
H1238 H 0.62053 0.34875 0.4233 0.0
H1239 H 0.63634 0.32326 0.44114 0.0
loop_
_geom_bond_atom_site_label_1
_geom_bond_atom_site_label_2
_geom_bond_distance
_geom_bond_site_symmetry_2
_ccdc_geom_bond_type
C0 C1 1.386 . S
C0 C2 1.397 . S
C0 H24 0.931 . S
C1 C0 1.386 . S
C1 C5 1.397 . S
C2 C0 1.397 . S
C2 C3 1.384 . S
C2 H25 0.930 . S
C3 C2 1.384 . S
C3 C4 1.377 . S
C3 C6 1.481 . S
C4 C3 1.377 . S
C4 C5 1.389 . S
C4 H26 0.929 . S
C5 C1 1.397 . S
C5 C4 1.389 . S
C5 H27 0.931 . S
C6 C3 1.481 . S
C6 C7 1.387 . S
C6 C11 1.390 . S
C7 C6 1.387 . S
C7 C8 1.401 . S
C7 H28 0.930 . S
C8 C7 1.401 . S
C8 C9 1.376 . S
C8 C17 1.511 . S
C9 C8 1.376 . S
C9 C10 1.392 . S
C9 H30 0.931 . S
C10 C9 1.392 . S
C10 C11 1.361 . S
C10 C12 1.500 . S
C11 C6 1.390 . S
C11 C10 1.361 . S
C11 H29 0.931 . S
C12 C10 1.500 . S
C12 C13 1.371 . S
C12 C14 1.365 . S
C13 C12 1.371 . S
C13 C23 1.386 . S
C13 H31 0.931 . S
C14 C12 1.365 . S
C14 C15 1.409 . S
C14 H32 0.929 . S
C15 C14 1.409 . S
C15 C16 1.380 . S
C15 H33 0.930 . S
C16 C15 1.380 . S
C16 C23 1.357 . S
C17 C8 1.511 . S
C17 C18 1.341 . S
C17 C19 1.371 . S
C18 C17 1.341 . S
C18 C22 1.394 . S
C18 H34 0.930 . S
C19 C17 1.371 . S
C19 C20 1.392 . S
C19 H35 0.931 . S
C20 C19 1.392 . S
C20 C21 1.331 . S
C20 H38 0.932 . S
C21 C20 1.331 . S
C21 C22 1.336 . S
C22 C18 1.394 . S
C22 C21 1.336 . S
C22 H37 0.929 . S
C23 C13 1.386 . S
C23 C16 1.357 . S
C23 H36 0.928 . S
H24 C0 0.931 . S
H25 C2 0.930 . S
H26 C4 0.929 . S
H27 C5 0.931 . S
H28 C7 0.930 . S
H29 C11 0.931 . S
H30 C9 0.931 . S
H31 C13 0.931 . S
H32 C14 0.929 . S
H33 C15 0.930 . S
H34 C18 0.930 . S
H35 C19 0.931 . S
H36 C23 0.928 . S
H37 C22 0.929 . S
H38 C20 0.932 . S
C39 C40 1.386 . S
C39 C41 1.397 . S
C39 H63 0.931 . S
C40 C39 1.386 . S
C40 C44 1.397 . S
C41 C39 1.397 . S
C41 C42 1.384 . S
C41 H64 0.930 . S
C42 C41 1.384 . S
C42 C43 1.377 . S
C42 C45 1.481 . S
C43 C42 1.377 . S
C43 C44 1.389 . S
C43 H65 0.929 . S
C44 C40 1.397 . S
C44 C43 1.389 . S
C44 H66 0.931 . S
C45 C42 1.481 . S
C45 C46 1.387 . S
C45 C50 1.390 . S
C46 C45 1.387 . S
C46 C47 1.401 . S
C46 H67 0.930 . S
C47 C46 1.401 . S
C47 C48 1.376 . S
C47 C56 1.511 . S
C48 C47 1.376 . S
C48 C49 1.392 . S
C48 H69 0.931 . S
C49 C48 1.392 . S
C49 C50 1.361 . S
C49 C51 1.500 . S
C50 C45 1.390 . S
C50 C49 1.361 . S
C50 H68 0.931 . S
C51 C49 1.500 . S
C51 C52 1.371 . S
C51 C53 1.365 . S
C52 C51 1.371 . S
C52 C62 1.386 . S
C52 H70 0.931 . S
C53 C51 1.365 . S
C53 C54 1.409 . S
C53 H71 0.929 . S
C54 C53 1.409 . S
C54 C55 1.380 . S
C54 H72 0.930 . S
C55 C54 1.380 . S
C55 C62 1.357 . S
C56 C47 1.511 . S
C56 C57 1.341 . S
C56 C58 1.371 . S
C57 C56 1.341 . S
C57 C61 1.394 . S
C57 H73 0.930 . S
C58 C56 1.371 . S
C58 C59 1.392 . S
C58 H74 0.931 . S
C59 C58 1.392 . S
C59 C60 1.331 . S
C59 H77 0.932 . S
C60 C59 1.331 . S
C60 C61 1.336 . S
C61 C57 1.394 . S
C61 C60 1.336 . S
C61 H76 0.929 . S
C62 C52 1.386 . S
C62 C55 1.357 . S
C62 H75 0.928 . S
H63 C39 0.931 . S
H64 C41 0.930 . S
H65 C43 0.929 . S
H66 C44 0.931 . S
H67 C46 0.930 . S
H68 C50 0.931 . S
H69 C48 0.931 . S
H70 C52 0.931 . S
H71 C53 0.929 . S
H72 C54 0.930 . S
H73 C57 0.930 . S
H74 C58 0.931 . S
H75 C62 0.928 . S
H76 C61 0.929 . S
H77 C59 0.932 . S
C78 C79 1.386 . S
C78 C80 1.397 . S
C78 H102 0.931 . S
C79 C78 1.386 . S
C79 C83 1.397 . S
C80 C78 1.397 . S
C80 C81 1.384 . S
C80 H103 0.930 . S
C81 C80 1.384 . S
C81 C82 1.377 . S
C81 C84 1.481 . S
C82 C81 1.377 . S
C82 C83 1.389 . S
C82 H104 0.929 . S
C83 C79 1.397 . S
C83 C82 1.389 . S
C83 H105 0.931 . S
C84 C81 1.481 . S
C84 C85 1.387 . S
C84 C89 1.390 . S
C85 C84 1.387 . S
C85 C86 1.401 . S
C85 H106 0.930 . S
C86 C85 1.401 . S
C86 C87 1.376 . S
C86 C95 1.511 . S
C87 C86 1.376 . S
C87 C88 1.392 . S
C87 H108 0.931 . S
C88 C87 1.392 . S
C88 C89 1.361 . S
C88 C90 1.500 . S
C89 C84 1.390 . S
C89 C88 1.361 . S
C89 H107 0.931 . S
C90 C88 1.500 . S
C90 C91 1.371 . S
C90 C92 1.365 . S
C91 C90 1.371 . S
C91 C101 1.386 . S
C91 H109 0.931 . S
C92 C90 1.365 . S
C92 C93 1.409 . S
C92 H110 0.929 . S
C93 C92 1.409 . S
C93 C94 1.380 . S
C93 H111 0.930 . S
C94 C93 1.380 . S
C94 C101 1.357 . S
C95 C86 1.511 . S
C95 C96 1.341 . S
C95 C97 1.371 . S
C96 C95 1.341 . S
C96 C100 1.394 . S
C96 H112 0.930 . S
C97 C95 1.371 . S
C97 C98 1.392 . S
C97 H113 0.931 . S
C98 C97 1.392 . S
C98 C99 1.331 . S
C98 H116 0.932 . S
C99 C98 1.331 . S
C99 C100 1.336 . S
C100 C96 1.394 . S
C100 C99 1.336 . S
C100 H115 0.929 . S
C101 C91 1.386 . S
C101 C94 1.357 . S
C101 H114 0.928 . S
H102 C78 0.931 . S
H103 C80 0.930 . S
H104 C82 0.929 . S
H105 C83 0.931 . S
H106 C85 0.930 . S
H107 C89 0.931 . S
H108 C87 0.931 . S
H109 C91 0.931 . S
H110 C92 0.929 . S
H111 C93 0.930 . S
H112 C96 0.930 . S
H113 C97 0.931 . S
H114 C101 0.928 . S
H115 C100 0.929 . S
H116 C98 0.932 . S
C117 C118 1.386 . S
C117 C119 1.397 . S
C117 H141 0.931 . S
C118 C117 1.386 . S
C118 C122 1.397 . S
C119 C117 1.397 . S
C119 C120 1.384 . S
C119 H142 0.930 . S
C120 C119 1.384 . S
C120 C121 1.377 . S
C120 C123 1.481 . S
C121 C120 1.377 . S
C121 C122 1.389 . S
C121 H143 0.929 . S
C122 C118 1.397 . S
C122 C121 1.389 . S
C122 H144 0.931 . S
C123 C120 1.481 . S
C123 C124 1.387 . S
C123 C128 1.390 . S
C124 C123 1.387 . S
C124 C125 1.401 . S
C124 H145 0.930 . S
C125 C124 1.401 . S
C125 C126 1.376 . S
C125 C134 1.511 . S
C126 C125 1.376 . S
C126 C127 1.392 . S
C126 H147 0.931 . S
C127 C126 1.392 . S
C127 C128 1.361 . S
C127 C129 1.500 . S
C128 C123 1.390 . S
C128 C127 1.361 . S
C128 H146 0.931 . S
C129 C127 1.500 . S
C129 C130 1.371 . S
C129 C131 1.365 . S
C130 C129 1.371 . S
C130 C140 1.386 . S
C130 H148 0.931 . S
C131 C129 1.365 . S
C131 C132 1.409 . S
C131 H149 0.929 . S
C132 C131 1.409 . S
C132 C133 1.380 . S
C132 H150 0.930 . S
C133 C132 1.380 . S
C133 C140 1.357 . S
C134 C125 1.511 . S
C134 C135 1.341 . S
C134 C136 1.371 . S
C135 C134 1.341 . S
C135 C139 1.394 . S
C135 H151 0.930 . S
C136 C134 1.371 . S
C136 C137 1.392 . S
C136 H152 0.931 . S
C137 C136 1.392 . S
C137 C138 1.331 . S
C137 H155 0.932 . S
C138 C137 1.331 . S
C138 C139 1.336 . S
C139 C135 1.394 . S
C139 C138 1.336 . S
C139 H154 0.929 . S
C140 C130 1.386 . S
C140 C133 1.357 . S
C140 H153 0.928 . S
H141 C117 0.931 . S
H142 C119 0.930 . S
H143 C121 0.929 . S
H144 C122 0.931 . S
H145 C124 0.930 . S
H146 C128 0.931 . S
H147 C126 0.931 . S
H148 C130 0.931 . S
H149 C131 0.929 . S
H150 C132 0.930 . S
H151 C135 0.930 . S
H152 C136 0.931 . S
H153 C140 0.928 . S
H154 C139 0.929 . S
H155 C137 0.932 . S
C156 C157 1.386 . S
C156 C158 1.397 . S
C156 H180 0.931 . S
C157 C156 1.386 . S
C157 C161 1.397 . S
C158 C156 1.397 . S
C158 C159 1.384 . S
C158 H181 0.930 . S
C159 C158 1.384 . S
C159 C160 1.377 . S
C159 C162 1.481 . S
C160 C159 1.377 . S
C160 C161 1.389 . S
C160 H182 0.929 . S
C161 C157 1.397 . S
C161 C160 1.389 . S
C161 H183 0.931 . S
C162 C159 1.481 . S
C162 C163 1.387 . S
C162 C167 1.390 . S
C163 C162 1.387 . S
C163 C164 1.401 . S
C163 H184 0.930 . S
C164 C163 1.401 . S
C164 C165 1.376 . S
C164 C173 1.511 . S
C165 C164 1.376 . S
C165 C166 1.392 . S
C165 H186 0.931 . S
C166 C165 1.392 . S
C166 C167 1.361 . S
C166 C168 1.500 . S
C167 C162 1.390 . S
C167 C166 1.361 . S
C167 H185 0.931 . S
C168 C166 1.500 . S
C168 C169 1.371 . S
C168 C170 1.365 . S
C169 C168 1.371 . S
C169 C179 1.386 . S
C169 H187 0.931 . S
C170 C168 1.365 . S
C170 C171 1.409 . S
C170 H188 0.929 . S
C171 C170 1.409 . S
C171 C172 1.380 . S
C171 H189 0.930 . S
C172 C171 1.380 . S
C172 C179 1.357 . S
C173 C164 1.511 . S
C173 C174 1.341 . S
C173 C175 1.371 . S
C174 C173 1.341 . S
C174 C178 1.394 . S
C174 H190 0.930 . S
C175 C173 1.371 . S
C175 C176 1.392 . S
C175 H191 0.931 . S
C176 C175 1.392 . S
C176 C177 1.331 . S
C176 H194 0.932 . S
C177 C176 1.331 . S
C177 C178 1.336 . S
C178 C174 1.394 . S
C178 C177 1.336 . S
C178 H193 0.929 . S
C179 C169 1.386 . S
C179 C172 1.357 . S
C179 H192 0.928 . S
H180 C156 0.931 . S
H181 C158 0.930 . S
H182 C160 0.929 . S
H183 C161 0.931 . S
H184 C163 0.930 . S
H185 C167 0.931 . S
H186 C165 0.931 . S
H187 C169 0.931 . S
H188 C170 0.929 . S
H189 C171 0.930 . S
H190 C174 0.930 . S
H191 C175 0.931 . S
H192 C179 0.928 . S
H193 C178 0.929 . S
H194 C176 0.932 . S
C195 C196 1.386 . S
C195 C197 1.397 . S
C195 H219 0.931 . S
C196 C195 1.386 . S
C196 C200 1.397 . S
C197 C195 1.397 . S
C197 C198 1.384 . S
C197 H220 0.930 . S
C198 C197 1.384 . S
C198 C199 1.377 . S
C198 C201 1.481 . S
C199 C198 1.377 . S
C199 C200 1.389 . S
C199 H221 0.929 . S
C200 C196 1.397 . S
C200 C199 1.389 . S
C200 H222 0.931 . S
C201 C198 1.481 . S
C201 C202 1.387 . S
C201 C206 1.390 . S
C202 C201 1.387 . S
C202 C203 1.401 . S
C202 H223 0.930 . S
C203 C202 1.401 . S
C203 C204 1.376 . S
C203 C212 1.511 . S
C204 C203 1.376 . S
C204 C205 1.392 . S
C204 H225 0.931 . S
C205 C204 1.392 . S
C205 C206 1.361 . S
C205 C207 1.500 . S
C206 C201 1.390 . S
C206 C205 1.361 . S
C206 H224 0.931 . S
C207 C205 1.500 . S
C207 C208 1.371 . S
C207 C209 1.365 . S
C208 C207 1.371 . S
C208 C218 1.386 . S
C208 H226 0.931 . S
C209 C207 1.365 . S
C209 C210 1.409 . S
C209 H227 0.929 . S
C210 C209 1.409 . S
C210 C211 1.380 . S
C210 H228 0.930 . S
C211 C210 1.380 . S
C211 C218 1.357 . S
C212 C203 1.511 . S
C212 C213 1.341 . S
C212 C214 1.371 . S
C213 C212 1.341 . S
C213 C217 1.394 . S
C213 H229 0.930 . S
C214 C212 1.371 . S
C214 C215 1.392 . S
C214 H230 0.931 . S
C215 C214 1.392 . S
C215 C216 1.331 . S
C215 H233 0.932 . S
C216 C215 1.331 . S
C216 C217 1.336 . S
C217 C213 1.394 . S
C217 C216 1.336 . S
C217 H232 0.929 . S
C218 C208 1.386 . S
C218 C211 1.357 . S
C218 H231 0.928 . S
H219 C195 0.931 . S
H220 C197 0.930 . S
H221 C199 0.929 . S
H222 C200 0.931 . S
H223 C202 0.930 . S
H224 C206 0.931 . S
H225 C204 0.931 . S
H226 C208 0.931 . S
H227 C209 0.929 . S
H228 C210 0.930 . S
H229 C213 0.930 . S
H230 C214 0.931 . S
H231 C218 0.928 . S
H232 C217 0.929 . S
H233 C215 0.932 . S
C234 C235 1.386 . S
C234 C236 1.397 . S
C234 H258 0.931 . S
C235 C234 1.386 . S
C235 C239 1.397 . S
C236 C234 1.397 . S
C236 C237 1.384 . S
C236 H259 0.930 . S
C237 C236 1.384 . S
C237 C238 1.377 . S
C237 C240 1.481 . S
C238 C237 1.377 . S
C238 C239 1.389 . S
C238 H260 0.929 . S
C239 C235 1.397 . S
C239 C238 1.389 . S
C239 H261 0.931 . S
C240 C237 1.481 . S
C240 C241 1.387 . S
C240 C245 1.390 . S
C241 C240 1.387 . S
C241 C242 1.401 . S
C241 H262 0.930 . S
C242 C241 1.401 . S
C242 C243 1.376 . S
C242 C251 1.511 . S
C243 C242 1.376 . S
C243 C244 1.392 . S
C243 H264 0.931 . S
C244 C243 1.392 . S
C244 C245 1.361 . S
C244 C246 1.500 . S
C245 C240 1.390 . S
C245 C244 1.361 . S
C245 H263 0.931 . S
C246 C244 1.500 . S
C246 C247 1.371 . S
C246 C248 1.365 . S
C247 C246 1.371 . S
C247 C257 1.386 . S
C247 H265 0.931 . S
C248 C246 1.365 . S
C248 C249 1.409 . S
C248 H266 0.929 . S
C249 C248 1.409 . S
C249 C250 1.380 . S
C249 H267 0.930 . S
C250 C249 1.380 . S
C250 C257 1.357 . S
C251 C242 1.511 . S
C251 C252 1.341 . S
C251 C253 1.371 . S
C252 C251 1.341 . S
C252 C256 1.394 . S
C252 H268 0.930 . S
C253 C251 1.371 . S
C253 C254 1.392 . S
C253 H269 0.931 . S
C254 C253 1.392 . S
C254 C255 1.331 . S
C254 H272 0.932 . S
C255 C254 1.331 . S
C255 C256 1.336 . S
C256 C252 1.394 . S
C256 C255 1.336 . S
C256 H271 0.929 . S
C257 C247 1.386 . S
C257 C250 1.357 . S
C257 H270 0.928 . S
H258 C234 0.931 . S
H259 C236 0.930 . S
H260 C238 0.929 . S
H261 C239 0.931 . S
H262 C241 0.930 . S
H263 C245 0.931 . S
H264 C243 0.931 . S
H265 C247 0.931 . S
H266 C248 0.929 . S
H267 C249 0.930 . S
H268 C252 0.930 . S
H269 C253 0.931 . S
H270 C257 0.928 . S
H271 C256 0.929 . S
H272 C254 0.932 . S
C273 C274 1.386 . S
C273 C275 1.397 . S
C273 H297 0.931 . S
C274 C273 1.386 . S
C274 C278 1.397 . S
C275 C273 1.397 . S
C275 C276 1.384 . S
C275 H298 0.930 . S
C276 C275 1.384 . S
C276 C277 1.377 . S
C276 C279 1.481 . S
C277 C276 1.377 . S
C277 C278 1.389 . S
C277 H299 0.929 . S
C278 C274 1.397 . S
C278 C277 1.389 . S
C278 H300 0.931 . S
C279 C276 1.481 . S
C279 C280 1.387 . S
C279 C284 1.390 . S
C280 C279 1.387 . S
C280 C281 1.401 . S
C280 H301 0.930 . S
C281 C280 1.401 . S
C281 C282 1.376 . S
C281 C290 1.511 . S
C282 C281 1.376 . S
C282 C283 1.392 . S
C282 H303 0.931 . S
C283 C282 1.392 . S
C283 C284 1.361 . S
C283 C285 1.500 . S
C284 C279 1.390 . S
C284 C283 1.361 . S
C284 H302 0.931 . S
C285 C283 1.500 . S
C285 C286 1.371 . S
C285 C287 1.365 . S
C286 C285 1.371 . S
C286 C296 1.386 . S
C286 H304 0.931 . S
C287 C285 1.365 . S
C287 C288 1.409 . S
C287 H305 0.929 . S
C288 C287 1.409 . S
C288 C289 1.380 . S
C288 H306 0.930 . S
C289 C288 1.380 . S
C289 C296 1.357 . S
C290 C281 1.511 . S
C290 C291 1.341 . S
C290 C292 1.371 . S
C291 C290 1.341 . S
C291 C295 1.394 . S
C291 H307 0.930 . S
C292 C290 1.371 . S
C292 C293 1.392 . S
C292 H308 0.931 . S
C293 C292 1.392 . S
C293 C294 1.331 . S
C293 H311 0.932 . S
C294 C293 1.331 . S
C294 C295 1.336 . S
C295 C291 1.394 . S
C295 C294 1.336 . S
C295 H310 0.929 . S
C296 C286 1.386 . S
C296 C289 1.357 . S
C296 H309 0.928 . S
H297 C273 0.931 . S
H298 C275 0.930 . S
H299 C277 0.929 . S
H300 C278 0.931 . S
H301 C280 0.930 . S
H302 C284 0.931 . S
H303 C282 0.931 . S
H304 C286 0.931 . S
H305 C287 0.929 . S
H306 C288 0.930 . S
H307 C291 0.930 . S
H308 C292 0.931 . S
H309 C296 0.928 . S
H310 C295 0.929 . S
H311 C293 0.932 . S
Gd312 C315 2.818 . S
Gd312 O332 2.377 . S
Gd312 O334 2.448 . S
Gd312 O335 2.506 . S
Gd312 O336 2.435 1_545 S
Gd312 O337 2.717 1_545 S
Gd312 O339 2.395 1_445 S
Gd312 O343 2.327 1_455 S
Gd313 C324 2.818 . S
Gd313 O333 2.395 1_665 S
Gd313 O337 2.327 1_655 S
Gd313 O338 2.377 . S
Gd313 O340 2.448 . S
Gd313 O341 2.506 . S
Gd313 O342 2.435 1_565 S
Gd313 O343 2.717 1_565 S
C314 O332 1.240 . S
C314 O333 1.240 . S
C315 Gd312 2.818 . S
C315 C316 1.510 . S
C315 O334 1.249 . S
C315 O335 1.252 . S
C316 C315 1.510 . S
C316 C317 1.404 . S
C316 C318 1.352 . S
C317 C316 1.404 . S
C317 C321 1.389 . S
C317 H344 0.930 . S
C318 C316 1.352 . S
C318 C320 1.374 . S
C318 H345 0.931 . S
C319 C320 1.359 . S
C319 C321 1.364 . S
C320 C318 1.374 . S
C320 C319 1.359 . S
C320 H346 0.931 . S
C321 C317 1.389 . S
C321 C319 1.364 . S
C321 H347 0.931 . S
C322 O336 1.256 . S
C322 O337 1.257 . S
C323 O338 1.240 . S
C323 O339 1.240 . S
C324 Gd313 2.818 . S
C324 C325 1.510 . S
C324 O340 1.249 . S
C324 O341 1.252 . S
C325 C324 1.510 . S
C325 C326 1.404 . S
C325 C327 1.352 . S
C326 C325 1.404 . S
C326 C330 1.389 . S
C326 H348 0.930 . S
C327 C325 1.352 . S
C327 C329 1.374 . S
C327 H349 0.931 . S
C328 C329 1.359 . S
C328 C330 1.364 . S
C329 C327 1.374 . S
C329 C328 1.359 . S
C329 H350 0.931 . S
C330 C326 1.389 . S
C330 C328 1.364 . S
C330 H351 0.931 . S
C331 O342 1.256 . S
C331 O343 1.257 . S
O332 Gd312 2.377 . S
O332 C314 1.240 . S
O333 Gd313 2.395 1_445 S
O333 C314 1.240 . S
O334 Gd312 2.448 . S
O334 C315 1.249 . S
O335 Gd312 2.506 . S
O335 C315 1.252 . S
O336 Gd312 2.435 1_565 S
O336 C322 1.256 . S
O337 Gd312 2.717 1_565 S
O337 Gd313 2.327 1_455 S
O337 C322 1.257 . S
O338 Gd313 2.377 . S
O338 C323 1.240 . S
O339 Gd312 2.395 1_665 S
O339 C323 1.240 . S
O340 Gd313 2.448 . S
O340 C324 1.249 . S
O341 Gd313 2.506 . S
O341 C324 1.252 . S
O342 Gd313 2.435 1_545 S
O342 C331 1.256 . S
O343 Gd312 2.327 1_655 S
O343 Gd313 2.717 1_545 S
O343 C331 1.257 . S
H344 C317 0.930 . S
H345 C318 0.931 . S
H346 C320 0.931 . S
H347 C321 0.931 . S
H348 C326 0.930 . S
H349 C327 0.931 . S
H350 C329 0.931 . S
H351 C330 0.931 . S
Gd352 C355 2.825 . S
Gd352 O372 2.384 . S
Gd352 O374 2.449 . S
Gd352 O375 2.516 . S
Gd352 O376 2.426 1_545 S
Gd352 O377 2.713 1_545 S
Gd352 O379 2.388 1_544 S
Gd352 O383 2.336 1_554 S
Gd353 C364 2.818 1_545 S
Gd353 O373 2.395 1_556 S
Gd353 O377 2.327 1_546 S
Gd353 O378 2.377 1_545 S
Gd353 O380 2.448 1_545 S
Gd353 O381 2.506 1_545 S
Gd353 O382 2.435 . S
Gd353 O383 2.717 . S
C354 O372 1.240 . S
C354 O373 1.240 . S
C355 Gd352 2.825 . S
C355 C356 1.510 . S
C355 O374 1.249 . S
C355 O375 1.252 . S
C356 C355 1.510 . S
C356 C357 1.404 . S
C356 C358 1.352 . S
C357 C356 1.404 . S
C357 C361 1.389 . S
C357 H384 0.930 . S
C358 C356 1.352 . S
C358 C360 1.374 . S
C358 H385 0.931 . S
C359 C360 1.359 . S
C359 C361 1.364 . S
C360 C358 1.374 . S
C360 C359 1.359 . S
C360 H386 0.931 . S
C361 C357 1.389 . S
C361 C359 1.364 . S
C361 H387 0.931 . S
C362 O376 1.256 . S
C362 O377 1.257 . S
C363 O378 1.240 . S
C363 O379 1.240 . S
C364 Gd353 2.818 1_565 S
C364 C365 1.510 . S
C364 O380 1.249 . S
C364 O381 1.252 . S
C365 C364 1.510 . S
C365 C366 1.404 . S
C365 C367 1.352 . S
C366 C365 1.404 . S
C366 C370 1.389 . S
C366 H388 0.930 . S
C367 C365 1.352 . S
C367 C369 1.374 . S
C367 H389 0.931 . S
C368 C369 1.359 . S
C368 C370 1.364 . S
C369 C367 1.374 . S
C369 C368 1.359 . S
C369 H390 0.931 . S
C370 C366 1.389 . S
C370 C368 1.364 . S
C370 H391 0.931 . S
C371 O382 1.256 . S
C371 O383 1.257 . S
O372 Gd352 2.384 . S
O372 C354 1.240 . S
O373 Gd353 2.395 1_554 S
O373 C354 1.240 . S
O374 Gd352 2.449 . S
O374 C355 1.249 . S
O375 Gd352 2.516 . S
O375 C355 1.252 . S
O376 Gd352 2.426 1_565 S
O376 C362 1.256 . S
O377 Gd352 2.713 1_565 S
O377 Gd353 2.327 1_564 S
O377 C362 1.257 . S
O378 Gd353 2.377 1_565 S
O378 C363 1.240 . S
O379 Gd352 2.388 1_566 S
O379 C363 1.240 . S
O380 Gd353 2.448 1_565 S
O380 C364 1.249 . S
O381 Gd353 2.506 1_565 S
O381 C364 1.252 . S
O382 Gd353 2.435 . S
O382 C371 1.256 . S
O383 Gd352 2.336 1_556 S
O383 Gd353 2.717 . S
O383 C371 1.257 . S
H384 C357 0.930 . S
H385 C358 0.931 . S
H386 C360 0.931 . S
H387 C361 0.931 . S
H388 C366 0.930 . S
H389 C367 0.931 . S
H390 C369 0.931 . S
H391 C370 0.931 . S
Gd392 C395 2.818 . S
Gd392 O412 2.377 . S
Gd392 O414 2.448 . S
Gd392 O415 2.506 . S
Gd392 O416 2.435 . S
Gd392 O417 2.717 . S
Gd392 O419 2.395 . S
Gd392 O423 2.327 . S
Gd393 C404 2.818 . S
Gd393 O413 2.395 . S
Gd393 O417 2.327 . S
Gd393 O418 2.377 . S
Gd393 O420 2.448 . S
Gd393 O421 2.506 . S
Gd393 O422 2.435 . S
Gd393 O423 2.717 . S
C394 O412 1.240 . S
C394 O413 1.240 . S
C395 Gd392 2.818 . S
C395 C396 1.510 . S
C395 O414 1.249 . S
C395 O415 1.252 . S
C396 C395 1.510 . S
C396 C397 1.404 . S
C396 C398 1.352 . S
C397 C396 1.404 . S
C397 C401 1.389 . S
C397 H424 0.930 . S
C398 C396 1.352 . S
C398 C400 1.374 . S
C398 H425 0.931 . S
C399 C400 1.359 . S
C399 C401 1.364 . S
C400 C398 1.374 . S
C400 C399 1.359 . S
C400 H426 0.931 . S
C401 C397 1.389 . S
C401 C399 1.364 . S
C401 H427 0.931 . S
C402 O416 1.256 . S
C402 O417 1.257 . S
C403 O418 1.240 . S
C403 O419 1.240 . S
C404 Gd393 2.818 . S
C404 C405 1.510 . S
C404 O420 1.249 . S
C404 O421 1.252 . S
C405 C404 1.510 . S
C405 C406 1.404 . S
C405 C407 1.352 . S
C406 C405 1.404 . S
C406 C410 1.389 . S
C406 H428 0.930 . S
C407 C405 1.352 . S
C407 C409 1.374 . S
C407 H429 0.931 . S
C408 C409 1.359 . S
C408 C410 1.364 . S
C409 C407 1.374 . S
C409 C408 1.359 . S
C409 H430 0.931 . S
C410 C406 1.389 . S
C410 C408 1.364 . S
C410 H431 0.931 . S
C411 O422 1.256 . S
C411 O423 1.257 . S
O412 Gd392 2.377 . S
O412 C394 1.240 . S
O413 Gd393 2.395 . S
O413 C394 1.240 . S
O414 Gd392 2.448 . S
O414 C395 1.249 . S
O415 Gd392 2.506 . S
O415 C395 1.252 . S
O416 Gd392 2.435 . S
O416 C402 1.256 . S
O417 Gd392 2.717 . S
O417 Gd393 2.327 . S
O417 C402 1.257 . S
O418 Gd393 2.377 . S
O418 C403 1.240 . S
O419 Gd392 2.395 . S
O419 C403 1.240 . S
O420 Gd393 2.448 . S
O420 C404 1.249 . S
O421 Gd393 2.506 . S
O421 C404 1.252 . S
O422 Gd393 2.435 . S
O422 C411 1.256 . S
O423 Gd392 2.327 . S
O423 Gd393 2.717 . S
O423 C411 1.257 . S
H424 C397 0.930 . S
H425 C398 0.931 . S
H426 C400 0.931 . S
H427 C401 0.931 . S
H428 C406 0.930 . S
H429 C407 0.931 . S
H430 C409 0.931 . S
H431 C410 0.931 . S
Gd432 C435 2.818 . S
Gd432 O452 2.377 . S
Gd432 O454 2.448 . S
Gd432 O455 2.506 . S
Gd432 O456 2.435 1_455 S
Gd432 O457 2.717 1_455 S
Gd432 O459 2.395 1_454 S
Gd432 O463 2.327 1_554 S
Gd433 C444 2.818 . S
Gd433 O453 2.395 1_656 S
Gd433 O457 2.327 1_556 S
Gd433 O458 2.377 . S
Gd433 O460 2.448 . S
Gd433 O461 2.506 . S
Gd433 O462 2.435 1_655 S
Gd433 O463 2.717 1_655 S
C434 O452 1.240 . S
C434 O453 1.240 . S
C435 Gd432 2.818 . S
C435 C436 1.510 . S
C435 O454 1.249 . S
C435 O455 1.252 . S
C436 C435 1.510 . S
C436 C437 1.404 . S
C436 C438 1.352 . S
C437 C436 1.404 . S
C437 C441 1.389 . S
C437 H464 0.930 . S
C438 C436 1.352 . S
C438 C440 1.374 . S
C438 H465 0.931 . S
C439 C440 1.359 . S
C439 C441 1.364 . S
C440 C438 1.374 . S
C440 C439 1.359 . S
C440 H466 0.931 . S
C441 C437 1.389 . S
C441 C439 1.364 . S
C441 H467 0.931 . S
C442 O456 1.256 . S
C442 O457 1.257 . S
C443 O458 1.240 . S
C443 O459 1.240 . S
C444 Gd433 2.818 . S
C444 C445 1.510 . S
C444 O460 1.249 . S
C444 O461 1.252 . S
C445 C444 1.510 . S
C445 C446 1.404 . S
C445 C447 1.352 . S
C446 C445 1.404 . S
C446 C450 1.389 . S
C446 H468 0.930 . S
C447 C445 1.352 . S
C447 C449 1.374 . S
C447 H469 0.931 . S
C448 C449 1.359 . S
C448 C450 1.364 . S
C449 C447 1.374 . S
C449 C448 1.359 . S
C449 H470 0.931 . S
C450 C446 1.389 . S
C450 C448 1.364 . S
C450 H471 0.931 . S
C451 O462 1.256 . S
C451 O463 1.257 . S
O452 Gd432 2.377 . S
O452 C434 1.240 . S
O453 Gd433 2.395 1_454 S
O453 C434 1.240 . S
O454 Gd432 2.448 . S
O454 C435 1.249 . S
O455 Gd432 2.506 . S
O455 C435 1.252 . S
O456 Gd432 2.435 1_655 S
O456 C442 1.256 . S
O457 Gd432 2.717 1_655 S
O457 Gd433 2.327 1_554 S
O457 C442 1.257 . S
O458 Gd433 2.377 . S
O458 C443 1.240 . S
O459 Gd432 2.395 1_656 S
O459 C443 1.240 . S
O460 Gd433 2.448 . S
O460 C444 1.249 . S
O461 Gd433 2.506 . S
O461 C444 1.252 . S
O462 Gd433 2.435 1_455 S
O462 C451 1.256 . S
O463 Gd432 2.327 1_556 S
O463 Gd433 2.717 1_455 S
O463 C451 1.257 . S
H464 C437 0.930 . S
H465 C438 0.931 . S
H466 C440 0.931 . S
H467 C441 0.931 . S
H468 C446 0.930 . S
H469 C447 0.931 . S
H470 C449 0.931 . S
H471 C450 0.931 . S
C472 C473 1.391 . S
C472 C474 1.394 . S
C472 H488 0.931 . S
C473 C472 1.391 . S
C473 C477 1.376 . S
C474 C472 1.394 . S
C474 C475 1.369 . S
C474 C478 1.531 . S
C475 C474 1.369 . S
C475 C476 1.410 . S
C475 C483 1.503 . S
C476 C475 1.410 . S
C476 C477 1.392 . S
C476 C479 1.511 . S
C477 C473 1.376 . S
C477 C476 1.392 . S
C477 H489 0.929 . S
C478 C474 1.531 . S
C478 H490 0.960 . S
C478 H491 0.962 . S
C478 H492 0.960 . S
C479 C476 1.511 . S
C479 H493 0.961 . S
C479 H494 0.961 . S
C479 H495 0.961 . S
C480 C481 1.370 . S
C480 C482 1.363 . S
C480 H496 0.931 . S
C481 C480 1.370 . S
C481 C485 1.408 . S
C482 C480 1.363 . S
C482 C483 1.370 . S
C482 C486 1.524 . S
C483 C475 1.503 . S
C483 C482 1.370 . S
C483 C484 1.403 . S
C484 C483 1.403 . S
C484 C485 1.404 . S
C484 C487 1.539 . S
C485 C481 1.408 . S
C485 C484 1.404 . S
C485 H497 0.930 . S
C486 C482 1.524 . S
C486 H498 0.956 . S
C486 H499 0.961 . S
C486 H500 0.961 . S
C487 C484 1.539 . S
C487 H501 0.958 . S
C487 H502 0.961 . S
C487 H503 0.960 . S
H488 C472 0.931 . S
H489 C477 0.929 . S
H490 C478 0.960 . S
H491 C478 0.962 . S
H492 C478 0.960 . S
H493 C479 0.961 . S
H494 C479 0.961 . S
H495 C479 0.961 . S
H496 C480 0.931 . S
H497 C485 0.930 . S
H498 C486 0.956 . S
H499 C486 0.961 . S
H500 C486 0.961 . S
H501 C487 0.958 . S
H502 C487 0.961 . S
H503 C487 0.960 . S
C504 C505 1.391 . S
C504 C506 1.394 . S
C504 H520 0.931 . S
C505 C504 1.391 . S
C505 C509 1.376 . S
C506 C504 1.394 . S
C506 C507 1.369 . S
C506 C510 1.531 . S
C507 C506 1.369 . S
C507 C508 1.410 . S
C507 C515 1.503 . S
C508 C507 1.410 . S
C508 C509 1.392 . S
C508 C511 1.511 . S
C509 C505 1.376 . S
C509 C508 1.392 . S
C509 H521 0.929 . S
C510 C506 1.531 . S
C510 H522 0.960 . S
C510 H523 0.962 . S
C510 H524 0.960 . S
C511 C508 1.511 . S
C511 H525 0.961 . S
C511 H526 0.961 . S
C511 H527 0.961 . S
C512 C513 1.370 . S
C512 C514 1.363 . S
C512 H528 0.931 . S
C513 C512 1.370 . S
C513 C517 1.408 . S
C514 C512 1.363 . S
C514 C515 1.370 . S
C514 C518 1.524 . S
C515 C507 1.503 . S
C515 C514 1.370 . S
C515 C516 1.403 . S
C516 C515 1.403 . S
C516 C517 1.404 . S
C516 C519 1.539 . S
C517 C513 1.408 . S
C517 C516 1.404 . S
C517 H529 0.930 . S
C518 C514 1.524 . S
C518 H530 0.956 . S
C518 H531 0.961 . S
C518 H532 0.961 . S
C519 C516 1.539 . S
C519 H533 0.958 . S
C519 H534 0.961 . S
C519 H535 0.960 . S
H520 C504 0.931 . S
H521 C509 0.929 . S
H522 C510 0.960 . S
H523 C510 0.962 . S
H524 C510 0.960 . S
H525 C511 0.961 . S
H526 C511 0.961 . S
H527 C511 0.961 . S
H528 C512 0.931 . S
H529 C517 0.930 . S
H530 C518 0.956 . S
H531 C518 0.961 . S
H532 C518 0.961 . S
H533 C519 0.958 . S
H534 C519 0.961 . S
H535 C519 0.960 . S
C536 C537 1.391 . S
C536 C538 1.394 . S
C536 H552 0.931 . S
C537 C536 1.391 . S
C537 C541 1.376 . S
C538 C536 1.394 . S
C538 C539 1.369 . S
C538 C542 1.531 . S
C539 C538 1.369 . S
C539 C540 1.410 . S
C539 C547 1.503 . S
C540 C539 1.410 . S
C540 C541 1.392 . S
C540 C543 1.511 . S
C541 C537 1.376 . S
C541 C540 1.392 . S
C541 H553 0.929 . S
C542 C538 1.531 . S
C542 H554 0.960 . S
C542 H555 0.962 . S
C542 H556 0.960 . S
C543 C540 1.511 . S
C543 H557 0.961 . S
C543 H558 0.961 . S
C543 H559 0.961 . S
C544 C545 1.370 . S
C544 C546 1.363 . S
C544 H560 0.931 . S
C545 C544 1.370 . S
C545 C549 1.408 . S
C546 C544 1.363 . S
C546 C547 1.370 . S
C546 C550 1.524 . S
C547 C539 1.503 . S
C547 C546 1.370 . S
C547 C548 1.403 . S
C548 C547 1.403 . S
C548 C549 1.404 . S
C548 C551 1.539 . S
C549 C545 1.408 . S
C549 C548 1.404 . S
C549 H561 0.930 . S
C550 C546 1.524 . S
C550 H562 0.956 . S
C550 H563 0.961 . S
C550 H564 0.961 . S
C551 C548 1.539 . S
C551 H565 0.958 . S
C551 H566 0.961 . S
C551 H567 0.960 . S
H552 C536 0.931 . S
H553 C541 0.929 . S
H554 C542 0.960 . S
H555 C542 0.962 . S
H556 C542 0.960 . S
H557 C543 0.961 . S
H558 C543 0.961 . S
H559 C543 0.961 . S
H560 C544 0.931 . S
H561 C549 0.930 . S
H562 C550 0.956 . S
H563 C550 0.961 . S
H564 C550 0.961 . S
H565 C551 0.958 . S
H566 C551 0.961 . S
H567 C551 0.960 . S
C568 C569 1.391 . S
C568 C570 1.394 . S
C568 H584 0.931 . S
C569 C568 1.391 . S
C569 C573 1.376 . S
C570 C568 1.394 . S
C570 C571 1.369 . S
C570 C574 1.531 . S
C571 C570 1.369 . S
C571 C572 1.410 . S
C571 C579 1.503 . S
C572 C571 1.410 . S
C572 C573 1.392 . S
C572 C575 1.511 . S
C573 C569 1.376 . S
C573 C572 1.392 . S
C573 H585 0.929 . S
C574 C570 1.531 . S
C574 H586 0.960 . S
C574 H587 0.962 . S
C574 H588 0.960 . S
C575 C572 1.511 . S
C575 H589 0.961 . S
C575 H590 0.961 . S
C575 H591 0.961 . S
C576 C577 1.370 . S
C576 C578 1.363 . S
C576 H592 0.931 . S
C577 C576 1.370 . S
C577 C581 1.408 . S
C578 C576 1.363 . S
C578 C579 1.370 . S
C578 C582 1.524 . S
C579 C571 1.503 . S
C579 C578 1.370 . S
C579 C580 1.403 . S
C580 C579 1.403 . S
C580 C581 1.404 . S
C580 C583 1.539 . S
C581 C577 1.408 . S
C581 C580 1.404 . S
C581 H593 0.930 . S
C582 C578 1.524 . S
C582 H594 0.956 . S
C582 H595 0.961 . S
C582 H596 0.961 . S
C583 C580 1.539 . S
C583 H597 0.958 . S
C583 H598 0.961 . S
C583 H599 0.960 . S
H584 C568 0.931 . S
H585 C573 0.929 . S
H586 C574 0.960 . S
H587 C574 0.962 . S
H588 C574 0.960 . S
H589 C575 0.961 . S
H590 C575 0.961 . S
H591 C575 0.961 . S
H592 C576 0.931 . S
H593 C581 0.930 . S
H594 C582 0.956 . S
H595 C582 0.961 . S
H596 C582 0.961 . S
H597 C583 0.958 . S
H598 C583 0.961 . S
H599 C583 0.960 . S
C600 C601 1.391 . S
C600 C602 1.394 . S
C600 H616 0.931 . S
C601 C600 1.391 . S
C601 C605 1.376 . S
C602 C600 1.394 . S
C602 C603 1.369 . S
C602 C606 1.531 . S
C603 C602 1.369 . S
C603 C604 1.410 . S
C603 C611 1.503 . S
C604 C603 1.410 . S
C604 C605 1.392 . S
C604 C607 1.511 . S
C605 C601 1.376 . S
C605 C604 1.392 . S
C605 H617 0.929 . S
C606 C602 1.531 . S
C606 H618 0.960 . S
C606 H619 0.962 . S
C606 H620 0.960 . S
C607 C604 1.511 . S
C607 H621 0.961 . S
C607 H622 0.961 . S
C607 H623 0.961 . S
C608 C609 1.370 . S
C608 C610 1.363 . S
C608 H624 0.931 . S
C609 C608 1.370 . S
C609 C613 1.408 . S
C610 C608 1.363 . S
C610 C611 1.370 . S
C610 C614 1.524 . S
C611 C603 1.503 . S
C611 C610 1.370 . S
C611 C612 1.403 . S
C612 C611 1.403 . S
C612 C613 1.404 . S
C612 C615 1.539 . S
C613 C609 1.408 . S
C613 C612 1.404 . S
C613 H625 0.930 . S
C614 C610 1.524 . S
C614 H626 0.956 . S
C614 H627 0.961 . S
C614 H628 0.961 . S
C615 C612 1.539 . S
C615 H629 0.958 . S
C615 H630 0.961 . S
C615 H631 0.960 . S
H616 C600 0.931 . S
H617 C605 0.929 . S
H618 C606 0.960 . S
H619 C606 0.962 . S
H620 C606 0.960 . S
H621 C607 0.961 . S
H622 C607 0.961 . S
H623 C607 0.961 . S
H624 C608 0.931 . S
H625 C613 0.930 . S
H626 C614 0.956 . S
H627 C614 0.961 . S
H628 C614 0.961 . S
H629 C615 0.958 . S
H630 C615 0.961 . S
H631 C615 0.960 . S
C632 C633 1.391 . S
C632 C634 1.394 . S
C632 H648 0.931 . S
C633 C632 1.391 . S
C633 C637 1.376 . S
C634 C632 1.394 . S
C634 C635 1.369 . S
C634 C638 1.531 . S
C635 C634 1.369 . S
C635 C636 1.410 . S
C635 C643 1.503 . S
C636 C635 1.410 . S
C636 C637 1.392 . S
C636 C639 1.511 . S
C637 C633 1.376 . S
C637 C636 1.392 . S
C637 H649 0.929 . S
C638 C634 1.531 . S
C638 H650 0.960 . S
C638 H651 0.962 . S
C638 H652 0.960 . S
C639 C636 1.511 . S
C639 H653 0.961 . S
C639 H654 0.961 . S
C639 H655 0.961 . S
C640 C641 1.370 . S
C640 C642 1.363 . S
C640 H656 0.931 . S
C641 C640 1.370 . S
C641 C645 1.408 . S
C642 C640 1.363 . S
C642 C643 1.370 . S
C642 C646 1.524 . S
C643 C635 1.503 . S
C643 C642 1.370 . S
C643 C644 1.403 . S
C644 C643 1.403 . S
C644 C645 1.404 . S
C644 C647 1.539 . S
C645 C641 1.408 . S
C645 C644 1.404 . S
C645 H657 0.930 . S
C646 C642 1.524 . S
C646 H658 0.956 . S
C646 H659 0.961 . S
C646 H660 0.961 . S
C647 C644 1.539 . S
C647 H661 0.958 . S
C647 H662 0.961 . S
C647 H663 0.960 . S
H648 C632 0.931 . S
H649 C637 0.929 . S
H650 C638 0.960 . S
H651 C638 0.962 . S
H652 C638 0.960 . S
H653 C639 0.961 . S
H654 C639 0.961 . S
H655 C639 0.961 . S
H656 C640 0.931 . S
H657 C645 0.930 . S
H658 C646 0.956 . S
H659 C646 0.961 . S
H660 C646 0.961 . S
H661 C647 0.958 . S
H662 C647 0.961 . S
H663 C647 0.960 . S
C664 C665 1.391 . S
C664 C666 1.394 . S
C664 H680 0.931 . S
C665 C664 1.391 . S
C665 C669 1.376 . S
C666 C664 1.394 . S
C666 C667 1.369 . S
C666 C670 1.531 . S
C667 C666 1.369 . S
C667 C668 1.410 . S
C667 C675 1.503 . S
C668 C667 1.410 . S
C668 C669 1.392 . S
C668 C671 1.511 . S
C669 C665 1.376 . S
C669 C668 1.392 . S
C669 H681 0.929 . S
C670 C666 1.531 . S
C670 H682 0.960 . S
C670 H683 0.962 . S
C670 H684 0.960 . S
C671 C668 1.511 . S
C671 H685 0.961 . S
C671 H686 0.961 . S
C671 H687 0.961 . S
C672 C673 1.370 . S
C672 C674 1.363 . S
C672 H688 0.931 . S
C673 C672 1.370 . S
C673 C677 1.408 . S
C674 C672 1.363 . S
C674 C675 1.370 . S
C674 C678 1.524 . S
C675 C667 1.503 . S
C675 C674 1.370 . S
C675 C676 1.403 . S
C676 C675 1.403 . S
C676 C677 1.404 . S
C676 C679 1.539 . S
C677 C673 1.408 . S
C677 C676 1.404 . S
C677 H689 0.930 . S
C678 C674 1.524 . S
C678 H690 0.956 . S
C678 H691 0.961 . S
C678 H692 0.961 . S
C679 C676 1.539 . S
C679 H693 0.958 . S
C679 H694 0.961 . S
C679 H695 0.960 . S
H680 C664 0.931 . S
H681 C669 0.929 . S
H682 C670 0.960 . S
H683 C670 0.962 . S
H684 C670 0.960 . S
H685 C671 0.961 . S
H686 C671 0.961 . S
H687 C671 0.961 . S
H688 C672 0.931 . S
H689 C677 0.930 . S
H690 C678 0.956 . S
H691 C678 0.961 . S
H692 C678 0.961 . S
H693 C679 0.958 . S
H694 C679 0.961 . S
H695 C679 0.960 . S
C696 C697 1.391 . S
C696 C698 1.394 . S
C696 H712 0.931 . S
C697 C696 1.391 . S
C697 C701 1.376 . S
C698 C696 1.394 . S
C698 C699 1.369 . S
C698 C702 1.531 . S
C699 C698 1.369 . S
C699 C700 1.410 . S
C699 C707 1.503 . S
C700 C699 1.410 . S
C700 C701 1.392 . S
C700 C703 1.511 . S
C701 C697 1.376 . S
C701 C700 1.392 . S
C701 H713 0.929 . S
C702 C698 1.531 . S
C702 H714 0.960 . S
C702 H715 0.962 . S
C702 H716 0.960 . S
C703 C700 1.511 . S
C703 H717 0.961 . S
C703 H718 0.961 . S
C703 H719 0.961 . S
C704 C705 1.370 . S
C704 C706 1.363 . S
C704 H720 0.931 . S
C705 C704 1.370 . S
C705 C709 1.408 . S
C706 C704 1.363 . S
C706 C707 1.370 . S
C706 C710 1.524 . S
C707 C699 1.503 . S
C707 C706 1.370 . S
C707 C708 1.403 . S
C708 C707 1.403 . S
C708 C709 1.404 . S
C708 C711 1.539 . S
C709 C705 1.408 . S
C709 C708 1.404 . S
C709 H721 0.930 . S
C710 C706 1.524 . S
C710 H722 0.956 . S
C710 H723 0.961 . S
C710 H724 0.961 . S
C711 C708 1.539 . S
C711 H725 0.958 . S
C711 H726 0.961 . S
C711 H727 0.960 . S
H712 C696 0.931 . S
H713 C701 0.929 . S
H714 C702 0.960 . S
H715 C702 0.962 . S
H716 C702 0.960 . S
H717 C703 0.961 . S
H718 C703 0.961 . S
H719 C703 0.961 . S
H720 C704 0.931 . S
H721 C709 0.930 . S
H722 C710 0.956 . S
H723 C710 0.961 . S
H724 C710 0.961 . S
H725 C711 0.958 . S
H726 C711 0.961 . S
H727 C711 0.960 . S
C728 C729 1.391 . S
C728 C730 1.394 . S
C728 H744 0.931 . S
C729 C728 1.391 . S
C729 C733 1.376 . S
C730 C728 1.394 . S
C730 C731 1.369 . S
C730 C734 1.531 . S
C731 C730 1.369 . S
C731 C732 1.410 . S
C731 C739 1.503 . S
C732 C731 1.410 . S
C732 C733 1.392 . S
C732 C735 1.511 . S
C733 C729 1.376 . S
C733 C732 1.392 . S
C733 H745 0.929 . S
C734 C730 1.531 . S
C734 H746 0.960 . S
C734 H747 0.962 . S
C734 H748 0.960 . S
C735 C732 1.511 . S
C735 H749 0.961 . S
C735 H750 0.961 . S
C735 H751 0.961 . S
C736 C737 1.370 . S
C736 C738 1.363 . S
C736 H752 0.931 . S
C737 C736 1.370 . S
C737 C741 1.408 . S
C738 C736 1.363 . S
C738 C739 1.370 . S
C738 C742 1.524 . S
C739 C731 1.503 . S
C739 C738 1.370 . S
C739 C740 1.403 . S
C740 C739 1.403 . S
C740 C741 1.404 . S
C740 C743 1.539 . S
C741 C737 1.408 . S
C741 C740 1.404 . S
C741 H753 0.930 . S
C742 C738 1.524 . S
C742 H754 0.956 . S
C742 H755 0.961 . S
C742 H756 0.961 . S
C743 C740 1.539 . S
C743 H757 0.958 . S
C743 H758 0.961 . S
C743 H759 0.960 . S
H744 C728 0.931 . S
H745 C733 0.929 . S
H746 C734 0.960 . S
H747 C734 0.962 . S
H748 C734 0.960 . S
H749 C735 0.961 . S
H750 C735 0.961 . S
H751 C735 0.961 . S
H752 C736 0.931 . S
H753 C741 0.930 . S
H754 C742 0.956 . S
H755 C742 0.961 . S
H756 C742 0.961 . S
H757 C743 0.958 . S
H758 C743 0.961 . S
H759 C743 0.960 . S
C760 C761 1.391 . S
C760 C762 1.394 . S
C760 H776 0.931 . S
C761 C760 1.391 . S
C761 C765 1.376 . S
C762 C760 1.394 . S
C762 C763 1.369 . S
C762 C766 1.531 . S
C763 C762 1.369 . S
C763 C764 1.410 . S
C763 C771 1.503 . S
C764 C763 1.410 . S
C764 C765 1.392 . S
C764 C767 1.511 . S
C765 C761 1.376 . S
C765 C764 1.392 . S
C765 H777 0.929 . S
C766 C762 1.531 . S
C766 H778 0.960 . S
C766 H779 0.962 . S
C766 H780 0.960 . S
C767 C764 1.511 . S
C767 H781 0.961 . S
C767 H782 0.961 . S
C767 H783 0.961 . S
C768 C769 1.370 . S
C768 C770 1.363 . S
C768 H784 0.931 . S
C769 C768 1.370 . S
C769 C773 1.408 . S
C770 C768 1.363 . S
C770 C771 1.370 . S
C770 C774 1.524 . S
C771 C763 1.503 . S
C771 C770 1.370 . S
C771 C772 1.403 . S
C772 C771 1.403 . S
C772 C773 1.404 . S
C772 C775 1.539 . S
C773 C769 1.408 . S
C773 C772 1.404 . S
C773 H785 0.930 . S
C774 C770 1.524 . S
C774 H786 0.956 . S
C774 H787 0.961 . S
C774 H788 0.961 . S
C775 C772 1.539 . S
C775 H789 0.958 . S
C775 H790 0.961 . S
C775 H791 0.960 . S
H776 C760 0.931 . S
H777 C765 0.929 . S
H778 C766 0.960 . S
H779 C766 0.962 . S
H780 C766 0.960 . S
H781 C767 0.961 . S
H782 C767 0.961 . S
H783 C767 0.961 . S
H784 C768 0.931 . S
H785 C773 0.930 . S
H786 C774 0.956 . S
H787 C774 0.961 . S
H788 C774 0.961 . S
H789 C775 0.958 . S
H790 C775 0.961 . S
H791 C775 0.960 . S
C792 C793 1.391 . S
C792 C794 1.394 . S
C792 H808 0.931 . S
C793 C792 1.391 . S
C793 C797 1.376 . S
C794 C792 1.394 . S
C794 C795 1.369 . S
C794 C798 1.531 . S
C795 C794 1.369 . S
C795 C796 1.410 . S
C795 C803 1.503 . S
C796 C795 1.410 . S
C796 C797 1.392 . S
C796 C799 1.511 . S
C797 C793 1.376 . S
C797 C796 1.392 . S
C797 H809 0.929 . S
C798 C794 1.531 . S
C798 H810 0.960 . S
C798 H811 0.962 . S
C798 H812 0.960 . S
C799 C796 1.511 . S
C799 H813 0.961 . S
C799 H814 0.961 . S
C799 H815 0.961 . S
C800 C801 1.370 . S
C800 C802 1.363 . S
C800 H816 0.931 . S
C801 C800 1.370 . S
C801 C805 1.408 . S
C802 C800 1.363 . S
C802 C803 1.370 . S
C802 C806 1.524 . S
C803 C795 1.503 . S
C803 C802 1.370 . S
C803 C804 1.403 . S
C804 C803 1.403 . S
C804 C805 1.404 . S
C804 C807 1.539 . S
C805 C801 1.408 . S
C805 C804 1.404 . S
C805 H817 0.930 . S
C806 C802 1.524 . S
C806 H818 0.956 . S
C806 H819 0.961 . S
C806 H820 0.961 . S
C807 C804 1.539 . S
C807 H821 0.958 . S
C807 H822 0.961 . S
C807 H823 0.960 . S
H808 C792 0.931 . S
H809 C797 0.929 . S
H810 C798 0.960 . S
H811 C798 0.962 . S
H812 C798 0.960 . S
H813 C799 0.961 . S
H814 C799 0.961 . S
H815 C799 0.961 . S
H816 C800 0.931 . S
H817 C805 0.930 . S
H818 C806 0.956 . S
H819 C806 0.961 . S
H820 C806 0.961 . S
H821 C807 0.958 . S
H822 C807 0.961 . S
H823 C807 0.960 . S
C824 C825 1.391 . S
C824 C826 1.394 . S
C824 H840 0.931 . S
C825 C824 1.391 . S
C825 C829 1.376 . S
C826 C824 1.394 . S
C826 C827 1.369 . S
C826 C830 1.531 . S
C827 C826 1.369 . S
C827 C828 1.410 . S
C827 C835 1.503 . S
C828 C827 1.410 . S
C828 C829 1.392 . S
C828 C831 1.511 . S
C829 C825 1.376 . S
C829 C828 1.392 . S
C829 H841 0.929 . S
C830 C826 1.531 . S
C830 H842 0.960 . S
C830 H843 0.962 . S
C830 H844 0.960 . S
C831 C828 1.511 . S
C831 H845 0.961 . S
C831 H846 0.961 . S
C831 H847 0.961 . S
C832 C833 1.370 . S
C832 C834 1.363 . S
C832 H848 0.931 . S
C833 C832 1.370 . S
C833 C837 1.408 . S
C834 C832 1.363 . S
C834 C835 1.370 . S
C834 C838 1.524 . S
C835 C827 1.503 . S
C835 C834 1.370 . S
C835 C836 1.403 . S
C836 C835 1.403 . S
C836 C837 1.404 . S
C836 C839 1.539 . S
C837 C833 1.408 . S
C837 C836 1.404 . S
C837 H849 0.930 . S
C838 C834 1.524 . S
C838 H850 0.956 . S
C838 H851 0.961 . S
C838 H852 0.961 . S
C839 C836 1.539 . S
C839 H853 0.958 . S
C839 H854 0.961 . S
C839 H855 0.960 . S
H840 C824 0.931 . S
H841 C829 0.929 . S
H842 C830 0.960 . S
H843 C830 0.962 . S
H844 C830 0.960 . S
H845 C831 0.961 . S
H846 C831 0.961 . S
H847 C831 0.961 . S
H848 C832 0.931 . S
H849 C837 0.930 . S
H850 C838 0.956 . S
H851 C838 0.961 . S
H852 C838 0.961 . S
H853 C839 0.958 . S
H854 C839 0.961 . S
H855 C839 0.960 . S
C856 C857 1.391 . S
C856 C858 1.394 . S
C856 H872 0.931 . S
C857 C856 1.391 . S
C857 C861 1.376 . S
C858 C856 1.394 . S
C858 C859 1.369 . S
C858 C862 1.531 . S
C859 C858 1.369 . S
C859 C860 1.410 . S
C859 C867 1.503 . S
C860 C859 1.410 . S
C860 C861 1.392 . S
C860 C863 1.511 . S
C861 C857 1.376 . S
C861 C860 1.392 . S
C861 H873 0.929 . S
C862 C858 1.531 . S
C862 H874 0.960 . S
C862 H875 0.962 . S
C862 H876 0.960 . S
C863 C860 1.511 . S
C863 H877 0.961 . S
C863 H878 0.961 . S
C863 H879 0.961 . S
C864 C865 1.370 . S
C864 C866 1.363 . S
C864 H880 0.931 . S
C865 C864 1.370 . S
C865 C869 1.408 . S
C866 C864 1.363 . S
C866 C867 1.370 . S
C866 C870 1.524 . S
C867 C859 1.503 . S
C867 C866 1.370 . S
C867 C868 1.403 . S
C868 C867 1.403 . S
C868 C869 1.404 . S
C868 C871 1.539 . S
C869 C865 1.408 . S
C869 C868 1.404 . S
C869 H881 0.930 . S
C870 C866 1.524 . S
C870 H882 0.956 . S
C870 H883 0.961 . S
C870 H884 0.961 . S
C871 C868 1.539 . S
C871 H885 0.958 . S
C871 H886 0.961 . S
C871 H887 0.960 . S
H872 C856 0.931 . S
H873 C861 0.929 . S
H874 C862 0.960 . S
H875 C862 0.962 . S
H876 C862 0.960 . S
H877 C863 0.961 . S
H878 C863 0.961 . S
H879 C863 0.961 . S
H880 C864 0.931 . S
H881 C869 0.930 . S
H882 C870 0.956 . S
H883 C870 0.961 . S
H884 C870 0.961 . S
H885 C871 0.958 . S
H886 C871 0.961 . S
H887 C871 0.960 . S
C888 C889 1.391 . S
C888 C890 1.394 . S
C888 H904 0.931 . S
C889 C888 1.391 . S
C889 C893 1.376 . S
C890 C888 1.394 . S
C890 C891 1.369 . S
C890 C894 1.531 . S
C891 C890 1.369 . S
C891 C892 1.410 . S
C891 C899 1.503 . S
C892 C891 1.410 . S
C892 C893 1.392 . S
C892 C895 1.511 . S
C893 C889 1.376 . S
C893 C892 1.392 . S
C893 H905 0.929 . S
C894 C890 1.531 . S
C894 H906 0.960 . S
C894 H907 0.962 . S
C894 H908 0.960 . S
C895 C892 1.511 . S
C895 H909 0.961 . S
C895 H910 0.961 . S
C895 H911 0.961 . S
C896 C897 1.370 . S
C896 C898 1.363 . S
C896 H912 0.931 . S
C897 C896 1.370 . S
C897 C901 1.408 . S
C898 C896 1.363 . S
C898 C899 1.370 . S
C898 C902 1.524 . S
C899 C891 1.503 . S
C899 C898 1.370 . S
C899 C900 1.403 . S
C900 C899 1.403 . S
C900 C901 1.404 . S
C900 C903 1.539 . S
C901 C897 1.408 . S
C901 C900 1.404 . S
C901 H913 0.930 . S
C902 C898 1.524 . S
C902 H914 0.956 . S
C902 H915 0.961 . S
C902 H916 0.961 . S
C903 C900 1.539 . S
C903 H917 0.958 . S
C903 H918 0.961 . S
C903 H919 0.960 . S
H904 C888 0.931 . S
H905 C893 0.929 . S
H906 C894 0.960 . S
H907 C894 0.962 . S
H908 C894 0.960 . S
H909 C895 0.961 . S
H910 C895 0.961 . S
H911 C895 0.961 . S
H912 C896 0.931 . S
H913 C901 0.930 . S
H914 C902 0.956 . S
H915 C902 0.961 . S
H916 C902 0.961 . S
H917 C903 0.958 . S
H918 C903 0.961 . S
H919 C903 0.960 . S
C920 C921 1.391 . S
C920 C922 1.394 . S
C920 H936 0.931 . S
C921 C920 1.391 . S
C921 C925 1.376 . S
C922 C920 1.394 . S
C922 C923 1.369 . S
C922 C926 1.531 . S
C923 C922 1.369 . S
C923 C924 1.410 . S
C923 C931 1.503 . S
C924 C923 1.410 . S
C924 C925 1.392 . S
C924 C927 1.511 . S
C925 C921 1.376 . S
C925 C924 1.392 . S
C925 H937 0.929 . S
C926 C922 1.531 . S
C926 H938 0.960 . S
C926 H939 0.962 . S
C926 H940 0.960 . S
C927 C924 1.511 . S
C927 H941 0.961 . S
C927 H942 0.961 . S
C927 H943 0.961 . S
C928 C929 1.370 . S
C928 C930 1.363 . S
C928 H944 0.931 . S
C929 C928 1.370 . S
C929 C933 1.408 . S
C930 C928 1.363 . S
C930 C931 1.370 . S
C930 C934 1.524 . S
C931 C923 1.503 . S
C931 C930 1.370 . S
C931 C932 1.403 . S
C932 C931 1.403 . S
C932 C933 1.404 . S
C932 C935 1.539 . S
C933 C929 1.408 . S
C933 C932 1.404 . S
C933 H945 0.930 . S
C934 C930 1.524 . S
C934 H946 0.956 . S
C934 H947 0.961 . S
C934 H948 0.961 . S
C935 C932 1.539 . S
C935 H949 0.958 . S
C935 H950 0.961 . S
C935 H951 0.960 . S
H936 C920 0.931 . S
H937 C925 0.929 . S
H938 C926 0.960 . S
H939 C926 0.962 . S
H940 C926 0.960 . S
H941 C927 0.961 . S
H942 C927 0.961 . S
H943 C927 0.961 . S
H944 C928 0.931 . S
H945 C933 0.930 . S
H946 C934 0.956 . S
H947 C934 0.961 . S
H948 C934 0.961 . S
H949 C935 0.958 . S
H950 C935 0.961 . S
H951 C935 0.960 . S
C952 C953 1.391 . S
C952 C954 1.394 . S
C952 H968 0.931 . S
C953 C952 1.391 . S
C953 C957 1.376 . S
C954 C952 1.394 . S
C954 C955 1.369 . S
C954 C958 1.531 . S
C955 C954 1.369 . S
C955 C956 1.410 . S
C955 C963 1.503 . S
C956 C955 1.410 . S
C956 C957 1.392 . S
C956 C959 1.511 . S
C957 C953 1.376 . S
C957 C956 1.392 . S
C957 H969 0.929 . S
C958 C954 1.531 . S
C958 H970 0.960 . S
C958 H971 0.962 . S
C958 H972 0.960 . S
C959 C956 1.511 . S
C959 H973 0.961 . S
C959 H974 0.961 . S
C959 H975 0.961 . S
C960 C961 1.370 . S
C960 C962 1.363 . S
C960 H976 0.931 . S
C961 C960 1.370 . S
C961 C965 1.408 . S
C962 C960 1.363 . S
C962 C963 1.370 . S
C962 C966 1.524 . S
C963 C955 1.503 . S
C963 C962 1.370 . S
C963 C964 1.403 . S
C964 C963 1.403 . S
C964 C965 1.404 . S
C964 C967 1.539 . S
C965 C961 1.408 . S
C965 C964 1.404 . S
C965 H977 0.930 . S
C966 C962 1.524 . S
C966 H978 0.956 . S
C966 H979 0.961 . S
C966 H980 0.961 . S
C967 C964 1.539 . S
C967 H981 0.958 . S
C967 H982 0.961 . S
C967 H983 0.960 . S
H968 C952 0.931 . S
H969 C957 0.929 . S
H970 C958 0.960 . S
H971 C958 0.962 . S
H972 C958 0.960 . S
H973 C959 0.961 . S
H974 C959 0.961 . S
H975 C959 0.961 . S
H976 C960 0.931 . S
H977 C965 0.930 . S
H978 C966 0.956 . S
H979 C966 0.961 . S
H980 C966 0.961 . S
H981 C967 0.958 . S
H982 C967 0.961 . S
H983 C967 0.960 . S
C984 C985 1.391 . S
C984 C986 1.394 . S
C984 H1000 0.931 . S
C985 C984 1.391 . S
C985 C989 1.376 . S
C986 C984 1.394 . S
C986 C987 1.369 . S
C986 C990 1.531 . S
C987 C986 1.369 . S
C987 C988 1.410 . S
C987 C995 1.503 . S
C988 C987 1.410 . S
C988 C989 1.392 . S
C988 C991 1.511 . S
C989 C985 1.376 . S
C989 C988 1.392 . S
C989 H1001 0.929 . S
C990 C986 1.531 . S
C990 H1002 0.960 . S
C990 H1003 0.962 . S
C990 H1004 0.960 . S
C991 C988 1.511 . S
C991 H1005 0.961 . S
C991 H1006 0.961 . S
C991 H1007 0.961 . S
C992 C993 1.370 . S
C992 C994 1.363 . S
C992 H1008 0.931 . S
C993 C992 1.370 . S
C993 C997 1.408 . S
C994 C992 1.363 . S
C994 C995 1.370 . S
C994 C998 1.524 . S
C995 C987 1.503 . S
C995 C994 1.370 . S
C995 C996 1.403 . S
C996 C995 1.403 . S
C996 C997 1.404 . S
C996 C999 1.539 . S
C997 C993 1.408 . S
C997 C996 1.404 . S
C997 H1009 0.930 . S
C998 C994 1.524 . S
C998 H1010 0.956 . S
C998 H1011 0.961 . S
C998 H1012 0.961 . S
C999 C996 1.539 . S
C999 H1013 0.958 . S
C999 H1014 0.961 . S
C999 H1015 0.960 . S
H1000 C984 0.931 . S
H1001 C989 0.929 . S
H1002 C990 0.960 . S
H1003 C990 0.962 . S
H1004 C990 0.960 . S
H1005 C991 0.961 . S
H1006 C991 0.961 . S
H1007 C991 0.961 . S
H1008 C992 0.931 . S
H1009 C997 0.930 . S
H1010 C998 0.956 . S
H1011 C998 0.961 . S
H1012 C998 0.961 . S
H1013 C999 0.958 . S
H1014 C999 0.961 . S
H1015 C999 0.960 . S
C1016 C1017 1.391 . S
C1016 C1018 1.394 . S
C1016 H1032 0.931 . S
C1017 C1016 1.391 . S
C1017 C1021 1.376 . S
C1018 C1016 1.394 . S
C1018 C1019 1.369 . S
C1018 C1022 1.531 . S
C1019 C1018 1.369 . S
C1019 C1020 1.410 . S
C1019 C1027 1.503 . S
C1020 C1019 1.410 . S
C1020 C1021 1.392 . S
C1020 C1023 1.511 . S
C1021 C1017 1.376 . S
C1021 C1020 1.392 . S
C1021 H1033 0.929 . S
C1022 C1018 1.531 . S
C1022 H1034 0.960 . S
C1022 H1035 0.962 . S
C1022 H1036 0.960 . S
C1023 C1020 1.511 . S
C1023 H1037 0.961 . S
C1023 H1038 0.961 . S
C1023 H1039 0.961 . S
C1024 C1025 1.370 . S
C1024 C1026 1.363 . S
C1024 H1040 0.931 . S
C1025 C1024 1.370 . S
C1025 C1029 1.408 . S
C1026 C1024 1.363 . S
C1026 C1027 1.370 . S
C1026 C1030 1.524 . S
C1027 C1019 1.503 . S
C1027 C1026 1.370 . S
C1027 C1028 1.403 . S
C1028 C1027 1.403 . S
C1028 C1029 1.404 . S
C1028 C1031 1.539 . S
C1029 C1025 1.408 . S
C1029 C1028 1.404 . S
C1029 H1041 0.930 . S
C1030 C1026 1.524 . S
C1030 H1042 0.956 . S
C1030 H1043 0.961 . S
C1030 H1044 0.961 . S
C1031 C1028 1.539 . S
C1031 H1045 0.958 . S
C1031 H1046 0.961 . S
C1031 H1047 0.960 . S
H1032 C1016 0.931 . S
H1033 C1021 0.929 . S
H1034 C1022 0.960 . S
H1035 C1022 0.962 . S
H1036 C1022 0.960 . S
H1037 C1023 0.961 . S
H1038 C1023 0.961 . S
H1039 C1023 0.961 . S
H1040 C1024 0.931 . S
H1041 C1029 0.930 . S
H1042 C1030 0.956 . S
H1043 C1030 0.961 . S
H1044 C1030 0.961 . S
H1045 C1031 0.958 . S
H1046 C1031 0.961 . S
H1047 C1031 0.960 . S
C1048 C1049 1.391 . S
C1048 C1050 1.394 . S
C1048 H1064 0.931 . S
C1049 C1048 1.391 . S
C1049 C1053 1.376 . S
C1050 C1048 1.394 . S
C1050 C1051 1.369 . S
C1050 C1054 1.531 . S
C1051 C1050 1.369 . S
C1051 C1052 1.410 . S
C1051 C1059 1.503 . S
C1052 C1051 1.410 . S
C1052 C1053 1.392 . S
C1052 C1055 1.511 . S
C1053 C1049 1.376 . S
C1053 C1052 1.392 . S
C1053 H1065 0.929 . S
C1054 C1050 1.531 . S
C1054 H1066 0.960 . S
C1054 H1067 0.962 . S
C1054 H1068 0.960 . S
C1055 C1052 1.511 . S
C1055 H1069 0.961 . S
C1055 H1070 0.961 . S
C1055 H1071 0.961 . S
C1056 C1057 1.370 . S
C1056 C1058 1.363 . S
C1056 H1072 0.931 . S
C1057 C1056 1.370 . S
C1057 C1061 1.408 . S
C1058 C1056 1.363 . S
C1058 C1059 1.370 . S
C1058 C1062 1.524 . S
C1059 C1051 1.503 . S
C1059 C1058 1.370 . S
C1059 C1060 1.403 . S
C1060 C1059 1.403 . S
C1060 C1061 1.404 . S
C1060 C1063 1.539 . S
C1061 C1057 1.408 . S
C1061 C1060 1.404 . S
C1061 H1073 0.930 . S
C1062 C1058 1.524 . S
C1062 H1074 0.956 . S
C1062 H1075 0.961 . S
C1062 H1076 0.961 . S
C1063 C1060 1.539 . S
C1063 H1077 0.958 . S
C1063 H1078 0.961 . S
C1063 H1079 0.960 . S
H1064 C1048 0.931 . S
H1065 C1053 0.929 . S
H1066 C1054 0.960 . S
H1067 C1054 0.962 . S
H1068 C1054 0.960 . S
H1069 C1055 0.961 . S
H1070 C1055 0.961 . S
H1071 C1055 0.961 . S
H1072 C1056 0.931 . S
H1073 C1061 0.930 . S
H1074 C1062 0.956 . S
H1075 C1062 0.961 . S
H1076 C1062 0.961 . S
H1077 C1063 0.958 . S
H1078 C1063 0.961 . S
H1079 C1063 0.960 . S
C1080 C1081 1.391 . S
C1080 C1082 1.394 . S
C1080 H1096 0.931 . S
C1081 C1080 1.391 . S
C1081 C1085 1.376 . S
C1082 C1080 1.394 . S
C1082 C1083 1.369 . S
C1082 C1086 1.531 . S
C1083 C1082 1.369 . S
C1083 C1084 1.410 . S
C1083 C1091 1.503 . S
C1084 C1083 1.410 . S
C1084 C1085 1.392 . S
C1084 C1087 1.511 . S
C1085 C1081 1.376 . S
C1085 C1084 1.392 . S
C1085 H1097 0.929 . S
C1086 C1082 1.531 . S
C1086 H1098 0.960 . S
C1086 H1099 0.962 . S
C1086 H1100 0.960 . S
C1087 C1084 1.511 . S
C1087 H1101 0.961 . S
C1087 H1102 0.961 . S
C1087 H1103 0.961 . S
C1088 C1089 1.370 . S
C1088 C1090 1.363 . S
C1088 H1104 0.931 . S
C1089 C1088 1.370 . S
C1089 C1093 1.408 . S
C1090 C1088 1.363 . S
C1090 C1091 1.370 . S
C1090 C1094 1.524 . S
C1091 C1083 1.503 . S
C1091 C1090 1.370 . S
C1091 C1092 1.403 . S
C1092 C1091 1.403 . S
C1092 C1093 1.404 . S
C1092 C1095 1.539 . S
C1093 C1089 1.408 . S
C1093 C1092 1.404 . S
C1093 H1105 0.930 . S
C1094 C1090 1.524 . S
C1094 H1106 0.956 . S
C1094 H1107 0.961 . S
C1094 H1108 0.961 . S
C1095 C1092 1.539 . S
C1095 H1109 0.958 . S
C1095 H1110 0.961 . S
C1095 H1111 0.960 . S
H1096 C1080 0.931 . S
H1097 C1085 0.929 . S
H1098 C1086 0.960 . S
H1099 C1086 0.962 . S
H1100 C1086 0.960 . S
H1101 C1087 0.961 . S
H1102 C1087 0.961 . S
H1103 C1087 0.961 . S
H1104 C1088 0.931 . S
H1105 C1093 0.930 . S
H1106 C1094 0.956 . S
H1107 C1094 0.961 . S
H1108 C1094 0.961 . S
H1109 C1095 0.958 . S
H1110 C1095 0.961 . S
H1111 C1095 0.960 . S
C1112 C1113 1.391 . S
C1112 C1114 1.394 . S
C1112 H1128 0.931 . S
C1113 C1112 1.391 . S
C1113 C1117 1.376 . S
C1114 C1112 1.394 . S
C1114 C1115 1.369 . S
C1114 C1118 1.531 . S
C1115 C1114 1.369 . S
C1115 C1116 1.410 . S
C1115 C1123 1.503 . S
C1116 C1115 1.410 . S
C1116 C1117 1.392 . S
C1116 C1119 1.511 . S
C1117 C1113 1.376 . S
C1117 C1116 1.392 . S
C1117 H1129 0.929 . S
C1118 C1114 1.531 . S
C1118 H1130 0.960 . S
C1118 H1131 0.962 . S
C1118 H1132 0.960 . S
C1119 C1116 1.511 . S
C1119 H1133 0.961 . S
C1119 H1134 0.961 . S
C1119 H1135 0.961 . S
C1120 C1121 1.370 . S
C1120 C1122 1.363 . S
C1120 H1136 0.931 . S
C1121 C1120 1.370 . S
C1121 C1125 1.408 . S
C1122 C1120 1.363 . S
C1122 C1123 1.370 . S
C1122 C1126 1.524 . S
C1123 C1115 1.503 . S
C1123 C1122 1.370 . S
C1123 C1124 1.403 . S
C1124 C1123 1.403 . S
C1124 C1125 1.404 . S
C1124 C1127 1.539 . S
C1125 C1121 1.408 . S
C1125 C1124 1.404 . S
C1125 H1137 0.930 . S
C1126 C1122 1.524 . S
C1126 H1138 0.956 . S
C1126 H1139 0.961 . S
C1126 H1140 0.961 . S
C1127 C1124 1.539 . S
C1127 H1141 0.958 . S
C1127 H1142 0.961 . S
C1127 H1143 0.960 . S
H1128 C1112 0.931 . S
H1129 C1117 0.929 . S
H1130 C1118 0.960 . S
H1131 C1118 0.962 . S
H1132 C1118 0.960 . S
H1133 C1119 0.961 . S
H1134 C1119 0.961 . S
H1135 C1119 0.961 . S
H1136 C1120 0.931 . S
H1137 C1125 0.930 . S
H1138 C1126 0.956 . S
H1139 C1126 0.961 . S
H1140 C1126 0.961 . S
H1141 C1127 0.958 . S
H1142 C1127 0.961 . S
H1143 C1127 0.960 . S
C1144 C1145 1.391 . S
C1144 C1146 1.394 . S
C1144 H1160 0.931 . S
C1145 C1144 1.391 . S
C1145 C1149 1.376 . S
C1146 C1144 1.394 . S
C1146 C1147 1.369 . S
C1146 C1150 1.531 . S
C1147 C1146 1.369 . S
C1147 C1148 1.410 . S
C1147 C1155 1.503 . S
C1148 C1147 1.410 . S
C1148 C1149 1.392 . S
C1148 C1151 1.511 . S
C1149 C1145 1.376 . S
C1149 C1148 1.392 . S
C1149 H1161 0.929 . S
C1150 C1146 1.531 . S
C1150 H1162 0.960 . S
C1150 H1163 0.962 . S
C1150 H1164 0.960 . S
C1151 C1148 1.511 . S
C1151 H1165 0.961 . S
C1151 H1166 0.961 . S
C1151 H1167 0.961 . S
C1152 C1153 1.370 . S
C1152 C1154 1.363 . S
C1152 H1168 0.931 . S
C1153 C1152 1.370 . S
C1153 C1157 1.408 . S
C1154 C1152 1.363 . S
C1154 C1155 1.370 . S
C1154 C1158 1.524 . S
C1155 C1147 1.503 . S
C1155 C1154 1.370 . S
C1155 C1156 1.403 . S
C1156 C1155 1.403 . S
C1156 C1157 1.404 . S
C1156 C1159 1.539 . S
C1157 C1153 1.408 . S
C1157 C1156 1.404 . S
C1157 H1169 0.930 . S
C1158 C1154 1.524 . S
C1158 H1170 0.956 . S
C1158 H1171 0.961 . S
C1158 H1172 0.961 . S
C1159 C1156 1.539 . S
C1159 H1173 0.958 . S
C1159 H1174 0.961 . S
C1159 H1175 0.960 . S
H1160 C1144 0.931 . S
H1161 C1149 0.929 . S
H1162 C1150 0.960 . S
H1163 C1150 0.962 . S
H1164 C1150 0.960 . S
H1165 C1151 0.961 . S
H1166 C1151 0.961 . S
H1167 C1151 0.961 . S
H1168 C1152 0.931 . S
H1169 C1157 0.930 . S
H1170 C1158 0.956 . S
H1171 C1158 0.961 . S
H1172 C1158 0.961 . S
H1173 C1159 0.958 . S
H1174 C1159 0.961 . S
H1175 C1159 0.960 . S
C1176 C1177 1.391 . S
C1176 C1178 1.394 . S
C1176 H1192 0.931 . S
C1177 C1176 1.391 . S
C1177 C1181 1.376 . S
C1178 C1176 1.394 . S
C1178 C1179 1.369 . S
C1178 C1182 1.531 . S
C1179 C1178 1.369 . S
C1179 C1180 1.410 . S
C1179 C1187 1.503 . S
C1180 C1179 1.410 . S
C1180 C1181 1.392 . S
C1180 C1183 1.511 . S
C1181 C1177 1.376 . S
C1181 C1180 1.392 . S
C1181 H1193 0.929 . S
C1182 C1178 1.531 . S
C1182 H1194 0.960 . S
C1182 H1195 0.962 . S
C1182 H1196 0.960 . S
C1183 C1180 1.511 . S
C1183 H1197 0.961 . S
C1183 H1198 0.961 . S
C1183 H1199 0.961 . S
C1184 C1185 1.370 . S
C1184 C1186 1.363 . S
C1184 H1200 0.931 . S
C1185 C1184 1.370 . S
C1185 C1189 1.408 . S
C1186 C1184 1.363 . S
C1186 C1187 1.370 . S
C1186 C1190 1.524 . S
C1187 C1179 1.503 . S
C1187 C1186 1.370 . S
C1187 C1188 1.403 . S
C1188 C1187 1.403 . S
C1188 C1189 1.404 . S
C1188 C1191 1.539 . S
C1189 C1185 1.408 . S
C1189 C1188 1.404 . S
C1189 H1201 0.930 . S
C1190 C1186 1.524 . S
C1190 H1202 0.956 . S
C1190 H1203 0.961 . S
C1190 H1204 0.961 . S
C1191 C1188 1.539 . S
C1191 H1205 0.958 . S
C1191 H1206 0.961 . S
C1191 H1207 0.960 . S
H1192 C1176 0.931 . S
H1193 C1181 0.929 . S
H1194 C1182 0.960 . S
H1195 C1182 0.962 . S
H1196 C1182 0.960 . S
H1197 C1183 0.961 . S
H1198 C1183 0.961 . S
H1199 C1183 0.961 . S
H1200 C1184 0.931 . S
H1201 C1189 0.930 . S
H1202 C1190 0.956 . S
H1203 C1190 0.961 . S
H1204 C1190 0.961 . S
H1205 C1191 0.958 . S
H1206 C1191 0.961 . S
H1207 C1191 0.960 . S
C1208 C1209 1.391 . S
C1208 C1210 1.394 . S
C1208 H1224 0.931 . S
C1209 C1208 1.391 . S
C1209 C1213 1.376 . S
C1210 C1208 1.394 . S
C1210 C1211 1.369 . S
C1210 C1214 1.531 . S
C1211 C1210 1.369 . S
C1211 C1212 1.410 . S
C1211 C1219 1.503 . S
C1212 C1211 1.410 . S
C1212 C1213 1.392 . S
C1212 C1215 1.511 . S
C1213 C1209 1.376 . S
C1213 C1212 1.392 . S
C1213 H1225 0.929 . S
C1214 C1210 1.531 . S
C1214 H1226 0.960 . S
C1214 H1227 0.962 . S
C1214 H1228 0.960 . S
C1215 C1212 1.511 . S
C1215 H1229 0.961 . S
C1215 H1230 0.961 . S
C1215 H1231 0.961 . S
C1216 C1217 1.370 . S
C1216 C1218 1.363 . S
C1216 H1232 0.931 . S
C1217 C1216 1.370 . S
C1217 C1221 1.408 . S
C1218 C1216 1.363 . S
C1218 C1219 1.370 . S
C1218 C1222 1.524 . S
C1219 C1211 1.503 . S
C1219 C1218 1.370 . S
C1219 C1220 1.403 . S
C1220 C1219 1.403 . S
C1220 C1221 1.404 . S
C1220 C1223 1.539 . S
C1221 C1217 1.408 . S
C1221 C1220 1.404 . S
C1221 H1233 0.930 . S
C1222 C1218 1.524 . S
C1222 H1234 0.956 . S
C1222 H1235 0.961 . S
C1222 H1236 0.961 . S
C1223 C1220 1.539 . S
C1223 H1237 0.958 . S
C1223 H1238 0.961 . S
C1223 H1239 0.960 . S
H1224 C1208 0.931 . S
H1225 C1213 0.929 . S
H1226 C1214 0.960 . S
H1227 C1214 0.962 . S
H1228 C1214 0.960 . S
H1229 C1215 0.961 . S
H1230 C1215 0.961 . S
H1231 C1215 0.961 . S
H1232 C1216 0.931 . S
H1233 C1221 0.930 . S
H1234 C1222 0.956 . S
H1235 C1222 0.961 . S
H1236 C1222 0.961 . S
H1237 C1223 0.958 . S
H1238 C1223 0.961 . S
H1239 C1223 0.960 . S
C473 C1 1.266 . S
C481 C319 1.318 . S
C505 C40 0.970 . S
C513 C368 1.008 . S
C545 C394 2.448 . S
C537 C99 2.470 . S
C569 C118 2.361 . S
C577 C442 2.311 . S
C609 C354 2.514 . S
C601 C16 2.404 . S
C641 C322 0.874 . S
C633 C60 0.936 . S
C673 C443 1.899 . S
C665 C79 1.926 . S
C705 C411 1.545 . S
C697 C138 1.559 . S
C729 C21 1.720 . S
C737 C439 1.776 . S
C769 C371 2.325 . S
C761 C94 2.399 . S
C793 C133 2.307 . S
C801 C323 2.305 . S
C825 C55 0.913 . S
C833 C408 0.876 . S
C865 C328 1.316 . S
C857 C157 1.246 . S
C889 C196 0.977 . S
C897 C359 1.007 . S
C921 C255 2.466 . S
C929 C403 2.445 . S
C953 C289 2.356 . S
C961 C451 2.312 . S
C985 C172 2.387 . S
C993 C363 2.514 . S
C1025 C331 0.870 . S
C1017 C216 0.914 . S
C1057 C434 1.899 . S
C1049 C235 1.929 . S
C1089 C402 1.536 . S
C1081 C294 1.558 . S
C1113 C177 1.709 . S
C1121 C448 1.776 . S
C1153 C362 2.334 . S
C1145 C250 2.395 . S
C1185 C314 2.315 . S
C1177 C274 2.310 . S
C1209 C211 0.837 . S
C1217 C399 0.901 . S
