# Generated by pormake.
# Topology anh, (6,3)-cn, num edge types: 1
# Building blocks:
#     Node 0, Type 0, BuildingBlock: INOVEN_clean_sbu_0, # of connection points: 6
#     Node 1, Type 0, BuildingBlock: INOVEN_clean_sbu_0, # of connection points: 6
#     Node 2, Type 0, BuildingBlock: INOVEN_clean_sbu_0, # of connection points: 6
#     Node 3, Type 1, BuildingBlock: VETTIZ_charged_linker_0, # of connection points: 3
#     Node 4, Type 1, BuildingBlock: VETTIZ_charged_linker_0, # of connection points: 3
#     Node 5, Type 1, BuildingBlock: VETTIZ_charged_linker_0, # of connection points: 3
#     Node 6, Type 1, BuildingBlock: VETTIZ_charged_linker_0, # of connection points: 3
#     Node 7, Type 1, BuildingBlock: VETTIZ_charged_linker_0, # of connection points: 3
#     Node 8, Type 1, BuildingBlock: VETTIZ_charged_linker_0, # of connection points: 3
#     Edge 9, Type (0, 1), BuildingBlock: XIVTED_clean_linker_0, # of connection points: 2
#     Edge 10, Type (0, 1), BuildingBlock: XIVTED_clean_linker_0, # of connection points: 2
#     Edge 11, Type (0, 1), BuildingBlock: XIVTED_clean_linker_0, # of connection points: 2
#     Edge 12, Type (0, 1), BuildingBlock: XIVTED_clean_linker_0, # of connection points: 2
#     Edge 13, Type (0, 1), BuildingBlock: XIVTED_clean_linker_0, # of connection points: 2
#     Edge 14, Type (0, 1), BuildingBlock: XIVTED_clean_linker_0, # of connection points: 2
#     Edge 15, Type (0, 1), BuildingBlock: XIVTED_clean_linker_0, # of connection points: 2
#     Edge 16, Type (0, 1), BuildingBlock: XIVTED_clean_linker_0, # of connection points: 2
#     Edge 17, Type (0, 1), BuildingBlock: XIVTED_clean_linker_0, # of connection points: 2
#     Edge 18, Type (0, 1), BuildingBlock: XIVTED_clean_linker_0, # of connection points: 2
#     Edge 19, Type (0, 1), BuildingBlock: XIVTED_clean_linker_0, # of connection points: 2
#     Edge 20, Type (0, 1), BuildingBlock: XIVTED_clean_linker_0, # of connection points: 2
#     Edge 21, Type (0, 1), BuildingBlock: XIVTED_clean_linker_0, # of connection points: 2
#     Edge 22, Type (0, 1), BuildingBlock: XIVTED_clean_linker_0, # of connection points: 2
#     Edge 23, Type (0, 1), BuildingBlock: XIVTED_clean_linker_0, # of connection points: 2
#     Edge 24, Type (0, 1), BuildingBlock: XIVTED_clean_linker_0, # of connection points: 2
#     Edge 25, Type (0, 1), BuildingBlock: XIVTED_clean_linker_0, # of connection points: 2
#     Edge 26, Type (0, 1), BuildingBlock: XIVTED_clean_linker_0, # of connection points: 2
# Relax obj value: 0.182
# Max RMSD: 0.214
# Mean RMSD: 0.160
data_MOF--net-anh--node1-INOVEN_clean_sbu_0--node2-VETTIZ_charged_linker_0--edge1-XIVTED_clean_linker_0
_symmetry_space_group_name_H-M    P1
_symmetry_Int_Tables_number       1
_symmetry_cell_setting            triclinic
loop_
_symmetry_equiv_pos_as_xyz
'x, y, z'
_cell_length_a     37.570982
_cell_length_b     43.47662
_cell_length_c     66.838173
_cell_angle_alpha  92.895803
_cell_angle_beta   89.45691
_cell_angle_gamma 128.79594
loop_
_atom_site_label
_atom_site_type_symbol
_atom_site_fract_x
_atom_site_fract_y
_atom_site_fract_z
_atom_type_partial_charge
Gd0 Gd 0.09951 0.50175 0.14181 0.0
Gd1 Gd 1.03979 0.52706 0.15734 0.0
C2 C 0.14594 0.59686 0.14899 0.0
C3 C 0.15707 0.49562 0.12544 0.0
C4 C 0.20268 0.51087 0.13276 0.0
C5 C 0.20889 0.48411 0.13892 0.0
C6 C 0.23843 0.55172 0.13602 0.0
C7 C 0.2843 0.53846 0.15269 0.0
C8 C 0.27907 0.5654 0.14579 0.0
C9 C 0.24917 0.49775 0.1489 0.0
C10 C 0.09055 0.50488 0.18173 0.0
C11 C 0.99183 0.43431 0.14526 0.0
C12 C 0.98878 0.52995 0.18181 0.0
C13 C 0.93948 0.49942 0.18502 0.0
C14 C 0.90953 0.50805 0.18285 0.0
C15 C 0.92133 0.4601 0.18765 0.0
C16 C 0.84459 0.43796 0.18272 0.0
C17 C 0.87432 0.42965 0.18637 0.0
C18 C 0.8623 0.47749 0.1818 0.0
C19 C 1.03302 0.51374 0.1167 0.0
O20 O 0.14974 0.56944 0.14263 0.0
O21 O 0.10744 0.58785 0.15611 0.0
O22 O 0.12312 0.46799 0.13598 0.0
O23 O 0.15252 0.52171 0.12026 0.0
O24 O 0.09522 0.48064 0.17266 0.0
O25 O 0.0947 0.52793 0.16955 0.0
O26 O 0.99206 0.46016 0.15681 0.0
O27 O 1.02804 0.44488 0.13499 0.0
O28 O 0.99968 0.54633 0.16446 0.0
O29 O 1.0146 0.52098 0.18716 0.0
O30 O 1.01303 0.52579 0.12623 0.0
O31 O 0.05381 0.50985 0.12945 0.0
H32 H 0.18193 0.45253 0.13658 0.0
H33 H 0.23464 0.57313 0.13153 0.0
H34 H 0.30591 0.59693 0.14839 0.0
H35 H 0.25289 0.47641 0.15363 0.0
H36 H 0.92269 0.53806 0.1808 0.0
H37 H 0.94339 0.45235 0.18953 0.0
H38 H 0.86131 0.39937 0.18717 0.0
H39 H 0.83986 0.48449 0.17883 0.0
Gd40 Gd 0.6158 0.03257 0.48086 0.0
Gd41 Gd 0.55776 0.05568 0.47149 0.0
C42 C 0.50509 0.96405 0.47357 0.0
C43 C 0.64929 1.00146 0.49569 0.0
C44 C 0.63518 0.9614 0.49755 0.0
C45 C 0.63291 0.93916 0.48082 0.0
C46 C 0.62499 0.94551 0.51646 0.0
C47 C 0.61073 0.88602 0.50199 0.0
C48 C 0.61274 0.9082 0.51866 0.0
C49 C 0.62089 0.90189 0.48304 0.0
C50 C 0.60865 0.04002 0.44161 0.0
C51 C 0.66894 0.12456 0.47832 0.0
C52 C 0.52449 0.08751 0.45743 0.0
C53 C 0.53609 0.12655 0.46081 0.0
C54 C 0.5643 0.15162 0.47721 0.0
C55 C 0.51868 0.13882 0.44783 0.0
C56 C 0.55621 0.20057 0.46809 0.0
C57 C 0.52869 0.17556 0.45141 0.0
C58 C 0.57411 0.18818 0.48087 0.0
C59 C 0.56568 0.04883 0.51076 0.0
O60 O 0.54306 0.97448 0.48229 0.0
O61 O 0.50446 0.9904 0.46496 0.0
O62 O 0.65821 0.01493 0.47775 0.0
O63 O 0.6271 0.01037 0.50632 0.0
O64 O 0.64568 0.05025 0.45024 0.0
O65 O 0.57656 0.0243 0.45376 0.0
O66 O 0.62994 0.11415 0.47091 0.0
O67 O 0.67126 0.09819 0.48568 0.0
O68 O 0.50789 0.06533 0.47281 0.0
O69 O 0.55493 0.08701 0.44812 0.0
O70 O 0.52844 0.03831 0.50227 0.0
O71 O 0.59741 0.0645 0.49847 0.0
H72 H 0.64063 0.95055 0.46601 0.0
H73 H 0.62692 0.96213 0.52964 0.0
H74 H 0.60585 0.89711 0.53352 0.0
H75 H 0.61934 0.88541 0.4699 0.0
H76 H 0.57819 0.14263 0.48736 0.0
H77 H 0.49712 0.11991 0.43501 0.0
H78 H 0.51491 0.18435 0.44108 0.0
H79 H 0.59482 0.20624 0.49402 0.0
Gd80 Gd 0.61172 0.57202 0.83494 0.0
Gd81 Gd 0.54935 0.48648 0.84174 0.0
C82 C 0.4995 0.52676 0.8404 0.0
C83 C 0.64958 0.64057 0.82114 0.0
C84 C 0.63828 0.66742 0.81899 0.0
C85 C 0.64873 0.69528 0.8345 0.0
C86 C 0.61829 0.66635 0.80103 0.0
C87 C 0.61892 0.72003 0.81418 0.0
C88 C 0.60863 0.69223 0.79867 0.0
C89 C 0.63909 0.72123 0.83213 0.0
C90 C 0.60406 0.5553 0.8736 0.0
C91 C 0.66204 0.53222 0.83725 0.0
C92 C 0.5127 0.41712 0.85403 0.0
C93 C 0.52345 0.39011 0.85039 0.0
C94 C 0.55106 0.39559 0.83442 0.0
C95 C 0.50646 0.35885 0.86283 0.0
C96 C 0.54376 0.33807 0.84303 0.0
C97 C 0.51652 0.33304 0.8592 0.0
C98 C 0.56096 0.36979 0.83072 0.0
C99 C 0.55901 0.50341 0.80293 0.0
O100 O 0.54012 0.55779 0.83401 0.0
O101 O 0.49574 0.49607 0.84652 0.0
O102 O 0.6575 0.63587 0.83931 0.0
O103 O 0.62589 0.60758 0.8099 0.0
O104 O 0.64204 0.58424 0.86594 0.0
O105 O 0.57155 0.5381 0.86086 0.0
O106 O 0.62083 0.50071 0.84281 0.0
O107 O 0.66655 0.56349 0.83156 0.0
O108 O 0.49734 0.42295 0.83839 0.0
O109 O 0.54327 0.44985 0.86464 0.0
O110 O 0.52059 0.47478 0.81035 0.0
O111 O 0.59061 0.52024 0.81605 0.0
H112 H 0.66456 0.69721 0.84847 0.0
H113 H 0.61046 0.64573 0.78865 0.0
H114 H 0.59395 0.69097 0.78449 0.0
H115 H 0.64721 0.74208 0.84442 0.0
H116 H 0.56463 0.41967 0.82467 0.0
H117 H 0.48538 0.35438 0.87533 0.0
H118 H 0.50324 0.30935 0.86917 0.0
H119 H 0.58138 0.37432 0.81794 0.0
C120 C 0.68257 0.1227 0.16224 0.0
C121 C 0.71854 0.16001 0.17147 0.0
C122 C 0.72163 0.16484 0.19247 0.0
C123 C 0.65376 0.09689 0.1951 0.0
C124 C 0.65026 0.09142 0.17443 0.0
C125 C 0.60868 0.04958 0.16782 0.0
H126 H 0.41509 0.87115 0.1969 0.0
C127 C 0.61503 0.05987 0.20372 0.0
C128 C 0.58779 0.0316 0.18791 0.0
H129 H 0.45987 0.90029 0.13623 0.0
H130 H 0.52771 0.96595 0.14836 0.0
H131 H 0.50978 0.90456 0.21452 0.0
H132 H 0.43904 0.95243 0.21179 0.0
H133 H 0.46494 0.96629 0.23579 0.0
H134 H 0.42339 0.91455 0.22821 0.0
H135 H 0.46499 0.89086 0.23126 0.0
H136 H 0.52397 0.93248 0.23717 0.0
C137 C 0.62528 0.02887 0.15671 0.0
C138 C 0.57662 0.05177 0.15489 0.0
C139 C 0.60305 0.05527 0.27964 0.0
C140 C 0.57094 0.02566 0.29237 0.0
C141 C 0.53248 0.98916 0.28376 0.0
C142 C 0.52634 0.9821 0.26292 0.0
C143 C 0.559 0.01179 0.25039 0.0
C144 C 0.59636 0.04769 0.25881 0.0
C145 C 0.62726 0.07581 0.24318 0.0
C146 C 0.60272 0.05053 0.22398 0.0
C147 C 0.56289 0.0132 0.22833 0.0
C148 C 0.67459 0.08599 0.24607 0.0
C149 C 0.62782 0.11187 0.2452 0.0
C150 C 0.43916 0.89169 0.18612 0.0
C151 C 0.43163 0.88072 0.1656 0.0
C152 C 0.46474 0.9081 0.15217 0.0
C153 C 0.50396 0.94619 0.15923 0.0
C154 C 0.51048 0.95677 0.17996 0.0
C155 C 0.47829 0.9291 0.19289 0.0
C156 C 0.4905 0.94341 0.21442 0.0
C157 C 0.53493 0.98462 0.21259 0.0
C158 C 0.54705 0.99313 0.1924 0.0
C159 C 0.49743 0.91648 0.22506 0.0
C160 C 0.45256 0.94406 0.2232 0.0
H161 H 0.69444 0.13982 0.22015 0.0
H162 H 0.67937 0.11829 0.14607 0.0
H163 H 0.57106 0.07177 0.16247 0.0
H164 H 0.54258 0.0228 0.15235 0.0
H165 H 0.59159 0.06341 0.14009 0.0
H166 H 0.65435 0.03437 0.16513 0.0
H167 H 0.63708 0.04017 0.14154 0.0
H168 H 0.59862 0.9965 0.15519 0.0
H169 H 0.6327 0.08384 0.28573 0.0
H170 H 0.50749 0.9656 0.29315 0.0
H171 H 0.49645 0.9536 0.25742 0.0
H172 H 0.67072 0.0598 0.25067 0.0
H173 H 0.69559 0.11003 0.25789 0.0
H174 H 0.69407 0.09444 0.23216 0.0
H175 H 0.59562 0.10367 0.25159 0.0
H176 H 0.62984 0.12365 0.23058 0.0
H177 H 0.65648 0.136 0.25519 0.0
H178 H 0.74893 0.19315 0.19984 0.0
C179 C 0.68977 0.13372 0.20426 0.0
C180 C 0.57654 0.62457 0.53302 0.0
C181 C 0.57224 0.65062 0.54394 0.0
C182 C 0.5717 0.65066 0.56502 0.0
C183 C 0.5805 0.60007 0.56412 0.0
C184 C 0.58035 0.59942 0.54342 0.0
C185 C 0.58428 0.56919 0.53437 0.0
H186 H 0.60959 0.43019 0.54862 0.0
C187 C 0.58642 0.57146 0.57042 0.0
C188 C 0.58873 0.55319 0.5531 0.0
H189 H 0.58765 0.46194 0.49249 0.0
H190 H 0.5864 0.51136 0.5101 0.0
H191 H 0.68088 0.51828 0.56863 0.0
H192 H 0.5351 0.42943 0.57209 0.0
H193 H 0.55689 0.45016 0.59645 0.0
H194 H 0.57488 0.42504 0.58329 0.0
H195 H 0.65553 0.4761 0.58338 0.0
H196 H 0.66688 0.52091 0.59345 0.0
C197 C 0.62802 0.59087 0.52193 0.0
C198 C 0.53966 0.53723 0.52214 0.0
C199 C 0.59296 0.55472 0.6446 0.0
C200 C 0.60045 0.53204 0.65518 0.0
C201 C 0.60978 0.50916 0.64447 0.0
C202 C 0.61024 0.50792 0.62348 0.0
C203 C 0.60148 0.52996 0.61306 0.0
C204 C 0.59401 0.55348 0.62366 0.0
C205 C 0.58745 0.57629 0.61017 0.0
C206 C 0.5908 0.56165 0.58968 0.0
C207 C 0.59853 0.53425 0.59146 0.0
C208 C 0.62725 0.62099 0.61459 0.0
C209 C 0.53915 0.56371 0.61352 0.0
C210 C 0.60523 0.44822 0.54009 0.0
C211 C 0.59907 0.44245 0.51916 0.0
C212 C 0.59234 0.46582 0.50865 0.0
C213 C 0.59161 0.49444 0.5189 0.0
C214 C 0.59707 0.49937 0.5399 0.0
C215 C 0.60369 0.47637 0.55011 0.0
C216 C 0.60664 0.4841 0.57244 0.0
C217 C 0.60042 0.51537 0.57401 0.0
C218 C 0.5952 0.52452 0.55492 0.0
C219 C 0.65476 0.50045 0.58004 0.0
C220 C 0.56661 0.44528 0.58173 0.0
H221 H 0.57552 0.62745 0.59118 0.0
H222 H 0.57662 0.62363 0.5168 0.0
H223 H 0.5099 0.53351 0.52868 0.0
H224 H 0.53038 0.50758 0.52226 0.0
H225 H 0.54218 0.54525 0.50638 0.0
H226 H 0.65701 0.61834 0.53028 0.0
H227 H 0.62285 0.59937 0.5075 0.0
H228 H 0.63944 0.57318 0.51874 0.0
H229 H 0.5865 0.57311 0.65248 0.0
H230 H 0.61555 0.49139 0.65235 0.0
H231 H 0.61685 0.48948 0.61617 0.0
H232 H 0.65877 0.62615 0.61976 0.0
H233 H 0.61838 0.63375 0.6265 0.0
H234 H 0.63763 0.63834 0.60115 0.0
H235 H 0.5141 0.53155 0.61597 0.0
H236 H 0.5252 0.56797 0.60045 0.0
H237 H 0.5391 0.57993 0.6269 0.0
H238 H 0.56907 0.67078 0.57379 0.0
C239 C 0.57585 0.62566 0.57513 0.0
C240 C 0.18957 0.52913 0.84275 0.0
C241 C 0.21994 0.52551 0.85394 0.0
C242 C 0.21266 0.5212 0.87459 0.0
C243 C 0.14878 0.52311 0.8732 0.0
C244 C 0.15361 0.52757 0.85282 0.0
C245 C 0.11591 0.52973 0.84494 0.0
H246 H 0.92518 0.51983 0.87652 0.0
C247 C 0.10993 0.52204 0.88023 0.0
C248 C 0.08883 0.52574 0.86393 0.0
H249 H 0.96727 0.53793 0.81539 0.0
H250 H 1.03086 0.5366 0.82459 0.0
H251 H 0.9328 0.45645 0.88451 0.0
H252 H 1.0217 0.58232 0.89365 0.0
H253 H 1.0329 0.56717 0.91475 0.0
H254 H 0.97583 0.55052 0.91001 0.0
H255 H 0.92607 0.48132 0.90453 0.0
H256 H 0.95966 0.46521 0.90771 0.0
C257 C 0.08419 0.49544 0.82946 0.0
C258 C 0.13861 0.5697 0.83586 0.0
C259 C 0.07858 0.50635 0.95519 0.0
C260 C 1.04641 0.50468 0.96721 0.0
C261 C 1.01534 0.50781 0.95799 0.0
C262 C 1.0155 0.51168 0.93739 0.0
C263 C 1.04755 0.51313 0.92547 0.0
C264 C 0.07848 0.51071 0.93446 0.0
C265 C 0.11039 0.51344 0.91953 0.0
C266 C 0.09349 0.51792 0.9 0.0
C267 C 0.05659 0.51747 0.90365 0.0
C268 C 0.10271 0.47387 0.91926 0.0
C269 C 0.15954 0.55112 0.92571 0.0
C270 C 0.94702 0.52307 0.86468 0.0
C271 C 0.93902 0.52819 0.84514 0.0
C272 C 0.97112 0.53365 0.83078 0.0
C273 C 1.00809 0.53274 0.83606 0.0
C274 C 1.0146 0.52704 0.85609 0.0
C275 C 0.9836 0.52296 0.86963 0.0
C276 C 0.99356 0.51946 0.89036 0.0
C277 C 1.03437 0.52056 0.88779 0.0
C278 C 1.049 0.52496 0.86766 0.0
C279 C 0.95097 0.47878 0.89734 0.0
C280 C 1.00635 0.55644 0.90299 0.0
H281 H 0.17679 0.51672 0.89973 0.0
H282 H 0.19319 0.53237 0.82676 0.0
H283 H 0.1618 0.59435 0.84713 0.0
H284 H 0.11247 0.57221 0.83086 0.0
H285 H 0.159 0.5731 0.82274 0.0
H286 H 0.06821 0.46664 0.83612 0.0
H287 H 0.10363 0.49754 0.81623 0.0
H288 H 0.05653 0.49588 0.82428 0.0
H289 H 0.10306 0.50401 0.96166 0.0
H290 H 0.99098 0.50788 0.96673 0.0
H291 H 0.99031 0.5134 0.93174 0.0
H292 H 0.06714 0.44888 0.92322 0.0
H293 H 0.12608 0.47554 0.93016 0.0
H294 H 0.10664 0.46461 0.90423 0.0
H295 H 0.15925 0.57408 0.93365 0.0
H296 H 0.1813 0.56605 0.9127 0.0
H297 H 0.17661 0.54427 0.93592 0.0
H298 H 0.23411 0.51862 0.88386 0.0
C299 C 0.17849 0.52011 0.88398 0.0
C300 C 0.97964 0.43454 0.4603 0.0
C301 C 0.94266 0.39791 0.45094 0.0
C302 C 0.93922 0.39343 0.42994 0.0
C303 C 1.00773 0.4611 0.42753 0.0
C304 C 1.0119 0.46596 0.44821 0.0
C305 C 0.05342 0.50764 0.45498 0.0
H306 H 0.22966 0.69425 0.42661 0.0
C307 C 1.04511 0.49884 0.41905 0.0
C308 C 0.07234 0.52679 0.43496 0.0
H309 H 0.20067 0.65669 0.48716 0.0
H310 H 0.13655 0.5895 0.47479 0.0
H311 H 0.22092 0.62264 0.40907 0.0
H312 H 0.12829 0.64889 0.4113 0.0
H313 H 0.12045 0.62668 0.38736 0.0
H314 H 0.17578 0.67216 0.39492 0.0
H315 H 0.22428 0.65512 0.39221 0.0
H316 H 0.18968 0.60258 0.38632 0.0
C317 C 0.08696 0.50515 0.46641 0.0
C318 C 1.0373 0.52727 0.46765 0.0
C319 C 0.05414 0.50668 0.34319 0.0
C320 C 0.084 0.53776 0.33069 0.0
C321 C 0.11908 0.57555 0.33949 0.0
C322 C 0.12459 0.58225 0.36032 0.0
C323 C 0.0948 0.55087 0.37264 0.0
C324 C 0.06016 0.51395 0.36404 0.0
C325 C 1.03149 0.48437 0.37952 0.0
C326 C 0.05529 0.50955 0.39884 0.0
C327 C 0.09221 0.54829 0.39466 0.0
C328 C 1.0356 0.45108 0.37673 0.0
C329 C 0.98213 0.47033 0.37719 0.0
C330 C 0.20937 0.67172 0.43729 0.0
C331 C 0.21972 0.68088 0.45784 0.0
C332 C 0.19316 0.65034 0.4712 0.0
C333 C 0.15597 0.61148 0.464 0.0
C334 C 0.14577 0.60306 0.44322 0.0
C335 C 0.17309 0.63321 0.43039 0.0
C336 C 0.15995 0.61987 0.40881 0.0
C337 C 0.11964 0.57677 0.41049 0.0
C338 C 0.11054 0.56645 0.43063 0.0
C339 C 0.20067 0.62547 0.3984 0.0
C340 C 0.14562 0.64312 0.39995 0.0
H341 H 0.96635 0.4189 0.40234 0.0
H342 H 0.98292 0.43866 0.47648 0.0
H343 H 1.00839 0.52308 0.45986 0.0
H344 H 0.06429 0.55943 0.47023 0.0
H345 H 1.02544 0.51404 0.48244 0.0
H346 H 0.09057 0.48434 0.45824 0.0
H347 H 0.07454 0.49436 0.48161 0.0
H348 H 0.12167 0.53378 0.46788 0.0
H349 H 1.0265 0.47739 0.33692 0.0
H350 H 0.14297 0.5999 0.33024 0.0
H351 H 0.15212 0.61167 0.36596 0.0
H352 H 0.07077 0.46334 0.37242 0.0
H353 H 1.01161 0.4288 0.36474 0.0
H354 H 1.02978 0.43594 0.39061 0.0
H355 H 0.98188 0.4933 0.37074 0.0
H356 H 0.96522 0.4649 0.3917 0.0
H357 H 0.96061 0.4432 0.36712 0.0
H358 H 0.91113 0.36555 0.42252 0.0
C359 C 0.97138 0.42458 0.41824 0.0
C360 C 0.58315 0.94425 0.78191 0.0
C361 C 0.58053 0.91425 0.77103 0.0
C362 C 0.57938 0.91304 0.74994 0.0
C363 C 0.58411 0.97121 0.75072 0.0
C364 C 0.58447 0.97219 0.77144 0.0
C365 C 0.58546 1.00532 0.78037 0.0
H366 H 0.59683 0.16483 0.76551 0.0
C367 C 0.58702 1.0047 0.74435 0.0
C368 C 0.58779 0.02493 0.76162 0.0
H369 H 0.57931 0.11202 0.82155 0.0
H370 H 0.58202 0.06308 0.80432 0.0
H371 H 0.67181 0.15956 0.74797 0.0
H372 H 0.52549 0.08273 0.74034 0.0
H373 H 0.54855 0.0875 0.71662 0.0
H374 H 0.56271 0.13073 0.73034 0.0
H375 H 0.64388 0.17048 0.73163 0.0
H376 H 0.65948 0.14039 0.72302 0.0
C377 C 0.6291 0.03312 0.79381 0.0
C378 C 0.54042 0.98687 0.79156 0.0
C379 C 0.59253 0.02728 0.6701 0.0
C380 C 0.59855 0.05737 0.65961 0.0
C381 C 0.60526 0.08936 0.67043 0.0
C382 C 0.60479 0.09086 0.69143 0.0
C383 C 0.59783 0.06016 0.70174 0.0
C384 C 0.5928 0.02951 0.69109 0.0
C385 C 0.58834 1.0007 0.70459 0.0
C386 C 0.59018 0.0185 0.72509 0.0
C387 C 0.59516 0.053 0.7233 0.0
C388 C 0.63002 1.00171 0.70139 0.0
C389 C 0.54129 0.95969 0.70001 0.0
C390 C 0.59416 0.14304 0.77413 0.0
C391 C 0.58819 0.14242 0.79492 0.0
C392 C 0.58378 0.11298 0.8055 0.0
C393 C 0.58536 0.08464 0.79548 0.0
C394 C 0.59078 0.08541 0.7746 0.0
C395 C 0.59494 0.11428 0.76432 0.0
C396 C 0.59844 0.1098 0.74212 0.0
C397 C 0.59533 0.07327 0.74067 0.0
C398 C 0.59125 0.05919 0.75973 0.0
C399 C 0.64561 0.14697 0.73567 0.0
C400 C 0.55694 0.10254 0.73164 0.0
H401 H 0.58052 0.93874 0.72371 0.0
H402 H 0.58353 0.94557 0.79814 0.0
H403 H 0.51176 0.95763 0.78439 0.0
H404 H 0.52889 1.00479 0.79112 0.0
H405 H 0.54384 0.98231 0.80741 0.0
H406 H 0.65913 0.03921 0.78608 0.0
H407 H 0.62549 0.01951 0.80809 0.0
H408 H 0.63783 0.06223 0.79733 0.0
H409 H 0.58805 1.00268 0.66214 0.0
H410 H 0.60985 0.1128 0.66261 0.0
H411 H 0.60946 0.11571 0.69879 0.0
H412 H 0.66069 0.0315 0.69732 0.0
H413 H 0.62296 0.98018 0.68914 0.0
H414 H 0.64087 0.99607 0.7151 0.0
H415 H 0.51481 0.96284 0.69658 0.0
H416 H 0.52809 0.94061 0.71285 0.0
H417 H 0.54278 0.94391 0.68685 0.0
H418 H 0.57778 0.89045 0.74125 0.0
C419 C 0.58126 0.9413 0.73976 0.0
C420 C 0.56585 0.36805 0.13028 0.0
C421 C 0.5744 0.34602 0.11816 0.0
C422 C 0.56776 0.34366 0.0972 0.0
C423 C 0.55212 0.38997 0.10084 0.0
C424 C 0.55511 0.38974 0.1214 0.0
C425 C 0.55004 0.41768 0.13239 0.0
H426 H 0.5193 0.5541 0.12947 0.0
C427 C 0.5465 0.41979 0.09655 0.0
C428 C 0.54509 0.43588 0.11505 0.0
H429 H 0.5264 0.5031 0.18171 0.0
H430 H 0.54118 0.46565 0.16062 0.0
H431 H 0.60476 0.56815 0.1073 0.0
H432 H 0.45938 0.47708 0.10318 0.0
H433 H 0.47881 0.48459 0.07853 0.0
H434 H 0.48789 0.52484 0.09342 0.0
H435 H 0.56832 0.57352 0.0936 0.0
H436 H 0.59213 0.55187 0.08195 0.0
C437 C 0.5944 0.44863 0.1451 0.0
C438 C 0.50595 0.39291 0.14465 0.0
C439 C 0.55354 0.45864 0.02505 0.0
C440 C 0.55404 0.4884 0.0173 0.0
C441 C 0.54689 0.51055 0.03022 0.0
C442 C 0.541 0.50431 0.05068 0.0
C443 C 0.54261 0.47578 0.05842 0.0
C444 C 0.54805 0.45301 0.04569 0.0
C445 C 0.54999 0.42482 0.05691 0.0
C446 C 0.54549 0.43499 0.07841 0.0
C447 C 0.54141 0.46498 0.0791 0.0
C448 C 0.59707 0.43506 0.05339 0.0
C449 C 0.50871 0.38208 0.04986 0.0
C450 C 0.52556 0.53593 0.13653 0.0
C451 C 0.52185 0.53173 0.15735 0.0
C452 C 0.52893 0.50676 0.16571 0.0
C453 C 0.53709 0.48479 0.15341 0.0
C454 C 0.53806 0.48772 0.1325 0.0
C455 C 0.53329 0.5136 0.12447 0.0
C456 C 0.53426 0.51238 0.10198 0.0
C457 C 0.53923 0.48067 0.09777 0.0
C458 C 0.54139 0.46637 0.11565 0.0
C459 C 0.57675 0.55353 0.09571 0.0
C460 C 0.48794 0.49934 0.09369 0.0
H461 H 0.55357 0.36361 0.07244 0.0
H462 H 0.57119 0.37136 0.14638 0.0
H463 H 0.47922 0.36394 0.13664 0.0
H464 H 0.48988 0.40706 0.1469 0.0
H465 H 0.51279 0.3868 0.15946 0.0
H466 H 0.62487 0.45572 0.13732 0.0
H467 H 0.59319 0.43745 0.15987 0.0
H468 H 0.60151 0.47735 0.14754 0.0
H469 H 0.5592 0.44133 0.01544 0.0
H470 H 0.54642 0.53317 0.02448 0.0
H471 H 0.53624 0.52251 0.05971 0.0
H472 H 0.62461 0.46765 0.054 0.0
H473 H 0.59769 0.42301 0.03845 0.0
H474 H 0.60698 0.42425 0.06492 0.0
H475 H 0.47806 0.37985 0.04685 0.0
H476 H 0.49814 0.3606 0.06133 0.0
H477 H 0.51614 0.37247 0.03583 0.0
H478 H 0.57324 0.32638 0.08746 0.0
C479 C 0.55657 0.36547 0.08848 0.0
H480 H 0.29341 0.51369 0.18763 0.0
H481 H 0.45612 0.49437 0.1854 0.0
H482 H 0.37198 0.5948 0.1414 0.0
H483 H 0.54161 0.60413 0.15588 0.0
H484 H 0.4053 0.50854 0.19444 0.0
H485 H 0.36231 0.52628 0.20044 0.0
C486 C 0.32542 0.53441 0.1803 0.0
C487 C 0.32692 0.55221 0.16304 0.0
C488 C 0.43593 0.53059 0.1867 0.0
C489 C 0.4054 0.56545 0.17696 0.0
C490 C 0.46536 0.52242 0.18156 0.0
C491 C 0.50231 0.54742 0.16922 0.0
C492 C 0.44333 0.56382 0.17923 0.0
C493 C 0.51245 0.58331 0.16477 0.0
C494 C 0.36474 0.54141 0.18751 0.0
C495 C 0.36929 0.57989 0.15452 0.0
N496 N 0.48228 0.58986 0.16921 0.0
N497 N 0.4067 0.58496 0.16128 0.0
H498 H 0.75834 0.15728 0.48698 0.0
H499 H 0.85775 0.3744 0.45761 0.0
H500 H 0.67493 0.18864 0.46953 0.0
H501 H 0.94296 0.34182 0.4676 0.0
H502 H 0.79122 0.3092 0.46754 0.0
H503 H 0.82654 0.22652 0.48483 0.0
C504 C 0.75424 0.17869 0.48285 0.0
C505 C 0.71065 0.16685 0.47829 0.0
C506 C 0.82453 0.31644 0.46798 0.0
C507 C 0.78883 0.24643 0.47587 0.0
C508 C 0.86257 0.35386 0.46257 0.0
C509 C 0.90594 0.36369 0.46218 0.0
C510 C 0.82966 0.28826 0.4728 0.0
C511 C 0.9102 0.33561 0.46812 0.0
C512 C 0.79328 0.21827 0.48161 0.0
C513 C 0.70769 0.19611 0.47303 0.0
N514 N 0.8725 0.29904 0.47302 0.0
N515 N 0.74611 0.23433 0.47191 0.0
H516 H 0.67218 0.79903 0.82612 0.0
H517 H 0.52173 0.8343 0.76386 0.0
H518 H 0.54437 0.70532 0.79566 0.0
H519 H 0.63823 0.92636 0.80098 0.0
H520 H 0.52719 0.78608 0.77717 0.0
H521 H 0.65845 0.84552 0.819 0.0
C522 C 0.64095 0.78808 0.81816 0.0
C523 C 0.60961 0.74818 0.8113 0.0
C524 C 0.55134 0.81672 0.78262 0.0
C525 C 0.59399 0.80145 0.80288 0.0
C526 C 0.54822 0.84424 0.77499 0.0
C527 C 0.57981 0.88436 0.78122 0.0
C528 C 0.58671 0.82941 0.79641 0.0
C529 C 0.61317 0.89565 0.79583 0.0
C530 C 0.63323 0.81472 0.81403 0.0
C531 C 0.56999 0.7359 0.80087 0.0
N532 N 0.61615 0.86837 0.80275 0.0
N533 N 0.56352 0.76244 0.79687 0.0
H534 H 0.81365 0.38206 0.15256 0.0
H535 H 0.56359 0.31706 0.15553 0.0
H536 H 0.76727 0.42179 0.1985 0.0
H537 H 0.64169 0.3458 0.10191 0.0
H538 H 0.62368 0.3233 0.17422 0.0
H539 H 0.73608 0.33777 0.13777 0.0
C540 C 0.78669 0.38034 0.15993 0.0
C541 C 0.7966 0.40565 0.17664 0.0
C542 C 0.62662 0.32683 0.15821 0.0
C543 C 0.70843 0.35525 0.15995 0.0
C544 C 0.59256 0.3235 0.14751 0.0
C545 C 0.5986 0.33292 0.12728 0.0
C546 C 0.6661 0.3384 0.14844 0.0
C547 C 0.63573 0.33909 0.11753 0.0
C548 C 0.74266 0.35522 0.15147 0.0
C549 C 0.76084 0.4029 0.18548 0.0
N550 N 0.66866 0.34262 0.12832 0.0
N551 N 0.71824 0.37839 0.17688 0.0
H552 H 0.49197 0.89972 0.48875 0.0
H553 H 0.23083 0.74675 0.44922 0.0
H554 H 0.42069 0.93228 0.45771 0.0
H555 H 0.29687 0.70999 0.48073 0.0
H556 H 0.29916 0.8155 0.45467 0.0
H557 H 0.42107 0.83103 0.4878 0.0
C558 C 0.46151 0.89254 0.48174 0.0
C559 C 0.46258 0.92204 0.47321 0.0
C560 C 0.29882 0.79262 0.46063 0.0
C561 C 0.38109 0.8433 0.47219 0.0
C562 C 0.25962 0.75331 0.4576 0.0
C563 C 0.25813 0.72259 0.46454 0.0
C564 C 0.33743 0.80167 0.47054 0.0
C565 C 0.29648 0.7328 0.47528 0.0
C566 C 0.42098 0.85327 0.48126 0.0
C567 C 0.42185 0.91077 0.46442 0.0
N568 N 0.33478 0.77146 0.47777 0.0
N569 N 0.38306 0.87249 0.46412 0.0
H570 H 0.62322 0.35462 0.82953 0.0
H571 H 0.52505 0.12913 0.82191 0.0
H572 H 0.48676 0.25744 0.8465 0.0
H573 H 0.64376 0.22226 0.79098 0.0
H574 H 0.51635 0.17725 0.83602 0.0
H575 H 0.63658 0.30775 0.82002 0.0
C576 C 0.59598 0.32345 0.83125 0.0
C577 C 0.55354 0.31006 0.83864 0.0
C578 C 0.54447 0.18716 0.82625 0.0
C579 C 0.56907 0.25616 0.82806 0.0
C580 C 0.54964 0.1598 0.81833 0.0
C581 C 0.58504 0.17172 0.80518 0.0
C582 C 0.57521 0.22677 0.82115 0.0
C583 C 0.61568 0.21175 0.80087 0.0
C584 C 0.60378 0.29671 0.8259 0.0
C585 C 0.52011 0.2693 0.84103 0.0
N586 N 0.61002 0.23779 0.8088 0.0
N587 N 0.52852 0.24382 0.83567 0.0
H588 H 0.65143 0.85653 0.48505 0.0
H589 H 0.51436 0.66751 0.55136 0.0
H590 H 0.5442 0.8267 0.52494 0.0
H591 H 0.62518 0.69847 0.5137 0.0
H592 H 0.51829 0.7209 0.53824 0.0
H593 H 0.63603 0.79441 0.4918 0.0
C594 C 0.62424 0.83668 0.49503 0.0
C595 C 0.59936 0.84703 0.50461 0.0
C596 C 0.54152 0.71588 0.53267 0.0
C597 C 0.58184 0.77607 0.51253 0.0
C598 C 0.5393 0.68541 0.54018 0.0
C599 C 0.56991 0.67892 0.53381 0.0
C600 C 0.57482 0.74033 0.51875 0.0
C601 C 0.60096 0.70249 0.51902 0.0
C602 C 0.61563 0.80132 0.49895 0.0
C603 C 0.56481 0.82031 0.51752 0.0
N604 N 0.60302 0.73251 0.51216 0.0
N605 N 0.55729 0.78624 0.52119 0.0
H606 H 0.75171 0.58788 0.82352 0.0
H607 H 0.85032 0.47638 0.85887 0.0
H608 H 0.66933 0.47595 0.85083 0.0
H609 H 0.92966 0.57777 0.82308 0.0
H610 H 0.78605 0.4775 0.8565 0.0
H611 H 0.81664 0.58665 0.8238 0.0
C612 C 0.7468 0.5629 0.82963 0.0
C613 C 0.70354 0.53199 0.83718 0.0
C614 C 0.81723 0.49955 0.84902 0.0
C615 C 0.78031 0.53054 0.83765 0.0
C616 C 0.85463 0.49898 0.85034 0.0
C617 C 0.89699 0.52693 0.84116 0.0
C618 C 0.82064 0.52871 0.83857 0.0
C619 C 0.89848 0.55508 0.83034 0.0
C620 C 0.78446 0.56224 0.82974 0.0
C621 C 0.70106 0.50075 0.84479 0.0
N622 N 0.8617 0.55537 0.82953 0.0
N623 N 0.73814 0.50102 0.84488 0.0
H624 H 0.15414 0.66176 0.16271 0.0
H625 H 0.42197 0.82244 0.1412 0.0
H626 H 0.23239 0.62998 0.13536 0.0
H627 H 0.34414 0.84732 0.17551 0.0
H628 H 0.35192 0.75352 0.13512 0.0
H629 H 0.22217 0.73101 0.164 0.0
C630 C 0.18553 0.66921 0.15688 0.0
C631 C 0.18722 0.63956 0.14902 0.0
C632 C 0.35014 0.77421 0.14381 0.0
C633 C 0.26608 0.71971 0.15046 0.0
C634 C 0.39003 0.81361 0.14712 0.0
C635 C 0.38897 0.84068 0.15893 0.0
C636 C 0.30882 0.76189 0.15224 0.0
C637 C 0.34667 0.82745 0.16644 0.0
C638 C 0.22457 0.70898 0.15765 0.0
C639 C 0.22926 0.65157 0.14167 0.0
N640 N 0.30859 0.78919 0.16304 0.0
N641 N 0.26694 0.69058 0.14262 0.0
H642 H 0.49741 0.21735 0.46332 0.0
H643 H 0.65791 0.4262 0.52383 0.0
H644 H 0.63501 0.2711 0.48336 0.0
H645 H 0.53623 0.38619 0.49093 0.0
H646 H 0.65022 0.36959 0.50907 0.0
H647 H 0.51098 0.2789 0.47295 0.0
C648 C 0.5307 0.24218 0.46949 0.0
C649 C 0.565 0.23876 0.47263 0.0
C650 C 0.62544 0.37337 0.5049 0.0
C651 C 0.58039 0.30924 0.48408 0.0
C652 C 0.62975 0.4056 0.51336 0.0
C653 C 0.59754 0.41075 0.50864 0.0
C654 C 0.58827 0.34573 0.49182 0.0
C655 C 0.56195 0.38341 0.49487 0.0
C656 C 0.53832 0.27731 0.47509 0.0
C657 C 0.60716 0.27193 0.48103 0.0
N658 N 0.55796 0.35181 0.48711 0.0
N659 N 0.61351 0.30559 0.4866 0.0
H660 H 0.4093 0.46776 0.8518 0.0
H661 H 0.30569 0.58454 0.83691 0.0
H662 H 0.49152 0.58495 0.83026 0.0
H663 H 0.2269 0.46584 0.85593 0.0
H664 H 0.37226 0.5856 0.83301 0.0
H665 H 0.34335 0.46717 0.85261 0.0
C666 C 0.414 0.49359 0.8472 0.0
C667 C 0.45756 0.52646 0.84095 0.0
C668 C 0.34023 0.55897 0.83772 0.0
C669 C 0.37928 0.52594 0.84188 0.0
C670 C 0.30147 0.55811 0.83965 0.0
C671 C 0.25871 0.52453 0.84621 0.0
C672 C 0.33766 0.52617 0.84256 0.0
C673 C 0.25784 0.49224 0.85034 0.0
C674 C 0.37566 0.49317 0.84766 0.0
C675 C 0.45954 0.55865 0.83524 0.0
N676 N 0.29574 0.49396 0.84854 0.0
N677 N 0.42178 0.55755 0.83588 0.0
H678 H 0.90512 0.40682 0.15248 0.0
H679 H 0.79554 0.17885 0.15354 0.0
H680 H 0.9808 0.36585 0.13588 0.0
H681 H 0.72176 0.22305 0.16581 0.0
H682 H 0.86132 0.24488 0.14347 0.0
H683 H 0.83626 0.33853 0.15448 0.0
C684 C 0.90729 0.38341 0.14923 0.0
C685 C 0.94917 0.39231 0.14432 0.0
C686 C 0.83038 0.23993 0.14791 0.0
C687 C 0.86956 0.31319 0.14642 0.0
C688 C 0.79267 0.20212 0.15342 0.0
C689 C 0.75289 0.19535 0.16015 0.0
C690 C 0.82844 0.27128 0.1494 0.0
C691 C 0.75148 0.22686 0.16037 0.0
C692 C 0.86772 0.34424 0.15024 0.0
C693 C 0.94937 0.36047 0.13978 0.0
N694 N 0.78868 0.26335 0.15528 0.0
N695 N 0.91034 0.32237 0.14115 0.0
H696 H 0.97458 0.50478 0.08885 0.0
H697 H 0.11843 0.53634 0.99422 0.0
H698 H 0.09382 0.51211 0.09485 0.0
H699 H 0.97124 0.46356 0.99081 0.0
H700 H 0.11485 0.53495 0.03087 0.0
H701 H 0.97737 0.49831 0.05234 0.0
C702 C 1.00133 0.505 0.08244 0.0
C703 C 1.03404 0.50895 0.09478 0.0
C704 C 0.08344 0.51912 0.02198 0.0
C705 C 1.03788 0.50221 0.05319 0.0
C706 C 0.08537 0.51969 0.00106 0.0
C707 C 1.04514 0.50067 0.9893 0.0
C708 C 1.04114 0.49999 0.03116 0.0
C709 C 1.00334 0.47982 -0.00083 0.0
C710 C 1.0028 0.50114 0.06167 0.0
C711 C 0.06798 0.50901 0.08579 0.0
N712 N 1.0025 0.48056 0.01948 0.0
N713 N 0.06942 0.50616 0.06547 0.0
H714 H 0.5312 0.01352 0.42061 0.0
H715 H 0.65081 0.06258 0.31421 0.0
H716 H 0.67377 0.06924 0.41336 0.0
H717 H 0.50709 1.00318 0.32103 0.0
H718 H 0.66088 0.06958 0.35064 0.0
H719 H 0.52251 0.01328 0.38431 0.0
C720 C 0.56068 0.02582 0.41136 0.0
C721 C 0.60318 0.04117 0.41992 0.0
C722 C 0.62716 0.05515 0.34418 0.0
C723 C 0.5936 0.04103 0.37846 0.0
C724 C 0.62143 0.05138 0.32336 0.0
C725 C 0.57798 0.03209 0.31451 0.0
C726 C 0.58918 0.03954 0.35631 0.0
C727 C 0.54107 0.01769 0.32717 0.0
C728 C 0.55574 0.02568 0.39066 0.0
C729 C 0.64034 0.05692 0.40731 0.0
N730 N 0.54748 0.02159 0.34741 0.0
N731 N 0.63465 0.05631 0.38721 0.0
H732 H 0.49407 0.47743 0.77399 0.0
H733 H 0.66014 0.54115 0.68287 0.0
H734 H 0.6395 0.54554 0.78314 0.0
H735 H 0.53225 0.52042 0.67749 0.0
H736 H 0.65154 0.53707 0.71932 0.0
H737 H 0.50544 0.48715 0.73803 0.0
C738 C 0.52839 0.4945 0.76839 0.0
C739 C 0.5659 0.51061 0.78144 0.0
C740 C 0.62557 0.53369 0.71014 0.0
C741 C 0.57911 0.52144 0.74044 0.0
C742 C 0.63032 0.53579 0.6894 0.0
C743 C 0.59683 0.5311 0.67723 0.0
C744 C 0.58662 0.52609 0.71867 0.0
C745 C 0.55897 0.52447 0.68639 0.0
C746 C 0.53488 0.50014 0.74792 0.0
C747 C 0.60971 0.53264 0.77351 0.0
N748 N 0.55467 0.52179 0.70655 0.0
N749 N 0.61512 0.5371 0.75344 0.0
H750 H 0.49896 1.00423 0.53739 0.0
H751 H 0.6596 0.1141 0.63423 0.0
H752 H 0.64524 0.09056 0.53315 0.0
H753 H 0.53257 0.99524 0.63475 0.0
H754 H 0.65327 0.11027 0.5975 0.0
H755 H 0.50843 1.00433 0.57362 0.0
C756 C 0.53307 0.02314 0.54412 0.0
C757 C 0.57138 0.04755 0.53239 0.0
C758 C 0.62701 0.08496 0.60567 0.0
C759 C 0.5824 0.0482 0.57369 0.0
C760 C 0.63048 0.0872 0.62656 0.0
C761 C 0.59651 0.05494 0.63744 0.0
C762 C 0.5888 0.05054 0.59568 0.0
C763 C 0.55957 0.02065 0.62686 0.0
C764 C 0.53845 0.02306 0.56474 0.0
C765 C 0.61486 0.07135 0.54176 0.0
N766 N 0.5564 0.0195 0.60656 0.0
N767 N 0.61921 0.07145 0.56195 0.0
H768 H 0.67009 0.5933 0.90306 0.0
H769 H 0.61598 0.56122 0.00309 0.0
H770 H 0.52758 0.49439 0.89192 0.0
H771 H 0.51585 0.43837 0.9835 0.0
H772 H 0.63108 0.5785 0.9682 0.0
H773 H 0.66189 0.5773 0.93816 0.0
C774 C 0.637 0.56833 0.90806 0.0
C775 C 0.59931 0.5454 0.8947 0.0
C776 C 0.60642 0.54767 0.97146 0.0
C777 C 0.58947 0.52723 0.93483 0.0
C778 C 0.59738 0.53786 0.99137 0.0
C779 C 0.5646 0.49834 -0.00389 0.0
C780 C 0.58237 0.51775 0.95612 0.0
C781 C 0.54162 0.46916 0.9804 0.0
C782 C 0.63225 0.55938 0.92811 0.0
C783 C 0.55735 0.513 0.90185 0.0
N784 N 0.55058 0.47951 0.96102 0.0
N785 N 0.55353 0.50478 0.92148 0.0
H786 H 0.06898 0.45128 0.2089 0.0
H787 H 0.09212 0.58552 0.30266 0.0
H788 H 0.10272 0.56536 0.20396 0.0
H789 H 0.06629 0.47466 0.30831 0.0
H790 H 0.09085 0.57636 0.26628 0.0
H791 H 0.06308 0.45717 0.24519 0.0
C792 C 0.07501 0.47751 0.21549 0.0
C793 C 0.08611 0.5078 0.2035 0.0
C794 C 0.08528 0.55393 0.27545 0.0
C795 C 0.07953 0.51483 0.24488 0.0
C796 C 0.08616 0.55922 0.29624 0.0
C797 C 0.0797 0.53097 0.30856 0.0
C798 C 0.07794 0.52016 0.26687 0.0
C799 C 0.07117 0.49707 0.29939 0.0
C800 C 0.07157 0.48085 0.23617 0.0
C801 C 0.09366 0.54119 0.21271 0.0
N802 N 0.07082 0.49273 0.2791 0.0
N803 N 0.09027 0.54384 0.23287 0.0
loop_
_geom_bond_atom_site_label_1
_geom_bond_atom_site_label_2
_geom_bond_distance
_geom_bond_site_symmetry_2
_ccdc_geom_bond_type
Gd0 C3 2.818 . S
Gd0 O20 2.377 . S
Gd0 O22 2.448 . S
Gd0 O23 2.506 . S
Gd0 O24 2.435 . S
Gd0 O25 2.717 . S
Gd0 O27 2.395 1_455 S
Gd0 O31 2.327 . S
Gd1 C12 2.818 1_455 S
Gd1 O21 2.395 . S
Gd1 O25 2.327 . S
Gd1 O26 2.377 1_455 S
Gd1 O28 2.448 1_455 S
Gd1 O29 2.506 1_455 S
Gd1 O30 2.435 . S
Gd1 O31 2.717 . S
C2 O20 1.240 . S
C2 O21 1.240 . S
C3 Gd0 2.818 . S
C3 C4 1.510 . S
C3 O22 1.249 . S
C3 O23 1.252 . S
C4 C3 1.510 . S
C4 C5 1.404 . S
C4 C6 1.352 . S
C5 C4 1.404 . S
C5 C9 1.389 . S
C5 H32 0.930 . S
C6 C4 1.352 . S
C6 C8 1.374 . S
C6 H33 0.931 . S
C7 C8 1.359 . S
C7 C9 1.364 . S
C8 C6 1.374 . S
C8 C7 1.359 . S
C8 H34 0.931 . S
C9 C5 1.389 . S
C9 C7 1.364 . S
C9 H35 0.931 . S
C10 O24 1.256 . S
C10 O25 1.257 . S
C11 O26 1.240 . S
C11 O27 1.240 . S
C12 Gd1 2.818 1_655 S
C12 C13 1.510 . S
C12 O28 1.249 . S
C12 O29 1.252 . S
C13 C12 1.510 . S
C13 C14 1.404 . S
C13 C15 1.352 . S
C14 C13 1.404 . S
C14 C18 1.389 . S
C14 H36 0.930 . S
C15 C13 1.352 . S
C15 C17 1.374 . S
C15 H37 0.931 . S
C16 C17 1.359 . S
C16 C18 1.364 . S
C17 C15 1.374 . S
C17 C16 1.359 . S
C17 H38 0.931 . S
C18 C14 1.389 . S
C18 C16 1.364 . S
C18 H39 0.931 . S
C19 O30 1.256 . S
C19 O31 1.257 . S
O20 Gd0 2.377 . S
O20 C2 1.240 . S
O21 Gd1 2.395 . S
O21 C2 1.240 . S
O22 Gd0 2.448 . S
O22 C3 1.249 . S
O23 Gd0 2.506 . S
O23 C3 1.252 . S
O24 Gd0 2.435 . S
O24 C10 1.256 . S
O25 Gd0 2.717 . S
O25 Gd1 2.327 . S
O25 C10 1.257 . S
O26 Gd1 2.377 1_655 S
O26 C11 1.240 . S
O27 Gd0 2.395 1_655 S
O27 C11 1.240 . S
O28 Gd1 2.448 1_655 S
O28 C12 1.249 . S
O29 Gd1 2.506 1_655 S
O29 C12 1.252 . S
O30 Gd1 2.435 . S
O30 C19 1.256 . S
O31 Gd0 2.327 . S
O31 Gd1 2.717 . S
O31 C19 1.257 . S
H32 C5 0.930 . S
H33 C6 0.931 . S
H34 C8 0.931 . S
H35 C9 0.931 . S
H36 C14 0.930 . S
H37 C15 0.931 . S
H38 C17 0.931 . S
H39 C18 0.931 . S
Gd40 C43 2.818 . S
Gd40 O60 2.377 . S
Gd40 O62 2.448 . S
Gd40 O63 2.506 . S
Gd40 O64 2.435 . S
Gd40 O65 2.717 1_565 S
Gd40 O67 2.395 1_565 S
Gd40 O71 2.327 1_565 S
Gd41 C52 2.818 . S
Gd41 O61 2.395 1_545 S
Gd41 O65 2.327 . S
Gd41 O66 2.377 . S
Gd41 O68 2.448 . S
Gd41 O69 2.506 . S
Gd41 O70 2.435 . S
Gd41 O71 2.717 . S
C42 O60 1.240 . S
C42 O61 1.240 . S
C43 Gd40 2.818 . S
C43 C44 1.510 . S
C43 O62 1.249 . S
C43 O63 1.252 . S
C44 C43 1.510 . S
C44 C45 1.404 . S
C44 C46 1.352 . S
C45 C44 1.404 . S
C45 C49 1.389 . S
C45 H72 0.930 . S
C46 C44 1.352 . S
C46 C48 1.374 . S
C46 H73 0.931 . S
C47 C48 1.359 . S
C47 C49 1.364 . S
C48 C46 1.374 . S
C48 C47 1.359 . S
C48 H74 0.931 . S
C49 C45 1.389 . S
C49 C47 1.364 . S
C49 H75 0.931 . S
C50 O64 1.256 1_545 S
C50 O65 1.257 . S
C51 O66 1.240 . S
C51 O67 1.240 . S
C52 Gd41 2.818 . S
C52 C53 1.510 . S
C52 O68 1.249 . S
C52 O69 1.252 . S
C53 C52 1.510 . S
C53 C54 1.404 . S
C53 C55 1.352 . S
C54 C53 1.404 . S
C54 C58 1.389 . S
C54 H76 0.930 . S
C55 C53 1.352 . S
C55 C57 1.374 . S
C55 H77 0.931 . S
C56 C57 1.359 . S
C56 C58 1.364 . S
C57 C55 1.374 . S
C57 C56 1.359 . S
C57 H78 0.931 . S
C58 C54 1.389 . S
C58 C56 1.364 . S
C58 H79 0.931 . S
C59 O70 1.256 . S
C59 O71 1.257 . S
O60 Gd40 2.377 . S
O60 C42 1.240 . S
O61 Gd41 2.395 1_565 S
O61 C42 1.240 . S
O62 Gd40 2.448 . S
O62 C43 1.249 . S
O63 Gd40 2.506 . S
O63 C43 1.252 . S
O64 Gd40 2.435 . S
O64 C50 1.256 1_565 S
O65 Gd40 2.717 1_545 S
O65 Gd41 2.327 . S
O65 C50 1.257 . S
O66 Gd41 2.377 . S
O66 C51 1.240 . S
O67 Gd40 2.395 1_545 S
O67 C51 1.240 . S
O68 Gd41 2.448 . S
O68 C52 1.249 . S
O69 Gd41 2.506 . S
O69 C52 1.252 . S
O70 Gd41 2.435 . S
O70 C59 1.256 . S
O71 Gd40 2.327 1_545 S
O71 Gd41 2.717 . S
O71 C59 1.257 . S
H72 C45 0.930 . S
H73 C46 0.931 . S
H74 C48 0.931 . S
H75 C49 0.931 . S
H76 C54 0.930 . S
H77 C55 0.931 . S
H78 C57 0.931 . S
H79 C58 0.931 . S
Gd80 C83 2.818 . S
Gd80 O100 2.377 . S
Gd80 O102 2.448 . S
Gd80 O103 2.506 . S
Gd80 O104 2.435 . S
Gd80 O105 2.717 . S
Gd80 O107 2.395 . S
Gd80 O111 2.327 . S
Gd81 C92 2.818 . S
Gd81 O101 2.395 . S
Gd81 O105 2.327 . S
Gd81 O106 2.377 . S
Gd81 O108 2.448 . S
Gd81 O109 2.506 . S
Gd81 O110 2.435 . S
Gd81 O111 2.717 . S
C82 O100 1.240 . S
C82 O101 1.240 . S
C83 Gd80 2.818 . S
C83 C84 1.510 . S
C83 O102 1.249 . S
C83 O103 1.252 . S
C84 C83 1.510 . S
C84 C85 1.404 . S
C84 C86 1.352 . S
C85 C84 1.404 . S
C85 C89 1.389 . S
C85 H112 0.930 . S
C86 C84 1.352 . S
C86 C88 1.374 . S
C86 H113 0.931 . S
C87 C88 1.359 . S
C87 C89 1.364 . S
C88 C86 1.374 . S
C88 C87 1.359 . S
C88 H114 0.931 . S
C89 C85 1.389 . S
C89 C87 1.364 . S
C89 H115 0.931 . S
C90 O104 1.256 . S
C90 O105 1.257 . S
C91 O106 1.240 . S
C91 O107 1.240 . S
C92 Gd81 2.818 . S
C92 C93 1.510 . S
C92 O108 1.249 . S
C92 O109 1.252 . S
C93 C92 1.510 . S
C93 C94 1.404 . S
C93 C95 1.352 . S
C94 C93 1.404 . S
C94 C98 1.389 . S
C94 H116 0.930 . S
C95 C93 1.352 . S
C95 C97 1.374 . S
C95 H117 0.931 . S
C96 C97 1.359 . S
C96 C98 1.364 . S
C97 C95 1.374 . S
C97 C96 1.359 . S
C97 H118 0.931 . S
C98 C94 1.389 . S
C98 C96 1.364 . S
C98 H119 0.931 . S
C99 O110 1.256 . S
C99 O111 1.257 . S
O100 Gd80 2.377 . S
O100 C82 1.240 . S
O101 Gd81 2.395 . S
O101 C82 1.240 . S
O102 Gd80 2.448 . S
O102 C83 1.249 . S
O103 Gd80 2.506 . S
O103 C83 1.252 . S
O104 Gd80 2.435 . S
O104 C90 1.256 . S
O105 Gd80 2.717 . S
O105 Gd81 2.327 . S
O105 C90 1.257 . S
O106 Gd81 2.377 . S
O106 C91 1.240 . S
O107 Gd80 2.395 . S
O107 C91 1.240 . S
O108 Gd81 2.448 . S
O108 C92 1.249 . S
O109 Gd81 2.506 . S
O109 C92 1.252 . S
O110 Gd81 2.435 . S
O110 C99 1.256 . S
O111 Gd80 2.327 . S
O111 Gd81 2.717 . S
O111 C99 1.257 . S
H112 C85 0.930 . S
H113 C86 0.931 . S
H114 C88 0.931 . S
H115 C89 0.931 . S
H116 C94 0.930 . S
H117 C95 0.931 . S
H118 C97 0.931 . S
H119 C98 0.931 . S
C120 C121 1.391 . S
C120 C124 1.391 . S
C120 H162 0.948 . S
C121 C120 1.391 . S
C121 C122 1.391 . S
C122 C121 1.391 . S
C122 H178 0.947 . S
C122 C179 1.392 . S
C123 C124 1.391 . S
C123 C127 1.397 . S
C123 C179 1.419 . S
C124 C120 1.391 . S
C124 C123 1.391 . S
C124 C125 1.399 . S
C125 C124 1.399 . S
C125 C128 1.396 . S
C125 C137 1.453 . S
C125 C138 1.684 . S
H126 C150 0.948 . S
C127 C123 1.397 . S
C127 C128 1.394 . S
C127 C146 1.723 . S
C128 C125 1.396 . S
C128 C127 1.394 . S
C128 C158 1.723 1_545 S
H129 C152 0.947 . S
H130 C153 0.948 . S
H131 C159 0.982 . S
H132 C160 0.979 . S
H133 C160 0.980 . S
H134 C160 0.983 . S
H135 C159 0.979 . S
H136 C159 0.977 . S
C137 C125 1.453 . S
C137 H166 0.982 . S
C137 H167 0.979 . S
C137 H168 0.977 . S
C138 C125 1.684 . S
C138 H163 0.979 . S
C138 H164 0.980 . S
C138 H165 0.983 . S
C139 C140 1.391 . S
C139 C144 1.391 . S
C139 H169 0.948 . S
C140 C139 1.391 . S
C140 C141 1.391 1_545 S
C141 C140 1.391 1_565 S
C141 C142 1.392 . S
C141 H170 0.947 . S
C142 C141 1.392 . S
C142 C143 1.419 1_565 S
C142 H171 0.948 . S
C143 C142 1.419 1_545 S
C143 C144 1.391 . S
C143 C147 1.397 . S
C144 C139 1.391 . S
C144 C143 1.391 . S
C144 C145 1.399 . S
C145 C144 1.399 . S
C145 C146 1.396 . S
C145 C148 1.453 . S
C145 C149 1.684 . S
C146 C127 1.723 . S
C146 C145 1.396 . S
C146 C147 1.394 . S
C147 C143 1.397 . S
C147 C146 1.394 . S
C147 C157 1.723 1_545 S
C148 C145 1.453 . S
C148 H172 0.982 . S
C148 H173 0.979 . S
C148 H174 0.977 . S
C149 C145 1.684 . S
C149 H175 0.979 . S
C149 H176 0.980 . S
C149 H177 0.983 . S
C150 H126 0.948 . S
C150 C151 1.391 . S
C150 C155 1.391 . S
C151 C150 1.391 . S
C151 C152 1.391 . S
C152 H129 0.947 . S
C152 C151 1.391 . S
C152 C153 1.392 . S
C153 H130 0.948 . S
C153 C152 1.392 . S
C153 C154 1.419 . S
C154 C153 1.419 . S
C154 C155 1.391 . S
C154 C158 1.397 . S
C155 C150 1.391 . S
C155 C154 1.391 . S
C155 C156 1.399 . S
C156 C155 1.399 . S
C156 C157 1.396 . S
C156 C159 1.453 . S
C156 C160 1.684 . S
C157 C147 1.723 1_565 S
C157 C156 1.396 . S
C157 C158 1.394 . S
C158 C128 1.723 1_565 S
C158 C154 1.397 . S
C158 C157 1.394 . S
C159 H131 0.982 . S
C159 H135 0.979 . S
C159 H136 0.977 . S
C159 C156 1.453 . S
C160 H132 0.979 . S
C160 H133 0.980 . S
C160 H134 0.983 . S
C160 C156 1.684 . S
H161 C179 0.948 . S
H162 C120 0.948 . S
H163 C138 0.979 . S
H164 C138 0.980 . S
H165 C138 0.983 . S
H166 C137 0.982 . S
H167 C137 0.979 . S
H168 C137 0.977 . S
H169 C139 0.948 . S
H170 C141 0.947 . S
H171 C142 0.948 . S
H172 C148 0.982 . S
H173 C148 0.979 . S
H174 C148 0.977 . S
H175 C149 0.979 . S
H176 C149 0.980 . S
H177 C149 0.983 . S
H178 C122 0.947 . S
C179 C122 1.392 . S
C179 C123 1.419 . S
C179 H161 0.948 . S
C180 C181 1.391 . S
C180 C184 1.391 . S
C180 H222 0.948 . S
C181 C180 1.391 . S
C181 C182 1.391 . S
C182 C181 1.391 . S
C182 H238 0.947 . S
C182 C239 1.392 . S
C183 C184 1.391 . S
C183 C187 1.397 . S
C183 C239 1.419 . S
C184 C180 1.391 . S
C184 C183 1.391 . S
C184 C185 1.399 . S
C185 C184 1.399 . S
C185 C188 1.396 . S
C185 C197 1.453 . S
C185 C198 1.684 . S
H186 C210 0.948 . S
C187 C183 1.397 . S
C187 C188 1.394 . S
C187 C206 1.723 . S
C188 C185 1.396 . S
C188 C187 1.394 . S
C188 C218 1.723 . S
H189 C212 0.947 . S
H190 C213 0.948 . S
H191 C219 0.982 . S
H192 C220 0.979 . S
H193 C220 0.980 . S
H194 C220 0.983 . S
H195 C219 0.979 . S
H196 C219 0.977 . S
C197 C185 1.453 . S
C197 H226 0.982 . S
C197 H227 0.979 . S
C197 H228 0.977 . S
C198 C185 1.684 . S
C198 H223 0.979 . S
C198 H224 0.980 . S
C198 H225 0.983 . S
C199 C200 1.391 . S
C199 C204 1.391 . S
C199 H229 0.948 . S
C200 C199 1.391 . S
C200 C201 1.391 . S
C201 C200 1.391 . S
C201 C202 1.392 . S
C201 H230 0.947 . S
C202 C201 1.392 . S
C202 C203 1.419 . S
C202 H231 0.948 . S
C203 C202 1.419 . S
C203 C204 1.391 . S
C203 C207 1.397 . S
C204 C199 1.391 . S
C204 C203 1.391 . S
C204 C205 1.399 . S
C205 C204 1.399 . S
C205 C206 1.396 . S
C205 C208 1.453 . S
C205 C209 1.684 . S
C206 C187 1.723 . S
C206 C205 1.396 . S
C206 C207 1.394 . S
C207 C203 1.397 . S
C207 C206 1.394 . S
C207 C217 1.723 . S
C208 C205 1.453 . S
C208 H232 0.982 . S
C208 H233 0.979 . S
C208 H234 0.977 . S
C209 C205 1.684 . S
C209 H235 0.979 . S
C209 H236 0.980 . S
C209 H237 0.983 . S
C210 H186 0.948 . S
C210 C211 1.391 . S
C210 C215 1.391 . S
C211 C210 1.391 . S
C211 C212 1.391 . S
C212 H189 0.947 . S
C212 C211 1.391 . S
C212 C213 1.392 . S
C213 H190 0.948 . S
C213 C212 1.392 . S
C213 C214 1.419 . S
C214 C213 1.419 . S
C214 C215 1.391 . S
C214 C218 1.397 . S
C215 C210 1.391 . S
C215 C214 1.391 . S
C215 C216 1.399 . S
C216 C215 1.399 . S
C216 C217 1.396 . S
C216 C219 1.453 . S
C216 C220 1.684 . S
C217 C207 1.723 . S
C217 C216 1.396 . S
C217 C218 1.394 . S
C218 C188 1.723 . S
C218 C214 1.397 . S
C218 C217 1.394 . S
C219 H191 0.982 . S
C219 H195 0.979 . S
C219 H196 0.977 . S
C219 C216 1.453 . S
C220 H192 0.979 . S
C220 H193 0.980 . S
C220 H194 0.983 . S
C220 C216 1.684 . S
H221 C239 0.948 . S
H222 C180 0.948 . S
H223 C198 0.979 . S
H224 C198 0.980 . S
H225 C198 0.983 . S
H226 C197 0.982 . S
H227 C197 0.979 . S
H228 C197 0.977 . S
H229 C199 0.948 . S
H230 C201 0.947 . S
H231 C202 0.948 . S
H232 C208 0.982 . S
H233 C208 0.979 . S
H234 C208 0.977 . S
H235 C209 0.979 . S
H236 C209 0.980 . S
H237 C209 0.983 . S
H238 C182 0.947 . S
C239 C182 1.392 . S
C239 C183 1.419 . S
C239 H221 0.948 . S
C240 C241 1.391 . S
C240 C244 1.391 . S
C240 H282 0.948 . S
C241 C240 1.391 . S
C241 C242 1.391 . S
C242 C241 1.391 . S
C242 H298 0.947 . S
C242 C299 1.392 . S
C243 C244 1.391 . S
C243 C247 1.397 . S
C243 C299 1.419 . S
C244 C240 1.391 . S
C244 C243 1.391 . S
C244 C245 1.399 . S
C245 C244 1.399 . S
C245 C248 1.396 . S
C245 C257 1.453 . S
C245 C258 1.684 . S
H246 C270 0.948 . S
C247 C243 1.397 . S
C247 C248 1.394 . S
C247 C266 1.723 . S
C248 C245 1.396 . S
C248 C247 1.394 . S
C248 C278 1.723 . S
H249 C272 0.947 . S
H250 C273 0.948 . S
H251 C279 0.982 . S
H252 C280 0.979 1_455 S
H253 C280 0.980 . S
H254 C280 0.983 . S
H255 C279 0.979 . S
H256 C279 0.977 . S
C257 C245 1.453 . S
C257 H286 0.982 . S
C257 H287 0.979 . S
C257 H288 0.977 . S
C258 C245 1.684 . S
C258 H283 0.979 . S
C258 H284 0.980 . S
C258 H285 0.983 . S
C259 C260 1.391 . S
C259 C264 1.391 . S
C259 H289 0.948 . S
C260 C259 1.391 . S
C260 C261 1.391 . S
C261 C260 1.391 . S
C261 C262 1.392 . S
C261 H290 0.947 . S
C262 C261 1.392 . S
C262 C263 1.419 . S
C262 H291 0.948 . S
C263 C262 1.419 . S
C263 C264 1.391 . S
C263 C267 1.397 . S
C264 C259 1.391 . S
C264 C263 1.391 . S
C264 C265 1.399 . S
C265 C264 1.399 . S
C265 C266 1.396 . S
C265 C268 1.453 . S
C265 C269 1.684 . S
C266 C247 1.723 . S
C266 C265 1.396 . S
C266 C267 1.394 . S
C267 C263 1.397 . S
C267 C266 1.394 . S
C267 C277 1.723 . S
C268 C265 1.453 . S
C268 H292 0.982 . S
C268 H293 0.979 . S
C268 H294 0.977 . S
C269 C265 1.684 . S
C269 H295 0.979 . S
C269 H296 0.980 . S
C269 H297 0.983 . S
C270 H246 0.948 . S
C270 C271 1.391 . S
C270 C275 1.391 . S
C271 C270 1.391 . S
C271 C272 1.391 . S
C272 H249 0.947 . S
C272 C271 1.391 . S
C272 C273 1.392 1_655 S
C273 H250 0.948 . S
C273 C272 1.392 1_455 S
C273 C274 1.419 . S
C274 C273 1.419 . S
C274 C275 1.391 1_455 S
C274 C278 1.397 . S
C275 C270 1.391 . S
C275 C274 1.391 1_655 S
C275 C276 1.399 . S
C276 C275 1.399 . S
C276 C277 1.396 1_655 S
C276 C279 1.453 . S
C276 C280 1.684 . S
C277 C267 1.723 . S
C277 C276 1.396 1_455 S
C277 C278 1.394 . S
C278 C248 1.723 . S
C278 C274 1.397 . S
C278 C277 1.394 . S
C279 H251 0.982 . S
C279 H255 0.979 . S
C279 H256 0.977 . S
C279 C276 1.453 . S
C280 H252 0.979 1_655 S
C280 H253 0.980 . S
C280 H254 0.983 . S
C280 C276 1.684 . S
H281 C299 0.948 . S
H282 C240 0.948 . S
H283 C258 0.979 . S
H284 C258 0.980 . S
H285 C258 0.983 . S
H286 C257 0.982 . S
H287 C257 0.979 . S
H288 C257 0.977 . S
H289 C259 0.948 . S
H290 C261 0.947 . S
H291 C262 0.948 . S
H292 C268 0.982 . S
H293 C268 0.979 . S
H294 C268 0.977 . S
H295 C269 0.979 . S
H296 C269 0.980 . S
H297 C269 0.983 . S
H298 C242 0.947 . S
C299 C242 1.392 . S
C299 C243 1.419 . S
C299 H281 0.948 . S
C300 C301 1.391 . S
C300 C304 1.391 . S
C300 H342 0.948 . S
C301 C300 1.391 . S
C301 C302 1.391 . S
C302 C301 1.391 . S
C302 H358 0.947 . S
C302 C359 1.392 . S
C303 C304 1.391 . S
C303 C307 1.397 . S
C303 C359 1.419 . S
C304 C300 1.391 . S
C304 C303 1.391 . S
C304 C305 1.399 . S
C305 C304 1.399 . S
C305 C308 1.396 . S
C305 C317 1.453 . S
C305 C318 1.684 . S
H306 C330 0.948 . S
C307 C303 1.397 . S
C307 C308 1.394 . S
C307 C326 1.723 . S
C308 C305 1.396 . S
C308 C307 1.394 . S
C308 C338 1.723 1_655 S
H309 C332 0.947 . S
H310 C333 0.948 . S
H311 C339 0.982 . S
H312 C340 0.979 . S
H313 C340 0.980 . S
H314 C340 0.983 . S
H315 C339 0.979 . S
H316 C339 0.977 . S
C317 C305 1.453 . S
C317 H346 0.982 1_655 S
C317 H347 0.979 . S
C317 H348 0.977 1_655 S
C318 C305 1.684 . S
C318 H343 0.979 . S
C318 H344 0.980 . S
C318 H345 0.983 . S
C319 C320 1.391 1_655 S
C319 C324 1.391 . S
C319 H349 0.948 . S
C320 C319 1.391 1_455 S
C320 C321 1.391 . S
C321 C320 1.391 . S
C321 C322 1.392 . S
C321 H350 0.947 . S
C322 C321 1.392 . S
C322 C323 1.419 . S
C322 H351 0.948 . S
C323 C322 1.419 . S
C323 C324 1.391 1_455 S
C323 C327 1.397 . S
C324 C319 1.391 . S
C324 C323 1.391 1_655 S
C324 C325 1.399 . S
C325 C324 1.399 . S
C325 C326 1.396 . S
C325 C328 1.453 . S
C325 C329 1.684 . S
C326 C307 1.723 . S
C326 C325 1.396 . S
C326 C327 1.394 1_655 S
C327 C323 1.397 . S
C327 C326 1.394 1_455 S
C327 C337 1.723 . S
C328 C325 1.453 . S
C328 H352 0.982 . S
C328 H353 0.979 . S
C328 H354 0.977 . S
C329 C325 1.684 . S
C329 H355 0.979 . S
C329 H356 0.980 . S
C329 H357 0.983 . S
C330 H306 0.948 . S
C330 C331 1.391 . S
C330 C335 1.391 . S
C331 C330 1.391 . S
C331 C332 1.391 . S
C332 H309 0.947 . S
C332 C331 1.391 . S
C332 C333 1.392 . S
C333 H310 0.948 . S
C333 C332 1.392 . S
C333 C334 1.419 . S
C334 C333 1.419 . S
C334 C335 1.391 . S
C334 C338 1.397 . S
C335 C330 1.391 . S
C335 C334 1.391 . S
C335 C336 1.399 . S
C336 C335 1.399 . S
C336 C337 1.396 . S
C336 C339 1.453 . S
C336 C340 1.684 . S
C337 C327 1.723 . S
C337 C336 1.396 . S
C337 C338 1.394 . S
C338 C308 1.723 1_455 S
C338 C334 1.397 . S
C338 C337 1.394 . S
C339 H311 0.982 . S
C339 H315 0.979 . S
C339 H316 0.977 . S
C339 C336 1.453 . S
C340 H312 0.979 . S
C340 H313 0.980 . S
C340 H314 0.983 . S
C340 C336 1.684 . S
H341 C359 0.948 . S
H342 C300 0.948 . S
H343 C318 0.979 . S
H344 C318 0.980 . S
H345 C318 0.983 . S
H346 C317 0.982 1_455 S
H347 C317 0.979 . S
H348 C317 0.977 1_455 S
H349 C319 0.948 . S
H350 C321 0.947 . S
H351 C322 0.948 . S
H352 C328 0.982 . S
H353 C328 0.979 . S
H354 C328 0.977 . S
H355 C329 0.979 . S
H356 C329 0.980 . S
H357 C329 0.983 . S
H358 C302 0.947 . S
C359 C302 1.392 . S
C359 C303 1.419 . S
C359 H341 0.948 . S
C360 C361 1.391 . S
C360 C364 1.391 . S
C360 H402 0.948 . S
C361 C360 1.391 . S
C361 C362 1.391 . S
C362 C361 1.391 . S
C362 H418 0.947 . S
C362 C419 1.392 . S
C363 C364 1.391 . S
C363 C367 1.397 . S
C363 C419 1.419 . S
C364 C360 1.391 . S
C364 C363 1.391 . S
C364 C365 1.399 . S
C365 C364 1.399 . S
C365 C368 1.396 . S
C365 C377 1.453 1_565 S
C365 C378 1.684 . S
H366 C390 0.948 . S
C367 C363 1.397 . S
C367 C368 1.394 . S
C367 C386 1.723 . S
C368 C365 1.396 . S
C368 C367 1.394 . S
C368 C398 1.723 1_565 S
H369 C392 0.947 . S
H370 C393 0.948 . S
H371 C399 0.982 . S
H372 C400 0.979 . S
H373 C400 0.980 . S
H374 C400 0.983 . S
H375 C399 0.979 . S
H376 C399 0.977 . S
C377 C365 1.453 1_545 S
C377 H406 0.982 . S
C377 H407 0.974 1_545 S
C377 H408 0.977 . S
C378 C365 1.684 . S
C378 H403 0.979 . S
C378 H404 0.980 . S
C378 H405 0.983 . S
C379 C380 1.391 . S
C379 C384 1.391 . S
C379 H409 0.948 . S
C380 C379 1.391 . S
C380 C381 1.391 1_565 S
C381 C380 1.391 1_545 S
C381 C382 1.392 . S
C381 H410 0.947 . S
C382 C381 1.392 . S
C382 C383 1.419 . S
C382 H411 0.948 . S
C383 C382 1.419 . S
C383 C384 1.391 1_545 S
C383 C387 1.397 . S
C384 C379 1.391 . S
C384 C383 1.391 1_565 S
C384 C385 1.399 . S
C385 C384 1.399 . S
C385 C386 1.396 . S
C385 C388 1.453 . S
C385 C389 1.684 . S
C386 C367 1.723 . S
C386 C385 1.396 . S
C386 C387 1.394 1_565 S
C387 C383 1.397 . S
C387 C386 1.394 1_545 S
C387 C397 1.723 . S
C388 C385 1.453 . S
C388 H412 0.982 . S
C388 H413 0.979 . S
C388 H414 0.977 . S
C389 C385 1.684 . S
C389 H415 0.979 . S
C389 H416 0.980 . S
C389 H417 0.983 . S
C390 H366 0.948 . S
C390 C391 1.391 . S
C390 C395 1.391 . S
C391 C390 1.391 . S
C391 C392 1.391 . S
C392 H369 0.947 . S
C392 C391 1.391 . S
C392 C393 1.392 . S
C393 H370 0.948 . S
C393 C392 1.392 . S
C393 C394 1.419 . S
C394 C393 1.419 . S
C394 C395 1.391 . S
C394 C398 1.397 . S
C395 C390 1.391 . S
C395 C394 1.391 . S
C395 C396 1.399 . S
C396 C395 1.399 . S
C396 C397 1.396 . S
C396 C399 1.453 . S
C396 C400 1.684 . S
C397 C387 1.723 . S
C397 C396 1.396 . S
C397 C398 1.394 . S
C398 C368 1.723 1_545 S
C398 C394 1.397 . S
C398 C397 1.394 . S
C399 H371 0.982 . S
C399 H375 0.979 . S
C399 H376 0.977 . S
C399 C396 1.453 . S
C400 H372 0.979 . S
C400 H373 0.980 . S
C400 H374 0.983 . S
C400 C396 1.684 . S
H401 C419 0.948 . S
H402 C360 0.948 . S
H403 C378 0.979 . S
H404 C378 0.980 . S
H405 C378 0.983 . S
H406 C377 0.982 . S
H407 C377 0.974 1_565 S
H408 C377 0.977 . S
H409 C379 0.948 . S
H410 C381 0.947 . S
H411 C382 0.948 . S
H412 C388 0.982 . S
H413 C388 0.979 . S
H414 C388 0.977 . S
H415 C389 0.979 . S
H416 C389 0.980 . S
H417 C389 0.983 . S
H418 C362 0.947 . S
C419 C362 1.392 . S
C419 C363 1.419 . S
C419 H401 0.948 . S
C420 C421 1.391 . S
C420 C424 1.391 . S
C420 H462 0.948 . S
C421 C420 1.391 . S
C421 C422 1.391 . S
C422 C421 1.391 . S
C422 H478 0.947 . S
C422 C479 1.392 . S
C423 C424 1.391 . S
C423 C427 1.397 . S
C423 C479 1.419 . S
C424 C420 1.391 . S
C424 C423 1.391 . S
C424 C425 1.399 . S
C425 C424 1.399 . S
C425 C428 1.396 . S
C425 C437 1.453 . S
C425 C438 1.684 . S
H426 C450 0.948 . S
C427 C423 1.397 . S
C427 C428 1.394 . S
C427 C446 1.723 . S
C428 C425 1.396 . S
C428 C427 1.394 . S
C428 C458 1.723 . S
H429 C452 0.947 . S
H430 C453 0.948 . S
H431 C459 0.982 . S
H432 C460 0.979 . S
H433 C460 0.980 . S
H434 C460 0.983 . S
H435 C459 0.979 . S
H436 C459 0.977 . S
C437 C425 1.453 . S
C437 H466 0.982 . S
C437 H467 0.979 . S
C437 H468 0.977 . S
C438 C425 1.684 . S
C438 H463 0.979 . S
C438 H464 0.980 . S
C438 H465 0.983 . S
C439 C440 1.391 . S
C439 C444 1.391 . S
C439 H469 0.948 . S
C440 C439 1.391 . S
C440 C441 1.391 . S
C441 C440 1.391 . S
C441 C442 1.392 . S
C441 H470 0.947 . S
C442 C441 1.392 . S
C442 C443 1.419 . S
C442 H471 0.948 . S
C443 C442 1.419 . S
C443 C444 1.391 . S
C443 C447 1.397 . S
C444 C439 1.391 . S
C444 C443 1.391 . S
C444 C445 1.399 . S
C445 C444 1.399 . S
C445 C446 1.396 . S
C445 C448 1.453 . S
C445 C449 1.684 . S
C446 C427 1.723 . S
C446 C445 1.396 . S
C446 C447 1.394 . S
C447 C443 1.397 . S
C447 C446 1.394 . S
C447 C457 1.723 . S
C448 C445 1.453 . S
C448 H472 0.982 . S
C448 H473 0.979 . S
C448 H474 0.977 . S
C449 C445 1.684 . S
C449 H475 0.979 . S
C449 H476 0.980 . S
C449 H477 0.983 . S
C450 H426 0.948 . S
C450 C451 1.391 . S
C450 C455 1.391 . S
C451 C450 1.391 . S
C451 C452 1.391 . S
C452 H429 0.947 . S
C452 C451 1.391 . S
C452 C453 1.392 . S
C453 H430 0.948 . S
C453 C452 1.392 . S
C453 C454 1.419 . S
C454 C453 1.419 . S
C454 C455 1.391 . S
C454 C458 1.397 . S
C455 C450 1.391 . S
C455 C454 1.391 . S
C455 C456 1.399 . S
C456 C455 1.399 . S
C456 C457 1.396 . S
C456 C459 1.453 . S
C456 C460 1.684 . S
C457 C447 1.723 . S
C457 C456 1.396 . S
C457 C458 1.394 . S
C458 C428 1.723 . S
C458 C454 1.397 . S
C458 C457 1.394 . S
C459 H431 0.982 . S
C459 H435 0.979 . S
C459 H436 0.977 . S
C459 C456 1.453 . S
C460 H432 0.979 . S
C460 H433 0.980 . S
C460 H434 0.983 . S
C460 C456 1.684 . S
H461 C479 0.948 . S
H462 C420 0.948 . S
H463 C438 0.979 . S
H464 C438 0.980 . S
H465 C438 0.983 . S
H466 C437 0.982 . S
H467 C437 0.979 . S
H468 C437 0.977 . S
H469 C439 0.948 . S
H470 C441 0.947 . S
H471 C442 0.948 . S
H472 C448 0.982 . S
H473 C448 0.979 . S
H474 C448 0.977 . S
H475 C449 0.979 . S
H476 C449 0.980 . S
H477 C449 0.983 . S
H478 C422 0.947 . S
C479 C422 1.392 . S
C479 C423 1.419 . S
C479 H461 0.948 . S
H480 C486 0.930 . S
H481 C490 0.930 . S
H482 C495 0.929 . S
H483 C493 0.929 . S
H484 C488 0.929 . S
H485 C494 0.929 . S
C486 H480 0.930 . S
C486 C487 1.367 . S
C486 C494 1.378 . S
C487 C486 1.367 . S
C487 C495 1.433 . S
C488 H484 0.929 . S
C488 C490 1.378 . S
C488 C492 1.350 . S
C489 C492 1.463 . S
C489 C494 1.350 . S
C489 N497 1.427 . S
C490 H481 0.930 . S
C490 C488 1.378 . S
C490 C491 1.367 . S
C491 C490 1.367 . S
C491 C493 1.433 . S
C492 C488 1.350 . S
C492 C489 1.463 . S
C492 N496 1.427 . S
C493 H483 0.929 . S
C493 C491 1.433 . S
C493 N496 1.384 . S
C494 H485 0.929 . S
C494 C486 1.378 . S
C494 C489 1.350 . S
C495 H482 0.929 . S
C495 C487 1.433 . S
C495 N497 1.384 . S
N496 C492 1.427 . S
N496 C493 1.384 . S
N497 C489 1.427 . S
N497 C495 1.384 . S
H498 C504 0.930 . S
H499 C508 0.930 . S
H500 C513 0.929 . S
H501 C511 0.929 . S
H502 C506 0.929 . S
H503 C512 0.929 . S
C504 H498 0.930 . S
C504 C505 1.367 . S
C504 C512 1.378 . S
C505 C504 1.367 . S
C505 C513 1.433 . S
C506 H502 0.929 . S
C506 C508 1.378 . S
C506 C510 1.350 . S
C507 C510 1.463 . S
C507 C512 1.350 . S
C507 N515 1.427 . S
C508 H499 0.930 . S
C508 C506 1.378 . S
C508 C509 1.367 . S
C509 C508 1.367 . S
C509 C511 1.433 . S
C510 C506 1.350 . S
C510 C507 1.463 . S
C510 N514 1.427 . S
C511 H501 0.929 . S
C511 C509 1.433 . S
C511 N514 1.384 . S
C512 H503 0.929 . S
C512 C504 1.378 . S
C512 C507 1.350 . S
C513 H500 0.929 . S
C513 C505 1.433 . S
C513 N515 1.384 . S
N514 C510 1.427 . S
N514 C511 1.384 . S
N515 C507 1.427 . S
N515 C513 1.384 . S
H516 C522 0.930 . S
H517 C526 0.930 . S
H518 C531 0.929 . S
H519 C529 0.929 . S
H520 C524 0.929 . S
H521 C530 0.929 . S
C522 H516 0.930 . S
C522 C523 1.367 . S
C522 C530 1.378 . S
C523 C522 1.367 . S
C523 C531 1.433 . S
C524 H520 0.929 . S
C524 C526 1.378 . S
C524 C528 1.350 . S
C525 C528 1.463 . S
C525 C530 1.350 . S
C525 N533 1.427 . S
C526 H517 0.930 . S
C526 C524 1.378 . S
C526 C527 1.367 . S
C527 C526 1.367 . S
C527 C529 1.433 . S
C528 C524 1.350 . S
C528 C525 1.463 . S
C528 N532 1.427 . S
C529 H519 0.929 . S
C529 C527 1.433 . S
C529 N532 1.384 . S
C530 H521 0.929 . S
C530 C522 1.378 . S
C530 C525 1.350 . S
C531 H518 0.929 . S
C531 C523 1.433 . S
C531 N533 1.384 . S
N532 C528 1.427 . S
N532 C529 1.384 . S
N533 C525 1.427 . S
N533 C531 1.384 . S
H534 C540 0.930 . S
H535 C544 0.930 . S
H536 C549 0.929 . S
H537 C547 0.929 . S
H538 C542 0.929 . S
H539 C548 0.929 . S
C540 H534 0.930 . S
C540 C541 1.367 . S
C540 C548 1.378 . S
C541 C540 1.367 . S
C541 C549 1.433 . S
C542 H538 0.929 . S
C542 C544 1.378 . S
C542 C546 1.350 . S
C543 C546 1.463 . S
C543 C548 1.350 . S
C543 N551 1.427 . S
C544 H535 0.930 . S
C544 C542 1.378 . S
C544 C545 1.367 . S
C545 C544 1.367 . S
C545 C547 1.433 . S
C546 C542 1.350 . S
C546 C543 1.463 . S
C546 N550 1.427 . S
C547 H537 0.929 . S
C547 C545 1.433 . S
C547 N550 1.384 . S
C548 H539 0.929 . S
C548 C540 1.378 . S
C548 C543 1.350 . S
C549 H536 0.929 . S
C549 C541 1.433 . S
C549 N551 1.384 . S
N550 C546 1.427 . S
N550 C547 1.384 . S
N551 C543 1.427 . S
N551 C549 1.384 . S
H552 C558 0.930 . S
H553 C562 0.930 . S
H554 C567 0.929 . S
H555 C565 0.929 . S
H556 C560 0.929 . S
H557 C566 0.929 . S
C558 H552 0.930 . S
C558 C559 1.367 . S
C558 C566 1.378 . S
C559 C558 1.367 . S
C559 C567 1.433 . S
C560 H556 0.929 . S
C560 C562 1.378 . S
C560 C564 1.350 . S
C561 C564 1.463 . S
C561 C566 1.350 . S
C561 N569 1.427 . S
C562 H553 0.930 . S
C562 C560 1.378 . S
C562 C563 1.367 . S
C563 C562 1.367 . S
C563 C565 1.433 . S
C564 C560 1.350 . S
C564 C561 1.463 . S
C564 N568 1.427 . S
C565 H555 0.929 . S
C565 C563 1.433 . S
C565 N568 1.384 . S
C566 H557 0.929 . S
C566 C558 1.378 . S
C566 C561 1.350 . S
C567 H554 0.929 . S
C567 C559 1.433 . S
C567 N569 1.384 . S
N568 C564 1.427 . S
N568 C565 1.384 . S
N569 C561 1.427 . S
N569 C567 1.384 . S
H570 C576 0.930 . S
H571 C580 0.930 . S
H572 C585 0.929 . S
H573 C583 0.929 . S
H574 C578 0.929 . S
H575 C584 0.929 . S
C576 H570 0.930 . S
C576 C577 1.367 . S
C576 C584 1.378 . S
C577 C576 1.367 . S
C577 C585 1.433 . S
C578 H574 0.929 . S
C578 C580 1.378 . S
C578 C582 1.350 . S
C579 C582 1.463 . S
C579 C584 1.350 . S
C579 N587 1.427 . S
C580 H571 0.930 . S
C580 C578 1.378 . S
C580 C581 1.367 . S
C581 C580 1.367 . S
C581 C583 1.433 . S
C582 C578 1.350 . S
C582 C579 1.463 . S
C582 N586 1.427 . S
C583 H573 0.929 . S
C583 C581 1.433 . S
C583 N586 1.384 . S
C584 H575 0.929 . S
C584 C576 1.378 . S
C584 C579 1.350 . S
C585 H572 0.929 . S
C585 C577 1.433 . S
C585 N587 1.384 . S
N586 C582 1.427 . S
N586 C583 1.384 . S
N587 C579 1.427 . S
N587 C585 1.384 . S
H588 C594 0.930 . S
H589 C598 0.930 . S
H590 C603 0.929 . S
H591 C601 0.929 . S
H592 C596 0.929 . S
H593 C602 0.929 . S
C594 H588 0.930 . S
C594 C595 1.367 . S
C594 C602 1.378 . S
C595 C594 1.367 . S
C595 C603 1.433 . S
C596 H592 0.929 . S
C596 C598 1.378 . S
C596 C600 1.350 . S
C597 C600 1.463 . S
C597 C602 1.350 . S
C597 N605 1.427 . S
C598 H589 0.930 . S
C598 C596 1.378 . S
C598 C599 1.367 . S
C599 C598 1.367 . S
C599 C601 1.433 . S
C600 C596 1.350 . S
C600 C597 1.463 . S
C600 N604 1.427 . S
C601 H591 0.929 . S
C601 C599 1.433 . S
C601 N604 1.384 . S
C602 H593 0.929 . S
C602 C594 1.378 . S
C602 C597 1.350 . S
C603 H590 0.929 . S
C603 C595 1.433 . S
C603 N605 1.384 . S
N604 C600 1.427 . S
N604 C601 1.384 . S
N605 C597 1.427 . S
N605 C603 1.384 . S
H606 C612 0.930 . S
H607 C616 0.930 . S
H608 C621 0.929 . S
H609 C619 0.929 . S
H610 C614 0.929 . S
H611 C620 0.929 . S
C612 H606 0.930 . S
C612 C613 1.367 . S
C612 C620 1.378 . S
C613 C612 1.367 . S
C613 C621 1.433 . S
C614 H610 0.929 . S
C614 C616 1.378 . S
C614 C618 1.350 . S
C615 C618 1.463 . S
C615 C620 1.350 . S
C615 N623 1.427 . S
C616 H607 0.930 . S
C616 C614 1.378 . S
C616 C617 1.367 . S
C617 C616 1.367 . S
C617 C619 1.433 . S
C618 C614 1.350 . S
C618 C615 1.463 . S
C618 N622 1.427 . S
C619 H609 0.929 . S
C619 C617 1.433 . S
C619 N622 1.384 . S
C620 H611 0.929 . S
C620 C612 1.378 . S
C620 C615 1.350 . S
C621 H608 0.929 . S
C621 C613 1.433 . S
C621 N623 1.384 . S
N622 C618 1.427 . S
N622 C619 1.384 . S
N623 C615 1.427 . S
N623 C621 1.384 . S
H624 C630 0.930 . S
H625 C634 0.930 . S
H626 C639 0.929 . S
H627 C637 0.929 . S
H628 C632 0.929 . S
H629 C638 0.929 . S
C630 H624 0.930 . S
C630 C631 1.367 . S
C630 C638 1.378 . S
C631 C630 1.367 . S
C631 C639 1.433 . S
C632 H628 0.929 . S
C632 C634 1.378 . S
C632 C636 1.350 . S
C633 C636 1.463 . S
C633 C638 1.350 . S
C633 N641 1.427 . S
C634 H625 0.930 . S
C634 C632 1.378 . S
C634 C635 1.367 . S
C635 C634 1.367 . S
C635 C637 1.433 . S
C636 C632 1.350 . S
C636 C633 1.463 . S
C636 N640 1.427 . S
C637 H627 0.929 . S
C637 C635 1.433 . S
C637 N640 1.384 . S
C638 H629 0.929 . S
C638 C630 1.378 . S
C638 C633 1.350 . S
C639 H626 0.929 . S
C639 C631 1.433 . S
C639 N641 1.384 . S
N640 C636 1.427 . S
N640 C637 1.384 . S
N641 C633 1.427 . S
N641 C639 1.384 . S
H642 C648 0.930 . S
H643 C652 0.930 . S
H644 C657 0.929 . S
H645 C655 0.929 . S
H646 C650 0.929 . S
H647 C656 0.929 . S
C648 H642 0.930 . S
C648 C649 1.367 . S
C648 C656 1.378 . S
C649 C648 1.367 . S
C649 C657 1.433 . S
C650 H646 0.929 . S
C650 C652 1.378 . S
C650 C654 1.350 . S
C651 C654 1.463 . S
C651 C656 1.350 . S
C651 N659 1.427 . S
C652 H643 0.930 . S
C652 C650 1.378 . S
C652 C653 1.367 . S
C653 C652 1.367 . S
C653 C655 1.433 . S
C654 C650 1.350 . S
C654 C651 1.463 . S
C654 N658 1.427 . S
C655 H645 0.929 . S
C655 C653 1.433 . S
C655 N658 1.384 . S
C656 H647 0.929 . S
C656 C648 1.378 . S
C656 C651 1.350 . S
C657 H644 0.929 . S
C657 C649 1.433 . S
C657 N659 1.384 . S
N658 C654 1.427 . S
N658 C655 1.384 . S
N659 C651 1.427 . S
N659 C657 1.384 . S
H660 C666 0.930 . S
H661 C670 0.930 . S
H662 C675 0.929 . S
H663 C673 0.929 . S
H664 C668 0.929 . S
H665 C674 0.929 . S
C666 H660 0.930 . S
C666 C667 1.367 . S
C666 C674 1.378 . S
C667 C666 1.367 . S
C667 C675 1.433 . S
C668 H664 0.929 . S
C668 C670 1.378 . S
C668 C672 1.350 . S
C669 C672 1.463 . S
C669 C674 1.350 . S
C669 N677 1.427 . S
C670 H661 0.930 . S
C670 C668 1.378 . S
C670 C671 1.367 . S
C671 C670 1.367 . S
C671 C673 1.433 . S
C672 C668 1.350 . S
C672 C669 1.463 . S
C672 N676 1.427 . S
C673 H663 0.929 . S
C673 C671 1.433 . S
C673 N676 1.384 . S
C674 H665 0.929 . S
C674 C666 1.378 . S
C674 C669 1.350 . S
C675 H662 0.929 . S
C675 C667 1.433 . S
C675 N677 1.384 . S
N676 C672 1.427 . S
N676 C673 1.384 . S
N677 C669 1.427 . S
N677 C675 1.384 . S
H678 C684 0.930 . S
H679 C688 0.930 . S
H680 C693 0.929 . S
H681 C691 0.929 . S
H682 C686 0.929 . S
H683 C692 0.929 . S
C684 H678 0.930 . S
C684 C685 1.367 . S
C684 C692 1.378 . S
C685 C684 1.367 . S
C685 C693 1.433 . S
C686 H682 0.929 . S
C686 C688 1.378 . S
C686 C690 1.350 . S
C687 C690 1.463 . S
C687 C692 1.350 . S
C687 N695 1.427 . S
C688 H679 0.930 . S
C688 C686 1.378 . S
C688 C689 1.367 . S
C689 C688 1.367 . S
C689 C691 1.433 . S
C690 C686 1.350 . S
C690 C687 1.463 . S
C690 N694 1.427 . S
C691 H681 0.929 . S
C691 C689 1.433 . S
C691 N694 1.384 . S
C692 H683 0.929 . S
C692 C684 1.378 . S
C692 C687 1.350 . S
C693 H680 0.929 . S
C693 C685 1.433 . S
C693 N695 1.384 . S
N694 C690 1.427 . S
N694 C691 1.384 . S
N695 C687 1.427 . S
N695 C693 1.384 . S
H696 C702 0.930 1_655 S
H697 C706 0.930 . S
H698 C711 0.929 . S
H699 C709 0.935 1_655 S
H700 C704 0.929 . S
H701 C710 0.929 1_655 S
C702 H696 0.930 1_455 S
C702 C703 1.367 . S
C702 C710 1.378 . S
C703 C702 1.367 . S
C703 C711 1.433 . S
C704 H700 0.929 . S
C704 C706 1.378 . S
C704 C708 1.350 . S
C705 C708 1.463 . S
C705 C710 1.350 . S
C705 N713 1.427 . S
C706 H697 0.930 . S
C706 C704 1.378 . S
C706 C707 1.367 . S
C707 C706 1.367 . S
C707 C709 1.433 . S
C708 C704 1.350 . S
C708 C705 1.463 . S
C708 N712 1.427 . S
C709 H699 0.935 1_455 S
C709 C707 1.433 . S
C709 N712 1.384 . S
C710 H701 0.929 1_455 S
C710 C702 1.378 . S
C710 C705 1.350 . S
C711 H698 0.929 . S
C711 C703 1.433 . S
C711 N713 1.384 . S
N712 C708 1.427 . S
N712 C709 1.384 . S
N713 C705 1.427 . S
N713 C711 1.384 . S
H714 C720 0.930 1_565 S
H715 C724 0.930 . S
H716 C729 0.929 . S
H717 C727 0.929 . S
H718 C722 0.929 . S
H719 C728 0.930 . S
C720 H714 0.930 1_545 S
C720 C721 1.367 . S
C720 C728 1.378 . S
C721 C720 1.367 . S
C721 C729 1.433 . S
C722 H718 0.929 . S
C722 C724 1.378 . S
C722 C726 1.350 . S
C723 C726 1.463 . S
C723 C728 1.350 . S
C723 N731 1.427 . S
C724 H715 0.930 . S
C724 C722 1.378 . S
C724 C725 1.367 . S
C725 C724 1.367 . S
C725 C727 1.433 . S
C726 C722 1.350 . S
C726 C723 1.463 . S
C726 N730 1.427 . S
C727 H717 0.929 . S
C727 C725 1.433 . S
C727 N730 1.384 . S
C728 H719 0.930 . S
C728 C720 1.378 . S
C728 C723 1.350 . S
C729 H716 0.929 . S
C729 C721 1.433 . S
C729 N731 1.384 . S
N730 C726 1.427 . S
N730 C727 1.384 . S
N731 C723 1.427 . S
N731 C729 1.384 . S
H732 C738 0.930 . S
H733 C742 0.930 . S
H734 C747 0.929 . S
H735 C745 0.929 . S
H736 C740 0.929 . S
H737 C746 0.929 . S
C738 H732 0.930 . S
C738 C739 1.367 . S
C738 C746 1.378 . S
C739 C738 1.367 . S
C739 C747 1.433 . S
C740 H736 0.929 . S
C740 C742 1.378 . S
C740 C744 1.350 . S
C741 C744 1.463 . S
C741 C746 1.350 . S
C741 N749 1.427 . S
C742 H733 0.930 . S
C742 C740 1.378 . S
C742 C743 1.367 . S
C743 C742 1.367 . S
C743 C745 1.433 . S
C744 C740 1.350 . S
C744 C741 1.463 . S
C744 N748 1.427 . S
C745 H735 0.929 . S
C745 C743 1.433 . S
C745 N748 1.384 . S
C746 H737 0.929 . S
C746 C738 1.378 . S
C746 C741 1.350 . S
C747 H734 0.929 . S
C747 C739 1.433 . S
C747 N749 1.384 . S
N748 C744 1.427 . S
N748 C745 1.384 . S
N749 C741 1.427 . S
N749 C747 1.384 . S
H750 C756 0.930 . S
H751 C760 0.930 . S
H752 C765 0.929 . S
H753 C763 0.929 . S
H754 C758 0.929 . S
H755 C764 0.929 . S
C756 H750 0.930 . S
C756 C757 1.367 1_565 S
C756 C764 1.378 . S
C757 C756 1.367 1_545 S
C757 C765 1.433 . S
C758 H754 0.929 . S
C758 C760 1.378 . S
C758 C762 1.353 1_545 S
C759 C762 1.462 1_545 S
C759 C764 1.335 1_545 S
C759 N767 1.445 . S
C760 H751 0.930 . S
C760 C758 1.378 . S
C760 C761 1.367 1_545 S
C761 C760 1.367 1_565 S
C761 C763 1.433 . S
C762 C758 1.353 1_565 S
C762 C759 1.462 1_565 S
C762 N766 1.424 . S
C763 H753 0.929 . S
C763 C761 1.433 . S
C763 N766 1.384 . S
C764 H755 0.929 . S
C764 C756 1.378 . S
C764 C759 1.335 1_565 S
C765 H752 0.929 . S
C765 C757 1.433 . S
C765 N767 1.384 . S
N766 C762 1.424 . S
N766 C763 1.384 . S
N767 C759 1.445 . S
N767 C765 1.384 . S
H768 C774 0.930 . S
H769 C778 0.930 . S
H770 C783 0.929 . S
H771 C781 0.929 . S
H772 C776 0.929 . S
H773 C782 0.929 . S
C774 H768 0.930 . S
C774 C775 1.367 . S
C774 C782 1.378 . S
C775 C774 1.367 . S
C775 C783 1.433 . S
C776 H772 0.929 . S
C776 C778 1.378 . S
C776 C780 1.350 . S
C777 C780 1.463 . S
C777 C782 1.350 . S
C777 N785 1.427 . S
C778 H769 0.930 . S
C778 C776 1.378 . S
C778 C779 1.367 . S
C779 C778 1.367 . S
C779 C781 1.433 . S
C780 C776 1.350 . S
C780 C777 1.463 . S
C780 N784 1.427 . S
C781 H771 0.929 . S
C781 C779 1.433 . S
C781 N784 1.384 . S
C782 H773 0.929 . S
C782 C774 1.378 . S
C782 C777 1.350 . S
C783 H770 0.929 . S
C783 C775 1.433 . S
C783 N785 1.384 . S
N784 C780 1.427 . S
N784 C781 1.384 . S
N785 C777 1.427 . S
N785 C783 1.384 . S
H786 C792 0.930 . S
H787 C796 0.930 . S
H788 C801 0.907 1_655 S
H789 C799 0.929 . S
H790 C794 0.929 . S
H791 C800 0.929 . S
C792 H786 0.930 . S
C792 C793 1.367 . S
C792 C800 1.378 . S
C793 C792 1.367 . S
C793 C801 1.433 . S
C794 H790 0.929 . S
C794 C796 1.378 . S
C794 C798 1.350 1_655 S
C795 C798 1.463 . S
C795 C800 1.350 . S
C795 N803 1.427 . S
C796 H787 0.930 . S
C796 C794 1.378 . S
C796 C797 1.384 . S
C797 C796 1.384 . S
C797 C799 1.413 1_655 S
C798 C794 1.350 1_455 S
C798 C795 1.463 . S
C798 N802 1.427 . S
C799 H789 0.929 . S
C799 C797 1.413 1_455 S
C799 N802 1.384 . S
C800 H791 0.929 . S
C800 C792 1.378 . S
C800 C795 1.350 . S
C801 H788 0.907 1_455 S
C801 C793 1.433 . S
C801 N803 1.384 . S
N802 C798 1.427 . S
N802 C799 1.384 . S
N803 C795 1.427 . S
N803 C801 1.384 . S
C487 C7 0.672 . S
C491 C451 0.640 . S
C505 C51 1.915 . S
C509 C301 1.770 . S
C523 C87 1.232 . S
C527 C361 1.210 . S
C541 C16 0.404 . S
C545 C421 0.438 . S
C563 C331 2.058 . S
C559 C42 2.066 . S
C581 C391 1.356 . S
C577 C96 1.344 . S
C595 C47 1.200 . S
C599 C181 1.160 . S
C613 C91 3.119 . S
C617 C271 3.107 . S
C631 C2 2.095 . S
C635 C151 2.109 . S
C653 C211 1.340 . S
C649 C56 1.322 . S
C671 C241 2.838 . S
C667 C82 2.995 . S
C685 C11 1.910 . S
C689 C121 1.783 . S
C707 C260 1.750 1_554 S
C703 C19 1.710 . S
C721 C50 1.346 . S
C725 C140 1.357 . S
C739 C99 1.458 . S
C743 C200 1.486 . S
C761 C380 1.459 . S
C757 C59 1.460 . S
C779 C440 1.107 1_556 S
C775 C90 1.112 . S
C793 C10 1.329 . S
C797 C320 1.342 1_655 S
