# Generated by pormake.
# Topology dag, (6,3)-cn, num edge types: 1
# Building blocks:
#     Node 0, Type 0, BuildingBlock: OJICUG_clean_sbu_0, # of connection points: 6
#     Node 1, Type 0, BuildingBlock: OJICUG_clean_sbu_0, # of connection points: 6
#     Node 2, Type 0, BuildingBlock: OJICUG_clean_sbu_0, # of connection points: 6
#     Node 3, Type 0, BuildingBlock: OJICUG_clean_sbu_0, # of connection points: 6
#     Node 4, Type 1, BuildingBlock: CUQRIR_clean_linker_1, # of connection points: 3
#     Node 5, Type 1, BuildingBlock: CUQRIR_clean_linker_1, # of connection points: 3
#     Node 6, Type 1, BuildingBlock: CUQRIR_clean_linker_1, # of connection points: 3
#     Node 7, Type 1, BuildingBlock: CUQRIR_clean_linker_1, # of connection points: 3
#     Node 8, Type 1, BuildingBlock: CUQRIR_clean_linker_1, # of connection points: 3
#     Node 9, Type 1, BuildingBlock: CUQRIR_clean_linker_1, # of connection points: 3
#     Node 10, Type 1, BuildingBlock: CUQRIR_clean_linker_1, # of connection points: 3
#     Node 11, Type 1, BuildingBlock: CUQRIR_clean_linker_1, # of connection points: 3
#     Edge 12, Type (0, 1), BuildingBlock: OJICUG_clean_linker_0, # of connection points: 2
#     Edge 13, Type (0, 1), BuildingBlock: OJICUG_clean_linker_0, # of connection points: 2
#     Edge 14, Type (0, 1), BuildingBlock: OJICUG_clean_linker_0, # of connection points: 2
#     Edge 15, Type (0, 1), BuildingBlock: OJICUG_clean_linker_0, # of connection points: 2
#     Edge 16, Type (0, 1), BuildingBlock: OJICUG_clean_linker_0, # of connection points: 2
#     Edge 17, Type (0, 1), BuildingBlock: OJICUG_clean_linker_0, # of connection points: 2
#     Edge 18, Type (0, 1), BuildingBlock: OJICUG_clean_linker_0, # of connection points: 2
#     Edge 19, Type (0, 1), BuildingBlock: OJICUG_clean_linker_0, # of connection points: 2
#     Edge 20, Type (0, 1), BuildingBlock: OJICUG_clean_linker_0, # of connection points: 2
#     Edge 21, Type (0, 1), BuildingBlock: OJICUG_clean_linker_0, # of connection points: 2
#     Edge 22, Type (0, 1), BuildingBlock: OJICUG_clean_linker_0, # of connection points: 2
#     Edge 23, Type (0, 1), BuildingBlock: OJICUG_clean_linker_0, # of connection points: 2
#     Edge 24, Type (0, 1), BuildingBlock: OJICUG_clean_linker_0, # of connection points: 2
#     Edge 25, Type (0, 1), BuildingBlock: OJICUG_clean_linker_0, # of connection points: 2
#     Edge 26, Type (0, 1), BuildingBlock: OJICUG_clean_linker_0, # of connection points: 2
#     Edge 27, Type (0, 1), BuildingBlock: OJICUG_clean_linker_0, # of connection points: 2
#     Edge 28, Type (0, 1), BuildingBlock: OJICUG_clean_linker_0, # of connection points: 2
#     Edge 29, Type (0, 1), BuildingBlock: OJICUG_clean_linker_0, # of connection points: 2
#     Edge 30, Type (0, 1), BuildingBlock: OJICUG_clean_linker_0, # of connection points: 2
#     Edge 31, Type (0, 1), BuildingBlock: OJICUG_clean_linker_0, # of connection points: 2
#     Edge 32, Type (0, 1), BuildingBlock: OJICUG_clean_linker_0, # of connection points: 2
#     Edge 33, Type (0, 1), BuildingBlock: OJICUG_clean_linker_0, # of connection points: 2
#     Edge 34, Type (0, 1), BuildingBlock: OJICUG_clean_linker_0, # of connection points: 2
#     Edge 35, Type (0, 1), BuildingBlock: OJICUG_clean_linker_0, # of connection points: 2
# Relax obj value: 0.082
# Max RMSD: 0.092
# Mean RMSD: 0.082
data_MOF--net-dag--node1-OJICUG_clean_sbu_0--node2-CUQRIR_clean_linker_1--edge1-OJICUG_clean_linker_0
_symmetry_space_group_name_H-M    P1
_symmetry_Int_Tables_number       1
_symmetry_cell_setting            triclinic
loop_
_symmetry_equiv_pos_as_xyz
'x, y, z'
_cell_length_a     25.120092
_cell_length_b     25.752275
_cell_length_c     26.450185
_cell_angle_alpha  92.868351
_cell_angle_beta   90.317288
_cell_angle_gamma 90.35627
loop_
_atom_site_label
_atom_site_type_symbol
_atom_site_fract_x
_atom_site_fract_y
_atom_site_fract_z
_atom_type_partial_charge
Sc0 Sc 0.07511 0.92291 0.01247 0.0
Sc1 Sc 0.10352 0.79009 0.00918 0.0
Sc2 Sc 0.20248 0.88242 0.04472 0.0
O3 O 0.12711 0.86501 0.02187 0.0
C4 C 0.18361 0.97017 0.97012 0.0
C5 C 0.04711 0.84754 0.9186 0.0
C6 C 0.21932 0.78716 0.96456 0.0
C7 C 0.00222 0.83745 0.06282 0.0
C8 C 0.13401 0.96422 0.11081 0.0
C9 C 0.17525 0.78667 0.10939 0.0
O10 O 0.13432 0.97263 0.98059 0.0
O11 O 0.05791 0.8069 0.94212 0.0
O12 O 0.23704 0.82183 -0.00371 0.0
O13 O 0.0099 0.88181 0.04506 0.0
O14 O 0.17846 0.94544 0.09659 0.0
O15 O 0.14597 0.76451 0.07511 0.0
O16 O 0.09069 0.95545 0.08702 0.0
O17 O 0.03436 0.79989 0.05612 0.0
O18 O 0.19551 0.83161 0.10572 0.0
O19 O 0.05554 0.89338 0.9372 0.0
O20 O 0.21431 0.93531 0.98557 0.0
O21 O 0.17048 0.77431 0.96106 0.0
Sc22 Sc 0.70106 0.60399 0.4707 0.0
Sc23 Sc 0.60363 0.69868 0.5038 0.0
Sc24 Sc 0.57413 0.56499 0.50805 0.0
O25 O 0.62639 0.62274 0.49441 0.0
C26 C 0.62928 0.51962 0.40857 0.0
C27 C 0.67072 0.69744 0.40173 0.0
C28 C 0.49856 0.64678 0.45648 0.0
C29 C 0.72292 0.70345 0.54501 0.0
C30 C 0.68292 0.51962 0.55079 0.0
C31 C 0.55226 0.64652 0.5997 0.0
O32 O 0.67343 0.54275 0.4178 0.0
O33 O 0.6378 0.71878 0.43256 0.0
O34 O 0.50929 0.60199 0.47145 0.0
O35 O 0.73778 0.66227 0.52086 0.0
O36 O 0.63269 0.5193 0.54518 0.0
O37 O 0.56659 0.68619 0.5761 0.0
O38 O 0.71387 0.54997 0.52859 0.0
O39 O 0.67587 0.72108 0.54331 0.0
O40 O 0.55444 0.60031 0.58056 0.0
O41 O 0.69556 0.65594 0.41027 0.0
O42 O 0.5887 0.52543 0.43652 0.0
O43 O 0.52893 0.68593 0.46452 0.0
Sc44 Sc 0.89698 0.19771 0.01333 0.0
Sc45 Sc 0.79869 0.10526 0.97567 0.0
Sc46 Sc 0.92615 0.06468 0.00705 0.0
O47 O 0.87396 0.12276 -0.00114 0.0
C48 C 0.00044 0.15233 0.9617 0.0
C49 C 0.82654 0.20213 0.91224 0.0
C50 C 0.86766 0.02463 0.90821 0.0
C51 C 0.77999 0.1999 0.0561 0.0
C52 C 0.95191 0.13818 0.10342 0.0
C53 C 0.81758 0.01576 0.04782 0.0
O54 O 0.96822 0.18965 0.96913 0.0
O55 O 0.80549 0.15747 0.9158 0.0
O56 O 0.91116 0.03372 0.93166 0.0
O57 O 0.8286 0.21346 0.05957 0.0
O58 O 0.94513 0.0927 0.08314 0.0
O59 O 0.78708 0.05155 0.03405 0.0
O60 O 0.94018 0.17946 0.08126 0.0
O61 O 0.76312 0.16454 0.02473 0.0
O62 O 0.86683 0.01355 0.03702 0.0
O63 O 0.85651 0.2236 0.94641 0.0
O64 O 0.99174 0.10684 0.97635 0.0
O65 O 0.82322 0.04298 0.92304 0.0
Sc66 Sc 0.42132 0.41986 0.50866 0.0
Sc67 Sc 0.29656 0.38011 0.54763 0.0
Sc68 Sc 0.39521 0.28738 0.52086 0.0
O69 O 0.37119 0.3622 0.52539 0.0
C70 C 0.45086 0.3306 0.4251 0.0
C71 C 0.31674 0.46224 0.46366 0.0
C72 C 0.27648 0.28366 0.47423 0.0
C73 C 0.36158 0.46612 0.60724 0.0
C74 C 0.49644 0.34718 0.56982 0.0
C75 C 0.32341 0.28556 0.6164 0.0
O76 O 0.45452 0.37641 0.44499 0.0
O77 O 0.28924 0.44534 0.49954 0.0
O78 O 0.31953 0.26173 0.4874 0.0
O79 O 0.3933 0.47086 0.57033 0.0
O80 O 0.47205 0.30574 0.5546 0.0
O81 O 0.29128 0.31824 0.5992 0.0
O82 O 0.481 0.39235 0.55921 0.0
O83 O 0.32681 0.43016 0.60865 0.0
O84 O 0.36756 0.27437 0.59581 0.0
O85 O 0.36526 0.45074 0.45689 0.0
O86 O 0.42716 0.29355 0.44585 0.0
O87 O 0.26439 0.33017 0.48783 0.0
C88 C 0.08953 0.17599 0.32067 0.0
N89 N 0.07729 0.14019 0.28323 0.0
N90 N 0.1358 0.1637 0.34384 0.0
C91 C 0.05643 0.223 0.33414 0.0
C92 C 0.15143 0.11934 0.31862 0.0
N93 N 0.11575 0.105 0.28211 0.0
C94 C 0.20401 0.09292 0.32645 0.0
H95 H 0.06802 0.25498 0.30977 0.0
H96 H 0.06264 0.23616 0.37434 0.0
H97 H 0.01361 0.2142 0.32722 0.0
H98 H 0.20247 0.07194 0.36202 0.0
H99 H 0.23653 0.12225 0.33021 0.0
H100 H 0.21345 0.06423 0.29523 0.0
C101 C 0.34845 0.62908 0.808 0.0
N102 N 0.38448 0.61689 0.77171 0.0
N103 N 0.3614 0.67485 0.83259 0.0
C104 C 0.29794 0.59885 0.81614 0.0
C105 C 0.40692 0.68993 0.81015 0.0
N106 N 0.42092 0.65465 0.77303 0.0
C107 C 0.43492 0.74096 0.82168 0.0
H108 H 0.27004 0.60477 0.78429 0.0
H109 H 0.27857 0.61118 0.85232 0.0
H110 H 0.30634 0.55673 0.81669 0.0
H111 H 0.43522 0.75078 0.86293 0.0
H112 H 0.41312 0.7721 0.80291 0.0
H113 H 0.47654 0.73998 0.80789 0.0
C114 C 0.72966 0.83308 0.19916 0.0
N115 N 0.76832 0.8467 0.16696 0.0
N116 N 0.74599 0.79306 0.22662 0.0
C117 C 0.67544 0.8573 0.20235 0.0
C118 C 0.79614 0.78319 0.21027 0.0
N119 N 0.80957 0.81566 0.17388 0.0
C120 C 0.83386 0.74581 0.23355 0.0
H121 H 0.67662 0.89061 0.23061 0.0
H122 H 0.64538 0.82883 0.21456 0.0
H123 H 0.66346 0.87202 0.16527 0.0
H124 H 0.82874 0.70687 0.21418 0.0
H125 H 0.82546 0.74245 0.2744 0.0
H126 H 0.87587 0.75828 0.22922 0.0
C127 C 0.76529 0.34927 0.71766 0.0
N128 N 0.72765 0.3626 0.6841 0.0
N129 N 0.74764 0.30942 0.74475 0.0
C130 C 0.81983 0.37333 0.72226 0.0
C131 C 0.69781 0.29943 0.72675 0.0
N132 N 0.68575 0.33175 0.68983 0.0
C133 C 0.65947 0.26115 0.748 0.0
H134 H 0.83269 0.38817 0.68557 0.0
H135 H 0.84923 0.3448 0.73519 0.0
H136 H 0.81863 0.40656 0.75058 0.0
H137 H 0.6676 0.25621 0.78875 0.0
H138 H 0.66413 0.22292 0.7273 0.0
H139 H 0.61771 0.27393 0.74333 0.0
C140 C 0.59233 0.29086 0.21294 0.0
N141 N 0.57596 0.32719 0.24807 0.0
N142 N 0.63294 0.30968 0.18564 0.0
C143 C 0.57303 0.23543 0.20888 0.0
C144 C 0.6407 0.35853 0.20567 0.0
N145 N 0.60645 0.36912 0.24387 0.0
C146 C 0.68271 0.39562 0.1887 0.0
H147 H 0.60646 0.20922 0.21742 0.0
H148 H 0.55966 0.22547 0.16954 0.0
H149 H 0.53962 0.22859 0.235 0.0
H150 H 0.69194 0.3878 0.14805 0.0
H151 H 0.71966 0.39067 0.21104 0.0
H152 H 0.66934 0.43642 0.19502 0.0
C153 C 0.20964 0.21418 0.82349 0.0
N154 N 0.19744 0.18054 0.85926 0.0
N155 N 0.25528 0.19989 0.79962 0.0
C156 C 0.17447 0.25813 0.80875 0.0
C157 C 0.2706 0.15646 0.82247 0.0
N158 N 0.23534 0.1447 0.85868 0.0
C159 C 0.31714 0.12324 0.80633 0.0
H160 H 0.13995 0.24195 0.78668 0.0
H161 H 0.19631 0.28598 0.78568 0.0
H162 H 0.15884 0.27943 0.84288 0.0
H163 H 0.32848 0.09639 0.83601 0.0
H164 H 0.35206 0.14773 0.79791 0.0
H165 H 0.30628 0.10015 0.77119 0.0
C166 C 0.23178 0.64041 0.30538 0.0
N167 N 0.2679 0.62783 0.3406 0.0
N168 N 0.24756 0.68376 0.28246 0.0
C169 C 0.18093 0.61095 0.29422 0.0
C170 C 0.29486 0.69667 0.30486 0.0
N171 N 0.30704 0.66272 0.34037 0.0
C172 C 0.3318 0.73872 0.28817 0.0
H173 H 0.18879 0.57928 0.26528 0.0
H174 H 0.15 0.63683 0.27938 0.0
H175 H 0.16607 0.59302 0.32878 0.0
H176 H 0.32256 0.77555 0.30981 0.0
H177 H 0.32665 0.74497 0.24724 0.0
H178 H 0.37399 0.72893 0.29549 0.0
C179 C 0.84761 0.86506 0.70297 0.0
N180 N 0.8831 0.87934 0.7397 0.0
N181 N 0.86293 0.82024 0.67826 0.0
C182 C 0.79575 0.89236 0.69404 0.0
C183 C 0.90874 0.80761 0.70203 0.0
N184 N 0.92104 0.84363 0.73924 0.0
C185 C 0.94151 0.7602 0.68927 0.0
H186 H 0.7629 0.86357 0.68864 0.0
H187 H 0.79896 0.91417 0.65908 0.0
H188 H 0.78566 0.9205 0.72553 0.0
H189 H 0.93576 0.74683 0.64907 0.0
H190 H 0.92922 0.72854 0.71373 0.0
H191 H 0.98432 0.76861 0.69666 0.0
C192 C 0.0962 0.98803 0.1951 0.0
C193 C 0.13246 -0.00174 0.15666 0.0
H194 H 0.06484 0.01353 0.2674 0.0
C195 C 0.1655 0.04232 0.1614 0.0
H196 H 0.07066 0.95393 0.19205 0.0
C197 C 0.16058 0.07709 0.20327 0.0
C198 C 0.12381 0.06718 0.24133 0.0
H199 H 0.1935 0.05082 0.13186 0.0
H200 H 0.18463 0.11218 0.20575 0.0
C201 C 0.0927 0.02187 0.23776 0.0
C202 C 0.52756 0.61298 0.68327 0.0
C203 C 0.52755 0.65391 0.65004 0.0
H204 H 0.49414 0.58233 0.75002 0.0
C205 C 0.49821 0.69894 0.66275 0.0
H206 H 0.55015 0.57797 0.67467 0.0
C207 C 0.46579 0.70099 0.70562 0.0
C208 C 0.46308 0.65846 0.73675 0.0
H209 H 0.49719 0.73091 0.63767 0.0
H210 H 0.43994 0.73405 0.71235 0.0
C211 C 0.49586 0.61546 0.7264 0.0
C212 C 0.77387 0.98222 0.12396 0.0
C213 C 0.79491 0.97315 0.07538 0.0
H214 H 0.74912 0.94757 0.19218 0.0
C215 C 0.79866 0.92217 0.05463 0.0
H216 H 0.77086 0.02146 0.14042 0.0
C217 C 0.78435 0.88041 0.08328 0.0
C218 C 0.76808 0.88906 0.1336 0.0
H219 H 0.81448 0.91464 0.01695 0.0
H220 H 0.78973 0.84116 0.06758 0.0
C221 C 0.76095 0.94022 0.1532 0.0
C222 C 0.57098 0.29488 0.6044 0.0
C223 C 0.54437 0.34263 0.602 0.0
H224 H 0.63769 0.25441 0.63439 0.0
C225 C 0.56367 0.38598 0.63113 0.0
H226 H 0.55714 0.26076 0.58245 0.0
C227 C 0.60888 0.38178 0.66148 0.0
C228 C 0.63621 0.33455 0.66256 0.0
H229 H 0.54376 0.42316 0.63067 0.0
H230 H 0.62312 0.41561 0.6836 0.0
C231 C 0.61671 0.291 0.63426 0.0
C232 C 0.57729 0.48041 0.33562 0.0
C233 C 0.6248 0.48348 0.36396 0.0
H234 H 0.53555 0.44307 0.27272 0.0
C235 C 0.66701 0.45029 0.35059 0.0
H236 H 0.5444 0.50609 0.345 0.0
C237 C 0.66098 0.41312 0.31072 0.0
C238 C 0.61329 0.40963 0.28279 0.0
H239 H 0.70383 0.45173 0.37216 0.0
H240 H 0.69305 0.38622 0.30231 0.0
C241 C 0.57197 0.44427 0.29473 0.0
C242 C 0.06809 0.12322 0.89851 0.0
C243 C 0.04986 0.16137 0.93386 0.0
H244 H 0.12864 0.10104 0.84519 0.0
C245 C 0.07977 0.2072 0.94298 0.0
H246 H 0.0454 0.08779 0.89052 0.0
C247 C 0.12828 0.21383 0.91827 0.0
C248 C 0.14649 0.17545 0.88316 0.0
H249 H 0.06652 0.23697 0.97037 0.0
H250 H 0.15209 0.24828 0.9272 0.0
C251 C 0.11554 0.13064 0.87277 0.0
C252 C 0.27794 0.54937 0.45426 0.0
C253 C 0.29361 0.50136 0.43199 0.0
H254 H 0.25767 0.62851 0.44128 0.0
C255 C 0.29283 0.4935 0.37914 0.0
H256 H 0.27886 0.55615 0.49503 0.0
C257 C 0.27872 0.53413 0.34877 0.0
C258 C 0.26744 0.58334 0.37103 0.0
H259 H 0.30509 0.45668 0.36145 0.0
H260 H 0.28102 0.52858 0.30799 0.0
C261 C 0.26566 0.59043 0.42384 0.0
C262 C 0.98388 0.80106 0.85832 0.0
C263 C 0.02062 0.84165 0.86869 0.0
H264 H 0.92238 0.77057 0.80825 0.0
C265 C 0.02883 0.87883 0.83236 0.0
H266 H 0.97671 0.77197 0.88573 0.0
C267 C 0.99901 0.87683 0.78759 0.0
C268 C 0.95945 0.83877 0.7792 0.0
H269 H 0.05746 0.91008 0.8391 0.0
H270 H 0.00521 0.90626 0.7604 0.0
C271 C 0.95309 0.79999 0.81407 0.0
C272 C 0.90593 -0.00247 0.82464 0.0
C273 C 0.86867 0.98963 0.86285 0.0
H274 H 0.9373 0.96925 0.7532 0.0
C275 C 0.83396 0.94674 0.8585 0.0
H276 H 0.9328 0.03065 0.82731 0.0
C277 C 0.83812 0.91087 0.81739 0.0
C278 C 0.87582 0.91845 0.77956 0.0
H279 H 0.80517 0.93993 0.88784 0.0
H280 H 0.81273 0.87668 0.81538 0.0
C281 C 0.9087 0.96261 0.78267 0.0
C282 C 0.46044 0.3473 0.3342 0.0
C283 C 0.47721 0.32068 0.37637 0.0
H284 H 0.47857 0.36784 0.25852 0.0
C285 C 0.52398 0.29122 0.37363 0.0
H286 H 0.42463 0.37056 0.3359 0.0
C287 C 0.55544 0.29115 0.33016 0.0
C288 C 0.53982 0.31981 0.28895 0.0
H289 H 0.53785 0.2711 0.40618 0.0
H290 H 0.59313 0.27095 0.32945 0.0
C291 C 0.49118 0.34606 0.29038 0.0
C292 C 0.2183 0.00616 0.89117 0.0
C293 C 0.20649 0.01273 0.94278 0.0
H294 H 0.23673 0.04444 0.82316 0.0
C295 C 0.21111 0.06198 0.96741 0.0
H296 H 0.21423 0.96833 0.87165 0.0
C297 C 0.22519 0.10486 0.94021 0.0
C298 C 0.23378 0.09916 0.88792 0.0
H299 H 0.2018 0.06756 0.00728 0.0
H300 H 0.22627 0.14308 0.95923 0.0
C301 C 0.23161 0.04935 0.86372 0.0
C302 C 0.43288 0.61066 0.39342 0.0
C303 C 0.44985 0.65226 0.42604 0.0
H304 H 0.37559 0.58295 0.33829 0.0
C305 C 0.42019 0.69839 0.42873 0.0
H306 H 0.45563 0.57506 0.38982 0.0
C307 C 0.37322 0.70201 0.40041 0.0
C308 C 0.35611 0.66003 0.3684 0.0
H309 H 0.43263 0.73103 0.45351 0.0
H310 H 0.34988 0.73721 0.40378 0.0
C311 C 0.38697 0.61491 0.36425 0.0
C312 C 0.36781 0.55767 0.64064 0.0
C313 C 0.36536 0.50459 0.64986 0.0
H314 H 0.37326 0.63535 0.67319 0.0
C315 C 0.36836 0.48866 0.69975 0.0
H316 H 0.36534 0.57067 0.60236 0.0
C317 C 0.37515 0.52551 0.73993 0.0
C318 C 0.3772 0.57864 0.73071 0.0
H319 H 0.36712 0.44773 0.70744 0.0
H320 H 0.37949 0.51266 0.77806 0.0
C321 C 0.37266 0.59446 0.68088 0.0
C322 C 0.92856 0.78188 0.09452 0.0
C323 C 0.95444 0.83036 0.09383 0.0
H324 H 0.86072 0.73969 0.12043 0.0
C325 C 0.93402 0.87279 0.12288 0.0
H326 H 0.94365 0.74858 0.07255 0.0
C327 C 0.88793 0.86716 0.1512 0.0
C328 C 0.86051 0.81954 0.14971 0.0
H329 H 0.95374 0.91037 0.12376 0.0
H330 H 0.87278 0.90033 0.17327 0.0
C331 C 0.88155 0.77667 0.12194 0.0
C332 C 0.70622 0.42858 0.5645 0.0
C333 C 0.70599 0.48066 0.58241 0.0
H334 H 0.71606 0.34937 0.58364 0.0
C335 C 0.72194 0.49396 0.63227 0.0
H336 H 0.69392 0.41786 0.52602 0.0
C337 C 0.73407 0.45483 0.66519 0.0
C338 C 0.73042 0.40245 0.6482 0.0
H339 H 0.72163 0.53414 0.64654 0.0
H340 H 0.74216 0.4651 0.70469 0.0
C341 C 0.71903 0.3897 0.59712 0.0
C342 C 0.01312 0.18469 0.16552 0.0
C343 C 0.97792 0.14315 0.15362 0.0
H344 H 0.07337 0.21562 0.21669 0.0
C345 C 0.97099 0.10441 0.1886 0.0
H346 H 0.01935 0.21499 0.13916 0.0
C347 C 0.00056 0.10596 0.23355 0.0
C348 C 0.03868 0.14517 0.24342 0.0
H349 H 0.94358 0.07234 0.18068 0.0
H350 H 0.99537 0.07535 0.25968 0.0
C351 C 0.04372 0.18534 0.20987 0.0
C352 C 0.19914 0.78758 0.20081 0.0
C353 C 0.1877 0.75903 0.15535 0.0
H354 H 0.22562 0.78514 0.27776 0.0
C355 C 0.19142 0.70458 0.15379 0.0
H356 H 0.19584 0.82957 0.20326 0.0
C357 C 0.20938 0.67944 0.19625 0.0
C358 C 0.22284 0.70837 0.24094 0.0
H359 H 0.18295 0.68172 0.11915 0.0
H360 H 0.21496 0.63776 0.19356 0.0
C361 C 0.2161 0.76238 0.24333 0.0
C362 C 0.774 0.78409 0.56802 0.0
C363 C 0.76208 0.73212 0.57689 0.0
H364 H 0.81862 0.85213 0.59213 0.0
C365 C 0.78651 0.70825 0.61736 0.0
H366 H 0.75579 0.80289 0.53657 0.0
C367 C 0.82069 0.73688 0.65011 0.0
C368 C 0.83216 0.78924 0.64182 0.0
H369 H 0.77744 0.66816 0.62481 0.0
H370 H 0.83662 0.71868 0.68287 0.0
C371 C 0.80956 0.81216 0.59976 0.0
C372 C 0.68701 0.2279 0.07714 0.0
C373 C 0.74141 0.22663 0.09 0.0
H374 H 0.60963 0.25689 0.09764 0.0
C375 C 0.75894 0.25173 0.13547 0.0
H376 H 0.67243 0.209 0.04222 0.0
C377 C 0.72295 0.27798 0.16719 0.0
C378 C 0.66902 0.2805 0.15365 0.0
H379 H 0.80044 0.25082 0.14675 0.0
H380 H 0.73716 0.29647 0.20241 0.0
C381 C 0.6511 0.25499 0.10868 0.0
C382 C 0.3435 0.25723 0.70314 0.0
C383 C 0.30803 0.25965 0.66216 0.0
H384 H 0.35321 0.23778 0.78068 0.0
C385 C 0.25625 0.23978 0.6661 0.0
H386 H 0.38351 0.27283 0.70079 0.0
C387 C 0.23982 0.21833 0.71072 0.0
C388 C 0.27428 0.21805 0.75259 0.0
H389 H 0.22848 0.24101 0.63468 0.0
H390 H 0.19976 0.20292 0.71307 0.0
C391 C 0.3264 0.23716 0.74848 0.0
C392 C 0.68156 0.77671 0.35182 0.0
C393 C 0.68248 0.72236 0.35419 0.0
H394 H 0.70256 0.84212 0.30875 0.0
C395 C 0.69882 0.69179 0.31168 0.0
H396 H 0.66925 0.80109 0.38416 0.0
C397 C 0.71655 0.7152 0.26849 0.0
C398 C 0.71915 0.76947 0.26741 0.0
H399 H 0.69915 0.64975 0.31228 0.0
H400 H 0.73031 0.69105 0.23657 0.0
C401 C 0.70026 0.80014 0.30876 0.0
C402 C 0.81372 0.28522 0.86828 0.0
C403 C 0.81336 0.23058 0.86688 0.0
H404 H 0.79188 0.35349 0.82974 0.0
C405 C 0.79641 0.20283 0.82252 0.0
H406 H 0.82656 0.30756 0.90199 0.0
C407 C 0.77751 0.22907 0.78141 0.0
C408 C 0.77462 0.2834 0.78404 0.0
H409 H 0.79651 0.16071 0.82 0.0
H410 H 0.76338 0.20696 0.74805 0.0
C411 C 0.79413 0.31148 0.82711 0.0
C412 C 0.227 0.20161 0.45181 0.0
C413 C 0.2384 0.25354 0.44211 0.0
H414 H 0.18227 0.1331 0.42941 0.0
C415 C 0.21297 0.2766 0.40163 0.0
H416 H 0.24561 0.18338 0.48339 0.0
C417 C 0.17829 0.2474 0.36994 0.0
C418 C 0.1672 0.19525 0.37926 0.0
H419 H 0.22139 0.31663 0.39346 0.0
H420 H 0.1615 0.26505 0.33723 0.0
C421 C 0.19097 0.17296 0.42108 0.0
C422 C 0.24115 0.74523 0.88063 0.0
C423 C 0.25713 0.76059 0.93006 0.0
H424 H 0.2634 0.70736 0.81005 0.0
C425 C 0.30903 0.74958 0.94633 0.0
H426 H 0.20156 0.75385 0.86706 0.0
C427 C 0.34375 0.72183 0.9141 0.0
C428 C 0.32738 0.70601 0.86497 0.0
H429 H 0.32209 0.76093 0.98441 0.0
H430 H 0.38284 0.71166 0.92776 0.0
C431 C 0.2763 0.71881 0.84814 0.0
loop_
_geom_bond_atom_site_label_1
_geom_bond_atom_site_label_2
_geom_bond_distance
_geom_bond_site_symmetry_2
_ccdc_geom_bond_type
Sc0 O3 2.025 . S
Sc0 O10 2.105 1_554 S
Sc0 O13 2.105 . S
Sc0 O16 2.105 . S
Sc0 O19 2.105 1_554 S
Sc1 O3 2.025 . S
Sc1 O11 2.105 1_554 S
Sc1 O15 2.105 . S
Sc1 O17 2.105 . S
Sc1 O21 2.105 1_554 S
Sc2 O3 2.025 . S
Sc2 O12 2.105 1_554 S
Sc2 O14 2.105 . S
Sc2 O18 2.105 . S
Sc2 O20 2.105 1_554 S
O3 Sc0 2.025 . S
O3 Sc1 2.025 . S
O3 Sc2 2.025 . S
C4 O10 1.268 . S
C4 O20 1.268 . S
C5 O11 1.268 . S
C5 O19 1.268 . S
C6 O12 1.268 . S
C6 O21 1.268 . S
C7 O13 1.268 . S
C7 O17 1.268 . S
C8 O14 1.268 . S
C8 O16 1.268 . S
C9 O15 1.268 . S
C9 O18 1.268 . S
O10 Sc0 2.105 1_556 S
O10 C4 1.268 . S
O11 Sc1 2.105 1_556 S
O11 C5 1.268 . S
O12 Sc2 2.105 1_556 S
O12 C6 1.268 . S
O13 Sc0 2.105 . S
O13 C7 1.268 . S
O14 Sc2 2.105 . S
O14 C8 1.268 . S
O15 Sc1 2.105 . S
O15 C9 1.268 . S
O16 Sc0 2.105 . S
O16 C8 1.268 . S
O17 Sc1 2.105 . S
O17 C7 1.268 . S
O18 Sc2 2.105 . S
O18 C9 1.268 . S
O19 Sc0 2.105 1_556 S
O19 C5 1.268 . S
O20 Sc2 2.105 1_556 S
O20 C4 1.268 . S
O21 Sc1 2.105 1_556 S
O21 C6 1.268 . S
Sc22 O25 2.025 . S
Sc22 O32 2.105 . S
Sc22 O35 2.105 . S
Sc22 O38 2.105 . S
Sc22 O41 2.105 . S
Sc23 O25 2.025 . S
Sc23 O33 2.105 . S
Sc23 O37 2.105 . S
Sc23 O39 2.105 . S
Sc23 O43 2.105 . S
Sc24 O25 2.025 . S
Sc24 O34 2.105 . S
Sc24 O36 2.105 . S
Sc24 O40 2.105 . S
Sc24 O42 2.105 . S
O25 Sc22 2.025 . S
O25 Sc23 2.025 . S
O25 Sc24 2.025 . S
C26 O32 1.268 . S
C26 O42 1.268 . S
C27 O33 1.268 . S
C27 O41 1.268 . S
C28 O34 1.268 . S
C28 O43 1.268 . S
C29 O35 1.268 . S
C29 O39 1.268 . S
C30 O36 1.268 . S
C30 O38 1.268 . S
C31 O37 1.268 . S
C31 O40 1.268 . S
O32 Sc22 2.105 . S
O32 C26 1.268 . S
O33 Sc23 2.105 . S
O33 C27 1.268 . S
O34 Sc24 2.105 . S
O34 C28 1.268 . S
O35 Sc22 2.105 . S
O35 C29 1.268 . S
O36 Sc24 2.105 . S
O36 C30 1.268 . S
O37 Sc23 2.105 . S
O37 C31 1.268 . S
O38 Sc22 2.105 . S
O38 C30 1.268 . S
O39 Sc23 2.105 . S
O39 C29 1.268 . S
O40 Sc24 2.105 . S
O40 C31 1.268 . S
O41 Sc22 2.105 . S
O41 C27 1.268 . S
O42 Sc24 2.105 . S
O42 C26 1.268 . S
O43 Sc23 2.105 . S
O43 C28 1.268 . S
Sc44 O47 2.025 . S
Sc44 O54 2.105 1_554 S
Sc44 O57 2.105 . S
Sc44 O60 2.105 . S
Sc44 O63 2.105 1_554 S
Sc45 O47 2.025 1_556 S
Sc45 O55 2.105 . S
Sc45 O59 2.105 1_556 S
Sc45 O61 2.105 1_556 S
Sc45 O65 2.105 . S
Sc46 O47 2.025 . S
Sc46 O56 2.105 1_554 S
Sc46 O58 2.105 . S
Sc46 O62 2.105 . S
Sc46 O64 2.105 1_554 S
O47 Sc44 2.025 . S
O47 Sc45 2.025 1_554 S
O47 Sc46 2.025 . S
C48 O54 1.268 . S
C48 O64 1.268 . S
C49 O55 1.268 . S
C49 O63 1.268 . S
C50 O56 1.268 . S
C50 O65 1.268 . S
C51 O57 1.268 . S
C51 O61 1.268 . S
C52 O58 1.268 . S
C52 O60 1.268 . S
C53 O59 1.268 . S
C53 O62 1.268 . S
O54 Sc44 2.105 1_556 S
O54 C48 1.268 . S
O55 Sc45 2.105 . S
O55 C49 1.268 . S
O56 Sc46 2.105 1_556 S
O56 C50 1.268 . S
O57 Sc44 2.105 . S
O57 C51 1.268 . S
O58 Sc46 2.105 . S
O58 C52 1.268 . S
O59 Sc45 2.105 1_554 S
O59 C53 1.268 . S
O60 Sc44 2.105 . S
O60 C52 1.268 . S
O61 Sc45 2.105 1_554 S
O61 C51 1.268 . S
O62 Sc46 2.105 . S
O62 C53 1.268 . S
O63 Sc44 2.105 1_556 S
O63 C49 1.268 . S
O64 Sc46 2.105 1_556 S
O64 C48 1.268 . S
O65 Sc45 2.105 . S
O65 C50 1.268 . S
Sc66 O69 2.025 . S
Sc66 O76 2.105 . S
Sc66 O79 2.105 . S
Sc66 O82 2.105 . S
Sc66 O85 2.105 . S
Sc67 O69 2.025 . S
Sc67 O77 2.105 . S
Sc67 O81 2.105 . S
Sc67 O83 2.105 . S
Sc67 O87 2.105 . S
Sc68 O69 2.025 . S
Sc68 O78 2.105 . S
Sc68 O80 2.105 . S
Sc68 O84 2.105 . S
Sc68 O86 2.105 . S
O69 Sc66 2.025 . S
O69 Sc67 2.025 . S
O69 Sc68 2.025 . S
C70 O76 1.268 . S
C70 O86 1.268 . S
C71 O77 1.268 . S
C71 O85 1.268 . S
C72 O78 1.268 . S
C72 O87 1.268 . S
C73 O79 1.268 . S
C73 O83 1.268 . S
C74 O80 1.268 . S
C74 O82 1.268 . S
C75 O81 1.268 . S
C75 O84 1.268 . S
O76 Sc66 2.105 . S
O76 C70 1.268 . S
O77 Sc67 2.105 . S
O77 C71 1.268 . S
O78 Sc68 2.105 . S
O78 C72 1.268 . S
O79 Sc66 2.105 . S
O79 C73 1.268 . S
O80 Sc68 2.105 . S
O80 C74 1.268 . S
O81 Sc67 2.105 . S
O81 C75 1.268 . S
O82 Sc66 2.105 . S
O82 C74 1.268 . S
O83 Sc67 2.105 . S
O83 C73 1.268 . S
O84 Sc68 2.105 . S
O84 C75 1.268 . S
O85 Sc66 2.105 . S
O85 C71 1.268 . S
O86 Sc68 2.105 . S
O86 C70 1.268 . S
O87 Sc67 2.105 . S
O87 C72 1.268 . S
C88 N89 1.317 . S
C88 N90 1.348 . S
C88 C91 1.485 . S
N89 C88 1.317 . S
N89 N93 1.370 . S
N90 C88 1.348 . S
N90 C92 1.346 . S
C91 C88 1.485 . S
C91 H95 0.960 . S
C91 H96 0.961 . S
C91 H97 0.960 . S
C92 N90 1.346 . S
C92 N93 1.307 . S
C92 C94 1.486 . S
N93 N89 1.370 . S
N93 C92 1.307 . S
C94 C92 1.486 . S
C94 H98 0.960 . S
C94 H99 0.960 . S
C94 H100 0.959 . S
H95 C91 0.960 . S
H96 C91 0.961 . S
H97 C91 0.960 . S
H98 C94 0.960 . S
H99 C94 0.960 . S
H100 C94 0.959 . S
C101 N102 1.317 . S
C101 N103 1.348 . S
C101 C104 1.485 . S
N102 C101 1.317 . S
N102 N106 1.370 . S
N103 C101 1.348 . S
N103 C105 1.346 . S
C104 C101 1.485 . S
C104 H108 0.960 . S
C104 H109 0.961 . S
C104 H110 0.960 . S
C105 N103 1.346 . S
C105 N106 1.307 . S
C105 C107 1.486 . S
N106 N102 1.370 . S
N106 C105 1.307 . S
C107 C105 1.486 . S
C107 H111 0.960 . S
C107 H112 0.960 . S
C107 H113 0.959 . S
H108 C104 0.960 . S
H109 C104 0.961 . S
H110 C104 0.960 . S
H111 C107 0.960 . S
H112 C107 0.960 . S
H113 C107 0.959 . S
C114 N115 1.317 . S
C114 N116 1.348 . S
C114 C117 1.485 . S
N115 C114 1.317 . S
N115 N119 1.370 . S
N116 C114 1.348 . S
N116 C118 1.346 . S
C117 C114 1.485 . S
C117 H121 0.960 . S
C117 H122 0.961 . S
C117 H123 0.960 . S
C118 N116 1.346 . S
C118 N119 1.307 . S
C118 C120 1.486 . S
N119 N115 1.370 . S
N119 C118 1.307 . S
C120 C118 1.486 . S
C120 H124 0.960 . S
C120 H125 0.960 . S
C120 H126 0.959 . S
H121 C117 0.960 . S
H122 C117 0.961 . S
H123 C117 0.960 . S
H124 C120 0.960 . S
H125 C120 0.960 . S
H126 C120 0.959 . S
C127 N128 1.317 . S
C127 N129 1.348 . S
C127 C130 1.485 . S
N128 C127 1.317 . S
N128 N132 1.370 . S
N129 C127 1.348 . S
N129 C131 1.346 . S
C130 C127 1.485 . S
C130 H134 0.960 . S
C130 H135 0.961 . S
C130 H136 0.960 . S
C131 N129 1.346 . S
C131 N132 1.307 . S
C131 C133 1.486 . S
N132 N128 1.370 . S
N132 C131 1.307 . S
C133 C131 1.486 . S
C133 H137 0.960 . S
C133 H138 0.960 . S
C133 H139 0.959 . S
H134 C130 0.960 . S
H135 C130 0.961 . S
H136 C130 0.960 . S
H137 C133 0.960 . S
H138 C133 0.960 . S
H139 C133 0.959 . S
C140 N141 1.317 . S
C140 N142 1.348 . S
C140 C143 1.485 . S
N141 C140 1.317 . S
N141 N145 1.370 . S
N142 C140 1.348 . S
N142 C144 1.346 . S
C143 C140 1.485 . S
C143 H147 0.960 . S
C143 H148 0.961 . S
C143 H149 0.960 . S
C144 N142 1.346 . S
C144 N145 1.307 . S
C144 C146 1.486 . S
N145 N141 1.370 . S
N145 C144 1.307 . S
C146 C144 1.486 . S
C146 H150 0.960 . S
C146 H151 0.960 . S
C146 H152 0.959 . S
H147 C143 0.960 . S
H148 C143 0.961 . S
H149 C143 0.960 . S
H150 C146 0.960 . S
H151 C146 0.960 . S
H152 C146 0.959 . S
C153 N154 1.317 . S
C153 N155 1.348 . S
C153 C156 1.485 . S
N154 C153 1.317 . S
N154 N158 1.370 . S
N155 C153 1.348 . S
N155 C157 1.346 . S
C156 C153 1.485 . S
C156 H160 0.960 . S
C156 H161 0.961 . S
C156 H162 0.960 . S
C157 N155 1.346 . S
C157 N158 1.307 . S
C157 C159 1.486 . S
N158 N154 1.370 . S
N158 C157 1.307 . S
C159 C157 1.486 . S
C159 H163 0.960 . S
C159 H164 0.960 . S
C159 H165 0.959 . S
H160 C156 0.960 . S
H161 C156 0.961 . S
H162 C156 0.960 . S
H163 C159 0.960 . S
H164 C159 0.960 . S
H165 C159 0.959 . S
C166 N167 1.317 . S
C166 N168 1.348 . S
C166 C169 1.485 . S
N167 C166 1.317 . S
N167 N171 1.370 . S
N168 C166 1.348 . S
N168 C170 1.346 . S
C169 C166 1.485 . S
C169 H173 0.960 . S
C169 H174 0.961 . S
C169 H175 0.960 . S
C170 N168 1.346 . S
C170 N171 1.307 . S
C170 C172 1.486 . S
N171 N167 1.370 . S
N171 C170 1.307 . S
C172 C170 1.486 . S
C172 H176 0.960 . S
C172 H177 0.960 . S
C172 H178 0.959 . S
H173 C169 0.960 . S
H174 C169 0.961 . S
H175 C169 0.960 . S
H176 C172 0.960 . S
H177 C172 0.960 . S
H178 C172 0.959 . S
C179 N180 1.317 . S
C179 N181 1.348 . S
C179 C182 1.485 . S
N180 C179 1.317 . S
N180 N184 1.370 . S
N181 C179 1.348 . S
N181 C183 1.346 . S
C182 C179 1.485 . S
C182 H186 0.960 . S
C182 H187 0.961 . S
C182 H188 0.960 . S
C183 N181 1.346 . S
C183 N184 1.307 . S
C183 C185 1.486 . S
N184 N180 1.370 . S
N184 C183 1.307 . S
C185 C183 1.486 . S
C185 H189 0.960 . S
C185 H190 0.960 . S
C185 H191 0.959 . S
H186 C182 0.960 . S
H187 C182 0.961 . S
H188 C182 0.960 . S
H189 C185 0.960 . S
H190 C185 0.960 . S
H191 C185 0.959 . S
C192 C193 1.387 1_545 S
C192 H196 0.954 . S
C192 C201 1.390 . S
C193 C192 1.387 1_565 S
C193 C195 1.387 1_565 S
H194 C201 0.950 . S
C195 C193 1.387 1_545 S
C195 C197 1.390 . S
C195 H199 0.950 . S
H196 C192 0.954 . S
C197 C195 1.390 . S
C197 C198 1.387 . S
C197 H200 0.950 . S
C198 C197 1.387 . S
C198 C201 1.387 . S
H199 C195 0.950 . S
H200 C197 0.950 . S
C201 C192 1.390 . S
C201 H194 0.950 . S
C201 C198 1.387 . S
C202 C203 1.387 . S
C202 H206 0.950 . S
C202 C211 1.390 . S
C203 C202 1.387 . S
C203 C205 1.387 . S
H204 C211 0.950 . S
C205 C203 1.387 . S
C205 C207 1.390 . S
C205 H209 0.950 . S
H206 C202 0.950 . S
C207 C205 1.390 . S
C207 C208 1.387 . S
C207 H210 0.950 . S
C208 C207 1.387 . S
C208 C211 1.387 . S
H209 C205 0.950 . S
H210 C207 0.950 . S
C211 C202 1.390 . S
C211 H204 0.950 . S
C211 C208 1.387 . S
C212 C213 1.392 . S
C212 H216 0.950 1_565 S
C212 C221 1.390 . S
C213 C212 1.392 . S
C213 C215 1.399 . S
H214 C221 0.950 . S
C215 C213 1.399 . S
C215 C217 1.390 . S
C215 H219 0.950 . S
H216 C212 0.950 1_545 S
C217 C215 1.390 . S
C217 C218 1.387 . S
C217 H220 0.950 . S
C218 C217 1.387 . S
C218 C221 1.387 . S
H219 C215 0.950 . S
H220 C217 0.950 . S
C221 C212 1.390 . S
C221 H214 0.950 . S
C221 C218 1.387 . S
C222 C223 1.387 . S
C222 H226 0.950 . S
C222 C231 1.390 . S
C223 C222 1.387 . S
C223 C225 1.387 . S
H224 C231 0.950 . S
C225 C223 1.387 . S
C225 C227 1.390 . S
C225 H229 0.950 . S
H226 C222 0.950 . S
C227 C225 1.390 . S
C227 C228 1.387 . S
C227 H230 0.950 . S
C228 C227 1.387 . S
C228 C231 1.387 . S
H229 C225 0.950 . S
H230 C227 0.950 . S
C231 C222 1.390 . S
C231 H224 0.950 . S
C231 C228 1.387 . S
C232 C233 1.387 . S
C232 H236 0.950 . S
C232 C241 1.390 . S
C233 C232 1.387 . S
C233 C235 1.387 . S
H234 C241 0.950 . S
C235 C233 1.387 . S
C235 C237 1.390 . S
C235 H239 0.950 . S
H236 C232 0.950 . S
C237 C235 1.390 . S
C237 C238 1.387 . S
C237 H240 0.950 . S
C238 C237 1.387 . S
C238 C241 1.387 . S
H239 C235 0.950 . S
H240 C237 0.950 . S
C241 C232 1.390 . S
C241 H234 0.950 . S
C241 C238 1.387 . S
C242 C243 1.387 . S
C242 H246 0.950 . S
C242 C251 1.390 . S
C243 C242 1.387 . S
C243 C245 1.387 . S
H244 C251 0.950 . S
C245 C243 1.387 . S
C245 C247 1.390 . S
C245 H249 0.950 . S
H246 C242 0.950 . S
C247 C245 1.390 . S
C247 C248 1.387 . S
C247 H250 0.950 . S
C248 C247 1.387 . S
C248 C251 1.387 . S
H249 C245 0.950 . S
H250 C247 0.950 . S
C251 C242 1.390 . S
C251 H244 0.950 . S
C251 C248 1.387 . S
C252 C253 1.387 . S
C252 H256 0.950 . S
C252 C261 1.390 . S
C253 C252 1.387 . S
C253 C255 1.387 . S
H254 C261 0.950 . S
C255 C253 1.387 . S
C255 C257 1.390 . S
C255 H259 0.950 . S
H256 C252 0.950 . S
C257 C255 1.390 . S
C257 C258 1.387 . S
C257 H260 0.950 . S
C258 C257 1.387 . S
C258 C261 1.387 . S
H259 C255 0.950 . S
H260 C257 0.950 . S
C261 C252 1.390 . S
C261 H254 0.950 . S
C261 C258 1.387 . S
C262 C263 1.387 . S
C262 H266 0.950 . S
C262 C271 1.390 1_455 S
C263 C262 1.387 . S
C263 C265 1.387 . S
H264 C271 0.950 . S
C265 C263 1.387 . S
C265 C267 1.390 1_455 S
C265 H269 0.950 . S
H266 C262 0.950 . S
C267 C265 1.390 1_655 S
C267 C268 1.387 . S
C267 H270 0.950 . S
C268 C267 1.387 . S
C268 C271 1.387 . S
H269 C265 0.950 . S
H270 C267 0.950 . S
C271 C262 1.390 1_655 S
C271 H264 0.950 . S
C271 C268 1.387 . S
C272 C273 1.387 . S
C272 H276 0.950 . S
C272 C281 1.390 1_545 S
C273 C272 1.387 . S
C273 C275 1.387 1_545 S
H274 C281 0.950 . S
C275 C273 1.387 1_565 S
C275 C277 1.390 . S
C275 H279 0.950 . S
H276 C272 0.950 . S
C277 C275 1.390 . S
C277 C278 1.387 . S
C277 H280 0.950 . S
C278 C277 1.387 . S
C278 C281 1.387 . S
H279 C275 0.950 . S
H280 C277 0.950 . S
C281 C272 1.390 1_565 S
C281 H274 0.950 . S
C281 C278 1.387 . S
C282 C283 1.387 . S
C282 H286 0.950 . S
C282 C291 1.390 . S
C283 C282 1.387 . S
C283 C285 1.387 . S
H284 C291 0.950 . S
C285 C283 1.387 . S
C285 C287 1.390 . S
C285 H289 0.950 . S
H286 C282 0.950 . S
C287 C285 1.390 . S
C287 C288 1.387 . S
C287 H290 0.950 . S
C288 C287 1.387 . S
C288 C291 1.387 . S
H289 C285 0.950 . S
H290 C287 0.950 . S
C291 C282 1.390 . S
C291 H284 0.950 . S
C291 C288 1.387 . S
C292 C293 1.387 . S
C292 H296 0.950 1_545 S
C292 C301 1.390 . S
C293 C292 1.387 . S
C293 C295 1.387 . S
H294 C301 0.950 . S
C295 C293 1.387 . S
C295 C297 1.390 . S
C295 H299 0.950 . S
H296 C292 0.950 1_565 S
C297 C295 1.390 . S
C297 C298 1.387 . S
C297 H300 0.950 . S
C298 C297 1.387 . S
C298 C301 1.387 . S
H299 C295 0.950 . S
H300 C297 0.950 . S
C301 C292 1.390 . S
C301 H294 0.950 . S
C301 C298 1.387 . S
C302 C303 1.387 . S
C302 H306 0.950 . S
C302 C311 1.390 . S
C303 C302 1.387 . S
C303 C305 1.387 . S
H304 C311 0.950 . S
C305 C303 1.387 . S
C305 C307 1.390 . S
C305 H309 0.950 . S
H306 C302 0.950 . S
C307 C305 1.390 . S
C307 C308 1.387 . S
C307 H310 0.950 . S
C308 C307 1.387 . S
C308 C311 1.387 . S
H309 C305 0.950 . S
H310 C307 0.950 . S
C311 C302 1.390 . S
C311 H304 0.950 . S
C311 C308 1.387 . S
C312 C313 1.387 . S
C312 H316 0.950 . S
C312 C321 1.390 . S
C313 C312 1.387 . S
C313 C315 1.387 . S
H314 C321 0.950 . S
C315 C313 1.387 . S
C315 C317 1.390 . S
C315 H319 0.950 . S
H316 C312 0.950 . S
C317 C315 1.390 . S
C317 C318 1.387 . S
C317 H320 0.950 . S
C318 C317 1.387 . S
C318 C321 1.387 . S
H319 C315 0.950 . S
H320 C317 0.950 . S
C321 C312 1.390 . S
C321 H314 0.950 . S
C321 C318 1.387 . S
C322 C323 1.387 . S
C322 H326 0.950 . S
C322 C331 1.390 . S
C323 C322 1.387 . S
C323 C325 1.387 . S
H324 C331 0.950 . S
C325 C323 1.387 . S
C325 C327 1.390 . S
C325 H329 0.950 . S
H326 C322 0.950 . S
C327 C325 1.390 . S
C327 C328 1.387 . S
C327 H330 0.950 . S
C328 C327 1.387 . S
C328 C331 1.387 . S
H329 C325 0.950 . S
H330 C327 0.950 . S
C331 C322 1.390 . S
C331 H324 0.950 . S
C331 C328 1.387 . S
C332 C333 1.387 . S
C332 H336 0.950 . S
C332 C341 1.390 . S
C333 C332 1.387 . S
C333 C335 1.387 . S
H334 C341 0.950 . S
C335 C333 1.387 . S
C335 C337 1.390 . S
C335 H339 0.950 . S
H336 C332 0.950 . S
C337 C335 1.390 . S
C337 C338 1.387 . S
C337 H340 0.950 . S
C338 C337 1.387 . S
C338 C341 1.387 . S
H339 C335 0.950 . S
H340 C337 0.950 . S
C341 C332 1.390 . S
C341 H334 0.950 . S
C341 C338 1.387 . S
C342 C343 1.387 1_455 S
C342 H346 0.950 1_455 S
C342 C351 1.390 . S
C343 C342 1.387 1_655 S
C343 C345 1.387 . S
H344 C351 0.950 . S
C345 C343 1.387 . S
C345 C347 1.390 1_655 S
C345 H349 0.950 . S
H346 C342 0.950 1_655 S
C347 C345 1.390 1_455 S
C347 C348 1.387 . S
C347 H350 0.950 . S
C348 C347 1.387 . S
C348 C351 1.387 . S
H349 C345 0.950 . S
H350 C347 0.950 . S
C351 C342 1.390 . S
C351 H344 0.950 . S
C351 C348 1.387 . S
C352 C353 1.387 . S
C352 H356 0.950 . S
C352 C361 1.390 . S
C353 C352 1.387 . S
C353 C355 1.387 . S
H354 C361 0.950 . S
C355 C353 1.387 . S
C355 C357 1.390 . S
C355 H359 0.950 . S
H356 C352 0.950 . S
C357 C355 1.390 . S
C357 C358 1.387 . S
C357 H360 0.950 . S
C358 C357 1.387 . S
C358 C361 1.387 . S
H359 C355 0.950 . S
H360 C357 0.950 . S
C361 C352 1.390 . S
C361 H354 0.950 . S
C361 C358 1.387 . S
C362 C363 1.387 . S
C362 H366 0.950 . S
C362 C371 1.390 . S
C363 C362 1.387 . S
C363 C365 1.387 . S
H364 C371 0.950 . S
C365 C363 1.387 . S
C365 C367 1.390 . S
C365 H369 0.950 . S
H366 C362 0.950 . S
C367 C365 1.390 . S
C367 C368 1.387 . S
C367 H370 0.950 . S
C368 C367 1.387 . S
C368 C371 1.387 . S
H369 C365 0.950 . S
H370 C367 0.950 . S
C371 C362 1.390 . S
C371 H364 0.950 . S
C371 C368 1.387 . S
C372 C373 1.387 . S
C372 H376 0.950 . S
C372 C381 1.390 . S
C373 C372 1.387 . S
C373 C375 1.387 . S
H374 C381 0.950 . S
C375 C373 1.387 . S
C375 C377 1.390 . S
C375 H379 0.950 . S
H376 C372 0.950 . S
C377 C375 1.390 . S
C377 C378 1.387 . S
C377 H380 0.950 . S
C378 C377 1.387 . S
C378 C381 1.387 . S
H379 C375 0.950 . S
H380 C377 0.950 . S
C381 C372 1.390 . S
C381 H374 0.950 . S
C381 C378 1.387 . S
C382 C383 1.387 . S
C382 H386 0.950 . S
C382 C391 1.390 . S
C383 C382 1.387 . S
C383 C385 1.387 . S
H384 C391 0.950 . S
C385 C383 1.387 . S
C385 C387 1.390 . S
C385 H389 0.950 . S
H386 C382 0.950 . S
C387 C385 1.390 . S
C387 C388 1.387 . S
C387 H390 0.950 . S
C388 C387 1.387 . S
C388 C391 1.387 . S
H389 C385 0.950 . S
H390 C387 0.950 . S
C391 C382 1.390 . S
C391 H384 0.950 . S
C391 C388 1.387 . S
C392 C393 1.387 . S
C392 H396 0.950 . S
C392 C401 1.390 . S
C393 C392 1.387 . S
C393 C395 1.387 . S
H394 C401 0.950 . S
C395 C393 1.387 . S
C395 C397 1.390 . S
C395 H399 0.950 . S
H396 C392 0.950 . S
C397 C395 1.390 . S
C397 C398 1.387 . S
C397 H400 0.950 . S
C398 C397 1.387 . S
C398 C401 1.387 . S
H399 C395 0.950 . S
H400 C397 0.950 . S
C401 C392 1.390 . S
C401 H394 0.950 . S
C401 C398 1.387 . S
C402 C403 1.387 . S
C402 H406 0.950 . S
C402 C411 1.390 . S
C403 C402 1.387 . S
C403 C405 1.387 . S
H404 C411 0.950 . S
C405 C403 1.387 . S
C405 C407 1.390 . S
C405 H409 0.950 . S
H406 C402 0.950 . S
C407 C405 1.390 . S
C407 C408 1.387 . S
C407 H410 0.950 . S
C408 C407 1.387 . S
C408 C411 1.387 . S
H409 C405 0.950 . S
H410 C407 0.950 . S
C411 C402 1.390 . S
C411 H404 0.950 . S
C411 C408 1.387 . S
C412 C413 1.387 . S
C412 H416 0.950 . S
C412 C421 1.390 . S
C413 C412 1.387 . S
C413 C415 1.387 . S
H414 C421 0.950 . S
C415 C413 1.387 . S
C415 C417 1.390 . S
C415 H419 0.950 . S
H416 C412 0.950 . S
C417 C415 1.390 . S
C417 C418 1.387 . S
C417 H420 0.950 . S
C418 C417 1.387 . S
C418 C421 1.387 . S
H419 C415 0.950 . S
H420 C417 0.950 . S
C421 C412 1.390 . S
C421 H414 0.950 . S
C421 C418 1.387 . S
C422 C423 1.387 . S
C422 H426 0.950 . S
C422 C431 1.390 . S
C423 C422 1.387 . S
C423 C425 1.387 . S
H424 C431 0.950 . S
C425 C423 1.387 . S
C425 C427 1.390 . S
C425 H429 0.950 . S
H426 C422 0.950 . S
C427 C425 1.390 . S
C427 C428 1.387 . S
C427 H430 0.950 . S
C428 C427 1.387 . S
C428 C431 1.387 . S
H429 C425 0.950 . S
H430 C427 0.950 . S
C431 C422 1.390 . S
C431 H424 0.950 . S
C431 C428 1.387 . S
C193 C8 1.401 . S
C198 N93 1.419 . S
C203 C31 1.355 . S
C208 N106 1.373 . S
C213 C53 1.354 1_565 S
C218 N115 1.397 . S
C228 N132 1.419 . S
C223 C74 1.387 . S
C238 N145 1.419 . S
C233 C26 1.400 . S
C243 C48 1.384 1_455 S
C248 N154 1.422 . S
C253 C71 1.366 . S
C258 N167 1.396 . S
C263 C5 1.359 . S
C268 N184 1.373 . S
C273 C50 1.401 . S
C278 N180 1.421 . S
C288 N141 1.372 . S
C283 C70 1.354 . S
C298 N158 1.397 . S
C293 C4 1.367 1_545 S
C303 C28 1.388 . S
C308 N171 1.421 . S
C318 N102 1.420 . S
C313 C73 1.400 . S
C323 C7 1.387 1_655 S
C328 N119 1.423 . S
C338 N128 1.385 . S
C333 C30 1.363 . S
C348 N89 1.376 . S
C343 C52 1.354 . S
C358 N168 1.425 . S
C353 C9 1.426 . S
C368 N181 1.415 . S
C363 C29 1.402 . S
C373 C51 1.400 . S
C378 N142 1.414 . S
C388 N155 1.423 . S
C383 C75 1.429 . S
C398 N116 1.426 . S
C393 C27 1.429 . S
C403 C49 1.425 . S
C408 N129 1.415 . S
C418 N90 1.417 . S
C413 C72 1.402 . S
C428 N103 1.414 . S
C423 C6 1.401 . S
