# Generated by pormake.
# Topology hwx, (6,3)-cn, num edge types: 1
# Building blocks:
#     Node 0, Type 0, BuildingBlock: IZENUY_clean_sbu_0, # of connection points: 6
#     Node 1, Type 0, BuildingBlock: IZENUY_clean_sbu_0, # of connection points: 6
#     Node 2, Type 0, BuildingBlock: IZENUY_clean_sbu_0, # of connection points: 6
#     Node 3, Type 0, BuildingBlock: IZENUY_clean_sbu_0, # of connection points: 6
#     Node 4, Type 1, BuildingBlock: ESEHIV_clean_linker_0, # of connection points: 3
#     Node 5, Type 1, BuildingBlock: ESEHIV_clean_linker_0, # of connection points: 3
#     Node 6, Type 1, BuildingBlock: ESEHIV_clean_linker_0, # of connection points: 3
#     Node 7, Type 1, BuildingBlock: ESEHIV_clean_linker_0, # of connection points: 3
#     Node 8, Type 1, BuildingBlock: ESEHIV_clean_linker_0, # of connection points: 3
#     Node 9, Type 1, BuildingBlock: ESEHIV_clean_linker_0, # of connection points: 3
#     Node 10, Type 1, BuildingBlock: ESEHIV_clean_linker_0, # of connection points: 3
#     Node 11, Type 1, BuildingBlock: ESEHIV_clean_linker_0, # of connection points: 3
#     Edge 12, Type (0, 1), BuildingBlock: EZIPEK_clean_linker_0, # of connection points: 2
#     Edge 13, Type (0, 1), BuildingBlock: EZIPEK_clean_linker_0, # of connection points: 2
#     Edge 14, Type (0, 1), BuildingBlock: EZIPEK_clean_linker_0, # of connection points: 2
#     Edge 15, Type (0, 1), BuildingBlock: EZIPEK_clean_linker_0, # of connection points: 2
#     Edge 16, Type (0, 1), BuildingBlock: EZIPEK_clean_linker_0, # of connection points: 2
#     Edge 17, Type (0, 1), BuildingBlock: EZIPEK_clean_linker_0, # of connection points: 2
#     Edge 18, Type (0, 1), BuildingBlock: EZIPEK_clean_linker_0, # of connection points: 2
#     Edge 19, Type (0, 1), BuildingBlock: EZIPEK_clean_linker_0, # of connection points: 2
#     Edge 20, Type (0, 1), BuildingBlock: EZIPEK_clean_linker_0, # of connection points: 2
#     Edge 21, Type (0, 1), BuildingBlock: EZIPEK_clean_linker_0, # of connection points: 2
#     Edge 22, Type (0, 1), BuildingBlock: EZIPEK_clean_linker_0, # of connection points: 2
#     Edge 23, Type (0, 1), BuildingBlock: EZIPEK_clean_linker_0, # of connection points: 2
#     Edge 24, Type (0, 1), BuildingBlock: EZIPEK_clean_linker_0, # of connection points: 2
#     Edge 25, Type (0, 1), BuildingBlock: EZIPEK_clean_linker_0, # of connection points: 2
#     Edge 26, Type (0, 1), BuildingBlock: EZIPEK_clean_linker_0, # of connection points: 2
#     Edge 27, Type (0, 1), BuildingBlock: EZIPEK_clean_linker_0, # of connection points: 2
#     Edge 28, Type (0, 1), BuildingBlock: EZIPEK_clean_linker_0, # of connection points: 2
#     Edge 29, Type (0, 1), BuildingBlock: EZIPEK_clean_linker_0, # of connection points: 2
#     Edge 30, Type (0, 1), BuildingBlock: EZIPEK_clean_linker_0, # of connection points: 2
#     Edge 31, Type (0, 1), BuildingBlock: EZIPEK_clean_linker_0, # of connection points: 2
#     Edge 32, Type (0, 1), BuildingBlock: EZIPEK_clean_linker_0, # of connection points: 2
#     Edge 33, Type (0, 1), BuildingBlock: EZIPEK_clean_linker_0, # of connection points: 2
#     Edge 34, Type (0, 1), BuildingBlock: EZIPEK_clean_linker_0, # of connection points: 2
#     Edge 35, Type (0, 1), BuildingBlock: EZIPEK_clean_linker_0, # of connection points: 2
# Relax obj value: 0.051
# Max RMSD: 0.076
# Mean RMSD: 0.067
data_MOF--net-hwx--node1-IZENUY_clean_sbu_0--node2-ESEHIV_clean_linker_0--edge1-EZIPEK_clean_linker_0
_symmetry_space_group_name_H-M    P1
_symmetry_Int_Tables_number       1
_symmetry_cell_setting            triclinic
loop_
_symmetry_equiv_pos_as_xyz
'x, y, z'
_cell_length_a     32.203544
_cell_length_b     32.289637
_cell_length_c     15.599434
_cell_angle_alpha  90.000946
_cell_angle_beta   90.03499
_cell_angle_gamma 90.010629
loop_
_atom_site_label
_atom_site_type_symbol
_atom_site_fract_x
_atom_site_fract_y
_atom_site_fract_z
_atom_type_partial_charge
Fe0 Fe 0.23693 0.21899 0.09977 0.0
Fe1 Fe 0.23129 0.21832 0.90341 0.0
O2 O 0.2176 0.19687 0.00389 0.0
Fe3 Fe 0.18401 0.15329 0.00925 0.0
O4 O 0.16074 0.16749 0.11366 0.0
O5 O 0.18482 0.22987 0.13674 0.0
O6 O 0.23819 0.27227 0.05947 0.0
C7 C 0.22005 0.28903 0.99673 0.0
C8 C 0.24002 0.13228 0.13167 0.0
O9 O 0.21037 0.26857 0.9312 0.0
C10 C 0.23325 0.13631 0.86225 0.0
O11 O 0.29034 0.21016 0.06883 0.0
O12 O 0.28417 0.23304 0.93629 0.0
O13 O 0.22398 0.12244 0.06077 0.0
O14 O 0.23934 0.16941 0.15799 0.0
C15 C 0.14551 0.19852 0.88515 0.0
O16 O 0.25314 0.16976 0.86692 0.0
O17 O 0.20074 0.13065 0.90634 0.0
C18 C 0.30634 0.22291 1.00008 0.0
O19 O 0.18076 0.20742 0.8539 0.0
O20 O 0.14212 0.18153 0.95765 0.0
C21 C 0.15853 0.20204 0.15198 0.0
Fe22 Fe 0.25905 0.71988 0.60033 0.0
Fe23 Fe 0.31016 0.65582 0.50199 0.0
O24 O 0.27636 0.69916 0.50224 0.0
Fe25 Fe 0.25992 0.72126 0.40466 0.0
O26 O 0.25775 0.77447 0.44606 0.0
O27 O 0.2817 0.76994 0.57792 0.0
O28 O 0.30743 0.70766 0.65851 0.0
C29 C 0.34391 0.70056 0.6314 0.0
C30 C 0.18767 0.72481 0.49475 0.0
O31 O 0.34998 0.68452 0.55876 0.0
C32 C 0.25832 0.63437 0.37261 0.0
O33 O 0.23489 0.67114 0.62772 0.0
O34 O 0.29003 0.6337 0.60335 0.0
O35 O 0.20563 0.71216 0.42813 0.0
O36 O 0.20804 0.73602 0.56 0.0
C37 C 0.33942 0.70447 0.36197 0.0
O38 O 0.2722 0.62466 0.44546 0.0
O39 O 0.25937 0.67155 0.34625 0.0
C40 C 0.25543 0.63874 0.64079 0.0
O41 O 0.33654 0.66996 0.40041 0.0
O42 O 0.31297 0.73228 0.37528 0.0
C43 C 0.27446 0.79071 0.51135 0.0
Fe44 Fe 0.7632 0.79048 0.91832 0.0
Fe45 Fe 0.75859 0.78807 0.11487 0.0
O46 O 0.77791 0.81058 0.01944 0.0
Fe47 Fe 0.81269 0.85321 0.02579 0.0
O48 O 0.79642 0.877 0.9236 0.0
O49 O 0.74252 0.83999 0.8842 0.0
O50 O 0.71013 0.77673 0.95155 0.0
C51 C 0.68857 0.78607 0.01669 0.0
C52 C 0.84954 0.80748 0.90029 0.0
O53 O 0.70521 0.79809 0.08537 0.0
C54 C 0.83731 0.80308 0.16697 0.0
O55 O 0.78277 0.73942 0.94345 0.0
O56 O 0.75625 0.73497 0.07275 0.0
O57 O 0.85361 0.82402 0.97312 0.0
O58 O 0.81393 0.80039 0.8686 0.0
C59 C 0.7578 0.87487 0.14972 0.0
O60 O 0.8106 0.77585 0.15057 0.0
O61 O 0.83578 0.83786 0.1296 0.0
C62 C 0.77317 0.71844 0.00827 0.0
O63 O 0.75736 0.83744 0.17464 0.0
O64 O 0.77373 0.88477 0.07872 0.0
C65 C 0.76362 0.87271 0.87968 0.0
Fe66 Fe 0.6811 0.35231 0.47287 0.0
Fe67 Fe 0.73404 0.29675 0.58895 0.0
O68 O 0.71754 0.31151 0.48494 0.0
Fe69 Fe 0.73709 0.28567 0.39343 0.0
O70 O 0.73706 0.33222 0.32526 0.0
O71 O 0.71756 0.38291 0.41108 0.0
O72 O 0.69852 0.38082 0.56809 0.0
C73 C 0.73301 0.38111 0.60674 0.0
C74 C 0.65732 0.29607 0.34113 0.0
O75 O 0.75457 0.3484 0.60973 0.0
C76 C 0.72338 0.22103 0.51276 0.0
O77 O 0.6422 0.32425 0.53417 0.0
O78 O 0.68433 0.30903 0.64085 0.0
O79 O 0.68544 0.27065 0.35956 0.0
O80 O 0.6571 0.3317 0.37471 0.0
C81 C 0.80772 0.28777 0.4894 0.0
O82 O 0.71454 0.24439 0.57492 0.0
O83 O 0.74027 0.23489 0.44553 0.0
C84 C 0.64807 0.31198 0.61001 0.0
O85 O 0.78657 0.28096 0.55623 0.0
O86 O 0.79043 0.29813 0.42026 0.0
C87 C 0.73471 0.37046 0.34314 0.0
H88 H 0.23117 0.58464 0.01193 0.0
H89 H 0.20389 0.47409 0.86794 0.0
H90 H 0.21251 0.46944 0.14313 0.0
C91 C 0.2231 0.55205 0.00965 0.0
C92 C 0.21975 0.52984 0.08635 0.0
C93 C 0.21712 0.53238 0.9302 0.0
C94 C 0.20773 0.48991 0.92874 0.0
C95 C 0.20728 0.46703 0.00523 0.0
C96 C 0.21221 0.48719 0.08412 0.0
H97 H 0.89965 0.79946 0.54894 0.0
H98 H 0.00045 0.75934 0.38788 0.0
H99 H 0.01609 0.7637 0.6618 0.0
C100 C 0.93135 0.78867 0.5416 0.0
C101 C 0.95574 0.7817 0.61462 0.0
C102 C 0.947 0.78013 0.45942 0.0
C103 C 0.98792 0.76581 0.45098 0.0
C104 C 0.01315 0.76096 0.52356 0.0
C105 C 0.99685 0.76824 0.60552 0.0
H106 H 0.76857 0.42132 0.97069 0.0
H107 H 0.78497 0.53141 0.12207 0.0
H108 H 0.78168 0.53955 0.84698 0.0
C109 C 0.77514 0.45421 0.97456 0.0
C110 C 0.7769 0.47792 0.89938 0.0
C111 C 0.77838 0.47341 0.05491 0.0
C112 C 0.78452 0.51632 0.05996 0.0
C113 C 0.78571 0.54025 0.98506 0.0
C114 C 0.78253 0.5209 0.90477 0.0
H115 H 0.09468 0.20165 0.53133 0.0
H116 H 0.97859 0.2362 0.64638 0.0
H117 H 0.99388 0.24421 0.37263 0.0
C118 C 0.06289 0.21225 0.52452 0.0
C119 C 0.04713 0.2217 0.4428 0.0
C120 C 0.03867 0.21859 0.59793 0.0
C121 C 0.9975 0.23187 0.58961 0.0
C122 C 0.98105 0.24052 0.50824 0.0
C123 C 0.00626 0.23644 0.43525 0.0
H124 H 0.72468 0.92327 0.51125 0.0
H125 H 0.71563 0.03607 0.65642 0.0
H126 H 0.71252 0.03982 0.3807 0.0
C127 C 0.71926 0.9564 0.5135 0.0
C128 C 0.71687 0.97895 0.43686 0.0
C129 C 0.71875 0.97687 0.5929 0.0
C130 C 0.71424 0.02 0.59545 0.0
C131 C 0.71164 0.04275 0.51901 0.0
C132 C 0.71255 0.02213 0.43979 0.0
H133 H 0.59656 0.29612 0.9668 0.0
H134 H 0.49212 0.25329 0.11445 0.0
H135 H 0.48098 0.26868 0.84121 0.0
C136 C 0.56443 0.2862 0.97043 0.0
C137 C 0.54103 0.28279 0.89506 0.0
C138 C 0.54718 0.27531 0.04997 0.0
C139 C 0.50577 0.26184 0.05344 0.0
C140 C 0.48153 0.26057 0.97868 0.0
C141 C 0.49936 0.27057 0.89933 0.0
H142 H 0.27621 0.08747 0.49163 0.0
H143 H 0.29072 0.97018 0.36506 0.0
H144 H 0.28604 0.97585 0.64031 0.0
C145 C 0.28233 0.05448 0.49506 0.0
C146 C 0.28269 0.03458 0.57512 0.0
C147 C 0.28538 0.03137 0.41921 0.0
C148 C 0.29049 0.98833 0.42355 0.0
C149 C 0.29114 0.96835 0.50333 0.0
C150 C 0.28787 0.99158 0.57899 0.0
H151 H 0.40018 0.70536 0.98701 0.0
H152 H 0.5135 0.73975 0.86053 0.0
H153 H 0.50473 0.74709 0.13575 0.0
C154 C 0.4321 0.71595 0.99065 0.0
C155 C 0.4498 0.72514 0.0707 0.0
C156 C 0.45446 0.72245 0.91496 0.0
C157 C 0.49584 0.73562 0.91907 0.0
C158 C 0.51425 0.74388 0.99883 0.0
C159 C 0.49082 0.73967 0.07432 0.0
C160 C 0.14277 0.22771 0.30149 0.0
C161 C 0.12926 0.20754 0.22523 0.0
C162 C 0.06289 0.19232 0.29564 0.0
C163 C 0.0744 0.21785 0.36592 0.0
N164 N 0.12146 0.26966 0.42155 0.0
N165 N 0.07162 0.17949 0.14413 0.0
C166 C 0.1131 0.23873 0.36433 0.0
C167 C 0.08786 0.19237 0.22049 0.0
N168 N 0.18402 0.234 0.31748 0.0
N169 N 0.02926 0.16671 0.30145 0.0
H170 H 0.08786 0.18126 0.08653 0.0
H171 H 0.04044 0.17161 0.13661 0.0
H172 H 0.01131 0.16419 0.35676 0.0
H173 H 0.02204 0.1448 0.25468 0.0
H174 H 0.19485 0.24567 0.37568 0.0
H175 H 0.20759 0.22248 0.27856 0.0
H176 H 0.14813 0.28789 0.41774 0.0
H177 H 0.09978 0.28013 0.46623 0.0
C178 C 0.25407 0.56752 0.70836 0.0
C179 C 0.24228 0.60993 0.71063 0.0
C180 C 0.20297 0.5955 0.84135 0.0
C181 C 0.22279 0.55658 0.84951 0.0
N182 N 0.27622 0.51024 0.796 0.0
N183 N 0.21543 0.66585 0.80024 0.0
C184 C 0.25079 0.54359 0.78432 0.0
C185 C 0.21911 0.62457 0.78248 0.0
N186 N 0.26735 0.54955 0.63407 0.0
N187 N 0.16921 0.60508 0.89037 0.0
H188 H 0.23226 0.6888 0.76885 0.0
H189 H 0.20071 0.67668 0.8554 0.0
H190 H 0.15555 0.58379 0.93208 0.0
H191 H 0.15236 0.63237 0.88182 0.0
H192 H 0.27352 0.51792 0.62943 0.0
H193 H 0.26688 0.56483 0.57524 0.0
H194 H 0.29929 0.50225 0.75213 0.0
H195 H 0.27777 0.49373 0.85319 0.0
C196 C 0.85192 0.77619 0.31605 0.0
C197 C 0.86605 0.79677 0.24077 0.0
C198 C 0.93195 0.81125 0.31363 0.0
C199 C 0.91992 0.78514 0.38261 0.0
N200 N 0.87225 0.73315 0.43517 0.0
N201 N 0.92436 0.82508 0.16225 0.0
C202 C 0.88112 0.7645 0.3793 0.0
C203 C 0.90753 0.81179 0.23773 0.0
N204 N 0.81054 0.77015 0.33083 0.0
N205 N 0.96556 0.83678 0.32139 0.0
H206 H 0.90856 0.82368 0.10404 0.0
H207 H 0.95562 0.83293 0.15603 0.0
H208 H 0.98312 0.8389 0.37738 0.0
H209 H 0.97312 0.85902 0.27553 0.0
H210 H 0.79931 0.75813 0.38838 0.0
H211 H 0.78725 0.78219 0.2918 0.0
H212 H 0.84549 0.71512 0.42995 0.0
H213 H 0.89359 0.72215 0.48005 0.0
C214 C 0.71363 0.43889 0.71012 0.0
C215 C 0.74442 0.41655 0.66428 0.0
C216 C 0.798 0.44373 0.76112 0.0
C217 C 0.76623 0.45873 0.81586 0.0
N218 N 0.69332 0.46898 0.84557 0.0
N219 N 0.81571 0.41586 0.62109 0.0
C220 C 0.72391 0.45613 0.79096 0.0
C221 C 0.7868 0.42423 0.68257 0.0
N222 N 0.67596 0.44707 0.67368 0.0
N223 N 0.8386 0.44648 0.78606 0.0
H224 H 0.80717 0.40488 0.56059 0.0
H225 H 0.84694 0.42378 0.62609 0.0
H226 H 0.84779 0.4614 0.8423 0.0
H227 H 0.8629 0.43202 0.75386 0.0
H228 H 0.65348 0.46559 0.70254 0.0
H229 H 0.66976 0.44178 0.60915 0.0
H230 H 0.66195 0.46282 0.83527 0.0
H231 H 0.69933 0.48284 0.90461 0.0
C232 C 0.58606 0.30108 0.27539 0.0
C233 C 0.6277 0.28674 0.27028 0.0
C234 C 0.61159 0.25566 0.13102 0.0
C235 C 0.57324 0.27714 0.12887 0.0
N236 N 0.52782 0.32762 0.19489 0.0
N237 N 0.68243 0.25942 0.17874 0.0
C238 C 0.56133 0.30183 0.20006 0.0
C239 C 0.64123 0.26618 0.19444 0.0
N240 N 0.56962 0.31293 0.35224 0.0
N241 N 0.61976 0.22503 0.07304 0.0
H242 H 0.70623 0.27039 0.21774 0.0
H243 H 0.69319 0.24765 0.12061 0.0
H244 H 0.59811 0.21533 0.02746 0.0
H245 H 0.64609 0.20632 0.07692 0.0
H246 H 0.53836 0.32046 0.35984 0.0
H247 H 0.58584 0.31032 0.40983 0.0
H248 H 0.52049 0.34894 0.24274 0.0
H249 H 0.51007 0.33096 0.13946 0.0
C250 C 0.21725 0.10082 0.72251 0.0
C251 C 0.24432 0.10662 0.7934 0.0
C252 C 0.29762 0.06512 0.72112 0.0
C253 C 0.26949 0.05759 0.65286 0.0
N254 N 0.19859 0.05765 0.60226 0.0
N255 N 0.30563 0.08531 0.87005 0.0
C256 C 0.22804 0.07209 0.65789 0.0
C257 C 0.28323 0.08606 0.7957 0.0
N258 N 0.18222 0.12421 0.71397 0.0
N259 N 0.33822 0.05342 0.71374 0.0
H260 H 0.29493 0.09896 0.92653 0.0
H261 H 0.33255 0.06784 0.87792 0.0
H262 H 0.3497 0.03791 0.66009 0.0
H263 H 0.36104 0.06195 0.75768 0.0
H264 H 0.16405 0.12448 0.65866 0.0
H265 H 0.17349 0.14632 0.75855 0.0
H266 H 0.16705 0.0641 0.60883 0.0
H267 H 0.20494 0.03562 0.55529 0.0
C268 C 0.41026 0.69463 0.29364 0.0
C269 C 0.3689 0.70991 0.28918 0.0
C270 C 0.38548 0.74299 0.15242 0.0
C271 C 0.42389 0.72178 0.14949 0.0
N272 N 0.46926 0.67025 0.21197 0.0
N273 N 0.31446 0.73719 0.19686 0.0
C274 C 0.43545 0.69555 0.21869 0.0
C275 C 0.35565 0.73103 0.21381 0.0
N276 N 0.42617 0.68065 0.36947 0.0
N277 N 0.37742 0.77482 0.09716 0.0
H278 H 0.2907 0.72462 0.23382 0.0
H279 H 0.30398 0.74975 0.13917 0.0
H280 H 0.3993 0.78581 0.05338 0.0
H281 H 0.35084 0.79313 0.102 0.0
H282 H 0.45731 0.67262 0.37701 0.0
H283 H 0.40965 0.68149 0.42686 0.0
H284 H 0.47647 0.64782 0.25767 0.0
H285 H 0.4876 0.66873 0.15705 0.0
C286 C 0.7145 0.9235 0.81148 0.0
C287 C 0.75352 0.90306 0.81119 0.0
C288 C 0.77211 0.93936 0.67891 0.0
C289 C 0.7308 0.95394 0.67153 0.0
N290 N 0.66108 0.95751 0.72721 0.0
N291 N 0.81671 0.8862 0.73487 0.0
C292 C 0.70148 0.94555 0.73709 0.0
C293 C 0.78178 0.90978 0.74264 0.0
N294 N 0.69062 0.92299 0.8838 0.0
N295 N 0.80239 0.95429 0.62584 0.0
H296 H 0.82432 0.863 0.77794 0.0
H297 H 0.83582 0.88674 0.68099 0.0
H298 H 0.79673 0.9767 0.57919 0.0
H299 H 0.83382 0.94775 0.63429 0.0
H300 H 0.66349 0.94024 0.89051 0.0
H301 H 0.70021 0.90848 0.94023 0.0
H302 H 0.63743 0.9484 0.76863 0.0
H303 H 0.65068 0.97404 0.67389 0.0
C304 C 0.89304 0.75906 0.8152 0.0
C305 C 0.88625 0.79991 0.84506 0.0
C306 C 0.9367 0.82613 0.74036 0.0
C307 C 0.93688 0.78667 0.70065 0.0
N308 N 0.91615 0.71491 0.69904 0.0
N309 N 0.90275 0.87287 0.83984 0.0
C310 C 0.9158 0.75274 0.73846 0.0
C311 C 0.90917 0.83357 0.81012 0.0
N312 N 0.87815 0.72641 0.86157 0.0
N313 N 0.96268 0.85641 0.71076 0.0
H314 H 0.88381 0.87956 0.89211 0.0
H315 H 0.91425 0.8993 0.80998 0.0
H316 H 0.98258 0.85189 0.65881 0.0
H317 H 0.96713 0.88467 0.74147 0.0
H318 H 0.88467 0.69556 0.84766 0.0
H319 H 0.86284 0.73061 0.91977 0.0
H320 H 0.89728 0.6903 0.71753 0.0
H321 H 0.93378 0.70868 0.64445 0.0
C322 C 0.71508 0.4227 0.23119 0.0
C323 C 0.74651 0.40088 0.27649 0.0
C324 C 0.79937 0.4271 0.17703 0.0
C325 C 0.76809 0.44965 0.13333 0.0
N326 N 0.69757 0.47474 0.12553 0.0
N327 N 0.81897 0.38853 0.3045 0.0
C328 C 0.7264 0.44931 0.16274 0.0
C329 C 0.78885 0.40489 0.2528 0.0
N330 N 0.67415 0.41644 0.25053 0.0
N331 N 0.83886 0.42628 0.14494 0.0
H332 H 0.81216 0.37307 0.36149 0.0
H333 H 0.85062 0.3934 0.29549 0.0
H334 H 0.84783 0.4434 0.09132 0.0
H335 H 0.86209 0.40682 0.16794 0.0
H336 H 0.64973 0.42632 0.21185 0.0
H337 H 0.66419 0.39926 0.30292 0.0
H338 H 0.66822 0.48012 0.15114 0.0
H339 H 0.70374 0.49292 0.0719 0.0
C340 C 0.08754 0.16941 0.79427 0.0
C341 C 0.10866 0.20423 0.82934 0.0
C342 C 0.07762 0.24957 0.72115 0.0
C343 C 0.05806 0.2146 0.68371 0.0
N344 N 0.03526 0.14388 0.69483 0.0
N345 N 0.11363 0.27808 0.84436 0.0
C346 C 0.05988 0.17536 0.72409 0.0
C347 C 0.10025 0.24459 0.79851 0.0
N348 N 0.09588 0.13048 0.82409 0.0
N349 N 0.07607 0.28712 0.68073 0.0
H350 H 0.12914 0.27488 0.90267 0.0
H351 H 0.10573 0.30854 0.82978 0.0
H352 H 0.0587 0.29235 0.62531 0.0
H353 H 0.09386 0.31254 0.69912 0.0
H354 H 0.08585 0.10353 0.79392 0.0
H355 H 0.11498 0.12472 0.8766 0.0
H356 H 0.03195 0.11563 0.72618 0.0
H357 H 0.0153 0.14732 0.64259 0.0
C358 C 0.27887 0.57693 0.27328 0.0
C359 C 0.24704 0.60142 0.31086 0.0
C360 C 0.1957 0.57098 0.21304 0.0
C361 C 0.22846 0.55106 0.16854 0.0
N362 N 0.30126 0.53587 0.15164 0.0
N363 N 0.17516 0.62134 0.32075 0.0
C364 C 0.27001 0.55382 0.19802 0.0
C365 C 0.20532 0.59806 0.28227 0.0
N366 N 0.31756 0.57565 0.3094 0.0
N367 N 0.15549 0.56363 0.18916 0.0
H368 H 0.18064 0.63869 0.37598 0.0
H369 H 0.1451 0.62452 0.29724 0.0
H370 H 0.14763 0.54438 0.13791 0.0
H371 H 0.12975 0.57411 0.22306 0.0
H372 H 0.34061 0.55495 0.29071 0.0
H373 H 0.32594 0.59271 0.36322 0.0
H374 H 0.33266 0.54132 0.16262 0.0
H375 H 0.29591 0.5173 0.09805 0.0
C376 C 0.39037 0.74662 0.71653 0.0
C377 C 0.37909 0.706 0.69142 0.0
C378 C 0.42727 0.67714 0.79763 0.0
C379 C 0.43304 0.71741 0.83157 0.0
N380 N 0.41898 0.79078 0.82737 0.0
N381 N 0.38555 0.63192 0.7085 0.0
C382 C 0.4147 0.75237 0.79152 0.0
C383 C 0.39769 0.67099 0.73112 0.0
N384 N 0.37837 0.77958 0.66749 0.0
N385 N 0.45025 0.64493 0.82902 0.0
H386 H 0.36528 0.62592 0.658 0.0
H387 H 0.39377 0.60545 0.74259 0.0
H388 H 0.4719 0.6486 0.87825 0.0
H389 H 0.4506 0.61552 0.80168 0.0
H390 H 0.38859 0.80978 0.6777 0.0
H391 H 0.3615 0.77596 0.61095 0.0
H392 H 0.40226 0.8166 0.80723 0.0
H393 H 0.43736 0.79645 0.88117 0.0
C394 C 0.77736 0.93217 0.251 0.0
C395 C 0.74594 0.9076 0.21196 0.0
C396 C 0.69373 0.93758 0.3089 0.0
C397 C 0.72601 0.95773 0.35449 0.0
N398 N 0.79864 0.97357 0.37302 0.0
N399 N 0.67416 0.88756 0.19953 0.0
C400 C 0.76777 0.95531 0.32593 0.0
C401 C 0.70399 0.91073 0.23946 0.0
N402 N 0.81643 0.93349 0.21674 0.0
N403 N 0.65336 0.94466 0.3317 0.0
H404 H 0.68006 0.87053 0.14406 0.0
H405 H 0.64393 0.88423 0.22193 0.0
H406 H 0.64516 0.96395 0.38263 0.0
H407 H 0.62786 0.93395 0.29728 0.0
H408 H 0.83911 0.95453 0.23583 0.0
H409 H 0.8257 0.91597 0.16425 0.0
H410 H 0.83013 0.96807 0.36346 0.0
H411 H 0.79291 0.9926 0.42566 0.0
C412 C 0.59217 0.33821 0.70833 0.0
C413 C 0.61248 0.30444 0.66801 0.0
C414 C 0.58071 0.25586 0.76903 0.0
C415 C 0.5615 0.28971 0.81126 0.0
N416 N 0.54106 0.36138 0.81258 0.0
N417 N 0.61734 0.23121 0.64319 0.0
C418 C 0.56459 0.33041 0.77781 0.0
C419 C 0.60385 0.26321 0.69315 0.0
N420 N 0.60066 0.37773 0.68245 0.0
N421 N 0.57823 0.21698 0.80351 0.0
H422 H 0.63325 0.23626 0.58606 0.0
H423 H 0.60933 0.20036 0.65323 0.0
H424 H 0.5604 0.21009 0.85746 0.0
H425 H 0.59567 0.19195 0.78184 0.0
H426 H 0.59129 0.40407 0.71562 0.0
H427 H 0.61857 0.38421 0.62849 0.0
H428 H 0.53886 0.39101 0.78677 0.0
H429 H 0.52105 0.35654 0.86421 0.0
C430 C 0.22286 0.07432 0.23242 0.0
C431 C 0.25332 0.09963 0.19249 0.0
C432 C 0.30684 0.07216 0.28947 0.0
C433 C 0.27535 0.05146 0.3362 0.0
N434 N 0.20338 0.03295 0.35552 0.0
N435 N 0.3244 0.12146 0.17732 0.0
C436 C 0.23345 0.05205 0.30781 0.0
C437 C 0.29549 0.09792 0.21906 0.0
N438 N 0.18375 0.07153 0.19859 0.0
N439 N 0.34748 0.06667 0.31223 0.0
H440 H 0.31766 0.13758 0.12108 0.0
H441 H 0.3547 0.12582 0.19861 0.0
H442 H 0.35643 0.04814 0.36385 0.0
H443 H 0.37254 0.07801 0.27737 0.0
H444 H 0.16179 0.04994 0.21851 0.0
H445 H 0.1738 0.08836 0.14561 0.0
H446 H 0.17167 0.03724 0.34613 0.0
H447 H 0.20992 0.01436 0.40836 0.0
C448 C 0.25067 0.35912 0.97427 0.0
C449 C 0.21571 0.33448 0.99531 0.0
C450 C 0.17356 0.39697 0.01503 0.0
C451 C 0.20957 0.42135 0.00172 0.0
N452 N 0.28401 0.42597 0.98484 0.0
N453 N 0.14535 0.32895 0.0468 0.0
C454 C 0.24861 0.40252 0.98588 0.0
C455 C 0.17743 0.3531 0.01863 0.0
N456 N 0.28551 0.34121 0.9408 0.0
N457 N 0.13573 0.41577 0.02286 0.0
H458 H 0.14709 0.29671 0.04948 0.0
H459 H 0.11816 0.34082 0.07318 0.0
H460 H 0.13215 0.44789 0.02221 0.0
H461 H 0.10772 0.39968 0.02381 0.0
H462 H 0.31027 0.35803 0.91564 0.0
H463 H 0.28816 0.3095 0.93066 0.0
H464 H 0.31375 0.41332 0.98381 0.0
H465 H 0.28404 0.45802 0.99275 0.0
C466 C 0.12746 0.77185 0.46999 0.0
C467 C 0.14247 0.73216 0.49333 0.0
C468 C 0.07165 0.70955 0.52684 0.0
C469 C 0.0576 0.75065 0.51294 0.0
N470 N 0.07248 0.82251 0.48345 0.0
N471 N 0.13038 0.66352 0.54851 0.0
C472 C 0.08559 0.78225 0.48761 0.0
C473 C 0.11495 0.70096 0.52279 0.0
N474 N 0.15298 0.79925 0.42903 0.0
N475 N 0.04348 0.67872 0.54196 0.0
H476 H 0.16161 0.65553 0.54219 0.0
H477 H 0.1128 0.64117 0.58005 0.0
H478 H 0.01162 0.68415 0.54645 0.0
H479 H 0.05118 0.64743 0.54395 0.0
H480 H 0.14278 0.82713 0.40292 0.0
H481 H 0.18364 0.79235 0.41359 0.0
H482 H 0.09254 0.84748 0.47513 0.0
H483 H 0.04194 0.83149 0.49572 0.0
C484 C 0.81471 0.6532 0.02374 0.0
C485 C 0.77651 0.67286 0.00376 0.0
C486 C 0.74382 0.6054 0.97987 0.0
C487 C 0.78296 0.58598 0.99137 0.0
N488 N 0.85675 0.59093 0.01434 0.0
N489 N 0.70626 0.66855 0.95038 0.0
C490 C 0.81878 0.60976 0.01067 0.0
C491 C 0.74148 0.6492 0.9784 0.0
N492 N 0.84664 0.6759 0.05741 0.0
N493 N 0.70858 0.58197 0.97317 0.0
H494 H 0.70297 0.70055 0.94945 0.0
H495 H 0.68154 0.6531 0.92152 0.0
H496 H 0.70883 0.54973 0.97281 0.0
H497 H 0.67873 0.59433 0.97538 0.0
H498 H 0.87378 0.66284 0.08156 0.0
H499 H 0.84471 0.70779 0.06729 0.0
H500 H 0.88464 0.60707 0.01909 0.0
H501 H 0.86064 0.55909 0.00611 0.0
C502 C 0.86686 0.24156 0.44478 0.0
C503 C 0.85261 0.27718 0.48973 0.0
C504 C 0.92395 0.2918 0.53568 0.0
C505 C 0.93708 0.25371 0.49967 0.0
N506 N 0.91919 0.18794 0.43619 0.0
N507 N 0.86661 0.33145 0.59217 0.0
C508 C 0.90809 0.22739 0.45831 0.0
C509 C 0.88087 0.30089 0.5395 0.0
N510 N 0.84124 0.22089 0.38957 0.0
N511 N 0.95265 0.31981 0.56411 0.0
H512 H 0.83529 0.33879 0.59703 0.0
H513 H 0.88529 0.34674 0.6366 0.0
H514 H 0.98457 0.31456 0.56075 0.0
H515 H 0.94497 0.34978 0.58312 0.0
H516 H 0.85165 0.19773 0.34835 0.0
H517 H 0.81044 0.22898 0.37907 0.0
H518 H 0.89804 0.16582 0.41475 0.0
H519 H 0.94869 0.17582 0.44755 0.0
C520 C 0.7531 0.152 0.55033 0.0
C521 C 0.7188 0.17574 0.52163 0.0
C522 C 0.67802 0.11238 0.50145 0.0
C523 C 0.71369 0.08859 0.52163 0.0
N524 N 0.78732 0.08527 0.55046 0.0
N525 N 0.65083 0.1789 0.45677 0.0
C526 C 0.75184 0.10825 0.54237 0.0
C527 C 0.68176 0.15607 0.49371 0.0
N528 N 0.78678 0.17124 0.58585 0.0
N529 N 0.64045 0.09326 0.49139 0.0
H530 H 0.65227 0.21101 0.45078 0.0
H531 H 0.62517 0.16583 0.42642 0.0
H532 H 0.63671 0.06124 0.49604 0.0
H533 H 0.61254 0.1093 0.48559 0.0
H534 H 0.81088 0.15542 0.61602 0.0
H535 H 0.78896 0.20328 0.59206 0.0
H536 H 0.8168 0.09825 0.5558 0.0
H537 H 0.78793 0.05314 0.54405 0.0
C538 C 0.37853 0.20383 0.9538 0.0
C539 C 0.35151 0.23139 0.99748 0.0
C540 C 0.40912 0.27959 0.02084 0.0
C541 C 0.43677 0.25038 0.9843 0.0
N542 N 0.44953 0.18206 0.92791 0.0
N543 N 0.34247 0.29182 0.08702 0.0
C544 C 0.42198 0.2117 0.95397 0.0
C545 C 0.36724 0.26813 0.03558 0.0
N546 N 0.3626 0.17046 0.91129 0.0
N547 N 0.42247 0.31894 0.03819 0.0
H548 H 0.31157 0.28473 0.09945 0.0
H549 H 0.35355 0.31643 0.12365 0.0
H550 H 0.45282 0.32882 0.02694 0.0
H551 H 0.40259 0.3429 0.05581 0.0
H552 H 0.37993 0.15178 0.87032 0.0
H553 H 0.33114 0.16315 0.91249 0.0
H554 H 0.44102 0.15172 0.91364 0.0
H555 H 0.48158 0.1868 0.92716 0.0
C556 C 0.24588 0.86127 0.53773 0.0
C557 C 0.2799 0.83599 0.51386 0.0
C558 C 0.32306 0.8976 0.49191 0.0
C559 C 0.28773 0.92271 0.50724 0.0
N560 N 0.21369 0.9287 0.52919 0.0
N561 N 0.34966 0.82903 0.45965 0.0
C562 C 0.2486 0.90463 0.52593 0.0
C563 C 0.31826 0.85384 0.48859 0.0
N564 N 0.21132 0.84399 0.57378 0.0
N565 N 0.36122 0.91558 0.48266 0.0
H566 H 0.34763 0.7968 0.45896 0.0
H567 H 0.37665 0.84032 0.43134 0.0
H568 H 0.36563 0.9476 0.4839 0.0
H569 H 0.38885 0.8989 0.48023 0.0
H570 H 0.18735 0.86128 0.60075 0.0
H571 H 0.20827 0.81232 0.58422 0.0
H572 H 0.18375 0.91658 0.5324 0.0
H573 H 0.21413 0.96071 0.52087 0.0
C574 C 0.61565 0.80342 0.97181 0.0
C575 C 0.64352 0.77686 0.0159 0.0
C576 C 0.58734 0.72716 0.04036 0.0
C577 C 0.55873 0.75546 0.0039 0.0
N578 N 0.54399 0.82351 0.94788 0.0
N579 N 0.65394 0.71755 0.10827 0.0
C580 C 0.5724 0.7945 0.9731 0.0
C581 C 0.62876 0.74005 0.05536 0.0
N582 N 0.63055 0.83691 0.92811 0.0
N583 N 0.57546 0.68731 0.05721 0.0
H584 H 0.68441 0.72585 0.12187 0.0
H585 H 0.64334 0.69291 0.14541 0.0
H586 H 0.5456 0.67625 0.04512 0.0
H587 H 0.59627 0.66411 0.07482 0.0
H588 H 0.61251 0.85485 0.88698 0.0
H589 H 0.66184 0.84502 0.92846 0.0
H590 H 0.55177 0.85398 0.93307 0.0
H591 H 0.51205 0.81816 0.94878 0.0
loop_
_geom_bond_atom_site_label_1
_geom_bond_atom_site_label_2
_geom_bond_distance
_geom_bond_site_symmetry_2
_ccdc_geom_bond_type
Fe0 O2 1.918 . S
Fe0 O5 1.997 . S
Fe0 O6 2.002 . S
Fe0 O11 1.976 . S
Fe0 O14 1.996 . S
Fe1 O2 1.918 1_556 S
Fe1 O9 1.997 . S
Fe1 O12 1.996 . S
Fe1 O16 1.976 . S
Fe1 O19 2.002 . S
O2 Fe0 1.918 . S
O2 Fe1 1.918 1_554 S
O2 Fe3 1.918 . S
Fe3 O2 1.918 . S
Fe3 O4 2.002 . S
Fe3 O13 1.976 . S
Fe3 O17 1.996 1_554 S
Fe3 O20 1.997 1_554 S
O4 Fe3 2.002 . S
O4 C21 1.295 . S
O5 Fe0 1.997 . S
O5 C21 1.235 . S
O6 Fe0 2.002 . S
O6 C7 1.295 . S
C7 O6 1.295 . S
C7 O9 1.235 1_554 S
C8 O13 1.287 . S
C8 O14 1.255 . S
O9 Fe1 1.997 . S
O9 C7 1.235 1_556 S
C10 O16 1.287 . S
C10 O17 1.255 . S
O11 Fe0 1.976 . S
O11 C18 1.283 1_554 S
O12 Fe1 1.996 . S
O12 C18 1.259 . S
O13 Fe3 1.976 . S
O13 C8 1.287 . S
O14 Fe0 1.996 . S
O14 C8 1.255 . S
C15 O19 1.295 . S
C15 O20 1.235 . S
O16 Fe1 1.976 . S
O16 C10 1.287 . S
O17 Fe3 1.996 1_556 S
O17 C10 1.255 . S
C18 O11 1.283 1_556 S
C18 O12 1.259 . S
O19 Fe1 2.002 . S
O19 C15 1.295 . S
O20 Fe3 1.997 1_556 S
O20 C15 1.235 . S
C21 O4 1.295 . S
C21 O5 1.235 . S
Fe22 O24 1.918 . S
Fe22 O27 1.997 . S
Fe22 O28 2.002 . S
Fe22 O33 1.976 . S
Fe22 O36 1.996 . S
Fe23 O24 1.918 . S
Fe23 O31 1.997 . S
Fe23 O34 1.996 . S
Fe23 O38 1.976 . S
Fe23 O41 2.002 . S
O24 Fe22 1.918 . S
O24 Fe23 1.918 . S
O24 Fe25 1.918 . S
Fe25 O24 1.918 . S
Fe25 O26 2.002 . S
Fe25 O35 1.976 . S
Fe25 O39 1.996 . S
Fe25 O42 1.997 . S
O26 Fe25 2.002 . S
O26 C43 1.295 . S
O27 Fe22 1.997 . S
O27 C43 1.235 . S
O28 Fe22 2.002 . S
O28 C29 1.295 . S
C29 O28 1.295 . S
C29 O31 1.235 . S
C30 O35 1.287 . S
C30 O36 1.255 . S
O31 Fe23 1.997 . S
O31 C29 1.235 . S
C32 O38 1.287 . S
C32 O39 1.255 . S
O33 Fe22 1.976 . S
O33 C40 1.287 . S
O34 Fe23 1.996 . S
O34 C40 1.255 . S
O35 Fe25 1.976 . S
O35 C30 1.287 . S
O36 Fe22 1.996 . S
O36 C30 1.255 . S
C37 O41 1.295 . S
C37 O42 1.235 . S
O38 Fe23 1.976 . S
O38 C32 1.287 . S
O39 Fe25 1.996 . S
O39 C32 1.255 . S
C40 O33 1.287 . S
C40 O34 1.255 . S
O41 Fe23 2.002 . S
O41 C37 1.295 . S
O42 Fe25 1.997 . S
O42 C37 1.235 . S
C43 O26 1.295 . S
C43 O27 1.235 . S
Fe44 O46 1.918 1_556 S
Fe44 O49 1.997 . S
Fe44 O50 2.002 . S
Fe44 O55 1.976 . S
Fe44 O58 1.996 . S
Fe45 O46 1.918 . S
Fe45 O53 1.997 . S
Fe45 O56 1.996 . S
Fe45 O60 1.976 . S
Fe45 O63 2.002 . S
O46 Fe44 1.918 1_554 S
O46 Fe45 1.918 . S
O46 Fe47 1.918 . S
Fe47 O46 1.918 . S
Fe47 O48 2.002 1_554 S
Fe47 O57 1.976 1_554 S
Fe47 O61 1.996 . S
Fe47 O64 1.997 . S
O48 Fe47 2.002 1_556 S
O48 C65 1.295 . S
O49 Fe44 1.997 . S
O49 C65 1.235 . S
O50 Fe44 2.002 . S
O50 C51 1.298 . S
C51 O50 1.298 . S
C51 O53 1.232 1_556 S
C52 O57 1.287 . S
C52 O58 1.255 . S
O53 Fe45 1.997 . S
O53 C51 1.232 1_554 S
C54 O60 1.287 . S
C54 O61 1.255 . S
O55 Fe44 1.976 . S
O55 C62 1.287 1_556 S
O56 Fe45 1.996 . S
O56 C62 1.255 . S
O57 Fe47 1.976 1_556 S
O57 C52 1.287 . S
O58 Fe44 1.996 . S
O58 C52 1.255 . S
C59 O63 1.295 . S
C59 O64 1.235 . S
O60 Fe45 1.976 . S
O60 C54 1.287 . S
O61 Fe47 1.996 . S
O61 C54 1.255 . S
C62 O55 1.287 1_554 S
C62 O56 1.255 . S
O63 Fe45 2.002 . S
O63 C59 1.295 . S
O64 Fe47 1.997 . S
O64 C59 1.235 . S
C65 O48 1.295 . S
C65 O49 1.235 . S
Fe66 O68 1.918 . S
Fe66 O71 1.997 . S
Fe66 O72 2.002 . S
Fe66 O77 1.976 . S
Fe66 O80 1.996 . S
Fe67 O68 1.918 . S
Fe67 O75 1.997 . S
Fe67 O78 1.996 . S
Fe67 O82 1.976 . S
Fe67 O85 2.002 . S
O68 Fe66 1.918 . S
O68 Fe67 1.918 . S
O68 Fe69 1.918 . S
Fe69 O68 1.918 . S
Fe69 O70 2.002 . S
Fe69 O79 1.976 . S
Fe69 O83 1.996 . S
Fe69 O86 1.997 . S
O70 Fe69 2.002 . S
O70 C87 1.295 . S
O71 Fe66 1.997 . S
O71 C87 1.235 . S
O72 Fe66 2.002 . S
O72 C73 1.295 . S
C73 O72 1.295 . S
C73 O75 1.235 . S
C74 O79 1.287 . S
C74 O80 1.255 . S
O75 Fe67 1.997 . S
O75 C73 1.235 . S
C76 O82 1.287 . S
C76 O83 1.255 . S
O77 Fe66 1.976 . S
O77 C84 1.287 . S
O78 Fe67 1.996 . S
O78 C84 1.255 . S
O79 Fe69 1.976 . S
O79 C74 1.287 . S
O80 Fe66 1.996 . S
O80 C74 1.255 . S
C81 O85 1.295 . S
C81 O86 1.235 . S
O82 Fe67 1.976 . S
O82 C76 1.287 . S
O83 Fe69 1.996 . S
O83 C76 1.255 . S
C84 O77 1.287 . S
C84 O78 1.255 . S
O85 Fe67 2.002 . S
O85 C81 1.295 . S
O86 Fe69 1.997 . S
O86 C81 1.235 . S
C87 O70 1.295 . S
C87 O71 1.235 . S
H88 C91 0.931 1_556 S
H89 C94 0.928 . S
H90 C96 0.930 . S
C91 H88 0.931 1_554 S
C91 C92 1.414 . S
C91 C93 1.360 1_554 S
C92 C91 1.414 . S
C92 C96 1.429 . S
C93 C91 1.360 1_556 S
C93 C94 1.372 . S
C94 H89 0.928 . S
C94 C93 1.372 . S
C94 C95 1.404 1_556 S
C95 C94 1.404 1_554 S
C95 C96 1.391 . S
C96 H90 0.930 . S
C96 C92 1.429 . S
C96 C95 1.391 . S
H97 C100 0.931 . S
H98 C103 0.928 1_455 S
H99 C105 0.940 . S
C100 H97 0.931 . S
C100 C101 1.413 . S
C100 C102 1.360 . S
C101 C100 1.413 . S
C101 C105 1.411 1_655 S
C102 C100 1.360 . S
C102 C103 1.372 . S
C103 H98 0.928 1_655 S
C103 C102 1.372 . S
C103 C104 1.404 1_655 S
C104 C103 1.404 1_455 S
C104 C105 1.399 . S
C105 H99 0.940 . S
C105 C101 1.411 1_455 S
C105 C104 1.399 . S
H106 C109 0.931 . S
H107 C112 0.928 . S
H108 C114 0.930 . S
C109 H106 0.931 . S
C109 C110 1.413 1_554 S
C109 C111 1.360 . S
C110 C109 1.413 1_556 S
C110 C114 1.429 . S
C111 C109 1.360 . S
C111 C112 1.372 . S
C112 H107 0.928 . S
C112 C111 1.372 . S
C112 C113 1.404 . S
C113 C112 1.404 . S
C113 C114 1.391 1_554 S
C114 H108 0.930 . S
C114 C110 1.429 . S
C114 C113 1.391 1_556 S
H115 C118 0.931 . S
H116 C121 0.928 . S
H117 C123 0.930 . S
C118 H115 0.931 . S
C118 C119 1.413 . S
C118 C120 1.360 . S
C119 C118 1.413 . S
C119 C123 1.429 1_455 S
C120 C118 1.360 . S
C120 C121 1.372 1_455 S
C121 H116 0.928 . S
C121 C120 1.372 1_655 S
C121 C122 1.404 . S
C122 C121 1.404 . S
C122 C123 1.391 . S
C123 H117 0.930 . S
C123 C119 1.429 1_655 S
C123 C122 1.391 . S
H124 C127 0.931 . S
H125 C130 0.928 . S
H126 C132 0.930 . S
C127 H124 0.931 . S
C127 C128 1.413 . S
C127 C129 1.360 . S
C128 C127 1.413 . S
C128 C132 1.429 1_565 S
C129 C127 1.360 . S
C129 C130 1.372 1_565 S
C130 H125 0.928 . S
C130 C129 1.372 1_545 S
C130 C131 1.404 . S
C131 C130 1.404 . S
C131 C132 1.391 . S
C132 H126 0.930 . S
C132 C128 1.429 1_545 S
C132 C131 1.391 . S
H133 C136 0.931 . S
H134 C139 0.928 . S
H135 C141 0.930 . S
C136 H133 0.931 . S
C136 C137 1.413 1_554 S
C136 C138 1.360 . S
C137 C136 1.413 1_556 S
C137 C141 1.429 . S
C138 C136 1.360 . S
C138 C139 1.372 . S
C139 H134 0.928 . S
C139 C138 1.372 . S
C139 C140 1.404 . S
C140 C139 1.404 . S
C140 C141 1.391 1_554 S
C141 H135 0.930 . S
C141 C137 1.429 . S
C141 C140 1.391 1_556 S
H142 C145 0.931 . S
H143 C148 0.928 . S
H144 C150 0.930 . S
C145 H142 0.931 . S
C145 C146 1.413 . S
C145 C147 1.360 . S
C146 C145 1.413 . S
C146 C150 1.429 1_545 S
C147 C145 1.360 . S
C147 C148 1.372 1_545 S
C148 H143 0.928 . S
C148 C147 1.372 1_565 S
C148 C149 1.404 . S
C149 C148 1.404 . S
C149 C150 1.391 . S
C150 H144 0.930 . S
C150 C146 1.429 1_565 S
C150 C149 1.391 . S
H151 C154 0.931 1_556 S
H152 C157 0.928 . S
H153 C159 0.930 . S
C154 H151 0.931 1_554 S
C154 C155 1.419 . S
C154 C156 1.355 1_554 S
C155 C154 1.419 . S
C155 C159 1.429 . S
C156 C154 1.355 1_556 S
C156 C157 1.372 . S
C157 H152 0.928 . S
C157 C156 1.372 . S
C157 C158 1.404 1_556 S
C158 C157 1.404 1_554 S
C158 C159 1.391 . S
C159 H153 0.930 . S
C159 C155 1.429 . S
C159 C158 1.391 . S
C160 C161 1.363 . S
C160 C166 1.379 . S
C160 N168 1.356 . S
C161 C160 1.363 . S
C161 C167 1.363 . S
C162 C163 1.363 . S
C162 C167 1.379 . S
C162 N169 1.356 . S
C163 C162 1.363 . S
C163 C166 1.363 . S
N164 C166 1.356 . S
N164 H176 0.984 . S
N164 H177 0.985 . S
N165 C167 1.356 . S
N165 H170 0.984 . S
N165 H171 0.985 . S
C166 C160 1.379 . S
C166 C163 1.363 . S
C166 N164 1.356 . S
C167 C161 1.363 . S
C167 C162 1.379 . S
C167 N165 1.356 . S
N168 C160 1.356 . S
N168 H174 0.984 . S
N168 H175 0.984 . S
N169 C162 1.356 . S
N169 H172 0.984 . S
N169 H173 0.985 . S
H170 N165 0.984 . S
H171 N165 0.985 . S
H172 N169 0.984 . S
H173 N169 0.985 . S
H174 N168 0.984 . S
H175 N168 0.984 . S
H176 N164 0.984 . S
H177 N164 0.985 . S
C178 C179 1.363 . S
C178 C184 1.379 . S
C178 N186 1.356 . S
C179 C178 1.363 . S
C179 C185 1.363 . S
C180 C181 1.363 . S
C180 C185 1.379 . S
C180 N187 1.356 . S
C181 C180 1.363 . S
C181 C184 1.363 . S
N182 C184 1.356 . S
N182 H194 0.984 . S
N182 H195 0.985 . S
N183 C185 1.356 . S
N183 H188 0.984 . S
N183 H189 0.985 . S
C184 C178 1.379 . S
C184 C181 1.363 . S
C184 N182 1.356 . S
C185 C179 1.363 . S
C185 C180 1.379 . S
C185 N183 1.356 . S
N186 C178 1.356 . S
N186 H192 0.984 . S
N186 H193 0.984 . S
N187 C180 1.356 . S
N187 H190 0.984 . S
N187 H191 0.985 . S
H188 N183 0.984 . S
H189 N183 0.985 . S
H190 N187 0.984 . S
H191 N187 0.985 . S
H192 N186 0.984 . S
H193 N186 0.984 . S
H194 N182 0.984 . S
H195 N182 0.985 . S
C196 C197 1.363 . S
C196 C202 1.379 . S
C196 N204 1.356 . S
C197 C196 1.363 . S
C197 C203 1.363 . S
C198 C199 1.363 . S
C198 C203 1.379 . S
C198 N205 1.356 . S
C199 C198 1.363 . S
C199 C202 1.363 . S
N200 C202 1.356 . S
N200 H212 0.984 . S
N200 H213 0.985 . S
N201 C203 1.356 . S
N201 H206 0.984 . S
N201 H207 0.985 . S
C202 C196 1.379 . S
C202 C199 1.363 . S
C202 N200 1.356 . S
C203 C197 1.363 . S
C203 C198 1.379 . S
C203 N201 1.356 . S
N204 C196 1.356 . S
N204 H210 0.984 . S
N204 H211 0.984 . S
N205 C198 1.356 . S
N205 H208 0.984 . S
N205 H209 0.985 . S
H206 N201 0.984 . S
H207 N201 0.985 . S
H208 N205 0.984 . S
H209 N205 0.985 . S
H210 N204 0.984 . S
H211 N204 0.984 . S
H212 N200 0.984 . S
H213 N200 0.985 . S
C214 C215 1.363 . S
C214 C220 1.379 . S
C214 N222 1.356 . S
C215 C214 1.363 . S
C215 C221 1.363 . S
C216 C217 1.363 . S
C216 C221 1.379 . S
C216 N223 1.356 . S
C217 C216 1.363 . S
C217 C220 1.363 . S
N218 C220 1.356 . S
N218 H230 0.984 . S
N218 H231 0.985 . S
N219 C221 1.356 . S
N219 H224 0.984 . S
N219 H225 0.985 . S
C220 C214 1.379 . S
C220 C217 1.363 . S
C220 N218 1.356 . S
C221 C215 1.363 . S
C221 C216 1.379 . S
C221 N219 1.356 . S
N222 C214 1.356 . S
N222 H228 0.984 . S
N222 H229 0.984 . S
N223 C216 1.356 . S
N223 H226 0.984 . S
N223 H227 0.985 . S
H224 N219 0.984 . S
H225 N219 0.985 . S
H226 N223 0.984 . S
H227 N223 0.985 . S
H228 N222 0.984 . S
H229 N222 0.984 . S
H230 N218 0.984 . S
H231 N218 0.985 . S
C232 C233 1.363 . S
C232 C238 1.379 . S
C232 N240 1.356 . S
C233 C232 1.363 . S
C233 C239 1.363 . S
C234 C235 1.363 . S
C234 C239 1.379 . S
C234 N241 1.356 . S
C235 C234 1.363 . S
C235 C238 1.363 . S
N236 C238 1.356 . S
N236 H248 0.984 . S
N236 H249 0.985 . S
N237 C239 1.356 . S
N237 H242 0.984 . S
N237 H243 0.985 . S
C238 C232 1.379 . S
C238 C235 1.363 . S
C238 N236 1.356 . S
C239 C233 1.363 . S
C239 C234 1.379 . S
C239 N237 1.356 . S
N240 C232 1.356 . S
N240 H246 0.984 . S
N240 H247 0.984 . S
N241 C234 1.356 . S
N241 H244 0.984 . S
N241 H245 0.985 . S
H242 N237 0.984 . S
H243 N237 0.985 . S
H244 N241 0.984 . S
H245 N241 0.985 . S
H246 N240 0.984 . S
H247 N240 0.984 . S
H248 N236 0.984 . S
H249 N236 0.985 . S
C250 C251 1.363 . S
C250 C256 1.379 . S
C250 N258 1.356 . S
C251 C250 1.363 . S
C251 C257 1.363 . S
C252 C253 1.363 . S
C252 C257 1.379 . S
C252 N259 1.356 . S
C253 C252 1.363 . S
C253 C256 1.363 . S
N254 C256 1.356 . S
N254 H266 0.984 . S
N254 H267 0.985 . S
N255 C257 1.356 . S
N255 H260 0.984 . S
N255 H261 0.985 . S
C256 C250 1.379 . S
C256 C253 1.363 . S
C256 N254 1.356 . S
C257 C251 1.363 . S
C257 C252 1.379 . S
C257 N255 1.356 . S
N258 C250 1.356 . S
N258 H264 0.984 . S
N258 H265 0.984 . S
N259 C252 1.356 . S
N259 H262 0.984 . S
N259 H263 0.992 . S
H260 N255 0.984 . S
H261 N255 0.985 . S
H262 N259 0.984 . S
H263 N259 0.992 . S
H264 N258 0.984 . S
H265 N258 0.984 . S
H266 N254 0.984 . S
H267 N254 0.985 . S
C268 C269 1.363 . S
C268 C274 1.379 . S
C268 N276 1.356 . S
C269 C268 1.363 . S
C269 C275 1.363 . S
C270 C271 1.363 . S
C270 C275 1.379 . S
C270 N277 1.356 . S
C271 C270 1.363 . S
C271 C274 1.363 . S
N272 C274 1.356 . S
N272 H284 0.984 . S
N272 H285 0.985 . S
N273 C275 1.356 . S
N273 H278 0.984 . S
N273 H279 0.985 . S
C274 C268 1.379 . S
C274 C271 1.363 . S
C274 N272 1.356 . S
C275 C269 1.363 . S
C275 C270 1.379 . S
C275 N273 1.356 . S
N276 C268 1.356 . S
N276 H282 0.984 . S
N276 H283 0.984 . S
N277 C270 1.356 . S
N277 H280 0.984 . S
N277 H281 0.985 . S
H278 N273 0.984 . S
H279 N273 0.985 . S
H280 N277 0.984 . S
H281 N277 0.985 . S
H282 N276 0.984 . S
H283 N276 0.984 . S
H284 N272 0.984 . S
H285 N272 0.985 . S
C286 C287 1.363 . S
C286 C292 1.379 . S
C286 N294 1.356 . S
C287 C286 1.363 . S
C287 C293 1.363 . S
C288 C289 1.363 . S
C288 C293 1.379 . S
C288 N295 1.356 . S
C289 C288 1.363 . S
C289 C292 1.363 . S
N290 C292 1.356 . S
N290 H302 0.984 . S
N290 H303 0.985 . S
N291 C293 1.356 . S
N291 H296 0.984 . S
N291 H297 0.985 . S
C292 C286 1.379 . S
C292 C289 1.363 . S
C292 N290 1.356 . S
C293 C287 1.363 . S
C293 C288 1.379 . S
C293 N291 1.356 . S
N294 C286 1.356 . S
N294 H300 0.984 . S
N294 H301 0.984 . S
N295 C288 1.356 . S
N295 H298 0.984 . S
N295 H299 0.985 . S
H296 N291 0.984 . S
H297 N291 0.985 . S
H298 N295 0.984 . S
H299 N295 0.985 . S
H300 N294 0.984 . S
H301 N294 0.984 . S
H302 N290 0.984 . S
H303 N290 0.985 . S
C304 C305 1.363 . S
C304 C310 1.379 . S
C304 N312 1.356 . S
C305 C304 1.363 . S
C305 C311 1.363 . S
C306 C307 1.363 . S
C306 C311 1.379 . S
C306 N313 1.356 . S
C307 C306 1.363 . S
C307 C310 1.363 . S
N308 C310 1.356 . S
N308 H320 0.984 . S
N308 H321 0.985 . S
N309 C311 1.356 . S
N309 H314 0.984 . S
N309 H315 0.985 . S
C310 C304 1.379 . S
C310 C307 1.363 . S
C310 N308 1.356 . S
C311 C305 1.363 . S
C311 C306 1.379 . S
C311 N309 1.356 . S
N312 C304 1.356 . S
N312 H318 0.984 . S
N312 H319 0.984 . S
N313 C306 1.356 . S
N313 H316 0.984 . S
N313 H317 0.985 . S
H314 N309 0.984 . S
H315 N309 0.985 . S
H316 N313 0.984 . S
H317 N313 0.985 . S
H318 N312 0.984 . S
H319 N312 0.984 . S
H320 N308 0.984 . S
H321 N308 0.985 . S
C322 C323 1.363 . S
C322 C328 1.379 . S
C322 N330 1.356 . S
C323 C322 1.363 . S
C323 C329 1.363 . S
C324 C325 1.363 . S
C324 C329 1.379 . S
C324 N331 1.356 . S
C325 C324 1.363 . S
C325 C328 1.363 . S
N326 C328 1.356 . S
N326 H338 0.984 . S
N326 H339 0.985 . S
N327 C329 1.356 . S
N327 H332 0.984 . S
N327 H333 0.985 . S
C328 C322 1.379 . S
C328 C325 1.363 . S
C328 N326 1.356 . S
C329 C323 1.363 . S
C329 C324 1.379 . S
C329 N327 1.356 . S
N330 C322 1.356 . S
N330 H336 0.984 . S
N330 H337 0.984 . S
N331 C324 1.356 . S
N331 H334 0.984 . S
N331 H335 0.985 . S
H332 N327 0.984 . S
H333 N327 0.985 . S
H334 N331 0.984 . S
H335 N331 0.985 . S
H336 N330 0.984 . S
H337 N330 0.984 . S
H338 N326 0.984 . S
H339 N326 0.985 . S
C340 C341 1.363 . S
C340 C346 1.379 . S
C340 N348 1.356 . S
C341 C340 1.363 . S
C341 C347 1.363 . S
C342 C343 1.363 . S
C342 C347 1.379 . S
C342 N349 1.356 . S
C343 C342 1.363 . S
C343 C346 1.363 . S
N344 C346 1.356 . S
N344 H356 0.984 . S
N344 H357 0.985 . S
N345 C347 1.356 . S
N345 H350 0.984 . S
N345 H351 0.985 . S
C346 C340 1.379 . S
C346 C343 1.363 . S
C346 N344 1.356 . S
C347 C341 1.363 . S
C347 C342 1.379 . S
C347 N345 1.356 . S
N348 C340 1.356 . S
N348 H354 0.984 . S
N348 H355 0.984 . S
N349 C342 1.356 . S
N349 H352 0.984 . S
N349 H353 0.985 . S
H350 N345 0.984 . S
H351 N345 0.985 . S
H352 N349 0.984 . S
H353 N349 0.985 . S
H354 N348 0.984 . S
H355 N348 0.984 . S
H356 N344 0.984 . S
H357 N344 0.985 . S
C358 C359 1.363 . S
C358 C364 1.379 . S
C358 N366 1.356 . S
C359 C358 1.363 . S
C359 C365 1.363 . S
C360 C361 1.363 . S
C360 C365 1.379 . S
C360 N367 1.356 . S
C361 C360 1.363 . S
C361 C364 1.363 . S
N362 C364 1.356 . S
N362 H374 0.984 . S
N362 H375 0.985 . S
N363 C365 1.356 . S
N363 H368 0.984 . S
N363 H369 0.985 . S
C364 C358 1.379 . S
C364 C361 1.363 . S
C364 N362 1.356 . S
C365 C359 1.363 . S
C365 C360 1.379 . S
C365 N363 1.356 . S
N366 C358 1.356 . S
N366 H372 0.984 . S
N366 H373 0.984 . S
N367 C360 1.356 . S
N367 H370 0.984 . S
N367 H371 0.985 . S
H368 N363 0.984 . S
H369 N363 0.985 . S
H370 N367 0.984 . S
H371 N367 0.985 . S
H372 N366 0.984 . S
H373 N366 0.984 . S
H374 N362 0.984 . S
H375 N362 0.985 . S
C376 C377 1.363 . S
C376 C382 1.379 . S
C376 N384 1.356 . S
C377 C376 1.363 . S
C377 C383 1.363 . S
C378 C379 1.363 . S
C378 C383 1.379 . S
C378 N385 1.356 . S
C379 C378 1.363 . S
C379 C382 1.363 . S
N380 C382 1.356 . S
N380 H392 0.984 . S
N380 H393 0.985 . S
N381 C383 1.356 . S
N381 H386 0.984 . S
N381 H387 0.985 . S
C382 C376 1.379 . S
C382 C379 1.363 . S
C382 N380 1.356 . S
C383 C377 1.363 . S
C383 C378 1.379 . S
C383 N381 1.356 . S
N384 C376 1.356 . S
N384 H390 0.984 . S
N384 H391 0.984 . S
N385 C378 1.356 . S
N385 H388 0.984 . S
N385 H389 0.985 . S
H386 N381 0.984 . S
H387 N381 0.985 . S
H388 N385 0.984 . S
H389 N385 0.985 . S
H390 N384 0.984 . S
H391 N384 0.984 . S
H392 N380 0.984 . S
H393 N380 0.985 . S
C394 C395 1.363 . S
C394 C400 1.379 . S
C394 N402 1.356 . S
C395 C394 1.363 . S
C395 C401 1.363 . S
C396 C397 1.363 . S
C396 C401 1.379 . S
C396 N403 1.356 . S
C397 C396 1.363 . S
C397 C400 1.363 . S
N398 C400 1.356 . S
N398 H410 0.984 1_565 S
N398 H411 0.985 1_565 S
N399 C401 1.356 . S
N399 H404 0.984 . S
N399 H405 0.985 . S
C400 C394 1.379 . S
C400 C397 1.363 . S
C400 N398 1.356 . S
C401 C395 1.363 . S
C401 C396 1.379 . S
C401 N399 1.356 . S
N402 C394 1.356 . S
N402 H408 0.984 . S
N402 H409 0.984 . S
N403 C396 1.356 . S
N403 H406 0.984 . S
N403 H407 0.985 . S
H404 N399 0.984 . S
H405 N399 0.985 . S
H406 N403 0.984 . S
H407 N403 0.985 . S
H408 N402 0.984 . S
H409 N402 0.984 . S
H410 N398 0.984 1_545 S
H411 N398 0.985 1_545 S
C412 C413 1.363 . S
C412 C418 1.379 . S
C412 N420 1.356 . S
C413 C412 1.363 . S
C413 C419 1.363 . S
C414 C415 1.363 . S
C414 C419 1.379 . S
C414 N421 1.356 . S
C415 C414 1.363 . S
C415 C418 1.363 . S
N416 C418 1.356 . S
N416 H428 0.984 . S
N416 H429 0.985 . S
N417 C419 1.356 . S
N417 H422 0.984 . S
N417 H423 0.985 . S
C418 C412 1.379 . S
C418 C415 1.363 . S
C418 N416 1.356 . S
C419 C413 1.363 . S
C419 C414 1.379 . S
C419 N417 1.356 . S
N420 C412 1.356 . S
N420 H426 0.984 . S
N420 H427 0.984 . S
N421 C414 1.356 . S
N421 H424 0.984 . S
N421 H425 0.985 . S
H422 N417 0.984 . S
H423 N417 0.985 . S
H424 N421 0.984 . S
H425 N421 0.985 . S
H426 N420 0.984 . S
H427 N420 0.984 . S
H428 N416 0.984 . S
H429 N416 0.985 . S
C430 C431 1.363 . S
C430 C436 1.379 . S
C430 N438 1.356 . S
C431 C430 1.363 . S
C431 C437 1.363 . S
C432 C433 1.363 . S
C432 C437 1.379 . S
C432 N439 1.356 . S
C433 C432 1.363 . S
C433 C436 1.363 . S
N434 C436 1.356 . S
N434 H446 0.984 1_545 S
N434 H447 0.984 . S
N435 C437 1.356 . S
N435 H440 0.984 . S
N435 H441 0.985 . S
C436 C430 1.379 . S
C436 C433 1.363 . S
C436 N434 1.356 . S
C437 C431 1.363 . S
C437 C432 1.379 . S
C437 N435 1.356 . S
N438 C430 1.356 . S
N438 H444 0.984 . S
N438 H445 0.984 . S
N439 C432 1.356 . S
N439 H442 0.984 . S
N439 H443 0.985 . S
H440 N435 0.984 . S
H441 N435 0.985 . S
H442 N439 0.984 . S
H443 N439 0.985 . S
H444 N438 0.984 . S
H445 N438 0.984 . S
H446 N434 0.984 1_565 S
H447 N434 0.984 . S
C448 C449 1.363 1_556 S
C448 C454 1.379 . S
C448 N456 1.356 . S
C449 C448 1.363 1_554 S
C449 C455 1.363 . S
C450 C451 1.363 . S
C450 C455 1.379 . S
C450 N457 1.356 . S
C451 C450 1.363 . S
C451 C454 1.363 1_554 S
N452 C454 1.356 . S
N452 H464 0.984 . S
N452 H465 0.985 . S
N453 C455 1.356 . S
N453 H458 0.984 . S
N453 H459 0.985 . S
C454 C448 1.379 . S
C454 C451 1.363 1_556 S
C454 N452 1.356 . S
C455 C449 1.363 . S
C455 C450 1.379 . S
C455 N453 1.356 . S
N456 C448 1.356 . S
N456 H462 0.984 . S
N456 H463 0.984 . S
N457 C450 1.356 . S
N457 H460 0.984 . S
N457 H461 0.985 . S
H458 N453 0.984 . S
H459 N453 0.985 . S
H460 N457 0.984 . S
H461 N457 0.985 . S
H462 N456 0.984 . S
H463 N456 0.984 . S
H464 N452 0.984 . S
H465 N452 0.985 . S
C466 C467 1.363 . S
C466 C472 1.379 . S
C466 N474 1.356 . S
C467 C466 1.363 . S
C467 C473 1.363 . S
C468 C469 1.363 . S
C468 C473 1.379 . S
C468 N475 1.356 . S
C469 C468 1.363 . S
C469 C472 1.363 . S
N470 C472 1.356 . S
N470 H482 0.984 . S
N470 H483 0.985 . S
N471 C473 1.356 . S
N471 H476 0.984 . S
N471 H477 0.985 . S
C472 C466 1.379 . S
C472 C469 1.363 . S
C472 N470 1.356 . S
C473 C467 1.363 . S
C473 C468 1.379 . S
C473 N471 1.356 . S
N474 C466 1.356 . S
N474 H480 0.984 . S
N474 H481 0.984 . S
N475 C468 1.356 . S
N475 H478 0.984 . S
N475 H479 0.985 . S
H476 N471 0.984 . S
H477 N471 0.985 . S
H478 N475 0.984 . S
H479 N475 0.985 . S
H480 N474 0.984 . S
H481 N474 0.984 . S
H482 N470 0.984 . S
H483 N470 0.985 . S
C484 C485 1.363 . S
C484 C490 1.379 . S
C484 N492 1.356 . S
C485 C484 1.363 . S
C485 C491 1.363 1_554 S
C486 C487 1.363 1_556 S
C486 C491 1.379 . S
C486 N493 1.356 . S
C487 C486 1.363 1_554 S
C487 C490 1.363 . S
N488 C490 1.356 . S
N488 H500 0.984 . S
N488 H501 0.985 . S
N489 C491 1.356 . S
N489 H494 0.984 . S
N489 H495 0.985 . S
C490 C484 1.379 . S
C490 C487 1.363 . S
C490 N488 1.356 . S
C491 C485 1.363 1_556 S
C491 C486 1.379 . S
C491 N489 1.356 . S
N492 C484 1.356 . S
N492 H498 0.984 . S
N492 H499 0.984 . S
N493 C486 1.356 . S
N493 H496 0.984 . S
N493 H497 0.985 . S
H494 N489 0.984 . S
H495 N489 0.985 . S
H496 N493 0.984 . S
H497 N493 0.985 . S
H498 N492 0.984 . S
H499 N492 0.984 . S
H500 N488 0.984 . S
H501 N488 0.985 . S
C502 C503 1.363 . S
C502 C508 1.379 . S
C502 N510 1.356 . S
C503 C502 1.363 . S
C503 C509 1.363 . S
C504 C505 1.363 . S
C504 C509 1.379 . S
C504 N511 1.356 . S
C505 C504 1.363 . S
C505 C508 1.363 . S
N506 C508 1.356 . S
N506 H518 0.984 . S
N506 H519 0.985 . S
N507 C509 1.356 . S
N507 H512 0.984 . S
N507 H513 0.985 . S
C508 C502 1.379 . S
C508 C505 1.363 . S
C508 N506 1.356 . S
C509 C503 1.363 . S
C509 C504 1.379 . S
C509 N507 1.356 . S
N510 C502 1.356 . S
N510 H516 0.984 . S
N510 H517 0.984 . S
N511 C504 1.356 . S
N511 H514 0.984 . S
N511 H515 0.985 . S
H512 N507 0.984 . S
H513 N507 0.985 . S
H514 N511 0.984 . S
H515 N511 0.985 . S
H516 N510 0.984 . S
H517 N510 0.984 . S
H518 N506 0.984 . S
H519 N506 0.985 . S
C520 C521 1.363 . S
C520 C526 1.379 . S
C520 N528 1.356 . S
C521 C520 1.363 . S
C521 C527 1.363 . S
C522 C523 1.363 . S
C522 C527 1.379 . S
C522 N529 1.356 . S
C523 C522 1.363 . S
C523 C526 1.363 . S
N524 C526 1.356 . S
N524 H536 0.984 . S
N524 H537 0.985 . S
N525 C527 1.356 . S
N525 H530 0.984 . S
N525 H531 0.985 . S
C526 C520 1.379 . S
C526 C523 1.363 . S
C526 N524 1.356 . S
C527 C521 1.363 . S
C527 C522 1.379 . S
C527 N525 1.356 . S
N528 C520 1.356 . S
N528 H534 0.984 . S
N528 H535 0.984 . S
N529 C522 1.356 . S
N529 H532 0.984 . S
N529 H533 0.985 . S
H530 N525 0.984 . S
H531 N525 0.985 . S
H532 N529 0.984 . S
H533 N529 0.985 . S
H534 N528 0.984 . S
H535 N528 0.984 . S
H536 N524 0.984 . S
H537 N524 0.985 . S
C538 C539 1.363 1_556 S
C538 C544 1.379 . S
C538 N546 1.356 . S
C539 C538 1.363 1_554 S
C539 C545 1.363 . S
C540 C541 1.363 . S
C540 C545 1.379 . S
C540 N547 1.356 . S
C541 C540 1.363 . S
C541 C544 1.363 1_554 S
N542 C544 1.356 . S
N542 H554 0.984 . S
N542 H555 0.985 . S
N543 C545 1.356 . S
N543 H548 0.984 . S
N543 H549 0.985 . S
C544 C538 1.379 . S
C544 C541 1.363 1_556 S
C544 N542 1.356 . S
C545 C539 1.363 . S
C545 C540 1.379 . S
C545 N543 1.356 . S
N546 C538 1.356 . S
N546 H552 0.984 . S
N546 H553 0.984 . S
N547 C540 1.356 . S
N547 H550 0.984 . S
N547 H551 0.985 . S
H548 N543 0.984 . S
H549 N543 0.985 . S
H550 N547 0.984 . S
H551 N547 0.985 . S
H552 N546 0.984 . S
H553 N546 0.984 . S
H554 N542 0.984 . S
H555 N542 0.985 . S
C556 C557 1.363 . S
C556 C562 1.379 . S
C556 N564 1.356 . S
C557 C556 1.363 . S
C557 C563 1.363 . S
C558 C559 1.363 . S
C558 C563 1.379 . S
C558 N565 1.356 . S
C559 C558 1.363 . S
C559 C562 1.363 . S
N560 C562 1.356 . S
N560 H572 0.984 . S
N560 H573 0.985 . S
N561 C563 1.356 . S
N561 H566 0.984 . S
N561 H567 0.985 . S
C562 C556 1.379 . S
C562 C559 1.363 . S
C562 N560 1.356 . S
C563 C557 1.363 . S
C563 C558 1.379 . S
C563 N561 1.356 . S
N564 C556 1.356 . S
N564 H570 0.984 . S
N564 H571 0.984 . S
N565 C558 1.356 . S
N565 H568 0.984 . S
N565 H569 0.985 . S
H566 N561 0.984 . S
H567 N561 0.985 . S
H568 N565 0.984 . S
H569 N565 0.985 . S
H570 N564 0.984 . S
H571 N564 0.984 . S
H572 N560 0.984 . S
H573 N560 0.985 . S
C574 C575 1.363 1_556 S
C574 C580 1.379 . S
C574 N582 1.356 . S
C575 C574 1.363 1_554 S
C575 C581 1.363 . S
C576 C577 1.363 . S
C576 C581 1.379 . S
C576 N583 1.356 . S
C577 C576 1.363 . S
C577 C580 1.363 1_554 S
N578 C580 1.356 . S
N578 H590 0.984 . S
N578 H591 0.985 . S
N579 C581 1.356 . S
N579 H584 0.984 . S
N579 H585 0.985 . S
C580 C574 1.379 . S
C580 C577 1.363 1_556 S
C580 N578 1.356 . S
C581 C575 1.363 . S
C581 C576 1.379 . S
C581 N579 1.356 . S
N582 C574 1.356 . S
N582 H588 0.984 . S
N582 H589 0.984 . S
N583 C576 1.356 . S
N583 H586 0.984 . S
N583 H587 0.985 . S
H584 N579 0.984 . S
H585 N579 0.985 . S
H586 N583 0.984 . S
H587 N583 0.985 . S
H588 N582 0.984 . S
H589 N582 0.984 . S
H590 N578 0.984 . S
H591 N578 0.985 . S
C161 C21 1.516 . S
C163 C119 1.525 . S
C179 C40 1.553 . S
C181 C93 1.523 . S
C199 C102 1.474 . S
C197 C54 1.491 . S
C215 C73 1.578 . S
C217 C110 1.554 . S
C235 C138 1.475 . S
C233 C74 1.491 . S
C253 C146 1.517 . S
C251 C10 1.554 . S
C271 C155 1.526 . S
C269 C37 1.516 . S
C289 C129 1.560 . S
C287 C65 1.578 . S
C305 C52 1.491 . S
C307 C101 1.475 . S
C323 C87 1.574 . S
C325 C111 1.550 . S
C341 C15 1.516 . S
C343 C120 1.526 . S
C361 C92 1.519 . S
C359 C32 1.548 . S
C377 C29 1.516 . S
C379 C156 1.526 . S
C397 C128 1.557 . S
C395 C59 1.574 . S
C415 C137 1.475 . S
C413 C84 1.491 . S
C431 C8 1.549 . S
C433 C147 1.513 . S
C451 C95 1.597 . S
C449 C7 1.628 . S
C469 C104 1.541 . S
C467 C30 1.558 . S
C485 C62 1.638 . S
C487 C113 1.594 . S
C503 C81 1.552 . S
C505 C122 1.556 . S
C523 C131 1.602 . S
C521 C76 1.638 . S
C539 C18 1.558 1_554 S
C541 C140 1.541 . S
C557 C43 1.628 . S
C559 C149 1.590 . S
C575 C51 1.551 1_554 S
C577 C158 1.556 . S
