# Generated by pormake.
# Topology pth, (4,4)-cn, num edge types: 1
# Building blocks:
#     Node 0, Type 0, BuildingBlock: KUFVIS_clean_sbu_0, # of connection points: 4
#     Node 1, Type 0, BuildingBlock: KUFVIS_clean_sbu_0, # of connection points: 4
#     Node 2, Type 0, BuildingBlock: KUFVIS_clean_sbu_0, # of connection points: 4
#     Node 3, Type 1, BuildingBlock: NAHDIM_clean_linker_0, # of connection points: 4
#     Node 4, Type 1, BuildingBlock: NAHDIM_clean_linker_0, # of connection points: 4
#     Node 5, Type 1, BuildingBlock: NAHDIM_clean_linker_0, # of connection points: 4
#     Edge 6, Type (0, 1), BuildingBlock: CIFDUS_clean_linker_0, # of connection points: 2
#     Edge 7, Type (0, 1), BuildingBlock: CIFDUS_clean_linker_0, # of connection points: 2
#     Edge 8, Type (0, 1), BuildingBlock: CIFDUS_clean_linker_0, # of connection points: 2
#     Edge 9, Type (0, 1), BuildingBlock: CIFDUS_clean_linker_0, # of connection points: 2
#     Edge 10, Type (0, 1), BuildingBlock: CIFDUS_clean_linker_0, # of connection points: 2
#     Edge 11, Type (0, 1), BuildingBlock: CIFDUS_clean_linker_0, # of connection points: 2
#     Edge 12, Type (0, 1), BuildingBlock: CIFDUS_clean_linker_0, # of connection points: 2
#     Edge 13, Type (0, 1), BuildingBlock: CIFDUS_clean_linker_0, # of connection points: 2
#     Edge 14, Type (0, 1), BuildingBlock: CIFDUS_clean_linker_0, # of connection points: 2
#     Edge 15, Type (0, 1), BuildingBlock: CIFDUS_clean_linker_0, # of connection points: 2
#     Edge 16, Type (0, 1), BuildingBlock: CIFDUS_clean_linker_0, # of connection points: 2
#     Edge 17, Type (0, 1), BuildingBlock: CIFDUS_clean_linker_0, # of connection points: 2
# Relax obj value: 0.014
# Max RMSD: 0.083
# Mean RMSD: 0.063
data_MOF--net-pth--node1-KUFVIS_clean_sbu_0--node2-NAHDIM_clean_linker_0--edge1-CIFDUS_clean_linker_0
_symmetry_space_group_name_H-M    P1
_symmetry_Int_Tables_number       1
_symmetry_cell_setting            triclinic
loop_
_symmetry_equiv_pos_as_xyz
'x, y, z'
_cell_length_a     28.733359
_cell_length_b     28.788593
_cell_length_c     74.426376
_cell_angle_alpha  90.087383
_cell_angle_beta   92.511533
_cell_angle_gamma 120.33628
loop_
_atom_site_label
_atom_site_type_symbol
_atom_site_fract_x
_atom_site_fract_y
_atom_site_fract_z
_atom_type_partial_charge
Mn0 Mn 0.04828 0.09918 0.07201 0.0
Mn1 Mn 0.00371 0.17001 0.04801 0.0
C2 C 0.99261 0.06077 0.04663 0.0
C3 C 0.04148 0.04254 0.09533 0.0
C4 C 0.11607 0.1873 0.04562 0.0
O5 O 0.06288 0.1599 0.08941 0.0
O6 O 0.03205 0.2043 0.07235 0.0
C7 C 0.91052 0.14578 0.06971 0.0
N8 N 0.93064 0.14525 0.05353 0.0
C9 C 0.84237 0.10562 0.03863 0.0
C10 C 0.82074 0.10607 0.05511 0.0
C11 C 0.85496 0.12611 0.07073 0.0
C12 C 0.89804 0.1258 0.03844 0.0
H13 H 0.93668 0.16101 0.08174 0.0
C14 C 0.0538 0.19849 0.08693 0.0
O15 O 0.08742 0.07494 0.08854 0.0
O16 O 0.99951 0.04398 0.08886 0.0
N17 N 0.97522 0.1424 0.02416 0.0
C18 C 0.00226 0.14342 0.00944 0.0
C19 C 0.97373 0.12397 0.99275 0.0
C20 C 0.91791 0.10436 0.99133 0.0
C21 C 0.89117 0.10475 0.00659 0.0
C22 C 0.92178 0.12491 0.02284 0.0
H23 H 0.04519 0.15856 0.01044 0.0
O24 O 0.0232 0.04257 0.05271 0.0
O25 O 0.99489 0.10068 0.0557 0.0
O26 O 0.11058 0.15199 0.05699 0.0
O27 O 0.07853 0.19715 0.04117 0.0
C28 C 0.83519 0.08499 0.00641 0.0
C29 C 0.81078 0.08528 0.02242 0.0
H30 H 0.77789 0.0908 0.05596 0.0
H31 H 0.83852 0.12635 0.08351 0.0
H32 H 0.99468 0.12387 0.98103 0.0
H33 H 0.89594 0.08883 0.97848 0.0
H34 H 0.81042 0.06886 0.99406 0.0
H35 H 0.7676 0.0694 0.02215 0.0
Mn36 Mn 0.98847 0.03012 0.39243 0.0
Mn37 Mn 0.07175 0.15861 0.40712 0.0
C38 C 0.05299 0.04847 0.41517 0.0
C39 C 0.96624 0.95886 0.37249 0.0
C40 C 0.95503 0.0918 0.41715 0.0
O41 O 0.97968 0.07407 0.37267 0.0
O42 O 0.04256 0.15793 0.38231 0.0
C43 C 0.15888 0.18829 0.38193 0.0
N44 N 0.1427 0.18401 0.39907 0.0
C45 C 0.23383 0.22063 0.41127 0.0
C46 C 0.25158 0.22614 0.39373 0.0
C47 C 0.21389 0.20964 0.379 0.0
C48 C 0.17852 0.1991 0.41334 0.0
H49 H 0.12999 0.17525 0.37059 0.0
C50 C 0.00699 0.12483 0.37063 0.0
O51 O 0.92949 0.96232 0.38094 0.0
O52 O 0.01589 0.99746 0.37533 0.0
N53 N 0.10364 0.1659 0.43086 0.0
C54 C 0.07961 0.15517 0.44692 0.0
C55 C 0.11154 0.16785 0.46301 0.0
C56 C 0.16784 0.19198 0.46244 0.0
C57 C 0.19173 0.2033 0.44578 0.0
C58 C 0.15789 0.19002 0.43019 0.0
H59 H 0.03639 0.13686 0.44747 0.0
O60 O 0.01141 0.00034 0.41296 0.0
O61 O 0.05601 0.08416 0.40387 0.0
O62 O 0.9453 0.04857 0.40904 0.0
O63 O 0.00017 0.13584 0.41667 0.0
C64 C 0.2477 0.22623 0.44401 0.0
C65 C 0.26871 0.2347 0.42677 0.0
H66 H 0.29394 0.24241 0.39142 0.0
H67 H 0.22721 0.21329 0.36543 0.0
H68 H 0.09278 0.15891 0.47581 0.0
H69 H 0.19227 0.20114 0.47487 0.0
H70 H 0.27482 0.23662 0.45582 0.0
H71 H 0.31169 0.25148 0.42558 0.0
Mn72 Mn 0.03729 0.05925 0.73666 0.0
Mn73 Mn 0.98615 0.12208 0.76013 0.0
C74 C 0.08105 0.10661 0.76308 0.0
C75 C 0.09274 0.06046 0.71448 0.0
C76 C 0.93838 0.0008 0.75914 0.0
O77 O 0.98488 0.06389 0.71831 0.0
O78 O 0.96011 0.11336 0.73458 0.0
C79 C 0.04091 0.22881 0.74342 0.0
N80 N 0.03018 0.19838 0.75834 0.0
C81 C 0.08313 0.27715 0.77743 0.0
C82 C 0.09452 0.30935 0.76228 0.0
C83 C 0.07342 0.28504 0.7452 0.0
C84 C 0.05037 0.22133 0.77483 0.0
H85 H 0.02482 0.2103 0.73026 0.0
C86 C 0.96015 0.09012 0.71988 0.0
O87 O 0.05284 0.01545 0.71975 0.0
O88 O 0.09898 0.10448 0.72163 0.0
N89 N 0.0096 0.13368 0.78505 0.0
C90 C 0.99759 0.09674 0.79811 0.0
C91 C 0.01716 0.11439 0.81591 0.0
C92 C 0.04851 0.16975 0.82012 0.0
C93 C 0.0601 0.20702 0.80647 0.0
C94 C 0.03934 0.18707 0.78899 0.0
H95 H 0.97344 0.05415 0.79496 0.0
O96 O 0.08972 0.06937 0.75717 0.0
O97 O 0.04683 0.11417 0.7535 0.0
O98 O 0.97431 9e-05 0.74986 0.0
O99 O 0.93831 0.04392 0.76317 0.0
C100 C 0.09232 0.26312 0.80946 0.0
C101 C 0.10389 0.29816 0.79494 0.0
H102 H 0.1198 0.35272 0.76358 0.0
H103 H 0.08223 0.3096 0.73343 0.0
H104 H 0.00822 0.08538 0.82636 0.0
H105 H 0.06394 0.18319 0.83383 0.0
H106 H 0.10917 0.2797 0.82282 0.0
H107 H 0.12943 0.34115 0.79736 0.0
C108 C 0.88217 0.64666 0.33767 0.0
C109 C 0.92899 0.68978 0.32735 0.0
C110 C 0.93536 0.66712 0.29657 0.0
C111 C 0.99123 0.68824 0.29617 0.0
C112 C 0.01225 0.66594 0.28451 0.0
C113 C 0.97652 0.62168 0.27307 0.0
C114 C 0.92045 0.60282 0.27257 0.0
C115 C 0.90059 0.62634 0.28425 0.0
C116 C 0.07241 0.68814 0.28497 0.0
C117 C 0.88137 0.55613 0.26036 0.0
C118 C 0.00694 0.28188 0.32256 0.0
C119 C 0.99189 0.31012 0.30891 0.0
C120 C 0.02544 0.40136 0.29803 0.0
C121 C 0.98439 0.38664 0.28449 0.0
C122 C 0.9831 0.42567 0.27355 0.0
C123 C 0.02433 0.48023 0.27594 0.0
C124 C 0.0664 0.49491 0.28926 0.0
C125 C 0.06613 0.45521 0.30021 0.0
C126 C 0.93723 0.40871 0.25962 0.0
C127 C 0.11127 0.5526 0.29208 0.0
C128 C 0.15801 0.47364 0.17248 0.0
C129 C 0.10189 0.44785 0.17371 0.0
C130 C 0.07735 0.4767 0.17925 0.0
C131 C 0.11 0.53197 0.1843 0.0
C132 C 0.16648 0.55836 0.18233 0.0
C133 C 0.18954 0.52891 0.17607 0.0
C134 C 0.01674 0.44761 0.18021 0.0
C135 C 0.20282 0.61726 0.18731 0.0
C136 C 0.03388 0.84839 0.18414 0.0
C137 C 0.06888 0.85231 0.16858 0.0
C138 C 0.05422 0.76098 0.16639 0.0
C139 C 0.01111 0.70833 0.16363 0.0
C140 C 0.01331 0.66451 0.17099 0.0
C141 C 0.06019 0.6738 0.18112 0.0
C142 C 0.10528 0.72657 0.18294 0.0
C143 C 0.10194 0.76958 0.1755 0.0
C144 C 0.96482 0.60864 0.16862 0.0
C145 C 0.15647 0.73772 0.19325 0.0
C146 C 0.99712 0.59124 0.26336 0.0
C147 C 0.0014 0.55163 0.27284 0.0
C148 C 0.02212 0.52222 0.26504 0.0
C149 C 0.03933 0.53249 0.24725 0.0
C150 C 0.0624 0.50516 0.23925 0.0
C151 C 0.07835 0.51488 0.22164 0.0
C152 C 0.07118 0.55179 0.21121 0.0
C153 C 0.086 0.56089 0.19309 0.0
C154 C 0.08025 0.59952 0.18339 0.0
C155 C 0.06044 0.62971 0.19137 0.0
C156 C 0.04427 0.6202 0.20932 0.0
C157 C 0.02371 0.64952 0.21769 0.0
C158 C 0.00835 0.64026 0.2354 0.0
C159 C 0.01281 0.60124 0.2454 0.0
C160 C 0.03376 0.57149 0.23729 0.0
C161 C 0.04948 0.58096 0.21922 0.0
C162 C 0.22394 0.39994 0.18052 0.0
C163 C 0.17094 0.39632 0.17396 0.0
O164 O 0.91403 0.68399 0.30916 0.0
O165 O 0.04825 0.80219 0.16015 0.0
O166 O 0.18291 0.4464 0.16778 0.0
O167 O 0.02709 0.36529 0.30938 0.0
H168 H 0.96302 0.68216 0.33 0.0
H169 H 0.87453 0.60617 0.33358 0.0
H170 H 0.84444 0.64761 0.33475 0.0
H171 H 0.89234 0.65253 0.35239 0.0
H172 H 0.01824 0.7213 0.30528 0.0
H173 H 0.85757 0.61102 0.28449 0.0
H174 H 0.08164 0.65831 0.29104 0.0
H175 H 0.09511 0.7265 0.29296 0.0
H176 H 0.0868 0.69506 0.27109 0.0
H177 H 0.83934 0.54804 0.2609 0.0
H178 H 0.88214 0.51934 0.26433 0.0
H179 H 0.89382 0.5644 0.24627 0.0
H180 H 0.94844 0.2984 0.30832 0.0
H181 H 0.9724 0.26393 0.33181 0.0
H182 H 0.03594 0.3134 0.33275 0.0
H183 H 0.02801 0.23427 0.30707 0.0
H184 H 0.95288 0.34498 0.28252 0.0
H185 H 0.09773 0.4661 0.31064 0.0
H186 H 0.95319 0.4159 0.24596 0.0
H187 H 0.91778 0.43327 0.26133 0.0
H188 H 0.90605 0.36547 0.26043 0.0
H189 H 0.14445 0.55632 0.30134 0.0
H190 H 0.09482 0.57656 0.29788 0.0
H191 H 0.12815 0.57028 0.27901 0.0
H192 H 0.14497 0.38554 0.18572 0.0
H193 H 0.07734 0.40527 0.17031 0.0
H194 H 0.23277 0.54848 0.17471 0.0
H195 H 0.00594 0.43698 0.19435 0.0
H196 H 0.99679 0.40981 0.17187 0.0
H197 H 0.00055 0.47367 0.17567 0.0
H198 H 0.24628 0.62991 0.18712 0.0
H199 H 0.19443 0.6262 0.20092 0.0
H200 H 0.19466 0.64179 0.17759 0.0
H201 H 0.11014 0.86686 0.17455 0.0
H202 H 0.04797 0.88898 0.19016 0.0
H203 H 0.03702 0.82293 0.19478 0.0
H204 H 0.99074 0.82986 0.17954 0.0
H205 H 0.97484 0.70186 0.15627 0.0
H206 H 0.13684 0.80959 0.17688 0.0
H207 H 0.94738 0.59401 0.18187 0.0
H208 H 0.97722 0.58053 0.16343 0.0
H209 H 0.93303 0.60744 0.15924 0.0
H210 H 0.18898 0.78052 0.19266 0.0
H211 H 0.17124 0.71192 0.18776 0.0
H212 H 0.14797 0.72746 0.20756 0.0
H213 H 0.98861 0.54372 0.28656 0.0
H214 H 0.06849 0.47598 0.24655 0.0
H215 H 0.09624 0.49283 0.21631 0.0
H216 H 0.09257 0.60711 0.16963 0.0
H217 H 0.01913 0.67996 0.21066 0.0
H218 H 0.99277 0.66394 0.24116 0.0
H219 H 0.25093 0.40893 0.16919 0.0
H220 H 0.21633 0.36169 0.18663 0.0
H221 H 0.24493 0.43263 0.19095 0.0
C222 C 0.38677 0.10816 0.67983 0.0
C223 C 0.35782 0.12179 0.66479 0.0
C224 C 0.38059 0.08844 0.63837 0.0
C225 C 0.42264 0.13719 0.63223 0.0
C226 C 0.46009 0.1377 0.62063 0.0
C227 C 0.45543 0.0885 0.61504 0.0
C228 C 0.41227 0.03925 0.62078 0.0
C229 C 0.37499 0.0399 0.63222 0.0
C230 C 0.50473 0.19087 0.61435 0.0
C231 C 0.40593 0.98605 0.61496 0.0
C232 C 0.86641 0.21031 0.62839 0.0
C233 C 0.82343 0.18136 0.64218 0.0
C234 C 0.73403 0.12699 0.62673 0.0
C235 C 0.69123 0.07431 0.62382 0.0
C236 C 0.64168 0.06383 0.61577 0.0
C237 C 0.63514 0.10733 0.61036 0.0
C238 C 0.67832 0.16081 0.61315 0.0
C239 C 0.72745 0.17015 0.62121 0.0
C240 C 0.59654 0.00634 0.61282 0.0
C241 C 0.67269 0.20809 0.6074 0.0
C242 C 0.66798 0.06114 0.494 0.0
C243 C 0.62746 0.01581 0.50242 0.0
C244 C 0.58846 0.01924 0.5121 0.0
C245 C 0.59026 0.06909 0.51364 0.0
C246 C 0.63015 0.11451 0.5049 0.0
C247 C 0.6683 0.10978 0.49509 0.0
C248 C 0.54587 0.96969 0.52099 0.0
C249 C 0.63316 0.16825 0.50626 0.0
C250 C 0.26756 0.13862 0.5125 0.0
C251 C 0.27259 0.11294 0.49511 0.0
C252 C 0.32698 0.07226 0.50451 0.0
C253 C 0.32545 0.02363 0.50754 0.0
C254 C 0.37143 0.02268 0.51416 0.0
C255 C 0.42006 0.07179 0.51788 0.0
C256 C 0.4226 0.12116 0.51423 0.0
C257 C 0.37608 0.12097 0.5076 0.0
C258 C 0.36766 0.96937 0.51777 0.0
C259 C 0.47411 0.17426 0.51792 0.0
C260 C 0.49591 0.08872 0.60324 0.0
C261 C 0.54372 0.09521 0.61136 0.0
C262 C 0.58405 0.09705 0.60102 0.0
C263 C 0.57638 0.09122 0.58209 0.0
C264 C 0.6158 0.09195 0.57134 0.0
C265 C 0.60792 0.08626 0.55272 0.0
C266 C 0.56052 0.08013 0.5441 0.0
C267 C 0.55196 0.074 0.52516 0.0
C268 C 0.50553 0.07054 0.51697 0.0
C269 C 0.46675 0.07205 0.52726 0.0
C270 C 0.47346 0.07576 0.54624 0.0
C271 C 0.43422 0.07548 0.557 0.0
C272 C 0.44127 0.07936 0.57566 0.0
C273 C 0.48807 0.0842 0.58429 0.0
C274 C 0.52831 0.08502 0.5737 0.0
C275 C 0.52071 0.0802 0.55467 0.0
C276 C 0.74625 0.01595 0.50201 0.0
C277 C 0.71856 0.01834 0.48421 0.0
O278 O 0.34489 0.08675 0.65014 0.0
O279 O 0.28012 0.0701 0.49899 0.0
O280 O 0.70764 0.06005 0.48493 0.0
O281 O 0.78079 0.1341 0.63467 0.0
H282 H 0.38541 0.1639 0.66091 0.0
H283 H 0.42534 0.11359 0.67514 0.0
H284 H 0.3613 0.06574 0.68387 0.0
H285 H 0.39624 0.13532 0.69176 0.0
H286 H 0.42614 0.17501 0.63617 0.0
H287 H 0.34204 0.00245 0.63683 0.0
H288 H 0.54435 0.197 0.61949 0.0
H289 H 0.50095 0.22543 0.61902 0.0
H290 H 0.50452 0.1905 0.59942 0.0
H291 H 0.37107 0.95134 0.621 0.0
H292 H 0.44325 0.98521 0.61886 0.0
H293 H 0.40018 0.98135 0.60008 0.0
H294 H 0.80914 0.20892 0.64644 0.0
H295 H 0.90126 0.24744 0.63459 0.0
H296 H 0.84931 0.22206 0.61679 0.0
H297 H 0.88092 0.18386 0.62325 0.0
H298 H 0.69678 0.04128 0.62797 0.0
H299 H 0.76051 0.21117 0.62289 0.0
H300 H 0.58627 0.99756 0.59818 0.0
H301 H 0.55984 0.0005 0.61923 0.0
H302 H 0.60739 0.97705 0.61837 0.0
H303 H 0.70983 0.24733 0.61072 0.0
H304 H 0.63847 0.20711 0.61411 0.0
H305 H 0.66345 0.20522 0.59266 0.0
H306 H 0.68026 0.97945 0.48173 0.0
H307 H 0.62597 0.9776 0.50172 0.0
H308 H 0.69939 0.14448 0.48851 0.0
H309 H 0.5534 0.97484 0.53582 0.0
H310 H 0.54577 0.93265 0.51671 0.0
H311 H 0.50522 0.96414 0.51782 0.0
H312 H 0.66782 0.2002 0.49922 0.0
H313 H 0.6369 0.18076 0.52062 0.0
H314 H 0.59528 0.16459 0.50032 0.0
H315 H 0.3078 0.14465 0.48817 0.0
H316 H 0.25464 0.16825 0.50932 0.0
H317 H 0.30711 0.16024 0.52016 0.0
H318 H 0.23827 0.10758 0.52136 0.0
H319 H 0.28762 0.98625 0.505 0.0
H320 H 0.37853 0.15916 0.50527 0.0
H321 H 0.37409 0.96617 0.53243 0.0
H322 H 0.39994 0.96695 0.5109 0.0
H323 H 0.32788 0.93468 0.51314 0.0
H324 H 0.47076 0.20897 0.51305 0.0
H325 H 0.50801 0.17415 0.51134 0.0
H326 H 0.48429 0.17995 0.53262 0.0
H327 H 0.54997 0.09967 0.62589 0.0
H328 H 0.65317 0.09671 0.5772 0.0
H329 H 0.63966 0.08709 0.54516 0.0
H330 H 0.49955 0.0667 0.50243 0.0
H331 H 0.39741 0.072 0.55114 0.0
H332 H 0.40966 0.07879 0.58322 0.0
H333 H 0.78408 0.05485 0.50505 0.0
H334 H 0.75607 0.9833 0.50126 0.0
H335 H 0.71929 0.00747 0.51329 0.0
C336 C 0.70533 0.65853 0.77327 0.0
C337 C 0.7218 0.70211 0.78798 0.0
C338 C 0.7027 0.66127 0.81765 0.0
C339 C 0.66391 0.67401 0.82285 0.0
C340 C 0.62975 0.64661 0.83679 0.0
C341 C 0.6352 0.60644 0.84594 0.0
C342 C 0.67566 0.59509 0.84122 0.0
C343 C 0.70914 0.62298 0.8272 0.0
C344 C 0.58767 0.6604 0.84173 0.0
C345 C 0.68304 0.55304 0.85089 0.0
C346 C 0.23191 0.30273 0.86121 0.0
C347 C 0.26119 0.30903 0.84384 0.0
C348 C 0.35884 0.35839 0.85173 0.0
C349 C 0.40497 0.3538 0.85353 0.0
C350 C 0.45585 0.3987 0.85813 0.0
C351 C 0.46059 0.44954 0.86088 0.0
C352 C 0.41436 0.45485 0.8587 0.0
C353 C 0.3639 0.40921 0.8544 0.0
C354 C 0.50431 0.39165 0.86051 0.0
C355 C 0.41804 0.50866 0.86135 0.0
C356 C 0.43096 0.45728 0.97562 0.0
C357 C 0.47739 0.45348 0.97368 0.0
C358 C 0.51914 0.49011 0.96316 0.0
C359 C 0.51445 0.53143 0.95455 0.0
C360 C 0.46954 0.53757 0.95753 0.0
C361 C 0.42846 0.50044 0.96812 0.0
C362 C 0.56706 0.48316 0.96053 0.0
C363 C 0.46371 0.58173 0.94879 0.0
C364 C 0.81403 0.93228 0.94333 0.0
C365 C 0.80436 0.89827 0.96009 0.0
C366 C 0.76356 0.80321 0.95044 0.0
C367 C 0.77135 0.75906 0.95077 0.0
C368 C 0.72953 0.70736 0.94537 0.0
C369 C 0.6789 0.69996 0.93926 0.0
C370 C 0.67078 0.74449 0.93871 0.0
C371 C 0.71315 0.79567 0.94431 0.0
C372 C 0.7394 0.66066 0.94613 0.0
C373 C 0.61731 0.73798 0.93211 0.0
C374 C 0.5977 0.57531 0.86011 0.0
C375 C 0.5501 0.52778 0.85484 0.0
C376 C 0.51281 0.4965 0.86742 0.0
C377 C 0.52363 0.51205 0.88584 0.0
C378 C 0.4878 0.48034 0.89888 0.0
C379 C 0.49762 0.49683 0.91688 0.0
C380 C 0.54347 0.54591 0.92254 0.0
C381 C 0.55279 0.56379 0.94074 0.0
C382 C 0.59787 0.61346 0.94586 0.0
C383 C 0.6344 0.64587 0.93321 0.0
C384 C 0.62656 0.62799 0.91502 0.0
C385 C 0.66314 0.65901 0.90202 0.0
C386 C 0.65433 0.64148 0.88408 0.0
C387 C 0.60812 0.59275 0.8784 0.0
C388 C 0.57095 0.5608 0.8913 0.0
C389 C 0.58054 0.57809 0.90965 0.0
C390 C 0.36385 0.33438 0.97026 0.0
C391 C 0.37384 0.36724 0.98776 0.0
O392 O 0.73547 0.68576 0.80388 0.0
O393 O 0.80579 0.85206 0.95597 0.0
O394 O 0.3872 0.4197 0.98412 0.0
O395 O 0.31067 0.31288 0.84765 0.0
H396 H 0.68618 0.70697 0.78935 0.0
H397 H 0.66807 0.62136 0.77693 0.0
H398 H 0.73744 0.64836 0.77167 0.0
H399 H 0.69685 0.67218 0.76022 0.0
H400 H 0.6605 0.70577 0.81632 0.0
H401 H 0.73989 0.61418 0.82335 0.0
H402 H 0.54687 0.62403 0.84005 0.0
H403 H 0.58861 0.69276 0.83337 0.0
H404 H 0.59419 0.67362 0.8561 0.0
H405 H 0.71744 0.55007 0.84599 0.0
H406 H 0.64564 0.51315 0.84896 0.0
H407 H 0.69001 0.56275 0.86555 0.0
H408 H 0.26674 0.34623 0.83742 0.0
H409 H 0.19044 0.2951 0.85801 0.0
H410 H 0.25406 0.34025 0.86962 0.0
H411 H 0.22957 0.26924 0.86925 0.0
H412 H 0.40082 0.31456 0.85151 0.0
H413 H 0.32887 0.41387 0.85346 0.0
H414 H 0.5222 0.40399 0.87444 0.0
H415 H 0.53559 0.41818 0.85121 0.0
H416 H 0.49392 0.3494 0.85789 0.0
H417 H 0.38004 0.5075 0.85689 0.0
H418 H 0.45166 0.54004 0.85379 0.0
H419 H 0.42673 0.52083 0.87582 0.0
H420 H 0.40724 0.36779 0.99609 0.0
H421 H 0.48072 0.42132 0.97994 0.0
H422 H 0.39294 0.5036 0.96997 0.0
H423 H 0.56607 0.47047 0.94636 0.0
H424 H 0.56744 0.45255 0.96951 0.0
H425 H 0.60516 0.52211 0.9631 0.0
H426 H 0.42797 0.58296 0.95327 0.0
H427 H 0.45968 0.57551 0.93395 0.0
H428 H 0.50048 0.62133 0.95197 0.0
H429 H 0.76419 0.88753 0.96501 0.0
H430 H 0.81485 0.97025 0.94681 0.0
H431 H 0.78107 0.90991 0.93291 0.0
H432 H 0.85279 0.94227 0.93746 0.0
H433 H 0.81039 0.76524 0.95543 0.0
H434 H 0.70653 0.82941 0.94365 0.0
H435 H 0.7333 0.6425 0.93243 0.0
H436 H 0.70976 0.62906 0.95476 0.0
H437 H 0.78083 0.67291 0.95149 0.0
H438 H 0.61748 0.77665 0.9324 0.0
H439 H 0.58486 0.70896 0.94059 0.0
H440 H 0.60729 0.72124 0.91811 0.0
H441 H 0.54153 0.51548 0.84073 0.0
H442 H 0.45163 0.44238 0.89534 0.0
H443 H 0.46837 0.47075 0.92624 0.0
H444 H 0.60409 0.62747 0.95978 0.0
H445 H 0.69904 0.69718 0.90558 0.0
H446 H 0.68383 0.66698 0.87468 0.0
H447 H 0.35035 0.29176 0.97331 0.0
H448 H 0.4013 0.35033 0.96282 0.0
H449 H 0.33242 0.33564 0.96137 0.0
H450 H 0.06159 0.18712 0.12303 0.0
H451 H 0.08715 0.30447 0.08284 0.0
H452 H 0.12449 0.37601 0.10602 0.0
H453 H 0.15424 0.40581 0.13738 0.0
H454 H 0.1231 0.28804 0.178 0.0
H455 H 0.08366 0.21606 0.15492 0.0
C456 C 0.0751 0.22834 0.11939 0.0
C457 C 0.07206 0.24057 0.10126 0.0
C458 C 0.09578 0.26921 0.13282 0.0
C459 C 0.08896 0.294 0.09673 0.0
C460 C 0.11054 0.33498 0.10996 0.0
C461 C 0.1384 0.36446 0.14129 0.0
C462 C 0.14227 0.35245 0.15944 0.0
C463 C 0.11477 0.32316 0.12801 0.0
C464 C 0.12106 0.29836 0.16411 0.0
C465 C 0.0985 0.25721 0.15093 0.0
H466 H 0.85567 0.00563 0.42227 0.0
H467 H 0.96024 0.17272 0.43832 0.0
H468 H 0.89476 0.16585 0.45956 0.0
H469 H 0.81042 0.11048 0.47511 0.0
H470 H 0.70843 0.94291 0.45955 0.0
H471 H 0.77034 0.95201 0.43658 0.0
C472 C 0.86414 0.04083 0.43026 0.0
C473 C 0.91313 0.08954 0.4287 0.0
C474 C 0.82676 0.03646 0.44262 0.0
C475 C 0.923 0.13463 0.4392 0.0
C476 C 0.88561 0.13073 0.45142 0.0
C477 C 0.80148 0.07628 0.46647 0.0
C478 C 0.75459 0.02625 0.46888 0.0
C479 C 0.83776 0.08159 0.45345 0.0
C480 C 0.74389 0.98196 0.45782 0.0
C481 C 0.77937 0.98708 0.44474 0.0
H482 H 0.93627 0.90541 0.76265 0.0
H483 H 0.84034 0.98023 0.76983 0.0
H484 H 0.76575 0.89513 0.77943 0.0
H485 H 0.72682 0.79902 0.78522 0.0
H486 H 0.8237 0.7248 0.7796 0.0
H487 H 0.89876 0.81002 0.76995 0.0
C488 C 0.89902 0.90307 0.76628 0.0
C489 C 0.89388 0.94913 0.76538 0.0
C490 C 0.85633 0.85405 0.77201 0.0
C491 C 0.84553 0.94551 0.7704 0.0
C492 C 0.80272 0.89679 0.77586 0.0
C493 C 0.76435 0.80151 0.78186 0.0
C494 C 0.76917 0.75531 0.78268 0.0
C495 C 0.80757 0.85077 0.77663 0.0
C496 C 0.81851 0.75947 0.77867 0.0
C497 C 0.8615 0.80822 0.77322 0.0
H498 H 0.12329 0.03961 0.11382 0.0
H499 H 0.94946 0.95849 0.10783 0.0
H500 H 0.94233 0.89175 0.12952 0.0
H501 H 0.98576 0.85541 0.14973 0.0
H502 H 0.15959 0.93904 0.15641 0.0
H503 H 0.16641 0.0052 0.13464 0.0
C504 C 0.08381 0.00745 0.11731 0.0
C505 C 0.037 0.00399 0.10921 0.0
C506 C 0.08002 0.96943 0.12982 0.0
C507 C 0.98616 0.96219 0.11392 0.0
C508 C 0.98204 0.92387 0.12627 0.0
C509 C 0.02507 0.88845 0.14657 0.0
C510 C 0.07207 0.89273 0.15493 0.0
C511 C 0.02872 0.92697 0.13425 0.0
C512 C 0.12278 0.93511 0.15034 0.0
C513 C 0.12674 0.973 0.1379 0.0
H514 H 0.04915 0.02835 0.45066 0.0
H515 H 0.15647 0.08661 0.40702 0.0
H516 H 0.23358 0.10843 0.42784 0.0
H517 H 0.27102 0.11856 0.45878 0.0
H518 H 0.16344 0.05824 0.50249 0.0
H519 H 0.08603 0.03046 0.48144 0.0
C520 C 0.08952 0.04565 0.44582 0.0
C521 C 0.09807 0.05818 0.42763 0.0
C522 C 0.13354 0.05862 0.45789 0.0
C523 C 0.1498 0.07872 0.42119 0.0
C524 C 0.19366 0.09087 0.43304 0.0
C525 C 0.23062 0.09943 0.4637 0.0
C526 C 0.22347 0.0931 0.48228 0.0
C527 C 0.18619 0.08261 0.4515 0.0
C528 C 0.17062 0.06605 0.48838 0.0
C529 C 0.12614 0.04957 0.47631 0.0
H530 H 0.10972 0.09443 0.79735 0.0
H531 H 0.14172 0.21171 0.75665 0.0
H532 H 0.20288 0.28432 0.77773 0.0
H533 H 0.24104 0.31495 0.80825 0.0
H534 H 0.21093 0.19891 0.84934 0.0
H535 H 0.15475 0.12539 0.82775 0.0
C536 C 0.13049 0.13593 0.79321 0.0
C537 C 0.12021 0.14838 0.77582 0.0
C538 C 0.16512 0.17761 0.8055 0.0
C539 C 0.1481 0.2018 0.77024 0.0
C540 C 0.18313 0.24319 0.78223 0.0
C541 C 0.2222 0.27358 0.8125 0.0
C542 C 0.22835 0.26262 0.83055 0.0
C543 C 0.19071 0.23168 0.80002 0.0
C544 C 0.20518 0.20865 0.83569 0.0
C545 C 0.17343 0.16653 0.82331 0.0
H546 H 0.91412 0.1522 0.71756 0.0
H547 H 0.94518 0.04597 0.68576 0.0
H548 H 0.9048 0.06407 0.65902 0.0
H549 H 0.86257 0.11203 0.6446 0.0
H550 H 0.83557 0.22041 0.67669 0.0
H551 H 0.87245 0.19917 0.70348 0.0
C552 C 0.91189 0.13252 0.70485 0.0
C553 C 0.93269 0.09763 0.70374 0.0
C554 C 0.88956 0.14373 0.68955 0.0
C555 C 0.92945 0.07292 0.68705 0.0
C556 C 0.90648 0.08336 0.67174 0.0
C557 C 0.86507 0.13109 0.65746 0.0
C558 C 0.84673 0.16802 0.65864 0.0
C559 C 0.88685 0.11908 0.67282 0.0
C560 C 0.84965 0.1921 0.67541 0.0
C561 C 0.87066 0.17993 0.69073 0.0
H562 H 0.008 0.03022 0.01426 0.0
H563 H 0.88489 0.02034 0.04767 0.0
H564 H 0.81544 0.96898 0.02388 0.0
H565 H 0.79053 0.92929 0.99324 0.0
H566 H 0.91348 0.93667 0.96012 0.0
H567 H 0.98257 0.98759 0.98395 0.0
C568 C 0.96591 0.01688 0.0162 0.0
C569 C 0.95137 0.03057 0.03224 0.0
C570 C 0.92648 0.98747 0.00249 0.0
C571 C 0.89682 0.01179 0.03504 0.0
C572 C 0.85724 0.98219 0.02153 0.0
C573 C 0.83244 0.94204 0.99126 0.0
C574 C 0.84698 0.92978 0.97487 0.0
C575 C 0.87172 0.97046 0.0051 0.0
C576 C 0.90144 0.94623 0.97254 0.0
C577 C 0.94086 0.97505 0.98617 0.0
H578 H 0.03305 0.92318 0.36312 0.0
H579 H 0.86794 0.88681 0.35687 0.0
H580 H 0.8428 0.8027 0.34072 0.0
H581 H 0.8666 0.73673 0.33025 0.0
H582 H 0.03009 0.76976 0.33887 0.0
H583 H 0.05735 0.85842 0.35184 0.0
C584 C 0.99174 0.89716 0.358 0.0
C585 C 0.95237 0.91103 0.36118 0.0
C586 C 0.97726 0.84813 0.34925 0.0
C587 C 0.89889 0.87678 0.35464 0.0
C588 C 0.88449 0.82871 0.34542 0.0
C589 C 0.9081 0.76322 0.33505 0.0
C590 C 0.94594 0.74608 0.33406 0.0
C591 C 0.92311 0.81343 0.343 0.0
C592 C -1e-05 0.78162 0.3398 0.0
C593 C 0.0156 0.83229 0.34722 0.0
H594 H 0.17935 0.1489 0.70218 0.0
H595 H 0.09635 0.9753 0.69955 0.0
H596 H 0.16913 0.97869 0.68264 0.0
H597 H 0.26035 0.03144 0.67091 0.0
H598 H 0.34344 0.20489 0.67469 0.0
H599 H 0.26665 0.20109 0.68882 0.0
C600 C 0.17676 0.11172 0.69773 0.0
C601 C 0.13267 0.06194 0.70224 0.0
C602 C 0.21903 0.11399 0.68831 0.0
C603 C 0.12992 0.0142 0.6963 0.0
C604 C 0.17164 0.0161 0.68669 0.0
C605 C 0.26109 0.06829 0.67457 0.0
C606 C 0.30732 0.11839 0.67161 0.0
C607 C 0.21698 0.06581 0.68296 0.0
C608 C 0.30817 0.16589 0.67666 0.0
C609 C 0.26436 0.16375 0.6848 0.0
H610 H 0.14265 0.26279 0.01995 0.0
H611 H 0.20763 0.1813 0.05183 0.0
H612 H 0.29322 0.23115 0.0373 0.0
H613 H 0.34916 0.29646 0.01501 0.0
H614 H 0.28328 0.3762 0.98284 0.0
H615 H 0.1986 0.32856 0.99809 0.0
C616 C 0.1755 0.25594 0.02381 0.0
C617 C 0.16844 0.21819 0.03699 0.0
C618 C 0.22463 0.28464 0.01539 0.0
C619 C 0.21167 0.20997 0.04172 0.0
C620 C 0.26075 0.23851 0.03343 0.0
C621 C 0.31646 0.30387 0.01155 0.0
C622 C 0.32294 0.34076 0.99815 0.0
C623 C 0.26763 0.27581 0.02021 0.0
C624 C 0.27973 0.34896 0.99342 0.0
C625 C 0.23121 0.32149 0.00205 0.0
H626 H 0.08053 0.21404 0.3545 0.0
H627 H 0.91423 0.08328 0.3504 0.0
H628 H 0.89042 0.11566 0.32344 0.0
H629 H 0.91175 0.19538 0.29669 0.0
H630 H 0.11057 0.3486 0.29987 0.0
H631 H 0.12957 0.29634 0.33022 0.0
C632 C 0.04119 0.19487 0.34748 0.0
C633 C 0.99773 0.14706 0.35383 0.0
C634 C 0.03468 0.21843 0.3322 0.0
C635 C 0.94573 0.11993 0.34483 0.0
C636 C 0.93125 0.13809 0.32927 0.0
C637 C 0.95282 0.21257 0.30217 0.0
C638 C 0.00654 0.28225 0.2971 0.0
C639 C 0.9687 0.18497 0.32153 0.0
C640 C 0.07904 0.3101 0.30429 0.0
C641 C 0.0898 0.27858 0.32361 0.0
loop_
_geom_bond_atom_site_label_1
_geom_bond_atom_site_label_2
_geom_bond_distance
_geom_bond_site_symmetry_2
_ccdc_geom_bond_type
Mn0 O5 2.095 . S
Mn0 O15 2.162 . S
Mn0 O16 2.297 1_545 S
Mn0 O24 2.385 1_545 S
Mn0 O25 2.209 1_455 S
Mn0 O26 2.094 . S
Mn1 O6 2.121 . S
Mn1 N8 2.257 1_455 S
Mn1 N17 2.282 1_455 S
Mn1 O25 2.215 1_455 S
Mn1 O27 2.117 . S
C2 O24 1.229 1_645 S
C2 O25 1.289 . S
C3 O15 1.281 1_565 S
C3 O16 1.236 . S
C4 O26 1.240 . S
C4 O27 1.264 . S
O5 Mn0 2.095 . S
O5 C14 1.250 . S
O6 Mn1 2.121 . S
O6 C14 1.258 . S
C7 N8 1.326 . S
C7 C11 1.460 . S
C7 H13 0.929 . S
N8 Mn1 2.257 1_655 S
N8 C7 1.326 . S
N8 C12 1.362 . S
C9 C10 1.258 . S
C9 C12 1.431 . S
C9 C29 1.449 . S
C10 C9 1.258 . S
C10 C11 1.477 . S
C10 H30 0.931 . S
C11 C7 1.460 . S
C11 C10 1.477 . S
C11 H31 0.930 . S
C12 N8 1.362 . S
C12 C9 1.431 . S
C12 C22 1.476 . S
H13 C7 0.929 . S
C14 O5 1.250 . S
C14 O6 1.258 . S
O15 Mn0 2.162 . S
O15 C3 1.281 1_545 S
O16 Mn0 2.297 1_565 S
O16 C3 1.236 . S
N17 Mn1 2.282 1_655 S
N17 C18 1.328 1_655 S
N17 C22 1.318 . S
C18 N17 1.328 1_455 S
C18 C19 1.457 1_454 S
C18 H23 0.929 . S
C19 C18 1.457 1_656 S
C19 C20 1.291 . S
C19 H32 0.931 1_655 S
C20 C19 1.291 . S
C20 C21 1.373 . S
C20 H33 0.929 . S
C21 C20 1.373 . S
C21 C22 1.396 1_556 S
C21 C28 1.403 . S
C22 C12 1.476 . S
C22 N17 1.318 . S
C22 C21 1.396 1_554 S
H23 C18 0.929 . S
O24 Mn0 2.385 1_565 S
O24 C2 1.229 1_465 S
O25 Mn0 2.209 1_655 S
O25 Mn1 2.215 1_655 S
O25 C2 1.289 . S
O26 Mn0 2.094 . S
O26 C4 1.240 . S
O27 Mn1 2.117 . S
O27 C4 1.264 . S
C28 C21 1.403 . S
C28 C29 1.399 1_556 S
C28 H34 0.929 . S
C29 C9 1.449 . S
C29 C28 1.399 1_554 S
C29 H35 0.928 1_554 S
H30 C10 0.931 . S
H31 C11 0.930 . S
H32 C19 0.931 1_455 S
H33 C20 0.929 . S
H34 C28 0.929 . S
H35 C29 0.928 1_556 S
Mn36 O41 2.095 . S
Mn36 O51 2.162 1_445 S
Mn36 O52 2.297 . S
Mn36 O60 2.385 . S
Mn36 O61 2.209 . S
Mn36 O62 2.094 1_455 S
Mn37 O42 2.121 . S
Mn37 N44 2.257 . S
Mn37 N53 2.282 . S
Mn37 O61 2.215 . S
Mn37 O63 2.117 1_455 S
C38 O60 1.234 . S
C38 O61 1.283 . S
C39 O51 1.281 1_455 S
C39 O52 1.236 1_565 S
C40 O62 1.240 . S
C40 O63 1.264 . S
O41 Mn36 2.095 . S
O41 C50 1.250 . S
O42 Mn37 2.121 . S
O42 C50 1.258 . S
C43 N44 1.326 . S
C43 C47 1.460 . S
C43 H49 0.929 . S
N44 Mn37 2.257 . S
N44 C43 1.326 . S
N44 C48 1.362 . S
C45 C46 1.258 . S
C45 C48 1.431 . S
C45 C65 1.449 . S
C46 C45 1.258 . S
C46 C47 1.477 . S
C46 H66 0.931 . S
C47 C43 1.460 . S
C47 C46 1.477 . S
C47 H67 0.930 . S
C48 N44 1.362 . S
C48 C45 1.431 . S
C48 C58 1.476 . S
H49 C43 0.929 . S
C50 O41 1.250 . S
C50 O42 1.258 . S
O51 Mn36 2.162 1_665 S
O51 C39 1.281 1_655 S
O52 Mn36 2.297 . S
O52 C39 1.236 1_545 S
N53 Mn37 2.282 . S
N53 C54 1.328 . S
N53 C58 1.318 . S
C54 N53 1.328 . S
C54 C55 1.457 . S
C54 H59 0.929 . S
C55 C54 1.457 . S
C55 C56 1.291 . S
C55 H68 0.931 . S
C56 C55 1.291 . S
C56 C57 1.373 . S
C56 H69 0.929 . S
C57 C56 1.373 . S
C57 C58 1.396 . S
C57 C64 1.403 . S
C58 C48 1.476 . S
C58 N53 1.318 . S
C58 C57 1.396 . S
H59 C54 0.929 . S
O60 Mn36 2.385 . S
O60 C38 1.234 . S
O61 Mn36 2.209 . S
O61 Mn37 2.215 . S
O61 C38 1.283 . S
O62 Mn36 2.094 1_655 S
O62 C40 1.240 . S
O63 Mn37 2.117 1_655 S
O63 C40 1.264 . S
C64 C57 1.403 . S
C64 C65 1.399 . S
C64 H70 0.929 . S
C65 C45 1.449 . S
C65 C64 1.399 . S
C65 H71 0.930 . S
H66 C46 0.931 . S
H67 C47 0.930 . S
H68 C55 0.931 . S
H69 C56 0.929 . S
H70 C64 0.929 . S
H71 C65 0.930 . S
Mn72 O77 2.095 1_455 S
Mn72 O87 2.162 . S
Mn72 O88 2.297 . S
Mn72 O96 2.385 . S
Mn72 O97 2.209 . S
Mn72 O98 2.094 1_445 S
Mn73 O78 2.121 . S
Mn73 N80 2.257 1_655 S
Mn73 N89 2.282 1_655 S
Mn73 O97 2.215 1_655 S
Mn73 O99 2.117 . S
C74 O96 1.234 . S
C74 O97 1.283 . S
C75 O87 1.281 . S
C75 O88 1.236 . S
C76 O98 1.240 . S
C76 O99 1.264 1_565 S
O77 Mn72 2.095 1_655 S
O77 C86 1.250 . S
O78 Mn73 2.121 . S
O78 C86 1.258 . S
C79 N80 1.324 1_655 S
C79 C83 1.461 1_655 S
C79 H85 0.930 . S
N80 Mn73 2.257 1_455 S
N80 C79 1.324 1_455 S
N80 C84 1.362 . S
C81 C82 1.258 . S
C81 C84 1.431 . S
C81 C101 1.449 . S
C82 C81 1.258 . S
C82 C83 1.477 . S
C82 H102 0.931 . S
C83 C79 1.461 1_455 S
C83 C82 1.477 . S
C83 H103 0.930 . S
C84 N80 1.362 . S
C84 C81 1.431 . S
C84 C94 1.476 . S
H85 C79 0.930 . S
C86 O77 1.250 . S
C86 O78 1.258 . S
O87 Mn72 2.162 . S
O87 C75 1.281 . S
O88 Mn72 2.297 . S
O88 C75 1.236 . S
N89 Mn73 2.282 1_455 S
N89 C90 1.328 . S
N89 C94 1.318 . S
C90 N89 1.328 . S
C90 C91 1.457 . S
C90 H95 0.929 . S
C91 C90 1.457 . S
C91 C92 1.291 . S
C91 H104 0.931 . S
C92 C91 1.291 . S
C92 C93 1.373 . S
C92 H105 0.929 . S
C93 C92 1.373 . S
C93 C94 1.396 . S
C93 C100 1.403 . S
C94 C84 1.476 . S
C94 N89 1.318 . S
C94 C93 1.396 . S
H95 C90 0.929 . S
O96 Mn72 2.385 . S
O96 C74 1.234 . S
O97 Mn72 2.209 . S
O97 Mn73 2.215 1_455 S
O97 C74 1.283 . S
O98 Mn72 2.094 1_665 S
O98 C76 1.240 . S
O99 Mn73 2.117 . S
O99 C76 1.264 1_545 S
C100 C93 1.403 . S
C100 C101 1.399 . S
C100 H106 0.929 . S
C101 C81 1.449 . S
C101 C100 1.399 . S
C101 H107 0.930 . S
H102 C82 0.931 . S
H103 C83 0.930 . S
H104 C91 0.931 . S
H105 C92 0.929 . S
H106 C100 0.929 . S
H107 C101 0.930 . S
C108 C109 1.542 1_655 S
C108 H169 0.959 . S
C108 H170 0.959 . S
C108 H171 0.960 . S
C109 C108 1.542 1_455 S
C109 O164 1.423 1_455 S
C109 H168 0.998 . S
C110 C111 1.407 1_655 S
C110 C115 1.418 . S
C110 O164 1.334 . S
C111 C110 1.407 1_455 S
C111 C112 1.360 . S
C111 H172 0.929 . S
C112 C111 1.360 . S
C112 C113 1.401 . S
C112 C116 1.527 . S
C113 C112 1.401 . S
C113 C114 1.405 1_455 S
C113 C146 1.587 . S
C114 C113 1.405 1_655 S
C114 C115 1.332 . S
C114 C117 1.496 . S
C115 C110 1.418 . S
C115 C114 1.332 . S
C115 H173 0.929 . S
C116 C112 1.527 . S
C116 H174 0.959 . S
C116 H175 0.961 . S
C116 H176 0.961 . S
C117 C114 1.496 . S
C117 H177 0.960 . S
C117 H178 0.960 . S
C117 H179 0.961 . S
C118 C119 1.517 . S
C118 H181 0.961 . S
C118 H182 0.960 . S
C118 H183 0.959 . S
C119 C118 1.517 . S
C119 O167 1.468 . S
C119 H180 0.980 . S
C120 C121 1.349 . S
C120 C125 1.367 . S
C120 O167 1.408 . S
C121 C120 1.349 . S
C121 C122 1.407 . S
C121 H184 0.930 . S
C122 C121 1.407 . S
C122 C123 1.449 . S
C122 C126 1.535 1_455 S
C123 C122 1.449 . S
C123 C124 1.384 . S
C123 C148 1.553 . S
C124 C123 1.384 . S
C124 C125 1.364 . S
C124 C127 1.450 . S
C125 C120 1.367 . S
C125 C124 1.364 . S
C125 H185 0.931 . S
C126 C122 1.535 1_655 S
C126 H186 0.959 . S
C126 H187 0.961 . S
C126 H188 0.959 . S
C127 C124 1.450 . S
C127 H189 0.960 . S
C127 H190 0.960 . S
C127 H191 0.960 . S
C128 C129 1.309 . S
C128 C133 1.304 . S
C128 O166 1.435 . S
C129 C128 1.309 . S
C129 C130 1.476 . S
C129 H193 0.930 . S
C130 C129 1.476 . S
C130 C131 1.400 . S
C130 C134 1.567 1_455 S
C131 C130 1.400 . S
C131 C132 1.373 . S
C131 C153 1.432 . S
C132 C131 1.373 . S
C132 C133 1.339 . S
C132 C135 1.530 . S
C133 C128 1.304 . S
C133 C132 1.339 . S
C133 H194 0.930 . S
C134 C130 1.567 1_655 S
C134 H195 0.961 . S
C134 H196 0.960 . S
C134 H197 0.958 . S
C135 C132 1.530 . S
C135 H198 0.961 . S
C135 H199 0.960 . S
C135 H200 0.960 . S
C136 C137 1.530 1_655 S
C136 H202 0.961 1_655 S
C136 H203 0.961 . S
C136 H204 0.959 . S
C137 C136 1.530 1_455 S
C137 O165 1.412 1_455 S
C137 H201 0.980 . S
C138 C139 1.288 1_455 S
C138 C143 1.377 . S
C138 O165 1.393 1_455 S
C139 C138 1.288 1_655 S
C139 C140 1.369 . S
C139 H205 0.932 . S
C140 C139 1.369 . S
C140 C141 1.398 1_655 S
C140 C144 1.527 . S
C141 C140 1.398 1_455 S
C141 C142 1.380 . S
C141 C155 1.497 . S
C142 C141 1.380 . S
C142 C143 1.383 . S
C142 C145 1.603 . S
C143 C138 1.377 . S
C143 C142 1.383 . S
C143 H206 0.929 . S
C144 C140 1.527 . S
C144 H207 0.961 . S
C144 H208 0.959 . S
C144 H209 0.959 . S
C145 C142 1.603 . S
C145 H210 0.960 . S
C145 H211 0.962 . S
C145 H212 0.961 . S
C146 C113 1.587 . S
C146 C147 1.360 . S
C146 C159 1.412 . S
C147 C146 1.360 . S
C147 C148 1.365 . S
C147 H213 0.929 . S
C148 C123 1.553 . S
C148 C147 1.365 . S
C148 C149 1.404 . S
C149 C148 1.404 . S
C149 C150 1.395 . S
C149 C160 1.451 . S
C150 C149 1.395 . S
C150 C151 1.322 . S
C150 H214 0.930 . S
C151 C150 1.322 . S
C151 C152 1.459 . S
C151 H215 0.929 . S
C152 C151 1.459 . S
C152 C153 1.445 . S
C152 C161 1.395 . S
C153 C131 1.432 . S
C153 C152 1.445 . S
C153 C154 1.370 . S
C154 C153 1.370 . S
C154 C155 1.438 . S
C154 H216 0.930 . S
C155 C141 1.497 . S
C155 C154 1.438 . S
C155 C156 1.360 . S
C156 C155 1.360 . S
C156 C157 1.401 . S
C156 C161 1.446 . S
C157 C156 1.401 . S
C157 C158 1.347 . S
C157 H217 0.929 . S
C158 C157 1.347 . S
C158 C159 1.455 . S
C158 H218 0.930 . S
C159 C146 1.412 . S
C159 C158 1.455 . S
C159 C160 1.331 . S
C160 C149 1.451 . S
C160 C159 1.331 . S
C160 C161 1.497 . S
C161 C152 1.395 . S
C161 C156 1.446 . S
C161 C160 1.497 . S
C162 C163 1.582 . S
C162 H219 0.962 . S
C162 H220 0.959 . S
C162 H221 0.958 . S
C163 C162 1.582 . S
C163 O166 1.458 . S
C163 H192 0.980 . S
O164 C109 1.423 1_655 S
O164 C110 1.334 . S
O165 C137 1.412 1_655 S
O165 C138 1.393 1_655 S
O166 C128 1.435 . S
O166 C163 1.458 . S
O167 C119 1.468 . S
O167 C120 1.408 . S
H168 C109 0.998 . S
H169 C108 0.959 . S
H170 C108 0.959 . S
H171 C108 0.960 . S
H172 C111 0.929 . S
H173 C115 0.929 . S
H174 C116 0.959 . S
H175 C116 0.961 . S
H176 C116 0.961 . S
H177 C117 0.960 . S
H178 C117 0.960 . S
H179 C117 0.961 . S
H180 C119 0.980 . S
H181 C118 0.961 . S
H182 C118 0.960 . S
H183 C118 0.959 . S
H184 C121 0.930 . S
H185 C125 0.931 . S
H186 C126 0.959 . S
H187 C126 0.961 . S
H188 C126 0.959 . S
H189 C127 0.960 . S
H190 C127 0.960 . S
H191 C127 0.960 . S
H192 C163 0.980 . S
H193 C129 0.930 . S
H194 C133 0.930 . S
H195 C134 0.961 . S
H196 C134 0.960 . S
H197 C134 0.958 . S
H198 C135 0.961 . S
H199 C135 0.960 . S
H200 C135 0.960 . S
H201 C137 0.980 . S
H202 C136 0.961 1_455 S
H203 C136 0.961 . S
H204 C136 0.959 . S
H205 C139 0.932 . S
H206 C143 0.929 . S
H207 C144 0.961 . S
H208 C144 0.959 . S
H209 C144 0.959 . S
H210 C145 0.960 . S
H211 C145 0.962 . S
H212 C145 0.961 . S
H213 C147 0.929 . S
H214 C150 0.930 . S
H215 C151 0.929 . S
H216 C154 0.930 . S
H217 C157 0.929 . S
H218 C158 0.930 . S
H219 C162 0.962 . S
H220 C162 0.959 . S
H221 C162 0.958 . S
C222 C223 1.560 . S
C222 H283 0.959 . S
C222 H284 0.959 . S
C222 H285 0.960 . S
C223 C222 1.560 . S
C223 O278 1.426 . S
C223 H282 0.980 . S
C224 C225 1.407 . S
C224 C229 1.418 . S
C224 O278 1.334 . S
C225 C224 1.407 . S
C225 C226 1.360 . S
C225 H286 0.929 . S
C226 C225 1.360 . S
C226 C227 1.401 . S
C226 C230 1.527 . S
C227 C226 1.401 . S
C227 C228 1.405 . S
C227 C260 1.587 . S
C228 C227 1.405 . S
C228 C229 1.332 . S
C228 C231 1.496 . S
C229 C224 1.418 . S
C229 C228 1.332 . S
C229 H287 0.929 1_545 S
C230 C226 1.527 . S
C230 H288 0.959 . S
C230 H289 0.961 . S
C230 H290 0.961 . S
C231 C228 1.496 . S
C231 H291 0.960 1_545 S
C231 H292 0.960 . S
C231 H293 0.961 . S
C232 C233 1.517 . S
C232 H295 0.961 . S
C232 H296 0.960 . S
C232 H297 0.959 . S
C233 C232 1.517 . S
C233 O281 1.468 . S
C233 H294 0.980 . S
C234 C235 1.349 . S
C234 C239 1.367 . S
C234 O281 1.408 . S
C235 C234 1.349 . S
C235 C236 1.407 . S
C235 H298 0.930 . S
C236 C235 1.407 . S
C236 C237 1.449 . S
C236 C240 1.535 . S
C237 C236 1.449 . S
C237 C238 1.384 . S
C237 C262 1.553 . S
C238 C237 1.384 . S
C238 C239 1.364 . S
C238 C241 1.450 . S
C239 C234 1.367 . S
C239 C238 1.364 . S
C239 H299 0.931 . S
C240 C236 1.535 . S
C240 H300 0.959 . S
C240 H301 0.961 . S
C240 H302 0.959 . S
C241 C238 1.450 . S
C241 H303 0.960 . S
C241 H304 0.960 . S
C241 H305 0.960 . S
C242 C243 1.309 . S
C242 C247 1.304 . S
C242 O280 1.435 . S
C243 C242 1.309 . S
C243 C244 1.476 . S
C243 H307 0.930 . S
C244 C243 1.476 . S
C244 C245 1.400 . S
C244 C248 1.567 . S
C245 C244 1.400 . S
C245 C246 1.373 . S
C245 C267 1.432 . S
C246 C245 1.373 . S
C246 C247 1.339 . S
C246 C249 1.530 . S
C247 C242 1.304 . S
C247 C246 1.339 . S
C247 H308 0.930 . S
C248 C244 1.567 . S
C248 H309 0.961 . S
C248 H310 0.960 . S
C248 H311 0.958 . S
C249 C246 1.530 . S
C249 H312 0.961 . S
C249 H313 0.960 . S
C249 H314 0.960 . S
C250 C251 1.530 . S
C250 H316 0.961 . S
C250 H317 0.961 . S
C250 H318 0.959 . S
C251 C250 1.530 . S
C251 O279 1.412 . S
C251 H315 0.980 . S
C252 C253 1.288 . S
C252 C257 1.377 . S
C252 O279 1.393 . S
C253 C252 1.288 . S
C253 C254 1.369 . S
C253 H319 0.932 1_545 S
C254 C253 1.369 . S
C254 C255 1.398 . S
C254 C258 1.527 1_545 S
C255 C254 1.398 . S
C255 C256 1.380 . S
C255 C269 1.497 . S
C256 C255 1.380 . S
C256 C257 1.383 . S
C256 C259 1.603 . S
C257 C252 1.377 . S
C257 C256 1.383 . S
C257 H320 0.929 . S
C258 C254 1.527 1_565 S
C258 H321 0.961 1_565 S
C258 H322 0.959 . S
C258 H323 0.959 . S
C259 C256 1.603 . S
C259 H324 0.960 . S
C259 H325 0.962 . S
C259 H326 0.961 . S
C260 C227 1.587 . S
C260 C261 1.360 . S
C260 C273 1.412 . S
C261 C260 1.360 . S
C261 C262 1.365 . S
C261 H327 0.929 . S
C262 C237 1.553 . S
C262 C261 1.365 . S
C262 C263 1.404 . S
C263 C262 1.404 . S
C263 C264 1.395 . S
C263 C274 1.451 . S
C264 C263 1.395 . S
C264 C265 1.322 . S
C264 H328 0.930 . S
C265 C264 1.322 . S
C265 C266 1.459 . S
C265 H329 0.929 . S
C266 C265 1.459 . S
C266 C267 1.445 . S
C266 C275 1.395 . S
C267 C245 1.432 . S
C267 C266 1.445 . S
C267 C268 1.370 . S
C268 C267 1.370 . S
C268 C269 1.438 . S
C268 H330 0.930 . S
C269 C255 1.497 . S
C269 C268 1.438 . S
C269 C270 1.360 . S
C270 C269 1.360 . S
C270 C271 1.401 . S
C270 C275 1.446 . S
C271 C270 1.401 . S
C271 C272 1.347 . S
C271 H331 0.929 . S
C272 C271 1.347 . S
C272 C273 1.455 . S
C272 H332 0.930 . S
C273 C260 1.412 . S
C273 C272 1.455 . S
C273 C274 1.331 . S
C274 C263 1.451 . S
C274 C273 1.331 . S
C274 C275 1.497 . S
C275 C266 1.395 . S
C275 C270 1.446 . S
C275 C274 1.497 . S
C276 C277 1.582 . S
C276 H333 0.962 . S
C276 H334 0.959 . S
C276 H335 0.958 . S
C277 C276 1.582 . S
C277 O280 1.458 . S
C277 H306 0.980 . S
O278 C223 1.426 . S
O278 C224 1.334 . S
O279 C251 1.412 . S
O279 C252 1.393 . S
O280 C242 1.435 . S
O280 C277 1.458 . S
O281 C233 1.468 . S
O281 C234 1.408 . S
H282 C223 0.980 . S
H283 C222 0.959 . S
H284 C222 0.959 . S
H285 C222 0.960 . S
H286 C225 0.929 . S
H287 C229 0.929 1_565 S
H288 C230 0.959 . S
H289 C230 0.961 . S
H290 C230 0.961 . S
H291 C231 0.960 1_565 S
H292 C231 0.960 . S
H293 C231 0.961 . S
H294 C233 0.980 . S
H295 C232 0.961 . S
H296 C232 0.960 . S
H297 C232 0.959 . S
H298 C235 0.930 . S
H299 C239 0.931 . S
H300 C240 0.959 . S
H301 C240 0.961 . S
H302 C240 0.959 . S
H303 C241 0.960 . S
H304 C241 0.960 . S
H305 C241 0.960 . S
H306 C277 0.980 . S
H307 C243 0.930 . S
H308 C247 0.930 . S
H309 C248 0.961 . S
H310 C248 0.960 . S
H311 C248 0.958 . S
H312 C249 0.961 . S
H313 C249 0.960 . S
H314 C249 0.960 . S
H315 C251 0.980 . S
H316 C250 0.961 . S
H317 C250 0.961 . S
H318 C250 0.959 . S
H319 C253 0.932 1_565 S
H320 C257 0.929 . S
H321 C258 0.961 1_545 S
H322 C258 0.959 . S
H323 C258 0.959 . S
H324 C259 0.960 . S
H325 C259 0.962 . S
H326 C259 0.961 . S
H327 C261 0.929 . S
H328 C264 0.930 . S
H329 C265 0.929 . S
H330 C268 0.930 . S
H331 C271 0.929 . S
H332 C272 0.930 . S
H333 C276 0.962 . S
H334 C276 0.959 . S
H335 C276 0.958 . S
C336 C337 1.560 . S
C336 H397 0.959 . S
C336 H398 0.959 . S
C336 H399 0.960 . S
C337 C336 1.560 . S
C337 O392 1.426 . S
C337 H396 0.980 . S
C338 C339 1.407 . S
C338 C343 1.418 . S
C338 O392 1.334 . S
C339 C338 1.407 . S
C339 C340 1.360 . S
C339 H400 0.929 . S
C340 C339 1.360 . S
C340 C341 1.401 . S
C340 C344 1.527 . S
C341 C340 1.401 . S
C341 C342 1.405 . S
C341 C374 1.587 . S
C342 C341 1.405 . S
C342 C343 1.332 . S
C342 C345 1.496 . S
C343 C338 1.418 . S
C343 C342 1.332 . S
C343 H401 0.929 . S
C344 C340 1.527 . S
C344 H402 0.959 . S
C344 H403 0.961 . S
C344 H404 0.961 . S
C345 C342 1.496 . S
C345 H405 0.960 . S
C345 H406 0.960 . S
C345 H407 0.961 . S
C346 C347 1.517 . S
C346 H409 0.961 . S
C346 H410 0.960 . S
C346 H411 0.959 . S
C347 C346 1.517 . S
C347 O395 1.468 . S
C347 H408 0.980 . S
C348 C349 1.349 . S
C348 C353 1.367 . S
C348 O395 1.408 . S
C349 C348 1.349 . S
C349 C350 1.407 . S
C349 H412 0.930 . S
C350 C349 1.407 . S
C350 C351 1.449 . S
C350 C354 1.535 . S
C351 C350 1.449 . S
C351 C352 1.384 . S
C351 C376 1.553 . S
C352 C351 1.384 . S
C352 C353 1.364 . S
C352 C355 1.450 . S
C353 C348 1.367 . S
C353 C352 1.364 . S
C353 H413 0.931 . S
C354 C350 1.535 . S
C354 H414 0.959 . S
C354 H415 0.961 . S
C354 H416 0.959 . S
C355 C352 1.450 . S
C355 H417 0.960 . S
C355 H418 0.960 . S
C355 H419 0.960 . S
C356 C357 1.309 . S
C356 C361 1.304 . S
C356 O394 1.435 . S
C357 C356 1.309 . S
C357 C358 1.476 . S
C357 H421 0.930 . S
C358 C357 1.476 . S
C358 C359 1.400 . S
C358 C362 1.567 . S
C359 C358 1.400 . S
C359 C360 1.373 . S
C359 C381 1.432 . S
C360 C359 1.373 . S
C360 C361 1.339 . S
C360 C363 1.530 . S
C361 C356 1.304 . S
C361 C360 1.339 . S
C361 H422 0.930 . S
C362 C358 1.567 . S
C362 H423 0.961 . S
C362 H424 0.960 . S
C362 H425 0.958 . S
C363 C360 1.530 . S
C363 H426 0.961 . S
C363 H427 0.960 . S
C363 H428 0.960 . S
C364 C365 1.530 . S
C364 H430 0.961 . S
C364 H431 0.961 . S
C364 H432 0.959 . S
C365 C364 1.530 . S
C365 O393 1.412 . S
C365 H429 0.980 . S
C366 C367 1.288 . S
C366 C371 1.377 . S
C366 O393 1.393 . S
C367 C366 1.288 . S
C367 C368 1.369 . S
C367 H433 0.932 . S
C368 C367 1.369 . S
C368 C369 1.398 . S
C368 C372 1.527 . S
C369 C368 1.398 . S
C369 C370 1.380 . S
C369 C383 1.497 . S
C370 C369 1.380 . S
C370 C371 1.383 . S
C370 C373 1.603 . S
C371 C366 1.377 . S
C371 C370 1.383 . S
C371 H434 0.929 . S
C372 C368 1.527 . S
C372 H435 0.961 . S
C372 H436 0.959 . S
C372 H437 0.959 . S
C373 C370 1.603 . S
C373 H438 0.960 . S
C373 H439 0.962 . S
C373 H440 0.961 . S
C374 C341 1.587 . S
C374 C375 1.360 . S
C374 C387 1.412 . S
C375 C374 1.360 . S
C375 C376 1.365 . S
C375 H441 0.929 . S
C376 C351 1.553 . S
C376 C375 1.365 . S
C376 C377 1.404 . S
C377 C376 1.404 . S
C377 C378 1.395 . S
C377 C388 1.451 . S
C378 C377 1.395 . S
C378 C379 1.322 . S
C378 H442 0.930 . S
C379 C378 1.322 . S
C379 C380 1.459 . S
C379 H443 0.929 . S
C380 C379 1.459 . S
C380 C381 1.445 . S
C380 C389 1.395 . S
C381 C359 1.432 . S
C381 C380 1.445 . S
C381 C382 1.370 . S
C382 C381 1.370 . S
C382 C383 1.438 . S
C382 H444 0.930 . S
C383 C369 1.497 . S
C383 C382 1.438 . S
C383 C384 1.360 . S
C384 C383 1.360 . S
C384 C385 1.401 . S
C384 C389 1.446 . S
C385 C384 1.401 . S
C385 C386 1.347 . S
C385 H445 0.929 . S
C386 C385 1.347 . S
C386 C387 1.455 . S
C386 H446 0.930 . S
C387 C374 1.412 . S
C387 C386 1.455 . S
C387 C388 1.331 . S
C388 C377 1.451 . S
C388 C387 1.331 . S
C388 C389 1.497 . S
C389 C380 1.395 . S
C389 C384 1.446 . S
C389 C388 1.497 . S
C390 C391 1.582 . S
C390 H447 0.962 . S
C390 H448 0.959 . S
C390 H449 0.958 . S
C391 C390 1.582 . S
C391 O394 1.458 . S
C391 H420 0.980 . S
O392 C337 1.426 . S
O392 C338 1.334 . S
O393 C365 1.412 . S
O393 C366 1.393 . S
O394 C356 1.435 . S
O394 C391 1.458 . S
O395 C347 1.468 . S
O395 C348 1.408 . S
H396 C337 0.980 . S
H397 C336 0.959 . S
H398 C336 0.959 . S
H399 C336 0.960 . S
H400 C339 0.929 . S
H401 C343 0.929 . S
H402 C344 0.959 . S
H403 C344 0.961 . S
H404 C344 0.961 . S
H405 C345 0.960 . S
H406 C345 0.960 . S
H407 C345 0.961 . S
H408 C347 0.980 . S
H409 C346 0.961 . S
H410 C346 0.960 . S
H411 C346 0.959 . S
H412 C349 0.930 . S
H413 C353 0.931 . S
H414 C354 0.959 . S
H415 C354 0.961 . S
H416 C354 0.959 . S
H417 C355 0.960 . S
H418 C355 0.960 . S
H419 C355 0.960 . S
H420 C391 0.980 . S
H421 C357 0.930 . S
H422 C361 0.930 . S
H423 C362 0.961 . S
H424 C362 0.960 . S
H425 C362 0.958 . S
H426 C363 0.961 . S
H427 C363 0.960 . S
H428 C363 0.960 . S
H429 C365 0.980 . S
H430 C364 0.961 . S
H431 C364 0.961 . S
H432 C364 0.959 . S
H433 C367 0.932 . S
H434 C371 0.929 . S
H435 C372 0.961 . S
H436 C372 0.959 . S
H437 C372 0.959 . S
H438 C373 0.960 . S
H439 C373 0.962 . S
H440 C373 0.961 . S
H441 C375 0.929 . S
H442 C378 0.930 . S
H443 C379 0.929 . S
H444 C382 0.930 . S
H445 C385 0.929 . S
H446 C386 0.930 . S
H447 C390 0.962 . S
H448 C390 0.959 . S
H449 C390 0.958 . S
H450 C456 0.930 . S
H451 C459 0.930 . S
H452 C460 0.930 . S
H453 C461 0.930 . S
H454 C464 0.930 . S
H455 C465 0.930 . S
C456 H450 0.930 . S
C456 C457 1.355 . S
C456 C458 1.415 . S
C457 C456 1.355 . S
C457 C459 1.419 . S
C458 C456 1.415 . S
C458 C463 1.425 . S
C458 C465 1.409 . S
C459 H451 0.930 . S
C459 C457 1.419 . S
C459 C460 1.362 . S
C460 H452 0.930 . S
C460 C459 1.362 . S
C460 C463 1.409 . S
C461 H453 0.930 . S
C461 C462 1.355 . S
C461 C463 1.415 . S
C462 C461 1.355 . S
C462 C464 1.419 . S
C463 C458 1.425 . S
C463 C460 1.409 . S
C463 C461 1.415 . S
C464 H454 0.930 . S
C464 C462 1.419 . S
C464 C465 1.362 . S
C465 H455 0.930 . S
C465 C458 1.409 . S
C465 C464 1.362 . S
H466 C472 0.930 . S
H467 C475 0.930 . S
H468 C476 0.930 . S
H469 C477 0.930 . S
H470 C480 0.930 . S
H471 C481 0.930 . S
C472 H466 0.930 . S
C472 C473 1.355 . S
C472 C474 1.415 . S
C473 C472 1.355 . S
C473 C475 1.419 . S
C474 C472 1.415 . S
C474 C479 1.425 . S
C474 C481 1.409 . S
C475 H467 0.930 . S
C475 C473 1.419 . S
C475 C476 1.362 . S
C476 H468 0.930 . S
C476 C475 1.362 . S
C476 C479 1.409 . S
C477 H469 0.930 . S
C477 C478 1.355 . S
C477 C479 1.415 . S
C478 C477 1.355 . S
C478 C480 1.419 . S
C479 C474 1.425 . S
C479 C476 1.409 . S
C479 C477 1.415 . S
C480 H470 0.930 . S
C480 C478 1.419 . S
C480 C481 1.362 . S
C481 H471 0.930 . S
C481 C474 1.409 . S
C481 C480 1.362 . S
H482 C488 0.930 . S
H483 C491 0.930 . S
H484 C492 0.930 . S
H485 C493 0.930 . S
H486 C496 0.930 . S
H487 C497 0.930 . S
C488 H482 0.930 . S
C488 C489 1.355 . S
C488 C490 1.415 . S
C489 C488 1.355 . S
C489 C491 1.419 . S
C490 C488 1.415 . S
C490 C495 1.425 . S
C490 C497 1.409 . S
C491 H483 0.930 . S
C491 C489 1.419 . S
C491 C492 1.362 . S
C492 H484 0.930 . S
C492 C491 1.362 . S
C492 C495 1.409 . S
C493 H485 0.930 . S
C493 C494 1.355 . S
C493 C495 1.415 . S
C494 C493 1.355 . S
C494 C496 1.419 . S
C495 C490 1.425 . S
C495 C492 1.409 . S
C495 C493 1.415 . S
C496 H486 0.930 . S
C496 C494 1.419 . S
C496 C497 1.362 . S
C497 H487 0.930 . S
C497 C490 1.409 . S
C497 C496 1.362 . S
H498 C504 0.930 . S
H499 C507 0.930 . S
H500 C508 0.930 . S
H501 C509 0.930 . S
H502 C512 0.930 . S
H503 C513 0.930 . S
C504 H498 0.930 . S
C504 C505 1.355 . S
C504 C506 1.415 . S
C505 C504 1.355 . S
C505 C507 1.419 . S
C506 C504 1.415 . S
C506 C511 1.425 . S
C506 C513 1.409 . S
C507 H499 0.930 . S
C507 C505 1.419 . S
C507 C508 1.362 . S
C508 H500 0.930 . S
C508 C507 1.362 . S
C508 C511 1.409 . S
C509 H501 0.930 . S
C509 C510 1.355 . S
C509 C511 1.415 . S
C510 C509 1.355 . S
C510 C512 1.419 . S
C511 C506 1.425 . S
C511 C508 1.409 . S
C511 C509 1.415 . S
C512 H502 0.930 . S
C512 C510 1.419 . S
C512 C513 1.362 . S
C513 H503 0.930 . S
C513 C506 1.409 . S
C513 C512 1.362 . S
H514 C520 0.930 . S
H515 C523 0.930 . S
H516 C524 0.930 . S
H517 C525 0.930 . S
H518 C528 0.930 . S
H519 C529 0.930 1_565 S
C520 H514 0.930 . S
C520 C521 1.355 . S
C520 C522 1.415 . S
C521 C520 1.355 . S
C521 C523 1.419 . S
C522 C520 1.415 . S
C522 C527 1.425 . S
C522 C529 1.409 . S
C523 H515 0.930 . S
C523 C521 1.419 . S
C523 C524 1.362 . S
C524 H516 0.930 . S
C524 C523 1.362 . S
C524 C527 1.409 . S
C525 H517 0.930 . S
C525 C526 1.355 . S
C525 C527 1.415 . S
C526 C525 1.355 . S
C526 C528 1.419 . S
C527 C522 1.425 . S
C527 C524 1.409 . S
C527 C525 1.415 . S
C528 H518 0.930 . S
C528 C526 1.419 . S
C528 C529 1.362 . S
C529 H519 0.930 1_545 S
C529 C522 1.409 . S
C529 C528 1.362 . S
H530 C536 0.930 . S
H531 C539 0.930 . S
H532 C540 0.930 . S
H533 C541 0.930 . S
H534 C544 0.930 . S
H535 C545 0.930 . S
C536 H530 0.930 . S
C536 C537 1.355 . S
C536 C538 1.415 . S
C537 C536 1.355 . S
C537 C539 1.419 . S
C538 C536 1.415 . S
C538 C543 1.425 . S
C538 C545 1.409 . S
C539 H531 0.930 . S
C539 C537 1.419 . S
C539 C540 1.362 . S
C540 H532 0.930 . S
C540 C539 1.362 . S
C540 C543 1.409 . S
C541 H533 0.930 . S
C541 C542 1.355 . S
C541 C543 1.415 . S
C542 C541 1.355 . S
C542 C544 1.419 . S
C543 C538 1.425 . S
C543 C540 1.409 . S
C543 C541 1.415 . S
C544 H534 0.930 . S
C544 C542 1.419 . S
C544 C545 1.362 . S
C545 H535 0.930 . S
C545 C538 1.409 . S
C545 C544 1.362 . S
H546 C552 0.930 . S
H547 C555 0.930 . S
H548 C556 0.930 . S
H549 C557 0.930 . S
H550 C560 0.930 . S
H551 C561 0.930 1_565 S
C552 H546 0.930 . S
C552 C553 1.355 . S
C552 C554 1.415 . S
C553 C552 1.355 . S
C553 C555 1.419 . S
C554 C552 1.415 . S
C554 C559 1.425 . S
C554 C561 1.409 . S
C555 H547 0.930 . S
C555 C553 1.419 . S
C555 C556 1.362 . S
C556 H548 0.930 . S
C556 C555 1.362 . S
C556 C559 1.409 . S
C557 H549 0.930 . S
C557 C558 1.355 . S
C557 C559 1.415 . S
C558 C557 1.355 . S
C558 C560 1.419 . S
C559 C554 1.425 . S
C559 C556 1.409 . S
C559 C557 1.415 . S
C560 H550 0.930 . S
C560 C558 1.419 . S
C560 C561 1.362 . S
C561 H551 0.930 1_545 S
C561 C554 1.409 . S
C561 C560 1.362 . S
H562 C568 0.930 . S
H563 C571 0.930 1_545 S
H564 C572 0.930 . S
H565 C573 0.930 . S
H566 C576 0.930 . S
H567 C577 0.930 . S
C568 H562 0.930 . S
C568 C569 1.355 . S
C568 C570 1.415 . S
C569 C568 1.355 . S
C569 C571 1.419 . S
C570 C568 1.415 . S
C570 C575 1.425 . S
C570 C577 1.409 . S
C571 H563 0.930 1_565 S
C571 C569 1.419 . S
C571 C572 1.362 . S
C572 H564 0.930 . S
C572 C571 1.362 . S
C572 C575 1.409 . S
C573 H565 0.930 . S
C573 C574 1.355 . S
C573 C575 1.415 1_556 S
C574 C573 1.355 . S
C574 C576 1.419 1_556 S
C575 C570 1.425 . S
C575 C572 1.409 . S
C575 C573 1.415 1_554 S
C576 H566 0.930 . S
C576 C574 1.419 1_554 S
C576 C577 1.362 . S
C577 H567 0.930 . S
C577 C570 1.409 . S
C577 C576 1.362 . S
H578 C584 0.930 . S
H579 C587 0.930 . S
H580 C588 0.930 . S
H581 C589 0.930 . S
H582 C592 0.930 . S
H583 C593 0.930 . S
C584 H578 0.930 . S
C584 C585 1.355 . S
C584 C586 1.415 . S
C585 C584 1.355 . S
C585 C587 1.419 . S
C586 C584 1.415 . S
C586 C591 1.425 . S
C586 C593 1.409 . S
C587 H579 0.930 . S
C587 C585 1.419 . S
C587 C588 1.362 . S
C588 H580 0.930 . S
C588 C587 1.362 . S
C588 C591 1.409 . S
C589 H581 0.930 . S
C589 C590 1.355 . S
C589 C591 1.415 . S
C590 C589 1.355 . S
C590 C592 1.419 . S
C591 C586 1.425 . S
C591 C588 1.409 . S
C591 C589 1.415 . S
C592 H582 0.930 . S
C592 C590 1.419 . S
C592 C593 1.362 . S
C593 H583 0.930 . S
C593 C586 1.409 . S
C593 C592 1.362 . S
H594 C600 0.930 . S
H595 C603 0.930 . S
H596 C604 0.930 . S
H597 C605 0.930 . S
H598 C608 0.930 . S
H599 C609 0.930 . S
C600 H594 0.930 . S
C600 C601 1.355 . S
C600 C602 1.415 . S
C601 C600 1.355 . S
C601 C603 1.419 . S
C602 C600 1.415 . S
C602 C607 1.425 . S
C602 C609 1.409 . S
C603 H595 0.930 . S
C603 C601 1.419 . S
C603 C604 1.362 . S
C604 H596 0.930 . S
C604 C603 1.362 . S
C604 C607 1.409 . S
C605 H597 0.930 . S
C605 C606 1.355 . S
C605 C607 1.415 . S
C606 C605 1.355 . S
C606 C608 1.419 . S
C607 C602 1.425 . S
C607 C604 1.409 . S
C607 C605 1.415 . S
C608 H598 0.930 . S
C608 C606 1.419 . S
C608 C609 1.362 . S
C609 H599 0.930 . S
C609 C602 1.409 . S
C609 C608 1.362 . S
H610 C616 0.930 . S
H611 C619 0.930 . S
H612 C620 0.930 . S
H613 C621 0.930 . S
H614 C624 0.930 . S
H615 C625 0.930 . S
C616 H610 0.930 . S
C616 C617 1.355 . S
C616 C618 1.415 . S
C617 C616 1.355 . S
C617 C619 1.419 . S
C618 C616 1.415 . S
C618 C623 1.425 . S
C618 C625 1.409 . S
C619 H611 0.930 . S
C619 C617 1.419 . S
C619 C620 1.362 . S
C620 H612 0.930 . S
C620 C619 1.362 . S
C620 C623 1.409 . S
C621 H613 0.930 . S
C621 C622 1.355 . S
C621 C623 1.415 1_556 S
C622 C621 1.355 . S
C622 C624 1.419 . S
C623 C618 1.425 . S
C623 C620 1.409 . S
C623 C621 1.415 1_554 S
C624 H614 0.930 . S
C624 C622 1.419 . S
C624 C625 1.362 1_556 S
C625 H615 0.930 . S
C625 C618 1.409 . S
C625 C624 1.362 1_554 S
H626 C632 0.930 . S
H627 C635 0.930 . S
H628 C636 0.930 . S
H629 C637 0.930 1_655 S
H630 C640 0.930 . S
H631 C641 0.930 . S
C632 H626 0.930 . S
C632 C633 1.355 . S
C632 C634 1.415 . S
C633 C632 1.355 . S
C633 C635 1.419 1_455 S
C634 C632 1.415 . S
C634 C639 1.425 . S
C634 C641 1.409 . S
C635 H627 0.930 . S
C635 C633 1.419 1_655 S
C635 C636 1.362 . S
C636 H628 0.930 . S
C636 C635 1.362 . S
C636 C639 1.409 1_655 S
C637 H629 0.930 1_455 S
C637 C638 1.355 . S
C637 C639 1.415 . S
C638 C637 1.355 . S
C638 C640 1.419 . S
C639 C634 1.425 . S
C639 C636 1.409 1_455 S
C639 C637 1.415 . S
C640 H630 0.930 . S
C640 C638 1.419 . S
C640 C641 1.362 . S
C641 H631 0.930 . S
C641 C634 1.409 . S
C641 C640 1.362 . S
C462 C163 1.091 . S
C457 C14 1.493 . S
C473 C40 1.562 . S
C478 C277 1.147 . S
C489 C76 1.325 . S
C494 C337 1.112 . S
C505 C3 1.391 . S
C510 C137 1.198 . S
C526 C251 1.119 . S
C521 C38 1.460 . S
C537 C74 1.489 . S
C542 C347 1.019 . S
C558 C233 0.959 . S
C553 C86 1.446 . S
C569 C2 1.423 1_565 S
C574 C365 1.133 . S
C590 C109 0.952 . S
C585 C39 1.304 . S
C606 C223 0.927 . S
C601 C75 1.318 . S
C622 C391 1.146 . S
C617 C4 1.539 . S
C633 C50 1.452 . S
C638 C119 0.831 . S
