# Generated by pormake.
# Topology ctn, (3,4)-cn, num edge types: 1
# Building blocks:
#     Node 0, Type 0, BuildingBlock: PAMTOO_clean_linker_0, # of connection points: 3
#     Node 1, Type 0, BuildingBlock: PAMTOO_clean_linker_0, # of connection points: 3
#     Node 2, Type 0, BuildingBlock: PAMTOO_clean_linker_0, # of connection points: 3
#     Node 3, Type 0, BuildingBlock: PAMTOO_clean_linker_0, # of connection points: 3
#     Node 4, Type 0, BuildingBlock: PAMTOO_clean_linker_0, # of connection points: 3
#     Node 5, Type 0, BuildingBlock: PAMTOO_clean_linker_0, # of connection points: 3
#     Node 6, Type 0, BuildingBlock: PAMTOO_clean_linker_0, # of connection points: 3
#     Node 7, Type 0, BuildingBlock: PAMTOO_clean_linker_0, # of connection points: 3
#     Node 8, Type 0, BuildingBlock: PAMTOO_clean_linker_0, # of connection points: 3
#     Node 9, Type 0, BuildingBlock: PAMTOO_clean_linker_0, # of connection points: 3
#     Node 10, Type 0, BuildingBlock: PAMTOO_clean_linker_0, # of connection points: 3
#     Node 11, Type 0, BuildingBlock: PAMTOO_clean_linker_0, # of connection points: 3
#     Node 12, Type 0, BuildingBlock: PAMTOO_clean_linker_0, # of connection points: 3
#     Node 13, Type 0, BuildingBlock: PAMTOO_clean_linker_0, # of connection points: 3
#     Node 14, Type 0, BuildingBlock: PAMTOO_clean_linker_0, # of connection points: 3
#     Node 15, Type 0, BuildingBlock: PAMTOO_clean_linker_0, # of connection points: 3
#     Node 16, Type 1, BuildingBlock: QUQFOY_clean_sbu_1, # of connection points: 4
#     Node 17, Type 1, BuildingBlock: QUQFOY_clean_sbu_1, # of connection points: 4
#     Node 18, Type 1, BuildingBlock: QUQFOY_clean_sbu_1, # of connection points: 4
#     Node 19, Type 1, BuildingBlock: QUQFOY_clean_sbu_1, # of connection points: 4
#     Node 20, Type 1, BuildingBlock: QUQFOY_clean_sbu_1, # of connection points: 4
#     Node 21, Type 1, BuildingBlock: QUQFOY_clean_sbu_1, # of connection points: 4
#     Node 22, Type 1, BuildingBlock: QUQFOY_clean_sbu_1, # of connection points: 4
#     Node 23, Type 1, BuildingBlock: QUQFOY_clean_sbu_1, # of connection points: 4
#     Node 24, Type 1, BuildingBlock: QUQFOY_clean_sbu_1, # of connection points: 4
#     Node 25, Type 1, BuildingBlock: QUQFOY_clean_sbu_1, # of connection points: 4
#     Node 26, Type 1, BuildingBlock: QUQFOY_clean_sbu_1, # of connection points: 4
#     Node 27, Type 1, BuildingBlock: QUQFOY_clean_sbu_1, # of connection points: 4
#     Edge 28, Type (0, 1), BuildingBlock: EZIPEK_clean_linker_0, # of connection points: 2
#     Edge 29, Type (0, 1), BuildingBlock: EZIPEK_clean_linker_0, # of connection points: 2
#     Edge 30, Type (0, 1), BuildingBlock: EZIPEK_clean_linker_0, # of connection points: 2
#     Edge 31, Type (0, 1), BuildingBlock: EZIPEK_clean_linker_0, # of connection points: 2
#     Edge 32, Type (0, 1), BuildingBlock: EZIPEK_clean_linker_0, # of connection points: 2
#     Edge 33, Type (0, 1), BuildingBlock: EZIPEK_clean_linker_0, # of connection points: 2
#     Edge 34, Type (0, 1), BuildingBlock: EZIPEK_clean_linker_0, # of connection points: 2
#     Edge 35, Type (0, 1), BuildingBlock: EZIPEK_clean_linker_0, # of connection points: 2
#     Edge 36, Type (0, 1), BuildingBlock: EZIPEK_clean_linker_0, # of connection points: 2
#     Edge 37, Type (0, 1), BuildingBlock: EZIPEK_clean_linker_0, # of connection points: 2
#     Edge 38, Type (0, 1), BuildingBlock: EZIPEK_clean_linker_0, # of connection points: 2
#     Edge 39, Type (0, 1), BuildingBlock: EZIPEK_clean_linker_0, # of connection points: 2
#     Edge 40, Type (0, 1), BuildingBlock: EZIPEK_clean_linker_0, # of connection points: 2
#     Edge 41, Type (0, 1), BuildingBlock: EZIPEK_clean_linker_0, # of connection points: 2
#     Edge 42, Type (0, 1), BuildingBlock: EZIPEK_clean_linker_0, # of connection points: 2
#     Edge 43, Type (0, 1), BuildingBlock: EZIPEK_clean_linker_0, # of connection points: 2
#     Edge 44, Type (0, 1), BuildingBlock: EZIPEK_clean_linker_0, # of connection points: 2
#     Edge 45, Type (0, 1), BuildingBlock: EZIPEK_clean_linker_0, # of connection points: 2
#     Edge 46, Type (0, 1), BuildingBlock: EZIPEK_clean_linker_0, # of connection points: 2
#     Edge 47, Type (0, 1), BuildingBlock: EZIPEK_clean_linker_0, # of connection points: 2
#     Edge 48, Type (0, 1), BuildingBlock: EZIPEK_clean_linker_0, # of connection points: 2
#     Edge 49, Type (0, 1), BuildingBlock: EZIPEK_clean_linker_0, # of connection points: 2
#     Edge 50, Type (0, 1), BuildingBlock: EZIPEK_clean_linker_0, # of connection points: 2
#     Edge 51, Type (0, 1), BuildingBlock: EZIPEK_clean_linker_0, # of connection points: 2
#     Edge 52, Type (0, 1), BuildingBlock: EZIPEK_clean_linker_0, # of connection points: 2
#     Edge 53, Type (0, 1), BuildingBlock: EZIPEK_clean_linker_0, # of connection points: 2
#     Edge 54, Type (0, 1), BuildingBlock: EZIPEK_clean_linker_0, # of connection points: 2
#     Edge 55, Type (0, 1), BuildingBlock: EZIPEK_clean_linker_0, # of connection points: 2
#     Edge 56, Type (0, 1), BuildingBlock: EZIPEK_clean_linker_0, # of connection points: 2
#     Edge 57, Type (0, 1), BuildingBlock: EZIPEK_clean_linker_0, # of connection points: 2
#     Edge 58, Type (0, 1), BuildingBlock: EZIPEK_clean_linker_0, # of connection points: 2
#     Edge 59, Type (0, 1), BuildingBlock: EZIPEK_clean_linker_0, # of connection points: 2
#     Edge 60, Type (0, 1), BuildingBlock: EZIPEK_clean_linker_0, # of connection points: 2
#     Edge 61, Type (0, 1), BuildingBlock: EZIPEK_clean_linker_0, # of connection points: 2
#     Edge 62, Type (0, 1), BuildingBlock: EZIPEK_clean_linker_0, # of connection points: 2
#     Edge 63, Type (0, 1), BuildingBlock: EZIPEK_clean_linker_0, # of connection points: 2
#     Edge 64, Type (0, 1), BuildingBlock: EZIPEK_clean_linker_0, # of connection points: 2
#     Edge 65, Type (0, 1), BuildingBlock: EZIPEK_clean_linker_0, # of connection points: 2
#     Edge 66, Type (0, 1), BuildingBlock: EZIPEK_clean_linker_0, # of connection points: 2
#     Edge 67, Type (0, 1), BuildingBlock: EZIPEK_clean_linker_0, # of connection points: 2
#     Edge 68, Type (0, 1), BuildingBlock: EZIPEK_clean_linker_0, # of connection points: 2
#     Edge 69, Type (0, 1), BuildingBlock: EZIPEK_clean_linker_0, # of connection points: 2
#     Edge 70, Type (0, 1), BuildingBlock: EZIPEK_clean_linker_0, # of connection points: 2
#     Edge 71, Type (0, 1), BuildingBlock: EZIPEK_clean_linker_0, # of connection points: 2
#     Edge 72, Type (0, 1), BuildingBlock: EZIPEK_clean_linker_0, # of connection points: 2
#     Edge 73, Type (0, 1), BuildingBlock: EZIPEK_clean_linker_0, # of connection points: 2
#     Edge 74, Type (0, 1), BuildingBlock: EZIPEK_clean_linker_0, # of connection points: 2
#     Edge 75, Type (0, 1), BuildingBlock: EZIPEK_clean_linker_0, # of connection points: 2
# Relax obj value: 0.095
# Max RMSD: 0.212
# Mean RMSD: 0.142
data_MOF--net-ctn--node1-QUQFOY_clean_sbu_1--node2-PAMTOO_clean_linker_0--edge1-EZIPEK_clean_linker_0
_symmetry_space_group_name_H-M    P1
_symmetry_Int_Tables_number       1
_symmetry_cell_setting            triclinic
loop_
_symmetry_equiv_pos_as_xyz
'x, y, z'
_cell_length_a     39.387301
_cell_length_b     39.44647
_cell_length_c     40.181893
_cell_angle_alpha  87.295029
_cell_angle_beta   92.864806
_cell_angle_gamma 103.60568
loop_
_atom_site_label
_atom_site_type_symbol
_atom_site_fract_x
_atom_site_fract_y
_atom_site_fract_z
_atom_type_partial_charge
H0 H 0.99567 0.14188 0.0671 0.0
H1 H 0.05034 0.06173 0.09531 0.0
H2 H 0.0743 0.12281 0.00445 0.0
H3 H 0.07556 0.05327 0.99575 0.0
C4 C 0.08005 0.04372 0.0217 0.0
O5 O 0.08855 0.07152 0.0426 0.0
H6 H 0.05458 0.02616 0.02808 0.0
C7 C 0.01537 0.12779 0.06231 0.0
C8 C 0.03449 0.13566 0.03331 0.0
C9 C 0.02116 0.10133 0.08485 0.0
C10 C 0.04608 0.08255 0.07823 0.0
C11 C 0.06518 0.09025 0.04925 0.0
C12 C 0.05965 0.11707 0.02697 0.0
H13 H 0.31547 0.70149 0.25947 0.0
H14 H 0.20936 0.70762 0.23626 0.0
H15 H 0.29034 0.80149 0.2419 0.0
H16 H 0.1777 0.78422 0.21013 0.0
C17 C 0.20065 0.77473 0.20304 0.0
O18 O 0.22329 0.77601 0.23067 0.0
H19 H 0.18854 0.74733 0.19669 0.0
C20 C 0.29665 0.71683 0.25204 0.0
C21 C 0.30684 0.75332 0.25208 0.0
C22 C 0.26147 0.70008 0.24649 0.0
C23 C 0.23687 0.72027 0.23912 0.0
C24 C 0.2475 0.7567 0.23531 0.0
C25 C 0.2827 0.77326 0.24158 0.0
H26 H 0.98131 0.55908 0.12331 0.0
H27 H 0.91847 0.51921 0.0367 0.0
H28 H 0.99355 0.46506 0.07968 0.0
H29 H 0.97816 0.4922 0.997 0.0
C30 C 0.953 0.47223 0.99878 0.0
O31 O 0.94584 0.46528 0.032 0.0
H32 H 0.93171 0.48305 0.98651 0.0
C33 C 0.97401 0.5397 0.10438 0.0
C34 C 0.98995 0.51131 0.10476 0.0
C35 C 0.94845 0.54284 0.07957 0.0
C36 C 0.93853 0.51722 0.05567 0.0
C37 C 0.95525 0.48963 0.05535 0.0
C38 C 0.98113 0.48683 0.07969 0.0
H39 H 0.70401 0.8816 0.29355 0.0
H40 H 0.67309 0.77437 0.2654 0.0
H41 H 0.77146 0.8386 0.23532 0.0
H42 H 0.70127 0.78982 0.18883 0.0
C43 C 0.71215 0.76825 0.20046 0.0
O44 O 0.72863 0.7769 0.23109 0.0
H45 H 0.6887 0.74659 0.20415 0.0
C46 C 0.70942 0.85969 0.28122 0.0
C47 C 0.74065 0.86374 0.26462 0.0
C48 C 0.68501 0.82747 0.28163 0.0
C49 C 0.69206 0.79922 0.26556 0.0
C50 C 0.72293 0.80345 0.24835 0.0
C51 C 0.74735 0.83556 0.24822 0.0
H52 H 0.13163 0.98012 0.5347 0.0
H53 H 0.03499 0.95161 0.47655 0.0
H54 H 0.10842 0.04792 0.4539 0.0
H55 H 0.03702 0.05304 0.4519 0.0
C56 C 0.02397 0.02724 0.44185 0.0
O57 O 0.048 0.0077 0.43717 0.0
H58 H 0.00583 0.0148 0.4616 0.0
C59 C 0.11446 0.98563 0.51427 0.0
C60 C 0.1239 0.01676 0.495 0.0
C61 C 0.08231 0.96219 0.5078 0.0
C62 C 0.05997 0.96953 0.48157 0.0
C63 C 0.06954 0.00039 0.46218 0.0
C64 C 0.10141 0.02389 0.46885 0.0
H65 H 0.16245 0.7969 0.82453 0.0
H66 H 0.1941 0.72241 0.76515 0.0
H67 H 0.24842 0.75227 0.85841 0.0
H68 H 0.29386 0.74661 0.80353 0.0
C69 C 0.27643 0.72435 0.79063 0.0
O70 O 0.24517 0.71373 0.80637 0.0
H71 H 0.27241 0.73549 0.76526 0.0
C72 C 0.17968 0.77978 0.82068 0.0
C73 C 0.2058 0.77677 0.84486 0.0
C74 C 0.17513 0.76006 0.79195 0.0
C75 C 0.1975 0.73793 0.78715 0.0
C76 C 0.22416 0.73552 0.81087 0.0
C77 C 0.22811 0.75467 0.83985 0.0
H78 H 0.91758 0.58739 0.52003 0.0
H79 H 0.94198 0.52292 0.44555 0.0
H80 H 0.0218 0.60745 0.48387 0.0
H81 H 0.02364 0.59565 0.40971 0.0
C82 C 0.01289 0.56695 0.41085 0.0
O83 O 0.00787 0.55505 0.44343 0.0
H84 H 0.98749 0.56329 0.39648 0.0
C85 C 0.93616 0.58119 0.50364 0.0
C86 C 0.9706 0.60134 0.50382 0.0
C87 C 0.92561 0.55288 0.48274 0.0
C88 C 0.9498 0.54487 0.46172 0.0
C89 C 0.98441 0.56437 0.46229 0.0
C90 C 0.9949 0.59256 0.48336 0.0
H91 H 0.75345 0.81848 0.86617 0.0
H92 H 0.84323 0.78839 0.83428 0.0
H93 H 0.78884 0.84368 0.76544 0.0
H94 H 0.81063 0.77682 0.74191 0.0
C95 C 0.83618 0.78301 0.75596 0.0
O96 O 0.83968 0.81319 0.7732 0.0
H97 H 0.83492 0.7602 0.77362 0.0
C98 C 0.76974 0.81689 0.84579 0.0
C99 C 0.76336 0.8303 0.8132 0.0
C100 C 0.79799 0.80137 0.85313 0.0
C101 C 0.82181 0.80092 0.8288 0.0
C102 C 0.81734 0.8153 0.79705 0.0
C103 C 0.78919 0.83079 0.78962 0.0
H104 H 0.27723 0.34148 0.37832 0.0
H105 H 0.35706 0.29785 0.34007 0.0
H106 H 0.30991 0.36688 0.27754 0.0
H107 H 0.32071 0.29218 0.2517 0.0
C108 C 0.34755 0.29679 0.26306 0.0
O109 O 0.35514 0.32725 0.2804 0.0
H110 H 0.3468 0.27395 0.28059 0.0
C111 C 0.29379 0.3391 0.35821 0.0
C112 C 0.29144 0.35754 0.32772 0.0
C113 C 0.31738 0.31742 0.36263 0.0
C114 C 0.33899 0.31473 0.33674 0.0
C115 C 0.3357 0.33183 0.30584 0.0
C116 C 0.31199 0.35326 0.30134 0.0
H117 H 0.48045 0.05639 0.62424 0.0
H118 H 0.42122 0.01753 0.53544 0.0
H119 H 0.49507 0.96317 0.58079 0.0
H120 H 0.48474 0.99014 0.49803 0.0
C121 C 0.45828 0.97217 0.49844 0.0
O122 O 0.4496 0.96419 0.53117 0.0
H123 H 0.43889 0.98574 0.48635 0.0
C124 C 0.47409 0.03732 0.60497 0.0
C125 C 0.49026 0.00906 0.60582 0.0
C126 C 0.44934 0.0406 0.57941 0.0
C127 C 0.4406 0.01537 0.55505 0.0
C128 C 0.45766 0.98798 0.55512 0.0
C129 C 0.48251 0.98487 0.58042 0.0
H130 H 0.21123 0.37796 0.79516 0.0
H131 H 0.1762 0.26898 0.77413 0.0
H132 H 0.273 0.32885 0.73607 0.0
H133 H 0.19564 0.27422 0.69828 0.0
C134 C 0.21149 0.25599 0.70869 0.0
O135 O 0.2294 0.26733 0.73805 0.0
H136 H 0.1914 0.2317 0.7142 0.0
C137 C 0.21519 0.35493 0.78366 0.0
C138 C 0.24507 0.35702 0.76546 0.0
C139 C 0.19025 0.32327 0.78679 0.0
C140 C 0.19551 0.29351 0.77201 0.0
C141 C 0.22509 0.29569 0.75332 0.0
C142 C 0.24993 0.32738 0.75019 0.0
H143 H 0.8228 0.19007 0.77389 0.0
H144 H 0.74827 0.19872 0.69381 0.0
H145 H 0.83442 0.28562 0.71465 0.0
H146 H 0.76233 0.29947 0.70317 0.0
C147 C 0.754 0.28239 0.6816 0.0
O148 O 0.77825 0.2632 0.67635 0.0
H149 H 0.72897 0.26499 0.68938 0.0
C150 C 0.81418 0.20493 0.75308 0.0
C151 C 0.83239 0.23932 0.74619 0.0
C152 C 0.78388 0.19022 0.73429 0.0
C153 C 0.77204 0.20979 0.7081 0.0
C154 C 0.79026 0.24416 0.70102 0.0
C155 C 0.82063 0.25886 0.71986 0.0
H156 H 0.48233 0.64374 0.5595 0.0
H157 H 0.53788 0.56558 0.59217 0.0
H158 H 0.55388 0.6147 0.49465 0.0
H159 H 0.5375 0.52894 0.51178 0.0
C160 C 0.56034 0.53329 0.52971 0.0
O161 O 0.57129 0.56814 0.53701 0.0
H162 H 0.55006 0.51779 0.55239 0.0
C163 C 0.50101 0.62839 0.55492 0.0
C164 C 0.51776 0.6326 0.52446 0.0
C165 C 0.50796 0.60402 0.57928 0.0
C166 C 0.53232 0.58439 0.57339 0.0
C167 C 0.5485 0.58785 0.54275 0.0
C168 C 0.54113 0.61187 0.51823 0.0
H169 H 0.62659 0.47524 0.03282 0.0
H170 H 0.5301 0.45434 0.97372 0.0
H171 H 0.60812 0.54848 0.95504 0.0
H172 H 0.5416 0.56055 0.94745 0.0
C173 C 0.52559 0.53447 0.94064 0.0
O174 O 0.54671 0.5118 0.93635 0.0
H175 H 0.50874 0.52587 0.96229 0.0
C176 C 0.61002 0.48273 0.01281 0.0
C177 C 0.62112 0.51455 0.99499 0.0
C178 C 0.57708 0.46106 0.00536 0.0
C179 C 0.55558 0.47095 0.9796 0.0
C180 C 0.56698 0.50239 0.96144 0.0
C181 C 0.59965 0.52403 0.96907 0.0
H182 H 0.66692 0.29831 0.30812 0.0
H183 H 0.71414 0.23307 0.25111 0.0
H184 H 0.75978 0.26799 0.34646 0.0
H185 H 0.8113 0.25947 0.29645 0.0
C186 C 0.79422 0.23758 0.28281 0.0
O187 O 0.76212 0.2274 0.29706 0.0
H188 H 0.79177 0.2491 0.25733 0.0
C189 C 0.68737 0.28456 0.30521 0.0
C190 C 0.71378 0.28611 0.33008 0.0
C191 C 0.68745 0.26583 0.27642 0.0
C192 C 0.71409 0.24814 0.27296 0.0
C193 C 0.73965 0.2483 0.2985 0.0
C194 C 0.7398 0.2677 0.32685 0.0
H195 H 0.42303 0.07371 0.02989 0.0
H196 H 0.4555 0.00839 0.96111 0.0
H197 H 0.52947 0.09761 -0.00073 0.0
H198 H 0.5404 0.08637 0.92981 0.0
C199 C 0.52735 0.05818 0.92859 0.0
O200 O 0.52044 0.04425 0.96032 0.0
H201 H 0.50274 0.05777 0.91361 0.0
C202 C 0.44322 0.06771 0.01536 0.0
C203 C 0.47686 0.08952 0.0164 0.0
C204 C 0.43532 0.03834 0.99565 0.0
C205 C 0.4614 0.03093 0.97659 0.0
C206 C 0.49535 0.05207 0.97815 0.0
C207 C 0.5032 0.08121 0.99826 0.0
O208 O 0.23617 0.85479 0.98676 0.0
Cd209 Cd 0.24804 0.88467 0.02871 0.0
Cd210 Cd 0.21966 0.92841 0.98785 0.0
O211 O 0.20461 0.8864 0.95795 0.0
O212 O 0.26344 0.85257 0.06289 0.0
O213 O 0.21764 0.87502 0.06855 0.0
C214 C 0.23772 0.85533 0.08028 0.0
C215 C 0.18035 0.96018 0.00323 0.0
C216 C 0.21712 0.85954 0.9613 0.0
C217 C 0.29567 0.95065 0.00427 0.0
O218 O 0.27098 0.95465 0.98407 0.0
O219 O 0.29054 0.92643 0.02671 0.0
O220 O 0.19093 0.96212 0.97318 0.0
O221 O 0.1916 0.93946 0.02466 0.0
O222 O 0.19139 0.54652 0.3004 0.0
Cd223 Cd 0.16799 0.49594 0.31488 0.0
Cd224 Cd 0.12681 0.50922 0.26058 0.0
O225 O 0.17739 0.53433 0.24864 0.0
O226 O 0.20363 0.47584 0.34039 0.0
O227 O 0.17843 0.45545 0.29233 0.0
C228 C 0.20061 0.45397 0.3169 0.0
C229 C 0.08794 0.50259 0.21417 0.0
C230 C 0.19501 0.55486 0.26972 0.0
C231 C 0.10395 0.50978 0.33263 0.0
O232 O 0.10365 0.52152 0.30262 0.0
O233 O 0.12534 0.49168 0.34275 0.0
O234 O 0.10104 0.53257 0.22629 0.0
O235 O 0.09687 0.47569 0.22815 0.0
O236 O 0.78977 0.72753 -0.00044 0.0
Cd237 Cd 0.77599 0.69521 0.04063 0.0
Cd238 Cd 0.82044 0.65986 0.01625 0.0
O239 O 0.82571 0.69899 0.97919 0.0
O240 O 0.74963 0.72078 0.06707 0.0
O241 O 0.79746 0.70503 0.08678 0.0
C242 C 0.77181 0.7193 0.09139 0.0
C243 C 0.86658 0.6403 0.04223 0.0
C244 C 0.80998 0.7238 0.9771 0.0
C245 C 0.74552 0.62193 0.02027 0.0
O246 O 0.77602 0.62046 0.01279 0.0
O247 O 0.73996 0.64938 0.03191 0.0
O248 O 0.85793 0.6347 0.01128 0.0
O249 O 0.85101 0.65976 0.05795 0.0
O250 O 0.94542 0.03755 0.29547 0.0
Cd251 Cd 0.91516 0.0376 0.25225 0.0
Cd252 Cd 0.87518 0.06528 0.29207 0.0
O253 O 0.91459 0.06259 0.32702 0.0
O254 O 0.94468 0.02952 0.21606 0.0
O255 O 0.92546 0.07785 0.21878 0.0
C256 C 0.94315 0.05988 0.20372 0.0
C257 C 0.85567 0.11659 0.28613 0.0
C258 C 0.94044 0.04924 0.32326 0.0
C259 C 0.84301 0.99514 0.26444 0.0
O260 O 0.83939 0.01896 0.2832 0.0
O261 O 0.87081 0.99792 0.2488 0.0
O262 O 0.84812 0.09559 0.31163 0.0
O263 O 0.87474 0.10875 0.26377 0.0
O264 O 0.29684 0.2324 0.50332 0.0
Cd265 Cd 0.27954 0.19837 0.54241 0.0
Cd266 Cd 0.32326 0.16156 0.51769 0.0
O267 O 0.33112 0.20238 0.48229 0.0
O268 O 0.25341 0.22376 0.56933 0.0
O269 O 0.29906 0.20446 0.58961 0.0
C270 C 0.27394 0.21945 0.59429 0.0
C271 C 0.3681 0.13941 0.54315 0.0
C272 C 0.31731 0.22854 0.48114 0.0
C273 C 0.24726 0.12633 0.51942 0.0
O274 O 0.27767 0.12376 0.51278 0.0
O275 O 0.24239 0.15407 0.53104 0.0
O276 O 0.35957 0.13506 0.51201 0.0
O277 O 0.35303 0.15881 0.55953 0.0
O278 O 0.44473 0.54074 0.79509 0.0
Cd279 Cd 0.41412 0.53827 0.75175 0.0
Cd280 Cd 0.37028 0.56109 0.7913 0.0
O281 O 0.40992 0.56077 0.82666 0.0
O282 O 0.44494 0.53486 0.71492 0.0
O283 O 0.41919 0.57885 0.71859 0.0
C284 C 0.43913 0.56389 0.70284 0.0
C285 C 0.34563 0.6093 0.78798 0.0
C286 C 0.43767 0.55044 0.82311 0.0
C287 C 0.34432 0.49023 0.76252 0.0
O288 O 0.33796 0.51325 0.78077 0.0
O289 O 0.37307 0.49511 0.74803 0.0
O290 O 0.33967 0.5867 0.81244 0.0
O291 O 0.36585 0.60478 0.76508 0.0
O292 O 0.72782 0.36832 0.46767 0.0
Cd293 Cd 0.73845 0.39678 0.51051 0.0
Cd294 Cd 0.71074 0.44171 0.46802 0.0
O295 O 0.70056 0.40163 0.43562 0.0
O296 O 0.76002 0.36495 0.5399 0.0
O297 O 0.71247 0.38117 0.55296 0.0
C298 C 0.73597 0.36388 0.56058 0.0
C299 C 0.66743 0.46731 0.48538 0.0
C300 C 0.71209 0.37423 0.44039 0.0
C301 C 0.78541 0.46555 0.48937 0.0
O302 O 0.76143 0.47049 0.46877 0.0
O303 O 0.77985 0.43977 0.5101 0.0
O304 O 0.68071 0.47507 0.45648 0.0
O305 O 0.67832 0.44423 0.50427 0.0
O306 O 0.7054 0.03412 0.7915 0.0
Cd307 Cd 0.67222 0.98898 0.80888 0.0
Cd308 Cd 0.62259 0.01259 0.76539 0.0
O309 O 0.66662 0.051 0.75679 0.0
O310 O 0.70199 0.95789 0.82814 0.0
O311 O 0.66538 0.94454 0.78437 0.0
C312 C 0.68862 0.93644 0.80514 0.0
C313 C 0.58395 0.00263 0.71901 0.0
C314 C 0.69727 0.05566 0.76985 0.0
C315 C 0.61078 0.00559 0.83977 0.0
O316 O 0.60015 0.01267 0.8105 0.0
O317 O 0.63862 0.99477 0.84489 0.0
O318 O 0.58861 0.03063 0.73537 0.0
O319 O 0.60073 0.9794 0.72911 0.0
O320 O 0.96325 0.3249 0.93422 0.0
Cd321 Cd 0.97093 0.28082 0.91302 0.0
Cd322 Cd 0.01057 0.32734 0.87342 0.0
O323 O 0.00654 0.36156 0.90951 0.0
O324 O 0.96038 0.241 0.94624 0.0
O325 O 0.01308 0.26237 0.9264 0.0
C326 C 0.99289 0.24012 0.94561 0.0
C327 C 0.06411 0.32561 0.85299 0.0
C328 C 0.98232 0.35553 0.93027 0.0
C329 C 0.94403 0.28493 0.84349 0.0
O330 O 0.96834 0.31231 0.84045 0.0
O331 O 0.94166 0.26607 0.87014 0.0
O332 O 0.04951 0.35098 0.84472 0.0
O333 O 0.04895 0.30171 0.87397 0.0
O334 O 0.45787 0.82553 0.42672 0.0
Cd335 Cd 0.46162 0.78146 0.40296 0.0
Cd336 Cd 0.5017 0.82764 0.36313 0.0
O337 O 0.50066 0.86137 0.40063 0.0
O338 O 0.44887 0.741 0.43538 0.0
O339 O 0.5015 0.75877 0.41456 0.0
C340 C 0.48056 0.73763 0.43406 0.0
C341 C 0.55467 0.82437 0.34245 0.0
C342 C 0.47782 0.85571 0.42275 0.0
C343 C 0.43219 0.79026 0.3346 0.0
O344 O 0.4582 0.81598 0.33097 0.0
O345 O 0.42972 0.77077 0.36089 0.0
O346 O 0.54104 0.85049 0.33462 0.0
O347 O 0.53844 0.80008 0.36252 0.0
O348 O 0.9664 0.7529 0.67922 0.0
Cd349 Cd 0.01224 0.74855 0.6588 0.0
Cd350 Cd 0.99008 0.7878 0.60948 0.0
O351 O 0.95538 0.79387 0.64399 0.0
O352 O 0.03704 0.72815 0.69585 0.0
O353 O 0.05721 0.78118 0.67371 0.0
C354 C 0.06078 0.75686 0.69536 0.0
C355 C 0.02303 0.83753 0.58407 0.0
C356 C 0.94856 0.775 0.67037 0.0
C357 C 0.99459 0.71636 0.59259 0.0
O358 O 0.98144 0.7421 0.58409 0.0
O359 O 0.01074 0.71532 0.6206 0.0
O360 O 0.99068 0.82563 0.57517 0.0
O361 O 0.03699 0.8212 0.60761 0.0
O362 O 0.47118 0.26089 0.18081 0.0
Cd363 Cd 0.51306 0.2506 0.15755 0.0
Cd364 Cd 0.48613 0.2846 0.10587 0.0
O365 O 0.45243 0.29266 0.14058 0.0
O366 O 0.53969 0.23368 0.19529 0.0
O367 O 0.56204 0.27994 0.16331 0.0
C368 C 0.56597 0.25874 0.18791 0.0
C369 C 0.51784 0.33364 0.0785 0.0
C370 C 0.4504 0.27951 0.17005 0.0
C371 C 0.49062 0.21128 0.0952 0.0
O372 O 0.4789 0.23707 0.08374 0.0
O373 O 0.50568 0.21193 0.12387 0.0
O374 O 0.48575 0.32031 0.0696 0.0
O375 O 0.53234 0.31878 0.10279 0.0
C376 C 0.18635 0.7852 0.90181 0.0
C377 C 0.20964 0.79695 0.87557 0.0
C378 C 0.24014 0.84707 0.90774 0.0
C379 C 0.21486 0.83712 0.93253 0.0
N380 N 0.16223 0.79906 0.95259 0.0
N381 N 0.25584 0.84089 0.85114 0.0
C382 C 0.18749 0.80676 0.92946 0.0
C383 C 0.23587 0.82833 0.87792 0.0
N384 N 0.1638 0.75306 0.90058 0.0
N385 N 0.26859 0.87411 0.91302 0.0
H386 H 0.25384 0.82765 0.829 0.0
H387 H 0.27254 0.86561 0.84981 0.0
H388 H 0.2723 0.88907 0.9342 0.0
H389 H 0.28992 0.8801 0.89773 0.0
H390 H 0.14857 0.74138 0.9203 0.0
H391 H 0.16219 0.7367 0.88062 0.0
H392 H 0.13945 0.77951 0.94999 0.0
H393 H 0.16298 0.81382 0.97361 0.0
C394 C 0.0741 0.56073 0.39894 0.0
C395 C 0.03724 0.54805 0.3952 0.0
C396 C 0.04481 0.50637 0.35446 0.0
C397 C 0.08138 0.52046 0.35646 0.0
N398 N 0.13206 0.55696 0.38357 0.0
N399 N 0.98934 0.49994 0.38034 0.0
C400 C 0.09644 0.54624 0.37988 0.0
C401 C 0.02309 0.5181 0.37629 0.0
N402 N 0.08757 0.58687 0.42046 0.0
N403 N 0.03074 0.48221 0.33123 0.0
H404 H 0.97334 0.50636 0.39774 0.0
H405 H 0.97851 0.47618 0.36945 0.0
H406 H 0.04594 0.47154 0.31602 0.0
H407 H 0.00401 0.4743 0.32564 0.0
H408 H 0.11355 0.60062 0.42164 0.0
H409 H 0.07253 0.59521 0.43759 0.0
H410 H 0.14515 0.57325 0.40203 0.0
H411 H 0.1492 0.54836 0.36887 0.0
C412 C 0.82041 0.79926 0.91282 0.0
C413 C 0.80085 0.78201 0.88534 0.0
C414 C 0.78709 0.72706 0.91839 0.0
C415 C 0.80868 0.74365 0.94512 0.0
N416 N 0.84865 0.79398 0.96747 0.0
N417 N 0.7693 0.72891 0.8599 0.0
C418 C 0.8261 0.7794 0.94228 0.0
C419 C 0.78529 0.74572 0.88754 0.0
N420 N 0.83299 0.83465 0.9108 0.0
N421 N 0.76696 0.69393 0.923 0.0
H422 H 0.76579 0.7418 0.83717 0.0
H423 H 0.76155 0.70186 0.8587 0.0
H424 H 0.7676 0.67904 0.94506 0.0
H425 H 0.7475 0.68204 0.90598 0.0
H426 H 0.84451 0.84949 0.93087 0.0
H427 H 0.82985 0.84971 0.88932 0.0
H428 H 0.86481 0.81895 0.96594 0.0
H429 H 0.85306 0.78003 0.98934 0.0
C430 C 0.97236 0.00701 0.40151 0.0
C431 C 0.00428 0.03131 0.40903 0.0
C432 C 0.99701 0.06447 0.35675 0.0
C433 C 0.96268 0.04339 0.35258 0.0
N434 N 0.91622 0.99592 0.37166 0.0
N435 N 0.05004 0.08044 0.39167 0.0
C436 C 0.94993 0.01507 0.37518 0.0
C437 C 0.01765 0.05918 0.38586 0.0
N438 N 0.96433 0.97534 0.4183 0.0
N439 N 0.00991 0.08909 0.33258 0.0
H440 H 0.06782 0.07483 0.40997 0.0
H441 H 0.05952 0.10389 0.37862 0.0
H442 H 0.99495 0.09442 0.31168 0.0
H443 H 0.03577 0.10315 0.33205 0.0
H444 H 0.94303 0.9553 0.41171 0.0
H445 H 0.98114 0.96731 0.43621 0.0
H446 H 0.90423 0.97783 0.3897 0.0
H447 H 0.89926 -0.00021 0.35184 0.0
C448 C 0.25037 0.27541 0.6588 0.0
C449 C 0.23642 0.24936 0.68339 0.0
C450 C 0.2558 0.20523 0.65327 0.0
C451 C 0.26731 0.23054 0.6275 0.0
N452 N 0.28537 0.29086 0.60974 0.0
N453 N 0.23912 0.1942 0.71068 0.0
C454 C 0.26777 0.26611 0.63164 0.0
C455 C 0.24367 0.21582 0.68286 0.0
N456 N 0.24617 0.30865 0.66088 0.0
N457 N 0.25414 0.17074 0.64868 0.0
H458 H 0.23121 0.20156 0.7331 0.0
H459 H 0.24691 0.17069 0.71267 0.0
H460 H 0.2629 0.16172 0.6275 0.0
H461 H 0.24178 0.15075 0.66488 0.0
H462 H 0.25136 0.3275 0.64163 0.0
H463 H 0.2366 0.31743 0.68171 0.0
H464 H 0.28951 0.31761 0.61268 0.0
H465 H 0.29871 0.28455 0.58999 0.0
C466 C 0.45561 0.57251 0.61057 0.0
C467 C 0.48821 0.59732 0.61035 0.0
C468 C 0.48685 0.60326 0.67074 0.0
C469 C 0.4542 0.5786 0.67086 0.0
N470 N 0.40388 0.54514 0.64098 0.0
N471 N 0.53193 0.64123 0.63812 0.0
C472 C 0.43742 0.56496 0.64072 0.0
C473 C 0.50289 0.61432 0.63984 0.0
N474 N 0.44273 0.55521 0.58224 0.0
N475 N 0.50303 0.61506 0.7003 0.0
H476 H 0.5445 0.64954 0.61591 0.0
H477 H 0.5421 0.65703 0.65797 0.0
H478 H 0.49137 0.60844 0.7232 0.0
H479 H 0.5286 0.62988 0.70246 0.0
H480 H 0.42135 0.53391 0.58164 0.0
H481 H 0.45474 0.56073 0.55942 0.0
H482 H 0.38876 0.53723 0.61951 0.0
H483 H 0.38996 0.53899 0.66274 0.0
C484 C 0.77082 0.33754 0.64467 0.0
C485 C 0.74886 0.30366 0.64998 0.0
C486 C 0.71611 0.31053 0.59725 0.0
C487 C 0.73722 0.34468 0.59289 0.0
N488 N 0.78003 0.39346 0.61446 0.0
N489 N 0.708 0.25414 0.62631 0.0
C490 C 0.76324 0.35895 0.61721 0.0
C491 C 0.72331 0.2891 0.62498 0.0
N492 N 0.80046 0.3483 0.66432 0.0
N493 N 0.6889 0.29883 0.57502 0.0
H494 H 0.71432 0.23683 0.64465 0.0
H495 H 0.69176 0.24126 0.60736 0.0
H496 H 0.68352 0.31366 0.55409 0.0
H497 H 0.66993 0.27581 0.57857 0.0
H498 H 0.81937 0.37109 0.6595 0.0
H499 H 0.80855 0.33279 0.68335 0.0
H500 H 0.79634 0.40668 0.63321 0.0
H501 H 0.77506 0.4099 0.59462 0.0
C502 C 0.50039 0.9902 0.66515 0.0
C503 C 0.51439 0.00396 0.63415 0.0
C504 C 0.57384 0.00757 0.65737 0.0
C505 C 0.55999 0.99816 0.68928 0.0
N506 N 0.51075 0.98188 0.72469 0.0
N507 N 0.56402 0.02818 0.60063 0.0
C508 C 0.5234 0.98963 0.69346 0.0
C509 C 0.55104 0.01298 0.63008 0.0
N510 N 0.46517 0.97698 0.66726 0.0
N511 N 0.60882 0.0114 0.65328 0.0
H512 H 0.54808 0.03235 0.58006 0.0
H513 H 0.59043 0.03892 0.59717 0.0
H514 H 0.62626 0.00825 0.67294 0.0
H515 H 0.62016 0.01487 0.63014 0.0
H516 H 0.45362 0.96335 0.68818 0.0
H517 H 0.4475 0.97715 0.64706 0.0
H518 H 0.48476 0.97974 0.73015 0.0
H519 H 0.52675 0.97926 0.74569 0.0
C520 C 0.85572 0.27215 0.79723 0.0
C521 C 0.86224 0.25528 0.76862 0.0
C522 C 0.92389 0.26285 0.78667 0.0
C523 C 0.91649 0.2764 0.81688 0.0
N524 N 0.87612 0.29391 0.85193 0.0
N525 N 0.90113 0.23302 0.73584 0.0
C526 C 0.88262 0.28121 0.82237 0.0
C527 C 0.89607 0.2505 0.76308 0.0
N528 N 0.82385 0.27976 0.80007 0.0
N529 N 0.9575 0.26177 0.78067 0.0
H530 H 0.88166 0.22495 0.71741 0.0
H531 H 0.92392 0.22493 0.73212 0.0
H532 H 0.97819 0.26897 0.79809 0.0
H533 H 0.96548 0.25575 0.75782 0.0
H534 H 0.8183 0.29515 0.81843 0.0
H535 H 0.80322 0.27266 0.78257 0.0
H536 H 0.85126 0.29401 0.85945 0.0
H537 H 0.89563 0.30314 0.87001 0.0
C538 C 0.45096 0.90569 0.49152 0.0
C539 C 0.45896 0.94057 0.47805 0.0
C540 C 0.47167 0.91773 0.4254 0.0
C541 C 0.47212 0.88514 0.44188 0.0
N542 N 0.46885 0.85122 0.49392 0.0
N543 N 0.4791 0.97968 0.43091 0.0
C544 C 0.46392 0.88006 0.47599 0.0
C545 C 0.47013 0.94656 0.44464 0.0
N546 N 0.42849 0.89583 0.51686 0.0
N547 N 0.47018 0.92082 0.39135 0.0
H548 H 0.47631 0.00175 0.44275 0.0
H549 H 0.49143 0.98538 0.40827 0.0
H550 H 0.46797 0.89981 0.37596 0.0
H551 H 0.46652 0.94329 0.37839 0.0
H552 H 0.42112 0.87006 0.52596 0.0
H553 H 0.4124 0.91136 0.52428 0.0
H554 H 0.4654 0.84812 0.51955 0.0
H555 H 0.48017 0.83266 0.48412 0.0
C556 C 0.15788 0.32067 0.83945 0.0
C557 C 0.15759 0.32189 0.8041 0.0
C558 C 0.09499 0.32004 0.80152 0.0
C559 C 0.0961 0.32285 0.83666 0.0
N560 N 0.12906 0.32983 0.88912 0.0
N561 N 0.12751 0.32771 0.75108 0.0
C562 C 0.12763 0.324 0.85574 0.0
C563 C 0.12657 0.32288 0.78499 0.0
N564 N 0.18687 0.31573 0.85737 0.0
N565 N 0.06355 0.31332 0.78407 0.0
H566 H 0.15007 0.32954 0.7379 0.0
H567 H 0.10669 0.33275 0.73624 0.0
H568 H 0.03969 0.31042 0.79533 0.0
H569 H 0.06077 0.30725 0.75899 0.0
H570 H 0.18751 0.31095 0.88307 0.0
H571 H 0.20959 0.31362 0.84618 0.0
H572 H 0.15217 0.33478 0.90369 0.0
H573 H 0.10745 0.33244 0.90187 0.0
C574 C 0.52946 0.69421 0.50131 0.0
C575 C 0.51057 0.65897 0.49915 0.0
C576 C 0.47655 0.67476 0.45053 0.0
C577 C 0.49257 0.7105 0.45512 0.0
N578 N 0.53127 0.75503 0.48719 0.0
N579 N 0.46419 0.6155 0.47396 0.0
C580 C 0.5185 0.72048 0.48093 0.0
C581 C 0.48364 0.64913 0.47427 0.0
N582 N 0.55807 0.70249 0.52267 0.0
N583 N 0.45541 0.66527 0.42285 0.0
H584 H 0.46932 0.5958 0.49031 0.0
H585 H 0.44158 0.60754 0.45905 0.0
H586 H 0.44998 0.68335 0.40478 0.0
H587 H 0.44576 0.63949 0.41621 0.0
H588 H 0.57523 0.72699 0.52286 0.0
H589 H 0.56638 0.68402 0.53847 0.0
H590 H 0.54712 0.76385 0.50801 0.0
H591 H 0.52383 0.77512 0.47304 0.0
C592 C 0.90022 0.78353 0.748 0.0
C593 C 0.86706 0.78622 0.73383 0.0
C594 C 0.88731 0.78153 0.67805 0.0
C595 C 0.92079 0.78003 0.69197 0.0
N596 N 0.96192 0.79107 0.73912 0.0
N597 N 0.83525 0.80241 0.68495 0.0
C598 C 0.92813 0.78434 0.72668 0.0
C599 C 0.86249 0.78988 0.6987 0.0
N600 N 0.90518 0.77988 0.78175 0.0
N601 N 0.8784 0.77338 0.64561 0.0
H602 H 0.81826 0.81177 0.69922 0.0
H603 H 0.83249 0.80793 0.65947 0.0
H604 H 0.89505 0.76537 0.62989 0.0
H605 H 0.8531 0.77094 0.63545 0.0
H606 H 0.9272 0.77304 0.79293 0.0
H607 H 0.88664 0.78185 0.79866 0.0
H608 H 0.96902 0.79782 0.76367 0.0
H609 H 0.98335 0.79386 0.72414 0.0
C610 C 0.0526 0.93289 0.55868 0.0
C611 C 0.07097 0.93069 0.52966 0.0
C612 C 0.06134 0.86733 0.53853 0.0
C613 C 0.04315 0.86962 0.5676 0.0
N614 N 0.02725 0.90411 0.60944 0.0
N615 N 0.09871 0.89785 0.49499 0.0
C616 C 0.04069 0.90235 0.579 0.0
C617 C 0.07726 0.89847 0.52056 0.0
N618 N 0.04543 0.96393 0.56606 0.0
N619 N 0.06228 0.83528 0.52755 0.0
H620 H 0.11025 0.92017 0.48099 0.0
H621 H 0.10721 0.87588 0.48911 0.0
H622 H 0.05218 0.81209 0.54093 0.0
H623 H 0.07142 0.83139 0.50451 0.0
H624 H 0.02871 0.96649 0.58454 0.0
H625 H 0.05453 0.98709 0.55227 0.0
H626 H 0.02779 0.92741 0.62081 0.0
H627 H 0.01805 0.88207 0.62475 0.0
C628 C 0.15333 0.77493 0.73443 0.0
C629 C 0.14602 0.76162 0.76739 0.0
C630 C 0.08342 0.75368 0.75424 0.0
C631 C 0.09051 0.76162 0.72012 0.0
N632 N 0.13252 0.77494 0.67674 0.0
N633 N 0.10367 0.73229 0.80707 0.0
C634 C 0.12557 0.77122 0.70987 0.0
C635 C 0.11092 0.7494 0.77694 0.0
N636 N 0.18662 0.7918 0.72675 0.0
N637 N 0.05061 0.7513 0.76521 0.0
H638 H 0.12298 0.72752 0.82413 0.0
H639 H 0.07843 0.71978 0.81368 0.0
H640 H 0.03002 0.75573 0.74956 0.0
H641 H 0.04487 0.74884 0.79038 0.0
H642 H 0.1928 0.80506 0.704 0.0
H643 H 0.20753 0.79545 0.74423 0.0
H644 H 0.15757 0.77818 0.66795 0.0
H645 H 0.11307 0.77162 0.65783 0.0
C646 C 0.98973 0.66584 0.51347 0.0
C647 C 0.98084 0.63097 0.5265 0.0
C648 C 0.97867 0.65208 0.58239 0.0
C649 C 0.99064 0.68696 0.56995 0.0
N650 N 0.01632 0.7261 0.52506 0.0
N651 N 0.97607 0.59114 0.57439 0.0
C652 C 0.99879 0.69363 0.53587 0.0
C653 C 0.97835 0.62419 0.56135 0.0
N654 N 0.9881 0.67263 0.47983 0.0
N655 N 0.96555 0.64542 0.61351 0.0
H656 H 0.97649 0.57013 0.5597 0.0
H657 H 0.97748 0.58541 0.59994 0.0
H658 H 0.96315 0.66497 0.62918 0.0
H659 H 0.9534 0.62045 0.62229 0.0
H660 H 0.99066 0.69773 0.46934 0.0
H661 H 0.98109 0.6531 0.46249 0.0
H662 H 0.02576 0.73142 0.50114 0.0
H663 H 0.02479 0.74683 0.54095 0.0
C664 C 0.79569 0.90235 0.28757 0.0
C665 C 0.76662 0.89764 0.26458 0.0
C666 C 0.78613 0.95803 0.24315 0.0
C667 C 0.81657 0.96176 0.2643 0.0
N668 N 0.85297 0.93698 0.30392 0.0
N669 N 0.73567 0.91866 0.21776 0.0
C670 C 0.82213 0.93373 0.28572 0.0
C671 C 0.76218 0.92489 0.24162 0.0
N672 N 0.79738 0.87722 0.31186 0.0
N673 N 0.77998 0.9863 0.22494 0.0
H674 H 0.71739 0.89483 0.21621 0.0
H675 H 0.73313 0.93611 0.19807 0.0
H676 H 0.79758 0.01064 0.22475 0.0
H677 H 0.75656 0.9864 0.21179 0.0
H678 H 0.81573 0.88066 0.3317 0.0
H679 H 0.77869 0.85367 0.31375 0.0
H680 H 0.86035 0.91625 0.31693 0.0
H681 H 0.8725 0.95999 0.30427 0.0
C682 C 0.80232 0.18224 0.2564 0.0
C683 C 0.81034 0.20605 0.28292 0.0
C684 C 0.85143 0.17336 0.30831 0.0
C685 C 0.84222 0.1487 0.28301 0.0
N686 N 0.80505 0.12603 0.23582 0.0
N687 N 0.83336 0.21636 0.33955 0.0
C688 C 0.81687 0.1523 0.25757 0.0
C689 C 0.83229 0.1994 0.31046 0.0
N690 N 0.78026 0.18768 0.23037 0.0
N691 N 0.87903 0.17231 0.33006 0.0
H692 H 0.81786 0.23375 0.3435 0.0
H693 H 0.84637 0.20992 0.36128 0.0
H694 H 0.89397 0.15379 0.32902 0.0
H695 H 0.88924 0.19186 0.34682 0.0
H696 H 0.77788 0.17479 0.20806 0.0
H697 H 0.76471 0.20567 0.23044 0.0
H698 H 0.7836 0.1248 0.21933 0.0
H699 H 0.81508 0.10381 0.23575 0.0
C700 C 0.39457 0.9796 0.00576 0.0
C701 C 0.3996 0.0153 0.99561 0.0
C702 C 0.33638 0.00958 0.99442 0.0
C703 C 0.33128 0.97302 0.00056 0.0
N704 N 0.35632 0.92241 0.00123 0.0
N705 N 0.37458 0.06166 0.97147 0.0
C706 C 0.36059 0.95769 0.00303 0.0
C707 C 0.37026 0.02951 0.98712 0.0
N708 N 0.42169 0.96676 0.01937 0.0
N709 N 0.30957 0.02571 0.99722 0.0
H710 H 0.39894 0.07649 0.96451 0.0
H711 H 0.35363 0.07175 0.96224 0.0
H712 H 0.28483 0.01258 0.00473 0.0
H713 H 0.3131 0.05277 0.99583 0.0
H714 H 0.41822 0.94155 0.02987 0.0
H715 H 0.4468 0.98221 0.02349 0.0
H716 H 0.37734 0.91068 0.00016 0.0
H717 H 0.33211 0.90542 0.99657 0.0
C718 C 0.28242 0.41849 0.32478 0.0
C719 C 0.26794 0.38204 0.32367 0.0
C720 C 0.20881 0.39241 0.31887 0.0
C721 C 0.22348 0.42894 0.31764 0.0
N722 N 0.27418 0.47669 0.31199 0.0
N723 N 0.21817 0.3342 0.31402 0.0
C724 C 0.2603 0.44197 0.3185 0.0
C725 C 0.23132 0.36895 0.319 0.0
N726 N 0.31716 0.43067 0.33291 0.0
N727 N 0.17353 0.38013 0.32147 0.0
H728 H 0.23388 0.31626 0.31429 0.0
H729 H 0.19218 0.32361 0.30694 0.0
H730 H 0.15622 0.39646 0.32166 0.0
H731 H 0.16168 0.35395 0.32618 0.0
H732 H 0.32837 0.45668 0.33784 0.0
H733 H 0.33434 0.41434 0.33754 0.0
H734 H 0.30072 0.48713 0.3088 0.0
H735 H 0.25886 0.49464 0.30645 0.0
C736 C 0.18296 0.05097 0.47843 0.0
C737 C 0.15692 0.04271 0.50255 0.0
C738 C 0.19369 0.08454 0.53999 0.0
C739 C 0.21704 0.09657 0.51391 0.0
N740 N 0.23024 0.0953 0.45586 0.0
N741 N 0.13459 0.0562 0.55406 0.0
C742 C 0.21087 0.08079 0.48245 0.0
C743 C 0.16147 0.06066 0.53282 0.0
N744 N 0.18136 0.03 0.452 0.0
N745 N 0.20273 0.09494 0.57185 0.0
H746 H 0.11013 0.03965 0.54943 0.0
H747 H 0.1355 0.07149 0.57469 0.0
H748 H 0.22675 0.11136 0.57846 0.0
H749 H 0.18801 0.08428 0.59227 0.0
H750 H 0.20148 0.03297 0.43545 0.0
H751 H 0.16156 0.00752 0.44859 0.0
H752 H 0.2243 0.08676 0.43165 0.0
H753 H 0.24997 0.11809 0.45716 0.0
C754 C 0.76776 0.12523 0.72899 0.0
C755 C 0.7628 0.15534 0.74424 0.0
C756 C 0.71656 0.11953 0.77788 0.0
C757 C 0.72191 0.08935 0.76303 0.0
N758 N 0.75496 0.06184 0.72846 0.0
N759 N 0.73655 0.18169 0.78611 0.0
C760 C 0.74836 0.0917 0.73982 0.0
C761 C 0.73838 0.15262 0.7696 0.0
N762 N 0.79044 0.12893 0.70364 0.0
N763 N 0.69001 0.11651 0.79938 0.0
H764 H 0.75089 0.20672 0.77974 0.0
H765 H 0.72247 0.18102 0.80745 0.0
H766 H 0.67495 0.09253 0.80788 0.0
H767 H 0.68163 0.13761 0.80775 0.0
H768 H 0.79282 0.10861 0.68902 0.0
H769 H 0.80578 0.15304 0.69583 0.0
H770 H 0.77592 0.06131 0.7139 0.0
H771 H 0.74063 0.03698 0.73549 0.0
C772 C 0.40052 0.0679 0.5926 0.0
C773 C 0.43262 0.07071 0.57709 0.0
C774 C 0.42688 0.1257 0.54884 0.0
C775 C 0.39224 0.11962 0.55975 0.0
N776 N 0.34496 0.08442 0.59113 0.0
N777 N 0.47748 0.1021 0.54111 0.0
C778 C 0.37896 0.09101 0.58202 0.0
C779 C 0.4464 0.0999 0.55576 0.0
N780 N 0.39056 0.04284 0.61716 0.0
N781 N 0.44101 0.15636 0.53211 0.0
H782 H 0.49317 0.08452 0.54687 0.0
H783 H 0.48705 0.1203 0.52223 0.0
H784 H 0.4272 0.17573 0.52712 0.0
H785 H 0.46708 0.16399 0.52581 0.0
H786 H 0.36921 0.04151 0.63183 0.0
H787 H 0.40551 0.02509 0.62489 0.0
H788 H 0.33243 0.06161 0.60374 0.0
H789 H 0.3283 0.10076 0.58431 0.0
C790 C 0.5915 0.51199 0.48359 0.0
C791 C 0.5907 0.51999 0.51756 0.0
C792 C 0.6448 0.49976 0.5288 0.0
C793 C 0.64101 0.48529 0.49671 0.0
N794 N 0.60588 0.47226 0.44574 0.0
N795 N 0.61708 0.52096 0.57334 0.0
C796 C 0.61305 0.48997 0.47464 0.0
C797 C 0.61752 0.51371 0.54045 0.0
N798 N 0.57283 0.52636 0.45958 0.0
N799 N 0.67525 0.5022 0.54741 0.0
H800 H 0.59949 0.53376 0.58271 0.0
H801 H 0.63318 0.51256 0.59172 0.0
H802 H 0.69669 0.49421 0.53914 0.0
H803 H 0.68077 0.51569 0.56944 0.0
H804 H 0.57483 0.5232 0.4342 0.0
H805 H 0.55931 0.5452 0.46457 0.0
H806 H 0.58376 0.47256 0.43046 0.0
H807 H 0.61958 0.45418 0.43901 0.0
C808 C 0.73269 0.3436 0.35722 0.0
C809 C 0.71435 0.30809 0.35906 0.0
C810 C 0.69194 0.31658 0.41318 0.0
C811 C 0.71205 0.35149 0.41222 0.0
N812 N 0.75692 0.39643 0.38687 0.0
N813 N 0.68012 0.25905 0.38985 0.0
C814 C 0.73385 0.36457 0.38517 0.0
C815 C 0.69503 0.29403 0.38742 0.0
N816 N 0.74836 0.3575 0.32843 0.0
N817 N 0.66909 0.30543 0.43812 0.0
H818 H 0.68131 0.242 0.3711 0.0
H819 H 0.66874 0.24642 0.41127 0.0
H820 H 0.66635 0.32133 0.45737 0.0
H821 H 0.65102 0.28148 0.43855 0.0
H822 H 0.75833 0.38414 0.32408 0.0
H823 H 0.74926 0.34273 0.30777 0.0
H824 H 0.77627 0.40557 0.36975 0.0
H825 H 0.75891 0.41264 0.40699 0.0
C826 C 0.5347 0.009 0.8923 0.0
C827 C 0.55007 0.03846 0.9116 0.0
C828 C 0.60724 0.0409 0.88923 0.0
C829 C 0.59155 0.01315 0.86813 0.0
N830 N 0.54344 0.9649 0.85532 0.0
N831 N 0.60247 0.07167 0.93888 0.0
C832 C 0.55614 0.99528 0.87154 0.0
C833 C 0.5869 0.05084 0.91354 0.0
N834 N 0.49964 0.99458 0.89347 0.0
N835 N 0.6408 0.05938 0.88468 0.0
H836 H 0.5884 0.07826 0.95791 0.0
H837 H 0.62946 0.07894 0.94319 0.0
H838 H 0.65683 0.05328 0.86713 0.0
H839 H 0.6519 0.08251 0.8966 0.0
H840 H 0.48584 0.97629 0.87692 0.0
H841 H 0.48394 0.00129 0.91097 0.0
H842 H 0.51873 0.94879 0.85856 0.0
H843 H 0.55892 0.95419 0.84042 0.0
C844 C 0.29804 0.25977 0.39297 0.0
C845 C 0.31756 0.29494 0.39327 0.0
C846 C 0.34041 0.28538 0.45007 0.0
C847 C 0.31918 0.25095 0.45045 0.0
N848 N 0.27407 0.20644 0.42467 0.0
N849 N 0.35483 0.34276 0.42224 0.0
C850 C 0.29711 0.23835 0.42248 0.0
C851 C 0.33807 0.30822 0.42191 0.0
N852 N 0.28071 0.24671 0.36427 0.0
N853 N 0.36335 0.29579 0.47634 0.0
H854 H 0.35449 0.35986 0.40167 0.0
H855 H 0.36733 0.35512 0.44332 0.0
H856 H 0.36535 0.27962 0.49731 0.0
H857 H 0.38204 0.31931 0.47657 0.0
H858 H 0.2699 0.22028 0.36105 0.0
H859 H 0.27888 0.26198 0.34265 0.0
H860 H 0.25429 0.19756 0.40683 0.0
H861 H 0.27291 0.18952 0.44554 0.0
C862 C 0.51722 0.56176 0.88292 0.0
C863 C 0.50384 0.53703 0.90877 0.0
C864 C 0.44795 0.5197 0.87723 0.0
C865 C 0.46039 0.54626 0.85269 0.0
N866 N 0.50492 0.59501 0.83321 0.0
N867 N 0.46197 0.48404 0.92423 0.0
C868 C 0.49463 0.56777 0.85565 0.0
C869 C 0.47069 0.51359 0.90422 0.0
N870 N 0.55202 0.57788 0.88337 0.0
N871 N 0.41412 0.50063 0.87508 0.0
H872 H 0.47872 0.47722 0.9429 0.0
H873 H 0.43986 0.46406 0.92005 0.0
H874 H 0.39704 0.50276 0.8549 0.0
H875 H 0.40205 0.48438 0.89436 0.0
H876 H 0.56411 0.5935 0.86374 0.0
H877 H 0.56993 0.57276 0.90178 0.0
H878 H 0.52786 0.61429 0.83606 0.0
H879 H 0.4891 0.60006 0.81286 0.0
C880 C 0.75526 0.78186 0.1536 0.0
C881 C 0.73672 0.75742 0.17728 0.0
C882 C 0.75299 0.70943 0.15025 0.0
C883 C 0.76668 0.73306 0.12385 0.0
N884 N 0.78443 0.7916 0.10084 0.0
N885 N 0.73032 0.70132 0.20587 0.0
C886 C 0.76948 0.76939 0.12602 0.0
C887 C 0.73969 0.72222 0.17813 0.0
N888 N 0.7599 0.81682 0.15803 0.0
N889 N 0.75034 0.67446 0.14748 0.0
H890 H 0.72129 0.71021 0.227 0.0
H891 H 0.73476 0.67639 0.20943 0.0
H892 H 0.76063 0.6642 0.12789 0.0
H893 H 0.73638 0.65535 0.16357 0.0
H894 H 0.77524 0.83625 0.14324 0.0
H895 H 0.75081 0.82671 0.17852 0.0
H896 H 0.78378 0.8178 0.09833 0.0
H897 H 0.79699 0.78336 0.08153 0.0
C898 C 0.96921 0.06511 0.11376 0.0
C899 C 1e-05 0.09235 0.11491 0.0
C900 C 0.99255 0.0998 0.17418 0.0
C901 C 0.96123 0.07324 0.17274 0.0
N902 N 0.91603 0.03505 0.14061 0.0
N903 N 0.03839 0.1395 0.14394 0.0
C904 C 0.94848 0.05716 0.14233 0.0
C905 C 0.01082 0.11097 0.14445 0.0
N906 N 0.96023 0.04639 0.08555 0.0
N907 N 0.00565 0.11314 0.20423 0.0
H908 H 0.05317 0.14765 0.12297 0.0
H909 H 0.04521 0.15656 0.16345 0.0
H910 H 0.9927 0.10603 0.22642 0.0
H911 H 0.03036 0.12951 0.20772 0.0
H912 H 0.94056 0.02361 0.08431 0.0
H913 H 0.97388 0.05241 0.06364 0.0
H914 H 0.90354 0.02515 0.1185 0.0
H915 H 0.90011 0.02884 0.16107 0.0
C916 C 0.22433 0.78034 0.1448 0.0
C917 C 0.21734 0.79691 0.17343 0.0
C918 C 0.23109 0.85341 0.14237 0.0
C919 C 0.23121 0.83557 0.11253 0.0
N920 N 0.22314 0.78114 0.08463 0.0
N921 N 0.21551 0.84994 0.20027 0.0
C922 C 0.22683 0.79881 0.11356 0.0
C923 C 0.22148 0.83377 0.17254 0.0
N924 N 0.22932 0.74722 0.14745 0.0
N925 N 0.24141 0.88903 0.14213 0.0
H926 H 0.21129 0.83715 0.22352 0.0
H927 H 0.21333 0.87575 0.19999 0.0
H928 H 0.24904 0.90419 0.12062 0.0
H929 H 0.24543 0.90342 0.16362 0.0
H930 H 0.23765 0.73516 0.12789 0.0
H931 H 0.22943 0.73343 0.17014 0.0
H932 H 0.21608 0.754 0.08401 0.0
H933 H 0.22355 0.7934 0.06103 0.0
C934 C 0.00346 0.48646 0.16108 0.0
C935 C 0.01545 0.50663 0.13196 0.0
C936 C 0.07584 0.51672 0.15433 0.0
C937 C 0.06342 0.5 0.18487 0.0
N938 N 0.01556 0.47161 0.21904 0.0
N939 N 0.06215 0.54306 0.10105 0.0
C940 C 0.02729 0.48518 0.18864 0.0
C941 C 0.05146 0.52224 0.12855 0.0
N942 N 0.96933 0.46837 0.16226 0.0
N943 N 0.11105 0.52655 0.14983 0.0
H944 H 0.04514 0.5468 0.0812 0.0
H945 H 0.08735 0.55845 0.09873 0.0
H946 H 0.12955 0.52248 0.16816 0.0
H947 H 0.12196 0.53588 0.12716 0.0
H948 H 0.95984 0.4501 0.18112 0.0
H949 H 0.95079 0.46972 0.14307 0.0
H950 H 0.98924 0.46433 0.22457 0.0
H951 H 0.03224 0.46969 0.23968 0.0
C952 C 0.37251 0.77028 0.25664 0.0
C953 C 0.33987 0.76928 0.27055 0.0
C954 C 0.36983 0.79078 0.32291 0.0
C955 C 0.40163 0.78623 0.31098 0.0
N956 N 0.43399 0.77086 0.267 0.0
N957 N 0.30691 0.77362 0.31888 0.0
C958 C 0.40336 0.77622 0.27777 0.0
C959 C 0.33835 0.77857 0.3041 0.0
N960 N 0.37379 0.76557 0.22331 0.0
N961 N 0.36981 0.80739 0.35203 0.0
H962 H 0.28287 0.76429 0.30652 0.0
H963 H 0.30474 0.77586 0.34437 0.0
H964 H 0.39255 0.81728 0.36632 0.0
H965 H 0.34789 0.81462 0.36014 0.0
H966 H 0.39698 0.7689 0.21089 0.0
H967 H 0.35147 0.76115 0.20749 0.0
H968 H 0.43613 0.75998 0.24432 0.0
H969 H 0.45704 0.77535 0.28176 0.0
C970 C 0.96808 0.44548 0.94683 0.0
C971 C 0.95619 0.44037 0.98001 0.0
C972 C 0.96424 0.38072 0.98122 0.0
C973 C 0.97392 0.38493 0.94749 0.0
N974 N 0.97226 0.41794 0.89527 0.0
N975 N 0.92613 0.39639 0.01961 0.0
C976 C 0.97232 0.41638 0.92935 0.0
C977 C 0.94928 0.40606 0.9948 0.0
N978 N 0.97504 0.47799 0.93163 0.0
N979 N 0.9697 0.35301 0.00065 0.0
H980 H 0.90919 0.41161 0.02575 0.0
H981 H 0.9194 0.37093 0.02961 0.0
H982 H 0.98234 0.33473 0.99232 0.0
H983 H 0.96519 0.35068 0.02612 0.0
H984 H 0.98805 0.48358 0.90935 0.0
H985 H 0.96958 0.49981 0.94188 0.0
H986 H 0.96775 0.43928 0.88093 0.0
H987 H 0.97217 0.39651 0.88103 0.0
C988 C 0.62091 0.82535 0.2771 0.0
C989 C 0.65111 0.824 0.2974 0.0
C990 C 0.61805 0.82244 0.34777 0.0
C991 C 0.58745 0.82193 0.3274 0.0
N992 N 0.55776 0.81481 0.27331 0.0
N993 N 0.67759 0.81498 0.35144 0.0
C994 C 0.5883 0.82102 0.29221 0.0
C995 C 0.6494 0.82056 0.33261 0.0
N996 N 0.62362 0.83204 0.2435 0.0
N997 N 0.61761 0.82643 0.38136 0.0
H998 H 0.70107 0.81387 0.34111 0.0
H999 H 0.67683 0.80862 0.37688 0.0
H1000 H 0.5952 0.82795 0.39339 0.0
H1001 H 0.63999 0.83094 0.39698 0.0
H1002 H 0.60336 0.83737 0.22803 0.0
H1003 H 0.647 0.83507 0.23135 0.0
H1004 H 0.55642 0.81024 0.24791 0.0
H1005 H 0.53325 0.81082 0.28356 0.0
C1006 C 0.00149 0.15204 0.98247 0.0
C1007 C 0.02661 0.16238 0.00883 0.0
C1008 C 0.03053 0.22402 0.99325 0.0
C1009 C 0.00632 0.21362 0.96618 0.0
N1010 N 0.97431 0.16846 0.93062 0.0
N1011 N 0.06969 0.20721 0.03618 0.0
C1012 C 0.99341 0.1778 0.9595 0.0
C1013 C 0.04266 0.19813 0.01318 0.0
N1014 N 0.98457 0.11769 0.98004 0.0
N1015 N 0.04056 0.25845 0.00093 0.0
H1016 H 0.07872 0.18889 0.05159 0.0
H1017 H 0.08498 0.23248 0.03824 0.0
H1018 H 0.03232 0.27818 0.9869 0.0
H1019 H 0.05496 0.26733 0.02252 0.0
H1020 H 0.96305 0.109 0.96394 0.0
H1021 H 0.99052 0.09788 0.99574 0.0
H1022 H 0.96721 0.14297 0.92255 0.0
H1023 H 0.96815 0.18666 0.91307 0.0
C1024 C 0.3672 0.29681 0.20339 0.0
C1025 C 0.37562 0.29756 0.23818 0.0
C1026 C 0.43574 0.29626 0.22619 0.0
C1027 C 0.42486 0.28728 0.19289 0.0
N1028 N 0.37727 0.27298 0.15157 0.0
N1029 N 0.41869 0.29543 0.28308 0.0
C1030 C 0.38979 0.28602 0.18183 0.0
C1031 C 0.41016 0.29659 0.24973 0.0
N1032 N 0.33848 0.30744 0.19059 0.0
N1033 N 0.47052 0.3062 0.23509 0.0
H1034 H 0.40157 0.29698 0.30153 0.0
H1035 H 0.44226 0.29044 0.29246 0.0
H1036 H 0.49023 0.30874 0.21811 0.0
H1037 H 0.47968 0.31606 0.25831 0.0
H1038 H 0.33294 0.30951 0.16503 0.0
H1039 H 0.32317 0.31891 0.2049 0.0
H1040 H 0.35093 0.26876 0.14404 0.0
H1041 H 0.39208 0.2627 0.13568 0.0
C1042 C 0.56545 0.3959 0.01191 0.0
C1043 C 0.56455 0.42831 0.02526 0.0
C1044 C 0.53978 0.39834 0.07642 0.0
C1045 C 0.53697 0.3659 0.06149 0.0
N1046 N 0.54486 0.33283 0.01473 0.0
N1047 N 0.54771 0.46097 0.06831 0.0
C1048 C 0.54928 0.36438 0.02915 0.0
C1049 C 0.55113 0.42975 0.05715 0.0
N1050 N 0.58247 0.39538 0.98316 0.0
N1051 N 0.53152 0.39906 0.109 0.0
H1052 H 0.55572 0.48456 0.05492 0.0
H1053 H 0.53452 0.46331 0.08958 0.0
H1054 H 0.52205 0.37654 0.12358 0.0
H1055 H 0.53658 0.42175 0.12244 0.0
H1056 H 0.58721 0.37282 0.97384 0.0
H1057 H 0.59438 0.41802 0.9698 0.0
H1058 H 0.54936 0.33011 0.9898 0.0
H1059 H 0.53482 0.30912 0.02733 0.0
C1060 C 0.63689 0.23156 0.24185 0.0
C1061 C 0.6588 0.26417 0.25055 0.0
C1062 C 0.61981 0.29434 0.21795 0.0
C1063 C 0.59981 0.26169 0.20686 0.0
N1064 N 0.59756 0.20065 0.19959 0.0
N1065 N 0.67643 0.3263 0.23881 0.0
C1066 C 0.61095 0.23072 0.21605 0.0
C1067 C 0.65201 0.29552 0.23592 0.0
N1068 N 0.6393 0.20154 0.25923 0.0
N1069 N 0.60739 0.32384 0.21339 0.0
H1070 H 0.7008 0.32794 0.2509 0.0
H1071 H 0.67391 0.34931 0.22613 0.0
H1072 H 0.58306 0.32412 0.20215 0.0
H1073 H 0.61972 0.3474 0.22403 0.0
H1074 H 0.62148 0.17777 0.25551 0.0
H1075 H 0.65646 0.20097 0.27973 0.0
H1076 H 0.60709 0.17823 0.2038 0.0
H1077 H 0.58018 0.19947 0.17898 0.0
C1078 C 0.4917 0.15486 0.02111 0.0
C1079 C 0.4837 0.12105 0.0367 0.0
C1080 C 0.47602 0.14634 0.08938 0.0
C1081 C 0.48771 0.18033 0.07478 0.0
N1082 N 0.51564 0.21636 0.0288 0.0
N1083 N 0.47685 0.08537 0.08747 0.0
C1084 C 0.49815 0.18452 0.0412 0.0
C1085 C 0.47864 0.11705 0.07146 0.0
N1086 N 0.49176 0.15884 0.98714 0.0
N1087 N 0.46071 0.14178 0.11957 0.0
H1088 H 0.47953 0.06347 0.0752 0.0
H1089 H 0.4764 0.08184 0.11333 0.0
H1090 H 0.4563 0.16238 0.13275 0.0
H1091 H 0.44884 0.11731 0.12971 0.0
H1092 H 0.4938 0.18295 0.97464 0.0
H1093 H 0.48645 0.13787 0.97133 0.0
H1094 H 0.52664 0.21986 0.00546 0.0
H1095 H 0.5226 0.23853 0.04304 0.0
C1096 C 0.29806 0.39801 0.78906 0.0
C1097 C 0.2718 0.39032 0.76329 0.0
C1098 C 0.29582 0.44658 0.7347 0.0
C1099 C 0.32003 0.45549 0.76198 0.0
N1100 N 0.34384 0.44139 0.81595 0.0
N1101 N 0.24336 0.40707 0.71278 0.0
C1102 C 0.32109 0.43162 0.78938 0.0
C1103 C 0.27013 0.41449 0.73629 0.0
N1104 N 0.30138 0.3728 0.81279 0.0
N1105 N 0.29775 0.46867 0.70723 0.0
H1106 H 0.22473 0.38339 0.71269 0.0
H1107 H 0.23825 0.42494 0.69445 0.0
H1108 H 0.31566 0.49278 0.70576 0.0
H1109 H 0.28332 0.46235 0.68505 0.0
H1110 H 0.32222 0.37523 0.83016 0.0
H1111 H 0.28448 0.34809 0.81377 0.0
H1112 H 0.34306 0.42721 0.83852 0.0
H1113 H 0.36268 0.46487 0.81615 0.0
C1114 C 0.31707 0.68793 0.81633 0.0
C1115 C 0.29349 0.69357 0.78984 0.0
C1116 C 0.30252 0.64188 0.76254 0.0
C1117 C 0.3294 0.63959 0.7868 0.0
N1118 N 0.36648 0.66373 0.83352 0.0
N1119 N 0.26144 0.67424 0.73851 0.0
C1120 C 0.33789 0.66361 0.81271 0.0
C1121 C 0.28557 0.67007 0.7631 0.0
N1122 N 0.31829 0.70432 0.84576 0.0
N1123 N 0.29185 0.616 0.74018 0.0
H1124 H 0.24445 0.69066 0.74022 0.0
H1125 H 0.25851 0.66179 0.71593 0.0
H1126 H 0.3038 0.59518 0.73884 0.0
H1127 H 0.26976 0.61363 0.72436 0.0
H1128 H 0.33258 0.69852 0.86689 0.0
H1129 H 0.30183 0.72053 0.85061 0.0
H1130 H 0.37613 0.6831 0.85058 0.0
H1131 H 0.38262 0.64646 0.83145 0.0
C1132 C 0.88437 0.49459 0.49255 0.0
C1133 C 0.88955 0.53068 0.48409 0.0
C1134 C 0.82631 0.52505 0.48382 0.0
C1135 C 0.82112 0.48824 0.48751 0.0
N1136 N 0.8462 0.43787 0.48504 0.0
N1137 N 0.86467 0.5787 0.4641 0.0
C1138 C 0.85041 0.47288 0.48894 0.0
C1139 C 0.86027 0.54553 0.47745 0.0
N1140 N 0.91147 0.48107 0.50511 0.0
N1141 N 0.79938 0.54071 0.48781 0.0
H1142 H 0.88902 0.59411 0.45786 0.0
H1143 H 0.84377 0.58943 0.45603 0.0
H1144 H 0.7745 0.52688 0.49433 0.0
H1145 H 0.80283 0.5677 0.48831 0.0
H1146 H 0.90796 0.45539 0.51436 0.0
H1147 H 0.93657 0.49634 0.50978 0.0
H1148 H 0.86727 0.42636 0.48315 0.0
H1149 H 0.82209 0.42112 0.47945 0.0
C1150 C 0.72874 0.86523 0.77453 0.0
C1151 C 0.73246 0.84699 0.80521 0.0
C1152 C 0.69376 0.87814 0.83011 0.0
C1153 C 0.69963 0.90318 0.80314 0.0
N1154 N 0.72141 0.91928 0.74789 0.0
N1155 N 0.69376 0.8186 0.84767 0.0
C1156 C 0.71616 0.8961 0.7745 0.0
C1157 C 0.70771 0.84809 0.8293 0.0
N1158 N 0.73178 0.85029 0.74528 0.0
N1159 N 0.67517 0.88304 0.85653 0.0
H1160 H 0.69997 0.79487 0.84342 0.0
H1161 H 0.6732 0.81667 0.86353 0.0
H1162 H 0.66249 0.90343 0.85704 0.0
H1163 H 0.67367 0.86757 0.87842 0.0
H1164 H 0.72627 0.86112 0.72204 0.0
H1165 H 0.73492 0.82473 0.74489 0.0
H1166 H 0.73646 0.9164 0.72804 0.0
H1167 H 0.71298 0.94247 0.74676 0.0
C1168 C 0.6602 0.55597 0.03409 0.0
C1169 C 0.65505 0.53865 0.00344 0.0
C1170 C 0.70941 0.57594 0.98349 0.0
C1171 C 0.71585 0.59157 0.01503 0.0
N1172 N 0.70217 0.58945 0.07314 0.0
N1173 N 0.679 0.52567 0.95278 0.0
C1174 C 0.69272 0.57939 0.04125 0.0
C1175 C 0.68113 0.5465 0.97939 0.0
N1176 N 0.6336 0.55153 0.05563 0.0
N1177 N 0.72868 0.59038 0.95681 0.0
H1178 H 0.6588 0.50352 0.94931 0.0
H1179 H 0.69905 0.52832 0.93619 0.0
H1180 H 0.74868 0.61293 0.95803 0.0
H1181 H 0.72245 0.582 0.93258 0.0
H1182 H 0.63495 0.5665 0.07655 0.0
H1183 H 0.60899 0.53525 0.05108 0.0
H1184 H 0.68761 0.57873 0.09363 0.0
H1185 H 0.72639 0.60562 0.0796 0.0
C1186 C 0.23006 0.6428 0.22344 0.0
C1187 C 0.24963 0.66143 0.25 0.0
C1188 C 0.2444 0.60632 0.28173 0.0
C1189 C 0.21703 0.58975 0.25939 0.0
N1190 N 0.18029 0.59702 0.20967 0.0
N1191 N 0.2705 0.66057 0.30776 0.0
C1192 C 0.20903 0.60897 0.23007 0.0
C1193 C 0.25577 0.64314 0.28009 0.0
N1194 N 0.23151 0.65737 0.19189 0.0
N1195 N 0.26001 0.58704 0.30409 0.0
H1196 H 0.27705 0.6877 0.30866 0.0
H1197 H 0.27258 0.64787 0.33086 0.0
H1198 H 0.25443 0.55984 0.30411 0.0
H1199 H 0.28157 0.59822 0.31933 0.0
H1200 H 0.21976 0.64358 0.17118 0.0
H1201 H 0.24798 0.68156 0.18609 0.0
H1202 H 0.17256 0.61244 0.19029 0.0
H1203 H 0.16172 0.57397 0.21359 0.0
C1204 C 0.90035 0.57078 0.09342 0.0
C1205 C 0.9321 0.57321 0.07744 0.0
C1206 C 0.92574 0.62751 0.04821 0.0
C1207 C 0.89125 0.62152 0.05947 0.0
N1208 N 0.84468 0.58703 0.0922 0.0
N1209 N 0.97638 0.60393 0.04057 0.0
C1210 C 0.8785 0.59352 0.08258 0.0
C1211 C 0.94549 0.60197 0.05549 0.0
N1212 N 0.89098 0.54637 0.11865 0.0
N1213 N 0.93944 0.65779 0.03071 0.0
H1214 H 0.99221 0.58653 0.04656 0.0
H1215 H 0.98566 0.62175 0.0213 0.0
H1216 H 0.92542 0.67695 0.02546 0.0
H1217 H 0.96539 0.66538 0.02399 0.0
H1218 H 0.8699 0.54536 0.1336 0.0
H1219 H 0.90622 0.52896 0.12661 0.0
H1220 H 0.8325 0.56452 0.10547 0.0
H1221 H 0.8278 0.6031 0.08523 0.0
C1222 C 0.10511 0.99117 0.03893 0.0
C1223 C 0.10943 0.02451 0.02258 0.0
C1224 C 0.16598 0.01883 0.00344 0.0
C1225 C 0.15724 0.98272 0.01277 0.0
N1226 N 0.11585 0.93349 0.03684 0.0
N1227 N 0.14556 0.07135 0.99022 0.0
C1228 C 0.12628 0.9686 0.03019 0.0
C1229 C 0.14049 0.03884 0.00529 0.0
N1230 N 0.0816 0.98136 0.06346 0.0
N1231 N 0.19916 0.03435 0.99422 0.0
H1232 H 0.12915 0.08815 0.99307 0.0
H1233 H 0.16527 0.08104 0.97356 0.0
H1234 H 0.21904 0.02094 0.99422 0.0
H1235 H 0.20805 0.06119 0.99024 0.0
H1236 H 0.07947 0.95834 0.07786 0.0
H1237 H 0.06767 0.99825 0.07239 0.0
H1238 H 0.0916 0.92175 0.04642 0.0
H1239 H 0.12969 0.91567 0.02984 0.0
loop_
_geom_bond_atom_site_label_1
_geom_bond_atom_site_label_2
_geom_bond_distance
_geom_bond_site_symmetry_2
_ccdc_geom_bond_type
H0 C7 0.929 . S
H1 C10 0.930 . S
H2 C12 0.929 . S
H3 C4 0.969 . S
C4 H3 0.969 . S
C4 O5 1.550 . S
C4 H6 0.973 . S
O5 C4 1.550 . S
O5 C11 1.412 . S
H6 C4 0.973 . S
C7 H0 0.929 . S
C7 C8 1.400 . S
C7 C9 1.364 . S
C8 C7 1.400 . S
C8 C12 1.377 . S
C9 C7 1.364 . S
C9 C10 1.374 . S
C10 H1 0.930 . S
C10 C9 1.374 . S
C10 C11 1.383 . S
C11 O5 1.412 . S
C11 C10 1.383 . S
C11 C12 1.394 . S
C12 H2 0.929 . S
C12 C8 1.377 . S
C12 C11 1.394 . S
H13 C20 0.929 . S
H14 C23 0.930 . S
H15 C25 0.929 . S
H16 C17 0.969 . S
C17 H16 0.969 . S
C17 O18 1.550 . S
C17 H19 0.973 . S
O18 C17 1.550 . S
O18 C24 1.412 . S
H19 C17 0.973 . S
C20 H13 0.929 . S
C20 C21 1.400 . S
C20 C22 1.364 . S
C21 C20 1.400 . S
C21 C25 1.377 . S
C22 C20 1.364 . S
C22 C23 1.374 . S
C23 H14 0.930 . S
C23 C22 1.374 . S
C23 C24 1.383 . S
C24 O18 1.412 . S
C24 C23 1.383 . S
C24 C25 1.394 . S
C25 H15 0.929 . S
C25 C21 1.377 . S
C25 C24 1.394 . S
H26 C33 0.929 . S
H27 C36 0.930 . S
H28 C38 0.929 . S
H29 C30 0.969 . S
C30 H29 0.969 . S
C30 O31 1.550 . S
C30 H32 0.973 . S
O31 C30 1.550 . S
O31 C37 1.412 . S
H32 C30 0.973 . S
C33 H26 0.929 . S
C33 C34 1.400 . S
C33 C35 1.364 . S
C34 C33 1.400 . S
C34 C38 1.377 . S
C35 C33 1.364 . S
C35 C36 1.374 . S
C36 H27 0.930 . S
C36 C35 1.374 . S
C36 C37 1.383 . S
C37 O31 1.412 . S
C37 C36 1.383 . S
C37 C38 1.394 . S
C38 H28 0.929 . S
C38 C34 1.377 . S
C38 C37 1.394 . S
H39 C46 0.929 . S
H40 C49 0.930 . S
H41 C51 0.929 . S
H42 C43 0.969 . S
C43 H42 0.969 . S
C43 O44 1.550 . S
C43 H45 0.973 . S
O44 C43 1.550 . S
O44 C50 1.412 . S
H45 C43 0.973 . S
C46 H39 0.929 . S
C46 C47 1.400 . S
C46 C48 1.364 . S
C47 C46 1.400 . S
C47 C51 1.377 . S
C48 C46 1.364 . S
C48 C49 1.374 . S
C49 H40 0.930 . S
C49 C48 1.374 . S
C49 C50 1.383 . S
C50 O44 1.412 . S
C50 C49 1.383 . S
C50 C51 1.394 . S
C51 H41 0.929 . S
C51 C47 1.377 . S
C51 C50 1.394 . S
H52 C59 0.929 . S
H53 C62 0.930 . S
H54 C64 0.929 1_545 S
H55 C56 0.969 . S
C56 H55 0.969 . S
C56 O57 1.550 . S
C56 H58 0.973 . S
O57 C56 1.550 . S
O57 C63 1.412 . S
H58 C56 0.973 . S
C59 H52 0.929 . S
C59 C60 1.400 . S
C59 C61 1.364 . S
C60 C59 1.400 . S
C60 C64 1.377 . S
C61 C59 1.364 . S
C61 C62 1.374 . S
C62 H53 0.930 . S
C62 C61 1.374 . S
C62 C63 1.383 . S
C63 O57 1.412 . S
C63 C62 1.383 . S
C63 C64 1.394 . S
C64 H54 0.929 1_565 S
C64 C60 1.377 . S
C64 C63 1.394 . S
H65 C72 0.929 . S
H66 C75 0.930 . S
H67 C77 0.929 . S
H68 C69 0.969 . S
C69 H68 0.969 . S
C69 O70 1.550 . S
C69 H71 0.973 . S
O70 C69 1.550 . S
O70 C76 1.412 . S
H71 C69 0.973 . S
C72 H65 0.929 . S
C72 C73 1.400 . S
C72 C74 1.364 . S
C73 C72 1.400 . S
C73 C77 1.377 . S
C74 C72 1.364 . S
C74 C75 1.374 . S
C75 H66 0.930 . S
C75 C74 1.374 . S
C75 C76 1.383 . S
C76 O70 1.412 . S
C76 C75 1.383 . S
C76 C77 1.394 . S
C77 H67 0.929 . S
C77 C73 1.377 . S
C77 C76 1.394 . S
H78 C85 0.929 . S
H79 C88 0.930 . S
H80 C90 0.929 . S
H81 C82 0.969 . S
C82 H81 0.969 . S
C82 O83 1.550 . S
C82 H84 0.973 . S
O83 C82 1.550 . S
O83 C89 1.412 . S
H84 C82 0.973 . S
C85 H78 0.929 . S
C85 C86 1.400 . S
C85 C87 1.364 . S
C86 C85 1.400 . S
C86 C90 1.377 . S
C87 C85 1.364 . S
C87 C88 1.374 . S
C88 H79 0.930 . S
C88 C87 1.374 . S
C88 C89 1.383 . S
C89 O83 1.412 . S
C89 C88 1.383 . S
C89 C90 1.394 . S
C90 H80 0.929 . S
C90 C86 1.377 . S
C90 C89 1.394 . S
H91 C98 0.929 . S
H92 C101 0.930 . S
H93 C103 0.929 . S
H94 C95 0.969 . S
C95 H94 0.969 . S
C95 O96 1.550 . S
C95 H97 0.973 . S
O96 C95 1.550 . S
O96 C102 1.412 . S
H97 C95 0.973 . S
C98 H91 0.929 . S
C98 C99 1.400 . S
C98 C100 1.364 . S
C99 C98 1.400 . S
C99 C103 1.377 . S
C100 C98 1.364 . S
C100 C101 1.374 . S
C101 H92 0.930 . S
C101 C100 1.374 . S
C101 C102 1.383 . S
C102 O96 1.412 . S
C102 C101 1.383 . S
C102 C103 1.394 . S
C103 H93 0.929 . S
C103 C99 1.377 . S
C103 C102 1.394 . S
H104 C111 0.929 . S
H105 C114 0.930 . S
H106 C116 0.929 . S
H107 C108 0.969 . S
C108 H107 0.969 . S
C108 O109 1.550 . S
C108 H110 0.973 . S
O109 C108 1.550 . S
O109 C115 1.412 . S
H110 C108 0.973 . S
C111 H104 0.929 . S
C111 C112 1.400 . S
C111 C113 1.364 . S
C112 C111 1.400 . S
C112 C116 1.377 . S
C113 C111 1.364 . S
C113 C114 1.374 . S
C114 H105 0.930 . S
C114 C113 1.374 . S
C114 C115 1.383 . S
C115 O109 1.412 . S
C115 C114 1.383 . S
C115 C116 1.394 . S
C116 H106 0.929 . S
C116 C112 1.377 . S
C116 C115 1.394 . S
H117 C124 0.929 . S
H118 C127 0.930 . S
H119 C129 0.929 . S
H120 C121 0.969 . S
C121 H120 0.969 . S
C121 O122 1.550 . S
C121 H123 0.973 . S
O122 C121 1.550 . S
O122 C128 1.412 . S
H123 C121 0.973 . S
C124 H117 0.929 . S
C124 C125 1.400 . S
C124 C126 1.364 . S
C125 C124 1.400 . S
C125 C129 1.377 . S
C126 C124 1.364 . S
C126 C127 1.374 . S
C127 H118 0.930 . S
C127 C126 1.374 . S
C127 C128 1.383 . S
C128 O122 1.412 . S
C128 C127 1.383 . S
C128 C129 1.394 . S
C129 H119 0.929 . S
C129 C125 1.377 . S
C129 C128 1.394 . S
H130 C137 0.929 . S
H131 C140 0.930 . S
H132 C142 0.929 . S
H133 C134 0.969 . S
C134 H133 0.969 . S
C134 O135 1.550 . S
C134 H136 0.973 . S
O135 C134 1.550 . S
O135 C141 1.412 . S
H136 C134 0.973 . S
C137 H130 0.929 . S
C137 C138 1.400 . S
C137 C139 1.364 . S
C138 C137 1.400 . S
C138 C142 1.377 . S
C139 C137 1.364 . S
C139 C140 1.374 . S
C140 H131 0.930 . S
C140 C139 1.374 . S
C140 C141 1.383 . S
C141 O135 1.412 . S
C141 C140 1.383 . S
C141 C142 1.394 . S
C142 H132 0.929 . S
C142 C138 1.377 . S
C142 C141 1.394 . S
H143 C150 0.929 . S
H144 C153 0.930 . S
H145 C155 0.929 . S
H146 C147 0.969 . S
C147 H146 0.969 . S
C147 O148 1.550 . S
C147 H149 0.973 . S
O148 C147 1.550 . S
O148 C154 1.412 . S
H149 C147 0.973 . S
C150 H143 0.929 . S
C150 C151 1.400 . S
C150 C152 1.364 . S
C151 C150 1.400 . S
C151 C155 1.377 . S
C152 C150 1.364 . S
C152 C153 1.374 . S
C153 H144 0.930 . S
C153 C152 1.374 . S
C153 C154 1.383 . S
C154 O148 1.412 . S
C154 C153 1.383 . S
C154 C155 1.394 . S
C155 H145 0.929 . S
C155 C151 1.377 . S
C155 C154 1.394 . S
H156 C163 0.929 . S
H157 C166 0.930 . S
H158 C168 0.929 . S
H159 C160 0.969 . S
C160 H159 0.969 . S
C160 O161 1.550 . S
C160 H162 0.973 . S
O161 C160 1.550 . S
O161 C167 1.412 . S
H162 C160 0.973 . S
C163 H156 0.929 . S
C163 C164 1.400 . S
C163 C165 1.364 . S
C164 C163 1.400 . S
C164 C168 1.377 . S
C165 C163 1.364 . S
C165 C166 1.374 . S
C166 H157 0.930 . S
C166 C165 1.374 . S
C166 C167 1.383 . S
C167 O161 1.412 . S
C167 C166 1.383 . S
C167 C168 1.394 . S
C168 H158 0.929 . S
C168 C164 1.377 . S
C168 C167 1.394 . S
H169 C176 0.929 . S
H170 C179 0.930 . S
H171 C181 0.929 . S
H172 C173 0.969 . S
C173 H172 0.969 . S
C173 O174 1.550 . S
C173 H175 0.973 . S
O174 C173 1.550 . S
O174 C180 1.412 . S
H175 C173 0.973 . S
C176 H169 0.929 . S
C176 C177 1.400 . S
C176 C178 1.364 . S
C177 C176 1.400 . S
C177 C181 1.377 . S
C178 C176 1.364 . S
C178 C179 1.374 . S
C179 H170 0.930 . S
C179 C178 1.374 . S
C179 C180 1.383 . S
C180 O174 1.412 . S
C180 C179 1.383 . S
C180 C181 1.394 . S
C181 H171 0.929 . S
C181 C177 1.377 . S
C181 C180 1.394 . S
H182 C189 0.929 . S
H183 C192 0.930 . S
H184 C194 0.929 . S
H185 C186 0.969 . S
C186 H185 0.969 . S
C186 O187 1.550 . S
C186 H188 0.973 . S
O187 C186 1.550 . S
O187 C193 1.412 . S
H188 C186 0.973 . S
C189 H182 0.929 . S
C189 C190 1.400 . S
C189 C191 1.364 . S
C190 C189 1.400 . S
C190 C194 1.377 . S
C191 C189 1.364 . S
C191 C192 1.374 . S
C192 H183 0.930 . S
C192 C191 1.374 . S
C192 C193 1.383 . S
C193 O187 1.412 . S
C193 C192 1.383 . S
C193 C194 1.394 . S
C194 H184 0.929 . S
C194 C190 1.377 . S
C194 C193 1.394 . S
H195 C202 0.929 . S
H196 C205 0.930 . S
H197 C207 0.929 . S
H198 C199 0.969 . S
C199 H198 0.969 . S
C199 O200 1.550 . S
C199 H201 0.973 . S
O200 C199 1.550 . S
O200 C206 1.412 . S
H201 C199 0.973 . S
C202 H195 0.929 . S
C202 C203 1.400 . S
C202 C204 1.364 . S
C203 C202 1.400 . S
C203 C207 1.377 . S
C204 C202 1.364 . S
C204 C205 1.374 . S
C205 H196 0.930 . S
C205 C204 1.374 . S
C205 C206 1.383 . S
C206 O200 1.412 . S
C206 C205 1.383 . S
C206 C207 1.394 . S
C207 H197 0.929 . S
C207 C203 1.377 . S
C207 C206 1.394 . S
O208 Cd209 2.223 1_556 S
O208 C216 1.315 . S
Cd209 O208 2.223 1_554 S
Cd209 O212 2.297 . S
Cd209 O213 2.439 . S
Cd209 O219 2.240 . S
Cd210 O211 2.240 . S
Cd210 O218 2.223 . S
Cd210 O220 2.297 1_566 S
Cd210 O221 2.439 1_556 S
O211 Cd210 2.240 . S
O211 C216 1.279 . S
O212 Cd209 2.297 . S
O212 C214 1.247 . S
O213 Cd209 2.439 . S
O213 C214 1.208 . S
C214 O212 1.247 . S
C214 O213 1.208 . S
C215 O220 1.247 1_565 S
C215 O221 1.208 . S
C216 O208 1.315 . S
C216 O211 1.279 . S
C217 O218 1.315 . S
C217 O219 1.279 1_556 S
O218 Cd210 2.223 . S
O218 C217 1.315 . S
O219 Cd209 2.240 . S
O219 C217 1.279 1_554 S
O220 Cd210 2.297 1_544 S
O220 C215 1.247 1_545 S
O221 Cd210 2.439 1_554 S
O221 C215 1.208 . S
O222 Cd223 2.223 . S
O222 C230 1.315 . S
Cd223 O222 2.223 . S
Cd223 O226 2.297 . S
Cd223 O227 2.439 . S
Cd223 O233 2.240 . S
Cd224 O225 2.240 . S
Cd224 O232 2.223 . S
Cd224 O234 2.297 . S
Cd224 O235 2.439 . S
O225 Cd224 2.240 . S
O225 C230 1.279 . S
O226 Cd223 2.297 . S
O226 C228 1.247 . S
O227 Cd223 2.439 . S
O227 C228 1.208 . S
C228 O226 1.247 . S
C228 O227 1.208 . S
C229 O234 1.247 . S
C229 O235 1.208 . S
C230 O222 1.315 . S
C230 O225 1.279 . S
C231 O232 1.315 . S
C231 O233 1.279 . S
O232 Cd224 2.223 . S
O232 C231 1.315 . S
O233 Cd223 2.240 . S
O233 C231 1.279 . S
O234 Cd224 2.297 . S
O234 C229 1.247 . S
O235 Cd224 2.439 . S
O235 C229 1.208 . S
O236 Cd237 2.223 1_556 S
O236 C244 1.315 . S
Cd237 O236 2.223 1_554 S
Cd237 O240 2.297 . S
Cd237 O241 2.439 . S
Cd237 O247 2.240 . S
Cd238 O239 2.240 1_554 S
Cd238 O246 2.209 1_554 S
Cd238 O248 2.305 . S
Cd238 O249 2.463 . S
O239 Cd238 2.240 1_556 S
O239 C244 1.279 . S
O240 Cd237 2.297 . S
O240 C242 1.247 . S
O241 Cd237 2.439 . S
O241 C242 1.208 . S
C242 O240 1.247 . S
C242 O241 1.208 . S
C243 O248 1.247 . S
C243 O249 1.208 . S
C244 O236 1.315 . S
C244 O239 1.279 . S
C245 O246 1.315 . S
C245 O247 1.279 1_556 S
O246 Cd238 2.209 1_556 S
O246 C245 1.315 . S
O247 Cd237 2.240 . S
O247 C245 1.279 1_554 S
O248 Cd238 2.305 . S
O248 C243 1.247 . S
O249 Cd238 2.463 . S
O249 C243 1.208 . S
O250 Cd251 2.223 . S
O250 C258 1.315 . S
Cd251 O250 2.223 . S
Cd251 O254 2.297 . S
Cd251 O255 2.439 . S
Cd251 O261 2.240 . S
Cd252 O253 2.240 . S
Cd252 O260 2.223 . S
Cd252 O262 2.297 . S
Cd252 O263 2.439 . S
O253 Cd252 2.240 . S
O253 C258 1.279 . S
O254 Cd251 2.297 . S
O254 C256 1.247 . S
O255 Cd251 2.439 . S
O255 C256 1.208 . S
C256 O254 1.247 . S
C256 O255 1.208 . S
C257 O262 1.247 . S
C257 O263 1.208 . S
C258 O250 1.315 . S
C258 O253 1.279 . S
C259 O260 1.315 . S
C259 O261 1.279 . S
O260 Cd252 2.223 . S
O260 C259 1.315 . S
O261 Cd251 2.240 . S
O261 C259 1.279 . S
O262 Cd252 2.297 . S
O262 C257 1.247 . S
O263 Cd252 2.439 . S
O263 C257 1.208 . S
O264 Cd265 2.223 . S
O264 C272 1.315 . S
Cd265 O264 2.223 . S
Cd265 O268 2.297 . S
Cd265 O269 2.439 . S
Cd265 O275 2.240 . S
Cd266 O267 2.240 . S
Cd266 O274 2.223 . S
Cd266 O276 2.297 . S
Cd266 O277 2.439 . S
O267 Cd266 2.240 . S
O267 C272 1.279 . S
O268 Cd265 2.297 . S
O268 C270 1.247 . S
O269 Cd265 2.439 . S
O269 C270 1.208 . S
C270 O268 1.247 . S
C270 O269 1.208 . S
C271 O276 1.247 . S
C271 O277 1.208 . S
C272 O264 1.315 . S
C272 O267 1.279 . S
C273 O274 1.315 . S
C273 O275 1.279 . S
O274 Cd266 2.223 . S
O274 C273 1.315 . S
O275 Cd265 2.240 . S
O275 C273 1.279 . S
O276 Cd266 2.297 . S
O276 C271 1.247 . S
O277 Cd266 2.439 . S
O277 C271 1.208 . S
O278 Cd279 2.223 . S
O278 C286 1.315 . S
Cd279 O278 2.223 . S
Cd279 O282 2.297 . S
Cd279 O283 2.439 . S
Cd279 O289 2.240 . S
Cd280 O281 2.240 . S
Cd280 O288 2.223 . S
Cd280 O290 2.297 . S
Cd280 O291 2.439 . S
O281 Cd280 2.240 . S
O281 C286 1.279 . S
O282 Cd279 2.297 . S
O282 C284 1.247 . S
O283 Cd279 2.439 . S
O283 C284 1.208 . S
C284 O282 1.247 . S
C284 O283 1.208 . S
C285 O290 1.247 . S
C285 O291 1.208 . S
C286 O278 1.315 . S
C286 O281 1.279 . S
C287 O288 1.315 . S
C287 O289 1.279 . S
O288 Cd280 2.223 . S
O288 C287 1.315 . S
O289 Cd279 2.240 . S
O289 C287 1.279 . S
O290 Cd280 2.297 . S
O290 C285 1.247 . S
O291 Cd280 2.439 . S
O291 C285 1.208 . S
O292 Cd293 2.223 . S
O292 C300 1.315 . S
Cd293 O292 2.223 . S
Cd293 O296 2.297 . S
Cd293 O297 2.439 . S
Cd293 O303 2.240 . S
Cd294 O295 2.240 . S
Cd294 O302 2.223 . S
Cd294 O304 2.297 . S
Cd294 O305 2.439 . S
O295 Cd294 2.240 . S
O295 C300 1.279 . S
O296 Cd293 2.297 . S
O296 C298 1.247 . S
O297 Cd293 2.439 . S
O297 C298 1.208 . S
C298 O296 1.247 . S
C298 O297 1.208 . S
C299 O304 1.247 . S
C299 O305 1.208 . S
C300 O292 1.315 . S
C300 O295 1.279 . S
C301 O302 1.315 . S
C301 O303 1.279 . S
O302 Cd294 2.223 . S
O302 C301 1.315 . S
O303 Cd293 2.240 . S
O303 C301 1.279 . S
O304 Cd294 2.297 . S
O304 C299 1.247 . S
O305 Cd294 2.439 . S
O305 C299 1.208 . S
O306 Cd307 2.223 1_545 S
O306 C314 1.315 . S
Cd307 O306 2.223 1_565 S
Cd307 O310 2.297 . S
Cd307 O311 2.439 . S
Cd307 O317 2.240 1_565 S
Cd308 O309 2.240 . S
Cd308 O316 2.223 . S
Cd308 O318 2.297 . S
Cd308 O319 2.439 1_545 S
O309 Cd308 2.240 . S
O309 C314 1.279 . S
O310 Cd307 2.297 . S
O310 C312 1.247 . S
O311 Cd307 2.439 . S
O311 C312 1.208 . S
C312 O310 1.247 . S
C312 O311 1.208 . S
C313 O318 1.247 1_565 S
C313 O319 1.208 . S
C314 O306 1.315 . S
C314 O309 1.279 . S
C315 O316 1.315 . S
C315 O317 1.279 . S
O316 Cd308 2.223 . S
O316 C315 1.315 . S
O317 Cd307 2.240 1_545 S
O317 C315 1.279 . S
O318 Cd308 2.297 . S
O318 C313 1.247 1_545 S
O319 Cd308 2.439 1_565 S
O319 C313 1.208 . S
O320 Cd321 2.223 . S
O320 C328 1.315 . S
Cd321 O320 2.223 . S
Cd321 O324 2.297 . S
Cd321 O325 2.439 1_655 S
Cd321 O331 2.240 . S
Cd322 O323 2.240 . S
Cd322 O330 2.223 1_455 S
Cd322 O332 2.297 . S
Cd322 O333 2.439 . S
O323 Cd322 2.240 . S
O323 C328 1.279 1_455 S
O324 Cd321 2.297 . S
O324 C326 1.247 1_655 S
O325 Cd321 2.439 1_455 S
O325 C326 1.208 . S
C326 O324 1.247 1_455 S
C326 O325 1.208 . S
C327 O332 1.247 . S
C327 O333 1.208 . S
C328 O320 1.315 . S
C328 O323 1.279 1_655 S
C329 O330 1.315 . S
C329 O331 1.279 . S
O330 Cd322 2.223 1_655 S
O330 C329 1.315 . S
O331 Cd321 2.240 . S
O331 C329 1.279 . S
O332 Cd322 2.297 . S
O332 C327 1.247 . S
O333 Cd322 2.439 . S
O333 C327 1.208 . S
O334 Cd335 2.223 . S
O334 C342 1.315 . S
Cd335 O334 2.223 . S
Cd335 O338 2.297 . S
Cd335 O339 2.439 . S
Cd335 O345 2.240 . S
Cd336 O337 2.240 . S
Cd336 O344 2.223 . S
Cd336 O346 2.297 . S
Cd336 O347 2.439 . S
O337 Cd336 2.240 . S
O337 C342 1.279 . S
O338 Cd335 2.297 . S
O338 C340 1.247 . S
O339 Cd335 2.439 . S
O339 C340 1.208 . S
C340 O338 1.247 . S
C340 O339 1.208 . S
C341 O346 1.247 . S
C341 O347 1.208 . S
C342 O334 1.315 . S
C342 O337 1.279 . S
C343 O344 1.315 . S
C343 O345 1.279 . S
O344 Cd336 2.223 . S
O344 C343 1.315 . S
O345 Cd335 2.240 . S
O345 C343 1.279 . S
O346 Cd336 2.297 . S
O346 C341 1.247 . S
O347 Cd336 2.439 . S
O347 C341 1.208 . S
O348 Cd349 2.223 1_655 S
O348 C356 1.315 . S
Cd349 O348 2.223 1_455 S
Cd349 O352 2.297 . S
Cd349 O353 2.439 . S
Cd349 O359 2.240 . S
Cd350 O351 2.240 . S
Cd350 O358 2.223 . S
Cd350 O360 2.297 1_655 S
Cd350 O361 2.439 1_655 S
O351 Cd350 2.240 . S
O351 C356 1.279 . S
O352 Cd349 2.297 . S
O352 C354 1.247 . S
O353 Cd349 2.439 . S
O353 C354 1.208 . S
C354 O352 1.247 . S
C354 O353 1.208 . S
C355 O360 1.247 . S
C355 O361 1.208 . S
C356 O348 1.315 . S
C356 O351 1.279 . S
C357 O358 1.315 . S
C357 O359 1.279 1_655 S
O358 Cd350 2.223 . S
O358 C357 1.315 . S
O359 Cd349 2.240 . S
O359 C357 1.279 1_455 S
O360 Cd350 2.297 1_455 S
O360 C355 1.247 . S
O361 Cd350 2.439 1_455 S
O361 C355 1.208 . S
O362 Cd363 2.223 . S
O362 C370 1.315 . S
Cd363 O362 2.223 . S
Cd363 O366 2.297 . S
Cd363 O367 2.439 . S
Cd363 O373 2.240 . S
Cd364 O365 2.240 . S
Cd364 O372 2.223 . S
Cd364 O374 2.297 . S
Cd364 O375 2.439 . S
O365 Cd364 2.240 . S
O365 C370 1.279 . S
O366 Cd363 2.297 . S
O366 C368 1.247 . S
O367 Cd363 2.439 . S
O367 C368 1.208 . S
C368 O366 1.247 . S
C368 O367 1.208 . S
C369 O374 1.247 . S
C369 O375 1.208 . S
C370 O362 1.315 . S
C370 O365 1.279 . S
C371 O372 1.315 . S
C371 O373 1.279 . S
O372 Cd364 2.223 . S
O372 C371 1.315 . S
O373 Cd363 2.240 . S
O373 C371 1.279 . S
O374 Cd364 2.297 . S
O374 C369 1.247 . S
O375 Cd364 2.439 . S
O375 C369 1.208 . S
C376 C377 1.363 . S
C376 C382 1.379 . S
C376 N384 1.356 . S
C377 C376 1.363 . S
C377 C383 1.363 . S
C378 C379 1.363 . S
C378 C383 1.379 . S
C378 N385 1.356 . S
C379 C378 1.363 . S
C379 C382 1.363 . S
N380 C382 1.356 . S
N380 H392 0.984 . S
N380 H393 0.985 . S
N381 C383 1.356 . S
N381 H386 0.984 . S
N381 H387 0.985 . S
C382 C376 1.379 . S
C382 C379 1.363 . S
C382 N380 1.356 . S
C383 C377 1.363 . S
C383 C378 1.379 . S
C383 N381 1.356 . S
N384 C376 1.356 . S
N384 H390 0.984 . S
N384 H391 0.984 . S
N385 C378 1.356 . S
N385 H388 0.984 . S
N385 H389 0.985 . S
H386 N381 0.984 . S
H387 N381 0.985 . S
H388 N385 0.984 . S
H389 N385 0.985 . S
H390 N384 0.984 . S
H391 N384 0.984 . S
H392 N380 0.984 . S
H393 N380 0.985 . S
C394 C395 1.363 . S
C394 C400 1.379 . S
C394 N402 1.356 . S
C395 C394 1.363 . S
C395 C401 1.363 . S
C396 C397 1.363 . S
C396 C401 1.379 . S
C396 N403 1.356 . S
C397 C396 1.363 . S
C397 C400 1.363 . S
N398 C400 1.356 . S
N398 H410 0.984 . S
N398 H411 0.985 . S
N399 C401 1.356 1_655 S
N399 H404 0.984 . S
N399 H405 0.985 . S
C400 C394 1.379 . S
C400 C397 1.363 . S
C400 N398 1.356 . S
C401 C395 1.363 . S
C401 C396 1.379 . S
C401 N399 1.356 1_455 S
N402 C394 1.356 . S
N402 H408 0.984 . S
N402 H409 0.984 . S
N403 C396 1.356 . S
N403 H406 0.984 . S
N403 H407 0.985 . S
H404 N399 0.984 . S
H405 N399 0.985 . S
H406 N403 0.984 . S
H407 N403 0.985 . S
H408 N402 0.984 . S
H409 N402 0.984 . S
H410 N398 0.984 . S
H411 N398 0.985 . S
C412 C413 1.363 . S
C412 C418 1.379 . S
C412 N420 1.356 . S
C413 C412 1.363 . S
C413 C419 1.363 . S
C414 C415 1.363 . S
C414 C419 1.379 . S
C414 N421 1.356 . S
C415 C414 1.363 . S
C415 C418 1.363 . S
N416 C418 1.356 . S
N416 H428 0.984 . S
N416 H429 0.985 . S
N417 C419 1.356 . S
N417 H422 0.984 . S
N417 H423 0.985 . S
C418 C412 1.379 . S
C418 C415 1.363 . S
C418 N416 1.356 . S
C419 C413 1.363 . S
C419 C414 1.379 . S
C419 N417 1.356 . S
N420 C412 1.356 . S
N420 H426 0.984 . S
N420 H427 0.984 . S
N421 C414 1.356 . S
N421 H424 0.984 . S
N421 H425 0.985 . S
H422 N417 0.984 . S
H423 N417 0.985 . S
H424 N421 0.984 . S
H425 N421 0.985 . S
H426 N420 0.984 . S
H427 N420 0.984 . S
H428 N416 0.984 . S
H429 N416 0.985 . S
C430 C431 1.363 1_655 S
C430 C436 1.379 . S
C430 N438 1.356 . S
C431 C430 1.363 1_455 S
C431 C437 1.363 1_565 S
C432 C433 1.363 . S
C432 C437 1.379 1_655 S
C432 N439 1.356 . S
C433 C432 1.363 . S
C433 C436 1.363 1_545 S
N434 C436 1.356 . S
N434 H446 0.984 . S
N434 H447 0.985 . S
N435 C437 1.356 . S
N435 H440 0.984 . S
N435 H441 0.985 . S
C436 C430 1.379 . S
C436 C433 1.363 1_565 S
C436 N434 1.356 . S
C437 C431 1.363 1_545 S
C437 C432 1.379 1_455 S
C437 N435 1.356 . S
N438 C430 1.356 . S
N438 H444 0.984 . S
N438 H445 0.984 1_655 S
N439 C432 1.356 . S
N439 H442 0.984 . S
N439 H443 0.985 1_655 S
H440 N435 0.984 . S
H441 N435 0.985 . S
H442 N439 0.984 . S
H443 N439 0.985 1_455 S
H444 N438 0.984 . S
H445 N438 0.984 1_455 S
H446 N434 0.984 . S
H447 N434 0.985 . S
C448 C449 1.363 . S
C448 C454 1.379 . S
C448 N456 1.356 . S
C449 C448 1.363 . S
C449 C455 1.363 . S
C450 C451 1.363 . S
C450 C455 1.379 . S
C450 N457 1.356 . S
C451 C450 1.363 . S
C451 C454 1.363 . S
N452 C454 1.356 . S
N452 H464 0.984 . S
N452 H465 0.985 . S
N453 C455 1.356 . S
N453 H458 0.984 . S
N453 H459 0.985 . S
C454 C448 1.379 . S
C454 C451 1.363 . S
C454 N452 1.356 . S
C455 C449 1.363 . S
C455 C450 1.379 . S
C455 N453 1.356 . S
N456 C448 1.356 . S
N456 H462 0.984 . S
N456 H463 0.984 . S
N457 C450 1.356 . S
N457 H460 0.984 . S
N457 H461 0.985 . S
H458 N453 0.984 . S
H459 N453 0.985 . S
H460 N457 0.984 . S
H461 N457 0.985 . S
H462 N456 0.984 . S
H463 N456 0.984 . S
H464 N452 0.984 . S
H465 N452 0.985 . S
C466 C467 1.363 . S
C466 C472 1.379 . S
C466 N474 1.356 . S
C467 C466 1.363 . S
C467 C473 1.363 . S
C468 C469 1.363 . S
C468 C473 1.379 . S
C468 N475 1.356 . S
C469 C468 1.363 . S
C469 C472 1.363 . S
N470 C472 1.356 . S
N470 H482 0.984 . S
N470 H483 0.985 . S
N471 C473 1.356 . S
N471 H476 0.984 . S
N471 H477 0.985 . S
C472 C466 1.379 . S
C472 C469 1.363 . S
C472 N470 1.356 . S
C473 C467 1.363 . S
C473 C468 1.379 . S
C473 N471 1.356 . S
N474 C466 1.356 . S
N474 H480 0.984 . S
N474 H481 0.984 . S
N475 C468 1.356 . S
N475 H478 0.984 . S
N475 H479 0.985 . S
H476 N471 0.984 . S
H477 N471 0.985 . S
H478 N475 0.984 . S
H479 N475 0.985 . S
H480 N474 0.984 . S
H481 N474 0.984 . S
H482 N470 0.984 . S
H483 N470 0.985 . S
C484 C485 1.363 . S
C484 C490 1.379 . S
C484 N492 1.356 . S
C485 C484 1.363 . S
C485 C491 1.363 . S
C486 C487 1.363 . S
C486 C491 1.379 . S
C486 N493 1.356 . S
C487 C486 1.363 . S
C487 C490 1.363 . S
N488 C490 1.356 . S
N488 H500 0.984 . S
N488 H501 0.985 . S
N489 C491 1.356 . S
N489 H494 0.984 . S
N489 H495 0.985 . S
C490 C484 1.379 . S
C490 C487 1.363 . S
C490 N488 1.356 . S
C491 C485 1.363 . S
C491 C486 1.379 . S
C491 N489 1.356 . S
N492 C484 1.356 . S
N492 H498 0.984 . S
N492 H499 0.984 . S
N493 C486 1.356 . S
N493 H496 0.984 . S
N493 H497 0.985 . S
H494 N489 0.984 . S
H495 N489 0.985 . S
H496 N493 0.984 . S
H497 N493 0.985 . S
H498 N492 0.984 . S
H499 N492 0.984 . S
H500 N488 0.984 . S
H501 N488 0.985 . S
C502 C503 1.363 . S
C502 C508 1.379 . S
C502 N510 1.356 . S
C503 C502 1.363 . S
C503 C509 1.363 . S
C504 C505 1.363 . S
C504 C509 1.379 . S
C504 N511 1.356 . S
C505 C504 1.363 . S
C505 C508 1.363 . S
N506 C508 1.356 . S
N506 H518 0.984 . S
N506 H519 0.985 . S
N507 C509 1.356 . S
N507 H512 0.984 . S
N507 H513 0.985 . S
C508 C502 1.379 . S
C508 C505 1.363 . S
C508 N506 1.356 . S
C509 C503 1.363 . S
C509 C504 1.379 . S
C509 N507 1.356 . S
N510 C502 1.356 . S
N510 H516 0.984 . S
N510 H517 0.984 . S
N511 C504 1.356 . S
N511 H514 0.984 . S
N511 H515 0.985 . S
H512 N507 0.984 . S
H513 N507 0.985 . S
H514 N511 0.984 . S
H515 N511 0.985 . S
H516 N510 0.984 . S
H517 N510 0.984 . S
H518 N506 0.984 . S
H519 N506 0.985 . S
C520 C521 1.363 . S
C520 C526 1.379 . S
C520 N528 1.356 . S
C521 C520 1.363 . S
C521 C527 1.363 . S
C522 C523 1.363 . S
C522 C527 1.379 . S
C522 N529 1.356 . S
C523 C522 1.363 . S
C523 C526 1.363 . S
N524 C526 1.356 . S
N524 H536 0.984 . S
N524 H537 0.985 . S
N525 C527 1.356 . S
N525 H530 0.984 . S
N525 H531 0.985 . S
C526 C520 1.379 . S
C526 C523 1.363 . S
C526 N524 1.356 . S
C527 C521 1.363 . S
C527 C522 1.379 . S
C527 N525 1.356 . S
N528 C520 1.356 . S
N528 H534 0.984 . S
N528 H535 0.984 . S
N529 C522 1.356 . S
N529 H532 0.984 . S
N529 H533 0.985 . S
H530 N525 0.984 . S
H531 N525 0.985 . S
H532 N529 0.984 . S
H533 N529 0.985 . S
H534 N528 0.984 . S
H535 N528 0.984 . S
H536 N524 0.984 . S
H537 N524 0.985 . S
C538 C539 1.363 . S
C538 C544 1.379 . S
C538 N546 1.356 . S
C539 C538 1.363 . S
C539 C545 1.363 . S
C540 C541 1.363 . S
C540 C545 1.379 . S
C540 N547 1.356 . S
C541 C540 1.363 . S
C541 C544 1.363 . S
N542 C544 1.356 . S
N542 H554 0.984 . S
N542 H555 0.985 . S
N543 C545 1.356 . S
N543 H548 0.984 . S
N543 H549 0.985 . S
C544 C538 1.379 . S
C544 C541 1.363 . S
C544 N542 1.356 . S
C545 C539 1.363 . S
C545 C540 1.379 . S
C545 N543 1.356 . S
N546 C538 1.356 . S
N546 H552 0.984 . S
N546 H553 0.984 . S
N547 C540 1.356 . S
N547 H550 0.984 . S
N547 H551 0.985 . S
H548 N543 0.984 . S
H549 N543 0.985 . S
H550 N547 0.984 . S
H551 N547 0.985 . S
H552 N546 0.984 . S
H553 N546 0.984 . S
H554 N542 0.984 . S
H555 N542 0.985 . S
C556 C557 1.363 . S
C556 C562 1.379 . S
C556 N564 1.356 . S
C557 C556 1.363 . S
C557 C563 1.363 . S
C558 C559 1.363 . S
C558 C563 1.379 . S
C558 N565 1.356 . S
C559 C558 1.363 . S
C559 C562 1.363 . S
N560 C562 1.356 . S
N560 H572 0.984 . S
N560 H573 0.985 . S
N561 C563 1.356 . S
N561 H566 0.984 . S
N561 H567 0.985 . S
C562 C556 1.379 . S
C562 C559 1.363 . S
C562 N560 1.356 . S
C563 C557 1.363 . S
C563 C558 1.379 . S
C563 N561 1.356 . S
N564 C556 1.356 . S
N564 H570 0.984 . S
N564 H571 0.984 . S
N565 C558 1.356 . S
N565 H568 0.984 . S
N565 H569 0.985 . S
H566 N561 0.984 . S
H567 N561 0.985 . S
H568 N565 0.984 . S
H569 N565 0.985 . S
H570 N564 0.984 . S
H571 N564 0.984 . S
H572 N560 0.984 . S
H573 N560 0.985 . S
C574 C575 1.363 . S
C574 C580 1.379 . S
C574 N582 1.356 . S
C575 C574 1.363 . S
C575 C581 1.363 . S
C576 C577 1.363 . S
C576 C581 1.379 . S
C576 N583 1.356 . S
C577 C576 1.363 . S
C577 C580 1.363 . S
N578 C580 1.356 . S
N578 H590 0.984 . S
N578 H591 0.985 . S
N579 C581 1.356 . S
N579 H584 0.984 . S
N579 H585 0.985 . S
C580 C574 1.379 . S
C580 C577 1.363 . S
C580 N578 1.356 . S
C581 C575 1.363 . S
C581 C576 1.379 . S
C581 N579 1.356 . S
N582 C574 1.356 . S
N582 H588 0.984 . S
N582 H589 0.984 . S
N583 C576 1.356 . S
N583 H586 0.984 . S
N583 H587 0.985 . S
H584 N579 0.984 . S
H585 N579 0.985 . S
H586 N583 0.984 . S
H587 N583 0.985 . S
H588 N582 0.984 . S
H589 N582 0.984 . S
H590 N578 0.984 . S
H591 N578 0.985 . S
C592 C593 1.363 . S
C592 C598 1.379 . S
C592 N600 1.356 . S
C593 C592 1.363 . S
C593 C599 1.363 . S
C594 C595 1.363 . S
C594 C599 1.379 . S
C594 N601 1.356 . S
C595 C594 1.363 . S
C595 C598 1.363 . S
N596 C598 1.356 . S
N596 H608 0.984 . S
N596 H609 0.985 . S
N597 C599 1.356 . S
N597 H602 0.984 . S
N597 H603 0.985 . S
C598 C592 1.379 . S
C598 C595 1.363 . S
C598 N596 1.356 . S
C599 C593 1.363 . S
C599 C594 1.379 . S
C599 N597 1.356 . S
N600 C592 1.356 . S
N600 H606 0.984 . S
N600 H607 0.984 . S
N601 C594 1.356 . S
N601 H604 0.984 . S
N601 H605 0.985 . S
H602 N597 0.984 . S
H603 N597 0.985 . S
H604 N601 0.984 . S
H605 N601 0.985 . S
H606 N600 0.984 . S
H607 N600 0.984 . S
H608 N596 0.984 . S
H609 N596 0.985 . S
C610 C611 1.363 . S
C610 C616 1.379 . S
C610 N618 1.356 . S
C611 C610 1.363 . S
C611 C617 1.363 . S
C612 C613 1.363 . S
C612 C617 1.379 . S
C612 N619 1.356 . S
C613 C612 1.363 . S
C613 C616 1.363 . S
N614 C616 1.356 . S
N614 H626 0.984 . S
N614 H627 0.985 . S
N615 C617 1.356 . S
N615 H620 0.984 . S
N615 H621 0.985 . S
C616 C610 1.379 . S
C616 C613 1.363 . S
C616 N614 1.356 . S
C617 C611 1.363 . S
C617 C612 1.379 . S
C617 N615 1.356 . S
N618 C610 1.356 . S
N618 H624 0.984 . S
N618 H625 0.984 . S
N619 C612 1.356 . S
N619 H622 0.984 . S
N619 H623 0.985 . S
H620 N615 0.984 . S
H621 N615 0.985 . S
H622 N619 0.984 . S
H623 N619 0.985 . S
H624 N618 0.984 . S
H625 N618 0.984 . S
H626 N614 0.984 . S
H627 N614 0.985 . S
C628 C629 1.363 . S
C628 C634 1.379 . S
C628 N636 1.356 . S
C629 C628 1.363 . S
C629 C635 1.363 . S
C630 C631 1.363 . S
C630 C635 1.379 . S
C630 N637 1.356 . S
C631 C630 1.363 . S
C631 C634 1.363 . S
N632 C634 1.356 . S
N632 H644 0.984 . S
N632 H645 0.985 . S
N633 C635 1.356 . S
N633 H638 0.984 . S
N633 H639 0.985 . S
C634 C628 1.379 . S
C634 C631 1.363 . S
C634 N632 1.356 . S
C635 C629 1.363 . S
C635 C630 1.379 . S
C635 N633 1.356 . S
N636 C628 1.356 . S
N636 H642 0.984 . S
N636 H643 0.984 . S
N637 C630 1.356 . S
N637 H640 0.984 . S
N637 H641 0.985 . S
H638 N633 0.984 . S
H639 N633 0.985 . S
H640 N637 0.984 . S
H641 N637 0.985 . S
H642 N636 0.984 . S
H643 N636 0.984 . S
H644 N632 0.984 . S
H645 N632 0.985 . S
C646 C647 1.363 . S
C646 C652 1.379 . S
C646 N654 1.356 . S
C647 C646 1.363 . S
C647 C653 1.363 . S
C648 C649 1.363 . S
C648 C653 1.379 . S
C648 N655 1.356 . S
C649 C648 1.363 . S
C649 C652 1.363 . S
N650 C652 1.356 . S
N650 H662 0.984 . S
N650 H663 0.985 . S
N651 C653 1.356 . S
N651 H656 0.984 . S
N651 H657 0.985 . S
C652 C646 1.379 . S
C652 C649 1.363 . S
C652 N650 1.356 . S
C653 C647 1.363 . S
C653 C648 1.379 . S
C653 N651 1.356 . S
N654 C646 1.356 . S
N654 H660 0.984 . S
N654 H661 0.984 . S
N655 C648 1.356 . S
N655 H658 0.984 . S
N655 H659 0.985 . S
H656 N651 0.984 . S
H657 N651 0.985 . S
H658 N655 0.984 . S
H659 N655 0.985 . S
H660 N654 0.984 . S
H661 N654 0.984 . S
H662 N650 0.984 . S
H663 N650 0.985 . S
C664 C665 1.363 . S
C664 C670 1.379 . S
C664 N672 1.356 . S
C665 C664 1.363 . S
C665 C671 1.363 . S
C666 C667 1.363 . S
C666 C671 1.379 . S
C666 N673 1.356 1_565 S
C667 C666 1.363 . S
C667 C670 1.363 . S
N668 C670 1.356 . S
N668 H680 0.984 . S
N668 H681 0.985 . S
N669 C671 1.356 . S
N669 H674 0.984 . S
N669 H675 0.985 . S
C670 C664 1.379 . S
C670 C667 1.363 . S
C670 N668 1.356 . S
C671 C665 1.363 . S
C671 C666 1.379 . S
C671 N669 1.356 . S
N672 C664 1.356 . S
N672 H678 0.984 . S
N672 H679 0.984 . S
N673 C666 1.356 1_545 S
N673 H676 0.984 . S
N673 H677 0.985 . S
H674 N669 0.984 . S
H675 N669 0.985 . S
H676 N673 0.984 . S
H677 N673 0.985 . S
H678 N672 0.984 . S
H679 N672 0.984 . S
H680 N668 0.984 . S
H681 N668 0.985 . S
C682 C683 1.363 . S
C682 C688 1.379 . S
C682 N690 1.356 . S
C683 C682 1.363 . S
C683 C689 1.363 . S
C684 C685 1.363 . S
C684 C689 1.379 . S
C684 N691 1.356 . S
C685 C684 1.363 . S
C685 C688 1.363 . S
N686 C688 1.356 . S
N686 H698 0.984 . S
N686 H699 0.985 . S
N687 C689 1.356 . S
N687 H692 0.984 . S
N687 H693 0.985 . S
C688 C682 1.379 . S
C688 C685 1.363 . S
C688 N686 1.356 . S
C689 C683 1.363 . S
C689 C684 1.379 . S
C689 N687 1.356 . S
N690 C682 1.356 . S
N690 H696 0.984 . S
N690 H697 0.984 . S
N691 C684 1.356 . S
N691 H694 0.984 . S
N691 H695 0.985 . S
H692 N687 0.984 . S
H693 N687 0.985 . S
H694 N691 0.984 . S
H695 N691 0.985 . S
H696 N690 0.984 . S
H697 N690 0.984 . S
H698 N686 0.984 . S
H699 N686 0.985 . S
C700 C701 1.363 . S
C700 C706 1.379 . S
C700 N708 1.356 . S
C701 C700 1.363 . S
C701 C707 1.363 . S
C702 C703 1.363 . S
C702 C707 1.379 . S
C702 N709 1.356 . S
C703 C702 1.363 . S
C703 C706 1.363 . S
N704 C706 1.356 1_565 S
N704 H716 0.984 . S
N704 H717 0.985 . S
N705 C707 1.356 . S
N705 H710 0.984 . S
N705 H711 0.985 . S
C706 C700 1.379 . S
C706 C703 1.363 . S
C706 N704 1.356 1_545 S
C707 C701 1.363 . S
C707 C702 1.379 . S
C707 N705 1.356 . S
N708 C700 1.356 . S
N708 H714 0.984 . S
N708 H715 0.984 . S
N709 C702 1.356 . S
N709 H712 0.984 . S
N709 H713 0.985 . S
H710 N705 0.984 . S
H711 N705 0.985 . S
H712 N709 0.984 . S
H713 N709 0.985 . S
H714 N708 0.984 . S
H715 N708 0.984 . S
H716 N704 0.984 . S
H717 N704 0.985 . S
C718 C719 1.363 . S
C718 C724 1.379 . S
C718 N726 1.356 . S
C719 C718 1.363 . S
C719 C725 1.363 . S
C720 C721 1.363 . S
C720 C725 1.379 . S
C720 N727 1.356 . S
C721 C720 1.363 . S
C721 C724 1.363 . S
N722 C724 1.356 . S
N722 H734 0.984 . S
N722 H735 0.985 . S
N723 C725 1.356 . S
N723 H728 0.984 . S
N723 H729 0.985 . S
C724 C718 1.379 . S
C724 C721 1.363 . S
C724 N722 1.356 . S
C725 C719 1.363 . S
C725 C720 1.379 . S
C725 N723 1.356 . S
N726 C718 1.356 . S
N726 H732 0.984 . S
N726 H733 0.984 . S
N727 C720 1.356 . S
N727 H730 0.984 . S
N727 H731 0.985 . S
H728 N723 0.984 . S
H729 N723 0.985 . S
H730 N727 0.984 . S
H731 N727 0.985 . S
H732 N726 0.984 . S
H733 N726 0.984 . S
H734 N722 0.984 . S
H735 N722 0.985 . S
C736 C737 1.363 . S
C736 C742 1.379 . S
C736 N744 1.356 . S
C737 C736 1.363 . S
C737 C743 1.363 . S
C738 C739 1.363 . S
C738 C743 1.379 . S
C738 N745 1.356 . S
C739 C738 1.363 . S
C739 C742 1.363 . S
N740 C742 1.356 . S
N740 H752 0.984 . S
N740 H753 0.985 . S
N741 C743 1.356 1_565 S
N741 H746 0.984 . S
N741 H747 0.985 . S
C742 C736 1.379 . S
C742 C739 1.363 . S
C742 N740 1.356 . S
C743 C737 1.363 . S
C743 C738 1.379 . S
C743 N741 1.356 1_545 S
N744 C736 1.356 . S
N744 H750 0.984 . S
N744 H751 0.984 . S
N745 C738 1.356 . S
N745 H748 0.984 . S
N745 H749 0.985 . S
H746 N741 0.984 . S
H747 N741 0.985 . S
H748 N745 0.984 . S
H749 N745 0.985 . S
H750 N744 0.984 . S
H751 N744 0.984 . S
H752 N740 0.984 . S
H753 N740 0.985 . S
C754 C755 1.363 . S
C754 C760 1.379 . S
C754 N762 1.356 . S
C755 C754 1.363 . S
C755 C761 1.363 . S
C756 C757 1.363 . S
C756 C761 1.379 . S
C756 N763 1.356 . S
C757 C756 1.363 . S
C757 C760 1.363 . S
N758 C760 1.356 . S
N758 H770 0.984 . S
N758 H771 0.985 . S
N759 C761 1.356 . S
N759 H764 0.984 . S
N759 H765 0.985 . S
C760 C754 1.379 . S
C760 C757 1.363 . S
C760 N758 1.356 . S
C761 C755 1.363 . S
C761 C756 1.379 . S
C761 N759 1.356 . S
N762 C754 1.356 . S
N762 H768 0.984 . S
N762 H769 0.984 . S
N763 C756 1.356 . S
N763 H766 0.984 . S
N763 H767 0.985 . S
H764 N759 0.984 . S
H765 N759 0.985 . S
H766 N763 0.984 . S
H767 N763 0.985 . S
H768 N762 0.984 . S
H769 N762 0.984 . S
H770 N758 0.984 . S
H771 N758 0.985 . S
C772 C773 1.363 . S
C772 C778 1.379 1_565 S
C772 N780 1.356 . S
C773 C772 1.363 . S
C773 C779 1.363 1_565 S
C774 C775 1.363 . S
C774 C779 1.379 . S
C774 N781 1.356 . S
C775 C774 1.363 . S
C775 C778 1.363 . S
N776 C778 1.356 . S
N776 H788 0.998 . S
N776 H789 0.985 . S
N777 C779 1.359 . S
N777 H782 0.979 1_545 S
N777 H783 0.987 . S
C778 C772 1.379 1_545 S
C778 C775 1.363 . S
C778 N776 1.356 . S
C779 C773 1.363 1_545 S
C779 C774 1.379 . S
C779 N777 1.359 . S
N780 C772 1.356 . S
N780 H786 0.984 . S
N780 H787 0.984 . S
N781 C774 1.356 . S
N781 H784 0.984 . S
N781 H785 0.985 . S
H782 N777 0.979 1_565 S
H783 N777 0.987 . S
H784 N781 0.984 . S
H785 N781 0.985 . S
H786 N780 0.984 . S
H787 N780 0.984 . S
H788 N776 0.998 . S
H789 N776 0.985 . S
C790 C791 1.363 . S
C790 C796 1.379 . S
C790 N798 1.356 . S
C791 C790 1.363 . S
C791 C797 1.363 . S
C792 C793 1.363 . S
C792 C797 1.379 . S
C792 N799 1.356 . S
C793 C792 1.363 . S
C793 C796 1.363 . S
N794 C796 1.356 . S
N794 H806 0.984 . S
N794 H807 0.985 . S
N795 C797 1.356 . S
N795 H800 0.984 . S
N795 H801 0.985 . S
C796 C790 1.379 . S
C796 C793 1.363 . S
C796 N794 1.356 . S
C797 C791 1.363 . S
C797 C792 1.379 . S
C797 N795 1.356 . S
N798 C790 1.356 . S
N798 H804 0.984 . S
N798 H805 0.984 . S
N799 C792 1.356 . S
N799 H802 0.984 . S
N799 H803 0.985 . S
H800 N795 0.984 . S
H801 N795 0.985 . S
H802 N799 0.984 . S
H803 N799 0.985 . S
H804 N798 0.984 . S
H805 N798 0.984 . S
H806 N794 0.984 . S
H807 N794 0.985 . S
C808 C809 1.363 . S
C808 C814 1.379 . S
C808 N816 1.356 . S
C809 C808 1.363 . S
C809 C815 1.363 . S
C810 C811 1.363 . S
C810 C815 1.379 . S
C810 N817 1.356 . S
C811 C810 1.363 . S
C811 C814 1.363 . S
N812 C814 1.356 . S
N812 H824 0.984 . S
N812 H825 0.985 . S
N813 C815 1.356 . S
N813 H818 0.984 . S
N813 H819 0.985 . S
C814 C808 1.379 . S
C814 C811 1.363 . S
C814 N812 1.356 . S
C815 C809 1.363 . S
C815 C810 1.379 . S
C815 N813 1.356 . S
N816 C808 1.356 . S
N816 H822 0.984 . S
N816 H823 0.984 . S
N817 C810 1.356 . S
N817 H820 0.984 . S
N817 H821 0.985 . S
H818 N813 0.984 . S
H819 N813 0.985 . S
H820 N817 0.984 . S
H821 N817 0.985 . S
H822 N816 0.984 . S
H823 N816 0.984 . S
H824 N812 0.984 . S
H825 N812 0.985 . S
C826 C827 1.363 . S
C826 C832 1.379 . S
C826 N834 1.356 . S
C827 C826 1.363 . S
C827 C833 1.363 . S
C828 C829 1.363 . S
C828 C833 1.379 . S
C828 N835 1.356 . S
C829 C828 1.363 . S
C829 C832 1.363 . S
N830 C832 1.356 . S
N830 H842 0.984 . S
N830 H843 0.985 . S
N831 C833 1.356 . S
N831 H836 0.984 . S
N831 H837 0.985 . S
C832 C826 1.379 . S
C832 C829 1.363 . S
C832 N830 1.356 . S
C833 C827 1.363 . S
C833 C828 1.379 . S
C833 N831 1.356 . S
N834 C826 1.356 . S
N834 H840 0.984 . S
N834 H841 0.984 . S
N835 C828 1.356 . S
N835 H838 0.984 . S
N835 H839 0.985 . S
H836 N831 0.984 . S
H837 N831 0.985 . S
H838 N835 0.984 . S
H839 N835 0.985 . S
H840 N834 0.984 . S
H841 N834 0.984 . S
H842 N830 0.984 . S
H843 N830 0.985 . S
C844 C845 1.363 . S
C844 C850 1.379 . S
C844 N852 1.356 . S
C845 C844 1.363 . S
C845 C851 1.363 . S
C846 C847 1.363 . S
C846 C851 1.379 . S
C846 N853 1.356 . S
C847 C846 1.363 . S
C847 C850 1.363 . S
N848 C850 1.356 . S
N848 H860 0.984 . S
N848 H861 0.985 . S
N849 C851 1.356 . S
N849 H854 0.984 . S
N849 H855 0.985 . S
C850 C844 1.379 . S
C850 C847 1.363 . S
C850 N848 1.356 . S
C851 C845 1.363 . S
C851 C846 1.379 . S
C851 N849 1.356 . S
N852 C844 1.356 . S
N852 H858 0.984 . S
N852 H859 0.984 . S
N853 C846 1.356 . S
N853 H856 0.984 . S
N853 H857 0.985 . S
H854 N849 0.984 . S
H855 N849 0.985 . S
H856 N853 0.984 . S
H857 N853 0.985 . S
H858 N852 0.984 . S
H859 N852 0.984 . S
H860 N848 0.984 . S
H861 N848 0.985 . S
C862 C863 1.363 . S
C862 C868 1.379 . S
C862 N870 1.356 . S
C863 C862 1.363 . S
C863 C869 1.363 . S
C864 C865 1.363 . S
C864 C869 1.379 . S
C864 N871 1.356 . S
C865 C864 1.363 . S
C865 C868 1.363 . S
N866 C868 1.356 . S
N866 H878 0.984 . S
N866 H879 0.985 . S
N867 C869 1.356 . S
N867 H872 0.984 . S
N867 H873 0.985 . S
C868 C862 1.379 . S
C868 C865 1.363 . S
C868 N866 1.356 . S
C869 C863 1.363 . S
C869 C864 1.379 . S
C869 N867 1.356 . S
N870 C862 1.356 . S
N870 H876 0.984 . S
N870 H877 0.984 . S
N871 C864 1.356 . S
N871 H874 0.984 . S
N871 H875 0.985 . S
H872 N867 0.984 . S
H873 N867 0.985 . S
H874 N871 0.984 . S
H875 N871 0.985 . S
H876 N870 0.984 . S
H877 N870 0.984 . S
H878 N866 0.984 . S
H879 N866 0.985 . S
C880 C881 1.363 . S
C880 C886 1.379 . S
C880 N888 1.356 . S
C881 C880 1.363 . S
C881 C887 1.363 . S
C882 C883 1.363 . S
C882 C887 1.379 . S
C882 N889 1.356 . S
C883 C882 1.363 . S
C883 C886 1.363 . S
N884 C886 1.356 . S
N884 H896 0.984 . S
N884 H897 0.985 . S
N885 C887 1.356 . S
N885 H890 0.984 . S
N885 H891 0.985 . S
C886 C880 1.379 . S
C886 C883 1.363 . S
C886 N884 1.356 . S
C887 C881 1.363 . S
C887 C882 1.379 . S
C887 N885 1.356 . S
N888 C880 1.356 . S
N888 H894 0.984 . S
N888 H895 0.984 . S
N889 C882 1.356 . S
N889 H892 0.984 . S
N889 H893 0.985 . S
H890 N885 0.984 . S
H891 N885 0.985 . S
H892 N889 0.984 . S
H893 N889 0.985 . S
H894 N888 0.984 . S
H895 N888 0.984 . S
H896 N884 0.984 . S
H897 N884 0.985 . S
C898 C899 1.363 . S
C898 C904 1.379 . S
C898 N906 1.356 . S
C899 C898 1.363 . S
C899 C905 1.363 . S
C900 C901 1.363 1_455 S
C900 C905 1.379 . S
C900 N907 1.356 . S
C901 C900 1.363 1_655 S
C901 C904 1.363 1_655 S
N902 C904 1.356 1_655 S
N902 H914 0.984 . S
N902 H915 0.985 . S
N903 C905 1.356 . S
N903 H908 0.984 . S
N903 H909 0.985 . S
C904 C898 1.379 . S
C904 C901 1.363 1_455 S
C904 N902 1.356 1_455 S
C905 C899 1.363 . S
C905 C900 1.379 . S
C905 N903 1.356 . S
N906 C898 1.356 . S
N906 H912 0.984 . S
N906 H913 0.984 . S
N907 C900 1.356 . S
N907 H910 0.984 1_455 S
N907 H911 0.985 . S
H908 N903 0.984 . S
H909 N903 0.985 . S
H910 N907 0.984 1_655 S
H911 N907 0.985 . S
H912 N906 0.984 . S
H913 N906 0.984 . S
H914 N902 0.984 . S
H915 N902 0.985 . S
C916 C917 1.363 . S
C916 C922 1.379 . S
C916 N924 1.356 . S
C917 C916 1.363 . S
C917 C923 1.363 . S
C918 C919 1.363 . S
C918 C923 1.379 . S
C918 N925 1.356 . S
C919 C918 1.363 . S
C919 C922 1.363 . S
N920 C922 1.356 . S
N920 H932 0.984 . S
N920 H933 0.985 . S
N921 C923 1.356 . S
N921 H926 0.984 . S
N921 H927 0.985 . S
C922 C916 1.379 . S
C922 C919 1.363 . S
C922 N920 1.356 . S
C923 C917 1.363 . S
C923 C918 1.379 . S
C923 N921 1.356 . S
N924 C916 1.356 . S
N924 H930 0.984 . S
N924 H931 0.984 . S
N925 C918 1.356 . S
N925 H928 0.984 . S
N925 H929 0.985 . S
H926 N921 0.984 . S
H927 N921 0.985 . S
H928 N925 0.984 . S
H929 N925 0.985 . S
H930 N924 0.984 . S
H931 N924 0.984 . S
H932 N920 0.984 . S
H933 N920 0.985 . S
C934 C935 1.363 . S
C934 C940 1.379 . S
C934 N942 1.356 . S
C935 C934 1.363 . S
C935 C941 1.363 . S
C936 C937 1.363 . S
C936 C941 1.379 1_455 S
C936 N943 1.356 . S
C937 C936 1.363 . S
C937 C940 1.363 1_455 S
N938 C940 1.356 . S
N938 H950 0.984 . S
N938 H951 0.985 1_655 S
N939 C941 1.356 . S
N939 H944 0.984 . S
N939 H945 0.985 . S
C940 C934 1.379 . S
C940 C937 1.363 1_655 S
C940 N938 1.356 . S
C941 C935 1.363 . S
C941 C936 1.379 1_655 S
C941 N939 1.356 . S
N942 C934 1.356 . S
N942 H948 0.984 . S
N942 H949 0.984 . S
N943 C936 1.356 . S
N943 H946 0.984 . S
N943 H947 0.985 . S
H944 N939 0.984 . S
H945 N939 0.985 . S
H946 N943 0.984 . S
H947 N943 0.985 . S
H948 N942 0.984 . S
H949 N942 0.984 . S
H950 N938 0.984 . S
H951 N938 0.985 1_455 S
C952 C953 1.363 . S
C952 C958 1.379 . S
C952 N960 1.356 . S
C953 C952 1.363 . S
C953 C959 1.363 . S
C954 C955 1.363 . S
C954 C959 1.379 . S
C954 N961 1.356 . S
C955 C954 1.363 . S
C955 C958 1.363 . S
N956 C958 1.356 . S
N956 H968 0.984 . S
N956 H969 0.985 . S
N957 C959 1.356 . S
N957 H962 0.984 . S
N957 H963 0.985 . S
C958 C952 1.379 . S
C958 C955 1.363 . S
C958 N956 1.356 . S
C959 C953 1.363 . S
C959 C954 1.379 . S
C959 N957 1.356 . S
N960 C952 1.356 . S
N960 H966 0.984 . S
N960 H967 0.984 . S
N961 C954 1.356 . S
N961 H964 0.984 . S
N961 H965 0.985 . S
H962 N957 0.984 . S
H963 N957 0.985 . S
H964 N961 0.984 . S
H965 N961 0.985 . S
H966 N960 0.984 . S
H967 N960 0.984 . S
H968 N956 0.984 . S
H969 N956 0.985 . S
C970 C971 1.363 1_556 S
C970 C976 1.379 . S
C970 N978 1.356 . S
C971 C970 1.363 1_554 S
C971 C977 1.363 . S
C972 C973 1.363 . S
C972 C977 1.379 1_556 S
C972 N979 1.356 . S
C973 C972 1.363 . S
C973 C976 1.363 . S
N974 C976 1.356 . S
N974 H986 0.984 . S
N974 H987 0.985 . S
N975 C977 1.356 . S
N975 H980 0.984 . S
N975 H981 0.985 . S
C976 C970 1.379 . S
C976 C973 1.363 . S
C976 N974 1.356 . S
C977 C971 1.363 . S
C977 C972 1.379 1_554 S
C977 N975 1.356 . S
N978 C970 1.356 . S
N978 H984 0.984 . S
N978 H985 0.984 1_556 S
N979 C972 1.356 . S
N979 H982 0.984 . S
N979 H983 0.985 1_556 S
H980 N975 0.984 . S
H981 N975 0.985 . S
H982 N979 0.984 . S
H983 N979 0.985 1_554 S
H984 N978 0.984 . S
H985 N978 0.984 1_554 S
H986 N974 0.984 . S
H987 N974 0.985 . S
C988 C989 1.363 . S
C988 C994 1.379 . S
C988 N996 1.356 . S
C989 C988 1.363 . S
C989 C995 1.363 . S
C990 C991 1.363 . S
C990 C995 1.379 . S
C990 N997 1.356 . S
C991 C990 1.363 . S
C991 C994 1.363 . S
N992 C994 1.356 . S
N992 H1004 0.984 . S
N992 H1005 0.985 . S
N993 C995 1.356 . S
N993 H998 0.984 . S
N993 H999 0.985 . S
C994 C988 1.379 . S
C994 C991 1.363 . S
C994 N992 1.356 . S
C995 C989 1.363 . S
C995 C990 1.379 . S
C995 N993 1.356 . S
N996 C988 1.356 . S
N996 H1002 0.984 . S
N996 H1003 0.984 . S
N997 C990 1.356 . S
N997 H1000 0.984 . S
N997 H1001 0.985 . S
H998 N993 0.984 . S
H999 N993 0.985 . S
H1000 N997 0.984 . S
H1001 N997 0.985 . S
H1002 N996 0.984 . S
H1003 N996 0.984 . S
H1004 N992 0.984 . S
H1005 N992 0.985 . S
C1006 C1007 1.363 . S
C1006 C1012 1.379 . S
C1006 N1014 1.356 . S
C1007 C1006 1.363 . S
C1007 C1013 1.363 . S
C1008 C1009 1.363 1_554 S
C1008 C1013 1.379 . S
C1008 N1015 1.356 1_554 S
C1009 C1008 1.363 1_556 S
C1009 C1012 1.363 1_556 S
N1010 C1012 1.356 1_556 S
N1010 H1022 0.984 1_456 S
N1010 H1023 0.985 . S
N1011 C1013 1.356 . S
N1011 H1016 0.984 . S
N1011 H1017 0.985 . S
C1012 C1006 1.379 . S
C1012 C1009 1.363 1_554 S
C1012 N1010 1.356 1_554 S
C1013 C1007 1.363 . S
C1013 C1008 1.379 . S
C1013 N1011 1.356 . S
N1014 C1006 1.356 . S
N1014 H1020 0.984 . S
N1014 H1021 0.984 . S
N1015 C1008 1.356 1_556 S
N1015 H1018 0.984 . S
N1015 H1019 0.985 . S
H1016 N1011 0.984 . S
H1017 N1011 0.985 . S
H1018 N1015 0.984 . S
H1019 N1015 0.985 . S
H1020 N1014 0.984 . S
H1021 N1014 0.984 . S
H1022 N1010 0.984 1_654 S
H1023 N1010 0.985 . S
C1024 C1025 1.363 . S
C1024 C1030 1.379 . S
C1024 N1032 1.356 . S
C1025 C1024 1.363 . S
C1025 C1031 1.363 . S
C1026 C1027 1.363 . S
C1026 C1031 1.379 . S
C1026 N1033 1.356 . S
C1027 C1026 1.363 . S
C1027 C1030 1.363 . S
N1028 C1030 1.356 . S
N1028 H1040 0.984 . S
N1028 H1041 0.985 . S
N1029 C1031 1.356 . S
N1029 H1034 0.984 . S
N1029 H1035 0.985 . S
C1030 C1024 1.379 . S
C1030 C1027 1.363 . S
C1030 N1028 1.356 . S
C1031 C1025 1.363 . S
C1031 C1026 1.379 . S
C1031 N1029 1.356 . S
N1032 C1024 1.356 . S
N1032 H1038 0.984 . S
N1032 H1039 0.984 . S
N1033 C1026 1.356 . S
N1033 H1036 0.984 . S
N1033 H1037 0.985 . S
H1034 N1029 0.984 . S
H1035 N1029 0.985 . S
H1036 N1033 0.984 . S
H1037 N1033 0.985 . S
H1038 N1032 0.984 . S
H1039 N1032 0.984 . S
H1040 N1028 0.984 . S
H1041 N1028 0.985 . S
C1042 C1043 1.363 . S
C1042 C1048 1.379 1_556 S
C1042 N1050 1.356 . S
C1043 C1042 1.363 . S
C1043 C1049 1.363 . S
C1044 C1045 1.363 . S
C1044 C1049 1.379 1_554 S
C1044 N1051 1.356 . S
C1045 C1044 1.363 . S
C1045 C1048 1.363 . S
N1046 C1048 1.356 . S
N1046 H1058 0.984 . S
N1046 H1059 0.985 . S
N1047 C1049 1.356 . S
N1047 H1052 0.984 . S
N1047 H1053 0.985 . S
C1048 C1042 1.379 1_554 S
C1048 C1045 1.363 . S
C1048 N1046 1.356 . S
C1049 C1043 1.363 . S
C1049 C1044 1.379 1_556 S
C1049 N1047 1.356 . S
N1050 C1042 1.356 . S
N1050 H1056 0.984 . S
N1050 H1057 0.984 . S
N1051 C1044 1.356 . S
N1051 H1054 0.984 . S
N1051 H1055 0.985 . S
H1052 N1047 0.984 . S
H1053 N1047 0.985 . S
H1054 N1051 0.984 . S
H1055 N1051 0.985 . S
H1056 N1050 0.984 . S
H1057 N1050 0.984 . S
H1058 N1046 0.984 . S
H1059 N1046 0.985 . S
C1060 C1061 1.363 . S
C1060 C1066 1.379 . S
C1060 N1068 1.356 . S
C1061 C1060 1.363 . S
C1061 C1067 1.363 . S
C1062 C1063 1.363 . S
C1062 C1067 1.379 . S
C1062 N1069 1.356 . S
C1063 C1062 1.363 . S
C1063 C1066 1.363 . S
N1064 C1066 1.356 . S
N1064 H1076 0.984 . S
N1064 H1077 0.985 . S
N1065 C1067 1.356 . S
N1065 H1070 0.984 . S
N1065 H1071 0.985 . S
C1066 C1060 1.379 . S
C1066 C1063 1.363 . S
C1066 N1064 1.356 . S
C1067 C1061 1.363 . S
C1067 C1062 1.379 . S
C1067 N1065 1.356 . S
N1068 C1060 1.356 . S
N1068 H1074 0.984 . S
N1068 H1075 0.984 . S
N1069 C1062 1.356 . S
N1069 H1072 0.984 . S
N1069 H1073 0.985 . S
H1070 N1065 0.984 . S
H1071 N1065 0.985 . S
H1072 N1069 0.984 . S
H1073 N1069 0.985 . S
H1074 N1068 0.984 . S
H1075 N1068 0.984 . S
H1076 N1064 0.984 . S
H1077 N1064 0.985 . S
C1078 C1079 1.363 . S
C1078 C1084 1.379 . S
C1078 N1086 1.356 1_554 S
C1079 C1078 1.363 . S
C1079 C1085 1.363 . S
C1080 C1081 1.363 . S
C1080 C1085 1.379 . S
C1080 N1087 1.356 . S
C1081 C1080 1.363 . S
C1081 C1084 1.363 . S
N1082 C1084 1.356 . S
N1082 H1094 0.984 . S
N1082 H1095 0.985 . S
N1083 C1085 1.356 . S
N1083 H1088 0.984 . S
N1083 H1089 0.985 . S
C1084 C1078 1.379 . S
C1084 C1081 1.363 . S
C1084 N1082 1.356 . S
C1085 C1079 1.363 . S
C1085 C1080 1.379 . S
C1085 N1083 1.356 . S
N1086 C1078 1.356 1_556 S
N1086 H1092 0.984 . S
N1086 H1093 0.984 . S
N1087 C1080 1.356 . S
N1087 H1090 0.984 . S
N1087 H1091 0.985 . S
H1088 N1083 0.984 . S
H1089 N1083 0.985 . S
H1090 N1087 0.984 . S
H1091 N1087 0.985 . S
H1092 N1086 0.984 . S
H1093 N1086 0.984 . S
H1094 N1082 0.984 . S
H1095 N1082 0.985 . S
C1096 C1097 1.363 . S
C1096 C1102 1.379 . S
C1096 N1104 1.356 . S
C1097 C1096 1.363 . S
C1097 C1103 1.363 . S
C1098 C1099 1.363 . S
C1098 C1103 1.379 . S
C1098 N1105 1.356 . S
C1099 C1098 1.363 . S
C1099 C1102 1.363 . S
N1100 C1102 1.356 . S
N1100 H1112 0.984 . S
N1100 H1113 0.985 . S
N1101 C1103 1.356 . S
N1101 H1106 0.984 . S
N1101 H1107 0.985 . S
C1102 C1096 1.379 . S
C1102 C1099 1.363 . S
C1102 N1100 1.356 . S
C1103 C1097 1.363 . S
C1103 C1098 1.379 . S
C1103 N1101 1.356 . S
N1104 C1096 1.356 . S
N1104 H1110 0.984 . S
N1104 H1111 0.984 . S
N1105 C1098 1.356 . S
N1105 H1108 0.984 . S
N1105 H1109 0.985 . S
H1106 N1101 0.984 . S
H1107 N1101 0.985 . S
H1108 N1105 0.984 . S
H1109 N1105 0.985 . S
H1110 N1104 0.984 . S
H1111 N1104 0.984 . S
H1112 N1100 0.984 . S
H1113 N1100 0.985 . S
C1114 C1115 1.363 . S
C1114 C1120 1.379 . S
C1114 N1122 1.356 . S
C1115 C1114 1.363 . S
C1115 C1121 1.363 . S
C1116 C1117 1.363 . S
C1116 C1121 1.379 . S
C1116 N1123 1.356 . S
C1117 C1116 1.363 . S
C1117 C1120 1.363 . S
N1118 C1120 1.356 . S
N1118 H1130 0.984 . S
N1118 H1131 0.985 . S
N1119 C1121 1.356 . S
N1119 H1124 0.984 . S
N1119 H1125 0.985 . S
C1120 C1114 1.379 . S
C1120 C1117 1.363 . S
C1120 N1118 1.356 . S
C1121 C1115 1.363 . S
C1121 C1116 1.379 . S
C1121 N1119 1.356 . S
N1122 C1114 1.356 . S
N1122 H1128 0.984 . S
N1122 H1129 0.984 . S
N1123 C1116 1.356 . S
N1123 H1126 0.984 . S
N1123 H1127 0.985 . S
H1124 N1119 0.984 . S
H1125 N1119 0.985 . S
H1126 N1123 0.984 . S
H1127 N1123 0.985 . S
H1128 N1122 0.984 . S
H1129 N1122 0.984 . S
H1130 N1118 0.984 . S
H1131 N1118 0.985 . S
C1132 C1133 1.363 . S
C1132 C1138 1.379 . S
C1132 N1140 1.356 . S
C1133 C1132 1.363 . S
C1133 C1139 1.363 . S
C1134 C1135 1.363 . S
C1134 C1139 1.379 . S
C1134 N1141 1.356 . S
C1135 C1134 1.363 . S
C1135 C1138 1.363 . S
N1136 C1138 1.356 . S
N1136 H1148 0.984 . S
N1136 H1149 0.985 . S
N1137 C1139 1.356 . S
N1137 H1142 0.984 . S
N1137 H1143 0.985 . S
C1138 C1132 1.379 . S
C1138 C1135 1.363 . S
C1138 N1136 1.356 . S
C1139 C1133 1.363 . S
C1139 C1134 1.379 . S
C1139 N1137 1.356 . S
N1140 C1132 1.356 . S
N1140 H1146 0.984 . S
N1140 H1147 0.984 . S
N1141 C1134 1.356 . S
N1141 H1144 0.984 . S
N1141 H1145 0.985 . S
H1142 N1137 0.984 . S
H1143 N1137 0.985 . S
H1144 N1141 0.984 . S
H1145 N1141 0.985 . S
H1146 N1140 0.984 . S
H1147 N1140 0.984 . S
H1148 N1136 0.984 . S
H1149 N1136 0.985 . S
C1150 C1151 1.363 . S
C1150 C1156 1.379 . S
C1150 N1158 1.356 . S
C1151 C1150 1.363 . S
C1151 C1157 1.363 . S
C1152 C1153 1.363 . S
C1152 C1157 1.379 . S
C1152 N1159 1.356 . S
C1153 C1152 1.363 . S
C1153 C1156 1.363 . S
N1154 C1156 1.356 . S
N1154 H1166 0.984 . S
N1154 H1167 0.985 . S
N1155 C1157 1.356 . S
N1155 H1160 0.984 . S
N1155 H1161 0.985 . S
C1156 C1150 1.379 . S
C1156 C1153 1.363 . S
C1156 N1154 1.356 . S
C1157 C1151 1.363 . S
C1157 C1152 1.379 . S
C1157 N1155 1.356 . S
N1158 C1150 1.356 . S
N1158 H1164 0.984 . S
N1158 H1165 0.984 . S
N1159 C1152 1.356 . S
N1159 H1162 0.984 . S
N1159 H1163 0.985 . S
H1160 N1155 0.984 . S
H1161 N1155 0.985 . S
H1162 N1159 0.984 . S
H1163 N1159 0.985 . S
H1164 N1158 0.984 . S
H1165 N1158 0.984 . S
H1166 N1154 0.984 . S
H1167 N1154 0.985 . S
C1168 C1169 1.363 . S
C1168 C1174 1.379 . S
C1168 N1176 1.356 . S
C1169 C1168 1.363 . S
C1169 C1175 1.363 . S
C1170 C1171 1.363 . S
C1170 C1175 1.379 . S
C1170 N1177 1.356 . S
C1171 C1170 1.363 . S
C1171 C1174 1.363 . S
N1172 C1174 1.356 1_554 S
N1172 H1184 0.984 . S
N1172 H1185 0.985 . S
N1173 C1175 1.356 . S
N1173 H1178 0.984 . S
N1173 H1179 0.985 . S
C1174 C1168 1.379 . S
C1174 C1171 1.363 . S
C1174 N1172 1.356 1_556 S
C1175 C1169 1.363 . S
C1175 C1170 1.379 . S
C1175 N1173 1.356 . S
N1176 C1168 1.356 . S
N1176 H1182 0.984 1_556 S
N1176 H1183 0.984 . S
N1177 C1170 1.356 . S
N1177 H1180 0.984 . S
N1177 H1181 0.985 . S
H1178 N1173 0.984 . S
H1179 N1173 0.985 . S
H1180 N1177 0.984 . S
H1181 N1177 0.985 . S
H1182 N1176 0.984 1_554 S
H1183 N1176 0.984 . S
H1184 N1172 0.984 . S
H1185 N1172 0.985 . S
C1186 C1187 1.363 . S
C1186 C1192 1.379 . S
C1186 N1194 1.356 . S
C1187 C1186 1.363 . S
C1187 C1193 1.363 . S
C1188 C1189 1.363 . S
C1188 C1193 1.379 . S
C1188 N1195 1.356 . S
C1189 C1188 1.363 . S
C1189 C1192 1.363 . S
N1190 C1192 1.356 . S
N1190 H1202 0.984 . S
N1190 H1203 0.985 . S
N1191 C1193 1.356 . S
N1191 H1196 0.984 . S
N1191 H1197 0.985 . S
C1192 C1186 1.379 . S
C1192 C1189 1.363 . S
C1192 N1190 1.356 . S
C1193 C1187 1.363 . S
C1193 C1188 1.379 . S
C1193 N1191 1.356 . S
N1194 C1186 1.356 . S
N1194 H1200 0.984 . S
N1194 H1201 0.984 . S
N1195 C1188 1.356 . S
N1195 H1198 0.984 . S
N1195 H1199 0.985 . S
H1196 N1191 0.984 . S
H1197 N1191 0.985 . S
H1198 N1195 0.984 . S
H1199 N1195 0.985 . S
H1200 N1194 0.984 . S
H1201 N1194 0.984 . S
H1202 N1190 0.984 . S
H1203 N1190 0.985 . S
C1204 C1205 1.363 . S
C1204 C1210 1.379 . S
C1204 N1212 1.356 . S
C1205 C1204 1.363 . S
C1205 C1211 1.363 . S
C1206 C1207 1.363 . S
C1206 C1211 1.379 . S
C1206 N1213 1.356 . S
C1207 C1206 1.363 . S
C1207 C1210 1.363 . S
N1208 C1210 1.356 . S
N1208 H1220 0.984 . S
N1208 H1221 0.985 . S
N1209 C1211 1.356 . S
N1209 H1214 0.984 . S
N1209 H1215 0.985 . S
C1210 C1204 1.379 . S
C1210 C1207 1.363 . S
C1210 N1208 1.356 . S
C1211 C1205 1.363 . S
C1211 C1206 1.379 . S
C1211 N1209 1.356 . S
N1212 C1204 1.356 . S
N1212 H1218 0.984 . S
N1212 H1219 0.984 . S
N1213 C1206 1.356 . S
N1213 H1216 0.984 . S
N1213 H1217 0.985 1_554 S
H1214 N1209 0.984 . S
H1215 N1209 0.985 . S
H1216 N1213 0.984 . S
H1217 N1213 0.985 1_556 S
H1218 N1212 0.984 . S
H1219 N1212 0.984 . S
H1220 N1208 0.984 . S
H1221 N1208 0.985 . S
C1222 C1223 1.363 . S
C1222 C1228 1.379 . S
C1222 N1230 1.356 . S
C1223 C1222 1.363 . S
C1223 C1229 1.363 . S
C1224 C1225 1.363 . S
C1224 C1229 1.379 . S
C1224 N1231 1.356 . S
C1225 C1224 1.363 . S
C1225 C1228 1.363 . S
N1226 C1228 1.356 1_565 S
N1226 H1238 0.984 . S
N1226 H1239 0.985 . S
N1227 C1229 1.356 . S
N1227 H1232 0.984 . S
N1227 H1233 0.985 . S
C1228 C1222 1.379 . S
C1228 C1225 1.363 . S
C1228 N1226 1.356 1_545 S
C1229 C1223 1.363 . S
C1229 C1224 1.379 . S
C1229 N1227 1.356 . S
N1230 C1222 1.356 . S
N1230 H1236 0.984 . S
N1230 H1237 0.984 . S
N1231 C1224 1.356 . S
N1231 H1234 0.984 . S
N1231 H1235 0.985 1_554 S
H1232 N1227 0.984 . S
H1233 N1227 0.985 . S
H1234 N1231 0.984 . S
H1235 N1231 0.985 1_556 S
H1236 N1230 0.984 . S
H1237 N1230 0.984 . S
H1238 N1226 0.984 . S
H1239 N1226 0.985 . S
C379 C216 1.708 . S
C377 C73 1.718 . S
C397 C231 1.494 . S
C395 C82 1.536 1_455 S
C413 C100 1.927 . S
C415 C244 1.903 . S
C433 C258 1.473 . S
C431 C56 1.400 . S
C451 C270 1.459 . S
C449 C134 1.579 . S
C469 C284 1.476 . S
C467 C165 1.480 . S
C485 C147 1.436 . S
C487 C298 1.433 . S
C505 C313 1.687 . S
C503 C125 1.742 . S
C521 C151 1.466 . S
C523 C329 1.465 . S
C541 C342 1.477 . S
C539 C121 1.420 . S
C557 C139 1.715 . S
C559 C327 1.690 . S
C577 C340 1.377 . S
C575 C164 1.326 . S
C593 C95 1.585 . S
C595 C356 1.647 . S
C611 C61 1.484 . S
C613 C355 1.505 . S
C629 C74 1.681 . S
C631 C354 1.610 . S
C647 C86 1.850 . S
C649 C357 1.805 . S
C665 C47 1.609 . S
C667 C259 1.604 1_565 S
C683 C186 1.349 . S
C685 C257 1.378 . S
C703 C217 1.480 1_545 S
C701 C204 1.503 . S
C721 C228 1.925 . S
C719 C112 1.936 . S
C737 C60 1.459 1_545 S
C739 C273 1.464 . S
C757 C314 1.741 . S
C755 C152 1.728 . S
C775 C271 1.737 . S
C773 C126 1.749 . S
C793 C299 1.411 . S
C791 C160 1.271 . S
C811 C300 1.708 . S
C809 C190 1.718 . S
C827 C199 1.536 . S
C829 C315 1.494 . S
C845 C113 1.927 . S
C847 C272 1.903 . S
C865 C286 1.473 . S
C863 C173 1.400 . S
C881 C43 1.579 . S
C883 C242 1.459 . S
C901 C256 1.476 . S
C899 C9 1.480 . S
C919 C214 1.433 . S
C917 C17 1.436 . S
C937 C229 1.687 . S
C935 C34 1.742 . S
C953 C21 1.466 . S
C955 C343 1.465 . S
C971 C30 1.420 . S
C973 C328 1.477 . S
C989 C48 1.715 . S
C991 C341 1.690 . S
C1007 C8 1.326 . S
C1009 C326 1.377 . S
C1027 C370 1.647 . S
C1025 C108 1.585 . S
C1045 C369 1.504 . S
C1043 C178 1.484 . S
C1063 C368 1.611 . S
C1061 C191 1.681 . S
C1079 C203 1.850 1_554 S
C1081 C371 1.805 . S
C1097 C138 1.609 . S
C1099 C287 1.604 . S
C1117 C285 1.378 . S
C1115 C69 1.349 . S
C1135 C301 1.480 . S
C1133 C87 1.503 . S
C1153 C312 1.925 . S
C1151 C99 1.937 . S
C1169 C177 1.459 . S
C1171 C245 1.464 . S
C1189 C230 1.741 . S
C1187 C22 1.728 . S
C1205 C35 1.749 . S
C1207 C243 1.737 . S
C1225 C215 1.411 1_545 S
C1223 C4 1.271 . S
