# Generated by pormake.
# Topology tsx, (6,3)-cn, num edge types: 1
# Building blocks:
#     Node 0, Type 0, BuildingBlock: LEVNOQ01_clean_sbu_1, # of connection points: 6
#     Node 1, Type 0, BuildingBlock: LEVNOQ01_clean_sbu_1, # of connection points: 6
#     Node 2, Type 1, BuildingBlock: MIDCAF_clean_linker_0, # of connection points: 3
#     Node 3, Type 1, BuildingBlock: MIDCAF_clean_linker_0, # of connection points: 3
#     Node 4, Type 1, BuildingBlock: MIDCAF_clean_linker_0, # of connection points: 3
#     Node 5, Type 1, BuildingBlock: MIDCAF_clean_linker_0, # of connection points: 3
#     Edge 6, Type (0, 1), BuildingBlock: OJICUG_clean_linker_0, # of connection points: 2
#     Edge 7, Type (0, 1), BuildingBlock: OJICUG_clean_linker_0, # of connection points: 2
#     Edge 8, Type (0, 1), BuildingBlock: OJICUG_clean_linker_0, # of connection points: 2
#     Edge 9, Type (0, 1), BuildingBlock: OJICUG_clean_linker_0, # of connection points: 2
#     Edge 10, Type (0, 1), BuildingBlock: OJICUG_clean_linker_0, # of connection points: 2
#     Edge 11, Type (0, 1), BuildingBlock: OJICUG_clean_linker_0, # of connection points: 2
#     Edge 12, Type (0, 1), BuildingBlock: OJICUG_clean_linker_0, # of connection points: 2
#     Edge 13, Type (0, 1), BuildingBlock: OJICUG_clean_linker_0, # of connection points: 2
#     Edge 14, Type (0, 1), BuildingBlock: OJICUG_clean_linker_0, # of connection points: 2
#     Edge 15, Type (0, 1), BuildingBlock: OJICUG_clean_linker_0, # of connection points: 2
#     Edge 16, Type (0, 1), BuildingBlock: OJICUG_clean_linker_0, # of connection points: 2
#     Edge 17, Type (0, 1), BuildingBlock: OJICUG_clean_linker_0, # of connection points: 2
# Relax obj value: 0.132
# Max RMSD: 0.158
# Mean RMSD: 0.121
data_MOF--net-tsx--node1-LEVNOQ01_clean_sbu_1--node2-MIDCAF_clean_linker_0--edge1-OJICUG_clean_linker_0
_symmetry_space_group_name_H-M    P1
_symmetry_Int_Tables_number       1
_symmetry_cell_setting            triclinic
loop_
_symmetry_equiv_pos_as_xyz
'x, y, z'
_cell_length_a     17.22046
_cell_length_b     21.336195
_cell_length_c     35.251365
_cell_angle_alpha  97.502435
_cell_angle_beta   90.595715
_cell_angle_gamma 91.036484
loop_
_atom_site_label
_atom_site_type_symbol
_atom_site_fract_x
_atom_site_fract_y
_atom_site_fract_z
_atom_type_partial_charge
O0 O 0.15017 0.06445 0.08901 0.0
Mg1 Mg 0.19639 0.04164 0.03528 0.0
O2 O 0.04829 0.01464 0.06066 0.0
Mg3 Mg 0.05295 0.02137 -0.0057 0.0
O4 O 0.15841 0.09379 -0.00555 0.0
O5 O 0.27784 0.10264 0.02158 0.0
O6 O 0.05049 0.02457 0.92885 0.0
O7 O 0.98632 0.11838 0.0033 0.0
Mg8 Mg 0.90135 0.02662 0.9783 0.0
O9 O 0.94991 0.94525 -0.00844 0.0
O10 O 0.92866 0.05262 0.92398 0.0
O11 O 0.87024 0.0979 0.02263 0.0
O12 O 0.82629 0.95281 0.9714 0.0
C13 C 0.18697 0.90975 -0.0009 0.0
C14 C 0.08646 0.03512 0.09112 0.0
C15 C 0.22583 0.12274 -0.0003 0.0
C16 C 0.99456 0.04233 0.90904 0.0
C17 C 0.92191 0.13822 0.01725 0.0
C18 C 0.88135 0.9199 0.98335 0.0
O19 O 0.22697 0.94748 0.02234 0.0
O20 O 0.12543 0.92815 0.98372 0.0
O21 O 0.66789 0.56317 0.58619 0.0
Mg22 Mg 0.71785 0.55056 0.53202 0.0
O23 O 0.55217 0.52896 0.56336 0.0
Mg24 Mg 0.54978 0.52536 0.49669 0.0
O25 O 0.6547 0.59307 0.4942 0.0
O26 O 0.77675 0.62199 0.51126 0.0
O27 O 0.5479 0.51957 0.43079 0.0
O28 O 0.4842 0.62312 0.50196 0.0
Mg29 Mg 0.39848 0.52995 0.47995 0.0
O30 O 0.44558 0.45086 0.49763 0.0
O31 O 0.42932 0.55432 0.42528 0.0
O32 O 0.36844 0.60421 0.52252 0.0
O33 O 0.32341 0.45561 0.47462 0.0
C34 C 0.69138 0.41658 0.49888 0.0
C35 C 0.59913 0.5443 0.59151 0.0
C36 C 0.71377 0.6313 0.49276 0.0
C37 C 0.4946 0.54012 0.41069 0.0
C38 C 0.42019 0.64378 0.51601 0.0
C39 C 0.37712 0.42509 0.48965 0.0
O40 O 0.7421 0.45706 0.51269 0.0
O41 O 0.6223 0.43251 0.49129 0.0
C42 C 0.8453 0.16632 0.42407 0.0
C43 C 0.8281 0.17596 0.46311 0.0
C44 C 0.86589 0.13951 0.48796 0.0
C45 C 0.92045 0.0948 0.47385 0.0
H46 H 0.07973 0.91509 0.48586 0.0
H47 H 0.16946 0.84861 0.51441 0.0
H48 H 0.34589 0.89281 0.4347 0.0
H49 H 0.25213 0.95437 0.40408 0.0
H50 H 0.11875 0.89415 0.31095 0.0
H51 H 0.11625 0.88644 0.24088 0.0
H52 H 0.94344 0.03162 0.24719 0.0
H53 H 0.94399 0.03823 0.31562 0.0
H54 H 0.91134 0.11704 0.37984 0.0
H55 H 0.81957 0.1951 0.40431 0.0
H56 H 0.85424 0.14627 0.51834 0.0
H57 H 0.94909 0.06834 0.49354 0.0
N58 N 0.04807 0.01112 0.43877 0.0
N59 N 0.09489 0.95424 0.38173 0.0
N60 N 0.98927 0.0205 0.37984 0.0
C61 C 0.09928 0.96943 0.42056 0.0
C62 C 0.03898 0.97963 0.3613 0.0
C63 C 0.99292 0.03718 0.418 0.0
C64 C 0.15844 0.93911 0.4424 0.0
C65 C 0.13789 0.91118 0.4748 0.0
C66 C 0.19031 0.8731 0.49142 0.0
C67 C 0.26573 0.86348 0.47672 0.0
C68 C 0.28789 0.89629 0.44616 0.0
C69 C 0.23442 0.93246 0.42874 0.0
C70 C 0.03291 0.96759 0.31906 0.0
C71 C 0.0794 0.92348 0.29721 0.0
C72 C 0.07767 0.91895 0.25718 0.0
C73 C 0.02985 0.95872 0.23855 0.0
C74 C 0.9799 -0.00048 0.26042 0.0
C75 C 0.98126 0.00381 0.30002 0.0
C76 C 0.93758 0.08521 0.43476 0.0
C77 C 0.89907 0.12173 0.41013 0.0
C78 C 0.78945 0.89526 0.53825 0.0
C79 C 0.79851 0.87532 0.49888 0.0
C80 C 0.85908 0.90277 0.47981 0.0
C81 C 0.91344 0.94382 0.50027 0.0
H82 H 0.07669 0.10983 0.49963 0.0
H83 H 0.16201 0.18937 0.47831 0.0
H84 H 0.31567 0.1765 0.57474 0.0
H85 H 0.22752 0.09925 0.59695 0.0
H86 H 0.1176 0.10641 0.67641 0.0
H87 H 0.11257 0.11294 0.74605 0.0
H88 H 0.93064 0.96964 0.73548 0.0
H89 H 0.93491 0.96304 0.66612 0.0
H90 H 0.83565 0.94902 0.58901 0.0
H91 H 0.7444 0.87501 0.55435 0.0
H92 H 0.86739 0.88963 0.44942 0.0
H93 H 0.96176 0.96045 0.48507 0.0
N94 N 0.02784 0.02763 0.54594 0.0
N95 N 0.08417 0.06191 0.60621 0.0
N96 N 0.97109 -0.00108 0.60156 0.0
C97 C 0.08491 0.06047 0.5676 0.0
C98 C 0.02768 0.03121 0.62341 0.0
C99 C 0.97042 -0.00327 0.56289 0.0
C100 C 0.14418 0.09903 0.55037 0.0
C101 C 0.12912 0.12315 0.51592 0.0
C102 C 0.17877 0.16881 0.50359 0.0
C103 C 0.24562 0.19067 0.52512 0.0
C104 C 0.26369 0.16257 0.55799 0.0
C105 C 0.21332 0.11778 0.5706 0.0
C106 C 0.02649 0.03427 0.6656 0.0
C107 C 0.0768 0.07598 0.68889 0.0
C108 C 0.07418 0.07971 0.72875 0.0
C109 C 0.02107 0.042 0.74605 0.0
C110 C 0.97141 -8e-05 0.72284 0.0
C111 C 0.97407 -0.00394 0.68308 0.0
C112 C 0.90776 0.9599 0.54003 0.0
C113 C 0.84311 0.9371 0.55847 0.0
C114 C 0.30636 0.61943 0.93826 0.0
C115 C 0.33214 0.66852 0.96623 0.0
C116 C 0.4065 0.66481 0.98283 0.0
C117 C 0.45574 0.61542 0.96977 0.0
H118 H 0.58149 0.41034 0.98546 0.0
H119 H 0.67112 0.34398 0.01418 0.0
H120 H 0.84435 0.38104 0.93115 0.0
H121 H 0.75049 0.44248 0.90048 0.0
H122 H 0.63018 0.40593 0.8104 0.0
H123 H 0.63518 0.41023 0.74156 0.0
H124 H 0.43304 0.52782 0.74873 0.0
H125 H 0.42639 0.52246 0.81677 0.0
H126 H 0.33549 0.53483 0.90223 0.0
H127 H 0.24886 0.61994 0.92558 0.0
H128 H 0.42866 0.70202 0.00424 0.0
H129 H 0.5142 0.616 0.98122 0.0
N130 N 0.547 0.50106 0.93909 0.0
N131 N 0.59302 0.44946 0.88079 0.0
N132 N 0.48196 0.5112 0.88167 0.0
C133 C 0.59908 0.46229 0.91959 0.0
C134 C 0.53412 0.47391 0.86168 0.0
C135 C 0.48782 0.52519 0.9201 0.0
C136 C 0.65866 0.43085 0.94047 0.0
C137 C 0.63905 0.4048 0.97369 0.0
C138 C 0.69135 0.36681 -0.00961 0.0
C139 C 0.7658 0.35535 0.97495 0.0
C140 C 0.78703 0.38598 0.94329 0.0
C141 C 0.73356 0.42206 0.9258 0.0
C142 C 0.5294 0.46538 0.81936 0.0
C143 C 0.58587 0.43156 0.79718 0.0
C144 C 0.58874 0.43405 0.75779 0.0
C145 C 0.53544 0.47054 0.74002 0.0
C146 C 0.47481 0.49931 0.76156 0.0
C147 C 0.47169 0.49665 0.80079 0.0
C148 C 0.43177 0.56921 0.9398 0.0
C149 C 0.35578 0.57049 0.92508 0.0
C150 C 0.29049 0.40439 0.03955 0.0
C151 C 0.31417 0.37651 0.00326 0.0
C152 C 0.37656 0.40421 0.98573 0.0
C153 C 0.419 0.45464 0.00571 0.0
H154 H 0.63243 0.56497 0.00217 0.0
H155 H 0.73205 0.62964 0.97525 0.0
H156 H 0.74267 0.7554 0.08174 0.0
H157 H 0.64359 0.69239 0.10802 0.0
H158 H 0.57119 0.64785 0.18286 0.0
H159 H 0.57754 0.64557 0.25212 0.0
H160 H 0.4575 0.46479 0.23789 0.0
H161 H 0.44914 0.46719 0.16869 0.0
H162 H 0.31684 0.47218 0.08846 0.0
H163 H 0.24294 0.38393 0.05398 0.0
H164 H 0.39602 0.38396 0.95773 0.0
H165 H 0.4699 0.47199 -0.00714 0.0
N166 N 0.51356 0.55243 0.05112 0.0
N167 N 0.56339 0.59068 0.11209 0.0
N168 N 0.45434 0.52304 0.10611 0.0
C169 C 0.567 0.58809 0.07353 0.0
C170 C 0.50785 0.55806 0.12857 0.0
C171 C 0.45617 0.52047 0.06739 0.0
C172 C 0.6292 0.62424 0.05693 0.0
C173 C 0.65608 0.60659 0.01961 0.0
C174 C 0.71362 0.64306 0.00442 0.0
C175 C 0.74585 0.69714 0.02659 0.0
C176 C 0.72059 0.71318 0.06426 0.0
C177 C 0.66306 0.67729 0.0792 0.0
C178 C 0.50927 0.5578 0.17041 0.0
C179 C 0.54605 0.60762 0.19448 0.0
C180 C 0.55003 0.60636 0.23395 0.0
C181 C 0.51885 0.55468 0.2498 0.0
C182 C 0.48264 0.5047 0.22593 0.0
C183 C 0.47722 0.50647 0.18653 0.0
C184 C 0.4007 0.47798 0.04349 0.0
C185 C 0.33355 0.4545 0.05955 0.0
C186 C 0.18479 0.23048 0.98888 0.0
C187 C 0.24157 0.18373 0.98575 0.0
H188 H 0.16353 0.33018 -0.00324 0.0
C189 C 0.31884 0.20073 0.97905 0.0
H190 H 0.12481 0.21849 -0.00582 0.0
C191 C 0.34079 0.2641 0.98022 0.0
C192 C 0.28593 0.31172 0.98856 0.0
H193 H 0.36366 0.16546 0.97654 0.0
H194 H 0.40208 0.2758 0.97873 0.0
C195 C 0.20701 0.29433 -0.00936 0.0
C196 C 0.20861 0.81066 0.95429 0.0
C197 C 0.21301 0.84409 -0.00881 0.0
H198 H 0.24475 0.72936 0.91717 0.0
C199 C 0.24951 0.81653 0.02062 0.0
H200 H 0.18113 0.8312 0.93116 0.0
C201 C 0.2846 0.75797 0.01296 0.0
C202 C 0.28493 0.72602 0.97555 0.0
H203 H 0.25251 0.8411 0.04953 0.0
H204 H 0.31324 0.73852 0.03618 0.0
C205 C 0.24487 0.75228 0.94644 0.0
C206 C 0.80727 0.81945 0.96516 0.0
C207 C 0.86351 0.85398 0.98882 0.0
H208 H 0.72714 0.74103 0.95817 0.0
C209 C 0.89289 0.82857 0.02064 0.0
H210 H 0.78473 0.83769 0.94004 0.0
C211 C 0.85958 0.77317 0.03116 0.0
C212 C 0.79725 0.7423 0.0097 0.0
H213 H 0.93663 0.8542 0.03916 0.0
H214 H 0.87868 0.75699 0.05754 0.0
C215 C 0.7748 0.76377 0.97534 0.0
C216 C 0.84777 0.2371 0.03694 0.0
C217 C 0.89646 0.20174 0.01105 0.0
H218 H 0.77312 0.31619 0.04731 0.0
C219 C 0.90913 0.22152 0.97519 0.0
H220 H 0.83692 0.22253 0.06475 0.0
C221 C 0.86922 0.27262 0.96414 0.0
C222 C 0.8173 0.30703 0.98918 0.0
H223 H 0.94506 0.19421 0.95429 0.0
H224 H 0.87598 0.28202 0.93495 0.0
C225 C 0.81007 0.29013 0.02647 0.0
C226 C 0.77513 0.70709 0.45537 0.0
C227 C 0.70964 0.68974 0.47515 0.0
H228 H 0.85523 0.78075 0.44715 0.0
C229 C 0.65921 0.73683 0.4908 0.0
H230 H 0.81441 0.67129 0.44275 0.0
C231 C 0.68258 0.8005 0.49351 0.0
C232 C 0.75658 0.81706 0.48072 0.0
H233 H 0.60787 0.72447 0.50595 0.0
H234 H 0.64708 0.83566 0.50966 0.0
C235 C 0.79862 0.77037 0.45812 0.0
C236 C 0.68195 0.30603 0.46458 0.0
C237 C 0.71407 0.34998 0.49378 0.0
H238 H 0.69229 0.21428 0.43236 0.0
C239 C 0.77359 0.33128 0.51723 0.0
H240 H 0.63518 0.31908 0.44656 0.0
C241 C 0.8059 0.27189 0.50936 0.0
C242 C 0.77951 0.23005 0.47772 0.0
H243 H 0.79793 0.36382 0.54071 0.0
H244 H 0.85557 0.26096 0.52624 0.0
C245 C 0.71469 0.24632 0.45653 0.0
C246 C 0.35721 0.34785 0.53587 0.0
C247 C 0.35857 0.36087 0.49799 0.0
H248 H 0.31834 0.285 0.57438 0.0
C249 C 0.33059 0.31512 0.46862 0.0
H250 H 0.37741 0.3831 0.55897 0.0
C251 C 0.29864 0.25796 0.47712 0.0
C252 C 0.29178 0.24626 0.51535 0.0
H253 H 0.33128 0.32445 0.43913 0.0
H254 H 0.27697 0.22396 0.45375 0.0
C255 C 0.32345 0.29137 0.54455 0.0
C256 C 0.3463 0.74213 0.53676 0.0
C257 C 0.3957 0.70795 0.51067 0.0
H258 H 0.27114 0.82072 0.548 0.0
C259 C 0.40995 0.72986 0.47554 0.0
H260 H 0.33446 0.72604 0.56406 0.0
C261 C 0.37045 0.78179 0.46525 0.0
C262 C 0.31736 0.81472 0.49038 0.0
H263 H 0.44668 0.70361 0.45455 0.0
H264 H 0.37833 0.79298 0.43649 0.0
C265 C 0.30894 0.7958 0.52709 0.0
C266 C 0.13077 -0.0046 0.15019 0.0
C267 C 0.0686 0.01122 0.12737 0.0
H268 H 0.16704 0.96457 0.20247 0.0
C269 C 0.99221 0.00093 0.13885 0.0
H270 H 0.19035 0.0008 0.14137 0.0
C271 C 0.97868 0.9795 0.17417 0.0
C272 C 0.04145 0.967 0.19794 0.0
H273 H 0.94341 0.01148 0.12126 0.0
H274 H 0.91937 0.97469 0.18348 0.0
C275 C 0.11741 0.97319 0.18488 0.0
C276 C 0.07678 0.04495 0.8507 0.0
C277 C 0.00342 0.04705 0.86787 0.0
H278 H 0.14 0.04228 0.79836 0.0
C279 C 0.93686 0.0512 0.84494 0.0
H280 H 0.12908 0.04223 0.86769 0.0
C281 C 0.94308 0.05074 0.80558 0.0
C282 C 0.01601 0.0468 0.78819 0.0
H283 H 0.8794 0.05314 0.85722 0.0
H284 H 0.89059 0.05296 0.78862 0.0
C285 C 0.08304 0.04527 0.81115 0.0
C286 C 0.6396 0.52697 0.65713 0.0
C287 C 0.57947 0.52923 0.63006 0.0
H288 H 0.67283 0.50551 0.71229 0.0
C289 C 0.50394 0.51033 0.63902 0.0
H290 H 0.69877 0.54032 0.65115 0.0
C291 C 0.48916 0.48986 0.6745 0.0
C292 C 0.54996 0.48696 0.70118 0.0
H293 H 0.4566 0.51087 0.61859 0.0
H294 H 0.43048 0.47594 0.68098 0.0
C295 C 0.62511 0.5058 0.69204 0.0
C296 C 0.55905 0.50837 0.34785 0.0
C297 C 0.50718 0.54719 0.37018 0.0
H298 H 0.6024 0.47976 0.29136 0.0
C299 C 0.46384 0.59136 0.35303 0.0
H300 H 0.59318 0.47404 0.36043 0.0
C301 C 0.47034 0.59538 0.31404 0.0
C302 C 0.5192 0.55457 0.29147 0.0
H303 H 0.42409 0.62236 0.36969 0.0
H304 H 0.43523 0.62887 0.30123 0.0
C305 C 0.56425 0.51149 0.30854 0.0
loop_
_geom_bond_atom_site_label_1
_geom_bond_atom_site_label_2
_geom_bond_distance
_geom_bond_site_symmetry_2
_ccdc_geom_bond_type
O0 Mg1 1.990 . S
O0 C14 1.253 . S
Mg1 O0 1.990 . S
Mg1 O4 2.180 . S
Mg1 O5 2.117 . S
Mg1 O19 2.030 1_545 S
O2 Mg3 2.072 1_554 S
O2 C14 1.260 . S
Mg3 O2 2.072 1_556 S
Mg3 O4 2.099 1_556 S
Mg3 O6 2.079 . S
Mg3 O7 2.072 1_456 S
Mg3 O9 2.099 1_445 S
Mg3 O20 2.079 1_545 S
O4 Mg1 2.180 . S
O4 Mg3 2.099 1_554 S
O4 C15 1.279 . S
O5 Mg1 2.117 . S
O5 C15 1.250 . S
O6 Mg3 2.079 . S
O6 C16 1.264 . S
O7 Mg3 2.072 1_654 S
O7 C17 1.260 1_554 S
Mg8 O9 2.180 1_545 S
Mg8 O10 2.030 . S
Mg8 O11 1.990 . S
Mg8 O12 2.117 1_545 S
O9 Mg3 2.099 1_665 S
O9 Mg8 2.180 1_565 S
O9 C18 1.282 . S
O10 Mg8 2.030 . S
O10 C16 1.248 1_655 S
O11 Mg8 1.990 . S
O11 C17 1.253 . S
O12 Mg8 2.117 1_565 S
O12 C18 1.252 . S
C13 O19 1.248 . S
C13 O20 1.264 1_554 S
C14 O0 1.253 . S
C14 O2 1.260 . S
C15 O4 1.279 . S
C15 O5 1.250 . S
C16 O6 1.264 . S
C16 O10 1.248 1_455 S
C17 O7 1.260 1_556 S
C17 O11 1.253 . S
C18 O9 1.282 . S
C18 O12 1.252 . S
O19 Mg1 2.030 1_565 S
O19 C13 1.248 . S
O20 Mg3 2.079 1_565 S
O20 C13 1.264 1_556 S
O21 Mg22 1.990 . S
O21 C35 1.253 . S
Mg22 O21 1.990 . S
Mg22 O25 2.180 . S
Mg22 O26 2.117 . S
Mg22 O40 2.030 . S
O23 Mg24 2.072 . S
O23 C35 1.260 . S
Mg24 O23 2.072 . S
Mg24 O25 2.099 . S
Mg24 O27 2.079 . S
Mg24 O28 2.072 . S
Mg24 O30 2.099 . S
Mg24 O41 2.079 . S
O25 Mg22 2.180 . S
O25 Mg24 2.099 . S
O25 C36 1.279 . S
O26 Mg22 2.117 . S
O26 C36 1.250 . S
O27 Mg24 2.079 . S
O27 C37 1.264 . S
O28 Mg24 2.072 . S
O28 C38 1.260 . S
Mg29 O30 2.180 . S
Mg29 O31 2.030 . S
Mg29 O32 1.990 . S
Mg29 O33 2.117 . S
O30 Mg24 2.099 . S
O30 Mg29 2.180 . S
O30 C39 1.279 . S
O31 Mg29 2.030 . S
O31 C37 1.248 . S
O32 Mg29 1.990 . S
O32 C38 1.253 . S
O33 Mg29 2.117 . S
O33 C39 1.250 . S
C34 O40 1.248 . S
C34 O41 1.264 . S
C35 O21 1.253 . S
C35 O23 1.260 . S
C36 O25 1.279 . S
C36 O26 1.250 . S
C37 O27 1.264 . S
C37 O31 1.248 . S
C38 O28 1.260 . S
C38 O32 1.253 . S
C39 O30 1.279 . S
C39 O33 1.250 . S
O40 Mg22 2.030 . S
O40 C34 1.248 . S
O41 Mg24 2.079 . S
O41 C34 1.264 . S
C42 C43 1.384 . S
C42 H55 0.947 . S
C42 C77 1.382 . S
C43 C42 1.384 . S
C43 C44 1.378 . S
C44 C43 1.378 . S
C44 C45 1.378 . S
C44 H56 0.952 . S
C45 C44 1.378 . S
C45 H57 0.950 1_655 S
C45 C76 1.383 . S
H46 C65 0.947 . S
H47 C66 0.946 . S
H48 C68 0.953 . S
H49 C69 0.945 . S
H50 C71 0.952 . S
H51 C72 0.949 . S
H52 C74 0.950 . S
H53 C75 0.948 . S
H54 C77 0.951 . S
H55 C42 0.947 . S
H56 C44 0.952 . S
H57 C45 0.950 1_455 S
N58 C61 1.382 1_545 S
N58 C63 1.363 . S
N59 C61 1.371 . S
N59 C62 1.372 1_565 S
N60 C62 1.361 . S
N60 C63 1.377 . S
C61 N58 1.382 1_565 S
C61 N59 1.371 . S
C61 C64 1.480 . S
C62 N59 1.372 1_545 S
C62 N60 1.361 . S
C62 C70 1.457 . S
C63 N58 1.363 . S
C63 N60 1.377 . S
C63 C76 1.479 1_455 S
C64 C61 1.480 . S
C64 C65 1.383 . S
C64 C69 1.385 . S
C65 H46 0.947 . S
C65 C64 1.383 . S
C65 C66 1.388 . S
C66 H47 0.946 . S
C66 C65 1.388 . S
C66 C67 1.384 . S
C67 C66 1.384 . S
C67 C68 1.377 . S
C68 H48 0.953 . S
C68 C67 1.377 . S
C68 C69 1.369 . S
C69 H49 0.945 . S
C69 C64 1.385 . S
C69 C68 1.369 . S
C70 C62 1.457 . S
C70 C71 1.372 1_545 S
C70 C75 1.364 . S
C71 H50 0.952 . S
C71 C70 1.372 1_565 S
C71 C72 1.389 . S
C72 H51 0.949 . S
C72 C71 1.389 . S
C72 C73 1.387 . S
C73 C72 1.387 . S
C73 C74 1.372 1_565 S
C74 H52 0.950 . S
C74 C73 1.372 1_545 S
C74 C75 1.379 . S
C75 H53 0.948 . S
C75 C70 1.364 . S
C75 C74 1.379 . S
C76 C45 1.383 . S
C76 C63 1.479 1_655 S
C76 C77 1.398 . S
C77 C42 1.382 . S
C77 H54 0.951 . S
C77 C76 1.398 . S
C78 C79 1.384 . S
C78 H91 0.947 . S
C78 C113 1.382 . S
C79 C78 1.384 . S
C79 C80 1.378 . S
C80 C79 1.378 . S
C80 C81 1.378 . S
C80 H92 0.952 . S
C81 C80 1.378 . S
C81 H93 0.950 . S
C81 C112 1.383 . S
H82 C101 0.947 . S
H83 C102 0.946 . S
H84 C104 0.953 . S
H85 C105 0.945 . S
H86 C107 0.952 . S
H87 C108 0.949 . S
H88 C110 0.950 . S
H89 C111 0.948 1_565 S
H90 C113 0.951 . S
H91 C78 0.947 . S
H92 C80 0.952 . S
H93 C81 0.950 . S
N94 C97 1.382 . S
N94 C99 1.363 1_455 S
N95 C97 1.371 . S
N95 C98 1.372 . S
N96 C98 1.361 1_655 S
N96 C99 1.377 . S
C97 N94 1.382 . S
C97 N95 1.371 . S
C97 C100 1.480 . S
C98 N95 1.372 . S
C98 N96 1.361 1_455 S
C98 C106 1.457 . S
C99 N94 1.363 1_655 S
C99 N96 1.377 . S
C99 C112 1.479 1_545 S
C100 C97 1.480 . S
C100 C101 1.383 . S
C100 C105 1.385 . S
C101 H82 0.947 . S
C101 C100 1.383 . S
C101 C102 1.388 . S
C102 H83 0.946 . S
C102 C101 1.388 . S
C102 C103 1.384 . S
C103 C102 1.384 . S
C103 C104 1.377 . S
C104 H84 0.953 . S
C104 C103 1.377 . S
C104 C105 1.369 . S
C105 H85 0.945 . S
C105 C100 1.385 . S
C105 C104 1.369 . S
C106 C98 1.457 . S
C106 C107 1.372 . S
C106 C111 1.364 1_455 S
C107 H86 0.952 . S
C107 C106 1.372 . S
C107 C108 1.389 . S
C108 H87 0.949 . S
C108 C107 1.389 . S
C108 C109 1.387 . S
C109 C108 1.387 . S
C109 C110 1.372 1_455 S
C110 H88 0.950 . S
C110 C109 1.372 1_655 S
C110 C111 1.379 . S
C111 H89 0.948 1_545 S
C111 C106 1.364 1_655 S
C111 C110 1.379 . S
C112 C81 1.383 . S
C112 C99 1.479 1_565 S
C112 C113 1.398 . S
C113 C78 1.382 . S
C113 H90 0.951 . S
C113 C112 1.398 . S
C114 C115 1.375 1_556 S
C114 H127 0.947 . S
C114 C149 1.382 . S
C115 C114 1.375 1_554 S
C115 C116 1.383 . S
C116 C115 1.383 . S
C116 C117 1.378 1_554 S
C116 H128 0.952 . S
C117 C116 1.378 1_556 S
C117 H129 0.950 1_556 S
C117 C148 1.383 . S
H118 C137 0.947 1_554 S
H119 C138 0.946 . S
H120 C140 0.953 . S
H121 C141 0.945 . S
H122 C143 0.952 . S
H123 C144 0.949 . S
H124 C146 0.950 . S
H125 C147 0.948 . S
H126 C149 0.951 . S
H127 C114 0.947 . S
H128 C116 0.952 . S
H129 C117 0.950 1_554 S
N130 C133 1.382 . S
N130 C135 1.363 . S
N131 C133 1.371 . S
N131 C134 1.372 . S
N132 C134 1.361 . S
N132 C135 1.377 . S
C133 N130 1.382 . S
C133 N131 1.371 . S
C133 C136 1.480 . S
C134 N131 1.372 . S
C134 N132 1.361 . S
C134 C142 1.457 . S
C135 N130 1.363 . S
C135 N132 1.377 . S
C135 C148 1.479 . S
C136 C133 1.480 . S
C136 C137 1.383 . S
C136 C141 1.385 . S
C137 H118 0.947 1_556 S
C137 C136 1.383 . S
C137 C138 1.388 1_556 S
C138 H119 0.946 . S
C138 C137 1.388 1_554 S
C138 C139 1.384 1_554 S
C139 C138 1.384 1_556 S
C139 C140 1.377 . S
C140 H120 0.953 . S
C140 C139 1.377 . S
C140 C141 1.369 . S
C141 H121 0.945 . S
C141 C136 1.385 . S
C141 C140 1.369 . S
C142 C134 1.457 . S
C142 C143 1.372 . S
C142 C147 1.364 . S
C143 H122 0.952 . S
C143 C142 1.372 . S
C143 C144 1.389 . S
C144 H123 0.949 . S
C144 C143 1.389 . S
C144 C145 1.387 . S
C145 C144 1.387 . S
C145 C146 1.372 . S
C146 H124 0.950 . S
C146 C145 1.372 . S
C146 C147 1.379 . S
C147 H125 0.948 . S
C147 C142 1.364 . S
C147 C146 1.379 . S
C148 C117 1.383 . S
C148 C135 1.479 . S
C148 C149 1.398 . S
C149 C114 1.382 . S
C149 H126 0.951 . S
C149 C148 1.398 . S
C150 C151 1.384 . S
C150 H163 0.947 . S
C150 C185 1.382 . S
C151 C150 1.384 . S
C151 C152 1.378 1_554 S
C152 C151 1.378 1_556 S
C152 C153 1.378 1_556 S
C152 H164 0.952 . S
C153 C152 1.378 1_554 S
C153 H165 0.950 1_554 S
C153 C184 1.383 . S
H154 C173 0.947 . S
H155 C174 0.946 1_556 S
H156 C176 0.953 . S
H157 C177 0.945 . S
H158 C179 0.952 . S
H159 C180 0.949 . S
H160 C182 0.950 . S
H161 C183 0.948 . S
H162 C185 0.951 . S
H163 C150 0.947 . S
H164 C152 0.952 . S
H165 C153 0.950 1_556 S
N166 C169 1.382 . S
N166 C171 1.363 . S
N167 C169 1.371 . S
N167 C170 1.372 . S
N168 C170 1.361 . S
N168 C171 1.377 . S
C169 N166 1.382 . S
C169 N167 1.371 . S
C169 C172 1.480 . S
C170 N167 1.372 . S
C170 N168 1.361 . S
C170 C178 1.457 . S
C171 N166 1.363 . S
C171 N168 1.377 . S
C171 C184 1.479 . S
C172 C169 1.480 . S
C172 C173 1.383 . S
C172 C177 1.385 . S
C173 H154 0.947 . S
C173 C172 1.383 . S
C173 C174 1.388 . S
C174 H155 0.946 1_554 S
C174 C173 1.388 . S
C174 C175 1.384 . S
C175 C174 1.384 . S
C175 C176 1.377 . S
C176 H156 0.953 . S
C176 C175 1.377 . S
C176 C177 1.369 . S
C177 H157 0.945 . S
C177 C172 1.385 . S
C177 C176 1.369 . S
C178 C170 1.457 . S
C178 C179 1.372 . S
C178 C183 1.364 . S
C179 H158 0.952 . S
C179 C178 1.372 . S
C179 C180 1.389 . S
C180 H159 0.949 . S
C180 C179 1.389 . S
C180 C181 1.387 . S
C181 C180 1.387 . S
C181 C182 1.372 . S
C182 H160 0.950 . S
C182 C181 1.372 . S
C182 C183 1.379 . S
C183 H161 0.948 . S
C183 C178 1.364 . S
C183 C182 1.379 . S
C184 C153 1.383 . S
C184 C171 1.479 . S
C184 C185 1.398 . S
C185 C150 1.382 . S
C185 H162 0.951 . S
C185 C184 1.398 . S
C186 C187 1.387 1_556 S
C186 H190 0.950 . S
C186 C195 1.390 . S
C187 C186 1.387 1_554 S
C187 C189 1.387 . S
H188 C195 0.950 . S
C189 C187 1.387 . S
C189 C191 1.390 . S
C189 H193 0.950 . S
H190 C186 0.950 . S
C191 C189 1.390 . S
C191 C192 1.392 . S
C191 H194 0.950 . S
C192 C191 1.392 . S
C192 C195 1.384 1_554 S
H193 C189 0.950 . S
H194 C191 0.950 . S
C195 C186 1.390 . S
C195 H188 0.950 . S
C195 C192 1.384 1_556 S
C196 C197 1.387 1_556 S
C196 H200 0.950 . S
C196 C205 1.390 . S
C197 C196 1.387 1_554 S
C197 C199 1.387 . S
H198 C205 0.950 . S
C199 C197 1.387 . S
C199 C201 1.390 . S
C199 H203 0.950 . S
H200 C196 0.950 . S
C201 C199 1.390 . S
C201 C202 1.387 . S
C201 H204 0.950 . S
C202 C201 1.387 . S
C202 C205 1.387 1_554 S
H203 C199 0.950 . S
H204 C201 0.950 . S
C205 C196 1.390 . S
C205 H198 0.950 . S
C205 C202 1.387 1_556 S
C206 C207 1.387 1_556 S
C206 H210 0.950 . S
C206 C215 1.390 . S
C207 C206 1.387 1_554 S
C207 C209 1.387 . S
H208 C215 0.950 . S
C209 C207 1.387 . S
C209 C211 1.390 . S
C209 H213 0.950 . S
H210 C206 0.950 . S
C211 C209 1.390 . S
C211 C212 1.387 . S
C211 H214 0.950 . S
C212 C211 1.387 . S
C212 C215 1.387 1_554 S
H213 C209 0.950 . S
H214 C211 0.950 . S
C215 C206 1.390 . S
C215 H208 0.950 . S
C215 C212 1.387 1_556 S
C216 C217 1.365 1_554 S
C216 H220 0.950 . S
C216 C225 1.390 . S
C217 C216 1.365 1_556 S
C217 C219 1.413 . S
H218 C225 0.950 . S
C219 C217 1.413 . S
C219 C221 1.390 . S
C219 H223 0.950 . S
H220 C216 0.950 . S
C221 C219 1.390 . S
C221 C222 1.387 . S
C221 H224 0.950 . S
C222 C221 1.387 . S
C222 C225 1.387 1_556 S
H223 C219 0.950 . S
H224 C221 0.950 . S
C225 C216 1.390 . S
C225 H218 0.950 . S
C225 C222 1.387 1_554 S
C226 C227 1.387 . S
C226 H230 0.950 . S
C226 C235 1.390 . S
C227 C226 1.387 . S
C227 C229 1.387 . S
H228 C235 0.950 . S
C229 C227 1.387 . S
C229 C231 1.390 . S
C229 H233 0.950 . S
H230 C226 0.950 . S
C231 C229 1.390 . S
C231 C232 1.387 . S
C231 H234 0.950 . S
C232 C231 1.387 . S
C232 C235 1.387 . S
H233 C229 0.950 . S
H234 C231 0.950 . S
C235 C226 1.390 . S
C235 H228 0.950 . S
C235 C232 1.387 . S
C236 C237 1.387 . S
C236 H240 0.950 . S
C236 C245 1.390 . S
C237 C236 1.387 . S
C237 C239 1.387 . S
H238 C245 0.950 . S
C239 C237 1.387 . S
C239 C241 1.390 . S
C239 H243 0.950 . S
H240 C236 0.950 . S
C241 C239 1.390 . S
C241 C242 1.387 . S
C241 H244 0.950 . S
C242 C241 1.387 . S
C242 C245 1.387 . S
H243 C239 0.950 . S
H244 C241 0.950 . S
C245 C236 1.390 . S
C245 H238 0.950 . S
C245 C242 1.387 . S
C246 C247 1.387 . S
C246 H250 0.950 . S
C246 C255 1.390 . S
C247 C246 1.387 . S
C247 C249 1.387 . S
H248 C255 0.950 . S
C249 C247 1.387 . S
C249 C251 1.390 . S
C249 H253 0.950 . S
H250 C246 0.950 . S
C251 C249 1.390 . S
C251 C252 1.387 . S
C251 H254 0.950 . S
C252 C251 1.387 . S
C252 C255 1.387 . S
H253 C249 0.950 . S
H254 C251 0.950 . S
C255 C246 1.390 . S
C255 H248 0.950 . S
C255 C252 1.387 . S
C256 C257 1.387 . S
C256 H260 0.950 . S
C256 C265 1.390 . S
C257 C256 1.387 . S
C257 C259 1.387 . S
H258 C265 0.950 . S
C259 C257 1.387 . S
C259 C261 1.390 . S
C259 H263 0.950 . S
H260 C256 0.950 . S
C261 C259 1.390 . S
C261 C262 1.387 . S
C261 H264 0.950 . S
C262 C261 1.387 . S
C262 C265 1.387 . S
H263 C259 0.950 . S
H264 C261 0.950 . S
C265 C256 1.390 . S
C265 H258 0.950 . S
C265 C262 1.387 . S
C266 C267 1.387 1_565 S
C266 H270 0.950 . S
C266 C275 1.390 . S
C267 C266 1.387 1_545 S
C267 C269 1.387 1_455 S
H268 C275 0.950 . S
C269 C267 1.387 1_655 S
C269 C271 1.390 . S
C269 H273 0.950 . S
H270 C266 0.950 . S
C271 C269 1.390 . S
C271 C272 1.387 1_645 S
C271 H274 0.950 . S
C272 C271 1.387 1_465 S
C272 C275 1.387 . S
H273 C269 0.950 . S
H274 C271 0.950 . S
C275 C266 1.390 . S
C275 H268 0.950 . S
C275 C272 1.387 . S
C276 C277 1.387 . S
C276 H280 0.950 . S
C276 C285 1.390 . S
C277 C276 1.387 . S
C277 C279 1.387 1_455 S
H278 C285 0.950 . S
C279 C277 1.387 1_655 S
C279 C281 1.390 . S
C279 H283 0.950 . S
H280 C276 0.950 . S
C281 C279 1.390 . S
C281 C282 1.387 1_655 S
C281 H284 0.950 . S
C282 C281 1.387 1_455 S
C282 C285 1.387 . S
H283 C279 0.950 . S
H284 C281 0.950 . S
C285 C276 1.390 . S
C285 H278 0.950 . S
C285 C282 1.387 . S
C286 C287 1.387 . S
C286 H290 0.950 . S
C286 C295 1.390 . S
C287 C286 1.387 . S
C287 C289 1.387 . S
H288 C295 0.950 . S
C289 C287 1.387 . S
C289 C291 1.390 . S
C289 H293 0.950 . S
H290 C286 0.950 . S
C291 C289 1.390 . S
C291 C292 1.387 . S
C291 H294 0.950 . S
C292 C291 1.387 . S
C292 C295 1.387 . S
H293 C289 0.950 . S
H294 C291 0.950 . S
C295 C286 1.390 . S
C295 H288 0.950 . S
C295 C292 1.387 . S
C296 C297 1.387 . S
C296 H300 0.950 . S
C296 C305 1.390 . S
C297 C296 1.387 . S
C297 C299 1.387 . S
H298 C305 0.950 . S
C299 C297 1.387 . S
C299 C301 1.390 . S
C299 H303 0.950 . S
H300 C296 0.950 . S
C301 C299 1.390 . S
C301 C302 1.387 . S
C301 H304 0.950 . S
C302 C301 1.387 . S
C302 C305 1.387 . S
H303 C299 0.950 . S
H304 C301 0.950 . S
C305 C296 1.390 . S
C305 H298 0.950 . S
C305 C302 1.387 . S
C192 C151 1.557 . S
C187 C15 1.518 . S
C197 C13 1.614 . S
C202 C115 1.582 . S
C207 C18 1.304 1_554 S
C212 C175 1.506 . S
C217 C17 1.418 . S
C222 C139 1.428 . S
C227 C36 1.517 . S
C232 C79 1.559 . S
C237 C34 1.614 . S
C242 C43 1.581 . S
C252 C103 1.508 . S
C247 C39 1.311 . S
C262 C67 1.428 . S
C257 C38 1.419 . S
C267 C14 1.517 . S
C272 C73 1.550 . S
C277 C16 1.404 . S
C282 C109 1.436 . S
C292 C145 1.550 . S
C287 C35 1.517 . S
C297 C37 1.405 . S
C302 C181 1.437 . S
