# Generated by pormake.
# Topology ctn, (3,4)-cn, num edge types: 1
# Building blocks:
#     Node 0, Type 0, BuildingBlock: ESEHIV_clean_linker_0, # of connection points: 3
#     Node 1, Type 0, BuildingBlock: ESEHIV_clean_linker_0, # of connection points: 3
#     Node 2, Type 0, BuildingBlock: ESEHIV_clean_linker_0, # of connection points: 3
#     Node 3, Type 0, BuildingBlock: ESEHIV_clean_linker_0, # of connection points: 3
#     Node 4, Type 0, BuildingBlock: ESEHIV_clean_linker_0, # of connection points: 3
#     Node 5, Type 0, BuildingBlock: ESEHIV_clean_linker_0, # of connection points: 3
#     Node 6, Type 0, BuildingBlock: ESEHIV_clean_linker_0, # of connection points: 3
#     Node 7, Type 0, BuildingBlock: ESEHIV_clean_linker_0, # of connection points: 3
#     Node 8, Type 0, BuildingBlock: ESEHIV_clean_linker_0, # of connection points: 3
#     Node 9, Type 0, BuildingBlock: ESEHIV_clean_linker_0, # of connection points: 3
#     Node 10, Type 0, BuildingBlock: ESEHIV_clean_linker_0, # of connection points: 3
#     Node 11, Type 0, BuildingBlock: ESEHIV_clean_linker_0, # of connection points: 3
#     Node 12, Type 0, BuildingBlock: ESEHIV_clean_linker_0, # of connection points: 3
#     Node 13, Type 0, BuildingBlock: ESEHIV_clean_linker_0, # of connection points: 3
#     Node 14, Type 0, BuildingBlock: ESEHIV_clean_linker_0, # of connection points: 3
#     Node 15, Type 0, BuildingBlock: ESEHIV_clean_linker_0, # of connection points: 3
#     Node 16, Type 1, BuildingBlock: UXUYUI_clean_sbu_0, # of connection points: 4
#     Node 17, Type 1, BuildingBlock: UXUYUI_clean_sbu_0, # of connection points: 4
#     Node 18, Type 1, BuildingBlock: UXUYUI_clean_sbu_0, # of connection points: 4
#     Node 19, Type 1, BuildingBlock: UXUYUI_clean_sbu_0, # of connection points: 4
#     Node 20, Type 1, BuildingBlock: UXUYUI_clean_sbu_0, # of connection points: 4
#     Node 21, Type 1, BuildingBlock: UXUYUI_clean_sbu_0, # of connection points: 4
#     Node 22, Type 1, BuildingBlock: UXUYUI_clean_sbu_0, # of connection points: 4
#     Node 23, Type 1, BuildingBlock: UXUYUI_clean_sbu_0, # of connection points: 4
#     Node 24, Type 1, BuildingBlock: UXUYUI_clean_sbu_0, # of connection points: 4
#     Node 25, Type 1, BuildingBlock: UXUYUI_clean_sbu_0, # of connection points: 4
#     Node 26, Type 1, BuildingBlock: UXUYUI_clean_sbu_0, # of connection points: 4
#     Node 27, Type 1, BuildingBlock: UXUYUI_clean_sbu_0, # of connection points: 4
#     Edge 28, Type (0, 1), BuildingBlock: XIVTED_clean_linker_0, # of connection points: 2
#     Edge 29, Type (0, 1), BuildingBlock: XIVTED_clean_linker_0, # of connection points: 2
#     Edge 30, Type (0, 1), BuildingBlock: XIVTED_clean_linker_0, # of connection points: 2
#     Edge 31, Type (0, 1), BuildingBlock: XIVTED_clean_linker_0, # of connection points: 2
#     Edge 32, Type (0, 1), BuildingBlock: XIVTED_clean_linker_0, # of connection points: 2
#     Edge 33, Type (0, 1), BuildingBlock: XIVTED_clean_linker_0, # of connection points: 2
#     Edge 34, Type (0, 1), BuildingBlock: XIVTED_clean_linker_0, # of connection points: 2
#     Edge 35, Type (0, 1), BuildingBlock: XIVTED_clean_linker_0, # of connection points: 2
#     Edge 36, Type (0, 1), BuildingBlock: XIVTED_clean_linker_0, # of connection points: 2
#     Edge 37, Type (0, 1), BuildingBlock: XIVTED_clean_linker_0, # of connection points: 2
#     Edge 38, Type (0, 1), BuildingBlock: XIVTED_clean_linker_0, # of connection points: 2
#     Edge 39, Type (0, 1), BuildingBlock: XIVTED_clean_linker_0, # of connection points: 2
#     Edge 40, Type (0, 1), BuildingBlock: XIVTED_clean_linker_0, # of connection points: 2
#     Edge 41, Type (0, 1), BuildingBlock: XIVTED_clean_linker_0, # of connection points: 2
#     Edge 42, Type (0, 1), BuildingBlock: XIVTED_clean_linker_0, # of connection points: 2
#     Edge 43, Type (0, 1), BuildingBlock: XIVTED_clean_linker_0, # of connection points: 2
#     Edge 44, Type (0, 1), BuildingBlock: XIVTED_clean_linker_0, # of connection points: 2
#     Edge 45, Type (0, 1), BuildingBlock: XIVTED_clean_linker_0, # of connection points: 2
#     Edge 46, Type (0, 1), BuildingBlock: XIVTED_clean_linker_0, # of connection points: 2
#     Edge 47, Type (0, 1), BuildingBlock: XIVTED_clean_linker_0, # of connection points: 2
#     Edge 48, Type (0, 1), BuildingBlock: XIVTED_clean_linker_0, # of connection points: 2
#     Edge 49, Type (0, 1), BuildingBlock: XIVTED_clean_linker_0, # of connection points: 2
#     Edge 50, Type (0, 1), BuildingBlock: XIVTED_clean_linker_0, # of connection points: 2
#     Edge 51, Type (0, 1), BuildingBlock: XIVTED_clean_linker_0, # of connection points: 2
#     Edge 52, Type (0, 1), BuildingBlock: XIVTED_clean_linker_0, # of connection points: 2
#     Edge 53, Type (0, 1), BuildingBlock: XIVTED_clean_linker_0, # of connection points: 2
#     Edge 54, Type (0, 1), BuildingBlock: XIVTED_clean_linker_0, # of connection points: 2
#     Edge 55, Type (0, 1), BuildingBlock: XIVTED_clean_linker_0, # of connection points: 2
#     Edge 56, Type (0, 1), BuildingBlock: XIVTED_clean_linker_0, # of connection points: 2
#     Edge 57, Type (0, 1), BuildingBlock: XIVTED_clean_linker_0, # of connection points: 2
#     Edge 58, Type (0, 1), BuildingBlock: XIVTED_clean_linker_0, # of connection points: 2
#     Edge 59, Type (0, 1), BuildingBlock: XIVTED_clean_linker_0, # of connection points: 2
#     Edge 60, Type (0, 1), BuildingBlock: XIVTED_clean_linker_0, # of connection points: 2
#     Edge 61, Type (0, 1), BuildingBlock: XIVTED_clean_linker_0, # of connection points: 2
#     Edge 62, Type (0, 1), BuildingBlock: XIVTED_clean_linker_0, # of connection points: 2
#     Edge 63, Type (0, 1), BuildingBlock: XIVTED_clean_linker_0, # of connection points: 2
#     Edge 64, Type (0, 1), BuildingBlock: XIVTED_clean_linker_0, # of connection points: 2
#     Edge 65, Type (0, 1), BuildingBlock: XIVTED_clean_linker_0, # of connection points: 2
#     Edge 66, Type (0, 1), BuildingBlock: XIVTED_clean_linker_0, # of connection points: 2
#     Edge 67, Type (0, 1), BuildingBlock: XIVTED_clean_linker_0, # of connection points: 2
#     Edge 68, Type (0, 1), BuildingBlock: XIVTED_clean_linker_0, # of connection points: 2
#     Edge 69, Type (0, 1), BuildingBlock: XIVTED_clean_linker_0, # of connection points: 2
#     Edge 70, Type (0, 1), BuildingBlock: XIVTED_clean_linker_0, # of connection points: 2
#     Edge 71, Type (0, 1), BuildingBlock: XIVTED_clean_linker_0, # of connection points: 2
#     Edge 72, Type (0, 1), BuildingBlock: XIVTED_clean_linker_0, # of connection points: 2
#     Edge 73, Type (0, 1), BuildingBlock: XIVTED_clean_linker_0, # of connection points: 2
#     Edge 74, Type (0, 1), BuildingBlock: XIVTED_clean_linker_0, # of connection points: 2
#     Edge 75, Type (0, 1), BuildingBlock: XIVTED_clean_linker_0, # of connection points: 2
# Relax obj value: 0.000
# Max RMSD: 0.006
# Mean RMSD: 0.004
data_MOF--net-ctn--node1-UXUYUI_clean_sbu_0--node2-ESEHIV_clean_linker_0--edge1-XIVTED_clean_linker_0
_symmetry_space_group_name_H-M    P1
_symmetry_Int_Tables_number       1
_symmetry_cell_setting            triclinic
loop_
_symmetry_equiv_pos_as_xyz
'x, y, z'
_cell_length_a     65.402091
_cell_length_b     65.429424
_cell_length_c     65.316705
_cell_angle_alpha  89.927778
_cell_angle_beta   90.133865
_cell_angle_gamma 90.073683
loop_
_atom_site_label
_atom_site_type_symbol
_atom_site_fract_x
_atom_site_fract_y
_atom_site_fract_z
_atom_type_partial_charge
H0 H 0.01255 0.06531 0.04726 0.0
H1 H 0.04818 0.01365 0.06678 0.0
H2 H 0.06576 0.0476 0.01312 0.0
C3 C 0.02549 0.0552 0.04513 0.0
C4 C 0.03868 0.05826 0.02846 0.0
C5 C 0.0289 0.0392 0.05906 0.0
C6 C 0.04576 0.02624 0.05627 0.0
C7 C 0.05905 0.02898 0.03959 0.0
C8 C 0.05533 0.04502 0.02574 0.0
H9 H 0.29539 0.68747 0.24255 0.0
H10 H 0.31167 0.7421 0.20996 0.0
H11 H 0.26149 0.70503 0.18884 0.0
C12 C 0.29292 0.69778 0.22979 0.0
C13 C 0.27666 0.69427 0.21612 0.0
C14 C 0.30567 0.71493 0.22757 0.0
C15 C 0.30196 0.72876 0.21153 0.0
C16 C 0.28597 0.72542 0.19749 0.0
C17 C 0.27347 0.70808 0.1999 0.0
H18 H 0.95992 0.49276 0.06223 0.0
H19 H 0.99388 0.43937 0.04483 0.0
H20 H 0.93998 0.45658 0.01103 0.0
C21 C 0.96216 0.47991 0.05202 0.0
C22 C 0.94814 0.4764 0.03608 0.0
C23 C 0.97847 0.46639 0.05549 0.0
C24 C 0.98097 0.44948 0.0425 0.0
C25 C 0.96728 0.44585 0.02626 0.0
C26 C 0.95081 0.45935 0.02329 0.0
H27 H 0.69056 0.75972 0.20938 0.0
H28 H 0.74297 0.79501 0.19108 0.0
H29 H 0.70822 0.81286 0.24392 0.0
C30 C 0.70078 0.77255 0.21177 0.0
C31 C 0.69741 0.78589 0.22826 0.0
C32 C 0.7172 0.77571 0.19829 0.0
C33 C 0.73032 0.79243 0.20145 0.0
C34 C 0.7272 0.80589 0.21789 0.0
C35 C 0.71072 0.8025 0.23124 0.0
H36 H 0.01268 0.93806 0.4559 0.0
H37 H 0.04715 0.99105 0.43792 0.0
H38 H 0.06659 0.95512 0.48962 0.0
C39 C 0.02558 0.94822 0.45821 0.0
C40 C 0.03916 0.94471 0.47454 0.0
C41 C 0.02853 0.96475 0.44478 0.0
C42 C 0.04519 0.97796 0.44791 0.0
C43 C 0.05886 0.97483 0.46426 0.0
C44 C 0.05576 0.95807 0.47739 0.0
H45 H 0.19036 0.74122 0.79625 0.0
H46 H 0.24406 0.70746 0.81327 0.0
H47 H 0.21019 0.69048 0.7594 0.0
C48 C 0.20106 0.72896 0.79325 0.0
C49 C 0.19824 0.71632 0.77606 0.0
C50 C 0.21762 0.72596 0.80664 0.0
C51 C 0.23131 0.70989 0.80291 0.0
C52 C 0.22865 0.6969 0.78601 0.0
C53 C 0.21218 0.70034 0.77256 0.0
H54 H 0.94054 0.54643 0.49344 0.0
H55 H 0.99343 0.5643 0.45878 0.0
H56 H 0.95747 0.51258 0.43978 0.0
C57 C 0.95052 0.54428 0.48041 0.0
C58 C 0.94698 0.52788 0.46698 0.0
C59 C 0.96712 0.55763 0.47749 0.0
C60 C 0.98053 0.55416 0.46106 0.0
C61 C 0.97737 0.53774 0.44752 0.0
C62 C 0.96046 0.5248 0.45056 0.0
H63 H 0.76207 0.79616 0.81544 0.0
H64 H 0.79602 0.81374 0.76188 0.0
H65 H 0.81376 0.7605 0.79627 0.0
C66 C 0.77465 0.79368 0.80496 0.0
C67 C 0.78755 0.77676 0.80783 0.0
C68 C 0.77747 0.80703 0.78833 0.0
C69 C 0.79361 0.80341 0.77464 0.0
C70 C 0.80672 0.78661 0.77732 0.0
C71 C 0.80346 0.77325 0.79386 0.0
H72 H 0.26133 0.29398 0.31324 0.0
H73 H 0.29677 0.3118 0.26076 0.0
H74 H 0.31476 0.25963 0.29661 0.0
C75 C 0.27424 0.29157 0.30315 0.0
C76 C 0.28764 0.2752 0.3069 0.0
C77 C 0.27743 0.3049 0.28657 0.0
C78 C 0.2942 0.3016 0.27358 0.0
C79 C 0.30775 0.28528 0.27704 0.0
C80 C 0.30434 0.27219 0.29377 0.0
H81 H 0.45827 0.99109 0.56383 0.0
H82 H 0.49421 0.93929 0.5454 0.0
H83 H 0.44221 0.9575 0.50952 0.0
C84 C 0.46135 0.97892 0.55305 0.0
C85 C 0.4483 0.97609 0.53615 0.0
C86 C 0.47797 0.96573 0.55658 0.0
C87 C 0.48128 0.94937 0.54306 0.0
C88 C 0.46841 0.9463 0.52609 0.0
C89 C 0.45208 0.95979 0.52267 0.0
H90 H 0.18993 0.25941 0.70796 0.0
H91 H 0.2423 0.29502 0.69054 0.0
H92 H 0.20544 0.31384 0.74156 0.0
C93 C 0.19979 0.27251 0.71037 0.0
C94 C 0.19577 0.28606 0.72658 0.0
C95 C 0.21635 0.27583 0.69711 0.0
C96 C 0.22916 0.29276 0.70036 0.0
C97 C 0.22551 0.30644 0.71651 0.0
C98 C 0.20874 0.30298 0.7295 0.0
H99 H 0.79549 0.19102 0.74007 0.0
H100 H 0.81369 0.243 0.70416 0.0
H101 H 0.75957 0.20926 0.68795 0.0
C102 C 0.79285 0.20126 0.72729 0.0
C103 C 0.77604 0.19793 0.71424 0.0
C104 C 0.80633 0.21768 0.72395 0.0
C105 C 0.80294 0.23076 0.70721 0.0
C106 C 0.78626 0.22771 0.69395 0.0
C107 C 0.77283 0.21134 0.69771 0.0
H108 H 0.51025 0.56309 0.54546 0.0
H109 H 0.54446 0.50984 0.56295 0.0
H110 H 0.56261 0.54481 0.51022 0.0
C111 C 0.52267 0.55252 0.54263 0.0
C112 C 0.53587 0.55584 0.52599 0.0
C113 C 0.52576 0.53607 0.55611 0.0
C114 C 0.54232 0.52283 0.55286 0.0
C115 C 0.55573 0.52584 0.53634 0.0
C116 C 0.55235 0.54238 0.52299 0.0
H117 H 0.51449 0.43745 0.95551 0.0
H118 H 0.54967 0.49015 0.93801 0.0
H119 H 0.5668 0.45542 0.99125 0.0
C120 C 0.52703 0.44791 0.95837 0.0
C121 C 0.54004 0.44457 0.97521 0.0
C122 C 0.53043 0.46424 0.9448 0.0
C123 C 0.54722 0.47725 0.94813 0.0
C124 C 0.56046 0.47417 0.96482 0.0
C125 C 0.5567 0.45782 0.9783 0.0
H126 H 0.69072 0.24157 0.29394 0.0
H127 H 0.74271 0.20595 0.31258 0.0
H128 H 0.70832 0.18886 0.25901 0.0
C129 C 0.70103 0.22888 0.2914 0.0
C130 C 0.69749 0.21552 0.27494 0.0
C131 C 0.71732 0.22554 0.30505 0.0
C132 C 0.73019 0.20863 0.30203 0.0
C133 C 0.72706 0.1952 0.28552 0.0
C134 C 0.71063 0.1988 0.27207 0.0
H135 H 0.43945 0.04379 0.99321 0.0
H136 H 0.4929 0.0608 0.95908 0.0
H137 H 0.45822 0.00769 0.94155 0.0
C138 C 0.44997 0.0409 0.98076 0.0
C139 C 0.44669 0.02415 0.96769 0.0
C140 C 0.46676 0.054 0.97791 0.0
C141 C 0.48027 0.05036 0.96164 0.0
C142 C 0.47711 0.0339 0.9482 0.0
C143 C 0.46036 0.0208 0.95145 0.0
Li144 Li 0.26853 0.88885 0.99754 0.0
Li145 Li 0.25329 0.86277 0.02171 0.0
Li146 Li 0.24607 0.86335 0.98352 0.0
Li147 Li 0.2325 0.88898 0.00531 0.0
C148 C 0.29326 0.85668 0.99724 0.0
N149 N 0.33541 0.85403 0.99587 0.0
C150 C 0.30431 0.85136 0.0148 0.0
C151 C 0.30365 0.86043 0.97893 0.0
C152 C 0.32561 0.85014 0.0138 0.0
C153 C 0.32496 0.85909 0.97857 0.0
C154 C 0.25016 0.90914 0.0358 0.0
C155 C 0.2346 0.92411 0.06564 0.0
N156 N 0.23715 0.943 0.05731 0.0
C157 C 0.25275 0.92869 0.02757 0.0
C158 C 0.24111 0.90678 0.05502 0.0
C159 C 0.24602 0.94563 0.03867 0.0
C160 C 0.29249 0.91862 0.97714 0.0
N161 N 0.29199 0.90573 0.99346 0.0
C162 C 0.3248 0.91747 0.00462 0.0
C163 C 0.30754 0.90516 0.00729 0.0
C164 C 0.32593 0.93074 0.98771 0.0
C165 C 0.30939 0.93126 0.97393 0.0
H166 H 0.27964 0.91931 0.96675 0.0
H167 H 0.30653 0.89513 0.02042 0.0
C168 C 0.25117 0.82634 0.04432 0.0
N169 N 0.2577 0.84605 0.04501 0.0
C170 C 0.25408 0.81346 0.06113 0.0
C171 C 0.27089 0.84126 0.07883 0.0
C172 C 0.26742 0.85369 0.06175 0.0
C173 C 0.26409 0.82088 0.07866 0.0
H174 H 0.24362 0.82067 0.0307 0.0
H175 H 0.2726 0.8694 0.06177 0.0
C176 C 0.24135 0.8929 0.95794 0.0
N177 N 0.23274 0.89079 0.91653 0.0
C178 C 0.22133 0.89563 0.9509 0.0
C179 C 0.25699 0.88918 0.94387 0.0
C180 C 0.21729 0.89451 0.92991 0.0
C181 C 0.25232 0.88812 0.92302 0.0
C182 C 0.20681 0.85787 0.0122 0.0
C183 C 0.19163 0.86405 0.99843 0.0
C184 C 0.20125 0.85053 0.03151 0.0
C185 C 0.17112 0.86286 0.00425 0.0
C186 C 0.18056 0.84953 0.03674 0.0
N187 N 0.16606 0.85568 0.02311 0.0
C188 C 0.25748 0.83361 0.95431 0.0
C189 C 0.22311 0.84452 0.95131 0.0
C190 C 0.25506 0.82042 0.93769 0.0
N191 N 0.24166 0.84544 0.96069 0.0
C192 C 0.22003 0.83166 0.93454 0.0
C193 C 0.23613 0.81935 0.92749 0.0
H194 H 0.27198 0.8343 0.96221 0.0
H195 H 0.2107 0.85391 0.95667 0.0
C196 C 0.20738 0.92325 0.99758 0.0
N197 N 0.21018 0.90735 0.0107 0.0
C198 C 0.19134 0.93698 1.00052 0.0
C199 C 0.18189 0.91837 0.03103 0.0
C200 C 0.19811 0.905 0.02748 0.0
C201 C 0.17819 0.93451 0.01731 0.0
H202 H 0.21772 0.92538 0.98487 0.0
H203 H 0.20107 0.89274 0.03816 0.0
O204 O 0.2724 0.85823 0.99799 0.0
O205 O 0.25614 0.89237 0.02492 0.0
O206 O 0.2456 0.89361 0.97848 0.0
O207 O 0.227 0.8589 0.00681 0.0
H208 H 0.29657 0.84831 0.02907 0.0
H209 H 0.29538 0.86448 0.96518 0.0
H210 H 0.33435 0.84614 0.0273 0.0
H211 H 0.33319 0.8621 0.96454 0.0
H212 H 0.22744 0.92252 0.08047 0.0
H213 H 0.25964 0.93073 0.01265 0.0
H214 H 0.23888 0.89172 0.06151 0.0
H215 H 0.24779 0.96085 0.03244 0.0
H216 H 0.33719 0.91644 0.0156 0.0
H217 H 0.30932 0.9416 0.96097 0.0
H218 H 0.24883 0.79777 0.06031 0.0
H219 H 0.27857 0.84759 0.09209 0.0
H220 H 0.20894 0.89824 0.9615 0.0
H221 H 0.27254 0.88696 0.949 0.0
H222 H 0.20185 0.89648 0.92428 0.0
H223 H 0.26427 0.88515 0.912 0.0
H224 H 0.19562 0.87016 0.98362 0.0
H225 H 0.21275 0.84582 0.04245 0.0
H226 H 0.15924 0.86776 0.9938 0.0
H227 H 0.17605 0.84394 0.05165 0.0
H228 H 0.2678 0.81095 0.93309 0.0
H229 H 0.20525 0.83159 0.92705 0.0
H230 H 0.18942 0.94954 0.98987 0.0
H231 H 0.17217 0.91588 0.0442 0.0
Li232 Li 0.11475 0.50235 0.27187 0.0
Li233 Li 0.13973 0.4812 0.2562 0.0
Li234 Li 0.14053 0.51767 0.25056 0.0
Li235 Li 0.11368 0.49549 0.2336 0.0
C236 C 0.14474 0.50646 0.29717 0.0
N237 N 0.14334 0.51356 0.33886 0.0
C238 C 0.14688 0.49025 0.31098 0.0
C239 C 0.14197 0.52629 0.3046 0.0
C240 C 0.14614 0.49416 0.33199 0.0
C241 C 0.14126 0.52956 0.32571 0.0
C242 C 0.10808 0.45554 0.25898 0.0
C243 C 0.09917 0.42249 0.24521 0.0
N244 N 0.10513 0.41358 0.26307 0.0
C245 C 0.11406 0.44604 0.27721 0.0
C246 C 0.10055 0.44367 0.24283 0.0
C247 C 0.11248 0.42482 0.27897 0.0
C248 C 0.0859 0.52431 0.29549 0.0
N249 N 0.09718 0.50689 0.29495 0.0
C250 C 0.08346 0.49628 0.32718 0.0
C251 C 0.09601 0.49286 0.31028 0.0
C252 C 0.07167 0.51421 0.32824 0.0
C253 C 0.07301 0.5283 0.31203 0.0
H254 H 0.08676 0.53508 0.28298 0.0
H255 H 0.10497 0.47907 0.30954 0.0
C256 C 0.17348 0.45963 0.27245 0.0
N257 N 0.15759 0.45796 0.25911 0.0
C258 C 0.18684 0.44328 0.27548 0.0
C259 C 0.16789 0.42403 0.25024 0.0
C260 C 0.15489 0.44077 0.24772 0.0
C261 C 0.18401 0.42507 0.26446 0.0
H262 H 0.17591 0.47376 0.28066 0.0
H263 H 0.14265 0.44001 0.23663 0.0
C264 C 0.10872 0.54174 0.24237 0.0
N265 N 0.10664 0.58175 0.22888 0.0
C266 C 0.10301 0.54604 0.22218 0.0
C267 C 0.11314 0.55782 0.25575 0.0
C268 C 0.10209 0.56636 0.21564 0.0
C269 C 0.11208 0.57793 0.24862 0.0
C270 C 0.15966 0.4862 0.22121 0.0
C271 C 0.17945 0.49087 0.22781 0.0
C272 C 0.15662 0.47104 0.20646 0.0
C273 C 0.19595 0.48009 0.21964 0.0
C274 C 0.17352 0.46063 0.19865 0.0
N275 N 0.19267 0.46532 0.20536 0.0
C276 C 0.17179 0.54596 0.26054 0.0
C277 C 0.1572 0.55054 0.22761 0.0
C278 C 0.18503 0.56241 0.25737 0.0
N279 N 0.15807 0.54053 0.24585 0.0
C280 C 0.17004 0.56721 0.22385 0.0
C281 C 0.1842 0.57334 0.23885 0.0
H282 H 0.1726 0.5374 0.27467 0.0
H283 H 0.14659 0.54551 0.21594 0.0
C284 C 0.07699 0.48602 0.21318 0.0
N285 N 0.09674 0.4918 0.21027 0.0
C286 C 0.06406 0.48299 0.19642 0.0
C287 C 0.09185 0.49258 0.174 0.0
C288 C 0.10434 0.49515 0.1912 0.0
C289 C 0.07146 0.48629 0.17651 0.0
H290 H 0.07135 0.48365 0.22856 0.0
H291 H 0.12008 0.49991 0.18938 0.0
O292 O 0.14508 0.50292 0.2765 0.0
O293 O 0.10947 0.47632 0.25694 0.0
O294 O 0.10997 0.52192 0.24898 0.0
O295 O 0.1433 0.4962 0.22943 0.0
H296 H 0.14876 0.47475 0.3056 0.0
H297 H 0.14025 0.53901 0.29419 0.0
H298 H 0.14766 0.48174 0.34284 0.0
H299 H 0.13903 0.54482 0.33165 0.0
H300 H 0.09344 0.41313 0.23281 0.0
H301 H 0.1203 0.45487 0.28969 0.0
H302 H 0.09602 0.45068 0.22854 0.0
H303 H 0.11722 0.41727 0.29294 0.0
H304 H 0.08318 0.48508 0.33939 0.0
H305 H 0.06395 0.54214 0.31193 0.0
H306 H 0.19939 0.44498 0.28619 0.0
H307 H 0.16514 0.41033 0.24137 0.0
H308 H 0.09943 0.53385 0.21163 0.0
H309 H 0.11748 0.55482 0.27144 0.0
H310 H 0.0978 0.56989 0.20003 0.0
H311 H 0.1156 0.5905 0.25878 0.0
H312 H 0.18201 0.50251 0.2393 0.0
H313 H 0.14135 0.46718 0.20132 0.0
H314 H 0.21136 0.48343 0.22469 0.0
H315 H 0.17141 0.44877 0.18732 0.0
H316 H 0.19567 0.56665 0.26936 0.0
H317 H 0.16915 0.57496 0.20922 0.0
H318 H 0.04837 0.47837 0.19901 0.0
H319 H 0.09814 0.49517 0.15889 0.0
Li320 Li 0.73527 0.61289 0.99976 0.0
Li321 Li 0.74864 0.63819 0.02216 0.0
Li322 Li 0.75596 0.63951 0.98398 0.0
Li323 Li 0.77136 0.61311 0.00778 0.0
C324 C 0.70943 0.6439 0.99335 0.0
N325 N 0.66864 0.64588 0.98235 0.0
C326 C 0.69432 0.6373 0.00695 0.0
C327 C 0.70378 0.65156 0.97417 0.0
C328 C 0.67379 0.63839 0.00109 0.0
C329 C 0.68308 0.65244 0.96889 0.0
C330 C 0.74463 0.60789 0.04718 0.0
C331 C 0.75649 0.61137 0.08201 0.0
N332 N 0.73704 0.60865 0.0888 0.0
C333 C 0.72475 0.60507 0.05452 0.0
C334 C 0.76064 0.61099 0.06105 0.0
C335 C 0.72123 0.60551 0.0756 0.0
C336 C 0.70975 0.57867 0.00687 0.0
N337 N 0.71295 0.59459 0.99388 0.0
C338 C 0.68484 0.58395 0.97293 0.0
C339 C 0.70116 0.59715 0.97688 0.0
C340 C 0.68074 0.56777 0.98648 0.0
C341 C 0.6936 0.5651 0.00353 0.0
H342 H 0.71985 0.5764 0.01978 0.0
H343 H 0.7044 0.60947 0.96635 0.0
C344 C 0.75959 0.66783 0.05178 0.0
N345 N 0.74403 0.65562 0.0453 0.0
C346 C 0.7569 0.68085 0.06849 0.0
C347 C 0.7222 0.66861 0.07156 0.0
C348 C 0.72552 0.65595 0.05471 0.0
C349 C 0.73799 0.68136 0.07866 0.0
H350 H 0.77405 0.66763 0.04385 0.0
H351 H 0.71331 0.6463 0.04926 0.0
C352 C 0.75313 0.59329 0.96913 0.0
N353 N 0.7404 0.55959 0.94711 0.0
C354 C 0.75561 0.57368 0.97725 0.0
C355 C 0.74432 0.59579 0.94979 0.0
C356 C 0.74903 0.55682 0.96588 0.0
C357 C 0.73795 0.57855 0.9389 0.0
C358 C 0.79574 0.64599 0.00902 0.0
C359 C 0.80677 0.6522 0.99178 0.0
C360 C 0.80608 0.64213 0.02738 0.0
C361 C 0.82801 0.65416 0.99313 0.0
C362 C 0.82733 0.64423 0.0281 0.0
N363 N 0.83776 0.65013 0.0111 0.0
C364 C 0.75372 0.67621 0.96171 0.0
C365 C 0.77022 0.64914 0.94424 0.0
C366 C 0.75664 0.68924 0.94503 0.0
N367 N 0.76038 0.65657 0.96094 0.0
C368 C 0.77365 0.66171 0.92727 0.0
C369 C 0.76677 0.68208 0.92746 0.0
H370 H 0.74597 0.68167 0.97525 0.0
H371 H 0.77558 0.63351 0.9442 0.0
C372 C 0.79473 0.58206 0.02685 0.0
N373 N 0.7949 0.59631 0.01169 0.0
C374 C 0.81151 0.56921 0.02978 0.0
C375 C 0.82829 0.58576 0.00129 0.0
C376 C 0.81108 0.59814 0.99877 0.0
C377 C 0.82863 0.57103 0.01695 0.0
H378 H 0.78145 0.58049 0.03654 0.0
H379 H 0.81055 0.60911 0.9864 0.0
O380 O 0.72964 0.64296 0.99878 0.0
O381 O 0.74837 0.60784 0.02656 0.0
O382 O 0.75897 0.60998 0.98026 0.0
O383 O 0.77495 0.64378 0.00793 0.0
H384 H 0.69839 0.63093 0.02165 0.0
H385 H 0.71523 0.65659 0.96337 0.0
H386 H 0.66196 0.63317 0.0114 0.0
H387 H 0.6785 0.65827 0.95407 0.0
H388 H 0.76875 0.61384 0.09289 0.0
H389 H 0.71209 0.60292 0.04407 0.0
H390 H 0.7761 0.61317 0.05569 0.0
H391 H 0.70591 0.60348 0.08147 0.0
H392 H 0.67535 0.5866 0.95959 0.0
H393 H 0.69136 0.55252 0.01408 0.0
H394 H 0.76942 0.69067 0.07312 0.0
H395 H 0.70744 0.66823 0.07903 0.0
H396 H 0.76231 0.57153 0.99226 0.0
H397 H 0.74217 0.61091 0.94338 0.0
H398 H 0.75072 0.54155 0.97201 0.0
H399 H 0.73098 0.58024 0.92396 0.0
H400 H 0.79906 0.65537 0.97748 0.0
H401 H 0.79781 0.63746 0.0409 0.0
H402 H 0.83673 0.65885 0.97988 0.0
H403 H 0.83552 0.64116 0.04217 0.0
H404 H 0.75077 0.70468 0.94582 0.0
H405 H 0.78185 0.65557 0.91428 0.0
H406 H 0.81115 0.55805 0.04204 0.0
H407 H 0.84101 0.58739 0.99083 0.0
Li408 Li 0.86325 0.01882 0.25372 0.0
Li409 Li 0.88936 0.99734 0.26995 0.0
Li410 Li 0.89047 0.00477 0.23322 0.0
Li411 Li 0.86449 0.98193 0.24773 0.0
C412 C 0.89357 0.04396 0.26205 0.0
N413 N 0.89281 0.08432 0.27442 0.0
C414 C 0.8967 0.04895 0.28262 0.0
C415 C 0.89016 0.05951 0.24775 0.0
C416 C 0.89625 0.06945 0.28857 0.0
C417 C 0.88979 0.07982 0.25431 0.0
C418 C 0.84256 0.98648 0.28063 0.0
C419 C 0.82655 0.9566 0.2952 0.0
N420 N 0.80788 0.96517 0.292 0.0
C421 C 0.82321 0.995 0.2775 0.0
C422 C 0.84427 0.96714 0.2896 0.0
C423 C 0.80587 0.98399 0.28337 0.0
C424 C 0.83394 0.04838 0.24165 0.0
N425 N 0.84554 0.04161 0.25755 0.0
C426 C 0.83169 0.06724 0.27954 0.0
C427 C 0.84445 0.05046 0.27634 0.0
C428 C 0.81964 0.07468 0.26335 0.0
C429 C 0.8208 0.06497 0.24422 0.0
H430 H 0.83479 0.04083 0.22698 0.0
H431 H 0.85346 0.04443 0.28885 0.0
C432 C 0.92571 0.0015 0.29243 0.0
N433 N 0.90637 0.99398 0.29346 0.0
C434 C 0.93923 0.99879 0.30877 0.0
C435 C 0.91263 0.98071 0.32698 0.0
C436 C 0.89957 0.98393 0.31033 0.0
C437 C 0.93283 0.98812 0.32633 0.0
H438 H 0.93066 0.00952 0.27882 0.0
H439 H 0.88411 0.97814 0.31077 0.0
C440 C 0.85997 0.00587 0.20678 0.0
N441 N 0.86034 0.00882 0.16458 0.0
C442 C 0.85638 0.98856 0.19477 0.0
C443 C 0.86367 0.02469 0.19733 0.0
C444 C 0.85662 0.99037 0.17345 0.0
C445 C 0.86384 0.02586 0.17597 0.0
C446 C 0.91139 0.96832 0.254 0.0
C447 C 0.93067 0.97411 0.24684 0.0
C448 C 0.90982 0.9533 0.26917 0.0
C449 C 0.94809 0.96482 0.25505 0.0
C450 C 0.92761 0.94442 0.27702 0.0
N451 N 0.94621 0.95031 0.26985 0.0
C452 C 0.92043 0.02626 0.21058 0.0
C453 C 0.90893 0.99557 0.19509 0.0
C454 C 0.93381 0.02988 0.19435 0.0
N455 N 0.90824 0.00942 0.21058 0.0
C456 C 0.92187 0.99873 0.1784 0.0
C457 C 0.93455 0.01606 0.17794 0.0
H458 H 0.9199 0.03681 0.22327 0.0
H459 H 0.8995 0.98201 0.19576 0.0
C460 C 0.82829 0.96202 0.23582 0.0
N461 N 0.84762 0.95865 0.24273 0.0
C462 C 0.81498 0.94564 0.23259 0.0
C463 C 0.84168 0.92263 0.24376 0.0
C464 C 0.85456 0.93945 0.24655 0.0
C465 C 0.82161 0.92564 0.2367 0.0
H466 H 0.82319 0.97748 0.23299 0.0
H467 H 0.87001 0.93719 0.25192 0.0
O468 O 0.89361 0.02396 0.25597 0.0
O469 O 0.8597 0.99679 0.27449 0.0
O470 O 0.86007 0.00437 0.22768 0.0
O471 O 0.89418 0.97762 0.24655 0.0
H472 H 0.89917 0.03712 0.29394 0.0
H473 H 0.88762 0.05592 0.23179 0.0
H474 H 0.89855 0.07352 0.30446 0.0
H475 H 0.88704 0.09199 0.24343 0.0
H476 H 0.82765 0.94154 0.30198 0.0
H477 H 0.82156 0.00986 0.27044 0.0
H478 H 0.85908 0.96013 0.29178 0.0
H479 H 0.7908 0.99037 0.28097 0.0
H480 H 0.83099 0.07409 0.29461 0.0
H481 H 0.8118 0.07028 0.23134 0.0
H482 H 0.95449 0.00512 0.30766 0.0
H483 H 0.90705 0.97218 0.34003 0.0
H484 H 0.85368 0.97384 0.20179 0.0
H485 H 0.86661 0.03821 0.20638 0.0
H486 H 0.85395 0.97709 0.16397 0.0
H487 H 0.8668 0.0403 0.16846 0.0
H488 H 0.93223 0.98579 0.23522 0.0
H489 H 0.89506 0.9489 0.27519 0.0
H490 H 0.96311 0.96922 0.2497 0.0
H491 H 0.92662 0.93293 0.2889 0.0
H492 H 0.94333 0.04343 0.19453 0.0
H493 H 0.92224 0.98756 0.16619 0.0
H494 H 0.79956 0.94861 0.2273 0.0
H495 H 0.84741 0.90742 0.2469 0.0
Li496 Li 0.24912 0.13868 0.52103 0.0
Li497 Li 0.23343 0.11384 0.49951 0.0
Li498 Li 0.27163 0.11281 0.50661 0.0
Li499 Li 0.25479 0.13971 0.48452 0.0
C500 C 0.24585 0.10621 0.54625 0.0
N501 N 0.24092 0.10154 0.58801 0.0
C502 C 0.22762 0.11217 0.55563 0.0
C503 C 0.26156 0.09782 0.55812 0.0
C504 C 0.22544 0.10972 0.57676 0.0
C505 C 0.25877 0.09558 0.5792 0.0
C506 C 0.20818 0.14394 0.49605 0.0
C507 C 0.17911 0.14013 0.47355 0.0
N508 N 0.16638 0.14291 0.48974 0.0
C509 C 0.19479 0.14679 0.51246 0.0
C510 C 0.20028 0.14065 0.47642 0.0
C511 C 0.17372 0.14622 0.50895 0.0
C512 C 0.23409 0.17305 0.54219 0.0
N513 N 0.24621 0.15632 0.54442 0.0
C514 C 0.25403 0.1658 0.57893 0.0
C515 C 0.25651 0.15279 0.56219 0.0
C516 C 0.24115 0.18288 0.57723 0.0
C517 C 0.23127 0.18654 0.55847 0.0
H518 H 0.22667 0.17599 0.52768 0.0
H519 H 0.26682 0.13997 0.56337 0.0
C520 C 0.21023 0.08454 0.47761 0.0
N521 N 0.21042 0.09624 0.49479 0.0
C522 C 0.1938 0.07148 0.47356 0.0
C523 C 0.17805 0.08265 0.50502 0.0
C524 C 0.19484 0.09538 0.50851 0.0
C525 C 0.17737 0.07041 0.48737 0.0
H526 H 0.22293 0.08519 0.4671 0.0
H527 H 0.19531 0.10466 0.52211 0.0
C528 C 0.28401 0.15858 0.51664 0.0
N529 N 0.29952 0.19115 0.53859 0.0
C530 C 0.27816 0.17852 0.51171 0.0
C531 C 0.29783 0.15517 0.53262 0.0
C532 C 0.28615 0.19479 0.52303 0.0
C533 C 0.30549 0.17186 0.54356 0.0
C534 C 0.26295 0.10824 0.46023 0.0
C535 C 0.28324 0.10311 0.45599 0.0
C536 C 0.24951 0.11243 0.4441 0.0
C537 C 0.28981 0.1025 0.43566 0.0
C538 C 0.25667 0.1117 0.42398 0.0
N539 N 0.27651 0.1068 0.42021 0.0
C540 C 0.29184 0.07578 0.51464 0.0
C541 C 0.31393 0.10382 0.5083 0.0
C542 C 0.30854 0.06279 0.51742 0.0
N543 N 0.29484 0.09587 0.5103 0.0
C544 C 0.33108 0.09135 0.51083 0.0
C545 C 0.32853 0.0705 0.5155 0.0
H546 H 0.27644 0.06992 0.51609 0.0
H547 H 0.31582 0.11982 0.50456 0.0
C548 C 0.24441 0.17001 0.45527 0.0
N549 N 0.25946 0.15715 0.46157 0.0
C550 C 0.24748 0.18285 0.43846 0.0
C551 C 0.28166 0.16929 0.43517 0.0
C552 C 0.27796 0.1568 0.45213 0.0
C553 C 0.26627 0.18252 0.42805 0.0
H554 H 0.23007 0.17048 0.46342 0.0
H555 H 0.28983 0.14675 0.45774 0.0
O556 O 0.2483 0.10843 0.52557 0.0
O557 O 0.2289 0.14416 0.4992 0.0
O558 O 0.27591 0.14244 0.50613 0.0
O559 O 0.25632 0.10922 0.48007 0.0
H560 H 0.21548 0.11908 0.5468 0.0
H561 H 0.27582 0.09323 0.55118 0.0
H562 H 0.21147 0.11443 0.58423 0.0
H563 H 0.27082 0.08916 0.58858 0.0
H564 H 0.17281 0.13749 0.45846 0.0
H565 H 0.20055 0.1491 0.52781 0.0
H566 H 0.21037 0.13833 0.46356 0.0
H567 H 0.1632 0.14829 0.52153 0.0
H568 H 0.26233 0.16269 0.59296 0.0
H569 H 0.22123 0.19954 0.55647 0.0
H570 H 0.19416 0.06207 0.45994 0.0
H571 H 0.16566 0.08258 0.51598 0.0
H572 H 0.26738 0.18136 0.49943 0.0
H573 H 0.30236 0.13979 0.53672 0.0
H574 H 0.28166 0.21031 0.51948 0.0
H575 H 0.31609 0.16947 0.55606 0.0
H576 H 0.29386 0.09975 0.46824 0.0
H577 H 0.23375 0.11637 0.44708 0.0
H578 H 0.3055 0.09864 0.43216 0.0
H579 H 0.24646 0.11505 0.41137 0.0
H580 H 0.30578 0.04693 0.52129 0.0
H581 H 0.34615 0.09792 0.50885 0.0
H582 H 0.23534 0.19313 0.43388 0.0
H583 H 0.29634 0.16839 0.42761 0.0
Li584 Li 0.38998 0.49743 0.77096 0.0
Li585 Li 0.36444 0.51993 0.75497 0.0
Li586 Li 0.36372 0.4819 0.74858 0.0
Li587 Li 0.38962 0.50414 0.73282 0.0
C588 C 0.35454 0.49072 0.79388 0.0
N589 N 0.34411 0.47763 0.83273 0.0
C590 C 0.34677 0.50457 0.80815 0.0
C591 C 0.35667 0.47016 0.79926 0.0
C592 C 0.34168 0.49768 0.82775 0.0
C593 C 0.3514 0.46385 0.819 0.0
C594 C 0.39764 0.54363 0.7602 0.0
C595 C 0.39773 0.57902 0.74983 0.0
N596 N 0.403 0.58455 0.7692 0.0
C597 C 0.40327 0.54964 0.77995 0.0
C598 C 0.39505 0.55841 0.74496 0.0
C599 C 0.40584 0.5704 0.78422 0.0
C600 C 0.42512 0.4829 0.79108 0.0
N601 N 0.4073 0.49311 0.79411 0.0
C602 C 0.41519 0.49741 0.82961 0.0
C603 C 0.40225 0.50053 0.81286 0.0
C604 C 0.43362 0.48673 0.827 0.0
C605 C 0.43853 0.47945 0.80739 0.0
H606 H 0.42896 0.47746 0.77595 0.0
H607 H 0.38836 0.50921 0.81478 0.0
C608 C 0.33364 0.54844 0.74477 0.0
N609 N 0.34784 0.54351 0.75917 0.0
C610 C 0.32106 0.56545 0.74744 0.0
C611 C 0.33783 0.57194 0.77979 0.0
C612 C 0.35005 0.55477 0.77651 0.0
C613 C 0.32304 0.57747 0.76515 0.0
H614 H 0.33189 0.53902 0.73131 0.0
H615 H 0.36124 0.55038 0.78788 0.0
C616 C 0.39919 0.45789 0.74634 0.0
N617 N 0.40998 0.41717 0.74335 0.0
C618 C 0.40542 0.44981 0.72757 0.0
C619 C 0.39883 0.44534 0.76367 0.0
C620 C 0.4107 0.42916 0.72634 0.0
C621 C 0.40424 0.42478 0.76183 0.0
C622 C 0.3564 0.5079 0.7085 0.0
C623 C 0.3492 0.49198 0.69618 0.0
C624 C 0.36054 0.52696 0.69974 0.0
C625 C 0.34661 0.4953 0.6752 0.0
C626 C 0.35778 0.52967 0.6787 0.0
N627 N 0.35095 0.51391 0.66696 0.0
C628 C 0.32908 0.45733 0.75624 0.0
C629 C 0.35083 0.44441 0.73037 0.0
C630 C 0.31581 0.44076 0.75388 0.0
N631 N 0.34632 0.45874 0.74473 0.0
C632 C 0.33794 0.42764 0.72742 0.0
C633 C 0.32017 0.42563 0.7393 0.0
H634 H 0.32552 0.46919 0.76716 0.0
H635 H 0.36425 0.44616 0.72095 0.0
C636 C 0.42237 0.52166 0.71115 0.0
N637 N 0.40675 0.50804 0.70951 0.0
C638 C 0.43554 0.52499 0.69469 0.0
C639 C 0.41635 0.50016 0.67511 0.0
C640 C 0.40365 0.4972 0.69202 0.0
C641 C 0.4326 0.51418 0.67635 0.0
H642 H 0.42468 0.52989 0.7253 0.0
H643 H 0.39143 0.48612 0.69122 0.0
O644 O 0.35972 0.49725 0.77466 0.0
O645 O 0.39487 0.52338 0.75579 0.0
O646 O 0.39396 0.47809 0.7478 0.0
O647 O 0.3592 0.50488 0.72905 0.0
H648 H 0.34478 0.52049 0.8042 0.0
H649 H 0.3621 0.45914 0.78826 0.0
H650 H 0.33579 0.50826 0.83899 0.0
H651 H 0.35303 0.44799 0.82337 0.0
H652 H 0.39565 0.59062 0.7382 0.0
H653 H 0.40551 0.53842 0.7919 0.0
H654 H 0.39102 0.55402 0.72953 0.0
H655 H 0.41006 0.57528 0.79948 0.0
H656 H 0.41099 0.50367 0.84435 0.0
H657 H 0.4525 0.47102 0.80468 0.0
H658 H 0.30962 0.56889 0.73593 0.0
H659 H 0.34004 0.58083 0.79359 0.0
H660 H 0.40603 0.45932 0.71405 0.0
H661 H 0.39467 0.45144 0.77844 0.0
H662 H 0.41539 0.42268 0.71187 0.0
H663 H 0.40396 0.4149 0.77511 0.0
H664 H 0.34571 0.47721 0.70271 0.0
H665 H 0.36585 0.53951 0.70908 0.0
H666 H 0.34115 0.48308 0.66546 0.0
H667 H 0.36104 0.5443 0.67171 0.0
H668 H 0.30208 0.44004 0.76308 0.0
H669 H 0.34192 0.41632 0.71603 0.0
H670 H 0.4478 0.53603 0.69624 0.0
H671 H 0.41374 0.49128 0.66137 0.0
Li672 Li 0.77009 0.39089 0.49494 0.0
Li673 Li 0.7533 0.36383 0.51684 0.0
Li674 Li 0.74817 0.36453 0.48023 0.0
Li675 Li 0.73176 0.38928 0.50125 0.0
C676 C 0.78381 0.34616 0.4846 0.0
N677 N 0.80122 0.31546 0.46153 0.0
C678 C 0.77936 0.32571 0.4889 0.0
C679 C 0.79719 0.35103 0.46867 0.0
C680 C 0.78829 0.31041 0.47702 0.0
C681 C 0.80583 0.33527 0.45717 0.0
C682 C 0.76038 0.39559 0.54115 0.0
C683 C 0.75316 0.39229 0.57721 0.0
N684 N 0.77284 0.39746 0.58156 0.0
C685 C 0.7805 0.40101 0.54599 0.0
C686 C 0.74655 0.39134 0.55688 0.0
C687 C 0.78651 0.40184 0.56651 0.0
C688 C 0.79016 0.42801 0.48655 0.0
N689 N 0.79317 0.40811 0.49165 0.0
C690 C 0.82937 0.413 0.49226 0.0
C691 C 0.81224 0.40045 0.49462 0.0
C692 C 0.82682 0.43363 0.48675 0.0
C693 C 0.80685 0.44108 0.4839 0.0
H694 H 0.77477 0.43366 0.48434 0.0
H695 H 0.81413 0.3846 0.49897 0.0
C696 C 0.74294 0.33334 0.54582 0.0
N697 N 0.75785 0.34658 0.53995 0.0
C698 C 0.74593 0.32051 0.56265 0.0
C699 C 0.77972 0.33492 0.56691 0.0
C700 C 0.77612 0.34736 0.54988 0.0
C701 C 0.76449 0.32126 0.5735 0.0
H702 H 0.72874 0.33264 0.53737 0.0
H703 H 0.78793 0.35763 0.54454 0.0
C704 C 0.7446 0.39689 0.45477 0.0
N705 N 0.73977 0.40146 0.41296 0.0
C706 C 0.72648 0.39066 0.44524 0.0
C707 C 0.76027 0.40548 0.44302 0.0
C708 C 0.72434 0.39307 0.42409 0.0
C709 C 0.75752 0.40767 0.42191 0.0
C710 C 0.70694 0.35852 0.50431 0.0
C711 C 0.69397 0.35507 0.48762 0.0
C712 C 0.69855 0.36174 0.52371 0.0
C713 C 0.67283 0.35498 0.4906 0.0
C714 C 0.67733 0.36159 0.52606 0.0
N715 N 0.66501 0.35824 0.50959 0.0
C716 C 0.73423 0.32946 0.45947 0.0
C717 C 0.75573 0.35029 0.4391 0.0
C718 C 0.73165 0.31571 0.44334 0.0
N719 N 0.74574 0.34659 0.45698 0.0
C720 C 0.75349 0.33702 0.42252 0.0
C721 C 0.74117 0.31953 0.42447 0.0
H722 H 0.72704 0.32643 0.47405 0.0
H723 H 0.7656 0.36345 0.43771 0.0
C724 C 0.70815 0.41877 0.52217 0.0
N725 N 0.70844 0.40653 0.50537 0.0
C726 C 0.69154 0.43167 0.52579 0.0
C727 C 0.67582 0.4192 0.49472 0.0
C728 C 0.69278 0.40667 0.49165 0.0
C729 C 0.67503 0.432 0.51197 0.0
H730 H 0.72091 0.4187 0.53268 0.0
H731 H 0.69334 0.39697 0.47834 0.0
O732 O 0.77479 0.36135 0.49568 0.0
O733 O 0.75429 0.39438 0.52112 0.0
O734 O 0.747 0.39474 0.47547 0.0
O735 O 0.72771 0.3589 0.50168 0.0
H736 H 0.76895 0.32174 0.50115 0.0
H737 H 0.80063 0.36681 0.46504 0.0
H738 H 0.7849 0.29451 0.48008 0.0
H739 H 0.81611 0.3388 0.4447 0.0
H740 H 0.74265 0.3889 0.58952 0.0
H741 H 0.7914 0.40442 0.53405 0.0
H742 H 0.73091 0.38721 0.55343 0.0
H743 H 0.80206 0.40591 0.57047 0.0
H744 H 0.84441 0.40665 0.49499 0.0
H745 H 0.8041 0.45677 0.47938 0.0
H746 H 0.73377 0.31025 0.56724 0.0
H747 H 0.79438 0.33573 0.57461 0.0
H748 H 0.71439 0.3836 0.45398 0.0
H749 H 0.77445 0.41026 0.45007 0.0
H750 H 0.71046 0.38816 0.41651 0.0
H751 H 0.76953 0.41424 0.41263 0.0
H752 H 0.7001 0.3528 0.47244 0.0
H753 H 0.70831 0.36448 0.53679 0.0
H754 H 0.66263 0.35244 0.47779 0.0
H755 H 0.67065 0.36416 0.54097 0.0
H756 H 0.72203 0.30241 0.44555 0.0
H757 H 0.76153 0.34028 0.40841 0.0
H758 H 0.69183 0.44153 0.53909 0.0
H759 H 0.66337 0.41869 0.48378 0.0
Li760 Li 0.64053 0.98314 0.75562 0.0
Li761 Li 0.61465 0.00492 0.77188 0.0
Li762 Li 0.61462 0.99815 0.73379 0.0
Li763 Li 0.64013 0.02118 0.74906 0.0
C764 C 0.6084 0.95854 0.76179 0.0
N765 N 0.60507 0.91764 0.7719 0.0
C766 C 0.60279 0.95276 0.78161 0.0
C767 C 0.61202 0.94353 0.74704 0.0
C768 C 0.60125 0.932 0.78644 0.0
C769 C 0.61036 0.92293 0.75248 0.0
C770 C 0.65089 0.01287 0.79401 0.0
C771 C 0.65509 0.04021 0.81841 0.0
N772 N 0.663 0.0267 0.83214 0.0
C773 C 0.65933 0.99931 0.80826 0.0
C774 C 0.64897 0.03353 0.79904 0.0
C775 C 0.66525 0.00658 0.82749 0.0
C776 C 0.67172 0.95519 0.74511 0.0
N777 N 0.65785 0.96003 0.75978 0.0
C778 C 0.66892 0.93196 0.78049 0.0
C779 C 0.65633 0.9489 0.77731 0.0
C780 C 0.68335 0.9265 0.76556 0.0
C781 C 0.68466 0.9384 0.74767 0.0
H782 H 0.67288 0.96447 0.73147 0.0
H783 H 0.64534 0.95318 0.78885 0.0
C784 C 0.57926 0.01784 0.79262 0.0
N785 N 0.59772 0.00869 0.79536 0.0
C786 C 0.56619 0.02085 0.80922 0.0
C787 C 0.59115 0.00459 0.83114 0.0
C788 C 0.60374 0.0019 0.81411 0.0
C789 C 0.57208 0.0142 0.82884 0.0
H790 H 0.57468 0.0228 0.7775 0.0
H791 H 0.61812 0.99402 0.81582 0.0
C792 C 0.64693 0.9957 0.70889 0.0
N793 N 0.6505 0.99062 0.66705 0.0
C794 C 0.65272 0.01213 0.6965 0.0
C795 C 0.64325 0.97661 0.70003 0.0
C796 C 0.65438 0.00928 0.67538 0.0
C797 C 0.64504 0.97437 0.67885 0.0
C798 C 0.60373 0.04419 0.74844 0.0
C799 C 0.59632 0.05297 0.73036 0.0
C800 C 0.60441 0.05585 0.76634 0.0
C801 C 0.59023 0.07343 0.73039 0.0
C802 C 0.59815 0.07625 0.76575 0.0
N803 N 0.59128 0.08455 0.74793 0.0
C804 C 0.58356 0.97836 0.71109 0.0
C805 C 0.59902 0.00621 0.69383 0.0
C806 C 0.5707 0.9747 0.6944 0.0
N807 N 0.59743 0.99383 0.71048 0.0
C808 C 0.5865 0.00309 0.67676 0.0
C809 C 0.57205 0.98715 0.67689 0.0
H810 H 0.58236 0.96893 0.72463 0.0
H811 H 0.61004 0.01852 0.69376 0.0
C812 C 0.67473 0.04617 0.75546 0.0
N813 N 0.65686 0.04479 0.74487 0.0
C814 C 0.68756 0.06304 0.75286 0.0
C815 C 0.6637 0.07654 0.728 0.0
C816 C 0.65126 0.05946 0.7312 0.0
C817 C 0.68211 0.07852 0.73896 0.0
H818 H 0.67911 0.03406 0.76584 0.0
H819 H 0.63733 0.05776 0.72249 0.0
O820 O 0.6102 0.97879 0.75685 0.0
O821 O 0.64494 0.00597 0.77513 0.0
O822 O 0.645 0.99826 0.72959 0.0
O823 O 0.60978 0.02416 0.74866 0.0
H824 H 0.59976 0.96414 0.79317 0.0
H825 H 0.61614 0.94772 0.73159 0.0
H826 H 0.59705 0.92731 0.80175 0.0
H827 H 0.61325 0.91116 0.74124 0.0
H828 H 0.65364 0.05616 0.8225 0.0
H829 H 0.66119 0.98333 0.80458 0.0
H830 H 0.6431 0.04435 0.78803 0.0
H831 H 0.67166 0.99621 0.83871 0.0
H832 H 0.6672 0.92314 0.79442 0.0
H833 H 0.69579 0.93502 0.73592 0.0
H834 H 0.5517 0.02846 0.80672 0.0
H835 H 0.59614 0.99881 0.84587 0.0
H836 H 0.65581 0.02696 0.70309 0.0
H837 H 0.63898 0.96368 0.7094 0.0
H838 H 0.65873 0.0219 0.66559 0.0
H839 H 0.6421 0.95971 0.67178 0.0
H840 H 0.59542 0.04414 0.71642 0.0
H841 H 0.60945 0.04918 0.78061 0.0
H842 H 0.58463 0.08044 0.71646 0.0
H843 H 0.59867 0.08544 0.7795 0.0
H844 H 0.55956 0.96248 0.69535 0.0
H845 H 0.58826 0.01294 0.66355 0.0
H846 H 0.7018 0.06376 0.76133 0.0
H847 H 0.6589 0.08811 0.71715 0.0
Li848 Li 0.01896 0.25275 0.86249 0.0
Li849 Li 0.99633 0.26966 0.88887 0.0
Li850 Li 0.00342 0.23145 0.88825 0.0
Li851 Li 0.98248 0.24698 0.86278 0.0
C852 C 0.04253 0.2611 0.89486 0.0
N853 N 0.08247 0.27464 0.89792 0.0
C854 C 0.04665 0.28149 0.89973 0.0
C855 C 0.05874 0.24754 0.89178 0.0
C856 C 0.06694 0.28805 0.90117 0.0
C857 C 0.07882 0.2547 0.89331 0.0
C858 C 0.98753 0.28164 0.84249 0.0
C859 C 0.96159 0.30335 0.82781 0.0
N860 N 0.96683 0.29667 0.80882 0.0
C861 C 0.99274 0.27507 0.82284 0.0
C862 C 0.97191 0.29595 0.84504 0.0
C863 C 0.98205 0.28282 0.806 0.0
C864 C 0.04802 0.24247 0.83214 0.0
N865 N 0.0422 0.25732 0.84544 0.0
C866 C 0.06913 0.27918 0.83383 0.0
C867 C 0.05214 0.27557 0.84626 0.0
C868 C 0.07567 0.26401 0.82012 0.0
C869 C 0.06481 0.24548 0.81932 0.0
H870 H 0.03952 0.22834 0.83133 0.0
H871 H 0.0468 0.28737 0.85649 0.0
C872 C 0.98735 0.28965 0.92573 0.0
N873 N 0.99226 0.29282 0.90579 0.0
C874 C 0.98439 0.30622 0.93884 0.0
C875 C 0.99188 0.329 0.91065 0.0
C876 C 0.99457 0.31197 0.89806 0.0
C877 C 0.98669 0.32627 0.93138 0.0
H878 H 0.98564 0.27421 0.93142 0.0
H879 H 0.99874 0.31399 0.88217 0.0
C880 C 0.00821 0.2062 0.85807 0.0
N881 N 0.01603 0.16468 0.85887 0.0
C882 C 0.99241 0.19219 0.85464 0.0
C883 C 0.02801 0.19905 0.86182 0.0
C884 C 0.99667 0.17127 0.85511 0.0
C885 C 0.03164 0.17802 0.86221 0.0
C886 C 0.95672 0.24333 0.89453 0.0
C887 C 0.94795 0.22484 0.88836 0.0
C888 C 0.94429 0.25879 0.90242 0.0
C889 C 0.92682 0.22217 0.89006 0.0
C890 C 0.92324 0.2555 0.90391 0.0
N891 N 0.91501 0.23742 0.89774 0.0
C892 C 0.02394 0.20956 0.91939 0.0
C893 C 0.99498 0.19229 0.90609 0.0
C894 C 0.02783 0.19346 0.9329 0.0
N895 N 0.00781 0.20866 0.90624 0.0
C896 C 0.99845 0.17572 0.91913 0.0
C897 C 0.01504 0.17622 0.9328 0.0
H898 H 0.03375 0.22285 0.91949 0.0
H899 H 0.98204 0.19201 0.89585 0.0
C900 C 0.96132 0.23111 0.82852 0.0
N901 N 0.95934 0.24394 0.84475 0.0
C902 C 0.94505 0.22812 0.81498 0.0
C903 C 0.92525 0.25239 0.83446 0.0
C904 C 0.9419 0.25487 0.84764 0.0
C905 C 0.92662 0.2387 0.81796 0.0
H906 H 0.97564 0.2233 0.82598 0.0
H907 H 0.94091 0.26558 0.86016 0.0
O908 O 0.02275 0.25445 0.89311 0.0
O909 O 0.99743 0.27379 0.85917 0.0
O910 O 0.00433 0.22677 0.85791 0.0
O911 O 0.97737 0.24629 0.89297 0.0
H912 H 0.03434 0.29219 0.90224 0.0
H913 H 0.05586 0.23169 0.88817 0.0
H914 H 0.07034 0.30382 0.90482 0.0
H915 H 0.09149 0.2444 0.89084 0.0
H916 H 0.94937 0.31433 0.82955 0.0
H917 H 0.00474 0.26391 0.82065 0.0
H918 H 0.9676 0.30106 0.86019 0.0
H919 H 0.98582 0.27779 0.79071 0.0
H920 H 0.07682 0.29382 0.83466 0.0
H921 H 0.06934 0.23336 0.80902 0.0
H922 H 0.98011 0.30333 0.95458 0.0
H923 H 0.99415 0.34412 0.90428 0.0
H924 H 0.97692 0.19734 0.85201 0.0
H925 H 0.04042 0.20963 0.86452 0.0
H926 H 0.98456 0.16028 0.8526 0.0
H927 H 0.04688 0.17231 0.86519 0.0
H928 H 0.95726 0.21287 0.8819 0.0
H929 H 0.9508 0.27323 0.90718 0.0
H930 H 0.91981 0.208 0.88518 0.0
H931 H 0.91343 0.26735 0.90993 0.0
H932 H 0.04082 0.1944 0.94317 0.0
H933 H 0.98806 0.16283 0.91879 0.0
H934 H 0.94699 0.21784 0.80216 0.0
H935 H 0.91136 0.2609 0.83734 0.0
Li936 Li 0.51933 0.75401 0.36275 0.0
Li937 Li 0.4979 0.76994 0.38896 0.0
Li938 Li 0.50513 0.73323 0.38973 0.0
Li939 Li 0.48237 0.74805 0.36386 0.0
C940 C 0.54448 0.76193 0.39316 0.0
N941 N 0.58487 0.77436 0.39234 0.0
C942 C 0.54951 0.78241 0.3966 0.0
C943 C 0.56 0.74776 0.38938 0.0
C944 C 0.57002 0.78839 0.39613 0.0
C945 C 0.58031 0.75436 0.38898 0.0
C946 C 0.48704 0.78104 0.34215 0.0
C947 C 0.45713 0.79564 0.32617 0.0
N948 N 0.46571 0.79264 0.30746 0.0
C949 C 0.49557 0.77812 0.32277 0.0
C950 C 0.46768 0.78991 0.34389 0.0
C951 C 0.48455 0.7841 0.30542 0.0
C952 C 0.54964 0.74248 0.33389 0.0
N953 N 0.54225 0.75821 0.34523 0.0
C954 C 0.56775 0.78074 0.33186 0.0
C955 C 0.55074 0.77715 0.34424 0.0
C956 C 0.57592 0.76474 0.32009 0.0
C957 C 0.56652 0.74541 0.32116 0.0
H958 H 0.54232 0.72769 0.33459 0.0
H959 H 0.54433 0.78947 0.35318 0.0
C960 C 0.50204 0.79227 0.42547 0.0
N961 N 0.49467 0.79335 0.40603 0.0
C962 C 0.49964 0.80871 0.43884 0.0
C963 C 0.4821 0.8271 0.41193 0.0
C964 C 0.48498 0.81034 0.39903 0.0
C965 C 0.48945 0.82644 0.43219 0.0
H966 H 0.50978 0.77857 0.43057 0.0
H967 H 0.47933 0.81082 0.3835 0.0
C968 C 0.50601 0.7072 0.3592 0.0
N969 N 0.50842 0.66504 0.35983 0.0
C970 C 0.4885 0.69538 0.35589 0.0
C971 C 0.52476 0.69758 0.36275 0.0
C972 C 0.49004 0.67408 0.35627 0.0
C973 C 0.52566 0.67625 0.36306 0.0
C974 C 0.46882 0.75389 0.41085 0.0
C975 C 0.47463 0.74657 0.43012 0.0
C976 C 0.45386 0.76907 0.40937 0.0
C977 C 0.4654 0.75461 0.44761 0.0
C978 C 0.44503 0.77675 0.42723 0.0
N979 N 0.45093 0.76942 0.44581 0.0
C980 C 0.52685 0.70887 0.41841 0.0
C981 C 0.49468 0.69559 0.40825 0.0
C982 C 0.53017 0.69207 0.43119 0.0
N983 N 0.50942 0.71021 0.40714 0.0
C984 C 0.49743 0.67844 0.42069 0.0
C985 C 0.51539 0.67648 0.4324 0.0
H986 H 0.5381 0.72093 0.41764 0.0
H987 H 0.48079 0.69724 0.39938 0.0
C988 C 0.46215 0.73649 0.32761 0.0
N989 N 0.45897 0.74315 0.34705 0.0
C990 C 0.44562 0.73299 0.31452 0.0
C991 C 0.42282 0.74342 0.34164 0.0
C992 C 0.4398 0.74651 0.35428 0.0
C993 C 0.42564 0.73654 0.32148 0.0
H994 H 0.47759 0.73397 0.32228 0.0
H995 H 0.43768 0.75163 0.36983 0.0
O996 O 0.52446 0.75583 0.39321 0.0
O997 O 0.49735 0.77478 0.35929 0.0
O998 O 0.50476 0.72808 0.35923 0.0
O999 O 0.47806 0.7466 0.39357 0.0
H1000 H 0.53772 0.79364 0.39935 0.0
H1001 H 0.55637 0.73189 0.38651 0.0
H1002 H 0.57413 0.80421 0.39868 0.0
H1003 H 0.59246 0.74358 0.38594 0.0
H1004 H 0.44207 0.80235 0.32728 0.0
H1005 H 0.51043 0.77112 0.3211 0.0
H1006 H 0.46067 0.79193 0.35873 0.0
H1007 H 0.49093 0.78186 0.29033 0.0
H1008 H 0.57454 0.79583 0.33174 0.0
H1009 H 0.57195 0.73273 0.31205 0.0
H1010 H 0.5059 0.80758 0.45415 0.0
H1011 H 0.4739 0.84027 0.40616 0.0
H1012 H 0.47382 0.70253 0.35333 0.0
H1013 H 0.53843 0.70648 0.36551 0.0
H1014 H 0.47659 0.66475 0.35382 0.0
H1015 H 0.54004 0.66861 0.36592 0.0
H1016 H 0.48629 0.73496 0.4316 0.0
H1017 H 0.44945 0.77522 0.39463 0.0
H1018 H 0.4698 0.74914 0.46261 0.0
H1019 H 0.43357 0.78863 0.42631 0.0
H1020 H 0.54404 0.69149 0.44026 0.0
H1021 H 0.48568 0.66677 0.42093 0.0
H1022 H 0.44845 0.72785 0.29903 0.0
H1023 H 0.40764 0.74613 0.34764 0.0
Li1024 Li 0.00498 0.77056 0.61427 0.0
Li1025 Li 0.98283 0.75676 0.63957 0.0
Li1026 Li 0.02099 0.74965 0.64071 0.0
Li1027 Li 0.99724 0.7345 0.61419 0.0
C1028 C 0.0114 0.79608 0.64567 0.0
N1029 N 0.0222 0.83686 0.64824 0.0
C1030 C 0.99774 0.81123 0.63929 0.0
C1031 C 0.03055 0.80169 0.65341 0.0
C1032 C 0.00349 0.83175 0.64067 0.0
C1033 C 0.03572 0.82239 0.65459 0.0
C1034 C 0.95777 0.76161 0.6094 0.0
C1035 C 0.92275 0.75064 0.6133 0.0
N1036 N 0.91641 0.77023 0.61048 0.0
C1037 C 0.95089 0.78164 0.6065 0.0
C1038 C 0.94358 0.74598 0.61276 0.0
C1039 C 0.92992 0.78568 0.6071 0.0
C1040 C 0.99794 0.79551 0.57964 0.0
N1041 N 0.01062 0.79294 0.59596 0.0
C1042 C 0.03099 0.8214 0.58532 0.0
C1043 C 0.02721 0.80521 0.59872 0.0
C1044 C 0.01777 0.82482 0.56868 0.0
C1045 C 0.00117 0.81147 0.56582 0.0
H1046 H 0.98534 0.78508 0.57728 0.0
H1047 H 0.03763 0.80235 0.61124 0.0
C1048 C 0.95326 0.7453 0.66908 0.0
N1049 N 0.95974 0.76104 0.65714 0.0
C1050 C 0.93653 0.74776 0.68211 0.0
C1051 C 0.93346 0.78265 0.67041 0.0
C1052 C 0.95032 0.77954 0.65773 0.0
C1053 C 0.92635 0.76666 0.6829 0.0
H1054 H 0.96118 0.73084 0.66865 0.0
H1055 H 0.95575 0.7919 0.64827 0.0
C1056 C 0.03589 0.75322 0.59467 0.0
N1057 N 0.05822 0.76667 0.56146 0.0
C1058 C 0.02824 0.75068 0.57484 0.0
C1059 C 0.05493 0.76246 0.59763 0.0
C1060 C 0.03975 0.75763 0.55824 0.0
C1061 C 0.06599 0.76919 0.58063 0.0
C1062 C 0.99626 0.70962 0.64633 0.0
C1063 C 0.01361 0.69845 0.65191 0.0
C1064 C 0.97794 0.69936 0.64224 0.0
C1065 C 0.0124 0.67715 0.65302 0.0
C1066 C 0.97736 0.67805 0.64349 0.0
N1067 N 0.99447 0.66748 0.64879 0.0
C1068 C 0.04371 0.75161 0.6773 0.0
C1069 C 0.06066 0.73512 0.64986 0.0
C1070 C 0.06055 0.74852 0.69011 0.0
N1071 N 0.04415 0.74506 0.65758 0.0
C1072 C 0.07774 0.73146 0.6622 0.0
C1073 C 0.07785 0.7383 0.68259 0.0
H1074 H 0.03027 0.75933 0.68303 0.0
H1075 H 0.06048 0.72994 0.63414 0.0
C1076 C 0.97756 0.71061 0.58386 0.0
N1077 N 0.99357 0.71115 0.59714 0.0
C1078 C 0.97476 0.69382 0.57099 0.0
C1079 C 0.00521 0.67859 0.5854 0.0
C1080 C 0.00748 0.69574 0.59792 0.0
C1081 C 0.98863 0.67743 0.5717 0.0
H1082 H 0.96711 0.72335 0.58303 0.0
H1083 H 0.02036 0.6968 0.60826 0.0
O1084 O 0.00607 0.77588 0.64447 0.0
O1085 O 0.97827 0.75736 0.60918 0.0
O1086 O 0.02459 0.74703 0.61112 0.0
O1087 O 0.99723 0.73047 0.64486 0.0
H1088 H 0.98306 0.8072 0.63288 0.0
H1089 H 0.04141 0.79022 0.65827 0.0
H1090 H 0.99312 0.84361 0.63563 0.0
H1091 H 0.05051 0.82694 0.66048 0.0
H1092 H 0.91163 0.73869 0.61599 0.0
H1093 H 0.96158 0.79402 0.60415 0.0
H1094 H 0.94859 0.73042 0.61508 0.0
H1095 H 0.92441 0.80112 0.60499 0.0
H1096 H 0.04428 0.83098 0.58781 0.0
H1097 H 0.99059 0.8135 0.55321 0.0
H1098 H 0.93189 0.73509 0.69172 0.0
H1099 H 0.92598 0.7974 0.67025 0.0
H1100 H 0.01345 0.74364 0.57234 0.0
H1101 H 0.06098 0.76466 0.61292 0.0
H1102 H 0.03398 0.7559 0.54281 0.0
H1103 H 0.0807 0.77648 0.58268 0.0
H1104 H 0.02788 0.70609 0.65523 0.0
H1105 H 0.96434 0.70773 0.63801 0.0
H1106 H 0.02574 0.66831 0.65722 0.0
H1107 H 0.96332 0.66992 0.64022 0.0
H1108 H 0.05994 0.75381 0.7058 0.0
H1109 H 0.09083 0.72363 0.6558 0.0
H1110 H 0.96205 0.69387 0.56033 0.0
H1111 H 0.01623 0.66631 0.58659 0.0
Li1112 Li 0.50413 0.26966 0.11371 0.0
Li1113 Li 0.48338 0.25393 0.13905 0.0
Li1114 Li 0.51985 0.24841 0.1393 0.0
Li1115 Li 0.49721 0.23147 0.11282 0.0
C1116 C 0.50865 0.29492 0.14358 0.0
N1117 N 0.51564 0.33658 0.14192 0.0
C1118 C 0.49249 0.30863 0.14617 0.0
C1119 C 0.52838 0.30243 0.14022 0.0
C1120 C 0.49633 0.32963 0.14529 0.0
C1121 C 0.5316 0.32353 0.13938 0.0
C1122 C 0.45725 0.25698 0.10765 0.0
C1123 C 0.42394 0.24362 0.09899 0.0
N1124 N 0.4153 0.26147 0.10516 0.0
C1125 C 0.44803 0.27521 0.11384 0.0
C1126 C 0.44511 0.24105 0.10014 0.0
C1127 C 0.4268 0.27717 0.1125 0.0
C1128 C 0.52564 0.29298 0.08431 0.0
N1129 N 0.50846 0.29266 0.09597 0.0
C1130 C 0.49803 0.32497 0.08235 0.0
C1131 C 0.49462 0.30813 0.09504 0.0
C1132 C 0.51573 0.32582 0.07022 0.0
C1133 C 0.5296 0.30946 0.07128 0.0
H1134 H 0.53624 0.28037 0.08498 0.0
H1135 H 0.481 0.30755 0.10429 0.0
C1136 C 0.46211 0.26986 0.17312 0.0
N1137 N 0.46036 0.25665 0.15717 0.0
C1138 C 0.44585 0.27266 0.18663 0.0
C1139 C 0.42656 0.24744 0.1677 0.0
C1140 C 0.4432 0.24516 0.15455 0.0
C1141 C 0.42767 0.26152 0.1839 0.0
H1142 H 0.47622 0.27814 0.17547 0.0
H1143 H 0.4424 0.23417 0.14225 0.0
C1144 C 0.54338 0.24022 0.10715 0.0
N1145 N 0.58331 0.22667 0.10456 0.0
C1146 C 0.5475 0.22003 0.10155 0.0
C1147 C 0.55959 0.25357 0.11121 0.0
C1148 C 0.56778 0.21346 0.10036 0.0
C1149 C 0.57966 0.24641 0.10989 0.0
C1150 C 0.48881 0.21907 0.15911 0.0
C1151 C 0.49389 0.22577 0.17879 0.0
C1152 C 0.47361 0.20426 0.15651 0.0
C1153 C 0.48348 0.21764 0.19559 0.0
C1154 C 0.46358 0.1965 0.17371 0.0
N1155 N 0.46866 0.20331 0.19272 0.0
C1156 C 0.54913 0.25862 0.16964 0.0
C1157 C 0.55288 0.22548 0.15558 0.0
C1158 C 0.56603 0.25556 0.18238 0.0
N1159 N 0.54309 0.24378 0.1564 0.0
C1160 C 0.56993 0.2218 0.16796 0.0
C1161 C 0.57678 0.23699 0.18158 0.0
H1162 H 0.54068 0.27276 0.17052 0.0
H1163 H 0.54745 0.21374 0.14528 0.0
C1164 C 0.48716 0.2113 0.07622 0.0
N1165 N 0.49316 0.20827 0.09592 0.0
C1166 C 0.4839 0.19464 0.06328 0.0
C1167 C 0.49364 0.17209 0.09099 0.0
C1168 C 0.49646 0.18919 0.10349 0.0
C1169 C 0.48717 0.17472 0.07063 0.0
H1170 H 0.48482 0.22669 0.07062 0.0
H1171 H 0.50138 0.18729 0.1192 0.0
O1172 O 0.50517 0.27427 0.14407 0.0
O1173 O 0.47803 0.25473 0.10884 0.0
O1174 O 0.52359 0.24685 0.10866 0.0
O1175 O 0.49843 0.22724 0.14246 0.0
H1176 H 0.47706 0.30319 0.14851 0.0
H1177 H 0.54107 0.2921 0.13812 0.0
H1178 H 0.48394 0.34039 0.14716 0.0
H1179 H 0.54678 0.32952 0.13669 0.0
H1180 H 0.41436 0.23139 0.09327 0.0
H1181 H 0.45709 0.28753 0.12008 0.0
H1182 H 0.45191 0.22676 0.09543 0.0
H1183 H 0.41947 0.29114 0.11741 0.0
H1184 H 0.487 0.3373 0.08227 0.0
H1185 H 0.54325 0.30919 0.06194 0.0
H1186 H 0.44759 0.28326 0.19923 0.0
H1187 H 0.41288 0.2385 0.16501 0.0
H1188 H 0.5352 0.20949 0.09824 0.0
H1189 H 0.55673 0.26925 0.11547 0.0
H1190 H 0.57118 0.19785 0.09614 0.0
H1191 H 0.59233 0.25655 0.11313 0.0
H1192 H 0.50556 0.2373 0.18101 0.0
H1193 H 0.46943 0.19903 0.14135 0.0
H1194 H 0.48714 0.22278 0.2109 0.0
H1195 H 0.45169 0.18513 0.17193 0.0
H1196 H 0.57038 0.26751 0.19298 0.0
H1197 H 0.57776 0.20729 0.16671 0.0
H1198 H 0.47913 0.19732 0.04761 0.0
H1199 H 0.49622 0.15697 0.09725 0.0
H1200 H 0.25318 0.74374 0.81989 0.0
H1201 H 0.20213 0.79665 0.91757 0.0
H1202 H 0.18893 0.73928 0.83407 0.0
H1203 H 0.26335 0.81013 0.89685 0.0
H1204 H 0.19753 0.77408 0.8882 0.0
H1205 H 0.25783 0.76629 0.84938 0.0
C1206 C 0.24007 0.74744 0.82928 0.0
C1207 C 0.22064 0.73963 0.82452 0.0
C1208 C 0.21196 0.782 0.89007 0.0
C1209 C 0.22582 0.7655 0.85824 0.0
C1210 C 0.21458 0.795 0.9068 0.0
C1211 C 0.23316 0.80541 0.90973 0.0
C1212 C 0.22806 0.77923 0.87617 0.0
C1213 C 0.24886 0.80225 0.89543 0.0
C1214 C 0.24271 0.7604 0.84604 0.0
C1215 C 0.20414 0.74513 0.83707 0.0
N1216 N 0.24596 0.78945 0.8793 0.0
N1217 N 0.20711 0.75767 0.85338 0.0
H1218 H 0.99144 0.50107 0.43285 0.0
H1219 H 0.06351 0.55073 0.34738 0.0
H1220 H 0.99587 0.56612 0.42248 0.0
H1221 H 0.0485 0.48647 0.34973 0.0
H1222 H 0.04069 0.55662 0.37633 0.0
H1223 H 0.01429 0.49538 0.40394 0.0
C1224 C 0.99711 0.51418 0.42445 0.0
C1225 C 0.99161 0.53413 0.43013 0.0
C1226 C 0.0424 0.54124 0.37049 0.0
C1227 C 0.01812 0.52768 0.39712 0.0
C1228 C 0.05535 0.53786 0.35387 0.0
C1229 C 0.05798 0.51805 0.34601 0.0
C1230 C 0.03203 0.52469 0.37945 0.0
C1231 C 0.04726 0.50195 0.3554 0.0
C1232 C 0.01026 0.5109 0.40798 0.0
C1233 C 0.99985 0.55049 0.41887 0.0
N1234 N 0.0348 0.50563 0.3716 0.0
N1235 N 0.01268 0.5469 0.40293 0.0
H1236 H 0.78075 0.78717 0.84778 0.0
H1237 H 0.76568 0.67227 0.88649 0.0
H1238 H 0.78758 0.73486 0.80826 0.0
H1239 H 0.7755 0.72323 0.92736 0.0
H1240 H 0.77113 0.69509 0.85739 0.0
H1241 H 0.77578 0.76413 0.87688 0.0
C1242 C 0.78111 0.77082 0.84523 0.0
C1243 C 0.78456 0.7629 0.82559 0.0
C1244 C 0.77212 0.70124 0.87274 0.0
C1245 C 0.77894 0.73644 0.8588 0.0
C1246 C 0.76912 0.6882 0.88941 0.0
C1247 C 0.77011 0.69577 0.90952 0.0
C1248 C 0.77597 0.72207 0.87613 0.0
C1249 C 0.77422 0.71669 0.9122 0.0
C1250 C 0.7784 0.75768 0.86185 0.0
C1251 C 0.78513 0.74159 0.82318 0.0
N1252 N 0.77692 0.72909 0.89572 0.0
N1253 N 0.78225 0.72909 0.83958 0.0
H1254 H 0.98666 0.96415 0.44552 0.0
H1255 H 0.97408 0.98017 0.32489 0.0
H1256 H 0.03773 0.97329 0.40483 0.0
H1257 H 0.92439 0.98799 0.36761 0.0
H1258 H 0.99735 0.97484 0.35364 0.0
H1259 H 0.96326 0.96975 0.41674 0.0
C1260 C 0.99293 0.96727 0.4305 0.0
C1261 C 0.01416 0.96826 0.42753 0.0
C1262 C 0.98135 0.97776 0.35671 0.0
C1263 C 0.98751 0.97469 0.39458 0.0
C1264 C 0.96804 0.98093 0.34029 0.0
C1265 C 0.94717 0.98464 0.34375 0.0
C1266 C 0.97378 0.9781 0.37679 0.0
C1267 C 0.94025 0.98492 0.36411 0.0
C1268 C 0.97958 0.97057 0.41412 0.0
C1269 C 0.02146 0.97257 0.40781 0.0
N1270 N 0.9535 0.98166 0.37983 0.0
N1271 N 0.00817 0.97553 0.39206 0.0
H1272 H 0.21515 0.23388 0.6969 0.0
H1273 H 0.2398 0.22475 0.57716 0.0
H1274 H 0.22626 0.28578 0.65763 0.0
H1275 H 0.23531 0.17269 0.61753 0.0
H1276 H 0.23383 0.24732 0.60631 0.0
H1277 H 0.22137 0.21115 0.66785 0.0
C1278 C 0.21882 0.24049 0.68215 0.0
C1279 C 0.2202 0.26176 0.67969 0.0
C1280 C 0.23419 0.23096 0.60882 0.0
C1281 C 0.22745 0.23585 0.6464 0.0
C1282 C 0.23748 0.21806 0.59215 0.0
C1283 C 0.23801 0.19679 0.5949 0.0
C1284 C 0.23127 0.22256 0.6284 0.0
C1285 C 0.23522 0.189 0.61474 0.0
C1286 C 0.22249 0.22751 0.6656 0.0
C1287 C 0.22527 0.26948 0.66028 0.0
N1288 N 0.2319 0.20187 0.63072 0.0
N1289 N 0.22865 0.25654 0.64439 0.0
H1290 H 0.48391 0.53789 0.55635 0.0
H1291 H 0.47434 0.5175 0.67682 0.0
H1292 H 0.53573 0.52679 0.59581 0.0
H1293 H 0.42258 0.51804 0.63574 0.0
H1294 H 0.49703 0.52289 0.64761 0.0
H1295 H 0.46112 0.53264 0.58555 0.0
C1296 C 0.49048 0.53443 0.57119 0.0
C1297 C 0.51174 0.53278 0.57366 0.0
C1298 C 0.48071 0.5218 0.64497 0.0
C1299 C 0.48577 0.52667 0.60712 0.0
C1300 C 0.46774 0.51885 0.66166 0.0
C1301 C 0.44653 0.51735 0.65871 0.0
C1302 C 0.47242 0.52341 0.62518 0.0
C1303 C 0.43885 0.51892 0.63868 0.0
C1304 C 0.47747 0.53131 0.58782 0.0
C1305 C 0.51942 0.528 0.59318 0.0
N1306 N 0.45178 0.52194 0.62269 0.0
N1307 N 0.50645 0.52519 0.60916 0.0
H1308 H 0.77363 0.21734 0.65521 0.0
H1309 H 0.78226 0.33092 0.61032 0.0
H1310 H 0.79155 0.26938 0.6917 0.0
H1311 H 0.75475 0.28071 0.57746 0.0
H1312 H 0.78779 0.30827 0.63965 0.0
H1313 H 0.76825 0.24006 0.62604 0.0
C1314 C 0.7763 0.23356 0.65716 0.0
C1315 C 0.78299 0.24143 0.67603 0.0
C1316 C 0.78052 0.30222 0.62603 0.0
C1317 C 0.77718 0.26754 0.64247 0.0
C1318 C 0.77747 0.31511 0.60924 0.0
C1319 C 0.76801 0.30771 0.59142 0.0
C1320 C 0.77419 0.28172 0.62496 0.0
C1321 C 0.76188 0.28714 0.59098 0.0
C1322 C 0.77333 0.24652 0.64044 0.0
C1323 C 0.78662 0.26256 0.67743 0.0
N1324 N 0.76513 0.27486 0.60746 0.0
N1325 N 0.78368 0.27486 0.66089 0.0
H1326 H 0.49276 0.00212 0.57136 0.0
H1327 H 0.55953 0.95057 0.66045 0.0
H1328 H 0.49498 0.93707 0.58226 0.0
H1329 H 0.55326 0.01578 0.6525 0.0
H1330 H 0.53659 0.94526 0.63137 0.0
H1331 H 0.51554 0.00737 0.60056 0.0
C1332 C 0.49793 0.98893 0.57996 0.0
C1333 C 0.49188 0.96911 0.57433 0.0
C1334 C 0.54024 0.96074 0.63598 0.0
C1335 C 0.51824 0.97502 0.6077 0.0
C1336 C 0.55326 0.96379 0.65267 0.0
C1337 C 0.55835 0.98367 0.659 0.0
C1338 C 0.53221 0.97767 0.62547 0.0
C1339 C 0.55002 1.00019 0.64805 0.0
C1340 C 0.51104 0.99194 0.59658 0.0
C1341 C 0.49941 0.9526 0.58586 0.0
N1342 N 0.53736 0.99681 0.63186 0.0
N1343 N 0.51217 0.95593 0.60198 0.0
H1344 H 0.82055 0.25397 0.73942 0.0
H1345 H 0.9129 0.2026 0.80166 0.0
H1346 H 0.83257 0.18913 0.74008 0.0
H1347 H 0.90003 0.26728 0.80241 0.0
H1348 H 0.88385 0.19746 0.77868 0.0
H1349 H 0.84988 0.25924 0.76207 0.0
C1350 C 0.82941 0.24084 0.74425 0.0
C1351 C 0.82407 0.22107 0.73783 0.0
C1352 C 0.88736 0.21279 0.78386 0.0
C1353 C 0.85761 0.22698 0.76393 0.0
C1354 C 0.90404 0.21575 0.7969 0.0
C1355 C 0.90895 0.23541 0.80397 0.0
C1356 C 0.87547 0.2296 0.77777 0.0
C1357 C 0.89668 0.25182 0.79754 0.0
C1358 C 0.8461 0.24386 0.75728 0.0
C1359 C 0.83595 0.20461 0.74484 0.0
N1360 N 0.88054 0.24855 0.78479 0.0
N1361 N 0.85216 0.20794 0.75747 0.0
H1362 H 0.46858 0.94661 0.48414 0.0
H1363 H 0.48148 0.8257 0.47352 0.0
H1364 H 0.47618 0.90639 0.53598 0.0
H1365 H 0.49052 0.86754 0.42313 0.0
H1366 H 0.47696 0.85481 0.49637 0.0
H1367 H 0.47377 0.91751 0.46121 0.0
C1368 C 0.47129 0.93163 0.49068 0.0
C1369 C 0.47194 0.92889 0.51198 0.0
C1370 C 0.47998 0.8576 0.48031 0.0
C1371 C 0.47788 0.89555 0.48587 0.0
C1372 C 0.48268 0.84097 0.46724 0.0
C1373 C 0.48647 0.84408 0.44629 0.0
C1374 C 0.48087 0.87754 0.47243 0.0
C1375 C 0.48734 0.86431 0.43905 0.0
C1376 C 0.47436 0.91506 0.4776 0.0
C1377 C 0.47573 0.9092 0.51964 0.0
N1378 N 0.48452 0.88024 0.45208 0.0
N1379 N 0.47845 0.89326 0.5066 0.0
H1380 H 0.15719 0.273 0.71615 0.0
H1381 H 0.11243 0.28181 0.8298 0.0
H1382 H 0.19344 0.29161 0.76823 0.0
H1383 H 0.07956 0.2543 0.77951 0.0
H1384 H 0.14166 0.28738 0.80713 0.0
H1385 H 0.1281 0.26753 0.73885 0.0
C1386 C 0.15911 0.2758 0.73237 0.0
C1387 C 0.17788 0.28272 0.74026 0.0
C1388 C 0.12806 0.2801 0.80106 0.0
C1389 C 0.14442 0.2768 0.76635 0.0
C1390 C 0.11133 0.27703 0.81396 0.0
C1391 C 0.09353 0.26755 0.80655 0.0
C1392 C 0.12695 0.27379 0.78053 0.0
C1393 C 0.09305 0.26144 0.78595 0.0
C1394 C 0.14243 0.27279 0.74532 0.0
C1395 C 0.17924 0.2865 0.7614 0.0
N1396 N 0.10949 0.26471 0.77367 0.0
N1397 N 0.16275 0.28351 0.77369 0.0
H1398 H 0.49947 0.57106 0.51146 0.0
H1399 H 0.55122 0.65592 0.44023 0.0
H1400 H 0.5647 0.58088 0.50834 0.0
H1401 H 0.48698 0.65567 0.45544 0.0
H1402 H 0.55625 0.62665 0.46289 0.0
H1403 H 0.4944 0.60029 0.48872 0.0
C1404 C 0.51274 0.5794 0.5061 0.0
C1405 C 0.53256 0.57345 0.51191 0.0
C1406 C 0.54106 0.63303 0.46127 0.0
C1407 C 0.52683 0.60678 0.48553 0.0
C1408 C 0.53817 0.64983 0.4484 0.0
C1409 C 0.51864 0.65841 0.44591 0.0
C1410 C 0.52429 0.62457 0.47166 0.0
C1411 C 0.50227 0.64947 0.45661 0.0
C1412 C 0.50982 0.59604 0.49302 0.0
C1413 C 0.54916 0.58466 0.50408 0.0
N1414 N 0.50547 0.63306 0.46898 0.0
N1415 N 0.54591 0.60074 0.4913 0.0
H1416 H 0.81934 0.7507 0.75983 0.0
H1417 H 0.91654 0.80091 0.70508 0.0
H1418 H 0.83378 0.815 0.76265 0.0
H1419 H 0.89569 0.7395 0.69265 0.0
H1420 H 0.88729 0.80581 0.72762 0.0
H1421 H 0.84842 0.74565 0.73683 0.0
C1422 C 0.82867 0.76374 0.75564 0.0
C1423 C 0.82412 0.78331 0.76313 0.0
C1424 C 0.88909 0.79127 0.71993 0.0
C1425 C 0.85737 0.77766 0.73682 0.0
C1426 C 0.90575 0.78848 0.70694 0.0
C1427 C 0.90862 0.76977 0.69682 0.0
C1428 C 0.87518 0.7752 0.72301 0.0
C1429 C 0.89431 0.7541 0.70029 0.0
C1430 C 0.84519 0.76087 0.74244 0.0
C1431 C 0.83658 0.7997 0.75705 0.0
N1432 N 0.87824 0.75716 0.71309 0.0
N1433 N 0.85266 0.79649 0.74432 0.0
H1434 H 0.04335 0.94386 0.51631 0.0
H1435 H 0.01369 0.82547 0.52683 0.0
H1436 H 0.02793 0.90542 0.46487 0.0
H1437 H 0.02965 0.8639 0.57812 0.0
H1438 H 0.01875 0.85455 0.50389 0.0
H1439 H 0.03857 0.91468 0.53915 0.0
C1440 C 0.03906 0.92925 0.5098 0.0
C1441 C 0.03607 0.9271 0.48861 0.0
C1442 C 0.02116 0.85663 0.52016 0.0
C1443 C 0.03037 0.89361 0.51475 0.0
C1444 C 0.01818 0.84004 0.53329 0.0
C1445 C 0.02121 0.84223 0.55446 0.0
C1446 C 0.02721 0.87559 0.52822 0.0
C1447 C 0.02736 0.86142 0.5619 0.0
C1448 C 0.03623 0.91261 0.52287 0.0
C1449 C 0.03017 0.90787 0.48111 0.0
N1450 N 0.03011 0.87735 0.54881 0.0
N1451 N 0.02754 0.89187 0.49415 0.0
H1452 H 0.18214 0.75293 0.76309 0.0
H1453 H 0.10009 0.70314 0.68724 0.0
H1454 H 0.17431 0.68771 0.75645 0.0
H1455 H 0.09661 0.7655 0.7083 0.0
H1456 H 0.12971 0.69771 0.70961 0.0
H1457 H 0.15297 0.7583 0.74036 0.0
C1458 C 0.17425 0.73971 0.75698 0.0
C1459 C 0.18073 0.71981 0.76184 0.0
C1460 C 0.12244 0.71257 0.70935 0.0
C1461 C 0.14749 0.72593 0.73539 0.0
C1462 C 0.10563 0.71571 0.6965 0.0
C1463 C 0.09588 0.7348 0.69595 0.0
C1464 C 0.1297 0.7287 0.72154 0.0
C1465 C 0.10356 0.7505 0.70842 0.0
C1466 C 0.15764 0.74282 0.7439 0.0
C1467 C 0.17012 0.70333 0.75298 0.0
N1468 N 0.12006 0.74713 0.72064 0.0
N1469 N 0.15406 0.70676 0.74017 0.0
H1470 H 0.93808 0.58295 0.49386 0.0
H1471 H 0.01819 0.65516 0.55181 0.0
H1472 H 0.00327 0.57269 0.49308 0.0
H1473 H 0.95284 0.65853 0.5604 0.0
H1474 H 0.0132 0.62583 0.52923 0.0
H1475 H 0.94334 0.61165 0.51708 0.0
C1476 C 0.9535 0.58663 0.49867 0.0
C1477 C 0.97025 0.57528 0.49152 0.0
C1478 C 0.99996 0.63298 0.53609 0.0
C1479 C 0.97641 0.60844 0.51795 0.0
C1480 C 0.0028 0.64968 0.54909 0.0
C1481 C 0.98591 0.65941 0.55807 0.0
C1482 C 0.98008 0.62596 0.53191 0.0
C1483 C 0.96631 0.65178 0.55362 0.0
C1484 C 0.9565 0.60311 0.51187 0.0
C1485 C 0.98992 0.58111 0.49798 0.0
N1486 N 0.96395 0.63556 0.54086 0.0
N1487 N 0.99245 0.59728 0.51081 0.0
H1488 H 0.74531 0.81853 0.25353 0.0
H1489 H 0.79648 0.91796 0.20404 0.0
H1490 H 0.74059 0.83343 0.18934 0.0
H1491 H 0.81486 0.89337 0.26255 0.0
H1492 H 0.77331 0.88889 0.19947 0.0
H1493 H 0.76827 0.84778 0.25826 0.0
C1494 C 0.74906 0.82802 0.24046 0.0
C1495 C 0.74108 0.82356 0.22101 0.0
C1496 C 0.78245 0.88983 0.21329 0.0
C1497 C 0.76728 0.85699 0.2263 0.0
C1498 C 0.79557 0.90646 0.21595 0.0
C1499 C 0.80761 0.90804 0.23368 0.0
C1500 C 0.78116 0.87479 0.22859 0.0
C1501 C 0.80599 0.89262 0.24855 0.0
C1502 C 0.76224 0.84462 0.24314 0.0
C1503 C 0.74657 0.83623 0.20455 0.0
N1504 N 0.79293 0.87668 0.24572 0.0
N1505 N 0.75926 0.85242 0.20758 0.0
H1506 H 0.76876 0.19362 0.29084 0.0
H1507 H 0.77997 0.0789 0.25055 0.0
H1508 H 0.71725 0.15638 0.27268 0.0
H1509 H 0.82784 0.11065 0.28315 0.0
H1510 H 0.75742 0.10825 0.25577 0.0
H1511 H 0.79124 0.16433 0.2857 0.0
C1512 C 0.76212 0.17927 0.28591 0.0
C1513 C 0.741 0.17752 0.28227 0.0
C1514 C 0.77285 0.10878 0.26181 0.0
C1515 C 0.76682 0.14397 0.27596 0.0
C1516 C 0.78575 0.0921 0.25873 0.0
C1517 C 0.8058 0.09235 0.26644 0.0
C1518 C 0.78009 0.12595 0.2725 0.0
C1519 C 0.81243 0.10975 0.27713 0.0
C1520 C 0.77501 0.16257 0.28288 0.0
C1521 C 0.73343 0.15859 0.27543 0.0
N1522 N 0.79963 0.12588 0.27977 0.0
N1523 N 0.74632 0.1426 0.27248 0.0
H1524 H 0.43137 0.00973 0.0041 0.0
H1525 H 0.34468 0.94092 0.95152 0.0
H1526 H 0.42166 0.00663 0.93877 0.0
H1527 H 0.34861 0.9512 0.0167 0.0
H1528 H 0.37396 0.96356 0.94662 0.0
H1529 H 0.40215 0.98699 0.00908 0.0
C1530 C 0.42304 0.00438 0.99079 0.0
C1531 C 0.42901 0.01018 0.97097 0.0
C1532 C 0.36842 0.96086 0.962 0.0
C1533 C 0.39566 0.98384 0.97658 0.0
C1534 C 0.35161 0.948 0.96481 0.0
C1535 C 0.34406 0.94415 0.98456 0.0
C1536 C 0.37786 0.96994 0.97905 0.0
C1537 C 0.35401 0.95347 0.00121 0.0
C1538 C 0.40641 0.99129 0.99365 0.0
C1539 C 0.41782 0.0024 0.95431 0.0
N1540 N 0.37036 0.96593 0.99807 0.0
N1541 N 0.40171 0.98964 0.9575 0.0
H1542 H 0.26184 0.31871 0.25001 0.0
H1543 H 0.19933 0.41079 0.30085 0.0
H1544 H 0.26107 0.33108 0.31489 0.0
H1545 H 0.19996 0.39874 0.23589 0.0
H1546 H 0.22198 0.38164 0.30622 0.0
H1547 H 0.23919 0.34791 0.24446 0.0
C1548 C 0.25698 0.32761 0.26309 0.0
C1549 C 0.26339 0.32242 0.28296 0.0
C1550 C 0.21717 0.38535 0.29078 0.0
C1551 C 0.2373 0.3558 0.27672 0.0
C1552 C 0.20433 0.40209 0.28768 0.0
C1553 C 0.19775 0.40728 0.26787 0.0
C1554 C 0.22356 0.37366 0.27395 0.0
C1555 C 0.20444 0.39518 0.25145 0.0
C1556 C 0.24396 0.34422 0.25992 0.0
C1557 C 0.25633 0.33434 0.29934 0.0
N1558 N 0.217 0.37898 0.25486 0.0
N1559 N 0.24371 0.35047 0.29586 0.0
H1560 H 0.07368 0.98911 0.50089 0.0
H1561 H 0.15876 0.06126 0.45068 0.0
H1562 H 0.08368 0.99327 0.4357 0.0
H1563 H 0.15581 0.04761 0.51531 0.0
H1564 H 0.13005 0.03803 0.44485 0.0
H1565 H 0.10246 0.0122 0.50644 0.0
C1566 C 0.08199 0.99476 0.48773 0.0
C1567 C 0.07625 0.98911 0.46778 0.0
C1568 C 0.13571 0.04013 0.4603 0.0
C1569 C 0.10911 0.01591 0.47406 0.0
C1570 C 0.15218 0.05332 0.46364 0.0
C1571 C 0.15979 0.05645 0.48354 0.0
C1572 C 0.12666 0.03003 0.47697 0.0
C1573 C 0.15032 0.04598 0.49976 0.0
C1574 C 0.09838 0.00805 0.49092 0.0
C1575 C 0.08737 0.99734 0.45133 0.0
N1576 N 0.13428 0.03328 0.49611 0.0
N1577 N 0.10326 0.01032 0.45483 0.0
H1578 H 0.75839 0.17276 0.6856 0.0
H1579 H 0.70284 0.10094 0.76778 0.0
H1580 H 0.76153 0.18296 0.75083 0.0
H1581 H 0.69247 0.09681 0.70264 0.0
H1582 H 0.72564 0.13002 0.76192 0.0
H1583 H 0.73522 0.14412 0.69158 0.0
C1584 C 0.75411 0.16909 0.70119 0.0
C1585 C 0.76194 0.18039 0.71773 0.0
C1586 C 0.71834 0.12279 0.74891 0.0
C1587 C 0.73558 0.14729 0.7247 0.0
C1588 C 0.70541 0.10611 0.75223 0.0
C1589 C 0.69572 0.09642 0.73567 0.0
C1590 C 0.72174 0.12977 0.72886 0.0
C1591 C 0.69942 0.10396 0.71588 0.0
C1592 C 0.74095 0.15264 0.70459 0.0
C1593 C 0.75613 0.17457 0.73761 0.0
N1594 N 0.71218 0.12012 0.71303 0.0
N1595 N 0.74333 0.15844 0.74053 0.0
H1596 H 0.40962 0.96612 0.52299 0.0
H1597 H 0.36539 0.07946 0.53379 0.0
H1598 H 0.44641 0.01772 0.54164 0.0
H1599 H 0.33288 0.03041 0.50375 0.0
H1600 H 0.39468 0.05678 0.53839 0.0
H1601 H 0.38077 0.98911 0.51748 0.0
C1602 C 0.41171 0.9823 0.52578 0.0
C1603 C 0.43056 0.98996 0.53274 0.0
C1604 C 0.38114 0.051 0.53076 0.0
C1605 C 0.39737 0.01638 0.52679 0.0
C1606 C 0.36442 0.06399 0.52802 0.0
C1607 C 0.34656 0.05689 0.51836 0.0
C1608 C 0.38001 0.0307 0.5239 0.0
C1609 C 0.34615 0.03651 0.51158 0.0
C1610 C 0.39517 0.99542 0.52274 0.0
C1611 C 0.43214 0.01105 0.53652 0.0
N1612 N 0.36258 0.02415 0.51451 0.0
N1613 N 0.41577 0.0235 0.53352 0.0
H1614 H 0.58107 0.50867 0.5652 0.0
H1615 H 0.65293 0.45346 0.48331 0.0
H1616 H 0.57043 0.51081 0.49996 0.0
H1617 H 0.65653 0.44206 0.54836 0.0
H1618 H 0.62374 0.47585 0.48919 0.0
H1619 H 0.60979 0.48556 0.55942 0.0
C1620 C 0.58467 0.50419 0.54966 0.0
C1621 C 0.57326 0.51174 0.53305 0.0
C1622 C 0.63089 0.46842 0.50217 0.0
C1623 C 0.60638 0.48549 0.52631 0.0
C1624 C 0.64752 0.45552 0.49883 0.0
C1625 C 0.65725 0.44575 0.51536 0.0
C1626 C 0.62393 0.47173 0.52221 0.0
C1627 C 0.64974 0.44943 0.53516 0.0
C1628 C 0.60115 0.49107 0.54637 0.0
C1629 C 0.57893 0.50566 0.51323 0.0
N1630 N 0.63356 0.46213 0.53803 0.0
N1631 N 0.59509 0.49294 0.51043 0.0
H1632 H 0.71591 0.26741 0.30508 0.0
H1633 H 0.74078 0.27761 0.42482 0.0
H1634 H 0.72677 0.21579 0.34482 0.0
H1635 H 0.73466 0.32929 0.38416 0.0
H1636 H 0.73494 0.25471 0.39585 0.0
H1637 H 0.72186 0.29034 0.33403 0.0
C1638 C 0.71945 0.2609 0.31993 0.0
C1639 C 0.72086 0.23964 0.32252 0.0
C1640 C 0.73491 0.27106 0.39324 0.0
C1641 C 0.72784 0.26581 0.35572 0.0
C1642 C 0.73814 0.28415 0.4098 0.0
C1643 C 0.73817 0.30541 0.40693 0.0
C1644 C 0.73159 0.27927 0.37363 0.0
C1645 C 0.73498 0.313 0.38706 0.0
C1646 C 0.72297 0.274 0.33642 0.0
C1647 C 0.72577 0.23207 0.34205 0.0
N1648 N 0.73175 0.29995 0.37119 0.0
N1649 N 0.72904 0.24513 0.35789 0.0
H1650 H 0.467 0.02307 0.90892 0.0
H1651 H 0.58242 0.02515 0.8681 0.0
H1652 H 0.519 0.03727 0.94719 0.0
H1653 H 0.53037 0.00971 0.83038 0.0
H1654 H 0.55953 0.02954 0.89728 0.0
H1655 H 0.49006 0.01795 0.88004 0.0
C1656 C 0.48329 0.02497 0.9113 0.0
C1657 C 0.49106 0.03058 0.93055 0.0
C1658 C 0.55312 0.0252 0.88262 0.0
C1659 C 0.51758 0.02498 0.89741 0.0
C1660 C 0.5662 0.02258 0.86596 0.0
C1661 C 0.55834 0.01706 0.84671 0.0
C1662 C 0.53198 0.02226 0.88007 0.0
C1663 C 0.53712 0.01425 0.84483 0.0
C1664 C 0.49645 0.02217 0.89475 0.0
C1665 C 0.51229 0.03318 0.93259 0.0
N1666 N 0.52471 0.01686 0.86128 0.0
N1667 N 0.5248 0.03035 0.91624 0.0
H1668 H 0.25163 0.25806 0.31979 0.0
H1669 H 0.30141 0.20305 0.41742 0.0
H1670 H 0.31596 0.26082 0.33434 0.0
H1671 H 0.23921 0.1929 0.39752 0.0
H1672 H 0.30676 0.22521 0.38781 0.0
H1673 H 0.2464 0.23546 0.34918 0.0
C1674 C 0.26464 0.25397 0.32923 0.0
C1675 C 0.28426 0.26134 0.32461 0.0
C1676 C 0.29195 0.21811 0.38991 0.0
C1677 C 0.27842 0.23539 0.35822 0.0
C1678 C 0.28891 0.20534 0.40678 0.0
C1679 C 0.26982 0.19603 0.41004 0.0
C1680 C 0.27579 0.22172 0.37619 0.0
C1681 C 0.2541 0.19995 0.39586 0.0
C1682 C 0.26167 0.24097 0.34593 0.0
C1683 C 0.30061 0.25532 0.33721 0.0
N1684 N 0.25743 0.2125 0.3796 0.0
N1685 N 0.29731 0.24276 0.35346 0.0
H1686 H 0.54023 0.47472 0.90532 0.0
H1687 H 0.42388 0.47668 0.8666 0.0
H1688 H 0.48857 0.46172 0.94423 0.0
H1689 H 0.47553 0.48916 0.82748 0.0
H1690 H 0.44732 0.47147 0.89529 0.0
H1691 H 0.51677 0.48042 0.87669 0.0
C1692 C 0.52394 0.47317 0.90787 0.0
C1693 C 0.51637 0.46772 0.92722 0.0
C1694 C 0.45354 0.47534 0.88043 0.0
C1695 C 0.4894 0.47405 0.89444 0.0
C1696 C 0.44014 0.47843 0.86406 0.0
C1697 C 0.44772 0.48337 0.84457 0.0
C1698 C 0.47471 0.47723 0.87737 0.0
C1699 C 0.46899 0.48511 0.84215 0.0
C1700 C 0.51056 0.47631 0.89149 0.0
C1701 C 0.49512 0.46563 0.92954 0.0
N1702 N 0.48172 0.48208 0.85834 0.0
N1703 N 0.4824 0.46882 0.91336 0.0
H1704 H 0.75327 0.75891 0.18532 0.0
H1705 H 0.70337 0.70297 0.08849 0.0
H1706 H 0.68876 0.76053 0.17144 0.0
H1707 H 0.76504 0.6916 0.10932 0.0
H1708 H 0.69821 0.72555 0.11771 0.0
H1709 H 0.75846 0.73596 0.15624 0.0
C1710 C 0.74021 0.75449 0.1761 0.0
C1711 C 0.72055 0.76163 0.1808 0.0
C1712 C 0.71286 0.71808 0.1159 0.0
C1713 C 0.72635 0.73533 0.14756 0.0
C1714 C 0.7158 0.70507 0.09926 0.0
C1715 C 0.73467 0.69525 0.09639 0.0
C1716 C 0.72893 0.72148 0.12978 0.0
C1717 C 0.75033 0.69901 0.11069 0.0
C1718 C 0.74316 0.7413 0.15958 0.0
C1719 C 0.70414 0.75522 0.16849 0.0
N1720 N 0.74711 0.71183 0.12672 0.0
N1721 N 0.70742 0.7425 0.15239 0.0
H1722 H 0.98708 0.03822 0.05829 0.0
H1723 H 0.97491 0.02698 0.17944 0.0
H1724 H 0.03854 0.03272 0.09934 0.0
H1725 H 0.92625 0.01315 0.13695 0.0
H1726 H 0.99796 0.03278 0.1505 0.0
H1727 H 0.96396 0.03268 0.08724 0.0
C1728 C 0.99349 0.03593 0.07343 0.0
C1729 C 0.01473 0.03592 0.07646 0.0
C1730 C 0.98225 0.02845 0.14752 0.0
C1731 C 0.98844 0.0296 0.10958 0.0
C1732 C 0.96908 0.02526 0.164 0.0
C1733 C 0.94866 0.01958 0.16055 0.0
C1734 C 0.97489 0.0262 0.12743 0.0
C1735 C 0.94193 0.01734 0.14026 0.0
C1736 C 0.98031 0.03265 0.0899 0.0
C1737 C 0.02225 0.03268 0.09634 0.0
N1738 N 0.95499 0.02076 0.12445 0.0
N1739 N 0.00912 0.02975 0.11218 0.0
H1740 H 0.2493 0.73822 0.18128 0.0
H1741 H 0.29906 0.81624 0.10134 0.0
H1742 H 0.31452 0.74583 0.17421 0.0
H1743 H 0.23681 0.7948 0.09678 0.0
H1744 H 0.3044 0.79342 0.13063 0.0
H1745 H 0.24388 0.76155 0.15257 0.0
C1746 C 0.2625 0.74468 0.17366 0.0
C1747 C 0.28242 0.73993 0.18022 0.0
C1748 C 0.28958 0.79371 0.12321 0.0
C1749 C 0.27625 0.76704 0.14754 0.0
C1750 C 0.28649 0.80681 0.10659 0.0
C1751 C 0.26747 0.80737 0.09661 0.0
C1752 C 0.27347 0.78125 0.13004 0.0
C1753 C 0.25177 0.79468 0.10391 0.0
C1754 C 0.25937 0.75809 0.15732 0.0
C1755 C 0.29888 0.74921 0.16996 0.0
N1756 N 0.25509 0.78219 0.12023 0.0
N1757 N 0.29542 0.76232 0.15417 0.0
H1758 H 0.99734 0.50192 0.06731 0.0
H1759 H 0.0458 0.45412 0.16901 0.0
H1760 H 0.99165 0.43824 0.0835 0.0
H1761 H 0.0664 0.51121 0.14312 0.0
H1762 H 0.02334 0.44925 0.13938 0.0
H1763 H 0.02027 0.50688 0.09666 0.0
C1764 C 1.0009 0.48901 0.07708 0.0
C1765 C 0.99263 0.46963 0.07297 0.0
C1766 C 0.03281 0.46282 0.14015 0.0
C1767 C 0.01873 0.47519 0.10654 0.0
C1768 C 0.04553 0.46566 0.1571 0.0
C1769 C 0.05796 0.4831 0.15851 0.0
C1770 C 0.0323 0.47765 0.1246 0.0
C1771 C 0.05718 0.49746 0.14254 0.0
C1772 C 0.01405 0.49181 0.09373 0.0
C1773 C 0.99786 0.45338 0.08601 0.0
N1774 N 0.04447 0.49448 0.12629 0.0
N1775 N 0.01047 0.45654 0.10226 0.0
H1776 H 0.31663 0.75039 0.24703 0.0
H1777 H 0.41847 0.70388 0.29631 0.0
H1778 H 0.3341 0.68717 0.24063 0.0
H1779 H 0.39237 0.76125 0.31549 0.0
H1780 H 0.3891 0.69851 0.27364 0.0
H1781 H 0.34574 0.7557 0.27009 0.0
C1782 C 0.32663 0.73765 0.25046 0.0
C1783 C 0.32297 0.71831 0.24192 0.0
C1784 C 0.38977 0.71225 0.28285 0.0
C1785 C 0.35627 0.72427 0.26823 0.0
C1786 C 0.40658 0.71538 0.29568 0.0
C1787 C 0.40784 0.73304 0.30779 0.0
C1788 C 0.37421 0.727 0.28192 0.0
C1789 C 0.39189 0.74733 0.30655 0.0
C1790 C 0.34316 0.74066 0.26369 0.0
C1791 C 0.33628 0.70228 0.24703 0.0
N1792 N 0.37579 0.74405 0.29377 0.0
N1793 N 0.35241 0.70564 0.25976 0.0
H1794 H 0.97946 0.40692 0.03636 0.0
H1795 H 0.96905 0.36337 0.92239 0.0
H1796 H 0.96169 0.444 0.98457 0.0
H1797 H 0.99766 0.33008 0.97186 0.0
H1798 H 0.9645 0.39248 0.94528 0.0
H1799 H 0.98443 0.37799 0.01333 0.0
C1800 C 0.97671 0.40905 0.02014 0.0
C1801 C 0.97017 0.428 0.01244 0.0
C1802 C 0.97179 0.37881 0.95111 0.0
C1803 C 0.97556 0.39476 0.98597 0.0
C1804 C 0.97451 0.36219 0.93801 0.0
C1805 C 0.98378 0.34416 0.94514 0.0
C1806 C 0.97829 0.37743 0.97157 0.0
C1807 C 0.99016 0.34348 0.9657 0.0
C1808 C 0.97946 0.39247 0.007 0.0
C1809 C 0.96647 0.42965 0.99129 0.0
N1810 N 0.98727 0.35984 0.97817 0.0
N1811 N 0.9692 0.41326 0.97882 0.0
H1812 H 0.68471 0.75003 0.24583 0.0
H1813 H 0.58539 0.79886 0.29734 0.0
H1814 H 0.67007 0.81421 0.24237 0.0
H1815 H 0.60779 0.73853 0.31213 0.0
H1816 H 0.61518 0.8042 0.27556 0.0
H1817 H 0.65527 0.74484 0.26832 0.0
C1818 C 0.67526 0.76302 0.24977 0.0
C1819 C 0.67983 0.78258 0.24222 0.0
C1820 C 0.61359 0.78981 0.28361 0.0
C1821 C 0.64615 0.77678 0.26795 0.0
C1822 C 0.59661 0.78677 0.29616 0.0
C1823 C 0.594 0.7682 0.30669 0.0
C1824 C 0.62805 0.77415 0.28138 0.0
C1825 C 0.60892 0.75298 0.30412 0.0
C1826 C 0.65853 0.76007 0.26269 0.0
C1827 C 0.6672 0.79891 0.24801 0.0
N1828 N 0.62526 0.75627 0.29172 0.0
N1829 N 0.65089 0.79563 0.26044 0.0
H1830 H 0.03916 0.05741 0.98656 0.0
H1831 H 0.02394 0.17795 0.97371 0.0
H1832 H 0.03043 0.09819 0.03763 0.0
H1833 H 0.01467 0.13525 0.92426 0.0
H1834 H 0.02986 0.14922 0.99702 0.0
H1835 H 0.03363 0.08613 0.96308 0.0
C1836 C 0.03614 0.07243 0.99281 0.0
C1837 C 0.03521 0.07545 0.01405 0.0
C1838 C 0.02651 0.14614 0.98108 0.0
C1839 C 0.02892 0.10832 0.98734 0.0
C1840 C 0.02326 0.16252 0.96775 0.0
C1841 C 0.0188 0.15895 0.94704 0.0
C1842 C 0.02553 0.12605 0.97359 0.0
C1843 C 0.01788 0.13865 0.94017 0.0
C1844 C 0.03288 0.08877 0.97942 0.0
C1845 C 0.03107 0.09518 0.02135 0.0
N1846 N 0.02131 0.12295 0.95339 0.0
N1847 N 0.02818 0.11089 0.00802 0.0
H1848 H 0.33383 0.314 0.26107 0.0
H1849 H 0.40174 0.23261 0.19994 0.0
H1850 H 0.32219 0.24906 0.26167 0.0
H1851 H 0.41323 0.29758 0.1995 0.0
H1852 H 0.37248 0.23828 0.22244 0.0
H1853 H 0.36289 0.30826 0.23838 0.0
C1854 C 0.33731 0.29854 0.25634 0.0
C1855 C 0.32552 0.28199 0.26328 0.0
C1856 C 0.38141 0.2513 0.21743 0.0
C1857 C 0.35895 0.27527 0.23743 0.0
C1858 C 0.39806 0.24808 0.20449 0.0
C1859 C 0.40998 0.26464 0.19779 0.0
C1860 C 0.37658 0.27123 0.22373 0.0
C1861 C 0.40466 0.28432 0.20447 0.0
C1862 C 0.35399 0.29525 0.24347 0.0
C1863 C 0.33099 0.26225 0.2569 0.0
N1864 N 0.38835 0.28706 0.21703 0.0
N1865 N 0.34727 0.25944 0.24432 0.0
H1866 H 0.50322 0.43043 0.9896 0.0
H1867 H 0.5524 0.34448 0.06154 0.0
H1868 H 0.56815 0.41912 0.99345 0.0
H1869 H 0.48794 0.34769 0.04741 0.0
H1870 H 0.55842 0.37328 0.03851 0.0
H1871 H 0.49727 0.40164 0.01265 0.0
C1872 C 0.51624 0.42184 0.99518 0.0
C1873 C 0.53623 0.42723 0.98948 0.0
C1874 C 0.54296 0.36767 0.04045 0.0
C1875 C 0.5295 0.39438 0.0162 0.0
C1876 C 0.53951 0.35113 0.05353 0.0
C1877 C 0.51962 0.34354 0.05644 0.0
C1878 C 0.52641 0.37682 0.03026 0.0
C1879 C 0.50349 0.35314 0.04592 0.0
C1880 C 0.51282 0.40546 0.00844 0.0
C1881 C 0.55249 0.41574 0.9976 0.0
N1882 N 0.50725 0.36926 0.03333 0.0
N1883 N 0.54877 0.39989 0.01054 0.0
H1884 H 0.6844 0.25164 0.25807 0.0
H1885 H 0.58797 0.20158 0.20135 0.0
H1886 H 0.6706 0.18715 0.25975 0.0
H1887 H 0.60679 0.26427 0.19268 0.0
H1888 H 0.61754 0.19621 0.22357 0.0
H1889 H 0.65519 0.25688 0.23522 0.0
C1890 C 0.67518 0.23859 0.25368 0.0
C1891 C 0.67995 0.21893 0.26083 0.0
C1892 C 0.61522 0.21113 0.21678 0.0
C1893 C 0.64654 0.22479 0.23459 0.0
C1894 C 0.59838 0.21419 0.20397 0.0
C1895 C 0.59482 0.23342 0.19506 0.0
C1896 C 0.62862 0.22743 0.22083 0.0
C1897 C 0.60869 0.24927 0.1994 0.0
C1898 C 0.65857 0.24158 0.24054 0.0
C1899 C 0.66762 0.20254 0.25443 0.0
N1900 N 0.62494 0.24593 0.21198 0.0
N1901 N 0.65145 0.20585 0.24174 0.0
H1902 H 0.50229 0.06596 0.9966 0.0
H1903 H 0.45482 0.16739 0.04503 0.0
H1904 H 0.43866 0.08221 0.99062 0.0
H1905 H 0.51197 0.14143 0.0654 0.0
H1906 H 0.4498 0.13795 0.02247 0.0
H1907 H 0.50735 0.0953 0.01936 0.0
C1908 C 0.48941 0.07576 1.00005 0.0
C1909 C 0.47003 0.07166 0.99176 0.0
C1910 C 0.46341 0.13867 0.03191 0.0
C1911 C 0.47568 0.1052 0.01771 0.0
C1912 C 0.46634 0.15551 0.04469 0.0
C1913 C 0.48384 0.15684 0.05709 0.0
C1914 C 0.47821 0.12316 0.03132 0.0
C1915 C 0.49818 0.14091 0.05622 0.0
C1916 C 0.49227 0.0924 0.01311 0.0
C1917 C 0.45381 0.08472 0.99685 0.0
N1918 N 0.49511 0.12478 0.04346 0.0
N1919 N 0.45702 0.10096 0.00941 0.0
H1920 H 0.24246 0.33159 0.68746 0.0
H1921 H 0.30045 0.40292 0.76858 0.0
H1922 H 0.23974 0.32219 0.75284 0.0
H1923 H 0.30774 0.4083 0.70314 0.0
H1924 H 0.27708 0.37421 0.7632 0.0
H1925 H 0.26549 0.36046 0.69298 0.0
C1926 C 0.24678 0.33552 0.70299 0.0
C1927 C 0.23919 0.32435 0.71971 0.0
C1928 C 0.28381 0.38166 0.75001 0.0
C1929 C 0.26541 0.35764 0.72615 0.0
C1930 C 0.29707 0.39812 0.75307 0.0
C1931 C 0.30609 0.40804 0.73628 0.0
C1932 C 0.27943 0.37509 0.73001 0.0
C1933 C 0.30135 0.40096 0.71654 0.0
C1934 C 0.25986 0.35209 0.70613 0.0
C1935 C 0.24502 0.33046 0.73949 0.0
N1936 N 0.28833 0.38497 0.71396 0.0
N1937 N 0.25779 0.34667 0.74216 0.0
H1938 H 0.24568 0.68412 0.74983 0.0
H1939 H 0.30527 0.59007 0.80101 0.0
H1940 H 0.24406 0.67017 0.8144 0.0
H1941 H 0.30979 0.60575 0.73695 0.0
H1942 H 0.28281 0.61935 0.80614 0.0
H1943 H 0.26881 0.65525 0.74464 0.0
C1944 C 0.25013 0.67494 0.7629 0.0
C1945 C 0.24291 0.67958 0.78258 0.0
C1946 C 0.28874 0.61642 0.79096 0.0
C1947 C 0.26952 0.64659 0.77679 0.0
C1948 C 0.30169 0.59975 0.78804 0.0
C1949 C 0.3095 0.59541 0.76851 0.0
C1950 C 0.28347 0.62889 0.77424 0.0
C1951 C 0.30395 0.60832 0.75222 0.0
C1952 C 0.26343 0.65852 0.75995 0.0
C1953 C 0.24943 0.66732 0.799 0.0
N1954 N 0.29128 0.62446 0.75545 0.0
N1955 N 0.26231 0.65138 0.79573 0.0
H1956 H 0.90805 0.5381 0.47886 0.0
H1957 H 0.86412 0.42431 0.46984 0.0
H1958 H 0.94507 0.48619 0.46206 0.0
H1959 H 0.83071 0.47416 0.49719 0.0
H1960 H 0.89343 0.447 0.46533 0.0
H1961 H 0.87903 0.5152 0.48405 0.0
C1962 C 0.91014 0.52187 0.47639 0.0
C1963 C 0.92911 0.51409 0.47005 0.0
C1964 C 0.87969 0.45296 0.47234 0.0
C1965 C 0.89575 0.48777 0.47568 0.0
C1966 C 0.86296 0.43997 0.47504 0.0
C1967 C 0.84484 0.44728 0.48393 0.0
C1968 C 0.87834 0.47347 0.47848 0.0
C1969 C 0.84419 0.46787 0.48998 0.0
C1970 C 0.89351 0.50881 0.47926 0.0
C1971 C 0.93072 0.49295 0.46669 0.0
N1972 N 0.86066 0.48023 0.48712 0.0
N1973 N 0.91427 0.48054 0.46952 0.0
H1974 H 0.76273 0.83356 0.81721 0.0
H1975 H 0.69595 0.89825 0.7372 0.0
H1976 H 0.76048 0.82077 0.75244 0.0
H1977 H 0.70215 0.914 0.80109 0.0
H1978 H 0.7189 0.86933 0.74262 0.0
H1979 H 0.73963 0.86242 0.81181 0.0
C1980 C 0.7573 0.83676 0.80186 0.0
C1981 C 0.76355 0.82471 0.78525 0.0
C1982 C 0.71524 0.87911 0.75546 0.0
C1983 C 0.7372 0.85785 0.77893 0.0
C1984 C 0.70221 0.89571 0.75235 0.0
C1985 C 0.69709 0.90865 0.7687 0.0
C1986 C 0.72324 0.87533 0.77507 0.0
C1987 C 0.70541 0.90432 0.78808 0.0
C1988 C 0.74419 0.85332 0.79877 0.0
C1989 C 0.75625 0.82978 0.76566 0.0
N1990 N 0.71807 0.88806 0.79071 0.0
N1991 N 0.74344 0.84592 0.76305 0.0
H1992 H 0.57423 0.49022 0.00113 0.0
H1993 H 0.66706 0.5518 0.95004 0.0
H1994 H 0.58698 0.48984 0.93632 0.0
H1995 H 0.65419 0.55197 0.01483 0.0
H1996 H 0.63772 0.52926 0.94464 0.0
H1997 H 0.60358 0.51274 0.00643 0.0
C1998 C 0.58327 0.49478 0.98802 0.0
C1999 C 0.57814 0.48807 0.96825 0.0
C2000 C 0.64132 0.53421 0.96004 0.0
C2001 C 0.61169 0.51407 0.97418 0.0
C2002 C 0.65802 0.54718 0.96313 0.0
C2003 C 0.66312 0.55382 0.98293 0.0
C2004 C 0.62958 0.52782 0.97687 0.0
C2005 C 0.65101 0.54705 0.99934 0.0
C2006 C 0.59997 0.50774 0.99104 0.0
C2007 C 0.59022 0.49479 0.9518 0.0
N2008 N 0.63482 0.53446 0.99593 0.0
N2009 N 0.60643 0.50739 0.95514 0.0
H2010 H 0.23503 0.69243 0.21075 0.0
H2011 H 0.22504 0.57627 0.2479 0.0
H2012 H 0.28676 0.65516 0.2279 0.0
H2013 H 0.17512 0.61039 0.22141 0.0
H2014 H 0.24762 0.60551 0.24215 0.0
H2015 H 0.21265 0.66295 0.21564 0.0
C2016 C 0.24174 0.67802 0.21539 0.0
C2017 C 0.26288 0.67633 0.21889 0.0
C2018 C 0.23174 0.6066 0.23755 0.0
C2019 C 0.2372 0.64252 0.22486 0.0
C2020 C 0.21881 0.58995 0.24095 0.0
C2021 C 0.19814 0.59089 0.23517 0.0
C2022 C 0.22395 0.62442 0.22842 0.0
C2023 C 0.19099 0.60892 0.22593 0.0
C2024 C 0.22891 0.66121 0.21829 0.0
C2025 C 0.27056 0.65732 0.22529 0.0
N2026 N 0.20384 0.62498 0.22292 0.0
N2027 N 0.25774 0.64119 0.2281 0.0
H2028 H 0.90814 0.46599 0.02938 0.0
H2029 H 0.86929 0.58121 0.01619 0.0
H2030 H 0.94782 0.51831 0.03597 0.0
H2031 H 0.8287 0.52973 0.02376 0.0
H2032 H 0.89857 0.55829 0.02064 0.0
H2033 H 0.87912 0.48902 0.02448 0.0
C2034 C 0.91075 0.48234 0.02968 0.0
C2035 C 0.93042 0.49026 0.03305 0.0
C2036 C 0.88325 0.55203 0.02136 0.0
C2037 C 0.89726 0.51672 0.02754 0.0
C2038 C 0.86656 0.56507 0.01871 0.0
C2039 C 0.84654 0.55736 0.01965 0.0
C2040 C 0.87992 0.53108 0.02476 0.0
C2041 C 0.84387 0.53636 0.02316 0.0
C2042 C 0.89416 0.49548 0.02701 0.0
C2043 C 0.93288 0.51158 0.03357 0.0
N2044 N 0.86035 0.52395 0.02551 0.0
N2045 N 0.9165 0.52407 0.03077 0.0
H2046 H 0.08527 0.01372 0.06871 0.0
H2047 H 0.15227 0.95032 0.98833 0.0
H2048 H 0.07325 0.01253 0.00372 0.0
H2049 H 0.16412 0.95086 0.05337 0.0
H2050 H 0.12352 0.97345 0.99367 0.0
H2051 H 0.1142 0.99073 0.06346 0.0
C2052 C 0.08864 0.00855 0.05334 0.0
C2053 C 0.07677 0.01508 0.03663 0.0
C2054 C 0.1324 0.96852 0.00679 0.0
C2055 C 0.11005 0.98889 0.03048 0.0
C2056 C 0.14892 0.9554 0.00373 0.0
C2057 C 0.16068 0.94864 0.02042 0.0
C2058 C 0.12756 0.97499 0.02669 0.0
C2059 C 0.15535 0.95547 0.04007 0.0
C2060 C 0.10524 0.9955 0.05034 0.0
C2061 C 0.0821 0.00812 0.01702 0.0
N2062 N 0.13921 0.96828 0.04266 0.0
N2063 N 0.09831 0.9954 0.0145 0.0
loop_
_geom_bond_atom_site_label_1
_geom_bond_atom_site_label_2
_geom_bond_distance
_geom_bond_site_symmetry_2
_ccdc_geom_bond_type
H0 C3 0.931 . S
H1 C6 0.928 . S
H2 C8 0.930 . S
C3 H0 0.931 . S
C3 C4 1.413 . S
C3 C5 1.360 . S
C4 C3 1.413 . S
C4 C8 1.429 . S
C5 C3 1.360 . S
C5 C6 1.372 . S
C6 H1 0.928 . S
C6 C5 1.372 . S
C6 C7 1.404 . S
C7 C6 1.404 . S
C7 C8 1.391 . S
C8 H2 0.930 . S
C8 C4 1.429 . S
C8 C7 1.391 . S
H9 C12 0.931 . S
H10 C15 0.928 . S
H11 C17 0.930 . S
C12 H9 0.931 . S
C12 C13 1.413 . S
C12 C14 1.360 . S
C13 C12 1.413 . S
C13 C17 1.429 . S
C14 C12 1.360 . S
C14 C15 1.372 . S
C15 H10 0.928 . S
C15 C14 1.372 . S
C15 C16 1.404 . S
C16 C15 1.404 . S
C16 C17 1.391 . S
C17 H11 0.930 . S
C17 C13 1.429 . S
C17 C16 1.391 . S
H18 C21 0.931 . S
H19 C24 0.928 . S
H20 C26 0.930 . S
C21 H18 0.931 . S
C21 C22 1.413 . S
C21 C23 1.360 . S
C22 C21 1.413 . S
C22 C26 1.429 . S
C23 C21 1.360 . S
C23 C24 1.372 . S
C24 H19 0.928 . S
C24 C23 1.372 . S
C24 C25 1.404 . S
C25 C24 1.404 . S
C25 C26 1.391 . S
C26 H20 0.930 . S
C26 C22 1.429 . S
C26 C25 1.391 . S
H27 C30 0.931 . S
H28 C33 0.928 . S
H29 C35 0.930 . S
C30 H27 0.931 . S
C30 C31 1.413 . S
C30 C32 1.360 . S
C31 C30 1.413 . S
C31 C35 1.429 . S
C32 C30 1.360 . S
C32 C33 1.372 . S
C33 H28 0.928 . S
C33 C32 1.372 . S
C33 C34 1.404 . S
C34 C33 1.404 . S
C34 C35 1.391 . S
C35 H29 0.930 . S
C35 C31 1.429 . S
C35 C34 1.391 . S
H36 C39 0.931 . S
H37 C42 0.928 . S
H38 C44 0.930 . S
C39 H36 0.931 . S
C39 C40 1.413 . S
C39 C41 1.360 . S
C40 C39 1.413 . S
C40 C44 1.429 . S
C41 C39 1.360 . S
C41 C42 1.372 . S
C42 H37 0.928 . S
C42 C41 1.372 . S
C42 C43 1.404 . S
C43 C42 1.404 . S
C43 C44 1.391 . S
C44 H38 0.930 . S
C44 C40 1.429 . S
C44 C43 1.391 . S
H45 C48 0.931 . S
H46 C51 0.928 . S
H47 C53 0.930 . S
C48 H45 0.931 . S
C48 C49 1.413 . S
C48 C50 1.360 . S
C49 C48 1.413 . S
C49 C53 1.429 . S
C50 C48 1.360 . S
C50 C51 1.372 . S
C51 H46 0.928 . S
C51 C50 1.372 . S
C51 C52 1.404 . S
C52 C51 1.404 . S
C52 C53 1.391 . S
C53 H47 0.930 . S
C53 C49 1.429 . S
C53 C52 1.391 . S
H54 C57 0.931 . S
H55 C60 0.928 . S
H56 C62 0.930 . S
C57 H54 0.931 . S
C57 C58 1.413 . S
C57 C59 1.360 . S
C58 C57 1.413 . S
C58 C62 1.429 . S
C59 C57 1.360 . S
C59 C60 1.372 . S
C60 H55 0.928 . S
C60 C59 1.372 . S
C60 C61 1.404 . S
C61 C60 1.404 . S
C61 C62 1.391 . S
C62 H56 0.930 . S
C62 C58 1.429 . S
C62 C61 1.391 . S
H63 C66 0.931 . S
H64 C69 0.928 . S
H65 C71 0.930 . S
C66 H63 0.931 . S
C66 C67 1.413 . S
C66 C68 1.360 . S
C67 C66 1.413 . S
C67 C71 1.429 . S
C68 C66 1.360 . S
C68 C69 1.372 . S
C69 H64 0.928 . S
C69 C68 1.372 . S
C69 C70 1.404 . S
C70 C69 1.404 . S
C70 C71 1.391 . S
C71 H65 0.930 . S
C71 C67 1.429 . S
C71 C70 1.391 . S
H72 C75 0.931 . S
H73 C78 0.928 . S
H74 C80 0.930 . S
C75 H72 0.931 . S
C75 C76 1.413 . S
C75 C77 1.360 . S
C76 C75 1.413 . S
C76 C80 1.429 . S
C77 C75 1.360 . S
C77 C78 1.372 . S
C78 H73 0.928 . S
C78 C77 1.372 . S
C78 C79 1.404 . S
C79 C78 1.404 . S
C79 C80 1.391 . S
C80 H74 0.930 . S
C80 C76 1.429 . S
C80 C79 1.391 . S
H81 C84 0.931 . S
H82 C87 0.928 . S
H83 C89 0.930 . S
C84 H81 0.931 . S
C84 C85 1.413 . S
C84 C86 1.360 . S
C85 C84 1.413 . S
C85 C89 1.429 . S
C86 C84 1.360 . S
C86 C87 1.372 . S
C87 H82 0.928 . S
C87 C86 1.372 . S
C87 C88 1.404 . S
C88 C87 1.404 . S
C88 C89 1.391 . S
C89 H83 0.930 . S
C89 C85 1.429 . S
C89 C88 1.391 . S
H90 C93 0.931 . S
H91 C96 0.928 . S
H92 C98 0.930 . S
C93 H90 0.931 . S
C93 C94 1.413 . S
C93 C95 1.360 . S
C94 C93 1.413 . S
C94 C98 1.429 . S
C95 C93 1.360 . S
C95 C96 1.372 . S
C96 H91 0.928 . S
C96 C95 1.372 . S
C96 C97 1.404 . S
C97 C96 1.404 . S
C97 C98 1.391 . S
C98 H92 0.930 . S
C98 C94 1.429 . S
C98 C97 1.391 . S
H99 C102 0.931 . S
H100 C105 0.928 . S
H101 C107 0.930 . S
C102 H99 0.931 . S
C102 C103 1.413 . S
C102 C104 1.360 . S
C103 C102 1.413 . S
C103 C107 1.429 . S
C104 C102 1.360 . S
C104 C105 1.372 . S
C105 H100 0.928 . S
C105 C104 1.372 . S
C105 C106 1.404 . S
C106 C105 1.404 . S
C106 C107 1.391 . S
C107 H101 0.930 . S
C107 C103 1.429 . S
C107 C106 1.391 . S
H108 C111 0.931 . S
H109 C114 0.928 . S
H110 C116 0.930 . S
C111 H108 0.931 . S
C111 C112 1.413 . S
C111 C113 1.360 . S
C112 C111 1.413 . S
C112 C116 1.429 . S
C113 C111 1.360 . S
C113 C114 1.372 . S
C114 H109 0.928 . S
C114 C113 1.372 . S
C114 C115 1.404 . S
C115 C114 1.404 . S
C115 C116 1.391 . S
C116 H110 0.930 . S
C116 C112 1.429 . S
C116 C115 1.391 . S
H117 C120 0.931 . S
H118 C123 0.928 . S
H119 C125 0.930 . S
C120 H117 0.931 . S
C120 C121 1.413 . S
C120 C122 1.360 . S
C121 C120 1.413 . S
C121 C125 1.429 . S
C122 C120 1.360 . S
C122 C123 1.372 . S
C123 H118 0.928 . S
C123 C122 1.372 . S
C123 C124 1.404 . S
C124 C123 1.404 . S
C124 C125 1.391 . S
C125 H119 0.930 . S
C125 C121 1.429 . S
C125 C124 1.391 . S
H126 C129 0.931 . S
H127 C132 0.928 . S
H128 C134 0.930 . S
C129 H126 0.931 . S
C129 C130 1.413 . S
C129 C131 1.360 . S
C130 C129 1.413 . S
C130 C134 1.429 . S
C131 C129 1.360 . S
C131 C132 1.372 . S
C132 H127 0.928 . S
C132 C131 1.372 . S
C132 C133 1.404 . S
C133 C132 1.404 . S
C133 C134 1.391 . S
C134 H128 0.930 . S
C134 C130 1.429 . S
C134 C133 1.391 . S
H135 C138 0.931 . S
H136 C141 0.928 . S
H137 C143 0.930 . S
C138 H135 0.931 . S
C138 C139 1.413 . S
C138 C140 1.360 . S
C139 C138 1.413 . S
C139 C143 1.429 . S
C140 C138 1.360 . S
C140 C141 1.372 . S
C141 H136 0.928 . S
C141 C140 1.372 . S
C141 C142 1.404 . S
C142 C141 1.404 . S
C142 C143 1.391 . S
C143 H137 0.930 . S
C143 C139 1.429 . S
C143 C142 1.391 . S
Li144 N161 1.990 . S
Li144 O204 1.956 . S
Li144 O205 1.970 1_556 S
Li144 O206 1.961 . S
Li145 N169 1.990 . S
Li145 O204 1.970 1_554 S
Li145 O205 1.956 . S
Li145 O207 1.961 . S
Li146 N191 1.990 . S
Li146 O204 1.961 . S
Li146 O206 1.956 . S
Li146 O207 1.970 1_556 S
Li147 N197 1.990 . S
Li147 O205 1.961 . S
Li147 O206 1.970 1_554 S
Li147 O207 1.956 . S
C148 C150 1.348 1_556 S
C148 C151 1.356 . S
C148 O204 1.325 . S
N149 C152 1.314 1_556 S
N149 C153 1.279 . S
C150 C148 1.348 1_554 S
C150 C152 1.353 . S
C150 H208 0.929 . S
C151 C148 1.356 . S
C151 C153 1.358 . S
C151 H209 0.930 . S
C152 N149 1.314 1_554 S
C152 C150 1.353 . S
C152 H210 0.930 . S
C153 N149 1.279 . S
C153 C151 1.358 . S
C153 H211 0.930 . S
C154 C157 1.348 . S
C154 C158 1.356 . S
C154 O205 1.325 . S
C155 N156 1.279 . S
C155 C158 1.358 . S
C155 H212 0.930 . S
N156 C155 1.279 . S
N156 C159 1.314 . S
C157 C154 1.348 . S
C157 C159 1.353 . S
C157 H213 0.929 . S
C158 C154 1.356 . S
C158 C155 1.358 . S
C158 H214 0.930 . S
C159 N156 1.314 . S
C159 C157 1.353 . S
C159 H215 0.930 . S
C160 N161 1.314 . S
C160 C165 1.353 . S
C160 H166 0.930 . S
N161 Li144 1.990 . S
N161 C160 1.314 . S
N161 C163 1.279 . S
C162 C163 1.358 . S
C162 C164 1.356 . S
C162 H216 0.930 . S
C163 N161 1.279 . S
C163 C162 1.358 . S
C163 H167 0.930 . S
C164 C162 1.356 . S
C164 C165 1.348 . S
C165 C160 1.353 . S
C165 C164 1.348 . S
C165 H217 0.929 . S
H166 C160 0.930 . S
H167 C163 0.930 . S
C168 N169 1.314 . S
C168 C170 1.353 . S
C168 H174 0.930 . S
N169 Li145 1.990 . S
N169 C168 1.314 . S
N169 C172 1.279 . S
C170 C168 1.353 . S
C170 C173 1.348 . S
C170 H218 0.929 . S
C171 C172 1.358 . S
C171 C173 1.356 . S
C171 H219 0.930 . S
C172 N169 1.279 . S
C172 C171 1.358 . S
C172 H175 0.930 . S
C173 C170 1.348 . S
C173 C171 1.356 . S
H174 C168 0.930 . S
H175 C172 0.930 . S
C176 C178 1.348 . S
C176 C179 1.356 . S
C176 O206 1.325 . S
N177 C180 1.314 . S
N177 C181 1.279 . S
C178 C176 1.348 . S
C178 C180 1.353 . S
C178 H220 0.929 . S
C179 C176 1.356 . S
C179 C181 1.358 . S
C179 H221 0.930 . S
C180 N177 1.314 . S
C180 C178 1.353 . S
C180 H222 0.930 . S
C181 N177 1.279 . S
C181 C179 1.358 . S
C181 H223 0.930 . S
C182 C183 1.348 1_554 S
C182 C184 1.356 . S
C182 O207 1.325 . S
C183 C182 1.348 1_556 S
C183 C185 1.353 . S
C183 H224 0.929 . S
C184 C182 1.356 . S
C184 C186 1.358 . S
C184 H225 0.930 . S
C185 C183 1.353 . S
C185 N187 1.314 1_556 S
C185 H226 0.930 . S
C186 C184 1.358 . S
C186 N187 1.279 . S
C186 H227 0.930 . S
N187 C185 1.314 1_554 S
N187 C186 1.279 . S
C188 C190 1.353 . S
C188 N191 1.314 . S
C188 H194 0.930 . S
C189 N191 1.279 . S
C189 C192 1.358 . S
C189 H195 0.930 . S
C190 C188 1.353 . S
C190 C193 1.348 . S
C190 H228 0.929 . S
N191 Li146 1.990 . S
N191 C188 1.314 . S
N191 C189 1.279 . S
C192 C189 1.358 . S
C192 C193 1.356 . S
C192 H229 0.930 . S
C193 C190 1.348 . S
C193 C192 1.356 . S
H194 C188 0.930 . S
H195 C189 0.930 . S
C196 N197 1.314 . S
C196 C198 1.353 . S
C196 H202 0.930 . S
N197 Li147 1.990 . S
N197 C196 1.314 . S
N197 C200 1.279 . S
C198 C196 1.353 . S
C198 C201 1.348 . S
C198 H230 0.929 . S
C199 C200 1.358 . S
C199 C201 1.356 . S
C199 H231 0.930 . S
C200 N197 1.279 . S
C200 C199 1.358 . S
C200 H203 0.930 . S
C201 C198 1.348 . S
C201 C199 1.356 . S
H202 C196 0.930 . S
H203 C200 0.930 . S
O204 Li144 1.956 . S
O204 Li145 1.970 1_556 S
O204 Li146 1.961 . S
O204 C148 1.325 . S
O205 Li144 1.970 1_554 S
O205 Li145 1.956 . S
O205 Li147 1.961 . S
O205 C154 1.325 . S
O206 Li144 1.961 . S
O206 Li146 1.956 . S
O206 Li147 1.970 1_556 S
O206 C176 1.325 . S
O207 Li145 1.961 . S
O207 Li146 1.970 1_554 S
O207 Li147 1.956 . S
O207 C182 1.325 . S
H208 C150 0.929 . S
H209 C151 0.930 . S
H210 C152 0.930 . S
H211 C153 0.930 . S
H212 C155 0.930 . S
H213 C157 0.929 . S
H214 C158 0.930 . S
H215 C159 0.930 . S
H216 C162 0.930 . S
H217 C165 0.929 . S
H218 C170 0.929 . S
H219 C171 0.930 . S
H220 C178 0.929 . S
H221 C179 0.930 . S
H222 C180 0.930 . S
H223 C181 0.930 . S
H224 C183 0.929 . S
H225 C184 0.930 . S
H226 C185 0.930 . S
H227 C186 0.930 . S
H228 C190 0.929 . S
H229 C192 0.930 . S
H230 C198 0.929 . S
H231 C199 0.930 . S
Li232 N249 1.990 . S
Li232 O292 1.956 . S
Li232 O293 1.970 . S
Li232 O294 1.961 . S
Li233 N257 1.990 . S
Li233 O292 1.970 . S
Li233 O293 1.956 . S
Li233 O295 1.961 . S
Li234 N279 1.990 . S
Li234 O292 1.961 . S
Li234 O294 1.956 . S
Li234 O295 1.970 . S
Li235 N285 1.990 . S
Li235 O293 1.961 . S
Li235 O294 1.970 . S
Li235 O295 1.956 . S
C236 C238 1.348 . S
C236 C239 1.356 . S
C236 O292 1.325 . S
N237 C240 1.314 . S
N237 C241 1.279 . S
C238 C236 1.348 . S
C238 C240 1.353 . S
C238 H296 0.929 . S
C239 C236 1.356 . S
C239 C241 1.358 . S
C239 H297 0.930 . S
C240 N237 1.314 . S
C240 C238 1.353 . S
C240 H298 0.930 . S
C241 N237 1.279 . S
C241 C239 1.358 . S
C241 H299 0.930 . S
C242 C245 1.348 . S
C242 C246 1.356 . S
C242 O293 1.325 . S
C243 N244 1.279 . S
C243 C246 1.358 . S
C243 H300 0.930 . S
N244 C243 1.279 . S
N244 C247 1.314 . S
C245 C242 1.348 . S
C245 C247 1.353 . S
C245 H301 0.929 . S
C246 C242 1.356 . S
C246 C243 1.358 . S
C246 H302 0.930 . S
C247 N244 1.314 . S
C247 C245 1.353 . S
C247 H303 0.930 . S
C248 N249 1.314 . S
C248 C253 1.353 . S
C248 H254 0.930 . S
N249 Li232 1.990 . S
N249 C248 1.314 . S
N249 C251 1.279 . S
C250 C251 1.358 . S
C250 C252 1.356 . S
C250 H304 0.930 . S
C251 N249 1.279 . S
C251 C250 1.358 . S
C251 H255 0.930 . S
C252 C250 1.356 . S
C252 C253 1.348 . S
C253 C248 1.353 . S
C253 C252 1.348 . S
C253 H305 0.929 . S
H254 C248 0.930 . S
H255 C251 0.930 . S
C256 N257 1.314 . S
C256 C258 1.353 . S
C256 H262 0.930 . S
N257 Li233 1.990 . S
N257 C256 1.314 . S
N257 C260 1.279 . S
C258 C256 1.353 . S
C258 C261 1.348 . S
C258 H306 0.929 . S
C259 C260 1.358 . S
C259 C261 1.356 . S
C259 H307 0.930 . S
C260 N257 1.279 . S
C260 C259 1.358 . S
C260 H263 0.930 . S
C261 C258 1.348 . S
C261 C259 1.356 . S
H262 C256 0.930 . S
H263 C260 0.930 . S
C264 C266 1.348 . S
C264 C267 1.356 . S
C264 O294 1.325 . S
N265 C268 1.314 . S
N265 C269 1.279 . S
C266 C264 1.348 . S
C266 C268 1.353 . S
C266 H308 0.929 . S
C267 C264 1.356 . S
C267 C269 1.358 . S
C267 H309 0.930 . S
C268 N265 1.314 . S
C268 C266 1.353 . S
C268 H310 0.930 . S
C269 N265 1.279 . S
C269 C267 1.358 . S
C269 H311 0.930 . S
C270 C271 1.348 . S
C270 C272 1.356 . S
C270 O295 1.325 . S
C271 C270 1.348 . S
C271 C273 1.353 . S
C271 H312 0.929 . S
C272 C270 1.356 . S
C272 C274 1.358 . S
C272 H313 0.930 . S
C273 C271 1.353 . S
C273 N275 1.314 . S
C273 H314 0.930 . S
C274 C272 1.358 . S
C274 N275 1.279 . S
C274 H315 0.930 . S
N275 C273 1.314 . S
N275 C274 1.279 . S
C276 C278 1.353 . S
C276 N279 1.314 . S
C276 H282 0.930 . S
C277 N279 1.279 . S
C277 C280 1.358 . S
C277 H283 0.930 . S
C278 C276 1.353 . S
C278 C281 1.348 . S
C278 H316 0.929 . S
N279 Li234 1.990 . S
N279 C276 1.314 . S
N279 C277 1.279 . S
C280 C277 1.358 . S
C280 C281 1.356 . S
C280 H317 0.930 . S
C281 C278 1.348 . S
C281 C280 1.356 . S
H282 C276 0.930 . S
H283 C277 0.930 . S
C284 N285 1.314 . S
C284 C286 1.353 . S
C284 H290 0.930 . S
N285 Li235 1.990 . S
N285 C284 1.314 . S
N285 C288 1.279 . S
C286 C284 1.353 . S
C286 C289 1.348 . S
C286 H318 0.929 . S
C287 C288 1.358 . S
C287 C289 1.356 . S
C287 H319 0.930 . S
C288 N285 1.279 . S
C288 C287 1.358 . S
C288 H291 0.930 . S
C289 C286 1.348 . S
C289 C287 1.356 . S
H290 C284 0.930 . S
H291 C288 0.930 . S
O292 Li232 1.956 . S
O292 Li233 1.970 . S
O292 Li234 1.961 . S
O292 C236 1.325 . S
O293 Li232 1.970 . S
O293 Li233 1.956 . S
O293 Li235 1.961 . S
O293 C242 1.325 . S
O294 Li232 1.961 . S
O294 Li234 1.956 . S
O294 Li235 1.970 . S
O294 C264 1.325 . S
O295 Li233 1.961 . S
O295 Li234 1.970 . S
O295 Li235 1.956 . S
O295 C270 1.325 . S
H296 C238 0.929 . S
H297 C239 0.930 . S
H298 C240 0.930 . S
H299 C241 0.930 . S
H300 C243 0.930 . S
H301 C245 0.929 . S
H302 C246 0.930 . S
H303 C247 0.930 . S
H304 C250 0.930 . S
H305 C253 0.929 . S
H306 C258 0.929 . S
H307 C259 0.930 . S
H308 C266 0.929 . S
H309 C267 0.930 . S
H310 C268 0.930 . S
H311 C269 0.930 . S
H312 C271 0.929 . S
H313 C272 0.930 . S
H314 C273 0.930 . S
H315 C274 0.930 . S
H316 C278 0.929 . S
H317 C280 0.930 . S
H318 C286 0.929 . S
H319 C287 0.930 . S
Li320 N337 1.990 . S
Li320 O380 1.958 . S
Li320 O381 1.970 1_556 S
Li320 O382 1.961 . S
Li321 N345 1.990 . S
Li321 O380 1.927 1_554 S
Li321 O381 1.956 . S
Li321 O383 1.961 . S
Li322 N367 1.990 . S
Li322 O380 1.995 . S
Li322 O382 1.956 . S
Li322 O383 1.970 1_556 S
Li323 N373 1.990 . S
Li323 O381 1.961 . S
Li323 O382 1.970 1_554 S
Li323 O383 1.956 . S
C324 C326 1.348 1_556 S
C324 C327 1.356 . S
C324 O380 1.333 . S
N325 C328 1.314 1_556 S
N325 C329 1.279 . S
C326 C324 1.348 1_554 S
C326 C328 1.353 . S
C326 H384 0.929 . S
C327 C324 1.356 . S
C327 C329 1.358 . S
C327 H385 0.930 . S
C328 N325 1.314 1_554 S
C328 C326 1.353 . S
C328 H386 0.930 . S
C329 N325 1.279 . S
C329 C327 1.358 . S
C329 H387 0.930 . S
C330 C333 1.348 . S
C330 C334 1.356 . S
C330 O381 1.325 . S
C331 N332 1.279 . S
C331 C334 1.358 . S
C331 H388 0.930 . S
N332 C331 1.279 . S
N332 C335 1.314 . S
C333 C330 1.348 . S
C333 C335 1.353 . S
C333 H389 0.929 . S
C334 C330 1.356 . S
C334 C331 1.358 . S
C334 H390 0.930 . S
C335 N332 1.314 . S
C335 C333 1.353 . S
C335 H391 0.930 . S
C336 N337 1.314 . S
C336 C341 1.353 . S
C336 H342 0.930 . S
N337 Li320 1.990 . S
N337 C336 1.314 . S
N337 C339 1.279 . S
C338 C339 1.358 . S
C338 C340 1.356 . S
C338 H392 0.930 . S
C339 N337 1.279 . S
C339 C338 1.358 . S
C339 H343 0.930 . S
C340 C338 1.356 . S
C340 C341 1.348 . S
C341 C336 1.353 . S
C341 C340 1.348 . S
C341 H393 0.929 . S
H342 C336 0.930 . S
H343 C339 0.930 . S
C344 N345 1.314 . S
C344 C346 1.353 . S
C344 H350 0.930 . S
N345 Li321 1.990 . S
N345 C344 1.314 . S
N345 C348 1.279 . S
C346 C344 1.353 . S
C346 C349 1.348 . S
C346 H394 0.929 . S
C347 C348 1.358 . S
C347 C349 1.356 . S
C347 H395 0.930 . S
C348 N345 1.279 . S
C348 C347 1.358 . S
C348 H351 0.930 . S
C349 C346 1.348 . S
C349 C347 1.356 . S
H350 C344 0.930 . S
H351 C348 0.930 . S
C352 C354 1.348 . S
C352 C355 1.356 . S
C352 O382 1.325 . S
N353 C356 1.314 . S
N353 C357 1.279 . S
C354 C352 1.348 . S
C354 C356 1.353 . S
C354 H396 0.929 . S
C355 C352 1.356 . S
C355 C357 1.358 . S
C355 H397 0.930 . S
C356 N353 1.314 . S
C356 C354 1.353 . S
C356 H398 0.930 . S
C357 N353 1.279 . S
C357 C355 1.358 . S
C357 H399 0.930 . S
C358 C359 1.348 1_554 S
C358 C360 1.356 . S
C358 O383 1.325 . S
C359 C358 1.348 1_556 S
C359 C361 1.353 . S
C359 H400 0.929 . S
C360 C358 1.356 . S
C360 C362 1.358 . S
C360 H401 0.930 . S
C361 C359 1.353 . S
C361 N363 1.314 1_556 S
C361 H402 0.930 . S
C362 C360 1.358 . S
C362 N363 1.279 . S
C362 H403 0.930 . S
N363 C361 1.314 1_554 S
N363 C362 1.279 . S
C364 C366 1.353 . S
C364 N367 1.314 . S
C364 H370 0.930 . S
C365 N367 1.279 . S
C365 C368 1.358 . S
C365 H371 0.930 . S
C366 C364 1.353 . S
C366 C369 1.348 . S
C366 H404 0.929 . S
N367 Li322 1.990 . S
N367 C364 1.314 . S
N367 C365 1.279 . S
C368 C365 1.358 . S
C368 C369 1.356 . S
C368 H405 0.930 . S
C369 C366 1.348 . S
C369 C368 1.356 . S
H370 C364 0.930 . S
H371 C365 0.930 . S
C372 N373 1.314 . S
C372 C374 1.353 . S
C372 H378 0.930 . S
N373 Li323 1.990 . S
N373 C372 1.314 . S
N373 C376 1.279 . S
C374 C372 1.353 . S
C374 C377 1.348 . S
C374 H406 0.929 . S
C375 C376 1.358 . S
C375 C377 1.356 . S
C375 H407 0.930 . S
C376 N373 1.279 . S
C376 C375 1.358 . S
C376 H379 0.930 . S
C377 C374 1.348 . S
C377 C375 1.356 . S
H378 C372 0.930 . S
H379 C376 0.930 . S
O380 Li320 1.958 . S
O380 Li321 1.927 1_556 S
O380 Li322 1.995 . S
O380 C324 1.333 . S
O381 Li320 1.970 1_554 S
O381 Li321 1.956 . S
O381 Li323 1.961 . S
O381 C330 1.325 . S
O382 Li320 1.961 . S
O382 Li322 1.956 . S
O382 Li323 1.970 1_556 S
O382 C352 1.325 . S
O383 Li321 1.961 . S
O383 Li322 1.970 1_554 S
O383 Li323 1.956 . S
O383 C358 1.325 . S
H384 C326 0.929 . S
H385 C327 0.930 . S
H386 C328 0.930 . S
H387 C329 0.930 . S
H388 C331 0.930 . S
H389 C333 0.929 . S
H390 C334 0.930 . S
H391 C335 0.930 . S
H392 C338 0.930 . S
H393 C341 0.929 . S
H394 C346 0.929 . S
H395 C347 0.930 . S
H396 C354 0.929 . S
H397 C355 0.930 . S
H398 C356 0.930 . S
H399 C357 0.930 . S
H400 C359 0.929 . S
H401 C360 0.930 . S
H402 C361 0.930 . S
H403 C362 0.930 . S
H404 C366 0.929 . S
H405 C368 0.930 . S
H406 C374 0.929 . S
H407 C375 0.930 . S
Li408 N425 1.990 . S
Li408 O468 1.956 . S
Li408 O469 1.970 1_545 S
Li408 O470 1.961 . S
Li409 N433 1.990 . S
Li409 O468 1.970 1_565 S
Li409 O469 1.956 . S
Li409 O471 1.961 . S
Li410 N455 1.990 . S
Li410 O468 1.961 . S
Li410 O470 1.956 . S
Li410 O471 1.970 1_545 S
Li411 N461 1.990 . S
Li411 O469 1.961 . S
Li411 O470 1.970 1_565 S
Li411 O471 1.956 . S
C412 C414 1.348 . S
C412 C415 1.356 . S
C412 O468 1.325 . S
N413 C416 1.314 . S
N413 C417 1.279 . S
C414 C412 1.348 . S
C414 C416 1.353 . S
C414 H472 0.929 . S
C415 C412 1.356 . S
C415 C417 1.358 . S
C415 H473 0.930 . S
C416 N413 1.314 . S
C416 C414 1.353 . S
C416 H474 0.930 . S
C417 N413 1.279 . S
C417 C415 1.358 . S
C417 H475 0.930 . S
C418 C421 1.348 1_565 S
C418 C422 1.356 . S
C418 O469 1.325 . S
C419 N420 1.279 . S
C419 C422 1.358 . S
C419 H476 0.930 . S
N420 C419 1.279 . S
N420 C423 1.314 1_565 S
C421 C418 1.348 1_545 S
C421 C423 1.353 . S
C421 H477 0.929 . S
C422 C418 1.356 . S
C422 C419 1.358 . S
C422 H478 0.930 . S
C423 N420 1.314 1_545 S
C423 C421 1.353 . S
C423 H479 0.930 . S
C424 N425 1.314 . S
C424 C429 1.353 . S
C424 H430 0.930 . S
N425 Li408 1.990 . S
N425 C424 1.314 . S
N425 C427 1.279 . S
C426 C427 1.358 . S
C426 C428 1.356 . S
C426 H480 0.930 . S
C427 N425 1.279 . S
C427 C426 1.358 . S
C427 H431 0.930 . S
C428 C426 1.356 . S
C428 C429 1.348 . S
C429 C424 1.353 . S
C429 C428 1.348 . S
C429 H481 0.929 . S
H430 C424 0.930 . S
H431 C427 0.930 . S
C432 N433 1.314 . S
C432 C434 1.353 . S
C432 H438 0.930 . S
N433 Li409 1.990 . S
N433 C432 1.314 . S
N433 C436 1.279 . S
C434 C432 1.353 . S
C434 C437 1.348 . S
C434 H482 0.929 . S
C435 C436 1.358 . S
C435 C437 1.356 . S
C435 H483 0.930 . S
C436 N433 1.279 . S
C436 C435 1.358 . S
C436 H439 0.930 . S
C437 C434 1.348 . S
C437 C435 1.356 . S
H438 C432 0.930 . S
H439 C436 0.930 . S
C440 C442 1.348 1_545 S
C440 C443 1.356 . S
C440 O470 1.325 . S
N441 C444 1.314 1_545 S
N441 C445 1.279 . S
C442 C440 1.348 1_565 S
C442 C444 1.353 . S
C442 H484 0.929 . S
C443 C440 1.356 . S
C443 C445 1.358 . S
C443 H485 0.930 . S
C444 N441 1.314 1_565 S
C444 C442 1.353 . S
C444 H486 0.930 . S
C445 N441 1.279 . S
C445 C443 1.358 . S
C445 H487 0.930 . S
C446 C447 1.348 . S
C446 C448 1.356 . S
C446 O471 1.325 . S
C447 C446 1.348 . S
C447 C449 1.353 . S
C447 H488 0.929 . S
C448 C446 1.356 . S
C448 C450 1.358 . S
C448 H489 0.930 . S
C449 C447 1.353 . S
C449 N451 1.314 . S
C449 H490 0.930 . S
C450 C448 1.358 . S
C450 N451 1.279 . S
C450 H491 0.930 . S
N451 C449 1.314 . S
N451 C450 1.279 . S
C452 C454 1.353 . S
C452 N455 1.314 . S
C452 H458 0.930 . S
C453 N455 1.279 . S
C453 C456 1.358 . S
C453 H459 0.930 . S
C454 C452 1.353 . S
C454 C457 1.348 . S
C454 H492 0.929 . S
N455 Li410 1.990 . S
N455 C452 1.314 . S
N455 C453 1.279 . S
C456 C453 1.358 . S
C456 C457 1.356 . S
C456 H493 0.930 . S
C457 C454 1.348 . S
C457 C456 1.356 . S
H458 C452 0.930 . S
H459 C453 0.930 . S
C460 N461 1.314 . S
C460 C462 1.353 . S
C460 H466 0.930 . S
N461 Li411 1.990 . S
N461 C460 1.314 . S
N461 C464 1.279 . S
C462 C460 1.353 . S
C462 C465 1.348 . S
C462 H494 0.929 . S
C463 C464 1.358 . S
C463 C465 1.356 . S
C463 H495 0.930 . S
C464 N461 1.279 . S
C464 C463 1.358 . S
C464 H467 0.930 . S
C465 C462 1.348 . S
C465 C463 1.356 . S
H466 C460 0.930 . S
H467 C464 0.930 . S
O468 Li408 1.956 . S
O468 Li409 1.970 1_545 S
O468 Li410 1.961 . S
O468 C412 1.325 . S
O469 Li408 1.970 1_565 S
O469 Li409 1.956 . S
O469 Li411 1.961 . S
O469 C418 1.325 . S
O470 Li408 1.961 . S
O470 Li410 1.956 . S
O470 Li411 1.970 1_545 S
O470 C440 1.325 . S
O471 Li409 1.961 . S
O471 Li410 1.970 1_565 S
O471 Li411 1.956 . S
O471 C446 1.325 . S
H472 C414 0.929 . S
H473 C415 0.930 . S
H474 C416 0.930 . S
H475 C417 0.930 . S
H476 C419 0.930 . S
H477 C421 0.929 . S
H478 C422 0.930 . S
H479 C423 0.930 . S
H480 C426 0.930 . S
H481 C429 0.929 . S
H482 C434 0.929 . S
H483 C435 0.930 . S
H484 C442 0.929 . S
H485 C443 0.930 . S
H486 C444 0.930 . S
H487 C445 0.930 . S
H488 C447 0.929 . S
H489 C448 0.930 . S
H490 C449 0.930 . S
H491 C450 0.930 . S
H492 C454 0.929 . S
H493 C456 0.930 . S
H494 C462 0.929 . S
H495 C463 0.930 . S
Li496 N513 1.990 . S
Li496 O556 1.956 . S
Li496 O557 1.970 . S
Li496 O558 1.961 . S
Li497 N521 1.990 . S
Li497 O556 1.970 . S
Li497 O557 1.956 . S
Li497 O559 1.961 . S
Li498 N543 1.990 . S
Li498 O556 1.961 . S
Li498 O558 1.956 . S
Li498 O559 1.970 . S
Li499 N549 1.990 . S
Li499 O557 1.961 . S
Li499 O558 1.970 . S
Li499 O559 1.956 . S
C500 C502 1.348 . S
C500 C503 1.356 . S
C500 O556 1.325 . S
N501 C504 1.314 . S
N501 C505 1.279 . S
C502 C500 1.348 . S
C502 C504 1.353 . S
C502 H560 0.929 . S
C503 C500 1.356 . S
C503 C505 1.358 . S
C503 H561 0.930 . S
C504 N501 1.314 . S
C504 C502 1.353 . S
C504 H562 0.930 . S
C505 N501 1.279 . S
C505 C503 1.358 . S
C505 H563 0.930 . S
C506 C509 1.348 . S
C506 C510 1.356 . S
C506 O557 1.325 . S
C507 N508 1.279 . S
C507 C510 1.358 . S
C507 H564 0.930 . S
N508 C507 1.279 . S
N508 C511 1.314 . S
C509 C506 1.348 . S
C509 C511 1.353 . S
C509 H565 0.929 . S
C510 C506 1.356 . S
C510 C507 1.358 . S
C510 H566 0.930 . S
C511 N508 1.314 . S
C511 C509 1.353 . S
C511 H567 0.930 . S
C512 N513 1.314 . S
C512 C517 1.353 . S
C512 H518 0.930 . S
N513 Li496 1.990 . S
N513 C512 1.314 . S
N513 C515 1.279 . S
C514 C515 1.358 . S
C514 C516 1.356 . S
C514 H568 0.930 . S
C515 N513 1.279 . S
C515 C514 1.358 . S
C515 H519 0.930 . S
C516 C514 1.356 . S
C516 C517 1.348 . S
C517 C512 1.353 . S
C517 C516 1.348 . S
C517 H569 0.929 . S
H518 C512 0.930 . S
H519 C515 0.930 . S
C520 N521 1.314 . S
C520 C522 1.353 . S
C520 H526 0.930 . S
N521 Li497 1.990 . S
N521 C520 1.314 . S
N521 C524 1.279 . S
C522 C520 1.353 . S
C522 C525 1.348 . S
C522 H570 0.929 . S
C523 C524 1.358 . S
C523 C525 1.356 . S
C523 H571 0.930 . S
C524 N521 1.279 . S
C524 C523 1.358 . S
C524 H527 0.930 . S
C525 C522 1.348 . S
C525 C523 1.356 . S
H526 C520 0.930 . S
H527 C524 0.930 . S
C528 C530 1.348 . S
C528 C531 1.356 . S
C528 O558 1.325 . S
N529 C532 1.314 . S
N529 C533 1.279 . S
C530 C528 1.348 . S
C530 C532 1.353 . S
C530 H572 0.929 . S
C531 C528 1.356 . S
C531 C533 1.358 . S
C531 H573 0.930 . S
C532 N529 1.314 . S
C532 C530 1.353 . S
C532 H574 0.930 . S
C533 N529 1.279 . S
C533 C531 1.358 . S
C533 H575 0.930 . S
C534 C535 1.348 . S
C534 C536 1.356 . S
C534 O559 1.325 . S
C535 C534 1.348 . S
C535 C537 1.353 . S
C535 H576 0.929 . S
C536 C534 1.356 . S
C536 C538 1.358 . S
C536 H577 0.930 . S
C537 C535 1.353 . S
C537 N539 1.314 . S
C537 H578 0.930 . S
C538 C536 1.358 . S
C538 N539 1.279 . S
C538 H579 0.930 . S
N539 C537 1.314 . S
N539 C538 1.279 . S
C540 C542 1.353 . S
C540 N543 1.314 . S
C540 H546 0.930 . S
C541 N543 1.279 . S
C541 C544 1.358 . S
C541 H547 0.930 . S
C542 C540 1.353 . S
C542 C545 1.348 . S
C542 H580 0.929 . S
N543 Li498 1.990 . S
N543 C540 1.314 . S
N543 C541 1.279 . S
C544 C541 1.358 . S
C544 C545 1.356 . S
C544 H581 0.930 . S
C545 C542 1.348 . S
C545 C544 1.356 . S
H546 C540 0.930 . S
H547 C541 0.930 . S
C548 N549 1.314 . S
C548 C550 1.353 . S
C548 H554 0.930 . S
N549 Li499 1.990 . S
N549 C548 1.314 . S
N549 C552 1.279 . S
C550 C548 1.353 . S
C550 C553 1.348 . S
C550 H582 0.929 . S
C551 C552 1.358 . S
C551 C553 1.356 . S
C551 H583 0.930 . S
C552 N549 1.279 . S
C552 C551 1.358 . S
C552 H555 0.930 . S
C553 C550 1.348 . S
C553 C551 1.356 . S
H554 C548 0.930 . S
H555 C552 0.930 . S
O556 Li496 1.956 . S
O556 Li497 1.970 . S
O556 Li498 1.961 . S
O556 C500 1.325 . S
O557 Li496 1.970 . S
O557 Li497 1.956 . S
O557 Li499 1.961 . S
O557 C506 1.325 . S
O558 Li496 1.961 . S
O558 Li498 1.956 . S
O558 Li499 1.970 . S
O558 C528 1.325 . S
O559 Li497 1.961 . S
O559 Li498 1.970 . S
O559 Li499 1.956 . S
O559 C534 1.325 . S
H560 C502 0.929 . S
H561 C503 0.930 . S
H562 C504 0.930 . S
H563 C505 0.930 . S
H564 C507 0.930 . S
H565 C509 0.929 . S
H566 C510 0.930 . S
H567 C511 0.930 . S
H568 C514 0.930 . S
H569 C517 0.929 . S
H570 C522 0.929 . S
H571 C523 0.930 . S
H572 C530 0.929 . S
H573 C531 0.930 . S
H574 C532 0.930 . S
H575 C533 0.930 . S
H576 C535 0.929 . S
H577 C536 0.930 . S
H578 C537 0.930 . S
H579 C538 0.930 . S
H580 C542 0.929 . S
H581 C544 0.930 . S
H582 C550 0.929 . S
H583 C551 0.930 . S
Li584 N601 1.990 . S
Li584 O644 1.956 . S
Li584 O645 1.970 . S
Li584 O646 1.961 . S
Li585 N609 1.990 . S
Li585 O644 1.970 . S
Li585 O645 1.956 . S
Li585 O647 1.961 . S
Li586 N631 1.990 . S
Li586 O644 1.961 . S
Li586 O646 1.956 . S
Li586 O647 1.970 . S
Li587 N637 1.990 . S
Li587 O645 1.961 . S
Li587 O646 1.970 . S
Li587 O647 1.956 . S
C588 C590 1.348 . S
C588 C591 1.356 . S
C588 O644 1.325 . S
N589 C592 1.314 . S
N589 C593 1.279 . S
C590 C588 1.348 . S
C590 C592 1.353 . S
C590 H648 0.929 . S
C591 C588 1.356 . S
C591 C593 1.358 . S
C591 H649 0.930 . S
C592 N589 1.314 . S
C592 C590 1.353 . S
C592 H650 0.930 . S
C593 N589 1.279 . S
C593 C591 1.358 . S
C593 H651 0.930 . S
C594 C597 1.348 . S
C594 C598 1.356 . S
C594 O645 1.325 . S
C595 N596 1.279 . S
C595 C598 1.358 . S
C595 H652 0.930 . S
N596 C595 1.279 . S
N596 C599 1.314 . S
C597 C594 1.348 . S
C597 C599 1.353 . S
C597 H653 0.929 . S
C598 C594 1.356 . S
C598 C595 1.358 . S
C598 H654 0.930 . S
C599 N596 1.314 . S
C599 C597 1.353 . S
C599 H655 0.930 . S
C600 N601 1.314 . S
C600 C605 1.353 . S
C600 H606 0.930 . S
N601 Li584 1.990 . S
N601 C600 1.314 . S
N601 C603 1.279 . S
C602 C603 1.358 . S
C602 C604 1.356 . S
C602 H656 0.930 . S
C603 N601 1.279 . S
C603 C602 1.358 . S
C603 H607 0.930 . S
C604 C602 1.356 . S
C604 C605 1.348 . S
C605 C600 1.353 . S
C605 C604 1.348 . S
C605 H657 0.929 . S
H606 C600 0.930 . S
H607 C603 0.930 . S
C608 N609 1.314 . S
C608 C610 1.353 . S
C608 H614 0.930 . S
N609 Li585 1.990 . S
N609 C608 1.314 . S
N609 C612 1.279 . S
C610 C608 1.353 . S
C610 C613 1.348 . S
C610 H658 0.929 . S
C611 C612 1.358 . S
C611 C613 1.356 . S
C611 H659 0.930 . S
C612 N609 1.279 . S
C612 C611 1.358 . S
C612 H615 0.930 . S
C613 C610 1.348 . S
C613 C611 1.356 . S
H614 C608 0.930 . S
H615 C612 0.930 . S
C616 C618 1.348 . S
C616 C619 1.356 . S
C616 O646 1.325 . S
N617 C620 1.314 . S
N617 C621 1.279 . S
C618 C616 1.348 . S
C618 C620 1.353 . S
C618 H660 0.929 . S
C619 C616 1.356 . S
C619 C621 1.358 . S
C619 H661 0.930 . S
C620 N617 1.314 . S
C620 C618 1.353 . S
C620 H662 0.930 . S
C621 N617 1.279 . S
C621 C619 1.358 . S
C621 H663 0.930 . S
C622 C623 1.348 . S
C622 C624 1.356 . S
C622 O647 1.325 . S
C623 C622 1.348 . S
C623 C625 1.353 . S
C623 H664 0.929 . S
C624 C622 1.356 . S
C624 C626 1.358 . S
C624 H665 0.930 . S
C625 C623 1.353 . S
C625 N627 1.314 . S
C625 H666 0.930 . S
C626 C624 1.358 . S
C626 N627 1.279 . S
C626 H667 0.930 . S
N627 C625 1.314 . S
N627 C626 1.279 . S
C628 C630 1.353 . S
C628 N631 1.314 . S
C628 H634 0.930 . S
C629 N631 1.279 . S
C629 C632 1.358 . S
C629 H635 0.930 . S
C630 C628 1.353 . S
C630 C633 1.348 . S
C630 H668 0.929 . S
N631 Li586 1.990 . S
N631 C628 1.314 . S
N631 C629 1.279 . S
C632 C629 1.358 . S
C632 C633 1.356 . S
C632 H669 0.930 . S
C633 C630 1.348 . S
C633 C632 1.356 . S
H634 C628 0.930 . S
H635 C629 0.930 . S
C636 N637 1.314 . S
C636 C638 1.353 . S
C636 H642 0.930 . S
N637 Li587 1.990 . S
N637 C636 1.314 . S
N637 C640 1.279 . S
C638 C636 1.353 . S
C638 C641 1.348 . S
C638 H670 0.929 . S
C639 C640 1.358 . S
C639 C641 1.356 . S
C639 H671 0.930 . S
C640 N637 1.279 . S
C640 C639 1.358 . S
C640 H643 0.930 . S
C641 C638 1.348 . S
C641 C639 1.356 . S
H642 C636 0.930 . S
H643 C640 0.930 . S
O644 Li584 1.956 . S
O644 Li585 1.970 . S
O644 Li586 1.961 . S
O644 C588 1.325 . S
O645 Li584 1.970 . S
O645 Li585 1.956 . S
O645 Li587 1.961 . S
O645 C594 1.325 . S
O646 Li584 1.961 . S
O646 Li586 1.956 . S
O646 Li587 1.970 . S
O646 C616 1.325 . S
O647 Li585 1.961 . S
O647 Li586 1.970 . S
O647 Li587 1.956 . S
O647 C622 1.325 . S
H648 C590 0.929 . S
H649 C591 0.930 . S
H650 C592 0.930 . S
H651 C593 0.930 . S
H652 C595 0.930 . S
H653 C597 0.929 . S
H654 C598 0.930 . S
H655 C599 0.930 . S
H656 C602 0.930 . S
H657 C605 0.929 . S
H658 C610 0.929 . S
H659 C611 0.930 . S
H660 C618 0.929 . S
H661 C619 0.930 . S
H662 C620 0.930 . S
H663 C621 0.930 . S
H664 C623 0.929 . S
H665 C624 0.930 . S
H666 C625 0.930 . S
H667 C626 0.930 . S
H668 C630 0.929 . S
H669 C632 0.930 . S
H670 C638 0.929 . S
H671 C639 0.930 . S
Li672 N689 1.990 . S
Li672 O732 1.956 . S
Li672 O733 1.970 . S
Li672 O734 1.961 . S
Li673 N697 1.990 . S
Li673 O732 1.970 . S
Li673 O733 1.956 . S
Li673 O735 1.961 . S
Li674 N719 1.990 . S
Li674 O732 1.961 . S
Li674 O734 1.956 . S
Li674 O735 1.970 . S
Li675 N725 1.990 . S
Li675 O733 1.961 . S
Li675 O734 1.970 . S
Li675 O735 1.956 . S
C676 C678 1.348 . S
C676 C679 1.356 . S
C676 O732 1.325 . S
N677 C680 1.314 . S
N677 C681 1.279 . S
C678 C676 1.348 . S
C678 C680 1.353 . S
C678 H736 0.929 . S
C679 C676 1.356 . S
C679 C681 1.358 . S
C679 H737 0.930 . S
C680 N677 1.314 . S
C680 C678 1.353 . S
C680 H738 0.930 . S
C681 N677 1.279 . S
C681 C679 1.358 . S
C681 H739 0.930 . S
C682 C685 1.348 . S
C682 C686 1.356 . S
C682 O733 1.325 . S
C683 N684 1.279 . S
C683 C686 1.358 . S
C683 H740 0.930 . S
N684 C683 1.279 . S
N684 C687 1.314 . S
C685 C682 1.348 . S
C685 C687 1.353 . S
C685 H741 0.929 . S
C686 C682 1.356 . S
C686 C683 1.358 . S
C686 H742 0.930 . S
C687 N684 1.314 . S
C687 C685 1.353 . S
C687 H743 0.930 . S
C688 N689 1.314 . S
C688 C693 1.353 . S
C688 H694 0.930 . S
N689 Li672 1.990 . S
N689 C688 1.314 . S
N689 C691 1.279 . S
C690 C691 1.358 . S
C690 C692 1.356 . S
C690 H744 0.930 . S
C691 N689 1.279 . S
C691 C690 1.358 . S
C691 H695 0.930 . S
C692 C690 1.356 . S
C692 C693 1.348 . S
C693 C688 1.353 . S
C693 C692 1.348 . S
C693 H745 0.929 . S
H694 C688 0.930 . S
H695 C691 0.930 . S
C696 N697 1.314 . S
C696 C698 1.353 . S
C696 H702 0.930 . S
N697 Li673 1.990 . S
N697 C696 1.314 . S
N697 C700 1.279 . S
C698 C696 1.353 . S
C698 C701 1.348 . S
C698 H746 0.929 . S
C699 C700 1.358 . S
C699 C701 1.356 . S
C699 H747 0.930 . S
C700 N697 1.279 . S
C700 C699 1.358 . S
C700 H703 0.930 . S
C701 C698 1.348 . S
C701 C699 1.356 . S
H702 C696 0.930 . S
H703 C700 0.930 . S
C704 C706 1.348 . S
C704 C707 1.356 . S
C704 O734 1.325 . S
N705 C708 1.314 . S
N705 C709 1.279 . S
C706 C704 1.348 . S
C706 C708 1.353 . S
C706 H748 0.929 . S
C707 C704 1.356 . S
C707 C709 1.358 . S
C707 H749 0.930 . S
C708 N705 1.314 . S
C708 C706 1.353 . S
C708 H750 0.930 . S
C709 N705 1.279 . S
C709 C707 1.358 . S
C709 H751 0.930 . S
C710 C711 1.348 . S
C710 C712 1.356 . S
C710 O735 1.325 . S
C711 C710 1.348 . S
C711 C713 1.353 . S
C711 H752 0.929 . S
C712 C710 1.356 . S
C712 C714 1.358 . S
C712 H753 0.930 . S
C713 C711 1.353 . S
C713 N715 1.314 . S
C713 H754 0.930 . S
C714 C712 1.358 . S
C714 N715 1.279 . S
C714 H755 0.930 . S
N715 C713 1.314 . S
N715 C714 1.279 . S
C716 C718 1.353 . S
C716 N719 1.314 . S
C716 H722 0.930 . S
C717 N719 1.279 . S
C717 C720 1.358 . S
C717 H723 0.930 . S
C718 C716 1.353 . S
C718 C721 1.348 . S
C718 H756 0.929 . S
N719 Li674 1.990 . S
N719 C716 1.314 . S
N719 C717 1.279 . S
C720 C717 1.358 . S
C720 C721 1.356 . S
C720 H757 0.930 . S
C721 C718 1.348 . S
C721 C720 1.356 . S
H722 C716 0.930 . S
H723 C717 0.930 . S
C724 N725 1.314 . S
C724 C726 1.353 . S
C724 H730 0.930 . S
N725 Li675 1.990 . S
N725 C724 1.314 . S
N725 C728 1.279 . S
C726 C724 1.353 . S
C726 C729 1.348 . S
C726 H758 0.929 . S
C727 C728 1.358 . S
C727 C729 1.356 . S
C727 H759 0.930 . S
C728 N725 1.279 . S
C728 C727 1.358 . S
C728 H731 0.930 . S
C729 C726 1.348 . S
C729 C727 1.356 . S
H730 C724 0.930 . S
H731 C728 0.930 . S
O732 Li672 1.956 . S
O732 Li673 1.970 . S
O732 Li674 1.961 . S
O732 C676 1.325 . S
O733 Li672 1.970 . S
O733 Li673 1.956 . S
O733 Li675 1.961 . S
O733 C682 1.325 . S
O734 Li672 1.961 . S
O734 Li674 1.956 . S
O734 Li675 1.970 . S
O734 C704 1.325 . S
O735 Li673 1.961 . S
O735 Li674 1.970 . S
O735 Li675 1.956 . S
O735 C710 1.325 . S
H736 C678 0.929 . S
H737 C679 0.930 . S
H738 C680 0.930 . S
H739 C681 0.930 . S
H740 C683 0.930 . S
H741 C685 0.929 . S
H742 C686 0.930 . S
H743 C687 0.930 . S
H744 C690 0.930 . S
H745 C693 0.929 . S
H746 C698 0.929 . S
H747 C699 0.930 . S
H748 C706 0.929 . S
H749 C707 0.930 . S
H750 C708 0.930 . S
H751 C709 0.930 . S
H752 C711 0.929 . S
H753 C712 0.930 . S
H754 C713 0.930 . S
H755 C714 0.930 . S
H756 C718 0.929 . S
H757 C720 0.930 . S
H758 C726 0.929 . S
H759 C727 0.930 . S
Li760 N777 1.990 . S
Li760 O820 1.956 . S
Li760 O821 1.970 1_565 S
Li760 O822 1.961 . S
Li761 N785 1.990 . S
Li761 O820 1.970 1_545 S
Li761 O821 1.956 . S
Li761 O823 1.961 . S
Li762 N807 1.990 . S
Li762 O820 1.961 . S
Li762 O822 1.956 . S
Li762 O823 1.970 1_565 S
Li763 N813 1.990 . S
Li763 O821 1.961 . S
Li763 O822 1.970 1_545 S
Li763 O823 1.956 . S
C764 C766 1.348 . S
C764 C767 1.356 . S
C764 O820 1.325 . S
N765 C768 1.314 . S
N765 C769 1.279 . S
C766 C764 1.348 . S
C766 C768 1.353 . S
C766 H824 0.929 . S
C767 C764 1.356 . S
C767 C769 1.358 . S
C767 H825 0.930 . S
C768 N765 1.314 . S
C768 C766 1.353 . S
C768 H826 0.930 . S
C769 N765 1.279 . S
C769 C767 1.358 . S
C769 H827 0.930 . S
C770 C773 1.348 1_545 S
C770 C774 1.356 . S
C770 O821 1.325 . S
C771 N772 1.279 . S
C771 C774 1.358 . S
C771 H828 0.930 . S
N772 C771 1.279 . S
N772 C775 1.314 1_545 S
C773 C770 1.348 1_565 S
C773 C775 1.353 . S
C773 H829 0.929 . S
C774 C770 1.356 . S
C774 C771 1.358 . S
C774 H830 0.930 . S
C775 N772 1.314 1_565 S
C775 C773 1.353 . S
C775 H831 0.930 . S
C776 N777 1.314 . S
C776 C781 1.353 . S
C776 H782 0.930 . S
N777 Li760 1.990 . S
N777 C776 1.314 . S
N777 C779 1.279 . S
C778 C779 1.358 . S
C778 C780 1.356 . S
C778 H832 0.930 . S
C779 N777 1.279 . S
C779 C778 1.358 . S
C779 H783 0.930 . S
C780 C778 1.356 . S
C780 C781 1.348 . S
C781 C776 1.353 . S
C781 C780 1.348 . S
C781 H833 0.929 . S
H782 C776 0.930 . S
H783 C779 0.930 . S
C784 N785 1.314 . S
C784 C786 1.353 . S
C784 H790 0.930 . S
N785 Li761 1.990 . S
N785 C784 1.314 . S
N785 C788 1.279 . S
C786 C784 1.353 . S
C786 C789 1.348 . S
C786 H834 0.929 . S
C787 C788 1.358 . S
C787 C789 1.356 . S
C787 H835 0.930 . S
C788 N785 1.279 . S
C788 C787 1.358 . S
C788 H791 0.930 . S
C789 C786 1.348 . S
C789 C787 1.356 . S
H790 C784 0.930 . S
H791 C788 0.930 . S
C792 C794 1.348 1_565 S
C792 C795 1.356 . S
C792 O822 1.325 . S
N793 C796 1.314 1_565 S
N793 C797 1.279 . S
C794 C792 1.348 1_545 S
C794 C796 1.353 . S
C794 H836 0.929 . S
C795 C792 1.356 . S
C795 C797 1.358 . S
C795 H837 0.930 . S
C796 N793 1.314 1_545 S
C796 C794 1.353 . S
C796 H838 0.930 . S
C797 N793 1.279 . S
C797 C795 1.358 . S
C797 H839 0.930 . S
C798 C799 1.348 . S
C798 C800 1.356 . S
C798 O823 1.325 . S
C799 C798 1.348 . S
C799 C801 1.353 . S
C799 H840 0.929 . S
C800 C798 1.356 . S
C800 C802 1.358 . S
C800 H841 0.930 . S
C801 C799 1.353 . S
C801 N803 1.314 . S
C801 H842 0.930 . S
C802 C800 1.358 . S
C802 N803 1.279 . S
C802 H843 0.930 . S
N803 C801 1.314 . S
N803 C802 1.279 . S
C804 C806 1.353 . S
C804 N807 1.314 . S
C804 H810 0.930 . S
C805 N807 1.279 . S
C805 C808 1.358 . S
C805 H811 0.930 . S
C806 C804 1.353 . S
C806 C809 1.348 . S
C806 H844 0.929 . S
N807 Li762 1.990 . S
N807 C804 1.314 . S
N807 C805 1.279 . S
C808 C805 1.358 . S
C808 C809 1.356 . S
C808 H845 0.930 . S
C809 C806 1.348 . S
C809 C808 1.356 . S
H810 C804 0.930 . S
H811 C805 0.930 . S
C812 N813 1.314 . S
C812 C814 1.353 . S
C812 H818 0.930 . S
N813 Li763 1.990 . S
N813 C812 1.314 . S
N813 C816 1.279 . S
C814 C812 1.353 . S
C814 C817 1.348 . S
C814 H846 0.929 . S
C815 C816 1.358 . S
C815 C817 1.356 . S
C815 H847 0.930 . S
C816 N813 1.279 . S
C816 C815 1.358 . S
C816 H819 0.930 . S
C817 C814 1.348 . S
C817 C815 1.356 . S
H818 C812 0.930 . S
H819 C816 0.930 . S
O820 Li760 1.956 . S
O820 Li761 1.970 1_565 S
O820 Li762 1.961 . S
O820 C764 1.325 . S
O821 Li760 1.970 1_545 S
O821 Li761 1.956 . S
O821 Li763 1.961 . S
O821 C770 1.325 . S
O822 Li760 1.961 . S
O822 Li762 1.956 . S
O822 Li763 1.970 1_565 S
O822 C792 1.325 . S
O823 Li761 1.961 . S
O823 Li762 1.970 1_545 S
O823 Li763 1.956 . S
O823 C798 1.325 . S
H824 C766 0.929 . S
H825 C767 0.930 . S
H826 C768 0.930 . S
H827 C769 0.930 . S
H828 C771 0.930 . S
H829 C773 0.929 . S
H830 C774 0.930 . S
H831 C775 0.930 . S
H832 C778 0.930 . S
H833 C781 0.929 . S
H834 C786 0.929 . S
H835 C787 0.930 . S
H836 C794 0.929 . S
H837 C795 0.930 . S
H838 C796 0.930 . S
H839 C797 0.930 . S
H840 C799 0.929 . S
H841 C800 0.930 . S
H842 C801 0.930 . S
H843 C802 0.930 . S
H844 C806 0.929 . S
H845 C808 0.930 . S
H846 C814 0.929 . S
H847 C815 0.930 . S
Li848 N865 1.990 . S
Li848 O908 1.956 . S
Li848 O909 1.970 1_455 S
Li848 O910 1.961 . S
Li849 N873 1.990 . S
Li849 O908 1.970 1_655 S
Li849 O909 1.956 . S
Li849 O911 1.961 . S
Li850 N895 1.990 . S
Li850 O908 1.961 . S
Li850 O910 1.956 . S
Li850 O911 1.970 1_455 S
Li851 N901 1.990 . S
Li851 O909 1.961 . S
Li851 O910 1.970 1_655 S
Li851 O911 1.956 . S
C852 C854 1.348 . S
C852 C855 1.356 . S
C852 O908 1.325 . S
N853 C856 1.314 . S
N853 C857 1.279 . S
C854 C852 1.348 . S
C854 C856 1.353 . S
C854 H912 0.929 . S
C855 C852 1.356 . S
C855 C857 1.358 . S
C855 H913 0.930 . S
C856 N853 1.314 . S
C856 C854 1.353 . S
C856 H914 0.930 . S
C857 N853 1.279 . S
C857 C855 1.358 . S
C857 H915 0.930 . S
C858 C861 1.348 1_655 S
C858 C862 1.356 . S
C858 O909 1.325 . S
C859 N860 1.279 . S
C859 C862 1.358 . S
C859 H916 0.930 . S
N860 C859 1.279 . S
N860 C863 1.314 1_655 S
C861 C858 1.348 1_455 S
C861 C863 1.353 . S
C861 H917 0.929 . S
C862 C858 1.356 . S
C862 C859 1.358 . S
C862 H918 0.930 . S
C863 N860 1.314 1_455 S
C863 C861 1.353 . S
C863 H919 0.930 . S
C864 N865 1.314 . S
C864 C869 1.353 . S
C864 H870 0.930 . S
N865 Li848 1.990 . S
N865 C864 1.314 . S
N865 C867 1.279 . S
C866 C867 1.358 . S
C866 C868 1.356 . S
C866 H920 0.930 . S
C867 N865 1.279 . S
C867 C866 1.358 . S
C867 H871 0.930 . S
C868 C866 1.356 . S
C868 C869 1.348 . S
C869 C864 1.353 . S
C869 C868 1.348 . S
C869 H921 0.929 . S
H870 C864 0.930 . S
H871 C867 0.930 . S
C872 N873 1.314 . S
C872 C874 1.353 . S
C872 H878 0.930 . S
N873 Li849 1.990 . S
N873 C872 1.314 . S
N873 C876 1.279 . S
C874 C872 1.353 . S
C874 C877 1.348 . S
C874 H922 0.929 . S
C875 C876 1.358 . S
C875 C877 1.356 . S
C875 H923 0.930 . S
C876 N873 1.279 . S
C876 C875 1.358 . S
C876 H879 0.930 . S
C877 C874 1.348 . S
C877 C875 1.356 . S
H878 C872 0.930 . S
H879 C876 0.930 . S
C880 C882 1.348 1_455 S
C880 C883 1.356 . S
C880 O910 1.325 . S
N881 C884 1.314 1_455 S
N881 C885 1.279 . S
C882 C880 1.348 1_655 S
C882 C884 1.353 . S
C882 H924 0.929 . S
C883 C880 1.356 . S
C883 C885 1.358 . S
C883 H925 0.930 . S
C884 N881 1.314 1_655 S
C884 C882 1.353 . S
C884 H926 0.930 . S
C885 N881 1.279 . S
C885 C883 1.358 . S
C885 H927 0.930 . S
C886 C887 1.348 . S
C886 C888 1.356 . S
C886 O911 1.325 . S
C887 C886 1.348 . S
C887 C889 1.353 . S
C887 H928 0.929 . S
C888 C886 1.356 . S
C888 C890 1.358 . S
C888 H929 0.930 . S
C889 C887 1.353 . S
C889 N891 1.314 . S
C889 H930 0.930 . S
C890 C888 1.358 . S
C890 N891 1.279 . S
C890 H931 0.930 . S
N891 C889 1.314 . S
N891 C890 1.279 . S
C892 C894 1.353 . S
C892 N895 1.314 . S
C892 H898 0.930 . S
C893 N895 1.279 . S
C893 C896 1.358 . S
C893 H899 0.930 . S
C894 C892 1.353 . S
C894 C897 1.348 . S
C894 H932 0.929 . S
N895 Li850 1.990 . S
N895 C892 1.314 . S
N895 C893 1.279 . S
C896 C893 1.358 . S
C896 C897 1.356 . S
C896 H933 0.930 . S
C897 C894 1.348 . S
C897 C896 1.356 . S
H898 C892 0.930 . S
H899 C893 0.930 . S
C900 N901 1.314 . S
C900 C902 1.353 . S
C900 H906 0.930 . S
N901 Li851 1.990 . S
N901 C900 1.314 . S
N901 C904 1.279 . S
C902 C900 1.353 . S
C902 C905 1.348 . S
C902 H934 0.929 . S
C903 C904 1.358 . S
C903 C905 1.356 . S
C903 H935 0.930 . S
C904 N901 1.279 . S
C904 C903 1.358 . S
C904 H907 0.930 . S
C905 C902 1.348 . S
C905 C903 1.356 . S
H906 C900 0.930 . S
H907 C904 0.930 . S
O908 Li848 1.956 . S
O908 Li849 1.970 1_455 S
O908 Li850 1.961 . S
O908 C852 1.325 . S
O909 Li848 1.970 1_655 S
O909 Li849 1.956 . S
O909 Li851 1.961 . S
O909 C858 1.325 . S
O910 Li848 1.961 . S
O910 Li850 1.956 . S
O910 Li851 1.970 1_455 S
O910 C880 1.325 . S
O911 Li849 1.961 . S
O911 Li850 1.970 1_655 S
O911 Li851 1.956 . S
O911 C886 1.325 . S
H912 C854 0.929 . S
H913 C855 0.930 . S
H914 C856 0.930 . S
H915 C857 0.930 . S
H916 C859 0.930 . S
H917 C861 0.929 . S
H918 C862 0.930 . S
H919 C863 0.930 . S
H920 C866 0.930 . S
H921 C869 0.929 . S
H922 C874 0.929 . S
H923 C875 0.930 . S
H924 C882 0.929 . S
H925 C883 0.930 . S
H926 C884 0.930 . S
H927 C885 0.930 . S
H928 C887 0.929 . S
H929 C888 0.930 . S
H930 C889 0.930 . S
H931 C890 0.930 . S
H932 C894 0.929 . S
H933 C896 0.930 . S
H934 C902 0.929 . S
H935 C903 0.930 . S
Li936 N953 1.990 . S
Li936 O996 1.956 . S
Li936 O997 1.970 . S
Li936 O998 1.961 . S
Li937 N961 1.990 . S
Li937 O996 1.970 . S
Li937 O997 1.956 . S
Li937 O999 1.961 . S
Li938 N983 1.990 . S
Li938 O996 1.961 . S
Li938 O998 1.956 . S
Li938 O999 1.970 . S
Li939 N989 1.990 . S
Li939 O997 1.961 . S
Li939 O998 1.970 . S
Li939 O999 1.956 . S
C940 C942 1.348 . S
C940 C943 1.356 . S
C940 O996 1.325 . S
N941 C944 1.314 . S
N941 C945 1.279 . S
C942 C940 1.348 . S
C942 C944 1.353 . S
C942 H1000 0.929 . S
C943 C940 1.356 . S
C943 C945 1.358 . S
C943 H1001 0.930 . S
C944 N941 1.314 . S
C944 C942 1.353 . S
C944 H1002 0.930 . S
C945 N941 1.279 . S
C945 C943 1.358 . S
C945 H1003 0.930 . S
C946 C949 1.348 . S
C946 C950 1.356 . S
C946 O997 1.325 . S
C947 N948 1.279 . S
C947 C950 1.358 . S
C947 H1004 0.930 . S
N948 C947 1.279 . S
N948 C951 1.314 . S
C949 C946 1.348 . S
C949 C951 1.353 . S
C949 H1005 0.929 . S
C950 C946 1.356 . S
C950 C947 1.358 . S
C950 H1006 0.930 . S
C951 N948 1.314 . S
C951 C949 1.353 . S
C951 H1007 0.930 . S
C952 N953 1.314 . S
C952 C957 1.353 . S
C952 H958 0.930 . S
N953 Li936 1.990 . S
N953 C952 1.314 . S
N953 C955 1.279 . S
C954 C955 1.358 . S
C954 C956 1.356 . S
C954 H1008 0.930 . S
C955 N953 1.279 . S
C955 C954 1.358 . S
C955 H959 0.930 . S
C956 C954 1.356 . S
C956 C957 1.348 . S
C957 C952 1.353 . S
C957 C956 1.348 . S
C957 H1009 0.929 . S
H958 C952 0.930 . S
H959 C955 0.930 . S
C960 N961 1.314 . S
C960 C962 1.353 . S
C960 H966 0.930 . S
N961 Li937 1.990 . S
N961 C960 1.314 . S
N961 C964 1.279 . S
C962 C960 1.353 . S
C962 C965 1.348 . S
C962 H1010 0.929 . S
C963 C964 1.358 . S
C963 C965 1.356 . S
C963 H1011 0.930 . S
C964 N961 1.279 . S
C964 C963 1.358 . S
C964 H967 0.930 . S
C965 C962 1.348 . S
C965 C963 1.356 . S
H966 C960 0.930 . S
H967 C964 0.930 . S
C968 C970 1.348 . S
C968 C971 1.356 . S
C968 O998 1.325 . S
N969 C972 1.314 . S
N969 C973 1.279 . S
C970 C968 1.348 . S
C970 C972 1.353 . S
C970 H1012 0.929 . S
C971 C968 1.356 . S
C971 C973 1.358 . S
C971 H1013 0.930 . S
C972 N969 1.314 . S
C972 C970 1.353 . S
C972 H1014 0.930 . S
C973 N969 1.279 . S
C973 C971 1.358 . S
C973 H1015 0.930 . S
C974 C975 1.348 . S
C974 C976 1.356 . S
C974 O999 1.325 . S
C975 C974 1.348 . S
C975 C977 1.353 . S
C975 H1016 0.929 . S
C976 C974 1.356 . S
C976 C978 1.358 . S
C976 H1017 0.930 . S
C977 C975 1.353 . S
C977 N979 1.314 . S
C977 H1018 0.930 . S
C978 C976 1.358 . S
C978 N979 1.279 . S
C978 H1019 0.930 . S
N979 C977 1.314 . S
N979 C978 1.279 . S
C980 C982 1.353 . S
C980 N983 1.314 . S
C980 H986 0.930 . S
C981 N983 1.279 . S
C981 C984 1.358 . S
C981 H987 0.930 . S
C982 C980 1.353 . S
C982 C985 1.348 . S
C982 H1020 0.929 . S
N983 Li938 1.990 . S
N983 C980 1.314 . S
N983 C981 1.279 . S
C984 C981 1.358 . S
C984 C985 1.356 . S
C984 H1021 0.930 . S
C985 C982 1.348 . S
C985 C984 1.356 . S
H986 C980 0.930 . S
H987 C981 0.930 . S
C988 N989 1.314 . S
C988 C990 1.353 . S
C988 H994 0.930 . S
N989 Li939 1.990 . S
N989 C988 1.314 . S
N989 C992 1.279 . S
C990 C988 1.353 . S
C990 C993 1.348 . S
C990 H1022 0.929 . S
C991 C992 1.358 . S
C991 C993 1.356 . S
C991 H1023 0.930 . S
C992 N989 1.279 . S
C992 C991 1.358 . S
C992 H995 0.930 . S
C993 C990 1.348 . S
C993 C991 1.356 . S
H994 C988 0.930 . S
H995 C992 0.930 . S
O996 Li936 1.956 . S
O996 Li937 1.970 . S
O996 Li938 1.961 . S
O996 C940 1.325 . S
O997 Li936 1.970 . S
O997 Li937 1.956 . S
O997 Li939 1.961 . S
O997 C946 1.325 . S
O998 Li936 1.961 . S
O998 Li938 1.956 . S
O998 Li939 1.970 . S
O998 C968 1.325 . S
O999 Li937 1.961 . S
O999 Li938 1.970 . S
O999 Li939 1.956 . S
O999 C974 1.325 . S
H1000 C942 0.929 . S
H1001 C943 0.930 . S
H1002 C944 0.930 . S
H1003 C945 0.930 . S
H1004 C947 0.930 . S
H1005 C949 0.929 . S
H1006 C950 0.930 . S
H1007 C951 0.930 . S
H1008 C954 0.930 . S
H1009 C957 0.929 . S
H1010 C962 0.929 . S
H1011 C963 0.930 . S
H1012 C970 0.929 . S
H1013 C971 0.930 . S
H1014 C972 0.930 . S
H1015 C973 0.930 . S
H1016 C975 0.929 . S
H1017 C976 0.930 . S
H1018 C977 0.930 . S
H1019 C978 0.930 . S
H1020 C982 0.929 . S
H1021 C984 0.930 . S
H1022 C990 0.929 . S
H1023 C991 0.930 . S
Li1024 N1041 1.990 . S
Li1024 O1084 1.956 . S
Li1024 O1085 1.970 1_455 S
Li1024 O1086 1.961 . S
Li1025 N1049 1.990 . S
Li1025 O1084 1.970 1_655 S
Li1025 O1085 1.956 . S
Li1025 O1087 1.961 . S
Li1026 N1071 1.990 . S
Li1026 O1084 1.961 . S
Li1026 O1086 1.956 . S
Li1026 O1087 1.970 1_455 S
Li1027 N1077 1.990 . S
Li1027 O1085 1.961 . S
Li1027 O1086 1.970 1_655 S
Li1027 O1087 1.956 . S
C1028 C1030 1.348 1_455 S
C1028 C1031 1.356 . S
C1028 O1084 1.325 . S
N1029 C1032 1.314 1_455 S
N1029 C1033 1.279 . S
C1030 C1028 1.348 1_655 S
C1030 C1032 1.353 . S
C1030 H1088 0.929 . S
C1031 C1028 1.356 . S
C1031 C1033 1.358 . S
C1031 H1089 0.930 . S
C1032 N1029 1.314 1_655 S
C1032 C1030 1.353 . S
C1032 H1090 0.930 . S
C1033 N1029 1.279 . S
C1033 C1031 1.358 . S
C1033 H1091 0.930 . S
C1034 C1037 1.348 . S
C1034 C1038 1.356 . S
C1034 O1085 1.325 . S
C1035 N1036 1.279 . S
C1035 C1038 1.358 . S
C1035 H1092 0.930 . S
N1036 C1035 1.279 . S
N1036 C1039 1.314 . S
C1037 C1034 1.348 . S
C1037 C1039 1.353 . S
C1037 H1093 0.929 . S
C1038 C1034 1.356 . S
C1038 C1035 1.358 . S
C1038 H1094 0.930 . S
C1039 N1036 1.314 . S
C1039 C1037 1.353 . S
C1039 H1095 0.930 . S
C1040 N1041 1.314 . S
C1040 C1045 1.353 . S
C1040 H1046 0.930 . S
N1041 Li1024 1.990 . S
N1041 C1040 1.314 . S
N1041 C1043 1.279 . S
C1042 C1043 1.358 . S
C1042 C1044 1.356 . S
C1042 H1096 0.930 . S
C1043 N1041 1.279 . S
C1043 C1042 1.358 . S
C1043 H1047 0.930 . S
C1044 C1042 1.356 . S
C1044 C1045 1.348 . S
C1045 C1040 1.353 . S
C1045 C1044 1.348 . S
C1045 H1097 0.929 . S
H1046 C1040 0.930 . S
H1047 C1043 0.930 . S
C1048 N1049 1.314 . S
C1048 C1050 1.353 . S
C1048 H1054 0.930 . S
N1049 Li1025 1.990 . S
N1049 C1048 1.314 . S
N1049 C1052 1.279 . S
C1050 C1048 1.353 . S
C1050 C1053 1.348 . S
C1050 H1098 0.929 . S
C1051 C1052 1.358 . S
C1051 C1053 1.356 . S
C1051 H1099 0.930 . S
C1052 N1049 1.279 . S
C1052 C1051 1.358 . S
C1052 H1055 0.930 . S
C1053 C1050 1.348 . S
C1053 C1051 1.356 . S
H1054 C1048 0.930 . S
H1055 C1052 0.930 . S
C1056 C1058 1.348 . S
C1056 C1059 1.356 . S
C1056 O1086 1.325 . S
N1057 C1060 1.314 . S
N1057 C1061 1.279 . S
C1058 C1056 1.348 . S
C1058 C1060 1.353 . S
C1058 H1100 0.929 . S
C1059 C1056 1.356 . S
C1059 C1061 1.358 . S
C1059 H1101 0.930 . S
C1060 N1057 1.314 . S
C1060 C1058 1.353 . S
C1060 H1102 0.930 . S
C1061 N1057 1.279 . S
C1061 C1059 1.358 . S
C1061 H1103 0.930 . S
C1062 C1063 1.348 1_655 S
C1062 C1064 1.356 . S
C1062 O1087 1.325 . S
C1063 C1062 1.348 1_455 S
C1063 C1065 1.353 . S
C1063 H1104 0.929 . S
C1064 C1062 1.356 . S
C1064 C1066 1.358 . S
C1064 H1105 0.930 . S
C1065 C1063 1.353 . S
C1065 N1067 1.314 1_455 S
C1065 H1106 0.930 . S
C1066 C1064 1.358 . S
C1066 N1067 1.279 . S
C1066 H1107 0.930 . S
N1067 C1065 1.314 1_655 S
N1067 C1066 1.279 . S
C1068 C1070 1.353 . S
C1068 N1071 1.314 . S
C1068 H1074 0.930 . S
C1069 N1071 1.279 . S
C1069 C1072 1.358 . S
C1069 H1075 0.930 . S
C1070 C1068 1.353 . S
C1070 C1073 1.348 . S
C1070 H1108 0.929 . S
N1071 Li1026 1.990 . S
N1071 C1068 1.314 . S
N1071 C1069 1.279 . S
C1072 C1069 1.358 . S
C1072 C1073 1.356 . S
C1072 H1109 0.930 . S
C1073 C1070 1.348 . S
C1073 C1072 1.356 . S
H1074 C1068 0.930 . S
H1075 C1069 0.930 . S
C1076 N1077 1.314 . S
C1076 C1078 1.353 . S
C1076 H1082 0.930 . S
N1077 Li1027 1.990 . S
N1077 C1076 1.314 . S
N1077 C1080 1.279 . S
C1078 C1076 1.353 . S
C1078 C1081 1.348 . S
C1078 H1110 0.929 . S
C1079 C1080 1.358 . S
C1079 C1081 1.356 . S
C1079 H1111 0.930 . S
C1080 N1077 1.279 . S
C1080 C1079 1.358 . S
C1080 H1083 0.930 . S
C1081 C1078 1.348 . S
C1081 C1079 1.356 . S
H1082 C1076 0.930 . S
H1083 C1080 0.930 . S
O1084 Li1024 1.956 . S
O1084 Li1025 1.970 1_455 S
O1084 Li1026 1.961 . S
O1084 C1028 1.325 . S
O1085 Li1024 1.970 1_655 S
O1085 Li1025 1.956 . S
O1085 Li1027 1.961 . S
O1085 C1034 1.325 . S
O1086 Li1024 1.961 . S
O1086 Li1026 1.956 . S
O1086 Li1027 1.970 1_455 S
O1086 C1056 1.325 . S
O1087 Li1025 1.961 . S
O1087 Li1026 1.970 1_655 S
O1087 Li1027 1.956 . S
O1087 C1062 1.325 . S
H1088 C1030 0.929 . S
H1089 C1031 0.930 . S
H1090 C1032 0.930 . S
H1091 C1033 0.930 . S
H1092 C1035 0.930 . S
H1093 C1037 0.929 . S
H1094 C1038 0.930 . S
H1095 C1039 0.930 . S
H1096 C1042 0.930 . S
H1097 C1045 0.929 . S
H1098 C1050 0.929 . S
H1099 C1051 0.930 . S
H1100 C1058 0.929 . S
H1101 C1059 0.930 . S
H1102 C1060 0.930 . S
H1103 C1061 0.930 . S
H1104 C1063 0.929 . S
H1105 C1064 0.930 . S
H1106 C1065 0.930 . S
H1107 C1066 0.930 . S
H1108 C1070 0.929 . S
H1109 C1072 0.930 . S
H1110 C1078 0.929 . S
H1111 C1079 0.930 . S
Li1112 N1129 1.990 . S
Li1112 O1172 1.956 . S
Li1112 O1173 1.970 . S
Li1112 O1174 1.961 . S
Li1113 N1137 1.990 . S
Li1113 O1172 1.970 . S
Li1113 O1173 1.956 . S
Li1113 O1175 1.961 . S
Li1114 N1159 1.990 . S
Li1114 O1172 1.961 . S
Li1114 O1174 1.956 . S
Li1114 O1175 1.970 . S
Li1115 N1165 1.990 . S
Li1115 O1173 1.961 . S
Li1115 O1174 1.970 . S
Li1115 O1175 1.956 . S
C1116 C1118 1.348 . S
C1116 C1119 1.356 . S
C1116 O1172 1.325 . S
N1117 C1120 1.314 . S
N1117 C1121 1.279 . S
C1118 C1116 1.348 . S
C1118 C1120 1.353 . S
C1118 H1176 0.929 . S
C1119 C1116 1.356 . S
C1119 C1121 1.358 . S
C1119 H1177 0.930 . S
C1120 N1117 1.314 . S
C1120 C1118 1.353 . S
C1120 H1178 0.930 . S
C1121 N1117 1.279 . S
C1121 C1119 1.358 . S
C1121 H1179 0.930 . S
C1122 C1125 1.348 . S
C1122 C1126 1.356 . S
C1122 O1173 1.325 . S
C1123 N1124 1.279 . S
C1123 C1126 1.358 . S
C1123 H1180 0.930 . S
N1124 C1123 1.279 . S
N1124 C1127 1.314 . S
C1125 C1122 1.348 . S
C1125 C1127 1.353 . S
C1125 H1181 0.929 . S
C1126 C1122 1.356 . S
C1126 C1123 1.358 . S
C1126 H1182 0.930 . S
C1127 N1124 1.314 . S
C1127 C1125 1.353 . S
C1127 H1183 0.930 . S
C1128 N1129 1.314 . S
C1128 C1133 1.353 . S
C1128 H1134 0.930 . S
N1129 Li1112 1.990 . S
N1129 C1128 1.314 . S
N1129 C1131 1.279 . S
C1130 C1131 1.358 . S
C1130 C1132 1.356 . S
C1130 H1184 0.930 . S
C1131 N1129 1.279 . S
C1131 C1130 1.358 . S
C1131 H1135 0.930 . S
C1132 C1130 1.356 . S
C1132 C1133 1.348 . S
C1133 C1128 1.353 . S
C1133 C1132 1.348 . S
C1133 H1185 0.929 . S
H1134 C1128 0.930 . S
H1135 C1131 0.930 . S
C1136 N1137 1.314 . S
C1136 C1138 1.353 . S
C1136 H1142 0.930 . S
N1137 Li1113 1.990 . S
N1137 C1136 1.314 . S
N1137 C1140 1.279 . S
C1138 C1136 1.353 . S
C1138 C1141 1.348 . S
C1138 H1186 0.929 . S
C1139 C1140 1.358 . S
C1139 C1141 1.356 . S
C1139 H1187 0.930 . S
C1140 N1137 1.279 . S
C1140 C1139 1.358 . S
C1140 H1143 0.930 . S
C1141 C1138 1.348 . S
C1141 C1139 1.356 . S
H1142 C1136 0.930 . S
H1143 C1140 0.930 . S
C1144 C1146 1.348 . S
C1144 C1147 1.356 . S
C1144 O1174 1.325 . S
N1145 C1148 1.314 . S
N1145 C1149 1.279 . S
C1146 C1144 1.348 . S
C1146 C1148 1.353 . S
C1146 H1188 0.929 . S
C1147 C1144 1.356 . S
C1147 C1149 1.358 . S
C1147 H1189 0.930 . S
C1148 N1145 1.314 . S
C1148 C1146 1.353 . S
C1148 H1190 0.930 . S
C1149 N1145 1.279 . S
C1149 C1147 1.358 . S
C1149 H1191 0.930 . S
C1150 C1151 1.348 . S
C1150 C1152 1.356 . S
C1150 O1175 1.325 . S
C1151 C1150 1.348 . S
C1151 C1153 1.353 . S
C1151 H1192 0.929 . S
C1152 C1150 1.356 . S
C1152 C1154 1.358 . S
C1152 H1193 0.930 . S
C1153 C1151 1.353 . S
C1153 N1155 1.314 . S
C1153 H1194 0.930 . S
C1154 C1152 1.358 . S
C1154 N1155 1.279 . S
C1154 H1195 0.930 . S
N1155 C1153 1.314 . S
N1155 C1154 1.279 . S
C1156 C1158 1.353 . S
C1156 N1159 1.314 . S
C1156 H1162 0.930 . S
C1157 N1159 1.279 . S
C1157 C1160 1.358 . S
C1157 H1163 0.930 . S
C1158 C1156 1.353 . S
C1158 C1161 1.348 . S
C1158 H1196 0.929 . S
N1159 Li1114 1.990 . S
N1159 C1156 1.314 . S
N1159 C1157 1.279 . S
C1160 C1157 1.358 . S
C1160 C1161 1.356 . S
C1160 H1197 0.930 . S
C1161 C1158 1.348 . S
C1161 C1160 1.356 . S
H1162 C1156 0.930 . S
H1163 C1157 0.930 . S
C1164 N1165 1.314 . S
C1164 C1166 1.353 . S
C1164 H1170 0.930 . S
N1165 Li1115 1.990 . S
N1165 C1164 1.314 . S
N1165 C1168 1.279 . S
C1166 C1164 1.353 . S
C1166 C1169 1.348 . S
C1166 H1198 0.929 . S
C1167 C1168 1.358 . S
C1167 C1169 1.356 . S
C1167 H1199 0.930 . S
C1168 N1165 1.279 . S
C1168 C1167 1.358 . S
C1168 H1171 0.930 . S
C1169 C1166 1.348 . S
C1169 C1167 1.356 . S
H1170 C1164 0.930 . S
H1171 C1168 0.930 . S
O1172 Li1112 1.956 . S
O1172 Li1113 1.970 . S
O1172 Li1114 1.961 . S
O1172 C1116 1.325 . S
O1173 Li1112 1.970 . S
O1173 Li1113 1.956 . S
O1173 Li1115 1.961 . S
O1173 C1122 1.325 . S
O1174 Li1112 1.961 . S
O1174 Li1114 1.956 . S
O1174 Li1115 1.970 . S
O1174 C1144 1.325 . S
O1175 Li1113 1.961 . S
O1175 Li1114 1.970 . S
O1175 Li1115 1.956 . S
O1175 C1150 1.325 . S
H1176 C1118 0.929 . S
H1177 C1119 0.930 . S
H1178 C1120 0.930 . S
H1179 C1121 0.930 . S
H1180 C1123 0.930 . S
H1181 C1125 0.929 . S
H1182 C1126 0.930 . S
H1183 C1127 0.930 . S
H1184 C1130 0.930 . S
H1185 C1133 0.929 . S
H1186 C1138 0.929 . S
H1187 C1139 0.930 . S
H1188 C1146 0.929 . S
H1189 C1147 0.930 . S
H1190 C1148 0.930 . S
H1191 C1149 0.930 . S
H1192 C1151 0.929 . S
H1193 C1152 0.930 . S
H1194 C1153 0.930 . S
H1195 C1154 0.930 . S
H1196 C1158 0.929 . S
H1197 C1160 0.930 . S
H1198 C1166 0.929 . S
H1199 C1167 0.930 . S
H1200 C1206 0.930 . S
H1201 C1210 0.930 . S
H1202 C1215 0.929 . S
H1203 C1213 0.929 . S
H1204 C1208 0.929 . S
H1205 C1214 0.929 . S
C1206 H1200 0.930 . S
C1206 C1207 1.367 . S
C1206 C1214 1.378 . S
C1207 C1206 1.367 . S
C1207 C1215 1.433 . S
C1208 H1204 0.929 . S
C1208 C1210 1.378 . S
C1208 C1212 1.350 . S
C1209 C1212 1.463 . S
C1209 C1214 1.350 . S
C1209 N1217 1.427 . S
C1210 H1201 0.930 . S
C1210 C1208 1.378 . S
C1210 C1211 1.367 . S
C1211 C1210 1.367 . S
C1211 C1213 1.433 . S
C1212 C1208 1.350 . S
C1212 C1209 1.463 . S
C1212 N1216 1.427 . S
C1213 H1203 0.929 . S
C1213 C1211 1.433 . S
C1213 N1216 1.384 . S
C1214 H1205 0.929 . S
C1214 C1206 1.378 . S
C1214 C1209 1.350 . S
C1215 H1202 0.929 . S
C1215 C1207 1.433 . S
C1215 N1217 1.384 . S
N1216 C1212 1.427 . S
N1216 C1213 1.384 . S
N1217 C1209 1.427 . S
N1217 C1215 1.384 . S
H1218 C1224 0.947 . S
H1219 C1228 0.930 . S
H1220 C1233 0.929 . S
H1221 C1231 0.929 . S
H1222 C1226 0.929 . S
H1223 C1232 0.929 . S
C1224 H1218 0.947 . S
C1224 C1225 1.374 . S
C1224 C1232 1.356 1_655 S
C1225 C1224 1.374 . S
C1225 C1233 1.433 1_655 S
C1226 H1222 0.929 . S
C1226 C1228 1.378 . S
C1226 C1230 1.350 . S
C1227 C1230 1.463 . S
C1227 C1232 1.350 . S
C1227 N1235 1.427 . S
C1228 H1219 0.930 . S
C1228 C1226 1.378 . S
C1228 C1229 1.367 . S
C1229 C1228 1.367 . S
C1229 C1231 1.433 . S
C1230 C1226 1.350 . S
C1230 C1227 1.463 . S
C1230 N1234 1.427 . S
C1231 H1221 0.929 . S
C1231 C1229 1.433 . S
C1231 N1234 1.384 . S
C1232 H1223 0.929 . S
C1232 C1224 1.356 1_455 S
C1232 C1227 1.350 . S
C1233 H1220 0.929 . S
C1233 C1225 1.433 1_455 S
C1233 N1235 1.384 . S
N1234 C1230 1.427 . S
N1234 C1231 1.384 . S
N1235 C1227 1.427 . S
N1235 C1233 1.384 . S
H1236 C1242 0.930 . S
H1237 C1246 0.930 . S
H1238 C1251 0.929 . S
H1239 C1249 0.929 . S
H1240 C1244 0.929 . S
H1241 C1250 0.929 . S
C1242 H1236 0.930 . S
C1242 C1243 1.367 . S
C1242 C1250 1.378 . S
C1243 C1242 1.367 . S
C1243 C1251 1.433 . S
C1244 H1240 0.929 . S
C1244 C1246 1.378 . S
C1244 C1248 1.350 . S
C1245 C1248 1.463 . S
C1245 C1250 1.350 . S
C1245 N1253 1.427 . S
C1246 H1237 0.930 . S
C1246 C1244 1.378 . S
C1246 C1247 1.367 . S
C1247 C1246 1.367 . S
C1247 C1249 1.433 . S
C1248 C1244 1.350 . S
C1248 C1245 1.463 . S
C1248 N1252 1.427 . S
C1249 H1239 0.929 . S
C1249 C1247 1.433 . S
C1249 N1252 1.384 . S
C1250 H1241 0.929 . S
C1250 C1242 1.378 . S
C1250 C1245 1.350 . S
C1251 H1238 0.929 . S
C1251 C1243 1.433 . S
C1251 N1253 1.384 . S
N1252 C1248 1.427 . S
N1252 C1249 1.384 . S
N1253 C1245 1.427 . S
N1253 C1251 1.384 . S
H1254 C1260 0.930 . S
H1255 C1264 0.930 . S
H1256 C1269 0.929 . S
H1257 C1267 0.949 . S
H1258 C1262 0.929 . S
H1259 C1268 0.929 . S
C1260 H1254 0.930 . S
C1260 C1261 1.367 1_655 S
C1260 C1268 1.378 . S
C1261 C1260 1.367 1_455 S
C1261 C1269 1.433 . S
C1262 H1258 0.929 . S
C1262 C1264 1.378 . S
C1262 C1266 1.350 . S
C1263 C1266 1.463 . S
C1263 C1268 1.350 . S
C1263 N1271 1.427 1_655 S
C1264 H1255 0.930 . S
C1264 C1262 1.378 . S
C1264 C1265 1.367 . S
C1265 C1264 1.367 . S
C1265 C1267 1.433 . S
C1266 C1262 1.350 . S
C1266 C1263 1.463 . S
C1266 N1270 1.427 . S
C1267 H1257 0.949 . S
C1267 C1265 1.433 . S
C1267 N1270 1.384 . S
C1268 H1259 0.929 . S
C1268 C1260 1.378 . S
C1268 C1263 1.350 . S
C1269 H1256 0.929 . S
C1269 C1261 1.433 . S
C1269 N1271 1.384 . S
N1270 C1266 1.427 . S
N1270 C1267 1.384 . S
N1271 C1263 1.427 1_455 S
N1271 C1269 1.384 . S
H1272 C1278 0.930 . S
H1273 C1282 0.930 . S
H1274 C1287 0.929 . S
H1275 C1285 0.929 . S
H1276 C1280 0.929 . S
H1277 C1286 0.929 . S
C1278 H1272 0.930 . S
C1278 C1279 1.367 . S
C1278 C1286 1.378 . S
C1279 C1278 1.367 . S
C1279 C1287 1.433 . S
C1280 H1276 0.929 . S
C1280 C1282 1.378 . S
C1280 C1284 1.350 . S
C1281 C1284 1.463 . S
C1281 C1286 1.350 . S
C1281 N1289 1.427 . S
C1282 H1273 0.930 . S
C1282 C1280 1.378 . S
C1282 C1283 1.367 . S
C1283 C1282 1.367 . S
C1283 C1285 1.433 . S
C1284 C1280 1.350 . S
C1284 C1281 1.463 . S
C1284 N1288 1.427 . S
C1285 H1275 0.929 . S
C1285 C1283 1.433 . S
C1285 N1288 1.384 . S
C1286 H1277 0.929 . S
C1286 C1278 1.378 . S
C1286 C1281 1.350 . S
C1287 H1274 0.929 . S
C1287 C1279 1.433 . S
C1287 N1289 1.384 . S
N1288 C1284 1.427 . S
N1288 C1285 1.384 . S
N1289 C1281 1.427 . S
N1289 C1287 1.384 . S
H1290 C1296 0.930 . S
H1291 C1300 0.930 . S
H1292 C1305 0.929 . S
H1293 C1303 0.929 . S
H1294 C1298 0.929 . S
H1295 C1304 0.929 . S
C1296 H1290 0.930 . S
C1296 C1297 1.367 . S
C1296 C1304 1.378 . S
C1297 C1296 1.367 . S
C1297 C1305 1.433 . S
C1298 H1294 0.929 . S
C1298 C1300 1.378 . S
C1298 C1302 1.350 . S
C1299 C1302 1.463 . S
C1299 C1304 1.350 . S
C1299 N1307 1.427 . S
C1300 H1291 0.930 . S
C1300 C1298 1.378 . S
C1300 C1301 1.367 . S
C1301 C1300 1.367 . S
C1301 C1303 1.433 . S
C1302 C1298 1.350 . S
C1302 C1299 1.463 . S
C1302 N1306 1.427 . S
C1303 H1293 0.929 . S
C1303 C1301 1.433 . S
C1303 N1306 1.384 . S
C1304 H1295 0.929 . S
C1304 C1296 1.378 . S
C1304 C1299 1.350 . S
C1305 H1292 0.929 . S
C1305 C1297 1.433 . S
C1305 N1307 1.384 . S
N1306 C1302 1.427 . S
N1306 C1303 1.384 . S
N1307 C1299 1.427 . S
N1307 C1305 1.384 . S
H1308 C1314 0.930 . S
H1309 C1318 0.930 . S
H1310 C1323 0.929 . S
H1311 C1321 0.929 . S
H1312 C1316 0.929 . S
H1313 C1322 0.929 . S
C1314 H1308 0.930 . S
C1314 C1315 1.367 . S
C1314 C1322 1.378 . S
C1315 C1314 1.367 . S
C1315 C1323 1.433 . S
C1316 H1312 0.929 . S
C1316 C1318 1.378 . S
C1316 C1320 1.350 . S
C1317 C1320 1.463 . S
C1317 C1322 1.350 . S
C1317 N1325 1.427 . S
C1318 H1309 0.930 . S
C1318 C1316 1.378 . S
C1318 C1319 1.367 . S
C1319 C1318 1.367 . S
C1319 C1321 1.433 . S
C1320 C1316 1.350 . S
C1320 C1317 1.463 . S
C1320 N1324 1.427 . S
C1321 H1311 0.929 . S
C1321 C1319 1.433 . S
C1321 N1324 1.384 . S
C1322 H1313 0.929 . S
C1322 C1314 1.378 . S
C1322 C1317 1.350 . S
C1323 H1310 0.929 . S
C1323 C1315 1.433 . S
C1323 N1325 1.384 . S
N1324 C1320 1.427 . S
N1324 C1321 1.384 . S
N1325 C1317 1.427 . S
N1325 C1323 1.384 . S
H1326 C1332 0.930 1_545 S
H1327 C1336 0.930 . S
H1328 C1341 0.929 . S
H1329 C1339 0.929 . S
H1330 C1334 0.929 . S
H1331 C1340 0.929 1_545 S
C1332 H1326 0.930 1_565 S
C1332 C1333 1.367 . S
C1332 C1340 1.378 . S
C1333 C1332 1.367 . S
C1333 C1341 1.433 . S
C1334 H1330 0.929 . S
C1334 C1336 1.378 . S
C1334 C1338 1.350 . S
C1335 C1338 1.463 . S
C1335 C1340 1.350 . S
C1335 N1343 1.427 . S
C1336 H1327 0.930 . S
C1336 C1334 1.378 . S
C1336 C1337 1.367 . S
C1337 C1336 1.367 . S
C1337 C1339 1.433 1_565 S
C1338 C1334 1.350 . S
C1338 C1335 1.463 . S
C1338 N1342 1.383 1_565 S
C1339 H1329 0.929 . S
C1339 C1337 1.433 1_545 S
C1339 N1342 1.390 . S
C1340 H1331 0.929 1_565 S
C1340 C1332 1.378 . S
C1340 C1335 1.350 . S
C1341 H1328 0.929 . S
C1341 C1333 1.433 . S
C1341 N1343 1.384 . S
N1342 C1338 1.383 1_545 S
N1342 C1339 1.390 . S
N1343 C1335 1.427 . S
N1343 C1341 1.384 . S
H1344 C1350 0.930 . S
H1345 C1354 0.930 . S
H1346 C1359 0.929 . S
H1347 C1357 0.929 . S
H1348 C1352 0.929 . S
H1349 C1358 0.929 . S
C1350 H1344 0.930 . S
C1350 C1351 1.367 . S
C1350 C1358 1.378 . S
C1351 C1350 1.367 . S
C1351 C1359 1.433 . S
C1352 H1348 0.929 . S
C1352 C1354 1.378 . S
C1352 C1356 1.350 . S
C1353 C1356 1.463 . S
C1353 C1358 1.350 . S
C1353 N1361 1.427 . S
C1354 H1345 0.930 . S
C1354 C1352 1.378 . S
C1354 C1355 1.367 . S
C1355 C1354 1.367 . S
C1355 C1357 1.433 . S
C1356 C1352 1.350 . S
C1356 C1353 1.463 . S
C1356 N1360 1.427 . S
C1357 H1347 0.929 . S
C1357 C1355 1.433 . S
C1357 N1360 1.384 . S
C1358 H1349 0.929 . S
C1358 C1350 1.378 . S
C1358 C1353 1.350 . S
C1359 H1346 0.929 . S
C1359 C1351 1.433 . S
C1359 N1361 1.384 . S
N1360 C1356 1.427 . S
N1360 C1357 1.384 . S
N1361 C1353 1.427 . S
N1361 C1359 1.384 . S
H1362 C1368 0.930 . S
H1363 C1372 0.930 . S
H1364 C1377 0.929 . S
H1365 C1375 0.929 . S
H1366 C1370 0.929 . S
H1367 C1376 0.929 . S
C1368 H1362 0.930 . S
C1368 C1369 1.367 . S
C1368 C1376 1.378 . S
C1369 C1368 1.367 . S
C1369 C1377 1.433 . S
C1370 H1366 0.929 . S
C1370 C1372 1.378 . S
C1370 C1374 1.350 . S
C1371 C1374 1.463 . S
C1371 C1376 1.350 . S
C1371 N1379 1.427 . S
C1372 H1363 0.930 . S
C1372 C1370 1.378 . S
C1372 C1373 1.367 . S
C1373 C1372 1.367 . S
C1373 C1375 1.433 . S
C1374 C1370 1.350 . S
C1374 C1371 1.463 . S
C1374 N1378 1.427 . S
C1375 H1365 0.929 . S
C1375 C1373 1.433 . S
C1375 N1378 1.384 . S
C1376 H1367 0.929 . S
C1376 C1368 1.378 . S
C1376 C1371 1.350 . S
C1377 H1364 0.929 . S
C1377 C1369 1.433 . S
C1377 N1379 1.384 . S
N1378 C1374 1.427 . S
N1378 C1375 1.384 . S
N1379 C1371 1.427 . S
N1379 C1377 1.384 . S
H1380 C1386 0.930 . S
H1381 C1390 0.930 . S
H1382 C1395 0.929 . S
H1383 C1393 0.929 . S
H1384 C1388 0.929 . S
H1385 C1394 0.929 . S
C1386 H1380 0.930 . S
C1386 C1387 1.367 . S
C1386 C1394 1.378 . S
C1387 C1386 1.367 . S
C1387 C1395 1.433 . S
C1388 H1384 0.929 . S
C1388 C1390 1.378 . S
C1388 C1392 1.350 . S
C1389 C1392 1.463 . S
C1389 C1394 1.350 . S
C1389 N1397 1.427 . S
C1390 H1381 0.930 . S
C1390 C1388 1.378 . S
C1390 C1391 1.367 . S
C1391 C1390 1.367 . S
C1391 C1393 1.433 . S
C1392 C1388 1.350 . S
C1392 C1389 1.463 . S
C1392 N1396 1.427 . S
C1393 H1383 0.929 . S
C1393 C1391 1.433 . S
C1393 N1396 1.384 . S
C1394 H1385 0.929 . S
C1394 C1386 1.378 . S
C1394 C1389 1.350 . S
C1395 H1382 0.929 . S
C1395 C1387 1.433 . S
C1395 N1397 1.384 . S
N1396 C1392 1.427 . S
N1396 C1393 1.384 . S
N1397 C1389 1.427 . S
N1397 C1395 1.384 . S
H1398 C1404 0.930 . S
H1399 C1408 0.930 . S
H1400 C1413 0.929 . S
H1401 C1411 0.929 . S
H1402 C1406 0.929 . S
H1403 C1412 0.929 . S
C1404 H1398 0.930 . S
C1404 C1405 1.367 . S
C1404 C1412 1.378 . S
C1405 C1404 1.367 . S
C1405 C1413 1.433 . S
C1406 H1402 0.929 . S
C1406 C1408 1.378 . S
C1406 C1410 1.350 . S
C1407 C1410 1.463 . S
C1407 C1412 1.350 . S
C1407 N1415 1.427 . S
C1408 H1399 0.930 . S
C1408 C1406 1.378 . S
C1408 C1409 1.367 . S
C1409 C1408 1.367 . S
C1409 C1411 1.433 . S
C1410 C1406 1.350 . S
C1410 C1407 1.463 . S
C1410 N1414 1.427 . S
C1411 H1401 0.929 . S
C1411 C1409 1.433 . S
C1411 N1414 1.384 . S
C1412 H1403 0.929 . S
C1412 C1404 1.378 . S
C1412 C1407 1.350 . S
C1413 H1400 0.929 . S
C1413 C1405 1.433 . S
C1413 N1415 1.384 . S
N1414 C1410 1.427 . S
N1414 C1411 1.384 . S
N1415 C1407 1.427 . S
N1415 C1413 1.384 . S
H1416 C1422 0.930 . S
H1417 C1426 0.930 . S
H1418 C1431 0.929 . S
H1419 C1429 0.929 . S
H1420 C1424 0.929 . S
H1421 C1430 0.929 . S
C1422 H1416 0.930 . S
C1422 C1423 1.367 . S
C1422 C1430 1.378 . S
C1423 C1422 1.367 . S
C1423 C1431 1.433 . S
C1424 H1420 0.929 . S
C1424 C1426 1.378 . S
C1424 C1428 1.350 . S
C1425 C1428 1.463 . S
C1425 C1430 1.350 . S
C1425 N1433 1.427 . S
C1426 H1417 0.930 . S
C1426 C1424 1.378 . S
C1426 C1427 1.367 . S
C1427 C1426 1.367 . S
C1427 C1429 1.433 . S
C1428 C1424 1.350 . S
C1428 C1425 1.463 . S
C1428 N1432 1.427 . S
C1429 H1419 0.929 . S
C1429 C1427 1.433 . S
C1429 N1432 1.384 . S
C1430 H1421 0.929 . S
C1430 C1422 1.378 . S
C1430 C1425 1.350 . S
C1431 H1418 0.929 . S
C1431 C1423 1.433 . S
C1431 N1433 1.384 . S
N1432 C1428 1.427 . S
N1432 C1429 1.384 . S
N1433 C1425 1.427 . S
N1433 C1431 1.384 . S
H1434 C1440 0.930 . S
H1435 C1444 0.930 . S
H1436 C1449 0.929 . S
H1437 C1447 0.930 . S
H1438 C1442 0.929 . S
H1439 C1448 0.929 . S
C1440 H1434 0.930 . S
C1440 C1441 1.367 . S
C1440 C1448 1.378 . S
C1441 C1440 1.367 . S
C1441 C1449 1.433 . S
C1442 H1438 0.929 . S
C1442 C1444 1.378 . S
C1442 C1446 1.350 . S
C1443 C1446 1.463 . S
C1443 C1448 1.350 . S
C1443 N1451 1.427 . S
C1444 H1435 0.930 . S
C1444 C1442 1.378 . S
C1444 C1445 1.367 . S
C1445 C1444 1.367 . S
C1445 C1447 1.433 . S
C1446 C1442 1.350 . S
C1446 C1443 1.463 . S
C1446 N1450 1.427 . S
C1447 H1437 0.930 . S
C1447 C1445 1.433 . S
C1447 N1450 1.384 . S
C1448 H1439 0.929 . S
C1448 C1440 1.378 . S
C1448 C1443 1.350 . S
C1449 H1436 0.929 . S
C1449 C1441 1.433 . S
C1449 N1451 1.384 . S
N1450 C1446 1.427 . S
N1450 C1447 1.384 . S
N1451 C1443 1.427 . S
N1451 C1449 1.384 . S
H1452 C1458 0.930 . S
H1453 C1462 0.930 . S
H1454 C1467 0.929 . S
H1455 C1465 0.929 . S
H1456 C1460 0.929 . S
H1457 C1466 0.929 . S
C1458 H1452 0.930 . S
C1458 C1459 1.367 . S
C1458 C1466 1.378 . S
C1459 C1458 1.367 . S
C1459 C1467 1.433 . S
C1460 H1456 0.929 . S
C1460 C1462 1.378 . S
C1460 C1464 1.350 . S
C1461 C1464 1.463 . S
C1461 C1466 1.350 . S
C1461 N1469 1.427 . S
C1462 H1453 0.930 . S
C1462 C1460 1.378 . S
C1462 C1463 1.367 . S
C1463 C1462 1.367 . S
C1463 C1465 1.433 . S
C1464 C1460 1.350 . S
C1464 C1461 1.463 . S
C1464 N1468 1.427 . S
C1465 H1455 0.929 . S
C1465 C1463 1.433 . S
C1465 N1468 1.384 . S
C1466 H1457 0.929 . S
C1466 C1458 1.378 . S
C1466 C1461 1.350 . S
C1467 H1454 0.929 . S
C1467 C1459 1.433 . S
C1467 N1469 1.384 . S
N1468 C1464 1.427 . S
N1468 C1465 1.384 . S
N1469 C1461 1.427 . S
N1469 C1467 1.384 . S
H1470 C1476 0.930 . S
H1471 C1480 0.930 1_455 S
H1472 C1485 0.929 . S
H1473 C1483 0.929 . S
H1474 C1478 0.929 1_455 S
H1475 C1484 0.929 . S
C1476 H1470 0.930 . S
C1476 C1477 1.367 . S
C1476 C1484 1.378 . S
C1477 C1476 1.367 . S
C1477 C1485 1.433 . S
C1478 H1474 0.929 1_655 S
C1478 C1480 1.378 . S
C1478 C1482 1.350 . S
C1479 C1482 1.463 . S
C1479 C1484 1.350 . S
C1479 N1487 1.427 . S
C1480 H1471 0.930 1_655 S
C1480 C1478 1.378 . S
C1480 C1481 1.367 . S
C1481 C1480 1.367 . S
C1481 C1483 1.433 . S
C1482 C1478 1.350 . S
C1482 C1479 1.463 . S
C1482 N1486 1.427 . S
C1483 H1473 0.929 . S
C1483 C1481 1.433 . S
C1483 N1486 1.384 . S
C1484 H1475 0.929 . S
C1484 C1476 1.378 . S
C1484 C1479 1.350 . S
C1485 H1472 0.929 . S
C1485 C1477 1.433 . S
C1485 N1487 1.384 . S
N1486 C1482 1.427 . S
N1486 C1483 1.384 . S
N1487 C1479 1.427 . S
N1487 C1485 1.384 . S
H1488 C1494 0.930 . S
H1489 C1498 0.930 . S
H1490 C1503 0.929 . S
H1491 C1501 0.929 . S
H1492 C1496 0.929 . S
H1493 C1502 0.929 . S
C1494 H1488 0.930 . S
C1494 C1495 1.367 . S
C1494 C1502 1.378 . S
C1495 C1494 1.367 . S
C1495 C1503 1.433 . S
C1496 H1492 0.929 . S
C1496 C1498 1.378 . S
C1496 C1500 1.350 . S
C1497 C1500 1.463 . S
C1497 C1502 1.350 . S
C1497 N1505 1.427 . S
C1498 H1489 0.930 . S
C1498 C1496 1.378 . S
C1498 C1499 1.367 . S
C1499 C1498 1.367 . S
C1499 C1501 1.433 . S
C1500 C1496 1.350 . S
C1500 C1497 1.463 . S
C1500 N1504 1.427 . S
C1501 H1491 0.929 . S
C1501 C1499 1.433 . S
C1501 N1504 1.384 . S
C1502 H1493 0.929 . S
C1502 C1494 1.378 . S
C1502 C1497 1.350 . S
C1503 H1490 0.929 . S
C1503 C1495 1.433 . S
C1503 N1505 1.384 . S
N1504 C1500 1.427 . S
N1504 C1501 1.384 . S
N1505 C1497 1.427 . S
N1505 C1503 1.384 . S
H1506 C1512 0.930 . S
H1507 C1516 0.930 . S
H1508 C1521 0.929 . S
H1509 C1519 0.929 . S
H1510 C1514 0.929 . S
H1511 C1520 0.929 . S
C1512 H1506 0.930 . S
C1512 C1513 1.367 . S
C1512 C1520 1.378 . S
C1513 C1512 1.367 . S
C1513 C1521 1.433 . S
C1514 H1510 0.929 . S
C1514 C1516 1.378 . S
C1514 C1518 1.350 . S
C1515 C1518 1.463 . S
C1515 C1520 1.350 . S
C1515 N1523 1.427 . S
C1516 H1507 0.930 . S
C1516 C1514 1.378 . S
C1516 C1517 1.367 . S
C1517 C1516 1.367 . S
C1517 C1519 1.433 . S
C1518 C1514 1.350 . S
C1518 C1515 1.463 . S
C1518 N1522 1.427 . S
C1519 H1509 0.929 . S
C1519 C1517 1.433 . S
C1519 N1522 1.384 . S
C1520 H1511 0.929 . S
C1520 C1512 1.378 . S
C1520 C1515 1.350 . S
C1521 H1508 0.929 . S
C1521 C1513 1.433 . S
C1521 N1523 1.384 . S
N1522 C1518 1.427 . S
N1522 C1519 1.384 . S
N1523 C1515 1.427 . S
N1523 C1521 1.384 . S
H1524 C1530 0.965 . S
H1525 C1534 0.930 . S
H1526 C1539 0.929 . S
H1527 C1537 0.921 1_554 S
H1528 C1532 0.929 . S
H1529 C1538 0.929 1_554 S
C1530 H1524 0.965 . S
C1530 C1531 1.367 1_565 S
C1530 C1538 1.378 . S
C1531 C1530 1.367 1_545 S
C1531 C1539 1.433 . S
C1532 H1528 0.929 . S
C1532 C1534 1.378 . S
C1532 C1536 1.350 . S
C1533 C1536 1.463 . S
C1533 C1538 1.350 . S
C1533 N1541 1.427 . S
C1534 H1525 0.930 . S
C1534 C1532 1.378 . S
C1534 C1535 1.367 . S
C1535 C1534 1.367 . S
C1535 C1537 1.440 . S
C1536 C1532 1.350 . S
C1536 C1533 1.463 . S
C1536 N1540 1.427 . S
C1537 H1527 0.921 1_556 S
C1537 C1535 1.440 . S
C1537 N1540 1.385 . S
C1538 H1529 0.929 1_556 S
C1538 C1530 1.378 . S
C1538 C1533 1.350 . S
C1539 H1526 0.929 . S
C1539 C1531 1.433 . S
C1539 N1541 1.384 1_545 S
N1540 C1536 1.427 . S
N1540 C1537 1.385 . S
N1541 C1533 1.427 . S
N1541 C1539 1.384 1_565 S
H1542 C1548 0.930 . S
H1543 C1552 0.930 . S
H1544 C1557 0.929 . S
H1545 C1555 0.929 . S
H1546 C1550 0.929 . S
H1547 C1556 0.929 . S
C1548 H1542 0.930 . S
C1548 C1549 1.367 . S
C1548 C1556 1.378 . S
C1549 C1548 1.367 . S
C1549 C1557 1.433 . S
C1550 H1546 0.929 . S
C1550 C1552 1.378 . S
C1550 C1554 1.350 . S
C1551 C1554 1.463 . S
C1551 C1556 1.350 . S
C1551 N1559 1.427 . S
C1552 H1543 0.930 . S
C1552 C1550 1.378 . S
C1552 C1553 1.367 . S
C1553 C1552 1.367 . S
C1553 C1555 1.433 . S
C1554 C1550 1.350 . S
C1554 C1551 1.463 . S
C1554 N1558 1.427 . S
C1555 H1545 0.929 . S
C1555 C1553 1.433 . S
C1555 N1558 1.384 . S
C1556 H1547 0.929 . S
C1556 C1548 1.378 . S
C1556 C1551 1.350 . S
C1557 H1544 0.929 . S
C1557 C1549 1.433 . S
C1557 N1559 1.384 . S
N1558 C1554 1.427 . S
N1558 C1555 1.384 . S
N1559 C1551 1.427 . S
N1559 C1557 1.384 . S
H1560 C1566 0.930 1_565 S
H1561 C1570 0.930 . S
H1562 C1575 0.920 1_565 S
H1563 C1573 0.929 . S
H1564 C1568 0.929 . S
H1565 C1574 0.929 . S
C1566 H1560 0.930 1_545 S
C1566 C1567 1.367 1_545 S
C1566 C1574 1.378 . S
C1567 C1566 1.367 1_565 S
C1567 C1575 1.433 1_565 S
C1568 H1564 0.929 . S
C1568 C1570 1.378 . S
C1568 C1572 1.350 . S
C1569 C1572 1.463 . S
C1569 C1574 1.350 . S
C1569 N1577 1.427 . S
C1570 H1561 0.930 . S
C1570 C1568 1.378 . S
C1570 C1571 1.367 . S
C1571 C1570 1.367 . S
C1571 C1573 1.433 . S
C1572 C1568 1.350 . S
C1572 C1569 1.463 . S
C1572 N1576 1.427 . S
C1573 H1563 0.929 . S
C1573 C1571 1.433 . S
C1573 N1576 1.384 . S
C1574 H1565 0.929 . S
C1574 C1566 1.378 . S
C1574 C1569 1.350 . S
C1575 H1562 0.920 1_545 S
C1575 C1567 1.433 1_545 S
C1575 N1577 1.384 . S
N1576 C1572 1.427 . S
N1576 C1573 1.384 . S
N1577 C1569 1.427 . S
N1577 C1575 1.384 . S
H1578 C1584 0.930 . S
H1579 C1588 0.930 . S
H1580 C1593 0.929 . S
H1581 C1591 0.929 . S
H1582 C1586 0.929 . S
H1583 C1592 0.929 . S
C1584 H1578 0.930 . S
C1584 C1585 1.367 . S
C1584 C1592 1.378 . S
C1585 C1584 1.367 . S
C1585 C1593 1.433 . S
C1586 H1582 0.929 . S
C1586 C1588 1.378 . S
C1586 C1590 1.350 . S
C1587 C1590 1.463 . S
C1587 C1592 1.350 . S
C1587 N1595 1.427 . S
C1588 H1579 0.930 . S
C1588 C1586 1.378 . S
C1588 C1589 1.367 . S
C1589 C1588 1.367 . S
C1589 C1591 1.433 . S
C1590 C1586 1.350 . S
C1590 C1587 1.463 . S
C1590 N1594 1.427 . S
C1591 H1581 0.929 . S
C1591 C1589 1.433 . S
C1591 N1594 1.384 . S
C1592 H1583 0.929 . S
C1592 C1584 1.378 . S
C1592 C1587 1.350 . S
C1593 H1580 0.929 . S
C1593 C1585 1.433 . S
C1593 N1595 1.384 . S
N1594 C1590 1.427 . S
N1594 C1591 1.384 . S
N1595 C1587 1.427 . S
N1595 C1593 1.384 . S
H1596 C1602 0.930 . S
H1597 C1606 0.930 . S
H1598 C1611 0.929 . S
H1599 C1609 0.929 . S
H1600 C1604 0.929 . S
H1601 C1610 0.929 . S
C1602 H1596 0.930 . S
C1602 C1603 1.367 . S
C1602 C1610 1.378 . S
C1603 C1602 1.367 . S
C1603 C1611 1.433 1_565 S
C1604 H1600 0.929 . S
C1604 C1606 1.378 . S
C1604 C1608 1.350 . S
C1605 C1608 1.463 . S
C1605 C1610 1.350 1_545 S
C1605 N1613 1.427 . S
C1606 H1597 0.930 . S
C1606 C1604 1.378 . S
C1606 C1607 1.367 . S
C1607 C1606 1.367 . S
C1607 C1609 1.433 . S
C1608 C1604 1.350 . S
C1608 C1605 1.463 . S
C1608 N1612 1.427 . S
C1609 H1599 0.929 . S
C1609 C1607 1.433 . S
C1609 N1612 1.384 . S
C1610 H1601 0.929 . S
C1610 C1602 1.378 . S
C1610 C1605 1.350 1_565 S
C1611 H1598 0.929 . S
C1611 C1603 1.433 1_545 S
C1611 N1613 1.384 . S
N1612 C1608 1.427 . S
N1612 C1609 1.384 . S
N1613 C1605 1.427 . S
N1613 C1611 1.384 . S
H1614 C1620 0.930 . S
H1615 C1624 0.930 . S
H1616 C1629 0.929 . S
H1617 C1627 0.929 . S
H1618 C1622 0.929 . S
H1619 C1628 0.929 . S
C1620 H1614 0.930 . S
C1620 C1621 1.367 . S
C1620 C1628 1.378 . S
C1621 C1620 1.367 . S
C1621 C1629 1.433 . S
C1622 H1618 0.929 . S
C1622 C1624 1.378 . S
C1622 C1626 1.350 . S
C1623 C1626 1.463 . S
C1623 C1628 1.350 . S
C1623 N1631 1.427 . S
C1624 H1615 0.930 . S
C1624 C1622 1.378 . S
C1624 C1625 1.367 . S
C1625 C1624 1.367 . S
C1625 C1627 1.433 . S
C1626 C1622 1.350 . S
C1626 C1623 1.463 . S
C1626 N1630 1.427 . S
C1627 H1617 0.929 . S
C1627 C1625 1.433 . S
C1627 N1630 1.384 . S
C1628 H1619 0.929 . S
C1628 C1620 1.378 . S
C1628 C1623 1.350 . S
C1629 H1616 0.929 . S
C1629 C1621 1.433 . S
C1629 N1631 1.384 . S
N1630 C1626 1.427 . S
N1630 C1627 1.384 . S
N1631 C1623 1.427 . S
N1631 C1629 1.384 . S
H1632 C1638 0.930 . S
H1633 C1642 0.930 . S
H1634 C1647 0.929 . S
H1635 C1645 0.929 . S
H1636 C1640 0.929 . S
H1637 C1646 0.929 . S
C1638 H1632 0.930 . S
C1638 C1639 1.367 . S
C1638 C1646 1.378 . S
C1639 C1638 1.367 . S
C1639 C1647 1.433 . S
C1640 H1636 0.929 . S
C1640 C1642 1.378 . S
C1640 C1644 1.350 . S
C1641 C1644 1.463 . S
C1641 C1646 1.350 . S
C1641 N1649 1.427 . S
C1642 H1633 0.930 . S
C1642 C1640 1.378 . S
C1642 C1643 1.367 . S
C1643 C1642 1.367 . S
C1643 C1645 1.433 . S
C1644 C1640 1.350 . S
C1644 C1641 1.463 . S
C1644 N1648 1.427 . S
C1645 H1635 0.929 . S
C1645 C1643 1.433 . S
C1645 N1648 1.384 . S
C1646 H1637 0.929 . S
C1646 C1638 1.378 . S
C1646 C1641 1.350 . S
C1647 H1634 0.929 . S
C1647 C1639 1.433 . S
C1647 N1649 1.384 . S
N1648 C1644 1.427 . S
N1648 C1645 1.384 . S
N1649 C1641 1.427 . S
N1649 C1647 1.384 . S
H1650 C1656 0.930 . S
H1651 C1660 0.930 . S
H1652 C1665 0.929 . S
H1653 C1663 0.929 . S
H1654 C1658 0.929 . S
H1655 C1664 0.929 . S
C1656 H1650 0.930 . S
C1656 C1657 1.367 . S
C1656 C1664 1.378 . S
C1657 C1656 1.367 . S
C1657 C1665 1.433 . S
C1658 H1654 0.929 . S
C1658 C1660 1.378 . S
C1658 C1662 1.350 . S
C1659 C1662 1.463 . S
C1659 C1664 1.350 . S
C1659 N1667 1.427 . S
C1660 H1651 0.930 . S
C1660 C1658 1.378 . S
C1660 C1661 1.367 . S
C1661 C1660 1.367 . S
C1661 C1663 1.433 . S
C1662 C1658 1.350 . S
C1662 C1659 1.463 . S
C1662 N1666 1.427 . S
C1663 H1653 0.929 . S
C1663 C1661 1.433 . S
C1663 N1666 1.384 . S
C1664 H1655 0.929 . S
C1664 C1656 1.378 . S
C1664 C1659 1.350 . S
C1665 H1652 0.929 . S
C1665 C1657 1.433 . S
C1665 N1667 1.384 . S
N1666 C1662 1.427 . S
N1666 C1663 1.384 . S
N1667 C1659 1.427 . S
N1667 C1665 1.384 . S
H1668 C1674 0.930 . S
H1669 C1678 0.930 . S
H1670 C1683 0.929 . S
H1671 C1681 0.929 . S
H1672 C1676 0.929 . S
H1673 C1682 0.929 . S
C1674 H1668 0.930 . S
C1674 C1675 1.367 . S
C1674 C1682 1.378 . S
C1675 C1674 1.367 . S
C1675 C1683 1.433 . S
C1676 H1672 0.929 . S
C1676 C1678 1.378 . S
C1676 C1680 1.350 . S
C1677 C1680 1.463 . S
C1677 C1682 1.350 . S
C1677 N1685 1.427 . S
C1678 H1669 0.930 . S
C1678 C1676 1.378 . S
C1678 C1679 1.367 . S
C1679 C1678 1.367 . S
C1679 C1681 1.433 . S
C1680 C1676 1.350 . S
C1680 C1677 1.463 . S
C1680 N1684 1.427 . S
C1681 H1671 0.929 . S
C1681 C1679 1.433 . S
C1681 N1684 1.384 . S
C1682 H1673 0.929 . S
C1682 C1674 1.378 . S
C1682 C1677 1.350 . S
C1683 H1670 0.929 . S
C1683 C1675 1.433 . S
C1683 N1685 1.384 . S
N1684 C1680 1.427 . S
N1684 C1681 1.384 . S
N1685 C1677 1.427 . S
N1685 C1683 1.384 . S
H1686 C1692 0.930 . S
H1687 C1696 0.930 . S
H1688 C1701 0.929 . S
H1689 C1699 0.929 . S
H1690 C1694 0.929 . S
H1691 C1700 0.929 . S
C1692 H1686 0.930 . S
C1692 C1693 1.367 . S
C1692 C1700 1.378 . S
C1693 C1692 1.367 . S
C1693 C1701 1.433 . S
C1694 H1690 0.929 . S
C1694 C1696 1.378 . S
C1694 C1698 1.350 . S
C1695 C1698 1.463 . S
C1695 C1700 1.350 . S
C1695 N1703 1.427 . S
C1696 H1687 0.930 . S
C1696 C1694 1.378 . S
C1696 C1697 1.367 . S
C1697 C1696 1.367 . S
C1697 C1699 1.433 . S
C1698 C1694 1.350 . S
C1698 C1695 1.463 . S
C1698 N1702 1.427 . S
C1699 H1689 0.929 . S
C1699 C1697 1.433 . S
C1699 N1702 1.384 . S
C1700 H1691 0.929 . S
C1700 C1692 1.378 . S
C1700 C1695 1.350 . S
C1701 H1688 0.929 . S
C1701 C1693 1.433 . S
C1701 N1703 1.384 . S
N1702 C1698 1.427 . S
N1702 C1699 1.384 . S
N1703 C1695 1.427 . S
N1703 C1701 1.384 . S
H1704 C1710 0.930 . S
H1705 C1714 0.930 . S
H1706 C1719 0.929 . S
H1707 C1717 0.929 . S
H1708 C1712 0.929 . S
H1709 C1718 0.929 . S
C1710 H1704 0.930 . S
C1710 C1711 1.367 . S
C1710 C1718 1.378 . S
C1711 C1710 1.367 . S
C1711 C1719 1.433 . S
C1712 H1708 0.929 . S
C1712 C1714 1.378 . S
C1712 C1716 1.350 . S
C1713 C1716 1.463 . S
C1713 C1718 1.350 . S
C1713 N1721 1.427 . S
C1714 H1705 0.930 . S
C1714 C1712 1.378 . S
C1714 C1715 1.367 . S
C1715 C1714 1.367 . S
C1715 C1717 1.433 . S
C1716 C1712 1.350 . S
C1716 C1713 1.463 . S
C1716 N1720 1.427 . S
C1717 H1707 0.929 . S
C1717 C1715 1.433 . S
C1717 N1720 1.384 . S
C1718 H1709 0.929 . S
C1718 C1710 1.378 . S
C1718 C1713 1.350 . S
C1719 H1706 0.929 . S
C1719 C1711 1.433 . S
C1719 N1721 1.384 . S
N1720 C1716 1.427 . S
N1720 C1717 1.384 . S
N1721 C1713 1.427 . S
N1721 C1719 1.384 . S
H1722 C1728 0.930 . S
H1723 C1732 0.930 1_565 S
H1724 C1737 0.929 . S
H1725 C1735 0.929 . S
H1726 C1730 0.929 1_565 S
H1727 C1736 0.929 . S
C1728 H1722 0.930 . S
C1728 C1729 1.367 1_655 S
C1728 C1736 1.378 . S
C1729 C1728 1.367 1_455 S
C1729 C1737 1.433 . S
C1730 H1726 0.929 1_545 S
C1730 C1732 1.378 . S
C1730 C1734 1.350 . S
C1731 C1734 1.463 . S
C1731 C1736 1.350 . S
C1731 N1739 1.462 . S
C1732 H1723 0.930 1_545 S
C1732 C1730 1.378 . S
C1732 C1733 1.367 . S
C1733 C1732 1.367 . S
C1733 C1735 1.433 . S
C1734 C1730 1.350 . S
C1734 C1731 1.463 . S
C1734 N1738 1.427 . S
C1735 H1725 0.929 . S
C1735 C1733 1.433 . S
C1735 N1738 1.384 . S
C1736 H1727 0.929 . S
C1736 C1728 1.378 . S
C1736 C1731 1.350 . S
C1737 H1724 0.929 . S
C1737 C1729 1.433 . S
C1737 N1739 1.359 1_455 S
N1738 C1734 1.427 . S
N1738 C1735 1.384 . S
N1739 C1731 1.462 . S
N1739 C1737 1.359 1_655 S
H1740 C1746 0.930 . S
H1741 C1750 0.930 . S
H1742 C1755 0.929 . S
H1743 C1753 0.929 . S
H1744 C1748 0.929 . S
H1745 C1754 0.929 . S
C1746 H1740 0.930 . S
C1746 C1747 1.367 . S
C1746 C1754 1.378 . S
C1747 C1746 1.367 . S
C1747 C1755 1.433 . S
C1748 H1744 0.929 . S
C1748 C1750 1.378 . S
C1748 C1752 1.350 . S
C1749 C1752 1.463 . S
C1749 C1754 1.350 . S
C1749 N1757 1.427 . S
C1750 H1741 0.930 . S
C1750 C1748 1.378 . S
C1750 C1751 1.367 . S
C1751 C1750 1.367 . S
C1751 C1753 1.433 . S
C1752 C1748 1.350 . S
C1752 C1749 1.463 . S
C1752 N1756 1.427 . S
C1753 H1743 0.929 . S
C1753 C1751 1.433 . S
C1753 N1756 1.384 . S
C1754 H1745 0.929 . S
C1754 C1746 1.378 . S
C1754 C1749 1.350 . S
C1755 H1742 0.929 . S
C1755 C1747 1.433 . S
C1755 N1757 1.384 . S
N1756 C1752 1.427 . S
N1756 C1753 1.384 . S
N1757 C1749 1.427 . S
N1757 C1755 1.384 . S
H1758 C1764 0.930 . S
H1759 C1768 0.930 . S
H1760 C1773 0.929 . S
H1761 C1771 0.929 . S
H1762 C1766 0.929 . S
H1763 C1772 0.929 . S
C1764 H1758 0.930 . S
C1764 C1765 1.367 . S
C1764 C1772 1.378 1_655 S
C1765 C1764 1.367 . S
C1765 C1773 1.433 1_655 S
C1766 H1762 0.929 . S
C1766 C1768 1.378 . S
C1766 C1770 1.350 . S
C1767 C1770 1.463 . S
C1767 C1772 1.350 . S
C1767 N1775 1.427 . S
C1768 H1759 0.930 . S
C1768 C1766 1.378 . S
C1768 C1769 1.367 . S
C1769 C1768 1.367 . S
C1769 C1771 1.433 . S
C1770 C1766 1.350 . S
C1770 C1767 1.463 . S
C1770 N1774 1.427 . S
C1771 H1761 0.929 . S
C1771 C1769 1.433 . S
C1771 N1774 1.384 . S
C1772 H1763 0.929 . S
C1772 C1764 1.378 1_455 S
C1772 C1767 1.350 . S
C1773 H1760 0.929 . S
C1773 C1765 1.433 1_455 S
C1773 N1775 1.384 . S
N1774 C1770 1.427 . S
N1774 C1771 1.384 . S
N1775 C1767 1.427 . S
N1775 C1773 1.384 . S
H1776 C1782 0.930 . S
H1777 C1786 0.930 . S
H1778 C1791 0.929 . S
H1779 C1789 0.929 . S
H1780 C1784 0.929 . S
H1781 C1790 0.929 . S
C1782 H1776 0.930 . S
C1782 C1783 1.367 . S
C1782 C1790 1.378 . S
C1783 C1782 1.367 . S
C1783 C1791 1.433 . S
C1784 H1780 0.929 . S
C1784 C1786 1.378 . S
C1784 C1788 1.350 . S
C1785 C1788 1.463 . S
C1785 C1790 1.350 . S
C1785 N1793 1.427 . S
C1786 H1777 0.930 . S
C1786 C1784 1.378 . S
C1786 C1787 1.367 . S
C1787 C1786 1.367 . S
C1787 C1789 1.433 . S
C1788 C1784 1.350 . S
C1788 C1785 1.463 . S
C1788 N1792 1.427 . S
C1789 H1779 0.929 . S
C1789 C1787 1.433 . S
C1789 N1792 1.384 . S
C1790 H1781 0.929 . S
C1790 C1782 1.378 . S
C1790 C1785 1.350 . S
C1791 H1778 0.929 . S
C1791 C1783 1.433 . S
C1791 N1793 1.384 . S
N1792 C1788 1.427 . S
N1792 C1789 1.384 . S
N1793 C1785 1.427 . S
N1793 C1791 1.384 . S
H1794 C1800 0.930 . S
H1795 C1804 0.930 . S
H1796 C1809 0.929 . S
H1797 C1807 0.929 . S
H1798 C1802 0.929 . S
H1799 C1808 0.929 . S
C1800 H1794 0.930 . S
C1800 C1801 1.367 . S
C1800 C1808 1.378 . S
C1801 C1800 1.367 . S
C1801 C1809 1.433 1_554 S
C1802 H1798 0.929 . S
C1802 C1804 1.378 . S
C1802 C1806 1.350 . S
C1803 C1806 1.463 . S
C1803 C1808 1.350 1_556 S
C1803 N1811 1.427 . S
C1804 H1795 0.930 . S
C1804 C1802 1.378 . S
C1804 C1805 1.367 . S
C1805 C1804 1.367 . S
C1805 C1807 1.433 . S
C1806 C1802 1.350 . S
C1806 C1803 1.463 . S
C1806 N1810 1.427 . S
C1807 H1797 0.929 . S
C1807 C1805 1.433 . S
C1807 N1810 1.384 . S
C1808 H1799 0.929 . S
C1808 C1800 1.378 . S
C1808 C1803 1.350 1_554 S
C1809 H1796 0.929 . S
C1809 C1801 1.433 1_556 S
C1809 N1811 1.384 . S
N1810 C1806 1.427 . S
N1810 C1807 1.384 . S
N1811 C1803 1.427 . S
N1811 C1809 1.384 . S
H1812 C1818 0.930 . S
H1813 C1822 0.930 . S
H1814 C1827 0.929 . S
H1815 C1825 0.929 . S
H1816 C1820 0.929 . S
H1817 C1826 0.929 . S
C1818 H1812 0.930 . S
C1818 C1819 1.367 . S
C1818 C1826 1.378 . S
C1819 C1818 1.367 . S
C1819 C1827 1.433 . S
C1820 H1816 0.929 . S
C1820 C1822 1.378 . S
C1820 C1824 1.350 . S
C1821 C1824 1.463 . S
C1821 C1826 1.350 . S
C1821 N1829 1.427 . S
C1822 H1813 0.930 . S
C1822 C1820 1.378 . S
C1822 C1823 1.367 . S
C1823 C1822 1.367 . S
C1823 C1825 1.433 . S
C1824 C1820 1.350 . S
C1824 C1821 1.463 . S
C1824 N1828 1.427 . S
C1825 H1815 0.929 . S
C1825 C1823 1.433 . S
C1825 N1828 1.384 . S
C1826 H1817 0.929 . S
C1826 C1818 1.378 . S
C1826 C1821 1.350 . S
C1827 H1814 0.929 . S
C1827 C1819 1.433 . S
C1827 N1829 1.384 . S
N1828 C1824 1.427 . S
N1828 C1825 1.384 . S
N1829 C1821 1.427 . S
N1829 C1827 1.384 . S
H1830 C1836 0.930 . S
H1831 C1840 0.930 . S
H1832 C1845 0.929 . S
H1833 C1843 0.929 . S
H1834 C1838 0.929 . S
H1835 C1844 0.929 . S
C1836 H1830 0.930 . S
C1836 C1837 1.367 1_556 S
C1836 C1844 1.378 . S
C1837 C1836 1.367 1_554 S
C1837 C1845 1.433 . S
C1838 H1834 0.929 . S
C1838 C1840 1.378 . S
C1838 C1842 1.350 . S
C1839 C1842 1.463 . S
C1839 C1844 1.350 . S
C1839 N1847 1.427 1_556 S
C1840 H1831 0.930 . S
C1840 C1838 1.378 . S
C1840 C1841 1.367 . S
C1841 C1840 1.367 . S
C1841 C1843 1.433 . S
C1842 C1838 1.350 . S
C1842 C1839 1.463 . S
C1842 N1846 1.427 . S
C1843 H1833 0.929 . S
C1843 C1841 1.433 . S
C1843 N1846 1.384 . S
C1844 H1835 0.929 . S
C1844 C1836 1.378 . S
C1844 C1839 1.350 . S
C1845 H1832 0.929 . S
C1845 C1837 1.433 . S
C1845 N1847 1.384 . S
N1846 C1842 1.427 . S
N1846 C1843 1.384 . S
N1847 C1839 1.427 1_554 S
N1847 C1845 1.384 . S
H1848 C1854 0.930 . S
H1849 C1858 0.930 . S
H1850 C1863 0.929 . S
H1851 C1861 0.929 . S
H1852 C1856 0.929 . S
H1853 C1862 0.929 . S
C1854 H1848 0.930 . S
C1854 C1855 1.367 . S
C1854 C1862 1.378 . S
C1855 C1854 1.367 . S
C1855 C1863 1.433 . S
C1856 H1852 0.929 . S
C1856 C1858 1.378 . S
C1856 C1860 1.350 . S
C1857 C1860 1.463 . S
C1857 C1862 1.350 . S
C1857 N1865 1.427 . S
C1858 H1849 0.930 . S
C1858 C1856 1.378 . S
C1858 C1859 1.367 . S
C1859 C1858 1.367 . S
C1859 C1861 1.433 . S
C1860 C1856 1.350 . S
C1860 C1857 1.463 . S
C1860 N1864 1.427 . S
C1861 H1851 0.929 . S
C1861 C1859 1.433 . S
C1861 N1864 1.384 . S
C1862 H1853 0.929 . S
C1862 C1854 1.378 . S
C1862 C1857 1.350 . S
C1863 H1850 0.929 . S
C1863 C1855 1.433 . S
C1863 N1865 1.384 . S
N1864 C1860 1.427 . S
N1864 C1861 1.384 . S
N1865 C1857 1.427 . S
N1865 C1863 1.384 . S
H1866 C1872 0.930 . S
H1867 C1876 0.930 . S
H1868 C1881 0.929 . S
H1869 C1879 0.929 . S
H1870 C1874 0.929 . S
H1871 C1880 0.929 . S
C1872 H1866 0.930 . S
C1872 C1873 1.367 1_554 S
C1872 C1880 1.378 . S
C1873 C1872 1.367 1_556 S
C1873 C1881 1.433 . S
C1874 H1870 0.929 . S
C1874 C1876 1.378 . S
C1874 C1878 1.350 . S
C1875 C1878 1.463 . S
C1875 C1880 1.350 . S
C1875 N1883 1.427 . S
C1876 H1867 0.930 . S
C1876 C1874 1.378 . S
C1876 C1877 1.367 . S
C1877 C1876 1.367 . S
C1877 C1879 1.433 . S
C1878 C1874 1.350 . S
C1878 C1875 1.463 . S
C1878 N1882 1.427 . S
C1879 H1869 0.929 . S
C1879 C1877 1.433 . S
C1879 N1882 1.384 . S
C1880 H1871 0.929 . S
C1880 C1872 1.378 . S
C1880 C1875 1.350 . S
C1881 H1868 0.929 . S
C1881 C1873 1.433 . S
C1881 N1883 1.384 1_556 S
N1882 C1878 1.427 . S
N1882 C1879 1.384 . S
N1883 C1875 1.427 . S
N1883 C1881 1.384 1_554 S
H1884 C1890 0.930 . S
H1885 C1894 0.930 . S
H1886 C1899 0.929 . S
H1887 C1897 0.929 . S
H1888 C1892 0.929 . S
H1889 C1898 0.929 . S
C1890 H1884 0.930 . S
C1890 C1891 1.367 . S
C1890 C1898 1.378 . S
C1891 C1890 1.367 . S
C1891 C1899 1.433 . S
C1892 H1888 0.929 . S
C1892 C1894 1.378 . S
C1892 C1896 1.350 . S
C1893 C1896 1.463 . S
C1893 C1898 1.350 . S
C1893 N1901 1.427 . S
C1894 H1885 0.930 . S
C1894 C1892 1.378 . S
C1894 C1895 1.367 . S
C1895 C1894 1.367 . S
C1895 C1897 1.433 . S
C1896 C1892 1.350 . S
C1896 C1893 1.463 . S
C1896 N1900 1.427 . S
C1897 H1887 0.929 . S
C1897 C1895 1.433 . S
C1897 N1900 1.384 . S
C1898 H1889 0.929 . S
C1898 C1890 1.378 . S
C1898 C1893 1.350 . S
C1899 H1886 0.929 . S
C1899 C1891 1.433 . S
C1899 N1901 1.384 . S
N1900 C1896 1.427 . S
N1900 C1897 1.384 . S
N1901 C1893 1.427 . S
N1901 C1899 1.384 . S
H1902 C1908 0.930 . S
H1903 C1912 0.930 . S
H1904 C1917 0.929 . S
H1905 C1915 0.929 . S
H1906 C1910 0.929 . S
H1907 C1916 0.929 . S
C1908 H1902 0.930 . S
C1908 C1909 1.367 1_554 S
C1908 C1916 1.378 . S
C1909 C1908 1.367 1_556 S
C1909 C1917 1.433 . S
C1910 H1906 0.929 . S
C1910 C1912 1.378 . S
C1910 C1914 1.350 . S
C1911 C1914 1.463 . S
C1911 C1916 1.350 . S
C1911 N1919 1.427 . S
C1912 H1903 0.930 . S
C1912 C1910 1.378 . S
C1912 C1913 1.367 . S
C1913 C1912 1.367 . S
C1913 C1915 1.433 . S
C1914 C1910 1.350 . S
C1914 C1911 1.463 . S
C1914 N1918 1.427 . S
C1915 H1905 0.929 . S
C1915 C1913 1.433 . S
C1915 N1918 1.384 . S
C1916 H1907 0.929 . S
C1916 C1908 1.378 . S
C1916 C1911 1.350 . S
C1917 H1904 0.929 . S
C1917 C1909 1.433 . S
C1917 N1919 1.384 1_556 S
N1918 C1914 1.427 . S
N1918 C1915 1.384 . S
N1919 C1911 1.427 . S
N1919 C1917 1.384 1_554 S
H1920 C1926 0.930 . S
H1921 C1930 0.930 . S
H1922 C1935 0.929 . S
H1923 C1933 0.929 . S
H1924 C1928 0.929 . S
H1925 C1934 0.929 . S
C1926 H1920 0.930 . S
C1926 C1927 1.367 . S
C1926 C1934 1.378 . S
C1927 C1926 1.367 . S
C1927 C1935 1.433 . S
C1928 H1924 0.929 . S
C1928 C1930 1.378 . S
C1928 C1932 1.350 . S
C1929 C1932 1.463 . S
C1929 C1934 1.350 . S
C1929 N1937 1.427 . S
C1930 H1921 0.930 . S
C1930 C1928 1.378 . S
C1930 C1931 1.367 . S
C1931 C1930 1.367 . S
C1931 C1933 1.433 . S
C1932 C1928 1.350 . S
C1932 C1929 1.463 . S
C1932 N1936 1.427 . S
C1933 H1923 0.929 . S
C1933 C1931 1.433 . S
C1933 N1936 1.384 . S
C1934 H1925 0.929 . S
C1934 C1926 1.378 . S
C1934 C1929 1.350 . S
C1935 H1922 0.929 . S
C1935 C1927 1.433 . S
C1935 N1937 1.384 . S
N1936 C1932 1.427 . S
N1936 C1933 1.384 . S
N1937 C1929 1.427 . S
N1937 C1935 1.384 . S
H1938 C1944 0.930 . S
H1939 C1948 0.930 . S
H1940 C1953 0.929 . S
H1941 C1951 0.929 . S
H1942 C1946 0.929 . S
H1943 C1952 0.929 . S
C1944 H1938 0.930 . S
C1944 C1945 1.367 . S
C1944 C1952 1.378 . S
C1945 C1944 1.367 . S
C1945 C1953 1.433 . S
C1946 H1942 0.929 . S
C1946 C1948 1.378 . S
C1946 C1950 1.350 . S
C1947 C1950 1.463 . S
C1947 C1952 1.350 . S
C1947 N1955 1.427 . S
C1948 H1939 0.930 . S
C1948 C1946 1.378 . S
C1948 C1949 1.367 . S
C1949 C1948 1.367 . S
C1949 C1951 1.433 . S
C1950 C1946 1.350 . S
C1950 C1947 1.463 . S
C1950 N1954 1.427 . S
C1951 H1941 0.929 . S
C1951 C1949 1.433 . S
C1951 N1954 1.384 . S
C1952 H1943 0.929 . S
C1952 C1944 1.378 . S
C1952 C1947 1.350 . S
C1953 H1940 0.929 . S
C1953 C1945 1.433 . S
C1953 N1955 1.384 . S
N1954 C1950 1.427 . S
N1954 C1951 1.384 . S
N1955 C1947 1.427 . S
N1955 C1953 1.384 . S
H1956 C1962 0.930 . S
H1957 C1966 0.930 . S
H1958 C1971 0.929 . S
H1959 C1969 0.929 . S
H1960 C1964 0.929 . S
H1961 C1970 0.929 . S
C1962 H1956 0.930 . S
C1962 C1963 1.367 . S
C1962 C1970 1.378 . S
C1963 C1962 1.367 . S
C1963 C1971 1.433 . S
C1964 H1960 0.929 . S
C1964 C1966 1.378 . S
C1964 C1968 1.350 . S
C1965 C1968 1.463 . S
C1965 C1970 1.350 . S
C1965 N1973 1.427 . S
C1966 H1957 0.930 . S
C1966 C1964 1.378 . S
C1966 C1967 1.367 . S
C1967 C1966 1.367 . S
C1967 C1969 1.433 . S
C1968 C1964 1.350 . S
C1968 C1965 1.463 . S
C1968 N1972 1.427 . S
C1969 H1959 0.929 . S
C1969 C1967 1.433 . S
C1969 N1972 1.384 . S
C1970 H1961 0.929 . S
C1970 C1962 1.378 . S
C1970 C1965 1.350 . S
C1971 H1958 0.929 . S
C1971 C1963 1.433 . S
C1971 N1973 1.384 . S
N1972 C1968 1.427 . S
N1972 C1969 1.384 . S
N1973 C1965 1.427 . S
N1973 C1971 1.384 . S
H1974 C1980 0.930 . S
H1975 C1984 0.930 . S
H1976 C1989 0.929 . S
H1977 C1987 0.929 . S
H1978 C1982 0.929 . S
H1979 C1988 0.929 . S
C1980 H1974 0.930 . S
C1980 C1981 1.367 . S
C1980 C1988 1.378 . S
C1981 C1980 1.367 . S
C1981 C1989 1.433 . S
C1982 H1978 0.929 . S
C1982 C1984 1.378 . S
C1982 C1986 1.350 . S
C1983 C1986 1.463 . S
C1983 C1988 1.350 . S
C1983 N1991 1.427 . S
C1984 H1975 0.930 . S
C1984 C1982 1.378 . S
C1984 C1985 1.367 . S
C1985 C1984 1.367 . S
C1985 C1987 1.433 . S
C1986 C1982 1.350 . S
C1986 C1983 1.463 . S
C1986 N1990 1.427 . S
C1987 H1977 0.929 . S
C1987 C1985 1.433 . S
C1987 N1990 1.384 . S
C1988 H1979 0.929 . S
C1988 C1980 1.378 . S
C1988 C1983 1.350 . S
C1989 H1976 0.929 . S
C1989 C1981 1.433 . S
C1989 N1991 1.384 . S
N1990 C1986 1.427 . S
N1990 C1987 1.384 . S
N1991 C1983 1.427 . S
N1991 C1989 1.384 . S
H1992 C1998 0.930 1_554 S
H1993 C2002 0.930 . S
H1994 C2007 0.929 . S
H1995 C2005 0.929 . S
H1996 C2000 0.929 . S
H1997 C2006 0.929 1_554 S
C1998 H1992 0.930 1_556 S
C1998 C1999 1.367 . S
C1998 C2006 1.378 . S
C1999 C1998 1.367 . S
C1999 C2007 1.433 . S
C2000 H1996 0.929 . S
C2000 C2002 1.378 . S
C2000 C2004 1.350 . S
C2001 C2004 1.463 . S
C2001 C2006 1.350 . S
C2001 N2009 1.427 . S
C2002 H1993 0.930 . S
C2002 C2000 1.378 . S
C2002 C2003 1.367 . S
C2003 C2002 1.367 . S
C2003 C2005 1.433 1_556 S
C2004 C2000 1.350 . S
C2004 C2001 1.463 . S
C2004 N2008 1.437 . S
C2005 H1995 0.929 . S
C2005 C2003 1.433 1_554 S
C2005 N2008 1.382 1_554 S
C2006 H1997 0.929 1_556 S
C2006 C1998 1.378 . S
C2006 C2001 1.350 . S
C2007 H1994 0.929 . S
C2007 C1999 1.433 . S
C2007 N2009 1.384 . S
N2008 C2004 1.437 . S
N2008 C2005 1.382 1_556 S
N2009 C2001 1.427 . S
N2009 C2007 1.384 . S
H2010 C2016 0.930 . S
H2011 C2020 0.930 . S
H2012 C2025 0.929 . S
H2013 C2023 0.929 . S
H2014 C2018 0.929 . S
H2015 C2024 0.929 . S
C2016 H2010 0.930 . S
C2016 C2017 1.367 . S
C2016 C2024 1.378 . S
C2017 C2016 1.367 . S
C2017 C2025 1.433 . S
C2018 H2014 0.929 . S
C2018 C2020 1.378 . S
C2018 C2022 1.350 . S
C2019 C2022 1.463 . S
C2019 C2024 1.350 . S
C2019 N2027 1.427 . S
C2020 H2011 0.930 . S
C2020 C2018 1.378 . S
C2020 C2021 1.367 . S
C2021 C2020 1.367 . S
C2021 C2023 1.433 . S
C2022 C2018 1.350 . S
C2022 C2019 1.463 . S
C2022 N2026 1.427 . S
C2023 H2013 0.929 . S
C2023 C2021 1.433 . S
C2023 N2026 1.384 . S
C2024 H2015 0.929 . S
C2024 C2016 1.378 . S
C2024 C2019 1.350 . S
C2025 H2012 0.929 . S
C2025 C2017 1.433 . S
C2025 N2027 1.384 . S
N2026 C2022 1.427 . S
N2026 C2023 1.384 . S
N2027 C2019 1.427 . S
N2027 C2025 1.384 . S
H2028 C2034 0.930 . S
H2029 C2038 0.930 . S
H2030 C2043 0.929 . S
H2031 C2041 0.929 1_556 S
H2032 C2036 0.929 . S
H2033 C2042 0.929 . S
C2034 H2028 0.930 . S
C2034 C2035 1.367 . S
C2034 C2042 1.378 . S
C2035 C2034 1.367 . S
C2035 C2043 1.433 . S
C2036 H2032 0.929 . S
C2036 C2038 1.378 . S
C2036 C2040 1.350 . S
C2037 C2040 1.463 . S
C2037 C2042 1.350 . S
C2037 N2045 1.427 . S
C2038 H2029 0.930 . S
C2038 C2036 1.378 . S
C2038 C2039 1.367 . S
C2039 C2038 1.367 . S
C2039 C2041 1.433 . S
C2040 C2036 1.350 . S
C2040 C2037 1.463 . S
C2040 N2044 1.427 . S
C2041 H2031 0.929 1_554 S
C2041 C2039 1.433 . S
C2041 N2044 1.384 . S
C2042 H2033 0.929 . S
C2042 C2034 1.378 . S
C2042 C2037 1.350 . S
C2043 H2030 0.929 . S
C2043 C2035 1.433 . S
C2043 N2045 1.384 . S
N2044 C2040 1.427 . S
N2044 C2041 1.384 . S
N2045 C2037 1.427 . S
N2045 C2043 1.384 . S
H2046 C2052 0.930 . S
H2047 C2056 0.971 . S
H2048 C2061 0.929 1_556 S
H2049 C2059 0.929 . S
H2050 C2054 0.929 1_556 S
H2051 C2060 0.929 . S
C2052 H2046 0.930 . S
C2052 C2053 1.367 1_565 S
C2052 C2060 1.378 . S
C2053 C2052 1.367 1_545 S
C2053 C2061 1.433 . S
C2054 H2050 0.929 1_554 S
C2054 C2056 1.373 1_554 S
C2054 C2058 1.350 . S
C2055 C2058 1.463 . S
C2055 C2060 1.350 . S
C2055 N2063 1.427 . S
C2056 H2047 0.971 . S
C2056 C2054 1.373 1_556 S
C2056 C2057 1.332 1_556 S
C2057 C2056 1.332 1_554 S
C2057 C2059 1.433 . S
C2058 C2054 1.350 . S
C2058 C2055 1.463 . S
C2058 N2062 1.427 . S
C2059 H2049 0.929 . S
C2059 C2057 1.433 . S
C2059 N2062 1.384 . S
C2060 H2051 0.929 . S
C2060 C2052 1.378 . S
C2060 C2055 1.350 . S
C2061 H2048 0.929 1_554 S
C2061 C2053 1.433 . S
C2061 N2063 1.384 1_545 S
N2062 C2058 1.427 . S
N2062 C2059 1.384 . S
N2063 C2055 1.427 . S
N2063 C2061 1.384 1_565 S
C1211 C193 1.510 . S
C1207 C50 1.514 . S
C1229 C252 1.499 . S
C1225 C61 1.499 . S
C1243 C67 1.508 . S
C1247 C369 1.508 . S
C1265 C437 1.507 . S
C1261 C41 1.507 . S
C1283 C516 1.500 . S
C1279 C95 1.500 . S
C1301 C641 1.519 . S
C1297 C113 1.518 . S
C1315 C106 1.489 . S
C1319 C701 1.489 . S
C1337 C809 1.517 . S
C1333 C86 1.519 . S
C1351 C104 1.497 . S
C1355 C905 1.497 . S
C1373 C965 1.516 . S
C1369 C88 1.516 . S
C1387 C94 1.518 . S
C1391 C868 1.518 . S
C1409 C985 1.503 . S
C1405 C112 1.503 . S
C1423 C70 1.496 . S
C1427 C1053 1.496 . S
C1441 C40 1.514 . S
C1445 C1044 1.515 . S
C1459 C49 1.510 . S
C1463 C1073 1.510 . S
C1477 C59 1.513 . S
C1481 C1081 1.516 . S
C1495 C34 1.496 . S
C1499 C465 1.496 . S
C1513 C133 1.500 . S
C1517 C428 1.500 . S
C1535 C164 1.515 . S
C1531 C139 1.516 . S
C1553 C261 1.511 . S
C1549 C77 1.511 . S
C1567 C43 1.499 . S
C1571 C525 1.500 . S
C1589 C817 1.503 . S
C1585 C103 1.498 . S
C1607 C545 1.527 . S
C1603 C85 1.526 . S
C1625 C729 1.498 . S
C1621 C115 1.495 . S
C1643 C721 1.510 . S
C1639 C131 1.510 . S
C1657 C142 1.498 . S
C1661 C789 1.499 . S
C1675 C76 1.510 . S
C1679 C553 1.510 . S
C1697 C604 1.506 . S
C1693 C122 1.505 . S
C1711 C32 1.500 . S
C1715 C349 1.500 . S
C1733 C457 1.519 . S
C1729 C5 1.517 . S
C1751 C173 1.490 . S
C1747 C16 1.486 . S
C1769 C289 1.517 . S
C1765 C23 1.518 . S
C1783 C14 1.497 . S
C1787 C993 1.497 . S
C1801 C25 1.515 . S
C1805 C877 1.515 . S
C1819 C31 1.519 . S
C1823 C956 1.519 . S
C1837 C4 1.503 . S
C1841 C897 1.504 . S
C1859 C1141 1.496 . S
C1855 C79 1.495 . S
C1877 C1132 1.514 . S
C1873 C121 1.514 . S
C1895 C1161 1.510 . S
C1891 C130 1.510 . S
C1909 C140 1.516 . S
C1913 C1169 1.517 . S
C1927 C97 1.494 . S
C1931 C633 1.495 . S
C1949 C613 1.500 . S
C1945 C52 1.500 . S
C1967 C692 1.514 . S
C1963 C58 1.513 . S
C1985 C780 1.509 . S
C1981 C68 1.515 . S
C1999 C124 1.498 . S
C2003 C340 1.499 . S
C2021 C281 1.504 . S
C2017 C13 1.504 . S
C2035 C22 1.526 . S
C2039 C377 1.527 . S
C2057 C201 1.498 . S
C2053 C7 1.494 . S
