# Generated by pormake.
# Topology nom, (4,4)-cn, num edge types: 1
# Building blocks:
#     Node 0, Type 0, BuildingBlock: MIFKUJ_clean_linker_1, # of connection points: 4
#     Node 1, Type 0, BuildingBlock: MIFKUJ_clean_linker_1, # of connection points: 4
#     Node 2, Type 0, BuildingBlock: MIFKUJ_clean_linker_1, # of connection points: 4
#     Node 3, Type 0, BuildingBlock: MIFKUJ_clean_linker_1, # of connection points: 4
#     Node 4, Type 0, BuildingBlock: MIFKUJ_clean_linker_1, # of connection points: 4
#     Node 5, Type 0, BuildingBlock: MIFKUJ_clean_linker_1, # of connection points: 4
#     Node 6, Type 1, BuildingBlock: QUQFOY_clean_sbu_3, # of connection points: 4
#     Node 7, Type 1, BuildingBlock: QUQFOY_clean_sbu_3, # of connection points: 4
#     Node 8, Type 1, BuildingBlock: QUQFOY_clean_sbu_3, # of connection points: 4
#     Node 9, Type 1, BuildingBlock: QUQFOY_clean_sbu_3, # of connection points: 4
#     Node 10, Type 1, BuildingBlock: QUQFOY_clean_sbu_3, # of connection points: 4
#     Node 11, Type 1, BuildingBlock: QUQFOY_clean_sbu_3, # of connection points: 4
#     Edge 12, Type (0, 1), BuildingBlock: MIFKUJ_clean_linker_0, # of connection points: 2
#     Edge 13, Type (0, 1), BuildingBlock: MIFKUJ_clean_linker_0, # of connection points: 2
#     Edge 14, Type (0, 1), BuildingBlock: MIFKUJ_clean_linker_0, # of connection points: 2
#     Edge 15, Type (0, 1), BuildingBlock: MIFKUJ_clean_linker_0, # of connection points: 2
#     Edge 16, Type (0, 1), BuildingBlock: MIFKUJ_clean_linker_0, # of connection points: 2
#     Edge 17, Type (0, 1), BuildingBlock: MIFKUJ_clean_linker_0, # of connection points: 2
#     Edge 18, Type (0, 1), BuildingBlock: MIFKUJ_clean_linker_0, # of connection points: 2
#     Edge 19, Type (0, 1), BuildingBlock: MIFKUJ_clean_linker_0, # of connection points: 2
#     Edge 20, Type (0, 1), BuildingBlock: MIFKUJ_clean_linker_0, # of connection points: 2
#     Edge 21, Type (0, 1), BuildingBlock: MIFKUJ_clean_linker_0, # of connection points: 2
#     Edge 22, Type (0, 1), BuildingBlock: MIFKUJ_clean_linker_0, # of connection points: 2
#     Edge 23, Type (0, 1), BuildingBlock: MIFKUJ_clean_linker_0, # of connection points: 2
#     Edge 24, Type (0, 1), BuildingBlock: MIFKUJ_clean_linker_0, # of connection points: 2
#     Edge 25, Type (0, 1), BuildingBlock: MIFKUJ_clean_linker_0, # of connection points: 2
#     Edge 26, Type (0, 1), BuildingBlock: MIFKUJ_clean_linker_0, # of connection points: 2
#     Edge 27, Type (0, 1), BuildingBlock: MIFKUJ_clean_linker_0, # of connection points: 2
#     Edge 28, Type (0, 1), BuildingBlock: MIFKUJ_clean_linker_0, # of connection points: 2
#     Edge 29, Type (0, 1), BuildingBlock: MIFKUJ_clean_linker_0, # of connection points: 2
#     Edge 30, Type (0, 1), BuildingBlock: MIFKUJ_clean_linker_0, # of connection points: 2
#     Edge 31, Type (0, 1), BuildingBlock: MIFKUJ_clean_linker_0, # of connection points: 2
#     Edge 32, Type (0, 1), BuildingBlock: MIFKUJ_clean_linker_0, # of connection points: 2
#     Edge 33, Type (0, 1), BuildingBlock: MIFKUJ_clean_linker_0, # of connection points: 2
#     Edge 34, Type (0, 1), BuildingBlock: MIFKUJ_clean_linker_0, # of connection points: 2
#     Edge 35, Type (0, 1), BuildingBlock: MIFKUJ_clean_linker_0, # of connection points: 2
# Relax obj value: 0.002
# Max RMSD: 0.098
# Mean RMSD: 0.065
data_MOF--net-nom--node1-QUQFOY_clean_sbu_3--node2-MIFKUJ_clean_linker_1--edge1-MIFKUJ_clean_linker_0
_symmetry_space_group_name_H-M    P1
_symmetry_Int_Tables_number       1
_symmetry_cell_setting            triclinic
loop_
_symmetry_equiv_pos_as_xyz
'x, y, z'
_cell_length_a     66.639913
_cell_length_b     68.132864
_cell_length_c     70.93552
_cell_angle_alpha  89.97364
_cell_angle_beta   90.014896
_cell_angle_gamma 120.00546
loop_
_atom_site_label
_atom_site_type_symbol
_atom_site_fract_x
_atom_site_fract_y
_atom_site_fract_z
_atom_type_partial_charge
H0 H 0.97996 0.46227 0.28187 0.0
H1 H 0.95235 0.44773 0.25561 0.0
H2 H 0.93175 0.49725 0.26795 0.0
H3 H 0.95959 0.51189 0.29394 0.0
H4 H 0.0177 0.50788 0.28784 0.0
H5 H 0.94315 0.45376 0.3171 0.0
H6 H 0.90225 0.44025 0.32394 0.0
H7 H 0.92137 0.50444 0.35035 0.0
H8 H 0.96189 0.51808 0.34279 0.0
H9 H 0.0257 0.54687 0.36115 0.0
H10 H 0.05391 0.56266 0.38674 0.0
H11 H 0.07935 0.51736 0.37204 0.0
H12 H 0.05175 0.50245 0.346 0.0
H13 H 0.99069 0.50382 0.35369 0.0
H14 H 0.05739 0.56045 0.32613 0.0
H15 H 0.09836 0.58375 0.31854 0.0
H16 H 0.09586 0.52798 0.28763 0.0
H17 H 0.05468 0.50427 0.2958 0.0
C18 C 0.97166 0.48802 0.28988 0.0
C19 C 0.96953 0.47001 0.27883 0.0
C20 C 0.95365 0.46162 0.26396 0.0
C21 C 0.93985 0.47131 0.25978 0.0
C22 C 0.94227 0.48956 0.27075 0.0
C23 C 0.95805 0.49785 0.28565 0.0
C24 C 0.98798 0.49642 0.30596 0.0
C25 C 0.01181 0.50653 0.30229 0.0
C26 C 0.98029 0.49585 0.32465 0.0
C27 C 0.95554 0.48701 0.32927 0.0
C28 C 0.93846 0.46495 0.32421 0.0
C29 C 0.91513 0.4572 0.32826 0.0
C30 C 0.90854 0.47134 0.33754 0.0
C31 C 0.92578 0.49327 0.34284 0.0
C32 C 0.949 0.50101 0.33873 0.0
C33 C 0.03673 0.52358 0.35167 0.0
C34 C 0.03733 0.54032 0.36354 0.0
C35 C 0.05343 0.54926 0.3782 0.0
C36 C 0.069 0.54133 0.38149 0.0
C37 C 0.068 0.52423 0.36973 0.0
C38 C 0.0521 0.51553 0.35492 0.0
C39 C 0.02035 0.51484 0.33563 0.0
C40 C -0.00342 0.50474 0.33928 0.0
C41 C 0.02814 0.51644 0.31684 0.0
C42 C 0.05306 0.5304 0.31194 0.0
C43 C 0.0657 0.553 0.31807 0.0
C44 C 0.08912 0.56635 0.31368 0.0
C45 C 0.10032 0.55756 0.3027 0.0
C46 C 0.0876 0.53511 0.29616 0.0
C47 C 0.06414 0.5216 0.3008 0.0
H48 H 0.45005 0.9664 0.50856 0.0
H49 H 0.42533 0.92712 0.51893 0.0
H50 H 0.4796 0.91254 0.50494 0.0
H51 H 0.50421 0.95187 0.49435 0.0
H52 H 0.49633 -0.00077 0.52181 0.0
H53 H 0.45523 0.96179 0.46369 0.0
H54 H 0.44214 0.93339 0.43872 0.0
H55 H 0.51305 0.9501 0.42898 0.0
H56 H 0.52597 0.97912 0.45354 0.0
H57 H 0.55718 0.05515 0.46043 0.0
H58 H 0.57248 0.09362 0.4479 0.0
H59 H 0.51598 0.09732 0.47418 0.0
H60 H 0.50065 0.05892 0.48636 0.0
H61 H 0.51577 0.01696 0.45411 0.0
H62 H 0.55703 0.06161 0.50613 0.0
H63 H 0.57064 0.09122 0.53003 0.0
H64 H 0.50174 0.05967 0.55392 0.0
H65 H 0.48795 0.03087 0.52926 0.0
C66 C 0.47887 0.96193 0.50069 0.0
C67 C 0.45662 0.95474 0.50779 0.0
C68 C 0.44252 0.93234 0.51361 0.0
C69 C 0.45061 0.91688 0.5127 0.0
C70 C 0.47306 0.92421 0.50587 0.0
C71 C 0.48705 0.94656 0.49978 0.0
C72 C 0.49329 0.9855 0.49399 0.0
C73 C 0.5005 0.00322 0.50701 0.0
C74 C 0.49947 0.9905 0.47484 0.0
C75 C 0.49153 0.97246 0.46043 0.0
C76 C 0.46789 0.95917 0.45623 0.0
C77 C 0.46045 0.94283 0.44202 0.0
C78 C 0.47652 0.93937 0.43178 0.0
C79 C 0.50021 0.95251 0.43633 0.0
C80 C 0.50764 0.96902 0.45042 0.0
C81 C 0.52792 0.05429 0.47446 0.0
C82 C 0.54812 0.06429 0.46345 0.0
C83 C 0.55689 0.08626 0.4564 0.0
C84 C 0.54538 0.09842 0.46003 0.0
C85 C 0.52507 0.08827 0.47097 0.0
C86 C 0.51643 0.06642 0.47809 0.0
C87 C 0.51829 0.03094 0.48185 0.0
C88 C 0.51201 0.01317 0.46898 0.0
C89 C 0.51318 0.02595 0.50123 0.0
C90 C 0.52139 0.04409 0.51574 0.0
C91 C 0.54474 0.06129 0.5163 0.0
C92 C 0.55258 0.07807 0.53016 0.0
C93 C 0.53732 0.07784 0.54396 0.0
C94 C 0.51392 0.0606 0.54336 0.0
C95 C 0.50605 0.04394 0.52938 0.0
H96 H 0.53622 0.56425 0.69479 0.0
H97 H 0.525 0.5819 0.71946 0.0
H98 H 0.45452 0.52586 0.7165 0.0
H99 H 0.4658 0.50915 0.69112 0.0
H100 H 0.52573 0.51425 0.69594 0.0
H101 H 0.50794 0.56692 0.66184 0.0
H102 H 0.48099 0.58008 0.65351 0.0
H103 H 0.43386 0.5141 0.63017 0.0
H104 H 0.46014 0.50077 0.63948 0.0
H105 H 0.4925 0.4726 0.62188 0.0
H106 H 0.5036 0.45569 0.59655 0.0
H107 H 0.57412 0.49017 0.61716 0.0
H108 H 0.56317 0.50801 0.64177 0.0
H109 H 0.50294 0.51307 0.62917 0.0
H110 H 0.50679 0.45689 0.66348 0.0
H111 H 0.5213 0.43238 0.67457 0.0
H112 H 0.58065 0.49032 0.69921 0.0
H113 H 0.56617 0.51495 0.68775 0.0
C114 C 0.5018 0.53551 0.69119 0.0
C115 C 0.51836 0.5559 0.69947 0.0
C116 C 0.5119 0.56587 0.71365 0.0
C117 C 0.48882 0.55533 0.72009 0.0
C118 C 0.47233 0.53475 0.71171 0.0
C119 C 0.47875 0.52502 0.69732 0.0
C120 C 0.50867 0.52504 0.67619 0.0
C121 C 0.52121 0.51437 0.68125 0.0
C122 C 0.50139 0.52401 0.65732 0.0
C123 C 0.48591 0.53274 0.65155 0.0
C124 C 0.49165 0.55523 0.65516 0.0
C125 C 0.47634 0.56281 0.65019 0.0
C126 C 0.45514 0.54809 0.64132 0.0
C127 C 0.44977 0.52576 0.63736 0.0
C128 C 0.46493 0.51817 0.64247 0.0
C129 C 0.52697 0.49153 0.6338 0.0
C130 C 0.51038 0.47661 0.62088 0.0
C131 C 0.51671 0.46674 0.60653 0.0
C132 C 0.53975 0.47152 0.60483 0.0
C133 C 0.55628 0.48632 0.6179 0.0
C134 C 0.54998 0.49633 0.63214 0.0
C135 C 0.52033 0.50243 0.64879 0.0
C136 C 0.50784 0.5132 0.64377 0.0
C137 C 0.52636 0.50235 0.66791 0.0
C138 C 0.53555 0.48777 0.67461 0.0
C139 C 0.52303 0.46436 0.67114 0.0
C140 C 0.53121 0.45034 0.67765 0.0
C141 C 0.55207 0.45943 0.68782 0.0
C142 C 0.56462 0.48289 0.69129 0.0
C143 C 0.55632 0.49694 0.68485 0.0
H144 H 0.0333 0.56005 0.78521 0.0
H145 H 0.0615 0.57706 0.75968 0.0
H146 H 0.07761 0.52311 0.76467 0.0
H147 H 0.0502 0.50699 0.79078 0.0
H148 H 0.99371 0.51015 0.78708 0.0
H149 H 0.06761 0.56544 0.81772 0.0
H150 H 0.1085 0.57928 0.82479 0.0
H151 H 0.08994 0.51453 0.84989 0.0
H152 H 0.04953 0.50051 0.84187 0.0
H153 H 0.98379 0.46558 0.85608 0.0
H154 H 0.95622 0.44795 0.88212 0.0
H155 H 0.93211 0.49557 0.87364 0.0
H156 H 0.95995 0.51329 0.84795 0.0
H157 H 0.01985 0.51295 0.85307 0.0
H158 H 0.96531 0.4564 0.8071 0.0
H159 H 0.92507 0.42844 0.80034 0.0
H160 H 0.90597 0.48009 0.80717 0.0
H161 H 0.94675 0.50826 0.81313 0.0
C162 C 0.03983 0.53239 0.78984 0.0
C163 C 0.04298 0.55198 0.78075 0.0
C164 C 0.05903 0.56159 0.7661 0.0
C165 C 0.07192 0.5515 0.76005 0.0
C166 C 0.06841 0.53164 0.76915 0.0
C167 C 0.05259 0.52225 0.78396 0.0
C168 C 0.02326 0.5226 0.80561 0.0
C169 C -0.00054 0.51138 0.80156 0.0
C170 C 0.03077 0.52273 0.82429 0.0
C171 C 0.05554 0.53184 0.82906 0.0
C172 C 0.07244 0.55417 0.82452 0.0
C173 C 0.09577 0.56213 0.82875 0.0
C174 C 0.10254 0.54795 0.83776 0.0
C175 C 0.08545 0.52575 0.84256 0.0
C176 C 0.06226 0.51779 0.8382 0.0
C177 C 0.97374 0.49061 0.85011 0.0
C178 C 0.97253 0.47216 0.85989 0.0
C179 C 0.95671 0.46204 0.87463 0.0
C180 C 0.94205 0.47042 0.87991 0.0
C181 C 0.94334 0.48891 0.87002 0.0
C182 C 0.95908 0.49892 0.85526 0.0
C183 C 0.99051 0.50146 0.8346 0.0
C184 C 0.01423 0.51257 0.83865 0.0
C185 C 0.98307 0.5003 0.81582 0.0
C186 C 0.95886 0.48428 0.81058 0.0
C187 C 0.95244 0.4617 0.80692 0.0
C188 C 0.92938 0.4457 0.8033 0.0
C189 C 0.91218 0.45192 0.80347 0.0
C190 C 0.91879 0.47475 0.80681 0.0
C191 C 0.94202 0.49085 0.81027 0.0
H192 H 0.55978 0.05297 0.01303 0.0
H193 H 0.58113 0.09212 0.02389 0.0
H194 H 0.52733 0.10351 0.00173 0.0
H195 H 0.50625 0.06424 0.9905 0.0
H196 H 0.51606 0.01924 0.02252 0.0
H197 H 0.55653 0.06279 0.9674 0.0
H198 H 0.56682 0.09038 0.94188 0.0
H199 H 0.49591 0.05517 0.92252 0.0
H200 H 0.48545 0.02802 0.94841 0.0
H201 H 0.46099 0.96196 0.95871 0.0
H202 H 0.44599 0.92288 0.94776 0.0
H203 H 0.49667 0.91771 0.98201 0.0
H204 H 0.51241 0.95694 0.99215 0.0
H205 H 0.4996 -0.00122 0.95495 0.0
H206 H 0.45733 0.95803 0.00986 0.0
H207 H 0.44452 0.92992 0.03509 0.0
H208 H 0.51552 0.95844 0.05376 0.0
H209 H 0.52798 0.987 0.0289 0.0
C210 C 0.53153 0.05577 0.00089 0.0
C211 C 0.55255 0.06389 0.01057 0.0
C212 C 0.56466 0.08625 0.01687 0.0
C213 C 0.55589 0.10095 0.01378 0.0
C214 C 0.53469 0.09271 0.00415 0.0
C215 C 0.5226 0.07029 -0.00223 0.0
C216 C 0.51905 0.03199 0.99427 0.0
C217 C 0.51258 0.01478 0.00772 0.0
C218 C 0.51375 0.02616 0.97504 0.0
C219 C 0.52012 0.04347 0.96002 0.0
C220 C 0.54306 0.06128 0.95795 0.0
C221 C 0.54896 0.07701 0.94335 0.0
C222 C 0.53213 0.07489 0.93029 0.0
C223 C 0.50921 0.0571 0.93236 0.0
C224 C 0.50325 0.0416 0.94712 0.0
C225 C 0.48752 0.9623 0.97661 0.0
C226 C 0.46897 0.95247 0.96378 0.0
C227 C 0.4604 0.9302 0.95755 0.0
C228 C 0.47007 0.91735 0.96424 0.0
C229 C 0.48871 0.92721 0.97691 0.0
C230 C 0.49758 0.94957 0.98281 0.0
C231 C 0.49685 0.98601 0.98318 0.0
C232 C 0.50275 0.00321 0.96977 0.0
C233 C 0.50125 0.9919 0.00248 0.0
C234 C 0.49359 0.97455 0.01753 0.0
C235 C 0.4701 0.95815 0.01939 0.0
C236 C 0.46284 0.942 0.03376 0.0
C237 C 0.47898 0.94185 0.0465 0.0
C238 C 0.50255 0.95826 0.04445 0.0
C239 C 0.50974 0.97455 0.0302 0.0
H240 H 0.48395 0.46363 0.19821 0.0
H241 H 0.49518 0.44659 0.22354 0.0
H242 H 0.56736 0.49289 0.21116 0.0
H243 H 0.55601 0.51021 0.18626 0.0
H244 H 0.49502 0.50929 0.1948 0.0
H245 H 0.51202 0.45626 0.16077 0.0
H246 H 0.53812 0.4422 0.15194 0.0
H247 H 0.58613 0.50787 0.12852 0.0
H248 H 0.56062 0.52201 0.13813 0.0
H249 H 0.52856 0.55612 0.12463 0.0
H250 H 0.51664 0.57201 0.09871 0.0
H251 H 0.44487 0.52456 0.11111 0.0
H252 H 0.45681 0.50902 0.1372 0.0
H253 H 0.5181 0.51067 0.12808 0.0
H254 H 0.5161 0.56661 0.16484 0.0
H255 H 0.50228 0.59165 0.17621 0.0
H256 H 0.43849 0.53342 0.19464 0.0
H257 H 0.45258 0.5083 0.18334 0.0
C258 C 0.51915 0.48803 0.19028 0.0
C259 C 0.50218 0.47008 0.201 0.0
C260 C 0.50862 0.46025 0.21534 0.0
C261 C 0.53215 0.46837 0.21931 0.0
C262 C 0.54909 0.4864 0.20855 0.0
C263 C 0.54264 0.49619 0.19423 0.0
C264 C 0.51227 0.49848 0.17517 0.0
C265 C 0.49959 0.50909 0.18015 0.0
C266 C 0.5195 0.49949 0.15625 0.0
C267 C 0.5345 0.49027 0.1503 0.0
C268 C 0.52827 0.46764 0.15388 0.0
C269 C 0.54311 0.45958 0.14868 0.0
C270 C 0.56432 0.47397 0.13968 0.0
C271 C 0.57019 0.49646 0.13579 0.0
C272 C 0.55547 0.50451 0.14107 0.0
C273 C 0.49353 0.53144 0.13277 0.0
C274 C 0.51027 0.5493 0.12183 0.0
C275 C 0.50348 0.55839 0.10714 0.0
C276 C 0.47988 0.54939 0.10296 0.0
C277 C 0.46317 0.53165 0.11403 0.0
C278 C 0.46995 0.52287 0.12893 0.0
C279 C 0.50058 0.52101 0.14772 0.0
C280 C 0.51317 0.5104 0.1427 0.0
C281 C 0.49435 0.52095 0.16672 0.0
C282 C 0.48527 0.53564 0.17317 0.0
C283 C 0.4991 0.55923 0.17126 0.0
C284 C 0.49128 0.57349 0.17787 0.0
C285 C 0.4694 0.56442 0.18637 0.0
C286 C 0.45541 0.54077 0.18809 0.0
C287 C 0.46342 0.52647 0.1817 0.0
C288 C 0.68242 0.41526 0.4034 0.0
O289 O 0.68039 0.4317 0.4095 0.0
Cd290 Cd 0.6451 0.42766 0.42184 0.0
O291 O 0.66528 0.39508 0.40381 0.0
Cd292 Cd 0.62402 0.37425 0.4138 0.0
C293 C 0.61096 0.40414 0.38262 0.0
O294 O 0.63022 0.39579 0.44261 0.0
O295 O 0.59457 0.37181 0.43618 0.0
O296 O 0.63265 0.34482 0.42292 0.0
C297 C 0.60913 0.38649 0.44742 0.0
O298 O 0.62154 0.42088 0.39378 0.0
C299 C 0.61465 0.32856 0.41555 0.0
O300 O 0.60986 0.38526 0.38605 0.0
O301 O 0.60096 0.33356 0.40712 0.0
C302 C 0.28243 0.59924 0.57621 0.0
O303 O 0.26356 0.58225 0.57084 0.0
Cd304 Cd 0.23083 0.58455 0.55996 0.0
O305 O 0.28504 0.61908 0.57582 0.0
Cd306 Cd 0.262 0.63719 0.5668 0.0
C307 C 0.22046 0.60751 0.59926 0.0
O308 O 0.24431 0.61554 0.53821 0.0
O309 O 0.22984 0.63553 0.54879 0.0
O310 O 0.2957 0.66816 0.55174 0.0
C311 C 0.23056 0.62312 0.5358 0.0
O312 O 0.21399 0.59065 0.58825 0.0
C313 C 0.29626 0.68377 0.56186 0.0
O314 O 0.23832 0.62652 0.59548 0.0
O315 O 0.28096 0.67774 0.57467 0.0
C316 C 0.68657 0.27527 0.74681 0.0
O317 O 0.68438 0.25627 0.74221 0.0
Cd318 Cd 0.64962 0.22584 0.72844 0.0
O319 O 0.66974 0.27895 0.74491 0.0
Cd320 Cd 0.62883 0.25858 0.73469 0.0
C321 C 0.61323 0.21524 0.76569 0.0
O322 O 0.63572 0.24267 0.7062 0.0
O323 O 0.59999 0.23189 0.71238 0.0
O324 O 0.63705 0.29605 0.72471 0.0
C325 C 0.61464 0.23145 0.70126 0.0
O326 O 0.62271 0.20779 0.75438 0.0
C327 C 0.61891 0.29467 0.73181 0.0
O328 O 0.61456 0.23434 0.76293 0.0
O329 O 0.60533 0.27646 0.74049 0.0
C330 C 0.32747 0.60117 0.90423 0.0
O331 O 0.32928 0.5844 0.90978 0.0
Cd332 Cd 0.36456 0.5873 0.92099 0.0
O333 O 0.34492 0.62116 0.9046 0.0
Cd334 Cd 0.3864 0.64054 0.91373 0.0
C335 C 0.39849 0.61084 0.88173 0.0
O336 O 0.38172 0.61878 0.94222 0.0
O337 O 0.41698 0.64093 0.93321 0.0
O338 O 0.38294 0.67117 0.92785 0.0
C339 C 0.4032 0.62731 0.94547 0.0
O340 O 0.38782 0.59393 0.89273 0.0
C341 C 0.398 0.68676 0.91748 0.0
O342 O 0.3998 0.62974 0.88547 0.0
O343 O 0.40765 0.68087 0.90502 0.0
C344 C 0.73299 0.41835 0.0725 0.0
O345 O 0.7519 0.43471 0.06642 0.0
Cd346 Cd 0.78373 0.43036 0.05625 0.0
O347 O 0.72992 0.39835 0.07315 0.0
Cd348 Cd 0.75102 0.37804 0.0654 0.0
C349 C 0.79293 0.40902 0.09726 0.0
O350 O 0.76854 0.3978 0.03609 0.0
O351 O 0.78113 0.37634 0.04696 0.0
O352 O 0.71483 0.34828 0.05257 0.0
C353 C 0.78113 0.3889 0.03376 0.0
O354 O 0.79976 0.42519 0.08543 0.0
C355 C 0.71424 0.33227 0.06215 0.0
O356 O 0.77482 0.38998 0.09408 0.0
O357 O 0.73077 0.33754 0.07368 0.0
C358 C 0.3227 0.7343 0.2424 0.0
O359 O 0.32249 0.75138 0.23548 0.0
Cd360 Cd 0.35744 0.78495 0.2266 0.0
O361 O 0.34166 0.73412 0.24379 0.0
Cd362 Cd 0.38321 0.75811 0.23537 0.0
C363 C 0.38903 0.79677 0.26775 0.0
O364 O 0.37833 0.77368 0.20585 0.0
O365 O 0.413 0.79006 0.21728 0.0
O366 O 0.38014 0.72359 0.22302 0.0
C367 C 0.39965 0.78805 0.20376 0.0
O368 O 0.3777 0.80183 0.25617 0.0
C369 C 0.39745 0.72511 0.23177 0.0
O370 O 0.3929 0.78064 0.26422 0.0
O371 O 0.40839 0.74216 0.24253 0.0
H372 H 0.12025 0.56412 0.26793 0.0
H373 H 0.16014 0.59181 0.25921 0.0
H374 H 0.17592 0.61178 0.31752 0.0
H375 H 0.13595 0.58446 0.32619 0.0
H376 H 0.19037 0.6475 0.29695 0.0
H377 H 0.19822 0.5819 0.29421 0.0
H378 H 0.18837 0.54321 0.28499 0.0
H379 H 0.19886 0.56301 0.22674 0.0
H380 H 0.20847 0.60176 0.23559 0.0
H381 H 0.31705 0.6964 0.26061 0.0
H382 H 0.28096 0.66445 0.27236 0.0
H383 H 0.2428 0.69523 0.25044 0.0
H384 H 0.27876 0.7274 0.239 0.0
H385 H 0.24208 0.63332 0.25592 0.0
H386 H 0.19913 0.68535 0.27964 0.0
H387 H 0.21086 0.72357 0.29168 0.0
H388 H 0.27386 0.72966 0.31346 0.0
H389 H 0.26236 0.69138 0.30179 0.0
C390 C 0.13238 0.57414 0.2789 0.0
C391 C 0.12504 0.57226 0.2977 0.0
C392 C 0.15517 0.58993 0.27393 0.0
C393 C 0.17109 0.60383 0.28773 0.0
C394 C 0.16394 0.60134 0.30662 0.0
C395 C 0.14113 0.58574 0.31156 0.0
C396 C 0.19463 0.62209 0.28231 0.0
C397 C 0.20168 0.64433 0.28804 0.0
C398 C 0.20962 0.61798 0.27096 0.0
C399 C 0.20389 0.5947 0.26556 0.0
C400 C 0.19826 0.57796 0.27942 0.0
C401 C 0.19275 0.55603 0.27426 0.0
C402 C 0.19294 0.55064 0.25528 0.0
C403 C 0.1987 0.5672 0.24143 0.0
C404 C 0.20421 0.58917 0.24652 0.0
C405 C 0.30097 0.69638 0.25827 0.0
C406 C 0.30082 0.71456 0.24899 0.0
C407 C 0.28036 0.67806 0.26495 0.0
C408 C 0.25924 0.6776 0.26249 0.0
C409 C 0.25896 0.69543 0.25281 0.0
C410 C 0.27954 0.71379 0.24622 0.0
C411 C 0.23748 0.65866 0.27025 0.0
C412 C 0.23077 0.63637 0.26493 0.0
C413 C 0.22302 0.66262 0.28239 0.0
C414 C 0.22996 0.68557 0.28968 0.0
C415 C 0.21543 0.69481 0.28707 0.0
C416 C 0.22206 0.71649 0.29382 0.0
C417 C 0.24312 0.72906 0.30328 0.0
C418 C 0.25758 0.71994 0.30607 0.0
C419 C 0.25103 0.69826 0.29937 0.0
H420 H 0.24823 0.74585 0.30848 0.0
H421 H 0.18867 0.53365 0.25132 0.0
H422 H 0.59018 0.13343 0.46032 0.0
H423 H 0.60453 0.17254 0.44994 0.0
H424 H 0.53539 0.15507 0.43297 0.0
H425 H 0.52102 0.11592 0.44303 0.0
H426 H 0.56872 0.18303 0.40717 0.0
H427 H 0.55533 0.1797 0.47436 0.0
H428 H 0.56015 0.17125 0.50731 0.0
H429 H 0.63348 0.21706 0.50354 0.0
H430 H 0.62913 0.22553 0.47045 0.0
H431 H 0.57459 0.28985 0.4063 0.0
H432 H 0.56544 0.25074 0.41126 0.0
H433 H 0.63415 0.27465 0.43341 0.0
H434 H 0.64317 0.3138 0.42898 0.0
H435 H 0.60369 0.24356 0.45556 0.0
H436 H 0.61723 0.24924 0.38914 0.0
H437 H 0.61282 0.25762 0.35608 0.0
H438 H 0.54043 0.20778 0.35788 0.0
H439 H 0.54432 0.19931 0.39105 0.0
C440 C 0.57813 0.13787 0.45412 0.0
C441 C 0.55445 0.1217 0.45262 0.0
C442 C 0.58631 0.16021 0.4483 0.0
C443 C 0.57096 0.16671 0.44088 0.0
C444 C 0.5475 0.1504 0.4387 0.0
C445 C 0.53929 0.12811 0.4446 0.0
C446 C 0.57905 0.19071 0.43621 0.0
C447 C 0.57623 0.19629 0.41774 0.0
C448 C 0.58933 0.20801 0.44995 0.0
C449 C 0.59193 0.20305 0.46987 0.0
C450 C 0.5725 0.18783 0.48051 0.0
C451 C 0.57514 0.18306 0.49922 0.0
C452 C 0.59711 0.19356 0.5075 0.0
C453 C 0.61648 0.20891 0.4971 0.0
C454 C 0.61393 0.21371 0.47837 0.0
C455 C 0.58781 0.28677 0.41207 0.0
C456 C 0.60958 0.30489 0.41728 0.0
C457 C 0.58261 0.26439 0.41481 0.0
C458 C 0.5992 0.25972 0.42253 0.0
C459 C 0.62108 0.27783 0.42744 0.0
C460 C 0.62622 0.30019 0.42487 0.0
C461 C 0.59331 0.23602 0.42645 0.0
C462 C 0.59646 0.23044 0.44486 0.0
C463 C 0.58344 0.21877 0.41261 0.0
C464 C 0.58104 0.22378 0.39264 0.0
C465 C 0.60033 0.24018 0.38253 0.0
C466 C 0.59793 0.24493 0.36376 0.0
C467 C 0.57635 0.23327 0.35489 0.0
C468 C 0.55713 0.2168 0.36477 0.0
C469 C 0.55943 0.21201 0.38355 0.0
H470 H 0.57453 0.23697 0.34036 0.0
H471 H 0.59912 0.18985 0.52199 0.0
H472 H 0.46484 0.58938 0.62688 0.0
H473 H 0.43713 0.60089 0.61661 0.0
H474 H 0.38046 0.53566 0.63308 0.0
H475 H 0.40788 0.52427 0.64394 0.0
H476 H 0.37764 0.54877 0.59576 0.0
H477 H 0.39232 0.57958 0.6592 0.0
H478 H 0.41739 0.60346 0.68506 0.0
H479 H 0.44107 0.66275 0.6505 0.0
H480 H 0.41636 0.63919 0.62435 0.0
H481 H 0.2793 0.55977 0.58808 0.0
H482 H 0.31038 0.55386 0.59943 0.0
H483 H 0.35968 0.62479 0.59098 0.0
H484 H 0.32835 0.63102 0.58027 0.0
H485 H 0.36919 0.61154 0.62248 0.0
H486 H 0.35515 0.58322 0.5597 0.0
H487 H 0.33219 0.56096 0.53237 0.0
H488 H 0.31035 0.49923 0.56312 0.0
H489 H 0.33294 0.52114 0.59074 0.0
C490 C 0.4465 0.57763 0.62865 0.0
C491 C 0.43859 0.55581 0.63608 0.0
C492 C 0.43071 0.58421 0.6227 0.0
C493 C 0.4068 0.56907 0.62406 0.0
C494 C 0.39887 0.54751 0.63181 0.0
C495 C 0.41458 0.54099 0.6379 0.0
C496 C 0.38989 0.57516 0.61665 0.0
C497 C 0.37558 0.56233 0.6017 0.0
C498 C 0.38797 0.59345 0.62396 0.0
C499 C 0.40268 0.60759 0.63975 0.0
C500 C 0.40302 0.59769 0.65706 0.0
C501 C 0.41713 0.61117 0.67179 0.0
C502 C 0.43087 0.63459 0.6694 0.0
C503 C 0.43045 0.6446 0.65231 0.0
C504 C 0.41638 0.63119 0.63755 0.0
C505 C 0.29675 0.57413 0.5886 0.0
C506 C 0.3014 0.59583 0.58312 0.0
C507 C 0.31455 0.57071 0.59502 0.0
C508 C 0.33748 0.58878 0.59568 0.0
C509 C 0.34214 0.61057 0.59052 0.0
C510 C 0.32424 0.61409 0.58436 0.0
C511 C 0.35646 0.58478 0.60178 0.0
C512 C 0.37125 0.59804 0.61641 0.0
C513 C 0.35916 0.56711 0.59396 0.0
C514 C 0.3456 0.55384 0.57734 0.0
C515 C 0.34533 0.56491 0.56068 0.0
C516 C 0.3324 0.55235 0.54513 0.0
C517 C 0.31978 0.5287 0.54602 0.0
C518 C 0.32012 0.51755 0.56246 0.0
C519 C 0.333 0.53003 0.57806 0.0
H520 H 0.30977 0.51901 0.53397 0.0
H521 H 0.44182 0.64502 0.68078 0.0
H522 H 0.87932 0.45614 0.78328 0.0
H523 H 0.8396 0.42645 0.77622 0.0
H524 H 0.8498 0.37849 0.80846 0.0
H525 H 0.88913 0.40813 0.8162 0.0
H526 H 0.83319 0.36459 0.77098 0.0
H527 H 0.8168 0.39549 0.82624 0.0
H528 H 0.81781 0.42612 0.84546 0.0
H529 H 0.78092 0.43928 0.8023 0.0
H530 H 0.78006 0.40902 0.78262 0.0
H531 H 0.72033 0.27071 0.76464 0.0
H532 H 0.75744 0.30089 0.77655 0.0
H533 H 0.74077 0.351 0.7568 0.0
H534 H 0.70313 0.32082 0.74581 0.0
H535 H 0.76098 0.36424 0.78856 0.0
H536 H 0.77864 0.33681 0.73242 0.0
H537 H 0.77864 0.30835 0.71095 0.0
H538 H 0.81415 0.29124 0.75259 0.0
H539 H 0.81411 0.31942 0.77441 0.0
C540 C 0.87299 0.43941 0.7892 0.0
C541 C 0.88754 0.43448 0.80015 0.0
C542 C 0.85032 0.42246 0.78508 0.0
C543 C 0.84187 0.40032 0.79179 0.0
C544 C 0.8561 0.39546 0.80307 0.0
C545 C 0.87863 0.41241 0.80735 0.0
C546 C 0.81866 0.38187 0.78619 0.0
C547 C 0.81734 0.36429 0.77502 0.0
C548 C 0.79816 0.38201 0.79098 0.0
C549 C 0.79857 0.40013 0.80287 0.0
C550 C 0.80909 0.40505 0.82076 0.0
C551 C 0.8096 0.42231 0.83176 0.0
C552 C 0.79947 0.43465 0.8251 0.0
C553 C 0.78878 0.42973 0.80743 0.0
C554 C 0.78827 0.41252 0.79635 0.0
C555 C 0.7246 0.28817 0.76288 0.0
C556 C 0.70893 0.29343 0.75419 0.0
C557 C 0.74586 0.30543 0.76961 0.0
C558 C 0.75219 0.3283 0.76722 0.0
C559 C 0.73635 0.33353 0.7588 0.0
C560 C 0.71487 0.31626 0.75247 0.0
C561 C 0.77537 0.34677 0.77328 0.0
C562 C 0.77676 0.36442 0.7845 0.0
C563 C 0.79605 0.34697 0.76822 0.0
C564 C 0.79616 0.33006 0.75511 0.0
C565 C 0.78631 0.32687 0.73704 0.0
C566 C 0.78634 0.3108 0.7248 0.0
C567 C 0.79633 0.29795 0.73042 0.0
C568 C 0.80638 0.30118 0.74827 0.0
C569 C 0.80638 0.31721 0.76057 0.0
H570 H 0.79634 0.28552 0.72093 0.0
H571 H 0.79988 0.448 0.83364 0.0
H572 H 0.46469 0.90144 0.92826 0.0
H573 H 0.45204 0.86253 0.91827 0.0
H574 H 0.44151 0.84113 0.97651 0.0
H575 H 0.4552 0.88018 0.98645 0.0
H576 H 0.46239 0.82337 0.96025 0.0
H577 H 0.39569 0.82921 0.94408 0.0
H578 H 0.37413 0.84565 0.92892 0.0
H579 H 0.39529 0.8354 0.87438 0.0
H580 H 0.41724 0.81916 0.88923 0.0
H581 H 0.38885 0.70499 0.9481 0.0
H582 H 0.40104 0.74481 0.95371 0.0
H583 H 0.43347 0.76241 0.89899 0.0
H584 H 0.42175 0.7225 0.89337 0.0
H585 H 0.40271 0.78212 0.91124 0.0
H586 H 0.46866 0.77472 0.92948 0.0
H587 H 0.48744 0.75646 0.94623 0.0
H588 H 0.46394 0.76805 -0.00079 0.0
H589 H 0.4447 0.78606 0.98272 0.0
C590 C 0.45947 0.88832 0.93885 0.0
C591 C 0.46088 0.89367 0.95808 0.0
C592 C 0.45215 0.86609 0.93316 0.0
C593 C 0.44555 0.84877 0.94662 0.0
C594 C 0.44659 0.85416 0.96585 0.0
C595 C 0.45434 0.87642 0.97153 0.0
C596 C 0.43843 0.82519 0.94085 0.0
C597 C 0.44915 0.81436 0.94967 0.0
C598 C 0.4215 0.81345 0.92674 0.0
C599 C 0.40831 0.8232 0.91778 0.0
C600 C 0.39589 0.83063 0.92886 0.0
C601 C 0.38358 0.83988 0.92032 0.0
C602 C 0.3834 0.84163 0.9007 0.0
C603 C 0.39548 0.83407 0.88958 0.0
C604 C 0.40785 0.82482 0.89804 0.0
C605 C 0.39845 0.71728 0.93719 0.0
C606 C 0.40443 0.71067 0.92032 0.0
C607 C 0.40539 0.73999 0.94044 0.0
C608 C 0.41814 0.75643 0.92677 0.0
C609 C 0.42359 0.74987 0.90966 0.0
C610 C 0.41699 0.72715 0.90653 0.0
C611 C 0.42649 0.78055 0.93085 0.0
C612 C 0.41603 0.79137 0.92172 0.0
C613 C 0.44334 0.79219 0.94491 0.0
C614 C 0.45505 0.78153 0.95485 0.0
C615 C 0.46732 0.77318 0.94468 0.0
C616 C 0.47808 0.76292 0.95413 0.0
C617 C 0.47684 0.76104 0.97377 0.0
C618 C 0.46487 0.76949 0.984 0.0
C619 C 0.45405 0.77974 0.97461 0.0
H620 H 0.48518 0.75309 0.98106 0.0
H621 H 0.37385 0.8488 0.89412 0.0
H622 H 0.61151 0.4966 0.14261 0.0
H623 H 0.63821 0.48463 0.13109 0.0
H624 H 0.58049 0.4207 0.11339 0.0
H625 H 0.55349 0.43278 0.12446 0.0
H626 H 0.61726 0.41762 0.13204 0.0
H627 H 0.60602 0.45791 0.08111 0.0
H628 H 0.60451 0.49014 0.06681 0.0
H629 H 0.67615 0.53436 0.08059 0.0
H630 H 0.67799 0.50244 0.09523 0.0
H631 H 0.68682 0.38777 0.07636 0.0
H632 H 0.65642 0.395 0.08758 0.0
H633 H 0.7073 0.46555 0.09582 0.0
H634 H 0.73751 0.4586 0.08381 0.0
H635 H 0.67133 0.46315 0.08081 0.0
H636 H 0.68317 0.42507 0.13313 0.0
H637 H 0.68567 0.39418 0.14905 0.0
H638 H 0.61482 0.34746 0.13466 0.0
H639 H 0.61198 0.37803 0.11844 0.0
C640 C 0.60444 0.48002 0.13619 0.0
C641 C 0.58036 0.46577 0.1342 0.0
C642 C 0.61973 0.47317 0.12972 0.0
C643 C 0.61128 0.45192 0.12121 0.0
C644 C 0.58729 0.43719 0.11992 0.0
C645 C 0.57192 0.4441 0.1263 0.0
C646 C 0.62766 0.44563 0.11296 0.0
C647 C 0.62889 0.42731 0.12064 0.0
C648 C 0.64308 0.45865 0.0984 0.0
C649 C 0.64208 0.47781 0.0894 0.0
C650 C 0.6214 0.47454 0.08121 0.0
C651 C 0.6205 0.49275 0.07303 0.0
C652 C 0.64021 0.5143 0.07283 0.0
C653 C 0.66089 0.51766 0.08077 0.0
C654 C 0.66188 0.49951 0.08899 0.0
C655 C 0.69149 0.40482 0.08056 0.0
C656 C 0.71454 0.42262 0.07923 0.0
C657 C 0.67413 0.40891 0.08708 0.0
C658 C 0.6796 0.43076 0.09285 0.0
C659 C 0.70262 0.44855 0.09144 0.0
C660 C 0.71989 0.44456 0.08459 0.0
C661 C 0.66141 0.43531 0.1001 0.0
C662 C 0.65972 0.45332 0.09216 0.0
C663 C 0.6458 0.42216 0.1146 0.0
C664 C 0.64745 0.40378 0.1244 0.0
C665 C 0.66818 0.40817 0.13324 0.0
C666 C 0.66965 0.39073 0.14234 0.0
C667 C 0.65044 0.36885 0.14282 0.0
C668 C 0.62969 0.3644 0.13425 0.0
C669 C 0.62814 0.38178 0.12512 0.0
H670 H 0.65161 0.35537 0.14987 0.0
H671 H 0.63947 0.52837 0.06649 0.0
H672 H 0.46088 0.89212 0.53703 0.0
H673 H 0.43544 0.85285 0.5471 0.0
H674 H 0.3811 0.84875 0.51124 0.0
H675 H 0.40621 0.88821 0.50176 0.0
H676 H 0.36294 0.82928 0.54248 0.0
H677 H 0.41575 0.82491 0.49917 0.0
H678 H 0.45395 0.8344 0.48633 0.0
H679 H 0.46992 0.81117 0.5374 0.0
H680 H 0.43191 0.80181 0.55065 0.0
H681 H 0.32403 0.70155 0.53114 0.0
H682 H 0.35085 0.74136 0.52424 0.0
H683 H 0.33497 0.7602 0.57793 0.0
H684 H 0.30729 0.7203 0.58457 0.0
H685 H 0.38861 0.77248 0.53851 0.0
H686 H 0.33896 0.81155 0.57486 0.0
H687 H 0.29882 0.80099 0.58315 0.0
H688 H 0.27305 0.75274 0.53785 0.0
H689 H 0.31302 0.76321 0.52916 0.0
C690 C 0.44351 0.88274 0.53131 0.0
C691 C 0.43546 0.89309 0.51862 0.0
C692 C 0.42901 0.86033 0.53702 0.0
C693 C 0.40642 0.84771 0.52976 0.0
C694 C 0.3984 0.85812 0.5171 0.0
C695 C 0.41275 0.88063 0.51166 0.0
C696 C 0.39107 0.82364 0.53524 0.0
C697 C 0.36859 0.81688 0.54165 0.0
C698 C 0.39826 0.80734 0.53391 0.0
C699 C 0.42109 0.81288 0.52597 0.0
C700 C 0.42748 0.82198 0.50772 0.0
C701 C 0.44908 0.82731 0.50036 0.0
C702 C 0.46438 0.82345 0.51107 0.0
C703 C 0.45807 0.81419 0.52914 0.0
C704 C 0.43649 0.80885 0.53657 0.0
C705 C 0.32627 0.71416 0.54151 0.0
C706 C 0.31344 0.70783 0.55834 0.0
C707 C 0.34169 0.73693 0.53757 0.0
C708 C 0.34477 0.75385 0.55045 0.0
C709 C 0.33254 0.7475 0.56759 0.0
C710 C 0.31681 0.7247 0.57141 0.0
C711 C 0.36043 0.77809 0.54563 0.0
C712 C 0.38301 0.78491 0.53945 0.0
C713 C 0.35305 0.79428 0.54651 0.0
C714 C 0.32896 0.78798 0.55152 0.0
C715 C 0.32472 0.79873 0.56665 0.0
C716 C 0.302 0.79275 0.57142 0.0
C717 C 0.2834 0.77614 0.56108 0.0
C718 C 0.28747 0.76553 0.5459 0.0
C719 C 0.31015 0.77146 0.54106 0.0
H720 H 0.26583 0.77153 0.5648 0.0
H721 H 0.4811 0.82759 0.50534 0.0
H722 H 0.59616 0.4664 0.68588 0.0
H723 H 0.60953 0.44032 0.69556 0.0
H724 H 0.54054 0.39228 0.71452 0.0
H725 H 0.52717 0.41839 0.70518 0.0
H726 H 0.57414 0.39608 0.73932 0.0
H727 H 0.55833 0.38531 0.67262 0.0
H728 H 0.56214 0.39766 0.63949 0.0
H729 H 0.63521 0.42163 0.6413 0.0
H730 H 0.63188 0.40971 0.67456 0.0
H731 H 0.57889 0.2943 0.74107 0.0
H732 H 0.56956 0.32427 0.7356 0.0
H733 H 0.63774 0.36694 0.71226 0.0
H734 H 0.64694 0.33683 0.71723 0.0
H735 H 0.60646 0.36765 0.6904 0.0
H736 H 0.62225 0.37674 0.75662 0.0
H737 H 0.61863 0.36468 0.78982 0.0
H738 H 0.54637 0.34435 0.78923 0.0
H739 H 0.54948 0.35601 0.75594 0.0
C740 C 0.58394 0.45041 0.69235 0.0
C741 C 0.56059 0.44435 0.69465 0.0
C742 C 0.59155 0.43549 0.69776 0.0
C743 C 0.57595 0.41429 0.70557 0.0
C744 C 0.55283 0.40853 0.70847 0.0
C745 C 0.54519 0.42338 0.70299 0.0
C746 C 0.58344 0.3977 0.71007 0.0
C747 C 0.58104 0.38969 0.72862 0.0
C748 C 0.59289 0.38979 0.69616 0.0
C749 C 0.5949 0.39684 0.67614 0.0
C750 C 0.57524 0.39338 0.666 0.0
C751 C 0.57731 0.40028 0.64719 0.0
C752 C 0.59892 0.41049 0.63831 0.0
C753 C 0.61849 0.41376 0.64821 0.0
C754 C 0.61652 0.40693 0.66704 0.0
C755 C 0.59194 0.31013 0.73491 0.0
C756 C 0.61364 0.3132 0.72957 0.0
C757 C 0.58664 0.3273 0.73187 0.0
C758 C 0.60304 0.34798 0.7237 0.0
C759 C 0.62481 0.35115 0.71858 0.0
C760 C 0.63006 0.33393 0.72146 0.0
C761 C 0.59716 0.3659 0.71971 0.0
C762 C 0.59978 0.37414 0.70119 0.0
C763 C 0.58798 0.37405 0.73369 0.0
C764 C 0.58606 0.36707 0.75373 0.0
C765 C 0.60554 0.36954 0.76352 0.0
C766 C 0.60359 0.3628 0.78237 0.0
C767 C 0.58227 0.35371 0.79162 0.0
C768 C 0.56287 0.35138 0.78205 0.0
C769 C 0.56472 0.35807 0.7632 0.0
H770 H 0.5808 0.3485 0.80621 0.0
H771 H 0.60048 0.41581 0.62375 0.0
H772 H 0.12588 0.52457 0.83513 0.0
H773 H 0.16507 0.53646 0.84599 0.0
H774 H 0.17471 0.60185 0.86128 0.0
H775 H 0.1351 0.58986 0.85102 0.0
H776 H 0.21394 0.60206 0.84202 0.0
H777 H 0.16258 0.56807 0.89494 0.0
H778 H 0.12783 0.53809 0.91086 0.0
H779 H 0.15076 0.49036 0.90034 0.0
H780 H 0.18549 0.52 0.88408 0.0
H781 H 0.31415 0.63272 0.89819 0.0
H782 H 0.2768 0.62612 0.88638 0.0
H783 H 0.25299 0.55463 0.88158 0.0
H784 H 0.28991 0.56098 0.89396 0.0
H785 H 0.22065 0.55984 0.89641 0.0
H786 H 0.27043 0.59156 0.84259 0.0
H787 H 0.30467 0.61994 0.82504 0.0
H788 H 0.28485 0.67003 0.83537 0.0
H789 H 0.25064 0.64201 0.8532 0.0
C790 C 0.13626 0.54146 0.84086 0.0
C791 C 0.1272 0.55613 0.84248 0.0
C792 C 0.15869 0.54827 0.84692 0.0
C793 C 0.17259 0.56991 0.85459 0.0
C794 C 0.16416 0.58507 0.85538 0.0
C795 C 0.14157 0.57819 0.84946 0.0
C796 C 0.1954 0.57607 0.86272 0.0
C797 C 0.21551 0.59313 0.85409 0.0
C798 C 0.19727 0.56399 0.87818 0.0
C799 C 0.17653 0.54621 0.88815 0.0
C800 C 0.16012 0.55114 0.89589 0.0
C801 C 0.14044 0.53422 0.905 0.0
C802 C 0.13706 0.51232 0.90658 0.0
C803 C 0.15339 0.50732 0.89909 0.0
C804 C 0.17308 0.52418 0.88994 0.0
C805 C 0.30095 0.61559 0.8946 0.0
C806 C 0.30498 0.59736 0.89701 0.0
C807 C 0.27965 0.61187 0.88776 0.0
C808 C 0.26217 0.58991 0.88285 0.0
C809 C 0.26619 0.57171 0.88528 0.0
C810 C 0.28733 0.57537 0.89235 0.0
C811 C 0.23947 0.58567 0.87555 0.0
C812 C 0.21926 0.56895 0.88439 0.0
C813 C 0.23757 0.59788 0.86013 0.0
C814 C 0.25812 0.61476 0.84941 0.0
C815 C 0.27348 0.60868 0.84125 0.0
C816 C 0.29286 0.62469 0.83123 0.0
C817 C 0.29697 0.6468 0.82914 0.0
C818 C 0.28167 0.65291 0.83703 0.0
C819 C 0.26227 0.63697 0.84708 0.0
H820 H 0.31198 0.65917 0.82137 0.0
H821 H 0.12182 0.49924 0.91364 0.0
H822 H 0.57976 0.11701 0.04688 0.0
H823 H 0.60426 0.15642 0.05635 0.0
H824 H 0.58585 0.17844 0.00546 0.0
H825 H 0.56222 0.13903 0.99541 0.0
H826 H 0.63064 0.20161 0.01046 0.0
H827 H 0.56492 0.18193 0.04965 0.0
H828 H 0.53438 0.15929 0.0728 0.0
H829 H 0.5861 0.17188 0.11457 0.0
H830 H 0.61698 0.19435 0.09159 0.0
H831 H 0.67974 0.31653 0.03599 0.0
H832 H 0.65065 0.2772 0.02951 0.0
H833 H 0.67737 0.25497 0.07506 0.0
H834 H 0.70674 0.29445 0.08166 0.0
H835 H 0.62786 0.23236 0.0732 0.0
H836 H 0.69332 0.25115 0.03304 0.0
H837 H 0.72338 0.27426 0.00969 0.0
H838 H 0.67078 0.26356 0.96938 0.0
H839 H 0.64038 0.24065 0.99261 0.0
C840 C 0.58096 0.13022 0.03765 0.0
C841 C 0.56913 0.12485 0.02031 0.0
C842 C 0.59475 0.15276 0.04322 0.0
C843 C 0.59671 0.17041 0.03172 0.0
C844 C 0.58453 0.1651 0.01459 0.0
C845 C 0.57086 0.14254 0.00894 0.0
C846 C 0.61257 0.19439 0.03701 0.0
C847 C 0.62973 0.2084 0.02406 0.0
C848 C 0.61181 0.20313 0.05496 0.0
C849 C 0.59327 0.18965 0.06883 0.0
C850 C 0.56979 0.17972 0.06373 0.0
C851 C 0.55241 0.16695 0.07683 0.0
C852 C 0.55829 0.1641 0.09513 0.0
C853 C 0.58157 0.17408 0.10038 0.0
C854 C 0.59902 0.18686 0.08733 0.0
C855 C 0.67936 0.30332 0.04476 0.0
C856 C 0.69565 0.30857 0.05926 0.0
C857 C 0.66273 0.28086 0.041 0.0
C858 C 0.66204 0.26323 0.0517 0.0
C859 C 0.67768 0.2684 0.06666 0.0
C860 C 0.69447 0.29091 0.07035 0.0
C861 C 0.64568 0.23939 0.0466 0.0
C862 C 0.62857 0.22548 0.05959 0.0
C863 C 0.64634 0.23072 0.02865 0.0
C864 C 0.66459 0.24439 0.01463 0.0
C865 C 0.68817 0.25389 0.01925 0.0
C866 C 0.70527 0.26692 0.00603 0.0
C867 C 0.699 0.27043 0.98808 0.0
C868 C 0.67561 0.26086 0.9833 0.0
C869 C 0.65844 0.24784 0.99648 0.0
H870 H 0.71226 0.28052 0.97786 0.0
H871 H 0.54481 0.15421 0.10526 0.0
H872 H 0.4282 0.56232 0.17899 0.0
H873 H 0.41623 0.58956 0.18855 0.0
H874 H 0.48049 0.62829 0.21881 0.0
H875 H 0.4926 0.60121 0.20916 0.0
H876 H 0.44083 0.6225 0.23871 0.0
H877 H 0.47719 0.64587 0.17851 0.0
H878 H 0.48412 0.64207 0.14495 0.0
H879 H 0.41547 0.62825 0.13136 0.0
H880 H 0.40781 0.63112 0.16493 0.0
H881 H 0.43505 0.72462 0.247 0.0
H882 H 0.44745 0.69681 0.24117 0.0
H883 H 0.38838 0.65915 0.20485 0.0
H884 H 0.37611 0.6869 0.21037 0.0
H885 H 0.42726 0.66537 0.18859 0.0
H886 H 0.39042 0.64041 0.24918 0.0
H887 H 0.38391 0.64472 0.28276 0.0
H888 H 0.45412 0.6629 0.29545 0.0
H889 H 0.46115 0.65898 0.26187 0.0
C890 C 0.4396 0.5765 0.18787 0.0
C891 C 0.46134 0.57978 0.19328 0.0
C892 C 0.43282 0.59206 0.19324 0.0
C893 C 0.44757 0.61097 0.20427 0.0
C894 C 0.4689 0.6138 0.21029 0.0
C895 C 0.47583 0.59844 0.2047 0.0
C896 C 0.44115 0.6283 0.20884 0.0
C897 C 0.43809 0.63208 0.22779 0.0
C898 C 0.43739 0.64056 0.19453 0.0
C899 C 0.4418 0.63837 0.17432 0.0
C900 C 0.46342 0.64162 0.16843 0.0
C901 C 0.46749 0.63965 0.14938 0.0
C902 C 0.45019 0.63474 0.13603 0.0
C903 C 0.42879 0.63183 0.14171 0.0
C904 C 0.42456 0.63359 0.16076 0.0
C905 C 0.42466 0.71034 0.23786 0.0
C906 C 0.40463 0.70797 0.22912 0.0
C907 C 0.43171 0.69442 0.2346 0.0
C908 C 0.41875 0.67584 0.22265 0.0
C909 C 0.39866 0.67338 0.21408 0.0
C910 C 0.39164 0.68925 0.2173 0.0
C911 C 0.42643 0.6593 0.21846 0.0
C912 C 0.4299 0.65576 0.19953 0.0
C913 C 0.43058 0.64731 0.23279 0.0
C914 C 0.42638 0.64964 0.25298 0.0
C915 C 0.40453 0.64551 0.2591 0.0
C916 C 0.40073 0.64785 0.27814 0.0
C917 C 0.4186 0.65414 0.29122 0.0
C918 C 0.4403 0.65806 0.2853 0.0
C919 C 0.44419 0.65577 0.26626 0.0
H920 H 0.41563 0.65594 0.30596 0.0
H921 H 0.45344 0.63333 0.12129 0.0
H922 H 0.88567 0.49512 0.33458 0.0
H923 H 0.84624 0.48338 0.34475 0.0
H924 H 0.83587 0.41776 0.36031 0.0
H925 H 0.87559 0.42953 0.35053 0.0
H926 H 0.79734 0.41651 0.34136 0.0
H927 H 0.84832 0.45403 0.39378 0.0
H928 H 0.88254 0.48531 0.40921 0.0
H929 H 0.85762 0.53095 0.39621 0.0
H930 H 0.82341 0.5 0.38043 0.0
H931 H 0.69718 0.38477 0.39774 0.0
H932 H 0.73473 0.39241 0.38557 0.0
H933 H 0.75555 0.46304 0.37879 0.0
H934 H 0.71846 0.45568 0.39163 0.0
H935 H 0.78906 0.46017 0.39376 0.0
H936 H 0.73905 0.42434 0.34072 0.0
H937 H 0.70518 0.39422 0.324 0.0
H938 H 0.728 0.34683 0.33655 0.0
H939 H 0.76187 0.37662 0.35356 0.0
C940 C 0.87505 0.4782 0.34021 0.0
C941 C 0.88388 0.46337 0.34201 0.0
C942 C 0.8525 0.47149 0.3459 0.0
C943 C 0.83832 0.44982 0.35348 0.0
C944 C 0.84661 0.43456 0.35449 0.0
C945 C 0.86926 0.4413 0.34886 0.0
C946 C 0.81531 0.44366 0.36123 0.0
C947 C 0.79545 0.4258 0.35298 0.0
C948 C 0.81297 0.45617 0.37611 0.0
C949 C 0.83341 0.47474 0.38578 0.0
C950 C 0.85022 0.47077 0.39409 0.0
C951 C 0.86961 0.48844 0.40292 0.0
C952 C 0.87228 0.51011 0.40366 0.0
C953 C 0.85554 0.51415 0.39561 0.0
C954 C 0.83614 0.49655 0.38674 0.0
C955 C 0.70975 0.40192 0.3936 0.0
C956 C 0.70488 0.41964 0.39566 0.0
C957 C 0.73117 0.40624 0.38654 0.0
C958 C 0.74789 0.42826 0.38101 0.0
C959 C 0.74296 0.44592 0.38299 0.0
C960 C 0.72173 0.44169 0.39031 0.0
C961 C 0.77082 0.43316 0.37371 0.0
C962 C 0.79079 0.45078 0.38213 0.0
C963 C 0.77318 0.42057 0.35884 0.0
C964 C 0.75286 0.40265 0.34858 0.0
C965 C 0.73675 0.40745 0.34004 0.0
C966 C 0.71757 0.39045 0.33049 0.0
C967 C 0.71441 0.36861 0.32926 0.0
C968 C 0.73046 0.36375 0.33754 0.0
C969 C 0.74966 0.38069 0.34712 0.0
H970 H 0.69954 0.35546 0.32186 0.0
H971 H 0.8873 0.52377 0.41049 0.0
H972 H 0.06334 0.55473 0.41667 0.0
H973 H 0.09172 0.57039 0.44216 0.0
H974 H 0.14156 0.56425 0.4077 0.0
H975 H 0.11376 0.54959 0.38175 0.0
H976 H 0.13508 0.54565 0.44541 0.0
H977 H 0.14984 0.61393 0.413 0.0
H978 H 0.13884 0.64039 0.39911 0.0
H979 H 0.11444 0.64825 0.45304 0.0
H980 H 0.12498 0.62155 0.4672 0.0
H981 H 0.23362 0.60388 0.50307 0.0
H982 H 0.20682 0.59135 0.47642 0.0
H983 H 0.16435 0.61311 0.50541 0.0
H984 H 0.19168 0.62656 0.53177 0.0
H985 H 0.16659 0.6237 0.47023 0.0
H986 H 0.15002 0.55603 0.50313 0.0
H987 H 0.15855 0.52839 0.51819 0.0
H988 H 0.18289 0.51751 0.46534 0.0
H989 H 0.17478 0.54533 0.45001 0.0
C990 C 0.08044 0.55705 0.41433 0.0
C991 C 0.0862 0.55086 0.39709 0.0
C992 C 0.09658 0.56587 0.42898 0.0
C993 C 0.11868 0.56847 0.42674 0.0
C994 C 0.12451 0.56225 0.40967 0.0
C995 C 0.10852 0.55372 0.39492 0.0
C996 C 0.13559 0.57731 0.44237 0.0
C997 C 0.14226 0.5628 0.45071 0.0
C998 C 0.14424 0.59942 0.44959 0.0
C999 C 0.13798 0.61555 0.44111 0.0
C1000 C 0.14193 0.62113 0.42186 0.0
C1001 C 0.13582 0.63621 0.41395 0.0
C1002 C 0.12589 0.64595 0.42517 0.0
C1003 C 0.1221 0.64067 0.44435 0.0
C1004 C 0.12816 0.62558 0.45233 0.0
C1005 C 0.2186 0.60604 0.50373 0.0
C1006 C 0.21464 0.61605 0.51953 0.0
C1007 C 0.20322 0.59877 0.48853 0.0
C1008 C 0.18329 0.60085 0.48906 0.0
C1009 C 0.17956 0.61126 0.5047 0.0
C1010 C 0.19516 0.61889 0.51977 0.0
C1011 C 0.16628 0.59206 0.47335 0.0
C1012 C 0.1595 0.60653 0.46499 0.0
C1013 C 0.15717 0.56973 0.46631 0.0
C1014 C 0.162 0.55293 0.47547 0.0
C1015 C 0.15735 0.54787 0.49475 0.0
C1016 C 0.16208 0.53215 0.50333 0.0
C1017 C 0.17131 0.52125 0.49274 0.0
C1018 C 0.17577 0.52599 0.47353 0.0
C1019 C 0.17109 0.54172 0.46489 0.0
H1020 H 0.17497 0.50908 0.49941 0.0
H1021 H 0.12118 0.65763 0.41902 0.0
H1022 H 0.57873 0.09604 0.56278 0.0
H1023 H 0.59242 0.12366 0.58831 0.0
H1024 H 0.5287 0.12555 0.58615 0.0
H1025 H 0.51538 0.09883 0.55983 0.0
H1026 H 0.56384 0.16677 0.59107 0.0
H1027 H 0.53835 0.09478 0.62014 0.0
H1028 H 0.53613 0.05795 0.62525 0.0
H1029 H 0.60877 0.09192 0.63828 0.0
H1030 H 0.61149 0.12898 0.63299 0.0
H1031 H 0.57231 0.21159 0.68407 0.0
H1032 H 0.56002 0.18708 0.6562 0.0
H1033 H 0.62798 0.19435 0.65214 0.0
H1034 H 0.64051 0.21909 0.67985 0.0
H1035 H 0.59071 0.14888 0.65048 0.0
H1036 H 0.61489 0.22137 0.62178 0.0
H1037 H 0.61537 0.25752 0.6175 0.0
H1038 H 0.54257 0.22134 0.60501 0.0
H1039 H 0.54158 0.18495 0.60948 0.0
C1040 C 0.56774 0.10258 0.56748 0.0
C1041 C 0.54588 0.0951 0.55926 0.0
C1042 C 0.57549 0.11818 0.58227 0.0
C1043 C 0.56141 0.12637 0.58939 0.0
C1044 C 0.53981 0.11935 0.58096 0.0
C1045 C 0.53212 0.10389 0.56604 0.0
C1046 C 0.56912 0.14202 0.60577 0.0
C1047 C 0.56943 0.16271 0.60414 0.0
C1048 C 0.57674 0.1369 0.62276 0.0
C1049 C 0.57517 0.11465 0.62598 0.0
C1050 C 0.55389 0.09439 0.62395 0.0
C1051 C 0.55254 0.07348 0.6269 0.0
C1052 C 0.57231 0.07259 0.63204 0.0
C1053 C 0.59347 0.09263 0.63428 0.0
C1054 C 0.59493 0.1136 0.63132 0.0
C1055 C 0.58467 0.20806 0.67718 0.0
C1056 C 0.60737 0.21724 0.68412 0.0
C1057 C 0.57764 0.19413 0.66125 0.0
C1058 C 0.59314 0.18901 0.65211 0.0
C1059 C 0.6158 0.19815 0.65901 0.0
C1060 C 0.62293 0.21232 0.67478 0.0
C1061 C 0.58549 0.17356 0.63569 0.0
C1062 C 0.58515 0.15289 0.63737 0.0
C1063 C 0.57756 0.17857 0.61888 0.0
C1064 C 0.57812 0.20044 0.61616 0.0
C1065 C 0.59894 0.22112 0.61829 0.0
C1066 C 0.59931 0.24165 0.6158 0.0
C1067 C 0.579 0.24173 0.61104 0.0
C1068 C 0.55828 0.22126 0.60872 0.0
C1069 C 0.55781 0.20067 0.61122 0.0
H1070 H 0.57933 0.25764 0.60911 0.0
H1071 H 0.57123 0.05638 0.63432 0.0
H1072 H 0.44776 0.55513 0.72485 0.0
H1073 H 0.43577 0.56892 0.75178 0.0
H1074 H 0.503 0.59365 0.77725 0.0
H1075 H 0.51447 0.57823 0.75115 0.0
H1076 H 0.4729 0.57364 0.80239 0.0
H1077 H 0.48427 0.6298 0.75705 0.0
H1078 H 0.48014 0.64462 0.72645 0.0
H1079 H 0.40667 0.61321 0.73493 0.0
H1080 H 0.41031 0.59795 0.76548 0.0
H1081 H 0.42817 0.64402 0.85731 0.0
H1082 H 0.44706 0.63929 0.82941 0.0
H1083 H 0.41172 0.5671 0.83895 0.0
H1084 H 0.39332 0.57167 0.86692 0.0
H1085 H 0.43162 0.61708 0.79695 0.0
H1086 H 0.44556 0.54582 0.8283 0.0
H1087 H 0.45297 0.5342 0.85926 0.0
H1088 H 0.483 0.60264 0.87927 0.0
H1089 H 0.47609 0.61474 0.84835 0.0
C1090 C 0.45997 0.5633 0.73624 0.0
C1091 C 0.48208 0.5654 0.73578 0.0
C1092 C 0.45321 0.57157 0.75152 0.0
C1093 C 0.46858 0.58266 0.76647 0.0
C1094 C 0.49083 0.58523 0.76587 0.0
C1095 C 0.49746 0.5766 0.75077 0.0
C1096 C 0.46098 0.59027 0.78328 0.0
C1097 C 0.46403 0.58328 0.80115 0.0
C1098 C 0.4498 0.60327 0.7818 0.0
C1099 C 0.44756 0.61261 0.76352 0.0
C1100 C 0.46722 0.62594 0.75235 0.0
C1101 C 0.46496 0.63444 0.73502 0.0
C1102 C 0.44315 0.62983 0.72875 0.0
C1103 C 0.42355 0.61676 0.73982 0.0
C1104 C 0.42571 0.60822 0.75716 0.0
C1105 C 0.42444 0.62715 0.85345 0.0
C1106 C 0.40942 0.60825 0.86446 0.0
C1107 C 0.4352 0.62448 0.83749 0.0
C1108 C 0.43109 0.60289 0.83229 0.0
C1109 C 0.41556 0.58398 0.84294 0.0
C1110 C 0.40499 0.58663 0.85892 0.0
C1111 C 0.44306 0.59992 0.81585 0.0
C1112 C 0.44077 0.60771 0.79811 0.0
C1113 C 0.45553 0.58821 0.81747 0.0
C1114 C 0.46013 0.58114 0.83603 0.0
C1115 C 0.45386 0.55842 0.83927 0.0
C1116 C 0.45795 0.55174 0.85682 0.0
C1117 C 0.46839 0.56766 0.87124 0.0
C1118 C 0.47484 0.59031 0.86811 0.0
C1119 C 0.47082 0.59708 0.85058 0.0
H1120 H 0.4715 0.56245 0.88483 0.0
H1121 H 0.44144 0.63642 0.71534 0.0
H1122 H 0.91341 0.42538 0.88762 0.0
H1123 H 0.88581 0.40884 0.91374 0.0
H1124 H 0.90603 0.4759 0.93404 0.0
H1125 H 0.93389 0.49249 0.90826 0.0
H1126 H 0.90251 0.44752 0.96256 0.0
H1127 H 0.85741 0.44675 0.90875 0.0
H1128 H 0.84274 0.43676 0.87622 0.0
H1129 H 0.81174 0.36601 0.88958 0.0
H1130 H 0.82656 0.3756 0.92214 0.0
H1131 H 0.78273 0.41321 0.00267 0.0
H1132 H 0.80949 0.42405 0.97603 0.0
H1133 H 0.84083 0.38794 0.00068 0.0
H1134 H 0.81412 0.37701 0.02742 0.0
H1135 H 0.81841 0.39912 0.94962 0.0
H1136 H 0.89978 0.42128 0.99315 0.0
H1137 H 0.91463 0.43276 0.02553 0.0
H1138 H 0.87272 0.46386 0.03235 0.0
H1139 H 0.85789 0.45284 -5e-05 0.0
C1140 C 0.9121 0.43656 0.89778 0.0
C1141 C 0.92569 0.46022 0.89586 0.0
C1142 C 0.89626 0.42711 0.91259 0.0
C1143 C 0.89379 0.44117 0.92571 0.0
C1144 C 0.90767 0.46477 0.92404 0.0
C1145 C 0.92342 0.47421 0.90923 0.0
C1146 C 0.87645 0.43149 0.94104 0.0
C1147 C 0.88414 0.43681 0.95974 0.0
C1148 C 0.85249 0.41765 0.93731 0.0
C1149 C 0.8433 0.4119 0.91782 0.0
C1150 C 0.8476 0.42906 0.90472 0.0
C1151 C 0.83924 0.42347 0.88627 0.0
C1152 C 0.82636 0.40076 0.88081 0.0
C1153 C 0.82175 0.3836 0.89382 0.0
C1154 C 0.83011 0.3891 0.91227 0.0
C1155 C 0.79522 0.40745 0.00237 0.0
C1156 C 0.79646 0.39441 0.0172 0.0
C1157 C 0.8104 0.41355 0.9871 0.0
C1158 C 0.82719 0.4069 0.98648 0.0
C1159 C 0.82807 0.39337 0.001 0.0
C1160 C 0.81281 0.38714 0.01624 0.0
C1161 C 0.84451 0.41517 0.97111 0.0
C1162 C 0.83682 0.40958 0.95243 0.0
C1163 C 0.86847 0.42895 0.97482 0.0
C1164 C 0.87754 0.436 0.99421 0.0
C1165 C 0.89381 0.43064 0.00155 0.0
C1166 C 0.90221 0.43705 0.0199 0.0
C1167 C 0.89456 0.44896 0.03101 0.0
C1168 C 0.87857 0.45456 0.02376 0.0
C1169 C 0.87013 0.44821 0.00541 0.0
H1170 H 0.90107 0.45388 0.04523 0.0
H1171 H 0.81993 0.39645 0.86653 0.0
H1172 H 0.49542 0.94826 0.08274 0.0
H1173 H 0.48243 0.92057 0.1083 0.0
H1174 H 0.43134 0.86979 0.07154 0.0
H1175 H 0.44479 0.89709 0.0456 0.0
H1176 H 0.41412 0.8738 0.10736 0.0
H1177 H 0.47625 0.86562 0.08127 0.0
H1178 H 0.51621 0.87941 0.07026 0.0
H1179 H 0.54231 0.90563 0.12545 0.0
H1180 H 0.50251 0.89228 0.13672 0.0
H1181 H 0.37831 0.78135 0.16968 0.0
H1182 H 0.39214 0.80608 0.14207 0.0
H1183 H 0.45353 0.8533 0.17269 0.0
H1184 H 0.44026 0.82804 0.20002 0.0
H1185 H 0.46534 0.85041 0.13888 0.0
H1186 H 0.40546 0.86141 0.16524 0.0
H1187 H 0.36639 0.85002 0.17722 0.0
H1188 H 0.33708 0.82167 0.12324 0.0
H1189 H 0.37596 0.83264 0.111 0.0
C1190 C 0.4817 0.93111 0.07993 0.0
C1191 C 0.47121 0.92494 0.06204 0.0
C1192 C 0.47422 0.91536 0.09461 0.0
C1193 C 0.45602 0.89316 0.09174 0.0
C1194 C 0.44539 0.88689 0.074 0.0
C1195 C 0.45303 0.90257 0.05924 0.0
C1196 C 0.44777 0.87665 0.10743 0.0
C1197 C 0.42515 0.86837 0.11411 0.0
C1198 C 0.46248 0.87022 0.11651 0.0
C1199 C 0.48641 0.87813 0.10979 0.0
C1200 C 0.49052 0.87449 0.09101 0.0
C1201 C 0.51314 0.8822 0.08474 0.0
C1202 C 0.53179 0.89344 0.09713 0.0
C1203 C 0.52785 0.89694 0.11585 0.0
C1204 C 0.50526 0.88929 0.1222 0.0
C1205 C 0.39478 0.79699 0.17049 0.0
C1206 C 0.40816 0.80285 0.18702 0.0
C1207 C 0.40262 0.81118 0.15474 0.0
C1208 C 0.42368 0.83182 0.15539 0.0
C1209 C 0.43721 0.83751 0.17183 0.0
C1210 C 0.42959 0.8231 0.18746 0.0
C1211 C 0.4316 0.84751 0.139 0.0
C1212 C 0.45419 0.85571 0.13216 0.0
C1213 C 0.41698 0.85419 0.12996 0.0
C1214 C 0.39359 0.84764 0.13726 0.0
C1215 C 0.39066 0.85261 0.15596 0.0
C1216 C 0.36856 0.84625 0.1628 0.0
C1217 C 0.34926 0.83507 0.15102 0.0
C1218 C 0.35204 0.83029 0.13236 0.0
C1219 C 0.3741 0.83659 0.12546 0.0
H1220 H 0.33216 0.83016 0.15633 0.0
H1221 H 0.54929 0.89939 0.09224 0.0
H1222 H 0.56588 0.49099 0.24557 0.0
H1223 H 0.57756 0.47504 0.27122 0.0
H1224 H 0.52569 0.40757 0.25439 0.0
H1225 H 0.51386 0.42351 0.22854 0.0
H1226 H 0.52589 0.41246 0.29205 0.0
H1227 H 0.58198 0.42597 0.24519 0.0
H1228 H 0.61111 0.44729 0.22069 0.0
H1229 H 0.65433 0.49674 0.26177 0.0
H1230 H 0.6253 0.47591 0.28648 0.0
H1231 H 0.58037 0.37153 0.35818 0.0
H1232 H 0.56494 0.3776 0.32865 0.0
H1233 H 0.60385 0.44982 0.33777 0.0
H1234 H 0.61906 0.44401 0.36717 0.0
H1235 H 0.60872 0.43583 0.30111 0.0
H1236 H 0.5489 0.42356 0.34668 0.0
H1237 H 0.51936 0.40136 0.37068 0.0
H1238 H 0.4831 0.34749 0.33082 0.0
H1239 H 0.51263 0.36928 0.30665 0.0
C1240 C 0.55712 0.47274 0.24717 0.0
C1241 C 0.53908 0.4585 0.23493 0.0
C1242 C 0.5638 0.46364 0.26185 0.0
C1243 C 0.55275 0.44009 0.26453 0.0
C1244 C 0.53449 0.42579 0.25253 0.0
C1245 C 0.52773 0.43491 0.23782 0.0
C1246 C 0.56021 0.43069 0.28012 0.0
C1247 C 0.54392 0.41716 0.29382 0.0
C1248 C 0.58374 0.43686 0.28246 0.0
C1249 C 0.60137 0.44943 0.26768 0.0
C1250 C 0.59762 0.44148 0.24898 0.0
C1251 C 0.61413 0.45346 0.23506 0.0
C1252 C 0.63454 0.47337 0.23966 0.0
C1253 C 0.63851 0.48131 0.25822 0.0
C1254 C 0.62204 0.4694 0.2722 0.0
C1255 C 0.58556 0.38868 0.3539 0.0
C1256 C 0.60091 0.40728 0.36504 0.0
C1257 C 0.57672 0.3921 0.33707 0.0
C1258 C 0.58332 0.41416 0.33108 0.0
C1259 C 0.59863 0.43268 0.34215 0.0
C1260 C 0.6072 0.42929 0.35901 0.0
C1261 C 0.57456 0.41831 0.31325 0.0
C1262 C 0.59064 0.4308 0.29911 0.0
C1263 C 0.55084 0.41097 0.31043 0.0
C1264 C 0.53312 0.3979 0.32495 0.0
C1265 C 0.53475 0.40688 0.3431 0.0
C1266 C 0.51799 0.3944 0.35672 0.0
C1267 C 0.49941 0.37299 0.3523 0.0
C1268 C 0.49753 0.36405 0.33424 0.0
C1269 C 0.51426 0.37646 0.32057 0.0
H1270 H 0.48644 0.36335 0.36286 0.0
H1271 H 0.6473 0.48263 0.22886 0.0
H1272 H 0.49834 0.94336 0.39801 0.0
H1273 H 0.48435 0.91732 0.37138 0.0
H1274 H 0.42227 0.87254 0.40231 0.0
H1275 H 0.43683 0.89779 0.42953 0.0
H1276 H 0.43509 0.84832 0.38275 0.0
H1277 H 0.4236 0.91089 0.36932 0.0
H1278 H 0.43493 0.95113 0.36563 0.0
H1279 H 0.48302 0.95872 0.32205 0.0
H1280 H 0.47219 0.91859 0.32565 0.0
H1281 H 0.37641 0.82563 0.28325 0.0
H1282 H 0.39099 0.8478 0.31208 0.0
H1283 H 0.43657 0.82069 0.32077 0.0
H1284 H 0.42144 0.79781 0.29219 0.0
H1285 H 0.43115 0.8804 0.32097 0.0
H1286 H 0.447 0.81952 0.36761 0.0
H1287 H 0.43082 0.77843 0.37229 0.0
H1288 H 0.36506 0.76568 0.35097 0.0
H1289 H 0.38076 0.80669 0.34639 0.0
C1290 C 0.48195 0.92775 0.39938 0.0
C1291 C 0.46864 0.92282 0.41594 0.0
C1292 C 0.47383 0.91298 0.384 0.0
C1293 C 0.45203 0.8932 0.38468 0.0
C1294 C 0.43908 0.88779 0.4014 0.0
C1295 C 0.44732 0.9024 0.41688 0.0
C1296 C 0.44232 0.87866 0.36772 0.0
C1297 C 0.43428 0.85533 0.36922 0.0
C1298 C 0.44077 0.88769 0.35015 0.0
C1299 C 0.44725 0.9118 0.34788 0.0
C1300 C 0.43671 0.92119 0.35904 0.0
C1301 C 0.44302 0.94397 0.35695 0.0
C1302 C 0.45973 0.95749 0.34365 0.0
C1303 C 0.47011 0.94824 0.33237 0.0
C1304 C 0.46388 0.92547 0.33442 0.0
C1305 C 0.38946 0.82428 0.29133 0.0
C1306 C 0.39775 0.80993 0.28543 0.0
C1307 C 0.39783 0.83702 0.30781 0.0
C1308 C 0.41478 0.83584 0.3187 0.0
C1309 C 0.42319 0.82159 0.31281 0.0
C1310 C 0.41459 0.80859 0.29642 0.0
C1311 C 0.42399 0.85003 0.33592 0.0
C1312 C 0.43202 0.87335 0.33446 0.0
C1313 C 0.42483 0.84084 0.35363 0.0
C1314 C 0.41515 0.81616 0.35647 0.0
C1315 C 0.42907 0.80795 0.36398 0.0
C1316 C 0.41999 0.78467 0.3666 0.0
C1317 C 0.39695 0.76945 0.36187 0.0
C1318 C 0.38292 0.77748 0.35456 0.0
C1319 C 0.39192 0.80073 0.35192 0.0
H1320 H 0.38995 0.75145 0.3639 0.0
H1321 H 0.4646 0.97512 0.34206 0.0
H1322 H 0.57963 0.49209 0.58393 0.0
H1323 H 0.59067 0.47611 0.55792 0.0
H1324 H 0.52621 0.41303 0.56347 0.0
H1325 H 0.51553 0.42851 0.59024 0.0
H1326 H 0.56032 0.40485 0.55732 0.0
H1327 H 0.53424 0.45131 0.52847 0.0
H1328 H 0.5321 0.48592 0.52282 0.0
H1329 H 0.6038 0.52164 0.50664 0.0
H1330 H 0.60646 0.48731 0.51246 0.0
H1331 H 0.56668 0.36535 0.4645 0.0
H1332 H 0.55441 0.37846 0.49203 0.0
H1333 H 0.62249 0.43758 0.49567 0.0
H1334 H 0.63499 0.42447 0.46838 0.0
H1335 H 0.58486 0.44653 0.49662 0.0
H1336 H 0.60977 0.39849 0.52625 0.0
H1337 H 0.61003 0.36279 0.53114 0.0
H1338 H 0.5375 0.32859 0.54459 0.0
H1339 H 0.53674 0.36405 0.53951 0.0
C1340 C 0.56792 0.47469 0.57985 0.0
C1341 C 0.54664 0.46161 0.58917 0.0
C1342 C 0.57414 0.46567 0.56479 0.0
C1343 C 0.55908 0.44351 0.55851 0.0
C1344 C 0.53804 0.43023 0.568 0.0
C1345 C 0.53186 0.43918 0.58318 0.0
C1346 C 0.56532 0.4343 0.542 0.0
C1347 C 0.56536 0.4138 0.54396 0.0
C1348 C 0.57213 0.44609 0.52462 0.0
C1349 C 0.57061 0.46679 0.52108 0.0
C1350 C 0.54961 0.46659 0.52386 0.0
C1351 C 0.54829 0.48615 0.5206 0.0
C1352 C 0.56782 0.50598 0.51442 0.0
C1353 C 0.58869 0.50628 0.51145 0.0
C1354 C 0.59011 0.48677 0.51471 0.0
C1355 C 0.57905 0.38108 0.47124 0.0
C1356 C 0.60179 0.39389 0.46432 0.0
C1357 C 0.57204 0.3885 0.48696 0.0
C1358 C 0.58759 0.40894 0.49585 0.0
C1359 C 0.61028 0.42175 0.48897 0.0
C1360 C 0.61739 0.4142 0.47344 0.0
C1361 C 0.58009 0.41731 0.51206 0.0
C1362 C 0.57975 0.4376 0.50998 0.0
C1363 C 0.5727 0.40517 0.52921 0.0
C1364 C 0.57315 0.38386 0.53229 0.0
C1365 C 0.59383 0.38331 0.53007 0.0
C1366 C 0.59408 0.36313 0.53291 0.0
C1367 C 0.57378 0.34341 0.53811 0.0
C1368 C 0.5532 0.34386 0.54053 0.0
C1369 C 0.55286 0.364 0.53768 0.0
H1370 H 0.57401 0.32781 0.54032 0.0
H1371 H 0.56676 0.52111 0.5119 0.0
H1372 H 0.11383 0.55339 0.75589 0.0
H1373 H 0.13986 0.56727 0.7289 0.0
H1374 H 0.09501 0.58739 0.70172 0.0
H1375 H 0.06798 0.57197 0.72802 0.0
H1376 H 0.10652 0.56768 0.67753 0.0
H1377 H 0.14948 0.62674 0.72125 0.0
H1378 H 0.16813 0.64406 0.75152 0.0
H1379 H 0.21363 0.61682 0.74573 0.0
H1380 H 0.19504 0.59907 0.71555 0.0
H1381 H 0.22304 0.64074 0.62274 0.0
H1382 H 0.19866 0.63582 0.65023 0.0
H1383 H 0.16317 0.56333 0.64239 0.0
H1384 H 0.18688 0.56808 0.61478 0.0
H1385 H 0.19193 0.61545 0.68316 0.0
H1386 H 0.10729 0.53976 0.65276 0.0
H1387 H 0.08828 0.52617 0.62189 0.0
H1388 H 0.12535 0.59399 0.60004 0.0
H1389 H 0.14433 0.60804 0.63084 0.0
C1390 C 0.10934 0.56056 0.74412 0.0
C1391 C 0.08866 0.56141 0.74416 0.0
C1392 C 0.12449 0.56888 0.72879 0.0
C1393 C 0.11962 0.57872 0.71335 0.0
C1394 C 0.09922 0.57996 0.71349 0.0
C1395 C 0.08387 0.57133 0.72867 0.0
C1396 C 0.13507 0.58642 0.69658 0.0
C1397 C 0.12518 0.57825 0.67879 0.0
C1398 C 0.1594 0.60068 0.69808 0.0
C1399 C 0.17074 0.61144 0.71619 0.0
C1400 C 0.16336 0.62432 0.72649 0.0
C1401 C 0.17394 0.63424 0.74362 0.0
C1402 C 0.19202 0.63151 0.75056 0.0
C1403 C 0.19961 0.61891 0.74034 0.0
C1404 C 0.18908 0.60894 0.72321 0.0
C1405 C 0.21005 0.62376 0.62691 0.0
C1406 C 0.20673 0.60482 0.61646 0.0
C1407 C 0.19617 0.62098 0.64263 0.0
C1408 C 0.17881 0.59924 0.64815 0.0
C1409 C 0.17606 0.58031 0.63812 0.0
C1410 C 0.18971 0.58306 0.62236 0.0
C1411 C 0.16336 0.59611 0.66432 0.0
C1412 C 0.17324 0.6051 0.68195 0.0
C1413 C 0.13895 0.58319 0.66262 0.0
C1414 C 0.12736 0.57491 0.64409 0.0
C1415 C 0.11129 0.55179 0.6414 0.0
C1416 C 0.10054 0.544 0.62391 0.0
C1417 C 0.10565 0.5592 0.609 0.0
C1418 C 0.12147 0.58223 0.61157 0.0
C1419 C 0.13224 0.5901 0.62904 0.0
H1420 H 0.09733 0.55313 0.59546 0.0
H1421 H 0.20018 0.63919 0.76383 0.0
H1422 H 0.55738 0.12124 0.93045 0.0
H1423 H 0.56941 0.14672 0.90303 0.0
H1424 H 0.53417 0.08903 0.86612 0.0
H1425 H 0.52192 0.06357 0.89338 0.0
H1426 H 0.58208 0.12103 0.85689 0.0
H1427 H 0.50997 0.11856 0.87243 0.0
H1428 H 0.48338 0.12317 0.89373 0.0
H1429 H 0.53393 0.19348 0.90119 0.0
H1430 H 0.56097 0.1892 0.88013 0.0
H1431 H 0.59038 0.16943 0.76904 0.0
H1432 H 0.57453 0.14702 0.79764 0.0
H1433 H 0.59516 0.20819 0.82948 0.0
H1434 H 0.60994 0.23064 0.80052 0.0
H1435 H 0.55635 0.17644 0.84298 0.0
H1436 H 0.62839 0.1811 0.82854 0.0
H1437 H 0.6575 0.17842 0.80897 0.0
H1438 H 0.61131 0.10697 0.80192 0.0
H1439 H 0.58178 0.10928 0.82125 0.0
C1440 C 0.55214 0.11407 0.91647 0.0
C1441 C 0.5387 0.09048 0.91398 0.0
C1442 C 0.5589 0.12859 0.90088 0.0
C1443 C 0.55257 0.11969 0.88262 0.0
C1444 C 0.53913 0.09617 0.88013 0.0
C1445 C 0.53208 0.08169 0.89569 0.0
C1446 C 0.56078 0.13473 0.86595 0.0
C1447 C 0.57628 0.13298 0.85369 0.0
C1448 C 0.55388 0.1509 0.8623 0.0
C1449 C 0.53759 0.15349 0.87487 0.0
C1450 C 0.51551 0.13495 0.87875 0.0
C1451 C 0.50033 0.13752 0.89075 0.0
C1452 C 0.50699 0.15859 0.89885 0.0
C1453 C 0.52881 0.17716 0.89492 0.0
C1454 C 0.54406 0.17468 0.88295 0.0
C1455 C 0.59128 0.17807 0.7821 0.0
C1456 C 0.60159 0.20177 0.78264 0.0
C1457 C 0.58236 0.16527 0.79847 0.0
C1458 C 0.5843 0.17595 0.81586 0.0
C1459 C 0.59363 0.19956 0.81627 0.0
C1460 C 0.60207 0.21238 0.79975 0.0
C1461 C 0.57738 0.16246 0.83357 0.0
C1462 C 0.56225 0.16457 0.84612 0.0
C1463 C 0.58503 0.14691 0.83776 0.0
C1464 C 0.6028 0.14541 0.82622 0.0
C1465 C 0.62438 0.16485 0.82272 0.0
C1466 C 0.64096 0.16339 0.81168 0.0
C1467 C 0.63624 0.14255 0.80418 0.0
C1468 C 0.61494 0.12311 0.80773 0.0
C1469 C 0.59828 0.12447 0.81874 0.0
H1470 H 0.6491 0.14145 0.79563 0.0
H1471 H 0.49522 0.16055 0.90813 0.0
H1472 H 0.49164 0.5931 0.09537 0.0
H1473 H 0.47897 0.60696 0.06845 0.0
H1474 H 0.43981 0.53877 0.04692 0.0
H1475 H 0.45203 0.52482 0.07396 0.0
H1476 H 0.4679 0.57273 0.01935 0.0
H1477 H 0.41052 0.55597 0.06673 0.0
H1478 H 0.39596 0.55765 0.09826 0.0
H1479 H 0.42516 0.62961 0.09265 0.0
H1480 H 0.44038 0.62842 0.0612 0.0
H1481 H 0.37731 0.59715 0.97291 0.0
H1482 H 0.39112 0.5846 -0.00032 0.0
H1483 H 0.46181 0.62929 0.98244 0.0
H1484 H 0.44811 0.64174 0.95545 0.0
H1485 H 0.41768 0.60638 0.02941 0.0
H1486 H 0.49331 0.60329 0.9923 0.0
H1487 H 0.5044 0.59786 0.96036 0.0
H1488 H 0.43266 0.55915 0.94467 0.0
H1489 H 0.42115 0.56408 0.97658 0.0
C1490 C 0.48038 0.58115 0.08483 0.0
C1491 C 0.47267 0.55793 0.08668 0.0
C1492 C 0.47316 0.58904 0.06954 0.0
C1493 C 0.45849 0.57384 0.05577 0.0
C1494 C 0.45118 0.55072 0.05741 0.0
C1495 C 0.45802 0.54278 0.07286 0.0
C1496 C 0.45026 0.58196 0.03986 0.0
C1497 C 0.45704 0.58021 0.02151 0.0
C1498 C 0.43574 0.59128 0.04275 0.0
C1499 C 0.42686 0.59215 0.06172 0.0
C1500 C 0.41411 0.5722 0.07232 0.0
C1501 C 0.4057 0.57305 0.09016 0.0
C1502 C 0.4097 0.59373 0.09748 0.0
C1503 C 0.42213 0.61361 0.08697 0.0
C1504 C 0.43068 0.61286 0.06915 0.0
C1505 C 0.3958 0.60435 0.97483 0.0
C1506 C 0.41163 0.62034 0.96201 0.0
C1507 C 0.40366 0.59722 0.99017 0.0
C1508 C 0.42746 0.60586 0.99295 0.0
C1509 C 0.44334 0.62218 0.9804 0.0
C1510 C 0.4355 0.62932 0.96502 0.0
C1511 C 0.43557 0.59747 0.00883 0.0
C1512 C 0.42877 0.59914 0.02721 0.0
C1513 C 0.4497 0.58765 0.00592 0.0
C1514 C 0.4564 0.58428 0.98677 0.0
C1515 C 0.47991 0.59355 0.98205 0.0
C1516 C 0.48627 0.59057 0.96395 0.0
C1517 C 0.46925 0.57824 0.95047 0.0
C1518 C 0.44583 0.56877 0.9551 0.0
C1519 C 0.43938 0.57168 0.97318 0.0
H1520 H 0.4742 0.57598 0.93646 0.0
H1521 H 0.40306 0.59429 0.11126 0.0
H1522 H 0.93255 0.49584 0.23304 0.0
H1523 H 0.90465 0.48163 0.20718 0.0
H1524 H 0.88131 0.4129 0.22479 0.0
H1525 H 0.90946 0.42708 0.25067 0.0
H1526 H 0.8859 0.41641 0.18753 0.0
H1527 H 0.84849 0.43757 0.23361 0.0
H1528 H 0.84468 0.46219 0.25708 0.0
H1529 H 0.85662 0.51113 0.21398 0.0
H1530 H 0.86085 0.48696 0.19029 0.0
H1531 H 0.78897 0.37752 0.12345 0.0
H1532 H 0.81123 0.38457 0.15272 0.0
H1533 H 0.84858 0.45614 0.1404 0.0
H1534 H 0.82668 0.44935 0.11128 0.0
H1535 H 0.83243 0.44633 0.17744 0.0
H1536 H 0.87367 0.42581 0.13235 0.0
H1537 H 0.87699 0.40048 0.10931 0.0
H1538 H 0.85607 0.34877 0.15162 0.0
H1539 H 0.85233 0.37371 0.17485 0.0
C1540 C 0.92135 0.47771 0.2315 0.0
C1541 C 0.92307 0.46258 0.24395 0.0
C1542 C 0.9054 0.4696 0.21673 0.0
C1543 C 0.8906 0.4462 0.21425 0.0
C1544 C 0.89251 0.43102 0.22648 0.0
C1545 C 0.90861 0.43913 0.24122 0.0
C1546 C 0.87342 0.43777 0.19869 0.0
C1547 C 0.87389 0.42261 0.18553 0.0
C1548 C 0.85783 0.44595 0.196 0.0
C1549 C 0.85515 0.46051 0.21019 0.0
C1550 C 0.85046 0.45365 0.22915 0.0
C1551 C 0.8482 0.46752 0.2425 0.0
C1552 C 0.85045 0.48823 0.23703 0.0
C1553 C 0.8549 0.49509 0.2182 0.0
C1554 C 0.8572 0.4813 0.2048 0.0
C1555 C 0.80192 0.39475 0.127 0.0
C1556 C 0.80609 0.41286 0.11501 0.0
C1557 C 0.81463 0.39872 0.14368 0.0
C1558 C 0.83156 0.42087 0.14866 0.0
C1559 C 0.83555 0.43894 0.13682 0.0
C1560 C 0.82307 0.43498 0.12013 0.0
C1561 C 0.84539 0.4255 0.16611 0.0
C1562 C 0.84422 0.4399 0.17963 0.0
C1563 C 0.86015 0.41646 0.16921 0.0
C1564 C 0.86244 0.40151 0.15526 0.0
C1565 C 0.86957 0.40896 0.13669 0.0
C1566 C 0.87157 0.39469 0.12361 0.0
C1567 C 0.86667 0.373 0.12898 0.0
C1568 C 0.85982 0.36556 0.14746 0.0
C1569 C 0.85776 0.37975 0.16059 0.0
H1570 H 0.86824 0.36198 0.11883 0.0
H1571 H 0.8487 0.49894 0.24739 0.0
loop_
_geom_bond_atom_site_label_1
_geom_bond_atom_site_label_2
_geom_bond_distance
_geom_bond_site_symmetry_2
_ccdc_geom_bond_type
H0 C19 0.949 . S
H1 C20 0.950 . S
H2 C22 0.950 . S
H3 C23 0.950 . S
H4 C25 0.950 . S
H5 C28 0.950 . S
H6 C29 0.950 . S
H7 C31 0.951 . S
H8 C32 0.949 . S
H9 C34 0.949 . S
H10 C35 0.950 . S
H11 C37 0.950 . S
H12 C38 0.950 . S
H13 C40 0.963 . S
H14 C43 0.950 . S
H15 C44 0.950 . S
H16 C46 0.951 . S
H17 C47 0.949 . S
C18 C19 1.376 . S
C18 C23 1.386 . S
C18 C24 1.483 . S
C19 H0 0.949 . S
C19 C18 1.376 . S
C19 C20 1.397 . S
C20 H1 0.950 . S
C20 C19 1.397 . S
C20 C21 1.391 . S
C21 C20 1.391 . S
C21 C22 1.405 . S
C22 H2 0.950 . S
C22 C21 1.405 . S
C22 C23 1.367 . S
C23 H3 0.950 . S
C23 C18 1.386 . S
C23 C22 1.367 . S
C24 C18 1.483 . S
C24 C25 1.382 1_655 S
C24 C26 1.403 . S
C25 H4 0.950 . S
C25 C24 1.382 1_455 S
C25 C41 1.411 . S
C26 C24 1.403 . S
C26 C27 1.489 . S
C26 C40 1.411 1_655 S
C27 C26 1.489 . S
C27 C28 1.383 . S
C27 C32 1.382 . S
C28 H5 0.950 . S
C28 C27 1.383 . S
C28 C29 1.395 . S
C29 H6 0.950 . S
C29 C28 1.395 . S
C29 C30 1.288 . S
C30 C29 1.288 . S
C30 C31 1.392 . S
C31 H7 0.951 . S
C31 C30 1.392 . S
C31 C32 1.392 . S
C32 H8 0.949 . S
C32 C27 1.382 . S
C32 C31 1.392 . S
C33 C34 1.376 . S
C33 C38 1.386 . S
C33 C39 1.483 . S
C34 H9 0.949 . S
C34 C33 1.376 . S
C34 C35 1.397 . S
C35 H10 0.950 . S
C35 C34 1.397 . S
C35 C36 1.391 . S
C36 C35 1.391 . S
C36 C37 1.405 . S
C37 H11 0.950 . S
C37 C36 1.405 . S
C37 C38 1.367 . S
C38 H12 0.950 . S
C38 C33 1.386 . S
C38 C37 1.367 . S
C39 C33 1.483 . S
C39 C40 1.382 . S
C39 C41 1.403 . S
C40 H13 0.963 . S
C40 C26 1.411 1_455 S
C40 C39 1.382 . S
C41 C25 1.411 . S
C41 C39 1.403 . S
C41 C42 1.489 . S
C42 C41 1.489 . S
C42 C43 1.383 . S
C42 C47 1.382 . S
C43 H14 0.950 . S
C43 C42 1.383 . S
C43 C44 1.395 . S
C44 H15 0.950 . S
C44 C43 1.395 . S
C44 C45 1.288 . S
C45 C44 1.288 . S
C45 C46 1.392 . S
C46 H16 0.951 . S
C46 C45 1.392 . S
C46 C47 1.392 . S
C47 H17 0.949 . S
C47 C42 1.382 . S
C47 C46 1.392 . S
H48 C67 0.949 . S
H49 C68 0.950 . S
H50 C70 0.950 . S
H51 C71 0.950 . S
H52 C73 0.943 1_565 S
H53 C76 0.950 . S
H54 C77 0.950 . S
H55 C79 0.951 . S
H56 C80 0.949 . S
H57 C82 0.949 . S
H58 C83 0.950 . S
H59 C85 0.950 . S
H60 C86 0.950 . S
H61 C88 0.950 . S
H62 C91 0.950 . S
H63 C92 0.950 . S
H64 C94 0.951 . S
H65 C95 0.949 . S
C66 C67 1.376 . S
C66 C71 1.386 . S
C66 C72 1.483 . S
C67 H48 0.949 . S
C67 C66 1.376 . S
C67 C68 1.397 . S
C68 H49 0.950 . S
C68 C67 1.397 . S
C68 C69 1.391 . S
C69 C68 1.391 . S
C69 C70 1.405 . S
C70 H50 0.950 . S
C70 C69 1.405 . S
C70 C71 1.367 . S
C71 H51 0.950 . S
C71 C66 1.386 . S
C71 C70 1.367 . S
C72 C66 1.483 . S
C72 C73 1.382 1_565 S
C72 C74 1.403 . S
C73 H52 0.943 1_545 S
C73 C72 1.382 1_545 S
C73 C89 1.411 . S
C74 C72 1.403 . S
C74 C75 1.489 . S
C74 C88 1.411 1_565 S
C75 C74 1.489 . S
C75 C76 1.383 . S
C75 C80 1.382 . S
C76 H53 0.950 . S
C76 C75 1.383 . S
C76 C77 1.395 . S
C77 H54 0.950 . S
C77 C76 1.395 . S
C77 C78 1.288 . S
C78 C77 1.288 . S
C78 C79 1.392 . S
C79 H55 0.951 . S
C79 C78 1.392 . S
C79 C80 1.392 . S
C80 H56 0.949 . S
C80 C75 1.382 . S
C80 C79 1.392 . S
C81 C82 1.376 . S
C81 C86 1.386 . S
C81 C87 1.483 . S
C82 H57 0.949 . S
C82 C81 1.376 . S
C82 C83 1.397 . S
C83 H58 0.950 . S
C83 C82 1.397 . S
C83 C84 1.391 . S
C84 C83 1.391 . S
C84 C85 1.405 . S
C85 H59 0.950 . S
C85 C84 1.405 . S
C85 C86 1.367 . S
C86 H60 0.950 . S
C86 C81 1.386 . S
C86 C85 1.367 . S
C87 C81 1.483 . S
C87 C88 1.382 . S
C87 C89 1.403 . S
C88 H61 0.950 . S
C88 C74 1.411 1_545 S
C88 C87 1.382 . S
C89 C73 1.411 . S
C89 C87 1.403 . S
C89 C90 1.489 . S
C90 C89 1.489 . S
C90 C91 1.383 . S
C90 C95 1.382 . S
C91 H62 0.950 . S
C91 C90 1.383 . S
C91 C92 1.395 . S
C92 H63 0.950 . S
C92 C91 1.395 . S
C92 C93 1.288 . S
C93 C92 1.288 . S
C93 C94 1.392 . S
C94 H64 0.951 . S
C94 C93 1.392 . S
C94 C95 1.392 . S
C95 H65 0.949 . S
C95 C90 1.382 . S
C95 C94 1.392 . S
H96 C115 0.949 . S
H97 C116 0.950 . S
H98 C118 0.950 . S
H99 C119 0.950 . S
H100 C121 0.950 . S
H101 C124 0.950 . S
H102 C125 0.950 . S
H103 C127 0.951 . S
H104 C128 0.949 . S
H105 C130 0.949 . S
H106 C131 0.950 . S
H107 C133 0.950 . S
H108 C134 0.950 . S
H109 C136 0.950 . S
H110 C139 0.950 . S
H111 C140 0.950 . S
H112 C142 0.951 . S
H113 C143 0.949 . S
C114 C115 1.376 . S
C114 C119 1.386 . S
C114 C120 1.483 . S
C115 H96 0.949 . S
C115 C114 1.376 . S
C115 C116 1.397 . S
C116 H97 0.950 . S
C116 C115 1.397 . S
C116 C117 1.391 . S
C117 C116 1.391 . S
C117 C118 1.405 . S
C118 H98 0.950 . S
C118 C117 1.405 . S
C118 C119 1.367 . S
C119 H99 0.950 . S
C119 C114 1.386 . S
C119 C118 1.367 . S
C120 C114 1.483 . S
C120 C121 1.382 . S
C120 C122 1.403 . S
C121 H100 0.950 . S
C121 C120 1.382 . S
C121 C137 1.411 . S
C122 C120 1.403 . S
C122 C123 1.489 . S
C122 C136 1.411 . S
C123 C122 1.489 . S
C123 C124 1.383 . S
C123 C128 1.382 . S
C124 H101 0.950 . S
C124 C123 1.383 . S
C124 C125 1.395 . S
C125 H102 0.950 . S
C125 C124 1.395 . S
C125 C126 1.288 . S
C126 C125 1.288 . S
C126 C127 1.392 . S
C127 H103 0.951 . S
C127 C126 1.392 . S
C127 C128 1.392 . S
C128 H104 0.949 . S
C128 C123 1.382 . S
C128 C127 1.392 . S
C129 C130 1.376 . S
C129 C134 1.386 . S
C129 C135 1.483 . S
C130 H105 0.949 . S
C130 C129 1.376 . S
C130 C131 1.397 . S
C131 H106 0.950 . S
C131 C130 1.397 . S
C131 C132 1.391 . S
C132 C131 1.391 . S
C132 C133 1.405 . S
C133 H107 0.950 . S
C133 C132 1.405 . S
C133 C134 1.367 . S
C134 H108 0.950 . S
C134 C129 1.386 . S
C134 C133 1.367 . S
C135 C129 1.483 . S
C135 C136 1.382 . S
C135 C137 1.403 . S
C136 H109 0.950 . S
C136 C122 1.411 . S
C136 C135 1.382 . S
C137 C121 1.411 . S
C137 C135 1.403 . S
C137 C138 1.489 . S
C138 C137 1.489 . S
C138 C139 1.383 . S
C138 C143 1.382 . S
C139 H110 0.950 . S
C139 C138 1.383 . S
C139 C140 1.395 . S
C140 H111 0.950 . S
C140 C139 1.395 . S
C140 C141 1.288 . S
C141 C140 1.288 . S
C141 C142 1.392 . S
C142 H112 0.951 . S
C142 C141 1.392 . S
C142 C143 1.392 . S
C143 H113 0.949 . S
C143 C138 1.382 . S
C143 C142 1.392 . S
H144 C163 0.949 . S
H145 C164 0.950 . S
H146 C166 0.950 . S
H147 C167 0.950 . S
H148 C169 0.950 1_655 S
H149 C172 0.950 . S
H150 C173 0.950 . S
H151 C175 0.951 . S
H152 C176 0.949 . S
H153 C178 0.949 . S
H154 C179 0.950 . S
H155 C181 0.950 . S
H156 C182 0.950 . S
H157 C184 0.950 . S
H158 C187 0.950 . S
H159 C188 0.950 . S
H160 C190 0.951 . S
H161 C191 0.949 . S
C162 C163 1.376 . S
C162 C167 1.386 . S
C162 C168 1.483 . S
C163 H144 0.949 . S
C163 C162 1.376 . S
C163 C164 1.397 . S
C164 H145 0.950 . S
C164 C163 1.397 . S
C164 C165 1.391 . S
C165 C164 1.391 . S
C165 C166 1.405 . S
C166 H146 0.950 . S
C166 C165 1.405 . S
C166 C167 1.367 . S
C167 H147 0.950 . S
C167 C162 1.386 . S
C167 C166 1.367 . S
C168 C162 1.483 . S
C168 C169 1.382 . S
C168 C170 1.403 . S
C169 H148 0.950 1_455 S
C169 C168 1.382 . S
C169 C185 1.411 1_455 S
C170 C168 1.403 . S
C170 C171 1.489 . S
C170 C184 1.411 . S
C171 C170 1.489 . S
C171 C172 1.383 . S
C171 C176 1.382 . S
C172 H149 0.950 . S
C172 C171 1.383 . S
C172 C173 1.395 . S
C173 H150 0.950 . S
C173 C172 1.395 . S
C173 C174 1.288 . S
C174 C173 1.288 . S
C174 C175 1.392 . S
C175 H151 0.951 . S
C175 C174 1.392 . S
C175 C176 1.392 . S
C176 H152 0.949 . S
C176 C171 1.382 . S
C176 C175 1.392 . S
C177 C178 1.376 . S
C177 C182 1.386 . S
C177 C183 1.483 . S
C178 H153 0.949 . S
C178 C177 1.376 . S
C178 C179 1.397 . S
C179 H154 0.950 . S
C179 C178 1.397 . S
C179 C180 1.391 . S
C180 C179 1.391 . S
C180 C181 1.405 . S
C181 H155 0.950 . S
C181 C180 1.405 . S
C181 C182 1.367 . S
C182 H156 0.950 . S
C182 C177 1.386 . S
C182 C181 1.367 . S
C183 C177 1.483 . S
C183 C184 1.382 1_655 S
C183 C185 1.403 . S
C184 H157 0.950 . S
C184 C170 1.411 . S
C184 C183 1.382 1_455 S
C185 C169 1.411 1_655 S
C185 C183 1.403 . S
C185 C186 1.489 . S
C186 C185 1.489 . S
C186 C187 1.383 . S
C186 C191 1.382 . S
C187 H158 0.950 . S
C187 C186 1.383 . S
C187 C188 1.395 . S
C188 H159 0.950 . S
C188 C187 1.395 . S
C188 C189 1.288 . S
C189 C188 1.288 . S
C189 C190 1.392 . S
C190 H160 0.951 . S
C190 C189 1.392 . S
C190 C191 1.392 . S
C191 H161 0.949 . S
C191 C186 1.382 . S
C191 C190 1.392 . S
H192 C211 0.949 . S
H193 C212 0.950 . S
H194 C214 0.950 . S
H195 C215 0.950 . S
H196 C217 0.950 . S
H197 C220 0.950 . S
H198 C221 0.950 . S
H199 C223 0.951 . S
H200 C224 0.949 . S
H201 C226 0.949 . S
H202 C227 0.950 . S
H203 C229 0.950 . S
H204 C230 0.950 . S
H205 C232 0.950 1_565 S
H206 C235 0.950 . S
H207 C236 0.950 . S
H208 C238 0.951 . S
H209 C239 0.949 . S
C210 C211 1.376 . S
C210 C215 1.386 1_554 S
C210 C216 1.483 1_554 S
C211 H192 0.949 . S
C211 C210 1.376 . S
C211 C212 1.397 . S
C212 H193 0.950 . S
C212 C211 1.397 . S
C212 C213 1.391 . S
C213 C212 1.391 . S
C213 C214 1.405 . S
C214 H194 0.950 . S
C214 C213 1.405 . S
C214 C215 1.367 1_554 S
C215 H195 0.950 . S
C215 C210 1.386 1_556 S
C215 C214 1.367 1_556 S
C216 C210 1.483 1_556 S
C216 C217 1.382 1_556 S
C216 C218 1.403 . S
C217 H196 0.950 . S
C217 C216 1.382 1_554 S
C217 C233 1.411 1_545 S
C218 C216 1.403 . S
C218 C219 1.489 . S
C218 C232 1.411 . S
C219 C218 1.489 . S
C219 C220 1.383 . S
C219 C224 1.382 . S
C220 H197 0.950 . S
C220 C219 1.383 . S
C220 C221 1.395 . S
C221 H198 0.950 . S
C221 C220 1.395 . S
C221 C222 1.288 . S
C222 C221 1.288 . S
C222 C223 1.392 . S
C223 H199 0.951 . S
C223 C222 1.392 . S
C223 C224 1.392 . S
C224 H200 0.949 . S
C224 C219 1.382 . S
C224 C223 1.392 . S
C225 C226 1.376 . S
C225 C230 1.386 . S
C225 C231 1.483 . S
C226 H201 0.949 . S
C226 C225 1.376 . S
C226 C227 1.397 . S
C227 H202 0.950 . S
C227 C226 1.397 . S
C227 C228 1.391 . S
C228 C227 1.391 . S
C228 C229 1.405 . S
C229 H203 0.950 . S
C229 C228 1.405 . S
C229 C230 1.367 . S
C230 H204 0.950 . S
C230 C225 1.386 . S
C230 C229 1.367 . S
C231 C225 1.483 . S
C231 C232 1.382 1_565 S
C231 C233 1.403 1_556 S
C232 H205 0.950 1_545 S
C232 C218 1.411 . S
C232 C231 1.382 1_545 S
C233 C217 1.411 1_565 S
C233 C231 1.403 1_554 S
C233 C234 1.489 . S
C234 C233 1.489 . S
C234 C235 1.383 . S
C234 C239 1.382 . S
C235 H206 0.950 . S
C235 C234 1.383 . S
C235 C236 1.395 . S
C236 H207 0.950 . S
C236 C235 1.395 . S
C236 C237 1.288 . S
C237 C236 1.288 . S
C237 C238 1.392 . S
C238 H208 0.951 . S
C238 C237 1.392 . S
C238 C239 1.392 . S
C239 H209 0.949 . S
C239 C234 1.382 . S
C239 C238 1.392 . S
H240 C259 0.949 . S
H241 C260 0.950 . S
H242 C262 0.950 . S
H243 C263 0.950 . S
H244 C265 0.950 . S
H245 C268 0.950 . S
H246 C269 0.950 . S
H247 C271 0.951 . S
H248 C272 0.949 . S
H249 C274 0.949 . S
H250 C275 0.950 . S
H251 C277 0.950 . S
H252 C278 0.950 . S
H253 C280 0.950 . S
H254 C283 0.950 . S
H255 C284 0.950 . S
H256 C286 0.951 . S
H257 C287 0.949 . S
C258 C259 1.376 . S
C258 C263 1.386 . S
C258 C264 1.483 . S
C259 H240 0.949 . S
C259 C258 1.376 . S
C259 C260 1.397 . S
C260 H241 0.950 . S
C260 C259 1.397 . S
C260 C261 1.391 . S
C261 C260 1.391 . S
C261 C262 1.405 . S
C262 H242 0.950 . S
C262 C261 1.405 . S
C262 C263 1.367 . S
C263 H243 0.950 . S
C263 C258 1.386 . S
C263 C262 1.367 . S
C264 C258 1.483 . S
C264 C265 1.382 . S
C264 C266 1.403 . S
C265 H244 0.950 . S
C265 C264 1.382 . S
C265 C281 1.411 . S
C266 C264 1.403 . S
C266 C267 1.489 . S
C266 C280 1.411 . S
C267 C266 1.489 . S
C267 C268 1.383 . S
C267 C272 1.382 . S
C268 H245 0.950 . S
C268 C267 1.383 . S
C268 C269 1.395 . S
C269 H246 0.950 . S
C269 C268 1.395 . S
C269 C270 1.288 . S
C270 C269 1.288 . S
C270 C271 1.392 . S
C271 H247 0.951 . S
C271 C270 1.392 . S
C271 C272 1.392 . S
C272 H248 0.949 . S
C272 C267 1.382 . S
C272 C271 1.392 . S
C273 C274 1.376 . S
C273 C278 1.386 . S
C273 C279 1.483 . S
C274 H249 0.949 . S
C274 C273 1.376 . S
C274 C275 1.397 . S
C275 H250 0.950 . S
C275 C274 1.397 . S
C275 C276 1.391 . S
C276 C275 1.391 . S
C276 C277 1.405 . S
C277 H251 0.950 . S
C277 C276 1.405 . S
C277 C278 1.367 . S
C278 H252 0.950 . S
C278 C273 1.386 . S
C278 C277 1.367 . S
C279 C273 1.483 . S
C279 C280 1.382 . S
C279 C281 1.403 . S
C280 H253 0.950 . S
C280 C266 1.411 . S
C280 C279 1.382 . S
C281 C265 1.411 . S
C281 C279 1.403 . S
C281 C282 1.489 . S
C282 C281 1.489 . S
C282 C283 1.383 . S
C282 C287 1.382 . S
C283 H254 0.950 . S
C283 C282 1.383 . S
C283 C284 1.395 . S
C284 H255 0.950 . S
C284 C283 1.395 . S
C284 C285 1.288 . S
C285 C284 1.288 . S
C285 C286 1.392 . S
C286 H256 0.951 . S
C286 C285 1.392 . S
C286 C287 1.392 . S
C287 H257 0.949 . S
C287 C282 1.382 . S
C287 C286 1.392 . S
C288 O289 1.306 . S
C288 O291 1.160 . S
O289 C288 1.306 . S
O289 Cd290 2.228 . S
Cd290 O289 2.228 . S
Cd290 O294 2.273 . S
Cd290 O298 2.277 . S
O291 C288 1.160 . S
O291 Cd292 2.203 . S
Cd292 O291 2.203 . S
Cd292 O294 2.411 . S
Cd292 O295 2.333 . S
Cd292 O296 2.352 . S
Cd292 O300 2.277 . S
Cd292 O301 2.356 . S
C293 O298 1.209 . S
C293 O300 1.226 . S
O294 Cd290 2.273 . S
O294 Cd292 2.411 . S
O294 C297 1.320 . S
O295 Cd292 2.333 . S
O295 C297 1.214 . S
O296 Cd292 2.352 . S
O296 C299 1.258 . S
C297 O294 1.320 . S
C297 O295 1.214 . S
O298 Cd290 2.277 . S
O298 C293 1.209 . S
C299 O296 1.258 . S
C299 O301 1.282 . S
O300 Cd292 2.277 . S
O300 C293 1.226 . S
O301 Cd292 2.356 . S
O301 C299 1.282 . S
C302 O303 1.306 . S
C302 O305 1.160 . S
O303 C302 1.306 . S
O303 Cd304 2.228 . S
Cd304 O303 2.228 . S
Cd304 O308 2.273 . S
Cd304 O312 2.277 . S
O305 C302 1.160 . S
O305 Cd306 2.203 . S
Cd306 O305 2.203 . S
Cd306 O308 2.411 . S
Cd306 O309 2.333 . S
Cd306 O310 2.352 . S
Cd306 O314 2.277 . S
Cd306 O315 2.356 . S
C307 O312 1.209 . S
C307 O314 1.226 . S
O308 Cd304 2.273 . S
O308 Cd306 2.411 . S
O308 C311 1.320 . S
O309 Cd306 2.333 . S
O309 C311 1.214 . S
O310 Cd306 2.352 . S
O310 C313 1.258 . S
C311 O308 1.320 . S
C311 O309 1.214 . S
O312 Cd304 2.277 . S
O312 C307 1.209 . S
C313 O310 1.258 . S
C313 O315 1.282 . S
O314 Cd306 2.277 . S
O314 C307 1.226 . S
O315 Cd306 2.356 . S
O315 C313 1.282 . S
C316 O317 1.306 . S
C316 O319 1.160 . S
O317 C316 1.306 . S
O317 Cd318 2.228 . S
Cd318 O317 2.228 . S
Cd318 O322 2.273 . S
Cd318 O326 2.277 . S
O319 C316 1.160 . S
O319 Cd320 2.203 . S
Cd320 O319 2.203 . S
Cd320 O322 2.411 . S
Cd320 O323 2.333 . S
Cd320 O324 2.352 . S
Cd320 O328 2.277 . S
Cd320 O329 2.356 . S
C321 O326 1.209 . S
C321 O328 1.226 . S
O322 Cd318 2.273 . S
O322 Cd320 2.411 . S
O322 C325 1.320 . S
O323 Cd320 2.333 . S
O323 C325 1.214 . S
O324 Cd320 2.352 . S
O324 C327 1.258 . S
C325 O322 1.320 . S
C325 O323 1.214 . S
O326 Cd318 2.277 . S
O326 C321 1.209 . S
C327 O324 1.258 . S
C327 O329 1.282 . S
O328 Cd320 2.277 . S
O328 C321 1.226 . S
O329 Cd320 2.356 . S
O329 C327 1.282 . S
C330 O331 1.306 . S
C330 O333 1.160 . S
O331 C330 1.306 . S
O331 Cd332 2.228 . S
Cd332 O331 2.228 . S
Cd332 O336 2.273 . S
Cd332 O340 2.277 . S
O333 C330 1.160 . S
O333 Cd334 2.203 . S
Cd334 O333 2.203 . S
Cd334 O336 2.411 . S
Cd334 O337 2.333 . S
Cd334 O338 2.352 . S
Cd334 O342 2.277 . S
Cd334 O343 2.356 . S
C335 O340 1.209 . S
C335 O342 1.226 . S
O336 Cd332 2.273 . S
O336 Cd334 2.411 . S
O336 C339 1.320 . S
O337 Cd334 2.333 . S
O337 C339 1.214 . S
O338 Cd334 2.352 . S
O338 C341 1.258 . S
C339 O336 1.320 . S
C339 O337 1.214 . S
O340 Cd332 2.277 . S
O340 C335 1.209 . S
C341 O338 1.258 . S
C341 O343 1.282 . S
O342 Cd334 2.277 . S
O342 C335 1.226 . S
O343 Cd334 2.356 . S
O343 C341 1.282 . S
C344 O345 1.306 . S
C344 O347 1.160 . S
O345 C344 1.306 . S
O345 Cd346 2.228 . S
Cd346 O345 2.228 . S
Cd346 O350 2.273 . S
Cd346 O354 2.277 . S
O347 C344 1.160 . S
O347 Cd348 2.203 . S
Cd348 O347 2.203 . S
Cd348 O350 2.411 . S
Cd348 O351 2.333 . S
Cd348 O352 2.352 . S
Cd348 O356 2.277 . S
Cd348 O357 2.356 . S
C349 O354 1.209 . S
C349 O356 1.226 . S
O350 Cd346 2.273 . S
O350 Cd348 2.411 . S
O350 C353 1.320 . S
O351 Cd348 2.333 . S
O351 C353 1.214 . S
O352 Cd348 2.352 . S
O352 C355 1.258 . S
C353 O350 1.320 . S
C353 O351 1.214 . S
O354 Cd346 2.277 . S
O354 C349 1.209 . S
C355 O352 1.258 . S
C355 O357 1.282 . S
O356 Cd348 2.277 . S
O356 C349 1.226 . S
O357 Cd348 2.356 . S
O357 C355 1.282 . S
C358 O359 1.306 . S
C358 O361 1.160 . S
O359 C358 1.306 . S
O359 Cd360 2.228 . S
Cd360 O359 2.228 . S
Cd360 O364 2.273 . S
Cd360 O368 2.277 . S
O361 C358 1.160 . S
O361 Cd362 2.203 . S
Cd362 O361 2.203 . S
Cd362 O364 2.411 . S
Cd362 O365 2.333 . S
Cd362 O366 2.352 . S
Cd362 O370 2.277 . S
Cd362 O371 2.356 . S
C363 O368 1.209 . S
C363 O370 1.226 . S
O364 Cd360 2.273 . S
O364 Cd362 2.411 . S
O364 C367 1.320 . S
O365 Cd362 2.333 . S
O365 C367 1.214 . S
O366 Cd362 2.352 . S
O366 C369 1.258 . S
C367 O364 1.320 . S
C367 O365 1.214 . S
O368 Cd360 2.277 . S
O368 C363 1.209 . S
C369 O366 1.258 . S
C369 O371 1.282 . S
O370 Cd362 2.277 . S
O370 C363 1.226 . S
O371 Cd362 2.356 . S
O371 C369 1.282 . S
H372 C390 0.951 . S
H373 C392 0.951 . S
H374 C394 0.950 . S
H375 C395 0.950 . S
H376 C397 0.950 . S
H377 C400 0.950 . S
H378 C401 0.950 . S
H379 C403 0.950 . S
H380 C404 0.950 . S
H381 C405 0.951 . S
H382 C407 0.951 . S
H383 C409 0.950 . S
H384 C410 0.950 . S
H385 C412 0.950 . S
H386 C415 0.950 . S
H387 C416 0.950 . S
H388 C418 0.950 . S
H389 C419 0.950 . S
C390 H372 0.951 . S
C390 C391 1.366 . S
C390 C392 1.388 . S
C391 C390 1.366 . S
C391 C395 1.385 . S
C392 H373 0.951 . S
C392 C390 1.388 . S
C392 C393 1.366 . S
C393 C392 1.366 . S
C393 C394 1.414 . S
C393 C396 1.499 . S
C394 H374 0.950 . S
C394 C393 1.414 . S
C394 C395 1.374 . S
C395 H375 0.950 . S
C395 C391 1.385 . S
C395 C394 1.374 . S
C396 C393 1.499 . S
C396 C397 1.373 . S
C396 C398 1.389 . S
C397 H376 0.950 . S
C397 C396 1.373 . S
C397 C413 1.377 . S
C398 C396 1.389 . S
C398 C399 1.524 . S
C398 C412 1.377 . S
C399 C398 1.524 . S
C399 C400 1.397 . S
C399 C404 1.363 . S
C400 H377 0.950 . S
C400 C399 1.397 . S
C400 C401 1.334 . S
C401 H378 0.950 . S
C401 C400 1.334 . S
C401 C402 1.287 . S
C402 C401 1.287 . S
C402 C403 1.524 . S
C402 H421 0.913 . S
C403 H379 0.950 . S
C403 C402 1.524 . S
C403 C404 1.415 . S
C404 H380 0.950 . S
C404 C399 1.363 . S
C404 C403 1.415 . S
C405 H381 0.951 . S
C405 C406 1.366 . S
C405 C407 1.388 . S
C406 C405 1.366 . S
C406 C410 1.385 . S
C407 H382 0.951 . S
C407 C405 1.388 . S
C407 C408 1.366 . S
C408 C407 1.366 . S
C408 C409 1.414 . S
C408 C411 1.499 . S
C409 H383 0.950 . S
C409 C408 1.414 . S
C409 C410 1.374 . S
C410 H384 0.950 . S
C410 C406 1.385 . S
C410 C409 1.374 . S
C411 C408 1.499 . S
C411 C412 1.373 . S
C411 C413 1.389 . S
C412 H385 0.950 . S
C412 C398 1.377 . S
C412 C411 1.373 . S
C413 C397 1.377 . S
C413 C411 1.389 . S
C413 C414 1.524 . S
C414 C413 1.524 . S
C414 C415 1.397 . S
C414 C419 1.363 . S
C415 H386 0.950 . S
C415 C414 1.397 . S
C415 C416 1.334 . S
C416 H387 0.950 . S
C416 C415 1.334 . S
C416 C417 1.287 . S
C417 C416 1.287 . S
C417 C418 1.524 . S
C417 H420 0.999 . S
C418 H388 0.950 . S
C418 C417 1.524 . S
C418 C419 1.415 . S
C419 H389 0.950 . S
C419 C414 1.363 . S
C419 C418 1.415 . S
H420 C417 0.999 . S
H421 C402 0.913 . S
H422 C440 0.951 . S
H423 C442 0.951 . S
H424 C444 0.950 . S
H425 C445 0.950 . S
H426 C447 0.950 . S
H427 C450 0.950 . S
H428 C451 0.950 . S
H429 C453 0.950 . S
H430 C454 0.950 . S
H431 C455 0.951 . S
H432 C457 0.951 . S
H433 C459 0.950 . S
H434 C460 0.950 . S
H435 C462 0.950 . S
H436 C465 0.950 . S
H437 C466 0.950 . S
H438 C468 0.950 . S
H439 C469 0.950 . S
C440 H422 0.951 . S
C440 C441 1.366 . S
C440 C442 1.388 . S
C441 C440 1.366 . S
C441 C445 1.385 . S
C442 H423 0.951 . S
C442 C440 1.388 . S
C442 C443 1.366 . S
C443 C442 1.366 . S
C443 C444 1.414 . S
C443 C446 1.499 . S
C444 H424 0.950 . S
C444 C443 1.414 . S
C444 C445 1.374 . S
C445 H425 0.950 . S
C445 C441 1.385 . S
C445 C444 1.374 . S
C446 C443 1.499 . S
C446 C447 1.373 . S
C446 C448 1.389 . S
C447 H426 0.950 . S
C447 C446 1.373 . S
C447 C463 1.377 . S
C448 C446 1.389 . S
C448 C449 1.524 . S
C448 C462 1.377 . S
C449 C448 1.524 . S
C449 C450 1.397 . S
C449 C454 1.363 . S
C450 H427 0.950 . S
C450 C449 1.397 . S
C450 C451 1.334 . S
C451 H428 0.950 . S
C451 C450 1.334 . S
C451 C452 1.287 . S
C452 C451 1.287 . S
C452 C453 1.524 . S
C452 H471 0.913 . S
C453 H429 0.950 . S
C453 C452 1.524 . S
C453 C454 1.415 . S
C454 H430 0.950 . S
C454 C449 1.363 . S
C454 C453 1.415 . S
C455 H431 0.951 . S
C455 C456 1.366 . S
C455 C457 1.388 . S
C456 C455 1.366 . S
C456 C460 1.385 . S
C457 H432 0.951 . S
C457 C455 1.388 . S
C457 C458 1.366 . S
C458 C457 1.366 . S
C458 C459 1.414 . S
C458 C461 1.499 . S
C459 H433 0.950 . S
C459 C458 1.414 . S
C459 C460 1.374 . S
C460 H434 0.950 . S
C460 C456 1.385 . S
C460 C459 1.374 . S
C461 C458 1.499 . S
C461 C462 1.373 . S
C461 C463 1.389 . S
C462 H435 0.950 . S
C462 C448 1.377 . S
C462 C461 1.373 . S
C463 C447 1.377 . S
C463 C461 1.389 . S
C463 C464 1.524 . S
C464 C463 1.524 . S
C464 C465 1.397 . S
C464 C469 1.363 . S
C465 H436 0.950 . S
C465 C464 1.397 . S
C465 C466 1.334 . S
C466 H437 0.950 . S
C466 C465 1.334 . S
C466 C467 1.287 . S
C467 C466 1.287 . S
C467 C468 1.524 . S
C467 H470 0.999 . S
C468 H438 0.950 . S
C468 C467 1.524 . S
C468 C469 1.415 . S
C469 H439 0.950 . S
C469 C464 1.363 . S
C469 C468 1.415 . S
H470 C467 0.999 . S
H471 C452 0.913 . S
H472 C490 0.951 . S
H473 C492 0.951 . S
H474 C494 0.950 . S
H475 C495 0.950 . S
H476 C497 0.950 . S
H477 C500 0.950 . S
H478 C501 0.950 . S
H479 C503 0.950 . S
H480 C504 0.950 . S
H481 C505 0.951 . S
H482 C507 0.951 . S
H483 C509 0.950 . S
H484 C510 0.950 . S
H485 C512 0.950 . S
H486 C515 0.950 . S
H487 C516 0.950 . S
H488 C518 0.950 . S
H489 C519 0.950 . S
C490 H472 0.951 . S
C490 C491 1.366 . S
C490 C492 1.388 . S
C491 C490 1.366 . S
C491 C495 1.385 . S
C492 H473 0.951 . S
C492 C490 1.388 . S
C492 C493 1.366 . S
C493 C492 1.366 . S
C493 C494 1.414 . S
C493 C496 1.499 . S
C494 H474 0.950 . S
C494 C493 1.414 . S
C494 C495 1.374 . S
C495 H475 0.950 . S
C495 C491 1.385 . S
C495 C494 1.374 . S
C496 C493 1.499 . S
C496 C497 1.373 . S
C496 C498 1.389 . S
C497 H476 0.950 . S
C497 C496 1.373 . S
C497 C513 1.377 . S
C498 C496 1.389 . S
C498 C499 1.524 . S
C498 C512 1.377 . S
C499 C498 1.524 . S
C499 C500 1.397 . S
C499 C504 1.363 . S
C500 H477 0.950 . S
C500 C499 1.397 . S
C500 C501 1.334 . S
C501 H478 0.950 . S
C501 C500 1.334 . S
C501 C502 1.287 . S
C502 C501 1.287 . S
C502 C503 1.524 . S
C502 H521 0.913 . S
C503 H479 0.950 . S
C503 C502 1.524 . S
C503 C504 1.415 . S
C504 H480 0.950 . S
C504 C499 1.363 . S
C504 C503 1.415 . S
C505 H481 0.951 . S
C505 C506 1.366 . S
C505 C507 1.388 . S
C506 C505 1.366 . S
C506 C510 1.385 . S
C507 H482 0.951 . S
C507 C505 1.388 . S
C507 C508 1.366 . S
C508 C507 1.366 . S
C508 C509 1.414 . S
C508 C511 1.499 . S
C509 H483 0.950 . S
C509 C508 1.414 . S
C509 C510 1.374 . S
C510 H484 0.950 . S
C510 C506 1.385 . S
C510 C509 1.374 . S
C511 C508 1.499 . S
C511 C512 1.373 . S
C511 C513 1.389 . S
C512 H485 0.950 . S
C512 C498 1.377 . S
C512 C511 1.373 . S
C513 C497 1.377 . S
C513 C511 1.389 . S
C513 C514 1.524 . S
C514 C513 1.524 . S
C514 C515 1.397 . S
C514 C519 1.363 . S
C515 H486 0.950 . S
C515 C514 1.397 . S
C515 C516 1.334 . S
C516 H487 0.950 . S
C516 C515 1.334 . S
C516 C517 1.287 . S
C517 C516 1.287 . S
C517 C518 1.524 . S
C517 H520 0.999 . S
C518 H488 0.950 . S
C518 C517 1.524 . S
C518 C519 1.415 . S
C519 H489 0.950 . S
C519 C514 1.363 . S
C519 C518 1.415 . S
H520 C517 0.999 . S
H521 C502 0.913 . S
H522 C540 0.951 . S
H523 C542 0.951 . S
H524 C544 0.950 . S
H525 C545 0.950 . S
H526 C547 0.950 . S
H527 C550 0.950 . S
H528 C551 0.950 . S
H529 C553 0.950 . S
H530 C554 0.950 . S
H531 C555 0.951 . S
H532 C557 0.951 . S
H533 C559 0.950 . S
H534 C560 0.950 . S
H535 C562 0.950 . S
H536 C565 0.950 . S
H537 C566 0.950 . S
H538 C568 0.950 . S
H539 C569 0.950 . S
C540 H522 0.951 . S
C540 C541 1.366 . S
C540 C542 1.388 . S
C541 C540 1.366 . S
C541 C545 1.385 . S
C542 H523 0.951 . S
C542 C540 1.388 . S
C542 C543 1.366 . S
C543 C542 1.366 . S
C543 C544 1.414 . S
C543 C546 1.499 . S
C544 H524 0.950 . S
C544 C543 1.414 . S
C544 C545 1.374 . S
C545 H525 0.950 . S
C545 C541 1.385 . S
C545 C544 1.374 . S
C546 C543 1.499 . S
C546 C547 1.373 . S
C546 C548 1.389 . S
C547 H526 0.950 . S
C547 C546 1.373 . S
C547 C563 1.377 . S
C548 C546 1.389 . S
C548 C549 1.524 . S
C548 C562 1.377 . S
C549 C548 1.524 . S
C549 C550 1.397 . S
C549 C554 1.363 . S
C550 H527 0.950 . S
C550 C549 1.397 . S
C550 C551 1.334 . S
C551 H528 0.950 . S
C551 C550 1.334 . S
C551 C552 1.287 . S
C552 C551 1.287 . S
C552 C553 1.524 . S
C552 H571 0.913 . S
C553 H529 0.950 . S
C553 C552 1.524 . S
C553 C554 1.415 . S
C554 H530 0.950 . S
C554 C549 1.363 . S
C554 C553 1.415 . S
C555 H531 0.951 . S
C555 C556 1.366 . S
C555 C557 1.388 . S
C556 C555 1.366 . S
C556 C560 1.385 . S
C557 H532 0.951 . S
C557 C555 1.388 . S
C557 C558 1.366 . S
C558 C557 1.366 . S
C558 C559 1.414 . S
C558 C561 1.499 . S
C559 H533 0.950 . S
C559 C558 1.414 . S
C559 C560 1.374 . S
C560 H534 0.950 . S
C560 C556 1.385 . S
C560 C559 1.374 . S
C561 C558 1.499 . S
C561 C562 1.373 . S
C561 C563 1.389 . S
C562 H535 0.950 . S
C562 C548 1.377 . S
C562 C561 1.373 . S
C563 C547 1.377 . S
C563 C561 1.389 . S
C563 C564 1.524 . S
C564 C563 1.524 . S
C564 C565 1.397 . S
C564 C569 1.363 . S
C565 H536 0.950 . S
C565 C564 1.397 . S
C565 C566 1.334 . S
C566 H537 0.950 . S
C566 C565 1.334 . S
C566 C567 1.287 . S
C567 C566 1.287 . S
C567 C568 1.524 . S
C567 H570 0.999 . S
C568 H538 0.950 . S
C568 C567 1.524 . S
C568 C569 1.415 . S
C569 H539 0.950 . S
C569 C564 1.363 . S
C569 C568 1.415 . S
H570 C567 0.999 . S
H571 C552 0.913 . S
H572 C590 0.951 . S
H573 C592 0.951 . S
H574 C594 0.950 . S
H575 C595 0.950 . S
H576 C597 0.950 . S
H577 C600 0.950 . S
H578 C601 0.950 . S
H579 C603 0.950 . S
H580 C604 0.950 . S
H581 C605 0.951 . S
H582 C607 0.951 . S
H583 C609 0.950 . S
H584 C610 0.950 . S
H585 C612 0.950 . S
H586 C615 0.950 . S
H587 C616 0.950 . S
H588 C618 1.010 . S
H589 C619 0.950 . S
C590 H572 0.951 . S
C590 C591 1.366 . S
C590 C592 1.388 . S
C591 C590 1.366 . S
C591 C595 1.385 . S
C592 H573 0.951 . S
C592 C590 1.388 . S
C592 C593 1.366 . S
C593 C592 1.366 . S
C593 C594 1.414 . S
C593 C596 1.499 . S
C594 H574 0.950 . S
C594 C593 1.414 . S
C594 C595 1.374 . S
C595 H575 0.950 . S
C595 C591 1.385 . S
C595 C594 1.374 . S
C596 C593 1.499 . S
C596 C597 1.373 . S
C596 C598 1.389 . S
C597 H576 0.950 . S
C597 C596 1.373 . S
C597 C613 1.377 . S
C598 C596 1.389 . S
C598 C599 1.524 . S
C598 C612 1.377 . S
C599 C598 1.524 . S
C599 C600 1.397 . S
C599 C604 1.363 . S
C600 H577 0.950 . S
C600 C599 1.397 . S
C600 C601 1.334 . S
C601 H578 0.950 . S
C601 C600 1.334 . S
C601 C602 1.287 . S
C602 C601 1.287 . S
C602 C603 1.524 . S
C602 H621 0.913 . S
C603 H579 0.950 . S
C603 C602 1.524 . S
C603 C604 1.415 . S
C604 H580 0.950 . S
C604 C599 1.363 . S
C604 C603 1.415 . S
C605 H581 0.951 . S
C605 C606 1.366 . S
C605 C607 1.388 . S
C606 C605 1.366 . S
C606 C610 1.385 . S
C607 H582 0.951 . S
C607 C605 1.388 . S
C607 C608 1.366 . S
C608 C607 1.366 . S
C608 C609 1.414 . S
C608 C611 1.499 . S
C609 H583 0.950 . S
C609 C608 1.414 . S
C609 C610 1.374 . S
C610 H584 0.950 . S
C610 C606 1.385 . S
C610 C609 1.374 . S
C611 C608 1.499 . S
C611 C612 1.373 . S
C611 C613 1.389 . S
C612 H585 0.950 . S
C612 C598 1.377 . S
C612 C611 1.373 . S
C613 C597 1.377 . S
C613 C611 1.389 . S
C613 C614 1.524 . S
C614 C613 1.524 . S
C614 C615 1.397 . S
C614 C619 1.363 . S
C615 H586 0.950 . S
C615 C614 1.397 . S
C615 C616 1.334 . S
C616 H587 0.950 . S
C616 C615 1.334 . S
C616 C617 1.287 . S
C617 C616 1.287 . S
C617 C618 1.491 1_556 S
C617 H620 0.999 . S
C618 H588 1.010 . S
C618 C617 1.491 1_554 S
C618 C619 1.381 1_554 S
C619 H589 0.950 . S
C619 C614 1.363 . S
C619 C618 1.381 1_556 S
H620 C617 0.999 . S
H621 C602 0.913 . S
H622 C640 0.951 . S
H623 C642 0.951 . S
H624 C644 0.950 . S
H625 C645 0.950 . S
H626 C647 0.950 . S
H627 C650 0.950 . S
H628 C651 0.950 . S
H629 C653 0.950 . S
H630 C654 0.950 . S
H631 C655 0.951 . S
H632 C657 0.951 . S
H633 C659 0.950 . S
H634 C660 0.950 . S
H635 C662 0.950 . S
H636 C665 0.950 . S
H637 C666 0.950 . S
H638 C668 0.950 . S
H639 C669 0.950 . S
C640 H622 0.951 . S
C640 C641 1.366 . S
C640 C642 1.388 . S
C641 C640 1.366 . S
C641 C645 1.385 . S
C642 H623 0.951 . S
C642 C640 1.388 . S
C642 C643 1.366 . S
C643 C642 1.366 . S
C643 C644 1.414 . S
C643 C646 1.499 . S
C644 H624 0.950 . S
C644 C643 1.414 . S
C644 C645 1.374 . S
C645 H625 0.950 . S
C645 C641 1.385 . S
C645 C644 1.374 . S
C646 C643 1.499 . S
C646 C647 1.373 . S
C646 C648 1.389 . S
C647 H626 0.950 . S
C647 C646 1.373 . S
C647 C663 1.377 . S
C648 C646 1.389 . S
C648 C649 1.524 . S
C648 C662 1.377 . S
C649 C648 1.524 . S
C649 C650 1.397 . S
C649 C654 1.363 . S
C650 H627 0.950 . S
C650 C649 1.397 . S
C650 C651 1.334 . S
C651 H628 0.950 . S
C651 C650 1.334 . S
C651 C652 1.287 . S
C652 C651 1.287 . S
C652 C653 1.524 . S
C652 H671 0.913 . S
C653 H629 0.950 . S
C653 C652 1.524 . S
C653 C654 1.415 . S
C654 H630 0.950 . S
C654 C649 1.363 . S
C654 C653 1.415 . S
C655 H631 0.951 . S
C655 C656 1.366 . S
C655 C657 1.388 . S
C656 C655 1.366 . S
C656 C660 1.385 . S
C657 H632 0.951 . S
C657 C655 1.388 . S
C657 C658 1.366 . S
C658 C657 1.366 . S
C658 C659 1.414 . S
C658 C661 1.499 . S
C659 H633 0.950 . S
C659 C658 1.414 . S
C659 C660 1.374 . S
C660 H634 0.950 . S
C660 C656 1.385 . S
C660 C659 1.374 . S
C661 C658 1.499 . S
C661 C662 1.373 . S
C661 C663 1.389 . S
C662 H635 0.950 . S
C662 C648 1.377 . S
C662 C661 1.373 . S
C663 C647 1.377 . S
C663 C661 1.389 . S
C663 C664 1.524 . S
C664 C663 1.524 . S
C664 C665 1.397 . S
C664 C669 1.363 . S
C665 H636 0.950 . S
C665 C664 1.397 . S
C665 C666 1.334 . S
C666 H637 0.950 . S
C666 C665 1.334 . S
C666 C667 1.287 . S
C667 C666 1.287 . S
C667 C668 1.524 . S
C667 H670 0.999 . S
C668 H638 0.950 . S
C668 C667 1.524 . S
C668 C669 1.415 . S
C669 H639 0.950 . S
C669 C664 1.363 . S
C669 C668 1.415 . S
H670 C667 0.999 . S
H671 C652 0.913 . S
H672 C690 0.951 . S
H673 C692 0.951 . S
H674 C694 0.950 . S
H675 C695 0.950 . S
H676 C697 0.950 . S
H677 C700 0.950 . S
H678 C701 0.950 . S
H679 C703 0.950 . S
H680 C704 0.950 . S
H681 C705 0.951 . S
H682 C707 0.951 . S
H683 C709 0.950 . S
H684 C710 0.950 . S
H685 C712 0.950 . S
H686 C715 0.950 . S
H687 C716 0.950 . S
H688 C718 0.950 . S
H689 C719 0.950 . S
C690 H672 0.951 . S
C690 C691 1.366 . S
C690 C692 1.388 . S
C691 C690 1.366 . S
C691 C695 1.385 . S
C692 H673 0.951 . S
C692 C690 1.388 . S
C692 C693 1.366 . S
C693 C692 1.366 . S
C693 C694 1.414 . S
C693 C696 1.499 . S
C694 H674 0.950 . S
C694 C693 1.414 . S
C694 C695 1.374 . S
C695 H675 0.950 . S
C695 C691 1.385 . S
C695 C694 1.374 . S
C696 C693 1.499 . S
C696 C697 1.373 . S
C696 C698 1.389 . S
C697 H676 0.950 . S
C697 C696 1.373 . S
C697 C713 1.377 . S
C698 C696 1.389 . S
C698 C699 1.524 . S
C698 C712 1.377 . S
C699 C698 1.524 . S
C699 C700 1.397 . S
C699 C704 1.363 . S
C700 H677 0.950 . S
C700 C699 1.397 . S
C700 C701 1.334 . S
C701 H678 0.950 . S
C701 C700 1.334 . S
C701 C702 1.287 . S
C702 C701 1.287 . S
C702 C703 1.524 . S
C702 H721 0.913 . S
C703 H679 0.950 . S
C703 C702 1.524 . S
C703 C704 1.415 . S
C704 H680 0.950 . S
C704 C699 1.363 . S
C704 C703 1.415 . S
C705 H681 0.951 . S
C705 C706 1.366 . S
C705 C707 1.388 . S
C706 C705 1.366 . S
C706 C710 1.385 . S
C707 H682 0.951 . S
C707 C705 1.388 . S
C707 C708 1.366 . S
C708 C707 1.366 . S
C708 C709 1.414 . S
C708 C711 1.499 . S
C709 H683 0.950 . S
C709 C708 1.414 . S
C709 C710 1.374 . S
C710 H684 0.950 . S
C710 C706 1.385 . S
C710 C709 1.374 . S
C711 C708 1.499 . S
C711 C712 1.373 . S
C711 C713 1.389 . S
C712 H685 0.950 . S
C712 C698 1.377 . S
C712 C711 1.373 . S
C713 C697 1.377 . S
C713 C711 1.389 . S
C713 C714 1.524 . S
C714 C713 1.524 . S
C714 C715 1.397 . S
C714 C719 1.363 . S
C715 H686 0.950 . S
C715 C714 1.397 . S
C715 C716 1.334 . S
C716 H687 0.950 . S
C716 C715 1.334 . S
C716 C717 1.287 . S
C717 C716 1.287 . S
C717 C718 1.524 . S
C717 H720 0.999 . S
C718 H688 0.950 . S
C718 C717 1.524 . S
C718 C719 1.415 . S
C719 H689 0.950 . S
C719 C714 1.363 . S
C719 C718 1.415 . S
H720 C717 0.999 . S
H721 C702 0.913 . S
H722 C740 0.951 . S
H723 C742 0.951 . S
H724 C744 0.950 . S
H725 C745 0.950 . S
H726 C747 0.950 . S
H727 C750 0.950 . S
H728 C751 0.950 . S
H729 C753 0.950 . S
H730 C754 0.950 . S
H731 C755 0.951 . S
H732 C757 0.951 . S
H733 C759 0.950 . S
H734 C760 0.950 . S
H735 C762 0.950 . S
H736 C765 0.950 . S
H737 C766 0.950 . S
H738 C768 0.950 . S
H739 C769 0.950 . S
C740 H722 0.951 . S
C740 C741 1.366 . S
C740 C742 1.388 . S
C741 C740 1.366 . S
C741 C745 1.385 . S
C742 H723 0.951 . S
C742 C740 1.388 . S
C742 C743 1.366 . S
C743 C742 1.366 . S
C743 C744 1.414 . S
C743 C746 1.499 . S
C744 H724 0.950 . S
C744 C743 1.414 . S
C744 C745 1.374 . S
C745 H725 0.950 . S
C745 C741 1.385 . S
C745 C744 1.374 . S
C746 C743 1.499 . S
C746 C747 1.373 . S
C746 C748 1.389 . S
C747 H726 0.950 . S
C747 C746 1.373 . S
C747 C763 1.377 . S
C748 C746 1.389 . S
C748 C749 1.524 . S
C748 C762 1.377 . S
C749 C748 1.524 . S
C749 C750 1.397 . S
C749 C754 1.363 . S
C750 H727 0.950 . S
C750 C749 1.397 . S
C750 C751 1.334 . S
C751 H728 0.950 . S
C751 C750 1.334 . S
C751 C752 1.287 . S
C752 C751 1.287 . S
C752 C753 1.524 . S
C752 H771 0.913 . S
C753 H729 0.950 . S
C753 C752 1.524 . S
C753 C754 1.415 . S
C754 H730 0.950 . S
C754 C749 1.363 . S
C754 C753 1.415 . S
C755 H731 0.951 . S
C755 C756 1.366 . S
C755 C757 1.388 . S
C756 C755 1.366 . S
C756 C760 1.385 . S
C757 H732 0.951 . S
C757 C755 1.388 . S
C757 C758 1.366 . S
C758 C757 1.366 . S
C758 C759 1.414 . S
C758 C761 1.499 . S
C759 H733 0.950 . S
C759 C758 1.414 . S
C759 C760 1.374 . S
C760 H734 0.950 . S
C760 C756 1.385 . S
C760 C759 1.374 . S
C761 C758 1.499 . S
C761 C762 1.373 . S
C761 C763 1.389 . S
C762 H735 0.950 . S
C762 C748 1.377 . S
C762 C761 1.373 . S
C763 C747 1.377 . S
C763 C761 1.389 . S
C763 C764 1.524 . S
C764 C763 1.524 . S
C764 C765 1.397 . S
C764 C769 1.363 . S
C765 H736 0.950 . S
C765 C764 1.397 . S
C765 C766 1.334 . S
C766 H737 0.950 . S
C766 C765 1.334 . S
C766 C767 1.287 . S
C767 C766 1.287 . S
C767 C768 1.524 . S
C767 H770 0.999 . S
C768 H738 0.950 . S
C768 C767 1.524 . S
C768 C769 1.415 . S
C769 H739 0.950 . S
C769 C764 1.363 . S
C769 C768 1.415 . S
H770 C767 0.999 . S
H771 C752 0.913 . S
H772 C790 0.951 . S
H773 C792 0.951 . S
H774 C794 0.950 . S
H775 C795 0.950 . S
H776 C797 0.950 . S
H777 C800 0.950 . S
H778 C801 0.950 . S
H779 C803 0.950 . S
H780 C804 0.950 . S
H781 C805 0.951 . S
H782 C807 0.951 . S
H783 C809 0.950 . S
H784 C810 0.950 . S
H785 C812 0.950 . S
H786 C815 0.950 . S
H787 C816 0.950 . S
H788 C818 0.950 . S
H789 C819 0.950 . S
C790 H772 0.951 . S
C790 C791 1.366 . S
C790 C792 1.388 . S
C791 C790 1.366 . S
C791 C795 1.385 . S
C792 H773 0.951 . S
C792 C790 1.388 . S
C792 C793 1.366 . S
C793 C792 1.366 . S
C793 C794 1.414 . S
C793 C796 1.499 . S
C794 H774 0.950 . S
C794 C793 1.414 . S
C794 C795 1.374 . S
C795 H775 0.950 . S
C795 C791 1.385 . S
C795 C794 1.374 . S
C796 C793 1.499 . S
C796 C797 1.373 . S
C796 C798 1.389 . S
C797 H776 0.950 . S
C797 C796 1.373 . S
C797 C813 1.377 . S
C798 C796 1.389 . S
C798 C799 1.524 . S
C798 C812 1.377 . S
C799 C798 1.524 . S
C799 C800 1.397 . S
C799 C804 1.363 . S
C800 H777 0.950 . S
C800 C799 1.397 . S
C800 C801 1.334 . S
C801 H778 0.950 . S
C801 C800 1.334 . S
C801 C802 1.287 . S
C802 C801 1.287 . S
C802 C803 1.524 . S
C802 H821 0.913 . S
C803 H779 0.950 . S
C803 C802 1.524 . S
C803 C804 1.415 . S
C804 H780 0.950 . S
C804 C799 1.363 . S
C804 C803 1.415 . S
C805 H781 0.951 . S
C805 C806 1.366 . S
C805 C807 1.388 . S
C806 C805 1.366 . S
C806 C810 1.385 . S
C807 H782 0.951 . S
C807 C805 1.388 . S
C807 C808 1.366 . S
C808 C807 1.366 . S
C808 C809 1.414 . S
C808 C811 1.499 . S
C809 H783 0.950 . S
C809 C808 1.414 . S
C809 C810 1.374 . S
C810 H784 0.950 . S
C810 C806 1.385 . S
C810 C809 1.374 . S
C811 C808 1.499 . S
C811 C812 1.373 . S
C811 C813 1.389 . S
C812 H785 0.950 . S
C812 C798 1.377 . S
C812 C811 1.373 . S
C813 C797 1.377 . S
C813 C811 1.389 . S
C813 C814 1.524 . S
C814 C813 1.524 . S
C814 C815 1.397 . S
C814 C819 1.363 . S
C815 H786 0.950 . S
C815 C814 1.397 . S
C815 C816 1.334 . S
C816 H787 0.950 . S
C816 C815 1.334 . S
C816 C817 1.287 . S
C817 C816 1.287 . S
C817 C818 1.524 . S
C817 H820 0.999 . S
C818 H788 0.950 . S
C818 C817 1.524 . S
C818 C819 1.415 . S
C819 H789 0.950 . S
C819 C814 1.363 . S
C819 C818 1.415 . S
H820 C817 0.999 . S
H821 C802 0.913 . S
H822 C840 0.951 . S
H823 C842 0.951 . S
H824 C844 0.950 . S
H825 C845 0.950 1_556 S
H826 C847 0.950 . S
H827 C850 0.950 . S
H828 C851 0.950 . S
H829 C853 0.950 . S
H830 C854 0.950 . S
H831 C855 0.951 . S
H832 C857 0.951 . S
H833 C859 0.950 . S
H834 C860 0.950 . S
H835 C862 0.950 . S
H836 C865 0.950 . S
H837 C866 0.950 . S
H838 C868 0.950 . S
H839 C869 0.950 . S
C840 H822 0.951 . S
C840 C841 1.366 . S
C840 C842 1.388 . S
C841 C840 1.366 . S
C841 C845 1.385 . S
C842 H823 0.951 . S
C842 C840 1.388 . S
C842 C843 1.366 . S
C843 C842 1.366 . S
C843 C844 1.414 . S
C843 C846 1.499 . S
C844 H824 0.950 . S
C844 C843 1.414 . S
C844 C845 1.374 . S
C845 H825 0.950 1_554 S
C845 C841 1.385 . S
C845 C844 1.374 . S
C846 C843 1.499 . S
C846 C847 1.373 . S
C846 C848 1.389 . S
C847 H826 0.950 . S
C847 C846 1.373 . S
C847 C863 1.377 . S
C848 C846 1.389 . S
C848 C849 1.524 . S
C848 C862 1.377 . S
C849 C848 1.524 . S
C849 C850 1.397 . S
C849 C854 1.363 . S
C850 H827 0.950 . S
C850 C849 1.397 . S
C850 C851 1.334 . S
C851 H828 0.950 . S
C851 C850 1.334 . S
C851 C852 1.287 . S
C852 C851 1.287 . S
C852 C853 1.524 . S
C852 H871 0.913 . S
C853 H829 0.950 . S
C853 C852 1.524 . S
C853 C854 1.415 . S
C854 H830 0.950 . S
C854 C849 1.363 . S
C854 C853 1.415 . S
C855 H831 0.951 . S
C855 C856 1.366 . S
C855 C857 1.388 . S
C856 C855 1.366 . S
C856 C860 1.385 . S
C857 H832 0.951 . S
C857 C855 1.388 . S
C857 C858 1.366 . S
C858 C857 1.366 . S
C858 C859 1.414 . S
C858 C861 1.499 . S
C859 H833 0.950 . S
C859 C858 1.414 . S
C859 C860 1.374 . S
C860 H834 0.950 . S
C860 C856 1.385 . S
C860 C859 1.374 . S
C861 C858 1.499 . S
C861 C862 1.373 . S
C861 C863 1.389 . S
C862 H835 0.950 . S
C862 C848 1.377 . S
C862 C861 1.373 . S
C863 C847 1.377 . S
C863 C861 1.389 . S
C863 C864 1.524 . S
C864 C863 1.524 . S
C864 C865 1.397 . S
C864 C869 1.363 1_554 S
C865 H836 0.950 . S
C865 C864 1.397 . S
C865 C866 1.334 . S
C866 H837 0.950 . S
C866 C865 1.334 . S
C866 C867 1.287 1_554 S
C867 C866 1.287 1_556 S
C867 C868 1.524 . S
C867 H870 0.999 . S
C868 H838 0.950 . S
C868 C867 1.524 . S
C868 C869 1.415 . S
C869 H839 0.950 . S
C869 C864 1.363 1_556 S
C869 C868 1.415 . S
H870 C867 0.999 . S
H871 C852 0.913 . S
H872 C890 0.951 . S
H873 C892 0.951 . S
H874 C894 0.950 . S
H875 C895 0.950 . S
H876 C897 0.950 . S
H877 C900 0.950 . S
H878 C901 0.950 . S
H879 C903 0.950 . S
H880 C904 0.950 . S
H881 C905 0.951 . S
H882 C907 0.951 . S
H883 C909 0.950 . S
H884 C910 0.950 . S
H885 C912 0.950 . S
H886 C915 0.950 . S
H887 C916 0.950 . S
H888 C918 0.950 . S
H889 C919 0.950 . S
C890 H872 0.951 . S
C890 C891 1.366 . S
C890 C892 1.388 . S
C891 C890 1.366 . S
C891 C895 1.385 . S
C892 H873 0.951 . S
C892 C890 1.388 . S
C892 C893 1.366 . S
C893 C892 1.366 . S
C893 C894 1.414 . S
C893 C896 1.499 . S
C894 H874 0.950 . S
C894 C893 1.414 . S
C894 C895 1.374 . S
C895 H875 0.950 . S
C895 C891 1.385 . S
C895 C894 1.374 . S
C896 C893 1.499 . S
C896 C897 1.373 . S
C896 C898 1.389 . S
C897 H876 0.950 . S
C897 C896 1.373 . S
C897 C913 1.377 . S
C898 C896 1.389 . S
C898 C899 1.524 . S
C898 C912 1.377 . S
C899 C898 1.524 . S
C899 C900 1.397 . S
C899 C904 1.363 . S
C900 H877 0.950 . S
C900 C899 1.397 . S
C900 C901 1.334 . S
C901 H878 0.950 . S
C901 C900 1.334 . S
C901 C902 1.287 . S
C902 C901 1.287 . S
C902 C903 1.524 . S
C902 H921 0.913 . S
C903 H879 0.950 . S
C903 C902 1.524 . S
C903 C904 1.415 . S
C904 H880 0.950 . S
C904 C899 1.363 . S
C904 C903 1.415 . S
C905 H881 0.951 . S
C905 C906 1.366 . S
C905 C907 1.388 . S
C906 C905 1.366 . S
C906 C910 1.385 . S
C907 H882 0.951 . S
C907 C905 1.388 . S
C907 C908 1.366 . S
C908 C907 1.366 . S
C908 C909 1.414 . S
C908 C911 1.499 . S
C909 H883 0.950 . S
C909 C908 1.414 . S
C909 C910 1.374 . S
C910 H884 0.950 . S
C910 C906 1.385 . S
C910 C909 1.374 . S
C911 C908 1.499 . S
C911 C912 1.373 . S
C911 C913 1.389 . S
C912 H885 0.950 . S
C912 C898 1.377 . S
C912 C911 1.373 . S
C913 C897 1.377 . S
C913 C911 1.389 . S
C913 C914 1.524 . S
C914 C913 1.524 . S
C914 C915 1.397 . S
C914 C919 1.363 . S
C915 H886 0.950 . S
C915 C914 1.397 . S
C915 C916 1.334 . S
C916 H887 0.950 . S
C916 C915 1.334 . S
C916 C917 1.287 . S
C917 C916 1.287 . S
C917 C918 1.524 . S
C917 H920 0.999 . S
C918 H888 0.950 . S
C918 C917 1.524 . S
C918 C919 1.415 . S
C919 H889 0.950 . S
C919 C914 1.363 . S
C919 C918 1.415 . S
H920 C917 0.999 . S
H921 C902 0.913 . S
H922 C940 0.951 . S
H923 C942 0.951 . S
H924 C944 0.950 . S
H925 C945 0.950 . S
H926 C947 0.950 . S
H927 C950 0.950 . S
H928 C951 0.950 . S
H929 C953 0.950 . S
H930 C954 0.950 . S
H931 C955 0.951 . S
H932 C957 0.951 . S
H933 C959 0.950 . S
H934 C960 0.950 . S
H935 C962 0.950 . S
H936 C965 0.950 . S
H937 C966 0.950 . S
H938 C968 0.950 . S
H939 C969 0.950 . S
C940 H922 0.951 . S
C940 C941 1.366 . S
C940 C942 1.388 . S
C941 C940 1.366 . S
C941 C945 1.385 . S
C942 H923 0.951 . S
C942 C940 1.388 . S
C942 C943 1.366 . S
C943 C942 1.366 . S
C943 C944 1.414 . S
C943 C946 1.499 . S
C944 H924 0.950 . S
C944 C943 1.414 . S
C944 C945 1.374 . S
C945 H925 0.950 . S
C945 C941 1.385 . S
C945 C944 1.374 . S
C946 C943 1.499 . S
C946 C947 1.373 . S
C946 C948 1.389 . S
C947 H926 0.950 . S
C947 C946 1.373 . S
C947 C963 1.377 . S
C948 C946 1.389 . S
C948 C949 1.524 . S
C948 C962 1.377 . S
C949 C948 1.524 . S
C949 C950 1.397 . S
C949 C954 1.363 . S
C950 H927 0.950 . S
C950 C949 1.397 . S
C950 C951 1.334 . S
C951 H928 0.950 . S
C951 C950 1.334 . S
C951 C952 1.287 . S
C952 C951 1.287 . S
C952 C953 1.524 . S
C952 H971 0.913 . S
C953 H929 0.950 . S
C953 C952 1.524 . S
C953 C954 1.415 . S
C954 H930 0.950 . S
C954 C949 1.363 . S
C954 C953 1.415 . S
C955 H931 0.951 . S
C955 C956 1.366 . S
C955 C957 1.388 . S
C956 C955 1.366 . S
C956 C960 1.385 . S
C957 H932 0.951 . S
C957 C955 1.388 . S
C957 C958 1.366 . S
C958 C957 1.366 . S
C958 C959 1.414 . S
C958 C961 1.499 . S
C959 H933 0.950 . S
C959 C958 1.414 . S
C959 C960 1.374 . S
C960 H934 0.950 . S
C960 C956 1.385 . S
C960 C959 1.374 . S
C961 C958 1.499 . S
C961 C962 1.373 . S
C961 C963 1.389 . S
C962 H935 0.950 . S
C962 C948 1.377 . S
C962 C961 1.373 . S
C963 C947 1.377 . S
C963 C961 1.389 . S
C963 C964 1.524 . S
C964 C963 1.524 . S
C964 C965 1.397 . S
C964 C969 1.363 . S
C965 H936 0.950 . S
C965 C964 1.397 . S
C965 C966 1.334 . S
C966 H937 0.950 . S
C966 C965 1.334 . S
C966 C967 1.287 . S
C967 C966 1.287 . S
C967 C968 1.524 . S
C967 H970 0.999 . S
C968 H938 0.950 . S
C968 C967 1.524 . S
C968 C969 1.415 . S
C969 H939 0.950 . S
C969 C964 1.363 . S
C969 C968 1.415 . S
H970 C967 0.999 . S
H971 C952 0.913 . S
H972 C990 0.951 . S
H973 C992 0.951 . S
H974 C994 0.950 . S
H975 C995 0.950 . S
H976 C997 0.950 . S
H977 C1000 0.950 . S
H978 C1001 0.950 . S
H979 C1003 0.950 . S
H980 C1004 0.950 . S
H981 C1005 0.951 . S
H982 C1007 0.951 . S
H983 C1009 0.950 . S
H984 C1010 0.950 . S
H985 C1012 0.950 . S
H986 C1015 0.950 . S
H987 C1016 0.950 . S
H988 C1018 0.950 . S
H989 C1019 0.950 . S
C990 H972 0.951 . S
C990 C991 1.366 . S
C990 C992 1.388 . S
C991 C990 1.366 . S
C991 C995 1.385 . S
C992 H973 0.951 . S
C992 C990 1.388 . S
C992 C993 1.366 . S
C993 C992 1.366 . S
C993 C994 1.414 . S
C993 C996 1.499 . S
C994 H974 0.950 . S
C994 C993 1.414 . S
C994 C995 1.374 . S
C995 H975 0.950 . S
C995 C991 1.385 . S
C995 C994 1.374 . S
C996 C993 1.499 . S
C996 C997 1.373 . S
C996 C998 1.389 . S
C997 H976 0.950 . S
C997 C996 1.373 . S
C997 C1013 1.377 . S
C998 C996 1.389 . S
C998 C999 1.524 . S
C998 C1012 1.377 . S
C999 C998 1.524 . S
C999 C1000 1.397 . S
C999 C1004 1.363 . S
C1000 H977 0.950 . S
C1000 C999 1.397 . S
C1000 C1001 1.334 . S
C1001 H978 0.950 . S
C1001 C1000 1.334 . S
C1001 C1002 1.287 . S
C1002 C1001 1.287 . S
C1002 C1003 1.524 . S
C1002 H1021 0.913 . S
C1003 H979 0.950 . S
C1003 C1002 1.524 . S
C1003 C1004 1.415 . S
C1004 H980 0.950 . S
C1004 C999 1.363 . S
C1004 C1003 1.415 . S
C1005 H981 0.951 . S
C1005 C1006 1.366 . S
C1005 C1007 1.388 . S
C1006 C1005 1.366 . S
C1006 C1010 1.385 . S
C1007 H982 0.951 . S
C1007 C1005 1.388 . S
C1007 C1008 1.366 . S
C1008 C1007 1.366 . S
C1008 C1009 1.414 . S
C1008 C1011 1.499 . S
C1009 H983 0.950 . S
C1009 C1008 1.414 . S
C1009 C1010 1.374 . S
C1010 H984 0.950 . S
C1010 C1006 1.385 . S
C1010 C1009 1.374 . S
C1011 C1008 1.499 . S
C1011 C1012 1.373 . S
C1011 C1013 1.389 . S
C1012 H985 0.950 . S
C1012 C998 1.377 . S
C1012 C1011 1.373 . S
C1013 C997 1.377 . S
C1013 C1011 1.389 . S
C1013 C1014 1.524 . S
C1014 C1013 1.524 . S
C1014 C1015 1.397 . S
C1014 C1019 1.363 . S
C1015 H986 0.950 . S
C1015 C1014 1.397 . S
C1015 C1016 1.334 . S
C1016 H987 0.950 . S
C1016 C1015 1.334 . S
C1016 C1017 1.287 . S
C1017 C1016 1.287 . S
C1017 C1018 1.524 . S
C1017 H1020 0.999 . S
C1018 H988 0.950 . S
C1018 C1017 1.524 . S
C1018 C1019 1.415 . S
C1019 H989 0.950 . S
C1019 C1014 1.363 . S
C1019 C1018 1.415 . S
H1020 C1017 0.999 . S
H1021 C1002 0.913 . S
H1022 C1040 0.951 . S
H1023 C1042 0.951 . S
H1024 C1044 0.950 . S
H1025 C1045 0.950 . S
H1026 C1047 0.950 . S
H1027 C1050 0.950 . S
H1028 C1051 0.950 . S
H1029 C1053 0.950 . S
H1030 C1054 0.950 . S
H1031 C1055 0.951 . S
H1032 C1057 0.951 . S
H1033 C1059 0.950 . S
H1034 C1060 0.950 . S
H1035 C1062 0.950 . S
H1036 C1065 0.950 . S
H1037 C1066 0.950 . S
H1038 C1068 0.950 . S
H1039 C1069 0.950 . S
C1040 H1022 0.951 . S
C1040 C1041 1.366 . S
C1040 C1042 1.388 . S
C1041 C1040 1.366 . S
C1041 C1045 1.385 . S
C1042 H1023 0.951 . S
C1042 C1040 1.388 . S
C1042 C1043 1.366 . S
C1043 C1042 1.366 . S
C1043 C1044 1.414 . S
C1043 C1046 1.499 . S
C1044 H1024 0.950 . S
C1044 C1043 1.414 . S
C1044 C1045 1.374 . S
C1045 H1025 0.950 . S
C1045 C1041 1.385 . S
C1045 C1044 1.374 . S
C1046 C1043 1.499 . S
C1046 C1047 1.373 . S
C1046 C1048 1.389 . S
C1047 H1026 0.950 . S
C1047 C1046 1.373 . S
C1047 C1063 1.377 . S
C1048 C1046 1.389 . S
C1048 C1049 1.524 . S
C1048 C1062 1.377 . S
C1049 C1048 1.524 . S
C1049 C1050 1.397 . S
C1049 C1054 1.363 . S
C1050 H1027 0.950 . S
C1050 C1049 1.397 . S
C1050 C1051 1.334 . S
C1051 H1028 0.950 . S
C1051 C1050 1.334 . S
C1051 C1052 1.287 . S
C1052 C1051 1.287 . S
C1052 C1053 1.524 . S
C1052 H1071 0.913 . S
C1053 H1029 0.950 . S
C1053 C1052 1.524 . S
C1053 C1054 1.415 . S
C1054 H1030 0.950 . S
C1054 C1049 1.363 . S
C1054 C1053 1.415 . S
C1055 H1031 0.951 . S
C1055 C1056 1.366 . S
C1055 C1057 1.388 . S
C1056 C1055 1.366 . S
C1056 C1060 1.385 . S
C1057 H1032 0.951 . S
C1057 C1055 1.388 . S
C1057 C1058 1.366 . S
C1058 C1057 1.366 . S
C1058 C1059 1.414 . S
C1058 C1061 1.499 . S
C1059 H1033 0.950 . S
C1059 C1058 1.414 . S
C1059 C1060 1.374 . S
C1060 H1034 0.950 . S
C1060 C1056 1.385 . S
C1060 C1059 1.374 . S
C1061 C1058 1.499 . S
C1061 C1062 1.373 . S
C1061 C1063 1.389 . S
C1062 H1035 0.950 . S
C1062 C1048 1.377 . S
C1062 C1061 1.373 . S
C1063 C1047 1.377 . S
C1063 C1061 1.389 . S
C1063 C1064 1.524 . S
C1064 C1063 1.524 . S
C1064 C1065 1.397 . S
C1064 C1069 1.363 . S
C1065 H1036 0.950 . S
C1065 C1064 1.397 . S
C1065 C1066 1.334 . S
C1066 H1037 0.950 . S
C1066 C1065 1.334 . S
C1066 C1067 1.287 . S
C1067 C1066 1.287 . S
C1067 C1068 1.524 . S
C1067 H1070 0.999 . S
C1068 H1038 0.950 . S
C1068 C1067 1.524 . S
C1068 C1069 1.415 . S
C1069 H1039 0.950 . S
C1069 C1064 1.363 . S
C1069 C1068 1.415 . S
H1070 C1067 0.999 . S
H1071 C1052 0.913 . S
H1072 C1090 0.951 . S
H1073 C1092 0.951 . S
H1074 C1094 0.950 . S
H1075 C1095 0.950 . S
H1076 C1097 0.950 . S
H1077 C1100 0.950 . S
H1078 C1101 0.950 . S
H1079 C1103 0.950 . S
H1080 C1104 0.950 . S
H1081 C1105 0.951 . S
H1082 C1107 0.951 . S
H1083 C1109 0.950 . S
H1084 C1110 0.950 . S
H1085 C1112 0.950 . S
H1086 C1115 0.950 . S
H1087 C1116 0.950 . S
H1088 C1118 0.950 . S
H1089 C1119 0.950 . S
C1090 H1072 0.951 . S
C1090 C1091 1.366 . S
C1090 C1092 1.388 . S
C1091 C1090 1.366 . S
C1091 C1095 1.385 . S
C1092 H1073 0.951 . S
C1092 C1090 1.388 . S
C1092 C1093 1.366 . S
C1093 C1092 1.366 . S
C1093 C1094 1.414 . S
C1093 C1096 1.499 . S
C1094 H1074 0.950 . S
C1094 C1093 1.414 . S
C1094 C1095 1.374 . S
C1095 H1075 0.950 . S
C1095 C1091 1.385 . S
C1095 C1094 1.374 . S
C1096 C1093 1.499 . S
C1096 C1097 1.373 . S
C1096 C1098 1.389 . S
C1097 H1076 0.950 . S
C1097 C1096 1.373 . S
C1097 C1113 1.377 . S
C1098 C1096 1.389 . S
C1098 C1099 1.524 . S
C1098 C1112 1.377 . S
C1099 C1098 1.524 . S
C1099 C1100 1.397 . S
C1099 C1104 1.363 . S
C1100 H1077 0.950 . S
C1100 C1099 1.397 . S
C1100 C1101 1.334 . S
C1101 H1078 0.950 . S
C1101 C1100 1.334 . S
C1101 C1102 1.287 . S
C1102 C1101 1.287 . S
C1102 C1103 1.524 . S
C1102 H1121 0.913 . S
C1103 H1079 0.950 . S
C1103 C1102 1.524 . S
C1103 C1104 1.415 . S
C1104 H1080 0.950 . S
C1104 C1099 1.363 . S
C1104 C1103 1.415 . S
C1105 H1081 0.951 . S
C1105 C1106 1.366 . S
C1105 C1107 1.388 . S
C1106 C1105 1.366 . S
C1106 C1110 1.385 . S
C1107 H1082 0.951 . S
C1107 C1105 1.388 . S
C1107 C1108 1.366 . S
C1108 C1107 1.366 . S
C1108 C1109 1.414 . S
C1108 C1111 1.499 . S
C1109 H1083 0.950 . S
C1109 C1108 1.414 . S
C1109 C1110 1.374 . S
C1110 H1084 0.950 . S
C1110 C1106 1.385 . S
C1110 C1109 1.374 . S
C1111 C1108 1.499 . S
C1111 C1112 1.373 . S
C1111 C1113 1.389 . S
C1112 H1085 0.950 . S
C1112 C1098 1.377 . S
C1112 C1111 1.373 . S
C1113 C1097 1.377 . S
C1113 C1111 1.389 . S
C1113 C1114 1.524 . S
C1114 C1113 1.524 . S
C1114 C1115 1.397 . S
C1114 C1119 1.363 . S
C1115 H1086 0.950 . S
C1115 C1114 1.397 . S
C1115 C1116 1.334 . S
C1116 H1087 0.950 . S
C1116 C1115 1.334 . S
C1116 C1117 1.287 . S
C1117 C1116 1.287 . S
C1117 C1118 1.524 . S
C1117 H1120 0.999 . S
C1118 H1088 0.950 . S
C1118 C1117 1.524 . S
C1118 C1119 1.415 . S
C1119 H1089 0.950 . S
C1119 C1114 1.363 . S
C1119 C1118 1.415 . S
H1120 C1117 0.999 . S
H1121 C1102 0.913 . S
H1122 C1140 0.951 . S
H1123 C1142 0.951 . S
H1124 C1144 0.950 . S
H1125 C1145 0.950 . S
H1126 C1147 0.950 . S
H1127 C1150 0.950 . S
H1128 C1151 0.950 . S
H1129 C1153 0.950 . S
H1130 C1154 0.950 . S
H1131 C1155 0.951 . S
H1132 C1157 0.951 . S
H1133 C1159 0.950 1_556 S
H1134 C1160 0.950 . S
H1135 C1162 0.950 . S
H1136 C1165 0.950 . S
H1137 C1166 0.950 . S
H1138 C1168 0.950 . S
H1139 C1169 0.950 . S
C1140 H1122 0.951 . S
C1140 C1141 1.366 . S
C1140 C1142 1.388 . S
C1141 C1140 1.366 . S
C1141 C1145 1.385 . S
C1142 H1123 0.951 . S
C1142 C1140 1.388 . S
C1142 C1143 1.366 . S
C1143 C1142 1.366 . S
C1143 C1144 1.414 . S
C1143 C1146 1.499 . S
C1144 H1124 0.950 . S
C1144 C1143 1.414 . S
C1144 C1145 1.374 . S
C1145 H1125 0.950 . S
C1145 C1141 1.385 . S
C1145 C1144 1.374 . S
C1146 C1143 1.499 . S
C1146 C1147 1.373 . S
C1146 C1148 1.389 . S
C1147 H1126 0.950 . S
C1147 C1146 1.373 . S
C1147 C1163 1.377 . S
C1148 C1146 1.389 . S
C1148 C1149 1.524 . S
C1148 C1162 1.377 . S
C1149 C1148 1.524 . S
C1149 C1150 1.397 . S
C1149 C1154 1.363 . S
C1150 H1127 0.950 . S
C1150 C1149 1.397 . S
C1150 C1151 1.334 . S
C1151 H1128 0.950 . S
C1151 C1150 1.334 . S
C1151 C1152 1.287 . S
C1152 C1151 1.287 . S
C1152 C1153 1.524 . S
C1152 H1171 0.913 . S
C1153 H1129 0.950 . S
C1153 C1152 1.524 . S
C1153 C1154 1.415 . S
C1154 H1130 0.950 . S
C1154 C1149 1.363 . S
C1154 C1153 1.415 . S
C1155 H1131 0.951 . S
C1155 C1156 1.366 . S
C1155 C1157 1.388 . S
C1156 C1155 1.366 . S
C1156 C1160 1.385 . S
C1157 H1132 0.951 . S
C1157 C1155 1.388 . S
C1157 C1158 1.366 . S
C1158 C1157 1.366 . S
C1158 C1159 1.414 . S
C1158 C1161 1.499 1_554 S
C1159 H1133 0.950 1_554 S
C1159 C1158 1.414 . S
C1159 C1160 1.374 . S
C1160 H1134 0.950 . S
C1160 C1156 1.385 . S
C1160 C1159 1.374 . S
C1161 C1158 1.499 1_556 S
C1161 C1162 1.373 . S
C1161 C1163 1.389 . S
C1162 H1135 0.950 . S
C1162 C1148 1.377 . S
C1162 C1161 1.373 . S
C1163 C1147 1.377 . S
C1163 C1161 1.389 . S
C1163 C1164 1.524 1_556 S
C1164 C1163 1.524 1_554 S
C1164 C1165 1.397 . S
C1164 C1169 1.363 . S
C1165 H1136 0.950 . S
C1165 C1164 1.397 . S
C1165 C1166 1.334 . S
C1166 H1137 0.950 . S
C1166 C1165 1.334 . S
C1166 C1167 1.287 . S
C1167 C1166 1.287 . S
C1167 C1168 1.524 . S
C1167 H1170 0.999 . S
C1168 H1138 0.950 . S
C1168 C1167 1.524 . S
C1168 C1169 1.415 . S
C1169 H1139 0.950 . S
C1169 C1164 1.363 . S
C1169 C1168 1.415 . S
H1170 C1167 0.999 . S
H1171 C1152 0.913 . S
H1172 C1190 0.951 . S
H1173 C1192 0.951 . S
H1174 C1194 0.950 . S
H1175 C1195 0.950 . S
H1176 C1197 0.950 . S
H1177 C1200 0.950 . S
H1178 C1201 0.950 . S
H1179 C1203 0.950 . S
H1180 C1204 0.950 . S
H1181 C1205 0.951 . S
H1182 C1207 0.951 . S
H1183 C1209 0.950 . S
H1184 C1210 0.950 . S
H1185 C1212 0.950 . S
H1186 C1215 0.950 . S
H1187 C1216 0.950 . S
H1188 C1218 0.950 . S
H1189 C1219 0.950 . S
C1190 H1172 0.951 . S
C1190 C1191 1.366 . S
C1190 C1192 1.388 . S
C1191 C1190 1.366 . S
C1191 C1195 1.385 . S
C1192 H1173 0.951 . S
C1192 C1190 1.388 . S
C1192 C1193 1.366 . S
C1193 C1192 1.366 . S
C1193 C1194 1.414 . S
C1193 C1196 1.499 . S
C1194 H1174 0.950 . S
C1194 C1193 1.414 . S
C1194 C1195 1.374 . S
C1195 H1175 0.950 . S
C1195 C1191 1.385 . S
C1195 C1194 1.374 . S
C1196 C1193 1.499 . S
C1196 C1197 1.373 . S
C1196 C1198 1.389 . S
C1197 H1176 0.950 . S
C1197 C1196 1.373 . S
C1197 C1213 1.377 . S
C1198 C1196 1.389 . S
C1198 C1199 1.524 . S
C1198 C1212 1.377 . S
C1199 C1198 1.524 . S
C1199 C1200 1.397 . S
C1199 C1204 1.363 . S
C1200 H1177 0.950 . S
C1200 C1199 1.397 . S
C1200 C1201 1.334 . S
C1201 H1178 0.950 . S
C1201 C1200 1.334 . S
C1201 C1202 1.287 . S
C1202 C1201 1.287 . S
C1202 C1203 1.524 . S
C1202 H1221 0.913 . S
C1203 H1179 0.950 . S
C1203 C1202 1.524 . S
C1203 C1204 1.415 . S
C1204 H1180 0.950 . S
C1204 C1199 1.363 . S
C1204 C1203 1.415 . S
C1205 H1181 0.951 . S
C1205 C1206 1.366 . S
C1205 C1207 1.388 . S
C1206 C1205 1.366 . S
C1206 C1210 1.385 . S
C1207 H1182 0.951 . S
C1207 C1205 1.388 . S
C1207 C1208 1.366 . S
C1208 C1207 1.366 . S
C1208 C1209 1.414 . S
C1208 C1211 1.499 . S
C1209 H1183 0.950 . S
C1209 C1208 1.414 . S
C1209 C1210 1.374 . S
C1210 H1184 0.950 . S
C1210 C1206 1.385 . S
C1210 C1209 1.374 . S
C1211 C1208 1.499 . S
C1211 C1212 1.373 . S
C1211 C1213 1.389 . S
C1212 H1185 0.950 . S
C1212 C1198 1.377 . S
C1212 C1211 1.373 . S
C1213 C1197 1.377 . S
C1213 C1211 1.389 . S
C1213 C1214 1.524 . S
C1214 C1213 1.524 . S
C1214 C1215 1.397 . S
C1214 C1219 1.363 . S
C1215 H1186 0.950 . S
C1215 C1214 1.397 . S
C1215 C1216 1.334 . S
C1216 H1187 0.950 . S
C1216 C1215 1.334 . S
C1216 C1217 1.287 . S
C1217 C1216 1.287 . S
C1217 C1218 1.524 . S
C1217 H1220 0.999 . S
C1218 H1188 0.950 . S
C1218 C1217 1.524 . S
C1218 C1219 1.415 . S
C1219 H1189 0.950 . S
C1219 C1214 1.363 . S
C1219 C1218 1.415 . S
H1220 C1217 0.999 . S
H1221 C1202 0.913 . S
H1222 C1240 0.951 . S
H1223 C1242 0.951 . S
H1224 C1244 0.950 . S
H1225 C1245 0.950 . S
H1226 C1247 0.950 . S
H1227 C1250 0.950 . S
H1228 C1251 0.950 . S
H1229 C1253 0.950 . S
H1230 C1254 0.950 . S
H1231 C1255 0.951 . S
H1232 C1257 0.951 . S
H1233 C1259 0.950 . S
H1234 C1260 0.950 . S
H1235 C1262 0.950 . S
H1236 C1265 0.950 . S
H1237 C1266 0.950 . S
H1238 C1268 0.950 . S
H1239 C1269 0.950 . S
C1240 H1222 0.951 . S
C1240 C1241 1.366 . S
C1240 C1242 1.388 . S
C1241 C1240 1.366 . S
C1241 C1245 1.385 . S
C1242 H1223 0.951 . S
C1242 C1240 1.388 . S
C1242 C1243 1.366 . S
C1243 C1242 1.366 . S
C1243 C1244 1.414 . S
C1243 C1246 1.499 . S
C1244 H1224 0.950 . S
C1244 C1243 1.414 . S
C1244 C1245 1.374 . S
C1245 H1225 0.950 . S
C1245 C1241 1.385 . S
C1245 C1244 1.374 . S
C1246 C1243 1.499 . S
C1246 C1247 1.373 . S
C1246 C1248 1.389 . S
C1247 H1226 0.950 . S
C1247 C1246 1.373 . S
C1247 C1263 1.377 . S
C1248 C1246 1.389 . S
C1248 C1249 1.524 . S
C1248 C1262 1.377 . S
C1249 C1248 1.524 . S
C1249 C1250 1.397 . S
C1249 C1254 1.363 . S
C1250 H1227 0.950 . S
C1250 C1249 1.397 . S
C1250 C1251 1.334 . S
C1251 H1228 0.950 . S
C1251 C1250 1.334 . S
C1251 C1252 1.287 . S
C1252 C1251 1.287 . S
C1252 C1253 1.524 . S
C1252 H1271 0.913 . S
C1253 H1229 0.950 . S
C1253 C1252 1.524 . S
C1253 C1254 1.415 . S
C1254 H1230 0.950 . S
C1254 C1249 1.363 . S
C1254 C1253 1.415 . S
C1255 H1231 0.951 . S
C1255 C1256 1.366 . S
C1255 C1257 1.388 . S
C1256 C1255 1.366 . S
C1256 C1260 1.385 . S
C1257 H1232 0.951 . S
C1257 C1255 1.388 . S
C1257 C1258 1.366 . S
C1258 C1257 1.366 . S
C1258 C1259 1.414 . S
C1258 C1261 1.499 . S
C1259 H1233 0.950 . S
C1259 C1258 1.414 . S
C1259 C1260 1.374 . S
C1260 H1234 0.950 . S
C1260 C1256 1.385 . S
C1260 C1259 1.374 . S
C1261 C1258 1.499 . S
C1261 C1262 1.373 . S
C1261 C1263 1.389 . S
C1262 H1235 0.950 . S
C1262 C1248 1.377 . S
C1262 C1261 1.373 . S
C1263 C1247 1.377 . S
C1263 C1261 1.389 . S
C1263 C1264 1.524 . S
C1264 C1263 1.524 . S
C1264 C1265 1.397 . S
C1264 C1269 1.363 . S
C1265 H1236 0.950 . S
C1265 C1264 1.397 . S
C1265 C1266 1.334 . S
C1266 H1237 0.950 . S
C1266 C1265 1.334 . S
C1266 C1267 1.287 . S
C1267 C1266 1.287 . S
C1267 C1268 1.524 . S
C1267 H1270 0.999 . S
C1268 H1238 0.950 . S
C1268 C1267 1.524 . S
C1268 C1269 1.415 . S
C1269 H1239 0.950 . S
C1269 C1264 1.363 . S
C1269 C1268 1.415 . S
H1270 C1267 0.999 . S
H1271 C1252 0.913 . S
H1272 C1290 0.951 . S
H1273 C1292 0.951 . S
H1274 C1294 0.950 . S
H1275 C1295 0.950 . S
H1276 C1297 0.950 . S
H1277 C1300 0.950 . S
H1278 C1301 0.950 . S
H1279 C1303 0.950 . S
H1280 C1304 0.950 . S
H1281 C1305 0.951 . S
H1282 C1307 0.951 . S
H1283 C1309 0.950 . S
H1284 C1310 0.950 . S
H1285 C1312 0.950 . S
H1286 C1315 0.950 . S
H1287 C1316 0.950 . S
H1288 C1318 0.950 . S
H1289 C1319 0.950 . S
C1290 H1272 0.951 . S
C1290 C1291 1.366 . S
C1290 C1292 1.388 . S
C1291 C1290 1.366 . S
C1291 C1295 1.385 . S
C1292 H1273 0.951 . S
C1292 C1290 1.388 . S
C1292 C1293 1.366 . S
C1293 C1292 1.366 . S
C1293 C1294 1.414 . S
C1293 C1296 1.499 . S
C1294 H1274 0.950 . S
C1294 C1293 1.414 . S
C1294 C1295 1.374 . S
C1295 H1275 0.950 . S
C1295 C1291 1.385 . S
C1295 C1294 1.374 . S
C1296 C1293 1.499 . S
C1296 C1297 1.373 . S
C1296 C1298 1.389 . S
C1297 H1276 0.950 . S
C1297 C1296 1.373 . S
C1297 C1313 1.377 . S
C1298 C1296 1.389 . S
C1298 C1299 1.524 . S
C1298 C1312 1.377 . S
C1299 C1298 1.524 . S
C1299 C1300 1.397 . S
C1299 C1304 1.363 . S
C1300 H1277 0.950 . S
C1300 C1299 1.397 . S
C1300 C1301 1.334 . S
C1301 H1278 0.950 . S
C1301 C1300 1.334 . S
C1301 C1302 1.287 . S
C1302 C1301 1.287 . S
C1302 C1303 1.524 . S
C1302 H1321 0.913 . S
C1303 H1279 0.950 . S
C1303 C1302 1.524 . S
C1303 C1304 1.415 . S
C1304 H1280 0.950 . S
C1304 C1299 1.363 . S
C1304 C1303 1.415 . S
C1305 H1281 0.951 . S
C1305 C1306 1.366 . S
C1305 C1307 1.388 . S
C1306 C1305 1.366 . S
C1306 C1310 1.385 . S
C1307 H1282 0.951 . S
C1307 C1305 1.388 . S
C1307 C1308 1.366 . S
C1308 C1307 1.366 . S
C1308 C1309 1.414 . S
C1308 C1311 1.499 . S
C1309 H1283 0.950 . S
C1309 C1308 1.414 . S
C1309 C1310 1.374 . S
C1310 H1284 0.950 . S
C1310 C1306 1.385 . S
C1310 C1309 1.374 . S
C1311 C1308 1.499 . S
C1311 C1312 1.373 . S
C1311 C1313 1.389 . S
C1312 H1285 0.950 . S
C1312 C1298 1.377 . S
C1312 C1311 1.373 . S
C1313 C1297 1.377 . S
C1313 C1311 1.389 . S
C1313 C1314 1.524 . S
C1314 C1313 1.524 . S
C1314 C1315 1.397 . S
C1314 C1319 1.363 . S
C1315 H1286 0.950 . S
C1315 C1314 1.397 . S
C1315 C1316 1.334 . S
C1316 H1287 0.950 . S
C1316 C1315 1.334 . S
C1316 C1317 1.287 . S
C1317 C1316 1.287 . S
C1317 C1318 1.524 . S
C1317 H1320 0.999 . S
C1318 H1288 0.950 . S
C1318 C1317 1.524 . S
C1318 C1319 1.415 . S
C1319 H1289 0.950 . S
C1319 C1314 1.363 . S
C1319 C1318 1.415 . S
H1320 C1317 0.999 . S
H1321 C1302 0.913 . S
H1322 C1340 0.951 . S
H1323 C1342 0.951 . S
H1324 C1344 0.950 . S
H1325 C1345 0.950 . S
H1326 C1347 0.950 . S
H1327 C1350 0.950 . S
H1328 C1351 0.950 . S
H1329 C1353 0.950 . S
H1330 C1354 0.950 . S
H1331 C1355 0.951 . S
H1332 C1357 0.951 . S
H1333 C1359 0.950 . S
H1334 C1360 0.950 . S
H1335 C1362 0.950 . S
H1336 C1365 0.950 . S
H1337 C1366 0.950 . S
H1338 C1368 0.950 . S
H1339 C1369 0.950 . S
C1340 H1322 0.951 . S
C1340 C1341 1.366 . S
C1340 C1342 1.388 . S
C1341 C1340 1.366 . S
C1341 C1345 1.385 . S
C1342 H1323 0.951 . S
C1342 C1340 1.388 . S
C1342 C1343 1.366 . S
C1343 C1342 1.366 . S
C1343 C1344 1.414 . S
C1343 C1346 1.499 . S
C1344 H1324 0.950 . S
C1344 C1343 1.414 . S
C1344 C1345 1.374 . S
C1345 H1325 0.950 . S
C1345 C1341 1.385 . S
C1345 C1344 1.374 . S
C1346 C1343 1.499 . S
C1346 C1347 1.373 . S
C1346 C1348 1.389 . S
C1347 H1326 0.950 . S
C1347 C1346 1.373 . S
C1347 C1363 1.377 . S
C1348 C1346 1.389 . S
C1348 C1349 1.524 . S
C1348 C1362 1.377 . S
C1349 C1348 1.524 . S
C1349 C1350 1.397 . S
C1349 C1354 1.363 . S
C1350 H1327 0.950 . S
C1350 C1349 1.397 . S
C1350 C1351 1.334 . S
C1351 H1328 0.950 . S
C1351 C1350 1.334 . S
C1351 C1352 1.287 . S
C1352 C1351 1.287 . S
C1352 C1353 1.524 . S
C1352 H1371 0.913 . S
C1353 H1329 0.950 . S
C1353 C1352 1.524 . S
C1353 C1354 1.415 . S
C1354 H1330 0.950 . S
C1354 C1349 1.363 . S
C1354 C1353 1.415 . S
C1355 H1331 0.951 . S
C1355 C1356 1.366 . S
C1355 C1357 1.388 . S
C1356 C1355 1.366 . S
C1356 C1360 1.385 . S
C1357 H1332 0.951 . S
C1357 C1355 1.388 . S
C1357 C1358 1.366 . S
C1358 C1357 1.366 . S
C1358 C1359 1.414 . S
C1358 C1361 1.499 . S
C1359 H1333 0.950 . S
C1359 C1358 1.414 . S
C1359 C1360 1.374 . S
C1360 H1334 0.950 . S
C1360 C1356 1.385 . S
C1360 C1359 1.374 . S
C1361 C1358 1.499 . S
C1361 C1362 1.373 . S
C1361 C1363 1.389 . S
C1362 H1335 0.950 . S
C1362 C1348 1.377 . S
C1362 C1361 1.373 . S
C1363 C1347 1.377 . S
C1363 C1361 1.389 . S
C1363 C1364 1.524 . S
C1364 C1363 1.524 . S
C1364 C1365 1.397 . S
C1364 C1369 1.363 . S
C1365 H1336 0.950 . S
C1365 C1364 1.397 . S
C1365 C1366 1.334 . S
C1366 H1337 0.950 . S
C1366 C1365 1.334 . S
C1366 C1367 1.287 . S
C1367 C1366 1.287 . S
C1367 C1368 1.524 . S
C1367 H1370 0.999 . S
C1368 H1338 0.950 . S
C1368 C1367 1.524 . S
C1368 C1369 1.415 . S
C1369 H1339 0.950 . S
C1369 C1364 1.363 . S
C1369 C1368 1.415 . S
H1370 C1367 0.999 . S
H1371 C1352 0.913 . S
H1372 C1390 0.951 . S
H1373 C1392 0.951 . S
H1374 C1394 0.950 . S
H1375 C1395 0.950 . S
H1376 C1397 0.950 . S
H1377 C1400 0.950 . S
H1378 C1401 0.950 . S
H1379 C1403 0.950 . S
H1380 C1404 0.950 . S
H1381 C1405 0.951 . S
H1382 C1407 0.951 . S
H1383 C1409 0.950 . S
H1384 C1410 0.950 . S
H1385 C1412 0.950 . S
H1386 C1415 0.950 . S
H1387 C1416 0.950 . S
H1388 C1418 0.950 . S
H1389 C1419 0.950 . S
C1390 H1372 0.951 . S
C1390 C1391 1.366 . S
C1390 C1392 1.388 . S
C1391 C1390 1.366 . S
C1391 C1395 1.385 . S
C1392 H1373 0.951 . S
C1392 C1390 1.388 . S
C1392 C1393 1.366 . S
C1393 C1392 1.366 . S
C1393 C1394 1.414 . S
C1393 C1396 1.499 . S
C1394 H1374 0.950 . S
C1394 C1393 1.414 . S
C1394 C1395 1.374 . S
C1395 H1375 0.950 . S
C1395 C1391 1.385 . S
C1395 C1394 1.374 . S
C1396 C1393 1.499 . S
C1396 C1397 1.373 . S
C1396 C1398 1.389 . S
C1397 H1376 0.950 . S
C1397 C1396 1.373 . S
C1397 C1413 1.377 . S
C1398 C1396 1.389 . S
C1398 C1399 1.524 . S
C1398 C1412 1.377 . S
C1399 C1398 1.524 . S
C1399 C1400 1.397 . S
C1399 C1404 1.363 . S
C1400 H1377 0.950 . S
C1400 C1399 1.397 . S
C1400 C1401 1.334 . S
C1401 H1378 0.950 . S
C1401 C1400 1.334 . S
C1401 C1402 1.287 . S
C1402 C1401 1.287 . S
C1402 C1403 1.524 . S
C1402 H1421 0.913 . S
C1403 H1379 0.950 . S
C1403 C1402 1.524 . S
C1403 C1404 1.415 . S
C1404 H1380 0.950 . S
C1404 C1399 1.363 . S
C1404 C1403 1.415 . S
C1405 H1381 0.951 . S
C1405 C1406 1.366 . S
C1405 C1407 1.388 . S
C1406 C1405 1.366 . S
C1406 C1410 1.385 . S
C1407 H1382 0.951 . S
C1407 C1405 1.388 . S
C1407 C1408 1.366 . S
C1408 C1407 1.366 . S
C1408 C1409 1.414 . S
C1408 C1411 1.499 . S
C1409 H1383 0.950 . S
C1409 C1408 1.414 . S
C1409 C1410 1.374 . S
C1410 H1384 0.950 . S
C1410 C1406 1.385 . S
C1410 C1409 1.374 . S
C1411 C1408 1.499 . S
C1411 C1412 1.373 . S
C1411 C1413 1.389 . S
C1412 H1385 0.950 . S
C1412 C1398 1.377 . S
C1412 C1411 1.373 . S
C1413 C1397 1.377 . S
C1413 C1411 1.389 . S
C1413 C1414 1.524 . S
C1414 C1413 1.524 . S
C1414 C1415 1.397 . S
C1414 C1419 1.363 . S
C1415 H1386 0.950 . S
C1415 C1414 1.397 . S
C1415 C1416 1.334 . S
C1416 H1387 0.950 . S
C1416 C1415 1.334 . S
C1416 C1417 1.287 . S
C1417 C1416 1.287 . S
C1417 C1418 1.524 . S
C1417 H1420 0.999 . S
C1418 H1388 0.950 . S
C1418 C1417 1.524 . S
C1418 C1419 1.415 . S
C1419 H1389 0.950 . S
C1419 C1414 1.363 . S
C1419 C1418 1.415 . S
H1420 C1417 0.999 . S
H1421 C1402 0.913 . S
H1422 C1440 0.951 . S
H1423 C1442 0.951 . S
H1424 C1444 0.950 . S
H1425 C1445 0.950 . S
H1426 C1447 0.950 . S
H1427 C1450 0.950 . S
H1428 C1451 0.950 . S
H1429 C1453 0.950 . S
H1430 C1454 0.950 . S
H1431 C1455 0.951 . S
H1432 C1457 0.951 . S
H1433 C1459 0.950 . S
H1434 C1460 0.950 . S
H1435 C1462 0.950 . S
H1436 C1465 0.950 . S
H1437 C1466 0.950 . S
H1438 C1468 0.950 . S
H1439 C1469 0.950 . S
C1440 H1422 0.951 . S
C1440 C1441 1.366 . S
C1440 C1442 1.388 . S
C1441 C1440 1.366 . S
C1441 C1445 1.385 . S
C1442 H1423 0.951 . S
C1442 C1440 1.388 . S
C1442 C1443 1.366 . S
C1443 C1442 1.366 . S
C1443 C1444 1.414 . S
C1443 C1446 1.499 . S
C1444 H1424 0.950 . S
C1444 C1443 1.414 . S
C1444 C1445 1.374 . S
C1445 H1425 0.950 . S
C1445 C1441 1.385 . S
C1445 C1444 1.374 . S
C1446 C1443 1.499 . S
C1446 C1447 1.373 . S
C1446 C1448 1.389 . S
C1447 H1426 0.950 . S
C1447 C1446 1.373 . S
C1447 C1463 1.377 . S
C1448 C1446 1.389 . S
C1448 C1449 1.524 . S
C1448 C1462 1.377 . S
C1449 C1448 1.524 . S
C1449 C1450 1.397 . S
C1449 C1454 1.363 . S
C1450 H1427 0.950 . S
C1450 C1449 1.397 . S
C1450 C1451 1.334 . S
C1451 H1428 0.950 . S
C1451 C1450 1.334 . S
C1451 C1452 1.287 . S
C1452 C1451 1.287 . S
C1452 C1453 1.524 . S
C1452 H1471 0.913 . S
C1453 H1429 0.950 . S
C1453 C1452 1.524 . S
C1453 C1454 1.415 . S
C1454 H1430 0.950 . S
C1454 C1449 1.363 . S
C1454 C1453 1.415 . S
C1455 H1431 0.951 . S
C1455 C1456 1.366 . S
C1455 C1457 1.388 . S
C1456 C1455 1.366 . S
C1456 C1460 1.385 . S
C1457 H1432 0.951 . S
C1457 C1455 1.388 . S
C1457 C1458 1.366 . S
C1458 C1457 1.366 . S
C1458 C1459 1.414 . S
C1458 C1461 1.499 . S
C1459 H1433 0.950 . S
C1459 C1458 1.414 . S
C1459 C1460 1.374 . S
C1460 H1434 0.950 . S
C1460 C1456 1.385 . S
C1460 C1459 1.374 . S
C1461 C1458 1.499 . S
C1461 C1462 1.373 . S
C1461 C1463 1.389 . S
C1462 H1435 0.950 . S
C1462 C1448 1.377 . S
C1462 C1461 1.373 . S
C1463 C1447 1.377 . S
C1463 C1461 1.389 . S
C1463 C1464 1.524 . S
C1464 C1463 1.524 . S
C1464 C1465 1.397 . S
C1464 C1469 1.363 . S
C1465 H1436 0.950 . S
C1465 C1464 1.397 . S
C1465 C1466 1.334 . S
C1466 H1437 0.950 . S
C1466 C1465 1.334 . S
C1466 C1467 1.287 . S
C1467 C1466 1.287 . S
C1467 C1468 1.524 . S
C1467 H1470 0.999 . S
C1468 H1438 0.950 . S
C1468 C1467 1.524 . S
C1468 C1469 1.415 . S
C1469 H1439 0.950 . S
C1469 C1464 1.363 . S
C1469 C1468 1.415 . S
H1470 C1467 0.999 . S
H1471 C1452 0.913 . S
H1472 C1490 0.951 . S
H1473 C1492 0.951 . S
H1474 C1494 0.950 . S
H1475 C1495 0.950 . S
H1476 C1497 0.950 . S
H1477 C1500 0.950 . S
H1478 C1501 0.950 . S
H1479 C1503 0.950 . S
H1480 C1504 0.950 . S
H1481 C1505 0.951 . S
H1482 C1507 0.951 . S
H1483 C1509 0.950 . S
H1484 C1510 0.950 . S
H1485 C1512 0.950 . S
H1486 C1515 0.950 . S
H1487 C1516 0.950 . S
H1488 C1518 0.950 . S
H1489 C1519 0.950 . S
C1490 H1472 0.951 . S
C1490 C1491 1.366 . S
C1490 C1492 1.388 . S
C1491 C1490 1.366 . S
C1491 C1495 1.385 . S
C1492 H1473 0.951 . S
C1492 C1490 1.388 . S
C1492 C1493 1.366 . S
C1493 C1492 1.366 . S
C1493 C1494 1.414 . S
C1493 C1496 1.499 . S
C1494 H1474 0.950 . S
C1494 C1493 1.414 . S
C1494 C1495 1.374 . S
C1495 H1475 0.950 . S
C1495 C1491 1.385 . S
C1495 C1494 1.374 . S
C1496 C1493 1.499 . S
C1496 C1497 1.373 . S
C1496 C1498 1.389 . S
C1497 H1476 0.950 . S
C1497 C1496 1.373 . S
C1497 C1513 1.377 1_554 S
C1498 C1496 1.389 . S
C1498 C1499 1.524 . S
C1498 C1512 1.377 . S
C1499 C1498 1.524 . S
C1499 C1500 1.397 . S
C1499 C1504 1.363 . S
C1500 H1477 0.950 . S
C1500 C1499 1.397 . S
C1500 C1501 1.334 . S
C1501 H1478 0.950 . S
C1501 C1500 1.334 . S
C1501 C1502 1.287 . S
C1502 C1501 1.287 . S
C1502 C1503 1.524 . S
C1502 H1521 0.913 . S
C1503 H1479 0.950 . S
C1503 C1502 1.524 . S
C1503 C1504 1.415 . S
C1504 H1480 0.950 . S
C1504 C1499 1.363 . S
C1504 C1503 1.415 . S
C1505 H1481 0.951 . S
C1505 C1506 1.366 . S
C1505 C1507 1.388 . S
C1506 C1505 1.366 . S
C1506 C1510 1.385 . S
C1507 H1482 0.951 . S
C1507 C1505 1.388 . S
C1507 C1508 1.366 . S
C1508 C1507 1.366 . S
C1508 C1509 1.414 . S
C1508 C1511 1.503 . S
C1509 H1483 0.950 . S
C1509 C1508 1.414 . S
C1509 C1510 1.374 . S
C1510 H1484 0.950 . S
C1510 C1506 1.385 . S
C1510 C1509 1.374 . S
C1511 C1508 1.503 . S
C1511 C1512 1.369 1_556 S
C1511 C1513 1.390 . S
C1512 H1485 0.950 . S
C1512 C1498 1.377 . S
C1512 C1511 1.369 1_554 S
C1513 C1497 1.377 1_556 S
C1513 C1511 1.390 . S
C1513 C1514 1.524 . S
C1514 C1513 1.524 . S
C1514 C1515 1.397 . S
C1514 C1519 1.363 . S
C1515 H1486 0.950 . S
C1515 C1514 1.397 . S
C1515 C1516 1.334 . S
C1516 H1487 0.950 . S
C1516 C1515 1.334 . S
C1516 C1517 1.287 . S
C1517 C1516 1.287 . S
C1517 C1518 1.524 . S
C1517 H1520 0.999 . S
C1518 H1488 0.950 . S
C1518 C1517 1.524 . S
C1518 C1519 1.415 . S
C1519 H1489 0.950 . S
C1519 C1514 1.363 . S
C1519 C1518 1.415 . S
H1520 C1517 0.999 . S
H1521 C1502 0.913 . S
H1522 C1540 0.951 . S
H1523 C1542 0.951 . S
H1524 C1544 0.950 . S
H1525 C1545 0.950 . S
H1526 C1547 0.950 . S
H1527 C1550 0.950 . S
H1528 C1551 0.950 . S
H1529 C1553 0.950 . S
H1530 C1554 0.950 . S
H1531 C1555 0.951 . S
H1532 C1557 0.951 . S
H1533 C1559 0.950 . S
H1534 C1560 0.950 . S
H1535 C1562 0.950 . S
H1536 C1565 0.950 . S
H1537 C1566 0.950 . S
H1538 C1568 0.950 . S
H1539 C1569 0.950 . S
C1540 H1522 0.951 . S
C1540 C1541 1.366 . S
C1540 C1542 1.388 . S
C1541 C1540 1.366 . S
C1541 C1545 1.385 . S
C1542 H1523 0.951 . S
C1542 C1540 1.388 . S
C1542 C1543 1.366 . S
C1543 C1542 1.366 . S
C1543 C1544 1.414 . S
C1543 C1546 1.499 . S
C1544 H1524 0.950 . S
C1544 C1543 1.414 . S
C1544 C1545 1.374 . S
C1545 H1525 0.950 . S
C1545 C1541 1.385 . S
C1545 C1544 1.374 . S
C1546 C1543 1.499 . S
C1546 C1547 1.373 . S
C1546 C1548 1.389 . S
C1547 H1526 0.950 . S
C1547 C1546 1.373 . S
C1547 C1563 1.377 . S
C1548 C1546 1.389 . S
C1548 C1549 1.524 . S
C1548 C1562 1.377 . S
C1549 C1548 1.524 . S
C1549 C1550 1.397 . S
C1549 C1554 1.363 . S
C1550 H1527 0.950 . S
C1550 C1549 1.397 . S
C1550 C1551 1.334 . S
C1551 H1528 0.950 . S
C1551 C1550 1.334 . S
C1551 C1552 1.287 . S
C1552 C1551 1.287 . S
C1552 C1553 1.524 . S
C1552 H1571 0.913 . S
C1553 H1529 0.950 . S
C1553 C1552 1.524 . S
C1553 C1554 1.415 . S
C1554 H1530 0.950 . S
C1554 C1549 1.363 . S
C1554 C1553 1.415 . S
C1555 H1531 0.951 . S
C1555 C1556 1.366 . S
C1555 C1557 1.388 . S
C1556 C1555 1.366 . S
C1556 C1560 1.385 . S
C1557 H1532 0.951 . S
C1557 C1555 1.388 . S
C1557 C1558 1.366 . S
C1558 C1557 1.366 . S
C1558 C1559 1.414 . S
C1558 C1561 1.499 . S
C1559 H1533 0.950 . S
C1559 C1558 1.414 . S
C1559 C1560 1.374 . S
C1560 H1534 0.950 . S
C1560 C1556 1.385 . S
C1560 C1559 1.374 . S
C1561 C1558 1.499 . S
C1561 C1562 1.373 . S
C1561 C1563 1.389 . S
C1562 H1535 0.950 . S
C1562 C1548 1.377 . S
C1562 C1561 1.373 . S
C1563 C1547 1.377 . S
C1563 C1561 1.389 . S
C1563 C1564 1.524 . S
C1564 C1563 1.524 . S
C1564 C1565 1.397 . S
C1564 C1569 1.363 . S
C1565 H1536 0.950 . S
C1565 C1564 1.397 . S
C1565 C1566 1.334 . S
C1566 H1537 0.950 . S
C1566 C1565 1.334 . S
C1566 C1567 1.287 . S
C1567 C1566 1.287 . S
C1567 C1568 1.524 . S
C1567 H1570 0.999 . S
C1568 H1538 0.950 . S
C1568 C1567 1.524 . S
C1568 C1569 1.415 . S
C1569 H1539 0.950 . S
C1569 C1564 1.363 . S
C1569 C1568 1.415 . S
H1570 C1567 0.999 . S
H1571 C1552 0.913 . S
C406 C358 1.618 . S
C391 C45 1.620 . S
C441 C84 1.616 . S
C456 C299 1.624 . S
C491 C126 1.571 . S
C506 C302 1.600 . S
C541 C189 1.619 . S
C556 C316 1.617 . S
C606 C341 1.624 . S
C591 C228 1.615 . S
C641 C270 1.572 . S
C656 C344 1.600 . S
C691 C69 1.565 . S
C706 C313 1.585 . S
C741 C141 1.600 . S
C756 C327 1.600 . S
C791 C174 1.554 . S
C806 C330 1.578 . S
C856 C355 1.584 . S
C841 C213 1.565 . S
C906 C369 1.600 . S
C891 C285 1.600 . S
C956 C288 1.578 . S
C941 C30 1.554 . S
C991 C36 1.480 . S
C1006 C311 1.475 . S
C1041 C93 1.492 . S
C1056 C325 1.491 . S
C1106 C335 1.500 . S
C1091 C117 1.497 . S
C1141 C180 1.480 . S
C1156 C353 1.475 . S
C1206 C367 1.492 . S
C1191 C237 1.493 . S
C1256 C293 1.500 . S
C1241 C261 1.497 . S
C1306 C363 1.529 . S
C1291 C78 1.522 . S
C1341 C132 1.507 . S
C1356 C297 1.504 . S
C1406 C307 1.512 . S
C1391 C165 1.508 . S
C1441 C222 1.523 . S
C1456 C321 1.529 . S
C1491 C276 1.507 . S
C1506 C339 1.504 . S
C1541 C21 1.507 . S
C1556 C349 1.512 . S
