# Generated by pormake.
# Topology zzz, (3,6)-cn, num edge types: 1
# Building blocks:
#     Node 0, Type 0, BuildingBlock: CUQRIR_clean_linker_1, # of connection points: 3
#     Node 1, Type 0, BuildingBlock: CUQRIR_clean_linker_1, # of connection points: 3
#     Node 2, Type 0, BuildingBlock: CUQRIR_clean_linker_1, # of connection points: 3
#     Node 3, Type 0, BuildingBlock: CUQRIR_clean_linker_1, # of connection points: 3
#     Node 4, Type 0, BuildingBlock: CUQRIR_clean_linker_1, # of connection points: 3
#     Node 5, Type 0, BuildingBlock: CUQRIR_clean_linker_1, # of connection points: 3
#     Node 6, Type 0, BuildingBlock: CUQRIR_clean_linker_1, # of connection points: 3
#     Node 7, Type 0, BuildingBlock: CUQRIR_clean_linker_1, # of connection points: 3
#     Node 8, Type 1, BuildingBlock: INOVEN_clean_sbu_0, # of connection points: 6
#     Node 9, Type 1, BuildingBlock: INOVEN_clean_sbu_0, # of connection points: 6
#     Node 10, Type 1, BuildingBlock: INOVEN_clean_sbu_0, # of connection points: 6
#     Node 11, Type 1, BuildingBlock: INOVEN_clean_sbu_0, # of connection points: 6
#     Edge 12, Type (0, 1), None
#     Edge 13, Type (0, 1), None
#     Edge 14, Type (0, 1), None
#     Edge 15, Type (0, 1), None
#     Edge 16, Type (0, 1), None
#     Edge 17, Type (0, 1), None
#     Edge 18, Type (0, 1), None
#     Edge 19, Type (0, 1), None
#     Edge 20, Type (0, 1), None
#     Edge 21, Type (0, 1), None
#     Edge 22, Type (0, 1), None
#     Edge 23, Type (0, 1), None
#     Edge 24, Type (0, 1), None
#     Edge 25, Type (0, 1), None
#     Edge 26, Type (0, 1), None
#     Edge 27, Type (0, 1), None
#     Edge 28, Type (0, 1), None
#     Edge 29, Type (0, 1), None
#     Edge 30, Type (0, 1), None
#     Edge 31, Type (0, 1), None
#     Edge 32, Type (0, 1), None
#     Edge 33, Type (0, 1), None
#     Edge 34, Type (0, 1), None
#     Edge 35, Type (0, 1), None
# Relax obj value: 0.901
# Max RMSD: 0.274
# Mean RMSD: 0.143
data_MOF--net-zzz--node1-INOVEN_clean_sbu_0--node2-CUQRIR_clean_linker_1--edge1-none
_symmetry_space_group_name_H-M    P1
_symmetry_Int_Tables_number       1
_symmetry_cell_setting            triclinic
loop_
_symmetry_equiv_pos_as_xyz
'x, y, z'
_cell_length_a     20.251613
_cell_length_b     19.528298
_cell_length_c     6.363216
_cell_angle_alpha  89.451294
_cell_angle_beta   84.897731
_cell_angle_gamma 89.942716
loop_
_atom_site_label
_atom_site_type_symbol
_atom_site_fract_x
_atom_site_fract_y
_atom_site_fract_z
_atom_type_partial_charge
C0 C 0.76936 0.63648 0.49135 0.0
N1 N 0.82517 0.59208 0.49372 0.0
N2 N 0.72131 0.6168 0.35048 0.0
C3 C 0.76399 0.7011 0.61352 0.0
C4 C 0.76068 0.57478 0.23292 0.0
N5 N 0.81172 0.55107 0.33538 0.0
C6 C 0.77414 0.59303 1.00505 0.0
H7 H 0.7151 0.70299 0.70584 0.0
H8 H 0.76821 0.74453 0.50083 0.0
H9 H 0.8046 0.70607 0.71789 0.0
H10 H 0.81393 0.63221 0.99146 0.0
H11 H 0.7297 0.61452 0.94057 0.0
H12 H 0.79212 0.54932 0.9108 0.0
C13 C 0.97948 0.79604 0.3513 0.0
N14 N 1.02341 0.84158 0.45065 0.0
N15 N 1.00939 0.74973 0.19583 0.0
C16 C 0.90745 0.79335 0.41106 0.0
C17 C 0.06874 0.78027 0.17649 0.0
N18 N 0.08102 0.82088 0.34593 0.0
C19 C 0.08919 0.80413 0.957 0.0
H20 H 0.88757 0.74242 0.37383 0.0
H21 H 0.88429 0.83205 0.31297 0.0
H22 H 0.89712 0.80399 0.58149 0.0
H23 H 0.04522 0.80681 0.86562 0.0
H24 H 0.12243 0.76892 0.86597 0.0
H25 H 0.10918 0.85584 0.96209 0.0
C26 C 0.79102 0.97425 0.49074 0.0
N27 N 0.72827 1.01104 0.52193 0.0
N28 N 0.83593 0.99238 0.30286 0.0
C29 C 0.79888 0.90845 0.60585 0.0
C30 C 0.78988 1.02875 0.21261 0.0
N31 N 0.73828 0.04976 0.34673 0.0
C32 C 0.77757 1.01556 0.99123 0.0
H33 H 0.84744 0.90631 0.67161 0.0
H34 H 0.79437 0.86656 0.49308 0.0
H35 H 0.75818 0.89986 0.73069 0.0
H36 H 0.74842 0.96776 0.9957 0.0
H37 H 0.82147 1.00886 0.8833 0.0
H38 H 0.75002 0.05712 0.92612 0.0
C39 C 0.57407 0.80375 0.50066 0.0
N40 N 0.53325 0.75665 0.62925 0.0
N41 N 0.54097 0.84553 0.35643 0.0
C42 C 0.64456 0.81652 0.53349 0.0
C43 C 0.48192 0.81293 0.38297 0.0
N44 N 0.47372 0.77208 0.56148 0.0
C45 C 0.4487 0.79386 0.19108 0.0
H46 H 0.65574 0.8719 0.51396 0.0
H47 H 0.67527 0.78939 0.40824 0.0
H48 H 0.65548 0.79936 0.6931 0.0
H49 H 0.47656 0.81209 0.04312 0.0
H50 H 0.39616 0.80801 0.18888 0.0
H51 H 0.44593 0.73849 0.19896 0.0
C52 C 0.30556 0.48826 0.73165 0.0
N53 N 0.24519 0.50362 0.84925 0.0
N54 N 0.36192 0.49009 0.85013 0.0
C55 C 0.30746 0.44785 0.5402 0.0
C56 C 0.32739 0.47528 0.03079 0.0
N57 N 0.268 0.50591 0.03629 0.0
C58 C 0.32991 0.40078 0.09708 0.0
H59 H 0.32696 0.39627 0.57358 0.0
H60 H 0.25728 0.44243 0.48573 0.0
H61 H 0.34348 0.47336 0.42717 0.0
H62 H 0.37316 0.39438 0.18879 0.0
H63 H 0.33836 0.36689 0.95788 0.0
H64 H 0.28324 0.38361 0.18604 0.0
C65 C 0.06475 0.3105 0.26244 0.0
N66 N 1.02072 0.25636 0.21032 0.0
N67 N 0.04151 0.35293 0.43789 0.0
C68 C 0.12981 0.32381 0.13915 0.0
C69 C 0.98935 0.31318 0.50155 0.0
N70 N 0.96935 0.27099 0.35078 0.0
C71 C 0.97411 0.29477 0.72719 0.0
H72 H 0.17002 0.31702 0.24456 0.0
H73 H 0.13262 0.37786 0.08488 0.0
H74 H 0.1372 0.28946 1.00115 0.0
H75 H 0.93071 0.32246 0.79555 0.0
H76 H 1.01695 0.30309 0.81983 0.0
H77 H 0.96099 0.24045 0.73011 0.0
C78 C 0.24274 0.11654 0.30724 0.0
N79 N 0.30799 0.08595 0.31122 0.0
N80 N 0.19539 0.09966 0.48495 0.0
C81 C 0.23802 0.18778 0.22103 0.0
C82 C 0.24284 0.08512 0.61022 0.0
N83 N 0.29859 0.06172 0.50831 0.0
C84 C 0.24832 0.12448 0.80325 0.0
H85 H 0.28279 0.20256 0.1176 0.0
H86 H 0.23444 0.22376 0.35555 0.0
H87 H 0.19178 0.19361 0.14283 0.0
H88 H 0.30052 0.12874 0.8379 0.0
H89 H 0.21885 0.0968 0.92954 0.0
H90 H 0.22856 0.17707 0.78427 0.0
C91 C 0.4776 0.29091 0.43901 0.0
N92 N 0.52131 0.34786 0.38856 0.0
N93 N 0.49754 0.24635 0.59967 0.0
C94 C 0.4171 0.27488 0.33031 0.0
C95 C 0.54583 0.28518 0.66434 0.0
N96 N 0.56705 0.33516 0.52446 0.0
C97 C 0.55008 0.29304 0.89587 0.0
H98 H 0.37362 0.29935 0.41663 0.0
H99 H 0.42159 0.29225 0.16466 0.0
H100 H 0.40762 0.21894 0.33546 0.0
H101 H 0.54721 0.24376 0.98217 0.0
H102 H 0.50543 0.32187 0.95187 0.0
H103 H 0.59389 0.32169 0.93399 0.0
Gd104 Gd 0.05585 1.03675 0.93465 0.0
Gd105 Gd 0.97671 0.04809 0.80936 0.0
C106 C 1.01386 0.90274 0.59446 0.0
C107 C 0.15576 0.99302 0.12807 0.0
C108 C 0.18023 0.93661 0.244 0.0
C109 C 0.2093 0.87814 0.14658 0.0
C110 C 0.16875 0.93385 0.46381 0.0
C111 C 0.14764 0.81847 0.42227 0.0
C112 C 0.16286 0.86965 0.5573 0.0
C113 C 0.19973 0.81728 0.26075 0.0
C114 C 0.1262 0.10862 0.57513 0.0
C115 C 1.0274 0.19073 0.09035 0.0
C116 C 0.87979 0.09866 0.61588 0.0
C117 C 0.86111 0.15742 0.4978 0.0
C118 C 0.83912 0.21728 0.60047 0.0
C119 C 0.87227 0.16039 0.27716 0.0
C120 C 0.89917 0.27316 0.31242 0.0
C121 C 0.87886 0.22405 0.18099 0.0
C122 C 0.85315 0.27807 0.49296 0.0
C123 C 0.90361 0.9806 0.18972 0.0
O124 O 0.05639 0.92781 0.72914 0.0
O125 O 0.96435 0.94651 0.60182 0.0
O126 O 0.10513 1.02527 0.21893 0.0
O127 O 0.14836 0.98184 0.9324 0.0
O128 O 0.11388 0.12841 0.76961 0.0
O129 O 0.0813 0.0593 0.59019 0.0
O130 O 0.98154 0.16169 0.97734 0.0
O131 O 0.07466 0.14498 0.09976 0.0
O132 O 0.92665 0.0608 0.52777 0.0
O133 O 0.88878 0.10984 0.81049 0.0
O134 O 0.91195 0.96126 0.99229 0.0
O135 O 0.95177 1.02726 0.16129 0.0
H136 H 0.23711 0.87912 0.99472 0.0
H137 H 0.16891 0.97803 0.55816 0.0
H138 H 0.18647 0.85957 0.69895 0.0
H139 H 0.2373 0.77874 0.24913 0.0
H140 H 0.8183 0.21773 0.76236 0.0
H141 H 0.87825 0.11646 0.18313 0.0
H142 H 0.88635 0.23012 0.01365 0.0
H143 H 0.84493 0.32308 0.585 0.0
Gd144 Gd 0.53441 0.0593 0.02585 0.0
Gd145 Gd 0.50667 1.02637 0.86941 0.0
C146 C 0.66269 1.01197 0.66447 0.0
C147 C 0.57947 0.13189 0.31522 0.0
C148 C 0.62152 0.19141 0.34123 0.0
C149 C 0.66874 0.20197 0.16938 0.0
C150 C 0.64932 0.18494 0.5352 0.0
C151 C 0.73197 0.12245 0.35539 0.0
C152 C 0.70726 0.15061 0.54278 0.0
C153 C 0.7258 0.1625 0.1717 0.0
C154 C 0.47923 0.18063 0.69698 0.0
C155 C 0.37453 0.07871 0.18364 0.0
C156 C 0.45958 0.95619 0.58705 0.0
C157 C 0.40373 0.91169 0.59249 0.0
C158 C 0.35963 0.91826 0.77333 0.0
C159 C 0.37699 0.91448 0.39761 0.0
C160 C 0.30239 0.99078 0.54868 0.0
C161 C 0.32031 0.94905 0.38082 0.0
C162 C 0.30993 0.96625 0.75376 0.0
C163 C 0.55823 0.90482 0.21508 0.0
O164 O 0.64742 1.01331 0.87704 0.0
O165 O 0.60368 1.02872 0.60691 0.0
O166 O 0.52084 0.14152 0.25446 0.0
O167 O 0.60942 0.07891 0.22597 0.0
O168 O 0.52621 0.1387 0.75656 0.0
O169 O 0.52483 0.13785 0.76076 0.0
O170 O 0.39134 0.0709 0.97653 0.0
O171 O 0.43164 0.06403 0.26098 0.0
O172 O 0.4417 1.01856 0.63352 0.0
O173 O 0.5109 0.93555 0.67843 0.0
O174 O 0.51198 0.94799 0.15249 0.0
O175 O 0.51344 0.94875 0.14812 0.0
H176 H 0.65533 0.22119 0.02094 0.0
H177 H 0.62478 0.19311 0.6862 0.0
H178 H 0.72174 0.13313 0.69275 0.0
H179 H 0.75796 0.15717 0.02937 0.0
H180 H 0.37606 0.90794 0.92664 0.0
H181 H 0.40591 0.91224 0.25168 0.0
H182 H 0.3084 0.96214 0.22405 0.0
H183 H 0.28926 0.993 0.89159 0.0
Gd184 Gd 0.50537 0.57377 0.12607 0.0
Gd185 Gd 0.57841 0.54342 0.96329 0.0
C186 C 0.54676 0.698 0.77157 0.0
C187 C 0.3978 0.59723 0.36555 0.0
C188 C 0.37472 0.64665 0.52126 0.0
C189 C 0.3407 0.70483 0.45901 0.0
C190 C 0.3976 0.6473 0.72187 0.0
C191 C 0.40835 0.7643 0.68064 0.0
C192 C 0.4016 0.70993 0.81838 0.0
C193 C 0.35177 0.76484 0.56499 0.0
C194 C 0.43032 0.47343 0.82217 0.0
C195 C 0.51744 0.41333 0.26912 0.0
C196 C 0.68473 0.50383 0.74926 0.0
C197 C 0.69628 0.44694 0.61084 0.0
C198 C 0.71213 0.3839 0.69857 0.0
C199 C 0.67554 0.44772 0.40661 0.0
C200 C 0.6379 0.3385 0.46625 0.0
C201 C 0.65955 0.38674 0.31882 0.0
C202 C 0.68244 0.32747 0.62276 0.0
C203 C 0.65747 0.63791 0.28432 0.0
O204 O 0.5185 0.6876 0.96782 0.0
O205 O 0.57439 0.63862 0.71168 0.0
O206 O 0.4121 0.62329 0.18034 0.0
O207 O 0.44264 0.55403 0.41542 0.0
O208 O 0.47753 0.51989 0.83051 0.0
O209 O 0.47756 0.51999 0.83321 0.0
O210 O 0.54671 0.42686 0.07524 0.0
O211 O 0.5065 0.47423 0.35565 0.0
O212 O 0.66686 0.48496 0.94102 0.0
O213 O 0.64806 0.55336 0.68669 0.0
O214 O 0.60836 0.5936 0.26638 0.0
O215 O 0.60815 0.59335 0.26293 0.0
H216 H 0.31344 0.70527 0.32165 0.0
H217 H 0.39186 0.60373 0.81813 0.0
H218 H 0.37276 0.71579 0.96761 0.0
H219 H 0.3228 0.80909 0.53467 0.0
H220 H 0.73401 0.37938 0.84685 0.0
H221 H 0.66839 0.49309 0.32238 0.0
H222 H 0.64676 0.38366 0.16029 0.0
H223 H 0.68109 0.28489 0.72923 0.0
Gd224 Gd 1.02108 0.53293 0.84559 0.0
Gd225 Gd 0.04477 0.58659 0.66459 0.0
C226 C 0.88882 0.59198 0.59446 0.0
C227 C 0.98011 0.47494 0.1966 0.0
C228 C 0.93072 0.42455 0.25831 0.0
C229 C 0.88465 0.41513 0.10958 0.0
C230 C 0.90592 0.42893 0.47144 0.0
C231 C 0.81452 0.47845 0.34861 0.0
C232 C 0.84273 0.45073 0.51715 0.0
C233 C 0.8221 0.44123 0.16133 0.0
C234 C 0.05701 0.41637 0.54886 0.0
C235 C 0.17589 0.51823 0.81952 0.0
C236 C 0.10736 0.66706 0.39784 0.0
C237 C 0.16115 0.64068 0.26702 0.0
C238 C 0.20083 0.66909 0.09665 0.0
C239 C 0.17797 0.57756 0.33626 0.0
C240 C 0.26966 0.57009 0.13396 0.0
C241 C 0.24307 0.56536 0.33604 0.0
C242 C 0.25565 0.63057 0.01887 0.0
C243 C 0.9909 0.69369 0.05565 0.0
O244 O 0.90636 0.5491 0.74772 0.0
O245 O 0.94491 0.61736 0.50815 0.0
O246 O 0.03087 0.45356 0.07793 0.0
O247 O 0.95569 0.5321 0.12903 0.0
O248 O 0.05341 0.41989 0.75393 0.0
O249 O 0.03597 0.47902 0.51091 0.0
O250 O 0.14364 0.51318 0.65488 0.0
O251 O 0.13052 0.54299 0.95653 0.0
O252 O 0.11918 0.66565 0.59499 0.0
O253 O 0.05151 0.63794 0.36897 0.0
O254 O 0.03498 0.64647 0.98256 0.0
O255 O 0.0343 0.6456 0.97688 0.0
H256 H 0.9004 0.41245 0.94494 0.0
H257 H 0.93491 0.42893 0.6028 0.0
H258 H 0.82648 0.4647 0.67652 0.0
H259 H 0.78993 0.44904 0.03866 0.0
H260 H 0.18904 0.71434 0.01588 0.0
H261 H 0.14476 0.53577 0.30942 0.0
H262 H 0.26466 0.59614 0.45011 0.0
H263 H 0.27424 0.63857 0.85703 0.0
loop_
_geom_bond_atom_site_label_1
_geom_bond_atom_site_label_2
_geom_bond_distance
_geom_bond_site_symmetry_2
_ccdc_geom_bond_type
C0 N1 1.317 . S
C0 N2 1.348 . S
C0 C3 1.485 1_556 S
N1 C0 1.317 . S
N1 N5 1.370 . S
N2 C0 1.348 . S
N2 C4 1.346 . S
C3 C0 1.485 1_554 S
C3 H7 0.960 . S
C3 H8 0.961 . S
C3 H9 0.960 . S
C4 N2 1.346 . S
C4 N5 1.307 . S
C4 C6 1.486 . S
N5 N1 1.370 . S
N5 C4 1.307 . S
C6 C4 1.486 . S
C6 H10 0.960 . S
C6 H11 0.960 . S
C6 H12 0.959 . S
H7 C3 0.960 . S
H8 C3 0.961 . S
H9 C3 0.960 . S
H10 C6 0.960 . S
H11 C6 0.960 . S
H12 C6 0.959 . S
C13 N14 1.317 . S
C13 N15 1.348 . S
C13 C16 1.485 1_556 S
N14 C13 1.317 . S
N14 N18 1.371 . S
N15 C13 1.348 . S
N15 C17 1.346 1_655 S
C16 C13 1.485 1_554 S
C16 H20 0.960 1_655 S
C16 H21 0.961 . S
C16 H22 0.960 . S
C17 N15 1.346 1_455 S
C17 N18 1.307 1_455 S
C17 C19 1.486 . S
N18 N14 1.371 . S
N18 C17 1.307 1_655 S
C19 C17 1.486 . S
C19 H23 0.960 1_455 S
C19 H24 0.960 . S
C19 H25 0.959 . S
H20 C16 0.960 1_455 S
H21 C16 0.961 . S
H22 C16 0.960 . S
H23 C19 0.960 1_655 S
H24 C19 0.960 . S
H25 C19 0.959 . S
C26 N27 1.317 . S
C26 N28 1.348 . S
C26 C29 1.485 1_556 S
N27 C26 1.317 . S
N27 N31 1.371 . S
N28 C26 1.348 . S
N28 C30 1.346 1_565 S
C29 C26 1.485 1_554 S
C29 H33 0.960 1_565 S
C29 H34 0.961 . S
C29 H35 0.960 . S
C30 N28 1.346 1_545 S
C30 N31 1.307 1_545 S
C30 C32 1.486 . S
N31 N27 1.371 . S
N31 C30 1.307 1_565 S
C32 C30 1.486 . S
C32 H36 0.960 1_545 S
C32 H37 0.960 . S
C32 H38 0.959 . S
H33 C29 0.960 1_545 S
H34 C29 0.961 . S
H35 C29 0.960 . S
H36 C32 0.960 1_565 S
H37 C32 0.960 . S
H38 C32 0.959 . S
C39 N40 1.317 . S
C39 N41 1.348 . S
C39 C42 1.485 1_556 S
N40 C39 1.317 . S
N40 N44 1.370 . S
N41 C39 1.348 . S
N41 C43 1.346 . S
C42 C39 1.485 1_554 S
C42 H46 0.960 . S
C42 H47 0.961 . S
C42 H48 0.960 . S
C43 N41 1.346 . S
C43 N44 1.307 . S
C43 C45 1.486 . S
N44 N40 1.370 . S
N44 C43 1.307 . S
C45 C43 1.486 . S
C45 H49 0.960 . S
C45 H50 0.960 . S
C45 H51 0.959 . S
H46 C42 0.960 . S
H47 C42 0.961 . S
H48 C42 0.960 . S
H49 C45 0.960 . S
H50 C45 0.960 . S
H51 C45 0.959 . S
C52 N53 1.317 . S
C52 N54 1.348 1_556 S
C52 C55 1.485 . S
N53 C52 1.317 . S
N53 N57 1.370 1_556 S
N54 C52 1.348 1_554 S
N54 C56 1.346 . S
C55 C52 1.485 . S
C55 H59 0.960 . S
C55 H60 0.961 . S
C55 H61 0.960 . S
C56 N54 1.346 . S
C56 N57 1.307 . S
C56 C58 1.486 . S
N57 N53 1.370 1_554 S
N57 C56 1.307 . S
C58 C56 1.486 . S
C58 H62 0.960 . S
C58 H63 0.960 . S
C58 H64 0.959 . S
H59 C55 0.960 . S
H60 C55 0.961 . S
H61 C55 0.960 . S
H62 C58 0.960 . S
H63 C58 0.960 . S
H64 C58 0.959 . S
C65 N66 1.317 . S
C65 N67 1.348 1_556 S
C65 C68 1.485 . S
N66 C65 1.317 . S
N66 N70 1.371 1_556 S
N67 C65 1.348 1_554 S
N67 C69 1.346 1_655 S
C68 C65 1.485 . S
C68 H72 0.960 1_655 S
C68 H73 0.961 . S
C68 H74 0.960 . S
C69 N67 1.346 1_455 S
C69 N70 1.307 1_455 S
C69 C71 1.487 . S
N70 N66 1.371 1_554 S
N70 C69 1.307 1_655 S
C71 C69 1.487 . S
C71 H75 0.960 1_455 S
C71 H76 0.960 . S
C71 H77 0.959 . S
H72 C68 0.960 1_455 S
H73 C68 0.961 . S
H74 C68 0.960 . S
H75 C71 0.960 1_655 S
H76 C71 0.960 . S
H77 C71 0.959 . S
C78 N79 1.317 . S
C78 N80 1.348 1_556 S
C78 C81 1.485 . S
N79 C78 1.317 . S
N79 N83 1.371 1_556 S
N80 C78 1.348 1_554 S
N80 C82 1.346 1_565 S
C81 C78 1.485 . S
C81 H85 0.960 1_565 S
C81 H86 0.961 . S
C81 H87 0.960 . S
C82 N80 1.346 1_545 S
C82 N83 1.307 1_545 S
C82 C84 1.487 . S
N83 N79 1.371 1_554 S
N83 C82 1.307 1_565 S
C84 C82 1.487 . S
C84 H88 0.960 1_545 S
C84 H89 0.960 . S
C84 H90 0.959 . S
H85 C81 0.960 1_545 S
H86 C81 0.961 . S
H87 C81 0.960 . S
H88 C84 0.960 1_565 S
H89 C84 0.960 . S
H90 C84 0.959 . S
C91 N92 1.317 . S
C91 N93 1.348 1_556 S
C91 C94 1.485 . S
N92 C91 1.317 . S
N92 N96 1.370 1_556 S
N93 C91 1.348 1_554 S
N93 C95 1.346 . S
C94 C91 1.485 . S
C94 H98 0.960 . S
C94 H99 0.961 . S
C94 H100 0.960 . S
C95 N93 1.346 . S
C95 N96 1.307 . S
C95 C97 1.486 . S
N96 N92 1.370 1_554 S
N96 C95 1.307 . S
C97 C95 1.486 . S
C97 H101 0.960 . S
C97 H102 0.960 . S
C97 H103 0.959 . S
H98 C94 0.960 . S
H99 C94 0.961 . S
H100 C94 0.960 . S
H101 C97 0.960 . S
H102 C97 0.960 . S
H103 C97 0.959 . S
Gd104 C107 2.818 . S
Gd104 O124 2.377 1_554 S
Gd104 O126 2.448 . S
Gd104 O127 2.506 . S
Gd104 O128 2.435 1_554 S
Gd104 O129 2.717 1_564 S
Gd104 O131 2.395 1_565 S
Gd104 O135 2.327 1_455 S
Gd105 C116 2.818 . S
Gd105 O125 2.395 1_545 S
Gd105 O129 2.327 1_655 S
Gd105 O130 2.377 . S
Gd105 O132 2.448 . S
Gd105 O133 2.506 . S
Gd105 O134 2.435 . S
Gd105 O135 2.717 1_546 S
C106 O124 1.240 1_655 S
C106 O125 1.240 . S
C107 Gd104 2.818 . S
C107 C108 1.510 . S
C107 O126 1.249 . S
C107 O127 1.252 . S
C108 C107 1.510 . S
C108 C109 1.404 . S
C108 C110 1.352 . S
C109 C108 1.404 . S
C109 C113 1.389 . S
C109 H136 0.930 . S
C110 C108 1.352 . S
C110 C112 1.374 . S
C110 H137 0.931 . S
C111 C112 1.359 . S
C111 C113 1.364 . S
C112 C110 1.374 . S
C112 C111 1.359 . S
C112 H138 0.931 . S
C113 C109 1.389 . S
C113 C111 1.364 . S
C113 H139 0.931 . S
C114 O128 1.256 . S
C114 O129 1.257 1_565 S
C115 O130 1.240 1_455 S
C115 O131 1.240 1_556 S
C116 Gd105 2.818 . S
C116 C117 1.510 . S
C116 O132 1.249 . S
C116 O133 1.252 . S
C117 C116 1.510 . S
C117 C118 1.404 . S
C117 C119 1.352 . S
C118 C117 1.404 . S
C118 C122 1.389 . S
C118 H140 0.930 . S
C119 C117 1.352 . S
C119 C121 1.374 . S
C119 H141 0.931 . S
C120 C121 1.359 . S
C120 C122 1.364 . S
C121 C119 1.374 . S
C121 C120 1.359 . S
C121 H142 0.931 . S
C122 C118 1.389 . S
C122 C120 1.364 . S
C122 H143 0.931 . S
C123 O134 1.256 1_554 S
C123 O135 1.257 1_545 S
O124 Gd104 2.377 1_556 S
O124 C106 1.240 1_455 S
O125 Gd105 2.395 1_565 S
O125 C106 1.240 . S
O126 Gd104 2.448 . S
O126 C107 1.249 . S
O127 Gd104 2.506 . S
O127 C107 1.252 . S
O128 Gd104 2.435 1_556 S
O128 C114 1.256 . S
O129 Gd104 2.717 1_546 S
O129 Gd105 2.327 1_455 S
O129 C114 1.257 1_545 S
O130 Gd105 2.377 . S
O130 C115 1.240 1_655 S
O131 Gd104 2.395 1_545 S
O131 C115 1.240 1_554 S
O132 Gd105 2.448 . S
O132 C116 1.249 . S
O133 Gd105 2.506 . S
O133 C116 1.252 . S
O134 Gd105 2.435 . S
O134 C123 1.256 1_556 S
O135 Gd104 2.327 1_655 S
O135 Gd105 2.717 1_564 S
O135 C123 1.257 1_565 S
H136 C109 0.930 . S
H137 C110 0.931 . S
H138 C112 0.931 . S
H139 C113 0.931 . S
H140 C118 0.930 . S
H141 C119 0.931 . S
H142 C121 0.931 . S
H143 C122 0.931 . S
Gd144 C147 2.818 . S
Gd144 O164 2.377 1_554 S
Gd144 O166 2.448 . S
Gd144 O167 2.506 . S
Gd144 O168 2.435 1_554 S
Gd144 O169 2.717 1_554 S
Gd144 O171 2.395 . S
Gd144 O175 2.327 1_545 S
Gd145 C156 2.818 . S
Gd145 O165 2.395 . S
Gd145 O169 2.327 1_565 S
Gd145 O170 2.377 . S
Gd145 O172 2.448 . S
Gd145 O173 2.506 . S
Gd145 O174 2.435 . S
Gd145 O175 2.717 1_556 S
C146 O164 1.240 1_565 S
C146 O165 1.240 . S
C147 Gd144 2.818 . S
C147 C148 1.510 . S
C147 O166 1.249 . S
C147 O167 1.252 . S
C148 C147 1.510 . S
C148 C149 1.404 . S
C148 C150 1.352 . S
C149 C148 1.404 . S
C149 C153 1.389 . S
C149 H176 0.930 . S
C150 C148 1.352 . S
C150 C152 1.374 . S
C150 H177 0.931 . S
C151 C152 1.359 . S
C151 C153 1.364 . S
C152 C150 1.374 . S
C152 C151 1.359 . S
C152 H178 0.931 . S
C153 C149 1.389 . S
C153 C151 1.364 . S
C153 H179 0.931 . S
C154 O168 1.256 . S
C154 O169 1.257 . S
C155 O170 1.240 1_545 S
C155 O171 1.240 1_556 S
C156 Gd145 2.818 . S
C156 C157 1.510 . S
C156 O172 1.249 . S
C156 O173 1.252 . S
C157 C156 1.510 . S
C157 C158 1.404 . S
C157 C159 1.352 . S
C158 C157 1.404 . S
C158 C162 1.389 . S
C158 H180 0.930 . S
C159 C157 1.352 . S
C159 C161 1.374 . S
C159 H181 0.931 . S
C160 C161 1.359 . S
C160 C162 1.364 . S
C161 C159 1.374 . S
C161 C160 1.359 . S
C161 H182 0.931 . S
C162 C158 1.389 . S
C162 C160 1.364 . S
C162 H183 0.931 . S
C163 O174 1.256 1_554 S
C163 O175 1.257 . S
O164 Gd144 2.377 1_556 S
O164 C146 1.240 1_545 S
O165 Gd145 2.395 . S
O165 C146 1.240 . S
O166 Gd144 2.448 . S
O166 C147 1.249 . S
O167 Gd144 2.506 . S
O167 C147 1.252 . S
O168 Gd144 2.435 1_556 S
O168 C154 1.256 . S
O169 Gd144 2.717 1_556 S
O169 Gd145 2.327 1_545 S
O169 C154 1.257 . S
O170 Gd145 2.377 . S
O170 C155 1.240 1_565 S
O171 Gd144 2.395 . S
O171 C155 1.240 1_554 S
O172 Gd145 2.448 . S
O172 C156 1.249 . S
O173 Gd145 2.506 . S
O173 C156 1.252 . S
O174 Gd145 2.435 . S
O174 C163 1.256 1_556 S
O175 Gd144 2.327 1_565 S
O175 Gd145 2.717 1_554 S
O175 C163 1.257 . S
H176 C149 0.930 . S
H177 C150 0.931 . S
H178 C152 0.931 . S
H179 C153 0.931 . S
H180 C158 0.930 . S
H181 C159 0.931 . S
H182 C161 0.931 . S
H183 C162 0.931 . S
Gd184 C187 2.818 . S
Gd184 O204 2.377 1_554 S
Gd184 O206 2.448 . S
Gd184 O207 2.506 . S
Gd184 O208 2.435 1_554 S
Gd184 O209 2.717 1_554 S
Gd184 O211 2.395 . S
Gd184 O215 2.327 . S
Gd185 C196 2.818 . S
Gd185 O205 2.395 . S
Gd185 O209 2.327 . S
Gd185 O210 2.377 . S
Gd185 O212 2.448 . S
Gd185 O213 2.506 . S
Gd185 O214 2.435 . S
Gd185 O215 2.717 1_556 S
C186 O204 1.240 . S
C186 O205 1.240 . S
C187 Gd184 2.818 . S
C187 C188 1.510 . S
C187 O206 1.249 . S
C187 O207 1.252 . S
C188 C187 1.510 . S
C188 C189 1.404 . S
C188 C190 1.352 . S
C189 C188 1.404 . S
C189 C193 1.389 . S
C189 H216 0.930 . S
C190 C188 1.352 . S
C190 C192 1.374 . S
C190 H217 0.931 . S
C191 C192 1.359 . S
C191 C193 1.364 . S
C192 C190 1.374 . S
C192 C191 1.359 . S
C192 H218 0.931 . S
C193 C189 1.389 . S
C193 C191 1.364 . S
C193 H219 0.931 . S
C194 O208 1.256 . S
C194 O209 1.257 . S
C195 O210 1.240 . S
C195 O211 1.240 1_556 S
C196 Gd185 2.818 . S
C196 C197 1.510 . S
C196 O212 1.249 . S
C196 O213 1.252 . S
C197 C196 1.510 . S
C197 C198 1.404 . S
C197 C199 1.352 . S
C198 C197 1.404 . S
C198 C202 1.389 . S
C198 H220 0.930 . S
C199 C197 1.352 . S
C199 C201 1.374 . S
C199 H221 0.931 . S
C200 C201 1.359 . S
C200 C202 1.364 . S
C201 C199 1.374 . S
C201 C200 1.359 . S
C201 H222 0.931 . S
C202 C198 1.389 . S
C202 C200 1.364 . S
C202 H223 0.931 . S
C203 O214 1.256 1_554 S
C203 O215 1.257 . S
O204 Gd184 2.377 1_556 S
O204 C186 1.240 . S
O205 Gd185 2.395 . S
O205 C186 1.240 . S
O206 Gd184 2.448 . S
O206 C187 1.249 . S
O207 Gd184 2.506 . S
O207 C187 1.252 . S
O208 Gd184 2.435 1_556 S
O208 C194 1.256 . S
O209 Gd184 2.717 1_556 S
O209 Gd185 2.327 . S
O209 C194 1.257 . S
O210 Gd185 2.377 . S
O210 C195 1.240 . S
O211 Gd184 2.395 . S
O211 C195 1.240 1_554 S
O212 Gd185 2.448 . S
O212 C196 1.249 . S
O213 Gd185 2.506 . S
O213 C196 1.252 . S
O214 Gd185 2.435 . S
O214 C203 1.256 1_556 S
O215 Gd184 2.327 . S
O215 Gd185 2.717 1_554 S
O215 C203 1.257 . S
H216 C189 0.930 . S
H217 C190 0.931 . S
H218 C192 0.931 . S
H219 C193 0.931 . S
H220 C198 0.930 . S
H221 C199 0.931 . S
H222 C201 0.931 . S
H223 C202 0.931 . S
Gd224 C227 2.818 . S
Gd224 O244 2.377 1_554 S
Gd224 O246 2.448 . S
Gd224 O247 2.506 . S
Gd224 O248 2.435 1_554 S
Gd224 O249 2.717 1_654 S
Gd224 O251 2.395 1_655 S
Gd224 O255 2.327 . S
Gd225 C236 2.818 . S
Gd225 O245 2.395 1_455 S
Gd225 O249 2.327 . S
Gd225 O250 2.377 . S
Gd225 O252 2.448 . S
Gd225 O253 2.506 . S
Gd225 O254 2.435 . S
Gd225 O255 2.717 1_456 S
C226 O244 1.240 . S
C226 O245 1.240 . S
C227 Gd224 2.818 . S
C227 C228 1.510 . S
C227 O246 1.249 . S
C227 O247 1.252 . S
C228 C227 1.510 . S
C228 C229 1.404 . S
C228 C230 1.352 . S
C229 C228 1.404 . S
C229 C233 1.389 . S
C229 H256 0.930 . S
C230 C228 1.352 . S
C230 C232 1.374 . S
C230 H257 0.931 . S
C231 C232 1.359 . S
C231 C233 1.364 . S
C232 C230 1.374 . S
C232 C231 1.359 . S
C232 H258 0.931 . S
C233 C229 1.389 . S
C233 C231 1.364 . S
C233 H259 0.931 . S
C234 O248 1.256 . S
C234 O249 1.257 1_655 S
C235 O250 1.240 . S
C235 O251 1.240 1_556 S
C236 Gd225 2.818 . S
C236 C237 1.510 . S
C236 O252 1.249 . S
C236 O253 1.252 . S
C237 C236 1.510 . S
C237 C238 1.404 . S
C237 C239 1.352 . S
C238 C237 1.404 . S
C238 C242 1.389 . S
C238 H260 0.930 . S
C239 C237 1.352 . S
C239 C241 1.374 . S
C239 H261 0.931 . S
C240 C241 1.359 . S
C240 C242 1.364 . S
C241 C239 1.374 . S
C241 C240 1.359 . S
C241 H262 0.931 . S
C242 C238 1.389 . S
C242 C240 1.364 . S
C242 H263 0.931 . S
C243 O254 1.256 1_554 S
C243 O255 1.257 1_455 S
O244 Gd224 2.377 1_556 S
O244 C226 1.240 . S
O245 Gd225 2.395 1_655 S
O245 C226 1.240 . S
O246 Gd224 2.448 . S
O246 C227 1.249 . S
O247 Gd224 2.506 . S
O247 C227 1.252 . S
O248 Gd224 2.435 1_556 S
O248 C234 1.256 . S
O249 Gd224 2.717 1_456 S
O249 Gd225 2.327 . S
O249 C234 1.257 1_455 S
O250 Gd225 2.377 . S
O250 C235 1.240 . S
O251 Gd224 2.395 1_455 S
O251 C235 1.240 1_554 S
O252 Gd225 2.448 . S
O252 C236 1.249 . S
O253 Gd225 2.506 . S
O253 C236 1.252 . S
O254 Gd225 2.435 . S
O254 C243 1.256 1_556 S
O255 Gd224 2.327 . S
O255 Gd225 2.717 1_654 S
O255 C243 1.257 1_655 S
H256 C229 0.930 . S
H257 C230 0.931 . S
H258 C232 0.931 . S
H259 C233 0.931 . S
H260 C238 0.930 . S
H261 C239 0.931 . S
H262 C241 0.931 . S
H263 C242 0.931 . S
N80 C114 2.906 1_554 S
C154 N93 2.921 1_556 S
C194 N54 2.917 1_556 S
C234 N67 2.878 1_556 S
C123 N28 2.910 1_544 S
N41 C163 2.912 1_556 S
N2 C203 2.906 1_556 S
N15 C243 2.879 1_656 S
C120 N70 2.659 . S
C160 N83 2.515 . S
C200 N96 2.448 . S
N57 C240 2.566 . S
N18 C111 2.666 1_655 S
C151 N31 2.523 1_545 S
C191 N44 2.472 . S
N5 C231 2.591 . S
N66 C115 4.040 1_655 S
N79 C155 3.974 1_565 S
C195 N92 3.982 . S
C235 N53 4.044 . S
N14 C106 4.020 . S
C146 N27 3.948 . S
C186 N40 3.942 . S
N1 C226 4.010 . S
