# Generated by pormake.
# Topology anh, (6,3)-cn, num edge types: 1
# Building blocks:
#     Node 0, Type 0, BuildingBlock: GEDQOX_clean_sbu_0, # of connection points: 6
#     Node 1, Type 0, BuildingBlock: GEDQOX_clean_sbu_0, # of connection points: 6
#     Node 2, Type 0, BuildingBlock: GEDQOX_clean_sbu_0, # of connection points: 6
#     Node 3, Type 1, BuildingBlock: ESEHIV_clean_linker_0, # of connection points: 3
#     Node 4, Type 1, BuildingBlock: ESEHIV_clean_linker_0, # of connection points: 3
#     Node 5, Type 1, BuildingBlock: ESEHIV_clean_linker_0, # of connection points: 3
#     Node 6, Type 1, BuildingBlock: ESEHIV_clean_linker_0, # of connection points: 3
#     Node 7, Type 1, BuildingBlock: ESEHIV_clean_linker_0, # of connection points: 3
#     Node 8, Type 1, BuildingBlock: ESEHIV_clean_linker_0, # of connection points: 3
#     Edge 9, Type (0, 1), BuildingBlock: TEMPAE_clean_linker_10, # of connection points: 2
#     Edge 10, Type (0, 1), BuildingBlock: TEMPAE_clean_linker_10, # of connection points: 2
#     Edge 11, Type (0, 1), BuildingBlock: TEMPAE_clean_linker_10, # of connection points: 2
#     Edge 12, Type (0, 1), BuildingBlock: TEMPAE_clean_linker_10, # of connection points: 2
#     Edge 13, Type (0, 1), BuildingBlock: TEMPAE_clean_linker_10, # of connection points: 2
#     Edge 14, Type (0, 1), BuildingBlock: TEMPAE_clean_linker_10, # of connection points: 2
#     Edge 15, Type (0, 1), BuildingBlock: TEMPAE_clean_linker_10, # of connection points: 2
#     Edge 16, Type (0, 1), BuildingBlock: TEMPAE_clean_linker_10, # of connection points: 2
#     Edge 17, Type (0, 1), BuildingBlock: TEMPAE_clean_linker_10, # of connection points: 2
#     Edge 18, Type (0, 1), BuildingBlock: TEMPAE_clean_linker_10, # of connection points: 2
#     Edge 19, Type (0, 1), BuildingBlock: TEMPAE_clean_linker_10, # of connection points: 2
#     Edge 20, Type (0, 1), BuildingBlock: TEMPAE_clean_linker_10, # of connection points: 2
#     Edge 21, Type (0, 1), BuildingBlock: TEMPAE_clean_linker_10, # of connection points: 2
#     Edge 22, Type (0, 1), BuildingBlock: TEMPAE_clean_linker_10, # of connection points: 2
#     Edge 23, Type (0, 1), BuildingBlock: TEMPAE_clean_linker_10, # of connection points: 2
#     Edge 24, Type (0, 1), BuildingBlock: TEMPAE_clean_linker_10, # of connection points: 2
#     Edge 25, Type (0, 1), BuildingBlock: TEMPAE_clean_linker_10, # of connection points: 2
#     Edge 26, Type (0, 1), BuildingBlock: TEMPAE_clean_linker_10, # of connection points: 2
# Relax obj value: 0.209
# Max RMSD: 0.226
# Mean RMSD: 0.166
data_MOF--net-anh--node1-GEDQOX_clean_sbu_0--node2-ESEHIV_clean_linker_0--edge1-TEMPAE_clean_linker_10
_symmetry_space_group_name_H-M    P1
_symmetry_Int_Tables_number       1
_symmetry_cell_setting            triclinic
loop_
_symmetry_equiv_pos_as_xyz
'x, y, z'
_cell_length_a     30.133093
_cell_length_b     28.093882
_cell_length_c     52.767107
_cell_angle_alpha  92.801087
_cell_angle_beta   90.492018
_cell_angle_gamma 104.68639
loop_
_atom_site_label
_atom_site_type_symbol
_atom_site_fract_x
_atom_site_fract_y
_atom_site_fract_z
_atom_type_partial_charge
Nd0 Nd 0.08252 0.54916 0.14529 0.0
Nd1 Nd 0.05904 0.44173 0.1444 0.0
C2 C 0.12033 0.64252 0.13729 0.0
C3 C 0.16425 0.67748 0.14528 0.0
C4 C 0.19731 0.6955 0.12715 0.0
C5 C 0.23936 0.72781 0.13455 0.0
C6 C 0.24898 0.74296 0.16023 0.0
C7 C 0.21601 0.72455 0.17837 0.0
C8 C 0.17413 0.69217 0.17101 0.0
C9 C 0.06961 0.51419 0.19289 0.0
C10 C 0.17189 0.49196 0.14281 0.0
C11 C 1.02275 0.34883 0.15386 0.0
C12 C 0.97586 0.31948 0.15868 0.0
C13 C 0.95136 0.33132 0.17959 0.0
C14 C 0.90716 0.30308 0.18398 0.0
C15 C 0.8862 0.26268 0.16744 0.0
C16 C 0.91042 0.25163 0.14621 0.0
C17 C 0.9549 0.2796 0.14197 0.0
C18 C 0.07271 0.48023 0.09805 0.0
C19 C 0.96951 0.49775 0.14158 0.0
O20 O 0.12296 0.60648 0.12117 0.0
O21 O 0.09049 0.62834 0.15501 0.0
O22 O 0.05765 0.55268 0.18586 0.0
O23 O 0.09111 0.49746 0.17562 0.0
O24 O 0.15777 0.53345 0.14131 0.0
O25 O 0.13972 0.45017 0.14579 0.0
O26 O 1.04204 0.38247 0.17141 0.0
O27 O 1.03046 0.36382 0.13086 0.0
O28 O 0.0893 0.44399 0.10445 0.0
O29 O 1.04949 0.49341 0.1154 0.0
O30 O 0.9833 0.457 0.14617 0.0
O31 O 1.00229 0.53887 0.13813 0.0
H32 H 0.1906 0.68456 0.10722 0.0
H33 H 0.26402 0.74159 0.12014 0.0
H34 H 0.22274 0.73484 0.19836 0.0
H35 H 0.14969 0.67856 0.18555 0.0
H36 H 0.96636 0.3621 0.19275 0.0
H37 H 0.88994 0.31226 0.20076 0.0
H38 H 0.89509 0.22129 0.13285 0.0
H39 H 0.97297 0.27004 0.1256 0.0
Nd40 Nd 0.50373 0.00962 0.5177 0.0
Nd41 Nd 0.60185 0.03455 0.51376 0.0
C42 C 0.41826 0.96882 0.52929 0.0
C43 C 0.38591 0.92271 0.52004 0.0
C44 C 0.36231 0.88972 0.53742 0.0
C45 C 0.33297 0.8448 0.5288 0.0
C46 C 0.32672 0.83249 0.50266 0.0
C47 C 0.35112 0.86519 0.48533 0.0
C48 C 0.38061 0.90979 0.49393 0.0
C49 C 0.53002 0.02297 0.46824 0.0
C50 C 0.55668 0.91856 0.51277 0.0
C51 C 0.68899 0.07381 0.50468 0.0
C52 C 0.71785 0.12367 0.50106 0.0
C53 C 0.71634 0.14678 0.47816 0.0
C54 C 0.74558 0.19305 0.47471 0.0
C55 C 0.77675 0.21705 0.49408 0.0
C56 C 0.77679 0.19479 0.51733 0.0
C57 C 0.74786 0.1484 0.52071 0.0
C58 C 0.5723 0.01771 0.56222 0.0
C59 C 0.55013 0.12466 0.51924 0.0
O60 O 0.45334 0.96354 0.54259 0.0
O61 O 0.42948 1.00343 0.51307 0.0
O62 O 0.49613 0.03717 0.47825 0.0
O63 O 0.548 1.00024 0.48385 0.0
O64 O 0.51846 0.93195 0.51765 0.0
O65 O 0.59493 0.95167 0.50827 0.0
O66 O 0.65874 0.05371 0.4868 0.0
O67 O 0.67326 0.06561 0.52745 0.0
O68 O 0.60352 0.99933 0.55195 0.0
O69 O 0.55757 0.04402 0.54722 0.0
O70 O 0.58439 0.10994 0.50872 0.0
O71 O 0.51603 0.09197 0.52891 0.0
H72 H 0.36668 0.89868 0.55764 0.0
H73 H 0.31451 0.82017 0.54252 0.0
H74 H 0.34753 0.85613 0.4651 0.0
H75 H 0.39937 0.93399 0.48011 0.0
H76 H 0.6934 0.12876 0.46269 0.0
H77 H 0.74513 0.20898 0.45645 0.0
H78 H 0.79999 0.21273 0.53271 0.0
H79 H 0.74952 0.13152 0.5386 0.0
Nd80 Nd 0.51328 0.49087 0.83033 0.0
Nd81 Nd 0.61354 0.52947 0.83536 0.0
C82 C 0.43336 0.46656 0.8068 0.0
C83 C 0.40348 0.49898 0.80367 0.0
C84 C 0.37797 0.49653 0.78115 0.0
C85 C 0.35507 0.53288 0.77684 0.0
C86 C 0.35819 0.57207 0.79494 0.0
C87 C 0.38486 0.57467 0.81716 0.0
C88 C 0.40731 0.53852 0.82146 0.0
C89 C 0.53058 0.50631 0.88203 0.0
C90 C 0.55749 0.61191 0.83641 0.0
C91 C 0.7008 0.54248 0.8447 0.0
C92 C 0.72725 0.50669 0.83847 0.0
C93 C 0.71267 0.45798 0.84611 0.0
C94 C 0.73711 0.42365 0.83917 0.0
C95 C 0.77688 0.43777 0.82486 0.0
C96 C 0.78816 0.48501 0.81498 0.0
C97 C 0.76398 0.51935 0.82206 0.0
C98 C 0.57999 0.52604 0.78696 0.0
C99 C 0.56943 0.40762 0.83188 0.0
O100 O 0.47188 0.48096 0.79496 0.0
O101 O 0.43892 0.45453 0.83008 0.0
O102 O 0.48993 0.49054 0.87171 0.0
O103 O 0.56072 0.51473 0.86512 0.0
O104 O 0.52308 0.57568 0.82706 0.0
O105 O 0.59483 0.60203 0.84556 0.0
O106 O 0.67031 0.53082 0.86239 0.0
O107 O 0.68554 0.56025 0.82497 0.0
O108 O 0.60968 0.564 0.79712 0.0
O109 O 0.56922 0.49193 0.80227 0.0
O110 O 0.60675 0.44456 0.83116 0.0
O111 O 0.52839 0.41568 0.83274 0.0
H112 H 0.37624 0.46699 0.76689 0.0
H113 H 0.33429 0.52998 0.75971 0.0
H114 H 0.38691 0.60357 0.83183 0.0
H115 H 0.42815 0.54181 0.83862 0.0
H116 H 0.68318 0.44661 0.85802 0.0
H117 H 0.72724 0.38741 0.84677 0.0
H118 H 0.81825 0.4973 0.80364 0.0
H119 H 0.77459 0.55615 0.81515 0.0
H120 H 0.50003 0.95966 0.27262 0.0
H121 H 0.62393 0.07572 0.27628 0.0
H122 H 0.57158 1.00354 0.20418 0.0
C123 C 0.52891 0.98255 0.26317 0.0
C124 C 0.5315 0.9781 0.23662 0.0
C125 C 0.56271 0.01689 0.27767 0.0
C126 C 0.59852 0.04841 0.26514 0.0
C127 C 0.60226 0.04425 0.23854 0.0
C128 C 0.56855 0.00862 0.22451 0.0
H129 H 0.54914 0.6022 0.59487 0.0
H130 H 0.55208 0.45103 0.59232 0.0
H131 H 0.55252 0.52436 0.52233 0.0
C132 C 0.54935 0.56893 0.58366 0.0
C133 C 0.54892 0.56903 0.55687 0.0
C134 C 0.54967 0.5265 0.59643 0.0
C135 C 0.55148 0.48369 0.58232 0.0
C136 C 0.55394 0.48237 0.5557 0.0
C137 C 0.55176 0.52517 0.54285 0.0
H138 H 1.01943 0.5756 0.92173 0.0
H139 H 0.16092 0.65939 0.92558 0.0
H140 H 0.08914 0.62185 0.85384 0.0
C141 C 1.04996 0.59671 0.91285 0.0
C142 C 1.05031 0.59734 0.88651 0.0
C143 C 0.0902 0.61735 0.92728 0.0
C144 C 0.12899 0.64467 0.91504 0.0
C145 C 0.12829 0.64815 0.88854 0.0
C146 C 0.08864 0.62417 0.87442 0.0
H147 H 0.99997 0.44873 0.38353 0.0
H148 H 0.12536 0.56232 0.38609 0.0
H149 H 0.06475 0.50608 0.45567 0.0
C150 C 1.02767 0.4732 0.39466 0.0
C151 C 1.02762 0.47371 0.42132 0.0
C152 C 0.06358 0.50402 0.38209 0.0
C153 C 0.09871 0.53729 0.39609 0.0
C154 C 0.09867 0.53926 0.42277 0.0
C155 C 0.06361 0.50647 0.43516 0.0
H156 H 0.55573 0.0786 0.75587 0.0
H157 H 0.562 0.92861 0.75314 0.0
H158 H 0.56691 0.00856 0.82586 0.0
C159 C 0.5577 0.04643 0.76596 0.0
C160 C 0.56004 0.04913 0.7926 0.0
C161 C 0.55881 1.00347 0.7519 0.0
C162 C 0.56268 0.96203 0.76447 0.0
C163 C 0.56609 0.9627 0.79119 0.0
C164 C 0.56465 1.00696 0.80533 0.0
H165 H 0.50004 0.5056 0.07645 0.0
H166 H 0.63714 0.493 0.07405 0.0
H167 H 0.57105 0.4936 0.14704 0.0
C168 C 0.52972 0.50161 0.08709 0.0
C169 C 0.52666 0.49597 0.11348 0.0
C170 C 0.56893 0.50041 0.07333 0.0
C171 C 0.6087 0.49603 0.08587 0.0
C172 C 0.61357 0.49712 0.11261 0.0
C173 C 0.5705 0.49542 0.12662 0.0
C174 C 0.24133 0.45031 0.14516 0.0
C175 C 0.2246 0.49229 0.14089 0.0
C176 C 0.28924 0.44982 0.14351 0.0
C177 C 0.32438 0.49213 0.13662 0.0
C178 C 0.30745 0.53455 0.132 0.0
C179 C 0.25942 0.53429 0.13451 0.0
C180 C 0.30124 0.40258 0.1494 0.0
C181 C 0.33997 0.58123 0.12398 0.0
C182 C 0.46246 0.51738 0.14434 0.0
C183 C 0.47572 0.4901 0.12361 0.0
C184 C 0.4148 0.5173 0.1493 0.0
C185 C 0.37695 0.49105 0.13281 0.0
C186 C 0.39047 0.46333 0.11211 0.0
C187 C 0.43753 0.46202 0.10853 0.0
C188 C 0.40592 0.5465 0.17252 0.0
C189 C 0.35547 0.43522 0.09259 0.0
H190 H 0.21668 0.41691 0.1501 0.0
H191 H 0.24907 0.56763 0.13096 0.0
H192 H 0.29073 0.37561 0.13302 0.0
H193 H 0.33837 0.4077 0.15348 0.0
H194 H 0.28175 0.38616 0.16598 0.0
H195 H 0.32171 0.6038 0.11322 0.0
H196 H 0.35586 0.60358 0.14116 0.0
H197 H 0.36775 0.5734 0.11209 0.0
H198 H 0.48941 0.54013 0.15659 0.0
H199 H 0.44466 0.43957 0.09255 0.0
H200 H 0.36954 0.53586 0.17825 0.0
H201 H 0.41541 0.58624 0.16867 0.0
H202 H 0.42791 0.54159 0.18869 0.0
H203 H 0.34276 0.39666 0.09816 0.0
H204 H 0.37111 0.43394 0.07365 0.0
H205 H 0.32581 0.45156 0.09069 0.0
C206 C 0.8016 0.29888 0.47468 0.0
C207 C 0.81227 0.2624 0.48902 0.0
C208 C 0.83638 0.33776 0.4663 0.0
C209 C 0.88265 0.34013 0.47259 0.0
C210 C 0.89332 0.30548 0.48859 0.0
C211 C 0.85797 0.26681 0.4965 0.0
C212 C 0.82386 0.37432 0.44932 0.0
C213 C 0.94229 0.30721 0.49593 0.0
C214 C 0.97172 0.39166 0.42447 0.0
C215 C 0.99047 0.43965 0.43469 0.0
C216 C 0.93626 0.35922 0.43656 0.0
C217 C 0.91999 0.37466 0.45982 0.0
C218 C 0.93934 0.42253 0.47064 0.0
C219 C 0.97391 0.45479 0.45773 0.0
C220 C 0.91617 0.30837 0.42439 0.0
C221 C 0.92344 0.43965 0.49574 0.0
H222 H 0.7662 0.29604 0.46926 0.0
H223 H 0.86654 0.23848 0.50736 0.0
H224 H 0.84115 0.41256 0.45613 0.0
H225 H 0.8359 0.36873 0.42985 0.0
H226 H 0.78625 0.37038 0.44834 0.0
H227 H 0.94424 0.28186 0.51118 0.0
H228 H 0.96015 0.29649 0.47913 0.0
H229 H 0.96112 0.34515 0.50246 0.0
H230 H 0.98499 0.37914 0.40706 0.0
H231 H 0.98767 0.49201 0.46563 0.0
H232 H 0.87872 0.30257 0.42104 0.0
H233 H 0.92087 0.27995 0.43729 0.0
H234 H 0.9322 0.30252 0.406 0.0
H235 H 0.88724 0.44151 0.49385 0.0
H236 H 0.94464 0.47651 0.50256 0.0
H237 H 0.92469 0.41292 0.51037 0.0
C238 C 0.59138 0.70336 0.84558 0.0
C239 C 0.55656 0.66488 0.83417 0.0
C240 C 0.59375 0.75336 0.84166 0.0
C241 C 0.56084 0.76589 0.82564 0.0
C242 C 0.52502 0.72729 0.8145 0.0
C243 C 0.52313 0.67757 0.81902 0.0
C244 C 0.63233 0.79281 0.85418 0.0
C245 C 0.48958 0.73837 0.79693 0.0
C246 C 0.54483 0.89785 0.82442 0.0
C247 C 0.56999 0.91591 0.80306 0.0
C248 C 0.54286 0.84997 0.8326 0.0
C249 C 0.56584 0.81876 0.81893 0.0
C250 C 0.59288 0.83774 0.79811 0.0
C251 C 0.59534 0.88593 0.79087 0.0
C252 C 0.515 0.83217 0.85546 0.0
C253 C 0.61788 0.80639 0.78269 0.0
H254 H 0.61749 0.69442 0.85734 0.0
H255 H 0.49619 0.64851 0.80991 0.0
H256 H 0.65541 0.81194 0.83954 0.0
H257 H 0.61839 0.82093 0.86459 0.0
H258 H 0.65303 0.77757 0.86764 0.0
H259 H 0.46348 0.70457 0.79008 0.0
H260 H 0.47185 0.76388 0.80675 0.0
H261 H 0.50668 0.75707 0.78024 0.0
H262 H 0.52515 0.92025 0.83414 0.0
H263 H 0.61622 0.89963 0.77488 0.0
H264 H 0.53573 0.81715 0.86897 0.0
H265 H 0.48479 0.80183 0.84947 0.0
H266 H 0.50276 0.86199 0.86548 0.0
H267 H 0.64219 0.79386 0.79502 0.0
H268 H 0.63731 0.82642 0.76697 0.0
H269 H 0.59293 0.77297 0.77446 0.0
C270 C 0.90113 0.54097 0.1421 0.0
C271 C 0.91673 0.49733 0.13984 0.0
C272 C 0.85321 0.54164 0.14079 0.0
C273 C 0.81673 0.49762 0.13573 0.0
C274 C 0.83258 0.45332 0.13312 0.0
C275 C 0.88072 0.45369 0.13574 0.0
C276 C 0.8428 0.59107 0.14521 0.0
C277 C 0.79914 0.40416 0.1271 0.0
C278 C 0.67891 0.47597 0.14266 0.0
C279 C 0.66507 0.50078 0.1223 0.0
C280 C 0.72667 0.47572 0.14777 0.0
C281 C 0.76399 0.49866 0.13168 0.0
C282 C 0.74973 0.52353 0.11126 0.0
C283 C 0.70297 0.52617 0.10789 0.0
C284 C 0.7362 0.45003 0.1708 0.0
C285 C 0.7832 0.54706 0.09158 0.0
H286 H 0.92674 0.57562 0.14543 0.0
H287 H 0.89018 0.41898 0.13385 0.0
H288 H 0.8523 0.61279 0.12818 0.0
H289 H 0.80624 0.58819 0.14938 0.0
H290 H 0.86417 0.61216 0.1613 0.0
H291 H 0.81486 0.38044 0.11448 0.0
H292 H 0.7905 0.38497 0.14498 0.0
H293 H 0.76701 0.40767 0.11786 0.0
H294 H 0.65239 0.45583 0.15464 0.0
H295 H 0.6961 0.54804 0.0927 0.0
H296 H 0.77283 0.46133 0.17696 0.0
H297 H 0.72624 0.40963 0.16644 0.0
H298 H 0.71495 0.45765 0.18684 0.0
H299 H 0.79304 0.58756 0.09549 0.0
H300 H 0.76665 0.54016 0.07239 0.0
H301 H 0.81456 0.53328 0.09102 0.0
C302 C 0.26278 0.78803 0.47353 0.0
C303 C 0.29368 0.78653 0.49326 0.0
C304 C 0.2316 0.7451 0.4639 0.0
C305 C 0.2314 0.69955 0.47426 0.0
C306 C 0.26211 0.69776 0.49443 0.0
C307 C 0.29298 0.74147 0.50376 0.0
C308 C 0.19904 0.74852 0.44251 0.0
C309 C 0.26257 0.64973 0.50594 0.0
C310 C 0.12191 0.60118 0.45933 0.0
C311 C 0.13414 0.57666 0.4377 0.0
C312 C 0.15412 0.63938 0.47246 0.0
C313 C 0.19934 0.65396 0.46344 0.0
C314 C 0.21243 0.62817 0.44228 0.0
C315 C 0.17972 0.58955 0.42976 0.0
C316 C 0.13908 0.66579 0.49515 0.0
C317 C 0.26039 0.64294 0.43208 0.0
H318 H 0.2628 0.82302 0.46571 0.0
H319 H 0.3171 0.74032 0.51894 0.0
H320 H 0.20432 0.7252 0.4258 0.0
H321 H 0.16304 0.7344 0.44841 0.0
H322 H 0.20371 0.78688 0.43664 0.0
H323 H 0.28806 0.65481 0.52182 0.0
H324 H 0.22809 0.63215 0.5131 0.0
H325 H 0.27072 0.62384 0.49122 0.0
H326 H 0.08668 0.59187 0.46549 0.0
H327 H 0.18967 0.57005 0.41342 0.0
H328 H 0.13786 0.70336 0.49017 0.0
H329 H 0.16406 0.66994 0.51118 0.0
H330 H 0.10461 0.64609 0.50162 0.0
H331 H 0.26641 0.67989 0.42421 0.0
H332 H 0.26615 0.6165 0.41689 0.0
H333 H 0.28617 0.64561 0.44757 0.0
C334 C 0.54571 0.32113 0.84618 0.0
C335 C 0.57264 0.35542 0.83044 0.0
C336 C 0.54458 0.27059 0.84364 0.0
C337 C 0.56952 0.25318 0.82415 0.0
C338 C 0.597 0.28787 0.80824 0.0
C339 C 0.59899 0.33858 0.81193 0.0
C340 C 0.51584 0.23566 0.86152 0.0
C341 C 0.62264 0.27114 0.78654 0.0
C342 C 0.59253 0.12423 0.82233 0.0
C343 C 0.55768 0.0973 0.80559 0.0
C344 C 0.59581 0.17439 0.82942 0.0
C345 C 0.56411 0.19858 0.81916 0.0
C346 C 0.52763 0.17069 0.80328 0.0
C347 C 0.52449 0.12063 0.79713 0.0
C348 C 0.63436 0.20212 0.84704 0.0
C349 C 0.49327 0.19438 0.79146 0.0
H350 H 0.52525 0.33392 0.86053 0.0
H351 H 0.61933 0.36477 0.79946 0.0
H352 H 0.48679 0.21006 0.85092 0.0
H353 H 0.53668 0.21295 0.87008 0.0
H354 H 0.50176 0.25536 0.877 0.0
H355 H 0.64197 0.3024 0.77568 0.0
H356 H 0.64707 0.25117 0.7938 0.0
H357 H 0.59814 0.24506 0.77336 0.0
H358 H 0.61858 0.10695 0.82884 0.0
H359 H 0.49722 0.10015 0.78431 0.0
H360 H 0.62106 0.22325 0.8622 0.0
H361 H 0.65963 0.22904 0.8363 0.0
H362 H 0.65241 0.17711 0.85599 0.0
H363 H 0.47604 0.21183 0.80639 0.0
H364 H 0.46659 0.1675 0.77978 0.0
H365 H 0.51128 0.22391 0.7792 0.0
C366 C 0.52154 0.82784 0.50344 0.0
C367 C 0.55717 0.86579 0.51432 0.0
C368 C 0.52046 0.77777 0.50621 0.0
C369 C 0.55454 0.76506 0.52134 0.0
C370 C 0.59076 0.80351 0.53222 0.0
C371 C 0.59213 0.85315 0.52812 0.0
C372 C 0.48214 0.73849 0.4934 0.0
C373 C 0.6268 0.7924 0.54936 0.0
C374 C 0.5199 0.64582 0.55641 0.0
C375 C 0.54592 0.61594 0.54478 0.0
C376 C 0.52243 0.6938 0.54894 0.0
C377 C 0.54967 0.7124 0.52816 0.0
C378 C 0.57323 0.68124 0.5149 0.0
C379 C 0.57162 0.63376 0.52353 0.0
C380 C 0.49737 0.72541 0.56416 0.0
C381 C 0.60111 0.69857 0.49197 0.0
H382 H 0.4945 0.83735 0.49267 0.0
H383 H 0.61946 0.88233 0.53684 0.0
H384 H 0.4958 0.70895 0.48417 0.0
H385 H 0.45727 0.72132 0.50774 0.0
H386 H 0.46342 0.75373 0.47889 0.0
H387 H 0.65299 0.82622 0.55611 0.0
H388 H 0.61023 0.77353 0.56613 0.0
H389 H 0.64438 0.76707 0.53928 0.0
H390 H 0.49832 0.63223 0.57216 0.0
H391 H 0.59172 0.61141 0.51415 0.0
H392 H 0.47204 0.73638 0.55187 0.0
H393 H 0.52207 0.75972 0.57162 0.0
H394 H 0.47904 0.70619 0.58041 0.0
H395 H 0.58096 0.71479 0.47868 0.0
H396 H 0.61213 0.66818 0.48171 0.0
H397 H 0.63215 0.72784 0.49793 0.0
C398 C 0.82726 0.40716 0.85258 0.0
C399 C 0.81397 0.41249 0.82755 0.0
C400 C 0.87329 0.42457 0.86012 0.0
C401 C 0.90574 0.44372 0.84163 0.0
C402 C 0.89359 0.43474 0.81559 0.0
C403 C 0.84707 0.41766 0.80868 0.0
C404 C 0.8852 0.43173 0.88814 0.0
C405 C 0.92812 0.45149 0.79531 0.0
C406 C 0.97595 0.57057 0.86325 0.0
C407 C 1.01585 0.55995 0.87193 0.0
C408 C 0.94059 0.5331 0.85206 0.0
C409 C 0.94587 0.48417 0.84958 0.0
C410 C 0.98739 0.47408 0.85721 0.0
C411 C 1.02198 0.51229 0.86853 0.0
C412 C 0.89703 0.54575 0.84381 0.0
C413 C 0.99466 0.42284 0.85484 0.0
H414 H 0.80173 0.39987 0.86721 0.0
H415 H 0.83661 0.41852 0.78903 0.0
H416 H 0.91851 0.42337 0.89211 0.0
H417 H 0.88841 0.47082 0.89437 0.0
H418 H 0.85837 0.40815 0.89961 0.0
H419 H 0.91632 0.43195 0.77671 0.0
H420 H 0.9329 0.49158 0.79317 0.0
H421 H 0.96189 0.44536 0.8006 0.0
H422 H 0.97192 0.60775 0.86602 0.0
H423 H 1.05334 0.50466 0.87547 0.0
H424 H 0.86723 0.52343 0.85377 0.0
H425 H 0.8912 0.53713 0.82314 0.0
H426 H 0.89838 0.58533 0.84768 0.0
H427 H 0.98365 0.40382 0.87253 0.0
H428 H 1.03153 0.42423 0.85236 0.0
H429 H 0.97457 0.40047 0.83872 0.0
C430 C 0.33471 0.7734 0.15834 0.0
C431 C 0.29293 0.77835 0.16822 0.0
C432 C 0.37649 0.80565 0.16669 0.0
C433 C 0.37634 0.8435 0.18538 0.0
C434 C 0.33419 0.84938 0.19493 0.0
C435 C 0.29305 0.81681 0.1862 0.0
C436 C 0.4208 0.7985 0.156 0.0
C437 C 0.33259 0.88943 0.21482 0.0
C438 C 0.47708 0.89457 0.23064 0.0
C439 C 0.49519 0.94159 0.22168 0.0
C440 C 0.43964 0.86139 0.21828 0.0
C441 C 0.42006 0.87536 0.19626 0.0
C442 C 0.43977 0.92165 0.18625 0.0
C443 C 0.47704 0.95436 0.19915 0.0
C444 C 0.41964 0.81232 0.22954 0.0
C445 C 0.4201 0.9376 0.16265 0.0
H446 H 0.33482 0.74352 0.14456 0.0
H447 H 0.2608 0.82137 0.19354 0.0
H448 H 0.44138 0.83347 0.14869 0.0
H449 H 0.44158 0.78814 0.17125 0.0
H450 H 0.41487 0.76939 0.14042 0.0
H451 H 0.29691 0.88996 0.21967 0.0
H452 H 0.35082 0.88397 0.23238 0.0
H453 H 0.35042 0.92599 0.20806 0.0
H454 H 0.49166 0.88403 0.24769 0.0
H455 H 0.49077 0.99069 0.19214 0.0
H456 H 0.41568 0.78191 0.2148 0.0
H457 H 0.38496 0.81133 0.23677 0.0
H458 H 0.4412 0.80537 0.24543 0.0
H459 H 0.41445 0.90801 0.14737 0.0
H460 H 0.44281 0.97168 0.15551 0.0
H461 H 0.38626 0.94466 0.16687 0.0
C462 C 0.57997 0.21193 0.5055 0.0
C463 C 0.55038 0.17821 0.52052 0.0
C464 C 0.58108 0.26262 0.50699 0.0
C465 C 0.55264 0.28066 0.52432 0.0
C466 C 0.52232 0.24661 0.53928 0.0
C467 C 0.52123 0.19604 0.53702 0.0
C468 C 0.6133 0.29705 0.49029 0.0
C469 C 0.49205 0.26386 0.55843 0.0
C470 C 0.59131 0.41217 0.55324 0.0
C471 C 0.55953 0.43527 0.54284 0.0
C472 C 0.59018 0.36269 0.54685 0.0
C473 C 0.55754 0.33529 0.5287 0.0
C474 C 0.52793 0.35957 0.51638 0.0
C475 C 0.52892 0.4091 0.52376 0.0
C476 C 0.622 0.33884 0.56093 0.0
C477 C 0.49364 0.33249 0.4963 0.0
H478 H 0.60239 0.19873 0.4925 0.0
H479 H 0.49825 0.17057 0.54876 0.0
H480 H 0.59438 0.31951 0.47996 0.0
H481 H 0.64034 0.32293 0.50214 0.0
H482 H 0.63014 0.27696 0.47627 0.0
H483 H 0.46975 0.23285 0.56828 0.0
H484 H 0.51363 0.28982 0.57287 0.0
H485 H 0.46997 0.28407 0.54894 0.0
H486 H 0.61556 0.43218 0.56775 0.0
H487 H 0.50415 0.42632 0.51559 0.0
H488 H 0.6417 0.3213 0.54736 0.0
H489 H 0.60153 0.30936 0.57244 0.0
H490 H 0.64661 0.36561 0.57378 0.0
H491 H 0.51018 0.31169 0.4825 0.0
H492 H 0.47815 0.35792 0.48587 0.0
H493 H 0.46574 0.30536 0.50529 0.0
C494 C 0.27998 0.5823 0.79171 0.0
C495 C 0.32701 0.60452 0.79391 0.0
C496 C 0.24868 0.60471 0.8035 0.0
C497 C 0.2654 0.65044 0.81727 0.0
C498 C 0.3117 0.6769 0.81533 0.0
C499 C 0.34224 0.6536 0.80331 0.0
C500 C 0.19933 0.57538 0.8049 0.0
C501 C 0.33032 0.72614 0.82936 0.0
C502 C 0.17165 0.68986 0.85246 0.0
C503 C 0.17118 0.66414 0.87462 0.0
C504 C 0.2049 0.68955 0.83414 0.0
C505 C 0.23806 0.66306 0.83837 0.0
C506 C 0.24067 0.64168 0.86194 0.0
C507 C 0.20719 0.64277 0.87989 0.0
C508 C 0.20141 0.71292 0.80931 0.0
C509 C 0.27548 0.61266 0.86715 0.0
H510 H 0.26813 0.54452 0.78418 0.0
H511 H 0.37874 0.67109 0.80441 0.0
H512 H 0.19377 0.55853 0.82359 0.0
H513 H 0.17556 0.59942 0.80316 0.0
H514 H 0.19044 0.54529 0.78983 0.0
H515 H 0.36383 0.74612 0.82182 0.0
H516 H 0.30573 0.74944 0.82817 0.0
H517 H 0.33547 0.72033 0.84972 0.0
H518 H 0.14372 0.70648 0.84848 0.0
H519 H 0.20657 0.6223 0.89683 0.0
H520 H 0.18226 0.68439 0.79518 0.0
H521 H 0.23585 0.7289 0.80163 0.0
H522 H 0.18272 0.74221 0.81143 0.0
H523 H 0.26776 0.57838 0.85474 0.0
H524 H 0.27527 0.60222 0.88719 0.0
H525 H 0.31055 0.63424 0.86282 0.0
C526 C 0.80658 0.2513 0.18409 0.0
C527 C 0.84034 0.2308 0.17322 0.0
C528 C 0.76546 0.22118 0.19256 0.0
C529 C 0.75749 0.16936 0.18955 0.0
C530 C 0.79006 0.14848 0.17715 0.0
C531 C 0.8313 0.17941 0.16937 0.0
C532 C 0.7317 0.24477 0.20595 0.0
C533 C 0.78228 0.09336 0.17311 0.0
C534 C 0.68517 0.09111 0.23795 0.0
C535 C 0.64201 0.07611 0.22562 0.0
C536 C 0.72257 0.12223 0.22657 0.0
C537 C 0.71754 0.13702 0.20171 0.0
C538 C 0.67472 0.12091 0.1887 0.0
C539 C 0.63721 0.09149 0.20099 0.0
C540 C 0.76753 0.13943 0.24128 0.0
C541 C 0.66857 0.13471 0.16182 0.0
H542 H 0.81276 0.29098 0.18658 0.0
H543 H 0.85723 0.16308 0.16123 0.0
H544 H 0.69698 0.23086 0.19716 0.0
H545 H 0.7293 0.23471 0.22606 0.0
H546 H 0.74179 0.28559 0.20548 0.0
H547 H 0.80846 0.08329 0.16072 0.0
H548 H 0.78356 0.07674 0.19166 0.0
H549 H 0.74777 0.07683 0.16447 0.0
H550 H 0.69009 0.07836 0.25654 0.0
H551 H 0.60408 0.08093 0.19129 0.0
H552 H 0.77884 0.18029 0.24229 0.0
H553 H 0.79452 0.12563 0.23142 0.0
H554 H 0.76505 0.1266 0.26093 0.0
H555 H 0.67358 0.17514 0.16132 0.0
H556 H 0.63401 0.11623 0.15371 0.0
H557 H 0.69482 0.12467 0.14951 0.0
C558 C 0.05904 0.54137 0.06887 0.0
C559 C 0.08326 0.50679 0.07479 0.0
C560 C 0.06652 0.56554 0.04621 0.0
C561 C 0.09953 0.55525 0.02937 0.0
C562 C 0.12632 0.52285 0.03608 0.0
C563 C 0.11745 0.49841 0.05871 0.0
C564 C 1.03658 0.59903 0.03947 0.0
C565 C 0.16262 0.51209 0.01879 0.0
C566 C 0.07003 0.55479 0.96004 0.0
C567 C 0.09368 0.60243 0.95369 0.0
C568 C 0.07154 0.53942 0.98464 0.0
C569 C 0.09985 0.5712 0.00314 0.0
C570 C 0.12604 0.61822 -0.00324 0.0
C571 C 0.12187 0.63381 0.97217 0.0
C572 C 1.04211 0.48934 0.99086 0.0
C573 C 0.15809 0.65203 0.01589 0.0
H574 H 1.03293 0.54823 0.08154 0.0
H575 H 0.13679 0.47234 0.06364 0.0
H576 H 0.05766 0.63433 0.03283 0.0
H577 H 1.01259 0.58118 0.02369 0.0
H578 H 1.01609 0.60716 0.05577 0.0
H579 H 0.186 0.49398 0.02877 0.0
H580 H 0.14598 0.48723 0.00254 0.0
H581 H 0.18327 0.54651 0.01095 0.0
H582 H 1.05019 0.52892 0.94575 0.0
H583 H 0.14056 0.6705 0.9675 0.0
H584 H 1.0194 0.49323 0.00686 0.0
H585 H 0.06409 0.46555 -0.00311 0.0
H586 H 1.02028 0.47027 0.97446 0.0
H587 H 0.13796 0.66554 0.03083 0.0
H588 H 0.1804 0.68437 0.00702 0.0
H589 H 0.18014 0.63173 0.02538 0.0
C590 C 0.58005 0.0192 0.43073 0.0
C591 C 0.53773 0.02225 0.44056 0.0
C592 C 0.58743 0.01988 0.4044 0.0
C593 C 0.55115 0.02208 0.38756 0.0
C594 C 0.5082 0.02443 0.39747 0.0
C595 C 0.50227 0.02522 0.42381 0.0
C596 C 0.63403 0.01857 0.39459 0.0
C597 C 0.46828 0.0256 0.38019 0.0
C598 C 0.57187 0.06378 0.32012 0.0
C599 C 0.56123 0.01864 0.30592 0.0
C600 C 0.5703 0.06547 0.34677 0.0
C601 C 0.55736 0.02097 0.35953 0.0
C602 C 0.54731 0.97532 0.34531 0.0
C603 C 0.54956 0.97473 0.31874 0.0
C604 C 0.5816 0.1149 0.36122 0.0
C605 C 0.53317 0.92703 0.3581 0.0
H606 H 0.60757 0.01713 0.44363 0.0
H607 H 0.46938 0.02728 0.43131 0.0
H608 H 0.63107 0.98518 0.38191 0.0
H609 H 0.64774 0.05096 0.38314 0.0
H610 H 0.65906 0.01856 0.41017 0.0
H611 H 0.43694 0.0267 0.39089 0.0
H612 H 0.47747 0.05834 0.36854 0.0
H613 H 0.46019 0.99253 0.36692 0.0
H614 H 0.58058 0.09791 0.31039 0.0
H615 H 0.54224 0.93966 0.30797 0.0
H616 H 0.60793 0.11614 0.37623 0.0
H617 H 0.55052 0.12051 0.37076 0.0
H618 H 0.59445 0.14586 0.34867 0.0
H619 H 0.55955 0.92473 0.37245 0.0
H620 H 0.52808 0.89471 0.34439 0.0
H621 H 0.50066 0.92482 0.36825 0.0
C622 C 0.59391 0.49681 0.74318 0.0
C623 C 0.56899 0.52045 0.75953 0.0
C624 C 0.58835 0.49704 0.71669 0.0
C625 C 0.55661 0.52091 0.70638 0.0
C626 C 0.5302 0.54335 0.72299 0.0
C627 C 0.53723 0.54348 0.7494 0.0
C628 C 0.61763 0.47327 0.69972 0.0
C629 C 0.49538 0.56832 0.71286 0.0
C630 C 0.57842 0.56523 0.63939 0.0
C631 C 0.54924 0.52677 0.6247 0.0
C632 C 0.58046 0.56426 0.66599 0.0
C633 C 0.5525 0.52393 0.67828 0.0
C634 C 0.52203 0.48568 0.66357 0.0
C635 C 0.52085 0.4875 0.637 0.0
C636 C 0.61355 0.60576 0.68088 0.0
C637 C 0.49117 0.44239 0.67586 0.0
H638 H 0.61897 0.4797 0.75114 0.0
H639 H 0.51838 0.56221 0.76216 0.0
H640 H 0.5956 0.44536 0.6863 0.0
H641 H 0.63983 0.50153 0.68821 0.0
H642 H 0.63981 0.45516 0.71067 0.0
H643 H 0.47477 0.58002 0.72819 0.0
H644 H 0.51315 0.60129 0.70276 0.0
H645 H 0.47175 0.54318 0.69893 0.0
H646 H 0.60076 0.59544 0.63002 0.0
H647 H 0.49772 0.458 0.62578 0.0
H648 H 0.63955 0.5912 0.69079 0.0
H649 H 0.59508 0.62219 0.69562 0.0
H650 H 0.63158 0.63532 0.6686 0.0
H651 H 0.51228 0.42108 0.68534 0.0
H652 H 0.46747 0.41726 0.66191 0.0
H653 H 0.47056 0.45554 0.69069 0.0
C654 C 0.54267 0.97146 0.59992 0.0
C655 C 0.56324 0.01633 0.58948 0.0
C656 C 0.53777 0.96833 0.62627 0.0
C657 C 0.55563 0.01073 0.64247 0.0
C658 C 0.57596 0.05636 0.63185 0.0
C659 C 0.57889 0.05874 0.60536 0.0
C660 C 0.51451 0.91942 0.63677 0.0
C661 C 0.59649 0.1021 0.64846 0.0
C662 C 0.52054 0.01587 0.71142 0.0
C663 C 0.55654 1.00254 0.72383 0.0
C664 C 0.51914 0.01754 0.68488 0.0
C665 C 0.55526 1.00684 0.67053 0.0
C666 C 0.59162 0.99317 0.68304 0.0
C667 C 0.59153 0.99063 0.70955 0.0
C668 C 0.4792 0.031 0.67222 0.0
C669 C 0.63123 0.98243 0.6685 0.0
H670 H 0.53072 0.93876 0.58743 0.0
H671 H 0.59531 0.09324 0.59709 0.0
H672 H 0.53995 0.90522 0.64738 0.0
H673 H 0.48773 0.92401 0.65031 0.0
H674 H 0.49836 0.89145 0.62158 0.0
H675 H 0.60983 0.13494 0.63722 0.0
H676 H 0.57052 0.10999 0.66167 0.0
H677 H 0.62509 0.09602 0.66021 0.0
H678 H 0.49339 0.02486 0.72254 0.0
H679 H 0.61957 0.9808 0.71924 0.0
H680 H 0.46313 1.00215 0.65745 0.0
H681 H 0.49147 0.06599 0.66258 0.0
H682 H 0.45262 0.03544 0.68596 0.0
H683 H 0.61847 0.95159 0.6542 0.0
H684 H 0.65693 0.97262 0.6811 0.0
H685 H 0.64859 0.01515 0.65808 0.0
C686 C 0.5044 0.48596 0.92599 0.0
C687 C 0.53975 0.50827 0.90996 0.0
C688 C 0.51179 0.48535 0.95233 0.0
C689 C 0.55552 0.50844 0.96327 0.0
C690 C 0.5914 0.53149 0.94724 0.0
C691 C 0.58322 0.53076 0.92077 0.0
C692 C 0.47268 0.45962 0.96846 0.0
C693 C 0.63834 0.55707 0.9581 0.0
C694 C 0.55465 0.5427 0.03425 0.0
C695 C 0.56817 0.50386 0.04512 0.0
C696 C 0.55233 0.54576 0.00772 0.0
C697 C 0.563 0.50862 0.9915 0.0
C698 C 0.57747 0.46974 0.00243 0.0
C699 C 0.58019 0.46804 0.02906 0.0
C700 C 0.53753 0.58832 -0.00295 0.0
C701 C 0.58867 0.42901 0.98603 0.0
H702 H 0.47079 0.46814 0.91785 0.0
H703 H 0.61074 0.54807 0.90856 0.0
H704 H 0.48276 0.43054 0.97893 0.0
H705 H 0.46469 0.48628 0.9828 0.0
H706 H 0.44106 0.44242 0.95703 0.0
H707 H 0.66247 0.5737 0.94325 0.0
H708 H 0.63561 0.58652 0.97235 0.0
H709 H 0.65301 0.53051 0.96807 0.0
H710 H 0.54587 0.57081 0.04657 0.0
H711 H 0.59048 0.43784 0.03736 0.0
H712 H 0.50413 0.57445 0.98676 0.0
H713 H 0.56283 0.60676 0.98319 0.0
H714 H 0.53381 0.61606 0.01208 0.0
H715 H 0.55748 0.4082 0.97519 0.0
H716 H 0.60164 0.40285 -0.00265 0.0
H717 H 0.61486 0.44472 0.97201 0.0
C718 C 1.04479 0.46445 0.23033 0.0
C719 C 0.07381 0.50544 0.21987 0.0
C720 C 1.04334 0.46015 0.25676 0.0
C721 C 0.07195 0.49761 0.27285 0.0
C722 C 0.10279 0.53794 0.26212 0.0
C723 C 0.10297 0.5416 0.23572 0.0
C724 C 1.00976 0.41686 0.26751 0.0
C725 C 0.13422 0.5783 0.27856 0.0
C726 C 1.03583 0.52205 0.33999 0.0
C727 C 0.0646 0.50108 0.3542 0.0
C728 C 1.03729 0.52037 0.3134 0.0
C729 C 0.06786 0.49656 0.3009 0.0
C730 C 0.09619 0.47427 0.31532 0.0
C731 C 0.09444 0.47715 0.3419 0.0
C732 C 1.00684 0.54495 0.29873 0.0
C733 C 0.12884 0.44819 0.30271 0.0
H734 H 1.02181 0.43698 0.21792 0.0
H735 H 0.12511 0.57344 0.22744 0.0
H736 H 1.02748 0.39873 0.28117 0.0
H737 H 0.98308 0.42998 0.27809 0.0
H738 H 0.99257 0.38908 0.25247 0.0
H739 H 0.15843 0.60515 0.26718 0.0
H740 H 0.11351 0.59844 0.29009 0.0
H741 H 0.15434 0.56229 0.29195 0.0
H742 H 1.01279 0.54044 0.34975 0.0
H743 H 0.11636 0.46071 0.35314 0.0
H744 H 0.98557 0.51824 0.28449 0.0
H745 H 1.02828 0.57546 0.28822 0.0
H746 H 0.98376 0.56016 0.31126 0.0
H747 H 0.11006 0.41956 0.28852 0.0
H748 H 0.1466 0.43046 0.31658 0.0
H749 H 0.15508 0.47488 0.29239 0.0
loop_
_geom_bond_atom_site_label_1
_geom_bond_atom_site_label_2
_geom_bond_distance
_geom_bond_site_symmetry_2
_ccdc_geom_bond_type
Nd0 C2 2.836 . S
Nd0 O20 2.500 . S
Nd0 O21 2.492 . S
Nd0 O22 2.487 . S
Nd0 O23 2.682 . S
Nd0 O24 2.410 . S
Nd0 O29 2.414 . S
Nd0 O31 2.424 1_455 S
Nd1 C11 2.836 . S
Nd1 O23 2.414 1_655 S
Nd1 O25 2.424 1_655 S
Nd1 O26 2.500 . S
Nd1 O27 2.492 . S
Nd1 O28 2.487 . S
Nd1 O29 2.682 1_655 S
Nd1 O30 2.410 . S
C2 Nd0 2.836 . S
C2 C3 1.498 . S
C2 O20 1.258 . S
C2 O21 1.239 . S
C3 C2 1.498 . S
C3 C4 1.366 . S
C3 C8 1.407 . S
C4 C3 1.366 . S
C4 C5 1.392 . S
C4 H32 0.930 . S
C5 C4 1.392 . S
C5 C6 1.398 . S
C5 H33 0.929 . S
C6 C5 1.398 . S
C6 C7 1.352 . S
C7 C6 1.352 . S
C7 C8 1.384 . S
C7 H34 0.930 . S
C8 C3 1.407 . S
C8 C7 1.384 . S
C8 H35 0.929 . S
C9 O22 1.241 . S
C9 O23 1.273 . S
C10 O24 1.251 . S
C10 O25 1.268 . S
C11 Nd1 2.836 . S
C11 C12 1.498 . S
C11 O26 1.258 . S
C11 O27 1.239 . S
C12 C11 1.498 . S
C12 C13 1.366 . S
C12 C17 1.407 . S
C13 C12 1.366 . S
C13 C14 1.392 . S
C13 H36 0.930 . S
C14 C13 1.392 . S
C14 C15 1.398 . S
C14 H37 0.929 . S
C15 C14 1.398 . S
C15 C16 1.352 . S
C16 C15 1.352 . S
C16 C17 1.384 . S
C16 H38 0.930 . S
C17 C12 1.407 . S
C17 C16 1.384 . S
C17 H39 0.929 . S
C18 O28 1.241 1_455 S
C18 O29 1.273 . S
C19 O30 1.251 . S
C19 O31 1.268 . S
O20 Nd0 2.500 . S
O20 C2 1.258 . S
O21 Nd0 2.492 . S
O21 C2 1.239 . S
O22 Nd0 2.487 . S
O22 C9 1.241 . S
O23 Nd0 2.682 . S
O23 Nd1 2.414 1_455 S
O23 C9 1.273 . S
O24 Nd0 2.410 . S
O24 C10 1.251 . S
O25 Nd1 2.424 1_455 S
O25 C10 1.268 . S
O26 Nd1 2.500 . S
O26 C11 1.258 . S
O27 Nd1 2.492 . S
O27 C11 1.239 . S
O28 Nd1 2.487 . S
O28 C18 1.241 1_655 S
O29 Nd0 2.414 . S
O29 Nd1 2.682 1_455 S
O29 C18 1.273 . S
O30 Nd1 2.410 . S
O30 C19 1.251 . S
O31 Nd0 2.424 1_655 S
O31 C19 1.268 . S
H32 C4 0.930 . S
H33 C5 0.929 . S
H34 C7 0.930 . S
H35 C8 0.929 . S
H36 C13 0.930 . S
H37 C14 0.929 . S
H38 C16 0.930 . S
H39 C17 0.929 . S
Nd40 C42 2.840 . S
Nd40 O60 2.503 . S
Nd40 O61 2.495 . S
Nd40 O62 2.487 . S
Nd40 O63 2.681 1_565 S
Nd40 O64 2.414 . S
Nd40 O69 2.415 1_565 S
Nd40 O71 2.419 1_565 S
Nd41 C51 2.836 . S
Nd41 O63 2.414 . S
Nd41 O65 2.424 1_545 S
Nd41 O66 2.500 . S
Nd41 O67 2.492 . S
Nd41 O68 2.487 . S
Nd41 O69 2.682 . S
Nd41 O70 2.410 . S
C42 Nd40 2.840 . S
C42 C43 1.498 . S
C42 O60 1.258 . S
C42 O61 1.239 . S
C43 C42 1.498 . S
C43 C44 1.366 . S
C43 C48 1.407 . S
C44 C43 1.366 . S
C44 C45 1.392 . S
C44 H72 0.930 . S
C45 C44 1.392 . S
C45 C46 1.398 . S
C45 H73 0.929 . S
C46 C45 1.398 . S
C46 C47 1.352 . S
C47 C46 1.352 . S
C47 C48 1.384 . S
C47 H74 0.930 . S
C48 C43 1.407 . S
C48 C47 1.384 . S
C48 H75 0.929 . S
C49 O62 1.241 1_545 S
C49 O63 1.273 . S
C50 O64 1.251 . S
C50 O65 1.268 . S
C51 Nd41 2.836 . S
C51 C52 1.498 . S
C51 O66 1.258 . S
C51 O67 1.239 . S
C52 C51 1.498 . S
C52 C53 1.366 . S
C52 C57 1.407 . S
C53 C52 1.366 . S
C53 C54 1.392 . S
C53 H76 0.930 . S
C54 C53 1.392 . S
C54 C55 1.398 . S
C54 H77 0.929 . S
C55 C54 1.398 . S
C55 C56 1.352 . S
C56 C55 1.352 . S
C56 C57 1.384 . S
C56 H78 0.930 . S
C57 C52 1.407 . S
C57 C56 1.384 . S
C57 H79 0.929 . S
C58 O68 1.241 . S
C58 O69 1.273 . S
C59 O70 1.251 . S
C59 O71 1.268 . S
O60 Nd40 2.503 . S
O60 C42 1.258 . S
O61 Nd40 2.495 . S
O61 C42 1.239 . S
O62 Nd40 2.487 . S
O62 C49 1.241 1_565 S
O63 Nd40 2.681 1_545 S
O63 Nd41 2.414 . S
O63 C49 1.273 . S
O64 Nd40 2.414 . S
O64 C50 1.251 . S
O65 Nd41 2.424 1_565 S
O65 C50 1.268 . S
O66 Nd41 2.500 . S
O66 C51 1.258 . S
O67 Nd41 2.492 . S
O67 C51 1.239 . S
O68 Nd41 2.487 . S
O68 C58 1.241 . S
O69 Nd40 2.415 1_545 S
O69 Nd41 2.682 . S
O69 C58 1.273 . S
O70 Nd41 2.410 . S
O70 C59 1.251 . S
O71 Nd40 2.419 1_545 S
O71 C59 1.268 . S
H72 C44 0.930 . S
H73 C45 0.929 . S
H74 C47 0.930 . S
H75 C48 0.929 . S
H76 C53 0.930 . S
H77 C54 0.929 . S
H78 C56 0.930 . S
H79 C57 0.929 . S
Nd80 C82 2.836 . S
Nd80 O100 2.500 . S
Nd80 O101 2.492 . S
Nd80 O102 2.487 . S
Nd80 O103 2.682 . S
Nd80 O104 2.410 . S
Nd80 O109 2.414 . S
Nd80 O111 2.424 . S
Nd81 C91 2.836 . S
Nd81 O103 2.414 . S
Nd81 O105 2.424 . S
Nd81 O106 2.500 . S
Nd81 O107 2.492 . S
Nd81 O108 2.487 . S
Nd81 O109 2.682 . S
Nd81 O110 2.410 . S
C82 Nd80 2.836 . S
C82 C83 1.498 . S
C82 O100 1.258 . S
C82 O101 1.239 . S
C83 C82 1.498 . S
C83 C84 1.366 . S
C83 C88 1.407 . S
C84 C83 1.366 . S
C84 C85 1.392 . S
C84 H112 0.930 . S
C85 C84 1.392 . S
C85 C86 1.398 . S
C85 H113 0.929 . S
C86 C85 1.398 . S
C86 C87 1.352 . S
C87 C86 1.352 . S
C87 C88 1.384 . S
C87 H114 0.930 . S
C88 C83 1.407 . S
C88 C87 1.384 . S
C88 H115 0.929 . S
C89 O102 1.241 . S
C89 O103 1.273 . S
C90 O104 1.251 . S
C90 O105 1.268 . S
C91 Nd81 2.836 . S
C91 C92 1.498 . S
C91 O106 1.258 . S
C91 O107 1.239 . S
C92 C91 1.498 . S
C92 C93 1.366 . S
C92 C97 1.407 . S
C93 C92 1.366 . S
C93 C94 1.392 . S
C93 H116 0.930 . S
C94 C93 1.392 . S
C94 C95 1.398 . S
C94 H117 0.929 . S
C95 C94 1.398 . S
C95 C96 1.352 . S
C96 C95 1.352 . S
C96 C97 1.384 . S
C96 H118 0.930 . S
C97 C92 1.407 . S
C97 C96 1.384 . S
C97 H119 0.929 . S
C98 O108 1.241 . S
C98 O109 1.273 . S
C99 O110 1.251 . S
C99 O111 1.268 . S
O100 Nd80 2.500 . S
O100 C82 1.258 . S
O101 Nd80 2.492 . S
O101 C82 1.239 . S
O102 Nd80 2.487 . S
O102 C89 1.241 . S
O103 Nd80 2.682 . S
O103 Nd81 2.414 . S
O103 C89 1.273 . S
O104 Nd80 2.410 . S
O104 C90 1.251 . S
O105 Nd81 2.424 . S
O105 C90 1.268 . S
O106 Nd81 2.500 . S
O106 C91 1.258 . S
O107 Nd81 2.492 . S
O107 C91 1.239 . S
O108 Nd81 2.487 . S
O108 C98 1.241 . S
O109 Nd80 2.414 . S
O109 Nd81 2.682 . S
O109 C98 1.273 . S
O110 Nd81 2.410 . S
O110 C99 1.251 . S
O111 Nd80 2.424 . S
O111 C99 1.268 . S
H112 C84 0.930 . S
H113 C85 0.929 . S
H114 C87 0.930 . S
H115 C88 0.929 . S
H116 C93 0.930 . S
H117 C94 0.929 . S
H118 C96 0.930 . S
H119 C97 0.929 . S
H120 C123 0.931 . S
H121 C126 0.928 . S
H122 C128 0.930 . S
C123 H120 0.931 . S
C123 C124 1.413 . S
C123 C125 1.360 1_565 S
C124 C123 1.413 . S
C124 C128 1.429 1_565 S
C125 C123 1.360 1_545 S
C125 C126 1.372 . S
C126 H121 0.928 . S
C126 C125 1.372 . S
C126 C127 1.404 . S
C127 C126 1.404 . S
C127 C128 1.391 . S
C128 H122 0.930 . S
C128 C124 1.429 1_545 S
C128 C127 1.391 . S
H129 C132 0.931 . S
H130 C135 0.928 . S
H131 C137 0.930 . S
C132 H129 0.931 . S
C132 C133 1.413 . S
C132 C134 1.360 . S
C133 C132 1.413 . S
C133 C137 1.429 . S
C134 C132 1.360 . S
C134 C135 1.372 . S
C135 H130 0.928 . S
C135 C134 1.372 . S
C135 C136 1.404 . S
C136 C135 1.404 . S
C136 C137 1.391 . S
C137 H131 0.930 . S
C137 C133 1.429 . S
C137 C136 1.391 . S
H138 C141 0.931 . S
H139 C144 0.928 . S
H140 C146 0.930 . S
C141 H138 0.931 . S
C141 C142 1.413 . S
C141 C143 1.360 1_655 S
C142 C141 1.413 . S
C142 C146 1.429 1_655 S
C143 C141 1.360 1_455 S
C143 C144 1.372 . S
C144 H139 0.928 . S
C144 C143 1.372 . S
C144 C145 1.404 . S
C145 C144 1.404 . S
C145 C146 1.391 . S
C146 H140 0.930 . S
C146 C142 1.429 1_455 S
C146 C145 1.391 . S
H147 C150 0.931 . S
H148 C153 0.928 . S
H149 C155 0.931 . S
C150 H147 0.931 . S
C150 C151 1.413 . S
C150 C152 1.360 1_655 S
C151 C150 1.413 . S
C151 C155 1.429 1_655 S
C152 C150 1.360 1_455 S
C152 C153 1.372 . S
C153 H148 0.928 . S
C153 C152 1.372 . S
C153 C154 1.404 . S
C154 C153 1.404 . S
C154 C155 1.391 . S
C155 H149 0.931 . S
C155 C151 1.429 1_455 S
C155 C154 1.391 . S
H156 C159 0.931 . S
H157 C162 0.928 . S
H158 C164 0.930 . S
C159 H156 0.931 . S
C159 C160 1.413 . S
C159 C161 1.360 . S
C160 C159 1.413 . S
C160 C164 1.429 . S
C161 C159 1.360 . S
C161 C162 1.372 1_545 S
C162 H157 0.928 . S
C162 C161 1.372 1_565 S
C162 C163 1.404 . S
C163 C162 1.404 . S
C163 C164 1.391 1_565 S
C164 H158 0.930 . S
C164 C160 1.429 . S
C164 C163 1.391 1_545 S
H165 C168 0.931 . S
H166 C171 0.928 . S
H167 C173 0.930 . S
C168 H165 0.931 . S
C168 C169 1.413 . S
C168 C170 1.360 . S
C169 C168 1.413 . S
C169 C173 1.429 . S
C170 C168 1.360 . S
C170 C171 1.372 . S
C171 H166 0.928 . S
C171 C170 1.372 . S
C171 C172 1.404 . S
C172 C171 1.404 . S
C172 C173 1.391 . S
C173 H167 0.930 . S
C173 C169 1.429 . S
C173 C172 1.391 . S
C174 C175 1.391 . S
C174 C176 1.394 . S
C174 H190 0.931 . S
C175 C174 1.391 . S
C175 C179 1.376 . S
C176 C174 1.394 . S
C176 C177 1.369 . S
C176 C180 1.531 . S
C177 C176 1.369 . S
C177 C178 1.410 . S
C177 C185 1.503 . S
C178 C177 1.410 . S
C178 C179 1.392 . S
C178 C181 1.511 . S
C179 C175 1.376 . S
C179 C178 1.392 . S
C179 H191 0.929 . S
C180 C176 1.531 . S
C180 H192 0.960 . S
C180 H193 0.962 . S
C180 H194 0.960 . S
C181 C178 1.511 . S
C181 H195 0.961 . S
C181 H196 0.961 . S
C181 H197 0.961 . S
C182 C183 1.370 . S
C182 C184 1.363 . S
C182 H198 0.931 . S
C183 C182 1.370 . S
C183 C187 1.408 . S
C184 C182 1.363 . S
C184 C185 1.370 . S
C184 C188 1.524 . S
C185 C177 1.503 . S
C185 C184 1.370 . S
C185 C186 1.403 . S
C186 C185 1.403 . S
C186 C187 1.404 . S
C186 C189 1.539 . S
C187 C183 1.408 . S
C187 C186 1.404 . S
C187 H199 0.930 . S
C188 C184 1.524 . S
C188 H200 0.956 . S
C188 H201 0.961 . S
C188 H202 0.961 . S
C189 C186 1.539 . S
C189 H203 0.958 . S
C189 H204 0.961 . S
C189 H205 0.960 . S
H190 C174 0.931 . S
H191 C179 0.929 . S
H192 C180 0.960 . S
H193 C180 0.962 . S
H194 C180 0.960 . S
H195 C181 0.961 . S
H196 C181 0.961 . S
H197 C181 0.961 . S
H198 C182 0.931 . S
H199 C187 0.930 . S
H200 C188 0.956 . S
H201 C188 0.961 . S
H202 C188 0.961 . S
H203 C189 0.958 . S
H204 C189 0.961 . S
H205 C189 0.960 . S
C206 C207 1.391 . S
C206 C208 1.394 . S
C206 H222 0.931 . S
C207 C206 1.391 . S
C207 C211 1.376 . S
C208 C206 1.394 . S
C208 C209 1.369 . S
C208 C212 1.531 . S
C209 C208 1.369 . S
C209 C210 1.410 . S
C209 C217 1.503 . S
C210 C209 1.410 . S
C210 C211 1.392 . S
C210 C213 1.511 . S
C211 C207 1.376 . S
C211 C210 1.392 . S
C211 H223 0.929 . S
C212 C208 1.531 . S
C212 H224 0.960 . S
C212 H225 0.962 . S
C212 H226 0.960 . S
C213 C210 1.511 . S
C213 H227 0.961 . S
C213 H228 0.961 . S
C213 H229 0.961 . S
C214 C215 1.370 . S
C214 C216 1.363 . S
C214 H230 0.931 . S
C215 C214 1.370 . S
C215 C219 1.408 . S
C216 C214 1.363 . S
C216 C217 1.370 . S
C216 C220 1.524 . S
C217 C209 1.503 . S
C217 C216 1.370 . S
C217 C218 1.403 . S
C218 C217 1.403 . S
C218 C219 1.404 . S
C218 C221 1.539 . S
C219 C215 1.408 . S
C219 C218 1.404 . S
C219 H231 0.930 . S
C220 C216 1.524 . S
C220 H232 0.956 . S
C220 H233 0.961 . S
C220 H234 0.961 . S
C221 C218 1.539 . S
C221 H235 0.958 . S
C221 H236 0.961 . S
C221 H237 0.960 . S
H222 C206 0.931 . S
H223 C211 0.929 . S
H224 C212 0.960 . S
H225 C212 0.962 . S
H226 C212 0.960 . S
H227 C213 0.961 . S
H228 C213 0.961 . S
H229 C213 0.961 . S
H230 C214 0.931 . S
H231 C219 0.930 . S
H232 C220 0.956 . S
H233 C220 0.961 . S
H234 C220 0.961 . S
H235 C221 0.958 . S
H236 C221 0.961 . S
H237 C221 0.960 . S
C238 C239 1.391 . S
C238 C240 1.394 . S
C238 H254 0.931 . S
C239 C238 1.391 . S
C239 C243 1.376 . S
C240 C238 1.394 . S
C240 C241 1.369 . S
C240 C244 1.531 . S
C241 C240 1.369 . S
C241 C242 1.410 . S
C241 C249 1.503 . S
C242 C241 1.410 . S
C242 C243 1.392 . S
C242 C245 1.511 . S
C243 C239 1.376 . S
C243 C242 1.392 . S
C243 H255 0.929 . S
C244 C240 1.531 . S
C244 H256 0.960 . S
C244 H257 0.962 . S
C244 H258 0.960 . S
C245 C242 1.511 . S
C245 H259 0.961 . S
C245 H260 0.961 . S
C245 H261 0.961 . S
C246 C247 1.370 . S
C246 C248 1.363 . S
C246 H262 0.931 . S
C247 C246 1.370 . S
C247 C251 1.408 . S
C248 C246 1.363 . S
C248 C249 1.370 . S
C248 C252 1.524 . S
C249 C241 1.503 . S
C249 C248 1.370 . S
C249 C250 1.403 . S
C250 C249 1.403 . S
C250 C251 1.404 . S
C250 C253 1.539 . S
C251 C247 1.408 . S
C251 C250 1.404 . S
C251 H263 0.930 . S
C252 C248 1.524 . S
C252 H264 0.956 . S
C252 H265 0.961 . S
C252 H266 0.961 . S
C253 C250 1.539 . S
C253 H267 0.958 . S
C253 H268 0.961 . S
C253 H269 0.960 . S
H254 C238 0.931 . S
H255 C243 0.929 . S
H256 C244 0.960 . S
H257 C244 0.962 . S
H258 C244 0.960 . S
H259 C245 0.961 . S
H260 C245 0.961 . S
H261 C245 0.961 . S
H262 C246 0.931 . S
H263 C251 0.930 . S
H264 C252 0.956 . S
H265 C252 0.961 . S
H266 C252 0.961 . S
H267 C253 0.958 . S
H268 C253 0.961 . S
H269 C253 0.960 . S
C270 C271 1.391 . S
C270 C272 1.394 . S
C270 H286 0.931 . S
C271 C270 1.391 . S
C271 C275 1.376 . S
C272 C270 1.394 . S
C272 C273 1.369 . S
C272 C276 1.531 . S
C273 C272 1.369 . S
C273 C274 1.410 . S
C273 C281 1.503 . S
C274 C273 1.410 . S
C274 C275 1.392 . S
C274 C277 1.511 . S
C275 C271 1.376 . S
C275 C274 1.392 . S
C275 H287 0.929 . S
C276 C272 1.531 . S
C276 H288 0.960 . S
C276 H289 0.962 . S
C276 H290 0.960 . S
C277 C274 1.511 . S
C277 H291 0.961 . S
C277 H292 0.961 . S
C277 H293 0.961 . S
C278 C279 1.370 . S
C278 C280 1.363 . S
C278 H294 0.931 . S
C279 C278 1.370 . S
C279 C283 1.408 . S
C280 C278 1.363 . S
C280 C281 1.370 . S
C280 C284 1.524 . S
C281 C273 1.503 . S
C281 C280 1.370 . S
C281 C282 1.403 . S
C282 C281 1.403 . S
C282 C283 1.404 . S
C282 C285 1.539 . S
C283 C279 1.408 . S
C283 C282 1.404 . S
C283 H295 0.930 . S
C284 C280 1.524 . S
C284 H296 0.956 . S
C284 H297 0.961 . S
C284 H298 0.961 . S
C285 C282 1.539 . S
C285 H299 0.958 . S
C285 H300 0.961 . S
C285 H301 0.960 . S
H286 C270 0.931 . S
H287 C275 0.929 . S
H288 C276 0.960 . S
H289 C276 0.962 . S
H290 C276 0.960 . S
H291 C277 0.961 . S
H292 C277 0.961 . S
H293 C277 0.961 . S
H294 C278 0.931 . S
H295 C283 0.930 . S
H296 C284 0.956 . S
H297 C284 0.961 . S
H298 C284 0.961 . S
H299 C285 0.958 . S
H300 C285 0.961 . S
H301 C285 0.960 . S
C302 C303 1.391 . S
C302 C304 1.394 . S
C302 H318 0.931 . S
C303 C302 1.391 . S
C303 C307 1.376 . S
C304 C302 1.394 . S
C304 C305 1.369 . S
C304 C308 1.531 . S
C305 C304 1.369 . S
C305 C306 1.410 . S
C305 C313 1.503 . S
C306 C305 1.410 . S
C306 C307 1.392 . S
C306 C309 1.511 . S
C307 C303 1.376 . S
C307 C306 1.392 . S
C307 H319 0.929 . S
C308 C304 1.531 . S
C308 H320 0.960 . S
C308 H321 0.962 . S
C308 H322 0.960 . S
C309 C306 1.511 . S
C309 H323 0.961 . S
C309 H324 0.961 . S
C309 H325 0.961 . S
C310 C311 1.370 . S
C310 C312 1.363 . S
C310 H326 0.931 . S
C311 C310 1.370 . S
C311 C315 1.408 . S
C312 C310 1.363 . S
C312 C313 1.370 . S
C312 C316 1.524 . S
C313 C305 1.503 . S
C313 C312 1.370 . S
C313 C314 1.403 . S
C314 C313 1.403 . S
C314 C315 1.404 . S
C314 C317 1.539 . S
C315 C311 1.408 . S
C315 C314 1.404 . S
C315 H327 0.930 . S
C316 C312 1.524 . S
C316 H328 0.956 . S
C316 H329 0.961 . S
C316 H330 0.961 . S
C317 C314 1.539 . S
C317 H331 0.958 . S
C317 H332 0.961 . S
C317 H333 0.960 . S
H318 C302 0.931 . S
H319 C307 0.929 . S
H320 C308 0.960 . S
H321 C308 0.962 . S
H322 C308 0.960 . S
H323 C309 0.961 . S
H324 C309 0.961 . S
H325 C309 0.961 . S
H326 C310 0.931 . S
H327 C315 0.930 . S
H328 C316 0.956 . S
H329 C316 0.961 . S
H330 C316 0.961 . S
H331 C317 0.958 . S
H332 C317 0.961 . S
H333 C317 0.960 . S
C334 C335 1.391 . S
C334 C336 1.394 . S
C334 H350 0.931 . S
C335 C334 1.391 . S
C335 C339 1.376 . S
C336 C334 1.394 . S
C336 C337 1.369 . S
C336 C340 1.531 . S
C337 C336 1.369 . S
C337 C338 1.410 . S
C337 C345 1.503 . S
C338 C337 1.410 . S
C338 C339 1.392 . S
C338 C341 1.511 . S
C339 C335 1.376 . S
C339 C338 1.392 . S
C339 H351 0.929 . S
C340 C336 1.531 . S
C340 H352 0.960 . S
C340 H353 0.962 . S
C340 H354 0.960 . S
C341 C338 1.511 . S
C341 H355 0.961 . S
C341 H356 0.961 . S
C341 H357 0.961 . S
C342 C343 1.370 . S
C342 C344 1.363 . S
C342 H358 0.931 . S
C343 C342 1.370 . S
C343 C347 1.408 . S
C344 C342 1.363 . S
C344 C345 1.370 . S
C344 C348 1.524 . S
C345 C337 1.503 . S
C345 C344 1.370 . S
C345 C346 1.403 . S
C346 C345 1.403 . S
C346 C347 1.404 . S
C346 C349 1.539 . S
C347 C343 1.408 . S
C347 C346 1.404 . S
C347 H359 0.930 . S
C348 C344 1.524 . S
C348 H360 0.956 . S
C348 H361 0.961 . S
C348 H362 0.961 . S
C349 C346 1.539 . S
C349 H363 0.958 . S
C349 H364 0.961 . S
C349 H365 0.960 . S
H350 C334 0.931 . S
H351 C339 0.929 . S
H352 C340 0.960 . S
H353 C340 0.962 . S
H354 C340 0.960 . S
H355 C341 0.961 . S
H356 C341 0.961 . S
H357 C341 0.961 . S
H358 C342 0.931 . S
H359 C347 0.930 . S
H360 C348 0.956 . S
H361 C348 0.961 . S
H362 C348 0.961 . S
H363 C349 0.958 . S
H364 C349 0.961 . S
H365 C349 0.960 . S
C366 C367 1.391 . S
C366 C368 1.394 . S
C366 H382 0.931 . S
C367 C366 1.391 . S
C367 C371 1.376 . S
C368 C366 1.394 . S
C368 C369 1.369 . S
C368 C372 1.531 . S
C369 C368 1.369 . S
C369 C370 1.410 . S
C369 C377 1.503 . S
C370 C369 1.410 . S
C370 C371 1.392 . S
C370 C373 1.511 . S
C371 C367 1.376 . S
C371 C370 1.392 . S
C371 H383 0.929 . S
C372 C368 1.531 . S
C372 H384 0.960 . S
C372 H385 0.962 . S
C372 H386 0.960 . S
C373 C370 1.511 . S
C373 H387 0.961 . S
C373 H388 0.961 . S
C373 H389 0.961 . S
C374 C375 1.370 . S
C374 C376 1.363 . S
C374 H390 0.931 . S
C375 C374 1.370 . S
C375 C379 1.408 . S
C376 C374 1.363 . S
C376 C377 1.370 . S
C376 C380 1.524 . S
C377 C369 1.503 . S
C377 C376 1.370 . S
C377 C378 1.403 . S
C378 C377 1.403 . S
C378 C379 1.404 . S
C378 C381 1.539 . S
C379 C375 1.408 . S
C379 C378 1.404 . S
C379 H391 0.930 . S
C380 C376 1.524 . S
C380 H392 0.956 . S
C380 H393 0.961 . S
C380 H394 0.961 . S
C381 C378 1.539 . S
C381 H395 0.958 . S
C381 H396 0.961 . S
C381 H397 0.960 . S
H382 C366 0.931 . S
H383 C371 0.929 . S
H384 C372 0.960 . S
H385 C372 0.962 . S
H386 C372 0.960 . S
H387 C373 0.961 . S
H388 C373 0.961 . S
H389 C373 0.961 . S
H390 C374 0.931 . S
H391 C379 0.930 . S
H392 C380 0.956 . S
H393 C380 0.961 . S
H394 C380 0.961 . S
H395 C381 0.958 . S
H396 C381 0.961 . S
H397 C381 0.960 . S
C398 C399 1.391 . S
C398 C400 1.394 . S
C398 H414 0.931 . S
C399 C398 1.391 . S
C399 C403 1.376 . S
C400 C398 1.394 . S
C400 C401 1.369 . S
C400 C404 1.531 . S
C401 C400 1.369 . S
C401 C402 1.410 . S
C401 C409 1.503 . S
C402 C401 1.410 . S
C402 C403 1.392 . S
C402 C405 1.511 . S
C403 C399 1.376 . S
C403 C402 1.392 . S
C403 H415 0.929 . S
C404 C400 1.531 . S
C404 H416 0.960 . S
C404 H417 0.962 . S
C404 H418 0.960 . S
C405 C402 1.511 . S
C405 H419 0.961 . S
C405 H420 0.961 . S
C405 H421 0.961 . S
C406 C407 1.370 . S
C406 C408 1.363 . S
C406 H422 0.931 . S
C407 C406 1.370 . S
C407 C411 1.408 . S
C408 C406 1.363 . S
C408 C409 1.370 . S
C408 C412 1.524 . S
C409 C401 1.503 . S
C409 C408 1.370 . S
C409 C410 1.403 . S
C410 C409 1.403 . S
C410 C411 1.404 . S
C410 C413 1.539 . S
C411 C407 1.408 . S
C411 C410 1.404 . S
C411 H423 0.930 . S
C412 C408 1.524 . S
C412 H424 0.956 . S
C412 H425 0.961 . S
C412 H426 0.961 . S
C413 C410 1.539 . S
C413 H427 0.958 . S
C413 H428 0.961 . S
C413 H429 0.960 . S
H414 C398 0.931 . S
H415 C403 0.929 . S
H416 C404 0.960 . S
H417 C404 0.962 . S
H418 C404 0.960 . S
H419 C405 0.961 . S
H420 C405 0.961 . S
H421 C405 0.961 . S
H422 C406 0.931 . S
H423 C411 0.930 . S
H424 C412 0.956 . S
H425 C412 0.961 . S
H426 C412 0.961 . S
H427 C413 0.958 . S
H428 C413 0.961 . S
H429 C413 0.960 . S
C430 C431 1.391 . S
C430 C432 1.394 . S
C430 H446 0.931 . S
C431 C430 1.391 . S
C431 C435 1.376 . S
C432 C430 1.394 . S
C432 C433 1.369 . S
C432 C436 1.531 . S
C433 C432 1.369 . S
C433 C434 1.410 . S
C433 C441 1.503 . S
C434 C433 1.410 . S
C434 C435 1.392 . S
C434 C437 1.511 . S
C435 C431 1.376 . S
C435 C434 1.392 . S
C435 H447 0.929 . S
C436 C432 1.531 . S
C436 H448 0.960 . S
C436 H449 0.962 . S
C436 H450 0.960 . S
C437 C434 1.511 . S
C437 H451 0.961 . S
C437 H452 0.961 . S
C437 H453 0.961 . S
C438 C439 1.370 . S
C438 C440 1.363 . S
C438 H454 0.931 . S
C439 C438 1.370 . S
C439 C443 1.408 . S
C440 C438 1.363 . S
C440 C441 1.370 . S
C440 C444 1.524 . S
C441 C433 1.503 . S
C441 C440 1.370 . S
C441 C442 1.403 . S
C442 C441 1.403 . S
C442 C443 1.404 . S
C442 C445 1.539 . S
C443 C439 1.408 . S
C443 C442 1.404 . S
C443 H455 0.930 . S
C444 C440 1.524 . S
C444 H456 0.956 . S
C444 H457 0.961 . S
C444 H458 0.961 . S
C445 C442 1.539 . S
C445 H459 0.958 . S
C445 H460 0.961 . S
C445 H461 0.960 . S
H446 C430 0.931 . S
H447 C435 0.929 . S
H448 C436 0.960 . S
H449 C436 0.962 . S
H450 C436 0.960 . S
H451 C437 0.961 . S
H452 C437 0.961 . S
H453 C437 0.961 . S
H454 C438 0.931 . S
H455 C443 0.930 . S
H456 C444 0.956 . S
H457 C444 0.961 . S
H458 C444 0.961 . S
H459 C445 0.958 . S
H460 C445 0.961 . S
H461 C445 0.960 . S
C462 C463 1.391 . S
C462 C464 1.394 . S
C462 H478 0.931 . S
C463 C462 1.391 . S
C463 C467 1.376 . S
C464 C462 1.394 . S
C464 C465 1.369 . S
C464 C468 1.531 . S
C465 C464 1.369 . S
C465 C466 1.410 . S
C465 C473 1.503 . S
C466 C465 1.410 . S
C466 C467 1.392 . S
C466 C469 1.511 . S
C467 C463 1.376 . S
C467 C466 1.392 . S
C467 H479 0.929 . S
C468 C464 1.531 . S
C468 H480 0.960 . S
C468 H481 0.962 . S
C468 H482 0.960 . S
C469 C466 1.511 . S
C469 H483 0.961 . S
C469 H484 0.961 . S
C469 H485 0.961 . S
C470 C471 1.370 . S
C470 C472 1.363 . S
C470 H486 0.931 . S
C471 C470 1.370 . S
C471 C475 1.408 . S
C472 C470 1.363 . S
C472 C473 1.370 . S
C472 C476 1.524 . S
C473 C465 1.503 . S
C473 C472 1.370 . S
C473 C474 1.403 . S
C474 C473 1.403 . S
C474 C475 1.404 . S
C474 C477 1.539 . S
C475 C471 1.408 . S
C475 C474 1.404 . S
C475 H487 0.930 . S
C476 C472 1.524 . S
C476 H488 0.956 . S
C476 H489 0.961 . S
C476 H490 0.961 . S
C477 C474 1.539 . S
C477 H491 0.958 . S
C477 H492 0.961 . S
C477 H493 0.960 . S
H478 C462 0.931 . S
H479 C467 0.929 . S
H480 C468 0.960 . S
H481 C468 0.962 . S
H482 C468 0.960 . S
H483 C469 0.961 . S
H484 C469 0.961 . S
H485 C469 0.961 . S
H486 C470 0.931 . S
H487 C475 0.930 . S
H488 C476 0.956 . S
H489 C476 0.961 . S
H490 C476 0.961 . S
H491 C477 0.958 . S
H492 C477 0.961 . S
H493 C477 0.960 . S
C494 C495 1.391 . S
C494 C496 1.394 . S
C494 H510 0.931 . S
C495 C494 1.391 . S
C495 C499 1.376 . S
C496 C494 1.394 . S
C496 C497 1.369 . S
C496 C500 1.531 . S
C497 C496 1.369 . S
C497 C498 1.410 . S
C497 C505 1.503 . S
C498 C497 1.410 . S
C498 C499 1.392 . S
C498 C501 1.511 . S
C499 C495 1.376 . S
C499 C498 1.392 . S
C499 H511 0.929 . S
C500 C496 1.531 . S
C500 H512 0.960 . S
C500 H513 0.962 . S
C500 H514 0.960 . S
C501 C498 1.511 . S
C501 H515 0.961 . S
C501 H516 0.961 . S
C501 H517 0.961 . S
C502 C503 1.370 . S
C502 C504 1.363 . S
C502 H518 0.931 . S
C503 C502 1.370 . S
C503 C507 1.408 . S
C504 C502 1.363 . S
C504 C505 1.370 . S
C504 C508 1.524 . S
C505 C497 1.503 . S
C505 C504 1.370 . S
C505 C506 1.403 . S
C506 C505 1.403 . S
C506 C507 1.404 . S
C506 C509 1.539 . S
C507 C503 1.408 . S
C507 C506 1.404 . S
C507 H519 0.930 . S
C508 C504 1.524 . S
C508 H520 0.956 . S
C508 H521 0.961 . S
C508 H522 0.961 . S
C509 C506 1.539 . S
C509 H523 0.958 . S
C509 H524 0.961 . S
C509 H525 0.960 . S
H510 C494 0.931 . S
H511 C499 0.929 . S
H512 C500 0.960 . S
H513 C500 0.962 . S
H514 C500 0.960 . S
H515 C501 0.961 . S
H516 C501 0.961 . S
H517 C501 0.961 . S
H518 C502 0.931 . S
H519 C507 0.930 . S
H520 C508 0.956 . S
H521 C508 0.961 . S
H522 C508 0.961 . S
H523 C509 0.958 . S
H524 C509 0.961 . S
H525 C509 0.960 . S
C526 C527 1.391 . S
C526 C528 1.394 . S
C526 H542 0.931 . S
C527 C526 1.391 . S
C527 C531 1.376 . S
C528 C526 1.394 . S
C528 C529 1.369 . S
C528 C532 1.531 . S
C529 C528 1.369 . S
C529 C530 1.410 . S
C529 C537 1.503 . S
C530 C529 1.410 . S
C530 C531 1.392 . S
C530 C533 1.511 . S
C531 C527 1.376 . S
C531 C530 1.392 . S
C531 H543 0.929 . S
C532 C528 1.531 . S
C532 H544 0.960 . S
C532 H545 0.962 . S
C532 H546 0.960 . S
C533 C530 1.511 . S
C533 H547 0.961 . S
C533 H548 0.961 . S
C533 H549 0.961 . S
C534 C535 1.370 . S
C534 C536 1.363 . S
C534 H550 0.931 . S
C535 C534 1.370 . S
C535 C539 1.408 . S
C536 C534 1.363 . S
C536 C537 1.370 . S
C536 C540 1.524 . S
C537 C529 1.503 . S
C537 C536 1.370 . S
C537 C538 1.403 . S
C538 C537 1.403 . S
C538 C539 1.404 . S
C538 C541 1.539 . S
C539 C535 1.408 . S
C539 C538 1.404 . S
C539 H551 0.930 . S
C540 C536 1.524 . S
C540 H552 0.956 . S
C540 H553 0.961 . S
C540 H554 0.961 . S
C541 C538 1.539 . S
C541 H555 0.958 . S
C541 H556 0.961 . S
C541 H557 0.960 . S
H542 C526 0.931 . S
H543 C531 0.929 . S
H544 C532 0.960 . S
H545 C532 0.962 . S
H546 C532 0.960 . S
H547 C533 0.961 . S
H548 C533 0.961 . S
H549 C533 0.961 . S
H550 C534 0.931 . S
H551 C539 0.930 . S
H552 C540 0.956 . S
H553 C540 0.961 . S
H554 C540 0.961 . S
H555 C541 0.958 . S
H556 C541 0.961 . S
H557 C541 0.960 . S
C558 C559 1.391 . S
C558 C560 1.394 . S
C558 H574 0.931 1_455 S
C559 C558 1.391 . S
C559 C563 1.376 . S
C560 C558 1.394 . S
C560 C561 1.369 . S
C560 C564 1.531 1_455 S
C561 C560 1.369 . S
C561 C562 1.410 . S
C561 C569 1.503 . S
C562 C561 1.410 . S
C562 C563 1.392 . S
C562 C565 1.511 . S
C563 C559 1.376 . S
C563 C562 1.392 . S
C563 H575 0.929 . S
C564 C560 1.531 1_655 S
C564 H576 0.960 1_655 S
C564 H577 0.962 . S
C564 H578 0.960 . S
C565 C562 1.511 . S
C565 H579 0.961 . S
C565 H580 0.961 . S
C565 H581 0.961 . S
C566 C567 1.370 . S
C566 C568 1.409 . S
C566 H582 0.931 1_455 S
C567 C566 1.370 . S
C567 C571 1.408 . S
C568 C566 1.409 . S
C568 C569 1.346 1_556 S
C568 C572 1.505 1_456 S
C569 C561 1.503 . S
C569 C568 1.346 1_554 S
C569 C570 1.403 . S
C570 C569 1.403 . S
C570 C571 1.404 1_554 S
C570 C573 1.539 . S
C571 C567 1.408 . S
C571 C570 1.404 1_556 S
C571 H583 0.930 . S
C572 C568 1.505 1_654 S
C572 H584 0.956 . S
C572 H585 0.961 . S
C572 H586 0.961 1_554 S
C573 C570 1.539 . S
C573 H587 0.958 . S
C573 H588 0.961 . S
C573 H589 0.960 . S
H574 C558 0.931 1_655 S
H575 C563 0.929 . S
H576 C564 0.960 1_455 S
H577 C564 0.962 . S
H578 C564 0.960 . S
H579 C565 0.961 . S
H580 C565 0.961 . S
H581 C565 0.961 . S
H582 C566 0.931 1_655 S
H583 C571 0.930 . S
H584 C572 0.956 . S
H585 C572 0.961 . S
H586 C572 0.961 1_556 S
H587 C573 0.958 . S
H588 C573 0.961 . S
H589 C573 0.960 . S
C590 C591 1.391 . S
C590 C592 1.394 . S
C590 H606 0.931 . S
C591 C590 1.391 . S
C591 C595 1.376 . S
C592 C590 1.394 . S
C592 C593 1.369 . S
C592 C596 1.531 . S
C593 C592 1.369 . S
C593 C594 1.406 1_545 S
C593 C601 1.503 . S
C594 C593 1.406 1_565 S
C594 C595 1.392 1_565 S
C594 C597 1.515 . S
C595 C591 1.376 . S
C595 C594 1.392 1_545 S
C595 H607 0.929 1_545 S
C596 C592 1.531 . S
C596 H608 0.960 . S
C596 H609 0.962 . S
C596 H610 0.960 . S
C597 C594 1.515 . S
C597 H611 0.961 . S
C597 H612 0.961 . S
C597 H613 0.961 . S
C598 C599 1.370 . S
C598 C600 1.363 . S
C598 H614 0.931 . S
C599 C598 1.370 . S
C599 C603 1.408 1_545 S
C600 C598 1.363 . S
C600 C601 1.370 . S
C600 C604 1.524 . S
C601 C593 1.503 . S
C601 C600 1.370 . S
C601 C602 1.403 1_545 S
C602 C601 1.403 1_565 S
C602 C603 1.404 . S
C602 C605 1.539 . S
C603 C599 1.408 1_565 S
C603 C602 1.404 . S
C603 H615 0.930 . S
C604 C600 1.524 . S
C604 H616 0.956 . S
C604 H617 0.961 . S
C604 H618 0.961 . S
C605 C602 1.539 . S
C605 H619 0.958 . S
C605 H620 0.961 . S
C605 H621 0.960 . S
H606 C590 0.931 . S
H607 C595 0.929 1_565 S
H608 C596 0.960 . S
H609 C596 0.962 . S
H610 C596 0.960 . S
H611 C597 0.961 . S
H612 C597 0.961 . S
H613 C597 0.961 . S
H614 C598 0.931 . S
H615 C603 0.930 . S
H616 C604 0.956 . S
H617 C604 0.961 . S
H618 C604 0.961 . S
H619 C605 0.958 . S
H620 C605 0.961 . S
H621 C605 0.960 . S
C622 C623 1.391 . S
C622 C624 1.394 . S
C622 H638 0.931 . S
C623 C622 1.391 . S
C623 C627 1.376 . S
C624 C622 1.394 . S
C624 C625 1.369 . S
C624 C628 1.531 . S
C625 C624 1.369 . S
C625 C626 1.410 . S
C625 C633 1.503 . S
C626 C625 1.410 . S
C626 C627 1.392 . S
C626 C629 1.511 . S
C627 C623 1.376 . S
C627 C626 1.392 . S
C627 H639 0.929 . S
C628 C624 1.531 . S
C628 H640 0.960 . S
C628 H641 0.962 . S
C628 H642 0.960 . S
C629 C626 1.511 . S
C629 H643 0.961 . S
C629 H644 0.961 . S
C629 H645 0.961 . S
C630 C631 1.370 . S
C630 C632 1.363 . S
C630 H646 0.931 . S
C631 C630 1.370 . S
C631 C635 1.408 . S
C632 C630 1.363 . S
C632 C633 1.370 . S
C632 C636 1.524 . S
C633 C625 1.503 . S
C633 C632 1.370 . S
C633 C634 1.403 . S
C634 C633 1.403 . S
C634 C635 1.404 . S
C634 C637 1.539 . S
C635 C631 1.408 . S
C635 C634 1.404 . S
C635 H647 0.930 . S
C636 C632 1.524 . S
C636 H648 0.956 . S
C636 H649 0.961 . S
C636 H650 0.961 . S
C637 C634 1.539 . S
C637 H651 0.958 . S
C637 H652 0.961 . S
C637 H653 0.960 . S
H638 C622 0.931 . S
H639 C627 0.929 . S
H640 C628 0.960 . S
H641 C628 0.962 . S
H642 C628 0.960 . S
H643 C629 0.961 . S
H644 C629 0.961 . S
H645 C629 0.961 . S
H646 C630 0.931 . S
H647 C635 0.930 . S
H648 C636 0.956 . S
H649 C636 0.961 . S
H650 C636 0.961 . S
H651 C637 0.958 . S
H652 C637 0.961 . S
H653 C637 0.960 . S
C654 C655 1.391 1_565 S
C654 C656 1.394 . S
C654 H670 0.931 . S
C655 C654 1.391 1_545 S
C655 C659 1.376 . S
C656 C654 1.394 . S
C656 C657 1.369 1_565 S
C656 C660 1.531 . S
C657 C656 1.369 1_545 S
C657 C658 1.410 . S
C657 C665 1.503 . S
C658 C657 1.410 . S
C658 C659 1.392 . S
C658 C661 1.511 . S
C659 C655 1.376 . S
C659 C658 1.392 . S
C659 H671 0.929 . S
C660 C656 1.531 . S
C660 H672 0.960 . S
C660 H673 0.962 . S
C660 H674 0.960 . S
C661 C658 1.511 . S
C661 H675 0.961 . S
C661 H676 0.961 . S
C661 H677 0.961 . S
C662 C663 1.370 . S
C662 C664 1.363 . S
C662 H678 0.931 . S
C663 C662 1.370 . S
C663 C667 1.408 1_545 S
C664 C662 1.363 . S
C664 C665 1.370 . S
C664 C668 1.524 . S
C665 C657 1.503 . S
C665 C664 1.370 . S
C665 C666 1.403 1_545 S
C666 C665 1.403 1_565 S
C666 C667 1.404 . S
C666 C669 1.539 . S
C667 C663 1.408 1_565 S
C667 C666 1.404 . S
C667 H679 0.930 . S
C668 C664 1.524 . S
C668 H680 0.956 . S
C668 H681 0.961 . S
C668 H682 0.961 . S
C669 C666 1.539 . S
C669 H683 0.958 . S
C669 H684 0.961 . S
C669 H685 0.960 . S
H670 C654 0.931 . S
H671 C659 0.929 . S
H672 C660 0.960 . S
H673 C660 0.962 . S
H674 C660 0.960 . S
H675 C661 0.961 . S
H676 C661 0.961 . S
H677 C661 0.961 . S
H678 C662 0.931 . S
H679 C667 0.930 . S
H680 C668 0.956 . S
H681 C668 0.961 . S
H682 C668 0.961 . S
H683 C669 0.958 . S
H684 C669 0.961 . S
H685 C669 0.960 . S
C686 C687 1.391 . S
C686 C688 1.394 . S
C686 H702 0.931 . S
C687 C686 1.391 . S
C687 C691 1.376 . S
C688 C686 1.394 . S
C688 C689 1.369 . S
C688 C692 1.531 . S
C689 C688 1.369 . S
C689 C690 1.410 . S
C689 C697 1.503 . S
C690 C689 1.410 . S
C690 C691 1.392 . S
C690 C693 1.511 . S
C691 C687 1.376 . S
C691 C690 1.392 . S
C691 H703 0.929 . S
C692 C688 1.531 . S
C692 H704 0.960 . S
C692 H705 0.962 . S
C692 H706 0.960 . S
C693 C690 1.511 . S
C693 H707 0.961 . S
C693 H708 0.961 . S
C693 H709 0.961 . S
C694 C695 1.370 . S
C694 C696 1.363 . S
C694 H710 0.931 . S
C695 C694 1.370 . S
C695 C699 1.408 . S
C696 C694 1.363 . S
C696 C697 1.370 1_554 S
C696 C700 1.524 1_554 S
C697 C689 1.503 . S
C697 C696 1.370 1_556 S
C697 C698 1.403 1_556 S
C698 C697 1.403 1_554 S
C698 C699 1.404 . S
C698 C701 1.539 1_554 S
C699 C695 1.408 . S
C699 C698 1.404 . S
C699 H711 0.930 . S
C700 C696 1.524 1_556 S
C700 H712 0.956 . S
C700 H713 0.961 . S
C700 H714 0.961 1_556 S
C701 C698 1.539 1_556 S
C701 H715 0.958 . S
C701 H716 0.961 . S
C701 H717 0.960 . S
H702 C686 0.931 . S
H703 C691 0.929 . S
H704 C692 0.960 . S
H705 C692 0.962 . S
H706 C692 0.960 . S
H707 C693 0.961 . S
H708 C693 0.961 . S
H709 C693 0.961 . S
H710 C694 0.931 . S
H711 C699 0.930 . S
H712 C700 0.956 . S
H713 C700 0.961 . S
H714 C700 0.961 1_554 S
H715 C701 0.958 . S
H716 C701 0.961 . S
H717 C701 0.960 . S
C718 C719 1.391 1_655 S
C718 C720 1.394 . S
C718 H734 0.931 . S
C719 C718 1.391 1_455 S
C719 C723 1.376 . S
C720 C718 1.394 . S
C720 C721 1.369 1_655 S
C720 C724 1.531 . S
C721 C720 1.369 1_455 S
C721 C722 1.410 . S
C721 C729 1.503 . S
C722 C721 1.410 . S
C722 C723 1.392 . S
C722 C725 1.511 . S
C723 C719 1.376 . S
C723 C722 1.392 . S
C723 H735 0.929 . S
C724 C720 1.531 . S
C724 H736 0.960 . S
C724 H737 0.962 . S
C724 H738 0.960 . S
C725 C722 1.511 . S
C725 H739 0.961 . S
C725 H740 0.961 . S
C725 H741 0.961 . S
C726 C727 1.370 1_655 S
C726 C728 1.363 . S
C726 H742 0.931 . S
C727 C726 1.370 1_455 S
C727 C731 1.408 . S
C728 C726 1.363 . S
C728 C729 1.370 1_655 S
C728 C732 1.524 . S
C729 C721 1.503 . S
C729 C728 1.370 1_455 S
C729 C730 1.403 . S
C730 C729 1.403 . S
C730 C731 1.404 . S
C730 C733 1.539 . S
C731 C727 1.408 . S
C731 C730 1.404 . S
C731 H743 0.930 . S
C732 C728 1.524 . S
C732 H744 0.956 . S
C732 H745 0.961 . S
C732 H746 0.961 . S
C733 C730 1.539 . S
C733 H747 0.958 . S
C733 H748 0.961 . S
C733 H749 0.960 . S
H734 C718 0.931 . S
H735 C723 0.929 . S
H736 C724 0.960 . S
H737 C724 0.962 . S
H738 C724 0.960 . S
H739 C725 0.961 . S
H740 C725 0.961 . S
H741 C725 0.961 . S
H742 C726 0.931 . S
H743 C731 0.930 . S
H744 C732 0.956 . S
H745 C732 0.961 . S
H746 C732 0.961 . S
H747 C733 0.958 . S
H748 C733 0.961 . S
H749 C733 0.960 . S
C175 C10 2.987 . S
C183 C169 2.956 . S
C207 C55 1.313 . S
C215 C151 1.323 . S
C239 C90 1.796 . S
C247 C163 1.787 . S
C271 C19 2.869 . S
C279 C172 2.893 . S
C311 C154 1.371 . S
C303 C46 1.292 . S
C343 C160 1.895 . S
C335 C99 1.855 . S
C367 C50 1.806 . S
C375 C133 1.802 . S
C399 C95 0.780 . S
C407 C142 0.703 . S
C431 C6 1.364 . S
C439 C124 1.384 . S
C471 C136 1.844 . S
C463 C59 1.850 . S
C503 C145 0.534 . S
C495 C86 0.505 . S
C527 C15 1.388 . S
C535 C127 1.401 . S
C567 C143 1.067 . S
C559 C18 1.080 . S
C591 C49 1.435 . S
C599 C125 1.483 . S
C623 C98 1.326 . S
C631 C134 1.353 . S
C663 C161 1.367 . S
C655 C58 1.289 . S
C695 C170 1.791 . S
C687 C89 1.720 . S
C719 C9 1.458 . S
C727 C152 1.506 . S
