# Generated by pormake.
# Topology eea, (3,6)-cn, num edge types: 1
# Building blocks:
#     Node 0, Type 0, BuildingBlock: CUQRIR_clean_linker_1, # of connection points: 3
#     Node 1, Type 0, BuildingBlock: CUQRIR_clean_linker_1, # of connection points: 3
#     Node 2, Type 0, BuildingBlock: CUQRIR_clean_linker_1, # of connection points: 3
#     Node 3, Type 0, BuildingBlock: CUQRIR_clean_linker_1, # of connection points: 3
#     Node 4, Type 0, BuildingBlock: CUQRIR_clean_linker_1, # of connection points: 3
#     Node 5, Type 0, BuildingBlock: CUQRIR_clean_linker_1, # of connection points: 3
#     Node 6, Type 0, BuildingBlock: CUQRIR_clean_linker_1, # of connection points: 3
#     Node 7, Type 0, BuildingBlock: CUQRIR_clean_linker_1, # of connection points: 3
#     Node 8, Type 0, BuildingBlock: CUQRIR_clean_linker_1, # of connection points: 3
#     Node 9, Type 0, BuildingBlock: CUQRIR_clean_linker_1, # of connection points: 3
#     Node 10, Type 0, BuildingBlock: CUQRIR_clean_linker_1, # of connection points: 3
#     Node 11, Type 0, BuildingBlock: CUQRIR_clean_linker_1, # of connection points: 3
#     Node 12, Type 0, BuildingBlock: CUQRIR_clean_linker_1, # of connection points: 3
#     Node 13, Type 0, BuildingBlock: CUQRIR_clean_linker_1, # of connection points: 3
#     Node 14, Type 0, BuildingBlock: CUQRIR_clean_linker_1, # of connection points: 3
#     Node 15, Type 0, BuildingBlock: CUQRIR_clean_linker_1, # of connection points: 3
#     Node 16, Type 0, BuildingBlock: CUQRIR_clean_linker_1, # of connection points: 3
#     Node 17, Type 0, BuildingBlock: CUQRIR_clean_linker_1, # of connection points: 3
#     Node 18, Type 1, BuildingBlock: CUKXOW_clean_sbu_0, # of connection points: 6
#     Node 19, Type 1, BuildingBlock: CUKXOW_clean_sbu_0, # of connection points: 6
#     Node 20, Type 1, BuildingBlock: CUKXOW_clean_sbu_0, # of connection points: 6
#     Node 21, Type 1, BuildingBlock: CUKXOW_clean_sbu_0, # of connection points: 6
#     Node 22, Type 1, BuildingBlock: CUKXOW_clean_sbu_0, # of connection points: 6
#     Node 23, Type 1, BuildingBlock: CUKXOW_clean_sbu_0, # of connection points: 6
#     Node 24, Type 1, BuildingBlock: CUKXOW_clean_sbu_0, # of connection points: 6
#     Node 25, Type 1, BuildingBlock: CUKXOW_clean_sbu_0, # of connection points: 6
#     Node 26, Type 1, BuildingBlock: CUKXOW_clean_sbu_0, # of connection points: 6
#     Edge 27, Type (0, 1), None
#     Edge 28, Type (0, 1), None
#     Edge 29, Type (0, 1), None
#     Edge 30, Type (0, 1), None
#     Edge 31, Type (0, 1), None
#     Edge 32, Type (0, 1), None
#     Edge 33, Type (0, 1), None
#     Edge 34, Type (0, 1), None
#     Edge 35, Type (0, 1), None
#     Edge 36, Type (0, 1), None
#     Edge 37, Type (0, 1), None
#     Edge 38, Type (0, 1), None
#     Edge 39, Type (0, 1), None
#     Edge 40, Type (0, 1), None
#     Edge 41, Type (0, 1), None
#     Edge 42, Type (0, 1), None
#     Edge 43, Type (0, 1), None
#     Edge 44, Type (0, 1), None
#     Edge 45, Type (0, 1), None
#     Edge 46, Type (0, 1), None
#     Edge 47, Type (0, 1), None
#     Edge 48, Type (0, 1), None
#     Edge 49, Type (0, 1), None
#     Edge 50, Type (0, 1), None
#     Edge 51, Type (0, 1), None
#     Edge 52, Type (0, 1), None
#     Edge 53, Type (0, 1), None
#     Edge 54, Type (0, 1), None
#     Edge 55, Type (0, 1), None
#     Edge 56, Type (0, 1), None
#     Edge 57, Type (0, 1), None
#     Edge 58, Type (0, 1), None
#     Edge 59, Type (0, 1), None
#     Edge 60, Type (0, 1), None
#     Edge 61, Type (0, 1), None
#     Edge 62, Type (0, 1), None
#     Edge 63, Type (0, 1), None
#     Edge 64, Type (0, 1), None
#     Edge 65, Type (0, 1), None
#     Edge 66, Type (0, 1), None
#     Edge 67, Type (0, 1), None
#     Edge 68, Type (0, 1), None
#     Edge 69, Type (0, 1), None
#     Edge 70, Type (0, 1), None
#     Edge 71, Type (0, 1), None
#     Edge 72, Type (0, 1), None
#     Edge 73, Type (0, 1), None
#     Edge 74, Type (0, 1), None
#     Edge 75, Type (0, 1), None
#     Edge 76, Type (0, 1), None
#     Edge 77, Type (0, 1), None
#     Edge 78, Type (0, 1), None
#     Edge 79, Type (0, 1), None
#     Edge 80, Type (0, 1), None
# Relax obj value: 0.086
# Max RMSD: 0.246
# Mean RMSD: 0.158
data_MOF--net-eea--node1-CUKXOW_clean_sbu_0--node2-CUQRIR_clean_linker_1--edge1-none
_symmetry_space_group_name_H-M    P1
_symmetry_Int_Tables_number       1
_symmetry_cell_setting            triclinic
loop_
_symmetry_equiv_pos_as_xyz
'x, y, z'
_cell_length_a     22.968928
_cell_length_b     20.150314
_cell_length_c     15.242761
_cell_angle_alpha  80.140845
_cell_angle_beta   93.286505
_cell_angle_gamma 117.84117
loop_
_atom_site_label
_atom_site_type_symbol
_atom_site_fract_x
_atom_site_fract_y
_atom_site_fract_z
_atom_type_partial_charge
C0 C 0.21788 0.09237 0.47903 0.0
N1 N 0.25469 0.16005 0.50884 0.0
N2 N 0.25379 0.05494 0.47658 0.0
C3 C 0.14951 0.06693 0.44198 0.0
C4 C 0.31444 0.10393 0.50376 0.0
N5 N 0.31481 0.16652 0.52722 0.0
C6 C 0.37319 0.08855 0.51475 0.0
H7 H 0.11267 0.04048 0.49786 0.0
H8 H 0.13793 0.02597 0.39566 0.0
H9 H 0.14408 0.11521 0.40319 0.0
H10 H 0.37703 0.06137 0.46047 0.0
H11 H 0.36856 0.0512 0.57927 0.0
H12 H 0.42042 0.14134 0.5114 0.0
C13 C 0.91819 0.08578 0.50093 0.0
N14 N 0.943 0.14721 0.54395 0.0
N15 N 0.8551 0.06489 0.47667 0.0
C16 C 0.95664 0.0455 0.48365 0.0
C17 C 0.84208 0.11673 0.50622 0.0
N18 N 0.8925 0.16236 0.55432 0.0
C19 C 0.77977 0.12394 0.48713 0.0
H20 H 0.95167 0.03615 0.41336 0.0
H21 H 0.93611 0.98938 0.52766 0.0
H22 H 1.00956 0.07707 0.49837 0.0
H23 H 0.74104 0.08402 0.53782 0.0
H24 H 0.76175 0.11068 0.42003 0.0
H25 H 0.78863 0.18281 0.48821 0.0
C26 C 0.91916 0.77623 0.46162 0.0
N27 N 0.94429 0.73754 0.51726 0.0
N28 N 0.86022 0.72927 0.43345 0.0
C29 C 0.95052 0.86228 0.44559 0.0
C30 C 0.8472 0.661 0.48331 0.0
N31 N 0.89502 0.66693 0.543 0.0
C32 C 0.78572 0.58844 0.47738 0.0
H33 H 0.91618 0.88031 0.46905 0.0
H34 H 0.96093 0.88442 0.37332 0.0
H35 H 0.99689 0.88759 0.48253 0.0
H36 H 0.76345 0.59253 0.41209 0.0
H37 H 0.75013 0.57772 0.53059 0.0
H38 H 0.7973 0.54003 0.48689 0.0
C39 C 0.16218 0.26894 0.82039 0.0
N40 N 0.21236 0.29027 0.76177 0.0
N41 N 0.1152 0.28449 0.78078 0.0
C42 C 0.15804 0.23172 0.91621 0.0
C43 C 0.14069 0.32303 0.69911 0.0
N44 N 0.19818 0.32311 0.68494 0.0
C45 C 0.1141 0.36953 0.63758 0.0
H46 H 0.1438 0.1706 0.91917 0.0
H47 H 0.1213 0.23638 0.9545 0.0
H48 H 0.20613 0.25978 0.94852 0.0
H49 H 0.15511 0.42357 0.6049 0.0
H50 H 0.08275 0.38448 0.67342 0.0
H51 H 0.08458 0.3377 0.5851 0.0
C52 C 0.8523 0.90593 0.75196 0.0
N53 N 0.82115 0.84652 0.70517 0.0
N54 N 0.81188 0.93539 0.76695 0.0
C55 C 0.9175 0.92541 0.79772 0.0
C56 C 0.75424 0.88986 0.73055 0.0
N57 N 0.76054 0.83966 0.68681 0.0
C58 C 0.69005 0.89227 0.74044 0.0
H59 H 0.91544 0.87404 0.84079 0.0
H60 H 0.93075 0.96734 0.84285 0.0
H61 H 0.95748 0.94641 0.74675 0.0
H62 H 0.68673 0.93466 0.68609 0.0
H63 H 0.68623 0.90742 0.80567 0.0
H64 H 0.64707 0.83586 0.73863 0.0
C65 C 0.16809 0.93353 0.77142 0.0
N66 N 0.13897 0.87147 0.7298 0.0
N67 N 0.23352 0.95805 0.7757 0.0
C68 C 0.13173 0.96267 0.82171 0.0
C69 C 0.2421 0.90448 0.74255 0.0
N70 N 0.18518 0.85284 0.71072 0.0
C71 C 0.30566 0.90085 0.7449 0.0
H72 H 0.10493 0.98625 0.77424 0.0
H73 H 0.16368 0.00557 0.86288 0.0
H74 H 0.09587 0.91559 0.87045 0.0
H75 H 0.29774 0.84151 0.75327 0.0
H76 H 0.33278 0.92433 0.80341 0.0
H77 H 0.3348 0.9339 0.68274 0.0
C78 C 0.88454 0.42571 0.81236 0.0
N79 N 0.92136 0.49338 0.84218 0.0
N80 N 0.92046 0.38827 0.80991 0.0
C81 C 0.81617 0.40026 0.77531 0.0
C82 C 0.98111 0.43726 0.83709 0.0
N83 N 0.98148 0.49985 0.86055 0.0
C84 C 0.03986 0.42188 0.84808 0.0
H85 H 0.77933 0.37381 0.8312 0.0
H86 H 0.8046 0.3593 0.729 0.0
H87 H 0.81075 0.44855 0.73653 0.0
H88 H 0.0437 0.39471 0.7938 0.0
H89 H 0.03522 0.38453 0.9126 0.0
H90 H 0.08709 0.47467 0.84474 0.0
C91 C 0.58486 0.41911 0.83426 0.0
N92 N 0.60967 0.48054 0.87729 0.0
N93 N 0.52177 0.39822 0.81 0.0
C94 C 0.6233 0.37883 0.81699 0.0
C95 C 0.50874 0.45006 0.83955 0.0
N96 N 0.55917 0.49569 0.88765 0.0
C97 C 0.44644 0.45727 0.82046 0.0
H98 H 0.61833 0.36948 0.74669 0.0
H99 H 0.60278 0.32272 0.86099 0.0
H100 H 0.67623 0.41041 0.8317 0.0
H101 H 0.40771 0.41735 0.87115 0.0
H102 H 0.42841 0.44401 0.75337 0.0
H103 H 0.45529 0.51614 0.82154 0.0
C104 C 0.58583 0.10956 0.79496 0.0
N105 N 0.61096 0.07087 0.85059 0.0
N106 N 0.52688 0.06261 0.76679 0.0
C107 C 0.61719 0.19561 0.77892 0.0
C108 C 0.51387 0.99433 0.81665 0.0
N109 N 0.56169 0.00027 0.87633 0.0
C110 C 0.45239 0.92177 0.81071 0.0
H111 H 0.58284 0.21364 0.80238 0.0
H112 H 0.62759 0.21775 0.70666 0.0
H113 H 0.66356 0.22092 0.81587 0.0
H114 H 0.43011 0.92586 0.74542 0.0
H115 H 0.41679 0.91105 0.86392 0.0
H116 H 0.46396 0.87337 0.82022 0.0
C117 C 0.82885 0.60227 0.15372 0.0
N118 N 0.87903 0.6236 1.0951 0.0
N119 N 0.78186 0.61782 0.11412 0.0
C120 C 0.82471 0.56505 0.24954 0.0
C121 C 0.80736 0.65637 1.03245 0.0
N122 N 0.86484 0.65644 1.01827 0.0
C123 C 0.78077 0.70286 0.97092 0.0
H124 H 0.81047 0.50393 0.2525 0.0
H125 H 0.78797 0.56971 0.28783 0.0
H126 H 0.87279 0.59311 0.28186 0.0
H127 H 0.82178 0.75691 0.93824 0.0
H128 H 0.74942 0.71781 1.00675 0.0
H129 H 0.75125 0.67103 0.91843 0.0
C130 C 0.51896 0.23926 1.0853 0.0
N131 N 0.48781 0.17985 1.03851 0.0
N132 N 0.47854 0.26872 0.10028 0.0
C133 C 0.58417 0.25874 0.13106 0.0
C134 C 0.4209 0.22319 1.06388 0.0
N135 N 0.4272 0.17299 1.02014 0.0
C136 C 0.35672 0.22561 1.07377 0.0
H137 H 0.5821 0.20738 0.17413 0.0
H138 H 0.59742 0.30067 0.17618 0.0
H139 H 0.62415 0.27975 1.08008 0.0
H140 H 0.3534 0.26799 1.01942 0.0
H141 H 0.35289 0.24075 0.139 0.0
H142 H 0.31373 0.1692 1.07196 0.0
C143 C 0.83475 0.26687 0.10475 0.0
N144 N 0.80564 0.2048 1.06313 0.0
N145 N 0.90019 0.29138 0.10904 0.0
C146 C 0.7984 0.29601 0.15504 0.0
C147 C 0.90876 0.23781 1.07589 0.0
N148 N 0.85185 0.18617 1.04405 0.0
C149 C 0.97233 0.23418 1.07824 0.0
H150 H 0.7716 0.31959 0.10756 0.0
H151 H 0.83034 0.33891 0.19621 0.0
H152 H 0.76254 0.24893 0.20378 0.0
H153 H 0.9644 0.17484 1.08661 0.0
H154 H 0.99945 0.25766 0.13675 0.0
H155 H 1.00146 0.26723 1.01608 0.0
C156 C 0.55121 0.75904 0.1457 0.0
N157 N 0.58803 0.82672 0.17551 0.0
N158 N 0.58712 0.72161 0.14324 0.0
C159 C 0.48284 0.73359 0.10864 0.0
C160 C 0.64777 0.77059 0.17043 0.0
N161 N 0.64814 0.83319 0.19388 0.0
C162 C 0.70652 0.75522 0.18142 0.0
H163 H 0.446 0.70715 0.16453 0.0
H164 H 0.47127 0.69264 1.06233 0.0
H165 H 0.47741 0.78188 1.06986 0.0
H166 H 0.71036 0.72804 0.12713 0.0
H167 H 0.70189 0.71786 0.24594 0.0
H168 H 0.75376 0.808 0.17807 0.0
C169 C 0.25153 0.75244 0.1676 0.0
N170 N 0.27633 0.81387 0.21062 0.0
N171 N 0.18843 0.73155 0.14333 0.0
C172 C 0.28997 0.71216 0.15032 0.0
C173 C 0.17541 0.78339 0.17289 0.0
N174 N 0.22584 0.82903 0.22099 0.0
C175 C 0.11311 0.79061 0.1538 0.0
H176 H 0.285 0.70281 1.08002 0.0
H177 H 0.26945 0.65605 0.19433 0.0
H178 H 0.3429 0.74374 0.16504 0.0
H179 H 0.07437 0.75069 0.20449 0.0
H180 H 0.09508 0.77734 1.0867 0.0
H181 H 0.12196 0.84947 0.15487 0.0
C182 C 0.25249 0.44289 0.12829 0.0
N183 N 0.27763 0.4042 0.18392 0.0
N184 N 0.19355 0.39594 0.10012 0.0
C185 C 0.28385 0.52894 0.11226 0.0
C186 C 0.18053 0.32767 0.14998 0.0
N187 N 0.22836 0.3336 0.20967 0.0
C188 C 0.11905 0.2551 0.14405 0.0
H189 H 0.24951 0.54698 0.13571 0.0
H190 H 0.29426 0.55109 1.03999 0.0
H191 H 0.33022 0.55425 0.1492 0.0
H192 H 0.09678 0.25919 1.07876 0.0
H193 H 0.08346 0.24438 0.19726 0.0
H194 H 0.13063 0.2067 0.15355 0.0
C195 C 0.49552 0.9356 0.48705 0.0
N196 N 0.5457 0.95694 0.42843 0.0
N197 N 0.44853 0.95115 0.44745 0.0
C198 C 0.49137 0.89838 0.58287 0.0
C199 C 0.47402 0.9897 0.36578 0.0
N200 N 0.53151 0.98977 0.35161 0.0
C201 C 0.44744 0.0362 0.30425 0.0
H202 H 0.47714 0.83726 0.58583 0.0
H203 H 0.45464 0.90305 0.62117 0.0
H204 H 0.53946 0.92644 0.61519 0.0
H205 H 0.48845 0.09024 0.27157 0.0
H206 H 0.41608 0.05115 0.34008 0.0
H207 H 0.41791 0.00437 0.25176 0.0
C208 C 0.18563 0.57259 0.41863 0.0
N209 N 0.15448 0.51319 0.37184 0.0
N210 N 0.14521 0.60205 0.43362 0.0
C211 C 0.25083 0.59207 0.46439 0.0
C212 C 0.08757 0.55652 0.39721 0.0
N213 N 0.09387 0.50632 0.35347 0.0
C214 C 1.02339 0.55894 0.4071 0.0
H215 H 0.24877 0.54071 0.50746 0.0
H216 H 0.26408 0.63401 0.50951 0.0
H217 H 0.29082 0.61308 0.41341 0.0
H218 H 1.02007 0.60133 0.35275 0.0
H219 H 1.01956 0.57408 0.47233 0.0
H220 H 0.9804 0.50253 0.40529 0.0
C221 C 0.50142 0.6002 0.43809 0.0
N222 N 0.4723 0.53814 0.39646 0.0
N223 N 0.56685 0.62471 0.44237 0.0
C224 C 0.46506 0.62934 0.48837 0.0
C225 C 0.57543 0.57115 0.40922 0.0
N226 N 0.51852 0.51951 0.37738 0.0
C227 C 0.63899 0.56752 0.41157 0.0
H228 H 0.43827 0.65292 0.4409 0.0
H229 H 0.49701 0.67224 0.52954 0.0
H230 H 0.42921 0.58226 0.53711 0.0
H231 H 0.63107 0.50818 0.41994 0.0
H232 H 0.66611 0.59099 0.47008 0.0
H233 H 0.66813 0.60057 0.34941 0.0
Tb234 Tb 0.61532 0.06284 0.10889 0.0
C235 C 0.57313 0.88632 0.16141 0.0
Tb236 Tb 0.46716 0.94652 0.11439 0.0
O237 O 0.62409 0.03854 0.25459 0.0
O238 O 0.53482 0.02212 0.19738 0.0
O239 O 0.62006 0.95505 0.12811 0.0
C240 C 0.33949 0.87018 0.18482 0.0
O241 O 0.51075 0.87217 0.17058 0.0
C242 C 0.54045 0.97289 0.96486 0.0
C243 C 0.5039 0.12054 1.04994 0.0
O244 O 0.39261 0.87398 0.22427 0.0
O245 O 0.35829 0.90102 0.10171 0.0
O246 O 0.48578 0.91066 0.99201 0.0
O247 O 0.54455 0.01671 1.01667 0.0
O248 O 0.45575 0.04964 1.07013 0.0
O249 O 0.56781 0.13625 1.05579 0.0
C250 C 0.73927 0.1605 1.06179 0.0
O251 O 0.69732 0.17507 0.09744 0.0
O252 O 0.71042 0.09061 1.04797 0.0
C253 C 0.5614 0.01019 0.26926 0.0
Tb254 Tb 1.00156 0.53209 0.13171 0.0
C255 C 0.14389 0.66568 0.1136 0.0
Tb256 Tb 0.08631 0.49999 1.07048 0.0
O257 O 0.99918 0.47378 0.26807 0.0
O258 O 0.08719 0.52927 0.19938 0.0
O259 O 0.08124 0.64799 0.11361 0.0
C260 C 0.14972 0.41935 1.06558 0.0
O261 O 0.1597 0.61187 0.10351 0.0
C262 C 1.01728 0.53027 0.93265 0.0
C263 C 0.94675 0.36303 0.1199 0.0
O264 O 0.16711 0.48739 1.02111 0.0
O265 O 0.0955 0.39687 0.10833 0.0
O266 O 0.08056 0.5544 0.93382 0.0
O267 O 0.9977 0.49308 1.00984 0.0
O268 O 1.0096 0.38322 0.11159 0.0
O269 O 0.92956 0.41672 0.12062 0.0
C270 C 0.92572 0.59967 0.10984 0.0
O271 O 0.92776 0.55514 0.18163 0.0
O272 O 0.96768 0.60773 1.05115 0.0
C273 C 0.06095 0.48905 0.27414 0.0
Tb274 Tb 0.46661 0.4781 0.11433 0.0
C275 C 0.49467 0.33681 0.12819 0.0
Tb276 Tb 0.58964 0.50291 0.16218 0.0
O277 O 0.49554 0.52793 0.97268 0.0
O278 O 0.54218 0.47194 1.0417 0.0
O279 O 0.44956 0.36022 0.12687 0.0
C280 C 0.71717 0.5814 0.13622 0.0
O281 O 0.55712 0.38642 0.13735 0.0
C282 C 0.5178 0.48408 0.30698 0.0
C283 C 0.56602 0.64783 0.12981 0.0
O284 O 0.68909 0.52545 0.20225 0.0
O285 O 0.67376 0.58902 1.08436 0.0
O286 O 0.55939 0.45746 0.30297 0.0
O287 O 0.51828 0.51739 0.22896 0.0
O288 O 0.60873 0.62127 0.13513 0.0
O289 O 0.50257 0.59894 0.12688 0.0
C290 C 0.33914 0.4195 0.15676 0.0
O291 O 0.37928 0.39988 0.20278 0.0
O292 O 0.37021 0.4681 1.08541 0.0
C293 C 0.54394 0.5116 0.96668 0.0
Tb294 Tb 0.28199 0.39617 0.44222 0.0
C295 C 0.2398 0.21966 0.49474 0.0
Tb296 Tb 0.13382 0.27985 0.44772 0.0
O297 O 0.29076 0.37188 0.58792 0.0
O298 O 0.20149 0.35545 0.53071 0.0
O299 O 0.28672 0.28838 0.46144 0.0
C300 C 1.00616 0.20351 0.51815 0.0
O301 O 0.17742 0.2055 0.50391 0.0
C302 C 0.20711 0.30622 0.29819 0.0
C303 C 0.17057 0.45388 0.38327 0.0
O304 O 0.05928 0.20732 0.5576 0.0
O305 O 1.02496 0.23436 0.43504 0.0
O306 O 0.15245 0.24399 0.32534 0.0
O307 O 0.21121 0.35004 0.35 0.0
O308 O 0.12242 0.38297 0.40346 0.0
O309 O 0.23448 0.46958 0.38912 0.0
C310 C 0.40594 0.49383 0.39512 0.0
O311 O 0.36399 0.50841 0.43077 0.0
O312 O 0.37708 0.42395 0.3813 0.0
C313 C 0.22807 0.34352 0.60259 0.0
Tb314 Tb 0.66823 0.86542 0.46504 0.0
C315 C 0.81056 0.99902 0.44694 0.0
Tb316 Tb 0.75298 0.83333 0.40381 0.0
O317 O 0.66584 0.80711 0.6014 0.0
O318 O 0.75385 0.8626 0.53272 0.0
O319 O 0.74791 0.98132 0.44694 0.0
C320 C 0.81639 0.75268 0.39891 0.0
O321 O 0.82637 0.94521 0.43684 0.0
C322 C 0.68394 0.8636 0.26598 0.0
C323 C 0.61342 0.69636 0.45323 0.0
O324 O 0.83378 0.82073 0.35444 0.0
O325 O 0.76217 0.7302 0.44167 0.0
O326 O 0.74723 0.88774 0.26715 0.0
O327 O 0.66437 0.82642 0.34318 0.0
O328 O 0.67626 0.71655 0.44492 0.0
O329 O 0.59622 0.75005 0.45396 0.0
C330 C 0.59239 0.93301 0.44317 0.0
O331 O 0.59442 0.88847 0.51496 0.0
O332 O 0.63435 0.94106 0.38448 0.0
C333 C 0.72762 0.82239 0.60747 0.0
Tb334 Tb 0.13328 0.81143 0.44766 0.0
C335 C 0.16134 0.67015 0.46153 0.0
Tb336 Tb 0.25631 0.83625 0.49551 0.0
O337 O 0.16221 0.86127 0.30601 0.0
O338 O 0.20884 0.80527 0.37503 0.0
O339 O 0.11623 0.69355 0.4602 0.0
C340 C 0.38384 0.91473 0.46955 0.0
O341 O 0.22379 0.71975 0.47068 0.0
C342 C 0.18447 0.81741 0.64031 0.0
C343 C 0.23269 0.98116 0.46315 0.0
O344 O 0.35576 0.85878 0.53558 0.0
O345 O 0.34043 0.92235 0.4177 0.0
O346 O 0.22605 0.79079 0.6363 0.0
O347 O 0.18495 0.85073 0.5623 0.0
O348 O 0.2754 0.95461 0.46846 0.0
O349 O 0.16924 0.93228 0.46021 0.0
C350 C 1.00581 0.75283 0.4901 0.0
O351 O 0.04595 0.73322 0.53611 0.0
O352 O 0.03687 0.80143 0.41875 0.0
C353 C 0.21061 0.84493 0.30001 0.0
Tb354 Tb 0.94865 0.7295 0.77555 0.0
C355 C 0.90647 0.55299 0.82808 0.0
Tb356 Tb 0.80049 0.61318 0.78105 0.0
O357 O 0.95742 0.70521 0.92125 0.0
O358 O 0.86816 0.68878 0.86404 0.0
O359 O 0.95339 0.62172 0.79477 0.0
C360 C 0.67282 0.53684 0.85149 0.0
O361 O 0.84409 0.53883 0.83725 0.0
C362 C 0.87378 0.63956 0.63153 0.0
C363 C 0.83723 0.78721 0.7166 0.0
O364 O 0.72594 0.54065 0.89094 0.0
O365 O 0.69163 0.56769 0.76838 0.0
O366 O 0.81912 0.57733 0.65867 0.0
O367 O 0.87788 0.68338 0.68334 0.0
O368 O 0.78908 0.7163 0.7368 0.0
O369 O 0.90115 0.80292 0.72245 0.0
C370 C 0.0726 0.82716 0.72846 0.0
O371 O 0.03066 0.84174 0.76411 0.0
O372 O 0.04375 0.75728 0.71463 0.0
C373 C 0.89474 0.67685 0.93592 0.0
Tb374 Tb 0.3349 0.19875 0.79838 0.0
C375 C 0.47723 0.33235 0.78027 0.0
Tb376 Tb 0.41965 0.16666 0.73714 0.0
O377 O 0.33251 0.14044 0.93473 0.0
O378 O 0.42052 0.19594 0.86605 0.0
O379 O 0.41458 0.31466 0.78028 0.0
C380 C 0.48306 0.08601 0.73224 0.0
O381 O 0.49303 0.27854 0.77017 0.0
C382 C 0.35061 0.19694 0.59931 0.0
C383 C 0.28009 0.02969 0.78657 0.0
O384 O 0.50044 0.15406 0.68778 0.0
O385 O 0.42884 0.06354 0.775 0.0
O386 O 0.41389 0.22107 0.60049 0.0
O387 O 0.33103 0.15975 0.67651 0.0
O388 O 0.34293 0.04989 0.77826 0.0
O389 O 0.26289 0.08338 0.78729 0.0
C390 C 0.25905 0.26634 0.7765 0.0
O391 O 0.26109 0.22181 0.8483 0.0
O392 O 0.30102 0.27439 0.71782 0.0
C393 C 0.39428 0.15572 0.9408 0.0
Tb394 Tb 0.79994 0.14476 0.78099 0.0
C395 C 0.828 0.00348 0.79486 0.0
Tb396 Tb 0.92298 0.16958 0.82884 0.0
O397 O 0.82888 0.1946 0.63935 0.0
O398 O 0.87551 0.1386 0.70836 0.0
O399 O 0.78289 0.02689 0.79354 0.0
C400 C 0.05051 0.24807 0.80289 0.0
O401 O 0.89045 0.05309 0.80402 0.0
C402 C 0.85113 0.15074 0.97364 0.0
C403 C 0.89936 0.3145 0.79648 0.0
O404 O 1.02242 0.19212 0.86892 0.0
O405 O 1.00709 0.25568 0.75103 0.0
O406 O 0.89272 0.12413 0.96964 0.0
O407 O 0.85161 0.18406 0.89563 0.0
O408 O 0.94206 0.28794 0.80179 0.0
O409 O 0.8359 0.26561 0.79355 0.0
C410 C 0.67248 0.08617 0.82343 0.0
O411 O 0.71262 0.06655 0.86944 0.0
O412 O 0.70354 0.13477 0.75208 0.0
C413 C 0.87727 0.17826 0.63335 0.0
loop_
_geom_bond_atom_site_label_1
_geom_bond_atom_site_label_2
_geom_bond_distance
_geom_bond_site_symmetry_2
_ccdc_geom_bond_type
C0 N1 1.317 . S
C0 N2 1.348 . S
C0 C3 1.485 . S
N1 C0 1.317 . S
N1 N5 1.370 . S
N2 C0 1.348 . S
N2 C4 1.346 . S
C3 C0 1.485 . S
C3 H7 0.960 . S
C3 H8 0.961 . S
C3 H9 0.960 . S
C4 N2 1.346 . S
C4 N5 1.307 . S
C4 C6 1.486 . S
N5 N1 1.370 . S
N5 C4 1.307 . S
C6 C4 1.486 . S
C6 H10 0.960 . S
C6 H11 0.960 1_545 S
C6 H12 0.959 . S
H7 C3 0.960 . S
H8 C3 0.961 . S
H9 C3 0.960 . S
H10 C6 0.960 . S
H11 C6 0.960 1_565 S
H12 C6 0.959 . S
C13 N14 1.317 . S
C13 N15 1.348 . S
C13 C16 1.485 . S
N14 C13 1.317 . S
N14 N18 1.370 . S
N15 C13 1.348 . S
N15 C17 1.346 . S
C16 C13 1.485 . S
C16 H20 0.960 . S
C16 H21 0.961 . S
C16 H22 0.960 . S
C17 N15 1.346 . S
C17 N18 1.307 . S
C17 C19 1.486 . S
N18 N14 1.370 . S
N18 C17 1.307 . S
C19 C17 1.486 . S
C19 H23 0.960 . S
C19 H24 0.960 . S
C19 H25 0.959 . S
H20 C16 0.960 . S
H21 C16 0.961 . S
H22 C16 0.960 . S
H23 C19 0.960 . S
H24 C19 0.960 . S
H25 C19 0.959 . S
C26 N27 1.317 . S
C26 N28 1.348 . S
C26 C29 1.485 . S
N27 C26 1.317 . S
N27 N31 1.370 . S
N28 C26 1.348 . S
N28 C30 1.346 . S
C29 C26 1.485 . S
C29 H33 0.960 . S
C29 H34 0.961 . S
C29 H35 0.960 . S
C30 N28 1.346 . S
C30 N31 1.307 . S
C30 C32 1.486 . S
N31 N27 1.370 . S
N31 C30 1.307 . S
C32 C30 1.486 . S
C32 H36 0.960 . S
C32 H37 0.960 . S
C32 H38 0.959 . S
H33 C29 0.960 . S
H34 C29 0.961 . S
H35 C29 0.960 . S
H36 C32 0.960 . S
H37 C32 0.960 . S
H38 C32 0.959 . S
C39 N40 1.317 . S
C39 N41 1.348 . S
C39 C42 1.485 . S
N40 C39 1.317 . S
N40 N44 1.370 . S
N41 C39 1.348 . S
N41 C43 1.346 . S
C42 C39 1.485 . S
C42 H46 0.960 . S
C42 H47 0.961 . S
C42 H48 0.960 . S
C43 N41 1.346 . S
C43 N44 1.307 . S
C43 C45 1.486 . S
N44 N40 1.370 . S
N44 C43 1.307 . S
C45 C43 1.486 . S
C45 H49 0.960 . S
C45 H50 0.960 . S
C45 H51 0.959 . S
H46 C42 0.960 . S
H47 C42 0.961 . S
H48 C42 0.960 . S
H49 C45 0.960 . S
H50 C45 0.960 . S
H51 C45 0.959 . S
C52 N53 1.317 . S
C52 N54 1.348 . S
C52 C55 1.485 . S
N53 C52 1.317 . S
N53 N57 1.370 . S
N54 C52 1.348 . S
N54 C56 1.346 . S
C55 C52 1.485 . S
C55 H59 0.960 . S
C55 H60 0.961 . S
C55 H61 0.960 . S
C56 N54 1.346 . S
C56 N57 1.307 . S
C56 C58 1.486 . S
N57 N53 1.370 . S
N57 C56 1.307 . S
C58 C56 1.486 . S
C58 H62 0.960 1_565 S
C58 H63 0.960 . S
C58 H64 0.959 . S
H59 C55 0.960 . S
H60 C55 0.961 . S
H61 C55 0.960 . S
H62 C58 0.960 1_545 S
H63 C58 0.960 . S
H64 C58 0.959 . S
C65 N66 1.317 . S
C65 N67 1.348 . S
C65 C68 1.485 . S
N66 C65 1.317 . S
N66 N70 1.370 . S
N67 C65 1.348 . S
N67 C69 1.346 . S
C68 C65 1.485 . S
C68 H72 0.960 . S
C68 H73 0.961 . S
C68 H74 0.960 . S
C69 N67 1.346 . S
C69 N70 1.307 . S
C69 C71 1.486 . S
N70 N66 1.370 . S
N70 C69 1.307 . S
C71 C69 1.486 . S
C71 H75 0.960 . S
C71 H76 0.960 1_565 S
C71 H77 0.959 . S
H72 C68 0.960 . S
H73 C68 0.961 . S
H74 C68 0.960 . S
H75 C71 0.960 . S
H76 C71 0.960 1_545 S
H77 C71 0.959 . S
C78 N79 1.317 . S
C78 N80 1.348 . S
C78 C81 1.485 . S
N79 C78 1.317 . S
N79 N83 1.370 . S
N80 C78 1.348 . S
N80 C82 1.346 . S
C81 C78 1.485 . S
C81 H85 0.960 . S
C81 H86 0.961 . S
C81 H87 0.960 . S
C82 N80 1.346 . S
C82 N83 1.307 . S
C82 C84 1.486 . S
N83 N79 1.370 . S
N83 C82 1.307 . S
C84 C82 1.486 . S
C84 H88 0.960 . S
C84 H89 0.960 . S
C84 H90 0.959 . S
H85 C81 0.960 . S
H86 C81 0.961 . S
H87 C81 0.960 . S
H88 C84 0.960 . S
H89 C84 0.960 . S
H90 C84 0.959 . S
C91 N92 1.317 . S
C91 N93 1.348 . S
C91 C94 1.485 . S
N92 C91 1.317 . S
N92 N96 1.370 . S
N93 C91 1.348 . S
N93 C95 1.346 . S
C94 C91 1.485 . S
C94 H98 0.960 . S
C94 H99 0.961 . S
C94 H100 0.960 . S
C95 N93 1.346 . S
C95 N96 1.307 . S
C95 C97 1.486 . S
N96 N92 1.370 . S
N96 C95 1.307 . S
C97 C95 1.486 . S
C97 H101 0.960 . S
C97 H102 0.960 . S
C97 H103 0.959 . S
H98 C94 0.960 . S
H99 C94 0.961 . S
H100 C94 0.960 . S
H101 C97 0.960 . S
H102 C97 0.960 . S
H103 C97 0.959 . S
C104 N105 1.317 . S
C104 N106 1.348 . S
C104 C107 1.485 . S
N105 C104 1.317 . S
N105 N109 1.370 . S
N106 C104 1.348 . S
N106 C108 1.346 . S
C107 C104 1.485 . S
C107 H111 0.960 . S
C107 H112 0.961 . S
C107 H113 0.960 . S
C108 N106 1.346 . S
C108 N109 1.307 . S
C108 C110 1.486 . S
N109 N105 1.370 . S
N109 C108 1.307 . S
C110 C108 1.486 . S
C110 H114 0.960 . S
C110 H115 0.960 . S
C110 H116 0.959 . S
H111 C107 0.960 . S
H112 C107 0.961 . S
H113 C107 0.960 . S
H114 C110 0.960 . S
H115 C110 0.960 . S
H116 C110 0.959 . S
C117 N118 1.317 . S
C117 N119 1.348 . S
C117 C120 1.485 1_556 S
N118 C117 1.317 . S
N118 N122 1.370 . S
N119 C117 1.348 . S
N119 C121 1.346 . S
C120 C117 1.485 1_554 S
C120 H124 0.960 . S
C120 H125 0.961 . S
C120 H126 0.960 . S
C121 N119 1.346 . S
C121 N122 1.307 . S
C121 C123 1.486 . S
N122 N118 1.370 . S
N122 C121 1.307 . S
C123 C121 1.486 . S
C123 H127 0.960 . S
C123 H128 0.960 . S
C123 H129 0.959 . S
H124 C120 0.960 . S
H125 C120 0.961 . S
H126 C120 0.960 . S
H127 C123 0.960 . S
H128 C123 0.960 . S
H129 C123 0.959 . S
C130 N131 1.317 1_554 S
C130 N132 1.348 1_554 S
C130 C133 1.485 . S
N131 C130 1.317 1_556 S
N131 N135 1.370 . S
N132 C130 1.348 1_556 S
N132 C134 1.346 . S
C133 C130 1.485 . S
C133 H137 0.960 . S
C133 H138 0.961 . S
C133 H139 0.960 . S
C134 N132 1.346 . S
C134 N135 1.307 . S
C134 C136 1.486 . S
N135 N131 1.370 . S
N135 C134 1.307 . S
C136 C134 1.486 . S
C136 H140 0.960 . S
C136 H141 0.960 . S
C136 H142 0.959 . S
H137 C133 0.960 . S
H138 C133 0.961 . S
H139 C133 0.960 . S
H140 C136 0.960 . S
H141 C136 0.960 . S
H142 C136 0.959 . S
C143 N144 1.317 1_554 S
C143 N145 1.348 1_554 S
C143 C146 1.485 . S
N144 C143 1.317 1_556 S
N144 N148 1.370 . S
N145 C143 1.348 1_556 S
N145 C147 1.346 . S
C146 C143 1.485 . S
C146 H150 0.960 . S
C146 H151 0.961 . S
C146 H152 0.960 . S
C147 N145 1.346 . S
C147 N148 1.307 . S
C147 C149 1.486 . S
N148 N144 1.370 . S
N148 C147 1.307 . S
C149 C147 1.486 . S
C149 H153 0.960 . S
C149 H154 0.960 . S
C149 H155 0.959 . S
H150 C146 0.960 . S
H151 C146 0.961 . S
H152 C146 0.960 . S
H153 C149 0.960 . S
H154 C149 0.960 . S
H155 C149 0.959 . S
C156 N157 1.317 . S
C156 N158 1.348 . S
C156 C159 1.485 1_554 S
N157 C156 1.317 . S
N157 N161 1.370 . S
N158 C156 1.348 . S
N158 C160 1.346 . S
C159 C156 1.485 1_556 S
C159 H163 0.960 . S
C159 H164 0.961 . S
C159 H165 0.960 . S
C160 N158 1.346 . S
C160 N161 1.307 . S
C160 C162 1.486 . S
N161 N157 1.370 . S
N161 C160 1.307 . S
C162 C160 1.486 . S
C162 H166 0.960 . S
C162 H167 0.960 . S
C162 H168 0.959 . S
H163 C159 0.960 . S
H164 C159 0.961 . S
H165 C159 0.960 . S
H166 C162 0.960 . S
H167 C162 0.960 . S
H168 C162 0.959 . S
C169 N170 1.317 . S
C169 N171 1.348 . S
C169 C172 1.485 1_554 S
N170 C169 1.317 . S
N170 N174 1.370 . S
N171 C169 1.348 . S
N171 C173 1.346 . S
C172 C169 1.485 1_556 S
C172 H176 0.960 . S
C172 H177 0.961 . S
C172 H178 0.960 . S
C173 N171 1.346 . S
C173 N174 1.307 . S
C173 C175 1.486 . S
N174 N170 1.370 . S
N174 C173 1.307 . S
C175 C173 1.486 . S
C175 H179 0.960 . S
C175 H180 0.960 . S
C175 H181 0.959 . S
H176 C172 0.960 . S
H177 C172 0.961 . S
H178 C172 0.960 . S
H179 C175 0.960 . S
H180 C175 0.960 . S
H181 C175 0.959 . S
C182 N183 1.317 . S
C182 N184 1.348 . S
C182 C185 1.485 1_554 S
N183 C182 1.317 . S
N183 N187 1.370 . S
N184 C182 1.348 . S
N184 C186 1.346 . S
C185 C182 1.485 1_556 S
C185 H189 0.960 . S
C185 H190 0.961 . S
C185 H191 0.960 . S
C186 N184 1.346 . S
C186 N187 1.307 . S
C186 C188 1.486 . S
N187 N183 1.370 . S
N187 C186 1.307 . S
C188 C186 1.486 . S
C188 H192 0.960 . S
C188 H193 0.960 . S
C188 H194 0.959 . S
H189 C185 0.960 . S
H190 C185 0.961 . S
H191 C185 0.960 . S
H192 C188 0.960 . S
H193 C188 0.960 . S
H194 C188 0.959 . S
C195 N196 1.317 . S
C195 N197 1.348 . S
C195 C198 1.485 . S
N196 C195 1.317 . S
N196 N200 1.370 . S
N197 C195 1.348 . S
N197 C199 1.346 . S
C198 C195 1.485 . S
C198 H202 0.960 . S
C198 H203 0.961 . S
C198 H204 0.960 . S
C199 N197 1.346 . S
C199 N200 1.307 . S
C199 C201 1.486 . S
N200 N196 1.370 . S
N200 C199 1.307 . S
C201 C199 1.486 . S
C201 H205 0.960 1_565 S
C201 H206 0.960 . S
C201 H207 0.959 . S
H202 C198 0.960 . S
H203 C198 0.961 . S
H204 C198 0.960 . S
H205 C201 0.960 1_545 S
H206 C201 0.960 . S
H207 C201 0.959 . S
C208 N209 1.317 . S
C208 N210 1.348 . S
C208 C211 1.485 . S
N209 C208 1.317 . S
N209 N213 1.370 . S
N210 C208 1.348 . S
N210 C212 1.346 . S
C211 C208 1.485 . S
C211 H215 0.960 . S
C211 H216 0.961 . S
C211 H217 0.960 . S
C212 N210 1.346 . S
C212 N213 1.307 . S
C212 C214 1.486 . S
N213 N209 1.370 . S
N213 C212 1.307 . S
C214 C212 1.486 . S
C214 H218 0.960 . S
C214 H219 0.960 . S
C214 H220 0.959 . S
H215 C211 0.960 . S
H216 C211 0.961 . S
H217 C211 0.960 . S
H218 C214 0.960 . S
H219 C214 0.960 . S
H220 C214 0.959 . S
C221 N222 1.317 . S
C221 N223 1.348 . S
C221 C224 1.485 . S
N222 C221 1.317 . S
N222 N226 1.370 . S
N223 C221 1.348 . S
N223 C225 1.346 . S
C224 C221 1.485 . S
C224 H228 0.960 . S
C224 H229 0.961 . S
C224 H230 0.960 . S
C225 N223 1.346 . S
C225 N226 1.307 . S
C225 C227 1.486 . S
N226 N222 1.370 . S
N226 C225 1.307 . S
C227 C225 1.486 . S
C227 H231 0.960 . S
C227 H232 0.960 . S
C227 H233 0.959 . S
H228 C224 0.960 . S
H229 C224 0.961 . S
H230 C224 0.960 . S
H231 C227 0.960 . S
H232 C227 0.960 . S
H233 C227 0.959 . S
Tb234 O237 2.453 . S
Tb234 O238 2.596 1_545 S
Tb234 O239 2.374 1_545 S
Tb234 O247 2.343 1_554 S
Tb234 O249 2.353 . S
Tb234 O251 2.427 . S
Tb234 O252 2.510 1_554 S
C235 O239 1.251 . S
C235 O241 1.263 . S
Tb236 O238 2.343 1_556 S
Tb236 O241 2.353 1_556 S
Tb236 O244 2.427 1_556 S
Tb236 O245 2.513 1_556 S
Tb236 O246 2.453 . S
Tb236 O247 2.596 1_565 S
Tb236 O248 2.374 1_565 S
O237 Tb234 2.453 . S
O237 C253 1.245 1_545 S
O238 Tb234 2.596 1_565 S
O238 Tb236 2.343 1_554 S
O238 C253 1.259 . S
O239 Tb234 2.374 1_565 S
O239 C235 1.251 . S
C240 O244 1.275 . S
C240 O245 1.246 . S
O241 C235 1.263 . S
O241 Tb236 2.353 1_554 S
C242 O246 1.245 1_545 S
C242 O247 1.259 . S
C243 O248 1.250 1_554 S
C243 O249 1.263 . S
O244 Tb236 2.427 1_554 S
O244 C240 1.275 . S
O245 Tb236 2.513 1_554 S
O245 C240 1.246 . S
O246 Tb236 2.453 . S
O246 C242 1.245 1_565 S
O247 Tb234 2.343 1_556 S
O247 Tb236 2.596 1_545 S
O247 C242 1.259 . S
O248 Tb236 2.374 1_545 S
O248 C243 1.250 1_556 S
O249 Tb234 2.353 . S
O249 C243 1.263 . S
C250 O251 1.275 1_556 S
C250 O252 1.247 . S
O251 Tb234 2.427 . S
O251 C250 1.275 1_554 S
O252 Tb234 2.510 1_556 S
O252 C250 1.247 . S
C253 O237 1.245 1_565 S
C253 O238 1.259 . S
Tb254 O257 2.453 . S
Tb254 O258 2.596 1_655 S
Tb254 O259 2.374 1_655 S
Tb254 O267 2.343 1_554 S
Tb254 O269 2.353 . S
Tb254 O271 2.427 1_554 S
Tb254 O272 2.513 1_554 S
C255 O259 1.251 . S
C255 O261 1.263 1_554 S
Tb256 O258 2.343 1_556 S
Tb256 O261 2.353 . S
Tb256 O264 2.427 1_556 S
Tb256 O265 2.513 1_556 S
Tb256 O266 2.453 . S
Tb256 O267 2.596 1_455 S
Tb256 O268 2.374 1_455 S
O257 Tb254 2.453 . S
O257 C273 1.245 1_655 S
O258 Tb254 2.596 1_455 S
O258 Tb256 2.343 1_554 S
O258 C273 1.259 . S
O259 Tb254 2.374 1_455 S
O259 C255 1.251 . S
C260 O264 1.275 . S
C260 O265 1.246 . S
O261 C255 1.263 1_556 S
O261 Tb256 2.353 . S
C262 O266 1.245 1_655 S
C262 O267 1.259 . S
C263 O268 1.250 . S
C263 O269 1.263 1_556 S
O264 Tb256 2.427 1_554 S
O264 C260 1.275 . S
O265 Tb256 2.513 1_554 S
O265 C260 1.246 . S
O266 Tb256 2.453 . S
O266 C262 1.245 1_455 S
O267 Tb254 2.343 1_556 S
O267 Tb256 2.596 1_655 S
O267 C262 1.259 . S
O268 Tb256 2.374 1_655 S
O268 C263 1.250 . S
O269 Tb254 2.353 . S
O269 C263 1.263 1_554 S
C270 O271 1.275 . S
C270 O272 1.246 . S
O271 Tb254 2.427 1_556 S
O271 C270 1.275 . S
O272 Tb254 2.513 1_556 S
O272 C270 1.246 . S
C273 O257 1.245 1_455 S
C273 O258 1.259 . S
Tb274 O277 2.453 1_554 S
Tb274 O278 2.596 1_554 S
Tb274 O279 2.374 . S
Tb274 O287 2.343 . S
Tb274 O289 2.353 . S
Tb274 O291 2.427 . S
Tb274 O292 2.513 . S
C275 O279 1.251 . S
C275 O281 1.263 . S
Tb276 O278 2.343 1_554 S
Tb276 O281 2.353 . S
Tb276 O284 2.427 . S
Tb276 O285 2.513 1_554 S
Tb276 O286 2.453 . S
Tb276 O287 2.596 . S
Tb276 O288 2.374 . S
O277 Tb274 2.453 1_556 S
O277 C293 1.245 . S
O278 Tb274 2.596 1_556 S
O278 Tb276 2.343 1_556 S
O278 C293 1.259 . S
O279 Tb274 2.374 . S
O279 C275 1.251 . S
C280 O284 1.275 1_556 S
C280 O285 1.246 . S
O281 C275 1.263 . S
O281 Tb276 2.353 . S
C282 O286 1.245 . S
C282 O287 1.259 . S
C283 O288 1.250 . S
C283 O289 1.263 . S
O284 Tb276 2.427 . S
O284 C280 1.275 1_554 S
O285 Tb276 2.513 1_556 S
O285 C280 1.246 . S
O286 Tb276 2.453 . S
O286 C282 1.245 . S
O287 Tb274 2.343 . S
O287 Tb276 2.596 . S
O287 C282 1.259 . S
O288 Tb276 2.374 . S
O288 C283 1.250 . S
O289 Tb274 2.353 . S
O289 C283 1.263 . S
C290 O291 1.275 . S
C290 O292 1.246 . S
O291 Tb274 2.427 . S
O291 C290 1.275 . S
O292 Tb274 2.513 . S
O292 C290 1.246 . S
C293 O277 1.245 . S
C293 O278 1.259 . S
Tb294 O297 2.453 . S
Tb294 O298 2.596 . S
Tb294 O299 2.374 . S
Tb294 O307 2.343 . S
Tb294 O309 2.353 . S
Tb294 O311 2.427 . S
Tb294 O312 2.513 . S
C295 O299 1.251 . S
C295 O301 1.263 . S
Tb296 O298 2.343 . S
Tb296 O301 2.353 . S
Tb296 O304 2.427 . S
Tb296 O305 2.513 . S
Tb296 O306 2.453 . S
Tb296 O307 2.596 . S
Tb296 O308 2.374 . S
O297 Tb294 2.453 . S
O297 C313 1.245 . S
O298 Tb294 2.596 . S
O298 Tb296 2.343 . S
O298 C313 1.259 . S
O299 Tb294 2.374 . S
O299 C295 1.251 . S
C300 O304 1.275 1_655 S
C300 O305 1.246 1_655 S
O301 C295 1.263 . S
O301 Tb296 2.353 . S
C302 O306 1.245 . S
C302 O307 1.259 . S
C303 O308 1.250 . S
C303 O309 1.263 . S
O304 Tb296 2.427 . S
O304 C300 1.275 1_455 S
O305 Tb296 2.513 . S
O305 C300 1.246 1_455 S
O306 Tb296 2.453 . S
O306 C302 1.245 . S
O307 Tb294 2.343 . S
O307 Tb296 2.596 . S
O307 C302 1.259 . S
O308 Tb296 2.374 . S
O308 C303 1.250 . S
O309 Tb294 2.353 . S
O309 C303 1.263 . S
C310 O311 1.275 . S
C310 O312 1.246 . S
O311 Tb294 2.427 . S
O311 C310 1.275 . S
O312 Tb294 2.513 . S
O312 C310 1.246 . S
C313 O297 1.245 . S
C313 O298 1.259 . S
Tb314 O317 2.453 . S
Tb314 O318 2.596 . S
Tb314 O319 2.374 . S
Tb314 O327 2.343 . S
Tb314 O329 2.353 . S
Tb314 O331 2.427 . S
Tb314 O332 2.513 . S
C315 O319 1.251 . S
C315 O321 1.263 . S
Tb316 O318 2.343 . S
Tb316 O321 2.353 . S
Tb316 O324 2.427 . S
Tb316 O325 2.513 . S
Tb316 O326 2.453 . S
Tb316 O327 2.596 . S
Tb316 O328 2.374 . S
O317 Tb314 2.453 . S
O317 C333 1.245 . S
O318 Tb314 2.596 . S
O318 Tb316 2.343 . S
O318 C333 1.259 . S
O319 Tb314 2.374 . S
O319 C315 1.251 . S
C320 O324 1.275 . S
C320 O325 1.246 . S
O321 C315 1.263 . S
O321 Tb316 2.353 . S
C322 O326 1.245 . S
C322 O327 1.259 . S
C323 O328 1.250 . S
C323 O329 1.263 . S
O324 Tb316 2.427 . S
O324 C320 1.275 . S
O325 Tb316 2.513 . S
O325 C320 1.246 . S
O326 Tb316 2.453 . S
O326 C322 1.245 . S
O327 Tb314 2.343 . S
O327 Tb316 2.596 . S
O327 C322 1.259 . S
O328 Tb316 2.374 . S
O328 C323 1.250 . S
O329 Tb314 2.353 . S
O329 C323 1.263 . S
C330 O331 1.275 . S
C330 O332 1.246 . S
O331 Tb314 2.427 . S
O331 C330 1.275 . S
O332 Tb314 2.513 . S
O332 C330 1.246 . S
C333 O317 1.245 . S
C333 O318 1.259 . S
Tb334 O337 2.453 . S
Tb334 O338 2.596 . S
Tb334 O339 2.374 . S
Tb334 O347 2.343 . S
Tb334 O349 2.353 . S
Tb334 O351 2.427 . S
Tb334 O352 2.513 1_455 S
C335 O339 1.251 . S
C335 O341 1.263 . S
Tb336 O338 2.343 . S
Tb336 O341 2.353 . S
Tb336 O344 2.427 . S
Tb336 O345 2.513 . S
Tb336 O346 2.453 . S
Tb336 O347 2.596 . S
Tb336 O348 2.374 . S
O337 Tb334 2.453 . S
O337 C353 1.245 . S
O338 Tb334 2.596 . S
O338 Tb336 2.343 . S
O338 C353 1.259 . S
O339 Tb334 2.374 . S
O339 C335 1.251 . S
C340 O344 1.275 . S
C340 O345 1.246 . S
O341 C335 1.263 . S
O341 Tb336 2.353 . S
C342 O346 1.245 . S
C342 O347 1.259 . S
C343 O348 1.250 . S
C343 O349 1.263 . S
O344 Tb336 2.427 . S
O344 C340 1.275 . S
O345 Tb336 2.513 . S
O345 C340 1.246 . S
O346 Tb336 2.453 . S
O346 C342 1.245 . S
O347 Tb334 2.343 . S
O347 Tb336 2.596 . S
O347 C342 1.259 . S
O348 Tb336 2.374 . S
O348 C343 1.250 . S
O349 Tb334 2.353 . S
O349 C343 1.263 . S
C350 O351 1.275 1_655 S
C350 O352 1.246 . S
O351 Tb334 2.427 . S
O351 C350 1.275 1_455 S
O352 Tb334 2.513 1_655 S
O352 C350 1.246 . S
C353 O337 1.245 . S
C353 O338 1.259 . S
Tb354 O357 2.453 . S
Tb354 O358 2.596 . S
Tb354 O359 2.374 . S
Tb354 O367 2.343 . S
Tb354 O369 2.353 . S
Tb354 O371 2.427 1_655 S
Tb354 O372 2.513 1_655 S
C355 O359 1.251 . S
C355 O361 1.263 . S
Tb356 O358 2.343 . S
Tb356 O361 2.353 . S
Tb356 O364 2.427 . S
Tb356 O365 2.513 . S
Tb356 O366 2.453 . S
Tb356 O367 2.596 . S
Tb356 O368 2.374 . S
O357 Tb354 2.453 . S
O357 C373 1.245 . S
O358 Tb354 2.596 . S
O358 Tb356 2.343 . S
O358 C373 1.259 . S
O359 Tb354 2.374 . S
O359 C355 1.251 . S
C360 O364 1.275 . S
C360 O365 1.246 . S
O361 C355 1.263 . S
O361 Tb356 2.353 . S
C362 O366 1.245 . S
C362 O367 1.259 . S
C363 O368 1.250 . S
C363 O369 1.263 . S
O364 Tb356 2.427 . S
O364 C360 1.275 . S
O365 Tb356 2.513 . S
O365 C360 1.246 . S
O366 Tb356 2.453 . S
O366 C362 1.245 . S
O367 Tb354 2.343 . S
O367 Tb356 2.596 . S
O367 C362 1.259 . S
O368 Tb356 2.374 . S
O368 C363 1.250 . S
O369 Tb354 2.353 . S
O369 C363 1.263 . S
C370 O371 1.275 . S
C370 O372 1.246 . S
O371 Tb354 2.427 1_455 S
O371 C370 1.275 . S
O372 Tb354 2.513 1_455 S
O372 C370 1.246 . S
C373 O357 1.245 . S
C373 O358 1.259 . S
Tb374 O377 2.453 . S
Tb374 O378 2.596 . S
Tb374 O379 2.374 . S
Tb374 O387 2.343 . S
Tb374 O389 2.353 . S
Tb374 O391 2.427 . S
Tb374 O392 2.513 . S
C375 O379 1.251 . S
C375 O381 1.263 . S
Tb376 O378 2.343 . S
Tb376 O381 2.353 . S
Tb376 O384 2.427 . S
Tb376 O385 2.513 . S
Tb376 O386 2.453 . S
Tb376 O387 2.596 . S
Tb376 O388 2.374 . S
O377 Tb374 2.453 . S
O377 C393 1.245 . S
O378 Tb374 2.596 . S
O378 Tb376 2.343 . S
O378 C393 1.259 . S
O379 Tb374 2.374 . S
O379 C375 1.251 . S
C380 O384 1.275 . S
C380 O385 1.246 . S
O381 C375 1.263 . S
O381 Tb376 2.353 . S
C382 O386 1.245 . S
C382 O387 1.259 . S
C383 O388 1.250 . S
C383 O389 1.263 . S
O384 Tb376 2.427 . S
O384 C380 1.275 . S
O385 Tb376 2.513 . S
O385 C380 1.246 . S
O386 Tb376 2.453 . S
O386 C382 1.245 . S
O387 Tb374 2.343 . S
O387 Tb376 2.596 . S
O387 C382 1.259 . S
O388 Tb376 2.374 . S
O388 C383 1.250 . S
O389 Tb374 2.353 . S
O389 C383 1.263 . S
C390 O391 1.275 . S
C390 O392 1.246 . S
O391 Tb374 2.427 . S
O391 C390 1.275 . S
O392 Tb374 2.513 . S
O392 C390 1.246 . S
C393 O377 1.245 . S
C393 O378 1.259 . S
Tb394 O397 2.453 . S
Tb394 O398 2.596 . S
Tb394 O399 2.374 . S
Tb394 O407 2.343 . S
Tb394 O409 2.353 . S
Tb394 O411 2.427 . S
Tb394 O412 2.513 . S
C395 O399 1.251 . S
C395 O401 1.263 . S
Tb396 O398 2.343 . S
Tb396 O401 2.353 . S
Tb396 O404 2.427 . S
Tb396 O405 2.513 1_655 S
Tb396 O406 2.453 . S
Tb396 O407 2.596 . S
Tb396 O408 2.374 . S
O397 Tb394 2.453 . S
O397 C413 1.245 . S
O398 Tb394 2.596 . S
O398 Tb396 2.343 . S
O398 C413 1.259 . S
O399 Tb394 2.374 . S
O399 C395 1.251 . S
C400 O404 1.275 1_455 S
C400 O405 1.246 . S
O401 C395 1.263 . S
O401 Tb396 2.353 . S
C402 O406 1.245 . S
C402 O407 1.259 . S
C403 O408 1.250 . S
C403 O409 1.263 . S
O404 Tb396 2.427 . S
O404 C400 1.275 1_655 S
O405 Tb396 2.513 1_455 S
O405 C400 1.246 . S
O406 Tb396 2.453 . S
O406 C402 1.245 . S
O407 Tb394 2.343 . S
O407 Tb396 2.596 . S
O407 C402 1.259 . S
O408 Tb396 2.374 . S
O408 C403 1.250 . S
O409 Tb394 2.353 . S
O409 C403 1.263 . S
C410 O411 1.275 . S
C410 O412 1.246 . S
O411 Tb394 2.427 . S
O411 C410 1.275 . S
O412 Tb394 2.513 . S
O412 C410 1.246 . S
C413 O397 1.245 . S
C413 O398 1.259 . S
N170 C240 1.892 . S
N184 C260 1.120 . S
N158 C283 1.555 . S
N145 C263 1.499 . S
C280 N119 1.174 . S
N131 C243 1.985 1_556 S
C250 N144 1.566 . S
C270 N118 1.327 . S
N132 C275 1.609 1_556 S
N171 C255 1.560 . S
N183 C290 1.345 . S
C235 N157 1.609 . S
C300 N14 1.892 . S
N28 C320 1.120 . S
N2 C343 1.555 1_545 S
N223 C323 1.499 . S
N197 C340 1.174 . S
N209 C303 1.985 . S
N222 C310 1.566 . S
N196 C330 1.327 . S
C335 N210 1.609 . S
N15 C315 1.560 1_545 S
C350 N27 1.345 . S
N1 C295 1.609 . S
C360 N92 1.892 . S
N106 C380 1.120 . S
C403 N80 1.555 . S
C383 N67 1.498 1_545 S
C400 N41 1.174 . S
N53 C363 1.985 . S
N66 C370 1.566 . S
N40 C390 1.327 . S
C395 N54 1.609 1_545 S
N93 C375 1.560 . S
N105 C410 1.345 . S
N79 C355 1.609 . S
N200 C253 1.000 . S
C273 N213 1.858 . S
N226 C282 1.495 . S
N83 C262 1.599 . S
N96 C293 1.773 . S
C242 N109 1.040 . S
N44 C313 1.000 . S
N57 C333 1.858 . S
N70 C342 1.495 . S
N161 C322 1.599 . S
C353 N174 1.773 . S
N187 C302 1.041 . S
N122 C373 1.000 . S
N135 C393 1.858 . S
C402 N148 1.494 . S
N5 C382 1.599 . S
N18 C413 1.773 . S
N31 C362 1.041 . S
