# Generated by pormake.
# Topology anh, (6,3)-cn, num edge types: 1
# Building blocks:
#     Node 0, Type 0, BuildingBlock: PAMTUU_clean_sbu_0, # of connection points: 6
#     Node 1, Type 0, BuildingBlock: PAMTUU_clean_sbu_0, # of connection points: 6
#     Node 2, Type 0, BuildingBlock: PAMTUU_clean_sbu_0, # of connection points: 6
#     Node 3, Type 1, BuildingBlock: MIDCAF_clean_linker_0, # of connection points: 3
#     Node 4, Type 1, BuildingBlock: MIDCAF_clean_linker_0, # of connection points: 3
#     Node 5, Type 1, BuildingBlock: MIDCAF_clean_linker_0, # of connection points: 3
#     Node 6, Type 1, BuildingBlock: MIDCAF_clean_linker_0, # of connection points: 3
#     Node 7, Type 1, BuildingBlock: MIDCAF_clean_linker_0, # of connection points: 3
#     Node 8, Type 1, BuildingBlock: MIDCAF_clean_linker_0, # of connection points: 3
#     Edge 9, Type (0, 1), BuildingBlock: KIFKEQ_clean_linker_1, # of connection points: 2
#     Edge 10, Type (0, 1), BuildingBlock: KIFKEQ_clean_linker_1, # of connection points: 2
#     Edge 11, Type (0, 1), BuildingBlock: KIFKEQ_clean_linker_1, # of connection points: 2
#     Edge 12, Type (0, 1), BuildingBlock: KIFKEQ_clean_linker_1, # of connection points: 2
#     Edge 13, Type (0, 1), BuildingBlock: KIFKEQ_clean_linker_1, # of connection points: 2
#     Edge 14, Type (0, 1), BuildingBlock: KIFKEQ_clean_linker_1, # of connection points: 2
#     Edge 15, Type (0, 1), BuildingBlock: KIFKEQ_clean_linker_1, # of connection points: 2
#     Edge 16, Type (0, 1), BuildingBlock: KIFKEQ_clean_linker_1, # of connection points: 2
#     Edge 17, Type (0, 1), BuildingBlock: KIFKEQ_clean_linker_1, # of connection points: 2
#     Edge 18, Type (0, 1), BuildingBlock: KIFKEQ_clean_linker_1, # of connection points: 2
#     Edge 19, Type (0, 1), BuildingBlock: KIFKEQ_clean_linker_1, # of connection points: 2
#     Edge 20, Type (0, 1), BuildingBlock: KIFKEQ_clean_linker_1, # of connection points: 2
#     Edge 21, Type (0, 1), BuildingBlock: KIFKEQ_clean_linker_1, # of connection points: 2
#     Edge 22, Type (0, 1), BuildingBlock: KIFKEQ_clean_linker_1, # of connection points: 2
#     Edge 23, Type (0, 1), BuildingBlock: KIFKEQ_clean_linker_1, # of connection points: 2
#     Edge 24, Type (0, 1), BuildingBlock: KIFKEQ_clean_linker_1, # of connection points: 2
#     Edge 25, Type (0, 1), BuildingBlock: KIFKEQ_clean_linker_1, # of connection points: 2
#     Edge 26, Type (0, 1), BuildingBlock: KIFKEQ_clean_linker_1, # of connection points: 2
# Relax obj value: 0.236
# Max RMSD: 0.188
# Mean RMSD: 0.155
data_MOF--net-anh--node1-PAMTUU_clean_sbu_0--node2-MIDCAF_clean_linker_0--edge1-KIFKEQ_clean_linker_1
_symmetry_space_group_name_H-M    P1
_symmetry_Int_Tables_number       1
_symmetry_cell_setting            triclinic
loop_
_symmetry_equiv_pos_as_xyz
'x, y, z'
_cell_length_a     37.055358
_cell_length_b     36.935534
_cell_length_c     67.167391
_cell_angle_alpha  92.829229
_cell_angle_beta   91.437268
_cell_angle_gamma 120.45511
loop_
_atom_site_label
_atom_site_type_symbol
_atom_site_fract_x
_atom_site_fract_y
_atom_site_fract_z
_atom_type_partial_charge
Tb0 Tb 0.11812 0.65468 0.16161 0.0
Tb1 Tb 0.16375 0.59978 0.16564 0.0
C2 C 0.14689 0.62388 0.12338 0.0
C3 C 1.03768 0.6787 0.17168 0.0
C4 C 0.95695 0.63054 0.1858 0.0
C5 C 0.96295 0.6519 0.16826 0.0
C6 C 1.00301 0.67578 0.16127 0.0
C7 C 1.03234 0.66085 0.19019 0.0
C8 C 0.99234 0.63722 0.19725 0.0
C9 C 1.0762 0.69097 0.16125 0.0
O10 O 1.06797 0.59249 0.17001 0.0
O11 O 0.09643 0.55236 0.16067 0.0
O12 O 0.13857 0.59978 0.19453 0.0
O13 O 0.13906 0.66138 0.19262 0.0
O14 O 0.16536 0.54544 0.15735 0.0
O15 O 0.21017 0.59131 0.1798 0.0
O16 O 0.21483 0.66647 0.1705 0.0
O17 O 0.18405 0.70155 0.15745 0.0
O18 O 0.12021 0.63341 0.13104 0.0
O19 O 0.17129 0.61611 0.13468 0.0
C20 C 1.06395 0.5552 0.16612 0.0
O21 O 0.11045 0.70468 0.17244 0.0
O22 O 1.07226 0.66327 0.14728 0.0
C23 C 0.13669 0.63138 0.20305 0.0
C24 C 0.23214 0.55196 0.15975 0.0
C25 C 0.28864 0.52987 0.14383 0.0
C26 C 0.29114 0.54119 0.16435 0.0
C27 C 0.26296 0.55187 0.17223 0.0
C28 C 0.23109 0.54307 0.13909 0.0
C29 C 0.25894 0.53196 0.13123 0.0
C30 C 0.19886 0.5568 0.16876 0.0
C31 C 0.21758 0.70145 0.16457 0.0
H32 H 0.93648 0.64718 0.1589 0.0
H33 H 1.0064 0.68885 0.14688 0.0
H34 H 1.05857 0.66232 0.19847 0.0
H35 H 0.9889 0.62181 0.21096 0.0
H36 H 0.31422 0.54084 0.17442 0.0
H37 H 0.26436 0.5587 0.18821 0.0
H38 H 0.2077 0.54301 0.12906 0.0
H39 H 0.2558 0.52311 0.11539 0.0
Tb40 Tb 0.59768 0.07921 0.49775 0.0
Tb41 Tb 0.69883 0.12939 0.50339 0.0
C42 C 0.65219 0.11159 0.46023 0.0
C43 C 0.48767 1.00114 0.50653 0.0
C44 C 0.42484 0.92897 0.52313 0.0
C45 C 0.41865 0.96267 0.51947 0.0
C46 C 0.44981 0.99841 0.51118 0.0
C47 C 0.49499 0.96868 0.51125 0.0
C48 C 0.46366 0.9327 0.51937 0.0
C49 C 0.51868 1.03747 0.49638 0.0
O50 O 0.61324 1.03007 0.50416 0.0
O51 O 0.68389 0.06348 0.49913 0.0
O52 O 0.6769 0.10085 0.53141 0.0
O53 O 0.61492 0.09956 0.52908 0.0
O54 O 0.75857 0.1479 0.4931 0.0
O55 O 0.75171 0.17251 0.52166 0.0
O56 O 0.68008 0.17703 0.5092 0.0
O57 O 0.61517 0.14468 0.49298 0.0
O58 O 0.61611 0.08496 0.46719 0.0
O59 O 0.6861 0.13453 0.472 0.0
C60 C 0.64812 1.02887 0.5021 0.0
O61 O 0.54116 0.07208 0.50762 0.0
O62 O 0.5413 1.03039 0.48401 0.0
C63 C 0.64413 0.09813 0.53971 0.0
C64 C 0.79623 0.22169 0.50041 0.0
C65 C 0.8066 0.30067 0.49265 0.0
C66 C 0.82349 0.29549 0.51057 0.0
C67 C 0.81818 0.25624 0.51444 0.0
C68 C 0.78309 0.22804 0.48175 0.0
C69 C 0.78785 0.26688 0.478 0.0
C70 C 0.77632 0.17863 0.50708 0.0
C71 C 0.64796 0.17894 0.50154 0.0
H72 H 0.38881 0.96041 0.52193 0.0
H73 H 0.44382 1.02335 0.50779 0.0
H74 H 0.52437 0.97053 0.50809 0.0
H75 H 0.46923 0.90722 0.5221 0.0
H76 H 0.83912 0.32118 0.52198 0.0
H77 H 0.82824 0.25207 0.529 0.0
H78 H 0.76573 0.2021 0.47061 0.0
H79 H 0.7741 0.26931 0.46408 0.0
Tb80 Tb 0.62537 0.54227 0.82653 0.0
Tb81 Tb 0.67841 0.64207 0.83759 0.0
C82 C 0.64958 0.60439 0.79206 0.0
C83 C 0.59617 0.43235 0.83096 0.0
C84 C 0.61778 0.37648 0.84686 0.0
C85 C 0.60586 0.37252 0.82647 0.0
C86 C 0.59503 0.40014 0.81861 0.0
C87 C 0.60786 0.43636 0.85142 0.0
C88 C 0.61815 0.40823 0.85937 0.0
C89 C 0.58831 0.46323 0.8219 0.0
O90 O 0.69125 0.55722 0.83302 0.0
O91 O 0.72942 0.62935 0.83223 0.0
O92 O 0.68756 0.61292 0.86323 0.0
O93 O 0.62339 0.55475 0.85809 0.0
O94 O 0.71771 0.70524 0.83117 0.0
O95 O 0.68988 0.68964 0.85961 0.0
O96 O 0.61184 0.6216 0.84213 0.0
O97 O 0.57712 0.56014 0.82249 0.0
O98 O 0.63463 0.56585 0.79724 0.0
O99 O 0.66512 0.63708 0.80522 0.0
C100 C 0.72788 0.59286 0.83282 0.0
O101 O 0.57602 0.48352 0.83363 0.0
O102 O 0.61717 0.48818 0.81046 0.0
C103 C 0.65681 0.57862 0.86973 0.0
C104 C 0.6811 0.73842 0.84282 0.0
C105 C 0.61177 0.74975 0.83844 0.0
C106 C 0.63589 0.76215 0.85662 0.0
C107 C 0.67026 0.75633 0.85882 0.0
C108 C 0.65895 0.72944 0.8242 0.0
C109 C 0.62461 0.73493 0.82207 0.0
C110 C 0.70602 0.71836 0.84679 0.0
C111 C 0.57685 0.59136 0.83281 0.0
H112 H 0.6046 0.34775 0.8166 0.0
H113 H 0.58637 0.39676 0.80281 0.0
H114 H 0.60956 0.46147 0.86119 0.0
H115 H 0.6271 0.4117 0.87514 0.0
H116 H 0.6267 0.77394 0.86942 0.0
H117 H 0.68634 0.7628 0.8734 0.0
H118 H 0.66607 0.71521 0.81158 0.0
H119 H 0.60713 0.72612 0.80776 0.0
C120 C 0.52933 0.9831 0.2072 0.0
C121 C 0.50478 0.98032 0.19017 0.0
C122 C 0.52048 1.01725 0.1795 0.0
C123 C 0.55843 1.0552 0.18595 0.0
H124 H 0.71354 0.17979 0.17669 0.0
H125 H 0.77448 0.24391 0.16566 0.0
H126 H 0.78447 0.30928 0.22242 0.0
H127 H 0.7242 0.24701 0.23291 0.0
H128 H 0.6923 0.20092 0.27268 0.0
H129 H 0.69364 0.19928 0.30899 0.0
H130 H 0.62428 0.06316 0.30274 0.0
H131 H 0.62117 0.06505 0.26674 0.0
H132 H 0.58339 1.02009 0.22691 0.0
H133 H 0.51911 0.95679 0.21642 0.0
H134 H 0.50335 1.0171 0.16618 0.0
H135 H 0.56836 0.08293 0.17774 0.0
N136 N 0.64727 0.13273 0.20365 0.0
N137 N 0.68114 0.16736 0.23497 0.0
N138 N 0.62266 0.09966 0.23359 0.0
C139 C 0.67916 0.1678 0.21466 0.0
C140 C 0.65337 0.13361 0.24453 0.0
C141 C 0.6185 0.0982 0.21335 0.0
C142 C 0.71311 0.2074 0.20579 0.0
C143 C 0.72827 0.2081 0.18664 0.0
C144 C 0.76385 0.24508 0.1804 0.0
C145 C 0.78539 0.28287 0.193 0.0
C146 C 0.76925 0.28195 0.21188 0.0
C147 C 0.73425 0.24542 0.21805 0.0
C148 C 0.65631 0.13316 0.26671 0.0
C149 C 0.67737 0.17068 0.2791 0.0
C150 C 0.67832 0.16966 0.3 0.0
C151 C 0.65876 0.13105 0.3091 0.0
C152 C 0.63872 0.09361 0.29656 0.0
C153 C 0.63718 0.09466 0.27576 0.0
C154 C 0.58202 1.05762 0.20333 0.0
C155 C 0.56678 1.02036 0.21346 0.0
C156 C 0.61991 0.45962 0.53954 0.0
C157 C 0.64494 0.45843 0.52432 0.0
C158 C 0.6693 0.49653 0.51493 0.0
C159 C 0.66894 0.53405 0.52079 0.0
H160 H 0.67577 0.68021 0.51074 0.0
H161 H 0.67467 0.74293 0.5003 0.0
H162 H 0.61028 0.74255 0.55301 0.0
H163 H 0.6101 0.68066 0.56272 0.0
H164 H 0.62563 0.65352 0.602 0.0
H165 H 0.62635 0.65655 0.63845 0.0
H166 H 0.68074 0.57737 0.63928 0.0
H167 H 0.67937 0.57357 0.60272 0.0
H168 H 0.60096 0.49575 0.55768 0.0
H169 H 0.60113 0.43199 0.54759 0.0
H170 H 0.68896 0.49754 0.50306 0.0
H171 H 0.68907 0.56266 0.51366 0.0
N172 N 0.64712 0.60629 0.53608 0.0
N173 N 0.64911 0.64075 0.56702 0.0
N174 N 0.65078 0.57842 0.56656 0.0
C175 C 0.64719 0.63955 0.54672 0.0
C176 C 0.65125 0.61095 0.57707 0.0
C177 C 0.64861 0.57512 0.54621 0.0
C178 C 0.64292 0.67446 0.53765 0.0
C179 C 0.66057 0.69302 0.51982 0.0
C180 C 0.66039 0.72964 0.51398 0.0
C181 C 0.64223 0.74885 0.52565 0.0
C182 C 0.62394 0.72932 0.54314 0.0
C183 C 0.62419 0.69333 0.5489 0.0
C184 C 0.65242 0.61325 0.59934 0.0
C185 C 0.63785 0.63678 0.6099 0.0
C186 C 0.63806 0.63839 0.63081 0.0
C187 C 0.65365 0.61726 0.64176 0.0
C188 C 0.6688 0.59423 0.63127 0.0
C189 C 0.66779 0.59188 0.61031 0.0
C190 C 0.64458 0.53497 0.53644 0.0
C191 C 0.61989 0.49677 0.54545 0.0
C192 C 1.04144 0.62983 0.86878 0.0
C193 C 1.01195 0.59994 0.85415 0.0
C194 C 1.02308 0.57182 0.84479 0.0
C195 C 1.0612 0.57301 0.85028 0.0
H196 H 0.22339 0.61115 0.83929 0.0
H197 H 0.28746 0.61153 0.8293 0.0
H198 H 0.29821 0.56878 0.88649 0.0
H199 H 0.23586 0.56824 0.89624 0.0
H200 H 0.20883 0.59213 0.93418 0.0
H201 H 0.20902 0.59695 0.97056 0.0
H202 H 0.10397 0.61692 0.96689 0.0
H203 H 0.10405 0.61274 0.93062 0.0
H204 H 0.09932 0.65359 0.88614 0.0
H205 H 1.03493 0.65173 0.87689 0.0
H206 H 1.00207 0.54836 0.83332 0.0
H207 H 1.06726 0.54965 0.84338 0.0
N208 N 0.15602 0.59516 0.866 0.0
N209 N 0.18629 0.59574 0.89752 0.0
N210 N 0.12632 0.60119 0.89586 0.0
C211 C 0.18724 0.59362 0.87722 0.0
C212 C 0.15633 0.59949 0.90698 0.0
C213 C 0.12507 0.59892 0.87557 0.0
C214 C 0.22365 0.59015 0.86879 0.0
C215 C 0.23913 0.60139 0.84964 0.0
C216 C 0.27626 0.60169 0.84392 0.0
C217 C 0.29949 0.59107 0.85716 0.0
C218 C 0.28284 0.57849 0.87588 0.0
C219 C 0.2462 0.57797 0.88148 0.0
C220 C 0.15647 0.60209 0.92929 0.0
C221 C 0.18576 0.5976 0.94108 0.0
C222 C 0.18572 0.60012 0.96201 0.0
C223 C 0.15656 0.60742 0.97178 0.0
C224 C 0.1273 0.61187 0.95998 0.0
C225 C 0.1272 0.60918 0.93908 0.0
C226 C 0.08971 0.60232 0.86539 0.0
C227 C 1.07902 0.63092 0.87421 0.0
C228 C 0.15508 0.70239 0.46778 0.0
C229 C 0.14894 0.71409 0.48706 0.0
C230 C 0.11037 0.71074 0.49097 0.0
C231 C 1.07882 0.69675 0.47577 0.0
H232 H 0.95209 0.66419 0.46334 0.0
H233 H 0.88719 0.61619 0.47843 0.0
H234 H 0.84818 0.5319 0.42504 0.0
H235 H 0.9116 0.58057 0.40983 0.0
H236 H 0.97609 0.62117 0.37264 0.0
H237 H 0.99247 0.61221 0.33848 0.0
H238 H 0.12247 0.6641 0.35789 0.0
H239 H 0.10624 0.67244 0.39202 0.0
H240 H 0.1298 0.68062 0.43781 0.0
H241 H 0.1848 0.70536 0.46425 0.0
H242 H 0.1049 0.71964 0.5057 0.0
H243 H 1.04957 0.69495 0.47922 0.0
N244 N 1.01262 0.66058 0.44448 0.0
N245 N 0.99021 0.64075 0.4107 0.0
N246 N 1.0609 0.66832 0.42083 0.0
C247 C 0.98136 0.64491 0.42991 0.0
C248 C 1.03012 0.65296 0.40601 0.0
C249 C 1.0524 0.67223 0.44009 0.0
C250 C 0.93756 0.62523 0.43573 0.0
C251 C 0.92873 0.63616 0.45457 0.0
C252 C 0.89156 0.60857 0.46324 0.0
C253 C 0.86324 0.56916 0.45339 0.0
C254 C 0.86922 0.56162 0.4333 0.0
C255 C 0.906 0.58957 0.42451 0.0
C256 C 1.03982 0.64765 0.38515 0.0
C257 C 1.00819 0.63065 0.36966 0.0
C258 C 1.01757 0.62561 0.35005 0.0
C259 C 1.05876 0.63739 0.34548 0.0
C260 C 0.09031 0.65412 0.36096 0.0
C261 C 1.08098 0.65922 0.38054 0.0
C262 C 0.08544 0.68631 0.45631 0.0
C263 C 0.12375 0.6888 0.45255 0.0
C264 C 0.59976 0.12212 0.80607 0.0
C265 C 0.58087 0.11386 0.82448 0.0
C266 C 0.54561 0.07412 0.8267 0.0
C267 C 0.52883 1.04371 0.81063 0.0
H268 H 0.42413 0.92002 0.79018 0.0
H269 H 0.39895 0.85285 0.80481 0.0
H270 H 0.45712 0.81679 0.75894 0.0
H271 H 0.47941 0.8822 0.74386 0.0
H272 H 0.50699 0.95002 0.70624 0.0
H273 H 0.53435 0.96963 0.67341 0.0
H274 H 0.61425 0.09849 0.69693 0.0
H275 H 0.58661 0.07931 0.72964 0.0
H276 H 0.59777 0.09971 0.77593 0.0
H277 H 0.62649 0.15276 0.80377 0.0
H278 H 0.53044 0.06695 0.84071 0.0
H279 H 0.50118 1.01361 0.81275 0.0
N280 N 0.49776 0.98098 0.7774 0.0
N281 N 0.49742 0.96136 0.74361 0.0
N282 N 0.54277 1.03109 0.75626 0.0
C283 C 0.48215 0.95105 0.76197 0.0
C284 C 0.52738 1.00161 0.74059 0.0
C285 C 0.52819 1.021 0.77472 0.0
C286 C 0.45487 0.90672 0.7663 0.0
C287 C 0.42986 0.89679 0.78282 0.0
C288 C 0.41572 0.85838 0.79128 0.0
C289 C 0.42767 0.82999 0.78374 0.0
C290 C 0.44737 0.83762 0.76545 0.0
C291 C 0.46054 0.87555 0.75673 0.0
C292 C 0.54436 1.01309 0.72063 0.0
C293 C 0.53043 0.98256 0.70446 0.0
C294 C 0.54634 0.99369 0.68566 0.0
C295 C 0.57645 1.03561 0.68258 0.0
C296 C 0.59071 0.06602 0.69877 0.0
C297 C 0.57491 1.05492 0.71756 0.0
C298 C 0.54677 1.05259 0.79197 0.0
C299 C 0.58286 0.0919 0.78999 0.0
C300 C 0.7099 0.40659 0.11542 0.0
C301 C 0.69587 0.40405 0.13486 0.0
C302 C 0.65281 0.38679 0.13727 0.0
C303 C 0.62494 0.37577 0.12064 0.0
H304 H 0.51011 0.36128 0.10762 0.0
H305 H 0.4584 0.37998 0.11741 0.0
H306 H 0.45485 0.41961 0.05836 0.0
H307 H 0.50647 0.40103 0.04844 0.0
H308 H 0.55884 0.36791 0.01469 0.0
H309 H 0.58375 0.39875 0.98314 0.0
H310 H 0.70981 0.47245 0.00983 0.0
H311 H 0.68473 0.4411 0.04164 0.0
H312 H 0.69447 0.40037 0.08411 0.0
H313 H 0.74293 0.42006 0.113 0.0
H314 H 0.64096 0.3838 0.15204 0.0
H315 H 0.59229 0.3646 0.12311 0.0
N316 N 0.5741 0.37474 0.08755 0.0
N317 N 0.56507 0.38468 0.0541 0.0
N318 N 0.62672 0.38724 0.06551 0.0
C319 C 0.5504 0.37746 0.07264 0.0
C320 C 0.60294 0.38931 0.05036 0.0
C321 C 0.61208 0.3792 0.08413 0.0
C322 C 0.51302 0.38027 0.07734 0.0
C323 C 0.49772 0.37315 0.09657 0.0
C324 C 0.46798 0.38372 0.10219 0.0
C325 C 0.4532 0.40182 0.08872 0.0
C326 C 0.4663 0.40629 0.06911 0.0
C327 C 0.4957 0.39538 0.06343 0.0
C328 C 0.6198 0.40221 0.03061 0.0
C329 C 0.59203 0.38997 0.01373 0.0
C330 C 0.60637 0.4075 0.99562 0.0
C331 C 0.64873 0.4381 0.99405 0.0
C332 C 0.67698 0.44904 0.01069 0.0
C333 C 0.66268 0.43088 0.0288 0.0
C334 C 0.63961 0.38193 0.10125 0.0
C335 C 0.68207 0.39557 0.09879 0.0
H336 H 0.32506 0.54284 0.10776 0.0
H337 H 0.31075 0.47823 0.16155 0.0
H338 H 0.36243 0.51025 0.09359 0.0
H339 H 0.35061 0.44808 0.14796 0.0
H340 H 0.38371 0.36476 0.11058 0.0
H341 H 0.34395 0.39615 0.12351 0.0
H342 H 0.42681 0.51137 0.09621 0.0
H343 H 0.46541 0.47939 0.08283 0.0
C344 C 0.33011 0.52193 0.11663 0.0
C345 C 0.31476 0.51314 0.13579 0.0
C346 C 0.35199 0.5036 0.10858 0.0
C347 C 0.35941 0.47634 0.11958 0.0
C348 C 0.34484 0.4683 0.13891 0.0
C349 C 0.32262 0.48627 0.14687 0.0
C350 C 0.39311 0.39668 0.10728 0.0
C351 C 0.42739 0.41957 0.09563 0.0
C352 C 0.37059 0.41481 0.11478 0.0
C353 C 0.38229 0.45642 0.11099 0.0
C354 C 0.41644 0.47907 0.09915 0.0
C355 C 0.4386 0.46077 0.09149 0.0
H356 H 0.79564 0.35091 0.52051 0.0
H357 H 0.81497 0.33912 0.45782 0.0
H358 H 0.79332 0.41471 0.51512 0.0
H359 H 0.81033 0.40105 0.45243 0.0
H360 H 0.78599 0.49961 0.44175 0.0
H361 H 0.75979 0.43033 0.45449 0.0
H362 H 0.85117 0.48663 0.50433 0.0
H363 H 0.87837 0.55504 0.49152 0.0
C364 C 0.7994 0.36177 0.50561 0.0
C365 C 0.80574 0.33985 0.48962 0.0
C366 C 0.7973 0.39785 0.50251 0.0
C367 C 0.80057 0.41212 0.4833 0.0
C368 C 0.80627 0.38993 0.4673 0.0
C369 C 0.8092 0.35451 0.47044 0.0
C370 C 0.79964 0.49744 0.45577 0.0
C371 C 0.83553 0.53278 0.46506 0.0
C372 C 0.78449 0.45779 0.46308 0.0
C373 C 0.80446 0.45319 0.48 0.0
C374 C 0.83541 0.48928 0.49115 0.0
C375 C 0.85093 0.52878 0.48374 0.0
H376 H 0.53566 0.68741 0.82259 0.0
H377 H 0.59959 0.81449 0.84959 0.0
H378 H 0.47307 0.69156 0.81564 0.0
H379 H 0.5385 0.8201 0.84154 0.0
H380 H 0.43934 0.83701 0.8247 0.0
H381 H 0.4696 0.80431 0.84375 0.0
H382 H 0.4558 0.72401 0.79157 0.0
H383 H 0.42139 0.75366 0.77303 0.0
C384 C 0.53606 0.71611 0.82721 0.0
C385 C 0.57251 0.75083 0.83643 0.0
C386 C 0.50028 0.7186 0.82316 0.0
C387 C 0.50064 0.75634 0.8277 0.0
C388 C 0.53646 0.79018 0.83804 0.0
C389 C 0.57186 0.78728 0.84251 0.0
C390 C 0.4405 0.81086 0.81742 0.0
C391 C 0.42971 0.79954 0.79686 0.0
C392 C 0.45875 0.79255 0.82838 0.0
C393 C 0.46752 0.76331 0.81894 0.0
C394 C 0.45054 0.74714 0.79936 0.0
C395 C 0.43121 0.76467 0.78854 0.0
H396 H 0.8823 0.62895 0.18159 0.0
H397 H 0.93486 0.5532 0.19877 0.0
H398 H 0.81318 0.56624 0.17763 0.0
H399 H 0.86525 0.49085 0.19596 0.0
H400 H 0.76863 0.40375 0.14292 0.0
H401 H 0.82784 0.45523 0.1647 0.0
H402 H 0.75234 0.5046 0.18788 0.0
H403 H 0.69367 0.45423 0.16547 0.0
C404 C 0.87892 0.59915 0.18517 0.0
C405 C 0.91433 0.59601 0.18986 0.0
C406 C 0.83911 0.56312 0.18316 0.0
C407 C 0.83388 0.52326 0.18598 0.0
C408 C 0.8685 0.52095 0.19318 0.0
C409 C 0.9084 0.55693 0.19502 0.0
C410 C 0.7644 0.42494 0.15301 0.0
C411 C 0.72685 0.42563 0.15207 0.0
C412 C 0.79822 0.45423 0.1657 0.0
C413 C 0.79509 0.48475 0.17772 0.0
C414 C 0.75598 0.48208 0.17849 0.0
C415 C 0.72219 0.45286 0.16576 0.0
H416 H 0.36732 0.91389 0.55121 0.0
H417 H 0.40009 0.85219 0.50492 0.0
H418 H 0.29798 0.85088 0.55162 0.0
H419 H 0.33107 0.79029 0.50471 0.0
H420 H 0.17499 0.78651 0.50996 0.0
H421 H 0.24272 0.82986 0.52748 0.0
H422 H 0.27187 0.73145 0.51598 0.0
H423 H 0.20391 0.68845 0.4977 0.0
C424 C 0.36002 0.88642 0.54152 0.0
C425 C 0.38864 0.88813 0.52774 0.0
C426 C 0.32033 0.8504 0.54169 0.0
C427 C 0.30838 0.81587 0.52781 0.0
C428 C 0.33891 0.81602 0.5157 0.0
C429 C 0.37869 0.85174 0.51574 0.0
C430 C 0.19521 0.7735 0.51177 0.0
C431 C 0.18464 0.73456 0.50211 0.0
C432 C 0.2342 0.79834 0.52196 0.0
C433 C 0.26333 0.78459 0.52282 0.0
C434 C 0.25065 0.74347 0.51514 0.0
C435 C 0.21176 0.71881 0.50471 0.0
H436 H 0.58479 0.32798 0.87833 0.0
H437 H 0.67355 0.35617 0.8328 0.0
H438 H 0.58662 0.26414 0.88445 0.0
H439 H 0.67474 0.29252 0.83833 0.0
H440 H 0.66102 0.17276 0.83824 0.0
H441 H 0.68259 0.24135 0.85515 0.0
H442 H 0.55237 0.20246 0.86185 0.0
H443 H 0.53126 0.13438 0.84548 0.0
C444 C 0.60582 0.32126 0.87017 0.0
C445 C 0.62815 0.34607 0.85473 0.0
C446 C 0.60676 0.28468 0.87359 0.0
C447 C 0.62994 0.27255 0.86154 0.0
C448 C 0.65649 0.30061 0.84795 0.0
C449 C 0.65549 0.33697 0.84455 0.0
C450 C 0.63722 0.17855 0.84401 0.0
C451 C 0.59446 0.14879 0.84004 0.0
C452 C 0.64952 0.21774 0.85371 0.0
C453 C 0.61921 0.22792 0.8593 0.0
C454 C 0.57671 0.19594 0.85779 0.0
C455 C 0.56447 0.15671 0.84826 0.0
H456 H 0.57977 0.94849 0.50446 0.0
H457 H 0.71459 1.01402 0.50464 0.0
H458 H 0.57804 0.88249 0.50834 0.0
H459 H 0.71327 0.9482 0.50933 0.0
H460 H 0.70104 0.81748 0.50552 0.0
H461 H 0.70224 0.88251 0.49879 0.0
H462 H 0.58617 0.83849 0.52795 0.0
H463 H 0.58371 0.77312 0.53345 0.0
C464 C 0.60927 0.94908 0.50542 0.0
C465 C 0.64731 0.98744 0.50418 0.0
C466 C 0.60838 0.91073 0.50786 0.0
C467 C 0.64554 0.90871 0.50941 0.0
C468 C 0.68363 0.94721 0.508 0.0
C469 C 0.68447 0.98556 0.50539 0.0
C470 C 0.67533 0.82119 0.51025 0.0
C471 C 0.64248 0.78903 0.5203 0.0
C472 C 0.67629 0.85929 0.50661 0.0
C473 C 0.64444 0.86719 0.51281 0.0
C474 C 0.61136 0.83463 0.52255 0.0
C475 C 0.6103 0.79666 0.52608 0.0
H476 H 0.80908 0.65792 0.82877 0.0
H477 H 0.74126 0.52717 0.84128 0.0
H478 H 0.87493 0.65872 0.83236 0.0
H479 H 0.80747 0.5281 0.84571 0.0
H480 H 0.93306 0.53113 0.84092 0.0
H481 H 0.86654 0.52861 0.83486 0.0
H482 H 0.92736 0.66169 0.85175 0.0
H483 H 0.99368 0.66464 0.85649 0.0
C484 C 0.808 0.62917 0.83241 0.0
C485 C 0.76896 0.59249 0.83467 0.0
C486 C 0.84639 0.62966 0.83469 0.0
C487 C 0.848 0.59359 0.83961 0.0
C488 C 0.80872 0.55671 0.84171 0.0
C489 C 0.7702 0.55616 0.83925 0.0
C490 C 0.93267 0.56015 0.84306 0.0
C491 C 0.97003 0.59806 0.84943 0.0
C492 C 0.89377 0.5586 0.83983 0.0
C493 C 0.8901 0.59488 0.84277 0.0
C494 C 0.92763 0.63276 0.84891 0.0
C495 C 0.96637 0.63434 0.85203 0.0
H496 H 0.2347 0.78388 0.16487 0.0
H497 H 0.29716 0.71279 0.16917 0.0
H498 H 0.30193 0.84937 0.17008 0.0
H499 H 0.3646 0.77776 0.17314 0.0
H500 H 0.4815 0.89755 0.19691 0.0
H501 H 0.41463 0.83383 0.19108 0.0
H502 H 0.3651 0.90276 0.16221 0.0
H503 H 0.43174 0.96787 0.1698 0.0
C504 C 0.26286 0.78207 0.16665 0.0
C505 C 0.25978 0.74236 0.16664 0.0
C506 C 0.30204 0.82013 0.16956 0.0
C507 C 0.34024 0.82038 0.17228 0.0
C508 C 0.33687 0.78032 0.17175 0.0
C509 C 0.29766 0.74237 0.16923 0.0
C510 C 0.45646 0.89989 0.18965 0.0
C511 C 0.46316 0.93936 0.18432 0.0
C512 C 0.41744 0.86229 0.18584 0.0
C513 C 0.38283 0.86156 0.17602 0.0
C514 C 0.3898 0.90088 0.17013 0.0
C515 C 0.42888 0.9388 0.17424 0.0
H516 H 0.71271 0.2587 0.51527 0.0
H517 H 0.58413 0.19488 0.49203 0.0
H518 H 0.71233 0.32468 0.51958 0.0
H519 H 0.58396 0.26092 0.49593 0.0
H520 H 0.58043 0.37503 0.52445 0.0
H521 H 0.58207 0.31045 0.51865 0.0
H522 H 0.71218 0.38277 0.50531 0.0
H523 H 0.71102 0.44797 0.5119 0.0
C524 C 0.68427 0.25854 0.51094 0.0
C525 C 0.64833 0.22056 0.50336 0.0
C526 C 0.68418 0.2969 0.51328 0.0
C527 C 0.64811 0.29919 0.50822 0.0
C528 C 0.61237 0.26121 0.50039 0.0
C529 C 0.61252 0.22291 0.49798 0.0
C530 C 0.60973 0.37767 0.52045 0.0
C531 C 0.6457 0.41786 0.51897 0.0
C532 C 0.61052 0.34 0.51682 0.0
C533 C 0.64733 0.34029 0.51151 0.0
C534 C 0.68321 0.38042 0.50966 0.0
C535 C 0.68239 0.41826 0.51322 0.0
H536 H 0.49679 0.53845 0.8144 0.0
H537 H 0.56349 0.64647 0.8565 0.0
H538 H 0.4319 0.53969 0.8191 0.0
H539 H 0.4992 0.64778 0.86121 0.0
H540 H 0.37005 0.61589 0.88213 0.0
H541 H 0.43412 0.61564 0.87572 0.0
H542 H 0.39004 0.57243 0.81433 0.0
H543 H 0.32477 0.57177 0.82097 0.0
C544 C 0.4979 0.56259 0.82465 0.0
C545 C 0.53619 0.59216 0.83509 0.0
C546 C 0.46034 0.56349 0.82731 0.0
C547 C 0.45915 0.59368 0.84072 0.0
C548 C 0.49764 0.62331 0.85103 0.0
C549 C 0.53513 0.62273 0.8482 0.0
C550 C 0.37347 0.606 0.86721 0.0
C551 C 0.34096 0.5934 0.85223 0.0
C552 C 0.41105 0.60635 0.86341 0.0
C553 C 0.41839 0.59394 0.84441 0.0
C554 C 0.38615 0.58179 0.82927 0.0
C555 C 0.34848 0.58182 0.83305 0.0
H556 H 0.98605 0.54594 0.1728 0.0
H557 H 1.04609 0.47259 0.1655 0.0
H558 H 0.91958 0.4819 0.17732 0.0
H559 H 0.98024 0.40874 0.17094 0.0
H560 H 0.84909 0.29123 0.16866 0.0
H561 H 0.91327 0.3549 0.16104 0.0
H562 H 0.87744 0.42999 0.19733 0.0
H563 H 0.81256 0.36701 0.20384 0.0
C564 C 0.98533 0.51622 0.17226 0.0
C565 C 1.02221 0.51519 0.16871 0.0
C566 C 0.94682 0.47902 0.17508 0.0
C567 C 0.94335 0.43896 0.17476 0.0
C568 C 0.98039 0.43812 0.17109 0.0
C569 C 1.01876 0.47525 0.16806 0.0
C570 C 0.85436 0.32128 0.1748 0.0
C571 C 0.82473 0.32282 0.18714 0.0
C572 C 0.892 0.35831 0.17063 0.0
C573 C 0.90195 0.39882 0.17858 0.0
C574 C 0.87181 0.40027 0.19056 0.0
C575 C 0.83424 0.36339 0.19464 0.0
H576 H 0.19951 0.60784 0.10126 0.0
H577 H 0.09931 0.63477 0.09503 0.0
H578 H 0.20314 0.60474 0.06502 0.0
H579 H 0.10218 0.63059 0.05891 0.0
H580 H 0.14477 0.6623 0.99595 0.0
H581 H 0.14352 0.66668 0.03219 0.0
H582 H 0.16688 0.56363 0.03472 0.0
H583 H 0.16849 0.55956 0.99841 0.0
C584 C 0.17813 0.61297 0.0922 0.0
C585 C 0.1492 0.6217 0.1012 0.0
C586 C 0.18003 0.61091 0.07134 0.0
C587 C 0.15302 0.61749 0.05887 0.0
C588 C 0.12403 0.62607 0.06792 0.0
C589 C 0.12219 0.6282 0.08874 0.0
C590 C 0.14936 0.64034 0.00419 0.0
C591 C 0.15657 0.61046 0.99412 0.0
C592 C 0.1486 0.64282 0.02506 0.0
C593 C 0.15489 0.61539 0.03656 0.0
C594 C 0.16248 0.58573 0.0265 0.0
C595 C 0.16337 0.58334 0.0056 0.0
H596 H 0.58712 0.08867 0.43286 0.0
H597 H 0.7217 0.14549 0.43782 0.0
H598 H 0.58937 0.09567 0.39713 0.0
H599 H 0.724 0.15056 0.40172 0.0
H600 H 0.71964 0.18568 0.3379 0.0
H601 H 0.71822 0.18322 0.37401 0.0
H602 H 0.59744 0.06846 0.36726 0.0
H603 H 0.59721 0.07295 0.33149 0.0
C604 C 0.61726 0.10228 0.42628 0.0
C605 C 0.6542 0.11629 0.43829 0.0
C606 C 0.61858 0.10606 0.40563 0.0
C607 C 0.65684 0.12328 0.39618 0.0
C608 C 0.69391 0.13762 0.40828 0.0
C609 C 0.69262 0.13446 0.42906 0.0
C610 C 0.69238 0.16028 0.34408 0.0
C611 C 0.65857 0.12952 0.33146 0.0
C612 C 0.69187 0.15848 0.36493 0.0
C613 C 0.65771 0.12561 0.37387 0.0
C614 C 0.62409 0.09478 0.36121 0.0
C615 C 0.62433 0.09692 0.34045 0.0
H616 H 0.70422 0.67268 0.77195 0.0
H617 H 0.59362 0.54912 0.76292 0.0
H618 H 0.70588 0.67849 0.73561 0.0
H619 H 0.59476 0.55539 0.7269 0.0
H620 H 0.5885 0.60238 0.66492 0.0
H621 H 0.5872 0.60262 0.70138 0.0
H622 H 0.71703 0.63621 0.70543 0.0
H623 H 0.71815 0.63526 0.66888 0.0
C624 C 0.67996 0.64709 0.76226 0.0
C625 C 0.64886 0.61041 0.77033 0.0
C626 C 0.68107 0.65029 0.74148 0.0
C627 C 0.65047 0.61735 0.7284 0.0
C628 C 0.61864 0.58138 0.73656 0.0
C629 C 0.61809 0.57777 0.75722 0.0
C630 C 0.61683 0.61006 0.6736 0.0
C631 C 0.65339 0.61867 0.66401 0.0
C632 C 0.61604 0.61006 0.69446 0.0
C633 C 0.65205 0.61956 0.70628 0.0
C634 C 0.68891 0.62912 0.69674 0.0
C635 C 0.68944 0.62824 0.67582 0.0
H636 H 0.58764 0.10505 0.56221 0.0
H637 H 0.68855 0.07855 0.56605 0.0
H638 H 0.57567 0.09239 0.5972 0.0
H639 H 0.67659 0.06614 0.60143 0.0
H640 H 0.59897 0.99405 0.65527 0.0
H641 H 0.61964 1.01221 0.62123 0.0
H642 H 0.61005 0.1235 0.63054 0.0
H643 H 0.58834 0.10485 0.66426 0.0
C644 C 0.60753 0.09682 0.57056 0.0
C645 C 0.63905 0.09276 0.56133 0.0
C646 C 0.60081 0.08984 0.59068 0.0
C647 C 0.62527 0.0784 0.60207 0.0
C648 C 0.65711 0.07469 0.59295 0.0
C649 C 0.6641 0.08204 0.57276 0.0
C650 C 0.6013 1.02238 0.65001 0.0
C651 C 0.59178 1.04788 0.6624 0.0
C652 C 0.61359 1.03302 0.63063 0.0
C653 C 0.61631 0.06919 0.62321 0.0
C654 C 0.60784 0.09521 0.63578 0.0
C655 C 0.59576 0.08471 0.65516 0.0
H656 H 0.7264 0.60901 0.89576 0.0
H657 H 0.59534 0.51278 0.88753 0.0
H658 H 0.73252 0.57664 0.92582 0.0
H659 H 0.6016 0.48095 0.91706 0.0
H660 H 0.63024 0.4046 0.95554 0.0
H661 H 0.63823 0.44205 0.92555 0.0
H662 H 0.70348 0.56076 0.96089 0.0
H663 H 0.69559 0.52317 0.99099 0.0
C664 C 0.69889 0.58141 0.90047 0.0
C665 C 0.66047 0.56334 0.88919 0.0
C666 C 0.70246 0.56283 0.91758 0.0
C667 C 0.66776 0.52576 0.92349 0.0
C668 C 0.62917 0.50883 0.91258 0.0
C669 C 0.62554 0.52739 0.89572 0.0
C670 C 0.64697 0.43871 0.95684 0.0
C671 C 0.66175 0.46094 0.97561 0.0
C672 C 0.65146 0.46014 0.93971 0.0
C673 C 0.67069 0.50426 0.94099 0.0
C674 C 0.68853 0.52676 0.95949 0.0
C675 C 0.68408 0.50524 0.9767 0.0
H676 H 0.1318 0.69265 0.22497 0.0
H677 H 0.12247 0.57185 0.22959 0.0
H678 H 0.11295 0.69221 0.25932 0.0
H679 H 0.10292 0.57128 0.26414 0.0
H680 H 0.11055 0.60996 0.33184 0.0
H681 H 0.13099 0.60808 0.29766 0.0
H682 H 1.04997 0.65312 0.27769 0.0
H683 H 1.0307 0.65639 0.31184 0.0
C684 C 0.12592 0.66602 0.23333 0.0
C685 C 0.12857 0.6322 0.22448 0.0
C686 C 0.11476 0.66565 0.25301 0.0
C687 C 0.10594 0.63149 0.26437 0.0
C688 C 0.1097 0.59814 0.25576 0.0
C689 C 0.12085 0.59845 0.23598 0.0
C690 C 0.09725 0.6196 0.32014 0.0
C691 C 1.06918 0.63355 0.32457 0.0
C692 C 0.10864 0.61812 0.30055 0.0
C693 C 0.09233 0.63075 0.28502 0.0
C694 C 1.06357 0.64379 0.28939 0.0
C695 C 1.05213 0.64518 0.30893 0.0
loop_
_geom_bond_atom_site_label_1
_geom_bond_atom_site_label_2
_geom_bond_distance
_geom_bond_site_symmetry_2
_ccdc_geom_bond_type
Tb0 C9 2.764 1_455 S
Tb0 O10 2.325 1_455 S
Tb0 O13 2.303 . S
Tb0 O17 2.322 . S
Tb0 O18 2.349 . S
Tb0 O21 2.415 1_455 S
Tb0 O22 2.399 1_455 S
Tb1 O11 2.322 . S
Tb1 O12 2.349 . S
Tb1 O14 2.415 . S
Tb1 O15 2.399 . S
Tb1 O16 2.325 . S
Tb1 O19 2.303 . S
Tb1 C30 2.764 . S
C2 O18 1.261 . S
C2 O19 1.257 . S
C3 C6 1.358 . S
C3 C7 1.332 . S
C3 C9 1.504 . S
C4 C5 1.373 . S
C4 C8 1.308 . S
C5 C4 1.373 . S
C5 C6 1.429 . S
C5 H32 0.932 . S
C6 C3 1.358 . S
C6 C5 1.429 . S
C6 H33 0.930 . S
C7 C3 1.332 . S
C7 C8 1.394 . S
C7 H34 0.932 . S
C8 C4 1.308 . S
C8 C7 1.394 . S
C8 H35 0.929 . S
C9 Tb0 2.764 1_655 S
C9 C3 1.504 . S
C9 O21 1.239 . S
C9 O22 1.263 . S
O10 Tb0 2.325 1_655 S
O10 C20 1.236 . S
O11 Tb1 2.322 . S
O11 C20 1.257 1_455 S
O12 Tb1 2.349 . S
O12 C23 1.261 . S
O13 Tb0 2.303 . S
O13 C23 1.257 . S
O14 Tb1 2.415 . S
O14 C30 1.239 . S
O15 Tb1 2.399 . S
O15 C30 1.263 . S
O16 Tb1 2.325 . S
O16 C31 1.236 . S
O17 Tb0 2.322 . S
O17 C31 1.257 . S
O18 Tb0 2.349 . S
O18 C2 1.261 . S
O19 Tb1 2.303 . S
O19 C2 1.257 . S
C20 O10 1.236 . S
C20 O11 1.257 1_655 S
O21 Tb0 2.415 1_655 S
O21 C9 1.239 . S
O22 Tb0 2.399 1_655 S
O22 C9 1.263 . S
C23 O12 1.261 . S
C23 O13 1.257 . S
C24 C27 1.358 . S
C24 C28 1.332 . S
C24 C30 1.504 . S
C25 C26 1.373 . S
C25 C29 1.308 . S
C26 C25 1.373 . S
C26 C27 1.429 . S
C26 H36 0.932 . S
C27 C24 1.358 . S
C27 C26 1.429 . S
C27 H37 0.930 . S
C28 C24 1.332 . S
C28 C29 1.394 . S
C28 H38 0.932 . S
C29 C25 1.308 . S
C29 C28 1.394 . S
C29 H39 0.929 . S
C30 Tb1 2.764 . S
C30 O14 1.239 . S
C30 O15 1.263 . S
C30 C24 1.504 . S
C31 O16 1.236 . S
C31 O17 1.257 . S
H32 C5 0.932 . S
H33 C6 0.930 . S
H34 C7 0.932 . S
H35 C8 0.929 . S
H36 C26 0.932 . S
H37 C27 0.930 . S
H38 C28 0.932 . S
H39 C29 0.929 . S
Tb40 C49 2.764 . S
Tb40 O50 2.325 . S
Tb40 O53 2.303 1_565 S
Tb40 O57 2.322 1_565 S
Tb40 O58 2.349 1_565 S
Tb40 O61 2.415 . S
Tb40 O62 2.399 . S
Tb41 O51 2.322 1_545 S
Tb41 O52 2.349 . S
Tb41 O54 2.415 . S
Tb41 O55 2.399 . S
Tb41 O56 2.325 . S
Tb41 O59 2.303 . S
Tb41 C70 2.764 . S
C42 O58 1.261 . S
C42 O59 1.257 . S
C43 C46 1.358 . S
C43 C47 1.332 . S
C43 C49 1.504 . S
C44 C45 1.373 . S
C44 C48 1.308 . S
C45 C44 1.373 . S
C45 C46 1.429 . S
C45 H72 0.932 . S
C46 C43 1.358 . S
C46 C45 1.429 . S
C46 H73 0.930 . S
C47 C43 1.332 . S
C47 C48 1.394 . S
C47 H74 0.932 . S
C48 C44 1.308 . S
C48 C47 1.394 . S
C48 H75 0.929 . S
C49 Tb40 2.764 . S
C49 C43 1.504 . S
C49 O61 1.239 . S
C49 O62 1.263 . S
O50 Tb40 2.325 . S
O50 C60 1.236 . S
O51 Tb41 2.322 1_565 S
O51 C60 1.257 . S
O52 Tb41 2.349 . S
O52 C63 1.261 . S
O53 Tb40 2.303 1_545 S
O53 C63 1.257 . S
O54 Tb41 2.415 . S
O54 C70 1.239 . S
O55 Tb41 2.399 . S
O55 C70 1.263 . S
O56 Tb41 2.325 . S
O56 C71 1.236 . S
O57 Tb40 2.322 1_545 S
O57 C71 1.257 . S
O58 Tb40 2.349 1_545 S
O58 C42 1.261 . S
O59 Tb41 2.303 . S
O59 C42 1.257 . S
C60 O50 1.236 . S
C60 O51 1.257 . S
O61 Tb40 2.415 . S
O61 C49 1.239 . S
O62 Tb40 2.399 . S
O62 C49 1.263 . S
C63 O52 1.261 . S
C63 O53 1.257 . S
C64 C67 1.358 . S
C64 C68 1.332 . S
C64 C70 1.504 . S
C65 C66 1.373 . S
C65 C69 1.308 . S
C66 C65 1.373 . S
C66 C67 1.429 . S
C66 H76 0.932 . S
C67 C64 1.358 . S
C67 C66 1.429 . S
C67 H77 0.930 . S
C68 C64 1.332 . S
C68 C69 1.394 . S
C68 H78 0.932 . S
C69 C65 1.308 . S
C69 C68 1.394 . S
C69 H79 0.929 . S
C70 Tb41 2.764 . S
C70 O54 1.239 . S
C70 O55 1.263 . S
C70 C64 1.504 . S
C71 O56 1.236 . S
C71 O57 1.257 . S
H72 C45 0.932 . S
H73 C46 0.930 . S
H74 C47 0.932 . S
H75 C48 0.929 . S
H76 C66 0.932 . S
H77 C67 0.930 . S
H78 C68 0.932 . S
H79 C69 0.929 . S
Tb80 C89 2.764 . S
Tb80 O90 2.325 . S
Tb80 O93 2.303 . S
Tb80 O97 2.322 . S
Tb80 O98 2.349 . S
Tb80 O101 2.415 . S
Tb80 O102 2.399 . S
Tb81 O91 2.322 . S
Tb81 O92 2.349 . S
Tb81 O94 2.415 . S
Tb81 O95 2.399 . S
Tb81 O96 2.325 . S
Tb81 O99 2.303 . S
Tb81 C110 2.764 . S
C82 O98 1.261 . S
C82 O99 1.257 . S
C83 C86 1.358 . S
C83 C87 1.332 . S
C83 C89 1.504 . S
C84 C85 1.373 . S
C84 C88 1.308 . S
C85 C84 1.373 . S
C85 C86 1.429 . S
C85 H112 0.932 . S
C86 C83 1.358 . S
C86 C85 1.429 . S
C86 H113 0.930 . S
C87 C83 1.332 . S
C87 C88 1.394 . S
C87 H114 0.932 . S
C88 C84 1.308 . S
C88 C87 1.394 . S
C88 H115 0.929 . S
C89 Tb80 2.764 . S
C89 C83 1.504 . S
C89 O101 1.239 . S
C89 O102 1.263 . S
O90 Tb80 2.325 . S
O90 C100 1.236 . S
O91 Tb81 2.322 . S
O91 C100 1.257 . S
O92 Tb81 2.349 . S
O92 C103 1.261 . S
O93 Tb80 2.303 . S
O93 C103 1.257 . S
O94 Tb81 2.415 . S
O94 C110 1.239 . S
O95 Tb81 2.399 . S
O95 C110 1.263 . S
O96 Tb81 2.325 . S
O96 C111 1.236 . S
O97 Tb80 2.322 . S
O97 C111 1.257 . S
O98 Tb80 2.349 . S
O98 C82 1.261 . S
O99 Tb81 2.303 . S
O99 C82 1.257 . S
C100 O90 1.236 . S
C100 O91 1.257 . S
O101 Tb80 2.415 . S
O101 C89 1.239 . S
O102 Tb80 2.399 . S
O102 C89 1.263 . S
C103 O92 1.261 . S
C103 O93 1.257 . S
C104 C107 1.358 . S
C104 C108 1.332 . S
C104 C110 1.504 . S
C105 C106 1.373 . S
C105 C109 1.308 . S
C106 C105 1.373 . S
C106 C107 1.429 . S
C106 H116 0.932 . S
C107 C104 1.358 . S
C107 C106 1.429 . S
C107 H117 0.930 . S
C108 C104 1.332 . S
C108 C109 1.394 . S
C108 H118 0.932 . S
C109 C105 1.308 . S
C109 C108 1.394 . S
C109 H119 0.929 . S
C110 Tb81 2.764 . S
C110 O94 1.239 . S
C110 O95 1.263 . S
C110 C104 1.504 . S
C111 O96 1.236 . S
C111 O97 1.257 . S
H112 C85 0.932 . S
H113 C86 0.930 . S
H114 C87 0.932 . S
H115 C88 0.929 . S
H116 C106 0.932 . S
H117 C107 0.930 . S
H118 C108 0.932 . S
H119 C109 0.929 . S
C120 C121 1.384 . S
C120 H133 0.947 . S
C120 C155 1.382 . S
C121 C120 1.384 . S
C121 C122 1.378 . S
C122 C121 1.378 . S
C122 C123 1.378 . S
C122 H134 0.952 . S
C123 C122 1.378 . S
C123 H135 0.950 . S
C123 C154 1.383 . S
H124 C143 0.947 . S
H125 C144 0.946 . S
H126 C146 0.953 . S
H127 C147 0.945 . S
H128 C149 0.952 . S
H129 C150 0.949 . S
H130 C152 0.950 1_565 S
H131 C153 0.948 . S
H132 C155 0.951 . S
H133 C120 0.947 . S
H134 C122 0.952 . S
H135 C123 0.950 . S
N136 C139 1.382 . S
N136 C141 1.363 1_545 S
N137 C139 1.371 . S
N137 C140 1.372 . S
N138 C140 1.361 1_565 S
N138 C141 1.377 . S
C139 N136 1.382 . S
C139 N137 1.371 . S
C139 C142 1.480 . S
C140 N137 1.372 . S
C140 N138 1.361 1_545 S
C140 C148 1.457 . S
C141 N136 1.363 1_565 S
C141 N138 1.377 . S
C141 C154 1.479 . S
C142 C139 1.480 . S
C142 C143 1.383 . S
C142 C147 1.385 . S
C143 H124 0.947 . S
C143 C142 1.383 . S
C143 C144 1.388 . S
C144 H125 0.946 . S
C144 C143 1.388 . S
C144 C145 1.384 . S
C145 C144 1.384 . S
C145 C146 1.377 . S
C146 H126 0.953 . S
C146 C145 1.377 . S
C146 C147 1.369 . S
C147 H127 0.945 . S
C147 C142 1.385 . S
C147 C146 1.369 . S
C148 C140 1.457 . S
C148 C149 1.372 . S
C148 C153 1.364 1_545 S
C149 H128 0.952 . S
C149 C148 1.372 . S
C149 C150 1.389 . S
C150 H129 0.949 . S
C150 C149 1.389 . S
C150 C151 1.387 . S
C151 C150 1.387 . S
C151 C152 1.372 . S
C152 H130 0.950 1_545 S
C152 C151 1.372 . S
C152 C153 1.379 1_545 S
C153 H131 0.948 . S
C153 C148 1.364 1_565 S
C153 C152 1.379 1_565 S
C154 C123 1.383 . S
C154 C141 1.479 . S
C154 C155 1.398 . S
C155 C120 1.382 . S
C155 H132 0.951 . S
C155 C154 1.398 . S
C156 C157 1.384 . S
C156 H169 0.947 . S
C156 C191 1.382 . S
C157 C156 1.384 . S
C157 C158 1.378 . S
C158 C157 1.378 . S
C158 C159 1.378 . S
C158 H170 0.952 . S
C159 C158 1.378 . S
C159 H171 0.950 . S
C159 C190 1.383 . S
H160 C179 0.947 . S
H161 C180 0.946 . S
H162 C182 0.953 . S
H163 C183 0.945 . S
H164 C185 0.952 . S
H165 C186 0.949 . S
H166 C188 0.950 . S
H167 C189 0.948 . S
H168 C191 0.951 . S
H169 C156 0.947 . S
H170 C158 0.952 . S
H171 C159 0.950 . S
N172 C175 1.382 . S
N172 C177 1.363 . S
N173 C175 1.371 . S
N173 C176 1.372 . S
N174 C176 1.361 . S
N174 C177 1.377 . S
C175 N172 1.382 . S
C175 N173 1.371 . S
C175 C178 1.480 . S
C176 N173 1.372 . S
C176 N174 1.361 . S
C176 C184 1.457 . S
C177 N172 1.363 . S
C177 N174 1.377 . S
C177 C190 1.479 . S
C178 C175 1.480 . S
C178 C179 1.383 . S
C178 C183 1.385 . S
C179 H160 0.947 . S
C179 C178 1.383 . S
C179 C180 1.388 . S
C180 H161 0.946 . S
C180 C179 1.388 . S
C180 C181 1.384 . S
C181 C180 1.384 . S
C181 C182 1.377 . S
C182 H162 0.953 . S
C182 C181 1.377 . S
C182 C183 1.369 . S
C183 H163 0.945 . S
C183 C178 1.385 . S
C183 C182 1.369 . S
C184 C176 1.457 . S
C184 C185 1.372 . S
C184 C189 1.364 . S
C185 H164 0.952 . S
C185 C184 1.372 . S
C185 C186 1.389 . S
C186 H165 0.949 . S
C186 C185 1.389 . S
C186 C187 1.387 . S
C187 C186 1.387 . S
C187 C188 1.372 . S
C188 H166 0.950 . S
C188 C187 1.372 . S
C188 C189 1.379 . S
C189 H167 0.948 . S
C189 C184 1.364 . S
C189 C188 1.379 . S
C190 C159 1.383 . S
C190 C177 1.479 . S
C190 C191 1.398 . S
C191 C156 1.382 . S
C191 H168 0.951 . S
C191 C190 1.398 . S
C192 C193 1.384 . S
C192 H205 0.947 . S
C192 C227 1.382 . S
C193 C192 1.384 . S
C193 C194 1.378 . S
C194 C193 1.378 . S
C194 C195 1.378 . S
C194 H206 0.952 . S
C195 C194 1.378 . S
C195 H207 0.950 1_655 S
C195 C226 1.383 1_655 S
H196 C215 0.947 . S
H197 C216 0.946 . S
H198 C218 0.953 . S
H199 C219 0.945 . S
H200 C221 0.952 . S
H201 C222 0.949 . S
H202 C224 0.950 . S
H203 C225 0.948 . S
H204 C227 0.951 . S
H205 C192 0.947 . S
H206 C194 0.952 . S
H207 C195 0.950 1_455 S
N208 C211 1.382 . S
N208 C213 1.363 . S
N209 C211 1.371 . S
N209 C212 1.372 . S
N210 C212 1.361 . S
N210 C213 1.377 . S
C211 N208 1.382 . S
C211 N209 1.371 . S
C211 C214 1.480 . S
C212 N209 1.372 . S
C212 N210 1.361 . S
C212 C220 1.457 . S
C213 N208 1.363 . S
C213 N210 1.377 . S
C213 C226 1.502 . S
C214 C211 1.480 . S
C214 C215 1.383 . S
C214 C219 1.385 . S
C215 H196 0.947 . S
C215 C214 1.383 . S
C215 C216 1.388 . S
C216 H197 0.946 . S
C216 C215 1.388 . S
C216 C217 1.384 . S
C217 C216 1.384 . S
C217 C218 1.377 . S
C218 H198 0.953 . S
C218 C217 1.377 . S
C218 C219 1.369 . S
C219 H199 0.945 . S
C219 C214 1.385 . S
C219 C218 1.369 . S
C220 C212 1.457 . S
C220 C221 1.372 . S
C220 C225 1.364 . S
C221 H200 0.952 . S
C221 C220 1.372 . S
C221 C222 1.389 . S
C222 H201 0.949 . S
C222 C221 1.389 . S
C222 C223 1.387 . S
C223 C222 1.387 . S
C223 C224 1.372 . S
C224 H202 0.950 . S
C224 C223 1.372 . S
C224 C225 1.379 . S
C225 H203 0.948 . S
C225 C220 1.364 . S
C225 C224 1.379 . S
C226 C195 1.383 1_455 S
C226 C213 1.502 . S
C226 C227 1.374 1_455 S
C227 C192 1.382 . S
C227 H204 0.951 . S
C227 C226 1.374 1_655 S
C228 C229 1.384 . S
C228 H241 0.947 . S
C228 C263 1.382 . S
C229 C228 1.384 . S
C229 C230 1.378 . S
C230 C229 1.378 . S
C230 C231 1.378 . S
C230 H242 0.952 . S
C231 C230 1.378 . S
C231 H243 0.950 . S
C231 C262 1.383 . S
H232 C251 0.947 . S
H233 C252 0.946 . S
H234 C254 0.953 . S
H235 C255 0.945 . S
H236 C257 0.952 . S
H237 C258 0.949 . S
H238 C260 0.950 . S
H239 C261 0.948 . S
H240 C263 0.951 . S
H241 C228 0.947 . S
H242 C230 0.952 . S
H243 C231 0.950 . S
N244 C247 1.382 1_455 S
N244 C249 1.363 . S
N245 C247 1.371 . S
N245 C248 1.372 1_655 S
N246 C248 1.361 . S
N246 C249 1.377 . S
C247 N244 1.382 1_655 S
C247 N245 1.371 . S
C247 C250 1.480 . S
C248 N245 1.372 1_455 S
C248 N246 1.361 . S
C248 C256 1.457 . S
C249 N244 1.363 . S
C249 N246 1.377 . S
C249 C262 1.479 . S
C250 C247 1.480 . S
C250 C251 1.383 . S
C250 C255 1.385 . S
C251 H232 0.947 . S
C251 C250 1.383 . S
C251 C252 1.388 . S
C252 H233 0.946 . S
C252 C251 1.388 . S
C252 C253 1.384 . S
C253 C252 1.384 . S
C253 C254 1.377 . S
C254 H234 0.953 . S
C254 C253 1.377 . S
C254 C255 1.369 . S
C255 H235 0.945 . S
C255 C250 1.385 . S
C255 C254 1.369 . S
C256 C248 1.457 . S
C256 C257 1.372 1_455 S
C256 C261 1.364 . S
C257 H236 0.952 . S
C257 C256 1.372 1_655 S
C257 C258 1.389 . S
C258 H237 0.949 . S
C258 C257 1.389 . S
C258 C259 1.379 1_655 S
C259 C258 1.379 1_455 S
C259 C260 1.380 . S
C260 H238 0.950 . S
C260 C259 1.380 . S
C260 C261 1.379 . S
C261 H239 0.948 . S
C261 C256 1.364 . S
C261 C260 1.379 . S
C262 C231 1.383 . S
C262 C249 1.479 . S
C262 C263 1.398 . S
C263 C228 1.382 . S
C263 H240 0.951 . S
C263 C262 1.398 . S
C264 C265 1.384 . S
C264 H277 0.947 . S
C264 C299 1.382 . S
C265 C264 1.384 . S
C265 C266 1.378 . S
C266 C265 1.378 . S
C266 C267 1.378 . S
C266 H278 0.952 . S
C267 C266 1.378 . S
C267 H279 0.950 . S
C267 C298 1.383 . S
H268 C287 0.947 . S
H269 C288 0.946 . S
H270 C290 0.953 . S
H271 C291 0.945 . S
H272 C293 0.952 . S
H273 C294 0.949 . S
H274 C296 0.950 . S
H275 C297 0.948 . S
H276 C299 0.951 . S
H277 C264 0.947 . S
H278 C266 0.952 . S
H279 C267 0.950 . S
N280 C283 1.382 1_545 S
N280 C285 1.363 . S
N281 C283 1.371 . S
N281 C284 1.372 1_565 S
N282 C284 1.361 . S
N282 C285 1.377 . S
C283 N280 1.382 1_565 S
C283 N281 1.371 . S
C283 C286 1.480 . S
C284 N281 1.372 1_545 S
C284 N282 1.361 . S
C284 C292 1.457 . S
C285 N280 1.363 . S
C285 N282 1.377 . S
C285 C298 1.479 . S
C286 C283 1.480 . S
C286 C287 1.383 . S
C286 C291 1.385 . S
C287 H268 0.947 . S
C287 C286 1.383 . S
C287 C288 1.388 . S
C288 H269 0.946 . S
C288 C287 1.388 . S
C288 C289 1.384 . S
C289 C288 1.384 . S
C289 C290 1.377 . S
C290 H270 0.953 . S
C290 C289 1.377 . S
C290 C291 1.369 . S
C291 H271 0.945 . S
C291 C286 1.385 . S
C291 C290 1.369 . S
C292 C284 1.457 . S
C292 C293 1.372 1_545 S
C292 C297 1.364 . S
C293 H272 0.952 . S
C293 C292 1.372 1_565 S
C293 C294 1.389 . S
C294 H273 0.949 . S
C294 C293 1.389 . S
C294 C295 1.387 . S
C295 C294 1.387 . S
C295 C296 1.372 1_565 S
C296 H274 0.950 . S
C296 C295 1.372 1_545 S
C296 C297 1.379 . S
C297 H275 0.948 . S
C297 C292 1.364 . S
C297 C296 1.379 . S
C298 C267 1.383 . S
C298 C285 1.479 . S
C298 C299 1.398 . S
C299 C264 1.382 . S
C299 H276 0.951 . S
C299 C298 1.398 . S
C300 C301 1.384 . S
C300 H313 0.947 . S
C300 C335 1.382 . S
C301 C300 1.384 . S
C301 C302 1.378 . S
C302 C301 1.378 . S
C302 C303 1.378 . S
C302 H314 0.952 . S
C303 C302 1.378 . S
C303 H315 0.950 . S
C303 C334 1.383 . S
H304 C323 0.947 . S
H305 C324 0.946 . S
H306 C326 0.953 . S
H307 C327 0.945 . S
H308 C329 0.952 . S
H309 C330 0.949 . S
H310 C332 0.950 . S
H311 C333 0.948 . S
H312 C335 0.951 . S
H313 C300 0.947 . S
H314 C302 0.952 . S
H315 C303 0.950 . S
N316 C319 1.382 . S
N316 C321 1.363 . S
N317 C319 1.371 . S
N317 C320 1.372 . S
N318 C320 1.361 . S
N318 C321 1.377 . S
C319 N316 1.382 . S
C319 N317 1.371 . S
C319 C322 1.480 . S
C320 N317 1.372 . S
C320 N318 1.361 . S
C320 C328 1.457 . S
C321 N316 1.363 . S
C321 N318 1.377 . S
C321 C334 1.479 . S
C322 C319 1.480 . S
C322 C323 1.383 . S
C322 C327 1.385 . S
C323 H304 0.947 . S
C323 C322 1.383 . S
C323 C324 1.388 . S
C324 H305 0.946 . S
C324 C323 1.388 . S
C324 C325 1.384 . S
C325 C324 1.384 . S
C325 C326 1.377 . S
C326 H306 0.953 . S
C326 C325 1.377 . S
C326 C327 1.369 . S
C327 H307 0.945 . S
C327 C322 1.385 . S
C327 C326 1.369 . S
C328 C320 1.457 . S
C328 C329 1.372 . S
C328 C333 1.364 . S
C329 H308 0.952 . S
C329 C328 1.372 . S
C329 C330 1.389 . S
C330 H309 0.949 . S
C330 C329 1.389 . S
C330 C331 1.387 . S
C331 C330 1.387 . S
C331 C332 1.372 . S
C332 H310 0.950 . S
C332 C331 1.372 . S
C332 C333 1.379 . S
C333 H311 0.948 . S
C333 C328 1.364 . S
C333 C332 1.379 . S
C334 C303 1.383 . S
C334 C321 1.479 . S
C334 C335 1.398 . S
C335 C300 1.382 . S
C335 H312 0.951 . S
C335 C334 1.398 . S
H336 C344 0.950 . S
H337 C349 0.950 . S
H338 C346 0.950 . S
H339 C348 0.950 . S
H340 C350 0.950 . S
H341 C352 0.950 . S
H342 C354 0.950 . S
H343 C355 0.950 . S
C344 H336 0.950 . S
C344 C345 1.386 . S
C344 C346 1.391 . S
C345 C344 1.386 . S
C345 C349 1.393 . S
C346 H338 0.950 . S
C346 C344 1.391 . S
C346 C347 1.400 . S
C347 C346 1.400 . S
C347 C348 1.398 . S
C347 C353 1.491 . S
C348 H339 0.950 . S
C348 C347 1.398 . S
C348 C349 1.391 . S
C349 H337 0.950 . S
C349 C345 1.393 . S
C349 C348 1.391 . S
C350 H340 0.950 . S
C350 C351 1.386 . S
C350 C352 1.391 . S
C351 C350 1.386 . S
C351 C355 1.393 . S
C352 H341 0.950 . S
C352 C350 1.391 . S
C352 C353 1.400 . S
C353 C347 1.491 . S
C353 C352 1.400 . S
C353 C354 1.398 . S
C354 H342 0.950 . S
C354 C353 1.398 . S
C354 C355 1.391 . S
C355 H343 0.950 . S
C355 C351 1.393 . S
C355 C354 1.391 . S
H356 C364 0.950 . S
H357 C369 0.950 . S
H358 C366 0.950 . S
H359 C368 0.950 . S
H360 C370 0.950 . S
H361 C372 0.950 . S
H362 C374 0.950 . S
H363 C375 0.950 . S
C364 H356 0.950 . S
C364 C365 1.386 . S
C364 C366 1.391 . S
C365 C364 1.386 . S
C365 C369 1.393 . S
C366 H358 0.950 . S
C366 C364 1.391 . S
C366 C367 1.400 . S
C367 C366 1.400 . S
C367 C368 1.398 . S
C367 C373 1.491 . S
C368 H359 0.950 . S
C368 C367 1.398 . S
C368 C369 1.391 . S
C369 H357 0.950 . S
C369 C365 1.393 . S
C369 C368 1.391 . S
C370 H360 0.950 . S
C370 C371 1.386 . S
C370 C372 1.391 . S
C371 C370 1.386 . S
C371 C375 1.393 . S
C372 H361 0.950 . S
C372 C370 1.391 . S
C372 C373 1.400 . S
C373 C367 1.491 . S
C373 C372 1.400 . S
C373 C374 1.398 . S
C374 H362 0.950 . S
C374 C373 1.398 . S
C374 C375 1.391 . S
C375 H363 0.950 . S
C375 C371 1.393 . S
C375 C374 1.391 . S
H376 C384 0.950 . S
H377 C389 0.950 . S
H378 C386 0.950 . S
H379 C388 0.950 . S
H380 C390 0.950 . S
H381 C392 0.950 . S
H382 C394 0.950 . S
H383 C395 0.950 . S
C384 H376 0.950 . S
C384 C385 1.386 . S
C384 C386 1.391 . S
C385 C384 1.386 . S
C385 C389 1.393 . S
C386 H378 0.950 . S
C386 C384 1.391 . S
C386 C387 1.400 . S
C387 C386 1.400 . S
C387 C388 1.398 . S
C387 C393 1.491 . S
C388 H379 0.950 . S
C388 C387 1.398 . S
C388 C389 1.391 . S
C389 H377 0.950 . S
C389 C385 1.393 . S
C389 C388 1.391 . S
C390 H380 0.950 . S
C390 C391 1.386 . S
C390 C392 1.391 . S
C391 C390 1.386 . S
C391 C395 1.393 . S
C392 H381 0.950 . S
C392 C390 1.391 . S
C392 C393 1.400 . S
C393 C387 1.491 . S
C393 C392 1.400 . S
C393 C394 1.398 . S
C394 H382 0.950 . S
C394 C393 1.398 . S
C394 C395 1.391 . S
C395 H383 0.950 . S
C395 C391 1.393 . S
C395 C394 1.391 . S
H396 C404 0.950 . S
H397 C409 0.950 . S
H398 C406 0.950 . S
H399 C408 0.950 . S
H400 C410 0.950 . S
H401 C412 0.950 . S
H402 C414 0.950 . S
H403 C415 0.950 . S
C404 H396 0.950 . S
C404 C405 1.386 . S
C404 C406 1.391 . S
C405 C404 1.386 . S
C405 C409 1.393 . S
C406 H398 0.950 . S
C406 C404 1.391 . S
C406 C407 1.400 . S
C407 C406 1.400 . S
C407 C408 1.398 . S
C407 C413 1.491 . S
C408 H399 0.950 . S
C408 C407 1.398 . S
C408 C409 1.391 . S
C409 H397 0.950 . S
C409 C405 1.393 . S
C409 C408 1.391 . S
C410 H400 0.950 . S
C410 C411 1.386 . S
C410 C412 1.391 . S
C411 C410 1.386 . S
C411 C415 1.393 . S
C412 H401 0.950 . S
C412 C410 1.391 . S
C412 C413 1.400 . S
C413 C407 1.491 . S
C413 C412 1.400 . S
C413 C414 1.398 . S
C414 H402 0.950 . S
C414 C413 1.398 . S
C414 C415 1.391 . S
C415 H403 0.950 . S
C415 C411 1.393 . S
C415 C414 1.391 . S
H416 C424 0.950 . S
H417 C429 0.950 . S
H418 C426 0.950 . S
H419 C428 0.950 . S
H420 C430 0.950 . S
H421 C432 0.950 . S
H422 C434 0.950 . S
H423 C435 0.950 . S
C424 H416 0.950 . S
C424 C425 1.386 . S
C424 C426 1.391 . S
C425 C424 1.386 . S
C425 C429 1.393 . S
C426 H418 0.950 . S
C426 C424 1.391 . S
C426 C427 1.400 . S
C427 C426 1.400 . S
C427 C428 1.398 . S
C427 C433 1.491 . S
C428 H419 0.950 . S
C428 C427 1.398 . S
C428 C429 1.391 . S
C429 H417 0.950 . S
C429 C425 1.393 . S
C429 C428 1.391 . S
C430 H420 0.950 . S
C430 C431 1.386 . S
C430 C432 1.391 . S
C431 C430 1.386 . S
C431 C435 1.393 . S
C432 H421 0.950 . S
C432 C430 1.391 . S
C432 C433 1.400 . S
C433 C427 1.491 . S
C433 C432 1.400 . S
C433 C434 1.398 . S
C434 H422 0.950 . S
C434 C433 1.398 . S
C434 C435 1.391 . S
C435 H423 0.950 . S
C435 C431 1.393 . S
C435 C434 1.391 . S
H436 C444 0.950 . S
H437 C449 0.950 . S
H438 C446 0.950 . S
H439 C448 0.950 . S
H440 C450 0.950 . S
H441 C452 0.950 . S
H442 C454 0.950 . S
H443 C455 0.950 . S
C444 H436 0.950 . S
C444 C445 1.386 . S
C444 C446 1.391 . S
C445 C444 1.386 . S
C445 C449 1.393 . S
C446 H438 0.950 . S
C446 C444 1.391 . S
C446 C447 1.400 . S
C447 C446 1.400 . S
C447 C448 1.398 . S
C447 C453 1.491 . S
C448 H439 0.950 . S
C448 C447 1.398 . S
C448 C449 1.391 . S
C449 H437 0.950 . S
C449 C445 1.393 . S
C449 C448 1.391 . S
C450 H440 0.950 . S
C450 C451 1.386 . S
C450 C452 1.391 . S
C451 C450 1.386 . S
C451 C455 1.393 . S
C452 H441 0.950 . S
C452 C450 1.391 . S
C452 C453 1.400 . S
C453 C447 1.491 . S
C453 C452 1.400 . S
C453 C454 1.398 . S
C454 H442 0.950 . S
C454 C453 1.398 . S
C454 C455 1.391 . S
C455 H443 0.950 . S
C455 C451 1.393 . S
C455 C454 1.391 . S
H456 C464 0.950 . S
H457 C469 0.950 . S
H458 C466 0.950 . S
H459 C468 0.950 . S
H460 C470 0.950 . S
H461 C472 0.950 . S
H462 C474 0.950 . S
H463 C475 0.950 . S
C464 H456 0.950 . S
C464 C465 1.386 . S
C464 C466 1.391 . S
C465 C464 1.386 . S
C465 C469 1.393 . S
C466 H458 0.950 . S
C466 C464 1.391 . S
C466 C467 1.400 . S
C467 C466 1.400 . S
C467 C468 1.398 . S
C467 C473 1.491 . S
C468 H459 0.950 . S
C468 C467 1.398 . S
C468 C469 1.391 . S
C469 H457 0.950 . S
C469 C465 1.393 . S
C469 C468 1.391 . S
C470 H460 0.950 . S
C470 C471 1.386 . S
C470 C472 1.391 . S
C471 C470 1.386 . S
C471 C475 1.393 . S
C472 H461 0.950 . S
C472 C470 1.391 . S
C472 C473 1.400 . S
C473 C467 1.491 . S
C473 C472 1.400 . S
C473 C474 1.398 . S
C474 H462 0.950 . S
C474 C473 1.398 . S
C474 C475 1.391 . S
C475 H463 0.950 . S
C475 C471 1.393 . S
C475 C474 1.391 . S
H476 C484 0.950 . S
H477 C489 0.950 . S
H478 C486 0.950 . S
H479 C488 0.950 . S
H480 C490 0.950 . S
H481 C492 0.950 . S
H482 C494 0.950 . S
H483 C495 0.950 . S
C484 H476 0.950 . S
C484 C485 1.386 . S
C484 C486 1.391 . S
C485 C484 1.386 . S
C485 C489 1.393 . S
C486 H478 0.950 . S
C486 C484 1.391 . S
C486 C487 1.400 . S
C487 C486 1.400 . S
C487 C488 1.398 . S
C487 C493 1.491 . S
C488 H479 0.950 . S
C488 C487 1.398 . S
C488 C489 1.391 . S
C489 H477 0.950 . S
C489 C485 1.393 . S
C489 C488 1.391 . S
C490 H480 0.950 . S
C490 C491 1.386 . S
C490 C492 1.391 . S
C491 C490 1.386 . S
C491 C495 1.393 . S
C492 H481 0.950 . S
C492 C490 1.391 . S
C492 C493 1.400 . S
C493 C487 1.491 . S
C493 C492 1.400 . S
C493 C494 1.398 . S
C494 H482 0.950 . S
C494 C493 1.398 . S
C494 C495 1.391 . S
C495 H483 0.950 . S
C495 C491 1.393 . S
C495 C494 1.391 . S
H496 C504 0.950 . S
H497 C509 0.950 . S
H498 C506 0.950 . S
H499 C508 0.950 . S
H500 C510 0.950 . S
H501 C512 0.950 . S
H502 C514 0.950 . S
H503 C515 0.950 . S
C504 H496 0.950 . S
C504 C505 1.386 . S
C504 C506 1.391 . S
C505 C504 1.386 . S
C505 C509 1.393 . S
C506 H498 0.950 . S
C506 C504 1.391 . S
C506 C507 1.400 . S
C507 C506 1.400 . S
C507 C508 1.398 . S
C507 C513 1.491 . S
C508 H499 0.950 . S
C508 C507 1.398 . S
C508 C509 1.391 . S
C509 H497 0.950 . S
C509 C505 1.393 . S
C509 C508 1.391 . S
C510 H500 0.950 . S
C510 C511 1.386 . S
C510 C512 1.391 . S
C511 C510 1.386 . S
C511 C515 1.393 . S
C512 H501 0.950 . S
C512 C510 1.391 . S
C512 C513 1.400 . S
C513 C507 1.491 . S
C513 C512 1.400 . S
C513 C514 1.398 . S
C514 H502 0.950 . S
C514 C513 1.398 . S
C514 C515 1.391 . S
C515 H503 0.950 . S
C515 C511 1.393 . S
C515 C514 1.391 . S
H516 C524 0.950 . S
H517 C529 0.950 . S
H518 C526 0.950 . S
H519 C528 0.950 . S
H520 C530 0.950 . S
H521 C532 0.950 . S
H522 C534 0.950 . S
H523 C535 0.950 . S
C524 H516 0.950 . S
C524 C525 1.386 . S
C524 C526 1.391 . S
C525 C524 1.386 . S
C525 C529 1.393 . S
C526 H518 0.950 . S
C526 C524 1.391 . S
C526 C527 1.400 . S
C527 C526 1.400 . S
C527 C528 1.398 . S
C527 C533 1.491 . S
C528 H519 0.950 . S
C528 C527 1.398 . S
C528 C529 1.391 . S
C529 H517 0.950 . S
C529 C525 1.393 . S
C529 C528 1.391 . S
C530 H520 0.950 . S
C530 C531 1.386 . S
C530 C532 1.391 . S
C531 C530 1.386 . S
C531 C535 1.393 . S
C532 H521 0.950 . S
C532 C530 1.391 . S
C532 C533 1.400 . S
C533 C527 1.491 . S
C533 C532 1.400 . S
C533 C534 1.398 . S
C534 H522 0.950 . S
C534 C533 1.398 . S
C534 C535 1.391 . S
C535 H523 0.950 . S
C535 C531 1.393 . S
C535 C534 1.391 . S
H536 C544 0.950 . S
H537 C549 0.950 . S
H538 C546 0.950 . S
H539 C548 0.950 . S
H540 C550 0.950 . S
H541 C552 0.950 . S
H542 C554 0.950 . S
H543 C555 0.950 . S
C544 H536 0.950 . S
C544 C545 1.386 . S
C544 C546 1.391 . S
C545 C544 1.386 . S
C545 C549 1.393 . S
C546 H538 0.950 . S
C546 C544 1.391 . S
C546 C547 1.400 . S
C547 C546 1.400 . S
C547 C548 1.398 . S
C547 C553 1.491 . S
C548 H539 0.950 . S
C548 C547 1.398 . S
C548 C549 1.391 . S
C549 H537 0.950 . S
C549 C545 1.393 . S
C549 C548 1.391 . S
C550 H540 0.950 . S
C550 C551 1.386 . S
C550 C552 1.391 . S
C551 C550 1.386 . S
C551 C555 1.393 . S
C552 H541 0.950 . S
C552 C550 1.391 . S
C552 C553 1.400 . S
C553 C547 1.491 . S
C553 C552 1.400 . S
C553 C554 1.398 . S
C554 H542 0.950 . S
C554 C553 1.398 . S
C554 C555 1.391 . S
C555 H543 0.950 . S
C555 C551 1.393 . S
C555 C554 1.391 . S
H556 C564 0.950 . S
H557 C569 0.950 . S
H558 C566 0.950 . S
H559 C568 0.950 . S
H560 C570 0.950 . S
H561 C572 0.950 . S
H562 C574 0.950 . S
H563 C575 0.950 . S
C564 H556 0.950 . S
C564 C565 1.386 . S
C564 C566 1.391 . S
C565 C564 1.386 . S
C565 C569 1.393 . S
C566 H558 0.950 . S
C566 C564 1.391 . S
C566 C567 1.400 . S
C567 C566 1.400 . S
C567 C568 1.398 . S
C567 C573 1.491 . S
C568 H559 0.950 . S
C568 C567 1.398 . S
C568 C569 1.391 . S
C569 H557 0.950 . S
C569 C565 1.393 . S
C569 C568 1.391 . S
C570 H560 0.950 . S
C570 C571 1.386 . S
C570 C572 1.391 . S
C571 C570 1.386 . S
C571 C575 1.393 . S
C572 H561 0.950 . S
C572 C570 1.391 . S
C572 C573 1.400 . S
C573 C567 1.491 . S
C573 C572 1.400 . S
C573 C574 1.398 . S
C574 H562 0.950 . S
C574 C573 1.398 . S
C574 C575 1.391 . S
C575 H563 0.950 . S
C575 C571 1.393 . S
C575 C574 1.391 . S
H576 C584 0.950 . S
H577 C589 0.950 1_655 S
H578 C586 0.950 . S
H579 C588 0.965 . S
H580 C590 0.950 . S
H581 C592 0.950 . S
H582 C594 0.950 . S
H583 C595 0.950 . S
C584 H576 0.950 . S
C584 C585 1.386 . S
C584 C586 1.391 . S
C585 C584 1.386 . S
C585 C589 1.393 . S
C586 H578 0.950 . S
C586 C584 1.391 . S
C586 C587 1.400 . S
C587 C586 1.400 . S
C587 C588 1.398 . S
C587 C593 1.491 . S
C588 H579 0.965 . S
C588 C587 1.398 . S
C588 C589 1.391 . S
C589 H577 0.950 1_455 S
C589 C585 1.393 . S
C589 C588 1.391 . S
C590 H580 0.950 . S
C590 C591 1.386 . S
C590 C592 1.391 . S
C591 C590 1.386 . S
C591 C595 1.393 . S
C592 H581 0.950 . S
C592 C590 1.391 . S
C592 C593 1.400 . S
C593 C587 1.491 . S
C593 C592 1.400 . S
C593 C594 1.398 . S
C594 H582 0.950 . S
C594 C593 1.398 . S
C594 C595 1.391 . S
C595 H583 0.950 . S
C595 C591 1.393 . S
C595 C594 1.391 . S
H596 C604 0.950 . S
H597 C609 0.950 . S
H598 C606 0.950 . S
H599 C608 0.950 . S
H600 C610 0.950 . S
H601 C612 0.950 . S
H602 C614 0.950 . S
H603 C615 0.950 . S
C604 H596 0.950 . S
C604 C605 1.386 . S
C604 C606 1.391 . S
C605 C604 1.386 . S
C605 C609 1.393 . S
C606 H598 0.950 . S
C606 C604 1.391 . S
C606 C607 1.400 . S
C607 C606 1.400 . S
C607 C608 1.398 . S
C607 C613 1.491 . S
C608 H599 0.950 . S
C608 C607 1.398 . S
C608 C609 1.391 . S
C609 H597 0.950 . S
C609 C605 1.393 . S
C609 C608 1.391 . S
C610 H600 0.950 . S
C610 C611 1.386 . S
C610 C612 1.391 . S
C611 C610 1.386 . S
C611 C615 1.393 . S
C612 H601 0.950 . S
C612 C610 1.391 . S
C612 C613 1.400 . S
C613 C607 1.491 . S
C613 C612 1.400 . S
C613 C614 1.398 . S
C614 H602 0.950 . S
C614 C613 1.398 . S
C614 C615 1.391 . S
C615 H603 0.950 . S
C615 C611 1.393 . S
C615 C614 1.391 . S
H616 C624 0.950 . S
H617 C629 0.950 . S
H618 C626 0.950 . S
H619 C628 0.950 . S
H620 C630 0.950 . S
H621 C632 0.950 . S
H622 C634 0.950 . S
H623 C635 0.950 . S
C624 H616 0.950 . S
C624 C625 1.386 . S
C624 C626 1.391 . S
C625 C624 1.386 . S
C625 C629 1.393 . S
C626 H618 0.950 . S
C626 C624 1.391 . S
C626 C627 1.400 . S
C627 C626 1.400 . S
C627 C628 1.398 . S
C627 C633 1.491 . S
C628 H619 0.950 . S
C628 C627 1.398 . S
C628 C629 1.391 . S
C629 H617 0.950 . S
C629 C625 1.393 . S
C629 C628 1.391 . S
C630 H620 0.950 . S
C630 C631 1.386 . S
C630 C632 1.391 . S
C631 C630 1.386 . S
C631 C635 1.393 . S
C632 H621 0.950 . S
C632 C630 1.391 . S
C632 C633 1.400 . S
C633 C627 1.491 . S
C633 C632 1.400 . S
C633 C634 1.398 . S
C634 H622 0.950 . S
C634 C633 1.398 . S
C634 C635 1.391 . S
C635 H623 0.950 . S
C635 C631 1.393 . S
C635 C634 1.391 . S
H636 C644 0.950 . S
H637 C649 0.950 . S
H638 C646 0.950 . S
H639 C648 0.950 . S
H640 C650 0.950 . S
H641 C652 0.950 . S
H642 C654 0.950 . S
H643 C655 0.950 . S
C644 H636 0.950 . S
C644 C645 1.386 1_565 S
C644 C646 1.391 . S
C645 C644 1.386 1_545 S
C645 C649 1.393 . S
C646 H638 0.950 . S
C646 C644 1.391 . S
C646 C647 1.400 1_565 S
C647 C646 1.400 1_545 S
C647 C648 1.398 . S
C647 C653 1.491 . S
C648 H639 0.950 . S
C648 C647 1.398 . S
C648 C649 1.391 . S
C649 H637 0.950 . S
C649 C645 1.393 . S
C649 C648 1.391 . S
C650 H640 0.950 . S
C650 C651 1.386 1_545 S
C650 C652 1.391 . S
C651 C650 1.386 1_565 S
C651 C655 1.393 . S
C652 H641 0.950 . S
C652 C650 1.391 . S
C652 C653 1.400 . S
C653 C647 1.491 . S
C653 C652 1.400 . S
C653 C654 1.398 1_545 S
C654 H642 0.950 . S
C654 C653 1.398 1_565 S
C654 C655 1.391 . S
C655 H643 0.950 . S
C655 C651 1.393 . S
C655 C654 1.391 . S
H656 C664 0.950 . S
H657 C669 0.950 . S
H658 C666 0.950 . S
H659 C668 0.950 . S
H660 C670 0.950 . S
H661 C672 0.950 . S
H662 C674 0.950 . S
H663 C675 0.950 . S
C664 H656 0.950 . S
C664 C665 1.386 . S
C664 C666 1.391 . S
C665 C664 1.386 . S
C665 C669 1.393 . S
C666 H658 0.950 . S
C666 C664 1.391 . S
C666 C667 1.400 . S
C667 C666 1.400 . S
C667 C668 1.398 . S
C667 C673 1.491 . S
C668 H659 0.950 . S
C668 C667 1.398 . S
C668 C669 1.391 . S
C669 H657 0.950 . S
C669 C665 1.393 . S
C669 C668 1.391 . S
C670 H660 0.950 . S
C670 C671 1.386 . S
C670 C672 1.391 . S
C671 C670 1.386 . S
C671 C675 1.393 . S
C672 H661 0.950 . S
C672 C670 1.391 . S
C672 C673 1.400 . S
C673 C667 1.491 . S
C673 C672 1.400 . S
C673 C674 1.398 . S
C674 H662 0.950 . S
C674 C673 1.398 . S
C674 C675 1.391 . S
C675 H663 0.950 . S
C675 C671 1.393 . S
C675 C674 1.391 . S
H676 C684 0.950 . S
H677 C689 0.950 . S
H678 C686 0.950 . S
H679 C688 0.950 1_655 S
H680 C690 0.950 . S
H681 C692 0.950 . S
H682 C694 0.950 . S
H683 C695 0.950 . S
C684 H676 0.950 . S
C684 C685 1.386 . S
C684 C686 1.391 . S
C685 C684 1.386 . S
C685 C689 1.393 . S
C686 H678 0.950 . S
C686 C684 1.391 . S
C686 C687 1.400 . S
C687 C686 1.400 . S
C687 C688 1.398 . S
C687 C693 1.491 . S
C688 H679 0.950 1_455 S
C688 C687 1.398 . S
C688 C689 1.391 . S
C689 H677 0.950 . S
C689 C685 1.393 . S
C689 C688 1.391 . S
C690 H680 0.950 . S
C690 C691 1.388 1_655 S
C690 C692 1.391 . S
C691 C690 1.388 1_455 S
C691 C695 1.393 . S
C692 H681 0.950 . S
C692 C690 1.391 . S
C692 C693 1.400 1_655 S
C693 C687 1.491 . S
C693 C692 1.400 1_455 S
C693 C694 1.398 . S
C694 H682 0.950 . S
C694 C693 1.398 . S
C694 C695 1.391 . S
C695 H683 0.950 . S
C695 C691 1.393 . S
C695 C694 1.391 . S
C345 C25 0.430 . S
C351 C325 0.383 . S
C365 C65 0.370 . S
C371 C253 0.333 . S
C385 C105 0.462 . S
C391 C289 0.355 . S
C405 C4 0.382 . S
C411 C301 0.287 . S
C431 C229 0.337 . S
C425 C44 0.376 . S
C451 C265 0.464 . S
C445 C84 0.420 . S
C465 C60 2.914 . S
C471 C181 2.834 . S
C485 C100 3.097 . S
C491 C193 3.049 . S
C505 C31 3.109 . S
C511 C121 3.054 . S
C531 C157 3.053 . S
C525 C71 3.102 . S
C551 C217 2.862 . S
C545 C111 2.918 . S
C565 C20 2.916 . S
C571 C145 2.839 . S
C591 C223 1.802 1_554 S
C585 C2 1.741 . S
C605 C42 1.763 . S
C611 C151 1.785 . S
C625 C82 1.741 . S
C631 C187 1.797 . S
C651 C295 1.062 . S
C645 C63 1.058 . S
C671 C331 1.109 1_556 S
C665 C103 1.089 . S
C685 C23 1.062 . S
C691 C259 1.044 . S
