# Generated by pormake.
# Topology zzz, (3,6)-cn, num edge types: 1
# Building blocks:
#     Node 0, Type 0, BuildingBlock: CUQRIR_clean_linker_1, # of connection points: 3
#     Node 1, Type 0, BuildingBlock: CUQRIR_clean_linker_1, # of connection points: 3
#     Node 2, Type 0, BuildingBlock: CUQRIR_clean_linker_1, # of connection points: 3
#     Node 3, Type 0, BuildingBlock: CUQRIR_clean_linker_1, # of connection points: 3
#     Node 4, Type 0, BuildingBlock: CUQRIR_clean_linker_1, # of connection points: 3
#     Node 5, Type 0, BuildingBlock: CUQRIR_clean_linker_1, # of connection points: 3
#     Node 6, Type 0, BuildingBlock: CUQRIR_clean_linker_1, # of connection points: 3
#     Node 7, Type 0, BuildingBlock: CUQRIR_clean_linker_1, # of connection points: 3
#     Node 8, Type 1, BuildingBlock: CIFDUS_clean_sbu_1, # of connection points: 6
#     Node 9, Type 1, BuildingBlock: CIFDUS_clean_sbu_1, # of connection points: 6
#     Node 10, Type 1, BuildingBlock: CIFDUS_clean_sbu_1, # of connection points: 6
#     Node 11, Type 1, BuildingBlock: CIFDUS_clean_sbu_1, # of connection points: 6
#     Edge 12, Type (0, 1), BuildingBlock: EZIPEK_clean_linker_0, # of connection points: 2
#     Edge 13, Type (0, 1), BuildingBlock: EZIPEK_clean_linker_0, # of connection points: 2
#     Edge 14, Type (0, 1), BuildingBlock: EZIPEK_clean_linker_0, # of connection points: 2
#     Edge 15, Type (0, 1), BuildingBlock: EZIPEK_clean_linker_0, # of connection points: 2
#     Edge 16, Type (0, 1), BuildingBlock: EZIPEK_clean_linker_0, # of connection points: 2
#     Edge 17, Type (0, 1), BuildingBlock: EZIPEK_clean_linker_0, # of connection points: 2
#     Edge 18, Type (0, 1), BuildingBlock: EZIPEK_clean_linker_0, # of connection points: 2
#     Edge 19, Type (0, 1), BuildingBlock: EZIPEK_clean_linker_0, # of connection points: 2
#     Edge 20, Type (0, 1), BuildingBlock: EZIPEK_clean_linker_0, # of connection points: 2
#     Edge 21, Type (0, 1), BuildingBlock: EZIPEK_clean_linker_0, # of connection points: 2
#     Edge 22, Type (0, 1), BuildingBlock: EZIPEK_clean_linker_0, # of connection points: 2
#     Edge 23, Type (0, 1), BuildingBlock: EZIPEK_clean_linker_0, # of connection points: 2
#     Edge 24, Type (0, 1), BuildingBlock: EZIPEK_clean_linker_0, # of connection points: 2
#     Edge 25, Type (0, 1), BuildingBlock: EZIPEK_clean_linker_0, # of connection points: 2
#     Edge 26, Type (0, 1), BuildingBlock: EZIPEK_clean_linker_0, # of connection points: 2
#     Edge 27, Type (0, 1), BuildingBlock: EZIPEK_clean_linker_0, # of connection points: 2
#     Edge 28, Type (0, 1), BuildingBlock: EZIPEK_clean_linker_0, # of connection points: 2
#     Edge 29, Type (0, 1), BuildingBlock: EZIPEK_clean_linker_0, # of connection points: 2
#     Edge 30, Type (0, 1), BuildingBlock: EZIPEK_clean_linker_0, # of connection points: 2
#     Edge 31, Type (0, 1), BuildingBlock: EZIPEK_clean_linker_0, # of connection points: 2
#     Edge 32, Type (0, 1), BuildingBlock: EZIPEK_clean_linker_0, # of connection points: 2
#     Edge 33, Type (0, 1), BuildingBlock: EZIPEK_clean_linker_0, # of connection points: 2
#     Edge 34, Type (0, 1), BuildingBlock: EZIPEK_clean_linker_0, # of connection points: 2
#     Edge 35, Type (0, 1), BuildingBlock: EZIPEK_clean_linker_0, # of connection points: 2
# Relax obj value: 0.149
# Max RMSD: 0.188
# Mean RMSD: 0.115
data_MOF--net-zzz--node1-CIFDUS_clean_sbu_1--node2-CUQRIR_clean_linker_1--edge1-EZIPEK_clean_linker_0
_symmetry_space_group_name_H-M    P1
_symmetry_Int_Tables_number       1
_symmetry_cell_setting            triclinic
loop_
_symmetry_equiv_pos_as_xyz
'x, y, z'
_cell_length_a     33.014977
_cell_length_b     33.106323
_cell_length_c     10.116027
_cell_angle_alpha  89.676358
_cell_angle_beta   89.822773
_cell_angle_gamma 89.658278
loop_
_atom_site_label
_atom_site_type_symbol
_atom_site_fract_x
_atom_site_fract_y
_atom_site_fract_z
_atom_type_partial_charge
C0 C 0.75606 0.55919 0.2381 0.0
N1 N 0.79715 0.555 0.24269 0.0
N2 N 0.74228 0.55563 0.11149 0.0
C3 C 0.7291 0.56452 0.3562 0.0
C4 C 0.77661 0.54938 0.04046 0.0
N5 N 0.80921 0.54824 0.11979 0.0
C6 C 0.77788 0.53969 0.89506 0.0
H7 H 0.70983 0.53739 0.36837 0.0
H8 H 0.70858 0.5907 0.33935 0.0
H9 H 0.74701 0.56926 0.44741 0.0
H10 H 0.80504 0.553 0.84755 0.0
H11 H 0.75038 0.55105 0.84384 0.0
H12 H 0.77985 0.50643 0.88304 0.0
C13 C 0.97231 0.75576 0.24626 0.0
N14 N 0.97895 0.79624 0.25185 0.0
N15 N 0.97404 0.74231 0.11863 0.0
C16 C 0.96537 0.72949 0.36566 0.0
C17 C 0.97918 0.77677 0.04752 0.0
N18 N 0.98369 0.80887 0.12792 0.0
C19 C 0.98457 0.77836 0.89922 0.0
H20 H 0.98963 0.73456 0.43938 0.0
H21 H 0.96416 0.69707 0.3387 0.0
H22 H 0.9363 0.73825 0.413 0.0
H23 H 0.95755 0.76559 0.85043 0.0
H24 H 0.01114 0.75971 0.87006 0.0
H25 H 0.98856 0.80966 0.862 0.0
C26 C 0.77867 0.96239 0.24256 0.0
N27 N 0.73891 0.97338 0.25029 0.0
N28 N 0.79442 0.97225 0.12141 0.0
C29 C 0.80115 0.94035 0.3497 0.0
C30 C 0.76271 0.98913 0.0568 0.0
N31 N 0.72943 0.9892 0.13373 0.0
C32 C 0.76395 0.00557 0.9177 0.0
H33 H 0.80756 0.96123 0.43225 0.0
H34 H 0.83017 0.92775 0.31211 0.0
H35 H 0.78196 0.91571 0.38972 0.0
H36 H 0.75924 0.98046 0.84733 0.0
H37 H 0.79377 0.01946 0.89609 0.0
H38 H 0.73965 0.02838 0.90181 0.0
C39 C 0.55856 0.77303 0.24128 0.0
N40 N 0.55044 0.73278 0.24825 0.0
N41 N 0.55809 0.78645 0.11294 0.0
C42 C 0.56489 0.79922 0.36002 0.0
C43 C 0.55073 0.75233 0.04316 0.0
N44 N 0.54515 0.72033 0.12494 0.0
C45 C 0.54505 0.75106 0.89511 0.0
H46 H 0.53701 0.79932 0.4216 0.0
H47 H 0.57269 0.8306 0.33101 0.0
H48 H 0.5895 0.78633 0.42185 0.0
H49 H 0.57419 0.75756 0.84507 0.0
H50 H 0.52287 0.77456 0.86408 0.0
H51 H 0.53484 0.72114 0.86029 0.0
C52 C 0.27842 0.47369 0.16667 0.0
N53 N 0.23822 0.48288 0.15953 0.0
N54 N 0.29249 0.47824 0.29297 0.0
C55 C 0.30399 0.46247 0.0496 0.0
C56 C 0.25909 0.48966 0.36179 0.0
N57 N 0.22692 0.49343 0.28082 0.0
C58 C 0.25855 0.49978 0.50711 0.0
H59 H 0.2902 0.43643 0.99833 0.0
H60 H 0.3354 0.45466 0.07947 0.0
H61 H 0.30443 0.48804 0.97821 0.0
H62 H 0.28363 0.52076 0.53014 0.0
H63 H 0.26329 0.47181 0.56594 0.0
H64 H 0.22939 0.51345 0.53875 0.0
C65 C 0.04103 0.27353 0.17203 0.0
N66 N 0.04349 0.23253 0.15799 0.0
N67 N 0.04531 0.28429 0.3028 0.0
C68 C 0.03552 0.30261 0.05825 0.0
C69 C 0.05304 0.24835 0.36319 0.0
N70 N 0.04942 0.21755 0.27801 0.0
C71 C 0.0635 0.24277 0.50776 0.0
H72 H 0.02472 0.28752 0.96798 0.0
H73 H 0.06519 0.31545 0.02984 0.0
H74 H 0.01463 0.32754 0.08596 0.0
H75 H 0.07089 0.27171 0.55637 0.0
H76 H 0.09031 0.22285 0.51826 0.0
H77 H 0.03815 0.2277 0.56039 0.0
C78 C 0.25001 0.0489 0.1595 0.0
N79 N 0.29027 0.03955 0.15904 0.0
N80 N 0.23323 0.04124 0.28109 0.0
C81 C 0.22778 0.06602 0.04297 0.0
C82 C 0.26483 0.02718 0.35309 0.0
N83 N 0.29878 0.02643 0.27973 0.0
C84 C 0.26257 0.01335 0.49516 0.0
H85 H 0.24459 0.09237 0.00318 0.0
H86 H 0.19649 0.07526 0.07014 0.0
H87 H 0.22672 0.04307 0.96358 0.0
H88 H 0.23295 0.99902 0.51655 0.0
H89 H 0.26592 0.03989 0.56062 0.0
H90 H 0.28723 0.99157 0.51862 0.0
C91 C 0.46823 0.25254 0.17812 0.0
N92 N 0.47342 0.29342 0.1695 0.0
N93 N 0.47827 0.23851 0.30128 0.0
C94 C 0.45411 0.22616 0.06784 0.0
C95 C 0.48957 0.27212 0.36616 0.0
N96 N 0.48645 0.30485 0.28726 0.0
C97 C 0.50558 0.27316 0.50515 0.0
H98 H 0.42834 0.20753 0.10288 0.0
H99 H 0.47887 0.20508 0.03946 0.0
H100 H 0.4448 0.24435 0.98051 0.0
H101 H 0.53488 0.28941 0.50562 0.0
H102 H 0.50993 0.24261 0.54836 0.0
H103 H 0.48405 0.29028 0.56824 0.0
O104 O 0.0263 0.06448 0.81432 0.0
Mn105 Mn 0.01443 0.00947 0.71118 0.0
O106 O 0.96634 0.09552 0.83909 0.0
Mn107 Mn 0.9411 0.06506 0.71281 0.0
O108 O 1.00461 0.95604 0.60664 0.0
O109 O 0.0751 1.0039 0.66496 0.0
Mn110 Mn 0.0897 0.95906 0.747 0.0
O111 O 0.01648 0.97406 0.8829 0.0
O112 O 0.05907 0.91857 0.66576 0.0
O113 O 0.01212 0.04241 0.53862 0.0
O114 O 0.95637 0.08078 0.54538 0.0
O115 O 0.13594 0.97647 0.66697 0.0
O116 O 0.08107 0.96825 0.92437 0.0
C117 C 0.91528 0.01218 0.78548 0.0
C118 C 1.00453 0.09471 0.85468 0.0
C119 C 0.02528 0.92283 0.60494 0.0
C120 C 0.11252 1.00481 0.62211 0.0
C121 C 0.04513 0.96064 0.95591 0.0
C122 C 0.9907 0.07174 0.49623 0.0
O123 O 0.9534 0.01439 0.74945 0.0
O124 O 0.8927 0.0431 0.75553 0.0
O125 O 0.55205 0.00583 0.86719 0.0
Mn126 Mn 0.51569 0.00924 0.70241 0.0
O127 O 0.57213 0.06615 0.91873 0.0
Mn128 Mn 0.57041 0.07698 0.74159 0.0
O129 O 0.47831 0.00992 0.53664 0.0
O130 O 0.51014 0.94822 0.74139 0.0
Mn131 Mn 0.46112 0.93642 0.68609 0.0
O132 O 0.4637 0.01982 0.8251 0.0
O133 O 0.45667 0.94757 0.5112 0.0
O134 O 0.56757 0.99882 0.58134 0.0
O135 O 0.60911 0.04692 0.65078 0.0
O136 O 0.48117 0.88857 0.74747 0.0
O137 O 0.42464 0.96616 0.78554 0.0
C138 C 0.52676 0.11022 0.63612 0.0
C139 C 0.57242 0.02864 0.94078 0.0
C140 C 0.45565 0.98448 0.47867 0.0
C141 C 0.51203 0.9103 0.77999 0.0
C142 C 0.43027 0.99998 0.84227 0.0
C143 C 0.60276 0.01588 0.58001 0.0
O144 O 0.52245 0.07117 0.66167 0.0
O145 O 0.55814 0.12744 0.68749 0.0
O146 O 0.5106 0.5529 0.88421 0.0
Mn147 Mn 0.51193 0.51626 0.71582 0.0
O148 O 0.44616 0.56218 0.92267 0.0
Mn149 Mn 0.43872 0.57035 0.74388 0.0
O150 O 0.51115 0.48335 0.54183 0.0
O151 O 0.57503 0.50918 0.76745 0.0
Mn152 Mn 0.57188 0.4571 0.71934 0.0
O153 O 0.4926 0.46329 0.8246 0.0
O154 O 0.56301 0.44179 0.54925 0.0
O155 O 0.52511 0.56948 0.60662 0.0
O156 O 0.47157 0.60905 0.66103 0.0
O157 O 0.62284 0.46071 0.75188 0.0
O158 O 0.54752 0.42541 0.84255 0.0
C159 C 0.41487 0.5246 0.62205 0.0
C160 C 0.4823 0.56856 0.95407 0.0
C161 C 0.53111 0.45391 0.49466 0.0
C162 C 0.61334 0.49699 0.78732 0.0
C163 C 0.51034 0.4305 0.8642 0.0
C164 C 0.50541 0.60352 0.60101 0.0
O165 O 0.45196 0.52454 0.66692 0.0
O166 O 0.39235 0.55422 0.6622 0.0
O167 O 0.07327 0.50837 0.80105 0.0
Mn168 Mn 0.02218 0.52273 0.68249 0.0
O169 O 0.11448 0.55974 0.74696 0.0
Mn170 Mn 0.07588 0.59164 0.65747 0.0
O171 O 0.97176 0.53742 0.55859 0.0
O172 O 0.01461 0.45989 0.63398 0.0
Mn173 Mn 0.96706 0.46415 0.7243 0.0
O174 O 0.98574 0.52647 0.85017 0.0
O175 O 0.92756 0.49658 0.65227 0.0
O176 O 0.06096 0.52238 0.51518 0.0
O177 O 0.07095 0.5864 0.47939 0.0
O178 O 0.96268 0.41531 0.66374 0.0
O179 O 0.96672 0.46673 0.90359 0.0
C180 C 0.0333 0.62269 0.7674 0.0
C181 C 0.10801 0.52617 0.80723 0.0
C182 C 0.9353 0.52394 0.56908 0.0
C183 C 0.99805 0.42355 0.6149 0.0
C184 C 0.96635 0.50378 0.92822 0.0
C185 C 0.07485 0.55076 0.44131 0.0
O186 O 0.0286 0.58414 0.73596 0.0
O187 O 0.064 0.64129 0.71593 0.0
C188 C 0.18729 0.07078 0.44611 0.0
C189 C 0.19242 0.04628 0.33287 0.0
C190 C 0.12702 0.01467 0.3831 0.0
C191 C 0.12849 0.03054 0.51272 0.0
N192 N 0.15949 0.07523 0.66816 0.0
N193 N 0.1665 0.9941 0.19212 0.0
C194 C 0.15792 0.05995 0.54322 0.0
C195 C 0.16141 0.01883 0.29832 0.0
N196 N 0.21253 0.10272 0.46359 0.0
N197 N 0.09354 0.99402 0.34428 0.0
H198 H 0.19179 0.99555 0.13066 0.0
H199 H 0.14693 0.97052 0.17015 0.0
H200 H 0.06845 0.99078 0.40646 0.0
H201 H 0.08925 0.98391 0.24798 0.0
H202 H 0.20915 0.12345 0.53997 0.0
H203 H 0.23464 0.1101 0.39353 0.0
H204 H 0.18312 0.09308 0.70209 0.0
H205 H 0.13733 0.06873 0.73896 0.0
C206 C 0.52276 0.17942 0.33769 0.0
C207 C 0.48418 0.19764 0.3508 0.0
C208 C 0.46848 0.15136 0.5358 0.0
C209 C 0.50708 0.1327 0.5226 0.0
N210 N 0.56773 0.12398 0.39447 0.0
N211 N 0.41732 0.19644 0.44176 0.0
C212 C 0.5328 0.14494 0.41656 0.0
C213 C 0.45588 0.18151 0.44211 0.0
N214 N 0.55064 0.19693 0.2556 0.0
N215 N 0.44542 0.14286 0.64408 0.0
H216 H 0.40829 0.21906 0.37553 0.0
H217 H 0.39392 0.18419 0.49805 0.0
H218 H 0.45433 0.12118 0.71304 0.0
H219 H 0.41897 0.15841 0.66856 0.0
H220 H 0.58118 0.18912 0.25258 0.0
H221 H 0.54359 0.22145 0.19472 0.0
H222 H 0.58835 0.13138 0.32072 0.0
H223 H 0.57426 0.09717 0.44482 0.0
C224 C 0.34207 0.45382 0.45774 0.0
C225 C 0.33344 0.47847 0.34612 0.0
C226 C 0.39689 0.51457 0.38734 0.0
C227 C 0.39851 0.49807 0.51643 0.0
N228 N 0.37224 0.45107 0.67634 0.0
N229 N 0.35231 0.53592 0.21113 0.0
C230 C 0.37153 0.46663 0.55117 0.0
C231 C 0.36134 0.50921 0.31002 0.0
N232 N 0.32048 0.41932 0.47682 0.0
N233 N 0.42856 0.53697 0.34195 0.0
H234 H 0.32546 0.535 0.15793 0.0
H235 H 0.3699 0.5612 0.19015 0.0
H236 H 0.45472 0.54065 0.39834 0.0
H237 H 0.43045 0.54774 0.24508 0.0
H238 H 0.32689 0.39855 0.55177 0.0
H239 H 0.29844 0.41021 0.40952 0.0
H240 H 0.35033 0.43138 0.71279 0.0
H241 H 0.39427 0.45933 0.74484 0.0
C242 C 0.04638 0.36003 0.33575 0.0
C243 C 0.03324 0.32104 0.37353 0.0
C244 C 0.01014 0.34994 0.58273 0.0
C245 C 0.01723 0.38988 0.53709 0.0
N246 N 0.02413 0.42947 0.33763 0.0
N247 N 0.98398 0.28631 0.51013 0.0
C248 C 0.03067 0.39442 0.40421 0.0
C249 C 0.0092 0.31818 0.49004 0.0
N250 N 0.07467 0.36453 0.23936 0.0
N251 N 1.00312 0.34221 0.71338 0.0
H252 H 0.97943 0.26446 0.43816 0.0
H253 H 0.96448 0.28458 0.59134 0.0
H254 H 1.00555 0.36451 0.7855 0.0
H255 H 0.99933 0.31289 0.74955 0.0
H256 H 0.08278 0.39264 0.20211 0.0
H257 H 0.09255 0.34026 0.20857 0.0
H258 H 0.02635 0.43039 0.23472 0.0
H259 H 0.01164 0.45502 0.38228 0.0
C260 C 0.86606 0.99407 0.10487 0.0
C261 C 0.83477 0.96764 0.06596 0.0
C262 C 0.86953 0.95606 0.85413 0.0
C263 C 0.89917 0.98467 0.8893 0.0
N264 N 0.93309 0.02075 0.06078 0.0
N265 N 0.81297 0.91426 0.92483 0.0
C266 C 0.90028 0.99938 0.02047 0.0
C267 C 0.83932 0.9449 0.9484 0.0
N268 N 0.86121 0.01716 0.21517 0.0
N269 N 0.86836 0.94234 0.72726 0.0
H270 H 0.79053 0.9065 0.99326 0.0
H271 H 0.81555 0.8948 0.84472 0.0
H272 H 0.89057 0.95004 0.65802 0.0
H273 H 0.84486 0.92503 0.68972 0.0
H274 H 0.88059 0.04055 0.24038 0.0
H275 H 0.83624 0.01465 0.27757 0.0
H276 H 0.93772 0.02861 0.15883 0.0
H277 H 0.95794 0.0258 0.99911 0.0
C278 C 0.58319 0.8368 0.94996 0.0
C279 C 0.55717 0.82732 0.05749 0.0
C280 C 0.52185 0.89148 0.01373 0.0
C281 C 0.53887 0.89344 0.88594 0.0
N282 N 0.58686 0.8665 0.73068 0.0
N283 N 0.49688 0.84585 0.18094 0.0
C284 C 0.57064 0.86619 0.85445 0.0
C285 C 0.52576 0.85527 0.08944 0.0
N286 N 0.61892 0.81643 0.93689 0.0
N287 N 0.50015 0.92348 0.0597 0.0
H288 H 0.49562 0.81802 0.22865 0.0
H289 H 0.47172 0.86428 0.19831 0.0
H290 H 0.4959 0.94971 0.00352 0.0
H291 H 0.49213 0.92552 0.15871 0.0
H292 H 0.64043 0.82373 0.86512 0.0
H293 H 0.62802 0.79468 0.00606 0.0
H294 H 0.60737 0.84475 0.69732 0.0
H295 H 0.57756 0.88754 0.66014 0.0
C296 C 0.69899 0.50246 0.03125 0.0
C297 C 0.70274 0.54316 0.06559 0.0
C298 C 0.64275 0.55759 0.92644 0.0
C299 C 0.64516 0.51769 0.87264 0.0
N300 N 0.69665 0.4659 0.83059 0.0
N301 N 0.68076 0.61156 0.03389 0.0
C302 C 0.67901 0.49342 0.91319 0.0
C303 C 0.67508 0.57153 0.01021 0.0
N304 N 0.72001 0.47343 0.09827 0.0
N305 N 0.6112 0.58244 0.89566 0.0
H306 H 0.70345 0.62154 0.09738 0.0
H307 H 0.66468 0.63445 0.98587 0.0
H308 H 0.58718 0.57344 0.83762 0.0
H309 H 0.60804 0.61155 0.93221 0.0
H310 H 0.71759 0.44285 0.0749 0.0
H311 H 0.73638 0.48 0.18341 0.0
H312 H 0.72216 0.44905 0.8577 0.0
H313 H 0.69098 0.46564 0.72918 0.0
C314 C 0.02065 0.68355 0.08587 0.0
C315 C 0.98236 0.70224 0.06517 0.0
C316 C 0.97332 0.6615 0.86378 0.0
C317 C 0.01238 0.64396 0.88032 0.0
N318 N 0.07659 0.64586 0.99471 0.0
N319 N 0.9183 0.70186 0.95695 0.0
C320 C 0.03646 0.65619 0.99032 0.0
C321 C 0.95727 0.68804 0.96236 0.0
N322 N 0.04289 0.69257 0.19514 0.0
N323 N 0.95378 0.65692 0.74631 0.0
H324 H 0.90656 0.72119 0.02898 0.0
H325 H 0.89717 0.69234 0.88788 0.0
H326 H 0.96572 0.63931 0.67068 0.0
H327 H 0.92747 0.67245 0.72023 0.0
H328 H 0.0675 0.67543 0.22728 0.0
H329 H 0.03528 0.71493 0.2615 0.0
H330 H 0.09753 0.65832 0.05919 0.0
H331 H 0.09053 0.62798 0.92412 0.0
C332 C 0.06484 0.1514 0.37616 0.0
C333 C 0.03703 0.17771 0.31626 0.0
C334 C 0.98558 0.12545 0.32608 0.0
C335 C 0.01037 0.10276 0.41295 0.0
N336 N 0.07115 0.10422 0.55178 0.0
N337 N 0.96731 0.1932 0.26409 0.0
C338 C 0.04988 0.11759 0.44474 0.0
C339 C 0.99637 0.16563 0.29757 0.0
N340 N 0.10521 0.15979 0.37483 0.0
N341 N 0.95081 0.1095 0.27687 0.0
H342 H 0.97336 0.22389 0.25612 0.0
H343 H 0.9366 0.1862 0.2598 0.0
H344 H 0.94163 0.08026 0.30014 0.0
H345 H 0.93355 0.12406 0.20451 0.0
H346 H 0.12691 0.13928 0.40925 0.0
H347 H 0.11679 0.18604 0.332 0.0
H348 H 0.096 0.11998 0.58783 0.0
H349 H 0.06251 0.08097 0.61378 0.0
C350 C 0.35432 0.97789 0.30978 0.0
C351 C 0.33853 0.01694 0.32618 0.0
C352 C 0.3986 0.03656 0.44641 0.0
C353 C 0.41799 0.99896 0.4111 0.0
N354 N 0.41258 0.93567 0.28967 0.0
N355 N 0.34734 0.08597 0.38937 0.0
C356 C 0.39552 0.97063 0.33464 0.0
C357 C 0.36164 0.04722 0.38535 0.0
N358 N 0.33046 0.94672 0.27178 0.0
N359 N 0.41116 0.05996 0.54937 0.0
H360 H 0.31864 0.0941 0.35521 0.0
H361 H 0.36531 0.1102 0.41804 0.0
H362 H 0.43491 0.05389 0.61271 0.0
H363 H 0.39353 0.08365 0.5859 0.0
H364 H 0.29926 0.94943 0.25753 0.0
H365 H 0.29926 0.94943 0.25753 0.0
H366 H 0.39615 0.91405 0.23804 0.0
H367 H 0.44329 0.92941 0.29687 0.0
C368 C 0.52844 0.36609 0.2747 0.0
C369 C 0.4942 0.34572 0.32505 0.0
C370 C 0.47642 0.40325 0.46123 0.0
C371 C 0.51072 0.42435 0.40971 0.0
N372 N 0.5617 0.43049 0.24126 0.0
N373 N 0.43026 0.34748 0.43869 0.0
C374 C 0.53385 0.40734 0.30602 0.0
C375 C 0.46634 0.36538 0.40843 0.0
N376 N 0.55684 0.34524 0.20406 0.0
N377 N 0.45589 0.41666 0.56989 0.0
H378 H 0.42272 0.3186 0.4067 0.0
H379 H 0.40656 0.36267 0.48576 0.0
H380 H 0.45898 0.44511 0.60991 0.0
H381 H 0.43671 0.39824 0.62539 0.0
H382 H 0.58421 0.35766 0.17317 0.0
H383 H 0.55435 0.31431 0.18677 0.0
H384 H 0.57748 0.42072 0.15788 0.0
H385 H 0.56574 0.46093 0.26421 0.0
C386 C 0.18315 0.55217 0.33532 0.0
C387 C 0.18783 0.51011 0.31286 0.0
C388 C 0.11484 0.50279 0.30457 0.0
C389 C 0.10997 0.54193 0.35293 0.0
N390 N 0.1369 0.60928 0.33856 0.0
N391 N 0.1584 0.44448 0.29103 0.0
C392 C 0.14346 0.5686 0.3473 0.0
C393 C 0.15371 0.48524 0.30043 0.0
N394 N 0.21645 0.57619 0.34538 0.0
N395 N 0.083 0.48475 0.24594 0.0
H396 H 0.18682 0.43049 0.29274 0.0
H397 H 0.13387 0.42496 0.29575 0.0
H398 H 0.05476 0.49912 0.24088 0.0
H399 H 0.08716 0.45973 0.18537 0.0
H400 H 0.2153 0.60589 0.37843 0.0
H401 H 0.24576 0.5658 0.3271 0.0
H402 H 0.15979 0.63042 0.32582 0.0
H403 H 0.10807 0.62137 0.32326 0.0
C404 C 0.04127 0.84832 0.04061 0.0
C405 C 1.00133 0.8471 0.09155 0.0
C406 C 1.00044 0.92059 0.10356 0.0
C407 C 0.03658 0.92231 0.02817 0.0
N408 N 0.09089 0.88455 0.91619 0.0
N409 N 0.94037 0.88192 0.15438 0.0
C410 C 0.05724 0.88544 0.9954 0.0
C411 C 0.98021 0.88326 0.11879 0.0
N412 N 0.06474 0.81415 0.03858 0.0
N413 N 0.98604 0.95464 0.1628 0.0
H414 H 0.9246 0.85475 0.16078 0.0
H415 H 0.92241 0.90773 0.16491 0.0
H416 H 1.00168 0.98193 0.15732 0.0
H417 H 0.96162 0.95444 0.22841 0.0
H418 H 0.0957 0.81452 0.01818 0.0
H419 H 0.05466 0.78596 0.06981 0.0
H420 H 0.1003 0.8584 0.86761 0.0
H421 H 0.10981 0.90869 0.89648 0.0
C422 C 0.66931 0.9679 0.01179 0.0
C423 C 0.68892 0.99677 0.08996 0.0
C424 C 0.62654 0.03494 0.10809 0.0
C425 C 0.60856 0.01118 0.00866 0.0
N426 N 0.61921 0.95595 0.84805 0.0
N427 N 0.68948 0.06259 0.18638 0.0
C428 C 0.63118 0.97743 0.95619 0.0
C429 C 0.66851 0.03173 0.13081 0.0
N430 N 0.68723 0.93125 0.98965 0.0
N431 N 0.6035 0.06011 0.18303 0.0
H432 H 0.7208 0.06117 0.19992 0.0
H433 H 0.67618 0.0905 0.20736 0.0
H434 H 0.57211 0.06243 0.17275 0.0
H435 H 0.61569 0.0737 0.26602 0.0
H436 H 0.67198 0.90715 0.94684 0.0
H437 H 0.71596 0.92379 0.02488 0.0
H438 H 0.63906 0.93712 0.79637 0.0
H439 H 0.5913 0.95694 0.80252 0.0
C440 C 0.54855 0.64569 0.1169 0.0
C441 C 0.52742 0.68202 0.09028 0.0
C442 C 0.47174 0.64427 0.99297 0.0
C443 C 0.49236 0.60699 0.02347 0.0
N444 N 0.54453 0.57315 0.14891 0.0
N445 N 0.46404 0.71514 0.0418 0.0
C446 C 0.52883 0.60811 0.0976 0.0
C447 C 0.48752 0.68098 0.04093 0.0
N448 N 0.58803 0.64734 0.15568 0.0
N449 N 0.43867 0.6462 0.91186 0.0
H450 H 0.47433 0.74303 0.07424 0.0
H451 H 0.43303 0.71491 0.02265 0.0
H452 H 0.4206 0.62234 0.88391 0.0
H453 H 0.42926 0.67311 0.86708 0.0
H454 H 0.60603 0.62192 0.17251 0.0
H455 H 0.60376 0.67455 0.15953 0.0
H456 H 0.56925 0.5723 0.21256 0.0
H457 H 0.53008 0.54539 0.13837 0.0
C458 C 0.86735 0.50097 0.10981 0.0
C459 C 0.85 0.53892 0.08044 0.0
C460 C 0.90919 0.55687 0.95172 0.0
C461 C 0.92986 0.52079 0.99719 0.0
N462 N 0.92978 0.46494 0.1525 0.0
N463 N 0.85717 0.60633 0.99828 0.0
C464 C 0.90936 0.49513 0.0883 0.0
C465 C 0.87223 0.56806 0.01175 0.0
N466 N 0.8434 0.47003 0.15152 0.0
N467 N 0.9208 0.57859 0.84291 0.0
H468 H 0.82888 0.61504 0.03478 0.0
H469 H 0.87433 0.62984 0.95922 0.0
H470 H 0.94761 0.57635 0.79086 0.0
H471 H 0.90087 0.5985 0.79567 0.0
H472 H 0.85416 0.44059 0.16392 0.0
H473 H 0.81208 0.47338 0.16096 0.0
H474 H 0.91611 0.44596 0.22165 0.0
H475 H 0.9612 0.4618 0.14622 0.0
C476 C 0.06998 0.17449 0.0319 0.0
C477 C 0.04069 0.206 0.04328 0.0
C478 C 1.00134 0.17029 0.87768 0.0
C479 C 0.02274 0.13355 0.90416 0.0
N480 N 0.07966 0.10212 0.01683 0.0
N481 N 0.97337 0.22917 0.98206 0.0
C482 C 0.05832 0.13596 0.98227 0.0
C483 C 1.00507 0.20311 0.96606 0.0
N484 N 0.1085 0.18128 0.07336 0.0
N485 N 0.97813 0.17433 0.76694 0.0
H486 H 0.97306 0.25209 0.05188 0.0
H487 H 0.94583 0.22525 0.93356 0.0
H488 H 0.97783 0.15245 0.69305 0.0
H489 H 0.96405 0.20157 0.74134 0.0
H490 H 0.1319 0.16032 0.06117 0.0
H491 H 0.11722 0.20964 0.10757 0.0
H492 H 0.10345 0.10274 0.08433 0.0
H493 H 0.0716 0.07316 0.98806 0.0
C494 C 0.32586 0.99676 0.00087 0.0
C495 C 0.31893 0.03572 0.05003 0.0
C496 C 0.38564 0.05587 0.95845 0.0
C497 C 0.39495 0.01447 0.92872 0.0
N498 N 0.37702 0.94538 0.98455 0.0
N499 N 0.34266 0.10297 0.08138 0.0
C500 C 0.36577 0.98484 0.96705 0.0
C501 C 0.34893 0.06557 0.02929 0.0
N502 N 0.29471 0.97002 0.99602 0.0
N503 N 0.41108 0.08607 0.92067 0.0
H504 H 0.31504 0.11101 0.12469 0.0
H505 H 0.365 0.12499 0.08662 0.0
H506 H 0.44007 0.08108 0.88486 0.0
H507 H 0.40293 0.1165 0.92296 0.0
H508 H 0.29772 0.9416 0.95297 0.0
H509 H 0.26537 0.97799 0.02483 0.0
H510 H 0.35703 0.92322 0.01762 0.0
H511 H 0.40732 0.93621 0.98636 0.0
C512 C 0.49976 0.32082 0.95565 0.0
C513 C 0.47039 0.32144 0.05779 0.0
C514 C 0.45787 0.3939 0.01274 0.0
C515 C 0.48846 0.39341 0.9139 0.0
N516 N 0.52277 0.35171 0.75233 0.0
N517 N 0.41087 0.35361 0.14359 0.0
C518 C 0.50381 0.35514 0.8719 0.0
C519 C 0.44555 0.3564 0.07122 0.0
N520 N 0.52611 0.28914 0.94439 0.0
N521 N 0.44238 0.42963 0.05713 0.0
H522 H 0.40158 0.32596 0.18322 0.0
H523 H 0.38999 0.37719 0.15209 0.0
H524 H 0.45059 0.45747 0.01724 0.0
H525 H 0.42331 0.4316 0.13919 0.0
H526 H 0.55117 0.28963 0.88146 0.0
H527 H 0.52514 0.26392 0.00587 0.0
H528 H 0.53328 0.32429 0.71548 0.0
H529 H 0.52399 0.37552 0.68452 0.0
C530 C 0.20249 0.53112 0.01736 0.0
C531 C 0.21308 0.4907 0.04353 0.0
C532 C 0.15625 0.47014 0.8992 0.0
C533 C 0.14186 0.51083 0.89594 0.0
N534 N 0.14394 0.57385 0.01024 0.0
N535 N 0.19795 0.42039 0.01603 0.0
C536 C 0.16338 0.53992 0.96935 0.0
C537 C 0.18947 0.45964 0.98538 0.0
N538 N 0.2284 0.56125 0.05 0.0
N539 N 0.1391 0.44193 0.81963 0.0
H540 H 0.22245 0.41241 0.0759 0.0
H541 H 0.17944 0.39648 0.9888 0.0
H542 H 0.11532 0.44875 0.75557 0.0
H543 H 0.15056 0.4127 0.81014 0.0
H544 H 0.22227 0.59153 0.02844 0.0
H545 H 0.25722 0.55507 0.08736 0.0
H546 H 0.15767 0.59601 0.06729 0.0
H547 H 0.11242 0.57448 0.00905 0.0
C548 C 0.96019 0.84084 0.44129 0.0
C549 C 0.99011 0.8205 0.36557 0.0
C550 C 0.0407 0.86906 0.43783 0.0
C551 C 0.01187 0.88822 0.52142 0.0
N552 N 0.94616 0.88535 0.62636 0.0
N553 N 0.06077 0.80668 0.33429 0.0
C554 C 0.97204 0.8721 0.53033 0.0
C555 C 0.03103 0.83172 0.37914 0.0
N556 N 0.92049 0.83107 0.42511 0.0
N557 N 0.07643 0.88752 0.40688 0.0
H558 H 0.05409 0.77853 0.29514 0.0
H559 H 0.09148 0.81207 0.34957 0.0
H560 H 0.08399 0.91621 0.44023 0.0
H561 H 0.09631 0.87626 0.33552 0.0
H562 H 0.89675 0.84759 0.4667 0.0
H563 H 0.91153 0.80779 0.36274 0.0
H564 H 0.91821 0.87201 0.64504 0.0
H565 H 0.95427 0.90709 0.69548 0.0
C566 C 0.7106 0.01137 0.43595 0.0
C567 C 0.71157 0.97537 0.36333 0.0
C568 C 0.6424 0.96046 0.44493 0.0
C569 C 0.63869 1.00072 0.49701 0.0
N570 N 0.66859 0.06805 0.4889 0.0
N571 N 0.67892 0.91479 0.29728 0.0
C572 C 0.67284 0.02703 0.47983 0.0
C573 C 0.67765 0.94952 0.36899 0.0
N574 N 0.74533 0.0328 0.45222 0.0
N575 N 0.61328 0.93217 0.46746 0.0
H576 H 0.70559 0.90497 0.25163 0.0
H577 H 0.65365 0.89706 0.27844 0.0
H578 H 0.58581 0.93782 0.51321 0.0
H579 H 0.61737 0.90166 0.44643 0.0
H580 H 0.74704 0.05763 0.51495 0.0
H581 H 0.77299 0.02336 0.41314 0.0
H582 H 0.69216 0.0881 0.47003 0.0
H583 H 0.64067 0.08268 0.49085 0.0
C584 C 0.49942 0.69708 0.38046 0.0
C585 C 0.54019 0.70812 0.36312 0.0
C586 C 0.55953 0.65376 0.51862 0.0
C587 C 0.51935 0.6381 0.51431 0.0
N588 N 0.45365 0.64144 0.40809 0.0
N589 N 0.61018 0.69669 0.41394 0.0
C590 C 0.48993 0.65898 0.43647 0.0
C591 C 0.57061 0.68658 0.43298 0.0
N592 N 0.46967 0.72304 0.3408 0.0
N593 N 0.58665 0.63847 0.60705 0.0
H594 H 0.6186 0.72109 0.35438 0.0
H595 H 0.63433 0.67951 0.44978 0.0
H596 H 0.57935 0.615 0.67086 0.0
H597 H 0.61487 0.65123 0.62453 0.0
H598 H 0.43901 0.71784 0.35868 0.0
H599 H 0.47644 0.75165 0.30344 0.0
H600 H 0.43314 0.65399 0.34105 0.0
H601 H 0.44617 0.61232 0.43845 0.0
C602 C 0.83173 0.51496 0.41281 0.0
C603 C 0.82485 0.55291 0.35392 0.0
C604 C 0.89132 0.57553 0.43825 0.0
C605 C 0.90036 0.53527 0.47965 0.0
N606 N 0.88264 0.46465 0.45744 0.0
N607 N 0.84729 0.62014 0.30955 0.0
C608 C 0.87135 0.50445 0.45391 0.0
C609 C 0.85439 0.58359 0.36799 0.0
N610 N 0.80098 0.48781 0.42192 0.0
N611 N 0.91745 0.60602 0.4658 0.0
H612 H 0.81933 0.62711 0.26689 0.0
H613 H 0.86907 0.64257 0.29935 0.0
H614 H 0.94605 0.60088 0.50477 0.0
H615 H 0.91039 0.63648 0.45308 0.0
H616 H 0.8036 0.46072 0.47433 0.0
H617 H 0.77195 0.4942 0.38769 0.0
H618 H 0.86343 0.44127 0.43017 0.0
H619 H 0.91273 0.45541 0.46823 0.0
loop_
_geom_bond_atom_site_label_1
_geom_bond_atom_site_label_2
_geom_bond_distance
_geom_bond_site_symmetry_2
_ccdc_geom_bond_type
C0 N1 1.317 . S
C0 N2 1.348 . S
C0 C3 1.485 . S
N1 C0 1.317 . S
N1 N5 1.370 . S
N2 C0 1.348 . S
N2 C4 1.346 1_554 S
C3 C0 1.485 . S
C3 H7 0.960 . S
C3 H8 0.961 . S
C3 H9 0.960 . S
C4 N2 1.346 1_556 S
C4 N5 1.307 1_556 S
C4 C6 1.486 . S
N5 N1 1.370 . S
N5 C4 1.307 1_554 S
C6 C4 1.486 . S
C6 H10 0.960 . S
C6 H11 0.960 . S
C6 H12 0.959 . S
H7 C3 0.960 . S
H8 C3 0.961 . S
H9 C3 0.960 . S
H10 C6 0.960 . S
H11 C6 0.960 . S
H12 C6 0.959 . S
C13 N14 1.317 . S
C13 N15 1.348 . S
C13 C16 1.485 . S
N14 C13 1.317 . S
N14 N18 1.370 . S
N15 C13 1.348 . S
N15 C17 1.346 1_554 S
C16 C13 1.485 . S
C16 H20 0.960 . S
C16 H21 0.961 . S
C16 H22 0.960 . S
C17 N15 1.346 1_556 S
C17 N18 1.307 1_556 S
C17 C19 1.486 . S
N18 N14 1.370 . S
N18 C17 1.307 1_554 S
C19 C17 1.486 . S
C19 H23 0.960 . S
C19 H24 0.960 . S
C19 H25 0.959 . S
H20 C16 0.960 . S
H21 C16 0.961 . S
H22 C16 0.960 . S
H23 C19 0.960 . S
H24 C19 0.960 . S
H25 C19 0.959 . S
C26 N27 1.317 . S
C26 N28 1.348 . S
C26 C29 1.485 . S
N27 C26 1.317 . S
N27 N31 1.370 . S
N28 C26 1.348 . S
N28 C30 1.346 1_554 S
C29 C26 1.485 . S
C29 H33 0.960 . S
C29 H34 0.961 . S
C29 H35 0.960 . S
C30 N28 1.346 1_556 S
C30 N31 1.307 1_556 S
C30 C32 1.486 . S
N31 N27 1.370 . S
N31 C30 1.307 1_554 S
C32 C30 1.486 . S
C32 H36 0.960 . S
C32 H37 0.960 . S
C32 H38 0.959 . S
H33 C29 0.960 . S
H34 C29 0.961 . S
H35 C29 0.960 . S
H36 C32 0.960 . S
H37 C32 0.960 . S
H38 C32 0.959 . S
C39 N40 1.317 . S
C39 N41 1.348 . S
C39 C42 1.485 . S
N40 C39 1.317 . S
N40 N44 1.370 . S
N41 C39 1.348 . S
N41 C43 1.346 1_554 S
C42 C39 1.485 . S
C42 H46 0.960 . S
C42 H47 0.961 . S
C42 H48 0.960 . S
C43 N41 1.346 1_556 S
C43 N44 1.307 1_556 S
C43 C45 1.486 . S
N44 N40 1.370 . S
N44 C43 1.307 1_554 S
C45 C43 1.486 . S
C45 H49 0.960 . S
C45 H50 0.960 . S
C45 H51 0.959 . S
H46 C42 0.960 . S
H47 C42 0.961 . S
H48 C42 0.960 . S
H49 C45 0.960 . S
H50 C45 0.960 . S
H51 C45 0.959 . S
C52 N53 1.317 . S
C52 N54 1.348 . S
C52 C55 1.485 . S
N53 C52 1.317 . S
N53 N57 1.370 . S
N54 C52 1.348 . S
N54 C56 1.346 . S
C55 C52 1.485 . S
C55 H59 0.960 . S
C55 H60 0.961 . S
C55 H61 0.960 . S
C56 N54 1.346 . S
C56 N57 1.307 . S
C56 C58 1.486 . S
N57 N53 1.370 . S
N57 C56 1.307 . S
C58 C56 1.486 . S
C58 H62 0.960 . S
C58 H63 0.960 . S
C58 H64 0.959 . S
H59 C55 0.960 . S
H60 C55 0.961 . S
H61 C55 0.960 . S
H62 C58 0.960 . S
H63 C58 0.960 . S
H64 C58 0.959 . S
C65 N66 1.317 . S
C65 N67 1.348 . S
C65 C68 1.485 . S
N66 C65 1.317 . S
N66 N70 1.370 . S
N67 C65 1.348 . S
N67 C69 1.346 . S
C68 C65 1.485 . S
C68 H72 0.960 . S
C68 H73 0.961 . S
C68 H74 0.960 . S
C69 N67 1.346 . S
C69 N70 1.307 . S
C69 C71 1.486 . S
N70 N66 1.370 . S
N70 C69 1.307 . S
C71 C69 1.486 . S
C71 H75 0.960 . S
C71 H76 0.960 . S
C71 H77 0.959 . S
H72 C68 0.960 . S
H73 C68 0.961 . S
H74 C68 0.960 . S
H75 C71 0.960 . S
H76 C71 0.960 . S
H77 C71 0.959 . S
C78 N79 1.317 . S
C78 N80 1.348 . S
C78 C81 1.485 . S
N79 C78 1.317 . S
N79 N83 1.370 . S
N80 C78 1.348 . S
N80 C82 1.346 . S
C81 C78 1.485 . S
C81 H85 0.960 . S
C81 H86 0.961 . S
C81 H87 0.960 . S
C82 N80 1.346 . S
C82 N83 1.307 . S
C82 C84 1.486 . S
N83 N79 1.370 . S
N83 C82 1.307 . S
C84 C82 1.486 . S
C84 H88 0.960 . S
C84 H89 0.960 . S
C84 H90 0.959 . S
H85 C81 0.960 . S
H86 C81 0.961 . S
H87 C81 0.960 . S
H88 C84 0.960 . S
H89 C84 0.960 . S
H90 C84 0.959 . S
C91 N92 1.317 . S
C91 N93 1.348 . S
C91 C94 1.485 . S
N92 C91 1.317 . S
N92 N96 1.370 . S
N93 C91 1.348 . S
N93 C95 1.346 . S
C94 C91 1.485 . S
C94 H98 0.960 . S
C94 H99 0.961 . S
C94 H100 0.960 . S
C95 N93 1.346 . S
C95 N96 1.307 . S
C95 C97 1.486 . S
N96 N92 1.370 . S
N96 C95 1.307 . S
C97 C95 1.486 . S
C97 H101 0.960 . S
C97 H102 0.960 . S
C97 H103 0.959 . S
H98 C94 0.960 . S
H99 C94 0.961 . S
H100 C94 0.960 . S
H101 C97 0.960 . S
H102 C97 0.960 . S
H103 C97 0.959 . S
O104 Mn105 2.163 . S
O104 C118 1.244 . S
Mn105 O104 2.163 . S
Mn105 O108 2.160 1_445 S
Mn105 O109 2.221 1_545 S
Mn105 O111 2.163 1_545 S
Mn105 O113 2.160 . S
Mn105 O123 2.221 1_455 S
O106 Mn107 2.087 . S
O106 C118 1.256 1_655 S
Mn107 O106 2.087 . S
Mn107 O114 2.089 . S
Mn107 O123 2.290 . S
Mn107 O124 2.251 . S
O108 Mn105 2.160 1_665 S
O108 C119 1.239 . S
O109 Mn105 2.221 1_565 S
O109 Mn110 2.290 . S
O109 C120 1.278 . S
Mn110 O109 2.290 . S
Mn110 O112 2.089 . S
Mn110 O115 2.251 . S
Mn110 O116 2.087 . S
O111 Mn105 2.163 1_565 S
O111 C121 1.244 . S
O112 Mn110 2.089 . S
O112 C119 1.256 1_455 S
O113 Mn105 2.160 . S
O113 C122 1.239 1_455 S
O114 Mn107 2.089 . S
O114 C122 1.256 . S
O115 Mn110 2.251 . S
O115 C120 1.241 . S
O116 Mn110 2.087 . S
O116 C121 1.256 . S
C117 O123 1.278 . S
C117 O124 1.241 . S
C118 O104 1.244 . S
C118 O106 1.256 1_455 S
C119 O108 1.239 . S
C119 O112 1.256 1_655 S
C120 O109 1.278 . S
C120 O115 1.241 . S
C121 O111 1.244 . S
C121 O116 1.256 . S
C122 O113 1.239 1_655 S
C122 O114 1.256 . S
O123 Mn105 2.221 1_655 S
O123 Mn107 2.290 . S
O123 C117 1.278 . S
O124 Mn107 2.251 . S
O124 C117 1.241 . S
O125 Mn126 2.163 . S
O125 C139 1.244 . S
Mn126 O125 2.163 . S
Mn126 O129 2.160 . S
Mn126 O130 2.221 1_545 S
Mn126 O132 2.163 . S
Mn126 O134 2.160 1_545 S
Mn126 O144 2.221 . S
O127 Mn128 2.087 . S
O127 C139 1.256 . S
Mn128 O127 2.087 . S
Mn128 O135 2.089 . S
Mn128 O144 2.290 . S
Mn128 O145 2.251 . S
O129 Mn126 2.160 . S
O129 C140 1.239 1_545 S
O130 Mn126 2.221 1_565 S
O130 Mn131 2.290 . S
O130 C141 1.278 . S
Mn131 O130 2.290 . S
Mn131 O133 2.089 . S
Mn131 O136 2.251 . S
Mn131 O137 2.087 . S
O132 Mn126 2.163 . S
O132 C142 1.244 . S
O133 Mn131 2.089 . S
O133 C140 1.256 . S
O134 Mn126 2.160 1_565 S
O134 C143 1.239 . S
O135 Mn128 2.089 . S
O135 C143 1.256 1_545 S
O136 Mn131 2.251 . S
O136 C141 1.241 . S
O137 Mn131 2.087 . S
O137 C142 1.256 1_565 S
C138 O144 1.278 . S
C138 O145 1.241 . S
C139 O125 1.244 . S
C139 O127 1.256 . S
C140 O129 1.239 1_565 S
C140 O133 1.256 . S
C141 O130 1.278 . S
C141 O136 1.241 . S
C142 O132 1.244 . S
C142 O137 1.256 1_545 S
C143 O134 1.239 . S
C143 O135 1.256 1_565 S
O144 Mn126 2.221 . S
O144 Mn128 2.290 . S
O144 C138 1.278 . S
O145 Mn128 2.251 . S
O145 C138 1.241 . S
O146 Mn147 2.163 . S
O146 C160 1.244 . S
Mn147 O146 2.163 . S
Mn147 O150 2.160 . S
Mn147 O151 2.221 . S
Mn147 O153 2.163 . S
Mn147 O155 2.160 . S
Mn147 O165 2.221 . S
O148 Mn149 2.087 . S
O148 C160 1.256 . S
Mn149 O148 2.087 . S
Mn149 O156 2.089 . S
Mn149 O165 2.290 . S
Mn149 O166 2.251 . S
O150 Mn147 2.160 . S
O150 C161 1.239 . S
O151 Mn147 2.221 . S
O151 Mn152 2.290 . S
O151 C162 1.278 . S
Mn152 O151 2.290 . S
Mn152 O154 2.089 . S
Mn152 O157 2.251 . S
Mn152 O158 2.087 . S
O153 Mn147 2.163 . S
O153 C163 1.244 . S
O154 Mn152 2.089 . S
O154 C161 1.256 . S
O155 Mn147 2.160 . S
O155 C164 1.239 . S
O156 Mn149 2.089 . S
O156 C164 1.256 . S
O157 Mn152 2.251 . S
O157 C162 1.241 . S
O158 Mn152 2.087 . S
O158 C163 1.256 . S
C159 O165 1.278 . S
C159 O166 1.241 . S
C160 O146 1.244 . S
C160 O148 1.256 . S
C161 O150 1.239 . S
C161 O154 1.256 . S
C162 O151 1.278 . S
C162 O157 1.241 . S
C163 O153 1.244 . S
C163 O158 1.256 . S
C164 O155 1.239 . S
C164 O156 1.256 . S
O165 Mn147 2.221 . S
O165 Mn149 2.290 . S
O165 C159 1.278 . S
O166 Mn149 2.251 . S
O166 C159 1.241 . S
O167 Mn168 2.163 . S
O167 C181 1.244 . S
Mn168 O167 2.163 . S
Mn168 O171 2.160 1_455 S
Mn168 O172 2.221 1_455 S
Mn168 O174 2.163 1_455 S
Mn168 O176 2.160 . S
Mn168 O186 2.221 . S
O169 Mn170 2.087 . S
O169 C181 1.256 . S
Mn170 O169 2.087 . S
Mn170 O177 2.089 . S
Mn170 O186 2.290 . S
Mn170 O187 2.251 . S
O171 Mn168 2.160 1_655 S
O171 C182 1.239 . S
O172 Mn168 2.221 1_655 S
O172 Mn173 2.290 . S
O172 C183 1.278 . S
Mn173 O172 2.290 . S
Mn173 O175 2.089 . S
Mn173 O178 2.251 . S
Mn173 O179 2.087 . S
O174 Mn168 2.163 1_655 S
O174 C184 1.244 . S
O175 Mn173 2.089 . S
O175 C182 1.256 . S
O176 Mn168 2.160 . S
O176 C185 1.239 . S
O177 Mn170 2.089 . S
O177 C185 1.256 . S
O178 Mn173 2.251 . S
O178 C183 1.241 . S
O179 Mn173 2.087 . S
O179 C184 1.256 . S
C180 O186 1.278 . S
C180 O187 1.241 . S
C181 O167 1.244 . S
C181 O169 1.256 . S
C182 O171 1.239 . S
C182 O175 1.256 . S
C183 O172 1.278 . S
C183 O178 1.241 . S
C184 O174 1.244 . S
C184 O179 1.256 . S
C185 O176 1.239 . S
C185 O177 1.256 . S
O186 Mn168 2.221 . S
O186 Mn170 2.290 . S
O186 C180 1.278 . S
O187 Mn170 2.251 . S
O187 C180 1.241 . S
C188 C189 1.363 . S
C188 C194 1.379 . S
C188 N196 1.356 . S
C189 C188 1.363 . S
C189 C195 1.363 . S
C190 C191 1.372 . S
C190 C195 1.383 . S
C190 N197 1.345 1_545 S
C191 C190 1.372 . S
C191 C194 1.363 . S
N192 C194 1.356 . S
N192 H204 0.984 . S
N192 H205 0.985 . S
N193 C195 1.356 1_565 S
N193 H198 0.984 1_565 S
N193 H199 0.985 . S
C194 C188 1.379 . S
C194 C191 1.363 . S
C194 N192 1.356 . S
C195 C189 1.363 . S
C195 C190 1.383 . S
C195 N193 1.356 1_545 S
N196 C188 1.356 . S
N196 H202 0.984 . S
N196 H203 0.984 . S
N197 C190 1.345 1_565 S
N197 H200 0.984 . S
N197 H201 0.985 . S
H198 N193 0.984 1_545 S
H199 N193 0.985 . S
H200 N197 0.984 . S
H201 N197 0.985 . S
H202 N196 0.984 . S
H203 N196 0.984 . S
H204 N192 0.984 . S
H205 N192 0.985 . S
C206 C207 1.363 . S
C206 C212 1.379 . S
C206 N214 1.356 . S
C207 C206 1.363 . S
C207 C213 1.363 . S
C208 C209 1.363 . S
C208 C213 1.379 . S
C208 N215 1.356 . S
C209 C208 1.363 . S
C209 C212 1.363 . S
N210 C212 1.356 . S
N210 H222 0.984 . S
N210 H223 0.985 . S
N211 C213 1.356 . S
N211 H216 0.984 . S
N211 H217 0.985 . S
C212 C206 1.379 . S
C212 C209 1.363 . S
C212 N210 1.356 . S
C213 C207 1.363 . S
C213 C208 1.379 . S
C213 N211 1.356 . S
N214 C206 1.356 . S
N214 H220 0.984 . S
N214 H221 0.984 . S
N215 C208 1.356 . S
N215 H218 0.984 . S
N215 H219 0.985 . S
H216 N211 0.984 . S
H217 N211 0.985 . S
H218 N215 0.984 . S
H219 N215 0.985 . S
H220 N214 0.984 . S
H221 N214 0.984 . S
H222 N210 0.984 . S
H223 N210 0.985 . S
C224 C225 1.363 . S
C224 C230 1.379 . S
C224 N232 1.356 . S
C225 C224 1.363 . S
C225 C231 1.363 . S
C226 C227 1.363 . S
C226 C231 1.379 . S
C226 N233 1.356 . S
C227 C226 1.363 . S
C227 C230 1.363 . S
N228 C230 1.356 . S
N228 H240 0.984 . S
N228 H241 0.985 . S
N229 C231 1.356 . S
N229 H234 0.984 . S
N229 H235 0.985 . S
C230 C224 1.379 . S
C230 C227 1.363 . S
C230 N228 1.356 . S
C231 C225 1.363 . S
C231 C226 1.379 . S
C231 N229 1.356 . S
N232 C224 1.356 . S
N232 H238 0.984 . S
N232 H239 0.984 . S
N233 C226 1.356 . S
N233 H236 0.984 . S
N233 H237 0.985 . S
H234 N229 0.984 . S
H235 N229 0.985 . S
H236 N233 0.984 . S
H237 N233 0.985 . S
H238 N232 0.984 . S
H239 N232 0.984 . S
H240 N228 0.984 . S
H241 N228 0.985 . S
C242 C243 1.363 . S
C242 C248 1.379 . S
C242 N250 1.356 . S
C243 C242 1.363 . S
C243 C249 1.363 . S
C244 C245 1.363 . S
C244 C249 1.379 . S
C244 N251 1.356 1_455 S
C245 C244 1.363 . S
C245 C248 1.363 . S
N246 C248 1.356 . S
N246 H258 0.984 . S
N246 H259 0.985 . S
N247 C249 1.356 . S
N247 H252 0.984 . S
N247 H253 0.985 1_455 S
C248 C242 1.379 . S
C248 C245 1.363 . S
C248 N246 1.356 . S
C249 C243 1.363 . S
C249 C244 1.379 . S
C249 N247 1.356 . S
N250 C242 1.356 . S
N250 H256 0.984 . S
N250 H257 0.984 . S
N251 C244 1.356 1_655 S
N251 H254 0.984 . S
N251 H255 0.985 . S
H252 N247 0.984 . S
H253 N247 0.985 1_655 S
H254 N251 0.984 . S
H255 N251 0.985 . S
H256 N250 0.984 . S
H257 N250 0.984 . S
H258 N246 0.984 . S
H259 N246 0.985 . S
C260 C261 1.363 . S
C260 C266 1.379 1_554 S
C260 N268 1.356 . S
C261 C260 1.363 . S
C261 C267 1.363 1_554 S
C262 C263 1.363 . S
C262 C267 1.379 . S
C262 N269 1.356 . S
C263 C262 1.363 . S
C263 C266 1.363 . S
N264 C266 1.356 1_544 S
N264 H276 0.984 . S
N264 H277 0.985 1_554 S
N265 C267 1.356 . S
N265 H270 0.984 . S
N265 H271 0.985 . S
C266 C260 1.379 1_556 S
C266 C263 1.363 . S
C266 N264 1.356 1_566 S
C267 C261 1.363 1_556 S
C267 C262 1.379 . S
C267 N265 1.356 . S
N268 C260 1.356 . S
N268 H274 0.984 1_565 S
N268 H275 0.984 . S
N269 C262 1.356 . S
N269 H272 0.984 . S
N269 H273 0.985 . S
H270 N265 0.984 . S
H271 N265 0.985 . S
H272 N269 0.984 . S
H273 N269 0.985 . S
H274 N268 0.984 1_545 S
H275 N268 0.984 . S
H276 N264 0.984 . S
H277 N264 0.985 1_556 S
C278 C279 1.364 1_556 S
C278 C284 1.379 . S
C278 N286 1.356 . S
C279 C278 1.364 1_554 S
C279 C285 1.363 . S
C280 C281 1.363 . S
C280 C285 1.379 1_556 S
C280 N287 1.356 1_556 S
C281 C280 1.363 . S
C281 C284 1.363 . S
N282 C284 1.356 . S
N282 H294 0.984 . S
N282 H295 0.985 . S
N283 C285 1.356 . S
N283 H288 0.984 . S
N283 H289 0.985 . S
C284 C278 1.379 . S
C284 C281 1.363 . S
C284 N282 1.356 . S
C285 C279 1.363 . S
C285 C280 1.379 1_554 S
C285 N283 1.356 . S
N286 C278 1.356 . S
N286 H292 0.984 . S
N286 H293 0.984 . S
N287 C280 1.356 1_554 S
N287 H290 0.984 1_554 S
N287 H291 0.985 . S
H288 N283 0.984 . S
H289 N283 0.985 . S
H290 N287 0.984 1_556 S
H291 N287 0.985 . S
H292 N286 0.984 . S
H293 N286 0.984 . S
H294 N282 0.984 . S
H295 N282 0.985 . S
C296 C297 1.363 1_556 S
C296 C302 1.379 . S
C296 N304 1.356 . S
C297 C296 1.363 1_554 S
C297 C303 1.363 1_554 S
C298 C299 1.363 . S
C298 C303 1.379 . S
C298 N305 1.356 . S
C299 C298 1.363 . S
C299 C302 1.363 . S
N300 C302 1.356 . S
N300 H312 0.984 . S
N300 H313 0.985 . S
N301 C303 1.356 1_554 S
N301 H306 0.984 . S
N301 H307 0.985 . S
C302 C296 1.379 . S
C302 C299 1.363 . S
C302 N300 1.356 . S
C303 C297 1.363 1_556 S
C303 C298 1.379 . S
C303 N301 1.356 1_556 S
N304 C296 1.356 . S
N304 H310 0.984 . S
N304 H311 0.984 1_556 S
N305 C298 1.356 . S
N305 H308 0.984 . S
N305 H309 0.985 . S
H306 N301 0.984 . S
H307 N301 0.985 . S
H308 N305 0.984 . S
H309 N305 0.985 . S
H310 N304 0.984 . S
H311 N304 0.984 1_554 S
H312 N300 0.984 . S
H313 N300 0.985 . S
C314 C315 1.363 1_456 S
C314 C320 1.379 . S
C314 N322 1.356 1_556 S
C315 C314 1.363 1_654 S
C315 C321 1.363 1_554 S
C316 C317 1.363 . S
C316 C321 1.379 . S
C316 N323 1.356 . S
C317 C316 1.363 . S
C317 C320 1.363 1_655 S
N318 C320 1.356 . S
N318 H330 0.984 . S
N318 H331 0.985 . S
N319 C321 1.356 . S
N319 H324 0.984 1_556 S
N319 H325 0.985 . S
C320 C314 1.379 . S
C320 C317 1.363 1_455 S
C320 N318 1.356 . S
C321 C315 1.363 1_556 S
C321 C316 1.379 . S
C321 N319 1.356 . S
N322 C314 1.356 1_554 S
N322 H328 0.984 . S
N322 H329 0.984 . S
N323 C316 1.356 . S
N323 H326 0.984 . S
N323 H327 0.985 . S
H324 N319 0.984 1_554 S
H325 N319 0.985 . S
H326 N323 0.984 . S
H327 N323 0.985 . S
H328 N322 0.984 . S
H329 N322 0.984 . S
H330 N318 0.984 . S
H331 N318 0.985 . S
C332 C333 1.363 . S
C332 C338 1.379 . S
C332 N340 1.356 . S
C333 C332 1.363 . S
C333 C339 1.363 . S
C334 C335 1.363 . S
C334 C339 1.379 . S
C334 N341 1.356 1_455 S
C335 C334 1.363 . S
C335 C338 1.363 . S
N336 C338 1.356 . S
N336 H348 0.984 . S
N336 H349 0.985 . S
N337 C339 1.356 . S
N337 H342 0.984 . S
N337 H343 0.985 . S
C338 C332 1.379 . S
C338 C335 1.363 . S
C338 N336 1.356 . S
C339 C333 1.363 . S
C339 C334 1.379 . S
C339 N337 1.356 . S
N340 C332 1.356 . S
N340 H346 0.984 . S
N340 H347 0.984 . S
N341 C334 1.356 1_655 S
N341 H344 0.984 . S
N341 H345 0.985 . S
H342 N337 0.984 . S
H343 N337 0.985 . S
H344 N341 0.984 . S
H345 N341 0.985 . S
H346 N340 0.984 . S
H347 N340 0.984 . S
H348 N336 0.984 . S
H349 N336 0.985 . S
C350 C351 1.363 . S
C350 C356 1.379 1_545 S
C350 N358 1.356 1_545 S
C351 C350 1.363 . S
C351 C357 1.363 . S
C352 C353 1.363 . S
C352 C357 1.379 . S
C352 N359 1.356 . S
C353 C352 1.363 . S
C353 C356 1.363 1_545 S
N354 C356 1.356 . S
N354 H366 0.984 . S
N354 H367 0.985 . S
N355 C357 1.356 . S
N355 H360 0.984 . S
N355 H361 0.985 . S
C356 C350 1.379 1_565 S
C356 C353 1.363 1_565 S
C356 N354 1.356 . S
C357 C351 1.363 . S
C357 C352 1.379 . S
C357 N355 1.356 . S
N358 C350 1.356 1_565 S
N358 H364 0.984 . S
N358 H365 0.984 1_565 S
N359 C352 1.356 . S
N359 H362 0.984 . S
N359 H363 0.985 . S
H360 N355 0.984 . S
H361 N355 0.985 . S
H362 N359 0.984 . S
H363 N359 0.985 . S
H364 N358 0.984 . S
H365 N358 0.984 1_545 S
H366 N354 0.984 . S
H367 N354 0.985 . S
C368 C369 1.363 . S
C368 C374 1.379 . S
C368 N376 1.356 . S
C369 C368 1.363 . S
C369 C375 1.363 . S
C370 C371 1.363 . S
C370 C375 1.379 . S
C370 N377 1.356 . S
C371 C370 1.363 . S
C371 C374 1.363 . S
N372 C374 1.356 . S
N372 H384 0.984 . S
N372 H385 0.985 . S
N373 C375 1.356 . S
N373 H378 0.984 . S
N373 H379 0.985 . S
C374 C368 1.379 . S
C374 C371 1.363 . S
C374 N372 1.356 . S
C375 C369 1.363 . S
C375 C370 1.379 . S
C375 N373 1.356 . S
N376 C368 1.356 . S
N376 H382 0.984 . S
N376 H383 0.984 . S
N377 C370 1.356 . S
N377 H380 0.984 . S
N377 H381 0.985 . S
H378 N373 0.984 . S
H379 N373 0.985 . S
H380 N377 0.984 . S
H381 N377 0.985 . S
H382 N376 0.984 . S
H383 N376 0.984 . S
H384 N372 0.984 . S
H385 N372 0.985 . S
C386 C387 1.363 . S
C386 C392 1.379 . S
C386 N394 1.356 . S
C387 C386 1.363 . S
C387 C393 1.363 . S
C388 C389 1.363 . S
C388 C393 1.379 . S
C388 N395 1.356 . S
C389 C388 1.363 . S
C389 C392 1.363 . S
N390 C392 1.356 . S
N390 H402 0.984 . S
N390 H403 0.985 . S
N391 C393 1.356 . S
N391 H396 0.984 . S
N391 H397 0.985 . S
C392 C386 1.379 . S
C392 C389 1.363 . S
C392 N390 1.356 . S
C393 C387 1.363 . S
C393 C388 1.379 . S
C393 N391 1.356 . S
N394 C386 1.356 . S
N394 H400 0.984 . S
N394 H401 0.984 . S
N395 C388 1.356 . S
N395 H398 0.984 . S
N395 H399 0.985 . S
H396 N391 0.984 . S
H397 N391 0.985 . S
H398 N395 0.984 . S
H399 N395 0.985 . S
H400 N394 0.984 . S
H401 N394 0.984 . S
H402 N390 0.984 . S
H403 N390 0.985 . S
C404 C405 1.363 1_455 S
C404 C410 1.379 . S
C404 N412 1.356 . S
C405 C404 1.363 1_655 S
C405 C411 1.363 1_556 S
C406 C407 1.363 1_655 S
C406 C411 1.379 1_556 S
C406 N413 1.356 . S
C407 C406 1.363 1_455 S
C407 C410 1.363 . S
N408 C410 1.356 . S
N408 H420 0.984 . S
N408 H421 0.985 . S
N409 C411 1.356 . S
N409 H414 0.984 . S
N409 H415 0.985 . S
C410 C404 1.379 . S
C410 C407 1.363 . S
C410 N408 1.356 . S
C411 C405 1.363 1_554 S
C411 C406 1.379 1_554 S
C411 N409 1.356 . S
N412 C404 1.356 . S
N412 H418 0.984 . S
N412 H419 1.002 . S
N413 C406 1.356 . S
N413 H416 0.984 . S
N413 H417 0.985 1_556 S
H414 N409 0.984 . S
H415 N409 0.985 . S
H416 N413 0.984 . S
H417 N413 0.985 1_554 S
H418 N412 0.984 . S
H419 N412 1.002 . S
H420 N408 0.984 . S
H421 N408 0.985 . S
C422 C423 1.363 . S
C422 C428 1.379 . S
C422 N430 1.356 . S
C423 C422 1.363 . S
C423 C429 1.363 1_556 S
C424 C425 1.363 1_554 S
C424 C429 1.379 1_545 S
C424 N431 1.356 . S
C425 C424 1.363 1_556 S
C425 C428 1.363 1_545 S
N426 C428 1.356 . S
N426 H438 0.984 . S
N426 H439 0.985 1_565 S
N427 C429 1.356 . S
N427 H432 0.984 . S
N427 H433 0.985 1_565 S
C428 C422 1.379 . S
C428 C425 1.363 1_565 S
C428 N426 1.356 . S
C429 C423 1.363 1_554 S
C429 C424 1.379 1_565 S
C429 N427 1.356 . S
N430 C422 1.356 . S
N430 H436 0.984 . S
N430 H437 0.984 . S
N431 C424 1.356 . S
N431 H434 0.984 . S
N431 H435 0.985 . S
H432 N427 0.984 . S
H433 N427 0.985 1_545 S
H434 N431 0.984 . S
H435 N431 0.985 . S
H436 N430 0.984 . S
H437 N430 0.984 . S
H438 N426 0.984 . S
H439 N426 0.985 1_545 S
C440 C441 1.363 1_554 S
C440 C446 1.379 . S
C440 N448 1.356 . S
C441 C440 1.363 1_556 S
C441 C447 1.363 . S
C442 C443 1.363 . S
C442 C447 1.379 . S
C442 N449 1.356 . S
C443 C442 1.363 . S
C443 C446 1.363 1_556 S
N444 C446 1.356 . S
N444 H456 0.984 . S
N444 H457 0.985 1_554 S
N445 C447 1.356 . S
N445 H450 0.984 . S
N445 H451 0.985 . S
C446 C440 1.379 . S
C446 C443 1.363 1_554 S
C446 N444 1.356 . S
C447 C441 1.363 . S
C447 C442 1.379 . S
C447 N445 1.356 . S
N448 C440 1.356 . S
N448 H454 0.984 . S
N448 H455 0.984 . S
N449 C442 1.356 . S
N449 H452 0.984 . S
N449 H453 0.985 . S
H450 N445 0.984 . S
H451 N445 0.985 . S
H452 N449 0.984 . S
H453 N449 0.985 . S
H454 N448 0.984 . S
H455 N448 0.984 . S
H456 N444 0.984 . S
H457 N444 0.985 1_556 S
C458 C459 1.363 1_554 S
C458 C464 1.379 . S
C458 N466 1.356 . S
C459 C458 1.363 1_556 S
C459 C465 1.363 . S
C460 C461 1.363 . S
C460 C465 1.379 . S
C460 N467 1.356 . S
C461 C460 1.363 . S
C461 C464 1.363 1_556 S
N462 C464 1.356 . S
N462 H474 0.984 . S
N462 H475 0.985 . S
N463 C465 1.356 . S
N463 H468 0.984 . S
N463 H469 0.985 . S
C464 C458 1.379 . S
C464 C461 1.363 1_554 S
C464 N462 1.356 . S
C465 C459 1.363 . S
C465 C460 1.379 . S
C465 N463 1.356 . S
N466 C458 1.356 . S
N466 H472 0.984 . S
N466 H473 0.984 . S
N467 C460 1.356 . S
N467 H470 0.984 . S
N467 H471 0.985 . S
H468 N463 0.984 . S
H469 N463 0.985 . S
H470 N467 0.984 . S
H471 N467 0.985 . S
H472 N466 0.984 . S
H473 N466 0.984 . S
H474 N462 0.984 . S
H475 N462 0.985 . S
C476 C477 1.363 . S
C476 C482 1.379 . S
C476 N484 1.356 . S
C477 C476 1.363 . S
C477 C483 1.363 . S
C478 C479 1.363 . S
C478 C483 1.379 1_556 S
C478 N485 1.356 . S
C479 C478 1.363 . S
C479 C482 1.363 1_556 S
N480 C482 1.356 . S
N480 H492 0.984 . S
N480 H493 0.985 . S
N481 C483 1.356 1_556 S
N481 H486 0.984 1_556 S
N481 H487 0.985 . S
C482 C476 1.379 . S
C482 C479 1.363 1_554 S
C482 N480 1.356 . S
C483 C477 1.363 . S
C483 C478 1.379 1_554 S
C483 N481 1.356 1_554 S
N484 C476 1.356 . S
N484 H490 0.984 . S
N484 H491 0.984 . S
N485 C478 1.356 . S
N485 H488 0.984 . S
N485 H489 0.985 . S
H486 N481 0.984 1_554 S
H487 N481 0.985 . S
H488 N485 0.984 . S
H489 N485 0.985 . S
H490 N484 0.984 . S
H491 N484 0.984 . S
H492 N480 0.984 . S
H493 N480 0.985 . S
C494 C495 1.363 . S
C494 C500 1.379 . S
C494 N502 1.356 . S
C495 C494 1.363 . S
C495 C501 1.363 . S
C496 C497 1.363 . S
C496 C501 1.379 1_556 S
C496 N503 1.356 . S
C497 C496 1.363 . S
C497 C500 1.363 1_556 S
N498 C500 1.356 1_565 S
N498 H510 0.984 . S
N498 H511 0.985 1_565 S
N499 C501 1.356 . S
N499 H504 0.984 . S
N499 H505 0.985 1_554 S
C500 C494 1.379 . S
C500 C497 1.363 1_554 S
C500 N498 1.356 1_545 S
C501 C495 1.363 . S
C501 C496 1.379 1_554 S
C501 N499 1.356 . S
N502 C494 1.356 . S
N502 H508 0.984 1_545 S
N502 H509 0.984 . S
N503 C496 1.356 . S
N503 H506 0.984 . S
N503 H507 0.985 . S
H504 N499 0.984 . S
H505 N499 0.985 1_556 S
H506 N503 0.984 . S
H507 N503 0.985 . S
H508 N502 0.984 1_565 S
H509 N502 0.984 . S
H510 N498 0.984 . S
H511 N498 0.985 1_545 S
C512 C513 1.363 . S
C512 C518 1.379 1_554 S
C512 N520 1.356 1_554 S
C513 C512 1.363 . S
C513 C519 1.363 . S
C514 C515 1.363 1_554 S
C514 C519 1.379 . S
C514 N521 1.356 . S
C515 C514 1.363 1_556 S
C515 C518 1.363 . S
N516 C518 1.356 . S
N516 H528 0.984 . S
N516 H529 0.985 . S
N517 C519 1.356 . S
N517 H522 0.984 . S
N517 H523 0.985 . S
C518 C512 1.379 1_556 S
C518 C515 1.363 . S
C518 N516 1.356 . S
C519 C513 1.363 . S
C519 C514 1.379 . S
C519 N517 1.356 . S
N520 C512 1.356 1_556 S
N520 H526 0.984 . S
N520 H527 0.984 1_556 S
N521 C514 1.356 . S
N521 H524 0.984 . S
N521 H525 0.985 . S
H522 N517 0.984 . S
H523 N517 0.985 . S
H524 N521 0.984 . S
H525 N521 0.985 . S
H526 N520 0.984 . S
H527 N520 0.984 1_554 S
H528 N516 0.984 . S
H529 N516 0.985 . S
C530 C531 1.363 . S
C530 C536 1.379 . S
C530 N538 1.356 . S
C531 C530 1.363 . S
C531 C537 1.363 . S
C532 C533 1.363 . S
C532 C537 1.379 1_556 S
C532 N539 1.356 . S
C533 C532 1.363 . S
C533 C536 1.363 1_556 S
N534 C536 1.356 . S
N534 H546 0.984 . S
N534 H547 0.985 . S
N535 C537 1.356 . S
N535 H540 0.984 . S
N535 H541 0.985 1_554 S
C536 C530 1.379 . S
C536 C533 1.363 1_554 S
C536 N534 1.356 . S
C537 C531 1.363 . S
C537 C532 1.379 1_554 S
C537 N535 1.356 . S
N538 C530 1.356 . S
N538 H544 0.984 . S
N538 H545 0.984 . S
N539 C532 1.356 . S
N539 H542 0.984 . S
N539 H543 0.985 . S
H540 N535 0.984 . S
H541 N535 0.985 1_556 S
H542 N539 0.984 . S
H543 N539 0.985 . S
H544 N538 0.984 . S
H545 N538 0.984 . S
H546 N534 0.984 . S
H547 N534 0.985 . S
C548 C549 1.363 . S
C548 C554 1.379 . S
C548 N556 1.356 . S
C549 C548 1.363 . S
C549 C555 1.363 . S
C550 C551 1.363 1_455 S
C550 C555 1.379 1_455 S
C550 N557 1.356 . S
C551 C550 1.363 1_655 S
C551 C554 1.363 . S
N552 C554 1.356 . S
N552 H564 0.984 . S
N552 H565 0.985 . S
N553 C555 1.356 1_455 S
N553 H558 0.984 . S
N553 H559 0.985 . S
C554 C548 1.379 . S
C554 C551 1.363 . S
C554 N552 1.356 . S
C555 C549 1.363 . S
C555 C550 1.379 1_655 S
C555 N553 1.356 1_655 S
N556 C548 1.356 . S
N556 H562 0.984 . S
N556 H563 0.984 . S
N557 C550 1.356 . S
N557 H560 0.984 . S
N557 H561 0.985 . S
H558 N553 0.984 . S
H559 N553 0.985 . S
H560 N557 0.984 . S
H561 N557 0.985 . S
H562 N556 0.984 . S
H563 N556 0.984 . S
H564 N552 0.984 . S
H565 N552 0.985 . S
C566 C567 1.363 1_545 S
C566 C572 1.379 . S
C566 N574 1.356 . S
C567 C566 1.363 1_565 S
C567 C573 1.363 . S
C568 C569 1.363 . S
C568 C573 1.379 . S
C568 N575 1.356 . S
C569 C568 1.363 . S
C569 C572 1.363 1_565 S
N570 C572 1.356 . S
N570 H582 0.984 . S
N570 H583 0.985 . S
N571 C573 1.356 . S
N571 H576 0.984 . S
N571 H577 0.985 . S
C572 C566 1.379 . S
C572 C569 1.363 1_545 S
C572 N570 1.356 . S
C573 C567 1.363 . S
C573 C568 1.379 . S
C573 N571 1.356 . S
N574 C566 1.356 . S
N574 H580 0.984 . S
N574 H581 0.984 . S
N575 C568 1.356 . S
N575 H578 0.984 . S
N575 H579 0.985 . S
H576 N571 0.984 . S
H577 N571 0.985 . S
H578 N575 0.984 . S
H579 N575 0.985 . S
H580 N574 0.984 . S
H581 N574 0.984 . S
H582 N570 0.984 . S
H583 N570 0.985 . S
C584 C585 1.363 . S
C584 C590 1.379 . S
C584 N592 1.356 . S
C585 C584 1.363 . S
C585 C591 1.363 . S
C586 C587 1.363 . S
C586 C591 1.379 . S
C586 N593 1.356 . S
C587 C586 1.363 . S
C587 C590 1.363 . S
N588 C590 1.356 . S
N588 H600 0.984 . S
N588 H601 0.985 . S
N589 C591 1.356 . S
N589 H594 0.984 . S
N589 H595 0.985 . S
C590 C584 1.379 . S
C590 C587 1.363 . S
C590 N588 1.356 . S
C591 C585 1.363 . S
C591 C586 1.379 . S
C591 N589 1.356 . S
N592 C584 1.356 . S
N592 H598 0.984 . S
N592 H599 0.984 . S
N593 C586 1.356 . S
N593 H596 0.984 . S
N593 H597 0.985 . S
H594 N589 0.984 . S
H595 N589 0.985 . S
H596 N593 0.984 . S
H597 N593 0.985 . S
H598 N592 0.984 . S
H599 N592 0.984 . S
H600 N588 0.984 . S
H601 N588 0.985 . S
C602 C603 1.363 . S
C602 C608 1.379 . S
C602 N610 1.356 . S
C603 C602 1.363 . S
C603 C609 1.363 . S
C604 C605 1.363 . S
C604 C609 1.379 . S
C604 N611 1.356 . S
C605 C604 1.363 . S
C605 C608 1.363 . S
N606 C608 1.356 . S
N606 H618 0.984 . S
N606 H619 0.985 . S
N607 C609 1.356 . S
N607 H612 0.984 . S
N607 H613 0.985 . S
C608 C602 1.379 . S
C608 C605 1.363 . S
C608 N606 1.356 . S
C609 C603 1.363 . S
C609 C604 1.379 . S
C609 N607 1.356 . S
N610 C602 1.356 . S
N610 H616 0.984 . S
N610 H617 0.984 . S
N611 C604 1.356 . S
N611 H614 0.984 . S
N611 H615 0.985 . S
H612 N607 0.984 . S
H613 N607 0.985 . S
H614 N611 0.984 . S
H615 N611 0.985 . S
H616 N610 0.984 . S
H617 N610 0.984 . S
H618 N606 0.984 . S
H619 N606 0.985 . S
C189 N80 1.637 . S
C191 C120 1.480 1_545 S
C209 C138 1.480 . S
C207 N93 1.637 . S
C227 C159 1.480 . S
C225 N54 1.637 . S
C245 C183 1.480 1_455 S
C243 N67 1.637 . S
C263 C117 1.371 1_565 S
C261 N28 1.529 . S
C279 N41 1.528 . S
C281 C141 1.370 . S
C297 N2 1.529 . S
C299 C162 1.371 . S
C315 N15 1.528 . S
C317 C180 1.370 1_655 S
C335 C122 0.925 1_455 S
C333 N70 0.938 . S
C353 C140 0.925 1_545 S
C351 N83 0.938 . S
C371 C161 0.925 . S
C369 N96 0.938 . S
C387 N57 0.938 . S
C389 C185 0.925 . S
C405 N18 1.003 1_556 S
C407 C121 1.000 . S
C425 C139 1.000 . S
C423 N31 1.004 1_556 S
C443 C160 1.000 . S
C441 N44 1.003 1_556 S
C459 N5 1.004 1_556 S
C461 C184 1.000 . S
C477 N66 1.627 . S
C479 C118 1.532 . S
C495 N79 1.627 . S
C497 C142 1.532 . S
C515 C163 1.532 . S
C513 N92 1.627 . S
C533 C181 1.532 . S
C531 N53 1.627 . S
C549 N14 1.525 . S
C551 C119 1.420 . S
C569 C143 1.420 . S
C567 N27 1.525 . S
C587 C164 1.420 . S
C585 N40 1.525 . S
C603 N1 1.525 . S
C605 C182 1.420 . S
