# Generated by pormake.
# Topology ctn, (3,4)-cn, num edge types: 1
# Building blocks:
#     Node 0, Type 0, BuildingBlock: BELTOD_clean_linker_0, # of connection points: 3
#     Node 1, Type 0, BuildingBlock: BELTOD_clean_linker_0, # of connection points: 3
#     Node 2, Type 0, BuildingBlock: BELTOD_clean_linker_0, # of connection points: 3
#     Node 3, Type 0, BuildingBlock: BELTOD_clean_linker_0, # of connection points: 3
#     Node 4, Type 0, BuildingBlock: BELTOD_clean_linker_0, # of connection points: 3
#     Node 5, Type 0, BuildingBlock: BELTOD_clean_linker_0, # of connection points: 3
#     Node 6, Type 0, BuildingBlock: BELTOD_clean_linker_0, # of connection points: 3
#     Node 7, Type 0, BuildingBlock: BELTOD_clean_linker_0, # of connection points: 3
#     Node 8, Type 0, BuildingBlock: BELTOD_clean_linker_0, # of connection points: 3
#     Node 9, Type 0, BuildingBlock: BELTOD_clean_linker_0, # of connection points: 3
#     Node 10, Type 0, BuildingBlock: BELTOD_clean_linker_0, # of connection points: 3
#     Node 11, Type 0, BuildingBlock: BELTOD_clean_linker_0, # of connection points: 3
#     Node 12, Type 0, BuildingBlock: BELTOD_clean_linker_0, # of connection points: 3
#     Node 13, Type 0, BuildingBlock: BELTOD_clean_linker_0, # of connection points: 3
#     Node 14, Type 0, BuildingBlock: BELTOD_clean_linker_0, # of connection points: 3
#     Node 15, Type 0, BuildingBlock: BELTOD_clean_linker_0, # of connection points: 3
#     Node 16, Type 1, BuildingBlock: AZAVOO_clean_sbu_0, # of connection points: 4
#     Node 17, Type 1, BuildingBlock: AZAVOO_clean_sbu_0, # of connection points: 4
#     Node 18, Type 1, BuildingBlock: AZAVOO_clean_sbu_0, # of connection points: 4
#     Node 19, Type 1, BuildingBlock: AZAVOO_clean_sbu_0, # of connection points: 4
#     Node 20, Type 1, BuildingBlock: AZAVOO_clean_sbu_0, # of connection points: 4
#     Node 21, Type 1, BuildingBlock: AZAVOO_clean_sbu_0, # of connection points: 4
#     Node 22, Type 1, BuildingBlock: AZAVOO_clean_sbu_0, # of connection points: 4
#     Node 23, Type 1, BuildingBlock: AZAVOO_clean_sbu_0, # of connection points: 4
#     Node 24, Type 1, BuildingBlock: AZAVOO_clean_sbu_0, # of connection points: 4
#     Node 25, Type 1, BuildingBlock: AZAVOO_clean_sbu_0, # of connection points: 4
#     Node 26, Type 1, BuildingBlock: AZAVOO_clean_sbu_0, # of connection points: 4
#     Node 27, Type 1, BuildingBlock: AZAVOO_clean_sbu_0, # of connection points: 4
#     Edge 28, Type (0, 1), BuildingBlock: OJICUG_clean_linker_0, # of connection points: 2
#     Edge 29, Type (0, 1), BuildingBlock: OJICUG_clean_linker_0, # of connection points: 2
#     Edge 30, Type (0, 1), BuildingBlock: OJICUG_clean_linker_0, # of connection points: 2
#     Edge 31, Type (0, 1), BuildingBlock: OJICUG_clean_linker_0, # of connection points: 2
#     Edge 32, Type (0, 1), BuildingBlock: OJICUG_clean_linker_0, # of connection points: 2
#     Edge 33, Type (0, 1), BuildingBlock: OJICUG_clean_linker_0, # of connection points: 2
#     Edge 34, Type (0, 1), BuildingBlock: OJICUG_clean_linker_0, # of connection points: 2
#     Edge 35, Type (0, 1), BuildingBlock: OJICUG_clean_linker_0, # of connection points: 2
#     Edge 36, Type (0, 1), BuildingBlock: OJICUG_clean_linker_0, # of connection points: 2
#     Edge 37, Type (0, 1), BuildingBlock: OJICUG_clean_linker_0, # of connection points: 2
#     Edge 38, Type (0, 1), BuildingBlock: OJICUG_clean_linker_0, # of connection points: 2
#     Edge 39, Type (0, 1), BuildingBlock: OJICUG_clean_linker_0, # of connection points: 2
#     Edge 40, Type (0, 1), BuildingBlock: OJICUG_clean_linker_0, # of connection points: 2
#     Edge 41, Type (0, 1), BuildingBlock: OJICUG_clean_linker_0, # of connection points: 2
#     Edge 42, Type (0, 1), BuildingBlock: OJICUG_clean_linker_0, # of connection points: 2
#     Edge 43, Type (0, 1), BuildingBlock: OJICUG_clean_linker_0, # of connection points: 2
#     Edge 44, Type (0, 1), BuildingBlock: OJICUG_clean_linker_0, # of connection points: 2
#     Edge 45, Type (0, 1), BuildingBlock: OJICUG_clean_linker_0, # of connection points: 2
#     Edge 46, Type (0, 1), BuildingBlock: OJICUG_clean_linker_0, # of connection points: 2
#     Edge 47, Type (0, 1), BuildingBlock: OJICUG_clean_linker_0, # of connection points: 2
#     Edge 48, Type (0, 1), BuildingBlock: OJICUG_clean_linker_0, # of connection points: 2
#     Edge 49, Type (0, 1), BuildingBlock: OJICUG_clean_linker_0, # of connection points: 2
#     Edge 50, Type (0, 1), BuildingBlock: OJICUG_clean_linker_0, # of connection points: 2
#     Edge 51, Type (0, 1), BuildingBlock: OJICUG_clean_linker_0, # of connection points: 2
#     Edge 52, Type (0, 1), BuildingBlock: OJICUG_clean_linker_0, # of connection points: 2
#     Edge 53, Type (0, 1), BuildingBlock: OJICUG_clean_linker_0, # of connection points: 2
#     Edge 54, Type (0, 1), BuildingBlock: OJICUG_clean_linker_0, # of connection points: 2
#     Edge 55, Type (0, 1), BuildingBlock: OJICUG_clean_linker_0, # of connection points: 2
#     Edge 56, Type (0, 1), BuildingBlock: OJICUG_clean_linker_0, # of connection points: 2
#     Edge 57, Type (0, 1), BuildingBlock: OJICUG_clean_linker_0, # of connection points: 2
#     Edge 58, Type (0, 1), BuildingBlock: OJICUG_clean_linker_0, # of connection points: 2
#     Edge 59, Type (0, 1), BuildingBlock: OJICUG_clean_linker_0, # of connection points: 2
#     Edge 60, Type (0, 1), BuildingBlock: OJICUG_clean_linker_0, # of connection points: 2
#     Edge 61, Type (0, 1), BuildingBlock: OJICUG_clean_linker_0, # of connection points: 2
#     Edge 62, Type (0, 1), BuildingBlock: OJICUG_clean_linker_0, # of connection points: 2
#     Edge 63, Type (0, 1), BuildingBlock: OJICUG_clean_linker_0, # of connection points: 2
#     Edge 64, Type (0, 1), BuildingBlock: OJICUG_clean_linker_0, # of connection points: 2
#     Edge 65, Type (0, 1), BuildingBlock: OJICUG_clean_linker_0, # of connection points: 2
#     Edge 66, Type (0, 1), BuildingBlock: OJICUG_clean_linker_0, # of connection points: 2
#     Edge 67, Type (0, 1), BuildingBlock: OJICUG_clean_linker_0, # of connection points: 2
#     Edge 68, Type (0, 1), BuildingBlock: OJICUG_clean_linker_0, # of connection points: 2
#     Edge 69, Type (0, 1), BuildingBlock: OJICUG_clean_linker_0, # of connection points: 2
#     Edge 70, Type (0, 1), BuildingBlock: OJICUG_clean_linker_0, # of connection points: 2
#     Edge 71, Type (0, 1), BuildingBlock: OJICUG_clean_linker_0, # of connection points: 2
#     Edge 72, Type (0, 1), BuildingBlock: OJICUG_clean_linker_0, # of connection points: 2
#     Edge 73, Type (0, 1), BuildingBlock: OJICUG_clean_linker_0, # of connection points: 2
#     Edge 74, Type (0, 1), BuildingBlock: OJICUG_clean_linker_0, # of connection points: 2
#     Edge 75, Type (0, 1), BuildingBlock: OJICUG_clean_linker_0, # of connection points: 2
# Relax obj value: 0.002
# Max RMSD: 0.041
# Mean RMSD: 0.025
data_MOF--net-ctn--node1-AZAVOO_clean_sbu_0--node2-BELTOD_clean_linker_0--edge1-OJICUG_clean_linker_0
_symmetry_space_group_name_H-M    P1
_symmetry_Int_Tables_number       1
_symmetry_cell_setting            triclinic
loop_
_symmetry_equiv_pos_as_xyz
'x, y, z'
_cell_length_a     46.355396
_cell_length_b     47.645775
_cell_length_c     47.110477
_cell_angle_alpha  89.385564
_cell_angle_beta   93.212566
_cell_angle_gamma 94.200976
loop_
_atom_site_label
_atom_site_type_symbol
_atom_site_fract_x
_atom_site_fract_y
_atom_site_fract_z
_atom_type_partial_charge
P0 P 0.09432 0.05308 0.05363 0.0
H1 H 0.091 0.03324 0.11215 0.0
H2 H 0.05037 0.02229 0.14194 0.0
H3 H 0.9907 0.03309 0.06939 0.0
H4 H 0.03174 0.04481 0.03985 0.0
H5 H 0.15326 0.03927 0.04448 0.0
H6 H 0.17302 0.99761 0.02623 0.0
H7 H 0.08626 0.96297 0.00248 0.0
H8 H 0.06661 0.00457 0.02194 0.0
H9 H 0.08268 0.10991 0.06662 0.0
H10 H 0.07932 0.05808 0.99189 0.0
O11 O 0.12048 0.06676 0.07627 0.0
H12 H 0.06592 0.14899 0.03807 0.0
H13 H 0.06185 0.09719 0.96294 0.0
C14 C 0.06433 0.04046 0.07402 0.0
C15 C 0.06919 0.03297 0.10259 0.0
C16 C 0.04585 0.02644 0.11955 0.0
C17 C 0.01717 0.02702 0.10813 0.0
C18 C 0.01247 0.03294 0.07898 0.0
C19 C 0.0359 0.03954 0.06204 0.0
C20 C 0.10846 0.0247 0.03513 0.0
C21 C 0.13847 0.02286 0.03508 0.0
C22 C 0.14979 -0.00096 0.02434 0.0
C23 C 0.13127 0.97666 0.01311 0.0
C24 C 0.10116 0.97949 0.01152 0.0
C25 C 0.08986 0.00332 0.02249 0.0
C26 C 0.0828 0.08138 0.03126 0.0
C27 C 0.07836 0.10701 0.04396 0.0
C28 C 0.06838 0.12923 0.02764 0.0
C29 C 0.06235 0.1262 0.99821 0.0
C30 C 0.06653 0.10026 0.98552 0.0
C31 C 0.07654 0.07792 0.00199 0.0
P32 P 0.35313 0.69941 0.21264 0.0
H33 H 0.371 0.71582 0.15604 0.0
H34 H 0.34917 0.74471 0.1189 0.0
H35 H 0.28694 0.76934 0.17707 0.0
H36 H 0.30924 0.74043 0.2145 0.0
H37 H 0.36401 0.67155 0.2667 0.0
H38 H 0.38958 0.68675 0.31111 0.0
H39 H 0.40335 0.77079 0.27664 0.0
H40 H 0.37767 0.75525 0.23196 0.0
H41 H 0.32815 0.65181 0.17931 0.0
H42 H 0.3088 0.69504 0.2551 0.0
O43 O 0.37857 0.68189 0.19836 0.0
H44 H 0.2875 0.61732 0.18616 0.0
H45 H 0.26885 0.6599 0.26292 0.0
C46 C 0.34166 0.72595 0.18799 0.0
C47 C 0.35311 0.72791 0.1611 0.0
C48 C 0.34048 0.74429 0.13978 0.0
C49 C 0.31609 0.75894 0.14497 0.0
C50 C 0.30578 0.75837 0.17251 0.0
C51 C 0.31847 0.74187 0.19387 0.0
C52 C 0.36831 0.71244 0.24633 0.0
C53 C 0.3719 0.69343 0.26892 0.0
C54 C 0.38652 0.70216 0.29434 0.0
C55 C 0.39834 0.73003 0.29749 0.0
C56 C 0.39453 0.74916 0.27482 0.0
C57 C 0.37968 0.74038 0.24937 0.0
C58 C 0.32214 0.67522 0.21732 0.0
C59 C 0.31524 0.65372 0.19756 0.0
C60 C 0.29201 0.63403 0.20154 0.0
C61 C 0.27526 0.63549 0.22543 0.0
C62 C 0.28126 0.65813 0.2443 0.0
C63 C 0.30437 0.67801 0.24009 0.0
P64 P 0.98564 0.51839 0.04319 0.0
H65 H 0.02852 0.49137 0.01322 0.0
H66 H 0.02929 0.44523 0.99159 0.0
H67 H 0.94102 0.42496 0.01422 0.0
H68 H 0.94083 0.47112 0.03665 0.0
H69 H 0.93745 0.532 0.00498 0.0
H70 H 0.89238 0.55365 0.01232 0.0
H71 H 0.91081 0.55032 0.10324 0.0
H72 H 0.95629 0.52946 0.09561 0.0
H73 H 0.03372 0.55596 0.06615 0.0
H74 H 0.98868 0.47765 0.09022 0.0
O75 O 1.00066 0.54211 0.02111 0.0
H76 H 0.06887 0.55157 0.10621 0.0
H77 H 0.02398 0.47316 0.13065 0.0
C78 C 0.98449 0.48479 0.02605 0.0
C79 C 0.00924 0.47709 0.01326 0.0
C80 C 0.00957 0.45073 0.00075 0.0
C81 C 0.98509 0.43145 0.00083 0.0
C82 C 0.96027 0.43925 0.01385 0.0
C83 C 0.96003 0.46571 0.02649 0.0
C84 C 0.95028 0.52934 0.04968 0.0
C85 C 0.93153 0.53555 0.02651 0.0
C86 C 0.90565 0.54779 0.03077 0.0
C87 C 0.89801 0.55396 0.05839 0.0
C88 C 0.91626 0.54632 0.08167 0.0
C89 C 0.94223 0.53418 0.07734 0.0
C90 C 0.00891 0.51689 0.07498 0.0
C91 C 0.03123 0.53793 0.0802 0.0
C92 C 0.05134 0.53538 0.10308 0.0
C93 C 0.04933 0.51185 0.12131 0.0
C94 C 0.02599 0.49152 0.11695 0.0
C95 C 0.00595 0.494 0.09384 0.0
P96 P 0.67544 0.86088 0.19415 0.0
H97 H 0.72584 0.86797 0.1595 0.0
H98 H 0.77238 0.8955 0.16584 0.0
H99 H 0.74615 0.92727 0.24524 0.0
H100 H 0.69969 0.89971 0.2388 0.0
H101 H 0.63957 0.82667 0.1527 0.0
H102 H 0.64696 0.78279 0.12853 0.0
H103 H 0.72881 0.77779 0.17632 0.0
H104 H 0.72096 0.82132 0.20071 0.0
H105 H 0.62464 0.88183 0.21905 0.0
H106 H 0.69149 0.82652 0.24336 0.0
O107 O 0.65371 0.87919 0.1728 0.0
H108 H 0.60316 0.87331 0.26484 0.0
H109 H 0.66975 0.81721 0.28879 0.0
C110 C 0.70967 0.88113 0.19908 0.0
C111 C 0.73023 0.88063 0.17841 0.0
C112 C 0.7568 0.89636 0.18205 0.0
C113 C 0.763 0.91334 0.20616 0.0
C114 C 0.74196 0.91442 0.22642 0.0
C115 C 0.71549 0.89849 0.22287 0.0
C116 C 0.68008 0.82759 0.1779 0.0
C117 C 0.65902 0.81604 0.15804 0.0
C118 C 0.66328 0.79095 0.14426 0.0
C119 C 0.68861 0.77691 0.15029 0.0
C120 C 0.70896 0.78791 0.17131 0.0
C121 C 0.70465 0.81297 0.18507 0.0
C122 C 0.65938 0.85444 0.22768 0.0
C123 C 0.63457 0.86767 0.23415 0.0
C124 C 0.62227 0.86272 0.26032 0.0
C125 C 0.63468 0.84451 0.28048 0.0
C126 C 0.65982 0.83162 0.27394 0.0
C127 C 0.67211 0.83665 0.24781 0.0
P128 P 0.06221 0.96858 0.4642 0.0
H129 H 0.1108 0.96905 0.50595 0.0
H130 H 0.14038 0.00742 0.52962 0.0
H131 H 0.0812 0.06656 0.49453 0.0
H132 H 0.0511 0.0281 0.47273 0.0
H133 H 0.05879 0.91071 0.44595 0.0
H134 H 0.04563 0.86614 0.46919 0.0
H135 H 0.03083 0.91029 0.54611 0.0
H136 H 0.04377 0.95532 0.52225 0.0
H137 H 0.05697 0.01195 0.42086 0.0
H138 H 1.00019 0.94839 0.45926 0.0
O139 O 0.08729 0.96186 0.44163 0.0
H140 H 0.01799 0.02246 0.38623 0.0
H141 H 0.96134 0.95833 0.42405 0.0
C142 C 0.07886 0.99566 0.48738 0.0
C143 C 0.10379 0.99022 0.50415 0.0
C144 C 0.1209 0.01227 0.51735 0.0
C145 C 0.1136 0.0403 0.51363 0.0
C146 C 0.08756 0.04535 0.49817 0.0
C147 C 0.07032 0.02324 0.48533 0.0
C148 C 0.05303 0.93618 0.48264 0.0
C149 C 0.05303 0.91084 0.46792 0.0
C150 C 0.04553 0.88534 0.48127 0.0
C151 C 0.03769 0.88461 0.50969 0.0
C152 C 0.03688 0.91018 0.52424 0.0
C153 C 0.04447 0.93585 0.51074 0.0
C154 C 0.03155 0.97947 0.44269 0.0
C155 C 0.0359 0.00074 0.42228 0.0
C156 C 0.01357 0.0068 0.40257 0.0
C157 C 0.98662 0.99125 0.40253 0.0
C158 C 0.98191 0.97065 0.42368 0.0
C159 C 0.00416 0.96494 0.44377 0.0
P160 P 0.21716 0.736 0.73766 0.0
H161 H 0.24595 0.78363 0.76915 0.0
H162 H 0.24463 0.7987 0.81848 0.0
H163 H 0.18065 0.73056 0.83391 0.0
H164 H 0.18165 0.71583 0.78422 0.0
H165 H 0.25048 0.7135 0.6939 0.0
H166 H 0.28208 0.67472 0.69309 0.0
H167 H 0.26552 0.65539 0.78077 0.0
H168 H 0.23421 0.6944 0.78152 0.0
H169 H 0.1661 0.7674 0.72849 0.0
H170 H 0.19091 0.68446 0.70939 0.0
O171 O 0.23242 0.76209 0.71842 0.0
H172 H 0.1206 0.7581 0.70026 0.0
H173 H 0.14537 0.67489 0.68148 0.0
C174 C 0.21379 0.7487 0.77306 0.0
C175 C 0.2312 0.77225 0.78296 0.0
C176 C 0.23035 0.78093 0.8111 0.0
C177 C 0.21247 0.76584 0.82993 0.0
C178 C 0.19462 0.74255 0.81979 0.0
C179 C 0.19514 0.73416 0.79148 0.0
C180 C 0.2403 0.70716 0.73784 0.0
C181 C 0.25374 0.70099 0.71298 0.0
C182 C 0.27161 0.67865 0.71249 0.0
C183 C 0.27634 0.66195 0.73689 0.0
C184 C 0.26261 0.66806 0.76174 0.0
C185 C 0.24459 0.69037 0.76215 0.0
C186 C 0.18193 0.72673 0.72095 0.0
C187 C 0.16148 0.74698 0.71869 0.0
C188 C 0.13541 0.74157 0.70265 0.0
C189 C 0.12942 0.7158 0.68846 0.0
C190 C 0.14951 0.69509 0.69182 0.0
C191 C 0.17556 0.70052 0.7079 0.0
P192 P 0.99507 0.47741 0.49277 0.0
H193 H 0.05712 0.47546 0.48745 0.0
H194 H 0.08784 0.48035 0.44717 0.0
H195 H 0.01228 0.48823 0.39049 0.0
H196 H 0.98138 0.48297 0.43121 0.0
H197 H 0.94968 0.49817 0.52593 0.0
H198 H 0.94057 0.54497 0.54225 0.0
H199 H 0.01587 0.57983 0.50027 0.0
H200 H 0.024 0.53321 0.48306 0.0
H201 H 0.98135 0.41842 0.50618 0.0
H202 H 0.93743 0.48628 0.46597 0.0
O203 O 0.01415 0.46453 0.52039 0.0
H204 H 0.93664 0.38827 0.50261 0.0
H205 H 0.89231 0.45588 0.46179 0.0
C206 C 0.01693 0.47844 0.46228 0.0
C207 C 0.04703 0.47783 0.46636 0.0
C208 C 0.06463 0.48088 0.4433 0.0
C209 C 0.05252 0.48483 0.41564 0.0
C210 C 0.02222 0.48495 0.4115 0.0
C211 C 0.00456 0.48199 0.43473 0.0
C212 C 0.98694 0.51229 0.50249 0.0
C213 C 0.96381 0.51599 0.51968 0.0
C214 C 0.95888 0.54276 0.52936 0.0
C215 C 0.97742 0.56629 0.52253 0.0
C216 C 1.00075 0.56236 0.50544 0.0
C217 C 0.00548 0.53562 0.4956 0.0
C218 C 0.96255 0.45471 0.48684 0.0
C219 C 0.96209 0.42676 0.49631 0.0
C220 C 0.93648 0.40945 0.49406 0.0
C221 C 0.9108 0.41968 0.48201 0.0
C222 C 0.9116 0.4475 0.47157 0.0
C223 C 0.93737 0.46483 0.47379 0.0
P224 P 0.83139 0.79274 0.81799 0.0
H225 H 0.87898 0.81978 0.78802 0.0
H226 H 0.90605 0.80554 0.74817 0.0
H227 H 0.85255 0.7274 0.74248 0.0
H228 H 0.8257 0.74178 0.78258 0.0
H229 H 0.81175 0.84356 0.84211 0.0
H230 H 0.77423 0.87464 0.82687 0.0
H231 H 0.75367 0.82396 0.7519 0.0
H232 H 0.79162 0.79297 0.76729 0.0
H233 H 0.85104 0.73925 0.84024 0.0
H234 H 0.77372 0.7844 0.84061 0.0
O235 O 0.85525 0.80999 0.84058 0.0
H236 H 0.82994 0.70439 0.87324 0.0
H237 H 0.75329 0.75094 0.87397 0.0
C238 C 0.85086 0.78153 0.78865 0.0
C239 C 0.87321 0.7995 0.77828 0.0
C240 C 0.88851 0.79144 0.75536 0.0
C241 C 0.8816 0.76525 0.74228 0.0
C242 C 0.85875 0.74748 0.75244 0.0
C243 C 0.84336 0.75566 0.77533 0.0
C244 C 0.80499 0.81648 0.8054 0.0
C245 C 0.79938 0.83928 0.82225 0.0
C246 C 0.77757 0.85676 0.81374 0.0
C247 C 0.76085 0.85168 0.78823 0.0
C248 C 0.76632 0.82853 0.77154 0.0
C249 C 0.78809 0.81093 0.78021 0.0
C250 C 0.8139 0.76426 0.83759 0.0
C251 C 0.82933 0.74135 0.84693 0.0
C252 C 0.81733 0.72159 0.866 0.0
C253 C 0.78982 0.72471 0.87638 0.0
C254 C 0.77417 0.74727 0.86608 0.0
C255 C 0.78605 0.76676 0.84696 0.0
P256 P 0.32733 0.29086 0.314 0.0
H257 H 0.36604 0.32034 0.27572 0.0
H258 H 0.39292 0.30513 0.23623 0.0
H259 H 0.35467 0.22034 0.2463 0.0
H260 H 0.32836 0.2357 0.2863 0.0
H261 H 0.29922 0.33471 0.34168 0.0
H262 H 0.26002 0.36379 0.32654 0.0
H263 H 0.24859 0.31869 0.24704 0.0
H264 H 0.28856 0.29009 0.26225 0.0
H265 H 0.35317 0.26542 0.365 0.0
H266 H 0.27335 0.25455 0.31348 0.0
O267 O 0.3511 0.31215 0.33298 0.0
H268 H 0.33268 0.23417 0.40115 0.0
H269 H 0.25274 0.22274 0.3494 0.0
C270 C 0.34563 0.27906 0.28416 0.0
C271 C 0.36349 0.29846 0.26941 0.0
C272 C 0.37868 0.28977 0.2467 0.0
C273 C 0.37611 0.26146 0.23815 0.0
C274 C 0.35757 0.24218 0.25265 0.0
C275 C 0.34239 0.25094 0.27545 0.0
C276 C 0.29735 0.31095 0.30271 0.0
C277 C 0.28827 0.3311 0.32099 0.0
C278 C 0.2655 0.34742 0.31244 0.0
C279 C 0.25112 0.34367 0.28549 0.0
C280 C 0.25946 0.32242 0.26775 0.0
C281 C 0.28235 0.30612 0.27635 0.0
C282 C 0.31449 0.26286 0.33699 0.0
C283 C 0.33142 0.2558 0.3612 0.0
C284 C 0.31971 0.2377 0.38177 0.0
C285 C 0.29088 0.22624 0.37836 0.0
C286 C 0.2748 0.23165 0.35291 0.0
C287 C 0.28658 0.24977 0.33234 0.0
P288 P 0.48466 0.01511 0.54342 0.0
H289 H 0.47357 0.99675 0.48471 0.0
H290 H 0.47108 0.95039 0.46255 0.0
H291 H 0.47893 0.91159 0.54571 0.0
H292 H 0.48081 0.95789 0.56765 0.0
H293 H 0.46929 0.07296 0.5431 0.0
H294 H 0.42394 0.09453 0.54913 0.0
H295 H 0.38202 0.01295 0.56758 0.0
H296 H 0.42781 0.99126 0.56128 0.0
H297 H 0.5473 0.02135 0.54982 0.0
H298 H 0.47645 0.00334 0.60424 0.0
O299 O 0.50103 0.03595 0.51953 0.0
H300 H 0.5818 0.01576 0.58984 0.0
H301 H 0.51113 0.99659 0.64468 0.0
C302 C 0.47809 0.98079 0.52777 0.0
C303 C 0.47441 0.97822 0.49817 0.0
C304 C 0.47311 0.95173 0.48552 0.0
C305 C 0.47526 0.92732 0.50234 0.0
C306 C 0.47712 0.92993 0.53213 0.0
C307 C 0.47843 0.95646 0.54473 0.0
C308 C 0.45169 0.03048 0.5511 0.0
C309 C 0.4504 0.05965 0.54848 0.0
C310 C 0.42445 0.07196 0.55186 0.0
C311 C 0.39935 0.05534 0.55833 0.0
C312 C 0.40103 0.02621 0.56247 0.0
C313 C 0.4271 0.01382 0.55879 0.0
C314 C 0.50934 0.01323 0.57415 0.0
C315 C 0.53915 0.01637 0.57051 0.0
C316 C 0.5589 0.01277 0.59343 0.0
C317 C 0.5493 0.00535 0.6205 0.0
C318 C 0.51928 0.0025 0.62419 0.0
C319 C 0.49944 0.00634 0.60113 0.0
P320 P 0.17843 0.366 0.69522 0.0
H321 H 0.23483 0.36072 0.67081 0.0
H322 H 0.28091 0.38856 0.6759 0.0
H323 H 0.24382 0.44426 0.73345 0.0
H324 H 0.1973 0.41667 0.72747 0.0
H325 H 0.17326 0.34737 0.63632 0.0
H326 H 0.18312 0.30362 0.6137 0.0
H327 H 0.20387 0.26734 0.69622 0.0
H328 H 0.19491 0.3117 0.71858 0.0
H329 H 0.11872 0.35419 0.71015 0.0
H330 H 0.20317 0.36187 0.75377 0.0
O331 O 0.15612 0.38413 0.67432 0.0
H332 H 0.09682 0.34105 0.7548 0.0
H333 H 0.18142 0.34987 0.7987 0.0
C334 C 0.21275 0.38626 0.69928 0.0
C335 C 0.23653 0.37882 0.68464 0.0
C336 C 0.26301 0.39475 0.68765 0.0
C337 C 0.26622 0.41853 0.70531 0.0
C338 C 0.2421 0.42623 0.71951 0.0
C339 C 0.21555 0.41033 0.71633 0.0
C340 C 0.18278 0.3326 0.67913 0.0
C341 C 0.17949 0.32986 0.64957 0.0
C342 C 0.18501 0.30471 0.63669 0.0
C343 C 0.194 0.28174 0.65315 0.0
C344 C 0.1971 0.28458 0.68288 0.0
C345 C 0.19172 0.30987 0.69573 0.0
C346 C 0.16243 0.35962 0.72879 0.0
C347 C 0.13245 0.35369 0.72949 0.0
C348 C 0.11996 0.34629 0.75507 0.0
C349 C 0.13733 0.34453 0.78041 0.0
C350 C 0.16742 0.35079 0.77958 0.0
C351 C 0.17987 0.35802 0.75394 0.0
P352 P 0.84889 0.20383 0.71483 0.0
H353 H 0.85155 0.2031 0.65381 0.0
H354 H 0.83199 0.23208 0.61604 0.0
H355 H 0.8043 0.28896 0.67844 0.0
H356 H 0.8227 0.25838 0.71647 0.0
H357 H 0.85501 0.17883 0.77107 0.0
H358 H 0.88171 0.19414 0.81476 0.0
H359 H 0.90578 0.27407 0.77524 0.0
H360 H 0.87908 0.25836 0.73123 0.0
H361 H 0.82214 0.15834 0.6801 0.0
H362 H 0.8039 0.20012 0.7571 0.0
O363 O 0.87413 0.18471 0.70241 0.0
H364 H 0.78063 0.12479 0.68588 0.0
H365 H 0.76327 0.16544 0.76414 0.0
C366 C 0.83936 0.22904 0.68794 0.0
C367 C 0.84188 0.22215 0.65944 0.0
C368 C 0.8307 0.23894 0.63773 0.0
C369 C 0.81678 0.26323 0.64398 0.0
C370 C 0.8147 0.27036 0.67274 0.0
C371 C 0.82558 0.25316 0.69455 0.0
C372 C 0.86401 0.21786 0.74822 0.0
C373 C 0.86518 0.20003 0.77205 0.0
C374 C 0.88057 0.20879 0.79707 0.0
C375 C 0.8957 0.23544 0.79862 0.0
C376 C 0.89435 0.25341 0.77473 0.0
C377 C 0.87879 0.2446 0.74966 0.0
C378 C 0.81687 0.18083 0.71886 0.0
C379 C 0.80929 0.16012 0.69842 0.0
C380 C 0.78555 0.14093 0.7018 0.0
C381 C 0.76906 0.14189 0.72591 0.0
C382 C 0.77553 0.16398 0.74538 0.0
C383 C 0.79908 0.18355 0.74165 0.0
P384 P 0.59789 0.55306 0.55194 0.0
H385 H 0.59498 0.53372 0.61069 0.0
H386 H 0.55463 0.52437 0.64119 0.0
H387 H 0.49433 0.53577 0.56929 0.0
H388 H 0.5351 0.54586 0.539 0.0
H389 H 0.65624 0.54022 0.5394 0.0
H390 H 0.67568 0.49876 0.52034 0.0
H391 H 0.58853 0.46211 0.50218 0.0
H392 H 0.56928 0.50353 0.52245 0.0
H393 H 0.58689 0.60989 0.56551 0.0
H394 H 0.58271 0.55867 0.4903 0.0
O395 O 0.62462 0.56625 0.57425 0.0
H396 H 0.56998 0.64925 0.53744 0.0
H397 H 0.5652 0.59811 0.46183 0.0
C398 C 0.56801 0.54108 0.57279 0.0
C399 C 0.57308 0.53387 0.60141 0.0
C400 C 0.5499 0.52829 0.61879 0.0
C401 C 0.52115 0.52956 0.60777 0.0
C402 C 0.51618 0.53512 0.57858 0.0
C403 C 0.53945 0.54077 0.56121 0.0
C404 C 0.61136 0.52461 0.53297 0.0
C405 C 0.64128 0.52339 0.53107 0.0
C406 C 0.65239 0.49968 0.51985 0.0
C407 C 0.63373 0.47681 0.50996 0.0
C408 C 0.60358 0.47903 0.51018 0.0
C409 C 0.5925 0.50275 0.52163 0.0
C410 C 0.58658 0.58165 0.52987 0.0
C411 C 0.5824 0.6072 0.54284 0.0
C412 C 0.57235 0.62957 0.52681 0.0
C413 C 0.56604 0.62678 0.4974 0.0
C414 C 0.57008 0.60097 0.48441 0.0
C415 C 0.58012 0.57845 0.50061 0.0
P416 P 0.55983 0.45924 0.95966 0.0
H417 H 0.62157 0.46971 0.97297 0.0
H418 H 0.65049 0.50955 0.99425 0.0
H419 H 0.57208 0.54669 0.01526 0.0
H420 H 0.54322 0.50685 0.99301 0.0
H421 H 0.55951 0.40052 0.94438 0.0
H422 H 0.54718 0.35679 0.96932 0.0
H423 H 0.52788 0.40364 0.04311 0.0
H424 H 0.54018 0.44792 0.01754 0.0
H425 H 0.55048 0.51104 0.92859 0.0
H426 H 0.49945 0.43552 0.95091 0.0
O427 O 0.58068 0.45126 0.93356 0.0
H428 H 0.51156 0.52405 0.8952 0.0
H429 H 0.46018 0.44863 0.91788 0.0
C430 C 0.58031 0.48574 0.98081 0.0
C431 C 0.6106 0.48625 0.98249 0.0
C432 C 0.62714 0.50901 0.9949 0.0
C433 C 0.61365 0.53161 0.00616 0.0
C434 C 0.58317 0.52997 0.00622 0.0
C435 C 0.56663 0.50715 0.99368 0.0
C436 C 0.55152 0.42741 0.97939 0.0
C437 C 0.55302 0.40151 0.96605 0.0
C438 C 0.54597 0.37646 0.98038 0.0
C439 C 0.53704 0.37671 0.0084 0.0
C440 C 0.53481 0.40279 0.02158 0.0
C441 C 0.54201 0.42803 0.00712 0.0
C442 C 0.5279 0.47239 0.94231 0.0
C443 C 0.53044 0.4978 0.92712 0.0
C444 C 0.50805 0.50528 0.90808 0.0
C445 C 0.48279 0.48727 0.90369 0.0
C446 C 0.47948 0.46281 0.92056 0.0
C447 C 0.50193 0.45535 0.93959 0.0
P448 P 0.71455 0.23143 0.23622 0.0
H449 H 0.76173 0.26133 0.26829 0.0
H450 H 0.76762 0.27853 0.31708 0.0
H451 H 0.67855 0.25092 0.3304 0.0
H452 H 0.6728 0.23349 0.28136 0.0
H453 H 0.74536 0.20611 0.19204 0.0
H454 H 0.7759 0.16646 0.1919 0.0
H455 H 0.76089 0.15046 0.28052 0.0
H456 H 0.73044 0.19036 0.28051 0.0
H457 H 0.66558 0.26529 0.22417 0.0
H458 H 0.68331 0.17806 0.21752 0.0
O459 O 0.72909 0.25564 0.21436 0.0
H460 H 0.61895 0.25551 0.19791 0.0
H461 H 0.63674 0.16811 0.19151 0.0
C462 C 0.7168 0.24644 0.27118 0.0
C463 C 0.74334 0.25933 0.28157 0.0
C464 C 0.74672 0.26903 0.30945 0.0
C465 C 0.72354 0.26602 0.32748 0.0
C466 C 0.69665 0.25375 0.31681 0.0
C467 C 0.69337 0.24376 0.28886 0.0
C468 C 0.73618 0.20152 0.2364 0.0
C469 C 0.74868 0.19409 0.21144 0.0
C470 C 0.76595 0.17127 0.21135 0.0
C471 C 0.77093 0.15536 0.23625 0.0
C472 C 0.75782 0.16255 0.26113 0.0
C473 C 0.74038 0.18532 0.26113 0.0
C474 C 0.678 0.22251 0.22259 0.0
C475 C 0.65912 0.24391 0.21764 0.0
C476 C 0.63242 0.23825 0.20274 0.0
C477 C 0.62427 0.21107 0.19239 0.0
C478 C 0.64259 0.18934 0.19886 0.0
C479 C 0.66923 0.19502 0.21384 0.0
P480 P 0.49002 0.97097 0.98693 0.0
H481 H 0.55098 0.97429 0.97479 0.0
H482 H 0.57645 0.97979 0.93095 0.0
H483 H 0.4946 0.98169 0.88268 0.0
H484 H 0.46906 0.97599 0.92691 0.0
H485 H 0.49012 0.99319 0.04434 0.0
H486 H 0.48255 0.03958 0.06282 0.0
H487 H 0.46545 0.06966 0.97704 0.0
H488 H 0.47397 0.0234 0.95874 0.0
H489 H 0.47716 0.91117 0.99714 0.0
H490 H 0.43007 0.98186 0.96845 0.0
O491 O 0.51209 0.95604 0.01091 0.0
H492 H 0.4323 0.88125 0.99594 0.0
H493 H 0.38489 0.95173 0.96618 0.0
C494 C 0.50812 0.97418 0.95407 0.0
C495 C 0.53843 0.97554 0.95479 0.0
C496 C 0.55299 0.97862 0.92968 0.0
C497 C 0.53752 0.98086 0.90332 0.0
C498 C 0.50708 0.97999 0.90267 0.0
C499 C 0.49248 0.97659 0.92789 0.0
C500 C 0.48329 0.00505 0.00015 0.0
C501 C 0.48489 0.00983 0.02951 0.0
C502 C 0.48026 0.03632 0.04007 0.0
C503 C 0.47359 0.05848 0.02143 0.0
C504 C 0.47116 0.05328 0.99199 0.0
C505 C 0.47593 0.02678 0.98146 0.0
C506 C 0.45688 0.94883 0.98339 0.0
C507 C 0.45714 0.92021 0.99032 0.0
C508 C 0.4314 0.90302 0.98936 0.0
C509 C 0.40484 0.91403 0.98102 0.0
C510 C 0.40484 0.94264 0.97317 0.0
C511 C 0.43068 0.95988 0.97431 0.0
Mg512 Mg 0.23117 0.83063 0.0057 0.0
O513 O 0.27687 0.84977 0.99661 0.0
O514 O 0.30487 0.81363 0.99425 0.0
Mg515 Mg 0.27841 0.77248 0.00355 0.0
C516 C 0.30131 0.83996 0.99277 0.0
C517 C 0.1844 0.8719 0.00012 0.0
O518 O 0.1712 0.84845 0.00928 0.0
O519 O 0.22489 0.81506 0.95977 0.0
O520 O 0.25152 0.77769 0.96172 0.0
O521 O 0.24218 0.83374 0.05251 0.0
O522 O 0.24908 0.79678 0.02661 0.0
C523 C 0.23412 0.79345 0.94837 0.0
C524 C 0.25233 0.80926 0.0508 0.0
O525 O 0.21099 0.8719 0.99477 0.0
Mg526 Mg 0.1673 0.49894 0.27421 0.0
O527 O 0.1382 0.49884 0.23267 0.0
O528 O 0.16841 0.49885 0.1973 0.0
Mg529 Mg 0.21518 0.49863 0.21472 0.0
C530 C 0.1429 0.49904 0.20616 0.0
C531 C 0.13193 0.50225 0.32525 0.0
O532 O 0.15574 0.51859 0.33019 0.0
O533 O 0.17523 0.45228 0.26939 0.0
O534 O 0.20638 0.45511 0.23472 0.0
O535 O 0.17373 0.54631 0.27289 0.0
O536 O 0.20213 0.51771 0.2535 0.0
C537 C 0.19221 0.44088 0.25316 0.0
C538 C 0.19602 0.54301 0.25823 0.0
O539 O 0.12849 0.48944 0.30162 0.0
Mg540 Mg 0.75387 0.66191 0.04606 0.0
O541 O 0.71332 0.63145 0.03842 0.0
O542 O 0.67707 0.65696 0.0227 0.0
Mg543 Mg 0.69365 0.70322 0.02129 0.0
C544 C 0.68694 0.63337 0.02962 0.0
C545 C 0.8044 0.62685 0.06654 0.0
O546 O 0.80778 0.64854 0.08371 0.0
O547 O 0.75903 0.66686 0.99834 0.0
O548 O 0.72286 0.69369 0.98519 0.0
O549 O 0.74252 0.67013 0.09079 0.0
O550 O 0.72836 0.69483 0.05338 0.0
C551 C 0.74489 0.68056 0.97947 0.0
C552 C 0.72817 0.69055 0.08036 0.0
O553 O 0.78299 0.62532 0.04841 0.0
Mg554 Mg 0.90867 0.03938 0.23863 0.0
O555 O 0.87477 0.00278 0.22895 0.0
O556 O 0.89712 0.96348 0.22336 0.0
Mg557 Mg 0.94576 0.97478 0.2301 0.0
C558 C 0.87406 0.97649 0.22388 0.0
C559 C 0.85224 0.0693 0.23064 0.0
O560 O 0.85259 0.05488 0.20706 0.0
O561 O 0.91607 0.02356 0.2843 0.0
O562 O 0.93993 0.98532 0.27684 0.0
O563 O 0.91396 0.04777 0.19234 0.0
O564 O 0.93992 0.01888 0.21814 0.0
C565 C 0.92929 0.00236 0.29351 0.0
C566 C 0.93401 0.0302 0.19379 0.0
O567 O 0.87258 0.06702 0.24963 0.0
Mg568 Mg 0.25908 0.16804 0.54927 0.0
O569 O 0.21907 0.13644 0.54364 0.0
O570 O 0.18126 0.16183 0.53221 0.0
Mg571 Mg 0.19633 0.20853 0.53065 0.0
C572 C 0.19206 0.13827 0.53735 0.0
C573 C 0.29644 0.11571 0.56657 0.0
O574 O 0.28261 0.11526 0.59018 0.0
O575 O 0.25969 0.17419 0.50133 0.0
O576 O 0.22298 0.20132 0.49187 0.0
O577 O 0.25177 0.1748 0.59553 0.0
O578 O 0.23277 0.19911 0.56 0.0
C579 C 0.24446 0.18856 0.48397 0.0
C580 C 0.23517 0.19424 0.58686 0.0
O581 O 0.29043 0.13348 0.5472 0.0
Mg582 Mg 0.41259 0.54402 0.73865 0.0
O583 O 0.37831 0.50801 0.72749 0.0
O584 O 0.40054 0.46857 0.7221 0.0
Mg585 Mg 0.44919 0.47919 0.72932 0.0
C586 C 0.37754 0.48172 0.72229 0.0
C587 C 0.35707 0.57538 0.73011 0.0
O588 O 0.35785 0.56172 0.70611 0.0
O589 O 0.41856 0.5269 0.78417 0.0
O590 O 0.4422 0.48872 0.77592 0.0
O591 O 0.41907 0.55337 0.69263 0.0
O592 O 0.44393 0.52352 0.71826 0.0
C593 C 0.4313 0.50524 0.79293 0.0
C594 C 0.43873 0.5354 0.69406 0.0
O595 O 0.37674 0.57203 0.74955 0.0
Mg596 Mg 0.73676 0.3337 0.50201 0.0
O597 O 0.7825 0.35436 0.49403 0.0
O598 O 0.81197 0.31908 0.49467 0.0
Mg599 Mg 0.78682 0.27741 0.50383 0.0
C600 C 0.80756 0.34514 0.49181 0.0
C601 C 0.68858 0.37318 0.49611 0.0
O602 O 0.67677 0.34991 0.5071 0.0
O603 O 0.73297 0.31677 0.45647 0.0
O604 O 0.76274 0.28191 0.46041 0.0
O605 O 0.74511 0.33843 0.54909 0.0
O606 O 0.75604 0.30175 0.52461 0.0
C607 C 0.74491 0.29626 0.44582 0.0
C608 C 0.75733 0.31493 0.54841 0.0
O609 O 0.71479 0.37363 0.48935 0.0
Mg610 Mg 0.66687 0.00201 0.77567 0.0
O611 O 0.63652 -0.00086 0.73498 0.0
O612 O 0.66567 0.99807 0.69879 0.0
Mg613 Mg 0.71303 0.00341 0.71476 0.0
C614 C 0.64043 0.99742 0.70841 0.0
C615 C 0.60761 0.00268 0.8066 0.0
O616 O 0.60436 0.02524 0.79079 0.0
O617 O 0.67875 0.95632 0.77146 0.0
O618 O 0.70926 0.96023 0.73625 0.0
O619 O 0.67005 0.04962 0.77354 0.0
O620 O 0.69943 0.02251 0.75346 0.0
C621 C 0.69651 0.94576 0.75546 0.0
C622 C 0.69212 0.04741 0.75823 0.0
O623 O 0.62976 0.98885 0.80405 0.0
Mg624 Mg 0.03906 0.28027 0.92296 0.0
O625 O 0.99823 0.2682 0.89499 0.0
O626 O 0.96396 0.25046 0.9229 0.0
Mg627 Mg 0.98376 0.24993 0.96868 0.0
C628 C 0.9725 0.25779 0.89841 0.0
C629 C 0.0842 0.30096 0.88168 0.0
O630 O 0.09798 0.28373 0.89865 0.0
O631 O 0.01809 0.31807 0.93929 0.0
O632 O 0.98682 0.29864 0.96957 0.0
O633 O 0.05463 0.23771 0.91806 0.0
O634 O 0.02759 0.24928 0.95267 0.0
C635 C 0.99928 0.32024 0.95779 0.0
C636 C 0.04077 0.23024 0.94035 0.0
O637 O 0.05814 0.30528 0.88627 0.0
Mg638 Mg 0.53795 0.78055 0.42314 0.0
O639 O 0.49769 0.76657 0.39535 0.0
O640 O 0.46407 0.74686 0.42286 0.0
Mg641 Mg 0.48384 0.74759 0.46868 0.0
C642 C 0.47245 0.7548 0.3985 0.0
C643 C 0.58248 0.81082 0.38526 0.0
O644 O 0.59906 0.80292 0.407 0.0
O645 O 0.51504 0.81722 0.43937 0.0
O646 O 0.48426 0.79619 0.46919 0.0
O647 O 0.55565 0.73893 0.41839 0.0
O648 O 0.52802 0.74925 0.45302 0.0
C649 C 0.49579 0.81837 0.45761 0.0
C650 C 0.54206 0.73088 0.44068 0.0
O651 O 0.55522 0.80585 0.38587 0.0
Mg652 Mg 0.96527 0.72637 0.58661 0.0
O653 O 0.00848 0.71813 0.61081 0.0
O654 O 0.03872 0.70443 0.57921 0.0
Mg655 Mg 0.01598 0.70539 0.53501 0.0
C656 C 0.03306 0.71003 0.60467 0.0
C657 C 0.94443 0.72969 0.64757 0.0
O658 O 0.95124 0.70346 0.64634 0.0
O659 O 0.98577 0.76862 0.57085 0.0
O660 O 0.01533 0.7533 0.53939 0.0
O661 O 0.95031 0.68073 0.58998 0.0
O662 O 0.97413 0.69917 0.55423 0.0
C663 C 0.00465 0.7733 0.55225 0.0
C664 C 0.96284 0.67715 0.56656 0.0
O665 O 0.9489 0.74583 0.62633 0.0
Mg666 Mg 0.46289 0.21932 0.08507 0.0
O667 O 0.50495 0.21145 0.11159 0.0
O668 O 0.53685 0.1975 0.08179 0.0
Mg669 Mg 0.51652 0.19818 0.03662 0.0
C670 C 0.52988 0.20331 0.10678 0.0
C671 C 0.44093 0.22409 0.14557 0.0
O672 O 0.44982 0.19852 0.14614 0.0
O673 O 0.4841 0.26148 0.06998 0.0
O674 O 0.51548 0.24614 0.04035 0.0
O675 O 0.44754 0.17373 0.08808 0.0
O676 O 0.47357 0.1918 0.0537 0.0
C677 C 0.50397 0.26614 0.0524 0.0
C678 C 0.46132 0.1699 0.06547 0.0
O679 O 0.44433 0.23916 0.12338 0.0
C680 C 0.21385 0.80076 0.8697 0.0
C681 C 0.21461 0.77284 0.86056 0.0
H682 H 0.21884 0.82921 0.90497 0.0
C683 C 0.21975 0.75167 0.88075 0.0
H684 H 0.20986 0.81743 0.85449 0.0
C685 C 0.22529 0.75842 0.90937 0.0
C686 C 0.22535 0.78641 0.9185 0.0
H687 H 0.22072 0.73003 0.87426 0.0
H688 H 0.23005 0.74171 0.92431 0.0
C689 C 0.21886 0.80746 0.89852 0.0
C690 C 0.06582 0.47648 0.36531 0.0
C691 C 0.07179 0.48996 0.39164 0.0
H692 H 0.08024 0.46957 0.32356 0.0
C693 C 0.09691 0.50819 0.39533 0.0
H694 H 0.04666 0.46226 0.36188 0.0
C695 C 0.11599 0.51235 0.37358 0.0
C696 C 0.11054 0.49839 0.34749 0.0
H697 H 0.10187 0.51931 0.41515 0.0
H698 H 0.13523 0.52639 0.37743 0.0
C699 C 0.08509 0.48058 0.34345 0.0
C700 C 0.79742 0.69884 0.92278 0.0
C701 C 0.77859 0.70686 0.90011 0.0
H702 H 0.80138 0.68358 0.96567 0.0
C703 C 0.74857 0.70106 0.90228 0.0
H704 H 0.82063 0.70307 0.92207 0.0
C705 C 0.73757 0.69055 0.92758 0.0
C706 C 0.75635 0.68487 0.951 0.0
H707 H 0.73342 0.70607 0.88495 0.0
H708 H 0.7143 0.68815 0.92928 0.0
C709 C 0.78638 0.68772 0.9479 0.0
C710 C 0.95544 0.96988 0.36245 0.0
C711 C 0.96542 0.99392 0.37809 0.0
H712 H 0.93582 0.95377 0.32317 0.0
C713 C 0.95862 0.02054 0.36767 0.0
H714 H 0.96054 0.94912 0.36987 0.0
C715 C 0.94402 0.02318 0.34106 0.0
C716 C 0.9366 -0.00073 0.32425 0.0
H717 H 0.966 0.03938 0.37942 0.0
H718 H 0.94075 0.04405 0.33271 0.0
C719 C 0.94138 0.97254 0.33567 0.0
C720 C 0.18595 0.24601 0.6142 0.0
C721 C 0.20168 0.25574 0.63898 0.0
H722 H 0.18387 0.21838 0.57862 0.0
C723 C 0.22618 0.24181 0.64865 0.0
H724 H 0.16649 0.25563 0.6066 0.0
C725 C 0.23585 0.22004 0.63275 0.0
C726 C 0.22141 0.21209 0.60678 0.0
H727 H 0.23893 0.24878 0.66756 0.0
H728 H 0.25573 0.21082 0.63978 0.0
C729 C 0.19582 0.22456 0.59819 0.0
C730 C 0.47464 0.54611 0.62424 0.0
C731 C 0.4969 0.52755 0.62728 0.0
H732 H 0.43853 0.56291 0.64284 0.0
C733 C 0.49739 0.50912 0.65077 0.0
H734 H 0.47371 0.56078 0.60656 0.0
C735 C 0.47744 0.51062 0.67175 0.0
C736 C 0.45634 0.53039 0.6696 0.0
H737 H 0.51385 0.49417 0.65349 0.0
H738 H 0.47942 0.49705 0.6902 0.0
C739 C 0.45452 0.54744 0.64514 0.0
C740 C 0.81534 0.28167 0.59371 0.0
C741 C 0.80308 0.27969 0.62041 0.0
H742 H 0.81037 0.29421 0.55008 0.0
C743 C 0.77657 0.29172 0.62359 0.0
H744 H 0.83614 0.27359 0.59056 0.0
C745 C 0.76221 0.30428 0.60037 0.0
C746 C 0.77372 0.30443 0.57347 0.0
H747 H 0.76624 0.29044 0.64365 0.0
H748 H 0.74146 0.31268 0.60315 0.0
C749 C 0.80063 0.29354 0.57044 0.0
C750 C 0.56731 0.01007 0.67201 0.0
C751 C 0.57086 0.00044 0.64436 0.0
H752 H 0.58651 0.01646 0.71423 0.0
C753 C 0.59615 0.98719 0.63912 0.0
H754 H 0.54812 0.02041 0.67678 0.0
C755 C 0.61813 0.9853 0.66033 0.0
C756 C 0.61529 0.9962 0.68752 0.0
H757 H 0.59927 0.97871 0.61836 0.0
H758 H 0.63769 0.97576 0.6552 0.0
C759 C 0.58929 0.00785 0.69346 0.0
C760 C 0.9424 0.25626 0.82177 0.0
C761 C 0.91441 0.24336 0.82438 0.0
H762 H 0.98264 0.27083 0.84291 0.0
C763 C 0.90523 0.23639 0.85169 0.0
H764 H 0.95031 0.26156 0.80105 0.0
C765 C 0.92385 0.2415 0.87575 0.0
C766 C 0.95215 0.25367 0.87308 0.0
H767 H 0.88367 0.22672 0.85445 0.0
H768 H 0.91617 0.2355 0.8964 0.0
C769 C 0.96104 0.26134 0.84581 0.0
C770 C 0.4957 0.89741 0.46601 0.0
C771 C 0.47787 0.89956 0.48896 0.0
H772 H 0.51524 0.87028 0.43805 0.0
C773 C 0.46429 0.87485 0.50013 0.0
H774 H 0.50678 0.91599 0.4571 0.0
C775 C 0.46924 0.84853 0.48927 0.0
C776 C 0.48801 0.84632 0.46706 0.0
H777 H 0.45014 0.87582 0.51758 0.0
H778 H 0.45895 0.8299 0.49885 0.0
C779 C 0.50071 0.87113 0.45519 0.0
C780 C 0.1386 0.31622 0.8256 0.0
C781 C 0.12429 0.33478 0.80724 0.0
H782 H 0.13728 0.29117 0.86344 0.0
C783 C 0.09703 0.34303 0.8142 0.0
H784 H 0.15938 0.30905 0.8207 0.0
C785 C 0.08415 0.33247 0.83864 0.0
C786 C 0.09831 0.31353 0.85668 0.0
H787 H 0.0856 0.3576 0.80072 0.0
H788 H 0.06299 0.33894 0.84323 0.0
C789 C 0.12581 0.3058 0.85006 0.0
C790 C 0.53703 0.66914 0.49167 0.0
C791 C 0.5564 0.65128 0.48056 0.0
H792 H 0.51713 0.70818 0.48774 0.0
C793 C 0.56833 0.65836 0.45443 0.0
H794 H 0.52702 0.66398 0.51148 0.0
C795 C 0.56241 0.68362 0.44065 0.0
C796 C 0.54448 0.70229 0.45273 0.0
H797 H 0.58342 0.64514 0.44536 0.0
H798 H 0.57295 0.68905 0.42119 0.0
C799 C 0.53118 0.69439 0.47795 0.0
C800 C 0.90674 0.72879 0.71694 0.0
C801 C 0.8983 0.75645 0.71826 0.0
H802 H 0.92819 0.69881 0.69391 0.0
C803 C 0.90602 0.77559 0.69655 0.0
H804 H 0.90153 0.71366 0.73354 0.0
C805 C 0.92144 0.76712 0.6738 0.0
C806 C 0.92957 0.73935 0.67235 0.0
H807 H 0.89965 0.79701 0.69684 0.0
H808 H 0.92667 0.78226 0.65721 0.0
C809 C 0.92225 0.72036 0.69431 0.0
C810 C 0.00638 0.85251 0.54024 0.0
C811 C 0.03061 0.85702 0.52362 0.0
H812 H 0.97899 0.82239 0.56247 0.0
C813 C 0.0474 0.83434 0.51883 0.0
H814 H 0.993 0.86959 0.54427 0.0
C815 C 0.03933 0.80751 0.52896 0.0
C816 C 0.01434 0.80256 0.54437 0.0
H817 H 0.0666 0.83723 0.50672 0.0
H818 H 0.05253 0.79048 0.52421 0.0
C819 C 0.99832 0.82549 0.55058 0.0
C820 C 0.07676 0.72119 0.67478 0.0
C821 C 0.1036 0.71157 0.66835 0.0
H822 H 0.03328 0.72795 0.65993 0.0
C823 C 0.10627 0.6996 0.64157 0.0
H824 H 0.07393 0.73024 0.69534 0.0
C825 C 0.08305 0.69825 0.62133 0.0
C826 C 0.05651 0.7088 0.62732 0.0
H827 H 0.12671 0.6923 0.63577 0.0
H828 H 0.08622 0.68959 0.60066 0.0
C829 C 0.05343 0.71973 0.65453 0.0
C830 C 0.97821 0.61887 0.51686 0.0
C831 C 0.97293 0.59468 0.53368 0.0
H832 H 0.97911 0.66375 0.51401 0.0
C833 C 0.96379 0.59791 0.56139 0.0
H834 H 0.98474 0.6172 0.49526 0.0
C835 C 0.9602 0.62465 0.57202 0.0
C836 C 0.96594 0.64876 0.55529 0.0
H837 H 0.95994 0.57982 0.57514 0.0
H838 H 0.95338 0.62645 0.5935 0.0
C839 C 0.97488 0.64558 0.52757 0.0
C840 C 0.79293 0.95784 0.21921 0.0
C841 C 0.79139 0.92971 0.21025 0.0
H842 H 0.82014 0.99476 0.23028 0.0
C843 C 0.81718 0.91719 0.20545 0.0
H844 H 0.77339 0.96812 0.2228 0.0
C845 C 0.84398 0.93238 0.20979 0.0
C846 C 0.84559 0.96052 0.21883 0.0
H847 H 0.81666 0.89546 0.19879 0.0
H848 H 0.86344 0.922 0.20609 0.0
C849 C 0.81973 0.97312 0.22333 0.0
C850 C 0.81107 0.1283 0.25857 0.0
C851 C 0.79021 0.13177 0.23619 0.0
H852 H 0.84708 0.10584 0.27447 0.0
C853 C 0.78877 0.11329 0.21304 0.0
H854 H 0.81285 0.14232 0.27663 0.0
C855 C 0.80835 0.09248 0.21177 0.0
C856 C 0.82992 0.08966 0.2336 0.0
H857 H 0.77264 0.11508 0.19569 0.0
H858 H 0.80691 0.07898 0.19332 0.0
C859 C 0.83076 0.10748 0.25728 0.0
C860 C 0.35198 0.90623 0.99109 0.0
C861 C 0.37734 0.89579 0.98152 0.0
H862 H 0.30804 0.89688 0.00206 0.0
C863 C 0.37666 0.86729 0.97388 0.0
H864 H 0.35176 0.92798 0.99744 0.0
C865 C 0.35178 0.84941 0.97695 0.0
C866 C 0.32677 0.8596 0.98743 0.0
H867 H 0.39551 0.85863 0.96578 0.0
H868 H 0.35229 0.82746 0.97137 0.0
C869 C 0.32693 0.88836 0.99389 0.0
C870 C 0.21119 0.3754 0.29357 0.0
C871 C 0.22997 0.36398 0.27501 0.0
H872 H 0.18379 0.40858 0.30103 0.0
C873 C 0.23119 0.37489 0.24725 0.0
H874 H 0.20921 0.36704 0.3149 0.0
C875 C 0.21638 0.39841 0.23921 0.0
C876 C 0.20008 0.41167 0.25876 0.0
H877 H 0.2454 0.36672 0.23235 0.0
H878 H 0.21944 0.40741 0.21828 0.0
C879 C 0.19633 0.39902 0.28552 0.0
C880 C 0.12364 0.08972 0.53203 0.0
C881 C 0.13407 0.06432 0.52347 0.0
H882 H 0.13373 0.13293 0.54302 0.0
C883 C 0.16423 0.06291 0.52204 0.0
H884 H 0.1007 0.0915 0.53409 0.0
C885 C 0.18325 0.08658 0.52783 0.0
C886 C 0.17254 0.11232 0.5347 0.0
H887 H 0.17316 0.04392 0.51516 0.0
H888 H 0.20622 0.08506 0.52559 0.0
C889 C 0.1426 0.11348 0.53731 0.0
C890 C 0.72147 0.12274 0.74499 0.0
C891 C 0.74742 0.11831 0.73204 0.0
H892 H 0.68321 0.10372 0.76322 0.0
C893 C 0.75377 0.09061 0.72645 0.0
H894 H 0.71585 0.14385 0.74943 0.0
C895 C 0.73515 0.06792 0.73405 0.0
C896 C 0.70961 0.07213 0.7476 0.0
H897 H 0.77383 0.08624 0.71722 0.0
H898 H 0.74155 0.04697 0.73022 0.0
C899 C 0.7027 0.09981 0.75271 0.0
C900 C 0.35383 0.06382 0.58273 0.0
C901 C 0.37151 0.06863 0.55963 0.0
H902 H 0.31614 0.07506 0.6032 0.0
C903 C 0.36311 0.08734 0.53801 0.0
H904 H 0.35984 0.04949 0.59969 0.0
C905 C 0.33817 0.10175 0.53985 0.0
C906 C 0.32108 0.098 0.56352 0.0
H907 H 0.37609 0.0911 0.51973 0.0
H908 H 0.33277 0.11643 0.523 0.0
C909 C 0.32889 0.07851 0.58474 0.0
C910 C 0.67228 0.44991 0.48891 0.0
C911 C 0.64582 0.44993 0.50224 0.0
H912 H 0.70656 0.42567 0.47634 0.0
C913 C 0.63233 0.42403 0.51071 0.0
H914 H 0.68304 0.46938 0.48161 0.0
C915 C 0.64562 0.399 0.50733 0.0
C916 C 0.67286 0.3992 0.49561 0.0
H917 H 0.61218 0.42313 0.52135 0.0
H918 H 0.63503 0.37963 0.51511 0.0
C919 C 0.6857 0.42482 0.48572 0.0
C920 C 0.7093 0.29057 0.37112 0.0
C921 C 0.72832 0.27392 0.35779 0.0
H922 H 0.6998 0.31119 0.40948 0.0
C923 C 0.75244 0.26471 0.37357 0.0
H924 H 0.69058 0.29798 0.35933 0.0
C925 C 0.75758 0.27198 0.40205 0.0
C926 C 0.73886 0.28889 0.41548 0.0
H927 H 0.76727 0.25159 0.36392 0.0
H928 H 0.77646 0.26444 0.41348 0.0
C929 C 0.71467 0.29822 0.3997 0.0
C930 C 0.57689 0.96841 0.87241 0.0
C931 C 0.55345 0.98462 0.87687 0.0
H932 H 0.61204 0.96108 0.84663 0.0
C933 C 0.5465 0.00542 0.85676 0.0
H934 H 0.58251 0.95196 0.88733 0.0
C935 C 0.56351 0.01074 0.83336 0.0
C936 C 0.58765 0.99522 0.82951 0.0
H937 H 0.52862 0.01832 0.8597 0.0
H938 H 0.55817 0.02751 0.81872 0.0
C939 C 0.59373 0.97357 0.84898 0.0
C940 C 0.24907 0.21874 0.40967 0.0
C941 C 0.27678 0.21188 0.4027 0.0
H942 H 0.21698 0.21651 0.44058 0.0
C943 C 0.29204 0.19399 0.42104 0.0
H944 H 0.23679 0.23266 0.39619 0.0
C945 C 0.28071 0.18482 0.44673 0.0
C946 C 0.25393 0.19345 0.45465 0.0
H947 H 0.31326 0.18797 0.41606 0.0
H948 H 0.29366 0.17216 0.46097 0.0
C949 C 0.23777 0.20962 0.43532 0.0
C950 C 0.4558 0.51862 0.86962 0.0
C951 C 0.46282 0.4915 0.87843 0.0
H952 H 0.43948 0.54429 0.8355 0.0
C953 C 0.45434 0.4686 0.86053 0.0
H954 H 0.46178 0.53664 0.88308 0.0
C955 C 0.4417 0.47299 0.83345 0.0
C956 C 0.43703 0.50032 0.82368 0.0
H957 H 0.45956 0.44746 0.86644 0.0
H958 H 0.43725 0.45509 0.81947 0.0
C959 C 0.44283 0.52298 0.84249 0.0
C960 C 0.68985 0.75307 0.10337 0.0
C961 C 0.69508 0.75244 0.13302 0.0
H962 H 0.69603 0.7341 0.06363 0.0
C963 C 0.70864 0.7295 0.14548 0.0
H964 H 0.6798 0.77058 0.09302 0.0
C965 C 0.718 0.70838 0.1285 0.0
C966 C 0.7141 0.7099 0.09873 0.0
H967 H 0.71267 0.72825 0.16832 0.0
H968 H 0.72934 0.69154 0.13862 0.0
C969 C 0.69928 0.73211 0.08645 0.0
C970 C 0.96986 0.04198 0.12416 0.0
C971 C 0.99263 0.02402 0.12725 0.0
H972 H 0.93316 0.05774 0.14263 0.0
C973 C 0.99333 0.00534 0.15054 0.0
H974 H 0.96873 0.05681 0.10662 0.0
C975 C 0.97314 0.00615 0.17138 0.0
C976 C 0.9516 0.02546 0.16926 0.0
H977 H 0.01018 0.99079 0.15326 0.0
H978 H 0.97529 0.99248 0.18974 0.0
C979 C 0.94949 0.04262 0.1449 0.0
C980 C 0.28982 0.79928 0.12364 0.0
C981 C 0.30002 0.77242 0.12102 0.0
H982 H 0.26693 0.83221 0.10332 0.0
C983 C 0.29409 0.7578 0.09538 0.0
H984 H 0.29405 0.81099 0.14319 0.0
C985 C 0.27849 0.76975 0.07277 0.0
C986 C 0.26861 0.79674 0.07511 0.0
H987 H 0.30107 0.73679 0.09294 0.0
H988 H 0.27398 0.75759 0.05357 0.0
C989 C 0.27435 0.8114 0.10082 0.0
C990 C 0.06676 0.50045 0.1715 0.0
C991 C 0.0728 0.50774 0.14334 0.0
H992 H 0.08419 0.4922 0.21372 0.0
C993 C 0.10176 0.51119 0.13598 0.0
H994 H 0.04457 0.49766 0.17769 0.0
C995 C 0.12427 0.50782 0.15631 0.0
C996 C 0.11846 0.50115 0.18469 0.0
H997 H 0.10706 0.51639 0.11435 0.0
H998 H 0.14631 0.51091 0.14976 0.0
C999 C 0.08941 0.4974 0.19208 0.0
C1000 C 0.40758 0.72898 0.35055 0.0
C1001 C 0.41612 0.73835 0.32367 0.0
H1002 H 0.41849 0.72687 0.39523 0.0
C1003 C 0.44272 0.7542 0.32179 0.0
H1004 H 0.38706 0.71696 0.35271 0.0
C1005 C 0.46076 0.75986 0.34612 0.0
C1006 C 0.45259 0.74989 0.37295 0.0
H1007 H 0.45009 0.76143 0.30137 0.0
H1008 H 0.48135 0.77171 0.34377 0.0
C1009 C 0.42558 0.73473 0.37493 0.0
C1010 C 0.97397 0.37897 0.00189 0.0
C1011 C 0.98612 0.40304 0.98824 0.0
H1012 H 0.96844 0.334 0.00298 0.0
C1013 C 1.00072 0.39965 0.96326 0.0
H1014 H 0.96282 0.38076 0.02131 0.0
C1015 C 0.00423 0.37282 0.9529 0.0
C1016 C 0.99306 0.34869 0.96716 0.0
H1017 H 0.00981 0.41775 0.95185 0.0
H1018 H 0.01618 0.37102 0.93397 0.0
C1019 C 0.97733 0.3521 0.99143 0.0
C1020 C 0.63835 0.83543 0.33314 0.0
C1021 C 0.6211 0.83831 0.3079 0.0
H1022 H 0.63968 0.82478 0.37739 0.0
C1023 C 0.59083 0.83404 0.30886 0.0
H1024 H 0.66169 0.8391 0.33325 0.0
C1025 C 0.57818 0.82612 0.33424 0.0
C1026 C 0.59553 0.82219 0.3592 0.0
H1027 H 0.57692 0.83581 0.28977 0.0
H1028 H 0.55486 0.82221 0.33405 0.0
C1029 C 0.62571 0.82742 0.35849 0.0
C1030 C 0.03399 0.16898 0.99179 0.0
C1031 C 0.05308 0.15062 0.981 0.0
H1032 H 0.01491 0.20844 0.98734 0.0
C1033 C 0.0652 0.15719 0.95485 0.0
H1034 H 0.0238 0.16424 0.01159 0.0
C1035 C 0.05982 0.18242 0.94077 0.0
C1036 C 0.04227 0.20162 0.95257 0.0
H1037 H 0.0801 0.14361 0.94601 0.0
H1038 H 0.07056 0.18745 0.92132 0.0
C1039 C 0.0287 0.19424 0.97777 0.0
C1040 C 0.39677 0.26904 0.19013 0.0
C1041 C 0.39303 0.2521 0.21449 0.0
H1042 H 0.41491 0.27363 0.14937 0.0
C1043 C 0.40586 0.22626 0.21622 0.0
H1044 H 0.38694 0.28893 0.18794 0.0
C1045 C 0.42178 0.21743 0.19405 0.0
C1046 C 0.4253 0.23425 0.16961 0.0
H1047 H 0.40385 0.21291 0.23487 0.0
H1048 H 0.43122 0.19733 0.19607 0.0
C1049 C 0.41276 0.26023 0.16796 0.0
C1050 C 0.5049 0.345 0.03847 0.0
C1051 C 0.53008 0.34957 0.02321 0.0
H1052 H 0.47674 0.31489 0.05982 0.0
C1053 C 0.54779 0.32721 0.02028 0.0
H1054 H 0.49081 0.36183 0.04104 0.0
C1055 C 0.5397 0.3005 0.03073 0.0
C1056 C 0.51374 0.29541 0.0446 0.0
H1057 H 0.56768 0.3302 0.00924 0.0
H1058 H 0.55357 0.28365 0.02732 0.0
C1059 C 0.49681 0.31811 0.04913 0.0
C1060 C 0.60068 0.19097 0.1473 0.0
C1061 C 0.59849 0.20619 0.17238 0.0
H1062 H 0.5808 0.17801 0.10711 0.0
C1063 C 0.57245 0.21849 0.17681 0.0
H1064 H 0.62053 0.18151 0.14304 0.0
C1065 C 0.54951 0.21646 0.1561 0.0
C1066 C 0.55232 0.20239 0.13041 0.0
H1067 H 0.57005 0.23016 0.19603 0.0
H1068 H 0.53005 0.22686 0.15977 0.0
C1069 C 0.57793 0.18916 0.12656 0.0
C1070 C 0.45577 0.09046 0.05788 0.0
C1071 C 0.46989 0.08702 0.0326 0.0
H1072 H 0.442 0.11926 0.08812 0.0
C1073 C 0.48096 0.11113 0.01825 0.0
H1074 H 0.44662 0.07238 0.06929 0.0
C1075 C 0.47806 0.13796 0.0289 0.0
C1076 C 0.46421 0.14138 0.05428 0.0
H1077 H 0.4923 0.10932 0.99895 0.0
H1078 H 0.48668 0.15599 0.01711 0.0
C1079 C 0.45297 0.11734 0.06861 0.0
C1080 C 0.29645 0.46445 0.71093 0.0
C1081 C 0.29473 0.43492 0.70916 0.0
H1082 H 0.32382 0.50242 0.71631 0.0
C1083 C 0.32052 0.42104 0.71129 0.0
H1084 H 0.27706 0.47585 0.70897 0.0
C1085 C 0.34733 0.43626 0.71517 0.0
C1086 C 0.34907 0.46576 0.71719 0.0
H1087 H 0.32 0.3983 0.71049 0.0
H1088 H 0.36668 0.42478 0.71698 0.0
C1089 C 0.3233 0.4797 0.71495 0.0
C1090 C 0.31598 0.63402 0.75897 0.0
C1091 C 0.29572 0.63846 0.73628 0.0
H1092 H 0.3513 0.61062 0.7749 0.0
C1093 C 0.29476 0.62084 0.71247 0.0
H1094 H 0.31739 0.64735 0.77754 0.0
C1095 C 0.31415 0.59989 0.71093 0.0
C1096 C 0.33505 0.59604 0.73316 0.0
H1097 H 0.27908 0.62336 0.69487 0.0
H1098 H 0.31303 0.58704 0.69202 0.0
C1099 C 0.33548 0.61305 0.75741 0.0
C1100 C 0.88349 0.37264 0.47544 0.0
C1101 C 0.88332 0.40144 0.4814 0.0
H1102 H 0.85987 0.33249 0.4739 0.0
C1103 C 0.85718 0.41212 0.48861 0.0
H1104 H 0.90305 0.36382 0.4692 0.0
C1105 C 0.83214 0.39409 0.49108 0.0
C1106 C 0.83284 0.36504 0.48651 0.0
H1107 H 0.85635 0.43419 0.49351 0.0
H1108 H 0.81259 0.40275 0.49757 0.0
C1109 C 0.85865 0.35467 0.47807 0.0
C1110 C 0.72152 0.88347 0.79765 0.0
C1111 C 0.7393 0.87174 0.77836 0.0
H1112 H 0.69324 0.91585 0.80533 0.0
C1113 C 0.73856 0.88151 0.75012 0.0
H1114 H 0.72124 0.876 0.81943 0.0
C1115 C 0.72245 0.90418 0.74202 0.0
C1116 C 0.70664 0.91752 0.76194 0.0
H1117 H 0.752 0.87295 0.73474 0.0
H1118 H 0.72381 0.91235 0.72054 0.0
C1119 C 0.70522 0.90609 0.78949 0.0
C1120 C 0.62152 0.58424 0.00801 0.0
C1121 C 0.63127 0.5577 0.01524 0.0
H1122 H 0.63124 0.62873 0.00688 0.0
C1123 C 0.65891 0.5564 0.02897 0.0
H1124 H 0.60059 0.5861 0.99702 0.0
C1125 C 0.67677 0.58096 0.03429 0.0
C1126 C 0.66736 0.60741 0.02613 0.0
H1127 H 0.66695 0.53635 0.03521 0.0
H1128 H 0.69815 0.57914 0.04435 0.0
C1129 C 0.63928 0.60876 0.01345 0.0
C1130 C 0.22713 0.61741 0.24377 0.0
C1131 C 0.25338 0.61223 0.23181 0.0
H1132 H 0.18809 0.59954 0.26134 0.0
C1133 C 0.2596 0.58426 0.2274 0.0
H1134 H 0.22158 0.63875 0.24723 0.0
C1135 C 0.24047 0.56201 0.23523 0.0
C1136 C 0.21457 0.56706 0.24776 0.0
H1137 H 0.27986 0.5794 0.21887 0.0
H1138 H 0.24661 0.5408 0.23229 0.0
C1139 C 0.20788 0.595 0.2517 0.0
C1140 C 0.84694 0.56612 0.04517 0.0
C1141 C 0.87251 0.57042 0.06261 0.0
H1142 H 0.80527 0.58039 0.03282 0.0
C1143 C 0.8744 0.59213 0.08277 0.0
H1144 H 0.84457 0.54933 0.02971 0.0
C1145 C 0.85181 0.60976 0.08471 0.0
C1146 C 0.8268 0.60621 0.06645 0.0
H1147 H 0.89387 0.59635 0.09629 0.0
H1148 H 0.85443 0.62675 0.09993 0.0
C1149 C 0.82434 0.58383 0.04706 0.0
C1150 C 0.17048 0.94928 0.99397 0.0
C1151 C 0.14326 0.94963 0.00579 0.0
H1152 H 0.20485 0.92448 0.98276 0.0
C1153 C 0.12871 0.92385 0.01309 0.0
H1154 H 0.18209 0.96867 0.98761 0.0
C1155 C 0.14159 0.89855 0.00996 0.0
C1156 C 0.16946 0.89837 -0.00034 0.0
H1157 H 0.10794 0.9232 0.02259 0.0
H1158 H 0.13012 0.87925 0.01676 0.0
C1159 C 0.18348 0.92393 0.99103 0.0
loop_
_geom_bond_atom_site_label_1
_geom_bond_atom_site_label_2
_geom_bond_distance
_geom_bond_site_symmetry_2
_ccdc_geom_bond_type
P0 O11 1.490 . S
P0 C14 1.812 . S
P0 C20 1.803 . S
P0 C26 1.819 . S
H1 C15 0.941 . S
H2 C16 0.939 . S
H3 C18 0.940 . S
H4 C19 0.940 . S
H5 C21 0.939 . S
H6 C22 0.942 . S
H7 C24 0.940 . S
H8 C25 0.939 . S
H9 C27 0.941 . S
H10 C31 0.939 1_556 S
O11 P0 1.490 . S
H12 C28 0.939 . S
H13 C30 0.940 . S
C14 P0 1.812 . S
C14 C15 1.389 . S
C14 C19 1.391 . S
C15 H1 0.941 . S
C15 C14 1.389 . S
C15 C16 1.397 . S
C16 H2 0.939 . S
C16 C15 1.397 . S
C16 C17 1.378 1_455 S
C17 C16 1.378 1_655 S
C17 C18 1.378 . S
C18 H3 0.940 . S
C18 C17 1.378 . S
C18 C19 1.396 1_655 S
C19 H4 0.940 . S
C19 C14 1.391 . S
C19 C18 1.396 1_455 S
C20 P0 1.803 . S
C20 C21 1.378 . S
C20 C25 1.400 . S
C21 H5 0.939 . S
C21 C20 1.378 . S
C21 C22 1.361 . S
C22 H6 0.942 . S
C22 C21 1.361 . S
C22 C23 1.369 1_545 S
C23 C22 1.369 1_565 S
C23 C24 1.404 . S
C24 H7 0.940 . S
C24 C23 1.404 . S
C24 C25 1.389 1_565 S
C25 H8 0.939 . S
C25 C20 1.400 . S
C25 C24 1.389 1_545 S
C26 P0 1.819 . S
C26 C27 1.391 . S
C26 C31 1.391 . S
C27 H9 0.941 . S
C27 C26 1.391 . S
C27 C28 1.396 . S
C28 H12 0.939 . S
C28 C27 1.396 . S
C28 C29 1.397 1_554 S
C29 C28 1.397 1_556 S
C29 C30 1.385 . S
C30 H13 0.940 . S
C30 C29 1.385 . S
C30 C31 1.388 1_556 S
C31 H10 0.939 1_554 S
C31 C26 1.391 . S
C31 C30 1.388 1_554 S
P32 O43 1.490 . S
P32 C46 1.812 . S
P32 C52 1.803 . S
P32 C58 1.819 . S
H33 C47 0.941 . S
H34 C48 0.939 . S
H35 C50 0.940 . S
H36 C51 0.940 . S
H37 C53 0.939 . S
H38 C54 0.942 . S
H39 C56 0.940 . S
H40 C57 0.939 . S
H41 C59 0.941 . S
H42 C63 0.939 . S
O43 P32 1.490 . S
H44 C60 0.939 . S
H45 C62 0.940 . S
C46 P32 1.812 . S
C46 C47 1.389 . S
C46 C51 1.391 . S
C47 H33 0.941 . S
C47 C46 1.389 . S
C47 C48 1.397 . S
C48 H34 0.939 . S
C48 C47 1.397 . S
C48 C49 1.378 . S
C49 C48 1.378 . S
C49 C50 1.378 . S
C50 H35 0.940 . S
C50 C49 1.378 . S
C50 C51 1.396 . S
C51 H36 0.940 . S
C51 C46 1.391 . S
C51 C50 1.396 . S
C52 P32 1.803 . S
C52 C53 1.378 . S
C52 C57 1.400 . S
C53 H37 0.939 . S
C53 C52 1.378 . S
C53 C54 1.361 . S
C54 H38 0.942 . S
C54 C53 1.361 . S
C54 C55 1.369 . S
C55 C54 1.369 . S
C55 C56 1.404 . S
C56 H39 0.940 . S
C56 C55 1.404 . S
C56 C57 1.389 . S
C57 H40 0.939 . S
C57 C52 1.400 . S
C57 C56 1.389 . S
C58 P32 1.819 . S
C58 C59 1.391 . S
C58 C63 1.391 . S
C59 H41 0.941 . S
C59 C58 1.391 . S
C59 C60 1.396 . S
C60 H44 0.939 . S
C60 C59 1.396 . S
C60 C61 1.397 . S
C61 C60 1.397 . S
C61 C62 1.385 . S
C62 H45 0.940 . S
C62 C61 1.385 . S
C62 C63 1.388 . S
C63 H42 0.939 . S
C63 C58 1.391 . S
C63 C62 1.388 . S
P64 O75 1.490 . S
P64 C78 1.812 . S
P64 C84 1.803 1_455 S
P64 C90 1.819 . S
H65 C79 0.941 . S
H66 C80 0.939 . S
H67 C82 0.940 . S
H68 C83 0.940 . S
H69 C85 0.939 . S
H70 C86 0.942 . S
H71 C88 0.940 . S
H72 C89 0.939 . S
H73 C91 0.941 . S
H74 C95 0.936 . S
O75 P64 1.490 . S
H76 C92 0.939 . S
H77 C94 0.919 1_655 S
C78 P64 1.812 . S
C78 C79 1.389 1_554 S
C78 C83 1.391 1_455 S
C79 H65 0.941 . S
C79 C78 1.389 1_556 S
C79 C80 1.397 . S
C80 H66 0.939 . S
C80 C79 1.397 . S
C80 C81 1.378 1_455 S
C81 C80 1.378 1_655 S
C81 C82 1.378 1_556 S
C82 H67 0.940 . S
C82 C81 1.378 1_554 S
C82 C83 1.396 . S
C83 H68 0.940 . S
C83 C78 1.391 1_655 S
C83 C82 1.396 . S
C84 P64 1.803 1_655 S
C84 C85 1.378 . S
C84 C89 1.400 . S
C85 H69 0.939 . S
C85 C84 1.378 . S
C85 C86 1.361 . S
C86 H70 0.942 . S
C86 C85 1.361 . S
C86 C87 1.369 . S
C87 C86 1.369 . S
C87 C88 1.404 . S
C88 H71 0.940 . S
C88 C87 1.404 . S
C88 C89 1.389 . S
C89 H72 0.939 . S
C89 C84 1.400 . S
C89 C88 1.389 . S
C90 P64 1.819 . S
C90 C91 1.391 . S
C90 C95 1.393 1_455 S
C91 H73 0.941 . S
C91 C90 1.391 . S
C91 C92 1.396 . S
C92 H76 0.939 . S
C92 C91 1.396 . S
C92 C93 1.397 . S
C93 C92 1.397 . S
C93 C94 1.385 . S
C94 H77 0.919 1_455 S
C94 C93 1.385 . S
C94 C95 1.389 1_455 S
C95 H74 0.936 . S
C95 C90 1.393 1_655 S
C95 C94 1.389 1_655 S
P96 O107 1.490 . S
P96 C110 1.812 . S
P96 C116 1.803 . S
P96 C122 1.819 . S
H97 C111 0.941 . S
H98 C112 0.939 . S
H99 C114 0.940 . S
H100 C115 0.940 . S
H101 C117 0.939 . S
H102 C118 0.942 . S
H103 C120 0.940 . S
H104 C121 0.939 . S
H105 C123 0.941 . S
H106 C127 0.939 . S
O107 P96 1.490 . S
H108 C124 0.939 . S
H109 C126 0.940 . S
C110 P96 1.812 . S
C110 C111 1.389 . S
C110 C115 1.391 . S
C111 H97 0.941 . S
C111 C110 1.389 . S
C111 C112 1.397 . S
C112 H98 0.939 . S
C112 C111 1.397 . S
C112 C113 1.378 . S
C113 C112 1.378 . S
C113 C114 1.378 . S
C114 H99 0.940 . S
C114 C113 1.378 . S
C114 C115 1.396 . S
C115 H100 0.940 . S
C115 C110 1.391 . S
C115 C114 1.396 . S
C116 P96 1.803 . S
C116 C117 1.378 . S
C116 C121 1.400 . S
C117 H101 0.939 . S
C117 C116 1.378 . S
C117 C118 1.361 . S
C118 H102 0.942 . S
C118 C117 1.361 . S
C118 C119 1.369 . S
C119 C118 1.369 . S
C119 C120 1.404 . S
C120 H103 0.940 . S
C120 C119 1.404 . S
C120 C121 1.389 . S
C121 H104 0.939 . S
C121 C116 1.400 . S
C121 C120 1.389 . S
C122 P96 1.819 . S
C122 C123 1.391 . S
C122 C127 1.391 . S
C123 H105 0.941 . S
C123 C122 1.391 . S
C123 C124 1.396 . S
C124 H108 0.939 . S
C124 C123 1.396 . S
C124 C125 1.397 . S
C125 C124 1.397 . S
C125 C126 1.385 . S
C126 H109 0.940 . S
C126 C125 1.385 . S
C126 C127 1.388 . S
C127 H106 0.939 . S
C127 C122 1.391 . S
C127 C126 1.388 . S
P128 O139 1.490 . S
P128 C142 1.812 . S
P128 C148 1.803 . S
P128 C154 1.819 . S
H129 C143 0.941 . S
H130 C144 0.939 . S
H131 C146 0.940 . S
H132 C147 0.940 . S
H133 C149 0.939 . S
H134 C150 0.942 . S
H135 C152 0.940 . S
H136 C153 0.939 . S
H137 C155 0.941 . S
H138 C159 0.939 . S
O139 P128 1.490 . S
H140 C156 0.939 . S
H141 C158 0.940 . S
C142 P128 1.812 . S
C142 C143 1.389 . S
C142 C147 1.391 1_565 S
C143 H129 0.941 . S
C143 C142 1.389 . S
C143 C144 1.397 1_565 S
C144 H130 0.939 . S
C144 C143 1.397 1_545 S
C144 C145 1.378 . S
C145 C144 1.378 . S
C145 C146 1.378 . S
C146 H131 0.940 . S
C146 C145 1.378 . S
C146 C147 1.396 . S
C147 H132 0.940 . S
C147 C142 1.391 1_545 S
C147 C146 1.396 . S
C148 P128 1.803 . S
C148 C149 1.378 . S
C148 C153 1.400 . S
C149 H133 0.939 . S
C149 C148 1.378 . S
C149 C150 1.361 . S
C150 H134 0.942 . S
C150 C149 1.361 . S
C150 C151 1.369 . S
C151 C150 1.369 . S
C151 C152 1.404 . S
C152 H135 0.940 . S
C152 C151 1.404 . S
C152 C153 1.389 . S
C153 H136 0.939 . S
C153 C148 1.400 . S
C153 C152 1.389 . S
C154 P128 1.819 . S
C154 C155 1.391 . S
C154 C159 1.391 . S
C155 H137 0.941 . S
C155 C154 1.391 . S
C155 C156 1.396 . S
C156 H140 0.939 . S
C156 C155 1.396 . S
C156 C157 1.396 . S
C157 C156 1.396 . S
C157 C158 1.385 1_455 S
C158 H141 0.940 . S
C158 C157 1.385 1_655 S
C158 C159 1.388 1_655 S
C159 H138 0.939 . S
C159 C154 1.391 . S
C159 C158 1.388 1_455 S
P160 O171 1.490 . S
P160 C174 1.812 . S
P160 C180 1.803 . S
P160 C186 1.819 . S
H161 C175 0.941 . S
H162 C176 0.939 . S
H163 C178 0.940 . S
H164 C179 0.940 . S
H165 C181 0.939 . S
H166 C182 0.942 . S
H167 C184 0.940 . S
H168 C185 0.939 . S
H169 C187 0.941 . S
H170 C191 0.939 . S
O171 P160 1.490 . S
H172 C188 0.939 . S
H173 C190 0.940 . S
C174 P160 1.812 . S
C174 C175 1.389 . S
C174 C179 1.391 . S
C175 H161 0.941 . S
C175 C174 1.389 . S
C175 C176 1.397 . S
C176 H162 0.939 . S
C176 C175 1.397 . S
C176 C177 1.378 . S
C177 C176 1.378 . S
C177 C178 1.378 . S
C178 H163 0.940 . S
C178 C177 1.378 . S
C178 C179 1.396 . S
C179 H164 0.940 . S
C179 C174 1.391 . S
C179 C178 1.396 . S
C180 P160 1.803 . S
C180 C181 1.378 . S
C180 C185 1.400 . S
C181 H165 0.939 . S
C181 C180 1.378 . S
C181 C182 1.361 . S
C182 H166 0.942 . S
C182 C181 1.361 . S
C182 C183 1.369 . S
C183 C182 1.369 . S
C183 C184 1.404 . S
C184 H167 0.940 . S
C184 C183 1.404 . S
C184 C185 1.389 . S
C185 H168 0.939 . S
C185 C180 1.400 . S
C185 C184 1.389 . S
C186 P160 1.819 . S
C186 C187 1.391 . S
C186 C191 1.391 . S
C187 H169 0.941 . S
C187 C186 1.391 . S
C187 C188 1.396 . S
C188 H172 0.939 . S
C188 C187 1.396 . S
C188 C189 1.397 . S
C189 C188 1.397 . S
C189 C190 1.385 . S
C190 H173 0.940 . S
C190 C189 1.385 . S
C190 C191 1.388 . S
C191 H170 0.939 . S
C191 C186 1.391 . S
C191 C190 1.388 . S
P192 O203 1.490 1_655 S
P192 C206 1.812 1_655 S
P192 C212 1.803 . S
P192 C218 1.819 . S
H193 C207 0.941 . S
H194 C208 0.939 . S
H195 C210 0.940 . S
H196 C211 0.940 . S
H197 C213 0.939 . S
H198 C214 0.942 . S
H199 C216 0.940 . S
H200 C217 0.939 . S
H201 C219 0.941 . S
H202 C223 0.939 . S
O203 P192 1.490 1_455 S
H204 C220 0.939 . S
H205 C222 0.940 . S
C206 P192 1.812 1_455 S
C206 C207 1.389 . S
C206 C211 1.391 1_455 S
C207 H193 0.941 . S
C207 C206 1.389 . S
C207 C208 1.397 . S
C208 H194 0.939 . S
C208 C207 1.397 . S
C208 C209 1.378 . S
C209 C208 1.378 . S
C209 C210 1.378 1_455 S
C210 H195 0.940 . S
C210 C209 1.378 1_655 S
C210 C211 1.396 . S
C211 H196 0.940 . S
C211 C206 1.391 1_655 S
C211 C210 1.396 . S
C212 P192 1.803 . S
C212 C213 1.378 . S
C212 C217 1.400 . S
C213 H197 0.939 . S
C213 C212 1.378 . S
C213 C214 1.361 . S
C214 H198 0.942 . S
C214 C213 1.361 . S
C214 C215 1.369 . S
C215 C214 1.369 . S
C215 C216 1.404 . S
C216 H199 0.940 . S
C216 C215 1.404 . S
C216 C217 1.389 . S
C217 H200 0.939 . S
C217 C212 1.400 . S
C217 C216 1.389 . S
C218 P192 1.819 . S
C218 C219 1.391 . S
C218 C223 1.391 . S
C219 H201 0.941 . S
C219 C218 1.391 . S
C219 C220 1.396 . S
C220 H204 0.939 . S
C220 C219 1.396 . S
C220 C221 1.397 . S
C221 C220 1.397 . S
C221 C222 1.385 . S
C222 H205 0.940 . S
C222 C221 1.385 . S
C222 C223 1.388 . S
C223 H202 0.939 . S
C223 C218 1.391 . S
C223 C222 1.388 . S
P224 O235 1.490 . S
P224 C238 1.812 . S
P224 C244 1.803 . S
P224 C250 1.819 . S
H225 C239 0.941 . S
H226 C240 0.939 . S
H227 C242 0.940 . S
H228 C243 0.940 . S
H229 C245 0.939 . S
H230 C246 0.942 . S
H231 C248 0.940 . S
H232 C249 0.939 . S
H233 C251 0.941 . S
H234 C255 0.939 . S
O235 P224 1.490 . S
H236 C252 0.939 . S
H237 C254 0.940 . S
C238 P224 1.812 . S
C238 C239 1.389 . S
C238 C243 1.391 . S
C239 H225 0.941 . S
C239 C238 1.389 . S
C239 C240 1.397 . S
C240 H226 0.939 . S
C240 C239 1.397 . S
C240 C241 1.378 . S
C241 C240 1.378 . S
C241 C242 1.378 . S
C242 H227 0.940 . S
C242 C241 1.378 . S
C242 C243 1.396 . S
C243 H228 0.940 . S
C243 C238 1.391 . S
C243 C242 1.396 . S
C244 P224 1.803 . S
C244 C245 1.378 . S
C244 C249 1.400 . S
C245 H229 0.939 . S
C245 C244 1.378 . S
C245 C246 1.361 . S
C246 H230 0.942 . S
C246 C245 1.361 . S
C246 C247 1.369 . S
C247 C246 1.369 . S
C247 C248 1.404 . S
C248 H231 0.940 . S
C248 C247 1.404 . S
C248 C249 1.389 . S
C249 H232 0.939 . S
C249 C244 1.400 . S
C249 C248 1.389 . S
C250 P224 1.819 . S
C250 C251 1.391 . S
C250 C255 1.391 . S
C251 H233 0.941 . S
C251 C250 1.391 . S
C251 C252 1.396 . S
C252 H236 0.939 . S
C252 C251 1.396 . S
C252 C253 1.397 . S
C253 C252 1.397 . S
C253 C254 1.385 . S
C254 H237 0.940 . S
C254 C253 1.385 . S
C254 C255 1.388 . S
C255 H234 0.939 . S
C255 C250 1.391 . S
C255 C254 1.388 . S
P256 O267 1.490 . S
P256 C270 1.812 . S
P256 C276 1.803 . S
P256 C282 1.819 . S
H257 C271 0.941 . S
H258 C272 0.939 . S
H259 C274 0.940 . S
H260 C275 0.940 . S
H261 C277 0.939 . S
H262 C278 0.942 . S
H263 C280 0.940 . S
H264 C281 0.939 . S
H265 C283 0.941 . S
H266 C287 0.939 . S
O267 P256 1.490 . S
H268 C284 0.939 . S
H269 C286 0.940 . S
C270 P256 1.812 . S
C270 C271 1.389 . S
C270 C275 1.391 . S
C271 H257 0.941 . S
C271 C270 1.389 . S
C271 C272 1.397 . S
C272 H258 0.939 . S
C272 C271 1.397 . S
C272 C273 1.378 . S
C273 C272 1.378 . S
C273 C274 1.378 . S
C274 H259 0.940 . S
C274 C273 1.378 . S
C274 C275 1.396 . S
C275 H260 0.940 . S
C275 C270 1.391 . S
C275 C274 1.396 . S
C276 P256 1.803 . S
C276 C277 1.378 . S
C276 C281 1.400 . S
C277 H261 0.939 . S
C277 C276 1.378 . S
C277 C278 1.361 . S
C278 H262 0.942 . S
C278 C277 1.361 . S
C278 C279 1.369 . S
C279 C278 1.369 . S
C279 C280 1.404 . S
C280 H263 0.940 . S
C280 C279 1.404 . S
C280 C281 1.389 . S
C281 H264 0.939 . S
C281 C276 1.400 . S
C281 C280 1.389 . S
C282 P256 1.819 . S
C282 C283 1.391 . S
C282 C287 1.391 . S
C283 H265 0.941 . S
C283 C282 1.391 . S
C283 C284 1.396 . S
C284 H268 0.939 . S
C284 C283 1.396 . S
C284 C285 1.397 . S
C285 C284 1.397 . S
C285 C286 1.385 . S
C286 H269 0.940 . S
C286 C285 1.385 . S
C286 C287 1.388 . S
C287 H266 0.939 . S
C287 C282 1.391 . S
C287 C286 1.388 . S
P288 O299 1.490 1_565 S
P288 C302 1.812 . S
P288 C308 1.803 1_565 S
P288 C314 1.819 . S
H289 C303 0.941 . S
H290 C304 0.939 . S
H291 C306 0.940 . S
H292 C307 0.940 . S
H293 C309 0.939 . S
H294 C310 0.942 . S
H295 C312 0.940 . S
H296 C313 0.939 . S
H297 C315 0.941 . S
H298 C319 0.939 . S
O299 P288 1.490 1_545 S
H300 C316 0.939 . S
H301 C318 0.940 . S
C302 P288 1.812 . S
C302 C303 1.389 . S
C302 C307 1.391 . S
C303 H289 0.941 . S
C303 C302 1.389 . S
C303 C304 1.397 . S
C304 H290 0.939 . S
C304 C303 1.397 . S
C304 C305 1.378 . S
C305 C304 1.378 . S
C305 C306 1.378 . S
C306 H291 0.940 . S
C306 C305 1.378 . S
C306 C307 1.396 . S
C307 H292 0.940 . S
C307 C302 1.391 . S
C307 C306 1.396 . S
C308 P288 1.803 1_545 S
C308 C309 1.378 . S
C308 C313 1.400 1_545 S
C309 H293 0.939 . S
C309 C308 1.378 . S
C309 C310 1.361 . S
C310 H294 0.942 . S
C310 C309 1.361 . S
C310 C311 1.369 . S
C311 C310 1.369 . S
C311 C312 1.404 1_545 S
C312 H295 0.940 . S
C312 C311 1.404 1_565 S
C312 C313 1.389 . S
C313 H296 0.939 . S
C313 C308 1.400 1_565 S
C313 C312 1.389 . S
C314 P288 1.819 . S
C314 C315 1.391 . S
C314 C319 1.391 . S
C315 H297 0.941 . S
C315 C314 1.391 . S
C315 C316 1.396 . S
C316 H300 0.939 . S
C316 C315 1.396 . S
C316 C317 1.397 . S
C317 C316 1.397 . S
C317 C318 1.385 . S
C318 H301 0.940 . S
C318 C317 1.385 . S
C318 C319 1.388 . S
C319 H298 0.939 . S
C319 C314 1.391 . S
C319 C318 1.388 . S
P320 O331 1.490 . S
P320 C334 1.812 . S
P320 C340 1.803 . S
P320 C346 1.819 . S
H321 C335 0.941 . S
H322 C336 0.939 . S
H323 C338 0.940 . S
H324 C339 0.940 . S
H325 C341 0.939 . S
H326 C342 0.942 . S
H327 C344 0.940 . S
H328 C345 0.939 . S
H329 C347 0.941 . S
H330 C351 0.939 . S
O331 P320 1.490 . S
H332 C348 0.939 . S
H333 C350 0.940 . S
C334 P320 1.812 . S
C334 C335 1.389 . S
C334 C339 1.391 . S
C335 H321 0.941 . S
C335 C334 1.389 . S
C335 C336 1.397 . S
C336 H322 0.939 . S
C336 C335 1.397 . S
C336 C337 1.378 . S
C337 C336 1.378 . S
C337 C338 1.378 . S
C338 H323 0.940 . S
C338 C337 1.378 . S
C338 C339 1.396 . S
C339 H324 0.940 . S
C339 C334 1.391 . S
C339 C338 1.396 . S
C340 P320 1.803 . S
C340 C341 1.378 . S
C340 C345 1.400 . S
C341 H325 0.939 . S
C341 C340 1.378 . S
C341 C342 1.361 . S
C342 H326 0.942 . S
C342 C341 1.361 . S
C342 C343 1.369 . S
C343 C342 1.369 . S
C343 C344 1.404 . S
C344 H327 0.940 . S
C344 C343 1.404 . S
C344 C345 1.389 . S
C345 H328 0.939 . S
C345 C340 1.400 . S
C345 C344 1.389 . S
C346 P320 1.819 . S
C346 C347 1.391 . S
C346 C351 1.391 . S
C347 H329 0.941 . S
C347 C346 1.391 . S
C347 C348 1.396 . S
C348 H332 0.939 . S
C348 C347 1.396 . S
C348 C349 1.397 . S
C349 C348 1.397 . S
C349 C350 1.385 . S
C350 H333 0.940 . S
C350 C349 1.385 . S
C350 C351 1.388 . S
C351 H330 0.939 . S
C351 C346 1.391 . S
C351 C350 1.388 . S
P352 O363 1.490 . S
P352 C366 1.812 . S
P352 C372 1.803 . S
P352 C378 1.819 . S
H353 C367 0.941 . S
H354 C368 0.939 . S
H355 C370 0.940 . S
H356 C371 0.940 . S
H357 C373 0.939 . S
H358 C374 0.942 . S
H359 C376 0.940 . S
H360 C377 0.939 . S
H361 C379 0.941 . S
H362 C383 0.939 . S
O363 P352 1.490 . S
H364 C380 0.939 . S
H365 C382 0.940 . S
C366 P352 1.812 . S
C366 C367 1.389 . S
C366 C371 1.391 . S
C367 H353 0.941 . S
C367 C366 1.389 . S
C367 C368 1.397 . S
C368 H354 0.939 . S
C368 C367 1.397 . S
C368 C369 1.378 . S
C369 C368 1.378 . S
C369 C370 1.378 . S
C370 H355 0.940 . S
C370 C369 1.378 . S
C370 C371 1.396 . S
C371 H356 0.940 . S
C371 C366 1.391 . S
C371 C370 1.396 . S
C372 P352 1.803 . S
C372 C373 1.378 . S
C372 C377 1.400 . S
C373 H357 0.939 . S
C373 C372 1.378 . S
C373 C374 1.361 . S
C374 H358 0.942 . S
C374 C373 1.361 . S
C374 C375 1.369 . S
C375 C374 1.369 . S
C375 C376 1.404 . S
C376 H359 0.940 . S
C376 C375 1.404 . S
C376 C377 1.389 . S
C377 H360 0.939 . S
C377 C372 1.400 . S
C377 C376 1.389 . S
C378 P352 1.819 . S
C378 C379 1.391 . S
C378 C383 1.391 . S
C379 H361 0.941 . S
C379 C378 1.391 . S
C379 C380 1.396 . S
C380 H364 0.939 . S
C380 C379 1.396 . S
C380 C381 1.397 . S
C381 C380 1.397 . S
C381 C382 1.385 . S
C382 H365 0.940 . S
C382 C381 1.385 . S
C382 C383 1.388 . S
C383 H362 0.939 . S
C383 C378 1.391 . S
C383 C382 1.388 . S
P384 O395 1.490 . S
P384 C398 1.812 . S
P384 C404 1.803 . S
P384 C410 1.819 . S
H385 C399 0.941 . S
H386 C400 0.939 . S
H387 C402 0.940 . S
H388 C403 0.940 . S
H389 C405 0.939 . S
H390 C406 0.942 . S
H391 C408 0.940 . S
H392 C409 0.939 . S
H393 C411 0.941 . S
H394 C415 0.939 . S
O395 P384 1.490 . S
H396 C412 0.939 . S
H397 C414 0.940 . S
C398 P384 1.812 . S
C398 C399 1.389 . S
C398 C403 1.391 . S
C399 H385 0.941 . S
C399 C398 1.389 . S
C399 C400 1.397 . S
C400 H386 0.939 . S
C400 C399 1.397 . S
C400 C401 1.378 . S
C401 C400 1.378 . S
C401 C402 1.378 . S
C402 H387 0.940 . S
C402 C401 1.378 . S
C402 C403 1.396 . S
C403 H388 0.940 . S
C403 C398 1.391 . S
C403 C402 1.396 . S
C404 P384 1.803 . S
C404 C405 1.378 . S
C404 C409 1.400 . S
C405 H389 0.939 . S
C405 C404 1.378 . S
C405 C406 1.361 . S
C406 H390 0.942 . S
C406 C405 1.361 . S
C406 C407 1.369 . S
C407 C406 1.369 . S
C407 C408 1.404 . S
C408 H391 0.940 . S
C408 C407 1.404 . S
C408 C409 1.389 . S
C409 H392 0.939 . S
C409 C404 1.400 . S
C409 C408 1.389 . S
C410 P384 1.819 . S
C410 C411 1.391 . S
C410 C415 1.391 . S
C411 H393 0.941 . S
C411 C410 1.391 . S
C411 C412 1.396 . S
C412 H396 0.939 . S
C412 C411 1.396 . S
C412 C413 1.397 . S
C413 C412 1.397 . S
C413 C414 1.385 . S
C414 H397 0.940 . S
C414 C413 1.385 . S
C414 C415 1.388 . S
C415 H394 0.939 . S
C415 C410 1.391 . S
C415 C414 1.388 . S
P416 O427 1.490 . S
P416 C430 1.812 . S
P416 C436 1.803 . S
P416 C442 1.819 . S
H417 C431 0.941 . S
H418 C432 0.939 . S
H419 C434 0.940 . S
H420 C435 0.940 . S
H421 C437 0.939 . S
H422 C438 0.947 . S
H423 C440 0.940 . S
H424 C441 0.939 . S
H425 C443 0.941 . S
H426 C447 0.939 . S
O427 P416 1.490 . S
H428 C444 0.939 . S
H429 C446 0.940 . S
C430 P416 1.812 . S
C430 C431 1.389 . S
C430 C435 1.391 . S
C431 H417 0.941 . S
C431 C430 1.389 . S
C431 C432 1.397 . S
C432 H418 0.939 . S
C432 C431 1.397 . S
C432 C433 1.378 . S
C433 C432 1.378 . S
C433 C434 1.378 . S
C434 H419 0.940 . S
C434 C433 1.378 . S
C434 C435 1.396 . S
C435 H420 0.940 . S
C435 C430 1.391 . S
C435 C434 1.396 . S
C436 P416 1.803 . S
C436 C437 1.378 . S
C436 C441 1.400 1_556 S
C437 H421 0.939 . S
C437 C436 1.378 . S
C437 C438 1.389 . S
C438 H422 0.947 . S
C438 C437 1.389 . S
C438 C439 1.337 1_556 S
C439 C438 1.337 1_554 S
C439 C440 1.404 . S
C440 H423 0.940 . S
C440 C439 1.404 . S
C440 C441 1.389 . S
C441 H424 0.939 . S
C441 C436 1.400 1_554 S
C441 C440 1.389 . S
C442 P416 1.819 . S
C442 C443 1.391 . S
C442 C447 1.391 . S
C443 H425 0.941 . S
C443 C442 1.391 . S
C443 C444 1.396 . S
C444 H428 0.939 . S
C444 C443 1.396 . S
C444 C445 1.397 . S
C445 C444 1.397 . S
C445 C446 1.385 . S
C446 H429 0.940 . S
C446 C445 1.385 . S
C446 C447 1.388 . S
C447 H426 0.939 . S
C447 C442 1.391 . S
C447 C446 1.388 . S
P448 O459 1.490 . S
P448 C462 1.812 . S
P448 C468 1.803 . S
P448 C474 1.819 . S
H449 C463 0.941 . S
H450 C464 0.939 . S
H451 C466 0.940 . S
H452 C467 0.940 . S
H453 C469 0.939 . S
H454 C470 0.942 . S
H455 C472 0.940 . S
H456 C473 0.939 . S
H457 C475 0.941 . S
H458 C479 0.939 . S
O459 P448 1.490 . S
H460 C476 0.939 . S
H461 C478 0.940 . S
C462 P448 1.812 . S
C462 C463 1.389 . S
C462 C467 1.391 . S
C463 H449 0.941 . S
C463 C462 1.389 . S
C463 C464 1.397 . S
C464 H450 0.939 . S
C464 C463 1.397 . S
C464 C465 1.378 . S
C465 C464 1.378 . S
C465 C466 1.378 . S
C466 H451 0.940 . S
C466 C465 1.378 . S
C466 C467 1.396 . S
C467 H452 0.940 . S
C467 C462 1.391 . S
C467 C466 1.396 . S
C468 P448 1.803 . S
C468 C469 1.378 . S
C468 C473 1.400 . S
C469 H453 0.939 . S
C469 C468 1.378 . S
C469 C470 1.361 . S
C470 H454 0.942 . S
C470 C469 1.361 . S
C470 C471 1.369 . S
C471 C470 1.369 . S
C471 C472 1.404 . S
C472 H455 0.940 . S
C472 C471 1.404 . S
C472 C473 1.389 . S
C473 H456 0.939 . S
C473 C468 1.400 . S
C473 C472 1.389 . S
C474 P448 1.819 . S
C474 C475 1.391 . S
C474 C479 1.391 . S
C475 H457 0.941 . S
C475 C474 1.391 . S
C475 C476 1.396 . S
C476 H460 0.939 . S
C476 C475 1.396 . S
C476 C477 1.397 . S
C477 C476 1.397 . S
C477 C478 1.385 . S
C478 H461 0.940 . S
C478 C477 1.385 . S
C478 C479 1.388 . S
C479 H458 0.939 . S
C479 C474 1.391 . S
C479 C478 1.388 . S
P480 O491 1.490 1_545 S
P480 C494 1.812 1_554 S
P480 C500 1.803 . S
P480 C506 1.819 1_544 S
H481 C495 0.941 . S
H482 C496 0.939 . S
H483 C498 0.940 . S
H484 C499 0.940 . S
H485 C501 0.939 . S
H486 C502 0.942 . S
H487 C504 0.940 1_556 S
H488 C505 0.939 . S
H489 C507 0.941 . S
H490 C511 0.939 . S
O491 P480 1.490 1_565 S
H492 C508 0.939 . S
H493 C510 0.916 1_545 S
C494 P480 1.812 1_556 S
C494 C495 1.389 . S
C494 C499 1.391 . S
C495 H481 0.941 . S
C495 C494 1.389 . S
C495 C496 1.397 . S
C496 H482 0.939 . S
C496 C495 1.397 . S
C496 C497 1.378 . S
C497 C496 1.378 . S
C497 C498 1.378 . S
C498 H483 0.940 . S
C498 C497 1.378 . S
C498 C499 1.396 . S
C499 H484 0.940 . S
C499 C494 1.391 . S
C499 C498 1.396 . S
C500 P480 1.803 . S
C500 C501 1.378 . S
C500 C505 1.400 1_554 S
C501 H485 0.939 . S
C501 C500 1.378 . S
C501 C502 1.361 . S
C502 H486 0.942 . S
C502 C501 1.361 . S
C502 C503 1.369 . S
C503 C502 1.369 . S
C503 C504 1.404 . S
C504 H487 0.940 1_554 S
C504 C503 1.404 . S
C504 C505 1.389 1_554 S
C505 H488 0.939 . S
C505 C500 1.400 1_556 S
C505 C504 1.389 1_556 S
C506 P480 1.819 1_566 S
C506 C507 1.391 . S
C506 C511 1.391 1_566 S
C507 H489 0.941 . S
C507 C506 1.391 . S
C507 C508 1.396 . S
C508 H492 0.939 . S
C508 C507 1.396 . S
C508 C509 1.397 . S
C509 C508 1.397 . S
C509 C510 1.425 . S
C510 H493 0.916 1_565 S
C510 C509 1.425 . S
C510 C511 1.373 1_566 S
C511 H490 0.939 . S
C511 C506 1.391 1_544 S
C511 C510 1.373 1_544 S
Mg512 O513 2.028 . S
Mg512 O519 1.986 1_554 S
Mg512 O521 2.114 . S
Mg512 O522 2.251 . S
Mg512 O525 2.010 . S
O513 Mg512 2.028 . S
O513 C516 1.248 1_554 S
O514 Mg515 2.028 . S
O514 C516 1.249 . S
Mg515 O514 2.028 . S
Mg515 O520 2.032 . S
Mg515 O522 2.079 1_556 S
C516 O513 1.248 1_556 S
C516 O514 1.249 . S
C517 O518 1.264 . S
C517 O525 1.249 . S
O518 C517 1.264 . S
O519 Mg512 1.986 1_556 S
O519 C523 1.246 . S
O520 Mg515 2.032 . S
O520 C523 1.259 . S
O521 Mg512 2.114 . S
O521 C524 1.252 . S
O522 Mg512 2.251 . S
O522 Mg515 2.079 1_554 S
O522 C524 1.273 . S
C523 O519 1.246 . S
C523 O520 1.259 . S
C524 O521 1.252 . S
C524 O522 1.273 . S
O525 Mg512 2.010 . S
O525 C517 1.249 . S
Mg526 O527 2.028 . S
Mg526 O533 1.986 . S
Mg526 O535 2.114 . S
Mg526 O536 2.251 . S
Mg526 O539 2.010 . S
O527 Mg526 2.028 . S
O527 C530 1.250 . S
O528 Mg529 2.028 . S
O528 C530 1.248 . S
Mg529 O528 2.028 . S
Mg529 O534 2.032 . S
Mg529 O536 2.079 . S
C530 O527 1.250 . S
C530 O528 1.248 . S
C531 O532 1.264 . S
C531 O539 1.249 . S
O532 C531 1.264 . S
O533 Mg526 1.986 . S
O533 C537 1.246 . S
O534 Mg529 2.032 . S
O534 C537 1.259 . S
O535 Mg526 2.114 . S
O535 C538 1.252 . S
O536 Mg526 2.251 . S
O536 Mg529 2.079 . S
O536 C538 1.273 . S
C537 O533 1.246 . S
C537 O534 1.259 . S
C538 O535 1.252 . S
C538 O536 1.273 . S
O539 Mg526 2.010 . S
O539 C531 1.249 . S
Mg540 O541 2.028 . S
Mg540 O547 1.986 1_554 S
Mg540 O549 2.114 . S
Mg540 O550 2.251 . S
Mg540 O553 2.010 . S
O541 Mg540 2.028 . S
O541 C544 1.250 . S
O542 Mg543 2.028 . S
O542 C544 1.248 1_556 S
Mg543 O542 2.028 . S
Mg543 O548 2.032 . S
Mg543 O550 2.079 1_556 S
C544 O541 1.250 . S
C544 O542 1.248 1_554 S
C545 O546 1.264 . S
C545 O553 1.249 . S
O546 C545 1.264 . S
O547 Mg540 1.986 1_556 S
O547 C551 1.246 . S
O548 Mg543 2.032 . S
O548 C551 1.259 . S
O549 Mg540 2.114 . S
O549 C552 1.252 . S
O550 Mg540 2.251 . S
O550 Mg543 2.079 1_554 S
O550 C552 1.273 . S
C551 O547 1.246 . S
C551 O548 1.259 . S
C552 O549 1.252 . S
C552 O550 1.273 . S
O553 Mg540 2.010 . S
O553 C545 1.249 . S
Mg554 O555 2.028 1_545 S
Mg554 O561 1.986 . S
Mg554 O563 2.114 . S
Mg554 O564 2.251 . S
Mg554 O567 2.010 . S
O555 Mg554 2.028 1_565 S
O555 C558 1.250 . S
O556 Mg557 2.028 . S
O556 C558 1.248 . S
Mg557 O556 2.028 . S
Mg557 O562 2.032 . S
Mg557 O564 2.079 1_565 S
C558 O555 1.250 . S
C558 O556 1.248 . S
C559 O560 1.264 . S
C559 O567 1.249 . S
O560 C559 1.264 . S
O561 Mg554 1.986 . S
O561 C565 1.246 . S
O562 Mg557 2.032 . S
O562 C565 1.259 1_565 S
O563 Mg554 2.114 . S
O563 C566 1.252 . S
O564 Mg554 2.251 . S
O564 Mg557 2.079 1_545 S
O564 C566 1.273 . S
C565 O561 1.246 . S
C565 O562 1.259 1_545 S
C566 O563 1.252 . S
C566 O564 1.273 . S
O567 Mg554 2.010 . S
O567 C559 1.249 . S
Mg568 O569 2.028 . S
Mg568 O575 1.986 . S
Mg568 O577 2.114 . S
Mg568 O578 2.251 . S
Mg568 O581 2.010 . S
O569 Mg568 2.028 . S
O569 C572 1.250 . S
O570 Mg571 2.028 . S
O570 C572 1.248 . S
Mg571 O570 2.028 . S
Mg571 O576 2.032 . S
Mg571 O578 2.079 . S
C572 O569 1.250 . S
C572 O570 1.248 . S
C573 O574 1.264 . S
C573 O581 1.249 . S
O574 C573 1.264 . S
O575 Mg568 1.986 . S
O575 C579 1.246 . S
O576 Mg571 2.032 . S
O576 C579 1.259 . S
O577 Mg568 2.114 . S
O577 C580 1.252 . S
O578 Mg568 2.251 . S
O578 Mg571 2.079 . S
O578 C580 1.273 . S
C579 O575 1.246 . S
C579 O576 1.259 . S
C580 O577 1.252 . S
C580 O578 1.273 . S
O581 Mg568 2.010 . S
O581 C573 1.249 . S
Mg582 O583 2.028 . S
Mg582 O589 1.986 . S
Mg582 O591 2.114 . S
Mg582 O592 2.251 . S
Mg582 O595 2.010 . S
O583 Mg582 2.028 . S
O583 C586 1.250 . S
O584 Mg585 2.028 . S
O584 C586 1.248 . S
Mg585 O584 2.028 . S
Mg585 O590 2.032 . S
Mg585 O592 2.079 . S
C586 O583 1.250 . S
C586 O584 1.248 . S
C587 O588 1.264 . S
C587 O595 1.249 . S
O588 C587 1.264 . S
O589 Mg582 1.986 . S
O589 C593 1.246 . S
O590 Mg585 2.032 . S
O590 C593 1.259 . S
O591 Mg582 2.114 . S
O591 C594 1.252 . S
O592 Mg582 2.251 . S
O592 Mg585 2.079 . S
O592 C594 1.273 . S
C593 O589 1.246 . S
C593 O590 1.259 . S
C594 O591 1.252 . S
C594 O592 1.273 . S
O595 Mg582 2.010 . S
O595 C587 1.249 . S
Mg596 O597 2.028 . S
Mg596 O603 1.986 . S
Mg596 O605 2.114 . S
Mg596 O606 2.251 . S
Mg596 O609 2.010 . S
O597 Mg596 2.028 . S
O597 C600 1.250 . S
O598 Mg599 2.028 . S
O598 C600 1.248 . S
Mg599 O598 2.028 . S
Mg599 O604 2.032 . S
Mg599 O606 2.079 . S
C600 O597 1.250 . S
C600 O598 1.248 . S
C601 O602 1.264 . S
C601 O609 1.249 . S
O602 C601 1.264 . S
O603 Mg596 1.986 . S
O603 C607 1.246 . S
O604 Mg599 2.032 . S
O604 C607 1.259 . S
O605 Mg596 2.114 . S
O605 C608 1.252 . S
O606 Mg596 2.251 . S
O606 Mg599 2.079 . S
O606 C608 1.273 . S
C607 O603 1.246 . S
C607 O604 1.259 . S
C608 O605 1.252 . S
C608 O606 1.273 . S
O609 Mg596 2.010 . S
O609 C601 1.249 . S
Mg610 O611 2.028 1_545 S
Mg610 O617 1.986 1_545 S
Mg610 O619 2.114 . S
Mg610 O620 2.251 . S
Mg610 O623 2.010 . S
O611 Mg610 2.028 1_565 S
O611 C614 1.250 . S
O612 Mg613 2.028 . S
O612 C614 1.248 . S
Mg613 O612 2.028 . S
Mg613 O618 2.032 . S
Mg613 O620 2.079 1_565 S
C614 O611 1.250 . S
C614 O612 1.248 . S
C615 O616 1.264 . S
C615 O623 1.249 . S
O616 C615 1.264 . S
O617 Mg610 1.986 1_565 S
O617 C621 1.246 . S
O618 Mg613 2.032 . S
O618 C621 1.259 . S
O619 Mg610 2.114 . S
O619 C622 1.252 . S
O620 Mg610 2.251 . S
O620 Mg613 2.079 1_545 S
O620 C622 1.273 . S
C621 O617 1.246 . S
C621 O618 1.259 . S
C622 O619 1.252 . S
C622 O620 1.273 . S
O623 Mg610 2.010 . S
O623 C615 1.249 . S
Mg624 O625 2.028 . S
Mg624 O631 1.986 . S
Mg624 O633 2.114 . S
Mg624 O634 2.251 . S
Mg624 O637 2.010 . S
O625 Mg624 2.028 . S
O625 C628 1.250 1_455 S
O626 Mg627 2.028 . S
O626 C628 1.248 . S
Mg627 O626 2.028 . S
Mg627 O632 2.032 . S
Mg627 O634 2.079 1_655 S
C628 O625 1.250 1_655 S
C628 O626 1.248 . S
C629 O630 1.264 . S
C629 O637 1.249 . S
O630 C629 1.264 . S
O631 Mg624 1.986 . S
O631 C635 1.246 . S
O632 Mg627 2.032 . S
O632 C635 1.259 1_655 S
O633 Mg624 2.114 . S
O633 C636 1.252 . S
O634 Mg624 2.251 . S
O634 Mg627 2.079 1_455 S
O634 C636 1.273 . S
C635 O631 1.246 . S
C635 O632 1.259 1_455 S
C636 O633 1.252 . S
C636 O634 1.273 . S
O637 Mg624 2.010 . S
O637 C629 1.249 . S
Mg638 O639 2.028 . S
Mg638 O645 1.986 . S
Mg638 O647 2.114 . S
Mg638 O648 2.251 . S
Mg638 O651 2.010 . S
O639 Mg638 2.028 . S
O639 C642 1.250 . S
O640 Mg641 2.028 . S
O640 C642 1.248 . S
Mg641 O640 2.028 . S
Mg641 O646 2.032 . S
Mg641 O648 2.079 . S
C642 O639 1.250 . S
C642 O640 1.248 . S
C643 O644 1.264 . S
C643 O651 1.249 . S
O644 C643 1.264 . S
O645 Mg638 1.986 . S
O645 C649 1.246 . S
O646 Mg641 2.032 . S
O646 C649 1.259 . S
O647 Mg638 2.114 . S
O647 C650 1.252 . S
O648 Mg638 2.251 . S
O648 Mg641 2.079 . S
O648 C650 1.273 . S
C649 O645 1.246 . S
C649 O646 1.259 . S
C650 O647 1.252 . S
C650 O648 1.273 . S
O651 Mg638 2.010 . S
O651 C643 1.249 . S
Mg652 O653 2.028 1_655 S
Mg652 O659 1.994 . S
Mg652 O661 2.114 . S
Mg652 O662 2.251 1_655 S
Mg652 O665 2.010 . S
O653 Mg652 2.028 1_455 S
O653 C656 1.250 . S
O654 Mg655 2.028 . S
O654 C656 1.248 . S
Mg655 O654 2.028 . S
Mg655 O660 2.032 . S
Mg655 O662 2.079 . S
C656 O653 1.250 . S
C656 O654 1.248 . S
C657 O658 1.264 . S
C657 O665 1.249 . S
O658 C657 1.264 . S
O659 Mg652 1.994 . S
O659 C663 1.223 1_655 S
O660 Mg655 2.032 . S
O660 C663 1.259 . S
O661 Mg652 2.114 . S
O661 C664 1.252 . S
O662 Mg652 2.251 1_455 S
O662 Mg655 2.079 . S
O662 C664 1.273 1_455 S
C663 O659 1.223 1_455 S
C663 O660 1.259 . S
C664 O661 1.252 . S
C664 O662 1.273 1_655 S
O665 Mg652 2.010 . S
O665 C657 1.249 . S
Mg666 O667 2.028 . S
Mg666 O673 1.986 . S
Mg666 O675 2.114 . S
Mg666 O676 2.251 . S
Mg666 O679 2.010 . S
O667 Mg666 2.028 . S
O667 C670 1.250 . S
O668 Mg669 2.028 . S
O668 C670 1.248 . S
Mg669 O668 2.028 . S
Mg669 O674 2.032 . S
Mg669 O676 2.079 . S
C670 O667 1.250 . S
C670 O668 1.248 . S
C671 O672 1.264 . S
C671 O679 1.249 . S
O672 C671 1.264 . S
O673 Mg666 1.986 . S
O673 C677 1.246 . S
O674 Mg669 2.032 . S
O674 C677 1.259 . S
O675 Mg666 2.114 . S
O675 C678 1.252 . S
O676 Mg666 2.251 . S
O676 Mg669 2.079 . S
O676 C678 1.273 . S
C677 O673 1.246 . S
C677 O674 1.259 . S
C678 O675 1.252 . S
C678 O676 1.273 . S
O679 Mg666 2.010 . S
O679 C671 1.249 . S
C680 C681 1.387 . S
C680 H684 0.950 . S
C680 C689 1.390 . S
C681 C680 1.387 . S
C681 C683 1.387 . S
H682 C689 0.950 . S
C683 C681 1.387 . S
C683 C685 1.390 . S
C683 H687 0.950 . S
H684 C680 0.950 . S
C685 C683 1.390 . S
C685 C686 1.387 . S
C685 H688 0.950 . S
C686 C685 1.387 . S
C686 C689 1.387 . S
H687 C683 0.950 . S
H688 C685 0.950 . S
C689 C680 1.390 . S
C689 H682 0.950 . S
C689 C686 1.387 . S
C690 C691 1.387 . S
C690 H694 0.950 . S
C690 C699 1.390 . S
C691 C690 1.387 . S
C691 C693 1.387 . S
H692 C699 0.950 . S
C693 C691 1.387 . S
C693 C695 1.390 . S
C693 H697 0.950 . S
H694 C690 0.950 . S
C695 C693 1.390 . S
C695 C696 1.387 . S
C695 H698 0.950 . S
C696 C695 1.387 . S
C696 C699 1.387 . S
H697 C693 0.950 . S
H698 C695 0.950 . S
C699 C690 1.390 . S
C699 H692 0.950 . S
C699 C696 1.387 . S
C700 C701 1.387 . S
C700 H704 0.950 . S
C700 C709 1.390 . S
C701 C700 1.387 . S
C701 C703 1.387 . S
H702 C709 0.950 . S
C703 C701 1.387 . S
C703 C705 1.390 . S
C703 H707 0.950 . S
H704 C700 0.950 . S
C705 C703 1.390 . S
C705 C706 1.387 . S
C705 H708 0.950 . S
C706 C705 1.387 . S
C706 C709 1.387 . S
H707 C703 0.950 . S
H708 C705 0.950 . S
C709 C700 1.390 . S
C709 H702 0.950 . S
C709 C706 1.387 . S
C710 C711 1.387 . S
C710 H714 0.950 . S
C710 C719 1.390 . S
C711 C710 1.387 . S
C711 C713 1.387 1_565 S
H712 C719 0.950 . S
C713 C711 1.387 1_545 S
C713 C715 1.390 . S
C713 H717 0.950 . S
H714 C710 0.950 . S
C715 C713 1.390 . S
C715 C716 1.387 . S
C715 H718 0.950 . S
C716 C715 1.387 . S
C716 C719 1.387 1_545 S
H717 C713 0.950 . S
H718 C715 0.950 . S
C719 C710 1.390 . S
C719 H712 0.950 . S
C719 C716 1.387 1_565 S
C720 C721 1.387 . S
C720 H724 0.950 . S
C720 C729 1.390 . S
C721 C720 1.387 . S
C721 C723 1.387 . S
H722 C729 0.950 . S
C723 C721 1.387 . S
C723 C725 1.390 . S
C723 H727 0.950 . S
H724 C720 0.950 . S
C725 C723 1.390 . S
C725 C726 1.387 . S
C725 H728 0.950 . S
C726 C725 1.387 . S
C726 C729 1.387 . S
H727 C723 0.950 . S
H728 C725 0.950 . S
C729 C720 1.390 . S
C729 H722 0.950 . S
C729 C726 1.387 . S
C730 C731 1.387 . S
C730 H734 0.950 . S
C730 C739 1.390 . S
C731 C730 1.387 . S
C731 C733 1.387 . S
H732 C739 0.950 . S
C733 C731 1.387 . S
C733 C735 1.390 . S
C733 H737 0.950 . S
H734 C730 0.950 . S
C735 C733 1.390 . S
C735 C736 1.387 . S
C735 H738 0.950 . S
C736 C735 1.387 . S
C736 C739 1.387 . S
H737 C733 0.950 . S
H738 C735 0.950 . S
C739 C730 1.390 . S
C739 H732 0.950 . S
C739 C736 1.387 . S
C740 C741 1.387 . S
C740 H744 0.950 . S
C740 C749 1.390 . S
C741 C740 1.387 . S
C741 C743 1.387 . S
H742 C749 0.950 . S
C743 C741 1.387 . S
C743 C745 1.390 . S
C743 H747 0.950 . S
H744 C740 0.950 . S
C745 C743 1.390 . S
C745 C746 1.387 . S
C745 H748 0.950 . S
C746 C745 1.387 . S
C746 C749 1.387 . S
H747 C743 0.950 . S
H748 C745 0.950 . S
C749 C740 1.390 . S
C749 H742 0.950 . S
C749 C746 1.387 . S
C750 C751 1.387 1_545 S
C750 H754 0.950 . S
C750 C759 1.390 . S
C751 C750 1.387 1_565 S
C751 C753 1.387 . S
H752 C759 0.950 . S
C753 C751 1.387 . S
C753 C755 1.390 . S
C753 H757 0.950 . S
H754 C750 0.950 . S
C755 C753 1.390 . S
C755 C756 1.387 . S
C755 H758 0.950 . S
C756 C755 1.387 . S
C756 C759 1.387 1_565 S
H757 C753 0.950 . S
H758 C755 0.950 . S
C759 C750 1.390 . S
C759 H752 0.950 . S
C759 C756 1.387 1_545 S
C760 C761 1.387 . S
C760 H764 0.950 . S
C760 C769 1.390 . S
C761 C760 1.387 . S
C761 C763 1.387 . S
H762 C769 0.950 . S
C763 C761 1.387 . S
C763 C765 1.390 . S
C763 H767 0.950 . S
H764 C760 0.950 . S
C765 C763 1.390 . S
C765 C766 1.387 . S
C765 H768 0.950 . S
C766 C765 1.387 . S
C766 C769 1.387 . S
H767 C763 0.950 . S
H768 C765 0.950 . S
C769 C760 1.390 . S
C769 H762 0.950 . S
C769 C766 1.387 . S
C770 C771 1.387 . S
C770 H774 0.950 . S
C770 C779 1.390 . S
C771 C770 1.387 . S
C771 C773 1.387 . S
H772 C779 0.950 . S
C773 C771 1.387 . S
C773 C775 1.390 . S
C773 H777 0.950 . S
H774 C770 0.950 . S
C775 C773 1.390 . S
C775 C776 1.387 . S
C775 H778 0.950 . S
C776 C775 1.387 . S
C776 C779 1.387 . S
H777 C773 0.950 . S
H778 C775 0.950 . S
C779 C770 1.390 . S
C779 H772 0.950 . S
C779 C776 1.387 . S
C780 C781 1.387 . S
C780 H784 0.950 . S
C780 C789 1.390 . S
C781 C780 1.387 . S
C781 C783 1.387 . S
H782 C789 0.950 . S
C783 C781 1.387 . S
C783 C785 1.390 . S
C783 H787 0.950 . S
H784 C780 0.950 . S
C785 C783 1.390 . S
C785 C786 1.387 . S
C785 H788 0.950 . S
C786 C785 1.387 . S
C786 C789 1.387 . S
H787 C783 0.950 . S
H788 C785 0.950 . S
C789 C780 1.390 . S
C789 H782 0.950 . S
C789 C786 1.387 . S
C790 C791 1.387 . S
C790 H794 0.950 . S
C790 C799 1.390 . S
C791 C790 1.387 . S
C791 C793 1.387 . S
H792 C799 0.950 . S
C793 C791 1.387 . S
C793 C795 1.390 . S
C793 H797 0.950 . S
H794 C790 0.950 . S
C795 C793 1.390 . S
C795 C796 1.387 . S
C795 H798 0.950 . S
C796 C795 1.387 . S
C796 C799 1.387 . S
H797 C793 0.950 . S
H798 C795 0.950 . S
C799 C790 1.390 . S
C799 H792 0.950 . S
C799 C796 1.387 . S
C800 C801 1.387 . S
C800 H804 0.950 . S
C800 C809 1.390 . S
C801 C800 1.387 . S
C801 C803 1.387 . S
H802 C809 0.950 . S
C803 C801 1.387 . S
C803 C805 1.390 . S
C803 H807 0.950 . S
H804 C800 0.950 . S
C805 C803 1.390 . S
C805 C806 1.387 . S
C805 H808 0.950 . S
C806 C805 1.387 . S
C806 C809 1.387 . S
H807 C803 0.950 . S
H808 C805 0.950 . S
C809 C800 1.390 . S
C809 H802 0.950 . S
C809 C806 1.387 . S
C810 C811 1.387 . S
C810 H814 0.950 1_455 S
C810 C819 1.390 . S
C811 C810 1.387 . S
C811 C813 1.387 . S
H812 C819 0.950 1_655 S
C813 C811 1.387 . S
C813 C815 1.390 . S
C813 H817 0.950 . S
H814 C810 0.950 1_655 S
C815 C813 1.390 . S
C815 C816 1.387 . S
C815 H818 0.950 . S
C816 C815 1.387 . S
C816 C819 1.387 . S
H817 C813 0.950 . S
H818 C815 0.950 . S
C819 C810 1.390 . S
C819 H812 0.950 1_455 S
C819 C816 1.387 . S
C820 C821 1.387 . S
C820 H824 0.950 . S
C820 C829 1.390 . S
C821 C820 1.387 . S
C821 C823 1.387 . S
H822 C829 0.950 . S
C823 C821 1.387 . S
C823 C825 1.390 . S
C823 H827 0.950 . S
H824 C820 0.950 . S
C825 C823 1.390 . S
C825 C826 1.387 . S
C825 H828 0.950 . S
C826 C825 1.387 . S
C826 C829 1.387 . S
H827 C823 0.950 . S
H828 C825 0.950 . S
C829 C820 1.390 . S
C829 H822 0.950 . S
C829 C826 1.387 . S
C830 C831 1.387 . S
C830 H834 0.950 . S
C830 C839 1.390 . S
C831 C830 1.387 . S
C831 C833 1.387 1_655 S
H832 C839 0.950 . S
C833 C831 1.387 1_455 S
C833 C835 1.390 . S
C833 H837 0.950 . S
H834 C830 0.950 . S
C835 C833 1.390 . S
C835 C836 1.387 1_455 S
C835 H838 0.950 . S
C836 C835 1.387 1_655 S
C836 C839 1.387 . S
H837 C833 0.950 . S
H838 C835 0.950 . S
C839 C830 1.390 . S
C839 H832 0.950 . S
C839 C836 1.387 . S
C840 C841 1.387 . S
C840 H844 0.950 . S
C840 C849 1.390 . S
C841 C840 1.387 . S
C841 C843 1.387 . S
H842 C849 0.950 . S
C843 C841 1.387 . S
C843 C845 1.390 . S
C843 H847 0.950 . S
H844 C840 0.950 . S
C845 C843 1.390 . S
C845 C846 1.387 . S
C845 H848 0.950 . S
C846 C845 1.387 . S
C846 C849 1.387 . S
H847 C843 0.950 . S
H848 C845 0.950 . S
C849 C840 1.390 . S
C849 H842 0.950 . S
C849 C846 1.387 . S
C850 C851 1.387 . S
C850 H854 0.950 . S
C850 C859 1.390 . S
C851 C850 1.387 . S
C851 C853 1.387 . S
H852 C859 0.950 . S
C853 C851 1.387 . S
C853 C855 1.390 . S
C853 H857 0.950 . S
H854 C850 0.950 . S
C855 C853 1.390 . S
C855 C856 1.387 . S
C855 H858 0.950 . S
C856 C855 1.387 . S
C856 C859 1.387 . S
H857 C853 0.950 . S
H858 C855 0.950 . S
C859 C850 1.390 . S
C859 H852 0.950 . S
C859 C856 1.387 . S
C860 C861 1.387 . S
C860 H864 0.950 1_556 S
C860 C869 1.390 1_556 S
C861 C860 1.387 . S
C861 C863 1.387 . S
H862 C869 0.950 . S
C863 C861 1.387 . S
C863 C865 1.390 . S
C863 H867 0.950 . S
H864 C860 0.950 1_554 S
C865 C863 1.390 . S
C865 C866 1.387 . S
C865 H868 0.950 . S
C866 C865 1.387 . S
C866 C869 1.387 1_556 S
H867 C863 0.950 . S
H868 C865 0.950 . S
C869 C860 1.390 1_554 S
C869 H862 0.950 . S
C869 C866 1.387 1_554 S
C870 C871 1.387 . S
C870 H874 0.950 . S
C870 C879 1.390 . S
C871 C870 1.387 . S
C871 C873 1.387 . S
H872 C879 0.950 . S
C873 C871 1.387 . S
C873 C875 1.390 . S
C873 H877 0.950 . S
H874 C870 0.950 . S
C875 C873 1.390 . S
C875 C876 1.387 . S
C875 H878 0.950 . S
C876 C875 1.387 . S
C876 C879 1.387 . S
H877 C873 0.950 . S
H878 C875 0.950 . S
C879 C870 1.390 . S
C879 H872 0.950 . S
C879 C876 1.387 . S
C880 C881 1.387 . S
C880 H884 0.950 . S
C880 C889 1.390 . S
C881 C880 1.387 . S
C881 C883 1.387 . S
H882 C889 0.950 . S
C883 C881 1.387 . S
C883 C885 1.390 . S
C883 H887 0.950 . S
H884 C880 0.950 . S
C885 C883 1.390 . S
C885 C886 1.387 . S
C885 H888 0.950 . S
C886 C885 1.387 . S
C886 C889 1.387 . S
H887 C883 0.950 . S
H888 C885 0.950 . S
C889 C880 1.390 . S
C889 H882 0.950 . S
C889 C886 1.387 . S
C890 C891 1.387 . S
C890 H894 0.950 . S
C890 C899 1.390 . S
C891 C890 1.387 . S
C891 C893 1.387 . S
H892 C899 0.950 . S
C893 C891 1.387 . S
C893 C895 1.390 . S
C893 H897 0.950 . S
H894 C890 0.950 . S
C895 C893 1.390 . S
C895 C896 1.387 . S
C895 H898 0.950 . S
C896 C895 1.387 . S
C896 C899 1.387 . S
H897 C893 0.950 . S
H898 C895 0.950 . S
C899 C890 1.390 . S
C899 H892 0.950 . S
C899 C896 1.387 . S
C900 C901 1.387 . S
C900 H904 0.950 . S
C900 C909 1.390 . S
C901 C900 1.387 . S
C901 C903 1.387 . S
H902 C909 0.950 . S
C903 C901 1.387 . S
C903 C905 1.390 . S
C903 H907 0.950 . S
H904 C900 0.950 . S
C905 C903 1.390 . S
C905 C906 1.387 . S
C905 H908 0.950 . S
C906 C905 1.387 . S
C906 C909 1.387 . S
H907 C903 0.950 . S
H908 C905 0.950 . S
C909 C900 1.390 . S
C909 H902 0.950 . S
C909 C906 1.387 . S
C910 C911 1.387 . S
C910 H914 0.950 . S
C910 C919 1.390 . S
C911 C910 1.387 . S
C911 C913 1.387 . S
H912 C919 0.950 . S
C913 C911 1.387 . S
C913 C915 1.390 . S
C913 H917 0.950 . S
H914 C910 0.950 . S
C915 C913 1.390 . S
C915 C916 1.387 . S
C915 H918 0.950 . S
C916 C915 1.387 . S
C916 C919 1.387 . S
H917 C913 0.950 . S
H918 C915 0.950 . S
C919 C910 1.390 . S
C919 H912 0.950 . S
C919 C916 1.387 . S
C920 C921 1.387 . S
C920 H924 0.950 . S
C920 C929 1.390 . S
C921 C920 1.387 . S
C921 C923 1.387 . S
H922 C929 0.950 . S
C923 C921 1.387 . S
C923 C925 1.390 . S
C923 H927 0.950 . S
H924 C920 0.950 . S
C925 C923 1.390 . S
C925 C926 1.387 . S
C925 H928 0.950 . S
C926 C925 1.387 . S
C926 C929 1.387 . S
H927 C923 0.950 . S
H928 C925 0.950 . S
C929 C920 1.390 . S
C929 H922 0.950 . S
C929 C926 1.387 . S
C930 C931 1.387 1_565 S
C930 H934 0.950 . S
C930 C939 1.390 . S
C931 C930 1.387 1_545 S
C931 C933 1.387 . S
H932 C939 0.950 . S
C933 C931 1.387 . S
C933 C935 1.390 . S
C933 H937 0.950 . S
H934 C930 0.950 . S
C935 C933 1.390 . S
C935 C936 1.387 . S
C935 H938 0.950 . S
C936 C935 1.387 . S
C936 C939 1.387 1_545 S
H937 C933 0.950 . S
H938 C935 0.950 . S
C939 C930 1.390 . S
C939 H932 0.950 . S
C939 C936 1.387 1_565 S
C940 C941 1.387 . S
C940 H944 0.950 . S
C940 C949 1.390 . S
C941 C940 1.387 . S
C941 C943 1.387 . S
H942 C949 0.950 . S
C943 C941 1.387 . S
C943 C945 1.390 . S
C943 H947 0.950 . S
H944 C940 0.950 . S
C945 C943 1.390 . S
C945 C946 1.387 . S
C945 H948 0.950 . S
C946 C945 1.387 . S
C946 C949 1.387 . S
H947 C943 0.950 . S
H948 C945 0.950 . S
C949 C940 1.390 . S
C949 H942 0.950 . S
C949 C946 1.387 . S
C950 C951 1.387 . S
C950 H954 0.950 . S
C950 C959 1.390 . S
C951 C950 1.387 . S
C951 C953 1.387 . S
H952 C959 0.950 . S
C953 C951 1.387 . S
C953 C955 1.390 . S
C953 H957 0.950 . S
H954 C950 0.950 . S
C955 C953 1.390 . S
C955 C956 1.387 . S
C955 H958 0.950 . S
C956 C955 1.387 . S
C956 C959 1.387 . S
H957 C953 0.950 . S
H958 C955 0.950 . S
C959 C950 1.390 . S
C959 H952 0.950 . S
C959 C956 1.387 . S
C960 C961 1.387 . S
C960 H964 0.950 . S
C960 C969 1.390 . S
C961 C960 1.387 . S
C961 C963 1.387 . S
H962 C969 0.950 . S
C963 C961 1.387 . S
C963 C965 1.390 . S
C963 H967 0.950 . S
H964 C960 0.950 . S
C965 C963 1.390 . S
C965 C966 1.387 . S
C965 H968 0.950 . S
C966 C965 1.387 . S
C966 C969 1.387 . S
H967 C963 0.950 . S
H968 C965 0.950 . S
C969 C960 1.390 . S
C969 H962 0.950 . S
C969 C966 1.387 . S
C970 C971 1.387 . S
C970 H974 0.950 . S
C970 C979 1.390 . S
C971 C970 1.387 . S
C971 C973 1.389 1_545 S
H972 C979 0.950 . S
C973 C971 1.389 1_565 S
C973 C975 1.390 . S
C973 H977 0.948 . S
H974 C970 0.950 . S
C975 C973 1.390 . S
C975 C976 1.387 1_565 S
C975 H978 0.950 . S
C976 C975 1.387 1_545 S
C976 C979 1.387 . S
H977 C973 0.948 . S
H978 C975 0.950 . S
C979 C970 1.390 . S
C979 H972 0.950 . S
C979 C976 1.387 . S
C980 C981 1.387 . S
C980 H984 0.950 . S
C980 C989 1.390 . S
C981 C980 1.387 . S
C981 C983 1.387 . S
H982 C989 0.950 . S
C983 C981 1.387 . S
C983 C985 1.390 . S
C983 H987 0.950 . S
H984 C980 0.950 . S
C985 C983 1.390 . S
C985 C986 1.387 . S
C985 H988 0.950 . S
C986 C985 1.387 . S
C986 C989 1.387 . S
H987 C983 0.950 . S
H988 C985 0.950 . S
C989 C980 1.390 . S
C989 H982 0.950 . S
C989 C986 1.387 . S
C990 C991 1.387 . S
C990 H994 0.950 . S
C990 C999 1.390 . S
C991 C990 1.387 . S
C991 C993 1.387 . S
H992 C999 0.950 . S
C993 C991 1.387 . S
C993 C995 1.390 . S
C993 H997 0.950 . S
H994 C990 0.950 . S
C995 C993 1.390 . S
C995 C996 1.387 . S
C995 H998 0.950 . S
C996 C995 1.387 . S
C996 C999 1.387 . S
H997 C993 0.950 . S
H998 C995 0.950 . S
C999 C990 1.390 . S
C999 H992 0.950 . S
C999 C996 1.387 . S
C1000 C1001 1.387 . S
C1000 H1004 0.950 . S
C1000 C1009 1.390 . S
C1001 C1000 1.387 . S
C1001 C1003 1.387 . S
H1002 C1009 0.950 . S
C1003 C1001 1.387 . S
C1003 C1005 1.390 . S
C1003 H1007 0.950 . S
H1004 C1000 0.950 . S
C1005 C1003 1.390 . S
C1005 C1006 1.387 . S
C1005 H1008 0.950 . S
C1006 C1005 1.387 . S
C1006 C1009 1.387 . S
H1007 C1003 0.950 . S
H1008 C1005 0.950 . S
C1009 C1000 1.390 . S
C1009 H1002 0.950 . S
C1009 C1006 1.387 . S
C1010 C1011 1.387 . S
C1010 H1014 0.950 . S
C1010 C1019 1.390 . S
C1011 C1010 1.387 . S
C1011 C1013 1.387 1_455 S
H1012 C1019 0.950 . S
C1013 C1011 1.387 1_655 S
C1013 C1015 1.390 . S
C1013 H1017 0.950 . S
H1014 C1010 0.950 . S
C1015 C1013 1.390 . S
C1015 C1016 1.387 1_655 S
C1015 H1018 0.950 . S
C1016 C1015 1.387 1_455 S
C1016 C1019 1.387 . S
H1017 C1013 0.950 . S
H1018 C1015 0.950 . S
C1019 C1010 1.390 . S
C1019 H1012 0.950 . S
C1019 C1016 1.387 . S
C1020 C1021 1.387 . S
C1020 H1024 0.950 . S
C1020 C1029 1.390 . S
C1021 C1020 1.387 . S
C1021 C1023 1.387 . S
H1022 C1029 0.950 . S
C1023 C1021 1.387 . S
C1023 C1025 1.390 . S
C1023 H1027 0.950 . S
H1024 C1020 0.950 . S
C1025 C1023 1.390 . S
C1025 C1026 1.387 . S
C1025 H1028 0.950 . S
C1026 C1025 1.387 . S
C1026 C1029 1.387 . S
H1027 C1023 0.950 . S
H1028 C1025 0.950 . S
C1029 C1020 1.390 . S
C1029 H1022 0.950 . S
C1029 C1026 1.387 . S
C1030 C1031 1.387 1_655 S
C1030 H1034 0.950 . S
C1030 C1039 1.390 . S
C1031 C1030 1.387 1_455 S
C1031 C1033 1.387 . S
H1032 C1039 0.950 . S
C1033 C1031 1.387 . S
C1033 C1035 1.390 . S
C1033 H1037 0.950 . S
H1034 C1030 0.950 . S
C1035 C1033 1.390 . S
C1035 C1036 1.387 . S
C1035 H1038 0.950 . S
C1036 C1035 1.387 . S
C1036 C1039 1.387 1_455 S
H1037 C1033 0.950 . S
H1038 C1035 0.950 . S
C1039 C1030 1.390 . S
C1039 H1032 0.950 . S
C1039 C1036 1.387 1_655 S
C1040 C1041 1.387 . S
C1040 H1044 0.950 . S
C1040 C1049 1.390 . S
C1041 C1040 1.387 . S
C1041 C1043 1.387 . S
H1042 C1049 0.950 . S
C1043 C1041 1.387 . S
C1043 C1045 1.390 . S
C1043 H1047 0.950 . S
H1044 C1040 0.950 . S
C1045 C1043 1.390 . S
C1045 C1046 1.387 . S
C1045 H1048 0.950 . S
C1046 C1045 1.387 . S
C1046 C1049 1.387 . S
H1047 C1043 0.950 . S
H1048 C1045 0.950 . S
C1049 C1040 1.390 . S
C1049 H1042 0.950 . S
C1049 C1046 1.387 . S
C1050 C1051 1.387 . S
C1050 H1054 0.950 . S
C1050 C1059 1.390 . S
C1051 C1050 1.387 . S
C1051 C1053 1.387 . S
H1052 C1059 0.950 . S
C1053 C1051 1.387 . S
C1053 C1055 1.390 . S
C1053 H1057 0.950 . S
H1054 C1050 0.950 . S
C1055 C1053 1.390 . S
C1055 C1056 1.387 . S
C1055 H1058 0.950 . S
C1056 C1055 1.387 . S
C1056 C1059 1.387 . S
H1057 C1053 0.950 . S
H1058 C1055 0.950 . S
C1059 C1050 1.390 . S
C1059 H1052 0.950 . S
C1059 C1056 1.387 . S
C1060 C1061 1.387 . S
C1060 H1064 0.950 . S
C1060 C1069 1.390 . S
C1061 C1060 1.387 . S
C1061 C1063 1.387 . S
H1062 C1069 0.950 . S
C1063 C1061 1.387 . S
C1063 C1065 1.390 . S
C1063 H1067 0.950 . S
H1064 C1060 0.950 . S
C1065 C1063 1.390 . S
C1065 C1066 1.387 . S
C1065 H1068 0.950 . S
C1066 C1065 1.387 . S
C1066 C1069 1.387 . S
H1067 C1063 0.950 . S
H1068 C1065 0.950 . S
C1069 C1060 1.390 . S
C1069 H1062 0.950 . S
C1069 C1066 1.387 . S
C1070 C1071 1.387 . S
C1070 H1074 0.950 . S
C1070 C1079 1.390 . S
C1071 C1070 1.387 . S
C1071 C1073 1.387 . S
H1072 C1079 0.950 . S
C1073 C1071 1.387 . S
C1073 C1075 1.390 . S
C1073 H1077 0.950 . S
H1074 C1070 0.950 . S
C1075 C1073 1.390 . S
C1075 C1076 1.387 . S
C1075 H1078 0.950 . S
C1076 C1075 1.387 . S
C1076 C1079 1.387 . S
H1077 C1073 0.950 . S
H1078 C1075 0.950 . S
C1079 C1070 1.390 . S
C1079 H1072 0.950 . S
C1079 C1076 1.387 . S
C1080 C1081 1.387 . S
C1080 H1084 0.950 . S
C1080 C1089 1.390 . S
C1081 C1080 1.387 . S
C1081 C1083 1.387 . S
H1082 C1089 0.950 . S
C1083 C1081 1.387 . S
C1083 C1085 1.390 . S
C1083 H1087 0.950 . S
H1084 C1080 0.950 . S
C1085 C1083 1.390 . S
C1085 C1086 1.387 . S
C1085 H1088 0.950 . S
C1086 C1085 1.387 . S
C1086 C1089 1.387 . S
H1087 C1083 0.950 . S
H1088 C1085 0.950 . S
C1089 C1080 1.390 . S
C1089 H1082 0.950 . S
C1089 C1086 1.387 . S
C1090 C1091 1.387 . S
C1090 H1094 0.950 . S
C1090 C1099 1.390 . S
C1091 C1090 1.387 . S
C1091 C1093 1.387 . S
H1092 C1099 0.950 . S
C1093 C1091 1.387 . S
C1093 C1095 1.390 . S
C1093 H1097 0.950 . S
H1094 C1090 0.950 . S
C1095 C1093 1.390 . S
C1095 C1096 1.387 . S
C1095 H1098 0.950 . S
C1096 C1095 1.387 . S
C1096 C1099 1.387 . S
H1097 C1093 0.950 . S
H1098 C1095 0.950 . S
C1099 C1090 1.390 . S
C1099 H1092 0.950 . S
C1099 C1096 1.387 . S
C1100 C1101 1.387 . S
C1100 H1104 0.950 . S
C1100 C1109 1.390 . S
C1101 C1100 1.387 . S
C1101 C1103 1.387 . S
H1102 C1109 0.950 . S
C1103 C1101 1.387 . S
C1103 C1105 1.390 . S
C1103 H1107 0.950 . S
H1104 C1100 0.950 . S
C1105 C1103 1.390 . S
C1105 C1106 1.387 . S
C1105 H1108 0.950 . S
C1106 C1105 1.387 . S
C1106 C1109 1.387 . S
H1107 C1103 0.950 . S
H1108 C1105 0.950 . S
C1109 C1100 1.390 . S
C1109 H1102 0.950 . S
C1109 C1106 1.387 . S
C1110 C1111 1.387 . S
C1110 H1114 0.950 . S
C1110 C1119 1.390 . S
C1111 C1110 1.387 . S
C1111 C1113 1.387 . S
H1112 C1119 0.950 . S
C1113 C1111 1.387 . S
C1113 C1115 1.390 . S
C1113 H1117 0.950 . S
H1114 C1110 0.950 . S
C1115 C1113 1.390 . S
C1115 C1116 1.387 . S
C1115 H1118 0.950 . S
C1116 C1115 1.387 . S
C1116 C1119 1.387 . S
H1117 C1113 0.950 . S
H1118 C1115 0.950 . S
C1119 C1110 1.390 . S
C1119 H1112 0.950 . S
C1119 C1116 1.387 . S
C1120 C1121 1.387 . S
C1120 H1124 0.950 . S
C1120 C1129 1.390 . S
C1121 C1120 1.387 . S
C1121 C1123 1.387 1_556 S
H1122 C1129 0.950 . S
C1123 C1121 1.387 1_554 S
C1123 C1125 1.390 . S
C1123 H1127 0.950 . S
H1124 C1120 0.950 . S
C1125 C1123 1.390 . S
C1125 C1126 1.376 1_554 S
C1125 H1128 0.950 . S
C1126 C1125 1.376 1_556 S
C1126 C1129 1.401 . S
H1127 C1123 0.950 . S
H1128 C1125 0.950 . S
C1129 C1120 1.390 . S
C1129 H1122 0.950 . S
C1129 C1126 1.401 . S
C1130 C1131 1.387 . S
C1130 H1134 0.950 . S
C1130 C1139 1.390 . S
C1131 C1130 1.387 . S
C1131 C1133 1.387 . S
H1132 C1139 0.950 . S
C1133 C1131 1.387 . S
C1133 C1135 1.390 . S
C1133 H1137 0.950 . S
H1134 C1130 0.950 . S
C1135 C1133 1.390 . S
C1135 C1136 1.387 . S
C1135 H1138 0.950 . S
C1136 C1135 1.387 . S
C1136 C1139 1.387 . S
H1137 C1133 0.950 . S
H1138 C1135 0.950 . S
C1139 C1130 1.390 . S
C1139 H1132 0.950 . S
C1139 C1136 1.387 . S
C1140 C1141 1.387 . S
C1140 H1144 0.950 1_554 S
C1140 C1149 1.391 . S
C1141 C1140 1.387 . S
C1141 C1143 1.387 . S
H1142 C1149 0.929 1_556 S
C1143 C1141 1.387 . S
C1143 C1145 1.390 . S
C1143 H1147 0.950 . S
H1144 C1140 0.950 1_556 S
C1145 C1143 1.390 . S
C1145 C1146 1.387 . S
C1145 H1148 0.950 . S
C1146 C1145 1.387 . S
C1146 C1149 1.407 . S
H1147 C1143 0.950 . S
H1148 C1145 0.950 . S
C1149 C1140 1.391 . S
C1149 H1142 0.929 1_554 S
C1149 C1146 1.407 . S
C1150 C1151 1.387 . S
C1150 H1154 0.950 . S
C1150 C1159 1.390 . S
C1151 C1150 1.387 . S
C1151 C1153 1.387 . S
H1152 C1159 0.950 . S
C1153 C1151 1.387 . S
C1153 C1155 1.390 . S
C1153 H1157 0.950 . S
H1154 C1150 0.950 . S
C1155 C1153 1.390 . S
C1155 C1156 1.387 . S
C1155 H1158 0.950 . S
C1156 C1155 1.387 . S
C1156 C1159 1.387 . S
H1157 C1153 0.950 . S
H1158 C1155 0.950 . S
C1159 C1150 1.390 . S
C1159 H1152 0.950 . S
C1159 C1156 1.387 . S
C686 C523 1.434 . S
C681 C177 1.435 . S
C696 C531 1.286 . S
C691 C209 1.540 . S
C701 C253 1.371 . S
C706 C551 1.400 . S
C716 C565 1.508 . S
C711 C157 1.487 1_655 S
C726 C580 1.534 . S
C721 C343 1.503 . S
C736 C594 1.507 . S
C731 C401 1.455 . S
C741 C369 1.535 . S
C746 C608 1.566 . S
C756 C614 1.436 . S
C751 C317 1.460 . S
C761 C375 1.497 . S
C766 C628 1.491 . S
C776 C649 1.547 . S
C771 C305 1.550 . S
C781 C349 1.465 . S
C786 C629 1.268 . S
C796 C650 1.535 . S
C791 C413 1.474 . S
C801 C241 1.428 . S
C806 C657 1.194 . S
C811 C151 1.453 . S
C816 C663 1.475 . S
C821 C189 1.493 . S
C826 C656 1.460 . S
C831 C215 1.470 . S
C836 C664 1.483 . S
C841 C113 1.463 . S
C846 C558 1.449 . S
C851 C471 1.468 . S
C856 C559 1.254 . S
C866 C516 1.508 . S
C861 C509 1.535 . S
C876 C537 1.449 . S
C871 C279 1.429 . S
C881 C145 1.431 . S
C886 C572 1.421 . S
C896 C622 1.560 . S
C891 C381 1.519 . S
C906 C573 1.230 . S
C901 C311 1.461 . S
C916 C601 1.261 . S
C911 C407 1.479 . S
C926 C607 1.432 . S
C921 C465 1.435 . S
C931 C497 1.540 . S
C936 C615 1.287 . S
C941 C285 1.369 . S
C946 C579 1.401 . S
C956 C593 1.507 . S
C951 C445 1.489 . S
C961 C119 1.503 . S
C966 C552 1.533 . S
C976 C566 1.507 . S
C971 C17 1.455 . S
C986 C524 1.566 . S
C981 C49 1.536 . S
C996 C530 1.436 . S
C991 C93 1.459 . S
C1001 C55 1.499 . S
C1006 C642 1.494 . S
C1011 C81 1.549 1_455 S
C1016 C635 1.545 . S
C1021 C125 1.465 . S
C1026 C643 1.268 . S
C1031 C29 1.474 . S
C1036 C636 1.535 . S
C1046 C671 1.199 . S
C1041 C273 1.431 . S
C1056 C677 1.475 . S
C1051 C439 1.453 . S
C1066 C670 1.464 . S
C1061 C477 1.491 . S
C1071 C503 1.470 . S
C1076 C678 1.483 . S
C1081 C337 1.463 . S
C1086 C586 1.449 . S
C1096 C587 1.254 . S
C1091 C183 1.469 . S
C1106 C600 1.504 . S
C1101 C221 1.536 . S
C1116 C621 1.449 . S
C1111 C247 1.429 . S
C1121 C433 1.429 . S
C1126 C544 1.417 1_556 S
C1136 C538 1.561 . S
C1131 C61 1.519 . S
C1141 C87 1.460 . S
C1146 C545 1.237 . S
C1156 C517 1.258 . S
C1151 C23 1.479 . S
