# Generated by pormake.
# Topology ctn, (3,4)-cn, num edge types: 1
# Building blocks:
#     Node 0, Type 0, BuildingBlock: BELTOD_clean_linker_0, # of connection points: 3
#     Node 1, Type 0, BuildingBlock: BELTOD_clean_linker_0, # of connection points: 3
#     Node 2, Type 0, BuildingBlock: BELTOD_clean_linker_0, # of connection points: 3
#     Node 3, Type 0, BuildingBlock: BELTOD_clean_linker_0, # of connection points: 3
#     Node 4, Type 0, BuildingBlock: BELTOD_clean_linker_0, # of connection points: 3
#     Node 5, Type 0, BuildingBlock: BELTOD_clean_linker_0, # of connection points: 3
#     Node 6, Type 0, BuildingBlock: BELTOD_clean_linker_0, # of connection points: 3
#     Node 7, Type 0, BuildingBlock: BELTOD_clean_linker_0, # of connection points: 3
#     Node 8, Type 0, BuildingBlock: BELTOD_clean_linker_0, # of connection points: 3
#     Node 9, Type 0, BuildingBlock: BELTOD_clean_linker_0, # of connection points: 3
#     Node 10, Type 0, BuildingBlock: BELTOD_clean_linker_0, # of connection points: 3
#     Node 11, Type 0, BuildingBlock: BELTOD_clean_linker_0, # of connection points: 3
#     Node 12, Type 0, BuildingBlock: BELTOD_clean_linker_0, # of connection points: 3
#     Node 13, Type 0, BuildingBlock: BELTOD_clean_linker_0, # of connection points: 3
#     Node 14, Type 0, BuildingBlock: BELTOD_clean_linker_0, # of connection points: 3
#     Node 15, Type 0, BuildingBlock: BELTOD_clean_linker_0, # of connection points: 3
#     Node 16, Type 1, BuildingBlock: TATPOV_clean_sbu_0, # of connection points: 4
#     Node 17, Type 1, BuildingBlock: TATPOV_clean_sbu_0, # of connection points: 4
#     Node 18, Type 1, BuildingBlock: TATPOV_clean_sbu_0, # of connection points: 4
#     Node 19, Type 1, BuildingBlock: TATPOV_clean_sbu_0, # of connection points: 4
#     Node 20, Type 1, BuildingBlock: TATPOV_clean_sbu_0, # of connection points: 4
#     Node 21, Type 1, BuildingBlock: TATPOV_clean_sbu_0, # of connection points: 4
#     Node 22, Type 1, BuildingBlock: TATPOV_clean_sbu_0, # of connection points: 4
#     Node 23, Type 1, BuildingBlock: TATPOV_clean_sbu_0, # of connection points: 4
#     Node 24, Type 1, BuildingBlock: TATPOV_clean_sbu_0, # of connection points: 4
#     Node 25, Type 1, BuildingBlock: TATPOV_clean_sbu_0, # of connection points: 4
#     Node 26, Type 1, BuildingBlock: TATPOV_clean_sbu_0, # of connection points: 4
#     Node 27, Type 1, BuildingBlock: TATPOV_clean_sbu_0, # of connection points: 4
#     Edge 28, Type (0, 1), BuildingBlock: UVAHIK_clean_linker_0, # of connection points: 2
#     Edge 29, Type (0, 1), BuildingBlock: UVAHIK_clean_linker_0, # of connection points: 2
#     Edge 30, Type (0, 1), BuildingBlock: UVAHIK_clean_linker_0, # of connection points: 2
#     Edge 31, Type (0, 1), BuildingBlock: UVAHIK_clean_linker_0, # of connection points: 2
#     Edge 32, Type (0, 1), BuildingBlock: UVAHIK_clean_linker_0, # of connection points: 2
#     Edge 33, Type (0, 1), BuildingBlock: UVAHIK_clean_linker_0, # of connection points: 2
#     Edge 34, Type (0, 1), BuildingBlock: UVAHIK_clean_linker_0, # of connection points: 2
#     Edge 35, Type (0, 1), BuildingBlock: UVAHIK_clean_linker_0, # of connection points: 2
#     Edge 36, Type (0, 1), BuildingBlock: UVAHIK_clean_linker_0, # of connection points: 2
#     Edge 37, Type (0, 1), BuildingBlock: UVAHIK_clean_linker_0, # of connection points: 2
#     Edge 38, Type (0, 1), BuildingBlock: UVAHIK_clean_linker_0, # of connection points: 2
#     Edge 39, Type (0, 1), BuildingBlock: UVAHIK_clean_linker_0, # of connection points: 2
#     Edge 40, Type (0, 1), BuildingBlock: UVAHIK_clean_linker_0, # of connection points: 2
#     Edge 41, Type (0, 1), BuildingBlock: UVAHIK_clean_linker_0, # of connection points: 2
#     Edge 42, Type (0, 1), BuildingBlock: UVAHIK_clean_linker_0, # of connection points: 2
#     Edge 43, Type (0, 1), BuildingBlock: UVAHIK_clean_linker_0, # of connection points: 2
#     Edge 44, Type (0, 1), BuildingBlock: UVAHIK_clean_linker_0, # of connection points: 2
#     Edge 45, Type (0, 1), BuildingBlock: UVAHIK_clean_linker_0, # of connection points: 2
#     Edge 46, Type (0, 1), BuildingBlock: UVAHIK_clean_linker_0, # of connection points: 2
#     Edge 47, Type (0, 1), BuildingBlock: UVAHIK_clean_linker_0, # of connection points: 2
#     Edge 48, Type (0, 1), BuildingBlock: UVAHIK_clean_linker_0, # of connection points: 2
#     Edge 49, Type (0, 1), BuildingBlock: UVAHIK_clean_linker_0, # of connection points: 2
#     Edge 50, Type (0, 1), BuildingBlock: UVAHIK_clean_linker_0, # of connection points: 2
#     Edge 51, Type (0, 1), BuildingBlock: UVAHIK_clean_linker_0, # of connection points: 2
#     Edge 52, Type (0, 1), BuildingBlock: UVAHIK_clean_linker_0, # of connection points: 2
#     Edge 53, Type (0, 1), BuildingBlock: UVAHIK_clean_linker_0, # of connection points: 2
#     Edge 54, Type (0, 1), BuildingBlock: UVAHIK_clean_linker_0, # of connection points: 2
#     Edge 55, Type (0, 1), BuildingBlock: UVAHIK_clean_linker_0, # of connection points: 2
#     Edge 56, Type (0, 1), BuildingBlock: UVAHIK_clean_linker_0, # of connection points: 2
#     Edge 57, Type (0, 1), BuildingBlock: UVAHIK_clean_linker_0, # of connection points: 2
#     Edge 58, Type (0, 1), BuildingBlock: UVAHIK_clean_linker_0, # of connection points: 2
#     Edge 59, Type (0, 1), BuildingBlock: UVAHIK_clean_linker_0, # of connection points: 2
#     Edge 60, Type (0, 1), BuildingBlock: UVAHIK_clean_linker_0, # of connection points: 2
#     Edge 61, Type (0, 1), BuildingBlock: UVAHIK_clean_linker_0, # of connection points: 2
#     Edge 62, Type (0, 1), BuildingBlock: UVAHIK_clean_linker_0, # of connection points: 2
#     Edge 63, Type (0, 1), BuildingBlock: UVAHIK_clean_linker_0, # of connection points: 2
#     Edge 64, Type (0, 1), BuildingBlock: UVAHIK_clean_linker_0, # of connection points: 2
#     Edge 65, Type (0, 1), BuildingBlock: UVAHIK_clean_linker_0, # of connection points: 2
#     Edge 66, Type (0, 1), BuildingBlock: UVAHIK_clean_linker_0, # of connection points: 2
#     Edge 67, Type (0, 1), BuildingBlock: UVAHIK_clean_linker_0, # of connection points: 2
#     Edge 68, Type (0, 1), BuildingBlock: UVAHIK_clean_linker_0, # of connection points: 2
#     Edge 69, Type (0, 1), BuildingBlock: UVAHIK_clean_linker_0, # of connection points: 2
#     Edge 70, Type (0, 1), BuildingBlock: UVAHIK_clean_linker_0, # of connection points: 2
#     Edge 71, Type (0, 1), BuildingBlock: UVAHIK_clean_linker_0, # of connection points: 2
#     Edge 72, Type (0, 1), BuildingBlock: UVAHIK_clean_linker_0, # of connection points: 2
#     Edge 73, Type (0, 1), BuildingBlock: UVAHIK_clean_linker_0, # of connection points: 2
#     Edge 74, Type (0, 1), BuildingBlock: UVAHIK_clean_linker_0, # of connection points: 2
#     Edge 75, Type (0, 1), BuildingBlock: UVAHIK_clean_linker_0, # of connection points: 2
# Relax obj value: 0.003
# Max RMSD: 0.051
# Mean RMSD: 0.026
data_MOF--net-ctn--node1-TATPOV_clean_sbu_0--node2-BELTOD_clean_linker_0--edge1-UVAHIK_clean_linker_0
_symmetry_space_group_name_H-M    P1
_symmetry_Int_Tables_number       1
_symmetry_cell_setting            triclinic
loop_
_symmetry_equiv_pos_as_xyz
'x, y, z'
_cell_length_a     78.148984
_cell_length_b     78.679014
_cell_length_c     78.022174
_cell_angle_alpha  90.248367
_cell_angle_beta   91.056157
_cell_angle_gamma 91.662571
loop_
_atom_site_label
_atom_site_type_symbol
_atom_site_fract_x
_atom_site_fract_y
_atom_site_fract_z
_atom_type_partial_charge
P0 P 0.05203 0.05462 0.06109 0.0
H1 H 0.04991 0.04925 0.09792 0.0
H2 H 0.02639 0.04108 0.11659 0.0
H3 H 0.9927 0.03497 0.07229 0.0
H4 H 0.01635 0.04348 0.05368 0.0
H5 H 0.08849 0.05148 0.05524 0.0
H6 H 0.10595 0.02779 0.04675 0.0
H7 H 0.06043 0.9954 0.04239 0.0
H8 H 0.04304 0.01923 0.05123 0.0
H9 H 0.02612 0.08038 0.05863 0.0
H10 H 0.06166 0.05699 0.0248 0.0
O11 O 0.06476 0.06762 0.07291 0.0
H12 H 0.01752 0.09957 0.03575 0.0
H13 H 0.0535 0.07647 0.00197 0.0
C14 C 0.03476 0.04734 0.07447 0.0
C15 C 0.03746 0.04614 0.09221 0.0
C16 C 0.02401 0.04133 0.10288 0.0
C17 C 0.00759 0.03747 0.09597 0.0
C18 C 0.00509 0.03815 0.07806 0.0
C19 C 0.0186 0.04296 0.0674 0.0
C20 C 0.06453 0.03703 0.0542 0.0
C21 C 0.08226 0.03928 0.05251 0.0
C22 C 0.09222 0.02573 0.0475 0.0
C23 C 0.08462 0.00964 0.04393 0.0
C24 C 0.06673 0.00754 0.0453 0.0
C25 C 0.05676 0.02116 0.0503 0.0
C26 C 0.04426 0.06701 0.04335 0.0
C27 C 0.03189 0.0792 0.04618 0.0
C28 C 0.02713 0.09031 0.03313 0.0
C29 C 0.03487 0.08964 0.017 0.0
C30 C 0.0471 0.0772 0.01413 0.0
C31 C 0.05181 0.06605 0.02722 0.0
P32 P 0.28736 0.68481 0.20037 0.0
H33 H 0.3053 0.7019 0.1728 0.0
H34 H 0.29884 0.72646 0.15512 0.0
H35 H 0.25192 0.73288 0.18259 0.0
H36 H 0.25844 0.70803 0.20016 0.0
H37 H 0.30449 0.66463 0.22629 0.0
H38 H 0.32513 0.67188 0.2494 0.0
H39 H 0.32234 0.72497 0.23605 0.0
H40 H 0.30175 0.71769 0.2131 0.0
H41 H 0.26093 0.66476 0.18236 0.0
H42 H 0.27138 0.68172 0.23425 0.0
O43 O 0.29753 0.67116 0.18801 0.0
H44 H 0.23591 0.6483 0.19202 0.0
H45 H 0.24643 0.66522 0.24401 0.0
C46 C 0.28219 0.70296 0.18752 0.0
C47 C 0.29359 0.70854 0.17496 0.0
C48 C 0.28994 0.7227 0.16498 0.0
C49 C 0.27485 0.73166 0.16745 0.0
C50 C 0.26353 0.72614 0.18024 0.0
C51 C 0.26725 0.71196 0.19029 0.0
C52 C 0.30164 0.69059 0.21795 0.0
C53 C 0.30825 0.67784 0.22845 0.0
C54 C 0.31997 0.682 0.24167 0.0
C55 C 0.3254 0.69898 0.24447 0.0
C56 C 0.31854 0.71175 0.23406 0.0
C57 C 0.30671 0.70759 0.22095 0.0
C58 C 0.26819 0.67413 0.20763 0.0
C59 C 0.25776 0.66501 0.19582 0.0
C60 C 0.24342 0.6557 0.20134 0.0
C61 C 0.2393 0.65537 0.2188 0.0
C62 C 0.24946 0.66504 0.23052 0.0
C63 C 0.26373 0.67447 0.22495 0.0
P64 P 0.99296 0.49158 0.01773 0.0
H65 H 0.99831 0.47612 0.98421 0.0
H66 H 0.99763 0.44663 0.97418 0.0
H67 H 0.98541 0.42966 0.02524 0.0
H68 H 0.98588 0.4592 0.03511 0.0
H69 H 0.98152 0.52615 0.02122 0.0
H70 H 0.95316 0.53842 0.02251 0.0
H71 H 0.92982 0.48814 0.01722 0.0
H72 H 0.95815 0.47605 0.01564 0.0
H73 H 0.02829 0.49565 0.03019 0.0
H74 H 0.97816 0.48906 0.05183 0.0
O75 O 0.00504 0.50334 0.00464 0.0
H76 H 0.04125 0.49531 0.05901 0.0
H77 H 0.99097 0.48884 0.08061 0.0
C78 C 0.99248 0.46982 0.01046 0.0
C79 C 0.99559 0.46605 0.99326 0.0
C80 C 0.99526 0.44918 0.98757 0.0
C81 C 0.99164 0.43579 0.99896 0.0
C82 C 0.9882 0.43968 0.01614 0.0
C83 C 0.9886 0.45656 0.02182 0.0
C84 C 0.97193 0.50026 0.01802 0.0
C85 C 0.97027 0.51781 0.02021 0.0
C86 C 0.95407 0.52477 0.02112 0.0
C87 C 0.93923 0.51425 0.01995 0.0
C88 C 0.94099 0.49661 0.01792 0.0
C89 C 0.95721 0.48967 0.01703 0.0
C90 C 0.00228 0.49268 0.03893 0.0
C91 C 0.02007 0.49439 0.04116 0.0
C92 C 0.02744 0.49422 0.05761 0.0
C93 C 0.01711 0.49208 0.07205 0.0
C94 C -0.00074 0.4904 0.06972 0.0
C95 C 0.99191 0.49067 0.05329 0.0
P96 P 0.68694 0.79799 0.18546 0.0
H97 H 0.71983 0.80725 0.17036 0.0
H98 H 0.74342 0.82632 0.17976 0.0
H99 H 0.717 0.83597 0.22688 0.0
H100 H 0.69386 0.81644 0.21765 0.0
H101 H 0.67022 0.78156 0.15597 0.0
H102 H 0.678 0.7581 0.13742 0.0
H103 H 0.7241 0.75156 0.16786 0.0
H104 H 0.71593 0.77488 0.18668 0.0
H105 H 0.65513 0.81036 0.19917 0.0
H106 H 0.68949 0.76963 0.20967 0.0
O107 O 0.67577 0.81112 0.17312 0.0
H108 H 0.63629 0.8001 0.22167 0.0
H109 H 0.67046 0.75904 0.23215 0.0
C110 C 0.70532 0.81004 0.1935 0.0
C111 C 0.71935 0.81312 0.18291 0.0
C112 C 0.73274 0.82422 0.18822 0.0
C113 C 0.73216 0.8327 0.20411 0.0
C114 C 0.71809 0.82941 0.21473 0.0
C115 C 0.70478 0.81824 0.20945 0.0
C116 C 0.69275 0.78025 0.17237 0.0
C117 C 0.68202 0.77511 0.15863 0.0
C118 C 0.68653 0.76172 0.148 0.0
C119 C 0.70183 0.75313 0.15097 0.0
C120 C 0.71223 0.7579 0.16521 0.0
C121 C 0.70767 0.77132 0.17589 0.0
C122 C 0.6735 0.79054 0.20251 0.0
C123 C 0.65857 0.79913 0.20626 0.0
C124 C 0.64777 0.7932 0.21911 0.0
C125 C 0.65174 0.77859 0.22854 0.0
C126 C 0.66705 0.77033 0.22513 0.0
C127 C 0.67787 0.77629 0.21221 0.0
P128 P 0.07313 0.92831 0.42768 0.0
H129 H 0.10449 0.94336 0.414 0.0
H130 H 0.12412 0.96601 0.42426 0.0
H131 H 0.09209 0.97371 0.46806 0.0
H132 H 0.07222 0.95135 0.45736 0.0
H133 H 0.03978 0.91122 0.4329 0.0
H134 H 0.0283 0.89439 0.45646 0.0
H135 H 0.0759 0.90246 0.48488 0.0
H136 H 0.0875 0.91866 0.46094 0.0
H137 H 0.06072 0.92068 0.39276 0.0
H138 H 0.04857 0.95483 0.43387 0.0
O139 O 0.08437 0.91487 0.41608 0.0
H140 H 0.03748 0.93192 0.37525 0.0
H141 H 0.02554 0.96648 0.41627 0.0
C142 C 0.08718 0.94538 0.43517 0.0
C143 C 0.10171 0.94991 0.42582 0.0
C144 C 0.11296 0.96283 0.43175 0.0
C145 C 0.10984 0.9715 0.44715 0.0
C146 C 0.09487 0.96732 0.45615 0.0
C147 C 0.08358 0.95444 0.45013 0.0
C148 C 0.06431 0.91661 0.44538 0.0
C149 C 0.04769 0.9095 0.44426 0.0
C150 C 0.04111 0.89991 0.4578 0.0
C151 C 0.0511 0.89718 0.47268 0.0
C152 C 0.06787 0.90417 0.4736 0.0
C153 C 0.07446 0.91363 0.45999 0.0
C154 C 0.05644 0.93705 0.41454 0.0
C155 C 0.05317 0.93074 0.39795 0.0
C156 C 0.03992 0.93725 0.38791 0.0
C157 C 0.02968 0.95016 0.39432 0.0
C158 C 0.03307 0.95644 0.41099 0.0
C159 C 0.04631 0.9499 0.42103 0.0
P160 P 0.22818 0.74148 0.75244 0.0
H161 H 0.24477 0.73422 0.7856 0.0
H162 H 0.2405 0.745 0.81452 0.0
H163 H 0.19912 0.77548 0.79557 0.0
H164 H 0.20387 0.76504 0.76658 0.0
H165 H 0.26228 0.73218 0.74121 0.0
H166 H 0.27736 0.70544 0.74153 0.0
H167 H 0.23308 0.68024 0.76349 0.0
H168 H 0.21828 0.70718 0.76354 0.0
H169 H 0.21824 0.74946 0.71713 0.0
H170 H 0.19435 0.7278 0.76171 0.0
O171 O 0.24028 0.75648 0.7431 0.0
H172 H 0.19081 0.74785 0.70159 0.0
H173 H 0.16692 0.72579 0.74615 0.0
C174 C 0.22435 0.74849 0.774 0.0
C175 C 0.23464 0.74306 0.78769 0.0
C176 C 0.23213 0.74921 0.80427 0.0
C177 C 0.21935 0.76102 0.80744 0.0
C178 C 0.20914 0.76649 0.79361 0.0
C179 C 0.21173 0.76039 0.77703 0.0
C180 C 0.23911 0.72163 0.75224 0.0
C181 C 0.25579 0.7209 0.74605 0.0
C182 C 0.26438 0.70556 0.74615 0.0
C183 C 0.25644 0.69065 0.7525 0.0
C184 C 0.23967 0.69149 0.75869 0.0
C185 C 0.23112 0.70686 0.75859 0.0
C186 C 0.20823 0.73906 0.74066 0.0
C187 C 0.2071 0.74426 0.72354 0.0
C188 C 0.19142 0.7432 0.71462 0.0
C189 C 0.17663 0.73681 0.72267 0.0
C190 C 0.178 0.73105 0.73968 0.0
C191 C 0.19369 0.73211 0.74856 0.0
P192 P 0.97949 0.51538 0.5096 0.0
H193 H 0.01473 0.51884 0.4982 0.0
H194 H 0.02746 0.51857 0.46976 0.0
H195 H 0.97686 0.51538 0.44648 0.0
H196 H 0.96426 0.51555 0.47488 0.0
H197 H 0.9818 0.52721 0.54499 0.0
H198 H 0.97896 0.55517 0.55823 0.0
H199 H 0.97026 0.57703 0.50821 0.0
H200 H 0.97298 0.54894 0.49507 0.0
H201 H 0.96952 0.47966 0.50695 0.0
H202 H 0.94418 0.5276 0.50811 0.0
O203 O 0.99231 0.50384 0.52198 0.0
H204 H 0.94189 0.46471 0.50312 0.0
H205 H 0.91647 0.51277 0.50398 0.0
C206 C 0.9886 0.51676 0.48864 0.0
C207 C 0.0064 0.51817 0.48695 0.0
C208 C 0.01364 0.51814 0.4707 0.0
C209 C 0.00315 0.51676 0.45589 0.0
C210 C 0.98527 0.51613 0.45766 0.0
C211 C 0.97806 0.51623 0.47391 0.0
C212 C 0.97794 0.53611 0.51905 0.0
C213 C 0.97944 0.53805 0.53687 0.0
C214 C 0.97785 0.55403 0.54441 0.0
C215 C 0.9745 0.56831 0.53425 0.0
C216 C 0.97276 0.56625 0.51638 0.0
C217 C 0.97445 0.55025 0.50884 0.0
C218 C 0.95887 0.50467 0.50816 0.0
C219 C 0.95797 0.48695 0.50654 0.0
C220 C 0.94218 0.47845 0.50417 0.0
C221 C 0.92697 0.48756 0.5032 0.0
C222 C 0.92792 0.50537 0.50489 0.0
C223 C 0.94377 0.51387 0.50725 0.0
P224 P 0.84689 0.8522 0.85547 0.0
H225 H 0.88007 0.86036 0.84003 0.0
H226 H 0.8938 0.84992 0.81423 0.0
H227 H 0.84995 0.81643 0.80392 0.0
H228 H 0.83624 0.82715 0.82951 0.0
H229 H 0.82103 0.86837 0.87571 0.0
H230 H 0.79588 0.88473 0.8679 0.0
H231 H 0.81055 0.88351 0.81481 0.0
H232 H 0.83558 0.86717 0.82264 0.0
H233 H 0.86275 0.82738 0.87785 0.0
H234 H 0.81236 0.83642 0.85699 0.0
O235 O 0.86107 0.86265 0.86815 0.0
H236 H 0.85178 0.80157 0.89166 0.0
H237 H 0.80107 0.81143 0.87157 0.0
C238 C 0.85726 0.84434 0.83676 0.0
C239 C 0.87347 0.85071 0.83225 0.0
C240 C 0.88132 0.84469 0.81754 0.0
C241 C 0.87299 0.8323 0.80705 0.0
C242 C 0.85665 0.82608 0.81162 0.0
C243 C 0.84885 0.83208 0.82633 0.0
C244 C 0.82998 0.86629 0.84974 0.0
C245 C 0.81892 0.8718 0.86242 0.0
C246 C 0.80454 0.88105 0.85794 0.0
C247 C 0.80119 0.88521 0.84073 0.0
C248 C 0.81284 0.8805 0.82818 0.0
C249 C 0.82712 0.87106 0.83265 0.0
C250 C 0.83832 0.83408 0.8668 0.0
C251 C 0.84925 0.82401 0.87658 0.0
C252 C 0.84291 0.8093 0.88454 0.0
C253 C 0.82548 0.8044 0.88286 0.0
C254 C 0.81459 0.81463 0.87303 0.0
C255 C 0.821 0.82916 0.86488 0.0
P256 P 0.33803 0.35008 0.35282 0.0
H257 H 0.36277 0.36877 0.33213 0.0
H258 H 0.37965 0.3608 0.30728 0.0
H259 H 0.35834 0.30965 0.3097 0.0
H260 H 0.34108 0.31778 0.33405 0.0
H261 H 0.32244 0.38265 0.36044 0.0
H262 H 0.29722 0.39647 0.34864 0.0
H263 H 0.28847 0.3543 0.31357 0.0
H264 H 0.31352 0.34044 0.32567 0.0
H265 H 0.35633 0.32134 0.36677 0.0
H266 H 0.30472 0.33942 0.36703 0.0
O267 O 0.34941 0.36343 0.36553 0.0
H268 H 0.34689 0.29571 0.38205 0.0
H269 H 0.2953 0.31392 0.38239 0.0
C270 C 0.35112 0.34374 0.3353 0.0
C271 C 0.36187 0.35581 0.32741 0.0
C272 C 0.37142 0.35128 0.3132 0.0
C273 C 0.37042 0.33457 0.30678 0.0
C274 C 0.35956 0.32253 0.31464 0.0
C275 C 0.34978 0.32716 0.32862 0.0
C276 C 0.31991 0.36064 0.34378 0.0
C277 C 0.31515 0.37645 0.35014 0.0
C278 C 0.30077 0.38436 0.34334 0.0
C279 C 0.29087 0.37651 0.33012 0.0
C280 C 0.29573 0.36061 0.32383 0.0
C281 C 0.31011 0.35274 0.33063 0.0
C282 C 0.33115 0.33202 0.36531 0.0
C283 C 0.34299 0.3198 0.37013 0.0
C284 C 0.33759 0.30518 0.37882 0.0
C285 C 0.32033 0.30276 0.38319 0.0
C286 C 0.30867 0.31546 0.37914 0.0
C287 C 0.31405 0.32999 0.37025 0.0
P288 P 0.49868 0.98133 0.52698 0.0
H289 H 0.49375 0.96855 0.49217 0.0
H290 H 0.48905 0.9399 0.4803 0.0
H291 H 0.4867 0.91959 0.53156 0.0
H292 H 0.49097 0.94832 0.54337 0.0
H293 H 0.49368 0.01674 0.51779 0.0
H294 H 0.46882 0.03478 0.51834 0.0
H295 H 0.43792 0.99252 0.53688 0.0
H296 H 0.46305 0.97457 0.53653 0.0
H297 H 0.52551 0.96062 0.54155 0.0
H298 H 0.49276 0.00014 0.55899 0.0
O299 O 0.51342 0.99019 0.51435 0.0
H300 H 0.5384 0.95889 0.57032 0.0
H301 H 0.50568 0.99854 0.58764 0.0
C302 C 0.49326 0.96047 0.51861 0.0
C303 C 0.49206 0.95795 0.50085 0.0
C304 C 0.48927 0.94161 0.49409 0.0
C305 C 0.48772 0.92753 0.50504 0.0
C306 C 0.48812 0.9302 0.52286 0.0
C307 C 0.49063 0.94661 0.5296 0.0
C308 C 0.48007 0.99424 0.52673 0.0
C309 C 0.48153 0.0113 0.52182 0.0
C310 C 0.4673 0.0216 0.52214 0.0
C311 C 0.45135 0.01504 0.52751 0.0
C312 C 0.45003 0.99797 0.53275 0.0
C313 C 0.46432 0.98766 0.53239 0.0
C314 C 0.50791 0.98021 0.54822 0.0
C315 C 0.52102 0.96883 0.55159 0.0
C316 C 0.52835 0.96784 0.568 0.0
C317 C 0.52294 0.97851 0.58121 0.0
C318 C 0.5101 0.9902 0.57768 0.0
C319 C 0.50264 0.99104 0.56131 0.0
P320 P 0.18273 0.29693 0.68633 0.0
H321 H 0.19059 0.32914 0.66931 0.0
H322 H 0.21393 0.3502 0.67282 0.0
H323 H 0.23721 0.31884 0.71167 0.0
H324 H 0.21404 0.29755 0.70757 0.0
H325 H 0.1781 0.28993 0.64987 0.0
H326 H 0.18777 0.26731 0.63128 0.0
H327 H 0.2126 0.24383 0.67471 0.0
H328 H 0.20254 0.26652 0.69338 0.0
H329 H 0.18409 0.31246 0.72054 0.0
H330 H 0.16352 0.26641 0.69695 0.0
O331 O 0.16636 0.30638 0.67666 0.0
H332 H 0.17085 0.30457 0.74747 0.0
H333 H 0.14956 0.25873 0.72371 0.0
C334 C 0.20038 0.31202 0.68852 0.0
C335 C 0.20073 0.32679 0.67857 0.0
C336 C 0.21407 0.33887 0.68064 0.0
C337 C 0.22736 0.33637 0.69271 0.0
C338 C 0.22727 0.32117 0.70219 0.0
C339 C 0.21396 0.30904 0.69999 0.0
C340 C 0.18933 0.27969 0.67303 0.0
C341 C 0.18547 0.27983 0.65545 0.0
C342 C 0.19116 0.26696 0.64479 0.0
C343 C 0.20099 0.25377 0.6515 0.0
C344 C 0.20487 0.25369 0.66919 0.0
C345 C 0.19918 0.26664 0.67986 0.0
C346 C 0.17523 0.28978 0.70685 0.0
C347 C 0.17704 0.30045 0.72124 0.0
C348 C 0.16923 0.29602 0.73661 0.0
C349 C 0.15905 0.28103 0.73778 0.0
C350 C 0.15753 0.27021 0.72339 0.0
C351 C 0.16549 0.2746 0.70804 0.0
P352 P 0.79585 0.1801 0.69417 0.0
H353 H 0.8078 0.19832 0.66405 0.0
H354 H 0.79814 0.22371 0.64935 0.0
H355 H 0.7584 0.22911 0.6866 0.0
H356 H 0.7681 0.20353 0.70122 0.0
H357 H 0.80636 0.1621 0.72526 0.0
H358 H 0.82852 0.16828 0.7472 0.0
H359 H 0.84142 0.2155 0.72185 0.0
H360 H 0.8192 0.20939 0.70012 0.0
H361 H 0.77573 0.15234 0.6784 0.0
H362 H 0.77587 0.18084 0.72572 0.0
O363 O 0.80632 0.16846 0.68008 0.0
H364 H 0.75181 0.13459 0.6883 0.0
H365 H 0.75207 0.16287 0.73593 0.0
C366 C 0.78847 0.19885 0.68352 0.0
C367 C 0.79695 0.2049 0.66902 0.0
C368 C 0.79151 0.21952 0.66071 0.0
C369 C 0.77749 0.22842 0.66681 0.0
C370 C 0.7691 0.22241 0.68148 0.0
C371 C 0.77465 0.2078 0.68985 0.0
C372 C 0.81076 0.18552 0.71133 0.0
C373 C 0.81369 0.17397 0.72465 0.0
C374 C 0.82638 0.17747 0.73714 0.0
C375 C 0.83667 0.19237 0.73623 0.0
C376 C 0.83374 0.20387 0.72282 0.0
C377 C 0.82092 0.20045 0.71047 0.0
C378 C 0.77784 0.16757 0.70152 0.0
C379 C 0.77067 0.1547 0.69099 0.0
C380 C 0.75702 0.14453 0.69669 0.0
C381 C 0.7502 0.14716 0.71301 0.0
C382 C 0.75701 0.16054 0.72329 0.0
C383 C 0.7707 0.17072 0.71754 0.0
P384 P 0.55617 0.55287 0.56032 0.0
H385 H 0.55342 0.54669 0.59698 0.0
H386 H 0.52942 0.53869 0.61512 0.0
H387 H 0.49643 0.53383 0.57017 0.0
H388 H 0.52056 0.54216 0.55212 0.0
H389 H 0.59254 0.55063 0.55372 0.0
H390 H 0.61047 0.52733 0.54515 0.0
H391 H 0.56576 0.49371 0.54212 0.0
H392 H 0.5479 0.51715 0.55105 0.0
H393 H 0.53166 0.57988 0.55857 0.0
H394 H 0.56439 0.55425 0.52352 0.0
O395 O 0.56863 0.56578 0.57252 0.0
H396 H 0.52283 0.59902 0.53572 0.0
H397 H 0.55596 0.57363 0.50068 0.0
C398 C 0.53867 0.54538 0.57327 0.0
C399 C 0.54103 0.54386 0.59103 0.0
C400 C 0.5273 0.53915 0.60138 0.0
C401 C 0.51093 0.53574 0.59413 0.0
C402 C 0.50878 0.53667 0.5762 0.0
C403 C 0.52257 0.54137 0.56586 0.0
C404 C 0.56896 0.53553 0.55335 0.0
C405 C 0.58659 0.53823 0.55126 0.0
C406 C 0.59682 0.52491 0.54619 0.0
C407 C 0.58958 0.50859 0.54298 0.0
C408 C 0.57179 0.50604 0.54474 0.0
C409 C 0.56155 0.51944 0.5498 0.0
C410 C 0.54847 0.56548 0.54272 0.0
C411 C 0.5368 0.57825 0.54589 0.0
C412 C 0.5319 0.5893 0.53285 0.0
C413 C 0.53875 0.58794 0.51636 0.0
C414 C 0.55027 0.57492 0.51316 0.0
C415 C 0.55515 0.56383 0.52625 0.0
P416 P 0.57135 0.42696 0.92263 0.0
H417 H 0.59326 0.4356 0.95249 0.0
H418 H 0.60854 0.46184 0.96139 0.0
H419 H 0.58791 0.4874 0.91698 0.0
H420 H 0.57317 0.46108 0.90794 0.0
H421 H 0.57394 0.39068 0.92993 0.0
H422 H 0.56452 0.37309 0.95387 0.0
H423 H 0.54398 0.4174 0.97816 0.0
H424 H 0.55404 0.43496 0.95446 0.0
H425 H 0.55986 0.41615 0.88814 0.0
H426 H 0.54196 0.44802 0.92877 0.0
O427 O 0.58526 0.41641 0.91094 0.0
H428 H 0.5353 0.42376 0.87016 0.0
H429 H 0.51756 0.45589 0.91085 0.0
C430 C 0.58173 0.4465 0.92979 0.0
C431 C 0.59187 0.44692 0.9448 0.0
C432 C 0.60054 0.46195 0.94991 0.0
C433 C 0.59937 0.47676 0.93995 0.0
C434 C 0.5892 0.47621 0.92489 0.0
C435 C 0.58061 0.46118 0.91978 0.0
C436 C 0.56481 0.41413 0.94051 0.0
C437 C 0.56755 0.39662 0.94049 0.0
C438 C 0.56203 0.38655 0.95414 0.0
C439 C 0.55349 0.39381 0.96798 0.0
C440 C 0.55076 0.41142 0.96788 0.0
C441 C 0.55636 0.42147 0.95425 0.0
C442 C 0.55273 0.43157 0.90976 0.0
C443 C 0.55062 0.42474 0.89322 0.0
C444 C 0.53663 0.42918 0.88292 0.0
C445 C 0.5245 0.44049 0.88904 0.0
C446 C 0.52652 0.44699 0.90581 0.0
C447 C 0.5405 0.44253 0.91607 0.0
P448 P 0.72888 0.24207 0.25256 0.0
H449 H 0.75355 0.2474 0.28048 0.0
H450 H 0.75122 0.25811 0.30981 0.0
H451 H 0.697 0.26456 0.3015 0.0
H452 H 0.69936 0.25377 0.27225 0.0
H453 H 0.74654 0.22359 0.22606 0.0
H454 H 0.76029 0.19608 0.22563 0.0
H455 H 0.7459 0.18789 0.27829 0.0
H456 H 0.73154 0.21495 0.27827 0.0
H457 H 0.7099 0.26831 0.23516 0.0
H458 H 0.70293 0.21486 0.24583 0.0
O459 O 0.74205 0.25565 0.24255 0.0
H460 H 0.68182 0.26839 0.22084 0.0
H461 H 0.67474 0.21484 0.23154 0.0
C462 C 0.72666 0.2497 0.2742 0.0
C463 C 0.74115 0.25105 0.285 0.0
C464 C 0.73978 0.2571 0.30177 0.0
C465 C 0.72391 0.26212 0.30796 0.0
C466 C 0.70941 0.26089 0.29703 0.0
C467 C 0.71077 0.25466 0.2803 0.0
C468 C 0.73837 0.22148 0.2523 0.0
C469 C 0.74633 0.21581 0.23748 0.0
C470 C 0.75428 0.20011 0.2373 0.0
C471 C 0.75441 0.18978 0.25198 0.0
C472 C 0.74597 0.19538 0.26668 0.0
C473 C 0.73789 0.211 0.26677 0.0
C474 C 0.70861 0.24153 0.24123 0.0
C475 C 0.70237 0.25656 0.23426 0.0
C476 C 0.68627 0.25661 0.22623 0.0
C477 C 0.67608 0.24161 0.22505 0.0
C478 C 0.6824 0.22653 0.23206 0.0
C479 C 0.69849 0.22653 0.24022 0.0
P480 P 0.46779 0.02233 0.00444 0.0
H481 H 0.50375 0.01631 0.99788 0.0
H482 H 0.52077 0.01796 0.97207 0.0
H483 H 0.47693 0.03624 0.94375 0.0
H484 H 0.45978 0.0337 0.96956 0.0
H485 H 0.47178 0.03215 0.04049 0.0
H486 H 0.46952 0.05928 0.05549 0.0
H487 H 0.45832 0.08389 0.00733 0.0
H488 H 0.46043 0.05665 0.99242 0.0
H489 H 0.45728 0.99048 0.98828 0.0
H490 H 0.43256 0.03466 0.00786 0.0
O491 O 0.47717 0.00853 0.01752 0.0
H492 H 0.4294 0.9772 0.9814 0.0
H493 H 0.4046 0.02171 0.00053 0.0
C494 C 0.48047 0.02463 0.98554 0.0
C495 C 0.4978 0.02065 0.98611 0.0
C496 C 0.50758 0.0218 0.97133 0.0
C497 C 0.50025 0.02722 0.95574 0.0
C498 C 0.48294 0.03173 0.95542 0.0
C499 C 0.47313 0.03039 0.97019 0.0
C500 C 0.46654 0.04245 0.01531 0.0
C501 C 0.46896 0.04339 0.03313 0.0
C502 C 0.46771 0.05892 0.04169 0.0
C503 C 0.46382 0.07373 0.03258 0.0
C504 C 0.46122 0.07267 0.01472 0.0
C505 C 0.46257 0.05715 0.00616 0.0
C506 C 0.44701 0.01349 0.9986 0.0
C507 C 0.44583 0.99739 0.99091 0.0
C508 C 0.42986 0.98989 0.98686 0.0
C509 C 0.41471 0.99841 0.99036 0.0
C510 C 0.41598 0.01472 0.99783 0.0
C511 C 0.43201 0.02219 0.00194 0.0
Zn512 Zn 0.26407 0.84774 0.99373 0.0
Zn513 Zn 0.23795 0.86646 0.99909 0.0
O514 O 0.24073 0.85366 0.02226 0.0
O515 O 0.26581 0.84221 0.01871 0.0
O516 O 0.21819 0.8821 0.00275 0.0
O517 O 0.27788 0.86738 0.98442 0.0
O518 O 0.25774 0.88374 0.99394 0.0
C519 C 0.25332 0.84537 0.02818 0.0
C520 C 0.23613 0.83782 0.97212 0.0
O521 O 0.23001 0.85138 0.97825 0.0
O522 O 0.25028 0.83253 0.97773 0.0
C523 C 0.20478 0.87814 0.01101 0.0
O524 O 0.20319 0.86285 0.01761 0.0
C525 C 0.2724 0.88206 0.98732 0.0
Zn526 Zn 0.09753 0.45514 0.27236 0.0
Zn527 Zn 0.11377 0.48625 0.2709 0.0
O528 O 0.09803 0.48903 0.29139 0.0
O529 O 0.08446 0.46413 0.29255 0.0
O530 O 0.12624 0.50893 0.26901 0.0
O531 O 0.12068 0.44455 0.27624 0.0
O532 O 0.13326 0.46991 0.27521 0.0
C533 C 0.08707 0.47907 0.29835 0.0
C534 C 0.09187 0.47211 0.24039 0.0
O535 O 0.10148 0.48352 0.24755 0.0
O536 O 0.08816 0.4585 0.24829 0.0
C537 C 0.11989 0.52129 0.26087 0.0
O538 O 0.10451 0.51947 0.25391 0.0
C539 C 0.13417 0.45388 0.27702 0.0
Zn540 Zn 0.76335 0.60891 0.95724 0.0
Zn541 Zn 0.7563 0.62391 0.98711 0.0
O542 O 0.77622 0.60872 0.99429 0.0
O543 O 0.78047 0.59488 0.97019 0.0
O544 O 0.75006 0.63682 0.00836 0.0
O545 O 0.77082 0.63135 0.94705 0.0
O546 O 0.76323 0.64356 0.97105 0.0
C547 C 0.78407 0.59749 0.9859 0.0
C548 C 0.72882 0.6024 0.96742 0.0
O549 O 0.73393 0.6106 0.98077 0.0
O550 O 0.73881 0.60054 0.95499 0.0
C551 C 0.7521 0.63217 0.02383 0.0
O552 O 0.75897 0.61746 0.02711 0.0
C553 C 0.76901 0.64466 0.95592 0.0
Zn554 Zn 0.84795 0.0001 0.28575 0.0
Zn555 Zn 0.86601 0.00352 0.25715 0.0
O556 O 0.85276 0.02598 0.25795 0.0
O557 O 0.83697 0.02243 0.28081 0.0
O558 O 0.88117 0.00582 0.23647 0.0
O559 O 0.86935 0.99914 0.30035 0.0
O560 O 0.88402 0.00034 0.27658 0.0
C561 C 0.84143 0.03132 0.26807 0.0
C562 C 0.84039 0.97349 0.26111 0.0
O563 O 0.85079 0.98208 0.25188 0.0
O564 O 0.83736 0.97834 0.27622 0.0
C565 C 0.87708 0.01316 0.22255 0.0
O566 O 0.86187 0.01972 0.22094 0.0
C567 C 0.88357 0.999 0.29285 0.0
Zn568 Zn 0.2757 0.10762 0.46419 0.0
Zn569 Zn 0.26663 0.12276 0.49325 0.0
O570 O 0.28939 0.11193 0.5006 0.0
O571 O 0.2978 0.10156 0.47595 0.0
O572 O 0.25968 0.13626 0.51384 0.0
O573 O 0.27492 0.1295 0.451 0.0
O574 O 0.26923 0.14194 0.47544 0.0
C575 C 0.30047 0.10436 0.49179 0.0
C576 C 0.24426 0.09376 0.47782 0.0
O577 O 0.24665 0.10542 0.48908 0.0
O578 O 0.25497 0.09194 0.46601 0.0
C579 C 0.25489 0.13038 0.52818 0.0
O580 O 0.25433 0.11385 0.53057 0.0
C581 C 0.27229 0.14288 0.45948 0.0
Zn582 Zn 0.34554 0.49765 0.77916 0.0
Zn583 Zn 0.36449 0.50235 0.75107 0.0
O584 O 0.35198 0.52514 0.75302 0.0
O585 O 0.33655 0.52123 0.77608 0.0
O586 O 0.38029 0.50534 0.73099 0.0
O587 O 0.36655 0.49393 0.7938 0.0
O588 O 0.38181 0.49725 0.77058 0.0
C589 C 0.34126 0.53057 0.76375 0.0
C590 C 0.33736 0.47337 0.75216 0.0
O591 O 0.34876 0.48186 0.74407 0.0
O592 O 0.33374 0.47752 0.76734 0.0
C593 C 0.37679 0.51318 0.71721 0.0
O594 O 0.36174 0.52002 0.7153 0.0
C595 C 0.38093 0.49423 0.78659 0.0
Zn596 Zn 0.76815 0.34281 0.49991 0.0
Zn597 Zn 0.74276 0.3631 0.50279 0.0
O598 O 0.74322 0.35067 0.52633 0.0
O599 O 0.76723 0.33682 0.52474 0.0
O600 O 0.72347 0.37961 0.50488 0.0
O601 O 0.78395 0.36167 0.49241 0.0
O602 O 0.76379 0.37938 0.49901 0.0
C603 C 0.75448 0.34131 0.53323 0.0
C604 C 0.74188 0.33441 0.4757 0.0
O605 O 0.73571 0.34808 0.48156 0.0
O606 O 0.75539 0.32864 0.48234 0.0
C607 C 0.70962 0.37618 0.51263 0.0
O608 O 0.70733 0.36106 0.51945 0.0
C609 C 0.77901 0.37672 0.49423 0.0
Zn610 Zn 0.60353 0.9556 0.78501 0.0
Zn611 Zn 0.61952 0.98628 0.77916 0.0
O612 O 0.60459 0.99225 0.79949 0.0
O613 O 0.59171 0.9675 0.80454 0.0
O614 O 0.63286 0.00761 0.77323 0.0
O615 O 0.62653 0.94517 0.78985 0.0
O616 O 0.63887 0.97014 0.78497 0.0
C617 C 0.59425 0.98311 0.80821 0.0
C618 C 0.59662 0.96888 0.75133 0.0
O619 O 0.6061 0.98117 0.75697 0.0
O620 O 0.5936 0.95606 0.76069 0.0
C621 C 0.62851 0.0229 0.77537 0.0
O622 O 0.61384 0.02602 0.78255 0.0
C623 C 0.63995 0.95452 0.78895 0.0
Zn624 Zn 0.99242 0.28127 0.86065 0.0
Zn625 Zn 0.99766 0.25417 0.87978 0.0
O626 O 0.02034 0.25652 0.86653 0.0
O627 O 0.01642 0.28004 0.85195 0.0
O628 O 0.0014 0.2343 0.89565 0.0
O629 O 0.98758 0.29572 0.8809 0.0
O630 O 0.99347 0.27379 0.89716 0.0
C631 C 0.02582 0.26785 0.85618 0.0
C632 C 0.96849 0.25411 0.85267 0.0
O633 O 0.97674 0.24647 0.86448 0.0
O634 O 0.97287 0.26913 0.84855 0.0
C635 C 0.00319 0.2191 0.89052 0.0
O636 O 0.0026 0.21582 0.87399 0.0
C637 C 0.98931 0.28928 0.89562 0.0
Zn638 Zn 0.48995 0.7767 0.35895 0.0
Zn639 Zn 0.49621 0.75009 0.37802 0.0
O640 O 0.5165 0.75027 0.36121 0.0
O641 O 0.50887 0.77034 0.34327 0.0
O642 O 0.50096 0.73051 0.39394 0.0
O643 O 0.49468 0.79289 0.37848 0.0
O644 O 0.49581 0.7704 0.39509 0.0
C645 C 0.51902 0.75879 0.34755 0.0
C646 C 0.46218 0.75238 0.35809 0.0
O647 O 0.47284 0.74349 0.36646 0.0
O648 O 0.46599 0.76762 0.35428 0.0
C649 C 0.50161 0.7151 0.38908 0.0
O650 O 0.49913 0.71136 0.37277 0.0
C651 C 0.49589 0.78651 0.39329 0.0
Zn652 Zn 0.94874 0.76832 0.61431 0.0
Zn653 Zn 0.97938 0.7634 0.63049 0.0
O654 O 0.98524 0.7817 0.61279 0.0
O655 O 0.96049 0.78666 0.6001 0.0
O656 O 0.00191 0.75964 0.64262 0.0
O657 O 0.93873 0.77433 0.6373 0.0
O658 O 0.96384 0.77089 0.64986 0.0
C659 C 0.97644 0.78974 0.60175 0.0
C660 C 0.96105 0.73428 0.61045 0.0
O661 O 0.97336 0.74015 0.61984 0.0
O662 O 0.94883 0.74373 0.60619 0.0
C663 C 0.01447 0.75393 0.63447 0.0
O664 O 0.01257 0.75061 0.61801 0.0
C665 C 0.94813 0.77465 0.65071 0.0
Zn666 Zn 0.44849 0.2734 0.11544 0.0
Zn667 Zn 0.47918 0.26711 0.13097 0.0
O668 O 0.48546 0.28443 0.1123 0.0
O669 O 0.46077 0.28991 0.09973 0.0
O670 O 0.50184 0.26325 0.14296 0.0
O671 O 0.43971 0.2818 0.13811 0.0
O672 O 0.4644 0.27589 0.15045 0.0
C673 C 0.47685 0.29228 0.10095 0.0
C674 C 0.45855 0.23831 0.11285 0.0
O675 O 0.47167 0.24378 0.12136 0.0
O676 O 0.44672 0.24834 0.10889 0.0
C677 C 0.51235 0.25225 0.13811 0.0
O678 O 0.50849 0.24271 0.12465 0.0
C679 C 0.44926 0.28136 0.15139 0.0
C680 C 0.21872 0.75738 0.83944 0.0
C681 C 0.21703 0.76791 0.82503 0.0
C682 C 0.21757 0.76405 0.85599 0.0
C683 C 0.20285 0.8006 0.88115 0.0
H684 H 0.23955 0.78847 0.91244 0.0
C685 C 0.22015 0.83774 0.94398 0.0
C686 C 0.22783 0.82877 0.95745 0.0
C687 C 0.21577 0.82945 0.9285 0.0
C688 C 0.22896 0.79176 0.90407 0.0
H689 H 0.21244 0.79374 0.81682 0.0
H690 H 0.21026 0.80532 0.84572 0.0
H691 H 0.23765 0.77556 0.88418 0.0
H692 H 0.23544 0.80392 0.96603 0.0
H693 H 0.22704 0.78931 0.93952 0.0
H694 H 0.19421 0.8169 0.90111 0.0
C695 C 0.21235 0.79185 0.84416 0.0
C696 C 0.22793 0.78436 0.8878 0.0
C697 C 0.2136 0.7852 0.8276 0.0
C698 C 0.22974 0.81117 0.95573 0.0
C699 C 0.22508 0.80285 0.94047 0.0
C700 C 0.20378 0.80792 0.89756 0.0
C701 C 0.21461 0.78141 0.85854 0.0
C702 C 0.21495 0.78876 0.87611 0.0
C703 C 0.21878 0.812 0.92637 0.0
C704 C 0.21692 0.80365 0.90921 0.0
H705 H 0.22101 0.74395 0.83795 0.0
H706 H 0.21912 0.75564 0.86682 0.0
H707 H 0.19263 0.80414 0.87243 0.0
H708 H 0.21865 0.85136 0.94495 0.0
H709 H 0.21101 0.83694 0.91793 0.0
C710 C 0.02516 0.52491 0.43404 0.0
C711 C 0.01083 0.51489 0.43876 0.0
C712 C 0.03295 0.52229 0.41828 0.0
C713 C 0.03869 0.48885 0.38636 0.0
H714 H 0.05272 0.52552 0.35619 0.0
C715 C 0.06354 0.4749 0.3193 0.0
C716 C 0.07759 0.48467 0.31351 0.0
C717 C 0.05505 0.47955 0.3341 0.0
C718 C 0.04906 0.51515 0.36457 0.0
H719 H 0.99337 0.49437 0.4306 0.0
H720 H 0.00689 0.48987 0.40313 0.0
H721 H 0.03858 0.53203 0.38306 0.0
H722 H 0.09353 0.50724 0.31854 0.0
H723 H 0.07892 0.51517 0.34466 0.0
H724 H 0.04936 0.47196 0.36823 0.0
C725 C 0.01212 0.49971 0.41162 0.0
C726 C 0.04094 0.51889 0.37992 0.0
C727 C 0.00428 0.50242 0.42728 0.0
C728 C 0.08273 0.49945 0.32266 0.0
C729 C 0.0743 0.50403 0.33759 0.0
C730 C 0.04689 0.48512 0.37113 0.0
C731 C 0.02665 0.50947 0.40704 0.0
C732 C 0.03554 0.50575 0.39088 0.0
C733 C 0.06049 0.494 0.3436 0.0
C734 C 0.05205 0.4982 0.35996 0.0
H735 H 0.0304 0.53471 0.44258 0.0
H736 H 0.04418 0.52995 0.4151 0.0
H737 H 0.03498 0.47847 0.39472 0.0
H738 H 0.05911 0.46355 0.31245 0.0
H739 H 0.04422 0.47175 0.33811 0.0
C740 C 0.82507 0.78317 0.90696 0.0
C741 C 0.81874 0.78849 0.89092 0.0
C742 C 0.819 0.76802 0.91427 0.0
C743 C 0.79609 0.72742 0.90271 0.0
H744 H 0.79229 0.72312 0.95197 0.0
C745 C 0.78425 0.66239 0.93416 0.0
C746 C 0.77398 0.66142 0.94873 0.0
C747 C 0.78922 0.67812 0.92741 0.0
C748 C 0.79306 0.72414 0.93817 0.0
H749 H 0.80096 0.78188 0.87006 0.0
H750 H 0.7898 0.75609 0.88316 0.0
H751 H 0.80117 0.7503 0.93977 0.0
H752 H 0.76071 0.67622 0.96757 0.0
H753 H 0.7689 0.70374 0.95543 0.0
H754 H 0.78733 0.70152 0.90101 0.0
C755 C 0.79977 0.76337 0.88994 0.0
C756 C 0.79842 0.73969 0.93117 0.0
C757 C 0.806 0.77838 0.88253 0.0
C758 C 0.7687 0.67655 0.95637 0.0
C759 C 0.77349 0.69233 0.94946 0.0
C760 C 0.79053 0.71197 0.90968 0.0
C761 C 0.8063 0.75789 0.90583 0.0
C762 C 0.80014 0.7415 0.91335 0.0
C763 C 0.78384 0.69331 0.9349 0.0
C764 C 0.78911 0.71005 0.92751 0.0
H765 H 0.83471 0.79072 0.91393 0.0
H766 H 0.8245 0.76413 0.92642 0.0
H767 H 0.79747 0.7282 0.88895 0.0
H768 H 0.78868 0.65097 0.92808 0.0
H769 H 0.7975 0.67833 0.91644 0.0
C770 C -0.00049 0.96001 0.39133 0.0
C771 C 0.01528 0.95673 0.3838 0.0
C772 C 0.98577 0.96563 0.38138 0.0
C773 C 0.97463 0.98533 0.33977 0.0
H774 H 0.92967 0.9655 0.34859 0.0
C775 C 0.91522 0.99418 0.29505 0.0
C776 C 0.89945 0.99637 0.30305 0.0
C777 C 0.92985 0.99035 0.30476 0.0
C778 C 0.9421 0.97132 0.34609 0.0
H779 H 0.0291 0.95722 0.35994 0.0
H780 H 0.00499 0.9667 0.34249 0.0
H781 H 0.95417 0.95688 0.36578 0.0
H782 H 0.88689 0.99692 0.32764 0.0
H783 H 0.91232 0.99044 0.34447 0.0
H784 H 0.96245 -0.00031 0.31994 0.0
C785 C 0.0033 0.96506 0.35614 0.0
C786 C 0.95615 0.96638 0.35596 0.0
C787 C 0.01706 0.95944 0.3661 0.0
C788 C 0.89877 0.99518 0.32101 0.0
C789 C 0.91334 0.99136 0.33068 0.0
C790 C 0.96053 0.99027 0.32985 0.0
C791 C 0.98745 0.96808 0.36364 0.0
C792 C 0.97258 0.97338 0.35299 0.0
C793 C 0.92898 0.98861 0.32266 0.0
C794 C 0.94409 0.98337 0.33298 0.0
H795 H 0.99764 0.95791 0.40488 0.0
H796 H 0.97381 0.96805 0.3876 0.0
H797 H 0.98708 0.99109 0.33727 0.0
H798 H 0.91619 0.99501 0.28124 0.0
H799 H 0.94169 0.98822 0.2982 0.0
C800 C 0.20668 0.22314 0.64475 0.0
C801 C 0.20727 0.24035 0.63993 0.0
C802 C 0.21185 0.21052 0.63339 0.0
C803 C 0.21767 0.20297 0.58716 0.0
H804 H 0.24502 0.16521 0.60198 0.0
C805 C 0.25006 0.15984 0.53887 0.0
C806 C 0.24963 0.14221 0.54181 0.0
C807 C 0.24473 0.17111 0.5514 0.0
C808 C 0.23721 0.17557 0.59769 0.0
H809 H 0.21453 0.25785 0.61975 0.0
H810 H 0.22351 0.23594 0.60003 0.0
H811 H 0.23617 0.18623 0.62298 0.0
H812 H 0.24343 0.12265 0.56039 0.0
H813 H 0.23399 0.14245 0.58232 0.0
H814 H 0.21873 0.19244 0.56192 0.0
C815 C 0.21869 0.23212 0.6124 0.0
C816 C 0.23214 0.18761 0.60971 0.0
C817 C 0.21355 0.24469 0.62372 0.0
C818 C 0.24392 0.13615 0.55771 0.0
C819 C 0.23859 0.14749 0.5703 0.0
C820 C 0.22271 0.19097 0.57519 0.0
C821 C 0.2177 0.21487 0.617 0.0
C822 C 0.2225 0.20157 0.60453 0.0
C823 C 0.2388 0.16509 0.56721 0.0
C824 C 0.23273 0.17725 0.58025 0.0
H825 H 0.20179 0.21937 0.65711 0.0
H826 H 0.21082 0.19734 0.63728 0.0
H827 H 0.20991 0.21334 0.5828 0.0
H828 H 0.25447 0.16498 0.52682 0.0
H829 H 0.24535 0.18461 0.54872 0.0
C830 C 0.49799 0.52151 0.61987 0.0
C831 C 0.4961 0.53186 0.60534 0.0
C832 C 0.48436 0.51872 0.63097 0.0
C833 C 0.44396 0.53759 0.64446 0.0
H834 H 0.43599 0.49371 0.66575 0.0
C835 C 0.38637 0.52393 0.68854 0.0
C836 C 0.38973 0.51471 0.70357 0.0
C837 C 0.39873 0.52554 0.67583 0.0
C838 C 0.43813 0.50609 0.66002 0.0
H839 H 0.47826 0.54723 0.59104 0.0
H840 H 0.45438 0.54207 0.6102 0.0
H841 H 0.45854 0.49716 0.64474 0.0
H842 H 0.40873 0.49987 0.71695 0.0
H843 H 0.43024 0.50279 0.69491 0.0
H844 H 0.42364 0.54654 0.65983 0.0
C845 C 0.46649 0.53628 0.61312 0.0
C846 C 0.45107 0.50807 0.64797 0.0
C847 C 0.48012 0.53906 0.60201 0.0
C848 C 0.40568 0.50704 0.70553 0.0
C849 C 0.418 0.50862 0.69283 0.0
C850 C 0.43101 0.5356 0.65649 0.0
C851 C 0.46848 0.5262 0.62784 0.0
C852 C 0.45424 0.52388 0.64013 0.0
C853 C 0.41471 0.51792 0.67784 0.0
C854 C 0.42803 0.51986 0.66452 0.0
H855 H 0.51005 0.5156 0.62272 0.0
H856 H 0.48641 0.51101 0.64225 0.0
H857 H 0.44621 0.55002 0.63887 0.0
H858 H 0.37421 0.52996 0.68658 0.0
H859 H 0.39571 0.53264 0.66436 0.0
C860 C 0.75416 0.24621 0.65426 0.0
C861 C 0.77166 0.24381 0.65768 0.0
C862 C 0.7489 0.25997 0.64435 0.0
C863 C 0.76419 0.30134 0.62625 0.0
H864 H 0.73289 0.28985 0.58854 0.0
C865 C 0.76792 0.33203 0.56056 0.0
C866 C 0.75295 0.33526 0.55104 0.0
C867 C 0.76702 0.32432 0.57656 0.0
C868 C 0.74132 0.29342 0.59922 0.0
H869 H 0.79724 0.25445 0.6542 0.0
H870 H 0.78816 0.27818 0.63675 0.0
H871 H 0.73731 0.2694 0.6115 0.0
H872 H 0.72524 0.3336 0.55104 0.0
H873 H 0.72364 0.31958 0.57913 0.0
H874 H 0.76894 0.32496 0.61341 0.0
C875 C 0.77844 0.26957 0.64177 0.0
C876 C 0.74387 0.2817 0.61239 0.0
C877 C 0.78369 0.25582 0.65159 0.0
C878 C 0.73696 0.33127 0.55817 0.0
C879 C 0.73606 0.32321 0.57415 0.0
C880 C 0.76169 0.31301 0.61307 0.0
C881 C 0.76101 0.27168 0.63778 0.0
C882 C 0.75584 0.28527 0.6257 0.0
C883 C 0.75112 0.31943 0.58336 0.0
C884 C 0.75073 0.30891 0.59909 0.0
H885 H 0.74459 0.23712 0.65872 0.0
H886 H 0.73537 0.2613 0.64162 0.0
H887 H 0.7732 0.30464 0.63653 0.0
H888 H 0.78042 0.33506 0.55541 0.0
H889 H 0.77885 0.3214 0.58321 0.0
C890 C 0.536 0.99225 0.60755 0.0
C891 C 0.53067 0.97743 0.59863 0.0
C892 C 0.54326 0.99123 0.62399 0.0
C893 C 0.56353 0.96096 0.65405 0.0
H894 H 0.55324 0.99525 0.6879 0.0
C895 C 0.58132 0.95517 0.72609 0.0
C896 C 0.58908 0.96968 0.73382 0.0
C897 C 0.57427 0.95598 0.70953 0.0
C898 C 0.55632 0.98566 0.67853 0.0
H899 H 0.52848 0.94996 0.59996 0.0
H900 H 0.54075 0.94815 0.62883 0.0
H901 H 0.54063 0.99685 0.65917 0.0
H902 H 0.59545 0.99646 0.73025 0.0
H903 H 0.58297 0.99788 0.70142 0.0
H904 H 0.57896 0.94963 0.67364 0.0
C905 C 0.53977 0.96055 0.623 0.0
C906 C 0.54915 0.98659 0.66204 0.0
C907 C 0.53268 0.96157 0.60648 0.0
C908 C 0.58958 0.98504 0.72467 0.0
C909 C 0.58236 0.98589 0.7082 0.0
C910 C 0.57055 0.95994 0.6706 0.0
C911 C 0.54517 0.97537 0.63196 0.0
C912 C 0.55272 0.97429 0.64956 0.0
C913 C 0.57467 0.97137 0.70046 0.0
C914 C 0.56706 0.97231 0.68297 0.0
H915 H 0.53479 0.00463 0.60169 0.0
H916 H 0.54757 0.00288 0.63035 0.0
H917 H 0.56681 0.95143 0.64471 0.0
H918 H 0.58075 0.94314 0.73279 0.0
H919 H 0.5683 0.94463 0.7039 0.0
C920 C 0.867 0.20112 0.74331 0.0
C921 C 0.85074 0.19578 0.74889 0.0
C922 C 0.8801 0.20518 0.75514 0.0
C923 C 0.89341 0.20201 0.80109 0.0
H924 H 0.92048 0.24243 0.7901 0.0
C925 C 0.9521 0.22792 0.8421 0.0
C926 C 0.95393 0.24572 0.8433 0.0
C927 C 0.93927 0.22043 0.83147 0.0
C928 C 0.91297 0.23118 0.79346 0.0
H929 H 0.83556 0.19004 0.77119 0.0
H930 H 0.85838 0.19758 0.79197 0.0
H931 H 0.89886 0.2318 0.76985 0.0
H932 H 0.94302 0.26955 0.83536 0.0
H933 H 0.92061 0.25659 0.81736 0.0
H934 H 0.90732 0.2019 0.82508 0.0
C935 C 0.8611 0.19833 0.77844 0.0
C936 C 0.90071 0.22492 0.78169 0.0
C937 C 0.848 0.19409 0.76655 0.0
C938 C 0.94217 0.2558 0.83446 0.0
C939 C 0.92935 0.24837 0.82405 0.0
C940 C 0.90572 0.20836 0.81295 0.0
C941 C 0.87723 0.20421 0.77286 0.0
C942 C 0.8907 0.2103 0.78535 0.0
C943 C 0.92804 0.23064 0.822 0.0
C944 C 0.91548 0.22316 0.80933 0.0
H945 H 0.86957 0.20219 0.72975 0.0
H946 H 0.89248 0.20925 0.75036 0.0
H947 H 0.88603 0.19063 0.80424 0.0
H948 H 0.96098 0.21984 0.84879 0.0
H949 H 0.93858 0.20672 0.83016 0.0
C950 C 0.49821 0.89782 0.50383 0.0
C951 C 0.48687 0.91008 0.4978 0.0
C952 C 0.49893 0.882 0.49569 0.0
C953 C 0.50658 0.85789 0.46603 0.0
H954 H 0.46668 0.83076 0.45135 0.0
C955 C 0.50389 0.81448 0.40664 0.0
C956 C 0.49682 0.79797 0.40832 0.0
C957 C 0.50356 0.82601 0.42025 0.0
C958 C 0.47794 0.83809 0.45557 0.0
H959 H 0.46681 0.91515 0.47915 0.0
H960 H 0.46789 0.88736 0.46505 0.0
H961 H 0.46329 0.85505 0.47069 0.0
H962 H 0.48408 0.78045 0.42561 0.0
H963 H 0.48301 0.80097 0.4494 0.0
H964 H 0.52111 0.84151 0.45022 0.0
C965 C 0.47625 0.89003 0.47602 0.0
C966 C 0.47599 0.85202 0.46651 0.0
C967 C 0.47571 0.90594 0.48399 0.0
C968 C 0.4897 0.79308 0.42403 0.0
C969 C 0.48902 0.80479 0.43757 0.0
C970 C 0.50849 0.84417 0.45488 0.0
C971 C 0.48814 0.87806 0.48154 0.0
C972 C 0.49027 0.8622 0.47161 0.0
C973 C 0.49585 0.82139 0.43571 0.0
C974 C 0.49415 0.83434 0.44933 0.0
H975 H 0.50704 0.90073 0.51437 0.0
H976 H 0.50818 0.87298 0.50021 0.0
H977 H 0.51778 0.86562 0.46965 0.0
H978 H 0.5095 0.81858 0.3947 0.0
H979 H 0.50879 0.83877 0.41846 0.0
C980 C 0.14654 0.26076 0.75955 0.0
C981 C 0.14901 0.27745 0.75347 0.0
C982 C 0.13619 0.25749 0.77371 0.0
C983 C 0.11585 0.27878 0.81042 0.0
H984 H 0.0809 0.243 0.80554 0.0
C985 C 0.05079 0.28172 0.84195 0.0
C986 C 0.043 0.26693 0.84863 0.0
C987 C 0.06629 0.281 0.83348 0.0
C988 C 0.0908 0.2528 0.80729 0.0
H989 H 0.14237 0.30375 0.75752 0.0
H990 H 0.12458 0.2981 0.78209 0.0
H991 H 0.10363 0.2454 0.78453 0.0
H992 H 0.04557 0.23979 0.85206 0.0
H993 H 0.07275 0.23847 0.83682 0.0
H994 H 0.10256 0.28667 0.83271 0.0
C995 C 0.13088 0.28754 0.77618 0.0
C996 C 0.10383 0.25419 0.79526 0.0
C997 C 0.14112 0.29079 0.76205 0.0
C998 C 0.05131 0.2514 0.84706 0.0
C999 C 0.06679 0.25063 0.8383 0.0
C1000 C 0.10283 0.27743 0.8224 0.0
C1001 C 0.12816 0.27086 0.78212 0.0
C1002 C 0.11615 0.26757 0.79637 0.0
C1003 C 0.07433 0.26543 0.83129 0.0
C1004 C 0.08984 0.26479 0.82063 0.0
H1005 H 0.15257 0.25021 0.75336 0.0
H1006 H 0.13444 0.24451 0.77805 0.0
H1007 H 0.12537 0.289 0.81186 0.0
H1008 H 0.04476 0.2939 0.84302 0.0
H1009 H 0.07164 0.29258 0.82803 0.0
C1010 C 0.53156 0.59529 0.48568 0.0
C1011 C 0.53436 0.60045 0.50282 0.0
C1012 C 0.52755 0.60718 0.47303 0.0
C1013 C 0.51086 0.65045 0.46742 0.0
H1014 H 0.53197 0.64819 0.42291 0.0
C1015 C 0.50765 0.70559 0.41918 0.0
C1016 C 0.50506 0.70154 0.40173 0.0
C1017 C 0.51083 0.69287 0.43117 0.0
C1018 C 0.5258 0.64888 0.4352 0.0
H1019 H 0.53555 0.62228 0.51993 0.0
H1020 H 0.52854 0.64291 0.49795 0.0
H1021 H 0.53814 0.62664 0.4444 0.0
H1022 H 0.50381 0.68085 0.38324 0.0
H1023 H 0.50923 0.65861 0.40422 0.0
H1024 H 0.49858 0.6727 0.45829 0.0
C1025 C 0.52911 0.62964 0.49433 0.0
C1026 C 0.52933 0.63652 0.44752 0.0
C1027 C 0.53312 0.61779 0.50695 0.0
C1028 C 0.50577 0.68443 0.39657 0.0
C1029 C 0.50897 0.67168 0.40858 0.0
C1030 C 0.50733 0.66278 0.45512 0.0
C1031 C 0.52624 0.6245 0.47721 0.0
C1032 C 0.52202 0.63723 0.46383 0.0
C1033 C 0.5115 0.67574 0.42604 0.0
C1034 C 0.51485 0.66224 0.4389 0.0
H1035 H 0.53223 0.58202 0.48209 0.0
H1036 H 0.52523 0.60275 0.46 0.0
H1037 H 0.50475 0.65121 0.47973 0.0
H1038 H 0.50726 0.71864 0.42361 0.0
H1039 H 0.51297 0.69649 0.44446 0.0
C1040 C 0.89871 0.82233 0.79144 0.0
C1041 C 0.8812 0.82595 0.79135 0.0
C1042 C 0.90635 0.81616 0.77668 0.0
C1043 C 0.89593 0.79486 0.73529 0.0
H1044 H 0.94076 0.81225 0.7223 0.0
C1045 C 0.92336 0.78327 0.66839 0.0
C1046 C 0.94082 0.77961 0.66733 0.0
C1047 C 0.91645 0.78822 0.68395 0.0
C1048 C 0.92834 0.8071 0.72588 0.0
H1049 H 0.85808 0.82631 0.77556 0.0
H1050 H 0.87139 0.81562 0.74984 0.0
H1051 H 0.92804 0.82235 0.74866 0.0
H1052 H 0.96466 0.77817 0.68188 0.0
H1053 H 0.95253 0.78675 0.70908 0.0
H1054 H 0.89615 0.77973 0.71244 0.0
C1055 C 0.87916 0.81722 0.7614 0.0
C1056 C 0.92104 0.81289 0.74097 0.0
C1057 C 0.87153 0.82336 0.77615 0.0
C1058 C 0.95118 0.78093 0.68223 0.0
C1059 C 0.94425 0.78593 0.6978 0.0
C1060 C 0.90321 0.78909 0.7202 0.0
C1061 C 0.89665 0.8135 0.7615 0.0
C1062 C 0.90469 0.80693 0.74578 0.0
C1063 C 0.92681 0.78965 0.69882 0.0
C1064 C 0.91943 0.79525 0.71525 0.0
H1065 H 0.90646 0.82398 0.80302 0.0
H1066 H 0.91981 0.81322 0.77725 0.0
H1067 H 0.88346 0.78977 0.73879 0.0
H1068 H 0.91501 0.78242 0.65717 0.0
H1069 H 0.90302 0.79121 0.68425 0.0
C1070 C 0.0546 0.87581 0.4963 0.0
C1071 C 0.04412 0.88693 0.48709 0.0
C1072 C 0.04802 0.86612 0.50975 0.0
C1073 C 0.01133 0.863 0.53938 0.0
H1074 H 0.02551 0.81643 0.54441 0.0
C1075 C 0.97509 0.81302 0.58003 0.0
C1076 C 0.98492 0.80224 0.59033 0.0
C1077 C 0.98299 0.8242 0.56857 0.0
C1078 C 0.02159 0.82948 0.54329 0.0
H1079 H 0.01848 0.89671 0.48506 0.0
H1080 H 0.00685 0.87934 0.50802 0.0
H1081 H 0.03787 0.83414 0.52201 0.0
H1082 H 0.01079 0.79494 0.59687 0.0
H1083 H 0.02457 0.81441 0.57669 0.0
H1084 H 0.99467 0.85808 0.5604 0.0
C1085 C 0.02027 0.87834 0.50507 0.0
C1086 C 0.02869 0.83966 0.53047 0.0
C1087 C 0.02689 0.88812 0.49171 0.0
C1088 C 0.00285 0.80308 0.58912 0.0
C1089 C 0.01074 0.81415 0.57751 0.0
C1090 C 0.00412 0.85276 0.55209 0.0
C1091 C 0.03074 0.86719 0.51426 0.0
C1092 C 0.02358 0.85653 0.52828 0.0
C1093 C 0.00088 0.82473 0.56704 0.0
C1094 C 0.00911 0.83587 0.55412 0.0
H1095 H 0.06788 0.87439 0.49299 0.0
H1096 H 0.05652 0.85783 0.51667 0.0
H1097 H 0.00733 0.87602 0.53829 0.0
H1098 H 0.96125 0.81272 0.58067 0.0
H1099 H 0.97506 0.83211 0.56056 0.0
C1100 C 0.14502 0.7417 0.72217 0.0
C1101 C 0.15974 0.73675 0.71357 0.0
C1102 C 0.12927 0.74239 0.71349 0.0
C1103 C 0.11052 0.74639 0.67003 0.0
H1104 H 0.06847 0.73213 0.69212 0.0
C1105 C 0.04499 0.74495 0.63438 0.0
C1106 C 0.03103 0.75109 0.6434 0.0
C1107 C 0.06065 0.74237 0.64278 0.0
C1108 C 0.08008 0.73631 0.68583 0.0
H1109 H 0.16931 0.72816 0.68919 0.0
H1110 H 0.14177 0.72934 0.67403 0.0
H1111 H 0.09585 0.72884 0.70706 0.0
H1112 H 0.02256 0.75928 0.66837 0.0
H1113 H 0.0499 0.75492 0.68297 0.0
H1114 H 0.09475 0.75397 0.64886 0.0
C1115 C 0.14249 0.73295 0.68744 0.0
C1116 C 0.09578 0.73441 0.69439 0.0
C1117 C 0.15827 0.73227 0.69613 0.0
C1118 C 0.03305 0.75451 0.66103 0.0
C1119 C 0.0487 0.75191 0.66944 0.0
C1120 C 0.09483 0.74827 0.66147 0.0
C1121 C 0.12783 0.73814 0.69599 0.0
C1122 C 0.11118 0.73953 0.68664 0.0
C1123 C 0.0627 0.74584 0.66041 0.0
C1124 C 0.07942 0.74336 0.66931 0.0
H1125 H 0.14576 0.7455 0.73553 0.0
H1126 H 0.11829 0.74669 0.7204 0.0
H1127 H 0.12212 0.7507 0.6638 0.0
H1128 H 0.04386 0.74213 0.6208 0.0
H1129 H 0.07112 0.7375 0.6355 0.0
C1130 C 0.95954 0.59594 0.5371 0.0
C1131 C 0.97275 0.58526 0.54231 0.0
C1132 C 0.95778 0.61181 0.54486 0.0
C1133 C 0.97022 0.63646 0.58392 0.0
H1134 H 0.95831 0.67514 0.55596 0.0
C1135 C 0.97471 0.70589 0.60865 0.0
C1136 C 0.96138 0.71661 0.60385 0.0
C1137 C 0.97551 0.68954 0.60168 0.0
C1138 C 0.96145 0.66442 0.56397 0.0
H1139 H 0.99465 0.58297 0.55952 0.0
H1140 H 0.99172 0.61075 0.57294 0.0
H1141 H 0.96104 0.64735 0.54255 0.0
H1142 H 0.93824 0.71842 0.58822 0.0
H1143 H 0.93965 0.68989 0.57613 0.0
H1144 H 0.97085 0.65365 0.6053 0.0
C1145 C 0.98249 0.60672 0.56311 0.0
C1146 C 0.963 0.64849 0.55629 0.0
C1147 C 0.9842 0.59082 0.55539 0.0
C1148 C 0.94871 0.71051 0.59217 0.0
C1149 C 0.94956 0.69421 0.58515 0.0
C1150 C 0.96874 0.65242 0.59158 0.0
C1151 C 0.96923 0.61739 0.55796 0.0
C1152 C 0.96743 0.63431 0.56617 0.0
C1153 C 0.96305 0.6836 0.58971 0.0
C1154 C 0.96435 0.66657 0.58168 0.0
H1155 H 0.95038 0.59189 0.52721 0.0
H1156 H 0.94727 0.6196 0.54077 0.0
H1157 H 0.97338 0.62576 0.59195 0.0
H1158 H 0.98469 0.71018 0.6176 0.0
H1159 H 0.98615 0.68171 0.60533 0.0
C1160 C 0.75106 0.84728 0.22646 0.0
C1161 C 0.74564 0.8456 0.20923 0.0
C1162 C 0.76265 0.86029 0.2315 0.0
C1163 C 0.79527 0.89103 0.21609 0.0
H1164 H 0.78238 0.91727 0.25574 0.0
C1165 C 0.83 0.95455 0.23673 0.0
C1166 C 0.83155 0.95787 0.25441 0.0
C1167 C 0.82048 0.9403 0.23069 0.0
C1168 C 0.78637 0.90994 0.2448 0.0
H1169 H 0.74857 0.85614 0.18374 0.0
H1170 H 0.76903 0.87864 0.19256 0.0
H1171 H 0.76451 0.89309 0.24639 0.0
H1172 H 0.82514 0.94836 0.27963 0.0
H1173 H 0.80913 0.92345 0.26921 0.0
H1174 H 0.81727 0.90785 0.21462 0.0
C1175 C 0.76431 0.86982 0.20212 0.0
C1176 C 0.77607 0.89609 0.23944 0.0
C1177 C 0.75261 0.85689 0.19708 0.0
C1178 C 0.82397 0.94634 0.26591 0.0
C1179 C 0.81468 0.93207 0.25991 0.0
C1180 C 0.80571 0.90486 0.22157 0.0
C1181 C 0.76921 0.87184 0.21943 0.0
C1182 C 0.78041 0.88644 0.22507 0.0
C1183 C 0.81248 0.92903 0.24223 0.0
C1184 C 0.80142 0.91444 0.23606 0.0
H1185 H 0.74624 0.83862 0.23611 0.0
H1186 H 0.76641 0.86137 0.24491 0.0
H1187 H 0.79896 0.88377 0.205 0.0
H1188 H 0.8357 0.96322 0.22756 0.0
H1189 H 0.81898 0.93842 0.21698 0.0
C1190 C 0.77921 0.17185 0.24368 0.0
C1191 C 0.76356 0.1734 0.25214 0.0
C1192 C 0.78813 0.15669 0.24445 0.0
C1193 C 0.79364 0.11944 0.27164 0.0
H1194 H 0.81211 0.09811 0.23135 0.0
C1195 C 0.81861 0.05185 0.27449 0.0
C1196 C 0.83317 0.04782 0.26515 0.0
C1197 C 0.81078 0.06739 0.27223 0.0
C1198 C 0.80727 0.10403 0.24277 0.0
H1199 H 0.74478 0.15985 0.26751 0.0
H1200 H 0.76055 0.13364 0.26919 0.0
H1201 H 0.79713 0.12486 0.22852 0.0
H1202 H 0.85082 0.05698 0.24592 0.0
H1203 H 0.83731 0.08446 0.24224 0.0
H1204 H 0.80391 0.09895 0.286 0.0
C1205 C 0.76596 0.14424 0.26208 0.0
C1206 C 0.79864 0.11931 0.24112 0.0
C1207 C 0.75695 0.1593 0.26116 0.0
C1208 C 0.83962 0.0597 0.25331 0.0
C1209 C 0.83182 0.07541 0.25115 0.0
C1210 C 0.80239 0.10431 0.27332 0.0
C1211 C 0.7817 0.14282 0.25385 0.0
C1212 C 0.79151 0.12702 0.25552 0.0
C1213 C 0.81737 0.07949 0.26071 0.0
C1214 C 0.80908 0.09623 0.25888 0.0
H1215 H 0.78483 0.18249 0.23681 0.0
H1216 H 0.8003 0.156 0.2381 0.0
H1217 H 0.78859 0.12528 0.28301 0.0
H1218 H 0.81314 0.04294 0.28356 0.0
H1219 H 0.79942 0.06985 0.27949 0.0
C1220 C 0.39507 0.97959 0.97226 0.0
C1221 C 0.39775 0.98989 0.9869 0.0
C1222 C 0.37983 0.97009 0.96994 0.0
C1223 C 0.33512 0.96472 0.98376 0.0
H1224 H 0.34236 0.917 0.97479 0.0
C1225 C 0.28314 0.91172 0.99407 0.0
C1226 C 0.28366 0.897 0.98388 0.0
C1227 C 0.29563 0.92471 0.99239 0.0
C1228 C 0.33996 0.93032 0.97691 0.0
H1229 H 0.38611 0.9988 0.01021 0.0
H1230 H 0.3594 0.98236 0.00599 0.0
H1231 H 0.36659 0.93695 0.97524 0.0
H1232 H 0.29665 0.88489 0.96301 0.0
H1233 H 0.31785 0.90776 0.9595 0.0
H1234 H 0.30842 0.95805 0.98543 0.0
C1235 C 0.36912 0.98171 0.99631 0.0
C1236 C 0.35392 0.94176 0.97723 0.0
C1237 C 0.38444 0.99114 0.99871 0.0
C1238 C 0.29613 0.89599 0.97123 0.0
C1239 C 0.30836 0.90906 0.96932 0.0
C1240 C 0.32105 0.95327 0.98324 0.0
C1241 C 0.36686 0.97077 0.98213 0.0
C1242 C 0.35169 0.95904 0.98078 0.0
C1243 C 0.30869 0.92331 0.98029 0.0
C1244 C 0.32332 0.93588 0.97992 0.0
H1245 H 0.40488 0.97864 0.96271 0.0
H1246 H 0.37831 0.96195 0.95875 0.0
H1247 H 0.33304 0.97801 0.98644 0.0
H1248 H 0.27368 0.91278 0.00396 0.0
H1249 H 0.29551 0.93542 0.00114 0.0
C1250 C 0.2603 0.37508 0.31969 0.0
C1251 C 0.2754 0.38474 0.32313 0.0
C1252 C 0.24563 0.38285 0.31342 0.0
C1253 C 0.22521 0.42442 0.31124 0.0
H1254 H 0.1961 0.40208 0.27666 0.0
C1255 C 0.16593 0.45642 0.28211 0.0
C1256 C 0.15094 0.44617 0.2805 0.0
C1257 C 0.18163 0.4492 0.2861 0.0
C1258 C 0.20404 0.40842 0.28641 0.0
H1259 H 0.28703 0.41008 0.32231 0.0
H1260 H 0.26139 0.42365 0.31135 0.0
H1261 H 0.22263 0.38898 0.28589 0.0
H1262 H 0.14079 0.42023 0.28153 0.0
H1263 H 0.16812 0.40769 0.28863 0.0
H1264 H 0.20656 0.44378 0.31188 0.0
C1265 C 0.26084 0.4101 0.31375 0.0
C1266 C 0.21923 0.40091 0.2917 0.0
C1267 C 0.27552 0.40233 0.32003 0.0
C1268 C 0.15207 0.42851 0.28267 0.0
C1269 C 0.16777 0.42129 0.28664 0.0
C1270 C 0.21004 0.43193 0.30594 0.0
C1271 C 0.2457 0.40046 0.31044 0.0
C1272 C 0.22992 0.40876 0.30428 0.0
C1273 C 0.1827 0.43157 0.28855 0.0
C1274 C 0.19921 0.42395 0.29356 0.0
H1275 H 0.25971 0.36155 0.32218 0.0
H1276 H 0.2341 0.3751 0.31128 0.0
H1277 H 0.23303 0.43068 0.32113 0.0
H1278 H 0.16554 0.47007 0.28045 0.0
H1279 H 0.19295 0.45743 0.28727 0.0
C1280 C 0.14005 0.98184 0.45275 0.0
C1281 C 0.12241 0.9845 0.45393 0.0
C1282 C 0.15199 0.99404 0.4588 0.0
C1283 C 0.15703 0.03974 0.46883 0.0
H1284 H 0.20048 0.02543 0.48783 0.0
C1285 C 0.21436 0.08611 0.48717 0.0
C1286 C 0.22933 0.08184 0.47859 0.0
C1287 C 0.2002 0.07475 0.48724 0.0
C1288 C 0.18835 0.02961 0.48266 0.0
H1289 H 0.1035 0.00211 0.46261 0.0
H1290 H 0.12444 0.02333 0.47356 0.0
H1291 H 0.17742 0.00441 0.48262 0.0
H1292 H 0.24138 0.06221 0.46383 0.0
H1293 H 0.21693 0.04239 0.46429 0.0
H1294 H 0.16823 0.06498 0.46873 0.0
C1295 C 0.12899 0.01184 0.46772 0.0
C1296 C 0.17518 0.01758 0.47956 0.0
C1297 C 0.117 -0.0004 0.4616 0.0
C1298 C 0.23001 0.06592 0.47046 0.0
C1299 C 0.21606 0.05451 0.47082 0.0
C1300 C 0.17019 0.05183 0.47212 0.0
C1301 C 0.14664 0.00921 0.46634 0.0
C1302 C 0.15957 0.02239 0.47204 0.0
C1303 C 0.201 0.05883 0.47911 0.0
C1304 C 0.18614 0.04676 0.47853 0.0
H1305 H 0.14468 0.97025 0.44718 0.0
H1306 H 0.16545 0.99168 0.45723 0.0
H1307 H 0.14522 0.04389 0.46294 0.0
H1308 H 0.21349 0.09832 0.49352 0.0
H1309 H 0.18869 0.07834 0.49369 0.0
C1310 C 0.72253 0.14192 0.72846 0.0
C1311 C 0.7364 0.13559 0.7194 0.0
C1312 C 0.70957 0.13087 0.73432 0.0
C1313 C 0.69078 0.08769 0.72691 0.0
H1314 H 0.67325 0.09239 0.77282 0.0
C1315 C 0.65459 0.03321 0.76007 0.0
C1316 C 0.6398 0.03693 0.76921 0.0
C1317 C 0.66516 0.04624 0.75381 0.0
C1318 C 0.67785 0.09106 0.75989 0.0
H1319 H 0.7478 0.11266 0.70989 0.0
H1320 H 0.72532 0.09348 0.72009 0.0
H1321 H 0.69403 0.11346 0.76215 0.0
H1322 H 0.62466 0.05732 0.77911 0.0
H1323 H 0.6433 0.08021 0.76816 0.0
H1324 H 0.67492 0.06516 0.72473 0.0
C1325 C 0.72421 0.10699 0.72234 0.0
C1326 C 0.68974 0.10312 0.75377 0.0
C1327 C 0.73711 0.118 0.71649 0.0
C1328 C 0.63594 0.05404 0.77211 0.0
C1329 C 0.64663 0.06713 0.76591 0.0
C1330 C 0.67898 0.07565 0.73302 0.0
C1331 C 0.71024 0.11328 0.73123 0.0
C1332 C 0.69657 0.10138 0.73733 0.0
C1333 C 0.66127 0.06334 0.75657 0.0
C1334 C 0.67263 0.07702 0.74968 0.0
H1335 H 0.72156 0.15544 0.73078 0.0
H1336 H 0.69891 0.13613 0.74102 0.0
H1337 H 0.69549 0.08619 0.71404 0.0
H1338 H 0.658 0.02018 0.75763 0.0
H1339 H 0.6765 0.04291 0.74692 0.0
C1340 C 0.42455 0.02564 0.54088 0.0
C1341 C 0.43617 0.02597 0.52732 0.0
C1342 C 0.41034 0.03608 0.54057 0.0
C1343 C 0.39346 0.07436 0.51907 0.0
H1344 H 0.34889 0.05508 0.53045 0.0
C1345 C 0.33101 0.09688 0.4894 0.0
C1346 C 0.31662 0.09867 0.4997 0.0
C1347 C 0.34603 0.09033 0.49617 0.0
C1348 C 0.3613 0.06076 0.52758 0.0
H1349 H 0.44174 0.03721 0.50265 0.0
H1350 H 0.41703 0.05522 0.50202 0.0
H1351 H 0.37453 0.03868 0.5358 0.0
H1352 H 0.30674 0.09533 0.52527 0.0
H1353 H 0.33316 0.08334 0.53711 0.0
H1354 H 0.38013 0.09606 0.51004 0.0
C1355 C 0.41907 0.04727 0.51313 0.0
C1356 C 0.37598 0.05137 0.53061 0.0
C1357 C 0.43323 0.03689 0.51345 0.0
C1358 C 0.31768 0.09413 0.51708 0.0
C1359 C 0.33272 0.08722 0.52381 0.0
C1360 C 0.37881 0.08366 0.51594 0.0
C1361 C 0.40747 0.04705 0.52669 0.0
C1362 C 0.39218 0.05786 0.52587 0.0
C1363 C 0.34698 0.08519 0.51335 0.0
C1364 C 0.36255 0.07674 0.51967 0.0
H1365 H 0.42657 0.01748 0.55183 0.0
H1366 H 0.4017 0.03569 0.55127 0.0
H1367 H 0.40578 0.07991 0.51568 0.0
H1368 H 0.3306 0.10036 0.47598 0.0
H1369 H 0.35675 0.08872 0.48775 0.0
C1370 C 0.59813 0.47804 0.54521 0.0
C1371 C 0.60071 0.49433 0.53817 0.0
C1372 C 0.60926 0.46495 0.54151 0.0
C1373 C 0.65332 0.45803 0.52726 0.0
H1374 H 0.63689 0.41161 0.51953 0.0
C1375 C 0.6987 0.40534 0.50684 0.0
C1376 C 0.69649 0.38929 0.51447 0.0
C1377 C 0.6866 0.41789 0.50901 0.0
C1378 C 0.64171 0.42448 0.52184 0.0
H1379 H 0.61661 0.50934 0.52108 0.0
H1380 H 0.63599 0.48655 0.51467 0.0
H1381 H 0.61643 0.43389 0.52453 0.0
H1382 H 0.67967 0.37383 0.53025 0.0
H1383 H 0.65869 0.39577 0.53423 0.0
H1384 H 0.67857 0.44867 0.52476 0.0
C1385 C 0.62556 0.48399 0.52332 0.0
C1386 C 0.62997 0.43725 0.52469 0.0
C1387 C 0.61443 0.49706 0.527 0.0
C1388 C 0.68177 0.38603 0.52416 0.0
C1389 C 0.66967 0.3986 0.52636 0.0
C1390 C 0.66504 0.44527 0.52445 0.0
C1391 C 0.62324 0.46782 0.53068 0.0
C1392 C 0.63563 0.45419 0.52743 0.0
C1393 C 0.67199 0.41473 0.51891 0.0
C1394 C 0.6594 0.42832 0.5217 0.0
H1395 H 0.58783 0.47554 0.55403 0.0
H1396 H 0.60721 0.4527 0.54754 0.0
H1397 H 0.65815 0.47088 0.52963 0.0
H1398 H 0.70984 0.40828 0.49921 0.0
H1399 H 0.68867 0.43007 0.50285 0.0
C1400 C 0.71359 0.28349 0.32918 0.0
C1401 C 0.72259 0.26868 0.32574 0.0
C1402 C 0.71331 0.29018 0.34583 0.0
C1403 C 0.73818 0.28934 0.38654 0.0
H1404 H 0.69862 0.31045 0.40591 0.0
C1405 C 0.739 0.30901 0.45666 0.0
C1406 C 0.73452 0.32581 0.46023 0.0
C1407 C 0.73502 0.30161 0.44078 0.0
C1408 C 0.70977 0.30467 0.4006 0.0
H1409 H 0.73754 0.24876 0.33714 0.0
H1410 H 0.73683 0.26019 0.36615 0.0
H1411 H 0.69664 0.29816 0.37697 0.0
H1412 H 0.72124 0.34761 0.45037 0.0
H1413 H 0.7143 0.3346 0.42234 0.0
H1414 H 0.75133 0.29575 0.41001 0.0
C1415 C 0.7304 0.26697 0.35597 0.0
C1416 C 0.70867 0.29766 0.38404 0.0
C1417 C 0.73079 0.26038 0.33935 0.0
C1418 C 0.72485 0.33464 0.44798 0.0
C1419 C 0.72089 0.3272 0.43195 0.0
C1420 C 0.73924 0.29621 0.40303 0.0
C1421 C 0.72195 0.28213 0.35938 0.0
C1422 C 0.72286 0.28979 0.37688 0.0
C1423 C 0.72652 0.31084 0.42801 0.0
C1424 C 0.72503 0.30382 0.41032 0.0
H1425 H 0.70724 0.29022 0.31891 0.0
H1426 H 0.70681 0.30195 0.34796 0.0
H1427 H 0.74951 0.28384 0.3813 0.0
H1428 H 0.74622 0.30175 0.46592 0.0
H1429 H 0.73915 0.28883 0.43827 0.0
C1430 C 0.52807 0.03169 0.94036 0.0
C1431 C 0.51045 0.02739 0.9398 0.0
C1432 C 0.53799 0.03011 0.92576 0.0
C1433 C 0.53653 0.02616 0.87873 0.0
H1434 H 0.57587 0.99774 0.88512 0.0
C1435 C 0.58364 0.00811 0.82468 0.0
C1436 C 0.58545 0.99044 0.82301 0.0
C1437 C 0.57522 0.01481 0.83877 0.0
C1438 C 0.565 0.00581 0.8832 0.0
H1439 H 0.48943 0.01864 0.9231 0.0
H1440 H 0.5067 0.01633 0.89757 0.0
H1441 H 0.55961 0.00642 0.90997 0.0
H1442 H 0.58006 0.96601 0.83486 0.0
H1443 H 0.56576 0.97775 0.85955 0.0
H1444 H 0.54184 0.02524 0.85184 0.0
C1445 C 0.51277 0.02092 0.90937 0.0
C1446 C 0.55578 0.01086 0.89739 0.0
C1447 C 0.50288 0.02229 0.92402 0.0
C1448 C 0.57882 0.97967 0.83574 0.0
C1449 C 0.57073 0.98637 0.84992 0.0
C1450 C 0.54595 0.02132 0.86452 0.0
C1451 C 0.53048 0.02444 0.9102 0.0
C1452 C 0.54125 0.0208 0.89527 0.0
C1453 C 0.56883 0.00398 0.85157 0.0
C1454 C 0.56003 0.01079 0.86663 0.0
H1455 H 0.53428 0.03604 0.95217 0.0
H1456 H 0.5516 0.03308 0.92668 0.0
H1457 H 0.52541 0.03388 0.87678 0.0
H1458 H 0.58859 0.01671 0.81504 0.0
H1459 H 0.57389 0.02844 0.83981 0.0
C1460 C 0.30377 0.28691 0.40565 0.0
C1461 C 0.31441 0.28672 0.39134 0.0
C1462 C 0.29828 0.27167 0.41324 0.0
C1463 C 0.30873 0.22592 0.41537 0.0
H1464 H 0.26309 0.22064 0.4337 0.0
C1465 C 0.28079 0.16079 0.43447 0.0
C1466 C 0.27421 0.15966 0.45109 0.0
C1467 C 0.28448 0.1766 0.42718 0.0
C1468 C 0.27589 0.22201 0.42871 0.0
H1469 H 0.32717 0.27053 0.37337 0.0
H1470 H 0.31729 0.244 0.38624 0.0
H1471 H 0.27212 0.24773 0.42095 0.0
H1472 H 0.26553 0.17431 0.47274 0.0
H1473 H 0.2718 0.20203 0.45979 0.0
H1474 H 0.31234 0.20011 0.42277 0.0
C1475 C 0.3136 0.25584 0.39203 0.0
C1476 C 0.28112 0.23753 0.42148 0.0
C1477 C 0.31924 0.27105 0.3846 0.0
C1478 C 0.27065 0.17474 0.45994 0.0
C1479 C 0.27418 0.1906 0.45253 0.0
C1480 C 0.30344 0.21041 0.42238 0.0
C1481 C 0.30317 0.25593 0.40654 0.0
C1482 C 0.29759 0.23964 0.41463 0.0
C1483 C 0.28151 0.19164 0.43625 0.0
C1484 C 0.28696 0.20827 0.42903 0.0
H1485 H 0.29994 0.29885 0.41114 0.0
H1486 H 0.29045 0.27226 0.42452 0.0
H1487 H 0.32165 0.22717 0.41065 0.0
H1488 H 0.28364 0.14946 0.42726 0.0
H1489 H 0.28992 0.17707 0.41451 0.0
C1490 C 0.49365 0.44773 0.88464 0.0
C1491 C 0.51005 0.44589 0.87789 0.0
C1492 C 0.48023 0.45351 0.87435 0.0
C1493 C 0.46603 0.45836 0.82932 0.0
H1494 H 0.43552 0.49111 0.84858 0.0
C1495 C 0.41254 0.48937 0.78891 0.0
C1496 C 0.39654 0.49038 0.79675 0.0
C1497 C 0.42703 0.48485 0.79848 0.0
C1498 C 0.44384 0.48186 0.84305 0.0
H1499 H 0.52518 0.4487 0.85499 0.0
H1500 H 0.50171 0.45872 0.837 0.0
H1501 H 0.4594 0.48099 0.86586 0.0
H1502 H 0.38331 0.48767 0.82085 0.0
H1503 H 0.40843 0.47968 0.83739 0.0
H1504 H 0.45035 0.45911 0.80656 0.0
C1505 C 0.49921 0.45551 0.85022 0.0
C1506 C 0.45751 0.47605 0.85296 0.0
C1507 C 0.51265 0.44974 0.86052 0.0
C1508 C 0.39542 0.48705 0.81439 0.0
C1509 C 0.40987 0.48256 0.82392 0.0
C1510 C 0.45233 0.46416 0.8194 0.0
C1511 C 0.48289 0.45759 0.85706 0.0
C1512 C 0.46867 0.46411 0.84628 0.0
C1513 C 0.42582 0.48129 0.81607 0.0
C1514 C 0.44098 0.47586 0.82622 0.0
H1515 H 0.49115 0.4446 0.89788 0.0
H1516 H 0.46773 0.45467 0.87992 0.0
H1517 H 0.47431 0.44903 0.82386 0.0
H1518 H 0.41386 0.49188 0.77536 0.0
H1519 H 0.43918 0.48416 0.79209 0.0
C1520 C 0.7046 0.74167 0.12117 0.0
C1521 C 0.70702 0.7396 0.13892 0.0
C1522 C 0.70917 0.72898 0.10972 0.0
C1523 C 0.73647 0.69192 0.10515 0.0
H1524 H 0.70624 0.6819 0.0662 0.0
C1525 C 0.74938 0.63893 0.05519 0.0
C1526 C 0.74669 0.64337 0.03793 0.0
C1527 C 0.74422 0.64967 0.06838 0.0
C1528 C 0.71488 0.68463 0.07694 0.0
H1529 H 0.71626 0.72254 0.15856 0.0
H1530 H 0.72433 0.70032 0.13848 0.0
H1531 H 0.6979 0.70245 0.08769 0.0
H1532 H 0.73651 0.66262 0.02102 0.0
H1533 H 0.72767 0.68126 0.04391 0.0
H1534 H 0.75355 0.67418 0.09422 0.0
C1535 C 0.71897 0.71186 0.13346 0.0
C1536 C 0.7101 0.69641 0.08926 0.0
C1537 C 0.71436 0.72459 0.14495 0.0
C1538 C 0.73874 0.65875 0.03416 0.0
C1539 C 0.73355 0.66941 0.0473 0.0
C1540 C 0.74126 0.6801 0.0928 0.0
C1541 C 0.71631 0.71388 0.11571 0.0
C1542 C 0.72096 0.70042 0.10335 0.0
C1543 C 0.73619 0.665 0.06456 0.0
C1544 C 0.73064 0.67654 0.0784 0.0
H1545 H 0.69935 0.75322 0.11606 0.0
H1546 H 0.7073 0.73111 0.09612 0.0
H1547 H 0.74517 0.69482 0.1158 0.0
H1548 H 0.75546 0.62718 0.05853 0.0
H1549 H 0.74632 0.64587 0.08156 0.0
C1550 C 0.99556 0.02313 0.12208 0.0
C1551 C 0.99309 0.03329 0.1075 0.0
C1552 C 0.98224 0.02006 0.13349 0.0
C1553 C 0.94161 0.03795 0.14765 0.0
H1554 H 0.93543 0.99419 0.16969 0.0
C1555 C 0.88556 0.02343 0.19336 0.0
C1556 C 0.88956 0.01459 0.20847 0.0
C1557 C 0.89752 0.02511 0.1803 0.0
C1558 C 0.93707 0.00653 0.16375 0.0
H1559 H 0.97452 0.04801 0.09342 0.0
H1560 H 0.95118 0.04237 0.11313 0.0
H1561 H 0.95736 0.99799 0.14809 0.0
H1562 H 0.90927 0.00045 0.22159 0.0
H1563 H 0.93011 0.00347 0.1989 0.0
H1564 H 0.9214 0.04652 0.1634 0.0
C1565 C 0.96351 0.03694 0.11585 0.0
C1566 C 0.94965 0.00871 0.15137 0.0
C1567 C 0.97684 0.04 0.10443 0.0
C1568 C 0.90573 0.00732 0.21012 0.0
C1569 C 0.91766 0.00896 0.19705 0.0
C1570 C 0.92901 0.03576 0.16002 0.0
C1571 C 0.96609 0.02707 0.13062 0.0
C1572 C 0.95218 0.0245 0.14325 0.0
C1573 C 0.91374 0.01794 0.182 0.0
C1574 C 0.92667 0.02006 0.16833 0.0
H1575 H 0.00785 0.01759 0.12474 0.0
H1576 H 0.98475 0.01253 0.14479 0.0
H1577 H 0.94336 0.05036 0.14187 0.0
H1578 H 0.87321 0.02916 0.19164 0.0
H1579 H 0.89401 0.03194 0.16879 0.0
C1580 C 0.25443 0.74858 0.14947 0.0
C1581 C 0.27097 0.74649 0.15644 0.0
C1582 C 0.25132 0.76157 0.13769 0.0
C1583 C 0.27431 0.78646 0.10559 0.0
H1584 H 0.2343 0.81449 0.1039 0.0
C1585 C 0.26923 0.83742 0.0546 0.0
C1586 C 0.2535 0.83863 0.0458 0.0
C1587 C 0.27033 0.82846 0.06991 0.0
C1588 C 0.24547 0.80666 0.10414 0.0
H1589 H 0.29688 0.75715 0.15747 0.0
H1590 H 0.29149 0.77965 0.13689 0.0
H1591 H 0.23802 0.79432 0.12749 0.0
H1592 H 0.22638 0.83231 0.04654 0.0
H1593 H 0.22835 0.81603 0.07322 0.0
H1594 H 0.28163 0.79817 0.08218 0.0
C1595 C 0.281 0.77107 0.14027 0.0
C1596 C 0.24761 0.79515 0.11765 0.0
C1597 C 0.2841 0.75816 0.15203 0.0
C1598 C 0.23865 0.83158 0.05314 0.0
C1599 C 0.23981 0.82228 0.06841 0.0
C1600 C 0.27213 0.7978 0.09212 0.0
C1601 C 0.2647 0.77267 0.13264 0.0
C1602 C 0.26214 0.78503 0.11855 0.0
C1603 C 0.2558 0.82013 0.07664 0.0
C1604 C 0.25779 0.80817 0.09126 0.0
H1605 H 0.24407 0.73975 0.15254 0.0
H1606 H 0.23865 0.76243 0.13195 0.0
H1607 H 0.28542 0.77854 0.10567 0.0
H1608 H 0.28083 0.84297 0.04933 0.0
H1609 H 0.28276 0.82757 0.07618 0.0
C1610 C 0.03816 0.50248 0.0947 0.0
C1611 C 0.02492 0.49105 0.08945 0.0
C1612 C 0.04551 0.50138 0.11112 0.0
C1613 C 0.03739 0.4833 0.15412 0.0
H1614 H 0.08652 0.48939 0.16055 0.0
C1615 C 0.07239 0.46336 0.21591 0.0
C1616 C 0.08471 0.47487 0.22296 0.0
C1617 C 0.06525 0.46612 0.19968 0.0
C1618 C 0.07276 0.48784 0.15896 0.0
H1619 H 0.00928 0.46928 0.09708 0.0
H1620 H 0.02219 0.4672 0.12559 0.0
H1621 H 0.07369 0.49279 0.13204 0.0
H1622 H 0.09935 0.49823 0.21838 0.0
H1623 H 0.08688 0.50297 0.1899 0.0
H1624 H 0.03652 0.47802 0.18097 0.0
C1625 C 0.02664 0.47729 0.11724 0.0
C1626 C 0.0654 0.48982 0.14265 0.0
C1627 C 0.01925 0.47845 0.10089 0.0
C1628 C 0.08988 0.48912 0.21332 0.0
C1629 C 0.08281 0.49181 0.19699 0.0
C1630 C 0.04476 0.48122 0.17037 0.0
C1631 C 0.03982 0.48877 0.12258 0.0
C1632 C 0.04764 0.48742 0.14001 0.0
C1633 C 0.07033 0.4804 0.19008 0.0
C1634 C 0.06253 0.48331 0.17293 0.0
H1635 H 0.04267 0.51242 0.0862 0.0
H1636 H 0.05548 0.51056 0.11491 0.0
H1637 H 0.02363 0.48172 0.15262 0.0
H1638 H 0.06813 0.45224 0.22297 0.0
H1639 H 0.05582 0.457 0.19457 0.0
C1640 C 0.33769 0.69636 0.27433 0.0
C1641 C 0.33858 0.70337 0.25782 0.0
C1642 C 0.35007 0.70078 0.2869 0.0
C1643 C 0.38309 0.73425 0.29721 0.0
H1644 H 0.40027 0.70122 0.3295 0.0
C1645 C 0.43182 0.75536 0.34877 0.0
C1646 C 0.44582 0.74487 0.35149 0.0
C1647 C 0.41726 0.7493 0.33984 0.0
C1648 C 0.39566 0.71058 0.32053 0.0
H1649 H 0.35347 0.71995 0.24132 0.0
H1650 H 0.37517 0.72741 0.26301 0.0
H1651 H 0.37839 0.69252 0.3082 0.0
H1652 H 0.45527 0.71953 0.34785 0.0
H1653 H 0.43004 0.70903 0.33161 0.0
H1654 H 0.40078 0.75212 0.3088 0.0
C1655 C 0.36467 0.71891 0.2665 0.0
C1656 C 0.38297 0.70564 0.30844 0.0
C1657 C 0.35225 0.71461 0.25403 0.0
C1658 C 0.4446 0.72786 0.34597 0.0
C1659 C 0.43012 0.72186 0.33669 0.0
C1660 C 0.3958 0.73914 0.30915 0.0
C1661 C 0.36366 0.71221 0.28316 0.0
C1662 C 0.37666 0.7174 0.29652 0.0
C1663 C 0.4165 0.73271 0.33302 0.0
C1664 C 0.40232 0.72739 0.32095 0.0
H1665 H 0.32723 0.68773 0.27763 0.0
H1666 H 0.34879 0.69551 0.29962 0.0
H1667 H 0.37834 0.74374 0.28846 0.0
H1668 H 0.43233 0.76847 0.35312 0.0
H1669 H 0.40682 0.75786 0.33777 0.0
C1670 C 0.00392 0.41229 0.98168 0.0
C1671 C 0.99134 0.41788 0.99286 0.0
C1672 C 0.00323 0.39569 0.97524 0.0
C1673 C 0.00292 0.35766 0.96859 0.0
H1674 H 0.95882 0.34235 0.94983 0.0
C1675 C 0.99512 0.29698 0.92657 0.0
C1676 C 0.98692 0.30022 0.91079 0.0
C1677 C 0.9944 0.30875 0.94007 0.0
C1678 C 0.97119 0.34637 0.95515 0.0
H1679 H 0.96836 0.41029 0.00634 0.0
H1680 H 0.96721 0.38121 0.99515 0.0
H1681 H 0.9609 0.36825 0.96709 0.0
H1682 H 0.9707 0.31774 0.89711 0.0
H1683 H 0.96935 0.33802 0.92052 0.0
H1684 H 0.01333 0.33624 0.95583 0.0
C1685 C 0.97756 0.38974 0.99132 0.0
C1686 C 0.97237 0.36114 0.96515 0.0
C1687 C 0.97829 0.40634 0.99781 0.0
C1688 C 0.97726 0.31493 0.90908 0.0
C1689 C 0.97636 0.3265 0.92256 0.0
C1690 C 0.00173 0.34285 0.95862 0.0
C1691 C 0.98992 0.38428 0.9798 0.0
C1692 C 0.98834 0.36725 0.97152 0.0
C1693 C 0.98521 0.32376 0.93808 0.0
C1694 C 0.98593 0.33737 0.95132 0.0
H1695 H 0.01427 0.42081 0.97779 0.0
H1696 H 0.01284 0.39199 0.96623 0.0
H1697 H 0.01536 0.36192 0.97355 0.0
H1698 H 0.00267 0.28576 0.92823 0.0
H1699 H 0.00129 0.30629 0.95194 0.0
C1700 C 0.62195 0.77159 0.23804 0.0
C1701 C 0.63965 0.77191 0.24155 0.0
C1702 C 0.61038 0.76603 0.25035 0.0
C1703 C 0.60582 0.76142 0.29689 0.0
H1704 H 0.56341 0.73811 0.28287 0.0
C1705 C 0.54892 0.74874 0.34296 0.0
C1706 C 0.53366 0.75543 0.33641 0.0
C1707 C 0.56309 0.74706 0.33234 0.0
C1708 C 0.57525 0.7445 0.287 0.0
H1709 H 0.6591 0.76633 0.26072 0.0
H1710 H 0.63879 0.7564 0.28229 0.0
H1711 H 0.58636 0.74179 0.26235 0.0
H1712 H 0.52101 0.7649 0.31354 0.0
H1713 H 0.54543 0.76167 0.29511 0.0
H1714 H 0.59439 0.76446 0.32148 0.0
C1715 C 0.63391 0.76061 0.26999 0.0
C1716 C 0.58836 0.7467 0.27524 0.0
C1717 C 0.64554 0.76616 0.25759 0.0
C1718 C 0.53262 0.75979 0.31899 0.0
C1719 C 0.54657 0.75782 0.30839 0.0
C1720 C 0.5927 0.7591 0.30872 0.0
C1721 C 0.61617 0.76058 0.26653 0.0
C1722 C 0.60355 0.75575 0.27985 0.0
C1723 C 0.56202 0.75167 0.31496 0.0
C1724 C 0.57707 0.75115 0.30369 0.0
H1725 H 0.61699 0.7757 0.22573 0.0
H1726 H 0.59682 0.76645 0.24731 0.0
H1727 H 0.61731 0.76852 0.30085 0.0
H1728 H 0.55008 0.74533 0.35636 0.0
H1729 H 0.57488 0.74228 0.33771 0.0
C1730 C 0.02928 0.09759 0.98615 0.0
C1731 C 0.03073 0.10234 0.00354 0.0
C1732 C 0.02571 0.10968 0.97356 0.0
C1733 C 0.00799 0.15249 0.96771 0.0
H1734 H 0.03276 0.15229 0.92511 0.0
C1735 C 0.00673 0.2089 0.92077 0.0
C1736 C 0.0059 0.2053 0.9031 0.0
C1737 C 0.0093 0.19593 0.93266 0.0
C1738 C 0.02556 0.1524 0.93684 0.0
H1739 H 0.02987 0.12367 0.02119 0.0
H1740 H 0.02359 0.14464 -0.00068 0.0
H1741 H 0.03791 0.13033 0.94643 0.0
H1742 H 0.00709 0.18517 0.88411 0.0
H1743 H 0.01141 0.16252 0.90489 0.0
H1744 H 0.99568 0.17458 0.95819 0.0
C1745 C 0.02491 0.13152 0.99543 0.0
C1746 C 0.02852 0.13981 0.94907 0.0
C1747 C 0.0285 0.11947 0.00799 0.0
C1748 C 0.00771 0.1884 0.89762 0.0
C1749 C 0.01028 0.17542 0.90953 0.0
C1750 C 0.00502 0.16507 0.95549 0.0
C1751 C 0.02348 0.1268 0.97805 0.0
C1752 C 0.01987 0.13978 0.96472 0.0
C1753 C 0.01108 0.17902 0.92721 0.0
C1754 C 0.01386 0.16527 0.93995 0.0
H1755 H 0.03072 0.08449 0.98228 0.0
H1756 H 0.0245 0.10558 0.96031 0.0
H1757 H 0.00087 0.15268 0.97949 0.0
H1758 H 0.00546 0.22177 0.92546 0.0
H1759 H 0.01011 0.19922 0.94615 0.0
C1760 C 0.39056 0.31542 0.29205 0.0
C1761 C 0.3803 0.32976 0.29162 0.0
C1762 C 0.39955 0.31063 0.27756 0.0
C1763 C 0.41336 0.3264 0.23466 0.0
H1764 H 0.41796 0.27831 0.22529 0.0
C1765 C 0.42912 0.29856 0.16834 0.0
C1766 C 0.44274 0.28729 0.16796 0.0
C1767 C 0.42282 0.30415 0.18395 0.0
C1768 C 0.41689 0.29178 0.22786 0.0
H1769 H 0.37117 0.35025 0.2758 0.0
H1770 H 0.38619 0.34156 0.25027 0.0
H1771 H 0.40419 0.28727 0.25148 0.0
H1772 H 0.46036 0.27294 0.18362 0.0
H1773 H 0.44891 0.28237 0.211 0.0
H1774 H 0.42535 0.33071 0.2105 0.0
C1775 C 0.38789 0.33429 0.2619 0.0
C1776 C 0.40908 0.29696 0.24291 0.0
C1777 C 0.37918 0.33925 0.27648 0.0
C1778 C 0.4499 0.28167 0.18353 0.0
C1779 C 0.44333 0.28699 0.19916 0.0
C1780 C 0.42086 0.32118 0.21948 0.0
C1781 C 0.39819 0.31989 0.26221 0.0
C1782 C 0.40712 0.31436 0.24649 0.0
C1783 C 0.42978 0.29832 0.19948 0.0
C1784 C 0.42261 0.30384 0.21592 0.0
H1785 H 0.39174 0.308 0.30365 0.0
H1786 H 0.4076 0.29969 0.27846 0.0
H1787 H 0.41248 0.3399 0.2371 0.0
H1788 H 0.42339 0.30316 0.15656 0.0
H1789 H 0.41228 0.3128 0.1839 0.0
C1790 C 0.54789 0.38897 -0.00074 0.0
C1791 C 0.54706 0.38303 0.98223 0.0
C1792 C 0.54122 0.37907 0.01254 0.0
C1793 C 0.51015 0.34376 0.02012 0.0
H1794 H 0.53208 0.34266 0.06508 0.0
C1795 C 0.47596 0.31381 0.07749 0.0
C1796 C 0.4856 0.30371 0.08865 0.0
C1797 C 0.484 0.32382 0.06512 0.0
C1798 C 0.52587 0.34273 0.05256 0.0
H1799 H 0.53867 0.3619 0.96587 0.0
H1800 H 0.52754 0.34447 0.98904 0.0
H1801 H 0.54562 0.35877 0.04208 0.0
H1802 H 0.51134 0.29649 0.09581 0.0
H1803 H 0.52539 0.31378 0.07397 0.0
H1804 H 0.49064 0.32742 0.03039 0.0
C1805 C 0.53309 0.35691 0.99212 0.0
C1806 C 0.53353 0.35212 0.03943 0.0
C1807 C 0.53969 0.36682 0.97885 0.0
C1808 C 0.50354 0.30416 0.08742 0.0
C1809 C 0.51159 0.31412 0.07495 0.0
C1810 C 0.50254 0.33436 0.0332 0.0
C1811 C 0.5336 0.36298 0.0091 0.0
C1812 C 0.52573 0.35277 0.02306 0.0
C1813 C 0.50189 0.3239 0.06351 0.0
C1814 C 0.51024 0.33379 0.04961 0.0
H1815 H 0.55369 0.4013 0.00236 0.0
H1816 H 0.5417 0.38421 0.02544 0.0
H1817 H 0.50366 0.34415 0.00775 0.0
H1818 H 0.46213 0.3139 0.07819 0.0
H1819 H 0.47616 0.33148 0.05678 0.0
C1820 C 0.6535 0.22897 0.20508 0.0
C1821 C 0.65887 0.24183 0.21669 0.0
C1822 C 0.63751 0.22959 0.19677 0.0
C1823 C 0.60371 0.25983 0.18525 0.0
H1824 H 0.57597 0.21888 0.17685 0.0
C1825 C 0.53384 0.26187 0.16061 0.0
C1826 C 0.5289 0.25045 0.14739 0.0
C1827 C 0.5496 0.26042 0.16915 0.0
C1828 C 0.58365 0.2304 0.17898 0.0
H1829 H 0.65145 0.26508 0.22918 0.0
H1830 H 0.62351 0.26605 0.21493 0.0
H1831 H 0.60357 0.217 0.1918 0.0
H1832 H 0.53659 0.22841 0.13294 0.0
H1833 H 0.56412 0.22589 0.1479 0.0
H1834 H 0.58372 0.27324 0.17258 0.0
C1835 C 0.63179 0.25571 0.21186 0.0
C1836 C 0.59948 0.22933 0.18752 0.0
C1837 C 0.64779 0.25514 0.22007 0.0
C1838 C 0.54001 0.23743 0.14305 0.0
C1839 C 0.55574 0.23592 0.15168 0.0
C1840 C 0.58786 0.2609 0.17682 0.0
C1841 C 0.62651 0.24304 0.19997 0.0
C1842 C 0.60969 0.24405 0.1908 0.0
C1843 C 0.56075 0.24747 0.16474 0.0
C1844 C 0.57764 0.24622 0.17362 0.0
H1845 H 0.66183 0.21864 0.2021 0.0
H1846 H 0.63395 0.21972 0.18755 0.0
H1847 H 0.61137 0.27139 0.18723 0.0
H1848 H 0.52558 0.27202 0.16432 0.0
H1849 H 0.55301 0.26939 0.17931 0.0
C1850 C 0.44905 0.10112 0.03771 0.0
C1851 C 0.46245 0.09021 0.04169 0.0
C1852 C 0.4478 0.11666 0.04625 0.0
C1853 C 0.46278 0.14013 0.08529 0.0
H1854 H 0.45009 0.17966 0.05897 0.0
C1855 C 0.47072 0.20923 0.1107 0.0
C1856 C 0.45759 0.22048 0.10667 0.0
C1857 C 0.47045 0.19282 0.10373 0.0
C1858 C 0.45344 0.1687 0.06654 0.0
H1859 H 0.48516 0.0871 0.05762 0.0
H1860 H 0.48312 0.11432 0.07238 0.0
H1861 H 0.45143 0.15212 0.04478 0.0
H1862 H 0.4336 0.22308 0.09259 0.0
H1863 H 0.43314 0.19447 0.08051 0.0
H1864 H 0.46506 0.15686 0.10701 0.0
C1865 C 0.47336 0.11073 0.06291 0.0
C1866 C 0.4542 0.1529 0.05842 0.0
C1867 C 0.47456 0.09515 0.05443 0.0
C1868 C 0.44396 0.21478 0.09591 0.0
C1869 C 0.44373 0.19842 0.08889 0.0
C1870 C 0.46209 0.15596 0.09341 0.0
C1871 C 0.45998 0.12169 0.0589 0.0
C1872 C 0.45891 0.13843 0.06768 0.0
C1873 C 0.4571 0.18735 0.09253 0.0
C1874 C 0.45743 0.17042 0.08411 0.0
H1875 H 0.43938 0.09754 0.02813 0.0
H1876 H 0.43717 0.12467 0.04304 0.0
H1877 H 0.4662 0.12919 0.09286 0.0
H1878 H 0.48141 0.21319 0.11896 0.0
H1879 H 0.48099 0.18462 0.10667 0.0
C1880 C 0.25792 0.34564 0.69941 0.0
C1881 C 0.24084 0.34985 0.69586 0.0
C1882 C 0.2703 0.35834 0.7033 0.0
C1883 C 0.2893 0.38659 0.72344 0.0
H1884 H 0.29038 0.43001 0.70004 0.0
C1885 C 0.31828 0.44745 0.75416 0.0
C1886 C 0.32832 0.45849 0.74408 0.0
C1887 C 0.30952 0.43348 0.74679 0.0
C1888 C 0.29039 0.41788 0.70656 0.0
H1889 H 0.22351 0.37082 0.69355 0.0
H1890 H 0.2451 0.39288 0.7001 0.0
H1891 H 0.27159 0.40684 0.68918 0.0
H1892 H 0.33706 0.46344 0.7183 0.0
H1893 H 0.32147 0.43899 0.70533 0.0
H1894 H 0.30781 0.39771 0.74102 0.0
C1895 C 0.24896 0.37978 0.69968 0.0
C1896 C 0.27953 0.40468 0.70044 0.0
C1897 C 0.23657 0.3671 0.6959 0.0
C1898 C 0.32944 0.45518 0.72641 0.0
C1899 C 0.32048 0.44123 0.71898 0.0
C1900 C 0.30005 0.39981 0.72962 0.0
C1901 C 0.26591 0.37554 0.70361 0.0
C1902 C 0.27865 0.38898 0.70899 0.0
C1903 C 0.31045 0.43024 0.72913 0.0
C1904 C 0.30047 0.4157 0.72144 0.0
H1905 H 0.26173 0.33252 0.69922 0.0
H1906 H 0.28331 0.3547 0.7061 0.0
H1907 H 0.28884 0.3747 0.73039 0.0
H1908 H 0.31715 0.44959 0.76781 0.0
H1909 H 0.30171 0.42539 0.7549 0.0
C1910 C 0.26416 0.66333 0.76689 0.0
C1911 C 0.26565 0.67435 0.75282 0.0
C1912 C 0.27269 0.64797 0.7672 0.0
C1913 C 0.30881 0.62557 0.74847 0.0
H1914 H 0.28458 0.58552 0.76535 0.0
C1915 C 0.33683 0.55767 0.74728 0.0
C1916 C 0.33379 0.5476 0.76183 0.0
C1917 C 0.32893 0.57335 0.74538 0.0
C1918 C 0.29161 0.59661 0.76075 0.0
H1919 H 0.27728 0.67773 0.72798 0.0
H1920 H 0.29226 0.65092 0.72858 0.0
H1921 H 0.27 0.61238 0.7636 0.0
H1922 H 0.32049 0.54642 0.78601 0.0
H1923 H 0.30703 0.57362 0.78279 0.0
H1924 H 0.33049 0.60973 0.74577 0.0
C1925 C 0.2846 0.65429 0.73945 0.0
C1926 C 0.28323 0.61202 0.75975 0.0
C1927 C 0.27602 0.66966 0.73912 0.0
C1928 C 0.32301 0.55373 0.77455 0.0
C1929 C 0.31518 0.56932 0.77266 0.0
C1930 C 0.31723 0.61011 0.74951 0.0
C1931 C 0.28296 0.64323 0.75346 0.0
C1932 C 0.29178 0.62673 0.75379 0.0
C1933 C 0.31783 0.57924 0.75797 0.0
C1934 C 0.30878 0.59551 0.75588 0.0
H1935 H 0.25657 0.66668 0.77781 0.0
H1936 H 0.27141 0.63989 0.77833 0.0
H1937 H 0.31579 0.63671 0.74393 0.0
H1938 H 0.34506 0.55332 0.73724 0.0
H1939 H 0.33118 0.58066 0.73386 0.0
C1940 C 0.89569 0.48285 0.50937 0.0
C1941 C 0.91027 0.47843 0.50023 0.0
C1942 C 0.88028 0.47349 0.50724 0.0
C1943 C 0.86483 0.43079 0.49459 0.0
H1944 H 0.81998 0.45055 0.49162 0.0
C1945 C 0.80584 0.38835 0.48155 0.0
C1946 C 0.79151 0.3909 0.49174 0.0
C1947 C 0.8191 0.40054 0.48102 0.0
C1948 C 0.83241 0.44486 0.49257 0.0
H1949 H 0.91981 0.46139 0.48092 0.0
H1950 H 0.89305 0.44505 0.47729 0.0
H1951 H 0.84565 0.46915 0.49385 0.0
H1952 H 0.77934 0.40864 0.50862 0.0
H1953 H 0.80284 0.42993 0.50804 0.0
H1954 H 0.85184 0.40659 0.49366 0.0
C1955 C 0.8936 0.45553 0.48636 0.0
C1956 C 0.84709 0.4555 0.49384 0.0
C1957 C 0.90894 0.46486 0.48847 0.0
C1958 C 0.79025 0.40636 0.50065 0.0
C1959 C 0.8037 0.41854 0.50029 0.0
C1960 C 0.85024 0.42022 0.4934 0.0
C1961 C 0.87919 0.45953 0.49593 0.0
C1962 C 0.86345 0.44853 0.49472 0.0
C1963 C 0.81851 0.4155 0.49088 0.0
C1964 C 0.83385 0.42709 0.49221 0.0
H1965 H 0.89634 0.49319 0.5186 0.0
H1966 H 0.86943 0.4768 0.51487 0.0
H1967 H 0.87722 0.42502 0.49567 0.0
H1968 H 0.80704 0.37667 0.47431 0.0
H1969 H 0.83008 0.398 0.47323 0.0
C1970 C 0.78511 0.90722 0.8243 0.0
C1971 C 0.78507 0.89349 0.83575 0.0
C1972 C 0.76974 0.91455 0.81924 0.0
C1973 C 0.72389 0.91678 0.83114 0.0
H1974 H 0.71787 0.93166 0.78414 0.0
C1975 C 0.65793 0.93187 0.80181 0.0
C1976 C 0.65685 0.94748 0.79322 0.0
C1977 C 0.67384 0.92567 0.80674 0.0
C1978 C 0.71944 0.92766 0.79733 0.0
H1979 H 0.76898 0.87646 0.85062 0.0
H1980 H 0.74219 0.88888 0.84152 0.0
H1981 H 0.74521 0.92025 0.79348 0.0
H1982 H 0.67163 0.96858 0.78262 0.0
H1983 H 0.69947 0.95752 0.791 0.0
H1984 H 0.69792 0.92376 0.83478 0.0
C1985 C 0.75405 0.89441 0.83682 0.0
C1986 C 0.73512 0.9212 0.80273 0.0
C1987 C 0.7694 0.88723 0.84202 0.0
C1988 C 0.67204 0.95654 0.78927 0.0
C1989 C 0.68797 0.9502 0.79399 0.0
C1990 C 0.70818 0.92302 0.82568 0.0
C1991 C 0.75399 0.90817 0.82536 0.0
C1992 C 0.73752 0.9156 0.8197 0.0
C1993 C 0.68899 0.93482 0.80296 0.0
C1994 C 0.70578 0.92845 0.80871 0.0
H1995 H 0.79704 0.91235 0.81937 0.0
H1996 H 0.77023 0.9253 0.81062 0.0
H1997 H 0.72535 0.91296 0.84439 0.0
H1998 H 0.64648 0.92459 0.80506 0.0
H1999 H 0.6743 0.91369 0.81349 0.0
C2000 C 0.61754 0.50221 0.93216 0.0
C2001 C 0.60928 0.4925 0.9448 0.0
C2002 C 0.62732 0.51672 0.9366 0.0
C2003 C 0.65215 0.53586 0.97232 0.0
H2004 H 0.65366 0.57493 0.94219 0.0
C2005 C 0.70243 0.59066 0.98158 0.0
C2006 C 0.71161 0.5941 0.96659 0.0
C2007 C 0.68713 0.58093 0.98077 0.0
C2008 C 0.65332 0.56415 0.95077 0.0
H2009 H 0.60454 0.49068 0.97205 0.0
H2010 H 0.6218 0.51607 0.97985 0.0
H2011 H 0.63185 0.55251 0.93744 0.0
H2012 H 0.71148 0.5909 0.93895 0.0
H2013 H 0.6849 0.57413 0.93756 0.0
H2014 H 0.67401 0.54726 0.98529 0.0
C2015 C 0.62075 0.51232 0.96649 0.0
C2016 C 0.64088 0.55129 0.94803 0.0
C2017 C 0.61091 0.49777 0.96202 0.0
C2018 C 0.70477 0.58839 0.95074 0.0
C2019 C 0.68945 0.57889 0.94992 0.0
C2020 C 0.66459 0.54876 0.97509 0.0
C2021 C 0.62912 0.52191 0.95381 0.0
C2022 C 0.64052 0.53673 0.95841 0.0
C2023 C 0.68065 0.57473 0.96494 0.0
C2024 C 0.66565 0.56276 0.96399 0.0
H2025 H 0.61686 0.49834 0.91882 0.0
H2026 H 0.63391 0.52359 0.92656 0.0
H2027 H 0.65229 0.52476 0.98048 0.0
H2028 H 0.70739 0.59488 0.99398 0.0
H2029 H 0.68055 0.57799 0.99254 0.0
C2030 C 0.20931 0.64325 0.21576 0.0
C2031 C 0.22502 0.64422 0.22481 0.0
C2032 C 0.19635 0.63179 0.22073 0.0
C2033 C 0.18266 0.60353 0.25649 0.0
H2034 H 0.15837 0.57861 0.22012 0.0
C2035 C 0.14601 0.53972 0.26694 0.0
C2036 C 0.13019 0.53714 0.25832 0.0
C2037 C 0.1562 0.55422 0.26378 0.0
C2038 C 0.16487 0.58562 0.23043 0.0
H2039 H 0.23941 0.63406 0.24625 0.0
H2040 H 0.21698 0.61389 0.25477 0.0
H2041 H 0.17865 0.60142 0.21291 0.0
H2042 H 0.11248 0.54795 0.23991 0.0
H2043 H 0.13034 0.57323 0.23434 0.0
H2044 H 0.1692 0.58727 0.27396 0.0
C2045 C 0.21446 0.62222 0.24406 0.0
C2046 C 0.17647 0.59874 0.22631 0.0
C2047 C 0.22735 0.63377 0.23917 0.0
C2048 C 0.12461 0.54954 0.24674 0.0
C2049 C 0.13487 0.56398 0.24348 0.0
C2050 C 0.17114 0.59032 0.2606 0.0
C2051 C 0.19886 0.62093 0.23478 0.0
C2052 C 0.18566 0.60776 0.23927 0.0
C2053 C 0.15084 0.56639 0.25184 0.0
C2054 C 0.16224 0.58112 0.2476 0.0
H2055 H 0.20708 0.65131 0.20477 0.0
H2056 H 0.18439 0.63137 0.21348 0.0
H2057 H 0.18928 0.6104 0.26682 0.0
H2058 H 0.15067 0.53043 0.27596 0.0
H2059 H 0.16852 0.55565 0.2703 0.0
C2060 C 0.9186 0.53493 0.03199 0.0
C2061 C 0.92199 0.52169 0.02048 0.0
C2062 C 0.90254 0.54234 0.03198 0.0
C2063 C 0.85754 0.53554 0.01673 0.0
H2064 H 0.85654 0.58479 0.01729 0.0
C2065 C 0.8033 0.57277 0.98613 0.0
C2066 C 0.79777 0.58763 0.99412 0.0
C2067 C 0.81709 0.56401 0.99289 0.0
C2068 C 0.85656 0.57103 0.01747 0.0
H2069 H 0.91118 0.50586 -4e-05 0.0
H2070 H 0.88328 0.51878 -0.00013 0.0
H2071 H 0.88357 0.57074 0.02241 0.0
H2072 H 0.80206 0.60468 0.01578 0.0
H2073 H 0.82649 0.58936 0.02754 0.0
H2074 H 0.83064 0.53587 0.0111 0.0
C2075 C 0.89288 0.52325 0.00915 0.0
C2076 C 0.87205 0.56296 0.02039 0.0
C2077 C 0.9089 0.51585 0.00916 0.0
C2078 C 0.80604 0.59327 0.00934 0.0
C2079 C 0.82005 0.58456 0.01603 0.0
C2080 C 0.84209 0.54359 0.01376 0.0
C2081 C 0.88953 0.53666 0.02047 0.0
C2082 C 0.87279 0.54513 0.01959 0.0
C2083 C 0.8258 0.56994 0.00774 0.0
C2084 C 0.84153 0.56143 0.01363 0.0
H2085 H 0.92834 0.53955 0.04105 0.0
H2086 H 0.90031 0.55251 0.041 0.0
H2087 H 0.85761 0.52177 0.01641 0.0
H2088 H 0.79715 0.56803 0.97443 0.0
H2089 H 0.82135 0.55292 0.98608 0.0
C2090 C 0.0923 0.97883 0.04594 0.0
C2091 C 0.09542 0.99513 0.03913 0.0
C2092 C 0.10305 0.96545 0.04216 0.0
C2093 C 0.13599 0.95188 0.01162 0.0
H2094 H 0.14974 0.92226 0.04867 0.0
C2095 C 0.19295 0.9071 0.00625 0.0
C2096 C 0.19132 0.8908 0.01348 0.0
C2097 C 0.18046 0.91917 0.00884 0.0
C2098 C 0.14586 0.93026 0.03812 0.0
H2099 H 0.11202 0.00993 0.02253 0.0
H2100 H 0.13092 0.98674 0.01622 0.0
H2101 H 0.12925 0.94436 0.054 0.0
H2102 H 0.17513 0.8744 0.029 0.0
H2103 H 0.15328 0.89546 0.03342 0.0
H2104 H 0.15277 0.9379 0.99579 0.0
C2105 C 0.12009 0.98424 0.02438 0.0
C2106 C 0.13409 0.94294 0.04117 0.0
C2107 C 0.10935 0.99761 0.02817 0.0
C2108 C 0.17682 0.88684 0.02327 0.0
C2109 C 0.16433 0.89894 0.02589 0.0
C2110 C 0.14778 0.93922 0.00857 0.0
C2111 C 0.11717 0.96802 0.03145 0.0
C2112 C 0.1291 0.95401 0.02799 0.0
C2113 C 0.16602 0.91528 0.01874 0.0
C2114 C 0.15296 0.92833 0.02181 0.0
H2115 H 0.08177 0.9765 0.05454 0.0
H2116 H 0.10031 0.95308 0.04767 0.0
H2117 H 0.13223 0.95998 0.00109 0.0
H2118 H 0.20396 0.91061 0.99867 0.0
H2119 H 0.18229 0.93169 0.00333 0.0
loop_
_geom_bond_atom_site_label_1
_geom_bond_atom_site_label_2
_geom_bond_distance
_geom_bond_site_symmetry_2
_ccdc_geom_bond_type
P0 O11 1.490 . S
P0 C14 1.812 . S
P0 C20 1.803 . S
P0 C26 1.819 . S
H1 C15 0.941 . S
H2 C16 0.939 . S
H3 C18 0.984 . S
H4 C19 0.940 . S
H5 C21 0.939 . S
H6 C22 0.942 . S
H7 C24 0.940 1_565 S
H8 C25 0.939 . S
H9 C27 0.941 . S
H10 C31 0.939 . S
O11 P0 1.490 . S
H12 C28 0.939 . S
H13 C30 0.940 . S
C14 P0 1.812 . S
C14 C15 1.389 . S
C14 C19 1.391 . S
C15 H1 0.941 . S
C15 C14 1.389 . S
C15 C16 1.397 . S
C16 H2 0.939 . S
C16 C15 1.397 . S
C16 C17 1.378 . S
C17 C16 1.378 . S
C17 C18 1.378 . S
C18 H3 0.984 . S
C18 C17 1.378 . S
C18 C19 1.396 . S
C19 H4 0.940 . S
C19 C14 1.391 . S
C19 C18 1.396 . S
C20 P0 1.803 . S
C20 C21 1.378 . S
C20 C25 1.400 . S
C21 H5 0.939 . S
C21 C20 1.378 . S
C21 C22 1.361 . S
C22 H6 0.942 . S
C22 C21 1.361 . S
C22 C23 1.369 . S
C23 C22 1.369 . S
C23 C24 1.404 . S
C24 H7 0.940 1_545 S
C24 C23 1.404 . S
C24 C25 1.389 . S
C25 H8 0.939 . S
C25 C20 1.400 . S
C25 C24 1.389 . S
C26 P0 1.819 . S
C26 C27 1.391 . S
C26 C31 1.391 . S
C27 H9 0.941 . S
C27 C26 1.391 . S
C27 C28 1.396 . S
C28 H12 0.939 . S
C28 C27 1.396 . S
C28 C29 1.397 . S
C29 C28 1.397 . S
C29 C30 1.385 . S
C30 H13 0.940 . S
C30 C29 1.385 . S
C30 C31 1.388 . S
C31 H10 0.939 . S
C31 C26 1.391 . S
C31 C30 1.388 . S
P32 O43 1.490 . S
P32 C46 1.812 . S
P32 C52 1.803 . S
P32 C58 1.819 . S
H33 C47 0.941 . S
H34 C48 0.939 . S
H35 C50 0.940 . S
H36 C51 0.940 . S
H37 C53 0.939 . S
H38 C54 0.942 . S
H39 C56 0.940 . S
H40 C57 0.939 . S
H41 C59 0.941 . S
H42 C63 0.939 . S
O43 P32 1.490 . S
H44 C60 0.939 . S
H45 C62 0.940 . S
C46 P32 1.812 . S
C46 C47 1.389 . S
C46 C51 1.391 . S
C47 H33 0.941 . S
C47 C46 1.389 . S
C47 C48 1.397 . S
C48 H34 0.939 . S
C48 C47 1.397 . S
C48 C49 1.378 . S
C49 C48 1.378 . S
C49 C50 1.378 . S
C50 H35 0.940 . S
C50 C49 1.378 . S
C50 C51 1.396 . S
C51 H36 0.940 . S
C51 C46 1.391 . S
C51 C50 1.396 . S
C52 P32 1.803 . S
C52 C53 1.378 . S
C52 C57 1.400 . S
C53 H37 0.939 . S
C53 C52 1.378 . S
C53 C54 1.361 . S
C54 H38 0.942 . S
C54 C53 1.361 . S
C54 C55 1.369 . S
C55 C54 1.369 . S
C55 C56 1.404 . S
C56 H39 0.940 . S
C56 C55 1.404 . S
C56 C57 1.389 . S
C57 H40 0.939 . S
C57 C52 1.400 . S
C57 C56 1.389 . S
C58 P32 1.819 . S
C58 C59 1.391 . S
C58 C63 1.391 . S
C59 H41 0.941 . S
C59 C58 1.391 . S
C59 C60 1.396 . S
C60 H44 0.939 . S
C60 C59 1.396 . S
C60 C61 1.397 . S
C61 C60 1.397 . S
C61 C62 1.385 . S
C62 H45 0.940 . S
C62 C61 1.385 . S
C62 C63 1.388 . S
C63 H42 0.939 . S
C63 C58 1.391 . S
C63 C62 1.388 . S
P64 O75 1.490 . S
P64 C78 1.812 . S
P64 C84 1.803 . S
P64 C90 1.819 . S
H65 C79 0.941 . S
H66 C80 0.939 1_556 S
H67 C82 0.940 . S
H68 C83 0.940 . S
H69 C85 0.939 . S
H70 C86 0.942 . S
H71 C88 0.940 . S
H72 C89 0.939 . S
H73 C91 0.941 . S
H74 C95 0.939 . S
O75 P64 1.490 . S
H76 C92 0.939 1_455 S
H77 C94 0.940 . S
C78 P64 1.812 . S
C78 C79 1.389 . S
C78 C83 1.391 . S
C79 H65 0.941 . S
C79 C78 1.389 . S
C79 C80 1.397 . S
C80 H66 0.939 1_554 S
C80 C79 1.397 . S
C80 C81 1.378 . S
C81 C80 1.378 . S
C81 C82 1.378 . S
C82 H67 0.940 . S
C82 C81 1.378 . S
C82 C83 1.396 . S
C83 H68 0.940 . S
C83 C78 1.391 . S
C83 C82 1.396 . S
C84 P64 1.803 . S
C84 C85 1.378 . S
C84 C89 1.400 . S
C85 H69 0.939 . S
C85 C84 1.378 . S
C85 C86 1.361 . S
C86 H70 0.942 . S
C86 C85 1.361 . S
C86 C87 1.369 . S
C87 C86 1.369 . S
C87 C88 1.404 . S
C88 H71 0.940 . S
C88 C87 1.404 . S
C88 C89 1.389 . S
C89 H72 0.939 . S
C89 C84 1.400 . S
C89 C88 1.389 . S
C90 P64 1.819 . S
C90 C91 1.391 . S
C90 C95 1.391 . S
C91 H73 0.941 . S
C91 C90 1.391 . S
C91 C92 1.396 . S
C92 H76 0.939 1_655 S
C92 C91 1.396 . S
C92 C93 1.397 . S
C93 C92 1.397 . S
C93 C94 1.385 . S
C94 H77 0.940 . S
C94 C93 1.385 . S
C94 C95 1.388 . S
C95 H74 0.939 . S
C95 C90 1.391 . S
C95 C94 1.388 . S
P96 O107 1.490 . S
P96 C110 1.812 . S
P96 C116 1.803 . S
P96 C122 1.819 . S
H97 C111 0.941 . S
H98 C112 0.939 . S
H99 C114 0.940 . S
H100 C115 0.940 . S
H101 C117 0.939 . S
H102 C118 0.942 . S
H103 C120 0.940 . S
H104 C121 0.939 . S
H105 C123 0.941 . S
H106 C127 0.939 . S
O107 P96 1.490 . S
H108 C124 0.939 . S
H109 C126 0.940 . S
C110 P96 1.812 . S
C110 C111 1.389 . S
C110 C115 1.391 . S
C111 H97 0.941 . S
C111 C110 1.389 . S
C111 C112 1.397 . S
C112 H98 0.939 . S
C112 C111 1.397 . S
C112 C113 1.378 . S
C113 C112 1.378 . S
C113 C114 1.378 . S
C114 H99 0.940 . S
C114 C113 1.378 . S
C114 C115 1.396 . S
C115 H100 0.940 . S
C115 C110 1.391 . S
C115 C114 1.396 . S
C116 P96 1.803 . S
C116 C117 1.378 . S
C116 C121 1.400 . S
C117 H101 0.939 . S
C117 C116 1.378 . S
C117 C118 1.361 . S
C118 H102 0.942 . S
C118 C117 1.361 . S
C118 C119 1.369 . S
C119 C118 1.369 . S
C119 C120 1.404 . S
C120 H103 0.940 . S
C120 C119 1.404 . S
C120 C121 1.389 . S
C121 H104 0.939 . S
C121 C116 1.400 . S
C121 C120 1.389 . S
C122 P96 1.819 . S
C122 C123 1.391 . S
C122 C127 1.391 . S
C123 H105 0.941 . S
C123 C122 1.391 . S
C123 C124 1.396 . S
C124 H108 0.939 . S
C124 C123 1.396 . S
C124 C125 1.397 . S
C125 C124 1.397 . S
C125 C126 1.385 . S
C126 H109 0.940 . S
C126 C125 1.385 . S
C126 C127 1.388 . S
C127 H106 0.939 . S
C127 C122 1.391 . S
C127 C126 1.388 . S
P128 O139 1.490 . S
P128 C142 1.812 . S
P128 C148 1.803 . S
P128 C154 1.819 . S
H129 C143 0.941 . S
H130 C144 0.939 . S
H131 C146 0.940 . S
H132 C147 0.940 . S
H133 C149 0.939 . S
H134 C150 0.942 . S
H135 C152 0.940 . S
H136 C153 0.939 . S
H137 C155 0.941 . S
H138 C159 0.939 . S
O139 P128 1.490 . S
H140 C156 0.939 . S
H141 C158 0.940 . S
C142 P128 1.812 . S
C142 C143 1.389 . S
C142 C147 1.391 . S
C143 H129 0.941 . S
C143 C142 1.389 . S
C143 C144 1.397 . S
C144 H130 0.939 . S
C144 C143 1.397 . S
C144 C145 1.378 . S
C145 C144 1.378 . S
C145 C146 1.378 . S
C146 H131 0.940 . S
C146 C145 1.378 . S
C146 C147 1.396 . S
C147 H132 0.940 . S
C147 C142 1.391 . S
C147 C146 1.396 . S
C148 P128 1.803 . S
C148 C149 1.378 . S
C148 C153 1.400 . S
C149 H133 0.939 . S
C149 C148 1.378 . S
C149 C150 1.361 . S
C150 H134 0.942 . S
C150 C149 1.361 . S
C150 C151 1.369 . S
C151 C150 1.369 . S
C151 C152 1.404 . S
C152 H135 0.940 . S
C152 C151 1.404 . S
C152 C153 1.389 . S
C153 H136 0.939 . S
C153 C148 1.400 . S
C153 C152 1.389 . S
C154 P128 1.819 . S
C154 C155 1.391 . S
C154 C159 1.391 . S
C155 H137 0.941 . S
C155 C154 1.391 . S
C155 C156 1.396 . S
C156 H140 0.939 . S
C156 C155 1.396 . S
C156 C157 1.397 . S
C157 C156 1.397 . S
C157 C158 1.385 . S
C158 H141 0.940 . S
C158 C157 1.385 . S
C158 C159 1.388 . S
C159 H138 0.939 . S
C159 C154 1.391 . S
C159 C158 1.388 . S
P160 O171 1.490 . S
P160 C174 1.812 . S
P160 C180 1.803 . S
P160 C186 1.819 . S
H161 C175 0.941 . S
H162 C176 0.939 . S
H163 C178 0.940 . S
H164 C179 0.940 . S
H165 C181 0.939 . S
H166 C182 0.942 . S
H167 C184 0.940 . S
H168 C185 0.939 . S
H169 C187 0.941 . S
H170 C191 0.939 . S
O171 P160 1.490 . S
H172 C188 0.939 . S
H173 C190 0.940 . S
C174 P160 1.812 . S
C174 C175 1.389 . S
C174 C179 1.391 . S
C175 H161 0.941 . S
C175 C174 1.389 . S
C175 C176 1.397 . S
C176 H162 0.939 . S
C176 C175 1.397 . S
C176 C177 1.378 . S
C177 C176 1.378 . S
C177 C178 1.378 . S
C178 H163 0.940 . S
C178 C177 1.378 . S
C178 C179 1.396 . S
C179 H164 0.940 . S
C179 C174 1.391 . S
C179 C178 1.396 . S
C180 P160 1.803 . S
C180 C181 1.378 . S
C180 C185 1.400 . S
C181 H165 0.939 . S
C181 C180 1.378 . S
C181 C182 1.361 . S
C182 H166 0.942 . S
C182 C181 1.361 . S
C182 C183 1.369 . S
C183 C182 1.369 . S
C183 C184 1.404 . S
C184 H167 0.940 . S
C184 C183 1.404 . S
C184 C185 1.389 . S
C185 H168 0.939 . S
C185 C180 1.400 . S
C185 C184 1.389 . S
C186 P160 1.819 . S
C186 C187 1.391 . S
C186 C191 1.391 . S
C187 H169 0.941 . S
C187 C186 1.391 . S
C187 C188 1.396 . S
C188 H172 0.939 . S
C188 C187 1.396 . S
C188 C189 1.397 . S
C189 C188 1.397 . S
C189 C190 1.385 . S
C190 H173 0.940 . S
C190 C189 1.385 . S
C190 C191 1.388 . S
C191 H170 0.939 . S
C191 C186 1.391 . S
C191 C190 1.388 . S
P192 O203 1.490 . S
P192 C206 1.812 . S
P192 C212 1.803 . S
P192 C218 1.819 . S
H193 C207 0.941 1_455 S
H194 C208 0.939 . S
H195 C210 0.940 . S
H196 C211 0.940 . S
H197 C213 0.939 . S
H198 C214 0.942 . S
H199 C216 0.940 . S
H200 C217 0.939 . S
H201 C219 0.941 . S
H202 C223 0.939 . S
O203 P192 1.490 . S
H204 C220 0.939 . S
H205 C222 0.940 . S
C206 P192 1.812 . S
C206 C207 1.389 . S
C206 C211 1.391 . S
C207 H193 0.941 1_655 S
C207 C206 1.389 . S
C207 C208 1.397 1_655 S
C208 H194 0.939 . S
C208 C207 1.397 1_455 S
C208 C209 1.378 1_455 S
C209 C208 1.378 1_655 S
C209 C210 1.378 . S
C210 H195 0.940 . S
C210 C209 1.378 . S
C210 C211 1.396 . S
C211 H196 0.940 . S
C211 C206 1.391 . S
C211 C210 1.396 . S
C212 P192 1.803 . S
C212 C213 1.378 . S
C212 C217 1.400 . S
C213 H197 0.939 . S
C213 C212 1.378 . S
C213 C214 1.361 . S
C214 H198 0.942 . S
C214 C213 1.361 . S
C214 C215 1.369 . S
C215 C214 1.369 . S
C215 C216 1.404 . S
C216 H199 0.940 . S
C216 C215 1.404 . S
C216 C217 1.389 . S
C217 H200 0.939 . S
C217 C212 1.400 . S
C217 C216 1.389 . S
C218 P192 1.819 . S
C218 C219 1.391 . S
C218 C223 1.391 . S
C219 H201 0.941 . S
C219 C218 1.391 . S
C219 C220 1.396 . S
C220 H204 0.939 . S
C220 C219 1.396 . S
C220 C221 1.397 . S
C221 C220 1.397 . S
C221 C222 1.385 . S
C222 H205 0.940 . S
C222 C221 1.385 . S
C222 C223 1.388 . S
C223 H202 0.939 . S
C223 C218 1.391 . S
C223 C222 1.388 . S
P224 O235 1.490 . S
P224 C238 1.812 . S
P224 C244 1.803 . S
P224 C250 1.819 . S
H225 C239 0.941 . S
H226 C240 0.939 . S
H227 C242 0.940 . S
H228 C243 0.940 . S
H229 C245 0.939 . S
H230 C246 0.942 . S
H231 C248 0.940 . S
H232 C249 0.939 . S
H233 C251 0.941 . S
H234 C255 0.939 . S
O235 P224 1.490 . S
H236 C252 0.939 . S
H237 C254 0.940 . S
C238 P224 1.812 . S
C238 C239 1.389 . S
C238 C243 1.391 . S
C239 H225 0.941 . S
C239 C238 1.389 . S
C239 C240 1.397 . S
C240 H226 0.939 . S
C240 C239 1.397 . S
C240 C241 1.378 . S
C241 C240 1.378 . S
C241 C242 1.378 . S
C242 H227 0.940 . S
C242 C241 1.378 . S
C242 C243 1.396 . S
C243 H228 0.940 . S
C243 C238 1.391 . S
C243 C242 1.396 . S
C244 P224 1.803 . S
C244 C245 1.378 . S
C244 C249 1.400 . S
C245 H229 0.939 . S
C245 C244 1.378 . S
C245 C246 1.361 . S
C246 H230 0.942 . S
C246 C245 1.361 . S
C246 C247 1.369 . S
C247 C246 1.369 . S
C247 C248 1.404 . S
C248 H231 0.940 . S
C248 C247 1.404 . S
C248 C249 1.389 . S
C249 H232 0.939 . S
C249 C244 1.400 . S
C249 C248 1.389 . S
C250 P224 1.819 . S
C250 C251 1.391 . S
C250 C255 1.391 . S
C251 H233 0.941 . S
C251 C250 1.391 . S
C251 C252 1.396 . S
C252 H236 0.939 . S
C252 C251 1.396 . S
C252 C253 1.397 . S
C253 C252 1.397 . S
C253 C254 1.385 . S
C254 H237 0.940 . S
C254 C253 1.385 . S
C254 C255 1.388 . S
C255 H234 0.939 . S
C255 C250 1.391 . S
C255 C254 1.388 . S
P256 O267 1.490 . S
P256 C270 1.812 . S
P256 C276 1.803 . S
P256 C282 1.819 . S
H257 C271 0.941 . S
H258 C272 0.939 . S
H259 C274 0.940 . S
H260 C275 0.940 . S
H261 C277 0.939 . S
H262 C278 0.942 . S
H263 C280 0.940 . S
H264 C281 0.939 . S
H265 C283 0.941 . S
H266 C287 0.939 . S
O267 P256 1.490 . S
H268 C284 0.939 . S
H269 C286 0.940 . S
C270 P256 1.812 . S
C270 C271 1.389 . S
C270 C275 1.391 . S
C271 H257 0.941 . S
C271 C270 1.389 . S
C271 C272 1.397 . S
C272 H258 0.939 . S
C272 C271 1.397 . S
C272 C273 1.378 . S
C273 C272 1.378 . S
C273 C274 1.378 . S
C274 H259 0.940 . S
C274 C273 1.378 . S
C274 C275 1.396 . S
C275 H260 0.940 . S
C275 C270 1.391 . S
C275 C274 1.396 . S
C276 P256 1.803 . S
C276 C277 1.378 . S
C276 C281 1.400 . S
C277 H261 0.939 . S
C277 C276 1.378 . S
C277 C278 1.361 . S
C278 H262 0.942 . S
C278 C277 1.361 . S
C278 C279 1.369 . S
C279 C278 1.369 . S
C279 C280 1.404 . S
C280 H263 0.940 . S
C280 C279 1.404 . S
C280 C281 1.389 . S
C281 H264 0.939 . S
C281 C276 1.400 . S
C281 C280 1.389 . S
C282 P256 1.819 . S
C282 C283 1.391 . S
C282 C287 1.391 . S
C283 H265 0.941 . S
C283 C282 1.391 . S
C283 C284 1.396 . S
C284 H268 0.939 . S
C284 C283 1.396 . S
C284 C285 1.397 . S
C285 C284 1.397 . S
C285 C286 1.385 . S
C286 H269 0.940 . S
C286 C285 1.385 . S
C286 C287 1.388 . S
C287 H266 0.939 . S
C287 C282 1.391 . S
C287 C286 1.388 . S
P288 O299 1.490 . S
P288 C302 1.812 . S
P288 C308 1.803 . S
P288 C314 1.819 . S
H289 C303 0.941 . S
H290 C304 0.939 . S
H291 C306 0.940 . S
H292 C307 0.940 . S
H293 C309 0.939 1_545 S
H294 C310 0.942 . S
H295 C312 0.940 . S
H296 C313 0.939 . S
H297 C315 0.941 . S
H298 C319 0.939 . S
O299 P288 1.490 . S
H300 C316 0.939 . S
H301 C318 0.940 . S
C302 P288 1.812 . S
C302 C303 1.389 . S
C302 C307 1.391 . S
C303 H289 0.941 . S
C303 C302 1.389 . S
C303 C304 1.397 . S
C304 H290 0.939 . S
C304 C303 1.397 . S
C304 C305 1.378 . S
C305 C304 1.378 . S
C305 C306 1.378 . S
C306 H291 0.940 . S
C306 C305 1.378 . S
C306 C307 1.396 . S
C307 H292 0.940 . S
C307 C302 1.391 . S
C307 C306 1.396 . S
C308 P288 1.803 . S
C308 C309 1.378 . S
C308 C313 1.400 . S
C309 H293 0.939 1_565 S
C309 C308 1.378 . S
C309 C310 1.361 1_565 S
C310 H294 0.942 . S
C310 C309 1.361 1_545 S
C310 C311 1.369 1_545 S
C311 C310 1.369 1_565 S
C311 C312 1.404 . S
C312 H295 0.940 . S
C312 C311 1.404 . S
C312 C313 1.389 . S
C313 H296 0.939 . S
C313 C308 1.400 . S
C313 C312 1.389 . S
C314 P288 1.819 . S
C314 C315 1.391 . S
C314 C319 1.391 . S
C315 H297 0.941 . S
C315 C314 1.391 . S
C315 C316 1.396 . S
C316 H300 0.939 . S
C316 C315 1.396 . S
C316 C317 1.397 . S
C317 C316 1.397 . S
C317 C318 1.385 . S
C318 H301 0.940 . S
C318 C317 1.385 . S
C318 C319 1.388 . S
C319 H298 0.939 . S
C319 C314 1.391 . S
C319 C318 1.388 . S
P320 O331 1.490 . S
P320 C334 1.812 . S
P320 C340 1.803 . S
P320 C346 1.819 . S
H321 C335 0.941 . S
H322 C336 0.939 . S
H323 C338 0.940 . S
H324 C339 0.940 . S
H325 C341 0.939 . S
H326 C342 0.942 . S
H327 C344 0.940 . S
H328 C345 0.939 . S
H329 C347 0.941 . S
H330 C351 0.939 . S
O331 P320 1.490 . S
H332 C348 0.939 . S
H333 C350 0.940 . S
C334 P320 1.812 . S
C334 C335 1.389 . S
C334 C339 1.391 . S
C335 H321 0.941 . S
C335 C334 1.389 . S
C335 C336 1.397 . S
C336 H322 0.939 . S
C336 C335 1.397 . S
C336 C337 1.378 . S
C337 C336 1.378 . S
C337 C338 1.378 . S
C338 H323 0.940 . S
C338 C337 1.378 . S
C338 C339 1.396 . S
C339 H324 0.940 . S
C339 C334 1.391 . S
C339 C338 1.396 . S
C340 P320 1.803 . S
C340 C341 1.378 . S
C340 C345 1.400 . S
C341 H325 0.939 . S
C341 C340 1.378 . S
C341 C342 1.361 . S
C342 H326 0.942 . S
C342 C341 1.361 . S
C342 C343 1.369 . S
C343 C342 1.369 . S
C343 C344 1.404 . S
C344 H327 0.940 . S
C344 C343 1.404 . S
C344 C345 1.389 . S
C345 H328 0.939 . S
C345 C340 1.400 . S
C345 C344 1.389 . S
C346 P320 1.819 . S
C346 C347 1.391 . S
C346 C351 1.391 . S
C347 H329 0.941 . S
C347 C346 1.391 . S
C347 C348 1.396 . S
C348 H332 0.939 . S
C348 C347 1.396 . S
C348 C349 1.397 . S
C349 C348 1.397 . S
C349 C350 1.385 . S
C350 H333 0.940 . S
C350 C349 1.385 . S
C350 C351 1.388 . S
C351 H330 0.939 . S
C351 C346 1.391 . S
C351 C350 1.388 . S
P352 O363 1.490 . S
P352 C366 1.812 . S
P352 C372 1.803 . S
P352 C378 1.819 . S
H353 C367 0.941 . S
H354 C368 0.939 . S
H355 C370 0.940 . S
H356 C371 0.940 . S
H357 C373 0.939 . S
H358 C374 0.942 . S
H359 C376 0.940 . S
H360 C377 0.939 . S
H361 C379 0.941 . S
H362 C383 0.939 . S
O363 P352 1.490 . S
H364 C380 0.939 . S
H365 C382 0.940 . S
C366 P352 1.812 . S
C366 C367 1.389 . S
C366 C371 1.391 . S
C367 H353 0.941 . S
C367 C366 1.389 . S
C367 C368 1.397 . S
C368 H354 0.939 . S
C368 C367 1.397 . S
C368 C369 1.378 . S
C369 C368 1.378 . S
C369 C370 1.378 . S
C370 H355 0.940 . S
C370 C369 1.378 . S
C370 C371 1.396 . S
C371 H356 0.940 . S
C371 C366 1.391 . S
C371 C370 1.396 . S
C372 P352 1.803 . S
C372 C373 1.378 . S
C372 C377 1.400 . S
C373 H357 0.939 . S
C373 C372 1.378 . S
C373 C374 1.361 . S
C374 H358 0.942 . S
C374 C373 1.361 . S
C374 C375 1.369 . S
C375 C374 1.369 . S
C375 C376 1.404 . S
C376 H359 0.940 . S
C376 C375 1.404 . S
C376 C377 1.389 . S
C377 H360 0.939 . S
C377 C372 1.400 . S
C377 C376 1.389 . S
C378 P352 1.819 . S
C378 C379 1.391 . S
C378 C383 1.391 . S
C379 H361 0.941 . S
C379 C378 1.391 . S
C379 C380 1.396 . S
C380 H364 0.939 . S
C380 C379 1.396 . S
C380 C381 1.397 . S
C381 C380 1.397 . S
C381 C382 1.385 . S
C382 H365 0.940 . S
C382 C381 1.385 . S
C382 C383 1.388 . S
C383 H362 0.939 . S
C383 C378 1.391 . S
C383 C382 1.388 . S
P384 O395 1.490 . S
P384 C398 1.812 . S
P384 C404 1.803 . S
P384 C410 1.819 . S
H385 C399 0.941 . S
H386 C400 0.939 . S
H387 C402 0.940 . S
H388 C403 0.940 . S
H389 C405 0.939 . S
H390 C406 0.942 . S
H391 C408 0.940 . S
H392 C409 0.939 . S
H393 C411 0.941 . S
H394 C415 0.939 . S
O395 P384 1.490 . S
H396 C412 0.939 . S
H397 C414 0.940 . S
C398 P384 1.812 . S
C398 C399 1.389 . S
C398 C403 1.391 . S
C399 H385 0.941 . S
C399 C398 1.389 . S
C399 C400 1.397 . S
C400 H386 0.939 . S
C400 C399 1.397 . S
C400 C401 1.378 . S
C401 C400 1.378 . S
C401 C402 1.378 . S
C402 H387 0.940 . S
C402 C401 1.378 . S
C402 C403 1.396 . S
C403 H388 0.940 . S
C403 C398 1.391 . S
C403 C402 1.396 . S
C404 P384 1.803 . S
C404 C405 1.378 . S
C404 C409 1.400 . S
C405 H389 0.939 . S
C405 C404 1.378 . S
C405 C406 1.361 . S
C406 H390 0.942 . S
C406 C405 1.361 . S
C406 C407 1.369 . S
C407 C406 1.369 . S
C407 C408 1.404 . S
C408 H391 0.940 . S
C408 C407 1.404 . S
C408 C409 1.389 . S
C409 H392 0.939 . S
C409 C404 1.400 . S
C409 C408 1.389 . S
C410 P384 1.819 . S
C410 C411 1.391 . S
C410 C415 1.391 . S
C411 H393 0.941 . S
C411 C410 1.391 . S
C411 C412 1.396 . S
C412 H396 0.939 . S
C412 C411 1.396 . S
C412 C413 1.397 . S
C413 C412 1.397 . S
C413 C414 1.385 . S
C414 H397 0.940 . S
C414 C413 1.385 . S
C414 C415 1.388 . S
C415 H394 0.939 . S
C415 C410 1.391 . S
C415 C414 1.388 . S
P416 O427 1.490 . S
P416 C430 1.812 . S
P416 C436 1.803 . S
P416 C442 1.819 . S
H417 C431 0.941 . S
H418 C432 0.939 . S
H419 C434 0.940 . S
H420 C435 0.940 . S
H421 C437 0.939 . S
H422 C438 0.942 . S
H423 C440 0.940 1_554 S
H424 C441 0.939 . S
H425 C443 0.941 . S
H426 C447 0.939 . S
O427 P416 1.490 . S
H428 C444 0.939 . S
H429 C446 0.940 . S
C430 P416 1.812 . S
C430 C431 1.389 . S
C430 C435 1.391 . S
C431 H417 0.941 . S
C431 C430 1.389 . S
C431 C432 1.397 . S
C432 H418 0.939 . S
C432 C431 1.397 . S
C432 C433 1.378 . S
C433 C432 1.378 . S
C433 C434 1.378 . S
C434 H419 0.940 . S
C434 C433 1.378 . S
C434 C435 1.396 . S
C435 H420 0.940 . S
C435 C430 1.391 . S
C435 C434 1.396 . S
C436 P416 1.803 . S
C436 C437 1.378 . S
C436 C441 1.400 . S
C437 H421 0.939 . S
C437 C436 1.378 . S
C437 C438 1.361 . S
C438 H422 0.942 . S
C438 C437 1.361 . S
C438 C439 1.369 . S
C439 C438 1.369 . S
C439 C440 1.404 . S
C440 H423 0.940 1_556 S
C440 C439 1.404 . S
C440 C441 1.389 . S
C441 H424 0.939 . S
C441 C436 1.400 . S
C441 C440 1.389 . S
C442 P416 1.819 . S
C442 C443 1.391 . S
C442 C447 1.391 . S
C443 H425 0.941 . S
C443 C442 1.391 . S
C443 C444 1.396 . S
C444 H428 0.939 . S
C444 C443 1.396 . S
C444 C445 1.397 . S
C445 C444 1.397 . S
C445 C446 1.385 . S
C446 H429 0.940 . S
C446 C445 1.385 . S
C446 C447 1.388 . S
C447 H426 0.939 . S
C447 C442 1.391 . S
C447 C446 1.388 . S
P448 O459 1.490 . S
P448 C462 1.812 . S
P448 C468 1.803 . S
P448 C474 1.819 . S
H449 C463 0.941 . S
H450 C464 0.939 . S
H451 C466 0.940 . S
H452 C467 0.940 . S
H453 C469 0.939 . S
H454 C470 0.942 . S
H455 C472 0.940 . S
H456 C473 0.939 . S
H457 C475 0.941 . S
H458 C479 0.939 . S
O459 P448 1.490 . S
H460 C476 0.939 . S
H461 C478 0.940 . S
C462 P448 1.812 . S
C462 C463 1.389 . S
C462 C467 1.391 . S
C463 H449 0.941 . S
C463 C462 1.389 . S
C463 C464 1.397 . S
C464 H450 0.939 . S
C464 C463 1.397 . S
C464 C465 1.378 . S
C465 C464 1.378 . S
C465 C466 1.378 . S
C466 H451 0.940 . S
C466 C465 1.378 . S
C466 C467 1.396 . S
C467 H452 0.940 . S
C467 C462 1.391 . S
C467 C466 1.396 . S
C468 P448 1.803 . S
C468 C469 1.378 . S
C468 C473 1.400 . S
C469 H453 0.939 . S
C469 C468 1.378 . S
C469 C470 1.361 . S
C470 H454 0.942 . S
C470 C469 1.361 . S
C470 C471 1.369 . S
C471 C470 1.369 . S
C471 C472 1.404 . S
C472 H455 0.940 . S
C472 C471 1.404 . S
C472 C473 1.389 . S
C473 H456 0.939 . S
C473 C468 1.400 . S
C473 C472 1.389 . S
C474 P448 1.819 . S
C474 C475 1.391 . S
C474 C479 1.391 . S
C475 H457 0.941 . S
C475 C474 1.391 . S
C475 C476 1.396 . S
C476 H460 0.939 . S
C476 C475 1.396 . S
C476 C477 1.397 . S
C477 C476 1.397 . S
C477 C478 1.385 . S
C478 H461 0.940 . S
C478 C477 1.385 . S
C478 C479 1.388 . S
C479 H458 0.939 . S
C479 C474 1.391 . S
C479 C478 1.388 . S
P480 O491 1.490 . S
P480 C494 1.812 . S
P480 C500 1.803 . S
P480 C506 1.819 . S
H481 C495 0.941 . S
H482 C496 0.939 . S
H483 C498 0.940 . S
H484 C499 0.940 . S
H485 C501 0.939 . S
H486 C502 0.877 1_554 S
H487 C504 0.940 . S
H488 C505 0.939 . S
H489 C507 0.941 . S
H490 C511 0.939 . S
O491 P480 1.490 . S
H492 C508 0.939 1_565 S
H493 C510 0.940 . S
C494 P480 1.812 . S
C494 C495 1.389 . S
C494 C499 1.391 . S
C495 H481 0.941 . S
C495 C494 1.389 . S
C495 C496 1.397 . S
C496 H482 0.939 . S
C496 C495 1.397 . S
C496 C497 1.378 . S
C497 C496 1.378 . S
C497 C498 1.378 . S
C498 H483 0.940 . S
C498 C497 1.378 . S
C498 C499 1.396 . S
C499 H484 0.940 . S
C499 C494 1.391 . S
C499 C498 1.396 . S
C500 P480 1.803 . S
C500 C501 1.378 . S
C500 C505 1.400 . S
C501 H485 0.939 . S
C501 C500 1.378 . S
C501 C502 1.390 . S
C502 H486 0.877 1_556 S
C502 C501 1.390 . S
C502 C503 1.408 . S
C503 C502 1.408 . S
C503 C504 1.404 . S
C504 H487 0.940 . S
C504 C503 1.404 . S
C504 C505 1.389 . S
C505 H488 0.939 . S
C505 C500 1.400 . S
C505 C504 1.389 . S
C506 P480 1.819 . S
C506 C507 1.391 . S
C506 C511 1.391 . S
C507 H489 0.941 . S
C507 C506 1.391 . S
C507 C508 1.396 . S
C508 H492 0.939 1_545 S
C508 C507 1.396 . S
C508 C509 1.397 . S
C509 C508 1.397 . S
C509 C510 1.385 . S
C510 H493 0.940 . S
C510 C509 1.385 . S
C510 C511 1.388 . S
C511 H490 0.939 . S
C511 C506 1.391 . S
C511 C510 1.388 . S
Zn512 O515 2.055 . S
Zn512 O517 2.033 1_554 S
Zn512 O522 2.034 1_554 S
Zn513 O514 1.962 . S
Zn513 O516 1.986 . S
Zn513 O518 1.996 . S
Zn513 O521 1.943 1_554 S
O514 Zn513 1.962 . S
O514 C519 1.254 . S
O515 Zn512 2.055 . S
O515 C519 1.269 . S
O516 Zn513 1.986 . S
O516 C523 1.262 . S
O517 Zn512 2.033 1_556 S
O517 C525 1.260 . S
O518 Zn513 1.996 . S
O518 C525 1.257 1_554 S
C519 O514 1.254 . S
C519 O515 1.269 . S
C520 O521 1.249 . S
C520 O522 1.270 . S
O521 Zn513 1.943 1_556 S
O521 C520 1.249 . S
O522 Zn512 2.034 1_556 S
O522 C520 1.270 . S
C523 O516 1.262 . S
C523 O524 1.232 . S
O524 C523 1.232 . S
C525 O517 1.260 . S
C525 O518 1.257 1_556 S
Zn526 O529 2.031 . S
Zn526 O531 2.049 . S
Zn526 O536 2.067 . S
Zn527 O528 1.962 . S
Zn527 O530 1.986 . S
Zn527 O532 1.996 . S
Zn527 O535 1.943 . S
O528 Zn527 1.962 . S
O528 C533 1.254 . S
O529 Zn526 2.031 . S
O529 C533 1.269 . S
O530 Zn527 1.986 . S
O530 C537 1.262 . S
O531 Zn526 2.049 . S
O531 C539 1.260 . S
O532 Zn527 1.996 . S
O532 C539 1.257 . S
C533 O528 1.254 . S
C533 O529 1.269 . S
C534 O535 1.249 . S
C534 O536 1.270 . S
O535 Zn527 1.943 . S
O535 C534 1.249 . S
O536 Zn526 2.067 . S
O536 C534 1.270 . S
C537 O530 1.262 . S
C537 O538 1.232 . S
O538 C537 1.232 . S
C539 O531 1.260 . S
C539 O532 1.257 . S
Zn540 O543 2.031 . S
Zn540 O545 2.049 . S
Zn540 O550 2.067 . S
Zn541 O542 1.962 . S
Zn541 O544 1.986 . S
Zn541 O546 1.996 1_554 S
Zn541 O549 1.943 . S
O542 Zn541 1.962 . S
O542 C547 1.254 . S
O543 Zn540 2.031 . S
O543 C547 1.269 1_556 S
O544 Zn541 1.986 . S
O544 C551 1.262 . S
O545 Zn540 2.049 . S
O545 C553 1.260 . S
O546 Zn541 1.996 1_556 S
O546 C553 1.257 . S
C547 O542 1.254 . S
C547 O543 1.269 1_554 S
C548 O549 1.249 1_556 S
C548 O550 1.270 . S
O549 Zn541 1.943 . S
O549 C548 1.249 1_554 S
O550 Zn540 2.067 . S
O550 C548 1.270 . S
C551 O544 1.262 . S
C551 O552 1.232 . S
O552 C551 1.232 . S
C553 O545 1.260 . S
C553 O546 1.257 . S
Zn554 O557 2.031 . S
Zn554 O559 2.049 1_545 S
Zn554 O564 2.067 1_545 S
Zn555 O556 1.962 . S
Zn555 O558 1.986 . S
Zn555 O560 1.996 . S
Zn555 O563 1.943 1_545 S
O556 Zn555 1.962 . S
O556 C561 1.254 . S
O557 Zn554 2.031 . S
O557 C561 1.269 . S
O558 Zn555 1.986 . S
O558 C565 1.262 . S
O559 Zn554 2.049 1_565 S
O559 C567 1.260 . S
O560 Zn555 1.996 . S
O560 C567 1.257 1_545 S
C561 O556 1.254 . S
C561 O557 1.269 . S
C562 O563 1.249 . S
C562 O564 1.270 . S
O563 Zn555 1.943 1_565 S
O563 C562 1.249 . S
O564 Zn554 2.067 1_565 S
O564 C562 1.270 . S
C565 O558 1.262 . S
C565 O566 1.232 . S
O566 C565 1.232 . S
C567 O559 1.260 . S
C567 O560 1.257 1_565 S
Zn568 O571 2.031 . S
Zn568 O573 2.049 . S
Zn568 O578 2.067 . S
Zn569 O570 1.962 . S
Zn569 O572 1.986 . S
Zn569 O574 1.996 . S
Zn569 O577 1.943 . S
O570 Zn569 1.962 . S
O570 C575 1.254 . S
O571 Zn568 2.031 . S
O571 C575 1.269 . S
O572 Zn569 1.986 . S
O572 C579 1.262 . S
O573 Zn568 2.049 . S
O573 C581 1.260 . S
O574 Zn569 1.996 . S
O574 C581 1.257 . S
C575 O570 1.254 . S
C575 O571 1.269 . S
C576 O577 1.249 . S
C576 O578 1.270 . S
O577 Zn569 1.943 . S
O577 C576 1.249 . S
O578 Zn568 2.067 . S
O578 C576 1.270 . S
C579 O572 1.262 . S
C579 O580 1.232 . S
O580 C579 1.232 . S
C581 O573 1.260 . S
C581 O574 1.257 . S
Zn582 O585 2.031 . S
Zn582 O587 2.049 . S
Zn582 O592 2.067 . S
Zn583 O584 1.962 . S
Zn583 O586 1.986 . S
Zn583 O588 1.996 . S
Zn583 O591 1.943 . S
O584 Zn583 1.962 . S
O584 C589 1.254 . S
O585 Zn582 2.031 . S
O585 C589 1.269 . S
O586 Zn583 1.986 . S
O586 C593 1.262 . S
O587 Zn582 2.049 . S
O587 C595 1.260 . S
O588 Zn583 1.996 . S
O588 C595 1.257 . S
C589 O584 1.254 . S
C589 O585 1.269 . S
C590 O591 1.249 . S
C590 O592 1.270 . S
O591 Zn583 1.943 . S
O591 C590 1.249 . S
O592 Zn582 2.067 . S
O592 C590 1.270 . S
C593 O586 1.262 . S
C593 O594 1.232 . S
O594 C593 1.232 . S
C595 O587 1.260 . S
C595 O588 1.257 . S
Zn596 O599 2.031 . S
Zn596 O601 2.049 . S
Zn596 O606 2.067 . S
Zn597 O598 1.962 . S
Zn597 O600 1.986 . S
Zn597 O602 1.996 . S
Zn597 O605 1.943 . S
O598 Zn597 1.962 . S
O598 C603 1.254 . S
O599 Zn596 2.031 . S
O599 C603 1.269 . S
O600 Zn597 1.986 . S
O600 C607 1.262 . S
O601 Zn596 2.049 . S
O601 C609 1.260 . S
O602 Zn597 1.996 . S
O602 C609 1.257 . S
C603 O598 1.254 . S
C603 O599 1.269 . S
C604 O605 1.249 . S
C604 O606 1.270 . S
O605 Zn597 1.943 . S
O605 C604 1.249 . S
O606 Zn596 2.067 . S
O606 C604 1.270 . S
C607 O600 1.262 . S
C607 O608 1.232 . S
O608 C607 1.232 . S
C609 O601 1.260 . S
C609 O602 1.257 . S
Zn610 O613 2.031 . S
Zn610 O615 2.049 . S
Zn610 O620 2.067 . S
Zn611 O612 1.962 . S
Zn611 O614 1.986 . S
Zn611 O616 1.996 1_545 S
Zn611 O619 1.943 . S
O612 Zn611 1.962 . S
O612 C617 1.254 . S
O613 Zn610 2.031 . S
O613 C617 1.269 1_565 S
O614 Zn611 1.986 . S
O614 C621 1.262 . S
O615 Zn610 2.049 . S
O615 C623 1.260 . S
O616 Zn611 1.996 1_565 S
O616 C623 1.257 . S
C617 O612 1.254 . S
C617 O613 1.269 1_545 S
C618 O619 1.249 1_565 S
C618 O620 1.270 . S
O619 Zn611 1.943 . S
O619 C618 1.249 1_545 S
O620 Zn610 2.067 . S
O620 C618 1.270 . S
C621 O614 1.262 . S
C621 O622 1.232 . S
O622 C621 1.232 . S
C623 O615 1.260 . S
C623 O616 1.257 . S
Zn624 O627 2.031 . S
Zn624 O629 2.049 1_455 S
Zn624 O634 2.067 1_455 S
Zn625 O626 1.962 . S
Zn625 O628 1.986 . S
Zn625 O630 1.996 . S
Zn625 O633 1.943 1_455 S
O626 Zn625 1.962 . S
O626 C631 1.254 . S
O627 Zn624 2.031 . S
O627 C631 1.269 . S
O628 Zn625 1.986 . S
O628 C635 1.262 . S
O629 Zn624 2.049 1_655 S
O629 C637 1.260 . S
O630 Zn625 1.996 . S
O630 C637 1.257 1_455 S
C631 O626 1.254 . S
C631 O627 1.269 . S
C632 O633 1.249 . S
C632 O634 1.270 . S
O633 Zn625 1.943 1_655 S
O633 C632 1.249 . S
O634 Zn624 2.067 1_655 S
O634 C632 1.270 . S
C635 O628 1.262 . S
C635 O636 1.232 . S
O636 C635 1.232 . S
C637 O629 1.260 . S
C637 O630 1.257 1_655 S
Zn638 O641 2.031 . S
Zn638 O643 2.049 . S
Zn638 O648 2.067 . S
Zn639 O640 1.962 . S
Zn639 O642 1.986 . S
Zn639 O644 1.996 . S
Zn639 O647 1.943 . S
O640 Zn639 1.962 . S
O640 C645 1.254 . S
O641 Zn638 2.031 . S
O641 C645 1.269 . S
O642 Zn639 1.986 . S
O642 C649 1.262 . S
O643 Zn638 2.049 . S
O643 C651 1.260 . S
O644 Zn639 1.996 . S
O644 C651 1.257 . S
C645 O640 1.254 . S
C645 O641 1.269 . S
C646 O647 1.249 . S
C646 O648 1.270 . S
O647 Zn639 1.943 . S
O647 C646 1.249 . S
O648 Zn638 2.067 . S
O648 C646 1.270 . S
C649 O642 1.262 . S
C649 O650 1.232 . S
O650 C649 1.232 . S
C651 O643 1.260 . S
C651 O644 1.257 . S
Zn652 O655 2.031 . S
Zn652 O657 2.049 . S
Zn652 O662 2.067 . S
Zn653 O654 1.962 . S
Zn653 O656 1.986 . S
Zn653 O658 1.996 1_455 S
Zn653 O661 1.943 . S
O654 Zn653 1.962 . S
O654 C659 1.254 . S
O655 Zn652 2.031 . S
O655 C659 1.269 1_655 S
O656 Zn653 1.986 . S
O656 C663 1.262 . S
O657 Zn652 2.049 . S
O657 C665 1.260 . S
O658 Zn653 1.996 1_655 S
O658 C665 1.257 . S
C659 O654 1.254 . S
C659 O655 1.269 1_455 S
C660 O661 1.249 1_655 S
C660 O662 1.270 . S
O661 Zn653 1.943 . S
O661 C660 1.249 1_455 S
O662 Zn652 2.067 . S
O662 C660 1.270 . S
C663 O656 1.262 . S
C663 O664 1.232 . S
O664 C663 1.232 . S
C665 O657 1.260 . S
C665 O658 1.257 . S
Zn666 O669 2.031 . S
Zn666 O671 2.049 . S
Zn666 O676 2.067 . S
Zn667 O668 1.962 . S
Zn667 O670 1.986 . S
Zn667 O672 1.996 . S
Zn667 O675 1.943 . S
O668 Zn667 1.962 . S
O668 C673 1.254 . S
O669 Zn666 2.031 . S
O669 C673 1.269 . S
O670 Zn667 1.986 . S
O670 C677 1.262 . S
O671 Zn666 2.049 . S
O671 C679 1.260 . S
O672 Zn667 1.996 . S
O672 C679 1.257 . S
C673 O668 1.254 . S
C673 O669 1.269 . S
C674 O675 1.249 . S
C674 O676 1.270 . S
O675 Zn667 1.943 . S
O675 C674 1.249 . S
O676 Zn666 2.067 . S
O676 C674 1.270 . S
C677 O670 1.262 . S
C677 O678 1.232 . S
O678 C677 1.232 . S
C679 O671 1.260 . S
C679 O672 1.257 . S
C680 C681 1.349 . S
C680 C682 1.327 . S
C680 H705 0.950 . S
C681 C680 1.349 . S
C681 C697 1.349 . S
C682 C680 1.327 . S
C682 C701 1.429 . S
C682 H706 0.950 . S
C683 C700 1.574 . S
C683 C702 1.368 . S
C683 H707 0.949 . S
H684 C688 0.949 . S
C685 C686 1.349 . S
C685 C687 1.327 . S
C685 H708 0.950 . S
C686 C685 1.349 . S
C686 C698 1.349 . S
C687 C685 1.327 . S
C687 C703 1.429 . S
C687 H709 0.950 . S
C688 H684 0.949 . S
C688 C696 1.574 . S
C688 C704 1.368 . S
H689 C697 0.950 . S
H690 C695 0.950 . S
H691 C696 0.949 . S
H692 C698 0.950 . S
H693 C699 0.950 . S
H694 C700 0.949 . S
C695 H690 0.950 . S
C695 C697 1.327 . S
C695 C701 1.429 . S
C696 C688 1.574 . S
C696 H691 0.949 . S
C696 C702 1.368 . S
C697 C681 1.349 . S
C697 H689 0.950 . S
C697 C695 1.327 . S
C698 C686 1.349 . S
C698 H692 0.950 . S
C698 C699 1.327 . S
C699 H693 0.950 . S
C699 C698 1.327 . S
C699 C703 1.429 . S
C700 C683 1.574 . S
C700 H694 0.949 . S
C700 C704 1.368 . S
C701 C682 1.429 . S
C701 C695 1.429 . S
C701 C702 1.523 . S
C702 C683 1.368 . S
C702 C696 1.368 . S
C702 C701 1.523 . S
C703 C687 1.429 . S
C703 C699 1.429 . S
C703 C704 1.523 . S
C704 C688 1.368 . S
C704 C700 1.368 . S
C704 C703 1.523 . S
H705 C680 0.950 . S
H706 C682 0.950 . S
H707 C683 0.949 . S
H708 C685 0.950 . S
H709 C687 0.950 . S
C710 C711 1.372 . S
C710 C712 1.327 . S
C710 H735 0.950 . S
C711 C710 1.372 . S
C711 C727 1.348 1_455 S
C712 C710 1.327 . S
C712 C731 1.429 . S
C712 H736 0.950 . S
C713 C730 1.574 . S
C713 C732 1.368 . S
C713 H737 0.949 . S
H714 C718 0.949 . S
C715 C716 1.349 . S
C715 C717 1.327 . S
C715 H738 0.950 . S
C716 C715 1.349 . S
C716 C728 1.349 . S
C717 C715 1.327 . S
C717 C733 1.429 . S
C717 H739 0.950 . S
C718 H714 0.949 . S
C718 C726 1.574 . S
C718 C734 1.368 . S
H719 C727 0.994 . S
H720 C725 0.950 . S
H721 C726 0.949 . S
H722 C728 0.950 . S
H723 C729 0.950 . S
H724 C730 0.949 . S
C725 H720 0.950 . S
C725 C727 1.288 1_455 S
C725 C731 1.429 . S
C726 C718 1.574 . S
C726 H721 0.949 . S
C726 C732 1.368 . S
C727 C711 1.348 1_655 S
C727 H719 0.994 . S
C727 C725 1.288 1_655 S
C728 C716 1.349 . S
C728 H722 0.950 . S
C728 C729 1.327 . S
C729 H723 0.950 . S
C729 C728 1.327 . S
C729 C733 1.429 . S
C730 C713 1.574 . S
C730 H724 0.949 . S
C730 C734 1.368 . S
C731 C712 1.429 . S
C731 C725 1.429 . S
C731 C732 1.523 . S
C732 C713 1.368 . S
C732 C726 1.368 . S
C732 C731 1.523 . S
C733 C717 1.429 . S
C733 C729 1.429 . S
C733 C734 1.523 . S
C734 C718 1.368 . S
C734 C730 1.368 . S
C734 C733 1.523 . S
H735 C710 0.950 . S
H736 C712 0.950 . S
H737 C713 0.949 . S
H738 C715 0.950 . S
H739 C717 0.950 . S
C740 C741 1.349 . S
C740 C742 1.327 . S
C740 H765 0.950 . S
C741 C740 1.349 . S
C741 C757 1.349 . S
C742 C740 1.327 . S
C742 C761 1.429 . S
C742 H766 0.950 . S
C743 C760 1.574 . S
C743 C762 1.368 . S
C743 H767 0.949 . S
H744 C748 0.949 . S
C745 C746 1.349 . S
C745 C747 1.327 . S
C745 H768 0.950 . S
C746 C745 1.349 . S
C746 C758 1.349 . S
C747 C745 1.327 . S
C747 C763 1.429 . S
C747 H769 0.950 . S
C748 H744 0.949 . S
C748 C756 1.574 . S
C748 C764 1.368 . S
H749 C757 0.950 . S
H750 C755 0.950 . S
H751 C756 0.949 . S
H752 C758 0.950 . S
H753 C759 0.950 . S
H754 C760 0.949 . S
C755 H750 0.950 . S
C755 C757 1.327 . S
C755 C761 1.429 . S
C756 C748 1.574 . S
C756 H751 0.949 . S
C756 C762 1.368 . S
C757 C741 1.349 . S
C757 H749 0.950 . S
C757 C755 1.327 . S
C758 C746 1.349 . S
C758 H752 0.950 . S
C758 C759 1.327 . S
C759 H753 0.950 . S
C759 C758 1.327 . S
C759 C763 1.429 . S
C760 C743 1.574 . S
C760 H754 0.949 . S
C760 C764 1.368 . S
C761 C742 1.429 . S
C761 C755 1.429 . S
C761 C762 1.523 . S
C762 C743 1.368 . S
C762 C756 1.368 . S
C762 C761 1.523 . S
C763 C747 1.429 . S
C763 C759 1.429 . S
C763 C764 1.523 . S
C764 C748 1.368 . S
C764 C760 1.368 . S
C764 C763 1.523 . S
H765 C740 0.950 . S
H766 C742 0.950 . S
H767 C743 0.949 . S
H768 C745 0.950 . S
H769 C747 0.950 . S
C770 C771 1.349 1_655 S
C770 C772 1.327 . S
C770 H795 0.950 . S
C771 C770 1.349 1_455 S
C771 C787 1.349 . S
C772 C770 1.327 . S
C772 C791 1.429 . S
C772 H796 0.950 . S
C773 C790 1.574 . S
C773 C792 1.368 . S
C773 H797 0.949 . S
H774 C778 0.949 . S
C775 C776 1.349 1_545 S
C775 C777 1.327 . S
C775 H798 0.950 . S
C776 C775 1.349 1_565 S
C776 C788 1.349 . S
C777 C775 1.327 . S
C777 C793 1.429 1_545 S
C777 H799 0.950 . S
C778 H774 0.949 . S
C778 C786 1.574 . S
C778 C794 1.368 . S
H779 C787 0.950 . S
H780 C785 0.950 . S
H781 C786 0.949 . S
H782 C788 0.950 . S
H783 C789 0.950 . S
H784 C790 0.949 1_545 S
C785 H780 0.950 . S
C785 C787 1.327 1_655 S
C785 C791 1.429 . S
C786 C778 1.574 . S
C786 H781 0.949 . S
C786 C792 1.368 . S
C787 C771 1.349 . S
C787 H779 0.950 . S
C787 C785 1.327 1_455 S
C788 C776 1.349 . S
C788 H782 0.950 . S
C788 C789 1.327 . S
C789 H783 0.950 . S
C789 C788 1.327 . S
C789 C793 1.429 . S
C790 C773 1.574 . S
C790 H784 0.949 1_565 S
C790 C794 1.368 . S
C791 C772 1.429 . S
C791 C785 1.429 . S
C791 C792 1.523 . S
C792 C773 1.368 . S
C792 C786 1.368 . S
C792 C791 1.523 . S
C793 C777 1.429 1_565 S
C793 C789 1.429 . S
C793 C794 1.523 . S
C794 C778 1.368 . S
C794 C790 1.368 . S
C794 C793 1.523 . S
H795 C770 0.950 . S
H796 C772 0.950 . S
H797 C773 0.949 . S
H798 C775 0.950 . S
H799 C777 0.950 . S
C800 C801 1.349 . S
C800 C802 1.327 . S
C800 H825 0.950 . S
C801 C800 1.349 . S
C801 C817 1.349 . S
C802 C800 1.327 . S
C802 C821 1.429 . S
C802 H826 0.950 . S
C803 C820 1.574 . S
C803 C822 1.368 . S
C803 H827 0.949 . S
H804 C808 0.949 . S
C805 C806 1.349 . S
C805 C807 1.327 . S
C805 H828 0.950 . S
C806 C805 1.349 . S
C806 C818 1.349 . S
C807 C805 1.327 . S
C807 C823 1.429 . S
C807 H829 0.950 . S
C808 H804 0.949 . S
C808 C816 1.574 . S
C808 C824 1.368 . S
H809 C817 0.950 . S
H810 C815 0.950 . S
H811 C816 0.949 . S
H812 C818 0.950 . S
H813 C819 0.950 . S
H814 C820 0.949 . S
C815 H810 0.950 . S
C815 C817 1.327 . S
C815 C821 1.429 . S
C816 C808 1.574 . S
C816 H811 0.949 . S
C816 C822 1.368 . S
C817 C801 1.349 . S
C817 H809 0.950 . S
C817 C815 1.327 . S
C818 C806 1.349 . S
C818 H812 0.950 . S
C818 C819 1.327 . S
C819 H813 0.950 . S
C819 C818 1.327 . S
C819 C823 1.429 . S
C820 C803 1.574 . S
C820 H814 0.949 . S
C820 C824 1.368 . S
C821 C802 1.429 . S
C821 C815 1.429 . S
C821 C822 1.523 . S
C822 C803 1.368 . S
C822 C816 1.368 . S
C822 C821 1.523 . S
C823 C807 1.429 . S
C823 C819 1.429 . S
C823 C824 1.523 . S
C824 C808 1.368 . S
C824 C820 1.368 . S
C824 C823 1.523 . S
H825 C800 0.950 . S
H826 C802 0.950 . S
H827 C803 0.949 . S
H828 C805 0.950 . S
H829 C807 0.950 . S
C830 C831 1.349 . S
C830 C832 1.327 . S
C830 H855 0.950 . S
C831 C830 1.349 . S
C831 C847 1.349 . S
C832 C830 1.327 . S
C832 C851 1.429 . S
C832 H856 0.950 . S
C833 C850 1.574 . S
C833 C852 1.368 . S
C833 H857 0.949 . S
H834 C838 0.949 . S
C835 C836 1.349 . S
C835 C837 1.327 . S
C835 H858 0.950 . S
C836 C835 1.349 . S
C836 C848 1.349 . S
C837 C835 1.327 . S
C837 C853 1.429 . S
C837 H859 0.950 . S
C838 H834 0.949 . S
C838 C846 1.574 . S
C838 C854 1.368 . S
H839 C847 0.950 . S
H840 C845 0.950 . S
H841 C846 0.949 . S
H842 C848 0.950 . S
H843 C849 0.950 . S
H844 C850 0.949 . S
C845 H840 0.950 . S
C845 C847 1.327 . S
C845 C851 1.429 . S
C846 C838 1.574 . S
C846 H841 0.949 . S
C846 C852 1.368 . S
C847 C831 1.349 . S
C847 H839 0.950 . S
C847 C845 1.327 . S
C848 C836 1.349 . S
C848 H842 0.950 . S
C848 C849 1.327 . S
C849 H843 0.950 . S
C849 C848 1.327 . S
C849 C853 1.429 . S
C850 C833 1.574 . S
C850 H844 0.949 . S
C850 C854 1.368 . S
C851 C832 1.429 . S
C851 C845 1.429 . S
C851 C852 1.523 . S
C852 C833 1.368 . S
C852 C846 1.368 . S
C852 C851 1.523 . S
C853 C837 1.429 . S
C853 C849 1.429 . S
C853 C854 1.523 . S
C854 C838 1.368 . S
C854 C850 1.368 . S
C854 C853 1.523 . S
H855 C830 0.950 . S
H856 C832 0.950 . S
H857 C833 0.949 . S
H858 C835 0.950 . S
H859 C837 0.950 . S
C860 C861 1.349 . S
C860 C862 1.327 . S
C860 H885 0.950 . S
C861 C860 1.349 . S
C861 C877 1.349 . S
C862 C860 1.327 . S
C862 C881 1.429 . S
C862 H886 0.950 . S
C863 C880 1.574 . S
C863 C882 1.368 . S
C863 H887 0.949 . S
H864 C868 0.949 . S
C865 C866 1.349 . S
C865 C867 1.327 . S
C865 H888 0.950 . S
C866 C865 1.349 . S
C866 C878 1.349 . S
C867 C865 1.327 . S
C867 C883 1.429 . S
C867 H889 0.950 . S
C868 H864 0.949 . S
C868 C876 1.574 . S
C868 C884 1.368 . S
H869 C877 0.950 . S
H870 C875 0.950 . S
H871 C876 0.949 . S
H872 C878 0.950 . S
H873 C879 0.950 . S
H874 C880 0.949 . S
C875 H870 0.950 . S
C875 C877 1.327 . S
C875 C881 1.429 . S
C876 C868 1.574 . S
C876 H871 0.949 . S
C876 C882 1.368 . S
C877 C861 1.349 . S
C877 H869 0.950 . S
C877 C875 1.327 . S
C878 C866 1.349 . S
C878 H872 0.950 . S
C878 C879 1.327 . S
C879 H873 0.950 . S
C879 C878 1.327 . S
C879 C883 1.429 . S
C880 C863 1.574 . S
C880 H874 0.949 . S
C880 C884 1.368 . S
C881 C862 1.429 . S
C881 C875 1.429 . S
C881 C882 1.523 . S
C882 C863 1.368 . S
C882 C876 1.368 . S
C882 C881 1.523 . S
C883 C867 1.429 . S
C883 C879 1.429 . S
C883 C884 1.523 . S
C884 C868 1.368 . S
C884 C880 1.368 . S
C884 C883 1.523 . S
H885 C860 0.950 . S
H886 C862 0.950 . S
H887 C863 0.949 . S
H888 C865 0.950 . S
H889 C867 0.950 . S
C890 C891 1.349 . S
C890 C892 1.327 . S
C890 H915 0.950 . S
C891 C890 1.349 . S
C891 C907 1.349 . S
C892 C890 1.327 . S
C892 C911 1.429 . S
C892 H916 0.950 . S
C893 C910 1.574 . S
C893 C912 1.368 . S
C893 H917 0.949 . S
H894 C898 0.949 1_545 S
C895 C896 1.349 . S
C895 C897 1.327 . S
C895 H918 0.950 . S
C896 C895 1.349 . S
C896 C908 1.349 1_565 S
C897 C895 1.327 . S
C897 C913 1.429 . S
C897 H919 0.950 . S
C898 H894 0.949 1_565 S
C898 C906 1.574 . S
C898 C914 1.368 . S
H899 C907 0.950 . S
H900 C905 0.950 . S
H901 C906 0.951 . S
H902 C908 0.950 . S
H903 C909 0.950 . S
H904 C910 0.949 . S
C905 H900 0.950 . S
C905 C907 1.327 . S
C905 C911 1.429 . S
C906 C898 1.574 . S
C906 H901 0.951 . S
C906 C912 1.368 . S
C907 C891 1.349 . S
C907 H899 0.950 . S
C907 C905 1.327 . S
C908 C896 1.349 1_545 S
C908 H902 0.950 . S
C908 C909 1.327 . S
C909 H903 0.950 . S
C909 C908 1.327 . S
C909 C913 1.429 1_545 S
C910 C893 1.574 . S
C910 H904 0.949 . S
C910 C914 1.368 . S
C911 C892 1.429 . S
C911 C905 1.429 . S
C911 C912 1.523 . S
C912 C893 1.368 . S
C912 C906 1.368 . S
C912 C911 1.523 . S
C913 C897 1.429 . S
C913 C909 1.429 1_565 S
C913 C914 1.523 . S
C914 C898 1.368 . S
C914 C910 1.368 . S
C914 C913 1.523 . S
H915 C890 0.950 . S
H916 C892 0.950 . S
H917 C893 0.949 . S
H918 C895 0.950 . S
H919 C897 0.950 . S
C920 C921 1.349 . S
C920 C922 1.327 . S
C920 H945 0.950 . S
C921 C920 1.349 . S
C921 C937 1.349 . S
C922 C920 1.327 . S
C922 C941 1.429 . S
C922 H946 0.950 . S
C923 C940 1.574 . S
C923 C942 1.368 . S
C923 H947 0.949 . S
H924 C928 0.949 . S
C925 C926 1.349 . S
C925 C927 1.327 . S
C925 H948 0.950 . S
C926 C925 1.349 . S
C926 C938 1.349 . S
C927 C925 1.327 . S
C927 C943 1.429 . S
C927 H949 0.950 . S
C928 H924 0.949 . S
C928 C936 1.574 . S
C928 C944 1.368 . S
H929 C937 0.950 . S
H930 C935 0.950 . S
H931 C936 0.949 . S
H932 C938 0.950 . S
H933 C939 0.950 . S
H934 C940 0.949 . S
C935 H930 0.950 . S
C935 C937 1.327 . S
C935 C941 1.429 . S
C936 C928 1.574 . S
C936 H931 0.949 . S
C936 C942 1.368 . S
C937 C921 1.349 . S
C937 H929 0.950 . S
C937 C935 1.327 . S
C938 C926 1.349 . S
C938 H932 0.950 . S
C938 C939 1.327 . S
C939 H933 0.950 . S
C939 C938 1.327 . S
C939 C943 1.429 . S
C940 C923 1.574 . S
C940 H934 0.949 . S
C940 C944 1.368 . S
C941 C922 1.429 . S
C941 C935 1.429 . S
C941 C942 1.523 . S
C942 C923 1.368 . S
C942 C936 1.368 . S
C942 C941 1.523 . S
C943 C927 1.429 . S
C943 C939 1.429 . S
C943 C944 1.523 . S
C944 C928 1.368 . S
C944 C940 1.368 . S
C944 C943 1.523 . S
H945 C920 0.950 . S
H946 C922 0.950 . S
H947 C923 0.949 . S
H948 C925 0.950 . S
H949 C927 0.950 . S
C950 C951 1.349 . S
C950 C952 1.327 . S
C950 H975 0.950 . S
C951 C950 1.349 . S
C951 C967 1.349 . S
C952 C950 1.327 . S
C952 C971 1.429 . S
C952 H976 0.950 . S
C953 C970 1.574 . S
C953 C972 1.368 . S
C953 H977 0.949 . S
H954 C958 0.949 . S
C955 C956 1.349 . S
C955 C957 1.327 . S
C955 H978 0.950 . S
C956 C955 1.349 . S
C956 C968 1.349 . S
C957 C955 1.327 . S
C957 C973 1.429 . S
C957 H979 0.950 . S
C958 H954 0.949 . S
C958 C966 1.574 . S
C958 C974 1.368 . S
H959 C967 0.950 . S
H960 C965 0.950 . S
H961 C966 0.949 . S
H962 C968 0.950 . S
H963 C969 0.950 . S
H964 C970 0.949 . S
C965 H960 0.950 . S
C965 C967 1.327 . S
C965 C971 1.429 . S
C966 C958 1.574 . S
C966 H961 0.949 . S
C966 C972 1.368 . S
C967 C951 1.349 . S
C967 H959 0.950 . S
C967 C965 1.327 . S
C968 C956 1.349 . S
C968 H962 0.950 . S
C968 C969 1.327 . S
C969 H963 0.950 . S
C969 C968 1.327 . S
C969 C973 1.429 . S
C970 C953 1.574 . S
C970 H964 0.949 . S
C970 C974 1.368 . S
C971 C952 1.429 . S
C971 C965 1.429 . S
C971 C972 1.523 . S
C972 C953 1.368 . S
C972 C966 1.368 . S
C972 C971 1.523 . S
C973 C957 1.429 . S
C973 C969 1.429 . S
C973 C974 1.523 . S
C974 C958 1.368 . S
C974 C970 1.368 . S
C974 C973 1.523 . S
H975 C950 0.950 . S
H976 C952 0.950 . S
H977 C953 0.949 . S
H978 C955 0.950 . S
H979 C957 0.950 . S
C980 C981 1.349 . S
C980 C982 1.327 . S
C980 H1005 0.950 . S
C981 C980 1.349 . S
C981 C997 1.349 . S
C982 C980 1.327 . S
C982 C1001 1.429 . S
C982 H1006 0.950 . S
C983 C1000 1.574 . S
C983 C1002 1.368 . S
C983 H1007 0.949 . S
H984 C988 0.949 . S
C985 C986 1.349 . S
C985 C987 1.327 . S
C985 H1008 0.950 . S
C986 C985 1.349 . S
C986 C998 1.349 . S
C987 C985 1.327 . S
C987 C1003 1.429 . S
C987 H1009 0.950 . S
C988 H984 0.949 . S
C988 C996 1.574 . S
C988 C1004 1.368 . S
H989 C997 0.950 . S
H990 C995 0.950 . S
H991 C996 0.949 . S
H992 C998 0.950 . S
H993 C999 0.950 . S
H994 C1000 0.949 . S
C995 H990 0.950 . S
C995 C997 1.327 . S
C995 C1001 1.429 . S
C996 C988 1.574 . S
C996 H991 0.949 . S
C996 C1002 1.368 . S
C997 C981 1.349 . S
C997 H989 0.950 . S
C997 C995 1.327 . S
C998 C986 1.349 . S
C998 H992 0.950 . S
C998 C999 1.327 . S
C999 H993 0.950 . S
C999 C998 1.327 . S
C999 C1003 1.429 . S
C1000 C983 1.574 . S
C1000 H994 0.949 . S
C1000 C1004 1.368 . S
C1001 C982 1.429 . S
C1001 C995 1.429 . S
C1001 C1002 1.523 . S
C1002 C983 1.368 . S
C1002 C996 1.368 . S
C1002 C1001 1.523 . S
C1003 C987 1.429 . S
C1003 C999 1.429 . S
C1003 C1004 1.523 . S
C1004 C988 1.368 . S
C1004 C1000 1.368 . S
C1004 C1003 1.523 . S
H1005 C980 0.950 . S
H1006 C982 0.950 . S
H1007 C983 0.949 . S
H1008 C985 0.950 . S
H1009 C987 0.950 . S
C1010 C1011 1.349 . S
C1010 C1012 1.327 . S
C1010 H1035 0.950 . S
C1011 C1010 1.349 . S
C1011 C1027 1.349 . S
C1012 C1010 1.327 . S
C1012 C1031 1.429 . S
C1012 H1036 0.950 . S
C1013 C1030 1.574 . S
C1013 C1032 1.368 . S
C1013 H1037 0.949 . S
H1014 C1018 0.949 . S
C1015 C1016 1.349 . S
C1015 C1017 1.327 . S
C1015 H1038 0.950 . S
C1016 C1015 1.349 . S
C1016 C1028 1.349 . S
C1017 C1015 1.327 . S
C1017 C1033 1.429 . S
C1017 H1039 0.950 . S
C1018 H1014 0.949 . S
C1018 C1026 1.574 . S
C1018 C1034 1.368 . S
H1019 C1027 0.950 . S
H1020 C1025 0.950 . S
H1021 C1026 0.949 . S
H1022 C1028 0.950 . S
H1023 C1029 0.950 . S
H1024 C1030 0.949 . S
C1025 H1020 0.950 . S
C1025 C1027 1.327 . S
C1025 C1031 1.429 . S
C1026 C1018 1.574 . S
C1026 H1021 0.949 . S
C1026 C1032 1.368 . S
C1027 C1011 1.349 . S
C1027 H1019 0.950 . S
C1027 C1025 1.327 . S
C1028 C1016 1.349 . S
C1028 H1022 0.950 . S
C1028 C1029 1.327 . S
C1029 H1023 0.950 . S
C1029 C1028 1.327 . S
C1029 C1033 1.429 . S
C1030 C1013 1.574 . S
C1030 H1024 0.949 . S
C1030 C1034 1.368 . S
C1031 C1012 1.429 . S
C1031 C1025 1.429 . S
C1031 C1032 1.523 . S
C1032 C1013 1.368 . S
C1032 C1026 1.368 . S
C1032 C1031 1.523 . S
C1033 C1017 1.429 . S
C1033 C1029 1.429 . S
C1033 C1034 1.523 . S
C1034 C1018 1.368 . S
C1034 C1030 1.368 . S
C1034 C1033 1.523 . S
H1035 C1010 0.950 . S
H1036 C1012 0.950 . S
H1037 C1013 0.949 . S
H1038 C1015 0.950 . S
H1039 C1017 0.950 . S
C1040 C1041 1.349 . S
C1040 C1042 1.327 . S
C1040 H1065 0.950 . S
C1041 C1040 1.349 . S
C1041 C1057 1.349 . S
C1042 C1040 1.327 . S
C1042 C1061 1.429 . S
C1042 H1066 0.950 . S
C1043 C1060 1.574 . S
C1043 C1062 1.368 . S
C1043 H1067 0.949 . S
H1044 C1048 0.949 . S
C1045 C1046 1.349 . S
C1045 C1047 1.327 . S
C1045 H1068 0.950 . S
C1046 C1045 1.349 . S
C1046 C1058 1.349 . S
C1047 C1045 1.327 . S
C1047 C1063 1.429 . S
C1047 H1069 0.950 . S
C1048 H1044 0.949 . S
C1048 C1056 1.574 . S
C1048 C1064 1.368 . S
H1049 C1057 0.950 . S
H1050 C1055 0.950 . S
H1051 C1056 0.949 . S
H1052 C1058 0.950 . S
H1053 C1059 0.950 . S
H1054 C1060 0.949 . S
C1055 H1050 0.950 . S
C1055 C1057 1.327 . S
C1055 C1061 1.429 . S
C1056 C1048 1.574 . S
C1056 H1051 0.949 . S
C1056 C1062 1.368 . S
C1057 C1041 1.349 . S
C1057 H1049 0.950 . S
C1057 C1055 1.327 . S
C1058 C1046 1.349 . S
C1058 H1052 0.950 . S
C1058 C1059 1.327 . S
C1059 H1053 0.950 . S
C1059 C1058 1.327 . S
C1059 C1063 1.429 . S
C1060 C1043 1.574 . S
C1060 H1054 0.949 . S
C1060 C1064 1.368 . S
C1061 C1042 1.429 . S
C1061 C1055 1.429 . S
C1061 C1062 1.523 . S
C1062 C1043 1.368 . S
C1062 C1056 1.368 . S
C1062 C1061 1.523 . S
C1063 C1047 1.429 . S
C1063 C1059 1.429 . S
C1063 C1064 1.523 . S
C1064 C1048 1.368 . S
C1064 C1060 1.368 . S
C1064 C1063 1.523 . S
H1065 C1040 0.950 . S
H1066 C1042 0.950 . S
H1067 C1043 0.949 . S
H1068 C1045 0.950 . S
H1069 C1047 0.950 . S
C1070 C1071 1.349 . S
C1070 C1072 1.327 . S
C1070 H1095 0.950 . S
C1071 C1070 1.349 . S
C1071 C1087 1.349 . S
C1072 C1070 1.327 . S
C1072 C1091 1.429 . S
C1072 H1096 0.950 . S
C1073 C1090 1.574 . S
C1073 C1092 1.368 . S
C1073 H1097 0.949 . S
H1074 C1078 0.949 . S
C1075 C1076 1.349 . S
C1075 C1077 1.327 . S
C1075 H1098 0.950 1_455 S
C1076 C1075 1.349 . S
C1076 C1088 1.349 . S
C1077 C1075 1.327 . S
C1077 C1093 1.429 . S
C1077 H1099 0.950 . S
C1078 H1074 0.949 . S
C1078 C1086 1.574 . S
C1078 C1094 1.368 . S
H1079 C1087 0.950 . S
H1080 C1085 0.950 . S
H1081 C1086 0.949 . S
H1082 C1088 0.950 . S
H1083 C1089 0.950 . S
H1084 C1090 0.949 . S
C1085 H1080 0.950 . S
C1085 C1087 1.327 . S
C1085 C1091 1.429 . S
C1086 C1078 1.574 . S
C1086 H1081 0.949 . S
C1086 C1092 1.368 . S
C1087 C1071 1.349 . S
C1087 H1079 0.950 . S
C1087 C1085 1.327 . S
C1088 C1076 1.349 . S
C1088 H1082 0.950 . S
C1088 C1089 1.327 . S
C1089 H1083 0.950 . S
C1089 C1088 1.327 . S
C1089 C1093 1.429 . S
C1090 C1073 1.574 . S
C1090 H1084 0.949 . S
C1090 C1094 1.368 . S
C1091 C1072 1.429 . S
C1091 C1085 1.429 . S
C1091 C1092 1.523 . S
C1092 C1073 1.368 . S
C1092 C1086 1.368 . S
C1092 C1091 1.523 . S
C1093 C1077 1.429 . S
C1093 C1089 1.429 . S
C1093 C1094 1.523 . S
C1094 C1078 1.368 . S
C1094 C1090 1.368 . S
C1094 C1093 1.523 . S
H1095 C1070 0.950 . S
H1096 C1072 0.950 . S
H1097 C1073 0.949 . S
H1098 C1075 0.950 1_655 S
H1099 C1077 0.950 . S
C1100 C1101 1.349 . S
C1100 C1102 1.327 . S
C1100 H1125 0.950 . S
C1101 C1100 1.349 . S
C1101 C1117 1.349 . S
C1102 C1100 1.327 . S
C1102 C1121 1.429 . S
C1102 H1126 0.950 . S
C1103 C1120 1.574 . S
C1103 C1122 1.368 . S
C1103 H1127 0.949 . S
H1104 C1108 0.949 . S
C1105 C1106 1.349 . S
C1105 C1107 1.327 . S
C1105 H1128 0.950 . S
C1106 C1105 1.349 . S
C1106 C1118 1.349 . S
C1107 C1105 1.327 . S
C1107 C1123 1.429 . S
C1107 H1129 0.950 . S
C1108 H1104 0.949 . S
C1108 C1116 1.574 . S
C1108 C1124 1.368 . S
H1109 C1117 0.950 . S
H1110 C1115 0.950 . S
H1111 C1116 0.949 . S
H1112 C1118 0.950 . S
H1113 C1119 0.950 . S
H1114 C1120 0.949 . S
C1115 H1110 0.950 . S
C1115 C1117 1.327 . S
C1115 C1121 1.429 . S
C1116 C1108 1.574 . S
C1116 H1111 0.949 . S
C1116 C1122 1.368 . S
C1117 C1101 1.349 . S
C1117 H1109 0.950 . S
C1117 C1115 1.327 . S
C1118 C1106 1.349 . S
C1118 H1112 0.950 . S
C1118 C1119 1.327 . S
C1119 H1113 0.950 . S
C1119 C1118 1.327 . S
C1119 C1123 1.429 . S
C1120 C1103 1.574 . S
C1120 H1114 0.949 . S
C1120 C1124 1.368 . S
C1121 C1102 1.429 . S
C1121 C1115 1.429 . S
C1121 C1122 1.523 . S
C1122 C1103 1.368 . S
C1122 C1116 1.368 . S
C1122 C1121 1.523 . S
C1123 C1107 1.429 . S
C1123 C1119 1.429 . S
C1123 C1124 1.523 . S
C1124 C1108 1.368 . S
C1124 C1120 1.368 . S
C1124 C1123 1.523 . S
H1125 C1100 0.950 . S
H1126 C1102 0.950 . S
H1127 C1103 0.949 . S
H1128 C1105 0.950 . S
H1129 C1107 0.950 . S
C1130 C1131 1.349 . S
C1130 C1132 1.327 . S
C1130 H1155 0.950 . S
C1131 C1130 1.349 . S
C1131 C1147 1.349 . S
C1132 C1130 1.327 . S
C1132 C1151 1.429 . S
C1132 H1156 0.950 . S
C1133 C1150 1.574 . S
C1133 C1152 1.368 . S
C1133 H1157 0.949 . S
H1134 C1138 0.949 . S
C1135 C1136 1.349 1_455 S
C1135 C1137 1.327 . S
C1135 H1158 0.950 . S
C1136 C1135 1.349 1_655 S
C1136 C1148 1.349 . S
C1137 C1135 1.327 . S
C1137 C1153 1.429 1_455 S
C1137 H1159 0.950 . S
C1138 H1134 0.949 . S
C1138 C1146 1.574 . S
C1138 C1154 1.368 . S
H1139 C1147 0.950 . S
H1140 C1145 0.950 . S
H1141 C1146 0.949 . S
H1142 C1148 0.950 . S
H1143 C1149 0.950 . S
H1144 C1150 0.949 1_455 S
C1145 H1140 0.950 . S
C1145 C1147 1.327 . S
C1145 C1151 1.429 . S
C1146 C1138 1.574 . S
C1146 H1141 0.949 . S
C1146 C1152 1.368 . S
C1147 C1131 1.349 . S
C1147 H1139 0.950 . S
C1147 C1145 1.327 . S
C1148 C1136 1.349 . S
C1148 H1142 0.950 . S
C1148 C1149 1.327 . S
C1149 H1143 0.950 . S
C1149 C1148 1.327 . S
C1149 C1153 1.429 . S
C1150 C1133 1.574 . S
C1150 H1144 0.949 1_655 S
C1150 C1154 1.368 . S
C1151 C1132 1.429 . S
C1151 C1145 1.429 . S
C1151 C1152 1.523 . S
C1152 C1133 1.368 . S
C1152 C1146 1.368 . S
C1152 C1151 1.523 . S
C1153 C1137 1.429 1_655 S
C1153 C1149 1.429 . S
C1153 C1154 1.523 . S
C1154 C1138 1.368 . S
C1154 C1150 1.368 . S
C1154 C1153 1.523 . S
H1155 C1130 0.950 . S
H1156 C1132 0.950 . S
H1157 C1133 0.949 . S
H1158 C1135 0.950 . S
H1159 C1137 0.950 . S
C1160 C1161 1.349 . S
C1160 C1162 1.327 . S
C1160 H1185 0.950 . S
C1161 C1160 1.349 . S
C1161 C1177 1.349 . S
C1162 C1160 1.327 . S
C1162 C1181 1.429 . S
C1162 H1186 0.950 . S
C1163 C1180 1.574 . S
C1163 C1182 1.368 . S
C1163 H1187 0.949 . S
H1164 C1168 0.949 . S
C1165 C1166 1.349 . S
C1165 C1167 1.327 . S
C1165 H1188 0.950 . S
C1166 C1165 1.349 . S
C1166 C1178 1.349 . S
C1167 C1165 1.327 . S
C1167 C1183 1.429 . S
C1167 H1189 0.950 . S
C1168 H1164 0.949 . S
C1168 C1176 1.574 . S
C1168 C1184 1.368 . S
H1169 C1177 0.950 . S
H1170 C1175 0.950 . S
H1171 C1176 0.949 . S
H1172 C1178 0.950 . S
H1173 C1179 0.950 . S
H1174 C1180 0.949 . S
C1175 H1170 0.950 . S
C1175 C1177 1.327 . S
C1175 C1181 1.429 . S
C1176 C1168 1.574 . S
C1176 H1171 0.949 . S
C1176 C1182 1.368 . S
C1177 C1161 1.349 . S
C1177 H1169 0.950 . S
C1177 C1175 1.327 . S
C1178 C1166 1.349 . S
C1178 H1172 0.950 . S
C1178 C1179 1.327 . S
C1179 H1173 0.950 . S
C1179 C1178 1.327 . S
C1179 C1183 1.429 . S
C1180 C1163 1.574 . S
C1180 H1174 0.949 . S
C1180 C1184 1.368 . S
C1181 C1162 1.429 . S
C1181 C1175 1.429 . S
C1181 C1182 1.523 . S
C1182 C1163 1.368 . S
C1182 C1176 1.368 . S
C1182 C1181 1.523 . S
C1183 C1167 1.429 . S
C1183 C1179 1.429 . S
C1183 C1184 1.523 . S
C1184 C1168 1.368 . S
C1184 C1180 1.368 . S
C1184 C1183 1.523 . S
H1185 C1160 0.950 . S
H1186 C1162 0.950 . S
H1187 C1163 0.949 . S
H1188 C1165 0.950 . S
H1189 C1167 0.950 . S
C1190 C1191 1.349 . S
C1190 C1192 1.327 . S
C1190 H1215 0.950 . S
C1191 C1190 1.349 . S
C1191 C1207 1.349 . S
C1192 C1190 1.327 . S
C1192 C1211 1.429 . S
C1192 H1216 0.950 . S
C1193 C1210 1.574 . S
C1193 C1212 1.368 . S
C1193 H1217 0.949 . S
H1194 C1198 0.949 . S
C1195 C1196 1.349 . S
C1195 C1197 1.327 . S
C1195 H1218 0.950 . S
C1196 C1195 1.349 . S
C1196 C1208 1.349 . S
C1197 C1195 1.327 . S
C1197 C1213 1.429 . S
C1197 H1219 0.950 . S
C1198 H1194 0.949 . S
C1198 C1206 1.574 . S
C1198 C1214 1.368 . S
H1199 C1207 0.950 . S
H1200 C1205 0.950 . S
H1201 C1206 0.949 . S
H1202 C1208 0.950 . S
H1203 C1209 0.950 . S
H1204 C1210 0.949 . S
C1205 H1200 0.950 . S
C1205 C1207 1.327 . S
C1205 C1211 1.429 . S
C1206 C1198 1.574 . S
C1206 H1201 0.949 . S
C1206 C1212 1.368 . S
C1207 C1191 1.349 . S
C1207 H1199 0.950 . S
C1207 C1205 1.327 . S
C1208 C1196 1.349 . S
C1208 H1202 0.950 . S
C1208 C1209 1.327 . S
C1209 H1203 0.950 . S
C1209 C1208 1.327 . S
C1209 C1213 1.429 . S
C1210 C1193 1.574 . S
C1210 H1204 0.949 . S
C1210 C1214 1.368 . S
C1211 C1192 1.429 . S
C1211 C1205 1.429 . S
C1211 C1212 1.523 . S
C1212 C1193 1.368 . S
C1212 C1206 1.368 . S
C1212 C1211 1.523 . S
C1213 C1197 1.429 . S
C1213 C1209 1.429 . S
C1213 C1214 1.523 . S
C1214 C1198 1.368 . S
C1214 C1210 1.368 . S
C1214 C1213 1.523 . S
H1215 C1190 0.950 . S
H1216 C1192 0.950 . S
H1217 C1193 0.949 . S
H1218 C1195 0.950 . S
H1219 C1197 0.950 . S
C1220 C1221 1.349 1_565 S
C1220 C1222 1.327 . S
C1220 H1245 0.950 . S
C1221 C1220 1.349 1_545 S
C1221 C1237 1.349 . S
C1222 C1220 1.327 . S
C1222 C1241 1.429 . S
C1222 H1246 0.950 . S
C1223 C1240 1.574 . S
C1223 C1242 1.368 . S
C1223 H1247 0.949 . S
H1224 C1228 0.949 . S
C1225 C1226 1.328 1_554 S
C1225 C1227 1.320 1_554 S
C1225 H1248 0.979 . S
C1226 C1225 1.328 1_556 S
C1226 C1238 1.349 . S
C1227 C1225 1.320 1_556 S
C1227 C1243 1.429 . S
C1227 H1249 0.950 1_556 S
C1228 H1224 0.949 . S
C1228 C1236 1.574 . S
C1228 C1244 1.368 . S
H1229 C1237 0.950 . S
H1230 C1235 0.967 . S
H1231 C1236 0.949 . S
H1232 C1238 0.950 . S
H1233 C1239 0.950 . S
H1234 C1240 0.969 . S
C1235 H1230 0.967 . S
C1235 C1237 1.372 . S
C1235 C1241 1.371 1_545 S
C1236 C1228 1.574 . S
C1236 H1231 0.949 . S
C1236 C1242 1.368 . S
C1237 C1221 1.349 . S
C1237 H1229 0.950 . S
C1237 C1235 1.372 . S
C1238 C1226 1.349 . S
C1238 H1232 0.950 . S
C1238 C1239 1.327 . S
C1239 H1233 0.950 . S
C1239 C1238 1.327 . S
C1239 C1243 1.429 . S
C1240 C1223 1.574 . S
C1240 H1234 0.969 . S
C1240 C1244 1.368 . S
C1241 C1222 1.429 . S
C1241 C1235 1.371 1_565 S
C1241 C1242 1.523 . S
C1242 C1223 1.368 . S
C1242 C1236 1.368 . S
C1242 C1241 1.523 . S
C1243 C1227 1.429 . S
C1243 C1239 1.429 . S
C1243 C1244 1.523 . S
C1244 C1228 1.368 . S
C1244 C1240 1.368 . S
C1244 C1243 1.523 . S
H1245 C1220 0.950 . S
H1246 C1222 0.950 . S
H1247 C1223 0.949 . S
H1248 C1225 0.979 . S
H1249 C1227 0.950 1_554 S
C1250 C1251 1.349 . S
C1250 C1252 1.327 . S
C1250 H1275 0.950 . S
C1251 C1250 1.349 . S
C1251 C1267 1.349 . S
C1252 C1250 1.327 . S
C1252 C1271 1.429 . S
C1252 H1276 0.950 . S
C1253 C1270 1.574 . S
C1253 C1272 1.368 . S
C1253 H1277 0.949 . S
H1254 C1258 0.949 . S
C1255 C1256 1.349 . S
C1255 C1257 1.327 . S
C1255 H1278 0.950 . S
C1256 C1255 1.349 . S
C1256 C1268 1.349 . S
C1257 C1255 1.327 . S
C1257 C1273 1.429 . S
C1257 H1279 0.950 . S
C1258 H1254 0.949 . S
C1258 C1266 1.574 . S
C1258 C1274 1.368 . S
H1259 C1267 0.950 . S
H1260 C1265 0.950 . S
H1261 C1266 0.949 . S
H1262 C1268 0.950 . S
H1263 C1269 0.950 . S
H1264 C1270 0.949 . S
C1265 H1260 0.950 . S
C1265 C1267 1.327 . S
C1265 C1271 1.429 . S
C1266 C1258 1.574 . S
C1266 H1261 0.949 . S
C1266 C1272 1.368 . S
C1267 C1251 1.349 . S
C1267 H1259 0.950 . S
C1267 C1265 1.327 . S
C1268 C1256 1.349 . S
C1268 H1262 0.950 . S
C1268 C1269 1.327 . S
C1269 H1263 0.950 . S
C1269 C1268 1.327 . S
C1269 C1273 1.429 . S
C1270 C1253 1.574 . S
C1270 H1264 0.949 . S
C1270 C1274 1.368 . S
C1271 C1252 1.429 . S
C1271 C1265 1.429 . S
C1271 C1272 1.523 . S
C1272 C1253 1.368 . S
C1272 C1266 1.368 . S
C1272 C1271 1.523 . S
C1273 C1257 1.429 . S
C1273 C1269 1.429 . S
C1273 C1274 1.523 . S
C1274 C1258 1.368 . S
C1274 C1270 1.368 . S
C1274 C1273 1.523 . S
H1275 C1250 0.950 . S
H1276 C1252 0.950 . S
H1277 C1253 0.949 . S
H1278 C1255 0.950 . S
H1279 C1257 0.950 . S
C1280 C1281 1.349 . S
C1280 C1282 1.327 1_565 S
C1280 H1305 0.950 . S
C1281 C1280 1.349 . S
C1281 C1297 1.349 1_565 S
C1282 C1280 1.327 1_545 S
C1282 C1301 1.429 . S
C1282 H1306 0.950 . S
C1283 C1300 1.574 . S
C1283 C1302 1.368 . S
C1283 H1307 0.949 . S
H1284 C1288 0.949 . S
C1285 C1286 1.349 . S
C1285 C1287 1.327 . S
C1285 H1308 0.950 . S
C1286 C1285 1.349 . S
C1286 C1298 1.349 . S
C1287 C1285 1.327 . S
C1287 C1303 1.429 . S
C1287 H1309 0.950 . S
C1288 H1284 0.949 . S
C1288 C1296 1.574 . S
C1288 C1304 1.368 . S
H1289 C1297 0.950 . S
H1290 C1295 0.950 . S
H1291 C1296 0.949 . S
H1292 C1298 0.950 . S
H1293 C1299 0.950 . S
H1294 C1300 0.949 . S
C1295 H1290 0.950 . S
C1295 C1297 1.327 . S
C1295 C1301 1.429 . S
C1296 C1288 1.574 . S
C1296 H1291 0.949 . S
C1296 C1302 1.368 . S
C1297 C1281 1.349 1_545 S
C1297 H1289 0.950 . S
C1297 C1295 1.327 . S
C1298 C1286 1.349 . S
C1298 H1292 0.950 . S
C1298 C1299 1.327 . S
C1299 H1293 0.950 . S
C1299 C1298 1.327 . S
C1299 C1303 1.429 . S
C1300 C1283 1.574 . S
C1300 H1294 0.949 . S
C1300 C1304 1.368 . S
C1301 C1282 1.429 . S
C1301 C1295 1.429 . S
C1301 C1302 1.523 . S
C1302 C1283 1.368 . S
C1302 C1296 1.368 . S
C1302 C1301 1.523 . S
C1303 C1287 1.429 . S
C1303 C1299 1.429 . S
C1303 C1304 1.523 . S
C1304 C1288 1.368 . S
C1304 C1300 1.368 . S
C1304 C1303 1.523 . S
H1305 C1280 0.950 . S
H1306 C1282 0.950 . S
H1307 C1283 0.949 . S
H1308 C1285 0.950 . S
H1309 C1287 0.950 . S
C1310 C1311 1.349 . S
C1310 C1312 1.327 . S
C1310 H1335 0.950 . S
C1311 C1310 1.349 . S
C1311 C1327 1.349 . S
C1312 C1310 1.327 . S
C1312 C1331 1.429 . S
C1312 H1336 0.950 . S
C1313 C1330 1.574 . S
C1313 C1332 1.368 . S
C1313 H1337 0.949 . S
H1314 C1318 0.949 . S
C1315 C1316 1.349 . S
C1315 C1317 1.327 . S
C1315 H1338 0.950 . S
C1316 C1315 1.349 . S
C1316 C1328 1.349 . S
C1317 C1315 1.327 . S
C1317 C1333 1.429 . S
C1317 H1339 0.950 . S
C1318 H1314 0.949 . S
C1318 C1326 1.574 . S
C1318 C1334 1.368 . S
H1319 C1327 0.950 . S
H1320 C1325 0.950 . S
H1321 C1326 0.949 . S
H1322 C1328 0.950 . S
H1323 C1329 0.950 . S
H1324 C1330 0.949 . S
C1325 H1320 0.950 . S
C1325 C1327 1.327 . S
C1325 C1331 1.429 . S
C1326 C1318 1.574 . S
C1326 H1321 0.949 . S
C1326 C1332 1.368 . S
C1327 C1311 1.349 . S
C1327 H1319 0.950 . S
C1327 C1325 1.327 . S
C1328 C1316 1.349 . S
C1328 H1322 0.950 . S
C1328 C1329 1.327 . S
C1329 H1323 0.950 . S
C1329 C1328 1.327 . S
C1329 C1333 1.429 . S
C1330 C1313 1.574 . S
C1330 H1324 0.949 . S
C1330 C1334 1.368 . S
C1331 C1312 1.429 . S
C1331 C1325 1.429 . S
C1331 C1332 1.523 . S
C1332 C1313 1.368 . S
C1332 C1326 1.368 . S
C1332 C1331 1.523 . S
C1333 C1317 1.429 . S
C1333 C1329 1.429 . S
C1333 C1334 1.523 . S
C1334 C1318 1.368 . S
C1334 C1330 1.368 . S
C1334 C1333 1.523 . S
H1335 C1310 0.950 . S
H1336 C1312 0.950 . S
H1337 C1313 0.949 . S
H1338 C1315 0.950 . S
H1339 C1317 0.950 . S
C1340 C1341 1.349 . S
C1340 C1342 1.327 . S
C1340 H1365 0.950 1_545 S
C1341 C1340 1.349 . S
C1341 C1357 1.349 . S
C1342 C1340 1.327 . S
C1342 C1361 1.429 . S
C1342 H1366 0.950 . S
C1343 C1360 1.574 . S
C1343 C1362 1.368 . S
C1343 H1367 0.949 . S
H1344 C1348 0.949 . S
C1345 C1346 1.349 . S
C1345 C1347 1.327 . S
C1345 H1368 0.950 . S
C1346 C1345 1.349 . S
C1346 C1358 1.349 . S
C1347 C1345 1.327 . S
C1347 C1363 1.429 . S
C1347 H1369 0.950 . S
C1348 H1344 0.949 . S
C1348 C1356 1.574 . S
C1348 C1364 1.368 . S
H1349 C1357 0.950 . S
H1350 C1355 0.950 . S
H1351 C1356 0.949 . S
H1352 C1358 0.950 . S
H1353 C1359 0.950 . S
H1354 C1360 0.949 . S
C1355 H1350 0.950 . S
C1355 C1357 1.327 . S
C1355 C1361 1.429 . S
C1356 C1348 1.574 . S
C1356 H1351 0.949 . S
C1356 C1362 1.368 . S
C1357 C1341 1.349 . S
C1357 H1349 0.950 . S
C1357 C1355 1.327 . S
C1358 C1346 1.349 . S
C1358 H1352 0.950 . S
C1358 C1359 1.327 . S
C1359 H1353 0.950 . S
C1359 C1358 1.327 . S
C1359 C1363 1.429 . S
C1360 C1343 1.574 . S
C1360 H1354 0.949 . S
C1360 C1364 1.368 . S
C1361 C1342 1.429 . S
C1361 C1355 1.429 . S
C1361 C1362 1.523 . S
C1362 C1343 1.368 . S
C1362 C1356 1.368 . S
C1362 C1361 1.523 . S
C1363 C1347 1.429 . S
C1363 C1359 1.429 . S
C1363 C1364 1.523 . S
C1364 C1348 1.368 . S
C1364 C1360 1.368 . S
C1364 C1363 1.523 . S
H1365 C1340 0.950 1_565 S
H1366 C1342 0.950 . S
H1367 C1343 0.949 . S
H1368 C1345 0.950 . S
H1369 C1347 0.950 . S
C1370 C1371 1.349 . S
C1370 C1372 1.327 . S
C1370 H1395 0.950 . S
C1371 C1370 1.349 . S
C1371 C1387 1.349 . S
C1372 C1370 1.327 . S
C1372 C1391 1.429 . S
C1372 H1396 0.950 . S
C1373 C1390 1.574 . S
C1373 C1392 1.368 . S
C1373 H1397 0.949 . S
H1374 C1378 0.949 . S
C1375 C1376 1.349 . S
C1375 C1377 1.327 . S
C1375 H1398 0.950 . S
C1376 C1375 1.349 . S
C1376 C1388 1.349 . S
C1377 C1375 1.327 . S
C1377 C1393 1.429 . S
C1377 H1399 0.950 . S
C1378 H1374 0.949 . S
C1378 C1386 1.574 . S
C1378 C1394 1.368 . S
H1379 C1387 0.950 . S
H1380 C1385 0.950 . S
H1381 C1386 0.949 . S
H1382 C1388 0.950 . S
H1383 C1389 0.950 . S
H1384 C1390 0.949 . S
C1385 H1380 0.950 . S
C1385 C1387 1.327 . S
C1385 C1391 1.429 . S
C1386 C1378 1.574 . S
C1386 H1381 0.949 . S
C1386 C1392 1.368 . S
C1387 C1371 1.349 . S
C1387 H1379 0.950 . S
C1387 C1385 1.327 . S
C1388 C1376 1.349 . S
C1388 H1382 0.950 . S
C1388 C1389 1.327 . S
C1389 H1383 0.950 . S
C1389 C1388 1.327 . S
C1389 C1393 1.429 . S
C1390 C1373 1.574 . S
C1390 H1384 0.949 . S
C1390 C1394 1.368 . S
C1391 C1372 1.429 . S
C1391 C1385 1.429 . S
C1391 C1392 1.523 . S
C1392 C1373 1.368 . S
C1392 C1386 1.368 . S
C1392 C1391 1.523 . S
C1393 C1377 1.429 . S
C1393 C1389 1.429 . S
C1393 C1394 1.523 . S
C1394 C1378 1.368 . S
C1394 C1390 1.368 . S
C1394 C1393 1.523 . S
H1395 C1370 0.950 . S
H1396 C1372 0.950 . S
H1397 C1373 0.949 . S
H1398 C1375 0.950 . S
H1399 C1377 0.950 . S
C1400 C1401 1.349 . S
C1400 C1402 1.327 . S
C1400 H1425 0.950 . S
C1401 C1400 1.349 . S
C1401 C1417 1.349 . S
C1402 C1400 1.327 . S
C1402 C1421 1.429 . S
C1402 H1426 0.950 . S
C1403 C1420 1.574 . S
C1403 C1422 1.368 . S
C1403 H1427 0.949 . S
H1404 C1408 0.949 . S
C1405 C1406 1.349 . S
C1405 C1407 1.327 . S
C1405 H1428 0.950 . S
C1406 C1405 1.349 . S
C1406 C1418 1.349 . S
C1407 C1405 1.327 . S
C1407 C1423 1.429 . S
C1407 H1429 0.950 . S
C1408 H1404 0.949 . S
C1408 C1416 1.574 . S
C1408 C1424 1.368 . S
H1409 C1417 0.950 . S
H1410 C1415 0.950 . S
H1411 C1416 0.949 . S
H1412 C1418 0.950 . S
H1413 C1419 0.950 . S
H1414 C1420 0.949 . S
C1415 H1410 0.950 . S
C1415 C1417 1.327 . S
C1415 C1421 1.429 . S
C1416 C1408 1.574 . S
C1416 H1411 0.949 . S
C1416 C1422 1.368 . S
C1417 C1401 1.349 . S
C1417 H1409 0.950 . S
C1417 C1415 1.327 . S
C1418 C1406 1.349 . S
C1418 H1412 0.950 . S
C1418 C1419 1.327 . S
C1419 H1413 0.950 . S
C1419 C1418 1.327 . S
C1419 C1423 1.429 . S
C1420 C1403 1.574 . S
C1420 H1414 0.949 . S
C1420 C1424 1.368 . S
C1421 C1402 1.429 . S
C1421 C1415 1.429 . S
C1421 C1422 1.523 . S
C1422 C1403 1.368 . S
C1422 C1416 1.368 . S
C1422 C1421 1.523 . S
C1423 C1407 1.429 . S
C1423 C1419 1.429 . S
C1423 C1424 1.523 . S
C1424 C1408 1.368 . S
C1424 C1420 1.368 . S
C1424 C1423 1.523 . S
H1425 C1400 0.950 . S
H1426 C1402 0.950 . S
H1427 C1403 0.949 . S
H1428 C1405 0.950 . S
H1429 C1407 0.950 . S
C1430 C1431 1.349 . S
C1430 C1432 1.327 . S
C1430 H1455 0.950 . S
C1431 C1430 1.349 . S
C1431 C1447 1.349 . S
C1432 C1430 1.327 . S
C1432 C1451 1.429 . S
C1432 H1456 0.950 . S
C1433 C1450 1.574 . S
C1433 C1452 1.368 . S
C1433 H1457 0.949 . S
H1434 C1438 0.949 . S
C1435 C1436 1.349 . S
C1435 C1437 1.327 . S
C1435 H1458 0.950 1_545 S
C1436 C1435 1.349 . S
C1436 C1448 1.349 . S
C1437 C1435 1.327 . S
C1437 C1453 1.429 . S
C1437 H1459 0.950 . S
C1438 H1434 0.949 . S
C1438 C1446 1.574 . S
C1438 C1454 1.368 . S
H1439 C1447 0.950 . S
H1440 C1445 0.950 . S
H1441 C1446 0.949 . S
H1442 C1448 0.950 . S
H1443 C1449 0.950 . S
H1444 C1450 0.949 . S
C1445 H1440 0.950 . S
C1445 C1447 1.327 . S
C1445 C1451 1.429 . S
C1446 C1438 1.574 . S
C1446 H1441 0.949 . S
C1446 C1452 1.368 . S
C1447 C1431 1.349 . S
C1447 H1439 0.950 . S
C1447 C1445 1.327 . S
C1448 C1436 1.349 . S
C1448 H1442 0.950 . S
C1448 C1449 1.327 . S
C1449 H1443 0.950 . S
C1449 C1448 1.327 . S
C1449 C1453 1.429 . S
C1450 C1433 1.574 . S
C1450 H1444 0.949 . S
C1450 C1454 1.368 . S
C1451 C1432 1.429 . S
C1451 C1445 1.429 . S
C1451 C1452 1.523 . S
C1452 C1433 1.368 . S
C1452 C1446 1.368 . S
C1452 C1451 1.523 . S
C1453 C1437 1.429 . S
C1453 C1449 1.429 . S
C1453 C1454 1.523 . S
C1454 C1438 1.368 . S
C1454 C1450 1.368 . S
C1454 C1453 1.523 . S
H1455 C1430 0.950 . S
H1456 C1432 0.950 . S
H1457 C1433 0.949 . S
H1458 C1435 0.950 1_565 S
H1459 C1437 0.950 . S
C1460 C1461 1.349 . S
C1460 C1462 1.327 . S
C1460 H1485 0.950 . S
C1461 C1460 1.349 . S
C1461 C1477 1.349 . S
C1462 C1460 1.327 . S
C1462 C1481 1.429 . S
C1462 H1486 0.950 . S
C1463 C1480 1.574 . S
C1463 C1482 1.368 . S
C1463 H1487 0.949 . S
H1464 C1468 0.949 . S
C1465 C1466 1.349 . S
C1465 C1467 1.327 . S
C1465 H1488 0.950 . S
C1466 C1465 1.349 . S
C1466 C1478 1.349 . S
C1467 C1465 1.327 . S
C1467 C1483 1.429 . S
C1467 H1489 0.950 . S
C1468 H1464 0.949 . S
C1468 C1476 1.574 . S
C1468 C1484 1.368 . S
H1469 C1477 0.950 . S
H1470 C1475 0.950 . S
H1471 C1476 0.949 . S
H1472 C1478 0.950 . S
H1473 C1479 0.950 . S
H1474 C1480 0.949 . S
C1475 H1470 0.950 . S
C1475 C1477 1.327 . S
C1475 C1481 1.429 . S
C1476 C1468 1.574 . S
C1476 H1471 0.949 . S
C1476 C1482 1.368 . S
C1477 C1461 1.349 . S
C1477 H1469 0.950 . S
C1477 C1475 1.327 . S
C1478 C1466 1.349 . S
C1478 H1472 0.950 . S
C1478 C1479 1.327 . S
C1479 H1473 0.950 . S
C1479 C1478 1.327 . S
C1479 C1483 1.429 . S
C1480 C1463 1.574 . S
C1480 H1474 0.949 . S
C1480 C1484 1.368 . S
C1481 C1462 1.429 . S
C1481 C1475 1.429 . S
C1481 C1482 1.523 . S
C1482 C1463 1.368 . S
C1482 C1476 1.368 . S
C1482 C1481 1.523 . S
C1483 C1467 1.429 . S
C1483 C1479 1.429 . S
C1483 C1484 1.523 . S
C1484 C1468 1.368 . S
C1484 C1480 1.368 . S
C1484 C1483 1.523 . S
H1485 C1460 0.950 . S
H1486 C1462 0.950 . S
H1487 C1463 0.949 . S
H1488 C1465 0.950 . S
H1489 C1467 0.950 . S
C1490 C1491 1.349 . S
C1490 C1492 1.327 . S
C1490 H1515 0.950 . S
C1491 C1490 1.349 . S
C1491 C1507 1.349 . S
C1492 C1490 1.327 . S
C1492 C1511 1.429 . S
C1492 H1516 0.950 . S
C1493 C1510 1.574 . S
C1493 C1512 1.368 . S
C1493 H1517 0.949 . S
H1494 C1498 0.949 . S
C1495 C1496 1.349 . S
C1495 C1497 1.327 . S
C1495 H1518 0.950 . S
C1496 C1495 1.349 . S
C1496 C1508 1.349 . S
C1497 C1495 1.327 . S
C1497 C1513 1.429 . S
C1497 H1519 0.950 . S
C1498 H1494 0.949 . S
C1498 C1506 1.574 . S
C1498 C1514 1.368 . S
H1499 C1507 0.950 . S
H1500 C1505 0.950 . S
H1501 C1506 0.949 . S
H1502 C1508 0.950 . S
H1503 C1509 0.950 . S
H1504 C1510 0.949 . S
C1505 H1500 0.950 . S
C1505 C1507 1.327 . S
C1505 C1511 1.429 . S
C1506 C1498 1.574 . S
C1506 H1501 0.949 . S
C1506 C1512 1.368 . S
C1507 C1491 1.349 . S
C1507 H1499 0.950 . S
C1507 C1505 1.327 . S
C1508 C1496 1.349 . S
C1508 H1502 0.950 . S
C1508 C1509 1.327 . S
C1509 H1503 0.950 . S
C1509 C1508 1.327 . S
C1509 C1513 1.429 . S
C1510 C1493 1.574 . S
C1510 H1504 0.949 . S
C1510 C1514 1.368 . S
C1511 C1492 1.429 . S
C1511 C1505 1.429 . S
C1511 C1512 1.523 . S
C1512 C1493 1.368 . S
C1512 C1506 1.368 . S
C1512 C1511 1.523 . S
C1513 C1497 1.429 . S
C1513 C1509 1.429 . S
C1513 C1514 1.523 . S
C1514 C1498 1.368 . S
C1514 C1510 1.368 . S
C1514 C1513 1.523 . S
H1515 C1490 0.950 . S
H1516 C1492 0.950 . S
H1517 C1493 0.949 . S
H1518 C1495 0.950 . S
H1519 C1497 0.950 . S
C1520 C1521 1.349 . S
C1520 C1522 1.327 . S
C1520 H1545 0.950 . S
C1521 C1520 1.349 . S
C1521 C1537 1.349 . S
C1522 C1520 1.327 . S
C1522 C1541 1.429 . S
C1522 H1546 0.950 . S
C1523 C1540 1.574 . S
C1523 C1542 1.368 . S
C1523 H1547 0.949 . S
H1524 C1528 0.949 . S
C1525 C1526 1.349 . S
C1525 C1527 1.327 . S
C1525 H1548 0.950 . S
C1526 C1525 1.349 . S
C1526 C1538 1.349 . S
C1527 C1525 1.327 . S
C1527 C1543 1.429 . S
C1527 H1549 0.950 . S
C1528 H1524 0.949 . S
C1528 C1536 1.574 . S
C1528 C1544 1.368 . S
H1529 C1537 0.950 . S
H1530 C1535 0.950 . S
H1531 C1536 0.949 . S
H1532 C1538 0.950 . S
H1533 C1539 0.950 . S
H1534 C1540 0.949 . S
C1535 H1530 0.950 . S
C1535 C1537 1.327 . S
C1535 C1541 1.429 . S
C1536 C1528 1.574 . S
C1536 H1531 0.949 . S
C1536 C1542 1.368 . S
C1537 C1521 1.349 . S
C1537 H1529 0.950 . S
C1537 C1535 1.327 . S
C1538 C1526 1.349 . S
C1538 H1532 0.950 . S
C1538 C1539 1.327 . S
C1539 H1533 0.950 . S
C1539 C1538 1.327 . S
C1539 C1543 1.429 . S
C1540 C1523 1.574 . S
C1540 H1534 0.949 . S
C1540 C1544 1.368 . S
C1541 C1522 1.429 . S
C1541 C1535 1.429 . S
C1541 C1542 1.523 . S
C1542 C1523 1.368 . S
C1542 C1536 1.368 . S
C1542 C1541 1.523 . S
C1543 C1527 1.429 . S
C1543 C1539 1.429 . S
C1543 C1544 1.523 . S
C1544 C1528 1.368 . S
C1544 C1540 1.368 . S
C1544 C1543 1.523 . S
H1545 C1520 0.950 . S
H1546 C1522 0.950 . S
H1547 C1523 0.949 . S
H1548 C1525 0.950 . S
H1549 C1527 0.950 . S
C1550 C1551 1.369 . S
C1550 C1552 1.327 . S
C1550 H1575 0.950 . S
C1551 C1550 1.369 . S
C1551 C1567 1.370 . S
C1552 C1550 1.327 . S
C1552 C1571 1.429 . S
C1552 H1576 0.950 . S
C1553 C1570 1.574 . S
C1553 C1572 1.368 . S
C1553 H1577 0.949 . S
H1554 C1558 0.949 1_565 S
C1555 C1556 1.349 . S
C1555 C1557 1.327 . S
C1555 H1578 0.950 . S
C1556 C1555 1.349 . S
C1556 C1568 1.376 . S
C1557 C1555 1.327 . S
C1557 C1573 1.429 . S
C1557 H1579 0.950 . S
C1558 H1554 0.949 1_545 S
C1558 C1566 1.574 . S
C1558 C1574 1.368 . S
H1559 C1567 0.950 . S
H1560 C1565 0.950 . S
H1561 C1566 0.941 1_565 S
H1562 C1568 0.919 1_565 S
H1563 C1569 0.950 1_565 S
H1564 C1570 0.949 . S
C1565 H1560 0.950 . S
C1565 C1567 1.327 . S
C1565 C1571 1.429 . S
C1566 C1558 1.574 . S
C1566 H1561 0.941 1_545 S
C1566 C1572 1.368 . S
C1567 C1551 1.370 . S
C1567 H1559 0.950 . S
C1567 C1565 1.327 . S
C1568 C1556 1.376 . S
C1568 H1562 0.919 1_545 S
C1568 C1569 1.331 . S
C1569 H1563 0.950 1_545 S
C1569 C1568 1.331 . S
C1569 C1573 1.429 . S
C1570 C1553 1.574 . S
C1570 H1564 0.949 . S
C1570 C1574 1.368 . S
C1571 C1552 1.429 . S
C1571 C1565 1.429 . S
C1571 C1572 1.523 . S
C1572 C1553 1.368 . S
C1572 C1566 1.368 . S
C1572 C1571 1.523 . S
C1573 C1557 1.429 . S
C1573 C1569 1.429 . S
C1573 C1574 1.523 . S
C1574 C1558 1.368 . S
C1574 C1570 1.368 . S
C1574 C1573 1.523 . S
H1575 C1550 0.950 . S
H1576 C1552 0.950 . S
H1577 C1553 0.949 . S
H1578 C1555 0.950 . S
H1579 C1557 0.950 . S
C1580 C1581 1.349 . S
C1580 C1582 1.327 . S
C1580 H1605 0.950 . S
C1581 C1580 1.349 . S
C1581 C1597 1.349 . S
C1582 C1580 1.327 . S
C1582 C1601 1.429 . S
C1582 H1606 0.950 . S
C1583 C1600 1.574 . S
C1583 C1602 1.368 . S
C1583 H1607 0.949 . S
H1584 C1588 0.949 . S
C1585 C1586 1.349 . S
C1585 C1587 1.327 . S
C1585 H1608 0.950 . S
C1586 C1585 1.349 . S
C1586 C1598 1.349 . S
C1587 C1585 1.327 . S
C1587 C1603 1.429 . S
C1587 H1609 0.950 . S
C1588 H1584 0.949 . S
C1588 C1596 1.574 . S
C1588 C1604 1.368 . S
H1589 C1597 0.950 . S
H1590 C1595 0.950 . S
H1591 C1596 0.949 . S
H1592 C1598 0.950 . S
H1593 C1599 0.950 . S
H1594 C1600 0.949 . S
C1595 H1590 0.950 . S
C1595 C1597 1.327 . S
C1595 C1601 1.429 . S
C1596 C1588 1.574 . S
C1596 H1591 0.949 . S
C1596 C1602 1.368 . S
C1597 C1581 1.349 . S
C1597 H1589 0.950 . S
C1597 C1595 1.327 . S
C1598 C1586 1.349 . S
C1598 H1592 0.950 . S
C1598 C1599 1.327 . S
C1599 H1593 0.950 . S
C1599 C1598 1.327 . S
C1599 C1603 1.429 . S
C1600 C1583 1.574 . S
C1600 H1594 0.949 . S
C1600 C1604 1.368 . S
C1601 C1582 1.429 . S
C1601 C1595 1.429 . S
C1601 C1602 1.523 . S
C1602 C1583 1.368 . S
C1602 C1596 1.368 . S
C1602 C1601 1.523 . S
C1603 C1587 1.429 . S
C1603 C1599 1.429 . S
C1603 C1604 1.523 . S
C1604 C1588 1.368 . S
C1604 C1600 1.368 . S
C1604 C1603 1.523 . S
H1605 C1580 0.950 . S
H1606 C1582 0.950 . S
H1607 C1583 0.949 . S
H1608 C1585 0.950 . S
H1609 C1587 0.950 . S
C1610 C1611 1.349 1_455 S
C1610 C1612 1.327 . S
C1610 H1635 0.950 . S
C1611 C1610 1.349 1_655 S
C1611 C1627 1.349 . S
C1612 C1610 1.327 . S
C1612 C1631 1.429 . S
C1612 H1636 0.950 . S
C1613 C1630 1.574 . S
C1613 C1632 1.368 . S
C1613 H1637 0.949 . S
H1614 C1618 0.949 . S
C1615 C1616 1.349 . S
C1615 C1617 1.327 . S
C1615 H1638 0.950 . S
C1616 C1615 1.349 . S
C1616 C1628 1.349 . S
C1617 C1615 1.327 . S
C1617 C1633 1.429 . S
C1617 H1639 0.950 . S
C1618 H1614 0.949 . S
C1618 C1626 1.574 . S
C1618 C1634 1.368 . S
H1619 C1627 0.950 . S
H1620 C1625 0.950 . S
H1621 C1626 0.949 . S
H1622 C1628 0.950 . S
H1623 C1629 0.950 . S
H1624 C1630 0.949 . S
C1625 H1620 0.950 . S
C1625 C1627 1.327 1_455 S
C1625 C1631 1.429 . S
C1626 C1618 1.574 . S
C1626 H1621 0.949 . S
C1626 C1632 1.368 . S
C1627 C1611 1.349 . S
C1627 H1619 0.950 . S
C1627 C1625 1.327 1_655 S
C1628 C1616 1.349 . S
C1628 H1622 0.950 . S
C1628 C1629 1.327 . S
C1629 H1623 0.950 . S
C1629 C1628 1.327 . S
C1629 C1633 1.429 . S
C1630 C1613 1.574 . S
C1630 H1624 0.949 . S
C1630 C1634 1.368 . S
C1631 C1612 1.429 . S
C1631 C1625 1.429 . S
C1631 C1632 1.523 . S
C1632 C1613 1.368 . S
C1632 C1626 1.368 . S
C1632 C1631 1.523 . S
C1633 C1617 1.429 . S
C1633 C1629 1.429 . S
C1633 C1634 1.523 . S
C1634 C1618 1.368 . S
C1634 C1630 1.368 . S
C1634 C1633 1.523 . S
H1635 C1610 0.950 . S
H1636 C1612 0.950 . S
H1637 C1613 0.949 . S
H1638 C1615 0.950 . S
H1639 C1617 0.950 . S
C1640 C1641 1.349 . S
C1640 C1642 1.327 . S
C1640 H1665 0.950 . S
C1641 C1640 1.349 . S
C1641 C1657 1.349 . S
C1642 C1640 1.327 . S
C1642 C1661 1.429 . S
C1642 H1666 0.950 . S
C1643 C1660 1.574 . S
C1643 C1662 1.368 . S
C1643 H1667 0.949 . S
H1644 C1648 0.949 . S
C1645 C1646 1.349 . S
C1645 C1647 1.327 . S
C1645 H1668 0.950 . S
C1646 C1645 1.349 . S
C1646 C1658 1.349 . S
C1647 C1645 1.327 . S
C1647 C1663 1.429 . S
C1647 H1669 0.950 . S
C1648 H1644 0.949 . S
C1648 C1656 1.574 . S
C1648 C1664 1.368 . S
H1649 C1657 0.950 . S
H1650 C1655 0.950 . S
H1651 C1656 0.949 . S
H1652 C1658 0.950 . S
H1653 C1659 0.950 . S
H1654 C1660 0.949 . S
C1655 H1650 0.950 . S
C1655 C1657 1.327 . S
C1655 C1661 1.429 . S
C1656 C1648 1.574 . S
C1656 H1651 0.949 . S
C1656 C1662 1.368 . S
C1657 C1641 1.349 . S
C1657 H1649 0.950 . S
C1657 C1655 1.327 . S
C1658 C1646 1.349 . S
C1658 H1652 0.950 . S
C1658 C1659 1.327 . S
C1659 H1653 0.950 . S
C1659 C1658 1.327 . S
C1659 C1663 1.429 . S
C1660 C1643 1.574 . S
C1660 H1654 0.949 . S
C1660 C1664 1.368 . S
C1661 C1642 1.429 . S
C1661 C1655 1.429 . S
C1661 C1662 1.523 . S
C1662 C1643 1.368 . S
C1662 C1656 1.368 . S
C1662 C1661 1.523 . S
C1663 C1647 1.429 . S
C1663 C1659 1.429 . S
C1663 C1664 1.523 . S
C1664 C1648 1.368 . S
C1664 C1660 1.368 . S
C1664 C1663 1.523 . S
H1665 C1640 0.950 . S
H1666 C1642 0.950 . S
H1667 C1643 0.949 . S
H1668 C1645 0.950 . S
H1669 C1647 0.950 . S
C1670 C1671 1.349 1_556 S
C1670 C1672 1.327 . S
C1670 H1695 0.950 . S
C1671 C1670 1.349 1_554 S
C1671 C1687 1.349 . S
C1672 C1670 1.327 . S
C1672 C1691 1.429 . S
C1672 H1696 0.950 . S
C1673 C1690 1.574 . S
C1673 C1692 1.368 . S
C1673 H1697 0.949 . S
H1674 C1678 0.938 1_455 S
C1675 C1676 1.349 . S
C1675 C1677 1.327 . S
C1675 H1698 0.950 . S
C1676 C1675 1.349 . S
C1676 C1688 1.349 1_655 S
C1677 C1675 1.327 . S
C1677 C1693 1.429 . S
C1677 H1699 0.950 . S
C1678 H1674 0.938 1_655 S
C1678 C1686 1.574 . S
C1678 C1694 1.368 . S
H1679 C1687 0.950 . S
H1680 C1685 0.951 . S
H1681 C1686 0.949 . S
H1682 C1688 0.950 . S
H1683 C1689 0.923 1_455 S
H1684 C1690 0.949 . S
C1685 H1680 0.951 . S
C1685 C1687 1.335 . S
C1685 C1691 1.420 1_554 S
C1686 C1678 1.574 . S
C1686 H1681 0.949 . S
C1686 C1692 1.368 . S
C1687 C1671 1.349 . S
C1687 H1679 0.950 . S
C1687 C1685 1.335 . S
C1688 C1676 1.349 1_455 S
C1688 H1682 0.950 . S
C1688 C1689 1.315 1_455 S
C1689 H1683 0.923 1_655 S
C1689 C1688 1.315 1_655 S
C1689 C1693 1.470 . S
C1690 C1673 1.574 . S
C1690 H1684 0.949 . S
C1690 C1694 1.368 . S
C1691 C1672 1.429 . S
C1691 C1685 1.420 1_556 S
C1691 C1692 1.523 . S
C1692 C1673 1.368 . S
C1692 C1686 1.368 . S
C1692 C1691 1.523 . S
C1693 C1677 1.429 . S
C1693 C1689 1.470 . S
C1693 C1694 1.523 . S
C1694 C1678 1.368 . S
C1694 C1690 1.368 . S
C1694 C1693 1.523 . S
H1695 C1670 0.950 . S
H1696 C1672 0.950 . S
H1697 C1673 0.949 . S
H1698 C1675 0.950 . S
H1699 C1677 0.950 . S
C1700 C1701 1.349 . S
C1700 C1702 1.327 . S
C1700 H1725 0.950 . S
C1701 C1700 1.349 . S
C1701 C1717 1.349 . S
C1702 C1700 1.327 . S
C1702 C1721 1.429 . S
C1702 H1726 0.950 . S
C1703 C1720 1.574 . S
C1703 C1722 1.368 . S
C1703 H1727 0.949 . S
H1704 C1708 0.949 . S
C1705 C1706 1.349 . S
C1705 C1707 1.327 . S
C1705 H1728 0.950 . S
C1706 C1705 1.349 . S
C1706 C1718 1.349 . S
C1707 C1705 1.327 . S
C1707 C1723 1.429 . S
C1707 H1729 0.950 . S
C1708 H1704 0.949 . S
C1708 C1716 1.574 . S
C1708 C1724 1.368 . S
H1709 C1717 0.950 . S
H1710 C1715 0.950 . S
H1711 C1716 0.949 . S
H1712 C1718 0.950 . S
H1713 C1719 0.950 . S
H1714 C1720 0.949 . S
C1715 H1710 0.950 . S
C1715 C1717 1.327 . S
C1715 C1721 1.429 . S
C1716 C1708 1.574 . S
C1716 H1711 0.949 . S
C1716 C1722 1.368 . S
C1717 C1701 1.349 . S
C1717 H1709 0.950 . S
C1717 C1715 1.327 . S
C1718 C1706 1.349 . S
C1718 H1712 0.950 . S
C1718 C1719 1.327 . S
C1719 H1713 0.950 . S
C1719 C1718 1.327 . S
C1719 C1723 1.429 . S
C1720 C1703 1.574 . S
C1720 H1714 0.949 . S
C1720 C1724 1.368 . S
C1721 C1702 1.429 . S
C1721 C1715 1.429 . S
C1721 C1722 1.523 . S
C1722 C1703 1.368 . S
C1722 C1716 1.368 . S
C1722 C1721 1.523 . S
C1723 C1707 1.429 . S
C1723 C1719 1.429 . S
C1723 C1724 1.523 . S
C1724 C1708 1.368 . S
C1724 C1720 1.368 . S
C1724 C1723 1.523 . S
H1725 C1700 0.950 . S
H1726 C1702 0.950 . S
H1727 C1703 0.949 . S
H1728 C1705 0.950 . S
H1729 C1707 0.950 . S
C1730 C1731 1.349 1_556 S
C1730 C1732 1.327 . S
C1730 H1755 0.950 . S
C1731 C1730 1.349 1_554 S
C1731 C1747 1.349 . S
C1732 C1730 1.327 . S
C1732 C1751 1.429 . S
C1732 H1756 0.950 . S
C1733 C1750 1.574 . S
C1733 C1752 1.368 . S
C1733 H1757 0.949 . S
H1734 C1738 0.949 . S
C1735 C1736 1.349 . S
C1735 C1737 1.327 . S
C1735 H1758 0.950 . S
C1736 C1735 1.349 . S
C1736 C1748 1.349 . S
C1737 C1735 1.327 . S
C1737 C1753 1.429 . S
C1737 H1759 0.950 . S
C1738 H1734 0.949 . S
C1738 C1746 1.574 . S
C1738 C1754 1.368 . S
H1739 C1747 0.950 . S
H1740 C1745 0.935 1_554 S
H1741 C1746 0.949 . S
H1742 C1748 0.948 1_655 S
H1743 C1749 0.950 . S
H1744 C1750 0.949 . S
C1745 H1740 0.935 1_556 S
C1745 C1747 1.291 1_556 S
C1745 C1751 1.482 . S
C1746 C1738 1.574 . S
C1746 H1741 0.949 . S
C1746 C1752 1.368 . S
C1747 C1731 1.349 . S
C1747 H1739 0.950 . S
C1747 C1745 1.291 1_554 S
C1748 C1736 1.349 . S
C1748 H1742 0.948 1_455 S
C1748 C1749 1.327 . S
C1749 H1743 0.950 . S
C1749 C1748 1.327 . S
C1749 C1753 1.429 . S
C1750 C1733 1.574 . S
C1750 H1744 0.949 . S
C1750 C1754 1.368 . S
C1751 C1732 1.429 . S
C1751 C1745 1.482 . S
C1751 C1752 1.523 . S
C1752 C1733 1.368 . S
C1752 C1746 1.368 . S
C1752 C1751 1.523 . S
C1753 C1737 1.429 . S
C1753 C1749 1.429 . S
C1753 C1754 1.523 . S
C1754 C1738 1.368 . S
C1754 C1750 1.368 . S
C1754 C1753 1.523 . S
H1755 C1730 0.950 . S
H1756 C1732 0.950 . S
H1757 C1733 0.949 . S
H1758 C1735 0.950 . S
H1759 C1737 0.950 . S
C1760 C1761 1.349 . S
C1760 C1762 1.327 . S
C1760 H1785 0.950 . S
C1761 C1760 1.349 . S
C1761 C1777 1.349 . S
C1762 C1760 1.327 . S
C1762 C1781 1.429 . S
C1762 H1786 0.950 . S
C1763 C1780 1.574 . S
C1763 C1782 1.368 . S
C1763 H1787 0.949 . S
H1764 C1768 0.949 . S
C1765 C1766 1.349 . S
C1765 C1767 1.327 . S
C1765 H1788 0.950 . S
C1766 C1765 1.349 . S
C1766 C1778 1.349 . S
C1767 C1765 1.327 . S
C1767 C1783 1.429 . S
C1767 H1789 0.950 . S
C1768 H1764 0.949 . S
C1768 C1776 1.574 . S
C1768 C1784 1.368 . S
H1769 C1777 0.950 . S
H1770 C1775 0.950 . S
H1771 C1776 0.949 . S
H1772 C1778 0.950 . S
H1773 C1779 0.950 . S
H1774 C1780 0.949 . S
C1775 H1770 0.950 . S
C1775 C1777 1.327 . S
C1775 C1781 1.429 . S
C1776 C1768 1.574 . S
C1776 H1771 0.949 . S
C1776 C1782 1.368 . S
C1777 C1761 1.349 . S
C1777 H1769 0.950 . S
C1777 C1775 1.327 . S
C1778 C1766 1.349 . S
C1778 H1772 0.950 . S
C1778 C1779 1.327 . S
C1779 H1773 0.950 . S
C1779 C1778 1.327 . S
C1779 C1783 1.429 . S
C1780 C1763 1.574 . S
C1780 H1774 0.949 . S
C1780 C1784 1.368 . S
C1781 C1762 1.429 . S
C1781 C1775 1.429 . S
C1781 C1782 1.523 . S
C1782 C1763 1.368 . S
C1782 C1776 1.368 . S
C1782 C1781 1.523 . S
C1783 C1767 1.429 . S
C1783 C1779 1.429 . S
C1783 C1784 1.523 . S
C1784 C1768 1.368 . S
C1784 C1780 1.368 . S
C1784 C1783 1.523 . S
H1785 C1760 0.950 . S
H1786 C1762 0.950 . S
H1787 C1763 0.949 . S
H1788 C1765 0.950 . S
H1789 C1767 0.950 . S
C1790 C1791 1.349 . S
C1790 C1792 1.327 . S
C1790 H1815 0.950 . S
C1791 C1790 1.349 . S
C1791 C1807 1.349 . S
C1792 C1790 1.327 . S
C1792 C1811 1.429 . S
C1792 H1816 0.950 . S
C1793 C1810 1.574 . S
C1793 C1812 1.368 . S
C1793 H1817 0.949 . S
H1794 C1798 0.949 . S
C1795 C1796 1.349 . S
C1795 C1797 1.327 . S
C1795 H1818 0.950 . S
C1796 C1795 1.349 . S
C1796 C1808 1.349 . S
C1797 C1795 1.327 . S
C1797 C1813 1.429 . S
C1797 H1819 0.950 . S
C1798 H1794 0.949 . S
C1798 C1806 1.574 . S
C1798 C1814 1.368 . S
H1799 C1807 0.950 . S
H1800 C1805 0.950 . S
H1801 C1806 0.949 . S
H1802 C1808 0.950 . S
H1803 C1809 0.950 . S
H1804 C1810 0.949 . S
C1805 H1800 0.950 . S
C1805 C1807 1.327 . S
C1805 C1811 1.429 . S
C1806 C1798 1.574 . S
C1806 H1801 0.949 . S
C1806 C1812 1.368 . S
C1807 C1791 1.349 . S
C1807 H1799 0.950 . S
C1807 C1805 1.327 . S
C1808 C1796 1.349 . S
C1808 H1802 0.950 . S
C1808 C1809 1.327 . S
C1809 H1803 0.950 . S
C1809 C1808 1.327 . S
C1809 C1813 1.429 . S
C1810 C1793 1.574 . S
C1810 H1804 0.949 . S
C1810 C1814 1.368 . S
C1811 C1792 1.429 . S
C1811 C1805 1.429 . S
C1811 C1812 1.523 . S
C1812 C1793 1.368 . S
C1812 C1806 1.368 . S
C1812 C1811 1.523 . S
C1813 C1797 1.429 . S
C1813 C1809 1.429 . S
C1813 C1814 1.523 . S
C1814 C1798 1.368 . S
C1814 C1810 1.368 . S
C1814 C1813 1.523 . S
H1815 C1790 0.950 . S
H1816 C1792 0.950 . S
H1817 C1793 0.949 . S
H1818 C1795 0.950 . S
H1819 C1797 0.950 . S
C1820 C1821 1.349 . S
C1820 C1822 1.327 . S
C1820 H1845 0.950 . S
C1821 C1820 1.349 . S
C1821 C1837 1.349 . S
C1822 C1820 1.327 . S
C1822 C1841 1.429 . S
C1822 H1846 0.950 . S
C1823 C1840 1.574 . S
C1823 C1842 1.368 . S
C1823 H1847 0.949 . S
H1824 C1828 0.949 . S
C1825 C1826 1.349 . S
C1825 C1827 1.327 . S
C1825 H1848 0.950 . S
C1826 C1825 1.349 . S
C1826 C1838 1.349 . S
C1827 C1825 1.327 . S
C1827 C1843 1.429 . S
C1827 H1849 0.950 . S
C1828 H1824 0.949 . S
C1828 C1836 1.574 . S
C1828 C1844 1.368 . S
H1829 C1837 0.950 . S
H1830 C1835 0.950 . S
H1831 C1836 0.949 . S
H1832 C1838 0.950 . S
H1833 C1839 0.950 . S
H1834 C1840 0.949 . S
C1835 H1830 0.950 . S
C1835 C1837 1.327 . S
C1835 C1841 1.429 . S
C1836 C1828 1.574 . S
C1836 H1831 0.949 . S
C1836 C1842 1.368 . S
C1837 C1821 1.349 . S
C1837 H1829 0.950 . S
C1837 C1835 1.327 . S
C1838 C1826 1.349 . S
C1838 H1832 0.950 . S
C1838 C1839 1.327 . S
C1839 H1833 0.950 . S
C1839 C1838 1.327 . S
C1839 C1843 1.429 . S
C1840 C1823 1.574 . S
C1840 H1834 0.949 . S
C1840 C1844 1.368 . S
C1841 C1822 1.429 . S
C1841 C1835 1.429 . S
C1841 C1842 1.523 . S
C1842 C1823 1.368 . S
C1842 C1836 1.368 . S
C1842 C1841 1.523 . S
C1843 C1827 1.429 . S
C1843 C1839 1.429 . S
C1843 C1844 1.523 . S
C1844 C1828 1.368 . S
C1844 C1840 1.368 . S
C1844 C1843 1.523 . S
H1845 C1820 0.950 . S
H1846 C1822 0.950 . S
H1847 C1823 0.949 . S
H1848 C1825 0.950 . S
H1849 C1827 0.950 . S
C1850 C1851 1.348 1_556 S
C1850 C1852 1.327 1_556 S
C1850 H1875 0.950 . S
C1851 C1850 1.348 1_554 S
C1851 C1867 1.354 . S
C1852 C1850 1.327 1_554 S
C1852 C1871 1.429 . S
C1852 H1876 0.950 . S
C1853 C1870 1.574 . S
C1853 C1872 1.368 . S
C1853 H1877 0.949 . S
H1854 C1858 0.949 . S
C1855 C1856 1.349 . S
C1855 C1857 1.327 . S
C1855 H1878 0.950 . S
C1856 C1855 1.349 . S
C1856 C1868 1.349 . S
C1857 C1855 1.327 . S
C1857 C1873 1.429 . S
C1857 H1879 0.950 . S
C1858 H1854 0.949 . S
C1858 C1866 1.574 . S
C1858 C1874 1.368 . S
H1859 C1867 0.950 . S
H1860 C1865 0.950 . S
H1861 C1866 0.949 . S
H1862 C1868 0.950 . S
H1863 C1869 0.950 . S
H1864 C1870 0.949 . S
C1865 H1860 0.950 . S
C1865 C1867 1.327 . S
C1865 C1871 1.429 . S
C1866 C1858 1.574 . S
C1866 H1861 0.949 . S
C1866 C1872 1.368 . S
C1867 C1851 1.354 . S
C1867 H1859 0.950 . S
C1867 C1865 1.327 . S
C1868 C1856 1.349 . S
C1868 H1862 0.950 . S
C1868 C1869 1.327 . S
C1869 H1863 0.950 . S
C1869 C1868 1.327 . S
C1869 C1873 1.429 . S
C1870 C1853 1.574 . S
C1870 H1864 0.949 . S
C1870 C1874 1.368 . S
C1871 C1852 1.429 . S
C1871 C1865 1.429 . S
C1871 C1872 1.523 . S
C1872 C1853 1.368 . S
C1872 C1866 1.368 . S
C1872 C1871 1.523 . S
C1873 C1857 1.429 . S
C1873 C1869 1.429 . S
C1873 C1874 1.523 . S
C1874 C1858 1.368 . S
C1874 C1870 1.368 . S
C1874 C1873 1.523 . S
H1875 C1850 0.950 . S
H1876 C1852 0.950 . S
H1877 C1853 0.949 . S
H1878 C1855 0.950 . S
H1879 C1857 0.950 . S
C1880 C1881 1.349 . S
C1880 C1882 1.327 . S
C1880 H1905 0.950 . S
C1881 C1880 1.349 . S
C1881 C1897 1.349 . S
C1882 C1880 1.327 . S
C1882 C1901 1.429 . S
C1882 H1906 0.950 . S
C1883 C1900 1.574 . S
C1883 C1902 1.368 . S
C1883 H1907 0.949 . S
H1884 C1888 0.949 . S
C1885 C1886 1.349 . S
C1885 C1887 1.327 . S
C1885 H1908 0.950 . S
C1886 C1885 1.349 . S
C1886 C1898 1.349 . S
C1887 C1885 1.327 . S
C1887 C1903 1.429 . S
C1887 H1909 0.950 . S
C1888 H1884 0.949 . S
C1888 C1896 1.574 . S
C1888 C1904 1.368 . S
H1889 C1897 0.950 . S
H1890 C1895 0.950 . S
H1891 C1896 0.949 . S
H1892 C1898 0.950 . S
H1893 C1899 0.950 . S
H1894 C1900 0.949 . S
C1895 H1890 0.950 . S
C1895 C1897 1.327 . S
C1895 C1901 1.429 . S
C1896 C1888 1.574 . S
C1896 H1891 0.949 . S
C1896 C1902 1.368 . S
C1897 C1881 1.349 . S
C1897 H1889 0.950 . S
C1897 C1895 1.327 . S
C1898 C1886 1.349 . S
C1898 H1892 0.950 . S
C1898 C1899 1.327 . S
C1899 H1893 0.950 . S
C1899 C1898 1.327 . S
C1899 C1903 1.429 . S
C1900 C1883 1.574 . S
C1900 H1894 0.949 . S
C1900 C1904 1.368 . S
C1901 C1882 1.429 . S
C1901 C1895 1.429 . S
C1901 C1902 1.523 . S
C1902 C1883 1.368 . S
C1902 C1896 1.368 . S
C1902 C1901 1.523 . S
C1903 C1887 1.429 . S
C1903 C1899 1.429 . S
C1903 C1904 1.523 . S
C1904 C1888 1.368 . S
C1904 C1900 1.368 . S
C1904 C1903 1.523 . S
H1905 C1880 0.950 . S
H1906 C1882 0.950 . S
H1907 C1883 0.949 . S
H1908 C1885 0.950 . S
H1909 C1887 0.950 . S
C1910 C1911 1.349 . S
C1910 C1912 1.327 . S
C1910 H1935 0.950 . S
C1911 C1910 1.349 . S
C1911 C1927 1.349 . S
C1912 C1910 1.327 . S
C1912 C1931 1.429 . S
C1912 H1936 0.950 . S
C1913 C1930 1.574 . S
C1913 C1932 1.368 . S
C1913 H1937 0.949 . S
H1914 C1918 0.949 . S
C1915 C1916 1.349 . S
C1915 C1917 1.327 . S
C1915 H1938 0.950 . S
C1916 C1915 1.349 . S
C1916 C1928 1.349 . S
C1917 C1915 1.327 . S
C1917 C1933 1.429 . S
C1917 H1939 0.950 . S
C1918 H1914 0.949 . S
C1918 C1926 1.574 . S
C1918 C1934 1.368 . S
H1919 C1927 0.950 . S
H1920 C1925 0.950 . S
H1921 C1926 0.949 . S
H1922 C1928 0.950 . S
H1923 C1929 0.950 . S
H1924 C1930 0.949 . S
C1925 H1920 0.950 . S
C1925 C1927 1.327 . S
C1925 C1931 1.429 . S
C1926 C1918 1.574 . S
C1926 H1921 0.949 . S
C1926 C1932 1.368 . S
C1927 C1911 1.349 . S
C1927 H1919 0.950 . S
C1927 C1925 1.327 . S
C1928 C1916 1.349 . S
C1928 H1922 0.950 . S
C1928 C1929 1.327 . S
C1929 H1923 0.950 . S
C1929 C1928 1.327 . S
C1929 C1933 1.429 . S
C1930 C1913 1.574 . S
C1930 H1924 0.949 . S
C1930 C1934 1.368 . S
C1931 C1912 1.429 . S
C1931 C1925 1.429 . S
C1931 C1932 1.523 . S
C1932 C1913 1.368 . S
C1932 C1926 1.368 . S
C1932 C1931 1.523 . S
C1933 C1917 1.429 . S
C1933 C1929 1.429 . S
C1933 C1934 1.523 . S
C1934 C1918 1.368 . S
C1934 C1930 1.368 . S
C1934 C1933 1.523 . S
H1935 C1910 0.950 . S
H1936 C1912 0.950 . S
H1937 C1913 0.949 . S
H1938 C1915 0.950 . S
H1939 C1917 0.950 . S
C1940 C1941 1.349 . S
C1940 C1942 1.327 . S
C1940 H1965 0.950 . S
C1941 C1940 1.349 . S
C1941 C1957 1.349 . S
C1942 C1940 1.327 . S
C1942 C1961 1.429 . S
C1942 H1966 0.950 . S
C1943 C1960 1.574 . S
C1943 C1962 1.368 . S
C1943 H1967 0.949 . S
H1944 C1948 0.949 . S
C1945 C1946 1.349 . S
C1945 C1947 1.327 . S
C1945 H1968 0.950 . S
C1946 C1945 1.349 . S
C1946 C1958 1.349 . S
C1947 C1945 1.327 . S
C1947 C1963 1.429 . S
C1947 H1969 0.950 . S
C1948 H1944 0.949 . S
C1948 C1956 1.574 . S
C1948 C1964 1.368 . S
H1949 C1957 0.950 . S
H1950 C1955 0.950 . S
H1951 C1956 0.949 . S
H1952 C1958 0.950 . S
H1953 C1959 0.950 . S
H1954 C1960 0.949 . S
C1955 H1950 0.950 . S
C1955 C1957 1.327 . S
C1955 C1961 1.429 . S
C1956 C1948 1.574 . S
C1956 H1951 0.949 . S
C1956 C1962 1.368 . S
C1957 C1941 1.349 . S
C1957 H1949 0.950 . S
C1957 C1955 1.327 . S
C1958 C1946 1.349 . S
C1958 H1952 0.950 . S
C1958 C1959 1.327 . S
C1959 H1953 0.950 . S
C1959 C1958 1.327 . S
C1959 C1963 1.429 . S
C1960 C1943 1.574 . S
C1960 H1954 0.949 . S
C1960 C1964 1.368 . S
C1961 C1942 1.429 . S
C1961 C1955 1.429 . S
C1961 C1962 1.523 . S
C1962 C1943 1.368 . S
C1962 C1956 1.368 . S
C1962 C1961 1.523 . S
C1963 C1947 1.429 . S
C1963 C1959 1.429 . S
C1963 C1964 1.523 . S
C1964 C1948 1.368 . S
C1964 C1960 1.368 . S
C1964 C1963 1.523 . S
H1965 C1940 0.950 . S
H1966 C1942 0.950 . S
H1967 C1943 0.949 . S
H1968 C1945 0.950 . S
H1969 C1947 0.950 . S
C1970 C1971 1.349 . S
C1970 C1972 1.327 . S
C1970 H1995 0.950 . S
C1971 C1970 1.349 . S
C1971 C1987 1.349 . S
C1972 C1970 1.327 . S
C1972 C1991 1.429 . S
C1972 H1996 0.950 . S
C1973 C1990 1.574 . S
C1973 C1992 1.368 . S
C1973 H1997 0.949 . S
H1974 C1978 0.949 . S
C1975 C1976 1.349 . S
C1975 C1977 1.327 . S
C1975 H1998 0.950 . S
C1976 C1975 1.349 . S
C1976 C1988 1.349 . S
C1977 C1975 1.327 . S
C1977 C1993 1.429 . S
C1977 H1999 0.950 . S
C1978 H1974 0.949 . S
C1978 C1986 1.574 . S
C1978 C1994 1.368 . S
H1979 C1987 0.950 . S
H1980 C1985 0.950 . S
H1981 C1986 0.949 . S
H1982 C1988 0.950 . S
H1983 C1989 0.950 . S
H1984 C1990 0.949 . S
C1985 H1980 0.950 . S
C1985 C1987 1.327 . S
C1985 C1991 1.429 . S
C1986 C1978 1.574 . S
C1986 H1981 0.949 . S
C1986 C1992 1.368 . S
C1987 C1971 1.349 . S
C1987 H1979 0.950 . S
C1987 C1985 1.327 . S
C1988 C1976 1.349 . S
C1988 H1982 0.950 . S
C1988 C1989 1.327 . S
C1989 H1983 0.950 . S
C1989 C1988 1.327 . S
C1989 C1993 1.429 . S
C1990 C1973 1.574 . S
C1990 H1984 0.949 . S
C1990 C1994 1.368 . S
C1991 C1972 1.429 . S
C1991 C1985 1.429 . S
C1991 C1992 1.523 . S
C1992 C1973 1.368 . S
C1992 C1986 1.368 . S
C1992 C1991 1.523 . S
C1993 C1977 1.429 . S
C1993 C1989 1.429 . S
C1993 C1994 1.523 . S
C1994 C1978 1.368 . S
C1994 C1990 1.368 . S
C1994 C1993 1.523 . S
H1995 C1970 0.950 . S
H1996 C1972 0.950 . S
H1997 C1973 0.949 . S
H1998 C1975 0.950 . S
H1999 C1977 0.950 . S
C2000 C2001 1.349 . S
C2000 C2002 1.327 . S
C2000 H2025 0.950 . S
C2001 C2000 1.349 . S
C2001 C2017 1.349 . S
C2002 C2000 1.327 . S
C2002 C2021 1.429 . S
C2002 H2026 0.950 . S
C2003 C2020 1.574 . S
C2003 C2022 1.368 . S
C2003 H2027 0.949 . S
H2004 C2008 0.949 . S
C2005 C2006 1.349 1_554 S
C2005 C2007 1.327 . S
C2005 H2028 0.950 . S
C2006 C2005 1.349 1_556 S
C2006 C2018 1.349 . S
C2007 C2005 1.327 . S
C2007 C2023 1.429 1_554 S
C2007 H2029 0.950 . S
C2008 H2004 0.949 . S
C2008 C2016 1.574 . S
C2008 C2024 1.368 . S
H2009 C2017 0.950 . S
H2010 C2015 0.950 . S
H2011 C2016 0.949 . S
H2012 C2018 0.950 . S
H2013 C2019 0.950 . S
H2014 C2020 0.949 1_554 S
C2015 H2010 0.950 . S
C2015 C2017 1.327 . S
C2015 C2021 1.429 . S
C2016 C2008 1.574 . S
C2016 H2011 0.949 . S
C2016 C2022 1.368 . S
C2017 C2001 1.349 . S
C2017 H2009 0.950 . S
C2017 C2015 1.327 . S
C2018 C2006 1.349 . S
C2018 H2012 0.950 . S
C2018 C2019 1.327 . S
C2019 H2013 0.950 . S
C2019 C2018 1.327 . S
C2019 C2023 1.429 . S
C2020 C2003 1.574 . S
C2020 H2014 0.949 1_556 S
C2020 C2024 1.368 . S
C2021 C2002 1.429 . S
C2021 C2015 1.429 . S
C2021 C2022 1.523 . S
C2022 C2003 1.368 . S
C2022 C2016 1.368 . S
C2022 C2021 1.523 . S
C2023 C2007 1.429 1_556 S
C2023 C2019 1.429 . S
C2023 C2024 1.523 . S
C2024 C2008 1.368 . S
C2024 C2020 1.368 . S
C2024 C2023 1.523 . S
H2025 C2000 0.950 . S
H2026 C2002 0.950 . S
H2027 C2003 0.949 . S
H2028 C2005 0.950 . S
H2029 C2007 0.950 . S
C2030 C2031 1.349 . S
C2030 C2032 1.327 . S
C2030 H2055 0.950 . S
C2031 C2030 1.349 . S
C2031 C2047 1.349 . S
C2032 C2030 1.327 . S
C2032 C2051 1.429 . S
C2032 H2056 0.950 . S
C2033 C2050 1.574 . S
C2033 C2052 1.368 . S
C2033 H2057 0.949 . S
H2034 C2038 0.949 . S
C2035 C2036 1.349 . S
C2035 C2037 1.327 . S
C2035 H2058 0.950 . S
C2036 C2035 1.349 . S
C2036 C2048 1.349 . S
C2037 C2035 1.327 . S
C2037 C2053 1.429 . S
C2037 H2059 0.950 . S
C2038 H2034 0.949 . S
C2038 C2046 1.574 . S
C2038 C2054 1.368 . S
H2039 C2047 0.950 . S
H2040 C2045 0.950 . S
H2041 C2046 0.949 . S
H2042 C2048 0.950 . S
H2043 C2049 0.950 . S
H2044 C2050 0.949 . S
C2045 H2040 0.950 . S
C2045 C2047 1.327 . S
C2045 C2051 1.429 . S
C2046 C2038 1.574 . S
C2046 H2041 0.949 . S
C2046 C2052 1.368 . S
C2047 C2031 1.349 . S
C2047 H2039 0.950 . S
C2047 C2045 1.327 . S
C2048 C2036 1.349 . S
C2048 H2042 0.950 . S
C2048 C2049 1.327 . S
C2049 H2043 0.950 . S
C2049 C2048 1.327 . S
C2049 C2053 1.429 . S
C2050 C2033 1.574 . S
C2050 H2044 0.949 . S
C2050 C2054 1.368 . S
C2051 C2032 1.429 . S
C2051 C2045 1.429 . S
C2051 C2052 1.523 . S
C2052 C2033 1.368 . S
C2052 C2046 1.368 . S
C2052 C2051 1.523 . S
C2053 C2037 1.429 . S
C2053 C2049 1.429 . S
C2053 C2054 1.523 . S
C2054 C2038 1.368 . S
C2054 C2050 1.368 . S
C2054 C2053 1.523 . S
H2055 C2030 0.950 . S
H2056 C2032 0.950 . S
H2057 C2033 0.949 . S
H2058 C2035 0.950 . S
H2059 C2037 0.950 . S
C2060 C2061 1.349 . S
C2060 C2062 1.327 . S
C2060 H2085 0.950 . S
C2061 C2060 1.349 . S
C2061 C2077 1.349 . S
C2062 C2060 1.327 . S
C2062 C2081 1.429 . S
C2062 H2086 0.950 . S
C2063 C2080 1.574 . S
C2063 C2082 1.368 . S
C2063 H2087 0.949 . S
H2064 C2068 0.949 . S
C2065 C2066 1.349 . S
C2065 C2067 1.327 . S
C2065 H2088 0.950 . S
C2066 C2065 1.349 . S
C2066 C2078 1.349 . S
C2067 C2065 1.327 . S
C2067 C2083 1.429 . S
C2067 H2089 0.950 . S
C2068 H2064 0.949 . S
C2068 C2076 1.574 . S
C2068 C2084 1.368 . S
H2069 C2077 0.950 . S
H2070 C2075 0.950 . S
H2071 C2076 0.949 . S
H2072 C2078 0.950 . S
H2073 C2079 0.950 . S
H2074 C2080 0.949 . S
C2075 H2070 0.950 . S
C2075 C2077 1.327 . S
C2075 C2081 1.429 . S
C2076 C2068 1.574 . S
C2076 H2071 0.949 . S
C2076 C2082 1.368 . S
C2077 C2061 1.349 . S
C2077 H2069 0.950 . S
C2077 C2075 1.327 . S
C2078 C2066 1.349 . S
C2078 H2072 0.950 . S
C2078 C2079 1.327 . S
C2079 H2073 0.950 . S
C2079 C2078 1.327 . S
C2079 C2083 1.429 . S
C2080 C2063 1.574 . S
C2080 H2074 0.949 . S
C2080 C2084 1.368 . S
C2081 C2062 1.429 . S
C2081 C2075 1.429 . S
C2081 C2082 1.523 . S
C2082 C2063 1.368 . S
C2082 C2076 1.368 . S
C2082 C2081 1.523 . S
C2083 C2067 1.429 . S
C2083 C2079 1.429 . S
C2083 C2084 1.523 . S
C2084 C2068 1.368 . S
C2084 C2080 1.368 . S
C2084 C2083 1.523 . S
H2085 C2060 0.950 . S
H2086 C2062 0.950 . S
H2087 C2063 0.949 . S
H2088 C2065 0.950 . S
H2089 C2067 0.950 . S
C2090 C2091 1.349 . S
C2090 C2092 1.327 . S
C2090 H2115 0.950 . S
C2091 C2090 1.349 . S
C2091 C2107 1.349 1_565 S
C2092 C2090 1.327 . S
C2092 C2111 1.429 . S
C2092 H2116 0.950 . S
C2093 C2110 1.574 . S
C2093 C2112 1.368 . S
C2093 H2117 0.949 . S
H2094 C2098 0.949 . S
C2095 C2096 1.349 . S
C2095 C2097 1.327 . S
C2095 H2118 0.950 1_554 S
C2096 C2095 1.349 . S
C2096 C2108 1.349 . S
C2097 C2095 1.327 . S
C2097 C2113 1.429 . S
C2097 H2119 0.950 1_554 S
C2098 H2094 0.949 . S
C2098 C2106 1.574 . S
C2098 C2114 1.368 . S
H2099 C2107 0.950 . S
H2100 C2105 0.950 . S
H2101 C2106 0.949 . S
H2102 C2108 0.950 . S
H2103 C2109 0.950 . S
H2104 C2110 0.949 . S
C2105 H2100 0.950 . S
C2105 C2107 1.327 1_565 S
C2105 C2111 1.429 . S
C2106 C2098 1.574 . S
C2106 H2101 0.949 . S
C2106 C2112 1.368 . S
C2107 C2091 1.349 1_545 S
C2107 H2099 0.950 . S
C2107 C2105 1.327 1_545 S
C2108 C2096 1.349 . S
C2108 H2102 0.950 . S
C2108 C2109 1.327 . S
C2109 H2103 0.950 . S
C2109 C2108 1.327 . S
C2109 C2113 1.429 . S
C2110 C2093 1.574 . S
C2110 H2104 0.949 . S
C2110 C2114 1.368 . S
C2111 C2092 1.429 . S
C2111 C2105 1.429 . S
C2111 C2112 1.523 . S
C2112 C2093 1.368 . S
C2112 C2106 1.368 . S
C2112 C2111 1.523 . S
C2113 C2097 1.429 . S
C2113 C2109 1.429 . S
C2113 C2114 1.523 . S
C2114 C2098 1.368 . S
C2114 C2110 1.368 . S
C2114 C2113 1.523 . S
H2115 C2090 0.950 . S
H2116 C2092 0.950 . S
H2117 C2093 0.949 . S
H2118 C2095 0.950 1_556 S
H2119 C2097 0.950 1_556 S
C686 C520 1.455 . S
C681 C177 1.454 . S
C716 C533 1.497 . S
C711 C209 1.453 1_455 S
C741 C253 1.564 . S
C746 C553 1.515 . S
C776 C567 1.373 . S
C771 C157 1.428 . S
C806 C579 1.533 . S
C801 C343 1.512 . S
C836 C593 1.400 . S
C831 C401 1.376 . S
C861 C369 1.498 . S
C866 C603 1.510 . S
C896 C618 1.497 . S
C891 C317 1.490 . S
C921 C375 1.513 . S
C926 C632 1.507 . S
C956 C651 1.390 . S
C951 C305 1.440 . S
C981 C349 1.492 . S
C986 C631 1.514 . S
C1016 C649 1.418 . S
C1011 C413 1.385 . S
C1041 C241 1.595 . S
C1046 C665 1.530 . S
C1071 C151 1.433 . S
C1076 C659 1.441 . S
C1101 C189 1.496 . S
C1106 C663 1.526 . S
C1131 C215 1.506 . S
C1136 C660 1.510 . S
C1161 C113 1.488 . S
C1166 C562 1.483 . S
C1191 C471 1.444 . S
C1196 C561 1.464 . S
C1226 C525 1.364 . S
C1221 C509 1.396 . S
C1256 C539 1.550 . S
C1251 C279 1.607 . S
C1281 C145 1.481 . S
C1286 C576 1.461 . S
C1316 C621 1.568 . S
C1311 C381 1.543 . S
C1346 C575 1.487 . S
C1341 C311 1.460 1_545 S
C1376 C607 1.398 . S
C1371 C407 1.372 . S
C1406 C604 1.455 . S
C1401 C465 1.454 . S
C1431 C497 1.470 . S
C1436 C617 1.497 . S
C1461 C285 1.563 . S
C1466 C581 1.515 . S
C1496 C595 1.373 . S
C1491 C445 1.428 . S
C1521 C119 1.512 . S
C1526 C551 1.533 . S
C1556 C565 1.400 . S
C1551 C17 1.329 1_655 S
C1586 C519 1.510 . S
C1581 C49 1.498 . S
C1616 C534 1.497 . S
C1611 C93 1.490 . S
C1641 C55 1.513 . S
C1646 C646 1.507 . S
C1671 C81 1.440 . S
C1676 C637 1.390 . S
C1701 C125 1.492 . S
C1706 C645 1.514 . S
C1731 C29 1.385 . S
C1736 C635 1.418 . S
C1766 C679 1.530 . S
C1761 C273 1.595 . S
C1796 C673 1.441 . S
C1791 C439 1.433 1_554 S
C1826 C677 1.526 . S
C1821 C477 1.496 . S
C1851 C503 1.502 1_554 S
C1856 C674 1.510 . S
C1881 C337 1.488 . S
C1886 C590 1.483 . S
C1916 C589 1.464 . S
C1911 C183 1.444 . S
C1946 C609 1.363 . S
C1941 C221 1.396 . S
C1976 C623 1.550 . S
C1971 C247 1.607 . S
C2001 C433 1.481 . S
C2006 C548 1.461 . S
C2036 C537 1.568 . S
C2031 C61 1.543 . S
C2061 C87 1.460 . S
C2066 C547 1.487 . S
C2096 C523 1.398 . S
C2091 C23 1.372 1_565 S
