# Generated by pormake.
# Topology anh, (6,3)-cn, num edge types: 1
# Building blocks:
#     Node 0, Type 0, BuildingBlock: HISSIN_clean_sbu_0, # of connection points: 6
#     Node 1, Type 0, BuildingBlock: HISSIN_clean_sbu_0, # of connection points: 6
#     Node 2, Type 0, BuildingBlock: HISSIN_clean_sbu_0, # of connection points: 6
#     Node 3, Type 1, BuildingBlock: CUQRIR_clean_linker_1, # of connection points: 3
#     Node 4, Type 1, BuildingBlock: CUQRIR_clean_linker_1, # of connection points: 3
#     Node 5, Type 1, BuildingBlock: CUQRIR_clean_linker_1, # of connection points: 3
#     Node 6, Type 1, BuildingBlock: CUQRIR_clean_linker_1, # of connection points: 3
#     Node 7, Type 1, BuildingBlock: CUQRIR_clean_linker_1, # of connection points: 3
#     Node 8, Type 1, BuildingBlock: CUQRIR_clean_linker_1, # of connection points: 3
#     Edge 9, Type (0, 1), BuildingBlock: ZUJKAS_clean_linker_0, # of connection points: 2
#     Edge 10, Type (0, 1), BuildingBlock: ZUJKAS_clean_linker_0, # of connection points: 2
#     Edge 11, Type (0, 1), BuildingBlock: ZUJKAS_clean_linker_0, # of connection points: 2
#     Edge 12, Type (0, 1), BuildingBlock: ZUJKAS_clean_linker_0, # of connection points: 2
#     Edge 13, Type (0, 1), BuildingBlock: ZUJKAS_clean_linker_0, # of connection points: 2
#     Edge 14, Type (0, 1), BuildingBlock: ZUJKAS_clean_linker_0, # of connection points: 2
#     Edge 15, Type (0, 1), BuildingBlock: ZUJKAS_clean_linker_0, # of connection points: 2
#     Edge 16, Type (0, 1), BuildingBlock: ZUJKAS_clean_linker_0, # of connection points: 2
#     Edge 17, Type (0, 1), BuildingBlock: ZUJKAS_clean_linker_0, # of connection points: 2
#     Edge 18, Type (0, 1), BuildingBlock: ZUJKAS_clean_linker_0, # of connection points: 2
#     Edge 19, Type (0, 1), BuildingBlock: ZUJKAS_clean_linker_0, # of connection points: 2
#     Edge 20, Type (0, 1), BuildingBlock: ZUJKAS_clean_linker_0, # of connection points: 2
#     Edge 21, Type (0, 1), BuildingBlock: ZUJKAS_clean_linker_0, # of connection points: 2
#     Edge 22, Type (0, 1), BuildingBlock: ZUJKAS_clean_linker_0, # of connection points: 2
#     Edge 23, Type (0, 1), BuildingBlock: ZUJKAS_clean_linker_0, # of connection points: 2
#     Edge 24, Type (0, 1), BuildingBlock: ZUJKAS_clean_linker_0, # of connection points: 2
#     Edge 25, Type (0, 1), BuildingBlock: ZUJKAS_clean_linker_0, # of connection points: 2
#     Edge 26, Type (0, 1), BuildingBlock: ZUJKAS_clean_linker_0, # of connection points: 2
# Relax obj value: 0.224
# Max RMSD: 0.204
# Mean RMSD: 0.155
data_MOF--net-anh--node1-HISSIN_clean_sbu_0--node2-CUQRIR_clean_linker_1--edge1-ZUJKAS_clean_linker_0
_symmetry_space_group_name_H-M    P1
_symmetry_Int_Tables_number       1
_symmetry_cell_setting            triclinic
loop_
_symmetry_equiv_pos_as_xyz
'x, y, z'
_cell_length_a     39.046042
_cell_length_b     39.045
_cell_length_c     61.885533
_cell_angle_alpha  89.55299
_cell_angle_beta   90.288213
_cell_angle_gamma 119.9253
loop_
_atom_site_label
_atom_site_type_symbol
_atom_site_fract_x
_atom_site_fract_y
_atom_site_fract_z
_atom_type_partial_charge
Eu0 Eu 1.0458 0.48861 0.16385 0.0
Eu1 Eu 0.09158 0.58184 0.16311 0.0
C2 C 0.06326 0.53559 0.20885 0.0
C3 C 0.97608 0.38411 0.18183 0.0
C4 C 0.96361 0.39799 0.19922 0.0
C5 C 0.9223 0.31777 0.18875 0.0
C6 C 0.93045 0.372 0.21119 0.0
C7 C 0.95566 0.34385 0.17683 0.0
C8 C 0.909 0.33174 0.20583 0.0
C9 C 1.00939 0.4119 0.16848 0.0
O10 O 0.14428 0.57023 0.15617 0.0
O11 O 0.11281 0.50404 0.16332 0.0
C12 C 0.14639 0.53736 0.15873 0.0
O13 O 0.05941 0.50039 0.12864 0.0
O14 O 0.14188 0.63904 0.17203 0.0
O15 O 0.09195 0.63641 0.15519 0.0
O16 O 0.08411 0.5674 0.12765 0.0
C17 C 0.07212 0.53356 0.11791 0.0
O18 O 0.99305 0.5009 0.1572 0.0
O19 O 1.02491 0.56671 0.16486 0.0
O20 O 0.0907 0.56687 0.19876 0.0
O21 O 1.00093 0.42981 0.15327 0.0
O22 O 1.04129 0.43607 0.17906 0.0
O23 O 1.0378 0.50488 0.19777 0.0
C24 C 0.15507 0.69184 0.14802 0.0
C25 C 0.14368 0.6976 0.1273 0.0
C26 C 0.21743 0.75277 0.14386 0.0
C27 C 0.16873 0.73127 0.11517 0.0
C28 C 0.19238 0.71938 0.156 0.0
C29 C 0.20563 0.7595 0.12349 0.0
C30 C 0.12782 0.65901 0.16217 0.0
C31 C 0.99126 0.5339 0.15989 0.0
H32 H 0.97907 0.42906 0.20328 0.0
H33 H 0.90606 0.28702 0.18403 0.0
H34 H 0.92118 0.38356 0.22439 0.0
H35 H 0.96493 0.33277 0.16339 0.0
H36 H 0.11506 0.67673 0.12067 0.0
H37 H 0.24527 0.77433 0.15099 0.0
H38 H 0.15891 0.73569 0.09953 0.0
H39 H 0.2017 0.71575 0.17196 0.0
Eu40 Eu 0.63184 1.03279 0.49498 0.0
Eu41 Eu 0.58429 0.0782 0.49608 0.0
C42 C 0.60838 0.05471 0.54175 0.0
C43 C 0.66738 0.95742 0.49231 0.0
C44 C 0.70035 0.95258 0.49026 0.0
C45 C 0.62634 0.88741 0.49982 0.0
C46 C 0.69667 0.91558 0.49369 0.0
C47 C 0.63006 0.92449 0.49633 0.0
C48 C 0.65991 0.88295 0.4993 0.0
C49 C 0.67354 0.99741 0.49371 0.0
O50 O 0.64951 0.13259 0.49477 0.0
O51 O 0.68289 0.09912 0.48963 0.0
C52 C 0.68379 0.13372 0.49111 0.0
O53 O 0.60266 1.02398 0.46241 0.0
O54 O 0.57062 0.12383 0.50564 0.0
O55 O 0.53451 0.08038 0.48169 0.0
O56 O 0.60955 0.08452 0.46288 0.0
C57 C 0.60392 0.05374 0.45201 0.0
O58 O 0.56699 0.97798 0.49666 0.0
O59 O 0.53326 1.01151 0.49276 0.0
O60 O 0.58532 0.06544 0.53187 0.0
O61 O 0.66581 1.01208 0.47662 0.0
O62 O 0.66067 1.00488 0.51141 0.0
O63 O 0.63069 0.04478 0.5307 0.0
C64 C 0.54862 0.1452 0.47584 0.0
C65 C 0.57458 0.15501 0.4583 0.0
C66 C 0.53753 0.19908 0.46616 0.0
C67 C 0.58269 0.1872 0.44505 0.0
C68 C 0.52931 0.16668 0.47938 0.0
C69 C 0.56524 0.21036 0.44927 0.0
C70 C 0.54334 0.11375 0.49084 0.0
C71 C 0.53245 0.97692 0.49403 0.0
H72 H 0.72938 0.97785 0.48732 0.0
H73 H 0.59759 0.86264 0.50385 0.0
H74 H 0.72315 0.91322 0.49339 0.0
H75 H 0.6043 0.92789 0.49798 0.0
H76 H 0.58967 0.13864 0.45532 0.0
H77 H 0.52413 0.21676 0.47007 0.0
H78 H 0.60403 0.1951 0.43214 0.0
H79 H 0.50914 0.15939 0.49283 0.0
Eu80 Eu 0.58215 0.56888 0.83092 0.0
Eu81 Eu 0.67592 0.61846 0.83004 0.0
C82 C 0.63102 0.59572 0.87676 0.0
C83 C 0.47717 0.53864 0.84556 0.0
C84 C 0.44729 0.50765 0.85757 0.0
C85 C 0.45518 0.58287 0.85873 0.0
C86 C 0.42153 0.51418 0.87012 0.0
C87 C 0.48122 0.57645 0.84638 0.0
C88 C 0.42512 0.55179 0.87069 0.0
C89 C 0.50534 0.53162 0.83348 0.0
O90 O 0.66348 0.55291 0.82458 0.0
O91 O 0.59693 0.5174 0.83078 0.0
C92 C 0.63059 0.51769 0.82679 0.0
O93 O 0.59599 0.55859 0.79705 0.0
O94 O 0.73394 0.62765 0.83914 0.0
O95 O 0.72964 0.66999 0.8183 0.0
O96 O 0.6593 0.60996 0.79512 0.0
C97 C 0.628 0.58133 0.78596 0.0
O98 O 0.59402 0.63434 0.8263 0.0
O99 O 0.66104 0.67001 0.83006 0.0
O100 O 0.66458 0.61154 0.86615 0.0
O101 O 0.52509 0.55658 0.81799 0.0
O102 O 0.52755 0.52278 0.84532 0.0
O103 O 0.59706 0.58045 0.86652 0.0
C104 C 0.77978 0.6558 0.81081 0.0
C105 C 0.81774 0.68815 0.80786 0.0
C106 C 0.7941 0.61838 0.78489 0.0
C107 C 0.84419 0.68533 0.79387 0.0
C108 C 0.76761 0.62139 0.7987 0.0
C109 C 0.8331 0.64991 0.7828 0.0
C110 C 0.75275 0.65804 0.8263 0.0
C111 C 0.627 0.6696 0.82707 0.0
H112 H 0.44401 0.4784 0.85731 0.0
H113 H 0.45855 0.61214 0.85899 0.0
H114 H 0.39823 0.48963 0.87898 0.0
H115 H 0.50455 0.60106 0.83757 0.0
H116 H 0.82721 0.71524 0.81674 0.0
H117 H 0.78459 0.59051 0.77686 0.0
H118 H 0.87379 0.71038 0.79234 0.0
H119 H 0.73803 0.59637 0.80047 0.0
C120 C 0.48669 0.09514 0.20704 0.0
N121 N 0.50295 0.09835 0.22679 0.0
N122 N 0.44798 0.06712 0.20729 0.0
C123 C 0.50992 0.11553 0.18701 0.0
C124 C 0.44151 0.05308 0.22785 0.0
N125 N 0.47492 0.07216 0.23972 0.0
C126 C 0.40276 1.02015 0.23605 0.0
H127 H 0.5181 0.14711 0.18748 0.0
H128 H 0.49294 0.10225 0.17202 0.0
H129 H 0.53772 0.11433 0.18661 0.0
H130 H 0.402 0.99161 0.23385 0.0
H131 H 0.37779 1.0191 0.22684 0.0
H132 H 0.39925 1.02389 0.25352 0.0
C133 C 0.74831 0.583 0.53874 0.0
N134 N 0.74204 0.58917 0.55947 0.0
N135 N 0.73939 0.54512 0.53577 0.0
C136 C 0.75746 0.61234 0.52061 0.0
C137 C 0.72862 0.52869 0.55573 0.0
N138 N 0.73001 0.55536 0.57007 0.0
C139 C 0.71274 0.48556 0.56056 0.0
H140 H 0.73189 0.61695 0.51803 0.0
H141 H 0.76414 0.60214 0.50535 0.0
H142 H 0.78333 0.64119 0.52497 0.0
H143 H 0.72974 0.47446 0.55163 0.0
H144 H 0.68152 0.46858 0.55513 0.0
H145 H 0.71426 0.48031 0.57809 0.0
C146 C 0.06567 0.51715 0.85692 0.0
N147 N 0.07009 0.51331 0.87835 0.0
N148 N 1.03156 0.51712 0.85307 0.0
C149 C 0.09665 0.52553 0.84009 0.0
C150 C 1.01564 0.51372 0.87291 0.0
N151 N 1.03899 0.51118 0.8883 0.0
C152 C 0.97756 0.51325 0.87711 0.0
H153 H 0.09286 0.54023 0.82561 0.0
H154 H 0.09413 0.49717 0.83501 0.0
H155 H 0.12671 0.54445 0.84681 0.0
H156 H 0.95729 0.5008 0.86308 0.0
H157 H 0.98395 0.54402 0.87953 0.0
H158 H 0.96296 0.49579 0.89186 0.0
C159 C 0.10671 0.55513 0.47457 0.0
N160 N 0.07846 0.52764 0.46023 0.0
N161 N 0.13834 0.58765 0.46434 0.0
C162 C 0.10449 0.54979 0.49858 0.0
C163 C 0.12791 0.57851 0.44332 0.0
N164 N 0.09329 0.54351 0.44078 0.0
C165 C 0.15232 0.60406 0.42469 0.0
H166 H 0.08496 0.56021 0.50521 0.0
H167 H 0.13419 0.56738 0.50598 0.0
H168 H 0.09185 0.5181 0.50285 0.0
H169 H 0.16998 0.59149 0.41801 0.0
H170 H 0.17289 0.63487 0.42969 0.0
H171 H 0.13297 0.60444 0.4116 0.0
C172 C 0.62564 0.0914 0.80699 0.0
N173 N 0.62447 0.06233 0.79318 0.0
N174 N 0.62607 0.12334 0.79615 0.0
C175 C 0.62367 0.08758 0.83109 0.0
C176 C 0.62599 0.1125 0.7753 0.0
N177 N 0.62425 0.07677 0.77345 0.0
C178 C 0.63003 0.13838 0.75609 0.0
H179 H 0.60529 0.05614 0.83599 0.0
H180 H 0.61138 0.10523 0.83812 0.0
H181 H 0.65398 0.09894 0.83753 0.0
H182 H 0.64605 0.17012 0.76046 0.0
H183 H 0.60017 0.13038 0.75005 0.0
H184 H 0.64627 0.13406 0.74271 0.0
C185 C 0.57164 0.53967 0.14078 0.0
N186 N 0.60243 0.54439 0.12712 0.0
N187 N 0.54214 0.54416 0.1303 0.0
C188 C 0.57121 0.53291 0.16463 0.0
C189 C 0.55634 0.55129 0.10977 0.0
N190 N 0.59147 0.55169 0.10781 0.0
C191 C 0.53481 0.55692 0.09096 0.0
H192 H 0.55924 0.50092 0.16775 0.0
H193 H 0.55204 0.54219 0.17292 0.0
H194 H 0.60164 0.54933 0.17128 0.0
H195 H 0.54561 0.58895 0.08883 0.0
H196 H 0.50247 0.54154 0.09381 0.0
H197 H 0.54027 0.5457 0.07571 0.0
H198 H 0.16629 0.47659 0.1647 0.0
H199 H 0.22981 0.47795 0.16153 0.0
H200 H 0.28617 0.6005 0.14319 0.0
H201 H 0.2232 0.59939 0.14708 0.0
H202 H 0.28268 0.48292 0.13607 0.0
H203 H 0.37425 0.62155 0.17968 0.0
H204 H 0.32127 0.5989 0.17895 0.0
H205 H 0.35091 0.62969 0.15681 0.0
C206 C 0.19205 0.50425 0.16016 0.0
C207 C 0.1875 0.53795 0.15648 0.0
C208 C 0.22948 0.50504 0.15823 0.0
C209 C 0.26586 0.53965 0.15257 0.0
C210 C 0.26095 0.57311 0.14847 0.0
H211 H 0.52299 0.60354 0.12689 0.0
H212 H 0.45948 0.60115 0.13226 0.0
C213 C 0.22362 0.57236 0.15048 0.0
C214 C 0.30735 0.5403 0.1506 0.0
H215 H 0.40908 0.59651 0.16028 0.0
C216 C 0.30992 0.50804 0.14165 0.0
C217 C 0.34518 0.57215 0.15754 0.0
C218 C 0.3479 0.60734 0.16898 0.0
C219 C 0.34655 0.50716 0.13901 0.0
C220 C 0.38437 0.53917 0.14577 0.0
C221 C 0.38179 0.57136 0.15476 0.0
C222 C 0.42605 0.54045 0.14331 0.0
C223 C 0.34403 0.47171 0.12801 0.0
C224 C 0.43249 0.50804 0.14805 0.0
C225 C 0.47017 0.50961 0.14512 0.0
C226 C 0.50471 0.54389 0.13741 0.0
C227 C 0.49854 0.57645 0.13317 0.0
C228 C 0.4611 0.57494 0.13621 0.0
H229 H 0.31705 0.45628 0.11784 0.0
H230 H 0.37021 0.48022 0.11763 0.0
H231 H 0.34256 0.45043 0.14046 0.0
H232 H 0.40813 0.48079 0.15417 0.0
H233 H 0.47182 0.4832 0.14838 0.0
H234 H 0.76432 0.15184 0.49225 0.0
H235 H 0.82652 0.21479 0.48843 0.0
H236 H 0.76046 0.27447 0.47765 0.0
H237 H 0.69873 0.21212 0.48294 0.0
H238 H 0.87409 0.26745 0.46638 0.0
H239 H 0.83254 0.36376 0.50929 0.0
H240 H 0.80114 0.31098 0.50962 0.0
H241 H 0.79945 0.34016 0.48721 0.0
C242 C 0.76252 0.17828 0.48936 0.0
C243 C 0.72431 0.17476 0.48836 0.0
C244 C 0.79925 0.21549 0.487 0.0
C245 C 0.80136 0.25276 0.4832 0.0
C246 C 0.76287 0.24879 0.48159 0.0
H247 H 1.04407 0.45698 0.43639 0.0
H248 H 0.98119 0.39667 0.44058 0.0
C249 C 0.72618 0.21172 0.48438 0.0
C250 C 0.84264 0.29392 0.48045 0.0
H251 H 0.89075 0.39633 0.48838 0.0
C252 C 0.87689 0.29522 0.47143 0.0
C253 C 0.85014 0.33251 0.48706 0.0
C254 C 0.81909 0.33691 0.49904 0.0
C255 C 0.91516 0.33093 0.46874 0.0
C256 C 0.92195 0.36979 0.47411 0.0
C257 C 0.88794 0.36846 0.48349 0.0
C258 C 0.96301 0.41088 0.47072 0.0
C259 C 0.94862 0.32546 0.46096 0.0
C260 C 0.97694 0.44407 0.48494 0.0
C261 C 1.01377 0.48111 0.48185 0.0
C262 C 1.04019 0.4884 0.46423 0.0
C263 C 1.02621 0.45531 0.45004 0.0
C264 C 0.98925 0.41877 0.45293 0.0
H265 H 0.9435 0.2955 0.46504 0.0
H266 H 0.95062 0.32847 0.4431 0.0
H267 H 0.97722 0.34747 0.46821 0.0
H268 H 0.95923 0.44155 0.4989 0.0
H269 H 1.02101 0.50443 0.49337 0.0
H270 H 0.68844 0.74838 0.81818 0.0
H271 H 0.68696 0.81006 0.81287 0.0
H272 H 0.56216 0.74762 0.82581 0.0
H273 H 0.5634 0.68582 0.82959 0.0
H274 H 0.68213 0.86445 0.82731 0.0
H275 H 0.54213 0.80425 0.78284 0.0
H276 H 0.53407 0.78056 0.80866 0.0
H277 H 0.56421 0.77438 0.78867 0.0
C278 C 0.66026 0.74719 0.8197 0.0
C279 C 0.62601 0.70989 0.82424 0.0
C280 C 0.65936 0.78362 0.81665 0.0
C281 C 0.62418 0.78633 0.81802 0.0
C282 C 0.59014 0.74901 0.82324 0.0
H283 H 0.58512 0.98914 0.77151 0.0
H284 H 0.58795 0.92885 0.777 0.0
C285 C 0.59091 0.71244 0.82586 0.0
C286 C 0.62374 0.82723 0.81456 0.0
H287 H 0.56767 0.86892 0.79614 0.0
C288 C 0.65671 0.86459 0.82034 0.0
C289 C 0.59196 0.83104 0.80501 0.0
C290 C 0.5563 0.79556 0.79571 0.0
C291 C 0.6587 0.90262 0.81735 0.0
C292 C 0.62604 0.9062 0.80893 0.0
C293 C 0.59327 0.86888 0.80291 0.0
C294 C 0.62541 0.94701 0.80545 0.0
C295 C 0.69749 0.93895 0.82254 0.0
C296 C 0.64477 0.98101 0.81915 0.0
C297 C 0.64439 1.01761 0.8154 0.0
C298 C 0.62371 1.02335 0.79791 0.0
C299 C 0.60312 0.98892 0.78473 0.0
C300 C 0.60413 0.95272 0.78825 0.0
H301 H 0.72248 0.93302 0.82161 0.0
H302 H 0.70371 0.9636 0.81126 0.0
H303 H 0.69654 0.94825 0.83932 0.0
H304 H 0.66028 0.97966 0.83331 0.0
H305 H 0.66109 0.04178 0.82637 0.0
H306 H 0.91562 0.47649 0.14315 0.0
H307 H 0.85413 0.47866 0.13816 0.0
H308 H 0.90965 0.59408 0.16672 0.0
H309 H 0.97133 0.59268 0.1705 0.0
H310 H 0.7955 0.47633 0.15377 0.0
H311 H 0.86197 0.63012 0.12589 0.0
H312 H 0.89129 0.6067 0.12933 0.0
H313 H 0.88034 0.62829 0.15216 0.0
C314 C 0.91535 0.5028 0.14827 0.0
C315 C 0.95074 0.53453 0.15719 0.0
C316 C 0.87904 0.50409 0.14538 0.0
C317 C 0.87466 0.53715 0.1512 0.0
C318 C 0.90991 0.56834 0.16071 0.0
H319 H 0.67851 0.58973 0.10927 0.0
H320 H 0.73819 0.58546 0.11438 0.0
C321 C 0.94631 0.5673 0.1633 0.0
C322 C 0.83417 0.53836 0.14781 0.0
H323 H 0.79477 0.59957 0.13593 0.0
C324 C 0.79617 0.50372 0.1498 0.0
C325 C 0.83158 0.5729 0.14201 0.0
C326 C 0.86838 0.61149 0.13698 0.0
C327 C 0.75857 0.50264 0.14673 0.0
C328 C 0.75599 0.5376 0.14207 0.0
C329 C 0.79401 0.57209 0.13976 0.0
C330 C 0.71566 0.53918 0.13874 0.0
C331 C 0.72174 0.46266 0.14769 0.0
C332 C 0.67951 0.51547 0.15037 0.0
C333 C 0.6435 0.51707 0.14684 0.0
C334 C 0.64046 0.54319 0.13165 0.0
C335 C 0.67686 0.56778 0.12057 0.0
C336 C 0.71257 0.56576 0.1239 0.0
H337 H 0.72818 0.43862 0.14408 0.0
H338 H 0.70933 0.45742 0.16427 0.0
H339 H 0.69915 0.46064 0.13601 0.0
H340 H 0.6787 0.49545 0.16275 0.0
H341 H 0.61767 0.49705 0.15608 0.0
H342 H 0.51497 0.89627 0.49406 0.0
H343 H 0.45173 0.83396 0.49023 0.0
H344 H 0.39057 0.89971 0.4862 0.0
H345 H 0.45355 0.96161 0.4894 0.0
H346 H 0.38571 0.78638 0.5082 0.0
H347 H 0.32765 0.8324 0.43969 0.0
H348 H 0.37764 0.86272 0.44903 0.0
H349 H 0.33736 0.86422 0.46234 0.0
C350 C 0.4883 0.89801 0.49223 0.0
C351 C 0.49157 0.93616 0.49202 0.0
C352 C 0.45102 0.86132 0.49 0.0
C353 C 0.4137 0.85942 0.48715 0.0
C354 C 0.41711 0.89766 0.48737 0.0
H355 H 0.15302 0.66449 0.47003 0.0
H356 H 0.21624 0.72614 0.47571 0.0
C357 C 0.45428 0.93426 0.48956 0.0
C358 C 0.37246 0.81862 0.48447 0.0
H359 H 0.28186 0.77278 0.45712 0.0
C360 C 0.36354 0.78407 0.49679 0.0
C361 C 0.34107 0.81246 0.4698 0.0
C362 C 0.34642 0.8447 0.4543 0.0
C363 C 0.32651 0.74665 0.49546 0.0
C364 C 0.29508 0.74059 0.48086 0.0
C365 C 0.30403 0.7751 0.46854 0.0
C366 C 0.25371 0.69996 0.4782 0.0
C367 C 0.32123 0.71413 0.51071 0.0
C368 C 0.24994 0.66155 0.47735 0.0
C369 C 0.21265 0.62531 0.47427 0.0
C370 C 0.17573 0.62415 0.47202 0.0
C371 C 0.17933 0.66236 0.4726 0.0
C372 C 0.21662 0.69862 0.4756 0.0
H373 H 0.3403 0.72611 0.52524 0.0
H374 H 0.29007 0.69619 0.5161 0.0
H375 H 0.32988 0.69454 0.50237 0.0
H376 H 0.27637 0.65925 0.47824 0.0
H377 H 0.21304 0.59788 0.47292 0.0
H378 H 0.68843 0.50015 0.8099 0.0
H379 H 0.68703 0.4367 0.80596 0.0
H380 H 0.57288 0.37703 0.83632 0.0
H381 H 0.57334 0.43965 0.83892 0.0
H382 H 0.69062 0.38135 0.82255 0.0
H383 H 0.53608 0.29246 0.79685 0.0
H384 H 0.55912 0.34518 0.7994 0.0
H385 H 0.53831 0.31335 0.82279 0.0
C386 C 0.66256 0.47361 0.8156 0.0
C387 C 0.63081 0.47706 0.82461 0.0
C388 C 0.66173 0.4362 0.81335 0.0
C389 C 0.6292 0.39893 0.82001 0.0
C390 C 0.59811 0.40289 0.82966 0.0
H391 H 0.57677 0.1508 0.78145 0.0
H392 H 0.58005 0.21419 0.78685 0.0
C393 C 0.59862 0.44005 0.83154 0.0
C394 C 0.6283 0.35742 0.81735 0.0
H395 H 0.56712 0.25651 0.8078 0.0
C396 C 0.6632 0.35441 0.81921 0.0
C397 C 0.59369 0.32007 0.81243 0.0
C398 C 0.5548 0.31786 0.8075 0.0
C399 C 0.66445 0.31794 0.81679 0.0
C400 C 0.62943 0.28023 0.81303 0.0
C401 C 0.59468 0.28342 0.81092 0.0
C402 C 0.6279 0.23841 0.81017 0.0
C403 C 0.70455 0.32126 0.81744 0.0
C404 C 0.65257 0.22633 0.82137 0.0
C405 C 0.65123 0.1889 0.81776 0.0
C406 C 0.62442 0.15994 0.80301 0.0
C407 C 0.59857 0.17112 0.79273 0.0
C408 C 0.60036 0.20852 0.79605 0.0
H409 H 0.72838 0.35168 0.8134 0.0
H410 H 0.71033 0.31437 0.83403 0.0
H411 H 0.70634 0.30059 0.80592 0.0
H412 H 0.67333 0.24577 0.83327 0.0
H413 H 0.67207 0.18312 0.82632 0.0
H414 H 0.62035 0.83873 0.53459 0.0
H415 H 0.62565 0.78423 0.55078 0.0
H416 H 0.70218 0.79118 0.49884 0.0
H417 H 0.69594 0.84474 0.48213 0.0
H418 H 0.64648 0.71436 0.51054 0.0
H419 H 0.72734 0.80472 0.58203 0.0
H420 H 0.67964 0.79953 0.57687 0.0
H421 H 0.7191 0.826 0.55795 0.0
C422 C 0.63747 0.82796 0.52631 0.0
C423 C 0.65797 0.84614 0.50714 0.0
C424 C 0.64091 0.79725 0.53576 0.0
C425 C 0.66506 0.78448 0.52626 0.0
C426 C 0.68374 0.80102 0.50652 0.0
H427 H 0.79002 0.66819 0.56168 0.0
H428 H 0.76754 0.71666 0.55873 0.0
C429 C 0.68024 0.83162 0.49703 0.0
C430 C 0.67211 0.75473 0.53703 0.0
H431 H 0.71734 0.74002 0.58063 0.0
C432 C 0.66155 0.71968 0.52598 0.0
C433 C 0.69221 0.76224 0.55705 0.0
C434 C 0.70558 0.80026 0.56916 0.0
C435 C 0.67143 0.69221 0.53412 0.0
C436 C 0.69155 0.69965 0.55415 0.0
C437 C 0.70144 0.73433 0.56545 0.0
C438 C 0.70555 0.6732 0.56231 0.0
C439 C 0.66192 0.65638 0.52067 0.0
C440 C 0.67836 0.63349 0.56677 0.0
C441 C 0.69112 0.606 0.56799 0.0
C442 C 0.73127 0.61809 0.5653 0.0
C443 C 0.75896 0.65847 0.56366 0.0
C444 C 0.74613 0.68599 0.56204 0.0
H445 H 0.65376 0.65933 0.50381 0.0
H446 H 0.68749 0.65134 0.52017 0.0
H447 H 0.63658 0.62986 0.52798 0.0
H448 H 0.64698 0.62326 0.56731 0.0
H449 H 0.66923 0.57492 0.56894 0.0
H450 H 0.82635 0.60899 0.74532 0.0
H451 H 0.86968 0.58336 0.73451 0.0
H452 H 0.95042 0.64949 0.78587 0.0
H453 H 0.90804 0.67492 0.79661 0.0
H454 H 0.98895 0.64007 0.7505 0.0
H455 H 0.85817 0.49647 0.77525 0.0
H456 H 0.85494 0.52303 0.75221 0.0
H457 H 0.8575 0.54183 0.77895 0.0
C458 C 0.8539 0.61879 0.75392 0.0
C459 C 0.86328 0.6433 0.77215 0.0
C460 C 0.87862 0.60419 0.74768 0.0
C461 C 0.91272 0.6137 0.75974 0.0
C462 C 0.92423 0.64169 0.7763 0.0
H463 H 1.03235 0.58477 0.84523 0.0
H464 H 1.01036 0.60306 0.81225 0.0
C465 C 0.89982 0.65632 0.78245 0.0
C466 C 0.93255 0.58986 0.75878 0.0
H467 H 0.92048 0.50659 0.78389 0.0
C468 C 0.9739 0.61015 0.75689 0.0
C469 C 0.91291 0.55041 0.76663 0.0
C470 C 0.86846 0.52645 0.76843 0.0
C471 C 0.99624 0.59466 0.76605 0.0
C472 C 0.97657 0.55822 0.77725 0.0
C473 C 0.9354 0.53496 0.77565 0.0
C474 C 0.99597 0.5492 0.79519 0.0
C475 C 1.04067 0.61922 0.76569 0.0
C476 C 0.99458 0.51262 0.79668 0.0
C477 C 1.00703 0.50223 0.81564 0.0
C478 C 1.02002 0.52793 0.83334 0.0
C479 C 1.02207 0.56464 0.83169 0.0
C480 C 1.01017 0.57523 0.81278 0.0
H481 H 1.05099 0.63651 0.75041 0.0
H482 H 1.05072 0.64055 0.77924 0.0
H483 H 1.05458 0.60051 0.76744 0.0
H484 H 0.98297 0.49186 0.78345 0.0
H485 H 1.00559 0.47385 0.81679 0.0
H486 H 0.18092 0.807 0.10451 0.0
H487 H 0.22189 0.87785 0.09774 0.0
H488 H 0.32606 0.87044 0.11303 0.0
H489 H 0.28563 0.79981 0.11843 0.0
H490 H 0.25322 0.91839 0.13078 0.0
H491 H 0.37723 0.96408 0.0758 0.0
H492 H 0.33391 0.91558 0.07383 0.0
H493 H 0.37504 0.92392 0.09097 0.0
C494 C 0.21275 0.82017 0.10523 0.0
C495 C 0.23009 0.79814 0.11258 0.0
C496 C 0.23618 0.86078 0.10139 0.0
C497 C 0.27717 0.87987 0.10501 0.0
C498 C 0.29473 0.85679 0.1097 0.0
H499 H 0.42564 0.99458 0.19316 0.0
H500 H 0.38461 0.96198 0.16148 0.0
C501 C 0.27144 0.81626 0.11322 0.0
C502 C 0.29962 0.92272 0.11006 0.0
H503 H 0.39595 0.99556 0.11345 0.0
C504 C 0.28398 0.93627 0.12614 0.0
C505 C 0.33958 0.94684 0.10387 0.0
C506 C 0.35705 0.93681 0.08496 0.0
C507 C 0.30863 0.96945 0.13857 0.0
C508 C 0.34969 0.9893 0.13476 0.0
C509 C 0.36443 0.97958 0.11662 0.0
C510 C 0.37733 1.01161 0.15232 0.0
C511 C 0.29145 0.97994 0.15747 0.0
C512 C 0.3866 0.0502 0.15756 0.0
C513 C 0.40988 0.06866 0.17576 0.0
C514 C 0.42357 0.04845 0.18885 0.0
C515 C 0.41469 1.01018 0.18336 0.0
C516 C 0.3918 0.99192 0.16522 0.0
H517 H 0.25862 0.96365 0.15723 0.0
H518 H 0.30153 0.97284 0.1728 0.0
H519 H 0.30207 1.01214 0.15734 0.0
H520 H 0.37541 0.06563 0.14781 0.0
H521 H 0.41699 0.09843 0.17978 0.0
H522 H 0.52426 0.24577 0.43387 0.0
H523 H 0.5517 0.317 0.42906 0.0
H524 H 0.66915 0.33486 0.43836 0.0
H525 H 0.64227 0.26459 0.44254 0.0
H526 H 0.58086 0.35348 0.46428 0.0
H527 H 0.6976 0.43118 0.40434 0.0
H528 H 0.6619 0.3792 0.40177 0.0
H529 H 0.70682 0.39535 0.41714 0.0
C530 C 0.55605 0.26489 0.43388 0.0
C531 C 0.58106 0.24978 0.43906 0.0
C532 C 0.57174 0.30554 0.43095 0.0
C533 C 0.61252 0.3315 0.4335 0.0
C534 C 0.63774 0.31574 0.43585 0.0
H535 H 0.7642 0.49921 0.51688 0.0
H536 H 0.73258 0.45502 0.48599 0.0
C537 C 0.62217 0.27523 0.43848 0.0
C538 C 0.62718 0.37272 0.44051 0.0
H539 H 0.71188 0.46242 0.44116 0.0
C540 C 0.60874 0.37782 0.45865 0.0
C541 C 0.66358 0.40458 0.43329 0.0
C542 C 0.68324 0.40223 0.4129 0.0
C543 C 0.6278 0.41186 0.47124 0.0
C544 C 0.66598 0.44211 0.46519 0.0
C545 C 0.68284 0.43885 0.4459 0.0
C546 C 0.69018 0.4745 0.48023 0.0
C547 C 0.60839 0.41345 0.492 0.0
C548 C 0.6775 0.50066 0.48665 0.0
C549 C 0.69463 0.52472 0.50455 0.0
C550 C 0.72551 0.52387 0.51585 0.0
C551 C 0.74022 0.49992 0.50843 0.0
C552 C 0.72253 0.4752 0.49072 0.0
H553 H 0.58179 0.3847 0.496 0.0
H554 H 0.62943 0.422 0.50574 0.0
H555 H 0.59906 0.43594 0.4904 0.0
H556 H 0.65275 0.50067 0.47867 0.0
H557 H 0.68261 0.54274 0.51019 0.0
H558 H 0.38408 0.58571 0.85528 0.0
H559 H 0.32907 0.58738 0.87234 0.0
H560 H 0.3446 0.53312 0.92983 0.0
H561 H 0.39917 0.53 0.91223 0.0
H562 H 0.27257 0.49505 0.91915 0.0
H563 H 0.31097 0.64997 0.91547 0.0
H564 H 0.31955 0.63797 0.88897 0.0
H565 H 0.34787 0.63559 0.91156 0.0
C566 C 0.37647 0.57514 0.87177 0.0
C567 C 0.39575 0.55774 0.88246 0.0
C568 C 0.34522 0.57646 0.88165 0.0
C569 C 0.33318 0.56128 0.90263 0.0
C570 C 0.35357 0.54535 0.91372 0.0
H571 H 0.11379 0.56602 0.90914 0.0
H572 H 0.17516 0.57531 0.92536 0.0
C573 C 0.38456 0.54344 0.90366 0.0
C574 C 0.2957 0.55667 0.91115 0.0
H575 H 0.24016 0.60127 0.9068 0.0
C576 C 0.26579 0.51866 0.91719 0.0
C577 C 0.28678 0.58754 0.90967 0.0
C578 C 0.31831 0.63009 0.90633 0.0
C579 C 0.22639 0.50968 0.91877 0.0
C580 C 0.21667 0.53903 0.91324 0.0
C581 C 0.2472 0.5782 0.91026 0.0
C582 C 0.17602 0.52881 0.9069 0.0
C583 C 0.1955 0.46838 0.92533 0.0
C584 C 0.15568 0.49925 0.89139 0.0
C585 C 0.12014 0.4932 0.88269 0.0
C586 C 0.10485 0.51732 0.88883 0.0
C587 C 0.12474 0.54658 0.90449 0.0
C588 C 0.15986 0.55202 0.91364 0.0
H589 H 0.20731 0.45682 0.93805 0.0
H590 H 0.1683 0.46725 0.93151 0.0
H591 H 0.18776 0.44849 0.91121 0.0
H592 H 0.16811 0.48193 0.88523 0.0
H593 H 0.10512 0.47052 0.87064 0.0
H594 H 0.85113 0.34814 0.21631 0.0
H595 H 0.78519 0.30252 0.22966 0.0
H596 H 0.81383 0.20921 0.2326 0.0
H597 H 0.88046 0.25506 0.21921 0.0
H598 H 0.74891 0.19005 0.20861 0.0
H599 H 0.73497 0.25018 0.2864 0.0
H600 H 0.75445 0.28784 0.26591 0.0
H601 H 0.78232 0.26461 0.27429 0.0
C602 C 0.84395 0.31828 0.22046 0.0
C603 C 0.87099 0.30517 0.21669 0.0
C604 C 0.80621 0.29224 0.22819 0.0
C605 C 0.79483 0.25266 0.23248 0.0
C606 C 0.82222 0.23977 0.22956 0.0
H607 H 0.54601 0.06516 0.23893 0.0
H608 H 0.61776 0.0991 0.24472 0.0
C609 C 0.86009 0.26587 0.22177 0.0
C610 C 0.7528 0.22399 0.23672 0.0
H611 H 0.67372 0.21074 0.26648 0.0
C612 C 0.73257 0.19384 0.2216 0.0
C613 C 0.73163 0.22914 0.25365 0.0
C614 C 0.75211 0.25948 0.2711 0.0
C615 C 0.69133 0.17054 0.22201 0.0
C616 C 0.66998 0.17731 0.23817 0.0
C617 C 0.6903 0.20592 0.25403 0.0
C618 C 0.62649 0.15727 0.2376 0.0
C619 C 0.67075 0.14055 0.20436 0.0
C620 C 0.60781 0.17903 0.23237 0.0
C621 C 0.56697 0.15974 0.22929 0.0
C622 C 0.54448 0.11861 0.2315 0.0
C623 C 0.56301 0.09701 0.2374 0.0
C624 C 0.60379 0.11626 0.24058 0.0
H625 H 0.69124 0.14357 0.19114 0.0
H626 H 0.65802 0.11034 0.21129 0.0
H627 H 0.64614 0.14357 0.19736 0.0
H628 H 0.625 0.21073 0.22997 0.0
H629 H 0.55292 0.17667 0.2248 0.0
H630 H 0.10085 0.59588 0.08934 0.0
H631 H 0.09345 0.59274 0.04992 0.0
H632 H 1.03222 0.46551 0.05305 0.0
H633 H 1.03954 0.46809 0.0923 0.0
H634 H 0.11686 0.54686 0.0185 0.0
H635 H 0.95714 0.50117 0.02081 0.0
H636 H 0.99049 0.52684 0.04288 0.0
H637 H 0.97331 0.47538 0.03866 0.0
C638 C 0.08607 0.56722 0.08165 0.0
C639 C 0.07066 0.53223 0.09401 0.0
C640 C 0.08189 0.56553 0.05916 0.0
C641 C 0.06193 0.5289 0.04874 0.0
C642 C 1.04739 0.49402 0.06091 0.0
H643 H 1.03995 0.45795 0.91564 0.0
H644 H 1.04375 0.46228 0.95526 0.0
C645 C 1.05178 0.49563 0.08333 0.0
C646 C 0.05567 0.52686 0.02514 0.0
H647 H 0.98396 0.50046 0.98667 0.0
C648 C 0.08791 0.53691 0.0115 0.0
C649 C 1.01785 0.51408 0.01619 0.0
C650 C 0.98262 0.50395 0.03031 0.0
C651 C 0.08305 0.53359 0.98899 0.0
C652 C 1.04501 0.51982 0.98008 0.0
C653 C 1.01296 0.5107 0.99368 0.0
C654 C 1.03824 0.51466 0.95658 0.0
C655 C 0.11847 0.54472 0.9748 0.0
C656 C 1.03258 0.54194 0.94446 0.0
C657 C 1.03053 0.53952 0.92193 0.0
C658 C 1.03381 0.50961 0.91134 0.0
C659 C 1.03731 0.48113 0.9236 0.0
C660 C 1.03962 0.48369 0.94609 0.0
H661 H 0.14669 0.56063 0.98391 0.0
H662 H 0.11628 0.51755 0.96789 0.0
H663 H 0.11918 0.56364 0.96112 0.0
H664 H 1.03153 0.56605 0.95237 0.0
H665 H 1.02862 0.56218 0.91272 0.0
H666 H 0.57252 0.98862 0.42587 0.0
H667 H 0.55132 0.98486 0.38812 0.0
H668 H 0.59301 0.11004 0.38814 0.0
H669 H 0.61469 0.11418 0.42548 0.0
H670 H 0.4954 1.00511 0.37334 0.0
H671 H 0.63898 0.09533 0.33213 0.0
H672 H 0.63508 0.07503 0.35893 0.0
H673 H 0.63322 0.11981 0.35508 0.0
C674 C 0.57785 1.01544 0.41766 0.0
C675 C 0.59521 0.05168 0.42865 0.0
C676 C 0.56559 1.0132 0.39617 0.0
C677 C 0.571 0.04724 0.3853 0.0
C678 C 0.58922 0.08355 0.39609 0.0
H679 H 0.50581 0.12489 0.27168 0.0
H680 H 0.52672 0.11442 0.30741 0.0
C681 C 0.60133 0.08579 0.41751 0.0
C682 C 0.55522 0.04484 0.36322 0.0
H683 H 0.58146 0.08646 0.31301 0.0
C684 C 0.5142 1.02231 0.36001 0.0
C685 C 0.57988 0.06732 0.34591 0.0
C686 C 0.62428 0.09043 0.34809 0.0
C687 C 0.49699 1.02337 0.34021 0.0
C688 C 0.52158 0.04724 0.32323 0.0
C689 C 0.56269 0.06849 0.32618 0.0
C690 C 0.50537 0.05214 0.30253 0.0
C691 C 0.45262 1.00042 0.33788 0.0
C692 C 0.48597 1.02047 0.28815 0.0
C693 C 0.47396 1.02649 0.26783 0.0
C694 C 0.4813 0.06424 0.26167 0.0
C695 C 0.49965 0.09555 0.2763 0.0
C696 C 0.51168 0.08959 0.29655 0.0
H697 H 0.43757 0.9892 0.35367 0.0
H698 H 0.44175 1.01911 0.33033 0.0
H699 H 0.44416 0.97472 0.32718 0.0
H700 H 0.48151 0.99153 0.29232 0.0
H701 H 0.46083 1.00225 0.25651 0.0
H702 H 0.57263 0.52112 0.76068 0.0
H703 H 0.58142 0.50549 0.7234 0.0
H704 H 0.69849 0.60735 0.72219 0.0
H705 H 0.69025 0.62328 0.75898 0.0
H706 H 0.60598 0.55885 0.68385 0.0
H707 H 0.71125 0.50888 0.70776 0.0
H708 H 0.67704 0.51093 0.72655 0.0
H709 H 0.72174 0.55527 0.71923 0.0
C710 C 0.60006 0.54039 0.75237 0.0
C711 C 0.63078 0.57333 0.76288 0.0
C712 C 0.60503 0.53136 0.73114 0.0
C713 C 0.64083 0.55495 0.72029 0.0
C714 C 0.67088 0.58848 0.73046 0.0
H715 H 0.76887 0.59771 0.60467 0.0
H716 H 0.74271 0.59128 0.64139 0.0
C717 C 0.66596 0.59759 0.7515 0.0
C718 C 0.64779 0.54499 0.69838 0.0
H719 H 0.71082 0.52501 0.67043 0.0
C720 C 0.62825 0.55061 0.68083 0.0
C721 C 0.67693 0.53433 0.69465 0.0
C722 C 0.69776 0.52663 0.71304 0.0
C723 C 0.63892 0.54822 0.65948 0.0
C724 C 0.66941 0.53937 0.65577 0.0
C725 C 0.68754 0.53188 0.67336 0.0
C726 C 0.68536 0.54123 0.6339 0.0
C727 C 0.61916 0.55741 0.6411 0.0
C728 C 0.66198 0.51481 0.61771 0.0
C729 C 0.67699 0.51847 0.59682 0.0
C730 C 0.71568 0.54836 0.59196 0.0
C731 C 0.73918 0.57421 0.60827 0.0
C732 C 0.72425 0.57056 0.62911 0.0
H733 H 0.60113 0.57029 0.64686 0.0
H734 H 0.64153 0.57837 0.62948 0.0
H735 H 0.59939 0.52978 0.63229 0.0
H736 H 0.63198 0.49183 0.62114 0.0
H737 H 0.65798 0.49896 0.5843 0.0
H738 H 0.55848 0.06023 0.57136 0.0
H739 H 0.56107 0.05767 0.61101 0.0
H740 H 0.66407 0.04468 0.60705 0.0
H741 H 0.66152 0.04671 0.56756 0.0
H742 H 0.56323 0.99218 0.63854 0.0
H743 H 0.69374 0.14225 0.64887 0.0
H744 H 0.66248 0.12882 0.62519 0.0
H745 H 0.69661 0.11107 0.62851 0.0
C746 C 0.58176 0.0569 0.57888 0.0
C747 C 0.60981 0.05376 0.56604 0.0
C748 C 0.58313 0.05532 0.60162 0.0
C749 C 0.61291 0.0512 0.61216 0.0
C750 C 0.64094 0.04814 0.59942 0.0
H751 H 0.68104 0.07375 0.74981 0.0
H752 H 0.67822 0.06226 0.71056 0.0
C753 C 0.63934 0.04924 0.57673 0.0
C754 C 0.61473 0.04995 0.63641 0.0
H755 H 0.66799 0.10341 0.68023 0.0
C756 C 0.58612 1.01652 0.64767 0.0
C757 C 0.64487 0.08133 0.64842 0.0
C758 C 0.67617 0.11811 0.63727 0.0
C759 C 0.5869 1.01358 0.67044 0.0
C760 C 0.61643 0.04552 0.6826 0.0
C761 C 0.64533 0.07875 0.67121 0.0
C762 C 0.61676 0.04621 0.707 0.0
C763 C 0.55648 0.97571 0.68113 0.0
C764 C 0.5831 0.03993 0.71853 0.0
C765 C 0.58463 0.04559 0.74096 0.0
C766 C 0.61987 0.05812 0.75263 0.0
C767 C 0.65316 0.0628 0.7414 0.0
C768 C 0.65163 0.05688 0.71887 0.0
H769 H 0.54639 0.9502 0.67004 0.0
H770 H 0.5682 0.96938 0.69609 0.0
H771 H 0.53025 0.97824 0.68538 0.0
H772 H 0.55613 1.03299 0.71003 0.0
H773 H 0.559 0.04322 0.74905 0.0
H774 H 0.6949 0.62507 0.90464 0.0
H775 H 0.69452 0.61881 0.94407 0.0
H776 H 0.56718 0.55396 0.94364 0.0
H777 H 0.56729 0.56087 0.90435 0.0
H778 H 0.59253 0.60554 0.97558 0.0
H779 H 0.67542 0.5248 0.97996 0.0
H780 H 0.70209 0.57149 0.96624 0.0
H781 H 0.65686 0.53288 0.95482 0.0
C782 C 0.66674 0.60951 0.91289 0.0
C783 C 0.63113 0.59346 0.90106 0.0
C784 C 0.66658 0.60558 0.93555 0.0
C785 C 0.63082 0.58509 0.94709 0.0
C786 C 0.59527 0.5697 0.93533 0.0
H787 H 0.58797 0.4959 0.0808 0.0
H788 H 0.60087 0.50454 0.04163 0.0
C789 C 0.5954 0.57373 0.91271 0.0
C790 C 0.63016 0.58046 0.97135 0.0
H791 H 0.66348 0.54679 0.01337 0.0
C792 C 0.60812 0.59268 0.98375 0.0
C793 C 0.64985 0.56308 0.98232 0.0
C794 C 0.67206 0.54693 0.97016 0.0
C795 C 0.60558 0.58854 0.00647 0.0
C796 C 0.62642 0.5725 0.01751 0.0
C797 C 0.64799 0.55968 0.00513 0.0
C798 C 0.62501 0.56793 0.04175 0.0
C799 C 0.57953 0.60046 0.01838 0.0
C800 C 0.63634 0.60071 0.05526 0.0
C801 C 0.62918 0.59569 0.0776 0.0
C802 C 0.61129 0.55789 0.08718 0.0
C803 C 0.60285 0.52544 0.07398 0.0
C804 C 0.60977 0.5304 0.05153 0.0
H805 H 0.55742 0.60158 0.00747 0.0
H806 H 0.56359 0.57963 0.03185 0.0
H807 H 0.59811 0.63039 0.02525 0.0
H808 H 0.64896 0.63011 0.04837 0.0
H809 H 0.63507 0.62104 0.08728 0.0
H810 H 1.00591 0.47891 0.23512 0.0
H811 H 1.00366 0.47574 0.27462 0.0
H812 H 0.1149 0.58481 0.27747 0.0
H813 H 0.11672 0.58875 0.23797 0.0
H814 H 1.04837 0.46843 0.30381 0.0
H815 H 1.05435 0.61035 0.3196 0.0
H816 H 1.04658 0.58969 0.29287 0.0
H817 H 0.09577 0.61722 0.30389 0.0
C818 C 1.02979 0.50251 0.2441 0.0
C819 C 0.06137 0.53429 0.23313 0.0
C820 C 1.0285 0.50059 0.26682 0.0
C821 C 0.05871 0.53036 0.27938 0.0
C822 C 0.09049 0.56194 0.26844 0.0
H823 H 0.12084 0.51145 0.41245 0.0
H824 H 0.1082 0.50452 0.37351 0.0
C825 C 0.09165 0.56405 0.2457 0.0
C826 C 0.05758 0.5276 0.30375 0.0
H827 H 0.0668 0.57967 0.34988 0.0
C828 C 1.05211 0.49274 0.31381 0.0
C829 C 0.0616 0.55876 0.31716 0.0
C830 C 0.06446 0.59592 0.30784 0.0
C831 C 1.0518 0.48868 0.33655 0.0
C832 C 0.0581 0.5207 0.34993 0.0
C833 C 0.06233 0.55509 0.33988 0.0
C834 C 0.06208 0.51994 0.37418 0.0
C835 C 1.04407 0.44969 0.34593 0.0
C836 C 1.04047 0.53075 0.38803 0.0
C837 C 1.04785 0.53472 0.41047 0.0
C838 C 0.07699 0.52796 0.41961 0.0
C839 C 0.09733 0.51555 0.40594 0.0
C840 C 0.09014 0.51174 0.38359 0.0
H841 H 1.02628 0.42496 0.3347 0.0
H842 H 0.07266 0.45065 0.34858 0.0
H843 H 1.02827 0.44328 0.36161 0.0
H844 H 1.01882 0.53755 0.38137 0.0
H845 H 1.03266 0.54552 0.42049 0.0
loop_
_geom_bond_atom_site_label_1
_geom_bond_atom_site_label_2
_geom_bond_distance
_geom_bond_site_symmetry_2
_ccdc_geom_bond_type
Eu0 C9 2.828 . S
Eu0 O11 2.392 1_655 S
Eu0 O13 2.418 . S
Eu0 O18 2.373 . S
Eu0 O21 2.488 . S
Eu0 O22 2.471 . S
Eu0 O23 2.349 . S
Eu1 O10 2.373 . S
Eu1 O14 2.488 . S
Eu1 O15 2.471 . S
Eu1 O16 2.349 . S
Eu1 O19 2.392 1_455 S
Eu1 O20 2.418 . S
Eu1 C30 2.828 . S
C2 O20 1.244 . S
C2 O23 1.265 1_455 S
C3 C4 1.379 . S
C3 C7 1.373 . S
C3 C9 1.505 . S
C4 C3 1.379 . S
C4 C6 1.369 . S
C4 H32 0.930 . S
C5 C7 1.383 . S
C5 C8 1.382 . S
C5 H33 0.930 . S
C6 C4 1.369 . S
C6 C8 1.392 . S
C6 H34 0.930 . S
C7 C3 1.373 . S
C7 C5 1.383 . S
C7 H35 0.931 . S
C8 C5 1.382 . S
C8 C6 1.392 . S
C9 Eu0 2.828 . S
C9 C3 1.505 . S
C9 O21 1.249 . S
C9 O22 1.244 . S
O10 Eu1 2.373 . S
O10 C12 1.258 . S
O11 Eu0 2.392 1_455 S
O11 C12 1.242 . S
C12 O10 1.258 . S
C12 O11 1.242 . S
O13 Eu0 2.418 . S
O13 C17 1.244 . S
O14 Eu1 2.488 . S
O14 C30 1.249 . S
O15 Eu1 2.471 . S
O15 C30 1.244 . S
O16 Eu1 2.349 . S
O16 C17 1.265 1_455 S
C17 O13 1.244 . S
C17 O16 1.265 1_655 S
O18 Eu0 2.373 . S
O18 C31 1.258 . S
O19 Eu1 2.392 1_655 S
O19 C31 1.242 . S
O20 Eu1 2.418 . S
O20 C2 1.244 . S
O21 Eu0 2.488 . S
O21 C9 1.249 . S
O22 Eu0 2.471 . S
O22 C9 1.244 . S
O23 Eu0 2.349 . S
O23 C2 1.265 1_655 S
C24 C25 1.379 . S
C24 C28 1.373 . S
C24 C30 1.505 . S
C25 C24 1.379 . S
C25 C27 1.369 . S
C25 H36 0.930 . S
C26 C28 1.383 . S
C26 C29 1.382 . S
C26 H37 0.930 . S
C27 C25 1.369 . S
C27 C29 1.392 . S
C27 H38 0.930 . S
C28 C24 1.373 . S
C28 C26 1.383 . S
C28 H39 0.931 . S
C29 C26 1.382 . S
C29 C27 1.392 . S
C30 Eu1 2.828 . S
C30 O14 1.249 . S
C30 O15 1.244 . S
C30 C24 1.505 . S
C31 O18 1.258 . S
C31 O19 1.242 . S
H32 C4 0.930 . S
H33 C5 0.930 . S
H34 C6 0.930 . S
H35 C7 0.931 . S
H36 C25 0.930 . S
H37 C26 0.930 . S
H38 C27 0.930 . S
H39 C28 0.931 . S
Eu40 C49 2.828 . S
Eu40 O51 2.392 1_565 S
Eu40 O53 2.418 . S
Eu40 O58 2.373 . S
Eu40 O61 2.488 . S
Eu40 O62 2.471 . S
Eu40 O63 2.349 1_565 S
Eu41 O50 2.373 . S
Eu41 O54 2.488 . S
Eu41 O55 2.471 . S
Eu41 O56 2.349 . S
Eu41 O59 2.392 1_545 S
Eu41 O60 2.418 . S
Eu41 C70 2.828 . S
C42 O60 1.244 . S
C42 O63 1.265 . S
C43 C44 1.379 . S
C43 C47 1.373 . S
C43 C49 1.505 . S
C44 C43 1.379 . S
C44 C46 1.369 . S
C44 H72 0.930 . S
C45 C47 1.383 . S
C45 C48 1.382 . S
C45 H73 0.930 . S
C46 C44 1.369 . S
C46 C48 1.392 . S
C46 H74 0.930 . S
C47 C43 1.373 . S
C47 C45 1.383 . S
C47 H75 0.931 . S
C48 C45 1.382 . S
C48 C46 1.392 . S
C49 Eu40 2.828 . S
C49 C43 1.505 . S
C49 O61 1.249 . S
C49 O62 1.244 . S
O50 Eu41 2.373 . S
O50 C52 1.258 . S
O51 Eu40 2.392 1_545 S
O51 C52 1.242 . S
C52 O50 1.258 . S
C52 O51 1.242 . S
O53 Eu40 2.418 . S
O53 C57 1.244 1_565 S
O54 Eu41 2.488 . S
O54 C70 1.249 . S
O55 Eu41 2.471 . S
O55 C70 1.244 . S
O56 Eu41 2.349 . S
O56 C57 1.265 . S
C57 O53 1.244 1_545 S
C57 O56 1.265 . S
O58 Eu40 2.373 . S
O58 C71 1.258 . S
O59 Eu41 2.392 1_565 S
O59 C71 1.242 . S
O60 Eu41 2.418 . S
O60 C42 1.244 . S
O61 Eu40 2.488 . S
O61 C49 1.249 . S
O62 Eu40 2.471 . S
O62 C49 1.244 . S
O63 Eu40 2.349 1_545 S
O63 C42 1.265 . S
C64 C65 1.379 . S
C64 C68 1.373 . S
C64 C70 1.505 . S
C65 C64 1.379 . S
C65 C67 1.369 . S
C65 H76 0.930 . S
C66 C68 1.383 . S
C66 C69 1.382 . S
C66 H77 0.930 . S
C67 C65 1.369 . S
C67 C69 1.392 . S
C67 H78 0.930 . S
C68 C64 1.373 . S
C68 C66 1.383 . S
C68 H79 0.931 . S
C69 C66 1.382 . S
C69 C67 1.392 . S
C70 Eu41 2.828 . S
C70 O54 1.249 . S
C70 O55 1.244 . S
C70 C64 1.505 . S
C71 O58 1.258 . S
C71 O59 1.242 . S
H72 C44 0.930 . S
H73 C45 0.930 . S
H74 C46 0.930 . S
H75 C47 0.931 . S
H76 C65 0.930 . S
H77 C66 0.930 . S
H78 C67 0.930 . S
H79 C68 0.931 . S
Eu80 C89 2.828 . S
Eu80 O91 2.392 . S
Eu80 O93 2.418 . S
Eu80 O98 2.373 . S
Eu80 O101 2.488 . S
Eu80 O102 2.471 . S
Eu80 O103 2.349 . S
Eu81 O90 2.373 . S
Eu81 O94 2.488 . S
Eu81 O95 2.471 . S
Eu81 O96 2.349 . S
Eu81 O99 2.392 . S
Eu81 O100 2.418 . S
Eu81 C110 2.828 . S
C82 O100 1.244 . S
C82 O103 1.265 . S
C83 C84 1.379 . S
C83 C87 1.373 . S
C83 C89 1.505 . S
C84 C83 1.379 . S
C84 C86 1.369 . S
C84 H112 0.930 . S
C85 C87 1.383 . S
C85 C88 1.382 . S
C85 H113 0.930 . S
C86 C84 1.369 . S
C86 C88 1.392 . S
C86 H114 0.930 . S
C87 C83 1.373 . S
C87 C85 1.383 . S
C87 H115 0.931 . S
C88 C85 1.382 . S
C88 C86 1.392 . S
C89 Eu80 2.828 . S
C89 C83 1.505 . S
C89 O101 1.249 . S
C89 O102 1.244 . S
O90 Eu81 2.373 . S
O90 C92 1.258 . S
O91 Eu80 2.392 . S
O91 C92 1.242 . S
C92 O90 1.258 . S
C92 O91 1.242 . S
O93 Eu80 2.418 . S
O93 C97 1.244 . S
O94 Eu81 2.488 . S
O94 C110 1.249 . S
O95 Eu81 2.471 . S
O95 C110 1.244 . S
O96 Eu81 2.349 . S
O96 C97 1.265 . S
C97 O93 1.244 . S
C97 O96 1.265 . S
O98 Eu80 2.373 . S
O98 C111 1.258 . S
O99 Eu81 2.392 . S
O99 C111 1.242 . S
O100 Eu81 2.418 . S
O100 C82 1.244 . S
O101 Eu80 2.488 . S
O101 C89 1.249 . S
O102 Eu80 2.471 . S
O102 C89 1.244 . S
O103 Eu80 2.349 . S
O103 C82 1.265 . S
C104 C105 1.379 . S
C104 C108 1.373 . S
C104 C110 1.505 . S
C105 C104 1.379 . S
C105 C107 1.369 . S
C105 H116 0.930 . S
C106 C108 1.383 . S
C106 C109 1.382 . S
C106 H117 0.930 . S
C107 C105 1.369 . S
C107 C109 1.392 . S
C107 H118 0.930 . S
C108 C104 1.373 . S
C108 C106 1.383 . S
C108 H119 0.931 . S
C109 C106 1.382 . S
C109 C107 1.392 . S
C110 Eu81 2.828 . S
C110 O94 1.249 . S
C110 O95 1.244 . S
C110 C104 1.505 . S
C111 O98 1.258 . S
C111 O99 1.242 . S
H112 C84 0.930 . S
H113 C85 0.930 . S
H114 C86 0.930 . S
H115 C87 0.931 . S
H116 C105 0.930 . S
H117 C106 0.930 . S
H118 C107 0.930 . S
H119 C108 0.931 . S
C120 N121 1.317 . S
C120 N122 1.348 1_545 S
C120 C123 1.485 . S
N121 C120 1.317 . S
N121 N125 1.370 . S
N122 C120 1.348 1_565 S
N122 C124 1.346 . S
C123 C120 1.485 . S
C123 H127 0.960 . S
C123 H128 0.961 1_545 S
C123 H129 0.960 . S
C124 N122 1.346 . S
C124 N125 1.307 1_565 S
C124 C126 1.486 . S
N125 N121 1.370 . S
N125 C124 1.307 1_545 S
C126 C124 1.486 . S
C126 H130 0.960 . S
C126 H131 0.960 . S
C126 H132 0.959 . S
H127 C123 0.960 . S
H128 C123 0.961 1_565 S
H129 C123 0.960 . S
H130 C126 0.960 . S
H131 C126 0.960 . S
H132 C126 0.959 . S
C133 N134 1.317 . S
C133 N135 1.348 . S
C133 C136 1.485 . S
N134 C133 1.317 . S
N134 N138 1.370 . S
N135 C133 1.348 . S
N135 C137 1.346 . S
C136 C133 1.485 . S
C136 H140 0.960 . S
C136 H141 0.961 . S
C136 H142 0.960 . S
C137 N135 1.346 . S
C137 N138 1.307 . S
C137 C139 1.486 . S
N138 N134 1.370 . S
N138 C137 1.307 . S
C139 C137 1.486 . S
C139 H143 0.960 . S
C139 H144 0.960 . S
C139 H145 0.959 . S
H140 C136 0.960 . S
H141 C136 0.961 . S
H142 C136 0.960 . S
H143 C139 0.960 . S
H144 C139 0.960 . S
H145 C139 0.959 . S
C146 N147 1.317 . S
C146 N148 1.348 . S
C146 C149 1.485 . S
N147 C146 1.317 . S
N147 N151 1.370 . S
N148 C146 1.348 . S
N148 C150 1.346 . S
C149 C146 1.485 . S
C149 H153 0.960 . S
C149 H154 0.961 . S
C149 H155 0.960 . S
C150 N148 1.346 . S
C150 N151 1.307 . S
C150 C152 1.486 1_455 S
N151 N147 1.370 . S
N151 C150 1.307 . S
C152 C150 1.486 1_655 S
C152 H156 0.960 . S
C152 H157 0.960 . S
C152 H158 0.959 . S
H153 C149 0.960 . S
H154 C149 0.961 . S
H155 C149 0.960 . S
H156 C152 0.960 . S
H157 C152 0.960 . S
H158 C152 0.959 . S
C159 N160 1.317 . S
C159 N161 1.348 . S
C159 C162 1.485 . S
N160 C159 1.317 . S
N160 N164 1.370 . S
N161 C159 1.348 . S
N161 C163 1.346 . S
C162 C159 1.485 . S
C162 H166 0.960 . S
C162 H167 0.961 . S
C162 H168 0.960 . S
C163 N161 1.346 . S
C163 N164 1.307 . S
C163 C165 1.486 . S
N164 N160 1.370 . S
N164 C163 1.307 . S
C165 C163 1.486 . S
C165 H169 0.960 . S
C165 H170 0.960 . S
C165 H171 0.959 . S
H166 C162 0.960 . S
H167 C162 0.961 . S
H168 C162 0.960 . S
H169 C165 0.960 . S
H170 C165 0.960 . S
H171 C165 0.959 . S
C172 N173 1.317 . S
C172 N174 1.348 . S
C172 C175 1.485 . S
N173 C172 1.317 . S
N173 N177 1.370 . S
N174 C172 1.348 . S
N174 C176 1.346 . S
C175 C172 1.485 . S
C175 H179 0.960 . S
C175 H180 0.961 . S
C175 H181 0.960 . S
C176 N174 1.346 . S
C176 N177 1.307 . S
C176 C178 1.486 . S
N177 N173 1.370 . S
N177 C176 1.307 . S
C178 C176 1.486 . S
C178 H182 0.960 . S
C178 H183 0.960 . S
C178 H184 0.959 . S
H179 C175 0.960 . S
H180 C175 0.961 . S
H181 C175 0.960 . S
H182 C178 0.960 . S
H183 C178 0.960 . S
H184 C178 0.959 . S
C185 N186 1.317 . S
C185 N187 1.348 . S
C185 C188 1.485 . S
N186 C185 1.317 . S
N186 N190 1.370 . S
N187 C185 1.348 . S
N187 C189 1.346 . S
C188 C185 1.485 . S
C188 H192 0.960 . S
C188 H193 0.961 . S
C188 H194 0.960 . S
C189 N187 1.346 . S
C189 N190 1.307 . S
C189 C191 1.486 . S
N190 N186 1.370 . S
N190 C189 1.307 . S
C191 C189 1.486 . S
C191 H195 0.960 . S
C191 H196 0.960 . S
C191 H197 0.959 . S
H192 C188 0.960 . S
H193 C188 0.961 . S
H194 C188 0.960 . S
H195 C191 0.960 . S
H196 C191 0.960 . S
H197 C191 0.959 . S
H198 C206 0.929 . S
H199 C208 0.930 . S
H200 C210 0.930 . S
H201 C213 0.929 . S
H202 C216 0.930 . S
H203 C218 0.960 . S
H204 C218 0.960 . S
H205 C218 0.960 . S
C206 H198 0.929 . S
C206 C207 1.377 . S
C206 C208 1.384 . S
C207 C206 1.377 . S
C207 C213 1.390 . S
C208 H199 0.930 . S
C208 C206 1.384 . S
C208 C209 1.372 . S
C209 C208 1.372 . S
C209 C210 1.400 . S
C209 C214 1.490 . S
C210 H200 0.930 . S
C210 C209 1.400 . S
C210 C213 1.386 . S
H211 C227 0.930 . S
H212 C228 0.931 . S
C213 H201 0.929 . S
C213 C207 1.390 . S
C213 C210 1.386 . S
C214 C209 1.490 . S
C214 C216 1.395 . S
C214 C217 1.403 . S
H215 C221 0.930 . S
C216 H202 0.930 . S
C216 C214 1.395 . S
C216 C219 1.403 . S
C217 C214 1.403 . S
C217 C218 1.524 . S
C217 C221 1.400 . S
C218 H203 0.960 . S
C218 H204 0.960 . S
C218 H205 0.960 . S
C218 C217 1.524 . S
C219 C216 1.403 . S
C219 C220 1.392 . S
C219 C223 1.495 . S
C220 C219 1.392 . S
C220 C221 1.385 . S
C220 C222 1.478 . S
C221 H215 0.930 . S
C221 C217 1.400 . S
C221 C220 1.385 . S
C222 C220 1.478 . S
C222 C224 1.381 . S
C222 C228 1.383 . S
C223 C219 1.495 . S
C223 H229 0.959 . S
C223 H230 0.961 . S
C223 H231 0.960 . S
C224 C222 1.381 . S
C224 C225 1.394 . S
C224 H232 0.930 . S
C225 C224 1.394 . S
C225 C226 1.383 . S
C225 H233 0.929 . S
C226 C225 1.383 . S
C226 C227 1.377 . S
C227 H211 0.930 . S
C227 C226 1.377 . S
C227 C228 1.379 . S
C228 H212 0.931 . S
C228 C222 1.383 . S
C228 C227 1.379 . S
H229 C223 0.959 . S
H230 C223 0.961 . S
H231 C223 0.960 . S
H232 C224 0.930 . S
H233 C225 0.929 . S
H234 C242 0.929 . S
H235 C244 0.930 . S
H236 C246 0.930 . S
H237 C249 0.929 . S
H238 C252 0.930 . S
H239 C254 0.960 . S
H240 C254 0.960 . S
H241 C254 0.960 . S
C242 H234 0.929 . S
C242 C243 1.377 . S
C242 C244 1.384 . S
C243 C242 1.377 . S
C243 C249 1.390 . S
C244 H235 0.930 . S
C244 C242 1.384 . S
C244 C245 1.372 . S
C245 C244 1.372 . S
C245 C246 1.400 . S
C245 C250 1.490 . S
C246 H236 0.930 . S
C246 C245 1.400 . S
C246 C249 1.386 . S
H247 C263 0.930 . S
H248 C264 0.931 . S
C249 H237 0.929 . S
C249 C243 1.390 . S
C249 C246 1.386 . S
C250 C245 1.490 . S
C250 C252 1.395 . S
C250 C253 1.403 . S
H251 C257 0.930 . S
C252 H238 0.930 . S
C252 C250 1.395 . S
C252 C255 1.403 . S
C253 C250 1.403 . S
C253 C254 1.524 . S
C253 C257 1.400 . S
C254 H239 0.960 . S
C254 H240 0.960 . S
C254 H241 0.960 . S
C254 C253 1.524 . S
C255 C252 1.403 . S
C255 C256 1.392 . S
C255 C259 1.495 . S
C256 C255 1.392 . S
C256 C257 1.385 . S
C256 C258 1.478 . S
C257 H251 0.930 . S
C257 C253 1.400 . S
C257 C256 1.385 . S
C258 C256 1.478 . S
C258 C260 1.381 . S
C258 C264 1.383 . S
C259 C255 1.495 . S
C259 H265 0.959 . S
C259 H266 0.961 . S
C259 H267 0.960 . S
C260 C258 1.381 . S
C260 C261 1.394 . S
C260 H268 0.930 . S
C261 C260 1.394 . S
C261 C262 1.383 . S
C261 H269 0.929 . S
C262 C261 1.383 . S
C262 C263 1.377 . S
C263 H247 0.930 . S
C263 C262 1.377 . S
C263 C264 1.379 . S
C264 H248 0.931 . S
C264 C258 1.383 . S
C264 C263 1.379 . S
H265 C259 0.959 . S
H266 C259 0.961 . S
H267 C259 0.960 . S
H268 C260 0.930 . S
H269 C261 0.929 . S
H270 C278 0.929 . S
H271 C280 0.930 . S
H272 C282 0.930 . S
H273 C285 0.929 . S
H274 C288 0.930 . S
H275 C290 0.960 . S
H276 C290 0.960 . S
H277 C290 0.960 . S
C278 H270 0.929 . S
C278 C279 1.377 . S
C278 C280 1.384 . S
C279 C278 1.377 . S
C279 C285 1.390 . S
C280 H271 0.930 . S
C280 C278 1.384 . S
C280 C281 1.372 . S
C281 C280 1.372 . S
C281 C282 1.400 . S
C281 C286 1.490 . S
C282 H272 0.930 . S
C282 C281 1.400 . S
C282 C285 1.386 . S
H283 C299 0.930 . S
H284 C300 0.931 . S
C285 H273 0.929 . S
C285 C279 1.390 . S
C285 C282 1.386 . S
C286 C281 1.490 . S
C286 C288 1.395 . S
C286 C289 1.403 . S
H287 C293 0.930 . S
C288 H274 0.930 . S
C288 C286 1.395 . S
C288 C291 1.403 . S
C289 C286 1.403 . S
C289 C290 1.524 . S
C289 C293 1.400 . S
C290 H275 0.960 . S
C290 H276 0.960 . S
C290 H277 0.960 . S
C290 C289 1.524 . S
C291 C288 1.403 . S
C291 C292 1.392 . S
C291 C295 1.495 . S
C292 C291 1.392 . S
C292 C293 1.385 . S
C292 C294 1.478 . S
C293 H287 0.930 . S
C293 C289 1.400 . S
C293 C292 1.385 . S
C294 C292 1.478 . S
C294 C296 1.381 . S
C294 C300 1.383 . S
C295 C291 1.495 . S
C295 H301 0.959 . S
C295 H302 0.961 . S
C295 H303 0.960 . S
C296 C294 1.381 . S
C296 C297 1.394 . S
C296 H304 0.930 . S
C297 C296 1.394 . S
C297 C298 1.383 . S
C297 H305 0.929 . S
C298 C297 1.383 . S
C298 C299 1.377 . S
C299 H283 0.930 . S
C299 C298 1.377 . S
C299 C300 1.379 . S
C300 H284 0.931 . S
C300 C294 1.383 . S
C300 C299 1.379 . S
H301 C295 0.959 . S
H302 C295 0.961 . S
H303 C295 0.960 . S
H304 C296 0.930 . S
H305 C297 0.929 . S
H306 C314 0.929 . S
H307 C316 0.930 . S
H308 C318 0.930 . S
H309 C321 0.929 . S
H310 C324 0.930 . S
H311 C326 0.960 . S
H312 C326 0.960 . S
H313 C326 0.960 . S
C314 H306 0.929 . S
C314 C315 1.377 . S
C314 C316 1.384 . S
C315 C314 1.377 . S
C315 C321 1.390 . S
C316 H307 0.930 . S
C316 C314 1.384 . S
C316 C317 1.372 . S
C317 C316 1.372 . S
C317 C318 1.400 . S
C317 C322 1.490 . S
C318 H308 0.930 . S
C318 C317 1.400 . S
C318 C321 1.386 . S
H319 C335 0.930 . S
H320 C336 0.931 . S
C321 H309 0.929 . S
C321 C315 1.390 . S
C321 C318 1.386 . S
C322 C317 1.490 . S
C322 C324 1.395 . S
C322 C325 1.403 . S
H323 C329 0.930 . S
C324 H310 0.930 . S
C324 C322 1.395 . S
C324 C327 1.403 . S
C325 C322 1.403 . S
C325 C326 1.524 . S
C325 C329 1.400 . S
C326 H311 0.960 . S
C326 H312 0.960 . S
C326 H313 0.960 . S
C326 C325 1.524 . S
C327 C324 1.403 . S
C327 C328 1.392 . S
C327 C331 1.495 . S
C328 C327 1.392 . S
C328 C329 1.385 . S
C328 C330 1.478 . S
C329 H323 0.930 . S
C329 C325 1.400 . S
C329 C328 1.385 . S
C330 C328 1.478 . S
C330 C332 1.381 . S
C330 C336 1.383 . S
C331 C327 1.495 . S
C331 H337 0.959 . S
C331 H338 0.961 . S
C331 H339 0.960 . S
C332 C330 1.381 . S
C332 C333 1.394 . S
C332 H340 0.930 . S
C333 C332 1.394 . S
C333 C334 1.383 . S
C333 H341 0.929 . S
C334 C333 1.383 . S
C334 C335 1.377 . S
C335 H319 0.930 . S
C335 C334 1.377 . S
C335 C336 1.379 . S
C336 H320 0.931 . S
C336 C330 1.383 . S
C336 C335 1.379 . S
H337 C331 0.959 . S
H338 C331 0.961 . S
H339 C331 0.960 . S
H340 C332 0.930 . S
H341 C333 0.929 . S
H342 C350 0.929 . S
H343 C352 0.930 . S
H344 C354 0.930 . S
H345 C357 0.929 . S
H346 C360 0.930 . S
H347 C362 0.960 . S
H348 C362 0.960 . S
H349 C362 0.960 . S
C350 H342 0.929 . S
C350 C351 1.377 . S
C350 C352 1.384 . S
C351 C350 1.377 . S
C351 C357 1.390 . S
C352 H343 0.930 . S
C352 C350 1.384 . S
C352 C353 1.372 . S
C353 C352 1.372 . S
C353 C354 1.400 . S
C353 C358 1.490 . S
C354 H344 0.930 . S
C354 C353 1.400 . S
C354 C357 1.386 . S
H355 C371 0.930 . S
H356 C372 0.931 . S
C357 H345 0.929 . S
C357 C351 1.390 . S
C357 C354 1.386 . S
C358 C353 1.490 . S
C358 C360 1.395 . S
C358 C361 1.403 . S
H359 C365 0.930 . S
C360 H346 0.930 . S
C360 C358 1.395 . S
C360 C363 1.403 . S
C361 C358 1.403 . S
C361 C362 1.524 . S
C361 C365 1.400 . S
C362 H347 0.960 . S
C362 H348 0.960 . S
C362 H349 0.960 . S
C362 C361 1.524 . S
C363 C360 1.403 . S
C363 C364 1.392 . S
C363 C367 1.495 . S
C364 C363 1.392 . S
C364 C365 1.385 . S
C364 C366 1.478 . S
C365 H359 0.930 . S
C365 C361 1.400 . S
C365 C364 1.385 . S
C366 C364 1.478 . S
C366 C368 1.381 . S
C366 C372 1.383 . S
C367 C363 1.495 . S
C367 H373 0.959 . S
C367 H374 0.961 . S
C367 H375 0.960 . S
C368 C366 1.381 . S
C368 C369 1.394 . S
C368 H376 0.930 . S
C369 C368 1.394 . S
C369 C370 1.383 . S
C369 H377 0.929 . S
C370 C369 1.383 . S
C370 C371 1.377 . S
C371 H355 0.930 . S
C371 C370 1.377 . S
C371 C372 1.379 . S
C372 H356 0.931 . S
C372 C366 1.383 . S
C372 C371 1.379 . S
H373 C367 0.959 . S
H374 C367 0.961 . S
H375 C367 0.960 . S
H376 C368 0.930 . S
H377 C369 0.929 . S
H378 C386 0.929 . S
H379 C388 0.930 . S
H380 C390 0.930 . S
H381 C393 0.929 . S
H382 C396 0.930 . S
H383 C398 0.960 . S
H384 C398 0.960 . S
H385 C398 0.960 . S
C386 H378 0.929 . S
C386 C387 1.377 . S
C386 C388 1.384 . S
C387 C386 1.377 . S
C387 C393 1.390 . S
C388 H379 0.930 . S
C388 C386 1.384 . S
C388 C389 1.372 . S
C389 C388 1.372 . S
C389 C390 1.400 . S
C389 C394 1.490 . S
C390 H380 0.930 . S
C390 C389 1.400 . S
C390 C393 1.386 . S
H391 C407 0.930 . S
H392 C408 0.931 . S
C393 H381 0.929 . S
C393 C387 1.390 . S
C393 C390 1.386 . S
C394 C389 1.490 . S
C394 C396 1.395 . S
C394 C397 1.403 . S
H395 C401 0.930 . S
C396 H382 0.930 . S
C396 C394 1.395 . S
C396 C399 1.403 . S
C397 C394 1.403 . S
C397 C398 1.524 . S
C397 C401 1.400 . S
C398 H383 0.960 . S
C398 H384 0.960 . S
C398 H385 0.960 . S
C398 C397 1.524 . S
C399 C396 1.403 . S
C399 C400 1.392 . S
C399 C403 1.495 . S
C400 C399 1.392 . S
C400 C401 1.385 . S
C400 C402 1.478 . S
C401 H395 0.930 . S
C401 C397 1.400 . S
C401 C400 1.385 . S
C402 C400 1.478 . S
C402 C404 1.381 . S
C402 C408 1.383 . S
C403 C399 1.495 . S
C403 H409 0.959 . S
C403 H410 0.961 . S
C403 H411 0.960 . S
C404 C402 1.381 . S
C404 C405 1.394 . S
C404 H412 0.930 . S
C405 C404 1.394 . S
C405 C406 1.383 . S
C405 H413 0.929 . S
C406 C405 1.383 . S
C406 C407 1.377 . S
C407 H391 0.930 . S
C407 C406 1.377 . S
C407 C408 1.379 . S
C408 H392 0.931 . S
C408 C402 1.383 . S
C408 C407 1.379 . S
H409 C403 0.959 . S
H410 C403 0.961 . S
H411 C403 0.960 . S
H412 C404 0.930 . S
H413 C405 0.929 . S
H414 C422 0.929 . S
H415 C424 0.930 . S
H416 C426 0.930 . S
H417 C429 0.929 . S
H418 C432 0.930 . S
H419 C434 0.960 . S
H420 C434 0.960 . S
H421 C434 0.960 . S
C422 H414 0.929 . S
C422 C423 1.377 . S
C422 C424 1.384 . S
C423 C422 1.377 . S
C423 C429 1.390 . S
C424 H415 0.930 . S
C424 C422 1.384 . S
C424 C425 1.372 . S
C425 C424 1.372 . S
C425 C426 1.400 . S
C425 C430 1.490 . S
C426 H416 0.930 . S
C426 C425 1.400 . S
C426 C429 1.386 . S
H427 C443 0.930 . S
H428 C444 0.931 . S
C429 H417 0.929 . S
C429 C423 1.390 . S
C429 C426 1.386 . S
C430 C425 1.490 . S
C430 C432 1.395 . S
C430 C433 1.403 . S
H431 C437 0.930 . S
C432 H418 0.930 . S
C432 C430 1.395 . S
C432 C435 1.403 . S
C433 C430 1.403 . S
C433 C434 1.524 . S
C433 C437 1.400 . S
C434 H419 0.960 . S
C434 H420 0.960 . S
C434 H421 0.960 . S
C434 C433 1.524 . S
C435 C432 1.403 . S
C435 C436 1.392 . S
C435 C439 1.495 . S
C436 C435 1.392 . S
C436 C437 1.385 . S
C436 C438 1.478 . S
C437 H431 0.930 . S
C437 C433 1.400 . S
C437 C436 1.385 . S
C438 C436 1.478 . S
C438 C440 1.381 . S
C438 C444 1.383 . S
C439 C435 1.495 . S
C439 H445 0.959 . S
C439 H446 0.961 . S
C439 H447 0.960 . S
C440 C438 1.381 . S
C440 C441 1.394 . S
C440 H448 0.930 . S
C441 C440 1.394 . S
C441 C442 1.383 . S
C441 H449 0.929 . S
C442 C441 1.383 . S
C442 C443 1.377 . S
C443 H427 0.930 . S
C443 C442 1.377 . S
C443 C444 1.379 . S
C444 H428 0.931 . S
C444 C438 1.383 . S
C444 C443 1.379 . S
H445 C439 0.959 . S
H446 C439 0.961 . S
H447 C439 0.960 . S
H448 C440 0.930 . S
H449 C441 0.929 . S
H450 C458 0.929 . S
H451 C460 0.930 . S
H452 C462 0.930 . S
H453 C465 0.929 . S
H454 C468 0.930 . S
H455 C470 0.960 . S
H456 C470 0.960 . S
H457 C470 0.960 . S
C458 H450 0.929 . S
C458 C459 1.377 . S
C458 C460 1.384 . S
C459 C458 1.377 . S
C459 C465 1.390 . S
C460 H451 0.930 . S
C460 C458 1.384 . S
C460 C461 1.372 . S
C461 C460 1.372 . S
C461 C462 1.400 . S
C461 C466 1.490 . S
C462 H452 0.930 . S
C462 C461 1.400 . S
C462 C465 1.386 . S
H463 C479 0.930 1_455 S
H464 C480 0.931 . S
C465 H453 0.929 . S
C465 C459 1.390 . S
C465 C462 1.386 . S
C466 C461 1.490 . S
C466 C468 1.395 . S
C466 C469 1.403 . S
H467 C473 0.930 . S
C468 H454 0.930 . S
C468 C466 1.395 . S
C468 C471 1.403 . S
C469 C466 1.403 . S
C469 C470 1.524 . S
C469 C473 1.400 . S
C470 H455 0.960 . S
C470 H456 0.960 . S
C470 H457 0.960 . S
C470 C469 1.524 . S
C471 C468 1.403 . S
C471 C472 1.392 . S
C471 C475 1.495 . S
C472 C471 1.392 . S
C472 C473 1.385 . S
C472 C474 1.478 . S
C473 H467 0.930 . S
C473 C469 1.400 . S
C473 C472 1.385 . S
C474 C472 1.478 . S
C474 C476 1.381 . S
C474 C480 1.383 . S
C475 C471 1.495 . S
C475 H481 0.959 . S
C475 H482 0.961 . S
C475 H483 0.960 . S
C476 C474 1.381 . S
C476 C477 1.394 . S
C476 H484 0.930 . S
C477 C476 1.394 . S
C477 C478 1.383 1_655 S
C477 H485 0.929 . S
C478 C477 1.383 1_455 S
C478 C479 1.377 1_455 S
C479 H463 0.930 1_655 S
C479 C478 1.377 1_655 S
C479 C480 1.379 . S
C480 H464 0.931 . S
C480 C474 1.383 . S
C480 C479 1.379 . S
H481 C475 0.959 . S
H482 C475 0.961 . S
H483 C475 0.960 . S
H484 C476 0.930 . S
H485 C477 0.929 . S
H486 C494 0.929 . S
H487 C496 0.930 . S
H488 C498 0.930 . S
H489 C501 0.929 . S
H490 C504 0.930 . S
H491 C506 0.960 . S
H492 C506 0.960 . S
H493 C506 0.960 . S
C494 H486 0.929 . S
C494 C495 1.377 . S
C494 C496 1.384 . S
C495 C494 1.377 . S
C495 C501 1.390 . S
C496 H487 0.930 . S
C496 C494 1.384 . S
C496 C497 1.372 . S
C497 C496 1.372 . S
C497 C498 1.400 . S
C497 C502 1.490 . S
C498 H488 0.930 . S
C498 C497 1.400 . S
C498 C501 1.386 . S
H499 C515 0.930 . S
H500 C516 0.931 . S
C501 H489 0.929 . S
C501 C495 1.390 . S
C501 C498 1.386 . S
C502 C497 1.490 . S
C502 C504 1.395 . S
C502 C505 1.403 . S
H503 C509 0.930 . S
C504 H490 0.930 . S
C504 C502 1.395 . S
C504 C507 1.403 . S
C505 C502 1.403 . S
C505 C506 1.524 . S
C505 C509 1.400 . S
C506 H491 0.960 . S
C506 H492 0.960 . S
C506 H493 0.960 . S
C506 C505 1.524 . S
C507 C504 1.403 . S
C507 C508 1.392 . S
C507 C511 1.495 . S
C508 C507 1.392 . S
C508 C509 1.385 . S
C508 C510 1.478 . S
C509 H503 0.930 . S
C509 C505 1.400 . S
C509 C508 1.385 . S
C510 C508 1.478 . S
C510 C512 1.381 . S
C510 C516 1.383 . S
C511 C507 1.495 . S
C511 H517 0.959 . S
C511 H518 0.961 . S
C511 H519 0.960 . S
C512 C510 1.381 . S
C512 C513 1.394 . S
C512 H520 0.930 . S
C513 C512 1.394 . S
C513 C514 1.383 . S
C513 H521 0.929 . S
C514 C513 1.383 . S
C514 C515 1.377 . S
C515 H499 0.930 . S
C515 C514 1.377 . S
C515 C516 1.379 . S
C516 H500 0.931 . S
C516 C510 1.383 . S
C516 C515 1.379 . S
H517 C511 0.959 . S
H518 C511 0.961 . S
H519 C511 0.960 . S
H520 C512 0.930 . S
H521 C513 0.929 . S
H522 C530 0.929 . S
H523 C532 0.930 . S
H524 C534 0.930 . S
H525 C537 0.929 . S
H526 C540 0.930 . S
H527 C542 0.960 . S
H528 C542 0.960 . S
H529 C542 0.960 . S
C530 H522 0.929 . S
C530 C531 1.377 . S
C530 C532 1.384 . S
C531 C530 1.377 . S
C531 C537 1.390 . S
C532 H523 0.930 . S
C532 C530 1.384 . S
C532 C533 1.372 . S
C533 C532 1.372 . S
C533 C534 1.400 . S
C533 C538 1.490 . S
C534 H524 0.930 . S
C534 C533 1.400 . S
C534 C537 1.386 . S
H535 C551 0.930 . S
H536 C552 0.931 . S
C537 H525 0.929 . S
C537 C531 1.390 . S
C537 C534 1.386 . S
C538 C533 1.490 . S
C538 C540 1.395 . S
C538 C541 1.403 . S
H539 C545 0.930 . S
C540 H526 0.930 . S
C540 C538 1.395 . S
C540 C543 1.403 . S
C541 C538 1.403 . S
C541 C542 1.524 . S
C541 C545 1.400 . S
C542 H527 0.960 . S
C542 H528 0.960 . S
C542 H529 0.960 . S
C542 C541 1.524 . S
C543 C540 1.403 . S
C543 C544 1.392 . S
C543 C547 1.495 . S
C544 C543 1.392 . S
C544 C545 1.385 . S
C544 C546 1.478 . S
C545 H539 0.930 . S
C545 C541 1.400 . S
C545 C544 1.385 . S
C546 C544 1.478 . S
C546 C548 1.381 . S
C546 C552 1.383 . S
C547 C543 1.495 . S
C547 H553 0.959 . S
C547 H554 0.961 . S
C547 H555 0.960 . S
C548 C546 1.381 . S
C548 C549 1.394 . S
C548 H556 0.930 . S
C549 C548 1.394 . S
C549 C550 1.383 . S
C549 H557 0.929 . S
C550 C549 1.383 . S
C550 C551 1.377 . S
C551 H535 0.930 . S
C551 C550 1.377 . S
C551 C552 1.379 . S
C552 H536 0.931 . S
C552 C546 1.383 . S
C552 C551 1.379 . S
H553 C547 0.959 . S
H554 C547 0.961 . S
H555 C547 0.960 . S
H556 C548 0.930 . S
H557 C549 0.929 . S
H558 C566 0.929 . S
H559 C568 0.930 . S
H560 C570 0.930 . S
H561 C573 0.929 . S
H562 C576 0.930 . S
H563 C578 0.960 . S
H564 C578 0.960 . S
H565 C578 0.960 . S
C566 H558 0.929 . S
C566 C567 1.377 . S
C566 C568 1.384 . S
C567 C566 1.377 . S
C567 C573 1.390 . S
C568 H559 0.930 . S
C568 C566 1.384 . S
C568 C569 1.372 . S
C569 C568 1.372 . S
C569 C570 1.400 . S
C569 C574 1.490 . S
C570 H560 0.930 . S
C570 C569 1.400 . S
C570 C573 1.386 . S
H571 C587 0.930 . S
H572 C588 0.931 . S
C573 H561 0.929 . S
C573 C567 1.390 . S
C573 C570 1.386 . S
C574 C569 1.490 . S
C574 C576 1.395 . S
C574 C577 1.403 . S
H575 C581 0.930 . S
C576 H562 0.930 . S
C576 C574 1.395 . S
C576 C579 1.403 . S
C577 C574 1.403 . S
C577 C578 1.524 . S
C577 C581 1.400 . S
C578 H563 0.960 . S
C578 H564 0.960 . S
C578 H565 0.960 . S
C578 C577 1.524 . S
C579 C576 1.403 . S
C579 C580 1.392 . S
C579 C583 1.495 . S
C580 C579 1.392 . S
C580 C581 1.385 . S
C580 C582 1.478 . S
C581 H575 0.930 . S
C581 C577 1.400 . S
C581 C580 1.385 . S
C582 C580 1.478 . S
C582 C584 1.381 . S
C582 C588 1.383 . S
C583 C579 1.495 . S
C583 H589 0.959 . S
C583 H590 0.961 . S
C583 H591 0.960 . S
C584 C582 1.381 . S
C584 C585 1.394 . S
C584 H592 0.930 . S
C585 C584 1.394 . S
C585 C586 1.383 . S
C585 H593 0.929 . S
C586 C585 1.383 . S
C586 C587 1.377 . S
C587 H571 0.930 . S
C587 C586 1.377 . S
C587 C588 1.379 . S
C588 H572 0.931 . S
C588 C582 1.383 . S
C588 C587 1.379 . S
H589 C583 0.959 . S
H590 C583 0.961 . S
H591 C583 0.960 . S
H592 C584 0.930 . S
H593 C585 0.929 . S
H594 C602 0.929 . S
H595 C604 0.930 . S
H596 C606 0.930 . S
H597 C609 0.929 . S
H598 C612 0.930 . S
H599 C614 0.960 . S
H600 C614 0.960 . S
H601 C614 0.960 . S
C602 H594 0.929 . S
C602 C603 1.377 . S
C602 C604 1.384 . S
C603 C602 1.377 . S
C603 C609 1.390 . S
C604 H595 0.930 . S
C604 C602 1.384 . S
C604 C605 1.372 . S
C605 C604 1.372 . S
C605 C606 1.400 . S
C605 C610 1.490 . S
C606 H596 0.930 . S
C606 C605 1.400 . S
C606 C609 1.386 . S
H607 C623 0.930 . S
H608 C624 0.931 . S
C609 H597 0.929 . S
C609 C603 1.390 . S
C609 C606 1.386 . S
C610 C605 1.490 . S
C610 C612 1.395 . S
C610 C613 1.403 . S
H611 C617 0.930 . S
C612 H598 0.930 . S
C612 C610 1.395 . S
C612 C615 1.403 . S
C613 C610 1.403 . S
C613 C614 1.524 . S
C613 C617 1.400 . S
C614 H599 0.960 . S
C614 H600 0.960 . S
C614 H601 0.960 . S
C614 C613 1.524 . S
C615 C612 1.403 . S
C615 C616 1.392 . S
C615 C619 1.495 . S
C616 C615 1.392 . S
C616 C617 1.385 . S
C616 C618 1.478 . S
C617 H611 0.930 . S
C617 C613 1.400 . S
C617 C616 1.385 . S
C618 C616 1.478 . S
C618 C620 1.381 . S
C618 C624 1.383 . S
C619 C615 1.495 . S
C619 H625 0.959 . S
C619 H626 0.961 . S
C619 H627 0.960 . S
C620 C618 1.381 . S
C620 C621 1.394 . S
C620 H628 0.930 . S
C621 C620 1.394 . S
C621 C622 1.383 . S
C621 H629 0.929 . S
C622 C621 1.383 . S
C622 C623 1.377 . S
C623 H607 0.930 . S
C623 C622 1.377 . S
C623 C624 1.379 . S
C624 H608 0.931 . S
C624 C618 1.383 . S
C624 C623 1.379 . S
H625 C619 0.959 . S
H626 C619 0.961 . S
H627 C619 0.960 . S
H628 C620 0.930 . S
H629 C621 0.929 . S
H630 C638 0.929 . S
H631 C640 0.930 . S
H632 C642 0.930 1_655 S
H633 C645 0.929 . S
H634 C648 0.930 . S
H635 C650 0.960 . S
H636 C650 0.960 . S
H637 C650 0.960 . S
C638 H630 0.929 . S
C638 C639 1.377 . S
C638 C640 1.384 . S
C639 C638 1.377 . S
C639 C645 1.390 1_455 S
C640 H631 0.930 . S
C640 C638 1.384 . S
C640 C641 1.372 . S
C641 C640 1.372 . S
C641 C642 1.400 . S
C641 C646 1.490 . S
C642 H632 0.930 1_455 S
C642 C641 1.400 . S
C642 C645 1.386 1_455 S
H643 C659 0.930 . S
H644 C660 0.931 . S
C645 H633 0.929 . S
C645 C639 1.390 1_655 S
C645 C642 1.386 1_655 S
C646 C641 1.490 . S
C646 C648 1.395 . S
C646 C649 1.403 1_455 S
H647 C653 0.930 . S
C648 H634 0.930 . S
C648 C646 1.395 . S
C648 C651 1.403 . S
C649 C646 1.403 1_655 S
C649 C650 1.524 . S
C649 C653 1.400 1_554 S
C650 H635 0.960 . S
C650 H636 0.960 . S
C650 H637 0.960 . S
C650 C649 1.524 . S
C651 C648 1.403 . S
C651 C652 1.392 1_554 S
C651 C655 1.495 1_554 S
C652 C651 1.392 1_556 S
C652 C653 1.385 1_455 S
C652 C654 1.478 . S
C653 H647 0.930 . S
C653 C649 1.400 1_556 S
C653 C652 1.385 1_655 S
C654 C652 1.478 . S
C654 C656 1.381 . S
C654 C660 1.383 . S
C655 C651 1.495 1_556 S
C655 H661 0.959 1_556 S
C655 H662 0.961 . S
C655 H663 0.960 . S
C656 C654 1.381 . S
C656 C657 1.394 . S
C656 H664 0.930 . S
C657 C656 1.394 . S
C657 C658 1.383 . S
C657 H665 0.929 . S
C658 C657 1.383 . S
C658 C659 1.377 . S
C659 H643 0.930 . S
C659 C658 1.377 . S
C659 C660 1.379 . S
C660 H644 0.931 . S
C660 C654 1.383 . S
C660 C659 1.379 . S
H661 C655 0.959 1_554 S
H662 C655 0.961 . S
H663 C655 0.960 . S
H664 C656 0.930 . S
H665 C657 0.929 . S
H666 C674 0.929 . S
H667 C676 0.930 . S
H668 C678 0.930 . S
H669 C681 0.929 . S
H670 C684 0.932 1_565 S
H671 C686 0.960 . S
H672 C686 0.960 . S
H673 C686 0.960 . S
C674 H666 0.929 . S
C674 C675 1.377 1_565 S
C674 C676 1.384 . S
C675 C674 1.377 1_545 S
C675 C681 1.390 . S
C676 H667 0.930 . S
C676 C674 1.384 . S
C676 C677 1.372 1_565 S
C677 C676 1.372 1_545 S
C677 C678 1.400 . S
C677 C682 1.490 . S
C678 H668 0.930 . S
C678 C677 1.400 . S
C678 C681 1.386 . S
H679 C695 0.930 . S
H680 C696 0.931 . S
C681 H669 0.929 . S
C681 C675 1.390 . S
C681 C678 1.386 . S
C682 C677 1.490 . S
C682 C684 1.395 . S
C682 C685 1.403 . S
H683 C689 0.930 . S
C684 H670 0.932 1_545 S
C684 C682 1.395 . S
C684 C687 1.403 . S
C685 C682 1.403 . S
C685 C686 1.524 . S
C685 C689 1.400 . S
C686 H671 0.960 . S
C686 H672 0.960 . S
C686 H673 0.960 . S
C686 C685 1.524 . S
C687 C684 1.403 . S
C687 C688 1.392 . S
C687 C691 1.495 1_545 S
C688 C687 1.392 . S
C688 C689 1.385 . S
C688 C690 1.478 . S
C689 H683 0.930 . S
C689 C685 1.400 . S
C689 C688 1.385 . S
C690 C688 1.478 . S
C690 C692 1.381 1_545 S
C690 C696 1.383 . S
C691 C687 1.495 1_565 S
C691 H697 0.959 . S
C691 H698 0.961 1_565 S
C691 H699 0.960 . S
C692 C690 1.381 1_565 S
C692 C693 1.394 . S
C692 H700 0.930 . S
C693 C692 1.394 . S
C693 C694 1.383 1_565 S
C693 H701 0.929 . S
C694 C693 1.383 1_545 S
C694 C695 1.377 . S
C695 H679 0.930 . S
C695 C694 1.377 . S
C695 C696 1.379 . S
C696 H680 0.931 . S
C696 C690 1.383 . S
C696 C695 1.379 . S
H697 C691 0.959 . S
H698 C691 0.961 1_545 S
H699 C691 0.960 . S
H700 C692 0.930 . S
H701 C693 0.929 . S
H702 C710 0.929 . S
H703 C712 0.930 . S
H704 C714 0.930 . S
H705 C717 0.929 . S
H706 C720 0.930 . S
H707 C722 0.960 . S
H708 C722 0.960 . S
H709 C722 0.960 . S
C710 H702 0.929 . S
C710 C711 1.377 . S
C710 C712 1.384 . S
C711 C710 1.377 . S
C711 C717 1.390 . S
C712 H703 0.930 . S
C712 C710 1.384 . S
C712 C713 1.372 . S
C713 C712 1.372 . S
C713 C714 1.400 . S
C713 C718 1.490 . S
C714 H704 0.930 . S
C714 C713 1.400 . S
C714 C717 1.386 . S
H715 C731 0.930 . S
H716 C732 0.931 . S
C717 H705 0.929 . S
C717 C711 1.390 . S
C717 C714 1.386 . S
C718 C713 1.490 . S
C718 C720 1.395 . S
C718 C721 1.403 . S
H719 C725 0.930 . S
C720 H706 0.930 . S
C720 C718 1.395 . S
C720 C723 1.403 . S
C721 C718 1.403 . S
C721 C722 1.524 . S
C721 C725 1.400 . S
C722 H707 0.960 . S
C722 H708 0.960 . S
C722 H709 0.960 . S
C722 C721 1.524 . S
C723 C720 1.403 . S
C723 C724 1.392 . S
C723 C727 1.495 . S
C724 C723 1.392 . S
C724 C725 1.385 . S
C724 C726 1.478 . S
C725 H719 0.930 . S
C725 C721 1.400 . S
C725 C724 1.385 . S
C726 C724 1.478 . S
C726 C728 1.381 . S
C726 C732 1.383 . S
C727 C723 1.495 . S
C727 H733 0.959 . S
C727 H734 0.961 . S
C727 H735 0.960 . S
C728 C726 1.381 . S
C728 C729 1.394 . S
C728 H736 0.930 . S
C729 C728 1.394 . S
C729 C730 1.383 . S
C729 H737 0.929 . S
C730 C729 1.383 . S
C730 C731 1.377 . S
C731 H715 0.930 . S
C731 C730 1.377 . S
C731 C732 1.379 . S
C732 H716 0.931 . S
C732 C726 1.383 . S
C732 C731 1.379 . S
H733 C727 0.959 . S
H734 C727 0.961 . S
H735 C727 0.960 . S
H736 C728 0.930 . S
H737 C729 0.929 . S
H738 C746 0.929 . S
H739 C748 0.930 . S
H740 C750 0.930 . S
H741 C753 0.929 . S
H742 C756 0.930 . S
H743 C758 0.960 . S
H744 C758 0.960 . S
H745 C758 0.960 . S
C746 H738 0.929 . S
C746 C747 1.377 . S
C746 C748 1.384 . S
C747 C746 1.377 . S
C747 C753 1.390 . S
C748 H739 0.930 . S
C748 C746 1.384 . S
C748 C749 1.372 . S
C749 C748 1.372 . S
C749 C750 1.400 . S
C749 C754 1.490 . S
C750 H740 0.930 . S
C750 C749 1.400 . S
C750 C753 1.386 . S
H751 C767 0.930 . S
H752 C768 0.931 . S
C753 H741 0.929 . S
C753 C747 1.390 . S
C753 C750 1.386 . S
C754 C749 1.490 . S
C754 C756 1.395 1_545 S
C754 C757 1.403 . S
H755 C761 0.930 . S
C756 H742 0.930 . S
C756 C754 1.395 1_565 S
C756 C759 1.403 . S
C757 C754 1.403 . S
C757 C758 1.524 . S
C757 C761 1.400 . S
C758 H743 0.960 . S
C758 H744 0.960 . S
C758 H745 0.960 . S
C758 C757 1.524 . S
C759 C756 1.403 . S
C759 C760 1.392 1_565 S
C759 C763 1.495 . S
C760 C759 1.392 1_545 S
C760 C761 1.385 . S
C760 C762 1.478 . S
C761 H755 0.930 . S
C761 C757 1.400 . S
C761 C760 1.385 . S
C762 C760 1.478 . S
C762 C764 1.381 . S
C762 C768 1.383 . S
C763 C759 1.495 . S
C763 H769 0.959 . S
C763 H770 0.961 . S
C763 H771 0.960 . S
C764 C762 1.381 . S
C764 C765 1.394 . S
C764 H772 0.930 . S
C765 C764 1.394 . S
C765 C766 1.383 . S
C765 H773 0.929 . S
C766 C765 1.383 . S
C766 C767 1.377 . S
C767 H751 0.930 . S
C767 C766 1.377 . S
C767 C768 1.379 . S
C768 H752 0.931 . S
C768 C762 1.383 . S
C768 C767 1.379 . S
H769 C763 0.959 . S
H770 C763 0.961 . S
H771 C763 0.960 . S
H772 C764 0.930 . S
H773 C765 0.929 . S
H774 C782 0.929 . S
H775 C784 0.930 . S
H776 C786 0.930 . S
H777 C789 0.929 . S
H778 C792 0.930 . S
H779 C794 0.960 . S
H780 C794 0.960 . S
H781 C794 0.960 . S
C782 H774 0.929 . S
C782 C783 1.377 . S
C782 C784 1.384 . S
C783 C782 1.377 . S
C783 C789 1.390 . S
C784 H775 0.930 . S
C784 C782 1.384 . S
C784 C785 1.372 . S
C785 C784 1.372 . S
C785 C786 1.400 . S
C785 C790 1.490 . S
C786 H776 0.930 . S
C786 C785 1.400 . S
C786 C789 1.386 . S
H787 C803 0.930 . S
H788 C804 0.931 . S
C789 H777 0.929 . S
C789 C783 1.390 . S
C789 C786 1.386 . S
C790 C785 1.490 . S
C790 C792 1.395 . S
C790 C793 1.403 . S
H791 C797 0.930 . S
C792 H778 0.930 . S
C792 C790 1.395 . S
C792 C795 1.361 1_556 S
C793 C790 1.403 . S
C793 C794 1.524 . S
C793 C797 1.400 1_556 S
C794 H779 0.960 . S
C794 H780 0.960 . S
C794 H781 0.960 . S
C794 C793 1.524 . S
C795 C792 1.361 1_554 S
C795 C796 1.417 . S
C795 C799 1.513 . S
C796 C795 1.417 . S
C796 C797 1.385 . S
C796 C798 1.478 . S
C797 H791 0.930 . S
C797 C793 1.400 1_554 S
C797 C796 1.385 . S
C798 C796 1.478 . S
C798 C800 1.381 . S
C798 C804 1.383 . S
C799 C795 1.513 . S
C799 H805 0.923 1_554 S
C799 H806 0.961 . S
C799 H807 0.960 . S
C800 C798 1.381 . S
C800 C801 1.394 . S
C800 H808 0.930 . S
C801 C800 1.394 . S
C801 C802 1.383 . S
C801 H809 0.929 . S
C802 C801 1.383 . S
C802 C803 1.377 . S
C803 H787 0.930 . S
C803 C802 1.377 . S
C803 C804 1.379 . S
C804 H788 0.931 . S
C804 C798 1.383 . S
C804 C803 1.379 . S
H805 C799 0.923 1_556 S
H806 C799 0.961 . S
H807 C799 0.960 . S
H808 C800 0.930 . S
H809 C801 0.929 . S
H810 C818 0.929 . S
H811 C820 0.930 . S
H812 C822 0.930 . S
H813 C825 0.929 . S
H814 C828 0.930 . S
H815 C830 0.960 . S
H816 C830 0.960 . S
H817 C830 0.960 . S
C818 H810 0.929 . S
C818 C819 1.377 1_655 S
C818 C820 1.384 . S
C819 C818 1.377 1_455 S
C819 C825 1.390 . S
C820 H811 0.930 . S
C820 C818 1.384 . S
C820 C821 1.372 1_655 S
C821 C820 1.372 1_455 S
C821 C822 1.400 . S
C821 C826 1.490 . S
C822 H812 0.930 . S
C822 C821 1.400 . S
C822 C825 1.386 . S
H823 C839 0.930 . S
H824 C840 0.931 . S
C825 H813 0.929 . S
C825 C819 1.390 . S
C825 C822 1.386 . S
C826 C821 1.490 . S
C826 C828 1.395 . S
C826 C829 1.403 . S
H827 C833 0.930 . S
C828 H814 0.930 . S
C828 C826 1.395 . S
C828 C831 1.403 . S
C829 C826 1.403 . S
C829 C830 1.524 . S
C829 C833 1.400 . S
C830 H815 0.960 . S
C830 H816 0.960 . S
C830 H817 0.960 . S
C830 C829 1.524 . S
C831 C828 1.403 . S
C831 C832 1.392 . S
C831 C835 1.495 . S
C832 C831 1.392 . S
C832 C833 1.385 . S
C832 C834 1.478 . S
C833 H827 0.930 . S
C833 C829 1.400 . S
C833 C832 1.385 . S
C834 C832 1.478 . S
C834 C836 1.381 . S
C834 C840 1.383 . S
C835 C831 1.495 . S
C835 H841 0.959 . S
C835 H842 0.961 . S
C835 H843 0.945 1_455 S
C836 C834 1.381 . S
C836 C837 1.394 . S
C836 H844 0.930 1_455 S
C837 C836 1.394 . S
C837 C838 1.383 . S
C837 H845 0.929 1_455 S
C838 C837 1.383 . S
C838 C839 1.377 . S
C839 H823 0.930 . S
C839 C838 1.377 . S
C839 C840 1.379 . S
C840 H824 0.931 . S
C840 C834 1.383 . S
C840 C839 1.379 . S
H841 C835 0.959 . S
H842 C835 0.961 . S
H843 C835 0.945 1_655 S
H844 C836 0.930 1_655 S
H845 C837 0.929 1_655 S
C207 C12 2.562 . S
C226 N187 2.511 . S
C243 C52 2.783 . S
C262 N160 2.774 1_655 S
C279 C111 2.822 . S
C298 N173 2.815 1_565 S
C315 C31 3.395 . S
C334 N186 3.400 . S
C370 N161 3.110 . S
C351 C71 3.139 . S
C406 N174 3.069 . S
C387 C92 3.093 . S
C423 C48 0.216 . S
C442 N134 0.189 . S
C459 C109 0.408 . S
C478 N148 0.350 . S
C495 C29 0.501 . S
C514 N122 0.441 . S
C550 N135 0.293 . S
C531 C69 0.437 . S
C586 N147 0.546 . S
C567 C88 0.565 . S
C603 C8 0.177 . S
C622 N121 0.162 . S
C658 N151 1.276 . S
C639 C17 1.269 1_455 S
C675 C57 1.308 . S
C694 N125 1.302 . S
C711 C97 1.248 . S
C730 N138 1.272 . S
C766 N177 1.812 . S
C747 C42 1.713 . S
C802 N190 1.707 . S
C783 C82 1.711 . S
C819 C2 1.695 . S
C838 N164 1.760 . S
