# Generated by pormake.
# Topology pyr, (3,6)-cn, num edge types: 1
# Building blocks:
#     Node 0, Type 0, BuildingBlock: VETTIZ_charged_linker_0, # of connection points: 3
#     Node 1, Type 0, BuildingBlock: VETTIZ_charged_linker_0, # of connection points: 3
#     Node 2, Type 0, BuildingBlock: VETTIZ_charged_linker_0, # of connection points: 3
#     Node 3, Type 0, BuildingBlock: VETTIZ_charged_linker_0, # of connection points: 3
#     Node 4, Type 0, BuildingBlock: VETTIZ_charged_linker_0, # of connection points: 3
#     Node 5, Type 0, BuildingBlock: VETTIZ_charged_linker_0, # of connection points: 3
#     Node 6, Type 0, BuildingBlock: VETTIZ_charged_linker_0, # of connection points: 3
#     Node 7, Type 0, BuildingBlock: VETTIZ_charged_linker_0, # of connection points: 3
#     Node 8, Type 1, BuildingBlock: JUFBIX_clean_sbu_0, # of connection points: 6
#     Node 9, Type 1, BuildingBlock: JUFBIX_clean_sbu_0, # of connection points: 6
#     Node 10, Type 1, BuildingBlock: JUFBIX_clean_sbu_0, # of connection points: 6
#     Node 11, Type 1, BuildingBlock: JUFBIX_clean_sbu_0, # of connection points: 6
#     Edge 12, Type (0, 1), BuildingBlock: KIFKEQ_clean_linker_1, # of connection points: 2
#     Edge 13, Type (0, 1), BuildingBlock: KIFKEQ_clean_linker_1, # of connection points: 2
#     Edge 14, Type (0, 1), BuildingBlock: KIFKEQ_clean_linker_1, # of connection points: 2
#     Edge 15, Type (0, 1), BuildingBlock: KIFKEQ_clean_linker_1, # of connection points: 2
#     Edge 16, Type (0, 1), BuildingBlock: KIFKEQ_clean_linker_1, # of connection points: 2
#     Edge 17, Type (0, 1), BuildingBlock: KIFKEQ_clean_linker_1, # of connection points: 2
#     Edge 18, Type (0, 1), BuildingBlock: KIFKEQ_clean_linker_1, # of connection points: 2
#     Edge 19, Type (0, 1), BuildingBlock: KIFKEQ_clean_linker_1, # of connection points: 2
#     Edge 20, Type (0, 1), BuildingBlock: KIFKEQ_clean_linker_1, # of connection points: 2
#     Edge 21, Type (0, 1), BuildingBlock: KIFKEQ_clean_linker_1, # of connection points: 2
#     Edge 22, Type (0, 1), BuildingBlock: KIFKEQ_clean_linker_1, # of connection points: 2
#     Edge 23, Type (0, 1), BuildingBlock: KIFKEQ_clean_linker_1, # of connection points: 2
#     Edge 24, Type (0, 1), BuildingBlock: KIFKEQ_clean_linker_1, # of connection points: 2
#     Edge 25, Type (0, 1), BuildingBlock: KIFKEQ_clean_linker_1, # of connection points: 2
#     Edge 26, Type (0, 1), BuildingBlock: KIFKEQ_clean_linker_1, # of connection points: 2
#     Edge 27, Type (0, 1), BuildingBlock: KIFKEQ_clean_linker_1, # of connection points: 2
#     Edge 28, Type (0, 1), BuildingBlock: KIFKEQ_clean_linker_1, # of connection points: 2
#     Edge 29, Type (0, 1), BuildingBlock: KIFKEQ_clean_linker_1, # of connection points: 2
#     Edge 30, Type (0, 1), BuildingBlock: KIFKEQ_clean_linker_1, # of connection points: 2
#     Edge 31, Type (0, 1), BuildingBlock: KIFKEQ_clean_linker_1, # of connection points: 2
#     Edge 32, Type (0, 1), BuildingBlock: KIFKEQ_clean_linker_1, # of connection points: 2
#     Edge 33, Type (0, 1), BuildingBlock: KIFKEQ_clean_linker_1, # of connection points: 2
#     Edge 34, Type (0, 1), BuildingBlock: KIFKEQ_clean_linker_1, # of connection points: 2
#     Edge 35, Type (0, 1), BuildingBlock: KIFKEQ_clean_linker_1, # of connection points: 2
# Relax obj value: 0.046
# Max RMSD: 0.093
# Mean RMSD: 0.031
data_MOF--net-pyr--node1-JUFBIX_clean_sbu_0--node2-VETTIZ_charged_linker_0--edge1-KIFKEQ_clean_linker_1
_symmetry_space_group_name_H-M    P1
_symmetry_Int_Tables_number       1
_symmetry_cell_setting            triclinic
loop_
_symmetry_equiv_pos_as_xyz
'x, y, z'
_cell_length_a     46.089333
_cell_length_b     44.22019
_cell_length_c     46.101145
_cell_angle_alpha  84.755135
_cell_angle_beta   89.606197
_cell_angle_gamma 91.544693
loop_
_atom_site_label
_atom_site_type_symbol
_atom_site_fract_x
_atom_site_fract_y
_atom_site_fract_z
_atom_type_partial_charge
C0 C 0.16137 0.10448 0.2658 0.0
C1 C 0.13592 0.11444 0.27901 0.0
C2 C 0.12061 0.13816 0.26392 0.0
C3 C 0.15634 0.14281 0.22482 0.0
C4 C 0.17105 0.11889 0.23869 0.0
C5 C 0.19721 0.11115 0.22102 0.0
H6 H 0.28394 0.14374 0.10085 0.0
C7 C 0.17202 0.15343 0.19747 0.0
C8 C 0.19601 0.13489 0.19483 0.0
H9 H 0.2916 0.0698 0.16841 0.0
H10 H 0.24952 0.08676 0.19298 0.0
H11 H 0.26691 0.19507 0.14351 0.0
H12 H 0.21435 0.136 0.0945 0.0
H13 H 0.19943 0.1723 0.09078 0.0
H14 H 0.23562 0.16729 0.07723 0.0
H15 H 0.26536 0.19957 0.10445 0.0
H16 H 0.23904 0.21646 0.12666 0.0
C17 C 0.22469 0.11549 0.2394 0.0
C18 C 0.19249 0.07849 0.21209 0.0
C19 C 0.13552 0.24585 0.13599 0.0
C20 C 0.14504 0.26204 0.10976 0.0
C21 C 0.16998 0.252 0.09584 0.0
C22 C 0.18502 0.22657 0.10778 0.0
C23 C 0.17514 0.21072 0.13401 0.0
C24 C 0.15071 0.2205 0.14755 0.0
C25 C 0.14307 0.20102 0.17512 0.0
C26 C 0.16699 0.17797 0.1761 0.0
C27 C 0.18581 0.18367 0.15201 0.0
C28 C 0.14517 0.22135 0.20075 0.0
C29 C 0.11267 0.18598 0.17129 0.0
C30 C 0.2765 0.13088 0.12074 0.0
C31 C 0.29164 0.10532 0.13253 0.0
C32 C 0.28103 0.08984 0.15886 0.0
C33 C 0.25629 0.09956 0.17308 0.0
C34 C 0.24152 0.12505 0.16096 0.0
C35 C 0.25167 0.14016 0.13512 0.0
C36 C 0.23304 0.16654 0.12511 0.0
C37 C 0.21 0.16472 0.14902 0.0
C38 C 0.21508 0.1404 0.1702 0.0
C39 C 0.25193 0.19608 0.12464 0.0
C40 C 0.21997 0.16055 0.09524 0.0
H41 H 0.11793 0.17035 0.22738 0.0
H42 H 0.17372 0.08622 0.27641 0.0
H43 H 0.16922 0.07391 0.20736 0.0
H44 H 0.2042 0.07462 0.19186 0.0
H45 H 0.19906 0.06136 0.22979 0.0
H46 H 0.22364 0.13685 0.25035 0.0
H47 H 0.22678 0.09636 0.25656 0.0
H48 H 0.2448 0.11765 0.2262 0.0
H49 H 0.11678 0.25295 0.14764 0.0
H50 H 0.17773 0.26359 0.07544 0.0
H51 H 0.20375 0.22017 0.09606 0.0
H52 H 0.164 0.23764 0.19762 0.0
H53 H 0.12531 0.23479 0.2024 0.0
H54 H 0.14891 0.20845 0.22196 0.0
H55 H 0.10816 0.1832 0.14799 0.0
H56 H 0.11073 0.16266 0.1822 0.0
H57 H 0.09519 0.19989 0.17944 0.0
H58 H 0.10044 0.14576 0.27256 0.0
C59 C 0.13068 0.15236 0.23727 0.0
C60 C 0.30108 0.86975 0.63926 0.0
C61 C 0.29007 0.89709 0.64743 0.0
C62 C 0.3087 0.91741 0.66075 0.0
C63 C 0.34849 0.88325 0.65745 0.0
C64 C 0.33024 0.86341 0.64436 0.0
C65 C 0.34543 0.83558 0.63663 0.0
H66 H 0.46777 0.75538 0.63424 0.0
C67 C 0.37743 0.86981 0.65958 0.0
C68 C 0.37582 0.84196 0.64742 0.0
H69 H 0.38172 0.73166 0.60484 0.0
H70 H 0.36392 0.77853 0.61889 0.0
H71 H 0.46793 0.82879 0.61216 0.0
H72 H 0.44489 0.77768 0.69363 0.0
H73 H 0.46161 0.81191 0.70188 0.0
H74 H 0.48205 0.78541 0.68293 0.0
H75 H 0.49375 0.80833 0.63483 0.0
H76 H 0.48413 0.84637 0.64115 0.0
C77 C 0.34471 0.83516 0.60304 0.0
C78 C 0.33066 0.80746 0.6539 0.0
C79 C 0.45677 0.92221 0.71278 0.0
C80 C 0.48445 0.91351 0.72228 0.0
C81 C 0.4965 0.88743 0.71205 0.0
C82 C 0.48054 0.86959 0.69373 0.0
C83 C 0.4521 0.87766 0.68601 0.0
C84 C 0.44097 0.90395 0.69512 0.0
C85 C 0.40987 0.90822 0.6867 0.0
C86 C 0.40385 0.87985 0.67151 0.0
C87 C 0.42862 0.86207 0.67091 0.0
C88 C 0.4084 0.93737 0.66543 0.0
C89 C 0.3914 0.90872 0.71496 0.0
C90 C 0.44506 0.76021 0.63095 0.0
C91 C 0.4263 0.7398 0.61789 0.0
C92 C 0.39691 0.74717 0.61405 0.0
C93 C 0.38648 0.77439 0.62249 0.0
C94 C 0.40543 0.79452 0.63531 0.0
C95 C 0.43413 0.78728 0.63962 0.0
C96 C 0.45054 0.81092 0.65505 0.0
C97 C 0.42708 0.83388 0.65839 0.0
C98 C 0.40078 0.82401 0.64675 0.0
C99 C 0.47559 0.82434 0.63495 0.0
C100 C 0.46057 0.79589 0.68487 0.0
H101 H 0.35087 0.9271 0.67588 0.0
H102 H 0.28731 0.85358 0.62913 0.0
H103 H 0.32138 0.81342 0.67492 0.0
H104 H 0.34605 0.78932 0.66025 0.0
H105 H 0.31266 0.79793 0.64134 0.0
H106 H 0.3473 0.85857 0.59207 0.0
H107 H 0.32375 0.82544 0.59591 0.0
H108 H 0.36267 0.82254 0.59435 0.0
H109 H 0.44649 0.9416 0.7208 0.0
H110 H 0.51784 0.88031 0.71905 0.0
H111 H 0.49055 0.84967 0.68709 0.0
H112 H 0.42795 0.94005 0.65102 0.0
H113 H 0.40731 0.95796 0.67747 0.0
H114 H 0.38989 0.93689 0.65036 0.0
H115 H 0.40069 0.89389 0.73318 0.0
H116 H 0.36904 0.89966 0.71285 0.0
H117 H 0.39053 0.93204 0.722 0.0
H118 H 0.30091 0.9389 0.66674 0.0
C119 C 0.33782 0.91065 0.66577 0.0
C120 C 0.65524 0.25958 0.9028 0.0
C121 C 0.62943 0.24607 0.89321 0.0
C122 C 0.61682 0.25862 0.86716 0.0
C123 C 0.65511 0.29743 0.86112 0.0
C124 C 0.66765 0.28505 0.88645 0.0
C125 C 0.69518 0.30191 0.8934 0.0
H126 H 0.79004 0.42026 0.86286 0.0
C127 C 0.67333 0.32388 0.84945 0.0
C128 C 0.6969 0.3266 0.86817 0.0
H129 H 0.79301 0.34753 0.93231 0.0
H130 H 0.74972 0.32478 0.91456 0.0
H131 H 0.71957 0.4289 0.86325 0.0
H132 H 0.77343 0.37439 0.81267 0.0
H133 H 0.74716 0.39178 0.78976 0.0
H134 H 0.77371 0.4151 0.8066 0.0
H135 H 0.74539 0.44541 0.83658 0.0
H136 H 0.70947 0.43375 0.82632 0.0
C137 C 0.69064 0.31525 0.92298 0.0
C138 C 0.72067 0.27975 0.8928 0.0
C139 C 0.64267 0.38499 0.7569 0.0
C140 C 0.65456 0.41049 0.74003 0.0
C141 C 0.68032 0.42432 0.74967 0.0
C142 C 0.69403 0.41268 0.77536 0.0
C143 C 0.68195 0.38688 0.79169 0.0
C144 C 0.65665 0.37359 0.78227 0.0
C145 C 0.64678 0.34627 0.80191 0.0
C146 C 0.67038 0.34506 0.82466 0.0
C147 C 0.69099 0.36893 0.81879 0.0
C148 C 0.6168 0.353 0.81498 0.0
C149 C 0.64688 0.31819 0.78402 0.0
C150 C 0.78149 0.39933 0.87414 0.0
C151 C 0.79489 0.3862 0.89957 0.0
C152 C 0.78286 0.35884 0.91334 0.0
C153 C 0.75771 0.3454 0.90283 0.0
C154 C 0.74423 0.35911 0.87799 0.0
C155 C 0.75632 0.38535 0.86372 0.0
C156 C 0.73936 0.39578 0.83688 0.0
C157 C 0.71491 0.37181 0.83789 0.0
C158 C 0.71789 0.35056 0.86224 0.0
C159 C 0.72788 0.42773 0.84067 0.0
C160 C 0.75934 0.39448 0.80993 0.0
H161 H 0.6187 0.29247 0.8316 0.0
H162 H 0.66548 0.25078 0.92277 0.0
H163 H 0.71617 0.2618 0.87789 0.0
H164 H 0.74105 0.29112 0.88424 0.0
H165 H 0.72462 0.2682 0.91477 0.0
H166 H 0.66846 0.32437 0.92446 0.0
H167 H 0.69309 0.29754 0.94144 0.0
H168 H 0.70552 0.33459 0.92617 0.0
H169 H 0.62265 0.37406 0.75066 0.0
H170 H 0.69017 0.44386 0.7371 0.0
H171 H 0.71358 0.42413 0.78147 0.0
H172 H 0.61564 0.37731 0.81927 0.0
H173 H 0.59898 0.34816 0.79984 0.0
H174 H 0.61237 0.34021 0.83632 0.0
H175 H 0.66445 0.32045 0.76722 0.0
H176 H 0.65143 0.29687 0.79743 0.0
H177 H 0.62598 0.31543 0.7726 0.0
H178 H 0.59733 0.24843 0.85883 0.0
C179 C 0.62944 0.28415 0.85118 0.0
C180 C 0.99005 0.7246 0.43406 0.0
C181 C 0.98284 0.73876 0.45918 0.0
C182 C 0.9604 0.72572 0.47763 0.0
C183 C 0.95117 0.68698 0.44467 0.0
C184 C 0.97398 0.69888 0.42723 0.0
C185 C 0.97768 0.68217 0.40049 0.0
H186 H 0.9247 0.57855 0.31387 0.0
C187 C 0.93756 0.6616 0.43048 0.0
C188 C 0.95324 0.6584 0.40472 0.0
H189 H 1.00006 0.63817 0.29813 0.0
H190 H 0.99413 0.65637 0.34579 0.0
H191 H 0.939 0.55593 0.37806 0.0
H192 H 0.88502 0.62716 0.34165 0.0
H193 H 0.86542 0.60666 0.37015 0.0
H194 H 0.87712 0.58743 0.33966 0.0
H195 H 0.90258 0.54818 0.36687 0.0
H196 H 0.91057 0.55774 0.40333 0.0
C197 C 1.00787 0.66761 0.40164 0.0
C198 C 0.97298 0.70491 0.37341 0.0
C199 C 0.84179 0.6134 0.46936 0.0
C200 C 0.82339 0.59067 0.4594 0.0
C201 C 0.83303 0.57434 0.43648 0.0
C202 C 0.85968 0.58166 0.42258 0.0
C203 C 0.87688 0.60578 0.43142 0.0
C204 C 0.86846 0.62044 0.45516 0.0
C205 C 0.89022 0.64479 0.46195 0.0
C206 C 0.91239 0.64305 0.43759 0.0
C207 C 0.90406 0.62054 0.41952 0.0
C208 C 0.9032 0.6357 0.49233 0.0
C209 C 0.87472 0.67556 0.45952 0.0
C210 C 0.93984 0.59567 0.32063 0.0
C211 C 0.96254 0.60737 0.3021 0.0
C212 C 0.98231 0.62893 0.31202 0.0
C213 C 0.97871 0.63956 0.3396 0.0
C214 C 0.95509 0.6285 0.35739 0.0
C215 C 0.93654 0.60646 0.34796 0.0
C216 C 0.91275 0.59702 0.36954 0.0
C217 C 0.91972 0.61739 0.39343 0.0
C218 C 0.94435 0.63602 0.38614 0.0
C219 C 0.9161 0.56293 0.37996 0.0
C220 C 0.88343 0.6047 0.35467 0.0
H221 H 0.92746 0.6915 0.48516 0.0
H222 H 1.0074 0.73374 0.4196 0.0
H223 H 0.95501 0.72037 0.37739 0.0
H224 H 0.96647 0.69382 0.35392 0.0
H225 H 0.99284 0.71919 0.36813 0.0
H226 H 1.01367 0.65982 0.42445 0.0
H227 H 0.02504 0.68413 0.39287 0.0
H228 H 1.00862 0.64704 0.38977 0.0
H229 H 0.8352 0.62598 0.48727 0.0
H230 H 0.81929 0.55685 0.42824 0.0
H231 H 0.86533 0.56897 0.40474 0.0
H232 H 0.90298 0.61059 0.49728 0.0
H233 H 0.89068 0.64529 0.50984 0.0
H234 H 0.92631 0.64279 0.49374 0.0
H235 H 0.86063 0.67759 0.43997 0.0
H236 H 0.8898 0.6954 0.45686 0.0
H237 H 0.86074 0.67762 0.47893 0.0
H238 H 0.9541 0.73624 0.49694 0.0
C239 C 0.94467 0.69988 0.47059 0.0
C240 C 0.87253 0.75448 0.91398 0.0
C241 C 0.89672 0.74018 0.90286 0.0
C242 C 0.90986 0.7532 0.87678 0.0
C243 C 0.87513 0.7936 0.87316 0.0
C244 C 0.86203 0.78101 0.89869 0.0
C245 C 0.83604 0.79878 0.90665 0.0
H246 H 0.75024 0.92096 0.87842 0.0
C247 C 0.85927 0.82114 0.86262 0.0
C248 C 0.83628 0.82442 0.88212 0.0
H249 H 0.74004 0.84775 0.94679 0.0
H250 H 0.78268 0.82413 0.92947 0.0
H251 H 0.76553 0.87661 0.82755 0.0
H252 H 0.82149 0.9279 0.88104 0.0
H253 H 0.8345 0.93243 0.84486 0.0
H254 H 0.79914 0.94603 0.85319 0.0
H255 H 0.76743 0.91741 0.82388 0.0
H256 H 0.793 0.89547 0.80554 0.0
C257 C 0.8086 0.77783 0.90587 0.0
C258 C 0.84176 0.81084 0.9366 0.0
C259 C 0.89425 0.88281 0.76986 0.0
C260 C 0.88578 0.91026 0.75474 0.0
C261 C 0.86227 0.9255 0.76621 0.0
C262 C 0.84761 0.91362 0.79186 0.0
C263 C 0.85643 0.88614 0.80655 0.0
C264 C 0.8796 0.87145 0.79552 0.0
C265 C 0.88683 0.84308 0.81425 0.0
C266 C 0.86397 0.84278 0.83816 0.0
C267 C 0.84597 0.86793 0.83359 0.0
C268 C 0.8827 0.81571 0.79578 0.0
C269 C 0.91798 0.84736 0.82609 0.0
C270 C 0.75737 0.89996 0.88974 0.0
C271 C 0.74171 0.88628 0.91412 0.0
C272 C 0.75152 0.85867 0.92791 0.0
C273 C 0.77637 0.845 0.91785 0.0
C274 C 0.79167 0.85876 0.8934 0.0
C275 C 0.78198 0.88568 0.87959 0.0
C276 C 0.8003 0.89622 0.8531 0.0
C277 C 0.82257 0.87136 0.85339 0.0
C278 C 0.81757 0.84957 0.87731 0.0
C279 C 0.78069 0.89672 0.82597 0.0
C280 C 0.81457 0.92739 0.85801 0.0
H281 H 0.91043 0.78818 0.84231 0.0
H282 H 0.86171 0.74494 0.93379 0.0
H283 H 0.86441 0.82002 0.93762 0.0
H284 H 0.82775 0.82975 0.941 0.0
H285 H 0.8388 0.79239 0.9545 0.0
H286 H 0.81098 0.76116 0.88939 0.0
H287 H 0.8045 0.76478 0.92732 0.0
H288 H 0.78899 0.79042 0.89921 0.0
H289 H 0.91182 0.87002 0.76182 0.0
H290 H 0.85537 0.94693 0.7556 0.0
H291 H 0.83002 0.9264 0.79936 0.0
H292 H 0.86389 0.81902 0.78092 0.0
H293 H 0.90221 0.81286 0.78212 0.0
H294 H 0.87765 0.79414 0.80907 0.0
H295 H 0.92305 0.87165 0.82894 0.0
H296 H 0.92094 0.83549 0.84798 0.0
H297 H 0.93451 0.83967 0.81095 0.0
H298 H 0.9287 0.74304 0.86788 0.0
C299 C 0.89929 0.77965 0.86198 0.0
C300 C 0.73125 0.14421 0.39147 0.0
C301 C 0.74276 0.11705 0.38341 0.0
C302 C 0.72458 0.09648 0.36989 0.0
C303 C 0.6842 0.12993 0.37294 0.0
C304 C 0.70203 0.15008 0.38614 0.0
C305 C 0.68629 0.17759 0.39382 0.0
H306 H 0.5622 0.25491 0.39662 0.0
C307 C 0.65502 0.14279 0.37074 0.0
C308 C 0.65606 0.17065 0.38292 0.0
H309 H 0.64779 0.28057 0.42581 0.0
H310 H 0.66664 0.2343 0.4114 0.0
H311 H 0.56368 0.18148 0.41833 0.0
H312 H 0.58556 0.23339 0.33694 0.0
H313 H 0.56959 0.19882 0.32865 0.0
H314 H 0.54857 0.22476 0.34772 0.0
H315 H 0.53742 0.2015 0.39586 0.0
H316 H 0.54775 0.16376 0.38928 0.0
C317 C 0.68682 0.17801 0.42742 0.0
C318 C 0.70064 0.20599 0.37662 0.0
C319 C 0.57662 0.08832 0.31813 0.0
C320 C 0.54872 0.09629 0.30873 0.0
C321 C 0.5362 0.12223 0.31871 0.0
C322 C 0.55186 0.14061 0.3368 0.0
C323 C 0.58047 0.13321 0.3445 0.0
C324 C 0.59212 0.10711 0.33553 0.0
C325 C 0.62332 0.10357 0.34386 0.0
C326 C 0.6288 0.13215 0.35887 0.0
C327 C 0.60366 0.14939 0.35947 0.0
C328 C 0.6254 0.07459 0.36526 0.0
C329 C 0.64177 0.10331 0.31556 0.0
C330 C 0.58502 0.25063 0.3998 0.0
C331 C 0.60334 0.27138 0.41293 0.0
C332 C 0.63293 0.26475 0.41657 0.0
C333 C 0.64398 0.23788 0.40792 0.0
C334 C 0.62544 0.21736 0.3951 0.0
C335 C 0.59656 0.22392 0.39093 0.0
C336 C 0.58065 0.19996 0.37545 0.0
C337 C 0.60462 0.17759 0.37198 0.0
C338 C 0.63073 0.18804 0.38358 0.0
C339 C 0.55589 0.1859 0.39558 0.0
C340 C 0.57028 0.21481 0.3457 0.0
H341 H 0.68271 0.08611 0.35442 0.0
H342 H 0.74467 0.16057 0.40176 0.0
H343 H 0.71022 0.20022 0.35566 0.0
H344 H 0.68493 0.22378 0.37016 0.0
H345 H 0.71835 0.2159 0.38929 0.0
H346 H 0.68448 0.15457 0.43837 0.0
H347 H 0.70763 0.18801 0.43464 0.0
H348 H 0.66866 0.19038 0.43605 0.0
H349 H 0.58726 0.06907 0.31025 0.0
H350 H 0.51469 0.12881 0.31175 0.0
H351 H 0.54147 0.16039 0.3433 0.0
H352 H 0.60595 0.0716 0.37978 0.0
H353 H 0.6268 0.05395 0.35333 0.0
H354 H 0.64397 0.07552 0.38021 0.0
H355 H 0.63208 0.11771 0.29726 0.0
H356 H 0.66391 0.11303 0.31751 0.0
H357 H 0.64323 0.07996 0.30872 0.0
H358 H 0.73275 0.07511 0.36397 0.0
C359 C 0.69541 0.10276 0.36463 0.0
C360 C 0.38696 0.62157 0.27262 0.0
C361 C 0.37418 0.59683 0.28986 0.0
C362 C 0.34846 0.58318 0.27994 0.0
C363 C 0.34886 0.61906 0.23663 0.0
C364 C 0.37403 0.63226 0.24646 0.0
C365 C 0.38499 0.65872 0.22631 0.0
H366 H 0.37065 0.75256 0.10363 0.0
C367 C 0.34138 0.63582 0.20837 0.0
C368 C 0.36261 0.65905 0.2024 0.0
H369 H 0.43551 0.75627 0.17064 0.0
H370 H 0.41424 0.71142 0.19671 0.0
H371 H 0.31611 0.73554 0.14812 0.0
H372 H 0.37194 0.682 0.09948 0.0
H373 H 0.33793 0.66309 0.10093 0.0
H374 H 0.34158 0.70107 0.08289 0.0
H375 H 0.31618 0.73645 0.10909 0.0
H376 H 0.29434 0.70897 0.13135 0.0
C377 C 0.38411 0.68766 0.24298 0.0
C378 C 0.41553 0.65119 0.21511 0.0
C379 C 0.2513 0.60634 0.15205 0.0
C380 C 0.24018 0.61717 0.12465 0.0
C381 C 0.25593 0.64052 0.10789 0.0
C382 C 0.28139 0.65342 0.11835 0.0
C383 C 0.29178 0.64284 0.14585 0.0
C384 C 0.27717 0.61929 0.16204 0.0
C385 C 0.29265 0.60995 0.19009 0.0
C386 C 0.31846 0.6323 0.18824 0.0
C387 C 0.31755 0.6517 0.16234 0.0
C388 C 0.27218 0.61482 0.21586 0.0
C389 C 0.3022 0.57677 0.18918 0.0
C390 C 0.38035 0.74351 0.12381 0.0
C391 C 0.40468 0.75813 0.13519 0.0
C392 C 0.41651 0.74574 0.16164 0.0
C393 C 0.40416 0.71958 0.17672 0.0
C394 C 0.37952 0.70555 0.16543 0.0
C395 C 0.36807 0.71743 0.13935 0.0
C396 C 0.34161 0.69959 0.13097 0.0
C397 C 0.33891 0.67534 0.15655 0.0
C398 C 0.36123 0.67897 0.17654 0.0
C399 C 0.31558 0.72111 0.12957 0.0
C400 C 0.34832 0.6858 0.10199 0.0
H401 H 0.3161 0.58299 0.24723 0.0
H402 H 0.40693 0.63238 0.27915 0.0
H403 H 0.41657 0.62674 0.21135 0.0
H404 H 0.42129 0.66358 0.19388 0.0
H405 H 0.43252 0.65599 0.23116 0.0
H406 H 0.36659 0.68575 0.25983 0.0
H407 H 0.40493 0.69159 0.25421 0.0
H408 H 0.37898 0.70828 0.22874 0.0
H409 H 0.24006 0.58843 0.16564 0.0
H410 H 0.24881 0.64875 0.08635 0.0
H411 H 0.29207 0.67116 0.10449 0.0
H412 H 0.26073 0.6366 0.21174 0.0
H413 H 0.25546 0.59621 0.21906 0.0
H414 H 0.28382 0.61648 0.23651 0.0
H415 H 0.3095 0.57264 0.16685 0.0
H416 H 0.32094 0.57123 0.20325 0.0
H417 H 0.28399 0.56046 0.19546 0.0
H418 H 0.33793 0.56425 0.29283 0.0
C419 C 0.33574 0.59417 0.25348 0.0
C420 C 0.03671 0.29417 0.59066 0.0
C421 C 0.04484 0.27794 0.56713 0.0
C422 C 0.06735 0.28993 0.54824 0.0
C423 C 0.0746 0.33226 0.57742 0.0
C424 C 0.0517 0.32134 0.59522 0.0
C425 C 0.04641 0.34121 0.61948 0.0
H426 H 0.08954 0.46175 0.69071 0.0
C427 C 0.08661 0.36004 0.58878 0.0
C428 C 0.06976 0.36591 0.61304 0.0
H429 H 0.02187 0.3947 0.71608 0.0
H430 H 0.02852 0.37192 0.6709 0.0
H431 H 0.0758 0.47141 0.62097 0.0
H432 H 0.13224 0.41469 0.6745 0.0
H433 H 0.15212 0.42682 0.64296 0.0
H434 H 0.1395 0.45458 0.66596 0.0
H435 H 0.10844 0.48583 0.63636 0.0
H436 H 0.10858 0.4703 0.60144 0.0
C437 C 0.01554 0.35391 0.61602 0.0
C438 C 0.05147 0.32214 0.64883 0.0
C439 C 0.18407 0.40454 0.55158 0.0
C440 C 0.20123 0.42922 0.55946 0.0
C441 C 0.18918 0.44971 0.57753 0.0
C442 C 0.16126 0.44444 0.58939 0.0
C443 C 0.14531 0.41827 0.5833 0.0
C444 C 0.15612 0.39963 0.56357 0.0
C445 C 0.13533 0.37377 0.55867 0.0
C446 C 0.11134 0.37876 0.58043 0.0
C447 C 0.11763 0.40454 0.5951 0.0
C448 C 0.12464 0.37802 0.52675 0.0
C449 C 0.15092 0.34357 0.56657 0.0
C450 C 0.07598 0.44224 0.68657 0.0
C451 C 0.05542 0.42985 0.70729 0.0
C452 C 0.03784 0.40485 0.70055 0.0
C453 C 0.042 0.39139 0.67443 0.0
C454 C 0.06422 0.40275 0.65501 0.0
C455 C 0.08041 0.42811 0.66109 0.0
C456 C 0.10466 0.43573 0.63954 0.0
C457 C 0.10037 0.41086 0.61931 0.0
C458 C 0.0766 0.39162 0.62835 0.0
C459 C 0.09941 0.46756 0.62378 0.0
C460 C 0.13373 0.4331 0.65635 0.0
H461 H 0.09947 0.32455 0.53844 0.0
H462 H 0.01933 0.28572 0.60539 0.0
H463 H 0.06905 0.3057 0.64671 0.0
H464 H 0.05885 0.33601 0.66623 0.0
H465 H 0.03154 0.30894 0.65632 0.0
H466 H 1.01081 0.36033 0.59267 0.0
H467 H 0.99884 0.33669 0.62448 0.0
H468 H 1.01279 0.37484 0.62697 0.0
H469 H 0.19262 0.38886 0.53717 0.0
H470 H 0.20196 0.46892 0.58384 0.0
H471 H 0.1537 0.46021 0.60389 0.0
H472 H 0.12754 0.40196 0.51722 0.0
H473 H 0.1367 0.36358 0.51258 0.0
H474 H 0.10106 0.37295 0.52508 0.0
H475 H 0.16225 0.34416 0.58775 0.0
H476 H 0.136 0.32359 0.56912 0.0
H477 H 0.16738 0.3396 0.54971 0.0
H478 H 0.07428 0.27777 0.53015 0.0
C479 C 0.08216 0.31699 0.55321 0.0
Co480 Co 0.99457 0.00923 0.50636 0.0
C481 C 0.021 0.95269 0.50413 0.0
Co482 Co 0.03671 1.00465 0.52794 0.0
C483 C 0.94646 0.03135 0.47156 0.0
C484 C 0.93981 0.98541 0.48996 0.0
N485 N 0.95899 0.0091 0.48863 0.0
N486 N 0.9203 0.02234 0.46203 0.0
C487 C 0.91605 0.99345 0.47356 0.0
H488 H 0.95641 0.05362 0.46611 0.0
H489 H 0.94286 0.96371 0.50223 0.0
C490 C 1.01016 0.06123 0.53005 0.0
N491 N 0.07237 1.00481 0.54553 0.0
C492 C 0.08494 0.98268 0.56273 0.0
C493 C 0.09164 0.02842 0.5438 0.0
N494 N 0.11123 0.99172 0.57194 0.0
C495 C 0.1155 0.02048 0.56007 0.0
C496 C 0.04041 0.02655 0.46871 0.0
O497 O 0.98963 0.04966 0.51613 0.0
O498 O 0.03212 0.04543 0.53675 0.0
O499 O 0.05506 0.01865 0.49131 0.0
O500 O 1.01285 0.02467 0.47038 0.0
O501 O 0.041 0.96362 0.51921 0.0
H502 H 0.08863 0.04999 0.53126 0.0
H503 H 0.07498 0.96047 0.56845 0.0
O504 O 0.99971 0.96907 0.49646 0.0
O505 O 0.97635 0.99381 0.54253 0.0
O506 O 0.01834 0.99066 0.56436 0.0
C507 C 0.99083 0.98733 0.56556 0.0
H508 H 0.89679 0.97944 0.47098 0.0
H509 H 0.13487 0.03445 0.56229 0.0
Co510 Co 0.5054 1.00007 0.99604 0.0
C511 C 0.49665 0.95184 0.03766 0.0
Co512 Co 0.52895 0.00624 0.03652 0.0
C513 C 0.5011 0.9946 0.93496 0.0
C514 C 0.45937 0.98931 0.95574 0.0
N515 N 0.48765 0.99496 0.961 0.0
N516 N 0.48248 0.98863 0.91372 0.0
C517 C 0.4561 0.98549 0.9266 0.0
H518 H 0.52424 0.99826 0.93166 0.0
H519 H 0.44237 0.98725 0.97216 0.0
C520 C 0.53769 0.05445 0.99482 0.0
N521 N 0.54667 0.01136 0.07158 0.0
C522 C 0.5332 0.0116 0.09762 0.0
C523 C 0.57489 0.01739 0.07682 0.0
N524 N 0.55172 0.0179 0.11884 0.0
C525 C 0.57808 0.02134 0.10595 0.0
C526 C 0.56248 0.97767 0.99775 0.0
O527 O 0.52078 0.03852 0.98028 0.0
O528 O 0.54419 0.04461 0.02066 0.0
O529 O 0.56284 0.98727 0.02291 0.0
O530 O 0.53948 0.98064 0.98279 0.0
O531 O 0.51363 0.96767 0.05224 0.0
H532 H 0.59187 0.0197 0.06039 0.0
H533 H 0.51008 0.0077 0.10092 0.0
O534 O 0.49008 0.96182 1.01188 0.0
O535 O 0.47145 0.01924 1.00973 0.0
O536 O 0.49494 0.02542 0.04984 0.0
C537 C 0.47189 0.02856 0.03503 0.0
H538 H 0.43613 0.97954 0.916 0.0
H539 H 0.59796 0.02767 0.1165 0.0
Co540 Co 0.53261 0.51896 0.50744 0.0
C541 C 0.48452 0.52321 0.47085 0.0
Co542 Co 0.49465 0.49102 0.5241 0.0
C543 C 0.59217 0.53878 0.49549 0.0
C544 C 0.56174 0.57285 0.48197 0.0
N545 N 0.56348 0.54401 0.49395 0.0
N546 N 0.60846 0.56332 0.48505 0.0
C547 C 0.58926 0.58476 0.47648 0.0
H548 H 0.60084 0.51741 0.50432 0.0
H549 H 0.54171 0.58473 0.47816 0.0
C550 C 0.5427 0.48668 0.56068 0.0
N551 N 0.46357 0.4662 0.53741 0.0
C552 C 0.43511 0.4725 0.53602 0.0
C553 C 0.46436 0.43665 0.54758 0.0
N554 N 0.4181 0.44793 0.54447 0.0
C555 C 0.43641 0.42531 0.55181 0.0
C556 C 0.53233 0.46189 0.489 0.0
O557 O 0.55414 0.50532 0.54098 0.0
O558 O 0.51664 0.47731 0.55765 0.0
O559 O 0.50896 0.45921 0.50385 0.0
O560 O 0.54696 0.48675 0.48752 0.0
O561 O 0.4731 0.50471 0.49064 0.0
H562 H 0.48399 0.42392 0.55073 0.0
H563 H 0.42698 0.4943 0.52763 0.0
O564 O 0.5106 0.53251 0.47381 0.0
O565 O 0.51829 0.55078 0.52759 0.0
O566 O 0.48039 0.52323 0.54412 0.0
C567 C 0.495 0.54811 0.54255 0.0
H568 H 0.59461 0.60777 0.4677 0.0
H569 H 0.43001 0.40215 0.55929 0.0
Co570 Co 0.02995 0.50183 0.99171 0.0
C571 C 0.97461 0.47494 0.99023 0.0
Co572 Co 1.00562 0.50165 0.03305 0.0
C573 C 0.04092 0.49725 0.9302 0.0
C574 C 0.07996 0.49987 0.95483 0.0
N575 N 0.05082 0.50103 0.9572 0.0
N576 N 0.0627 0.49326 0.9113 0.0
C577 C 0.0873 0.49517 0.92672 0.0
H578 H 0.01814 0.49561 0.92486 0.0
H579 H 0.09494 0.50085 0.97269 0.0
C580 C 0.06068 0.52873 0.03484 0.0
N581 N 0.98544 0.50172 0.06779 0.0
C582 C 0.98686 0.52302 0.08693 0.0
C583 C 0.96818 0.47927 0.08073 0.0
N584 N 0.97144 0.51468 0.11151 0.0
C585 C 0.95951 0.48718 0.10757 0.0
C586 C 0.03953 0.45075 0.03044 0.0
O587 O 0.06146 0.52344 1.00822 0.0
O588 O 0.03809 0.52089 0.04985 0.0
O589 O 0.02102 0.46284 0.04605 0.0
O590 O 0.04653 0.46419 1.00572 0.0
O591 O 0.97329 0.48241 0.01616 0.0
H592 H 0.96308 0.45807 0.07167 0.0
H593 H 0.99943 0.54404 0.08304 0.0
O594 O 0.99802 0.48037 0.97571 0.0
O595 O 1.01333 0.53943 0.97789 0.0
O596 O 0.99032 0.54048 0.01963 0.0
C597 C 0.99612 0.55269 0.99403 0.0
H598 H 0.10903 0.49238 0.91851 0.0
H599 H 0.94646 0.47315 0.12341 0.0
H600 H 0.1086 0.14296 0.32173 0.0
H601 H 0.13804 0.05468 0.30316 0.0
H602 H 0.08582 0.12044 0.36655 0.0
H603 H 0.11632 0.0325 0.34928 0.0
H604 H 0.09684 0.01857 0.45222 0.0
H605 H 0.12136 0.03833 0.4067 0.0
H606 H 0.04242 0.08086 0.37716 0.0
H607 H 0.01769 0.06061 0.42221 0.0
C608 C 0.1102 0.11871 0.327 0.0
C609 C 0.12476 0.10066 0.30814 0.0
C610 C 0.09722 0.10586 0.35292 0.0
C611 C 0.09895 0.07466 0.36129 0.0
C612 C 0.11462 0.05666 0.34336 0.0
C613 C 0.12721 0.06945 0.31698 0.0
C614 C 0.08468 0.03202 0.43595 0.0
C615 C 0.05528 0.03805 0.44091 0.0
C616 C 0.0987 0.04318 0.40984 0.0
C617 C 0.08385 0.0612 0.38839 0.0
C618 C 0.05448 0.06718 0.39334 0.0
C619 C 0.0403 0.05549 0.41912 0.0
H620 H 0.50913 0.88718 0.77156 0.0
H621 H 0.48868 0.97456 0.72793 0.0
H622 H 0.51605 0.91051 0.81692 0.0
H623 H 0.49508 0.99779 0.77361 0.0
H624 H 0.53116 0.96316 0.89518 0.0
H625 H 0.54142 0.94964 0.84594 0.0
H626 H 0.46026 0.98784 0.81674 0.0
H627 H 0.45013 1.00144 0.86589 0.0
C628 C 0.50731 0.91158 0.77133 0.0
C629 C 0.49782 0.92895 0.74631 0.0
C630 C 0.51115 0.92493 0.7974 0.0
C631 C 0.50546 0.95581 0.79885 0.0
C632 C 0.49906 0.9738 0.77314 0.0
C633 C 0.49547 0.96052 0.74704 0.0
C634 C 0.51584 0.96923 0.87807 0.0
C635 C 0.48975 0.98323 0.8843 0.0
C636 C 0.52167 0.96138 0.84998 0.0
C637 C 0.50172 0.96782 0.82754 0.0
C638 C 0.47624 0.98299 0.83353 0.0
C639 C 0.47024 0.99046 0.86167 0.0
H640 H 0.64803 0.46998 0.71807 0.0
H641 H 0.628 0.37769 0.69956 0.0
H642 H 0.62178 0.48877 0.67446 0.0
H643 H 0.60134 0.39652 0.65656 0.0
H644 H 0.59605 0.50753 0.57716 0.0
H645 H 0.624 0.4897 0.61992 0.0
H646 H 0.55562 0.42398 0.64603 0.0
H647 H 0.52767 0.44171 0.60332 0.0
C648 C 0.63832 0.45368 0.70462 0.0
C649 C 0.63996 0.42228 0.71261 0.0
C650 C 0.62319 0.46447 0.67966 0.0
C651 C 0.60921 0.44413 0.66221 0.0
C652 C 0.61136 0.41279 0.66985 0.0
C653 C 0.62663 0.40202 0.69459 0.0
C654 C 0.58695 0.48929 0.59203 0.0
C655 C 0.5596 0.47602 0.58678 0.0
C656 C 0.60292 0.47919 0.61661 0.0
C657 C 0.59207 0.45538 0.63634 0.0
C658 C 0.56473 0.44214 0.63108 0.0
C659 C 0.54864 0.45242 0.60667 0.0
H660 H 1.01099 0.5897 0.27406 0.0
H661 H 0.91908 0.60265 0.26309 0.0
H662 H 1.01333 0.56913 0.22662 0.0
H663 H 0.92139 0.58269 0.21567 0.0
H664 H 0.92887 0.50963 0.15257 0.0
H665 H 0.92763 0.53396 0.19773 0.0
H666 H 1.00905 0.58091 0.17435 0.0
H667 H 1.01095 0.55545 0.12974 0.0
C668 C 0.99142 0.58857 0.26129 0.0
C669 C 0.96481 0.59739 0.27237 0.0
C670 C 0.99272 0.57685 0.23413 0.0
C671 C 0.96746 0.57394 0.21749 0.0
C672 C 0.94111 0.58393 0.2282 0.0
C673 C 0.93979 0.59544 0.25533 0.0
C674 C 0.94659 0.52499 0.15709 0.0
C675 C 0.97 0.53048 0.13748 0.0
C676 C 0.94573 0.53925 0.18285 0.0
C677 C 0.96822 0.55948 0.18964 0.0
C678 C 0.99151 0.56526 0.16991 0.0
C679 C 0.99239 0.55094 0.14412 0.0
H680 H 0.34058 0.07974 0.1574 0.0
H681 H 0.30358 0.1069 0.0735 0.0
H682 H 0.38291 0.06154 0.13347 0.0
H683 H 0.3469 0.09053 0.04956 0.0
H684 H 0.41605 0.03001 0.01416 0.0
H685 H 0.3729 0.04848 0.03717 0.0
H686 H 0.42554 0.07607 0.10789 0.0
H687 H 0.46823 0.05655 0.08546 0.0
C688 C 0.34135 0.08189 0.13382 0.0
C689 C 0.31825 0.09482 0.11759 0.0
C690 C 0.36605 0.07183 0.11999 0.0
C691 C 0.36875 0.07456 0.08938 0.0
C692 C 0.34571 0.08761 0.07311 0.0
C693 C 0.32088 0.09749 0.08696 0.0
C694 C 0.41841 0.04015 0.03456 0.0
C695 C 0.44571 0.04168 0.04791 0.0
C696 C 0.3936 0.05093 0.04778 0.0
C697 C 0.39537 0.06377 0.07466 0.0
C698 C 0.4229 0.06581 0.0876 0.0
C699 C 0.44759 0.05481 0.07454 0.0
H700 H 0.26017 0.8891 0.59774 0.0
H701 H 0.25155 0.92357 0.68205 0.0
H702 H 0.21227 0.90729 0.5846 0.0
H703 H 0.20355 0.94208 0.66871 0.0
H704 H 0.14955 0.01206 0.60996 0.0
H705 H 0.18942 0.98408 0.6328 0.0
H706 H 0.15923 0.90305 0.59523 0.0
H707 H 0.11956 0.93142 0.57182 0.0
C708 C 0.24776 0.89993 0.61373 0.0
C709 C 0.25973 0.90519 0.64082 0.0
C710 C 0.22028 0.91029 0.60622 0.0
C711 C 0.20426 0.92618 0.62561 0.0
C712 C 0.21562 0.93019 0.65323 0.0
C713 C 0.2431 0.91974 0.66079 0.0
C714 C 0.15128 0.98819 0.60688 0.0
C715 C 0.13179 0.97399 0.58883 0.0
C716 C 0.17388 0.97207 0.62021 0.0
C717 C 0.17749 0.94143 0.61564 0.0
C718 C 0.15704 0.92674 0.59889 0.0
C719 C 0.13427 0.94287 0.5857 0.0
H720 H 0.808 0.38855 0.95719 0.0
H721 H 0.84122 0.41688 0.87081 0.0
H722 H 0.85157 0.40859 0.97821 0.0
H723 H 0.8842 0.43919 0.89208 0.0
H724 H 0.9713 0.44837 0.93874 0.0
H725 H 0.92811 0.42761 0.91642 0.0
H726 H 0.87574 0.45307 0.988 0.0
H727 H 0.91892 0.47231 1.01078 0.0
C728 C 0.82458 0.39911 0.94258 0.0
C729 C 0.82106 0.40066 0.91218 0.0
C730 C 0.84952 0.41115 0.95474 0.0
C731 C 0.87162 0.4257 0.93697 0.0
C732 C 0.86792 0.4278 0.90653 0.0
C733 C 0.843 0.41538 0.8943 0.0
C734 C 0.95055 0.44928 0.94977 0.0
C735 C 0.94863 0.46172 0.9767 0.0
C736 C 0.92569 0.43765 0.93683 0.0
C737 C 0.89824 0.43849 0.95034 0.0
C738 C 0.89645 0.45129 0.97715 0.0
C739 C 0.92128 0.46251 0.99023 0.0
H740 H 0.79319 0.53685 0.47271 0.0
H741 H 0.78488 0.63414 0.46997 0.0
H742 H 0.74104 0.52998 0.48194 0.0
H743 H 0.73301 0.62723 0.4799 0.0
H744 H 0.64085 0.60357 0.4497 0.0
H745 H 0.69329 0.61017 0.44867 0.0
H746 H 0.70019 0.53695 0.51672 0.0
H747 H 0.64739 0.53057 0.51822 0.0
C748 C 0.78031 0.55672 0.4746 0.0
C749 C 0.7931 0.58604 0.47036 0.0
C750 C 0.75051 0.55277 0.48008 0.0
C751 C 0.73291 0.5781 0.48125 0.0
C752 C 0.74598 0.60731 0.47867 0.0
C753 C 0.77576 0.61125 0.47334 0.0
C754 C 0.65337 0.5891 0.46477 0.0
C755 C 0.63972 0.56662 0.48413 0.0
C756 C 0.68351 0.59293 0.46419 0.0
C757 C 0.70084 0.57428 0.48282 0.0
C758 C 0.68736 0.55157 0.50202 0.0
C759 C 0.6571 0.54785 0.50275 0.0
H760 H 0.08612 0.27085 0.1093 0.0
H761 H 0.16764 0.31522 0.08166 0.0
H762 H 0.0603 0.31562 0.09009 0.0
H763 H 0.1417 0.35977 0.06206 0.0
H764 H 0.08357 0.42233 1.00457 0.0
H765 H 0.10844 0.37663 0.02302 0.0
H766 H 0.05332 0.36871 0.0996 0.0
H767 H 0.0282 0.41436 0.08101 0.0
C768 C 0.09863 0.29017 0.09932 0.0
C769 C 0.1291 0.28925 0.09719 0.0
C770 C 0.08375 0.31589 0.08824 0.0
C771 C 0.09886 0.3414 0.07451 0.0
C772 C 0.12928 0.34041 0.07212 0.0
C773 C 0.14419 0.31475 0.08334 0.0
C774 C 0.07661 0.4108 0.02529 0.0
C775 C 0.05382 0.42211 0.04127 0.0
C776 C 0.09105 0.38466 0.03598 0.0
C777 C 0.08302 0.36896 0.06288 0.0
C778 C 0.05993 0.38001 0.07868 0.0
C779 C 0.04559 0.4063 0.06807 0.0
H780 H 0.57142 0.23294 0.90252 0.0
H781 H 0.65632 0.19753 0.922 0.0
H782 H 0.54893 0.18744 0.92798 0.0
H783 H 0.63367 0.15237 0.94807 0.0
H784 H 0.58119 0.08949 0.01587 0.0
H785 H 0.60314 0.13661 0.99263 0.0
H786 H 0.54488 0.13227 0.92009 0.0
H787 H 0.5229 0.08528 0.94322 0.0
C788 C 0.58532 0.21544 0.9121 0.0
C789 C 0.61573 0.2189 0.90997 0.0
C790 C 0.5724 0.18941 0.92678 0.0
C791 C 0.58953 0.1663 0.93994 0.0
C792 C 0.6199 0.16996 0.93841 0.0
C793 C 0.63286 0.1959 0.92351 0.0
C794 C 0.57296 0.09868 0.99504 0.0
C795 C 0.55029 0.08364 0.9814 0.0
C796 C 0.58566 0.12556 0.98167 0.0
C797 C 0.57574 0.13813 0.95454 0.0
C798 C 0.55279 0.12331 0.94113 0.0
C799 C 0.5403 0.09631 0.95434 0.0
H800 H 0.99945 0.75847 0.51162 0.0
H801 H 0.99682 0.78666 0.41943 0.0
H802 H 1.0142 0.81009 0.52116 0.0
H803 H 1.0126 0.83771 0.42891 0.0
H804 H 0.98812 0.92856 0.46307 0.0
H805 H 0.98514 0.87627 0.45136 0.0
H806 H 0.05168 0.85264 0.51432 0.0
H807 H 0.0546 0.90562 0.52635 0.0
C808 C 1.00249 0.77552 0.49336 0.0
C809 C 0.99656 0.76849 0.4648 0.0
C810 C 1.01127 0.80499 0.49881 0.0
C811 C 1.01424 0.82804 0.47581 0.0
C812 C 1.01011 0.82052 0.44713 0.0
C813 C 1.00134 0.79113 0.44168 0.0
C814 C 1.00237 0.91237 0.47429 0.0
C815 C 0.02152 0.92121 0.49575 0.0
C816 C 1.00083 0.88238 0.46737 0.0
C817 C 0.01827 0.86032 0.4818 0.0
C818 C 0.0379 0.86916 0.50291 0.0
C819 C 0.03967 0.89945 0.50969 0.0
H820 H 0.41019 0.71187 0.56968 0.0
H821 H 0.46665 0.70206 0.64438 0.0
H822 H 0.4259 0.66336 0.55507 0.0
H823 H 0.48342 0.65415 0.62858 0.0
H824 H 0.5279 0.59522 0.55922 0.0
H825 H 0.51116 0.64057 0.58009 0.0
H826 H 0.42286 0.60561 0.57904 0.0
H827 H 0.43961 0.55977 0.55865 0.0
C828 C 0.42575 0.69933 0.58315 0.0
C829 C 0.43694 0.71084 0.60839 0.0
C830 C 0.43477 0.67161 0.57468 0.0
C831 C 0.4556 0.65509 0.5909 0.0
C832 C 0.46729 0.66663 0.61579 0.0
C833 C 0.45786 0.69415 0.62462 0.0
C834 C 0.50495 0.59707 0.56375 0.0
C835 C 0.48498 0.57413 0.55723 0.0
C836 C 0.49546 0.62288 0.57581 0.0
C837 C 0.4658 0.62643 0.58102 0.0
C838 C 0.44586 0.60327 0.57507 0.0
C839 C 0.45542 0.57712 0.56355 0.0
H840 H 0.86348 0.94226 0.706 0.0
H841 H 0.94383 0.9068 0.74073 0.0
H842 H 0.88879 0.96199 0.66156 0.0
H843 H 0.96858 0.92436 0.6955 0.0
H844 H 1.01285 0.98268 0.6209 0.0
H845 H 0.98769 0.96581 0.66642 0.0
H846 H 0.90951 0.94879 0.61851 0.0
H847 H 0.93439 0.96705 0.57329 0.0
C848 C 0.88654 0.93863 0.7043 0.0
C849 C 0.90139 0.92273 0.72727 0.0
C850 C 0.90106 0.94957 0.67843 0.0
C851 C 0.9309 0.94474 0.67449 0.0
C852 C 0.94576 0.92899 0.69755 0.0
C853 C 0.93132 0.91837 0.72352 0.0
C854 C 0.99028 0.97535 0.62011 0.0
C855 C 0.97569 0.9763 0.59337 0.0
C856 C 0.97579 0.96545 0.64629 0.0
C857 C 0.94636 0.95578 0.6465 0.0
C858 C 0.93192 0.95655 0.61959 0.0
C859 C 0.9463 0.96683 0.59348 0.0
H860 H 0.52351 0.12132 0.25921 0.0
H861 H 0.54544 0.03503 0.30412 0.0
H862 H 0.51687 0.09703 0.21431 0.0
H863 H 0.53929 0.01082 0.25893 0.0
H864 H 0.50261 0.04286 0.13704 0.0
H865 H 0.49214 0.057 0.18601 0.0
H866 H 0.57385 0.02048 0.21566 0.0
H867 H 0.58418 0.00623 0.16678 0.0
C868 C 0.5257 0.09694 0.25982 0.0
C869 C 0.53552 0.08018 0.28504 0.0
C870 C 0.52203 0.08303 0.23403 0.0
C871 C 0.52821 0.05219 0.23307 0.0
C872 C 0.53493 0.03477 0.25901 0.0
C873 C 0.53837 0.04861 0.28484 0.0
C874 C 0.51801 0.03727 0.1542 0.0
C875 C 0.54431 0.02356 0.14816 0.0
C876 C 0.51205 0.04548 0.18214 0.0
C877 C 0.5321 0.03972 0.20462 0.0
C878 C 0.55779 0.02481 0.19884 0.0
C879 C 0.5639 0.01697 0.17085 0.0
H880 H 0.37974 0.53771 0.3132 0.0
H881 H 0.39996 0.63041 0.33015 0.0
H882 H 0.4055 0.51963 0.35736 0.0
H883 H 0.42609 0.6123 0.37375 0.0
H884 H 0.49961 0.56774 0.4278 0.0
H885 H 0.47169 0.58495 0.3849 0.0
H886 H 0.40322 0.5196 0.41173 0.0
H887 H 0.43113 0.50227 0.45466 0.0
C888 C 0.38935 0.55425 0.32645 0.0
C889 C 0.38798 0.58554 0.31785 0.0
C890 C 0.4042 0.54387 0.35173 0.0
C891 C 0.41814 0.56453 0.36888 0.0
C892 C 0.41612 0.59578 0.36069 0.0
C893 C 0.40114 0.60614 0.33563 0.0
C894 C 0.47861 0.55702 0.42457 0.0
C895 C 0.46762 0.53365 0.4447 0.0
C896 C 0.46254 0.567 0.40006 0.0
C897 C 0.43519 0.55369 0.39494 0.0
C898 C 0.4243 0.53014 0.41493 0.0
C899 C 0.44025 0.52035 0.4396 0.0
H900 H 1.00805 0.43677 0.7429 0.0
H901 H 0.10157 0.44745 0.73898 0.0
H902 H 1.00842 0.45215 0.79261 0.0
H903 H 0.10169 0.46438 0.78734 0.0
H904 H 0.09803 0.45641 0.88484 0.0
H905 H 0.09442 0.44153 0.83564 0.0
H906 H 0.01779 0.49502 0.82187 0.0
H907 H 0.02124 0.50955 0.87182 0.0
C908 C 0.02861 0.4426 0.75248 0.0
C909 C 0.05474 0.44097 0.7368 0.0
C910 C 0.02879 0.45172 0.78082 0.0
C911 C 0.05511 0.45929 0.79404 0.0
C912 C 0.08106 0.45823 0.77808 0.0
C913 C 0.08091 0.44898 0.75002 0.0
C914 C 0.08058 0.46529 0.87127 0.0
C915 C 0.06018 0.48454 0.88206 0.0
C916 C 0.07847 0.45673 0.84302 0.0
C917 C 0.05605 0.46743 0.82462 0.0
C918 C 0.03523 0.48625 0.83554 0.0
C919 C 0.03724 0.49466 0.86405 0.0
H920 H 0.7345 0.94532 0.92622 0.0
H921 H 0.68872 0.85884 0.92731 0.0
H922 H 0.69136 0.96746 0.94647 0.0
H923 H 0.64555 0.88103 0.94708 0.0
H924 H 0.56554 0.94338 0.95123 0.0
H925 H 0.60853 0.92176 0.93057 0.0
H926 H 0.66197 0.96019 0.99511 0.0
H927 H 0.61889 0.98137 0.01621 0.0
C928 C 0.71516 0.93112 0.93055 0.0
C929 C 0.71509 0.9003 0.92519 0.0
C930 C 0.69052 0.94373 0.94234 0.0
C931 C 0.66499 0.92601 0.94846 0.0
C932 C 0.66477 0.89535 0.94252 0.0
C933 C 0.68956 0.88261 0.93132 0.0
C934 C 0.58642 0.94713 0.96114 0.0
C935 C 0.58866 0.96402 0.98552 0.0
C936 C 0.61106 0.93466 0.94931 0.0
C937 C 0.63873 0.93928 0.96114 0.0
C938 C 0.64103 0.95639 0.98535 0.0
C939 C 0.6163 0.96835 0.99756 0.0
H940 H 0.78215 0.09101 0.3494 0.0
H941 H 0.77174 0.1253 0.43359 0.0
H942 H 0.82992 0.07254 0.36368 0.0
H943 H 0.81941 0.10714 0.44766 0.0
H944 H 0.91188 0.08261 0.4623 0.0
H945 H 0.87269 0.11117 0.43821 0.0
H946 H 0.84313 0.03037 0.39986 0.0
H947 H 0.88252 1.0022 0.42339 0.0
C948 C 0.79018 0.09484 0.37082 0.0
C949 C 0.77308 0.10929 0.3905 0.0
C950 C 0.81752 0.08441 0.37892 0.0
C951 C 0.82828 0.08832 0.4068 0.0
C952 C 0.81186 0.1042 0.42587 0.0
C953 C 0.7845 0.11454 0.41782 0.0
C954 C 0.89741 0.07125 0.44813 0.0
C955 C 0.89992 0.04014 0.44495 0.0
C956 C 0.87491 0.08749 0.43454 0.0
C957 C 0.85479 0.07293 0.41734 0.0
C958 C 0.85843 0.04229 0.41279 0.0
C959 C 0.88074 0.02605 0.42652 0.0
H960 H 0.19921 0.6469 0.09043 0.0
H961 H 0.21795 0.55825 0.13274 0.0
H962 H 0.15622 0.62551 0.06873 0.0
H963 H 0.17372 0.53751 0.11222 0.0
H964 H 0.07322 0.52655 0.09281 0.0
H965 H 0.11626 0.54754 0.1155 0.0
H966 H 0.14863 0.58336 0.03091 0.0
H967 H 0.10599 0.56173 1.00801 0.0
C968 C 0.19439 0.62285 0.09509 0.0
C969 C 0.21259 0.60432 0.11314 0.0
C970 C 0.16954 0.6107 0.08275 0.0
C971 C 0.16177 0.57987 0.08868 0.0
C972 C 0.17921 0.56143 0.10742 0.0
C973 C 0.20447 0.57343 0.11932 0.0
C974 C 0.08948 0.53896 0.07904 0.0
C975 C 0.08619 0.54253 0.0486 0.0
C976 C 0.11416 0.55079 0.09204 0.0
C977 C 0.13572 0.56702 0.07495 0.0
C978 C 0.13224 0.57102 0.04458 0.0
C979 C 0.10789 0.55861 0.0315 0.0
H980 H 0.24053 0.38459 0.56557 0.0
H981 H 0.23253 0.47971 0.53724 0.0
H982 H 0.29289 0.38953 0.55975 0.0
H983 H 0.28508 0.48463 0.53008 0.0
H984 H 0.38053 0.49059 0.55736 0.0
H985 H 0.32764 0.48627 0.55764 0.0
H986 H 0.33263 0.39638 0.52821 0.0
H987 H 0.38541 0.40047 0.52935 0.0
C988 C 0.24999 0.40641 0.55729 0.0
C989 C 0.23251 0.43176 0.55181 0.0
C990 C 0.28008 0.40929 0.55389 0.0
C991 C 0.29342 0.43754 0.54453 0.0
C992 C 0.2757 0.46266 0.53792 0.0
C993 C 0.24558 0.45985 0.54176 0.0
C994 C 0.37017 0.47002 0.55089 0.0
C995 C 0.38695 0.44574 0.54367 0.0
C996 C 0.33987 0.46755 0.55082 0.0
C997 C 0.32568 0.4409 0.54302 0.0
C998 C 0.34267 0.41697 0.535 0.0
C999 C 0.37293 0.41927 0.53558 0.0
H1000 H 0.91321 0.68941 0.87823 0.0
H1001 H 0.90721 0.72661 0.96131 0.0
H1002 H 0.93654 0.64486 0.90124 0.0
H1003 H 0.93117 0.68202 0.98453 0.0
H1004 H 0.95322 0.58361 0.0196 0.0
H1005 H 0.92776 0.62818 0.99876 0.0
H1006 H 0.98188 0.63106 0.92161 0.0
H1007 H 1.00661 0.58623 0.94202 0.0
C1008 C 0.91699 0.68811 0.90147 0.0
C1009 C 0.90859 0.71179 0.91784 0.0
C1010 C 0.93054 0.66256 0.91471 0.0
C1011 C 0.93632 0.65988 0.94476 0.0
C1012 C 0.92702 0.68311 0.96138 0.0
C1013 C 0.91325 0.70872 0.94808 0.0
C1014 C 0.95976 0.59386 0.99824 0.0
C1015 C 0.98192 0.58115 0.98246 0.0
C1016 C 0.9452 0.61954 0.9863 0.0
C1017 C 0.95244 0.63321 0.95829 0.0
C1018 C 0.97513 0.62086 0.94292 0.0
C1019 C 0.98956 0.5952 0.95477 0.0
H1020 H 0.42156 0.80974 0.1593 0.0
H1021 H 0.41675 0.77064 0.07696 0.0
H1022 H 0.4438 0.85593 0.13514 0.0
H1023 H 0.4396 0.81676 0.05267 0.0
H1024 H 0.45434 0.91618 0.01548 0.0
H1025 H 0.43175 0.86946 0.0385 0.0
H1026 H 0.48824 0.87433 0.11248 0.0
H1027 H 0.51012 0.92147 0.0899 0.0
C1028 C 0.42552 0.81094 0.13603 0.0
C1029 C 0.41757 0.78648 0.12006 0.0
C1030 C 0.43837 0.8374 0.12216 0.0
C1031 C 0.44378 0.84005 0.09196 0.0
C1032 C 0.43549 0.81567 0.0759 0.0
C1033 C 0.42243 0.78922 0.0898 0.0
C1034 C 0.462 0.9072 0.03662 0.0
C1035 C 0.48396 0.92262 0.05091 0.0
C1036 C 0.44914 0.88031 0.04977 0.0
C1037 C 0.45804 0.86814 0.07744 0.0
C1038 C 0.48041 0.88332 0.09142 0.0
C1039 C 0.49313 0.91028 0.07837 0.0
H1040 H 0.03323 0.23154 0.60916 0.0
H1041 H 0.02738 0.25541 0.51646 0.0
H1042 H 0.0188 0.17921 0.6022 0.0
H1043 H 1.01358 0.20287 0.50944 0.0
H1044 H 0.97451 0.10675 0.50879 0.0
H1045 H 0.97669 0.16008 0.51956 0.0
H1046 H 0.04657 0.14007 0.57964 0.0
H1047 H 0.04442 0.08726 0.56905 0.0
C1048 C 0.02825 0.22577 0.58737 0.0
C1049 C 0.03172 0.24753 0.56332 0.0
C1050 C 0.02023 0.19575 0.58336 0.0
C1051 C 0.01538 0.18687 0.55524 0.0
C1052 C 0.01705 0.20903 0.53138 0.0
C1053 C 0.02523 0.23904 0.53537 0.0
C1054 C 0.99005 0.11375 0.52456 0.0
C1055 C 1.00939 0.09287 0.53795 0.0
C1056 C 0.99137 0.14425 0.53062 0.0
C1057 C 1.01175 0.15423 0.5505 0.0
C1058 C 0.03035 0.13304 0.56455 0.0
C1059 C 0.02927 0.10279 0.55827 0.0
H1060 H 0.56206 0.30831 0.38694 0.0
H1061 H 0.61892 0.29918 0.46137 0.0
H1062 H 0.54449 0.35576 0.4031 0.0
H1063 H 0.60238 0.34722 0.47633 0.0
H1064 H 0.58773 0.45062 0.47271 0.0
H1065 H 0.60477 0.40492 0.45232 0.0
H1066 H 0.51675 0.3691 0.45177 0.0
H1067 H 0.4997 0.41436 0.47264 0.0
C1068 C 0.57075 0.31626 0.40673 0.0
C1069 C 0.59206 0.29994 0.42274 0.0
C1070 C 0.56086 0.34351 0.41578 0.0
C1071 C 0.57245 0.35514 0.44067 0.0
C1072 C 0.59358 0.33891 0.45673 0.0
C1073 C 0.60308 0.31146 0.44804 0.0
C1074 C 0.57203 0.43312 0.46793 0.0
C1075 C 0.54246 0.43586 0.47437 0.0
C1076 C 0.58177 0.40704 0.45641 0.0
C1077 C 0.56199 0.38368 0.45061 0.0
C1078 C 0.53232 0.38695 0.45595 0.0
C1079 C 0.52266 0.41271 0.468 0.0
loop_
_geom_bond_atom_site_label_1
_geom_bond_atom_site_label_2
_geom_bond_distance
_geom_bond_site_symmetry_2
_ccdc_geom_bond_type
C0 C1 1.391 . S
C0 C4 1.391 . S
C0 H42 0.948 . S
C1 C0 1.391 . S
C1 C2 1.391 . S
C2 C1 1.391 . S
C2 H58 0.947 . S
C2 C59 1.392 . S
C3 C4 1.391 . S
C3 C7 1.397 . S
C3 C59 1.419 . S
C4 C0 1.391 . S
C4 C3 1.391 . S
C4 C5 1.399 . S
C5 C4 1.399 . S
C5 C8 1.396 . S
C5 C17 1.453 . S
C5 C18 1.684 . S
H6 C30 0.948 . S
C7 C3 1.397 . S
C7 C8 1.394 . S
C7 C26 1.723 . S
C8 C5 1.396 . S
C8 C7 1.394 . S
C8 C38 1.723 . S
H9 C32 0.947 . S
H10 C33 0.948 . S
H11 C39 0.982 . S
H12 C40 0.979 . S
H13 C40 0.980 . S
H14 C40 0.983 . S
H15 C39 0.979 . S
H16 C39 0.977 . S
C17 C5 1.453 . S
C17 H46 0.982 . S
C17 H47 0.979 . S
C17 H48 0.977 . S
C18 C5 1.684 . S
C18 H43 0.979 . S
C18 H44 0.980 . S
C18 H45 0.983 . S
C19 C20 1.391 . S
C19 C24 1.391 . S
C19 H49 0.948 . S
C20 C19 1.391 . S
C20 C21 1.391 . S
C21 C20 1.391 . S
C21 C22 1.392 . S
C21 H50 0.947 . S
C22 C21 1.392 . S
C22 C23 1.419 . S
C22 H51 0.948 . S
C23 C22 1.419 . S
C23 C24 1.391 . S
C23 C27 1.397 . S
C24 C19 1.391 . S
C24 C23 1.391 . S
C24 C25 1.399 . S
C25 C24 1.399 . S
C25 C26 1.396 . S
C25 C28 1.453 . S
C25 C29 1.684 . S
C26 C7 1.723 . S
C26 C25 1.396 . S
C26 C27 1.394 . S
C27 C23 1.397 . S
C27 C26 1.394 . S
C27 C37 1.723 . S
C28 C25 1.453 . S
C28 H52 0.982 . S
C28 H53 0.979 . S
C28 H54 0.977 . S
C29 C25 1.684 . S
C29 H55 0.979 . S
C29 H56 0.980 . S
C29 H57 0.983 . S
C30 H6 0.948 . S
C30 C31 1.391 . S
C30 C35 1.391 . S
C31 C30 1.391 . S
C31 C32 1.391 . S
C32 H9 0.947 . S
C32 C31 1.391 . S
C32 C33 1.392 . S
C33 H10 0.948 . S
C33 C32 1.392 . S
C33 C34 1.419 . S
C34 C33 1.419 . S
C34 C35 1.391 . S
C34 C38 1.397 . S
C35 C30 1.391 . S
C35 C34 1.391 . S
C35 C36 1.399 . S
C36 C35 1.399 . S
C36 C37 1.396 . S
C36 C39 1.453 . S
C36 C40 1.684 . S
C37 C27 1.723 . S
C37 C36 1.396 . S
C37 C38 1.394 . S
C38 C8 1.723 . S
C38 C34 1.397 . S
C38 C37 1.394 . S
C39 H11 0.982 . S
C39 H15 0.979 . S
C39 H16 0.977 . S
C39 C36 1.453 . S
C40 H12 0.979 . S
C40 H13 0.980 . S
C40 H14 0.983 . S
C40 C36 1.684 . S
H41 C59 0.948 . S
H42 C0 0.948 . S
H43 C18 0.979 . S
H44 C18 0.980 . S
H45 C18 0.983 . S
H46 C17 0.982 . S
H47 C17 0.979 . S
H48 C17 0.977 . S
H49 C19 0.948 . S
H50 C21 0.947 . S
H51 C22 0.948 . S
H52 C28 0.982 . S
H53 C28 0.979 . S
H54 C28 0.977 . S
H55 C29 0.979 . S
H56 C29 0.980 . S
H57 C29 0.983 . S
H58 C2 0.947 . S
C59 C2 1.392 . S
C59 C3 1.419 . S
C59 H41 0.948 . S
C60 C61 1.391 . S
C60 C64 1.391 . S
C60 H102 0.948 . S
C61 C60 1.391 . S
C61 C62 1.391 . S
C62 C61 1.391 . S
C62 H118 0.947 . S
C62 C119 1.392 . S
C63 C64 1.391 . S
C63 C67 1.397 . S
C63 C119 1.419 . S
C64 C60 1.391 . S
C64 C63 1.391 . S
C64 C65 1.399 . S
C65 C64 1.399 . S
C65 C68 1.396 . S
C65 C77 1.453 . S
C65 C78 1.684 . S
H66 C90 0.948 . S
C67 C63 1.397 . S
C67 C68 1.394 . S
C67 C86 1.723 . S
C68 C65 1.396 . S
C68 C67 1.394 . S
C68 C98 1.723 . S
H69 C92 0.947 . S
H70 C93 0.948 . S
H71 C99 0.982 . S
H72 C100 0.979 . S
H73 C100 0.980 . S
H74 C100 0.983 . S
H75 C99 0.979 . S
H76 C99 0.977 . S
C77 C65 1.453 . S
C77 H106 0.982 . S
C77 H107 0.979 . S
C77 H108 0.977 . S
C78 C65 1.684 . S
C78 H103 0.979 . S
C78 H104 0.980 . S
C78 H105 0.983 . S
C79 C80 1.391 . S
C79 C84 1.391 . S
C79 H109 0.948 . S
C80 C79 1.391 . S
C80 C81 1.391 . S
C81 C80 1.391 . S
C81 C82 1.392 . S
C81 H110 0.947 . S
C82 C81 1.392 . S
C82 C83 1.419 . S
C82 H111 0.948 . S
C83 C82 1.419 . S
C83 C84 1.391 . S
C83 C87 1.397 . S
C84 C79 1.391 . S
C84 C83 1.391 . S
C84 C85 1.399 . S
C85 C84 1.399 . S
C85 C86 1.396 . S
C85 C88 1.453 . S
C85 C89 1.684 . S
C86 C67 1.723 . S
C86 C85 1.396 . S
C86 C87 1.394 . S
C87 C83 1.397 . S
C87 C86 1.394 . S
C87 C97 1.723 . S
C88 C85 1.453 . S
C88 H112 0.982 . S
C88 H113 0.979 . S
C88 H114 0.977 . S
C89 C85 1.684 . S
C89 H115 0.979 . S
C89 H116 0.980 . S
C89 H117 0.983 . S
C90 H66 0.948 . S
C90 C91 1.391 . S
C90 C95 1.391 . S
C91 C90 1.391 . S
C91 C92 1.391 . S
C92 H69 0.947 . S
C92 C91 1.391 . S
C92 C93 1.392 . S
C93 H70 0.948 . S
C93 C92 1.392 . S
C93 C94 1.419 . S
C94 C93 1.419 . S
C94 C95 1.391 . S
C94 C98 1.397 . S
C95 C90 1.391 . S
C95 C94 1.391 . S
C95 C96 1.399 . S
C96 C95 1.399 . S
C96 C97 1.396 . S
C96 C99 1.453 . S
C96 C100 1.684 . S
C97 C87 1.723 . S
C97 C96 1.396 . S
C97 C98 1.394 . S
C98 C68 1.723 . S
C98 C94 1.397 . S
C98 C97 1.394 . S
C99 H71 0.982 . S
C99 H75 0.979 . S
C99 H76 0.977 . S
C99 C96 1.453 . S
C100 H72 0.979 . S
C100 H73 0.980 . S
C100 H74 0.983 . S
C100 C96 1.684 . S
H101 C119 0.948 . S
H102 C60 0.948 . S
H103 C78 0.979 . S
H104 C78 0.980 . S
H105 C78 0.983 . S
H106 C77 0.982 . S
H107 C77 0.979 . S
H108 C77 0.977 . S
H109 C79 0.948 . S
H110 C81 0.947 . S
H111 C82 0.948 . S
H112 C88 0.982 . S
H113 C88 0.979 . S
H114 C88 0.977 . S
H115 C89 0.979 . S
H116 C89 0.980 . S
H117 C89 0.983 . S
H118 C62 0.947 . S
C119 C62 1.392 . S
C119 C63 1.419 . S
C119 H101 0.948 . S
C120 C121 1.391 . S
C120 C124 1.391 . S
C120 H162 0.948 . S
C121 C120 1.391 . S
C121 C122 1.391 . S
C122 C121 1.391 . S
C122 H178 0.947 . S
C122 C179 1.392 . S
C123 C124 1.391 . S
C123 C127 1.397 . S
C123 C179 1.419 . S
C124 C120 1.391 . S
C124 C123 1.391 . S
C124 C125 1.399 . S
C125 C124 1.399 . S
C125 C128 1.396 . S
C125 C137 1.453 . S
C125 C138 1.684 . S
H126 C150 0.948 . S
C127 C123 1.397 . S
C127 C128 1.394 . S
C127 C146 1.723 . S
C128 C125 1.396 . S
C128 C127 1.394 . S
C128 C158 1.723 . S
H129 C152 0.947 . S
H130 C153 0.948 . S
H131 C159 0.982 . S
H132 C160 0.979 . S
H133 C160 0.980 . S
H134 C160 0.983 . S
H135 C159 0.979 . S
H136 C159 0.977 . S
C137 C125 1.453 . S
C137 H166 0.982 . S
C137 H167 0.979 . S
C137 H168 0.977 . S
C138 C125 1.684 . S
C138 H163 0.979 . S
C138 H164 0.980 . S
C138 H165 0.983 . S
C139 C140 1.391 . S
C139 C144 1.391 . S
C139 H169 0.948 . S
C140 C139 1.391 . S
C140 C141 1.391 . S
C141 C140 1.391 . S
C141 C142 1.392 . S
C141 H170 0.947 . S
C142 C141 1.392 . S
C142 C143 1.419 . S
C142 H171 0.948 . S
C143 C142 1.419 . S
C143 C144 1.391 . S
C143 C147 1.397 . S
C144 C139 1.391 . S
C144 C143 1.391 . S
C144 C145 1.399 . S
C145 C144 1.399 . S
C145 C146 1.396 . S
C145 C148 1.453 . S
C145 C149 1.684 . S
C146 C127 1.723 . S
C146 C145 1.396 . S
C146 C147 1.394 . S
C147 C143 1.397 . S
C147 C146 1.394 . S
C147 C157 1.723 . S
C148 C145 1.453 . S
C148 H172 0.982 . S
C148 H173 0.979 . S
C148 H174 0.977 . S
C149 C145 1.684 . S
C149 H175 0.979 . S
C149 H176 0.980 . S
C149 H177 0.983 . S
C150 H126 0.948 . S
C150 C151 1.391 . S
C150 C155 1.391 . S
C151 C150 1.391 . S
C151 C152 1.391 . S
C152 H129 0.947 . S
C152 C151 1.391 . S
C152 C153 1.392 . S
C153 H130 0.948 . S
C153 C152 1.392 . S
C153 C154 1.419 . S
C154 C153 1.419 . S
C154 C155 1.391 . S
C154 C158 1.397 . S
C155 C150 1.391 . S
C155 C154 1.391 . S
C155 C156 1.399 . S
C156 C155 1.399 . S
C156 C157 1.396 . S
C156 C159 1.453 . S
C156 C160 1.684 . S
C157 C147 1.723 . S
C157 C156 1.396 . S
C157 C158 1.394 . S
C158 C128 1.723 . S
C158 C154 1.397 . S
C158 C157 1.394 . S
C159 H131 0.982 . S
C159 H135 0.979 . S
C159 H136 0.977 . S
C159 C156 1.453 . S
C160 H132 0.979 . S
C160 H133 0.980 . S
C160 H134 0.983 . S
C160 C156 1.684 . S
H161 C179 0.948 . S
H162 C120 0.948 . S
H163 C138 0.979 . S
H164 C138 0.980 . S
H165 C138 0.983 . S
H166 C137 0.982 . S
H167 C137 0.979 . S
H168 C137 0.977 . S
H169 C139 0.948 . S
H170 C141 0.947 . S
H171 C142 0.948 . S
H172 C148 0.982 . S
H173 C148 0.979 . S
H174 C148 0.977 . S
H175 C149 0.979 . S
H176 C149 0.980 . S
H177 C149 0.983 . S
H178 C122 0.947 . S
C179 C122 1.392 . S
C179 C123 1.419 . S
C179 H161 0.948 . S
C180 C181 1.391 . S
C180 C184 1.391 . S
C180 H222 0.948 . S
C181 C180 1.391 . S
C181 C182 1.391 . S
C182 C181 1.391 . S
C182 H238 0.947 . S
C182 C239 1.392 . S
C183 C184 1.391 . S
C183 C187 1.397 . S
C183 C239 1.419 . S
C184 C180 1.391 . S
C184 C183 1.391 . S
C184 C185 1.399 . S
C185 C184 1.399 . S
C185 C188 1.396 . S
C185 C197 1.453 . S
C185 C198 1.684 . S
H186 C210 0.948 . S
C187 C183 1.397 . S
C187 C188 1.394 . S
C187 C206 1.723 . S
C188 C185 1.396 . S
C188 C187 1.394 . S
C188 C218 1.723 . S
H189 C212 0.947 . S
H190 C213 0.948 . S
H191 C219 0.982 . S
H192 C220 0.979 . S
H193 C220 0.980 . S
H194 C220 0.983 . S
H195 C219 0.979 . S
H196 C219 0.977 . S
C197 C185 1.453 . S
C197 H226 0.982 . S
C197 H227 0.979 . S
C197 H228 0.977 . S
C198 C185 1.684 . S
C198 H223 0.979 . S
C198 H224 0.980 . S
C198 H225 0.983 . S
C199 C200 1.391 . S
C199 C204 1.391 . S
C199 H229 0.948 . S
C200 C199 1.391 . S
C200 C201 1.391 . S
C201 C200 1.391 . S
C201 C202 1.392 . S
C201 H230 0.947 . S
C202 C201 1.392 . S
C202 C203 1.419 . S
C202 H231 0.948 . S
C203 C202 1.419 . S
C203 C204 1.391 . S
C203 C207 1.397 . S
C204 C199 1.391 . S
C204 C203 1.391 . S
C204 C205 1.399 . S
C205 C204 1.399 . S
C205 C206 1.396 . S
C205 C208 1.453 . S
C205 C209 1.684 . S
C206 C187 1.723 . S
C206 C205 1.396 . S
C206 C207 1.394 . S
C207 C203 1.397 . S
C207 C206 1.394 . S
C207 C217 1.723 . S
C208 C205 1.453 . S
C208 H232 0.982 . S
C208 H233 0.979 . S
C208 H234 0.977 . S
C209 C205 1.684 . S
C209 H235 0.979 . S
C209 H236 0.980 . S
C209 H237 0.983 . S
C210 H186 0.948 . S
C210 C211 1.391 . S
C210 C215 1.391 . S
C211 C210 1.391 . S
C211 C212 1.391 . S
C212 H189 0.947 . S
C212 C211 1.391 . S
C212 C213 1.392 . S
C213 H190 0.948 . S
C213 C212 1.392 . S
C213 C214 1.419 . S
C214 C213 1.419 . S
C214 C215 1.391 . S
C214 C218 1.397 . S
C215 C210 1.391 . S
C215 C214 1.391 . S
C215 C216 1.399 . S
C216 C215 1.399 . S
C216 C217 1.396 . S
C216 C219 1.453 . S
C216 C220 1.684 . S
C217 C207 1.723 . S
C217 C216 1.396 . S
C217 C218 1.394 . S
C218 C188 1.723 . S
C218 C214 1.397 . S
C218 C217 1.394 . S
C219 H191 0.982 . S
C219 H195 0.979 . S
C219 H196 0.977 . S
C219 C216 1.453 . S
C220 H192 0.979 . S
C220 H193 0.980 . S
C220 H194 0.983 . S
C220 C216 1.684 . S
H221 C239 0.948 . S
H222 C180 0.948 . S
H223 C198 0.979 . S
H224 C198 0.980 . S
H225 C198 0.983 . S
H226 C197 0.982 . S
H227 C197 0.979 . S
H228 C197 0.977 . S
H229 C199 0.948 . S
H230 C201 0.947 . S
H231 C202 0.948 . S
H232 C208 0.982 . S
H233 C208 0.979 . S
H234 C208 0.977 . S
H235 C209 0.979 . S
H236 C209 0.980 . S
H237 C209 0.983 . S
H238 C182 0.947 . S
C239 C182 1.392 . S
C239 C183 1.419 . S
C239 H221 0.948 . S
C240 C241 1.391 . S
C240 C244 1.391 . S
C240 H282 0.948 . S
C241 C240 1.391 . S
C241 C242 1.391 . S
C242 C241 1.391 . S
C242 H298 0.947 . S
C242 C299 1.392 . S
C243 C244 1.391 . S
C243 C247 1.397 . S
C243 C299 1.419 . S
C244 C240 1.391 . S
C244 C243 1.391 . S
C244 C245 1.399 . S
C245 C244 1.399 . S
C245 C248 1.396 . S
C245 C257 1.453 . S
C245 C258 1.684 . S
H246 C270 0.948 . S
C247 C243 1.397 . S
C247 C248 1.394 . S
C247 C266 1.723 . S
C248 C245 1.396 . S
C248 C247 1.394 . S
C248 C278 1.723 . S
H249 C272 0.947 . S
H250 C273 0.948 . S
H251 C279 0.982 . S
H252 C280 0.979 . S
H253 C280 0.980 . S
H254 C280 0.983 . S
H255 C279 0.979 . S
H256 C279 0.977 . S
C257 C245 1.453 . S
C257 H286 0.982 . S
C257 H287 0.979 . S
C257 H288 0.977 . S
C258 C245 1.684 . S
C258 H283 0.979 . S
C258 H284 0.980 . S
C258 H285 0.983 . S
C259 C260 1.391 . S
C259 C264 1.391 . S
C259 H289 0.948 . S
C260 C259 1.391 . S
C260 C261 1.391 . S
C261 C260 1.391 . S
C261 C262 1.392 . S
C261 H290 0.947 . S
C262 C261 1.392 . S
C262 C263 1.419 . S
C262 H291 0.948 . S
C263 C262 1.419 . S
C263 C264 1.391 . S
C263 C267 1.397 . S
C264 C259 1.391 . S
C264 C263 1.391 . S
C264 C265 1.399 . S
C265 C264 1.399 . S
C265 C266 1.396 . S
C265 C268 1.453 . S
C265 C269 1.684 . S
C266 C247 1.723 . S
C266 C265 1.396 . S
C266 C267 1.394 . S
C267 C263 1.397 . S
C267 C266 1.394 . S
C267 C277 1.723 . S
C268 C265 1.453 . S
C268 H292 0.982 . S
C268 H293 0.979 . S
C268 H294 0.977 . S
C269 C265 1.684 . S
C269 H295 0.979 . S
C269 H296 0.980 . S
C269 H297 0.983 . S
C270 H246 0.948 . S
C270 C271 1.391 . S
C270 C275 1.391 . S
C271 C270 1.391 . S
C271 C272 1.391 . S
C272 H249 0.947 . S
C272 C271 1.391 . S
C272 C273 1.392 . S
C273 H250 0.948 . S
C273 C272 1.392 . S
C273 C274 1.419 . S
C274 C273 1.419 . S
C274 C275 1.391 . S
C274 C278 1.397 . S
C275 C270 1.391 . S
C275 C274 1.391 . S
C275 C276 1.399 . S
C276 C275 1.399 . S
C276 C277 1.396 . S
C276 C279 1.453 . S
C276 C280 1.684 . S
C277 C267 1.723 . S
C277 C276 1.396 . S
C277 C278 1.394 . S
C278 C248 1.723 . S
C278 C274 1.397 . S
C278 C277 1.394 . S
C279 H251 0.982 . S
C279 H255 0.979 . S
C279 H256 0.977 . S
C279 C276 1.453 . S
C280 H252 0.979 . S
C280 H253 0.980 . S
C280 H254 0.983 . S
C280 C276 1.684 . S
H281 C299 0.948 . S
H282 C240 0.948 . S
H283 C258 0.979 . S
H284 C258 0.980 . S
H285 C258 0.983 . S
H286 C257 0.982 . S
H287 C257 0.979 . S
H288 C257 0.977 . S
H289 C259 0.948 . S
H290 C261 0.947 . S
H291 C262 0.948 . S
H292 C268 0.982 . S
H293 C268 0.979 . S
H294 C268 0.977 . S
H295 C269 0.979 . S
H296 C269 0.980 . S
H297 C269 0.983 . S
H298 C242 0.947 . S
C299 C242 1.392 . S
C299 C243 1.419 . S
C299 H281 0.948 . S
C300 C301 1.391 . S
C300 C304 1.391 . S
C300 H342 0.948 . S
C301 C300 1.391 . S
C301 C302 1.391 . S
C302 C301 1.391 . S
C302 H358 0.947 . S
C302 C359 1.392 . S
C303 C304 1.391 . S
C303 C307 1.397 . S
C303 C359 1.419 . S
C304 C300 1.391 . S
C304 C303 1.391 . S
C304 C305 1.399 . S
C305 C304 1.399 . S
C305 C308 1.396 . S
C305 C317 1.453 . S
C305 C318 1.684 . S
H306 C330 0.948 . S
C307 C303 1.397 . S
C307 C308 1.394 . S
C307 C326 1.723 . S
C308 C305 1.396 . S
C308 C307 1.394 . S
C308 C338 1.723 . S
H309 C332 0.947 . S
H310 C333 0.948 . S
H311 C339 0.982 . S
H312 C340 0.979 . S
H313 C340 0.980 . S
H314 C340 0.983 . S
H315 C339 0.979 . S
H316 C339 0.977 . S
C317 C305 1.453 . S
C317 H346 0.982 . S
C317 H347 0.979 . S
C317 H348 0.977 . S
C318 C305 1.684 . S
C318 H343 0.979 . S
C318 H344 0.980 . S
C318 H345 0.983 . S
C319 C320 1.391 . S
C319 C324 1.391 . S
C319 H349 0.948 . S
C320 C319 1.391 . S
C320 C321 1.391 . S
C321 C320 1.391 . S
C321 C322 1.392 . S
C321 H350 0.947 . S
C322 C321 1.392 . S
C322 C323 1.419 . S
C322 H351 0.948 . S
C323 C322 1.419 . S
C323 C324 1.391 . S
C323 C327 1.397 . S
C324 C319 1.391 . S
C324 C323 1.391 . S
C324 C325 1.399 . S
C325 C324 1.399 . S
C325 C326 1.396 . S
C325 C328 1.453 . S
C325 C329 1.684 . S
C326 C307 1.723 . S
C326 C325 1.396 . S
C326 C327 1.394 . S
C327 C323 1.397 . S
C327 C326 1.394 . S
C327 C337 1.723 . S
C328 C325 1.453 . S
C328 H352 0.982 . S
C328 H353 0.979 . S
C328 H354 0.977 . S
C329 C325 1.684 . S
C329 H355 0.979 . S
C329 H356 0.980 . S
C329 H357 0.983 . S
C330 H306 0.948 . S
C330 C331 1.391 . S
C330 C335 1.391 . S
C331 C330 1.391 . S
C331 C332 1.391 . S
C332 H309 0.947 . S
C332 C331 1.391 . S
C332 C333 1.392 . S
C333 H310 0.948 . S
C333 C332 1.392 . S
C333 C334 1.419 . S
C334 C333 1.419 . S
C334 C335 1.391 . S
C334 C338 1.397 . S
C335 C330 1.391 . S
C335 C334 1.391 . S
C335 C336 1.399 . S
C336 C335 1.399 . S
C336 C337 1.396 . S
C336 C339 1.453 . S
C336 C340 1.684 . S
C337 C327 1.723 . S
C337 C336 1.396 . S
C337 C338 1.394 . S
C338 C308 1.723 . S
C338 C334 1.397 . S
C338 C337 1.394 . S
C339 H311 0.982 . S
C339 H315 0.979 . S
C339 H316 0.977 . S
C339 C336 1.453 . S
C340 H312 0.979 . S
C340 H313 0.980 . S
C340 H314 0.983 . S
C340 C336 1.684 . S
H341 C359 0.948 . S
H342 C300 0.948 . S
H343 C318 0.979 . S
H344 C318 0.980 . S
H345 C318 0.983 . S
H346 C317 0.982 . S
H347 C317 0.979 . S
H348 C317 0.977 . S
H349 C319 0.948 . S
H350 C321 0.947 . S
H351 C322 0.948 . S
H352 C328 0.982 . S
H353 C328 0.979 . S
H354 C328 0.977 . S
H355 C329 0.979 . S
H356 C329 0.980 . S
H357 C329 0.983 . S
H358 C302 0.947 . S
C359 C302 1.392 . S
C359 C303 1.419 . S
C359 H341 0.948 . S
C360 C361 1.391 . S
C360 C364 1.391 . S
C360 H402 0.948 . S
C361 C360 1.391 . S
C361 C362 1.391 . S
C362 C361 1.391 . S
C362 H418 0.947 . S
C362 C419 1.392 . S
C363 C364 1.391 . S
C363 C367 1.397 . S
C363 C419 1.419 . S
C364 C360 1.391 . S
C364 C363 1.391 . S
C364 C365 1.399 . S
C365 C364 1.399 . S
C365 C368 1.396 . S
C365 C377 1.453 . S
C365 C378 1.684 . S
H366 C390 0.948 . S
C367 C363 1.397 . S
C367 C368 1.394 . S
C367 C386 1.723 . S
C368 C365 1.396 . S
C368 C367 1.394 . S
C368 C398 1.723 . S
H369 C392 0.947 . S
H370 C393 0.948 . S
H371 C399 0.982 . S
H372 C400 0.979 . S
H373 C400 0.980 . S
H374 C400 0.983 . S
H375 C399 0.979 . S
H376 C399 0.977 . S
C377 C365 1.453 . S
C377 H406 0.982 . S
C377 H407 0.979 . S
C377 H408 0.977 . S
C378 C365 1.684 . S
C378 H403 0.979 . S
C378 H404 0.980 . S
C378 H405 0.983 . S
C379 C380 1.391 . S
C379 C384 1.391 . S
C379 H409 0.948 . S
C380 C379 1.391 . S
C380 C381 1.391 . S
C381 C380 1.391 . S
C381 C382 1.392 . S
C381 H410 0.947 . S
C382 C381 1.392 . S
C382 C383 1.419 . S
C382 H411 0.948 . S
C383 C382 1.419 . S
C383 C384 1.391 . S
C383 C387 1.397 . S
C384 C379 1.391 . S
C384 C383 1.391 . S
C384 C385 1.399 . S
C385 C384 1.399 . S
C385 C386 1.396 . S
C385 C388 1.453 . S
C385 C389 1.684 . S
C386 C367 1.723 . S
C386 C385 1.396 . S
C386 C387 1.394 . S
C387 C383 1.397 . S
C387 C386 1.394 . S
C387 C397 1.723 . S
C388 C385 1.453 . S
C388 H412 0.982 . S
C388 H413 0.979 . S
C388 H414 0.977 . S
C389 C385 1.684 . S
C389 H415 0.979 . S
C389 H416 0.980 . S
C389 H417 0.983 . S
C390 H366 0.948 . S
C390 C391 1.391 . S
C390 C395 1.391 . S
C391 C390 1.391 . S
C391 C392 1.391 . S
C392 H369 0.947 . S
C392 C391 1.391 . S
C392 C393 1.392 . S
C393 H370 0.948 . S
C393 C392 1.392 . S
C393 C394 1.419 . S
C394 C393 1.419 . S
C394 C395 1.391 . S
C394 C398 1.397 . S
C395 C390 1.391 . S
C395 C394 1.391 . S
C395 C396 1.399 . S
C396 C395 1.399 . S
C396 C397 1.396 . S
C396 C399 1.453 . S
C396 C400 1.684 . S
C397 C387 1.723 . S
C397 C396 1.396 . S
C397 C398 1.394 . S
C398 C368 1.723 . S
C398 C394 1.397 . S
C398 C397 1.394 . S
C399 H371 0.982 . S
C399 H375 0.979 . S
C399 H376 0.977 . S
C399 C396 1.453 . S
C400 H372 0.979 . S
C400 H373 0.980 . S
C400 H374 0.983 . S
C400 C396 1.684 . S
H401 C419 0.948 . S
H402 C360 0.948 . S
H403 C378 0.979 . S
H404 C378 0.980 . S
H405 C378 0.983 . S
H406 C377 0.982 . S
H407 C377 0.979 . S
H408 C377 0.977 . S
H409 C379 0.948 . S
H410 C381 0.947 . S
H411 C382 0.948 . S
H412 C388 0.982 . S
H413 C388 0.979 . S
H414 C388 0.977 . S
H415 C389 0.979 . S
H416 C389 0.980 . S
H417 C389 0.983 . S
H418 C362 0.947 . S
C419 C362 1.392 . S
C419 C363 1.419 . S
C419 H401 0.948 . S
C420 C421 1.391 . S
C420 C424 1.391 . S
C420 H462 0.948 . S
C421 C420 1.391 . S
C421 C422 1.391 . S
C422 C421 1.391 . S
C422 H478 0.947 . S
C422 C479 1.392 . S
C423 C424 1.391 . S
C423 C427 1.397 . S
C423 C479 1.419 . S
C424 C420 1.391 . S
C424 C423 1.391 . S
C424 C425 1.399 . S
C425 C424 1.399 . S
C425 C428 1.396 . S
C425 C437 1.453 . S
C425 C438 1.684 . S
H426 C450 0.948 . S
C427 C423 1.397 . S
C427 C428 1.394 . S
C427 C446 1.723 . S
C428 C425 1.396 . S
C428 C427 1.394 . S
C428 C458 1.723 . S
H429 C452 0.947 . S
H430 C453 0.948 . S
H431 C459 0.982 . S
H432 C460 0.979 . S
H433 C460 0.980 . S
H434 C460 0.983 . S
H435 C459 0.979 . S
H436 C459 0.977 . S
C437 C425 1.453 . S
C437 H466 0.982 . S
C437 H467 0.979 . S
C437 H468 0.977 . S
C438 C425 1.684 . S
C438 H463 0.979 . S
C438 H464 0.980 . S
C438 H465 0.983 . S
C439 C440 1.391 . S
C439 C444 1.391 . S
C439 H469 0.948 . S
C440 C439 1.391 . S
C440 C441 1.391 . S
C441 C440 1.391 . S
C441 C442 1.392 . S
C441 H470 0.947 . S
C442 C441 1.392 . S
C442 C443 1.419 . S
C442 H471 0.948 . S
C443 C442 1.419 . S
C443 C444 1.391 . S
C443 C447 1.397 . S
C444 C439 1.391 . S
C444 C443 1.391 . S
C444 C445 1.399 . S
C445 C444 1.399 . S
C445 C446 1.396 . S
C445 C448 1.453 . S
C445 C449 1.684 . S
C446 C427 1.723 . S
C446 C445 1.396 . S
C446 C447 1.394 . S
C447 C443 1.397 . S
C447 C446 1.394 . S
C447 C457 1.723 . S
C448 C445 1.453 . S
C448 H472 0.982 . S
C448 H473 0.979 . S
C448 H474 0.977 . S
C449 C445 1.684 . S
C449 H475 0.979 . S
C449 H476 0.980 . S
C449 H477 0.983 . S
C450 H426 0.948 . S
C450 C451 1.391 . S
C450 C455 1.391 . S
C451 C450 1.391 . S
C451 C452 1.391 . S
C452 H429 0.947 . S
C452 C451 1.391 . S
C452 C453 1.392 . S
C453 H430 0.948 . S
C453 C452 1.392 . S
C453 C454 1.419 . S
C454 C453 1.419 . S
C454 C455 1.391 . S
C454 C458 1.397 . S
C455 C450 1.391 . S
C455 C454 1.391 . S
C455 C456 1.399 . S
C456 C455 1.399 . S
C456 C457 1.396 . S
C456 C459 1.453 . S
C456 C460 1.684 . S
C457 C447 1.723 . S
C457 C456 1.396 . S
C457 C458 1.394 . S
C458 C428 1.723 . S
C458 C454 1.397 . S
C458 C457 1.394 . S
C459 H431 0.982 . S
C459 H435 0.979 . S
C459 H436 0.977 . S
C459 C456 1.453 . S
C460 H432 0.979 . S
C460 H433 0.980 . S
C460 H434 0.983 . S
C460 C456 1.684 . S
H461 C479 0.948 . S
H462 C420 0.948 . S
H463 C438 0.979 . S
H464 C438 0.980 . S
H465 C438 0.983 . S
H466 C437 0.982 . S
H467 C437 0.979 . S
H468 C437 0.977 . S
H469 C439 0.948 . S
H470 C441 0.947 . S
H471 C442 0.948 . S
H472 C448 0.982 . S
H473 C448 0.979 . S
H474 C448 0.977 . S
H475 C449 0.979 . S
H476 C449 0.980 . S
H477 C449 0.983 . S
H478 C422 0.947 . S
C479 C422 1.392 . S
C479 C423 1.419 . S
C479 H461 0.948 . S
Co480 N485 2.057 . S
Co480 O497 2.021 . S
Co480 O500 2.062 . S
Co480 O504 2.117 1_545 S
Co480 O505 2.020 1_545 S
C481 O501 1.259 1_655 S
C481 O504 1.258 . S
Co482 N491 2.057 . S
Co482 O498 2.117 1_565 S
Co482 O499 2.020 1_565 S
Co482 O501 2.021 . S
Co482 O506 2.062 . S
C483 N485 1.316 . S
C483 N486 1.347 . S
C483 H488 0.931 . S
C484 N485 1.375 1_565 S
C484 C487 1.350 1_565 S
C484 H489 0.930 . S
N485 Co480 2.057 . S
N485 C483 1.316 . S
N485 C484 1.375 1_545 S
N486 C483 1.347 . S
N486 C487 1.373 . S
C487 C484 1.350 1_545 S
C487 N486 1.373 . S
C487 H508 0.931 1_545 S
H488 C483 0.931 . S
H489 C484 0.930 . S
C490 O497 1.259 1_455 S
C490 O498 1.258 . S
N491 Co482 2.057 . S
N491 C492 1.316 . S
N491 C493 1.375 1_565 S
C492 N491 1.316 . S
C492 N494 1.347 . S
C492 H503 0.931 . S
C493 N491 1.375 1_545 S
C493 C495 1.350 1_545 S
C493 H502 0.930 . S
N494 C492 1.347 . S
N494 C495 1.373 . S
C495 C493 1.350 1_565 S
C495 N494 1.373 . S
C495 H509 0.931 1_565 S
C496 O499 1.256 . S
C496 O500 1.255 1_455 S
O497 Co480 2.021 . S
O497 C490 1.259 1_655 S
O498 Co482 2.117 1_545 S
O498 C490 1.258 . S
O499 Co482 2.020 1_545 S
O499 C496 1.256 . S
O500 Co480 2.062 . S
O500 C496 1.255 1_655 S
O501 C481 1.259 1_455 S
O501 Co482 2.021 . S
H502 C493 0.930 . S
H503 C492 0.931 . S
O504 Co480 2.117 1_565 S
O504 C481 1.258 . S
O505 Co480 2.020 1_565 S
O505 C507 1.256 . S
O506 Co482 2.062 . S
O506 C507 1.255 1_455 S
C507 O505 1.256 . S
C507 O506 1.255 1_655 S
H508 C487 0.931 1_565 S
H509 C495 0.931 1_545 S
Co510 N515 2.057 . S
Co510 O527 2.021 1_565 S
Co510 O530 2.062 . S
Co510 O534 2.117 . S
Co510 O535 2.020 1_565 S
C511 O531 1.259 . S
C511 O534 1.258 1_554 S
Co512 N521 2.057 . S
Co512 O528 2.117 . S
Co512 O529 2.020 1_545 S
Co512 O531 2.021 1_545 S
Co512 O536 2.062 . S
C513 N515 1.316 . S
C513 N516 1.347 . S
C513 H518 0.931 1_565 S
C514 N515 1.375 . S
C514 C517 1.350 . S
C514 H519 0.930 . S
N515 Co510 2.057 . S
N515 C513 1.316 . S
N515 C514 1.375 . S
N516 C513 1.347 . S
N516 C517 1.373 . S
C517 C514 1.350 . S
C517 N516 1.373 . S
C517 H538 0.931 . S
H518 C513 0.931 1_545 S
H519 C514 0.930 . S
C520 O527 1.259 . S
C520 O528 1.258 1_556 S
N521 Co512 2.057 . S
N521 C522 1.316 . S
N521 C523 1.375 . S
C522 N521 1.316 . S
C522 N524 1.347 . S
C522 H533 0.931 1_545 S
C523 N521 1.375 . S
C523 C525 1.350 . S
C523 H532 0.930 . S
N524 C522 1.347 . S
N524 C525 1.373 . S
C525 C523 1.350 . S
C525 N524 1.373 . S
C525 H539 0.931 . S
C526 O529 1.256 1_556 S
C526 O530 1.255 . S
O527 Co510 2.021 1_545 S
O527 C520 1.259 . S
O528 Co512 2.117 . S
O528 C520 1.258 1_554 S
O529 Co512 2.020 1_565 S
O529 C526 1.256 1_554 S
O530 Co510 2.062 . S
O530 C526 1.255 . S
O531 C511 1.259 . S
O531 Co512 2.021 1_565 S
H532 C523 0.930 . S
H533 C522 0.931 1_565 S
O534 Co510 2.117 . S
O534 C511 1.258 1_556 S
O535 Co510 2.020 1_545 S
O535 C537 1.256 1_556 S
O536 Co512 2.062 . S
O536 C537 1.255 . S
C537 O535 1.256 1_554 S
C537 O536 1.255 . S
H538 C517 0.931 . S
H539 C525 0.931 . S
Co540 N545 2.057 . S
Co540 O557 2.021 . S
Co540 O560 2.062 . S
Co540 O564 2.117 . S
Co540 O565 2.020 . S
C541 O561 1.259 . S
C541 O564 1.258 . S
Co542 N551 2.057 . S
Co542 O558 2.117 . S
Co542 O559 2.020 . S
Co542 O561 2.021 . S
Co542 O566 2.062 . S
C543 N545 1.316 . S
C543 N546 1.347 . S
C543 H548 0.931 . S
C544 N545 1.375 . S
C544 C547 1.350 . S
C544 H549 0.930 . S
N545 Co540 2.057 . S
N545 C543 1.316 . S
N545 C544 1.375 . S
N546 C543 1.347 . S
N546 C547 1.373 . S
C547 C544 1.350 . S
C547 N546 1.373 . S
C547 H568 0.931 . S
H548 C543 0.931 . S
H549 C544 0.930 . S
C550 O557 1.259 . S
C550 O558 1.258 . S
N551 Co542 2.057 . S
N551 C552 1.316 . S
N551 C553 1.375 . S
C552 N551 1.316 . S
C552 N554 1.347 . S
C552 H563 0.931 . S
C553 N551 1.375 . S
C553 C555 1.350 . S
C553 H562 0.930 . S
N554 C552 1.347 . S
N554 C555 1.373 . S
C555 C553 1.350 . S
C555 N554 1.373 . S
C555 H569 0.931 . S
C556 O559 1.256 . S
C556 O560 1.255 . S
O557 Co540 2.021 . S
O557 C550 1.259 . S
O558 Co542 2.117 . S
O558 C550 1.258 . S
O559 Co542 2.020 . S
O559 C556 1.256 . S
O560 Co540 2.062 . S
O560 C556 1.255 . S
O561 C541 1.259 . S
O561 Co542 2.021 . S
H562 C553 0.930 . S
H563 C552 0.931 . S
O564 Co540 2.117 . S
O564 C541 1.258 . S
O565 Co540 2.020 . S
O565 C567 1.256 . S
O566 Co542 2.062 . S
O566 C567 1.255 . S
C567 O565 1.256 . S
C567 O566 1.255 . S
H568 C547 0.931 . S
H569 C555 0.931 . S
Co570 N575 2.057 . S
Co570 O587 2.021 . S
Co570 O590 2.062 . S
Co570 O594 2.117 1_455 S
Co570 O595 2.020 1_455 S
C571 O591 1.259 1_556 S
C571 O594 1.258 . S
Co572 N581 2.057 . S
Co572 O588 2.117 1_655 S
Co572 O589 2.020 1_655 S
Co572 O591 2.021 . S
Co572 O596 2.062 . S
C573 N575 1.316 . S
C573 N576 1.347 . S
C573 H578 0.931 . S
C574 N575 1.375 1_655 S
C574 C577 1.350 1_655 S
C574 H579 0.930 . S
N575 Co570 2.057 . S
N575 C573 1.316 . S
N575 C574 1.375 1_455 S
N576 C573 1.347 . S
N576 C577 1.373 . S
C577 C574 1.350 1_455 S
C577 N576 1.373 . S
C577 H598 0.931 1_455 S
H578 C573 0.931 . S
H579 C574 0.930 . S
C580 O587 1.259 1_554 S
C580 O588 1.258 . S
N581 Co572 2.057 . S
N581 C582 1.316 . S
N581 C583 1.375 1_655 S
C582 N581 1.316 . S
C582 N584 1.347 . S
C582 H593 0.931 . S
C583 N581 1.375 1_455 S
C583 C585 1.350 1_455 S
C583 H592 0.930 . S
N584 C582 1.347 . S
N584 C585 1.373 . S
C585 C583 1.350 1_655 S
C585 N584 1.373 . S
C585 H599 0.931 1_655 S
C586 O589 1.256 . S
C586 O590 1.255 1_554 S
O587 Co570 2.021 . S
O587 C580 1.259 1_556 S
O588 Co572 2.117 1_455 S
O588 C580 1.258 . S
O589 Co572 2.020 1_455 S
O589 C586 1.256 . S
O590 Co570 2.062 . S
O590 C586 1.255 1_556 S
O591 C571 1.259 1_554 S
O591 Co572 2.021 . S
H592 C583 0.930 . S
H593 C582 0.931 . S
O594 Co570 2.117 1_655 S
O594 C571 1.258 . S
O595 Co570 2.020 1_655 S
O595 C597 1.256 . S
O596 Co572 2.062 . S
O596 C597 1.255 1_554 S
C597 O595 1.256 . S
C597 O596 1.255 1_556 S
H598 C577 0.931 1_655 S
H599 C585 0.931 1_455 S
H600 C608 0.950 . S
H601 C613 0.950 . S
H602 C610 0.950 . S
H603 C612 0.950 . S
H604 C614 0.950 1_565 S
H605 C616 0.950 . S
H606 C618 0.950 . S
H607 C619 0.949 1_655 S
C608 H600 0.950 . S
C608 C609 1.386 . S
C608 C610 1.391 . S
C609 C608 1.386 . S
C609 C613 1.393 . S
C610 H602 0.950 . S
C610 C608 1.391 . S
C610 C611 1.400 . S
C611 C610 1.400 . S
C611 C612 1.398 . S
C611 C617 1.491 . S
C612 H603 0.950 . S
C612 C611 1.398 . S
C612 C613 1.391 . S
C613 H601 0.950 . S
C613 C609 1.393 . S
C613 C612 1.391 . S
C614 H604 0.950 1_545 S
C614 C615 1.386 . S
C614 C616 1.391 . S
C615 C614 1.386 . S
C615 C619 1.393 . S
C616 H605 0.950 . S
C616 C614 1.391 . S
C616 C617 1.400 . S
C617 C611 1.491 . S
C617 C616 1.400 . S
C617 C618 1.398 . S
C618 H606 0.950 . S
C618 C617 1.398 . S
C618 C619 1.391 . S
C619 H607 0.949 1_455 S
C619 C615 1.393 . S
C619 C618 1.391 . S
H620 C628 0.950 . S
H621 C633 0.950 . S
H622 C630 0.950 . S
H623 C632 0.950 . S
H624 C634 0.950 . S
H625 C636 0.950 . S
H626 C638 0.950 . S
H627 C639 0.950 . S
C628 H620 0.950 . S
C628 C629 1.386 . S
C628 C630 1.391 . S
C629 C628 1.386 . S
C629 C633 1.393 . S
C630 H622 0.950 . S
C630 C628 1.391 . S
C630 C631 1.400 . S
C631 C630 1.400 . S
C631 C632 1.398 . S
C631 C637 1.491 . S
C632 H623 0.950 . S
C632 C631 1.398 . S
C632 C633 1.391 . S
C633 H621 0.950 . S
C633 C629 1.393 . S
C633 C632 1.391 . S
C634 H624 0.950 . S
C634 C635 1.386 . S
C634 C636 1.391 . S
C635 C634 1.386 . S
C635 C639 1.393 . S
C636 H625 0.950 . S
C636 C634 1.391 . S
C636 C637 1.400 . S
C637 C631 1.491 . S
C637 C636 1.400 . S
C637 C638 1.398 . S
C638 H626 0.950 . S
C638 C637 1.398 . S
C638 C639 1.391 . S
C639 H627 0.950 . S
C639 C635 1.393 . S
C639 C638 1.391 . S
H640 C648 0.950 . S
H641 C653 0.950 . S
H642 C650 0.950 . S
H643 C652 0.950 . S
H644 C654 0.950 . S
H645 C656 0.950 . S
H646 C658 0.950 . S
H647 C659 0.950 . S
C648 H640 0.950 . S
C648 C649 1.386 . S
C648 C650 1.391 . S
C649 C648 1.386 . S
C649 C653 1.393 . S
C650 H642 0.950 . S
C650 C648 1.391 . S
C650 C651 1.400 . S
C651 C650 1.400 . S
C651 C652 1.398 . S
C651 C657 1.491 . S
C652 H643 0.950 . S
C652 C651 1.398 . S
C652 C653 1.391 . S
C653 H641 0.950 . S
C653 C649 1.393 . S
C653 C652 1.391 . S
C654 H644 0.950 . S
C654 C655 1.386 . S
C654 C656 1.391 . S
C655 C654 1.386 . S
C655 C659 1.393 . S
C656 H645 0.950 . S
C656 C654 1.391 . S
C656 C657 1.400 . S
C657 C651 1.491 . S
C657 C656 1.400 . S
C657 C658 1.398 . S
C658 H646 0.950 . S
C658 C657 1.398 . S
C658 C659 1.391 . S
C659 H647 0.950 . S
C659 C655 1.393 . S
C659 C658 1.391 . S
H660 C668 0.950 . S
H661 C673 0.950 . S
H662 C670 0.950 . S
H663 C672 0.950 . S
H664 C674 0.950 . S
H665 C676 0.950 . S
H666 C678 0.950 . S
H667 C679 0.950 . S
C668 H660 0.950 . S
C668 C669 1.386 . S
C668 C670 1.391 . S
C669 C668 1.386 . S
C669 C673 1.393 . S
C670 H662 0.950 . S
C670 C668 1.391 . S
C670 C671 1.400 . S
C671 C670 1.400 . S
C671 C672 1.398 . S
C671 C677 1.491 . S
C672 H663 0.950 . S
C672 C671 1.398 . S
C672 C673 1.391 . S
C673 H661 0.950 . S
C673 C669 1.393 . S
C673 C672 1.391 . S
C674 H664 0.950 . S
C674 C675 1.386 . S
C674 C676 1.391 . S
C675 C674 1.386 . S
C675 C679 1.393 . S
C676 H665 0.950 . S
C676 C674 1.391 . S
C676 C677 1.400 . S
C677 C671 1.491 . S
C677 C676 1.400 . S
C677 C678 1.398 . S
C678 H666 0.950 . S
C678 C677 1.398 . S
C678 C679 1.391 . S
C679 H667 0.950 . S
C679 C675 1.393 . S
C679 C678 1.391 . S
H680 C688 0.950 . S
H681 C693 0.950 . S
H682 C690 0.950 . S
H683 C692 0.950 . S
H684 C694 0.950 1_556 S
H685 C696 0.950 1_556 S
H686 C698 0.950 . S
H687 C699 0.950 . S
C688 H680 0.950 . S
C688 C689 1.386 . S
C688 C690 1.391 . S
C689 C688 1.386 . S
C689 C693 1.393 . S
C690 H682 0.950 . S
C690 C688 1.391 . S
C690 C691 1.400 . S
C691 C690 1.400 . S
C691 C692 1.398 . S
C691 C697 1.491 . S
C692 H683 0.950 . S
C692 C691 1.398 . S
C692 C693 1.391 . S
C693 H681 0.950 . S
C693 C689 1.393 . S
C693 C692 1.391 . S
C694 H684 0.950 1_554 S
C694 C695 1.386 . S
C694 C696 1.391 . S
C695 C694 1.386 . S
C695 C699 1.393 . S
C696 H685 0.950 1_554 S
C696 C694 1.391 . S
C696 C697 1.400 . S
C697 C691 1.491 . S
C697 C696 1.400 . S
C697 C698 1.398 . S
C698 H686 0.950 . S
C698 C697 1.398 . S
C698 C699 1.391 . S
C699 H687 0.950 . S
C699 C695 1.393 . S
C699 C698 1.391 . S
H700 C708 0.950 . S
H701 C713 0.950 . S
H702 C710 0.950 . S
H703 C712 0.950 . S
H704 C714 0.950 . S
H705 C716 0.950 . S
H706 C718 0.950 . S
H707 C719 0.950 . S
C708 H700 0.950 . S
C708 C709 1.386 . S
C708 C710 1.391 . S
C709 C708 1.386 . S
C709 C713 1.393 . S
C710 H702 0.950 . S
C710 C708 1.391 . S
C710 C711 1.400 . S
C711 C710 1.400 . S
C711 C712 1.398 . S
C711 C717 1.491 . S
C712 H703 0.950 . S
C712 C711 1.398 . S
C712 C713 1.391 . S
C713 H701 0.950 . S
C713 C709 1.393 . S
C713 C712 1.391 . S
C714 H704 0.950 . S
C714 C715 1.386 . S
C714 C716 1.391 . S
C715 C714 1.386 . S
C715 C719 1.393 . S
C716 H705 0.950 . S
C716 C714 1.391 . S
C716 C717 1.400 . S
C717 C711 1.491 . S
C717 C716 1.400 . S
C717 C718 1.398 . S
C718 H706 0.950 . S
C718 C717 1.398 . S
C718 C719 1.391 . S
C719 H707 0.950 . S
C719 C715 1.393 . S
C719 C718 1.391 . S
H720 C728 0.950 . S
H721 C733 0.950 . S
H722 C730 0.950 . S
H723 C732 0.950 . S
H724 C734 0.950 . S
H725 C736 0.950 . S
H726 C738 0.950 . S
H727 C739 0.950 1_554 S
C728 H720 0.950 . S
C728 C729 1.386 . S
C728 C730 1.391 . S
C729 C728 1.386 . S
C729 C733 1.393 . S
C730 H722 0.950 . S
C730 C728 1.391 . S
C730 C731 1.400 . S
C731 C730 1.400 . S
C731 C732 1.398 . S
C731 C737 1.491 . S
C732 H723 0.950 . S
C732 C731 1.398 . S
C732 C733 1.391 . S
C733 H721 0.950 . S
C733 C729 1.393 . S
C733 C732 1.391 . S
C734 H724 0.950 . S
C734 C735 1.386 . S
C734 C736 1.391 . S
C735 C734 1.386 . S
C735 C739 1.393 . S
C736 H725 0.950 . S
C736 C734 1.391 . S
C736 C737 1.400 . S
C737 C731 1.491 . S
C737 C736 1.400 . S
C737 C738 1.398 . S
C738 H726 0.950 . S
C738 C737 1.398 . S
C738 C739 1.391 . S
C739 H727 0.950 1_556 S
C739 C735 1.393 . S
C739 C738 1.391 . S
H740 C748 0.950 . S
H741 C753 0.950 . S
H742 C750 0.950 . S
H743 C752 0.950 . S
H744 C754 0.950 . S
H745 C756 0.950 . S
H746 C758 0.950 . S
H747 C759 0.950 . S
C748 H740 0.950 . S
C748 C749 1.386 . S
C748 C750 1.391 . S
C749 C748 1.386 . S
C749 C753 1.393 . S
C750 H742 0.950 . S
C750 C748 1.391 . S
C750 C751 1.400 . S
C751 C750 1.400 . S
C751 C752 1.398 . S
C751 C757 1.491 . S
C752 H743 0.950 . S
C752 C751 1.398 . S
C752 C753 1.391 . S
C753 H741 0.950 . S
C753 C749 1.393 . S
C753 C752 1.391 . S
C754 H744 0.950 . S
C754 C755 1.386 . S
C754 C756 1.391 . S
C755 C754 1.386 . S
C755 C759 1.393 . S
C756 H745 0.950 . S
C756 C754 1.391 . S
C756 C757 1.400 . S
C757 C751 1.491 . S
C757 C756 1.400 . S
C757 C758 1.398 . S
C758 H746 0.950 . S
C758 C757 1.398 . S
C758 C759 1.391 . S
C759 H747 0.950 . S
C759 C755 1.393 . S
C759 C758 1.391 . S
H760 C768 0.950 . S
H761 C773 0.950 . S
H762 C770 0.950 . S
H763 C772 0.950 . S
H764 C774 0.950 . S
H765 C776 0.950 . S
H766 C778 0.950 1_655 S
H767 C779 0.950 1_655 S
C768 H760 0.950 . S
C768 C769 1.386 . S
C768 C770 1.391 . S
C769 C768 1.386 . S
C769 C773 1.393 . S
C770 H762 0.950 . S
C770 C768 1.391 . S
C770 C771 1.400 . S
C771 C770 1.400 . S
C771 C772 1.398 . S
C771 C777 1.491 . S
C772 H763 0.950 . S
C772 C771 1.398 . S
C772 C773 1.391 . S
C773 H761 0.950 . S
C773 C769 1.393 . S
C773 C772 1.391 . S
C774 H764 0.950 . S
C774 C775 1.386 . S
C774 C776 1.391 . S
C775 C774 1.386 . S
C775 C779 1.393 . S
C776 H765 0.950 . S
C776 C774 1.391 . S
C776 C777 1.400 . S
C777 C771 1.491 . S
C777 C776 1.400 . S
C777 C778 1.398 . S
C778 H766 0.950 1_455 S
C778 C777 1.398 . S
C778 C779 1.391 . S
C779 H767 0.950 1_455 S
C779 C775 1.393 . S
C779 C778 1.391 . S
H780 C788 0.950 . S
H781 C793 0.950 . S
H782 C790 0.950 . S
H783 C792 0.950 . S
H784 C794 0.950 . S
H785 C796 0.950 . S
H786 C798 0.950 . S
H787 C799 0.950 . S
C788 H780 0.950 . S
C788 C789 1.386 . S
C788 C790 1.391 . S
C789 C788 1.386 . S
C789 C793 1.393 . S
C790 H782 0.950 . S
C790 C788 1.391 . S
C790 C791 1.400 . S
C791 C790 1.400 . S
C791 C792 1.398 . S
C791 C797 1.491 . S
C792 H783 0.950 . S
C792 C791 1.398 . S
C792 C793 1.391 . S
C793 H781 0.950 . S
C793 C789 1.393 . S
C793 C792 1.391 . S
C794 H784 0.950 . S
C794 C795 1.386 . S
C794 C796 1.391 . S
C795 C794 1.386 . S
C795 C799 1.393 . S
C796 H785 0.950 . S
C796 C794 1.391 . S
C796 C797 1.400 . S
C797 C791 1.491 . S
C797 C796 1.400 . S
C797 C798 1.398 . S
C798 H786 0.950 . S
C798 C797 1.398 . S
C798 C799 1.391 . S
C799 H787 0.950 . S
C799 C795 1.393 . S
C799 C798 1.391 . S
H800 C808 0.950 . S
H801 C813 0.950 . S
H802 C810 0.950 . S
H803 C812 0.950 . S
H804 C814 0.950 . S
H805 C816 0.950 . S
H806 C818 0.969 . S
H807 C819 0.950 1_455 S
C808 H800 0.950 . S
C808 C809 1.386 . S
C808 C810 1.391 . S
C809 C808 1.386 . S
C809 C813 1.393 . S
C810 H802 0.950 . S
C810 C808 1.391 . S
C810 C811 1.400 . S
C811 C810 1.400 . S
C811 C812 1.398 . S
C811 C817 1.491 . S
C812 H803 0.950 . S
C812 C811 1.398 . S
C812 C813 1.391 . S
C813 H801 0.950 . S
C813 C809 1.393 . S
C813 C812 1.391 . S
C814 H804 0.950 . S
C814 C815 1.386 . S
C814 C816 1.391 . S
C815 C814 1.386 . S
C815 C819 1.393 . S
C816 H805 0.950 . S
C816 C814 1.391 . S
C816 C817 1.400 . S
C817 C811 1.491 . S
C817 C816 1.400 . S
C817 C818 1.398 . S
C818 H806 0.969 . S
C818 C817 1.398 . S
C818 C819 1.391 . S
C819 H807 0.950 1_655 S
C819 C815 1.393 . S
C819 C818 1.391 . S
H820 C828 0.950 . S
H821 C833 0.950 . S
H822 C830 0.950 . S
H823 C832 0.950 . S
H824 C834 0.950 . S
H825 C836 0.950 . S
H826 C838 0.950 . S
H827 C839 0.950 . S
C828 H820 0.950 . S
C828 C829 1.386 . S
C828 C830 1.391 . S
C829 C828 1.386 . S
C829 C833 1.393 . S
C830 H822 0.950 . S
C830 C828 1.391 . S
C830 C831 1.400 . S
C831 C830 1.400 . S
C831 C832 1.398 . S
C831 C837 1.491 . S
C832 H823 0.950 . S
C832 C831 1.398 . S
C832 C833 1.391 . S
C833 H821 0.950 . S
C833 C829 1.393 . S
C833 C832 1.391 . S
C834 H824 0.950 . S
C834 C835 1.386 . S
C834 C836 1.391 . S
C835 C834 1.386 . S
C835 C839 1.393 . S
C836 H825 0.950 . S
C836 C834 1.391 . S
C836 C837 1.400 . S
C837 C831 1.491 . S
C837 C836 1.400 . S
C837 C838 1.398 . S
C838 H826 0.950 . S
C838 C837 1.398 . S
C838 C839 1.391 . S
C839 H827 0.950 . S
C839 C835 1.393 . S
C839 C838 1.391 . S
H840 C848 0.950 . S
H841 C853 0.950 . S
H842 C850 0.950 . S
H843 C852 0.950 . S
H844 C854 0.950 1_455 S
H845 C856 0.950 . S
H846 C858 0.950 . S
H847 C859 0.929 1_545 S
C848 H840 0.950 . S
C848 C849 1.386 . S
C848 C850 1.391 . S
C849 C848 1.386 . S
C849 C853 1.393 . S
C850 H842 0.950 . S
C850 C848 1.391 . S
C850 C851 1.400 . S
C851 C850 1.400 . S
C851 C852 1.398 . S
C851 C857 1.491 . S
C852 H843 0.950 . S
C852 C851 1.398 . S
C852 C853 1.391 . S
C853 H841 0.950 . S
C853 C849 1.393 . S
C853 C852 1.391 . S
C854 H844 0.950 1_655 S
C854 C855 1.386 . S
C854 C856 1.391 . S
C855 C854 1.386 . S
C855 C859 1.393 . S
C856 H845 0.950 . S
C856 C854 1.391 . S
C856 C857 1.400 . S
C857 C851 1.491 . S
C857 C856 1.400 . S
C857 C858 1.398 . S
C858 H846 0.950 . S
C858 C857 1.398 . S
C858 C859 1.391 . S
C859 H847 0.929 1_565 S
C859 C855 1.393 . S
C859 C858 1.391 . S
H860 C868 0.950 . S
H861 C873 0.950 . S
H862 C870 0.950 . S
H863 C872 0.950 . S
H864 C874 0.950 . S
H865 C876 0.950 . S
H866 C878 0.950 . S
H867 C879 0.950 . S
C868 H860 0.950 . S
C868 C869 1.386 . S
C868 C870 1.391 . S
C869 C868 1.386 . S
C869 C873 1.393 . S
C870 H862 0.950 . S
C870 C868 1.391 . S
C870 C871 1.400 . S
C871 C870 1.400 . S
C871 C872 1.398 . S
C871 C877 1.491 . S
C872 H863 0.950 . S
C872 C871 1.398 . S
C872 C873 1.391 . S
C873 H861 0.950 . S
C873 C869 1.393 . S
C873 C872 1.391 . S
C874 H864 0.950 . S
C874 C875 1.386 . S
C874 C876 1.391 . S
C875 C874 1.386 . S
C875 C879 1.393 . S
C876 H865 0.950 . S
C876 C874 1.391 . S
C876 C877 1.400 . S
C877 C871 1.491 . S
C877 C876 1.400 . S
C877 C878 1.398 . S
C878 H866 0.950 . S
C878 C877 1.398 . S
C878 C879 1.391 . S
C879 H867 0.950 . S
C879 C875 1.393 . S
C879 C878 1.391 . S
H880 C888 0.950 . S
H881 C893 0.950 . S
H882 C890 0.950 . S
H883 C892 0.950 . S
H884 C894 0.950 . S
H885 C896 0.950 . S
H886 C898 0.950 . S
H887 C899 0.950 . S
C888 H880 0.950 . S
C888 C889 1.386 . S
C888 C890 1.391 . S
C889 C888 1.386 . S
C889 C893 1.393 . S
C890 H882 0.950 . S
C890 C888 1.391 . S
C890 C891 1.400 . S
C891 C890 1.400 . S
C891 C892 1.398 . S
C891 C897 1.491 . S
C892 H883 0.950 . S
C892 C891 1.398 . S
C892 C893 1.391 . S
C893 H881 0.950 . S
C893 C889 1.393 . S
C893 C892 1.391 . S
C894 H884 0.950 . S
C894 C895 1.386 . S
C894 C896 1.391 . S
C895 C894 1.386 . S
C895 C899 1.393 . S
C896 H885 0.950 . S
C896 C894 1.391 . S
C896 C897 1.400 . S
C897 C891 1.491 . S
C897 C896 1.400 . S
C897 C898 1.398 . S
C898 H886 0.950 . S
C898 C897 1.398 . S
C898 C899 1.391 . S
C899 H887 0.950 . S
C899 C895 1.393 . S
C899 C898 1.391 . S
H900 C908 0.950 . S
H901 C913 0.950 . S
H902 C910 0.950 . S
H903 C912 0.950 . S
H904 C914 0.950 . S
H905 C916 0.950 . S
H906 C918 0.950 . S
H907 C919 0.950 . S
C908 H900 0.950 . S
C908 C909 1.386 . S
C908 C910 1.391 . S
C909 C908 1.386 . S
C909 C913 1.393 . S
C910 H902 0.950 . S
C910 C908 1.391 . S
C910 C911 1.400 . S
C911 C910 1.400 . S
C911 C912 1.398 . S
C911 C917 1.491 . S
C912 H903 0.950 . S
C912 C911 1.398 . S
C912 C913 1.391 . S
C913 H901 0.950 . S
C913 C909 1.393 . S
C913 C912 1.391 . S
C914 H904 0.950 . S
C914 C915 1.386 . S
C914 C916 1.391 . S
C915 C914 1.386 . S
C915 C919 1.393 . S
C916 H905 0.950 . S
C916 C914 1.391 . S
C916 C917 1.400 . S
C917 C911 1.491 . S
C917 C916 1.400 . S
C917 C918 1.398 . S
C918 H906 0.950 . S
C918 C917 1.398 . S
C918 C919 1.391 . S
C919 H907 0.950 . S
C919 C915 1.393 . S
C919 C918 1.391 . S
H920 C928 0.950 . S
H921 C933 0.950 . S
H922 C930 0.950 . S
H923 C932 0.950 . S
H924 C934 0.950 . S
H925 C936 0.950 . S
H926 C938 0.950 . S
H927 C939 0.950 1_545 S
C928 H920 0.950 . S
C928 C929 1.386 . S
C928 C930 1.391 . S
C929 C928 1.386 . S
C929 C933 1.393 . S
C930 H922 0.950 . S
C930 C928 1.391 . S
C930 C931 1.400 . S
C931 C930 1.400 . S
C931 C932 1.398 . S
C931 C937 1.491 . S
C932 H923 0.950 . S
C932 C931 1.398 . S
C932 C933 1.391 . S
C933 H921 0.950 . S
C933 C929 1.393 . S
C933 C932 1.391 . S
C934 H924 0.950 . S
C934 C935 1.386 . S
C934 C936 1.391 . S
C935 C934 1.386 . S
C935 C939 1.393 . S
C936 H925 0.950 . S
C936 C934 1.391 . S
C936 C937 1.400 . S
C937 C931 1.491 . S
C937 C936 1.400 . S
C937 C938 1.398 . S
C938 H926 0.950 . S
C938 C937 1.398 . S
C938 C939 1.391 . S
C939 H927 0.950 1_565 S
C939 C935 1.393 . S
C939 C938 1.391 . S
H940 C948 0.950 . S
H941 C953 0.950 . S
H942 C950 0.950 . S
H943 C952 0.950 . S
H944 C954 0.950 . S
H945 C956 0.950 . S
H946 C958 0.950 . S
H947 C959 0.950 . S
C948 H940 0.950 . S
C948 C949 1.386 . S
C948 C950 1.391 . S
C949 C948 1.386 . S
C949 C953 1.393 . S
C950 H942 0.950 . S
C950 C948 1.391 . S
C950 C951 1.400 . S
C951 C950 1.400 . S
C951 C952 1.398 . S
C951 C957 1.491 . S
C952 H943 0.950 . S
C952 C951 1.398 . S
C952 C953 1.391 . S
C953 H941 0.950 . S
C953 C949 1.393 . S
C953 C952 1.391 . S
C954 H944 0.950 . S
C954 C955 1.386 . S
C954 C956 1.391 . S
C955 C954 1.386 . S
C955 C959 1.393 . S
C956 H945 0.950 . S
C956 C954 1.391 . S
C956 C957 1.400 . S
C957 C951 1.491 . S
C957 C956 1.400 . S
C957 C958 1.398 . S
C958 H946 0.950 . S
C958 C957 1.398 . S
C958 C959 1.391 . S
C959 H947 0.950 . S
C959 C955 1.393 . S
C959 C958 1.391 . S
H960 C968 0.950 . S
H961 C973 0.950 . S
H962 C970 0.950 . S
H963 C972 0.950 . S
H964 C974 0.950 . S
H965 C976 0.950 . S
H966 C978 0.950 . S
H967 C979 0.950 . S
C968 H960 0.950 . S
C968 C969 1.386 . S
C968 C970 1.391 . S
C969 C968 1.386 . S
C969 C973 1.393 . S
C970 H962 0.950 . S
C970 C968 1.391 . S
C970 C971 1.400 . S
C971 C970 1.400 . S
C971 C972 1.398 . S
C971 C977 1.491 . S
C972 H963 0.950 . S
C972 C971 1.398 . S
C972 C973 1.391 . S
C973 H961 0.950 . S
C973 C969 1.393 . S
C973 C972 1.391 . S
C974 H964 0.950 . S
C974 C975 1.386 . S
C974 C976 1.391 . S
C975 C974 1.386 . S
C975 C979 1.393 . S
C976 H965 0.950 . S
C976 C974 1.391 . S
C976 C977 1.400 . S
C977 C971 1.491 . S
C977 C976 1.400 . S
C977 C978 1.398 . S
C978 H966 0.950 . S
C978 C977 1.398 . S
C978 C979 1.391 . S
C979 H967 0.950 . S
C979 C975 1.393 . S
C979 C978 1.391 . S
H980 C988 0.950 . S
H981 C993 0.950 . S
H982 C990 0.950 . S
H983 C992 0.950 . S
H984 C994 0.950 . S
H985 C996 0.950 . S
H986 C998 0.950 . S
H987 C999 0.950 . S
C988 H980 0.950 . S
C988 C989 1.386 . S
C988 C990 1.391 . S
C989 C988 1.386 . S
C989 C993 1.393 . S
C990 H982 0.950 . S
C990 C988 1.391 . S
C990 C991 1.400 . S
C991 C990 1.400 . S
C991 C992 1.398 . S
C991 C997 1.491 . S
C992 H983 0.950 . S
C992 C991 1.398 . S
C992 C993 1.391 . S
C993 H981 0.950 . S
C993 C989 1.393 . S
C993 C992 1.391 . S
C994 H984 0.950 . S
C994 C995 1.386 . S
C994 C996 1.391 . S
C995 C994 1.386 . S
C995 C999 1.393 . S
C996 H985 0.950 . S
C996 C994 1.391 . S
C996 C997 1.400 . S
C997 C991 1.491 . S
C997 C996 1.400 . S
C997 C998 1.398 . S
C998 H986 0.950 . S
C998 C997 1.398 . S
C998 C999 1.391 . S
C999 H987 0.950 . S
C999 C995 1.393 . S
C999 C998 1.391 . S
H1000 C1008 0.950 . S
H1001 C1013 0.950 . S
H1002 C1010 0.950 . S
H1003 C1012 0.950 . S
H1004 C1014 0.950 1_455 S
H1005 C1016 0.950 . S
H1006 C1018 0.950 . S
H1007 C1019 0.950 . S
C1008 H1000 0.950 . S
C1008 C1009 1.386 . S
C1008 C1010 1.391 . S
C1009 C1008 1.386 . S
C1009 C1013 1.393 . S
C1010 H1002 0.950 . S
C1010 C1008 1.391 . S
C1010 C1011 1.400 . S
C1011 C1010 1.400 . S
C1011 C1012 1.398 . S
C1011 C1017 1.491 . S
C1012 H1003 0.950 . S
C1012 C1011 1.398 . S
C1012 C1013 1.391 . S
C1013 H1001 0.950 . S
C1013 C1009 1.393 . S
C1013 C1012 1.391 . S
C1014 H1004 0.950 1_655 S
C1014 C1015 1.386 . S
C1014 C1016 1.391 . S
C1015 C1014 1.386 . S
C1015 C1019 1.393 . S
C1016 H1005 0.950 . S
C1016 C1014 1.391 . S
C1016 C1017 1.400 . S
C1017 C1011 1.491 . S
C1017 C1016 1.400 . S
C1017 C1018 1.398 . S
C1018 H1006 0.950 . S
C1018 C1017 1.398 . S
C1018 C1019 1.391 . S
C1019 H1007 0.950 . S
C1019 C1015 1.393 . S
C1019 C1018 1.391 . S
H1020 C1028 0.950 . S
H1021 C1033 0.950 . S
H1022 C1030 0.950 . S
H1023 C1032 0.950 . S
H1024 C1034 0.972 . S
H1025 C1036 0.950 . S
H1026 C1038 0.950 . S
H1027 C1039 0.950 . S
C1028 H1020 0.950 . S
C1028 C1029 1.386 . S
C1028 C1030 1.391 . S
C1029 C1028 1.386 . S
C1029 C1033 1.393 . S
C1030 H1022 0.950 . S
C1030 C1028 1.391 . S
C1030 C1031 1.400 . S
C1031 C1030 1.400 . S
C1031 C1032 1.398 . S
C1031 C1037 1.491 . S
C1032 H1023 0.950 . S
C1032 C1031 1.398 . S
C1032 C1033 1.391 . S
C1033 H1021 0.950 . S
C1033 C1029 1.393 . S
C1033 C1032 1.391 . S
C1034 H1024 0.972 . S
C1034 C1035 1.386 . S
C1034 C1036 1.391 . S
C1035 C1034 1.386 . S
C1035 C1039 1.393 . S
C1036 H1025 0.950 . S
C1036 C1034 1.391 . S
C1036 C1037 1.400 . S
C1037 C1031 1.491 . S
C1037 C1036 1.400 . S
C1037 C1038 1.398 . S
C1038 H1026 0.950 . S
C1038 C1037 1.398 . S
C1038 C1039 1.391 . S
C1039 H1027 0.950 . S
C1039 C1035 1.393 . S
C1039 C1038 1.391 . S
H1040 C1048 0.950 . S
H1041 C1053 0.950 . S
H1042 C1050 0.950 . S
H1043 C1052 0.950 . S
H1044 C1054 0.950 . S
H1045 C1056 0.950 . S
H1046 C1058 0.950 . S
H1047 C1059 0.950 . S
C1048 H1040 0.950 . S
C1048 C1049 1.386 . S
C1048 C1050 1.391 . S
C1049 C1048 1.386 . S
C1049 C1053 1.393 . S
C1050 H1042 0.950 . S
C1050 C1048 1.391 . S
C1050 C1051 1.400 . S
C1051 C1050 1.400 . S
C1051 C1052 1.398 . S
C1051 C1057 1.491 . S
C1052 H1043 0.950 . S
C1052 C1051 1.398 . S
C1052 C1053 1.391 . S
C1053 H1041 0.950 . S
C1053 C1049 1.393 . S
C1053 C1052 1.391 . S
C1054 H1044 0.950 . S
C1054 C1055 1.386 . S
C1054 C1056 1.391 . S
C1055 C1054 1.386 . S
C1055 C1059 1.393 . S
C1056 H1045 0.950 . S
C1056 C1054 1.391 . S
C1056 C1057 1.400 . S
C1057 C1051 1.491 . S
C1057 C1056 1.400 . S
C1057 C1058 1.398 . S
C1058 H1046 0.950 . S
C1058 C1057 1.398 . S
C1058 C1059 1.391 . S
C1059 H1047 0.950 . S
C1059 C1055 1.393 . S
C1059 C1058 1.391 . S
H1060 C1068 0.950 . S
H1061 C1073 0.950 . S
H1062 C1070 0.950 . S
H1063 C1072 0.950 . S
H1064 C1074 0.950 . S
H1065 C1076 0.950 . S
H1066 C1078 0.950 . S
H1067 C1079 0.950 . S
C1068 H1060 0.950 . S
C1068 C1069 1.386 . S
C1068 C1070 1.391 . S
C1069 C1068 1.386 . S
C1069 C1073 1.393 . S
C1070 H1062 0.950 . S
C1070 C1068 1.391 . S
C1070 C1071 1.400 . S
C1071 C1070 1.400 . S
C1071 C1072 1.398 . S
C1071 C1077 1.491 . S
C1072 H1063 0.950 . S
C1072 C1071 1.398 . S
C1072 C1073 1.391 . S
C1073 H1061 0.950 . S
C1073 C1069 1.393 . S
C1073 C1072 1.391 . S
C1074 H1064 0.950 . S
C1074 C1075 1.386 . S
C1074 C1076 1.391 . S
C1075 C1074 1.386 . S
C1075 C1079 1.393 . S
C1076 H1065 0.950 . S
C1076 C1074 1.391 . S
C1076 C1077 1.400 . S
C1077 C1071 1.491 . S
C1077 C1076 1.400 . S
C1077 C1078 1.398 . S
C1078 H1066 0.950 . S
C1078 C1077 1.398 . S
C1078 C1079 1.391 . S
C1079 H1067 0.950 . S
C1079 C1075 1.393 . S
C1079 C1078 1.391 . S
C609 C1 2.140 . S
C615 C496 2.172 . S
C629 C80 1.092 . S
C635 N516 1.125 . S
C655 C550 2.005 . S
C649 C140 1.937 . S
C669 C211 1.329 . S
C675 N584 1.289 . S
C695 C537 2.346 . S
C689 C31 2.322 . S
C715 N494 1.155 . S
C709 C61 1.148 . S
C735 C571 2.004 . S
C729 C151 1.923 . S
C755 N546 1.058 . S
C749 C200 1.015 . S
C769 C20 1.836 . S
C775 C586 1.847 . S
C795 C520 1.725 . S
C789 C121 1.642 . S
C809 C181 1.427 . S
C815 C481 1.502 . S
C829 C91 1.422 . S
C835 C567 1.475 . S
C855 C507 2.173 . S
C849 C260 2.164 . S
C869 C320 1.117 . S
C875 N524 1.104 . S
C889 C361 1.996 . S
C895 C541 2.005 . S
C909 C451 1.303 . S
C915 N576 1.282 . S
C929 C271 2.328 . S
C935 C526 2.345 . S
C955 N486 1.155 . S
C949 C301 1.156 . S
C975 C580 2.006 . S
C969 C380 1.971 . S
C995 N554 1.041 . S
C989 C440 1.035 . S
C1009 C241 1.808 . S
C1015 C597 1.849 . S
C1035 C511 1.730 . S
C1029 C391 1.708 . S
C1055 C490 1.502 . S
C1049 C421 1.431 . S
C1069 C331 1.423 . S
C1075 C556 1.475 . S
