# Generated by pormake.
# Topology pyr, (3,6)-cn, num edge types: 1
# Building blocks:
#     Node 0, Type 0, BuildingBlock: CUQRIR_clean_linker_1, # of connection points: 3
#     Node 1, Type 0, BuildingBlock: CUQRIR_clean_linker_1, # of connection points: 3
#     Node 2, Type 0, BuildingBlock: CUQRIR_clean_linker_1, # of connection points: 3
#     Node 3, Type 0, BuildingBlock: CUQRIR_clean_linker_1, # of connection points: 3
#     Node 4, Type 0, BuildingBlock: CUQRIR_clean_linker_1, # of connection points: 3
#     Node 5, Type 0, BuildingBlock: CUQRIR_clean_linker_1, # of connection points: 3
#     Node 6, Type 0, BuildingBlock: CUQRIR_clean_linker_1, # of connection points: 3
#     Node 7, Type 0, BuildingBlock: CUQRIR_clean_linker_1, # of connection points: 3
#     Node 8, Type 1, BuildingBlock: BETFAJ_clean_sbu_0, # of connection points: 6
#     Node 9, Type 1, BuildingBlock: BETFAJ_clean_sbu_0, # of connection points: 6
#     Node 10, Type 1, BuildingBlock: BETFAJ_clean_sbu_0, # of connection points: 6
#     Node 11, Type 1, BuildingBlock: BETFAJ_clean_sbu_0, # of connection points: 6
#     Edge 12, Type (0, 1), BuildingBlock: XUDNAN_clean_linker_2, # of connection points: 2
#     Edge 13, Type (0, 1), BuildingBlock: XUDNAN_clean_linker_2, # of connection points: 2
#     Edge 14, Type (0, 1), BuildingBlock: XUDNAN_clean_linker_2, # of connection points: 2
#     Edge 15, Type (0, 1), BuildingBlock: XUDNAN_clean_linker_2, # of connection points: 2
#     Edge 16, Type (0, 1), BuildingBlock: XUDNAN_clean_linker_2, # of connection points: 2
#     Edge 17, Type (0, 1), BuildingBlock: XUDNAN_clean_linker_2, # of connection points: 2
#     Edge 18, Type (0, 1), BuildingBlock: XUDNAN_clean_linker_2, # of connection points: 2
#     Edge 19, Type (0, 1), BuildingBlock: XUDNAN_clean_linker_2, # of connection points: 2
#     Edge 20, Type (0, 1), BuildingBlock: XUDNAN_clean_linker_2, # of connection points: 2
#     Edge 21, Type (0, 1), BuildingBlock: XUDNAN_clean_linker_2, # of connection points: 2
#     Edge 22, Type (0, 1), BuildingBlock: XUDNAN_clean_linker_2, # of connection points: 2
#     Edge 23, Type (0, 1), BuildingBlock: XUDNAN_clean_linker_2, # of connection points: 2
#     Edge 24, Type (0, 1), BuildingBlock: XUDNAN_clean_linker_2, # of connection points: 2
#     Edge 25, Type (0, 1), BuildingBlock: XUDNAN_clean_linker_2, # of connection points: 2
#     Edge 26, Type (0, 1), BuildingBlock: XUDNAN_clean_linker_2, # of connection points: 2
#     Edge 27, Type (0, 1), BuildingBlock: XUDNAN_clean_linker_2, # of connection points: 2
#     Edge 28, Type (0, 1), BuildingBlock: XUDNAN_clean_linker_2, # of connection points: 2
#     Edge 29, Type (0, 1), BuildingBlock: XUDNAN_clean_linker_2, # of connection points: 2
#     Edge 30, Type (0, 1), BuildingBlock: XUDNAN_clean_linker_2, # of connection points: 2
#     Edge 31, Type (0, 1), BuildingBlock: XUDNAN_clean_linker_2, # of connection points: 2
#     Edge 32, Type (0, 1), BuildingBlock: XUDNAN_clean_linker_2, # of connection points: 2
#     Edge 33, Type (0, 1), BuildingBlock: XUDNAN_clean_linker_2, # of connection points: 2
#     Edge 34, Type (0, 1), BuildingBlock: XUDNAN_clean_linker_2, # of connection points: 2
#     Edge 35, Type (0, 1), BuildingBlock: XUDNAN_clean_linker_2, # of connection points: 2
# Relax obj value: 0.205
# Max RMSD: 0.259
# Mean RMSD: 0.169
data_MOF--net-pyr--node1-BETFAJ_clean_sbu_0--node2-CUQRIR_clean_linker_1--edge1-XUDNAN_clean_linker_2
_symmetry_space_group_name_H-M    P1
_symmetry_Int_Tables_number       1
_symmetry_cell_setting            triclinic
loop_
_symmetry_equiv_pos_as_xyz
'x, y, z'
_cell_length_a     34.858874
_cell_length_b     37.251437
_cell_length_c     33.643028
_cell_angle_alpha  90.483457
_cell_angle_beta   90.241386
_cell_angle_gamma 105.81915
loop_
_atom_site_label
_atom_site_type_symbol
_atom_site_fract_x
_atom_site_fract_y
_atom_site_fract_z
_atom_type_partial_charge
C0 C 0.33926 0.36578 0.20033 0.0
N1 N 0.35014 0.33367 0.20145 0.0
N2 N 0.36326 0.39071 0.17574 0.0
C3 C 0.30113 0.37047 0.21808 0.0
C4 C 0.38957 0.37234 0.16244 0.0
N5 N 0.3817 0.33781 0.17823 0.0
C6 C 0.42021 0.38644 0.13094 0.0
H7 H 0.28152 0.37601 0.19417 0.0
H8 H 0.30819 0.3947 0.2388 0.0
H9 H 0.28457 0.3457 0.23496 0.0
H10 H 0.4261 0.41703 0.12725 0.0
H11 H 0.40931 0.37216 0.10234 0.0
H12 H 0.44832 0.37957 0.13883 0.0
C13 C 0.40146 1.02874 0.56694 0.0
N14 N 0.37678 1.0413 0.59108 0.0
N15 N 0.43354 1.02449 0.58718 0.0
C16 C 0.39431 1.01958 0.52341 0.0
C17 C 0.42806 1.03602 0.62451 0.0
N18 N 0.39395 1.04672 0.62679 0.0
C19 C 0.45225 1.03085 0.66032 0.0
H20 H 0.4232 1.02535 0.50759 0.0
H21 H 0.37554 1.03608 0.50997 0.0
H22 H 0.37912 0.98945 0.51956 0.0
H23 H 0.47233 1.0131 0.6539 0.0
H24 H 0.43227 1.0182 0.68505 0.0
H25 H 0.47074 0.05856 0.67062 0.0
C26 C 0.62853 0.40418 0.87429 0.0
N27 N 0.65172 0.40123 0.90628 0.0
N28 N 0.64076 0.43847 0.85744 0.0
C29 C 0.59446 0.373 0.85872 0.0
C30 C 0.67274 0.45625 0.88016 0.0
N31 N 0.68024 0.43362 0.90937 0.0
C32 C 0.69577 0.49635 0.87409 0.0
H33 H 0.60203 0.34597 0.86036 0.0
H34 H 0.58642 0.37778 0.82771 0.0
H35 H 0.56788 0.37107 0.87746 0.0
H36 H 0.67639 0.51271 0.86175 0.0
H37 H 0.71996 0.49749 0.85241 0.0
H38 H 0.70892 0.50971 0.90242 0.0
C39 C 0.85656 0.73138 0.37252 0.0
N40 N 0.89232 0.75631 0.36397 0.0
N41 N 0.83794 0.74335 0.40333 0.0
C42 C 0.83948 0.6951 0.35028 0.0
C43 C 0.86333 0.77683 0.41317 0.0
N44 N 0.89647 0.78511 0.38977 0.0
C45 C 0.8542 0.80297 0.44393 0.0
H46 H 0.80723 0.6832 0.35541 0.0
H47 H 0.85452 0.67417 0.36062 0.0
H48 H 0.8447 0.69903 0.31789 0.0
H49 H 0.82189 0.79609 0.45051 0.0
H50 H 0.86423 0.83232 0.43386 0.0
H51 H 0.87048 0.80074 0.47181 0.0
C52 C 0.67632 0.84424 0.89398 0.0
N53 N 0.70413 0.83067 0.87601 0.0
N54 N 0.67825 0.8788 0.88047 0.0
C55 C 0.64847 0.82467 0.92574 0.0
C56 C 0.7086 0.88602 0.85422 0.0
N57 N 0.72433 0.85672 0.85149 0.0
C58 C 0.72624 0.92325 0.83511 0.0
H59 H 0.64192 0.79394 0.92221 0.0
H60 H 0.6203 0.8331 0.9249 0.0
H61 H 0.6628 0.83277 0.9552 0.0
H62 H 0.75879 0.93266 0.84117 0.0
H63 H 0.71227 0.9449 0.84585 0.0
H64 H 0.72209 0.92014 0.80243 0.0
C65 C 0.7502 0.23069 0.58183 0.0
N66 N 0.75635 0.20124 0.56142 0.0
N67 N 0.72153 0.24321 0.56373 0.0
C68 C 0.77291 0.24817 0.61829 0.0
C69 C 0.71061 0.22025 0.53182 0.0
N70 N 0.73168 0.19483 0.53048 0.0
C71 C 0.67963 0.22279 0.50145 0.0
H72 H 0.75344 0.24025 0.64459 0.0
H73 H 0.78106 0.27903 0.61603 0.0
H74 H 0.80017 0.23878 0.62285 0.0
H75 H 0.69426 0.24134 0.47707 0.0
H76 H 0.65653 0.23443 0.51491 0.0
H77 H 0.66521 0.19488 0.48839 0.0
C78 C 0.36046 0.74579 0.26717 0.0
N79 N 0.39693 0.76896 0.27735 0.0
N80 N 0.34424 0.75917 0.23577 0.0
C81 C 0.33876 0.71194 0.29029 0.0
C82 C 0.37185 0.7914 0.22718 0.0
N83 N 0.40329 0.79831 0.25286 0.0
C84 C 0.36951 0.81472 0.19121 0.0
H85 H 0.306 0.70658 0.28714 0.0
H86 H 0.34678 0.71539 0.32232 0.0
H87 H 0.34721 0.68722 0.27864 0.0
H88 H 0.35016 0.79779 0.16774 0.0
H89 H 0.39955 0.82695 0.1786 0.0
H90 H 0.35687 0.83789 0.2 0.0
C91 C 0.14369 0.41721 0.77458 0.0
N92 N 0.16886 0.41449 0.74447 0.0
N93 N 0.15356 0.45206 0.79163 0.0
C94 C 0.11146 0.38451 0.78947 0.0
C95 C 0.18655 0.4702 0.77058 0.0
N96 N 0.19644 0.44739 0.74256 0.0
C97 C 0.20638 0.51139 0.77423 0.0
H98 H 0.08387 0.38184 0.77177 0.0
H99 H 0.10513 0.3881 0.82132 0.0
H100 H 0.12022 0.35819 0.78576 0.0
H101 H 0.18494 0.52669 0.78431 0.0
H102 H 0.21907 0.52309 0.74543 0.0
H103 H 0.231 0.516 0.79633 0.0
Sm104 Sm 0.05997 0.12208 0.51856 0.0
Sm105 Sm 0.05265 0.07949 0.59042 0.0
C106 C 0.06857 0.16615 0.45623 0.0
C107 C 0.09177 0.16783 0.41966 0.0
C108 C 0.08327 0.18664 0.38632 0.0
C109 C 0.10867 0.19216 0.35349 0.0
C110 C 0.14299 0.17917 0.35391 0.0
C111 C 0.15029 0.15885 0.38663 0.0
C112 C 0.12482 0.15312 0.41914 0.0
C113 C 0.12171 0.08985 0.53088 0.0
C114 C 0.08731 0.17064 0.60035 0.0
C115 C 0.05439 1.04323 0.65714 0.0
C116 C 1.02479 1.01279 0.67657 0.0
C117 C 0.03669 0.98505 0.69718 0.0
C118 C 1.00828 0.95635 0.71593 0.0
C119 C 0.96756 0.95512 0.71435 0.0
C120 C 0.95594 0.98281 0.69307 0.0
C121 C 0.98415 1.0111 0.67414 0.0
C122 C 0.98088 0.09182 0.56742 0.0
C123 C 1.02271 1.03257 0.5082 0.0
O124 O 0.09015 0.17453 0.48856 0.0
O125 O 0.03778 0.13709 0.46038 0.0
O126 O 0.10756 0.10715 0.55633 0.0
O127 O 0.10295 0.08798 0.49755 0.0
O128 O 0.07278 0.1717 0.56418 0.0
O129 O 0.08743 0.13806 0.6157 0.0
O130 O 0.06916 1.03451 0.62385 0.0
O131 O 0.04545 0.07512 0.65558 0.0
O132 O 1.01419 0.11576 0.5669 0.0
O133 O 0.98464 0.06049 0.58058 0.0
O134 O 0.04169 1.03151 0.54225 0.0
O135 O 1.01877 0.06515 0.49605 0.0
H136 H 0.05794 0.19823 0.38627 0.0
H137 H 0.10262 0.20822 0.32871 0.0
H138 H 0.17639 0.14838 0.38754 0.0
H139 H 0.13197 0.13856 0.44461 0.0
H140 H 0.06792 0.98572 0.69896 0.0
H141 H 1.01819 0.93529 0.73176 0.0
H142 H 0.92507 0.98343 0.69192 0.0
H143 H 0.97415 1.03203 0.65813 0.0
Sm144 Sm 0.57845 0.10694 0.10497 0.0
Sm145 Sm 0.50791 0.08653 0.06593 0.0
C146 C 0.64287 0.13883 0.14823 0.0
C147 C 0.65978 0.13032 0.18582 0.0
C148 C 0.70034 0.14571 0.19417 0.0
C149 C 0.71597 0.14013 0.2312 0.0
C150 C 0.69113 0.11928 0.26058 0.0
C151 C 0.65079 0.10245 0.25122 0.0
C152 C 0.63531 0.10779 0.21409 0.0
C153 C 0.53873 1.03448 0.12857 0.0
C154 C 0.50408 0.13346 0.13787 0.0
C155 C 0.44066 0.05716 1.02577 0.0
C156 C 0.4244 0.05867 0.98546 0.0
C157 C 0.40412 1.02539 0.96615 0.0
C158 C 0.3888 1.02599 0.92778 0.0
C159 C 0.39323 0.05999 0.90793 0.0
C160 C 0.41327 0.09339 0.92761 0.0
C161 C 0.42883 0.09274 0.96592 0.0
C162 C 0.55306 0.15769 0.0408 0.0
C163 C 0.5795 0.06072 1.02635 0.0
O164 O 0.60937 0.14784 0.15086 0.0
O165 O 0.64302 0.11614 0.11865 0.0
O166 O 0.52191 0.06069 0.12481 0.0
O167 O 0.57581 1.04654 0.11948 0.0
O168 O 0.54165 0.14661 0.12784 0.0
O169 O 0.48624 0.0996 0.12604 0.0
O170 O 0.46901 1.0406 1.02926 0.0
O171 O 0.44691 0.08726 0.04771 0.0
O172 O 0.56608 0.12954 0.04569 0.0
O173 O 0.51546 0.14885 0.04883 0.0
O174 O 0.54103 1.05071 1.03252 0.0
O175 O 0.60268 0.08818 0.04726 0.0
H176 H 0.7197 0.1628 0.17241 0.0
H177 H 0.74728 0.15298 0.2372 0.0
H178 H 0.63062 0.08666 0.27318 0.0
H179 H 0.60392 0.09536 0.20793 0.0
H180 H 0.40048 0.99881 0.98064 0.0
H181 H 0.37433 0.99966 0.91334 0.0
H182 H 0.41693 0.1201 0.91344 0.0
H183 H 0.44443 0.11888 0.98013 0.0
Sm184 Sm 0.50732 0.56884 0.5387 0.0
Sm185 Sm 0.51739 0.62687 0.59392 0.0
C186 C 0.52075 0.51305 0.49699 0.0
C187 C 0.54111 0.48442 0.50815 0.0
C188 C 0.58078 0.48865 0.49662 0.0
C189 C 0.60201 0.46445 0.51064 0.0
C190 C 0.58397 0.43503 0.53618 0.0
C191 C 0.5439 0.43019 0.54688 0.0
C192 C 0.52274 0.45462 0.5331 0.0
C193 C 0.43645 0.5609 0.57948 0.0
C194 C 0.54451 0.55857 0.62827 0.0
C195 C 0.5099 0.68363 0.63806 0.0
C196 C 0.50847 0.72177 0.62847 0.0
C197 C 0.48257 0.72781 0.59877 0.0
C198 C 0.48293 0.76393 0.58806 0.0
C199 C 0.50877 0.79493 0.60722 0.0
C200 C 0.53465 0.78889 0.63707 0.0
C201 C 0.53453 0.75258 0.64753 0.0
C202 C 0.58541 0.63472 0.54745 0.0
C203 C 0.48381 0.64024 0.50282 0.0
O204 O 0.54356 0.54722 0.49535 0.0
O205 O 0.48648 0.51119 0.51368 0.0
O206 O 0.47096 0.56956 0.5958 0.0
O207 O 0.43968 0.55859 0.54113 0.0
O208 O 0.54399 0.55053 0.58985 0.0
O209 O 0.53043 0.58618 0.63994 0.0
O210 O 0.47957 0.65645 0.62607 0.0
O211 O 0.54409 0.67644 0.63232 0.0
O212 O 0.54969 0.62618 0.53559 0.0
O213 O 0.58646 0.63872 0.58585 0.0
O214 O 0.48793 0.65074 0.54076 0.0
O215 O 0.49167 0.60874 0.4922 0.0
H216 H 0.59583 0.51138 0.47754 0.0
H217 H 0.63291 0.46938 0.50209 0.0
H218 H 0.52874 0.40742 0.56582 0.0
H219 H 0.49221 0.45046 0.54259 0.0
H220 H 0.46213 0.70462 0.5835 0.0
H221 H 0.46302 0.76753 0.56455 0.0
H222 H 0.55449 0.81215 0.65282 0.0
H223 H 0.55483 0.74853 0.67046 0.0
Sm224 Sm 1.01325 0.57075 0.10314 0.0
Sm225 Sm 1.0088 0.62606 0.04859 0.0
C226 C 0.04149 0.5214 0.1412 0.0
C227 C 0.0812 0.51496 0.13791 0.0
C228 C 0.10434 0.52696 0.10398 0.0
C229 C 0.14249 0.52203 0.10079 0.0
C230 C 0.15835 0.50495 0.13149 0.0
C231 C 0.13531 0.49348 0.16577 0.0
C232 C 0.09703 0.4985 0.16895 0.0
C233 C 0.98006 0.62243 0.14134 0.0
C234 C 0.09035 0.64342 0.09673 0.0
C235 C 0.98724 0.67659 1.00555 0.0
C236 C 0.94963 0.6787 0.98696 0.0
C237 C 0.91336 0.66678 1.00745 0.0
C238 C 0.87828 0.67126 0.99073 0.0
C239 C 0.87875 0.68713 0.95301 0.0
C240 C 0.91468 0.6975 0.93178 0.0
C241 C 0.94992 0.69346 0.94875 0.0
C242 C 0.04714 0.57673 1.01414 0.0
C243 C 0.92927 0.55297 0.0566 0.0
O244 O 1.01888 0.51308 0.10955 0.0
O245 O 0.04102 0.55343 0.15682 0.0
O246 O 1.00853 0.63011 0.1165 0.0
O247 O 0.96873 0.58656 0.14675 0.0
O248 O 0.07924 0.60698 0.101 0.0
O249 O 0.06567 0.6599 0.07998 0.0
O250 O 0.98804 0.67695 0.04433 0.0
O251 O 1.00431 0.65264 0.99018 0.0
O252 O 1.01558 0.56794 1.03507 0.0
O253 O 0.06034 0.61287 1.0128 0.0
O254 O 0.94428 0.58683 0.04255 0.0
O255 O 0.95025 0.53858 0.08142 0.0
H256 H 0.09288 0.54017 0.07981 0.0
H257 H 0.15957 0.5316 0.07425 0.0
H258 H 0.14647 0.47983 0.18975 0.0
H259 H 0.07977 0.4894 0.1955 0.0
H260 H 0.91221 0.65474 1.03677 0.0
H261 H 0.85087 0.66285 1.00751 0.0
H262 H 0.91581 0.71012 0.90276 0.0
H263 H 0.97754 0.7026 0.93241 0.0
H264 H 0.34808 0.301 0.27262 0.0
H265 H 0.2901 0.29155 0.15793 0.0
H266 H 0.23508 0.23978 0.18204 0.0
H267 H 0.30919 0.19793 0.30279 0.0
H268 H 0.30224 0.21143 0.35325 0.0
H269 H 0.34236 0.23958 0.32401 0.0
H270 H 0.31643 0.29733 0.33782 0.0
H271 H 0.27605 0.26947 0.3665 0.0
H272 H 0.26571 0.29559 0.32485 0.0
H273 H 0.18057 0.20046 0.22142 0.0
H274 H 0.1309 0.1747 0.27333 0.0
H275 H 0.22261 0.21021 0.36386 0.0
C276 C 0.3248 0.28631 0.25232 0.0
C277 C 0.32393 0.29855 0.21301 0.0
C278 C 0.29198 0.28085 0.18747 0.0
C279 C 0.26055 0.25173 0.20107 0.0
C280 C 0.26136 0.24094 0.2405 0.0
C281 C 0.29284 0.25744 0.26579 0.0
C282 C 0.28332 0.24521 0.30826 0.0
C283 C 0.31092 0.22215 0.32293 0.0
C284 C 0.28548 0.2789 0.33595 0.0
C285 C 0.24089 0.22112 0.30318 0.0
C286 C 0.22906 0.21841 0.26377 0.0
C287 C 0.18975 0.2014 0.25227 0.0
C288 C 0.16169 0.18713 0.28186 0.0
C289 C 0.17317 0.19006 0.32236 0.0
C290 C 0.2134 0.2066 0.33296 0.0
H291 H 0.42591 0.10102 0.67921 0.0
H292 H 0.3245 1.00598 0.65812 0.0
H293 H 0.30511 1.00738 0.72864 0.0
H294 H 0.45491 0.06731 0.76139 0.0
H295 H 0.47335 0.11059 0.78851 0.0
H296 H 0.47183 0.11075 0.7352 0.0
H297 H 0.42875 0.15745 0.73627 0.0
H298 H 0.43073 0.15818 0.78985 0.0
H299 H 0.38324 0.14682 0.76446 0.0
H300 H 0.30537 1.01062 0.80306 0.0
H301 H 0.32444 1.01531 0.87402 0.0
H302 H 0.42999 0.10459 0.84694 0.0
C303 C 0.3985 0.08189 0.68929 0.0
C304 C 0.3761 1.05402 0.6634 0.0
C305 C 0.34121 1.02827 0.67736 0.0
C306 C 0.33024 1.02875 0.71744 0.0
C307 C 0.35463 1.05511 0.743 0.0
C308 C 0.38792 0.08149 0.72931 0.0
C309 C 0.41328 0.10219 0.76336 0.0
C310 C 0.45581 0.09739 0.76202 0.0
C311 C 0.41402 0.14362 0.76349 0.0
C312 C 0.39022 0.08215 0.79838 0.0
C313 C 0.35595 0.05577 0.78613 0.0
C314 C 0.33174 1.03165 0.813 0.0
C315 C 0.3431 1.03424 0.85322 0.0
C316 C 0.37879 0.06032 0.86622 0.0
C317 C 0.40206 0.08499 0.83832 0.0
H318 H 0.60314 0.49361 0.84526 0.0
H319 H 0.64968 0.41203 0.7841 0.0
H320 H 0.62981 0.43316 0.71934 0.0
H321 H 0.51802 0.48706 0.77961 0.0
H322 H 0.52192 0.5363 0.78159 0.0
H323 H 0.53892 0.51421 0.82301 0.0
H324 H 0.60851 0.56164 0.81881 0.0
H325 H 0.59172 0.58386 0.77737 0.0
H326 H 0.63527 0.56696 0.77253 0.0
H327 H 0.60486 0.46376 0.66051 0.0
H328 H 0.578 0.50105 0.61304 0.0
H329 H 0.54844 0.56475 0.71126 0.0
C330 C 0.60905 0.48026 0.81816 0.0
C331 C 0.62787 0.45088 0.8198 0.0
C332 C 0.6351 0.43423 0.78361 0.0
C333 C 0.62396 0.44619 0.74668 0.0
C334 C 0.60563 0.47522 0.74598 0.0
C335 C 0.59826 0.49212 0.78081 0.0
C336 C 0.57864 0.52312 0.77158 0.0
C337 C 0.5369 0.51466 0.79005 0.0
C338 C 0.60511 0.56115 0.78593 0.0
C339 C 0.57612 0.52107 0.72626 0.0
C340 C 0.59179 0.49313 0.71214 0.0
C341 C 0.59263 0.48571 0.67141 0.0
C342 C 0.57722 0.50721 0.6445 0.0
C343 C 0.56103 0.53624 0.65792 0.0
C344 C 0.56062 0.54302 0.69965 0.0
H345 H 0.9241 0.69739 0.35499 0.0
H346 H 0.9154 0.79786 0.2968 0.0
H347 H 0.94172 0.77718 0.23501 0.0
H348 H 1.00986 0.68034 0.30049 0.0
H349 H 0.98712 0.63076 0.29742 0.0
H350 H 0.97618 0.65738 0.33874 0.0
H351 H 0.90092 0.63251 0.32291 0.0
H352 H 0.91148 0.6063 0.28114 0.0
H353 H 0.88275 0.63935 0.2741 0.0
H354 H 0.96571 0.74144 0.17607 0.0
H355 H 0.98013 0.69551 0.12853 0.0
H356 H 0.9618 0.61366 0.22216 0.0
C357 C 0.92893 0.7157 0.32962 0.0
C358 C 0.91867 0.75026 0.33195 0.0
C359 C 0.92457 0.77244 0.29725 0.0
C360 C 0.93889 0.76033 0.26143 0.0
C361 C 0.94651 0.72522 0.2598 0.0
C362 C 0.94145 0.70318 0.29322 0.0
C363 C 0.94681 0.66478 0.28293 0.0
C364 C 0.98209 0.65791 0.30629 0.0
C365 C 0.9082 0.63392 0.29074 0.0
C366 C 0.95579 0.66838 0.23852 0.0
C367 C 0.95631 0.70374 0.22579 0.0
C368 C 0.96503 0.71375 0.18607 0.0
C369 C 0.97323 0.68733 0.15905 0.0
C370 C 0.97175 0.65051 0.17095 0.0
C371 C 0.96276 0.64124 0.21154 0.0
H372 H 0.45113 0.32358 0.20048 0.0
H373 H 0.34696 0.28473 0.12508 0.0
H374 H 0.36537 0.2264 0.11108 0.0
H375 H 0.51618 0.28614 0.1335 0.0
H376 H 0.5448 0.27506 0.17405 0.0
H377 H 0.52297 0.31351 0.17874 0.0
H378 H 0.48725 0.28425 0.24286 0.0
H379 H 0.50828 0.2453 0.23788 0.0
H380 H 0.45501 0.23731 0.24113 0.0
H381 H 0.38983 0.17029 0.11237 0.0
H382 H 0.42811 0.12412 0.11276 0.0
H383 H 0.52394 0.20175 0.17786 0.0
C384 C 0.43278 0.30286 0.18059 0.0
C385 C 0.39685 0.30758 0.16487 0.0
C386 C 0.37364 0.28058 0.13846 0.0
C387 C 0.38399 0.2476 0.13029 0.0
C388 C 0.41857 0.24282 0.14763 0.0
C389 C 0.44357 0.27018 0.1709 0.0
C390 C 0.48027 0.25841 0.18355 0.0
C391 C 0.51831 0.28485 0.16643 0.0
C392 C 0.48284 0.25619 0.22906 0.0
C393 C 0.47136 0.21988 0.16443 0.0
C394 C 0.43507 0.21138 0.14476 0.0
C395 C 0.41871 0.17683 0.12688 0.0
C396 C 0.44067 0.15062 0.12765 0.0
C397 C 0.47924 0.15934 0.14513 0.0
C398 C 0.49462 0.19437 0.16419 0.0
H399 H 0.34032 0.09562 0.60744 0.0
H400 H 0.32059 0.98462 0.55709 0.0
H401 H 0.25293 0.98503 0.536 0.0
H402 H 0.23791 0.07748 0.64669 0.0
H403 H 0.23552 0.1245 0.63794 0.0
H404 H 0.28275 0.11556 0.64873 0.0
H405 H 0.31161 0.14867 0.58364 0.0
H406 H 0.26442 0.15741 0.57248 0.0
H407 H 0.2868 0.13283 0.53702 0.0
H408 H 0.19081 1.00029 0.51394 0.0
H409 H 0.13289 1.02536 0.50185 0.0
H410 H 0.18825 0.12239 0.57463 0.0
C411 C 0.32149 0.07141 0.59227 0.0
C412 C 0.33613 1.04076 0.58222 0.0
C413 C 0.31055 1.00912 0.56314 0.0
C414 C 0.27195 1.00891 0.55151 0.0
C415 C 0.25882 1.04005 0.56053 0.0
C416 C 0.2823 0.0703 0.58144 0.0
C417 C 0.26017 0.09958 0.58845 0.0
C418 C 0.2537 0.10456 0.63311 0.0
C419 C 0.28206 0.13682 0.56924 0.0
C420 C 0.22118 0.08148 0.56716 0.0
C421 C 0.22126 1.04732 0.55089 0.0
C422 C 0.18993 1.02661 0.52722 0.0
C423 C 0.15739 1.04107 0.5203 0.0
C424 C 0.15625 0.07537 0.53774 0.0
C425 C 0.18834 0.0957 0.56163 0.0
H426 H 0.75838 0.46904 0.89386 0.0
H427 H 0.67869 0.42082 0.98954 0.0
H428 H 0.73443 0.44259 1.03781 0.0
H429 H 0.85063 0.45708 0.93269 0.0
H430 H 0.87993 0.50221 0.91654 0.0
H431 H 0.83544 0.47826 0.88954 0.0
H432 H 0.80759 0.53556 0.89849 0.0
H433 H 0.85197 0.5597 0.9255 0.0
H434 H 0.80371 0.55356 0.94777 0.0
H435 H 0.8014 0.47139 0.07609 0.0
H436 H 0.86832 0.50787 0.10012 0.0
H437 H 0.89947 0.54624 0.98034 0.0
C438 C 0.75234 0.46323 0.92498 0.0
C439 C 0.71365 0.44313 0.93762 0.0
C440 C 0.70789 0.43548 0.97872 0.0
C441 C 0.73946 0.44813 1.00647 0.0
C442 C 0.77672 0.46919 0.99299 0.0
C443 C 0.78294 0.47706 0.9531 0.0
C444 C 0.82435 0.50294 0.94622 0.0
C445 C 0.84904 0.48398 0.91968 0.0
C446 C 0.82174 0.54014 0.92845 0.0
C447 C 0.84083 0.50838 0.98839 0.0
C448 C 0.81331 0.4881 1.01497 0.0
C449 C 0.82279 0.48762 0.05541 0.0
C450 C 0.86095 0.50841 0.06887 0.0
C451 C 0.88903 0.5304 0.04233 0.0
C452 C 0.87849 0.53026 1.00156 0.0
H453 H 0.81548 0.72201 0.47967 0.0
H454 H 0.76912 0.72967 0.36143 0.0
H455 H 0.70054 0.70129 0.38528 0.0
H456 H 0.7457 0.63435 0.50737 0.0
H457 H 0.74037 0.64835 0.558 0.0
H458 H 0.78604 0.6683 0.5317 0.0
H459 H 0.77917 0.73462 0.54599 0.0
H460 H 0.73356 0.71488 0.57247 0.0
H461 H 0.73404 0.74602 0.53164 0.0
H462 H 0.63707 0.67044 0.42124 0.0
H463 H 0.58227 0.64406 0.46752 0.0
H464 H 0.66725 0.65889 0.56501 0.0
C465 C 0.79078 0.7175 0.45891 0.0
C466 C 0.79778 0.72709 0.41825 0.0
C467 C 0.76459 0.72157 0.39226 0.0
C468 C 0.72552 0.70561 0.40566 0.0
C469 C 0.71962 0.6958 0.44559 0.0
C470 C 0.75123 0.70191 0.47205 0.0
C471 C 0.73613 0.68987 0.51375 0.0
C472 C 0.75308 0.65834 0.52858 0.0
C473 C 0.74633 0.72334 0.54268 0.0
C474 C 0.69122 0.67586 0.50651 0.0
C475 C 0.68259 0.67935 0.46681 0.0
C476 C 0.64354 0.66783 0.4524 0.0
C477 C 0.61248 0.65272 0.47906 0.0
C478 C 0.62007 0.64938 0.52014 0.0
C479 C 0.66024 0.6611 0.5339 0.0
H480 H 0.34782 0.45035 0.21132 0.0
H481 H 0.34722 0.39512 0.09774 0.0
H482 H 0.30458 0.43146 0.06959 0.0
H483 H 0.25071 0.4369 0.21292 0.0
H484 H 0.2485 0.47961 0.23719 0.0
H485 H 0.29089 0.4619 0.245 0.0
H486 H 0.33849 0.52395 0.22109 0.0
H487 H 0.29625 0.54248 0.21406 0.0
H488 H 0.32994 0.5425 0.17356 0.0
H489 H 0.24931 0.45987 0.05861 0.0
H490 H 0.18739 0.47907 0.06498 0.0
H491 H 0.21781 0.5121 0.18761 0.0
C492 C 0.34024 0.44753 0.18002 0.0
C493 C 0.35129 0.42044 0.15653 0.0
C494 C 0.34021 0.41656 0.1159 0.0
C495 C 0.31556 0.43689 0.09979 0.0
C496 C 0.30206 0.46086 0.12475 0.0
C497 C 0.31437 0.46665 0.16402 0.0
C498 C 0.2895 0.48761 0.18665 0.0
C499 C 0.26868 0.46514 0.22251 0.0
C500 C 0.31508 0.52645 0.19959 0.0
C501 C 0.25972 0.49047 0.15474 0.0
C502 C 0.2683 0.47597 0.11895 0.0
C503 C 0.24293 0.47226 0.08614 0.0
C504 C 0.20775 0.48324 0.09007 0.0
C505 C 0.1978 0.49729 0.12675 0.0
C506 C 0.22463 0.50154 0.15919 0.0
H507 H 0.58525 0.36253 0.946 0.0
H508 H 0.7068 0.363 0.91996 0.0
H509 H 0.69598 0.30187 0.9535 0.0
H510 H 0.57811 0.31667 0.04317 0.0
H511 H 0.52708 0.29009 1.03522 0.0
H512 H 0.54569 0.33492 1.01214 0.0
H513 H 0.52396 0.30472 0.94317 0.0
H514 H 0.50545 0.25978 0.96597 0.0
H515 H 0.54177 0.26596 0.92684 0.0
H516 H 0.66951 0.23749 0.9868 0.0
H517 H 0.63161 0.17849 1.01792 0.0
H518 H 0.52645 0.2192 1.02125 0.0
C519 C 0.60969 0.34989 0.94769 0.0
C520 C 0.64707 0.36782 0.93035 0.0
C521 C 0.67823 0.35026 0.9334 0.0
C522 C 0.67214 0.31532 0.95221 0.0
C523 C 0.63462 0.29798 0.96806 0.0
C524 C 0.604 0.31494 0.96623 0.0
C525 C 0.56608 0.29006 0.98435 0.0
C526 C 0.55351 0.30907 1.02089 0.0
C527 C 0.53233 0.27951 0.95323 0.0
C528 C 0.5798 0.25617 0.9963 0.0
C529 C 0.6195 0.2613 0.98679 0.0
C530 C 0.63851 0.23348 0.99444 0.0
C531 C 0.61665 0.19988 1.01213 0.0
C532 C 0.57591 0.19383 1.02216 0.0
C533 C 0.5575 0.2227 1.01408 0.0
H534 H 0.94798 0.81108 0.45124 0.0
H535 H 0.90683 0.84322 0.33931 0.0
H536 H 0.93879 0.90945 0.35549 0.0
H537 H 0.92537 0.88144 0.50646 0.0
H538 H 0.967 0.88998 0.54054 0.0
H539 H 0.94851 0.84482 0.51723 0.0
H540 H 1.01844 0.84873 0.48922 0.0
H541 H 0.0375 0.8936 0.51315 0.0
H542 H 0.04391 0.88866 0.46044 0.0
H543 H 0.96733 0.97368 0.38848 0.0
H544 H 0.99346 1.02864 0.43192 0.0
H545 H 1.01499 0.95674 0.52526 0.0
C546 C 0.94791 0.83196 0.42908 0.0
C547 C 0.92686 0.82106 0.39245 0.0
C548 C 0.92501 0.84989 0.36588 0.0
C549 C 0.94232 0.88798 0.37552 0.0
C550 C 0.96133 0.89762 0.4124 0.0
C551 C 0.96465 0.87031 0.43865 0.0
C552 C 0.98327 0.88816 0.47788 0.0
C553 C 0.95432 0.87533 0.51257 0.0
C554 C 1.02315 0.87926 0.48563 0.0
C555 C 0.98965 0.92974 0.46986 0.0
C556 C 0.97673 0.93448 0.43183 0.0
C557 C 0.9779 0.97005 0.41807 0.0
C558 C 0.99279 1.00136 0.44328 0.0
C559 C 1.00675 0.99778 0.48242 0.0
C560 C 1.00505 0.96103 0.4956 0.0
H561 H 0.39872 0.95201 0.57632 0.0
H562 H 0.51328 1.03416 0.58143 0.0
H563 H 0.54714 0.98333 0.57971 0.0
H564 H 0.42049 0.89183 0.64129 0.0
H565 H 0.39236 0.8495 0.61691 0.0
H566 H 0.37807 0.89191 0.61047 0.0
H567 H 0.38345 0.88632 0.53395 0.0
H568 H 0.39711 0.84336 0.54003 0.0
H569 H 0.42897 0.88113 0.51251 0.0
H570 H 0.56691 0.9227 0.58725 0.0
H571 H 0.57124 0.85864 0.60063 0.0
H572 H 0.44236 0.81796 0.59223 0.0
C573 C 0.43095 0.95917 0.57514 0.0
C574 C 0.45367 0.99662 0.57804 0.0
C575 C 0.49574 1.00541 0.57835 0.0
C576 C 0.51499 0.97679 0.57751 0.0
C577 C 0.4915 0.93982 0.57604 0.0
C578 C 0.45033 0.9311 0.57433 0.0
C579 C 0.43145 0.88963 0.5772 0.0
C580 C 0.40401 0.8802 0.61363 0.0
C581 C 0.40892 0.87421 0.53862 0.0
C582 C 0.46827 0.87625 0.58222 0.0
C583 C 0.50272 0.90537 0.58101 0.0
C584 C 0.54014 0.89966 0.58762 0.0
C585 C 0.54227 0.86328 0.59559 0.0
C586 C 0.50715 0.83321 0.59719 0.0
C587 C 0.46986 0.84006 0.59018 0.0
H588 H 0.74532 0.86497 0.77446 0.0
H589 H 0.78982 0.85421 0.89261 0.0
H590 H 0.85819 0.86562 0.86646 0.0
H591 H 0.82056 0.82669 0.71793 0.0
H592 H 0.82376 0.86034 0.67903 0.0
H593 H 0.77757 0.84246 0.70528 0.0
H594 H 0.77666 0.91001 0.72329 0.0
H595 H 0.82272 0.92806 0.69739 0.0
H596 H 0.81892 0.9403 0.7489 0.0
H597 H 0.92176 0.89077 0.8307 0.0
H598 H 0.97546 0.92773 0.78854 0.0
H599 H 0.89049 0.9203 0.69203 0.0
C600 C 0.76949 0.8638 0.79427 0.0
C601 C 0.76269 0.85805 0.83518 0.0
C602 C 0.79467 0.8576 0.86095 0.0
C603 C 0.83347 0.86408 0.84634 0.0
C604 C 0.83959 0.87077 0.80585 0.0
C605 C 0.80839 0.8703 0.78006 0.0
C606 C 0.82345 0.88324 0.73909 0.0
C607 C 0.81057 0.85127 0.70853 0.0
C608 C 0.80964 0.91743 0.72647 0.0
C609 C 0.86797 0.89334 0.74655 0.0
C610 C 0.87671 0.88521 0.78497 0.0
C611 C 0.91546 0.89627 0.80017 0.0
C612 C 0.94587 0.91718 0.77589 0.0
C613 C 0.93728 0.92696 0.7369 0.0
C614 C 0.89806 0.91344 0.72173 0.0
H615 H 0.76631 0.22104 0.46241 0.0
H616 H 0.70147 0.12037 0.52116 0.0
H617 H 0.69598 0.08526 0.45735 0.0
H618 H 0.70618 0.20998 0.3832 0.0
H619 H 0.74367 0.22925 0.34667 0.0
H620 H 0.75217 0.2433 0.3978 0.0
H621 H 0.81766 0.22302 0.39821 0.0
H622 H 0.80952 0.20903 0.34672 0.0
H623 H 0.81669 0.17622 0.38318 0.0
H624 H 0.68687 0.06487 0.3858 0.0
H625 H 0.67286 0.06109 0.31363 0.0
H626 H 0.74078 0.17686 0.30199 0.0
C627 C 0.75261 0.19122 0.46178 0.0
C628 C 0.73508 0.17287 0.49619 0.0
C629 C 0.71587 0.1343 0.49491 0.0
C630 C 0.71268 0.11435 0.45888 0.0
C631 C 0.72899 0.13362 0.42477 0.0
C632 C 0.74885 0.17125 0.42608 0.0
C633 C 0.75794 0.18707 0.38489 0.0
C634 C 0.73883 0.21926 0.37774 0.0
C635 C 0.80314 0.19956 0.37784 0.0
C636 C 0.73817 0.15304 0.36003 0.0
C637 C 0.72258 0.12221 0.38342 0.0
C638 C 0.69961 0.08863 0.36716 0.0
C639 C 0.69152 0.08685 0.32618 0.0
C640 C 0.70579 0.11867 0.30204 0.0
C641 C 0.73037 0.15172 0.31925 0.0
H642 H 0.42292 0.70715 0.28792 0.0
H643 H 0.42307 0.8125 0.34285 0.0
H644 H 0.44779 0.79205 0.40588 0.0
H645 H 0.38461 0.65156 0.36931 0.0
H646 H 0.41334 0.61842 0.3625 0.0
H647 H 0.40173 0.6433 0.32048 0.0
H648 H 0.47666 0.66791 0.30396 0.0
H649 H 0.48858 0.64258 0.34552 0.0
H650 H 0.51111 0.69209 0.34178 0.0
H651 H 0.46573 0.75629 0.46568 0.0
H652 H 0.47977 0.71222 0.51406 0.0
H653 H 0.46613 0.62824 0.42118 0.0
C654 C 0.42956 0.72644 0.31286 0.0
C655 C 0.42169 0.76193 0.30999 0.0
C656 C 0.42979 0.78581 0.34374 0.0
C657 C 0.44335 0.77405 0.37988 0.0
C658 C 0.44887 0.73817 0.38214 0.0
C659 C 0.44274 0.71492 0.34919 0.0
C660 C 0.44843 0.67688 0.35981 0.0
C661 C 0.40973 0.6457 0.35259 0.0
C662 C 0.48327 0.66943 0.33638 0.0
C663 C 0.45834 0.68195 0.40407 0.0
C664 C 0.45848 0.71757 0.41632 0.0
C665 C 0.46583 0.72852 0.45605 0.0
C666 C 0.47351 0.70292 0.48364 0.0
C667 C 0.47385 0.66618 0.47219 0.0
C668 C 0.46615 0.65586 0.43144 0.0
H669 H 0.18368 0.50032 0.85521 0.0
H670 H 0.07301 0.43944 0.79821 0.0
H671 H 0.03508 0.46068 0.85078 0.0
H672 H 0.15135 0.48963 0.95781 0.0
H673 H 0.17676 0.53673 0.97268 0.0
H674 H 0.196 0.5146 0.93247 0.0
H675 H 0.19374 0.56887 0.88589 0.0
H676 H 0.1749 0.59134 0.92607 0.0
H677 H 0.14767 0.58145 0.87977 0.0
H678 H 1.00809 0.48664 0.91226 0.0
H679 H 0.99463 0.52273 0.97014 0.0
H680 H 0.12128 0.5753 0.98329 0.0
C681 C 0.15148 0.49159 0.85349 0.0
C682 C 0.13171 0.46684 0.82245 0.0
C683 C 0.08934 0.45676 0.82201 0.0
C684 C 0.06733 0.4691 0.8518 0.0
C685 C 0.08761 0.49281 0.88202 0.0
C686 C 0.1288 0.50474 0.88259 0.0
C687 C 0.14297 0.53248 0.91701 0.0
C688 C 0.16828 0.51746 0.94675 0.0
C689 C 0.1662 0.57082 0.90124 0.0
C690 C 0.10345 0.53414 0.93566 0.0
C691 C 0.07194 0.51032 0.91542 0.0
C692 C 0.03265 0.50566 0.92791 0.0
C693 C 1.02522 0.5262 0.96116 0.0
C694 C 0.05664 0.55214 0.9816 0.0
C695 C 0.09641 0.55592 0.96841 0.0
H696 H 0.69266 0.91454 0.95111 0.0
H697 H 0.62176 0.90286 0.8436 0.0
H698 H 0.59192 0.95245 0.8675 0.0
H699 H 0.61903 0.93155 1.0184 0.0
H700 H 0.65485 0.96526 0.04811 0.0
H701 H 0.66971 0.9287 1.02237 0.0
H702 H 0.72613 0.97845 0.98784 0.0
H703 H 0.71098 1.0152 1.01299 0.0
H704 H 0.71391 1.01475 0.95951 0.0
H705 H 0.56845 1.00083 0.9041 0.0
H706 H 0.55118 1.04469 0.95179 0.0
H707 H 0.6406 1.02827 1.03422 0.0
C708 C 0.67045 0.92234 0.93311 0.0
C709 C 0.65867 0.90498 0.89598 0.0
C710 C 0.63034 0.91589 0.87238 0.0
C711 C 0.61364 0.94403 0.88559 0.0
C712 C 0.62619 0.9611 0.92222 0.0
C713 C 0.65389 0.95069 0.94572 0.0
C714 C 0.66214 0.97349 0.98386 0.0
C715 C 0.65074 0.94824 1.02033 0.0
C716 C 0.70589 0.99686 0.98616 0.0
C717 C 0.63433 0.99803 0.97841 0.0
C718 C 0.61393 0.99038 0.94259 0.0
C719 C 0.58462 1.00751 0.93192 0.0
C720 C 0.57514 1.03241 0.95904 0.0
C721 C 0.5953 1.04029 0.99598 0.0
C722 C 0.62581 1.02353 1.0055 0.0
H723 H 0.83602 0.22497 0.55034 0.0
H724 H 0.74019 0.13111 0.58745 0.0
H725 H 0.78741 0.0921 0.59237 0.0
H726 H 0.88576 0.17341 0.4899 0.0
H727 H 0.93548 0.20054 0.50297 0.0
H728 H 0.89478 0.22168 0.50453 0.0
H729 H 0.91103 0.2408 0.57824 0.0
H730 H 0.95216 0.2202 0.57678 0.0
H731 H 0.914 0.20574 0.61384 0.0
H732 H 0.84408 0.06294 0.58999 0.0
H733 H 0.90768 1.04608 0.58503 0.0
H734 H 0.96758 0.15927 0.54992 0.0
C735 C 0.82552 0.19644 0.56038 0.0
C736 C 0.78494 0.1808 0.56921 0.0
C737 C 0.77145 0.14326 0.58116 0.0
C738 C 0.79795 0.12105 0.58383 0.0
C739 C 0.83782 0.13701 0.57436 0.0
C740 C 0.85171 0.17394 0.56324 0.0
C741 C 0.89584 0.1839 0.55388 0.0
C742 C 0.90339 0.19557 0.51023 0.0
C743 C 0.91966 0.21447 0.58239 0.0
C744 C 0.90453 0.14682 0.56143 0.0
C745 C 0.87058 0.12014 0.57302 0.0
C746 C 0.87094 0.08363 0.58118 0.0
C747 C 0.90714 0.07429 0.57813 0.0
C748 C 0.94249 0.10139 0.56721 0.0
C749 C 0.94099 0.13801 0.55838 0.0
H750 H 0.30587 0.68937 0.20627 0.0
H751 H 0.29203 0.80002 0.22764 0.0
H752 H 0.22743 0.78255 0.19226 0.0
H753 H 0.26112 0.67402 0.10945 0.0
H754 H 0.23473 0.62574 0.11682 0.0
H755 H 0.28021 0.64624 0.14396 0.0
H756 H 0.24365 0.62684 0.21042 0.0
H757 H 0.19824 0.60588 0.18334 0.0
H758 H 0.19908 0.64072 0.22111 0.0
H759 H 0.16757 0.75563 0.15075 0.0
H760 H 0.10941 0.71763 0.11385 0.0
H761 H 0.15633 0.62126 0.12299 0.0
C762 C 0.28883 0.70959 0.20387 0.0
C763 C 0.30436 0.74642 0.219 0.0
C764 C 0.28115 0.77208 0.21546 0.0
C765 C 0.24439 0.76235 0.1955 0.0
C766 C 0.23046 0.72641 0.17984 0.0
C767 C 0.25132 0.70001 0.18451 0.0
C768 C 0.22837 0.663 0.16553 0.0
C769 C 0.25256 0.65159 0.13194 0.0
C770 C 0.21663 0.63229 0.19698 0.0
C771 C 0.19184 0.67309 0.14915 0.0
C772 C 0.19419 0.71001 0.15744 0.0
C773 C 0.16512 0.72656 0.14444 0.0
C774 C 0.13224 0.70471 0.12316 0.0
C775 C 0.12806 0.66638 0.11538 0.0
C776 C 0.15855 0.65045 0.12846 0.0
H777 H 0.27604 0.48185 0.75603 0.0
H778 H 0.18946 0.43916 0.66252 0.0
H779 H 0.24139 0.46326 0.61205 0.0
H780 H 0.32781 0.5666 0.7076 0.0
H781 H 0.37684 0.56638 0.72462 0.0
H782 H 0.33369 0.54431 0.75371 0.0
H783 H 0.35368 0.48237 0.75217 0.0
H784 H 0.39706 0.50431 0.7233 0.0
H785 H 0.36192 0.46241 0.70503 0.0
H786 H 0.30128 0.49582 0.57151 0.0
H787 H 0.36569 0.52907 0.54297 0.0
H788 H 0.41722 0.55069 0.66141 0.0
C789 C 0.26821 0.47728 0.72488 0.0
C790 C 0.22838 0.45825 0.71331 0.0
C791 C 0.21955 0.45295 0.67223 0.0
C792 C 0.24893 0.46692 0.64333 0.0
C793 C 0.28751 0.48612 0.65565 0.0
C794 C 0.29746 0.49094 0.69546 0.0
C795 C 0.34134 0.51282 0.70042 0.0
C796 C 0.34514 0.54972 0.72293 0.0
C797 C 0.3649 0.48906 0.72148 0.0
C798 C 0.35444 0.51988 0.65719 0.0
C799 C 0.3226 0.5043 0.63206 0.0
C800 C 0.3264 0.50772 0.59099 0.0
C801 C 0.36345 0.52692 0.575 0.0
C802 C 0.39725 0.54263 0.59956 0.0
C803 C 0.39235 0.53906 0.64153 0.0
H804 H 0.72725 0.80942 0.94634 0.0
H805 H 0.70789 0.77815 0.82245 0.0
H806 H 0.74197 0.72855 0.83173 0.0
H807 H 0.82162 0.80565 0.94999 0.0
H808 H 0.82165 0.78768 0.99958 0.0
H809 H 0.7869 0.81347 0.98643 0.0
H810 H 0.72766 0.75833 1.00746 0.0
H811 H 0.76227 0.73239 1.02154 0.0
H812 H 0.72261 0.71249 0.98667 0.0
H813 H 0.78974 0.69274 0.85075 0.0
H814 H 0.84499 0.67092 0.87908 0.0
H815 H 0.83325 0.72517 0.99105 0.0
C816 C 0.72821 0.79054 0.92197 0.0
C817 C 0.71425 0.79656 0.88398 0.0
C818 C 0.71782 0.77304 0.85188 0.0
C819 C 0.73713 0.74498 0.85693 0.0
C820 C 0.75242 0.74078 0.89441 0.0
C821 C 0.74769 0.76259 0.92659 0.0
C822 C 0.77185 0.75639 0.96207 0.0
C823 C 0.8023 0.79295 0.97525 0.0
C824 C 0.74445 0.73884 0.99647 0.0
C825 C 0.79227 0.72905 0.94433 0.0
C826 C 0.78031 0.71999 0.90544 0.0
C827 C 0.79852 0.69871 0.88152 0.0
C828 C 0.82998 0.68666 0.89768 0.0
C829 C 0.84276 0.69594 0.93732 0.0
C830 C 0.82313 0.71676 0.96103 0.0
H831 H 0.39794 0.86903 0.26122 0.0
H832 H 0.48031 0.80431 0.23399 0.0
H833 H 0.52568 0.85986 0.2027 0.0
H834 H 0.40443 0.91108 0.17059 0.0
H835 H 0.40019 0.95594 0.18732 0.0
H836 H 0.37884 0.91496 0.2162 0.0
H837 H 0.41951 0.9452 0.27805 0.0
H838 H 0.44021 0.9869 0.24987 0.0
H839 H 0.47282 0.96383 0.27442 0.0
H840 H 0.55649 0.91928 0.16482 0.0
H841 H 0.57428 0.97866 0.12912 0.0
H842 H 0.46986 1.0059 0.17631 0.0
C843 C 0.42673 0.8673 0.25079 0.0
C844 C 0.43604 0.8323 0.25124 0.0
C845 C 0.47308 0.83077 0.23543 0.0
C846 C 0.49863 0.86218 0.21685 0.0
C847 C 0.48687 0.89522 0.21411 0.0
C848 C 0.452 0.89819 0.23126 0.0
C849 C 0.444 0.93536 0.22044 0.0
C850 C 0.40452 0.92893 0.19727 0.0
C851 C 0.44415 0.95924 0.25793 0.0
C852 C 0.47954 0.95282 0.19401 0.0
C853 C 0.50391 0.9291 0.1911 0.0
C854 C 0.53782 0.9381 0.1675 0.0
C855 C 0.5476 0.97215 0.14709 0.0
C856 C 0.52381 0.99761 0.14968 0.0
C857 C 0.48889 0.98741 0.17345 0.0
H858 H 0.11016 0.37842 0.69217 0.0
H859 H 0.22157 0.37281 0.74514 0.0
H860 H 0.21319 0.31035 0.714 0.0
H861 H 0.0569 0.28292 0.70161 0.0
H862 H 0.03166 0.27882 0.65422 0.0
H863 H 0.04703 0.32338 0.67936 0.0
H864 H 0.08688 0.35269 0.61751 0.0
H865 H 0.07131 0.30828 0.59201 0.0
H866 H 0.12363 0.33198 0.59697 0.0
H867 H 0.18826 0.24469 0.68249 0.0
H868 H 0.15499 0.18648 0.646 0.0
H869 H 0.06248 0.23601 0.607 0.0
C870 C 0.13316 0.36428 0.69643 0.0
C871 C 0.16689 0.3808 0.72092 0.0
C872 C 0.19597 0.36112 0.72617 0.0
C873 C 0.19117 0.32542 0.70877 0.0
C874 C 0.1573 0.30961 0.6854 0.0
C875 C 0.12922 0.32886 0.67842 0.0
C876 C 0.09582 0.30578 0.65163 0.0
C877 C 0.05546 0.29723 0.67298 0.0
C878 C 0.09433 0.32588 0.61218 0.0
C879 C 0.109 0.27028 0.6451 0.0
C880 C 0.1443 0.27292 0.66538 0.0
C881 C 0.16103 0.24281 0.66602 0.0
C882 C 0.14173 0.2096 0.64527 0.0
C883 C 0.10623 0.20638 0.62308 0.0
C884 C 0.08987 0.23751 0.62304 0.0
H885 H 0.72483 0.30042 0.51475 0.0
H886 H 0.68695 0.25803 0.63153 0.0
H887 H 0.65283 0.30801 0.64094 0.0
H888 H 0.73557 0.40127 0.535 0.0
H889 H 0.71543 0.40726 0.48685 0.0
H890 H 0.74313 0.3733 0.4933 0.0
H891 H 0.68338 0.32184 0.46461 0.0
H892 H 0.65533 0.35541 0.45848 0.0
H893 H 0.6351 0.31407 0.48732 0.0
H894 H 0.61608 0.35803 0.63332 0.0
H895 H 0.58063 0.4032 0.61029 0.0
H896 H 0.63873 0.40813 0.49578 0.0
C897 C 0.71019 0.30243 0.54267 0.0
C898 C 0.70849 0.27581 0.57257 0.0
C899 C 0.68895 0.27873 0.60867 0.0
C900 C 0.66941 0.30683 0.61406 0.0
C901 C 0.66996 0.33166 0.58301 0.0
C902 C 0.69015 0.32977 0.54811 0.0
C903 C 0.6827 0.35662 0.51748 0.0
C904 C 0.72152 0.38638 0.50759 0.0
C905 C 0.66295 0.33573 0.47977 0.0
C906 C 0.6543 0.37335 0.54011 0.0
C907 C 0.64774 0.35914 0.57806 0.0
C908 C 0.62125 0.36949 0.60375 0.0
C909 C 0.60092 0.39488 0.59022 0.0
C910 C 0.60674 0.40929 0.55112 0.0
C911 C 0.63407 0.39836 0.52606 0.0
loop_
_geom_bond_atom_site_label_1
_geom_bond_atom_site_label_2
_geom_bond_distance
_geom_bond_site_symmetry_2
_ccdc_geom_bond_type
C0 N1 1.317 . S
C0 N2 1.348 . S
C0 C3 1.485 . S
N1 C0 1.317 . S
N1 N5 1.370 . S
N2 C0 1.348 . S
N2 C4 1.346 . S
C3 C0 1.485 . S
C3 H7 0.960 . S
C3 H8 0.961 . S
C3 H9 0.960 . S
C4 N2 1.346 . S
C4 N5 1.307 . S
C4 C6 1.486 . S
N5 N1 1.370 . S
N5 C4 1.307 . S
C6 C4 1.486 . S
C6 H10 0.960 . S
C6 H11 0.960 . S
C6 H12 0.959 . S
H7 C3 0.960 . S
H8 C3 0.961 . S
H9 C3 0.960 . S
H10 C6 0.960 . S
H11 C6 0.960 . S
H12 C6 0.959 . S
C13 N14 1.317 . S
C13 N15 1.348 . S
C13 C16 1.485 . S
N14 C13 1.317 . S
N14 N18 1.370 . S
N15 C13 1.348 . S
N15 C17 1.346 . S
C16 C13 1.485 . S
C16 H20 0.960 . S
C16 H21 0.961 . S
C16 H22 0.960 . S
C17 N15 1.346 . S
C17 N18 1.307 . S
C17 C19 1.486 . S
N18 N14 1.370 . S
N18 C17 1.307 . S
C19 C17 1.486 . S
C19 H23 0.960 . S
C19 H24 0.960 . S
C19 H25 0.959 . S
H20 C16 0.960 . S
H21 C16 0.961 . S
H22 C16 0.960 . S
H23 C19 0.960 . S
H24 C19 0.960 . S
H25 C19 0.959 . S
C26 N27 1.317 . S
C26 N28 1.348 . S
C26 C29 1.485 . S
N27 C26 1.317 . S
N27 N31 1.370 . S
N28 C26 1.348 . S
N28 C30 1.346 . S
C29 C26 1.485 . S
C29 H33 0.960 . S
C29 H34 0.961 . S
C29 H35 0.960 . S
C30 N28 1.346 . S
C30 N31 1.307 . S
C30 C32 1.486 . S
N31 N27 1.370 . S
N31 C30 1.307 . S
C32 C30 1.486 . S
C32 H36 0.960 . S
C32 H37 0.960 . S
C32 H38 0.959 . S
H33 C29 0.960 . S
H34 C29 0.961 . S
H35 C29 0.960 . S
H36 C32 0.960 . S
H37 C32 0.960 . S
H38 C32 0.959 . S
C39 N40 1.317 . S
C39 N41 1.348 . S
C39 C42 1.485 . S
N40 C39 1.317 . S
N40 N44 1.370 . S
N41 C39 1.348 . S
N41 C43 1.346 . S
C42 C39 1.485 . S
C42 H46 0.960 . S
C42 H47 0.961 . S
C42 H48 0.960 . S
C43 N41 1.346 . S
C43 N44 1.307 . S
C43 C45 1.486 . S
N44 N40 1.370 . S
N44 C43 1.307 . S
C45 C43 1.486 . S
C45 H49 0.960 . S
C45 H50 0.960 . S
C45 H51 0.959 . S
H46 C42 0.960 . S
H47 C42 0.961 . S
H48 C42 0.960 . S
H49 C45 0.960 . S
H50 C45 0.960 . S
H51 C45 0.959 . S
C52 N53 1.317 . S
C52 N54 1.348 . S
C52 C55 1.485 . S
N53 C52 1.317 . S
N53 N57 1.370 . S
N54 C52 1.348 . S
N54 C56 1.346 . S
C55 C52 1.485 . S
C55 H59 0.960 . S
C55 H60 0.961 . S
C55 H61 0.960 . S
C56 N54 1.346 . S
C56 N57 1.307 . S
C56 C58 1.486 . S
N57 N53 1.370 . S
N57 C56 1.307 . S
C58 C56 1.486 . S
C58 H62 0.960 . S
C58 H63 0.960 . S
C58 H64 0.959 . S
H59 C55 0.960 . S
H60 C55 0.961 . S
H61 C55 0.960 . S
H62 C58 0.960 . S
H63 C58 0.960 . S
H64 C58 0.959 . S
C65 N66 1.317 . S
C65 N67 1.348 . S
C65 C68 1.485 . S
N66 C65 1.317 . S
N66 N70 1.370 . S
N67 C65 1.348 . S
N67 C69 1.346 . S
C68 C65 1.485 . S
C68 H72 0.960 . S
C68 H73 0.961 . S
C68 H74 0.960 . S
C69 N67 1.346 . S
C69 N70 1.307 . S
C69 C71 1.486 . S
N70 N66 1.370 . S
N70 C69 1.307 . S
C71 C69 1.486 . S
C71 H75 0.960 . S
C71 H76 0.960 . S
C71 H77 0.959 . S
H72 C68 0.960 . S
H73 C68 0.961 . S
H74 C68 0.960 . S
H75 C71 0.960 . S
H76 C71 0.960 . S
H77 C71 0.959 . S
C78 N79 1.317 . S
C78 N80 1.348 . S
C78 C81 1.485 . S
N79 C78 1.317 . S
N79 N83 1.370 . S
N80 C78 1.348 . S
N80 C82 1.346 . S
C81 C78 1.485 . S
C81 H85 0.960 . S
C81 H86 0.961 . S
C81 H87 0.960 . S
C82 N80 1.346 . S
C82 N83 1.307 . S
C82 C84 1.486 . S
N83 N79 1.370 . S
N83 C82 1.307 . S
C84 C82 1.486 . S
C84 H88 0.960 . S
C84 H89 0.960 . S
C84 H90 0.959 . S
H85 C81 0.960 . S
H86 C81 0.961 . S
H87 C81 0.960 . S
H88 C84 0.960 . S
H89 C84 0.960 . S
H90 C84 0.959 . S
C91 N92 1.317 . S
C91 N93 1.348 . S
C91 C94 1.485 . S
N92 C91 1.317 . S
N92 N96 1.370 . S
N93 C91 1.348 . S
N93 C95 1.346 . S
C94 C91 1.485 . S
C94 H98 0.960 . S
C94 H99 0.961 . S
C94 H100 0.960 . S
C95 N93 1.346 . S
C95 N96 1.307 . S
C95 C97 1.486 . S
N96 N92 1.370 . S
N96 C95 1.307 . S
C97 C95 1.486 . S
C97 H101 0.960 . S
C97 H102 0.960 . S
C97 H103 0.959 . S
H98 C94 0.960 . S
H99 C94 0.961 . S
H100 C94 0.960 . S
H101 C97 0.960 . S
H102 C97 0.960 . S
H103 C97 0.959 . S
Sm104 C106 2.846 . S
Sm104 O124 2.543 . S
Sm104 O125 2.450 . S
Sm104 O126 2.681 . S
Sm104 O127 2.464 . S
Sm104 O128 2.396 . S
Sm104 O132 2.386 . S
Sm104 O135 2.408 1_545 S
Sm105 C115 2.846 1_445 S
Sm105 O126 2.386 . S
Sm105 O129 2.408 . S
Sm105 O130 2.543 1_445 S
Sm105 O131 2.450 1_445 S
Sm105 O132 2.681 . S
Sm105 O133 2.464 1_455 S
Sm105 O134 2.396 1_445 S
C106 Sm104 2.846 . S
C106 C107 1.506 . S
C106 O124 1.261 . S
C106 O125 1.242 . S
C107 C106 1.506 . S
C107 C108 1.358 . S
C107 C112 1.382 . S
C108 C107 1.358 . S
C108 C109 1.385 . S
C108 H136 0.930 . S
C109 C108 1.385 . S
C109 C110 1.395 . S
C109 H137 0.929 . S
C110 C109 1.395 . S
C110 C111 1.335 . S
C111 C110 1.335 . S
C111 C112 1.398 . S
C111 H138 0.930 . S
C112 C107 1.382 . S
C112 C111 1.398 . S
C112 H139 0.929 . S
C113 O126 1.263 1_565 S
C113 O127 1.247 1_565 S
C114 O128 1.252 . S
C114 O129 1.272 . S
C115 Sm105 2.846 1_665 S
C115 C116 1.506 . S
C115 O130 1.261 . S
C115 O131 1.242 . S
C116 C115 1.506 . S
C116 C117 1.358 . S
C116 C121 1.382 . S
C117 C116 1.358 . S
C117 C118 1.385 . S
C117 H140 0.930 . S
C118 C117 1.385 . S
C118 C119 1.395 . S
C118 H141 0.929 . S
C119 C118 1.395 . S
C119 C120 1.335 . S
C120 C119 1.335 . S
C120 C121 1.398 . S
C120 H142 0.930 . S
C121 C116 1.382 . S
C121 C120 1.398 . S
C121 H143 0.929 . S
C122 O132 1.271 1_655 S
C122 O133 1.251 . S
C123 O134 1.252 . S
C123 O135 1.272 1_655 S
O124 Sm104 2.543 . S
O124 C106 1.261 . S
O125 Sm104 2.450 . S
O125 C106 1.242 . S
O126 Sm104 2.681 . S
O126 Sm105 2.386 . S
O126 C113 1.263 1_545 S
O127 Sm104 2.464 . S
O127 C113 1.247 1_545 S
O128 Sm104 2.396 . S
O128 C114 1.252 . S
O129 Sm105 2.408 . S
O129 C114 1.272 . S
O130 Sm105 2.543 1_665 S
O130 C115 1.261 . S
O131 Sm105 2.450 1_665 S
O131 C115 1.242 . S
O132 Sm104 2.386 . S
O132 Sm105 2.681 . S
O132 C122 1.271 1_455 S
O133 Sm105 2.464 1_655 S
O133 C122 1.251 . S
O134 Sm105 2.396 1_665 S
O134 C123 1.252 . S
O135 Sm104 2.408 1_565 S
O135 C123 1.272 1_455 S
H136 C108 0.930 . S
H137 C109 0.929 . S
H138 C111 0.930 . S
H139 C112 0.929 . S
H140 C117 0.930 . S
H141 C118 0.929 . S
H142 C120 0.930 . S
H143 C121 0.929 . S
Sm144 C146 2.846 . S
Sm144 O164 2.543 . S
Sm144 O165 2.450 . S
Sm144 O166 2.681 . S
Sm144 O167 2.464 1_545 S
Sm144 O168 2.396 . S
Sm144 O172 2.386 . S
Sm144 O175 2.408 . S
Sm145 C155 2.846 1_554 S
Sm145 O166 2.386 . S
Sm145 O169 2.408 . S
Sm145 O170 2.543 1_544 S
Sm145 O171 2.450 1_554 S
Sm145 O172 2.681 . S
Sm145 O173 2.464 1_554 S
Sm145 O174 2.396 1_554 S
C146 Sm144 2.846 . S
C146 C147 1.506 . S
C146 O164 1.261 . S
C146 O165 1.242 . S
C147 C146 1.506 . S
C147 C148 1.358 . S
C147 C152 1.382 . S
C148 C147 1.358 . S
C148 C149 1.385 . S
C148 H176 0.930 . S
C149 C148 1.385 . S
C149 C150 1.395 . S
C149 H177 0.929 . S
C150 C149 1.395 . S
C150 C151 1.335 . S
C151 C150 1.335 . S
C151 C152 1.398 . S
C151 H178 0.930 . S
C152 C147 1.382 . S
C152 C151 1.398 . S
C152 H179 0.929 . S
C153 O166 1.271 1_565 S
C153 O167 1.251 . S
C154 O168 1.252 . S
C154 O169 1.272 . S
C155 Sm145 2.846 1_556 S
C155 C156 1.506 1_545 S
C155 O170 1.261 1_545 S
C155 O171 1.242 . S
C156 C155 1.506 1_565 S
C156 C157 1.358 . S
C156 C161 1.382 1_565 S
C157 C156 1.358 . S
C157 C158 1.385 . S
C157 H180 0.930 . S
C158 C157 1.385 . S
C158 C159 1.395 . S
C158 H181 0.929 . S
C159 C158 1.395 . S
C159 C160 1.335 . S
C160 C159 1.335 . S
C160 C161 1.398 1_565 S
C160 H182 0.930 . S
C161 C156 1.382 1_545 S
C161 C160 1.398 1_545 S
C161 H183 0.929 . S
C162 O172 1.271 . S
C162 O173 1.251 1_554 S
C163 O174 1.252 1_554 S
C163 O175 1.272 . S
O164 Sm144 2.543 . S
O164 C146 1.261 . S
O165 Sm144 2.450 . S
O165 C146 1.242 . S
O166 Sm144 2.681 . S
O166 Sm145 2.386 . S
O166 C153 1.271 1_545 S
O167 Sm144 2.464 1_565 S
O167 C153 1.251 . S
O168 Sm144 2.396 . S
O168 C154 1.252 . S
O169 Sm145 2.408 . S
O169 C154 1.272 . S
O170 Sm145 2.543 1_566 S
O170 C155 1.261 1_565 S
O171 Sm145 2.450 1_556 S
O171 C155 1.242 . S
O172 Sm144 2.386 . S
O172 Sm145 2.681 . S
O172 C162 1.271 . S
O173 Sm145 2.464 1_556 S
O173 C162 1.251 1_556 S
O174 Sm145 2.396 1_556 S
O174 C163 1.252 1_556 S
O175 Sm144 2.408 . S
O175 C163 1.272 . S
H176 C148 0.930 . S
H177 C149 0.929 . S
H178 C151 0.930 . S
H179 C152 0.929 . S
H180 C157 0.930 . S
H181 C158 0.929 . S
H182 C160 0.930 . S
H183 C161 0.929 . S
Sm184 C186 2.846 . S
Sm184 O204 2.543 . S
Sm184 O205 2.450 . S
Sm184 O206 2.681 . S
Sm184 O207 2.464 . S
Sm184 O208 2.396 . S
Sm184 O212 2.386 . S
Sm184 O215 2.408 . S
Sm185 C195 2.846 . S
Sm185 O206 2.386 . S
Sm185 O209 2.408 . S
Sm185 O210 2.543 . S
Sm185 O211 2.450 . S
Sm185 O212 2.681 . S
Sm185 O213 2.464 . S
Sm185 O214 2.396 . S
C186 Sm184 2.846 . S
C186 C187 1.506 . S
C186 O204 1.261 . S
C186 O205 1.242 . S
C187 C186 1.506 . S
C187 C188 1.358 . S
C187 C192 1.382 . S
C188 C187 1.358 . S
C188 C189 1.385 . S
C188 H216 0.930 . S
C189 C188 1.385 . S
C189 C190 1.395 . S
C189 H217 0.929 . S
C190 C189 1.395 . S
C190 C191 1.335 . S
C191 C190 1.335 . S
C191 C192 1.398 . S
C191 H218 0.930 . S
C192 C187 1.382 . S
C192 C191 1.398 . S
C192 H219 0.929 . S
C193 O206 1.271 . S
C193 O207 1.251 . S
C194 O208 1.252 . S
C194 O209 1.272 . S
C195 Sm185 2.846 . S
C195 C196 1.506 . S
C195 O210 1.261 . S
C195 O211 1.242 . S
C196 C195 1.506 . S
C196 C197 1.358 . S
C196 C201 1.382 . S
C197 C196 1.358 . S
C197 C198 1.385 . S
C197 H220 0.930 . S
C198 C197 1.385 . S
C198 C199 1.395 . S
C198 H221 0.929 . S
C199 C198 1.395 . S
C199 C200 1.335 . S
C200 C199 1.335 . S
C200 C201 1.398 . S
C200 H222 0.930 . S
C201 C196 1.382 . S
C201 C200 1.398 . S
C201 H223 0.929 . S
C202 O212 1.271 . S
C202 O213 1.251 . S
C203 O214 1.252 . S
C203 O215 1.272 . S
O204 Sm184 2.543 . S
O204 C186 1.261 . S
O205 Sm184 2.450 . S
O205 C186 1.242 . S
O206 Sm184 2.681 . S
O206 Sm185 2.386 . S
O206 C193 1.271 . S
O207 Sm184 2.464 . S
O207 C193 1.251 . S
O208 Sm184 2.396 . S
O208 C194 1.252 . S
O209 Sm185 2.408 . S
O209 C194 1.272 . S
O210 Sm185 2.543 . S
O210 C195 1.261 . S
O211 Sm185 2.450 . S
O211 C195 1.242 . S
O212 Sm184 2.386 . S
O212 Sm185 2.681 . S
O212 C202 1.271 . S
O213 Sm185 2.464 . S
O213 C202 1.251 . S
O214 Sm185 2.396 . S
O214 C203 1.252 . S
O215 Sm184 2.408 . S
O215 C203 1.272 . S
H216 C188 0.930 . S
H217 C189 0.929 . S
H218 C191 0.930 . S
H219 C192 0.929 . S
H220 C197 0.930 . S
H221 C198 0.929 . S
H222 C200 0.930 . S
H223 C201 0.929 . S
Sm224 C226 2.846 . S
Sm224 O244 2.543 . S
Sm224 O245 2.450 . S
Sm224 O246 2.681 1_455 S
Sm224 O247 2.464 1_455 S
Sm224 O248 2.396 . S
Sm224 O252 2.386 1_554 S
Sm224 O255 2.408 1_455 S
Sm225 C235 2.831 1_455 S
Sm225 O246 2.382 1_456 S
Sm225 O249 2.423 1_556 S
Sm225 O250 2.525 1_455 S
Sm225 O251 2.440 1_455 S
Sm225 O252 2.692 . S
Sm225 O253 2.473 . S
Sm225 O254 2.386 1_455 S
C226 Sm224 2.846 . S
C226 C227 1.506 . S
C226 O244 1.261 . S
C226 O245 1.242 . S
C227 C226 1.506 . S
C227 C228 1.358 . S
C227 C232 1.382 . S
C228 C227 1.358 . S
C228 C229 1.385 . S
C228 H256 0.930 . S
C229 C228 1.385 . S
C229 C230 1.395 . S
C229 H257 0.929 . S
C230 C229 1.395 . S
C230 C231 1.335 . S
C231 C230 1.335 . S
C231 C232 1.398 . S
C231 H258 0.930 . S
C232 C227 1.382 . S
C232 C231 1.398 . S
C232 H259 0.929 . S
C233 O246 1.271 . S
C233 O247 1.251 . S
C234 O248 1.252 . S
C234 O249 1.272 . S
C235 Sm225 2.831 1_655 S
C235 C236 1.506 . S
C235 O250 1.261 . S
C235 O251 1.242 . S
C236 C235 1.506 . S
C236 C237 1.358 . S
C236 C241 1.382 . S
C237 C236 1.358 . S
C237 C238 1.385 . S
C237 H260 0.930 . S
C238 C237 1.385 . S
C238 C239 1.395 . S
C238 H261 0.929 . S
C239 C238 1.395 . S
C239 C240 1.335 . S
C240 C239 1.335 . S
C240 C241 1.398 . S
C240 H262 0.930 . S
C241 C236 1.382 . S
C241 C240 1.398 . S
C241 H263 0.929 . S
C242 O252 1.271 . S
C242 O253 1.251 . S
C243 O254 1.252 . S
C243 O255 1.272 1_556 S
O244 Sm224 2.543 . S
O244 C226 1.261 . S
O245 Sm224 2.450 . S
O245 C226 1.242 . S
O246 Sm224 2.681 1_655 S
O246 Sm225 2.382 1_654 S
O246 C233 1.271 . S
O247 Sm224 2.464 1_655 S
O247 C233 1.251 . S
O248 Sm224 2.396 . S
O248 C234 1.252 . S
O249 Sm225 2.423 1_554 S
O249 C234 1.272 . S
O250 Sm225 2.525 1_655 S
O250 C235 1.261 . S
O251 Sm225 2.440 1_655 S
O251 C235 1.242 . S
O252 Sm224 2.386 1_556 S
O252 Sm225 2.692 . S
O252 C242 1.271 . S
O253 Sm225 2.473 . S
O253 C242 1.251 . S
O254 Sm225 2.386 1_655 S
O254 C243 1.252 . S
O255 Sm224 2.408 1_655 S
O255 C243 1.272 1_554 S
H256 C228 0.930 . S
H257 C229 0.929 . S
H258 C231 0.930 . S
H259 C232 0.929 . S
H260 C237 0.930 . S
H261 C238 0.929 . S
H262 C240 0.930 . S
H263 C241 0.929 . S
H264 C276 0.930 . S
H265 C278 0.930 . S
H266 C279 0.930 . S
H267 C283 0.959 . S
H268 C283 0.959 . S
H269 C283 0.961 . S
H270 C284 0.960 . S
H271 C284 0.961 . S
H272 C284 0.959 . S
H273 C287 0.929 . S
H274 C288 0.931 . S
H275 C290 0.930 . S
C276 H264 0.930 . S
C276 C277 1.399 . S
C276 C281 1.399 . S
C277 C276 1.399 . S
C277 C278 1.376 . S
C278 H265 0.930 . S
C278 C277 1.376 . S
C278 C279 1.388 . S
C279 H266 0.930 . S
C279 C278 1.388 . S
C279 C280 1.390 . S
C280 C279 1.390 . S
C280 C281 1.394 . S
C280 C286 1.465 . S
C281 C276 1.399 . S
C281 C280 1.394 . S
C281 C282 1.516 . S
C282 C281 1.516 . S
C282 C283 1.502 . S
C282 C284 1.561 . S
C282 C285 1.526 . S
C283 H267 0.959 . S
C283 H268 0.959 . S
C283 H269 0.961 . S
C283 C282 1.502 . S
C284 H270 0.960 . S
C284 H271 0.961 . S
C284 H272 0.959 . S
C284 C282 1.561 . S
C285 C282 1.526 . S
C285 C286 1.396 . S
C285 C290 1.390 . S
C286 C280 1.465 . S
C286 C285 1.396 . S
C286 C287 1.399 . S
C287 H273 0.929 . S
C287 C286 1.399 . S
C287 C288 1.385 . S
C288 H274 0.931 . S
C288 C287 1.385 . S
C288 C289 1.389 . S
C289 C288 1.389 . S
C289 C290 1.387 . S
C290 H275 0.930 . S
C290 C285 1.390 . S
C290 C289 1.387 . S
H291 C303 0.930 . S
H292 C305 0.930 . S
H293 C306 0.930 . S
H294 C310 0.959 . S
H295 C310 0.959 . S
H296 C310 0.961 . S
H297 C311 0.959 1_545 S
H298 C311 0.961 1_545 S
H299 C311 0.959 . S
H300 C314 0.929 . S
H301 C315 0.931 . S
H302 C317 0.930 . S
C303 H291 0.930 . S
C303 C304 1.399 . S
C303 C308 1.399 . S
C304 C303 1.399 . S
C304 C305 1.376 . S
C305 H292 0.930 . S
C305 C304 1.376 . S
C305 C306 1.388 . S
C306 H293 0.930 . S
C306 C305 1.388 . S
C306 C307 1.390 . S
C307 C306 1.390 . S
C307 C308 1.394 . S
C307 C313 1.465 . S
C308 C303 1.399 . S
C308 C307 1.394 . S
C308 C309 1.516 . S
C309 C308 1.516 . S
C309 C310 1.502 . S
C309 C311 1.561 . S
C309 C312 1.526 . S
C310 H294 0.959 . S
C310 H295 0.959 . S
C310 H296 0.961 . S
C310 C309 1.502 . S
C311 H297 0.959 1_565 S
C311 H298 0.961 1_565 S
C311 H299 0.959 . S
C311 C309 1.561 . S
C312 C309 1.526 . S
C312 C313 1.396 . S
C312 C317 1.390 . S
C313 C307 1.465 . S
C313 C312 1.396 . S
C313 C314 1.399 . S
C314 H300 0.929 . S
C314 C313 1.399 . S
C314 C315 1.385 . S
C315 H301 0.931 . S
C315 C314 1.385 . S
C315 C316 1.389 . S
C316 C315 1.389 . S
C316 C317 1.387 . S
C317 H302 0.930 . S
C317 C312 1.390 . S
C317 C316 1.387 . S
H318 C330 0.930 . S
H319 C332 0.930 . S
H320 C333 0.930 . S
H321 C337 0.959 . S
H322 C337 0.959 . S
H323 C337 0.961 . S
H324 C338 0.960 . S
H325 C338 0.961 . S
H326 C338 0.959 . S
H327 C341 0.929 . S
H328 C342 0.931 . S
H329 C344 0.930 . S
C330 H318 0.930 . S
C330 C331 1.399 . S
C330 C335 1.399 . S
C331 C330 1.399 . S
C331 C332 1.376 . S
C332 H319 0.930 . S
C332 C331 1.376 . S
C332 C333 1.388 . S
C333 H320 0.930 . S
C333 C332 1.388 . S
C333 C334 1.390 . S
C334 C333 1.390 . S
C334 C335 1.394 . S
C334 C340 1.465 . S
C335 C330 1.399 . S
C335 C334 1.394 . S
C335 C336 1.516 . S
C336 C335 1.516 . S
C336 C337 1.502 . S
C336 C338 1.561 . S
C336 C339 1.526 . S
C337 H321 0.959 . S
C337 H322 0.959 . S
C337 H323 0.961 . S
C337 C336 1.502 . S
C338 H324 0.960 . S
C338 H325 0.961 . S
C338 H326 0.959 . S
C338 C336 1.561 . S
C339 C336 1.526 . S
C339 C340 1.396 . S
C339 C344 1.390 . S
C340 C334 1.465 . S
C340 C339 1.396 . S
C340 C341 1.399 . S
C341 H327 0.929 . S
C341 C340 1.399 . S
C341 C342 1.385 . S
C342 H328 0.931 . S
C342 C341 1.385 . S
C342 C343 1.389 . S
C343 C342 1.389 . S
C343 C344 1.387 . S
C344 H329 0.930 . S
C344 C339 1.390 . S
C344 C343 1.387 . S
H345 C357 0.930 . S
H346 C359 0.930 . S
H347 C360 0.930 . S
H348 C364 0.959 . S
H349 C364 0.959 . S
H350 C364 0.961 . S
H351 C365 0.960 . S
H352 C365 0.961 . S
H353 C365 0.959 . S
H354 C368 0.929 . S
H355 C369 0.931 . S
H356 C371 0.930 . S
C357 H345 0.930 . S
C357 C358 1.399 . S
C357 C362 1.399 . S
C358 C357 1.399 . S
C358 C359 1.376 . S
C359 H346 0.930 . S
C359 C358 1.376 . S
C359 C360 1.388 . S
C360 H347 0.930 . S
C360 C359 1.388 . S
C360 C361 1.390 . S
C361 C360 1.390 . S
C361 C362 1.394 . S
C361 C367 1.465 . S
C362 C357 1.399 . S
C362 C361 1.394 . S
C362 C363 1.516 . S
C363 C362 1.516 . S
C363 C364 1.502 . S
C363 C365 1.561 . S
C363 C366 1.526 . S
C364 H348 0.959 . S
C364 H349 0.959 . S
C364 H350 0.961 . S
C364 C363 1.502 . S
C365 H351 0.960 . S
C365 H352 0.961 . S
C365 H353 0.959 . S
C365 C363 1.561 . S
C366 C363 1.526 . S
C366 C367 1.396 . S
C366 C371 1.390 . S
C367 C361 1.465 . S
C367 C366 1.396 . S
C367 C368 1.399 . S
C368 H354 0.929 . S
C368 C367 1.399 . S
C368 C369 1.385 . S
C369 H355 0.931 . S
C369 C368 1.385 . S
C369 C370 1.389 . S
C370 C369 1.389 . S
C370 C371 1.387 . S
C371 H356 0.930 . S
C371 C366 1.390 . S
C371 C370 1.387 . S
H372 C384 0.930 . S
H373 C386 0.930 . S
H374 C387 0.930 . S
H375 C391 0.959 . S
H376 C391 0.959 . S
H377 C391 0.961 . S
H378 C392 0.960 . S
H379 C392 0.961 . S
H380 C392 0.959 . S
H381 C395 0.929 . S
H382 C396 0.931 . S
H383 C398 0.930 . S
C384 H372 0.930 . S
C384 C385 1.399 . S
C384 C389 1.399 . S
C385 C384 1.399 . S
C385 C386 1.376 . S
C386 H373 0.930 . S
C386 C385 1.376 . S
C386 C387 1.388 . S
C387 H374 0.930 . S
C387 C386 1.388 . S
C387 C388 1.390 . S
C388 C387 1.390 . S
C388 C389 1.394 . S
C388 C394 1.465 . S
C389 C384 1.399 . S
C389 C388 1.394 . S
C389 C390 1.516 . S
C390 C389 1.516 . S
C390 C391 1.502 . S
C390 C392 1.561 . S
C390 C393 1.526 . S
C391 H375 0.959 . S
C391 H376 0.959 . S
C391 H377 0.961 . S
C391 C390 1.502 . S
C392 H378 0.960 . S
C392 H379 0.961 . S
C392 H380 0.959 . S
C392 C390 1.561 . S
C393 C390 1.526 . S
C393 C394 1.396 . S
C393 C398 1.390 . S
C394 C388 1.465 . S
C394 C393 1.396 . S
C394 C395 1.399 . S
C395 H381 0.929 . S
C395 C394 1.399 . S
C395 C396 1.385 . S
C396 H382 0.931 . S
C396 C395 1.385 . S
C396 C397 1.389 . S
C397 C396 1.389 . S
C397 C398 1.387 . S
C398 H383 0.930 . S
C398 C393 1.390 . S
C398 C397 1.387 . S
H399 C411 0.930 . S
H400 C413 0.930 . S
H401 C414 0.930 . S
H402 C418 0.959 1_545 S
H403 C418 0.959 1_545 S
H404 C418 0.961 . S
H405 C419 0.960 . S
H406 C419 0.961 . S
H407 C419 0.959 . S
H408 C422 0.929 . S
H409 C423 0.931 . S
H410 C425 0.924 1_545 S
C411 H399 0.930 . S
C411 C412 1.399 . S
C411 C416 1.399 . S
C412 C411 1.399 . S
C412 C413 1.376 . S
C413 H400 0.930 . S
C413 C412 1.376 . S
C413 C414 1.388 . S
C414 H401 0.930 . S
C414 C413 1.388 . S
C414 C415 1.390 . S
C415 C414 1.390 . S
C415 C416 1.394 . S
C415 C421 1.465 . S
C416 C411 1.399 . S
C416 C415 1.394 . S
C416 C417 1.516 . S
C417 C416 1.516 . S
C417 C418 1.502 . S
C417 C419 1.561 . S
C417 C420 1.526 . S
C418 H402 0.959 1_565 S
C418 H403 0.959 1_565 S
C418 H404 0.961 . S
C418 C417 1.502 . S
C419 H405 0.960 . S
C419 H406 0.961 . S
C419 H407 0.959 . S
C419 C417 1.561 . S
C420 C417 1.526 . S
C420 C421 1.396 . S
C420 C425 1.390 . S
C421 C415 1.465 . S
C421 C420 1.396 . S
C421 C422 1.399 . S
C422 H408 0.929 . S
C422 C421 1.399 . S
C422 C423 1.385 . S
C423 H409 0.931 . S
C423 C422 1.385 . S
C423 C424 1.389 . S
C424 C423 1.389 . S
C424 C425 1.387 . S
C425 H410 0.924 1_565 S
C425 C420 1.390 . S
C425 C424 1.387 . S
H426 C438 0.930 . S
H427 C440 0.930 . S
H428 C441 0.930 . S
H429 C445 0.959 . S
H430 C445 0.959 . S
H431 C445 0.961 . S
H432 C446 0.960 . S
H433 C446 0.961 . S
H434 C446 0.959 . S
H435 C449 0.929 1_554 S
H436 C450 0.931 1_554 S
H437 C452 0.930 . S
C438 H426 0.930 . S
C438 C439 1.399 . S
C438 C443 1.399 . S
C439 C438 1.399 . S
C439 C440 1.376 . S
C440 H427 0.930 . S
C440 C439 1.376 . S
C440 C441 1.388 . S
C441 H428 0.930 . S
C441 C440 1.388 . S
C441 C442 1.390 . S
C442 C441 1.390 . S
C442 C443 1.394 . S
C442 C448 1.465 . S
C443 C438 1.399 . S
C443 C442 1.394 . S
C443 C444 1.516 . S
C444 C443 1.516 . S
C444 C445 1.502 . S
C444 C446 1.561 . S
C444 C447 1.526 . S
C445 H429 0.959 . S
C445 H430 0.959 . S
C445 H431 0.961 . S
C445 C444 1.502 . S
C446 H432 0.960 . S
C446 H433 0.961 . S
C446 H434 0.959 . S
C446 C444 1.561 . S
C447 C444 1.526 . S
C447 C448 1.396 . S
C447 C452 1.390 . S
C448 C442 1.465 . S
C448 C447 1.396 . S
C448 C449 1.399 . S
C449 H435 0.929 1_556 S
C449 C448 1.399 . S
C449 C450 1.385 . S
C450 H436 0.931 1_556 S
C450 C449 1.385 . S
C450 C451 1.389 . S
C451 C450 1.389 . S
C451 C452 1.387 . S
C452 H437 0.930 . S
C452 C447 1.390 . S
C452 C451 1.387 . S
H453 C465 0.930 . S
H454 C467 0.930 . S
H455 C468 0.930 . S
H456 C472 0.959 . S
H457 C472 0.959 . S
H458 C472 0.961 . S
H459 C473 0.960 . S
H460 C473 0.961 . S
H461 C473 0.959 . S
H462 C476 0.929 . S
H463 C477 0.931 . S
H464 C479 0.930 . S
C465 H453 0.930 . S
C465 C466 1.399 . S
C465 C470 1.399 . S
C466 C465 1.399 . S
C466 C467 1.376 . S
C467 H454 0.930 . S
C467 C466 1.376 . S
C467 C468 1.388 . S
C468 H455 0.930 . S
C468 C467 1.388 . S
C468 C469 1.390 . S
C469 C468 1.390 . S
C469 C470 1.394 . S
C469 C475 1.465 . S
C470 C465 1.399 . S
C470 C469 1.394 . S
C470 C471 1.516 . S
C471 C470 1.516 . S
C471 C472 1.502 . S
C471 C473 1.561 . S
C471 C474 1.526 . S
C472 H456 0.959 . S
C472 H457 0.959 . S
C472 H458 0.961 . S
C472 C471 1.502 . S
C473 H459 0.960 . S
C473 H460 0.961 . S
C473 H461 0.959 . S
C473 C471 1.561 . S
C474 C471 1.526 . S
C474 C475 1.396 . S
C474 C479 1.390 . S
C475 C469 1.465 . S
C475 C474 1.396 . S
C475 C476 1.399 . S
C476 H462 0.929 . S
C476 C475 1.399 . S
C476 C477 1.385 . S
C477 H463 0.931 . S
C477 C476 1.385 . S
C477 C478 1.389 . S
C478 C477 1.389 . S
C478 C479 1.387 . S
C479 H464 0.930 . S
C479 C474 1.390 . S
C479 C478 1.387 . S
H480 C492 0.930 . S
H481 C494 0.930 . S
H482 C495 0.930 . S
H483 C499 0.959 . S
H484 C499 0.959 . S
H485 C499 0.961 . S
H486 C500 0.960 . S
H487 C500 0.961 . S
H488 C500 0.959 . S
H489 C503 0.929 . S
H490 C504 0.931 . S
H491 C506 0.930 . S
C492 H480 0.930 . S
C492 C493 1.399 . S
C492 C497 1.399 . S
C493 C492 1.399 . S
C493 C494 1.376 . S
C494 H481 0.930 . S
C494 C493 1.376 . S
C494 C495 1.388 . S
C495 H482 0.930 . S
C495 C494 1.388 . S
C495 C496 1.390 . S
C496 C495 1.390 . S
C496 C497 1.394 . S
C496 C502 1.465 . S
C497 C492 1.399 . S
C497 C496 1.394 . S
C497 C498 1.516 . S
C498 C497 1.516 . S
C498 C499 1.502 . S
C498 C500 1.561 . S
C498 C501 1.526 . S
C499 H483 0.959 . S
C499 H484 0.959 . S
C499 H485 0.961 . S
C499 C498 1.502 . S
C500 H486 0.960 . S
C500 H487 0.961 . S
C500 H488 0.959 . S
C500 C498 1.561 . S
C501 C498 1.526 . S
C501 C502 1.396 . S
C501 C506 1.390 . S
C502 C496 1.465 . S
C502 C501 1.396 . S
C502 C503 1.399 . S
C503 H489 0.929 . S
C503 C502 1.399 . S
C503 C504 1.385 . S
C504 H490 0.931 . S
C504 C503 1.385 . S
C504 C505 1.389 . S
C505 C504 1.389 . S
C505 C506 1.387 . S
C506 H491 0.930 . S
C506 C501 1.390 . S
C506 C505 1.387 . S
H507 C519 0.930 . S
H508 C521 0.930 . S
H509 C522 0.930 . S
H510 C526 0.959 . S
H511 C526 0.959 1_554 S
H512 C526 0.962 . S
H513 C527 0.962 . S
H514 C527 0.986 . S
H515 C527 0.948 1_556 S
H516 C530 0.929 . S
H517 C531 0.931 . S
H518 C533 0.930 1_554 S
C519 H507 0.930 . S
C519 C520 1.399 . S
C519 C524 1.399 . S
C520 C519 1.399 . S
C520 C521 1.376 . S
C521 H508 0.930 . S
C521 C520 1.376 . S
C521 C522 1.388 . S
C522 H509 0.930 . S
C522 C521 1.388 . S
C522 C523 1.390 . S
C523 C522 1.390 . S
C523 C524 1.394 . S
C523 C529 1.465 . S
C524 C519 1.399 . S
C524 C523 1.394 . S
C524 C525 1.516 . S
C525 C524 1.516 . S
C525 C526 1.502 . S
C525 C527 1.546 1_556 S
C525 C528 1.526 . S
C526 H510 0.959 . S
C526 H511 0.959 1_556 S
C526 H512 0.962 . S
C526 C525 1.502 . S
C527 H513 0.962 . S
C527 H514 0.986 . S
C527 H515 0.948 1_554 S
C527 C525 1.546 1_554 S
C528 C525 1.526 . S
C528 C529 1.396 . S
C528 C533 1.390 . S
C529 C523 1.465 . S
C529 C528 1.396 . S
C529 C530 1.399 . S
C530 H516 0.929 . S
C530 C529 1.399 . S
C530 C531 1.385 . S
C531 H517 0.931 . S
C531 C530 1.385 . S
C531 C532 1.389 . S
C532 C531 1.389 . S
C532 C533 1.387 . S
C533 H518 0.930 1_556 S
C533 C528 1.390 . S
C533 C532 1.387 . S
H534 C546 0.930 . S
H535 C548 0.930 . S
H536 C549 0.930 . S
H537 C553 0.959 . S
H538 C553 0.959 . S
H539 C553 0.961 . S
H540 C554 0.955 1_455 S
H541 C554 0.948 1_455 S
H542 C554 0.960 1_455 S
H543 C557 0.929 . S
H544 C558 0.931 . S
H545 C560 0.930 . S
C546 H534 0.930 . S
C546 C547 1.399 . S
C546 C551 1.399 . S
C547 C546 1.399 . S
C547 C548 1.376 . S
C548 H535 0.930 . S
C548 C547 1.376 . S
C548 C549 1.388 . S
C549 H536 0.930 . S
C549 C548 1.388 . S
C549 C550 1.390 . S
C550 C549 1.390 . S
C550 C551 1.394 . S
C550 C556 1.465 . S
C551 C546 1.399 . S
C551 C550 1.394 . S
C551 C552 1.516 . S
C552 C551 1.516 . S
C552 C553 1.502 . S
C552 C554 1.579 . S
C552 C555 1.526 . S
C553 H537 0.959 . S
C553 H538 0.959 . S
C553 H539 0.961 . S
C553 C552 1.502 . S
C554 H540 0.955 1_655 S
C554 H541 0.948 1_655 S
C554 H542 0.960 1_655 S
C554 C552 1.579 . S
C555 C552 1.526 . S
C555 C556 1.396 . S
C555 C560 1.390 . S
C556 C550 1.465 . S
C556 C555 1.396 . S
C556 C557 1.399 . S
C557 H543 0.929 . S
C557 C556 1.399 . S
C557 C558 1.385 . S
C558 H544 0.931 . S
C558 C557 1.385 . S
C558 C559 1.389 . S
C559 C558 1.389 . S
C559 C560 1.387 . S
C560 H545 0.930 . S
C560 C555 1.390 . S
C560 C559 1.387 . S
H561 C573 0.930 . S
H562 C575 0.930 . S
H563 C576 0.930 . S
H564 C580 0.959 . S
H565 C580 0.959 . S
H566 C580 0.961 . S
H567 C581 0.960 . S
H568 C581 0.961 . S
H569 C581 0.959 . S
H570 C584 0.929 . S
H571 C585 0.931 . S
H572 C587 0.930 . S
C573 H561 0.930 . S
C573 C574 1.399 . S
C573 C578 1.399 . S
C574 C573 1.399 . S
C574 C575 1.376 . S
C575 H562 0.930 . S
C575 C574 1.376 . S
C575 C576 1.388 . S
C576 H563 0.930 . S
C576 C575 1.388 . S
C576 C577 1.390 . S
C577 C576 1.390 . S
C577 C578 1.394 . S
C577 C583 1.465 . S
C578 C573 1.399 . S
C578 C577 1.394 . S
C578 C579 1.516 . S
C579 C578 1.516 . S
C579 C580 1.502 . S
C579 C581 1.561 . S
C579 C582 1.526 . S
C580 H564 0.959 . S
C580 H565 0.959 . S
C580 H566 0.961 . S
C580 C579 1.502 . S
C581 H567 0.960 . S
C581 H568 0.961 . S
C581 H569 0.959 . S
C581 C579 1.561 . S
C582 C579 1.526 . S
C582 C583 1.396 . S
C582 C587 1.390 . S
C583 C577 1.465 . S
C583 C582 1.396 . S
C583 C584 1.399 . S
C584 H570 0.929 . S
C584 C583 1.399 . S
C584 C585 1.385 . S
C585 H571 0.931 . S
C585 C584 1.385 . S
C585 C586 1.389 . S
C586 C585 1.389 . S
C586 C587 1.387 . S
C587 H572 0.930 . S
C587 C582 1.390 . S
C587 C586 1.387 . S
H588 C600 0.930 . S
H589 C602 0.930 . S
H590 C603 0.930 . S
H591 C607 0.959 . S
H592 C607 0.959 . S
H593 C607 0.961 . S
H594 C608 0.960 . S
H595 C608 0.961 . S
H596 C608 0.959 . S
H597 C611 0.929 . S
H598 C612 0.931 . S
H599 C614 0.930 . S
C600 H588 0.930 . S
C600 C601 1.399 . S
C600 C605 1.399 . S
C601 C600 1.399 . S
C601 C602 1.376 . S
C602 H589 0.930 . S
C602 C601 1.376 . S
C602 C603 1.388 . S
C603 H590 0.930 . S
C603 C602 1.388 . S
C603 C604 1.390 . S
C604 C603 1.390 . S
C604 C605 1.394 . S
C604 C610 1.465 . S
C605 C600 1.399 . S
C605 C604 1.394 . S
C605 C606 1.516 . S
C606 C605 1.516 . S
C606 C607 1.502 . S
C606 C608 1.561 . S
C606 C609 1.526 . S
C607 H591 0.959 . S
C607 H592 0.959 . S
C607 H593 0.961 . S
C607 C606 1.502 . S
C608 H594 0.960 . S
C608 H595 0.961 . S
C608 H596 0.959 . S
C608 C606 1.561 . S
C609 C606 1.526 . S
C609 C610 1.396 . S
C609 C614 1.390 . S
C610 C604 1.465 . S
C610 C609 1.396 . S
C610 C611 1.399 . S
C611 H597 0.929 . S
C611 C610 1.399 . S
C611 C612 1.385 . S
C612 H598 0.931 . S
C612 C611 1.385 . S
C612 C613 1.389 . S
C613 C612 1.389 . S
C613 C614 1.387 . S
C614 H599 0.930 . S
C614 C609 1.390 . S
C614 C613 1.387 . S
H615 C627 0.930 . S
H616 C629 0.930 . S
H617 C630 0.930 . S
H618 C634 0.959 . S
H619 C634 0.959 . S
H620 C634 0.961 . S
H621 C635 0.960 . S
H622 C635 0.961 . S
H623 C635 0.959 . S
H624 C638 0.929 . S
H625 C639 0.931 . S
H626 C641 0.930 . S
C627 H615 0.930 . S
C627 C628 1.399 . S
C627 C632 1.399 . S
C628 C627 1.399 . S
C628 C629 1.376 . S
C629 H616 0.930 . S
C629 C628 1.376 . S
C629 C630 1.388 . S
C630 H617 0.930 . S
C630 C629 1.388 . S
C630 C631 1.390 . S
C631 C630 1.390 . S
C631 C632 1.394 . S
C631 C637 1.465 . S
C632 C627 1.399 . S
C632 C631 1.394 . S
C632 C633 1.516 . S
C633 C632 1.516 . S
C633 C634 1.502 . S
C633 C635 1.561 . S
C633 C636 1.526 . S
C634 H618 0.959 . S
C634 H619 0.959 . S
C634 H620 0.961 . S
C634 C633 1.502 . S
C635 H621 0.960 . S
C635 H622 0.961 . S
C635 H623 0.959 . S
C635 C633 1.561 . S
C636 C633 1.526 . S
C636 C637 1.396 . S
C636 C641 1.390 . S
C637 C631 1.465 . S
C637 C636 1.396 . S
C637 C638 1.399 . S
C638 H624 0.929 . S
C638 C637 1.399 . S
C638 C639 1.385 . S
C639 H625 0.931 . S
C639 C638 1.385 . S
C639 C640 1.389 . S
C640 C639 1.389 . S
C640 C641 1.387 . S
C641 H626 0.930 . S
C641 C636 1.390 . S
C641 C640 1.387 . S
H642 C654 0.930 . S
H643 C656 0.930 . S
H644 C657 0.930 . S
H645 C661 0.959 . S
H646 C661 0.959 . S
H647 C661 0.961 . S
H648 C662 0.960 . S
H649 C662 0.961 . S
H650 C662 0.959 . S
H651 C665 0.929 . S
H652 C666 0.931 . S
H653 C668 0.930 . S
C654 H642 0.930 . S
C654 C655 1.399 . S
C654 C659 1.399 . S
C655 C654 1.399 . S
C655 C656 1.376 . S
C656 H643 0.930 . S
C656 C655 1.376 . S
C656 C657 1.388 . S
C657 H644 0.930 . S
C657 C656 1.388 . S
C657 C658 1.390 . S
C658 C657 1.390 . S
C658 C659 1.394 . S
C658 C664 1.465 . S
C659 C654 1.399 . S
C659 C658 1.394 . S
C659 C660 1.516 . S
C660 C659 1.516 . S
C660 C661 1.502 . S
C660 C662 1.561 . S
C660 C663 1.526 . S
C661 H645 0.959 . S
C661 H646 0.959 . S
C661 H647 0.961 . S
C661 C660 1.502 . S
C662 H648 0.960 . S
C662 H649 0.961 . S
C662 H650 0.959 . S
C662 C660 1.561 . S
C663 C660 1.526 . S
C663 C664 1.396 . S
C663 C668 1.390 . S
C664 C658 1.465 . S
C664 C663 1.396 . S
C664 C665 1.399 . S
C665 H651 0.929 . S
C665 C664 1.399 . S
C665 C666 1.385 . S
C666 H652 0.931 . S
C666 C665 1.385 . S
C666 C667 1.389 . S
C667 C666 1.389 . S
C667 C668 1.387 . S
C668 H653 0.930 . S
C668 C663 1.390 . S
C668 C667 1.387 . S
H669 C681 0.930 . S
H670 C683 0.930 . S
H671 C684 0.930 . S
H672 C688 0.959 . S
H673 C688 0.959 . S
H674 C688 0.961 . S
H675 C689 0.960 . S
H676 C689 0.961 . S
H677 C689 0.959 . S
H678 C692 0.929 . S
H679 C693 0.931 . S
H680 C695 0.930 . S
C681 H669 0.930 . S
C681 C682 1.399 . S
C681 C686 1.399 . S
C682 C681 1.399 . S
C682 C683 1.376 . S
C683 H670 0.930 . S
C683 C682 1.376 . S
C683 C684 1.388 . S
C684 H671 0.930 . S
C684 C683 1.388 . S
C684 C685 1.390 . S
C685 C684 1.390 . S
C685 C686 1.394 . S
C685 C691 1.465 . S
C686 C681 1.399 . S
C686 C685 1.394 . S
C686 C687 1.516 . S
C687 C686 1.516 . S
C687 C688 1.502 . S
C687 C689 1.561 . S
C687 C690 1.526 . S
C688 H672 0.959 . S
C688 H673 0.959 . S
C688 H674 0.961 . S
C688 C687 1.502 . S
C689 H675 0.960 . S
C689 H676 0.961 . S
C689 H677 0.959 . S
C689 C687 1.561 . S
C690 C687 1.526 . S
C690 C691 1.396 . S
C690 C695 1.390 . S
C691 C685 1.465 . S
C691 C690 1.396 . S
C691 C692 1.399 . S
C692 H678 0.929 . S
C692 C691 1.399 . S
C692 C693 1.385 . S
C693 H679 0.931 . S
C693 C692 1.385 . S
C693 C694 1.389 . S
C694 C693 1.389 . S
C694 C695 1.387 . S
C695 H680 0.930 . S
C695 C690 1.390 . S
C695 C694 1.387 . S
H696 C708 0.930 . S
H697 C710 0.930 . S
H698 C711 0.930 . S
H699 C715 0.959 . S
H700 C715 0.955 1_554 S
H701 C715 0.961 . S
H702 C716 0.960 . S
H703 C716 0.961 . S
H704 C716 0.959 . S
H705 C719 0.929 . S
H706 C720 0.931 1_545 S
H707 C722 0.930 1_554 S
C708 H696 0.930 . S
C708 C709 1.399 . S
C708 C713 1.399 . S
C709 C708 1.399 . S
C709 C710 1.376 . S
C710 H697 0.930 . S
C710 C709 1.376 . S
C710 C711 1.388 . S
C711 H698 0.930 . S
C711 C710 1.388 . S
C711 C712 1.390 . S
C712 C711 1.390 . S
C712 C713 1.394 . S
C712 C718 1.465 . S
C713 C708 1.399 . S
C713 C712 1.394 . S
C713 C714 1.516 . S
C714 C713 1.516 . S
C714 C715 1.502 . S
C714 C716 1.561 . S
C714 C717 1.526 . S
C715 H699 0.959 . S
C715 H700 0.955 1_556 S
C715 H701 0.961 . S
C715 C714 1.502 . S
C716 H702 0.960 . S
C716 H703 0.961 . S
C716 H704 0.959 . S
C716 C714 1.561 . S
C717 C714 1.526 . S
C717 C718 1.396 . S
C717 C722 1.390 . S
C718 C712 1.465 . S
C718 C717 1.396 . S
C718 C719 1.399 . S
C719 H705 0.929 . S
C719 C718 1.399 . S
C719 C720 1.385 . S
C720 H706 0.931 1_565 S
C720 C719 1.385 . S
C720 C721 1.389 . S
C721 C720 1.389 . S
C721 C722 1.387 . S
C722 H707 0.930 1_556 S
C722 C717 1.390 . S
C722 C721 1.387 . S
H723 C735 0.930 . S
H724 C737 0.930 . S
H725 C738 0.930 . S
H726 C742 0.959 . S
H727 C742 0.959 . S
H728 C742 0.961 . S
H729 C743 0.960 . S
H730 C743 0.961 . S
H731 C743 0.959 . S
H732 C746 0.929 . S
H733 C747 0.931 . S
H734 C749 0.930 . S
C735 H723 0.930 . S
C735 C736 1.399 . S
C735 C740 1.399 . S
C736 C735 1.399 . S
C736 C737 1.376 . S
C737 H724 0.930 . S
C737 C736 1.376 . S
C737 C738 1.388 . S
C738 H725 0.930 . S
C738 C737 1.388 . S
C738 C739 1.390 . S
C739 C738 1.390 . S
C739 C740 1.394 . S
C739 C745 1.465 . S
C740 C735 1.399 . S
C740 C739 1.394 . S
C740 C741 1.516 . S
C741 C740 1.516 . S
C741 C742 1.502 . S
C741 C743 1.561 . S
C741 C744 1.526 . S
C742 H726 0.959 . S
C742 H727 0.959 . S
C742 H728 0.961 . S
C742 C741 1.502 . S
C743 H729 0.960 . S
C743 H730 0.961 . S
C743 H731 0.959 . S
C743 C741 1.561 . S
C744 C741 1.526 . S
C744 C745 1.396 . S
C744 C749 1.390 . S
C745 C739 1.465 . S
C745 C744 1.396 . S
C745 C746 1.399 . S
C746 H732 0.929 . S
C746 C745 1.399 . S
C746 C747 1.385 . S
C747 H733 0.931 . S
C747 C746 1.385 . S
C747 C748 1.389 . S
C748 C747 1.389 . S
C748 C749 1.387 . S
C749 H734 0.930 . S
C749 C744 1.390 . S
C749 C748 1.387 . S
H750 C762 0.930 . S
H751 C764 0.930 . S
H752 C765 0.930 . S
H753 C769 0.959 . S
H754 C769 0.959 . S
H755 C769 0.961 . S
H756 C770 0.960 . S
H757 C770 0.961 . S
H758 C770 0.959 . S
H759 C773 0.929 . S
H760 C774 0.931 . S
H761 C776 0.930 . S
C762 H750 0.930 . S
C762 C763 1.399 . S
C762 C767 1.399 . S
C763 C762 1.399 . S
C763 C764 1.376 . S
C764 H751 0.930 . S
C764 C763 1.376 . S
C764 C765 1.388 . S
C765 H752 0.930 . S
C765 C764 1.388 . S
C765 C766 1.390 . S
C766 C765 1.390 . S
C766 C767 1.394 . S
C766 C772 1.465 . S
C767 C762 1.399 . S
C767 C766 1.394 . S
C767 C768 1.516 . S
C768 C767 1.516 . S
C768 C769 1.502 . S
C768 C770 1.561 . S
C768 C771 1.526 . S
C769 H753 0.959 . S
C769 H754 0.959 . S
C769 H755 0.961 . S
C769 C768 1.502 . S
C770 H756 0.960 . S
C770 H757 0.961 . S
C770 H758 0.959 . S
C770 C768 1.561 . S
C771 C768 1.526 . S
C771 C772 1.396 . S
C771 C776 1.390 . S
C772 C766 1.465 . S
C772 C771 1.396 . S
C772 C773 1.399 . S
C773 H759 0.929 . S
C773 C772 1.399 . S
C773 C774 1.385 . S
C774 H760 0.931 . S
C774 C773 1.385 . S
C774 C775 1.389 . S
C775 C774 1.389 . S
C775 C776 1.387 . S
C776 H761 0.930 . S
C776 C771 1.390 . S
C776 C775 1.387 . S
H777 C789 0.930 . S
H778 C791 0.930 . S
H779 C792 0.930 . S
H780 C796 0.959 . S
H781 C796 0.959 . S
H782 C796 0.961 . S
H783 C797 0.960 . S
H784 C797 0.961 . S
H785 C797 0.959 . S
H786 C800 0.929 . S
H787 C801 0.931 . S
H788 C803 0.930 . S
C789 H777 0.930 . S
C789 C790 1.399 . S
C789 C794 1.399 . S
C790 C789 1.399 . S
C790 C791 1.376 . S
C791 H778 0.930 . S
C791 C790 1.376 . S
C791 C792 1.388 . S
C792 H779 0.930 . S
C792 C791 1.388 . S
C792 C793 1.390 . S
C793 C792 1.390 . S
C793 C794 1.394 . S
C793 C799 1.465 . S
C794 C789 1.399 . S
C794 C793 1.394 . S
C794 C795 1.516 . S
C795 C794 1.516 . S
C795 C796 1.502 . S
C795 C797 1.561 . S
C795 C798 1.526 . S
C796 H780 0.959 . S
C796 H781 0.959 . S
C796 H782 0.961 . S
C796 C795 1.502 . S
C797 H783 0.960 . S
C797 H784 0.961 . S
C797 H785 0.959 . S
C797 C795 1.561 . S
C798 C795 1.526 . S
C798 C799 1.396 . S
C798 C803 1.390 . S
C799 C793 1.465 . S
C799 C798 1.396 . S
C799 C800 1.399 . S
C800 H786 0.929 . S
C800 C799 1.399 . S
C800 C801 1.385 . S
C801 H787 0.931 . S
C801 C800 1.385 . S
C801 C802 1.389 . S
C802 C801 1.389 . S
C802 C803 1.387 . S
C803 H788 0.930 . S
C803 C798 1.390 . S
C803 C802 1.387 . S
H804 C816 0.930 . S
H805 C818 0.930 . S
H806 C819 0.930 . S
H807 C823 0.959 . S
H808 C823 0.959 . S
H809 C823 0.961 . S
H810 C824 0.960 . S
H811 C824 0.961 . S
H812 C824 0.959 . S
H813 C827 0.929 . S
H814 C828 0.931 . S
H815 C830 0.930 . S
C816 H804 0.930 . S
C816 C817 1.399 . S
C816 C821 1.399 . S
C817 C816 1.399 . S
C817 C818 1.376 . S
C818 H805 0.930 . S
C818 C817 1.376 . S
C818 C819 1.388 . S
C819 H806 0.930 . S
C819 C818 1.388 . S
C819 C820 1.390 . S
C820 C819 1.390 . S
C820 C821 1.394 . S
C820 C826 1.465 . S
C821 C816 1.399 . S
C821 C820 1.394 . S
C821 C822 1.516 . S
C822 C821 1.516 . S
C822 C823 1.502 . S
C822 C824 1.561 . S
C822 C825 1.526 . S
C823 H807 0.959 . S
C823 H808 0.959 . S
C823 H809 0.961 . S
C823 C822 1.502 . S
C824 H810 0.960 . S
C824 H811 0.961 . S
C824 H812 0.959 . S
C824 C822 1.561 . S
C825 C822 1.526 . S
C825 C826 1.396 . S
C825 C830 1.390 . S
C826 C820 1.465 . S
C826 C825 1.396 . S
C826 C827 1.399 . S
C827 H813 0.929 . S
C827 C826 1.399 . S
C827 C828 1.385 . S
C828 H814 0.931 . S
C828 C827 1.385 . S
C828 C829 1.389 . S
C829 C828 1.389 . S
C829 C830 1.387 . S
C830 H815 0.930 . S
C830 C825 1.390 . S
C830 C829 1.387 . S
H831 C843 0.930 . S
H832 C845 0.930 . S
H833 C846 0.930 . S
H834 C850 0.959 . S
H835 C850 0.959 . S
H836 C850 0.961 . S
H837 C851 0.960 . S
H838 C851 0.961 . S
H839 C851 0.959 . S
H840 C854 0.929 . S
H841 C855 0.931 . S
H842 C857 0.930 . S
C843 H831 0.930 . S
C843 C844 1.399 . S
C843 C848 1.399 . S
C844 C843 1.399 . S
C844 C845 1.376 . S
C845 H832 0.930 . S
C845 C844 1.376 . S
C845 C846 1.388 . S
C846 H833 0.930 . S
C846 C845 1.388 . S
C846 C847 1.390 . S
C847 C846 1.390 . S
C847 C848 1.394 . S
C847 C853 1.465 . S
C848 C843 1.399 . S
C848 C847 1.394 . S
C848 C849 1.516 . S
C849 C848 1.516 . S
C849 C850 1.502 . S
C849 C851 1.561 . S
C849 C852 1.526 . S
C850 H834 0.959 . S
C850 H835 0.959 . S
C850 H836 0.961 . S
C850 C849 1.502 . S
C851 H837 0.960 . S
C851 H838 0.961 . S
C851 H839 0.959 . S
C851 C849 1.561 . S
C852 C849 1.526 . S
C852 C853 1.396 . S
C852 C857 1.390 . S
C853 C847 1.465 . S
C853 C852 1.396 . S
C853 C854 1.399 . S
C854 H840 0.929 . S
C854 C853 1.399 . S
C854 C855 1.385 . S
C855 H841 0.931 . S
C855 C854 1.385 . S
C855 C856 1.389 . S
C856 C855 1.389 . S
C856 C857 1.387 . S
C857 H842 0.930 . S
C857 C852 1.390 . S
C857 C856 1.387 . S
H858 C870 0.930 . S
H859 C872 0.930 . S
H860 C873 0.930 . S
H861 C877 0.959 . S
H862 C877 0.959 . S
H863 C877 0.961 . S
H864 C878 0.960 . S
H865 C878 0.961 . S
H866 C878 0.959 . S
H867 C881 0.929 . S
H868 C882 0.931 . S
H869 C884 0.930 . S
C870 H858 0.930 . S
C870 C871 1.399 . S
C870 C875 1.399 . S
C871 C870 1.399 . S
C871 C872 1.376 . S
C872 H859 0.930 . S
C872 C871 1.376 . S
C872 C873 1.388 . S
C873 H860 0.930 . S
C873 C872 1.388 . S
C873 C874 1.390 . S
C874 C873 1.390 . S
C874 C875 1.394 . S
C874 C880 1.465 . S
C875 C870 1.399 . S
C875 C874 1.394 . S
C875 C876 1.516 . S
C876 C875 1.516 . S
C876 C877 1.502 . S
C876 C878 1.561 . S
C876 C879 1.526 . S
C877 H861 0.959 . S
C877 H862 0.959 . S
C877 H863 0.961 . S
C877 C876 1.502 . S
C878 H864 0.960 . S
C878 H865 0.961 . S
C878 H866 0.959 . S
C878 C876 1.561 . S
C879 C876 1.526 . S
C879 C880 1.396 . S
C879 C884 1.390 . S
C880 C874 1.465 . S
C880 C879 1.396 . S
C880 C881 1.399 . S
C881 H867 0.929 . S
C881 C880 1.399 . S
C881 C882 1.385 . S
C882 H868 0.931 . S
C882 C881 1.385 . S
C882 C883 1.389 . S
C883 C882 1.389 . S
C883 C884 1.387 . S
C884 H869 0.930 . S
C884 C879 1.390 . S
C884 C883 1.387 . S
H885 C897 0.930 . S
H886 C899 0.930 . S
H887 C900 0.930 . S
H888 C904 0.959 . S
H889 C904 0.959 . S
H890 C904 0.961 . S
H891 C905 0.960 . S
H892 C905 0.961 . S
H893 C905 0.959 . S
H894 C908 0.929 . S
H895 C909 0.931 . S
H896 C911 0.930 . S
C897 H885 0.930 . S
C897 C898 1.399 . S
C897 C902 1.399 . S
C898 C897 1.399 . S
C898 C899 1.376 . S
C899 H886 0.930 . S
C899 C898 1.376 . S
C899 C900 1.388 . S
C900 H887 0.930 . S
C900 C899 1.388 . S
C900 C901 1.390 . S
C901 C900 1.390 . S
C901 C902 1.394 . S
C901 C907 1.465 . S
C902 C897 1.399 . S
C902 C901 1.394 . S
C902 C903 1.516 . S
C903 C902 1.516 . S
C903 C904 1.502 . S
C903 C905 1.561 . S
C903 C906 1.526 . S
C904 H888 0.959 . S
C904 H889 0.959 . S
C904 H890 0.961 . S
C904 C903 1.502 . S
C905 H891 0.960 . S
C905 H892 0.961 . S
C905 H893 0.959 . S
C905 C903 1.561 . S
C906 C903 1.526 . S
C906 C907 1.396 . S
C906 C911 1.390 . S
C907 C901 1.465 . S
C907 C906 1.396 . S
C907 C908 1.399 . S
C908 H894 0.929 . S
C908 C907 1.399 . S
C908 C909 1.385 . S
C909 H895 0.931 . S
C909 C908 1.385 . S
C909 C910 1.389 . S
C910 C909 1.389 . S
C910 C911 1.387 . S
C911 H896 0.930 . S
C911 C906 1.390 . S
C911 C910 1.387 . S
C277 N1 0.885 . S
C289 C110 0.955 . S
C304 N18 1.090 . S
C316 C159 1.134 . S
C343 C194 2.084 . S
C331 N28 2.127 . S
C358 N40 2.610 . S
C370 C233 2.612 . S
C397 C154 2.394 . S
C385 N5 2.326 . S
C424 C113 0.786 . S
C412 N14 0.697 . S
C451 C243 2.024 . S
C439 N31 2.033 . S
C478 C202 1.375 . S
C466 N41 1.425 . S
C493 N2 1.351 . S
C505 C230 1.340 . S
C532 C162 2.424 1_556 S
C520 N27 2.503 . S
C547 N44 2.406 . S
C559 C123 2.435 . S
C574 N15 0.724 . S
C586 C199 0.711 . S
C613 C119 1.412 . S
C601 N57 1.483 . S
C628 N70 0.973 . S
C640 C150 0.892 . S
C655 N79 2.318 . S
C667 C203 2.318 . S
C682 N93 2.394 . S
C694 C242 2.366 . S
C709 N54 1.889 . S
C721 C163 2.005 1_566 S
C748 C122 1.415 . S
C736 N66 1.528 . S
C775 C234 1.409 . S
C763 N80 1.474 . S
C802 C193 1.732 . S
C790 N96 1.705 . S
C817 N53 1.491 . S
C829 C239 1.495 . S
C856 C153 2.121 . S
C844 N83 2.158 . S
C883 C114 2.621 . S
C871 N92 2.602 . S
C898 N67 0.884 . S
C910 C190 0.906 . S
