# Generated by pormake.
# Topology ssa, (4,4)-cn, num edge types: 1
# Building blocks:
#     Node 0, Type 0, BuildingBlock: NAWXER_clean_sbu_0, # of connection points: 4
#     Node 1, Type 0, BuildingBlock: NAWXER_clean_sbu_0, # of connection points: 4
#     Node 2, Type 0, BuildingBlock: NAWXER_clean_sbu_0, # of connection points: 4
#     Node 3, Type 0, BuildingBlock: NAWXER_clean_sbu_0, # of connection points: 4
#     Node 4, Type 0, BuildingBlock: NAWXER_clean_sbu_0, # of connection points: 4
#     Node 5, Type 0, BuildingBlock: NAWXER_clean_sbu_0, # of connection points: 4
#     Node 6, Type 1, BuildingBlock: AZAVOO_clean_linker_0, # of connection points: 4
#     Node 7, Type 1, BuildingBlock: AZAVOO_clean_linker_0, # of connection points: 4
#     Node 8, Type 1, BuildingBlock: AZAVOO_clean_linker_0, # of connection points: 4
#     Node 9, Type 1, BuildingBlock: AZAVOO_clean_linker_0, # of connection points: 4
#     Node 10, Type 1, BuildingBlock: AZAVOO_clean_linker_0, # of connection points: 4
#     Node 11, Type 1, BuildingBlock: AZAVOO_clean_linker_0, # of connection points: 4
#     Edge 12, Type (0, 1), BuildingBlock: CIFDUS_clean_linker_0, # of connection points: 2
#     Edge 13, Type (0, 1), BuildingBlock: CIFDUS_clean_linker_0, # of connection points: 2
#     Edge 14, Type (0, 1), BuildingBlock: CIFDUS_clean_linker_0, # of connection points: 2
#     Edge 15, Type (0, 1), BuildingBlock: CIFDUS_clean_linker_0, # of connection points: 2
#     Edge 16, Type (0, 1), BuildingBlock: CIFDUS_clean_linker_0, # of connection points: 2
#     Edge 17, Type (0, 1), BuildingBlock: CIFDUS_clean_linker_0, # of connection points: 2
#     Edge 18, Type (0, 1), BuildingBlock: CIFDUS_clean_linker_0, # of connection points: 2
#     Edge 19, Type (0, 1), BuildingBlock: CIFDUS_clean_linker_0, # of connection points: 2
#     Edge 20, Type (0, 1), BuildingBlock: CIFDUS_clean_linker_0, # of connection points: 2
#     Edge 21, Type (0, 1), BuildingBlock: CIFDUS_clean_linker_0, # of connection points: 2
#     Edge 22, Type (0, 1), BuildingBlock: CIFDUS_clean_linker_0, # of connection points: 2
#     Edge 23, Type (0, 1), BuildingBlock: CIFDUS_clean_linker_0, # of connection points: 2
#     Edge 24, Type (0, 1), BuildingBlock: CIFDUS_clean_linker_0, # of connection points: 2
#     Edge 25, Type (0, 1), BuildingBlock: CIFDUS_clean_linker_0, # of connection points: 2
#     Edge 26, Type (0, 1), BuildingBlock: CIFDUS_clean_linker_0, # of connection points: 2
#     Edge 27, Type (0, 1), BuildingBlock: CIFDUS_clean_linker_0, # of connection points: 2
#     Edge 28, Type (0, 1), BuildingBlock: CIFDUS_clean_linker_0, # of connection points: 2
#     Edge 29, Type (0, 1), BuildingBlock: CIFDUS_clean_linker_0, # of connection points: 2
#     Edge 30, Type (0, 1), BuildingBlock: CIFDUS_clean_linker_0, # of connection points: 2
#     Edge 31, Type (0, 1), BuildingBlock: CIFDUS_clean_linker_0, # of connection points: 2
#     Edge 32, Type (0, 1), BuildingBlock: CIFDUS_clean_linker_0, # of connection points: 2
#     Edge 33, Type (0, 1), BuildingBlock: CIFDUS_clean_linker_0, # of connection points: 2
#     Edge 34, Type (0, 1), BuildingBlock: CIFDUS_clean_linker_0, # of connection points: 2
#     Edge 35, Type (0, 1), BuildingBlock: CIFDUS_clean_linker_0, # of connection points: 2
# Relax obj value: 0.088
# Max RMSD: 0.235
# Mean RMSD: 0.130
data_MOF--net-ssa--node1-NAWXER_clean_sbu_0--node2-AZAVOO_clean_linker_0--edge1-CIFDUS_clean_linker_0
_symmetry_space_group_name_H-M    P1
_symmetry_Int_Tables_number       1
_symmetry_cell_setting            triclinic
loop_
_symmetry_equiv_pos_as_xyz
'x, y, z'
_cell_length_a     43.678458
_cell_length_b     44.036383
_cell_length_c     41.266654
_cell_angle_alpha  89.772156
_cell_angle_beta   92.957471
_cell_angle_gamma 120.27605
loop_
_atom_site_label
_atom_site_type_symbol
_atom_site_fract_x
_atom_site_fract_y
_atom_site_fract_z
_atom_type_partial_charge
C0 C 0.17458 0.6125 0.03152 0.0
C1 C 0.0918 0.50448 0.97107 0.0
O2 O 0.14556 0.59365 0.04549 0.0
Zn3 Zn 0.09716 0.54503 0.03742 0.0
O4 O 0.17959 0.60258 0.00441 0.0
Zn5 Zn 0.13387 0.55946 -3e-05 0.0
O6 O 0.09627 0.57739 0.9943 0.0
O7 O 0.06178 0.55861 0.0358 0.0
O8 O 0.12209 0.52809 0.96239 0.0
O9 O 0.08047 0.50848 0.99781 0.0
O10 O 0.0986 0.51737 0.07309 0.0
O11 O 0.13955 0.52924 0.03809 0.0
C12 C 0.07032 0.57521 0.00948 0.0
C13 C 0.12469 0.51482 0.06427 0.0
C14 C 0.53705 0.01497 0.61924 0.0
C15 C 0.57409 0.94398 0.56182 0.0
O16 O 0.52924 0.98349 0.62447 0.0
Zn17 Zn 0.55523 0.9791 0.59041 0.0
O18 O 0.55731 0.03173 0.5963 0.0
Zn19 Zn 0.58497 0.02187 0.56003 0.0
O20 O 0.56421 0.02706 0.51963 0.0
O21 O 0.52694 0.98115 0.54711 0.0
O22 O 0.58738 0.9752 0.55096 0.0
O23 O 0.55291 0.93449 0.58463 0.0
O24 O 0.61015 0.01359 0.60651 0.0
O25 O 0.63384 0.05574 0.57088 0.0
C26 C 0.53346 0.00052 0.52218 0.0
C27 C 0.63709 0.04159 0.59672 0.0
C28 C 0.5983 0.47272 0.06587 0.0
C29 C 0.6597 0.574 0.14058 0.0
O30 O 0.59269 0.4979 0.05888 0.0
Zn31 Zn 0.6065 0.54852 0.07664 0.0
O32 O 0.6177 0.47545 0.09102 0.0
Zn33 Zn 0.62932 0.52272 0.10432 0.0
O34 O 0.5803 0.51481 0.12057 0.0
O35 O 0.56058 0.54172 0.08779 0.0
O36 O 0.66019 0.5454 0.14246 0.0
O37 O 0.64137 0.57813 0.11753 0.0
O38 O 0.63042 0.57667 0.03999 0.0
O39 O 0.66012 0.55433 0.06544 0.0
C40 C 0.55676 0.52305 0.11251 0.0
C41 C 0.65751 0.57299 0.04269 0.0
C42 C 0.14502 0.55971 0.55021 0.0
C43 C 0.09492 0.45828 0.62027 0.0
O44 O 0.16037 0.55446 0.5748 0.0
Zn45 Zn 0.1205 0.50985 0.58661 0.0
O46 O 0.1125 0.53718 0.5423 0.0
Zn47 Zn 0.07139 0.48779 0.55824 0.0
O48 O 0.03501 0.49776 0.57072 0.0
O49 O 0.08361 0.52397 0.60298 0.0
O50 O 0.07313 0.45628 0.59719 0.0
O51 O 0.12566 0.48547 0.62372 0.0
O52 O 0.11484 0.47582 0.54672 0.0
O53 O 0.06289 0.45799 0.5205 0.0
C54 C 0.05208 0.51759 0.59526 0.0
C55 C 0.09206 0.45807 0.52346 0.0
C56 C 0.63703 0.03375 0.12208 0.0
C57 C 0.59776 0.10733 0.06735 0.0
O58 O 0.649 0.06636 0.12734 0.0
Zn59 Zn 0.61898 0.07142 0.09418 0.0
O60 O 0.61311 0.01729 0.09926 0.0
Zn61 Zn 0.58348 0.02863 0.06293 0.0
O62 O 0.59872 0.02077 0.02246 0.0
O63 O 0.64115 0.06617 0.05082 0.0
O64 O 0.58172 0.0758 0.05573 0.0
O65 O 0.62211 0.11675 0.08971 0.0
O66 O 0.56615 0.03772 0.11132 0.0
O67 O 0.53605 0.99619 0.07355 0.0
C68 C 0.63065 0.04583 0.02556 0.0
C69 C 0.53742 0.00995 0.10099 0.0
C70 C 0.58428 0.50554 0.60048 0.0
C71 C 0.50347 0.44399 0.50752 0.0
O72 O 0.55525 0.50604 0.60097 0.0
Zn73 Zn 0.50722 0.48768 0.57143 0.0
O74 O 0.58958 0.49049 0.57697 0.0
Zn75 Zn 0.54443 0.47445 0.55382 0.0
O76 O 0.55041 0.52266 0.53736 0.0
O77 O 0.51 0.5316 0.55799 0.0
O78 O 0.5341 0.44803 0.51376 0.0
O79 O 0.49073 0.45688 0.52701 0.0
O80 O 0.47286 0.45756 0.60189 0.0
O81 O 0.50777 0.43797 0.58666 0.0
C82 C 0.53632 0.54181 0.54031 0.0
C83 C 0.48245 0.43466 0.60354 0.0
H84 H 0.31571 0.41382 0.49868 0.0
H85 H 0.05701 0.38629 0.21157 0.0
H86 H 0.35388 0.45957 0.32585 0.0
H87 H 0.39661 0.45416 0.36237 0.0
H88 H 0.33978 0.34197 0.34436 0.0
H89 H 0.29809 0.34775 0.30605 0.0
H90 H 0.29394 0.45266 0.36735 0.0
H91 H 0.30635 0.44668 0.42484 0.0
H92 H 0.26214 0.33492 0.40866 0.0
H93 H 0.24978 0.34132 0.35127 0.0
H94 H 0.22798 0.45954 0.32083 0.0
H95 H 0.18728 0.46266 0.35736 0.0
H96 H 0.15023 0.35545 0.3847 0.0
H97 H 0.18993 0.35178 0.34666 0.0
H98 H 0.23059 0.4662 0.2523 0.0
H99 H 0.17919 0.46908 0.22994 0.0
H100 H 0.11173 0.35819 0.24704 0.0
H101 H 0.16351 0.35558 0.26895 0.0
H102 H 0.29659 0.47453 0.22273 0.0
H103 H 0.27772 0.49137 0.17238 0.0
H104 H 0.19041 0.38494 0.1578 0.0
H105 H 0.21012 0.36788 0.2077 0.0
H106 H 0.35293 0.47341 0.27012 0.0
H107 H 0.40207 0.49327 0.23446 0.0
H108 H 0.34175 0.39789 0.17618 0.0
H109 H 0.29285 0.37738 0.21298 0.0
O110 O 0.30981 0.41547 0.47606 0.0
O111 O 0.28668 0.35814 0.46647 0.0
O112 O 0.11315 0.44338 0.21454 0.0
O113 O 0.07777 0.38587 0.22034 0.0
C114 C 0.29235 0.40597 0.29897 0.0
C115 C 0.26594 0.40166 0.32007 0.0
C116 C 0.23644 0.40405 0.30811 0.0
C117 C 0.23228 0.40867 0.27465 0.0
C118 C 0.25866 0.41291 0.25349 0.0
C119 C 0.28945 0.41293 0.26584 0.0
C120 C 0.32338 0.40418 0.31269 0.0
C121 C 0.35195 0.43416 0.32804 0.0
C122 C 0.37612 0.43099 0.34911 0.0
C123 C 0.37141 0.3977 0.35581 0.0
C124 C 0.34409 0.36791 0.33905 0.0
C125 C 0.32047 0.37123 0.31717 0.0
C126 C 0.27094 0.39742 0.35529 0.0
C127 C 0.28665 0.42689 0.3764 0.0
C128 C 0.29382 0.42339 0.40917 0.0
C129 C 0.28534 0.39033 0.42133 0.0
C130 C 0.26902 0.36076 0.40009 0.0
C131 C 0.26188 0.36431 0.36735 0.0
C132 C 0.2118 0.40537 0.33089 0.0
C133 C 0.21069 0.4365 0.33426 0.0
C134 C 0.18745 0.43825 0.35505 0.0
C135 C 0.16547 0.40918 0.3735 0.0
C136 C 0.16687 0.37812 0.37056 0.0
C137 C 0.18961 0.37609 0.34907 0.0
C138 C 0.2008 0.4106 0.26196 0.0
C139 C 0.20471 0.44252 0.25104 0.0
C140 C 0.17529 0.44413 0.23841 0.0
C141 C 0.14134 0.41383 0.23666 0.0
C142 C 0.1375 0.38197 0.24796 0.0
C143 C 0.16698 0.38041 0.26056 0.0
C144 C 0.25456 0.42006 0.21892 0.0
C145 C 0.27456 0.45443 0.20781 0.0
C146 C 0.26364 0.46404 0.17916 0.0
C147 C 0.2324 0.43947 0.16164 0.0
C148 C 0.21448 0.40429 0.1711 0.0
C149 C 0.22578 0.39454 0.19942 0.0
C150 C 0.31972 0.42343 0.24485 0.0
C151 C 0.35069 0.45622 0.25033 0.0
C152 C 0.37857 0.46773 0.22971 0.0
C153 C 0.37576 0.44703 0.20268 0.0
C154 C 0.34454 0.41435 0.19685 0.0
C155 C 0.31678 0.40254 0.21791 0.0
C156 C 0.29387 0.38686 0.45595 0.0
C157 C 0.11002 0.41539 0.22317 0.0
H158 H 0.90553 0.25755 0.02107 0.0
H159 H 0.70968 0.97733 0.75873 0.0
H160 H 0.90537 0.27649 0.83922 0.0
H161 H 0.9471 0.33564 0.86011 0.0
H162 H 0.0331 0.31412 0.85569 0.0
H163 H 0.99078 0.25484 0.83317 0.0
H164 H 0.85867 0.22124 0.88424 0.0
H165 H 0.86993 0.23811 0.94192 0.0
H166 H 0.96045 0.22293 0.94527 0.0
H167 H 0.94862 0.20572 0.88761 0.0
H168 H 0.79977 0.16031 0.83834 0.0
H169 H 0.75655 0.13027 0.87917 0.0
H170 H 0.82829 0.10281 0.92908 0.0
H171 H 0.87134 0.13226 0.88728 0.0
H172 H 0.79877 0.15262 0.77109 0.0
H173 H 0.74542 0.09786 0.75284 0.0
H174 H 0.79231 0.03869 0.79282 0.0
H175 H 0.84574 0.09373 0.81061 0.0
H176 H 0.86127 0.22021 0.74043 0.0
H177 H 0.82488 0.19839 0.68989 0.0
H178 H 0.8381 0.1076 0.69107 0.0
H179 H 0.87561 0.13022 0.7414 0.0
H180 H 0.9192 0.27964 0.77531 0.0
H181 H 0.96019 0.32272 0.7382 0.0
H182 H 0.99534 0.2509 0.71215 0.0
H183 H 0.9556 0.20838 0.75097 0.0
O184 O 0.90153 0.25076 0.99828 0.0
O185 O 0.94797 0.24285 0.99865 0.0
O186 O 0.70665 0.03093 0.74752 0.0
O187 O 0.73057 0.99939 0.76548 0.0
C188 C 0.91842 0.22512 0.82402 0.0
C189 C 0.89578 0.20162 0.84686 0.0
C190 C 0.86564 0.16953 0.83623 0.0
C191 C 0.85882 0.16045 0.8028 0.0
C192 C 0.88186 0.18378 0.77986 0.0
C193 C 0.91178 0.21609 0.79054 0.0
C194 C 0.94509 0.26144 0.83499 0.0
C195 C 0.93328 0.28466 0.84249 0.0
C196 C 0.95715 0.31836 0.85455 0.0
C197 C 0.99333 0.32937 0.86011 0.0
C198 C 0.00541 0.30642 0.85154 0.0
C199 C 0.98135 0.27259 0.83894 0.0
C200 C 0.90262 0.21191 0.88189 0.0
C201 C 0.88076 0.22134 0.89755 0.0
C202 C 0.88733 0.23108 0.93047 0.0
C203 C 0.91604 0.23178 0.94824 0.0
C204 C 0.93807 0.22259 0.93232 0.0
C205 C 0.9314 0.21277 0.89942 0.0
C206 C 0.83851 0.14809 0.85959 0.0
C207 C 0.80578 0.14691 0.85751 0.0
C208 C 0.78115 0.12982 0.88088 0.0
C209 C 0.78905 0.11409 0.90716 0.0
C210 C 0.82163 0.11477 0.90902 0.0
C211 C 0.84611 0.13145 0.88523 0.0
C212 C 0.82627 0.12714 0.79186 0.0
C213 C 0.79757 0.12782 0.77567 0.0
C214 C 0.76706 0.09649 0.76541 0.0
C215 C 0.76461 0.06388 0.77136 0.0
C216 C 0.79336 0.06334 0.78778 0.0
C217 C 0.82389 0.09471 0.798 0.0
C218 C 0.87084 0.17665 0.74478 0.0
C219 C 0.85802 0.19662 0.72892 0.0
C220 C 0.83706 0.18402 0.70006 0.0
C221 C 0.82829 0.15107 0.68692 0.0
C222 C 0.84431 0.13296 0.70093 0.0
C223 C 0.86581 0.14589 0.72954 0.0
C224 C 0.93517 0.24129 0.76658 0.0
C225 C 0.93632 0.27347 0.76226 0.0
C226 C 0.95953 0.29793 0.741 0.0
C227 C 0.98114 0.29014 0.72292 0.0
C228 C 0.97911 0.25746 0.72623 0.0
C229 C 0.95644 0.23325 0.74819 0.0
C230 C 0.92293 0.24211 0.98322 0.0
C231 C 0.73217 0.03051 0.76067 0.0
H232 H 0.71549 0.74763 0.13857 0.0
H233 H 0.65591 0.99718 0.38434 0.0
H234 H 0.62767 0.7127 0.31925 0.0
H235 H 0.63345 0.66482 0.29646 0.0
H236 H 0.74548 0.73607 0.2874 0.0
H237 H 0.73992 0.78372 0.31164 0.0
H238 H 0.64579 0.75181 0.25418 0.0
H239 H 0.66549 0.74129 0.20323 0.0
H240 H 0.7651 0.83898 0.21866 0.0
H241 H 0.74533 0.84884 0.27 0.0
H242 H 0.63557 0.81173 0.24722 0.0
H243 H 0.62818 0.84711 0.20585 0.0
H244 H 0.70679 0.94165 0.25869 0.0
H245 H 0.71733 0.90568 0.29752 0.0
H246 H 0.61066 0.84431 0.31069 0.0
H247 H 0.59805 0.89145 0.32136 0.0
H248 H 0.69498 0.94571 0.38231 0.0
H249 H 0.70754 0.89869 0.37101 0.0
H250 H 0.59855 0.80452 0.37656 0.0
H251 H 0.58718 0.82713 0.42583 0.0
H252 H 0.69477 0.86356 0.46289 0.0
H253 H 0.70593 0.84096 0.41337 0.0
H254 H 0.59977 0.74085 0.36957 0.0
H255 H 0.58009 0.6942 0.40905 0.0
H256 H 0.68942 0.72374 0.4327 0.0
H257 H 0.70872 0.76993 0.39227 0.0
O258 O 0.70804 0.75265 0.15854 0.0
O259 O 0.75827 0.80375 0.1669 0.0
O260 O 0.61114 0.94967 0.34749 0.0
O261 O 0.6604 0.97832 0.37947 0.0
C262 C 0.67828 0.7821 0.32329 0.0
C263 C 0.68328 0.80597 0.29809 0.0
C264 C 0.67693 0.83404 0.30322 0.0
C265 C 0.66722 0.83911 0.33406 0.0
C266 C 0.66244 0.81537 0.35906 0.0
C267 C 0.66664 0.78623 0.35339 0.0
C268 C 0.68335 0.75175 0.31705 0.0
C269 C 0.65378 0.71765 0.31385 0.0
C270 C 0.6571 0.69034 0.30074 0.0
C271 C 0.68988 0.69692 0.29011 0.0
C272 C 0.71996 0.73044 0.29547 0.0
C273 C 0.71679 0.75757 0.30926 0.0
C274 C 0.69427 0.80093 0.26595 0.0
C275 C 0.67188 0.77089 0.24655 0.0
C276 C 0.68317 0.76498 0.21741 0.0
C277 C 0.71694 0.78922 0.20693 0.0
C278 C 0.73897 0.81973 0.22608 0.0
C279 C 0.72771 0.82551 0.25533 0.0
C280 C 0.67679 0.85599 0.27568 0.0
C281 C 0.65223 0.84007 0.24919 0.0
C282 C 0.64743 0.86054 0.22589 0.0
C283 C 0.6659 0.89751 0.22926 0.0
C284 C 0.692 0.9134 0.25492 0.0
C285 C 0.69784 0.89282 0.2775 0.0
C286 C 0.66005 0.86818 0.33999 0.0
C287 C 0.62923 0.86653 0.32616 0.0
C288 C 0.62206 0.89343 0.33237 0.0
C289 C 0.64551 0.92236 0.35272 0.0
C290 C 0.67637 0.92385 0.36653 0.0
C291 C 0.6836 0.89702 0.36016 0.0
C292 C 0.65313 0.8215 0.39142 0.0
C293 C 0.61926 0.81642 0.39579 0.0
C294 C 0.61281 0.82919 0.42396 0.0
C295 C 0.64022 0.84731 0.448 0.0
C296 C 0.6733 0.8499 0.44458 0.0
C297 C 0.67966 0.83692 0.41648 0.0
C298 C 0.65563 0.75861 0.37804 0.0
C299 C 0.61945 0.73731 0.38343 0.0
C300 C 0.6083 0.71086 0.4062 0.0
C301 C 0.63316 0.70526 0.42418 0.0
C302 C 0.66954 0.72708 0.419 0.0
C303 C 0.68067 0.7535 0.39602 0.0
C304 C 0.7291 0.78247 0.17627 0.0
C305 C 0.63786 0.95086 0.35964 0.0
H306 H 0.81663 0.59559 0.58788 0.0
H307 H 0.03436 0.56545 0.89474 0.0
H308 H 0.82986 0.64813 0.75798 0.0
H309 H 0.78181 0.64043 0.71921 0.0
H310 H 0.71672 0.534 0.75061 0.0
H311 H 0.76521 0.54108 0.78767 0.0
H312 H 0.88254 0.63763 0.71934 0.0
H313 H 0.86298 0.62972 0.66174 0.0
H314 H 0.78129 0.52282 0.67916 0.0
H315 H 0.80146 0.53101 0.73658 0.0
H316 H 0.94518 0.63393 0.7484 0.0
H317 H 0.97342 0.61775 0.70724 0.0
H318 H 0.89405 0.50824 0.71653 0.0
H319 H 0.866 0.52476 0.75735 0.0
H320 H 0.96389 0.64859 0.81264 0.0
H321 H 0.01624 0.64826 0.83654 0.0
H322 H 0.9494 0.54031 0.86395 0.0
H323 H 0.89742 0.5409 0.83954 0.0
H324 H 0.92441 0.66029 0.86586 0.0
H325 H 0.95658 0.66253 0.91694 0.0
H326 H 0.88185 0.55236 0.93014 0.0
H327 H 0.84953 0.5507 0.87949 0.0
H328 H 0.85104 0.657 0.85694 0.0
H329 H 0.81135 0.65813 0.89678 0.0
H330 H 0.74097 0.54654 0.88115 0.0
H331 H 0.78145 0.54514 0.84307 0.0
O332 O 0.82441 0.59793 0.61059 0.0
O333 O 0.78263 0.54329 0.62093 0.0
O334 O 0.04814 0.61959 0.86552 0.0
O335 O 0.01428 0.56594 0.88425 0.0
C336 C 0.83297 0.5955 0.78926 0.0
C337 C 0.854 0.59056 0.76726 0.0
C338 C 0.88467 0.59011 0.7787 0.0
C339 C 0.89508 0.59585 0.81199 0.0
C340 C 0.87407 0.60086 0.83403 0.0
C341 C 0.84246 0.59977 0.82286 0.0
C342 C 0.80079 0.59538 0.77613 0.0
C343 C 0.80461 0.62374 0.75755 0.0
C344 C 0.7774 0.61925 0.73527 0.0
C345 C 0.74582 0.58665 0.73207 0.0
C346 C 0.7407 0.55953 0.75306 0.0
C347 C 0.76821 0.56372 0.77466 0.0
C348 C 0.84329 0.58495 0.73205 0.0
C349 C 0.86063 0.61246 0.71056 0.0
C350 C 0.84932 0.60788 0.67773 0.0
C351 C 0.82047 0.57567 0.66587 0.0
C352 C 0.80354 0.54798 0.68749 0.0
C353 C 0.81497 0.55257 0.72027 0.0
C354 C 0.90378 0.58047 0.75597 0.0
C355 C 0.93427 0.60645 0.74179 0.0
C356 C 0.95027 0.59715 0.71828 0.0
C357 C 0.93583 0.56171 0.70848 0.0
C358 C 0.9055 0.53579 0.72316 0.0
C359 C 0.88966 0.5451 0.7467 0.0
C360 C 0.92701 0.59473 0.82426 0.0
C361 C 0.96075 0.62478 0.82342 0.0
C362 C 0.99053 0.62455 0.83722 0.0
C363 C 0.98698 0.59425 0.85221 0.0
C364 C 0.95308 0.56407 0.85264 0.0
C365 C 0.92337 0.56428 0.83863 0.0
C366 C 0.88494 0.60527 0.869 0.0
C367 C 0.91406 0.63715 0.88065 0.0
C368 C 0.93253 0.63828 0.90964 0.0
C369 C 0.92218 0.60743 0.92714 0.0
C370 C 0.89043 0.5766 0.91731 0.0
C371 C 0.87188 0.57556 0.88836 0.0
C372 C 0.81855 0.60114 0.84638 0.0
C373 C 0.82699 0.63287 0.86209 0.0
C374 C 0.80443 0.63351 0.88472 0.0
C375 C 0.77294 0.60252 0.89141 0.0
C376 C 0.76477 0.57084 0.87583 0.0
C377 C 0.78767 0.57008 0.85392 0.0
C378 C 0.80796 0.57116 0.63114 0.0
C379 C 0.01838 0.59414 0.86762 0.0
H380 H 0.33516 0.87768 0.51341 0.0
H381 H 0.14424 0.57129 0.24831 0.0
H382 H 0.32256 0.88375 0.34144 0.0
H383 H 0.37053 0.93478 0.3718 0.0
H384 H 0.44391 0.90061 0.34865 0.0
H385 H 0.39575 0.84916 0.31943 0.0
H386 H 0.27075 0.82517 0.38291 0.0
H387 H 0.28871 0.84769 0.43896 0.0
H388 H 0.3792 0.83292 0.43583 0.0
H389 H 0.36064 0.81003 0.37997 0.0
H390 H 0.21648 0.75992 0.36136 0.0
H391 H 0.18522 0.71929 0.40462 0.0
H392 H 0.2629 0.68586 0.40781 0.0
H393 H 0.29406 0.72681 0.36477 0.0
H394 H 0.19728 0.73455 0.30091 0.0
H395 H 0.14914 0.67514 0.28563 0.0
H396 H 0.22661 0.64517 0.26524 0.0
H397 H 0.27445 0.70459 0.28091 0.0
H398 H 0.2312 0.7727 0.24045 0.0
H399 H 0.21359 0.75039 0.18479 0.0
H400 H 0.31097 0.74767 0.17901 0.0
H401 H 0.32563 0.76549 0.23598 0.0
H402 H 0.31218 0.86716 0.25257 0.0
H403 H 0.34987 0.90401 0.20945 0.0
H404 H 0.41223 0.85321 0.21958 0.0
H405 H 0.37561 0.81761 0.2632 0.0
O406 O 0.32803 0.8679 0.49153 0.0
O407 O 0.37389 0.8594 0.48877 0.0
O408 O 0.12397 0.61158 0.26569 0.0
O409 O 0.16273 0.59491 0.25468 0.0
C410 C 0.3255 0.8276 0.3185 0.0
C411 C 0.3049 0.80474 0.34277 0.0
C412 C 0.27653 0.77084 0.33412 0.0
C413 C 0.2684 0.75982 0.30117 0.0
C414 C 0.28911 0.78261 0.27687 0.0
C415 C 0.318 0.81635 0.28566 0.0
C416 C 0.35573 0.86283 0.32823 0.0
C417 C 0.34927 0.88801 0.34196 0.0
C418 C 0.37658 0.91702 0.35927 0.0
C419 C 0.41077 0.92146 0.36251 0.0
C420 C 0.41787 0.898 0.3461 0.0
C421 C 0.39043 0.86867 0.32929 0.0
C422 C 0.31433 0.81589 0.3775 0.0
C423 C 0.29415 0.82638 0.39456 0.0
C424 C 0.30461 0.83942 0.42649 0.0
C425 C 0.33547 0.84222 0.44185 0.0
C426 C 0.35532 0.83114 0.42474 0.0
C427 C 0.34475 0.818 0.39287 0.0
C428 C 0.25727 0.74597 0.35988 0.0
C429 C 0.22659 0.74371 0.3714 0.0
C430 C 0.20883 0.72052 0.39604 0.0
C431 C 0.22164 0.6994 0.40963 0.0
C432 C 0.25265 0.70208 0.39813 0.0
C433 C 0.27028 0.72517 0.37341 0.0
C434 C 0.23926 0.72372 0.29219 0.0
C435 C 0.20375 0.71501 0.29338 0.0
C436 C 0.17634 0.68112 0.28452 0.0
C437 C 0.18403 0.65537 0.27422 0.0
C438 C 0.21974 0.66431 0.27306 0.0
C439 C 0.24711 0.69821 0.28199 0.0
C440 C 0.27997 0.77128 0.24216 0.0
C441 C 0.24861 0.76717 0.22707 0.0
C442 C 0.23892 0.7549 0.19493 0.0
C443 C 0.26092 0.74736 0.17678 0.0
C444 C 0.29289 0.75251 0.19197 0.0
C445 C 0.30183 0.76351 0.2245 0.0
C446 C 0.34102 0.83952 0.26059 0.0
C447 C 0.33414 0.86425 0.24554 0.0
C448 C 0.3555 0.88512 0.22107 0.0
C449 C 0.38344 0.8809 0.21121 0.0
C450 C 0.39051 0.85649 0.22666 0.0
C451 C 0.36971 0.83627 0.25146 0.0
C452 C 0.34704 0.85695 0.47545 0.0
C453 C 0.15502 0.61936 0.26465 0.0
H454 H 0.45986 0.26784 0.61302 0.0
H455 H 0.51503 0.04364 0.86947 0.0
H456 H 0.53528 0.31672 0.78539 0.0
H457 H 0.52367 0.35598 0.75175 0.0
H458 H 0.4144 0.30103 0.77721 0.0
H459 H 0.42622 0.26157 0.81133 0.0
H460 H 0.52531 0.26303 0.73874 0.0
H461 H 0.50803 0.27003 0.68308 0.0
H462 H 0.39776 0.21458 0.70661 0.0
H463 H 0.41548 0.20757 0.76216 0.0
H464 H 0.5493 0.22021 0.76702 0.0
H465 H 0.55586 0.18552 0.72472 0.0
H466 H 0.44427 0.10807 0.72661 0.0
H467 H 0.43784 0.14346 0.76896 0.0
H468 H 0.56635 0.21198 0.84326 0.0
H469 H 0.58139 0.16695 0.85788 0.0
H470 H 0.47018 0.08728 0.84714 0.0
H471 H 0.4555 0.13266 0.83298 0.0
H472 H 0.56829 0.2735 0.8834 0.0
H473 H 0.59456 0.26414 0.93345 0.0
H474 H 0.49715 0.16577 0.94542 0.0
H475 H 0.47064 0.17664 0.89674 0.0
H476 H 0.54928 0.3239 0.84474 0.0
H477 H 0.56399 0.36905 0.88661 0.0
H478 H 0.47988 0.29278 0.94323 0.0
H479 H 0.46381 0.24783 0.90022 0.0
O480 O 0.46605 0.26424 0.63499 0.0
O481 O 0.40989 0.23695 0.64871 0.0
O482 O 0.56666 0.10397 0.86911 0.0
O483 O 0.50984 0.06198 0.8637 0.0
C484 C 0.48638 0.25702 0.81213 0.0
C485 C 0.4823 0.23194 0.78845 0.0
C486 C 0.4903 0.20561 0.79676 0.0
C487 C 0.50067 0.20301 0.82904 0.0
C488 C 0.50424 0.22765 0.85303 0.0
C489 C 0.4977 0.25514 0.84446 0.0
C490 C 0.48177 0.28669 0.80129 0.0
C491 C 0.5093 0.31425 0.78516 0.0
C492 C 0.50258 0.33639 0.76572 0.0
C493 C 0.46822 0.33135 0.76209 0.0
C494 C 0.44117 0.30553 0.78008 0.0
C495 C 0.44795 0.28322 0.79965 0.0
C496 C 0.47159 0.2346 0.7543 0.0
C497 C 0.49742 0.25209 0.73168 0.0
C498 C 0.48747 0.25617 0.69997 0.0
C499 C 0.4515 0.24285 0.69038 0.0
C500 C 0.42568 0.22512 0.71318 0.0
C501 C 0.43569 0.22099 0.74486 0.0
C502 C 0.49314 0.18425 0.77086 0.0
C503 C 0.52624 0.19587 0.75812 0.0
C504 C 0.52988 0.17617 0.73393 0.0
C505 C 0.5005 0.14429 0.72234 0.0
C506 C 0.46728 0.13257 0.73524 0.0
C507 C 0.46355 0.15265 0.75924 0.0
C508 C 0.50984 0.17555 0.83722 0.0
C509 C 0.5453 0.18479 0.84417 0.0
C510 C 0.5538 0.15902 0.85245 0.0
C511 C 0.52696 0.12349 0.85372 0.0
C512 C 0.49148 0.11436 0.84642 0.0
C513 C 0.48301 0.14019 0.83825 0.0
C514 C 0.51758 0.22568 0.88639 0.0
C515 C 0.55226 0.25062 0.89756 0.0
C516 C 0.56738 0.24494 0.92594 0.0
C517 C 0.54825 0.21393 0.94336 0.0
C518 C 0.51268 0.19018 0.93307 0.0
C519 C 0.49745 0.19618 0.90504 0.0
C520 C 0.50482 0.28281 0.86894 0.0
C521 C 0.53319 0.31713 0.86557 0.0
C522 C 0.54189 0.34273 0.88966 0.0
C523 C 0.52297 0.33418 0.91792 0.0
C524 C 0.49479 0.2998 0.92156 0.0
C525 C 0.48553 0.27432 0.89704 0.0
C526 C 0.44108 0.24773 0.65682 0.0
C527 C 0.53583 0.09602 0.86264 0.0
H528 H 0.18714 0.51691 0.05865 0.0
H529 H 0.09349 0.47034 0.11411 0.0
H530 H 0.11746 0.43998 0.14703 0.0
H531 H 0.16644 0.42949 0.16193 0.0
H532 H 0.26135 0.47869 0.10851 0.0
H533 H 0.23533 0.50523 0.07256 0.0
C534 C 0.17183 0.49997 0.07782 0.0
C535 C 0.1386 0.49591 0.08398 0.0
C536 C 0.186 0.48314 0.09692 0.0
C537 C 0.11923 0.47406 0.10904 0.0
C538 C 0.13289 0.45667 0.12782 0.0
C539 C 0.18106 0.44544 0.14195 0.0
C540 C 0.21548 0.45188 0.13741 0.0
C541 C 0.16637 0.46132 0.12216 0.0
C542 C 0.23469 0.4733 0.11213 0.0
C543 C 0.21989 0.48851 0.09176 0.0
H544 H 0.69839 0.10249 0.58557 0.0
H545 H 0.65382 0.01414 0.64935 0.0
H546 H 0.71049 0.03859 0.68044 0.0
H547 H 0.77136 0.08651 0.6917 0.0
H548 H 0.81587 0.17633 0.63 0.0
H549 H 0.76061 0.14967 0.59566 0.0
C550 C 0.7011 0.08854 0.60622 0.0
C551 C 0.67178 0.05663 0.6152 0.0
C552 C 0.73375 0.10293 0.62429 0.0
C553 C 0.67581 0.03887 0.642 0.0
C554 C 0.70825 0.05278 0.6598 0.0
C555 C 0.76926 0.09985 0.67026 0.0
C556 C 0.79767 0.13309 0.66308 0.0
C557 C 0.73724 0.0849 0.65136 0.0
C558 C 0.79432 0.15058 0.63579 0.0
C559 C 0.76272 0.13545 0.61633 0.0
H560 H 0.65837 0.56507 0.20547 0.0
H561 H 0.69778 0.64425 0.13256 0.0
H562 H 0.71619 0.69045 0.17424 0.0
H563 H 0.71306 0.70728 0.22985 0.0
H564 H 0.66731 0.62784 0.30195 0.0
H565 H 0.65949 0.58266 0.26243 0.0
C566 C 0.67193 0.59254 0.19899 0.0
C567 C 0.67704 0.60148 0.16621 0.0
C568 C 0.68078 0.61876 0.2229 0.0
C569 C 0.69379 0.63697 0.15777 0.0
C570 C 0.70412 0.6633 0.18153 0.0
C571 C 0.70236 0.68021 0.2371 0.0
C572 C 0.69103 0.67076 0.26869 0.0
C573 C 0.69662 0.65439 0.21397 0.0
C574 C 0.6763 0.63555 0.27771 0.0
C575 C 0.67174 0.6098 0.25512 0.0
H576 H 0.98198 0.49804 0.59644 0.0
H577 H 0.08546 0.56954 0.64158 0.0
H578 H 0.05886 0.59043 0.67956 0.0
H579 H 0.0061 0.58624 0.70211 0.0
H580 H 0.90237 0.51441 0.65788 0.0
H581 H 0.92911 0.49569 0.61771 0.0
C582 C 0.99872 0.51847 0.61435 0.0
C583 C 0.03565 0.53208 0.61616 0.0
C584 C 0.98319 0.53009 0.63657 0.0
C585 C 0.05693 0.55841 0.63969 0.0
C586 C 0.04176 0.57041 0.6615 0.0
C587 C 0.98938 0.56684 0.68341 0.0
C588 C 0.9523 0.55164 0.68313 0.0
C589 C 0.0049 0.5561 0.66047 0.0
C590 C 0.93098 0.52616 0.65896 0.0
C591 C 0.94625 0.51556 0.63586 0.0
H592 H 0.48159 0.94341 0.09451 0.0
H593 H 0.52577 0.0373 0.15518 0.0
H594 H 0.47915 0.00639 0.19319 0.0
H595 H 0.42889 0.95105 0.21157 0.0
H596 H 0.38803 0.85649 0.15277 0.0
H597 H 0.43 0.88924 0.11138 0.0
C598 C 0.48074 0.95728 0.11579 0.0
C599 C 0.50716 0.99254 0.12207 0.0
C600 C 0.45451 0.93912 0.13792 0.0
C601 C 0.50583 0.01007 0.14989 0.0
C602 C 0.47921 0.99242 0.17165 0.0
C603 C 0.42893 0.93796 0.18936 0.0
C604 C 0.40559 0.90168 0.18486 0.0
C605 C 0.45387 0.95674 0.16626 0.0
C606 C 0.4059 0.88453 0.15643 0.0
C607 C 0.42989 0.90319 0.13291 0.0
H608 H 0.46231 0.43796 0.66418 0.0
H609 H 0.47329 0.36947 0.59729 0.0
H610 H 0.46485 0.3286 0.64064 0.0
H611 H 0.46364 0.31703 0.69874 0.0
H612 H 0.45626 0.38644 0.76689 0.0
H613 H 0.45376 0.42228 0.72208 0.0
C614 C 0.4617 0.41352 0.65899 0.0
C615 C 0.46848 0.40669 0.62767 0.0
C616 C 0.45814 0.39071 0.68439 0.0
C617 C 0.46821 0.37525 0.62127 0.0
C618 C 0.4636 0.35199 0.64606 0.0
C619 C 0.46067 0.33959 0.70356 0.0
C620 C 0.46022 0.34939 0.73573 0.0
C621 C 0.46 0.36018 0.67788 0.0
C622 C 0.45653 0.37859 0.74212 0.0
C623 C 0.45529 0.39906 0.71655 0.0
H624 H 0.63469 0.96122 0.53373 0.0
H625 H 0.53422 0.87214 0.55674 0.0
H626 H 0.54724 0.83306 0.52559 0.0
H627 H 0.58502 0.82563 0.48744 0.0
H628 H 0.68535 0.91559 0.46514 0.0
H629 H 0.67483 0.95291 0.50085 0.0
C630 C 0.61577 0.93318 0.53215 0.0
C631 C 0.58335 0.91954 0.54696 0.0
C632 C 0.62345 0.91111 0.51436 0.0
C633 C 0.55933 0.88316 0.54536 0.0
C634 C 0.5667 0.8609 0.52747 0.0
C635 C 0.60471 0.8533 0.49085 0.0
C636 C 0.63586 0.86788 0.47372 0.0
C637 C 0.59833 0.87475 0.51122 0.0
C638 C 0.66138 0.90369 0.47841 0.0
C639 C 0.65525 0.92512 0.49856 0.0
H640 H 0.64749 0.57665 0.97767 0.0
H641 H 0.72838 0.59974 0.05351 0.0
H642 H 0.77265 0.61521 0.01308 0.0
H643 H 0.78699 0.6163 0.95595 0.0
H644 H 0.70478 0.58713 0.8802 0.0
H645 H 0.66243 0.58009 0.92045 0.0
C646 C 0.67499 0.58583 0.98526 0.0
C647 C 0.68481 0.58732 0.01844 0.0
C648 C 0.69995 0.59321 0.9618 0.0
C649 C 0.72031 0.59848 0.02805 0.0
C650 C 0.74558 0.60721 0.00495 0.0
C651 C 0.75995 0.60905 0.94838 0.0
C652 C 0.74888 0.60245 0.91535 0.0
C653 C 0.73553 0.60381 0.97175 0.0
C654 C 0.71371 0.59243 0.90561 0.0
C655 C 0.68955 0.58834 0.92859 0.0
H656 H 0.11775 0.57918 0.49931 0.0
H657 H 0.2163 0.60861 0.55364 0.0
H658 H 0.24866 0.65543 0.5155 0.0
H659 H 0.2491 0.68606 0.46514 0.0
H660 H 0.15022 0.65512 0.41078 0.0
H661 H 0.11781 0.61096 0.45076 0.0
C662 C 0.1463 0.59593 0.50302 0.0
C663 C 0.16458 0.59021 0.52922 0.0
C664 C 0.16468 0.62247 0.48092 0.0
C665 C 0.20155 0.61239 0.53369 0.0
C666 C 0.22009 0.63909 0.51181 0.0
C667 C 0.22046 0.66958 0.46206 0.0
C668 C 0.20211 0.67381 0.43496 0.0
C669 C 0.20197 0.644 0.48506 0.0
C670 C 0.16495 0.65266 0.43156 0.0
C671 C 0.14641 0.62726 0.45431 0.0
H672 H 0.63535 0.16057 0.02764 0.0
H673 H 0.53685 0.10731 0.07524 0.0
H674 H 0.51452 0.14036 0.04414 0.0
H675 H 0.52046 0.17883 0.99892 0.0
H676 H 0.61647 0.22634 0.94667 0.0
H677 H 0.64277 0.20233 0.98461 0.0
C678 C 0.60943 0.1571 0.03171 0.0
C679 C 0.58781 0.13214 0.0538 0.0
C680 C 0.59627 0.17503 0.01272 0.0
C681 C 0.55393 0.12687 0.05852 0.0
C682 C 0.54115 0.14555 0.04062 0.0
C683 C 0.54719 0.18408 0.99584 0.0
C684 C 0.56618 0.20418 0.96967 0.0
C685 C 0.56164 0.16881 0.01687 0.0
C686 C 0.60119 0.21137 0.9667 0.0
C687 C 0.61621 0.19728 0.98822 0.0
H688 H 0.43265 0.40268 0.49658 0.0
H689 H 0.53107 0.45196 0.44846 0.0
H690 H 0.49833 0.43826 0.39554 0.0
H691 H 0.44177 0.42006 0.36389 0.0
H692 H 0.34356 0.36872 0.41218 0.0
H693 H 0.37593 0.37499 0.46418 0.0
C694 C 0.4468 0.4096 0.47442 0.0
C695 C 0.48405 0.42857 0.47621 0.0
C696 C 0.42783 0.40153 0.44423 0.0
C697 C 0.5023 0.43722 0.44751 0.0
C698 C 0.48362 0.42966 0.41731 0.0
C699 C 0.42761 0.40936 0.38573 0.0
C700 C 0.39056 0.39405 0.38455 0.0
C701 C 0.44643 0.41295 0.41546 0.0
C702 C 0.37214 0.38037 0.41277 0.0
C703 C 0.39063 0.38418 0.44245 0.0
H704 H 0.10942 0.47938 0.91849 0.0
H705 H 0.02361 0.45547 0.9805 0.0
H706 H 0.98666 0.39951 0.95214 0.0
H707 H 0.97866 0.35659 0.91126 0.0
H708 H 0.06211 0.37886 0.84723 0.0
H709 H 0.10031 0.43582 0.87539 0.0
C710 C 0.08255 0.46201 0.92556 0.0
C711 C 0.06944 0.47168 0.95167 0.0
C712 C 0.06113 0.42941 0.90909 0.0
C713 C 0.03458 0.44877 0.96063 0.0
C714 C 0.01331 0.41664 0.94446 0.0
C715 C 0.00501 0.37408 0.90302 0.0
C716 C 0.01734 0.3637 0.87694 0.0
C717 C 0.02636 0.40664 0.91887 0.0
C718 C 0.05201 0.38622 0.86735 0.0
C719 C 0.07375 0.41885 0.8833 0.0
H720 H 0.00551 0.56273 0.02629 0.0
H721 H 0.08777 0.62095 0.95992 0.0
H722 H 0.05044 0.64012 0.93148 0.0
H723 H 0.99226 0.63413 0.92114 0.0
H724 H 0.90865 0.57452 0.98573 0.0
H725 H 0.94873 0.56191 0.01915 0.0
C726 C 0.01544 0.58 0.00588 0.0
C727 C 0.04921 0.59006 0.99502 0.0
C728 C 0.99348 0.59029 0.98908 0.0
C729 C 0.06172 0.61247 0.96855 0.0
C730 C 0.04038 0.62343 0.95222 0.0
C731 C 0.98305 0.61935 0.94312 0.0
C732 C 0.94756 0.60538 0.95103 0.0
C733 C 0.0059 0.61166 0.96169 0.0
C734 C 0.93584 0.58544 0.9791 0.0
C735 C 0.95871 0.57817 0.99813 0.0
H736 H 0.54283 0.01337 0.45798 0.0
H737 H 0.4621 0.96331 0.52725 0.0
H738 H 0.41614 0.93855 0.48318 0.0
H739 H 0.39982 0.92535 0.42531 0.0
H740 H 0.48055 0.97062 0.3557 0.0
H741 H 0.52573 0.00335 0.39946 0.0
C742 C 0.5151 0.99763 0.46336 0.0
C743 C 0.50579 0.99004 0.49572 0.0
C744 C 0.48894 0.98244 0.43785 0.0
C745 C 0.46985 0.96928 0.50246 0.0
C746 C 0.44359 0.9551 0.47731 0.0
C747 C 0.42716 0.9432 0.41968 0.0
C748 C 0.43697 0.94599 0.38746 0.0
C749 C 0.45294 0.9607 0.44495 0.0
C750 C 0.47255 0.96834 0.38042 0.0
C751 C 0.4983 0.98686 0.4054 0.0
H752 H 0.56933 0.46788 0.0056 0.0
H753 H 0.59432 0.4088 0.07495 0.0
H754 H 0.57082 0.3593 0.03572 0.0
H755 H 0.545 0.33392 0.98064 0.0
H756 H 0.52387 0.39559 0.91141 0.0
H757 H 0.54385 0.44315 0.9519 0.0
C758 C 0.56947 0.44412 0.01239 0.0
C759 C 0.58345 0.44198 0.04323 0.0
C760 C 0.55659 0.41631 0.9897 0.0
C761 C 0.58372 0.4111 0.05135 0.0
C762 C 0.57028 0.38283 0.02895 0.0
C763 C 0.5445 0.3577 0.97475 0.0
C764 C 0.53292 0.36147 0.94335 0.0
C765 C 0.55687 0.38527 0.99795 0.0
C766 C 0.53272 0.39237 0.93553 0.0
C767 C 0.54415 0.41947 0.95859 0.0
H768 H 0.07617 0.451 0.45846 0.0
H769 H 0.13028 0.42581 0.53478 0.0
H770 H 0.15419 0.40384 0.49471 0.0
H771 H 0.16526 0.39818 0.43792 0.0
H772 H 0.116 0.42866 0.3615 0.0
H773 H 0.08445 0.44195 0.40137 0.0
C774 C 0.09255 0.43996 0.46622 0.0
C775 C 0.10147 0.43993 0.4994 0.0
C776 C 0.10738 0.42871 0.44297 0.0
C777 C 0.1232 0.42615 0.50928 0.0
C778 C 0.13693 0.41368 0.48641 0.0
C779 C 0.14701 0.40702 0.43007 0.0
C780 C 0.14278 0.41242 0.39699 0.0
C781 C 0.13004 0.41576 0.45318 0.0
C782 C 0.11959 0.42443 0.38696 0.0
C783 C 0.10165 0.43207 0.40971 0.0
H784 H 0.70243 0.08181 0.03229 0.0
H785 H 0.61494 0.02361 0.96202 0.0
H786 H 0.65657 0.03761 0.91932 0.0
H787 H 0.71775 0.0695 0.90148 0.0
H788 H 0.80503 0.12702 0.97203 0.0
H789 H 0.76358 0.10964 0.01529 0.0
C790 C 0.69248 0.07209 0.00764 0.0
C791 C 0.65569 0.0521 0.0002 0.0
C792 C 0.71652 0.08 0.98335 0.0
C793 C 0.64317 0.03915 0.9683 0.0
C794 C 0.66694 0.04719 0.94389 0.0
C795 C 0.72761 0.07793 0.9264 0.0
C796 C 0.76429 0.0996 0.93362 0.0
C797 C 0.70363 0.06803 0.95106 0.0
C798 C 0.7769 0.11007 0.96598 0.0
C799 C 0.75322 0.1004 0.99065 0.0
H800 H 0.5939 0.56984 0.50443 0.0
H801 H 0.51213 0.58876 0.53604 0.0
H802 H 0.53614 0.6423 0.50413 0.0
H803 H 0.57936 0.68243 0.4658 0.0
H804 H 0.65909 0.66084 0.43326 0.0
H805 H 0.63714 0.60987 0.46768 0.0
C806 C 0.58121 0.5856 0.50452 0.0
C807 C 0.55106 0.57512 0.52248 0.0
C808 C 0.59493 0.61597 0.48607 0.0
C809 C 0.53529 0.59615 0.52237 0.0
C810 C 0.549 0.62672 0.50411 0.0
C811 C 0.59185 0.6665 0.46615 0.0
C812 C 0.6209 0.67556 0.4469 0.0
C813 C 0.57862 0.63667 0.48559 0.0
C814 C 0.63712 0.65493 0.44813 0.0
C815 C 0.62437 0.62553 0.4676 0.0
H816 H 0.54806 0.08091 0.61294 0.0
H817 H 0.49611 0.98899 0.67172 0.0
H818 H 0.47744 0.02011 0.7074 0.0
H819 H 0.47948 0.07489 0.72394 0.0
H820 H 0.5329 0.16682 0.66562 0.0
H821 H 0.54725 0.13411 0.62754 0.0
C822 C 0.53249 0.06754 0.63345 0.0
C823 C 0.52378 0.03278 0.63981 0.0
C824 C 0.52217 0.08562 0.65396 0.0
C825 C 0.50336 0.01583 0.66637 0.0
C826 C 0.49267 0.03359 0.68679 0.0
C827 C 0.49371 0.08747 0.70256 0.0
C828 C 0.50529 0.12315 0.69756 0.0
C829 C 0.50238 0.06867 0.68108 0.0
C830 C 0.52404 0.13941 0.67003 0.0
C831 C 0.53224 0.12076 0.6483 0.0
H832 H 0.48759 0.50123 0.0937 0.0
H833 H 0.55798 0.51831 0.17763 0.0
H834 H 0.50839 0.49671 0.21287 0.0
H835 H 0.44495 0.47186 0.21997 0.0
H836 H 0.37311 0.45095 0.13648 0.0
H837 H 0.423 0.47459 0.10087 0.0
C838 C 0.49194 0.50044 0.11972 0.0
C839 C 0.52633 0.51151 0.13312 0.0
C840 C 0.46301 0.48695 0.13986 0.0
C841 C 0.53168 0.50986 0.1668 0.0
C842 C 0.50337 0.4975 0.18697 0.0
C843 C 0.44029 0.47259 0.19397 0.0
C844 C 0.40554 0.45986 0.18083 0.0
C845 C 0.46892 0.48576 0.17377 0.0
C846 C 0.39969 0.46044 0.14708 0.0
C847 C 0.4282 0.47412 0.12678 0.0
H848 H 0.05088 0.38934 0.60678 0.0
H849 H 0.11157 0.46289 0.68541 0.0
H850 H 0.08315 0.4161 0.72466 0.0
H851 H 0.03627 0.35565 0.73655 0.0
H852 H 0.97743 0.28195 0.6576 0.0
H853 H 0.01006 0.32734 0.61826 0.0
C854 C 0.05822 0.39493 0.6325 0.0
C855 C 0.08285 0.42942 0.64337 0.0
C856 C 0.04195 0.36798 0.65472 0.0
C857 C 0.09266 0.43643 0.6766 0.0
C858 C 0.07625 0.40978 0.699 0.0
C859 C 0.03116 0.34958 0.71069 0.0
C860 C 0.00451 0.31586 0.69972 0.0
C861 C 0.05018 0.3757 0.68836 0.0
C862 C 0.99798 0.30784 0.66634 0.0
C863 C 0.01647 0.33377 0.64395 0.0
H864 H 0.59754 0.96645 0.13884 0.0
H865 H 0.70282 0.05673 0.15205 0.0
H866 H 0.72187 0.02204 0.18511 0.0
H867 H 0.70828 0.96565 0.20945 0.0
H868 H 0.60022 0.87824 0.20098 0.0
H869 H 0.58305 0.91198 0.16603 0.0
C870 C 0.62472 0.97851 0.14889 0.0
C871 C 0.64888 0.01388 0.14285 0.0
C872 C 0.63509 0.95878 0.16837 0.0
C873 C 0.68379 0.02946 0.15646 0.0
C874 C 0.69466 0.00962 0.17523 0.0
C875 C 0.68086 0.95396 0.20038 0.0
C876 C 0.65595 0.91887 0.20761 0.0
C877 C 0.67048 0.97418 0.18133 0.0
C878 C 0.62058 0.9045 0.1951 0.0
C879 C 0.61044 0.924 0.17536 0.0
H880 H 0.65605 0.53871 0.59918 0.0
H881 H 0.57083 0.50812 0.6633 0.0
H882 H 0.61355 0.5328 0.70989 0.0
H883 H 0.67503 0.56047 0.73271 0.0
H884 H 0.76056 0.59371 0.66865 0.0
H885 H 0.71806 0.57122 0.62161 0.0
C886 C 0.647 0.53755 0.62338 0.0
C887 C 0.61054 0.52138 0.62801 0.0
C888 C 0.67173 0.5525 0.64995 0.0
C889 C 0.59891 0.52047 0.65929 0.0
C890 C 0.62325 0.53454 0.68591 0.0
C891 C 0.6842 0.56324 0.70835 0.0
C892 C 0.7206 0.57866 0.70392 0.0
C893 C 0.65968 0.55035 0.68155 0.0
C894 C 0.73253 0.58223 0.67241 0.0
C895 C 0.70827 0.5691 0.6456 0.0
H896 H 0.17551 0.67236 0.04623 0.0
H897 H 0.23468 0.6188 0.05951 0.0
H898 H 0.27002 0.65888 0.10495 0.0
H899 H 0.27567 0.70128 0.14619 0.0
H900 H 0.21971 0.75834 0.13068 0.0
H901 H 0.1911 0.72427 0.08083 0.0
C902 C 0.19719 0.67056 0.05829 0.0
C903 C 0.20288 0.6431 0.04969 0.0
C904 C 0.21705 0.69343 0.08451 0.0
C905 C 0.23047 0.6403 0.06556 0.0
C906 C 0.25025 0.66286 0.09179 0.0
C907 C 0.25827 0.70743 0.1316 0.0
C908 C 0.2491 0.73174 0.1432 0.0
C909 C 0.24262 0.68848 0.10234 0.0
C910 C 0.22617 0.73873 0.12345 0.0
C911 C 0.21003 0.71953 0.09461 0.0
loop_
_geom_bond_atom_site_label_1
_geom_bond_atom_site_label_2
_geom_bond_distance
_geom_bond_site_symmetry_2
_ccdc_geom_bond_type
C0 O2 1.247 . S
C0 O4 1.258 . S
C1 O8 1.247 . S
C1 O9 1.258 . S
O2 C0 1.247 . S
O2 Zn3 2.028 . S
Zn3 O2 2.028 . S
Zn3 O7 2.035 1_554 S
Zn3 O9 2.035 1_554 S
Zn3 O10 2.028 . S
O4 C0 1.258 . S
O4 Zn5 2.035 1_554 S
Zn5 O4 2.035 1_556 S
Zn5 O6 2.028 . S
Zn5 O8 2.028 . S
Zn5 O11 2.035 1_556 S
O6 Zn5 2.028 . S
O6 C12 1.247 . S
O7 Zn3 2.035 1_556 S
O7 C12 1.258 . S
O8 C1 1.247 . S
O8 Zn5 2.028 . S
O9 C1 1.258 . S
O9 Zn3 2.035 1_556 S
O10 Zn3 2.028 . S
O10 C13 1.247 . S
O11 Zn5 2.035 1_554 S
O11 C13 1.258 . S
C12 O6 1.247 . S
C12 O7 1.258 . S
C13 O10 1.247 . S
C13 O11 1.258 . S
C14 O16 1.247 1_545 S
C14 O18 1.258 . S
C15 O22 1.247 1_565 S
C15 O23 1.258 . S
O16 C14 1.247 1_565 S
O16 Zn17 2.028 . S
Zn17 O16 2.028 . S
Zn17 O21 2.035 . S
Zn17 O23 2.035 . S
Zn17 O24 2.028 . S
O18 C14 1.258 . S
O18 Zn19 2.035 . S
Zn19 O18 2.035 . S
Zn19 O20 2.028 . S
Zn19 O22 2.028 . S
Zn19 O25 2.035 . S
O20 Zn19 2.028 . S
O20 C26 1.247 1_545 S
O21 Zn17 2.035 . S
O21 C26 1.258 . S
O22 C15 1.247 1_545 S
O22 Zn19 2.028 . S
O23 C15 1.258 . S
O23 Zn17 2.035 . S
O24 Zn17 2.028 . S
O24 C27 1.247 1_565 S
O25 Zn19 2.035 . S
O25 C27 1.258 . S
C26 O20 1.247 1_565 S
C26 O21 1.258 . S
C27 O24 1.247 1_545 S
C27 O25 1.258 . S
C28 O30 1.247 . S
C28 O32 1.258 . S
C29 O36 1.247 . S
C29 O37 1.258 . S
O30 C28 1.247 . S
O30 Zn31 2.028 . S
Zn31 O30 2.028 . S
Zn31 O35 2.035 . S
Zn31 O37 2.035 . S
Zn31 O38 2.028 . S
O32 C28 1.258 . S
O32 Zn33 2.035 . S
Zn33 O32 2.035 . S
Zn33 O34 2.028 . S
Zn33 O36 2.028 . S
Zn33 O39 2.035 . S
O34 Zn33 2.028 . S
O34 C40 1.247 . S
O35 Zn31 2.035 . S
O35 C40 1.258 . S
O36 C29 1.247 . S
O36 Zn33 2.028 . S
O37 C29 1.258 . S
O37 Zn31 2.035 . S
O38 Zn31 2.028 . S
O38 C41 1.247 . S
O39 Zn33 2.035 . S
O39 C41 1.258 . S
C40 O34 1.247 . S
C40 O35 1.258 . S
C41 O38 1.247 . S
C41 O39 1.258 . S
C42 O44 1.247 . S
C42 O46 1.258 1_455 S
C43 O50 1.247 . S
C43 O51 1.258 1_655 S
O44 C42 1.247 . S
O44 Zn45 2.028 . S
Zn45 O44 2.028 . S
Zn45 O49 2.035 . S
Zn45 O51 2.035 . S
Zn45 O52 2.028 . S
O46 C42 1.258 1_655 S
O46 Zn47 2.035 . S
Zn47 O46 2.035 . S
Zn47 O48 2.028 . S
Zn47 O50 2.028 . S
Zn47 O53 2.059 . S
O48 Zn47 2.028 . S
O48 C54 1.247 . S
O49 Zn45 2.035 . S
O49 C54 1.258 1_455 S
O50 C43 1.247 . S
O50 Zn47 2.028 . S
O51 C43 1.258 1_455 S
O51 Zn45 2.035 . S
O52 Zn45 2.028 . S
O52 C55 1.247 . S
O53 Zn47 2.059 . S
O53 C55 1.232 1_655 S
C54 O48 1.247 . S
C54 O49 1.258 1_655 S
C55 O52 1.247 . S
C55 O53 1.232 1_455 S
C56 O58 1.247 . S
C56 O60 1.258 . S
C57 O64 1.247 . S
C57 O65 1.258 . S
O58 C56 1.247 . S
O58 Zn59 2.028 . S
Zn59 O58 2.028 . S
Zn59 O63 2.035 . S
Zn59 O65 2.035 . S
Zn59 O66 2.028 . S
O60 C56 1.258 . S
O60 Zn61 2.035 . S
Zn61 O60 2.035 . S
Zn61 O62 2.028 . S
Zn61 O64 2.028 . S
Zn61 O67 2.035 . S
O62 Zn61 2.028 . S
O62 C68 1.247 . S
O63 Zn59 2.035 . S
O63 C68 1.258 . S
O64 C57 1.247 . S
O64 Zn61 2.028 . S
O65 C57 1.258 . S
O65 Zn59 2.035 . S
O66 Zn59 2.028 . S
O66 C69 1.247 . S
O67 Zn61 2.035 . S
O67 C69 1.258 . S
C68 O62 1.247 . S
C68 O63 1.258 . S
C69 O66 1.247 . S
C69 O67 1.258 . S
C70 O72 1.247 . S
C70 O74 1.258 . S
C71 O78 1.247 . S
C71 O79 1.258 . S
O72 C70 1.247 . S
O72 Zn73 2.028 . S
Zn73 O72 2.028 . S
Zn73 O77 2.035 . S
Zn73 O79 2.035 . S
Zn73 O80 2.028 . S
O74 C70 1.258 . S
O74 Zn75 2.035 . S
Zn75 O74 2.035 . S
Zn75 O76 2.028 . S
Zn75 O78 2.028 . S
Zn75 O81 2.035 . S
O76 Zn75 2.028 . S
O76 C82 1.247 . S
O77 Zn73 2.035 . S
O77 C82 1.258 . S
O78 C71 1.247 . S
O78 Zn75 2.028 . S
O79 C71 1.258 . S
O79 Zn73 2.035 . S
O80 Zn73 2.028 . S
O80 C83 1.247 . S
O81 Zn75 2.035 . S
O81 C83 1.258 . S
C82 O76 1.247 . S
C82 O77 1.258 . S
C83 O80 1.247 . S
C83 O81 1.258 . S
H84 O110 0.856 . S
H85 O113 0.854 . S
H86 C121 0.930 . S
H87 C122 0.930 . S
H88 C124 0.930 . S
H89 C125 0.930 . S
H90 C127 0.931 . S
H91 C128 0.930 . S
H92 C130 0.930 . S
H93 C131 0.929 . S
H94 C133 0.930 . S
H95 C134 0.931 . S
H96 C136 0.930 . S
H97 C137 0.929 . S
H98 C139 0.931 . S
H99 C140 0.930 . S
H100 C142 0.930 . S
H101 C143 0.932 . S
H102 C145 0.930 . S
H103 C146 0.929 . S
H104 C148 0.931 . S
H105 C149 0.930 . S
H106 C151 0.929 . S
H107 C152 0.931 . S
H108 C154 0.930 . S
H109 C155 0.929 . S
O110 H84 0.856 . S
O110 C156 1.300 . S
O111 C156 1.209 . S
O112 C157 1.199 . S
O113 H85 0.854 . S
O113 C157 1.297 . S
C114 C115 1.404 . S
C114 C119 1.397 . S
C114 C120 1.492 . S
C115 C114 1.404 . S
C115 C116 1.396 . S
C115 C126 1.492 . S
C116 C115 1.396 . S
C116 C117 1.397 . S
C116 C132 1.509 . S
C117 C116 1.397 . S
C117 C118 1.412 . S
C117 C138 1.485 . S
C118 C117 1.412 . S
C118 C119 1.388 . S
C118 C144 1.490 . S
C119 C114 1.397 . S
C119 C118 1.388 . S
C119 C150 1.519 . S
C120 C114 1.492 . S
C120 C121 1.363 . S
C120 C125 1.390 . S
C121 H86 0.930 . S
C121 C120 1.363 . S
C121 C122 1.372 . S
C122 H87 0.930 . S
C122 C121 1.372 . S
C122 C123 1.383 . S
C123 C122 1.383 . S
C123 C124 1.395 . S
C124 H88 0.930 . S
C124 C123 1.395 . S
C124 C125 1.362 . S
C125 H89 0.930 . S
C125 C120 1.390 . S
C125 C124 1.362 . S
C126 C115 1.492 . S
C126 C127 1.377 . S
C126 C131 1.397 . S
C127 H90 0.931 . S
C127 C126 1.377 . S
C127 C128 1.376 . S
C128 H91 0.930 . S
C128 C127 1.376 . S
C128 C129 1.376 . S
C129 C128 1.376 . S
C129 C130 1.378 . S
C129 C156 1.486 . S
C130 H92 0.930 . S
C130 C129 1.378 . S
C130 C131 1.376 . S
C131 H93 0.929 . S
C131 C126 1.397 . S
C131 C130 1.376 . S
C132 C116 1.509 . S
C132 C133 1.391 . S
C132 C137 1.386 . S
C133 H94 0.930 . S
C133 C132 1.391 . S
C133 C134 1.375 . S
C134 H95 0.931 . S
C134 C133 1.375 . S
C134 C135 1.375 . S
C135 C134 1.375 . S
C135 C136 1.361 . S
C136 H96 0.930 . S
C136 C135 1.361 . S
C136 C137 1.399 . S
C137 H97 0.929 . S
C137 C132 1.386 . S
C137 C136 1.399 . S
C138 C117 1.485 . S
C138 C139 1.394 . S
C138 C143 1.360 . S
C139 H98 0.931 . S
C139 C138 1.394 . S
C139 C140 1.372 . S
C140 H99 0.930 . S
C140 C139 1.372 . S
C140 C141 1.397 . S
C141 C140 1.397 . S
C141 C142 1.390 . S
C141 C157 1.476 . S
C142 H100 0.930 . S
C142 C141 1.390 . S
C142 C143 1.366 . S
C143 H101 0.932 . S
C143 C138 1.360 . S
C143 C142 1.366 . S
C144 C118 1.490 . S
C144 C145 1.380 . S
C144 C149 1.386 . S
C145 H102 0.930 . S
C145 C144 1.380 . S
C145 C146 1.381 . S
C146 H103 0.929 . S
C146 C145 1.381 . S
C146 C147 1.371 . S
C147 C146 1.371 . S
C147 C148 1.380 . S
C148 H104 0.931 . S
C148 C147 1.380 . S
C148 C149 1.387 . S
C149 H105 0.930 . S
C149 C144 1.386 . S
C149 C148 1.387 . S
C150 C119 1.519 . S
C150 C151 1.377 . S
C150 C155 1.361 . S
C151 H106 0.929 . S
C151 C150 1.377 . S
C151 C152 1.386 . S
C152 H107 0.931 . S
C152 C151 1.386 . S
C152 C153 1.363 . S
C153 C152 1.363 . S
C153 C154 1.385 . S
C154 H108 0.930 . S
C154 C153 1.385 . S
C154 C155 1.396 . S
C155 H109 0.929 . S
C155 C150 1.361 . S
C155 C154 1.396 . S
C156 O110 1.300 . S
C156 O111 1.209 . S
C156 C129 1.486 . S
C157 O112 1.199 . S
C157 O113 1.297 . S
C157 C141 1.476 . S
H158 O184 0.856 . S
H159 O187 0.854 . S
H160 C195 0.930 . S
H161 C196 0.930 . S
H162 C198 0.930 . S
H163 C199 0.930 . S
H164 C201 0.931 . S
H165 C202 0.930 . S
H166 C204 0.930 . S
H167 C205 0.929 . S
H168 C207 0.930 . S
H169 C208 0.931 . S
H170 C210 0.930 . S
H171 C211 0.929 . S
H172 C213 0.931 . S
H173 C214 0.930 . S
H174 C216 0.930 . S
H175 C217 0.932 . S
H176 C219 0.930 . S
H177 C220 0.929 . S
H178 C222 0.931 . S
H179 C223 0.930 . S
H180 C225 0.929 . S
H181 C226 0.931 . S
H182 C228 0.930 . S
H183 C229 0.929 . S
O184 H158 0.856 . S
O184 C230 1.300 1_554 S
O185 C230 1.209 1_554 S
O186 C231 1.199 . S
O187 H159 0.854 . S
O187 C231 1.297 1_565 S
C188 C189 1.404 . S
C188 C193 1.397 . S
C188 C194 1.492 . S
C189 C188 1.404 . S
C189 C190 1.396 . S
C189 C200 1.492 . S
C190 C189 1.396 . S
C190 C191 1.397 . S
C190 C206 1.509 . S
C191 C190 1.397 . S
C191 C192 1.412 . S
C191 C212 1.485 . S
C192 C191 1.412 . S
C192 C193 1.388 . S
C192 C218 1.490 . S
C193 C188 1.397 . S
C193 C192 1.388 . S
C193 C224 1.519 . S
C194 C188 1.492 . S
C194 C195 1.363 . S
C194 C199 1.390 . S
C195 H160 0.930 . S
C195 C194 1.363 . S
C195 C196 1.372 . S
C196 H161 0.930 . S
C196 C195 1.372 . S
C196 C197 1.383 1_655 S
C197 C196 1.383 1_455 S
C197 C198 1.395 . S
C198 H162 0.930 . S
C198 C197 1.395 . S
C198 C199 1.362 1_455 S
C199 H163 0.930 . S
C199 C194 1.390 . S
C199 C198 1.362 1_655 S
C200 C189 1.492 . S
C200 C201 1.377 . S
C200 C205 1.397 . S
C201 H164 0.931 . S
C201 C200 1.377 . S
C201 C202 1.376 . S
C202 H165 0.930 . S
C202 C201 1.376 . S
C202 C203 1.376 . S
C203 C202 1.376 . S
C203 C204 1.378 . S
C203 C230 1.486 . S
C204 H166 0.930 . S
C204 C203 1.378 . S
C204 C205 1.376 . S
C205 H167 0.929 . S
C205 C200 1.397 . S
C205 C204 1.376 . S
C206 C190 1.509 . S
C206 C207 1.391 . S
C206 C211 1.386 . S
C207 H168 0.930 . S
C207 C206 1.391 . S
C207 C208 1.375 . S
C208 H169 0.931 . S
C208 C207 1.375 . S
C208 C209 1.375 . S
C209 C208 1.375 . S
C209 C210 1.361 . S
C210 H170 0.930 . S
C210 C209 1.361 . S
C210 C211 1.399 . S
C211 H171 0.929 . S
C211 C206 1.386 . S
C211 C210 1.399 . S
C212 C191 1.485 . S
C212 C213 1.394 . S
C212 C217 1.360 . S
C213 H172 0.931 . S
C213 C212 1.394 . S
C213 C214 1.372 . S
C214 H173 0.930 . S
C214 C213 1.372 . S
C214 C215 1.397 . S
C215 C214 1.397 . S
C215 C216 1.390 . S
C215 C231 1.476 . S
C216 H174 0.930 . S
C216 C215 1.390 . S
C216 C217 1.366 . S
C217 H175 0.932 . S
C217 C212 1.360 . S
C217 C216 1.366 . S
C218 C192 1.490 . S
C218 C219 1.380 . S
C218 C223 1.386 . S
C219 H176 0.930 . S
C219 C218 1.380 . S
C219 C220 1.381 . S
C220 H177 0.929 . S
C220 C219 1.381 . S
C220 C221 1.371 . S
C221 C220 1.371 . S
C221 C222 1.380 . S
C222 H178 0.931 . S
C222 C221 1.380 . S
C222 C223 1.387 . S
C223 H179 0.930 . S
C223 C218 1.386 . S
C223 C222 1.387 . S
C224 C193 1.519 . S
C224 C225 1.377 . S
C224 C229 1.361 . S
C225 H180 0.929 . S
C225 C224 1.377 . S
C225 C226 1.386 . S
C226 H181 0.931 . S
C226 C225 1.386 . S
C226 C227 1.363 . S
C227 C226 1.363 . S
C227 C228 1.385 . S
C228 H182 0.930 . S
C228 C227 1.385 . S
C228 C229 1.396 . S
C229 H183 0.929 . S
C229 C224 1.361 . S
C229 C228 1.396 . S
C230 O184 1.300 1_556 S
C230 O185 1.209 1_556 S
C230 C203 1.486 . S
C231 O186 1.199 . S
C231 O187 1.297 1_545 S
C231 C215 1.476 . S
H232 O258 0.856 . S
H233 O261 0.854 . S
H234 C269 0.930 . S
H235 C270 0.930 . S
H236 C272 0.930 . S
H237 C273 0.930 . S
H238 C275 0.931 . S
H239 C276 0.930 . S
H240 C278 0.930 . S
H241 C279 0.929 . S
H242 C281 0.930 . S
H243 C282 0.931 . S
H244 C284 0.930 . S
H245 C285 0.929 . S
H246 C287 0.931 . S
H247 C288 0.930 . S
H248 C290 0.930 1_545 S
H249 C291 0.932 . S
H250 C293 0.930 . S
H251 C294 0.929 . S
H252 C296 0.931 . S
H253 C297 0.930 . S
H254 C299 0.929 . S
H255 C300 0.931 . S
H256 C302 0.930 . S
H257 C303 0.929 . S
O258 H232 0.856 . S
O258 C304 1.300 . S
O259 C304 1.209 . S
O260 C305 1.199 . S
O261 H233 0.854 . S
O261 C305 1.297 . S
C262 C263 1.404 . S
C262 C267 1.397 . S
C262 C268 1.492 . S
C263 C262 1.404 . S
C263 C264 1.396 . S
C263 C274 1.492 . S
C264 C263 1.396 . S
C264 C265 1.397 . S
C264 C280 1.509 . S
C265 C264 1.397 . S
C265 C266 1.412 . S
C265 C286 1.485 . S
C266 C265 1.412 . S
C266 C267 1.388 . S
C266 C292 1.490 . S
C267 C262 1.397 . S
C267 C266 1.388 . S
C267 C298 1.519 . S
C268 C262 1.492 . S
C268 C269 1.363 . S
C268 C273 1.390 . S
C269 H234 0.930 . S
C269 C268 1.363 . S
C269 C270 1.372 . S
C270 H235 0.930 . S
C270 C269 1.372 . S
C270 C271 1.383 . S
C271 C270 1.383 . S
C271 C272 1.395 . S
C272 H236 0.930 . S
C272 C271 1.395 . S
C272 C273 1.362 . S
C273 H237 0.930 . S
C273 C268 1.390 . S
C273 C272 1.362 . S
C274 C263 1.492 . S
C274 C275 1.377 . S
C274 C279 1.397 . S
C275 H238 0.931 . S
C275 C274 1.377 . S
C275 C276 1.376 . S
C276 H239 0.930 . S
C276 C275 1.376 . S
C276 C277 1.376 . S
C277 C276 1.376 . S
C277 C278 1.378 . S
C277 C304 1.486 . S
C278 H240 0.930 . S
C278 C277 1.378 . S
C278 C279 1.376 . S
C279 H241 0.929 . S
C279 C274 1.397 . S
C279 C278 1.376 . S
C280 C264 1.509 . S
C280 C281 1.391 . S
C280 C285 1.386 . S
C281 H242 0.930 . S
C281 C280 1.391 . S
C281 C282 1.375 . S
C282 H243 0.931 . S
C282 C281 1.375 . S
C282 C283 1.375 . S
C283 C282 1.375 . S
C283 C284 1.361 . S
C284 H244 0.930 . S
C284 C283 1.361 . S
C284 C285 1.399 . S
C285 H245 0.929 . S
C285 C280 1.386 . S
C285 C284 1.399 . S
C286 C265 1.485 . S
C286 C287 1.394 . S
C286 C291 1.360 . S
C287 H246 0.931 . S
C287 C286 1.394 . S
C287 C288 1.372 . S
C288 H247 0.930 . S
C288 C287 1.372 . S
C288 C289 1.397 . S
C289 C288 1.397 . S
C289 C290 1.390 . S
C289 C305 1.476 1_565 S
C290 H248 0.930 1_565 S
C290 C289 1.390 . S
C290 C291 1.366 . S
C291 H249 0.932 . S
C291 C286 1.360 . S
C291 C290 1.366 . S
C292 C266 1.490 . S
C292 C293 1.380 . S
C292 C297 1.386 . S
C293 H250 0.930 . S
C293 C292 1.380 . S
C293 C294 1.381 . S
C294 H251 0.929 . S
C294 C293 1.381 . S
C294 C295 1.371 . S
C295 C294 1.371 . S
C295 C296 1.380 . S
C296 H252 0.931 . S
C296 C295 1.380 . S
C296 C297 1.387 . S
C297 H253 0.930 . S
C297 C292 1.386 . S
C297 C296 1.387 . S
C298 C267 1.519 . S
C298 C299 1.377 . S
C298 C303 1.361 . S
C299 H254 0.929 . S
C299 C298 1.377 . S
C299 C300 1.386 . S
C300 H255 0.931 . S
C300 C299 1.386 . S
C300 C301 1.363 . S
C301 C300 1.363 . S
C301 C302 1.385 . S
C302 H256 0.930 . S
C302 C301 1.385 . S
C302 C303 1.396 . S
C303 H257 0.929 . S
C303 C298 1.361 . S
C303 C302 1.396 . S
C304 O258 1.300 . S
C304 O259 1.209 . S
C304 C277 1.486 . S
C305 O260 1.199 . S
C305 O261 1.297 . S
C305 C289 1.476 1_545 S
H306 O332 0.856 . S
H307 O335 0.854 . S
H308 C343 0.930 . S
H309 C344 0.930 . S
H310 C346 0.930 . S
H311 C347 0.930 . S
H312 C349 0.931 . S
H313 C350 0.930 . S
H314 C352 0.930 . S
H315 C353 0.929 . S
H316 C355 0.930 . S
H317 C356 0.931 1_455 S
H318 C358 0.930 . S
H319 C359 0.929 . S
H320 C361 0.931 . S
H321 C362 0.930 . S
H322 C364 0.930 . S
H323 C365 0.932 . S
H324 C367 0.930 . S
H325 C368 0.929 . S
H326 C370 0.931 . S
H327 C371 0.930 . S
H328 C373 0.929 . S
H329 C374 0.931 . S
H330 C376 0.930 . S
H331 C377 0.929 . S
O332 H306 0.856 . S
O332 C378 1.300 . S
O333 C378 1.209 . S
O334 C379 1.199 . S
O335 H307 0.854 . S
O335 C379 1.297 . S
C336 C337 1.404 . S
C336 C341 1.397 . S
C336 C342 1.492 . S
C337 C336 1.404 . S
C337 C338 1.396 . S
C337 C348 1.492 . S
C338 C337 1.396 . S
C338 C339 1.397 . S
C338 C354 1.509 . S
C339 C338 1.397 . S
C339 C340 1.412 . S
C339 C360 1.485 . S
C340 C339 1.412 . S
C340 C341 1.388 . S
C340 C366 1.490 . S
C341 C336 1.397 . S
C341 C340 1.388 . S
C341 C372 1.519 . S
C342 C336 1.492 . S
C342 C343 1.363 . S
C342 C347 1.390 . S
C343 H308 0.930 . S
C343 C342 1.363 . S
C343 C344 1.372 . S
C344 H309 0.930 . S
C344 C343 1.372 . S
C344 C345 1.383 . S
C345 C344 1.383 . S
C345 C346 1.395 . S
C346 H310 0.930 . S
C346 C345 1.395 . S
C346 C347 1.362 . S
C347 H311 0.930 . S
C347 C342 1.390 . S
C347 C346 1.362 . S
C348 C337 1.492 . S
C348 C349 1.377 . S
C348 C353 1.397 . S
C349 H312 0.931 . S
C349 C348 1.377 . S
C349 C350 1.376 . S
C350 H313 0.930 . S
C350 C349 1.376 . S
C350 C351 1.376 . S
C351 C350 1.376 . S
C351 C352 1.378 . S
C351 C378 1.486 . S
C352 H314 0.930 . S
C352 C351 1.378 . S
C352 C353 1.376 . S
C353 H315 0.929 . S
C353 C348 1.397 . S
C353 C352 1.376 . S
C354 C338 1.509 . S
C354 C355 1.391 . S
C354 C359 1.386 . S
C355 H316 0.930 . S
C355 C354 1.391 . S
C355 C356 1.375 . S
C356 H317 0.931 1_655 S
C356 C355 1.375 . S
C356 C357 1.375 . S
C357 C356 1.375 . S
C357 C358 1.361 . S
C358 H318 0.930 . S
C358 C357 1.361 . S
C358 C359 1.399 . S
C359 H319 0.929 . S
C359 C354 1.386 . S
C359 C358 1.399 . S
C360 C339 1.485 . S
C360 C361 1.394 1_655 S
C360 C365 1.360 . S
C361 H320 0.931 . S
C361 C360 1.394 1_455 S
C361 C362 1.372 . S
C362 H321 0.930 . S
C362 C361 1.372 . S
C362 C363 1.397 . S
C363 C362 1.397 . S
C363 C364 1.390 . S
C363 C379 1.476 . S
C364 H322 0.930 . S
C364 C363 1.390 . S
C364 C365 1.366 1_455 S
C365 H323 0.932 . S
C365 C360 1.360 . S
C365 C364 1.366 1_655 S
C366 C340 1.490 . S
C366 C367 1.380 . S
C366 C371 1.386 . S
C367 H324 0.930 . S
C367 C366 1.380 . S
C367 C368 1.381 . S
C368 H325 0.929 . S
C368 C367 1.381 . S
C368 C369 1.371 . S
C369 C368 1.371 . S
C369 C370 1.380 . S
C370 H326 0.931 . S
C370 C369 1.380 . S
C370 C371 1.387 . S
C371 H327 0.930 . S
C371 C366 1.386 . S
C371 C370 1.387 . S
C372 C341 1.519 . S
C372 C373 1.377 . S
C372 C377 1.361 . S
C373 H328 0.929 . S
C373 C372 1.377 . S
C373 C374 1.386 . S
C374 H329 0.931 . S
C374 C373 1.386 . S
C374 C375 1.363 . S
C375 C374 1.363 . S
C375 C376 1.385 . S
C376 H330 0.930 . S
C376 C375 1.385 . S
C376 C377 1.396 . S
C377 H331 0.929 . S
C377 C372 1.361 . S
C377 C376 1.396 . S
C378 O332 1.300 . S
C378 O333 1.209 . S
C378 C351 1.486 . S
C379 O334 1.199 . S
C379 O335 1.297 . S
C379 C363 1.476 . S
H380 O406 0.856 . S
H381 O409 0.854 . S
H382 C417 0.930 . S
H383 C418 0.930 . S
H384 C420 0.930 . S
H385 C421 0.930 . S
H386 C423 0.931 . S
H387 C424 0.930 . S
H388 C426 0.930 . S
H389 C427 0.929 . S
H390 C429 0.930 . S
H391 C430 0.931 . S
H392 C432 0.930 . S
H393 C433 0.929 . S
H394 C435 0.931 . S
H395 C436 0.930 . S
H396 C438 0.930 . S
H397 C439 0.932 . S
H398 C441 0.930 . S
H399 C442 0.929 . S
H400 C444 0.931 . S
H401 C445 0.930 . S
H402 C447 0.929 . S
H403 C448 0.931 . S
H404 C450 0.930 . S
H405 C451 0.929 . S
O406 H380 0.856 . S
O406 C452 1.300 . S
O407 C452 1.209 . S
O408 C453 1.199 . S
O409 H381 0.854 . S
O409 C453 1.297 . S
C410 C411 1.404 . S
C410 C415 1.397 . S
C410 C416 1.492 . S
C411 C410 1.404 . S
C411 C412 1.396 . S
C411 C422 1.492 . S
C412 C411 1.396 . S
C412 C413 1.397 . S
C412 C428 1.509 . S
C413 C412 1.397 . S
C413 C414 1.412 . S
C413 C434 1.485 . S
C414 C413 1.412 . S
C414 C415 1.388 . S
C414 C440 1.490 . S
C415 C410 1.397 . S
C415 C414 1.388 . S
C415 C446 1.519 . S
C416 C410 1.492 . S
C416 C417 1.363 . S
C416 C421 1.390 . S
C417 H382 0.930 . S
C417 C416 1.363 . S
C417 C418 1.372 . S
C418 H383 0.930 . S
C418 C417 1.372 . S
C418 C419 1.383 . S
C419 C418 1.383 . S
C419 C420 1.395 . S
C420 H384 0.930 . S
C420 C419 1.395 . S
C420 C421 1.362 . S
C421 H385 0.930 . S
C421 C416 1.390 . S
C421 C420 1.362 . S
C422 C411 1.492 . S
C422 C423 1.377 . S
C422 C427 1.397 . S
C423 H386 0.931 . S
C423 C422 1.377 . S
C423 C424 1.376 . S
C424 H387 0.930 . S
C424 C423 1.376 . S
C424 C425 1.376 . S
C425 C424 1.376 . S
C425 C426 1.378 . S
C425 C452 1.486 . S
C426 H388 0.930 . S
C426 C425 1.378 . S
C426 C427 1.376 . S
C427 H389 0.929 . S
C427 C422 1.397 . S
C427 C426 1.376 . S
C428 C412 1.509 . S
C428 C429 1.391 . S
C428 C433 1.386 . S
C429 H390 0.930 . S
C429 C428 1.391 . S
C429 C430 1.375 . S
C430 H391 0.931 . S
C430 C429 1.375 . S
C430 C431 1.375 . S
C431 C430 1.375 . S
C431 C432 1.361 . S
C432 H392 0.930 . S
C432 C431 1.361 . S
C432 C433 1.399 . S
C433 H393 0.929 . S
C433 C428 1.386 . S
C433 C432 1.399 . S
C434 C413 1.485 . S
C434 C435 1.394 . S
C434 C439 1.360 . S
C435 H394 0.931 . S
C435 C434 1.394 . S
C435 C436 1.372 . S
C436 H395 0.930 . S
C436 C435 1.372 . S
C436 C437 1.397 . S
C437 C436 1.397 . S
C437 C438 1.390 . S
C437 C453 1.476 . S
C438 H396 0.930 . S
C438 C437 1.390 . S
C438 C439 1.366 . S
C439 H397 0.932 . S
C439 C434 1.360 . S
C439 C438 1.366 . S
C440 C414 1.490 . S
C440 C441 1.380 . S
C440 C445 1.386 . S
C441 H398 0.930 . S
C441 C440 1.380 . S
C441 C442 1.381 . S
C442 H399 0.929 . S
C442 C441 1.381 . S
C442 C443 1.371 . S
C443 C442 1.371 . S
C443 C444 1.380 . S
C444 H400 0.931 . S
C444 C443 1.380 . S
C444 C445 1.387 . S
C445 H401 0.930 . S
C445 C440 1.386 . S
C445 C444 1.387 . S
C446 C415 1.519 . S
C446 C447 1.377 . S
C446 C451 1.361 . S
C447 H402 0.929 . S
C447 C446 1.377 . S
C447 C448 1.386 . S
C448 H403 0.931 . S
C448 C447 1.386 . S
C448 C449 1.363 . S
C449 C448 1.363 . S
C449 C450 1.385 . S
C450 H404 0.930 . S
C450 C449 1.385 . S
C450 C451 1.396 . S
C451 H405 0.929 . S
C451 C446 1.361 . S
C451 C450 1.396 . S
C452 O406 1.300 . S
C452 O407 1.209 . S
C452 C425 1.486 . S
C453 O408 1.199 . S
C453 O409 1.297 . S
C453 C437 1.476 . S
H454 O480 0.856 . S
H455 O483 0.854 . S
H456 C491 0.930 . S
H457 C492 0.930 . S
H458 C494 0.930 . S
H459 C495 0.930 . S
H460 C497 0.931 . S
H461 C498 0.930 . S
H462 C500 0.930 . S
H463 C501 0.929 . S
H464 C503 0.930 . S
H465 C504 0.931 . S
H466 C506 0.930 . S
H467 C507 0.929 . S
H468 C509 0.931 . S
H469 C510 0.930 . S
H470 C512 0.930 . S
H471 C513 0.932 . S
H472 C515 0.930 . S
H473 C516 0.929 . S
H474 C518 0.931 . S
H475 C519 0.930 . S
H476 C521 0.929 . S
H477 C522 0.931 . S
H478 C524 0.930 . S
H479 C525 0.929 . S
O480 H454 0.856 . S
O480 C526 1.300 . S
O481 C526 1.209 . S
O482 C527 1.199 . S
O483 H455 0.854 . S
O483 C527 1.297 1_565 S
C484 C485 1.404 . S
C484 C489 1.397 . S
C484 C490 1.492 . S
C485 C484 1.404 . S
C485 C486 1.396 . S
C485 C496 1.492 . S
C486 C485 1.396 . S
C486 C487 1.397 . S
C486 C502 1.509 . S
C487 C486 1.397 . S
C487 C488 1.412 . S
C487 C508 1.485 . S
C488 C487 1.412 . S
C488 C489 1.388 . S
C488 C514 1.490 . S
C489 C484 1.397 . S
C489 C488 1.388 . S
C489 C520 1.519 . S
C490 C484 1.492 . S
C490 C491 1.363 . S
C490 C495 1.390 . S
C491 H456 0.930 . S
C491 C490 1.363 . S
C491 C492 1.372 . S
C492 H457 0.930 . S
C492 C491 1.372 . S
C492 C493 1.383 . S
C493 C492 1.383 . S
C493 C494 1.395 . S
C494 H458 0.930 . S
C494 C493 1.395 . S
C494 C495 1.362 . S
C495 H459 0.930 . S
C495 C490 1.390 . S
C495 C494 1.362 . S
C496 C485 1.492 . S
C496 C497 1.377 . S
C496 C501 1.397 . S
C497 H460 0.931 . S
C497 C496 1.377 . S
C497 C498 1.376 . S
C498 H461 0.930 . S
C498 C497 1.376 . S
C498 C499 1.376 . S
C499 C498 1.376 . S
C499 C500 1.378 . S
C499 C526 1.486 . S
C500 H462 0.930 . S
C500 C499 1.378 . S
C500 C501 1.376 . S
C501 H463 0.929 . S
C501 C496 1.397 . S
C501 C500 1.376 . S
C502 C486 1.509 . S
C502 C503 1.391 . S
C502 C507 1.386 . S
C503 H464 0.930 . S
C503 C502 1.391 . S
C503 C504 1.375 . S
C504 H465 0.931 . S
C504 C503 1.375 . S
C504 C505 1.375 . S
C505 C504 1.375 . S
C505 C506 1.361 . S
C506 H466 0.930 . S
C506 C505 1.361 . S
C506 C507 1.399 . S
C507 H467 0.929 . S
C507 C502 1.386 . S
C507 C506 1.399 . S
C508 C487 1.485 . S
C508 C509 1.394 . S
C508 C513 1.360 . S
C509 H468 0.931 . S
C509 C508 1.394 . S
C509 C510 1.372 . S
C510 H469 0.930 . S
C510 C509 1.372 . S
C510 C511 1.397 . S
C511 C510 1.397 . S
C511 C512 1.390 . S
C511 C527 1.476 . S
C512 H470 0.930 . S
C512 C511 1.390 . S
C512 C513 1.366 . S
C513 H471 0.932 . S
C513 C508 1.360 . S
C513 C512 1.366 . S
C514 C488 1.490 . S
C514 C515 1.380 . S
C514 C519 1.386 . S
C515 H472 0.930 . S
C515 C514 1.380 . S
C515 C516 1.381 . S
C516 H473 0.929 . S
C516 C515 1.381 . S
C516 C517 1.371 . S
C517 C516 1.371 . S
C517 C518 1.380 . S
C518 H474 0.931 . S
C518 C517 1.380 . S
C518 C519 1.387 . S
C519 H475 0.930 . S
C519 C514 1.386 . S
C519 C518 1.387 . S
C520 C489 1.519 . S
C520 C521 1.377 . S
C520 C525 1.361 . S
C521 H476 0.929 . S
C521 C520 1.377 . S
C521 C522 1.386 . S
C522 H477 0.931 . S
C522 C521 1.386 . S
C522 C523 1.363 . S
C523 C522 1.363 . S
C523 C524 1.385 . S
C524 H478 0.930 . S
C524 C523 1.385 . S
C524 C525 1.396 . S
C525 H479 0.929 . S
C525 C520 1.361 . S
C525 C524 1.396 . S
C526 O480 1.300 . S
C526 O481 1.209 . S
C526 C499 1.486 . S
C527 O482 1.199 . S
C527 O483 1.297 1_545 S
C527 C511 1.476 . S
H528 C534 0.930 . S
H529 C537 0.930 . S
H530 C538 0.930 . S
H531 C539 0.930 . S
H532 C542 0.930 . S
H533 C543 0.930 . S
C534 H528 0.930 . S
C534 C535 1.355 . S
C534 C536 1.415 . S
C535 C534 1.355 . S
C535 C537 1.419 . S
C536 C534 1.415 . S
C536 C541 1.425 . S
C536 C543 1.409 . S
C537 H529 0.930 . S
C537 C535 1.419 . S
C537 C538 1.362 . S
C538 H530 0.930 . S
C538 C537 1.362 . S
C538 C541 1.409 . S
C539 H531 0.930 . S
C539 C540 1.355 . S
C539 C541 1.415 . S
C540 C539 1.355 . S
C540 C542 1.419 . S
C541 C536 1.425 . S
C541 C538 1.409 . S
C541 C539 1.415 . S
C542 H532 0.930 . S
C542 C540 1.419 . S
C542 C543 1.362 . S
C543 H533 0.930 . S
C543 C536 1.409 . S
C543 C542 1.362 . S
H544 C550 0.930 . S
H545 C553 0.930 . S
H546 C554 0.930 . S
H547 C555 0.930 . S
H548 C558 0.930 . S
H549 C559 0.930 . S
C550 H544 0.930 . S
C550 C551 1.355 . S
C550 C552 1.415 . S
C551 C550 1.355 . S
C551 C553 1.419 . S
C552 C550 1.415 . S
C552 C557 1.425 . S
C552 C559 1.409 . S
C553 H545 0.930 . S
C553 C551 1.419 . S
C553 C554 1.362 . S
C554 H546 0.930 . S
C554 C553 1.362 . S
C554 C557 1.409 . S
C555 H547 0.930 . S
C555 C556 1.355 . S
C555 C557 1.415 . S
C556 C555 1.355 . S
C556 C558 1.419 . S
C557 C552 1.425 . S
C557 C554 1.409 . S
C557 C555 1.415 . S
C558 H548 0.930 . S
C558 C556 1.419 . S
C558 C559 1.362 . S
C559 H549 0.930 . S
C559 C552 1.409 . S
C559 C558 1.362 . S
H560 C566 0.930 . S
H561 C569 0.930 . S
H562 C570 0.930 . S
H563 C571 0.930 . S
H564 C574 0.930 . S
H565 C575 0.930 . S
C566 H560 0.930 . S
C566 C567 1.355 . S
C566 C568 1.415 . S
C567 C566 1.355 . S
C567 C569 1.419 . S
C568 C566 1.415 . S
C568 C573 1.425 . S
C568 C575 1.409 . S
C569 H561 0.930 . S
C569 C567 1.419 . S
C569 C570 1.362 . S
C570 H562 0.930 . S
C570 C569 1.362 . S
C570 C573 1.409 . S
C571 H563 0.930 . S
C571 C572 1.355 . S
C571 C573 1.415 . S
C572 C571 1.355 . S
C572 C574 1.419 . S
C573 C568 1.425 . S
C573 C570 1.409 . S
C573 C571 1.415 . S
C574 H564 0.930 . S
C574 C572 1.419 . S
C574 C575 1.362 . S
C575 H565 0.930 . S
C575 C568 1.409 . S
C575 C574 1.362 . S
H576 C582 0.930 . S
H577 C585 0.930 . S
H578 C586 0.930 . S
H579 C587 0.930 1_455 S
H580 C590 0.930 . S
H581 C591 0.930 . S
C582 H576 0.930 . S
C582 C583 1.355 . S
C582 C584 1.415 . S
C583 C582 1.355 . S
C583 C585 1.419 1_655 S
C584 C582 1.415 . S
C584 C589 1.425 . S
C584 C591 1.409 . S
C585 H577 0.930 . S
C585 C583 1.419 1_455 S
C585 C586 1.362 . S
C586 H578 0.930 . S
C586 C585 1.362 . S
C586 C589 1.409 1_455 S
C587 H579 0.930 1_655 S
C587 C588 1.355 . S
C587 C589 1.415 . S
C588 C587 1.355 . S
C588 C590 1.419 . S
C589 C584 1.425 . S
C589 C586 1.409 1_655 S
C589 C587 1.415 . S
C590 H580 0.930 . S
C590 C588 1.419 . S
C590 C591 1.362 . S
C591 H581 0.930 . S
C591 C584 1.409 . S
C591 C590 1.362 . S
H592 C598 0.930 . S
H593 C601 0.930 . S
H594 C602 0.930 . S
H595 C603 0.930 . S
H596 C606 0.930 . S
H597 C607 0.930 . S
C598 H592 0.930 . S
C598 C599 1.355 1_565 S
C598 C600 1.415 . S
C599 C598 1.355 1_545 S
C599 C601 1.419 . S
C600 C598 1.415 . S
C600 C605 1.425 . S
C600 C607 1.409 . S
C601 H593 0.930 . S
C601 C599 1.419 . S
C601 C602 1.362 . S
C602 H594 0.930 . S
C602 C601 1.362 . S
C602 C605 1.409 1_545 S
C603 H595 0.930 . S
C603 C604 1.355 . S
C603 C605 1.415 . S
C604 C603 1.355 . S
C604 C606 1.419 . S
C605 C600 1.425 . S
C605 C602 1.409 1_565 S
C605 C603 1.415 . S
C606 H596 0.930 . S
C606 C604 1.419 . S
C606 C607 1.362 . S
C607 H597 0.930 . S
C607 C600 1.409 . S
C607 C606 1.362 . S
H608 C614 0.930 . S
H609 C617 0.930 . S
H610 C618 0.930 . S
H611 C619 0.930 . S
H612 C622 0.930 . S
H613 C623 0.930 . S
C614 H608 0.930 . S
C614 C615 1.355 . S
C614 C616 1.415 . S
C615 C614 1.355 . S
C615 C617 1.419 . S
C616 C614 1.415 . S
C616 C621 1.425 . S
C616 C623 1.409 . S
C617 H609 0.930 . S
C617 C615 1.419 . S
C617 C618 1.362 . S
C618 H610 0.930 . S
C618 C617 1.362 . S
C618 C621 1.409 . S
C619 H611 0.930 . S
C619 C620 1.355 . S
C619 C621 1.415 . S
C620 C619 1.355 . S
C620 C622 1.419 . S
C621 C616 1.425 . S
C621 C618 1.409 . S
C621 C619 1.415 . S
C622 H612 0.930 . S
C622 C620 1.419 . S
C622 C623 1.362 . S
C623 H613 0.930 . S
C623 C616 1.409 . S
C623 C622 1.362 . S
H624 C630 0.930 . S
H625 C633 0.930 . S
H626 C634 0.930 . S
H627 C635 0.930 . S
H628 C638 0.930 . S
H629 C639 0.930 . S
C630 H624 0.930 . S
C630 C631 1.355 . S
C630 C632 1.415 . S
C631 C630 1.355 . S
C631 C633 1.419 . S
C632 C630 1.415 . S
C632 C637 1.425 . S
C632 C639 1.409 . S
C633 H625 0.930 . S
C633 C631 1.419 . S
C633 C634 1.362 . S
C634 H626 0.930 . S
C634 C633 1.362 . S
C634 C637 1.409 . S
C635 H627 0.930 . S
C635 C636 1.355 . S
C635 C637 1.415 . S
C636 C635 1.355 . S
C636 C638 1.419 . S
C637 C632 1.425 . S
C637 C634 1.409 . S
C637 C635 1.415 . S
C638 H628 0.930 . S
C638 C636 1.419 . S
C638 C639 1.362 . S
C639 H629 0.930 . S
C639 C632 1.409 . S
C639 C638 1.362 . S
H640 C646 0.930 . S
H641 C649 0.930 . S
H642 C650 0.930 . S
H643 C651 0.930 . S
H644 C654 0.930 . S
H645 C655 0.930 . S
C646 H640 0.930 . S
C646 C647 1.355 1_556 S
C646 C648 1.415 . S
C647 C646 1.355 1_554 S
C647 C649 1.419 . S
C648 C646 1.415 . S
C648 C653 1.425 . S
C648 C655 1.409 . S
C649 H641 0.930 . S
C649 C647 1.419 . S
C649 C650 1.362 . S
C650 H642 0.930 . S
C650 C649 1.362 . S
C650 C653 1.409 1_554 S
C651 H643 0.930 . S
C651 C652 1.355 . S
C651 C653 1.415 . S
C652 C651 1.355 . S
C652 C654 1.419 . S
C653 C648 1.425 . S
C653 C650 1.409 1_556 S
C653 C651 1.415 . S
C654 H644 0.930 . S
C654 C652 1.419 . S
C654 C655 1.362 . S
C655 H645 0.930 . S
C655 C648 1.409 . S
C655 C654 1.362 . S
H656 C662 0.930 . S
H657 C665 0.930 . S
H658 C666 0.930 . S
H659 C667 0.930 . S
H660 C670 0.930 . S
H661 C671 0.930 . S
C662 H656 0.930 . S
C662 C663 1.355 . S
C662 C664 1.415 . S
C663 C662 1.355 . S
C663 C665 1.419 . S
C664 C662 1.415 . S
C664 C669 1.425 . S
C664 C671 1.409 . S
C665 H657 0.930 . S
C665 C663 1.419 . S
C665 C666 1.362 . S
C666 H658 0.930 . S
C666 C665 1.362 . S
C666 C669 1.409 . S
C667 H659 0.930 . S
C667 C668 1.355 . S
C667 C669 1.415 . S
C668 C667 1.355 . S
C668 C670 1.419 . S
C669 C664 1.425 . S
C669 C666 1.409 . S
C669 C667 1.415 . S
C670 H660 0.930 . S
C670 C668 1.419 . S
C670 C671 1.362 . S
C671 H661 0.930 . S
C671 C664 1.409 . S
C671 C670 1.362 . S
H672 C678 0.930 . S
H673 C681 0.930 . S
H674 C682 0.930 . S
H675 C683 0.930 . S
H676 C686 0.930 . S
H677 C687 0.930 . S
C678 H672 0.930 . S
C678 C679 1.355 . S
C678 C680 1.415 1_554 S
C679 C678 1.355 . S
C679 C681 1.419 . S
C680 C678 1.415 1_556 S
C680 C685 1.425 . S
C680 C687 1.409 . S
C681 H673 0.930 . S
C681 C679 1.419 . S
C681 C682 1.362 . S
C682 H674 0.930 . S
C682 C681 1.362 . S
C682 C685 1.409 1_554 S
C683 H675 0.930 . S
C683 C684 1.355 . S
C683 C685 1.415 . S
C684 C683 1.355 . S
C684 C686 1.419 . S
C685 C680 1.425 . S
C685 C682 1.409 1_556 S
C685 C683 1.415 . S
C686 H676 0.930 . S
C686 C684 1.419 . S
C686 C687 1.362 . S
C687 H677 0.930 . S
C687 C680 1.409 . S
C687 C686 1.362 . S
H688 C694 0.930 . S
H689 C697 0.930 . S
H690 C698 0.930 . S
H691 C699 0.930 . S
H692 C702 0.930 . S
H693 C703 0.930 . S
C694 H688 0.930 . S
C694 C695 1.355 . S
C694 C696 1.415 . S
C695 C694 1.355 . S
C695 C697 1.419 . S
C696 C694 1.415 . S
C696 C701 1.425 . S
C696 C703 1.409 . S
C697 H689 0.930 . S
C697 C695 1.419 . S
C697 C698 1.362 . S
C698 H690 0.930 . S
C698 C697 1.362 . S
C698 C701 1.409 . S
C699 H691 0.930 . S
C699 C700 1.355 . S
C699 C701 1.415 . S
C700 C699 1.355 . S
C700 C702 1.419 . S
C701 C696 1.425 . S
C701 C698 1.409 . S
C701 C699 1.415 . S
C702 H692 0.930 . S
C702 C700 1.419 . S
C702 C703 1.362 . S
C703 H693 0.930 . S
C703 C696 1.409 . S
C703 C702 1.362 . S
H704 C710 0.930 . S
H705 C713 0.930 . S
H706 C714 0.930 . S
H707 C715 0.930 . S
H708 C718 0.930 . S
H709 C719 0.930 . S
C710 H704 0.930 . S
C710 C711 1.355 . S
C710 C712 1.415 . S
C711 C710 1.355 . S
C711 C713 1.419 . S
C712 C710 1.415 . S
C712 C717 1.425 . S
C712 C719 1.409 . S
C713 H705 0.930 . S
C713 C711 1.419 . S
C713 C714 1.362 . S
C714 H706 0.930 . S
C714 C713 1.362 . S
C714 C717 1.409 . S
C715 H707 0.930 . S
C715 C716 1.355 . S
C715 C717 1.415 . S
C716 C715 1.355 . S
C716 C718 1.419 . S
C717 C712 1.425 . S
C717 C714 1.409 . S
C717 C715 1.415 . S
C718 H708 0.930 . S
C718 C716 1.419 . S
C718 C719 1.362 . S
C719 H709 0.930 . S
C719 C712 1.409 . S
C719 C718 1.362 . S
H720 C726 0.930 . S
H721 C729 0.930 . S
H722 C730 0.930 . S
H723 C731 0.930 . S
H724 C734 0.901 1_655 S
H725 C735 0.930 . S
C726 H720 0.930 . S
C726 C727 1.355 . S
C726 C728 1.415 . S
C727 C726 1.355 . S
C727 C729 1.419 . S
C728 C726 1.415 . S
C728 C733 1.425 . S
C728 C735 1.409 . S
C729 H721 0.930 . S
C729 C727 1.419 . S
C729 C730 1.362 . S
C730 H722 0.930 . S
C730 C729 1.362 . S
C730 C733 1.409 . S
C731 H723 0.930 . S
C731 C732 1.355 . S
C731 C733 1.415 . S
C732 C731 1.355 . S
C732 C734 1.420 . S
C733 C728 1.425 . S
C733 C730 1.409 . S
C733 C731 1.415 . S
C734 H724 0.901 1_455 S
C734 C732 1.420 . S
C734 C735 1.390 . S
C735 H725 0.930 . S
C735 C728 1.409 . S
C735 C734 1.390 . S
H736 C742 0.930 . S
H737 C745 0.930 . S
H738 C746 0.930 . S
H739 C747 0.930 . S
H740 C750 0.930 . S
H741 C751 0.930 . S
C742 H736 0.930 . S
C742 C743 1.355 . S
C742 C744 1.415 . S
C743 C742 1.355 . S
C743 C745 1.419 . S
C744 C742 1.415 . S
C744 C749 1.425 . S
C744 C751 1.409 . S
C745 H737 0.930 . S
C745 C743 1.419 . S
C745 C746 1.362 . S
C746 H738 0.930 . S
C746 C745 1.362 . S
C746 C749 1.409 . S
C747 H739 0.930 . S
C747 C748 1.355 . S
C747 C749 1.415 . S
C748 C747 1.355 . S
C748 C750 1.419 . S
C749 C744 1.425 . S
C749 C746 1.409 . S
C749 C747 1.415 . S
C750 H740 0.930 . S
C750 C748 1.419 . S
C750 C751 1.362 . S
C751 H741 0.930 . S
C751 C744 1.409 . S
C751 C750 1.362 . S
H752 C758 0.930 . S
H753 C761 0.930 . S
H754 C762 0.930 . S
H755 C763 0.930 . S
H756 C766 0.930 . S
H757 C767 0.930 . S
C758 H752 0.930 . S
C758 C759 1.355 1_556 S
C758 C760 1.415 . S
C759 C758 1.355 1_554 S
C759 C761 1.419 . S
C760 C758 1.415 . S
C760 C765 1.425 . S
C760 C767 1.409 . S
C761 H753 0.930 . S
C761 C759 1.419 . S
C761 C762 1.362 . S
C762 H754 0.930 . S
C762 C761 1.362 . S
C762 C765 1.409 1_554 S
C763 H755 0.930 . S
C763 C764 1.355 . S
C763 C765 1.415 . S
C764 C763 1.355 . S
C764 C766 1.419 . S
C765 C760 1.425 . S
C765 C762 1.409 1_556 S
C765 C763 1.415 . S
C766 H756 0.930 . S
C766 C764 1.419 . S
C766 C767 1.362 . S
C767 H757 0.930 . S
C767 C760 1.409 . S
C767 C766 1.362 . S
H768 C774 0.930 . S
H769 C777 0.930 . S
H770 C778 0.930 . S
H771 C779 0.930 . S
H772 C782 0.930 . S
H773 C783 0.930 . S
C774 H768 0.930 . S
C774 C775 1.355 . S
C774 C776 1.415 . S
C775 C774 1.355 . S
C775 C777 1.419 . S
C776 C774 1.415 . S
C776 C781 1.425 . S
C776 C783 1.409 . S
C777 H769 0.930 . S
C777 C775 1.419 . S
C777 C778 1.362 . S
C778 H770 0.930 . S
C778 C777 1.362 . S
C778 C781 1.409 . S
C779 H771 0.930 . S
C779 C780 1.355 . S
C779 C781 1.415 . S
C780 C779 1.355 . S
C780 C782 1.419 . S
C781 C776 1.425 . S
C781 C778 1.409 . S
C781 C779 1.415 . S
C782 H772 0.930 . S
C782 C780 1.419 . S
C782 C783 1.362 . S
C783 H773 0.930 . S
C783 C776 1.409 . S
C783 C782 1.362 . S
H784 C790 0.930 . S
H785 C793 0.927 1_556 S
H786 C794 0.930 . S
H787 C795 0.930 . S
H788 C798 0.930 . S
H789 C799 0.930 . S
C790 H784 0.930 . S
C790 C791 1.355 . S
C790 C792 1.415 . S
C791 C790 1.355 . S
C791 C793 1.427 . S
C792 C790 1.415 . S
C792 C797 1.425 1_554 S
C792 C799 1.409 . S
C793 H785 0.927 1_554 S
C793 C791 1.427 . S
C793 C794 1.357 1_554 S
C794 H786 0.930 . S
C794 C793 1.357 1_556 S
C794 C797 1.409 . S
C795 H787 0.930 . S
C795 C796 1.355 . S
C795 C797 1.415 . S
C796 C795 1.355 . S
C796 C798 1.419 1_556 S
C797 C792 1.425 1_556 S
C797 C794 1.409 . S
C797 C795 1.415 . S
C798 H788 0.930 . S
C798 C796 1.419 1_554 S
C798 C799 1.362 . S
C799 H789 0.930 . S
C799 C792 1.409 . S
C799 C798 1.362 . S
H800 C806 0.930 . S
H801 C809 0.930 . S
H802 C810 0.930 . S
H803 C811 0.930 . S
H804 C814 0.930 . S
H805 C815 0.930 . S
C806 H800 0.930 . S
C806 C807 1.355 . S
C806 C808 1.415 . S
C807 C806 1.355 . S
C807 C809 1.419 . S
C808 C806 1.415 . S
C808 C813 1.425 . S
C808 C815 1.409 . S
C809 H801 0.930 . S
C809 C807 1.419 . S
C809 C810 1.362 . S
C810 H802 0.930 . S
C810 C809 1.362 . S
C810 C813 1.409 . S
C811 H803 0.930 . S
C811 C812 1.355 . S
C811 C813 1.415 . S
C812 C811 1.355 . S
C812 C814 1.419 . S
C813 C808 1.425 . S
C813 C810 1.409 . S
C813 C811 1.415 . S
C814 H804 0.930 . S
C814 C812 1.419 . S
C814 C815 1.362 . S
C815 H805 0.930 . S
C815 C808 1.409 . S
C815 C814 1.362 . S
H816 C822 0.930 . S
H817 C825 0.930 . S
H818 C826 0.930 . S
H819 C827 0.930 . S
H820 C830 0.930 . S
H821 C831 0.930 . S
C822 H816 0.930 . S
C822 C823 1.355 . S
C822 C824 1.415 . S
C823 C822 1.355 . S
C823 C825 1.419 . S
C824 C822 1.415 . S
C824 C829 1.425 . S
C824 C831 1.409 . S
C825 H817 0.930 . S
C825 C823 1.419 . S
C825 C826 1.362 . S
C826 H818 0.930 . S
C826 C825 1.362 . S
C826 C829 1.409 . S
C827 H819 0.930 . S
C827 C828 1.355 . S
C827 C829 1.415 . S
C828 C827 1.355 . S
C828 C830 1.419 . S
C829 C824 1.425 . S
C829 C826 1.409 . S
C829 C827 1.415 . S
C830 H820 0.930 . S
C830 C828 1.419 . S
C830 C831 1.362 . S
C831 H821 0.930 . S
C831 C824 1.409 . S
C831 C830 1.362 . S
H832 C838 0.930 . S
H833 C841 0.930 . S
H834 C842 0.930 . S
H835 C843 0.930 . S
H836 C846 0.930 . S
H837 C847 0.930 . S
C838 H832 0.930 . S
C838 C839 1.355 . S
C838 C840 1.415 . S
C839 C838 1.355 . S
C839 C841 1.419 . S
C840 C838 1.415 . S
C840 C845 1.425 . S
C840 C847 1.409 . S
C841 H833 0.930 . S
C841 C839 1.419 . S
C841 C842 1.362 . S
C842 H834 0.930 . S
C842 C841 1.362 . S
C842 C845 1.409 . S
C843 H835 0.930 . S
C843 C844 1.355 . S
C843 C845 1.415 . S
C844 C843 1.355 . S
C844 C846 1.419 . S
C845 C840 1.425 . S
C845 C842 1.409 . S
C845 C843 1.415 . S
C846 H836 0.930 . S
C846 C844 1.419 . S
C846 C847 1.362 . S
C847 H837 0.930 . S
C847 C840 1.409 . S
C847 C846 1.362 . S
H848 C854 0.930 . S
H849 C857 0.930 . S
H850 C858 0.930 . S
H851 C859 0.930 . S
H852 C862 0.930 . S
H853 C863 0.930 . S
C854 H848 0.930 . S
C854 C855 1.355 . S
C854 C856 1.415 . S
C855 C854 1.355 . S
C855 C857 1.419 . S
C856 C854 1.415 . S
C856 C861 1.425 . S
C856 C863 1.409 . S
C857 H849 0.930 . S
C857 C855 1.419 . S
C857 C858 1.362 . S
C858 H850 0.930 . S
C858 C857 1.362 . S
C858 C861 1.409 . S
C859 H851 0.930 . S
C859 C860 1.355 . S
C859 C861 1.415 . S
C860 C859 1.355 . S
C860 C862 1.419 . S
C861 C856 1.425 . S
C861 C858 1.409 . S
C861 C859 1.415 . S
C862 H852 0.930 . S
C862 C860 1.419 . S
C862 C863 1.362 . S
C863 H853 0.930 . S
C863 C856 1.409 . S
C863 C862 1.362 . S
H864 C870 0.930 . S
H865 C873 0.930 . S
H866 C874 0.930 . S
H867 C875 0.930 1_545 S
H868 C878 0.930 . S
H869 C879 0.930 . S
C870 H864 0.930 . S
C870 C871 1.355 1_565 S
C870 C872 1.415 . S
C871 C870 1.355 1_545 S
C871 C873 1.419 . S
C872 C870 1.415 . S
C872 C877 1.425 1_565 S
C872 C879 1.409 . S
C873 H865 0.930 . S
C873 C871 1.419 . S
C873 C874 1.362 . S
C874 H866 0.930 . S
C874 C873 1.362 . S
C874 C877 1.409 . S
C875 H867 0.930 1_565 S
C875 C876 1.355 . S
C875 C877 1.415 1_565 S
C876 C875 1.355 . S
C876 C878 1.419 . S
C877 C872 1.425 1_545 S
C877 C874 1.409 . S
C877 C875 1.415 1_545 S
C878 H868 0.930 . S
C878 C876 1.419 . S
C878 C879 1.362 . S
C879 H869 0.930 . S
C879 C872 1.409 . S
C879 C878 1.362 . S
H880 C886 0.930 . S
H881 C889 0.930 . S
H882 C890 0.930 . S
H883 C891 0.930 . S
H884 C894 0.930 . S
H885 C895 0.930 . S
C886 H880 0.930 . S
C886 C887 1.355 . S
C886 C888 1.415 . S
C887 C886 1.355 . S
C887 C889 1.419 . S
C888 C886 1.415 . S
C888 C893 1.425 . S
C888 C895 1.409 . S
C889 H881 0.930 . S
C889 C887 1.419 . S
C889 C890 1.362 . S
C890 H882 0.930 . S
C890 C889 1.362 . S
C890 C893 1.409 . S
C891 H883 0.930 . S
C891 C892 1.355 . S
C891 C893 1.415 . S
C892 C891 1.355 . S
C892 C894 1.419 . S
C893 C888 1.425 . S
C893 C890 1.409 . S
C893 C891 1.415 . S
C894 H884 0.930 . S
C894 C892 1.419 . S
C894 C895 1.362 . S
C895 H885 0.930 . S
C895 C888 1.409 . S
C895 C894 1.362 . S
H896 C902 0.930 . S
H897 C905 0.930 . S
H898 C906 0.930 . S
H899 C907 0.930 . S
H900 C910 0.930 . S
H901 C911 0.930 . S
C902 H896 0.930 . S
C902 C903 1.355 . S
C902 C904 1.415 . S
C903 C902 1.355 . S
C903 C905 1.419 . S
C904 C902 1.415 . S
C904 C909 1.425 . S
C904 C911 1.409 . S
C905 H897 0.930 . S
C905 C903 1.419 . S
C905 C906 1.362 . S
C906 H898 0.930 . S
C906 C905 1.362 . S
C906 C909 1.409 . S
C907 H899 0.930 . S
C907 C908 1.355 . S
C907 C909 1.415 . S
C908 C907 1.355 . S
C908 C910 1.419 . S
C909 C904 1.425 . S
C909 C906 1.409 . S
C909 C907 1.415 . S
C910 H900 0.930 . S
C910 C908 1.419 . S
C910 C911 1.362 . S
C911 H901 0.930 . S
C911 C904 1.409 . S
C911 C910 1.362 . S
C535 C13 2.196 . S
C540 C147 2.156 . S
C551 C27 1.432 . S
C556 C221 1.407 . S
C572 C271 1.792 . S
C567 C29 1.835 . S
C588 C357 1.343 . S
C583 C54 1.355 . S
C604 C449 1.845 . S
C599 C69 1.849 . S
C620 C493 1.834 . S
C615 C83 1.870 . S
C631 C15 1.397 . S
C636 C295 1.318 . S
C647 C41 2.436 . S
C652 C375 2.379 . S
C668 C431 1.431 . S
C663 C42 1.417 . S
C684 C517 1.469 . S
C679 C57 1.528 . S
C695 C71 2.160 . S
C700 C123 2.032 . S
C716 C197 1.863 . S
C711 C1 1.866 . S
C732 C369 1.975 1_455 S
C727 C12 2.196 . S
C743 C26 2.228 . S
C748 C419 2.020 . S
C764 C523 2.272 . S
C759 C28 2.404 . S
C775 C55 1.514 . S
C780 C135 1.421 . S
C791 C68 2.100 . S
C796 C209 2.000 . S
C807 C82 2.418 . S
C812 C301 2.308 . S
C823 C14 2.059 . S
C828 C505 1.953 . S
C844 C153 2.102 . S
C839 C40 2.154 . S
C855 C43 2.407 . S
C860 C227 2.283 . S
C871 C56 1.886 . S
C876 C283 1.724 . S
C887 C70 1.754 . S
C892 C345 1.563 . S
C903 C0 2.223 . S
C908 C443 2.070 . S
