# Generated by pormake.
# Topology pto, (3,4)-cn, num edge types: 1
# Building blocks:
#     Node 0, Type 0, BuildingBlock: BETDIP_clean_linker_0, # of connection points: 3
#     Node 1, Type 0, BuildingBlock: BETDIP_clean_linker_0, # of connection points: 3
#     Node 2, Type 0, BuildingBlock: BETDIP_clean_linker_0, # of connection points: 3
#     Node 3, Type 0, BuildingBlock: BETDIP_clean_linker_0, # of connection points: 3
#     Node 4, Type 0, BuildingBlock: BETDIP_clean_linker_0, # of connection points: 3
#     Node 5, Type 0, BuildingBlock: BETDIP_clean_linker_0, # of connection points: 3
#     Node 6, Type 0, BuildingBlock: BETDIP_clean_linker_0, # of connection points: 3
#     Node 7, Type 0, BuildingBlock: BETDIP_clean_linker_0, # of connection points: 3
#     Node 8, Type 1, BuildingBlock: NAWXER_clean_sbu_0, # of connection points: 4
#     Node 9, Type 1, BuildingBlock: NAWXER_clean_sbu_0, # of connection points: 4
#     Node 10, Type 1, BuildingBlock: NAWXER_clean_sbu_0, # of connection points: 4
#     Node 11, Type 1, BuildingBlock: NAWXER_clean_sbu_0, # of connection points: 4
#     Node 12, Type 1, BuildingBlock: NAWXER_clean_sbu_0, # of connection points: 4
#     Node 13, Type 1, BuildingBlock: NAWXER_clean_sbu_0, # of connection points: 4
#     Edge 14, Type (0, 1), BuildingBlock: EZIPEK_clean_linker_0, # of connection points: 2
#     Edge 15, Type (0, 1), BuildingBlock: EZIPEK_clean_linker_0, # of connection points: 2
#     Edge 16, Type (0, 1), BuildingBlock: EZIPEK_clean_linker_0, # of connection points: 2
#     Edge 17, Type (0, 1), BuildingBlock: EZIPEK_clean_linker_0, # of connection points: 2
#     Edge 18, Type (0, 1), BuildingBlock: EZIPEK_clean_linker_0, # of connection points: 2
#     Edge 19, Type (0, 1), BuildingBlock: EZIPEK_clean_linker_0, # of connection points: 2
#     Edge 20, Type (0, 1), BuildingBlock: EZIPEK_clean_linker_0, # of connection points: 2
#     Edge 21, Type (0, 1), BuildingBlock: EZIPEK_clean_linker_0, # of connection points: 2
#     Edge 22, Type (0, 1), BuildingBlock: EZIPEK_clean_linker_0, # of connection points: 2
#     Edge 23, Type (0, 1), BuildingBlock: EZIPEK_clean_linker_0, # of connection points: 2
#     Edge 24, Type (0, 1), BuildingBlock: EZIPEK_clean_linker_0, # of connection points: 2
#     Edge 25, Type (0, 1), BuildingBlock: EZIPEK_clean_linker_0, # of connection points: 2
#     Edge 26, Type (0, 1), BuildingBlock: EZIPEK_clean_linker_0, # of connection points: 2
#     Edge 27, Type (0, 1), BuildingBlock: EZIPEK_clean_linker_0, # of connection points: 2
#     Edge 28, Type (0, 1), BuildingBlock: EZIPEK_clean_linker_0, # of connection points: 2
#     Edge 29, Type (0, 1), BuildingBlock: EZIPEK_clean_linker_0, # of connection points: 2
#     Edge 30, Type (0, 1), BuildingBlock: EZIPEK_clean_linker_0, # of connection points: 2
#     Edge 31, Type (0, 1), BuildingBlock: EZIPEK_clean_linker_0, # of connection points: 2
#     Edge 32, Type (0, 1), BuildingBlock: EZIPEK_clean_linker_0, # of connection points: 2
#     Edge 33, Type (0, 1), BuildingBlock: EZIPEK_clean_linker_0, # of connection points: 2
#     Edge 34, Type (0, 1), BuildingBlock: EZIPEK_clean_linker_0, # of connection points: 2
#     Edge 35, Type (0, 1), BuildingBlock: EZIPEK_clean_linker_0, # of connection points: 2
#     Edge 36, Type (0, 1), BuildingBlock: EZIPEK_clean_linker_0, # of connection points: 2
#     Edge 37, Type (0, 1), BuildingBlock: EZIPEK_clean_linker_0, # of connection points: 2
# Relax obj value: 0.017
# Max RMSD: 0.142
# Mean RMSD: 0.061
data_MOF--net-pto--node1-NAWXER_clean_sbu_0--node2-BETDIP_clean_linker_0--edge1-EZIPEK_clean_linker_0
_symmetry_space_group_name_H-M    P1
_symmetry_Int_Tables_number       1
_symmetry_cell_setting            triclinic
loop_
_symmetry_equiv_pos_as_xyz
'x, y, z'
_cell_length_a     29.976175
_cell_length_b     29.051041
_cell_length_c     27.399872
_cell_angle_alpha  101.28858
_cell_angle_beta   101.19092
_cell_angle_gamma 102.89966
loop_
_atom_site_label
_atom_site_type_symbol
_atom_site_fract_x
_atom_site_fract_y
_atom_site_fract_z
_atom_type_partial_charge
H0 H 0.197 0.33008 0.30744 0.0
H1 H 0.3427 0.34022 0.31201 0.0
H2 H 0.26805 0.41613 0.2194 0.0
H3 H 0.34313 0.32062 0.38844 0.0
C4 C 0.30927 0.29354 0.37918 0.0
C5 C 0.22852 0.34434 0.29532 0.0
C6 C 0.22808 0.37719 0.26372 0.0
C7 C 0.26995 0.33231 0.31449 0.0
C8 C 0.31082 0.35057 0.29881 0.0
C9 C 0.30987 0.37844 0.26209 0.0
C10 C 0.26866 0.39296 0.24594 0.0
N11 N 0.26871 0.29999 0.34747 0.0
H12 H 0.19991 0.80409 0.78159 0.0
H13 H 0.34081 0.83963 0.75943 0.0
H14 H 0.30951 0.7547 0.86566 0.0
H15 H 0.3257 0.91226 0.75771 0.0
C16 C 0.29035 0.89997 0.73244 0.0
C17 C 0.2363 0.80265 0.79112 0.0
C18 C 0.25045 0.77529 0.82569 0.0
C19 C 0.26946 0.82846 0.76919 0.0
C20 C 0.31558 0.82319 0.77873 0.0
C21 C 0.33012 0.79744 0.81397 0.0
C22 C 0.298 0.77483 0.83846 0.0
N23 N 0.25641 0.85929 0.73759 0.0
H24 H 0.73922 0.69135 0.20991 0.0
H25 H 0.81635 0.75782 0.36717 0.0
H26 H 0.71157 0.81907 0.29234 0.0
H27 H 0.87358 0.72108 0.33301 0.0
C28 C 0.85349 0.6893 0.30218 0.0
C29 C 0.74564 0.71897 0.24536 0.0
C30 C 0.72171 0.75488 0.24653 0.0
C31 C 0.78041 0.72013 0.28769 0.0
C32 C 0.78967 0.75672 0.33375 0.0
C33 C 0.76364 0.792 0.33599 0.0
C34 C 0.73014 0.79101 0.29184 0.0
N35 N 0.8052 0.68406 0.28044 0.0
H36 H 0.68215 0.24348 0.79622 0.0
H37 H 0.76835 0.38937 0.87055 0.0
H38 H 0.8245 0.28836 0.78065 0.0
H39 H 0.73435 0.36948 0.93678 0.0
C40 C 0.69763 0.35552 0.91514 0.0
C41 C 0.71551 0.27108 0.805 0.0
C42 C 0.75209 0.2611 0.78283 0.0
C43 C 0.72226 0.31662 0.83892 0.0
C44 C 0.76448 0.35311 0.84771 0.0
C45 C 0.80199 0.34333 0.82777 0.0
C46 C 0.79585 0.29655 0.79642 0.0
N47 N 0.6866 0.32549 0.86413 0.0
H48 H 0.80834 0.79106 0.87084 0.0
H49 H 0.87851 0.84257 0.761 0.0
H50 H 0.78314 0.91604 0.81952 0.0
H51 H 0.86094 0.75564 0.72923 0.0
C52 C 0.87622 0.74916 0.76574 0.0
C53 C 0.81579 0.81741 0.84841 0.0
C54 C 0.79314 0.855 0.85013 0.0
C55 C 0.84576 0.81191 0.81544 0.0
C56 C 0.8549 0.84589 0.78602 0.0
C57 C 0.83247 0.8835 0.78738 0.0
C58 C 0.80168 0.88798 0.81957 0.0
N59 N 0.86558 0.77155 0.81155 0.0
H60 H 0.71524 0.26515 0.30405 0.0
H61 H 0.86024 0.32891 0.38083 0.0
H62 H 0.78598 0.40403 0.2864 0.0
H63 H 0.86248 0.2531 0.37768 0.0
C64 C 0.82891 0.23748 0.38532 0.0
C65 C 0.74669 0.29542 0.3135 0.0
C66 C 0.74591 0.33522 0.2919 0.0
C67 C 0.78823 0.29328 0.34534 0.0
C68 C 0.82869 0.33302 0.35842 0.0
C69 C 0.82822 0.37654 0.34262 0.0
C70 C 0.78692 0.37492 0.30548 0.0
N71 N 0.78783 0.25168 0.36575 0.0
H72 H 0.13968 0.31959 0.77785 0.0
H73 H 0.24291 0.24885 0.835 0.0
H74 H 0.25446 0.39744 0.90975 0.0
H75 H 0.1884 0.17855 0.77951 0.0
C76 C 0.17677 0.19484 0.74859 0.0
C77 C 0.17101 0.32042 0.80595 0.0
C78 C 0.19482 0.36316 0.84407 0.0
C79 C 0.1876 0.27913 0.80233 0.0
C80 C 0.22874 0.28016 0.83807 0.0
C81 C 0.25282 0.32254 0.8774 0.0
C82 C 0.23584 0.36435 0.88012 0.0
N83 N 0.16441 0.23932 0.7591 0.0
H84 H 0.33715 0.89186 0.25616 0.0
H85 H 0.29715 0.73701 0.18558 0.0
H86 H 0.22464 0.7959 0.29286 0.0
H87 H 0.34119 0.75918 0.13093 0.0
C88 C 0.3666 0.79415 0.14993 0.0
C89 C 0.31475 0.85541 0.25063 0.0
C90 C 0.27992 0.84809 0.27785 0.0
C91 C 0.32119 0.81603 0.21657 0.0
C92 C 0.29247 0.76831 0.21068 0.0
C93 C 0.25746 0.76125 0.23843 0.0
C94 C 0.25142 0.80129 0.27137 0.0
N95 N 0.35776 0.82653 0.19073 0.0
C96 C 0.99306 0.50707 0.3297 0.0
C97 C 0.11274 0.61201 0.26855 0.0
O98 O 0.02912 0.54046 0.35803 0.0
Zn99 Zn 0.05491 0.56082 0.30254 0.0
O100 O 0.98678 0.49689 0.28085 0.0
Zn101 Zn 0.01983 0.52059 0.22411 0.0
O102 O 0.04004 0.463 0.19502 0.0
O103 O 0.08152 0.50235 0.27357 0.0
O104 O 0.08161 0.57877 0.2325 0.0
O105 O 0.1101 0.6158 0.31496 0.0
O106 O 0.99912 0.58632 0.26715 0.0
O107 O 0.96808 0.54232 0.18722 0.0
C108 C 0.07419 0.46802 0.23329 0.0
C109 C 0.96829 0.57649 0.22453 0.0
C110 C 0.96984 0.5049 0.86059 0.0
C111 C 0.10825 0.64245 0.87853 0.0
O112 O 0.99492 0.53387 0.90312 0.0
Zn113 Zn 0.0401 0.57628 0.87609 0.0
O114 O 0.98076 0.51157 0.81931 0.0
Zn115 Zn 0.03334 0.55299 0.7933 0.0
O116 O 0.06747 0.50497 0.77172 0.0
O117 O 0.07966 0.52734 0.85594 0.0
O118 O 0.08922 0.61444 0.83362 0.0
O119 O 0.09175 0.63431 0.91655 0.0
O120 O 0.99785 0.60925 0.82914 0.0
O121 O 0.99611 0.58145 0.74723 0.0
C122 C 0.08711 0.50202 0.81624 0.0
C123 C 0.98407 0.60892 0.78174 0.0
C124 C 0.27778 0.01506 0.58327 0.0
C125 C 0.28712 0.13718 0.4829 0.0
O126 O 0.23901 0.00842 0.54978 0.0
Zn127 Zn 0.21245 0.04221 0.4908 0.0
O128 O 0.31365 0.04939 0.58599 0.0
Zn129 Zn 0.2844 0.07521 0.53209 0.0
O130 O 0.23284 0.1003 0.56511 0.0
O131 O 0.16134 0.06164 0.51534 0.0
O132 O 0.31979 0.13315 0.5177 0.0
O133 O 0.24647 0.10601 0.4696 0.0
O134 O 0.19767 0.99156 0.42854 0.0
O135 O 0.2744 0.01941 0.46463 0.0
C136 C 0.18788 0.0922 0.55603 0.0
C137 C 0.23985 0.99065 0.4286 0.0
C138 C 0.61091 0.76337 0.05477 0.0
C139 C 0.50943 0.7838 0.90359 0.0
O140 O 0.58532 0.729 0.01653 0.0
Zn141 Zn 0.56109 0.77047 0.97723 0.0
O142 O 0.61329 0.80787 0.05501 0.0
Zn143 Zn 0.5839 0.84873 0.00841 0.0
O144 O 0.54862 0.87869 0.05286 0.0
O145 O 0.51972 0.79866 0.02436 0.0
O146 O 0.53276 0.82347 0.93716 0.0
O147 O 0.51476 0.74361 0.9121 0.0
O148 O 0.62111 0.80658 0.9551 0.0
O149 O 0.63909 0.8856 0.9907 0.0
C150 C 0.51819 0.83946 0.05085 0.0
C151 C 0.64744 0.84981 0.96236 0.0
C152 C 0.83767 0.00687 0.64609 0.0
C153 C 0.82559 0.10616 0.52068 0.0
O154 O 0.79552 1.00066 0.61982 0.0
Zn155 Zn 0.75928 0.02714 0.56078 0.0
O156 O 0.87225 0.03667 0.63842 0.0
Zn157 Zn 0.83465 0.05645 0.58408 0.0
O158 O 0.79641 0.09612 0.62727 0.0
O159 O 0.72005 0.05963 0.59737 0.0
O160 O 0.86331 0.10329 0.54918 0.0
O161 O 0.78563 0.08033 0.52251 0.0
O162 O 0.73357 0.96743 0.50428 0.0
O163 O 0.8113 0.98964 0.52511 0.0
C164 C 0.75357 0.09389 0.62887 0.0
C165 C 0.77239 0.95961 0.49746 0.0
C166 C 0.56981 0.33117 0.15202 0.0
C167 C 0.42809 0.32703 0.01823 0.0
O168 O 0.53769 0.29275 0.12559 0.0
Zn169 Zn 0.49702 0.32343 0.08399 0.0
O170 O 0.56572 0.37284 0.14622 0.0
Zn171 Zn 0.51831 0.40303 0.10177 0.0
O172 O 0.4935 0.43805 0.15591 0.0
O173 O 0.46562 0.3585 0.13717 0.0
O174 O 0.45405 0.36949 0.04365 0.0
O175 O 0.44 0.28945 0.02759 0.0
O176 O 0.54372 0.35225 0.04311 0.0
O177 O 0.55883 0.43213 0.06016 0.0
C178 C 0.46581 0.40061 0.16223 0.0
C179 C 0.56475 0.39265 0.03574 0.0
C180 C 0.16713 0.41538 0.29358 0.0
C181 C 0.18584 0.3968 0.25247 0.0
C182 C 0.12763 0.42159 0.19374 0.0
C183 C 0.10636 0.43528 0.23454 0.0
N184 N 0.09589 0.42511 0.31725 0.0
N185 N 0.17372 0.36977 0.16045 0.0
C186 C 0.12279 0.42532 0.28239 0.0
C187 C 0.16299 0.396 0.20149 0.0
N188 N 0.19259 0.42652 0.34345 0.0
N189 N 0.11635 0.43475 0.14873 0.0
H190 H 0.19749 0.34865 0.16451 0.0
H191 H 0.15515 0.36478 0.12262 0.0
H192 H 0.09151 0.45404 0.14132 0.0
H193 H 0.13475 0.42989 0.12035 0.0
H194 H 0.18109 0.44348 0.37399 0.0
H195 H 0.22739 0.42469 0.35372 0.0
H196 H 0.10536 0.41499 0.35148 0.0
H197 H 0.06165 0.42896 0.30858 0.0
C198 C 0.18791 0.76293 0.87657 0.0
C199 C 0.21579 0.7434 0.84583 0.0
C200 C 0.18675 0.66397 0.86268 0.0
C201 C 0.15198 0.68056 0.88344 0.0
N202 N 0.11761 0.7459 0.90906 0.0
N203 N 0.23248 0.67149 0.80022 0.0
C204 C 0.15232 0.73033 0.8908 0.0
C205 C 0.21307 0.69287 0.8367 0.0
N206 N 0.19596 0.81223 0.89299 0.0
N207 N 0.19299 0.61942 0.86594 0.0
H208 H 0.24783 0.69027 0.77627 0.0
H209 H 0.22796 0.63396 0.78939 0.0
H210 H 0.17374 0.5976 0.88501 0.0
H211 H 0.22037 0.60695 0.85469 0.0
H212 H 0.17945 0.82839 0.91905 0.0
H213 H 0.22231 0.83699 0.88418 0.0
H214 H 0.11269 0.78035 0.90951 0.0
H215 H 0.09223 0.72315 0.92127 0.0
C216 C 0.86114 0.60665 0.25908 0.0
C217 C 0.8786 0.65856 0.27329 0.0
C218 C 0.94245 0.65227 0.23003 0.0
C219 C 0.9299 0.60136 0.22401 0.0
N220 N 0.87435 0.52809 0.22474 0.0
N221 N 0.9339 0.73132 0.26877 0.0
C222 C 0.88747 0.57788 0.23475 0.0
C223 C 0.9186 0.68155 0.25748 0.0
N224 N 0.8206 0.58483 0.27086 0.0
N225 N 0.97639 0.67192 0.20756 0.0
H226 H 0.9153 0.7542 0.28457 0.0
H227 H 0.96591 0.75034 0.26406 0.0
H228 H 0.99082 0.64966 0.18409 0.0
H229 H 0.98626 0.70847 0.20706 0.0
H230 H 0.80267 0.54807 0.25664 0.0
H231 H 0.80413 0.60354 0.29505 0.0
H232 H 0.84682 0.50777 0.23609 0.0
H233 H 0.892 0.50653 0.20516 0.0
C234 C 0.86902 0.41312 0.88871 0.0
C235 C 0.84681 0.38307 0.83824 0.0
C236 C 0.91339 0.42362 0.80969 0.0
C237 C 0.92949 0.4615 0.85627 0.0
N238 N 0.91216 0.49488 0.93712 0.0
N239 N 0.84299 0.37295 0.74745 0.0
C240 C 0.90457 0.45715 0.89529 0.0
C241 C 0.86737 0.39226 0.79762 0.0
N242 N 0.85737 0.39939 0.93048 0.0
N243 N 0.9421 0.41519 0.77781 0.0
H244 H 0.80744 0.35341 0.73639 0.0
H245 H 0.85673 0.3819 0.71727 0.0
H246 H 0.97828 0.43172 0.78764 0.0
H247 H 0.93113 0.38609 0.74514 0.0
H248 H 0.87536 0.41867 0.96805 0.0
H249 H 0.83392 0.36594 0.92759 0.0
H250 H 0.8917 0.49329 0.9638 0.0
H251 H 0.934 0.52955 0.94207 0.0
C252 C 0.31316 0.26498 0.46038 0.0
C253 C 0.30453 0.25356 0.40598 0.0
C254 C 0.29133 0.16649 0.40332 0.0
C255 C 0.29542 0.17756 0.45709 0.0
N256 N 0.30339 0.23623 0.53605 0.0
N257 N 0.28211 0.19373 0.32462 0.0
C258 C 0.30486 0.22656 0.48556 0.0
C259 C 0.29238 0.20433 0.37711 0.0
N260 N 0.32923 0.3126 0.48804 0.0
N261 N 0.28873 0.12013 0.37779 0.0
H262 H 0.28593 0.22039 0.30405 0.0
H263 H 0.26729 0.15856 0.30117 0.0
H264 H 0.28918 0.09184 0.39602 0.0
H265 H 0.29041 0.11044 0.3397 0.0
H266 H 0.34156 0.32312 0.52788 0.0
H267 H 0.33323 0.3419 0.47103 0.0
H268 H 0.30433 0.27047 0.5573 0.0
H269 H 0.29729 0.20918 0.55588 0.0
C270 C 0.38914 0.74823 0.8109 0.0
C271 C 0.37941 0.79402 0.8253 0.0
C272 C 0.46344 0.83235 0.8602 0.0
C273 C 0.47078 0.78604 0.86121 0.0
N274 N 0.44506 0.6997 0.82183 0.0
N275 N 0.40814 0.88053 0.86608 0.0
C276 C 0.43499 0.74365 0.83131 0.0
C277 C 0.41685 0.83659 0.84985 0.0
N278 N 0.35507 0.7101 0.77665 0.0
N279 N 0.50094 0.87194 0.86843 0.0
H280 H 0.37424 0.88529 0.86118 0.0
H281 H 0.43455 0.9113 0.88869 0.0
H282 H 0.53534 0.86875 0.87219 0.0
H283 H 0.49707 0.90598 0.86467 0.0
H284 H 0.36034 0.67643 0.76202 0.0
H285 H 0.3223 0.71367 0.75921 0.0
H286 H 0.41955 0.6664 0.80678 0.0
H287 H 0.47973 0.69703 0.82782 0.0
C288 C 0.80446 0.8776 0.38859 0.0
C289 C 0.77186 0.83219 0.38295 0.0
C290 C 0.74621 0.86828 0.45817 0.0
C291 C 0.77342 0.91545 0.4589 0.0
N292 N 0.82645 0.96522 0.42123 0.0
N293 N 0.70903 0.7843 0.40982 0.0
C294 C 0.80251 0.9201 0.42357 0.0
C295 C 0.7421 0.82751 0.41718 0.0
N296 N 0.83751 0.88008 0.3604 0.0
N297 N 0.72625 0.86184 0.49802 0.0
H298 H 0.70659 0.75306 0.38196 0.0
H299 H 0.68232 0.78025 0.42923 0.0
H300 H 0.73015 0.89013 0.52986 0.0
H301 H 0.71014 0.82769 0.50229 0.0
H302 H 0.86578 0.91066 0.36671 0.0
H303 H 0.83925 0.84996 0.33371 0.0
H304 H 0.84276 0.97118 0.3919 0.0
H305 H 0.82734 0.9975 0.44616 0.0
C306 C 0.67117 0.41476 0.9757 0.0
C307 C 0.66087 0.36819 0.94099 0.0
C308 C 0.58213 0.34866 0.95638 0.0
C309 C 0.59572 0.39037 0.9989 0.0
N310 N 0.65867 0.45986 0.05348 0.0
N311 N 0.60946 0.28587 0.90992 0.0
C312 C 0.64158 0.42302 0.0096 0.0
C313 C 0.617 0.33381 0.93397 0.0
N314 N 0.70886 0.45145 0.97606 0.0
N315 N 0.53586 0.32267 0.93734 0.0
H316 H 0.63557 0.27152 0.89809 0.0
H317 H 0.57915 0.25906 0.90821 0.0
H318 H 0.50877 0.33253 0.95169 0.0
H319 H 0.52415 0.29467 0.9037 0.0
H320 H 0.71524 0.48723 0.99729 0.0
H321 H 0.73062 0.44746 0.95097 0.0
H322 H 0.69377 0.48076 0.06527 0.0
H323 H 0.63967 0.4669 0.08071 0.0
C324 C 0.25585 0.96029 0.69512 0.0
C325 C 0.28105 0.92447 0.69039 0.0
C326 C 0.30578 0.94921 0.61686 0.0
C327 C 0.27941 0.98416 0.62045 0.0
N328 N 0.22659 0.02145 0.65998 0.0
N329 N 0.32324 0.87854 0.64293 0.0
C330 C 0.25329 0.98893 0.65849 0.0
C331 C 0.30407 0.91714 0.65008 0.0
N332 N 0.23638 0.96841 0.73615 0.0
N333 N 0.33315 0.94736 0.58235 0.0
H334 H 0.32221 0.85428 0.66645 0.0
H335 H 0.33655 0.86789 0.61147 0.0
H336 H 0.3342 0.9692 0.55637 0.0
H337 H 0.3572 0.92654 0.58138 0.0
H338 H 0.22228 0.99757 0.74579 0.0
H339 H 0.2363 0.947 0.76259 0.0
H340 H 0.2025 0.02308 0.68251 0.0
H341 H 0.22715 0.04611 0.63703 0.0
C342 C 0.64262 0.73627 0.1848 0.0
C343 C 0.69217 0.75708 0.1977 0.0
C344 C 0.68808 0.77014 0.11164 0.0
C345 C 0.63821 0.75379 0.10043 0.0
N346 N 0.56688 0.72739 0.12759 0.0
N347 N 0.76189 0.80037 0.17713 0.0
C348 C 0.61504 0.73814 0.13719 0.0
C349 C 0.7149 0.77584 0.1621 0.0
N350 N 0.62215 0.71403 0.21764 0.0
N351 N 0.70964 0.77954 0.07361 0.0
H352 H 0.78279 0.80542 0.21397 0.0
H353 H 0.77934 0.81934 0.15471 0.0
H354 H 0.69075 0.7753 0.03601 0.0
H355 H 0.74601 0.7872 0.07788 0.0
H356 H 0.58703 0.69347 0.20796 0.0
H357 H 0.64119 0.71339 0.25358 0.0
H358 H 0.54835 0.7217 0.15529 0.0
H359 H 0.54543 0.72726 0.09266 0.0
C360 C 0.76191 0.17596 0.75893 0.0
C361 C 0.74492 0.21426 0.74389 0.0
C362 C 0.72767 0.17038 0.65283 0.0
C363 C 0.74451 0.13203 0.66789 0.0
N364 N 0.76943 0.09337 0.73441 0.0
N365 N 0.70408 0.24462 0.67773 0.0
C366 C 0.75906 0.13337 0.72081 0.0
C367 C 0.72514 0.21019 0.69116 0.0
N368 N 0.78203 0.18105 0.80963 0.0
N369 N 0.71673 0.17015 0.60192 0.0
H370 H 0.70317 0.27519 0.70438 0.0
H371 H 0.68447 0.24127 0.64082 0.0
H372 H 0.71718 0.14127 0.57279 0.0
H373 H 0.71001 0.19965 0.58848 0.0
H374 H 0.80026 0.15758 0.82291 0.0
H375 H 0.78252 0.21051 0.83866 0.0
H376 H 0.77631 0.08975 0.77196 0.0
H377 H 0.76743 0.06171 0.70738 0.0
C378 C 0.37381 0.43526 0.23451 0.0
C379 C 0.35096 0.3879 0.23801 0.0
C380 C 0.41481 0.35894 0.21147 0.0
C381 C 0.43173 0.40225 0.1961 0.0
N382 N 0.41998 0.48103 0.18788 0.0
N383 N 0.34375 0.30139 0.21166 0.0
C384 C 0.40945 0.44062 0.20631 0.0
C385 C 0.36959 0.3487 0.22093 0.0
N386 N 0.36301 0.47528 0.2593 0.0
N387 N 0.44203 0.32767 0.21823 0.0
H388 H 0.30852 0.29179 0.21338 0.0
H389 H 0.35574 0.27211 0.19603 0.0
H390 H 0.47728 0.33585 0.21663 0.0
H391 H 0.43125 0.29712 0.23213 0.0
H392 H 0.38172 0.5108 0.26151 0.0
H393 H 0.33907 0.4731 0.28229 0.0
H394 H 0.40067 0.50677 0.19021 0.0
H395 H 0.44483 0.48728 0.16661 0.0
C396 C 0.95336 0.72901 0.79038 0.0
C397 C 0.90434 0.71304 0.76609 0.0
C398 C 0.90835 0.62802 0.74575 0.0
C399 C 0.95747 0.64418 0.76937 0.0
N400 N 0.02889 0.70984 0.80301 0.0
N401 N 0.83656 0.64927 0.71235 0.0
C402 C 0.98059 0.69471 0.78841 0.0
C403 C 0.88234 0.66312 0.74083 0.0
N404 N 0.97386 0.77695 0.81562 0.0
N405 N 0.88618 0.57917 0.73046 0.0
H406 H 0.81576 0.67351 0.70978 0.0
H407 H 0.82008 0.61452 0.68852 0.0
H408 H 0.90434 0.55259 0.73248 0.0
H409 H 0.84964 0.56489 0.71867 0.0
H410 H 1.00792 0.78977 0.83946 0.0
H411 H 0.95593 0.80382 0.81514 0.0
H412 H 0.04837 0.74621 0.81251 0.0
H413 H 0.04982 0.68561 0.8008 0.0
C414 C 0.87033 0.46716 0.35103 0.0
C415 C 0.87186 0.421 0.36052 0.0
C416 C 0.9577 0.44409 0.37325 0.0
C417 C 0.95451 0.48352 0.35103 0.0
N418 N 0.9141 0.54487 0.3405 0.0
N419 N 0.92232 0.39938 0.42727 0.0
C420 C 0.91254 0.49907 0.34658 0.0
C421 C 0.91708 0.41793 0.38519 0.0
N422 N 0.83 0.4816 0.35063 0.0
N423 N 0.99934 0.43221 0.38427 0.0
H424 H 0.89443 0.39087 0.44456 0.0
H425 H 0.95525 0.39996 0.44895 0.0
H426 H 0.03065 0.45307 0.37959 0.0
H427 H 1.00172 0.40089 0.39668 0.0
H428 H 0.82436 0.51278 0.34028 0.0
H429 H 0.80248 0.46252 0.3633 0.0
H430 H 0.88613 0.56046 0.34042 0.0
H431 H 0.94509 0.5688 0.33881 0.0
C432 C 0.13815 0.40808 0.87007 0.0
C433 C 0.17466 0.40557 0.84473 0.0
C434 C 0.15747 0.47033 0.80435 0.0
C435 C 0.11672 0.46784 0.82404 0.0
N436 N 0.06442 0.4286 0.86996 0.0
N437 N 0.21807 0.43152 0.78514 0.0
C438 C 0.10625 0.43545 0.85577 0.0
C439 C 0.18421 0.43614 0.81129 0.0
N440 N 0.13387 0.38397 0.90778 0.0
N441 N 0.17175 0.50648 0.78092 0.0
H442 H 0.23994 0.40879 0.79147 0.0
H443 H 0.22282 0.44819 0.75546 0.0
H444 H 0.15348 0.53245 0.77561 0.0
H445 H 0.20385 0.51337 0.77073 0.0
H446 H 0.11115 0.38845 0.93158 0.0
H447 H 0.15641 0.3631 0.91867 0.0
H448 H 0.05249 0.40146 0.88788 0.0
H449 H 0.0392 0.44669 0.85957 0.0
C450 C 0.17912 0.70053 0.20333 0.0
C451 C 0.22548 0.71285 0.23484 0.0
C452 C 0.19974 0.65059 0.28015 0.0
C453 C 0.15189 0.64525 0.25545 0.0
N454 N 0.09579 0.66934 0.19647 0.0
N455 N 0.28085 0.7009 0.30425 0.0
C456 C 0.1415 0.67068 0.21708 0.0
C457 C 0.23619 0.68774 0.27315 0.0
N458 N 0.17108 0.71855 0.16097 0.0
N459 N 0.2105 0.61925 0.30892 0.0
H460 H 0.30872 0.72619 0.29831 0.0
H461 H 0.28963 0.68858 0.33712 0.0
H462 H 0.18492 0.59068 0.31357 0.0
H463 H 0.24495 0.61852 0.32392 0.0
H464 H 0.13884 0.70755 0.13363 0.0
H465 H 0.19826 0.74084 0.1506 0.0
H466 H 0.08631 0.69108 0.17241 0.0
H467 H 0.06738 0.6501 0.20743 0.0
C468 C 0.81966 0.89516 0.69777 0.0
C469 C 0.83801 0.91554 0.75144 0.0
C470 C 0.86038 0.99726 0.73641 0.0
C471 C 0.84467 0.97622 0.68268 0.0
N472 N 0.8211 0.90449 0.6122 0.0
N473 N 0.88451 0.98425 0.82131 0.0
C474 C 0.82811 0.92488 0.66342 0.0
C475 C 0.86113 0.96614 0.77064 0.0
N476 N 0.79196 0.84813 0.67958 0.0
N477 N 0.87226 0.04676 0.75486 0.0
H478 H 0.8859 0.96245 0.84733 0.0
H479 H 0.90588 0.01984 0.83647 0.0
H480 H 0.87253 0.07069 0.73102 0.0
H481 H 0.87851 0.0639 0.79362 0.0
H482 H 0.77358 0.83323 0.64124 0.0
H483 H 0.78342 0.82535 0.70338 0.0
H484 H 0.81321 0.86705 0.59661 0.0
H485 H 0.82813 0.92526 0.58614 0.0
C486 C 0.66988 0.36016 0.27365 0.0
C487 C 0.70127 0.33492 0.25545 0.0
C488 C 0.64652 0.30695 0.16906 0.0
C489 C 0.61352 0.3292 0.18817 0.0
N490 N 0.59118 0.37209 0.26006 0.0
N491 N 0.71759 0.27978 0.1875 0.0
C492 C 0.62466 0.35463 0.24087 0.0
C493 C 0.68888 0.30686 0.20365 0.0
N494 N 0.68356 0.38996 0.32228 0.0
N495 N 0.63879 0.28842 0.11732 0.0
H496 H 0.75021 0.28111 0.21046 0.0
H497 H 0.70791 0.25378 0.15252 0.0
H498 H 0.60861 0.28799 0.09067 0.0
H499 H 0.66389 0.27703 0.10018 0.0
H500 H 0.66522 0.41405 0.33601 0.0
H501 H 0.71525 0.39322 0.34821 0.0
H502 H 0.59454 0.38599 0.299 0.0
H503 H 0.55803 0.36922 0.23734 0.0
C504 C 0.19384 0.19431 0.66246 0.0
C505 C 0.17129 0.16934 0.69458 0.0
C506 C 0.14566 0.0934 0.6266 0.0
C507 C 0.16897 0.11859 0.59525 0.0
N508 N 0.20034 0.19438 0.57568 0.0
N509 N 0.11605 0.09904 0.70341 0.0
C510 C 0.18752 0.16974 0.61064 0.0
C511 C 0.14394 0.12005 0.67535 0.0
N512 N 0.22457 0.23978 0.68227 0.0
N513 N 0.12772 0.04387 0.61124 0.0
H514 H 0.11413 0.11766 0.73927 0.0
H515 H 0.09185 0.06478 0.68944 0.0
H516 H 0.12687 0.02344 0.57514 0.0
H517 H 0.11574 0.02269 0.63508 0.0
H518 H 0.24542 0.25732 0.66146 0.0
H519 H 0.2333 0.25806 0.72096 0.0
H520 H 0.21055 0.2323 0.58331 0.0
H521 H 0.19591 0.17656 0.53733 0.0
C522 C 0.39591 0.81501 0.0746 0.0
C523 C 0.40616 0.81178 0.12654 0.0
C524 C 0.49138 0.83535 0.13141 0.0
C525 C 0.48104 0.83875 0.07968 0.0
N526 N 0.42536 0.84016 0.00436 0.0
N527 N 0.46318 0.82497 0.20689 0.0
C528 C 0.43375 0.83121 0.05206 0.0
C529 C 0.4538 0.82437 0.15586 0.0
N530 N 0.34994 0.80195 0.04666 0.0
N531 N 0.53698 0.83969 0.15608 0.0
H532 H 0.43709 0.81313 0.22531 0.0
H533 H 0.49662 0.83952 0.23186 0.0
H534 H 0.56549 0.84947 0.14008 0.0
H535 H 0.54658 0.83117 0.1911 0.0
H536 H 0.33984 0.7979 0.0072 0.0
H537 H 0.32127 0.7929 0.06259 0.0
H538 H 0.39227 0.83939 0.98322 0.0
H539 H 0.45251 0.85225 0.98727 0.0
C540 C 0.79923 0.15487 0.40109 0.0
C541 C 0.82774 0.20371 0.41972 0.0
C542 C 0.85193 0.18976 0.50535 0.0
C543 C 0.82686 0.13967 0.48574 0.0
N544 N 0.78137 0.07293 0.41278 0.0
N545 N 0.88651 0.26637 0.48725 0.0
C546 C 0.80149 0.12185 0.43308 0.0
C547 C 0.85596 0.22061 0.47103 0.0
N548 N 0.77015 0.13978 0.35256 0.0
N549 N 0.86915 0.20877 0.55721 0.0
H550 H 0.88862 0.29132 0.46455 0.0
H551 H 0.91212 0.27846 0.52202 0.0
H552 H 0.86506 0.18817 0.58401 0.0
H553 H 0.88316 0.24595 0.57418 0.0
H554 H 0.74367 0.10701 0.33925 0.0
H555 H 0.77056 0.16116 0.32614 0.0
H556 H 0.76794 0.05697 0.3736 0.0
H557 H 0.78111 0.04726 0.4344 0.0
C558 C 0.34161 0.3453 0.905 0.0
C559 C 0.29754 0.32357 0.91371 0.0
C560 C 0.33874 0.30088 0.98878 0.0
C561 C 0.38309 0.3232 0.98042 0.0
N562 N 0.4265 0.37517 0.93645 0.0
N563 N 0.25286 0.27594 0.95953 0.0
C564 C 0.3844 0.3477 0.94012 0.0
C565 C 0.2958 0.29998 0.9544 0.0
N566 N 0.34259 0.36159 0.86149 0.0
N567 N 0.33767 0.28413 0.03201 0.0
H568 H 0.22085 0.27713 0.93735 0.0
H569 H 0.24849 0.25265 0.98367 0.0
H570 H 0.36795 0.28511 0.05882 0.0
H571 H 0.3071 0.27255 0.04393 0.0
H572 H 0.37311 0.37166 0.84892 0.0
H573 H 0.31222 0.36131 0.83519 0.0
H574 H 0.42925 0.39923 0.91289 0.0
H575 H 0.45899 0.37728 0.95979 0.0
C576 C 0.2479 0.92035 0.29941 0.0
C577 C 0.27397 0.88858 0.31584 0.0
C578 C 0.27252 0.92019 0.40477 0.0
C579 C 0.24975 0.95463 0.38911 0.0
N580 N 0.22253 0.9934 0.32327 0.0
N581 N 0.3195 0.86472 0.38442 0.0
C582 C 0.23928 0.95644 0.33686 0.0
C583 C 0.28903 0.89068 0.36872 0.0
N584 N 0.22997 0.91486 0.24815 0.0
N585 N 0.27615 0.91389 0.45343 0.0
H586 H 0.33242 0.84272 0.35888 0.0
H587 H 0.33542 0.8686 0.42287 0.0
H588 H 0.26266 0.93347 0.48041 0.0
H589 H 0.28812 0.88595 0.46543 0.0
H590 H 0.20612 0.93307 0.23394 0.0
H591 H 0.23645 0.88951 0.21962 0.0
H592 H 0.21929 0.99977 0.28681 0.0
H593 H 0.21527 0.02017 0.34955 0.0
C594 C 0.70789 0.83722 0.85279 0.0
C595 C 0.75622 0.85655 0.87941 0.0
C596 C 0.73371 0.8736 0.96143 0.0
C597 C 0.68531 0.85691 0.93435 0.0
N598 N 0.62635 0.83215 0.85373 0.0
N599 N 0.81546 0.90046 0.95745 0.0
C600 C 0.67247 0.8415 0.87983 0.0
C601 C 0.76923 0.87704 0.93332 0.0
N602 N 0.69576 0.8131 0.80194 0.0
N603 N 0.74577 0.88375 0.01389 0.0
H604 H 0.84232 0.90293 0.93811 0.0
H605 H 0.82667 0.92062 0.99558 0.0
H606 H 0.72084 0.88181 0.03572 0.0
H607 H 0.78022 0.89057 0.03564 0.0
H608 H 0.66145 0.7932 0.78196 0.0
H609 H 0.72052 0.80942 0.78048 0.0
H610 H 0.61536 0.826 0.81399 0.0
H611 H 0.59944 0.83507 0.87215 0.0
loop_
_geom_bond_atom_site_label_1
_geom_bond_atom_site_label_2
_geom_bond_distance
_geom_bond_site_symmetry_2
_ccdc_geom_bond_type
H0 C5 0.930 . S
H1 C8 0.930 . S
H2 C10 0.930 . S
H3 C4 1.016 . S
C4 H3 1.016 . S
C4 N11 1.286 . S
C5 H0 0.930 . S
C5 C6 1.397 . S
C5 C7 1.361 . S
C6 C5 1.397 . S
C6 C10 1.390 . S
C7 C5 1.361 . S
C7 C8 1.393 . S
C7 N11 1.413 . S
C8 H1 0.930 . S
C8 C7 1.393 . S
C8 C9 1.399 . S
C9 C8 1.399 . S
C9 C10 1.381 . S
C10 H2 0.930 . S
C10 C6 1.390 . S
C10 C9 1.381 . S
N11 C4 1.286 . S
N11 C7 1.413 . S
H12 C17 0.930 . S
H13 C20 0.930 . S
H14 C22 0.930 . S
H15 C16 1.016 . S
C16 H15 1.016 . S
C16 N23 1.286 . S
C17 H12 0.930 . S
C17 C18 1.397 . S
C17 C19 1.361 . S
C18 C17 1.397 . S
C18 C22 1.390 . S
C19 C17 1.361 . S
C19 C20 1.393 . S
C19 N23 1.413 . S
C20 H13 0.930 . S
C20 C19 1.393 . S
C20 C21 1.399 . S
C21 C20 1.399 . S
C21 C22 1.381 . S
C22 H14 0.930 . S
C22 C18 1.390 . S
C22 C21 1.381 . S
N23 C16 1.286 . S
N23 C19 1.413 . S
H24 C29 0.930 . S
H25 C32 0.930 . S
H26 C34 0.930 . S
H27 C28 1.016 . S
C28 H27 1.016 . S
C28 N35 1.286 . S
C29 H24 0.930 . S
C29 C30 1.397 . S
C29 C31 1.361 . S
C30 C29 1.397 . S
C30 C34 1.390 . S
C31 C29 1.361 . S
C31 C32 1.393 . S
C31 N35 1.413 . S
C32 H25 0.930 . S
C32 C31 1.393 . S
C32 C33 1.399 . S
C33 C32 1.399 . S
C33 C34 1.381 . S
C34 H26 0.930 . S
C34 C30 1.390 . S
C34 C33 1.381 . S
N35 C28 1.286 . S
N35 C31 1.413 . S
H36 C41 0.930 . S
H37 C44 0.930 . S
H38 C46 0.930 . S
H39 C40 1.016 . S
C40 H39 1.016 . S
C40 N47 1.286 . S
C41 H36 0.930 . S
C41 C42 1.397 . S
C41 C43 1.361 . S
C42 C41 1.397 . S
C42 C46 1.390 . S
C43 C41 1.361 . S
C43 C44 1.393 . S
C43 N47 1.413 . S
C44 H37 0.930 . S
C44 C43 1.393 . S
C44 C45 1.399 . S
C45 C44 1.399 . S
C45 C46 1.381 . S
C46 H38 0.930 . S
C46 C42 1.390 . S
C46 C45 1.381 . S
N47 C40 1.286 . S
N47 C43 1.413 . S
H48 C53 0.930 . S
H49 C56 0.930 . S
H50 C58 0.930 . S
H51 C52 1.016 . S
C52 H51 1.016 . S
C52 N59 1.286 . S
C53 H48 0.930 . S
C53 C54 1.397 . S
C53 C55 1.361 . S
C54 C53 1.397 . S
C54 C58 1.390 . S
C55 C53 1.361 . S
C55 C56 1.393 . S
C55 N59 1.413 . S
C56 H49 0.930 . S
C56 C55 1.393 . S
C56 C57 1.399 . S
C57 C56 1.399 . S
C57 C58 1.381 . S
C58 H50 0.930 . S
C58 C54 1.390 . S
C58 C57 1.381 . S
N59 C52 1.286 . S
N59 C55 1.413 . S
H60 C65 0.930 . S
H61 C68 0.930 . S
H62 C70 0.930 . S
H63 C64 1.016 . S
C64 H63 1.016 . S
C64 N71 1.286 . S
C65 H60 0.930 . S
C65 C66 1.397 . S
C65 C67 1.361 . S
C66 C65 1.397 . S
C66 C70 1.390 . S
C67 C65 1.361 . S
C67 C68 1.393 . S
C67 N71 1.413 . S
C68 H61 0.930 . S
C68 C67 1.393 . S
C68 C69 1.399 . S
C69 C68 1.399 . S
C69 C70 1.381 . S
C70 H62 0.930 . S
C70 C66 1.390 . S
C70 C69 1.381 . S
N71 C64 1.286 . S
N71 C67 1.413 . S
H72 C77 0.930 . S
H73 C80 0.930 . S
H74 C82 0.930 . S
H75 C76 1.016 . S
C76 H75 1.016 . S
C76 N83 1.286 . S
C77 H72 0.930 . S
C77 C78 1.397 . S
C77 C79 1.361 . S
C78 C77 1.397 . S
C78 C82 1.390 . S
C79 C77 1.361 . S
C79 C80 1.393 . S
C79 N83 1.413 . S
C80 H73 0.930 . S
C80 C79 1.393 . S
C80 C81 1.399 . S
C81 C80 1.399 . S
C81 C82 1.381 . S
C82 H74 0.930 . S
C82 C78 1.390 . S
C82 C81 1.381 . S
N83 C76 1.286 . S
N83 C79 1.413 . S
H84 C89 0.930 . S
H85 C92 0.930 . S
H86 C94 0.930 . S
H87 C88 1.016 . S
C88 H87 1.016 . S
C88 N95 1.286 . S
C89 H84 0.930 . S
C89 C90 1.397 . S
C89 C91 1.361 . S
C90 C89 1.397 . S
C90 C94 1.390 . S
C91 C89 1.361 . S
C91 C92 1.393 . S
C91 N95 1.413 . S
C92 H85 0.930 . S
C92 C91 1.393 . S
C92 C93 1.399 . S
C93 C92 1.399 . S
C93 C94 1.381 . S
C94 H86 0.930 . S
C94 C90 1.390 . S
C94 C93 1.381 . S
N95 C88 1.286 . S
N95 C91 1.413 . S
C96 O98 1.247 . S
C96 O100 1.258 . S
C97 O104 1.247 . S
C97 O105 1.258 . S
O98 C96 1.247 . S
O98 Zn99 2.028 1_655 S
Zn99 O98 2.028 1_455 S
Zn99 O103 2.035 . S
Zn99 O105 2.035 . S
Zn99 O106 2.028 . S
O100 C96 1.258 . S
O100 Zn101 2.035 1_655 S
Zn101 O100 2.035 1_455 S
Zn101 O102 2.028 . S
Zn101 O104 2.028 . S
Zn101 O107 2.035 1_455 S
O102 Zn101 2.028 . S
O102 C108 1.247 . S
O103 Zn99 2.035 . S
O103 C108 1.258 . S
O104 C97 1.247 . S
O104 Zn101 2.028 . S
O105 C97 1.258 . S
O105 Zn99 2.035 . S
O106 Zn99 2.028 . S
O106 C109 1.247 1_455 S
O107 Zn101 2.035 1_655 S
O107 C109 1.258 . S
C108 O102 1.247 . S
C108 O103 1.258 . S
C109 O106 1.247 1_655 S
C109 O107 1.258 . S
C110 O112 1.247 1_655 S
C110 O114 1.258 . S
C111 O118 1.247 . S
C111 O119 1.258 . S
O112 C110 1.247 1_455 S
O112 Zn113 2.028 . S
Zn113 O112 2.028 . S
Zn113 O117 2.035 . S
Zn113 O119 2.035 . S
Zn113 O120 2.028 . S
O114 C110 1.258 . S
O114 Zn115 2.035 1_655 S
Zn115 O114 2.035 1_455 S
Zn115 O116 2.028 . S
Zn115 O118 2.028 . S
Zn115 O121 2.035 . S
O116 Zn115 2.028 . S
O116 C122 1.247 . S
O117 Zn113 2.035 . S
O117 C122 1.258 . S
O118 C111 1.247 . S
O118 Zn115 2.028 . S
O119 C111 1.258 . S
O119 Zn113 2.035 . S
O120 Zn113 2.028 . S
O120 C123 1.247 . S
O121 Zn115 2.035 . S
O121 C123 1.258 . S
C122 O116 1.247 . S
C122 O117 1.258 . S
C123 O120 1.247 . S
C123 O121 1.258 . S
C124 O126 1.247 . S
C124 O128 1.258 . S
C125 O132 1.247 . S
C125 O133 1.258 . S
O126 C124 1.247 . S
O126 Zn127 2.028 . S
Zn127 O126 2.028 . S
Zn127 O131 2.035 1_565 S
Zn127 O133 2.035 1_565 S
Zn127 O134 2.028 . S
O128 C124 1.258 . S
O128 Zn129 2.035 1_565 S
Zn129 O128 2.035 1_545 S
Zn129 O130 2.028 . S
Zn129 O132 2.028 . S
Zn129 O135 2.035 1_545 S
O130 Zn129 2.028 . S
O130 C136 1.247 . S
O131 Zn127 2.035 1_545 S
O131 C136 1.258 . S
O132 C125 1.247 . S
O132 Zn129 2.028 . S
O133 C125 1.258 . S
O133 Zn127 2.035 1_545 S
O134 Zn127 2.028 . S
O134 C137 1.247 . S
O135 Zn129 2.035 1_565 S
O135 C137 1.258 . S
C136 O130 1.247 . S
C136 O131 1.258 . S
C137 O134 1.247 . S
C137 O135 1.258 . S
C138 O140 1.247 . S
C138 O142 1.258 . S
C139 O146 1.247 . S
C139 O147 1.258 . S
O140 C138 1.247 . S
O140 Zn141 2.028 1_554 S
Zn141 O140 2.028 1_556 S
Zn141 O145 2.035 1_556 S
Zn141 O147 2.035 . S
Zn141 O148 2.028 . S
O142 C138 1.258 . S
O142 Zn143 2.035 . S
Zn143 O142 2.035 . S
Zn143 O144 2.028 . S
Zn143 O146 2.028 1_554 S
Zn143 O149 2.035 1_554 S
O144 Zn143 2.028 . S
O144 C150 1.247 . S
O145 Zn141 2.035 1_554 S
O145 C150 1.258 . S
O146 C139 1.247 . S
O146 Zn143 2.028 1_556 S
O147 C139 1.258 . S
O147 Zn141 2.035 . S
O148 Zn141 2.028 . S
O148 C151 1.247 . S
O149 Zn143 2.035 1_556 S
O149 C151 1.258 . S
C150 O144 1.247 . S
C150 O145 1.258 . S
C151 O148 1.247 . S
C151 O149 1.258 . S
C152 O154 1.247 . S
C152 O156 1.258 1_565 S
C153 O160 1.247 . S
C153 O161 1.258 . S
O154 C152 1.247 . S
O154 Zn155 2.028 1_565 S
Zn155 O154 2.028 1_545 S
Zn155 O159 2.035 . S
Zn155 O161 2.035 . S
Zn155 O162 2.028 1_545 S
O156 C152 1.258 1_545 S
O156 Zn157 2.035 . S
Zn157 O156 2.035 . S
Zn157 O158 2.028 . S
Zn157 O160 2.028 . S
Zn157 O163 2.035 . S
O158 Zn157 2.028 . S
O158 C164 1.247 . S
O159 Zn155 2.035 . S
O159 C164 1.258 . S
O160 C153 1.247 . S
O160 Zn157 2.028 . S
O161 C153 1.258 . S
O161 Zn155 2.035 . S
O162 Zn155 2.028 1_565 S
O162 C165 1.247 . S
O163 Zn157 2.035 . S
O163 C165 1.258 1_545 S
C164 O158 1.247 . S
C164 O159 1.258 . S
C165 O162 1.247 . S
C165 O163 1.258 1_565 S
C166 O168 1.247 . S
C166 O170 1.258 . S
C167 O174 1.247 . S
C167 O175 1.258 . S
O168 C166 1.247 . S
O168 Zn169 2.028 . S
Zn169 O168 2.028 . S
Zn169 O173 2.035 . S
Zn169 O175 2.035 . S
Zn169 O176 2.028 . S
O170 C166 1.258 . S
O170 Zn171 2.035 . S
Zn171 O170 2.035 . S
Zn171 O172 2.028 . S
Zn171 O174 2.028 . S
Zn171 O177 2.035 . S
O172 Zn171 2.028 . S
O172 C178 1.247 . S
O173 Zn169 2.035 . S
O173 C178 1.258 . S
O174 C167 1.247 . S
O174 Zn171 2.028 . S
O175 C167 1.258 . S
O175 Zn169 2.035 . S
O176 Zn169 2.028 . S
O176 C179 1.247 . S
O177 Zn171 2.035 . S
O177 C179 1.258 . S
C178 O172 1.247 . S
C178 O173 1.258 . S
C179 O176 1.247 . S
C179 O177 1.258 . S
C180 C181 1.363 . S
C180 C186 1.379 . S
C180 N188 1.356 . S
C181 C180 1.363 . S
C181 C187 1.363 . S
C182 C183 1.363 . S
C182 C187 1.379 . S
C182 N189 1.356 . S
C183 C182 1.363 . S
C183 C186 1.363 . S
N184 C186 1.356 . S
N184 H196 0.984 . S
N184 H197 0.985 . S
N185 C187 1.356 . S
N185 H190 0.984 . S
N185 H191 0.985 . S
C186 C180 1.379 . S
C186 C183 1.363 . S
C186 N184 1.356 . S
C187 C181 1.363 . S
C187 C182 1.379 . S
C187 N185 1.356 . S
N188 C180 1.356 . S
N188 H194 0.984 . S
N188 H195 0.984 . S
N189 C182 1.356 . S
N189 H192 0.984 . S
N189 H193 0.985 . S
H190 N185 0.984 . S
H191 N185 0.985 . S
H192 N189 0.984 . S
H193 N189 0.985 . S
H194 N188 0.984 . S
H195 N188 0.984 . S
H196 N184 0.984 . S
H197 N184 0.985 . S
C198 C199 1.363 . S
C198 C204 1.379 . S
C198 N206 1.356 . S
C199 C198 1.363 . S
C199 C205 1.363 . S
C200 C201 1.363 . S
C200 C205 1.379 . S
C200 N207 1.356 . S
C201 C200 1.363 . S
C201 C204 1.363 . S
N202 C204 1.356 . S
N202 H214 0.984 . S
N202 H215 0.985 . S
N203 C205 1.356 . S
N203 H208 0.984 . S
N203 H209 0.985 . S
C204 C198 1.379 . S
C204 C201 1.363 . S
C204 N202 1.356 . S
C205 C199 1.363 . S
C205 C200 1.379 . S
C205 N203 1.356 . S
N206 C198 1.356 . S
N206 H212 0.984 . S
N206 H213 0.984 . S
N207 C200 1.356 . S
N207 H210 0.984 . S
N207 H211 0.985 . S
H208 N203 0.984 . S
H209 N203 0.985 . S
H210 N207 0.984 . S
H211 N207 0.985 . S
H212 N206 0.984 . S
H213 N206 0.984 . S
H214 N202 0.984 . S
H215 N202 0.985 . S
C216 C217 1.363 . S
C216 C222 1.379 . S
C216 N224 1.356 . S
C217 C216 1.363 . S
C217 C223 1.363 . S
C218 C219 1.363 . S
C218 C223 1.379 . S
C218 N225 1.356 1_655 S
C219 C218 1.363 . S
C219 C222 1.363 . S
N220 C222 1.356 . S
N220 H232 0.984 . S
N220 H233 0.985 . S
N221 C223 1.356 . S
N221 H226 0.984 . S
N221 H227 0.985 . S
C222 C216 1.379 . S
C222 C219 1.363 . S
C222 N220 1.356 . S
C223 C217 1.363 . S
C223 C218 1.379 . S
C223 N221 1.356 . S
N224 C216 1.356 . S
N224 H230 0.984 . S
N224 H231 0.984 . S
N225 C218 1.356 1_455 S
N225 H228 0.984 . S
N225 H229 0.985 . S
H226 N221 0.984 . S
H227 N221 0.985 . S
H228 N225 0.984 . S
H229 N225 0.985 . S
H230 N224 0.984 . S
H231 N224 0.984 . S
H232 N220 0.984 . S
H233 N220 0.985 . S
C234 C235 1.363 . S
C234 C240 1.379 . S
C234 N242 1.356 . S
C235 C234 1.363 . S
C235 C241 1.363 . S
C236 C237 1.363 . S
C236 C241 1.379 . S
C236 N243 1.356 . S
C237 C236 1.363 . S
C237 C240 1.363 . S
N238 C240 1.356 . S
N238 H250 0.984 . S
N238 H251 0.985 . S
N239 C241 1.356 . S
N239 H244 0.984 . S
N239 H245 0.985 . S
C240 C234 1.379 . S
C240 C237 1.363 . S
C240 N238 1.356 . S
C241 C235 1.363 . S
C241 C236 1.379 . S
C241 N239 1.356 . S
N242 C234 1.356 . S
N242 H248 0.984 . S
N242 H249 0.984 . S
N243 C236 1.356 . S
N243 H246 0.984 . S
N243 H247 0.985 . S
H244 N239 0.984 . S
H245 N239 0.985 . S
H246 N243 0.984 . S
H247 N243 0.985 . S
H248 N242 0.984 . S
H249 N242 0.984 . S
H250 N238 0.984 . S
H251 N238 0.985 . S
C252 C253 1.363 . S
C252 C258 1.379 . S
C252 N260 1.356 . S
C253 C252 1.363 . S
C253 C259 1.363 . S
C254 C255 1.363 . S
C254 C259 1.379 . S
C254 N261 1.356 . S
C255 C254 1.363 . S
C255 C258 1.363 . S
N256 C258 1.356 . S
N256 H268 0.984 . S
N256 H269 0.985 . S
N257 C259 1.356 . S
N257 H262 0.984 . S
N257 H263 0.985 . S
C258 C252 1.379 . S
C258 C255 1.363 . S
C258 N256 1.356 . S
C259 C253 1.363 . S
C259 C254 1.379 . S
C259 N257 1.356 . S
N260 C252 1.356 . S
N260 H266 0.984 . S
N260 H267 0.984 . S
N261 C254 1.356 . S
N261 H264 0.984 . S
N261 H265 0.985 . S
H262 N257 0.984 . S
H263 N257 0.985 . S
H264 N261 0.984 . S
H265 N261 0.985 . S
H266 N260 0.984 . S
H267 N260 0.984 . S
H268 N256 0.984 . S
H269 N256 0.985 . S
C270 C271 1.363 . S
C270 C276 1.379 . S
C270 N278 1.356 . S
C271 C270 1.363 . S
C271 C277 1.363 . S
C272 C273 1.363 . S
C272 C277 1.379 . S
C272 N279 1.356 . S
C273 C272 1.363 . S
C273 C276 1.363 . S
N274 C276 1.356 . S
N274 H286 0.984 . S
N274 H287 0.985 . S
N275 C277 1.356 . S
N275 H280 0.984 . S
N275 H281 0.985 . S
C276 C270 1.379 . S
C276 C273 1.363 . S
C276 N274 1.356 . S
C277 C271 1.363 . S
C277 C272 1.379 . S
C277 N275 1.356 . S
N278 C270 1.356 . S
N278 H284 0.984 . S
N278 H285 0.984 . S
N279 C272 1.356 . S
N279 H282 0.984 . S
N279 H283 0.985 . S
H280 N275 0.984 . S
H281 N275 0.985 . S
H282 N279 0.984 . S
H283 N279 0.985 . S
H284 N278 0.984 . S
H285 N278 0.984 . S
H286 N274 0.984 . S
H287 N274 0.985 . S
C288 C289 1.363 . S
C288 C294 1.379 . S
C288 N296 1.356 . S
C289 C288 1.363 . S
C289 C295 1.363 . S
C290 C291 1.363 . S
C290 C295 1.379 . S
C290 N297 1.356 . S
C291 C290 1.363 . S
C291 C294 1.363 . S
N292 C294 1.339 1_545 S
N292 H304 0.995 . S
N292 H305 0.992 . S
N293 C295 1.356 . S
N293 H298 0.984 . S
N293 H299 0.985 . S
C294 C288 1.379 . S
C294 C291 1.363 . S
C294 N292 1.339 1_565 S
C295 C289 1.363 . S
C295 C290 1.379 . S
C295 N293 1.356 . S
N296 C288 1.356 . S
N296 H302 0.984 . S
N296 H303 0.984 . S
N297 C290 1.356 . S
N297 H300 0.984 . S
N297 H301 0.985 . S
H298 N293 0.984 . S
H299 N293 0.985 . S
H300 N297 0.984 . S
H301 N297 0.985 . S
H302 N296 0.984 . S
H303 N296 0.984 . S
H304 N292 0.995 . S
H305 N292 0.992 . S
C306 C307 1.363 . S
C306 C312 1.379 1_556 S
C306 N314 1.356 . S
C307 C306 1.363 . S
C307 C313 1.363 . S
C308 C309 1.363 . S
C308 C313 1.379 1_554 S
C308 N315 1.356 . S
C309 C308 1.363 . S
C309 C312 1.363 . S
N310 C312 1.356 . S
N310 H322 0.984 . S
N310 H323 0.985 . S
N311 C313 1.356 . S
N311 H316 0.984 . S
N311 H317 0.985 . S
C312 C306 1.379 1_554 S
C312 C309 1.363 . S
C312 N310 1.356 . S
C313 C307 1.363 . S
C313 C308 1.379 1_556 S
C313 N311 1.356 . S
N314 C306 1.356 . S
N314 H320 0.984 . S
N314 H321 0.984 . S
N315 C308 1.356 . S
N315 H318 0.984 . S
N315 H319 0.985 . S
H316 N311 0.984 . S
H317 N311 0.985 . S
H318 N315 0.984 . S
H319 N315 0.985 . S
H320 N314 0.984 . S
H321 N314 0.984 . S
H322 N310 0.984 . S
H323 N310 0.985 . S
C324 C325 1.363 . S
C324 C330 1.379 . S
C324 N332 1.356 . S
C325 C324 1.363 . S
C325 C331 1.363 . S
C326 C327 1.363 . S
C326 C331 1.379 . S
C326 N333 1.356 . S
C327 C326 1.363 . S
C327 C330 1.363 . S
N328 C330 1.356 . S
N328 H340 0.984 . S
N328 H341 0.985 . S
N329 C331 1.356 . S
N329 H334 0.984 . S
N329 H335 0.985 . S
C330 C324 1.379 . S
C330 C327 1.363 . S
C330 N328 1.356 . S
C331 C325 1.363 . S
C331 C326 1.379 . S
C331 N329 1.356 . S
N332 C324 1.356 . S
N332 H338 0.984 . S
N332 H339 0.984 . S
N333 C326 1.356 . S
N333 H336 0.984 . S
N333 H337 0.985 . S
H334 N329 0.984 . S
H335 N329 0.985 . S
H336 N333 0.984 . S
H337 N333 0.985 . S
H338 N332 0.984 . S
H339 N332 0.984 . S
H340 N328 0.984 . S
H341 N328 0.985 . S
C342 C343 1.363 . S
C342 C348 1.379 . S
C342 N350 1.356 . S
C343 C342 1.363 . S
C343 C349 1.363 . S
C344 C345 1.363 . S
C344 C349 1.379 . S
C344 N351 1.356 . S
C345 C344 1.363 . S
C345 C348 1.363 . S
N346 C348 1.356 . S
N346 H358 0.984 . S
N346 H359 0.985 . S
N347 C349 1.356 . S
N347 H352 0.984 . S
N347 H353 0.985 . S
C348 C342 1.379 . S
C348 C345 1.363 . S
C348 N346 1.356 . S
C349 C343 1.363 . S
C349 C344 1.379 . S
C349 N347 1.356 . S
N350 C342 1.356 . S
N350 H356 0.984 . S
N350 H357 0.984 . S
N351 C344 1.356 . S
N351 H354 0.984 . S
N351 H355 0.985 . S
H352 N347 0.984 . S
H353 N347 0.985 . S
H354 N351 0.984 . S
H355 N351 0.985 . S
H356 N350 0.984 . S
H357 N350 0.984 . S
H358 N346 0.984 . S
H359 N346 0.985 . S
C360 C361 1.363 . S
C360 C366 1.379 . S
C360 N368 1.356 . S
C361 C360 1.363 . S
C361 C367 1.363 . S
C362 C363 1.363 . S
C362 C367 1.379 . S
C362 N369 1.356 . S
C363 C362 1.363 . S
C363 C366 1.363 . S
N364 C366 1.356 . S
N364 H376 0.984 . S
N364 H377 0.985 . S
N365 C367 1.356 . S
N365 H370 0.984 . S
N365 H371 0.985 . S
C366 C360 1.379 . S
C366 C363 1.363 . S
C366 N364 1.356 . S
C367 C361 1.363 . S
C367 C362 1.379 . S
C367 N365 1.356 . S
N368 C360 1.356 . S
N368 H374 0.984 . S
N368 H375 0.984 . S
N369 C362 1.356 . S
N369 H372 0.984 . S
N369 H373 0.985 . S
H370 N365 0.984 . S
H371 N365 0.985 . S
H372 N369 0.984 . S
H373 N369 0.985 . S
H374 N368 0.984 . S
H375 N368 0.984 . S
H376 N364 0.984 . S
H377 N364 0.985 . S
C378 C379 1.363 . S
C378 C384 1.379 . S
C378 N386 1.356 . S
C379 C378 1.363 . S
C379 C385 1.363 . S
C380 C381 1.363 . S
C380 C385 1.379 . S
C380 N387 1.356 . S
C381 C380 1.363 . S
C381 C384 1.363 . S
N382 C384 1.356 . S
N382 H394 0.984 . S
N382 H395 0.985 . S
N383 C385 1.356 . S
N383 H388 0.984 . S
N383 H389 0.985 . S
C384 C378 1.379 . S
C384 C381 1.363 . S
C384 N382 1.356 . S
C385 C379 1.363 . S
C385 C380 1.379 . S
C385 N383 1.356 . S
N386 C378 1.356 . S
N386 H392 0.984 . S
N386 H393 0.984 . S
N387 C380 1.356 . S
N387 H390 0.984 . S
N387 H391 0.985 . S
H388 N383 0.984 . S
H389 N383 0.985 . S
H390 N387 0.984 . S
H391 N387 0.985 . S
H392 N386 0.984 . S
H393 N386 0.984 . S
H394 N382 0.984 . S
H395 N382 0.985 . S
C396 C397 1.363 . S
C396 C402 1.379 . S
C396 N404 1.356 . S
C397 C396 1.363 . S
C397 C403 1.363 . S
C398 C399 1.363 . S
C398 C403 1.379 . S
C398 N405 1.356 . S
C399 C398 1.363 . S
C399 C402 1.363 . S
N400 C402 1.356 1_455 S
N400 H412 0.984 . S
N400 H413 0.985 . S
N401 C403 1.356 . S
N401 H406 0.984 . S
N401 H407 0.985 . S
C402 C396 1.379 . S
C402 C399 1.363 . S
C402 N400 1.356 1_655 S
C403 C397 1.363 . S
C403 C398 1.379 . S
C403 N401 1.356 . S
N404 C396 1.356 . S
N404 H410 0.984 . S
N404 H411 0.984 . S
N405 C398 1.356 . S
N405 H408 0.984 . S
N405 H409 0.985 . S
H406 N401 0.984 . S
H407 N401 0.985 . S
H408 N405 0.984 . S
H409 N405 0.985 . S
H410 N404 0.984 . S
H411 N404 0.984 . S
H412 N400 0.984 . S
H413 N400 0.985 . S
C414 C415 1.363 . S
C414 C420 1.379 . S
C414 N422 1.356 . S
C415 C414 1.363 . S
C415 C421 1.363 . S
C416 C417 1.363 . S
C416 C421 1.379 . S
C416 N423 1.356 . S
C417 C416 1.363 . S
C417 C420 1.363 . S
N418 C420 1.356 . S
N418 H430 0.984 . S
N418 H431 0.985 . S
N419 C421 1.356 . S
N419 H424 0.984 . S
N419 H425 0.985 . S
C420 C414 1.379 . S
C420 C417 1.363 . S
C420 N418 1.356 . S
C421 C415 1.363 . S
C421 C416 1.379 . S
C421 N419 1.356 . S
N422 C414 1.356 . S
N422 H428 0.984 . S
N422 H429 0.984 . S
N423 C416 1.356 . S
N423 H426 0.984 . S
N423 H427 0.985 . S
H424 N419 0.984 . S
H425 N419 0.985 . S
H426 N423 0.984 . S
H427 N423 0.985 . S
H428 N422 0.984 . S
H429 N422 0.984 . S
H430 N418 0.984 . S
H431 N418 0.985 . S
C432 C433 1.363 . S
C432 C438 1.379 . S
C432 N440 1.356 . S
C433 C432 1.363 . S
C433 C439 1.363 . S
C434 C435 1.363 . S
C434 C439 1.379 . S
C434 N441 1.356 . S
C435 C434 1.363 . S
C435 C438 1.363 . S
N436 C438 1.356 . S
N436 H448 0.984 . S
N436 H449 0.985 . S
N437 C439 1.356 . S
N437 H442 0.984 . S
N437 H443 0.985 . S
C438 C432 1.379 . S
C438 C435 1.363 . S
C438 N436 1.356 . S
C439 C433 1.363 . S
C439 C434 1.379 . S
C439 N437 1.356 . S
N440 C432 1.356 . S
N440 H446 0.984 . S
N440 H447 0.984 . S
N441 C434 1.356 . S
N441 H444 0.984 . S
N441 H445 0.985 . S
H442 N437 0.984 . S
H443 N437 0.985 . S
H444 N441 0.984 . S
H445 N441 0.985 . S
H446 N440 0.984 . S
H447 N440 0.984 . S
H448 N436 0.984 . S
H449 N436 0.985 . S
C450 C451 1.363 . S
C450 C456 1.379 . S
C450 N458 1.356 . S
C451 C450 1.363 . S
C451 C457 1.363 . S
C452 C453 1.363 . S
C452 C457 1.379 . S
C452 N459 1.356 . S
C453 C452 1.363 . S
C453 C456 1.363 . S
N454 C456 1.356 . S
N454 H466 0.984 . S
N454 H467 0.985 . S
N455 C457 1.356 . S
N455 H460 0.984 . S
N455 H461 0.985 . S
C456 C450 1.379 . S
C456 C453 1.363 . S
C456 N454 1.356 . S
C457 C451 1.363 . S
C457 C452 1.379 . S
C457 N455 1.356 . S
N458 C450 1.356 . S
N458 H464 0.984 . S
N458 H465 0.984 . S
N459 C452 1.356 . S
N459 H462 0.984 . S
N459 H463 0.985 . S
H460 N455 0.984 . S
H461 N455 0.985 . S
H462 N459 0.984 . S
H463 N459 0.985 . S
H464 N458 0.984 . S
H465 N458 0.984 . S
H466 N454 0.984 . S
H467 N454 0.985 . S
C468 C469 1.363 . S
C468 C474 1.379 . S
C468 N476 1.356 . S
C469 C468 1.363 . S
C469 C475 1.363 . S
C470 C471 1.363 . S
C470 C475 1.379 . S
C470 N477 1.356 . S
C471 C470 1.363 . S
C471 C474 1.363 . S
N472 C474 1.356 . S
N472 H484 0.984 . S
N472 H485 0.985 . S
N473 C475 1.356 . S
N473 H478 0.984 . S
N473 H479 0.985 . S
C474 C468 1.379 . S
C474 C471 1.363 . S
C474 N472 1.356 . S
C475 C469 1.363 . S
C475 C470 1.379 . S
C475 N473 1.356 . S
N476 C468 1.356 . S
N476 H482 0.984 . S
N476 H483 0.984 . S
N477 C470 1.356 . S
N477 H480 0.984 1_565 S
N477 H481 0.985 1_565 S
H478 N473 0.984 . S
H479 N473 0.985 . S
H480 N477 0.984 1_545 S
H481 N477 0.985 1_545 S
H482 N476 0.984 . S
H483 N476 0.984 . S
H484 N472 0.984 . S
H485 N472 0.985 . S
C486 C487 1.363 . S
C486 C492 1.379 . S
C486 N494 1.356 . S
C487 C486 1.363 . S
C487 C493 1.363 . S
C488 C489 1.363 . S
C488 C493 1.379 . S
C488 N495 1.356 . S
C489 C488 1.363 . S
C489 C492 1.363 . S
N490 C492 1.356 . S
N490 H502 0.984 . S
N490 H503 0.985 . S
N491 C493 1.356 . S
N491 H496 0.984 . S
N491 H497 0.985 . S
C492 C486 1.379 . S
C492 C489 1.363 . S
C492 N490 1.356 . S
C493 C487 1.363 . S
C493 C488 1.379 . S
C493 N491 1.356 . S
N494 C486 1.356 . S
N494 H500 0.984 . S
N494 H501 0.984 . S
N495 C488 1.356 . S
N495 H498 0.984 . S
N495 H499 0.985 . S
H496 N491 0.984 . S
H497 N491 0.985 . S
H498 N495 0.984 . S
H499 N495 0.985 . S
H500 N494 0.984 . S
H501 N494 0.984 . S
H502 N490 0.984 . S
H503 N490 0.985 . S
C504 C505 1.363 . S
C504 C510 1.379 . S
C504 N512 1.356 . S
C505 C504 1.363 . S
C505 C511 1.363 . S
C506 C507 1.363 . S
C506 C511 1.379 . S
C506 N513 1.356 . S
C507 C506 1.363 . S
C507 C510 1.363 . S
N508 C510 1.356 . S
N508 H520 0.984 . S
N508 H521 0.985 . S
N509 C511 1.356 . S
N509 H514 0.984 . S
N509 H515 0.985 . S
C510 C504 1.379 . S
C510 C507 1.363 . S
C510 N508 1.356 . S
C511 C505 1.363 . S
C511 C506 1.379 . S
C511 N509 1.356 . S
N512 C504 1.356 . S
N512 H518 0.984 . S
N512 H519 0.984 . S
N513 C506 1.356 . S
N513 H516 0.984 . S
N513 H517 0.985 . S
H514 N509 0.984 . S
H515 N509 0.985 . S
H516 N513 0.984 . S
H517 N513 0.985 . S
H518 N512 0.984 . S
H519 N512 0.984 . S
H520 N508 0.984 . S
H521 N508 0.985 . S
C522 C523 1.363 . S
C522 C528 1.379 . S
C522 N530 1.356 . S
C523 C522 1.363 . S
C523 C529 1.363 . S
C524 C525 1.363 . S
C524 C529 1.379 . S
C524 N531 1.356 . S
C525 C524 1.363 . S
C525 C528 1.363 . S
N526 C528 1.368 . S
N526 H538 0.978 1_554 S
N526 H539 0.979 1_554 S
N527 C529 1.356 . S
N527 H532 0.984 . S
N527 H533 0.985 . S
C528 C522 1.379 . S
C528 C525 1.363 . S
C528 N526 1.368 . S
C529 C523 1.363 . S
C529 C524 1.379 . S
C529 N527 1.356 . S
N530 C522 1.356 . S
N530 H536 0.984 . S
N530 H537 0.984 . S
N531 C524 1.356 . S
N531 H534 0.984 . S
N531 H535 0.985 . S
H532 N527 0.984 . S
H533 N527 0.985 . S
H534 N531 0.984 . S
H535 N531 0.985 . S
H536 N530 0.984 . S
H537 N530 0.984 . S
H538 N526 0.978 1_556 S
H539 N526 0.979 1_556 S
C540 C541 1.363 . S
C540 C546 1.379 . S
C540 N548 1.356 . S
C541 C540 1.363 . S
C541 C547 1.363 . S
C542 C543 1.363 . S
C542 C547 1.379 . S
C542 N549 1.356 . S
C543 C542 1.363 . S
C543 C546 1.363 . S
N544 C546 1.356 . S
N544 H556 0.984 . S
N544 H557 0.985 . S
N545 C547 1.356 . S
N545 H550 0.984 . S
N545 H551 0.985 . S
C546 C540 1.379 . S
C546 C543 1.363 . S
C546 N544 1.356 . S
C547 C541 1.363 . S
C547 C542 1.379 . S
C547 N545 1.356 . S
N548 C540 1.356 . S
N548 H554 0.984 . S
N548 H555 0.984 . S
N549 C542 1.356 . S
N549 H552 0.984 . S
N549 H553 0.985 . S
H550 N545 0.984 . S
H551 N545 0.985 . S
H552 N549 0.984 . S
H553 N549 0.985 . S
H554 N548 0.984 . S
H555 N548 0.984 . S
H556 N544 0.984 . S
H557 N544 0.985 . S
C558 C559 1.363 . S
C558 C564 1.379 . S
C558 N566 1.356 . S
C559 C558 1.363 . S
C559 C565 1.363 . S
C560 C561 1.363 . S
C560 C565 1.379 . S
C560 N567 1.356 1_556 S
C561 C560 1.363 . S
C561 C564 1.363 . S
N562 C564 1.356 . S
N562 H574 0.984 . S
N562 H575 0.985 . S
N563 C565 1.356 . S
N563 H568 0.984 . S
N563 H569 0.985 . S
C564 C558 1.379 . S
C564 C561 1.363 . S
C564 N562 1.356 . S
C565 C559 1.363 . S
C565 C560 1.379 . S
C565 N563 1.356 . S
N566 C558 1.356 . S
N566 H572 0.984 . S
N566 H573 0.984 . S
N567 C560 1.356 1_554 S
N567 H570 0.984 . S
N567 H571 0.985 . S
H568 N563 0.984 . S
H569 N563 0.985 . S
H570 N567 0.984 . S
H571 N567 0.985 . S
H572 N566 0.984 . S
H573 N566 0.984 . S
H574 N562 0.984 . S
H575 N562 0.985 . S
C576 C577 1.363 . S
C576 C582 1.379 . S
C576 N584 1.356 . S
C577 C576 1.363 . S
C577 C583 1.363 . S
C578 C579 1.363 . S
C578 C583 1.379 . S
C578 N585 1.356 . S
C579 C578 1.363 . S
C579 C582 1.363 . S
N580 C582 1.356 . S
N580 H592 0.984 . S
N580 H593 0.985 . S
N581 C583 1.356 . S
N581 H586 0.984 . S
N581 H587 0.985 . S
C582 C576 1.379 . S
C582 C579 1.363 . S
C582 N580 1.356 . S
C583 C577 1.363 . S
C583 C578 1.379 . S
C583 N581 1.356 . S
N584 C576 1.356 . S
N584 H590 0.984 . S
N584 H591 0.984 . S
N585 C578 1.356 . S
N585 H588 0.984 . S
N585 H589 0.985 . S
H586 N581 0.984 . S
H587 N581 0.985 . S
H588 N585 0.984 . S
H589 N585 0.985 . S
H590 N584 0.984 . S
H591 N584 0.984 . S
H592 N580 0.984 . S
H593 N580 0.985 . S
C594 C595 1.363 . S
C594 C600 1.379 . S
C594 N602 1.356 . S
C595 C594 1.363 . S
C595 C601 1.363 . S
C596 C597 1.363 . S
C596 C601 1.379 . S
C596 N603 1.356 . S
C597 C596 1.363 . S
C597 C600 1.363 . S
N598 C600 1.356 . S
N598 H610 0.984 . S
N598 H611 0.985 . S
N599 C601 1.356 . S
N599 H604 0.984 . S
N599 H605 0.985 . S
C600 C594 1.379 . S
C600 C597 1.363 . S
C600 N598 1.356 . S
C601 C595 1.363 . S
C601 C596 1.379 . S
C601 N599 1.356 . S
N602 C594 1.356 . S
N602 H608 0.984 . S
N602 H609 0.984 . S
N603 C596 1.356 . S
N603 H606 0.984 . S
N603 H607 0.985 . S
H604 N599 0.984 . S
H605 N599 0.985 . S
H606 N603 0.984 . S
H607 N603 0.985 . S
H608 N602 0.984 . S
H609 N602 0.984 . S
H610 N598 0.984 . S
H611 N598 0.985 . S
C183 C108 1.565 . S
C181 C6 1.572 . S
C201 C111 1.615 . S
C199 C18 1.613 . S
C219 C109 1.528 . S
C217 C28 1.542 . S
C237 C110 1.630 . S
C235 C45 1.655 . S
C255 C125 1.455 . S
C253 C4 1.470 . S
C273 C139 1.635 . S
C271 C21 1.636 . S
C289 C33 1.637 . S
C291 C165 1.650 . S
C309 C179 1.649 . S
C307 C40 1.652 . S
C327 C124 1.582 . S
C325 C16 1.558 . S
C343 C30 1.607 . S
C345 C138 1.586 . S
C363 C164 1.620 . S
C361 C42 1.613 . S
C381 C178 1.670 . S
C379 C9 1.683 . S
C397 C52 1.649 . S
C399 C123 1.622 1_655 S
C417 C96 1.675 . S
C415 C69 1.655 . S
C433 C78 1.542 . S
C435 C122 1.531 . S
C451 C93 1.358 . S
C453 C97 1.384 . S
C471 C152 1.694 . S
C469 C57 1.676 . S
C489 C166 1.690 . S
C487 C66 1.707 . S
C507 C136 1.454 . S
C505 C76 1.458 . S
C523 C88 1.464 . S
C525 C150 1.440 . S
C543 C153 1.620 . S
C541 C64 1.601 . S
C561 C167 1.620 1_556 S
C559 C81 1.633 . S
C579 C137 1.389 . S
C577 C90 1.387 . S
C595 C54 1.589 . S
C597 C151 1.585 . S
