# Generated by pormake.
# Topology pto, (3,4)-cn, num edge types: 1
# Building blocks:
#     Node 0, Type 0, BuildingBlock: WUSLED_clean_sbu_0, # of connection points: 3
#     Node 1, Type 0, BuildingBlock: WUSLED_clean_sbu_0, # of connection points: 3
#     Node 2, Type 0, BuildingBlock: WUSLED_clean_sbu_0, # of connection points: 3
#     Node 3, Type 0, BuildingBlock: WUSLED_clean_sbu_0, # of connection points: 3
#     Node 4, Type 0, BuildingBlock: WUSLED_clean_sbu_0, # of connection points: 3
#     Node 5, Type 0, BuildingBlock: WUSLED_clean_sbu_0, # of connection points: 3
#     Node 6, Type 0, BuildingBlock: WUSLED_clean_sbu_0, # of connection points: 3
#     Node 7, Type 0, BuildingBlock: WUSLED_clean_sbu_0, # of connection points: 3
#     Node 8, Type 1, BuildingBlock: MUDLON_clean_linker_0, # of connection points: 4
#     Node 9, Type 1, BuildingBlock: MUDLON_clean_linker_0, # of connection points: 4
#     Node 10, Type 1, BuildingBlock: MUDLON_clean_linker_0, # of connection points: 4
#     Node 11, Type 1, BuildingBlock: MUDLON_clean_linker_0, # of connection points: 4
#     Node 12, Type 1, BuildingBlock: MUDLON_clean_linker_0, # of connection points: 4
#     Node 13, Type 1, BuildingBlock: MUDLON_clean_linker_0, # of connection points: 4
#     Edge 14, Type (0, 1), None
#     Edge 15, Type (0, 1), None
#     Edge 16, Type (0, 1), None
#     Edge 17, Type (0, 1), None
#     Edge 18, Type (0, 1), None
#     Edge 19, Type (0, 1), None
#     Edge 20, Type (0, 1), None
#     Edge 21, Type (0, 1), None
#     Edge 22, Type (0, 1), None
#     Edge 23, Type (0, 1), None
#     Edge 24, Type (0, 1), None
#     Edge 25, Type (0, 1), None
#     Edge 26, Type (0, 1), None
#     Edge 27, Type (0, 1), None
#     Edge 28, Type (0, 1), None
#     Edge 29, Type (0, 1), None
#     Edge 30, Type (0, 1), None
#     Edge 31, Type (0, 1), None
#     Edge 32, Type (0, 1), None
#     Edge 33, Type (0, 1), None
#     Edge 34, Type (0, 1), None
#     Edge 35, Type (0, 1), None
#     Edge 36, Type (0, 1), None
#     Edge 37, Type (0, 1), None
# Relax obj value: 0.007
# Max RMSD: 0.037
# Mean RMSD: 0.022
data_MOF--net-pto--node1-WUSLED_clean_sbu_0--node2-MUDLON_clean_linker_0--edge1-none
_symmetry_space_group_name_H-M    P1
_symmetry_Int_Tables_number       1
_symmetry_cell_setting            triclinic
loop_
_symmetry_equiv_pos_as_xyz
'x, y, z'
_cell_length_a     32.823641
_cell_length_b     54.339935
_cell_length_c     43.771195
_cell_angle_alpha  89.5149
_cell_angle_beta   90.362593
_cell_angle_gamma 90.636604
loop_
_atom_site_label
_atom_site_type_symbol
_atom_site_fract_x
_atom_site_fract_y
_atom_site_fract_z
_atom_type_partial_charge
C0 C 0.21946 0.21609 0.38145 0.0
C1 C 0.25349 0.20109 0.37728 0.0
C2 C 0.23092 0.17407 0.41871 0.0
C3 C 0.25923 0.18029 0.39581 0.0
C4 C 0.19605 0.18866 0.42191 0.0
C5 C 0.19046 0.20951 0.40347 0.0
U6 U 0.24995 0.25895 0.31594 0.0
O7 O 0.21334 0.28372 0.28704 0.0
O8 O 0.26215 0.29881 0.31604 0.0
C9 C 0.23131 0.30363 0.29774 0.0
C10 C 0.21511 0.2393 0.36427 0.0
C11 C 0.20383 0.32293 0.30822 0.0
C12 C 0.15579 0.33853 0.3451 0.0
C13 C 0.18234 0.32017 0.33564 0.0
C14 C 0.17219 0.36263 0.29989 0.0
C15 C 0.15022 0.35992 0.32723 0.0
C16 C 0.1988 0.34428 0.29051 0.0
C17 C 0.33086 0.23939 0.25962 0.0
C18 C 0.35568 0.26749 0.22033 0.0
C19 C 0.38524 0.22701 0.22596 0.0
C20 C 0.3587 0.22176 0.25005 0.0
C21 C 0.38441 0.25006 0.21105 0.0
C22 C 0.32912 0.26219 0.24443 0.0
C23 C 0.30494 0.23417 0.28615 0.0
O24 O 0.24679 0.25426 0.36572 0.0
O25 O 0.19968 0.23745 0.33659 0.0
O26 O 0.26568 0.23239 0.28034 0.0
O27 O 0.31338 0.24732 0.31049 0.0
H28 H 0.27612 0.20584 0.36024 0.0
H29 H 0.28618 0.16931 0.3926 0.0
H30 H 0.17395 0.18459 0.43956 0.0
H31 H 0.16405 0.22091 0.40701 0.0
H32 H 0.13887 0.33568 0.36601 0.0
H33 H 0.18581 0.30373 0.34955 0.0
H34 H 0.16886 0.37895 0.28576 0.0
H35 H 0.2153 0.34671 0.26931 0.0
H36 H 0.35398 0.28531 0.20915 0.0
H37 H 0.40737 0.21333 0.21975 0.0
H38 H 0.36048 0.20409 0.26164 0.0
H39 H 0.30767 0.276 0.25155 0.0
C40 C 0.22338 0.81283 0.65061 0.0
C41 C 0.20036 0.83378 0.65735 0.0
C42 C 0.22335 0.85408 0.61052 0.0
C43 C 0.2004 0.85417 0.63755 0.0
C44 C 0.24679 0.83327 0.60406 0.0
C45 C 0.24667 0.8129 0.62376 0.0
U46 U 0.25583 0.77257 0.71955 0.0
O47 O 0.21908 0.74864 0.74963 0.0
O48 O 0.26682 0.73269 0.7214 0.0
C49 C 0.23577 0.7284 0.73956 0.0
C50 C 0.22095 0.79028 0.66997 0.0
C51 C 0.20689 0.70935 0.72905 0.0
C52 C 0.15101 0.69655 0.69602 0.0
C53 C 0.17866 0.71461 0.7058 0.0
C54 C 0.17974 0.66761 0.73242 0.0
C55 C 0.15118 0.67279 0.70917 0.0
C56 C 0.20737 0.68576 0.74225 0.0
C57 C 0.33812 0.79682 0.77515 0.0
C58 C 0.38776 0.77434 0.80567 0.0
C59 C 0.37223 0.81656 0.81801 0.0
C60 C 0.3442 0.81735 0.79387 0.0
C61 C 0.39504 0.79522 0.82382 0.0
C62 C 0.3595 0.77511 0.78159 0.0
C63 C 0.31112 0.79907 0.74822 0.0
O64 O 0.25276 0.77579 0.6695 0.0
O65 O 0.20542 0.79253 0.69743 0.0
O66 O 0.27194 0.80062 0.75381 0.0
O67 O 0.31938 0.78491 0.72489 0.0
H68 H 0.1817 0.83429 0.67765 0.0
H69 H 0.18218 0.86995 0.64331 0.0
H70 H 0.26418 0.83232 0.58316 0.0
H71 H 0.26418 0.79693 0.61755 0.0
H72 H 0.12903 0.70138 0.67849 0.0
H73 H 0.17785 0.73276 0.69537 0.0
H74 H 0.181 0.64949 0.74282 0.0
H75 H 0.2291 0.68138 0.76016 0.0
H76 H 0.40498 0.75767 0.8093 0.0
H77 H 0.37646 0.83282 0.83186 0.0
H78 H 0.32784 0.83423 0.78941 0.0
H79 H 0.35518 0.75895 0.76756 0.0
C80 C 0.69548 0.78927 0.26458 0.0
C81 C 0.70216 0.76833 0.24684 0.0
C82 C 0.64307 0.77808 0.21518 0.0
C83 C 0.67624 0.76281 0.2223 0.0
C84 C 0.63709 0.79931 0.23276 0.0
C85 C 0.66309 0.80483 0.25725 0.0
U86 U 0.77643 0.76925 0.3214 0.0
O87 O 0.77948 0.77279 0.37136 0.0
O88 O 0.82672 0.79009 0.34286 0.0
C89 C 0.81153 0.78747 0.37044 0.0
C90 C 0.72099 0.79437 0.29153 0.0
C91 C 0.80812 0.81008 0.38839 0.0
C92 C 0.78038 0.85085 0.39606 0.0
C93 C 0.7852 0.83007 0.37775 0.0
C94 C 0.82172 0.83187 0.43559 0.0
C95 C 0.79827 0.85191 0.42538 0.0
C96 C 0.82661 0.81121 0.41725 0.0
C97 C 0.82368 0.7059 0.31288 0.0
C98 C 0.87439 0.69075 0.34879 0.0
C99 C 0.85473 0.6661 0.30511 0.0
C100 C 0.82742 0.68433 0.29587 0.0
C101 C 0.87871 0.66916 0.3316 0.0
C102 C 0.84713 0.70898 0.33948 0.0
C103 C 0.79564 0.72515 0.30249 0.0
O104 O 0.71277 0.78065 0.31562 0.0
O105 O 0.76025 0.79672 0.2863 0.0
O106 O 0.81309 0.74543 0.29217 0.0
O107 O 0.76486 0.72931 0.32072 0.0
H108 H 0.72707 0.75609 0.25225 0.0
H109 H 0.68198 0.74649 0.20906 0.0
H110 H 0.61152 0.81126 0.22825 0.0
H111 H 0.6574 0.82098 0.27086 0.0
H112 H 0.76245 0.866 0.38733 0.0
H113 H 0.77059 0.82946 0.35549 0.0
H114 H 0.83529 0.83175 0.4582 0.0
H115 H 0.84417 0.79585 0.42589 0.0
H116 H 0.89284 0.69388 0.36901 0.0
H117 H 0.85708 0.64961 0.29153 0.0
H118 H 0.8094 0.68165 0.27531 0.0
H119 H 0.84465 0.72559 0.35284 0.0
C120 C 0.76282 0.19534 0.67353 0.0
C121 C 0.73552 0.19112 0.64922 0.0
C122 C 0.78251 0.16227 0.62627 0.0
C123 C 0.74529 0.17487 0.62581 0.0
C124 C 0.80938 0.16606 0.651 0.0
C125 C 0.79967 0.18237 0.67434 0.0
U126 U 0.77487 0.25762 0.71338 0.0
O127 O 0.72879 0.28166 0.73355 0.0
O128 O 0.778 0.26672 0.76217 0.0
C129 C 0.74332 0.27862 0.76138 0.0
C130 C 0.75223 0.21288 0.69799 0.0
C131 C 0.71304 0.2717 0.78483 0.0
C132 C 0.68542 0.24288 0.8224 0.0
C133 C 0.71473 0.24904 0.80048 0.0
C134 C 0.65216 0.28183 0.81325 0.0
C135 C 0.65358 0.25913 0.82895 0.0
C136 C 0.68166 0.28805 0.79154 0.0
C137 C 0.85109 0.30468 0.68015 0.0
C138 C 0.86513 0.34483 0.70226 0.0
C139 C 0.90339 0.33127 0.65845 0.0
C140 C 0.88119 0.30921 0.65829 0.0
C141 C 0.89584 0.34936 0.6805 0.0
C142 C 0.84291 0.32264 0.70208 0.0
C143 C 0.82961 0.28081 0.68006 0.0
O144 O 0.78061 0.21753 0.71857 0.0
O145 O 0.73251 0.23268 0.68921 0.0
O146 O 0.79032 0.28147 0.67416 0.0
O147 O 0.83898 0.26575 0.70261 0.0
H148 H 0.70668 0.20061 0.64812 0.0
H149 H 0.72402 0.17263 0.607 0.0
H150 H 0.83797 0.15635 0.65241 0.0
H151 H 0.82122 0.18482 0.69293 0.0
H152 H 0.68783 0.22539 0.83427 0.0
H153 H 0.73858 0.23602 0.79576 0.0
H154 H 0.62775 0.29463 0.81722 0.0
H155 H 0.6797 0.30559 0.77969 0.0
H156 H 0.85836 0.35838 0.71944 0.0
H157 H 0.92734 0.33379 0.64178 0.0
H158 H 0.88804 0.29548 0.64131 0.0
H159 H 0.81969 0.31938 0.71917 0.0
C160 C 0.84967 0.72287 0.67478 0.0
C161 C 0.87766 0.71929 0.65131 0.0
C162 C 0.89627 0.67951 0.67314 0.0
C163 C 0.90076 0.69788 0.65048 0.0
C164 C 0.86762 0.68306 0.6965 0.0
C165 C 0.84449 0.70458 0.69731 0.0
U166 U 0.77469 0.76721 0.71183 0.0
O167 O 0.78275 0.75861 0.76071 0.0
O168 O 0.73293 0.74123 0.73484 0.0
C169 C 0.74914 0.74525 0.76189 0.0
C170 C 0.82705 0.74605 0.67563 0.0
C171 C 0.72 0.7524 0.78548 0.0
C172 C 0.67991 0.7422 0.83039 0.0
C173 C 0.70889 0.73572 0.80863 0.0
C174 C 0.67325 0.78222 0.80614 0.0
C175 C 0.66162 0.76551 0.82932 0.0
C176 C 0.70214 0.77571 0.78442 0.0
C177 C 0.75105 0.82921 0.67325 0.0
C178 C 0.72477 0.86474 0.64582 0.0
C179 C 0.78661 0.84534 0.62869 0.0
C180 C 0.78358 0.82817 0.65266 0.0
C181 C 0.75695 0.86365 0.62483 0.0
C182 C 0.72192 0.84769 0.66982 0.0
C183 C 0.74629 0.81096 0.698 0.0
O184 O 0.83788 0.76134 0.69741 0.0
O185 O 0.78737 0.74413 0.67202 0.0
O186 O 0.7784 0.80752 0.71555 0.0
O187 O 0.72775 0.79034 0.69034 0.0
H188 H 0.88216 0.73327 0.63382 0.0
H189 H 0.92305 0.6961 0.63253 0.0
H190 H 0.86318 0.66926 0.71419 0.0
H191 H 0.82291 0.70708 0.71562 0.0
H192 H 0.67191 0.729 0.84809 0.0
H193 H 0.72239 0.71762 0.80973 0.0
H194 H 0.65932 0.80015 0.80431 0.0
H195 H 0.71017 0.78876 0.76653 0.0
H196 H 0.7017 0.87875 0.64364 0.0
H197 H 0.81147 0.84384 0.61269 0.0
H198 H 0.80627 0.81393 0.65489 0.0
H199 H 0.69666 0.84878 0.68555 0.0
C200 C 0.70015 0.24016 0.26606 0.0
C201 C 0.6823 0.26339 0.26261 0.0
C202 C 0.64688 0.24984 0.21649 0.0
C203 C 0.65577 0.26813 0.23822 0.0
C204 C 0.66578 0.2268 0.21962 0.0
C205 C 0.69203 0.22201 0.24423 0.0
U206 U 0.78297 0.25983 0.32198 0.0
O207 O 0.8354 0.23959 0.3408 0.0
O208 O 0.78909 0.2542 0.37154 0.0
C209 C 0.82202 0.24085 0.36898 0.0
C210 C 0.72721 0.23464 0.2922 0.0
C211 C 0.82239 0.21777 0.3868 0.0
C212 C 0.78981 0.17994 0.40467 0.0
C213 C 0.78972 0.2009 0.38578 0.0
C214 C 0.85567 0.19225 0.42505 0.0
C215 C 0.82265 0.17549 0.42478 0.0
C216 C 0.85549 0.21314 0.40626 0.0
C217 C 0.82874 0.3247 0.31436 0.0
C218 C 0.85964 0.3501 0.35393 0.0
C219 C 0.88244 0.35415 0.30161 0.0
C220 C 0.8541 0.33616 0.29272 0.0
C221 C 0.88584 0.36122 0.33238 0.0
C222 C 0.83154 0.33195 0.34506 0.0
C223 C 0.8003 0.30504 0.30445 0.0
O224 O 0.76622 0.23351 0.28585 0.0
O225 O 0.71975 0.24664 0.3175 0.0
O226 O 0.77022 0.29945 0.32307 0.0
O227 O 0.81739 0.2856 0.29255 0.0
H228 H 0.68839 0.27782 0.27901 0.0
H229 H 0.64142 0.28595 0.23692 0.0
H230 H 0.66026 0.21241 0.2031 0.0
H231 H 0.70584 0.20405 0.2463 0.0
H232 H 0.76408 0.16731 0.4037 0.0
H233 H 0.76391 0.20416 0.37078 0.0
H234 H 0.88112 0.1897 0.44057 0.0
H235 H 0.88089 0.22602 0.40743 0.0
H236 H 0.86095 0.35531 0.37774 0.0
H237 H 0.90248 0.36196 0.28444 0.0
H238 H 0.85248 0.33085 0.26893 0.0
H239 H 0.81233 0.32346 0.36229 0.0
C240 C 0.2197 0.21952 0.64824 0.0
C241 C 0.24446 0.19997 0.65778 0.0
C242 C 0.22853 0.17782 0.61087 0.0
C243 C 0.24882 0.17928 0.63926 0.0
C244 C 0.2034 0.19743 0.60172 0.0
C245 C 0.19904 0.21805 0.62024 0.0
U246 U 0.25167 0.25801 0.71672 0.0
O247 O 0.26385 0.29776 0.72038 0.0
O248 O 0.21543 0.28055 0.74782 0.0
C249 C 0.23268 0.30124 0.73854 0.0
C250 C 0.21622 0.24186 0.66673 0.0
C251 C 0.20451 0.32138 0.73014 0.0
C252 C 0.18351 0.35495 0.69649 0.0
C253 C 0.21057 0.33604 0.70388 0.0
C254 C 0.14409 0.3451 0.74159 0.0
C255 C 0.14973 0.35962 0.71514 0.0
C256 C 0.17126 0.32633 0.74906 0.0
C257 C 0.33304 0.2316 0.77089 0.0
C258 C 0.35957 0.25272 0.81566 0.0
C259 C 0.3866 0.21313 0.80146 0.0
C260 C 0.35991 0.21227 0.77654 0.0
C261 C 0.38687 0.23336 0.82133 0.0
C262 C 0.33279 0.25183 0.79061 0.0
C263 C 0.30619 0.23034 0.74399 0.0
O264 O 0.20071 0.23864 0.69411 0.0
O265 O 0.24846 0.25641 0.66657 0.0
O266 O 0.31502 0.2458 0.72169 0.0
O267 O 0.26697 0.22866 0.7496 0.0
H268 H 0.2607 0.20085 0.67938 0.0
H269 H 0.26814 0.16447 0.64714 0.0
H270 H 0.18795 0.19722 0.57979 0.0
H271 H 0.18001 0.23305 0.61246 0.0
H272 H 0.18917 0.36594 0.67618 0.0
H273 H 0.23612 0.33293 0.68892 0.0
H274 H 0.11812 0.34784 0.75626 0.0
H275 H 0.166 0.31547 0.76956 0.0
H276 H 0.35884 0.26849 0.83059 0.0
H277 H 0.40773 0.19815 0.80469 0.0
H278 H 0.36062 0.19659 0.76143 0.0
H279 H 0.31213 0.26693 0.7865 0.0
C280 C 0.17726 0.72767 0.36182 0.0
C281 C 0.18812 0.70743 0.34401 0.0
C282 C 0.13149 0.68346 0.36512 0.0
C283 C 0.16539 0.68547 0.34564 0.0
C284 C 0.12095 0.70393 0.38282 0.0
C285 C 0.14367 0.72575 0.38122 0.0
U286 U 0.25722 0.77082 0.32607 0.0
O287 O 0.25496 0.8109 0.3186 0.0
O288 O 0.30175 0.79524 0.34871 0.0
C289 C 0.2837 0.81532 0.33894 0.0
C290 C 0.20014 0.75103 0.36041 0.0
C291 C 0.27264 0.83272 0.363 0.0
C292 C 0.23403 0.84204 0.40852 0.0
C293 C 0.24454 0.82567 0.38551 0.0
C294 C 0.2795 0.87284 0.38677 0.0
C295 C 0.25131 0.86586 0.40946 0.0
C296 C 0.29004 0.85638 0.36371 0.0
C297 C 0.31831 0.74838 0.25664 0.0
C298 C 0.35059 0.77061 0.21458 0.0
C299 C 0.37515 0.73044 0.2298 0.0
C300 C 0.34559 0.72906 0.25253 0.0
C301 C 0.37794 0.75115 0.21036 0.0
C302 C 0.32105 0.76925 0.23753 0.0
C303 C 0.28694 0.74576 0.28049 0.0
O304 O 0.23918 0.74973 0.36697 0.0
O305 O 0.19232 0.76513 0.3366 0.0
O306 O 0.25457 0.75971 0.2779 0.0
O307 O 0.30063 0.74382 0.30868 0.0
H308 H 0.21403 0.70866 0.32884 0.0
H309 H 0.17446 0.67007 0.33181 0.0
H310 H 0.09454 0.70332 0.39752 0.0
H311 H 0.13475 0.74126 0.39498 0.0
H312 H 0.21282 0.83585 0.42589 0.0
H313 H 0.23088 0.80742 0.38535 0.0
H314 H 0.29311 0.89108 0.38664 0.0
H315 H 0.31173 0.86213 0.34644 0.0
H316 H 0.35169 0.78676 0.19994 0.0
H317 H 0.39622 0.71536 0.22777 0.0
H318 H 0.34407 0.7128 0.26703 0.0
H319 H 0.30034 0.78445 0.24021 0.0
H320 H 0.98914 0.38675 0.39855 0.0
N321 N 0.0218 0.42291 0.36555 0.0
H322 H 0.93222 0.35978 0.38456 0.0
H323 H 0.97145 0.42919 0.3161 0.0
H324 H 0.91332 0.40286 0.30223 0.0
H325 H 0.0412 0.41143 0.30669 0.0
H326 H 0.09532 0.38404 0.29084 0.0
H327 H 0.08181 0.40541 0.40022 0.0
H328 H 0.13674 0.37813 0.38449 0.0
H329 H 0.9857 0.452 0.40507 0.0
H330 H 0.05424 0.45412 0.32135 0.0
H331 H 0.98216 0.49676 0.40441 0.0
H332 H 0.0532 0.49883 0.32152 0.0
H333 H 0.95318 0.62507 0.40409 0.0
H334 H 0.89666 0.65179 0.38906 0.0
H335 H 0.93097 0.64464 0.29443 0.0
H336 H 0.9867 0.61791 0.30962 0.0
H337 H 0.05771 0.61988 0.31913 0.0
H338 H 0.10834 0.6533 0.31771 0.0
H339 H 0.09652 0.66183 0.41537 0.0
H340 H 0.04446 0.62931 0.41607 0.0
H341 H 0.01692 0.57642 0.41478 0.0
H342 H 0.02126 0.53167 0.41334 0.0
H343 H 0.01486 0.53452 0.31459 0.0
N344 N 0.01068 0.60747 0.36815 0.0
H345 H 0.01337 0.5794 0.31651 0.0
C346 C 0.98439 0.40994 0.35853 0.0
C347 C 0.97217 0.39057 0.37778 0.0
C348 C 0.93951 0.37524 0.36974 0.0
C349 C 0.91812 0.37904 0.34217 0.0
C350 C 0.92947 0.39914 0.32339 0.0
C351 C 0.96242 0.41439 0.33141 0.0
C352 C 0.05761 0.41059 0.35475 0.0
C353 C 0.06243 0.40472 0.32374 0.0
C354 C 0.09348 0.38902 0.31469 0.0
C355 C 0.12018 0.37873 0.33644 0.0
C356 C 0.11633 0.38548 0.36724 0.0
C357 C 0.08534 0.40126 0.37623 0.0
C358 C 0.02054 0.44949 0.36365 0.0
C359 C 0.00033 0.46215 0.3867 0.0
C360 C -0.00127 0.48782 0.38639 0.0
C361 C 0.01798 0.50167 0.36316 0.0
C362 C 0.03772 0.48892 0.33968 0.0
C363 C 0.03869 0.46313 0.33973 0.0
C364 C 0.9739 0.6193 0.35809 0.0
C365 C 0.94771 0.6288 0.38008 0.0
C366 C 0.91581 0.64427 0.37146 0.0
C367 C 0.90952 0.65052 0.34056 0.0
C368 C 0.93467 0.64 0.3184 0.0
C369 C 0.96664 0.6246 0.32707 0.0
C370 C 0.04696 0.62249 0.3677 0.0
C371 C 0.06652 0.62874 0.34023 0.0
C372 C 0.09565 0.64778 0.33952 0.0
C373 C 0.10588 0.66066 0.36634 0.0
C374 C 0.08858 0.65281 0.39415 0.0
C375 C 0.05925 0.63403 0.39472 0.0
C376 C 0.01416 0.58119 0.36591 0.0
C377 C 0.01669 0.56729 0.39287 0.0
C378 C 0.01872 0.54166 0.39193 0.0
C379 C 0.01767 0.5292 0.36383 0.0
C380 C 0.01597 0.54332 0.33667 0.0
C381 C 0.0146 0.56909 0.3377 0.0
H382 H 0.97858 0.40581 0.73191 0.0
N383 N 0.01899 0.42379 0.68269 0.0
H384 H 0.92656 0.37314 0.73101 0.0
H385 H 0.97761 0.40877 0.63366 0.0
H386 H 0.92432 0.37696 0.63229 0.0
H387 H 0.06642 0.39962 0.64433 0.0
H388 H 0.12141 0.37144 0.6578 0.0
H389 H 0.05286 0.41838 0.73901 0.0
H390 H 0.10881 0.39107 0.7528 0.0
H391 H 0.01356 0.45427 0.73142 0.0
H392 H 0.02037 0.45256 0.63336 0.0
H393 H 0.01523 0.49937 0.73002 0.0
H394 H 0.01938 0.49743 0.63126 0.0
H395 H 0.98589 0.62577 0.72122 0.0
H396 H 0.93293 0.65686 0.72226 0.0
H397 H 0.92144 0.65269 0.624 0.0
H398 H 0.97574 0.6222 0.62321 0.0
H399 H 0.06978 0.63604 0.63466 0.0
H400 H 0.12498 0.66367 0.65083 0.0
H401 H 0.10914 0.63882 0.74415 0.0
H402 H 0.05494 0.61053 0.72732 0.0
H403 H 0.98298 0.58084 0.71414 0.0
H404 H 0.98041 0.53594 0.71792 0.0
H405 H 0.0607 0.53146 0.64021 0.0
N406 N 0.02236 0.60822 0.66989 0.0
H407 H 0.06087 0.57618 0.63565 0.0
C408 C 0.98199 0.40946 0.6828 0.0
C409 C 0.96608 0.39995 0.71019 0.0
C410 C 0.93627 0.38131 0.70957 0.0
C411 C 0.92177 0.37204 0.68153 0.0
C412 C 0.9355 0.38319 0.65427 0.0
C413 C 0.96551 0.4016 0.65495 0.0
C414 C 0.0559 0.41119 0.69058 0.0
C415 C 0.0763 0.3982 0.66793 0.0
C416 C 0.10773 0.38212 0.67573 0.0
C417 C 0.11946 0.37878 0.70647 0.0
C418 C 0.10015 0.39282 0.72897 0.0
C419 C 0.06851 0.40876 0.72111 0.0
C420 C 0.01763 0.4502 0.68246 0.0
C421 C 0.01529 0.46367 0.70958 0.0
C422 C 0.01577 0.4895 0.70865 0.0
C423 C 0.01797 0.50229 0.68052 0.0
C424 C 0.01889 0.48846 0.65343 0.0
C425 C 0.01904 0.46276 0.65447 0.0
C426 C 0.98501 0.6218 0.67199 0.0
C427 C 0.97137 0.63111 0.69997 0.0
C428 C 0.94089 0.6489 0.70053 0.0
C429 C 0.92335 0.65765 0.67315 0.0
C430 C 0.93492 0.64682 0.64546 0.0
C431 C 0.96555 0.62917 0.64494 0.0
C432 C 0.0583 0.62141 0.67975 0.0
C433 C 0.07891 0.63625 0.65848 0.0
C434 C 0.11006 0.65222 0.66786 0.0
C435 C 0.12108 0.65382 0.6989 0.0
C436 C 0.10159 0.63802 0.72006 0.0
C437 C 0.07049 0.6219 0.71055 0.0
C438 C 0.02159 0.58187 0.67415 0.0
C439 C -0.00025 0.57019 0.69781 0.0
C440 C -0.00136 0.5444 0.7001 0.0
C441 C 0.01989 0.52982 0.67911 0.0
C442 C 0.04288 0.54182 0.65625 0.0
C443 C 0.04341 0.56745 0.65374 0.0
H444 H 0.18473 0.12447 0.5349 0.0
N445 N 0.25947 0.10721 0.51779 0.0
H446 H 0.17211 0.15428 0.57469 0.0
H447 H 0.31185 0.12293 0.56001 0.0
H448 H 0.29976 0.15365 0.59942 0.0
H449 H 0.31467 0.13467 0.48914 0.0
H450 H 0.30304 0.16371 0.4471 0.0
H451 H 0.18969 0.11005 0.48322 0.0
H452 H 0.17765 0.1391 0.44116 0.0
H453 H 0.18726 0.08272 0.52986 0.0
H454 H 0.31292 0.07252 0.50563 0.0
H455 H 0.17611 0.03839 0.52984 0.0
H456 H 0.30174 0.02795 0.50438 0.0
H457 H 0.15093 0.91024 0.55102 0.0
H458 H 0.15592 0.87987 0.59249 0.0
H459 H 0.28553 0.87502 0.57733 0.0
H460 H 0.28005 0.90488 0.53569 0.0
H461 H 0.28374 0.92311 0.48487 0.0
H462 H 0.30144 0.89756 0.44128 0.0
H463 H 0.176 0.87311 0.43416 0.0
H464 H 0.15901 0.89815 0.47838 0.0
H465 H 0.15887 0.95977 0.49552 0.0
H466 H 0.17036 1.00429 0.49653 0.0
H467 H 0.28993 0.99264 0.5357 0.0
N468 N 0.20937 0.92454 0.51289 0.0
H469 H 0.27862 0.94826 0.53347 0.0
C470 C 0.2494 0.12115 0.54459 0.0
C471 C 0.20984 0.12998 0.54945 0.0
C472 C 0.20273 0.14743 0.57202 0.0
C473 C 0.23499 0.15668 0.59004 0.0
C474 C 0.27409 0.14683 0.58621 0.0
C475 C 0.28111 0.12926 0.5637 0.0
C476 C 0.25319 0.12031 0.48941 0.0
C477 C 0.28501 0.13511 0.47817 0.0
C478 C 0.27827 0.15167 0.45414 0.0
C479 C 0.23929 0.15387 0.44095 0.0
C480 C 0.20786 0.13805 0.45114 0.0
C481 C 0.21477 0.12134 0.47509 0.0
C482 C 0.25124 0.08106 0.518 0.0
C483 C 0.21255 0.07103 0.52449 0.0
C484 C 0.2061 0.04551 0.52421 0.0
C485 C 0.23802 0.02943 0.51714 0.0
C486 C 0.27658 0.03962 0.51047 0.0
C487 C 0.28301 0.0651 0.51095 0.0
C488 C 0.2149 0.90991 0.54024 0.0
C489 C 0.1805 0.90299 0.55716 0.0
C490 C 0.18347 0.88566 0.58087 0.0
C491 C 0.2211 0.87482 0.5881 0.0
C492 C 0.25598 0.88271 0.57207 0.0
C493 C 0.25294 0.90004 0.54837 0.0
C494 C 0.21994 0.91241 0.48493 0.0
C495 C 0.26 0.91245 0.47374 0.0
C496 C 0.27004 0.89789 0.44868 0.0
C497 C 0.24024 0.88304 0.43437 0.0
C498 C 0.1999 0.8839 0.44496 0.0
C499 C 0.18999 0.89837 0.47 0.0
C500 C 0.21757 0.95064 0.51456 0.0
C501 C 0.18752 0.96691 0.50433 0.0
C502 C 0.19408 0.99236 0.50515 0.0
C503 C 0.23103 1.00221 0.51637 0.0
C504 C 0.26128 0.9858 0.52658 0.0
C505 C 0.25472 0.96029 0.52556 0.0
H506 H 0.55895 0.72151 0.16556 0.0
N507 N 0.51576 0.75186 0.13086 0.0
H508 H 0.61265 0.73225 0.20219 0.0
H509 H 0.5516 0.79747 0.13721 0.0
H510 H 0.60576 0.80834 0.1732 0.0
H511 H 0.48194 0.79199 0.158 0.0
H512 H 0.42395 0.7913 0.19257 0.0
H513 H 0.46421 0.71473 0.14037 0.0
H514 H 0.40493 0.71399 0.17395 0.0
H515 H 0.53531 0.7218 0.08613 0.0
H516 H 0.49522 0.79555 0.10331 0.0
H517 H 0.53626 0.73051 0.03126 0.0
H518 H 0.49815 0.805 0.04875 0.0
H519 H 0.54376 0.74869 0.88475 0.0
H520 H 0.59895 0.73664 0.85097 0.0
H521 H 0.65161 0.80965 0.85799 0.0
H522 H 0.59545 0.82169 0.8911 0.0
H523 H 0.50596 0.832 0.87275 0.0
H524 H 0.44901 0.83244 0.8366 0.0
H525 H 0.41651 0.75818 0.86397 0.0
H526 H 0.47432 0.75784 0.89971 0.0
H527 H 0.57939 0.76237 0.94067 0.0
H528 H 0.57383 0.75241 0.99423 0.0
H529 H 0.46736 0.79805 1.00075 0.0
N530 N 0.53093 0.79477 0.90739 0.0
H531 H 0.47394 0.80906 0.94697 0.0
C532 C 0.55129 0.75854 0.14859 0.0
C533 C 0.56966 0.74041 0.16675 0.0
C534 C 0.6004 0.74661 0.18761 0.0
C535 C 0.61342 0.77121 0.19076 0.0
C536 C 0.59604 0.78927 0.17165 0.0
C537 C 0.56523 0.78303 0.15079 0.0
C538 C 0.47765 0.75324 0.14685 0.0
C539 C 0.46498 0.77498 0.16099 0.0
C540 C 0.4316 0.77457 0.18073 0.0
C541 C 0.41011 0.75248 0.18652 0.0
C542 C 0.42138 0.73118 0.17069 0.0
C543 C 0.4549 0.73159 0.1512 0.0
C544 C 0.51567 0.758 0.09879 0.0
C545 C 0.52705 0.73996 0.07797 0.0
C546 C 0.52783 0.74507 0.04665 0.0
C547 C 0.51759 0.76856 0.0354 0.0
C548 C 0.50578 0.78662 0.05641 0.0
C549 C 0.50456 0.78135 0.08778 0.0
C550 C 0.56546 0.78622 0.8903 0.0
C551 C 0.56725 0.76205 0.8791 0.0
C552 C 0.59906 0.75513 0.85999 0.0
C553 C 0.6296 0.77223 0.8516 0.0
C554 C 0.62827 0.79614 0.86361 0.0
C555 C 0.59648 0.80302 0.88272 0.0
C556 C 0.49434 0.79502 0.88889 0.0
C557 C 0.48614 0.81598 0.8712 0.0
C558 C 0.45346 0.81619 0.85066 0.0
C559 C 0.42805 0.79534 0.84735 0.0
C560 C 0.43573 0.77444 0.86567 0.0
C561 C 0.4686 0.77425 0.88623 0.0
C562 C 0.52618 0.7861 0.93875 0.0
C563 C 0.5542 0.77007 0.953 0.0
C564 C 0.55103 0.76424 0.98408 0.0
C565 C 0.51998 0.77425 1.00201 0.0
C566 C 0.49195 0.79014 0.98787 0.0
C567 C 0.49533 0.79617 0.95685 0.0
H568 H 0.75194 0.10543 0.54983 0.0
N569 N 0.8266 0.10455 0.52225 0.0
H570 H 0.73352 0.13005 0.59413 0.0
H571 H 0.8755 0.13251 0.55604 0.0
H572 H 0.85733 0.1577 0.59979 0.0
H573 H 0.88659 0.11539 0.48381 0.0
H574 H 0.88566 0.14547 0.44183 0.0
H575 H 0.7589 0.12748 0.49924 0.0
H576 H 0.75783 0.15796 0.45803 0.0
H577 H 0.7593 0.08265 0.4958 0.0
H578 H 0.87028 0.06808 0.54546 0.0
H579 H 0.74469 0.03864 0.49324 0.0
H580 H 0.85502 0.02398 0.54446 0.0
H581 H 0.69651 0.90284 0.54159 0.0
H582 H 0.69392 0.87687 0.5875 0.0
H583 H 0.82296 0.88893 0.60165 0.0
H584 H 0.82508 0.91512 0.55578 0.0
H585 H 0.8366 0.90403 0.50436 0.0
H586 H 0.85187 0.87403 0.4653 0.0
H587 H 0.72737 0.87743 0.43287 0.0
H588 H 0.71291 0.90841 0.47142 0.0
H589 H 0.70935 0.96007 0.52066 0.0
H590 H 0.72408 1.00423 0.52236 0.0
H591 H 0.85252 0.98928 0.51291 0.0
N592 N 0.76164 0.9235 0.51625 0.0
H593 H 0.83749 0.94534 0.51281 0.0
C594 C 0.81531 0.11703 0.54983 0.0
C595 C 0.7752 0.1165 0.56092 0.0
C596 C 0.76464 0.13079 0.58609 0.0
C597 C 0.79391 0.14594 0.60056 0.0
C598 C 0.83413 0.146 0.58962 0.0
C599 C 0.8446 0.13169 0.56457 0.0
C600 C 0.82306 0.11923 0.49475 0.0
C601 C 0.85822 0.12423 0.47775 0.0
C602 C 0.85766 0.14158 0.45399 0.0
C603 C 0.82179 0.15442 0.44681 0.0
C604 C 0.78591 0.14834 0.46276 0.0
C605 C 0.78651 0.13092 0.48649 0.0
C606 C 0.81634 0.07869 0.52051 0.0
C607 C 0.78056 0.07002 0.50622 0.0
C608 C 0.77203 0.04472 0.50505 0.0
C609 C 0.79871 0.02754 0.51855 0.0
C610 C 0.83414 0.03645 0.5332 0.0
C611 C 0.84282 0.06168 0.53404 0.0
C612 C 0.76082 0.91082 0.54525 0.0
C613 C 0.72403 0.90018 0.55494 0.0
C614 C 0.72266 0.88538 0.58115 0.0
C615 C 0.7583 0.88075 0.59814 0.0
C616 C 0.79511 0.89192 0.58882 0.0
C617 C 0.79634 0.90697 0.56268 0.0
C618 C 0.77353 0.90876 0.49064 0.0
C619 C 0.81287 0.89902 0.48832 0.0
C620 C 0.82144 0.88148 0.46614 0.0
C621 C 0.79076 0.87303 0.44607 0.0
C622 C 0.75192 0.88365 0.44762 0.0
C623 C 0.74352 0.90134 0.46967 0.0
C624 C 0.77206 0.94935 0.51633 0.0
C625 C 0.74064 0.96643 0.51894 0.0
C626 C 0.74918 0.99169 0.51967 0.0
C627 C 0.78955 1.00053 0.5176 0.0
C628 C 0.82109 0.98328 0.51496 0.0
C629 C 0.81249 0.95797 0.51456 0.0
H630 H 0.53671 0.22608 0.15586 0.0
N631 N 0.51807 0.27113 0.13114 0.0
H632 H 0.59023 0.2176 0.19296 0.0
H633 H 0.57875 0.30123 0.14766 0.0
H634 H 0.63423 0.2926 0.18374 0.0
H635 H 0.48308 0.30207 0.1693 0.0
H636 H 0.42662 0.29335 0.20405 0.0
H637 H 0.46955 0.22979 0.13058 0.0
H638 H 0.41257 0.22096 0.16493 0.0
H639 H 0.56571 0.23712 0.10087 0.0
H640 H 0.4697 0.29003 0.08811 0.0
H641 H 0.56513 0.22882 0.04684 0.0
H642 H 0.4671 0.28046 0.03383 0.0
H643 H 0.56195 0.20294 0.87217 0.0
H644 H 0.61823 0.2137 0.83813 0.0
H645 H 0.61498 0.28872 0.87009 0.0
H646 H 0.55786 0.27799 0.90292 0.0
H647 H 0.48761 0.2734 0.87803 0.0
H648 H 0.4315 0.27328 0.84109 0.0
H649 H 0.41059 0.19589 0.85945 0.0
H650 H 0.46774 0.1961 0.8956 0.0
H651 H 0.53347 0.20187 0.95244 0.0
H652 H 0.53091 0.20992 1.00716 0.0
H653 H 0.50002 0.28569 0.98761 0.0
N654 N 0.51927 0.23289 0.90675 0.0
H655 H 0.49963 0.27675 0.93315 0.0
C656 C 0.55339 0.26449 0.14922 0.0
C657 C 0.5579 0.24069 0.16169 0.0
C658 C 0.58895 0.23579 0.18276 0.0
C659 C 0.61648 0.25446 0.19169 0.0
C660 C 0.6131 0.27789 0.17795 0.0
C661 C 0.58176 0.28283 0.15705 0.0
C662 C 0.48055 0.26667 0.14745 0.0
C663 C 0.46717 0.28455 0.16783 0.0
C664 C 0.43486 0.27952 0.1876 0.0
C665 C 0.41525 0.25638 0.18742 0.0
C666 C 0.42744 0.23883 0.16594 0.0
C667 C 0.45978 0.24391 0.14612 0.0
C668 C 0.51744 0.26434 0.09912 0.0
C669 C 0.5439 0.24679 0.08678 0.0
C670 C 0.54336 0.24182 0.05548 0.0
C671 C 0.51598 0.25386 0.03562 0.0
C672 C 0.48919 0.27109 0.04808 0.0
C673 C 0.49028 0.27641 0.07928 0.0
C674 C 0.55579 0.23946 0.8903 0.0
C675 C 0.5739 0.2216 0.8721 0.0
C676 C 0.60615 0.22781 0.85274 0.0
C677 C 0.62119 0.25214 0.85123 0.0
C678 C 0.6038 0.2699 0.87026 0.0
C679 C 0.57129 0.26369 0.88944 0.0
C680 C 0.48205 0.2346 0.88932 0.0
C681 C 0.47049 0.25654 0.87453 0.0
C682 C 0.43825 0.25645 0.85344 0.0
C683 C 0.41693 0.23447 0.84691 0.0
C684 C 0.42694 0.213 0.86339 0.0
C685 C 0.45926 0.2131 0.88427 0.0
C686 C 0.51746 0.23871 0.93874 0.0
C687 C 0.52603 0.22017 0.96012 0.0
C688 C 0.52489 0.22493 0.99142 0.0
C689 C 0.51574 0.24859 1.00213 0.0
C690 C 0.50676 0.26716 0.98047 0.0
C691 C 0.50713 0.2622 0.94913 0.0
loop_
_geom_bond_atom_site_label_1
_geom_bond_atom_site_label_2
_geom_bond_distance
_geom_bond_site_symmetry_2
_ccdc_geom_bond_type
C0 C1 1.264 . S
C0 C5 1.479 . S
C0 C10 1.465 . S
C1 C0 1.264 . S
C1 C3 1.339 . S
C1 H28 0.931 . S
C2 C3 1.395 . S
C2 C4 1.320 . S
C3 C1 1.339 . S
C3 C2 1.395 . S
C3 H29 0.929 . S
C4 C2 1.320 . S
C4 C5 1.405 . S
C4 H30 0.930 . S
C5 C0 1.479 . S
C5 C4 1.405 . S
C5 H31 0.931 . S
U6 O7 2.454 . S
U6 O8 2.458 . S
U6 C9 2.984 . S
U6 C10 2.847 . S
U6 C23 2.882 . S
U6 O24 2.441 . S
U6 O25 2.420 . S
U6 O26 2.455 . S
U6 O27 2.449 . S
O7 U6 2.454 . S
O7 C9 1.353 . S
O8 U6 2.458 . S
O8 C9 1.286 . S
C9 U6 2.984 . S
C9 O7 1.353 . S
C9 O8 1.286 . S
C9 C11 1.363 . S
C10 C0 1.465 . S
C10 U6 2.847 . S
C10 O24 1.249 . S
C10 O25 1.202 . S
C11 C9 1.363 . S
C11 C13 1.408 . S
C11 C16 1.342 . S
C12 C13 1.310 . S
C12 C15 1.461 . S
C12 H32 0.932 . S
C13 C11 1.408 . S
C13 C12 1.310 . S
C13 H33 0.930 . S
C14 C15 1.474 . S
C14 C16 1.285 . S
C14 H34 0.929 . S
C15 C12 1.461 . S
C15 C14 1.474 . S
C16 C11 1.342 . S
C16 C14 1.285 . S
C16 H35 0.930 . S
C17 C20 1.424 . S
C17 C22 1.245 . S
C17 C23 1.428 . S
C18 C21 1.260 . S
C18 C22 1.477 . S
C18 H36 0.932 . S
C19 C20 1.384 . S
C19 C21 1.479 . S
C19 H37 0.929 . S
C20 C17 1.424 . S
C20 C19 1.384 . S
C20 H38 0.928 . S
C21 C18 1.260 . S
C21 C19 1.479 . S
C22 C17 1.245 . S
C22 C18 1.477 . S
C22 H39 0.932 . S
C23 U6 2.882 . S
C23 C17 1.428 . S
C23 O26 1.301 . S
C23 O27 1.282 . S
O24 U6 2.441 . S
O24 C10 1.249 . S
O25 U6 2.420 . S
O25 C10 1.202 . S
O26 U6 2.455 . S
O26 C23 1.301 . S
O27 U6 2.449 . S
O27 C23 1.282 . S
H28 C1 0.931 . S
H29 C3 0.929 . S
H30 C4 0.930 . S
H31 C5 0.931 . S
H32 C12 0.932 . S
H33 C13 0.930 . S
H34 C14 0.929 . S
H35 C16 0.930 . S
H36 C18 0.932 . S
H37 C19 0.929 . S
H38 C20 0.928 . S
H39 C22 0.932 . S
C40 C41 1.264 . S
C40 C45 1.479 . S
C40 C50 1.465 . S
C41 C40 1.264 . S
C41 C43 1.339 . S
C41 H68 0.931 . S
C42 C43 1.395 . S
C42 C44 1.320 . S
C43 C41 1.339 . S
C43 C42 1.395 . S
C43 H69 0.929 . S
C44 C42 1.320 . S
C44 C45 1.405 . S
C44 H70 0.930 . S
C45 C40 1.479 . S
C45 C44 1.405 . S
C45 H71 0.931 . S
U46 O47 2.454 . S
U46 O48 2.458 . S
U46 C49 2.984 . S
U46 C50 2.847 . S
U46 C63 2.882 . S
U46 O64 2.441 . S
U46 O65 2.420 . S
U46 O66 2.455 . S
U46 O67 2.449 . S
O47 U46 2.454 . S
O47 C49 1.353 . S
O48 U46 2.458 . S
O48 C49 1.286 . S
C49 U46 2.984 . S
C49 O47 1.353 . S
C49 O48 1.286 . S
C49 C51 1.363 . S
C50 C40 1.465 . S
C50 U46 2.847 . S
C50 O64 1.249 . S
C50 O65 1.202 . S
C51 C49 1.363 . S
C51 C53 1.408 . S
C51 C56 1.342 . S
C52 C53 1.310 . S
C52 C55 1.461 . S
C52 H72 0.932 . S
C53 C51 1.408 . S
C53 C52 1.310 . S
C53 H73 0.930 . S
C54 C55 1.474 . S
C54 C56 1.285 . S
C54 H74 0.929 . S
C55 C52 1.461 . S
C55 C54 1.474 . S
C56 C51 1.342 . S
C56 C54 1.285 . S
C56 H75 0.930 . S
C57 C60 1.424 . S
C57 C62 1.245 . S
C57 C63 1.428 . S
C58 C61 1.260 . S
C58 C62 1.477 . S
C58 H76 0.932 . S
C59 C60 1.384 . S
C59 C61 1.479 . S
C59 H77 0.929 . S
C60 C57 1.424 . S
C60 C59 1.384 . S
C60 H78 0.928 . S
C61 C58 1.260 . S
C61 C59 1.479 . S
C62 C57 1.245 . S
C62 C58 1.477 . S
C62 H79 0.932 . S
C63 U46 2.882 . S
C63 C57 1.428 . S
C63 O66 1.301 . S
C63 O67 1.282 . S
O64 U46 2.441 . S
O64 C50 1.249 . S
O65 U46 2.420 . S
O65 C50 1.202 . S
O66 U46 2.455 . S
O66 C63 1.301 . S
O67 U46 2.449 . S
O67 C63 1.282 . S
H68 C41 0.931 . S
H69 C43 0.929 . S
H70 C44 0.930 . S
H71 C45 0.931 . S
H72 C52 0.932 . S
H73 C53 0.930 . S
H74 C54 0.929 . S
H75 C56 0.930 . S
H76 C58 0.932 . S
H77 C59 0.929 . S
H78 C60 0.928 . S
H79 C62 0.932 . S
C80 C81 1.264 . S
C80 C85 1.479 . S
C80 C90 1.465 . S
C81 C80 1.264 . S
C81 C83 1.339 . S
C81 H108 0.931 . S
C82 C83 1.395 . S
C82 C84 1.320 . S
C83 C81 1.339 . S
C83 C82 1.395 . S
C83 H109 0.929 . S
C84 C82 1.320 . S
C84 C85 1.405 . S
C84 H110 0.930 . S
C85 C80 1.479 . S
C85 C84 1.405 . S
C85 H111 0.931 . S
U86 O87 2.454 . S
U86 O88 2.458 . S
U86 C89 2.984 . S
U86 C90 2.847 . S
U86 C103 2.882 . S
U86 O104 2.441 . S
U86 O105 2.420 . S
U86 O106 2.455 . S
U86 O107 2.449 . S
O87 U86 2.454 . S
O87 C89 1.353 . S
O88 U86 2.458 . S
O88 C89 1.286 . S
C89 U86 2.984 . S
C89 O87 1.353 . S
C89 O88 1.286 . S
C89 C91 1.363 . S
C90 C80 1.465 . S
C90 U86 2.847 . S
C90 O104 1.249 . S
C90 O105 1.202 . S
C91 C89 1.363 . S
C91 C93 1.408 . S
C91 C96 1.342 . S
C92 C93 1.310 . S
C92 C95 1.461 . S
C92 H112 0.932 . S
C93 C91 1.408 . S
C93 C92 1.310 . S
C93 H113 0.930 . S
C94 C95 1.474 . S
C94 C96 1.285 . S
C94 H114 0.929 . S
C95 C92 1.461 . S
C95 C94 1.474 . S
C96 C91 1.342 . S
C96 C94 1.285 . S
C96 H115 0.930 . S
C97 C100 1.424 . S
C97 C102 1.245 . S
C97 C103 1.428 . S
C98 C101 1.260 . S
C98 C102 1.477 . S
C98 H116 0.932 . S
C99 C100 1.384 . S
C99 C101 1.479 . S
C99 H117 0.929 . S
C100 C97 1.424 . S
C100 C99 1.384 . S
C100 H118 0.928 . S
C101 C98 1.260 . S
C101 C99 1.479 . S
C102 C97 1.245 . S
C102 C98 1.477 . S
C102 H119 0.932 . S
C103 U86 2.882 . S
C103 C97 1.428 . S
C103 O106 1.301 . S
C103 O107 1.282 . S
O104 U86 2.441 . S
O104 C90 1.249 . S
O105 U86 2.420 . S
O105 C90 1.202 . S
O106 U86 2.455 . S
O106 C103 1.301 . S
O107 U86 2.449 . S
O107 C103 1.282 . S
H108 C81 0.931 . S
H109 C83 0.929 . S
H110 C84 0.930 . S
H111 C85 0.931 . S
H112 C92 0.932 . S
H113 C93 0.930 . S
H114 C94 0.929 . S
H115 C96 0.930 . S
H116 C98 0.932 . S
H117 C99 0.929 . S
H118 C100 0.928 . S
H119 C102 0.932 . S
C120 C121 1.264 . S
C120 C125 1.479 . S
C120 C130 1.465 . S
C121 C120 1.264 . S
C121 C123 1.339 . S
C121 H148 0.931 . S
C122 C123 1.395 . S
C122 C124 1.320 . S
C123 C121 1.339 . S
C123 C122 1.395 . S
C123 H149 0.929 . S
C124 C122 1.320 . S
C124 C125 1.405 . S
C124 H150 0.930 . S
C125 C120 1.479 . S
C125 C124 1.405 . S
C125 H151 0.931 . S
U126 O127 2.454 . S
U126 O128 2.458 . S
U126 C129 2.984 . S
U126 C130 2.847 . S
U126 C143 2.882 . S
U126 O144 2.441 . S
U126 O145 2.420 . S
U126 O146 2.455 . S
U126 O147 2.449 . S
O127 U126 2.454 . S
O127 C129 1.353 . S
O128 U126 2.458 . S
O128 C129 1.286 . S
C129 U126 2.984 . S
C129 O127 1.353 . S
C129 O128 1.286 . S
C129 C131 1.363 . S
C130 C120 1.465 . S
C130 U126 2.847 . S
C130 O144 1.249 . S
C130 O145 1.202 . S
C131 C129 1.363 . S
C131 C133 1.408 . S
C131 C136 1.342 . S
C132 C133 1.310 . S
C132 C135 1.461 . S
C132 H152 0.932 . S
C133 C131 1.408 . S
C133 C132 1.310 . S
C133 H153 0.930 . S
C134 C135 1.474 . S
C134 C136 1.285 . S
C134 H154 0.929 . S
C135 C132 1.461 . S
C135 C134 1.474 . S
C136 C131 1.342 . S
C136 C134 1.285 . S
C136 H155 0.930 . S
C137 C140 1.424 . S
C137 C142 1.245 . S
C137 C143 1.428 . S
C138 C141 1.260 . S
C138 C142 1.477 . S
C138 H156 0.932 . S
C139 C140 1.384 . S
C139 C141 1.479 . S
C139 H157 0.929 . S
C140 C137 1.424 . S
C140 C139 1.384 . S
C140 H158 0.928 . S
C141 C138 1.260 . S
C141 C139 1.479 . S
C142 C137 1.245 . S
C142 C138 1.477 . S
C142 H159 0.932 . S
C143 U126 2.882 . S
C143 C137 1.428 . S
C143 O146 1.301 . S
C143 O147 1.282 . S
O144 U126 2.441 . S
O144 C130 1.249 . S
O145 U126 2.420 . S
O145 C130 1.202 . S
O146 U126 2.455 . S
O146 C143 1.301 . S
O147 U126 2.449 . S
O147 C143 1.282 . S
H148 C121 0.931 . S
H149 C123 0.929 . S
H150 C124 0.930 . S
H151 C125 0.931 . S
H152 C132 0.932 . S
H153 C133 0.930 . S
H154 C134 0.929 . S
H155 C136 0.930 . S
H156 C138 0.932 . S
H157 C139 0.929 . S
H158 C140 0.928 . S
H159 C142 0.932 . S
C160 C161 1.264 . S
C160 C165 1.479 . S
C160 C170 1.465 . S
C161 C160 1.264 . S
C161 C163 1.339 . S
C161 H188 0.931 . S
C162 C163 1.395 . S
C162 C164 1.320 . S
C163 C161 1.339 . S
C163 C162 1.395 . S
C163 H189 0.929 . S
C164 C162 1.320 . S
C164 C165 1.405 . S
C164 H190 0.930 . S
C165 C160 1.479 . S
C165 C164 1.405 . S
C165 H191 0.931 . S
U166 O167 2.454 . S
U166 O168 2.458 . S
U166 C169 2.984 . S
U166 C170 2.847 . S
U166 C183 2.882 . S
U166 O184 2.441 . S
U166 O185 2.420 . S
U166 O186 2.455 . S
U166 O187 2.449 . S
O167 U166 2.454 . S
O167 C169 1.353 . S
O168 U166 2.458 . S
O168 C169 1.286 . S
C169 U166 2.984 . S
C169 O167 1.353 . S
C169 O168 1.286 . S
C169 C171 1.363 . S
C170 C160 1.465 . S
C170 U166 2.847 . S
C170 O184 1.249 . S
C170 O185 1.202 . S
C171 C169 1.363 . S
C171 C173 1.408 . S
C171 C176 1.342 . S
C172 C173 1.310 . S
C172 C175 1.461 . S
C172 H192 0.932 . S
C173 C171 1.408 . S
C173 C172 1.310 . S
C173 H193 0.930 . S
C174 C175 1.474 . S
C174 C176 1.285 . S
C174 H194 0.929 . S
C175 C172 1.461 . S
C175 C174 1.474 . S
C176 C171 1.342 . S
C176 C174 1.285 . S
C176 H195 0.930 . S
C177 C180 1.424 . S
C177 C182 1.245 . S
C177 C183 1.428 . S
C178 C181 1.260 . S
C178 C182 1.477 . S
C178 H196 0.932 . S
C179 C180 1.384 . S
C179 C181 1.479 . S
C179 H197 0.929 . S
C180 C177 1.424 . S
C180 C179 1.384 . S
C180 H198 0.928 . S
C181 C178 1.260 . S
C181 C179 1.479 . S
C182 C177 1.245 . S
C182 C178 1.477 . S
C182 H199 0.932 . S
C183 U166 2.882 . S
C183 C177 1.428 . S
C183 O186 1.301 . S
C183 O187 1.282 . S
O184 U166 2.441 . S
O184 C170 1.249 . S
O185 U166 2.420 . S
O185 C170 1.202 . S
O186 U166 2.455 . S
O186 C183 1.301 . S
O187 U166 2.449 . S
O187 C183 1.282 . S
H188 C161 0.931 . S
H189 C163 0.929 . S
H190 C164 0.930 . S
H191 C165 0.931 . S
H192 C172 0.932 . S
H193 C173 0.930 . S
H194 C174 0.929 . S
H195 C176 0.930 . S
H196 C178 0.932 . S
H197 C179 0.929 . S
H198 C180 0.928 . S
H199 C182 0.932 . S
C200 C201 1.264 . S
C200 C205 1.479 . S
C200 C210 1.465 . S
C201 C200 1.264 . S
C201 C203 1.339 . S
C201 H228 0.931 . S
C202 C203 1.395 . S
C202 C204 1.320 . S
C203 C201 1.339 . S
C203 C202 1.395 . S
C203 H229 0.929 . S
C204 C202 1.320 . S
C204 C205 1.405 . S
C204 H230 0.930 . S
C205 C200 1.479 . S
C205 C204 1.405 . S
C205 H231 0.931 . S
U206 O207 2.454 . S
U206 O208 2.458 . S
U206 C209 2.984 . S
U206 C210 2.847 . S
U206 C223 2.882 . S
U206 O224 2.441 . S
U206 O225 2.420 . S
U206 O226 2.455 . S
U206 O227 2.449 . S
O207 U206 2.454 . S
O207 C209 1.353 . S
O208 U206 2.458 . S
O208 C209 1.286 . S
C209 U206 2.984 . S
C209 O207 1.353 . S
C209 O208 1.286 . S
C209 C211 1.363 . S
C210 C200 1.465 . S
C210 U206 2.847 . S
C210 O224 1.249 . S
C210 O225 1.202 . S
C211 C209 1.363 . S
C211 C213 1.408 . S
C211 C216 1.342 . S
C212 C213 1.310 . S
C212 C215 1.461 . S
C212 H232 0.932 . S
C213 C211 1.408 . S
C213 C212 1.310 . S
C213 H233 0.930 . S
C214 C215 1.474 . S
C214 C216 1.285 . S
C214 H234 0.929 . S
C215 C212 1.461 . S
C215 C214 1.474 . S
C216 C211 1.342 . S
C216 C214 1.285 . S
C216 H235 0.930 . S
C217 C220 1.424 . S
C217 C222 1.245 . S
C217 C223 1.428 . S
C218 C221 1.260 . S
C218 C222 1.477 . S
C218 H236 0.932 . S
C219 C220 1.384 . S
C219 C221 1.479 . S
C219 H237 0.929 . S
C220 C217 1.424 . S
C220 C219 1.384 . S
C220 H238 0.928 . S
C221 C218 1.260 . S
C221 C219 1.479 . S
C222 C217 1.245 . S
C222 C218 1.477 . S
C222 H239 0.932 . S
C223 U206 2.882 . S
C223 C217 1.428 . S
C223 O226 1.301 . S
C223 O227 1.282 . S
O224 U206 2.441 . S
O224 C210 1.249 . S
O225 U206 2.420 . S
O225 C210 1.202 . S
O226 U206 2.455 . S
O226 C223 1.301 . S
O227 U206 2.449 . S
O227 C223 1.282 . S
H228 C201 0.931 . S
H229 C203 0.929 . S
H230 C204 0.930 . S
H231 C205 0.931 . S
H232 C212 0.932 . S
H233 C213 0.930 . S
H234 C214 0.929 . S
H235 C216 0.930 . S
H236 C218 0.932 . S
H237 C219 0.929 . S
H238 C220 0.928 . S
H239 C222 0.932 . S
C240 C241 1.264 . S
C240 C245 1.479 . S
C240 C250 1.465 . S
C241 C240 1.264 . S
C241 C243 1.339 . S
C241 H268 0.931 . S
C242 C243 1.395 . S
C242 C244 1.320 . S
C243 C241 1.339 . S
C243 C242 1.395 . S
C243 H269 0.929 . S
C244 C242 1.320 . S
C244 C245 1.405 . S
C244 H270 0.930 . S
C245 C240 1.479 . S
C245 C244 1.405 . S
C245 H271 0.931 . S
U246 O247 2.454 . S
U246 O248 2.458 . S
U246 C249 2.984 . S
U246 C250 2.847 . S
U246 C263 2.882 . S
U246 O264 2.441 . S
U246 O265 2.420 . S
U246 O266 2.455 . S
U246 O267 2.449 . S
O247 U246 2.454 . S
O247 C249 1.353 . S
O248 U246 2.458 . S
O248 C249 1.286 . S
C249 U246 2.984 . S
C249 O247 1.353 . S
C249 O248 1.286 . S
C249 C251 1.363 . S
C250 C240 1.465 . S
C250 U246 2.847 . S
C250 O264 1.249 . S
C250 O265 1.202 . S
C251 C249 1.363 . S
C251 C253 1.408 . S
C251 C256 1.342 . S
C252 C253 1.310 . S
C252 C255 1.461 . S
C252 H272 0.932 . S
C253 C251 1.408 . S
C253 C252 1.310 . S
C253 H273 0.930 . S
C254 C255 1.474 . S
C254 C256 1.285 . S
C254 H274 0.929 . S
C255 C252 1.461 . S
C255 C254 1.474 . S
C256 C251 1.342 . S
C256 C254 1.285 . S
C256 H275 0.930 . S
C257 C260 1.424 . S
C257 C262 1.245 . S
C257 C263 1.428 . S
C258 C261 1.260 . S
C258 C262 1.477 . S
C258 H276 0.932 . S
C259 C260 1.384 . S
C259 C261 1.479 . S
C259 H277 0.929 . S
C260 C257 1.424 . S
C260 C259 1.384 . S
C260 H278 0.928 . S
C261 C258 1.260 . S
C261 C259 1.479 . S
C262 C257 1.245 . S
C262 C258 1.477 . S
C262 H279 0.932 . S
C263 U246 2.882 . S
C263 C257 1.428 . S
C263 O266 1.301 . S
C263 O267 1.282 . S
O264 U246 2.441 . S
O264 C250 1.249 . S
O265 U246 2.420 . S
O265 C250 1.202 . S
O266 U246 2.455 . S
O266 C263 1.301 . S
O267 U246 2.449 . S
O267 C263 1.282 . S
H268 C241 0.931 . S
H269 C243 0.929 . S
H270 C244 0.930 . S
H271 C245 0.931 . S
H272 C252 0.932 . S
H273 C253 0.930 . S
H274 C254 0.929 . S
H275 C256 0.930 . S
H276 C258 0.932 . S
H277 C259 0.929 . S
H278 C260 0.928 . S
H279 C262 0.932 . S
C280 C281 1.264 . S
C280 C285 1.479 . S
C280 C290 1.465 . S
C281 C280 1.264 . S
C281 C283 1.339 . S
C281 H308 0.931 . S
C282 C283 1.395 . S
C282 C284 1.320 . S
C283 C281 1.339 . S
C283 C282 1.395 . S
C283 H309 0.929 . S
C284 C282 1.320 . S
C284 C285 1.405 . S
C284 H310 0.930 . S
C285 C280 1.479 . S
C285 C284 1.405 . S
C285 H311 0.931 . S
U286 O287 2.454 . S
U286 O288 2.458 . S
U286 C289 2.984 . S
U286 C290 2.847 . S
U286 C303 2.882 . S
U286 O304 2.441 . S
U286 O305 2.420 . S
U286 O306 2.455 . S
U286 O307 2.449 . S
O287 U286 2.454 . S
O287 C289 1.353 . S
O288 U286 2.458 . S
O288 C289 1.286 . S
C289 U286 2.984 . S
C289 O287 1.353 . S
C289 O288 1.286 . S
C289 C291 1.363 . S
C290 C280 1.465 . S
C290 U286 2.847 . S
C290 O304 1.249 . S
C290 O305 1.202 . S
C291 C289 1.363 . S
C291 C293 1.408 . S
C291 C296 1.342 . S
C292 C293 1.310 . S
C292 C295 1.461 . S
C292 H312 0.932 . S
C293 C291 1.408 . S
C293 C292 1.310 . S
C293 H313 0.930 . S
C294 C295 1.474 . S
C294 C296 1.285 . S
C294 H314 0.929 . S
C295 C292 1.461 . S
C295 C294 1.474 . S
C296 C291 1.342 . S
C296 C294 1.285 . S
C296 H315 0.930 . S
C297 C300 1.424 . S
C297 C302 1.245 . S
C297 C303 1.428 . S
C298 C301 1.260 . S
C298 C302 1.477 . S
C298 H316 0.932 . S
C299 C300 1.384 . S
C299 C301 1.479 . S
C299 H317 0.929 . S
C300 C297 1.424 . S
C300 C299 1.384 . S
C300 H318 0.928 . S
C301 C298 1.260 . S
C301 C299 1.479 . S
C302 C297 1.245 . S
C302 C298 1.477 . S
C302 H319 0.932 . S
C303 U286 2.882 . S
C303 C297 1.428 . S
C303 O306 1.301 . S
C303 O307 1.282 . S
O304 U286 2.441 . S
O304 C290 1.249 . S
O305 U286 2.420 . S
O305 C290 1.202 . S
O306 U286 2.455 . S
O306 C303 1.301 . S
O307 U286 2.449 . S
O307 C303 1.282 . S
H308 C281 0.931 . S
H309 C283 0.929 . S
H310 C284 0.930 . S
H311 C285 0.931 . S
H312 C292 0.932 . S
H313 C293 0.930 . S
H314 C294 0.929 . S
H315 C296 0.930 . S
H316 C298 0.932 . S
H317 C299 0.929 . S
H318 C300 0.928 . S
H319 C302 0.932 . S
H320 C347 0.929 . S
N321 C346 1.433 1_455 S
N321 C352 1.435 . S
N321 C358 1.423 . S
H322 C348 0.930 . S
H323 C351 0.931 . S
H324 C350 0.929 . S
H325 C353 0.930 . S
H326 C354 0.932 . S
H327 C357 0.929 . S
H328 C356 0.931 . S
H329 C359 0.929 . S
H330 C363 0.932 . S
H331 C360 0.931 . S
H332 C362 0.929 . S
H333 C365 0.929 . S
H334 C366 0.930 . S
H335 C368 0.929 . S
H336 C369 0.931 . S
H337 C371 0.930 . S
H338 C372 0.932 . S
H339 C374 0.931 . S
H340 C375 0.929 . S
H341 C377 0.929 . S
H342 C378 0.931 . S
H343 C380 0.929 . S
N344 C364 1.433 1_455 S
N344 C370 1.435 . S
N344 C376 1.423 . S
H345 C381 0.932 . S
C346 N321 1.433 1_655 S
C346 C347 1.363 . S
C346 C351 1.370 . S
C347 H320 0.929 . S
C347 C346 1.363 . S
C347 C348 1.385 . S
C348 H322 0.930 . S
C348 C347 1.385 . S
C348 C349 1.357 . S
C349 C348 1.357 . S
C349 C350 1.406 . S
C350 H324 0.929 . S
C350 C349 1.406 . S
C350 C351 1.391 . S
C351 H323 0.931 . S
C351 C346 1.370 . S
C351 C350 1.391 . S
C352 N321 1.435 . S
C352 C353 1.358 . S
C352 C357 1.371 . S
C353 H325 0.930 . S
C353 C352 1.358 . S
C353 C354 1.405 . S
C354 H326 0.932 . S
C354 C353 1.405 . S
C354 C355 1.383 . S
C355 C354 1.383 . S
C355 C356 1.393 . S
C356 H328 0.931 . S
C356 C355 1.393 . S
C356 C357 1.382 . S
C357 H327 0.929 . S
C357 C352 1.371 . S
C357 C356 1.382 . S
C358 N321 1.423 . S
C358 C359 1.362 1_455 S
C358 C363 1.388 . S
C359 H329 0.929 . S
C359 C358 1.362 1_655 S
C359 C360 1.376 . S
C360 H331 0.931 . S
C360 C359 1.376 . S
C360 C361 1.396 1_655 S
C361 C360 1.396 1_455 S
C361 C362 1.348 . S
C361 C379 1.472 . S
C362 H332 0.929 . S
C362 C361 1.348 . S
C362 C363 1.443 . S
C363 H330 0.932 . S
C363 C358 1.388 . S
C363 C362 1.443 . S
C364 N344 1.433 1_655 S
C364 C365 1.363 . S
C364 C369 1.370 . S
C365 H333 0.929 . S
C365 C364 1.363 . S
C365 C366 1.385 . S
C366 H334 0.930 . S
C366 C365 1.385 . S
C366 C367 1.357 . S
C367 C366 1.357 . S
C367 C368 1.406 . S
C368 H335 0.929 . S
C368 C367 1.406 . S
C368 C369 1.391 . S
C369 H336 0.931 . S
C369 C364 1.370 . S
C369 C368 1.391 . S
C370 N344 1.435 . S
C370 C371 1.358 . S
C370 C375 1.371 . S
C371 H337 0.930 . S
C371 C370 1.358 . S
C371 C372 1.405 . S
C372 H338 0.932 . S
C372 C371 1.405 . S
C372 C373 1.383 . S
C373 C372 1.383 . S
C373 C374 1.393 . S
C374 H339 0.931 . S
C374 C373 1.393 . S
C374 C375 1.382 . S
C375 H340 0.929 . S
C375 C370 1.371 . S
C375 C374 1.382 . S
C376 N344 1.423 . S
C376 C377 1.362 1_455 S
C376 C381 1.388 . S
C377 H341 0.929 . S
C377 C376 1.362 1_655 S
C377 C378 1.376 . S
C378 H342 0.931 . S
C378 C377 1.376 . S
C378 C379 1.396 1_655 S
C379 C361 1.472 . S
C379 C378 1.396 1_455 S
C379 C380 1.348 . S
C380 H343 0.929 . S
C380 C379 1.348 . S
C380 C381 1.443 . S
C381 H345 0.932 . S
C381 C376 1.388 . S
C381 C380 1.443 . S
H382 C409 0.929 . S
N383 C408 1.433 1_455 S
N383 C414 1.435 . S
N383 C420 1.423 . S
H384 C410 0.930 . S
H385 C413 0.931 . S
H386 C412 0.929 . S
H387 C415 0.930 . S
H388 C416 0.932 . S
H389 C419 0.929 . S
H390 C418 0.931 . S
H391 C421 0.933 . S
H392 C425 0.932 . S
H393 C422 0.931 1_655 S
H394 C424 0.929 . S
H395 C427 0.929 . S
H396 C428 0.930 . S
H397 C430 0.929 . S
H398 C431 0.931 . S
H399 C433 0.930 . S
H400 C434 0.932 . S
H401 C436 0.931 . S
H402 C437 0.929 . S
H403 C439 0.927 . S
H404 C440 0.931 1_655 S
H405 C442 0.929 . S
N406 C426 1.433 1_455 S
N406 C432 1.435 . S
N406 C438 1.423 . S
H407 C443 0.932 . S
C408 N383 1.433 1_655 S
C408 C409 1.363 . S
C408 C413 1.370 . S
C409 H382 0.929 . S
C409 C408 1.363 . S
C409 C410 1.385 . S
C410 H384 0.930 . S
C410 C409 1.385 . S
C410 C411 1.357 . S
C411 C410 1.357 . S
C411 C412 1.406 . S
C412 H386 0.929 . S
C412 C411 1.406 . S
C412 C413 1.391 . S
C413 H385 0.931 . S
C413 C408 1.370 . S
C413 C412 1.391 . S
C414 N383 1.435 . S
C414 C415 1.358 . S
C414 C419 1.371 . S
C415 H387 0.930 . S
C415 C414 1.358 . S
C415 C416 1.405 . S
C416 H388 0.932 . S
C416 C415 1.405 . S
C416 C417 1.383 . S
C417 C416 1.383 . S
C417 C418 1.393 . S
C418 H390 0.931 . S
C418 C417 1.393 . S
C418 C419 1.382 . S
C419 H389 0.929 . S
C419 C414 1.371 . S
C419 C418 1.382 . S
C420 N383 1.423 . S
C420 C421 1.358 1_455 S
C420 C425 1.388 . S
C421 H391 0.933 . S
C421 C420 1.358 1_655 S
C421 C422 1.376 1_655 S
C422 H393 0.931 1_455 S
C422 C421 1.376 1_455 S
C422 C423 1.396 . S
C423 C422 1.396 . S
C423 C424 1.348 . S
C423 C441 1.472 . S
C424 H394 0.929 . S
C424 C423 1.348 . S
C424 C425 1.443 . S
C425 H392 0.932 . S
C425 C420 1.388 . S
C425 C424 1.443 . S
C426 N406 1.433 1_655 S
C426 C427 1.363 . S
C426 C431 1.370 . S
C427 H395 0.929 . S
C427 C426 1.363 . S
C427 C428 1.385 . S
C428 H396 0.930 . S
C428 C427 1.385 . S
C428 C429 1.357 . S
C429 C428 1.357 . S
C429 C430 1.406 . S
C430 H397 0.929 . S
C430 C429 1.406 . S
C430 C431 1.391 . S
C431 H398 0.931 . S
C431 C426 1.370 . S
C431 C430 1.391 . S
C432 N406 1.435 . S
C432 C433 1.358 . S
C432 C437 1.371 . S
C433 H399 0.930 . S
C433 C432 1.358 . S
C433 C434 1.405 . S
C434 H400 0.932 . S
C434 C433 1.405 . S
C434 C435 1.383 . S
C435 C434 1.383 . S
C435 C436 1.393 . S
C436 H401 0.931 . S
C436 C435 1.393 . S
C436 C437 1.382 . S
C437 H402 0.929 . S
C437 C432 1.371 . S
C437 C436 1.382 . S
C438 N406 1.423 . S
C438 C439 1.364 1_455 S
C438 C443 1.388 . S
C439 H403 0.927 . S
C439 C438 1.364 1_655 S
C439 C440 1.377 1_655 S
C440 H404 0.931 1_455 S
C440 C439 1.377 1_455 S
C440 C441 1.396 . S
C441 C423 1.472 . S
C441 C440 1.396 . S
C441 C442 1.348 . S
C442 H405 0.929 . S
C442 C441 1.348 . S
C442 C443 1.443 . S
C443 H407 0.932 . S
C443 C438 1.388 . S
C443 C442 1.443 . S
H444 C471 0.929 . S
N445 C470 1.433 . S
N445 C476 1.435 . S
N445 C482 1.423 . S
H446 C472 0.930 . S
H447 C475 0.931 . S
H448 C474 0.929 . S
H449 C477 0.930 . S
H450 C478 0.932 . S
H451 C481 0.929 . S
H452 C480 0.931 . S
H453 C483 0.929 . S
H454 C487 0.932 . S
H455 C484 0.931 . S
H456 C486 0.929 . S
H457 C489 0.929 . S
H458 C490 0.930 . S
H459 C492 0.929 . S
H460 C493 0.931 . S
H461 C495 0.930 . S
H462 C496 0.932 . S
H463 C498 0.931 . S
H464 C499 0.929 . S
H465 C501 0.929 . S
H466 C502 0.931 . S
H467 C504 0.929 . S
N468 C488 1.433 . S
N468 C494 1.435 . S
N468 C500 1.423 . S
H469 C505 0.932 . S
C470 N445 1.433 . S
C470 C471 1.363 . S
C470 C475 1.370 . S
C471 H444 0.929 . S
C471 C470 1.363 . S
C471 C472 1.385 . S
C472 H446 0.930 . S
C472 C471 1.385 . S
C472 C473 1.357 . S
C473 C472 1.357 . S
C473 C474 1.406 . S
C474 H448 0.929 . S
C474 C473 1.406 . S
C474 C475 1.391 . S
C475 H447 0.931 . S
C475 C470 1.370 . S
C475 C474 1.391 . S
C476 N445 1.435 . S
C476 C477 1.358 . S
C476 C481 1.371 . S
C477 H449 0.930 . S
C477 C476 1.358 . S
C477 C478 1.405 . S
C478 H450 0.932 . S
C478 C477 1.405 . S
C478 C479 1.383 . S
C479 C478 1.383 . S
C479 C480 1.393 . S
C480 H452 0.931 . S
C480 C479 1.393 . S
C480 C481 1.382 . S
C481 H451 0.929 . S
C481 C476 1.371 . S
C481 C480 1.382 . S
C482 N445 1.423 . S
C482 C483 1.362 . S
C482 C487 1.388 . S
C483 H453 0.929 . S
C483 C482 1.362 . S
C483 C484 1.376 . S
C484 H455 0.931 . S
C484 C483 1.376 . S
C484 C485 1.396 . S
C485 C484 1.396 . S
C485 C486 1.348 . S
C485 C503 1.472 1_545 S
C486 H456 0.929 . S
C486 C485 1.348 . S
C486 C487 1.443 . S
C487 H454 0.932 . S
C487 C482 1.388 . S
C487 C486 1.443 . S
C488 N468 1.433 . S
C488 C489 1.363 . S
C488 C493 1.370 . S
C489 H457 0.929 . S
C489 C488 1.363 . S
C489 C490 1.385 . S
C490 H458 0.930 . S
C490 C489 1.385 . S
C490 C491 1.357 . S
C491 C490 1.357 . S
C491 C492 1.406 . S
C492 H459 0.929 . S
C492 C491 1.406 . S
C492 C493 1.391 . S
C493 H460 0.931 . S
C493 C488 1.370 . S
C493 C492 1.391 . S
C494 N468 1.435 . S
C494 C495 1.358 . S
C494 C499 1.371 . S
C495 H461 0.930 . S
C495 C494 1.358 . S
C495 C496 1.405 . S
C496 H462 0.932 . S
C496 C495 1.405 . S
C496 C497 1.383 . S
C497 C496 1.383 . S
C497 C498 1.393 . S
C498 H463 0.931 . S
C498 C497 1.393 . S
C498 C499 1.382 . S
C499 H464 0.929 . S
C499 C494 1.371 . S
C499 C498 1.382 . S
C500 N468 1.423 . S
C500 C501 1.362 . S
C500 C505 1.388 . S
C501 H465 0.929 . S
C501 C500 1.362 . S
C501 C502 1.376 . S
C502 H466 0.931 . S
C502 C501 1.376 . S
C502 C503 1.396 . S
C503 C485 1.472 1_565 S
C503 C502 1.396 . S
C503 C504 1.348 . S
C504 H467 0.929 . S
C504 C503 1.348 . S
C504 C505 1.443 . S
C505 H469 0.932 . S
C505 C500 1.388 . S
C505 C504 1.443 . S
H506 C533 0.929 . S
N507 C532 1.433 . S
N507 C538 1.435 . S
N507 C544 1.423 . S
H508 C534 0.930 . S
H509 C537 0.931 . S
H510 C536 0.929 . S
H511 C539 0.930 . S
H512 C540 0.932 . S
H513 C543 0.929 . S
H514 C542 0.931 . S
H515 C545 0.929 . S
H516 C549 0.932 . S
H517 C546 0.931 . S
H518 C548 0.929 . S
H519 C551 0.929 . S
H520 C552 0.930 . S
H521 C554 0.929 . S
H522 C555 0.931 . S
H523 C557 0.930 . S
H524 C558 0.932 . S
H525 C560 0.931 . S
H526 C561 0.929 . S
H527 C563 0.929 . S
H528 C564 0.931 . S
H529 C566 0.929 . S
N530 C550 1.433 . S
N530 C556 1.435 . S
N530 C562 1.423 . S
H531 C567 0.932 . S
C532 N507 1.433 . S
C532 C533 1.363 . S
C532 C537 1.370 . S
C533 H506 0.929 . S
C533 C532 1.363 . S
C533 C534 1.385 . S
C534 H508 0.930 . S
C534 C533 1.385 . S
C534 C535 1.357 . S
C535 C534 1.357 . S
C535 C536 1.406 . S
C536 H510 0.929 . S
C536 C535 1.406 . S
C536 C537 1.391 . S
C537 H509 0.931 . S
C537 C532 1.370 . S
C537 C536 1.391 . S
C538 N507 1.435 . S
C538 C539 1.358 . S
C538 C543 1.371 . S
C539 H511 0.930 . S
C539 C538 1.358 . S
C539 C540 1.405 . S
C540 H512 0.932 . S
C540 C539 1.405 . S
C540 C541 1.383 . S
C541 C540 1.383 . S
C541 C542 1.393 . S
C542 H514 0.931 . S
C542 C541 1.393 . S
C542 C543 1.382 . S
C543 H513 0.929 . S
C543 C538 1.371 . S
C543 C542 1.382 . S
C544 N507 1.423 . S
C544 C545 1.362 . S
C544 C549 1.388 . S
C545 H515 0.929 . S
C545 C544 1.362 . S
C545 C546 1.376 . S
C546 H517 0.931 . S
C546 C545 1.376 . S
C546 C547 1.396 . S
C547 C546 1.396 . S
C547 C548 1.348 . S
C547 C565 1.472 1_554 S
C548 H518 0.929 . S
C548 C547 1.348 . S
C548 C549 1.443 . S
C549 H516 0.932 . S
C549 C544 1.388 . S
C549 C548 1.443 . S
C550 N530 1.433 . S
C550 C551 1.363 . S
C550 C555 1.370 . S
C551 H519 0.929 . S
C551 C550 1.363 . S
C551 C552 1.385 . S
C552 H520 0.930 . S
C552 C551 1.385 . S
C552 C553 1.357 . S
C553 C552 1.357 . S
C553 C554 1.406 . S
C554 H521 0.929 . S
C554 C553 1.406 . S
C554 C555 1.391 . S
C555 H522 0.931 . S
C555 C550 1.370 . S
C555 C554 1.391 . S
C556 N530 1.435 . S
C556 C557 1.358 . S
C556 C561 1.371 . S
C557 H523 0.930 . S
C557 C556 1.358 . S
C557 C558 1.405 . S
C558 H524 0.932 . S
C558 C557 1.405 . S
C558 C559 1.383 . S
C559 C558 1.383 . S
C559 C560 1.393 . S
C560 H525 0.931 . S
C560 C559 1.393 . S
C560 C561 1.382 . S
C561 H526 0.929 . S
C561 C556 1.371 . S
C561 C560 1.382 . S
C562 N530 1.423 . S
C562 C563 1.362 . S
C562 C567 1.388 . S
C563 H527 0.929 . S
C563 C562 1.362 . S
C563 C564 1.376 . S
C564 H528 0.931 . S
C564 C563 1.376 . S
C564 C565 1.396 . S
C565 C547 1.472 1_556 S
C565 C564 1.396 . S
C565 C566 1.348 . S
C566 H529 0.929 . S
C566 C565 1.348 . S
C566 C567 1.443 . S
C567 H531 0.932 . S
C567 C562 1.388 . S
C567 C566 1.443 . S
H568 C595 0.929 . S
N569 C594 1.433 . S
N569 C600 1.435 . S
N569 C606 1.423 . S
H570 C596 0.930 . S
H571 C599 0.931 . S
H572 C598 0.929 . S
H573 C601 0.930 . S
H574 C602 0.932 . S
H575 C605 0.929 . S
H576 C604 0.931 . S
H577 C607 0.929 . S
H578 C611 0.932 . S
H579 C608 0.931 . S
H580 C610 0.929 . S
H581 C613 0.929 . S
H582 C614 0.930 . S
H583 C616 0.929 . S
H584 C617 0.931 . S
H585 C619 0.930 . S
H586 C620 0.932 . S
H587 C622 0.931 . S
H588 C623 0.929 . S
H589 C625 0.929 . S
H590 C626 0.931 . S
H591 C628 0.929 . S
N592 C612 1.433 . S
N592 C618 1.435 . S
N592 C624 1.423 . S
H593 C629 0.932 . S
C594 N569 1.433 . S
C594 C595 1.363 . S
C594 C599 1.370 . S
C595 H568 0.929 . S
C595 C594 1.363 . S
C595 C596 1.385 . S
C596 H570 0.930 . S
C596 C595 1.385 . S
C596 C597 1.357 . S
C597 C596 1.357 . S
C597 C598 1.406 . S
C598 H572 0.929 . S
C598 C597 1.406 . S
C598 C599 1.391 . S
C599 H571 0.931 . S
C599 C594 1.370 . S
C599 C598 1.391 . S
C600 N569 1.435 . S
C600 C601 1.358 . S
C600 C605 1.371 . S
C601 H573 0.930 . S
C601 C600 1.358 . S
C601 C602 1.405 . S
C602 H574 0.932 . S
C602 C601 1.405 . S
C602 C603 1.383 . S
C603 C602 1.383 . S
C603 C604 1.393 . S
C604 H576 0.931 . S
C604 C603 1.393 . S
C604 C605 1.382 . S
C605 H575 0.929 . S
C605 C600 1.371 . S
C605 C604 1.382 . S
C606 N569 1.423 . S
C606 C607 1.362 . S
C606 C611 1.388 . S
C607 H577 0.929 . S
C607 C606 1.362 . S
C607 C608 1.376 . S
C608 H579 0.931 . S
C608 C607 1.376 . S
C608 C609 1.396 . S
C609 C608 1.396 . S
C609 C610 1.348 . S
C609 C627 1.472 1_545 S
C610 H580 0.929 . S
C610 C609 1.348 . S
C610 C611 1.443 . S
C611 H578 0.932 . S
C611 C606 1.388 . S
C611 C610 1.443 . S
C612 N592 1.433 . S
C612 C613 1.363 . S
C612 C617 1.370 . S
C613 H581 0.929 . S
C613 C612 1.363 . S
C613 C614 1.385 . S
C614 H582 0.930 . S
C614 C613 1.385 . S
C614 C615 1.357 . S
C615 C614 1.357 . S
C615 C616 1.406 . S
C616 H583 0.929 . S
C616 C615 1.406 . S
C616 C617 1.391 . S
C617 H584 0.931 . S
C617 C612 1.370 . S
C617 C616 1.391 . S
C618 N592 1.435 . S
C618 C619 1.358 . S
C618 C623 1.371 . S
C619 H585 0.930 . S
C619 C618 1.358 . S
C619 C620 1.405 . S
C620 H586 0.932 . S
C620 C619 1.405 . S
C620 C621 1.383 . S
C621 C620 1.383 . S
C621 C622 1.393 . S
C622 H587 0.931 . S
C622 C621 1.393 . S
C622 C623 1.382 . S
C623 H588 0.929 . S
C623 C618 1.371 . S
C623 C622 1.382 . S
C624 N592 1.423 . S
C624 C625 1.362 . S
C624 C629 1.388 . S
C625 H589 0.929 . S
C625 C624 1.362 . S
C625 C626 1.376 . S
C626 H590 0.931 . S
C626 C625 1.376 . S
C626 C627 1.396 . S
C627 C609 1.472 1_565 S
C627 C626 1.396 . S
C627 C628 1.348 . S
C628 H591 0.929 . S
C628 C627 1.348 . S
C628 C629 1.443 . S
C629 H593 0.932 . S
C629 C624 1.388 . S
C629 C628 1.443 . S
H630 C657 0.929 . S
N631 C656 1.433 . S
N631 C662 1.435 . S
N631 C668 1.423 . S
H632 C658 0.930 . S
H633 C661 0.931 . S
H634 C660 0.929 . S
H635 C663 0.930 . S
H636 C664 0.932 . S
H637 C667 0.929 . S
H638 C666 0.931 . S
H639 C669 0.929 . S
H640 C673 0.932 . S
H641 C670 0.931 . S
H642 C672 0.929 . S
H643 C675 0.929 . S
H644 C676 0.930 . S
H645 C678 0.929 . S
H646 C679 0.931 . S
H647 C681 0.930 . S
H648 C682 0.932 . S
H649 C684 0.931 . S
H650 C685 0.929 . S
H651 C687 0.929 . S
H652 C688 0.931 . S
H653 C690 0.929 . S
N654 C674 1.433 . S
N654 C680 1.435 . S
N654 C686 1.423 . S
H655 C691 0.932 . S
C656 N631 1.433 . S
C656 C657 1.363 . S
C656 C661 1.370 . S
C657 H630 0.929 . S
C657 C656 1.363 . S
C657 C658 1.385 . S
C658 H632 0.930 . S
C658 C657 1.385 . S
C658 C659 1.357 . S
C659 C658 1.357 . S
C659 C660 1.406 . S
C660 H634 0.929 . S
C660 C659 1.406 . S
C660 C661 1.391 . S
C661 H633 0.931 . S
C661 C656 1.370 . S
C661 C660 1.391 . S
C662 N631 1.435 . S
C662 C663 1.358 . S
C662 C667 1.371 . S
C663 H635 0.930 . S
C663 C662 1.358 . S
C663 C664 1.405 . S
C664 H636 0.932 . S
C664 C663 1.405 . S
C664 C665 1.383 . S
C665 C664 1.383 . S
C665 C666 1.393 . S
C666 H638 0.931 . S
C666 C665 1.393 . S
C666 C667 1.382 . S
C667 H637 0.929 . S
C667 C662 1.371 . S
C667 C666 1.382 . S
C668 N631 1.423 . S
C668 C669 1.362 . S
C668 C673 1.388 . S
C669 H639 0.929 . S
C669 C668 1.362 . S
C669 C670 1.376 . S
C670 H641 0.931 . S
C670 C669 1.376 . S
C670 C671 1.396 . S
C671 C670 1.396 . S
C671 C672 1.348 . S
C671 C689 1.472 1_554 S
C672 H642 0.929 . S
C672 C671 1.348 . S
C672 C673 1.443 . S
C673 H640 0.932 . S
C673 C668 1.388 . S
C673 C672 1.443 . S
C674 N654 1.433 . S
C674 C675 1.363 . S
C674 C679 1.370 . S
C675 H643 0.929 . S
C675 C674 1.363 . S
C675 C676 1.385 . S
C676 H644 0.930 . S
C676 C675 1.385 . S
C676 C677 1.357 . S
C677 C676 1.357 . S
C677 C678 1.406 . S
C678 H645 0.929 . S
C678 C677 1.406 . S
C678 C679 1.391 . S
C679 H646 0.931 . S
C679 C674 1.370 . S
C679 C678 1.391 . S
C680 N654 1.435 . S
C680 C681 1.358 . S
C680 C685 1.371 . S
C681 H647 0.930 . S
C681 C680 1.358 . S
C681 C682 1.405 . S
C682 H648 0.932 . S
C682 C681 1.405 . S
C682 C683 1.383 . S
C683 C682 1.383 . S
C683 C684 1.393 . S
C684 H649 0.931 . S
C684 C683 1.393 . S
C684 C685 1.382 . S
C685 H650 0.929 . S
C685 C680 1.371 . S
C685 C684 1.382 . S
C686 N654 1.423 . S
C686 C687 1.362 . S
C686 C691 1.388 . S
C687 H651 0.929 . S
C687 C686 1.362 . S
C687 C688 1.376 . S
C688 H652 0.931 . S
C688 C687 1.376 . S
C688 C689 1.396 . S
C689 C671 1.472 1_556 S
C689 C688 1.396 . S
C689 C690 1.348 . S
C690 H653 0.929 . S
C690 C689 1.348 . S
C690 C691 1.443 . S
C691 H655 0.932 . S
C691 C686 1.388 . S
C691 C690 1.443 . S
C355 C15 2.278 . S
C435 C55 2.304 . S
C367 C101 2.059 . S
C411 C141 2.239 . S
C479 C2 2.203 . S
C559 C61 1.467 . S
C95 C621 2.429 . S
C677 C135 1.621 . S
C491 C42 2.246 . S
C82 C535 1.534 . S
C597 C122 2.528 . S
C665 C21 1.519 . S
C162 C429 2.255 . S
C349 C221 2.039 . S
C255 C417 2.313 . S
C282 C373 2.142 . S
C615 C181 2.542 . S
C659 C202 1.739 . S
C473 C242 2.486 . S
C301 C541 1.478 . S
C603 C215 2.426 . S
C683 C261 1.547 . S
C497 C295 2.315 . S
C175 C553 1.526 . S
