# Generated by pormake.
# Topology tsx, (6,3)-cn, num edge types: 1
# Building blocks:
#     Node 0, Type 0, BuildingBlock: JUFBIX_clean_sbu_0, # of connection points: 6
#     Node 1, Type 0, BuildingBlock: JUFBIX_clean_sbu_0, # of connection points: 6
#     Node 2, Type 1, BuildingBlock: KAKCAD_clean_linker_0, # of connection points: 3
#     Node 3, Type 1, BuildingBlock: KAKCAD_clean_linker_0, # of connection points: 3
#     Node 4, Type 1, BuildingBlock: KAKCAD_clean_linker_0, # of connection points: 3
#     Node 5, Type 1, BuildingBlock: KAKCAD_clean_linker_0, # of connection points: 3
#     Edge 6, Type (0, 1), BuildingBlock: EZIPEK_clean_linker_0, # of connection points: 2
#     Edge 7, Type (0, 1), BuildingBlock: EZIPEK_clean_linker_0, # of connection points: 2
#     Edge 8, Type (0, 1), BuildingBlock: EZIPEK_clean_linker_0, # of connection points: 2
#     Edge 9, Type (0, 1), BuildingBlock: EZIPEK_clean_linker_0, # of connection points: 2
#     Edge 10, Type (0, 1), BuildingBlock: EZIPEK_clean_linker_0, # of connection points: 2
#     Edge 11, Type (0, 1), BuildingBlock: EZIPEK_clean_linker_0, # of connection points: 2
#     Edge 12, Type (0, 1), BuildingBlock: EZIPEK_clean_linker_0, # of connection points: 2
#     Edge 13, Type (0, 1), BuildingBlock: EZIPEK_clean_linker_0, # of connection points: 2
#     Edge 14, Type (0, 1), BuildingBlock: EZIPEK_clean_linker_0, # of connection points: 2
#     Edge 15, Type (0, 1), BuildingBlock: EZIPEK_clean_linker_0, # of connection points: 2
#     Edge 16, Type (0, 1), BuildingBlock: EZIPEK_clean_linker_0, # of connection points: 2
#     Edge 17, Type (0, 1), BuildingBlock: EZIPEK_clean_linker_0, # of connection points: 2
# Relax obj value: 0.159
# Max RMSD: 0.169
# Mean RMSD: 0.137
data_MOF--net-tsx--node1-JUFBIX_clean_sbu_0--node2-KAKCAD_clean_linker_0--edge1-EZIPEK_clean_linker_0
_symmetry_space_group_name_H-M    P1
_symmetry_Int_Tables_number       1
_symmetry_cell_setting            triclinic
loop_
_symmetry_equiv_pos_as_xyz
'x, y, z'
_cell_length_a     18.811833
_cell_length_b     22.268419
_cell_length_c     34.543443
_cell_angle_alpha  92.956663
_cell_angle_beta   88.996175
_cell_angle_gamma 99.3209
loop_
_atom_site_label
_atom_site_type_symbol
_atom_site_fract_x
_atom_site_fract_y
_atom_site_fract_z
_atom_type_partial_charge
Co0 Co 0.08849 0.99995 0.00737 0.0
C1 C 0.03531 0.03512 0.93842 0.0
Co2 Co 0.99863 0.05321 0.01446 0.0
C3 C 0.1669 0.89726 0.00773 0.0
C4 C 0.22298 0.97254 0.97739 0.0
N5 N 0.16251 0.95473 -0.00179 0.0
N6 N 0.22765 0.87896 0.99353 0.0
C7 C 0.26299 0.926 0.97441 0.0
H8 H 0.12542 0.86863 0.0235 0.0
H9 H 0.23604 0.01593 0.96409 0.0
C10 C 0.05105 0.01551 0.08318 0.0
N11 N 0.92617 0.10053 0.02403 0.0
C12 C 0.87123 0.11038 0.00163 0.0
C13 C 0.92324 0.13832 0.05573 0.0
N14 N 0.83488 0.1527 0.01838 0.0
C15 C 0.86723 0.17017 0.05236 0.0
C16 C 0.95152 0.92974 0.00699 0.0
O17 O 0.09303 0.9897 0.0612 0.0
O18 O 1.00796 0.04628 0.06856 0.0
O19 O 0.93035 0.98092 0.0127 0.0
O20 O 0.0184 0.92764 0.00242 0.0
O21 O 0.99011 0.05783 0.96009 0.0
H22 H 0.96136 0.1445 0.07924 0.0
H23 H 0.85992 0.0891 0.97305 0.0
O24 O 0.08339 0.01022 0.9537 0.0
O25 O 0.15694 0.07301 0.01256 0.0
O26 O 0.06771 0.12565 0.01635 0.0
C27 C 0.13484 0.12402 0.01553 0.0
H28 H 0.31292 0.92576 0.95838 0.0
H29 H 0.85313 0.20541 0.07245 0.0
Co30 Co 0.56867 0.50708 0.50256 0.0
C31 C 0.51639 0.55068 0.43465 0.0
Co32 Co 0.48273 0.56314 0.5111 0.0
C33 C 0.64351 0.40294 0.50282 0.0
C34 C 0.69433 0.47239 0.46611 0.0
N35 N 0.63821 0.45881 0.49075 0.0
N36 N 0.70059 0.38146 0.48646 0.0
C37 C 0.73271 0.42478 0.46337 0.0
H38 H 0.60559 0.37796 0.52246 0.0
H39 H 0.70585 0.51389 0.45059 0.0
C40 C 0.53499 0.51844 0.57872 0.0
N41 N 0.41398 0.61216 0.52367 0.0
C42 C 0.35689 0.62311 0.50351 0.0
C43 C 0.41544 0.64929 0.55595 0.0
N44 N 0.32346 0.66572 0.52209 0.0
C45 C 0.35986 0.68217 0.55505 0.0
C46 C 0.42793 0.44132 0.50154 0.0
O47 O 0.57801 0.49555 0.5559 0.0
O48 O 0.48983 0.54825 0.56501 0.0
O49 O 0.41085 0.49413 0.50481 0.0
O50 O 0.49461 0.4369 0.49972 0.0
O51 O 0.47577 0.57616 0.45772 0.0
H52 H 0.45605 0.65392 0.57816 0.0
H53 H 0.34189 0.60235 0.47518 0.0
O54 O 0.55961 0.51918 0.4486 0.0
O55 O 0.64093 0.57736 0.50645 0.0
O56 O 0.55536 0.6328 0.51671 0.0
C57 C 0.62175 0.62903 0.51318 0.0
H58 H 0.77981 0.42159 0.44539 0.0
H59 H 0.34862 0.71725 0.57608 0.0
C60 C 1.01106 0.93942 0.26567 0.0
C61 C 0.03292 0.99567 0.24912 0.0
C62 C 0.99919 0.93681 0.30557 0.0
C63 C 1.00945 0.99044 0.32957 0.0
C64 C 0.03319 0.04658 0.31285 0.0
C65 C 0.04461 0.04916 0.2729 0.0
C66 C 0.99474 0.98784 0.37182 0.0
C67 C 0.01503 0.94116 0.39269 0.0
C68 C 1.00229 0.93868 0.43275 0.0
C69 C 0.96849 0.98356 0.45215 0.0
C70 C 0.94773 0.03064 0.43161 0.0
C71 C 0.96085 0.03224 0.39151 0.0
C72 C 0.9121 0.07869 0.45121 0.0
C73 C 0.84939 0.06358 0.47374 0.0
C74 C 0.93669 0.14011 0.44393 0.0
C75 C 0.89717 0.18516 0.45689 0.0
C76 C 0.83236 0.16966 0.47733 0.0
C77 C 0.03045 0.8916 0.45386 0.0
C78 C 0.01677 0.83038 0.44 0.0
C79 C 0.08063 0.90887 0.4836 0.0
C80 C 0.12044 0.86658 0.49715 0.0
C81 C 0.11015 0.80657 0.48124 0.0
C82 C 0.05622 0.78806 0.4537 0.0
C83 C 0.80964 0.10889 0.48676 0.0
H84 H 1.00141 0.8978 0.24753 0.0
H85 H 0.98023 0.89296 0.31747 0.0
H86 H 0.04282 0.08854 0.33063 0.0
H87 H 0.06143 0.09292 0.26042 0.0
H88 H 0.04348 0.90782 0.37798 0.0
H89 H 0.9433 0.06768 0.37545 0.0
H90 H 0.95936 0.98234 0.48303 0.0
H91 H 0.82907 0.01648 0.47939 0.0
H92 H 0.98526 0.15297 0.42697 0.0
H93 H 0.9156 0.23189 0.44957 0.0
H94 H 0.97832 0.81613 0.41701 0.0
H95 H 0.09283 0.95591 0.49432 0.0
H96 H 0.75967 0.09629 0.50257 0.0
H97 H 0.04784 0.7419 0.44113 0.0
H98 H 0.16213 0.88148 0.51838 0.0
C99 C 0.07039 0.08177 0.75094 0.0
C100 C 0.03617 0.03117 0.77039 0.0
C101 C 0.0723 0.08055 0.7105 0.0
C102 C 0.04346 0.02739 0.68832 0.0
C103 C 1.01092 0.97617 0.70829 0.0
C104 C 1.0055 0.97872 0.74865 0.0
C105 C 0.0451 0.02638 0.64485 0.0
C106 C 0.09631 0.06702 0.62492 0.0
C107 C 0.09199 0.07312 0.58461 0.0
C108 C 0.04044 0.03202 0.5634 0.0
C109 C 0.99383 0.98713 0.58239 0.0
C110 C 0.99422 0.98619 0.62284 0.0
C111 C 0.94491 0.93922 0.56088 0.0
C112 C 0.87833 0.95045 0.54787 0.0
C113 C 0.96024 0.87954 0.55892 0.0
C114 C 0.90832 0.83114 0.54586 0.0
C115 C 0.84042 0.84188 0.5347 0.0
C116 C 0.13956 0.12406 0.56574 0.0
C117 C 0.16306 0.17894 0.58729 0.0
C118 C 0.161 0.11959 0.52646 0.0
C119 C 0.20457 0.16867 0.5095 0.0
C120 C 0.22952 0.22222 0.53182 0.0
C121 C 0.20848 0.22659 0.57083 0.0
C122 C 0.82648 0.90196 0.53437 0.0
H123 H 0.09454 0.12278 0.76711 0.0
H124 H 0.09568 0.12198 0.69699 0.0
H125 H 0.9898 0.93352 0.69314 0.0
H126 H 0.97893 0.93897 0.76306 0.0
H127 H 0.13991 0.09438 0.64085 0.0
H128 H 0.95366 0.95401 0.63667 0.0
H129 H 0.03597 0.03481 0.53242 0.0
H130 H 0.8654 0.99617 0.54986 0.0
H131 H 1.01114 0.87014 0.56931 0.0
H132 H 0.91974 0.78503 0.5463 0.0
H133 H 0.14576 0.18602 0.61697 0.0
H134 H 0.14474 0.07828 0.50877 0.0
H135 H 0.77409 0.91081 0.52596 0.0
H136 H 0.22616 0.26778 0.5885 0.0
H137 H 0.21937 0.16471 0.47914 0.0
C138 C 0.5032 0.4349 0.76058 0.0
C139 C 0.52145 0.4921 0.74466 0.0
C140 C 0.49511 0.43037 0.80066 0.0
C141 C 0.50576 0.48299 0.82563 0.0
C142 C 0.52531 0.54018 0.80945 0.0
C143 C 0.53276 0.54468 0.76933 0.0
C144 C 0.49608 0.47821 0.8683 0.0
C145 C 0.51915 0.43053 0.88716 0.0
C146 C 0.51086 0.42577 0.92749 0.0
C147 C 0.47857 0.46956 0.94918 0.0
C148 C 0.45579 0.51778 0.93072 0.0
C149 C 0.46447 0.52166 0.89046 0.0
C150 C 0.42324 0.56537 0.95262 0.0
C151 C 0.35313 0.55215 0.9679 0.0
C152 C 0.45802 0.62612 0.95295 0.0
C153 C 0.42181 0.67331 0.96625 0.0
C154 C 0.35013 0.66045 0.97918 0.0
C155 C 0.54173 0.37759 0.94648 0.0
C156 C 0.53288 0.3179 0.92971 0.0
C157 C 0.58809 0.39273 0.97822 0.0
C158 C 0.62901 0.35046 0.99088 0.0
C159 C 0.62359 0.29237 0.97226 0.0
C160 C 0.57353 0.27563 0.9425 0.0
C161 C 0.31673 0.59949 0.98122 0.0
H162 H 0.49401 0.39387 0.74188 0.0
H163 H 0.47915 0.3857 0.81201 0.0
H164 H 0.53522 0.58154 0.82779 0.0
H165 H 0.54699 0.58918 0.75747 0.0
H166 H 0.54645 0.39827 0.87057 0.0
H167 H 0.4454 0.55836 0.87637 0.0
H168 H 0.47221 0.46666 0.98023 0.0
H169 H 0.3251 0.50562 0.96732 0.0
H170 H 0.51201 0.6372 0.94111 0.0
H171 H 0.44837 0.72005 0.9645 0.0
H172 H 0.49681 0.3048 0.90554 0.0
H173 H 0.5962 0.43837 0.99161 0.0
H174 H 0.26133 0.58883 0.99103 0.0
H175 H 0.56854 0.2309 0.92794 0.0
H176 H 0.66742 0.36399 0.01396 0.0
C177 C 0.52991 0.61992 0.24767 0.0
C178 C 0.50013 0.568 0.26729 0.0
C179 C 0.52635 0.6202 0.20724 0.0
C180 C 0.4966 0.56729 0.185 0.0
C181 C 0.46675 0.51541 0.2052 0.0
C182 C 0.4667 0.51644 0.24564 0.0
C183 C 0.49895 0.56535 0.1413 0.0
C184 C 0.54981 0.60618 0.12109 0.0
C185 C 0.55402 0.6035 0.08027 0.0
C186 C 0.50971 0.55662 0.05929 0.0
C187 C 0.46005 0.51478 0.07884 0.0
C188 C 0.45289 0.5207 0.11924 0.0
C189 C 0.41918 0.46103 0.05823 0.0
C190 C 0.34842 0.46145 0.04637 0.0
C191 C 0.4473 0.4063 0.05588 0.0
C192 C 0.40375 0.35184 0.04395 0.0
C193 C 0.33175 0.35166 0.03401 0.0
C194 C 0.60712 0.64881 0.06033 0.0
C195 C 0.61839 0.71016 0.07407 0.0
C196 C 0.65003 0.63095 0.02937 0.0
C197 C 0.70576 0.67291 0.01412 0.0
C198 C 0.71922 0.73308 0.02972 0.0
C199 C 0.67414 0.75175 0.05905 0.0
C200 C 0.30511 0.40707 0.03382 0.0
H201 H 0.55592 0.66042 0.26368 0.0
H202 H 0.54762 0.66221 0.19383 0.0
H203 H 0.44492 0.4728 0.19028 0.0
H204 H 0.44318 0.47575 0.26006 0.0
H205 H 0.5886 0.63919 0.13683 0.0
H206 H 0.41178 0.48899 0.13303 0.0
H207 H 0.51388 0.55248 0.02798 0.0
H208 H 0.32572 0.50322 0.04859 0.0
H209 H 0.50171 0.40525 0.0653 0.0
H210 H 0.42507 0.30949 0.04429 0.0
H211 H 0.58521 0.7257 0.09724 0.0
H212 H 0.64282 0.58405 0.01818 0.0
H213 H 0.24951 0.40757 0.02639 0.0
H214 H 0.68359 0.79818 0.07117 0.0
H215 H 0.74026 0.65792 0.99142 0.0
C216 C 0.22943 0.20372 0.98809 0.0
C217 C 0.18662 0.18139 0.02013 0.0
C218 C 0.23677 0.27168 0.06044 0.0
C219 C 0.28193 0.29287 0.02891 0.0
N220 N 0.32876 0.27697 0.96448 0.0
N221 N 0.15562 0.18848 0.08803 0.0
C222 C 0.28059 0.25814 0.99323 0.0
C223 C 0.19174 0.21398 0.05662 0.0
N224 N 0.21891 0.17418 0.95244 0.0
N225 N 0.23656 0.30709 0.09403 0.0
H226 H 0.12106 0.14685 0.0863 0.0
H227 H 0.16353 0.20599 0.11641 0.0
H228 H 0.27241 0.34744 0.09932 0.0
H229 H 0.19839 0.29845 0.11605 0.0
H230 H 0.24253 0.19129 0.92697 0.0
H231 H 0.18231 0.13406 0.94772 0.0
H232 H 0.33648 0.25056 0.9395 0.0
H233 H 0.36464 0.31794 0.96662 0.0
C234 C 0.23005 0.77842 0.96111 0.0
C235 C 0.24739 0.81917 0.99355 0.0
C236 C 0.31809 0.74837 0.02086 0.0
C237 C 0.30837 0.7114 0.98604 0.0
N238 N 0.25923 0.69244 0.92159 0.0
N239 N 0.30798 0.84589 0.05393 0.0
C240 C 0.26457 0.72625 0.95594 0.0
C241 C 0.29083 0.80457 0.0236 0.0
N242 N 0.18052 0.79019 0.93526 0.0
N243 N 0.35299 0.72932 0.05119 0.0
H244 H 0.28682 0.88644 0.05684 0.0
H245 H 0.3454 0.84169 0.07504 0.0
H246 H 0.37359 0.68846 0.04979 0.0
H247 H 0.35699 0.75135 0.07855 0.0
H248 H 0.15968 0.75971 0.91287 0.0
H249 H 0.15573 0.82886 0.93818 0.0
H250 H 0.23524 0.70491 0.89697 0.0
H251 H 0.28295 0.65351 0.91667 0.0
C252 C 0.90324 0.83036 0.0367 0.0
C253 C 0.89826 0.87298 0.00799 0.0
C254 C 0.77861 0.8186 0.98964 0.0
C255 C 0.78391 0.77606 0.01817 0.0
N256 N 0.85659 0.73229 0.06236 0.0
N257 N 0.84046 0.89965 0.95108 0.0
C258 C 0.84828 0.77883 0.03938 0.0
C259 C 0.83866 0.86456 0.98254 0.0
N260 N 0.95756 0.84113 0.06323 0.0
N261 N 0.71541 0.8161 0.97024 0.0
H262 H 0.88443 0.93278 0.9447 0.0
H263 H 0.8018 0.89229 0.92943 0.0
H264 H 0.67162 0.78138 0.97356 0.0
H265 H 0.70492 0.84998 0.9525 0.0
H266 H 0.95861 0.81601 0.08775 0.0
H267 H 0.99896 0.87827 0.06284 0.0
H268 H 0.90521 0.72827 0.07515 0.0
H269 H 0.81664 0.69461 0.06595 0.0
C270 C 0.70803 0.1669 0.01618 0.0
C271 C 0.77954 0.18108 0.00208 0.0
C272 C 0.74519 0.261 0.96357 0.0
C273 C 0.67571 0.25157 0.98118 0.0
N274 N 0.59054 0.19799 0.02536 0.0
N275 N 0.86939 0.24439 0.9656 0.0
C276 C 0.65669 0.20476 0.00761 0.0
C277 C 0.79884 0.22849 0.97628 0.0
N278 N 0.68981 0.11677 0.03762 0.0
N279 N 0.75949 0.30052 0.93436 0.0
H280 H 0.90976 0.22097 0.97409 0.0
H281 H 0.88889 0.28308 0.95057 0.0
H282 H 0.72197 0.32597 0.92469 0.0
H283 H 0.80637 0.30465 0.91758 0.0
H284 H 0.63744 0.10016 0.0464 0.0
H285 H 0.7271 0.08886 0.04414 0.0
H286 H 0.57558 0.16892 0.04777 0.0
H287 H 0.55141 0.22427 0.01912 0.0
C288 C 0.71989 0.7057 0.48605 0.0
C289 C 0.67626 0.68456 0.51807 0.0
C290 C 0.73418 0.77105 0.55924 0.0
C291 C 0.78165 0.7895 0.52808 0.0
N292 N 0.82483 0.77328 0.46295 0.0
N293 N 0.64561 0.69229 0.58607 0.0
C294 C 0.77595 0.75646 0.49175 0.0
C295 C 0.68398 0.71622 0.55487 0.0
N296 N 0.70564 0.67874 0.44992 0.0
N297 N 0.73691 0.80625 0.59303 0.0
H298 H 0.60717 0.65295 0.58404 0.0
H299 H 0.65515 0.70861 0.61458 0.0
H300 H 0.77557 0.84479 0.59844 0.0
H301 H 0.69816 0.79977 0.61494 0.0
H302 H 0.73031 0.69566 0.42464 0.0
H303 H 0.66478 0.6417 0.44465 0.0
H304 H 0.82944 0.74714 0.43745 0.0
H305 H 0.86383 0.81228 0.46545 0.0
C306 C 0.69517 0.27462 0.46342 0.0
C307 C 0.72174 0.32286 0.49014 0.0
C308 C 0.80523 0.2616 0.51613 0.0
C309 C 0.78635 0.21718 0.48555 0.0
N310 N 0.71464 0.18063 0.42931 0.0
N311 N 0.80002 0.3644 0.54222 0.0
C312 C 0.7306 0.22285 0.45937 0.0
C313 C 0.77558 0.31654 0.51702 0.0
N314 N 0.63649 0.27916 0.44168 0.0
N315 N 0.85145 0.25087 0.54412 0.0
H316 H 0.77712 0.40415 0.54404 0.0
H317 H 0.84442 0.36606 0.56001 0.0
H318 H 0.87363 0.21082 0.54399 0.0
H319 H 0.8635 0.279 0.5689 0.0
H320 H 0.60958 0.24357 0.42413 0.0
H321 H 0.61111 0.31755 0.44357 0.0
H322 H 0.68074 0.18566 0.40664 0.0
H323 H 0.7384 0.14151 0.42575 0.0
C324 C 0.38817 0.32784 0.48847 0.0
C325 C 0.3714 0.38535 0.50264 0.0
C326 C 0.25056 0.33277 0.51896 0.0
C327 C 0.27489 0.27597 0.51509 0.0
N328 N 0.37313 0.22049 0.5001 0.0
N329 N 0.28503 0.43715 0.54027 0.0
C330 C 0.34535 0.27349 0.50067 0.0
C331 C 0.30178 0.38691 0.51988 0.0
N332 N 0.44293 0.32449 0.46239 0.0
N333 N 0.17867 0.335 0.52297 0.0
H334 H 0.32106 0.47641 0.54734 0.0
H335 H 0.23649 0.43656 0.55541 0.0
H336 H 0.1398 0.29575 0.52192 0.0
H337 H 0.15792 0.37568 0.52284 0.0
H338 H 0.45348 0.28328 0.44972 0.0
H339 H 0.47077 0.36252 0.44934 0.0
H340 H 0.42701 0.21863 0.49335 0.0
H341 H 0.34456 0.17984 0.50969 0.0
C342 C 0.19773 0.68325 0.52513 0.0
C343 C 0.26715 0.69511 0.50802 0.0
C344 C 0.22921 0.77265 0.46899 0.0
C345 C 0.16242 0.7658 0.48941 0.0
N346 N 0.0831 0.71766 0.53825 0.0
N347 N 0.35303 0.75488 0.46729 0.0
C348 C 0.14634 0.72156 0.51773 0.0
C349 C 0.28384 0.74046 0.48061 0.0
N350 N 0.18141 0.63477 0.54815 0.0
N351 N 0.23997 0.80932 0.43815 0.0
H352 H 0.39435 0.73209 0.47523 0.0
H353 H 0.37084 0.79223 0.45072 0.0
H354 H 0.20167 0.83448 0.42907 0.0
H355 H 0.28435 0.81108 0.41956 0.0
H356 H 0.13011 0.61984 0.55916 0.0
H357 H 0.21869 0.60637 0.55375 0.0
H358 H 0.071 0.6907 0.56195 0.0
H359 H 0.04395 0.74441 0.53296 0.0
C360 C 0.98078 0.98665 0.14323 0.0
C361 C 0.04832 0.0072 0.12537 0.0
C362 C 0.10739 0.01216 0.18838 0.0
C363 C 0.03878 0.99898 0.20649 0.0
N364 N 0.90912 0.9847 0.20202 0.0
N365 N 0.17485 0.04842 0.13152 0.0
C366 C 0.97512 0.98928 0.18417 0.0
C367 C 0.11159 0.0221 0.14803 0.0
N368 N 0.92249 0.96228 0.12119 0.0
N369 N 0.16841 0.01387 0.20958 0.0
H370 H 0.18027 0.05721 0.10218 0.0
H371 H 0.22045 0.06646 0.14751 0.0
H372 H 0.16725 1.00703 0.23925 0.0
H373 H 0.21968 0.01683 0.19721 0.0
H374 H 0.87428 0.94059 0.13292 0.0
H375 H 0.92439 0.9578 0.09105 0.0
H376 H 0.86147 0.9845 0.18706 0.0
H377 H 0.90239 0.98686 0.23207 0.0
C378 C 0.04602 0.98187 0.87347 0.0
C379 C 0.03079 0.03401 0.89552 0.0
C380 C 1.00555 0.07928 0.83522 0.0
C381 C 0.03394 0.03241 0.81355 0.0
N382 N 0.0998 0.94763 0.81435 0.0
N383 N 1.01146 0.13908 0.89575 0.0
C384 C 0.05977 0.98615 0.83331 0.0
C385 C 0.01462 0.08477 0.87605 0.0
N386 N 0.04421 0.92736 0.89022 0.0
N387 N 0.96797 0.1173 0.81726 0.0
H388 H 0.02274 0.14689 0.92516 0.0
H389 H 1.00585 0.17846 0.88182 0.0
H390 H 0.95687 0.11283 0.78768 0.0
H391 H 0.94113 0.14865 0.83252 0.0
H392 H 0.05004 0.88742 0.87422 0.0
H393 H 0.02741 0.9202 0.91877 0.0
H394 H 0.12437 0.91654 0.82876 0.0
H395 H 0.11545 0.95157 0.78536 0.0
C396 C 0.59695 0.52568 0.64343 0.0
C397 C 0.53401 0.50798 0.62079 0.0
C398 C 0.46265 0.48377 0.67956 0.0
C399 C 0.52624 0.49706 0.70194 0.0
N400 N 0.65593 0.51909 0.7046 0.0
N401 N 0.41212 0.45418 0.61629 0.0
C402 C 0.5941 0.51463 0.68369 0.0
C403 C 0.46826 0.48243 0.63858 0.0
N404 N 0.65859 0.5552 0.62697 0.0
N405 N 0.39662 0.47432 0.69741 0.0
H406 H 0.41589 0.44902 0.58622 0.0
H407 H 0.36522 0.42975 0.62776 0.0
H408 H 0.38994 0.47563 0.72746 0.0
H409 H 0.3484 0.4709 0.68244 0.0
H410 H 0.70326 0.57553 0.64299 0.0
H411 H 0.66339 0.56378 0.59759 0.0
H412 H 0.70718 0.52536 0.69206 0.0
H413 H 0.65592 0.51113 0.73409 0.0
C414 C 0.49705 0.61053 0.37611 0.0
C415 C 0.51304 0.55639 0.39181 0.0
C416 C 0.53604 0.51774 0.32593 0.0
C417 C 0.50672 0.56593 0.31025 0.0
N418 N 0.44319 0.65134 0.32236 0.0
N419 N 0.52628 0.4505 0.3786 0.0
C420 C 0.4824 0.61047 0.33587 0.0
C421 C 0.52663 0.50762 0.36592 0.0
N422 N 0.49936 0.66298 0.3987 0.0
N423 N 0.57441 0.48236 0.30308 0.0
H424 H 0.51124 0.43851 0.40662 0.0
H425 H 0.53097 0.41317 0.35976 0.0
H426 H 0.58645 0.49051 0.27404 0.0
H427 H 0.60131 0.44977 0.31432 0.0
H428 H 0.49311 0.70431 0.38739 0.0
H429 H 0.51688 0.66737 0.4273 0.0
H430 H 0.41929 0.68109 0.34076 0.0
H431 H 0.42791 0.65093 0.29347 0.0
loop_
_geom_bond_atom_site_label_1
_geom_bond_atom_site_label_2
_geom_bond_distance
_geom_bond_site_symmetry_2
_ccdc_geom_bond_type
Co0 N5 2.057 . S
Co0 O17 2.021 . S
Co0 O20 2.062 1_455 S
Co0 O24 2.117 1_554 S
Co0 O25 2.020 1_565 S
C1 O21 1.259 1_455 S
C1 O24 1.258 1_545 S
Co2 N11 2.057 . S
Co2 O18 2.117 . S
Co2 O19 2.020 1_545 S
Co2 O21 2.021 1_554 S
Co2 O26 2.062 1_655 S
C3 N5 1.316 . S
C3 N6 1.347 . S
C3 H8 0.931 . S
C4 N5 1.375 1_556 S
C4 C7 1.350 . S
C4 H9 0.930 . S
N5 Co0 2.057 . S
N5 C3 1.316 . S
N5 C4 1.375 1_554 S
N6 C3 1.347 . S
N6 C7 1.373 1_554 S
C7 C4 1.350 . S
C7 N6 1.373 1_556 S
C7 H28 0.931 . S
H8 C3 0.931 . S
H9 C4 0.930 . S
C10 O17 1.259 1_545 S
C10 O18 1.258 1_455 S
N11 Co2 2.057 . S
N11 C12 1.316 . S
N11 C13 1.375 . S
C12 N11 1.316 . S
C12 N14 1.347 . S
C12 H23 0.931 1_554 S
C13 N11 1.375 . S
C13 C15 1.350 . S
C13 H22 0.930 . S
N14 C12 1.347 . S
N14 C15 1.373 . S
C15 C13 1.350 . S
C15 N14 1.373 . S
C15 H29 0.931 . S
C16 O19 1.256 . S
C16 O20 1.255 . S
O17 Co0 2.021 . S
O17 C10 1.259 1_565 S
O18 Co2 2.117 . S
O18 C10 1.258 1_655 S
O19 Co2 2.020 1_565 S
O19 C16 1.256 . S
O20 Co0 2.062 1_655 S
O20 C16 1.255 . S
O21 C1 1.259 1_655 S
O21 Co2 2.021 1_556 S
H22 C13 0.930 . S
H23 C12 0.931 1_556 S
O24 Co0 2.117 1_556 S
O24 C1 1.258 1_565 S
O25 Co0 2.020 1_545 S
O25 C27 1.256 . S
O26 Co2 2.062 1_455 S
O26 C27 1.255 . S
C27 O25 1.256 . S
C27 O26 1.255 . S
H28 C7 0.931 . S
H29 C15 0.931 . S
Co30 N35 2.057 . S
Co30 O47 2.021 . S
Co30 O50 2.062 . S
Co30 O54 2.117 . S
Co30 O55 2.020 . S
C31 O51 1.259 . S
C31 O54 1.258 . S
Co32 N41 2.057 . S
Co32 O48 2.117 . S
Co32 O49 2.020 . S
Co32 O51 2.021 . S
Co32 O56 2.062 . S
C33 N35 1.316 . S
C33 N36 1.347 . S
C33 H38 0.931 . S
C34 N35 1.375 . S
C34 C37 1.350 . S
C34 H39 0.930 . S
N35 Co30 2.057 . S
N35 C33 1.316 . S
N35 C34 1.375 . S
N36 C33 1.347 . S
N36 C37 1.373 . S
C37 C34 1.350 . S
C37 N36 1.373 . S
C37 H58 0.931 . S
H38 C33 0.931 . S
H39 C34 0.930 . S
C40 O47 1.259 . S
C40 O48 1.258 . S
N41 Co32 2.057 . S
N41 C42 1.316 . S
N41 C43 1.375 . S
C42 N41 1.316 . S
C42 N44 1.347 . S
C42 H53 0.931 . S
C43 N41 1.375 . S
C43 C45 1.350 . S
C43 H52 0.930 . S
N44 C42 1.347 . S
N44 C45 1.373 . S
C45 C43 1.350 . S
C45 N44 1.373 . S
C45 H59 0.931 . S
C46 O49 1.256 . S
C46 O50 1.255 . S
O47 Co30 2.021 . S
O47 C40 1.259 . S
O48 Co32 2.117 . S
O48 C40 1.258 . S
O49 Co32 2.020 . S
O49 C46 1.256 . S
O50 Co30 2.062 . S
O50 C46 1.255 . S
O51 C31 1.259 . S
O51 Co32 2.021 . S
H52 C43 0.930 . S
H53 C42 0.931 . S
O54 Co30 2.117 . S
O54 C31 1.258 . S
O55 Co30 2.020 . S
O55 C57 1.256 . S
O56 Co32 2.062 . S
O56 C57 1.255 . S
C57 O55 1.256 . S
C57 O56 1.255 . S
H58 C37 0.931 . S
H59 C45 0.931 . S
C60 C61 1.373 1_665 S
C60 C62 1.397 . S
C60 H84 0.931 . S
C61 C60 1.373 1_445 S
C61 C65 1.409 . S
C62 C60 1.397 . S
C62 C63 1.377 1_665 S
C62 H85 0.930 . S
C63 C62 1.377 1_445 S
C63 C64 1.384 . S
C63 C66 1.481 . S
C64 C63 1.384 . S
C64 C65 1.389 . S
C64 H86 0.929 . S
C65 C61 1.409 . S
C65 C64 1.389 . S
C65 H87 0.931 . S
C66 C63 1.481 . S
C66 C67 1.391 1_545 S
C66 C71 1.386 1_455 S
C67 C66 1.391 1_565 S
C67 C68 1.401 . S
C67 H88 0.930 . S
C68 C67 1.401 . S
C68 C69 1.376 1_465 S
C68 C77 1.511 . S
C69 C68 1.376 1_645 S
C69 C70 1.392 . S
C69 H90 0.931 . S
C70 C69 1.392 . S
C70 C71 1.361 . S
C70 C72 1.500 . S
C71 C66 1.386 1_655 S
C71 C70 1.361 . S
C71 H89 0.931 . S
C72 C70 1.500 . S
C72 C73 1.371 . S
C72 C74 1.365 . S
C73 C72 1.371 . S
C73 C83 1.386 . S
C73 H91 0.931 . S
C74 C72 1.365 . S
C74 C75 1.409 . S
C74 H92 0.929 . S
C75 C74 1.409 . S
C75 C76 1.380 . S
C75 H93 0.930 . S
C76 C75 1.380 . S
C76 C83 1.357 . S
C77 C68 1.511 . S
C77 C78 1.341 . S
C77 C79 1.371 . S
C78 C77 1.341 . S
C78 C82 1.394 . S
C78 H94 0.930 . S
C79 C77 1.371 . S
C79 C80 1.392 . S
C79 H95 0.931 . S
C80 C79 1.392 . S
C80 C81 1.331 . S
C80 H98 0.932 . S
C81 C80 1.331 . S
C81 C82 1.336 . S
C82 C78 1.394 . S
C82 C81 1.336 . S
C82 H97 0.929 . S
C83 C73 1.386 . S
C83 C76 1.357 . S
C83 H96 0.928 . S
H84 C60 0.931 . S
H85 C62 0.930 . S
H86 C64 0.929 . S
H87 C65 0.931 . S
H88 C67 0.930 . S
H89 C71 0.931 . S
H90 C69 0.931 . S
H91 C73 0.931 . S
H92 C74 0.929 . S
H93 C75 0.930 . S
H94 C78 0.930 . S
H95 C79 0.931 . S
H96 C83 0.928 . S
H97 C82 0.929 . S
H98 C80 0.932 . S
C99 C100 1.386 . S
C99 C101 1.397 . S
C99 H123 0.931 . S
C100 C99 1.386 . S
C100 C104 1.397 1_545 S
C101 C99 1.397 . S
C101 C102 1.384 . S
C101 H124 0.930 . S
C102 C101 1.384 . S
C102 C103 1.377 1_545 S
C102 C105 1.481 . S
C103 C102 1.377 1_565 S
C103 C104 1.389 . S
C103 H125 0.929 . S
C104 C100 1.397 1_565 S
C104 C103 1.389 . S
C104 H126 0.931 . S
C105 C102 1.481 . S
C105 C106 1.387 . S
C105 C110 1.390 1_445 S
C106 C105 1.387 . S
C106 C107 1.401 . S
C106 H127 0.930 . S
C107 C106 1.401 . S
C107 C108 1.384 . S
C107 C116 1.511 . S
C108 C107 1.384 . S
C108 C109 1.385 1_445 S
C108 H129 0.930 1_455 S
C109 C108 1.385 1_665 S
C109 C110 1.361 . S
C109 C111 1.500 . S
C110 C105 1.390 1_665 S
C110 C109 1.361 . S
C110 H128 0.931 . S
C111 C109 1.500 . S
C111 C112 1.371 . S
C111 C113 1.365 . S
C112 C111 1.371 . S
C112 C122 1.386 . S
C112 H130 0.931 . S
C113 C111 1.365 . S
C113 C114 1.409 . S
C113 H131 0.929 . S
C114 C113 1.409 . S
C114 C115 1.380 . S
C114 H132 0.930 . S
C115 C114 1.380 . S
C115 C122 1.357 . S
C116 C107 1.511 . S
C116 C117 1.341 . S
C116 C118 1.371 . S
C117 C116 1.341 . S
C117 C121 1.394 . S
C117 H133 0.930 . S
C118 C116 1.371 . S
C118 C119 1.392 . S
C118 H134 0.931 . S
C119 C118 1.392 . S
C119 C120 1.331 . S
C119 H137 0.932 . S
C120 C119 1.331 . S
C120 C121 1.336 . S
C121 C117 1.394 . S
C121 C120 1.336 . S
C121 H136 0.929 . S
C122 C112 1.386 . S
C122 C115 1.357 . S
C122 H135 0.928 . S
H123 C99 0.931 . S
H124 C101 0.930 . S
H125 C103 0.929 . S
H126 C104 0.931 . S
H127 C106 0.930 . S
H128 C110 0.931 . S
H129 C108 0.930 1_655 S
H130 C112 0.931 . S
H131 C113 0.929 . S
H132 C114 0.930 . S
H133 C117 0.930 . S
H134 C118 0.931 . S
H135 C122 0.928 . S
H136 C121 0.929 . S
H137 C119 0.932 . S
C138 C139 1.386 . S
C138 C140 1.397 . S
C138 H162 0.931 . S
C139 C138 1.386 . S
C139 C143 1.397 . S
C140 C138 1.397 . S
C140 C141 1.384 . S
C140 H163 0.930 . S
C141 C140 1.384 . S
C141 C142 1.377 . S
C141 C144 1.481 . S
C142 C141 1.377 . S
C142 C143 1.389 . S
C142 H164 0.929 . S
C143 C139 1.397 . S
C143 C142 1.389 . S
C143 H165 0.931 . S
C144 C141 1.481 . S
C144 C145 1.387 . S
C144 C149 1.390 . S
C145 C144 1.387 . S
C145 C146 1.401 . S
C145 H166 0.930 . S
C146 C145 1.401 . S
C146 C147 1.376 . S
C146 C155 1.511 . S
C147 C146 1.376 . S
C147 C148 1.392 . S
C147 H168 0.931 . S
C148 C147 1.392 . S
C148 C149 1.361 . S
C148 C150 1.500 . S
C149 C144 1.390 . S
C149 C148 1.361 . S
C149 H167 0.931 . S
C150 C148 1.500 . S
C150 C151 1.382 . S
C150 C152 1.365 . S
C151 C150 1.382 . S
C151 C161 1.381 1_556 S
C151 H169 0.926 1_556 S
C152 C150 1.365 . S
C152 C153 1.409 . S
C152 H170 0.929 . S
C153 C152 1.409 . S
C153 C154 1.380 1_556 S
C153 H171 0.930 . S
C154 C153 1.380 1_554 S
C154 C161 1.357 . S
C155 C146 1.511 . S
C155 C156 1.341 . S
C155 C157 1.371 1_556 S
C156 C155 1.341 . S
C156 C160 1.394 . S
C156 H172 0.930 . S
C157 C155 1.371 1_554 S
C157 C158 1.392 . S
C157 H173 0.931 . S
C158 C157 1.392 . S
C158 C159 1.331 . S
C158 H176 0.932 . S
C159 C158 1.331 . S
C159 C160 1.336 1_554 S
C160 C156 1.394 . S
C160 C159 1.336 1_556 S
C160 H175 0.929 . S
C161 C151 1.381 1_554 S
C161 C154 1.357 . S
C161 H174 0.928 . S
H162 C138 0.931 . S
H163 C140 0.930 . S
H164 C142 0.929 . S
H165 C143 0.931 . S
H166 C145 0.930 . S
H167 C149 0.931 . S
H168 C147 0.931 . S
H169 C151 0.926 1_554 S
H170 C152 0.929 . S
H171 C153 0.930 . S
H172 C156 0.930 . S
H173 C157 0.931 . S
H174 C161 0.928 . S
H175 C160 0.929 . S
H176 C158 0.932 . S
C177 C178 1.386 . S
C177 C179 1.397 . S
C177 H201 0.931 . S
C178 C177 1.386 . S
C178 C182 1.397 . S
C179 C177 1.397 . S
C179 C180 1.384 . S
C179 H202 0.930 . S
C180 C179 1.384 . S
C180 C181 1.377 . S
C180 C183 1.481 . S
C181 C180 1.377 . S
C181 C182 1.389 . S
C181 H203 0.929 . S
C182 C178 1.397 . S
C182 C181 1.389 . S
C182 H204 0.931 . S
C183 C180 1.481 . S
C183 C184 1.387 . S
C183 C188 1.390 . S
C184 C183 1.387 . S
C184 C185 1.401 . S
C184 H205 0.930 . S
C185 C184 1.401 . S
C185 C186 1.376 . S
C185 C194 1.511 . S
C186 C185 1.376 . S
C186 C187 1.392 . S
C186 H207 0.931 . S
C187 C186 1.392 . S
C187 C188 1.361 . S
C187 C189 1.500 . S
C188 C183 1.390 . S
C188 C187 1.361 . S
C188 H206 0.931 . S
C189 C187 1.500 . S
C189 C190 1.371 . S
C189 C191 1.365 . S
C190 C189 1.371 . S
C190 C200 1.386 . S
C190 H208 0.931 . S
C191 C189 1.365 . S
C191 C192 1.409 . S
C191 H209 0.929 . S
C192 C191 1.409 . S
C192 C193 1.380 . S
C192 H210 0.930 . S
C193 C192 1.380 . S
C193 C200 1.357 . S
C194 C185 1.511 . S
C194 C195 1.341 . S
C194 C196 1.371 . S
C195 C194 1.341 . S
C195 C199 1.394 . S
C195 H211 0.930 . S
C196 C194 1.371 . S
C196 C197 1.390 1_554 S
C196 H212 0.931 . S
C197 C196 1.390 1_556 S
C197 C198 1.329 1_556 S
C197 H215 0.936 . S
C198 C197 1.329 1_554 S
C198 C199 1.336 . S
C199 C195 1.394 . S
C199 C198 1.336 . S
C199 H214 0.929 . S
C200 C190 1.386 . S
C200 C193 1.357 . S
C200 H213 0.928 1_554 S
H201 C177 0.931 . S
H202 C179 0.930 . S
H203 C181 0.929 . S
H204 C182 0.931 . S
H205 C184 0.930 . S
H206 C188 0.931 . S
H207 C186 0.931 . S
H208 C190 0.931 . S
H209 C191 0.929 . S
H210 C192 0.930 . S
H211 C195 0.930 . S
H212 C196 0.931 . S
H213 C200 0.928 1_556 S
H214 C199 0.929 . S
H215 C197 0.936 . S
C216 C217 1.363 1_556 S
C216 C222 1.379 . S
C216 N224 1.356 . S
C217 C216 1.363 1_554 S
C217 C223 1.363 . S
C218 C219 1.363 . S
C218 C223 1.379 . S
C218 N225 1.356 . S
C219 C218 1.363 . S
C219 C222 1.363 1_554 S
N220 C222 1.356 . S
N220 H232 0.984 . S
N220 H233 0.985 . S
N221 C223 1.356 . S
N221 H226 0.984 . S
N221 H227 0.985 . S
C222 C216 1.379 . S
C222 C219 1.363 1_556 S
C222 N220 1.356 . S
C223 C217 1.363 . S
C223 C218 1.379 . S
C223 N221 1.356 . S
N224 C216 1.356 . S
N224 H230 0.984 . S
N224 H231 0.984 . S
N225 C218 1.356 . S
N225 H228 0.984 . S
N225 H229 0.985 . S
H226 N221 0.984 . S
H227 N221 0.985 . S
H228 N225 0.984 . S
H229 N225 0.985 . S
H230 N224 0.984 . S
H231 N224 0.984 . S
H232 N220 0.984 . S
H233 N220 0.985 . S
C234 C235 1.363 1_556 S
C234 C240 1.379 . S
C234 N242 1.356 . S
C235 C234 1.363 1_554 S
C235 C241 1.363 . S
C236 C237 1.363 . S
C236 C241 1.379 . S
C236 N243 1.356 . S
C237 C236 1.363 . S
C237 C240 1.363 1_554 S
N238 C240 1.356 . S
N238 H250 0.984 . S
N238 H251 0.985 . S
N239 C241 1.356 . S
N239 H244 0.984 . S
N239 H245 0.985 . S
C240 C234 1.379 . S
C240 C237 1.363 1_556 S
C240 N238 1.356 . S
C241 C235 1.363 . S
C241 C236 1.379 . S
C241 N239 1.356 . S
N242 C234 1.356 . S
N242 H248 0.984 . S
N242 H249 0.984 . S
N243 C236 1.356 . S
N243 H246 0.984 . S
N243 H247 0.985 . S
H244 N239 0.984 . S
H245 N239 0.985 . S
H246 N243 0.984 . S
H247 N243 0.985 . S
H248 N242 0.984 . S
H249 N242 0.984 . S
H250 N238 0.984 . S
H251 N238 0.985 . S
C252 C253 1.363 . S
C252 C258 1.379 . S
C252 N260 1.356 . S
C253 C252 1.363 . S
C253 C259 1.363 1_554 S
C254 C255 1.363 1_556 S
C254 C259 1.379 . S
C254 N261 1.356 . S
C255 C254 1.363 1_554 S
C255 C258 1.363 . S
N256 C258 1.356 . S
N256 H268 0.984 . S
N256 H269 0.985 . S
N257 C259 1.356 . S
N257 H262 0.984 . S
N257 H263 0.985 . S
C258 C252 1.379 . S
C258 C255 1.363 . S
C258 N256 1.356 . S
C259 C253 1.363 1_556 S
C259 C254 1.379 . S
C259 N257 1.356 . S
N260 C252 1.356 . S
N260 H266 0.984 . S
N260 H267 0.984 . S
N261 C254 1.356 . S
N261 H264 0.984 . S
N261 H265 0.985 . S
H262 N257 0.984 . S
H263 N257 0.985 . S
H264 N261 0.984 . S
H265 N261 0.985 . S
H266 N260 0.984 . S
H267 N260 0.984 . S
H268 N256 0.984 . S
H269 N256 0.985 . S
C270 C271 1.363 . S
C270 C276 1.379 . S
C270 N278 1.356 . S
C271 C270 1.363 . S
C271 C277 1.363 1_554 S
C272 C273 1.363 1_556 S
C272 C277 1.379 . S
C272 N279 1.356 . S
C273 C272 1.363 1_554 S
C273 C276 1.363 . S
N274 C276 1.356 . S
N274 H286 0.984 . S
N274 H287 0.985 . S
N275 C277 1.356 . S
N275 H280 0.984 . S
N275 H281 0.985 . S
C276 C270 1.379 . S
C276 C273 1.363 . S
C276 N274 1.356 . S
C277 C271 1.363 1_556 S
C277 C272 1.379 . S
C277 N275 1.356 . S
N278 C270 1.356 . S
N278 H284 0.984 . S
N278 H285 0.984 . S
N279 C272 1.356 . S
N279 H282 0.984 . S
N279 H283 0.985 . S
H280 N275 0.984 . S
H281 N275 0.985 . S
H282 N279 0.984 . S
H283 N279 0.985 . S
H284 N278 0.984 . S
H285 N278 0.984 . S
H286 N274 0.984 . S
H287 N274 0.985 . S
C288 C289 1.363 . S
C288 C294 1.379 . S
C288 N296 1.356 . S
C289 C288 1.363 . S
C289 C295 1.363 . S
C290 C291 1.363 . S
C290 C295 1.379 . S
C290 N297 1.356 . S
C291 C290 1.363 . S
C291 C294 1.363 . S
N292 C294 1.356 . S
N292 H304 0.984 . S
N292 H305 0.985 . S
N293 C295 1.356 . S
N293 H298 0.984 . S
N293 H299 0.985 . S
C294 C288 1.379 . S
C294 C291 1.363 . S
C294 N292 1.356 . S
C295 C289 1.363 . S
C295 C290 1.379 . S
C295 N293 1.356 . S
N296 C288 1.356 . S
N296 H302 0.984 . S
N296 H303 0.984 . S
N297 C290 1.356 . S
N297 H300 0.984 . S
N297 H301 0.985 . S
H298 N293 0.984 . S
H299 N293 0.985 . S
H300 N297 0.984 . S
H301 N297 0.985 . S
H302 N296 0.984 . S
H303 N296 0.984 . S
H304 N292 0.984 . S
H305 N292 0.985 . S
C306 C307 1.363 . S
C306 C312 1.379 . S
C306 N314 1.356 . S
C307 C306 1.363 . S
C307 C313 1.363 . S
C308 C309 1.363 . S
C308 C313 1.379 . S
C308 N315 1.356 . S
C309 C308 1.363 . S
C309 C312 1.363 . S
N310 C312 1.356 . S
N310 H322 0.984 . S
N310 H323 0.985 . S
N311 C313 1.356 . S
N311 H316 0.984 . S
N311 H317 0.985 . S
C312 C306 1.379 . S
C312 C309 1.363 . S
C312 N310 1.356 . S
C313 C307 1.363 . S
C313 C308 1.379 . S
C313 N311 1.356 . S
N314 C306 1.356 . S
N314 H320 0.984 . S
N314 H321 0.984 . S
N315 C308 1.356 . S
N315 H318 0.984 . S
N315 H319 0.985 . S
H316 N311 0.984 . S
H317 N311 0.985 . S
H318 N315 0.984 . S
H319 N315 0.985 . S
H320 N314 0.984 . S
H321 N314 0.984 . S
H322 N310 0.984 . S
H323 N310 0.985 . S
C324 C325 1.363 . S
C324 C330 1.379 . S
C324 N332 1.356 . S
C325 C324 1.363 . S
C325 C331 1.363 . S
C326 C327 1.363 . S
C326 C331 1.379 . S
C326 N333 1.356 . S
C327 C326 1.363 . S
C327 C330 1.363 . S
N328 C330 1.356 . S
N328 H340 0.984 . S
N328 H341 0.985 . S
N329 C331 1.356 . S
N329 H334 0.984 . S
N329 H335 0.985 . S
C330 C324 1.379 . S
C330 C327 1.363 . S
C330 N328 1.356 . S
C331 C325 1.363 . S
C331 C326 1.379 . S
C331 N329 1.356 . S
N332 C324 1.356 . S
N332 H338 0.984 . S
N332 H339 0.984 . S
N333 C326 1.356 . S
N333 H336 0.984 . S
N333 H337 0.985 . S
H334 N329 0.984 . S
H335 N329 0.985 . S
H336 N333 0.984 . S
H337 N333 0.985 . S
H338 N332 0.984 . S
H339 N332 0.984 . S
H340 N328 0.984 . S
H341 N328 0.985 . S
C342 C343 1.363 . S
C342 C348 1.379 . S
C342 N350 1.356 . S
C343 C342 1.363 . S
C343 C349 1.363 . S
C344 C345 1.363 . S
C344 C349 1.379 . S
C344 N351 1.356 . S
C345 C344 1.363 . S
C345 C348 1.363 . S
N346 C348 1.356 . S
N346 H358 0.984 . S
N346 H359 0.985 . S
N347 C349 1.356 . S
N347 H352 0.984 . S
N347 H353 0.985 . S
C348 C342 1.379 . S
C348 C345 1.363 . S
C348 N346 1.356 . S
C349 C343 1.363 . S
C349 C344 1.379 . S
C349 N347 1.356 . S
N350 C342 1.356 . S
N350 H356 0.984 . S
N350 H357 0.984 . S
N351 C344 1.356 . S
N351 H354 0.984 . S
N351 H355 0.985 . S
H352 N347 0.984 . S
H353 N347 0.985 . S
H354 N351 0.984 . S
H355 N351 0.985 . S
H356 N350 0.984 . S
H357 N350 0.984 . S
H358 N346 0.984 . S
H359 N346 0.985 . S
C360 C361 1.363 1_665 S
C360 C366 1.379 . S
C360 N368 1.356 . S
C361 C360 1.363 1_445 S
C361 C367 1.363 . S
C362 C363 1.363 . S
C362 C367 1.379 . S
C362 N369 1.356 . S
C363 C362 1.363 . S
C363 C366 1.363 1_445 S
N364 C366 1.356 . S
N364 H376 0.984 . S
N364 H377 0.985 . S
N365 C367 1.356 . S
N365 H370 0.984 . S
N365 H371 0.985 . S
C366 C360 1.379 . S
C366 C363 1.363 1_665 S
C366 N364 1.356 . S
C367 C361 1.363 . S
C367 C362 1.379 . S
C367 N365 1.356 . S
N368 C360 1.356 . S
N368 H374 0.984 . S
N368 H375 0.984 . S
N369 C362 1.356 . S
N369 H372 0.984 . S
N369 H373 0.985 . S
H370 N365 0.984 . S
H371 N365 0.985 . S
H372 N369 0.984 . S
H373 N369 0.985 . S
H374 N368 0.984 . S
H375 N368 0.984 . S
H376 N364 0.984 . S
H377 N364 0.985 . S
C378 C379 1.363 1_565 S
C378 C384 1.379 . S
C378 N386 1.356 . S
C379 C378 1.363 1_545 S
C379 C385 1.363 1_455 S
C380 C381 1.363 1_655 S
C380 C385 1.379 . S
C380 N387 1.356 . S
C381 C380 1.363 1_455 S
C381 C384 1.363 1_545 S
N382 C384 1.356 . S
N382 H394 0.984 . S
N382 H395 0.985 . S
N383 C385 1.356 . S
N383 H388 0.984 . S
N383 H389 0.985 . S
C384 C378 1.379 . S
C384 C381 1.363 1_565 S
C384 N382 1.356 . S
C385 C379 1.363 1_655 S
C385 C380 1.379 . S
C385 N383 1.356 . S
N386 C378 1.356 . S
N386 H392 0.984 . S
N386 H393 0.984 . S
N387 C380 1.356 . S
N387 H390 0.984 . S
N387 H391 0.985 . S
H388 N383 0.984 . S
H389 N383 0.985 . S
H390 N387 0.984 . S
H391 N387 0.985 . S
H392 N386 0.984 . S
H393 N386 0.984 . S
H394 N382 0.984 . S
H395 N382 0.985 . S
C396 C397 1.363 . S
C396 C402 1.379 . S
C396 N404 1.356 . S
C397 C396 1.363 . S
C397 C403 1.363 . S
C398 C399 1.363 . S
C398 C403 1.379 . S
C398 N405 1.356 . S
C399 C398 1.363 . S
C399 C402 1.363 . S
N400 C402 1.356 . S
N400 H412 0.984 . S
N400 H413 0.985 . S
N401 C403 1.356 . S
N401 H406 0.984 . S
N401 H407 0.985 . S
C402 C396 1.379 . S
C402 C399 1.363 . S
C402 N400 1.356 . S
C403 C397 1.363 . S
C403 C398 1.379 . S
C403 N401 1.356 . S
N404 C396 1.356 . S
N404 H410 0.984 . S
N404 H411 0.984 . S
N405 C398 1.356 . S
N405 H408 0.984 . S
N405 H409 0.985 . S
H406 N401 0.984 . S
H407 N401 0.985 . S
H408 N405 0.984 . S
H409 N405 0.985 . S
H410 N404 0.984 . S
H411 N404 0.984 . S
H412 N400 0.984 . S
H413 N400 0.985 . S
C414 C415 1.363 . S
C414 C420 1.379 . S
C414 N422 1.356 . S
C415 C414 1.363 . S
C415 C421 1.363 . S
C416 C417 1.363 . S
C416 C421 1.379 . S
C416 N423 1.356 . S
C417 C416 1.363 . S
C417 C420 1.363 . S
N418 C420 1.356 . S
N418 H430 0.984 . S
N418 H431 0.985 . S
N419 C421 1.356 . S
N419 H424 0.984 . S
N419 H425 0.985 . S
C420 C414 1.379 . S
C420 C417 1.363 . S
C420 N418 1.356 . S
C421 C415 1.363 . S
C421 C416 1.379 . S
C421 N419 1.356 . S
N422 C414 1.356 . S
N422 H428 0.984 . S
N422 H429 0.984 . S
N423 C416 1.356 . S
N423 H426 0.984 . S
N423 H427 0.985 . S
H424 N419 0.984 . S
H425 N419 0.985 . S
H426 N423 0.984 . S
H427 N423 0.985 . S
H428 N422 0.984 . S
H429 N422 0.984 . S
H430 N418 0.984 . S
H431 N418 0.985 . S
C219 C193 1.526 . S
C217 C27 1.592 . S
C235 N6 1.493 . S
C237 C154 1.474 . S
C253 C16 1.569 . S
C255 C198 1.514 . S
C271 N14 1.472 . S
C273 C159 1.467 . S
C289 C57 1.592 . S
C291 C115 1.526 . S
C307 N36 1.493 . S
C309 C76 1.475 . S
C327 C120 1.514 . S
C325 C46 1.569 . S
C345 C81 1.467 . S
C343 N44 1.471 . S
C361 C10 1.394 . S
C363 C61 1.399 . S
C379 C1 1.536 . S
C381 C100 1.541 . S
C399 C139 1.398 . S
C397 C40 1.394 . S
C415 C31 1.536 . S
C417 C178 1.541 . S
