# Generated by pormake.
# Topology zzz, (3,6)-cn, num edge types: 1
# Building blocks:
#     Node 0, Type 0, BuildingBlock: CUQRIR_clean_linker_1, # of connection points: 3
#     Node 1, Type 0, BuildingBlock: CUQRIR_clean_linker_1, # of connection points: 3
#     Node 2, Type 0, BuildingBlock: CUQRIR_clean_linker_1, # of connection points: 3
#     Node 3, Type 0, BuildingBlock: CUQRIR_clean_linker_1, # of connection points: 3
#     Node 4, Type 0, BuildingBlock: CUQRIR_clean_linker_1, # of connection points: 3
#     Node 5, Type 0, BuildingBlock: CUQRIR_clean_linker_1, # of connection points: 3
#     Node 6, Type 0, BuildingBlock: CUQRIR_clean_linker_1, # of connection points: 3
#     Node 7, Type 0, BuildingBlock: CUQRIR_clean_linker_1, # of connection points: 3
#     Node 8, Type 1, BuildingBlock: CUKXOW_clean_sbu_0, # of connection points: 6
#     Node 9, Type 1, BuildingBlock: CUKXOW_clean_sbu_0, # of connection points: 6
#     Node 10, Type 1, BuildingBlock: CUKXOW_clean_sbu_0, # of connection points: 6
#     Node 11, Type 1, BuildingBlock: CUKXOW_clean_sbu_0, # of connection points: 6
#     Edge 12, Type (0, 1), BuildingBlock: TEMPAE_clean_linker_10, # of connection points: 2
#     Edge 13, Type (0, 1), BuildingBlock: TEMPAE_clean_linker_10, # of connection points: 2
#     Edge 14, Type (0, 1), BuildingBlock: TEMPAE_clean_linker_10, # of connection points: 2
#     Edge 15, Type (0, 1), BuildingBlock: TEMPAE_clean_linker_10, # of connection points: 2
#     Edge 16, Type (0, 1), BuildingBlock: TEMPAE_clean_linker_10, # of connection points: 2
#     Edge 17, Type (0, 1), BuildingBlock: TEMPAE_clean_linker_10, # of connection points: 2
#     Edge 18, Type (0, 1), BuildingBlock: TEMPAE_clean_linker_10, # of connection points: 2
#     Edge 19, Type (0, 1), BuildingBlock: TEMPAE_clean_linker_10, # of connection points: 2
#     Edge 20, Type (0, 1), BuildingBlock: TEMPAE_clean_linker_10, # of connection points: 2
#     Edge 21, Type (0, 1), BuildingBlock: TEMPAE_clean_linker_10, # of connection points: 2
#     Edge 22, Type (0, 1), BuildingBlock: TEMPAE_clean_linker_10, # of connection points: 2
#     Edge 23, Type (0, 1), BuildingBlock: TEMPAE_clean_linker_10, # of connection points: 2
#     Edge 24, Type (0, 1), BuildingBlock: TEMPAE_clean_linker_10, # of connection points: 2
#     Edge 25, Type (0, 1), BuildingBlock: TEMPAE_clean_linker_10, # of connection points: 2
#     Edge 26, Type (0, 1), BuildingBlock: TEMPAE_clean_linker_10, # of connection points: 2
#     Edge 27, Type (0, 1), BuildingBlock: TEMPAE_clean_linker_10, # of connection points: 2
#     Edge 28, Type (0, 1), BuildingBlock: TEMPAE_clean_linker_10, # of connection points: 2
#     Edge 29, Type (0, 1), BuildingBlock: TEMPAE_clean_linker_10, # of connection points: 2
#     Edge 30, Type (0, 1), BuildingBlock: TEMPAE_clean_linker_10, # of connection points: 2
#     Edge 31, Type (0, 1), BuildingBlock: TEMPAE_clean_linker_10, # of connection points: 2
#     Edge 32, Type (0, 1), BuildingBlock: TEMPAE_clean_linker_10, # of connection points: 2
#     Edge 33, Type (0, 1), BuildingBlock: TEMPAE_clean_linker_10, # of connection points: 2
#     Edge 34, Type (0, 1), BuildingBlock: TEMPAE_clean_linker_10, # of connection points: 2
#     Edge 35, Type (0, 1), BuildingBlock: TEMPAE_clean_linker_10, # of connection points: 2
# Relax obj value: 0.065
# Max RMSD: 0.109
# Mean RMSD: 0.083
data_MOF--net-zzz--node1-CUKXOW_clean_sbu_0--node2-CUQRIR_clean_linker_1--edge1-TEMPAE_clean_linker_10
_symmetry_space_group_name_H-M    P1
_symmetry_Int_Tables_number       1
_symmetry_cell_setting            triclinic
loop_
_symmetry_equiv_pos_as_xyz
'x, y, z'
_cell_length_a     48.039974
_cell_length_b     50.043426
_cell_length_c     14.275794
_cell_angle_alpha  93.511119
_cell_angle_beta   86.399947
_cell_angle_gamma 93.597706
loop_
_atom_site_label
_atom_site_type_symbol
_atom_site_fract_x
_atom_site_fract_y
_atom_site_fract_z
_atom_type_partial_charge
C0 C 0.7457 0.53398 0.15145 0.0
N1 N 0.77397 0.53601 0.15119 0.0
N2 N 0.73737 0.53298 0.06237 0.0
C3 C 0.72625 0.53144 0.23742 0.0
C4 C 0.76144 0.53464 0.00809 0.0
N5 N 0.78365 0.5365 0.06189 0.0
C6 C 0.7633 0.53157 0.90229 0.0
H7 H 0.72104 0.50987 0.24778 0.0
H8 H 0.70649 0.54106 0.22841 0.0
H9 H 0.73606 0.54069 0.30084 0.0
H10 H 0.77973 0.54574 0.87278 0.0
H11 H 0.74315 0.53522 0.87279 0.0
H12 H 0.7691 0.51092 0.88006 0.0
C13 C 0.94832 0.7539 0.04835 0.0
N14 N 0.94797 0.78092 0.04961 0.0
N15 N 0.95044 0.74337 0.9587 0.0
C16 C 0.94927 0.73798 0.13401 0.0
C17 C 0.95122 0.76498 0.90568 0.0
N18 N 0.94966 0.78778 0.96087 0.0
C19 C 0.9565 0.76407 0.80059 0.0
H20 H 0.97119 0.73322 0.14242 0.0
H21 H 0.93664 0.71878 0.1258 0.0
H22 H 0.94135 0.74934 0.19835 0.0
H23 H 0.94374 0.77859 0.76955 0.0
H24 H 0.95155 0.74369 0.76863 0.0
H25 H 0.97882 0.76991 0.78348 0.0
C26 C 0.74319 0.9636 0.14427 0.0
N27 N 0.71502 0.96438 0.14739 0.0
N28 N 0.75378 0.96253 0.05396 0.0
C29 C 0.76058 0.96625 0.2286 0.0
C30 C 0.731 0.96249 0.00266 0.0
N31 N 0.7075 0.96369 0.05927 0.0
C32 C 0.73195 0.96446 0.89769 0.0
H33 H 0.7683 0.9875 0.23988 0.0
H34 H 0.779 0.95393 0.21677 0.0
H35 H 0.74819 0.95999 0.29261 0.0
H36 H 0.75208 0.95801 0.86404 0.0
H37 H 0.7293 0.98555 0.8817 0.0
H38 H 0.71457 0.95184 0.86732 0.0
C39 C 0.57334 0.76165 0.1596 0.0
N40 N 0.57003 0.73474 0.14444 0.0
N41 N 0.57543 0.77376 0.07693 0.0
C42 C 0.5713 0.77618 0.25478 0.0
C43 C 0.57294 0.75322 0.01116 0.0
N44 N 0.5695 0.72949 0.05215 0.0
C45 C 0.57181 0.75669 0.90754 0.0
H46 H 0.54918 0.77501 0.2825 0.0
H47 H 0.57869 0.79757 0.251 0.0
H48 H 0.58376 0.76646 0.30443 0.0
H49 H 0.58708 0.77293 0.88499 0.0
H50 H 0.55066 0.76255 0.8932 0.0
H51 H 0.57633 0.7379 0.86558 0.0
C52 C 0.26898 0.50133 0.21567 0.0
N53 N 0.24083 0.49896 0.21256 0.0
N54 N 0.27637 0.50074 0.30567 0.0
C55 C 0.28881 0.50681 0.1326 0.0
C56 C 0.25179 0.49782 0.35656 0.0
N57 N 0.23028 0.49685 0.30018 0.0
C58 C 0.24875 0.49624 0.46167 0.0
H59 H 0.30974 0.51439 0.15454 0.0
H60 H 0.28025 0.52158 0.08887 0.0
H61 H 0.29097 0.48793 0.08852 0.0
H62 H 0.24676 0.51672 0.49483 0.0
H63 H 0.26732 0.4877 0.4882 0.0
H64 H 0.22967 0.48382 0.48248 0.0
C65 C 0.05112 0.25426 0.31816 0.0
N66 N 0.05105 0.2272 0.31639 0.0
N67 N 0.0499 0.26469 0.40807 0.0
C68 C 0.04973 0.27031 0.233 0.0
C69 C 0.04925 0.24298 0.4606 0.0
N70 N 0.04995 0.22021 0.40492 0.0
C71 C 0.04526 0.24381 0.56611 0.0
H72 H 0.06333 0.28896 0.23899 0.0
H73 H 0.02796 0.27609 0.22828 0.0
H74 H 0.05627 0.25869 0.16753 0.0
H75 H 0.02305 0.23828 0.58624 0.0
H76 H 0.05093 0.26407 0.59776 0.0
H77 H 0.0582 0.22904 0.59493 0.0
C78 C 0.26333 0.03347 0.26149 0.0
N79 N 0.29146 0.0343 0.26516 0.0
N80 N 0.25094 0.034 0.34959 0.0
C81 C 0.24797 0.02931 0.17274 0.0
C82 C 0.27256 0.03531 0.40645 0.0
N83 N 0.2971 0.03544 0.35523 0.0
C84 C 0.26982 0.03655 0.51216 0.0
H85 H 0.24206 0.04907 0.15167 0.0
H86 H 0.22854 0.01645 0.18436 0.0
H87 H 0.26121 0.0201 0.11457 0.0
H88 H 0.26945 0.01592 0.53675 0.0
H89 H 0.25022 0.04577 0.53869 0.0
H90 H 0.28797 0.04822 0.54175 0.0
C91 C 0.44042 0.26201 0.22584 0.0
N92 N 0.44345 0.28897 0.24041 0.0
N93 N 0.43836 0.25007 0.30885 0.0
C94 C 0.44251 0.24733 0.13096 0.0
C95 C 0.44055 0.27076 0.3742 0.0
N96 N 0.44382 0.2944 0.33263 0.0
C97 C 0.44162 0.26755 0.47807 0.0
H98 H 0.43001 0.2569 0.08105 0.0
H99 H 0.4352 0.22593 0.13521 0.0
H100 H 0.46463 0.24854 0.10324 0.0
H101 H 0.46256 0.26113 0.4925 0.0
H102 H 0.42591 0.2518 0.50143 0.0
H103 H 0.43765 0.28656 0.51949 0.0
Tb104 Tb 0.99278 0.98245 0.60453 0.0
C105 C 0.05415 0.00731 0.61502 0.0
Tb106 Tb 0.00566 0.02585 0.76132 0.0
O107 O 0.99526 0.01222 0.49817 0.0
O108 O 0.98386 0.02305 0.6372 0.0
O109 O 0.03826 0.98562 0.59024 0.0
C110 C 0.01743 0.07118 0.86321 0.0
O111 O 0.04523 0.02625 0.67701 0.0
C112 C 0.00765 0.97612 0.80738 0.0
C113 C 0.94449 0.00053 0.75227 0.0
O114 O 0.00649 0.04906 0.89572 0.0
O115 O 0.02214 0.06779 0.77296 0.0
O116 O 0.00313 0.99601 0.86771 0.0
O117 O 0.01447 0.9853 0.72873 0.0
O118 O 0.96023 0.02229 0.77722 0.0
O119 O 0.95332 0.9818 0.68933 0.0
C120 C 0.98091 0.93721 0.50236 0.0
O121 O 0.99222 0.95922 0.47015 0.0
O122 O 0.97591 0.94064 0.59248 0.0
C123 C 0.99067 0.03213 0.55834 0.0
Tb124 Tb 0.50704 0.04433 0.6769 0.0
C125 C 0.55552 0.00857 0.59913 0.0
Tb126 Tb 0.50929 0.98767 0.75236 0.0
O127 O 0.54649 0.05755 0.73798 0.0
O128 O 0.51967 0.02779 0.79782 0.0
O129 O 0.54026 0.02879 0.58155 0.0
C130 C 0.52478 0.94459 0.83175 0.0
O131 O 0.54851 0.99204 0.66726 0.0
C132 C 0.4738 0.99246 0.62217 0.0
C133 C 0.46348 0.024 0.84289 0.0
O134 O 0.51572 0.94468 0.7479 0.0
O135 O 0.52479 0.96865 0.871 0.0
O136 O 0.46993 0.97528 0.68713 0.0
O137 O 0.49739 0.00441 0.62998 0.0
O138 O 0.47686 0.00199 0.85088 0.0
O139 O 0.47088 0.04212 0.77976 0.0
C140 C 0.48973 0.08478 0.5872 0.0
O141 O 0.50332 0.08726 0.66348 0.0
O142 O 0.48602 0.05957 0.56137 0.0
C143 C 0.5434 0.0399 0.80189 0.0
Tb144 Tb 0.5191 0.52997 0.61422 0.0
C145 C 0.45257 0.52123 0.64242 0.0
Tb146 Tb 0.49257 0.49422 0.77179 0.0
O147 O 0.52727 0.49465 0.51836 0.0
O148 O 0.49579 0.4934 0.62425 0.0
O149 O 0.47446 0.53605 0.6085 0.0
C150 C 0.47959 0.44933 0.8598 0.0
O151 O 0.45514 0.50166 0.70001 0.0
C152 C 0.50262 0.54509 0.82144 0.0
C153 C 0.55916 0.50309 0.74352 0.0
O154 O 0.46941 0.47244 0.88369 0.0
O155 O 0.49721 0.45171 0.78789 0.0
O156 O 0.48437 0.52966 0.86739 0.0
O157 O 0.51584 0.53073 0.76163 0.0
O158 O 0.5373 0.4884 0.77846 0.0
O159 O 0.55656 0.52249 0.68532 0.0
C160 C 0.53216 0.57474 0.52575 0.0
O161 O 0.54222 0.55158 0.50194 0.0
O162 O 0.51462 0.57249 0.59788 0.0
C163 C 0.50908 0.47916 0.5642 0.0
Tb164 Tb 0.98098 0.50527 0.6155 0.0
C165 C 0.00825 0.4514 0.63746 0.0
Tb166 Tb 0.02966 0.50448 0.7507 0.0
O167 O 0.00921 0.50349 0.48819 0.0
O168 O 0.02356 0.51785 0.61696 0.0
O169 O 0.98456 0.46237 0.62258 0.0
C170 C 0.07919 0.50173 0.82277 0.0
O171 O 0.02953 0.46496 0.67692 0.0
C172 C 0.97925 0.50103 0.8299 0.0
C173 C 0.00102 0.55868 0.73287 0.0
O174 O 0.05668 0.48731 0.84603 0.0
O175 O 0.07375 0.518 0.75984 0.0
O176 O 0.00102 0.51032 0.87399 0.0
O177 O 0.98697 0.49151 0.74945 0.0
O178 O 0.02254 0.54707 0.76403 0.0
O179 O 0.98253 0.54617 0.6774 0.0
C180 C 0.93135 0.509 0.54437 0.0
O181 O 0.93872 0.51994 0.62441 0.0
O182 O 0.9519 0.49605 0.50461 0.0
C183 C 0.03118 0.51018 0.53451 0.0
C184 C 0.2019 0.04566 0.35003 0.0
C185 C 0.2219 0.02899 0.37703 0.0
C186 C 0.1738 0.04193 0.38259 0.0
C187 C 0.16588 0.02124 0.44414 0.0
C188 C 0.186 0.00389 0.46911 0.0
C189 C 0.21372 0.00782 0.43425 0.0
C190 C 0.15277 0.0605 0.35324 0.0
C191 C 0.17845 0.98171 0.53499 0.0
C192 C 0.10255 0.02861 0.61365 0.0
C193 C 0.08281 0.01057 0.57203 0.0
C194 C 0.1296 0.03248 0.57209 0.0
C195 C 0.13689 0.0183 0.48609 0.0
C196 C 0.11693 0.0004 0.44291 0.0
C197 C 0.09016 0.99656 0.48687 0.0
C198 C 0.1505 0.05143 0.62095 0.0
C199 C 0.12387 0.98528 0.35043 0.0
H200 H 0.20843 0.06194 0.30544 0.0
H201 H 0.22926 0.99462 0.45294 0.0
H202 H 0.13455 0.04872 0.32462 0.0
H203 H 0.14486 0.07281 0.41537 0.0
H204 H 0.16185 0.07417 0.29939 0.0
H205 H 0.19653 0.96967 0.54575 0.0
H206 H 0.17062 0.99041 0.60433 0.0
H207 H 0.16142 0.9681 0.5071 0.0
H208 H 0.09697 0.03952 0.67939 0.0
H209 H 0.07483 0.98291 0.45362 0.0
H210 H 0.15852 0.0673 0.5736 0.0
H211 H 0.16866 0.04036 0.63812 0.0
H212 H 0.14139 0.06116 0.68691 0.0
H213 H 0.13158 -0.00047 0.29676 0.0
H214 H 0.10556 0.9731 0.3239 0.0
H215 H 0.14086 0.97173 0.35858 0.0
C216 C 0.46823 0.21206 0.30077 0.0
C217 C 0.44228 0.22257 0.32468 0.0
C218 C 0.47462 0.18738 0.33286 0.0
C219 C 0.45453 0.1731 0.39053 0.0
C220 C 0.42755 0.18281 0.40912 0.0
C221 C 0.42177 0.20757 0.37588 0.0
C222 C 0.50354 0.17762 0.31082 0.0
C223 C 0.40551 0.16808 0.46972 0.0
C224 C 0.46821 0.10228 0.45039 0.0
C225 C 0.4802 0.1071 0.53732 0.0
C226 C 0.45973 0.12356 0.40126 0.0
C227 C 0.46292 0.15009 0.44111 0.0
C228 C 0.47466 0.15493 0.52961 0.0
C229 C 0.48329 0.13336 0.57641 0.0
C230 C 0.44763 0.11771 0.30662 0.0
C231 C 0.47829 0.18296 0.57464 0.0
H232 H 0.48404 0.22399 0.26169 0.0
H233 H 0.40174 0.21596 0.39392 0.0
H234 H 0.51546 0.17992 0.37522 0.0
H235 H 0.50241 0.15602 0.28787 0.0
H236 H 0.51528 0.18902 0.25514 0.0
H237 H 0.3847 0.17647 0.46769 0.0
H238 H 0.40374 0.14648 0.44687 0.0
H239 H 0.41162 0.16954 0.54363 0.0
H240 H 0.46577 0.08191 0.42024 0.0
H241 H 0.49247 0.13706 0.64381 0.0
H242 H 0.45943 0.12974 0.25291 0.0
H243 H 0.42569 0.12359 0.30998 0.0
H244 H 0.44808 0.09618 0.28312 0.0
H245 H 0.49229 0.19565 0.52852 0.0
H246 H 0.48725 0.18321 0.6446 0.0
H247 H 0.45785 0.19225 0.58324 0.0
C248 C 0.30655 0.52928 0.40667 0.0
C249 C 0.30313 0.50711 0.34299 0.0
C250 C 0.33087 0.53371 0.45565 0.0
C251 C 0.35237 0.51565 0.43917 0.0
C252 C 0.34957 0.49393 0.37113 0.0
C253 C 0.32477 0.48986 0.32384 0.0
C254 C 0.33304 0.557 0.52777 0.0
C255 C 0.37229 0.4745 0.3509 0.0
C256 C 0.42474 0.53696 0.51689 0.0
C257 C 0.42571 0.52279 0.59848 0.0
C258 C 0.40089 0.53503 0.46475 0.0
C259 C 0.3773 0.51892 0.49579 0.0
C260 C 0.3776 0.50563 0.58045 0.0
C261 C 0.40189 0.50761 0.63062 0.0
C262 C 0.40133 0.54937 0.37452 0.0
C263 C 0.35255 0.48867 0.61653 0.0
H264 H 0.28963 0.5426 0.42025 0.0
H265 H 0.32178 0.47271 0.27459 0.0
H266 H 0.33404 0.54936 0.59875 0.0
H267 H 0.35252 0.56955 0.51354 0.0
H268 H 0.31498 0.56987 0.52872 0.0
H269 H 0.36765 0.45983 0.29151 0.0
H270 H 0.39256 0.48554 0.334 0.0
H271 H 0.37479 0.46331 0.41427 0.0
H272 H 0.44305 0.54868 0.4911 0.0
H273 H 0.40244 0.49668 0.69365 0.0
H274 H 0.38335 0.56227 0.37567 0.0
H275 H 0.39925 0.53445 0.3142 0.0
H276 H 0.42091 0.56202 0.36225 0.0
H277 H 0.3337 0.50055 0.62273 0.0
H278 H 0.35562 0.48088 0.68613 0.0
H279 H 0.34836 0.4714 0.56587 0.0
C280 C 0.06131 0.31329 0.41882 0.0
C281 C 0.04303 0.29136 0.43981 0.0
C282 C 0.0546 0.33941 0.44904 0.0
C283 C 0.02942 0.34338 0.50386 0.0
C284 C 0.011 0.32116 0.52574 0.0
C285 C 0.01786 0.29541 0.49204 0.0
C286 C 0.07446 0.36272 0.42275 0.0
C287 C 0.98431 0.32454 0.58589 0.0
C288 C 0.02787 0.40758 0.65802 0.0
C289 C 0.01165 0.42317 0.6072 0.0
C290 C 0.03317 0.38125 0.62639 0.0
C291 C 0.0227 0.3707 0.54043 0.0
C292 C 0.00615 0.38635 0.48907 0.0
C293 C 0.00046 0.41237 0.52395 0.0
C294 C 0.05019 0.36484 0.6844 0.0
C295 C 0.99526 0.37595 0.39595 0.0
H296 H 0.08088 0.3099 0.37925 0.0
H297 H 0.00368 0.2783 0.50693 0.0
H298 H 0.0632 0.37768 0.38789 0.0
H299 H 0.0829 0.37293 0.48701 0.0
H300 H 0.09225 0.35632 0.37489 0.0
H301 H 0.97252 0.30509 0.59748 0.0
H302 H 0.98916 0.33437 0.65525 0.0
H303 H 0.97065 0.33776 0.55235 0.0
H304 H 0.03642 0.416 0.72267 0.0
H305 H 0.98824 0.42466 0.48414 0.0
H306 H 0.07 0.36005 0.64457 0.0
H307 H 0.03861 0.34552 0.69911 0.0
H308 H 0.05532 0.37548 0.75231 0.0
H309 H 0.01304 0.37125 0.34545 0.0
H310 H 0.98258 0.39063 0.36511 0.0
H311 H 0.98225 0.35707 0.40462 0.0
C312 C 0.78851 0.99293 0.97608 0.0
C313 C 0.7821 0.96908 0.02122 0.0
C314 C 0.81524 0.99866 0.93492 0.0
C315 C 0.83622 0.98037 0.9415 0.0
C316 C 0.83017 0.95677 0.99094 0.0
C317 C 0.80294 0.95126 0.02955 0.0
C318 C 0.82073 0.02381 0.88168 0.0
C319 C 0.85223 0.93711 0.00106 0.0
C320 C 0.89567 0.98043 0.75387 0.0
C321 C 0.91641 0.99646 0.79861 0.0
C322 C 0.86941 0.9751 0.79962 0.0
C323 C 0.86411 0.9855 0.89308 0.0
C324 C 0.88509 0.00148 0.93892 0.0
C325 C 0.91093 0.00704 0.89064 0.0
C326 C 0.84729 0.95847 0.74777 0.0
C327 C 0.88037 0.0124 0.03926 0.0
H328 H 0.77224 0.00673 0.97101 0.0
H329 H 0.79771 0.93282 0.0644 0.0
H330 H 0.83844 0.03626 0.91072 0.0
H331 H 0.82672 0.01838 0.80691 0.0
H332 H 0.8022 0.03612 0.88457 0.0
H333 H 0.84477 0.92097 0.04821 0.0
H334 H 0.8585 0.92775 0.9311 0.0
H335 H 0.87119 0.94769 0.02931 0.0
H336 H 0.89991 0.97219 0.68275 0.0
H337 H 0.92715 0.01903 0.926 0.0
H338 H 0.82843 0.97005 0.74498 0.0
H339 H 0.8409 0.9402 0.78582 0.0
H340 H 0.85464 0.95227 0.67478 0.0
H341 H 0.86273 0.02579 0.04488 0.0
H342 H 0.89915 0.02381 0.06565 0.0
H343 H 0.87458 0.99568 0.08567 0.0
C344 C 0.54523 0.81146 0.08473 0.0
C345 C 0.5714 0.80131 0.06228 0.0
C346 C 0.5391 0.83659 0.05587 0.0
C347 C 0.55977 0.85177 0.0034 0.0
C348 C 0.58686 0.84223 0.98572 0.0
C349 C 0.59231 0.81692 0.01514 0.0
C350 C 0.50999 0.84605 0.07619 0.0
C351 C 0.60952 0.858 0.93103 0.0
C352 C 0.53266 0.89585 0.82692 0.0
C353 C 0.53418 0.92104 0.87507 0.0
C354 C 0.54133 0.87321 0.86764 0.0
C355 C 0.552 0.87598 0.95828 0.0
C356 C 0.55406 0.90153 0.00648 0.0
C357 C 0.54485 0.92374 0.96447 0.0
C358 C 0.53869 0.84626 0.81419 0.0
C359 C 0.56579 0.90535 0.10239 0.0
H360 H 0.52914 0.79902 0.12056 0.0
H361 H 0.61249 0.80874 0.99804 0.0
H362 H 0.51088 0.86697 0.10682 0.0
H363 H 0.49924 0.84588 0.00956 0.0
H364 H 0.49727 0.83315 0.12534 0.0
H365 H 0.63023 0.84943 0.93338 0.0
H366 H 0.60424 0.85803 0.85649 0.0
H367 H 0.6111 0.8792 0.9589 0.0
H368 H 0.52445 0.89378 0.75766 0.0
H369 H 0.54603 0.94326 0.00157 0.0
H370 H 0.52446 0.83228 0.85474 0.0
H371 H 0.55934 0.83738 0.8051 0.0
H372 H 0.53048 0.84764 0.74371 0.0
H373 H 0.55316 0.89288 0.1529 0.0
H374 H 0.56617 0.9266 0.13003 0.0
H375 H 0.58741 0.89858 0.099 0.0
C376 C 0.70593 0.50054 0.98028 0.0
C377 C 0.71022 0.5252 0.03046 0.0
C378 C 0.68118 0.49422 0.93493 0.0
C379 C 0.66018 0.51294 0.94151 0.0
C380 C 0.66386 0.53731 0.99665 0.0
C381 C 0.68908 0.54324 0.04009 0.0
C382 C 0.67813 0.46817 0.87621 0.0
C383 C 0.64168 0.55755 0.00647 0.0
C384 C 0.61039 0.51459 0.74687 0.0
C385 C 0.5861 0.50186 0.78694 0.0
C386 C 0.635 0.51749 0.79527 0.0
C387 C 0.63509 0.50777 0.88633 0.0
C388 C 0.61099 0.49397 0.9256 0.0
C389 C 0.58682 0.49096 0.87501 0.0
C390 C 0.66058 0.53182 0.75039 0.0
C391 C 0.61029 0.48358 0.02291 0.0
H392 H 0.72257 0.48677 0.97346 0.0
H393 H 0.69279 0.56235 0.07857 0.0
H394 H 0.65819 0.45703 0.89637 0.0
H395 H 0.67753 0.47247 0.80104 0.0
H396 H 0.69562 0.45508 0.88358 0.0
H397 H 0.6468 0.57436 0.05821 0.0
H398 H 0.63936 0.56594 0.93742 0.0
H399 H 0.62118 0.54773 0.02875 0.0
H400 H 0.60997 0.52296 0.67873 0.0
H401 H 0.56808 0.48126 0.90692 0.0
H402 H 0.67893 0.51946 0.75134 0.0
H403 H 0.66546 0.55093 0.79125 0.0
H404 H 0.65768 0.53638 0.67656 0.0
H405 H 0.5905 0.47179 0.04081 0.0
H406 H 0.61258 0.5007 0.07559 0.0
H407 H 0.62803 0.47077 0.02908 0.0
C408 C 0.94035 0.69461 0.94442 0.0
C409 C 0.95854 0.71698 0.92847 0.0
C410 C 0.94819 0.66875 0.915 0.0
C411 C 0.97462 0.66552 0.86714 0.0
C412 C 0.99304 0.68817 0.85111 0.0
C413 C 0.98484 0.71365 0.88298 0.0
C414 C 0.92816 0.64497 0.93433 0.0
C415 C 0.02119 0.68553 0.79912 0.0
C416 C 0.00468 0.59701 0.8522 0.0
C417 C 0.99642 0.58671 0.76412 0.0
C418 C 0.99771 0.62271 0.88688 0.0
C419 C 0.98265 0.63852 0.83113 0.0
C420 C 0.97503 0.62849 0.74093 0.0
C421 C 0.98177 0.60256 0.70888 0.0
C422 C 0.00575 0.63265 0.98407 0.0
C423 C 0.95944 0.64501 0.67877 0.0
H424 H 0.91998 0.69748 0.9793 0.0
H425 H -0.00112 0.73113 0.87205 0.0
H426 H 0.92179 0.63486 0.86703 0.0
H427 H 0.93859 0.63009 0.97241 0.0
H428 H 0.90908 0.65083 0.97667 0.0
H429 H 0.03302 0.7052 0.79276 0.0
H430 H 0.03388 0.67215 0.83589 0.0
H431 H 0.0184 0.67623 0.72749 0.0
H432 H 0.01567 0.58461 0.89552 0.0
H433 H 0.97545 0.59463 0.64055 0.0
H434 H 0.98665 0.63663 0.02936 0.0
H435 H 0.0185 0.65186 0.98068 0.0
H436 H 0.01776 0.61801 0.01787 0.0
H437 H 0.93875 0.64937 0.71324 0.0
H438 H 0.95617 0.63468 0.60886 0.0
H439 H 0.97112 0.66454 0.66824 0.0
C440 C 0.05975 0.18009 0.48586 0.0
C441 C 0.04194 0.19376 0.4344 0.0
C442 C 0.05204 0.15408 0.51358 0.0
C443 C 0.02607 0.14165 0.48814 0.0
C444 C 0.00804 0.15558 0.4363 0.0
C445 C 0.01614 0.18161 0.41083 0.0
C446 C 0.07189 0.13962 0.5676 0.0
C447 C 0.98036 0.14291 0.40675 0.0
C448 C 0.01706 0.06591 0.4623 0.0
C449 C -0.00039 0.06016 0.54164 0.0
C450 C 0.02665 0.09226 0.44549 0.0
C451 C 0.01839 0.11343 0.5097 0.0
C452 C 0.00129 0.10764 0.59134 0.0
C453 C 0.9918 0.08101 0.60578 0.0
C454 C 0.04586 0.09669 0.35915 0.0
C455 C 0.9931 0.12953 0.66343 0.0
H456 H 0.07977 0.18969 0.50315 0.0
H457 H 0.00243 0.19256 0.37174 0.0
H458 H 0.06087 0.13147 0.63132 0.0
H459 H 0.07973 0.12238 0.52315 0.0
H460 H 0.09007 0.15289 0.5892 0.0
H461 H 0.98322 0.12285 0.37113 0.0
H462 H 0.96607 0.13998 0.46984 0.0
H463 H 0.9702 0.1554 0.35861 0.0
H464 H 0.02357 0.04974 0.41331 0.0
H465 H 0.97836 0.07648 0.66734 0.0
H466 H 0.06599 0.08767 0.36818 0.0
H467 H 0.05038 0.11806 0.34455 0.0
H468 H 0.03673 0.08608 0.29659 0.0
H469 H 0.01197 0.1417 0.68529 0.0
H470 H 0.98189 0.1214 0.72697 0.0
H471 H 0.97942 0.14319 0.63214 0.0
C472 C 0.34631 0.05049 0.37291 0.0
C473 C 0.32397 0.03176 0.38941 0.0
C474 C 0.3731 0.04595 0.40031 0.0
C475 C 0.37744 0.02187 0.44308 0.0
C476 C 0.35491 0.00264 0.4574 0.0
C477 C 0.32835 0.008 0.43128 0.0
C478 C 0.3964 0.06725 0.38655 0.0
C479 C 0.35873 0.97659 0.5019 0.0
C480 C 0.44885 0.99635 0.47571 0.0
C481 C 0.45108 0.00243 0.57197 0.0
C482 C 0.42556 0.00383 0.43044 0.0
C483 C 0.40447 0.01783 0.48316 0.0
C484 C 0.4077 0.02532 0.57892 0.0
C485 C 0.43081 0.01726 0.62179 0.0
C486 C 0.42279 0.99555 0.32799 0.0
C487 C 0.38599 0.04055 0.63792 0.0
H488 H 0.34266 0.06865 0.33909 0.0
H489 H 0.31099 0.99334 0.44117 0.0
H490 H 0.40118 0.07731 0.45562 0.0
H491 H 0.41575 0.0582 0.35672 0.0
H492 H 0.39075 0.0827 0.33959 0.0
H493 H 0.33964 0.96286 0.50053 0.0
H494 H 0.37633 0.9662 0.46484 0.0
H495 H 0.36399 0.98075 0.57616 0.0
H496 H 0.46471 0.98496 0.43687 0.0
H497 H 0.43256 0.02231 0.69494 0.0
H498 H 0.41637 0.01254 0.28954 0.0
H499 H 0.40627 0.97914 0.32161 0.0
H500 H 0.44258 0.98836 0.29387 0.0
H501 H 0.38021 0.05812 0.60124 0.0
H502 H 0.39339 0.04765 0.70787 0.0
H503 H 0.36679 0.02735 0.64915 0.0
C504 C 0.47497 0.32376 0.42953 0.0
C505 C 0.45133 0.32028 0.37657 0.0
C506 C 0.48387 0.34919 0.46672 0.0
C507 C 0.46925 0.37174 0.44764 0.0
C508 C 0.44494 0.36823 0.3958 0.0
C509 C 0.43622 0.34243 0.3611 0.0
C510 C 0.50906 0.35195 0.52552 0.0
C511 C 0.42815 0.39164 0.37673 0.0
C512 C 0.47833 0.43801 0.58825 0.0
C513 C 0.49971 0.45147 0.53486 0.0
C514 C 0.46916 0.41159 0.56332 0.0
C515 C 0.48004 0.39909 0.47865 0.0
C516 C 0.50088 0.41296 0.42225 0.0
C517 C 0.51098 0.43881 0.45229 0.0
C518 C 0.4481 0.39704 0.62818 0.0
C519 C 0.512 0.40072 0.32924 0.0
H520 H 0.48683 0.30658 0.44001 0.0
H521 H 0.41787 0.3395 0.32038 0.0
H522 H 0.52663 0.36279 0.48703 0.0
H523 H 0.5043 0.3639 0.59205 0.0
H524 H 0.51601 0.33217 0.54284 0.0
H525 H 0.4128 0.38619 0.32273 0.0
H526 H 0.4164 0.39849 0.44213 0.0
H527 H 0.44206 0.40885 0.3536 0.0
H528 H 0.46861 0.44814 0.64971 0.0
H529 H 0.52711 0.44937 0.4099 0.0
H530 H 0.45631 0.3779 0.64652 0.0
H531 H 0.42847 0.39193 0.59265 0.0
H532 H 0.4431 0.40915 0.69425 0.0
H533 H 0.5233 0.38266 0.34061 0.0
H534 H 0.52639 0.41493 0.29012 0.0
H535 H 0.49435 0.3942 0.28515 0.0
C536 C 0.19252 0.52088 0.38303 0.0
C537 C 0.20137 0.49821 0.33029 0.0
C538 C 0.16438 0.52298 0.41211 0.0
C539 C 0.14486 0.50161 0.38889 0.0
C540 C 0.15378 0.47863 0.33519 0.0
C541 C 0.18208 0.47735 0.30544 0.0
C542 C 0.15555 0.54795 0.46801 0.0
C543 C 0.13366 0.45514 0.31172 0.0
C544 C 0.07942 0.49659 0.54935 0.0
C545 C 0.06008 0.50787 0.49681 0.0
C546 C 0.10702 0.49403 0.51441 0.0
C547 C 0.11535 0.50302 0.42438 0.0
C548 C 0.09573 0.51411 0.37009 0.0
C549 C 0.06808 0.51602 0.40663 0.0
C550 C 0.12724 0.48184 0.57413 0.0
C551 C 0.10383 0.52389 0.27365 0.0
H552 H 0.20773 0.53707 0.40028 0.0
H553 H 0.18932 0.45996 0.26417 0.0
H554 H 0.13885 0.55706 0.43258 0.0
H555 H 0.14678 0.5427 0.53874 0.0
H556 H 0.1732 0.56316 0.47674 0.0
H557 H 0.1432 0.44032 0.26018 0.0
H558 H 0.12694 0.44488 0.37681 0.0
H559 H 0.11463 0.46206 0.2829 0.0
H560 H 0.07286 0.48904 0.61671 0.0
H561 H 0.05285 0.52435 0.3655 0.0
H562 H 0.14429 0.49693 0.59206 0.0
H563 H 0.13701 0.46476 0.53437 0.0
H564 H 0.11697 0.47462 0.64058 0.0
H565 H 0.12383 0.53625 0.27395 0.0
H566 H 0.08755 0.5359 0.24763 0.0
H567 H 0.10686 0.50639 0.22347 0.0
C568 C 0.93948 0.82765 0.87926 0.0
C569 C 0.95737 0.8143 0.93142 0.0
C570 C 0.94686 0.85373 0.8516 0.0
C571 C 0.97261 0.86653 0.87756 0.0
C572 C 0.99074 0.85289 0.93001 0.0
C573 C 0.98295 0.82681 0.95565 0.0
C574 C 0.92687 0.86788 0.79707 0.0
C575 C 0.01825 0.86592 0.95984 0.0
C576 C 0.00655 0.92726 0.7597 0.0
C577 C -0.0014 0.94809 0.82369 0.0
C578 C 0.99718 0.9006 0.77418 0.0
C579 C 0.97999 0.89477 0.85559 0.0
C580 C 0.97146 0.91594 0.91937 0.0
C581 C 0.98097 0.94231 0.90261 0.0
C582 C 0.00563 0.87872 0.70246 0.0
C583 C 0.95208 0.91147 0.00529 0.0
H584 H 0.91966 0.81774 0.86136 0.0
H585 H 0.99673 0.8161 0.9953 0.0
H586 H 0.91876 0.88505 0.84122 0.0
H587 H 0.93787 0.87609 0.73341 0.0
H588 H 0.90889 0.85437 0.7753 0.0
H589 H 0.02848 0.85365 0.00853 0.0
H590 H 0.0326 0.86886 0.89691 0.0
H591 H 0.01511 0.886 0.99491 0.0
H592 H 0.02007 0.93182 0.69835 0.0
H593 H 0.97432 0.95848 0.95136 0.0
H594 H 0.98689 0.86642 0.6803 0.0
H595 H 0.01935 0.86518 0.73422 0.0
H596 H 0.01691 0.88686 0.63905 0.0
H597 H 0.93199 0.92054 0.99594 0.0
H598 H 0.96112 0.92202 0.06812 0.0
H599 H 0.9475 0.89009 0.01965 0.0
C600 C 0.67511 -0.00057 0.05816 0.0
C601 C 0.68173 0.9731 0.03207 0.0
C602 C 0.65111 0.00983 0.02779 0.0
C603 C 0.63364 0.99352 0.96872 0.0
C604 C 0.63973 0.9665 0.945 0.0
C605 C 0.66386 0.95657 0.97716 0.0
C606 C 0.64507 0.03856 0.05596 0.0
C607 C 0.6212 0.94842 0.88364 0.0
C608 C 0.56175 0.01701 0.93243 0.0
C609 C 0.56665 0.02948 0.84746 0.0
C610 C 0.58332 0.00496 0.97283 0.0
C611 C 0.61025 0.0054 0.9264 0.0
C612 C 0.61521 0.01804 0.84033 0.0
C613 C 0.59337 0.03028 0.8025 0.0
C614 C 0.57731 0.9924 0.06596 0.0
C615 C 0.64353 0.01848 0.78783 0.0
H616 H 0.68923 0.01203 0.10051 0.0
H617 H 0.66913 0.93612 0.95831 0.0
H618 H 0.64737 0.05065 0.99302 0.0
H619 H 0.62323 0.03973 0.08539 0.0
H620 H 0.65934 0.04768 0.10897 0.0
H621 H 0.62727 0.9273 0.87942 0.0
H622 H 0.59912 0.94898 0.91105 0.0
H623 H 0.62238 0.95571 0.81156 0.0
H624 H 0.54101 0.01667 0.96722 0.0
H625 H 0.59699 0.03973 0.73611 0.0
H626 H 0.55456 0.98827 0.08151 0.0
H627 H 0.58517 0.00649 0.12249 0.0
H628 H 0.58804 0.97347 0.06818 0.0
H629 H 0.65932 0.02933 0.8318 0.0
H630 H 0.64358 0.02828 0.72004 0.0
H631 H 0.65012 0.99771 0.77315 0.0
C632 C 0.57659 0.68136 0.02335 0.0
C633 C 0.56178 0.7037 0.0078 0.0
C634 C 0.56755 0.65563 0.98882 0.0
C635 C 0.54323 0.65238 0.93698 0.0
C636 C 0.52893 0.67512 0.91767 0.0
C637 C 0.53814 0.70049 0.95472 0.0
C638 C 0.58402 0.63203 0.00812 0.0
C639 C 0.50375 0.67263 0.85885 0.0
C640 C 0.53361 0.58606 0.79699 0.0
C641 C 0.51211 0.57279 0.85044 0.0
C642 C 0.54296 0.61246 0.82159 0.0
C643 C 0.53213 0.62512 0.90606 0.0
C644 C 0.51115 0.61144 0.96249 0.0
C645 C 0.50087 0.58562 0.93274 0.0
C646 C 0.56416 0.6268 0.75666 0.0
C647 C 0.50007 0.62385 0.05528 0.0
H648 H 0.59494 0.68408 0.06413 0.0
H649 H 0.52649 0.71779 0.94419 0.0
H650 H 0.5699 0.61496 0.03119 0.0
H651 H 0.59575 0.62505 0.94283 0.0
H652 H 0.59938 0.63731 0.06225 0.0
H653 H 0.49712 0.6925 0.84115 0.0
H654 H 0.50834 0.66053 0.79253 0.0
H655 H 0.48602 0.66208 0.89752 0.0
H656 H 0.54331 0.5758 0.73575 0.0
H657 H 0.48465 0.57519 0.97519 0.0
H658 H 0.58387 0.6316 0.79206 0.0
H659 H 0.55624 0.64608 0.73853 0.0
H660 H 0.56896 0.61466 0.69049 0.0
H661 H 0.48555 0.60977 0.09451 0.0
H662 H 0.48894 0.64199 0.0436 0.0
H663 H 0.51774 0.63028 0.09943 0.0
C664 C 0.82723 0.55057 0.97443 0.0
C665 C 0.81181 0.53183 0.02841 0.0
C666 C 0.85431 0.54558 0.93802 0.0
C667 C 0.86615 0.52149 0.95797 0.0
C668 C 0.85053 0.50255 0.01283 0.0
C669 C 0.8234 0.50794 0.04707 0.0
C670 C 0.87016 0.5659 0.87777 0.0
C671 C 0.86227 0.47645 0.03434 0.0
C672 C 0.92802 0.4953 0.81035 0.0
C673 C 0.95027 0.50537 0.86339 0.0
C674 C 0.90049 0.5012 0.83846 0.0
C675 C 0.89519 0.51639 0.92396 0.0
C676 C 0.9176 0.52597 0.97905 0.0
C677 C 0.94494 0.52052 0.94758 0.0
C678 C 0.8772 0.4914 0.77637 0.0
C679 C 0.91268 0.54163 0.07185 0.0
H680 H 0.81794 0.569 0.96061 0.0
H681 H 0.81103 0.49342 0.08788 0.0
H682 H 0.88936 0.5738 0.91182 0.0
H683 H 0.87682 0.55619 0.80869 0.0
H684 H 0.85746 0.58303 0.86558 0.0
H685 H 0.84887 0.4656 0.08767 0.0
H686 H 0.86401 0.46326 0.96923 0.0
H687 H 0.88359 0.48008 0.05999 0.0
H688 H 0.93218 0.48311 0.74621 0.0
H689 H 0.96218 0.52817 0.98896 0.0
H690 H 0.86431 0.50824 0.76279 0.0
H691 H 0.86326 0.47623 0.81235 0.0
H692 H 0.8852 0.48225 0.70784 0.0
H693 H 0.93251 0.54881 0.10371 0.0
H694 H 0.9004 0.52873 0.12172 0.0
H695 H 0.90032 0.55919 0.06283 0.0
C696 C 0.06779 0.18827 0.22195 0.0
C697 C 0.04899 0.20853 0.23613 0.0
C698 C 0.06398 0.1676 0.15238 0.0
C699 C 0.04068 0.16725 0.09614 0.0
C700 C 0.02218 0.18831 0.10801 0.0
C701 C 0.02651 0.20869 0.17841 0.0
C702 C 0.08387 0.14527 0.1431 0.0
C703 C 0.99692 0.18849 0.05036 0.0
C704 C 0.0384 0.118 0.88261 0.0
C705 C 0.02289 0.09616 0.92049 0.0
C706 C 0.04416 0.14155 0.93853 0.0
C707 C 0.03384 0.14321 0.03375 0.0
C708 C 0.01753 0.12139 0.0712 0.0
C709 C 0.01241 0.09807 0.01419 0.0
C710 C 0.0616 0.16443 0.89633 0.0
C711 C 0.00519 0.12271 0.17123 0.0
H712 H 0.08493 0.18821 0.26781 0.0
H713 H 0.01163 0.22408 0.19145 0.0
H714 H 0.07283 0.12649 0.16668 0.0
H715 H 0.0912 0.14153 0.06847 0.0
H716 H 0.10232 0.14981 0.18579 0.0
H717 H 0.98701 0.20804 0.05867 0.0
H718 H 0.00267 0.18411 0.97476 0.0
H719 H 0.98124 0.17257 0.07289 0.0
H720 H 0.04635 0.11651 0.80981 0.0
H721 H 4e-05 0.0813 0.04305 0.0
H722 H 0.08133 0.16789 0.93294 0.0
H723 H 0.05035 0.18319 0.90643 0.0
H724 H 0.06683 0.16048 0.82 0.0
H725 H 0.02113 0.13033 0.22065 0.0
H726 H 0.99631 0.10288 0.19325 0.0
H727 H 0.98828 0.13693 0.17781 0.0
C728 C 0.31674 0.0504 0.12239 0.0
C729 C 0.31199 0.03089 0.18846 0.0
C730 C 0.34 0.04967 0.05773 0.0
C731 C 0.35929 0.02958 0.06265 0.0
C732 C 0.35378 0.00922 0.12702 0.0
C733 C 0.32964 0.00967 0.18686 0.0
C734 C 0.34427 0.07064 0.98582 0.0
C735 C 0.37374 0.98744 0.13531 0.0
C736 C 0.4135 0.01056 0.87116 0.0
C737 C 0.43695 0.0265 0.89817 0.0
C738 C 0.38751 0.01302 0.91967 0.0
C739 C 0.38559 0.02999 0.00241 0.0
C740 C 0.40957 0.04547 0.03202 0.0
C741 C 0.43491 0.04411 0.97767 0.0
C742 C 0.36236 0.99707 0.88282 0.0
C743 C 0.40875 0.06242 0.12318 0.0
H744 H 0.30277 0.06662 0.12362 0.0
H745 H 0.32524 0.99417 0.23631 0.0
H746 H 0.3625 0.08441 0.00252 0.0
H747 H 0.34882 0.061 0.91484 0.0
H748 H 0.32569 0.0827 0.98372 0.0
H749 H 0.39563 0.99595 0.13556 0.0
H750 H 0.36896 0.9764 0.20014 0.0
H751 H 0.37231 0.97283 0.07403 0.0
H752 H 0.41537 0.99624 0.81133 0.0
H753 H 0.45333 0.05601 0.99903 0.0
H754 H 0.34342 0.0088 0.89236 0.0
H755 H 0.35829 0.97864 0.92195 0.0
H756 H 0.36574 0.99096 0.80699 0.0
H757 H 0.39301 0.07766 0.12233 0.0
H758 H 0.42932 0.07282 0.13689 0.0
H759 H 0.40234 0.04953 0.18223 0.0
C760 C 0.42845 0.31431 0.11234 0.0
C761 C 0.44933 0.30831 0.17032 0.0
C762 C 0.43269 0.33556 0.05219 0.0
C763 C 0.4583 0.35125 0.05144 0.0
C764 C 0.47985 0.34445 0.10747 0.0
C765 C 0.47511 0.32291 0.16589 0.0
C766 C 0.40945 0.34182 0.99212 0.0
C767 C 0.50766 0.36028 0.10751 0.0
C768 C 0.48036 0.3997 0.8621 0.0
C769 C 0.47259 0.42414 0.9063 0.0
C770 C 0.47477 0.37555 0.90666 0.0
C771 C 0.46182 0.37606 0.99849 0.0
C772 C 0.45357 0.40071 0.04251 0.0
C773 C 0.45877 0.42445 0.99538 0.0
C774 C 0.4832 0.34965 0.85615 0.0
C775 C 0.44014 0.40213 0.1408 0.0
H776 H 0.4085 0.30295 0.11681 0.0
H777 H 0.49119 0.3179 0.21069 0.0
H778 H 0.40061 0.36097 0.01887 0.0
H779 H 0.41762 0.34441 0.91858 0.0
H780 H 0.39232 0.32583 0.99215 0.0
H781 H 0.52066 0.35466 0.16411 0.0
H782 H 0.51936 0.35657 0.03897 0.0
H783 H 0.50467 0.38211 0.11627 0.0
H784 H 0.49085 0.39946 0.79256 0.0
H785 H 0.45276 0.44337 0.02941 0.0
H786 H 0.46586 0.334 0.86143 0.0
H787 H 0.50123 0.34226 0.88968 0.0
H788 H 0.48925 0.35219 0.78065 0.0
H789 H 0.42005 0.38994 0.14295 0.0
H790 H 0.43615 0.42298 0.16702 0.0
H791 H 0.45391 0.39348 0.189 0.0
C792 C 0.22326 0.4824 0.06038 0.0
C793 C 0.22448 0.50221 0.13362 0.0
C794 C 0.20296 0.4825 0.99366 0.0
C795 C 0.1833 0.50261 0.00239 0.0
C796 C 0.18587 0.52367 0.0728 0.0
C797 C 0.20676 0.52339 0.13668 0.0
C798 C 0.20143 0.46014 0.91802 0.0
C799 C 0.16521 0.54533 0.08547 0.0
C800 C 0.13037 0.5139 0.82423 0.0
C801 C 0.10646 0.5002 0.86308 0.0
C802 C 0.15615 0.51357 0.86537 0.0
C803 C 0.15773 0.49974 0.94827 0.0
C804 C 0.13378 0.4851 0.98555 0.0
C805 C 0.10849 0.48533 0.94194 0.0
C806 C 0.18142 0.5286 0.82164 0.0
C807 C 0.13464 0.46988 0.07334 0.0
H808 H 0.23714 0.4661 0.05857 0.0
H809 H 0.20823 0.53884 0.19301 0.0
H810 H 0.18458 0.44505 0.93829 0.0
H811 H 0.19638 0.46784 0.85019 0.0
H812 H 0.22135 0.44992 0.9077 0.0
H813 H 0.17018 0.56022 0.14389 0.0
H814 H 0.16487 0.556 0.01978 0.0
H815 H 0.14387 0.53618 0.10036 0.0
H816 H 0.12887 0.52507 0.76219 0.0
H817 H 0.09005 0.4745 0.97137 0.0
H818 H 0.19995 0.51634 0.81898 0.0
H819 H 0.18629 0.54721 0.86525 0.0
H820 H 0.17796 0.5342 0.74931 0.0
H821 H 0.14854 0.45304 0.05958 0.0
H822 H 0.11364 0.46162 0.09805 0.0
H823 H 0.14342 0.48315 0.13063 0.0
C824 C 0.93081 0.81991 0.14282 0.0
C825 C 0.94968 0.79969 0.12972 0.0
C826 C 0.93437 0.84069 0.21219 0.0
C827 C 0.95751 0.84119 0.26924 0.0
C828 C 0.97607 0.82017 0.25843 0.0
C829 C 0.97197 0.79968 0.1883 0.0
C830 C 0.91441 0.86295 0.22046 0.0
C831 C 0.00119 0.82017 0.31686 0.0
C832 C 0.98579 0.91037 0.35123 0.0
C833 C 0.97528 0.91229 0.44489 0.0
C834 C 0.98057 0.88709 0.29411 0.0
C835 C 0.96416 0.86531 0.33144 0.0
C836 C 0.95374 0.86701 0.42656 0.0
C837 C 0.9596 0.89053 0.48258 0.0
C838 C 0.99297 0.88574 0.19417 0.0
C839 C 0.93616 0.84419 0.46859 0.0
H840 H 0.91382 0.81986 0.0963 0.0
H841 H 0.98692 0.78433 0.17606 0.0
H842 H 0.90685 0.86673 0.29484 0.0
H843 H 0.92547 0.88175 0.19705 0.0
H844 H 0.89612 0.85831 0.17712 0.0
H845 H 0.01124 0.8007 0.30894 0.0
H846 H 0.01681 0.83618 0.29475 0.0
H847 H 0.99521 0.82453 0.39231 0.0
H848 H 0.99827 0.92709 0.32249 0.0
H849 H 0.95161 0.89202 0.55534 0.0
H850 H 0.97703 0.87822 0.14461 0.0
H851 H 0.00979 0.87142 0.18768 0.0
H852 H 0.00198 0.90554 0.17226 0.0
H853 H 0.91659 0.84063 0.43118 0.0
H854 H 0.93066 0.84825 0.54469 0.0
H855 H 0.94746 0.82545 0.45941 0.0
C856 C 0.67103 0.95294 0.23559 0.0
C857 C 0.69601 0.96878 0.22811 0.0
C858 C 0.64955 0.95978 0.30189 0.0
C859 C 0.65341 0.98287 0.36319 0.0
C860 C 0.67918 0.99826 0.35895 0.0
C861 C 0.70013 0.99117 0.29055 0.0
C862 C 0.6222 0.94314 0.30267 0.0
C863 C 0.68411 0.02295 0.42327 0.0
C864 C 0.58656 0.01485 0.45337 0.0
C865 C 0.58159 0.00387 0.54128 0.0
C866 C 0.61037 0.00879 0.39571 0.0
C867 C 0.62975 0.99164 0.42738 0.0
C868 C 0.62546 0.98151 0.51778 0.0
C869 C 0.60139 0.98766 0.57348 0.0
C870 C 0.61453 0.02027 0.30009 0.0
C871 C 0.64592 0.96359 0.55465 0.0
H872 H 0.66792 0.93586 0.18612 0.0
H873 H 0.71912 0.00387 0.28266 0.0
H874 H 0.61612 0.93692 0.37474 0.0
H875 H 0.60547 0.95536 0.28094 0.0
H876 H 0.62323 0.92491 0.25435 0.0
H877 H 0.70642 0.03036 0.42029 0.0
H878 H 0.67144 0.03916 0.40243 0.0
H879 H 0.67742 0.0188 0.49703 0.0
H880 H 0.57147 0.02756 0.42841 0.0
H881 H 0.59802 0.97953 0.64223 0.0
H882 H 0.61776 0.004 0.24486 0.0
H883 H 0.6336 0.03396 0.29758 0.0
H884 H 0.59653 0.03161 0.28298 0.0
H885 H 0.64633 0.94453 0.51072 0.0
H886 H 0.64049 0.95883 0.62882 0.0
H887 H 0.66732 0.97331 0.54997 0.0
C888 C 0.58462 0.70911 0.27235 0.0
C889 C 0.56389 0.71536 0.21421 0.0
C890 C 0.58004 0.68793 0.33264 0.0
C891 C 0.55424 0.67257 0.33336 0.0
C892 C 0.53284 0.67962 0.27716 0.0
C893 C 0.53792 0.70109 0.21857 0.0
C894 C 0.60313 0.68139 0.3929 0.0
C895 C 0.50483 0.66414 0.27713 0.0
C896 C 0.55299 0.59938 0.38974 0.0
C897 C 0.53925 0.59985 0.47894 0.0
C898 C 0.55837 0.62305 0.3424 0.0
C899 C 0.55038 0.6478 0.38634 0.0
C900 C 0.53745 0.64846 0.47822 0.0
C901 C 0.53169 0.62437 0.523 0.0
C902 C 0.57174 0.62148 0.24404 0.0
C903 C 0.52928 0.67446 0.52859 0.0
H904 H 0.6047 0.72025 0.26797 0.0
H905 H 0.52195 0.7063 0.17371 0.0
H906 H 0.59489 0.67899 0.46646 0.0
H907 H 0.61167 0.66208 0.36647 0.0
H908 H 0.62049 0.69714 0.39271 0.0
H909 H 0.50752 0.64225 0.26854 0.0
H910 H 0.49316 0.66802 0.34562 0.0
H911 H 0.49196 0.66991 0.22045 0.0
H912 H 0.55883 0.58039 0.35583 0.0
H913 H 0.52125 0.62473 0.59263 0.0
H914 H 0.59196 0.63347 0.24173 0.0
H915 H 0.55806 0.63025 0.19585 0.0
H916 H 0.5755 0.60057 0.2179 0.0
H917 H 0.54678 0.68996 0.52324 0.0
H918 H 0.52319 0.672 0.6041 0.0
H919 H 0.51136 0.68202 0.49499 0.0
C920 C 0.81431 0.55354 0.23782 0.0
C921 C 0.79133 0.53514 0.22955 0.0
C922 C 0.83473 0.55014 0.30126 0.0
C923 C 0.83174 0.52803 0.35923 0.0
C924 C 0.8075 0.51045 0.35582 0.0
C925 C 0.78771 0.51402 0.28998 0.0
C926 C 0.8606 0.56892 0.30051 0.0
C927 C 0.80334 0.48683 0.41703 0.0
C928 C 0.90018 0.50023 0.41246 0.0
C929 C 0.90471 0.51219 0.50176 0.0
C930 C 0.87606 0.50462 0.36681 0.0
C931 C 0.85583 0.52121 0.41198 0.0
C932 C 0.85973 0.53242 0.50409 0.0
C933 C 0.88429 0.52788 0.54788 0.0
C934 C 0.87247 0.49168 0.26967 0.0
C935 C 0.83835 0.54968 0.55534 0.0
H936 H 0.81699 0.5698 0.19065 0.0
H937 H 0.77026 0.49945 0.28218 0.0
H938 H 0.86501 0.57643 0.3731 0.0
H939 H 0.87884 0.55788 0.27143 0.0
H940 H 0.85864 0.58635 0.25725 0.0
H941 H 0.7813 0.4786 0.4202 0.0
H942 H 0.81677 0.4707 0.388 0.0
H943 H 0.80948 0.49253 0.48954 0.0
H944 H 0.91582 0.48783 0.37721 0.0
H945 H 0.88772 0.53697 0.61743 0.0
H946 H 0.8657 0.50633 0.22185 0.0
H947 H 0.85594 0.47523 0.27349 0.0
H948 H 0.892 0.48318 0.2385 0.0
H949 H 0.83788 0.56879 0.52016 0.0
H950 H 0.843 0.55438 0.63004 0.0
H951 H 0.81719 0.5395 0.55279 0.0
loop_
_geom_bond_atom_site_label_1
_geom_bond_atom_site_label_2
_geom_bond_distance
_geom_bond_site_symmetry_2
_ccdc_geom_bond_type
C0 N1 1.317 . S
C0 N2 1.348 . S
C0 C3 1.485 . S
N1 C0 1.317 . S
N1 N5 1.370 . S
N2 C0 1.348 . S
N2 C4 1.346 1_554 S
C3 C0 1.485 . S
C3 H7 0.960 . S
C3 H8 0.961 . S
C3 H9 0.960 . S
C4 N2 1.346 1_556 S
C4 N5 1.307 1_556 S
C4 C6 1.486 . S
N5 N1 1.370 . S
N5 C4 1.307 1_554 S
C6 C4 1.486 . S
C6 H10 0.960 . S
C6 H11 0.960 . S
C6 H12 0.959 . S
H7 C3 0.960 . S
H8 C3 0.961 . S
H9 C3 0.960 . S
H10 C6 0.960 . S
H11 C6 0.960 . S
H12 C6 0.959 . S
C13 N14 1.317 . S
C13 N15 1.348 1_554 S
C13 C16 1.485 . S
N14 C13 1.317 . S
N14 N18 1.370 1_554 S
N15 C13 1.348 1_556 S
N15 C17 1.346 . S
C16 C13 1.485 . S
C16 H20 0.960 . S
C16 H21 0.961 . S
C16 H22 0.960 . S
C17 N15 1.346 . S
C17 N18 1.307 . S
C17 C19 1.486 . S
N18 N14 1.370 1_556 S
N18 C17 1.307 . S
C19 C17 1.486 . S
C19 H23 0.960 . S
C19 H24 0.960 . S
C19 H25 0.959 . S
H20 C16 0.960 . S
H21 C16 0.961 . S
H22 C16 0.960 . S
H23 C19 0.960 . S
H24 C19 0.960 . S
H25 C19 0.959 . S
C26 N27 1.317 . S
C26 N28 1.348 . S
C26 C29 1.485 . S
N27 C26 1.317 . S
N27 N31 1.370 . S
N28 C26 1.348 . S
N28 C30 1.346 1_554 S
C29 C26 1.485 . S
C29 H33 0.960 . S
C29 H34 0.961 . S
C29 H35 0.960 . S
C30 N28 1.346 1_556 S
C30 N31 1.307 1_556 S
C30 C32 1.486 . S
N31 N27 1.370 . S
N31 C30 1.307 1_554 S
C32 C30 1.486 . S
C32 H36 0.960 . S
C32 H37 0.960 . S
C32 H38 0.959 . S
H33 C29 0.960 . S
H34 C29 0.961 . S
H35 C29 0.960 . S
H36 C32 0.960 . S
H37 C32 0.960 . S
H38 C32 0.959 . S
C39 N40 1.317 . S
C39 N41 1.348 . S
C39 C42 1.485 . S
N40 C39 1.317 . S
N40 N44 1.370 . S
N41 C39 1.348 . S
N41 C43 1.346 1_554 S
C42 C39 1.485 . S
C42 H46 0.960 . S
C42 H47 0.961 . S
C42 H48 0.960 . S
C43 N41 1.346 1_556 S
C43 N44 1.307 1_556 S
C43 C45 1.486 . S
N44 N40 1.370 . S
N44 C43 1.307 1_554 S
C45 C43 1.486 . S
C45 H49 0.960 . S
C45 H50 0.960 . S
C45 H51 0.959 . S
H46 C42 0.960 . S
H47 C42 0.961 . S
H48 C42 0.960 . S
H49 C45 0.960 . S
H50 C45 0.960 . S
H51 C45 0.959 . S
C52 N53 1.317 . S
C52 N54 1.348 . S
C52 C55 1.485 . S
N53 C52 1.317 . S
N53 N57 1.370 . S
N54 C52 1.348 . S
N54 C56 1.346 . S
C55 C52 1.485 . S
C55 H59 0.960 . S
C55 H60 0.961 . S
C55 H61 0.960 . S
C56 N54 1.346 . S
C56 N57 1.307 . S
C56 C58 1.486 . S
N57 N53 1.370 . S
N57 C56 1.307 . S
C58 C56 1.486 . S
C58 H62 0.960 . S
C58 H63 0.960 . S
C58 H64 0.959 . S
H59 C55 0.960 . S
H60 C55 0.961 . S
H61 C55 0.960 . S
H62 C58 0.960 . S
H63 C58 0.960 . S
H64 C58 0.959 . S
C65 N66 1.317 . S
C65 N67 1.348 . S
C65 C68 1.485 . S
N66 C65 1.317 . S
N66 N70 1.370 . S
N67 C65 1.348 . S
N67 C69 1.346 . S
C68 C65 1.485 . S
C68 H72 0.960 . S
C68 H73 0.961 . S
C68 H74 0.960 . S
C69 N67 1.346 . S
C69 N70 1.307 . S
C69 C71 1.486 . S
N70 N66 1.370 . S
N70 C69 1.307 . S
C71 C69 1.486 . S
C71 H75 0.960 . S
C71 H76 0.960 . S
C71 H77 0.959 . S
H72 C68 0.960 . S
H73 C68 0.961 . S
H74 C68 0.960 . S
H75 C71 0.960 . S
H76 C71 0.960 . S
H77 C71 0.959 . S
C78 N79 1.317 . S
C78 N80 1.348 . S
C78 C81 1.485 . S
N79 C78 1.317 . S
N79 N83 1.370 . S
N80 C78 1.348 . S
N80 C82 1.346 . S
C81 C78 1.485 . S
C81 H85 0.960 . S
C81 H86 0.961 . S
C81 H87 0.960 . S
C82 N80 1.346 . S
C82 N83 1.307 . S
C82 C84 1.486 . S
N83 N79 1.370 . S
N83 C82 1.307 . S
C84 C82 1.486 . S
C84 H88 0.960 . S
C84 H89 0.960 . S
C84 H90 0.959 . S
H85 C81 0.960 . S
H86 C81 0.961 . S
H87 C81 0.960 . S
H88 C84 0.960 . S
H89 C84 0.960 . S
H90 C84 0.959 . S
C91 N92 1.317 . S
C91 N93 1.348 . S
C91 C94 1.485 . S
N92 C91 1.317 . S
N92 N96 1.370 . S
N93 C91 1.348 . S
N93 C95 1.346 . S
C94 C91 1.485 . S
C94 H98 0.960 . S
C94 H99 0.961 . S
C94 H100 0.960 . S
C95 N93 1.346 . S
C95 N96 1.307 . S
C95 C97 1.486 . S
N96 N92 1.370 . S
N96 C95 1.307 . S
C97 C95 1.486 . S
C97 H101 0.960 . S
C97 H102 0.960 . S
C97 H103 0.959 . S
H98 C94 0.960 . S
H99 C94 0.961 . S
H100 C94 0.960 . S
H101 C97 0.960 . S
H102 C97 0.960 . S
H103 C97 0.959 . S
Tb104 O107 2.414 1_565 S
Tb104 O108 2.569 1_665 S
Tb104 O109 2.374 1_665 S
Tb104 O117 2.363 1_655 S
Tb104 O119 2.348 1_565 S
Tb104 O121 2.459 . S
Tb104 O122 2.548 1_655 S
C105 O109 1.251 . S
C105 O111 1.263 . S
Tb106 O108 2.343 . S
Tb106 O111 2.353 . S
Tb106 O114 2.427 . S
Tb106 O115 2.512 . S
Tb106 O116 2.453 1_545 S
Tb106 O117 2.596 1_545 S
Tb106 O118 2.374 1_455 S
O107 Tb104 2.414 1_545 S
O107 C123 1.245 1_655 S
O108 Tb104 2.569 1_445 S
O108 Tb106 2.343 . S
O108 C123 1.259 . S
O109 Tb104 2.374 1_445 S
O109 C105 1.251 . S
C110 O114 1.275 . S
C110 O115 1.244 . S
O111 C105 1.263 . S
O111 Tb106 2.353 . S
C112 O116 1.245 . S
C112 O117 1.259 . S
C113 O118 1.250 . S
C113 O119 1.263 . S
O114 Tb106 2.427 . S
O114 C110 1.275 . S
O115 Tb106 2.512 . S
O115 C110 1.244 . S
O116 Tb106 2.453 1_565 S
O116 C112 1.245 . S
O117 Tb104 2.363 1_455 S
O117 Tb106 2.596 1_565 S
O117 C112 1.259 . S
O118 Tb106 2.374 1_655 S
O118 C113 1.250 . S
O119 Tb104 2.348 1_545 S
O119 C113 1.263 . S
C120 O121 1.275 . S
C120 O122 1.246 1_655 S
O121 Tb104 2.459 . S
O121 C120 1.275 . S
O122 Tb104 2.548 1_455 S
O122 C120 1.246 1_455 S
C123 O107 1.245 1_455 S
C123 O108 1.259 . S
Tb124 O127 2.453 . S
Tb124 O128 2.555 1_545 S
Tb124 O129 2.374 . S
Tb124 O137 2.343 . S
Tb124 O139 2.353 . S
Tb124 O141 2.427 . S
Tb124 O142 2.513 . S
C125 O129 1.258 . S
C125 O131 1.256 1_545 S
Tb126 O128 2.367 . S
Tb126 O131 2.353 . S
Tb126 O134 2.427 . S
Tb126 O135 2.513 . S
Tb126 O136 2.453 . S
Tb126 O137 2.596 1_565 S
Tb126 O138 2.374 . S
O127 Tb124 2.453 . S
O127 C143 1.245 . S
O128 Tb124 2.555 1_565 S
O128 Tb126 2.367 . S
O128 C143 1.247 1_565 S
O129 Tb124 2.374 . S
O129 C125 1.258 . S
C130 O134 1.275 . S
C130 O135 1.246 . S
O131 C125 1.256 1_565 S
O131 Tb126 2.353 . S
C132 O136 1.245 1_545 S
C132 O137 1.259 . S
C133 O138 1.250 1_545 S
C133 O139 1.263 . S
O134 Tb126 2.427 . S
O134 C130 1.275 . S
O135 Tb126 2.513 . S
O135 C130 1.246 . S
O136 Tb126 2.453 . S
O136 C132 1.245 1_565 S
O137 Tb124 2.343 . S
O137 Tb126 2.596 1_545 S
O137 C132 1.259 . S
O138 Tb126 2.374 . S
O138 C133 1.250 1_565 S
O139 Tb124 2.353 . S
O139 C133 1.263 . S
C140 O141 1.275 . S
C140 O142 1.246 . S
O141 Tb124 2.427 . S
O141 C140 1.275 . S
O142 Tb124 2.513 . S
O142 C140 1.246 . S
C143 O127 1.245 . S
C143 O128 1.247 1_545 S
Tb144 O147 2.453 . S
Tb144 O148 2.596 . S
Tb144 O149 2.374 . S
Tb144 O157 2.343 . S
Tb144 O159 2.353 . S
Tb144 O161 2.427 . S
Tb144 O162 2.513 . S
C145 O149 1.251 . S
C145 O151 1.263 . S
Tb146 O148 2.343 . S
Tb146 O151 2.353 . S
Tb146 O154 2.427 . S
Tb146 O155 2.513 . S
Tb146 O156 2.453 . S
Tb146 O157 2.596 . S
Tb146 O158 2.374 . S
O147 Tb144 2.453 . S
O147 C163 1.245 . S
O148 Tb144 2.596 . S
O148 Tb146 2.343 . S
O148 C163 1.259 . S
O149 Tb144 2.374 . S
O149 C145 1.251 . S
C150 O154 1.275 . S
C150 O155 1.246 . S
O151 C145 1.263 . S
O151 Tb146 2.353 . S
C152 O156 1.245 . S
C152 O157 1.259 . S
C153 O158 1.250 . S
C153 O159 1.263 . S
O154 Tb146 2.427 . S
O154 C150 1.275 . S
O155 Tb146 2.513 . S
O155 C150 1.246 . S
O156 Tb146 2.453 . S
O156 C152 1.245 . S
O157 Tb144 2.343 . S
O157 Tb146 2.596 . S
O157 C152 1.259 . S
O158 Tb146 2.374 . S
O158 C153 1.250 . S
O159 Tb144 2.353 . S
O159 C153 1.263 . S
C160 O161 1.275 . S
C160 O162 1.246 . S
O161 Tb144 2.427 . S
O161 C160 1.275 . S
O162 Tb144 2.513 . S
O162 C160 1.246 . S
C163 O147 1.245 . S
C163 O148 1.259 . S
Tb164 O167 2.453 1_655 S
Tb164 O168 2.596 1_655 S
Tb164 O169 2.374 1_655 S
Tb164 O177 2.343 . S
Tb164 O179 2.353 1_655 S
Tb164 O181 2.427 . S
Tb164 O182 2.513 . S
C165 O169 1.251 . S
C165 O171 1.263 . S
Tb166 O168 2.343 . S
Tb166 O171 2.353 . S
Tb166 O174 2.427 . S
Tb166 O175 2.513 . S
Tb166 O176 2.453 1_455 S
Tb166 O177 2.596 1_455 S
Tb166 O178 2.374 . S
O167 Tb164 2.453 1_455 S
O167 C183 1.245 . S
O168 Tb164 2.596 1_455 S
O168 Tb166 2.343 . S
O168 C183 1.259 . S
O169 Tb164 2.374 1_455 S
O169 C165 1.251 . S
C170 O174 1.275 . S
C170 O175 1.246 . S
O171 C165 1.263 . S
O171 Tb166 2.353 . S
C172 O176 1.245 . S
C172 O177 1.259 . S
C173 O178 1.250 . S
C173 O179 1.263 . S
O174 Tb166 2.427 . S
O174 C170 1.275 . S
O175 Tb166 2.513 . S
O175 C170 1.246 . S
O176 Tb166 2.453 1_655 S
O176 C172 1.245 . S
O177 Tb164 2.343 . S
O177 Tb166 2.596 1_655 S
O177 C172 1.259 . S
O178 Tb166 2.374 . S
O178 C173 1.250 . S
O179 Tb164 2.353 1_455 S
O179 C173 1.263 . S
C180 O181 1.275 . S
C180 O182 1.246 . S
O181 Tb164 2.427 . S
O181 C180 1.275 . S
O182 Tb164 2.513 . S
O182 C180 1.246 . S
C183 O167 1.245 . S
C183 O168 1.259 . S
C184 C185 1.391 . S
C184 C186 1.394 . S
C184 H200 0.931 . S
C185 C184 1.391 . S
C185 C189 1.376 . S
C186 C184 1.394 . S
C186 C187 1.369 . S
C186 C190 1.531 . S
C187 C186 1.369 . S
C187 C188 1.410 . S
C187 C195 1.503 . S
C188 C187 1.410 . S
C188 C189 1.392 . S
C188 C191 1.511 . S
C189 C185 1.376 . S
C189 C188 1.392 . S
C189 H201 0.929 . S
C190 C186 1.531 . S
C190 H202 0.960 . S
C190 H203 0.962 . S
C190 H204 0.960 . S
C191 C188 1.511 . S
C191 H205 0.961 . S
C191 H206 0.961 . S
C191 H207 0.961 1_545 S
C192 C193 1.370 . S
C192 C194 1.363 . S
C192 H208 0.931 . S
C193 C192 1.370 . S
C193 C197 1.408 1_545 S
C194 C192 1.363 . S
C194 C195 1.370 . S
C194 C198 1.524 . S
C195 C187 1.503 . S
C195 C194 1.370 . S
C195 C196 1.403 . S
C196 C195 1.403 . S
C196 C197 1.404 1_545 S
C196 C199 1.539 1_545 S
C197 C193 1.408 1_565 S
C197 C196 1.404 1_565 S
C197 H209 0.930 . S
C198 C194 1.524 . S
C198 H210 0.956 . S
C198 H211 0.961 . S
C198 H212 0.961 . S
C199 C196 1.539 1_565 S
C199 H213 0.958 . S
C199 H214 0.961 . S
C199 H215 0.960 . S
H200 C184 0.931 . S
H201 C189 0.929 . S
H202 C190 0.960 . S
H203 C190 0.962 . S
H204 C190 0.960 . S
H205 C191 0.961 . S
H206 C191 0.961 . S
H207 C191 0.961 1_565 S
H208 C192 0.931 . S
H209 C197 0.930 . S
H210 C198 0.956 . S
H211 C198 0.961 . S
H212 C198 0.961 . S
H213 C199 0.958 . S
H214 C199 0.961 . S
H215 C199 0.960 . S
C216 C217 1.391 . S
C216 C218 1.394 . S
C216 H232 0.931 . S
C217 C216 1.391 . S
C217 C221 1.376 . S
C218 C216 1.394 . S
C218 C219 1.369 . S
C218 C222 1.531 . S
C219 C218 1.369 . S
C219 C220 1.410 . S
C219 C227 1.503 . S
C220 C219 1.410 . S
C220 C221 1.392 . S
C220 C223 1.511 . S
C221 C217 1.376 . S
C221 C220 1.392 . S
C221 H233 0.929 . S
C222 C218 1.531 . S
C222 H234 0.960 . S
C222 H235 0.962 . S
C222 H236 0.960 . S
C223 C220 1.511 . S
C223 H237 0.961 . S
C223 H238 0.961 . S
C223 H239 0.961 . S
C224 C225 1.370 . S
C224 C226 1.363 . S
C224 H240 0.931 . S
C225 C224 1.370 . S
C225 C229 1.408 . S
C226 C224 1.363 . S
C226 C227 1.370 . S
C226 C230 1.524 . S
C227 C219 1.503 . S
C227 C226 1.370 . S
C227 C228 1.403 . S
C228 C227 1.403 . S
C228 C229 1.404 . S
C228 C231 1.539 . S
C229 C225 1.408 . S
C229 C228 1.404 . S
C229 H241 0.930 . S
C230 C226 1.524 . S
C230 H242 0.956 . S
C230 H243 0.961 . S
C230 H244 0.961 . S
C231 C228 1.539 . S
C231 H245 0.958 . S
C231 H246 0.961 . S
C231 H247 0.960 . S
H232 C216 0.931 . S
H233 C221 0.929 . S
H234 C222 0.960 . S
H235 C222 0.962 . S
H236 C222 0.960 . S
H237 C223 0.961 . S
H238 C223 0.961 . S
H239 C223 0.961 . S
H240 C224 0.931 . S
H241 C229 0.930 . S
H242 C230 0.956 . S
H243 C230 0.961 . S
H244 C230 0.961 . S
H245 C231 0.958 . S
H246 C231 0.961 . S
H247 C231 0.960 . S
C248 C249 1.391 . S
C248 C250 1.394 . S
C248 H264 0.931 . S
C249 C248 1.391 . S
C249 C253 1.376 . S
C250 C248 1.394 . S
C250 C251 1.369 . S
C250 C254 1.531 . S
C251 C250 1.369 . S
C251 C252 1.410 . S
C251 C259 1.503 . S
C252 C251 1.410 . S
C252 C253 1.392 . S
C252 C255 1.511 . S
C253 C249 1.376 . S
C253 C252 1.392 . S
C253 H265 0.929 . S
C254 C250 1.531 . S
C254 H266 0.960 . S
C254 H267 0.962 . S
C254 H268 0.960 . S
C255 C252 1.511 . S
C255 H269 0.961 . S
C255 H270 0.961 . S
C255 H271 0.961 . S
C256 C257 1.370 . S
C256 C258 1.363 . S
C256 H272 0.931 . S
C257 C256 1.370 . S
C257 C261 1.408 . S
C258 C256 1.363 . S
C258 C259 1.370 . S
C258 C262 1.524 . S
C259 C251 1.503 . S
C259 C258 1.370 . S
C259 C260 1.403 . S
C260 C259 1.403 . S
C260 C261 1.404 . S
C260 C263 1.539 . S
C261 C257 1.408 . S
C261 C260 1.404 . S
C261 H273 0.930 . S
C262 C258 1.524 . S
C262 H274 0.956 . S
C262 H275 0.961 . S
C262 H276 0.961 . S
C263 C260 1.539 . S
C263 H277 0.958 . S
C263 H278 0.961 . S
C263 H279 0.960 . S
H264 C248 0.931 . S
H265 C253 0.929 . S
H266 C254 0.960 . S
H267 C254 0.962 . S
H268 C254 0.960 . S
H269 C255 0.961 . S
H270 C255 0.961 . S
H271 C255 0.961 . S
H272 C256 0.931 . S
H273 C261 0.930 . S
H274 C262 0.956 . S
H275 C262 0.961 . S
H276 C262 0.961 . S
H277 C263 0.958 . S
H278 C263 0.961 . S
H279 C263 0.960 . S
C280 C281 1.391 . S
C280 C282 1.394 . S
C280 H296 0.931 . S
C281 C280 1.391 . S
C281 C285 1.376 . S
C282 C280 1.394 . S
C282 C283 1.369 . S
C282 C286 1.531 . S
C283 C282 1.369 . S
C283 C284 1.410 . S
C283 C291 1.503 . S
C284 C283 1.410 . S
C284 C285 1.392 . S
C284 C287 1.511 1_455 S
C285 C281 1.376 . S
C285 C284 1.392 . S
C285 H297 0.929 . S
C286 C282 1.531 . S
C286 H298 0.960 . S
C286 H299 0.962 . S
C286 H300 0.960 . S
C287 C284 1.511 1_655 S
C287 H301 0.961 . S
C287 H302 0.961 . S
C287 H303 0.961 . S
C288 C289 1.370 . S
C288 C290 1.363 . S
C288 H304 0.931 . S
C289 C288 1.370 . S
C289 C293 1.408 . S
C290 C288 1.363 . S
C290 C291 1.370 . S
C290 C294 1.524 . S
C291 C283 1.503 . S
C291 C290 1.370 . S
C291 C292 1.403 . S
C292 C291 1.403 . S
C292 C293 1.404 . S
C292 C295 1.539 . S
C293 C289 1.408 . S
C293 C292 1.404 . S
C293 H305 0.930 . S
C294 C290 1.524 . S
C294 H306 0.956 . S
C294 H307 0.961 . S
C294 H308 0.961 . S
C295 C292 1.539 . S
C295 H309 0.958 . S
C295 H310 0.961 1_455 S
C295 H311 0.960 . S
H296 C280 0.931 . S
H297 C285 0.929 . S
H298 C286 0.960 . S
H299 C286 0.962 . S
H300 C286 0.960 . S
H301 C287 0.961 . S
H302 C287 0.961 . S
H303 C287 0.961 . S
H304 C288 0.931 . S
H305 C293 0.930 . S
H306 C294 0.956 . S
H307 C294 0.961 . S
H308 C294 0.961 . S
H309 C295 0.958 . S
H310 C295 0.961 1_655 S
H311 C295 0.960 . S
C312 C313 1.391 . S
C312 C314 1.394 . S
C312 H328 0.931 . S
C313 C312 1.391 . S
C313 C317 1.376 1_556 S
C314 C312 1.394 . S
C314 C315 1.369 . S
C314 C318 1.531 1_565 S
C315 C314 1.369 . S
C315 C316 1.410 1_556 S
C315 C323 1.503 . S
C316 C315 1.410 1_554 S
C316 C317 1.392 . S
C316 C319 1.511 . S
C317 C313 1.376 1_554 S
C317 C316 1.392 . S
C317 H329 0.929 . S
C318 C314 1.531 1_545 S
C318 H330 0.960 . S
C318 H331 0.962 1_545 S
C318 H332 0.960 . S
C319 C316 1.511 . S
C319 H333 0.961 . S
C319 H334 0.961 . S
C319 H335 0.961 . S
C320 C321 1.370 . S
C320 C322 1.363 . S
C320 H336 0.931 . S
C321 C320 1.370 . S
C321 C325 1.408 1_565 S
C322 C320 1.363 . S
C322 C323 1.370 . S
C322 C326 1.524 . S
C323 C315 1.503 . S
C323 C322 1.370 . S
C323 C324 1.403 1_565 S
C324 C323 1.403 1_545 S
C324 C325 1.404 . S
C324 C327 1.539 . S
C325 C321 1.408 1_545 S
C325 C324 1.404 . S
C325 H337 0.930 . S
C326 C322 1.524 . S
C326 H338 0.956 . S
C326 H339 0.961 . S
C326 H340 0.961 . S
C327 C324 1.539 . S
C327 H341 0.958 . S
C327 H342 0.961 . S
C327 H343 0.960 1_556 S
H328 C312 0.931 . S
H329 C317 0.929 . S
H330 C318 0.960 . S
H331 C318 0.962 1_565 S
H332 C318 0.960 . S
H333 C319 0.961 . S
H334 C319 0.961 . S
H335 C319 0.961 . S
H336 C320 0.931 . S
H337 C325 0.930 . S
H338 C326 0.956 . S
H339 C326 0.961 . S
H340 C326 0.961 . S
H341 C327 0.958 . S
H342 C327 0.961 . S
H343 C327 0.960 1_554 S
C344 C345 1.391 1_556 S
C344 C346 1.394 . S
C344 H360 0.931 . S
C345 C344 1.391 1_554 S
C345 C349 1.376 . S
C346 C344 1.394 . S
C346 C347 1.369 . S
C346 C350 1.531 . S
C347 C346 1.369 . S
C347 C348 1.410 1_556 S
C347 C355 1.503 . S
C348 C347 1.410 1_554 S
C348 C349 1.392 . S
C348 C351 1.511 . S
C349 C345 1.376 . S
C349 C348 1.392 . S
C349 H361 0.929 . S
C350 C346 1.531 . S
C350 H362 0.960 . S
C350 H363 0.962 . S
C350 H364 0.960 . S
C351 C348 1.511 . S
C351 H365 0.961 . S
C351 H366 0.961 . S
C351 H367 0.961 . S
C352 C353 1.370 . S
C352 C354 1.363 . S
C352 H368 0.931 . S
C353 C352 1.370 . S
C353 C357 1.408 . S
C354 C352 1.363 . S
C354 C355 1.370 . S
C354 C358 1.524 . S
C355 C347 1.503 . S
C355 C354 1.370 . S
C355 C356 1.403 . S
C356 C355 1.403 . S
C356 C357 1.404 . S
C356 C359 1.539 . S
C357 C353 1.408 . S
C357 C356 1.404 . S
C357 H369 0.930 . S
C358 C354 1.524 . S
C358 H370 0.956 . S
C358 H371 0.961 . S
C358 H372 0.961 . S
C359 C356 1.539 . S
C359 H373 0.958 . S
C359 H374 0.961 . S
C359 H375 0.960 1_556 S
H360 C344 0.931 . S
H361 C349 0.929 . S
H362 C350 0.960 . S
H363 C350 0.962 . S
H364 C350 0.960 . S
H365 C351 0.961 . S
H366 C351 0.961 . S
H367 C351 0.961 . S
H368 C352 0.931 . S
H369 C357 0.930 . S
H370 C358 0.956 . S
H371 C358 0.961 . S
H372 C358 0.961 . S
H373 C359 0.958 . S
H374 C359 0.961 . S
H375 C359 0.960 1_554 S
C376 C377 1.391 . S
C376 C378 1.394 . S
C376 H392 0.931 . S
C377 C376 1.391 . S
C377 C381 1.376 1_554 S
C378 C376 1.394 . S
C378 C379 1.369 1_554 S
C378 C382 1.531 . S
C379 C378 1.369 1_556 S
C379 C380 1.410 . S
C379 C387 1.503 . S
C380 C379 1.410 . S
C380 C381 1.392 . S
C380 C383 1.511 . S
C381 C377 1.376 1_556 S
C381 C380 1.392 . S
C381 H393 0.929 . S
C382 C378 1.531 . S
C382 H394 0.960 . S
C382 H395 0.962 . S
C382 H396 0.960 . S
C383 C380 1.511 . S
C383 H397 0.961 . S
C383 H398 0.961 . S
C383 H399 0.961 . S
C384 C385 1.370 . S
C384 C386 1.363 . S
C384 H400 0.931 . S
C385 C384 1.370 . S
C385 C389 1.408 . S
C386 C384 1.363 . S
C386 C387 1.370 . S
C386 C390 1.524 . S
C387 C379 1.503 . S
C387 C386 1.370 . S
C387 C388 1.403 . S
C388 C387 1.403 . S
C388 C389 1.404 . S
C388 C391 1.539 . S
C389 C385 1.408 . S
C389 C388 1.404 . S
C389 H401 0.930 . S
C390 C386 1.524 . S
C390 H402 0.956 . S
C390 H403 0.961 . S
C390 H404 0.961 . S
C391 C388 1.539 . S
C391 H405 0.958 . S
C391 H406 0.961 . S
C391 H407 0.960 . S
H392 C376 0.931 . S
H393 C381 0.929 . S
H394 C382 0.960 . S
H395 C382 0.962 . S
H396 C382 0.960 . S
H397 C383 0.961 . S
H398 C383 0.961 . S
H399 C383 0.961 . S
H400 C384 0.931 . S
H401 C389 0.930 . S
H402 C390 0.956 . S
H403 C390 0.961 . S
H404 C390 0.961 . S
H405 C391 0.958 . S
H406 C391 0.961 . S
H407 C391 0.960 . S
C408 C409 1.391 . S
C408 C410 1.394 . S
C408 H424 0.931 . S
C409 C408 1.391 . S
C409 C413 1.376 . S
C410 C408 1.394 . S
C410 C411 1.369 . S
C410 C414 1.531 . S
C411 C410 1.369 . S
C411 C412 1.410 . S
C411 C419 1.503 . S
C412 C411 1.410 . S
C412 C413 1.392 . S
C412 C415 1.511 1_655 S
C413 C409 1.376 . S
C413 C412 1.392 . S
C413 H425 0.929 1_655 S
C414 C410 1.531 . S
C414 H426 0.960 . S
C414 H427 0.962 . S
C414 H428 0.960 . S
C415 C412 1.511 1_455 S
C415 H429 0.961 . S
C415 H430 0.961 . S
C415 H431 0.961 . S
C416 C417 1.370 . S
C416 C418 1.363 . S
C416 H432 0.931 . S
C417 C416 1.370 . S
C417 C421 1.408 . S
C418 C416 1.363 . S
C418 C419 1.370 . S
C418 C422 1.524 . S
C419 C411 1.503 . S
C419 C418 1.370 . S
C419 C420 1.403 . S
C420 C419 1.403 . S
C420 C421 1.404 . S
C420 C423 1.539 . S
C421 C417 1.408 . S
C421 C420 1.404 . S
C421 H433 0.930 1_655 S
C422 C418 1.524 . S
C422 H434 0.956 . S
C422 H435 0.961 1_556 S
C422 H436 0.961 1_556 S
C423 C420 1.539 . S
C423 H437 0.958 . S
C423 H438 0.961 1_655 S
C423 H439 0.960 1_655 S
H424 C408 0.931 . S
H425 C413 0.929 1_455 S
H426 C414 0.960 . S
H427 C414 0.962 . S
H428 C414 0.960 . S
H429 C415 0.961 . S
H430 C415 0.961 . S
H431 C415 0.961 . S
H432 C416 0.931 . S
H433 C421 0.930 1_455 S
H434 C422 0.956 . S
H435 C422 0.961 1_554 S
H436 C422 0.961 1_554 S
H437 C423 0.958 . S
H438 C423 0.961 1_455 S
H439 C423 0.960 1_455 S
C440 C441 1.391 . S
C440 C442 1.394 . S
C440 H456 0.931 . S
C441 C440 1.391 . S
C441 C445 1.376 . S
C442 C440 1.394 . S
C442 C443 1.369 . S
C442 C446 1.531 . S
C443 C442 1.369 . S
C443 C444 1.410 . S
C443 C451 1.503 . S
C444 C443 1.410 . S
C444 C445 1.392 . S
C444 C447 1.511 . S
C445 C441 1.376 . S
C445 C444 1.392 . S
C445 H457 0.929 . S
C446 C442 1.531 . S
C446 H458 0.960 . S
C446 H459 0.962 . S
C446 H460 0.960 . S
C447 C444 1.511 . S
C447 H461 0.961 . S
C447 H462 0.961 . S
C447 H463 0.961 1_455 S
C448 C449 1.370 . S
C448 C450 1.363 . S
C448 H464 0.931 . S
C449 C448 1.370 . S
C449 C453 1.408 1_455 S
C450 C448 1.363 . S
C450 C451 1.370 . S
C450 C454 1.524 . S
C451 C443 1.503 . S
C451 C450 1.370 . S
C451 C452 1.403 . S
C452 C451 1.403 . S
C452 C453 1.404 1_455 S
C452 C455 1.539 1_455 S
C453 C449 1.408 1_655 S
C453 C452 1.404 1_655 S
C453 H465 0.930 . S
C454 C450 1.524 . S
C454 H466 0.956 . S
C454 H467 0.961 . S
C454 H468 0.961 . S
C455 C452 1.539 1_655 S
C455 H469 0.958 . S
C455 H470 0.961 . S
C455 H471 0.960 . S
H456 C440 0.931 . S
H457 C445 0.929 . S
H458 C446 0.960 . S
H459 C446 0.962 . S
H460 C446 0.960 . S
H461 C447 0.961 . S
H462 C447 0.961 . S
H463 C447 0.961 1_655 S
H464 C448 0.931 . S
H465 C453 0.930 . S
H466 C454 0.956 . S
H467 C454 0.961 . S
H468 C454 0.961 . S
H469 C455 0.958 . S
H470 C455 0.961 . S
H471 C455 0.960 . S
C472 C473 1.391 . S
C472 C474 1.394 . S
C472 H488 0.931 . S
C473 C472 1.391 . S
C473 C477 1.376 . S
C474 C472 1.394 . S
C474 C475 1.369 . S
C474 C478 1.531 . S
C475 C474 1.369 . S
C475 C476 1.410 . S
C475 C483 1.503 . S
C476 C475 1.410 . S
C476 C477 1.392 . S
C476 C479 1.511 . S
C477 C473 1.376 . S
C477 C476 1.392 . S
C477 H489 0.929 . S
C478 C474 1.531 . S
C478 H490 0.960 . S
C478 H491 0.962 . S
C478 H492 0.960 . S
C479 C476 1.511 . S
C479 H493 0.961 1_545 S
C479 H494 0.961 1_545 S
C479 H495 0.961 . S
C480 C481 1.370 . S
C480 C482 1.363 . S
C480 H496 0.931 1_545 S
C481 C480 1.370 . S
C481 C485 1.408 . S
C482 C480 1.363 . S
C482 C483 1.370 . S
C482 C486 1.524 . S
C483 C475 1.503 . S
C483 C482 1.370 . S
C483 C484 1.403 . S
C484 C483 1.403 . S
C484 C485 1.404 . S
C484 C487 1.539 . S
C485 C481 1.408 . S
C485 C484 1.404 . S
C485 H497 0.930 . S
C486 C482 1.524 . S
C486 H498 0.956 . S
C486 H499 0.961 1_545 S
C486 H500 0.961 1_545 S
C487 C484 1.539 . S
C487 H501 0.958 . S
C487 H502 0.961 . S
C487 H503 0.960 . S
H488 C472 0.931 . S
H489 C477 0.929 . S
H490 C478 0.960 . S
H491 C478 0.962 . S
H492 C478 0.960 . S
H493 C479 0.961 1_565 S
H494 C479 0.961 1_565 S
H495 C479 0.961 . S
H496 C480 0.931 1_565 S
H497 C485 0.930 . S
H498 C486 0.956 . S
H499 C486 0.961 1_565 S
H500 C486 0.961 1_565 S
H501 C487 0.958 . S
H502 C487 0.961 . S
H503 C487 0.960 . S
C504 C505 1.391 . S
C504 C506 1.394 . S
C504 H520 0.931 . S
C505 C504 1.391 . S
C505 C509 1.376 . S
C506 C504 1.394 . S
C506 C507 1.369 . S
C506 C510 1.531 . S
C507 C506 1.369 . S
C507 C508 1.410 . S
C507 C515 1.503 . S
C508 C507 1.410 . S
C508 C509 1.392 . S
C508 C511 1.511 . S
C509 C505 1.376 . S
C509 C508 1.392 . S
C509 H521 0.929 . S
C510 C506 1.531 . S
C510 H522 0.960 . S
C510 H523 0.962 . S
C510 H524 0.960 . S
C511 C508 1.511 . S
C511 H525 0.961 . S
C511 H526 0.961 . S
C511 H527 0.961 . S
C512 C513 1.370 . S
C512 C514 1.363 . S
C512 H528 0.931 . S
C513 C512 1.370 . S
C513 C517 1.408 . S
C514 C512 1.363 . S
C514 C515 1.370 . S
C514 C518 1.524 . S
C515 C507 1.503 . S
C515 C514 1.370 . S
C515 C516 1.403 . S
C516 C515 1.403 . S
C516 C517 1.404 . S
C516 C519 1.539 . S
C517 C513 1.408 . S
C517 C516 1.404 . S
C517 H529 0.930 . S
C518 C514 1.524 . S
C518 H530 0.956 . S
C518 H531 0.961 . S
C518 H532 0.961 . S
C519 C516 1.539 . S
C519 H533 0.958 . S
C519 H534 0.961 . S
C519 H535 0.960 . S
H520 C504 0.931 . S
H521 C509 0.929 . S
H522 C510 0.960 . S
H523 C510 0.962 . S
H524 C510 0.960 . S
H525 C511 0.961 . S
H526 C511 0.961 . S
H527 C511 0.961 . S
H528 C512 0.931 . S
H529 C517 0.930 . S
H530 C518 0.956 . S
H531 C518 0.961 . S
H532 C518 0.961 . S
H533 C519 0.958 . S
H534 C519 0.961 . S
H535 C519 0.960 . S
C536 C537 1.391 . S
C536 C538 1.394 . S
C536 H552 0.931 . S
C537 C536 1.391 . S
C537 C541 1.376 . S
C538 C536 1.394 . S
C538 C539 1.369 . S
C538 C542 1.531 . S
C539 C538 1.369 . S
C539 C540 1.410 . S
C539 C547 1.503 . S
C540 C539 1.410 . S
C540 C541 1.392 . S
C540 C543 1.511 . S
C541 C537 1.376 . S
C541 C540 1.392 . S
C541 H553 0.929 . S
C542 C538 1.531 . S
C542 H554 0.960 . S
C542 H555 0.962 . S
C542 H556 0.960 . S
C543 C540 1.511 . S
C543 H557 0.961 . S
C543 H558 0.961 . S
C543 H559 0.961 . S
C544 C545 1.370 . S
C544 C546 1.363 . S
C544 H560 0.931 . S
C545 C544 1.370 . S
C545 C549 1.408 . S
C546 C544 1.363 . S
C546 C547 1.370 . S
C546 C550 1.524 . S
C547 C539 1.503 . S
C547 C546 1.370 . S
C547 C548 1.403 . S
C548 C547 1.403 . S
C548 C549 1.404 . S
C548 C551 1.539 . S
C549 C545 1.408 . S
C549 C548 1.404 . S
C549 H561 0.930 . S
C550 C546 1.524 . S
C550 H562 0.956 . S
C550 H563 0.961 . S
C550 H564 0.961 . S
C551 C548 1.539 . S
C551 H565 0.958 . S
C551 H566 0.961 . S
C551 H567 0.960 . S
H552 C536 0.931 . S
H553 C541 0.929 . S
H554 C542 0.960 . S
H555 C542 0.962 . S
H556 C542 0.960 . S
H557 C543 0.961 . S
H558 C543 0.961 . S
H559 C543 0.961 . S
H560 C544 0.931 . S
H561 C549 0.930 . S
H562 C550 0.956 . S
H563 C550 0.961 . S
H564 C550 0.961 . S
H565 C551 0.958 . S
H566 C551 0.961 . S
H567 C551 0.960 . S
C568 C569 1.391 . S
C568 C570 1.394 . S
C568 H584 0.931 . S
C569 C568 1.391 . S
C569 C573 1.376 . S
C570 C568 1.394 . S
C570 C571 1.369 . S
C570 C574 1.531 . S
C571 C570 1.369 . S
C571 C572 1.410 . S
C571 C579 1.503 . S
C572 C571 1.410 . S
C572 C573 1.392 . S
C572 C575 1.511 1_556 S
C573 C569 1.376 . S
C573 C572 1.392 . S
C573 H585 0.929 1_556 S
C574 C570 1.531 . S
C574 H586 0.960 . S
C574 H587 0.962 . S
C574 H588 0.960 . S
C575 C572 1.511 1_554 S
C575 H589 0.961 . S
C575 H590 0.967 . S
C575 H591 0.961 . S
C576 C577 1.370 1_455 S
C576 C578 1.363 . S
C576 H592 0.931 . S
C577 C576 1.370 1_655 S
C577 C581 1.408 . S
C578 C576 1.363 . S
C578 C579 1.370 1_455 S
C578 C582 1.524 . S
C579 C571 1.503 . S
C579 C578 1.370 1_655 S
C579 C580 1.403 . S
C580 C579 1.403 . S
C580 C581 1.404 . S
C580 C583 1.539 . S
C581 C577 1.408 . S
C581 C580 1.404 . S
C581 H593 0.930 . S
C582 C578 1.524 . S
C582 H594 0.956 . S
C582 H595 0.961 . S
C582 H596 0.961 . S
C583 C580 1.539 . S
C583 H597 0.958 . S
C583 H598 0.961 . S
C583 H599 0.960 . S
H584 C568 0.931 . S
H585 C573 0.929 1_554 S
H586 C574 0.960 . S
H587 C574 0.962 . S
H588 C574 0.960 . S
H589 C575 0.961 . S
H590 C575 0.967 . S
H591 C575 0.961 . S
H592 C576 0.931 . S
H593 C581 0.930 . S
H594 C582 0.956 . S
H595 C582 0.961 . S
H596 C582 0.961 . S
H597 C583 0.958 . S
H598 C583 0.961 . S
H599 C583 0.960 . S
C600 C601 1.391 . S
C600 C602 1.394 . S
C600 H616 0.931 1_565 S
C601 C600 1.391 . S
C601 C605 1.376 . S
C602 C600 1.394 . S
C602 C603 1.369 . S
C602 C606 1.531 1_565 S
C603 C602 1.369 . S
C603 C604 1.410 . S
C603 C611 1.503 . S
C604 C603 1.410 . S
C604 C605 1.392 . S
C604 C607 1.511 . S
C605 C601 1.376 . S
C605 C604 1.392 . S
C605 H617 0.929 1_556 S
C606 C602 1.531 1_545 S
C606 H618 0.960 . S
C606 H619 0.962 . S
C606 H620 0.960 . S
C607 C604 1.511 . S
C607 H621 0.961 . S
C607 H622 0.961 . S
C607 H623 0.961 . S
C608 C609 1.370 1_545 S
C608 C610 1.363 1_545 S
C608 H624 0.931 . S
C609 C608 1.370 1_565 S
C609 C613 1.408 . S
C610 C608 1.363 1_565 S
C610 C611 1.370 . S
C610 C614 1.524 1_566 S
C611 C603 1.503 . S
C611 C610 1.370 . S
C611 C612 1.403 . S
C612 C611 1.403 . S
C612 C613 1.404 . S
C612 C615 1.539 . S
C613 C609 1.408 . S
C613 C612 1.404 . S
C613 H625 0.930 . S
C614 C610 1.524 1_544 S
C614 H626 0.956 . S
C614 H627 0.961 1_545 S
C614 H628 0.961 . S
C615 C612 1.539 . S
C615 H629 0.958 . S
C615 H630 0.961 . S
C615 H631 0.960 . S
H616 C600 0.931 1_545 S
H617 C605 0.929 1_554 S
H618 C606 0.960 . S
H619 C606 0.962 . S
H620 C606 0.960 . S
H621 C607 0.961 . S
H622 C607 0.961 . S
H623 C607 0.961 . S
H624 C608 0.931 . S
H625 C613 0.930 . S
H626 C614 0.956 . S
H627 C614 0.961 1_565 S
H628 C614 0.961 . S
H629 C615 0.958 . S
H630 C615 0.961 . S
H631 C615 0.960 . S
C632 C633 1.388 1_554 S
C632 C634 1.394 1_554 S
C632 H648 0.931 . S
C633 C632 1.388 1_556 S
C633 C637 1.382 . S
C634 C632 1.394 1_556 S
C634 C635 1.369 . S
C634 C638 1.531 1_556 S
C635 C634 1.369 . S
C635 C636 1.410 . S
C635 C643 1.503 . S
C636 C635 1.410 . S
C636 C637 1.392 . S
C636 C639 1.511 . S
C637 C633 1.382 . S
C637 C636 1.392 . S
C637 H649 0.929 . S
C638 C634 1.531 1_554 S
C638 H650 0.960 . S
C638 H651 0.962 1_554 S
C638 H652 0.960 . S
C639 C636 1.511 . S
C639 H653 0.961 . S
C639 H654 0.961 . S
C639 H655 0.961 . S
C640 C641 1.370 . S
C640 C642 1.363 . S
C640 H656 0.931 . S
C641 C640 1.370 . S
C641 C645 1.408 . S
C642 C640 1.363 . S
C642 C643 1.370 . S
C642 C646 1.524 . S
C643 C635 1.503 . S
C643 C642 1.370 . S
C643 C644 1.403 . S
C644 C643 1.403 . S
C644 C645 1.404 . S
C644 C647 1.539 1_556 S
C645 C641 1.408 . S
C645 C644 1.404 . S
C645 H657 0.930 . S
C646 C642 1.524 . S
C646 H658 0.956 . S
C646 H659 0.961 . S
C646 H660 0.961 . S
C647 C644 1.539 1_554 S
C647 H661 0.958 . S
C647 H662 0.961 . S
C647 H663 0.960 . S
H648 C632 0.931 . S
H649 C637 0.929 . S
H650 C638 0.960 . S
H651 C638 0.962 1_556 S
H652 C638 0.960 . S
H653 C639 0.961 . S
H654 C639 0.961 . S
H655 C639 0.961 . S
H656 C640 0.931 . S
H657 C645 0.930 . S
H658 C646 0.956 . S
H659 C646 0.961 . S
H660 C646 0.961 . S
H661 C647 0.958 . S
H662 C647 0.961 . S
H663 C647 0.960 . S
C664 C665 1.391 . S
C664 C666 1.394 . S
C664 H680 0.931 . S
C665 C664 1.391 . S
C665 C669 1.376 1_556 S
C666 C664 1.394 . S
C666 C667 1.369 . S
C666 C670 1.531 . S
C667 C666 1.369 . S
C667 C668 1.410 1_556 S
C667 C675 1.503 . S
C668 C667 1.410 1_554 S
C668 C669 1.392 . S
C668 C671 1.511 . S
C669 C665 1.376 1_554 S
C669 C668 1.392 . S
C669 H681 0.929 . S
C670 C666 1.531 . S
C670 H682 0.960 . S
C670 H683 0.962 . S
C670 H684 0.960 . S
C671 C668 1.511 . S
C671 H685 0.961 . S
C671 H686 0.961 . S
C671 H687 0.961 . S
C672 C673 1.370 . S
C672 C674 1.363 . S
C672 H688 0.931 . S
C673 C672 1.370 . S
C673 C677 1.408 . S
C674 C672 1.363 . S
C674 C675 1.370 . S
C674 C678 1.524 . S
C675 C667 1.503 . S
C675 C674 1.370 . S
C675 C676 1.403 . S
C676 C675 1.403 . S
C676 C677 1.404 . S
C676 C679 1.539 . S
C677 C673 1.408 . S
C677 C676 1.404 . S
C677 H689 0.930 . S
C678 C674 1.524 . S
C678 H690 0.956 . S
C678 H691 0.961 . S
C678 H692 0.961 . S
C679 C676 1.539 . S
C679 H693 0.958 . S
C679 H694 0.961 . S
C679 H695 0.960 . S
H680 C664 0.931 . S
H681 C669 0.929 . S
H682 C670 0.960 . S
H683 C670 0.962 . S
H684 C670 0.960 . S
H685 C671 0.961 . S
H686 C671 0.961 . S
H687 C671 0.961 . S
H688 C672 0.931 . S
H689 C677 0.930 . S
H690 C678 0.956 . S
H691 C678 0.961 . S
H692 C678 0.961 . S
H693 C679 0.958 . S
H694 C679 0.961 . S
H695 C679 0.960 . S
C696 C697 1.391 . S
C696 C698 1.394 . S
C696 H712 0.931 . S
C697 C696 1.391 . S
C697 C701 1.376 . S
C698 C696 1.394 . S
C698 C699 1.369 . S
C698 C702 1.531 . S
C699 C698 1.369 . S
C699 C700 1.410 . S
C699 C707 1.503 . S
C700 C699 1.410 . S
C700 C701 1.392 . S
C700 C703 1.511 1_455 S
C701 C697 1.376 . S
C701 C700 1.392 . S
C701 H713 0.929 . S
C702 C698 1.531 . S
C702 H714 0.960 . S
C702 H715 0.962 1_554 S
C702 H716 0.960 . S
C703 C700 1.511 1_655 S
C703 H717 0.961 . S
C703 H718 0.961 . S
C703 H719 0.961 1_655 S
C704 C705 1.370 . S
C704 C706 1.363 . S
C704 H720 0.931 . S
C705 C704 1.370 . S
C705 C709 1.408 1_556 S
C706 C704 1.363 . S
C706 C707 1.370 1_556 S
C706 C710 1.524 . S
C707 C699 1.503 . S
C707 C706 1.370 1_554 S
C707 C708 1.403 . S
C708 C707 1.403 . S
C708 C709 1.404 . S
C708 C711 1.539 . S
C709 C705 1.408 1_554 S
C709 C708 1.404 . S
C709 H721 0.930 . S
C710 C706 1.524 . S
C710 H722 0.956 . S
C710 H723 0.961 1_556 S
C710 H724 0.961 . S
C711 C708 1.539 . S
C711 H725 0.958 . S
C711 H726 0.961 . S
C711 H727 0.960 . S
H712 C696 0.931 . S
H713 C701 0.929 . S
H714 C702 0.960 . S
H715 C702 0.962 1_556 S
H716 C702 0.960 . S
H717 C703 0.961 . S
H718 C703 0.961 . S
H719 C703 0.961 1_455 S
H720 C704 0.931 . S
H721 C709 0.930 . S
H722 C710 0.956 . S
H723 C710 0.961 1_554 S
H724 C710 0.961 . S
H725 C711 0.958 . S
H726 C711 0.961 . S
H727 C711 0.960 . S
C728 C729 1.391 . S
C728 C730 1.394 . S
C728 H744 0.931 . S
C729 C728 1.391 . S
C729 C733 1.376 . S
C730 C728 1.394 . S
C730 C731 1.369 . S
C730 C734 1.531 1_554 S
C731 C730 1.369 . S
C731 C732 1.410 . S
C731 C739 1.503 . S
C732 C731 1.410 . S
C732 C733 1.392 . S
C732 C735 1.511 . S
C733 C729 1.376 . S
C733 C732 1.392 . S
C733 H745 0.929 . S
C734 C730 1.531 1_556 S
C734 H746 0.960 . S
C734 H747 0.962 . S
C734 H748 0.960 . S
C735 C732 1.511 . S
C735 H749 0.961 . S
C735 H750 0.961 . S
C735 H751 0.961 . S
C736 C737 1.370 . S
C736 C738 1.363 . S
C736 H752 0.931 1_545 S
C737 C736 1.370 . S
C737 C741 1.408 . S
C738 C736 1.363 . S
C738 C739 1.370 1_556 S
C738 C742 1.524 1_546 S
C739 C731 1.503 . S
C739 C738 1.370 1_554 S
C739 C740 1.403 1_554 S
C740 C739 1.403 1_556 S
C740 C741 1.404 . S
C740 C743 1.539 . S
C741 C737 1.408 . S
C741 C740 1.404 . S
C741 H753 0.930 . S
C742 C738 1.524 1_564 S
C742 H754 0.956 . S
C742 H755 0.961 . S
C742 H756 0.961 . S
C743 C740 1.539 . S
C743 H757 0.958 . S
C743 H758 0.961 . S
C743 H759 0.960 1_556 S
H744 C728 0.931 . S
H745 C733 0.929 . S
H746 C734 0.960 . S
H747 C734 0.962 . S
H748 C734 0.960 . S
H749 C735 0.961 . S
H750 C735 0.961 . S
H751 C735 0.961 . S
H752 C736 0.931 1_565 S
H753 C741 0.930 . S
H754 C742 0.956 . S
H755 C742 0.961 . S
H756 C742 0.961 . S
H757 C743 0.958 . S
H758 C743 0.961 . S
H759 C743 0.960 1_554 S
C760 C761 1.391 . S
C760 C762 1.394 . S
C760 H776 0.931 . S
C761 C760 1.391 . S
C761 C765 1.376 . S
C762 C760 1.394 . S
C762 C763 1.369 . S
C762 C766 1.531 1_554 S
C763 C762 1.369 . S
C763 C764 1.410 . S
C763 C771 1.503 . S
C764 C763 1.410 . S
C764 C765 1.392 . S
C764 C767 1.511 . S
C765 C761 1.376 . S
C765 C764 1.392 . S
C765 H777 0.929 . S
C766 C762 1.531 1_556 S
C766 H778 0.960 . S
C766 H779 0.962 . S
C766 H780 0.960 . S
C767 C764 1.511 . S
C767 H781 0.961 . S
C767 H782 0.961 . S
C767 H783 0.961 . S
C768 C769 1.370 . S
C768 C770 1.363 . S
C768 H784 0.931 . S
C769 C768 1.370 . S
C769 C773 1.408 . S
C770 C768 1.363 . S
C770 C771 1.370 1_556 S
C770 C774 1.524 . S
C771 C763 1.503 . S
C771 C770 1.370 1_554 S
C771 C772 1.403 . S
C772 C771 1.403 . S
C772 C773 1.404 1_554 S
C772 C775 1.539 . S
C773 C769 1.408 . S
C773 C772 1.404 1_556 S
C773 H785 0.930 . S
C774 C770 1.524 . S
C774 H786 0.956 . S
C774 H787 0.961 . S
C774 H788 0.961 . S
C775 C772 1.539 . S
C775 H789 0.958 . S
C775 H790 0.961 . S
C775 H791 0.960 . S
H776 C760 0.931 . S
H777 C765 0.929 . S
H778 C766 0.960 . S
H779 C766 0.962 . S
H780 C766 0.960 . S
H781 C767 0.961 . S
H782 C767 0.961 . S
H783 C767 0.961 . S
H784 C768 0.931 . S
H785 C773 0.930 . S
H786 C774 0.956 . S
H787 C774 0.961 . S
H788 C774 0.961 . S
H789 C775 0.958 . S
H790 C775 0.961 . S
H791 C775 0.960 . S
C792 C793 1.391 . S
C792 C794 1.394 . S
C792 H808 0.931 . S
C793 C792 1.391 . S
C793 C797 1.376 . S
C794 C792 1.394 . S
C794 C795 1.369 . S
C794 C798 1.531 . S
C795 C794 1.369 . S
C795 C796 1.410 . S
C795 C803 1.503 . S
C796 C795 1.410 . S
C796 C797 1.392 . S
C796 C799 1.511 . S
C797 C793 1.376 . S
C797 C796 1.392 . S
C797 H809 0.929 . S
C798 C794 1.531 . S
C798 H810 0.960 . S
C798 H811 0.962 1_554 S
C798 H812 0.960 . S
C799 C796 1.511 . S
C799 H813 0.961 . S
C799 H814 0.961 . S
C799 H815 0.961 . S
C800 C801 1.370 . S
C800 C802 1.363 . S
C800 H816 0.931 . S
C801 C800 1.370 . S
C801 C805 1.408 1_556 S
C802 C800 1.363 . S
C802 C803 1.370 1_556 S
C802 C806 1.524 . S
C803 C795 1.503 . S
C803 C802 1.370 1_554 S
C803 C804 1.403 . S
C804 C803 1.403 . S
C804 C805 1.404 . S
C804 C807 1.539 . S
C805 C801 1.408 1_554 S
C805 C804 1.404 . S
C805 H817 0.930 . S
C806 C802 1.524 . S
C806 H818 0.956 . S
C806 H819 0.961 . S
C806 H820 0.961 . S
C807 C804 1.539 . S
C807 H821 0.958 . S
C807 H822 0.961 . S
C807 H823 0.960 . S
H808 C792 0.931 . S
H809 C797 0.929 . S
H810 C798 0.960 . S
H811 C798 0.962 1_556 S
H812 C798 0.960 . S
H813 C799 0.961 . S
H814 C799 0.961 . S
H815 C799 0.961 . S
H816 C800 0.931 . S
H817 C805 0.930 . S
H818 C806 0.956 . S
H819 C806 0.961 . S
H820 C806 0.961 . S
H821 C807 0.958 . S
H822 C807 0.961 . S
H823 C807 0.960 . S
C824 C825 1.391 . S
C824 C826 1.394 . S
C824 H840 0.931 . S
C825 C824 1.391 . S
C825 C829 1.376 . S
C826 C824 1.394 . S
C826 C827 1.369 . S
C826 C830 1.531 . S
C827 C826 1.369 . S
C827 C828 1.410 . S
C827 C835 1.503 . S
C828 C827 1.410 . S
C828 C829 1.392 . S
C828 C831 1.511 1_655 S
C829 C825 1.376 . S
C829 C828 1.392 . S
C829 H841 0.929 . S
C830 C826 1.531 . S
C830 H842 0.960 . S
C830 H843 0.962 . S
C830 H844 0.960 . S
C831 C828 1.511 1_455 S
C831 H845 0.961 . S
C831 H846 0.961 . S
C831 H847 0.961 . S
C832 C833 1.370 . S
C832 C834 1.363 . S
C832 H848 0.931 . S
C833 C832 1.370 . S
C833 C837 1.408 . S
C834 C832 1.363 . S
C834 C835 1.370 . S
C834 C838 1.524 . S
C835 C827 1.503 . S
C835 C834 1.370 . S
C835 C836 1.403 . S
C836 C835 1.403 . S
C836 C837 1.404 . S
C836 C839 1.539 1_655 S
C837 C833 1.408 . S
C837 C836 1.404 . S
C837 H849 0.930 1_655 S
C838 C834 1.524 . S
C838 H850 0.956 . S
C838 H851 0.961 . S
C838 H852 0.961 . S
C839 C836 1.539 1_455 S
C839 H853 0.958 1_455 S
C839 H854 0.961 . S
C839 H855 0.960 . S
H840 C824 0.931 . S
H841 C829 0.929 . S
H842 C830 0.960 . S
H843 C830 0.962 . S
H844 C830 0.960 . S
H845 C831 0.961 . S
H846 C831 0.961 . S
H847 C831 0.961 . S
H848 C832 0.931 . S
H849 C837 0.930 1_455 S
H850 C838 0.956 . S
H851 C838 0.961 . S
H852 C838 0.961 . S
H853 C839 0.958 1_655 S
H854 C839 0.961 . S
H855 C839 0.960 . S
C856 C857 1.391 . S
C856 C858 1.394 . S
C856 H872 0.931 . S
C857 C856 1.391 . S
C857 C861 1.376 . S
C858 C856 1.394 . S
C858 C859 1.369 . S
C858 C862 1.531 . S
C859 C858 1.369 . S
C859 C860 1.410 . S
C859 C867 1.503 . S
C860 C859 1.410 . S
C860 C861 1.392 . S
C860 C863 1.511 . S
C861 C857 1.376 . S
C861 C860 1.392 . S
C861 H873 0.929 . S
C862 C858 1.531 . S
C862 H874 0.960 . S
C862 H875 0.962 . S
C862 H876 0.960 . S
C863 C860 1.511 . S
C863 H877 0.961 . S
C863 H878 0.961 . S
C863 H879 0.961 . S
C864 C865 1.370 1_545 S
C864 C866 1.363 . S
C864 H880 0.931 . S
C865 C864 1.370 1_565 S
C865 C869 1.408 . S
C866 C864 1.363 . S
C866 C867 1.370 1_545 S
C866 C870 1.524 . S
C867 C859 1.503 . S
C867 C866 1.370 1_565 S
C867 C868 1.403 . S
C868 C867 1.403 . S
C868 C869 1.404 . S
C868 C871 1.539 . S
C869 C865 1.408 . S
C869 C868 1.404 . S
C869 H881 0.930 . S
C870 C866 1.524 . S
C870 H882 0.956 . S
C870 H883 0.961 . S
C870 H884 0.961 . S
C871 C868 1.539 . S
C871 H885 0.958 . S
C871 H886 0.961 . S
C871 H887 0.960 . S
H872 C856 0.931 . S
H873 C861 0.929 . S
H874 C862 0.960 . S
H875 C862 0.962 . S
H876 C862 0.960 . S
H877 C863 0.961 . S
H878 C863 0.961 . S
H879 C863 0.961 . S
H880 C864 0.931 . S
H881 C869 0.930 . S
H882 C870 0.956 . S
H883 C870 0.961 . S
H884 C870 0.961 . S
H885 C871 0.958 . S
H886 C871 0.961 . S
H887 C871 0.960 . S
C888 C889 1.391 . S
C888 C890 1.394 . S
C888 H904 0.931 . S
C889 C888 1.391 . S
C889 C893 1.376 . S
C890 C888 1.394 . S
C890 C891 1.369 . S
C890 C894 1.531 . S
C891 C890 1.369 . S
C891 C892 1.410 . S
C891 C899 1.503 . S
C892 C891 1.410 . S
C892 C893 1.392 . S
C892 C895 1.511 . S
C893 C889 1.376 . S
C893 C892 1.392 . S
C893 H905 0.929 . S
C894 C890 1.531 . S
C894 H906 0.960 . S
C894 H907 0.962 . S
C894 H908 0.960 . S
C895 C892 1.511 . S
C895 H909 0.961 . S
C895 H910 0.961 . S
C895 H911 0.961 . S
C896 C897 1.370 . S
C896 C898 1.363 . S
C896 H912 0.931 . S
C897 C896 1.370 . S
C897 C901 1.408 . S
C898 C896 1.363 . S
C898 C899 1.370 . S
C898 C902 1.524 . S
C899 C891 1.503 . S
C899 C898 1.370 . S
C899 C900 1.403 . S
C900 C899 1.403 . S
C900 C901 1.404 . S
C900 C903 1.539 . S
C901 C897 1.408 . S
C901 C900 1.404 . S
C901 H913 0.930 . S
C902 C898 1.524 . S
C902 H914 0.956 . S
C902 H915 0.961 . S
C902 H916 0.961 . S
C903 C900 1.539 . S
C903 H917 0.958 . S
C903 H918 0.961 . S
C903 H919 0.960 . S
H904 C888 0.931 . S
H905 C893 0.929 . S
H906 C894 0.960 . S
H907 C894 0.962 . S
H908 C894 0.960 . S
H909 C895 0.961 . S
H910 C895 0.961 . S
H911 C895 0.961 . S
H912 C896 0.931 . S
H913 C901 0.930 . S
H914 C902 0.956 . S
H915 C902 0.961 . S
H916 C902 0.961 . S
H917 C903 0.958 . S
H918 C903 0.961 . S
H919 C903 0.960 . S
C920 C921 1.391 . S
C920 C922 1.394 . S
C920 H936 0.931 . S
C921 C920 1.391 . S
C921 C925 1.376 . S
C922 C920 1.394 . S
C922 C923 1.369 . S
C922 C926 1.531 . S
C923 C922 1.369 . S
C923 C924 1.410 . S
C923 C931 1.503 . S
C924 C923 1.410 . S
C924 C925 1.392 . S
C924 C927 1.511 . S
C925 C921 1.376 . S
C925 C924 1.392 . S
C925 H937 0.929 . S
C926 C922 1.531 . S
C926 H938 0.960 . S
C926 H939 0.962 . S
C926 H940 0.960 . S
C927 C924 1.511 . S
C927 H941 0.961 . S
C927 H942 0.961 . S
C927 H943 0.961 . S
C928 C929 1.370 . S
C928 C930 1.363 . S
C928 H944 0.931 . S
C929 C928 1.370 . S
C929 C933 1.408 . S
C930 C928 1.363 . S
C930 C931 1.370 . S
C930 C934 1.524 . S
C931 C923 1.503 . S
C931 C930 1.370 . S
C931 C932 1.403 . S
C932 C931 1.403 . S
C932 C933 1.404 . S
C932 C935 1.539 . S
C933 C929 1.408 . S
C933 C932 1.404 . S
C933 H945 0.930 . S
C934 C930 1.524 . S
C934 H946 0.956 . S
C934 H947 0.961 . S
C934 H948 0.961 . S
C935 C932 1.539 . S
C935 H949 0.958 . S
C935 H950 0.961 . S
C935 H951 0.960 . S
H936 C920 0.931 . S
H937 C925 0.929 . S
H938 C926 0.960 . S
H939 C926 0.962 . S
H940 C926 0.960 . S
H941 C927 0.961 . S
H942 C927 0.961 . S
H943 C927 0.961 . S
H944 C928 0.931 . S
H945 C933 0.930 . S
H946 C934 0.956 . S
H947 C934 0.961 . S
H948 C934 0.961 . S
H949 C935 0.958 . S
H950 C935 0.961 . S
H951 C935 0.960 . S
C185 N80 1.572 . S
C193 C105 1.594 . S
C225 C140 1.569 . S
C217 N93 1.538 . S
C257 C145 1.351 . S
C249 N54 1.330 . S
C289 C165 1.463 . S
C281 N67 1.451 . S
C321 C113 1.594 1_565 S
C313 N28 1.587 1_556 S
C345 N41 1.542 . S
C353 C130 1.563 . S
C377 N2 1.355 . S
C385 C153 1.358 . S
C409 N15 1.451 . S
C417 C173 1.465 1_655 S
C449 C123 1.197 . S
C441 N70 1.211 . S
C481 C132 0.976 . S
C473 N83 0.990 . S
C513 C163 1.232 . S
C505 N96 1.228 . S
C537 N57 0.974 . S
C545 C183 0.949 . S
C569 N18 1.241 . S
C577 C112 1.198 1_655 S
C609 C143 0.976 1_565 S
C601 N31 0.985 1_556 S
C641 C152 1.231 . S
C633 N44 1.239 1_556 S
C665 N5 0.995 1_556 S
C673 C172 0.961 . S
C697 N66 1.465 . S
C705 C110 1.446 . S
C729 N79 1.489 . S
C737 C133 1.496 . S
C769 C150 1.530 . S
C761 N92 1.535 . S
C801 C170 1.553 . S
C793 N53 1.567 . S
C825 N14 1.483 . S
C833 C120 1.462 . S
C865 C125 1.495 1_565 S
C857 N27 1.492 . S
C897 C160 1.539 . S
C889 N40 1.550 . S
C921 N1 1.578 . S
C929 C180 1.564 . S
