# Generated by pormake.
# Topology ctn, (3,4)-cn, num edge types: 1
# Building blocks:
#     Node 0, Type 0, BuildingBlock: VETTIZ_charged_linker_0, # of connection points: 3
#     Node 1, Type 0, BuildingBlock: VETTIZ_charged_linker_0, # of connection points: 3
#     Node 2, Type 0, BuildingBlock: VETTIZ_charged_linker_0, # of connection points: 3
#     Node 3, Type 0, BuildingBlock: VETTIZ_charged_linker_0, # of connection points: 3
#     Node 4, Type 0, BuildingBlock: VETTIZ_charged_linker_0, # of connection points: 3
#     Node 5, Type 0, BuildingBlock: VETTIZ_charged_linker_0, # of connection points: 3
#     Node 6, Type 0, BuildingBlock: VETTIZ_charged_linker_0, # of connection points: 3
#     Node 7, Type 0, BuildingBlock: VETTIZ_charged_linker_0, # of connection points: 3
#     Node 8, Type 0, BuildingBlock: VETTIZ_charged_linker_0, # of connection points: 3
#     Node 9, Type 0, BuildingBlock: VETTIZ_charged_linker_0, # of connection points: 3
#     Node 10, Type 0, BuildingBlock: VETTIZ_charged_linker_0, # of connection points: 3
#     Node 11, Type 0, BuildingBlock: VETTIZ_charged_linker_0, # of connection points: 3
#     Node 12, Type 0, BuildingBlock: VETTIZ_charged_linker_0, # of connection points: 3
#     Node 13, Type 0, BuildingBlock: VETTIZ_charged_linker_0, # of connection points: 3
#     Node 14, Type 0, BuildingBlock: VETTIZ_charged_linker_0, # of connection points: 3
#     Node 15, Type 0, BuildingBlock: VETTIZ_charged_linker_0, # of connection points: 3
#     Node 16, Type 1, BuildingBlock: TATPOV_clean_sbu_0, # of connection points: 4
#     Node 17, Type 1, BuildingBlock: TATPOV_clean_sbu_0, # of connection points: 4
#     Node 18, Type 1, BuildingBlock: TATPOV_clean_sbu_0, # of connection points: 4
#     Node 19, Type 1, BuildingBlock: TATPOV_clean_sbu_0, # of connection points: 4
#     Node 20, Type 1, BuildingBlock: TATPOV_clean_sbu_0, # of connection points: 4
#     Node 21, Type 1, BuildingBlock: TATPOV_clean_sbu_0, # of connection points: 4
#     Node 22, Type 1, BuildingBlock: TATPOV_clean_sbu_0, # of connection points: 4
#     Node 23, Type 1, BuildingBlock: TATPOV_clean_sbu_0, # of connection points: 4
#     Node 24, Type 1, BuildingBlock: TATPOV_clean_sbu_0, # of connection points: 4
#     Node 25, Type 1, BuildingBlock: TATPOV_clean_sbu_0, # of connection points: 4
#     Node 26, Type 1, BuildingBlock: TATPOV_clean_sbu_0, # of connection points: 4
#     Node 27, Type 1, BuildingBlock: TATPOV_clean_sbu_0, # of connection points: 4
#     Edge 28, Type (0, 1), BuildingBlock: UVAHIK_clean_linker_0, # of connection points: 2
#     Edge 29, Type (0, 1), BuildingBlock: UVAHIK_clean_linker_0, # of connection points: 2
#     Edge 30, Type (0, 1), BuildingBlock: UVAHIK_clean_linker_0, # of connection points: 2
#     Edge 31, Type (0, 1), BuildingBlock: UVAHIK_clean_linker_0, # of connection points: 2
#     Edge 32, Type (0, 1), BuildingBlock: UVAHIK_clean_linker_0, # of connection points: 2
#     Edge 33, Type (0, 1), BuildingBlock: UVAHIK_clean_linker_0, # of connection points: 2
#     Edge 34, Type (0, 1), BuildingBlock: UVAHIK_clean_linker_0, # of connection points: 2
#     Edge 35, Type (0, 1), BuildingBlock: UVAHIK_clean_linker_0, # of connection points: 2
#     Edge 36, Type (0, 1), BuildingBlock: UVAHIK_clean_linker_0, # of connection points: 2
#     Edge 37, Type (0, 1), BuildingBlock: UVAHIK_clean_linker_0, # of connection points: 2
#     Edge 38, Type (0, 1), BuildingBlock: UVAHIK_clean_linker_0, # of connection points: 2
#     Edge 39, Type (0, 1), BuildingBlock: UVAHIK_clean_linker_0, # of connection points: 2
#     Edge 40, Type (0, 1), BuildingBlock: UVAHIK_clean_linker_0, # of connection points: 2
#     Edge 41, Type (0, 1), BuildingBlock: UVAHIK_clean_linker_0, # of connection points: 2
#     Edge 42, Type (0, 1), BuildingBlock: UVAHIK_clean_linker_0, # of connection points: 2
#     Edge 43, Type (0, 1), BuildingBlock: UVAHIK_clean_linker_0, # of connection points: 2
#     Edge 44, Type (0, 1), BuildingBlock: UVAHIK_clean_linker_0, # of connection points: 2
#     Edge 45, Type (0, 1), BuildingBlock: UVAHIK_clean_linker_0, # of connection points: 2
#     Edge 46, Type (0, 1), BuildingBlock: UVAHIK_clean_linker_0, # of connection points: 2
#     Edge 47, Type (0, 1), BuildingBlock: UVAHIK_clean_linker_0, # of connection points: 2
#     Edge 48, Type (0, 1), BuildingBlock: UVAHIK_clean_linker_0, # of connection points: 2
#     Edge 49, Type (0, 1), BuildingBlock: UVAHIK_clean_linker_0, # of connection points: 2
#     Edge 50, Type (0, 1), BuildingBlock: UVAHIK_clean_linker_0, # of connection points: 2
#     Edge 51, Type (0, 1), BuildingBlock: UVAHIK_clean_linker_0, # of connection points: 2
#     Edge 52, Type (0, 1), BuildingBlock: UVAHIK_clean_linker_0, # of connection points: 2
#     Edge 53, Type (0, 1), BuildingBlock: UVAHIK_clean_linker_0, # of connection points: 2
#     Edge 54, Type (0, 1), BuildingBlock: UVAHIK_clean_linker_0, # of connection points: 2
#     Edge 55, Type (0, 1), BuildingBlock: UVAHIK_clean_linker_0, # of connection points: 2
#     Edge 56, Type (0, 1), BuildingBlock: UVAHIK_clean_linker_0, # of connection points: 2
#     Edge 57, Type (0, 1), BuildingBlock: UVAHIK_clean_linker_0, # of connection points: 2
#     Edge 58, Type (0, 1), BuildingBlock: UVAHIK_clean_linker_0, # of connection points: 2
#     Edge 59, Type (0, 1), BuildingBlock: UVAHIK_clean_linker_0, # of connection points: 2
#     Edge 60, Type (0, 1), BuildingBlock: UVAHIK_clean_linker_0, # of connection points: 2
#     Edge 61, Type (0, 1), BuildingBlock: UVAHIK_clean_linker_0, # of connection points: 2
#     Edge 62, Type (0, 1), BuildingBlock: UVAHIK_clean_linker_0, # of connection points: 2
#     Edge 63, Type (0, 1), BuildingBlock: UVAHIK_clean_linker_0, # of connection points: 2
#     Edge 64, Type (0, 1), BuildingBlock: UVAHIK_clean_linker_0, # of connection points: 2
#     Edge 65, Type (0, 1), BuildingBlock: UVAHIK_clean_linker_0, # of connection points: 2
#     Edge 66, Type (0, 1), BuildingBlock: UVAHIK_clean_linker_0, # of connection points: 2
#     Edge 67, Type (0, 1), BuildingBlock: UVAHIK_clean_linker_0, # of connection points: 2
#     Edge 68, Type (0, 1), BuildingBlock: UVAHIK_clean_linker_0, # of connection points: 2
#     Edge 69, Type (0, 1), BuildingBlock: UVAHIK_clean_linker_0, # of connection points: 2
#     Edge 70, Type (0, 1), BuildingBlock: UVAHIK_clean_linker_0, # of connection points: 2
#     Edge 71, Type (0, 1), BuildingBlock: UVAHIK_clean_linker_0, # of connection points: 2
#     Edge 72, Type (0, 1), BuildingBlock: UVAHIK_clean_linker_0, # of connection points: 2
#     Edge 73, Type (0, 1), BuildingBlock: UVAHIK_clean_linker_0, # of connection points: 2
#     Edge 74, Type (0, 1), BuildingBlock: UVAHIK_clean_linker_0, # of connection points: 2
#     Edge 75, Type (0, 1), BuildingBlock: UVAHIK_clean_linker_0, # of connection points: 2
# Relax obj value: 0.003
# Max RMSD: 0.049
# Mean RMSD: 0.021
data_MOF--net-ctn--node1-TATPOV_clean_sbu_0--node2-VETTIZ_charged_linker_0--edge1-UVAHIK_clean_linker_0
_symmetry_space_group_name_H-M    P1
_symmetry_Int_Tables_number       1
_symmetry_cell_setting            triclinic
loop_
_symmetry_equiv_pos_as_xyz
'x, y, z'
_cell_length_a     83.157015
_cell_length_b     83.133958
_cell_length_c     83.169256
_cell_angle_alpha  90.912092
_cell_angle_beta   90.922776
_cell_angle_gamma 90.90369
loop_
_atom_site_label
_atom_site_type_symbol
_atom_site_fract_x
_atom_site_fract_y
_atom_site_fract_z
_atom_type_partial_charge
C0 C 0.03667 0.07138 0.9906 0.0
C1 C 0.0248 0.08321 0.99177 0.0
C2 C 0.01365 0.08229 0.00435 0.0
C3 C 0.02632 0.05825 0.01428 0.0
C4 C 0.03719 0.05907 0.00192 0.0
C5 C 0.04906 0.0456 0.00242 0.0
H6 H 0.07697 0.979 0.03877 0.0
C7 C 0.03017 0.04403 0.02399 0.0
C8 C 0.04346 0.03653 0.01708 0.0
H9 H 0.09503 0.00212 0.99631 0.0
H10 H 0.07448 0.02211 0.99821 0.0
H11 H 0.07056 0.01176 0.05896 0.0
H12 H 0.03959 0.98157 0.02893 0.0
H13 H 0.02835 0.98771 0.04557 0.0
H14 H 0.04599 0.97569 0.04866 0.0
H15 H 0.06408 0.992 0.06473 0.0
H16 H 0.0521 0.00944 0.06874 0.0
C17 C 0.06611 0.05308 0.00501 0.0
C18 C 0.04689 0.03539 0.98676 0.0
C19 C 0.99701 0.03133 0.07312 0.0
C20 C 0.99749 0.01892 0.0844 0.0
C21 C 0.0091 0.00684 0.08274 0.0
C22 C 0.02015 0.00723 0.07017 0.0
C23 C 0.01958 0.01978 0.05906 0.0
C24 C 0.00807 0.0315 0.0606 0.0
C25 C 0.00902 0.04375 0.04753 0.0
C26 C 0.02309 0.03756 0.03796 0.0
C27 C 0.02929 0.02356 0.04479 0.0
C28 C 0.01282 0.06038 0.0555 0.0
C29 C 0.99305 0.04289 0.03763 0.0
C30 C 0.07642 0.98829 0.0298 0.0
C31 C 0.08774 0.98898 0.01741 0.0
C32 C 0.08665 0.00142 0.00612 0.0
C33 C 0.07463 0.01299 0.00719 0.0
C34 C 0.06348 0.01219 0.01968 0.0
C35 C 0.06447 -3e-05 0.0307 0.0
C36 C 0.05158 0.00106 0.04317 0.0
C37 C 0.04275 0.01596 0.03782 0.0
C38 C 0.04979 0.02242 0.02405 0.0
C39 C 0.05989 0.00359 0.05984 0.0
C40 C 0.04081 0.98571 0.04169 0.0
H41 H 0.00551 0.06993 0.02482 0.0
H42 H 0.04553 0.07179 0.9812 0.0
H43 H 0.03402 0.03473 0.98289 0.0
H44 H 0.05041 0.02274 0.98821 0.0
H45 H 0.0538 0.0407 0.97677 0.0
H46 H 0.06574 0.06389 0.01306 0.0
H47 H 0.07131 0.05689 0.99343 0.0
H48 H 0.07453 0.04491 0.01105 0.0
H49 H 0.98809 0.04065 0.0739 0.0
H50 H 0.00979 0.99721 0.09133 0.0
H51 H 0.02874 0.99775 0.06963 0.0
H52 H 0.02139 0.05919 0.06581 0.0
H53 H 0.00174 0.06596 0.06016 0.0
H54 H 0.01878 0.06885 0.04733 0.0
H55 H 0.98804 0.0304 0.03711 0.0
H56 H 0.9946 0.04615 0.02492 0.0
H57 H 0.98382 0.05072 0.04306 0.0
H58 H 0.00423 0.09107 0.00543 0.0
C59 C 0.01435 0.06992 0.01557 0.0
C60 C 0.23649 0.66762 0.24106 0.0
C61 C 0.2221 0.66422 0.23245 0.0
C62 C 0.21715 0.67485 0.22035 0.0
C63 C 0.24079 0.69172 0.22547 0.0
C64 C 0.24559 0.68135 0.23738 0.0
C65 C 0.26122 0.68663 0.24532 0.0
H66 H 0.32514 0.73789 0.24837 0.0
C67 C 0.253 0.70477 0.22458 0.0
C68 C 0.26498 0.70188 0.23622 0.0
H69 H 0.31581 0.69688 0.27847 0.0
H70 H 0.29048 0.69204 0.26472 0.0
H71 H 0.29025 0.75196 0.25132 0.0
H72 H 0.31129 0.72216 0.21472 0.0
H73 H 0.30081 0.73779 0.20533 0.0
H74 H 0.3174 0.74267 0.21875 0.0
H75 H 0.30316 0.76025 0.23639 0.0
H76 H 0.28175 0.7578 0.23292 0.0
C77 C 0.25808 0.69015 0.26335 0.0
C78 C 0.27373 0.67337 0.24216 0.0
C79 C 0.24709 0.74803 0.18253 0.0
C80 C 0.25644 0.76165 0.17877 0.0
C81 C 0.27028 0.76542 0.18817 0.0
C82 C 0.275 0.7555 0.20083 0.0
C83 C 0.26573 0.74171 0.20421 0.0
C84 C 0.25189 0.73833 0.19529 0.0
C85 C 0.24327 0.72345 0.20088 0.0
C86 C 0.25434 0.71832 0.21449 0.0
C87 C 0.26756 0.72895 0.21627 0.0
C88 C 0.22652 0.72839 0.20702 0.0
C89 C 0.24277 0.711 0.1868 0.0
C90 C 0.31761 0.72795 0.25215 0.0
C91 C 0.32269 0.71767 0.26448 0.0
C92 C 0.31246 0.70479 0.26881 0.0
C93 C 0.29766 0.70206 0.26087 0.0
C94 C 0.2929 0.71231 0.24845 0.0
C95 C 0.30272 0.72512 0.24443 0.0
C96 C 0.29546 0.73509 0.23131 0.0
C97 C 0.27979 0.72593 0.22791 0.0
C98 C 0.27844 0.71254 0.2379 0.0
C99 C 0.29256 0.75222 0.23819 0.0
C100 C 0.30679 0.73456 0.21672 0.0
H101 H 0.22199 0.6961 0.20744 0.0
H102 H 0.24055 0.65984 0.25057 0.0
H103 H 0.27228 0.66832 0.22974 0.0
H104 H 0.28627 0.67787 0.24292 0.0
H105 H 0.27226 0.6633 0.25065 0.0
H106 H 0.24575 0.69481 0.2651 0.0
H107 H 0.25923 0.6791 0.27059 0.0
H108 H 0.26615 0.69965 0.26851 0.0
H109 H 0.23627 0.74496 0.17565 0.0
H110 H 0.27771 0.77581 0.18543 0.0
H111 H 0.28579 0.75885 0.20737 0.0
H112 H 0.227 0.74066 0.21257 0.0
H113 H 0.2175 0.72849 0.19703 0.0
H114 H 0.22206 0.72054 0.21663 0.0
H115 H 0.25419 0.71141 0.18001 0.0
H116 H 0.24162 0.69846 0.19083 0.0
H117 H 0.23279 0.71349 0.17822 0.0
H118 H 0.20622 0.67244 0.21341 0.0
C119 C 0.22639 0.68856 0.21683 0.0
C120 C 0.97454 0.40226 0.02149 0.0
C121 C 0.96274 0.39585 0.01075 0.0
C122 C 0.94769 0.40345 0.00976 0.0
C123 C 0.95648 0.4234 0.02971 0.0
C124 C 0.97109 0.41582 0.03092 0.0
C125 C 0.98207 0.42363 0.04339 0.0
H126 H 0.99301 0.47869 0.10333 0.0
C127 C 0.95671 0.43705 0.0413 0.0
C128 C 0.97158 0.43711 0.04952 0.0
H129 H 0.02696 0.44388 0.08566 0.0
H130 H 0.00779 0.43492 0.06535 0.0
H131 H 0.96167 0.45738 0.10085 0.0
H132 H 0.98273 0.49006 0.06719 0.0
H133 H 0.9619 0.49298 0.06659 0.0
H134 H 0.97298 0.49687 0.08508 0.0
H135 H 0.9612 0.47882 0.10365 0.0
H136 H 0.94587 0.4681 0.092 0.0
C137 C 0.98557 0.4111 0.05654 0.0
C138 C 0.99722 0.43017 0.03486 0.0
C139 C 0.91041 0.47612 0.04223 0.0
C140 C 0.90717 0.48981 0.05178 0.0
C141 C 0.91763 0.4937 0.06486 0.0
C142 C 0.93139 0.48465 0.06788 0.0
C143 C 0.93477 0.47146 0.05779 0.0
C144 C 0.92412 0.46711 0.04552 0.0
C145 C 0.92924 0.45222 0.03656 0.0
C146 C 0.94523 0.44898 0.04488 0.0
C147 C 0.94843 0.46035 0.05722 0.0
C148 C 0.91664 0.43864 0.03942 0.0
C149 C 0.93141 0.45647 0.01866 0.0
C150 C 0.99648 0.46929 0.09498 0.0
C151 C 0.01153 0.46186 0.09636 0.0
C152 C 0.01534 0.44957 0.08521 0.0
C153 C 0.0042 0.44441 0.07334 0.0
C154 C 0.98908 0.45166 0.07245 0.0
C155 C 0.98557 0.46412 0.08292 0.0
C156 C 0.96925 0.47098 0.07963 0.0
C157 C 0.96332 0.4602 0.0658 0.0
C158 C 0.97493 0.44882 0.06176 0.0
C159 C 0.95889 0.46887 0.0948 0.0
C160 C 0.97168 0.48868 0.07445 0.0
H161 H 0.93292 0.42245 0.01772 0.0
H162 H 0.98632 0.39698 0.02249 0.0
H163 H 0.99427 0.43392 0.02239 0.0
H164 H 0.00238 0.44111 0.04079 0.0
H165 H 0.00664 0.42087 0.03409 0.0
H166 H 0.97456 0.40387 0.05909 0.0
H167 H 0.99501 0.40264 0.05264 0.0
H168 H 0.98925 0.41659 0.06821 0.0
H169 H 0.90274 0.47269 0.03207 0.0
H170 H 0.91525 0.50383 0.07276 0.0
H171 H 0.93894 0.48837 0.07788 0.0
H172 H 0.90992 0.44075 0.0507 0.0
H173 H 0.90767 0.43775 0.0294 0.0
H174 H 0.92226 0.42678 0.04104 0.0
H175 H 0.93813 0.46808 0.01761 0.0
H176 H 0.9384 0.44749 0.01196 0.0
H177 H 0.91957 0.45773 0.01247 0.0
H178 H 0.93822 0.39869 0.00188 0.0
C179 C 0.94454 0.41719 0.0191 0.0
C180 C 0.68554 0.76584 0.25684 0.0
C181 C 0.6759 0.75178 0.25614 0.0
C182 C 0.67936 0.73975 0.24461 0.0
C183 C 0.70116 0.75622 0.23435 0.0
C184 C 0.69794 0.76784 0.24587 0.0
C185 C 0.70869 0.78244 0.24464 0.0
H186 H 0.76929 0.82145 0.20766 0.0
C187 C 0.71456 0.76233 0.22453 0.0
C188 C 0.71901 0.77767 0.23055 0.0
H189 H 0.73988 0.83858 0.24668 0.0
H190 H 0.7254 0.81338 0.24663 0.0
H191 H 0.73951 0.80638 0.18733 0.0
H192 H 0.7737 0.78554 0.21997 0.0
H193 H 0.77059 0.77165 0.20404 0.0
H194 H 0.77892 0.79134 0.2 0.0
H195 H 0.76009 0.80319 0.18212 0.0
H196 H 0.74486 0.78774 0.179 0.0
C197 C 0.69803 0.79711 0.2408 0.0
C198 C 0.7187 0.78417 0.26046 0.0
C199 C 0.73413 0.72949 0.17677 0.0
C200 C 0.74615 0.73228 0.16537 0.0
C201 C 0.75596 0.74623 0.16702 0.0
C202 C 0.75356 0.75741 0.17946 0.0
C203 C 0.74119 0.75471 0.19044 0.0
C204 C 0.73189 0.74081 0.18917 0.0
C205 C 0.71946 0.7399 0.2021 0.0
C206 C 0.72265 0.7557 0.21111 0.0
C207 C 0.73533 0.76434 0.20415 0.0
C208 C 0.7026 0.73935 0.1939 0.0
C209 C 0.72317 0.72519 0.21265 0.0
C210 C 0.75966 0.81987 0.21613 0.0
C211 C 0.75591 0.83211 0.22729 0.0
C212 C 0.74335 0.82932 0.23818 0.0
C213 C 0.7348 0.81468 0.23804 0.0
C214 C 0.73865 0.80264 0.22679 0.0
C215 C 0.75084 0.80536 0.21603 0.0
C216 C 0.75282 0.79139 0.20454 0.0
C217 C 0.73986 0.77984 0.21026 0.0
C218 C 0.73167 0.78648 0.22333 0.0
C219 C 0.74927 0.79737 0.18729 0.0
C220 C 0.76991 0.7846 0.20709 0.0
H221 H 0.69383 0.7324 0.22511 0.0
H222 H 0.68341 0.77525 0.26568 0.0
H223 H 0.7226 0.77218 0.26467 0.0
H224 H 0.72992 0.79124 0.2591 0.0
H225 H 0.71153 0.78974 0.27017 0.0
H226 H 0.68693 0.79336 0.23399 0.0
H227 H 0.69424 0.80336 0.25199 0.0
H228 H 0.70402 0.80588 0.23294 0.0
H229 H 0.72634 0.71894 0.17585 0.0
H230 H 0.76553 0.74851 0.15864 0.0
H231 H 0.76135 0.76782 0.17996 0.0
H232 H 0.70223 0.74744 0.18338 0.0
H233 H 0.69944 0.72699 0.18952 0.0
H234 H 0.693 0.74362 0.20183 0.0
H235 H 0.73637 0.72343 0.21386 0.0
H236 H 0.71899 0.72665 0.22512 0.0
H237 H 0.7178 0.71398 0.2073 0.0
H238 H 0.67206 0.72886 0.2437 0.0
C239 C 0.69194 0.74188 0.23374 0.0
C240 C 0.04775 0.90911 0.47516 0.0
C241 C 0.03911 0.8951 0.47041 0.0
C242 C 0.0321 0.89423 0.45485 0.0
C243 C 0.04144 0.92136 0.44956 0.0
C244 C 0.04876 0.92201 0.4646 0.0
C245 C 0.05715 0.93789 0.46795 0.0
H246 H 0.07543 0.01324 0.444 0.0
C247 C 0.04415 0.93704 0.44186 0.0
C248 C 0.05343 0.94675 0.45255 0.0
H249 H 0.09088 0.98988 0.48761 0.0
H250 H 0.07576 0.96599 0.47973 0.0
H251 H 0.03846 0.9992 0.44366 0.0
H252 H 0.08219 0.98443 0.42125 0.0
H253 H 0.06666 0.98032 0.40719 0.0
H254 H 0.07062 0.00082 0.41377 0.0
H255 H 0.04771 0.01012 0.42772 0.0
H256 H 0.03365 0.99379 0.42363 0.0
C257 C 0.04923 0.94589 0.48273 0.0
C258 C 0.07539 0.9348 0.47008 0.0
C259 C 0.01733 0.94869 0.38799 0.0
C260 C 0.01697 0.96248 0.3784 0.0
C261 C 0.02651 0.97599 0.38301 0.0
C262 C 0.03577 0.976 0.39722 0.0
C263 C 0.03551 0.96237 0.40699 0.0
C264 C 0.02666 0.94889 0.40216 0.0
C265 C 0.02794 0.93549 0.41405 0.0
C266 C 0.03874 0.94329 0.42695 0.0
C267 C 0.04302 0.95906 0.42278 0.0
C268 C 0.01086 0.93173 0.42033 0.0
C269 C 0.03611 0.92105 0.40568 0.0
C270 C 0.0756 0.00299 0.45187 0.0
C271 C 0.0844 0.00351 0.46646 0.0
C272 C 0.08405 0.98993 0.47642 0.0
C273 C 0.0754 0.97597 0.47173 0.0
C274 C 0.06703 0.97553 0.45691 0.0
C275 C 0.06719 0.98892 0.4473 0.0
C276 C 0.05801 0.98618 0.43177 0.0
C277 C 0.05241 0.96887 0.43356 0.0
C278 C 0.05762 0.96273 0.44835 0.0
C279 C 0.04374 0.99795 0.4315 0.0
C280 C 0.06985 0.98812 0.41768 0.0
H281 H 0.0275 0.9059 0.43282 0.0
H282 H 0.05318 0.91026 0.48706 0.0
H283 H 0.07918 0.92445 0.46247 0.0
H284 H 0.08297 0.94501 0.46618 0.0
H285 H 0.07849 0.93201 0.48277 0.0
H286 H 0.03597 0.94382 0.48236 0.0
H287 H 0.05395 0.94083 0.49412 0.0
H288 H 0.05085 0.95908 0.48319 0.0
H289 H 0.01028 0.93804 0.38467 0.0
H290 H 0.02635 0.98681 0.37593 0.0
H291 H 0.0425 0.98678 0.4002 0.0
H292 H 0.00411 0.94303 0.42226 0.0
H293 H 0.00386 0.92409 0.41157 0.0
H294 H 0.01095 0.9258 0.4321 0.0
H295 H 0.04493 0.92523 0.39666 0.0
H296 H 0.04323 0.91377 0.41412 0.0
H297 H 0.02712 0.91316 0.39929 0.0
H298 H 0.02562 0.88349 0.45076 0.0
C299 C 0.03324 0.90725 0.44441 0.0
C300 C 0.26691 0.68919 0.75544 0.0
C301 C 0.26621 0.67848 0.74217 0.0
C302 C 0.25364 0.67999 0.73071 0.0
C303 C 0.24229 0.70178 0.74642 0.0
C304 C 0.25485 0.70056 0.75738 0.0
C305 C 0.25335 0.71201 0.77142 0.0
H306 H 0.20917 0.76576 0.81261 0.0
C307 C 0.23129 0.7142 0.75254 0.0
C308 C 0.23772 0.72021 0.76719 0.0
H309 H 0.25604 0.74729 0.82507 0.0
H310 H 0.25639 0.73219 0.80022 0.0
H311 H 0.19396 0.73281 0.79772 0.0
H312 H 0.21798 0.77308 0.77616 0.0
H313 H 0.20301 0.7665 0.76237 0.0
H314 H 0.19733 0.77392 0.78198 0.0
H315 H 0.1853 0.7524 0.79638 0.0
H316 H 0.18307 0.7378 0.78024 0.0
C317 C 0.25197 0.70193 0.78689 0.0
C318 C 0.2679 0.72391 0.77139 0.0
C319 C 0.17974 0.72643 0.72163 0.0
C320 C 0.16696 0.73689 0.72469 0.0
C321 C 0.16759 0.74666 0.73871 0.0
C322 C 0.18059 0.74593 0.74957 0.0
C323 C 0.19315 0.73529 0.74645 0.0
C324 C 0.19266 0.72584 0.73263 0.0
C325 C 0.20706 0.71519 0.73138 0.0
C326 C 0.21637 0.71998 0.74662 0.0
C327 C 0.20809 0.73168 0.75544 0.0
C328 C 0.2011 0.69743 0.73164 0.0
C329 C 0.21633 0.71977 0.71607 0.0
C330 C 0.21956 0.75856 0.80994 0.0
C331 C 0.23245 0.75752 0.82105 0.0
C332 C 0.24574 0.748 0.81699 0.0
C333 C 0.24598 0.73928 0.80247 0.0
C334 C 0.23281 0.74004 0.79176 0.0
C335 C 0.22003 0.74979 0.79541 0.0
C336 C 0.20735 0.74945 0.78228 0.0
C337 C 0.21451 0.73763 0.77036 0.0
C338 C 0.22934 0.73206 0.77607 0.0
C339 C 0.1915 0.74289 0.78943 0.0
C340 C 0.20618 0.7666 0.77533 0.0
H341 H 0.23235 0.69197 0.72375 0.0
H342 H 0.27652 0.68858 0.76435 0.0
H343 H 0.27196 0.72615 0.75893 0.0
H344 H 0.26495 0.73595 0.77624 0.0
H345 H 0.27829 0.71913 0.77827 0.0
H346 H 0.24459 0.69082 0.78454 0.0
H347 H 0.264 0.69818 0.79128 0.0
H348 H 0.24582 0.70824 0.79673 0.0
H349 H 0.17957 0.71864 0.71106 0.0
H350 H 0.15804 0.755 0.74124 0.0
H351 H 0.1803 0.75365 0.76002 0.0
H352 H 0.1905 0.69608 0.73954 0.0
H353 H 0.19744 0.69308 0.71941 0.0
H354 H 0.21011 0.68923 0.73669 0.0
H355 H 0.21635 0.73302 0.7144 0.0
H356 H 0.22914 0.71652 0.71666 0.0
H357 H 0.21067 0.71406 0.70516 0.0
H358 H 0.25271 0.67185 0.72044 0.0
C359 C 0.24173 0.6916 0.73274 0.0
C360 C 0.89572 0.51924 0.46672 0.0
C361 C 0.89336 0.5072 0.45482 0.0
C362 C 0.90391 0.5066 0.44172 0.0
C363 C 0.91942 0.52908 0.45306 0.0
C364 C 0.90879 0.52997 0.46563 0.0
C365 C 0.91344 0.54296 0.47769 0.0
H366 H 0.96653 0.60073 0.50314 0.0
C367 C 0.93225 0.54133 0.45603 0.0
C368 C 0.92878 0.54952 0.47043 0.0
H369 H 0.92197 0.58627 0.52521 0.0
H370 H 0.91692 0.56675 0.50386 0.0
H371 H 0.95275 0.6009 0.4673 0.0
H372 H 0.97794 0.56501 0.49408 0.0
H373 H 0.98565 0.56468 0.47456 0.0
H374 H 0.98778 0.58274 0.48676 0.0
H375 H 0.97387 0.60256 0.47192 0.0
H376 H 0.96644 0.59198 0.45414 0.0
C377 C 0.89995 0.5556 0.47785 0.0
C378 C 0.91665 0.53494 0.49411 0.0
C379 C 0.97958 0.54494 0.41831 0.0
C380 C 0.99385 0.55426 0.41862 0.0
C381 C 0.99626 0.56593 0.43093 0.0
C382 C 0.98477 0.56811 0.44288 0.0
C383 C 0.97074 0.55845 0.44261 0.0
C384 C 0.96828 0.54718 0.43039 0.0
C385 C 0.95287 0.53772 0.43226 0.0
C386 C 0.94648 0.54518 0.4476 0.0
C387 C 0.95701 0.55728 0.45361 0.0
C388 C 0.94181 0.54101 0.41755 0.0
C389 C 0.95717 0.51978 0.43437 0.0
C390 C 0.95579 0.59322 0.50348 0.0
C391 C 0.94468 0.59497 0.51592 0.0
C392 C 0.93066 0.5852 0.51571 0.0
C393 C 0.92778 0.57385 0.50332 0.0
C394 C 0.93901 0.57224 0.49097 0.0
C395 C 0.9527 0.58188 0.49117 0.0
C396 C 0.96318 0.57871 0.47694 0.0
C397 C 0.9535 0.56559 0.46814 0.0
C398 C 0.93942 0.56178 0.47645 0.0
C399 C 0.96429 0.59431 0.46703 0.0
C400 C 0.97957 0.57256 0.48328 0.0
H401 H 0.92458 0.51629 0.4306 0.0
H402 H 0.88795 0.51993 0.47703 0.0
H403 H 0.92272 0.52321 0.49242 0.0
H404 H 0.92484 0.54208 0.50209 0.0
H405 H 0.90524 0.5326 0.50048 0.0
H406 H 0.89432 0.55674 0.4657 0.0
H407 H 0.89029 0.55219 0.48627 0.0
H408 H 0.90446 0.56785 0.48097 0.0
H409 H 0.97748 0.5357 0.40915 0.0
H410 H 0.00709 0.57335 0.43134 0.0
H411 H 0.98736 0.57712 0.45197 0.0
H412 H 0.94309 0.55373 0.41374 0.0
H413 H 0.94488 0.53319 0.40713 0.0
H414 H 0.9289 0.53942 0.42016 0.0
H415 H 0.96866 0.51863 0.44127 0.0
H416 H 0.94824 0.51303 0.44138 0.0
H417 H 0.95863 0.51364 0.42254 0.0
H418 H 0.90223 0.49757 0.43229 0.0
C419 C 0.91688 0.51749 0.44076 0.0
C420 C 0.81567 0.78584 0.85947 0.0
C421 C 0.80165 0.78574 0.86873 0.0
C422 C 0.78994 0.7975 0.86593 0.0
C423 C 0.80565 0.80831 0.84419 0.0
C424 C 0.81739 0.79715 0.84731 0.0
C425 C 0.8312 0.79843 0.83591 0.0
H426 H 0.86094 0.82845 0.76741 0.0
C427 C 0.81058 0.81758 0.83004 0.0
C428 C 0.82557 0.81189 0.82515 0.0
H429 H 0.88388 0.79571 0.80033 0.0
H430 H 0.86143 0.7978 0.8181 0.0
H431 H 0.85166 0.85318 0.79494 0.0
H432 H 0.82462 0.81542 0.77039 0.0
H433 H 0.81244 0.83253 0.77149 0.0
H434 H 0.83111 0.83359 0.76087 0.0
H435 H 0.84312 0.85587 0.77525 0.0
H436 H 0.83187 0.86001 0.7932 0.0
C437 C 0.84659 0.80329 0.84572 0.0
C438 C 0.83237 0.78223 0.82658 0.0
C439 C 0.77326 0.85945 0.80693 0.0
C440 C 0.77413 0.86938 0.79343 0.0
C441 C 0.78763 0.86836 0.78343 0.0
C442 C 0.80005 0.85769 0.78687 0.0
C443 C 0.799 0.84787 0.80042 0.0
C444 C 0.78576 0.84886 0.81019 0.0
C445 C 0.78658 0.83737 0.82395 0.0
C446 C 0.80269 0.8296 0.82105 0.0
C447 C 0.80985 0.83573 0.80721 0.0
C448 C 0.78664 0.84729 0.83988 0.0
C449 C 0.77237 0.82516 0.82196 0.0
C450 C 0.86136 0.82187 0.77852 0.0
C451 C 0.87425 0.81168 0.78221 0.0
C452 C 0.874 0.8033 0.79685 0.0
C453 C 0.86098 0.80462 0.80727 0.0
C454 C 0.84807 0.81451 0.80315 0.0
C455 C 0.84861 0.82325 0.78919 0.0
C456 C 0.83433 0.83397 0.78726 0.0
C457 C 0.82494 0.8299 0.80218 0.0
C458 C 0.8329 0.81828 0.81128 0.0
C459 C 0.84044 0.8517 0.78755 0.0
C460 C 0.8251 0.82877 0.77166 0.0
H461 H 0.78244 0.81728 0.8521 0.0
H462 H 0.82484 0.7769 0.86121 0.0
H463 H 0.82022 0.77787 0.82257 0.0
H464 H 0.83948 0.78309 0.81554 0.0
H465 H 0.83772 0.77286 0.83428 0.0
H466 H 0.84362 0.8101 0.85688 0.0
H467 H 0.85344 0.79254 0.84935 0.0
H468 H 0.85459 0.81151 0.83909 0.0
H469 H 0.76294 0.85972 0.81471 0.0
H470 H 0.78866 0.87598 0.77304 0.0
H471 H 0.80999 0.85749 0.77881 0.0
H472 H 0.79357 0.85876 0.83864 0.0
H473 H 0.77422 0.8504 0.84339 0.0
H474 H 0.7926 0.84109 0.84994 0.0
H475 H 0.76971 0.82248 0.80903 0.0
H476 H 0.77493 0.81333 0.82719 0.0
H477 H 0.76125 0.82995 0.82734 0.0
H478 H 0.77917 0.79788 0.87307 0.0
C479 C 0.79188 0.80878 0.85375 0.0
C480 C 0.31189 0.26456 0.35936 0.0
C481 C 0.29785 0.26358 0.36854 0.0
C482 C 0.286 0.27537 0.3666 0.0
C483 C 0.30175 0.28819 0.34602 0.0
C484 C 0.31357 0.2769 0.34821 0.0
C485 C 0.32748 0.27937 0.33712 0.0
H486 H 0.35863 0.31792 0.27355 0.0
C487 C 0.30679 0.29887 0.33295 0.0
C488 C 0.32189 0.29381 0.32771 0.0
H489 H 0.38053 0.2804 0.30158 0.0
H490 H 0.35772 0.28015 0.31913 0.0
H491 H 0.34799 0.33867 0.30408 0.0
H492 H 0.32294 0.30415 0.2734 0.0
H493 H 0.30982 0.32017 0.27684 0.0
H494 H 0.32858 0.32392 0.26692 0.0
H495 H 0.34089 0.34363 0.28432 0.0
H496 H 0.32832 0.34567 0.30172 0.0
C497 C 0.34273 0.28333 0.34749 0.0
C498 C 0.32882 0.26415 0.32627 0.0
C499 C 0.26956 0.34282 0.31386 0.0
C500 C 0.27059 0.35407 0.30145 0.0
C501 C 0.28433 0.35428 0.29175 0.0
C502 C 0.29683 0.34348 0.29435 0.0
C503 C 0.2956 0.33228 0.30676 0.0
C504 C 0.28213 0.33208 0.31627 0.0
C505 C 0.28279 0.31916 0.32871 0.0
C506 C 0.29901 0.31182 0.32526 0.0
C507 C 0.3064 0.31952 0.31238 0.0
C508 C 0.28252 0.32734 0.34557 0.0
C509 C 0.26869 0.30712 0.32521 0.0
C510 C 0.35875 0.30981 0.28361 0.0
C511 C 0.37149 0.29911 0.28604 0.0
C512 C 0.37082 0.28859 0.29919 0.0
C513 C 0.35758 0.28851 0.30945 0.0
C514 C 0.34485 0.29908 0.3066 0.0
C515 C 0.34574 0.30968 0.29403 0.0
C516 C 0.33141 0.32043 0.29307 0.0
C517 C 0.32163 0.31439 0.30703 0.0
C518 C 0.32945 0.30175 0.31479 0.0
C519 C 0.33734 0.33806 0.29581 0.0
C520 C 0.3227 0.31717 0.2767 0.0
H521 H 0.27837 0.29617 0.35445 0.0
H522 H 0.32117 0.25563 0.36046 0.0
H523 H 0.31668 0.25984 0.32214 0.0
H524 H 0.33558 0.26627 0.3152 0.0
H525 H 0.33457 0.25422 0.33291 0.0
H526 H 0.33962 0.28975 0.35883 0.0
H527 H 0.34913 0.27221 0.35082 0.0
H528 H 0.35118 0.29158 0.34146 0.0
H529 H 0.25906 0.34218 0.32139 0.0
H530 H 0.28548 0.36293 0.28221 0.0
H531 H 0.30695 0.34427 0.28655 0.0
H532 H 0.28932 0.33898 0.34565 0.0
H533 H 0.27001 0.32989 0.34922 0.0
H534 H 0.28844 0.32018 0.35497 0.0
H535 H 0.26633 0.30576 0.31204 0.0
H536 H 0.27119 0.29482 0.32927 0.0
H537 H 0.25742 0.3113 0.3308 0.0
H538 H 0.2752 0.27506 0.37371 0.0
C539 C 0.28788 0.28766 0.35543 0.0
C540 C 0.47537 0.90622 0.51582 0.0
C541 C 0.4636 0.89881 0.50579 0.0
C542 C 0.44758 0.904 0.50656 0.0
C543 C 0.45533 0.92401 0.52687 0.0
C544 C 0.47096 0.91864 0.52633 0.0
C545 C 0.48189 0.92746 0.53817 0.0
H546 H 0.49099 0.9822 0.59871 0.0
C547 C 0.45476 0.93707 0.53908 0.0
C548 C 0.47024 0.93899 0.54591 0.0
H549 H 0.52747 0.95251 0.57728 0.0
H550 H 0.50779 0.94125 0.55855 0.0
H551 H 0.46327 0.95686 0.59909 0.0
H552 H 0.47527 0.99228 0.56387 0.0
H553 H 0.45432 0.99241 0.56606 0.0
H554 H 0.46717 0.99745 0.58311 0.0
H555 H 0.4593 0.97784 0.60213 0.0
H556 H 0.44503 0.96454 0.59185 0.0
C557 C 0.48841 0.9151 0.5503 0.0
C558 C 0.49505 0.93643 0.52864 0.0
C559 C 0.40374 0.96907 0.54605 0.0
C560 C 0.39966 0.98189 0.55641 0.0
C561 C 0.4107 0.98672 0.56869 0.0
C562 C 0.42578 0.97958 0.57006 0.0
C563 C 0.42994 0.96737 0.5591 0.0
C564 C 0.41881 0.96195 0.54767 0.0
C565 C 0.42507 0.9483 0.53758 0.0
C566 C 0.44211 0.94709 0.54425 0.0
C567 C 0.44491 0.95838 0.55674 0.0
C568 C 0.41483 0.933 0.54093 0.0
C569 C 0.42484 0.95344 0.51977 0.0
C570 C 0.49487 0.97347 0.58983 0.0
C571 C 0.51086 0.96819 0.58963 0.0
C572 C 0.5152 0.95661 0.57795 0.0
C573 C 0.50375 0.95011 0.56703 0.0
C574 C 0.48777 0.95527 0.56767 0.0
C575 C 0.48363 0.96697 0.57876 0.0
C576 C 0.46623 0.97144 0.57733 0.0
C577 C 0.46048 0.96016 0.56384 0.0
C578 C 0.47312 0.95066 0.5583 0.0
C579 C 0.45794 0.96762 0.59342 0.0
C580 C 0.46556 0.98934 0.57245 0.0
H581 H 0.43105 0.92017 0.51691 0.0
H582 H 0.48774 0.90233 0.51561 0.0
H583 H 0.49024 0.94053 0.51686 0.0
H584 H 0.49948 0.94754 0.53482 0.0
H585 H 0.50539 0.92851 0.52619 0.0
H586 H 0.47893 0.90607 0.55326 0.0
H587 H 0.49874 0.90848 0.54527 0.0
H588 H 0.49211 0.92059 0.56198 0.0
H589 H 0.39565 0.96497 0.53646 0.0
H590 H 0.40776 0.99619 0.57719 0.0
H591 H 0.43371 0.98399 0.57949 0.0
H592 H 0.40922 0.93363 0.55297 0.0
H593 H 0.40496 0.93132 0.53186 0.0
H594 H 0.42214 0.92199 0.54123 0.0
H595 H 0.42965 0.96594 0.51868 0.0
H596 H 0.43242 0.9459 0.51205 0.0
H597 H 0.41239 0.95311 0.51471 0.0
H598 H 0.43835 0.8985 0.49885 0.0
C599 C 0.44339 0.9166 0.51701 0.0
C600 C 0.19001 0.26671 0.76238 0.0
C601 C 0.17967 0.25314 0.76243 0.0
C602 C 0.18137 0.24113 0.75043 0.0
C603 C 0.20272 0.2567 0.73821 0.0
C604 C 0.2013 0.26828 0.75019 0.0
C605 C 0.21258 0.28236 0.74799 0.0
H606 H 0.26695 0.32087 0.7021 0.0
C607 C 0.21509 0.26238 0.72695 0.0
C608 C 0.22091 0.27741 0.73263 0.0
H609 H 0.24797 0.33638 0.74784 0.0
H610 H 0.23245 0.31177 0.74936 0.0
H611 H 0.234 0.30555 0.68732 0.0
H612 H 0.27402 0.28545 0.71298 0.0
H613 H 0.26749 0.27062 0.69901 0.0
H614 H 0.27495 0.28973 0.69195 0.0
H615 H 0.25366 0.30361 0.67896 0.0
H616 H 0.239 0.28746 0.6775 0.0
C617 C 0.20232 0.2976 0.74572 0.0
C618 C 0.22441 0.28327 0.76257 0.0
C619 C 0.2278 0.22894 0.67713 0.0
C620 C 0.23845 0.23131 0.66437 0.0
C621 C 0.24825 0.24532 0.66444 0.0
C622 C 0.24733 0.25684 0.67683 0.0
C623 C 0.2365 0.25439 0.68938 0.0
C624 C 0.22706 0.24057 0.68947 0.0
C625 C 0.21634 0.23999 0.70386 0.0
C626 C 0.221 0.2557 0.71242 0.0
C627 C 0.23272 0.26411 0.70379 0.0
C628 C 0.19863 0.23988 0.69777 0.0
C629 C 0.22097 0.22518 0.71392 0.0
C630 C 0.25958 0.31895 0.71253 0.0
C631 C 0.2586 0.33076 0.72476 0.0
C632 C 0.24871 0.3277 0.73805 0.0
C633 C 0.23977 0.31332 0.73898 0.0
C634 C 0.24067 0.30179 0.72651 0.0
C635 C 0.25063 0.30461 0.71368 0.0
C636 C 0.25043 0.29082 0.70177 0.0
C637 C 0.23851 0.27937 0.70944 0.0
C638 C 0.23274 0.28591 0.72385 0.0
C639 C 0.24405 0.29708 0.68545 0.0
C640 C 0.26758 0.28377 0.70122 0.0
H641 H 0.19337 0.23338 0.72946 0.0
H642 H 0.18922 0.27606 0.77154 0.0
H643 H 0.22707 0.27105 0.76707 0.0
H644 H 0.23628 0.28845 0.75952 0.0
H645 H 0.21933 0.29033 0.77268 0.0
H646 H 0.19133 0.29475 0.73834 0.0
H647 H 0.19839 0.30252 0.75749 0.0
H648 H 0.2086 0.3072 0.73917 0.0
H649 H 0.21999 0.21839 0.67741 0.0
H650 H 0.25678 0.24733 0.65494 0.0
H651 H 0.25507 0.26723 0.67612 0.0
H652 H 0.19727 0.24745 0.68693 0.0
H653 H 0.19445 0.2275 0.69444 0.0
H654 H 0.1903 0.24507 0.70658 0.0
H655 H 0.23418 0.22331 0.71376 0.0
H656 H 0.21808 0.22659 0.72677 0.0
H657 H 0.215 0.21405 0.70905 0.0
H658 H 0.17349 0.23064 0.75006 0.0
C659 C 0.19284 0.24283 0.73837 0.0
C660 C 0.74088 0.17451 0.73984 0.0
C661 C 0.72659 0.17226 0.73073 0.0
C662 C 0.72259 0.18367 0.71901 0.0
C663 C 0.74694 0.19902 0.72549 0.0
C664 C 0.75082 0.18789 0.73703 0.0
C665 C 0.76646 0.19194 0.7456 0.0
H666 H 0.83254 0.24012 0.75297 0.0
C667 C 0.75987 0.21144 0.72552 0.0
C668 C 0.77133 0.20736 0.73731 0.0
H669 H 0.82067 0.19811 0.78077 0.0
H670 H 0.79564 0.19483 0.76594 0.0
H671 H 0.79868 0.25551 0.75549 0.0
H672 H 0.81964 0.22629 0.71849 0.0
H673 H 0.80987 0.24236 0.70915 0.0
H674 H 0.82612 0.24654 0.72323 0.0
H675 H 0.81215 0.26389 0.74111 0.0
H676 H 0.79072 0.26242 0.73725 0.0
C677 C 0.76299 0.19486 0.76365 0.0
C678 C 0.77832 0.17816 0.74219 0.0
C679 C 0.75769 0.25725 0.68566 0.0
C680 C 0.76809 0.27039 0.6828 0.0
C681 C 0.78186 0.27269 0.69276 0.0
C682 C 0.78548 0.26188 0.70498 0.0
C683 C 0.77523 0.2486 0.7074 0.0
C684 C 0.76147 0.24658 0.69801 0.0
C685 C 0.75185 0.2319 0.70258 0.0
C686 C 0.76222 0.2254 0.71615 0.0
C687 C 0.77594 0.23517 0.7188 0.0
C688 C 0.73527 0.23748 0.70857 0.0
C689 C 0.75101 0.22023 0.68787 0.0
C690 C 0.82452 0.23029 0.75605 0.0
C691 C 0.82873 0.21934 0.76809 0.0
C692 C 0.81793 0.20659 0.7714 0.0
C693 C 0.80332 0.20476 0.76284 0.0
C694 C 0.79937 0.2158 0.75081 0.0
C695 C 0.80986 0.22838 0.74772 0.0
C696 C 0.80355 0.23923 0.73486 0.0
C697 C 0.78763 0.23096 0.73057 0.0
C698 C 0.78529 0.21719 0.73985 0.0
C699 C 0.80122 0.2562 0.74242 0.0
C700 C 0.81538 0.23875 0.72066 0.0
H701 H 0.72899 0.2052 0.70721 0.0
H702 H 0.74422 0.16611 0.7491 0.0
H703 H 0.77696 0.1737 0.72954 0.0
H704 H 0.79105 0.18196 0.74346 0.0
H705 H 0.77607 0.16782 0.75019 0.0
H706 H 0.75102 0.20043 0.76525 0.0
H707 H 0.76297 0.18339 0.77033 0.0
H708 H 0.77161 0.20341 0.76952 0.0
H709 H 0.74706 0.25505 0.67822 0.0
H710 H 0.7899 0.28288 0.6911 0.0
H711 H 0.79622 0.26425 0.71199 0.0
H712 H 0.73638 0.24925 0.71509 0.0
H713 H 0.72667 0.23897 0.69837 0.0
H714 H 0.72991 0.22922 0.71735 0.0
H715 H 0.76259 0.22035 0.68135 0.0
H716 H 0.74906 0.20756 0.69121 0.0
H717 H 0.7414 0.22371 0.67924 0.0
H718 H 0.71177 0.18215 0.71169 0.0
C719 C 0.73266 0.19702 0.71636 0.0
C720 C 0.53655 0.57521 0.48619 0.0
C721 C 0.52423 0.5866 0.4871 0.0
C722 C 0.51276 0.58517 0.49933 0.0
C723 C 0.52594 0.56147 0.50941 0.0
C724 C 0.53717 0.56281 0.49742 0.0
C725 C 0.54947 0.54973 0.49817 0.0
H726 H 0.57785 0.4833 0.53461 0.0
C727 C 0.52996 0.54728 0.51911 0.0
C728 C 0.54375 0.54033 0.51258 0.0
H729 H 0.59684 0.50723 0.49302 0.0
H730 H 0.57593 0.52695 0.4946 0.0
H731 H 0.57066 0.5153 0.55491 0.0
H732 H 0.54082 0.48529 0.52366 0.0
H733 H 0.52909 0.49078 0.54017 0.0
H734 H 0.54698 0.47918 0.54339 0.0
H735 H 0.56362 0.4957 0.56059 0.0
H736 H 0.55182 0.51342 0.564 0.0
C737 C 0.5662 0.55772 0.50134 0.0
C738 C 0.54812 0.53963 0.48238 0.0
C739 C 0.49525 0.53234 0.56659 0.0
C740 C 0.49589 0.51982 0.57776 0.0
C741 C 0.50831 0.50851 0.57659 0.0
C742 C 0.51984 0.50963 0.56454 0.0
C743 C 0.51902 0.5222 0.55346 0.0
C744 C 0.50686 0.53328 0.5546 0.0
C745 C 0.50784 0.54577 0.54175 0.0
C746 C 0.5226 0.54038 0.53273 0.0
C747 C 0.5291 0.52658 0.53966 0.0
C748 C 0.51055 0.56243 0.55008 0.0
C749 C 0.49235 0.54435 0.53116 0.0
C750 C 0.57744 0.49269 0.52574 0.0
C751 C 0.58907 0.49366 0.51367 0.0
C752 C 0.58818 0.50628 0.50256 0.0
C753 C 0.57595 0.51768 0.50343 0.0
C754 C 0.56441 0.51651 0.51555 0.0
C755 C 0.5653 0.50416 0.52644 0.0
C756 C 0.55205 0.50478 0.53851 0.0
C757 C 0.54303 0.51952 0.53307 0.0
C758 C 0.55032 0.52636 0.51961 0.0
C759 C 0.55981 0.50732 0.55545 0.0
C760 C 0.54168 0.4892 0.53651 0.0
H761 H 0.50443 0.57231 0.51942 0.0
H762 H 0.54566 0.57601 0.47706 0.0
H763 H 0.53537 0.53843 0.47821 0.0
H764 H 0.55218 0.52714 0.48379 0.0
H765 H 0.55502 0.54536 0.47262 0.0
H766 H 0.56527 0.5683 0.50962 0.0
H767 H 0.57153 0.56199 0.48998 0.0
H768 H 0.57476 0.54969 0.50736 0.0
H769 H 0.48578 0.54113 0.56702 0.0
H770 H 0.50923 0.49887 0.58515 0.0
H771 H 0.52899 0.50068 0.56435 0.0
H772 H 0.51848 0.56142 0.56091 0.0
H773 H 0.49899 0.56757 0.55404 0.0
H774 H 0.51677 0.57118 0.54241 0.0
H775 H 0.48818 0.5316 0.52995 0.0
H776 H 0.49419 0.54826 0.51868 0.0
H777 H 0.48242 0.55134 0.53648 0.0
H778 H 0.50299 0.59359 0.50019 0.0
C779 C 0.51355 0.57271 0.51046 0.0
C780 C 0.54618 0.4188 0.98144 0.0
C781 C 0.53478 0.40645 0.97823 0.0
C782 C 0.52617 0.40634 0.96348 0.0
C783 C 0.54014 0.4307 0.95562 0.0
C784 C 0.5487 0.4307 0.97 0.0
C785 C 0.56045 0.44458 0.97152 0.0
H786 H 0.59636 0.50921 0.9381 0.0
C787 C 0.54567 0.44472 0.94638 0.0
C788 C 0.55767 0.45281 0.95558 0.0
H789 H 0.60411 0.49076 0.98578 0.0
H790 H 0.58382 0.46997 0.9807 0.0
H791 H 0.55873 0.50768 0.94005 0.0
H792 H 0.59234 0.47511 0.91895 0.0
H793 H 0.57604 0.47675 0.90535 0.0
H794 H 0.58792 0.49441 0.91075 0.0
H795 H 0.56758 0.51137 0.92092 0.0
H796 H 0.5492 0.49973 0.92268 0.0
C797 C 0.55555 0.45531 0.986 0.0
C798 C 0.5776 0.43768 0.97292 0.0
C799 C 0.51844 0.45811 0.89317 0.0
C800 C 0.52079 0.47068 0.88225 0.0
C801 C 0.53404 0.48129 0.88465 0.0
C802 C 0.54429 0.47993 0.89806 0.0
C803 C 0.5413 0.46783 0.90927 0.0
C804 C 0.52881 0.45693 0.90654 0.0
C805 C 0.52765 0.44473 0.91969 0.0
C806 C 0.54104 0.45061 0.93107 0.0
C807 C 0.54893 0.46416 0.9249 0.0
C808 C 0.51089 0.44609 0.92741 0.0
C809 C 0.53117 0.42792 0.91233 0.0
C810 C 0.59368 0.5006 0.94737 0.0
C811 C 0.60182 0.50137 0.96227 0.0
C812 C 0.5979 0.49026 0.97422 0.0
C813 C 0.58619 0.47822 0.97121 0.0
C814 C 0.57822 0.47746 0.95616 0.0
C815 C 0.58183 0.48871 0.94465 0.0
C816 C 0.57141 0.48677 0.92979 0.0
C817 C 0.56124 0.4722 0.93409 0.0
C818 C 0.56541 0.46669 0.94944 0.0
C819 C 0.56123 0.50216 0.92809 0.0
C820 C 0.5824 0.48317 0.91535 0.0
H821 H 0.52176 0.41772 0.94124 0.0
H822 H 0.55312 0.41913 0.99258 0.0
H823 H 0.57898 0.42734 0.96442 0.0
H824 H 0.58712 0.4464 0.96976 0.0
H825 H 0.58006 0.43333 0.98526 0.0
H826 H 0.54235 0.45463 0.98794 0.0
H827 H 0.56161 0.45153 0.99729 0.0
H828 H 0.55812 0.46823 0.98411 0.0
H829 H 0.50837 0.44977 0.89174 0.0
H830 H 0.53635 0.49084 0.87624 0.0
H831 H 0.55398 0.48855 0.89931 0.0
H832 H 0.50759 0.45893 0.92898 0.0
H833 H 0.50146 0.4401 0.91972 0.0
H834 H 0.51041 0.44096 0.93955 0.0
H835 H 0.53946 0.42885 0.90201 0.0
H836 H 0.5374 0.42001 0.9209 0.0
H837 H 0.51994 0.42183 0.90787 0.0
H838 H 0.51718 0.39707 0.96079 0.0
C839 C 0.52878 0.41839 0.95217 0.0
C840 C 0.75562 0.18573 0.26245 0.0
C841 C 0.75536 0.17716 0.24774 0.0
C842 C 0.74302 0.18016 0.2364 0.0
C843 C 0.73143 0.1998 0.25456 0.0
C844 C 0.74358 0.19686 0.26562 0.0
C845 C 0.74184 0.20649 0.28093 0.0
H846 H 0.69956 0.25954 0.32524 0.0
C847 C 0.72063 0.2118 0.26177 0.0
C848 C 0.72666 0.21572 0.27725 0.0
H849 H 0.7438 0.23595 0.3383 0.0
H850 H 0.7439 0.22235 0.31254 0.0
H851 H 0.68235 0.22888 0.30773 0.0
H852 H 0.71041 0.26864 0.29035 0.0
H853 H 0.69549 0.26456 0.27564 0.0
H854 H 0.68971 0.27069 0.29563 0.0
H855 H 0.67503 0.24906 0.30703 0.0
H856 H 0.67287 0.23543 0.29003 0.0
C857 C 0.73946 0.19459 0.29489 0.0
C858 C 0.75674 0.21781 0.28294 0.0
C859 C 0.67188 0.23132 0.23025 0.0
C860 C 0.6599 0.24253 0.23388 0.0
C861 C 0.6603 0.25037 0.24904 0.0
C862 C 0.6724 0.24718 0.26038 0.0
C863 C 0.68431 0.23601 0.25658 0.0
C864 C 0.68396 0.2283 0.24173 0.0
C865 C 0.69773 0.21691 0.23983 0.0
C866 C 0.70641 0.21915 0.25595 0.0
C867 C 0.69842 0.23031 0.2657 0.0
C868 C 0.69066 0.19965 0.23756 0.0
C869 C 0.70813 0.22273 0.22572 0.0
C870 C 0.70933 0.25153 0.32254 0.0
C871 C 0.72162 0.24877 0.33395 0.0
C872 C 0.73401 0.2381 0.3299 0.0
C873 C 0.73412 0.23028 0.31485 0.0
C874 C 0.72174 0.23314 0.30362 0.0
C875 C 0.70967 0.24367 0.30753 0.0
C876 C 0.69765 0.24546 0.294 0.0
C877 C 0.70443 0.23417 0.28139 0.0
C878 C 0.7185 0.22695 0.2871 0.0
C879 C 0.68103 0.23953 0.29991 0.0
C880 C 0.69816 0.26324 0.28861 0.0
H881 H 0.72202 0.19317 0.23061 0.0
H882 H 0.76475 0.18351 0.27154 0.0
H883 H 0.76085 0.22212 0.27106 0.0
H884 H 0.75424 0.22889 0.2899 0.0
H885 H 0.76695 0.21153 0.28872 0.0
H886 H 0.73225 0.18386 0.2908 0.0
H887 H 0.7512 0.19027 0.29953 0.0
H888 H 0.73265 0.19974 0.30497 0.0
H889 H 0.67198 0.22518 0.21867 0.0
H890 H 0.65109 0.25886 0.25225 0.0
H891 H 0.67196 0.25351 0.27168 0.0
H892 H 0.67967 0.19799 0.24486 0.0
H893 H 0.68726 0.19716 0.22478 0.0
H894 H 0.69893 0.19028 0.24174 0.0
H895 H 0.70901 0.2361 0.22569 0.0
H896 H 0.72069 0.21868 0.22653 0.0
H897 H 0.70283 0.2187 0.21396 0.0
H898 H 0.74261 0.17377 0.22495 0.0
C899 C 0.7311 0.19145 0.23971 0.0
C900 C 0.40487 0.01007 0.97848 0.0
C901 C 0.40105 0.99842 0.96659 0.0
C902 C 0.40958 0.99833 0.95211 0.0
C903 C 0.4261 0.02087 0.96188 0.0
C904 C 0.41726 0.02123 0.97582 0.0
C905 C 0.42243 0.03474 0.98704 0.0
H906 H 0.47221 0.09795 0.00409 0.0
C907 C 0.43843 0.03387 0.96316 0.0
C908 C 0.43619 0.04213 0.9778 0.0
H909 H 0.43178 0.08081 0.03143 0.0
H910 H 0.42681 0.0595 0.01189 0.0
H911 H 0.45512 0.09437 0.96963 0.0
H912 H 0.48624 0.06311 0.99606 0.0
H913 H 0.4915 0.06112 0.9758 0.0
H914 H 0.49379 0.08044 0.98586 0.0
H915 H 0.4762 0.09852 0.97278 0.0
H916 H 0.46891 0.08638 0.95597 0.0
C917 C 0.40817 0.04642 0.98879 0.0
C918 C 0.42831 0.02734 0.00303 0.0
C919 C 0.48137 0.03901 0.92059 0.0
C920 C 0.49504 0.04908 0.91934 0.0
C921 C 0.4979 0.06123 0.93109 0.0
C922 C 0.4875 0.06316 0.94403 0.0
C923 C 0.4741 0.05277 0.94533 0.0
C924 C 0.47115 0.04101 0.93368 0.0
C925 C 0.45652 0.03086 0.93727 0.0
C926 C 0.45133 0.03837 0.95308 0.0
C927 C 0.46165 0.05122 0.95769 0.0
C928 C 0.44387 0.03321 0.92366 0.0
C929 C 0.46192 0.01325 0.93927 0.0
C930 C 0.46241 0.08948 0.00595 0.0
C931 C 0.45236 0.09106 0.01931 0.0
C932 C 0.43958 0.07993 0.02116 0.0
C933 C 0.43673 0.06756 0.0098 0.0
C934 C 0.44672 0.06629 0.99638 0.0
C935 C 0.45933 0.07711 0.99466 0.0
C936 C 0.46855 0.07402 0.97954 0.0
C937 C 0.45918 0.05976 0.97233 0.0
C938 C 0.4465 0.05525 0.9823 0.0
C939 C 0.4673 0.08908 0.96887 0.0
C940 C 0.48597 0.06954 0.98442 0.0
H941 H 0.42838 0.0087 0.93853 0.0
H942 H 0.39825 0.01057 0.98959 0.0
H943 H 0.43547 0.01639 0.00066 0.0
H944 H 0.43638 0.03547 0.01014 0.0
H945 H 0.41799 0.02378 0.01058 0.0
H946 H 0.40023 0.04608 0.97788 0.0
H947 H 0.40062 0.04327 -0.00079 0.0
H948 H 0.41213 0.05915 0.98999 0.0
H949 H 0.47894 0.02945 0.91185 0.0
H950 H 0.50825 0.06925 0.93028 0.0
H951 H 0.4904 0.07258 0.95259 0.0
H952 H 0.44462 0.04561 0.91884 0.0
H953 H 0.44573 0.02466 0.91349 0.0
H954 H 0.43138 0.03191 0.92787 0.0
H955 H 0.47341 0.01284 0.94628 0.0
H956 H 0.45331 0.00584 0.94599 0.0
H957 H 0.4639 0.00738 0.92739 0.0
H958 H 0.40673 0.98943 0.94279 0.0
C959 C 0.42216 0.00946 0.94971 0.0
Zn960 Zn 0.27311 0.84341 0.00207 0.0
Zn961 Zn 0.24769 0.86287 0.00098 0.0
O962 O 0.24595 0.8516 0.02304 0.0
O963 O 0.26587 0.83443 0.02299 0.0
O964 O 0.22889 0.87795 0.00104 0.0
O965 O 0.28808 0.86284 0.00152 0.0
O966 O 0.26702 0.87833 0.99861 0.0
C967 C 0.25378 0.84039 0.02976 0.0
C968 C 0.25198 0.83699 0.97478 0.0
O969 O 0.24376 0.84835 0.98083 0.0
O970 O 0.26499 0.83282 0.98152 0.0
C971 C 0.21476 0.87322 0.00449 0.0
O972 O 0.21224 0.85798 0.00777 0.0
C973 C 0.28221 0.87662 -0.00061 0.0
Zn974 Zn 0.10073 0.46329 0.27693 0.0
Zn975 Zn 0.11973 0.48933 0.2714 0.0
O976 O 0.10645 0.49627 0.29085 0.0
O977 O 0.09206 0.4747 0.29653 0.0
O978 O 0.13362 0.50883 0.26742 0.0
O979 O 0.1208 0.4499 0.27883 0.0
O980 O 0.13598 0.4715 0.27553 0.0
C981 C 0.09622 0.48915 0.29962 0.0
C982 C 0.09523 0.47732 0.24587 0.0
O983 O 0.10682 0.48662 0.25035 0.0
O984 O 0.09004 0.46657 0.25518 0.0
C985 C 0.12698 0.5222 0.2647 0.0
O986 O 0.1112 0.52289 0.26461 0.0
C987 C 0.13461 0.45646 0.27802 0.0
Zn988 Zn 0.76878 0.60936 0.96247 0.0
Zn989 Zn 0.76636 0.625 0.99084 0.0
O990 O 0.78383 0.60862 0.99565 0.0
O991 O 0.7841 0.59398 0.97334 0.0
O992 O 0.76456 0.63745 0.01161 0.0
O993 O 0.77688 0.62967 0.95216 0.0
O994 O 0.77246 0.64266 0.97488 0.0
C995 C 0.78906 0.59667 0.98763 0.0
C996 C 0.73708 0.60769 0.97553 0.0
O997 O 0.74391 0.61468 0.9876 0.0
O998 O 0.74485 0.60486 0.96285 0.0
C999 C 0.76168 0.63062 0.02484 0.0
O1000 O 0.75979 0.6149 0.02501 0.0
C1001 C 0.77665 0.64272 0.9602 0.0
Zn1002 Zn 0.85364 0.00679 0.27075 0.0
Zn1003 Zn 0.86821 0.00687 0.24238 0.0
O1004 O 0.85773 0.02933 0.24367 0.0
O1005 O 0.84682 0.02962 0.2676 0.0
O1006 O 0.88025 0.00713 0.22147 0.0
O1007 O 0.87439 0.00181 0.28212 0.0
O1008 O 0.88649 0.00251 0.25881 0.0
C1009 C 0.84984 0.03659 0.25455 0.0
C1010 C 0.84143 0.98212 0.2489 0.0
O1011 O 0.85201 0.98788 0.23955 0.0
O1012 O 0.8396 0.98834 0.26273 0.0
C1013 C 0.88935 0.01907 0.21831 0.0
O1014 O 0.89029 0.03126 0.22855 0.0
C1015 C 0.88704 0.00055 0.27398 0.0
Zn1016 Zn 0.2552 0.09289 0.47028 0.0
Zn1017 Zn 0.25387 0.1113 0.49721 0.0
O1018 O 0.26958 0.09368 0.5037 0.0
O1019 O 0.2692 0.07738 0.48254 0.0
O1020 O 0.25288 0.12554 0.51689 0.0
O1021 O 0.26494 0.11165 0.45843 0.0
O1022 O 0.26199 0.12681 0.48008 0.0
C1023 C 0.27403 0.08078 0.49673 0.0
C1024 C 0.22325 0.09565 0.48277 0.0
O1025 O 0.23049 0.1035 0.49407 0.0
O1026 O 0.23104 0.09032 0.47091 0.0
C1027 C 0.24981 0.11993 0.53065 0.0
O1028 O 0.24737 0.10437 0.53211 0.0
C1029 C 0.26609 0.12526 0.46545 0.0
Zn1030 Zn 0.35497 0.50353 0.7664 0.0
Zn1031 Zn 0.37313 0.50393 0.74007 0.0
O1032 O 0.36261 0.52635 0.74017 0.0
O1033 O 0.34907 0.52654 0.7627 0.0
O1034 O 0.38752 0.50454 0.72078 0.0
O1035 O 0.37443 0.49855 0.7801 0.0
O1036 O 0.38935 0.5 0.75855 0.0
C1037 C 0.35366 0.53361 0.75017 0.0
C1038 C 0.34554 0.47925 0.74286 0.0
O1039 O 0.35763 0.48477 0.73534 0.0
O1040 O 0.34161 0.48553 0.75618 0.0
C1041 C 0.38249 0.50839 0.70687 0.0
O1042 O 0.36726 0.51193 0.70479 0.0
C1043 C 0.38809 0.49791 0.77363 0.0
Zn1044 Zn 0.77448 0.34776 0.50263 0.0
Zn1045 Zn 0.74904 0.36669 0.50327 0.0
O1046 O 0.7503 0.358 0.52652 0.0
O1047 O 0.77283 0.34443 0.52636 0.0
O1048 O 0.73028 0.38181 0.50381 0.0
O1049 O 0.78829 0.36582 0.4944 0.0
O1050 O 0.7677 0.3819 0.49697 0.0
C1051 C 0.76084 0.34973 0.53385 0.0
C1052 C 0.74928 0.33687 0.48102 0.0
O1053 O 0.74269 0.34988 0.4856 0.0
O1054 O 0.76266 0.33284 0.48707 0.0
C1055 C 0.71608 0.37729 0.5072 0.0
O1056 O 0.71329 0.36209 0.51044 0.0
C1057 C 0.78239 0.37972 0.49347 0.0
Zn1058 Zn 0.60106 0.97221 0.76738 0.0
Zn1059 Zn 0.61868 -0.00058 0.76343 0.0
O1060 O 0.60502 0.00473 0.78319 0.0
O1061 O 0.5919 0.98203 0.78752 0.0
O1062 O 0.63216 0.01943 0.76049 0.0
O1063 O 0.62158 0.95952 0.76864 0.0
O1064 O 0.63564 0.98203 0.76659 0.0
C1065 C 0.59522 0.99649 0.79148 0.0
C1066 C 0.59485 0.98772 0.73718 0.0
O1067 O 0.60593 0.99738 0.7422 0.0
O1068 O 0.59026 0.97618 0.74584 0.0
C1069 C 0.62571 0.03292 0.75789 0.0
O1070 O 0.60995 0.03378 0.75731 0.0
C1071 C 0.63505 0.96681 0.76824 0.0
Zn1072 Zn 0.00621 0.27572 0.85687 0.0
Zn1073 Zn 0.00712 0.24804 0.87291 0.0
O1074 O 0.02904 0.24877 0.8614 0.0
O1075 O 0.02799 0.27131 0.84791 0.0
O1076 O 0.00834 0.22806 0.88627 0.0
O1077 O 0.00472 0.28847 0.8775 0.0
O1078 O 0.00375 0.26555 0.89039 0.0
C1079 C 0.03547 0.25881 0.8519 0.0
C1080 C 0.98034 0.25337 0.84804 0.0
O1081 O 0.98733 0.24421 0.85802 0.0
O1082 O 0.98597 0.26736 0.8456 0.0
C1083 C 0.012 0.21427 0.88075 0.0
O1084 O 0.01497 0.21255 0.86536 0.0
C1085 C 0.00339 0.28087 0.89048 0.0
Zn1086 Zn 0.50201 0.7764 0.34862 0.0
Zn1087 Zn 0.50269 0.74987 0.36616 0.0
O1088 O 0.52434 0.74946 0.35404 0.0
O1089 O 0.52323 0.77103 0.33908 0.0
O1090 O 0.50387 0.73039 0.38033 0.0
O1091 O 0.50163 0.79036 0.36846 0.0
O1092 O 0.5003 0.7684 0.38288 0.0
C1093 C 0.53063 0.7587 0.34369 0.0
C1094 C 0.47533 0.75469 0.34167 0.0
O1095 O 0.48238 0.74585 0.35191 0.0
O1096 O 0.48123 0.76836 0.33836 0.0
C1097 C 0.50793 0.7166 0.37514 0.0
O1098 O 0.51119 0.71469 0.35982 0.0
C1099 C 0.50046 0.7837 0.38197 0.0
Zn1100 Zn 0.96287 0.77296 0.60971 0.0
Zn1101 Zn 0.99208 0.76573 0.6219 0.0
O1102 O 0.99774 0.78167 0.60406 0.0
O1103 O 0.97399 0.78667 0.59333 0.0
O1104 O 0.01329 0.76065 0.63245 0.0
O1105 O 0.95638 0.78263 0.63102 0.0
O1106 O 0.9795 0.77461 0.64108 0.0
C1107 C 0.98914 0.78862 0.5935 0.0
C1108 C 0.9704 0.73919 0.60713 0.0
O1109 O 0.98383 0.7439 0.61326 0.0
O1110 O 0.95924 0.74916 0.6049 0.0
C1111 C 0.02625 0.75801 0.62503 0.0
O1112 O 0.02626 0.75856 0.60925 0.0
C1113 C 0.96589 0.78113 0.64293 0.0
Zn1114 Zn 0.45918 0.27306 0.11026 0.0
Zn1115 Zn 0.48896 0.26742 0.12213 0.0
O1116 O 0.49302 0.28478 0.10521 0.0
O1117 O 0.46893 0.28865 0.09473 0.0
O1118 O 0.51092 0.26333 0.13155 0.0
O1119 O 0.45253 0.2811 0.13216 0.0
O1120 O 0.47619 0.27431 0.142 0.0
C1121 C 0.48389 0.29179 0.09514 0.0
C1122 C 0.46912 0.24013 0.10607 0.0
O1123 O 0.48216 0.24555 0.11249 0.0
O1124 O 0.45724 0.24933 0.1042 0.0
C1125 C 0.51918 0.27489 0.13776 0.0
O1126 O 0.5133 0.28947 0.13757 0.0
C1127 C 0.46214 0.27979 0.14401 0.0
C1128 C 0.22595 0.78168 0.83839 0.0
C1129 C 0.23212 0.76606 0.8369 0.0
C1130 C 0.22644 0.78985 0.85326 0.0
C1131 C 0.24979 0.79133 0.89076 0.0
H1132 H 0.21354 0.81326 0.9094 0.0
C1133 C 0.25303 0.81358 0.95583 0.0
C1134 C 0.24688 0.8288 0.95959 0.0
C1135 C 0.24976 0.80628 0.94092 0.0
C1136 C 0.22383 0.80737 0.90425 0.0
H1137 H 0.24276 0.74648 0.85013 0.0
H1138 H 0.24394 0.76084 0.87583 0.0
H1139 H 0.21057 0.80007 0.8829 0.0
H1140 H 0.23194 0.84804 0.95089 0.0
H1141 H 0.22651 0.83539 0.92449 0.0
H1142 H 0.2632 0.79871 0.91174 0.0
C1143 C 0.23893 0.76684 0.86547 0.0
C1144 C 0.2221 0.79981 0.88912 0.0
C1145 C 0.23832 0.75865 0.8507 0.0
C1146 C 0.23683 0.8363 0.94831 0.0
C1147 C 0.2337 0.82903 0.93322 0.0
C1148 C 0.25155 0.79897 0.90573 0.0
C1149 C 0.23321 0.78259 0.86686 0.0
C1150 C 0.23501 0.79148 0.88239 0.0
C1151 C 0.24047 0.81409 0.92924 0.0
C1152 C 0.23853 0.80682 0.91284 0.0
H1153 H 0.22118 0.78779 0.82799 0.0
H1154 H 0.22201 0.80202 0.85401 0.0
H1155 H 0.26004 0.7853 0.8857 0.0
H1156 H 0.26059 0.80736 0.96436 0.0
H1157 H 0.25476 0.79456 0.93848 0.0
C1158 C 0.02264 0.55004 0.41147 0.0
C1159 C 0.00646 0.55126 0.40659 0.0
C1160 C 0.03435 0.5458 0.40038 0.0
C1161 C 0.0525 0.52433 0.37718 0.0
H1162 H 0.05295 0.54013 0.33356 0.0
C1163 C 0.07975 0.48932 0.32448 0.0
C1164 C 0.08867 0.49785 0.31311 0.0
C1165 C 0.07178 0.49747 0.3367 0.0
C1166 C 0.05312 0.53576 0.34576 0.0
H1167 H 0.98995 0.54973 0.38617 0.0
H1168 H 0.01039 0.54225 0.3668 0.0
H1169 H 0.03505 0.55227 0.35322 0.0
H1170 H 0.09647 0.52164 0.30582 0.0
H1171 H 0.08232 0.53592 0.32717 0.0
H1172 H 0.07028 0.50758 0.36964 0.0
C1173 C 0.01403 0.54461 0.37918 0.0
C1174 C 0.04278 0.5426 0.35696 0.0
C1175 C 0.00231 0.54873 0.39029 0.0
C1176 C 0.0897 0.51472 0.31441 0.0
C1177 C 0.08156 0.52291 0.32656 0.0
C1178 C 0.06273 0.51742 0.36596 0.0
C1179 C 0.03013 0.54282 0.38417 0.0
C1180 C 0.04218 0.53677 0.37271 0.0
C1181 C 0.07243 0.51435 0.33775 0.0
C1182 C 0.06293 0.52287 0.35007 0.0
H1183 H 0.02618 0.55179 0.42397 0.0
H1184 H 0.04668 0.54463 0.40454 0.0
H1185 H 0.05222 0.51949 0.38919 0.0
H1186 H 0.07875 0.47632 0.32384 0.0
H1187 H 0.06469 0.49057 0.34504 0.0
C1188 C 0.8114 0.76714 0.89024 0.0
C1189 C 0.79879 0.77278 0.88049 0.0
C1190 C 0.80895 0.754 0.90024 0.0
C1191 C 0.79822 0.73004 0.92565 0.0
H1192 H 0.7743 0.69407 0.90631 0.0
C1193 C 0.7793 0.67288 0.96051 0.0
C1194 C 0.78057 0.65807 0.95225 0.0
C1195 C 0.782 0.68736 0.95256 0.0
C1196 C 0.78109 0.70396 0.91186 0.0
H1197 H 0.77363 0.76922 0.87387 0.0
H1198 H 0.76928 0.74655 0.89152 0.0
H1199 H 0.77783 0.71869 0.89128 0.0
H1200 H 0.78622 0.64688 0.9293 0.0
H1201 H 0.79103 0.67205 0.91556 0.0
H1202 H 0.80171 0.71507 0.94614 0.0
C1203 C 0.78112 0.75218 0.89131 0.0
C1204 C 0.78294 0.71816 0.90332 0.0
C1205 C 0.78356 0.7653 0.88134 0.0
C1206 C 0.78502 0.65806 0.93601 0.0
C1207 C 0.78769 0.67249 0.92809 0.0
C1208 C 0.79632 0.71581 0.93424 0.0
C1209 C 0.79385 0.74619 0.90066 0.0
C1210 C 0.79156 0.73134 0.91008 0.0
C1211 C 0.78598 0.68731 0.93619 0.0
C1212 C 0.78783 0.70258 0.92736 0.0
H1213 H 0.82324 0.77276 0.88999 0.0
H1214 H 0.81902 0.74961 0.90724 0.0
H1215 H 0.80484 0.74003 0.93122 0.0
H1216 H 0.77591 0.67332 0.97302 0.0
H1217 H 0.78051 0.6986 0.95909 0.0
C1218 C 0.01053 0.97065 0.35006 0.0
C1219 C 0.00577 0.96333 0.36439 0.0
C1220 C -0.00059 0.97282 0.33751 0.0
C1221 C 0.95823 0.96052 0.32313 0.0
H1222 H 0.95831 0.00257 0.30354 0.0
C1223 C 0.90155 0.98906 0.29749 0.0
C1224 C 0.90215 0.99581 0.28212 0.0
C1225 C 0.91552 0.98388 0.30513 0.0
C1226 C 0.9583 0.99069 0.30871 0.0
H1227 H 0.9857 0.95237 0.3767 0.0
H1228 H 0.96634 0.9563 0.35503 0.0
H1229 H 0.98061 0.99519 0.32128 0.0
H1230 H 0.91795 0.00264 0.2628 0.0
H1231 H 0.94264 0.99391 0.27652 0.0
H1232 H 0.93547 0.95644 0.31124 0.0
C1233 C 0.97871 0.96005 0.35324 0.0
C1234 C 0.97108 0.98641 0.31884 0.0
C1235 C 0.98981 0.95781 0.36571 0.0
C1236 C 0.91712 0.99747 0.27464 0.0
C1237 C 0.93121 0.99251 0.28246 0.0
C1238 C 0.94541 0.96487 0.31318 0.0
C1239 C 0.98329 0.96778 0.33906 0.0
C1240 C 0.97097 0.97144 0.32652 0.0
C1241 C 0.93047 0.98551 0.2977 0.0
C1242 C 0.94513 0.98014 0.30622 0.0
H1243 H 0.02281 0.97487 0.34864 0.0
H1244 H 0.00341 0.9786 0.32667 0.0
H1245 H 0.95794 0.94875 0.32852 0.0
H1246 H 0.89022 0.98753 0.30358 0.0
H1247 H 0.91465 0.97872 0.31698 0.0
C1248 C 0.23868 0.20274 0.65392 0.0
C1249 C 0.23934 0.21935 0.65095 0.0
C1250 C 0.23984 0.19155 0.64127 0.0
C1251 C 0.25485 0.18749 0.60004 0.0
H1252 H 0.2263 0.1502 0.59706 0.0
C1253 C 0.25038 0.14761 0.54296 0.0
C1254 C 0.24884 0.13088 0.5448 0.0
C1255 C 0.24938 0.15801 0.55624 0.0
C1256 C 0.23451 0.16043 0.59783 0.0
H1257 H 0.24124 0.23718 0.63228 0.0
H1258 H 0.24342 0.21769 0.61029 0.0
H1259 H 0.22419 0.16904 0.61973 0.0
H1260 H 0.24511 0.11196 0.56207 0.0
H1261 H 0.24361 0.13012 0.58531 0.0
H1262 H 0.26523 0.17893 0.57824 0.0
C1263 C 0.24225 0.21332 0.62243 0.0
C1264 C 0.23328 0.17123 0.6108 0.0
C1265 C 0.24102 0.22449 0.63504 0.0
C1266 C 0.2463 0.12479 0.56023 0.0
C1267 C 0.24535 0.1352 0.57355 0.0
C1268 C 0.25613 0.17668 0.58713 0.0
C1269 C 0.24175 0.19674 0.62541 0.0
C1270 C 0.24335 0.18495 0.61196 0.0
C1271 C 0.2469 0.15194 0.5717 0.0
C1272 C 0.24588 0.1631 0.58578 0.0
H1273 H 0.23758 0.19837 0.66606 0.0
H1274 H 0.23957 0.17885 0.64395 0.0
H1275 H 0.26298 0.1978 0.60075 0.0
H1276 H 0.25225 0.15272 0.53122 0.0
H1277 H 0.25035 0.17084 0.55433 0.0
C1278 C 0.47859 0.53234 0.59892 0.0
C1279 C 0.48373 0.51853 0.59062 0.0
C1280 C 0.46732 0.53109 0.61117 0.0
C1281 C 0.45007 0.50201 0.6396 0.0
H1282 H 0.41682 0.53388 0.64407 0.0
C1283 C 0.41016 0.50582 0.69564 0.0
C1284 C 0.39377 0.50917 0.69328 0.0
C1285 C 0.42087 0.50677 0.6829 0.0
C1286 C 0.42594 0.5248 0.64291 0.0
H1287 H 0.48075 0.49263 0.58843 0.0
H1288 H 0.46108 0.49045 0.60974 0.0
H1289 H 0.43571 0.53579 0.62203 0.0
H1290 H 0.3758 0.51602 0.67559 0.0
H1291 H 0.39447 0.51751 0.65332 0.0
H1292 H 0.44014 0.49086 0.6603 0.0
C1293 C 0.46597 0.50222 0.60699 0.0
C1294 C 0.43689 0.52601 0.63039 0.0
C1295 C 0.47725 0.50347 0.59477 0.0
C1296 C 0.38834 0.51341 0.67785 0.0
C1297 C 0.39907 0.51436 0.66509 0.0
C1298 C 0.43912 0.50081 0.65212 0.0
C1299 C 0.46091 0.51601 0.61539 0.0
C1300 C 0.44912 0.51464 0.62859 0.0
C1301 C 0.41547 0.51107 0.66747 0.0
C1302 C 0.42695 0.51221 0.65397 0.0
H1303 H 0.48351 0.5441 0.59618 0.0
H1304 H 0.46388 0.54193 0.61754 0.0
H1305 H 0.45942 0.49314 0.63868 0.0
H1306 H 0.41477 0.50257 0.70738 0.0
H1307 H 0.43345 0.50438 0.68522 0.0
C1308 C 0.74938 0.28617 0.66505 0.0
C1309 C 0.76506 0.28136 0.66915 0.0
C1310 C 0.74672 0.29636 0.65204 0.0
C1311 C 0.76783 0.32523 0.6259 0.0
H1312 H 0.73507 0.31346 0.59395 0.0
C1313 C 0.77295 0.34135 0.5599 0.0
C1314 C 0.75926 0.3459 0.55107 0.0
C1315 C 0.77167 0.33648 0.57577 0.0
C1316 C 0.74404 0.31712 0.60292 0.0
H1317 H 0.79014 0.28321 0.66249 0.0
H1318 H 0.78553 0.30095 0.64006 0.0
H1319 H 0.73647 0.29891 0.61925 0.0
H1320 H 0.7335 0.34927 0.55208 0.0
H1321 H 0.73121 0.34041 0.58002 0.0
H1322 H 0.77582 0.34298 0.60935 0.0
C1323 C 0.77532 0.29716 0.64706 0.0
C1324 C 0.74486 0.30877 0.6174 0.0
C1325 C 0.77796 0.28696 0.65995 0.0
C1326 C 0.74426 0.34586 0.55862 0.0
C1327 C 0.74293 0.34073 0.57454 0.0
C1328 C 0.76703 0.33352 0.61147 0.0
C1329 C 0.75969 0.30199 0.64294 0.0
C1330 C 0.75712 0.31239 0.6288 0.0
C1331 C 0.75664 0.33588 0.58322 0.0
C1332 C 0.75548 0.3292 0.5996 0.0
H1333 H 0.73919 0.28221 0.67197 0.0
H1334 H 0.73455 0.29993 0.64918 0.0
H1335 H 0.77718 0.32854 0.63461 0.0
H1336 H 0.7847 0.34132 0.55446 0.0
H1337 H 0.78242 0.33262 0.58204 0.0
C1338 C 0.52219 0.99002 0.60804 0.0
C1339 C 0.52266 0.97409 0.60209 0.0
C1340 C 0.53195 0.99496 0.62109 0.0
C1341 C 0.56752 0.98471 0.64562 0.0
H1342 H 0.54325 0.00149 0.68146 0.0
C1343 C 0.5954 0.9982 0.70907 0.0
C1344 C 0.58734 0.98979 0.72116 0.0
C1345 C 0.58853 0.99929 0.69366 0.0
C1346 C 0.5502 0.997 0.67149 0.0
H1347 H 0.53435 0.95109 0.60486 0.0
H1348 H 0.5516 0.95986 0.6273 0.0
H1349 H 0.53018 0.99802 0.65508 0.0
H1350 H 0.56557 0.97644 0.72679 0.0
H1351 H 0.55348 0.97866 0.70004 0.0
H1352 H 0.5874 0.98322 0.66225 0.0
C1353 C 0.54368 0.96851 0.62183 0.0
C1354 C 0.54278 0.99511 0.65639 0.0
C1355 C 0.53378 0.9635 0.60893 0.0
C1356 C 0.57211 0.98293 0.7177 0.0
C1357 C 0.56513 0.98429 0.70244 0.0
C1358 C 0.57502 0.98682 0.66069 0.0
C1359 C 0.54255 0.98415 0.62829 0.0
C1360 C 0.55124 0.98852 0.64344 0.0
C1361 C 0.57334 0.99231 0.69024 0.0
C1362 C 0.56627 0.99254 0.67384 0.0
H1363 H 0.51404 0.99862 0.60283 0.0
H1364 H 0.53098 0.00714 0.62577 0.0
H1365 H 0.5743 0.97966 0.63579 0.0
H1366 H 0.60718 0.00357 0.7114 0.0
H1367 H 0.59506 0.00553 0.68442 0.0
C1368 C 0.85331 0.20779 0.78153 0.0
C1369 C 0.84432 0.22127 0.77705 0.0
C1370 C 0.86831 0.20976 0.78928 0.0
C1371 C 0.90199 0.23812 0.79284 0.0
H1372 H 0.91293 0.2173 0.83287 0.0
C1373 C 0.95624 0.25934 0.83101 0.0
C1374 C 0.96534 0.24808 0.83952 0.0
C1375 C 0.94196 0.25472 0.82312 0.0
C1376 C 0.9102 0.22298 0.82154 0.0
H1377 H 0.84385 0.24739 0.77797 0.0
H1378 H 0.87015 0.25074 0.79093 0.0
H1379 H 0.88689 0.21152 0.8197 0.0
H1380 H 0.96656 0.22306 0.84634 0.0
H1381 H 0.94168 0.21485 0.83214 0.0
H1382 H 0.92519 0.24942 0.79438 0.0
C1383 C 0.86561 0.23867 0.78832 0.0
C1384 C 0.89526 0.21971 0.81406 0.0
C1385 C 0.85057 0.23673 0.78082 0.0
C1386 C 0.95981 0.23203 0.8399 0.0
C1387 C 0.94551 0.22735 0.83184 0.0
C1388 C 0.91694 0.24122 0.80017 0.0
C1389 C 0.87469 0.22523 0.79249 0.0
C1390 C 0.89091 0.22753 0.79983 0.0
C1391 C 0.93643 0.23866 0.82332 0.0
C1392 C 0.92111 0.23401 0.81482 0.0
H1393 H 0.84899 0.19571 0.77868 0.0
H1394 H 0.87513 0.1992 0.79232 0.0
H1395 H 0.89903 0.24407 0.78171 0.0
H1396 H 0.96003 0.27185 0.8306 0.0
H1397 H 0.93513 0.26387 0.81706 0.0
C1398 C 0.45925 0.87145 0.49319 0.0
C1399 C 0.4681 0.88597 0.49427 0.0
C1400 C 0.46342 0.85949 0.48207 0.0
C1401 C 0.48175 0.85451 0.44315 0.0
H1402 H 0.48859 0.81011 0.45478 0.0
C1403 C 0.5051 0.80968 0.39668 0.0
C1404 C 0.49873 0.79395 0.39647 0.0
C1405 C 0.50223 0.82013 0.40955 0.0
C1406 C 0.48651 0.8224 0.45128 0.0
H1407 H 0.48816 0.89945 0.48463 0.0
H1408 H 0.49524 0.87868 0.46495 0.0
H1409 H 0.48136 0.82985 0.47548 0.0
H1410 H 0.48475 0.7766 0.40974 0.0
H1411 H 0.47912 0.79509 0.43204 0.0
H1412 H 0.48625 0.84724 0.41898 0.0
C1413 C 0.4852 0.8765 0.47281 0.0
C1414 C 0.48244 0.83368 0.46315 0.0
C1415 C 0.4812 0.88832 0.48409 0.0
C1416 C 0.48985 0.78867 0.40965 0.0
C1417 C 0.48668 0.79927 0.42244 0.0
C1418 C 0.48555 0.84324 0.43128 0.0
C1419 C 0.47631 0.86201 0.47166 0.0
C1420 C 0.4802 0.84986 0.45919 0.0
C1421 C 0.49257 0.81525 0.42238 0.0
C1422 C 0.48819 0.82707 0.43518 0.0
H1423 H 0.44915 0.86933 0.501 0.0
H1424 H 0.45635 0.84844 0.48133 0.0
H1425 H 0.47981 0.86687 0.43976 0.0
H1426 H 0.5122 0.814 0.38678 0.0
H1427 H 0.50742 0.83215 0.40929 0.0
C1428 C 0.1624 0.23719 0.78131 0.0
C1429 C 0.16662 0.25199 0.77441 0.0
C1430 C 0.14972 0.2362 0.79217 0.0
C1431 C 0.12481 0.26144 0.8188 0.0
H1432 H 0.09234 0.22782 0.81253 0.0
C1433 C 0.05997 0.2691 0.83831 0.0
C1434 C 0.0518 0.25628 0.84558 0.0
C1435 C 0.07523 0.26701 0.83203 0.0
C1436 C 0.10145 0.2371 0.81464 0.0
H1437 H 0.16062 0.27726 0.77334 0.0
H1438 H 0.13874 0.27556 0.79222 0.0
H1439 H 0.11704 0.22704 0.79697 0.0
H1440 H 0.0533 0.23116 0.852 0.0
H1441 H 0.08013 0.22743 0.84069 0.0
H1442 H 0.109 0.27183 0.83599 0.0
C1443 C 0.14539 0.26477 0.78953 0.0
C1444 C 0.11559 0.23666 0.80573 0.0
C1445 C 0.15796 0.26575 0.77869 0.0
C1446 C 0.05932 0.24127 0.84649 0.0
C1447 C 0.07461 0.23912 0.83998 0.0
C1448 C 0.1107 0.2619 0.82763 0.0
C1449 C 0.14108 0.25 0.79638 0.0
C1450 C 0.1272 0.24911 0.80737 0.0
C1451 C 0.08271 0.25202 0.83273 0.0
C1452 C 0.09867 0.25001 0.82529 0.0
H1453 H 0.16893 0.22639 0.7784 0.0
H1454 H 0.14675 0.22467 0.79732 0.0
H1455 H 0.13368 0.27101 0.82061 0.0
H1456 H 0.05458 0.28084 0.83743 0.0
H1457 H 0.08105 0.27711 0.82629 0.0
C1458 C 0.5191 0.61549 0.4805 0.0
C1459 C 0.52325 0.59992 0.47539 0.0
C1460 C 0.51782 0.62795 0.46949 0.0
C1461 C 0.51182 0.6356 0.42614 0.0
H1462 H 0.52723 0.67851 0.43794 0.0
C1463 C 0.51411 0.68773 0.38076 0.0
C1464 C 0.50947 0.70299 0.38635 0.0
C1465 C 0.51593 0.67502 0.39143 0.0
C1466 C 0.52271 0.66664 0.43451 0.0
H1467 H 0.52933 0.58528 0.45461 0.0
H1468 H 0.52741 0.60711 0.43543 0.0
H1469 H 0.53045 0.65666 0.45684 0.0
H1470 H 0.50294 0.71678 0.40757 0.0
H1471 H 0.50598 0.6946 0.42611 0.0
H1472 H 0.50407 0.64562 0.4038 0.0
C1473 C 0.52495 0.60963 0.44796 0.0
C1474 C 0.52456 0.6541 0.44535 0.0
C1475 C 0.52624 0.59715 0.45898 0.0
C1476 C 0.50657 0.7052 0.40284 0.0
C1477 C 0.50842 0.69251 0.41351 0.0
C1478 C 0.50998 0.64815 0.41528 0.0
C1479 C 0.52068 0.62517 0.45307 0.0
C1480 C 0.51907 0.63843 0.44134 0.0
C1481 C 0.51318 0.67727 0.40795 0.0
C1482 C 0.51534 0.66384 0.41937 0.0
H1483 H 0.5169 0.6181 0.49307 0.0
H1484 H 0.51435 0.63972 0.47384 0.0
H1485 H 0.50724 0.62374 0.42274 0.0
H1486 H 0.51647 0.68562 0.36814 0.0
H1487 H 0.51976 0.66348 0.38676 0.0
C1488 C 0.89506 0.79446 0.76893 0.0
C1489 C 0.88755 0.80943 0.77059 0.0
C1490 C 0.90665 0.792 0.75721 0.0
C1491 C 0.93153 0.81349 0.72663 0.0
H1492 H 0.93039 0.77151 0.70559 0.0
C1493 C 0.94925 0.79823 0.66092 0.0
C1494 C 0.96067 0.78608 0.65911 0.0
C1495 C 0.94318 0.80193 0.67607 0.0
C1496 C 0.93096 0.78322 0.71151 0.0
H1497 H 0.88721 0.83383 0.76162 0.0
H1498 H 0.90631 0.8292 0.74051 0.0
H1499 H 0.91415 0.77614 0.72921 0.0
H1500 H 0.97495 0.76851 0.67169 0.0
H1501 H 0.96377 0.7746 0.69817 0.0
H1502 H 0.9475 0.82071 0.70792 0.0
C1503 C 0.90364 0.81941 0.74852 0.0
C1504 C 0.92174 0.7859 0.72514 0.0
C1505 C 0.89235 0.822 0.7605 0.0
C1506 C 0.96622 0.77798 0.67277 0.0
C1507 C 0.95984 0.78141 0.68787 0.0
C1508 C 0.94044 0.81089 0.71274 0.0
C1509 C 0.9108 0.8043 0.74653 0.0
C1510 C 0.92173 0.80114 0.73281 0.0
C1511 C 0.94817 0.7933 0.68957 0.0
C1512 C 0.9401 0.79577 0.70504 0.0
H1513 H 0.89167 0.7844 0.77632 0.0
H1514 H 0.91214 0.7803 0.75638 0.0
H1515 H 0.93219 0.82527 0.73235 0.0
H1516 H 0.94482 0.80468 0.65058 0.0
H1517 H 0.93409 0.81106 0.67714 0.0
C1518 C 0.02151 0.8742 0.48293 0.0
C1519 C 0.03664 0.88185 0.48193 0.0
C1520 C 0.01876 0.86244 0.49438 0.0
C1521 C 0.03308 0.84905 0.53384 0.0
H1522 H 0.00507 0.81239 0.52385 0.0
C1523 C 0.0133 0.80189 0.58112 0.0
C1524 C 0.99667 0.79848 0.58092 0.0
C1525 C 0.02022 0.81086 0.56881 0.0
C1526 C 0.01291 0.82258 0.52682 0.0
H1527 H 0.0609 0.88278 0.49194 0.0
H1528 H 0.05604 0.86222 0.51207 0.0
H1529 H 0.01374 0.82992 0.50232 0.0
H1530 H 0.97429 0.80192 0.56766 0.0
H1531 H 0.98631 0.81744 0.54639 0.0
H1532 H 0.03194 0.8418 0.55844 0.0
C1533 C 0.04628 0.86548 0.50404 0.0
C1534 C 0.01785 0.83262 0.5145 0.0
C1535 C 0.04905 0.87725 0.49252 0.0
C1536 C 0.98714 0.80428 0.56822 0.0
C1537 C 0.99404 0.81308 0.55593 0.0
C1538 C 0.02816 0.83894 0.54618 0.0
C1539 C 0.03105 0.85804 0.50516 0.0
C1540 C 0.02762 0.84623 0.51793 0.0
C1541 C 0.01065 0.8164 0.55603 0.0
C1542 C 0.01766 0.82587 0.54283 0.0
H1543 H 0.0116 0.87766 0.47519 0.0
H1544 H 0.0068 0.85718 0.49513 0.0
H1545 H 0.04052 0.8595 0.53689 0.0
H1546 H 0.02097 0.79758 0.59073 0.0
H1547 H 0.03306 0.81326 0.56916 0.0
C1548 C 0.13725 0.73841 0.71948 0.0
C1549 C 0.15291 0.73753 0.71347 0.0
C1550 C 0.12401 0.73929 0.70902 0.0
C1551 C 0.11252 0.75084 0.66791 0.0
H1552 H 0.07299 0.72779 0.67745 0.0
C1553 C 0.05583 0.75234 0.62639 0.0
C1554 C 0.04114 0.75445 0.63422 0.0
C1555 C 0.06987 0.74917 0.63523 0.0
C1556 C 0.08391 0.73438 0.67468 0.0
H1557 H 0.16695 0.73684 0.69172 0.0
H1558 H 0.14375 0.73818 0.6734 0.0
H1559 H 0.09681 0.72414 0.69437 0.0
H1560 H 0.02968 0.75484 0.65749 0.0
H1561 H 0.05407 0.74944 0.67283 0.0
H1562 H 0.09951 0.76123 0.64832 0.0
C1563 C 0.14175 0.73832 0.68624 0.0
C1564 C 0.09755 0.7323 0.68438 0.0
C1565 C 0.15502 0.73739 0.69673 0.0
C1566 C 0.04077 0.75324 0.65105 0.0
C1567 C 0.05475 0.75003 0.65985 0.0
C1568 C 0.09885 0.75292 0.65819 0.0
C1569 C 0.12609 0.73931 0.69228 0.0
C1570 C 0.11195 0.74068 0.68126 0.0
C1571 C 0.06947 0.74798 0.65207 0.0
C1572 C 0.08432 0.7449 0.66162 0.0
H1573 H 0.1352 0.73834 0.7323 0.0
H1574 H 0.11213 0.74023 0.71408 0.0
H1575 H 0.12337 0.7576 0.66528 0.0
H1576 H 0.05652 0.75317 0.61343 0.0
H1577 H 0.081 0.74752 0.62887 0.0
C1578 C 0.96292 0.60959 0.53572 0.0
C1579 C 0.94752 0.60729 0.52878 0.0
C1580 C 0.96585 0.62194 0.54702 0.0
C1581 C 0.94563 0.65115 0.57394 0.0
H1582 H 0.98419 0.67697 0.56765 0.0
C1583 C 0.95286 0.71679 0.59606 0.0
C1584 C 0.968 0.72224 0.60183 0.0
C1585 C 0.95082 0.70122 0.58979 0.0
C1586 C 0.97352 0.66973 0.56978 0.0
H1587 H 0.92306 0.61594 0.52842 0.0
H1588 H 0.92819 0.63759 0.548 0.0
H1589 H 0.97975 0.65244 0.55174 0.0
H1590 H 0.99276 0.71535 0.60608 0.0
H1591 H 0.98916 0.68809 0.59507 0.0
H1592 H 0.93918 0.66881 0.59163 0.0
C1593 C 0.93795 0.62968 0.54495 0.0
C1594 C 0.97097 0.65565 0.56066 0.0
C1595 C 0.93501 0.6173 0.5337 0.0
C1596 C 0.98094 0.71155 0.60168 0.0
C1597 C 0.97891 0.69597 0.59532 0.0
C1598 C 0.94816 0.66527 0.58303 0.0
C1599 C 0.95346 0.63229 0.55158 0.0
C1600 C 0.95685 0.64635 0.56243 0.0
C1601 C 0.96388 0.69073 0.58908 0.0
C1602 C 0.962 0.67485 0.58083 0.0
H1603 H 0.97274 0.60189 0.53234 0.0
H1604 H 0.97787 0.62345 0.5521 0.0
H1605 H 0.93477 0.6441 0.5758 0.0
H1606 H 0.94262 0.72469 0.59604 0.0
H1607 H 0.93913 0.6976 0.58492 0.0
C1608 C 0.77008 0.85483 0.21322 0.0
C1609 C 0.76485 0.84779 0.22756 0.0
C1610 C 0.77802 0.86981 0.21355 0.0
C1611 C 0.78125 0.90691 0.23719 0.0
H1612 H 0.82313 0.91334 0.21825 0.0
C1613 C 0.82154 0.96054 0.25545 0.0
C1614 C 0.83162 0.96774 0.24414 0.0
C1615 C 0.81272 0.94661 0.25153 0.0
C1616 C 0.8113 0.91187 0.22332 0.0
H1617 H 0.7645 0.85086 0.25354 0.0
H1618 H 0.77775 0.87717 0.25397 0.0
H1619 H 0.80908 0.88739 0.21481 0.0
H1620 H 0.84014 0.96603 0.21967 0.0
H1621 H 0.82437 0.94173 0.21266 0.0
H1622 H 0.78323 0.93125 0.24562 0.0
C1623 C 0.77562 0.87108 0.2425 0.0
C1624 C 0.80331 0.89699 0.2214 0.0
C1625 C 0.76794 0.85604 0.24222 0.0
C1626 C 0.8325 0.96076 0.22867 0.0
C1627 C 0.82353 0.94679 0.22469 0.0
C1628 C 0.78909 0.9218 0.23892 0.0
C1629 C 0.78063 0.87815 0.22818 0.0
C1630 C 0.78842 0.89428 0.22868 0.0
C1631 C 0.81357 0.93952 0.23612 0.0
C1632 C 0.80443 0.92434 0.23241 0.0
H1633 H 0.76774 0.84898 0.20168 0.0
H1634 H 0.78173 0.87508 0.20234 0.0
H1635 H 0.76963 0.90519 0.24267 0.0
H1636 H 0.82064 0.96548 0.26753 0.0
H1637 H 0.80551 0.94119 0.26079 0.0
C1638 C 0.76288 0.14951 0.23831 0.0
C1639 C 0.76755 0.16468 0.24462 0.0
C1640 C 0.77408 0.13722 0.23689 0.0
C1641 C 0.80127 0.11429 0.22978 0.0
H1642 H 0.82982 0.10993 0.26671 0.0
C1643 C 0.84399 0.06012 0.23675 0.0
C1644 C 0.84358 0.05296 0.25195 0.0
C1645 C 0.83693 0.07511 0.23431 0.0
C1646 C 0.82195 0.11098 0.25629 0.0
H1647 H 0.78781 0.17916 0.25349 0.0
H1648 H 0.80741 0.15779 0.25085 0.0
H1649 H 0.81296 0.13345 0.26472 0.0
H1650 H 0.83584 0.05618 0.27659 0.0
H1651 H 0.82357 0.08204 0.27233 0.0
H1652 H 0.80974 0.09134 0.22181 0.0
C1653 C 0.79502 0.15525 0.24733 0.0
C1654 C 0.8124 0.12458 0.25504 0.0
C1655 C 0.7838 0.16751 0.24883 0.0
C1656 C 0.83637 0.0613 0.26471 0.0
C1657 C 0.82943 0.07623 0.2623 0.0
C1658 C 0.81083 0.10064 0.23105 0.0
C1659 C 0.79023 0.13984 0.24168 0.0
C1660 C 0.80168 0.12625 0.24195 0.0
C1661 C 0.82946 0.08327 0.24706 0.0
C1662 C 0.82098 0.09866 0.24453 0.0
H1663 H 0.75042 0.14691 0.23511 0.0
H1664 H 0.76991 0.12546 0.2327 0.0
H1665 H 0.79332 0.1153 0.21942 0.0
H1666 H 0.84946 0.05402 0.22667 0.0
H1667 H 0.83724 0.08029 0.22245 0.0
C1668 C 0.38924 0.97678 0.98332 0.0
C1669 C 0.38835 0.98625 0.96955 0.0
C1670 C 0.37708 0.96557 0.98652 0.0
C1671 C 0.34192 0.94372 0.96754 0.0
H1672 H 0.33214 0.93496 0.01203 0.0
C1673 C 0.28821 0.90369 0.98791 0.0
C1674 C 0.29313 0.89055 0.99711 0.0
C1675 C 0.29904 0.91624 0.9847 0.0
C1676 C 0.33476 0.93734 -0.00043 0.0
H1677 H 0.37416 0.99165 0.94835 0.0
H1678 H 0.35247 0.97257 0.95422 0.0
H1679 H 0.35235 0.9554 0.00589 0.0
H1680 H 0.31298 0.88049 0.01062 0.0
H1681 H 0.3317 0.90274 0.00547 0.0
H1682 H 0.32385 0.92587 0.96138 0.0
C1683 C 0.36276 0.97335 0.96235 0.0
C1684 C 0.34645 0.94894 0.996 0.0
C1685 C 0.37513 0.98435 0.95898 0.0
C1686 C 0.30888 0.89045 0.00346 0.0
C1687 C 0.31957 0.90316 0.00057 0.0
C1688 C 0.32999 0.93236 0.97113 0.0
C1689 C 0.36355 0.96383 0.9762 0.0
C1690 C 0.35041 0.9521 0.97993 0.0
C1691 C 0.3148 0.91603 0.99097 0.0
C1692 C 0.3265 0.92892 0.98717 0.0
H1693 H 0.39944 0.97796 0.99155 0.0
H1694 H 0.37841 0.9582 0.99706 0.0
H1695 H 0.34475 0.94559 0.95504 0.0
H1696 H 0.27616 0.90403 0.98279 0.0
H1697 H 0.29512 0.92609 0.9773 0.0
C1698 C 0.2499 0.37325 0.31149 0.0
C1699 C 0.25732 0.36543 0.29854 0.0
C1700 C 0.23724 0.38376 0.30875 0.0
C1701 C 0.20557 0.39283 0.27918 0.0
H1702 H 0.20287 0.43307 0.30317 0.0
C1703 C 0.16458 0.45365 0.28034 0.0
C1704 C 0.14913 0.44653 0.2799 0.0
C1705 C 0.17822 0.44418 0.28216 0.0
C1706 C 0.20353 0.42194 0.29628 0.0
H1707 H 0.25726 0.36244 0.27259 0.0
H1708 H 0.23522 0.38091 0.26781 0.0
H1709 H 0.22616 0.41593 0.30709 0.0
H1710 H 0.13591 0.42384 0.28099 0.0
H1711 H 0.15967 0.4074 0.28419 0.0
H1712 H 0.18296 0.39882 0.26836 0.0
C1713 C 0.23916 0.37885 0.28007 0.0
C1714 C 0.21677 0.41206 0.29865 0.0
C1715 C 0.25187 0.3684 0.2828 0.0
C1716 C 0.14763 0.42974 0.28126 0.0
C1717 C 0.16125 0.42028 0.28299 0.0
C1718 C 0.19229 0.40266 0.27689 0.0
C1719 C 0.23168 0.3866 0.29302 0.0
C1720 C 0.21789 0.39736 0.29018 0.0
C1721 C 0.17668 0.42739 0.28347 0.0
C1722 C 0.19108 0.41727 0.28548 0.0
H1723 H 0.25393 0.37131 0.32374 0.0
H1724 H 0.23161 0.38944 0.31899 0.0
H1725 H 0.20602 0.38151 0.27258 0.0
H1726 H 0.16616 0.46655 0.2793 0.0
H1727 H 0.18998 0.44998 0.28235 0.0
C1728 C 0.09662 0.02323 0.48672 0.0
C1729 C 0.09478 0.01772 0.47069 0.0
C1730 C 0.10731 0.03591 0.49064 0.0
C1731 C 0.1314 0.06882 0.47258 0.0
H1732 H 0.16282 0.0595 0.50596 0.0
C1733 C 0.19721 0.08758 0.46955 0.0
C1734 C 0.20583 0.09215 0.48359 0.0
C1735 C 0.18113 0.08276 0.47032 0.0
C1736 C 0.15394 0.06253 0.49688 0.0
H1737 H 0.10273 0.02133 0.44625 0.0
H1738 H 0.12111 0.04337 0.45303 0.0
H1739 H 0.13852 0.04282 0.50311 0.0
H1740 H 0.20421 0.09584 0.50939 0.0
H1741 H 0.17598 0.08703 0.51075 0.0
H1742 H 0.14731 0.08792 0.46574 0.0
C1743 C 0.11411 0.03814 0.46255 0.0
C1744 C 0.14001 0.05297 0.49524 0.0
C1745 C 0.10354 0.02545 0.45866 0.0
C1746 C 0.19785 0.09237 0.49837 0.0
C1747 C 0.18175 0.08731 0.49916 0.0
C1748 C 0.14532 0.07833 0.47419 0.0
C1749 C 0.11628 0.04338 0.47859 0.0
C1750 C 0.12896 0.05559 0.48262 0.0
C1751 C 0.17332 0.08224 0.48515 0.0
C1752 C 0.15705 0.07483 0.48591 0.0
H1753 H 0.08988 0.01767 0.49624 0.0
H1754 H 0.1087 0.03976 0.50309 0.0
H1755 H 0.12292 0.07132 0.46295 0.0
H1756 H 0.203 0.08738 0.45798 0.0
H1757 H 0.17503 0.07871 0.45934 0.0
C1758 C 0.69917 0.1595 0.73331 0.0
C1759 C 0.71599 0.15802 0.73336 0.0
C1760 C 0.68922 0.14609 0.73583 0.0
C1761 C 0.68888 0.10161 0.73413 0.0
H1762 H 0.65171 0.1056 0.7614 0.0
C1763 C 0.65273 0.04635 0.75537 0.0
C1764 C 0.63587 0.0474 0.75524 0.0
C1765 C 0.66234 0.05994 0.75263 0.0
C1766 C 0.66194 0.10433 0.75361 0.0
H1767 H 0.73553 0.14121 0.73589 0.0
H1768 H 0.71821 0.11791 0.74061 0.0
H1769 H 0.66878 0.12913 0.75668 0.0
H1770 H 0.61589 0.0636 0.75218 0.0
H1771 H 0.63267 0.0873 0.7473 0.0
H1772 H 0.68209 0.0768 0.73112 0.0
C1773 C 0.71269 0.12941 0.73846 0.0
C1774 C 0.67172 0.11782 0.75089 0.0
C1775 C 0.72263 0.14281 0.73595 0.0
C1776 C 0.62884 0.06238 0.75239 0.0
C1777 C 0.63846 0.07598 0.74968 0.0
C1778 C 0.67912 0.08813 0.73686 0.0
C1779 C 0.69587 0.13088 0.73844 0.0
C1780 C 0.68533 0.1166 0.74116 0.0
C1781 C 0.65532 0.07491 0.74971 0.0
C1782 C 0.66557 0.08931 0.74667 0.0
H1783 H 0.69367 0.17107 0.7315 0.0
H1784 H 0.67631 0.14761 0.73558 0.0
H1785 H 0.69911 0.10032 0.72635 0.0
H1786 H 0.65855 0.03501 0.75757 0.0
H1787 H 0.67529 0.05875 0.75296 0.0
C1788 C 0.38415 0.00761 0.55622 0.0
C1789 C 0.38446 0.99082 0.55378 0.0
C1790 C 0.37041 0.01627 0.55234 0.0
C1791 C 0.33761 0.01568 0.52375 0.0
H1792 H 0.31871 0.04827 0.55109 0.0
C1793 C 0.28512 0.05336 0.50052 0.0
C1794 C 0.28487 0.06968 0.50512 0.0
C1795 C 0.29569 0.04287 0.50802 0.0
C1796 C 0.32396 0.03936 0.54322 0.0
H1797 H 0.3701 0.96993 0.54612 0.0
H1798 H 0.34637 0.98524 0.53869 0.0
H1799 H 0.34013 0.03151 0.56177 0.0
H1800 H 0.29532 0.0878 0.5213 0.0
H1801 H 0.31439 0.06972 0.53387 0.0
H1802 H 0.32232 0.02395 0.50492 0.0
C1803 C 0.35682 0.99159 0.54368 0.0
C1804 C 0.33612 0.0297 0.54941 0.0
C1805 C 0.37047 0.98287 0.54783 0.0
C1806 C 0.29524 0.07526 0.51754 0.0
C1807 C 0.30608 0.06483 0.52483 0.0
C1808 C 0.32569 0.02552 0.51748 0.0
C1809 C 0.35678 0.00838 0.54569 0.0
C1810 C 0.34309 0.01783 0.53969 0.0
C1811 C 0.30655 0.04851 0.52006 0.0
C1812 C 0.31874 0.03757 0.52709 0.0
H1813 H 0.39472 0.01424 0.56049 0.0
H1814 H 0.37071 0.02924 0.55382 0.0
H1815 H 0.34299 0.00678 0.51595 0.0
H1816 H 0.27707 0.04867 0.49114 0.0
H1817 H 0.29536 0.03033 0.5043 0.0
C1818 C 0.59871 0.4652 0.5154 0.0
C1819 C 0.60204 0.48156 0.51267 0.0
C1820 C 0.61091 0.45385 0.51462 0.0
C1821 C 0.65143 0.4472 0.49831 0.0
H1822 H 0.65343 0.41375 0.53022 0.0
C1823 C 0.70597 0.4054 0.50445 0.0
C1824 C 0.70289 0.38908 0.50759 0.0
C1825 C 0.69357 0.41656 0.50491 0.0
C1826 C 0.65293 0.42289 0.5211 0.0
H1827 H 0.62093 0.4988 0.50716 0.0
H1828 H 0.64221 0.47899 0.50576 0.0
H1829 H 0.63202 0.43343 0.5313 0.0
H1830 H 0.6843 0.3717 0.5136 0.0
H1831 H 0.66265 0.39114 0.51424 0.0
H1832 H 0.67233 0.43666 0.48811 0.0
C1833 C 0.63009 0.47491 0.50829 0.0
C1834 C 0.64066 0.43418 0.52172 0.0
C1835 C 0.61788 0.48627 0.50908 0.0
C1836 C 0.68711 0.38418 0.51117 0.0
C1837 C 0.6747 0.39535 0.51163 0.0
C1838 C 0.66369 0.43589 0.49768 0.0
C1839 C 0.62676 0.45856 0.51108 0.0
C1840 C 0.63977 0.44649 0.51035 0.0
C1841 C 0.67778 0.41169 0.50851 0.0
C1842 C 0.66462 0.42361 0.50908 0.0
H1843 H 0.5866 0.46111 0.51793 0.0
H1844 H 0.60788 0.44132 0.51658 0.0
H1845 H 0.65095 0.45636 0.48922 0.0
H1846 H 0.71799 0.40961 0.5017 0.0
H1847 H 0.69643 0.42908 0.50267 0.0
C1848 C 0.71712 0.27328 0.35138 0.0
C1849 C 0.72168 0.25709 0.34992 0.0
C1850 C 0.71785 0.28125 0.36631 0.0
C1851 C 0.73952 0.28028 0.40478 0.0
H1852 H 0.70623 0.30853 0.4202 0.0
C1853 C 0.7461 0.31049 0.46666 0.0
C1854 C 0.74212 0.3268 0.4679 0.0
C1855 C 0.7414 0.30132 0.45316 0.0
C1856 C 0.7157 0.3008 0.416 0.0
H1857 H 0.72989 0.23644 0.36322 0.0
H1858 H 0.73145 0.25046 0.38917 0.0
H1859 H 0.70232 0.29387 0.39464 0.0
H1860 H 0.72941 0.34615 0.45637 0.0
H1861 H 0.72158 0.33025 0.43244 0.0
H1862 H 0.75318 0.28745 0.42566 0.0
C1863 C 0.72746 0.257 0.37871 0.0
C1864 C 0.71343 0.29239 0.40139 0.0
C1865 C 0.72663 0.24899 0.36382 0.0
C1866 C 0.73261 0.33358 0.45573 0.0
C1867 C 0.7281 0.32444 0.44205 0.0
C1868 C 0.74185 0.28876 0.41925 0.0
C1869 C 0.72326 0.27326 0.38008 0.0
C1870 C 0.72532 0.28202 0.39567 0.0
C1871 C 0.73285 0.30831 0.4404 0.0
C1872 C 0.72996 0.29909 0.4251 0.0
H1873 H 0.71343 0.27995 0.3409 0.0
H1874 H 0.7147 0.29384 0.36698 0.0
H1875 H 0.74904 0.27263 0.40053 0.0
H1876 H 0.75322 0.30488 0.47597 0.0
H1877 H 0.74484 0.28882 0.45256 0.0
C1878 C 0.52325 0.04643 0.90966 0.0
C1879 C 0.50664 0.04649 0.90623 0.0
C1880 C 0.53419 0.04308 0.89754 0.0
C1881 C 0.55203 0.02359 0.87239 0.0
H1882 H 0.54797 0.04092 0.82951 0.0
C1883 C 0.57959 0.99387 0.8167 0.0
C1884 C 0.58727 0.00378 0.80555 0.0
C1885 C 0.57131 0.00057 0.82956 0.0
C1886 C 0.54936 0.03614 0.84148 0.0
H1887 H 0.48851 0.04359 0.88736 0.0
H1888 H 0.50766 0.03768 0.86614 0.0
H1889 H 0.53027 0.05043 0.85077 0.0
H1890 H 0.59246 0.02852 0.79923 0.0
H1891 H 0.57771 0.04027 0.82171 0.0
H1892 H 0.57085 0.00905 0.86305 0.0
C1893 C 0.51219 0.04028 0.8782 0.0
C1894 C 0.53915 0.04146 0.85359 0.0
C1895 C 0.50123 0.04351 0.89036 0.0
C1896 C 0.58669 0.02057 0.80766 0.0
C1897 C 0.57819 0.0273 0.82045 0.0
C1898 C 0.56211 0.01817 0.86027 0.0
C1899 C 0.52877 0.03982 0.88172 0.0
C1900 C 0.54027 0.03509 0.86912 0.0
C1901 C 0.57038 0.01733 0.83147 0.0
C1902 C 0.56073 0.02423 0.84464 0.0
H1903 H 0.52777 0.04855 0.92181 0.0
H1904 H 0.54691 0.0429 0.90057 0.0
H1905 H 0.55309 0.01838 0.88421 0.0
H1906 H 0.57984 0.98089 0.81544 0.0
H1907 H 0.56526 0.9926 0.83777 0.0
C1908 C 0.30788 0.2442 0.38919 0.0
C1909 C 0.29523 0.24994 0.37956 0.0
C1910 C 0.30548 0.23094 0.39904 0.0
C1911 C 0.29432 0.20794 0.42508 0.0
H1912 H 0.26926 0.17191 0.40741 0.0
C1913 C 0.2714 0.15496 0.46341 0.0
C1914 C 0.27149 0.13948 0.45636 0.0
C1915 C 0.2754 0.16846 0.45441 0.0
C1916 C 0.27641 0.1818 0.41248 0.0
H1917 H 0.27013 0.24625 0.37275 0.0
H1918 H 0.26586 0.22336 0.39015 0.0
H1919 H 0.27405 0.19544 0.39103 0.0
H1920 H 0.27648 0.12601 0.43447 0.0
H1921 H 0.28362 0.14951 0.41888 0.0
H1922 H 0.29683 0.19414 0.44649 0.0
C1923 C 0.27769 0.229 0.38997 0.0
C1924 C 0.27898 0.19537 0.40316 0.0
C1925 C 0.28009 0.24225 0.38015 0.0
C1926 C 0.27615 0.13776 0.44026 0.0
C1927 C 0.28016 0.15124 0.43128 0.0
C1928 C 0.29172 0.19434 0.43443 0.0
C1929 C 0.29038 0.22311 0.39943 0.0
C1930 C 0.2879 0.20863 0.40936 0.0
C1931 C 0.2796 0.16676 0.43817 0.0
C1932 C 0.28272 0.18113 0.42823 0.0
H1933 H 0.31966 0.24996 0.3891 0.0
H1934 H 0.31552 0.22661 0.40611 0.0
H1935 H 0.30115 0.21801 0.43023 0.0
H1936 H 0.26786 0.15671 0.47579 0.0
H1937 H 0.27472 0.18027 0.46003 0.0
C1938 C 0.50172 0.46046 0.86043 0.0
C1939 C 0.50888 0.47342 0.8691 0.0
C1940 C 0.48966 0.46315 0.84889 0.0
C1941 C 0.46931 0.47335 0.81985 0.0
H1942 H 0.43681 0.5039 0.83227 0.0
C1943 C 0.41783 0.49361 0.77694 0.0
C1944 C 0.40251 0.49478 0.78374 0.0
C1945 C 0.43137 0.49084 0.78667 0.0
C1946 C 0.44575 0.49528 0.82864 0.0
H1947 H 0.50911 0.49939 0.87228 0.0
H1948 H 0.48841 0.50407 0.852 0.0
H1949 H 0.45955 0.49924 0.85026 0.0
H1950 H 0.3894 0.49371 0.80608 0.0
H1951 H 0.4129 0.48885 0.82292 0.0
H1952 H 0.45521 0.46918 0.79832 0.0
C1953 C 0.49198 0.49182 0.85421 0.0
C1954 C 0.45888 0.49275 0.83887 0.0
C1955 C 0.504 0.48914 0.8657 0.0
C1956 C 0.40101 0.49298 0.80043 0.0
C1957 C 0.41451 0.49026 0.81012 0.0
C1958 C 0.45615 0.47594 0.80955 0.0
C1959 C 0.48449 0.47885 0.84585 0.0
C1960 C 0.47079 0.48172 0.83464 0.0
C1961 C 0.42985 0.48927 0.80339 0.0
C1962 C 0.44417 0.48684 0.81391 0.0
H1963 H 0.50532 0.44822 0.86266 0.0
H1964 H 0.48406 0.4529 0.84272 0.0
H1965 H 0.47836 0.46486 0.8162 0.0
H1966 H 0.4194 0.49492 0.76412 0.0
H1967 H 0.44306 0.49024 0.78115 0.0
C1968 C 0.74703 0.70427 0.15347 0.0
C1969 C 0.74821 0.72102 0.15153 0.0
C1970 C 0.74894 0.69379 0.14033 0.0
C1971 C 0.76626 0.69192 0.09976 0.0
H1972 H 0.73687 0.6557 0.09286 0.0
C1973 C 0.7623 0.65716 0.0395 0.0
C1974 C 0.76049 0.64033 0.03984 0.0
C1975 C 0.76123 0.66638 0.0536 0.0
C1976 C 0.74532 0.66563 0.09473 0.0
H1977 H 0.7519 0.73987 0.13415 0.0
H1978 H 0.75532 0.72164 0.11135 0.0
H1979 H 0.73429 0.67288 0.11674 0.0
H1980 H 0.75612 0.61999 0.05529 0.0
H1981 H 0.75438 0.63613 0.07997 0.0
H1982 H 0.77724 0.68478 0.07776 0.0
C1983 C 0.75321 0.71658 0.12306 0.0
C1984 C 0.74383 0.67547 0.10841 0.0
C1985 C 0.75126 0.72703 0.13615 0.0
C1986 C 0.75755 0.63293 0.05461 0.0
C1987 C 0.75647 0.64218 0.06875 0.0
C1988 C 0.76776 0.68209 0.08612 0.0
C1989 C 0.75211 0.69984 0.12499 0.0
C1990 C 0.75417 0.68884 0.11096 0.0
C1991 C 0.75833 0.65901 0.0684 0.0
C1992 C 0.75719 0.66894 0.08334 0.0
H1993 H 0.74485 0.69924 0.16518 0.0
H1994 H 0.74817 0.68094 0.14222 0.0
H1995 H 0.77461 0.70195 0.10154 0.0
H1996 H 0.76451 0.66326 0.02832 0.0
H1997 H 0.76246 0.67934 0.05286 0.0
C1998 C 0.97821 0.00421 0.10217 0.0
C1999 C 0.98596 0.01862 0.09787 0.0
C2000 C 0.96722 0.00403 0.11473 0.0
C2001 C 0.94168 0.03103 0.13918 0.0
H2002 H 0.94072 0.99512 0.16835 0.0
C2003 C 0.90818 0.03278 0.1995 0.0
C2004 C 0.89934 0.01896 0.20371 0.0
C2005 C 0.91809 0.03257 0.18609 0.0
C2006 C 0.94072 0.00515 0.1602 0.0
H2007 H 0.98851 0.04407 0.10359 0.0
H2008 H 0.96958 0.04374 0.12563 0.0
H2009 H 0.95947 0.99506 0.14611 0.0
H2010 H 0.89388 0.99412 0.19702 0.0
H2011 H 0.91126 0.99377 0.17361 0.0
H2012 H 0.92311 0.04124 0.1535 0.0
C2013 C 0.97165 0.03263 0.11908 0.0
C2014 C 0.95145 0.00512 0.14742 0.0
C2015 C 0.98255 0.03282 0.10646 0.0
C2016 C 0.90053 0.00497 0.19411 0.0
C2017 C 0.91055 0.00473 0.18076 0.0
C2018 C 0.93102 0.03111 0.15202 0.0
C2019 C 0.96379 0.01824 0.12335 0.0
C2020 C 0.95213 0.01809 0.13678 0.0
C2021 C 0.91949 0.01852 0.17663 0.0
C2022 C 0.93047 0.0182 0.16271 0.0
H2023 H 0.98044 0.99312 0.09564 0.0
H2024 H 0.96123 0.99278 0.11751 0.0
H2025 H 0.94161 0.04109 0.13106 0.0
H2026 H 0.90754 0.04376 0.20664 0.0
H2027 H 0.92494 0.04334 0.18332 0.0
C2028 C 0.24856 0.7639 0.14979 0.0
C2029 C 0.25218 0.77146 0.16464 0.0
C2030 C 0.24532 0.773 0.1362 0.0
C2031 C 0.25172 0.81386 0.11994 0.0
H2032 H 0.22433 0.79644 0.0855 0.0
C2033 C 0.24314 0.84417 0.05764 0.0
C2034 C 0.24892 0.83402 0.04543 0.0
C2035 C 0.24035 0.83812 0.07301 0.0
C2036 C 0.23185 0.80152 0.09511 0.0
H2037 H 0.25476 0.79446 0.17708 0.0
H2038 H 0.24861 0.81046 0.15342 0.0
H2039 H 0.22514 0.78308 0.1114 0.0
H2040 H 0.2555 0.80957 0.03935 0.0
H2041 H 0.25004 0.79895 0.06592 0.0
H2042 H 0.25838 0.83229 0.10343 0.0
C2043 C 0.24868 0.79748 0.15214 0.0
C2044 C 0.23248 0.7938 0.10989 0.0
C2045 C 0.25215 0.78834 0.16572 0.0
C2046 C 0.25111 0.81766 0.04858 0.0
C2047 C 0.24792 0.81156 0.06373 0.0
C2048 C 0.25085 0.82174 0.10522 0.0
C2049 C 0.24538 0.78993 0.13714 0.0
C2050 C 0.24287 0.79952 0.12232 0.0
C2051 C 0.24282 0.82178 0.07616 0.0
C2052 C 0.2413 0.81534 0.09254 0.0
H2053 H 0.24873 0.75091 0.14856 0.0
H2054 H 0.24326 0.76671 0.12484 0.0
H2055 H 0.25998 0.81857 0.1291 0.0
H2056 H 0.24145 0.85685 0.05549 0.0
H2057 H 0.23645 0.8462 0.08247 0.0
C2058 C 0.03217 0.45461 0.11731 0.0
C2059 C 0.02288 0.4664 0.10976 0.0
C2060 C 0.04191 0.45856 0.13066 0.0
C2061 C 0.04332 0.48537 0.16499 0.0
H2062 H 0.08678 0.47001 0.17108 0.0
C2063 C 0.07217 0.47284 0.22667 0.0
C2064 C 0.08777 0.47897 0.22976 0.0
C2065 C 0.06516 0.474 0.21139 0.0
C2066 C 0.07473 0.47454 0.16946 0.0
H2067 H 0.01725 0.49184 0.11 0.0
H2068 H 0.03378 0.49853 0.13378 0.0
H2069 H 0.07345 0.46704 0.14467 0.0
H2070 H 0.10825 0.4912 0.21934 0.0
H2071 H 0.09606 0.49278 0.19237 0.0
H2072 H 0.04429 0.49214 0.18997 0.0
C2073 C 0.03349 0.48624 0.12922 0.0
C2074 C 0.0671 0.47277 0.15442 0.0
C2075 C 0.02393 0.48236 0.11569 0.0
C2076 C 0.09619 0.48639 0.21729 0.0
C2077 C 0.08927 0.48727 0.20189 0.0
C2078 C 0.05084 0.48689 0.18008 0.0
C2079 C 0.04241 0.47433 0.13691 0.0
C2080 C 0.05124 0.47794 0.15215 0.0
C2081 C 0.0737 0.48107 0.19885 0.0
C2082 C 0.0665 0.48123 0.1825 0.0
H2083 H 0.03148 0.44215 0.11334 0.0
H2084 H 0.04851 0.44911 0.13653 0.0
H2085 H 0.03103 0.48934 0.16357 0.0
H2086 H 0.06536 0.46712 0.23606 0.0
H2087 H 0.05318 0.469 0.20928 0.0
C2088 C 0.34793 0.70724 0.27759 0.0
C2089 C 0.33857 0.72034 0.27275 0.0
C2090 C 0.36296 0.70979 0.28508 0.0
C2091 C 0.3961 0.73894 0.28795 0.0
H2092 H 0.40741 0.71868 0.32818 0.0
C2093 C 0.45079 0.76061 0.32531 0.0
C2094 C 0.46002 0.74941 0.33374 0.0
C2095 C 0.43635 0.75598 0.31775 0.0
C2096 C 0.40457 0.72422 0.31681 0.0
H2097 H 0.33763 0.74643 0.27249 0.0
H2098 H 0.36403 0.75079 0.28504 0.0
H2099 H 0.3814 0.7125 0.31517 0.0
H2100 H 0.46127 0.72448 0.34085 0.0
H2101 H 0.4361 0.71622 0.32722 0.0
H2102 H 0.41921 0.75047 0.28928 0.0
C2103 C 0.3597 0.73856 0.28296 0.0
C2104 C 0.38965 0.72072 0.30941 0.0
C2105 C 0.3446 0.73604 0.27569 0.0
C2106 C 0.45441 0.7334 0.33446 0.0
C2107 C 0.43995 0.7287 0.32672 0.0
C2108 C 0.41105 0.74227 0.2952 0.0
C2109 C 0.36904 0.72547 0.28767 0.0
C2110 C 0.38518 0.72829 0.29507 0.0
C2111 C 0.43077 0.73995 0.31821 0.0
C2112 C 0.41537 0.73523 0.3099 0.0
H2113 H 0.34382 0.69498 0.27532 0.0
H2114 H 0.36999 0.69949 0.2885 0.0
H2115 H 0.39306 0.74471 0.27674 0.0
H2116 H 0.45463 0.7731 0.32466 0.0
H2117 H 0.42944 0.76509 0.3117 0.0
C2118 C 0.97627 0.36927 0.00624 0.0
C2119 C 0.96621 0.38148 0.00052 0.0
C2120 C 0.98027 0.35628 0.9963 0.0
C2121 C 0.96748 0.33264 0.96095 0.0
H2122 H 0.01292 0.32652 0.95336 0.0
C2123 C 0.99189 0.28324 0.91807 0.0
C2124 C 0.00083 0.28996 0.90558 0.0
C2125 C 0.98812 0.29258 0.93161 0.0
C2126 C 0.00021 0.32799 0.95554 0.0
H2127 H 0.95233 0.38929 0.97978 0.0
H2128 H 0.95884 0.36628 0.96275 0.0
H2129 H 0.00454 0.34627 0.97361 0.0
H2130 H 0.01351 0.31137 0.89775 0.0
H2131 H 0.00735 0.32747 0.92161 0.0
H2132 H 0.96316 0.31451 0.94269 0.0
C2133 C 0.96363 0.36689 0.97495 0.0
C2134 C 0.99543 0.33921 0.96711 0.0
C2135 C 0.95986 0.38004 0.98476 0.0
C2136 C 0.00654 0.30591 0.90717 0.0
C2137 C 0.00309 0.31509 0.92084 0.0
C2138 C 0.97227 0.32118 0.94959 0.0
C2139 C 0.97404 0.35503 0.98056 0.0
C2140 C 0.97902 0.34188 0.96965 0.0
C2141 C 0.9936 0.30861 0.93301 0.0
C2142 C 0.98866 0.31904 0.94655 0.0
H2143 H 0.9811 0.36972 0.01841 0.0
H2144 H 0.98824 0.34719 0.00091 0.0
H2145 H 0.95476 0.33448 0.96276 0.0
H2146 H 0.98729 0.27099 0.91709 0.0
H2147 H 0.98078 0.28736 0.94089 0.0
C2148 C 0.65241 0.76354 0.27032 0.0
C2149 C 0.66195 0.75013 0.26698 0.0
C2150 C 0.63953 0.76234 0.28077 0.0
C2151 C 0.61047 0.73426 0.29788 0.0
H2152 H 0.60381 0.77005 0.32739 0.0
C2153 C 0.55419 0.74057 0.33886 0.0
C2154 C 0.54677 0.75556 0.33719 0.0
C2155 C 0.56941 0.73795 0.33233 0.0
C2156 C 0.60555 0.75993 0.31927 0.0
H2157 H 0.66522 0.72482 0.27186 0.0
H2158 H 0.6424 0.72269 0.29006 0.0
H2159 H 0.62846 0.76896 0.312 0.0
H2160 H 0.54959 0.77956 0.32757 0.0
H2161 H 0.57591 0.77503 0.31645 0.0
H2162 H 0.58721 0.72554 0.30489 0.0
C2163 C 0.64503 0.73414 0.28456 0.0
C2164 C 0.61962 0.75932 0.31043 0.0
C2165 C 0.65805 0.73535 0.27411 0.0
C2166 C 0.55491 0.76786 0.32906 0.0
C2167 C 0.57008 0.76531 0.32278 0.0
C2168 C 0.59633 0.73486 0.30679 0.0
C2169 C 0.63576 0.74769 0.28811 0.0
C2170 C 0.622 0.7468 0.29922 0.0
C2171 C 0.57751 0.75037 0.32433 0.0
C2172 C 0.59352 0.74801 0.31714 0.0
H2173 H 0.65477 0.77499 0.26472 0.0
H2174 H 0.63236 0.77291 0.28293 0.0
H2175 H 0.61198 0.72447 0.28932 0.0
H2176 H 0.54819 0.73086 0.34503 0.0
H2177 H 0.5749 0.72631 0.33366 0.0
C2178 C 0.02065 0.11226 0.98517 0.0
C2179 C 0.02402 0.0965 0.98001 0.0
C2180 C 0.01974 0.12473 0.97415 0.0
C2181 C 0.01353 0.13266 0.93089 0.0
H2182 H 0.03119 0.17477 0.94256 0.0
C2183 C 0.01732 0.18511 0.88585 0.0
C2184 C 0.01331 0.20046 0.89173 0.0
C2185 C 0.01885 0.17219 0.89633 0.0
C2186 C 0.02606 0.16313 0.93917 0.0
H2187 H 0.02903 0.08152 0.95915 0.0
H2188 H 0.02776 0.10337 0.93995 0.0
H2189 H 0.03365 0.15271 0.96133 0.0
H2190 H 0.00762 0.2142 0.91324 0.0
H2191 H 0.01018 0.1917 0.93143 0.0
H2192 H 0.00594 0.14313 0.9087 0.0
C2193 C 0.02564 0.10604 0.95252 0.0
C2194 C 0.02747 0.15047 0.94994 0.0
C2195 C 0.02655 0.09354 0.96356 0.0
C2196 C 0.01077 0.20256 0.9083 0.0
C2197 C 0.01234 0.18968 0.91876 0.0
C2198 C 0.01215 0.14533 0.92009 0.0
C2199 C 0.02221 0.12179 0.95769 0.0
C2200 C 0.02112 0.13511 0.94599 0.0
C2201 C 0.01646 0.17435 0.91292 0.0
C2202 C 0.0183 0.16074 0.92416 0.0
H2203 H 0.01882 0.115 0.99778 0.0
H2204 H 0.0169 0.13668 0.97854 0.0
H2205 H 0.00833 0.12104 0.92754 0.0
H2206 H 0.01938 0.18307 0.87316 0.0
H2207 H 0.02218 0.16057 0.89146 0.0
C2208 C 0.39025 0.31261 0.26683 0.0
C2209 C 0.38493 0.29852 0.27444 0.0
C2210 C 0.40119 0.3118 0.25431 0.0
C2211 C 0.43268 0.29009 0.23505 0.0
H2212 H 0.41216 0.30098 0.19457 0.0
C2213 C 0.46071 0.2747 0.17348 0.0
C2214 C 0.45662 0.2841 0.16022 0.0
C2215 C 0.45378 0.27766 0.18843 0.0
C2216 C 0.41833 0.29827 0.20574 0.0
H2217 H 0.38786 0.27262 0.27537 0.0
H2218 H 0.4075 0.2714 0.25388 0.0
H2219 H 0.39762 0.30425 0.21944 0.0
H2220 H 0.44313 0.30465 0.15229 0.0
H2221 H 0.43192 0.31059 0.17849 0.0
H2222 H 0.45359 0.28454 0.22153 0.0
C2223 C 0.40295 0.283 0.25761 0.0
C2224 C 0.40988 0.30002 0.21997 0.0
C2225 C 0.39174 0.28374 0.26994 0.0
C2226 C 0.44627 0.29708 0.16232 0.0
C2227 C 0.43973 0.30035 0.17733 0.0
C2228 C 0.44134 0.28869 0.22081 0.0
C2229 C 0.40737 0.29695 0.24942 0.0
C2230 C 0.41692 0.29583 0.23469 0.0
C2231 C 0.44292 0.29036 0.1905 0.0
C2232 C 0.43422 0.29263 0.20591 0.0
H2233 H 0.38564 0.32426 0.27024 0.0
H2234 H 0.40454 0.32271 0.24817 0.0
H2235 H 0.4383 0.28681 0.24635 0.0
H2236 H 0.46863 0.26456 0.17209 0.0
H2237 H 0.45645 0.26956 0.19814 0.0
C2238 C 0.53044 0.39805 0.00668 0.0
C2239 C 0.53169 0.39388 0.99031 0.0
C2240 C 0.52699 0.38631 0.018 0.0
C2241 C 0.5269 0.35802 0.0407 0.0
H2242 H 0.4938 0.32639 0.02905 0.0
C2243 C 0.50727 0.30647 0.08292 0.0
C2244 C 0.49063 0.30335 0.08358 0.0
C2245 C 0.51347 0.31703 0.07154 0.0
C2246 C 0.50303 0.33518 0.03252 0.0
H2247 H 0.53089 0.37405 0.97306 0.0
H2248 H 0.52494 0.35352 0.99283 0.0
H2249 H 0.50258 0.34575 0.00928 0.0
H2250 H 0.46744 0.30916 0.07297 0.0
H2251 H 0.47819 0.32759 0.05339 0.0
H2252 H 0.52689 0.34773 0.06416 0.0
C2253 C 0.52633 0.36591 0.99688 0.0
C2254 C 0.50821 0.34615 0.02111 0.0
C2255 C 0.52973 0.37767 0.98555 0.0
C2256 C 0.48033 0.31117 0.07276 0.0
C2257 C 0.4865 0.32168 0.06143 0.0
C2258 C 0.52169 0.34702 0.05214 0.0
C2259 C 0.52476 0.37012 0.01322 0.0
C2260 C 0.52007 0.35783 0.02511 0.0
C2261 C 0.50314 0.32463 0.06058 0.0
C2262 C 0.50953 0.33563 0.04823 0.0
H2263 H 0.5317 0.41047 0.01069 0.0
H2264 H 0.52561 0.39 0.03044 0.0
H2265 H 0.5362 0.36674 0.0441 0.0
H2266 H 0.51554 0.30063 0.09108 0.0
H2267 H 0.52636 0.319 0.07111 0.0
C2268 C 0.64191 0.26196 0.21989 0.0
C2269 C 0.6469 0.24606 0.22207 0.0
C2270 C 0.62901 0.26527 0.20959 0.0
C2271 C 0.60367 0.24832 0.17624 0.0
H2272 H 0.57273 0.27904 0.19185 0.0
C2273 C 0.54075 0.25615 0.14679 0.0
C2274 C 0.53481 0.27186 0.14583 0.0
C2275 C 0.55512 0.25321 0.15513 0.0
C2276 C 0.58136 0.2706 0.1872 0.0
H2277 H 0.64247 0.22118 0.21489 0.0
H2278 H 0.61984 0.22695 0.19691 0.0
H2279 H 0.59657 0.2735 0.20803 0.0
H2280 H 0.53955 0.29684 0.15251 0.0
H2281 H 0.56465 0.29171 0.1669 0.0
H2282 H 0.58829 0.24534 0.15545 0.0
C2283 C 0.62604 0.23688 0.20305 0.0
C2284 C 0.59504 0.26742 0.19648 0.0
C2285 C 0.63899 0.23357 0.21335 0.0
C2286 C 0.54373 0.28459 0.15309 0.0
C2287 C 0.55808 0.28164 0.16142 0.0
C2288 C 0.58995 0.25151 0.16694 0.0
C2289 C 0.62076 0.25276 0.20123 0.0
C2290 C 0.60636 0.25624 0.19112 0.0
C2291 C 0.56385 0.2659 0.16269 0.0
C2292 C 0.57863 0.26268 0.17232 0.0
H2293 H 0.64797 0.27188 0.2262 0.0
H2294 H 0.62547 0.27766 0.2082 0.0
H2295 H 0.61226 0.23978 0.17169 0.0
H2296 H 0.53418 0.24607 0.14134 0.0
H2297 H 0.55915 0.24092 0.15601 0.0
C2298 C 0.47033 0.10909 0.0364 0.0
C2299 C 0.45481 0.10462 0.03091 0.0
C2300 C 0.47264 0.12238 0.04673 0.0
C2301 C 0.45094 0.15033 0.07382 0.0
H2302 H 0.48628 0.17959 0.06465 0.0
C2303 C 0.45316 0.21669 0.09475 0.0
C2304 C 0.46799 0.22325 0.10021 0.0
C2305 C 0.45221 0.20109 0.08834 0.0
C2306 C 0.4765 0.17142 0.06753 0.0
H2307 H 0.42954 0.11051 0.03193 0.0
H2308 H 0.43355 0.13379 0.04974 0.0
H2309 H 0.48344 0.15431 0.04959 0.0
H2310 H 0.49338 0.2184 0.10356 0.0
H2311 H 0.49169 0.19113 0.09223 0.0
H2312 H 0.44373 0.16778 0.0914 0.0
C2313 C 0.44393 0.12685 0.04639 0.0
C2314 C 0.47488 0.15691 0.05892 0.0
C2315 C 0.44162 0.11353 0.03615 0.0
C2316 C 0.48178 0.21372 0.09944 0.0
C2317 C 0.48084 0.19814 0.09289 0.0
C2318 C 0.45251 0.16489 0.08236 0.0
C2319 C 0.45948 0.13152 0.05171 0.0
C2320 C 0.46194 0.1463 0.0618 0.0
C2321 C 0.46607 0.19173 0.08713 0.0
C2322 C 0.46518 0.17568 0.07913 0.0
H2323 H 0.4807 0.10231 0.03271 0.0
H2324 H 0.48475 0.1255 0.05079 0.0
H2325 H 0.44101 0.14229 0.07656 0.0
H2326 H 0.4423 0.22369 0.09521 0.0
H2327 H 0.44069 0.19653 0.08384 0.0
C2328 C 0.26083 0.36072 0.72891 0.0
C2329 C 0.2677 0.34626 0.72365 0.0
C2330 C 0.26939 0.37526 0.7281 0.0
C2331 C 0.31085 0.39173 0.72536 0.0
H2332 H 0.28842 0.43147 0.71754 0.0
C2333 C 0.34331 0.45397 0.72599 0.0
C2334 C 0.33633 0.46508 0.7366 0.0
C2335 C 0.33505 0.43972 0.72156 0.0
C2336 C 0.29484 0.42045 0.71968 0.0
H2337 H 0.28904 0.33585 0.71332 0.0
H2338 H 0.30376 0.36128 0.7114 0.0
H2339 H 0.27384 0.40584 0.71509 0.0
H2340 H 0.31497 0.47041 0.75022 0.0
H2341 H 0.30053 0.44578 0.74227 0.0
H2342 H 0.33184 0.40647 0.73003 0.0
C2343 C 0.29183 0.36134 0.71642 0.0
C2344 C 0.28648 0.40577 0.71839 0.0
C2345 C 0.28329 0.34676 0.71734 0.0
C2346 C 0.3207 0.46204 0.74209 0.0
C2347 C 0.31238 0.44798 0.73746 0.0
C2348 C 0.31925 0.40642 0.72648 0.0
C2349 C 0.28502 0.37577 0.72187 0.0
C2350 C 0.29428 0.39124 0.72161 0.0
C2351 C 0.31957 0.43654 0.7274 0.0
C2352 C 0.31123 0.42094 0.72402 0.0
H2353 H 0.24876 0.36086 0.7336 0.0
H2354 H 0.26383 0.38607 0.73266 0.0
H2355 H 0.31723 0.38083 0.72811 0.0
H2356 H 0.35535 0.45599 0.7216 0.0
H2357 H 0.34082 0.43111 0.71373 0.0
C2358 C 0.28418 0.66041 0.72597 0.0
C2359 C 0.27797 0.66524 0.7409 0.0
C2360 C 0.295 0.64769 0.72499 0.0
C2361 C 0.3229 0.62396 0.75004 0.0
H2362 H 0.31511 0.58988 0.71836 0.0
C2363 C 0.34208 0.55931 0.7601 0.0
C2364 C 0.34833 0.55024 0.74732 0.0
C2365 C 0.33619 0.57468 0.75757 0.0
C2366 C 0.31765 0.59944 0.72707 0.0
H2367 H 0.278 0.66015 0.76642 0.0
H2368 H 0.29682 0.63823 0.76472 0.0
H2369 H 0.29954 0.61455 0.71705 0.0
H2370 H 0.35354 0.55029 0.72186 0.0
H2371 H 0.34294 0.57729 0.71737 0.0
H2372 H 0.34055 0.60864 0.76044 0.0
C2373 C 0.29364 0.64445 0.75381 0.0
C2374 C 0.30873 0.61356 0.72633 0.0
C2375 C 0.28283 0.65706 0.75478 0.0
C2376 C 0.34881 0.55702 0.73194 0.0
C2377 C 0.3427 0.57241 0.72936 0.0
C2378 C 0.33176 0.60987 0.7508 0.0
C2379 C 0.29987 0.63961 0.73892 0.0
C2380 C 0.31091 0.62575 0.73813 0.0
C2381 C 0.33628 0.58135 0.74217 0.0
C2382 C 0.32888 0.59726 0.73964 0.0
H2383 H 0.28079 0.66654 0.71507 0.0
H2384 H 0.29965 0.64426 0.71336 0.0
H2385 H 0.32512 0.63328 0.75909 0.0
H2386 H 0.34157 0.55449 0.77211 0.0
H2387 H 0.33112 0.58116 0.76764 0.0
C2388 C 0.86531 0.4987 0.46221 0.0
C2389 C 0.88064 0.49467 0.45666 0.0
C2390 C 0.85385 0.48668 0.46522 0.0
C2391 C 0.85139 0.44413 0.47584 0.0
H2392 H 0.80634 0.4469 0.46357 0.0
C2393 C 0.80826 0.39041 0.48274 0.0
C2394 C 0.79273 0.39334 0.48841 0.0
C2395 C 0.81832 0.40312 0.47835 0.0
C2396 C 0.81885 0.44605 0.46725 0.0
H2397 H 0.89585 0.47487 0.44966 0.0
H2398 H 0.87582 0.45395 0.45474 0.0
H2399 H 0.82508 0.46855 0.45651 0.0
H2400 H 0.7755 0.41194 0.49369 0.0
H2401 H 0.79327 0.43424 0.48627 0.0
H2402 H 0.84528 0.42183 0.48674 0.0
C2403 C 0.8727 0.4664 0.45686 0.0
C2404 C 0.82957 0.45842 0.46317 0.0
C2405 C 0.88411 0.4784 0.45378 0.0
C2406 C 0.7874 0.40929 0.48936 0.0
C2407 C 0.79755 0.42205 0.48503 0.0
C2408 C 0.84071 0.43185 0.47997 0.0
C2409 C 0.85755 0.47038 0.46286 0.0
C2410 C 0.84598 0.45749 0.4673 0.0
C2411 C 0.81319 0.4191 0.47963 0.0
C2412 C 0.82433 0.43255 0.4756 0.0
H2413 H 0.86225 0.51115 0.46441 0.0
H2414 H 0.84229 0.4901 0.4699 0.0
H2415 H 0.8639 0.44325 0.4795 0.0
H2416 H 0.8127 0.37827 0.48168 0.0
H2417 H 0.83016 0.40038 0.47391 0.0
C2418 C 0.75379 0.88953 0.80217 0.0
C2419 C 0.76096 0.88065 0.78976 0.0
C2420 C 0.74105 0.89976 0.79883 0.0
C2421 C 0.70878 0.90624 0.76906 0.0
H2422 H 0.70516 0.94737 0.79126 0.0
C2423 C 0.66519 0.96541 0.76961 0.0
C2424 C 0.65008 0.95758 0.76967 0.0
C2425 C 0.67931 0.95662 0.7711 0.0
C2426 C 0.70607 0.936 0.78484 0.0
H2427 H 0.76045 0.87564 0.76408 0.0
H2428 H 0.73833 0.8937 0.75821 0.0
H2429 H 0.72912 0.93129 0.79543 0.0
H2430 H 0.638 0.93434 0.77127 0.0
H2431 H 0.66257 0.91907 0.774 0.0
H2432 H 0.68577 0.91096 0.75842 0.0
C2433 C 0.74248 0.89263 0.77055 0.0
C2434 C 0.71971 0.92671 0.78736 0.0
C2435 C 0.75526 0.88241 0.77389 0.0
C2436 C 0.64942 0.94076 0.77115 0.0
C2437 C 0.66352 0.93199 0.7726 0.0
C2438 C 0.69513 0.91551 0.76656 0.0
C2439 C 0.73518 0.90134 0.783 0.0
C2440 C 0.72114 0.91165 0.77962 0.0
C2441 C 0.67862 0.9398 0.77262 0.0
C2442 C 0.69354 0.93041 0.77456 0.0
H2443 H 0.75803 0.88858 0.81449 0.0
H2444 H 0.73557 0.90617 0.80872 0.0
H2445 H 0.70945 0.89463 0.76302 0.0
H2446 H 0.66613 0.97836 0.76845 0.0
H2447 H 0.69078 0.96296 0.77092 0.0
C2448 C 0.61311 0.52545 0.97716 0.0
C2449 C 0.61459 0.5136 0.96511 0.0
C2450 C 0.6249 0.53755 0.97913 0.0
C2451 C 0.65918 0.55627 0.95739 0.0
H2452 H 0.67049 0.57398 -0.0005 0.0
C2453 C 0.70996 0.60295 0.96327 0.0
C2454 C 0.72045 0.60161 0.9765 0.0
C2455 C 0.69508 0.59496 0.96303 0.0
C2456 C 0.6676 0.56909 0.98765 0.0
H2457 H 0.62954 0.50455 0.94608 0.0
H2458 H 0.65055 0.52499 0.95 0.0
H2459 H 0.64929 0.5536 0.99689 0.0
H2460 H 0.72358 0.59151 0.00013 0.0
H2461 H 0.69809 0.57666 -0.0006 0.0
H2462 H 0.67819 0.57064 0.94823 0.0
C2463 C 0.64007 0.52555 0.95752 0.0
C2464 C 0.65523 0.55753 0.98612 0.0
C2465 C 0.62814 0.51371 0.95535 0.0
C2466 C 0.71558 0.59278 0.98984 0.0
C2467 C 0.70089 0.58434 0.9894 0.0
C2468 C 0.67174 0.5675 0.95896 0.0
C2469 C 0.6385 0.53782 0.96925 0.0
C2470 C 0.65101 0.55079 0.97097 0.0
C2471 C 0.69064 0.58492 0.97576 0.0
C2472 C 0.67627 0.57399 0.97412 0.0
H2473 H 0.60264 0.52557 0.98474 0.0
H2474 H 0.62315 0.54686 0.98815 0.0
H2475 H 0.65604 0.55174 0.94545 0.0
H2476 H 0.71345 0.60987 0.95292 0.0
H2477 H 0.68732 0.59626 0.95257 0.0
C2478 C 0.19548 0.65025 0.23637 0.0
C2479 C 0.21236 0.64961 0.23598 0.0
C2480 C 0.18632 0.63648 0.23963 0.0
C2481 C 0.1881 0.59212 0.23916 0.0
H2482 H 0.15133 0.59522 0.26707 0.0
C2483 C 0.15372 0.53605 0.26146 0.0
C2484 C 0.13684 0.53677 0.26159 0.0
C2485 C 0.16299 0.54981 0.25846 0.0
C2486 C 0.16146 0.59419 0.25911 0.0
H2487 H 0.23282 0.63395 0.23857 0.0
H2488 H 0.21686 0.61 0.24455 0.0
H2489 H 0.16739 0.61925 0.26161 0.0
H2490 H 0.11648 0.55253 0.25866 0.0
H2491 H 0.13266 0.57648 0.2533 0.0
H2492 H 0.18216 0.56705 0.23666 0.0
C2493 C 0.2107 0.62112 0.24219 0.0
C2494 C 0.17066 0.60796 0.25598 0.0
C2495 C 0.21986 0.63489 0.23894 0.0
C2496 C 0.12945 0.55156 0.25869 0.0
C2497 C 0.13873 0.56532 0.25571 0.0
C2498 C 0.1789 0.57835 0.24229 0.0
C2499 C 0.19382 0.62175 0.24256 0.0
C2500 C 0.18408 0.60709 0.24595 0.0
C2501 C 0.15561 0.5646 0.25554 0.0
C2502 C 0.16546 0.57922 0.25229 0.0
H2503 H 0.18934 0.66144 0.23431 0.0
H2504 H 0.17334 0.63735 0.23967 0.0
H2505 H 0.19821 0.59108 0.23118 0.0
H2506 H 0.15979 0.52485 0.2637 0.0
H2507 H 0.17597 0.5489 0.25861 0.0
C2508 C 0.89489 0.51721 0.04977 0.0
C2509 C 0.89346 0.5004 0.04761 0.0
C2510 C 0.88257 0.52728 0.04472 0.0
C2511 C 0.85225 0.53028 0.01398 0.0
H2512 H 0.83262 0.5626 0.04109 0.0
C2513 C 0.80147 0.56963 0.98951 0.0
C2514 C 0.80055 0.58558 0.99514 0.0
C2515 C 0.81208 0.55897 0.9967 0.0
C2516 C 0.83815 0.55383 0.03326 0.0
H2517 H 0.87744 0.48107 0.03909 0.0
H2518 H 0.85632 0.4988 0.02958 0.0
H2519 H 0.85245 0.54453 0.05261 0.0
H2520 H 0.81008 0.60299 0.01261 0.0
H2521 H 0.82926 0.58467 0.02465 0.0
H2522 H 0.83879 0.53989 0.99444 0.0
C2523 C 0.86702 0.50405 0.03527 0.0
C2524 C 0.84939 0.54342 0.03993 0.0
C2525 C 0.87919 0.49394 0.04062 0.0
C2526 C 0.81051 0.59071 0.00807 0.0
C2527 C 0.8214 0.58014 0.01506 0.0
C2528 C 0.84129 0.54088 0.00723 0.0
C2529 C 0.8687 0.52079 0.03714 0.0
C2530 C 0.85646 0.53153 0.03034 0.0
C2531 C 0.82233 0.56409 0.00948 0.0
C2532 C 0.83403 0.55279 0.01677 0.0
H2533 H 0.90577 0.52271 0.05481 0.0
H2534 H 0.88416 0.54018 0.04614 0.0
H2535 H 0.85776 0.52134 0.00631 0.0
H2536 H 0.79376 0.56527 0.9797 0.0
H2537 H 0.81209 0.54664 0.9923 0.0
C2538 C 0.11637 0.98154 0.01208 0.0
C2539 C 0.10067 0.97685 0.01621 0.0
C2540 C 0.12848 0.97015 0.01069 0.0
C2541 C 0.13959 0.92917 0.02288 0.0
H2542 H 0.16952 0.93235 0.98775 0.0
C2543 C 0.18585 0.8797 0.00935 0.0
C2544 C 0.20143 0.88483 0.00527 0.0
C2545 C 0.17336 0.89073 0.01045 0.0
C2546 C 0.16137 0.93138 0.99773 0.0
H2547 H 0.08541 0.95644 0.02207 0.0
H2548 H 0.10656 0.93657 0.01968 0.0
H2549 H 0.14817 0.95193 0.99027 0.0
H2550 H 0.21606 0.90559 0.99907 0.0
H2551 H 0.19434 0.9248 0.00113 0.0
H2552 H 0.15283 0.90865 0.03037 0.0
C2553 C 0.10954 0.9491 0.01769 0.0
C2554 C 0.14912 0.94261 0.99917 0.0
C2555 C 0.09741 0.9605 0.01907 0.0
C2556 C 0.2042 0.90121 0.0022 0.0
C2557 C 0.19171 0.91223 0.00329 0.0
C2558 C 0.15185 0.91794 0.02144 0.0
C2559 C 0.12521 0.95379 0.01343 0.0
C2560 C 0.13811 0.94168 0.0118 0.0
C2561 C 0.17615 0.90714 0.00748 0.0
C2562 C 0.16293 0.91893 0.00887 0.0
H2563 H 0.11937 0.99406 0.01008 0.0
H2564 H 0.14048 0.97422 0.00768 0.0
H2565 H 0.13145 0.92823 0.03287 0.0
H2566 H 0.18328 0.86717 0.01175 0.0
H2567 H 0.16147 0.88636 0.0135 0.0
loop_
_geom_bond_atom_site_label_1
_geom_bond_atom_site_label_2
_geom_bond_distance
_geom_bond_site_symmetry_2
_ccdc_geom_bond_type
C0 C1 1.388 1_556 S
C0 C4 1.369 1_556 S
C0 H42 0.975 . S
C1 C0 1.388 1_554 S
C1 C2 1.391 . S
C2 C1 1.391 . S
C2 H58 0.947 . S
C2 C59 1.392 . S
C3 C4 1.391 . S
C3 C7 1.397 . S
C3 C59 1.419 . S
C4 C0 1.369 1_554 S
C4 C3 1.391 . S
C4 C5 1.399 . S
C5 C4 1.399 . S
C5 C8 1.396 . S
C5 C17 1.453 . S
C5 C18 1.684 1_554 S
H6 C30 0.975 . S
C7 C3 1.397 . S
C7 C8 1.394 . S
C7 C26 1.723 . S
C8 C5 1.396 . S
C8 C7 1.394 . S
C8 C38 1.723 . S
H9 C32 0.947 . S
H10 C33 0.948 . S
H11 C39 0.982 . S
H12 C40 0.979 . S
H13 C40 0.980 . S
H14 C40 0.983 . S
H15 C39 0.979 . S
H16 C39 0.977 . S
C17 C5 1.453 . S
C17 H46 0.982 . S
C17 H47 0.979 . S
C17 H48 0.977 . S
C18 C5 1.684 1_556 S
C18 H43 0.979 . S
C18 H44 0.980 . S
C18 H45 0.983 . S
C19 C20 1.388 1_655 S
C19 C24 1.369 1_655 S
C19 H49 0.975 . S
C20 C19 1.388 1_455 S
C20 C21 1.391 . S
C21 C20 1.391 . S
C21 C22 1.392 . S
C21 H50 0.947 . S
C22 C21 1.392 . S
C22 C23 1.419 . S
C22 H51 0.948 . S
C23 C22 1.419 . S
C23 C24 1.391 . S
C23 C27 1.397 . S
C24 C19 1.369 1_455 S
C24 C23 1.391 . S
C24 C25 1.399 . S
C25 C24 1.399 . S
C25 C26 1.396 . S
C25 C28 1.453 . S
C25 C29 1.684 1_455 S
C26 C7 1.723 . S
C26 C25 1.396 . S
C26 C27 1.394 . S
C27 C23 1.397 . S
C27 C26 1.394 . S
C27 C37 1.723 . S
C28 C25 1.453 . S
C28 H52 0.982 . S
C28 H53 0.979 . S
C28 H54 0.977 . S
C29 C25 1.684 1_655 S
C29 H55 0.979 . S
C29 H56 0.980 . S
C29 H57 0.983 . S
C30 H6 0.975 . S
C30 C31 1.388 1_565 S
C30 C35 1.369 1_565 S
C31 C30 1.388 1_545 S
C31 C32 1.391 . S
C32 H9 0.947 . S
C32 C31 1.391 . S
C32 C33 1.392 . S
C33 H10 0.948 . S
C33 C32 1.392 . S
C33 C34 1.419 . S
C34 C33 1.419 . S
C34 C35 1.391 . S
C34 C38 1.397 . S
C35 C30 1.369 1_545 S
C35 C34 1.391 . S
C35 C36 1.399 . S
C36 C35 1.399 . S
C36 C37 1.396 . S
C36 C39 1.453 . S
C36 C40 1.684 1_545 S
C37 C27 1.723 . S
C37 C36 1.396 . S
C37 C38 1.394 . S
C38 C8 1.723 . S
C38 C34 1.397 . S
C38 C37 1.394 . S
C39 H11 0.982 . S
C39 H15 0.979 . S
C39 H16 0.977 . S
C39 C36 1.453 . S
C40 H12 0.979 . S
C40 H13 0.980 . S
C40 H14 0.983 . S
C40 C36 1.684 1_565 S
H41 C59 0.948 . S
H42 C0 0.975 . S
H43 C18 0.979 . S
H44 C18 0.980 . S
H45 C18 0.983 . S
H46 C17 0.982 . S
H47 C17 0.979 . S
H48 C17 0.977 . S
H49 C19 0.975 . S
H50 C21 0.947 . S
H51 C22 0.948 . S
H52 C28 0.982 . S
H53 C28 0.979 . S
H54 C28 0.977 . S
H55 C29 0.979 . S
H56 C29 0.980 . S
H57 C29 0.983 . S
H58 C2 0.947 . S
C59 C2 1.392 . S
C59 C3 1.419 . S
C59 H41 0.948 . S
C60 C61 1.391 . S
C60 C64 1.391 . S
C60 H102 0.948 . S
C61 C60 1.391 . S
C61 C62 1.391 . S
C62 C61 1.391 . S
C62 H118 0.947 . S
C62 C119 1.392 . S
C63 C64 1.391 . S
C63 C67 1.397 . S
C63 C119 1.419 . S
C64 C60 1.391 . S
C64 C63 1.391 . S
C64 C65 1.399 . S
C65 C64 1.399 . S
C65 C68 1.396 . S
C65 C77 1.453 . S
C65 C78 1.684 . S
H66 C90 0.948 . S
C67 C63 1.397 . S
C67 C68 1.394 . S
C67 C86 1.723 . S
C68 C65 1.396 . S
C68 C67 1.394 . S
C68 C98 1.723 . S
H69 C92 0.947 . S
H70 C93 0.948 . S
H71 C99 0.982 . S
H72 C100 0.979 . S
H73 C100 0.980 . S
H74 C100 0.983 . S
H75 C99 0.979 . S
H76 C99 0.977 . S
C77 C65 1.453 . S
C77 H106 0.982 . S
C77 H107 0.979 . S
C77 H108 0.977 . S
C78 C65 1.684 . S
C78 H103 0.979 . S
C78 H104 0.980 . S
C78 H105 0.983 . S
C79 C80 1.391 . S
C79 C84 1.391 . S
C79 H109 0.948 . S
C80 C79 1.391 . S
C80 C81 1.391 . S
C81 C80 1.391 . S
C81 C82 1.392 . S
C81 H110 0.947 . S
C82 C81 1.392 . S
C82 C83 1.419 . S
C82 H111 0.948 . S
C83 C82 1.419 . S
C83 C84 1.391 . S
C83 C87 1.397 . S
C84 C79 1.391 . S
C84 C83 1.391 . S
C84 C85 1.399 . S
C85 C84 1.399 . S
C85 C86 1.396 . S
C85 C88 1.453 . S
C85 C89 1.684 . S
C86 C67 1.723 . S
C86 C85 1.396 . S
C86 C87 1.394 . S
C87 C83 1.397 . S
C87 C86 1.394 . S
C87 C97 1.723 . S
C88 C85 1.453 . S
C88 H112 0.982 . S
C88 H113 0.979 . S
C88 H114 0.977 . S
C89 C85 1.684 . S
C89 H115 0.979 . S
C89 H116 0.980 . S
C89 H117 0.983 . S
C90 H66 0.948 . S
C90 C91 1.391 . S
C90 C95 1.391 . S
C91 C90 1.391 . S
C91 C92 1.391 . S
C92 H69 0.947 . S
C92 C91 1.391 . S
C92 C93 1.392 . S
C93 H70 0.948 . S
C93 C92 1.392 . S
C93 C94 1.419 . S
C94 C93 1.419 . S
C94 C95 1.391 . S
C94 C98 1.397 . S
C95 C90 1.391 . S
C95 C94 1.391 . S
C95 C96 1.399 . S
C96 C95 1.399 . S
C96 C97 1.396 . S
C96 C99 1.453 . S
C96 C100 1.684 . S
C97 C87 1.723 . S
C97 C96 1.396 . S
C97 C98 1.394 . S
C98 C68 1.723 . S
C98 C94 1.397 . S
C98 C97 1.394 . S
C99 H71 0.982 . S
C99 H75 0.979 . S
C99 H76 0.977 . S
C99 C96 1.453 . S
C100 H72 0.979 . S
C100 H73 0.980 . S
C100 H74 0.983 . S
C100 C96 1.684 . S
H101 C119 0.948 . S
H102 C60 0.948 . S
H103 C78 0.979 . S
H104 C78 0.980 . S
H105 C78 0.983 . S
H106 C77 0.982 . S
H107 C77 0.979 . S
H108 C77 0.977 . S
H109 C79 0.948 . S
H110 C81 0.947 . S
H111 C82 0.948 . S
H112 C88 0.982 . S
H113 C88 0.979 . S
H114 C88 0.977 . S
H115 C89 0.979 . S
H116 C89 0.980 . S
H117 C89 0.983 . S
H118 C62 0.947 . S
C119 C62 1.392 . S
C119 C63 1.419 . S
C119 H101 0.948 . S
C120 C121 1.391 . S
C120 C124 1.391 . S
C120 H162 0.948 . S
C121 C120 1.391 . S
C121 C122 1.391 . S
C122 C121 1.391 . S
C122 H178 0.947 1_554 S
C122 C179 1.392 . S
C123 C124 1.391 . S
C123 C127 1.397 . S
C123 C179 1.419 . S
C124 C120 1.391 . S
C124 C123 1.391 . S
C124 C125 1.399 . S
C125 C124 1.399 . S
C125 C128 1.396 . S
C125 C137 1.453 . S
C125 C138 1.684 . S
H126 C150 0.948 . S
C127 C123 1.397 . S
C127 C128 1.394 . S
C127 C146 1.723 . S
C128 C125 1.396 . S
C128 C127 1.394 . S
C128 C158 1.723 . S
H129 C152 0.947 1_455 S
H130 C153 0.948 . S
H131 C159 0.982 . S
H132 C160 0.979 . S
H133 C160 0.980 . S
H134 C160 0.983 . S
H135 C159 0.979 . S
H136 C159 0.977 . S
C137 C125 1.453 . S
C137 H166 0.982 . S
C137 H167 0.979 . S
C137 H168 0.977 . S
C138 C125 1.684 . S
C138 H163 0.979 . S
C138 H164 0.980 . S
C138 H165 0.983 . S
C139 C140 1.391 . S
C139 C144 1.391 . S
C139 H169 0.948 . S
C140 C139 1.391 . S
C140 C141 1.391 . S
C141 C140 1.391 . S
C141 C142 1.392 . S
C141 H170 0.947 . S
C142 C141 1.392 . S
C142 C143 1.419 . S
C142 H171 0.948 . S
C143 C142 1.419 . S
C143 C144 1.391 . S
C143 C147 1.397 . S
C144 C139 1.391 . S
C144 C143 1.391 . S
C144 C145 1.399 . S
C145 C144 1.399 . S
C145 C146 1.396 . S
C145 C148 1.453 . S
C145 C149 1.684 . S
C146 C127 1.723 . S
C146 C145 1.396 . S
C146 C147 1.394 . S
C147 C143 1.397 . S
C147 C146 1.394 . S
C147 C157 1.723 . S
C148 C145 1.453 . S
C148 H172 0.982 . S
C148 H173 0.979 . S
C148 H174 0.977 . S
C149 C145 1.684 . S
C149 H175 0.979 . S
C149 H176 0.980 . S
C149 H177 0.983 . S
C150 H126 0.948 . S
C150 C151 1.391 . S
C150 C155 1.391 . S
C151 C150 1.391 . S
C151 C152 1.391 . S
C152 H129 0.947 1_655 S
C152 C151 1.391 . S
C152 C153 1.392 . S
C153 H130 0.948 . S
C153 C152 1.392 . S
C153 C154 1.419 . S
C154 C153 1.419 . S
C154 C155 1.391 . S
C154 C158 1.397 . S
C155 C150 1.391 . S
C155 C154 1.391 . S
C155 C156 1.399 . S
C156 C155 1.399 . S
C156 C157 1.396 . S
C156 C159 1.453 . S
C156 C160 1.684 . S
C157 C147 1.723 . S
C157 C156 1.396 . S
C157 C158 1.394 . S
C158 C128 1.723 . S
C158 C154 1.397 . S
C158 C157 1.394 . S
C159 H131 0.982 . S
C159 H135 0.979 . S
C159 H136 0.977 . S
C159 C156 1.453 . S
C160 H132 0.979 . S
C160 H133 0.980 . S
C160 H134 0.983 . S
C160 C156 1.684 . S
H161 C179 0.948 . S
H162 C120 0.948 . S
H163 C138 0.979 . S
H164 C138 0.980 . S
H165 C138 0.983 . S
H166 C137 0.982 . S
H167 C137 0.979 . S
H168 C137 0.977 . S
H169 C139 0.948 . S
H170 C141 0.947 . S
H171 C142 0.948 . S
H172 C148 0.982 . S
H173 C148 0.979 . S
H174 C148 0.977 . S
H175 C149 0.979 . S
H176 C149 0.980 . S
H177 C149 0.983 . S
H178 C122 0.947 1_556 S
C179 C122 1.392 . S
C179 C123 1.419 . S
C179 H161 0.948 . S
C180 C181 1.391 . S
C180 C184 1.391 . S
C180 H222 0.948 . S
C181 C180 1.391 . S
C181 C182 1.391 . S
C182 C181 1.391 . S
C182 H238 0.947 . S
C182 C239 1.392 . S
C183 C184 1.391 . S
C183 C187 1.397 . S
C183 C239 1.419 . S
C184 C180 1.391 . S
C184 C183 1.391 . S
C184 C185 1.399 . S
C185 C184 1.399 . S
C185 C188 1.396 . S
C185 C197 1.453 . S
C185 C198 1.684 . S
H186 C210 0.948 . S
C187 C183 1.397 . S
C187 C188 1.394 . S
C187 C206 1.723 . S
C188 C185 1.396 . S
C188 C187 1.394 . S
C188 C218 1.723 . S
H189 C212 0.947 . S
H190 C213 0.948 . S
H191 C219 0.982 . S
H192 C220 0.979 . S
H193 C220 0.980 . S
H194 C220 0.983 . S
H195 C219 0.979 . S
H196 C219 0.977 . S
C197 C185 1.453 . S
C197 H226 0.982 . S
C197 H227 0.979 . S
C197 H228 0.977 . S
C198 C185 1.684 . S
C198 H223 0.979 . S
C198 H224 0.980 . S
C198 H225 0.983 . S
C199 C200 1.391 . S
C199 C204 1.391 . S
C199 H229 0.948 . S
C200 C199 1.391 . S
C200 C201 1.391 . S
C201 C200 1.391 . S
C201 C202 1.392 . S
C201 H230 0.947 . S
C202 C201 1.392 . S
C202 C203 1.419 . S
C202 H231 0.948 . S
C203 C202 1.419 . S
C203 C204 1.391 . S
C203 C207 1.397 . S
C204 C199 1.391 . S
C204 C203 1.391 . S
C204 C205 1.399 . S
C205 C204 1.399 . S
C205 C206 1.396 . S
C205 C208 1.453 . S
C205 C209 1.684 . S
C206 C187 1.723 . S
C206 C205 1.396 . S
C206 C207 1.394 . S
C207 C203 1.397 . S
C207 C206 1.394 . S
C207 C217 1.723 . S
C208 C205 1.453 . S
C208 H232 0.982 . S
C208 H233 0.979 . S
C208 H234 0.977 . S
C209 C205 1.684 . S
C209 H235 0.979 . S
C209 H236 0.980 . S
C209 H237 0.983 . S
C210 H186 0.948 . S
C210 C211 1.391 . S
C210 C215 1.391 . S
C211 C210 1.391 . S
C211 C212 1.391 . S
C212 H189 0.947 . S
C212 C211 1.391 . S
C212 C213 1.392 . S
C213 H190 0.948 . S
C213 C212 1.392 . S
C213 C214 1.419 . S
C214 C213 1.419 . S
C214 C215 1.391 . S
C214 C218 1.397 . S
C215 C210 1.391 . S
C215 C214 1.391 . S
C215 C216 1.399 . S
C216 C215 1.399 . S
C216 C217 1.396 . S
C216 C219 1.453 . S
C216 C220 1.684 . S
C217 C207 1.723 . S
C217 C216 1.396 . S
C217 C218 1.394 . S
C218 C188 1.723 . S
C218 C214 1.397 . S
C218 C217 1.394 . S
C219 H191 0.982 . S
C219 H195 0.979 . S
C219 H196 0.977 . S
C219 C216 1.453 . S
C220 H192 0.979 . S
C220 H193 0.980 . S
C220 H194 0.983 . S
C220 C216 1.684 . S
H221 C239 0.948 . S
H222 C180 0.948 . S
H223 C198 0.979 . S
H224 C198 0.980 . S
H225 C198 0.983 . S
H226 C197 0.982 . S
H227 C197 0.979 . S
H228 C197 0.977 . S
H229 C199 0.948 . S
H230 C201 0.947 . S
H231 C202 0.948 . S
H232 C208 0.982 . S
H233 C208 0.979 . S
H234 C208 0.977 . S
H235 C209 0.979 . S
H236 C209 0.980 . S
H237 C209 0.983 . S
H238 C182 0.947 . S
C239 C182 1.392 . S
C239 C183 1.419 . S
C239 H221 0.948 . S
C240 C241 1.391 . S
C240 C244 1.391 . S
C240 H282 0.948 . S
C241 C240 1.391 . S
C241 C242 1.391 . S
C242 C241 1.391 . S
C242 H298 0.947 . S
C242 C299 1.392 . S
C243 C244 1.391 . S
C243 C247 1.397 . S
C243 C299 1.419 . S
C244 C240 1.391 . S
C244 C243 1.391 . S
C244 C245 1.399 . S
C245 C244 1.399 . S
C245 C248 1.396 . S
C245 C257 1.453 . S
C245 C258 1.684 . S
H246 C270 1.005 . S
C247 C243 1.397 . S
C247 C248 1.394 . S
C247 C266 1.723 . S
C248 C245 1.396 . S
C248 C247 1.394 . S
C248 C278 1.723 . S
H249 C272 0.947 . S
H250 C273 0.948 . S
H251 C279 0.982 . S
H252 C280 0.979 . S
H253 C280 0.980 . S
H254 C280 0.983 . S
H255 C279 0.979 1_545 S
H256 C279 0.977 . S
C257 C245 1.453 . S
C257 H286 0.982 . S
C257 H287 0.979 . S
C257 H288 0.977 . S
C258 C245 1.684 . S
C258 H283 0.979 . S
C258 H284 0.980 . S
C258 H285 0.983 . S
C259 C260 1.391 . S
C259 C264 1.391 . S
C259 H289 0.948 . S
C260 C259 1.391 . S
C260 C261 1.391 . S
C261 C260 1.391 . S
C261 C262 1.392 . S
C261 H290 0.947 . S
C262 C261 1.392 . S
C262 C263 1.419 . S
C262 H291 0.948 . S
C263 C262 1.419 . S
C263 C264 1.391 . S
C263 C267 1.397 . S
C264 C259 1.391 . S
C264 C263 1.391 . S
C264 C265 1.399 . S
C265 C264 1.399 . S
C265 C266 1.396 . S
C265 C268 1.453 . S
C265 C269 1.684 . S
C266 C247 1.723 . S
C266 C265 1.396 . S
C266 C267 1.394 . S
C267 C263 1.397 . S
C267 C266 1.394 . S
C267 C277 1.723 . S
C268 C265 1.453 . S
C268 H292 0.982 . S
C268 H293 0.979 . S
C268 H294 0.977 . S
C269 C265 1.684 . S
C269 H295 0.979 . S
C269 H296 0.980 . S
C269 H297 0.983 . S
C270 H246 1.005 . S
C270 C271 1.391 . S
C270 C275 1.391 . S
C271 C270 1.391 . S
C271 C272 1.391 . S
C272 H249 0.947 . S
C272 C271 1.391 . S
C272 C273 1.392 . S
C273 H250 0.948 . S
C273 C272 1.392 . S
C273 C274 1.419 . S
C274 C273 1.419 . S
C274 C275 1.391 . S
C274 C278 1.397 . S
C275 C270 1.391 . S
C275 C274 1.391 . S
C275 C276 1.399 . S
C276 C275 1.399 . S
C276 C277 1.396 . S
C276 C279 1.453 . S
C276 C280 1.684 . S
C277 C267 1.723 . S
C277 C276 1.396 . S
C277 C278 1.394 . S
C278 C248 1.723 . S
C278 C274 1.397 . S
C278 C277 1.394 . S
C279 H251 0.982 . S
C279 H255 0.979 1_565 S
C279 H256 0.977 . S
C279 C276 1.453 . S
C280 H252 0.979 . S
C280 H253 0.980 . S
C280 H254 0.983 . S
C280 C276 1.684 . S
H281 C299 0.948 . S
H282 C240 0.948 . S
H283 C258 0.979 . S
H284 C258 0.980 . S
H285 C258 0.983 . S
H286 C257 0.982 . S
H287 C257 0.979 . S
H288 C257 0.977 . S
H289 C259 0.948 . S
H290 C261 0.947 . S
H291 C262 0.948 . S
H292 C268 0.982 . S
H293 C268 0.979 . S
H294 C268 0.977 . S
H295 C269 0.979 . S
H296 C269 0.980 . S
H297 C269 0.983 . S
H298 C242 0.947 . S
C299 C242 1.392 . S
C299 C243 1.419 . S
C299 H281 0.948 . S
C300 C301 1.391 . S
C300 C304 1.391 . S
C300 H342 0.948 . S
C301 C300 1.391 . S
C301 C302 1.391 . S
C302 C301 1.391 . S
C302 H358 0.947 . S
C302 C359 1.392 . S
C303 C304 1.391 . S
C303 C307 1.397 . S
C303 C359 1.419 . S
C304 C300 1.391 . S
C304 C303 1.391 . S
C304 C305 1.399 . S
C305 C304 1.399 . S
C305 C308 1.396 . S
C305 C317 1.453 . S
C305 C318 1.684 . S
H306 C330 0.948 . S
C307 C303 1.397 . S
C307 C308 1.394 . S
C307 C326 1.723 . S
C308 C305 1.396 . S
C308 C307 1.394 . S
C308 C338 1.723 . S
H309 C332 0.947 . S
H310 C333 0.948 . S
H311 C339 0.982 . S
H312 C340 0.979 . S
H313 C340 0.980 . S
H314 C340 0.983 . S
H315 C339 0.979 . S
H316 C339 0.977 . S
C317 C305 1.453 . S
C317 H346 0.982 . S
C317 H347 0.979 . S
C317 H348 0.977 . S
C318 C305 1.684 . S
C318 H343 0.979 . S
C318 H344 0.980 . S
C318 H345 0.983 . S
C319 C320 1.391 . S
C319 C324 1.391 . S
C319 H349 0.948 . S
C320 C319 1.391 . S
C320 C321 1.391 . S
C321 C320 1.391 . S
C321 C322 1.392 . S
C321 H350 0.947 . S
C322 C321 1.392 . S
C322 C323 1.419 . S
C322 H351 0.948 . S
C323 C322 1.419 . S
C323 C324 1.391 . S
C323 C327 1.397 . S
C324 C319 1.391 . S
C324 C323 1.391 . S
C324 C325 1.399 . S
C325 C324 1.399 . S
C325 C326 1.396 . S
C325 C328 1.453 . S
C325 C329 1.684 . S
C326 C307 1.723 . S
C326 C325 1.396 . S
C326 C327 1.394 . S
C327 C323 1.397 . S
C327 C326 1.394 . S
C327 C337 1.723 . S
C328 C325 1.453 . S
C328 H352 0.982 . S
C328 H353 0.979 . S
C328 H354 0.977 . S
C329 C325 1.684 . S
C329 H355 0.979 . S
C329 H356 0.980 . S
C329 H357 0.983 . S
C330 H306 0.948 . S
C330 C331 1.391 . S
C330 C335 1.391 . S
C331 C330 1.391 . S
C331 C332 1.391 . S
C332 H309 0.947 . S
C332 C331 1.391 . S
C332 C333 1.392 . S
C333 H310 0.948 . S
C333 C332 1.392 . S
C333 C334 1.419 . S
C334 C333 1.419 . S
C334 C335 1.391 . S
C334 C338 1.397 . S
C335 C330 1.391 . S
C335 C334 1.391 . S
C335 C336 1.399 . S
C336 C335 1.399 . S
C336 C337 1.396 . S
C336 C339 1.453 . S
C336 C340 1.684 . S
C337 C327 1.723 . S
C337 C336 1.396 . S
C337 C338 1.394 . S
C338 C308 1.723 . S
C338 C334 1.397 . S
C338 C337 1.394 . S
C339 H311 0.982 . S
C339 H315 0.979 . S
C339 H316 0.977 . S
C339 C336 1.453 . S
C340 H312 0.979 . S
C340 H313 0.980 . S
C340 H314 0.983 . S
C340 C336 1.684 . S
H341 C359 0.948 . S
H342 C300 0.948 . S
H343 C318 0.979 . S
H344 C318 0.980 . S
H345 C318 0.983 . S
H346 C317 0.982 . S
H347 C317 0.979 . S
H348 C317 0.977 . S
H349 C319 0.948 . S
H350 C321 0.947 . S
H351 C322 0.948 . S
H352 C328 0.982 . S
H353 C328 0.979 . S
H354 C328 0.977 . S
H355 C329 0.979 . S
H356 C329 0.980 . S
H357 C329 0.983 . S
H358 C302 0.947 . S
C359 C302 1.392 . S
C359 C303 1.419 . S
C359 H341 0.948 . S
C360 C361 1.391 . S
C360 C364 1.391 . S
C360 H402 0.948 . S
C361 C360 1.391 . S
C361 C362 1.391 . S
C362 C361 1.391 . S
C362 H418 0.947 . S
C362 C419 1.392 . S
C363 C364 1.391 . S
C363 C367 1.397 . S
C363 C419 1.419 . S
C364 C360 1.391 . S
C364 C363 1.391 . S
C364 C365 1.399 . S
C365 C364 1.399 . S
C365 C368 1.396 . S
C365 C377 1.453 . S
C365 C378 1.684 . S
H366 C390 0.948 . S
C367 C363 1.397 . S
C367 C368 1.394 . S
C367 C386 1.723 . S
C368 C365 1.396 . S
C368 C367 1.394 . S
C368 C398 1.723 . S
H369 C392 0.947 . S
H370 C393 0.948 . S
H371 C399 0.982 . S
H372 C400 0.981 . S
H373 C400 0.982 . S
H374 C400 0.986 . S
H375 C399 0.979 . S
H376 C399 0.977 . S
C377 C365 1.453 . S
C377 H406 0.982 . S
C377 H407 0.979 . S
C377 H408 0.977 . S
C378 C365 1.684 . S
C378 H403 0.979 . S
C378 H404 0.980 . S
C378 H405 0.983 . S
C379 C380 1.382 1_655 S
C379 C384 1.391 . S
C379 H409 0.948 . S
C380 C379 1.382 1_455 S
C380 C381 1.394 . S
C381 C380 1.394 . S
C381 C382 1.392 1_455 S
C381 H410 0.947 . S
C382 C381 1.392 1_655 S
C382 C383 1.419 . S
C382 H411 0.948 . S
C383 C382 1.419 . S
C383 C384 1.391 . S
C383 C387 1.397 . S
C384 C379 1.391 . S
C384 C383 1.391 . S
C384 C385 1.399 . S
C385 C384 1.399 . S
C385 C386 1.396 . S
C385 C388 1.453 . S
C385 C389 1.684 . S
C386 C367 1.723 . S
C386 C385 1.396 . S
C386 C387 1.394 . S
C387 C383 1.397 . S
C387 C386 1.394 . S
C387 C397 1.723 . S
C388 C385 1.453 . S
C388 H412 0.982 . S
C388 H413 0.979 . S
C388 H414 0.977 . S
C389 C385 1.684 . S
C389 H415 0.979 . S
C389 H416 0.980 . S
C389 H417 0.983 . S
C390 H366 0.948 . S
C390 C391 1.391 . S
C390 C395 1.391 . S
C391 C390 1.391 . S
C391 C392 1.391 . S
C392 H369 0.947 . S
C392 C391 1.391 . S
C392 C393 1.392 . S
C393 H370 0.948 . S
C393 C392 1.392 . S
C393 C394 1.419 . S
C394 C393 1.419 . S
C394 C395 1.391 . S
C394 C398 1.397 . S
C395 C390 1.391 . S
C395 C394 1.391 . S
C395 C396 1.399 . S
C396 C395 1.399 . S
C396 C397 1.396 . S
C396 C399 1.453 . S
C396 C400 1.677 1_655 S
C397 C387 1.723 . S
C397 C396 1.396 . S
C397 C398 1.394 . S
C398 C368 1.723 . S
C398 C394 1.397 . S
C398 C397 1.394 . S
C399 H371 0.982 . S
C399 H375 0.979 . S
C399 H376 0.977 . S
C399 C396 1.453 . S
C400 H372 0.981 . S
C400 H373 0.982 . S
C400 H374 0.986 . S
C400 C396 1.677 1_455 S
H401 C419 0.948 . S
H402 C360 0.948 . S
H403 C378 0.979 . S
H404 C378 0.980 . S
H405 C378 0.983 . S
H406 C377 0.982 . S
H407 C377 0.979 . S
H408 C377 0.977 . S
H409 C379 0.948 . S
H410 C381 0.947 . S
H411 C382 0.948 . S
H412 C388 0.982 . S
H413 C388 0.979 . S
H414 C388 0.977 . S
H415 C389 0.979 . S
H416 C389 0.980 . S
H417 C389 0.983 . S
H418 C362 0.947 . S
C419 C362 1.392 . S
C419 C363 1.419 . S
C419 H401 0.948 . S
C420 C421 1.391 . S
C420 C424 1.391 . S
C420 H462 0.948 . S
C421 C420 1.391 . S
C421 C422 1.391 . S
C422 C421 1.391 . S
C422 H478 0.947 . S
C422 C479 1.392 . S
C423 C424 1.391 . S
C423 C427 1.397 . S
C423 C479 1.419 . S
C424 C420 1.391 . S
C424 C423 1.391 . S
C424 C425 1.399 . S
C425 C424 1.399 . S
C425 C428 1.396 . S
C425 C437 1.453 . S
C425 C438 1.684 . S
H426 C450 0.948 . S
C427 C423 1.397 . S
C427 C428 1.394 . S
C427 C446 1.723 . S
C428 C425 1.396 . S
C428 C427 1.394 . S
C428 C458 1.723 . S
H429 C452 0.947 . S
H430 C453 0.948 . S
H431 C459 0.982 . S
H432 C460 0.979 . S
H433 C460 0.980 . S
H434 C460 0.983 . S
H435 C459 0.979 . S
H436 C459 0.977 . S
C437 C425 1.453 . S
C437 H466 0.982 . S
C437 H467 0.979 . S
C437 H468 0.977 . S
C438 C425 1.684 . S
C438 H463 0.979 . S
C438 H464 0.980 . S
C438 H465 0.983 . S
C439 C440 1.391 . S
C439 C444 1.391 . S
C439 H469 0.948 . S
C440 C439 1.391 . S
C440 C441 1.391 . S
C441 C440 1.391 . S
C441 C442 1.392 . S
C441 H470 0.947 . S
C442 C441 1.392 . S
C442 C443 1.419 . S
C442 H471 0.948 . S
C443 C442 1.419 . S
C443 C444 1.391 . S
C443 C447 1.397 . S
C444 C439 1.391 . S
C444 C443 1.391 . S
C444 C445 1.399 . S
C445 C444 1.399 . S
C445 C446 1.396 . S
C445 C448 1.453 . S
C445 C449 1.684 . S
C446 C427 1.723 . S
C446 C445 1.396 . S
C446 C447 1.394 . S
C447 C443 1.397 . S
C447 C446 1.394 . S
C447 C457 1.723 . S
C448 C445 1.453 . S
C448 H472 0.982 . S
C448 H473 0.979 . S
C448 H474 0.977 . S
C449 C445 1.684 . S
C449 H475 0.979 . S
C449 H476 0.980 . S
C449 H477 0.983 . S
C450 H426 0.948 . S
C450 C451 1.391 . S
C450 C455 1.391 . S
C451 C450 1.391 . S
C451 C452 1.391 . S
C452 H429 0.947 . S
C452 C451 1.391 . S
C452 C453 1.392 . S
C453 H430 0.948 . S
C453 C452 1.392 . S
C453 C454 1.419 . S
C454 C453 1.419 . S
C454 C455 1.391 . S
C454 C458 1.397 . S
C455 C450 1.391 . S
C455 C454 1.391 . S
C455 C456 1.399 . S
C456 C455 1.399 . S
C456 C457 1.396 . S
C456 C459 1.453 . S
C456 C460 1.684 . S
C457 C447 1.723 . S
C457 C456 1.396 . S
C457 C458 1.394 . S
C458 C428 1.723 . S
C458 C454 1.397 . S
C458 C457 1.394 . S
C459 H431 0.982 . S
C459 H435 0.979 . S
C459 H436 0.977 . S
C459 C456 1.453 . S
C460 H432 0.979 . S
C460 H433 0.980 . S
C460 H434 0.983 . S
C460 C456 1.684 . S
H461 C479 0.948 . S
H462 C420 0.948 . S
H463 C438 0.979 . S
H464 C438 0.980 . S
H465 C438 0.983 . S
H466 C437 0.982 . S
H467 C437 0.979 . S
H468 C437 0.977 . S
H469 C439 0.948 . S
H470 C441 0.947 . S
H471 C442 0.948 . S
H472 C448 0.982 . S
H473 C448 0.979 . S
H474 C448 0.977 . S
H475 C449 0.979 . S
H476 C449 0.980 . S
H477 C449 0.983 . S
H478 C422 0.947 . S
C479 C422 1.392 . S
C479 C423 1.419 . S
C479 H461 0.948 . S
C480 C481 1.391 . S
C480 C484 1.391 . S
C480 H522 0.948 . S
C481 C480 1.391 . S
C481 C482 1.391 . S
C482 C481 1.391 . S
C482 H538 0.947 . S
C482 C539 1.392 . S
C483 C484 1.391 . S
C483 C487 1.397 . S
C483 C539 1.419 . S
C484 C480 1.391 . S
C484 C483 1.391 . S
C484 C485 1.399 . S
C485 C484 1.399 . S
C485 C488 1.396 . S
C485 C497 1.453 . S
C485 C498 1.684 . S
H486 C510 0.948 . S
C487 C483 1.397 . S
C487 C488 1.394 . S
C487 C506 1.723 . S
C488 C485 1.396 . S
C488 C487 1.394 . S
C488 C518 1.723 . S
H489 C512 0.947 . S
H490 C513 0.948 . S
H491 C519 0.982 . S
H492 C520 0.979 . S
H493 C520 0.980 . S
H494 C520 0.983 . S
H495 C519 0.979 . S
H496 C519 0.977 . S
C497 C485 1.453 . S
C497 H526 0.982 . S
C497 H527 0.979 . S
C497 H528 0.977 . S
C498 C485 1.684 . S
C498 H523 0.979 . S
C498 H524 0.980 . S
C498 H525 0.983 . S
C499 C500 1.391 . S
C499 C504 1.391 . S
C499 H529 0.948 . S
C500 C499 1.391 . S
C500 C501 1.391 . S
C501 C500 1.391 . S
C501 C502 1.392 . S
C501 H530 0.947 . S
C502 C501 1.392 . S
C502 C503 1.419 . S
C502 H531 0.948 . S
C503 C502 1.419 . S
C503 C504 1.391 . S
C503 C507 1.397 . S
C504 C499 1.391 . S
C504 C503 1.391 . S
C504 C505 1.399 . S
C505 C504 1.399 . S
C505 C506 1.396 . S
C505 C508 1.453 . S
C505 C509 1.684 . S
C506 C487 1.723 . S
C506 C505 1.396 . S
C506 C507 1.394 . S
C507 C503 1.397 . S
C507 C506 1.394 . S
C507 C517 1.723 . S
C508 C505 1.453 . S
C508 H532 0.982 . S
C508 H533 0.979 . S
C508 H534 0.977 . S
C509 C505 1.684 . S
C509 H535 0.979 . S
C509 H536 0.980 . S
C509 H537 0.983 . S
C510 H486 0.948 . S
C510 C511 1.391 . S
C510 C515 1.391 . S
C511 C510 1.391 . S
C511 C512 1.391 . S
C512 H489 0.947 . S
C512 C511 1.391 . S
C512 C513 1.392 . S
C513 H490 0.948 . S
C513 C512 1.392 . S
C513 C514 1.419 . S
C514 C513 1.419 . S
C514 C515 1.391 . S
C514 C518 1.397 . S
C515 C510 1.391 . S
C515 C514 1.391 . S
C515 C516 1.399 . S
C516 C515 1.399 . S
C516 C517 1.396 . S
C516 C519 1.453 . S
C516 C520 1.684 . S
C517 C507 1.723 . S
C517 C516 1.396 . S
C517 C518 1.394 . S
C518 C488 1.723 . S
C518 C514 1.397 . S
C518 C517 1.394 . S
C519 H491 0.982 . S
C519 H495 0.979 . S
C519 H496 0.977 . S
C519 C516 1.453 . S
C520 H492 0.979 . S
C520 H493 0.980 . S
C520 H494 0.983 . S
C520 C516 1.684 . S
H521 C539 0.948 . S
H522 C480 0.948 . S
H523 C498 0.979 . S
H524 C498 0.980 . S
H525 C498 0.983 . S
H526 C497 0.982 . S
H527 C497 0.979 . S
H528 C497 0.977 . S
H529 C499 0.948 . S
H530 C501 0.947 . S
H531 C502 0.948 . S
H532 C508 0.982 . S
H533 C508 0.979 . S
H534 C508 0.977 . S
H535 C509 0.979 . S
H536 C509 0.980 . S
H537 C509 0.983 . S
H538 C482 0.947 . S
C539 C482 1.392 . S
C539 C483 1.419 . S
C539 H521 0.948 . S
C540 C541 1.391 . S
C540 C544 1.391 . S
C540 H582 0.948 . S
C541 C540 1.391 . S
C541 C542 1.391 . S
C542 C541 1.391 . S
C542 H598 0.947 . S
C542 C599 1.392 . S
C543 C544 1.391 . S
C543 C547 1.397 . S
C543 C599 1.419 . S
C544 C540 1.391 . S
C544 C543 1.391 . S
C544 C545 1.399 . S
C545 C544 1.399 . S
C545 C548 1.396 . S
C545 C557 1.453 . S
C545 C558 1.684 . S
H546 C570 0.948 . S
C547 C543 1.397 . S
C547 C548 1.394 . S
C547 C566 1.723 . S
C548 C545 1.396 . S
C548 C547 1.394 . S
C548 C578 1.723 . S
H549 C572 0.947 . S
H550 C573 0.948 . S
H551 C579 0.982 . S
H552 C580 0.981 . S
H553 C580 0.982 . S
H554 C580 0.986 . S
H555 C579 0.979 . S
H556 C579 0.977 . S
C557 C545 1.453 . S
C557 H586 0.982 . S
C557 H587 0.979 . S
C557 H588 0.977 . S
C558 C545 1.684 . S
C558 H583 0.979 . S
C558 H584 0.980 . S
C558 H585 0.983 . S
C559 C560 1.382 1_565 S
C559 C564 1.391 . S
C559 H589 0.948 . S
C560 C559 1.382 1_545 S
C560 C561 1.394 . S
C561 C560 1.394 . S
C561 C562 1.392 1_545 S
C561 H590 0.947 . S
C562 C561 1.392 1_565 S
C562 C563 1.419 . S
C562 H591 0.948 . S
C563 C562 1.419 . S
C563 C564 1.391 . S
C563 C567 1.397 . S
C564 C559 1.391 . S
C564 C563 1.391 . S
C564 C565 1.399 . S
C565 C564 1.399 . S
C565 C566 1.396 . S
C565 C568 1.453 . S
C565 C569 1.684 . S
C566 C547 1.723 . S
C566 C565 1.396 . S
C566 C567 1.394 . S
C567 C563 1.397 . S
C567 C566 1.394 . S
C567 C577 1.723 . S
C568 C565 1.453 . S
C568 H592 0.982 . S
C568 H593 0.979 . S
C568 H594 0.977 . S
C569 C565 1.684 . S
C569 H595 0.979 . S
C569 H596 0.980 . S
C569 H597 0.983 . S
C570 H546 0.948 . S
C570 C571 1.391 . S
C570 C575 1.391 . S
C571 C570 1.391 . S
C571 C572 1.391 . S
C572 H549 0.947 . S
C572 C571 1.391 . S
C572 C573 1.392 . S
C573 H550 0.948 . S
C573 C572 1.392 . S
C573 C574 1.419 . S
C574 C573 1.419 . S
C574 C575 1.391 . S
C574 C578 1.397 . S
C575 C570 1.391 . S
C575 C574 1.391 . S
C575 C576 1.399 . S
C576 C575 1.399 . S
C576 C577 1.396 . S
C576 C579 1.453 . S
C576 C580 1.677 1_565 S
C577 C567 1.723 . S
C577 C576 1.396 . S
C577 C578 1.394 . S
C578 C548 1.723 . S
C578 C574 1.397 . S
C578 C577 1.394 . S
C579 H551 0.982 . S
C579 H555 0.979 . S
C579 H556 0.977 . S
C579 C576 1.453 . S
C580 H552 0.981 . S
C580 H553 0.982 . S
C580 H554 0.986 . S
C580 C576 1.677 1_545 S
H581 C599 0.948 . S
H582 C540 0.948 . S
H583 C558 0.979 . S
H584 C558 0.980 . S
H585 C558 0.983 . S
H586 C557 0.982 . S
H587 C557 0.979 . S
H588 C557 0.977 . S
H589 C559 0.948 . S
H590 C561 0.947 . S
H591 C562 0.948 . S
H592 C568 0.982 . S
H593 C568 0.979 . S
H594 C568 0.977 . S
H595 C569 0.979 . S
H596 C569 0.980 . S
H597 C569 0.983 . S
H598 C542 0.947 . S
C599 C542 1.392 . S
C599 C543 1.419 . S
C599 H581 0.948 . S
C600 C601 1.391 . S
C600 C604 1.391 . S
C600 H642 0.948 . S
C601 C600 1.391 . S
C601 C602 1.391 . S
C602 C601 1.391 . S
C602 H658 0.947 . S
C602 C659 1.392 . S
C603 C604 1.391 . S
C603 C607 1.397 . S
C603 C659 1.419 . S
C604 C600 1.391 . S
C604 C603 1.391 . S
C604 C605 1.399 . S
C605 C604 1.399 . S
C605 C608 1.396 . S
C605 C617 1.453 . S
C605 C618 1.684 . S
H606 C630 0.948 . S
C607 C603 1.397 . S
C607 C608 1.394 . S
C607 C626 1.723 . S
C608 C605 1.396 . S
C608 C607 1.394 . S
C608 C638 1.723 . S
H609 C632 0.947 . S
H610 C633 0.948 . S
H611 C639 0.982 . S
H612 C640 0.979 . S
H613 C640 0.980 . S
H614 C640 0.983 . S
H615 C639 0.979 . S
H616 C639 0.977 . S
C617 C605 1.453 . S
C617 H646 0.982 . S
C617 H647 0.979 . S
C617 H648 0.977 . S
C618 C605 1.684 . S
C618 H643 0.979 . S
C618 H644 0.980 . S
C618 H645 0.983 . S
C619 C620 1.391 . S
C619 C624 1.391 . S
C619 H649 0.948 . S
C620 C619 1.391 . S
C620 C621 1.391 . S
C621 C620 1.391 . S
C621 C622 1.392 . S
C621 H650 0.947 . S
C622 C621 1.392 . S
C622 C623 1.419 . S
C622 H651 0.948 . S
C623 C622 1.419 . S
C623 C624 1.391 . S
C623 C627 1.397 . S
C624 C619 1.391 . S
C624 C623 1.391 . S
C624 C625 1.399 . S
C625 C624 1.399 . S
C625 C626 1.396 . S
C625 C628 1.453 . S
C625 C629 1.684 . S
C626 C607 1.723 . S
C626 C625 1.396 . S
C626 C627 1.394 . S
C627 C623 1.397 . S
C627 C626 1.394 . S
C627 C637 1.723 . S
C628 C625 1.453 . S
C628 H652 0.982 . S
C628 H653 0.979 . S
C628 H654 0.977 . S
C629 C625 1.684 . S
C629 H655 0.979 . S
C629 H656 0.980 . S
C629 H657 0.983 . S
C630 H606 0.948 . S
C630 C631 1.391 . S
C630 C635 1.391 . S
C631 C630 1.391 . S
C631 C632 1.391 . S
C632 H609 0.947 . S
C632 C631 1.391 . S
C632 C633 1.392 . S
C633 H610 0.948 . S
C633 C632 1.392 . S
C633 C634 1.419 . S
C634 C633 1.419 . S
C634 C635 1.391 . S
C634 C638 1.397 . S
C635 C630 1.391 . S
C635 C634 1.391 . S
C635 C636 1.399 . S
C636 C635 1.399 . S
C636 C637 1.396 . S
C636 C639 1.453 . S
C636 C640 1.684 . S
C637 C627 1.723 . S
C637 C636 1.396 . S
C637 C638 1.394 . S
C638 C608 1.723 . S
C638 C634 1.397 . S
C638 C637 1.394 . S
C639 H611 0.982 . S
C639 H615 0.979 . S
C639 H616 0.977 . S
C639 C636 1.453 . S
C640 H612 0.979 . S
C640 H613 0.980 . S
C640 H614 0.983 . S
C640 C636 1.684 . S
H641 C659 0.948 . S
H642 C600 0.948 . S
H643 C618 0.979 . S
H644 C618 0.980 . S
H645 C618 0.983 . S
H646 C617 0.982 . S
H647 C617 0.979 . S
H648 C617 0.977 . S
H649 C619 0.948 . S
H650 C621 0.947 . S
H651 C622 0.948 . S
H652 C628 0.982 . S
H653 C628 0.979 . S
H654 C628 0.977 . S
H655 C629 0.979 . S
H656 C629 0.980 . S
H657 C629 0.983 . S
H658 C602 0.947 . S
C659 C602 1.392 . S
C659 C603 1.419 . S
C659 H641 0.948 . S
C660 C661 1.391 . S
C660 C664 1.391 . S
C660 H702 0.948 . S
C661 C660 1.391 . S
C661 C662 1.391 . S
C662 C661 1.391 . S
C662 H718 0.947 . S
C662 C719 1.392 . S
C663 C664 1.391 . S
C663 C667 1.397 . S
C663 C719 1.419 . S
C664 C660 1.391 . S
C664 C663 1.391 . S
C664 C665 1.399 . S
C665 C664 1.399 . S
C665 C668 1.396 . S
C665 C677 1.453 . S
C665 C678 1.684 . S
H666 C690 0.948 . S
C667 C663 1.397 . S
C667 C668 1.394 . S
C667 C686 1.723 . S
C668 C665 1.396 . S
C668 C667 1.394 . S
C668 C698 1.723 . S
H669 C692 0.947 . S
H670 C693 0.948 . S
H671 C699 0.982 . S
H672 C700 0.979 . S
H673 C700 0.980 . S
H674 C700 0.983 . S
H675 C699 0.979 . S
H676 C699 0.977 . S
C677 C665 1.453 . S
C677 H706 0.982 . S
C677 H707 0.979 . S
C677 H708 0.977 . S
C678 C665 1.684 . S
C678 H703 0.979 . S
C678 H704 0.980 . S
C678 H705 0.983 . S
C679 C680 1.391 . S
C679 C684 1.391 . S
C679 H709 0.948 . S
C680 C679 1.391 . S
C680 C681 1.391 . S
C681 C680 1.391 . S
C681 C682 1.392 . S
C681 H710 0.947 . S
C682 C681 1.392 . S
C682 C683 1.419 . S
C682 H711 0.948 . S
C683 C682 1.419 . S
C683 C684 1.391 . S
C683 C687 1.397 . S
C684 C679 1.391 . S
C684 C683 1.391 . S
C684 C685 1.399 . S
C685 C684 1.399 . S
C685 C686 1.396 . S
C685 C688 1.453 . S
C685 C689 1.684 . S
C686 C667 1.723 . S
C686 C685 1.396 . S
C686 C687 1.394 . S
C687 C683 1.397 . S
C687 C686 1.394 . S
C687 C697 1.723 . S
C688 C685 1.453 . S
C688 H712 0.982 . S
C688 H713 0.979 . S
C688 H714 0.977 . S
C689 C685 1.684 . S
C689 H715 0.979 . S
C689 H716 0.980 . S
C689 H717 0.983 . S
C690 H666 0.948 . S
C690 C691 1.391 . S
C690 C695 1.391 . S
C691 C690 1.391 . S
C691 C692 1.391 . S
C692 H669 0.947 . S
C692 C691 1.391 . S
C692 C693 1.392 . S
C693 H670 0.948 . S
C693 C692 1.392 . S
C693 C694 1.419 . S
C694 C693 1.419 . S
C694 C695 1.391 . S
C694 C698 1.397 . S
C695 C690 1.391 . S
C695 C694 1.391 . S
C695 C696 1.399 . S
C696 C695 1.399 . S
C696 C697 1.396 . S
C696 C699 1.453 . S
C696 C700 1.684 . S
C697 C687 1.723 . S
C697 C696 1.396 . S
C697 C698 1.394 . S
C698 C668 1.723 . S
C698 C694 1.397 . S
C698 C697 1.394 . S
C699 H671 0.982 . S
C699 H675 0.979 . S
C699 H676 0.977 . S
C699 C696 1.453 . S
C700 H672 0.979 . S
C700 H673 0.980 . S
C700 H674 0.983 . S
C700 C696 1.684 . S
H701 C719 0.948 . S
H702 C660 0.948 . S
H703 C678 0.979 . S
H704 C678 0.980 . S
H705 C678 0.983 . S
H706 C677 0.982 . S
H707 C677 0.979 . S
H708 C677 0.977 . S
H709 C679 0.948 . S
H710 C681 0.947 . S
H711 C682 0.948 . S
H712 C688 0.982 . S
H713 C688 0.979 . S
H714 C688 0.977 . S
H715 C689 0.979 . S
H716 C689 0.980 . S
H717 C689 0.983 . S
H718 C662 0.947 . S
C719 C662 1.392 . S
C719 C663 1.419 . S
C719 H701 0.948 . S
C720 C721 1.391 . S
C720 C724 1.391 . S
C720 H762 0.948 . S
C721 C720 1.391 . S
C721 C722 1.391 . S
C722 C721 1.391 . S
C722 H778 0.947 . S
C722 C779 1.392 . S
C723 C724 1.391 . S
C723 C727 1.397 . S
C723 C779 1.419 . S
C724 C720 1.391 . S
C724 C723 1.391 . S
C724 C725 1.399 . S
C725 C724 1.399 . S
C725 C728 1.396 . S
C725 C737 1.453 . S
C725 C738 1.684 . S
H726 C750 0.948 . S
C727 C723 1.397 . S
C727 C728 1.394 . S
C727 C746 1.723 . S
C728 C725 1.396 . S
C728 C727 1.394 . S
C728 C758 1.723 . S
H729 C752 0.947 . S
H730 C753 0.948 . S
H731 C759 0.982 . S
H732 C760 0.979 . S
H733 C760 0.980 . S
H734 C760 0.983 . S
H735 C759 0.979 . S
H736 C759 0.977 . S
C737 C725 1.453 . S
C737 H766 0.982 . S
C737 H767 0.979 . S
C737 H768 0.977 . S
C738 C725 1.684 . S
C738 H763 0.979 . S
C738 H764 0.980 . S
C738 H765 0.983 . S
C739 C740 1.391 . S
C739 C744 1.391 . S
C739 H769 0.948 . S
C740 C739 1.391 . S
C740 C741 1.391 . S
C741 C740 1.391 . S
C741 C742 1.392 . S
C741 H770 0.947 . S
C742 C741 1.392 . S
C742 C743 1.419 . S
C742 H771 0.948 . S
C743 C742 1.419 . S
C743 C744 1.391 . S
C743 C747 1.397 . S
C744 C739 1.391 . S
C744 C743 1.391 . S
C744 C745 1.399 . S
C745 C744 1.399 . S
C745 C746 1.396 . S
C745 C748 1.453 . S
C745 C749 1.684 . S
C746 C727 1.723 . S
C746 C745 1.396 . S
C746 C747 1.394 . S
C747 C743 1.397 . S
C747 C746 1.394 . S
C747 C757 1.723 . S
C748 C745 1.453 . S
C748 H772 0.982 . S
C748 H773 0.979 . S
C748 H774 0.977 . S
C749 C745 1.684 . S
C749 H775 0.979 . S
C749 H776 0.980 . S
C749 H777 0.983 . S
C750 H726 0.948 . S
C750 C751 1.391 . S
C750 C755 1.391 . S
C751 C750 1.391 . S
C751 C752 1.391 . S
C752 H729 0.947 . S
C752 C751 1.391 . S
C752 C753 1.392 . S
C753 H730 0.948 . S
C753 C752 1.392 . S
C753 C754 1.419 . S
C754 C753 1.419 . S
C754 C755 1.391 . S
C754 C758 1.397 . S
C755 C750 1.391 . S
C755 C754 1.391 . S
C755 C756 1.399 . S
C756 C755 1.399 . S
C756 C757 1.396 . S
C756 C759 1.453 . S
C756 C760 1.684 . S
C757 C747 1.723 . S
C757 C756 1.396 . S
C757 C758 1.394 . S
C758 C728 1.723 . S
C758 C754 1.397 . S
C758 C757 1.394 . S
C759 H731 0.982 . S
C759 H735 0.979 . S
C759 H736 0.977 . S
C759 C756 1.453 . S
C760 H732 0.979 . S
C760 H733 0.980 . S
C760 H734 0.983 . S
C760 C756 1.684 . S
H761 C779 0.948 . S
H762 C720 0.948 . S
H763 C738 0.979 . S
H764 C738 0.980 . S
H765 C738 0.983 . S
H766 C737 0.982 . S
H767 C737 0.979 . S
H768 C737 0.977 . S
H769 C739 0.948 . S
H770 C741 0.947 . S
H771 C742 0.948 . S
H772 C748 0.982 . S
H773 C748 0.979 . S
H774 C748 0.977 . S
H775 C749 0.979 . S
H776 C749 0.980 . S
H777 C749 0.983 . S
H778 C722 0.947 . S
C779 C722 1.392 . S
C779 C723 1.419 . S
C779 H761 0.948 . S
C780 C781 1.391 . S
C780 C784 1.391 . S
C780 H822 0.948 1_556 S
C781 C780 1.391 . S
C781 C782 1.391 . S
C782 C781 1.391 . S
C782 H838 0.947 . S
C782 C839 1.392 . S
C783 C784 1.391 . S
C783 C787 1.397 . S
C783 C839 1.419 . S
C784 C780 1.391 . S
C784 C783 1.391 . S
C784 C785 1.399 . S
C785 C784 1.399 . S
C785 C788 1.396 . S
C785 C797 1.502 . S
C785 C798 1.684 . S
H786 C810 0.948 . S
C787 C783 1.397 . S
C787 C788 1.394 . S
C787 C806 1.723 . S
C788 C785 1.396 . S
C788 C787 1.394 . S
C788 C818 1.723 . S
H789 C812 0.947 . S
H790 C813 0.948 . S
H791 C819 0.982 . S
H792 C820 0.979 . S
H793 C820 0.980 . S
H794 C820 0.983 . S
H795 C819 0.979 . S
H796 C819 0.977 . S
C797 C785 1.502 . S
C797 H826 0.971 1_556 S
C797 H827 0.932 1_556 S
C797 H828 0.990 . S
C798 C785 1.684 . S
C798 H823 0.979 . S
C798 H824 0.980 . S
C798 H825 0.983 . S
C799 C800 1.391 . S
C799 C804 1.391 . S
C799 H829 0.948 . S
C800 C799 1.391 . S
C800 C801 1.391 . S
C801 C800 1.391 . S
C801 C802 1.392 . S
C801 H830 0.947 . S
C802 C801 1.392 . S
C802 C803 1.419 . S
C802 H831 0.948 . S
C803 C802 1.419 . S
C803 C804 1.391 . S
C803 C807 1.397 . S
C804 C799 1.391 . S
C804 C803 1.391 . S
C804 C805 1.399 . S
C805 C804 1.399 . S
C805 C806 1.396 . S
C805 C808 1.453 . S
C805 C809 1.684 . S
C806 C787 1.723 . S
C806 C805 1.396 . S
C806 C807 1.394 . S
C807 C803 1.397 . S
C807 C806 1.394 . S
C807 C817 1.723 . S
C808 C805 1.453 . S
C808 H832 0.982 . S
C808 H833 0.979 . S
C808 H834 0.977 . S
C809 C805 1.684 . S
C809 H835 0.979 . S
C809 H836 0.980 . S
C809 H837 0.983 . S
C810 H786 0.948 . S
C810 C811 1.391 . S
C810 C815 1.391 . S
C811 C810 1.391 . S
C811 C812 1.391 . S
C812 H789 0.947 . S
C812 C811 1.391 . S
C812 C813 1.392 . S
C813 H790 0.948 . S
C813 C812 1.392 . S
C813 C814 1.419 . S
C814 C813 1.419 . S
C814 C815 1.391 . S
C814 C818 1.397 . S
C815 C810 1.391 . S
C815 C814 1.391 . S
C815 C816 1.399 . S
C816 C815 1.399 . S
C816 C817 1.396 . S
C816 C819 1.453 . S
C816 C820 1.684 . S
C817 C807 1.723 . S
C817 C816 1.396 . S
C817 C818 1.394 . S
C818 C788 1.723 . S
C818 C814 1.397 . S
C818 C817 1.394 . S
C819 H791 0.982 . S
C819 H795 0.979 . S
C819 H796 0.977 . S
C819 C816 1.453 . S
C820 H792 0.979 . S
C820 H793 0.980 . S
C820 H794 0.983 . S
C820 C816 1.684 . S
H821 C839 0.948 . S
H822 C780 0.948 1_554 S
H823 C798 0.979 . S
H824 C798 0.980 . S
H825 C798 0.983 . S
H826 C797 0.971 1_554 S
H827 C797 0.932 1_554 S
H828 C797 0.990 . S
H829 C799 0.948 . S
H830 C801 0.947 . S
H831 C802 0.948 . S
H832 C808 0.982 . S
H833 C808 0.979 . S
H834 C808 0.977 . S
H835 C809 0.979 . S
H836 C809 0.980 . S
H837 C809 0.983 . S
H838 C782 0.947 . S
C839 C782 1.392 . S
C839 C783 1.419 . S
C839 H821 0.948 . S
C840 C841 1.391 . S
C840 C844 1.391 . S
C840 H882 0.948 . S
C841 C840 1.391 . S
C841 C842 1.391 . S
C842 C841 1.391 . S
C842 H898 0.947 . S
C842 C899 1.392 . S
C843 C844 1.391 . S
C843 C847 1.397 . S
C843 C899 1.419 . S
C844 C840 1.391 . S
C844 C843 1.391 . S
C844 C845 1.399 . S
C845 C844 1.399 . S
C845 C848 1.396 . S
C845 C857 1.453 . S
C845 C858 1.684 . S
H846 C870 0.948 . S
C847 C843 1.397 . S
C847 C848 1.394 . S
C847 C866 1.723 . S
C848 C845 1.396 . S
C848 C847 1.394 . S
C848 C878 1.723 . S
H849 C872 0.947 . S
H850 C873 0.948 . S
H851 C879 0.982 . S
H852 C880 0.979 . S
H853 C880 0.980 . S
H854 C880 0.983 . S
H855 C879 0.979 . S
H856 C879 0.977 . S
C857 C845 1.453 . S
C857 H886 0.982 . S
C857 H887 0.979 . S
C857 H888 0.977 . S
C858 C845 1.684 . S
C858 H883 0.979 . S
C858 H884 0.980 . S
C858 H885 0.983 . S
C859 C860 1.391 . S
C859 C864 1.391 . S
C859 H889 0.948 . S
C860 C859 1.391 . S
C860 C861 1.391 . S
C861 C860 1.391 . S
C861 C862 1.392 . S
C861 H890 0.947 . S
C862 C861 1.392 . S
C862 C863 1.419 . S
C862 H891 0.948 . S
C863 C862 1.419 . S
C863 C864 1.391 . S
C863 C867 1.397 . S
C864 C859 1.391 . S
C864 C863 1.391 . S
C864 C865 1.399 . S
C865 C864 1.399 . S
C865 C866 1.396 . S
C865 C868 1.453 . S
C865 C869 1.684 . S
C866 C847 1.723 . S
C866 C865 1.396 . S
C866 C867 1.394 . S
C867 C863 1.397 . S
C867 C866 1.394 . S
C867 C877 1.723 . S
C868 C865 1.453 . S
C868 H892 0.982 . S
C868 H893 0.979 . S
C868 H894 0.977 . S
C869 C865 1.684 . S
C869 H895 0.979 . S
C869 H896 0.980 . S
C869 H897 0.983 . S
C870 H846 0.948 . S
C870 C871 1.391 . S
C870 C875 1.391 . S
C871 C870 1.391 . S
C871 C872 1.391 . S
C872 H849 0.947 . S
C872 C871 1.391 . S
C872 C873 1.392 . S
C873 H850 0.948 . S
C873 C872 1.392 . S
C873 C874 1.419 . S
C874 C873 1.419 . S
C874 C875 1.391 . S
C874 C878 1.397 . S
C875 C870 1.391 . S
C875 C874 1.391 . S
C875 C876 1.399 . S
C876 C875 1.399 . S
C876 C877 1.396 . S
C876 C879 1.453 . S
C876 C880 1.684 . S
C877 C867 1.723 . S
C877 C876 1.396 . S
C877 C878 1.394 . S
C878 C848 1.723 . S
C878 C874 1.397 . S
C878 C877 1.394 . S
C879 H851 0.982 . S
C879 H855 0.979 . S
C879 H856 0.977 . S
C879 C876 1.453 . S
C880 H852 0.979 . S
C880 H853 0.980 . S
C880 H854 0.983 . S
C880 C876 1.684 . S
H881 C899 0.948 . S
H882 C840 0.948 . S
H883 C858 0.979 . S
H884 C858 0.980 . S
H885 C858 0.983 . S
H886 C857 0.982 . S
H887 C857 0.979 . S
H888 C857 0.977 . S
H889 C859 0.948 . S
H890 C861 0.947 . S
H891 C862 0.948 . S
H892 C868 0.982 . S
H893 C868 0.979 . S
H894 C868 0.977 . S
H895 C869 0.979 . S
H896 C869 0.980 . S
H897 C869 0.983 . S
H898 C842 0.947 . S
C899 C842 1.392 . S
C899 C843 1.419 . S
C899 H881 0.948 . S
C900 C901 1.391 . S
C900 C904 1.391 . S
C900 H942 0.948 . S
C901 C900 1.391 . S
C901 C902 1.391 . S
C902 C901 1.391 . S
C902 H958 0.947 1_545 S
C902 C959 1.392 . S
C903 C904 1.391 . S
C903 C907 1.397 . S
C903 C959 1.419 . S
C904 C900 1.391 . S
C904 C903 1.391 . S
C904 C905 1.399 . S
C905 C904 1.399 . S
C905 C908 1.396 . S
C905 C917 1.453 . S
C905 C918 1.684 . S
H906 C930 0.948 . S
C907 C903 1.397 . S
C907 C908 1.394 . S
C907 C926 1.723 . S
C908 C905 1.396 . S
C908 C907 1.394 . S
C908 C938 1.723 . S
H909 C932 0.947 1_554 S
H910 C933 0.948 . S
H911 C939 0.982 . S
H912 C940 0.979 . S
H913 C940 0.980 . S
H914 C940 0.983 . S
H915 C939 0.979 . S
H916 C939 0.977 . S
C917 C905 1.453 . S
C917 H946 0.982 . S
C917 H947 0.979 . S
C917 H948 0.977 . S
C918 C905 1.684 . S
C918 H943 0.979 . S
C918 H944 0.980 . S
C918 H945 0.983 . S
C919 C920 1.391 . S
C919 C924 1.391 . S
C919 H949 0.948 . S
C920 C919 1.391 . S
C920 C921 1.391 . S
C921 C920 1.391 . S
C921 C922 1.392 . S
C921 H950 0.947 . S
C922 C921 1.392 . S
C922 C923 1.419 . S
C922 H951 0.948 . S
C923 C922 1.419 . S
C923 C924 1.391 . S
C923 C927 1.397 . S
C924 C919 1.391 . S
C924 C923 1.391 . S
C924 C925 1.399 . S
C925 C924 1.399 . S
C925 C926 1.396 . S
C925 C928 1.453 . S
C925 C929 1.684 . S
C926 C907 1.723 . S
C926 C925 1.396 . S
C926 C927 1.394 . S
C927 C923 1.397 . S
C927 C926 1.394 . S
C927 C937 1.723 . S
C928 C925 1.453 . S
C928 H952 0.982 . S
C928 H953 0.979 . S
C928 H954 0.977 . S
C929 C925 1.684 . S
C929 H955 0.979 . S
C929 H956 0.980 . S
C929 H957 0.983 . S
C930 H906 0.948 . S
C930 C931 1.391 . S
C930 C935 1.391 . S
C931 C930 1.391 . S
C931 C932 1.391 . S
C932 H909 0.947 1_556 S
C932 C931 1.391 . S
C932 C933 1.392 . S
C933 H910 0.948 . S
C933 C932 1.392 . S
C933 C934 1.419 . S
C934 C933 1.419 . S
C934 C935 1.391 . S
C934 C938 1.397 . S
C935 C930 1.391 . S
C935 C934 1.391 . S
C935 C936 1.399 . S
C936 C935 1.399 . S
C936 C937 1.396 . S
C936 C939 1.453 . S
C936 C940 1.684 . S
C937 C927 1.723 . S
C937 C936 1.396 . S
C937 C938 1.394 . S
C938 C908 1.723 . S
C938 C934 1.397 . S
C938 C937 1.394 . S
C939 H911 0.982 . S
C939 H915 0.979 . S
C939 H916 0.977 . S
C939 C936 1.453 . S
C940 H912 0.979 . S
C940 H913 0.980 . S
C940 H914 0.983 . S
C940 C936 1.684 . S
H941 C959 0.948 . S
H942 C900 0.948 . S
H943 C918 0.979 . S
H944 C918 0.980 . S
H945 C918 0.983 . S
H946 C917 0.982 . S
H947 C917 0.979 . S
H948 C917 0.977 . S
H949 C919 0.948 . S
H950 C921 0.947 . S
H951 C922 0.948 . S
H952 C928 0.982 . S
H953 C928 0.979 . S
H954 C928 0.977 . S
H955 C929 0.979 . S
H956 C929 0.980 . S
H957 C929 0.983 . S
H958 C902 0.947 1_565 S
C959 C902 1.392 . S
C959 C903 1.419 . S
C959 H941 0.948 . S
Zn960 O963 2.054 . S
Zn960 O965 2.034 1_554 S
Zn960 O970 2.036 1_554 S
Zn961 O962 1.962 . S
Zn961 O964 1.986 . S
Zn961 O966 1.996 . S
Zn961 O969 1.943 1_554 S
O962 Zn961 1.962 . S
O962 C967 1.254 . S
O963 Zn960 2.054 . S
O963 C967 1.269 . S
O964 Zn961 1.986 . S
O964 C971 1.262 . S
O965 Zn960 2.034 1_556 S
O965 C973 1.260 . S
O966 Zn961 1.996 . S
O966 C973 1.257 1_554 S
C967 O962 1.254 . S
C967 O963 1.269 . S
C968 O969 1.249 . S
C968 O970 1.270 . S
O969 Zn961 1.943 1_556 S
O969 C968 1.249 . S
O970 Zn960 2.036 1_556 S
O970 C968 1.270 . S
C971 O964 1.262 . S
C971 O972 1.232 . S
O972 C971 1.232 . S
C973 O965 1.260 . S
C973 O966 1.257 1_556 S
Zn974 O977 2.031 . S
Zn974 O979 2.049 . S
Zn974 O984 2.067 . S
Zn975 O976 1.962 . S
Zn975 O978 1.986 . S
Zn975 O980 1.996 . S
Zn975 O983 1.943 . S
O976 Zn975 1.962 . S
O976 C981 1.254 . S
O977 Zn974 2.031 . S
O977 C981 1.269 . S
O978 Zn975 1.986 . S
O978 C985 1.262 . S
O979 Zn974 2.049 . S
O979 C987 1.260 . S
O980 Zn975 1.996 . S
O980 C987 1.257 . S
C981 O976 1.254 . S
C981 O977 1.269 . S
C982 O983 1.249 . S
C982 O984 1.270 . S
O983 Zn975 1.943 . S
O983 C982 1.249 . S
O984 Zn974 2.067 . S
O984 C982 1.270 . S
C985 O978 1.262 . S
C985 O986 1.232 . S
O986 C985 1.232 . S
C987 O979 1.260 . S
C987 O980 1.257 . S
Zn988 O991 2.031 . S
Zn988 O993 2.049 . S
Zn988 O998 2.067 . S
Zn989 O990 1.962 . S
Zn989 O992 1.986 . S
Zn989 O994 1.996 1_554 S
Zn989 O997 1.943 . S
O990 Zn989 1.962 . S
O990 C995 1.254 . S
O991 Zn988 2.031 . S
O991 C995 1.269 1_556 S
O992 Zn989 1.986 . S
O992 C999 1.262 . S
O993 Zn988 2.049 . S
O993 C1001 1.260 . S
O994 Zn989 1.996 1_556 S
O994 C1001 1.257 . S
C995 O990 1.254 . S
C995 O991 1.269 1_554 S
C996 O997 1.249 1_556 S
C996 O998 1.270 . S
O997 Zn989 1.943 . S
O997 C996 1.249 1_554 S
O998 Zn988 2.067 . S
O998 C996 1.270 . S
C999 O992 1.262 . S
C999 O1000 1.232 . S
O1000 C999 1.232 . S
C1001 O993 1.260 . S
C1001 O994 1.257 . S
Zn1002 O1005 2.054 . S
Zn1002 O1007 2.034 1_545 S
Zn1002 O1012 2.036 1_545 S
Zn1003 O1004 1.962 . S
Zn1003 O1006 1.986 . S
Zn1003 O1008 1.996 . S
Zn1003 O1011 1.943 1_545 S
O1004 Zn1003 1.962 . S
O1004 C1009 1.254 . S
O1005 Zn1002 2.054 . S
O1005 C1009 1.269 . S
O1006 Zn1003 1.986 . S
O1006 C1013 1.262 . S
O1007 Zn1002 2.034 1_565 S
O1007 C1015 1.260 . S
O1008 Zn1003 1.996 . S
O1008 C1015 1.257 1_545 S
C1009 O1004 1.254 . S
C1009 O1005 1.269 . S
C1010 O1011 1.249 . S
C1010 O1012 1.270 . S
O1011 Zn1003 1.943 1_565 S
O1011 C1010 1.249 . S
O1012 Zn1002 2.036 1_565 S
O1012 C1010 1.270 . S
C1013 O1006 1.262 . S
C1013 O1014 1.232 . S
O1014 C1013 1.232 . S
C1015 O1007 1.260 . S
C1015 O1008 1.257 1_565 S
Zn1016 O1019 2.031 . S
Zn1016 O1021 2.049 . S
Zn1016 O1026 2.067 . S
Zn1017 O1018 1.962 . S
Zn1017 O1020 1.986 . S
Zn1017 O1022 1.996 . S
Zn1017 O1025 1.943 . S
O1018 Zn1017 1.962 . S
O1018 C1023 1.254 . S
O1019 Zn1016 2.031 . S
O1019 C1023 1.269 . S
O1020 Zn1017 1.986 . S
O1020 C1027 1.262 . S
O1021 Zn1016 2.049 . S
O1021 C1029 1.260 . S
O1022 Zn1017 1.996 . S
O1022 C1029 1.257 . S
C1023 O1018 1.254 . S
C1023 O1019 1.269 . S
C1024 O1025 1.249 . S
C1024 O1026 1.270 . S
O1025 Zn1017 1.943 . S
O1025 C1024 1.249 . S
O1026 Zn1016 2.067 . S
O1026 C1024 1.270 . S
C1027 O1020 1.262 . S
C1027 O1028 1.232 . S
O1028 C1027 1.232 . S
C1029 O1021 1.260 . S
C1029 O1022 1.257 . S
Zn1030 O1033 2.031 . S
Zn1030 O1035 2.049 . S
Zn1030 O1040 2.067 . S
Zn1031 O1032 1.962 . S
Zn1031 O1034 1.986 . S
Zn1031 O1036 1.996 . S
Zn1031 O1039 1.943 . S
O1032 Zn1031 1.962 . S
O1032 C1037 1.254 . S
O1033 Zn1030 2.031 . S
O1033 C1037 1.269 . S
O1034 Zn1031 1.986 . S
O1034 C1041 1.262 . S
O1035 Zn1030 2.049 . S
O1035 C1043 1.260 . S
O1036 Zn1031 1.996 . S
O1036 C1043 1.257 . S
C1037 O1032 1.254 . S
C1037 O1033 1.269 . S
C1038 O1039 1.249 . S
C1038 O1040 1.270 . S
O1039 Zn1031 1.943 . S
O1039 C1038 1.249 . S
O1040 Zn1030 2.067 . S
O1040 C1038 1.270 . S
C1041 O1034 1.262 . S
C1041 O1042 1.232 . S
O1042 C1041 1.232 . S
C1043 O1035 1.260 . S
C1043 O1036 1.257 . S
Zn1044 O1047 2.031 . S
Zn1044 O1049 2.049 . S
Zn1044 O1054 2.067 . S
Zn1045 O1046 1.962 . S
Zn1045 O1048 1.986 . S
Zn1045 O1050 1.996 . S
Zn1045 O1053 1.943 . S
O1046 Zn1045 1.962 . S
O1046 C1051 1.254 . S
O1047 Zn1044 2.031 . S
O1047 C1051 1.269 . S
O1048 Zn1045 1.986 . S
O1048 C1055 1.262 . S
O1049 Zn1044 2.049 . S
O1049 C1057 1.260 . S
O1050 Zn1045 1.996 . S
O1050 C1057 1.257 . S
C1051 O1046 1.254 . S
C1051 O1047 1.269 . S
C1052 O1053 1.249 . S
C1052 O1054 1.270 . S
O1053 Zn1045 1.943 . S
O1053 C1052 1.249 . S
O1054 Zn1044 2.067 . S
O1054 C1052 1.270 . S
C1055 O1048 1.262 . S
C1055 O1056 1.232 . S
O1056 C1055 1.232 . S
C1057 O1049 1.260 . S
C1057 O1050 1.257 . S
Zn1058 O1061 2.031 . S
Zn1058 O1063 2.049 . S
Zn1058 O1068 2.067 . S
Zn1059 O1060 1.962 . S
Zn1059 O1062 1.986 . S
Zn1059 O1064 1.996 1_545 S
Zn1059 O1067 1.943 . S
O1060 Zn1059 1.962 . S
O1060 C1065 1.254 . S
O1061 Zn1058 2.031 . S
O1061 C1065 1.269 1_565 S
O1062 Zn1059 1.986 . S
O1062 C1069 1.262 . S
O1063 Zn1058 2.049 . S
O1063 C1071 1.260 . S
O1064 Zn1059 1.996 1_565 S
O1064 C1071 1.257 . S
C1065 O1060 1.254 . S
C1065 O1061 1.269 1_545 S
C1066 O1067 1.249 1_565 S
C1066 O1068 1.270 . S
O1067 Zn1059 1.943 . S
O1067 C1066 1.249 1_545 S
O1068 Zn1058 2.067 . S
O1068 C1066 1.270 . S
C1069 O1062 1.262 . S
C1069 O1070 1.232 . S
O1070 C1069 1.232 . S
C1071 O1063 1.260 . S
C1071 O1064 1.257 . S
Zn1072 O1075 2.054 . S
Zn1072 O1077 2.034 1_455 S
Zn1072 O1082 2.036 1_455 S
Zn1073 O1074 1.962 . S
Zn1073 O1076 1.986 . S
Zn1073 O1078 1.996 . S
Zn1073 O1081 1.943 1_455 S
O1074 Zn1073 1.962 . S
O1074 C1079 1.254 . S
O1075 Zn1072 2.054 . S
O1075 C1079 1.269 . S
O1076 Zn1073 1.986 . S
O1076 C1083 1.262 . S
O1077 Zn1072 2.034 1_655 S
O1077 C1085 1.260 . S
O1078 Zn1073 1.996 . S
O1078 C1085 1.257 1_455 S
C1079 O1074 1.254 . S
C1079 O1075 1.269 . S
C1080 O1081 1.249 . S
C1080 O1082 1.270 . S
O1081 Zn1073 1.943 1_655 S
O1081 C1080 1.249 . S
O1082 Zn1072 2.036 1_655 S
O1082 C1080 1.270 . S
C1083 O1076 1.262 . S
C1083 O1084 1.232 . S
O1084 C1083 1.232 . S
C1085 O1077 1.260 . S
C1085 O1078 1.257 1_655 S
Zn1086 O1089 2.031 . S
Zn1086 O1091 2.049 . S
Zn1086 O1096 2.067 . S
Zn1087 O1088 1.962 . S
Zn1087 O1090 1.986 . S
Zn1087 O1092 1.996 . S
Zn1087 O1095 1.943 . S
O1088 Zn1087 1.962 . S
O1088 C1093 1.254 . S
O1089 Zn1086 2.031 . S
O1089 C1093 1.269 . S
O1090 Zn1087 1.986 . S
O1090 C1097 1.262 . S
O1091 Zn1086 2.049 . S
O1091 C1099 1.260 . S
O1092 Zn1087 1.996 . S
O1092 C1099 1.257 . S
C1093 O1088 1.254 . S
C1093 O1089 1.269 . S
C1094 O1095 1.249 . S
C1094 O1096 1.270 . S
O1095 Zn1087 1.943 . S
O1095 C1094 1.249 . S
O1096 Zn1086 2.067 . S
O1096 C1094 1.270 . S
C1097 O1090 1.262 . S
C1097 O1098 1.232 . S
O1098 C1097 1.232 . S
C1099 O1091 1.260 . S
C1099 O1092 1.257 . S
Zn1100 O1103 2.031 . S
Zn1100 O1105 2.049 . S
Zn1100 O1110 2.067 . S
Zn1101 O1102 1.962 . S
Zn1101 O1104 1.986 . S
Zn1101 O1106 1.996 1_455 S
Zn1101 O1109 1.943 . S
O1102 Zn1101 1.962 . S
O1102 C1107 1.254 . S
O1103 Zn1100 2.031 . S
O1103 C1107 1.269 1_655 S
O1104 Zn1101 1.986 . S
O1104 C1111 1.262 . S
O1105 Zn1100 2.049 . S
O1105 C1113 1.260 . S
O1106 Zn1101 1.996 1_655 S
O1106 C1113 1.257 . S
C1107 O1102 1.254 . S
C1107 O1103 1.269 1_455 S
C1108 O1109 1.249 1_655 S
C1108 O1110 1.270 . S
O1109 Zn1101 1.943 . S
O1109 C1108 1.249 1_455 S
O1110 Zn1100 2.067 . S
O1110 C1108 1.270 . S
C1111 O1104 1.262 . S
C1111 O1112 1.232 . S
O1112 C1111 1.232 . S
C1113 O1105 1.260 . S
C1113 O1106 1.257 . S
Zn1114 O1117 2.031 . S
Zn1114 O1119 2.049 . S
Zn1114 O1124 2.067 . S
Zn1115 O1116 1.962 . S
Zn1115 O1118 1.986 . S
Zn1115 O1120 1.996 . S
Zn1115 O1123 1.943 . S
O1116 Zn1115 1.962 . S
O1116 C1121 1.254 . S
O1117 Zn1114 2.031 . S
O1117 C1121 1.269 . S
O1118 Zn1115 1.986 . S
O1118 C1125 1.262 . S
O1119 Zn1114 2.049 . S
O1119 C1127 1.260 . S
O1120 Zn1115 1.996 . S
O1120 C1127 1.257 . S
C1121 O1116 1.254 . S
C1121 O1117 1.269 . S
C1122 O1123 1.249 . S
C1122 O1124 1.270 . S
O1123 Zn1115 1.943 . S
O1123 C1122 1.249 . S
O1124 Zn1114 2.067 . S
O1124 C1122 1.270 . S
C1125 O1118 1.262 . S
C1125 O1126 1.232 . S
O1126 C1125 1.232 . S
C1127 O1119 1.260 . S
C1127 O1120 1.257 . S
C1128 C1129 1.349 . S
C1128 C1130 1.327 . S
C1128 H1153 0.950 . S
C1129 C1128 1.349 . S
C1129 C1145 1.349 . S
C1130 C1128 1.327 . S
C1130 C1149 1.429 . S
C1130 H1154 0.950 . S
C1131 C1148 1.574 . S
C1131 C1150 1.368 . S
C1131 H1155 0.949 . S
H1132 C1136 0.949 . S
C1133 C1134 1.349 . S
C1133 C1135 1.327 . S
C1133 H1156 0.950 . S
C1134 C1133 1.349 . S
C1134 C1146 1.349 . S
C1135 C1133 1.327 . S
C1135 C1151 1.429 . S
C1135 H1157 0.950 . S
C1136 H1132 0.949 . S
C1136 C1144 1.574 . S
C1136 C1152 1.368 . S
H1137 C1145 0.950 . S
H1138 C1143 0.950 . S
H1139 C1144 0.949 . S
H1140 C1146 0.950 . S
H1141 C1147 0.950 . S
H1142 C1148 0.949 . S
C1143 H1138 0.950 . S
C1143 C1145 1.327 . S
C1143 C1149 1.429 . S
C1144 C1136 1.574 . S
C1144 H1139 0.949 . S
C1144 C1150 1.368 . S
C1145 C1129 1.349 . S
C1145 H1137 0.950 . S
C1145 C1143 1.327 . S
C1146 C1134 1.349 . S
C1146 H1140 0.950 . S
C1146 C1147 1.327 . S
C1147 H1141 0.950 . S
C1147 C1146 1.327 . S
C1147 C1151 1.429 . S
C1148 C1131 1.574 . S
C1148 H1142 0.949 . S
C1148 C1152 1.368 . S
C1149 C1130 1.429 . S
C1149 C1143 1.429 . S
C1149 C1150 1.523 . S
C1150 C1131 1.368 . S
C1150 C1144 1.368 . S
C1150 C1149 1.523 . S
C1151 C1135 1.429 . S
C1151 C1147 1.429 . S
C1151 C1152 1.523 . S
C1152 C1136 1.368 . S
C1152 C1148 1.368 . S
C1152 C1151 1.523 . S
H1153 C1128 0.950 . S
H1154 C1130 0.950 . S
H1155 C1131 0.949 . S
H1156 C1133 0.950 . S
H1157 C1135 0.950 . S
C1158 C1159 1.349 . S
C1158 C1160 1.327 . S
C1158 H1183 0.950 . S
C1159 C1158 1.349 . S
C1159 C1175 1.349 . S
C1160 C1158 1.327 . S
C1160 C1179 1.429 . S
C1160 H1184 0.950 . S
C1161 C1178 1.574 . S
C1161 C1180 1.368 . S
C1161 H1185 0.949 . S
H1162 C1166 0.949 . S
C1163 C1164 1.349 . S
C1163 C1165 1.327 . S
C1163 H1186 0.950 . S
C1164 C1163 1.349 . S
C1164 C1176 1.349 . S
C1165 C1163 1.327 . S
C1165 C1181 1.429 . S
C1165 H1187 0.950 . S
C1166 H1162 0.949 . S
C1166 C1174 1.574 . S
C1166 C1182 1.368 . S
H1167 C1175 0.950 1_655 S
H1168 C1173 0.950 . S
H1169 C1174 0.949 . S
H1170 C1176 0.950 . S
H1171 C1177 0.950 . S
H1172 C1178 0.949 . S
C1173 H1168 0.950 . S
C1173 C1175 1.327 . S
C1173 C1179 1.429 . S
C1174 C1166 1.574 . S
C1174 H1169 0.949 . S
C1174 C1180 1.368 . S
C1175 C1159 1.349 . S
C1175 H1167 0.950 1_455 S
C1175 C1173 1.327 . S
C1176 C1164 1.349 . S
C1176 H1170 0.950 . S
C1176 C1177 1.327 . S
C1177 H1171 0.950 . S
C1177 C1176 1.327 . S
C1177 C1181 1.429 . S
C1178 C1161 1.574 . S
C1178 H1172 0.949 . S
C1178 C1182 1.368 . S
C1179 C1160 1.429 . S
C1179 C1173 1.429 . S
C1179 C1180 1.523 . S
C1180 C1161 1.368 . S
C1180 C1174 1.368 . S
C1180 C1179 1.523 . S
C1181 C1165 1.429 . S
C1181 C1177 1.429 . S
C1181 C1182 1.523 . S
C1182 C1166 1.368 . S
C1182 C1178 1.368 . S
C1182 C1181 1.523 . S
H1183 C1158 0.950 . S
H1184 C1160 0.950 . S
H1185 C1161 0.949 . S
H1186 C1163 0.950 . S
H1187 C1165 0.950 . S
C1188 C1189 1.349 . S
C1188 C1190 1.327 . S
C1188 H1213 0.950 . S
C1189 C1188 1.349 . S
C1189 C1205 1.349 . S
C1190 C1188 1.327 . S
C1190 C1209 1.429 . S
C1190 H1214 0.950 . S
C1191 C1208 1.574 . S
C1191 C1210 1.368 . S
C1191 H1215 0.949 . S
H1192 C1196 0.949 . S
C1193 C1194 1.349 . S
C1193 C1195 1.327 . S
C1193 H1216 0.950 . S
C1194 C1193 1.349 . S
C1194 C1206 1.349 . S
C1195 C1193 1.327 . S
C1195 C1211 1.429 . S
C1195 H1217 0.950 . S
C1196 H1192 0.949 . S
C1196 C1204 1.574 . S
C1196 C1212 1.368 . S
H1197 C1205 0.950 . S
H1198 C1203 0.950 . S
H1199 C1204 0.949 . S
H1200 C1206 0.950 . S
H1201 C1207 0.950 . S
H1202 C1208 0.949 . S
C1203 H1198 0.950 . S
C1203 C1205 1.327 . S
C1203 C1209 1.429 . S
C1204 C1196 1.574 . S
C1204 H1199 0.949 . S
C1204 C1210 1.368 . S
C1205 C1189 1.349 . S
C1205 H1197 0.950 . S
C1205 C1203 1.327 . S
C1206 C1194 1.349 . S
C1206 H1200 0.950 . S
C1206 C1207 1.327 . S
C1207 H1201 0.950 . S
C1207 C1206 1.327 . S
C1207 C1211 1.429 . S
C1208 C1191 1.574 . S
C1208 H1202 0.949 . S
C1208 C1212 1.368 . S
C1209 C1190 1.429 . S
C1209 C1203 1.429 . S
C1209 C1210 1.523 . S
C1210 C1191 1.368 . S
C1210 C1204 1.368 . S
C1210 C1209 1.523 . S
C1211 C1195 1.429 . S
C1211 C1207 1.429 . S
C1211 C1212 1.523 . S
C1212 C1196 1.368 . S
C1212 C1208 1.368 . S
C1212 C1211 1.523 . S
H1213 C1188 0.950 . S
H1214 C1190 0.950 . S
H1215 C1191 0.949 . S
H1216 C1193 0.950 . S
H1217 C1195 0.950 . S
C1218 C1219 1.366 . S
C1218 C1220 1.327 1_455 S
C1218 H1243 0.950 . S
C1219 C1218 1.366 . S
C1219 C1235 1.299 1_455 S
C1220 C1218 1.327 1_655 S
C1220 C1239 1.429 . S
C1220 H1244 0.962 . S
C1221 C1238 1.574 . S
C1221 C1240 1.368 . S
C1221 H1245 0.949 . S
H1222 C1226 0.949 . S
C1223 C1224 1.349 . S
C1223 C1225 1.327 . S
C1223 H1246 0.950 . S
C1224 C1223 1.349 . S
C1224 C1236 1.349 . S
C1225 C1223 1.327 . S
C1225 C1241 1.429 . S
C1225 H1247 0.950 . S
C1226 H1222 0.949 . S
C1226 C1234 1.574 . S
C1226 C1242 1.368 . S
H1227 C1235 0.950 . S
H1228 C1233 0.950 . S
H1229 C1234 0.949 . S
H1230 C1236 0.950 1_545 S
H1231 C1237 0.950 . S
H1232 C1238 0.949 . S
C1233 H1228 0.950 . S
C1233 C1235 1.327 . S
C1233 C1239 1.429 . S
C1234 C1226 1.574 . S
C1234 H1229 0.949 . S
C1234 C1240 1.368 . S
C1235 C1219 1.299 1_655 S
C1235 H1227 0.950 . S
C1235 C1233 1.327 . S
C1236 C1224 1.349 . S
C1236 H1230 0.950 1_565 S
C1236 C1237 1.327 . S
C1237 H1231 0.950 . S
C1237 C1236 1.327 . S
C1237 C1241 1.429 . S
C1238 C1221 1.574 . S
C1238 H1232 0.949 . S
C1238 C1242 1.368 . S
C1239 C1220 1.429 . S
C1239 C1233 1.429 . S
C1239 C1240 1.523 . S
C1240 C1221 1.368 . S
C1240 C1234 1.368 . S
C1240 C1239 1.523 . S
C1241 C1225 1.429 . S
C1241 C1237 1.429 . S
C1241 C1242 1.523 . S
C1242 C1226 1.368 . S
C1242 C1238 1.368 . S
C1242 C1241 1.523 . S
H1243 C1218 0.950 . S
H1244 C1220 0.962 . S
H1245 C1221 0.949 . S
H1246 C1223 0.950 . S
H1247 C1225 0.950 . S
C1248 C1249 1.349 . S
C1248 C1250 1.327 . S
C1248 H1273 0.950 . S
C1249 C1248 1.349 . S
C1249 C1265 1.349 . S
C1250 C1248 1.327 . S
C1250 C1269 1.429 . S
C1250 H1274 0.950 . S
C1251 C1268 1.574 . S
C1251 C1270 1.368 . S
C1251 H1275 0.949 . S
H1252 C1256 0.949 . S
C1253 C1254 1.349 . S
C1253 C1255 1.327 . S
C1253 H1276 0.950 . S
C1254 C1253 1.349 . S
C1254 C1266 1.349 . S
C1255 C1253 1.327 . S
C1255 C1271 1.429 . S
C1255 H1277 0.950 . S
C1256 H1252 0.949 . S
C1256 C1264 1.574 . S
C1256 C1272 1.368 . S
H1257 C1265 0.950 . S
H1258 C1263 0.950 . S
H1259 C1264 0.949 . S
H1260 C1266 0.950 . S
H1261 C1267 0.950 . S
H1262 C1268 0.949 . S
C1263 H1258 0.950 . S
C1263 C1265 1.327 . S
C1263 C1269 1.429 . S
C1264 C1256 1.574 . S
C1264 H1259 0.949 . S
C1264 C1270 1.368 . S
C1265 C1249 1.349 . S
C1265 H1257 0.950 . S
C1265 C1263 1.327 . S
C1266 C1254 1.349 . S
C1266 H1260 0.950 . S
C1266 C1267 1.327 . S
C1267 H1261 0.950 . S
C1267 C1266 1.327 . S
C1267 C1271 1.429 . S
C1268 C1251 1.574 . S
C1268 H1262 0.949 . S
C1268 C1272 1.368 . S
C1269 C1250 1.429 . S
C1269 C1263 1.429 . S
C1269 C1270 1.523 . S
C1270 C1251 1.368 . S
C1270 C1264 1.368 . S
C1270 C1269 1.523 . S
C1271 C1255 1.429 . S
C1271 C1267 1.429 . S
C1271 C1272 1.523 . S
C1272 C1256 1.368 . S
C1272 C1268 1.368 . S
C1272 C1271 1.523 . S
H1273 C1248 0.950 . S
H1274 C1250 0.950 . S
H1275 C1251 0.949 . S
H1276 C1253 0.950 . S
H1277 C1255 0.950 . S
C1278 C1279 1.349 . S
C1278 C1280 1.327 . S
C1278 H1303 0.950 . S
C1279 C1278 1.349 . S
C1279 C1295 1.349 . S
C1280 C1278 1.327 . S
C1280 C1299 1.429 . S
C1280 H1304 0.950 . S
C1281 C1298 1.574 . S
C1281 C1300 1.368 . S
C1281 H1305 0.949 . S
H1282 C1286 0.949 . S
C1283 C1284 1.349 . S
C1283 C1285 1.327 . S
C1283 H1306 0.950 . S
C1284 C1283 1.349 . S
C1284 C1296 1.349 . S
C1285 C1283 1.327 . S
C1285 C1301 1.429 . S
C1285 H1307 0.950 . S
C1286 H1282 0.949 . S
C1286 C1294 1.574 . S
C1286 C1302 1.368 . S
H1287 C1295 0.950 . S
H1288 C1293 0.950 . S
H1289 C1294 0.949 . S
H1290 C1296 0.950 . S
H1291 C1297 0.950 . S
H1292 C1298 0.949 . S
C1293 H1288 0.950 . S
C1293 C1295 1.327 . S
C1293 C1299 1.429 . S
C1294 C1286 1.574 . S
C1294 H1289 0.949 . S
C1294 C1300 1.368 . S
C1295 C1279 1.349 . S
C1295 H1287 0.950 . S
C1295 C1293 1.327 . S
C1296 C1284 1.349 . S
C1296 H1290 0.950 . S
C1296 C1297 1.327 . S
C1297 H1291 0.950 . S
C1297 C1296 1.327 . S
C1297 C1301 1.429 . S
C1298 C1281 1.574 . S
C1298 H1292 0.949 . S
C1298 C1302 1.368 . S
C1299 C1280 1.429 . S
C1299 C1293 1.429 . S
C1299 C1300 1.523 . S
C1300 C1281 1.368 . S
C1300 C1294 1.368 . S
C1300 C1299 1.523 . S
C1301 C1285 1.429 . S
C1301 C1297 1.429 . S
C1301 C1302 1.523 . S
C1302 C1286 1.368 . S
C1302 C1298 1.368 . S
C1302 C1301 1.523 . S
H1303 C1278 0.950 . S
H1304 C1280 0.950 . S
H1305 C1281 0.949 . S
H1306 C1283 0.950 . S
H1307 C1285 0.950 . S
C1308 C1309 1.349 . S
C1308 C1310 1.327 . S
C1308 H1333 0.950 . S
C1309 C1308 1.349 . S
C1309 C1325 1.349 . S
C1310 C1308 1.327 . S
C1310 C1329 1.429 . S
C1310 H1334 0.950 . S
C1311 C1328 1.574 . S
C1311 C1330 1.368 . S
C1311 H1335 0.949 . S
H1312 C1316 0.949 . S
C1313 C1314 1.349 . S
C1313 C1315 1.327 . S
C1313 H1336 0.950 . S
C1314 C1313 1.349 . S
C1314 C1326 1.349 . S
C1315 C1313 1.327 . S
C1315 C1331 1.429 . S
C1315 H1337 0.950 . S
C1316 H1312 0.949 . S
C1316 C1324 1.574 . S
C1316 C1332 1.368 . S
H1317 C1325 0.950 . S
H1318 C1323 0.950 . S
H1319 C1324 0.949 . S
H1320 C1326 0.950 . S
H1321 C1327 0.950 . S
H1322 C1328 0.949 . S
C1323 H1318 0.950 . S
C1323 C1325 1.327 . S
C1323 C1329 1.429 . S
C1324 C1316 1.574 . S
C1324 H1319 0.949 . S
C1324 C1330 1.368 . S
C1325 C1309 1.349 . S
C1325 H1317 0.950 . S
C1325 C1323 1.327 . S
C1326 C1314 1.349 . S
C1326 H1320 0.950 . S
C1326 C1327 1.327 . S
C1327 H1321 0.950 . S
C1327 C1326 1.327 . S
C1327 C1331 1.429 . S
C1328 C1311 1.574 . S
C1328 H1322 0.949 . S
C1328 C1332 1.368 . S
C1329 C1310 1.429 . S
C1329 C1323 1.429 . S
C1329 C1330 1.523 . S
C1330 C1311 1.368 . S
C1330 C1324 1.368 . S
C1330 C1329 1.523 . S
C1331 C1315 1.429 . S
C1331 C1327 1.429 . S
C1331 C1332 1.523 . S
C1332 C1316 1.368 . S
C1332 C1328 1.368 . S
C1332 C1331 1.523 . S
H1333 C1308 0.950 . S
H1334 C1310 0.950 . S
H1335 C1311 0.949 . S
H1336 C1313 0.950 . S
H1337 C1315 0.950 . S
C1338 C1339 1.349 . S
C1338 C1340 1.327 . S
C1338 H1363 0.950 . S
C1339 C1338 1.349 . S
C1339 C1355 1.349 . S
C1340 C1338 1.327 . S
C1340 C1359 1.429 . S
C1340 H1364 0.950 . S
C1341 C1358 1.574 . S
C1341 C1360 1.368 . S
C1341 H1365 0.949 . S
H1342 C1346 0.949 1_545 S
C1343 C1344 1.349 . S
C1343 C1345 1.327 . S
C1343 H1366 0.950 . S
C1344 C1343 1.349 . S
C1344 C1356 1.349 1_565 S
C1345 C1343 1.327 . S
C1345 C1361 1.429 . S
C1345 H1367 0.950 . S
C1346 H1342 0.949 1_565 S
C1346 C1354 1.574 . S
C1346 C1362 1.368 . S
H1347 C1355 0.950 . S
H1348 C1353 0.950 . S
H1349 C1354 0.925 1_545 S
H1350 C1356 0.950 . S
H1351 C1357 0.950 . S
H1352 C1358 0.949 . S
C1353 H1348 0.950 . S
C1353 C1355 1.327 . S
C1353 C1359 1.429 . S
C1354 C1346 1.574 . S
C1354 H1349 0.925 1_565 S
C1354 C1360 1.368 . S
C1355 C1339 1.349 . S
C1355 H1347 0.950 . S
C1355 C1353 1.327 . S
C1356 C1344 1.349 1_545 S
C1356 H1350 0.950 . S
C1356 C1357 1.327 . S
C1357 H1351 0.950 . S
C1357 C1356 1.327 . S
C1357 C1361 1.429 1_545 S
C1358 C1341 1.574 . S
C1358 H1352 0.949 . S
C1358 C1362 1.368 . S
C1359 C1340 1.429 . S
C1359 C1353 1.429 . S
C1359 C1360 1.523 . S
C1360 C1341 1.368 . S
C1360 C1354 1.368 . S
C1360 C1359 1.523 . S
C1361 C1345 1.429 . S
C1361 C1357 1.429 1_565 S
C1361 C1362 1.523 . S
C1362 C1346 1.368 . S
C1362 C1358 1.368 . S
C1362 C1361 1.523 . S
H1363 C1338 0.950 . S
H1364 C1340 0.950 . S
H1365 C1341 0.949 . S
H1366 C1343 0.950 . S
H1367 C1345 0.950 . S
C1368 C1369 1.349 . S
C1368 C1370 1.327 . S
C1368 H1393 0.950 . S
C1369 C1368 1.349 . S
C1369 C1385 1.349 . S
C1370 C1368 1.327 . S
C1370 C1389 1.429 . S
C1370 H1394 0.950 . S
C1371 C1388 1.574 . S
C1371 C1390 1.368 . S
C1371 H1395 0.949 . S
H1372 C1376 0.949 . S
C1373 C1374 1.349 . S
C1373 C1375 1.327 . S
C1373 H1396 0.950 . S
C1374 C1373 1.349 . S
C1374 C1386 1.349 . S
C1375 C1373 1.327 . S
C1375 C1391 1.429 . S
C1375 H1397 0.950 . S
C1376 H1372 0.949 . S
C1376 C1384 1.574 . S
C1376 C1392 1.368 . S
H1377 C1385 0.950 . S
H1378 C1383 0.950 . S
H1379 C1384 0.949 . S
H1380 C1386 0.950 . S
H1381 C1387 0.950 . S
H1382 C1388 0.949 . S
C1383 H1378 0.950 . S
C1383 C1385 1.327 . S
C1383 C1389 1.429 . S
C1384 C1376 1.574 . S
C1384 H1379 0.949 . S
C1384 C1390 1.368 . S
C1385 C1369 1.349 . S
C1385 H1377 0.950 . S
C1385 C1383 1.327 . S
C1386 C1374 1.349 . S
C1386 H1380 0.950 . S
C1386 C1387 1.327 . S
C1387 H1381 0.950 . S
C1387 C1386 1.327 . S
C1387 C1391 1.429 . S
C1388 C1371 1.574 . S
C1388 H1382 0.949 . S
C1388 C1392 1.368 . S
C1389 C1370 1.429 . S
C1389 C1383 1.429 . S
C1389 C1390 1.523 . S
C1390 C1371 1.368 . S
C1390 C1384 1.368 . S
C1390 C1389 1.523 . S
C1391 C1375 1.429 . S
C1391 C1387 1.429 . S
C1391 C1392 1.523 . S
C1392 C1376 1.368 . S
C1392 C1388 1.368 . S
C1392 C1391 1.523 . S
H1393 C1368 0.950 . S
H1394 C1370 0.950 . S
H1395 C1371 0.949 . S
H1396 C1373 0.950 . S
H1397 C1375 0.950 . S
C1398 C1399 1.349 . S
C1398 C1400 1.327 . S
C1398 H1423 0.950 . S
C1399 C1398 1.349 . S
C1399 C1415 1.349 . S
C1400 C1398 1.327 . S
C1400 C1419 1.429 . S
C1400 H1424 0.950 . S
C1401 C1418 1.574 . S
C1401 C1420 1.368 . S
C1401 H1425 0.949 . S
H1402 C1406 0.949 . S
C1403 C1404 1.349 . S
C1403 C1405 1.327 . S
C1403 H1426 0.950 . S
C1404 C1403 1.349 . S
C1404 C1416 1.349 . S
C1405 C1403 1.327 . S
C1405 C1421 1.429 . S
C1405 H1427 0.950 . S
C1406 H1402 0.949 . S
C1406 C1414 1.574 . S
C1406 C1422 1.368 . S
H1407 C1415 0.950 . S
H1408 C1413 0.950 . S
H1409 C1414 0.949 . S
H1410 C1416 0.950 . S
H1411 C1417 0.950 . S
H1412 C1418 0.949 . S
C1413 H1408 0.950 . S
C1413 C1415 1.327 . S
C1413 C1419 1.429 . S
C1414 C1406 1.574 . S
C1414 H1409 0.949 . S
C1414 C1420 1.368 . S
C1415 C1399 1.349 . S
C1415 H1407 0.950 . S
C1415 C1413 1.327 . S
C1416 C1404 1.349 . S
C1416 H1410 0.950 . S
C1416 C1417 1.327 . S
C1417 H1411 0.950 . S
C1417 C1416 1.327 . S
C1417 C1421 1.429 . S
C1418 C1401 1.574 . S
C1418 H1412 0.949 . S
C1418 C1422 1.368 . S
C1419 C1400 1.429 . S
C1419 C1413 1.429 . S
C1419 C1420 1.523 . S
C1420 C1401 1.368 . S
C1420 C1414 1.368 . S
C1420 C1419 1.523 . S
C1421 C1405 1.429 . S
C1421 C1417 1.429 . S
C1421 C1422 1.523 . S
C1422 C1406 1.368 . S
C1422 C1418 1.368 . S
C1422 C1421 1.523 . S
H1423 C1398 0.950 . S
H1424 C1400 0.950 . S
H1425 C1401 0.949 . S
H1426 C1403 0.950 . S
H1427 C1405 0.950 . S
C1428 C1429 1.349 . S
C1428 C1430 1.327 . S
C1428 H1453 0.950 . S
C1429 C1428 1.349 . S
C1429 C1445 1.349 . S
C1430 C1428 1.327 . S
C1430 C1449 1.429 . S
C1430 H1454 0.950 . S
C1431 C1448 1.574 . S
C1431 C1450 1.368 . S
C1431 H1455 0.949 . S
H1432 C1436 0.949 . S
C1433 C1434 1.349 . S
C1433 C1435 1.327 . S
C1433 H1456 0.950 . S
C1434 C1433 1.349 . S
C1434 C1446 1.349 . S
C1435 C1433 1.327 . S
C1435 C1451 1.429 . S
C1435 H1457 0.950 . S
C1436 H1432 0.949 . S
C1436 C1444 1.574 . S
C1436 C1452 1.368 . S
H1437 C1445 0.950 . S
H1438 C1443 0.950 . S
H1439 C1444 0.949 . S
H1440 C1446 0.950 . S
H1441 C1447 0.950 . S
H1442 C1448 0.949 . S
C1443 H1438 0.950 . S
C1443 C1445 1.327 . S
C1443 C1449 1.429 . S
C1444 C1436 1.574 . S
C1444 H1439 0.949 . S
C1444 C1450 1.368 . S
C1445 C1429 1.349 . S
C1445 H1437 0.950 . S
C1445 C1443 1.327 . S
C1446 C1434 1.349 . S
C1446 H1440 0.950 . S
C1446 C1447 1.327 . S
C1447 H1441 0.950 . S
C1447 C1446 1.327 . S
C1447 C1451 1.429 . S
C1448 C1431 1.574 . S
C1448 H1442 0.949 . S
C1448 C1452 1.368 . S
C1449 C1430 1.429 . S
C1449 C1443 1.429 . S
C1449 C1450 1.523 . S
C1450 C1431 1.368 . S
C1450 C1444 1.368 . S
C1450 C1449 1.523 . S
C1451 C1435 1.429 . S
C1451 C1447 1.429 . S
C1451 C1452 1.523 . S
C1452 C1436 1.368 . S
C1452 C1448 1.368 . S
C1452 C1451 1.523 . S
H1453 C1428 0.950 . S
H1454 C1430 0.950 . S
H1455 C1431 0.949 . S
H1456 C1433 0.950 . S
H1457 C1435 0.950 . S
C1458 C1459 1.349 . S
C1458 C1460 1.327 . S
C1458 H1483 0.950 . S
C1459 C1458 1.349 . S
C1459 C1475 1.349 . S
C1460 C1458 1.327 . S
C1460 C1479 1.429 . S
C1460 H1484 0.950 . S
C1461 C1478 1.574 . S
C1461 C1480 1.368 . S
C1461 H1485 0.949 . S
H1462 C1466 0.949 . S
C1463 C1464 1.349 . S
C1463 C1465 1.327 . S
C1463 H1486 0.950 . S
C1464 C1463 1.349 . S
C1464 C1476 1.349 . S
C1465 C1463 1.327 . S
C1465 C1481 1.429 . S
C1465 H1487 0.950 . S
C1466 H1462 0.949 . S
C1466 C1474 1.574 . S
C1466 C1482 1.368 . S
H1467 C1475 0.950 . S
H1468 C1473 0.950 . S
H1469 C1474 0.949 . S
H1470 C1476 0.950 . S
H1471 C1477 0.950 . S
H1472 C1478 0.949 . S
C1473 H1468 0.950 . S
C1473 C1475 1.327 . S
C1473 C1479 1.429 . S
C1474 C1466 1.574 . S
C1474 H1469 0.949 . S
C1474 C1480 1.368 . S
C1475 C1459 1.349 . S
C1475 H1467 0.950 . S
C1475 C1473 1.327 . S
C1476 C1464 1.349 . S
C1476 H1470 0.950 . S
C1476 C1477 1.327 . S
C1477 H1471 0.950 . S
C1477 C1476 1.327 . S
C1477 C1481 1.429 . S
C1478 C1461 1.574 . S
C1478 H1472 0.949 . S
C1478 C1482 1.368 . S
C1479 C1460 1.429 . S
C1479 C1473 1.429 . S
C1479 C1480 1.523 . S
C1480 C1461 1.368 . S
C1480 C1474 1.368 . S
C1480 C1479 1.523 . S
C1481 C1465 1.429 . S
C1481 C1477 1.429 . S
C1481 C1482 1.523 . S
C1482 C1466 1.368 . S
C1482 C1478 1.368 . S
C1482 C1481 1.523 . S
H1483 C1458 0.950 . S
H1484 C1460 0.950 . S
H1485 C1461 0.949 . S
H1486 C1463 0.950 . S
H1487 C1465 0.950 . S
C1488 C1489 1.349 . S
C1488 C1490 1.327 . S
C1488 H1513 0.950 . S
C1489 C1488 1.349 . S
C1489 C1505 1.349 . S
C1490 C1488 1.327 . S
C1490 C1509 1.429 . S
C1490 H1514 0.950 . S
C1491 C1508 1.574 . S
C1491 C1510 1.368 . S
C1491 H1515 0.949 . S
H1492 C1496 0.949 . S
C1493 C1494 1.349 . S
C1493 C1495 1.327 . S
C1493 H1516 0.950 . S
C1494 C1493 1.349 . S
C1494 C1506 1.349 . S
C1495 C1493 1.327 . S
C1495 C1511 1.429 . S
C1495 H1517 0.950 . S
C1496 H1492 0.949 . S
C1496 C1504 1.574 . S
C1496 C1512 1.368 . S
H1497 C1505 0.950 . S
H1498 C1503 0.950 . S
H1499 C1504 0.949 . S
H1500 C1506 0.950 . S
H1501 C1507 0.950 . S
H1502 C1508 0.949 . S
C1503 H1498 0.950 . S
C1503 C1505 1.327 . S
C1503 C1509 1.429 . S
C1504 C1496 1.574 . S
C1504 H1499 0.949 . S
C1504 C1510 1.368 . S
C1505 C1489 1.349 . S
C1505 H1497 0.950 . S
C1505 C1503 1.327 . S
C1506 C1494 1.349 . S
C1506 H1500 0.950 . S
C1506 C1507 1.327 . S
C1507 H1501 0.950 . S
C1507 C1506 1.327 . S
C1507 C1511 1.429 . S
C1508 C1491 1.574 . S
C1508 H1502 0.949 . S
C1508 C1512 1.368 . S
C1509 C1490 1.429 . S
C1509 C1503 1.429 . S
C1509 C1510 1.523 . S
C1510 C1491 1.368 . S
C1510 C1504 1.368 . S
C1510 C1509 1.523 . S
C1511 C1495 1.429 . S
C1511 C1507 1.429 . S
C1511 C1512 1.523 . S
C1512 C1496 1.368 . S
C1512 C1508 1.368 . S
C1512 C1511 1.523 . S
H1513 C1488 0.950 . S
H1514 C1490 0.950 . S
H1515 C1491 0.949 . S
H1516 C1493 0.950 . S
H1517 C1495 0.950 . S
C1518 C1519 1.349 . S
C1518 C1520 1.327 . S
C1518 H1543 0.950 . S
C1519 C1518 1.349 . S
C1519 C1535 1.349 . S
C1520 C1518 1.327 . S
C1520 C1539 1.429 . S
C1520 H1544 0.950 . S
C1521 C1538 1.574 . S
C1521 C1540 1.368 . S
C1521 H1545 0.949 . S
H1522 C1526 0.926 1_655 S
C1523 C1524 1.349 . S
C1523 C1525 1.327 . S
C1523 H1546 0.950 . S
C1524 C1523 1.349 . S
C1524 C1536 1.349 . S
C1525 C1523 1.327 . S
C1525 C1541 1.429 . S
C1525 H1547 0.950 . S
C1526 H1522 0.926 1_455 S
C1526 C1534 1.574 . S
C1526 C1542 1.368 . S
H1527 C1535 0.950 . S
H1528 C1533 0.950 . S
H1529 C1534 0.949 . S
H1530 C1536 0.950 1_655 S
H1531 C1537 0.950 1_655 S
H1532 C1538 0.949 . S
C1533 H1528 0.950 . S
C1533 C1535 1.327 . S
C1533 C1539 1.429 . S
C1534 C1526 1.574 . S
C1534 H1529 0.949 . S
C1534 C1540 1.368 . S
C1535 C1519 1.349 . S
C1535 H1527 0.950 . S
C1535 C1533 1.327 . S
C1536 C1524 1.349 . S
C1536 H1530 0.950 1_455 S
C1536 C1537 1.327 . S
C1537 H1531 0.950 1_455 S
C1537 C1536 1.327 . S
C1537 C1541 1.429 . S
C1538 C1521 1.574 . S
C1538 H1532 0.949 . S
C1538 C1542 1.368 . S
C1539 C1520 1.429 . S
C1539 C1533 1.429 . S
C1539 C1540 1.523 . S
C1540 C1521 1.368 . S
C1540 C1534 1.368 . S
C1540 C1539 1.523 . S
C1541 C1525 1.429 . S
C1541 C1537 1.429 . S
C1541 C1542 1.523 . S
C1542 C1526 1.368 . S
C1542 C1538 1.368 . S
C1542 C1541 1.523 . S
H1543 C1518 0.950 . S
H1544 C1520 0.950 . S
H1545 C1521 0.949 . S
H1546 C1523 0.950 . S
H1547 C1525 0.950 . S
C1548 C1549 1.349 . S
C1548 C1550 1.327 . S
C1548 H1573 0.950 . S
C1549 C1548 1.349 . S
C1549 C1565 1.349 . S
C1550 C1548 1.327 . S
C1550 C1569 1.429 . S
C1550 H1574 0.950 . S
C1551 C1568 1.574 . S
C1551 C1570 1.368 . S
C1551 H1575 0.949 . S
H1552 C1556 0.949 . S
C1553 C1554 1.349 . S
C1553 C1555 1.327 . S
C1553 H1576 0.950 . S
C1554 C1553 1.349 . S
C1554 C1566 1.349 . S
C1555 C1553 1.327 . S
C1555 C1571 1.429 . S
C1555 H1577 0.950 . S
C1556 H1552 0.949 . S
C1556 C1564 1.574 . S
C1556 C1572 1.368 . S
H1557 C1565 0.950 . S
H1558 C1563 0.950 . S
H1559 C1564 0.949 . S
H1560 C1566 0.950 . S
H1561 C1567 0.950 . S
H1562 C1568 0.949 . S
C1563 H1558 0.950 . S
C1563 C1565 1.327 . S
C1563 C1569 1.429 . S
C1564 C1556 1.574 . S
C1564 H1559 0.949 . S
C1564 C1570 1.368 . S
C1565 C1549 1.349 . S
C1565 H1557 0.950 . S
C1565 C1563 1.327 . S
C1566 C1554 1.349 . S
C1566 H1560 0.950 . S
C1566 C1567 1.327 . S
C1567 H1561 0.950 . S
C1567 C1566 1.327 . S
C1567 C1571 1.429 . S
C1568 C1551 1.574 . S
C1568 H1562 0.949 . S
C1568 C1572 1.368 . S
C1569 C1550 1.429 . S
C1569 C1563 1.429 . S
C1569 C1570 1.523 . S
C1570 C1551 1.368 . S
C1570 C1564 1.368 . S
C1570 C1569 1.523 . S
C1571 C1555 1.429 . S
C1571 C1567 1.429 . S
C1571 C1572 1.523 . S
C1572 C1556 1.368 . S
C1572 C1568 1.368 . S
C1572 C1571 1.523 . S
H1573 C1548 0.950 . S
H1574 C1550 0.950 . S
H1575 C1551 0.949 . S
H1576 C1553 0.950 . S
H1577 C1555 0.950 . S
C1578 C1579 1.349 . S
C1578 C1580 1.327 . S
C1578 H1603 0.950 . S
C1579 C1578 1.349 . S
C1579 C1595 1.349 . S
C1580 C1578 1.327 . S
C1580 C1599 1.429 . S
C1580 H1604 0.950 . S
C1581 C1598 1.574 . S
C1581 C1600 1.368 . S
C1581 H1605 0.949 . S
H1582 C1586 0.949 1_455 S
C1583 C1584 1.349 . S
C1583 C1585 1.327 . S
C1583 H1606 0.950 . S
C1584 C1583 1.349 . S
C1584 C1596 1.349 1_655 S
C1585 C1583 1.327 . S
C1585 C1601 1.429 . S
C1585 H1607 0.950 . S
C1586 H1582 0.949 1_655 S
C1586 C1594 1.574 . S
C1586 C1602 1.368 . S
H1587 C1595 0.950 . S
H1588 C1593 0.950 . S
H1589 C1594 0.949 1_455 S
H1590 C1596 0.950 . S
H1591 C1597 0.950 . S
H1592 C1598 0.949 . S
C1593 H1588 0.950 . S
C1593 C1595 1.327 . S
C1593 C1599 1.429 . S
C1594 C1586 1.574 . S
C1594 H1589 0.949 1_655 S
C1594 C1600 1.368 . S
C1595 C1579 1.349 . S
C1595 H1587 0.950 . S
C1595 C1593 1.327 . S
C1596 C1584 1.349 1_455 S
C1596 H1590 0.950 . S
C1596 C1597 1.327 . S
C1597 H1591 0.950 . S
C1597 C1596 1.327 . S
C1597 C1601 1.429 1_455 S
C1598 C1581 1.574 . S
C1598 H1592 0.949 . S
C1598 C1602 1.368 . S
C1599 C1580 1.429 . S
C1599 C1593 1.429 . S
C1599 C1600 1.523 . S
C1600 C1581 1.368 . S
C1600 C1594 1.368 . S
C1600 C1599 1.523 . S
C1601 C1585 1.429 . S
C1601 C1597 1.429 1_655 S
C1601 C1602 1.523 . S
C1602 C1586 1.368 . S
C1602 C1598 1.368 . S
C1602 C1601 1.523 . S
H1603 C1578 0.950 . S
H1604 C1580 0.950 . S
H1605 C1581 0.949 . S
H1606 C1583 0.950 . S
H1607 C1585 0.950 . S
C1608 C1609 1.349 . S
C1608 C1610 1.327 . S
C1608 H1633 0.950 . S
C1609 C1608 1.349 . S
C1609 C1625 1.349 . S
C1610 C1608 1.327 . S
C1610 C1629 1.429 . S
C1610 H1634 0.950 . S
C1611 C1628 1.574 . S
C1611 C1630 1.368 . S
C1611 H1635 0.949 . S
H1612 C1616 0.949 . S
C1613 C1614 1.349 . S
C1613 C1615 1.327 . S
C1613 H1636 0.950 . S
C1614 C1613 1.349 . S
C1614 C1626 1.349 . S
C1615 C1613 1.327 . S
C1615 C1631 1.429 . S
C1615 H1637 0.950 . S
C1616 H1612 0.949 . S
C1616 C1624 1.574 . S
C1616 C1632 1.368 . S
H1617 C1625 0.950 . S
H1618 C1623 0.950 . S
H1619 C1624 0.949 . S
H1620 C1626 0.950 . S
H1621 C1627 0.950 . S
H1622 C1628 0.949 . S
C1623 H1618 0.950 . S
C1623 C1625 1.327 . S
C1623 C1629 1.429 . S
C1624 C1616 1.574 . S
C1624 H1619 0.949 . S
C1624 C1630 1.368 . S
C1625 C1609 1.349 . S
C1625 H1617 0.950 . S
C1625 C1623 1.327 . S
C1626 C1614 1.349 . S
C1626 H1620 0.950 . S
C1626 C1627 1.327 . S
C1627 H1621 0.950 . S
C1627 C1626 1.327 . S
C1627 C1631 1.429 . S
C1628 C1611 1.574 . S
C1628 H1622 0.949 . S
C1628 C1632 1.368 . S
C1629 C1610 1.429 . S
C1629 C1623 1.429 . S
C1629 C1630 1.523 . S
C1630 C1611 1.368 . S
C1630 C1624 1.368 . S
C1630 C1629 1.523 . S
C1631 C1615 1.429 . S
C1631 C1627 1.429 . S
C1631 C1632 1.523 . S
C1632 C1616 1.368 . S
C1632 C1628 1.368 . S
C1632 C1631 1.523 . S
H1633 C1608 0.950 . S
H1634 C1610 0.950 . S
H1635 C1611 0.949 . S
H1636 C1613 0.950 . S
H1637 C1615 0.950 . S
C1638 C1639 1.349 . S
C1638 C1640 1.327 . S
C1638 H1663 0.950 . S
C1639 C1638 1.349 . S
C1639 C1655 1.349 . S
C1640 C1638 1.327 . S
C1640 C1659 1.429 . S
C1640 H1664 0.950 . S
C1641 C1658 1.574 . S
C1641 C1660 1.368 . S
C1641 H1665 0.949 . S
H1642 C1646 0.949 . S
C1643 C1644 1.349 . S
C1643 C1645 1.327 . S
C1643 H1666 0.950 . S
C1644 C1643 1.349 . S
C1644 C1656 1.349 . S
C1645 C1643 1.327 . S
C1645 C1661 1.429 . S
C1645 H1667 0.950 . S
C1646 H1642 0.949 . S
C1646 C1654 1.574 . S
C1646 C1662 1.368 . S
H1647 C1655 0.950 . S
H1648 C1653 0.950 . S
H1649 C1654 0.949 . S
H1650 C1656 0.950 . S
H1651 C1657 0.950 . S
H1652 C1658 0.949 . S
C1653 H1648 0.950 . S
C1653 C1655 1.327 . S
C1653 C1659 1.429 . S
C1654 C1646 1.574 . S
C1654 H1649 0.949 . S
C1654 C1660 1.368 . S
C1655 C1639 1.349 . S
C1655 H1647 0.950 . S
C1655 C1653 1.327 . S
C1656 C1644 1.349 . S
C1656 H1650 0.950 . S
C1656 C1657 1.327 . S
C1657 H1651 0.950 . S
C1657 C1656 1.327 . S
C1657 C1661 1.429 . S
C1658 C1641 1.574 . S
C1658 H1652 0.949 . S
C1658 C1662 1.368 . S
C1659 C1640 1.429 . S
C1659 C1653 1.429 . S
C1659 C1660 1.523 . S
C1660 C1641 1.368 . S
C1660 C1654 1.368 . S
C1660 C1659 1.523 . S
C1661 C1645 1.429 . S
C1661 C1657 1.429 . S
C1661 C1662 1.523 . S
C1662 C1646 1.368 . S
C1662 C1658 1.368 . S
C1662 C1661 1.523 . S
H1663 C1638 0.950 . S
H1664 C1640 0.950 . S
H1665 C1641 0.949 . S
H1666 C1643 0.950 . S
H1667 C1645 0.950 . S
C1668 C1669 1.348 . S
C1668 C1670 1.312 1_545 S
C1668 H1693 0.965 . S
C1669 C1668 1.348 . S
C1669 C1685 1.318 1_545 S
C1670 C1668 1.312 1_565 S
C1670 C1689 1.429 . S
C1670 H1694 0.950 . S
C1671 C1688 1.574 . S
C1671 C1690 1.368 . S
C1671 H1695 0.949 . S
H1672 C1676 0.949 1_554 S
C1673 C1674 1.349 . S
C1673 C1675 1.327 . S
C1673 H1696 0.950 . S
C1674 C1673 1.349 . S
C1674 C1686 1.349 1_556 S
C1675 C1673 1.327 . S
C1675 C1691 1.429 . S
C1675 H1697 0.950 . S
C1676 H1672 0.949 1_556 S
C1676 C1684 1.574 . S
C1676 C1692 1.368 . S
H1677 C1685 0.950 . S
H1678 C1683 0.950 . S
H1679 C1684 0.949 . S
H1680 C1686 0.950 . S
H1681 C1687 0.947 . S
H1682 C1688 0.949 . S
C1683 H1678 0.950 . S
C1683 C1685 1.327 . S
C1683 C1689 1.429 . S
C1684 C1676 1.574 . S
C1684 H1679 0.949 . S
C1684 C1690 1.368 . S
C1685 C1669 1.318 1_565 S
C1685 H1677 0.950 . S
C1685 C1683 1.327 . S
C1686 C1674 1.349 1_554 S
C1686 H1680 0.950 . S
C1686 C1687 1.326 . S
C1687 H1681 0.947 . S
C1687 C1686 1.326 . S
C1687 C1691 1.432 1_554 S
C1688 C1671 1.574 . S
C1688 H1682 0.949 . S
C1688 C1692 1.368 . S
C1689 C1670 1.429 . S
C1689 C1683 1.429 . S
C1689 C1690 1.523 . S
C1690 C1671 1.368 . S
C1690 C1684 1.368 . S
C1690 C1689 1.523 . S
C1691 C1675 1.429 . S
C1691 C1687 1.432 1_556 S
C1691 C1692 1.523 . S
C1692 C1676 1.368 . S
C1692 C1688 1.368 . S
C1692 C1691 1.523 . S
H1693 C1668 0.965 . S
H1694 C1670 0.950 . S
H1695 C1671 0.949 . S
H1696 C1673 0.950 . S
H1697 C1675 0.950 . S
C1698 C1699 1.349 . S
C1698 C1700 1.327 . S
C1698 H1723 0.950 . S
C1699 C1698 1.349 . S
C1699 C1715 1.349 . S
C1700 C1698 1.327 . S
C1700 C1719 1.429 . S
C1700 H1724 0.950 . S
C1701 C1718 1.574 . S
C1701 C1720 1.368 . S
C1701 H1725 0.949 . S
H1702 C1706 0.949 . S
C1703 C1704 1.349 . S
C1703 C1705 1.327 . S
C1703 H1726 0.950 . S
C1704 C1703 1.349 . S
C1704 C1716 1.349 . S
C1705 C1703 1.327 . S
C1705 C1721 1.429 . S
C1705 H1727 0.950 . S
C1706 H1702 0.949 . S
C1706 C1714 1.574 . S
C1706 C1722 1.368 . S
H1707 C1715 0.950 . S
H1708 C1713 0.950 . S
H1709 C1714 0.949 . S
H1710 C1716 0.950 . S
H1711 C1717 0.950 . S
H1712 C1718 0.949 . S
C1713 H1708 0.950 . S
C1713 C1715 1.327 . S
C1713 C1719 1.429 . S
C1714 C1706 1.574 . S
C1714 H1709 0.949 . S
C1714 C1720 1.368 . S
C1715 C1699 1.349 . S
C1715 H1707 0.950 . S
C1715 C1713 1.327 . S
C1716 C1704 1.349 . S
C1716 H1710 0.950 . S
C1716 C1717 1.327 . S
C1717 H1711 0.950 . S
C1717 C1716 1.327 . S
C1717 C1721 1.429 . S
C1718 C1701 1.574 . S
C1718 H1712 0.949 . S
C1718 C1722 1.368 . S
C1719 C1700 1.429 . S
C1719 C1713 1.429 . S
C1719 C1720 1.523 . S
C1720 C1701 1.368 . S
C1720 C1714 1.368 . S
C1720 C1719 1.523 . S
C1721 C1705 1.429 . S
C1721 C1717 1.429 . S
C1721 C1722 1.523 . S
C1722 C1706 1.368 . S
C1722 C1718 1.368 . S
C1722 C1721 1.523 . S
H1723 C1698 0.950 . S
H1724 C1700 0.950 . S
H1725 C1701 0.949 . S
H1726 C1703 0.950 . S
H1727 C1705 0.950 . S
C1728 C1729 1.349 . S
C1728 C1730 1.327 . S
C1728 H1753 0.950 . S
C1729 C1728 1.349 . S
C1729 C1745 1.349 . S
C1730 C1728 1.327 . S
C1730 C1749 1.429 . S
C1730 H1754 0.950 . S
C1731 C1748 1.574 . S
C1731 C1750 1.368 . S
C1731 H1755 0.949 . S
H1732 C1736 0.949 . S
C1733 C1734 1.349 . S
C1733 C1735 1.327 . S
C1733 H1756 0.950 . S
C1734 C1733 1.349 . S
C1734 C1746 1.349 . S
C1735 C1733 1.327 . S
C1735 C1751 1.429 . S
C1735 H1757 0.950 . S
C1736 H1732 0.949 . S
C1736 C1744 1.574 . S
C1736 C1752 1.368 . S
H1737 C1745 0.942 1_565 S
H1738 C1743 0.950 . S
H1739 C1744 0.949 . S
H1740 C1746 0.950 . S
H1741 C1747 0.950 . S
H1742 C1748 0.949 . S
C1743 H1738 0.950 . S
C1743 C1745 1.327 . S
C1743 C1749 1.429 . S
C1744 C1736 1.574 . S
C1744 H1739 0.949 . S
C1744 C1750 1.368 . S
C1745 C1729 1.349 . S
C1745 H1737 0.942 1_545 S
C1745 C1743 1.327 . S
C1746 C1734 1.349 . S
C1746 H1740 0.950 . S
C1746 C1747 1.327 . S
C1747 H1741 0.950 . S
C1747 C1746 1.327 . S
C1747 C1751 1.429 . S
C1748 C1731 1.574 . S
C1748 H1742 0.949 . S
C1748 C1752 1.368 . S
C1749 C1730 1.429 . S
C1749 C1743 1.429 . S
C1749 C1750 1.523 . S
C1750 C1731 1.368 . S
C1750 C1744 1.368 . S
C1750 C1749 1.523 . S
C1751 C1735 1.429 . S
C1751 C1747 1.429 . S
C1751 C1752 1.523 . S
C1752 C1736 1.368 . S
C1752 C1748 1.368 . S
C1752 C1751 1.523 . S
H1753 C1728 0.950 . S
H1754 C1730 0.950 . S
H1755 C1731 0.949 . S
H1756 C1733 0.950 . S
H1757 C1735 0.950 . S
C1758 C1759 1.349 . S
C1758 C1760 1.327 . S
C1758 H1783 0.950 . S
C1759 C1758 1.349 . S
C1759 C1775 1.349 . S
C1760 C1758 1.327 . S
C1760 C1779 1.429 . S
C1760 H1784 0.950 . S
C1761 C1778 1.574 . S
C1761 C1780 1.368 . S
C1761 H1785 0.949 . S
H1762 C1766 0.949 . S
C1763 C1764 1.349 . S
C1763 C1765 1.327 . S
C1763 H1786 0.950 . S
C1764 C1763 1.349 . S
C1764 C1776 1.349 . S
C1765 C1763 1.327 . S
C1765 C1781 1.429 . S
C1765 H1787 0.950 . S
C1766 H1762 0.949 . S
C1766 C1774 1.574 . S
C1766 C1782 1.368 . S
H1767 C1775 0.950 . S
H1768 C1773 0.950 . S
H1769 C1774 0.949 . S
H1770 C1776 0.950 . S
H1771 C1777 0.950 . S
H1772 C1778 0.949 . S
C1773 H1768 0.950 . S
C1773 C1775 1.327 . S
C1773 C1779 1.429 . S
C1774 C1766 1.574 . S
C1774 H1769 0.949 . S
C1774 C1780 1.368 . S
C1775 C1759 1.349 . S
C1775 H1767 0.950 . S
C1775 C1773 1.327 . S
C1776 C1764 1.349 . S
C1776 H1770 0.950 . S
C1776 C1777 1.327 . S
C1777 H1771 0.950 . S
C1777 C1776 1.327 . S
C1777 C1781 1.429 . S
C1778 C1761 1.574 . S
C1778 H1772 0.949 . S
C1778 C1782 1.368 . S
C1779 C1760 1.429 . S
C1779 C1773 1.429 . S
C1779 C1780 1.523 . S
C1780 C1761 1.368 . S
C1780 C1774 1.368 . S
C1780 C1779 1.523 . S
C1781 C1765 1.429 . S
C1781 C1777 1.429 . S
C1781 C1782 1.523 . S
C1782 C1766 1.368 . S
C1782 C1778 1.368 . S
C1782 C1781 1.523 . S
H1783 C1758 0.950 . S
H1784 C1760 0.950 . S
H1785 C1761 0.949 . S
H1786 C1763 0.950 . S
H1787 C1765 0.950 . S
C1788 C1789 1.349 . S
C1788 C1790 1.327 . S
C1788 H1813 0.950 . S
C1789 C1788 1.349 . S
C1789 C1805 1.349 . S
C1790 C1788 1.327 . S
C1790 C1809 1.429 . S
C1790 H1814 0.950 . S
C1791 C1808 1.574 . S
C1791 C1810 1.368 . S
C1791 H1815 0.949 . S
H1792 C1796 0.949 . S
C1793 C1794 1.349 . S
C1793 C1795 1.327 . S
C1793 H1816 0.950 . S
C1794 C1793 1.349 . S
C1794 C1806 1.349 . S
C1795 C1793 1.327 . S
C1795 C1811 1.429 . S
C1795 H1817 0.950 . S
C1796 H1792 0.949 . S
C1796 C1804 1.574 . S
C1796 C1812 1.368 . S
H1797 C1805 0.950 1_565 S
H1798 C1803 0.950 . S
H1799 C1804 0.949 . S
H1800 C1806 0.950 . S
H1801 C1807 0.950 . S
H1802 C1808 0.949 . S
C1803 H1798 0.950 . S
C1803 C1805 1.327 . S
C1803 C1809 1.429 . S
C1804 C1796 1.574 . S
C1804 H1799 0.949 . S
C1804 C1810 1.368 . S
C1805 C1789 1.349 . S
C1805 H1797 0.950 1_545 S
C1805 C1803 1.327 . S
C1806 C1794 1.349 . S
C1806 H1800 0.950 . S
C1806 C1807 1.327 . S
C1807 H1801 0.950 . S
C1807 C1806 1.327 . S
C1807 C1811 1.429 . S
C1808 C1791 1.574 . S
C1808 H1802 0.949 . S
C1808 C1812 1.368 . S
C1809 C1790 1.429 . S
C1809 C1803 1.429 . S
C1809 C1810 1.523 . S
C1810 C1791 1.368 . S
C1810 C1804 1.368 . S
C1810 C1809 1.523 . S
C1811 C1795 1.429 . S
C1811 C1807 1.429 . S
C1811 C1812 1.523 . S
C1812 C1796 1.368 . S
C1812 C1808 1.368 . S
C1812 C1811 1.523 . S
H1813 C1788 0.950 . S
H1814 C1790 0.950 . S
H1815 C1791 0.949 . S
H1816 C1793 0.950 . S
H1817 C1795 0.950 . S
C1818 C1819 1.349 . S
C1818 C1820 1.327 . S
C1818 H1843 0.950 . S
C1819 C1818 1.349 . S
C1819 C1835 1.349 . S
C1820 C1818 1.327 . S
C1820 C1839 1.429 . S
C1820 H1844 0.950 . S
C1821 C1838 1.574 . S
C1821 C1840 1.368 . S
C1821 H1845 0.949 . S
H1822 C1826 0.949 . S
C1823 C1824 1.349 . S
C1823 C1825 1.327 . S
C1823 H1846 0.950 . S
C1824 C1823 1.349 . S
C1824 C1836 1.349 . S
C1825 C1823 1.327 . S
C1825 C1841 1.429 . S
C1825 H1847 0.950 . S
C1826 H1822 0.949 . S
C1826 C1834 1.574 . S
C1826 C1842 1.368 . S
H1827 C1835 0.950 . S
H1828 C1833 0.950 . S
H1829 C1834 0.949 . S
H1830 C1836 0.950 . S
H1831 C1837 0.950 . S
H1832 C1838 0.949 . S
C1833 H1828 0.950 . S
C1833 C1835 1.327 . S
C1833 C1839 1.429 . S
C1834 C1826 1.574 . S
C1834 H1829 0.949 . S
C1834 C1840 1.368 . S
C1835 C1819 1.349 . S
C1835 H1827 0.950 . S
C1835 C1833 1.327 . S
C1836 C1824 1.349 . S
C1836 H1830 0.950 . S
C1836 C1837 1.327 . S
C1837 H1831 0.950 . S
C1837 C1836 1.327 . S
C1837 C1841 1.429 . S
C1838 C1821 1.574 . S
C1838 H1832 0.949 . S
C1838 C1842 1.368 . S
C1839 C1820 1.429 . S
C1839 C1833 1.429 . S
C1839 C1840 1.523 . S
C1840 C1821 1.368 . S
C1840 C1834 1.368 . S
C1840 C1839 1.523 . S
C1841 C1825 1.429 . S
C1841 C1837 1.429 . S
C1841 C1842 1.523 . S
C1842 C1826 1.368 . S
C1842 C1838 1.368 . S
C1842 C1841 1.523 . S
H1843 C1818 0.950 . S
H1844 C1820 0.950 . S
H1845 C1821 0.949 . S
H1846 C1823 0.950 . S
H1847 C1825 0.950 . S
C1848 C1849 1.349 . S
C1848 C1850 1.327 . S
C1848 H1873 0.950 . S
C1849 C1848 1.349 . S
C1849 C1865 1.349 . S
C1850 C1848 1.327 . S
C1850 C1869 1.429 . S
C1850 H1874 0.950 . S
C1851 C1868 1.574 . S
C1851 C1870 1.368 . S
C1851 H1875 0.949 . S
H1852 C1856 0.949 . S
C1853 C1854 1.349 . S
C1853 C1855 1.327 . S
C1853 H1876 0.950 . S
C1854 C1853 1.349 . S
C1854 C1866 1.349 . S
C1855 C1853 1.327 . S
C1855 C1871 1.429 . S
C1855 H1877 0.950 . S
C1856 H1852 0.949 . S
C1856 C1864 1.574 . S
C1856 C1872 1.368 . S
H1857 C1865 0.950 . S
H1858 C1863 0.950 . S
H1859 C1864 0.949 . S
H1860 C1866 0.950 . S
H1861 C1867 0.950 . S
H1862 C1868 0.949 . S
C1863 H1858 0.950 . S
C1863 C1865 1.327 . S
C1863 C1869 1.429 . S
C1864 C1856 1.574 . S
C1864 H1859 0.949 . S
C1864 C1870 1.368 . S
C1865 C1849 1.349 . S
C1865 H1857 0.950 . S
C1865 C1863 1.327 . S
C1866 C1854 1.349 . S
C1866 H1860 0.950 . S
C1866 C1867 1.327 . S
C1867 H1861 0.950 . S
C1867 C1866 1.327 . S
C1867 C1871 1.429 . S
C1868 C1851 1.574 . S
C1868 H1862 0.949 . S
C1868 C1872 1.368 . S
C1869 C1850 1.429 . S
C1869 C1863 1.429 . S
C1869 C1870 1.523 . S
C1870 C1851 1.368 . S
C1870 C1864 1.368 . S
C1870 C1869 1.523 . S
C1871 C1855 1.429 . S
C1871 C1867 1.429 . S
C1871 C1872 1.523 . S
C1872 C1856 1.368 . S
C1872 C1868 1.368 . S
C1872 C1871 1.523 . S
H1873 C1848 0.950 . S
H1874 C1850 0.950 . S
H1875 C1851 0.949 . S
H1876 C1853 0.950 . S
H1877 C1855 0.950 . S
C1878 C1879 1.349 . S
C1878 C1880 1.327 . S
C1878 H1903 0.950 . S
C1879 C1878 1.349 . S
C1879 C1895 1.349 . S
C1880 C1878 1.327 . S
C1880 C1899 1.429 . S
C1880 H1904 0.950 . S
C1881 C1898 1.574 . S
C1881 C1900 1.368 . S
C1881 H1905 0.949 . S
H1882 C1886 0.949 . S
C1883 C1884 1.349 . S
C1883 C1885 1.327 . S
C1883 H1906 0.950 . S
C1884 C1883 1.349 . S
C1884 C1896 1.349 . S
C1885 C1883 1.327 . S
C1885 C1901 1.429 . S
C1885 H1907 0.950 . S
C1886 H1882 0.949 . S
C1886 C1894 1.574 . S
C1886 C1902 1.368 . S
H1887 C1895 0.950 . S
H1888 C1893 0.950 . S
H1889 C1894 0.949 . S
H1890 C1896 0.950 . S
H1891 C1897 0.950 . S
H1892 C1898 0.949 . S
C1893 H1888 0.950 . S
C1893 C1895 1.327 . S
C1893 C1899 1.429 . S
C1894 C1886 1.574 . S
C1894 H1889 0.949 . S
C1894 C1900 1.368 . S
C1895 C1879 1.349 . S
C1895 H1887 0.950 . S
C1895 C1893 1.327 . S
C1896 C1884 1.349 . S
C1896 H1890 0.950 . S
C1896 C1897 1.327 . S
C1897 H1891 0.950 . S
C1897 C1896 1.327 . S
C1897 C1901 1.429 . S
C1898 C1881 1.574 . S
C1898 H1892 0.949 . S
C1898 C1902 1.368 . S
C1899 C1880 1.429 . S
C1899 C1893 1.429 . S
C1899 C1900 1.523 . S
C1900 C1881 1.368 . S
C1900 C1894 1.368 . S
C1900 C1899 1.523 . S
C1901 C1885 1.429 . S
C1901 C1897 1.429 . S
C1901 C1902 1.523 . S
C1902 C1886 1.368 . S
C1902 C1898 1.368 . S
C1902 C1901 1.523 . S
H1903 C1878 0.950 . S
H1904 C1880 0.950 . S
H1905 C1881 0.949 . S
H1906 C1883 0.950 . S
H1907 C1885 0.950 . S
C1908 C1909 1.349 . S
C1908 C1910 1.327 . S
C1908 H1933 0.950 . S
C1909 C1908 1.349 . S
C1909 C1925 1.349 . S
C1910 C1908 1.327 . S
C1910 C1929 1.429 . S
C1910 H1934 0.950 . S
C1911 C1928 1.574 . S
C1911 C1930 1.368 . S
C1911 H1935 0.949 . S
H1912 C1916 0.949 . S
C1913 C1914 1.349 . S
C1913 C1915 1.327 . S
C1913 H1936 0.950 . S
C1914 C1913 1.349 . S
C1914 C1926 1.349 . S
C1915 C1913 1.327 . S
C1915 C1931 1.429 . S
C1915 H1937 0.950 . S
C1916 H1912 0.949 . S
C1916 C1924 1.574 . S
C1916 C1932 1.368 . S
H1917 C1925 0.950 . S
H1918 C1923 0.950 . S
H1919 C1924 0.949 . S
H1920 C1926 0.950 . S
H1921 C1927 0.950 . S
H1922 C1928 0.949 . S
C1923 H1918 0.950 . S
C1923 C1925 1.327 . S
C1923 C1929 1.429 . S
C1924 C1916 1.574 . S
C1924 H1919 0.949 . S
C1924 C1930 1.368 . S
C1925 C1909 1.349 . S
C1925 H1917 0.950 . S
C1925 C1923 1.327 . S
C1926 C1914 1.349 . S
C1926 H1920 0.950 . S
C1926 C1927 1.327 . S
C1927 H1921 0.950 . S
C1927 C1926 1.327 . S
C1927 C1931 1.429 . S
C1928 C1911 1.574 . S
C1928 H1922 0.949 . S
C1928 C1932 1.368 . S
C1929 C1910 1.429 . S
C1929 C1923 1.429 . S
C1929 C1930 1.523 . S
C1930 C1911 1.368 . S
C1930 C1924 1.368 . S
C1930 C1929 1.523 . S
C1931 C1915 1.429 . S
C1931 C1927 1.429 . S
C1931 C1932 1.523 . S
C1932 C1916 1.368 . S
C1932 C1928 1.368 . S
C1932 C1931 1.523 . S
H1933 C1908 0.950 . S
H1934 C1910 0.950 . S
H1935 C1911 0.949 . S
H1936 C1913 0.950 . S
H1937 C1915 0.950 . S
C1938 C1939 1.349 . S
C1938 C1940 1.327 . S
C1938 H1963 0.950 . S
C1939 C1938 1.349 . S
C1939 C1955 1.349 . S
C1940 C1938 1.327 . S
C1940 C1959 1.429 . S
C1940 H1964 0.950 . S
C1941 C1958 1.574 . S
C1941 C1960 1.368 . S
C1941 H1965 0.949 . S
H1942 C1946 0.949 . S
C1943 C1944 1.349 . S
C1943 C1945 1.327 . S
C1943 H1966 0.950 . S
C1944 C1943 1.349 . S
C1944 C1956 1.349 . S
C1945 C1943 1.327 . S
C1945 C1961 1.429 . S
C1945 H1967 0.950 . S
C1946 H1942 0.949 . S
C1946 C1954 1.574 . S
C1946 C1962 1.368 . S
H1947 C1955 0.950 . S
H1948 C1953 0.950 . S
H1949 C1954 0.949 . S
H1950 C1956 0.950 . S
H1951 C1957 0.950 . S
H1952 C1958 0.949 . S
C1953 H1948 0.950 . S
C1953 C1955 1.327 . S
C1953 C1959 1.429 . S
C1954 C1946 1.574 . S
C1954 H1949 0.949 . S
C1954 C1960 1.368 . S
C1955 C1939 1.349 . S
C1955 H1947 0.950 . S
C1955 C1953 1.327 . S
C1956 C1944 1.349 . S
C1956 H1950 0.950 . S
C1956 C1957 1.327 . S
C1957 H1951 0.950 . S
C1957 C1956 1.327 . S
C1957 C1961 1.429 . S
C1958 C1941 1.574 . S
C1958 H1952 0.949 . S
C1958 C1962 1.368 . S
C1959 C1940 1.429 . S
C1959 C1953 1.429 . S
C1959 C1960 1.523 . S
C1960 C1941 1.368 . S
C1960 C1954 1.368 . S
C1960 C1959 1.523 . S
C1961 C1945 1.429 . S
C1961 C1957 1.429 . S
C1961 C1962 1.523 . S
C1962 C1946 1.368 . S
C1962 C1958 1.368 . S
C1962 C1961 1.523 . S
H1963 C1938 0.950 . S
H1964 C1940 0.950 . S
H1965 C1941 0.949 . S
H1966 C1943 0.950 . S
H1967 C1945 0.950 . S
C1968 C1969 1.349 . S
C1968 C1970 1.327 . S
C1968 H1993 0.950 . S
C1969 C1968 1.349 . S
C1969 C1985 1.349 . S
C1970 C1968 1.327 . S
C1970 C1989 1.429 . S
C1970 H1994 0.950 . S
C1971 C1988 1.574 . S
C1971 C1990 1.368 . S
C1971 H1995 0.949 . S
H1972 C1976 0.949 . S
C1973 C1974 1.349 . S
C1973 C1975 1.327 . S
C1973 H1996 0.950 . S
C1974 C1973 1.349 . S
C1974 C1986 1.349 . S
C1975 C1973 1.327 . S
C1975 C1991 1.429 . S
C1975 H1997 0.950 . S
C1976 H1972 0.949 . S
C1976 C1984 1.574 . S
C1976 C1992 1.368 . S
H1977 C1985 0.950 . S
H1978 C1983 0.950 . S
H1979 C1984 0.949 . S
H1980 C1986 0.950 . S
H1981 C1987 0.950 . S
H1982 C1988 0.949 . S
C1983 H1978 0.950 . S
C1983 C1985 1.327 . S
C1983 C1989 1.429 . S
C1984 C1976 1.574 . S
C1984 H1979 0.949 . S
C1984 C1990 1.368 . S
C1985 C1969 1.349 . S
C1985 H1977 0.950 . S
C1985 C1983 1.327 . S
C1986 C1974 1.349 . S
C1986 H1980 0.950 . S
C1986 C1987 1.327 . S
C1987 H1981 0.950 . S
C1987 C1986 1.327 . S
C1987 C1991 1.429 . S
C1988 C1971 1.574 . S
C1988 H1982 0.949 . S
C1988 C1992 1.368 . S
C1989 C1970 1.429 . S
C1989 C1983 1.429 . S
C1989 C1990 1.523 . S
C1990 C1971 1.368 . S
C1990 C1984 1.368 . S
C1990 C1989 1.523 . S
C1991 C1975 1.429 . S
C1991 C1987 1.429 . S
C1991 C1992 1.523 . S
C1992 C1976 1.368 . S
C1992 C1988 1.368 . S
C1992 C1991 1.523 . S
H1993 C1968 0.950 . S
H1994 C1970 0.950 . S
H1995 C1971 0.949 . S
H1996 C1973 0.950 . S
H1997 C1975 0.950 . S
C1998 C1999 1.349 . S
C1998 C2000 1.327 . S
C1998 H2023 0.917 1_655 S
C1999 C1998 1.349 . S
C1999 C2015 1.349 . S
C2000 C1998 1.327 . S
C2000 C2019 1.429 . S
C2000 H2024 0.950 . S
C2001 C2018 1.574 . S
C2001 C2020 1.368 . S
C2001 H2025 0.949 . S
H2002 C2006 0.949 1_565 S
C2003 C2004 1.349 . S
C2003 C2005 1.327 . S
C2003 H2026 0.950 . S
C2004 C2003 1.349 . S
C2004 C2016 1.370 . S
C2005 C2003 1.327 . S
C2005 C2021 1.429 . S
C2005 H2027 0.950 . S
C2006 H2002 0.949 1_545 S
C2006 C2014 1.574 . S
C2006 C2022 1.368 . S
H2007 C2015 0.950 . S
H2008 C2013 0.950 . S
H2009 C2014 0.993 . S
H2010 C2016 0.925 1_565 S
H2011 C2017 0.950 1_565 S
H2012 C2018 0.949 . S
C2013 H2008 0.950 . S
C2013 C2015 1.327 . S
C2013 C2019 1.429 . S
C2014 C2006 1.574 . S
C2014 H2009 0.993 . S
C2014 C2020 1.368 . S
C2015 C1999 1.349 . S
C2015 H2007 0.950 . S
C2015 C2013 1.327 . S
C2016 C2004 1.370 . S
C2016 H2010 0.925 1_545 S
C2016 C2017 1.331 . S
C2017 H2011 0.950 1_545 S
C2017 C2016 1.331 . S
C2017 C2021 1.429 . S
C2018 C2001 1.574 . S
C2018 H2012 0.949 . S
C2018 C2022 1.368 . S
C2019 C2000 1.429 . S
C2019 C2013 1.429 . S
C2019 C2020 1.523 . S
C2020 C2001 1.368 . S
C2020 C2014 1.368 . S
C2020 C2019 1.523 . S
C2021 C2005 1.429 . S
C2021 C2017 1.429 . S
C2021 C2022 1.523 . S
C2022 C2006 1.368 . S
C2022 C2018 1.368 . S
C2022 C2021 1.523 . S
H2023 C1998 0.917 1_455 S
H2024 C2000 0.950 . S
H2025 C2001 0.949 . S
H2026 C2003 0.950 . S
H2027 C2005 0.950 . S
C2028 C2029 1.349 . S
C2028 C2030 1.327 . S
C2028 H2053 0.950 . S
C2029 C2028 1.349 . S
C2029 C2045 1.349 . S
C2030 C2028 1.327 . S
C2030 C2049 1.429 . S
C2030 H2054 0.950 . S
C2031 C2048 1.574 . S
C2031 C2050 1.368 . S
C2031 H2055 0.949 . S
H2032 C2036 0.949 . S
C2033 C2034 1.349 . S
C2033 C2035 1.327 . S
C2033 H2056 0.950 . S
C2034 C2033 1.349 . S
C2034 C2046 1.349 . S
C2035 C2033 1.327 . S
C2035 C2051 1.429 . S
C2035 H2057 0.950 . S
C2036 H2032 0.949 . S
C2036 C2044 1.574 . S
C2036 C2052 1.368 . S
H2037 C2045 0.950 . S
H2038 C2043 0.950 . S
H2039 C2044 0.949 . S
H2040 C2046 0.950 . S
H2041 C2047 0.950 . S
H2042 C2048 0.949 . S
C2043 H2038 0.950 . S
C2043 C2045 1.327 . S
C2043 C2049 1.429 . S
C2044 C2036 1.574 . S
C2044 H2039 0.949 . S
C2044 C2050 1.368 . S
C2045 C2029 1.349 . S
C2045 H2037 0.950 . S
C2045 C2043 1.327 . S
C2046 C2034 1.349 . S
C2046 H2040 0.950 . S
C2046 C2047 1.327 . S
C2047 H2041 0.950 . S
C2047 C2046 1.327 . S
C2047 C2051 1.429 . S
C2048 C2031 1.574 . S
C2048 H2042 0.949 . S
C2048 C2052 1.368 . S
C2049 C2030 1.429 . S
C2049 C2043 1.429 . S
C2049 C2050 1.523 . S
C2050 C2031 1.368 . S
C2050 C2044 1.368 . S
C2050 C2049 1.523 . S
C2051 C2035 1.429 . S
C2051 C2047 1.429 . S
C2051 C2052 1.523 . S
C2052 C2036 1.368 . S
C2052 C2048 1.368 . S
C2052 C2051 1.523 . S
H2053 C2028 0.950 . S
H2054 C2030 0.950 . S
H2055 C2031 0.949 . S
H2056 C2033 0.950 . S
H2057 C2035 0.950 . S
C2058 C2059 1.349 . S
C2058 C2060 1.327 . S
C2058 H2083 0.950 . S
C2059 C2058 1.349 . S
C2059 C2075 1.349 . S
C2060 C2058 1.327 . S
C2060 C2079 1.429 . S
C2060 H2084 0.950 . S
C2061 C2078 1.574 . S
C2061 C2080 1.368 . S
C2061 H2085 0.949 . S
H2062 C2066 0.949 . S
C2063 C2064 1.349 . S
C2063 C2065 1.327 . S
C2063 H2086 0.950 . S
C2064 C2063 1.349 . S
C2064 C2076 1.349 . S
C2065 C2063 1.327 . S
C2065 C2081 1.429 . S
C2065 H2087 0.950 . S
C2066 H2062 0.949 . S
C2066 C2074 1.574 . S
C2066 C2082 1.368 . S
H2067 C2075 0.950 1_655 S
H2068 C2073 0.950 . S
H2069 C2074 0.949 . S
H2070 C2076 0.950 . S
H2071 C2077 0.950 . S
H2072 C2078 0.949 . S
C2073 H2068 0.950 . S
C2073 C2075 1.327 . S
C2073 C2079 1.429 . S
C2074 C2066 1.574 . S
C2074 H2069 0.949 . S
C2074 C2080 1.368 . S
C2075 C2059 1.349 . S
C2075 H2067 0.950 1_455 S
C2075 C2073 1.327 . S
C2076 C2064 1.349 . S
C2076 H2070 0.950 . S
C2076 C2077 1.327 . S
C2077 H2071 0.950 . S
C2077 C2076 1.327 . S
C2077 C2081 1.429 . S
C2078 C2061 1.574 . S
C2078 H2072 0.949 . S
C2078 C2082 1.368 . S
C2079 C2060 1.429 . S
C2079 C2073 1.429 . S
C2079 C2080 1.523 . S
C2080 C2061 1.368 . S
C2080 C2074 1.368 . S
C2080 C2079 1.523 . S
C2081 C2065 1.429 . S
C2081 C2077 1.429 . S
C2081 C2082 1.523 . S
C2082 C2066 1.368 . S
C2082 C2078 1.368 . S
C2082 C2081 1.523 . S
H2083 C2058 0.950 . S
H2084 C2060 0.950 . S
H2085 C2061 0.949 . S
H2086 C2063 0.950 . S
H2087 C2065 0.950 . S
C2088 C2089 1.349 . S
C2088 C2090 1.327 . S
C2088 H2113 0.950 . S
C2089 C2088 1.349 . S
C2089 C2105 1.349 . S
C2090 C2088 1.327 . S
C2090 C2109 1.429 . S
C2090 H2114 0.950 . S
C2091 C2108 1.574 . S
C2091 C2110 1.368 . S
C2091 H2115 0.949 . S
H2092 C2096 0.949 . S
C2093 C2094 1.349 . S
C2093 C2095 1.327 . S
C2093 H2116 0.950 . S
C2094 C2093 1.349 . S
C2094 C2106 1.349 . S
C2095 C2093 1.327 . S
C2095 C2111 1.429 . S
C2095 H2117 0.950 . S
C2096 H2092 0.949 . S
C2096 C2104 1.574 . S
C2096 C2112 1.368 . S
H2097 C2105 0.950 . S
H2098 C2103 0.950 . S
H2099 C2104 0.949 . S
H2100 C2106 0.950 . S
H2101 C2107 0.950 . S
H2102 C2108 0.949 . S
C2103 H2098 0.950 . S
C2103 C2105 1.327 . S
C2103 C2109 1.429 . S
C2104 C2096 1.574 . S
C2104 H2099 0.949 . S
C2104 C2110 1.368 . S
C2105 C2089 1.349 . S
C2105 H2097 0.950 . S
C2105 C2103 1.327 . S
C2106 C2094 1.349 . S
C2106 H2100 0.950 . S
C2106 C2107 1.327 . S
C2107 H2101 0.950 . S
C2107 C2106 1.327 . S
C2107 C2111 1.429 . S
C2108 C2091 1.574 . S
C2108 H2102 0.949 . S
C2108 C2112 1.368 . S
C2109 C2090 1.429 . S
C2109 C2103 1.429 . S
C2109 C2110 1.523 . S
C2110 C2091 1.368 . S
C2110 C2104 1.368 . S
C2110 C2109 1.523 . S
C2111 C2095 1.429 . S
C2111 C2107 1.429 . S
C2111 C2112 1.523 . S
C2112 C2096 1.368 . S
C2112 C2108 1.368 . S
C2112 C2111 1.523 . S
H2113 C2088 0.950 . S
H2114 C2090 0.950 . S
H2115 C2091 0.949 . S
H2116 C2093 0.950 . S
H2117 C2095 0.950 . S
C2118 C2119 1.365 . S
C2118 C2120 1.327 1_554 S
C2118 H2143 0.950 . S
C2119 C2118 1.365 . S
C2119 C2135 1.301 1_554 S
C2120 C2118 1.327 1_556 S
C2120 C2139 1.429 . S
C2120 H2144 0.950 . S
C2121 C2138 1.574 . S
C2121 C2140 1.368 . S
C2121 H2145 0.949 . S
H2122 C2126 0.949 . S
C2123 C2124 1.349 . S
C2123 C2125 1.327 . S
C2123 H2146 0.950 . S
C2124 C2123 1.349 . S
C2124 C2136 1.349 . S
C2125 C2123 1.327 . S
C2125 C2141 1.429 . S
C2125 H2147 0.950 . S
C2126 H2122 0.949 . S
C2126 C2134 1.574 . S
C2126 C2142 1.368 . S
H2127 C2135 0.950 . S
H2128 C2133 0.950 . S
H2129 C2134 0.949 . S
H2130 C2136 0.950 1_455 S
H2131 C2137 0.950 . S
H2132 C2138 0.949 . S
C2133 H2128 0.950 . S
C2133 C2135 1.327 . S
C2133 C2139 1.429 . S
C2134 C2126 1.574 . S
C2134 H2129 0.949 . S
C2134 C2140 1.368 . S
C2135 C2119 1.301 1_556 S
C2135 H2127 0.950 . S
C2135 C2133 1.327 . S
C2136 C2124 1.349 . S
C2136 H2130 0.950 1_655 S
C2136 C2137 1.327 . S
C2137 H2131 0.950 . S
C2137 C2136 1.327 . S
C2137 C2141 1.429 . S
C2138 C2121 1.574 . S
C2138 H2132 0.949 . S
C2138 C2142 1.368 . S
C2139 C2120 1.429 . S
C2139 C2133 1.429 . S
C2139 C2140 1.523 . S
C2140 C2121 1.368 . S
C2140 C2134 1.368 . S
C2140 C2139 1.523 . S
C2141 C2125 1.429 . S
C2141 C2137 1.429 . S
C2141 C2142 1.523 . S
C2142 C2126 1.368 . S
C2142 C2138 1.368 . S
C2142 C2141 1.523 . S
H2143 C2118 0.950 . S
H2144 C2120 0.950 . S
H2145 C2121 0.949 . S
H2146 C2123 0.950 . S
H2147 C2125 0.950 . S
C2148 C2149 1.349 . S
C2148 C2150 1.327 . S
C2148 H2173 0.950 . S
C2149 C2148 1.349 . S
C2149 C2165 1.349 . S
C2150 C2148 1.327 . S
C2150 C2169 1.429 . S
C2150 H2174 0.950 . S
C2151 C2168 1.574 . S
C2151 C2170 1.368 . S
C2151 H2175 0.949 . S
H2152 C2156 0.949 . S
C2153 C2154 1.349 . S
C2153 C2155 1.327 . S
C2153 H2176 0.950 . S
C2154 C2153 1.349 . S
C2154 C2166 1.349 . S
C2155 C2153 1.327 . S
C2155 C2171 1.429 . S
C2155 H2177 0.950 . S
C2156 H2152 0.949 . S
C2156 C2164 1.574 . S
C2156 C2172 1.368 . S
H2157 C2165 0.950 . S
H2158 C2163 0.950 . S
H2159 C2164 0.949 . S
H2160 C2166 0.950 . S
H2161 C2167 0.950 . S
H2162 C2168 0.949 . S
C2163 H2158 0.950 . S
C2163 C2165 1.327 . S
C2163 C2169 1.429 . S
C2164 C2156 1.574 . S
C2164 H2159 0.949 . S
C2164 C2170 1.368 . S
C2165 C2149 1.349 . S
C2165 H2157 0.950 . S
C2165 C2163 1.327 . S
C2166 C2154 1.349 . S
C2166 H2160 0.950 . S
C2166 C2167 1.327 . S
C2167 H2161 0.950 . S
C2167 C2166 1.327 . S
C2167 C2171 1.429 . S
C2168 C2151 1.574 . S
C2168 H2162 0.949 . S
C2168 C2172 1.368 . S
C2169 C2150 1.429 . S
C2169 C2163 1.429 . S
C2169 C2170 1.523 . S
C2170 C2151 1.368 . S
C2170 C2164 1.368 . S
C2170 C2169 1.523 . S
C2171 C2155 1.429 . S
C2171 C2167 1.429 . S
C2171 C2172 1.523 . S
C2172 C2156 1.368 . S
C2172 C2168 1.368 . S
C2172 C2171 1.523 . S
H2173 C2148 0.950 . S
H2174 C2150 0.950 . S
H2175 C2151 0.949 . S
H2176 C2153 0.950 . S
H2177 C2155 0.950 . S
C2178 C2179 1.349 . S
C2178 C2180 1.327 . S
C2178 H2203 0.950 1_556 S
C2179 C2178 1.349 . S
C2179 C2195 1.349 . S
C2180 C2178 1.327 . S
C2180 C2199 1.429 . S
C2180 H2204 0.950 . S
C2181 C2198 1.574 . S
C2181 C2200 1.368 . S
C2181 H2205 0.949 . S
H2182 C2186 0.949 . S
C2183 C2184 1.349 . S
C2183 C2185 1.327 . S
C2183 H2206 0.950 1_455 S
C2184 C2183 1.349 . S
C2184 C2196 1.349 . S
C2185 C2183 1.327 . S
C2185 C2201 1.429 . S
C2185 H2207 0.950 1_455 S
C2186 H2182 0.949 . S
C2186 C2194 1.574 . S
C2186 C2202 1.368 . S
H2187 C2195 0.950 . S
H2188 C2193 0.950 . S
H2189 C2194 0.949 . S
H2190 C2196 0.950 . S
H2191 C2197 0.950 . S
H2192 C2198 0.927 1_655 S
C2193 H2188 0.950 . S
C2193 C2195 1.327 . S
C2193 C2199 1.429 . S
C2194 C2186 1.574 . S
C2194 H2189 0.949 . S
C2194 C2200 1.368 . S
C2195 C2179 1.349 . S
C2195 H2187 0.950 . S
C2195 C2193 1.327 . S
C2196 C2184 1.349 . S
C2196 H2190 0.950 . S
C2196 C2197 1.327 . S
C2197 H2191 0.950 . S
C2197 C2196 1.327 . S
C2197 C2201 1.429 . S
C2198 C2181 1.574 . S
C2198 H2192 0.927 1_455 S
C2198 C2202 1.368 . S
C2199 C2180 1.429 . S
C2199 C2193 1.429 . S
C2199 C2200 1.523 . S
C2200 C2181 1.368 . S
C2200 C2194 1.368 . S
C2200 C2199 1.523 . S
C2201 C2185 1.429 . S
C2201 C2197 1.429 . S
C2201 C2202 1.523 . S
C2202 C2186 1.368 . S
C2202 C2198 1.368 . S
C2202 C2201 1.523 . S
H2203 C2178 0.950 1_554 S
H2204 C2180 0.950 . S
H2205 C2181 0.949 . S
H2206 C2183 0.950 1_655 S
H2207 C2185 0.950 1_655 S
C2208 C2209 1.349 . S
C2208 C2210 1.327 . S
C2208 H2233 0.950 . S
C2209 C2208 1.349 . S
C2209 C2225 1.349 . S
C2210 C2208 1.327 . S
C2210 C2229 1.429 . S
C2210 H2234 0.950 . S
C2211 C2228 1.574 . S
C2211 C2230 1.368 . S
C2211 H2235 0.949 . S
H2212 C2216 0.949 . S
C2213 C2214 1.349 . S
C2213 C2215 1.327 . S
C2213 H2236 0.950 . S
C2214 C2213 1.349 . S
C2214 C2226 1.349 . S
C2215 C2213 1.327 . S
C2215 C2231 1.429 . S
C2215 H2237 0.950 . S
C2216 H2212 0.949 . S
C2216 C2224 1.574 . S
C2216 C2232 1.368 . S
H2217 C2225 0.950 . S
H2218 C2223 0.950 . S
H2219 C2224 0.949 . S
H2220 C2226 0.950 . S
H2221 C2227 0.950 . S
H2222 C2228 0.949 . S
C2223 H2218 0.950 . S
C2223 C2225 1.327 . S
C2223 C2229 1.429 . S
C2224 C2216 1.574 . S
C2224 H2219 0.949 . S
C2224 C2230 1.368 . S
C2225 C2209 1.349 . S
C2225 H2217 0.950 . S
C2225 C2223 1.327 . S
C2226 C2214 1.349 . S
C2226 H2220 0.950 . S
C2226 C2227 1.327 . S
C2227 H2221 0.950 . S
C2227 C2226 1.327 . S
C2227 C2231 1.429 . S
C2228 C2211 1.574 . S
C2228 H2222 0.949 . S
C2228 C2232 1.368 . S
C2229 C2210 1.429 . S
C2229 C2223 1.429 . S
C2229 C2230 1.523 . S
C2230 C2211 1.368 . S
C2230 C2224 1.368 . S
C2230 C2229 1.523 . S
C2231 C2215 1.429 . S
C2231 C2227 1.429 . S
C2231 C2232 1.523 . S
C2232 C2216 1.368 . S
C2232 C2228 1.368 . S
C2232 C2231 1.523 . S
H2233 C2208 0.950 . S
H2234 C2210 0.950 . S
H2235 C2211 0.949 . S
H2236 C2213 0.950 . S
H2237 C2215 0.950 . S
C2238 C2239 1.349 . S
C2238 C2240 1.327 . S
C2238 H2263 0.950 . S
C2239 C2238 1.349 . S
C2239 C2255 1.349 . S
C2240 C2238 1.327 . S
C2240 C2259 1.429 . S
C2240 H2264 0.950 . S
C2241 C2258 1.574 . S
C2241 C2260 1.368 . S
C2241 H2265 0.949 . S
H2242 C2246 0.949 . S
C2243 C2244 1.349 . S
C2243 C2245 1.327 . S
C2243 H2266 0.950 . S
C2244 C2243 1.349 . S
C2244 C2256 1.349 . S
C2245 C2243 1.327 . S
C2245 C2261 1.429 . S
C2245 H2267 0.950 . S
C2246 H2242 0.949 . S
C2246 C2254 1.574 . S
C2246 C2262 1.368 . S
H2247 C2255 0.950 1_556 S
H2248 C2253 0.950 . S
H2249 C2254 0.949 . S
H2250 C2256 0.950 . S
H2251 C2257 0.950 . S
H2252 C2258 0.949 . S
C2253 H2248 0.950 . S
C2253 C2255 1.327 . S
C2253 C2259 1.429 . S
C2254 C2246 1.574 . S
C2254 H2249 0.949 . S
C2254 C2260 1.368 . S
C2255 C2239 1.349 . S
C2255 H2247 0.950 1_554 S
C2255 C2253 1.327 . S
C2256 C2244 1.349 . S
C2256 H2250 0.950 . S
C2256 C2257 1.327 . S
C2257 H2251 0.950 . S
C2257 C2256 1.327 . S
C2257 C2261 1.429 . S
C2258 C2241 1.574 . S
C2258 H2252 0.949 . S
C2258 C2262 1.368 . S
C2259 C2240 1.429 . S
C2259 C2253 1.429 . S
C2259 C2260 1.523 . S
C2260 C2241 1.368 . S
C2260 C2254 1.368 . S
C2260 C2259 1.523 . S
C2261 C2245 1.429 . S
C2261 C2257 1.429 . S
C2261 C2262 1.523 . S
C2262 C2246 1.368 . S
C2262 C2258 1.368 . S
C2262 C2261 1.523 . S
H2263 C2238 0.950 . S
H2264 C2240 0.950 . S
H2265 C2241 0.949 . S
H2266 C2243 0.950 . S
H2267 C2245 0.950 . S
C2268 C2269 1.349 . S
C2268 C2270 1.327 . S
C2268 H2293 0.950 . S
C2269 C2268 1.349 . S
C2269 C2285 1.349 . S
C2270 C2268 1.327 . S
C2270 C2289 1.429 . S
C2270 H2294 0.950 . S
C2271 C2288 1.574 . S
C2271 C2290 1.368 . S
C2271 H2295 0.949 . S
H2272 C2276 0.949 . S
C2273 C2274 1.349 . S
C2273 C2275 1.327 . S
C2273 H2296 0.950 . S
C2274 C2273 1.349 . S
C2274 C2286 1.349 . S
C2275 C2273 1.327 . S
C2275 C2291 1.429 . S
C2275 H2297 0.950 . S
C2276 H2272 0.949 . S
C2276 C2284 1.574 . S
C2276 C2292 1.368 . S
H2277 C2285 0.950 . S
H2278 C2283 0.950 . S
H2279 C2284 0.949 . S
H2280 C2286 0.950 . S
H2281 C2287 0.950 . S
H2282 C2288 0.949 . S
C2283 H2278 0.950 . S
C2283 C2285 1.327 . S
C2283 C2289 1.429 . S
C2284 C2276 1.574 . S
C2284 H2279 0.949 . S
C2284 C2290 1.368 . S
C2285 C2269 1.349 . S
C2285 H2277 0.950 . S
C2285 C2283 1.327 . S
C2286 C2274 1.349 . S
C2286 H2280 0.950 . S
C2286 C2287 1.327 . S
C2287 H2281 0.950 . S
C2287 C2286 1.327 . S
C2287 C2291 1.429 . S
C2288 C2271 1.574 . S
C2288 H2282 0.949 . S
C2288 C2292 1.368 . S
C2289 C2270 1.429 . S
C2289 C2283 1.429 . S
C2289 C2290 1.523 . S
C2290 C2271 1.368 . S
C2290 C2284 1.368 . S
C2290 C2289 1.523 . S
C2291 C2275 1.429 . S
C2291 C2287 1.429 . S
C2291 C2292 1.523 . S
C2292 C2276 1.368 . S
C2292 C2288 1.368 . S
C2292 C2291 1.523 . S
H2293 C2268 0.950 . S
H2294 C2270 0.950 . S
H2295 C2271 0.949 . S
H2296 C2273 0.950 . S
H2297 C2275 0.950 . S
C2298 C2299 1.349 . S
C2298 C2300 1.327 . S
C2298 H2323 0.950 . S
C2299 C2298 1.349 . S
C2299 C2315 1.349 . S
C2300 C2298 1.327 . S
C2300 C2319 1.429 . S
C2300 H2324 0.950 . S
C2301 C2318 1.574 . S
C2301 C2320 1.368 . S
C2301 H2325 0.949 . S
H2302 C2306 0.949 . S
C2303 C2304 1.349 . S
C2303 C2305 1.327 . S
C2303 H2326 0.950 . S
C2304 C2303 1.349 . S
C2304 C2316 1.349 . S
C2305 C2303 1.327 . S
C2305 C2321 1.429 . S
C2305 H2327 0.950 . S
C2306 H2302 0.949 . S
C2306 C2314 1.574 . S
C2306 C2322 1.368 . S
H2307 C2315 0.950 1_556 S
H2308 C2313 0.950 . S
H2309 C2314 0.949 . S
H2310 C2316 0.950 . S
H2311 C2317 0.950 . S
H2312 C2318 0.949 . S
C2313 H2308 0.950 . S
C2313 C2315 1.327 . S
C2313 C2319 1.429 . S
C2314 C2306 1.574 . S
C2314 H2309 0.949 . S
C2314 C2320 1.368 . S
C2315 C2299 1.349 . S
C2315 H2307 0.950 1_554 S
C2315 C2313 1.327 . S
C2316 C2304 1.349 . S
C2316 H2310 0.950 . S
C2316 C2317 1.327 . S
C2317 H2311 0.950 . S
C2317 C2316 1.327 . S
C2317 C2321 1.429 . S
C2318 C2301 1.574 . S
C2318 H2312 0.949 . S
C2318 C2322 1.368 . S
C2319 C2300 1.429 . S
C2319 C2313 1.429 . S
C2319 C2320 1.523 . S
C2320 C2301 1.368 . S
C2320 C2314 1.368 . S
C2320 C2319 1.523 . S
C2321 C2305 1.429 . S
C2321 C2317 1.429 . S
C2321 C2322 1.523 . S
C2322 C2306 1.368 . S
C2322 C2318 1.368 . S
C2322 C2321 1.523 . S
H2323 C2298 0.950 . S
H2324 C2300 0.950 . S
H2325 C2301 0.949 . S
H2326 C2303 0.950 . S
H2327 C2305 0.950 . S
C2328 C2329 1.349 . S
C2328 C2330 1.327 . S
C2328 H2353 0.950 . S
C2329 C2328 1.349 . S
C2329 C2345 1.349 . S
C2330 C2328 1.327 . S
C2330 C2349 1.429 . S
C2330 H2354 0.950 . S
C2331 C2348 1.574 . S
C2331 C2350 1.368 . S
C2331 H2355 0.949 . S
H2332 C2336 0.949 . S
C2333 C2334 1.349 . S
C2333 C2335 1.327 . S
C2333 H2356 0.950 . S
C2334 C2333 1.349 . S
C2334 C2346 1.349 . S
C2335 C2333 1.327 . S
C2335 C2351 1.429 . S
C2335 H2357 0.950 . S
C2336 H2332 0.949 . S
C2336 C2344 1.574 . S
C2336 C2352 1.368 . S
H2337 C2345 0.950 . S
H2338 C2343 0.950 . S
H2339 C2344 0.949 . S
H2340 C2346 0.950 . S
H2341 C2347 0.950 . S
H2342 C2348 0.949 . S
C2343 H2338 0.950 . S
C2343 C2345 1.327 . S
C2343 C2349 1.429 . S
C2344 C2336 1.574 . S
C2344 H2339 0.949 . S
C2344 C2350 1.368 . S
C2345 C2329 1.349 . S
C2345 H2337 0.950 . S
C2345 C2343 1.327 . S
C2346 C2334 1.349 . S
C2346 H2340 0.950 . S
C2346 C2347 1.327 . S
C2347 H2341 0.950 . S
C2347 C2346 1.327 . S
C2347 C2351 1.429 . S
C2348 C2331 1.574 . S
C2348 H2342 0.949 . S
C2348 C2352 1.368 . S
C2349 C2330 1.429 . S
C2349 C2343 1.429 . S
C2349 C2350 1.523 . S
C2350 C2331 1.368 . S
C2350 C2344 1.368 . S
C2350 C2349 1.523 . S
C2351 C2335 1.429 . S
C2351 C2347 1.429 . S
C2351 C2352 1.523 . S
C2352 C2336 1.368 . S
C2352 C2348 1.368 . S
C2352 C2351 1.523 . S
H2353 C2328 0.950 . S
H2354 C2330 0.950 . S
H2355 C2331 0.949 . S
H2356 C2333 0.950 . S
H2357 C2335 0.950 . S
C2358 C2359 1.349 . S
C2358 C2360 1.327 . S
C2358 H2383 0.950 . S
C2359 C2358 1.349 . S
C2359 C2375 1.349 . S
C2360 C2358 1.327 . S
C2360 C2379 1.429 . S
C2360 H2384 0.950 . S
C2361 C2378 1.574 . S
C2361 C2380 1.368 . S
C2361 H2385 0.949 . S
H2362 C2366 0.949 . S
C2363 C2364 1.349 . S
C2363 C2365 1.327 . S
C2363 H2386 0.950 . S
C2364 C2363 1.349 . S
C2364 C2376 1.349 . S
C2365 C2363 1.327 . S
C2365 C2381 1.429 . S
C2365 H2387 0.950 . S
C2366 H2362 0.949 . S
C2366 C2374 1.574 . S
C2366 C2382 1.368 . S
H2367 C2375 0.950 . S
H2368 C2373 0.950 . S
H2369 C2374 0.949 . S
H2370 C2376 0.950 . S
H2371 C2377 0.950 . S
H2372 C2378 0.949 . S
C2373 H2368 0.950 . S
C2373 C2375 1.327 . S
C2373 C2379 1.429 . S
C2374 C2366 1.574 . S
C2374 H2369 0.949 . S
C2374 C2380 1.368 . S
C2375 C2359 1.349 . S
C2375 H2367 0.950 . S
C2375 C2373 1.327 . S
C2376 C2364 1.349 . S
C2376 H2370 0.950 . S
C2376 C2377 1.327 . S
C2377 H2371 0.950 . S
C2377 C2376 1.327 . S
C2377 C2381 1.429 . S
C2378 C2361 1.574 . S
C2378 H2372 0.949 . S
C2378 C2382 1.368 . S
C2379 C2360 1.429 . S
C2379 C2373 1.429 . S
C2379 C2380 1.523 . S
C2380 C2361 1.368 . S
C2380 C2374 1.368 . S
C2380 C2379 1.523 . S
C2381 C2365 1.429 . S
C2381 C2377 1.429 . S
C2381 C2382 1.523 . S
C2382 C2366 1.368 . S
C2382 C2378 1.368 . S
C2382 C2381 1.523 . S
H2383 C2358 0.950 . S
H2384 C2360 0.950 . S
H2385 C2361 0.949 . S
H2386 C2363 0.950 . S
H2387 C2365 0.950 . S
C2388 C2389 1.349 . S
C2388 C2390 1.327 . S
C2388 H2413 0.950 . S
C2389 C2388 1.349 . S
C2389 C2405 1.349 . S
C2390 C2388 1.327 . S
C2390 C2409 1.429 . S
C2390 H2414 0.950 . S
C2391 C2408 1.574 . S
C2391 C2410 1.368 . S
C2391 H2415 0.949 . S
H2392 C2396 0.949 . S
C2393 C2394 1.349 . S
C2393 C2395 1.327 . S
C2393 H2416 0.950 . S
C2394 C2393 1.349 . S
C2394 C2406 1.349 . S
C2395 C2393 1.327 . S
C2395 C2411 1.429 . S
C2395 H2417 0.950 . S
C2396 H2392 0.949 . S
C2396 C2404 1.574 . S
C2396 C2412 1.368 . S
H2397 C2405 0.950 . S
H2398 C2403 0.950 . S
H2399 C2404 0.949 . S
H2400 C2406 0.950 . S
H2401 C2407 0.950 . S
H2402 C2408 0.949 . S
C2403 H2398 0.950 . S
C2403 C2405 1.327 . S
C2403 C2409 1.429 . S
C2404 C2396 1.574 . S
C2404 H2399 0.949 . S
C2404 C2410 1.368 . S
C2405 C2389 1.349 . S
C2405 H2397 0.950 . S
C2405 C2403 1.327 . S
C2406 C2394 1.349 . S
C2406 H2400 0.950 . S
C2406 C2407 1.327 . S
C2407 H2401 0.950 . S
C2407 C2406 1.327 . S
C2407 C2411 1.429 . S
C2408 C2391 1.574 . S
C2408 H2402 0.949 . S
C2408 C2412 1.368 . S
C2409 C2390 1.429 . S
C2409 C2403 1.429 . S
C2409 C2410 1.523 . S
C2410 C2391 1.368 . S
C2410 C2404 1.368 . S
C2410 C2409 1.523 . S
C2411 C2395 1.429 . S
C2411 C2407 1.429 . S
C2411 C2412 1.523 . S
C2412 C2396 1.368 . S
C2412 C2408 1.368 . S
C2412 C2411 1.523 . S
H2413 C2388 0.950 . S
H2414 C2390 0.950 . S
H2415 C2391 0.949 . S
H2416 C2393 0.950 . S
H2417 C2395 0.950 . S
C2418 C2419 1.349 . S
C2418 C2420 1.327 . S
C2418 H2443 0.950 . S
C2419 C2418 1.349 . S
C2419 C2435 1.349 . S
C2420 C2418 1.327 . S
C2420 C2439 1.429 . S
C2420 H2444 0.950 . S
C2421 C2438 1.574 . S
C2421 C2440 1.368 . S
C2421 H2445 0.949 . S
H2422 C2426 0.949 . S
C2423 C2424 1.349 . S
C2423 C2425 1.327 . S
C2423 H2446 0.950 . S
C2424 C2423 1.349 . S
C2424 C2436 1.349 . S
C2425 C2423 1.327 . S
C2425 C2441 1.429 . S
C2425 H2447 0.950 . S
C2426 H2422 0.949 . S
C2426 C2434 1.574 . S
C2426 C2442 1.368 . S
H2427 C2435 0.950 . S
H2428 C2433 0.950 . S
H2429 C2434 0.949 . S
H2430 C2436 0.950 . S
H2431 C2437 0.950 . S
H2432 C2438 0.949 . S
C2433 H2428 0.950 . S
C2433 C2435 1.327 . S
C2433 C2439 1.429 . S
C2434 C2426 1.574 . S
C2434 H2429 0.949 . S
C2434 C2440 1.368 . S
C2435 C2419 1.349 . S
C2435 H2427 0.950 . S
C2435 C2433 1.327 . S
C2436 C2424 1.349 . S
C2436 H2430 0.950 . S
C2436 C2437 1.327 . S
C2437 H2431 0.950 . S
C2437 C2436 1.327 . S
C2437 C2441 1.429 . S
C2438 C2421 1.574 . S
C2438 H2432 0.949 . S
C2438 C2442 1.368 . S
C2439 C2420 1.429 . S
C2439 C2433 1.429 . S
C2439 C2440 1.523 . S
C2440 C2421 1.368 . S
C2440 C2434 1.368 . S
C2440 C2439 1.523 . S
C2441 C2425 1.429 . S
C2441 C2437 1.429 . S
C2441 C2442 1.523 . S
C2442 C2426 1.368 . S
C2442 C2438 1.368 . S
C2442 C2441 1.523 . S
H2443 C2418 0.950 . S
H2444 C2420 0.950 . S
H2445 C2421 0.949 . S
H2446 C2423 0.950 . S
H2447 C2425 0.950 . S
C2448 C2449 1.349 . S
C2448 C2450 1.327 . S
C2448 H2473 0.950 . S
C2449 C2448 1.349 . S
C2449 C2465 1.349 . S
C2450 C2448 1.327 . S
C2450 C2469 1.429 . S
C2450 H2474 0.909 1_556 S
C2451 C2468 1.574 . S
C2451 C2470 1.368 . S
C2451 H2475 0.949 . S
H2452 C2456 0.954 1_554 S
C2453 C2454 1.349 . S
C2453 C2455 1.327 . S
C2453 H2476 0.950 . S
C2454 C2453 1.349 . S
C2454 C2466 1.349 1_556 S
C2455 C2453 1.327 . S
C2455 C2471 1.429 . S
C2455 H2477 0.950 . S
C2456 H2452 0.954 1_556 S
C2456 C2464 1.573 . S
C2456 C2472 1.364 . S
H2457 C2465 0.950 . S
H2458 C2463 0.950 . S
H2459 C2464 0.949 1_554 S
H2460 C2466 0.950 . S
H2461 C2467 0.950 . S
H2462 C2468 0.949 . S
C2463 H2458 0.950 . S
C2463 C2465 1.327 . S
C2463 C2469 1.429 . S
C2464 C2456 1.573 . S
C2464 H2459 0.949 1_556 S
C2464 C2470 1.368 . S
C2465 C2449 1.349 . S
C2465 H2457 0.950 . S
C2465 C2463 1.327 . S
C2466 C2454 1.349 1_554 S
C2466 H2460 0.950 . S
C2466 C2467 1.327 . S
C2467 H2461 0.950 . S
C2467 C2466 1.327 . S
C2467 C2471 1.429 1_554 S
C2468 C2451 1.574 . S
C2468 H2462 0.949 . S
C2468 C2472 1.368 . S
C2469 C2450 1.429 . S
C2469 C2463 1.429 . S
C2469 C2470 1.523 . S
C2470 C2451 1.368 . S
C2470 C2464 1.368 . S
C2470 C2469 1.523 . S
C2471 C2455 1.429 . S
C2471 C2467 1.429 1_556 S
C2471 C2472 1.523 . S
C2472 C2456 1.364 . S
C2472 C2468 1.368 . S
C2472 C2471 1.523 . S
H2473 C2448 0.950 . S
H2474 C2450 0.909 1_554 S
H2475 C2451 0.949 . S
H2476 C2453 0.950 . S
H2477 C2455 0.950 . S
C2478 C2479 1.349 . S
C2478 C2480 1.327 . S
C2478 H2503 0.950 . S
C2479 C2478 1.349 . S
C2479 C2495 1.349 . S
C2480 C2478 1.327 . S
C2480 C2499 1.429 . S
C2480 H2504 0.950 . S
C2481 C2498 1.574 . S
C2481 C2500 1.368 . S
C2481 H2505 0.949 . S
H2482 C2486 0.949 . S
C2483 C2484 1.349 . S
C2483 C2485 1.327 . S
C2483 H2506 0.950 . S
C2484 C2483 1.349 . S
C2484 C2496 1.349 . S
C2485 C2483 1.327 . S
C2485 C2501 1.429 . S
C2485 H2507 0.950 . S
C2486 H2482 0.949 . S
C2486 C2494 1.574 . S
C2486 C2502 1.368 . S
H2487 C2495 0.950 . S
H2488 C2493 0.950 . S
H2489 C2494 0.949 . S
H2490 C2496 0.950 . S
H2491 C2497 0.950 . S
H2492 C2498 0.949 . S
C2493 H2488 0.950 . S
C2493 C2495 1.327 . S
C2493 C2499 1.429 . S
C2494 C2486 1.574 . S
C2494 H2489 0.949 . S
C2494 C2500 1.368 . S
C2495 C2479 1.349 . S
C2495 H2487 0.950 . S
C2495 C2493 1.327 . S
C2496 C2484 1.349 . S
C2496 H2490 0.950 . S
C2496 C2497 1.327 . S
C2497 H2491 0.950 . S
C2497 C2496 1.327 . S
C2497 C2501 1.429 . S
C2498 C2481 1.574 . S
C2498 H2492 0.949 . S
C2498 C2502 1.368 . S
C2499 C2480 1.429 . S
C2499 C2493 1.429 . S
C2499 C2500 1.523 . S
C2500 C2481 1.368 . S
C2500 C2494 1.368 . S
C2500 C2499 1.523 . S
C2501 C2485 1.429 . S
C2501 C2497 1.429 . S
C2501 C2502 1.523 . S
C2502 C2486 1.368 . S
C2502 C2498 1.368 . S
C2502 C2501 1.523 . S
H2503 C2478 0.950 . S
H2504 C2480 0.950 . S
H2505 C2481 0.949 . S
H2506 C2483 0.950 . S
H2507 C2485 0.950 . S
C2508 C2509 1.349 . S
C2508 C2510 1.327 . S
C2508 H2533 0.950 . S
C2509 C2508 1.349 . S
C2509 C2525 1.349 . S
C2510 C2508 1.327 . S
C2510 C2529 1.429 . S
C2510 H2534 0.950 . S
C2511 C2528 1.574 . S
C2511 C2530 1.368 . S
C2511 H2535 0.949 . S
H2512 C2516 0.949 . S
C2513 C2514 1.349 . S
C2513 C2515 1.327 . S
C2513 H2536 0.950 1_554 S
C2514 C2513 1.349 . S
C2514 C2526 1.349 . S
C2515 C2513 1.327 . S
C2515 C2531 1.429 . S
C2515 H2537 0.950 . S
C2516 H2512 0.949 . S
C2516 C2524 1.574 . S
C2516 C2532 1.368 . S
H2517 C2525 0.950 . S
H2518 C2523 0.950 . S
H2519 C2524 0.949 . S
H2520 C2526 0.950 . S
H2521 C2527 0.950 . S
H2522 C2528 0.949 . S
C2523 H2518 0.950 . S
C2523 C2525 1.327 . S
C2523 C2529 1.429 . S
C2524 C2516 1.574 . S
C2524 H2519 0.949 . S
C2524 C2530 1.368 . S
C2525 C2509 1.349 . S
C2525 H2517 0.950 . S
C2525 C2523 1.327 . S
C2526 C2514 1.349 . S
C2526 H2520 0.950 . S
C2526 C2527 1.327 . S
C2527 H2521 0.950 . S
C2527 C2526 1.327 . S
C2527 C2531 1.429 . S
C2528 C2511 1.574 . S
C2528 H2522 0.949 . S
C2528 C2532 1.368 . S
C2529 C2510 1.429 . S
C2529 C2523 1.429 . S
C2529 C2530 1.523 . S
C2530 C2511 1.368 . S
C2530 C2524 1.368 . S
C2530 C2529 1.523 . S
C2531 C2515 1.429 . S
C2531 C2527 1.429 . S
C2531 C2532 1.523 . S
C2532 C2516 1.368 . S
C2532 C2528 1.368 . S
C2532 C2531 1.523 . S
H2533 C2508 0.950 . S
H2534 C2510 0.950 . S
H2535 C2511 0.949 . S
H2536 C2513 0.950 1_556 S
H2537 C2515 0.950 . S
C2538 C2539 1.349 . S
C2538 C2540 1.327 . S
C2538 H2563 0.950 1_565 S
C2539 C2538 1.349 . S
C2539 C2555 1.349 . S
C2540 C2538 1.327 . S
C2540 C2559 1.429 . S
C2540 H2564 0.950 . S
C2541 C2558 1.574 . S
C2541 C2560 1.368 . S
C2541 H2565 0.949 . S
H2542 C2546 0.949 1_556 S
C2543 C2544 1.349 . S
C2543 C2545 1.327 . S
C2543 H2566 0.950 . S
C2544 C2543 1.349 . S
C2544 C2556 1.349 . S
C2545 C2543 1.327 . S
C2545 C2561 1.429 . S
C2545 H2567 0.950 . S
C2546 H2542 0.949 1_554 S
C2546 C2554 1.574 . S
C2546 C2562 1.368 . S
H2547 C2555 0.950 . S
H2548 C2553 0.950 . S
H2549 C2554 0.949 . S
H2550 C2556 0.950 1_556 S
H2551 C2557 0.950 1_556 S
H2552 C2558 0.949 . S
C2553 H2548 0.950 . S
C2553 C2555 1.327 . S
C2553 C2559 1.429 . S
C2554 C2546 1.574 . S
C2554 H2549 0.949 . S
C2554 C2560 1.368 . S
C2555 C2539 1.349 . S
C2555 H2547 0.950 . S
C2555 C2553 1.327 . S
C2556 C2544 1.349 . S
C2556 H2550 0.950 1_554 S
C2556 C2557 1.327 . S
C2557 H2551 0.950 1_554 S
C2557 C2556 1.327 . S
C2557 C2561 1.429 . S
C2558 C2541 1.574 . S
C2558 H2552 0.949 . S
C2558 C2562 1.368 . S
C2559 C2540 1.429 . S
C2559 C2553 1.429 . S
C2559 C2560 1.523 . S
C2560 C2541 1.368 . S
C2560 C2554 1.368 . S
C2560 C2559 1.523 . S
C2561 C2545 1.429 . S
C2561 C2557 1.429 . S
C2561 C2562 1.523 . S
C2562 C2546 1.368 . S
C2562 C2558 1.368 . S
C2562 C2561 1.523 . S
H2563 C2538 0.950 1_545 S
H2564 C2540 0.950 . S
H2565 C2541 0.949 . S
H2566 C2543 0.950 . S
H2567 C2545 0.950 . S
C1134 C968 1.495 . S
C1129 C331 1.501 . S
C1164 C981 1.474 . S
C1159 C380 1.458 . S
C1189 C421 1.660 . S
C1194 C1001 1.562 . S
C1224 C1015 1.356 . S
C1219 C260 1.450 . S
C1254 C1027 1.522 . S
C1249 C620 1.499 . S
C1284 C1041 1.408 . S
C1279 C740 1.393 . S
C1309 C680 1.474 . S
C1314 C1051 1.484 . S
C1344 C1066 1.512 . S
C1339 C571 1.510 . S
C1369 C691 1.498 . S
C1374 C1080 1.495 . S
C1404 C1099 1.356 . S
C1399 C541 1.406 . S
C1429 C601 1.466 . S
C1434 C1079 1.484 . S
C1464 C1097 1.408 . S
C1459 C721 1.393 . S
C1489 C451 1.660 . S
C1494 C1113 1.562 . S
C1519 C241 1.463 . S
C1524 C1107 1.474 . S
C1549 C320 1.499 . S
C1554 C1111 1.522 . S
C1579 C391 1.510 . S
C1584 C1108 1.512 . S
C1609 C211 1.501 . S
C1614 C1010 1.495 . S
C1639 C841 1.466 . S
C1644 C1009 1.484 . S
C1674 C973 1.356 . S
C1669 C901 1.431 . S
C1704 C987 1.562 . S
C1699 C500 1.660 . S
C1729 C271 1.532 1_545 S
C1734 C1024 1.512 . S
C1764 C1069 1.522 . S
C1759 C661 1.507 . S
C1794 C1023 1.474 . S
C1789 C560 1.458 . S
C1824 C1055 1.408 . S
C1819 C751 1.393 . S
C1854 C1052 1.495 . S
C1849 C871 1.501 . S
C1879 C920 1.452 . S
C1884 C1065 1.474 . S
C1909 C481 1.660 . S
C1914 C1029 1.562 . S
C1944 C1043 1.356 . S
C1939 C800 1.411 . S
C1969 C200 1.499 . S
C1974 C999 1.522 . S
C2004 C1013 1.408 . S
C1999 C20 1.392 1_655 S
C2034 C967 1.484 . S
C2029 C80 1.474 . S
C2064 C982 1.512 . S
C2059 C151 1.511 1_455 S
C2089 C91 1.498 . S
C2094 C1094 1.495 . S
C2119 C121 1.431 . S
C2124 C1085 1.356 . S
C2149 C181 1.466 . S
C2154 C1093 1.484 . S
C2179 C1 1.392 1_556 S
C2184 C1083 1.408 . S
C2214 C1127 1.562 . S
C2209 C511 1.660 . S
C2244 C1121 1.474 . S
C2239 C781 1.463 1_554 S
C2274 C1125 1.522 . S
C2269 C860 1.499 . S
C2299 C931 1.511 1_554 S
C2304 C1122 1.512 . S
C2329 C631 1.501 . S
C2334 C1038 1.495 . S
C2364 C1037 1.484 . S
C2359 C301 1.466 . S
C2394 C1057 1.356 . S
C2389 C361 1.406 . S
C2424 C1071 1.562 . S
C2419 C440 1.660 . S
C2449 C811 1.532 . S
C2454 C996 1.512 . S
C2484 C985 1.522 . S
C2479 C61 1.507 . S
C2509 C140 1.452 . S
C2514 C995 1.474 . S
C2544 C971 1.408 . S
C2539 C31 1.392 1_565 S
