# Generated by pormake.
# Topology zzz, (3,6)-cn, num edge types: 1
# Building blocks:
#     Node 0, Type 0, BuildingBlock: MIDCAF_clean_linker_0, # of connection points: 3
#     Node 1, Type 0, BuildingBlock: MIDCAF_clean_linker_0, # of connection points: 3
#     Node 2, Type 0, BuildingBlock: MIDCAF_clean_linker_0, # of connection points: 3
#     Node 3, Type 0, BuildingBlock: MIDCAF_clean_linker_0, # of connection points: 3
#     Node 4, Type 0, BuildingBlock: MIDCAF_clean_linker_0, # of connection points: 3
#     Node 5, Type 0, BuildingBlock: MIDCAF_clean_linker_0, # of connection points: 3
#     Node 6, Type 0, BuildingBlock: MIDCAF_clean_linker_0, # of connection points: 3
#     Node 7, Type 0, BuildingBlock: MIDCAF_clean_linker_0, # of connection points: 3
#     Node 8, Type 1, BuildingBlock: HISSIN_clean_sbu_0, # of connection points: 6
#     Node 9, Type 1, BuildingBlock: HISSIN_clean_sbu_0, # of connection points: 6
#     Node 10, Type 1, BuildingBlock: HISSIN_clean_sbu_0, # of connection points: 6
#     Node 11, Type 1, BuildingBlock: HISSIN_clean_sbu_0, # of connection points: 6
#     Edge 12, Type (0, 1), BuildingBlock: CIFDUS_clean_linker_0, # of connection points: 2
#     Edge 13, Type (0, 1), BuildingBlock: CIFDUS_clean_linker_0, # of connection points: 2
#     Edge 14, Type (0, 1), BuildingBlock: CIFDUS_clean_linker_0, # of connection points: 2
#     Edge 15, Type (0, 1), BuildingBlock: CIFDUS_clean_linker_0, # of connection points: 2
#     Edge 16, Type (0, 1), BuildingBlock: CIFDUS_clean_linker_0, # of connection points: 2
#     Edge 17, Type (0, 1), BuildingBlock: CIFDUS_clean_linker_0, # of connection points: 2
#     Edge 18, Type (0, 1), BuildingBlock: CIFDUS_clean_linker_0, # of connection points: 2
#     Edge 19, Type (0, 1), BuildingBlock: CIFDUS_clean_linker_0, # of connection points: 2
#     Edge 20, Type (0, 1), BuildingBlock: CIFDUS_clean_linker_0, # of connection points: 2
#     Edge 21, Type (0, 1), BuildingBlock: CIFDUS_clean_linker_0, # of connection points: 2
#     Edge 22, Type (0, 1), BuildingBlock: CIFDUS_clean_linker_0, # of connection points: 2
#     Edge 23, Type (0, 1), BuildingBlock: CIFDUS_clean_linker_0, # of connection points: 2
#     Edge 24, Type (0, 1), BuildingBlock: CIFDUS_clean_linker_0, # of connection points: 2
#     Edge 25, Type (0, 1), BuildingBlock: CIFDUS_clean_linker_0, # of connection points: 2
#     Edge 26, Type (0, 1), BuildingBlock: CIFDUS_clean_linker_0, # of connection points: 2
#     Edge 27, Type (0, 1), BuildingBlock: CIFDUS_clean_linker_0, # of connection points: 2
#     Edge 28, Type (0, 1), BuildingBlock: CIFDUS_clean_linker_0, # of connection points: 2
#     Edge 29, Type (0, 1), BuildingBlock: CIFDUS_clean_linker_0, # of connection points: 2
#     Edge 30, Type (0, 1), BuildingBlock: CIFDUS_clean_linker_0, # of connection points: 2
#     Edge 31, Type (0, 1), BuildingBlock: CIFDUS_clean_linker_0, # of connection points: 2
#     Edge 32, Type (0, 1), BuildingBlock: CIFDUS_clean_linker_0, # of connection points: 2
#     Edge 33, Type (0, 1), BuildingBlock: CIFDUS_clean_linker_0, # of connection points: 2
#     Edge 34, Type (0, 1), BuildingBlock: CIFDUS_clean_linker_0, # of connection points: 2
#     Edge 35, Type (0, 1), BuildingBlock: CIFDUS_clean_linker_0, # of connection points: 2
# Relax obj value: 0.419
# Max RMSD: 0.231
# Mean RMSD: 0.194
data_MOF--net-zzz--node1-HISSIN_clean_sbu_0--node2-MIDCAF_clean_linker_0--edge1-CIFDUS_clean_linker_0
_symmetry_space_group_name_H-M    P1
_symmetry_Int_Tables_number       1
_symmetry_cell_setting            triclinic
loop_
_symmetry_equiv_pos_as_xyz
'x, y, z'
_cell_length_a     50.319575
_cell_length_b     50.607097
_cell_length_c     19.52731
_cell_angle_alpha  89.952141
_cell_angle_beta   91.956982
_cell_angle_gamma 91.496013
loop_
_atom_site_label
_atom_site_type_symbol
_atom_site_fract_x
_atom_site_fract_y
_atom_site_fract_z
_atom_type_partial_charge
C0 C 0.81454 0.57015 0.43515 0.0
C1 C 0.82239 0.54377 0.43996 0.0
C2 C 0.80678 0.52425 0.40462 0.0
C3 C 0.78527 0.53137 0.36071 0.0
H4 H 0.6881 0.59656 0.15516 0.0
H5 H 0.65142 0.58196 0.07937 0.0
H6 H 0.67038 0.50064 0.12142 0.0
H7 H 0.70783 0.51563 0.19697 0.0
H8 H 0.75131 0.61088 0.06102 0.0
H9 H 0.78198 0.61241 0.9675 0.0
H10 H 0.84807 0.60777 0.11426 0.0
H11 H 0.81784 0.60811 0.20654 0.0
H12 H 0.78889 0.59795 0.38607 0.0
H13 H 0.82574 0.58561 0.46256 0.0
H14 H 0.81229 0.50372 0.40725 0.0
H15 H 0.7751 0.51629 0.32958 0.0
N16 N 0.73913 0.55735 0.26934 0.0
N17 N 0.74046 0.58509 0.17225 0.0
N18 N 0.77622 0.58547 0.25093 0.0
C19 C 0.72715 0.56703 0.21056 0.0
C20 C 0.76506 0.59425 0.19154 0.0
C21 C 0.76366 0.56737 0.29044 0.0
C22 C 0.70087 0.55726 0.18228 0.0
C23 C 0.68396 0.57552 0.14994 0.0
C24 C 0.6628 0.56709 0.10632 0.0
C25 C 0.65791 0.54006 0.09318 0.0
C26 C 0.67374 0.52165 0.12933 0.0
C27 C 0.69497 0.53017 0.1736 0.0
C28 C 0.7821 0.60757 0.14094 0.0
C29 C 0.77247 0.61143 0.07334 0.0
C30 C 0.7901 0.6121 0.01956 0.0
C31 C 0.81742 0.60827 0.03279 0.0
C32 C 0.82719 0.60997 0.10113 0.0
C33 C 0.80964 0.60992 0.15477 0.0
C34 C 0.77893 0.5581 0.35201 0.0
C35 C 0.79315 0.57717 0.39195 0.0
C36 C 0.96841 0.81077 0.40907 0.0
C37 C 0.99443 0.82163 0.41264 0.0
C38 C 0.01406 0.80883 0.37552 0.0
C39 C 1.00737 0.78695 0.33276 0.0
H40 H 0.96009 0.67214 0.21139 0.0
H41 H 0.96951 0.63514 0.13659 0.0
H42 H 0.0244 0.68513 0.02684 0.0
H43 H 0.01444 0.7222 0.1017 0.0
H44 H 0.91829 0.73482 0.05413 0.0
H45 H 0.90669 0.76312 0.95774 0.0
H46 H 0.90808 0.83044 0.09454 0.0
H47 H 0.91739 0.80211 0.18983 0.0
H48 H 0.9412 0.78231 0.36291 0.0
H49 H 0.95284 0.8194 0.438 0.0
H50 H 0.03434 0.81654 0.37669 0.0
H51 H 0.0225 0.77873 0.30153 0.0
N52 N 0.98454 0.73779 0.24749 0.0
N53 N 0.9525 0.73193 0.15724 0.0
N54 N 0.94937 0.76725 0.23269 0.0
C55 C 0.97446 0.72351 0.19212 0.0
C56 C 0.93986 0.7538 0.17685 0.0
C57 C 0.9714 0.75965 0.26867 0.0
C58 C 0.98722 0.69987 0.16414 0.0
C59 C 0.97508 0.67486 0.17327 0.0
C60 C 0.98032 0.65367 0.12966 0.0
C61 C 0.9976 0.65697 0.07471 0.0
C62 C 1.01071 0.68177 0.06774 0.0
C63 C 1.0055 0.70293 0.11168 0.0
C64 C 0.92082 0.76664 0.12869 0.0
C65 C 0.9149 0.75551 0.06385 0.0
C66 C 0.90848 0.77187 1.00831 0.0
C67 C 0.909 0.79954 0.01678 0.0
C68 C 0.90872 0.8095 0.0842 0.0
C69 C 0.91437 0.79308 0.13978 0.0
C70 C 0.98091 0.77734 0.32626 0.0
C71 C 0.96179 0.78914 0.36658 0.0
C72 C 0.69498 0.99602 0.30682 0.0
C73 C 0.7006 1.00283 0.37575 0.0
C74 C 0.72772 1.0052 0.39734 0.0
C75 C 0.74831 0.99913 0.35266 0.0
H76 H 0.84372 0.94299 0.16405 0.0
H77 H 0.88026 0.9502 0.08859 0.0
H78 H 0.84749 0.02458 0.02401 0.0
H79 H 0.80975 0.01658 0.09962 0.0
H80 H 0.76736 0.91712 0.05856 0.0
H81 H 0.72812 0.89724 1.00621 0.0
H82 H 0.70023 0.87516 0.2062 0.0
H83 H 0.73904 0.89765 0.25864 0.0
H84 H 0.70999 0.98346 0.21105 0.0
H85 H 0.67458 0.99444 0.28737 0.0
H86 H 0.73301 0.0103 0.44997 0.0
H87 H 0.76866 0.99908 0.37257 0.0
N88 N 0.78415 0.98616 0.21524 0.0
N89 N 0.79032 0.94511 0.16106 0.0
N90 N 0.75414 0.95028 0.23068 0.0
C91 C 0.7989 0.9704 0.17392 0.0
C92 C 0.76822 0.93487 0.1896 0.0
C93 C 0.76159 0.97567 0.24439 0.0
C94 C 0.8238 0.97933 0.13917 0.0
C95 C 0.84448 0.96125 0.13506 0.0
C96 C 0.86568 0.96547 0.09133 0.0
C97 C 0.86735 0.98811 0.04943 0.0
C98 C 0.84702 0.00678 0.05475 0.0
C99 C 0.82556 1.00248 0.09919 0.0
C100 C 0.75524 0.91047 0.16254 0.0
C101 C 0.75342 0.90704 0.09138 0.0
C102 C 0.73043 0.89548 0.06121 0.0
C103 C 0.70919 0.88708 0.10229 0.0
C104 C 0.71488 0.88376 0.17294 0.0
C105 C 0.73743 0.89623 0.20328 0.0
C106 C 0.74238 0.99097 0.28483 0.0
C107 C 0.71543 0.99021 0.26242 0.0
C108 C 0.41794 0.70659 0.12922 0.0
C109 C 0.40668 0.71815 0.06972 0.0
C110 C 0.41096 0.74542 0.05924 0.0
C111 C 0.42889 0.75984 0.10191 0.0
H112 H 0.47894 0.83909 0.18385 0.0
H113 H 0.48489 0.87419 0.09983 0.0
H114 H 0.55116 0.83351 0.01836 0.0
H115 H 0.54519 0.79818 0.10382 0.0
H116 H 0.49344 0.75314 0.39645 0.0
H117 H 0.50446 0.71724 0.47528 0.0
H118 H 0.55424 0.68391 0.3232 0.0
H119 H 0.54376 0.72049 0.24584 0.0
H120 H 0.44528 0.71082 0.21445 0.0
H121 H 0.41537 0.68568 0.13952 0.0
H122 H 0.402 0.75521 0.01522 0.0
H123 H 0.43334 0.78028 0.08924 0.0
N124 N 0.47743 0.78221 0.16257 0.0
N125 N 0.51585 0.77828 0.23404 0.0
N126 N 0.48048 0.74695 0.23909 0.0
C127 C 0.50173 0.79168 0.18447 0.0
C128 C 0.50474 0.75596 0.26226 0.0
C129 C 0.46671 0.75982 0.18913 0.0
C130 C 0.51178 0.81606 0.15097 0.0
C131 C 0.49549 0.83817 0.14992 0.0
C132 C 0.4987 0.85811 0.10112 0.0
C133 C 0.51815 0.85641 0.05142 0.0
C134 C 0.53601 0.83542 0.05599 0.0
C135 C 0.53277 0.81532 0.10528 0.0
C136 C 0.51834 0.74001 0.31579 0.0
C137 C 0.5077 0.73875 0.3813 0.0
C138 C 0.51359 0.7178 0.42588 0.0
C139 C 0.52992 0.69719 0.4056 0.0
C140 C 0.54182 0.69939 0.34133 0.0
C141 C 0.53603 0.72052 0.29695 0.0
C142 C 0.44257 0.74731 0.15637 0.0
C143 C 0.43551 0.72105 0.17225 0.0
C144 C 0.22623 0.46382 0.8903 0.0
C145 C 0.21721 0.48991 0.88784 0.0
C146 C 0.23207 0.50946 0.92526 0.0
C147 C 0.25401 0.50267 0.96787 0.0
H148 H 0.316 0.5033 0.22593 0.0
H149 H 0.35499 0.51244 0.30071 0.0
H150 H 0.40461 0.47519 0.155 0.0
H151 H 0.36517 0.466 0.07984 0.0
H152 H 0.29245 0.4248 0.26532 0.0
H153 H 0.26288 0.42296 0.3611 0.0
H154 H 0.19535 0.42836 0.2187 0.0
H155 H 0.22448 0.42804 0.12461 0.0
H156 H 0.25301 0.43646 0.93736 0.0
H157 H 0.21593 0.4483 0.86101 0.0
H158 H 0.22579 0.52976 0.92514 0.0
H159 H 0.26365 0.51776 1.00003 0.0
N160 N 0.30129 0.47913 0.05579 0.0
N161 N 0.30097 0.45309 0.15591 0.0
N162 N 0.26601 0.44885 0.07514 0.0
C163 C 0.31334 0.4713 0.11623 0.0
C164 C 0.27733 0.44174 0.13601 0.0
C165 C 0.27762 0.46725 0.03454 0.0
C166 C 0.33762 0.4844 0.14648 0.0
C167 C 0.3354 0.49804 0.20855 0.0
C168 C 0.35769 0.50289 0.25189 0.0
C169 C 0.38287 0.49413 0.2345 0.0
C170 C 0.38551 0.48225 0.16987 0.0
C171 C 0.36301 0.47723 0.12643 0.0
C172 C 0.26086 0.42832 0.18765 0.0
C173 C 0.27118 0.42437 0.25458 0.0
C174 C 0.25416 0.42364 0.3097 0.0
C175 C 0.22675 0.42759 0.29857 0.0
C176 C 0.2163 0.42608 0.2307 0.0
C177 C 0.23323 0.4261 0.17577 0.0
C178 C 0.26149 0.47621 0.97416 0.0
C179 C 0.24787 0.45707 0.93318 0.0
C180 C 0.02352 0.20294 1.00788 0.0
C181 C 0.03908 0.19534 0.95263 0.0
C182 C 0.0601 0.21249 0.93406 0.0
C183 C 0.06672 0.23522 0.97283 0.0
H184 H 0.09665 0.33619 0.21543 0.0
H185 H 0.08308 0.37042 0.29185 0.0
H186 H 1.00145 0.34235 0.26825 0.0
H187 H 0.01558 0.30693 0.19224 0.0
H188 H 0.12703 0.27935 0.28407 0.0
H189 H 0.13917 0.24764 0.3724 0.0
H190 H 0.13697 0.18549 0.22095 0.0
H191 H 0.12564 0.21704 0.13267 0.0
H192 H 0.01901 0.22997 0.09166 0.0
H193 H 1.00697 0.19048 0.02339 0.0
H194 H 0.07274 0.20738 0.89256 0.0
H195 H 0.08442 0.24666 0.96049 0.0
N196 N 0.05416 0.28088 0.11181 0.0
N197 N 0.09139 0.28581 0.18773 0.0
N198 N 0.08927 0.25097 0.10987 0.0
C199 C 0.06773 0.2948 0.16305 0.0
C200 C 0.10226 0.2639 0.16211 0.0
C201 C 0.06555 0.25914 0.08393 0.0
C202 C 0.05726 0.31864 0.19743 0.0
C203 C 0.07567 0.33745 0.22543 0.0
C204 C 0.06779 0.35737 0.26934 0.0
C205 C 0.04107 0.35945 0.28708 0.0
C206 C 0.02228 0.34132 0.25672 0.0
C207 C 0.03027 0.3212 0.2122 0.0
C208 C 0.12328 0.25022 0.20243 0.0
C209 C 0.13055 0.2592 0.2688 0.0
C210 C 0.13766 0.24101 0.31963 0.0
C211 C 0.13709 0.21385 0.30432 0.0
C212 C 0.1366 0.20617 0.2351 0.0
C213 C 0.12975 0.22436 0.18417 0.0
C214 C 0.05232 0.24183 0.03067 0.0
C215 C 0.03005 0.22591 0.04635 0.0
C216 C 0.32709 0.00953 1.00252 0.0
C217 C 0.33863 0.02792 0.95682 0.0
C218 C 0.32708 0.05278 0.9506 0.0
C219 C 0.30581 0.05967 0.991 0.0
H220 H 0.2036 0.02166 0.14731 0.0
H221 H 0.16521 0.01072 0.21782 0.0
H222 H 0.20519 0.04913 0.39145 0.0
H223 H 0.2432 0.05886 0.3226 0.0
H224 H 0.28162 0.10388 0.30544 0.0
H225 H 0.32291 0.12074 0.3548 0.0
H226 H 0.34667 0.14793 0.15537 0.0
H227 H 0.30545 0.12926 0.10522 0.0
H228 H 0.29896 1.00285 0.08262 0.0
H229 H 0.33539 0.9901 1.00848 0.0
H230 H 0.33494 0.06729 0.91527 0.0
H231 H 0.29844 0.07953 0.98612 0.0
N232 N 0.25956 0.04084 0.13135 0.0
N233 N 0.25736 0.07778 0.20483 0.0
N234 N 0.28723 0.07854 0.11657 0.0
C235 C 0.24812 0.0533 0.18567 0.0
C236 C 0.27662 0.09063 0.17033 0.0
C237 C 0.27936 0.0539 0.09625 0.0
C238 C 0.22669 0.04118 0.22878 0.0
C239 C 0.20443 0.02701 0.20103 0.0
C240 C 0.18217 0.02114 0.24158 0.0
C241 C 0.18154 0.02921 0.31111 0.0
C242 C 0.20451 0.04216 0.33904 0.0
C243 C 0.22651 0.04794 0.29889 0.0
C244 C 0.29126 0.11359 0.20097 0.0
C245 C 0.29501 0.11458 0.27239 0.0
C246 C 0.31905 0.12448 0.30088 0.0
C247 C 0.33937 0.1336 0.25796 0.0
C248 C 0.33226 0.13922 0.18922 0.0
C249 C 0.30848 0.12872 0.16041 0.0
C250 C 0.29542 0.04222 0.04053 0.0
C251 C 0.3059 0.01667 0.04441 0.0
C252 C 0.62678 0.31126 0.23938 0.0
C253 C 0.6338 0.30213 0.30543 0.0
C254 C 0.62417 0.27712 0.32586 0.0
C255 C 0.60535 0.26317 0.28479 0.0
H256 H 0.52026 0.18559 0.1542 0.0
H257 H 0.5085 0.14871 0.22948 0.0
H258 H 0.50099 0.20351 0.39706 0.0
H259 H 0.51392 0.23989 0.32212 0.0
H260 H 0.4946 0.30196 0.11186 0.0
H261 H 0.48452 0.33755 0.03203 0.0
H262 H 0.54247 0.30798 0.89432 0.0
H263 H 0.55374 0.27379 0.97764 0.0
H264 H 0.60164 0.30598 0.14994 0.0
H265 H 0.63373 0.33046 0.22186 0.0
H266 H 0.62963 0.26929 0.37588 0.0
H267 H 0.59688 0.2449 0.30441 0.0
N268 N 0.5567 0.24388 0.21899 0.0
N269 N 0.52137 0.24901 0.13822 0.0
N270 N 0.56047 0.27544 0.13233 0.0
C271 C 0.53217 0.23636 0.19412 0.0
C272 C 0.53585 0.26852 0.10676 0.0
C273 C 0.57107 0.26328 0.18841 0.0
C274 C 0.5176 0.21558 0.23213 0.0
C275 C 0.51518 0.18971 0.20652 0.0
C276 C 0.50855 0.16857 0.25005 0.0
C277 C 0.50415 0.17288 0.32018 0.0
C278 C 0.50486 0.19915 0.34411 0.0
C279 C 0.5118 0.22014 0.30087 0.0
C280 C 0.5246 0.28485 0.05041 0.0
C281 C 0.50456 0.30271 0.06354 0.0
C282 C 0.49887 0.32325 0.01734 0.0
C283 C 0.51279 0.32625 0.95595 0.0
C284 C 0.53174 0.30714 0.94137 0.0
C285 C 0.53787 0.28707 0.9885 0.0
C286 C 0.59588 0.27394 0.2224 0.0
C287 C 0.60806 0.29729 0.19823 0.0
Eu288 Eu 1.00132 0.02693 0.60751 0.0
Eu289 Eu 0.03576 0.9979 0.72425 0.0
C290 C 0.03072 0.06122 0.72655 0.0
C291 C 0.9911 0.0811 0.48875 0.0
C292 C 0.9936 0.10348 0.53154 0.0
C293 C 0.02335 0.10134 0.41363 0.0
C294 C 0.01161 0.12397 0.51709 0.0
C295 C 1.00532 0.08081 0.42807 0.0
C296 C 0.02737 0.12262 0.45934 0.0
C297 C 0.97896 0.05626 0.51464 0.0
O298 O 0.99315 0.98972 0.75422 0.0
O299 O 0.97352 0.02382 0.69724 0.0
C300 C 0.97323 1.0058 0.7459 0.0
O301 O 0.98864 0.98408 0.59213 0.0
O302 O 0.04589 0.99156 0.83254 0.0
O303 O 0.06486 0.96853 0.75603 0.0
O304 O 0.02554 0.96638 0.64356 0.0
C305 C 1.00425 0.96394 0.60287 0.0
O306 O 0.04087 0.01834 0.55924 0.0
O307 O 0.06729 0.01591 0.6563 0.0
O308 O 0.03159 0.03974 0.76422 0.0
O309 O 0.9913 0.03475 0.49973 0.0
O310 O 0.97224 0.05651 0.57856 0.0
O311 O 0.0262 0.05936 0.66017 0.0
C312 C 0.04375 0.94574 0.84582 0.0
C313 C 0.03419 0.92613 0.79944 0.0
C314 C 0.01282 0.92888 0.92924 0.0
C315 C 0.01338 0.90896 0.81663 0.0
C316 C 0.03367 0.94615 0.91196 0.0
C317 C 1.00178 0.91082 0.88074 0.0
C318 C 0.05758 0.96953 0.81949 0.0
C319 C 0.06471 0.01818 0.58914 0.0
H320 H 0.983 0.10447 0.57879 0.0
H321 H 0.03472 0.10017 0.36766 0.0
H322 H 0.01418 0.14016 0.55316 0.0
H323 H 1.00378 0.06391 0.39399 0.0
H324 H 0.04124 0.92531 0.74771 0.0
H325 H 1.00476 0.93029 0.97979 0.0
H326 H 1.00538 0.8953 0.77805 0.0
H327 H 0.04047 0.96118 0.94845 0.0
Eu328 Eu 0.54154 0.02867 0.73506 0.0
Eu329 Eu 0.50542 0.99515 0.6247 0.0
C330 C 0.53089 0.96587 0.75539 0.0
C331 C 0.58905 0.02769 0.87724 0.0
C332 C 0.57581 0.01013 0.92149 0.0
C333 C 0.62805 1.00047 0.88695 0.0
C334 C 0.58818 0.9874 0.94561 0.0
C335 C 0.61577 0.02331 0.86325 0.0
C336 C 0.61396 0.98176 0.92581 0.0
C337 C 0.57359 0.04575 0.83264 0.0
O338 O 0.47364 0.01094 0.69236 0.0
O339 O 0.50024 0.02816 0.78019 0.0
C340 C 0.47655 0.02139 0.75388 0.0
O341 O 0.52553 0.06209 0.67159 0.0
O342 O 0.47044 0.97235 0.58683 0.0
O343 O 0.50268 0.98051 0.51949 0.0
O344 O 0.50702 0.03711 0.58303 0.0
C345 C 0.51424 0.06014 0.61003 0.0
O346 O 0.56671 0.02546 0.64086 0.0
O347 O 0.54865 0.98613 0.60467 0.0
O348 O 0.51026 0.96637 0.7125 0.0
O349 O 0.58007 0.0459 0.76857 0.0
O350 O 0.54786 0.04465 0.83851 0.0
O351 O 0.54845 0.98547 0.75791 0.0
C352 C 0.45971 0.99098 0.47865 0.0
C353 C 0.47036 1.00492 0.42303 0.0
C354 C 0.42226 0.02033 0.47559 0.0
C355 C 0.45791 0.02732 0.39696 0.0
C356 C 0.43464 0.99794 0.50152 0.0
C357 C 0.43452 0.0361 0.42582 0.0
C358 C 0.47734 0.9749 0.52329 0.0
C359 C 0.56808 1.00405 0.60332 0.0
H360 H 0.5552 0.01281 0.93351 0.0
H361 H 0.6483 0.99701 0.87284 0.0
H362 H 0.57696 0.97346 0.97614 0.0
H363 H 0.62652 0.03648 0.82958 0.0
H364 H 0.48949 0.99992 0.40355 0.0
H365 H 0.40358 0.02592 0.49666 0.0
H366 H 0.46759 0.03868 0.35753 0.0
H367 H 0.42558 0.9874 0.54342 0.0
Eu368 Eu 0.48989 0.51548 0.71497 0.0
Eu369 Eu 0.5426 0.5043 0.62693 0.0
C370 C 0.54816 0.52271 0.78499 0.0
C371 C 0.43191 0.54742 0.80269 0.0
C372 C 0.44444 0.57243 0.80448 0.0
C373 C 0.39298 0.56569 0.85306 0.0
C374 C 0.43151 0.59389 0.83157 0.0
C375 C 0.40602 0.54418 0.82609 0.0
C376 C 0.40573 0.59073 0.85695 0.0
C377 C 0.44575 0.5246 0.7769 0.0
O378 O 0.53163 0.464 0.67088 0.0
O379 O 0.5021 0.47538 0.75291 0.0
C380 C 0.51735 0.4581 0.7245 0.0
O381 O 0.47806 0.48916 0.62568 0.0
O382 O 0.58506 0.50897 0.60843 0.0
O383 O 0.55927 0.48672 0.53696 0.0
O384 O 0.50704 0.50734 0.55241 0.0
C385 C 0.48397 0.49571 0.56309 0.0
O386 O 0.49561 0.55206 0.64924 0.0
O387 O 0.53936 0.54871 0.62145 0.0
O388 O 0.55685 0.5068 0.738 0.0
O389 O 0.4475 0.52334 0.71059 0.0
O390 O 0.46803 0.51884 0.80898 0.0
O391 O 0.5246 0.53332 0.77772 0.0
C392 C 0.60273 0.47231 0.55193 0.0
C393 C 0.60644 0.45505 0.6075 0.0
C394 C 0.6275 0.44326 0.48081 0.0
C395 C 0.62001 0.43155 0.59908 0.0
C396 C 0.61423 0.46681 0.48954 0.0
C397 C 0.62958 0.42477 0.5346 0.0
C398 C 0.58369 0.49368 0.55457 0.0
C399 C 0.51745 0.56224 0.6234 0.0
H400 H 0.46443 0.57522 0.78626 0.0
H401 H 0.37311 0.56265 0.87174 0.0
H402 H 0.44218 0.61273 0.83504 0.0
H403 H 0.39604 0.52495 0.82438 0.0
H404 H 0.59757 0.45899 0.65612 0.0
H405 H 0.63412 0.43874 0.43008 0.0
H406 H 0.6216 0.41803 0.64192 0.0
H407 H 0.61136 0.47986 0.44603 0.0
Eu408 Eu 0.03507 0.53875 0.61302 0.0
Eu409 Eu 1.00626 0.49509 0.70821 0.0
C410 C 0.06947 0.50311 0.71899 0.0
C411 C 0.08853 0.55957 0.50471 0.0
C412 C 0.10854 0.54892 0.54788 0.0
C413 C 0.10704 0.53722 0.4081 0.0
C414 C 0.12662 0.53141 0.52197 0.0
C415 C 0.089 0.55484 0.43397 0.0
C416 C 0.12502 0.52428 0.45253 0.0
C417 C 0.06364 0.56828 0.53425 0.0
O418 O 0.01198 0.53247 0.77325 0.0
O419 O 0.01488 0.56395 0.68977 0.0
C420 C 0.01145 0.5574 0.75401 0.0
O421 O 0.99272 0.53743 0.5706 0.0
O422 O 1.00261 0.47747 0.8097 0.0
O423 O 0.9766 0.46379 0.72611 0.0
O424 O 0.97181 0.51708 0.65966 0.0
C425 C 0.97091 0.52986 0.60109 0.0
O426 O 0.04404 0.4991 0.56634 0.0
O427 O 1.01066 0.47291 0.60828 0.0
O428 O 0.04987 0.48541 0.71732 0.0
O429 O 0.04249 0.55506 0.51191 0.0
O430 O 0.06392 0.57134 0.60069 0.0
O431 O 0.06595 0.52684 0.69367 0.0
C432 C 0.95683 0.47631 0.82877 0.0
C433 C 0.93413 0.48421 0.79071 0.0
C434 C 0.94338 0.50337 0.92367 0.0
C435 C 0.91726 0.50273 0.81722 0.0
C436 C 0.9604 0.48491 0.89694 0.0
C437 C 0.92243 0.51344 0.8828 0.0
C438 C 0.97975 0.46613 0.79249 0.0
C439 C 0.02913 0.47737 0.56337 0.0
H440 H 0.10878 0.55211 0.60272 0.0
H441 H 0.10587 0.53251 0.35395 0.0
H442 H 0.14036 0.52184 0.55733 0.0
H443 H 0.0738 0.56275 0.39967 0.0
H444 H 0.9306 0.47796 0.73807 0.0
H445 H 0.94736 0.51065 0.97525 0.0
H446 H 0.90128 0.50994 0.7843 0.0
H447 H 0.97764 0.47911 0.92758 0.0
H448 H 0.17795 0.02076 0.45121 0.0
H449 H 0.12867 0.03035 0.26794 0.0
H450 H 0.08894 0.02763 0.33606 0.0
H451 H 0.06763 0.02382 0.44858 0.0
H452 H 0.11718 0.01576 0.6318 0.0
H453 H 0.15685 0.01727 0.56316 0.0
C454 C 0.15863 0.02249 0.42569 0.0
C455 C 0.15685 0.02577 0.35347 0.0
C456 C 0.13558 0.02142 0.46564 0.0
C457 C 0.13117 0.02736 0.32264 0.0
C458 C 0.10823 0.02608 0.36193 0.0
C459 C 0.08708 0.0224 0.47374 0.0
C460 C 0.08907 0.0197 0.54601 0.0
C461 C 0.11012 0.02329 0.4336 0.0
C462 C 0.11469 0.01792 0.57679 0.0
C463 C 0.13754 0.01872 0.53732 0.0
H464 H 0.523 0.16929 0.45326 0.0
H465 H 0.47831 0.12471 0.29772 0.0
H466 H 0.47679 0.08651 0.37385 0.0
H467 H 0.48948 0.06496 0.48333 0.0
H468 H 0.53307 0.11027 0.63933 0.0
H469 H 0.53271 0.14904 0.5651 0.0
C470 C 0.51233 0.15149 0.43617 0.0
C471 C 0.50094 0.15013 0.36905 0.0
C472 C 0.51117 0.12956 0.48065 0.0
C473 C 0.48772 0.12645 0.34826 0.0
C474 C 0.48663 0.10453 0.39214 0.0
C475 C 0.49872 0.08335 0.50145 0.0
C476 C 0.51146 0.08444 0.56706 0.0
C477 C 0.49856 0.10572 0.45818 0.0
C478 C 0.52314 0.10863 0.58937 0.0
C479 C 0.52304 0.13089 0.54673 0.0
H480 H 0.38177 0.47962 0.36811 0.0
H481 H 0.43486 0.51071 0.21754 0.0
H482 H 0.4712 0.5133 0.3047 0.0
H483 H 0.4875 0.50786 0.42566 0.0
H484 H 0.43355 0.4757 0.57359 0.0
H485 H 0.39819 0.47247 0.48583 0.0
C486 C 0.40125 0.48715 0.35435 0.0
C487 C 0.40543 0.49532 0.28647 0.0
C488 C 0.42202 0.48835 0.40448 0.0
C489 C 0.43103 0.50435 0.26933 0.0
C490 C 0.45181 0.50588 0.31928 0.0
C491 C 0.46807 0.49997 0.43857 0.0
C492 C 0.46336 0.49213 0.50668 0.0
C493 C 0.44752 0.49806 0.3873 0.0
C494 C 0.43796 0.48193 0.52204 0.0
C495 C 0.41758 0.48011 0.47176 0.0
H496 H 0.06163 0.40983 0.30697 0.0
H497 H 1.00375 0.35468 0.38736 0.0
H498 H 0.99453 0.38591 0.47856 0.0
H499 H 1.0043 0.42854 0.53923 0.0
H500 H 0.06381 0.48221 0.45927 0.0
H501 H 0.07105 0.45168 0.36582 0.0
C502 C 0.0471 0.40439 0.34456 0.0
C503 C 0.0336 0.37958 0.33969 0.0
C504 C 0.0423 0.42222 0.39803 0.0
C505 C 0.01435 0.37357 0.38855 0.0
C506 C 1.00923 0.3914 0.44146 0.0
C507 C 0.01894 0.43357 0.50157 0.0
C508 C 0.03352 0.45782 0.50727 0.0
C509 C 0.02331 0.41572 0.44734 0.0
C510 C 0.05231 0.46381 0.45725 0.0
C511 C 0.05652 0.44635 0.4034 0.0
H512 H 0.86757 0.01029 0.91851 0.0
H513 H 0.9193 0.97337 0.06925 0.0
H514 H 0.95517 0.97404 0.98907 0.0
H515 H 0.97253 0.98443 0.87528 0.0
H516 H 0.92263 0.0244 0.7266 0.0
H517 H 0.88598 0.02318 0.80607 0.0
C518 C 0.88673 1.00265 0.93437 0.0
C519 C 0.89008 0.9913 1.00046 0.0
C520 C 0.90787 1.00341 0.8877 0.0
C521 C 0.91539 0.98154 0.01877 0.0
C522 C 0.9362 0.98202 0.97276 0.0
C523 C 0.95361 0.99278 0.85992 0.0
C524 C 0.95049 1.00427 0.79419 0.0
C525 C 0.93267 0.99261 0.90677 0.0
C526 C 0.92579 0.01532 0.77635 0.0
C527 C 0.90473 0.01467 0.82206 0.0
H528 H 0.5594 0.8846 0.99336 0.0
H529 H 0.4748 0.86903 0.97308 0.0
H530 H 0.47158 0.89967 0.87707 0.0
H531 H 0.49211 0.93255 0.80167 0.0
H532 H 0.5763 0.94997 0.82323 0.0
H533 H 0.58037 0.91698 0.91453 0.0
C534 C 0.54033 0.88783 0.96756 0.0
C535 C 0.51733 0.8747 0.99118 0.0
C536 C 0.53851 0.90588 0.91228 0.0
C537 C 0.49276 0.87918 0.95702 0.0
C538 C 0.49089 0.89663 0.90171 0.0
C539 C 0.51143 0.92887 0.82558 0.0
C540 C 0.53384 0.94374 0.80532 0.0
C541 C 0.51354 0.91032 0.87927 0.0
C542 C 0.55866 0.9389 0.83781 0.0
C543 C 0.56102 0.92005 0.89024 0.0
H544 H 0.60919 0.56096 0.05896 0.0
H545 H 0.66262 0.50041 0.99906 0.0
H546 H 0.63344 0.48949 0.90032 0.0
H547 H 0.59394 0.49851 0.82695 0.0
H548 H 0.54067 0.55937 0.88555 0.0
H549 H 0.56878 0.56897 0.98754 0.0
C550 C 0.61451 0.54535 0.02441 0.0
C551 C 0.63829 0.5316 0.0371 0.0
C552 C 0.59777 0.53939 0.96665 0.0
C553 C 0.6444 0.51114 0.99186 0.0
C554 C 0.62781 0.50504 0.93466 0.0
C555 C 0.58842 0.51391 0.8619 0.0
C556 C 0.5652 0.52832 0.84781 0.0
C557 C 0.60464 0.51926 0.92093 0.0
C558 C 0.55838 0.54799 0.89452 0.0
C559 C 0.57448 0.55349 0.95309 0.0
H560 H 1.00179 0.66103 0.93489 0.0
H561 H 0.99981 0.60329 0.09748 0.0
H562 H 1.00276 0.56771 0.01381 0.0
H563 H 1.00649 0.55265 0.8939 0.0
H564 H 1.00919 0.61075 0.7321 0.0
H565 H 1.0056 0.64611 0.8157 0.0
C566 C 1.00238 0.64072 0.95243 0.0
C567 C 1.00065 0.63514 0.02313 0.0
C568 C 1.00418 0.62018 0.9038 0.0
C569 C 1.00085 0.60844 0.04379 0.0
C570 C 1.00265 0.58797 0.99579 0.0
C571 C 1.00626 0.57303 0.87675 0.0
C572 C 1.00822 0.57878 0.80617 0.0
C573 C 1.00432 0.59355 0.92554 0.0
C574 C 1.00779 0.60546 0.78563 0.0
C575 C 1.00577 0.62584 0.83363 0.0
H576 H 0.09776 0.22215 0.39107 0.0
H577 H 0.15095 0.16208 0.32695 0.0
H578 H 0.12199 0.12792 0.37632 0.0
H579 H 0.07798 0.11516 0.41974 0.0
H580 H 0.02386 0.17596 0.47399 0.0
H581 H 0.05705 0.20994 0.44685 0.0
C582 C 0.10378 0.20173 0.3902 0.0
C583 C 0.12647 0.19469 0.3548 0.0
C584 C 0.08642 0.18229 0.41525 0.0
C585 C 0.13354 0.168 0.3536 0.0
C586 C 0.11681 0.14847 0.38105 0.0
C587 C 0.07351 0.13587 0.42564 0.0
C588 C 0.04831 0.14307 0.44756 0.0
C589 C 0.09252 0.15535 0.40863 0.0
C590 C 0.04304 0.16991 0.45699 0.0
C591 C 0.062 0.18935 0.4414 0.0
H592 H 0.36459 0.13549 0.38562 0.0
H593 H 0.37857 0.11699 0.17394 0.0
H594 H 0.41336 0.08756 0.20915 0.0
H595 H 0.43026 0.05767 0.29814 0.0
H596 H 0.4142 0.07305 0.50984 0.0
H597 H 0.389 0.1118 0.47631 0.0
C598 C 0.37553 0.1254 0.34702 0.0
C599 C 0.36755 0.12749 0.27742 0.0
C600 C 0.39435 0.10673 0.36757 0.0
C601 C 0.38336 0.11559 0.22822 0.0
C602 C 0.40316 0.09815 0.24824 0.0
C603 C 0.42181 0.06984 0.33712 0.0
C604 C 0.42315 0.06187 0.40602 0.0
C605 C 0.4072 0.09199 0.31755 0.0
C606 C 0.41243 0.07813 0.456 0.0
C607 C 0.39827 0.10047 0.437 0.0
H608 H 0.61876 0.30909 0.43553 0.0
H609 H 0.67487 0.33842 0.28962 0.0
H610 H 0.68334 0.37803 0.35952 0.0
H611 H 0.66741 0.40781 0.44794 0.0
H612 H 0.6076 0.37909 0.58527 0.0
H613 H 0.60925 0.33538 0.53539 0.0
C614 C 0.6337 0.32355 0.4202 0.0
C615 C 0.64576 0.32103 0.35666 0.0
C616 C 0.63765 0.34664 0.45912 0.0
C617 C 0.66492 0.34015 0.33767 0.0
C618 C 0.66969 0.36284 0.37752 0.0
C619 C 0.65505 0.39188 0.46773 0.0
C620 C 0.6369 0.39712 0.51912 0.0
C621 C 0.65493 0.36696 0.4361 0.0
C622 C 0.62178 0.37594 0.54581 0.0
C623 C 0.62241 0.35085 0.51661 0.0
H624 H 0.17253 0.42483 0.31373 0.0
H625 H 0.24474 0.45935 0.40597 0.0
H626 H 0.21898 0.49048 0.46779 0.0
H627 H 0.17714 0.51374 0.47871 0.0
H628 H 0.10613 0.48368 0.3729 0.0
H629 H 0.13034 0.44622 0.33039 0.0
C630 C 0.18279 0.43912 0.34718 0.0
C631 C 0.21078 0.43997 0.35259 0.0
C632 C 0.16808 0.45865 0.37836 0.0
C633 C 0.22332 0.45782 0.39976 0.0
C634 C 0.2086 0.4762 0.43452 0.0
C635 C 0.16698 0.49883 0.44685 0.0
C636 C 0.14002 0.5016 0.42803 0.0
C637 C 0.18119 0.47773 0.4212 0.0
C638 C 0.12702 0.48216 0.38687 0.0
C639 C 0.1408 0.46066 0.36304 0.0
H640 H 0.90119 0.85301 0.99819 0.0
H641 H 0.93929 0.7865 0.90722 0.0
H642 H 0.9693 0.81615 0.84958 0.0
H643 H 0.992 0.85929 0.84777 0.0
H644 H 0.95751 0.92573 0.94699 0.0
H645 H 0.92023 0.89758 0.98223 0.0
C646 C 0.91592 0.84488 0.96556 0.0
C647 C 0.91851 0.81725 0.96075 0.0
C648 C 0.93482 0.86199 0.93645 0.0
C649 C 0.93663 0.80746 0.9139 0.0
C650 C 0.95441 0.82448 0.88147 0.0
C651 C 0.97607 0.86779 0.87583 0.0
C652 C 0.9779 0.89439 0.8963 0.0
C653 C 0.95485 0.8515 0.8963 0.0
C654 C 0.95702 0.90506 0.93263 0.0
C655 C 0.93555 0.88905 0.95209 0.0
H656 H 0.68794 0.88562 0.96918 0.0
H657 H 0.66515 0.89873 0.17794 0.0
H658 H 0.62968 0.92624 0.13778 0.0
H659 H 0.61393 0.95692 0.04912 0.0
H660 H 0.64051 0.94901 0.84273 0.0
H661 H 0.66653 0.91079 0.87681 0.0
C662 C 0.67531 0.8944 1.00629 0.0
C663 C 0.68111 0.89148 0.07705 0.0
C664 C 0.6562 0.91242 0.9835 0.0
C665 C 0.66252 0.90104 0.12314 0.0
C666 C 0.64217 0.9174 0.10037 0.0
C667 C 0.62494 0.94646 1.01131 0.0
C668 C 0.62609 0.95627 0.9442 0.0
C669 C 0.64037 0.92496 0.03156 0.0
C670 C 0.64016 0.94234 0.89543 0.0
C671 C 0.65482 0.92035 0.91472 0.0
H672 H 0.37721 0.67204 0.07979 0.0
H673 H 0.41223 0.72467 0.93149 0.0
H674 H 0.40876 0.69014 0.84559 0.0
H675 H 0.40635 0.64272 0.82131 0.0
H676 H 0.37817 0.58862 0.97533 0.0
H677 H 0.36841 0.62563 0.04927 0.0
C678 C 0.38375 0.6761 0.02841 0.0
C679 C 0.39581 0.70075 0.01336 0.0
C680 C 0.38352 0.65553 0.98027 0.0
C681 C 0.40298 0.70597 0.94544 0.0
C682 C 0.40141 0.68602 0.89614 0.0
C683 C 0.39772 0.63905 0.87069 0.0
C684 C 0.39369 0.61294 0.89343 0.0
C685 C 0.39344 0.66034 0.91446 0.0
C686 C 0.38163 0.6085 0.95651 0.0
C687 C 0.37625 0.62969 0.99922 0.0
H688 H 0.87154 0.61251 0.0172 0.0
H689 H 0.80032 0.57369 0.93179 0.0
H690 H 0.82695 0.54226 0.87367 0.0
H691 H 0.86937 0.5207 0.86402 0.0
H692 H 0.94082 0.5573 0.95352 0.0
H693 H 0.91497 0.59355 0.99645 0.0
C694 C 0.86179 0.59735 0.98541 0.0
C695 C 0.8338 0.59538 0.98075 0.0
C696 C 0.87718 0.57811 0.95509 0.0
C697 C 0.82172 0.57613 0.93679 0.0
C698 C 0.83696 0.55763 0.90427 0.0
C699 C 0.87941 0.5368 0.8919 0.0
C700 C 0.90688 0.53595 0.90675 0.0
C701 C 0.86453 0.55765 0.91593 0.0
C702 C 0.91952 0.55699 0.94326 0.0
C703 C 0.90482 0.57793 0.96706 0.0
H704 H 0.04259 0.18207 0.81605 0.0
H705 H 0.02768 0.14783 0.01396 0.0
H706 H 0.02455 0.10384 0.96286 0.0
H707 H 0.0268 0.07449 0.8622 0.0
H708 H 0.04064 0.10871 0.66375 0.0
H709 H 0.04379 0.15279 0.71476 0.0
C710 C 0.03866 0.16501 0.84813 0.0
C711 C 0.03528 0.1686 0.91912 0.0
C712 C 0.03694 0.1395 0.81828 0.0
C713 C 0.02993 0.14604 0.95922 0.0
C714 C 0.02839 0.1207 0.93005 0.0
C715 C 0.03072 0.09155 0.83011 0.0
C716 C 0.03376 0.08802 0.75907 0.0
C717 C 0.03203 0.1171 0.85971 0.0
C718 C 0.03835 0.11059 0.71847 0.0
C719 C 0.0401 0.13593 0.74768 0.0
H720 H 0.38493 0.05739 0.94891 0.0
H721 H 0.34728 0.98515 0.87402 0.0
H722 H 0.38559 0.97717 0.80283 0.0
H723 H 0.43002 0.9912 0.75989 0.0
H724 H 0.46877 0.06164 0.8432 0.0
H725 H 0.43012 0.06986 0.91201 0.0
C726 C 0.3851 0.03985 0.9171 0.0
C727 C 0.36296 0.02199 0.91677 0.0
C728 C 0.40752 0.03514 0.87717 0.0
C729 C 0.3639 0.99921 0.87575 0.0
C730 C 0.38583 0.99472 0.83465 0.0
C731 C 0.42996 0.00841 0.79291 0.0
C732 C 0.45239 0.02595 0.79541 0.0
C733 C 0.40776 0.01262 0.83447 0.0
C734 C 0.45196 0.04783 0.83976 0.0
C735 C 0.42977 0.05255 0.87929 0.0
H736 H 0.54867 0.35148 0.87178 0.0
H737 H 0.4672 0.35494 0.93429 0.0
H738 H 0.46162 0.39549 0.86925 0.0
H739 H 0.48007 0.43116 0.79739 0.0
H740 H 0.55983 0.42546 0.72571 0.0
H741 H 0.56539 0.38421 0.78953 0.0
C742 C 0.5294 0.36054 0.87033 0.0
C743 C 0.50859 0.34987 0.90981 0.0
C744 C 0.52592 0.38363 0.83067 0.0
C745 C 0.48402 0.36271 0.90693 0.0
C746 C 0.48065 0.38594 0.86892 0.0
C747 C 0.49861 0.42077 0.79526 0.0
C748 C 0.51957 0.43156 0.75708 0.0
C749 C 0.50154 0.39679 0.83134 0.0
C750 C 0.54333 0.41764 0.75436 0.0
C751 C 0.54657 0.39408 0.79124 0.0
H752 H 0.17137 0.45947 0.87736 0.0
H753 H 0.2047 0.53468 0.81401 0.0
H754 H 0.16236 0.54532 0.75664 0.0
H755 H 0.11554 0.5335 0.72518 0.0
H756 H 0.08293 0.45773 0.78675 0.0
H757 H 0.12538 0.44705 0.84278 0.0
C758 C 0.16966 0.47805 0.85012 0.0
C759 C 0.19154 0.49616 0.85022 0.0
C760 C 0.14524 0.48401 0.81676 0.0
C761 C 0.18835 0.52039 0.81577 0.0
C762 C 0.16409 0.52647 0.78253 0.0
C763 C 0.11768 0.5146 0.75065 0.0
C764 C 0.09581 0.4965 0.75159 0.0
C765 C 0.14233 0.50848 0.78293 0.0
C766 C 0.09921 0.47211 0.78494 0.0
C767 C 0.12357 0.46596 0.81719 0.0
H768 H 0.96353 0.86528 0.42317 0.0
H769 H 0.03913 0.83495 0.49251 0.0
H770 H 0.0486 0.87555 0.55803 0.0
H771 H 0.0354 0.91999 0.59616 0.0
H772 H 0.95979 0.94994 0.52512 0.0
H773 H 0.9503 0.90917 0.46132 0.0
C774 C 0.98199 0.86729 0.45317 0.0
C775 C 1.00048 0.84669 0.45276 0.0
C776 C 0.98733 0.89077 0.49093 0.0
C777 C 0.02454 0.85031 0.491 0.0
C778 C 0.02992 0.87356 0.52896 0.0
C779 C 0.01678 0.9176 0.567 0.0
C780 C 0.99835 0.9383 0.56595 0.0
C781 C 0.01147 0.89398 0.52941 0.0
C782 C 0.97442 0.93462 0.52727 0.0
C783 C 0.96895 0.9112 0.49051 0.0
H784 H 0.65393 0.9735 0.38547 0.0
H785 H 0.6965 0.0402 0.47761 0.0
H786 H 0.66003 0.04647 0.55546 0.0
H787 H 0.61528 0.03343 0.59708 0.0
H788 H 0.57358 0.96601 0.50553 0.0
H789 H 0.61008 0.95989 0.42844 0.0
C790 C 0.65526 0.98958 0.42216 0.0
C791 C 0.67821 0.00644 0.42469 0.0
C792 C 0.63414 0.99299 0.46741 0.0
C793 C 0.67942 0.02675 0.47413 0.0
C794 C 0.6584 0.03043 0.51871 0.0
C795 C 0.61414 0.01735 0.56039 0.0
C796 C 0.59134 1.00025 0.55771 0.0
C797 C 0.63555 0.01373 0.51587 0.0
C798 C 0.59062 0.97951 0.50955 0.0
C799 C 0.61159 0.97599 0.46503 0.0
H800 H 0.49226 0.67207 0.48254 0.0
H801 H 0.57404 0.66651 0.42538 0.0
H802 H 0.57769 0.62503 0.48869 0.0
H803 H 0.55725 0.58937 0.55756 0.0
H804 H 0.47566 0.59579 0.61595 0.0
H805 H 0.47272 0.638 0.55637 0.0
C806 C 0.51111 0.66217 0.48483 0.0
C807 C 0.53282 0.6727 0.44868 0.0
C808 C 0.51315 0.63829 0.52176 0.0
C809 C 0.55682 0.65893 0.45156 0.0
C810 C 0.55898 0.63518 0.4882 0.0
C811 C 0.53887 0.60006 0.55785 0.0
C812 C 0.51669 0.58911 0.59137 0.0
C813 C 0.5372 0.6245 0.52299 0.0
C814 C 0.49309 0.60348 0.59077 0.0
C815 C 0.49134 0.62771 0.55647 0.0
H816 H 0.87037 0.56897 0.429 0.0
H817 H 0.83219 0.50402 0.53331 0.0
H818 H 0.8743 0.49455 0.59468 0.0
H819 H 0.92238 0.50481 0.61827 0.0
H820 H 0.96025 0.5686 0.50806 0.0
H821 H 0.91796 0.57855 0.45027 0.0
C822 C 0.87118 0.55284 0.46556 0.0
C823 C 0.848 0.5374 0.47699 0.0
C824 C 0.8955 0.54732 0.4998 0.0
C825 C 0.84966 0.5162 0.52343 0.0
C826 C 0.87375 0.51086 0.55871 0.0
C827 C 0.92133 0.52098 0.58189 0.0
C828 C 0.9446 0.536 0.56791 0.0
C829 C 0.89686 0.5263 0.54737 0.0
C830 C 0.94282 0.55666 0.51989 0.0
C831 C 0.91858 0.56239 0.48672 0.0
loop_
_geom_bond_atom_site_label_1
_geom_bond_atom_site_label_2
_geom_bond_distance
_geom_bond_site_symmetry_2
_ccdc_geom_bond_type
C0 C1 1.384 . S
C0 H13 0.947 . S
C0 C35 1.382 . S
C1 C0 1.384 . S
C1 C2 1.378 . S
C2 C1 1.378 . S
C2 C3 1.378 . S
C2 H14 0.952 . S
C3 C2 1.378 . S
C3 H15 0.950 . S
C3 C34 1.383 . S
H4 C23 0.947 . S
H5 C24 0.946 . S
H6 C26 0.953 . S
H7 C27 0.945 . S
H8 C29 0.952 . S
H9 C30 0.949 1_556 S
H10 C32 0.950 . S
H11 C33 0.948 . S
H12 C35 0.951 . S
H13 C0 0.947 . S
H14 C2 0.952 . S
H15 C3 0.950 . S
N16 C19 1.382 . S
N16 C21 1.363 . S
N17 C19 1.371 . S
N17 C20 1.372 . S
N18 C20 1.361 . S
N18 C21 1.377 . S
C19 N16 1.382 . S
C19 N17 1.371 . S
C19 C22 1.480 . S
C20 N17 1.372 . S
C20 N18 1.361 . S
C20 C28 1.457 . S
C21 N16 1.363 . S
C21 N18 1.377 . S
C21 C34 1.479 . S
C22 C19 1.480 . S
C22 C23 1.383 . S
C22 C27 1.385 . S
C23 H4 0.947 . S
C23 C22 1.383 . S
C23 C24 1.388 . S
C24 H5 0.946 . S
C24 C23 1.388 . S
C24 C25 1.384 . S
C25 C24 1.384 . S
C25 C26 1.377 . S
C26 H6 0.953 . S
C26 C25 1.377 . S
C26 C27 1.369 . S
C27 H7 0.945 . S
C27 C22 1.385 . S
C27 C26 1.369 . S
C28 C20 1.457 . S
C28 C29 1.372 . S
C28 C33 1.364 . S
C29 H8 0.952 . S
C29 C28 1.372 . S
C29 C30 1.389 . S
C30 H9 0.949 1_554 S
C30 C29 1.389 . S
C30 C31 1.387 . S
C31 C30 1.387 . S
C31 C32 1.372 . S
C32 H10 0.950 . S
C32 C31 1.372 . S
C32 C33 1.379 . S
C33 H11 0.948 . S
C33 C28 1.364 . S
C33 C32 1.379 . S
C34 C3 1.383 . S
C34 C21 1.479 . S
C34 C35 1.398 . S
C35 C0 1.382 . S
C35 H12 0.951 . S
C35 C34 1.398 . S
C36 C37 1.384 . S
C36 H49 0.947 . S
C36 C71 1.382 . S
C37 C36 1.384 . S
C37 C38 1.378 . S
C38 C37 1.378 . S
C38 C39 1.378 . S
C38 H50 0.952 . S
C39 C38 1.378 . S
C39 H51 0.950 . S
C39 C70 1.383 . S
H40 C59 0.947 . S
H41 C60 0.946 . S
H42 C62 0.953 . S
H43 C63 0.945 . S
H44 C65 0.952 . S
H45 C66 0.949 . S
H46 C68 0.950 . S
H47 C69 0.948 . S
H48 C71 0.951 . S
H49 C36 0.947 . S
H50 C38 0.952 . S
H51 C39 0.950 . S
N52 C55 1.382 . S
N52 C57 1.363 . S
N53 C55 1.371 . S
N53 C56 1.372 . S
N54 C56 1.361 . S
N54 C57 1.377 . S
C55 N52 1.382 . S
C55 N53 1.371 . S
C55 C58 1.480 . S
C56 N53 1.372 . S
C56 N54 1.361 . S
C56 C64 1.457 . S
C57 N52 1.363 . S
C57 N54 1.377 . S
C57 C70 1.479 . S
C58 C55 1.480 . S
C58 C59 1.383 . S
C58 C63 1.385 . S
C59 H40 0.947 . S
C59 C58 1.383 . S
C59 C60 1.388 . S
C60 H41 0.946 . S
C60 C59 1.388 . S
C60 C61 1.384 . S
C61 C60 1.384 . S
C61 C62 1.377 . S
C62 H42 0.953 . S
C62 C61 1.377 . S
C62 C63 1.369 . S
C63 H43 0.945 . S
C63 C58 1.385 . S
C63 C62 1.369 . S
C64 C56 1.457 . S
C64 C65 1.372 . S
C64 C69 1.364 . S
C65 H44 0.952 . S
C65 C64 1.372 . S
C65 C66 1.389 . S
C66 H45 0.949 . S
C66 C65 1.389 . S
C66 C67 1.387 . S
C67 C66 1.387 . S
C67 C68 1.372 . S
C68 H46 0.950 . S
C68 C67 1.372 . S
C68 C69 1.379 . S
C69 H47 0.948 . S
C69 C64 1.364 . S
C69 C68 1.379 . S
C70 C39 1.383 . S
C70 C57 1.479 . S
C70 C71 1.398 . S
C71 C36 1.382 . S
C71 H48 0.951 . S
C71 C70 1.398 . S
C72 C73 1.384 . S
C72 H85 0.947 . S
C72 C107 1.382 . S
C73 C72 1.384 . S
C73 C74 1.378 . S
C74 C73 1.378 . S
C74 C75 1.378 . S
C74 H86 0.952 . S
C75 C74 1.378 . S
C75 H87 0.950 . S
C75 C106 1.383 . S
H76 C95 0.947 . S
H77 C96 0.946 . S
H78 C98 0.953 . S
H79 C99 0.945 . S
H80 C101 0.952 . S
H81 C102 0.949 . S
H82 C104 0.950 . S
H83 C105 0.948 . S
H84 C107 0.951 . S
H85 C72 0.947 . S
H86 C74 0.952 . S
H87 C75 0.950 . S
N88 C91 1.382 . S
N88 C93 1.363 . S
N89 C91 1.371 . S
N89 C92 1.372 . S
N90 C92 1.361 . S
N90 C93 1.377 . S
C91 N88 1.382 . S
C91 N89 1.371 . S
C91 C94 1.480 . S
C92 N89 1.372 . S
C92 N90 1.361 . S
C92 C100 1.457 . S
C93 N88 1.363 . S
C93 N90 1.377 . S
C93 C106 1.479 . S
C94 C91 1.480 . S
C94 C95 1.383 . S
C94 C99 1.385 . S
C95 H76 0.947 . S
C95 C94 1.383 . S
C95 C96 1.388 . S
C96 H77 0.946 . S
C96 C95 1.388 . S
C96 C97 1.384 . S
C97 C96 1.384 . S
C97 C98 1.377 . S
C98 H78 0.953 . S
C98 C97 1.377 . S
C98 C99 1.369 . S
C99 H79 0.945 . S
C99 C94 1.385 . S
C99 C98 1.369 . S
C100 C92 1.457 . S
C100 C101 1.372 . S
C100 C105 1.364 . S
C101 H80 0.952 . S
C101 C100 1.372 . S
C101 C102 1.389 . S
C102 H81 0.949 . S
C102 C101 1.389 . S
C102 C103 1.387 . S
C103 C102 1.387 . S
C103 C104 1.372 . S
C104 H82 0.950 . S
C104 C103 1.372 . S
C104 C105 1.379 . S
C105 H83 0.948 . S
C105 C100 1.364 . S
C105 C104 1.379 . S
C106 C75 1.383 . S
C106 C93 1.479 . S
C106 C107 1.398 . S
C107 C72 1.382 . S
C107 H84 0.951 . S
C107 C106 1.398 . S
C108 C109 1.384 . S
C108 H121 0.947 . S
C108 C143 1.382 . S
C109 C108 1.384 . S
C109 C110 1.378 . S
C110 C109 1.378 . S
C110 C111 1.378 . S
C110 H122 0.952 1_554 S
C111 C110 1.378 . S
C111 H123 0.950 . S
C111 C142 1.383 . S
H112 C131 0.947 . S
H113 C132 0.946 . S
H114 C134 0.953 . S
H115 C135 0.945 . S
H116 C137 0.952 . S
H117 C138 0.949 . S
H118 C140 0.950 . S
H119 C141 0.948 . S
H120 C143 0.951 . S
H121 C108 0.947 . S
H122 C110 0.952 1_556 S
H123 C111 0.950 . S
N124 C127 1.382 . S
N124 C129 1.363 . S
N125 C127 1.371 . S
N125 C128 1.372 . S
N126 C128 1.361 . S
N126 C129 1.377 . S
C127 N124 1.382 . S
C127 N125 1.371 . S
C127 C130 1.480 . S
C128 N125 1.372 . S
C128 N126 1.361 . S
C128 C136 1.457 . S
C129 N124 1.363 . S
C129 N126 1.377 . S
C129 C142 1.479 . S
C130 C127 1.480 . S
C130 C131 1.383 . S
C130 C135 1.385 . S
C131 H112 0.947 . S
C131 C130 1.383 . S
C131 C132 1.388 . S
C132 H113 0.946 . S
C132 C131 1.388 . S
C132 C133 1.384 . S
C133 C132 1.384 . S
C133 C134 1.377 . S
C134 H114 0.953 . S
C134 C133 1.377 . S
C134 C135 1.369 . S
C135 H115 0.945 . S
C135 C130 1.385 . S
C135 C134 1.369 . S
C136 C128 1.457 . S
C136 C137 1.372 . S
C136 C141 1.364 . S
C137 H116 0.952 . S
C137 C136 1.372 . S
C137 C138 1.389 . S
C138 H117 0.949 . S
C138 C137 1.389 . S
C138 C139 1.387 . S
C139 C138 1.387 . S
C139 C140 1.372 . S
C140 H118 0.950 . S
C140 C139 1.372 . S
C140 C141 1.379 . S
C141 H119 0.948 . S
C141 C136 1.364 . S
C141 C140 1.379 . S
C142 C111 1.383 . S
C142 C129 1.479 . S
C142 C143 1.398 . S
C143 C108 1.382 . S
C143 H120 0.951 . S
C143 C142 1.398 . S
C144 C145 1.384 . S
C144 H157 0.947 . S
C144 C179 1.382 . S
C145 C144 1.384 . S
C145 C146 1.378 . S
C146 C145 1.378 . S
C146 C147 1.378 . S
C146 H158 0.952 . S
C147 C146 1.378 . S
C147 H159 0.950 . S
C147 C178 1.383 . S
H148 C167 0.947 . S
H149 C168 0.946 . S
H150 C170 0.953 . S
H151 C171 0.945 . S
H152 C173 0.952 . S
H153 C174 0.949 . S
H154 C176 0.950 . S
H155 C177 0.948 . S
H156 C179 0.951 . S
H157 C144 0.947 . S
H158 C146 0.952 . S
H159 C147 0.950 . S
N160 C163 1.382 . S
N160 C165 1.363 . S
N161 C163 1.371 . S
N161 C164 1.372 . S
N162 C164 1.361 . S
N162 C165 1.377 . S
C163 N160 1.382 . S
C163 N161 1.371 . S
C163 C166 1.480 . S
C164 N161 1.372 . S
C164 N162 1.361 . S
C164 C172 1.457 . S
C165 N160 1.363 . S
C165 N162 1.377 . S
C165 C178 1.479 1_554 S
C166 C163 1.480 . S
C166 C167 1.383 . S
C166 C171 1.385 . S
C167 H148 0.947 . S
C167 C166 1.383 . S
C167 C168 1.388 . S
C168 H149 0.946 . S
C168 C167 1.388 . S
C168 C169 1.384 . S
C169 C168 1.384 . S
C169 C170 1.377 . S
C170 H150 0.953 . S
C170 C169 1.377 . S
C170 C171 1.369 . S
C171 H151 0.945 . S
C171 C166 1.385 . S
C171 C170 1.369 . S
C172 C164 1.457 . S
C172 C173 1.372 . S
C172 C177 1.364 . S
C173 H152 0.952 . S
C173 C172 1.372 . S
C173 C174 1.389 . S
C174 H153 0.949 . S
C174 C173 1.389 . S
C174 C175 1.387 . S
C175 C174 1.387 . S
C175 C176 1.372 . S
C176 H154 0.950 . S
C176 C175 1.372 . S
C176 C177 1.379 . S
C177 H155 0.948 . S
C177 C172 1.364 . S
C177 C176 1.379 . S
C178 C147 1.383 . S
C178 C165 1.479 1_556 S
C178 C179 1.398 . S
C179 C144 1.382 . S
C179 H156 0.951 . S
C179 C178 1.398 . S
C180 C181 1.384 . S
C180 H193 0.947 . S
C180 C215 1.382 . S
C181 C180 1.384 . S
C181 C182 1.378 . S
C182 C181 1.378 . S
C182 C183 1.378 . S
C182 H194 0.952 . S
C183 C182 1.378 . S
C183 H195 0.950 . S
C183 C214 1.383 . S
H184 C203 0.947 1_556 S
H185 C204 0.946 . S
H186 C206 0.953 . S
H187 C207 0.945 . S
H188 C209 0.952 . S
H189 C210 0.949 . S
H190 C212 0.950 . S
H191 C213 0.948 . S
H192 C215 0.951 . S
H193 C180 0.947 . S
H194 C182 0.952 . S
H195 C183 0.950 . S
N196 C199 1.382 1_556 S
N196 C201 1.363 . S
N197 C199 1.371 . S
N197 C200 1.372 . S
N198 C200 1.361 . S
N198 C201 1.377 1_554 S
C199 N196 1.382 1_554 S
C199 N197 1.371 . S
C199 C202 1.480 . S
C200 N197 1.372 . S
C200 N198 1.361 . S
C200 C208 1.457 . S
C201 N196 1.363 . S
C201 N198 1.377 1_556 S
C201 C214 1.479 . S
C202 C199 1.480 . S
C202 C203 1.383 . S
C202 C207 1.385 . S
C203 H184 0.947 1_554 S
C203 C202 1.383 . S
C203 C204 1.388 . S
C204 H185 0.946 . S
C204 C203 1.388 . S
C204 C205 1.384 . S
C205 C204 1.384 . S
C205 C206 1.377 . S
C206 H186 0.953 . S
C206 C205 1.377 . S
C206 C207 1.369 . S
C207 H187 0.945 . S
C207 C202 1.385 . S
C207 C206 1.369 . S
C208 C200 1.457 . S
C208 C209 1.372 . S
C208 C213 1.364 . S
C209 H188 0.952 . S
C209 C208 1.372 . S
C209 C210 1.389 . S
C210 H189 0.949 . S
C210 C209 1.389 . S
C210 C211 1.387 . S
C211 C210 1.387 . S
C211 C212 1.372 . S
C212 H190 0.950 . S
C212 C211 1.372 . S
C212 C213 1.379 . S
C213 H191 0.948 . S
C213 C208 1.364 . S
C213 C212 1.379 . S
C214 C183 1.383 . S
C214 C201 1.479 . S
C214 C215 1.398 . S
C215 C180 1.382 . S
C215 H192 0.951 . S
C215 C214 1.398 . S
C216 C217 1.384 . S
C216 H229 0.947 . S
C216 C251 1.382 . S
C217 C216 1.384 . S
C217 C218 1.378 . S
C218 C217 1.378 . S
C218 C219 1.378 . S
C218 H230 0.952 . S
C219 C218 1.378 . S
C219 H231 0.950 . S
C219 C250 1.383 . S
H220 C239 0.947 . S
H221 C240 0.946 1_556 S
H222 C242 0.953 . S
H223 C243 0.945 . S
H224 C245 0.952 . S
H225 C246 0.949 . S
H226 C248 0.950 . S
H227 C249 0.948 . S
H228 C251 0.951 . S
H229 C216 0.947 . S
H230 C218 0.952 . S
H231 C219 0.950 . S
N232 C235 1.382 1_556 S
N232 C237 1.363 . S
N233 C235 1.371 . S
N233 C236 1.372 . S
N234 C236 1.361 . S
N234 C237 1.377 1_554 S
C235 N232 1.382 1_554 S
C235 N233 1.371 . S
C235 C238 1.480 . S
C236 N233 1.372 . S
C236 N234 1.361 . S
C236 C244 1.457 . S
C237 N232 1.363 . S
C237 N234 1.377 1_556 S
C237 C250 1.479 . S
C238 C235 1.480 . S
C238 C239 1.383 1_554 S
C238 C243 1.385 . S
C239 H220 0.947 . S
C239 C238 1.383 1_556 S
C239 C240 1.388 1_556 S
C240 H221 0.946 1_554 S
C240 C239 1.388 1_554 S
C240 C241 1.384 . S
C241 C240 1.384 . S
C241 C242 1.377 . S
C242 H222 0.953 . S
C242 C241 1.377 . S
C242 C243 1.369 . S
C243 H223 0.945 . S
C243 C238 1.385 . S
C243 C242 1.369 . S
C244 C236 1.457 . S
C244 C245 1.372 . S
C244 C249 1.364 . S
C245 H224 0.952 . S
C245 C244 1.372 . S
C245 C246 1.389 . S
C246 H225 0.949 . S
C246 C245 1.389 . S
C246 C247 1.387 . S
C247 C246 1.387 . S
C247 C248 1.372 . S
C248 H226 0.950 . S
C248 C247 1.372 . S
C248 C249 1.379 . S
C249 H227 0.948 . S
C249 C244 1.364 . S
C249 C248 1.379 . S
C250 C219 1.383 . S
C250 C237 1.479 . S
C250 C251 1.398 . S
C251 C216 1.382 . S
C251 H228 0.951 . S
C251 C250 1.398 . S
C252 C253 1.384 . S
C252 H265 0.947 . S
C252 C287 1.382 . S
C253 C252 1.384 . S
C253 C254 1.378 . S
C254 C253 1.378 . S
C254 C255 1.378 . S
C254 H266 0.952 . S
C255 C254 1.378 . S
C255 H267 0.950 . S
C255 C286 1.383 . S
H256 C275 0.947 . S
H257 C276 0.946 . S
H258 C278 0.953 . S
H259 C279 0.945 . S
H260 C281 0.952 . S
H261 C282 0.949 . S
H262 C284 0.950 . S
H263 C285 0.948 . S
H264 C287 0.951 . S
H265 C252 0.947 . S
H266 C254 0.952 . S
H267 C255 0.950 . S
N268 C271 1.382 . S
N268 C273 1.363 . S
N269 C271 1.371 . S
N269 C272 1.372 . S
N270 C272 1.361 . S
N270 C273 1.377 . S
C271 N268 1.382 . S
C271 N269 1.371 . S
C271 C274 1.480 . S
C272 N269 1.372 . S
C272 N270 1.361 . S
C272 C280 1.457 1_554 S
C273 N268 1.363 . S
C273 N270 1.377 . S
C273 C286 1.479 . S
C274 C271 1.480 . S
C274 C275 1.383 . S
C274 C279 1.385 . S
C275 H256 0.947 . S
C275 C274 1.383 . S
C275 C276 1.388 . S
C276 H257 0.946 . S
C276 C275 1.388 . S
C276 C277 1.384 . S
C277 C276 1.384 . S
C277 C278 1.377 . S
C278 H258 0.953 . S
C278 C277 1.377 . S
C278 C279 1.369 . S
C279 H259 0.945 . S
C279 C274 1.385 . S
C279 C278 1.369 . S
C280 C272 1.457 1_556 S
C280 C281 1.372 . S
C280 C285 1.364 . S
C281 H260 0.952 . S
C281 C280 1.372 . S
C281 C282 1.389 . S
C282 H261 0.949 . S
C282 C281 1.389 . S
C282 C283 1.387 . S
C283 C282 1.387 . S
C283 C284 1.372 . S
C284 H262 0.950 . S
C284 C283 1.372 . S
C284 C285 1.379 . S
C285 H263 0.948 . S
C285 C280 1.364 . S
C285 C284 1.379 . S
C286 C255 1.383 . S
C286 C273 1.479 . S
C286 C287 1.398 . S
C287 C252 1.382 . S
C287 H264 0.951 . S
C287 C286 1.398 . S
Eu288 C297 2.828 . S
Eu288 O299 2.392 . S
Eu288 O301 2.418 1_545 S
Eu288 O306 2.373 1_655 S
Eu288 O309 2.488 . S
Eu288 O310 2.471 . S
Eu288 O311 2.349 1_655 S
Eu289 O298 2.373 1_455 S
Eu289 O302 2.488 . S
Eu289 O303 2.471 . S
Eu289 O304 2.349 . S
Eu289 O307 2.392 1_565 S
Eu289 O308 2.418 1_565 S
Eu289 C318 2.828 . S
C290 O308 1.244 . S
C290 O311 1.265 . S
C291 C292 1.379 1_655 S
C291 C295 1.373 . S
C291 C297 1.505 . S
C292 C291 1.379 1_455 S
C292 C294 1.369 . S
C292 H320 0.930 . S
C293 C295 1.383 . S
C293 C296 1.382 . S
C293 H321 0.930 . S
C294 C292 1.369 . S
C294 C296 1.392 1_455 S
C294 H322 0.930 . S
C295 C291 1.373 . S
C295 C293 1.383 . S
C295 H323 0.931 . S
C296 C293 1.382 . S
C296 C294 1.392 1_655 S
C297 Eu288 2.828 . S
C297 C291 1.505 . S
C297 O309 1.249 . S
C297 O310 1.244 . S
O298 Eu289 2.373 1_655 S
O298 C300 1.258 . S
O299 Eu288 2.392 . S
O299 C300 1.242 1_545 S
C300 O298 1.258 . S
C300 O299 1.242 1_565 S
O301 Eu288 2.418 1_565 S
O301 C305 1.244 . S
O302 Eu289 2.488 . S
O302 C318 1.249 . S
O303 Eu289 2.471 . S
O303 C318 1.244 . S
O304 Eu289 2.349 . S
O304 C305 1.265 1_455 S
C305 O301 1.244 . S
C305 O304 1.265 1_655 S
O306 Eu288 2.373 1_455 S
O306 C319 1.258 . S
O307 Eu289 2.392 1_545 S
O307 C319 1.242 . S
O308 Eu289 2.418 1_545 S
O308 C290 1.244 . S
O309 Eu288 2.488 . S
O309 C297 1.249 . S
O310 Eu288 2.471 . S
O310 C297 1.244 . S
O311 Eu288 2.349 1_455 S
O311 C290 1.265 . S
C312 C313 1.379 . S
C312 C316 1.373 . S
C312 C318 1.505 . S
C313 C312 1.379 . S
C313 C315 1.369 . S
C313 H324 0.930 1_455 S
C314 C316 1.383 . S
C314 C317 1.382 . S
C314 H325 0.930 1_556 S
C315 C313 1.369 . S
C315 C317 1.392 . S
C315 H326 0.930 1_455 S
C316 C312 1.373 . S
C316 C314 1.383 . S
C316 H327 0.931 . S
C317 C314 1.382 . S
C317 C315 1.392 . S
C318 Eu289 2.828 . S
C318 O302 1.249 . S
C318 O303 1.244 . S
C318 C312 1.505 . S
C319 O306 1.258 . S
C319 O307 1.242 . S
H320 C292 0.930 . S
H321 C293 0.930 . S
H322 C294 0.930 . S
H323 C295 0.931 . S
H324 C313 0.930 1_655 S
H325 C314 0.930 1_554 S
H326 C315 0.930 1_655 S
H327 C316 0.931 . S
Eu328 C337 2.828 . S
Eu328 O339 2.392 . S
Eu328 O341 2.418 . S
Eu328 O346 2.373 . S
Eu328 O349 2.488 . S
Eu328 O350 2.471 . S
Eu328 O351 2.349 1_545 S
Eu329 O338 2.373 1_565 S
Eu329 O342 2.488 . S
Eu329 O343 2.471 1_565 S
Eu329 O344 2.349 1_565 S
Eu329 O347 2.392 . S
Eu329 O348 2.418 . S
Eu329 C358 2.828 . S
C330 O348 1.244 . S
C330 O351 1.265 . S
C331 C332 1.399 . S
C331 C335 1.373 . S
C331 C337 1.505 . S
C332 C331 1.399 . S
C332 C334 1.367 1_545 S
C332 H360 0.912 1_545 S
C333 C335 1.383 . S
C333 C336 1.382 . S
C333 H361 0.930 . S
C334 C332 1.367 1_565 S
C334 C336 1.392 1_565 S
C334 H362 0.930 . S
C335 C331 1.373 . S
C335 C333 1.383 . S
C335 H363 0.931 . S
C336 C333 1.382 . S
C336 C334 1.392 1_545 S
C337 Eu328 2.828 . S
C337 C331 1.505 . S
C337 O349 1.249 . S
C337 O350 1.244 . S
O338 Eu329 2.373 1_545 S
O338 C340 1.258 . S
O339 Eu328 2.392 . S
O339 C340 1.242 . S
C340 O338 1.258 . S
C340 O339 1.242 . S
O341 Eu328 2.418 . S
O341 C345 1.244 . S
O342 Eu329 2.488 . S
O342 C358 1.249 . S
O343 Eu329 2.471 1_545 S
O343 C358 1.244 1_545 S
O344 Eu329 2.349 1_545 S
O344 C345 1.265 . S
C345 O341 1.244 . S
C345 O344 1.265 . S
O346 Eu328 2.373 . S
O346 C359 1.258 1_545 S
O347 Eu329 2.392 . S
O347 C359 1.242 . S
O348 Eu329 2.418 . S
O348 C330 1.244 . S
O349 Eu328 2.488 . S
O349 C337 1.249 . S
O350 Eu328 2.471 . S
O350 C337 1.244 . S
O351 Eu328 2.349 1_565 S
O351 C330 1.265 . S
C352 C353 1.379 1_565 S
C352 C356 1.373 . S
C352 C358 1.505 . S
C353 C352 1.379 1_545 S
C353 C355 1.369 . S
C353 H364 0.930 . S
C354 C356 1.383 . S
C354 C357 1.382 . S
C354 H365 0.930 . S
C355 C353 1.369 . S
C355 C357 1.392 1_545 S
C355 H366 0.930 . S
C356 C352 1.373 . S
C356 C354 1.383 . S
C356 H367 0.931 . S
C357 C354 1.382 . S
C357 C355 1.392 1_565 S
C358 Eu329 2.828 . S
C358 O342 1.249 . S
C358 O343 1.244 1_565 S
C358 C352 1.505 . S
C359 O346 1.258 1_565 S
C359 O347 1.242 . S
H360 C332 0.912 1_565 S
H361 C333 0.930 . S
H362 C334 0.930 . S
H363 C335 0.931 . S
H364 C353 0.930 . S
H365 C354 0.930 . S
H366 C355 0.930 . S
H367 C356 0.931 . S
Eu368 C377 2.828 . S
Eu368 O379 2.392 . S
Eu368 O381 2.418 . S
Eu368 O386 2.373 . S
Eu368 O389 2.488 . S
Eu368 O390 2.471 . S
Eu368 O391 2.349 . S
Eu369 O378 2.373 . S
Eu369 O382 2.488 . S
Eu369 O383 2.471 . S
Eu369 O384 2.349 . S
Eu369 O387 2.392 . S
Eu369 O388 2.418 . S
Eu369 C398 2.828 . S
C370 O388 1.244 . S
C370 O391 1.265 . S
C371 C372 1.379 . S
C371 C375 1.373 . S
C371 C377 1.505 . S
C372 C371 1.379 . S
C372 C374 1.369 . S
C372 H400 0.930 . S
C373 C375 1.383 . S
C373 C376 1.382 . S
C373 H401 0.930 . S
C374 C372 1.369 . S
C374 C376 1.392 . S
C374 H402 0.930 . S
C375 C371 1.373 . S
C375 C373 1.383 . S
C375 H403 0.931 . S
C376 C373 1.382 . S
C376 C374 1.392 . S
C377 Eu368 2.828 . S
C377 C371 1.505 . S
C377 O389 1.249 . S
C377 O390 1.244 . S
O378 Eu369 2.373 . S
O378 C380 1.258 . S
O379 Eu368 2.392 . S
O379 C380 1.242 . S
C380 O378 1.258 . S
C380 O379 1.242 . S
O381 Eu368 2.418 . S
O381 C385 1.244 . S
O382 Eu369 2.488 . S
O382 C398 1.249 . S
O383 Eu369 2.471 . S
O383 C398 1.244 . S
O384 Eu369 2.349 . S
O384 C385 1.265 . S
C385 O381 1.244 . S
C385 O384 1.265 . S
O386 Eu368 2.373 . S
O386 C399 1.258 . S
O387 Eu369 2.392 . S
O387 C399 1.242 . S
O388 Eu369 2.418 . S
O388 C370 1.244 . S
O389 Eu368 2.488 . S
O389 C377 1.249 . S
O390 Eu368 2.471 . S
O390 C377 1.244 . S
O391 Eu368 2.349 . S
O391 C370 1.265 . S
C392 C393 1.379 . S
C392 C396 1.373 . S
C392 C398 1.505 . S
C393 C392 1.379 . S
C393 C395 1.369 . S
C393 H404 0.930 . S
C394 C396 1.383 . S
C394 C397 1.382 . S
C394 H405 0.930 . S
C395 C393 1.369 . S
C395 C397 1.392 . S
C395 H406 0.930 . S
C396 C392 1.373 . S
C396 C394 1.383 . S
C396 H407 0.931 . S
C397 C394 1.382 . S
C397 C395 1.392 . S
C398 Eu369 2.828 . S
C398 O382 1.249 . S
C398 O383 1.244 . S
C398 C392 1.505 . S
C399 O386 1.258 . S
C399 O387 1.242 . S
H400 C372 0.930 . S
H401 C373 0.930 . S
H402 C374 0.930 . S
H403 C375 0.931 . S
H404 C393 0.930 . S
H405 C394 0.930 . S
H406 C395 0.930 . S
H407 C396 0.931 . S
Eu408 C417 2.828 . S
Eu408 O419 2.392 . S
Eu408 O421 2.418 1_455 S
Eu408 O426 2.373 . S
Eu408 O429 2.488 . S
Eu408 O430 2.471 . S
Eu408 O431 2.349 . S
Eu409 O418 2.373 . S
Eu409 O422 2.488 . S
Eu409 O423 2.471 . S
Eu409 O424 2.349 . S
Eu409 O427 2.392 1_655 S
Eu409 O428 2.418 1_655 S
Eu409 C438 2.828 . S
C410 O428 1.244 . S
C410 O431 1.265 . S
C411 C412 1.379 . S
C411 C415 1.373 . S
C411 C417 1.505 . S
C412 C411 1.379 . S
C412 C414 1.369 . S
C412 H440 0.930 . S
C413 C415 1.383 . S
C413 C416 1.382 . S
C413 H441 0.930 . S
C414 C412 1.369 . S
C414 C416 1.392 . S
C414 H442 0.930 . S
C415 C411 1.373 . S
C415 C413 1.383 . S
C415 H443 0.931 . S
C416 C413 1.382 . S
C416 C414 1.392 . S
C417 Eu408 2.828 . S
C417 C411 1.505 . S
C417 O429 1.249 . S
C417 O430 1.244 . S
O418 Eu409 2.373 . S
O418 C420 1.257 1_655 S
O419 Eu408 2.392 . S
O419 C420 1.243 . S
C420 O418 1.257 1_455 S
C420 O419 1.243 . S
O421 Eu408 2.418 1_655 S
O421 C425 1.244 . S
O422 Eu409 2.488 . S
O422 C438 1.249 . S
O423 Eu409 2.471 . S
O423 C438 1.244 . S
O424 Eu409 2.349 . S
O424 C425 1.265 . S
C425 O421 1.244 . S
C425 O424 1.265 . S
O426 Eu408 2.373 . S
O426 C439 1.258 . S
O427 Eu409 2.392 1_455 S
O427 C439 1.242 . S
O428 Eu409 2.418 1_455 S
O428 C410 1.244 . S
O429 Eu408 2.488 . S
O429 C417 1.249 . S
O430 Eu408 2.471 . S
O430 C417 1.244 . S
O431 Eu408 2.349 . S
O431 C410 1.265 . S
C432 C433 1.379 . S
C432 C436 1.373 . S
C432 C438 1.505 . S
C433 C432 1.379 . S
C433 C435 1.369 . S
C433 H444 0.930 . S
C434 C436 1.383 . S
C434 C437 1.382 . S
C434 H445 0.930 1_556 S
C435 C433 1.369 . S
C435 C437 1.392 . S
C435 H446 0.930 . S
C436 C432 1.373 . S
C436 C434 1.383 . S
C436 H447 0.931 . S
C437 C434 1.382 . S
C437 C435 1.392 . S
C438 Eu409 2.828 . S
C438 O422 1.249 . S
C438 O423 1.244 . S
C438 C432 1.505 . S
C439 O426 1.258 . S
C439 O427 1.242 . S
H440 C412 0.930 . S
H441 C413 0.930 . S
H442 C414 0.930 . S
H443 C415 0.931 . S
H444 C433 0.930 . S
H445 C434 0.930 1_554 S
H446 C435 0.930 . S
H447 C436 0.931 . S
H448 C454 0.930 . S
H449 C457 0.930 . S
H450 C458 0.930 . S
H451 C459 0.930 . S
H452 C462 0.930 1_565 S
H453 C463 0.930 1_565 S
C454 H448 0.930 . S
C454 C455 1.355 . S
C454 C456 1.415 . S
C455 C454 1.355 . S
C455 C457 1.419 . S
C456 C454 1.415 . S
C456 C461 1.425 . S
C456 C463 1.409 . S
C457 H449 0.930 . S
C457 C455 1.419 . S
C457 C458 1.362 . S
C458 H450 0.930 . S
C458 C457 1.362 . S
C458 C461 1.409 . S
C459 H451 0.930 . S
C459 C460 1.355 . S
C459 C461 1.415 . S
C460 C459 1.355 . S
C460 C462 1.419 . S
C461 C456 1.425 . S
C461 C458 1.409 . S
C461 C459 1.415 . S
C462 H452 0.930 1_545 S
C462 C460 1.419 . S
C462 C463 1.362 . S
C463 H453 0.930 1_545 S
C463 C456 1.409 . S
C463 C462 1.362 . S
H464 C470 0.930 . S
H465 C473 0.930 . S
H466 C474 0.930 . S
H467 C475 0.930 . S
H468 C478 0.930 . S
H469 C479 0.930 . S
C470 H464 0.930 . S
C470 C471 1.355 . S
C470 C472 1.415 . S
C471 C470 1.355 . S
C471 C473 1.419 . S
C472 C470 1.415 . S
C472 C477 1.425 . S
C472 C479 1.409 . S
C473 H465 0.930 . S
C473 C471 1.419 . S
C473 C474 1.362 . S
C474 H466 0.930 . S
C474 C473 1.362 . S
C474 C477 1.409 . S
C475 H467 0.930 . S
C475 C476 1.355 . S
C475 C477 1.415 . S
C476 C475 1.355 . S
C476 C478 1.419 . S
C477 C472 1.425 . S
C477 C474 1.409 . S
C477 C475 1.415 . S
C478 H468 0.930 . S
C478 C476 1.419 . S
C478 C479 1.362 . S
C479 H469 0.930 . S
C479 C472 1.409 . S
C479 C478 1.362 . S
H480 C486 0.930 . S
H481 C489 0.930 . S
H482 C490 0.930 . S
H483 C491 0.930 . S
H484 C494 0.930 . S
H485 C495 0.930 . S
C486 H480 0.930 . S
C486 C487 1.355 . S
C486 C488 1.415 . S
C487 C486 1.355 . S
C487 C489 1.419 . S
C488 C486 1.415 . S
C488 C493 1.425 . S
C488 C495 1.409 . S
C489 H481 0.930 . S
C489 C487 1.419 . S
C489 C490 1.362 . S
C490 H482 0.930 . S
C490 C489 1.362 . S
C490 C493 1.409 . S
C491 H483 0.930 . S
C491 C492 1.355 . S
C491 C493 1.415 . S
C492 C491 1.355 . S
C492 C494 1.419 . S
C493 C488 1.425 . S
C493 C490 1.409 . S
C493 C491 1.415 . S
C494 H484 0.930 . S
C494 C492 1.419 . S
C494 C495 1.362 . S
C495 H485 0.930 . S
C495 C488 1.409 . S
C495 C494 1.362 . S
H496 C502 0.930 . S
H497 C505 0.930 . S
H498 C506 0.930 . S
H499 C507 0.930 . S
H500 C510 0.930 1_655 S
H501 C511 0.930 . S
C502 H496 0.930 . S
C502 C503 1.355 . S
C502 C504 1.415 . S
C503 C502 1.355 . S
C503 C505 1.419 . S
C504 C502 1.415 . S
C504 C509 1.425 . S
C504 C511 1.409 . S
C505 H497 0.930 . S
C505 C503 1.419 . S
C505 C506 1.362 . S
C506 H498 0.930 . S
C506 C505 1.362 . S
C506 C509 1.409 . S
C507 H499 0.930 . S
C507 C508 1.355 . S
C507 C509 1.415 . S
C508 C507 1.355 . S
C508 C510 1.419 . S
C509 C504 1.425 . S
C509 C506 1.409 . S
C509 C507 1.415 . S
C510 H500 0.930 1_455 S
C510 C508 1.419 . S
C510 C511 1.362 . S
C511 H501 0.930 . S
C511 C504 1.409 . S
C511 C510 1.362 . S
H512 C518 0.930 . S
H513 C521 0.930 . S
H514 C522 0.930 . S
H515 C523 0.930 . S
H516 C526 0.930 . S
H517 C527 0.957 . S
C518 H512 0.930 . S
C518 C519 1.355 . S
C518 C520 1.415 . S
C519 C518 1.355 . S
C519 C521 1.419 . S
C520 C518 1.415 . S
C520 C525 1.425 1_554 S
C520 C527 1.382 1_564 S
C521 H513 0.930 . S
C521 C519 1.419 . S
C521 C522 1.362 . S
C522 H514 0.930 . S
C522 C521 1.362 . S
C522 C525 1.409 1_554 S
C523 H515 0.930 . S
C523 C524 1.355 . S
C523 C525 1.415 . S
C524 C523 1.355 . S
C524 C526 1.419 1_565 S
C525 C520 1.425 1_556 S
C525 C522 1.409 1_556 S
C525 C523 1.415 . S
C526 H516 0.930 . S
C526 C524 1.419 1_545 S
C526 C527 1.365 . S
C527 H517 0.957 . S
C527 C520 1.382 1_546 S
C527 C526 1.365 . S
H528 C534 0.930 . S
H529 C537 0.930 . S
H530 C538 0.930 . S
H531 C539 0.930 . S
H532 C542 0.930 . S
H533 C543 0.930 . S
C534 H528 0.930 . S
C534 C535 1.355 . S
C534 C536 1.415 1_554 S
C535 C534 1.355 . S
C535 C537 1.419 . S
C536 C534 1.415 1_556 S
C536 C541 1.425 . S
C536 C543 1.409 . S
C537 H529 0.930 . S
C537 C535 1.419 . S
C537 C538 1.362 1_554 S
C538 H530 0.930 . S
C538 C537 1.362 1_556 S
C538 C541 1.409 . S
C539 H531 0.930 . S
C539 C540 1.355 . S
C539 C541 1.415 . S
C540 C539 1.355 . S
C540 C542 1.419 . S
C541 C536 1.425 . S
C541 C538 1.409 . S
C541 C539 1.415 . S
C542 H532 0.930 . S
C542 C540 1.419 . S
C542 C543 1.362 . S
C543 H533 0.930 . S
C543 C536 1.409 . S
C543 C542 1.362 . S
H544 C550 0.930 . S
H545 C553 0.930 . S
H546 C554 0.930 . S
H547 C555 0.930 . S
H548 C558 0.930 . S
H549 C559 0.930 . S
C550 H544 0.930 . S
C550 C551 1.355 . S
C550 C552 1.415 1_554 S
C551 C550 1.355 . S
C551 C553 1.419 . S
C552 C550 1.415 1_556 S
C552 C557 1.425 . S
C552 C559 1.409 . S
C553 H545 0.930 . S
C553 C551 1.419 . S
C553 C554 1.362 1_554 S
C554 H546 0.930 . S
C554 C553 1.362 1_556 S
C554 C557 1.409 . S
C555 H547 0.930 . S
C555 C556 1.355 . S
C555 C557 1.415 . S
C556 C555 1.355 . S
C556 C558 1.419 . S
C557 C552 1.425 . S
C557 C554 1.409 . S
C557 C555 1.415 . S
C558 H548 0.930 . S
C558 C556 1.419 . S
C558 C559 1.362 . S
C559 H549 0.930 . S
C559 C552 1.409 . S
C559 C558 1.362 . S
H560 C566 0.930 . S
H561 C569 0.939 . S
H562 C570 0.940 . S
H563 C571 0.930 1_455 S
H564 C574 0.930 . S
H565 C575 0.930 . S
C566 H560 0.930 . S
C566 C567 1.355 . S
C566 C568 1.415 1_554 S
C567 C566 1.355 . S
C567 C569 1.419 . S
C568 C566 1.415 1_556 S
C568 C573 1.425 . S
C568 C575 1.409 . S
C569 H561 0.939 . S
C569 C567 1.419 . S
C569 C570 1.357 1_655 S
C570 H562 0.940 . S
C570 C569 1.357 1_455 S
C570 C573 1.405 1_454 S
C571 H563 0.930 1_655 S
C571 C572 1.355 . S
C571 C573 1.415 . S
C572 C571 1.355 . S
C572 C574 1.419 . S
C573 C568 1.425 . S
C573 C570 1.405 1_656 S
C573 C571 1.415 . S
C574 H564 0.930 . S
C574 C572 1.419 . S
C574 C575 1.362 . S
C575 H565 0.930 . S
C575 C568 1.409 . S
C575 C574 1.362 . S
H576 C582 0.930 . S
H577 C585 0.930 . S
H578 C586 0.930 . S
H579 C587 0.930 1_655 S
H580 C590 0.930 . S
H581 C591 0.930 . S
C582 H576 0.930 . S
C582 C583 1.355 . S
C582 C584 1.415 . S
C583 C582 1.355 . S
C583 C585 1.419 . S
C584 C582 1.415 . S
C584 C589 1.425 . S
C584 C591 1.409 . S
C585 H577 0.930 . S
C585 C583 1.419 . S
C585 C586 1.362 . S
C586 H578 0.930 . S
C586 C585 1.362 . S
C586 C589 1.409 . S
C587 H579 0.930 1_455 S
C587 C588 1.355 1_455 S
C587 C589 1.415 . S
C588 C587 1.355 1_655 S
C588 C590 1.419 1_655 S
C589 C584 1.425 . S
C589 C586 1.409 . S
C589 C587 1.415 . S
C590 H580 0.930 . S
C590 C588 1.419 1_455 S
C590 C591 1.362 . S
C591 H581 0.930 . S
C591 C584 1.409 . S
C591 C590 1.362 . S
H592 C598 0.930 . S
H593 C601 0.930 . S
H594 C602 0.930 1_565 S
H595 C603 0.930 . S
H596 C606 0.930 . S
H597 C607 0.930 . S
C598 H592 0.930 . S
C598 C599 1.355 . S
C598 C600 1.415 . S
C599 C598 1.355 . S
C599 C601 1.419 . S
C600 C598 1.415 . S
C600 C605 1.425 . S
C600 C607 1.409 . S
C601 H593 0.930 . S
C601 C599 1.419 . S
C601 C602 1.362 . S
C602 H594 0.930 1_545 S
C602 C601 1.362 . S
C602 C605 1.409 . S
C603 H595 0.930 . S
C603 C604 1.355 . S
C603 C605 1.415 1_565 S
C604 C603 1.355 . S
C604 C606 1.419 1_565 S
C605 C600 1.425 . S
C605 C602 1.409 . S
C605 C603 1.415 1_545 S
C606 H596 0.930 . S
C606 C604 1.419 1_545 S
C606 C607 1.362 . S
C607 H597 0.930 . S
C607 C600 1.409 . S
C607 C606 1.362 . S
H608 C614 0.930 . S
H609 C617 0.930 . S
H610 C618 0.930 . S
H611 C619 0.930 . S
H612 C622 0.930 . S
H613 C623 0.930 . S
C614 H608 0.930 . S
C614 C615 1.355 . S
C614 C616 1.415 . S
C615 C614 1.355 . S
C615 C617 1.419 . S
C616 C614 1.415 . S
C616 C621 1.425 . S
C616 C623 1.409 . S
C617 H609 0.930 . S
C617 C615 1.419 . S
C617 C618 1.362 . S
C618 H610 0.930 . S
C618 C617 1.362 . S
C618 C621 1.409 . S
C619 H611 0.930 . S
C619 C620 1.355 . S
C619 C621 1.415 . S
C620 C619 1.355 . S
C620 C622 1.419 . S
C621 C616 1.425 . S
C621 C618 1.409 . S
C621 C619 1.415 . S
C622 H612 0.930 . S
C622 C620 1.419 . S
C622 C623 1.362 . S
C623 H613 0.930 . S
C623 C616 1.409 . S
C623 C622 1.362 . S
H624 C630 0.930 . S
H625 C633 0.930 . S
H626 C634 0.930 . S
H627 C635 0.930 . S
H628 C638 0.930 . S
H629 C639 0.930 . S
C630 H624 0.930 . S
C630 C631 1.355 . S
C630 C632 1.415 . S
C631 C630 1.355 . S
C631 C633 1.419 . S
C632 C630 1.415 . S
C632 C637 1.425 . S
C632 C639 1.409 . S
C633 H625 0.930 . S
C633 C631 1.419 . S
C633 C634 1.362 . S
C634 H626 0.930 . S
C634 C633 1.362 . S
C634 C637 1.409 . S
C635 H627 0.930 . S
C635 C636 1.355 . S
C635 C637 1.415 . S
C636 C635 1.355 . S
C636 C638 1.419 . S
C637 C632 1.425 . S
C637 C634 1.409 . S
C637 C635 1.415 . S
C638 H628 0.930 . S
C638 C636 1.419 . S
C638 C639 1.362 . S
C639 H629 0.930 . S
C639 C632 1.409 . S
C639 C638 1.362 . S
H640 C646 0.930 . S
H641 C649 0.930 . S
H642 C650 0.924 1_455 S
H643 C651 0.930 . S
H644 C654 0.930 . S
H645 C655 0.930 . S
C646 H640 0.930 . S
C646 C647 1.355 . S
C646 C648 1.415 . S
C647 C646 1.355 . S
C647 C649 1.419 1_554 S
C648 C646 1.415 . S
C648 C653 1.425 . S
C648 C655 1.409 . S
C649 H641 0.930 . S
C649 C647 1.419 1_556 S
C649 C650 1.362 . S
C650 H642 0.924 1_655 S
C650 C649 1.362 . S
C650 C653 1.409 1_556 S
C651 H643 0.930 . S
C651 C652 1.355 1_556 S
C651 C653 1.415 1_456 S
C652 C651 1.355 1_554 S
C652 C654 1.419 . S
C653 C648 1.425 . S
C653 C650 1.409 1_554 S
C653 C651 1.415 1_654 S
C654 H644 0.930 . S
C654 C652 1.419 . S
C654 C655 1.362 1_455 S
C655 H645 0.930 . S
C655 C648 1.409 . S
C655 C654 1.362 1_655 S
H656 C662 0.930 . S
H657 C665 0.930 . S
H658 C666 0.930 . S
H659 C667 0.930 . S
H660 C670 0.930 . S
H661 C671 0.930 . S
C662 H656 0.930 . S
C662 C663 1.355 . S
C662 C664 1.415 1_554 S
C663 C662 1.355 . S
C663 C665 1.419 . S
C664 C662 1.415 1_556 S
C664 C669 1.425 1_566 S
C664 C671 1.409 . S
C665 H657 0.930 . S
C665 C663 1.419 . S
C665 C666 1.362 1_565 S
C666 H658 0.930 . S
C666 C665 1.362 1_545 S
C666 C669 1.409 . S
C667 H659 0.930 . S
C667 C668 1.355 . S
C667 C669 1.415 1_556 S
C668 C667 1.355 . S
C668 C670 1.419 1_545 S
C669 C664 1.425 1_544 S
C669 C666 1.409 . S
C669 C667 1.415 1_554 S
C670 H660 0.930 . S
C670 C668 1.419 1_565 S
C670 C671 1.362 . S
C671 H661 0.930 . S
C671 C664 1.409 . S
C671 C670 1.362 . S
H672 C678 0.930 . S
H673 C681 0.930 . S
H674 C682 0.930 . S
H675 C683 0.930 . S
H676 C686 0.930 . S
H677 C687 0.930 1_554 S
C678 H672 0.930 . S
C678 C679 1.355 . S
C678 C680 1.415 1_554 S
C679 C678 1.355 . S
C679 C681 1.419 1_554 S
C680 C678 1.415 1_556 S
C680 C685 1.425 . S
C680 C687 1.409 . S
C681 H673 0.930 . S
C681 C679 1.419 1_556 S
C681 C682 1.362 . S
C682 H674 0.930 . S
C682 C681 1.362 . S
C682 C685 1.409 . S
C683 H675 0.930 . S
C683 C684 1.355 . S
C683 C685 1.415 . S
C684 C683 1.355 . S
C684 C686 1.419 . S
C685 C680 1.425 . S
C685 C682 1.409 . S
C685 C683 1.415 . S
C686 H676 0.930 . S
C686 C684 1.419 . S
C686 C687 1.362 . S
C687 H677 0.930 1_556 S
C687 C680 1.409 . S
C687 C686 1.362 . S
H688 C694 0.930 1_556 S
H689 C697 0.930 . S
H690 C698 0.930 . S
H691 C699 0.930 . S
H692 C702 0.930 . S
H693 C703 0.930 . S
C694 H688 0.930 1_554 S
C694 C695 1.355 . S
C694 C696 1.415 1_554 S
C695 C694 1.355 . S
C695 C697 1.419 . S
C696 C694 1.415 1_556 S
C696 C701 1.425 1_556 S
C696 C703 1.409 . S
C697 H689 0.930 . S
C697 C695 1.419 . S
C697 C698 1.362 . S
C698 H690 0.930 . S
C698 C697 1.362 . S
C698 C701 1.409 . S
C699 H691 0.930 . S
C699 C700 1.355 1_554 S
C699 C701 1.415 . S
C700 C699 1.355 1_556 S
C700 C702 1.419 . S
C701 C696 1.425 1_554 S
C701 C698 1.409 . S
C701 C699 1.415 . S
C702 H692 0.930 . S
C702 C700 1.419 . S
C702 C703 1.362 . S
C703 H693 0.930 . S
C703 C696 1.409 . S
C703 C702 1.362 . S
H704 C710 0.930 . S
H705 C713 0.930 . S
H706 C714 0.930 . S
H707 C715 0.930 . S
H708 C718 0.930 . S
H709 C719 0.930 . S
C710 H704 0.930 . S
C710 C711 1.355 . S
C710 C712 1.415 . S
C711 C710 1.355 . S
C711 C713 1.419 . S
C712 C710 1.415 . S
C712 C717 1.425 . S
C712 C719 1.409 . S
C713 H705 0.930 . S
C713 C711 1.419 . S
C713 C714 1.362 . S
C714 H706 0.930 . S
C714 C713 1.362 . S
C714 C717 1.409 . S
C715 H707 0.930 . S
C715 C716 1.355 . S
C715 C717 1.415 . S
C716 C715 1.355 . S
C716 C718 1.419 . S
C717 C712 1.425 . S
C717 C714 1.409 . S
C717 C715 1.415 . S
C718 H708 0.930 . S
C718 C716 1.419 . S
C718 C719 1.362 . S
C719 H709 0.930 . S
C719 C712 1.409 . S
C719 C718 1.362 . S
H720 C726 0.930 . S
H721 C729 0.930 . S
H722 C730 0.930 1_565 S
H723 C731 0.930 . S
H724 C734 0.930 . S
H725 C735 0.930 . S
C726 H720 0.930 . S
C726 C727 1.355 . S
C726 C728 1.415 . S
C727 C726 1.355 . S
C727 C729 1.419 . S
C728 C726 1.415 . S
C728 C733 1.425 . S
C728 C735 1.409 . S
C729 H721 0.930 . S
C729 C727 1.419 . S
C729 C730 1.362 . S
C730 H722 0.930 1_545 S
C730 C729 1.362 . S
C730 C733 1.409 . S
C731 H723 0.930 . S
C731 C732 1.355 . S
C731 C733 1.415 . S
C732 C731 1.355 . S
C732 C734 1.419 . S
C733 C728 1.425 . S
C733 C730 1.409 . S
C733 C731 1.415 . S
C734 H724 0.930 . S
C734 C732 1.419 . S
C734 C735 1.362 . S
C735 H725 0.930 . S
C735 C728 1.409 . S
C735 C734 1.362 . S
H736 C742 0.930 . S
H737 C745 0.930 . S
H738 C746 0.930 . S
H739 C747 0.930 . S
H740 C750 0.930 . S
H741 C751 0.930 . S
C742 H736 0.930 . S
C742 C743 1.355 . S
C742 C744 1.415 . S
C743 C742 1.355 . S
C743 C745 1.419 . S
C744 C742 1.415 . S
C744 C749 1.425 . S
C744 C751 1.409 . S
C745 H737 0.930 . S
C745 C743 1.419 . S
C745 C746 1.362 . S
C746 H738 0.930 . S
C746 C745 1.362 . S
C746 C749 1.409 . S
C747 H739 0.930 . S
C747 C748 1.355 . S
C747 C749 1.415 . S
C748 C747 1.355 . S
C748 C750 1.419 . S
C749 C744 1.425 . S
C749 C746 1.409 . S
C749 C747 1.415 . S
C750 H740 0.930 . S
C750 C748 1.419 . S
C750 C751 1.362 . S
C751 H741 0.930 . S
C751 C744 1.409 . S
C751 C750 1.362 . S
H752 C758 0.930 . S
H753 C761 0.930 . S
H754 C762 0.930 . S
H755 C763 0.930 . S
H756 C766 0.930 . S
H757 C767 0.930 . S
C758 H752 0.930 . S
C758 C759 1.355 . S
C758 C760 1.415 . S
C759 C758 1.355 . S
C759 C761 1.419 . S
C760 C758 1.415 . S
C760 C765 1.425 . S
C760 C767 1.409 . S
C761 H753 0.930 . S
C761 C759 1.419 . S
C761 C762 1.362 . S
C762 H754 0.930 . S
C762 C761 1.362 . S
C762 C765 1.409 . S
C763 H755 0.930 . S
C763 C764 1.355 . S
C763 C765 1.415 . S
C764 C763 1.355 . S
C764 C766 1.419 . S
C765 C760 1.425 . S
C765 C762 1.409 . S
C765 C763 1.415 . S
C766 H756 0.930 . S
C766 C764 1.419 . S
C766 C767 1.362 . S
C767 H757 0.930 . S
C767 C760 1.409 . S
C767 C766 1.362 . S
H768 C774 0.930 . S
H769 C777 0.930 . S
H770 C778 0.896 1_455 S
H771 C779 0.930 1_455 S
H772 C782 0.930 . S
H773 C783 0.930 . S
C774 H768 0.930 . S
C774 C775 1.355 . S
C774 C776 1.415 . S
C775 C774 1.355 . S
C775 C777 1.419 . S
C776 C774 1.415 . S
C776 C781 1.425 . S
C776 C783 1.409 . S
C777 H769 0.930 . S
C777 C775 1.419 . S
C777 C778 1.375 . S
C778 H770 0.896 1_655 S
C778 C777 1.375 . S
C778 C781 1.431 . S
C779 H771 0.930 1_655 S
C779 C780 1.355 . S
C779 C781 1.415 . S
C780 C779 1.355 . S
C780 C782 1.419 . S
C781 C776 1.425 . S
C781 C778 1.431 . S
C781 C779 1.415 . S
C782 H772 0.930 . S
C782 C780 1.419 . S
C782 C783 1.362 . S
C783 H773 0.930 . S
C783 C776 1.409 . S
C783 C782 1.362 . S
H784 C790 0.930 . S
H785 C793 0.930 . S
H786 C794 0.930 . S
H787 C795 0.930 . S
H788 C798 0.929 . S
H789 C799 0.945 . S
C790 H784 0.930 . S
C790 C791 1.355 . S
C790 C792 1.415 . S
C791 C790 1.355 . S
C791 C793 1.419 . S
C792 C790 1.415 . S
C792 C797 1.425 . S
C792 C799 1.409 . S
C793 H785 0.930 . S
C793 C791 1.419 . S
C793 C794 1.362 . S
C794 H786 0.930 . S
C794 C793 1.362 . S
C794 C797 1.409 . S
C795 H787 0.930 . S
C795 C796 1.355 . S
C795 C797 1.415 . S
C796 C795 1.355 . S
C796 C798 1.419 . S
C797 C792 1.425 . S
C797 C794 1.409 . S
C797 C795 1.415 . S
C798 H788 0.929 . S
C798 C796 1.419 . S
C798 C799 1.362 . S
C799 H789 0.945 . S
C799 C792 1.409 . S
C799 C798 1.362 . S
H800 C806 0.930 . S
H801 C809 0.930 . S
H802 C810 0.930 . S
H803 C811 0.930 . S
H804 C814 0.930 . S
H805 C815 0.930 . S
C806 H800 0.930 . S
C806 C807 1.355 . S
C806 C808 1.415 . S
C807 C806 1.355 . S
C807 C809 1.419 . S
C808 C806 1.415 . S
C808 C813 1.425 . S
C808 C815 1.409 . S
C809 H801 0.930 . S
C809 C807 1.419 . S
C809 C810 1.362 . S
C810 H802 0.930 . S
C810 C809 1.362 . S
C810 C813 1.409 . S
C811 H803 0.930 . S
C811 C812 1.355 . S
C811 C813 1.415 . S
C812 C811 1.355 . S
C812 C814 1.419 . S
C813 C808 1.425 . S
C813 C810 1.409 . S
C813 C811 1.415 . S
C814 H804 0.930 . S
C814 C812 1.419 . S
C814 C815 1.362 . S
C815 H805 0.930 . S
C815 C808 1.409 . S
C815 C814 1.362 . S
H816 C822 0.930 . S
H817 C825 0.930 . S
H818 C826 0.930 . S
H819 C827 0.930 . S
H820 C830 0.930 . S
H821 C831 0.930 . S
C822 H816 0.930 . S
C822 C823 1.355 . S
C822 C824 1.415 . S
C823 C822 1.355 . S
C823 C825 1.419 . S
C824 C822 1.415 . S
C824 C829 1.425 . S
C824 C831 1.409 . S
C825 H817 0.930 . S
C825 C823 1.419 . S
C825 C826 1.362 . S
C826 H818 0.930 . S
C826 C825 1.362 . S
C826 C829 1.409 . S
C827 H819 0.930 . S
C827 C828 1.355 . S
C827 C829 1.415 . S
C828 C827 1.355 . S
C828 C830 1.419 . S
C829 C824 1.425 . S
C829 C826 1.409 . S
C829 C827 1.415 . S
C830 H820 0.930 . S
C830 C828 1.419 . S
C830 C831 1.362 . S
C831 H821 0.930 . S
C831 C824 1.409 . S
C831 C830 1.362 . S
C455 C241 2.790 . S
C460 C319 3.047 . S
C476 C345 2.603 . S
C471 C277 2.373 . S
C492 C385 2.514 . S
C487 C169 2.263 . S
C508 C439 2.953 . S
C503 C205 2.713 . S
C524 C300 3.045 . S
C519 C97 2.762 . S
C535 C133 2.334 . S
C540 C330 2.597 . S
C551 C25 2.168 . S
C556 C370 2.502 . S
C567 C61 2.723 . S
C572 C420 2.978 1_655 S
C588 C296 0.486 . S
C583 C211 0.488 . S
C604 C357 0.710 . S
C599 C247 0.702 . S
C620 C397 0.414 . S
C615 C253 0.374 . S
C631 C175 0.443 . S
C636 C416 0.420 . S
C647 C67 0.720 . S
C652 C317 0.673 1_554 S
C668 C336 0.695 . S
C663 C103 0.668 . S
C684 C376 0.476 . S
C679 C109 0.433 . S
C695 C31 0.532 . S
C700 C437 0.464 . S
C711 C181 2.714 . S
C716 C290 3.085 . S
C727 C217 3.249 . S
C732 C340 3.600 . S
C748 C380 3.343 . S
C743 C283 2.981 . S
C764 C410 2.796 . S
C759 C145 2.475 . S
C775 C37 2.645 . S
C780 C305 3.069 . S
C796 C359 3.598 . S
C791 C73 3.259 . S
C812 C399 3.344 . S
C807 C139 2.940 . S
C823 C1 2.450 . S
C828 C425 2.789 . S
