# Generated by pormake.
# Topology wbl, (4,4)-cn, num edge types: 1
# Building blocks:
#     Node 0, Type 0, BuildingBlock: MUDLON_clean_linker_0, # of connection points: 4
#     Node 1, Type 0, BuildingBlock: MUDLON_clean_linker_0, # of connection points: 4
#     Node 2, Type 0, BuildingBlock: MUDLON_clean_linker_0, # of connection points: 4
#     Node 3, Type 0, BuildingBlock: MUDLON_clean_linker_0, # of connection points: 4
#     Node 4, Type 0, BuildingBlock: MUDLON_clean_linker_0, # of connection points: 4
#     Node 5, Type 0, BuildingBlock: MUDLON_clean_linker_0, # of connection points: 4
#     Node 6, Type 0, BuildingBlock: MUDLON_clean_linker_0, # of connection points: 4
#     Node 7, Type 0, BuildingBlock: MUDLON_clean_linker_0, # of connection points: 4
#     Node 8, Type 1, BuildingBlock: QUQFOY_clean_sbu_1, # of connection points: 4
#     Node 9, Type 1, BuildingBlock: QUQFOY_clean_sbu_1, # of connection points: 4
#     Node 10, Type 1, BuildingBlock: QUQFOY_clean_sbu_1, # of connection points: 4
#     Node 11, Type 1, BuildingBlock: QUQFOY_clean_sbu_1, # of connection points: 4
#     Node 12, Type 1, BuildingBlock: QUQFOY_clean_sbu_1, # of connection points: 4
#     Node 13, Type 1, BuildingBlock: QUQFOY_clean_sbu_1, # of connection points: 4
#     Node 14, Type 1, BuildingBlock: QUQFOY_clean_sbu_1, # of connection points: 4
#     Node 15, Type 1, BuildingBlock: QUQFOY_clean_sbu_1, # of connection points: 4
#     Edge 16, Type (0, 1), BuildingBlock: AJUNOK_clean_linker_0, # of connection points: 2
#     Edge 17, Type (0, 1), BuildingBlock: AJUNOK_clean_linker_0, # of connection points: 2
#     Edge 18, Type (0, 1), BuildingBlock: AJUNOK_clean_linker_0, # of connection points: 2
#     Edge 19, Type (0, 1), BuildingBlock: AJUNOK_clean_linker_0, # of connection points: 2
#     Edge 20, Type (0, 1), BuildingBlock: AJUNOK_clean_linker_0, # of connection points: 2
#     Edge 21, Type (0, 1), BuildingBlock: AJUNOK_clean_linker_0, # of connection points: 2
#     Edge 22, Type (0, 1), BuildingBlock: AJUNOK_clean_linker_0, # of connection points: 2
#     Edge 23, Type (0, 1), BuildingBlock: AJUNOK_clean_linker_0, # of connection points: 2
#     Edge 24, Type (0, 1), BuildingBlock: AJUNOK_clean_linker_0, # of connection points: 2
#     Edge 25, Type (0, 1), BuildingBlock: AJUNOK_clean_linker_0, # of connection points: 2
#     Edge 26, Type (0, 1), BuildingBlock: AJUNOK_clean_linker_0, # of connection points: 2
#     Edge 27, Type (0, 1), BuildingBlock: AJUNOK_clean_linker_0, # of connection points: 2
#     Edge 28, Type (0, 1), BuildingBlock: AJUNOK_clean_linker_0, # of connection points: 2
#     Edge 29, Type (0, 1), BuildingBlock: AJUNOK_clean_linker_0, # of connection points: 2
#     Edge 30, Type (0, 1), BuildingBlock: AJUNOK_clean_linker_0, # of connection points: 2
#     Edge 31, Type (0, 1), BuildingBlock: AJUNOK_clean_linker_0, # of connection points: 2
#     Edge 32, Type (0, 1), BuildingBlock: AJUNOK_clean_linker_0, # of connection points: 2
#     Edge 33, Type (0, 1), BuildingBlock: AJUNOK_clean_linker_0, # of connection points: 2
#     Edge 34, Type (0, 1), BuildingBlock: AJUNOK_clean_linker_0, # of connection points: 2
#     Edge 35, Type (0, 1), BuildingBlock: AJUNOK_clean_linker_0, # of connection points: 2
#     Edge 36, Type (0, 1), BuildingBlock: AJUNOK_clean_linker_0, # of connection points: 2
#     Edge 37, Type (0, 1), BuildingBlock: AJUNOK_clean_linker_0, # of connection points: 2
#     Edge 38, Type (0, 1), BuildingBlock: AJUNOK_clean_linker_0, # of connection points: 2
#     Edge 39, Type (0, 1), BuildingBlock: AJUNOK_clean_linker_0, # of connection points: 2
#     Edge 40, Type (0, 1), BuildingBlock: AJUNOK_clean_linker_0, # of connection points: 2
#     Edge 41, Type (0, 1), BuildingBlock: AJUNOK_clean_linker_0, # of connection points: 2
#     Edge 42, Type (0, 1), BuildingBlock: AJUNOK_clean_linker_0, # of connection points: 2
#     Edge 43, Type (0, 1), BuildingBlock: AJUNOK_clean_linker_0, # of connection points: 2
#     Edge 44, Type (0, 1), BuildingBlock: AJUNOK_clean_linker_0, # of connection points: 2
#     Edge 45, Type (0, 1), BuildingBlock: AJUNOK_clean_linker_0, # of connection points: 2
#     Edge 46, Type (0, 1), BuildingBlock: AJUNOK_clean_linker_0, # of connection points: 2
#     Edge 47, Type (0, 1), BuildingBlock: AJUNOK_clean_linker_0, # of connection points: 2
# Relax obj value: 0.139
# Max RMSD: 0.212
# Mean RMSD: 0.165
data_MOF--net-wbl--node1-QUQFOY_clean_sbu_1--node2-MUDLON_clean_linker_0--edge1-AJUNOK_clean_linker_0
_symmetry_space_group_name_H-M    P1
_symmetry_Int_Tables_number       1
_symmetry_cell_setting            triclinic
loop_
_symmetry_equiv_pos_as_xyz
'x, y, z'
_cell_length_a     43.398499
_cell_length_b     43.424482
_cell_length_c     63.531595
_cell_angle_alpha  93.646409
_cell_angle_beta   93.634919
_cell_angle_gamma 90.233082
loop_
_atom_site_label
_atom_site_type_symbol
_atom_site_fract_x
_atom_site_fract_y
_atom_site_fract_z
_atom_type_partial_charge
H0 H 0.23053 0.9946 0.36374 0.0
N1 N 0.18144 0.96921 0.33955 0.0
H2 H 0.2432 0.98718 0.40131 0.0
H3 H 0.15011 0.93635 0.36492 0.0
H4 H 0.16316 0.92813 0.40233 0.0
H5 H 0.19329 0.91022 0.33168 0.0
H6 H 0.23697 0.88772 0.31446 0.0
H7 H 0.22264 1.00096 0.31698 0.0
H8 H 0.2651 0.97837 0.29821 0.0
H9 H 0.20102 0.02961 0.34443 0.0
H10 H 0.12294 0.97063 0.32512 0.0
H11 H 0.16878 0.0749 0.34109 0.0
H12 H 0.0898 0.01569 0.32308 0.0
H13 H 0.0293 0.20405 0.36267 0.0
H14 H 0.00852 0.21362 0.39742 0.0
H15 H 0.01658 0.1166 0.40797 0.0
H16 H 0.03486 0.10687 0.37279 0.0
H17 H 0.9935 0.1071 0.34295 0.0
H18 H 0.94186 0.11133 0.32602 0.0
H19 H 0.97049 0.19285 0.29658 0.0
H20 H 0.02192 0.18934 0.31464 0.0
H21 H 0.09564 0.14277 0.36359 0.0
H22 H 0.13158 0.10047 0.35976 0.0
H23 H 0.07404 0.06029 0.30698 0.0
N24 N 0.04037 0.1495 0.34298 0.0
H25 H 0.03738 0.10145 0.31149 0.0
C26 C 0.18907 0.96629 0.36171 0.0
C27 C 0.21537 0.98063 0.37217 0.0
C28 C 0.22265 0.9763 0.39355 0.0
C29 C 0.20402 0.95722 0.40459 0.0
C30 C 0.17781 0.94295 0.39408 0.0
C31 C 0.17031 0.94765 0.37285 0.0
C32 C 0.2044 0.95721 0.32578 0.0
C33 C 0.20853 0.92519 0.32403 0.0
C34 C 0.23341 0.91231 0.31389 0.0
C35 C 0.25443 0.93111 0.3045 0.0
C36 C 0.24946 0.96319 0.30532 0.0
C37 C 0.22491 0.97619 0.31604 0.0
C38 C 0.16445 0.99658 0.33465 0.0
C39 C 0.17703 0.02635 0.33906 0.0
C40 C 0.15832 0.05235 0.33748 0.0
C41 C 0.12644 0.04917 0.33204 0.0
C42 C 0.11425 0.01932 0.32696 0.0
C43 C 0.13312 0.99342 0.32817 0.0
C44 C 0.03375 0.15489 0.36501 0.0
C45 C 0.02694 0.18497 0.37263 0.0
C46 C 0.01511 0.19037 0.39249 0.0
C47 C 0.01018 0.16575 0.40525 0.0
C48 C 0.01904 0.13592 0.39823 0.0
C49 C 0.03008 0.1304 0.3782 0.0
C50 C 0.01161 0.14809 0.33011 0.0
C51 C 0.98882 0.12567 0.33267 0.0
C52 C 0.95933 0.12795 0.32278 0.0
C53 C 0.95209 0.15235 0.30984 0.0
C54 C 0.97531 0.17391 0.30656 0.0
C55 C 0.00474 0.1718 0.31666 0.0
C56 C 0.06243 0.12487 0.33891 0.0
C57 C 0.09045 0.12468 0.35132 0.0
C58 C 0.11137 0.10056 0.34887 0.0
C59 C 0.10557 0.07641 0.33328 0.0
C60 C 0.0788 0.0778 0.31968 0.0
C61 C 0.05757 0.10166 0.32237 0.0
H62 H 0.96556 0.48876 0.60798 0.0
N63 N 0.93377 0.52564 0.58067 0.0
H64 H 0.95231 0.47818 0.64342 0.0
H65 H 0.88726 0.54914 0.60185 0.0
H66 H 0.87377 0.53842 0.63774 0.0
H67 H 0.88522 0.50055 0.55855 0.0
H68 H 0.88106 0.44797 0.54197 0.0
H69 H 0.98282 0.48775 0.57203 0.0
H70 H 0.97847 0.43518 0.55584 0.0
H71 H 0.99406 0.52952 0.59717 0.0
H72 H 0.92493 0.57552 0.55909 0.0
H73 H 0.02888 0.57322 0.59614 0.0
H74 H 0.96014 0.61952 0.55766 0.0
H75 H 0.11804 0.67158 0.61409 0.0
H76 H 0.13947 0.6759 0.65074 0.0
H77 H 0.07475 0.74821 0.66523 0.0
H78 H 0.05314 0.74359 0.62846 0.0
H79 H 0.0607 0.76374 0.5855 0.0
H80 H 0.09558 0.7986 0.56969 0.0
H81 H 0.16146 0.72485 0.56285 0.0
H82 H 0.12686 0.69056 0.57958 0.0
H83 H 0.09272 0.65019 0.58306 0.0
H84 H 0.06024 0.60441 0.57471 0.0
H85 H 0.97898 0.65963 0.58389 0.0
N86 N 0.07265 0.70738 0.59689 0.0
H87 H 0.01174 0.70527 0.59209 0.0
C88 C 0.92745 0.52004 0.60217 0.0
C89 C 0.9457 0.5001 0.61426 0.0
C90 C 0.93809 0.49398 0.6346 0.0
C91 C 0.91196 0.50739 0.64329 0.0
C92 C 0.89384 0.52752 0.63132 0.0
C93 C 0.90162 0.5338 0.61095 0.0
C94 C 0.93413 0.49813 0.5667 0.0
C95 C 0.90591 0.48687 0.55723 0.0
C96 C 0.90356 0.45697 0.54775 0.0
C97 C 0.92951 0.43789 0.54757 0.0
C98 C 0.95829 0.4498 0.55557 0.0
C99 C 0.96069 0.47982 0.56495 0.0
C100 C 0.95657 0.54925 0.57827 0.0
C101 C 0.98646 0.54869 0.58821 0.0
C102 C 0.00658 0.57377 0.5875 0.0
C103 C 0.99728 0.59998 0.57689 0.0
C104 C 0.9679 0.59987 0.56618 0.0
C105 C 0.94782 0.57473 0.56688 0.0
C106 C 0.08389 0.70728 0.61864 0.0
C107 C 0.10806 0.68795 0.62518 0.0
C108 C 0.12029 0.69041 0.6461 0.0
C109 C 0.10882 0.7125 0.66064 0.0
C110 C 0.08409 0.73118 0.65421 0.0
C111 C 0.07172 0.72852 0.63335 0.0
C112 C 0.09095 0.72458 0.58357 0.0
C113 C 0.08236 0.75496 0.58013 0.0
C114 C 0.1024 0.77483 0.57114 0.0
C115 C 0.13156 0.76467 0.56528 0.0
C116 C 0.1395 0.73362 0.56767 0.0
C117 C 0.11946 0.71378 0.5769 0.0
C118 C 0.05455 0.68121 0.58828 0.0
C119 C 0.06796 0.65262 0.58288 0.0
C120 C 0.04932 0.62636 0.57821 0.0
C121 C 0.017 0.62828 0.57877 0.0
C122 C 0.00372 0.65731 0.58305 0.0
C123 C 0.02236 0.68343 0.58778 0.0
H124 H 0.64198 0.45706 0.85665 0.0
N125 N 0.59056 0.43773 0.83169 0.0
H126 H 0.65418 0.4457 0.89325 0.0
H127 H 0.55926 0.40128 0.85521 0.0
H128 H 0.57198 0.38931 0.89215 0.0
H129 H 0.60175 0.38528 0.80978 0.0
H130 H 0.64623 0.37319 0.78883 0.0
H131 H 0.63453 0.47912 0.82112 0.0
H132 H 0.67902 0.46705 0.80082 0.0
H133 H 0.604 0.49544 0.85073 0.0
H134 H 0.53724 0.44382 0.80923 0.0
H135 H 0.57158 0.54048 0.84982 0.0
H136 H 0.50471 0.48981 0.80754 0.0
H137 H 0.47196 0.68006 0.86249 0.0
H138 H 0.46312 0.6944 0.89961 0.0
H139 H 0.43353 0.60112 0.90774 0.0
H140 H 0.44247 0.58692 0.87094 0.0
H141 H 0.40195 0.60303 0.84443 0.0
H142 H 0.35463 0.62374 0.82839 0.0
H143 H 0.40847 0.68486 0.79386 0.0
H144 H 0.45598 0.66475 0.81073 0.0
H145 H 0.51989 0.62501 0.83477 0.0
H146 H 0.55238 0.57987 0.82876 0.0
H147 H 0.47218 0.52063 0.82952 0.0
N148 N 0.46038 0.62603 0.84147 0.0
H149 H 0.43982 0.56597 0.83448 0.0
C150 C 0.59943 0.43012 0.85307 0.0
C151 C 0.62645 0.44222 0.86408 0.0
C152 C 0.63346 0.43576 0.88506 0.0
C153 C 0.61398 0.41671 0.89544 0.0
C154 C 0.58741 0.40395 0.8844 0.0
C155 C 0.58014 0.4108 0.86341 0.0
C156 C 0.61458 0.43299 0.81707 0.0
C157 C 0.61815 0.4034 0.80739 0.0
C158 C 0.64358 0.39653 0.79551 0.0
C159 C 0.66605 0.41921 0.79305 0.0
C160 C 0.66179 0.44924 0.80198 0.0
C161 C 0.63631 0.45612 0.8138 0.0
C162 C 0.57299 0.46583 0.83014 0.0
C163 C 0.58251 0.49373 0.84119 0.0
C164 C 0.56393 0.51983 0.84047 0.0
C165 C 0.53545 0.51894 0.82856 0.0
C166 C 0.5263 0.49126 0.81708 0.0
C167 C 0.54492 0.46503 0.8179 0.0
C168 C 0.45824 0.63248 0.8639 0.0
C169 C 0.46415 0.66262 0.87243 0.0
C170 C 0.45894 0.67077 0.89352 0.0
C171 C 0.44785 0.64878 0.90652 0.0
C172 C 0.44264 0.61836 0.89816 0.0
C173 C 0.44772 0.61026 0.87704 0.0
C174 C 0.43264 0.6326 0.8289 0.0
C175 C 0.40374 0.62041 0.83312 0.0
C176 C 0.3766 0.63232 0.82392 0.0
C177 C 0.3778 0.65647 0.81026 0.0
C178 C 0.40678 0.6669 0.80481 0.0
C179 C 0.43391 0.65516 0.81417 0.0
C180 C 0.4776 0.59897 0.8353 0.0
C181 C 0.50932 0.60227 0.83322 0.0
C182 C 0.52785 0.57641 0.83 0.0
C183 C 0.51504 0.54649 0.82904 0.0
C184 C 0.48287 0.54327 0.83007 0.0
C185 C 0.46428 0.56927 0.83307 0.0
H186 H 0.53043 0.92196 0.13264 0.0
N187 N 0.49566 0.96593 0.11325 0.0
H188 H 0.52911 0.90909 0.16929 0.0
H189 H 0.46666 0.99623 0.14377 0.0
H190 H 0.46537 0.98343 0.18084 0.0
H191 H 0.43743 0.94821 0.10474 0.0
H192 H 0.41851 0.89919 0.08727 0.0
H193 H 0.53076 0.92244 0.09232 0.0
H194 H 0.51197 0.87418 0.07443 0.0
H195 H 0.55875 0.95845 0.11643 0.0
H196 H 0.48598 0.01681 0.09281 0.0
H197 H 0.59715 0.99218 0.1034 0.0
H198 H 0.52471 0.05118 0.07987 0.0
H199 H 0.70677 0.0712 0.0987 0.0
H200 H 0.72908 0.08437 0.13475 0.0
H201 H 0.67507 0.16759 0.13734 0.0
H202 H 0.65304 0.15457 0.10176 0.0
H203 H 0.62666 0.15157 0.06768 0.0
H204 H 0.64004 0.19545 0.0481 0.0
H205 H 0.72241 0.14874 0.02907 0.0
H206 H 0.7099 0.10555 0.05008 0.0
H207 H 0.65766 0.04443 0.06241 0.0
H208 H 0.61476 0.00989 0.06863 0.0
H209 H 0.56698 0.08669 0.09788 0.0
N210 N 0.66518 0.10288 0.07647 0.0
H211 H 0.60983 0.12073 0.09204 0.0
C212 C 0.49875 0.96037 0.13544 0.0
C213 C 0.5168 0.93612 0.14308 0.0
C214 C 0.51608 0.92876 0.16412 0.0
C215 C 0.49734 0.94545 0.17797 0.0
C216 C 0.48004 0.97024 0.1705 0.0
C217 C 0.48087 0.97766 0.14943 0.0
C218 C 0.4854 0.93924 0.0999 0.0
C219 C 0.45373 0.93234 0.09783 0.0
C220 C 0.443 0.90437 0.08789 0.0
C221 C 0.46385 0.88267 0.07984 0.0
C222 C 0.49546 0.89018 0.08096 0.0
C223 C 0.5062 0.91808 0.091 0.0
C224 C 0.51925 0.98504 0.10555 0.0
C225 C 0.55089 0.97836 0.10833 0.0
C226 C 0.57294 0.99763 0.10074 0.0
C227 C 0.56391 0.02419 0.09048 0.0
C228 C 0.53231 0.03087 0.08773 0.0
C229 C 0.51024 0.01132 0.09508 0.0
C230 C 0.67863 0.11197 0.09731 0.0
C231 C 0.70001 0.09238 0.10703 0.0
C232 C 0.71256 0.09982 0.12757 0.0
C233 C 0.70403 0.12716 0.13863 0.0
C234 C 0.68248 0.14668 0.12896 0.0
C235 C 0.66983 0.13916 0.10854 0.0
C236 C 0.6678 0.12541 0.06089 0.0
C237 C 0.64742 0.15038 0.05919 0.0
C238 C 0.655 0.17555 0.04777 0.0
C239 C 0.68281 0.17605 0.03756 0.0
C240 C 0.70139 0.14959 0.0374 0.0
C241 C 0.69409 0.12473 0.04916 0.0
C242 C 0.63697 0.08523 0.0764 0.0
C243 C 0.63751 0.05392 0.0696 0.0
C244 C 0.61317 0.03422 0.07334 0.0
C245 C 0.58763 0.04562 0.08384 0.0
C246 C 0.58621 0.07734 0.08955 0.0
C247 C 0.61075 0.09695 0.08605 0.0
H248 H 0.15176 0.60054 0.92624 0.0
N249 N 0.12265 0.62626 0.9582 0.0
H250 H 0.15852 0.62143 0.8919 0.0
H251 H 0.09898 0.6804 0.94481 0.0
H252 H 0.10511 0.70128 0.91033 0.0
H253 H 0.12434 0.68257 0.98002 0.0
H254 H 0.16831 0.70405 0.00232 0.0
H255 H 0.17118 0.59569 0.97283 0.0
H256 H 0.21555 0.61707 0.99458 0.0
H257 H 0.1035 0.56833 0.95281 0.0
H258 H 0.07475 0.65927 0.97394 0.0
H259 H 0.05118 0.54868 0.9553 0.0
H260 H 0.02227 0.63984 0.97694 0.0
H261 H 0.86524 0.55715 0.91997 0.0
H262 H 0.85733 0.53597 0.88324 0.0
H263 H 0.94256 0.48571 0.89009 0.0
H264 H 0.95026 0.50661 0.92677 0.0
H265 H 0.86107 0.55888 0.96911 0.0
H266 H 0.82624 0.52396 0.98496 0.0
H267 H 0.8883 0.44839 0.97224 0.0
H268 H 0.92133 0.48282 0.95476 0.0
H269 H 0.95894 0.51556 0.96945 0.0
H270 H 0.01038 0.53699 0.9773 0.0
H271 H 0.98074 0.62266 0.95175 0.0
N272 N 0.9102 0.54385 0.94815 0.0
H273 H 0.92877 0.60122 0.94442 0.0
C274 C 0.12497 0.63885 0.93798 0.0
C275 C 0.14147 0.62248 0.92278 0.0
C276 C 0.14519 0.6344 0.90322 0.0
C277 C 0.13245 0.66306 0.89849 0.0
C278 C 0.11556 0.67937 0.91368 0.0
C279 C 0.11188 0.66738 0.93332 0.0
C280 C 0.14457 0.63744 0.97484 0.0
C281 C 0.14364 0.66781 0.98378 0.0
C282 C 0.16887 0.68011 0.99644 0.0
C283 C 0.1954 0.66225 0.00029 0.0
C284 C 0.19528 0.63126 0.99239 0.0
C285 C 0.17004 0.61902 0.97985 0.0
C286 C 0.09295 0.61511 0.96313 0.0
C287 C 0.08595 0.58384 0.95852 0.0
C288 C 0.05605 0.57269 0.96006 0.0
C289 C 0.03242 0.5927 0.96629 0.0
C290 C 0.03984 0.62389 0.97185 0.0
C291 C 0.06989 0.63503 0.97027 0.0
C292 C 0.90826 0.53361 0.92607 0.0
C293 C 0.8824 0.54192 0.91341 0.0
C294 C 0.87787 0.52977 0.89257 0.0
C295 C 0.8993 0.50916 0.88402 0.0
C296 C 0.92584 0.5017 0.89638 0.0
C297 C 0.93021 0.51362 0.91732 0.0
C298 C 0.89407 0.52381 0.96108 0.0
C299 C 0.86738 0.53489 0.97013 0.0
C300 C 0.84751 0.51484 0.97916 0.0
C301 C 0.85414 0.48316 0.97958 0.0
C302 C 0.88193 0.4724 0.97163 0.0
C303 C 0.90136 0.49235 0.96209 0.0
C304 C 0.93968 0.55678 0.95617 0.0
C305 C 0.96302 0.53911 0.96587 0.0
C306 C 0.99273 0.5514 0.97029 0.0
C307 C 0.99986 0.58145 0.96496 0.0
C308 C 0.97608 0.59958 0.95631 0.0
C309 C 0.94637 0.58733 0.95201 0.0
H310 H 0.70309 0.44718 0.19037 0.0
N311 N 0.65144 0.44045 0.2099 0.0
H312 H 0.71209 0.43278 0.15329 0.0
H313 H 0.60908 0.41447 0.18004 0.0
H314 H 0.61793 0.40013 0.143 0.0
H315 H 0.69441 0.44463 0.24157 0.0
H316 H 0.71632 0.40219 0.26124 0.0
H317 H 0.62703 0.38207 0.20945 0.0
H318 H 0.64893 0.33967 0.22875 0.0
H319 H 0.59282 0.42327 0.21895 0.0
H320 H 0.65073 0.50113 0.20893 0.0
H321 H 0.54833 0.45723 0.22141 0.0
H322 H 0.60629 0.53515 0.21052 0.0
H323 H 0.41278 0.57699 0.18844 0.0
H324 H 0.39657 0.58908 0.15224 0.0
H325 H 0.49182 0.60654 0.14025 0.0
H326 H 0.50782 0.59207 0.17565 0.0
H327 H 0.50454 0.63241 0.20183 0.0
H328 H 0.50056 0.68268 0.22034 0.0
H329 H 0.43176 0.64671 0.25864 0.0
H330 H 0.43503 0.59603 0.23929 0.0
H331 H 0.47145 0.52077 0.19544 0.0
H332 H 0.51508 0.48574 0.19873 0.0
H333 H 0.56979 0.55893 0.23206 0.0
N334 N 0.46963 0.58075 0.20704 0.0
H335 H 0.52718 0.59387 0.22813 0.0
C336 C 0.65554 0.43206 0.18794 0.0
C337 C 0.68445 0.43693 0.18008 0.0
C338 C 0.68956 0.42857 0.15901 0.0
C339 C 0.66573 0.41515 0.14542 0.0
C340 C 0.63662 0.4105 0.1532 0.0
C341 C 0.63158 0.41867 0.17435 0.0
C342 C 0.65916 0.41664 0.2241 0.0
C343 C 0.68376 0.42197 0.23927 0.0
C344 C 0.6963 0.39772 0.25038 0.0
C345 C 0.6843 0.36764 0.24655 0.0
C346 C 0.65831 0.36269 0.23235 0.0
C347 C 0.64582 0.38696 0.22121 0.0
C348 C 0.62529 0.45979 0.21394 0.0
C349 C 0.59611 0.44771 0.21755 0.0
C350 C 0.57054 0.46718 0.21872 0.0
C351 C 0.57359 0.499 0.2161 0.0
C352 C 0.60303 0.51095 0.21301 0.0
C353 C 0.6285 0.49155 0.21201 0.0
C354 C 0.46134 0.58412 0.18489 0.0
C355 C 0.4301 0.58284 0.17778 0.0
C356 C 0.42089 0.59019 0.15721 0.0
C357 C 0.44279 0.59971 0.1435 0.0
C358 C 0.47428 0.59936 0.15033 0.0
C359 C 0.48349 0.59136 0.1707 0.0
C360 C 0.46991 0.61019 0.21911 0.0
C361 C 0.48851 0.63507 0.21412 0.0
C362 C 0.48656 0.66385 0.22497 0.0
C363 C 0.46616 0.66852 0.24113 0.0
C364 C 0.44775 0.6437 0.24626 0.0
C365 C 0.44969 0.61478 0.23535 0.0
C366 C 0.49565 0.56041 0.21089 0.0
C367 C 0.49287 0.52928 0.20346 0.0
C368 C 0.5178 0.50916 0.20554 0.0
C369 C 0.54616 0.51955 0.21548 0.0
C370 C 0.54858 0.5503 0.22382 0.0
C371 C 0.5238 0.57051 0.22152 0.0
H372 H 0.46044 0.97182 0.45323 0.0
N373 N 0.51388 0.966 0.47783 0.0
H374 H 0.44841 0.94742 0.41793 0.0
H375 H 0.54996 0.929 0.45524 0.0
H376 H 0.53785 0.90413 0.4198 0.0
H377 H 0.49685 0.91323 0.49235 0.0
H378 H 0.45067 0.90259 0.51022 0.0
H379 H 0.47562 0.01031 0.49572 0.0
H380 H 0.43088 1.00019 0.51554 0.0
H381 H 0.49327 0.01773 0.45873 0.0
H382 H 0.56957 0.98068 0.49553 0.0
H383 H 0.52466 0.06208 0.45193 0.0
H384 H 0.60092 0.02597 0.48974 0.0
H385 H 0.65354 0.19308 0.42114 0.0
H386 H 0.66956 0.1949 0.38517 0.0
H387 H 0.65456 0.09648 0.37526 0.0
H388 H 0.64086 0.09441 0.41153 0.0
H389 H 0.69915 0.11717 0.4366 0.0
H390 H 0.748 0.13306 0.4553 0.0
H391 H 0.69979 0.19891 0.49485 0.0
H392 H 0.6509 0.18368 0.47535 0.0
H393 H 0.58391 0.14803 0.45124 0.0
H394 H 0.55094 0.10816 0.46393 0.0
H395 H 0.62663 0.04385 0.46118 0.0
N396 N 0.64271 0.14346 0.44196 0.0
H397 H 0.65942 0.08402 0.44938 0.0
C398 C 0.50613 0.95199 0.45692 0.0
C399 C 0.47747 0.95707 0.4461 0.0
C400 C 0.47053 0.94296 0.426 0.0
C401 C 0.49205 0.92355 0.41633 0.0
C402 C 0.52085 0.91892 0.42697 0.0
C403 C 0.52776 0.93298 0.44714 0.0
C404 C 0.48994 0.9624 0.49242 0.0
C405 C 0.48289 0.93243 0.49774 0.0
C406 C 0.45651 0.92644 0.5083 0.0
C407 C 0.43695 0.95053 0.51474 0.0
C408 C 0.44514 0.98095 0.51067 0.0
C409 C 0.47107 0.98683 0.49939 0.0
C410 C 0.5292 0.99559 0.47754 0.0
C411 C 0.51656 0.0195 0.46583 0.0
C412 C 0.53461 0.04507 0.46203 0.0
C413 C 0.56561 0.04752 0.46998 0.0
C414 C 0.57743 0.02456 0.4829 0.0
C415 C 0.55943 0.99886 0.48652 0.0
C416 C 0.64598 0.1438 0.41938 0.0
C417 C 0.6531 0.17198 0.41106 0.0
C418 C 0.66203 0.17299 0.39036 0.0
C419 C 0.66318 0.14584 0.37715 0.0
C420 C 0.65429 0.11781 0.38505 0.0
C421 C 0.64614 0.11668 0.40595 0.0
C422 C 0.67133 0.14959 0.45445 0.0
C423 C 0.69899 0.13485 0.44939 0.0
C424 C 0.72693 0.14391 0.46015 0.0
C425 C 0.72785 0.16766 0.47629 0.0
C426 C 0.69996 0.18117 0.48208 0.0
C427 C 0.67201 0.17229 0.47115 0.0
C428 C 0.62402 0.11913 0.44925 0.0
C429 C 0.5933 0.12532 0.45348 0.0
C430 C 0.5745 0.10244 0.46067 0.0
C431 C 0.58603 0.07265 0.46365 0.0
C432 C 0.61702 0.0666 0.45953 0.0
C433 C 0.63584 0.08958 0.45256 0.0
H434 H 0.14751 0.98581 0.69026 0.0
N435 N 0.18061 0.02518 0.71885 0.0
H436 H 0.15733 0.97489 0.65326 0.0
H437 H 0.22638 0.04713 0.69797 0.0
H438 H 0.23663 0.03577 0.66059 0.0
H439 H 0.23025 0.01454 0.7437 0.0
H440 H 0.24118 0.96856 0.76326 0.0
H441 H 0.13874 0.97961 0.72539 0.0
H442 H 0.15006 0.9329 0.7438 0.0
H443 H 0.11826 0.02172 0.70789 0.0
H444 H 0.19034 0.08038 0.7384 0.0
H445 H 0.08241 0.06459 0.70906 0.0
H446 H 0.15415 0.1234 0.74038 0.0
H447 H 1.00079 0.1547 0.68358 0.0
H448 H 0.97781 0.15443 0.64733 0.0
H449 H 0.02864 0.23754 0.63778 0.0
H450 H 0.05138 0.23775 0.67414 0.0
H451 H 0.05584 0.25144 0.72505 0.0
H452 H 0.02152 0.29014 0.74045 0.0
H453 H 0.94409 0.22785 0.72651 0.0
H454 H 0.97889 0.18871 0.71199 0.0
H455 H 0.01968 0.14645 0.71982 0.0
H456 H 0.05275 0.10277 0.72889 0.0
H457 H 0.1327 0.15434 0.71324 0.0
N458 N 0.03875 0.19942 0.70334 0.0
H459 H 0.09957 0.19752 0.70452 0.0
C460 C 0.18609 0.01767 0.69695 0.0
C461 C 0.16683 0.99715 0.68406 0.0
C462 C 0.17242 0.99093 0.66282 0.0
C463 C 0.19746 0.00486 0.65404 0.0
C464 C 0.21708 0.02488 0.66698 0.0
C465 C 0.21127 0.03137 0.68824 0.0
C466 C 0.18404 1.00029 0.73273 0.0
C467 C 0.21244 0.99707 0.74409 0.0
C468 C 0.21871 0.9707 0.75506 0.0
C469 C 0.19679 0.9467 0.75454 0.0
C470 C 0.16749 0.95092 0.74439 0.0
C471 C 0.16109 0.97756 0.73365 0.0
C472 C 0.1573 0.04797 0.72281 0.0
C473 C 0.12629 0.04357 0.71533 0.0
C474 C 0.1056 0.0682 0.71615 0.0
C475 C 0.11548 0.09761 0.72455 0.0
C476 C 0.14593 0.10123 0.73342 0.0
C477 C 0.16658 0.07666 0.73246 0.0
C478 C 0.02788 0.1963 0.68145 0.0
C479 C 0.00746 0.17248 0.67356 0.0
C480 C 0.99443 0.17228 0.65284 0.0
C481 C 0.00156 0.19592 0.6398 0.0
C482 C 0.02275 0.2191 0.64756 0.0
C483 C 0.03581 0.2192 0.66819 0.0
C484 C 0.01989 0.21752 0.71714 0.0
C485 C 0.03168 0.24576 0.72606 0.0
C486 C 0.01199 0.26792 0.73456 0.0
C487 C 0.98001 0.26232 0.73398 0.0
C488 C 0.9686 0.23286 0.72695 0.0
C489 C 0.98847 0.21049 0.71865 0.0
C490 C 0.05737 0.17507 0.71145 0.0
C491 C 0.04438 0.14835 0.71869 0.0
C492 C 0.0633 0.12343 0.72379 0.0
C493 C 0.09542 0.125 0.7218 0.0
C494 C 0.10822 0.15241 0.71535 0.0
C495 C 0.08936 0.17709 0.71024 0.0
O496 O 0.39072 0.70666 0.99263 0.0
Cd497 Cd 0.37109 0.7224 0.01995 0.0
Cd498 Cd 0.41936 0.69356 0.03813 0.0
O499 O 0.42569 0.67704 0.00753 0.0
O500 O 0.32787 0.73262 0.01082 0.0
O501 O 0.33972 0.69534 0.03195 0.0
C502 C 0.31886 0.7102 0.02137 0.0
C503 C 0.42003 0.65989 0.06524 0.0
C504 C 0.41219 0.68702 0.99102 0.0
C505 C 0.41681 0.76262 0.0457 0.0
O506 O 0.43286 0.73836 0.04727 0.0
O507 O 0.39014 0.76116 0.03618 0.0
O508 O 0.44493 0.66684 0.0565 0.0
O509 O 0.3943 0.67131 0.05807 0.0
O510 O 0.43596 0.85693 0.32611 0.0
Cd511 Cd 0.41622 0.84596 0.29614 0.0
Cd512 Cd 0.47302 0.85976 0.28549 0.0
O513 O 0.47928 0.87672 0.31651 0.0
O514 O 0.3709 0.8452 0.29943 0.0
O515 O 0.39402 0.8808 0.28236 0.0
C516 C 0.36914 0.87006 0.2894 0.0
C517 C 0.48082 0.89088 0.25772 0.0
C518 C 0.4613 0.87123 0.33089 0.0
C519 C 0.45238 0.79427 0.27672 0.0
O520 O 0.47529 0.81277 0.27876 0.0
O521 O 0.42574 0.80372 0.28117 0.0
O522 O 0.50376 0.87943 0.26847 0.0
O523 O 0.4533 0.88527 0.26325 0.0
O524 O 0.246 0.90436 0.49575 0.0
Cd525 Cd 0.26363 0.89476 0.52557 0.0
Cd526 Cd 0.21902 0.93 0.53641 0.0
O527 O 0.22304 0.94681 0.50703 0.0
O528 O 0.30809 0.88419 0.52351 0.0
O529 O 0.29201 0.92794 0.53904 0.0
C530 C 0.31446 0.91111 0.53259 0.0
C531 C 0.21634 0.96117 0.56759 0.0
C532 C 0.23244 0.92949 0.4919 0.0
C533 C 0.21148 0.86276 0.54129 0.0
O534 O 0.19765 0.88762 0.53722 0.0
O535 O 0.2407 0.86144 0.54085 0.0
O536 O 0.19353 0.95891 0.55353 0.0
O537 O 0.24155 0.94704 0.5633 0.0
O538 O 0.1936 0.74977 0.74683 0.0
Cd539 Cd 0.21907 0.76619 0.77373 0.0
Cd540 Cd 0.1912 0.7116 0.78693 0.0
O541 O 0.16643 0.71193 0.75828 0.0
O542 O 0.23696 0.80408 0.76314 0.0
O543 O 0.20359 0.80588 0.78789 0.0
C544 C 0.22009 0.82037 0.77543 0.0
C545 C 0.16637 0.70272 0.81752 0.0
C546 C 0.17259 0.72925 0.74373 0.0
C547 C 0.26043 0.71434 0.78761 0.0
O548 O 0.23643 0.69748 0.78745 0.0
O549 O 0.25812 0.74285 0.78428 0.0
O550 O 0.17024 0.68096 0.80318 0.0
O551 O 0.17559 0.73017 0.81406 0.0
O552 O 0.92094 0.23377 0.55588 0.0
Cd553 Cd 0.89851 0.25298 0.53026 0.0
Cd554 Cd 0.91886 0.19579 0.51266 0.0
O555 O 0.94002 0.1907 0.54207 0.0
O556 O 0.88755 0.29335 0.54416 0.0
O557 O 0.91912 0.28946 0.51823 0.0
C558 C 0.90598 0.30653 0.53239 0.0
C559 C 0.94707 0.18768 0.48295 0.0
C560 C 0.93693 0.20957 0.55787 0.0
C561 C 0.85042 0.20806 0.50996 0.0
O562 O 0.87194 0.18856 0.50793 0.0
O563 O 0.85642 0.23539 0.51754 0.0
O564 O 0.93691 0.16493 0.4927 0.0
O565 O 0.94199 0.21541 0.49049 0.0
O566 O 0.86129 0.42125 0.79929 0.0
Cd567 Cd 0.84487 0.39609 0.7724 0.0
Cd568 Cd 0.88718 0.43438 0.75517 0.0
O569 O 0.88839 0.4566 0.78497 0.0
O570 O 0.80659 0.37694 0.78149 0.0
O571 O 0.8061 0.4123 0.75797 0.0
C572 C 0.79094 0.3951 0.76967 0.0
C573 C 0.88903 0.46321 0.72531 0.0
C574 C 0.87706 0.44608 0.80104 0.0
C575 C 0.89814 0.36492 0.75329 0.0
O576 O 0.90819 0.39208 0.75143 0.0
O577 O 0.87181 0.36071 0.76039 0.0
O578 O 0.91264 0.46084 0.73843 0.0
O579 O 0.86357 0.45025 0.72969 0.0
O580 O 0.71359 0.37051 0.05241 0.0
Cd581 Cd 0.72413 0.35347 0.02256 0.0
Cd582 Cd 0.68946 0.4003 0.01324 0.0
O583 O 0.67341 0.39816 0.04289 0.0
O584 O 0.74199 0.3125 0.02823 0.0
O585 O 0.69791 0.31779 0.00958 0.0
C586 C 0.71781 0.29983 0.01844 0.0
C587 C 0.65814 0.4005 0.9821 0.0
C588 C 0.69021 0.38629 0.05731 0.0
C589 C 0.75617 0.40621 0.00682 0.0
O590 O 0.73205 0.42081 0.01158 0.0
O591 O 0.75684 0.37698 0.00715 0.0
O592 O 0.66062 0.42442 0.99525 0.0
O593 O 0.67205 0.37559 0.98737 0.0
O594 O 0.76244 0.18598 0.23035 0.0
Cd595 Cd 0.77351 0.20733 0.2598 0.0
Cd596 Cd 0.75808 0.15146 0.27106 0.0
O597 O 0.74219 0.1429 0.23993 0.0
O598 O 0.7756 0.25177 0.2539 0.0
O599 O 0.74013 0.23279 0.27298 0.0
C600 C 0.75105 0.25604 0.26407 0.0
C601 C 0.72569 0.1494 0.29877 0.0
C602 C 0.74839 0.16054 0.22552 0.0
C603 C 0.82424 0.17076 0.27966 0.0
O604 O 0.80501 0.14846 0.27811 0.0
O605 O 0.81564 0.19754 0.27488 0.0
O606 O 0.73696 0.12457 0.2901 0.0
O607 O 0.73227 0.17545 0.29128 0.0
C608 C 0.31182 0.93259 0.30132 0.0
C609 C 0.28319 0.91754 0.29624 0.0
C610 C 0.33977 0.91787 0.29735 0.0
C611 C 0.3401 0.88743 0.28853 0.0
H612 H 0.31285 0.95515 0.30965 0.0
H613 H 0.36124 0.92959 0.30263 0.0
S614 S 0.27218 0.83982 0.2687 0.0
N615 N 0.25733 0.8722 0.27854 0.0
N616 N 0.31001 0.84394 0.27251 0.0
C617 C 0.31192 0.87283 0.28209 0.0
C618 C 0.28343 0.88806 0.28556 0.0
C619 C 0.1431 0.80874 0.54336 0.0
C620 C 0.15373 0.78716 0.5577 0.0
C621 C 0.16223 0.8326 0.53787 0.0
C622 C 0.19297 0.83569 0.54624 0.0
H623 H 0.11954 0.80757 0.5366 0.0
H624 H 0.1527 0.84897 0.52709 0.0
S625 S 0.23245 0.78512 0.58418 0.0
N626 N 0.19724 0.77046 0.58015 0.0
N627 N 0.2335 0.81478 0.5692 0.0
C628 C 0.20436 0.81368 0.55998 0.0
C629 C 0.1847 0.78954 0.56584 0.0
C630 C 0.3228 0.65422 0.79549 0.0
C631 C 0.34888 0.67194 0.80297 0.0
C632 C 0.29454 0.66819 0.79022 0.0
C633 C 0.29118 0.70049 0.79216 0.0
H634 H 0.32417 0.62928 0.79386 0.0
H635 H 0.27509 0.65346 0.78472 0.0
S636 S 0.35229 0.75731 0.81158 0.0
N637 N 0.3694 0.72351 0.81251 0.0
N638 N 0.31652 0.74981 0.8022 0.0
C639 C 0.31724 0.71854 0.7993 0.0
C640 C 0.34599 0.70427 0.8048 0.0
C641 C 0.42697 0.84931 0.05643 0.0
C642 C 0.45265 0.85184 0.07109 0.0
C643 C 0.41553 0.8204 0.04837 0.0
C644 C 0.42935 0.79287 0.05465 0.0
H645 H 0.41573 0.86986 0.05102 0.0
H646 H 0.39581 0.81972 0.037 0.0
S647 S 0.49596 0.78699 0.09386 0.0
N648 N 0.49063 0.82443 0.09243 0.0
N649 N 0.46952 0.77011 0.07712 0.0
C650 C 0.45495 0.7951 0.06946 0.0
C651 C 0.4665 0.82456 0.0777 0.0
C652 C 0.23495 0.70422 0.00111 0.0
C653 C 0.22472 0.67695 0.00934 0.0
C654 C 0.26487 0.71569 0.00612 0.0
C655 C 0.28593 0.70033 0.01953 0.0
H656 H 0.22037 0.7159 0.9897 0.0
H657 H 0.27193 0.736 0.99856 0.0
S658 S 0.26879 0.63073 0.04794 0.0
N659 N 0.23657 0.63697 0.03363 0.0
N660 N 0.2931 0.6583 0.04293 0.0
C661 C 0.27529 0.67422 0.02906 0.0
C662 C 0.24468 0.66256 0.02396 0.0
C663 C 0.43385 0.71297 0.25342 0.0
C664 C 0.46317 0.6997 0.25179 0.0
C665 C 0.43059 0.74336 0.26178 0.0
C666 C 0.45654 0.76171 0.2688 0.0
H667 H 0.41328 0.70008 0.24761 0.0
H668 H 0.40754 0.75271 0.2623 0.0
S669 S 0.5383 0.73644 0.27001 0.0
N670 N 0.51846 0.70618 0.25942 0.0
N671 N 0.51253 0.76338 0.2749 0.0
C672 C 0.48597 0.7483 0.26786 0.0
C673 C 0.48924 0.71731 0.25942 0.0
C674 C 0.37988 0.95953 0.51615 0.0
C675 C 0.40641 0.94347 0.52316 0.0
C676 C 0.35021 0.95019 0.52077 0.0
C677 C 0.34583 0.92405 0.53217 0.0
H678 H 0.38172 0.97842 0.50596 0.0
H679 H 0.33046 0.96229 0.51414 0.0
S680 S 0.40695 0.87694 0.55727 0.0
N681 N 0.42599 0.90288 0.54513 0.0
N682 N 0.36994 0.88408 0.55228 0.0
C683 C 0.37187 0.90874 0.54028 0.0
C684 C 0.40221 0.91878 0.53618 0.0
C685 C 0.1852 0.90043 0.77477 0.0
C686 C 0.20533 0.91618 0.76255 0.0
C687 C 0.19115 0.87002 0.78015 0.0
C688 C 0.2173 0.85413 0.7733 0.0
H689 H 0.16425 0.91142 0.77973 0.0
H690 H 0.17434 0.85843 0.78883 0.0
S691 S 0.27821 0.88571 0.74204 0.0
N692 N 0.25315 0.91396 0.74452 0.0
N693 N 0.26459 0.85729 0.75489 0.0
C694 C 0.23834 0.87018 0.76194 0.0
C695 C 0.2323 0.90105 0.75649 0.0
C696 C 0.71204 0.38504 0.79066 0.0
C697 C 0.69565 0.41072 0.78365 0.0
C698 C 0.74213 0.37908 0.78485 0.0
C699 C 0.75718 0.39853 0.77177 0.0
H700 H 0.70222 0.37032 0.80169 0.0
H701 H 0.75416 0.35981 0.79153 0.0
S702 S 0.72252 0.46626 0.74661 0.0
N703 N 0.69521 0.45375 0.76099 0.0
N704 N 0.75198 0.44277 0.75014 0.0
C705 C 0.74026 0.42311 0.76346 0.0
C706 C 0.70953 0.4292 0.76944 0.0
C707 C 0.67344 0.22412 0.01795 0.0
C708 C 0.69387 0.20537 0.02946 0.0
C709 C 0.68204 0.25398 0.01315 0.0
C710 C 0.7114 0.26633 0.01976 0.0
H711 H 0.65022 0.21603 0.01323 0.0
H712 H 0.66499 0.26796 0.0051 0.0
S713 S 0.77435 0.2258 0.04895 0.0
N714 N 0.74537 0.20087 0.04643 0.0
N715 N 0.76179 0.25637 0.03695 0.0
C716 C 0.73267 0.24711 0.03018 0.0
C717 C 0.72386 0.21682 0.03514 0.0
C718 C 0.90615 0.18585 0.30285 0.0
C719 C 0.91989 0.15656 0.30106 0.0
C720 C 0.87533 0.19026 0.29576 0.0
C721 C 0.85689 0.16549 0.2868 0.0
H722 H 0.91911 0.20548 0.31022 0.0
H723 H 0.86574 0.21318 0.29769 0.0
S724 S 0.88257 0.0847 0.27676 0.0
N725 N 0.9133 0.10284 0.28823 0.0
N726 N 0.85517 0.11089 0.27541 0.0
C727 C 0.87047 0.13616 0.28458 0.0
C728 C 0.90197 0.13175 0.29159 0.0
C729 C 0.92581 0.38997 0.52308 0.0
C730 C 0.92513 0.40431 0.54351 0.0
C731 C 0.92011 0.35805 0.51947 0.0
C732 C 0.91299 0.33987 0.53614 0.0
H733 H 0.93053 0.4035 0.50989 0.0
H734 H 0.92061 0.3477 0.50353 0.0
S735 S 0.91037 0.36683 0.59265 0.0
N736 N 0.91841 0.39817 0.58059 0.0
N737 N 0.90728 0.33859 0.57395 0.0
C738 C 0.91278 0.35415 0.55664 0.0
C739 C 0.91895 0.3863 0.56029 0.0
C740 C 0.7807 0.15747 0.49249 0.0
C741 C 0.75806 0.17881 0.4864 0.0
C742 C 0.81022 0.16722 0.50046 0.0
C743 C 0.8183 0.19875 0.50282 0.0
H744 H 0.77567 0.13294 0.4909 0.0
H745 H 0.82692 0.14981 0.50467 0.0
S746 S 0.76758 0.264 0.48887 0.0
N747 N 0.74589 0.23296 0.48296 0.0
N748 N 0.80111 0.25134 0.49842 0.0
C749 C 0.79568 0.22041 0.49721 0.0
C750 C 0.76566 0.21044 0.4889 0.0
C751 C 0.93473 0.28522 0.75223 0.0
C752 C 0.95857 0.28817 0.73846 0.0
C753 C 0.91472 0.30988 0.75665 0.0
C754 C 0.91791 0.33831 0.74744 0.0
H755 H 0.93188 0.26392 0.75992 0.0
H756 H 0.89713 0.30687 0.76771 0.0
S757 S 0.97397 0.35618 0.70803 0.0
N758 N 0.98218 0.32059 0.71402 0.0
N759 N 0.9451 0.36686 0.72246 0.0
C760 C 0.94099 0.34105 0.73306 0.0
C761 C 0.96117 0.31603 0.72853 0.0
C762 C 0.81501 0.47039 0.00521 0.0
C763 C 0.83123 0.46153 0.98731 0.0
C764 C 0.79118 0.45199 0.01163 0.0
C765 C 0.7831 0.42366 0.00073 0.0
H766 H 0.82042 0.492 0.01418 0.0
H767 H 0.77885 0.46011 0.02519 0.0
S768 S 0.81766 0.38971 0.95283 0.0
N769 N 0.83664 0.42253 0.95847 0.0
N770 N 0.79293 0.38732 0.97137 0.0
C771 C 0.79959 0.41392 0.98326 0.0
C772 C 0.82342 0.43298 0.97637 0.0
C773 C 0.73323 0.3383 0.25138 0.0
C774 C 0.7016 0.34095 0.2547 0.0
C775 C 0.74939 0.31134 0.25564 0.0
C776 C 0.73465 0.28593 0.2635 0.0
H777 H 0.74529 0.35658 0.24437 0.0
H778 H 0.77339 0.31003 0.25192 0.0
S779 S 0.65294 0.28276 0.27749 0.0
N780 N 0.65673 0.31715 0.26819 0.0
N781 N 0.6871 0.26632 0.2763 0.0
C782 C 0.70346 0.289 0.26818 0.0
C783 C 0.68692 0.31649 0.26368 0.0
C784 C 0.21738 0.92067 0.43239 0.0
C785 C 0.21236 0.95113 0.42685 0.0
C786 C 0.22453 0.91404 0.45341 0.0
C787 C 0.22633 0.9376 0.46974 0.0
H788 H 0.21579 0.90181 0.42033 0.0
H789 H 0.228 0.89018 0.45693 0.0
S790 S 0.21545 0.0213 0.46328 0.0
N791 N 0.21017 0.00513 0.43907 0.0
N792 N 0.22306 0.99277 0.47877 0.0
C793 C 0.2215 0.96823 0.46435 0.0
C794 C 0.2147 0.97499 0.44285 0.0
C795 C 0.127 0.6928 0.69542 0.0
C796 C 0.12397 0.71737 0.68209 0.0
C797 C 0.14217 0.69695 0.71558 0.0
C798 C 0.15536 0.72566 0.72286 0.0
H799 H 0.11755 0.67025 0.69022 0.0
H800 H 0.14417 0.67738 0.72532 0.0
S801 S 0.15339 0.79727 0.6938 0.0
N802 N 0.13498 0.7713 0.67747 0.0
N803 N 0.16373 0.77919 0.71519 0.0
C804 C 0.15227 0.75042 0.70963 0.0
C805 C 0.13651 0.74626 0.68929 0.0
C806 C 0.42021 0.68343 0.93175 0.0
C807 C 0.43973 0.65812 0.92831 0.0
C808 C 0.41133 0.69235 0.95203 0.0
C809 C 0.42183 0.67649 0.96974 0.0
H810 H 0.41135 0.69621 0.91859 0.0
H811 H 0.39621 0.712 0.95378 0.0
S812 S 0.47399 0.60882 0.96906 0.0
N813 N 0.4697 0.61747 0.94412 0.0
N814 N 0.45313 0.63414 0.98235 0.0
C815 C 0.44157 0.65116 0.96649 0.0
C816 C 0.45044 0.64197 0.94576 0.0
C817 C 0.46421 0.92965 0.20632 0.0
C818 C 0.49385 0.93513 0.19954 0.0
C819 C 0.46023 0.9164 0.22553 0.0
C820 C 0.48576 0.90813 0.23873 0.0
H821 H 0.44389 0.93447 0.19629 0.0
H822 H 0.43693 0.9117 0.22968 0.0
S823 S 0.56828 0.92133 0.22926 0.0
N824 N 0.5491 0.93397 0.20829 0.0
N825 N 0.54184 0.90897 0.24437 0.0
C826 C 0.51555 0.91491 0.23257 0.0
C827 C 0.51955 0.92838 0.21299 0.0
C828 C 0.13264 0.65634 0.85916 0.0
C829 C 0.13737 0.67559 0.87773 0.0
C830 C 0.1407 0.66601 0.83963 0.0
C831 C 0.15383 0.69536 0.83783 0.0
H832 H 0.12332 0.63327 0.8598 0.0
H833 H 0.13741 0.6499 0.82593 0.0
S834 S 0.16939 0.75523 0.88163 0.0
N835 N 0.15481 0.72585 0.89307 0.0
N836 N 0.16967 0.74427 0.85627 0.0
C837 C 0.15732 0.71545 0.85613 0.0
C838 C 0.14916 0.70551 0.8761 0.0
C839 C 0.45056 0.6045 0.10502 0.0
C840 C 0.43323 0.61182 0.12265 0.0
C841 C 0.44517 0.61917 0.08614 0.0
C842 C 0.4218 0.64126 0.08395 0.0
H843 H 0.46913 0.58796 0.10602 0.0
H844 H 0.45994 0.61371 0.07331 0.0
S845 S 0.36898 0.66806 0.1248 0.0
N846 N 0.39124 0.64256 0.1364 0.0
N847 N 0.3803 0.66895 0.10053 0.0
C848 C 0.40315 0.64764 0.10094 0.0
C849 C 0.40903 0.63318 0.12038 0.0
C850 C 0.50474 0.91155 0.37884 0.0
C851 C 0.48452 0.90853 0.39501 0.0
C852 C 0.49728 0.89896 0.35828 0.0
C853 C 0.46936 0.88269 0.35312 0.0
H854 H 0.52616 0.92441 0.38198 0.0
H855 H 0.51339 0.90245 0.34629 0.0
S856 S 0.40976 0.86626 0.39053 0.0
N857 N 0.43644 0.88662 0.40504 0.0
N858 N 0.42216 0.86296 0.36647 0.0
C859 C 0.44936 0.87876 0.36941 0.0
C860 C 0.45698 0.8917 0.39031 0.0
C861 C 0.2318 0.98565 0.62586 0.0
C862 C 0.20326 0.99773 0.63149 0.0
C863 C 0.23637 0.97524 0.60491 0.0
C864 C 0.21262 0.97672 0.58881 0.0
H865 H 0.25027 0.98297 0.63788 0.0
H866 H 0.25832 0.9649 0.60152 0.0
S867 S 0.13496 0.01058 0.59516 0.0
N868 N 0.15201 0.0135 0.61919 0.0
N869 N 0.16041 0.99424 0.57984 0.0
C870 C 0.18457 0.99052 0.59413 0.0
C871 C 0.17992 1.0009 0.61546 0.0
C872 C 0.62526 0.43648 0.93282 0.0
C873 C 0.62137 0.41118 0.91797 0.0
C874 C 0.63548 0.43246 0.9538 0.0
C875 C 0.64272 0.403 0.96072 0.0
H876 H 0.62102 0.45967 0.92803 0.0
H877 H 0.63895 0.45288 0.96441 0.0
S878 S 0.63444 0.32903 0.9281 0.0
N879 N 0.62372 0.35556 0.91166 0.0
N880 N 0.64341 0.34782 0.95111 0.0
C881 C 0.63775 0.37733 0.94616 0.0
C882 C 0.62694 0.38147 0.92479 0.0
C883 C 0.71505 0.11448 0.17625 0.0
C884 C 0.71716 0.13533 0.16036 0.0
C885 C 0.72547 0.12267 0.19722 0.0
C886 C 0.73864 0.15195 0.20304 0.0
H887 H 0.70455 0.09194 0.17253 0.0
H888 H 0.72289 0.10599 0.20897 0.0
S889 S 0.75126 0.21401 0.16667 0.0
N890 N 0.73467 0.18571 0.1514 0.0
N891 N 0.7543 0.20136 0.19066 0.0
C892 C 0.7416 0.17268 0.18705 0.0
C893 C 0.73083 0.16433 0.16576 0.0
C894 C 0.00185 0.1965 0.43934 0.0
C895 C 0.99418 0.17089 0.42521 0.0
C896 C 0.98641 0.20201 0.45797 0.0
C897 C 0.9631 0.18186 0.46327 0.0
H898 H 0.02004 0.21231 0.43606 0.0
H899 H 0.99306 0.22193 0.46844 0.0
S900 S 0.93212 0.11333 0.43077 0.0
N901 N 0.95974 0.12674 0.41708 0.0
N902 N 0.93182 0.13638 0.45243 0.0
C903 C 0.95499 0.15639 0.44923 0.0
C904 C 0.97026 0.15108 0.43013 0.0
C905 C 0.9267 0.50174 0.68147 0.0
C906 C 0.90388 0.49975 0.66473 0.0
C907 C 0.92104 0.49126 0.70127 0.0
C908 C 0.89235 0.47814 0.70514 0.0
H909 H 0.94942 0.51084 0.6791 0.0
H910 H 0.93977 0.4926 0.71341 0.0
S911 S 0.82427 0.46919 0.66672 0.0
N912 N 0.85106 0.48499 0.65343 0.0
N913 N 0.84025 0.46529 0.69069 0.0
C914 C 0.86884 0.47722 0.68876 0.0
C915 C 0.87465 0.48803 0.66855 0.0
C916 C 0.69741 0.12302 0.34995 0.0
C917 C 0.67651 0.14618 0.35605 0.0
C918 C 0.71234 0.12381 0.33108 0.0
C919 C 0.70746 0.14805 0.31764 0.0
H920 H 0.70315 0.10456 0.36017 0.0
H921 H 0.72871 0.10579 0.3274 0.0
S922 S 0.65278 0.21271 0.32493 0.0
N923 N 0.64962 0.19262 0.34592 0.0
N924 N 0.67881 0.19474 0.31089 0.0
C925 C 0.6861 0.17097 0.32316 0.0
C926 C 0.6704 0.16989 0.34223 0.0
C927 C 0.97019 0.22573 0.61414 0.0
C928 C 0.9851 0.19813 0.61882 0.0
C929 C 0.9544 0.22887 0.59454 0.0
C930 C 0.95303 0.20459 0.57869 0.0
H931 H 0.97056 0.24508 0.62581 0.0
H932 H 0.94348 0.25075 0.59178 0.0
S933 S 0.9885 0.12738 0.58323 0.0
N934 N 0.99764 0.14597 0.60629 0.0
N935 N 0.96798 0.15173 0.56923 0.0
C936 C 0.9678 0.17672 0.58323 0.0
C937 C 0.98376 0.17349 0.60335 0.0
C938 C 0.91414 0.49617 0.84707 0.0
C939 C 0.89294 0.49384 0.86273 0.0
C940 C 0.90859 0.48115 0.82695 0.0
C941 C 0.88199 0.46277 0.82203 0.0
H942 H 0.93507 0.50977 0.85039 0.0
H943 H 0.92554 0.48345 0.81533 0.0
S944 S 0.81942 0.44948 0.85776 0.0
N945 N 0.84439 0.47215 0.8721 0.0
N946 N 0.83401 0.44363 0.83448 0.0
C947 C 0.86062 0.46038 0.83763 0.0
C948 C 0.86608 0.476 0.85794 0.0
C949 C 0.65222 0.41731 0.10665 0.0
C950 C 0.67134 0.40615 0.12311 0.0
C951 C 0.6582 0.41041 0.08543 0.0
C952 C 0.6834 0.39188 0.07988 0.0
H953 H 0.63295 0.4321 0.11021 0.0
H954 H 0.64315 0.42006 0.07332 0.0
S955 S 0.73866 0.35475 0.11743 0.0
N956 N 0.71515 0.37424 0.13268 0.0
N957 N 0.72654 0.36103 0.09294 0.0
C958 C 0.7021 0.37979 0.09633 0.0
C959 C 0.69605 0.38701 0.11789 0.0
loop_
_geom_bond_atom_site_label_1
_geom_bond_atom_site_label_2
_geom_bond_distance
_geom_bond_site_symmetry_2
_ccdc_geom_bond_type
H0 C27 0.929 . S
N1 C26 1.433 . S
N1 C32 1.435 . S
N1 C38 1.423 . S
H2 C28 0.930 . S
H3 C31 0.931 . S
H4 C30 0.929 . S
H5 C33 0.930 . S
H6 C34 0.932 . S
H7 C37 0.929 . S
H8 C36 0.931 . S
H9 C39 0.929 . S
H10 C43 0.932 . S
H11 C40 0.931 . S
H12 C42 0.929 1_565 S
H13 C45 0.929 . S
H14 C46 0.930 . S
H15 C48 0.929 . S
H16 C49 0.931 . S
H17 C51 0.930 . S
H18 C52 0.932 . S
H19 C54 0.931 . S
H20 C55 0.929 1_455 S
H21 C57 0.929 . S
H22 C58 0.931 . S
H23 C60 0.929 . S
N24 C44 1.433 . S
N24 C50 1.435 . S
N24 C56 1.423 1_655 S
H25 C61 0.932 . S
C26 N1 1.433 . S
C26 C27 1.363 . S
C26 C31 1.370 . S
C27 H0 0.929 . S
C27 C26 1.363 . S
C27 C28 1.385 . S
C28 H2 0.930 . S
C28 C27 1.385 . S
C28 C29 1.357 . S
C29 C28 1.357 . S
C29 C30 1.406 . S
C30 H4 0.929 . S
C30 C29 1.406 . S
C30 C31 1.391 . S
C31 H3 0.931 . S
C31 C26 1.370 . S
C31 C30 1.391 . S
C32 N1 1.435 . S
C32 C33 1.358 . S
C32 C37 1.371 . S
C33 H5 0.930 . S
C33 C32 1.358 . S
C33 C34 1.405 . S
C34 H6 0.932 . S
C34 C33 1.405 . S
C34 C35 1.383 . S
C35 C34 1.383 . S
C35 C36 1.393 . S
C36 H8 0.931 . S
C36 C35 1.393 . S
C36 C37 1.382 . S
C37 H7 0.929 . S
C37 C32 1.371 . S
C37 C36 1.382 . S
C38 N1 1.423 . S
C38 C39 1.362 1_565 S
C38 C43 1.388 . S
C39 H9 0.929 . S
C39 C38 1.362 1_545 S
C39 C40 1.376 . S
C40 H11 0.931 . S
C40 C39 1.376 . S
C40 C41 1.396 . S
C41 C40 1.396 . S
C41 C42 1.348 . S
C41 C59 1.472 . S
C42 H12 0.929 1_545 S
C42 C41 1.348 . S
C42 C43 1.443 1_545 S
C43 H10 0.932 . S
C43 C38 1.388 . S
C43 C42 1.443 1_565 S
C44 N24 1.433 . S
C44 C45 1.363 . S
C44 C49 1.370 . S
C45 H13 0.929 . S
C45 C44 1.363 . S
C45 C46 1.385 . S
C46 H14 0.930 . S
C46 C45 1.385 . S
C46 C47 1.357 . S
C47 C46 1.357 . S
C47 C48 1.406 . S
C48 H15 0.929 . S
C48 C47 1.406 . S
C48 C49 1.391 . S
C49 H16 0.931 . S
C49 C44 1.370 . S
C49 C48 1.391 . S
C50 N24 1.435 . S
C50 C51 1.358 . S
C50 C55 1.371 . S
C51 H17 0.930 . S
C51 C50 1.358 . S
C51 C52 1.405 . S
C52 H18 0.932 . S
C52 C51 1.405 . S
C52 C53 1.383 . S
C53 C52 1.383 . S
C53 C54 1.393 . S
C54 H19 0.931 . S
C54 C53 1.393 . S
C54 C55 1.382 . S
C55 H20 0.929 1_655 S
C55 C50 1.371 . S
C55 C54 1.382 . S
C56 N24 1.423 1_455 S
C56 C57 1.362 . S
C56 C61 1.388 . S
C57 H21 0.929 . S
C57 C56 1.362 . S
C57 C58 1.376 . S
C58 H22 0.931 . S
C58 C57 1.376 . S
C58 C59 1.396 . S
C59 C41 1.472 . S
C59 C58 1.396 . S
C59 C60 1.348 . S
C60 H23 0.929 . S
C60 C59 1.348 . S
C60 C61 1.443 . S
C61 H25 0.932 . S
C61 C56 1.388 . S
C61 C60 1.443 . S
H62 C89 0.929 . S
N63 C88 1.433 . S
N63 C94 1.435 . S
N63 C100 1.423 1_655 S
H64 C90 0.930 . S
H65 C93 0.931 . S
H66 C92 0.929 . S
H67 C95 0.930 . S
H68 C96 0.932 . S
H69 C99 0.929 1_455 S
H70 C98 0.931 . S
H71 C101 0.929 . S
H72 C105 0.932 1_655 S
H73 C102 0.931 . S
H74 C104 0.929 . S
H75 C107 0.929 . S
H76 C108 0.930 . S
H77 C110 0.929 . S
H78 C111 0.931 . S
H79 C113 0.930 . S
H80 C114 0.932 . S
H81 C116 0.931 . S
H82 C117 0.929 . S
H83 C119 0.929 . S
H84 C120 0.931 . S
H85 C122 0.929 . S
N86 C106 1.433 . S
N86 C112 1.435 . S
N86 C118 1.423 . S
H87 C123 0.932 . S
C88 N63 1.433 . S
C88 C89 1.363 . S
C88 C93 1.370 . S
C89 H62 0.929 . S
C89 C88 1.363 . S
C89 C90 1.385 . S
C90 H64 0.930 . S
C90 C89 1.385 . S
C90 C91 1.357 . S
C91 C90 1.357 . S
C91 C92 1.406 . S
C92 H66 0.929 . S
C92 C91 1.406 . S
C92 C93 1.391 . S
C93 H65 0.931 . S
C93 C88 1.370 . S
C93 C92 1.391 . S
C94 N63 1.435 . S
C94 C95 1.358 . S
C94 C99 1.371 . S
C95 H67 0.930 . S
C95 C94 1.358 . S
C95 C96 1.405 . S
C96 H68 0.932 . S
C96 C95 1.405 . S
C96 C97 1.383 . S
C97 C96 1.383 . S
C97 C98 1.393 . S
C98 H70 0.931 . S
C98 C97 1.393 . S
C98 C99 1.382 . S
C99 H69 0.929 1_655 S
C99 C94 1.371 . S
C99 C98 1.382 . S
C100 N63 1.423 1_455 S
C100 C101 1.362 . S
C100 C105 1.388 . S
C101 H71 0.929 . S
C101 C100 1.362 . S
C101 C102 1.376 . S
C102 H73 0.931 . S
C102 C101 1.376 . S
C102 C103 1.396 . S
C103 C102 1.396 . S
C103 C104 1.348 . S
C103 C121 1.472 . S
C104 H74 0.929 . S
C104 C103 1.348 . S
C104 C105 1.443 . S
C105 H72 0.932 1_455 S
C105 C100 1.388 . S
C105 C104 1.443 . S
C106 N86 1.433 . S
C106 C107 1.363 . S
C106 C111 1.370 . S
C107 H75 0.929 . S
C107 C106 1.363 . S
C107 C108 1.385 . S
C108 H76 0.930 . S
C108 C107 1.385 . S
C108 C109 1.357 . S
C109 C108 1.357 . S
C109 C110 1.406 . S
C110 H77 0.929 . S
C110 C109 1.406 . S
C110 C111 1.391 . S
C111 H78 0.931 . S
C111 C106 1.370 . S
C111 C110 1.391 . S
C112 N86 1.435 . S
C112 C113 1.358 . S
C112 C117 1.371 . S
C113 H79 0.930 . S
C113 C112 1.358 . S
C113 C114 1.405 . S
C114 H80 0.932 . S
C114 C113 1.405 . S
C114 C115 1.383 . S
C115 C114 1.383 . S
C115 C116 1.393 . S
C116 H81 0.931 . S
C116 C115 1.393 . S
C116 C117 1.382 . S
C117 H82 0.929 . S
C117 C112 1.371 . S
C117 C116 1.382 . S
C118 N86 1.423 . S
C118 C119 1.362 . S
C118 C123 1.388 . S
C119 H83 0.929 . S
C119 C118 1.362 . S
C119 C120 1.376 . S
C120 H84 0.931 . S
C120 C119 1.376 . S
C120 C121 1.396 . S
C121 C103 1.472 . S
C121 C120 1.396 . S
C121 C122 1.348 . S
C122 H85 0.929 . S
C122 C121 1.348 . S
C122 C123 1.443 . S
C123 H87 0.932 . S
C123 C118 1.388 . S
C123 C122 1.443 . S
H124 C151 0.929 . S
N125 C150 1.433 . S
N125 C156 1.435 . S
N125 C162 1.423 . S
H126 C152 0.930 . S
H127 C155 0.931 . S
H128 C154 0.929 . S
H129 C157 0.930 . S
H130 C158 0.932 . S
H131 C161 0.929 . S
H132 C160 0.931 . S
H133 C163 0.929 . S
H134 C167 0.932 . S
H135 C164 0.931 . S
H136 C166 0.929 . S
H137 C169 0.929 . S
H138 C170 0.930 . S
H139 C172 0.929 . S
H140 C173 0.931 . S
H141 C175 0.930 . S
H142 C176 0.932 . S
H143 C178 0.931 . S
H144 C179 0.929 . S
H145 C181 0.929 . S
H146 C182 0.931 . S
H147 C184 0.929 . S
N148 C168 1.433 . S
N148 C174 1.435 . S
N148 C180 1.423 . S
H149 C185 0.932 . S
C150 N125 1.433 . S
C150 C151 1.363 . S
C150 C155 1.370 . S
C151 H124 0.929 . S
C151 C150 1.363 . S
C151 C152 1.385 . S
C152 H126 0.930 . S
C152 C151 1.385 . S
C152 C153 1.357 . S
C153 C152 1.357 . S
C153 C154 1.406 . S
C154 H128 0.929 . S
C154 C153 1.406 . S
C154 C155 1.391 . S
C155 H127 0.931 . S
C155 C150 1.370 . S
C155 C154 1.391 . S
C156 N125 1.435 . S
C156 C157 1.358 . S
C156 C161 1.371 . S
C157 H129 0.930 . S
C157 C156 1.358 . S
C157 C158 1.405 . S
C158 H130 0.932 . S
C158 C157 1.405 . S
C158 C159 1.383 . S
C159 C158 1.383 . S
C159 C160 1.393 . S
C160 H132 0.931 . S
C160 C159 1.393 . S
C160 C161 1.382 . S
C161 H131 0.929 . S
C161 C156 1.371 . S
C161 C160 1.382 . S
C162 N125 1.423 . S
C162 C163 1.362 . S
C162 C167 1.388 . S
C163 H133 0.929 . S
C163 C162 1.362 . S
C163 C164 1.376 . S
C164 H135 0.931 . S
C164 C163 1.376 . S
C164 C165 1.396 . S
C165 C164 1.396 . S
C165 C166 1.348 . S
C165 C183 1.472 . S
C166 H136 0.929 . S
C166 C165 1.348 . S
C166 C167 1.443 . S
C167 H134 0.932 . S
C167 C162 1.388 . S
C167 C166 1.443 . S
C168 N148 1.433 . S
C168 C169 1.363 . S
C168 C173 1.370 . S
C169 H137 0.929 . S
C169 C168 1.363 . S
C169 C170 1.385 . S
C170 H138 0.930 . S
C170 C169 1.385 . S
C170 C171 1.357 . S
C171 C170 1.357 . S
C171 C172 1.406 . S
C172 H139 0.929 . S
C172 C171 1.406 . S
C172 C173 1.391 . S
C173 H140 0.931 . S
C173 C168 1.370 . S
C173 C172 1.391 . S
C174 N148 1.435 . S
C174 C175 1.358 . S
C174 C179 1.371 . S
C175 H141 0.930 . S
C175 C174 1.358 . S
C175 C176 1.405 . S
C176 H142 0.932 . S
C176 C175 1.405 . S
C176 C177 1.383 . S
C177 C176 1.383 . S
C177 C178 1.393 . S
C178 H143 0.931 . S
C178 C177 1.393 . S
C178 C179 1.382 . S
C179 H144 0.929 . S
C179 C174 1.371 . S
C179 C178 1.382 . S
C180 N148 1.423 . S
C180 C181 1.362 . S
C180 C185 1.388 . S
C181 H145 0.929 . S
C181 C180 1.362 . S
C181 C182 1.376 . S
C182 H146 0.931 . S
C182 C181 1.376 . S
C182 C183 1.396 . S
C183 C165 1.472 . S
C183 C182 1.396 . S
C183 C184 1.348 . S
C184 H147 0.929 . S
C184 C183 1.348 . S
C184 C185 1.443 . S
C185 H149 0.932 . S
C185 C180 1.388 . S
C185 C184 1.443 . S
H186 C213 0.929 . S
N187 C212 1.433 . S
N187 C218 1.435 . S
N187 C224 1.423 . S
H188 C214 0.930 . S
H189 C217 0.931 . S
H190 C216 0.929 . S
H191 C219 0.930 . S
H192 C220 0.932 . S
H193 C223 0.929 . S
H194 C222 0.931 . S
H195 C225 0.929 . S
H196 C229 0.932 . S
H197 C226 0.931 . S
H198 C228 0.929 . S
H199 C231 0.929 . S
H200 C232 0.930 . S
H201 C234 0.929 . S
H202 C235 0.931 . S
H203 C237 0.930 . S
H204 C238 0.932 . S
H205 C240 0.931 . S
H206 C241 0.929 . S
H207 C243 0.929 . S
H208 C244 0.931 1_565 S
H209 C246 0.929 . S
N210 C230 1.433 . S
N210 C236 1.435 . S
N210 C242 1.423 . S
H211 C247 0.932 . S
C212 N187 1.433 . S
C212 C213 1.363 . S
C212 C217 1.370 . S
C213 H186 0.929 . S
C213 C212 1.363 . S
C213 C214 1.385 . S
C214 H188 0.930 . S
C214 C213 1.385 . S
C214 C215 1.357 . S
C215 C214 1.357 . S
C215 C216 1.406 . S
C216 H190 0.929 . S
C216 C215 1.406 . S
C216 C217 1.391 . S
C217 H189 0.931 . S
C217 C212 1.370 . S
C217 C216 1.391 . S
C218 N187 1.435 . S
C218 C219 1.358 . S
C218 C223 1.371 . S
C219 H191 0.930 . S
C219 C218 1.358 . S
C219 C220 1.405 . S
C220 H192 0.932 . S
C220 C219 1.405 . S
C220 C221 1.383 . S
C221 C220 1.383 . S
C221 C222 1.393 . S
C222 H194 0.931 . S
C222 C221 1.393 . S
C222 C223 1.382 . S
C223 H193 0.929 . S
C223 C218 1.371 . S
C223 C222 1.382 . S
C224 N187 1.423 . S
C224 C225 1.362 . S
C224 C229 1.388 . S
C225 H195 0.929 . S
C225 C224 1.362 . S
C225 C226 1.376 . S
C226 H197 0.931 . S
C226 C225 1.376 . S
C226 C227 1.396 . S
C227 C226 1.396 . S
C227 C228 1.348 . S
C227 C245 1.468 1_565 S
C228 H198 0.929 . S
C228 C227 1.348 . S
C228 C229 1.443 . S
C229 H196 0.932 . S
C229 C224 1.388 . S
C229 C228 1.443 . S
C230 N210 1.433 . S
C230 C231 1.363 . S
C230 C235 1.370 . S
C231 H199 0.929 . S
C231 C230 1.363 . S
C231 C232 1.385 . S
C232 H200 0.930 . S
C232 C231 1.385 . S
C232 C233 1.357 . S
C233 C232 1.357 . S
C233 C234 1.406 . S
C234 H201 0.929 . S
C234 C233 1.406 . S
C234 C235 1.391 . S
C235 H202 0.931 . S
C235 C230 1.370 . S
C235 C234 1.391 . S
C236 N210 1.435 . S
C236 C237 1.358 . S
C236 C241 1.371 . S
C237 H203 0.930 . S
C237 C236 1.358 . S
C237 C238 1.405 . S
C238 H204 0.932 . S
C238 C237 1.405 . S
C238 C239 1.383 . S
C239 C238 1.383 . S
C239 C240 1.393 . S
C240 H205 0.931 . S
C240 C239 1.393 . S
C240 C241 1.382 . S
C241 H206 0.929 . S
C241 C236 1.371 . S
C241 C240 1.382 . S
C242 N210 1.423 . S
C242 C243 1.362 . S
C242 C247 1.388 . S
C243 H207 0.929 . S
C243 C242 1.362 . S
C243 C244 1.376 . S
C244 H208 0.931 1_545 S
C244 C243 1.376 . S
C244 C245 1.396 . S
C245 C227 1.468 1_545 S
C245 C244 1.396 . S
C245 C246 1.352 . S
C246 H209 0.929 . S
C246 C245 1.352 . S
C246 C247 1.443 . S
C247 H211 0.932 . S
C247 C242 1.388 . S
C247 C246 1.443 . S
H248 C275 0.929 . S
N249 C274 1.433 . S
N249 C280 1.435 . S
N249 C286 1.423 . S
H250 C276 0.930 . S
H251 C279 0.931 . S
H252 C278 0.929 . S
H253 C281 0.930 . S
H254 C282 0.932 . S
H255 C285 0.929 . S
H256 C284 0.931 . S
H257 C287 0.929 . S
H258 C291 0.932 . S
H259 C288 0.931 . S
H260 C290 0.929 . S
H261 C293 0.929 . S
H262 C294 0.930 . S
H263 C296 0.929 . S
H264 C297 0.931 . S
H265 C299 0.930 . S
H266 C300 0.932 . S
H267 C302 0.931 1_554 S
H268 C303 0.929 . S
H269 C305 0.929 . S
H270 C306 0.931 1_455 S
H271 C308 0.929 . S
N272 C292 1.433 . S
N272 C298 1.435 . S
N272 C304 1.423 . S
H273 C309 0.932 . S
C274 N249 1.433 . S
C274 C275 1.363 . S
C274 C279 1.370 . S
C275 H248 0.929 . S
C275 C274 1.363 . S
C275 C276 1.385 . S
C276 H250 0.930 . S
C276 C275 1.385 . S
C276 C277 1.357 . S
C277 C276 1.357 . S
C277 C278 1.406 . S
C278 H252 0.929 . S
C278 C277 1.406 . S
C278 C279 1.391 . S
C279 H251 0.931 . S
C279 C274 1.370 . S
C279 C278 1.391 . S
C280 N249 1.435 . S
C280 C281 1.358 . S
C280 C285 1.371 1_556 S
C281 H253 0.930 . S
C281 C280 1.358 . S
C281 C282 1.405 1_556 S
C282 H254 0.932 . S
C282 C281 1.405 1_554 S
C282 C283 1.383 . S
C283 C282 1.383 . S
C283 C284 1.393 . S
C284 H256 0.931 . S
C284 C283 1.393 . S
C284 C285 1.382 . S
C285 H255 0.929 . S
C285 C280 1.371 1_554 S
C285 C284 1.382 . S
C286 N249 1.423 . S
C286 C287 1.362 . S
C286 C291 1.388 . S
C287 H257 0.929 . S
C287 C286 1.362 . S
C287 C288 1.376 . S
C288 H259 0.931 . S
C288 C287 1.376 . S
C288 C289 1.396 . S
C289 C288 1.396 . S
C289 C290 1.348 . S
C289 C307 1.472 . S
C290 H260 0.929 . S
C290 C289 1.348 . S
C290 C291 1.443 . S
C291 H258 0.932 . S
C291 C286 1.388 . S
C291 C290 1.443 . S
C292 N272 1.433 . S
C292 C293 1.363 . S
C292 C297 1.370 . S
C293 H261 0.929 . S
C293 C292 1.363 . S
C293 C294 1.385 . S
C294 H262 0.930 . S
C294 C293 1.385 . S
C294 C295 1.357 . S
C295 C294 1.357 . S
C295 C296 1.406 . S
C296 H263 0.929 . S
C296 C295 1.406 . S
C296 C297 1.391 . S
C297 H264 0.931 . S
C297 C292 1.370 . S
C297 C296 1.391 . S
C298 N272 1.435 . S
C298 C299 1.358 . S
C298 C303 1.371 . S
C299 H265 0.930 . S
C299 C298 1.358 . S
C299 C300 1.405 . S
C300 H266 0.932 . S
C300 C299 1.405 . S
C300 C301 1.425 . S
C301 C300 1.425 . S
C301 C302 1.398 . S
C302 H267 0.931 1_556 S
C302 C301 1.398 . S
C302 C303 1.382 . S
C303 H268 0.929 . S
C303 C298 1.371 . S
C303 C302 1.382 . S
C304 N272 1.423 . S
C304 C305 1.362 . S
C304 C309 1.388 . S
C305 H269 0.929 . S
C305 C304 1.362 . S
C305 C306 1.376 . S
C306 H270 0.931 1_655 S
C306 C305 1.376 . S
C306 C307 1.396 1_655 S
C307 C289 1.472 . S
C307 C306 1.396 1_455 S
C307 C308 1.348 1_455 S
C308 H271 0.929 . S
C308 C307 1.348 1_655 S
C308 C309 1.443 . S
C309 H273 0.932 . S
C309 C304 1.388 . S
C309 C308 1.443 . S
H310 C337 0.929 . S
N311 C336 1.433 . S
N311 C342 1.435 . S
N311 C348 1.423 . S
H312 C338 0.930 . S
H313 C341 0.931 . S
H314 C340 0.929 . S
H315 C343 0.930 . S
H316 C344 0.932 . S
H317 C347 0.929 . S
H318 C346 0.931 . S
H319 C349 0.929 . S
H320 C353 0.932 . S
H321 C350 0.931 . S
H322 C352 0.929 . S
H323 C355 0.929 . S
H324 C356 0.930 . S
H325 C358 0.929 . S
H326 C359 0.931 . S
H327 C361 0.930 . S
H328 C362 0.932 . S
H329 C364 0.931 . S
H330 C365 0.929 . S
H331 C367 0.929 . S
H332 C368 0.931 . S
H333 C370 0.929 . S
N334 C354 1.433 . S
N334 C360 1.435 . S
N334 C366 1.423 . S
H335 C371 0.932 . S
C336 N311 1.433 . S
C336 C337 1.363 . S
C336 C341 1.370 . S
C337 H310 0.929 . S
C337 C336 1.363 . S
C337 C338 1.385 . S
C338 H312 0.930 . S
C338 C337 1.385 . S
C338 C339 1.357 . S
C339 C338 1.357 . S
C339 C340 1.406 . S
C340 H314 0.929 . S
C340 C339 1.406 . S
C340 C341 1.391 . S
C341 H313 0.931 . S
C341 C336 1.370 . S
C341 C340 1.391 . S
C342 N311 1.435 . S
C342 C343 1.358 . S
C342 C347 1.371 . S
C343 H315 0.930 . S
C343 C342 1.358 . S
C343 C344 1.405 . S
C344 H316 0.932 . S
C344 C343 1.405 . S
C344 C345 1.383 . S
C345 C344 1.383 . S
C345 C346 1.393 . S
C346 H318 0.931 . S
C346 C345 1.393 . S
C346 C347 1.382 . S
C347 H317 0.929 . S
C347 C342 1.371 . S
C347 C346 1.382 . S
C348 N311 1.423 . S
C348 C349 1.362 . S
C348 C353 1.388 . S
C349 H319 0.929 . S
C349 C348 1.362 . S
C349 C350 1.376 . S
C350 H321 0.931 . S
C350 C349 1.376 . S
C350 C351 1.396 . S
C351 C350 1.396 . S
C351 C352 1.348 . S
C351 C369 1.472 . S
C352 H322 0.929 . S
C352 C351 1.348 . S
C352 C353 1.443 . S
C353 H320 0.932 . S
C353 C348 1.388 . S
C353 C352 1.443 . S
C354 N334 1.433 . S
C354 C355 1.363 . S
C354 C359 1.370 . S
C355 H323 0.929 . S
C355 C354 1.363 . S
C355 C356 1.385 . S
C356 H324 0.930 . S
C356 C355 1.385 . S
C356 C357 1.357 . S
C357 C356 1.357 . S
C357 C358 1.406 . S
C358 H325 0.929 . S
C358 C357 1.406 . S
C358 C359 1.391 . S
C359 H326 0.931 . S
C359 C354 1.370 . S
C359 C358 1.391 . S
C360 N334 1.435 . S
C360 C361 1.358 . S
C360 C365 1.371 . S
C361 H327 0.930 . S
C361 C360 1.358 . S
C361 C362 1.405 . S
C362 H328 0.932 . S
C362 C361 1.405 . S
C362 C363 1.383 . S
C363 C362 1.383 . S
C363 C364 1.393 . S
C364 H329 0.931 . S
C364 C363 1.393 . S
C364 C365 1.382 . S
C365 H330 0.929 . S
C365 C360 1.371 . S
C365 C364 1.382 . S
C366 N334 1.423 . S
C366 C367 1.362 . S
C366 C371 1.388 . S
C367 H331 0.929 . S
C367 C366 1.362 . S
C367 C368 1.376 . S
C368 H332 0.931 . S
C368 C367 1.376 . S
C368 C369 1.396 . S
C369 C351 1.472 . S
C369 C368 1.396 . S
C369 C370 1.348 . S
C370 H333 0.929 . S
C370 C369 1.348 . S
C370 C371 1.443 . S
C371 H335 0.932 . S
C371 C366 1.388 . S
C371 C370 1.443 . S
H372 C399 0.929 . S
N373 C398 1.433 . S
N373 C404 1.435 . S
N373 C410 1.423 . S
H374 C400 0.930 . S
H375 C403 0.931 . S
H376 C402 0.929 . S
H377 C405 0.930 . S
H378 C406 0.932 . S
H379 C409 0.929 . S
H380 C408 0.931 . S
H381 C411 0.929 . S
H382 C415 0.932 . S
H383 C412 0.931 . S
H384 C414 0.929 . S
H385 C417 0.929 . S
H386 C418 0.930 . S
H387 C420 0.929 . S
H388 C421 0.931 . S
H389 C423 0.930 . S
H390 C424 0.932 . S
H391 C426 0.931 . S
H392 C427 0.929 . S
H393 C429 0.929 . S
H394 C430 0.931 . S
H395 C432 0.929 . S
N396 C416 1.433 . S
N396 C422 1.435 . S
N396 C428 1.423 . S
H397 C433 0.932 . S
C398 N373 1.433 . S
C398 C399 1.363 . S
C398 C403 1.370 . S
C399 H372 0.929 . S
C399 C398 1.363 . S
C399 C400 1.385 . S
C400 H374 0.930 . S
C400 C399 1.385 . S
C400 C401 1.357 . S
C401 C400 1.357 . S
C401 C402 1.406 . S
C402 H376 0.929 . S
C402 C401 1.406 . S
C402 C403 1.391 . S
C403 H375 0.931 . S
C403 C398 1.370 . S
C403 C402 1.391 . S
C404 N373 1.435 . S
C404 C405 1.358 . S
C404 C409 1.371 . S
C405 H377 0.930 . S
C405 C404 1.358 . S
C405 C406 1.405 . S
C406 H378 0.932 . S
C406 C405 1.405 . S
C406 C407 1.383 . S
C407 C406 1.383 . S
C407 C408 1.393 . S
C408 H380 0.931 . S
C408 C407 1.393 . S
C408 C409 1.382 . S
C409 H379 0.929 . S
C409 C404 1.371 . S
C409 C408 1.382 . S
C410 N373 1.423 . S
C410 C411 1.362 1_565 S
C410 C415 1.388 . S
C411 H381 0.929 . S
C411 C410 1.362 1_545 S
C411 C412 1.376 . S
C412 H383 0.931 . S
C412 C411 1.376 . S
C412 C413 1.396 . S
C413 C412 1.396 . S
C413 C414 1.348 . S
C413 C431 1.472 . S
C414 H384 0.929 . S
C414 C413 1.348 . S
C414 C415 1.443 1_545 S
C415 H382 0.932 . S
C415 C410 1.388 . S
C415 C414 1.443 1_565 S
C416 N396 1.433 . S
C416 C417 1.363 . S
C416 C421 1.370 . S
C417 H385 0.929 . S
C417 C416 1.363 . S
C417 C418 1.385 . S
C418 H386 0.930 . S
C418 C417 1.385 . S
C418 C419 1.357 . S
C419 C418 1.357 . S
C419 C420 1.406 . S
C420 H387 0.929 . S
C420 C419 1.406 . S
C420 C421 1.391 . S
C421 H388 0.931 . S
C421 C416 1.370 . S
C421 C420 1.391 . S
C422 N396 1.435 . S
C422 C423 1.358 . S
C422 C427 1.371 . S
C423 H389 0.930 . S
C423 C422 1.358 . S
C423 C424 1.405 . S
C424 H390 0.932 . S
C424 C423 1.405 . S
C424 C425 1.383 . S
C425 C424 1.383 . S
C425 C426 1.393 . S
C426 H391 0.931 . S
C426 C425 1.393 . S
C426 C427 1.382 . S
C427 H392 0.929 . S
C427 C422 1.371 . S
C427 C426 1.382 . S
C428 N396 1.423 . S
C428 C429 1.362 . S
C428 C433 1.388 . S
C429 H393 0.929 . S
C429 C428 1.362 . S
C429 C430 1.376 . S
C430 H394 0.931 . S
C430 C429 1.376 . S
C430 C431 1.396 . S
C431 C413 1.472 . S
C431 C430 1.396 . S
C431 C432 1.348 . S
C432 H395 0.929 . S
C432 C431 1.348 . S
C432 C433 1.443 . S
C433 H397 0.932 . S
C433 C428 1.388 . S
C433 C432 1.443 . S
H434 C461 0.929 . S
N435 C460 1.433 . S
N435 C466 1.435 . S
N435 C472 1.423 . S
H436 C462 0.930 . S
H437 C465 0.931 . S
H438 C464 0.929 . S
H439 C467 0.930 . S
H440 C468 0.925 1_565 S
H441 C471 0.929 . S
H442 C470 0.925 1_565 S
H443 C473 0.929 . S
H444 C477 0.932 . S
H445 C474 0.931 . S
H446 C476 0.929 . S
H447 C479 0.929 . S
H448 C480 0.930 . S
H449 C482 0.929 . S
H450 C483 0.931 . S
H451 C485 0.930 . S
H452 C486 0.932 . S
H453 C488 0.931 . S
H454 C489 0.929 . S
H455 C491 0.929 1_655 S
H456 C492 0.931 . S
H457 C494 0.929 . S
N458 C478 1.433 . S
N458 C484 1.435 . S
N458 C490 1.423 1_655 S
H459 C495 0.932 . S
C460 N435 1.433 . S
C460 C461 1.363 1_545 S
C460 C465 1.370 . S
C461 H434 0.929 . S
C461 C460 1.363 1_565 S
C461 C462 1.385 . S
C462 H436 0.930 . S
C462 C461 1.385 . S
C462 C463 1.357 1_565 S
C463 C462 1.357 1_545 S
C463 C464 1.406 . S
C464 H438 0.929 . S
C464 C463 1.406 . S
C464 C465 1.391 . S
C465 H437 0.931 . S
C465 C460 1.370 . S
C465 C464 1.391 . S
C466 N435 1.435 . S
C466 C467 1.358 . S
C466 C471 1.371 . S
C467 H439 0.930 . S
C467 C466 1.358 . S
C467 C468 1.405 . S
C468 H440 0.925 1_545 S
C468 C467 1.405 . S
C468 C469 1.383 1_545 S
C469 C468 1.383 1_565 S
C469 C470 1.389 1_565 S
C470 H442 0.925 1_545 S
C470 C469 1.389 1_545 S
C470 C471 1.392 . S
C471 H441 0.929 . S
C471 C466 1.371 . S
C471 C470 1.392 . S
C472 N435 1.423 . S
C472 C473 1.362 . S
C472 C477 1.388 . S
C473 H443 0.929 . S
C473 C472 1.362 . S
C473 C474 1.376 . S
C474 H445 0.931 . S
C474 C473 1.376 . S
C474 C475 1.396 . S
C475 C474 1.396 . S
C475 C476 1.348 . S
C475 C493 1.472 . S
C476 H446 0.929 . S
C476 C475 1.348 . S
C476 C477 1.443 . S
C477 H444 0.932 . S
C477 C472 1.388 . S
C477 C476 1.443 . S
C478 N458 1.433 . S
C478 C479 1.363 . S
C478 C483 1.370 1_655 S
C479 H447 0.929 . S
C479 C478 1.363 . S
C479 C480 1.385 . S
C480 H448 0.930 . S
C480 C479 1.385 . S
C480 C481 1.357 . S
C481 C480 1.357 . S
C481 C482 1.406 1_655 S
C482 H449 0.929 . S
C482 C481 1.406 1_455 S
C482 C483 1.391 . S
C483 H450 0.931 . S
C483 C478 1.370 1_455 S
C483 C482 1.391 . S
C484 N458 1.435 . S
C484 C485 1.358 . S
C484 C489 1.371 . S
C485 H451 0.930 . S
C485 C484 1.358 . S
C485 C486 1.405 . S
C486 H452 0.932 . S
C486 C485 1.405 . S
C486 C487 1.383 . S
C487 C486 1.383 . S
C487 C488 1.393 . S
C488 H453 0.931 . S
C488 C487 1.393 . S
C488 C489 1.382 . S
C489 H454 0.929 . S
C489 C484 1.371 . S
C489 C488 1.382 . S
C490 N458 1.423 1_455 S
C490 C491 1.362 . S
C490 C495 1.388 . S
C491 H455 0.929 1_455 S
C491 C490 1.362 . S
C491 C492 1.376 . S
C492 H456 0.931 . S
C492 C491 1.376 . S
C492 C493 1.396 . S
C493 C475 1.472 . S
C493 C492 1.396 . S
C493 C494 1.348 . S
C494 H457 0.929 . S
C494 C493 1.348 . S
C494 C495 1.443 . S
C495 H459 0.932 . S
C495 C490 1.388 . S
C495 C494 1.443 . S
O496 Cd497 2.223 . S
O496 C504 1.315 . S
Cd497 O496 2.223 . S
Cd497 O500 2.297 . S
Cd497 O501 2.439 . S
Cd497 O507 2.240 . S
Cd498 O499 2.240 . S
Cd498 O506 2.223 . S
Cd498 O508 2.297 . S
Cd498 O509 2.439 . S
O499 Cd498 2.240 . S
O499 C504 1.279 . S
O500 Cd497 2.297 . S
O500 C502 1.247 . S
O501 Cd497 2.439 . S
O501 C502 1.208 . S
C502 O500 1.247 . S
C502 O501 1.208 . S
C503 O508 1.247 . S
C503 O509 1.208 . S
C504 O496 1.315 . S
C504 O499 1.279 . S
C505 O506 1.315 . S
C505 O507 1.279 . S
O506 Cd498 2.223 . S
O506 C505 1.315 . S
O507 Cd497 2.240 . S
O507 C505 1.279 . S
O508 Cd498 2.297 . S
O508 C503 1.247 . S
O509 Cd498 2.439 . S
O509 C503 1.208 . S
O510 Cd511 2.223 . S
O510 C518 1.315 . S
Cd511 O510 2.223 . S
Cd511 O514 2.297 . S
Cd511 O515 2.439 . S
Cd511 O521 2.240 . S
Cd512 O513 2.240 . S
Cd512 O520 2.223 . S
Cd512 O522 2.297 . S
Cd512 O523 2.439 . S
O513 Cd512 2.240 . S
O513 C518 1.279 . S
O514 Cd511 2.297 . S
O514 C516 1.247 . S
O515 Cd511 2.439 . S
O515 C516 1.208 . S
C516 O514 1.247 . S
C516 O515 1.208 . S
C517 O522 1.247 . S
C517 O523 1.208 . S
C518 O510 1.315 . S
C518 O513 1.279 . S
C519 O520 1.315 . S
C519 O521 1.279 . S
O520 Cd512 2.223 . S
O520 C519 1.315 . S
O521 Cd511 2.240 . S
O521 C519 1.279 . S
O522 Cd512 2.297 . S
O522 C517 1.247 . S
O523 Cd512 2.439 . S
O523 C517 1.208 . S
O524 Cd525 2.223 . S
O524 C532 1.315 . S
Cd525 O524 2.223 . S
Cd525 O528 2.297 . S
Cd525 O529 2.439 . S
Cd525 O535 2.240 . S
Cd526 O527 2.240 . S
Cd526 O534 2.223 . S
Cd526 O536 2.297 . S
Cd526 O537 2.439 . S
O527 Cd526 2.240 . S
O527 C532 1.279 . S
O528 Cd525 2.297 . S
O528 C530 1.247 . S
O529 Cd525 2.439 . S
O529 C530 1.208 . S
C530 O528 1.247 . S
C530 O529 1.208 . S
C531 O536 1.247 . S
C531 O537 1.208 . S
C532 O524 1.315 . S
C532 O527 1.279 . S
C533 O534 1.315 . S
C533 O535 1.279 . S
O534 Cd526 2.223 . S
O534 C533 1.315 . S
O535 Cd525 2.240 . S
O535 C533 1.279 . S
O536 Cd526 2.297 . S
O536 C531 1.247 . S
O537 Cd526 2.439 . S
O537 C531 1.208 . S
O538 Cd539 2.223 . S
O538 C546 1.315 . S
Cd539 O538 2.223 . S
Cd539 O542 2.297 . S
Cd539 O543 2.439 . S
Cd539 O549 2.240 . S
Cd540 O541 2.240 . S
Cd540 O548 2.223 . S
Cd540 O550 2.297 . S
Cd540 O551 2.439 . S
O541 Cd540 2.240 . S
O541 C546 1.279 . S
O542 Cd539 2.297 . S
O542 C544 1.247 . S
O543 Cd539 2.439 . S
O543 C544 1.208 . S
C544 O542 1.247 . S
C544 O543 1.208 . S
C545 O550 1.247 . S
C545 O551 1.208 . S
C546 O538 1.315 . S
C546 O541 1.279 . S
C547 O548 1.315 . S
C547 O549 1.279 . S
O548 Cd540 2.223 . S
O548 C547 1.315 . S
O549 Cd539 2.240 . S
O549 C547 1.279 . S
O550 Cd540 2.297 . S
O550 C545 1.247 . S
O551 Cd540 2.439 . S
O551 C545 1.208 . S
O552 Cd553 2.223 . S
O552 C560 1.315 . S
Cd553 O552 2.223 . S
Cd553 O556 2.297 . S
Cd553 O557 2.439 . S
Cd553 O563 2.240 . S
Cd554 O555 2.240 . S
Cd554 O562 2.223 . S
Cd554 O564 2.297 . S
Cd554 O565 2.439 . S
O555 Cd554 2.240 . S
O555 C560 1.279 . S
O556 Cd553 2.297 . S
O556 C558 1.247 . S
O557 Cd553 2.439 . S
O557 C558 1.208 . S
C558 O556 1.247 . S
C558 O557 1.208 . S
C559 O564 1.247 . S
C559 O565 1.208 . S
C560 O552 1.315 . S
C560 O555 1.279 . S
C561 O562 1.315 . S
C561 O563 1.279 . S
O562 Cd554 2.223 . S
O562 C561 1.315 . S
O563 Cd553 2.240 . S
O563 C561 1.279 . S
O564 Cd554 2.297 . S
O564 C559 1.247 . S
O565 Cd554 2.439 . S
O565 C559 1.208 . S
O566 Cd567 2.223 . S
O566 C574 1.315 . S
Cd567 O566 2.223 . S
Cd567 O570 2.297 . S
Cd567 O571 2.439 . S
Cd567 O577 2.240 . S
Cd568 O569 2.240 . S
Cd568 O576 2.223 . S
Cd568 O578 2.297 . S
Cd568 O579 2.439 . S
O569 Cd568 2.240 . S
O569 C574 1.279 . S
O570 Cd567 2.297 . S
O570 C572 1.247 . S
O571 Cd567 2.439 . S
O571 C572 1.208 . S
C572 O570 1.247 . S
C572 O571 1.208 . S
C573 O578 1.247 . S
C573 O579 1.208 . S
C574 O566 1.315 . S
C574 O569 1.279 . S
C575 O576 1.315 . S
C575 O577 1.279 . S
O576 Cd568 2.223 . S
O576 C575 1.315 . S
O577 Cd567 2.240 . S
O577 C575 1.279 . S
O578 Cd568 2.297 . S
O578 C573 1.247 . S
O579 Cd568 2.439 . S
O579 C573 1.208 . S
O580 Cd581 2.223 . S
O580 C588 1.315 . S
Cd581 O580 2.223 . S
Cd581 O584 2.297 . S
Cd581 O585 2.439 . S
Cd581 O591 2.240 1_554 S
Cd582 O583 2.240 1_556 S
Cd582 O590 2.223 1_556 S
Cd582 O592 2.297 . S
Cd582 O593 2.439 . S
O583 Cd582 2.240 1_554 S
O583 C588 1.279 . S
O584 Cd581 2.297 . S
O584 C586 1.247 . S
O585 Cd581 2.439 . S
O585 C586 1.208 . S
C586 O584 1.247 . S
C586 O585 1.208 . S
C587 O592 1.247 . S
C587 O593 1.208 . S
C588 O580 1.315 . S
C588 O583 1.279 . S
C589 O590 1.313 1_556 S
C589 O591 1.279 . S
O590 Cd582 2.223 1_554 S
O590 C589 1.313 1_554 S
O591 Cd581 2.240 1_556 S
O591 C589 1.279 . S
O592 Cd582 2.297 . S
O592 C587 1.247 . S
O593 Cd582 2.439 . S
O593 C587 1.208 . S
O594 Cd595 2.223 . S
O594 C602 1.315 . S
Cd595 O594 2.223 . S
Cd595 O598 2.297 . S
Cd595 O599 2.439 . S
Cd595 O605 2.240 . S
Cd596 O597 2.240 . S
Cd596 O604 2.223 . S
Cd596 O606 2.297 . S
Cd596 O607 2.439 . S
O597 Cd596 2.240 . S
O597 C602 1.279 . S
O598 Cd595 2.297 . S
O598 C600 1.247 . S
O599 Cd595 2.439 . S
O599 C600 1.208 . S
C600 O598 1.247 . S
C600 O599 1.208 . S
C601 O606 1.247 . S
C601 O607 1.208 . S
C602 O594 1.315 . S
C602 O597 1.279 . S
C603 O604 1.315 . S
C603 O605 1.279 . S
O604 Cd596 2.223 . S
O604 C603 1.315 . S
O605 Cd595 2.240 . S
O605 C603 1.279 . S
O606 Cd596 2.297 . S
O606 C601 1.247 . S
O607 Cd596 2.439 . S
O607 C601 1.208 . S
C608 C609 1.369 . S
C608 C610 1.419 . S
C608 H612 0.930 . S
C609 C608 1.369 . S
C609 C618 1.429 . S
C610 C608 1.419 . S
C610 C611 1.363 . S
C610 H613 0.929 . S
C611 C610 1.363 . S
C611 C617 1.428 . S
H612 C608 0.930 . S
H613 C610 0.929 . S
S614 N615 1.613 . S
S614 N616 1.610 . S
N615 S614 1.613 . S
N615 C618 1.350 . S
N616 S614 1.610 . S
N616 C617 1.351 . S
C617 C611 1.428 . S
C617 N616 1.351 . S
C617 C618 1.434 . S
C618 C609 1.429 . S
C618 N615 1.350 . S
C618 C617 1.434 . S
C619 C620 1.369 . S
C619 C621 1.419 . S
C619 H623 0.930 . S
C620 C619 1.369 . S
C620 C629 1.429 . S
C621 C619 1.419 . S
C621 C622 1.363 . S
C621 H624 0.929 . S
C622 C621 1.363 . S
C622 C628 1.428 . S
H623 C619 0.930 . S
H624 C621 0.929 . S
S625 N626 1.613 . S
S625 N627 1.610 . S
N626 S625 1.613 . S
N626 C629 1.350 . S
N627 S625 1.610 . S
N627 C628 1.351 . S
C628 C622 1.428 . S
C628 N627 1.351 . S
C628 C629 1.434 . S
C629 C620 1.429 . S
C629 N626 1.350 . S
C629 C628 1.434 . S
C630 C631 1.369 . S
C630 C632 1.419 . S
C630 H634 0.930 . S
C631 C630 1.369 . S
C631 C640 1.429 . S
C632 C630 1.419 . S
C632 C633 1.363 . S
C632 H635 0.929 . S
C633 C632 1.363 . S
C633 C639 1.428 . S
H634 C630 0.930 . S
H635 C632 0.929 . S
S636 N637 1.613 . S
S636 N638 1.610 . S
N637 S636 1.613 . S
N637 C640 1.350 . S
N638 S636 1.610 . S
N638 C639 1.351 . S
C639 C633 1.428 . S
C639 N638 1.351 . S
C639 C640 1.434 . S
C640 C631 1.429 . S
C640 N637 1.350 . S
C640 C639 1.434 . S
C641 C642 1.369 . S
C641 C643 1.419 . S
C641 H645 0.930 . S
C642 C641 1.369 . S
C642 C651 1.429 . S
C643 C641 1.419 . S
C643 C644 1.363 . S
C643 H646 0.929 . S
C644 C643 1.363 . S
C644 C650 1.428 . S
H645 C641 0.930 . S
H646 C643 0.929 . S
S647 N648 1.613 . S
S647 N649 1.610 . S
N648 S647 1.613 . S
N648 C651 1.350 . S
N649 S647 1.610 . S
N649 C650 1.351 . S
C650 C644 1.428 . S
C650 N649 1.351 . S
C650 C651 1.434 . S
C651 C642 1.429 . S
C651 N648 1.350 . S
C651 C650 1.434 . S
C652 C653 1.369 . S
C652 C654 1.419 . S
C652 H656 0.930 . S
C653 C652 1.369 . S
C653 C662 1.429 . S
C654 C652 1.419 . S
C654 C655 1.363 . S
C654 H657 0.929 . S
C655 C654 1.363 . S
C655 C661 1.428 . S
H656 C652 0.930 . S
H657 C654 0.929 . S
S658 N659 1.613 . S
S658 N660 1.610 . S
N659 S658 1.613 . S
N659 C662 1.350 . S
N660 S658 1.610 . S
N660 C661 1.351 . S
C661 C655 1.428 . S
C661 N660 1.351 . S
C661 C662 1.434 . S
C662 C653 1.429 . S
C662 N659 1.350 . S
C662 C661 1.434 . S
C663 C664 1.369 . S
C663 C665 1.419 . S
C663 H667 0.930 . S
C664 C663 1.369 . S
C664 C673 1.429 . S
C665 C663 1.419 . S
C665 C666 1.363 . S
C665 H668 0.929 . S
C666 C665 1.363 . S
C666 C672 1.428 . S
H667 C663 0.930 . S
H668 C665 0.929 . S
S669 N670 1.613 . S
S669 N671 1.610 . S
N670 S669 1.613 . S
N670 C673 1.350 . S
N671 S669 1.610 . S
N671 C672 1.351 . S
C672 C666 1.428 . S
C672 N671 1.351 . S
C672 C673 1.434 . S
C673 C664 1.429 . S
C673 N670 1.350 . S
C673 C672 1.434 . S
C674 C675 1.369 . S
C674 C676 1.419 . S
C674 H678 0.930 . S
C675 C674 1.369 . S
C675 C684 1.429 . S
C676 C674 1.419 . S
C676 C677 1.363 . S
C676 H679 0.929 . S
C677 C676 1.363 . S
C677 C683 1.428 . S
H678 C674 0.930 . S
H679 C676 0.929 . S
S680 N681 1.613 . S
S680 N682 1.610 . S
N681 S680 1.613 . S
N681 C684 1.350 . S
N682 S680 1.610 . S
N682 C683 1.351 . S
C683 C677 1.428 . S
C683 N682 1.351 . S
C683 C684 1.434 . S
C684 C675 1.429 . S
C684 N681 1.350 . S
C684 C683 1.434 . S
C685 C686 1.369 . S
C685 C687 1.419 . S
C685 H689 0.930 . S
C686 C685 1.369 . S
C686 C695 1.429 . S
C687 C685 1.419 . S
C687 C688 1.363 . S
C687 H690 0.929 . S
C688 C687 1.363 . S
C688 C694 1.428 . S
H689 C685 0.930 . S
H690 C687 0.929 . S
S691 N692 1.613 . S
S691 N693 1.610 . S
N692 S691 1.613 . S
N692 C695 1.350 . S
N693 S691 1.610 . S
N693 C694 1.351 . S
C694 C688 1.428 . S
C694 N693 1.351 . S
C694 C695 1.434 . S
C695 C686 1.429 . S
C695 N692 1.350 . S
C695 C694 1.434 . S
C696 C697 1.369 . S
C696 C698 1.419 . S
C696 H700 0.930 . S
C697 C696 1.369 . S
C697 C706 1.429 . S
C698 C696 1.419 . S
C698 C699 1.363 . S
C698 H701 0.929 . S
C699 C698 1.363 . S
C699 C705 1.428 . S
H700 C696 0.930 . S
H701 C698 0.929 . S
S702 N703 1.613 . S
S702 N704 1.610 . S
N703 S702 1.613 . S
N703 C706 1.350 . S
N704 S702 1.610 . S
N704 C705 1.351 . S
C705 C699 1.428 . S
C705 N704 1.351 . S
C705 C706 1.434 . S
C706 C697 1.429 . S
C706 N703 1.350 . S
C706 C705 1.434 . S
C707 C708 1.369 . S
C707 C709 1.419 . S
C707 H711 0.930 . S
C708 C707 1.369 . S
C708 C717 1.429 . S
C709 C707 1.419 . S
C709 C710 1.363 . S
C709 H712 0.929 . S
C710 C709 1.363 . S
C710 C716 1.428 . S
H711 C707 0.930 . S
H712 C709 0.929 . S
S713 N714 1.613 . S
S713 N715 1.610 . S
N714 S713 1.613 . S
N714 C717 1.350 . S
N715 S713 1.610 . S
N715 C716 1.351 . S
C716 C710 1.428 . S
C716 N715 1.351 . S
C716 C717 1.434 . S
C717 C708 1.429 . S
C717 N714 1.350 . S
C717 C716 1.434 . S
C718 C719 1.369 . S
C718 C720 1.419 . S
C718 H722 0.930 . S
C719 C718 1.369 . S
C719 C728 1.429 . S
C720 C718 1.419 . S
C720 C721 1.363 . S
C720 H723 0.929 . S
C721 C720 1.363 . S
C721 C727 1.428 . S
H722 C718 0.930 . S
H723 C720 0.929 . S
S724 N725 1.613 . S
S724 N726 1.610 . S
N725 S724 1.613 . S
N725 C728 1.350 . S
N726 S724 1.610 . S
N726 C727 1.351 . S
C727 C721 1.428 . S
C727 N726 1.351 . S
C727 C728 1.434 . S
C728 C719 1.429 . S
C728 N725 1.350 . S
C728 C727 1.434 . S
C729 C730 1.369 . S
C729 C731 1.419 . S
C729 H733 0.930 . S
C730 C729 1.369 . S
C730 C739 1.429 . S
C731 C729 1.419 . S
C731 C732 1.363 . S
C731 H734 0.929 . S
C732 C731 1.363 . S
C732 C738 1.428 . S
H733 C729 0.930 . S
H734 C731 0.929 . S
S735 N736 1.613 . S
S735 N737 1.610 . S
N736 S735 1.613 . S
N736 C739 1.350 . S
N737 S735 1.610 . S
N737 C738 1.351 . S
C738 C732 1.428 . S
C738 N737 1.351 . S
C738 C739 1.434 . S
C739 C730 1.429 . S
C739 N736 1.350 . S
C739 C738 1.434 . S
C740 C741 1.369 . S
C740 C742 1.419 . S
C740 H744 0.930 . S
C741 C740 1.369 . S
C741 C750 1.429 . S
C742 C740 1.419 . S
C742 C743 1.363 . S
C742 H745 0.929 . S
C743 C742 1.363 . S
C743 C749 1.428 . S
H744 C740 0.930 . S
H745 C742 0.929 . S
S746 N747 1.613 . S
S746 N748 1.610 . S
N747 S746 1.613 . S
N747 C750 1.350 . S
N748 S746 1.610 . S
N748 C749 1.351 . S
C749 C743 1.428 . S
C749 N748 1.351 . S
C749 C750 1.434 . S
C750 C741 1.429 . S
C750 N747 1.350 . S
C750 C749 1.434 . S
C751 C752 1.369 . S
C751 C753 1.419 . S
C751 H755 0.930 . S
C752 C751 1.369 . S
C752 C761 1.429 . S
C753 C751 1.419 . S
C753 C754 1.363 . S
C753 H756 0.929 . S
C754 C753 1.363 . S
C754 C760 1.428 . S
H755 C751 0.930 . S
H756 C753 0.929 . S
S757 N758 1.613 . S
S757 N759 1.610 . S
N758 S757 1.613 . S
N758 C761 1.350 . S
N759 S757 1.610 . S
N759 C760 1.351 . S
C760 C754 1.428 . S
C760 N759 1.351 . S
C760 C761 1.434 . S
C761 C752 1.429 . S
C761 N758 1.350 . S
C761 C760 1.434 . S
C762 C763 1.369 . S
C762 C764 1.419 . S
C762 H766 0.930 . S
C763 C762 1.369 . S
C763 C772 1.429 1_554 S
C764 C762 1.419 . S
C764 C765 1.315 1_554 S
C764 H767 0.929 . S
C765 C764 1.315 1_556 S
C765 C771 1.475 . S
H766 C762 0.930 . S
H767 C764 0.929 . S
S768 N769 1.613 . S
S768 N770 1.610 . S
N769 S768 1.613 . S
N769 C772 1.350 . S
N770 S768 1.610 . S
N770 C771 1.351 . S
C771 C765 1.475 . S
C771 N770 1.351 . S
C771 C772 1.434 . S
C772 C763 1.429 1_556 S
C772 N769 1.350 . S
C772 C771 1.434 . S
C773 C774 1.369 . S
C773 C775 1.419 . S
C773 H777 0.930 . S
C774 C773 1.369 . S
C774 C783 1.429 . S
C775 C773 1.419 . S
C775 C776 1.363 . S
C775 H778 0.929 . S
C776 C775 1.363 . S
C776 C782 1.428 . S
H777 C773 0.930 . S
H778 C775 0.929 . S
S779 N780 1.613 . S
S779 N781 1.610 . S
N780 S779 1.613 . S
N780 C783 1.350 . S
N781 S779 1.610 . S
N781 C782 1.351 . S
C782 C776 1.428 . S
C782 N781 1.351 . S
C782 C783 1.434 . S
C783 C774 1.429 . S
C783 N780 1.350 . S
C783 C782 1.434 . S
C784 C785 1.369 . S
C784 C786 1.419 . S
C784 H788 0.930 . S
C785 C784 1.369 . S
C785 C794 1.429 . S
C786 C784 1.419 . S
C786 C787 1.363 . S
C786 H789 0.929 . S
C787 C786 1.363 . S
C787 C793 1.428 . S
H788 C784 0.930 . S
H789 C786 0.929 . S
S790 N791 1.613 . S
S790 N792 1.610 . S
N791 S790 1.613 . S
N791 C794 1.350 . S
N792 S790 1.610 . S
N792 C793 1.351 . S
C793 C787 1.428 . S
C793 N792 1.351 . S
C793 C794 1.434 . S
C794 C785 1.429 . S
C794 N791 1.350 . S
C794 C793 1.434 . S
C795 C796 1.369 . S
C795 C797 1.419 . S
C795 H799 0.930 . S
C796 C795 1.369 . S
C796 C805 1.429 . S
C797 C795 1.419 . S
C797 C798 1.363 . S
C797 H800 0.929 . S
C798 C797 1.363 . S
C798 C804 1.428 . S
H799 C795 0.930 . S
H800 C797 0.929 . S
S801 N802 1.613 . S
S801 N803 1.610 . S
N802 S801 1.613 . S
N802 C805 1.350 . S
N803 S801 1.610 . S
N803 C804 1.351 . S
C804 C798 1.428 . S
C804 N803 1.351 . S
C804 C805 1.434 . S
C805 C796 1.429 . S
C805 N802 1.350 . S
C805 C804 1.434 . S
C806 C807 1.369 . S
C806 C808 1.419 . S
C806 H810 0.930 . S
C807 C806 1.369 . S
C807 C816 1.429 . S
C808 C806 1.419 . S
C808 C809 1.363 . S
C808 H811 0.929 . S
C809 C808 1.363 . S
C809 C815 1.428 . S
H810 C806 0.930 . S
H811 C808 0.929 . S
S812 N813 1.613 . S
S812 N814 1.610 . S
N813 S812 1.613 . S
N813 C816 1.350 . S
N814 S812 1.610 . S
N814 C815 1.351 . S
C815 C809 1.428 . S
C815 N814 1.351 . S
C815 C816 1.434 . S
C816 C807 1.429 . S
C816 N813 1.350 . S
C816 C815 1.434 . S
C817 C818 1.369 . S
C817 C819 1.419 . S
C817 H821 0.930 . S
C818 C817 1.369 . S
C818 C827 1.429 . S
C819 C817 1.419 . S
C819 C820 1.363 . S
C819 H822 0.929 . S
C820 C819 1.363 . S
C820 C826 1.428 . S
H821 C817 0.930 . S
H822 C819 0.929 . S
S823 N824 1.613 . S
S823 N825 1.610 . S
N824 S823 1.613 . S
N824 C827 1.350 . S
N825 S823 1.610 . S
N825 C826 1.351 . S
C826 C820 1.428 . S
C826 N825 1.351 . S
C826 C827 1.434 . S
C827 C818 1.429 . S
C827 N824 1.350 . S
C827 C826 1.434 . S
C828 C829 1.369 . S
C828 C830 1.419 . S
C828 H832 0.930 . S
C829 C828 1.369 . S
C829 C838 1.429 . S
C830 C828 1.419 . S
C830 C831 1.363 . S
C830 H833 0.929 . S
C831 C830 1.363 . S
C831 C837 1.428 . S
H832 C828 0.930 . S
H833 C830 0.929 . S
S834 N835 1.613 . S
S834 N836 1.610 . S
N835 S834 1.613 . S
N835 C838 1.350 . S
N836 S834 1.610 . S
N836 C837 1.351 . S
C837 C831 1.428 . S
C837 N836 1.351 . S
C837 C838 1.434 . S
C838 C829 1.429 . S
C838 N835 1.350 . S
C838 C837 1.434 . S
C839 C840 1.369 . S
C839 C841 1.419 . S
C839 H843 0.930 . S
C840 C839 1.369 . S
C840 C849 1.429 . S
C841 C839 1.419 . S
C841 C842 1.363 . S
C841 H844 0.929 . S
C842 C841 1.363 . S
C842 C848 1.428 . S
H843 C839 0.930 . S
H844 C841 0.929 . S
S845 N846 1.613 . S
S845 N847 1.610 . S
N846 S845 1.613 . S
N846 C849 1.350 . S
N847 S845 1.610 . S
N847 C848 1.351 . S
C848 C842 1.428 . S
C848 N847 1.351 . S
C848 C849 1.434 . S
C849 C840 1.429 . S
C849 N846 1.350 . S
C849 C848 1.434 . S
C850 C851 1.369 . S
C850 C852 1.419 . S
C850 H854 0.930 . S
C851 C850 1.369 . S
C851 C860 1.429 . S
C852 C850 1.419 . S
C852 C853 1.363 . S
C852 H855 0.929 . S
C853 C852 1.363 . S
C853 C859 1.428 . S
H854 C850 0.930 . S
H855 C852 0.929 . S
S856 N857 1.613 . S
S856 N858 1.610 . S
N857 S856 1.613 . S
N857 C860 1.350 . S
N858 S856 1.610 . S
N858 C859 1.351 . S
C859 C853 1.428 . S
C859 N858 1.351 . S
C859 C860 1.434 . S
C860 C851 1.429 . S
C860 N857 1.350 . S
C860 C859 1.434 . S
C861 C862 1.369 1_545 S
C861 C863 1.419 1_545 S
C861 H865 0.930 . S
C862 C861 1.369 1_565 S
C862 C871 1.429 . S
C863 C861 1.419 1_565 S
C863 C864 1.363 . S
C863 H866 0.929 . S
C864 C863 1.363 . S
C864 C870 1.428 . S
H865 C861 0.930 . S
H866 C863 0.929 . S
S867 N868 1.613 . S
S867 N869 1.610 . S
N868 S867 1.613 . S
N868 C871 1.350 . S
N869 S867 1.610 . S
N869 C870 1.351 . S
C870 C864 1.428 . S
C870 N869 1.351 . S
C870 C871 1.434 . S
C871 C862 1.429 . S
C871 N868 1.350 . S
C871 C870 1.434 . S
C872 C873 1.369 . S
C872 C874 1.419 . S
C872 H876 0.930 . S
C873 C872 1.369 . S
C873 C882 1.429 . S
C874 C872 1.419 . S
C874 C875 1.363 . S
C874 H877 0.929 . S
C875 C874 1.363 . S
C875 C881 1.428 . S
H876 C872 0.930 . S
H877 C874 0.929 . S
S878 N879 1.613 . S
S878 N880 1.610 . S
N879 S878 1.613 . S
N879 C882 1.350 . S
N880 S878 1.610 . S
N880 C881 1.351 . S
C881 C875 1.428 . S
C881 N880 1.351 . S
C881 C882 1.434 . S
C882 C873 1.429 . S
C882 N879 1.350 . S
C882 C881 1.434 . S
C883 C884 1.369 . S
C883 C885 1.419 . S
C883 H887 0.930 . S
C884 C883 1.369 . S
C884 C893 1.429 . S
C885 C883 1.419 . S
C885 C886 1.363 . S
C885 H888 0.929 . S
C886 C885 1.363 . S
C886 C892 1.428 . S
H887 C883 0.930 . S
H888 C885 0.929 . S
S889 N890 1.613 . S
S889 N891 1.610 . S
N890 S889 1.613 . S
N890 C893 1.350 . S
N891 S889 1.610 . S
N891 C892 1.351 . S
C892 C886 1.428 . S
C892 N891 1.351 . S
C892 C893 1.434 . S
C893 C884 1.429 . S
C893 N890 1.350 . S
C893 C892 1.434 . S
C894 C895 1.369 . S
C894 C896 1.419 . S
C894 H898 0.930 . S
C895 C894 1.369 . S
C895 C904 1.429 . S
C896 C894 1.419 . S
C896 C897 1.363 . S
C896 H899 0.929 . S
C897 C896 1.363 . S
C897 C903 1.428 . S
H898 C894 0.930 . S
H899 C896 0.929 . S
S900 N901 1.613 . S
S900 N902 1.610 . S
N901 S900 1.613 . S
N901 C904 1.350 . S
N902 S900 1.610 . S
N902 C903 1.351 . S
C903 C897 1.428 . S
C903 N902 1.351 . S
C903 C904 1.434 . S
C904 C895 1.429 . S
C904 N901 1.350 . S
C904 C903 1.434 . S
C905 C906 1.369 . S
C905 C907 1.419 . S
C905 H909 0.930 . S
C906 C905 1.369 . S
C906 C915 1.429 . S
C907 C905 1.419 . S
C907 C908 1.363 . S
C907 H910 0.929 . S
C908 C907 1.363 . S
C908 C914 1.428 . S
H909 C905 0.930 . S
H910 C907 0.929 . S
S911 N912 1.613 . S
S911 N913 1.610 . S
N912 S911 1.613 . S
N912 C915 1.350 . S
N913 S911 1.610 . S
N913 C914 1.351 . S
C914 C908 1.428 . S
C914 N913 1.351 . S
C914 C915 1.434 . S
C915 C906 1.429 . S
C915 N912 1.350 . S
C915 C914 1.434 . S
C916 C917 1.369 . S
C916 C918 1.419 . S
C916 H920 0.930 . S
C917 C916 1.369 . S
C917 C926 1.429 . S
C918 C916 1.419 . S
C918 C919 1.363 . S
C918 H921 0.929 . S
C919 C918 1.363 . S
C919 C925 1.428 . S
H920 C916 0.930 . S
H921 C918 0.929 . S
S922 N923 1.613 . S
S922 N924 1.610 . S
N923 S922 1.613 . S
N923 C926 1.350 . S
N924 S922 1.610 . S
N924 C925 1.351 . S
C925 C919 1.428 . S
C925 N924 1.351 . S
C925 C926 1.434 . S
C926 C917 1.429 . S
C926 N923 1.350 . S
C926 C925 1.434 . S
C927 C928 1.369 . S
C927 C929 1.419 . S
C927 H931 0.930 . S
C928 C927 1.369 . S
C928 C937 1.429 . S
C929 C927 1.419 . S
C929 C930 1.363 . S
C929 H932 0.929 . S
C930 C929 1.363 . S
C930 C936 1.428 . S
H931 C927 0.930 . S
H932 C929 0.929 . S
S933 N934 1.613 . S
S933 N935 1.610 . S
N934 S933 1.613 . S
N934 C937 1.350 . S
N935 S933 1.610 . S
N935 C936 1.351 . S
C936 C930 1.428 . S
C936 N935 1.351 . S
C936 C937 1.434 . S
C937 C928 1.429 . S
C937 N934 1.350 . S
C937 C936 1.434 . S
C938 C939 1.369 . S
C938 C940 1.419 . S
C938 H942 0.930 . S
C939 C938 1.369 . S
C939 C948 1.429 . S
C940 C938 1.419 . S
C940 C941 1.363 . S
C940 H943 0.929 . S
C941 C940 1.363 . S
C941 C947 1.428 . S
H942 C938 0.930 . S
H943 C940 0.929 . S
S944 N945 1.613 . S
S944 N946 1.610 . S
N945 S944 1.613 . S
N945 C948 1.350 . S
N946 S944 1.610 . S
N946 C947 1.351 . S
C947 C941 1.428 . S
C947 N946 1.351 . S
C947 C948 1.434 . S
C948 C939 1.429 . S
C948 N945 1.350 . S
C948 C947 1.434 . S
C949 C950 1.369 . S
C949 C951 1.419 . S
C949 H953 0.930 . S
C950 C949 1.369 . S
C950 C959 1.429 . S
C951 C949 1.419 . S
C951 C952 1.363 . S
C951 H954 0.929 . S
C952 C951 1.363 . S
C952 C958 1.428 . S
H953 C949 0.930 . S
H954 C951 0.929 . S
S955 N956 1.613 . S
S955 N957 1.610 . S
N956 S955 1.613 . S
N956 C959 1.350 . S
N957 S955 1.610 . S
N957 C958 1.351 . S
C958 C952 1.428 . S
C958 N957 1.351 . S
C958 C959 1.434 . S
C959 C950 1.429 . S
C959 N956 1.350 . S
C959 C958 1.434 . S
C611 C516 1.559 . S
C609 C35 1.384 . S
C622 C533 1.514 . S
C620 C115 1.367 . S
C633 C547 1.644 . S
C631 C177 1.461 . S
C642 C221 1.370 . S
C644 C505 1.584 . S
C653 C283 1.439 . S
C655 C502 1.695 . S
C664 C363 1.304 . S
C666 C519 1.526 . S
C677 C530 1.753 . S
C675 C407 1.577 . S
C688 C544 1.701 . S
C686 C469 1.471 . S
C697 C159 1.480 . S
C699 C572 1.704 . S
C710 C586 1.754 . S
C708 C239 1.621 . S
C719 C53 1.312 . S
C721 C603 1.525 . S
C732 C558 1.696 . S
C730 C97 1.426 . S
C741 C425 1.356 . S
C743 C561 1.589 . S
C752 C487 1.460 . S
C754 C575 1.640 . S
C765 C589 1.515 . S
C763 C301 1.345 1_554 S
C774 C345 1.390 . S
C776 C600 1.560 . S
C787 C532 2.135 . S
C785 C29 2.171 . S
C798 C546 2.272 . S
C796 C109 2.216 . S
C807 C171 2.131 . S
C809 C504 2.205 1_556 S
C818 C215 2.029 . S
C820 C517 1.923 . S
C829 C277 1.778 . S
C831 C545 1.681 . S
C842 C503 1.718 . S
C840 C357 1.768 . S
C853 C518 2.033 . S
C851 C401 2.055 . S
C864 C531 1.782 . S
C862 C463 1.873 1_565 S
C875 C587 1.787 . S
C873 C153 1.874 . S
C886 C602 2.030 . S
C884 C233 2.048 . S
C895 C47 1.773 . S
C897 C559 1.713 . S
C908 C573 1.680 . S
C906 C91 1.782 . S
C919 C601 1.929 . S
C917 C419 1.923 . S
C928 C481 2.126 . S
C930 C560 2.206 . S
C941 C574 2.275 . S
C939 C295 2.208 . S
C952 C588 2.134 . S
C950 C339 2.170 . S
