# Generated by pormake.
# Topology ptr, (4,4)-cn, num edge types: 1
# Building blocks:
#     Node 0, Type 0, BuildingBlock: QUQFOY_clean_sbu_1, # of connection points: 4
#     Node 1, Type 0, BuildingBlock: QUQFOY_clean_sbu_1, # of connection points: 4
#     Node 2, Type 0, BuildingBlock: QUQFOY_clean_sbu_1, # of connection points: 4
#     Node 3, Type 0, BuildingBlock: QUQFOY_clean_sbu_1, # of connection points: 4
#     Node 4, Type 0, BuildingBlock: QUQFOY_clean_sbu_1, # of connection points: 4
#     Node 5, Type 0, BuildingBlock: QUQFOY_clean_sbu_1, # of connection points: 4
#     Node 6, Type 0, BuildingBlock: QUQFOY_clean_sbu_1, # of connection points: 4
#     Node 7, Type 0, BuildingBlock: QUQFOY_clean_sbu_1, # of connection points: 4
#     Node 8, Type 0, BuildingBlock: QUQFOY_clean_sbu_1, # of connection points: 4
#     Node 9, Type 0, BuildingBlock: QUQFOY_clean_sbu_1, # of connection points: 4
#     Node 10, Type 0, BuildingBlock: QUQFOY_clean_sbu_1, # of connection points: 4
#     Node 11, Type 0, BuildingBlock: QUQFOY_clean_sbu_1, # of connection points: 4
#     Node 12, Type 0, BuildingBlock: QUQFOY_clean_sbu_1, # of connection points: 4
#     Node 13, Type 0, BuildingBlock: QUQFOY_clean_sbu_1, # of connection points: 4
#     Node 14, Type 0, BuildingBlock: QUQFOY_clean_sbu_1, # of connection points: 4
#     Node 15, Type 0, BuildingBlock: QUQFOY_clean_sbu_1, # of connection points: 4
#     Node 16, Type 0, BuildingBlock: QUQFOY_clean_sbu_1, # of connection points: 4
#     Node 17, Type 0, BuildingBlock: QUQFOY_clean_sbu_1, # of connection points: 4
#     Node 18, Type 1, BuildingBlock: NAWXER_clean_linker_0, # of connection points: 4
#     Node 19, Type 1, BuildingBlock: NAWXER_clean_linker_0, # of connection points: 4
#     Node 20, Type 1, BuildingBlock: NAWXER_clean_linker_0, # of connection points: 4
#     Node 21, Type 1, BuildingBlock: NAWXER_clean_linker_0, # of connection points: 4
#     Node 22, Type 1, BuildingBlock: NAWXER_clean_linker_0, # of connection points: 4
#     Node 23, Type 1, BuildingBlock: NAWXER_clean_linker_0, # of connection points: 4
#     Node 24, Type 1, BuildingBlock: NAWXER_clean_linker_0, # of connection points: 4
#     Node 25, Type 1, BuildingBlock: NAWXER_clean_linker_0, # of connection points: 4
#     Node 26, Type 1, BuildingBlock: NAWXER_clean_linker_0, # of connection points: 4
#     Node 27, Type 1, BuildingBlock: NAWXER_clean_linker_0, # of connection points: 4
#     Node 28, Type 1, BuildingBlock: NAWXER_clean_linker_0, # of connection points: 4
#     Node 29, Type 1, BuildingBlock: NAWXER_clean_linker_0, # of connection points: 4
#     Node 30, Type 1, BuildingBlock: NAWXER_clean_linker_0, # of connection points: 4
#     Node 31, Type 1, BuildingBlock: NAWXER_clean_linker_0, # of connection points: 4
#     Node 32, Type 1, BuildingBlock: NAWXER_clean_linker_0, # of connection points: 4
#     Node 33, Type 1, BuildingBlock: NAWXER_clean_linker_0, # of connection points: 4
#     Node 34, Type 1, BuildingBlock: NAWXER_clean_linker_0, # of connection points: 4
#     Node 35, Type 1, BuildingBlock: NAWXER_clean_linker_0, # of connection points: 4
#     Edge 36, Type (0, 1), BuildingBlock: CIFDUS_clean_linker_0, # of connection points: 2
#     Edge 37, Type (0, 1), BuildingBlock: CIFDUS_clean_linker_0, # of connection points: 2
#     Edge 38, Type (0, 1), BuildingBlock: CIFDUS_clean_linker_0, # of connection points: 2
#     Edge 39, Type (0, 1), BuildingBlock: CIFDUS_clean_linker_0, # of connection points: 2
#     Edge 40, Type (0, 1), BuildingBlock: CIFDUS_clean_linker_0, # of connection points: 2
#     Edge 41, Type (0, 1), BuildingBlock: CIFDUS_clean_linker_0, # of connection points: 2
#     Edge 42, Type (0, 1), BuildingBlock: CIFDUS_clean_linker_0, # of connection points: 2
#     Edge 43, Type (0, 1), BuildingBlock: CIFDUS_clean_linker_0, # of connection points: 2
#     Edge 44, Type (0, 1), BuildingBlock: CIFDUS_clean_linker_0, # of connection points: 2
#     Edge 45, Type (0, 1), BuildingBlock: CIFDUS_clean_linker_0, # of connection points: 2
#     Edge 46, Type (0, 1), BuildingBlock: CIFDUS_clean_linker_0, # of connection points: 2
#     Edge 47, Type (0, 1), BuildingBlock: CIFDUS_clean_linker_0, # of connection points: 2
#     Edge 48, Type (0, 1), BuildingBlock: CIFDUS_clean_linker_0, # of connection points: 2
#     Edge 49, Type (0, 1), BuildingBlock: CIFDUS_clean_linker_0, # of connection points: 2
#     Edge 50, Type (0, 1), BuildingBlock: CIFDUS_clean_linker_0, # of connection points: 2
#     Edge 51, Type (0, 1), BuildingBlock: CIFDUS_clean_linker_0, # of connection points: 2
#     Edge 52, Type (0, 1), BuildingBlock: CIFDUS_clean_linker_0, # of connection points: 2
#     Edge 53, Type (0, 1), BuildingBlock: CIFDUS_clean_linker_0, # of connection points: 2
#     Edge 54, Type (0, 1), BuildingBlock: CIFDUS_clean_linker_0, # of connection points: 2
#     Edge 55, Type (0, 1), BuildingBlock: CIFDUS_clean_linker_0, # of connection points: 2
#     Edge 56, Type (0, 1), BuildingBlock: CIFDUS_clean_linker_0, # of connection points: 2
#     Edge 57, Type (0, 1), BuildingBlock: CIFDUS_clean_linker_0, # of connection points: 2
#     Edge 58, Type (0, 1), BuildingBlock: CIFDUS_clean_linker_0, # of connection points: 2
#     Edge 59, Type (0, 1), BuildingBlock: CIFDUS_clean_linker_0, # of connection points: 2
#     Edge 60, Type (0, 1), BuildingBlock: CIFDUS_clean_linker_0, # of connection points: 2
#     Edge 61, Type (0, 1), BuildingBlock: CIFDUS_clean_linker_0, # of connection points: 2
#     Edge 62, Type (0, 1), BuildingBlock: CIFDUS_clean_linker_0, # of connection points: 2
#     Edge 63, Type (0, 1), BuildingBlock: CIFDUS_clean_linker_0, # of connection points: 2
#     Edge 64, Type (0, 1), BuildingBlock: CIFDUS_clean_linker_0, # of connection points: 2
#     Edge 65, Type (0, 1), BuildingBlock: CIFDUS_clean_linker_0, # of connection points: 2
#     Edge 66, Type (0, 1), BuildingBlock: CIFDUS_clean_linker_0, # of connection points: 2
#     Edge 67, Type (0, 1), BuildingBlock: CIFDUS_clean_linker_0, # of connection points: 2
#     Edge 68, Type (0, 1), BuildingBlock: CIFDUS_clean_linker_0, # of connection points: 2
#     Edge 69, Type (0, 1), BuildingBlock: CIFDUS_clean_linker_0, # of connection points: 2
#     Edge 70, Type (0, 1), BuildingBlock: CIFDUS_clean_linker_0, # of connection points: 2
#     Edge 71, Type (0, 1), BuildingBlock: CIFDUS_clean_linker_0, # of connection points: 2
#     Edge 72, Type (0, 1), BuildingBlock: CIFDUS_clean_linker_0, # of connection points: 2
#     Edge 73, Type (0, 1), BuildingBlock: CIFDUS_clean_linker_0, # of connection points: 2
#     Edge 74, Type (0, 1), BuildingBlock: CIFDUS_clean_linker_0, # of connection points: 2
#     Edge 75, Type (0, 1), BuildingBlock: CIFDUS_clean_linker_0, # of connection points: 2
#     Edge 76, Type (0, 1), BuildingBlock: CIFDUS_clean_linker_0, # of connection points: 2
#     Edge 77, Type (0, 1), BuildingBlock: CIFDUS_clean_linker_0, # of connection points: 2
#     Edge 78, Type (0, 1), BuildingBlock: CIFDUS_clean_linker_0, # of connection points: 2
#     Edge 79, Type (0, 1), BuildingBlock: CIFDUS_clean_linker_0, # of connection points: 2
#     Edge 80, Type (0, 1), BuildingBlock: CIFDUS_clean_linker_0, # of connection points: 2
#     Edge 81, Type (0, 1), BuildingBlock: CIFDUS_clean_linker_0, # of connection points: 2
#     Edge 82, Type (0, 1), BuildingBlock: CIFDUS_clean_linker_0, # of connection points: 2
#     Edge 83, Type (0, 1), BuildingBlock: CIFDUS_clean_linker_0, # of connection points: 2
#     Edge 84, Type (0, 1), BuildingBlock: CIFDUS_clean_linker_0, # of connection points: 2
#     Edge 85, Type (0, 1), BuildingBlock: CIFDUS_clean_linker_0, # of connection points: 2
#     Edge 86, Type (0, 1), BuildingBlock: CIFDUS_clean_linker_0, # of connection points: 2
#     Edge 87, Type (0, 1), BuildingBlock: CIFDUS_clean_linker_0, # of connection points: 2
#     Edge 88, Type (0, 1), BuildingBlock: CIFDUS_clean_linker_0, # of connection points: 2
#     Edge 89, Type (0, 1), BuildingBlock: CIFDUS_clean_linker_0, # of connection points: 2
#     Edge 90, Type (0, 1), BuildingBlock: CIFDUS_clean_linker_0, # of connection points: 2
#     Edge 91, Type (0, 1), BuildingBlock: CIFDUS_clean_linker_0, # of connection points: 2
#     Edge 92, Type (0, 1), BuildingBlock: CIFDUS_clean_linker_0, # of connection points: 2
#     Edge 93, Type (0, 1), BuildingBlock: CIFDUS_clean_linker_0, # of connection points: 2
#     Edge 94, Type (0, 1), BuildingBlock: CIFDUS_clean_linker_0, # of connection points: 2
#     Edge 95, Type (0, 1), BuildingBlock: CIFDUS_clean_linker_0, # of connection points: 2
#     Edge 96, Type (0, 1), BuildingBlock: CIFDUS_clean_linker_0, # of connection points: 2
#     Edge 97, Type (0, 1), BuildingBlock: CIFDUS_clean_linker_0, # of connection points: 2
#     Edge 98, Type (0, 1), BuildingBlock: CIFDUS_clean_linker_0, # of connection points: 2
#     Edge 99, Type (0, 1), BuildingBlock: CIFDUS_clean_linker_0, # of connection points: 2
#     Edge 100, Type (0, 1), BuildingBlock: CIFDUS_clean_linker_0, # of connection points: 2
#     Edge 101, Type (0, 1), BuildingBlock: CIFDUS_clean_linker_0, # of connection points: 2
#     Edge 102, Type (0, 1), BuildingBlock: CIFDUS_clean_linker_0, # of connection points: 2
#     Edge 103, Type (0, 1), BuildingBlock: CIFDUS_clean_linker_0, # of connection points: 2
#     Edge 104, Type (0, 1), BuildingBlock: CIFDUS_clean_linker_0, # of connection points: 2
#     Edge 105, Type (0, 1), BuildingBlock: CIFDUS_clean_linker_0, # of connection points: 2
#     Edge 106, Type (0, 1), BuildingBlock: CIFDUS_clean_linker_0, # of connection points: 2
#     Edge 107, Type (0, 1), BuildingBlock: CIFDUS_clean_linker_0, # of connection points: 2
# Relax obj value: 0.008
# Max RMSD: 0.055
# Mean RMSD: 0.038
data_MOF--net-ptr--node1-QUQFOY_clean_sbu_1--node2-NAWXER_clean_linker_0--edge1-CIFDUS_clean_linker_0
_symmetry_space_group_name_H-M    P1
_symmetry_Int_Tables_number       1
_symmetry_cell_setting            triclinic
loop_
_symmetry_equiv_pos_as_xyz
'x, y, z'
_cell_length_a     80.369486
_cell_length_b     80.379574
_cell_length_c     58.398708
_cell_angle_alpha  90.160908
_cell_angle_beta   89.87778
_cell_angle_gamma 119.90539
loop_
_atom_site_label
_atom_site_type_symbol
_atom_site_fract_x
_atom_site_fract_y
_atom_site_fract_z
_atom_type_partial_charge
O0 O 0.01116 0.38231 0.04835 0.0
Cd1 Cd 0.01981 0.3725 0.02063 0.0
Cd2 Cd 0.98079 0.35085 0.01535 0.0
O3 O 0.98018 0.36129 0.04762 0.0
O4 O 0.04718 0.38119 0.02746 0.0
O5 O 0.02474 0.35057 0.02636 0.0
C6 C 0.04238 0.36345 0.03029 0.0
C7 C 0.95884 0.3192 1.00492 0.0
C8 C 0.99457 0.37522 0.05729 0.0
C9 C 0.00387 0.3805 0.97897 0.0
O10 O 0.98769 0.36924 0.98798 0.0
O11 O 0.01924 0.38315 0.98847 0.0
O12 O 0.95359 0.33173 1.00847 0.0
O13 O 0.97659 0.32431 0.00869 0.0
O14 O 0.62038 0.62621 0.05418 0.0
Cd15 Cd 0.62947 0.64394 0.02586 0.0
Cd16 Cd 0.65088 0.62749 0.01999 0.0
O17 O 0.64203 0.61705 0.05283 0.0
O18 O 0.62292 0.66432 0.03291 0.0
O19 O 0.65276 0.67015 0.02947 0.0
C20 C 0.64109 0.67636 0.03417 0.0
C21 C 0.68295 0.64341 1.00849 0.0
C22 C 0.62806 0.61719 0.06293 0.0
C23 C 0.61998 0.61837 0.98515 0.0
O24 O 0.63158 0.61372 0.99384 0.0
O25 O 0.61788 0.63162 0.99429 0.0
O26 O 0.67396 0.62525 0.01274 0.0
O27 O 0.67399 0.6528 0.01189 0.0
O28 O 0.38532 0.01292 0.99221 0.0
Cd29 Cd 0.37578 0.02199 0.01983 0.0
Cd30 Cd 0.35814 0.98421 0.02876 0.0
O31 O 0.36734 0.98163 0.9965 0.0
O32 O 0.38158 0.04812 0.01032 0.0
O33 O 0.352 0.02414 0.01537 0.0
C34 C 0.36336 0.04167 0.00915 0.0
C35 C 0.32641 0.96537 0.04078 0.0
C36 C 0.37956 0.99597 0.985 0.0
C37 C 0.38838 0.01077 0.0622 0.0
O38 O 0.37789 0.99369 0.05503 0.0
O39 O 0.38882 0.02471 0.05139 0.0
O40 O 0.33773 0.95838 0.03887 0.0
O41 O 0.33287 0.98299 0.03464 0.0
O42 O 0.99782 0.6223 0.98758 0.0
Cd43 Cd 0.98932 0.63241 0.01511 0.0
Cd44 Cd 0.02725 0.6542 0.01984 0.0
O45 O 0.02858 0.64397 0.98771 0.0
O46 O 0.96268 0.62586 1.00719 0.0
O47 O 0.98675 0.65575 0.00981 0.0
C48 C 0.96899 0.644 1.00479 0.0
C49 C 0.04635 0.6864 0.03007 0.0
C50 C 0.01433 0.62966 0.97838 0.0
C51 C 0.00519 0.62464 0.05659 0.0
O52 O 0.02121 0.63604 0.0473 0.0
O53 O 0.98965 0.62173 0.04733 0.0
O54 O 0.05352 0.67533 0.02716 0.0
O55 O 0.02833 0.67946 0.0257 0.0
O56 O 0.3851 0.37947 0.99106 0.0
Cd57 Cd 0.37587 0.36009 0.01759 0.0
Cd58 Cd 0.35297 0.3768 0.02562 0.0
O59 O 0.36421 0.38956 0.99424 0.0
O60 O 0.38591 0.3427 0.00914 0.0
O61 O 0.35491 0.33293 0.01096 0.0
C62 C 0.36843 0.32917 1.00629 0.0
C63 C 0.32108 0.36738 0.03461 0.0
C64 C 0.37802 0.38947 0.98367 0.0
C65 C 0.38242 0.38145 0.06162 0.0
O66 O 0.37037 0.38601 0.05423 0.0
O67 O 0.38631 0.3704 0.05003 0.0
O68 O 0.33407 0.38518 0.03291 0.0
O69 O 0.32597 0.35466 0.03006 0.0
O70 O 0.6191 0.99304 0.05078 0.0
Cd71 Cd 0.62863 0.98265 0.02455 0.0
Cd72 Cd 0.64983 0.02198 0.01545 0.0
O73 O 0.63925 0.02407 0.04712 0.0
O74 O 0.61869 0.95543 0.03358 0.0
O75 O 0.64965 0.97659 0.03162 0.0
C76 C 0.63618 0.95941 0.03649 0.0
C77 C 0.68137 0.04418 1.00463 0.0
C78 C 0.62573 0.01015 0.0579 0.0
C79 C 0.61991 0.99577 0.98079 0.0
O80 O 0.63117 0.01267 0.98803 0.0
O81 O 0.61763 0.98131 0.99216 0.0
O82 O 0.66835 0.04897 1.00668 0.0
O83 O 0.67676 0.0268 0.00989 0.0
O84 O 0.68145 0.71841 0.38206 0.0
Cd85 Cd 0.68921 0.70724 0.35512 0.0
Cd86 Cd 0.6503 0.69001 0.34704 0.0
O87 O 0.64996 0.70153 0.37883 0.0
O88 O 0.71549 0.71309 0.36401 0.0
O89 O 0.69121 0.68348 0.36046 0.0
C90 C 0.70893 0.6949 0.36594 0.0
C91 C 0.62675 0.65876 0.3373 0.0
C92 C 0.66485 0.71382 0.38952 0.0
C93 C 0.67768 0.71867 0.31218 0.0
O94 O 0.66053 0.70827 0.3192 0.0
O95 O 0.69167 0.71971 0.32349 0.0
O96 O 0.62288 0.67246 0.3391 0.0
O97 O 0.64399 0.66259 0.34211 0.0
O98 O 0.28888 0.96901 0.38965 0.0
Cd99 Cd 0.29994 0.98535 0.36049 0.0
Cd100 Cd 0.3191 0.96635 0.35965 0.0
O101 O 0.30916 0.95823 0.39286 0.0
O102 O 0.29219 0.00523 0.36371 0.0
O103 O 0.32244 0.01209 0.36484 0.0
C104 C 0.31002 0.01776 0.36678 0.0
C105 C 0.35115 0.98121 0.34845 0.0
C106 C 0.29531 0.95987 0.40086 0.0
C107 C 0.2902 0.95728 0.32245 0.0
O108 O 0.30017 0.95174 0.33349 0.0
O109 O 0.28938 0.97193 0.32917 0.0
O110 O 0.34201 0.96338 0.35442 0.0
O111 O 0.34241 0.99098 0.35031 0.0
O112 O 0.04927 0.345 0.32311 0.0
Cd113 Cd 0.0392 0.35355 0.35067 0.0
Cd114 Cd 0.01642 0.31504 0.35597 0.0
O115 O 0.02702 0.31443 0.32382 0.0
O116 O 0.04557 0.38026 0.34346 0.0
O117 O 0.01577 0.35595 0.3454 0.0
C118 C 0.02742 0.37387 0.34102 0.0
C119 C 0.98444 0.29292 0.36506 0.0
C120 C 0.04145 0.32835 0.31421 0.0
C121 C 0.04632 0.33745 0.39258 0.0
O122 O 0.03448 0.32138 0.38372 0.0
O123 O 0.04973 0.35298 0.38286 0.0
O124 O 0.99702 0.2877 0.36184 0.0
O125 O 0.98977 0.31081 0.36207 0.0
O126 O 0.66058 0.95146 0.32464 0.0
Cd127 Cd 0.65195 0.96139 0.35213 0.0
Cd128 Cd 0.69088 0.98197 0.36033 0.0
O129 O 0.69185 0.97024 0.32882 0.0
O130 O 0.62494 0.95462 0.3457 0.0
O131 O 0.64908 0.98459 0.34659 0.0
C132 C 0.63106 0.9727 0.34326 0.0
C133 C 0.71274 0.01417 0.36897 0.0
C134 C 0.67762 0.95739 0.31764 0.0
C135 C 0.66567 0.95246 0.39558 0.0
O136 O 0.68254 0.96438 0.38884 0.0
O137 O 0.65116 0.94954 0.38382 0.0
O138 O 0.718 1.00146 0.36741 0.0
O139 O 0.69503 0.0088 0.36453 0.0
O140 O 0.05601 0.70879 0.32489 0.0
Cd141 Cd 0.0478 0.68951 0.35172 0.0
Cd142 Cd 0.02768 0.70691 0.36381 0.0
O143 O 0.0379 0.72148 0.33327 0.0
O144 O 0.05306 0.66911 0.34078 0.0
O145 O 0.02377 0.6639 0.34764 0.0
C146 C 0.03477 0.65751 0.34045 0.0
C147 C 0.99583 0.6949 0.37519 0.0
C148 C 0.04999 0.72032 0.32024 0.0
C149 C 0.0588 0.71072 0.39613 0.0
O150 O 0.04652 0.7156 0.39081 0.0
O151 O 0.06136 0.69943 0.38319 0.0
O152 O 0.00796 0.71304 0.37495 0.0
O153 O 1.00152 0.68341 0.36773 0.0
O154 O 0.28382 0.31615 0.38083 0.0
Cd155 Cd 0.29534 0.3096 0.35302 0.0
Cd156 Cd 0.31231 0.348 0.34809 0.0
O157 O 0.30114 0.34772 0.38031 0.0
O158 O 0.28809 0.28246 0.3591 0.0
O159 O 0.3182 0.30606 0.35878 0.0
C160 C 0.30601 0.28812 0.36212 0.0
C161 C 0.3446 0.36787 0.33864 0.0
C162 C 0.28854 0.33232 0.38986 0.0
C163 C 0.28404 0.32336 0.31174 0.0
O164 O 0.29375 0.33998 0.32056 0.0
O165 O 0.28378 0.309 0.32118 0.0
O166 O 0.33304 0.37456 0.34081 0.0
O167 O 0.33801 0.3499 0.34308 0.0
O168 O 0.34902 0.05493 0.71712 0.0
Cd169 Cd 0.3535 0.04118 0.68997 0.0
Cd170 Cd 0.31513 0.02261 0.68932 0.0
O171 O 0.31791 0.03551 0.72105 0.0
O172 O 0.38007 0.04608 0.69468 0.0
O173 O 0.35445 0.01713 0.69685 0.0
C174 C 0.37281 0.02804 0.69902 0.0
C175 C 0.29285 0.99035 0.68221 0.0
C176 C 0.33354 0.04968 0.72814 0.0
C177 C 0.33635 0.04875 0.64948 0.0
O178 O 0.32071 0.03944 0.66051 0.0
O179 O 0.35176 0.05023 0.65739 0.0
O180 O 0.28757 0.00289 0.68569 0.0
O181 O 0.31089 0.9959 0.68426 0.0
O182 O 0.956 0.29693 0.71976 0.0
Cd183 Cd 0.96409 0.31498 0.69172 0.0
Cd184 Cd 0.98163 0.29299 0.68076 0.0
O185 O 0.97069 0.28048 0.71233 0.0
O186 O 0.95512 0.33313 0.70068 0.0
O187 O 0.98577 0.34232 0.69612 0.0
C188 C 0.97278 0.34658 0.70172 0.0
C189 C 0.01294 0.30145 0.66975 0.0
C190 C 0.96019 0.28417 0.72527 0.0
C191 C 0.95166 0.2915 0.64814 0.0
O192 O 0.96269 0.28512 0.65381 0.0
O193 O 0.95058 0.304 0.6605 0.0
O194 O 0.9995 0.28379 0.67122 0.0
O195 O 0.00884 0.31452 0.67558 0.0
O196 O 0.71981 0.67581 0.6541 0.0
Cd197 Cd 0.71238 0.68826 0.68032 0.0
Cd198 Cd 0.69318 0.64982 0.6948 0.0
O199 O 0.70317 0.64532 0.66418 0.0
O200 O 0.72074 0.71437 0.66815 0.0
O201 O 0.69034 0.69318 0.67489 0.0
C202 C 0.70297 0.70988 0.66735 0.0
C203 C 0.66247 0.62721 0.70767 0.0
C204 C 0.7144 0.65825 0.65035 0.0
C205 C 0.72462 0.67963 0.72518 0.0
O206 O 0.71282 0.66214 0.72075 0.0
O207 O 0.72622 0.69279 0.71174 0.0
O208 O 0.6763 0.6235 0.70685 0.0
O209 O 0.66582 0.64373 0.70027 0.0
O210 O 0.32487 0.28736 0.65435 0.0
Cd211 Cd 0.31553 0.29684 0.68178 0.0
Cd212 Cd 0.35303 0.31551 0.69138 0.0
O213 O 0.35591 0.30679 0.65892 0.0
O214 O 0.28937 0.29133 0.67261 0.0
O215 O 0.31372 0.32076 0.67737 0.0
C216 C 0.29605 0.3096 0.67147 0.0
C217 C 0.37051 0.34737 0.70344 0.0
C218 C 0.34201 0.29397 0.64736 0.0
C219 C 0.32725 0.28468 0.72425 0.0
O220 O 0.34436 0.2955 0.71732 0.0
O221 O 0.31324 0.28406 0.71338 0.0
O222 O 0.37866 0.33718 0.70044 0.0
O223 O 0.35247 0.33971 0.69863 0.0
O224 O 0.71519 0.03548 0.65391 0.0
Cd225 Cd 0.70358 0.0174 0.68154 0.0
Cd226 Cd 0.689 0.04051 0.68857 0.0
O227 O 0.69942 0.05129 0.65625 0.0
O228 O 0.70884 0.99646 0.67327 0.0
O229 O 0.67946 0.99195 0.67635 0.0
C230 C 0.69061 0.98521 0.67115 0.0
C231 C 0.65707 0.02891 0.69899 0.0
C232 C 0.71108 0.04761 0.64573 0.0
C233 C 0.71724 0.04191 0.72335 0.0
O234 O 0.7083 0.04997 0.71542 0.0
O235 O 0.71617 0.02738 0.71322 0.0
O236 O 0.66896 0.04707 0.69704 0.0
O237 O 0.66316 0.01719 0.69395 0.0
O238 O 0.9558 0.65826 0.72002 0.0
Cd239 Cd 0.96454 0.64965 0.69136 0.0
Cd240 Cd 0.98374 0.68834 0.68334 0.0
O241 O 0.97188 0.68961 0.71457 0.0
O242 O 0.95905 0.62322 0.69892 0.0
O243 O 0.98847 0.64766 0.69439 0.0
C244 C 0.97732 0.62983 0.69965 0.0
C245 C 0.01631 0.7081 0.67489 0.0
C246 C 0.96053 0.67513 0.72656 0.0
C247 C 0.95431 0.66272 0.6483 0.0
O248 O 0.96635 0.67963 0.65478 0.0
O249 O 0.95134 0.64828 0.66027 0.0
O250 O 0.00466 0.71474 0.67565 0.0
O251 O 0.00964 0.69028 0.6802 0.0
C252 C 0.22488 0.34181 0.11981 0.0
C253 C 0.22257 0.3286 0.10253 0.0
C254 C 0.20927 0.33909 0.13311 0.0
C255 C 0.19103 0.32308 0.12945 0.0
C256 C 0.20433 0.31248 0.09901 0.0
C257 C 0.18865 0.30987 0.11221 0.0
C258 C 0.17422 0.32087 0.14239 0.0
C259 C 0.21214 0.3134 0.1939 0.0
C260 C 0.21872 0.32724 0.21149 0.0
C261 C 0.19755 0.31136 0.17903 0.0
C262 C 0.18931 0.32313 0.18153 0.0
C263 C 0.21029 0.33883 0.21399 0.0
C264 C 0.19574 0.33674 0.19926 0.0
C265 C 0.17355 0.32115 0.16653 0.0
C266 C 0.10755 0.31137 0.21151 0.0
C267 C 0.10396 0.32667 0.20861 0.0
C268 C 0.11976 0.30896 0.19655 0.0
C269 C 0.1285 0.32163 0.17821 0.0
C270 C 0.11239 0.33911 0.18988 0.0
C271 C 0.12463 0.33666 0.17487 0.0
C272 C 0.14345 0.32038 0.16474 0.0
C273 C 0.12296 0.33473 0.09206 0.0
C274 C 0.10321 0.32488 0.0971 0.0
C275 C 0.13595 0.33282 0.10607 0.0
C276 C 0.1296 0.32093 0.12545 0.0
C277 C 0.09674 0.31232 0.11597 0.0
C278 C 0.10977 0.31018 0.12982 0.0
C279 C 0.14404 0.32003 0.14051 0.0
H280 H 0.2388 0.3543 0.123 0.0
H281 H 0.21137 0.34971 0.14597 0.0
H282 H 0.2021 0.30217 0.08569 0.0
H283 H 0.17463 0.29755 0.10893 0.0
H284 H 0.21834 0.30425 0.19155 0.0
H285 H 0.19257 0.30046 0.1658 0.0
H286 H 0.21474 0.34936 0.22762 0.0
H287 H 0.18953 0.34588 0.20168 0.0
H288 H 0.1016 0.30173 0.22595 0.0
H289 H 0.12279 0.29745 0.19967 0.0
H290 H 0.10985 0.35097 0.18709 0.0
H291 H 0.13157 0.34691 0.16117 0.0
H292 H 0.12848 0.34408 0.07732 0.0
H293 H 0.15111 0.34104 0.10198 0.0
H294 H 0.08166 0.30446 0.12043 0.0
H295 H 0.10431 0.30027 0.14405 0.0
N296 N 0.15944 0.32027 0.13038 0.0
N297 N 0.15818 0.32086 0.17666 0.0
C298 C 0.65857 0.88588 0.12213 0.0
C299 C 0.67134 0.89628 0.10432 0.0
C300 C 0.66089 0.87236 0.13462 0.0
C301 C 0.67606 0.86902 0.1296 0.0
C302 C 0.68663 0.89303 0.09946 0.0
C303 C 0.68884 0.87938 0.11185 0.0
C304 C 0.67779 0.85375 0.14154 0.0
C305 C 0.68826 0.89881 0.19573 0.0
C306 C 0.67433 0.89148 0.21319 0.0
C307 C 0.68973 0.88639 0.17996 0.0
C308 C 0.67736 0.86644 0.18156 0.0
C309 C 0.66213 0.87153 0.21474 0.0
C310 C 0.66371 0.85918 0.19922 0.0
C311 C 0.67861 0.85271 0.16563 0.0
C312 C 0.69241 0.79146 0.19484 0.0
C313 C 0.6746 0.77737 0.20377 0.0
C314 C 0.69358 0.806 0.18065 0.0
C315 C 0.67694 0.80636 0.17443 0.0
C316 C 0.65793 0.77779 0.1972 0.0
C317 C 0.65911 0.79209 0.18261 0.0
C318 C 0.67832 0.82296 0.1621 0.0
C319 C 0.65173 0.78375 0.09472 0.0
C320 C 0.66204 0.77387 0.09614 0.0
C321 C 0.65698 0.80012 0.10797 0.0
C322 C 0.67266 0.80707 0.12299 0.0
C323 C 0.6783 0.78137 0.11042 0.0
C324 C 0.68363 0.79788 0.12358 0.0
C325 C 0.67689 0.82363 0.13807 0.0
H326 H 0.64672 0.88816 0.12637 0.0
H327 H 0.65057 0.86424 0.14787 0.0
H328 H 0.69657 0.90067 0.08569 0.0
H329 H 0.70049 0.87682 0.10751 0.0
H330 H 0.69787 0.91413 0.19415 0.0
H331 H 0.7006 0.89231 0.16671 0.0
H332 H 0.65147 0.8654 0.2282 0.0
H333 H 0.6541 0.84386 0.20091 0.0
H334 H 0.70553 0.79151 0.19909 0.0
H335 H 0.70752 0.81714 0.17478 0.0
H336 H 0.644 0.76756 0.20403 0.0
H337 H 0.64616 0.79244 0.1784 0.0
H338 H 0.63942 0.7787 0.08351 0.0
H339 H 0.64841 0.80708 0.10693 0.0
H340 H 0.68662 0.7742 0.11195 0.0
H341 H 0.69628 0.80338 0.13422 0.0
N342 N 0.6768 0.83909 0.12873 0.0
N343 N 0.67889 0.83736 0.1749 0.0
C344 C 0.1386 0.79058 0.09979 0.0
C345 C 0.11846 0.77998 0.10117 0.0
C346 C 0.14914 0.80631 0.1141 0.0
C347 C 0.13987 0.81195 0.13017 0.0
C348 C 0.1091 0.78601 0.1167 0.0
C349 C 0.11969 0.80193 0.13093 0.0
C350 C 0.15169 0.82848 0.14551 0.0
C351 C 0.1046 0.79804 0.20563 0.0
C352 C 0.10703 0.78226 0.2108 0.0
C353 C 0.11766 0.81283 0.19145 0.0
C354 C 0.133 0.81183 0.18149 0.0
C355 C 0.12233 0.78125 0.20029 0.0
C356 C 0.13507 0.79581 0.18567 0.0
C357 C 0.14822 0.8285 0.16921 0.0
C358 C 0.21208 0.90662 0.20076 0.0
C359 C 0.21677 0.90048 0.22107 0.0
C360 C 0.19914 0.89319 0.18506 0.0
C361 C 0.1907 0.87341 0.18943 0.0
C362 C 0.20799 0.88071 0.2255 0.0
C363 C 0.19508 0.86737 0.20993 0.0
C364 C 0.17706 0.85871 0.17323 0.0
C365 C 0.23347 0.8874 0.13462 0.0
C366 C 0.233 0.89557 0.11352 0.0
C367 C 0.21657 0.87603 0.14683 0.0
C368 C 0.19884 0.87275 0.13836 0.0
C369 C 0.2153 0.89263 0.10531 0.0
C370 C 0.19837 0.88119 0.11753 0.0
C371 C 0.18068 0.85866 0.14954 0.0
H372 H 0.14629 0.78666 0.08768 0.0
H373 H 0.16466 0.81389 0.11286 0.0
H374 H 0.09361 0.77821 0.11822 0.0
H375 H 0.11206 0.80637 0.14244 0.0
H376 H 0.09281 0.79922 0.21282 0.0
H377 H 0.11594 0.82519 0.18849 0.0
H378 H 0.12507 0.76966 0.20407 0.0
H379 H 0.14707 0.79499 0.17844 0.0
H380 H 0.2186 0.92176 0.19689 0.0
H381 H 0.1957 0.89824 0.1696 0.0
H382 H 0.21097 0.87551 0.24118 0.0
H383 H 0.18867 0.85222 0.21381 0.0
H384 H 0.2469 0.88952 0.14149 0.0
H385 H 0.2173 0.86923 0.16248 0.0
H386 H 0.21444 0.89854 0.089 0.0
H387 H 0.18482 0.87859 0.11047 0.0
N388 N 0.16779 0.84361 0.13667 0.0
N389 N 0.16098 0.84358 0.18207 0.0
C390 C 0.33391 0.11405 0.8489 0.0
C391 C 0.3182 0.10422 0.83397 0.0
C392 C 0.33469 0.12792 0.86411 0.0
C393 C 0.31963 0.13201 0.86499 0.0
C394 C 0.30306 0.10821 0.83515 0.0
C395 C 0.30382 0.122 0.85041 0.0
C396 C 0.32111 0.14814 0.87893 0.0
C397 C 0.32471 0.10672 0.92822 0.0
C398 C 0.34142 0.11525 0.94178 0.0
C399 C 0.31932 0.11812 0.91563 0.0
C400 C 0.33069 0.13825 0.91613 0.0
C401 C 0.35219 0.13539 0.94302 0.0
C402 C 0.3469 0.1467 0.93037 0.0
C403 C 0.32605 0.15095 0.90243 0.0
C404 C 0.31794 0.2206 0.92518 0.0
C405 C 0.33234 0.22875 0.94204 0.0
C406 C 0.31542 0.20481 0.91224 0.0
C407 C 0.32756 0.19709 0.91547 0.0
C408 C 0.34394 0.22047 0.94582 0.0
C409 C 0.3416 0.2049 0.93269 0.0
C410 C 0.32542 0.18046 0.90184 0.0
C411 C 0.33936 0.22588 0.84814 0.0
C412 C 0.32619 0.22081 0.82999 0.0
C413 C 0.33748 0.21224 0.86428 0.0
C414 C 0.32212 0.19328 0.86301 0.0
C415 C 0.31063 0.20192 0.82899 0.0
C416 C 0.30867 0.18831 0.84527 0.0
C417 C 0.32144 0.17809 0.87808 0.0
H418 H 0.34577 0.11126 0.84859 0.0
H419 H 0.34734 0.13582 0.87466 0.0
H420 H 0.29091 0.10122 0.82367 0.0
H421 H 0.29218 0.12515 0.85049 0.0
H422 H 0.31606 0.09125 0.9269 0.0
H423 H 0.30638 0.11119 0.90539 0.0
H424 H 0.36486 0.14248 0.9537 0.0
H425 H 0.35578 0.16217 0.93141 0.0
H426 H 0.30875 0.22658 0.92168 0.0
H427 H 0.30398 0.19869 0.89972 0.0
H428 H 0.35483 0.22595 0.95902 0.0
H429 H 0.35096 0.19906 0.93589 0.0
H430 H 0.35142 0.24033 0.84961 0.0
H431 H 0.34847 0.2164 0.87724 0.0
H432 H 0.30038 0.19738 0.81509 0.0
H433 H 0.29689 0.17371 0.84365 0.0
N434 N 0.31908 0.16186 0.86779 0.0
N435 N 0.32781 0.16691 0.91286 0.0
C436 C 0.90693 0.21276 0.91943 0.0
C437 C 0.90003 0.21999 0.93675 0.0
C438 C 0.89423 0.19685 0.90625 0.0
C439 C 0.87428 0.18813 0.90965 0.0
C440 C 0.88012 0.21072 0.94066 0.0
C441 C 0.86747 0.19514 0.92723 0.0
C442 C 0.86017 0.17119 0.89616 0.0
C443 C 0.89049 0.21274 0.83574 0.0
C444 C 0.90318 0.2081 0.82441 0.0
C445 C 0.87767 0.20048 0.85233 0.0
C446 C 0.87706 0.18321 0.85773 0.0
C447 C 0.90299 0.19109 0.83074 0.0
C448 C 0.88984 0.17864 0.84691 0.0
C449 C 0.86158 0.16887 0.87236 0.0
C450 C 0.78166 0.11264 0.84539 0.0
C451 C 0.78522 0.10343 0.82707 0.0
C452 C 0.79625 0.12406 0.86079 0.0
C453 C 0.81465 0.12624 0.8585 0.0
C454 C 0.80354 0.10535 0.82507 0.0
C455 C 0.81811 0.11671 0.84056 0.0
C456 C 0.83085 0.14028 0.87278 0.0
C457 C 0.78846 0.09592 0.92122 0.0
C458 C 0.78165 0.10308 0.93873 0.0
C459 C 0.8042 0.10841 0.90774 0.0
C460 C 0.81323 0.12838 0.9111 0.0
C461 C 0.79125 0.12301 0.94264 0.0
C462 C 0.80679 0.13547 0.92899 0.0
C463 C 0.82973 0.14207 0.89677 0.0
H464 H 0.92214 0.21946 0.91584 0.0
H465 H 0.90014 0.19131 0.89371 0.0
H466 H 0.87419 0.21538 0.95424 0.0
H467 H 0.85222 0.18859 0.93062 0.0
H468 H 0.8898 0.22542 0.83118 0.0
H469 H 0.86764 0.20406 0.86022 0.0
H470 H 0.91277 0.18715 0.82295 0.0
H471 H 0.88948 0.16529 0.85079 0.0
H472 H 0.76769 0.11137 0.84755 0.0
H473 H 0.7933 0.13172 0.874 0.0
H474 H 0.8069 0.09873 0.81097 0.0
H475 H 0.83226 0.11843 0.83818 0.0
H476 H 0.78144 0.08069 0.91761 0.0
H477 H 0.80925 0.10241 0.89467 0.0
H478 H 0.78681 0.12907 0.95631 0.0
H479 H 0.81364 0.15075 0.93228 0.0
N480 N 0.84435 0.15755 0.90732 0.0
N481 N 0.84687 0.15359 0.86168 0.0
C482 C 0.79185 0.68661 0.93593 0.0
C483 C 0.78115 0.66836 0.94614 0.0
C484 C 0.80719 0.69066 0.92115 0.0
C485 C 0.81234 0.67665 0.91663 0.0
C486 C 0.78626 0.65434 0.94103 0.0
C487 C 0.80183 0.65855 0.92681 0.0
C488 C 0.82902 0.68074 0.90206 0.0
C489 C 0.78289 0.67153 0.85168 0.0
C490 C 0.78802 0.68462 0.83347 0.0
C491 C 0.79665 0.6728 0.86721 0.0
C492 C 0.81581 0.68773 0.86566 0.0
C493 C 0.80702 0.69998 0.83239 0.0
C494 C 0.82072 0.70152 0.84832 0.0
C495 C 0.83124 0.68716 0.87913 0.0
C496 C 0.89001 0.67374 0.83785 0.0
C497 C 0.90283 0.69148 0.82759 0.0
C498 C 0.87708 0.67253 0.85474 0.0
C499 C 0.87648 0.68896 0.86157 0.0
C500 C 0.90256 0.70801 0.8352 0.0
C501 C 0.88933 0.7067 0.85173 0.0
C502 C 0.86105 0.68725 0.87688 0.0
C503 C 0.90303 0.68034 0.922 0.0
C504 C 0.89475 0.66324 0.93481 0.0
C505 C 0.89142 0.68593 0.91024 0.0
C506 C 0.87131 0.67442 0.91089 0.0
C507 C 0.87464 0.65198 0.93568 0.0
C508 C 0.86311 0.6575 0.9239 0.0
C509 C 0.85841 0.68009 0.89945 0.0
H510 H 0.78865 0.69792 0.9396 0.0
H511 H 0.81529 0.70481 0.91366 0.0
H512 H 0.77814 0.63993 0.9478 0.0
H513 H 0.80549 0.6475 0.92343 0.0
H514 H 0.76835 0.65969 0.85339 0.0
H515 H 0.79234 0.6613 0.87944 0.0
H516 H 0.81162 0.71024 0.81851 0.0
H517 H 0.83543 0.71302 0.84641 0.0
H518 H 0.88934 0.66058 0.83226 0.0
H519 H 0.86699 0.65862 0.86179 0.0
H520 H 0.9124 0.722 0.82818 0.0
H521 H 0.88899 0.71952 0.85669 0.0
H522 H 0.91848 0.68934 0.92093 0.0
H523 H 0.89819 0.69937 0.90099 0.0
H524 H 0.86773 0.63894 0.94573 0.0
H525 H 0.84766 0.64844 0.92495 0.0
N526 N 0.84256 0.67728 0.91112 0.0
N527 N 0.84735 0.69042 0.86765 0.0
C528 C 0.7739 0.6572 0.44761 0.0
C529 C 0.78281 0.67392 0.43415 0.0
C530 C 0.78492 0.65156 0.46053 0.0
C531 C 0.80508 0.66269 0.46056 0.0
C532 C 0.80299 0.6846 0.43357 0.0
C533 C 0.81395 0.67906 0.44661 0.0
C534 C 0.81722 0.65734 0.4744 0.0
C535 C 0.78521 0.66962 0.52941 0.0
C536 C 0.77089 0.65307 0.54047 0.0
C537 C 0.79829 0.66856 0.51458 0.0
C538 C 0.79756 0.65101 0.51064 0.0
C539 C 0.76991 0.63537 0.53589 0.0
C540 C 0.78331 0.63441 0.52139 0.0
C541 C 0.81288 0.65055 0.49715 0.0
C542 C 0.88447 0.66311 0.53783 0.0
C543 C 0.87974 0.64539 0.54801 0.0
C544 C 0.87267 0.66424 0.52109 0.0
C545 C 0.85574 0.64776 0.51431 0.0
C546 C 0.86301 0.6288 0.54051 0.0
C547 C 0.851 0.63004 0.5241 0.0
C548 C 0.84202 0.64947 0.49907 0.0
C549 C 0.891 0.65607 0.4545 0.0
C550 C 0.90038 0.67355 0.44247 0.0
C551 C 0.87353 0.65042 0.46569 0.0
C552 C 0.86521 0.66221 0.46517 0.0
C553 C 0.89175 0.68503 0.44159 0.0
C554 C 0.87441 0.67943 0.45277 0.0
C555 C 0.84665 0.65673 0.47654 0.0
H556 H 0.75841 0.64862 0.44851 0.0
H557 H 0.77763 0.63846 0.47041 0.0
H558 H 0.81038 0.6973 0.42301 0.0
H559 H 0.82945 0.6878 0.44599 0.0
H560 H 0.78687 0.68361 0.53282 0.0
H561 H 0.80946 0.68163 0.50684 0.0
H562 H 0.75894 0.62223 0.54367 0.0
H563 H 0.78262 0.62075 0.51865 0.0
H564 H 0.89688 0.67632 0.54338 0.0
H565 H 0.87636 0.67813 0.51409 0.0
H566 H 0.859 0.61484 0.54749 0.0
H567 H 0.8379 0.61718 0.51919 0.0
H568 H 0.89728 0.6469 0.45551 0.0
H569 H 0.86648 0.63677 0.47451 0.0
H570 H 0.89835 0.69838 0.43211 0.0
H571 H 0.86825 0.68872 0.45185 0.0
N572 N 0.83398 0.66024 0.46513 0.0
N573 N 0.82534 0.6467 0.50849 0.0
C574 C 0.33169 0.21983 0.45002 0.0
C575 C 0.34565 0.23109 0.43368 0.0
C576 C 0.33432 0.20741 0.46424 0.0
C577 C 0.351 0.20601 0.46249 0.0
C578 C 0.36243 0.2298 0.43204 0.0
C579 C 0.36498 0.21718 0.44617 0.0
C580 C 0.35311 0.19187 0.47651 0.0
C581 C 0.35712 0.23678 0.52735 0.0
C582 C 0.34219 0.22939 0.5436 0.0
C583 C 0.35982 0.22439 0.51283 0.0
C584 C 0.34768 0.20442 0.51443 0.0
C585 C 0.33003 0.20941 0.54495 0.0
C586 C 0.33281 0.1971 0.53065 0.0
C587 C 0.35085 0.19077 0.50055 0.0
C588 C 0.36548 0.12666 0.52727 0.0
C589 C 0.35217 0.11916 0.54538 0.0
C590 C 0.36541 0.14019 0.51224 0.0
C591 C 0.35199 0.14642 0.51504 0.0
C592 C 0.33867 0.12531 0.54791 0.0
C593 C 0.33863 0.13879 0.53297 0.0
C594 C 0.35258 0.16196 0.50079 0.0
C595 C 0.33473 0.11312 0.45151 0.0
C596 C 0.34831 0.11616 0.43444 0.0
C597 C 0.33703 0.12819 0.46557 0.0
C598 C 0.35296 0.14665 0.46288 0.0
C599 C 0.36438 0.13459 0.43188 0.0
C600 C 0.36655 0.14978 0.44582 0.0
C601 C 0.35446 0.16281 0.47669 0.0
H602 H 0.31868 0.22062 0.45179 0.0
H603 H 0.32312 0.1986 0.47632 0.0
H604 H 0.37335 0.2382 0.41949 0.0
H605 H 0.37783 0.21611 0.44435 0.0
H606 H 0.36672 0.25211 0.52592 0.0
H607 H 0.37162 0.23037 0.50074 0.0
H608 H 0.3186 0.20323 0.55753 0.0
H609 H 0.32335 0.18175 0.53234 0.0
H610 H 0.37604 0.12219 0.52484 0.0
H611 H 0.37617 0.14616 0.49888 0.0
H612 H 0.32846 0.12015 0.5619 0.0
H613 H 0.32824 0.14346 0.53565 0.0
H614 H 0.32228 0.09904 0.45396 0.0
H615 H 0.32611 0.12549 0.47825 0.0
H616 H 0.37499 0.13733 0.41877 0.0
H617 H 0.37881 0.16397 0.44327 0.0
N618 N 0.35484 0.17784 0.46549 0.0
N619 N 0.35075 0.17591 0.51166 0.0
C620 C 0.78062 0.11225 0.45199 0.0
C621 C 0.77048 0.1146 0.43389 0.0
C622 C 0.79293 0.12782 0.46567 0.0
C623 C 0.79536 0.14613 0.46168 0.0
C624 C 0.77279 0.13289 0.42994 0.0
C625 C 0.78532 0.14859 0.44357 0.0
C626 C 0.80948 0.16275 0.47537 0.0
C627 C 0.76155 0.12791 0.52586 0.0
C628 C 0.767 0.12002 0.54383 0.0
C629 C 0.77537 0.14122 0.51084 0.0
C630 C 0.79486 0.14692 0.51368 0.0
C631 C 0.78647 0.12558 0.54635 0.0
C632 C 0.80024 0.13895 0.53154 0.0
C633 C 0.81002 0.16227 0.49953 0.0
C634 C 0.87941 0.23691 0.52732 0.0
C635 C 0.88712 0.22938 0.54311 0.0
C636 C 0.86451 0.22467 0.51255 0.0
C637 C 0.85702 0.20471 0.51355 0.0
C638 C 0.87966 0.20943 0.54382 0.0
C639 C 0.86472 0.19726 0.52934 0.0
C640 C 0.84038 0.19115 0.49953 0.0
C641 C 0.88928 0.22106 0.45 0.0
C642 C 0.88662 0.2325 0.43389 0.0
C643 C 0.87406 0.20816 0.46371 0.0
C644 C 0.85588 0.20646 0.46168 0.0
C645 C 0.86842 0.23085 0.43192 0.0
C646 C 0.85312 0.21776 0.44554 0.0
C647 C 0.83958 0.19208 0.47543 0.0
H648 H 0.77905 0.09832 0.45558 0.0
H649 H 0.80088 0.12561 0.47912 0.0
H650 H 0.76526 0.13514 0.41601 0.0
H651 H 0.78719 0.16263 0.43997 0.0
H652 H 0.74663 0.12388 0.52352 0.0
H653 H 0.77092 0.14745 0.49744 0.0
H654 H 0.79118 0.12 0.56023 0.0
H655 H 0.81519 0.14322 0.53419 0.0
H656 H 0.88489 0.25224 0.52641 0.0
H657 H 0.85858 0.23072 0.50075 0.0
H658 H 0.88507 0.20315 0.55602 0.0
H659 H 0.85908 0.18191 0.53055 0.0
H660 H 0.90316 0.22211 0.45202 0.0
H661 H 0.87645 0.19928 0.47568 0.0
H662 H 0.86595 0.23938 0.41952 0.0
H663 H 0.83913 0.21648 0.44353 0.0
N664 N 0.82418 0.1778 0.46424 0.0
N665 N 0.82552 0.17636 0.51055 0.0
C666 C 0.97889 0.54631 0.17806 0.0
C667 C 0.99082 0.55295 0.15862 0.0
C668 C 0.98002 0.53334 0.19313 0.0
C669 C 0.99295 0.52671 0.18883 0.0
C670 C 0.00377 0.54634 0.15454 0.0
C671 C 0.00473 0.53331 0.16937 0.0
C672 C 0.99372 0.51207 0.20346 0.0
C673 C 0.01973 0.56505 0.24706 0.0
C674 C 0.01054 0.5637 0.26804 0.0
C675 C 0.01429 0.5488 0.23357 0.0
C676 C 0.99932 0.53079 0.24054 0.0
C677 C 0.99529 0.54575 0.27486 0.0
C678 C 0.98987 0.5294 0.26132 0.0
C679 C 0.9953 0.51328 0.22759 0.0
C680 C 0.02118 0.45797 0.25107 0.0
C681 C 0.01015 0.44882 0.2706 0.0
C682 C 0.01648 0.46905 0.23705 0.0
C683 C 1.00049 0.47108 0.24206 0.0
C684 C 0.99404 0.45074 0.27553 0.0
C685 C 0.98937 0.46193 0.26149 0.0
C686 C 0.99645 0.48408 0.22822 0.0
C687 C 0.98726 0.43601 0.17892 0.0
C688 C 1.00064 0.44266 0.16085 0.0
C689 C 0.98568 0.44907 0.19351 0.0
C690 C 0.99734 0.46893 0.19003 0.0
C691 C 0.01232 0.46252 0.15763 0.0
C692 C 0.01059 0.47547 0.17194 0.0
C693 C 0.99542 0.48325 0.20406 0.0
H694 H 0.96877 0.55117 0.18159 0.0
H695 H 0.97054 0.5282 0.20783 0.0
H696 H 0.01293 0.55095 0.13953 0.0
H697 H 0.01474 0.52833 0.16559 0.0
H698 H 0.03143 0.57868 0.24124 0.0
H699 H 0.02232 0.55025 0.21808 0.0
H700 H 0.98806 0.54424 0.29104 0.0
H701 H 0.97852 0.51561 0.26726 0.0
H702 H 0.03359 0.45666 0.24668 0.0
H703 H 0.02565 0.47641 0.22258 0.0
H704 H 0.98538 0.44403 0.29057 0.0
H705 H 0.97716 0.46356 0.26588 0.0
H706 H 0.97806 0.42077 0.18176 0.0
H707 H 0.97515 0.44369 0.20716 0.0
H708 H 0.02253 0.4681 0.14365 0.0
H709 H 0.01966 0.49071 0.16884 0.0
N710 N 0.994 0.49721 0.19276 0.0
N711 N 0.99634 0.49907 0.23904 0.0
C712 C 0.46778 0.43295 0.1764 0.0
C713 C 0.45329 0.43539 0.16613 0.0
C714 C 0.48033 0.44626 0.19238 0.0
C715 C 0.47827 0.4619 0.199 0.0
C716 C 0.45106 0.45094 0.17332 0.0
C717 C 0.46341 0.46402 0.18964 0.0
C718 C 0.4935 0.47768 0.21238 0.0
C719 C 0.45195 0.4638 0.27849 0.0
C720 C 0.44207 0.4437 0.27623 0.0
C721 C 0.46855 0.47517 0.26581 0.0
C722 C 0.4758 0.46682 0.25053 0.0
C723 C 0.44978 0.43525 0.26167 0.0
C724 C 0.46656 0.44669 0.24908 0.0
C725 C 0.49285 0.47959 0.23637 0.0
C726 C 0.55266 0.56083 0.25511 0.0
C727 C 0.5632 0.55877 0.27299 0.0
C728 C 0.53955 0.5449 0.24241 0.0
C729 C 0.53677 0.52659 0.24728 0.0
C730 C 0.56035 0.5404 0.27784 0.0
C731 C 0.54712 0.52444 0.26523 0.0
C732 C 0.52237 0.50953 0.23456 0.0
C733 C 0.56879 0.54664 0.18317 0.0
C734 C 0.56148 0.55278 0.16521 0.0
C735 C 0.55628 0.53211 0.19815 0.0
C736 C 0.5363 0.52346 0.1953 0.0
C737 C 0.54149 0.54391 0.16237 0.0
C738 C 0.52909 0.52939 0.17714 0.0
C739 C 0.52248 0.50793 0.21048 0.0
H740 H 0.46977 0.42102 0.1717 0.0
H741 H 0.49196 0.44461 0.19917 0.0
H742 H 0.44041 0.45362 0.16557 0.0
H743 H 0.46194 0.47631 0.19414 0.0
H744 H 0.44676 0.47082 0.28996 0.0
H745 H 0.4755 0.49063 0.26757 0.0
H746 H 0.44262 0.41982 0.25955 0.0
H747 H 0.47223 0.43975 0.23828 0.0
H748 H 0.55463 0.57481 0.25086 0.0
H749 H 0.53143 0.54684 0.22895 0.0
H750 H 0.5681 0.53834 0.29167 0.0
H751 H 0.54499 0.51039 0.26943 0.0
H752 H 0.58413 0.55319 0.18574 0.0
H753 H 0.5622 0.52755 0.2118 0.0
H754 H 0.5354 0.54803 0.14847 0.0
H755 H 0.51375 0.52286 0.17447 0.0
N756 N 0.50809 0.49199 0.20043 0.0
N757 N 0.50749 0.4954 0.24652 0.0
C758 C 0.4569 0.01712 0.27153 0.0
C759 C 0.4459 0.99929 0.28261 0.0
C760 C 0.47175 0.02013 0.25646 0.0
C761 C 0.47613 0.00551 0.25251 0.0
C762 C 0.45017 0.9846 0.27795 0.0
C763 C 0.4653 0.9878 0.26344 0.0
C764 C 0.4926 0.00876 0.23808 0.0
C765 C 0.44559 0.99756 0.18721 0.0
C766 C 0.4507 0.01082 0.16917 0.0
C767 C 0.4594 0.99876 0.2027 0.0
C768 C 0.4786 0.01355 0.20092 0.0
C769 C 0.46978 0.02599 0.16788 0.0
C770 C 0.48354 0.02729 0.18354 0.0
C771 C 0.49405 0.01318 0.21447 0.0
C772 C 0.55559 0.99766 0.18274 0.0
C773 C 0.56303 0.01071 0.16443 0.0
C774 C 0.54353 0.99901 0.19897 0.0
C775 C 0.53897 0.01374 0.19767 0.0
C776 C 0.55884 0.02573 0.16343 0.0
C777 C 0.54688 0.02717 0.17983 0.0
C778 C 0.52406 0.01367 0.21284 0.0
C779 C 0.57092 0.02165 0.26173 0.0
C780 C 0.56632 0.00469 0.27375 0.0
C781 C 0.55683 0.02327 0.24949 0.0
C782 C 0.53778 0.00814 0.24935 0.0
C783 C 0.54711 0.98958 0.27346 0.0
C784 C 0.53298 0.99143 0.26171 0.0
C785 C 0.52275 0.00967 0.23653 0.0
H786 H 0.45437 0.02893 0.2748 0.0
H787 H 0.48014 0.034 0.24837 0.0
H788 H 0.44178 0.97047 0.2854 0.0
H789 H 0.46842 0.97632 0.26053 0.0
H790 H 0.43101 0.9858 0.18893 0.0
H791 H 0.45515 0.98745 0.21522 0.0
H792 H 0.47436 0.03632 0.15409 0.0
H793 H 0.49828 0.03869 0.18152 0.0
H794 H 0.55864 0.98601 0.18419 0.0
H795 H 0.53709 0.98794 0.21187 0.0
H796 H 0.56409 0.03587 0.14941 0.0
H797 H 0.54335 0.03848 0.17818 0.0
H798 H 0.58536 0.03379 0.26185 0.0
H799 H 0.56078 0.03643 0.24031 0.0
H800 H 0.54292 0.9761 0.28192 0.0
H801 H 0.51835 0.97956 0.26176 0.0
N802 N 0.507 0.00719 0.24815 0.0
N803 N 0.50975 0.01544 0.20287 0.0
C804 C 0.56569 0.02318 0.78678 0.0
C805 C 0.56392 0.01188 0.76752 0.0
C806 C 0.54986 0.01869 0.80064 0.0
C807 C 0.53189 0.00265 0.79579 0.0
C808 C 0.54597 0.99571 0.76273 0.0
C809 C 0.53004 0.99125 0.77664 0.0
C810 C 0.51486 0.99899 0.80949 0.0
C811 C 0.55241 0.98884 0.85922 0.0
C812 C 0.55994 0.0027 0.87675 0.0
C813 C 0.53802 0.98776 0.8447 0.0
C814 C 0.53083 1.00037 0.84774 0.0
C815 C 0.55278 0.01535 0.87953 0.0
C816 C 0.53831 0.0141 0.86531 0.0
C817 C 0.51488 0.99898 0.83368 0.0
C818 C 0.43777 0.98838 0.86096 0.0
C819 C 0.44426 0.00248 0.87824 0.0
C820 C 0.45088 0.98735 0.84595 0.0
C821 C 0.47066 1.00025 0.84825 0.0
C822 C 0.46402 0.01546 0.88021 0.0
C823 C 0.47706 0.01426 0.86551 0.0
C824 C 0.4851 0.9988 0.83392 0.0
C825 C 0.45771 0.02206 0.78659 0.0
C826 C 0.44807 0.01031 0.76771 0.0
C827 C 0.46916 0.01788 0.80063 0.0
C828 C 0.47114 0.00177 0.79624 0.0
C829 C 0.44976 0.99399 0.76351 0.0
C830 C 0.4614 0.98988 0.77752 0.0
C831 C 0.48491 0.99864 0.80974 0.0
H832 H 0.57935 0.03564 0.79106 0.0
H833 H 0.5516 0.02812 0.81485 0.0
H834 H 0.54412 0.98684 0.74788 0.0
H835 H 0.51624 0.97899 0.77235 0.0
H836 H 0.55767 0.97891 0.85675 0.0
H837 H 0.53226 0.97687 0.83145 0.0
H838 H 0.55809 0.02598 0.8931 0.0
H839 H 0.53292 0.02391 0.86805 0.0
H840 H 0.4226 0.9782 0.8591 0.0
H841 H 0.44565 0.97626 0.83294 0.0
H842 H 0.46947 0.02629 0.89355 0.0
H843 H 0.49224 0.02429 0.86769 0.0
H844 H 0.45658 0.03467 0.79034 0.0
H845 H 0.47695 0.02762 0.81452 0.0
H846 H 0.44261 0.98478 0.74897 0.0
H847 H 0.46298 0.97756 0.77361 0.0
N848 N 0.49978 0.99866 0.79844 0.0
N849 N 0.50005 0.99896 0.84485 0.0
C850 C 0.98798 0.54611 0.78516 0.0
C851 C 0.99889 0.55596 0.76584 0.0
C852 C 0.99337 0.53541 0.79886 0.0
C853 C 0.00997 0.53447 0.79379 0.0
C854 C 0.01556 0.55508 0.76077 0.0
C855 C 0.02095 0.54427 0.77452 0.0
C856 C 0.01487 0.52203 0.80755 0.0
C857 C 0.02208 0.56909 0.85703 0.0
C858 C 0.00877 0.56215 0.87516 0.0
C859 C 0.02399 0.55628 0.84238 0.0
C860 C 0.01271 0.53638 0.8458 0.0
C861 C 0.99744 0.54224 0.87832 0.0
C862 C 0.99948 0.52953 0.86391 0.0
C863 C 0.01519 0.5224 0.83175 0.0
C864 C 0.03323 0.4606 0.8587 0.0
C865 C 0.02019 0.45294 0.87705 0.0
C866 C 0.03244 0.47373 0.84358 0.0
C867 C 0.01868 0.47947 0.84672 0.0
C868 C 0.00641 0.45867 0.87995 0.0
C869 C 0.00574 0.47183 0.86505 0.0
C870 C 0.0182 0.49432 0.8322 0.0
C871 C 0.99891 0.44336 0.78595 0.0
C872 C 0.01122 0.44621 0.7674 0.0
C873 C 1.00141 0.45881 0.79941 0.0
C874 C 0.01634 0.47747 0.79471 0.0
C875 C 0.02629 0.46487 0.7628 0.0
C876 C 0.02869 0.48041 0.7762 0.0
C877 C 0.01799 0.49393 0.80801 0.0
H878 H 0.97516 0.54662 0.78968 0.0
H879 H 0.98429 0.52751 0.81317 0.0
H880 H 0.02416 0.56235 0.74588 0.0
H881 H 0.03364 0.54349 0.77007 0.0
H882 H 0.031 0.58438 0.85423 0.0
H883 H 0.03452 0.56191 0.82874 0.0
H884 H 0.98728 0.53645 0.89234 0.0
H885 H 0.99071 0.51425 0.86698 0.0
H886 H 0.044 0.45644 0.85606 0.0
H887 H 0.04282 0.4797 0.82981 0.0
H888 H 0.99639 0.45332 0.89413 0.0
H889 H 0.99509 0.47613 0.86794 0.0
H890 H 0.98726 0.42914 0.79002 0.0
H891 H 0.99138 0.45621 0.81321 0.0
H892 H 0.0359 0.4675 0.7485 0.0
H893 H 0.04013 0.49474 0.77209 0.0
N894 N 0.01643 0.50787 0.7966 0.0
N895 N 0.01679 0.50853 0.843 0.0
C896 C 0.55168 0.57144 0.78493 0.0
C897 C 0.56074 0.56497 0.76951 0.0
C898 C 0.53556 0.55833 0.79746 0.0
C899 C 0.52841 0.53848 0.79518 0.0
C900 C 0.55301 0.54508 0.76663 0.0
C901 C 0.53712 0.53204 0.77932 0.0
C902 C 0.51149 0.52411 0.80833 0.0
C903 C 0.55468 0.55898 0.86338 0.0
C904 C 0.5483 0.56735 0.87988 0.0
C905 C 0.54195 0.54595 0.84729 0.0
C906 C 0.52261 0.54129 0.84701 0.0
C907 C 0.52898 0.56281 0.87937 0.0
C908 C 0.51629 0.54988 0.86318 0.0
C909 C 0.50844 0.52587 0.83189 0.0
C910 C 0.44816 0.44724 0.85888 0.0
C911 C 0.43943 0.45211 0.87657 0.0
C912 C 0.46043 0.46106 0.84323 0.0
C913 C 0.46387 0.47998 0.84445 0.0
C914 C 0.44239 0.47089 0.87732 0.0
C915 C 0.4545 0.48466 0.86147 0.0
C916 C 0.47934 0.49552 0.83067 0.0
C917 C 0.43911 0.45635 0.77452 0.0
C918 C 0.44629 0.44511 0.76469 0.0
C919 C 0.45066 0.47191 0.78885 0.0
C920 C 0.46971 0.47681 0.79321 0.0
C921 C 0.46536 0.44999 0.76969 0.0
C922 C 0.477 0.46585 0.78338 0.0
C923 C 0.48249 0.49373 0.80723 0.0
H924 H 0.55721 0.58664 0.78764 0.0
H925 H 0.52873 0.56374 0.80891 0.0
H926 H 0.55922 0.53951 0.75448 0.0
H927 H 0.53174 0.51683 0.77688 0.0
H928 H 0.56948 0.56225 0.86311 0.0
H929 H 0.54712 0.5391 0.83554 0.0
H930 H 0.52345 0.56869 0.89201 0.0
H931 H 0.50138 0.54626 0.8636 0.0
H932 H 0.44607 0.43288 0.8576 0.0
H933 H 0.46801 0.45708 0.83107 0.0
H934 H 0.43615 0.47527 0.89086 0.0
H935 H 0.45713 0.49921 0.86305 0.0
H936 H 0.4247 0.45341 0.7709 0.0
H937 H 0.44486 0.48038 0.7961 0.0
H938 H 0.47139 0.4415 0.76325 0.0
H939 H 0.49166 0.46937 0.78666 0.0
N940 N 0.49841 0.50804 0.79706 0.0
N941 N 0.4924 0.51158 0.84197 0.0
C942 C 0.65538 0.77023 0.51197 0.0
C943 C 0.64071 0.76168 0.49549 0.0
C944 C 0.65562 0.78347 0.5277 0.0
C945 C 0.64087 0.78804 0.52784 0.0
C946 C 0.62576 0.766 0.49594 0.0
C947 C 0.62588 0.77906 0.51191 0.0
C948 C 0.64233 0.80398 0.54218 0.0
C949 C 0.64269 0.76084 0.59109 0.0
C950 C 0.65883 0.76812 0.60557 0.0
C951 C 0.63885 0.77327 0.57828 0.0
C952 C 0.65131 0.79323 0.57927 0.0
C953 C 0.67071 0.78815 0.60728 0.0
C954 C 0.66704 0.80049 0.59428 0.0
C955 C 0.64813 0.80691 0.56543 0.0
C956 C 0.6515 0.88243 0.58871 0.0
C957 C 0.66817 0.89016 0.60228 0.0
C958 C 0.64549 0.8654 0.57637 0.0
C959 C 0.65618 0.8559 0.57715 0.0
C960 C 0.67851 0.88032 0.60345 0.0
C961 C 0.67259 0.86344 0.59106 0.0
C962 C 0.65021 0.83769 0.56461 0.0
C963 C 0.66127 0.87824 0.50411 0.0
C964 C 0.644 0.87547 0.49444 0.0
C965 C 0.66114 0.86543 0.52038 0.0
C966 C 0.6438 0.84943 0.5271 0.0
C967 C 0.62659 0.85975 0.50206 0.0
C968 C 0.62654 0.8467 0.51791 0.0
C969 C 0.64393 0.83451 0.54165 0.0
H970 H 0.66701 0.7671 0.51236 0.0
H971 H 0.66776 0.79065 0.53917 0.0
H972 H 0.6144 0.75997 0.48332 0.0
H973 H 0.61452 0.78259 0.51137 0.0
H974 H 0.63319 0.74552 0.58929 0.0
H975 H 0.62621 0.76723 0.56752 0.0
H976 H 0.68294 0.79437 0.61871 0.0
H977 H 0.67674 0.81581 0.59575 0.0
H978 H 0.6432 0.88965 0.58739 0.0
H979 H 0.63238 0.85959 0.5665 0.0
H980 H 0.69117 0.88559 0.6141 0.0
H981 H 0.68099 0.85631 0.59225 0.0
H982 H 0.67502 0.88983 0.4985 0.0
H983 H 0.67465 0.86757 0.52701 0.0
H984 H 0.61294 0.85729 0.49557 0.0
H985 H 0.61301 0.83436 0.52285 0.0
N986 N 0.64025 0.81782 0.53139 0.0
N987 N 0.65193 0.82371 0.57553 0.0
C988 C 0.12727 0.76997 0.51816 0.0
C989 C 0.12025 0.77657 0.50043 0.0
C990 C 0.14126 0.78304 0.53328 0.0
C991 C 0.14859 0.80287 0.53059 0.0
C992 C 0.12756 0.79639 0.49794 0.0
C993 C 0.1417 0.80939 0.51271 0.0
C994 C 0.16412 0.81714 0.54538 0.0
C995 C 0.11156 0.79131 0.58952 0.0
C996 C 0.11235 0.78175 0.60925 0.0
C997 C 0.12798 0.80231 0.5764 0.0
C998 C 0.1456 0.80385 0.58246 0.0
C999 C 0.12995 0.78312 0.61525 0.0
C1000 C 0.14646 0.79423 0.60208 0.0
C1001 C 0.16329 0.81693 0.56956 0.0
C1002 C 0.22348 0.89541 0.59579 0.0
C1003 C 0.2334 0.89229 0.61352 0.0
C1004 C 0.21099 0.88032 0.5816 0.0
C1005 C 0.20811 0.86177 0.58488 0.0
C1006 C 0.23065 0.87375 0.61668 0.0
C1007 C 0.2179 0.85855 0.60264 0.0
C1008 C 0.19393 0.84564 0.57072 0.0
C1009 C 0.24369 0.88138 0.52231 0.0
C1010 C 0.23859 0.88903 0.50372 0.0
C1011 C 0.22952 0.86777 0.53682 0.0
C1012 C 0.21003 0.86155 0.53288 0.0
C1013 C 0.21908 0.88289 0.50009 0.0
C1014 C 0.20501 0.86928 0.51442 0.0
C1015 C 0.19451 0.84599 0.54653 0.0
H1016 H 0.12184 0.75475 0.5204 0.0
H1017 H 0.14658 0.77771 0.54677 0.0
H1018 H 0.12255 0.80187 0.48426 0.0
H1019 H 0.14723 0.82462 0.51022 0.0
H1020 H 0.09822 0.79044 0.5843 0.0
H1021 H 0.12696 0.81007 0.56184 0.0
H1022 H 0.13106 0.77607 0.63047 0.0
H1023 H 0.15996 0.79546 0.60731 0.0
H1024 H 0.22541 0.90958 0.59288 0.0
H1025 H 0.2033 0.88308 0.56829 0.0
H1026 H 0.23804 0.87095 0.63031 0.0
H1027 H 0.21569 0.84429 0.60561 0.0
H1028 H 0.2586 0.88582 0.52555 0.0
H1029 H 0.23376 0.86174 0.55067 0.0
H1030 H 0.21459 0.88819 0.48571 0.0
H1031 H 0.19008 0.86463 0.51091 0.0
N1032 N 0.1796 0.8317 0.53491 0.0
N1033 N 0.17834 0.83111 0.58132 0.0
C1034 C 0.23849 0.36155 0.51147 0.0
C1035 C 0.23271 0.34945 0.49215 0.0
C1036 C 0.22479 0.3613 0.52661 0.0
C1037 C 0.2051 0.34906 0.52253 0.0
C1038 C 0.21301 0.33712 0.48833 0.0
C1039 C 0.19939 0.33703 0.50324 0.0
C1040 C 0.19017 0.34948 0.53706 0.0
C1041 C 0.21565 0.32242 0.58124 0.0
C1042 C 0.22428 0.33221 0.60166 0.0
C1043 C 0.20486 0.32792 0.56785 0.0
C1044 C 0.20261 0.34352 0.57437 0.0
C1045 C 0.22223 0.34798 0.60809 0.0
C1046 C 0.21133 0.35346 0.59466 0.0
C1047 C 0.18965 0.34813 0.56122 0.0
C1048 C 0.10982 0.32902 0.58396 0.0
C1049 C 0.11244 0.34081 0.60302 0.0
C1050 C 0.1254 0.3321 0.57033 0.0
C1051 C 0.14397 0.34709 0.57538 0.0
C1052 C 0.13103 0.35587 0.60802 0.0
C1053 C 0.14669 0.35884 0.59446 0.0
C1054 C 0.16061 0.34958 0.56169 0.0
C1055 C 0.12641 0.3651 0.51261 0.0
C1056 C 0.11894 0.35245 0.49386 0.0
C1057 C 0.13973 0.3643 0.52738 0.0
C1058 C 0.14588 0.35094 0.52348 0.0
C1059 C 0.12502 0.33901 0.49024 0.0
C1060 C 0.1384 0.33835 0.50478 0.0
C1061 C 0.16105 0.35064 0.53753 0.0
H1062 H 0.25358 0.3712 0.51483 0.0
H1063 H 0.22955 0.37097 0.54116 0.0
H1064 H 0.20807 0.32784 0.47343 0.0
H1065 H 0.1843 0.32757 0.49962 0.0
H1066 H 0.21707 0.31031 0.57571 0.0
H1067 H 0.19781 0.31958 0.55271 0.0
H1068 H 0.22856 0.35569 0.62384 0.0
H1069 H 0.20953 0.36534 0.60023 0.0
H1070 H 0.09567 0.31738 0.57955 0.0
H1071 H 0.12298 0.32251 0.55606 0.0
H1072 H 0.13352 0.36507 0.62272 0.0
H1073 H 0.16093 0.37032 0.59885 0.0
H1074 H 0.12198 0.3756 0.51579 0.0
H1075 H 0.14556 0.37439 0.54147 0.0
H1076 H 0.11979 0.32929 0.47575 0.0
H1077 H 0.14303 0.32803 0.50132 0.0
N1078 N 0.17581 0.35057 0.52628 0.0
N1079 N 0.17497 0.34841 0.57261 0.0
H1080 H 0.02255 0.40122 0.08504 0.0
H1081 H 0.96097 0.3689 0.07728 0.0
H1082 H 0.95725 0.38569 0.11017 0.0
H1083 H 0.97174 0.4116 0.13911 0.0
H1084 H 0.03335 0.44387 0.14615 0.0
H1085 H 0.03678 0.42498 0.11565 0.0
C1086 C 0.00828 0.39772 0.09059 0.0
C1087 C 0.99208 0.38396 0.0785 0.0
C1088 C 0.00625 0.4075 0.10937 0.0
C1089 C 0.97371 0.37948 0.08619 0.0
C1090 C 0.97157 0.38911 0.10498 0.0
C1091 C 0.98587 0.41421 0.13424 0.0
C1092 C 1.00228 0.42924 0.14471 0.0
C1093 C 0.98776 0.40342 0.11644 0.0
C1094 C 0.02052 0.43256 0.13812 0.0
C1095 C 0.0225 0.42177 0.12069 0.0
H1096 H 0.60083 0.61724 0.09048 0.0
H1097 H 0.63641 0.59135 0.08295 0.0
H1098 H 0.62002 0.57012 0.1153 0.0
H1099 H 0.5936 0.55702 0.14364 0.0
H1100 H 0.5581 0.58304 0.15048 0.0
H1101 H 0.57645 0.60608 0.12054 0.0
C1102 C 0.60515 0.60708 0.09599 0.0
C1103 C 0.61972 0.6058 0.0841 0.0
C1104 C 0.59556 0.59481 0.11442 0.0
C1105 C 0.62521 0.59264 0.0917 0.0
C1106 C 0.6158 0.58043 0.11018 0.0
C1107 C 0.59013 0.56795 0.13884 0.0
C1108 C 0.57435 0.56815 0.14908 0.0
C1109 C 0.60068 0.58112 0.12139 0.0
C1110 C 0.56996 0.58236 0.14258 0.0
C1111 C 0.58047 0.59557 0.12549 0.0
H1112 H 0.39063 0.98411 0.08839 0.0
H1113 H 0.41322 0.0452 0.08271 0.0
H1114 H 0.43381 0.05061 0.11595 0.0
H1115 H 0.44606 0.03795 0.14601 0.0
H1116 H 0.42401 0.97682 0.15009 0.0
H1117 H 0.40232 0.97154 0.11844 0.0
C1118 C 0.39999 0.99864 0.0944 0.0
C1119 C 0.40039 0.01422 0.08292 0.0
C1120 C 0.41185 0.00166 0.11339 0.0
C1121 C 0.41261 0.03292 0.09112 0.0
C1122 C 0.42441 0.03603 0.11015 0.0
C1123 C 0.43655 0.02348 0.13996 0.0
C1124 C 0.43669 0.00783 0.15065 0.0
C1125 C 0.42428 0.02051 0.1213 0.0
C1126 C 0.42404 0.98915 0.14264 0.0
C1127 C 0.41171 0.9861 0.12433 0.0
H1128 H 0.40228 0.02326 0.95442 0.0
H1129 H 0.37564 0.96246 0.96743 0.0
H1130 H 0.39194 0.95872 0.93402 0.0
H1131 H 0.41597 0.97333 0.903 0.0
H1132 H 0.44277 0.03424 0.89096 0.0
H1133 H 0.4241 0.03731 0.92202 0.0
C1134 C 0.3999 0.00914 0.94992 0.0
C1135 C 0.38791 0.99321 0.96361 0.0
C1136 C 0.40942 0.00713 0.93086 0.0
C1137 C 0.38485 0.975 0.95728 0.0
C1138 C 0.39421 0.97285 0.93819 0.0
C1139 C 0.41741 0.98718 0.90693 0.0
C1140 C 0.43083 0.00357 0.89484 0.0
C1141 C 0.40681 0.98889 0.9251 0.0
C1142 C 0.43269 0.02147 0.90021 0.0
C1143 C 0.42203 0.02323 0.91796 0.0
H1144 H 0.03531 0.40938 0.95716 0.0
H1145 H 0.97355 0.37489 0.95283 0.0
H1146 H 0.97345 0.3932 0.91985 0.0
H1147 H 0.9904 0.42022 0.89376 0.0
H1148 H 0.05193 0.45558 0.89802 0.0
H1149 H 0.05265 0.43549 0.92905 0.0
C1150 C 0.02186 0.40577 0.94887 0.0
C1151 C 0.00446 0.39088 0.95772 0.0
C1152 C 0.02184 0.41651 0.92985 0.0
C1153 C 0.98717 0.38637 0.94664 0.0
C1154 C 0.98706 0.39683 0.9277 0.0
C1155 C 0.00399 0.42349 0.90143 0.0
C1156 C 0.02105 0.43947 0.89377 0.0
C1157 C 0.00424 0.41213 0.91944 0.0
C1158 C 0.03859 0.4433 0.90354 0.0
C1159 C 0.03899 0.43191 0.92141 0.0
H1160 H 0.59488 0.62493 0.96038 0.0
H1161 H 0.61935 0.58782 0.96392 0.0
H1162 H 0.59989 0.56933 0.93151 0.0
H1163 H 0.57504 0.56273 0.90314 0.0
H1164 H 0.55085 0.59998 0.89853 0.0
H1165 H 0.57091 0.61916 0.93047 0.0
C1166 C 0.59601 0.61285 0.95401 0.0
C1167 C 0.60855 0.60779 0.96473 0.0
C1168 C 0.58474 0.60218 0.93522 0.0
C1169 C 0.60984 0.5921 0.95612 0.0
C1170 C 0.59869 0.58145 0.93755 0.0
C1171 C 0.57436 0.57524 0.90879 0.0
C1172 C 0.56139 0.57983 0.89837 0.0
C1173 C 0.586 0.58627 0.92707 0.0
C1174 C 0.5605 0.59591 0.90637 0.0
C1175 C 0.57204 0.60696 0.92459 0.0
H1176 H 0.98637 0.60295 0.9513 0.0
H1177 H 0.04798 0.63658 0.95796 0.0
H1178 H 0.05179 0.61978 0.92513 0.0
H1179 H 0.03745 0.59361 0.89651 0.0
H1180 H 0.97581 0.56008 0.89055 0.0
H1181 H 0.97221 0.57882 0.92108 0.0
C1182 C 1.00067 0.60672 0.94552 0.0
C1183 C 0.01685 0.62086 0.95727 0.0
C1184 C 0.00274 0.59695 0.92679 0.0
C1185 C 0.03525 0.6257 0.94931 0.0
C1186 C 0.03745 0.61607 0.93056 0.0
C1187 C 0.02326 0.59068 0.90162 0.0
C1188 C 0.00692 0.57536 0.89144 0.0
C1189 C 0.02128 0.60141 0.91942 0.0
C1190 C 0.98861 0.57162 0.89835 0.0
C1191 C 0.98653 0.58233 0.91579 0.0
H1192 H 0.40793 0.39303 0.95827 0.0
H1193 H 0.36694 0.41278 0.96224 0.0
H1194 H 0.3817 0.43323 0.92881 0.0
H1195 H 0.40689 0.44617 0.89905 0.0
H1196 H 0.44845 0.42703 0.89672 0.0
H1197 H 0.43253 0.40544 0.92859 0.0
C1198 C 0.40212 0.40173 0.95183 0.0
C1199 C 0.38637 0.40138 0.96287 0.0
C1200 C 0.41073 0.41353 0.93276 0.0
C1201 C 0.37908 0.41277 0.95416 0.0
C1202 C 0.38752 0.42449 0.93503 0.0
C1203 C 0.4125 0.43731 0.90554 0.0
C1204 C 0.42882 0.43821 0.89529 0.0
C1205 C 0.40348 0.42511 0.92431 0.0
C1206 C 0.43571 0.42642 0.90384 0.0
C1207 C 0.42672 0.41416 0.92227 0.0
H1208 H 0.62376 0.02336 0.95109 0.0
H1209 H 0.59073 0.96228 0.96284 0.0
H1210 H 0.57027 0.95872 0.93009 0.0
H1211 H 0.56005 0.97347 0.9002 0.0
H1212 H 0.59291 0.03465 0.8895 0.0
H1213 H 0.61519 0.03763 0.91969 0.0
C1214 C 0.61218 0.00922 0.94644 0.0
C1215 C 0.60868 0.99315 0.95961 0.0
C1216 C 0.60037 0.00731 0.9278 0.0
C1217 C 0.59372 0.97493 0.95309 0.0
C1218 C 0.58198 0.97288 0.93439 0.0
C1219 C 0.57231 0.98737 0.90422 0.0
C1220 C 0.57476 0.00384 0.89279 0.0
C1221 C 0.58493 0.98903 0.92189 0.0
C1222 C 0.59061 0.02181 0.89827 0.0
C1223 C 0.60335 0.02352 0.91551 0.0
H1224 H 0.59645 0.98365 0.08378 0.0
H1225 H 0.63534 0.04466 0.07832 0.0
H1226 H 0.61982 0.05025 0.1112 0.0
H1227 H 0.59459 0.03776 0.14101 0.0
H1228 H 0.55532 0.97671 0.145 0.0
H1229 H 0.57182 0.97127 0.11343 0.0
C1230 C 0.60164 0.99821 0.08977 0.0
C1231 C 0.61704 0.0137 0.07848 0.0
C1232 C 0.5926 1.00133 0.10853 0.0
C1233 C 0.62351 0.03243 0.08662 0.0
C1234 C 0.61462 0.03565 0.10542 0.0
C1235 C 0.58962 0.02328 0.13492 0.0
C1236 C 0.57378 0.00768 0.14557 0.0
C1237 C 0.59903 0.02021 0.11641 0.0
C1238 C 0.56768 0.98899 0.13754 0.0
C1239 C 0.57701 0.98584 0.11931 0.0
H1240 H 0.97416 0.59644 0.07981 0.0
H1241 H 0.03612 0.62982 0.08113 0.0
H1242 H 0.03689 0.61164 0.11384 0.0
H1243 H 0.02042 0.58497 0.1405 0.0
H1244 H 0.95868 0.55089 0.13956 0.0
H1245 H 0.95737 0.57084 0.10871 0.0
C1246 C 0.98781 0.59984 0.08739 0.0
C1247 C 0.00504 0.61437 0.07775 0.0
C1248 C 0.98823 0.5892 0.10631 0.0
C1249 C 0.0226 0.61862 0.08794 0.0
C1250 C 0.0231 0.60823 0.10672 0.0
C1251 C 0.00666 0.58197 0.1336 0.0
C1252 C 0.9897 0.56638 0.1421 0.0
C1253 C 0.00606 0.59328 0.11575 0.0
C1254 C 0.97195 0.56287 0.13334 0.0
C1255 C 0.97122 0.57418 0.11559 0.0
H1256 H 0.41729 0.38732 0.07547 0.0
H1257 H 0.36975 0.39433 0.09698 0.0
H1258 H 0.38677 0.41011 0.13212 0.0
H1259 H 0.4157 0.42333 0.15583 0.0
H1260 H 0.4645 0.41909 0.13247 0.0
H1261 H 0.44625 0.40039 0.09949 0.0
C1262 C 0.41059 0.39212 0.08798 0.0
C1263 C 0.39231 0.38968 0.08359 0.0
C1264 C 0.42067 0.40167 0.10792 0.0
C1265 C 0.38387 0.39614 0.09987 0.0
C1266 C 0.39359 0.40516 0.11999 0.0
C1267 C 0.42245 0.41846 0.1435 0.0
C1268 C 0.44154 0.42274 0.14685 0.0
C1269 C 0.41212 0.4083 0.12401 0.0
C1270 C 0.44977 0.41582 0.13078 0.0
C1271 C 0.43939 0.40526 0.11168 0.0
H1272 H 0.63233 0.70624 0.41331 0.0
H1273 H 0.69387 0.7436 0.41248 0.0
H1274 H 0.69177 0.7611 0.4453 0.0
H1275 H 0.67263 0.76694 0.47305 0.0
H1276 H 0.61124 0.7293 0.47552 0.0
H1277 H 0.61316 0.71102 0.44309 0.0
C1278 C 0.64528 0.71815 0.42038 0.0
C1279 C 0.66321 0.7236 0.41028 0.0
C1280 C 0.64403 0.72823 0.43947 0.0
C1281 C 0.67985 0.73903 0.41979 0.0
C1282 C 0.67869 0.74912 0.43859 0.0
C1283 C 0.65966 0.7545 0.4669 0.0
C1284 C 0.64183 0.74956 0.47683 0.0
C1285 C 0.66088 0.74395 0.44844 0.0
C1286 C 0.62517 0.73363 0.46809 0.0
C1287 C 0.62625 0.72309 0.44958 0.0
H1288 H 0.29898 0.9327 0.42509 0.0
H1289 H 0.26976 0.96553 0.42544 0.0
H1290 H 0.251 0.9477 0.45856 0.0
H1291 H 0.24098 0.92121 0.48557 0.0
H1292 H 0.26896 0.88731 0.48481 0.0
H1293 H 0.29035 0.90737 0.4542 0.0
C1294 C 0.28869 0.93611 0.4326 0.0
C1295 C 0.28568 0.95032 0.42257 0.0
C1296 C 0.27766 0.92558 0.4516 0.0
C1297 C 0.27227 0.95455 0.43259 0.0
C1298 C 0.2615 0.94436 0.45158 0.0
C1299 C 0.2518 0.91824 0.47876 0.0
C1300 C 0.25321 0.90265 0.48731 0.0
C1301 C 0.26375 0.92956 0.46089 0.0
C1302 C 0.26761 0.89927 0.47864 0.0
C1303 C 0.27975 0.91065 0.46099 0.0
H1304 H 0.07512 0.36856 0.41498 0.0
H1305 H 0.04072 0.30674 0.41796 0.0
H1306 H 0.05912 0.30619 0.45061 0.0
H1307 H 0.08628 0.3228 0.47672 0.0
H1308 H 0.12135 0.38441 0.47393 0.0
H1309 H 0.10119 0.38552 0.44324 0.0
C1310 C 0.07154 0.35499 0.4229 0.0
C1311 C 0.05666 0.33772 0.41376 0.0
C1312 C 0.08231 0.35471 0.44176 0.0
C1313 C 0.05218 0.32027 0.42439 0.0
C1314 C 0.0627 0.3199 0.44313 0.0
C1315 C 0.08945 0.33648 0.46945 0.0
C1316 C 0.10539 0.35346 0.47741 0.0
C1317 C 0.07801 0.33697 0.45166 0.0
C1318 C 0.10911 0.37113 0.46816 0.0
C1319 C 0.09767 0.37175 0.45049 0.0
H1320 H 0.07087 0.35499 0.2883 0.0
H1321 H 0.03053 0.29421 0.29246 0.0
H1322 H 0.04548 0.28849 0.25921 0.0
H1323 H 0.07104 0.30053 0.23016 0.0
H1324 H 0.11183 0.3612 0.22677 0.0
H1325 H 0.09539 0.36717 0.25815 0.0
C1326 C 0.06525 0.34048 0.2819 0.0
C1327 C 0.04968 0.32504 0.29305 0.0
C1328 C 0.07396 0.33727 0.26282 0.0
C1329 C 0.04254 0.30637 0.28433 0.0
C1330 C 0.05109 0.30308 0.2653 0.0
C1331 C 0.07632 0.31506 0.23627 0.0
C1332 C 0.09271 0.33037 0.22613 0.0
C1333 C 0.06699 0.31838 0.25462 0.0
C1334 C 0.09914 0.34916 0.23403 0.0
C1335 C 0.08984 0.35258 0.25214 0.0
H1336 H 0.65364 0.71147 0.27626 0.0
H1337 H 0.70972 0.75261 0.30177 0.0
H1338 H 0.7141 0.7741 0.2699 0.0
H1339 H 0.70083 0.78225 0.23685 0.0
H1340 H 0.64571 0.74001 0.2096 0.0
H1341 H 0.64205 0.71806 0.24037 0.0
C1342 C 0.66689 0.72507 0.27471 0.0
C1343 C 0.68125 0.73054 0.29147 0.0
C1344 C 0.66939 0.73727 0.25624 0.0
C1345 C 0.69845 0.74807 0.28908 0.0
C1346 C 0.70092 0.7604 0.27093 0.0
C1347 C 0.68819 0.7681 0.23717 0.0
C1348 C 0.67344 0.76307 0.22095 0.0
C1349 C 0.68633 0.75529 0.25464 0.0
C1350 C 0.6571 0.74464 0.22211 0.0
C1351 C 0.65503 0.73195 0.23964 0.0
H1352 H 0.26503 0.96277 0.29638 0.0
H1353 H 0.29023 0.92646 0.30296 0.0
H1354 H 0.27061 0.90654 0.27143 0.0
H1355 H 0.24531 0.89842 0.24315 0.0
H1356 H 0.21931 0.9339 0.23666 0.0
H1357 H 0.24048 0.95533 0.26662 0.0
C1358 C 0.26633 0.95058 0.29082 0.0
C1359 C 0.27902 0.94609 0.30222 0.0
C1360 C 0.25486 0.93902 0.27266 0.0
C1361 C 0.28052 0.93024 0.29468 0.0
C1362 C 0.2693 0.9188 0.27661 0.0
C1363 C 0.24424 0.91082 0.24832 0.0
C1364 C 0.23062 0.91444 0.23785 0.0
C1365 C 0.25624 0.92289 0.26571 0.0
C1366 C 0.22973 0.93083 0.24437 0.0
C1367 C 0.24174 0.94301 0.26162 0.0
H1368 H 0.65051 0.93184 0.2886 0.0
H1369 H 0.71173 0.96301 0.29987 0.0
H1370 H 0.71633 0.94643 0.2674 0.0
H1371 H 0.70266 0.92133 0.23735 0.0
H1372 H 0.64136 0.89018 0.22692 0.0
H1373 H 0.63715 0.90852 0.25745 0.0
C1374 C 0.6649 0.93514 0.28393 0.0
C1375 C 0.68072 0.94856 0.29685 0.0
C1376 C 0.66743 0.92546 0.2654 0.0
C1377 C 0.69926 0.95271 0.29033 0.0
C1378 C 0.70191 0.9432 0.27176 0.0
C1379 C 0.68843 0.91881 0.24155 0.0
C1380 C 0.67233 0.90428 0.23002 0.0
C1381 C 0.68607 0.92932 0.25937 0.0
C1382 C 0.65396 0.90108 0.23576 0.0
C1383 C 0.65153 0.91158 0.25319 0.0
H1384 H 0.06317 0.71351 0.28046 0.0
H1385 H 0.05496 0.75621 0.31545 0.0
H1386 H 0.07134 0.77896 0.28438 0.0
H1387 H 0.09003 0.7874 0.24891 0.0
H1388 H 0.09562 0.74373 0.21199 0.0
H1389 H 0.0785 0.72084 0.24242 0.0
C1390 C 0.06485 0.72776 0.28116 0.0
C1391 C 0.05805 0.73325 0.30031 0.0
C1392 C 0.074 0.74067 0.26306 0.0
C1393 C 0.06006 0.75164 0.30088 0.0
C1394 C 0.06949 0.76468 0.28317 0.0
C1395 C 0.08716 0.77278 0.24705 0.0
C1396 C 0.09454 0.76758 0.22812 0.0
C1397 C 0.07678 0.75944 0.26433 0.0
C1398 C 0.09074 0.7485 0.22655 0.0
C1399 C 0.08076 0.73526 0.24391 0.0
H1400 H 0.28374 0.3511 0.28552 0.0
H1401 H 0.2574 0.28957 0.29172 0.0
H1402 H 0.23571 0.28529 0.26013 0.0
H1403 H 0.2226 0.29907 0.23264 0.0
H1404 H 0.24918 0.36061 0.22676 0.0
H1405 H 0.27233 0.36479 0.25634 0.0
C1406 C 0.27336 0.33673 0.27989 0.0
C1407 C 0.27213 0.3207 0.29117 0.0
C1408 C 0.26085 0.33436 0.26184 0.0
C1409 C 0.25867 0.3022 0.28343 0.0
C1410 C 0.2462 0.29972 0.26539 0.0
C1411 C 0.23366 0.31338 0.23756 0.0
C1412 C 0.23399 0.3295 0.22767 0.0
C1413 C 0.24694 0.3157 0.25471 0.0
C1414 C 0.24836 0.34796 0.23438 0.0
C1415 C 0.26166 0.35037 0.25125 0.0
H1416 H 0.2924 0.3638 0.41322 0.0
H1417 H 0.26185 0.30179 0.41419 0.0
H1418 H 0.24304 0.30177 0.44681 0.0
H1419 H 0.23365 0.31903 0.47359 0.0
H1420 H 0.26346 0.38087 0.47304 0.0
H1421 H 0.28435 0.38128 0.44215 0.0
C1422 C 0.28175 0.3503 0.42069 0.0
C1423 C 0.27847 0.33284 0.411 0.0
C1424 C 0.2708 0.35032 0.43957 0.0
C1425 C 0.26465 0.31548 0.42106 0.0
C1426 C 0.25383 0.31541 0.43978 0.0
C1427 C 0.24478 0.3326 0.46676 0.0
C1428 C 0.24688 0.34987 0.47542 0.0
C1429 C 0.25653 0.3327 0.4489 0.0
C1430 C 0.2616 0.36737 0.46672 0.0
C1431 C 0.27345 0.3676 0.44895 0.0
H1432 H 0.63689 0.91648 0.40538 0.0
H1433 H 0.68898 0.96336 0.433 0.0
H1434 H 0.68602 0.94428 0.46691 0.0
H1435 H 0.66935 0.91391 0.48793 0.0
H1436 H 0.61932 0.8658 0.45786 0.0
H1437 H 0.62046 0.88589 0.42622 0.0
C1438 C 0.64746 0.92257 0.41896 0.0
C1439 C 0.66309 0.94132 0.41673 0.0
C1440 C 0.64601 0.9113 0.43806 0.0
C1441 C 0.67684 0.94894 0.4343 0.0
C1442 C 0.67516 0.93804 0.45368 0.0
C1443 C 0.65877 0.90766 0.47441 0.0
C1444 C 0.64424 0.88821 0.4756 0.0
C1445 C 0.65995 0.91909 0.45559 0.0
C1446 C 0.63046 0.88073 0.45795 0.0
C1447 C 0.6312 0.89218 0.43958 0.0
H1448 H 0.05517 0.73357 0.42752 0.0
H1449 H 0.08926 0.70719 0.41157 0.0
H1450 H 0.11042 0.72395 0.44397 0.0
H1451 H 0.12067 0.74824 0.47502 0.0
H1452 H 0.08685 0.77513 0.4893 0.0
H1453 H 0.06408 0.75594 0.45941 0.0
C1454 C 0.06714 0.73132 0.43114 0.0
C1455 C 0.07069 0.71925 0.41694 0.0
C1456 C 0.07935 0.74118 0.4495 0.0
C1457 C 0.0862 0.71645 0.42213 0.0
C1458 C 0.09834 0.72607 0.44064 0.0
C1459 C 0.10812 0.7496 0.47178 0.0
C1460 C 0.10545 0.76312 0.48422 0.0
C1461 C 0.09526 0.73876 0.45419 0.0
C1462 C 0.08925 0.76493 0.47979 0.0
C1463 C 0.07625 0.75398 0.46271 0.0
H1464 H 0.30364 0.04304 0.75653 0.0
H1465 H 0.36431 0.08141 0.74611 0.0
H1466 H 0.36502 0.10097 0.77835 0.0
H1467 H 0.34829 0.10833 0.80819 0.0
H1468 H 0.28781 0.06998 0.81949 0.0
H1469 H 0.28719 0.04946 0.78817 0.0
C1470 C 0.31704 0.05561 0.76139 0.0
C1471 C 0.33385 0.06074 0.74873 0.0
C1472 C 0.3174 0.06694 0.78005 0.0
C1473 C 0.3511 0.07708 0.7554 0.0
C1474 C 0.35155 0.08834 0.77387 0.0
C1475 C 0.33502 0.0953 0.80415 0.0
C1476 C 0.31812 0.0908 0.81621 0.0
C1477 C 0.33477 0.08353 0.78616 0.0
C1478 C 0.301 0.07399 0.81033 0.0
C1479 C 0.30064 0.06218 0.79245 0.0
H1480 H 0.94946 0.24684 0.73333 0.0
H1481 H 0.95204 0.29667 0.76477 0.0
H1482 H 0.93611 0.27798 0.79898 0.0
H1483 H 0.92017 0.24721 0.81922 0.0
H1484 H 0.91423 0.19652 0.78567 0.0
H1485 H 0.93315 0.21588 0.75354 0.0
C1486 C 0.94674 0.25363 0.74781 0.0
C1487 C 0.95198 0.2731 0.74657 0.0
C1488 C 0.93696 0.24263 0.76713 0.0
C1489 C 0.9481 0.28167 0.7653 0.0
C1490 C 0.93898 0.27099 0.78486 0.0
C1491 C 0.92279 0.24027 0.80485 0.0
C1492 C 0.91566 0.22029 0.80519 0.0
C1493 C 0.93305 0.25137 0.78582 0.0
C1494 C 0.91976 0.21184 0.78641 0.0
C1495 C 0.93046 0.2229 0.76777 0.0
H1496 H 0.7274 0.6545 0.75336 0.0
H1497 H 0.74984 0.71518 0.74327 0.0
H1498 H 0.77089 0.72219 0.77654 0.0
H1499 H 0.78337 0.71089 0.80804 0.0
H1500 H 0.76168 0.64999 0.81554 0.0
H1501 H 0.73966 0.64338 0.78406 0.0
C1502 C 0.73679 0.66931 0.75842 0.0
C1503 C 0.73699 0.68428 0.74577 0.0
C1504 C 0.74896 0.67322 0.77726 0.0
C1505 C 0.74938 0.70335 0.75265 0.0
C1506 C 0.76143 0.70737 0.77168 0.0
C1507 C 0.77388 0.69618 0.80276 0.0
C1508 C 0.77413 0.681 0.81455 0.0
C1509 C 0.76145 0.69239 0.78403 0.0
C1510 C 0.76156 0.66201 0.80741 0.0
C1511 C 0.74904 0.65817 0.78915 0.0
H1512 H 0.72483 0.67617 0.60921 0.0
H1513 H 0.72181 0.62877 0.64708 0.0
H1514 H 0.73832 0.62238 0.61599 0.0
H1515 H 0.7559 0.63202 0.57966 0.0
H1516 H 0.7563 0.67763 0.54014 0.0
H1517 H 0.73874 0.68307 0.57046 0.0
C1518 C 0.72765 0.66434 0.61053 0.0
C1519 C 0.72232 0.65309 0.63047 0.0
C1520 C 0.73687 0.66057 0.59246 0.0
C1521 C 0.72578 0.63762 0.63187 0.0
C1522 C 0.73529 0.63402 0.61415 0.0
C1523 C 0.75179 0.64285 0.57727 0.0
C1524 C 0.7579 0.65463 0.55765 0.0
C1525 C 0.74119 0.64562 0.59453 0.0
C1526 C 0.75245 0.66871 0.55528 0.0
C1527 C 0.74223 0.67177 0.57256 0.0
H1528 H 0.3674 0.0757 0.62548 0.0
H1529 H 0.30542 0.04376 0.62495 0.0
H1530 H 0.30499 0.06156 0.59151 0.0
H1531 H 0.32195 0.08755 0.564 0.0
H1532 H 0.3838 0.12069 0.56523 0.0
H1533 H 0.38453 0.10077 0.59634 0.0
C1534 C 0.35381 0.07249 0.6179 0.0
C1535 C 0.33647 0.05851 0.6279 0.0
C1536 C 0.35362 0.083 0.59875 0.0
C1537 C 0.31899 0.05456 0.6178 0.0
C1538 C 0.31871 0.06472 0.59863 0.0
C1539 C 0.3356 0.09043 0.57106 0.0
C1540 C 0.35277 0.10572 0.56241 0.0
C1541 C 0.3359 0.07922 0.58926 0.0
C1542 C 0.37036 0.10894 0.57142 0.0
C1543 C 0.37078 0.09765 0.58937 0.0
H1544 H 0.95321 0.26774 0.61614 0.0
H1545 H 0.9225 0.29735 0.63359 0.0
H1546 H 0.90072 0.28199 0.60132 0.0
H1547 H 0.88891 0.25814 0.56987 0.0
H1548 H 0.91968 0.22848 0.5532 0.0
H1549 H 0.94295 0.24592 0.58338 0.0
C1550 C 0.94184 0.27097 0.61286 0.0
C1551 C 0.93941 0.28356 0.62747 0.0
C1552 C 0.92931 0.26199 0.59442 0.0
C1553 C 0.92469 0.28767 0.62272 0.0
C1554 C 0.91219 0.27885 0.60427 0.0
C1555 C 0.90092 0.25578 0.5726 0.0
C1556 C 0.90248 0.24191 0.55944 0.0
C1557 C 0.91416 0.26573 0.59023 0.0
C1558 C 0.91803 0.23889 0.5633 0.0
C1559 C 0.93134 0.24886 0.58054 0.0
H1560 H 0.3157 0.26875 0.61729 0.0
H1561 H 0.37665 0.30063 0.63037 0.0
H1562 H 0.38229 0.2846 0.59812 0.0
H1563 H 0.36959 0.25954 0.56817 0.0
H1564 H 0.30859 0.22768 0.55562 0.0
H1565 H 0.30333 0.24572 0.58567 0.0
C1566 C 0.33026 0.27234 0.61302 0.0
C1567 C 0.3457 0.28576 0.62643 0.0
C1568 C 0.33338 0.26297 0.5946 0.0
C1569 C 0.36447 0.29032 0.62044 0.0
C1570 C 0.36771 0.28112 0.60201 0.0
C1571 C 0.3552 0.25681 0.57173 0.0
C1572 C 0.33949 0.24214 0.55982 0.0
C1573 C 0.35224 0.26715 0.58923 0.0
C1574 C 0.3209 0.23868 0.56478 0.0
C1575 C 0.31787 0.24901 0.58193 0.0
H1576 H 0.70902 0.077 0.62468 0.0
H1577 H 0.73497 0.0413 0.61864 0.0
H1578 H 0.75324 0.05955 0.58553 0.0
H1579 H 0.76363 0.0869 0.55983 0.0
H1580 H 0.7386 0.1233 0.56574 0.0
H1581 H 0.71794 0.10332 0.59693 0.0
C1582 C 0.71853 0.07311 0.61599 0.0
C1583 C 0.72073 0.05791 0.62439 0.0
C1584 C 0.72919 0.0838 0.59689 0.0
C1585 C 0.73307 0.05302 0.61278 0.0
C1586 C 0.74356 0.06345 0.59378 0.0
C1587 C 0.75358 0.09041 0.5679 0.0
C1588 C 0.75278 0.10664 0.56066 0.0
C1589 C 0.74202 0.07907 0.58597 0.0
C1590 C 0.73944 0.11081 0.57094 0.0
C1591 C 0.72773 0.09948 0.5889 0.0
H1592 H 0.91727 0.63578 0.63895 0.0
H1593 H 0.96713 0.68432 0.60982 0.0
H1594 H 0.94897 0.6821 0.57533 0.0
H1595 H 0.91865 0.66746 0.5543 0.0
H1596 H 0.8677 0.62136 0.58543 0.0
H1597 H 0.88664 0.62118 0.61776 0.0
C1598 C 0.92417 0.64569 0.6249 0.0
C1599 C 0.9435 0.66015 0.62687 0.0
C1600 C 0.91344 0.64477 0.60541 0.0
C1601 C 0.95223 0.6731 0.60871 0.0
C1602 C 0.94186 0.67184 0.58899 0.0
C1603 C 0.91155 0.65746 0.56819 0.0
C1604 C 0.89163 0.64449 0.56717 0.0
C1605 C 0.92237 0.65795 0.58732 0.0
C1606 C 0.88299 0.63134 0.58528 0.0
C1607 C 0.8938 0.63133 0.60402 0.0
H1608 H 0.94996 0.70176 0.73622 0.0
H1609 H 0.95213 0.65353 0.76498 0.0
H1610 H 0.93604 0.65542 0.79961 0.0
H1611 H 0.92001 0.66969 0.8209 0.0
H1612 H 0.91438 0.71549 0.79018 0.0
H1613 H 0.93358 0.71598 0.75766 0.0
C1614 C 0.9471 0.69185 0.75022 0.0
C1615 C 0.95225 0.67757 0.7481 0.0
C1616 C 0.93722 0.69258 0.7698 0.0
C1617 C 0.94823 0.66461 0.7662 0.0
C1618 C 0.93904 0.66568 0.78601 0.0
C1619 C 0.92275 0.67969 0.80706 0.0
C1620 C 0.91559 0.6925 0.80826 0.0
C1621 C 0.93315 0.67938 0.78783 0.0
C1622 C 0.91988 0.70564 0.7902 0.0
C1623 C 0.93074 0.70583 0.77135 0.0
H1624 H 0.35374 0.28129 0.74958 0.0
H1625 H 0.29285 0.2603 0.7449 0.0
H1626 H 0.28718 0.23924 0.77766 0.0
H1627 H 0.29949 0.22624 0.80716 0.0
H1628 H 0.36035 0.24664 0.81045 0.0
H1629 H 0.36599 0.26866 0.77903 0.0
C1630 C 0.33921 0.27218 0.75573 0.0
C1631 C 0.32376 0.27239 0.74469 0.0
C1632 C 0.33602 0.26002 0.77445 0.0
C1633 C 0.30504 0.26045 0.753 0.0
C1634 C 0.30177 0.24837 0.77175 0.0
C1635 C 0.31398 0.23544 0.80095 0.0
C1636 C 0.32945 0.23477 0.81134 0.0
C1637 C 0.31715 0.24793 0.7825 0.0
C1638 C 0.34816 0.24703 0.80318 0.0
C1639 C 0.35142 0.25955 0.78502 0.0
H1640 H 0.72313 0.07298 0.74836 0.0
H1641 H 0.73921 0.02919 0.74458 0.0
H1642 H 0.76097 0.0438 0.77697 0.0
H1643 H 0.77635 0.06974 0.80549 0.0
H1644 H 0.7608 0.11396 0.80815 0.0
H1645 H 0.73771 0.09823 0.77738 0.0
C1646 C 0.73129 0.06653 0.75466 0.0
C1647 C 0.72957 0.05005 0.74391 0.0
C1648 C 0.74388 0.07507 0.77317 0.0
C1649 C 0.74026 0.0419 0.75243 0.0
C1650 C 0.75274 0.05026 0.77096 0.0
C1651 C 0.76794 0.07596 0.79931 0.0
C1652 C 0.77035 0.09303 0.80921 0.0
C1653 C 0.75484 0.06699 0.78129 0.0
C1654 C 0.75909 0.1007 0.80116 0.0
C1655 C 0.74597 0.0918 0.7834 0.0
H1656 H 0.03604 0.32823 0.04419 0.0
H1657 H 0.0804 0.38758 0.03788 0.0
H1658 H 0.10301 0.38074 0.05744 0.0
H1659 H 0.10968 0.35865 0.07862 0.0
H1660 H 0.06605 0.299 0.08443 0.0
H1661 H 0.04361 0.30535 0.06325 0.0
C1662 C 0.05073 0.3396 0.04682 0.0
C1663 C 0.05645 0.35842 0.03963 0.0
C1664 C 0.06373 0.33561 0.05833 0.0
C1665 C 0.07554 0.37298 0.04326 0.0
C1666 C 0.0885 0.36911 0.05454 0.0
C1667 C 0.09541 0.34688 0.0749 0.0
C1668 C 0.08966 0.32836 0.08323 0.0
C1669 C 0.08268 0.35056 0.06247 0.0
C1670 C 0.07087 0.31348 0.07861 0.0
C1671 C 0.05804 0.31707 0.06632 0.0
H1672 H 0.6199 0.69137 0.05098 0.0
H1673 H 0.67829 0.7059 0.03662 0.0
H1674 H 0.68998 0.73763 0.05374 0.0
H1675 H 0.6836 0.76078 0.07428 0.0
H1676 H 0.62506 0.74512 0.09008 0.0
H1677 H 0.61352 0.71448 0.07068 0.0
C1678 C 0.63518 0.70153 0.05135 0.0
C1679 C 0.64818 0.69623 0.0425 0.0
C1680 C 0.64181 0.71959 0.06157 0.0
C1681 C 0.66795 0.70958 0.04328 0.0
C1682 C 0.67465 0.72772 0.05315 0.0
C1683 C 0.66832 0.75064 0.07357 0.0
C1684 C 0.65526 0.7554 0.08361 0.0
C1685 C 0.66172 0.73279 0.06265 0.0
C1686 C 0.63548 0.7421 0.0822 0.0
C1687 C 0.62883 0.72446 0.07123 0.0
H1688 H 0.31171 0.93034 0.06039 0.0
H1689 H 0.29815 0.97482 0.04556 0.0
H1690 H 0.26773 0.95692 0.06625 0.0
H1691 H 0.2457 0.92925 0.09019 0.0
H1692 H 0.26009 0.8854 0.10533 0.0
H1693 H 0.28957 0.90257 0.0831 0.0
C1694 C 0.30204 0.93608 0.06145 0.0
C1695 C 0.30721 0.9539 0.0514 0.0
C1696 C 0.28481 0.92592 0.0737 0.0
C1697 C 0.29453 0.96112 0.05311 0.0
C1698 C 0.27716 0.95092 0.06501 0.0
C1699 C 0.25523 0.92341 0.08846 0.0
C1700 C 0.25077 0.90615 0.09961 0.0
C1701 C 0.27226 0.93341 0.07563 0.0
C1702 C 0.26334 0.89883 0.09731 0.0
C1703 C 0.28014 0.90857 0.08446 0.0
H1704 H 0.38398 0.07609 0.98838 0.0
H1705 H 0.32603 0.03403 1.00709 0.0
H1706 H 0.31399 0.05307 0.98806 0.0
H1707 H 0.32003 0.08153 0.9653 0.0
H1708 H 0.37816 0.12237 0.94544 0.0
H1709 H 0.38996 0.10397 0.96581 0.0
C1710 C 0.36871 0.07112 0.98852 0.0
C1711 C 0.35595 0.05369 0.99926 0.0
C1712 C 0.3619 0.08192 0.97723 0.0
C1713 C 0.33619 0.04743 0.99902 0.0
C1714 C 0.32929 0.05829 0.98807 0.0
C1715 C 0.33526 0.08632 0.96531 0.0
C1716 C 0.34818 0.10346 0.95399 0.0
C1717 C 0.34201 0.07549 0.97691 0.0
C1718 C 0.36789 0.10949 0.95436 0.0
C1719 C 0.37468 0.09891 0.96591 0.0
H1720 H 0.96554 0.29022 0.99205 0.0
H1721 H 0.92133 0.30583 0.99461 0.0
H1722 H 0.89954 0.27677 0.97384 0.0
H1723 H 0.89357 0.24811 0.95292 0.0
H1724 H 0.93666 0.23098 0.95165 0.0
H1725 H 0.95846 0.25972 0.97334 0.0
C1726 C 0.95106 0.28713 0.98832 0.0
C1727 C 0.94516 0.30028 0.99484 0.0
C1728 C 0.93848 0.27029 0.97622 0.0
C1729 C 0.92633 0.29603 0.98981 0.0
C1730 C 0.91383 0.27942 0.97782 0.0
C1731 C 0.90755 0.25033 0.95773 0.0
C1732 C 0.91334 0.23726 0.95051 0.0
C1733 C 0.91984 0.26661 0.97065 0.0
C1734 C 0.93182 0.24088 0.95653 0.0
C1735 C 0.94428 0.25725 0.96915 0.0
H1736 H 0.71035 0.63353 0.01408 0.0
H1737 H 0.6986 0.67368 0.97904 0.0
H1738 H 0.72831 0.68553 0.95699 0.0
H1739 H 0.75597 0.68225 0.94529 0.0
H1740 H 0.76917 0.64417 0.98328 0.0
H1741 H 0.74041 0.63358 1.0062 0.0
C1742 C 0.71446 0.64507 1.00183 0.0
C1743 C 0.70227 0.65261 0.99802 0.0
C1744 C 0.73164 0.65194 0.98943 0.0
C1745 C 0.70781 0.66769 0.98232 0.0
C1746 C 0.72473 0.67436 0.96959 0.0
C1747 C 0.7529 0.67195 0.95886 0.0
C1748 C 0.76465 0.66368 0.96189 0.0
C1749 C 0.73656 0.6663 0.97266 0.0
C1750 C 0.76013 0.65029 0.9797 0.0
C1751 C 0.74373 0.64433 0.9931 0.0
H1752 H 0.93515 0.62255 0.98308 0.0
H1753 H 0.97536 0.68084 1.00281 0.0
H1754 H 0.95595 0.69205 0.98297 0.0
H1755 H 0.92775 0.68521 0.95928 0.0
H1756 H 0.88892 0.62687 0.93805 0.0
H1757 H 0.90758 0.61581 0.95929 0.0
C1758 C 0.9396 0.6377 0.98329 0.0
C1759 C 0.95661 0.65082 0.99456 0.0
C1760 C 0.92865 0.64406 0.97144 0.0
C1761 C 0.96228 0.67043 0.99435 0.0
C1762 C 0.95122 0.67685 0.98293 0.0
C1763 C 0.92348 0.67011 0.95912 0.0
C1764 C 0.90683 0.6569 0.94718 0.0
C1765 C 0.93446 0.6638 0.9712 0.0
C1766 C 0.90143 0.63734 0.9474 0.0
C1767 C 0.91215 0.63098 0.95947 0.0
H1768 H 0.33348 0.2982 0.99551 0.0
H1769 H 0.39433 0.31827 0.99439 0.0
H1770 H 0.38848 0.28912 0.97474 0.0
H1771 H 0.3665 0.25884 0.95602 0.0
H1772 H 0.30548 0.2377 0.95805 0.0
H1773 H 0.31108 0.26652 0.97869 0.0
C1774 C 0.34544 0.29609 0.99117 0.0
C1775 C 0.36432 0.31049 0.99639 0.0
C1776 C 0.342 0.27922 0.97972 0.0
C1777 C 0.37964 0.3075 0.9906 0.0
C1778 C 0.37633 0.29083 0.97927 0.0
C1779 C 0.35433 0.26027 0.96131 0.0
C1780 C 0.33558 0.24602 0.95535 0.0
C1781 C 0.35761 0.27671 0.97349 0.0
C1782 C 0.32011 0.24852 0.96198 0.0
C1783 C 0.32328 0.26495 0.97398 0.0
H1784 H 0.71078 0.03776 0.99315 0.0
H1785 H 0.69458 0.08155 0.99366 0.0
H1786 H 0.72412 0.1035 0.97378 0.0
H1787 H 0.75348 0.10974 0.95419 0.0
H1788 H 0.77068 0.06671 0.95429 0.0
H1789 H 0.74166 0.04494 0.97552 0.0
C1790 C 0.71383 0.05218 0.98916 0.0
C1791 C 0.7004 0.05793 0.99486 0.0
C1792 C 0.73089 0.06481 0.9775 0.0
C1793 C 0.70459 0.07667 0.98947 0.0
C1794 C 0.72148 0.08926 0.97801 0.0
C1795 C 0.75115 0.09575 0.95918 0.0
C1796 C 0.76434 0.08995 0.95251 0.0
C1797 C 0.73459 0.0834 0.97165 0.0
C1798 C 0.76069 0.07153 0.95879 0.0
C1799 C 0.74414 0.05909 0.97112 0.0
H1800 H 0.67086 0.96426 0.05031 0.0
H1801 H 0.61062 0.92201 0.04574 0.0
H1802 H 0.61629 0.8988 0.06581 0.0
H1803 H 0.63795 0.89078 0.08617 0.0
H1804 H 0.69815 0.93267 0.09123 0.0
H1805 H 0.69294 0.95563 0.06936 0.0
C1806 C 0.65902 0.94991 0.05349 0.0
C1807 C 0.64033 0.94496 0.04658 0.0
C1808 C 0.66234 0.93658 0.06528 0.0
C1809 C 0.62515 0.92629 0.0509 0.0
C1810 C 0.62835 0.91297 0.06245 0.0
C1811 C 0.64991 0.90497 0.08257 0.0
C1812 C 0.66836 0.91008 0.0905 0.0
C1813 C 0.64681 0.91805 0.07003 0.0
C1814 C 0.6838 0.92837 0.08527 0.0
C1815 C 0.68082 0.94152 0.07283 0.0
H1816 H 0.08226 0.70158 0.04711 0.0
H1817 H 0.03676 0.71445 0.03647 0.0
H1818 H 0.05528 0.74492 0.05696 0.0
H1819 H 0.08396 0.76725 0.07934 0.0
H1820 H 0.12822 0.75275 0.09148 0.0
H1821 H 0.11066 0.72369 0.06879 0.0
C1822 C 0.07643 0.71112 0.049 0.0
C1823 C 0.05816 0.70574 0.04021 0.0
C1824 C 0.08693 0.72832 0.0612 0.0
C1825 C 0.05081 0.71825 0.04302 0.0
C1826 C 0.06137 0.73564 0.05482 0.0
C1827 C 0.08971 0.75768 0.07713 0.0
C1828 C 0.10749 0.76233 0.08706 0.0
C1829 C 0.07934 0.74069 0.0643 0.0
C1830 C 0.11479 0.74981 0.08374 0.0
C1831 C 0.10469 0.73308 0.07086 0.0
H1832 H 0.29271 0.33214 0.04889 0.0
H1833 H 0.30627 0.39096 0.04064 0.0
H1834 H 0.27661 0.38388 0.06002 0.0
H1835 H 0.24794 0.36169 0.08164 0.0
H1836 H 0.23414 0.30297 0.09063 0.0
H1837 H 0.26262 0.30922 0.06849 0.0
C1838 C 0.28902 0.34332 0.05103 0.0
C1839 C 0.30178 0.36208 0.04345 0.0
C1840 C 0.27197 0.33921 0.06251 0.0
C1841 C 0.29679 0.37642 0.04641 0.0
C1842 C 0.27983 0.37241 0.05756 0.0
C1843 C 0.25119 0.35027 0.07876 0.0
C1844 C 0.23912 0.33198 0.08798 0.0
C1845 C 0.26755 0.35399 0.06613 0.0
C1846 C 0.24324 0.31718 0.08369 0.0
C1847 C 0.25954 0.32077 0.07111 0.0
H1848 H 0.74375 0.71591 0.38577 0.0
H1849 H 0.70124 0.65762 0.36894 0.0
H1850 H 0.72052 0.64592 0.38808 0.0
H1851 H 0.74915 0.65233 0.41058 0.0
H1852 H 0.79037 0.71077 0.42893 0.0
H1853 H 0.77197 0.72227 0.408 0.0
C1854 C 0.73874 0.70063 0.38606 0.0
C1855 C 0.7211 0.68767 0.37585 0.0
C1856 C 0.74967 0.69402 0.39744 0.0
C1857 C 0.71479 0.66792 0.37662 0.0
C1858 C 0.72578 0.66122 0.38762 0.0
C1859 C 0.75404 0.66756 0.41014 0.0
C1860 C 0.77126 0.68063 0.42125 0.0
C1861 C 0.74317 0.67414 0.39833 0.0
C1862 C 0.77743 0.70036 0.42022 0.0
C1863 C 0.76683 0.70698 0.40836 0.0
H1864 H 0.34517 0.04588 0.3818 0.0
H1865 H 0.28712 0.03365 0.36999 0.0
H1866 H 0.29428 0.06363 0.38864 0.0
H1867 H 0.31604 0.09188 0.41129 0.0
H1868 H 0.37402 0.10444 0.42363 0.0
H1869 H 0.36798 0.07594 0.40162 0.0
C1870 C 0.33419 0.04994 0.38296 0.0
C1871 C 0.31558 0.0374 0.37467 0.0
C1872 C 0.33834 0.06718 0.39401 0.0
C1873 C 0.30153 0.04292 0.37632 0.0
C1874 C 0.30558 0.06005 0.38707 0.0
C1875 C 0.32737 0.0884 0.40905 0.0
C1876 C 0.34536 0.10006 0.41928 0.0
C1877 C 0.32376 0.07202 0.3965 0.0
C1878 C 0.36004 0.09565 0.4159 0.0
C1879 C 0.35656 0.07932 0.40342 0.0
H1880 H 0.95671 0.30004 0.38173 0.0
H1881 H 0.96884 0.25427 0.36834 0.0
H1882 H 0.93915 0.23145 0.38732 0.0
H1883 H 0.91097 0.22479 0.41018 0.0
H1884 H 0.89858 0.27016 0.42438 0.0
H1885 H 0.92695 0.29274 0.40244 0.0
C1886 C 0.9527 0.28502 0.38267 0.0
C1887 C 0.96509 0.27894 0.37376 0.0
C1888 C 0.93562 0.27191 0.39392 0.0
C1889 C 0.95967 0.25941 0.37516 0.0
C1890 C 0.94269 0.24632 0.38607 0.0
C1891 C 0.91448 0.23963 0.40844 0.0
C1892 C 0.90286 0.24587 0.4191 0.0
C1893 C 0.9308 0.25248 0.39596 0.0
C1894 C 0.90732 0.26502 0.41631 0.0
C1895 C 0.92358 0.27794 0.40385 0.0
H1896 H 0.04896 0.41101 0.32796 0.0
H1897 H 0.99032 0.36473 0.33197 0.0
H1898 H 0.97956 0.38427 0.31165 0.0
H1899 H 0.98721 0.41369 0.29009 0.0
H1900 H 0.04609 0.4594 0.28573 0.0
H1901 H 0.05633 0.44083 0.30868 0.0
C1902 C 0.03378 0.40523 0.32466 0.0
C1903 C 0.02049 0.38639 0.33141 0.0
C1904 C 0.02775 0.41638 0.31262 0.0
C1905 C 1.00088 0.37919 0.32696 0.0
C1906 C 0.99472 0.39033 0.31525 0.0
C1907 C 1.00224 0.41966 0.29443 0.0
C1908 C 0.01589 0.43782 0.28595 0.0
C1909 C 0.00808 0.40882 0.30759 0.0
C1910 C 0.03533 0.44532 0.29164 0.0
C1911 C 0.0412 0.43475 0.30487 0.0
H1912 H 0.6315 0.62855 0.32491 0.0
H1913 H 0.58906 0.64643 0.32905 0.0
H1914 H 0.5656 0.61689 0.31024 0.0
H1915 H 0.5575 0.58676 0.29077 0.0
H1916 H 0.59971 0.56872 0.28596 0.0
H1917 H 0.62278 0.59738 0.30702 0.0
C1918 C 0.61705 0.62587 0.32195 0.0
C1919 C 0.61211 0.63977 0.32831 0.0
C1920 C 0.6036 0.60886 0.31085 0.0
C1921 C 0.59331 0.63605 0.32428 0.0
C1922 C 0.57986 0.61916 0.31346 0.0
C1923 C 0.57177 0.58914 0.29427 0.0
C1924 C 0.57694 0.57573 0.28663 0.0
C1925 C 0.58494 0.60564 0.3063 0.0
C1926 C 0.59536 0.5788 0.29173 0.0
C1927 C 0.60857 0.59522 0.30369 0.0
H1928 H 0.37759 0.96994 0.3539 0.0
H1929 H 0.36716 0.0105 0.31764 0.0
H1930 H 0.39588 0.02019 0.29436 0.0
H1931 H 0.42208 0.0148 0.28193 0.0
H1932 H 0.43406 0.97626 0.32081 0.0
H1933 H 0.40641 0.96791 0.34502 0.0
C1934 C 0.38178 0.98112 0.34114 0.0
C1935 C 0.3702 0.98938 0.33738 0.0
C1936 C 0.39838 0.98671 0.32793 0.0
C1937 C 0.37589 0.00397 0.32093 0.0
C1938 C 0.39223 0.0094 0.30748 0.0
C1939 C 0.419 0.00489 0.29596 0.0
C1940 C 0.43005 0.99584 0.2989 0.0
C1941 C 0.40335 1.00055 0.31048 0.0
C1942 C 0.42552 0.98295 0.3173 0.0
C1943 C 0.40977 0.97828 0.33145 0.0
H1944 H 0.63769 0.99926 0.31075 0.0
H1945 H 0.59454 0.95988 0.35751 0.0
H1946 H 0.57114 0.96772 0.34153 0.0
H1947 H 0.56254 0.98429 0.31292 0.0
H1948 H 0.60453 0.02014 0.26244 0.0
H1949 H 0.62882 0.0156 0.28157 0.0
C1950 C 0.62324 0.99269 0.31765 0.0
C1951 C 0.61782 0.9792 0.33541 0.0
C1952 C 0.60963 0.99659 0.30764 0.0
C1953 C 0.59899 0.97039 0.3439 0.0
C1954 C 0.58562 0.97482 0.33472 0.0
C1955 C 0.5769 0.99096 0.30581 0.0
C1956 C 0.58147 0.00253 0.28608 0.0
C1957 C 0.59068 0.98759 0.31626 0.0
C1958 C 0.60046 0.01143 0.27776 0.0
C1959 C 0.61441 0.0087 0.28858 0.0
H1960 H 0.0547 0.64149 0.32275 0.0
H1961 H 0.99693 0.62985 0.33524 0.0
H1962 H 0.98415 0.59918 0.31496 0.0
H1963 H 0.98958 0.57665 0.29136 0.0
H1964 H 0.04762 0.5892 0.27867 0.0
H1965 H 0.06006 0.61855 0.30123 0.0
C1966 C 0.03929 0.63219 0.32127 0.0
C1967 C 0.02681 0.63803 0.33045 0.0
C1968 C 0.03208 0.6148 0.30931 0.0
C1969 C 0.00688 0.62574 0.32834 0.0
C1970 C 0.99956 0.60822 0.31667 0.0
C1971 C 0.00493 0.58573 0.29378 0.0
C1972 C 0.01766 0.58086 0.28309 0.0
C1973 C 0.01204 0.60274 0.30673 0.0
C1974 C 0.03752 0.5928 0.28631 0.0
C1975 C 0.04466 0.60954 0.29932 0.0
H1976 H 0.35976 0.4039 0.32175 0.0
H1977 H 0.37364 0.35941 0.33483 0.0
H1978 H 0.40522 0.37904 0.31717 0.0
H1979 H 0.42855 0.40859 0.29693 0.0
H1980 H 0.41335 0.45202 0.28247 0.0
H1981 H 0.38278 0.43312 0.30192 0.0
C1982 C 0.36973 0.39852 0.32097 0.0
C1983 C 0.36432 0.38021 0.32968 0.0
C1984 C 0.38767 0.40971 0.31045 0.0
C1985 C 0.37742 0.37347 0.32831 0.0
C1986 C 0.39547 0.38467 0.31814 0.0
C1987 C 0.41851 0.41387 0.29792 0.0
C1988 C 0.42342 0.43184 0.28833 0.0
C1989 C 0.40068 0.40274 0.30891 0.0
C1990 C 0.41023 0.43848 0.29003 0.0
C1991 C 0.39263 0.4276 0.30104 0.0
H1992 H 0.34111 0.29642 0.37885 0.0
H1993 H 0.28389 0.24941 0.36614 0.0
H1994 H 0.29155 0.2275 0.38601 0.0
H1995 H 0.3135 0.22205 0.4096 0.0
H1996 H 0.37058 0.2687 0.42313 0.0
H1997 H 0.36408 0.29031 0.40017 0.0
C1998 C 0.33043 0.28133 0.38011 0.0
C1999 C 0.3119 0.27463 0.37116 0.0
C2000 C 0.33485 0.26875 0.3919 0.0
C2001 C 0.29823 0.25501 0.37298 0.0
C2002 C 0.30257 0.24244 0.38441 0.0
C2003 C 0.32452 0.23695 0.40748 0.0
C2004 C 0.34239 0.24384 0.41827 0.0
C2005 C 0.32065 0.24924 0.39441 0.0
C2006 C 0.3567 0.26307 0.41498 0.0
C2007 C 0.35296 0.27543 0.40194 0.0
H2008 H 0.70535 0.04287 0.38097 0.0
H2009 H 0.751 0.02944 0.3763 0.0
H2010 H 0.77304 0.05976 0.39471 0.0
H2011 H 0.77892 0.089 0.41464 0.0
H2012 H 0.73367 0.10282 0.42004 0.0
H2013 H 0.71203 0.07365 0.39863 0.0
C2014 C 0.72018 0.04671 0.38369 0.0
C2015 C 0.72643 0.03377 0.3774 0.0
C2016 C 0.73285 0.0642 0.39457 0.0
C2017 C 0.74573 0.03901 0.38107 0.0
C2018 C 0.75837 0.05636 0.39166 0.0
C2019 C 0.76432 0.08564 0.41109 0.0
C2020 C 0.75783 0.09791 0.41915 0.0
C2021 C 0.75199 0.06885 0.39893 0.0
C2022 C 0.73901 0.0936 0.414 0.0
C2023 C 0.72661 0.07687 0.40185 0.0
H2024 H 0.98321 0.71538 0.39885 0.0
H2025 H 0.9652 0.65809 0.37471 0.0
H2026 H 0.93402 0.64627 0.39352 0.0
H2027 H 0.912 0.65234 0.41721 0.0
H2028 H 0.93127 0.70968 0.44234 0.0
H2029 H 0.96181 0.72132 0.42268 0.0
C2030 C 0.97244 0.70032 0.39751 0.0
C2031 C 0.9765 0.68767 0.38527 0.0
C2032 C 0.95477 0.69361 0.40864 0.0
C2033 C 0.96242 0.66816 0.38396 0.0
C2034 C 0.94461 0.66138 0.39477 0.0
C2035 C 0.92296 0.66734 0.41855 0.0
C2036 C 0.91923 0.68013 0.4311 0.0
C2037 C 0.94067 0.67397 0.4073 0.0
C2038 C 0.93356 0.69957 0.43247 0.0
C2039 C 0.95109 0.70624 0.42131 0.0
H2040 H 0.41077 0.04854 0.70865 0.0
H2041 H 0.36223 0.99104 0.71095 0.0
H2042 H 0.38167 0.98004 0.73109 0.0
H2043 H 0.41184 0.98748 0.75091 0.0
H2044 H 0.45962 0.04542 0.74942 0.0
H2045 H 0.44108 0.05552 0.72619 0.0
C2046 C 0.40445 0.03353 0.71326 0.0
C2047 C 0.38503 0.02067 0.70836 0.0
C2048 C 0.41555 0.02743 0.72526 0.0
C2049 C 0.37714 1.00127 0.71452 0.0
C2050 C 0.38823 0.99499 0.72613 0.0
C2051 C 0.41822 0.00224 0.74522 0.0
C2052 C 0.437 0.01573 0.75209 0.0
C2053 C 0.40735 0.00804 0.73203 0.0
C2054 C 0.44509 0.03484 0.74469 0.0
C2055 C 0.43452 0.04062 0.73133 0.0
H2056 H 0.00824 0.37653 0.71305 0.0
H2057 H 0.94814 0.35964 0.71089 0.0
H2058 H 0.95496 0.38934 0.72991 0.0
H2059 H 0.97746 0.41911 0.74943 0.0
H2060 H 0.03753 0.4364 0.75235 0.0
H2061 H 0.03132 0.40775 0.73056 0.0
C2062 C 0.99669 0.37948 0.71648 0.0
C2063 C 0.97768 0.36577 0.71068 0.0
C2064 C 1.00068 0.39662 0.7277 0.0
C2065 C 0.96289 0.36984 0.71526 0.0
C2066 C 0.96675 0.38683 0.7262 0.0
C2067 C 0.9892 0.41659 0.74529 0.0
C2068 C 0.00787 0.4297 0.75272 0.0
C2069 C 0.9855 0.40012 0.73291 0.0
C2070 C 0.02302 0.4265 0.7468 0.0
C2071 C 0.01945 0.41009 0.73444 0.0
H2072 H 0.63094 0.63118 0.71519 0.0
H2073 H 0.65223 0.59173 0.72386 0.0
H2074 H 0.62288 0.56932 0.74366 0.0
H2075 H 0.59188 0.56134 0.75992 0.0
H2076 H 0.56948 0.59975 0.75057 0.0
H2077 H 0.59872 0.62228 0.73015 0.0
C2078 C 0.62907 0.61761 0.72124 0.0
C2079 C 0.64383 0.61321 0.71804 0.0
C2080 C 0.61207 0.60468 0.73278 0.0
C2081 C 0.64117 0.59556 0.72606 0.0
C2082 C 0.62438 0.5827 0.73747 0.0
C2083 C 0.59317 0.57447 0.75311 0.0
C2084 C 0.57839 0.57874 0.7568 0.0
C2085 C 0.60983 0.58718 0.7411 0.0
C2086 C 0.58067 0.59614 0.74829 0.0
C2087 C 0.59735 0.60898 0.73644 0.0
H2088 H 0.66685 0.70466 0.66113 0.0
H2089 H 0.72685 0.7451 0.64944 0.0
H2090 H 0.71844 0.76634 0.62939 0.0
H2091 H 0.69431 0.773 0.61377 0.0
H2092 H 0.63421 0.73367 0.62632 0.0
H2093 H 0.64242 0.71229 0.6469 0.0
C2094 C 0.67807 0.71819 0.65436 0.0
C2095 C 0.69746 0.72321 0.6568 0.0
C2096 C 0.67314 0.73046 0.64272 0.0
C2097 C 0.71181 0.74081 0.64786 0.0
C2098 C 0.70703 0.75299 0.6363 0.0
C2099 C 0.68295 0.75994 0.62132 0.0
C2100 C 0.66365 0.75506 0.61846 0.0
C2101 C 0.68777 0.7479 0.63346 0.0
C2102 C 0.64918 0.73774 0.62792 0.0
C2103 C 0.65388 0.72555 0.63988 0.0
H2104 H 0.29977 0.96197 0.66754 0.0
H2105 H 0.25429 0.97512 0.67744 0.0
H2106 H 0.23174 0.94546 0.65812 0.0
H2107 H 0.22541 0.91712 0.63562 0.0
H2108 H 0.27042 0.90351 0.62547 0.0
H2109 H 0.2926 0.93185 0.6478 0.0
C2110 C 0.28486 0.95819 0.6658 0.0
C2111 C 0.27881 0.97088 0.67378 0.0
C2112 C 0.2719 0.9411 0.65442 0.0
C2113 C 0.25941 0.96571 0.67138 0.0
C2114 C 0.24647 0.94876 0.66024 0.0
C2115 C 0.24006 0.92035 0.63839 0.0
C2116 C 0.24636 0.90842 0.62871 0.0
C2117 C 0.25266 0.9366 0.6512 0.0
C2118 C 0.26526 0.91251 0.63277 0.0
C2119 C 0.27795 0.92875 0.64545 0.0
H2120 H 0.04307 0.33699 0.6591 0.0
H2121 H 0.02539 0.27668 0.65824 0.0
H2122 H 0.05485 0.28366 0.63844 0.0
H2123 H 0.08478 0.30651 0.61941 0.0
H2124 H 0.10281 0.3668 0.61967 0.0
H2125 H 0.07426 0.36026 0.64184 0.0
C2126 C 0.04578 0.32541 0.65482 0.0
C2127 C 0.03193 0.30632 0.66006 0.0
C2128 C 0.06278 0.3295 0.64319 0.0
C2129 C 0.0357 0.2915 0.65436 0.0
C2130 C 0.05256 0.29546 0.64297 0.0
C2131 C 0.08244 0.31822 0.62429 0.0
C2132 C 0.09578 0.33708 0.61769 0.0
C2133 C 0.06602 0.31434 0.63693 0.0
C2134 C 0.09277 0.35215 0.62458 0.0
C2135 C 0.07641 0.3484 0.63717 0.0
H2136 H 0.25953 0.28927 0.65577 0.0
H2137 H 0.30601 0.34727 0.66517 0.0
H2138 H 0.28751 0.35957 0.64546 0.0
H2139 H 0.25888 0.35361 0.62316 0.0
H2140 H 0.21296 0.29537 0.61351 0.0
H2141 H 0.23054 0.28344 0.63557 0.0
C2142 C 0.26558 0.30463 0.65375 0.0
C2143 C 0.28417 0.31731 0.66189 0.0
C2144 C 0.25502 0.31157 0.6421 0.0
C2145 C 0.29173 0.33717 0.65908 0.0
C2146 C 0.28119 0.34422 0.64773 0.0
C2147 C 0.25266 0.33834 0.62614 0.0
C2148 C 0.23473 0.32539 0.61644 0.0
C2149 C 0.26293 0.33152 0.6388 0.0
C2150 C 0.22689 0.30562 0.62038 0.0
C2151 C 0.23688 0.29879 0.6331 0.0
H2152 H 0.71114 0.97097 0.65099 0.0
H2153 H 0.65312 0.95614 0.66815 0.0
H2154 H 0.64095 0.92521 0.64859 0.0
H2155 H 0.64692 0.90276 0.62572 0.0
H2156 H 0.70514 0.91911 0.60709 0.0
H2157 H 0.71706 0.94901 0.62826 0.0
C2158 C 0.69582 0.96092 0.65069 0.0
C2159 C 0.68306 0.96583 0.66113 0.0
C2160 C 0.68895 0.94345 0.63904 0.0
C2161 C 0.66325 0.95269 0.66032 0.0
C2162 C 0.65629 0.93504 0.64906 0.0
C2163 C 0.6622 0.91294 0.62614 0.0
C2164 C 0.6751 0.90856 0.61492 0.0
C2165 C 0.66901 0.93035 0.63813 0.0
C2166 C 0.69488 0.92187 0.61589 0.0
C2167 C 0.70173 0.93906 0.6279 0.0
H2168 H 0.03334 0.74538 0.66187 0.0
H2169 H 0.04389 0.69794 0.66803 0.0
H2170 H 0.07514 0.71692 0.64944 0.0
H2171 H 0.09844 0.74627 0.62875 0.0
H2172 H 0.08714 0.79322 0.62246 0.0
H2173 H 0.05722 0.7751 0.64363 0.0
C2174 C 0.04253 0.73921 0.65941 0.0
C2175 C 0.0362 0.72021 0.66627 0.0
C2176 C 0.06031 0.75007 0.6484 0.0
C2177 C 0.04837 0.71253 0.66293 0.0
C2178 C 0.06623 0.72335 0.6522 0.0
C2179 C 0.08953 0.75261 0.63229 0.0
C2180 C 0.09492 0.77099 0.62373 0.0
C2181 C 0.0722 0.74203 0.64446 0.0
C2182 C 0.08316 0.77896 0.6284 0.0
C2183 C 0.06608 0.76865 0.64063 0.0
H2184 H 0.9571 0.59229 0.71156 0.0
H2185 H 0.01491 0.64016 0.70759 0.0
H2186 H 0.02696 0.62112 0.72648 0.0
H2187 H 0.02064 0.59164 0.747 0.0
H2188 H 0.96258 0.5442 0.75103 0.0
H2189 H 0.9511 0.56236 0.7294 0.0
C2190 C 0.97238 0.59854 0.71456 0.0
C2191 C 0.98505 0.61768 0.70826 0.0
C2192 C 0.97915 0.58764 0.72573 0.0
C2193 C 0.00481 0.62547 0.71225 0.0
C2194 C 0.01171 0.61461 0.72317 0.0
C2195 C 0.00553 0.5852 0.74285 0.0
C2196 C 0.99246 0.56667 0.75093 0.0
C2197 C 0.99896 0.59579 0.73041 0.0
C2198 C 0.9729 0.55857 0.74547 0.0
C2199 C 0.96632 0.56891 0.73298 0.0
H2200 H 0.4083 0.37308 0.69843 0.0
H2201 H 0.35691 0.36458 0.73219 0.0
H2202 H 0.37566 0.3943 0.75399 0.0
H2203 H 0.40703 0.42108 0.76565 0.0
H2204 H 0.45789 0.43133 0.72847 0.0
H2205 H 0.43899 0.40235 0.70623 0.0
C2206 C 0.4012 0.3779 0.71035 0.0
C2207 C 0.38132 0.36664 0.71387 0.0
C2208 C 0.41202 0.39511 0.72253 0.0
C2209 C 0.37222 0.37308 0.72915 0.0
C2210 C 0.38295 0.39 0.74172 0.0
C2211 C 0.41405 0.41735 0.75239 0.0
C2212 C 0.43413 0.42835 0.74943 0.0
C2213 C 0.40294 0.40095 0.73886 0.0
C2214 C 0.44268 0.4229 0.73205 0.0
C2215 C 0.43182 0.40637 0.719 0.0
H2216 H 0.64111 0.05042 0.71121 0.0
H2217 H 0.62932 0.99187 0.70848 0.0
H2218 H 0.59876 0.98115 0.72824 0.0
H2219 H 0.57653 0.98884 0.74894 0.0
H2220 H 0.58906 0.04763 0.75181 0.0
H2221 H 0.61819 0.05779 0.72947 0.0
C2222 C 0.63179 0.03527 0.7147 0.0
C2223 C 0.63758 0.022 0.70847 0.0
C2224 C 0.61443 0.02926 0.72634 0.0
C2225 C 0.62525 0.00241 0.71309 0.0
C2226 C 0.6078 0.99628 0.72448 0.0
C2227 C 0.58552 0.00382 0.74439 0.0
C2228 C 0.58075 0.01749 0.7523 0.0
C2229 C 0.6024 0.00962 0.73158 0.0
C2230 C 0.59259 0.03687 0.74634 0.0
C2231 C 0.60922 0.04269 0.73346 0.0
loop_
_geom_bond_atom_site_label_1
_geom_bond_atom_site_label_2
_geom_bond_distance
_geom_bond_site_symmetry_2
_ccdc_geom_bond_type
O0 Cd1 2.223 . S
O0 C8 1.315 . S
Cd1 O0 2.223 . S
Cd1 O4 2.297 . S
Cd1 O5 2.439 . S
Cd1 O11 2.240 1_554 S
Cd2 O3 2.240 . S
Cd2 O10 2.223 1_554 S
Cd2 O12 2.297 1_554 S
Cd2 O13 2.439 1_554 S
O3 Cd2 2.240 . S
O3 C8 1.279 1_655 S
O4 Cd1 2.297 . S
O4 C6 1.247 . S
O5 Cd1 2.439 . S
O5 C6 1.208 . S
C6 O4 1.247 . S
C6 O5 1.208 . S
C7 O12 1.247 . S
C7 O13 1.208 . S
C8 O0 1.315 . S
C8 O3 1.279 1_455 S
C9 O10 1.315 . S
C9 O11 1.279 1_655 S
O10 Cd2 2.223 1_556 S
O10 C9 1.315 . S
O11 Cd1 2.240 1_556 S
O11 C9 1.279 1_455 S
O12 Cd2 2.297 1_556 S
O12 C7 1.247 . S
O13 Cd2 2.439 1_556 S
O13 C7 1.208 . S
O14 Cd15 2.223 . S
O14 C22 1.315 . S
Cd15 O14 2.223 . S
Cd15 O18 2.297 . S
Cd15 O19 2.439 . S
Cd15 O25 2.240 1_554 S
Cd16 O17 2.240 . S
Cd16 O24 2.223 1_554 S
Cd16 O26 2.297 1_554 S
Cd16 O27 2.439 1_554 S
O17 Cd16 2.240 . S
O17 C22 1.279 . S
O18 Cd15 2.297 . S
O18 C20 1.247 . S
O19 Cd15 2.439 . S
O19 C20 1.208 . S
C20 O18 1.247 . S
C20 O19 1.208 . S
C21 O26 1.247 . S
C21 O27 1.208 . S
C22 O14 1.315 . S
C22 O17 1.279 . S
C23 O24 1.315 . S
C23 O25 1.279 . S
O24 Cd16 2.223 1_556 S
O24 C23 1.315 . S
O25 Cd15 2.240 1_556 S
O25 C23 1.279 . S
O26 Cd16 2.297 1_556 S
O26 C21 1.247 . S
O27 Cd16 2.439 1_556 S
O27 C21 1.208 . S
O28 Cd29 2.223 1_556 S
O28 C36 1.315 . S
Cd29 O28 2.223 1_554 S
Cd29 O32 2.297 1_554 S
Cd29 O33 2.439 1_554 S
Cd29 O39 2.240 . S
Cd30 O31 2.240 1_554 S
Cd30 O38 2.223 . S
Cd30 O40 2.297 . S
Cd30 O41 2.439 . S
O31 Cd30 2.240 1_556 S
O31 C36 1.279 1_565 S
O32 Cd29 2.297 1_556 S
O32 C34 1.247 . S
O33 Cd29 2.439 1_556 S
O33 C34 1.208 . S
C34 O32 1.247 . S
C34 O33 1.208 . S
C35 O40 1.247 . S
C35 O41 1.208 . S
C36 O28 1.315 . S
C36 O31 1.279 1_545 S
C37 O38 1.315 . S
C37 O39 1.279 1_565 S
O38 Cd30 2.223 . S
O38 C37 1.315 . S
O39 Cd29 2.240 . S
O39 C37 1.279 1_545 S
O40 Cd30 2.297 . S
O40 C35 1.247 . S
O41 Cd30 2.439 . S
O41 C35 1.208 . S
O42 Cd43 2.223 1_556 S
O42 C50 1.315 . S
Cd43 O42 2.223 1_554 S
Cd43 O46 2.297 1_554 S
Cd43 O47 2.439 1_554 S
Cd43 O53 2.240 . S
Cd44 O45 2.240 1_554 S
Cd44 O52 2.223 . S
Cd44 O54 2.297 . S
Cd44 O55 2.439 . S
O45 Cd44 2.240 1_556 S
O45 C50 1.279 1_455 S
O46 Cd43 2.297 1_556 S
O46 C48 1.247 . S
O47 Cd43 2.439 1_556 S
O47 C48 1.208 . S
C48 O46 1.247 . S
C48 O47 1.208 . S
C49 O54 1.247 . S
C49 O55 1.208 . S
C50 O42 1.315 . S
C50 O45 1.279 1_655 S
C51 O52 1.315 . S
C51 O53 1.279 1_455 S
O52 Cd44 2.223 . S
O52 C51 1.315 . S
O53 Cd43 2.240 . S
O53 C51 1.279 1_655 S
O54 Cd44 2.297 . S
O54 C49 1.247 . S
O55 Cd44 2.439 . S
O55 C49 1.208 . S
O56 Cd57 2.223 1_556 S
O56 C64 1.315 . S
Cd57 O56 2.223 1_554 S
Cd57 O60 2.297 1_554 S
Cd57 O61 2.439 1_554 S
Cd57 O67 2.240 . S
Cd58 O59 2.240 1_554 S
Cd58 O66 2.223 . S
Cd58 O68 2.297 . S
Cd58 O69 2.439 . S
O59 Cd58 2.240 1_556 S
O59 C64 1.279 . S
O60 Cd57 2.297 1_556 S
O60 C62 1.247 . S
O61 Cd57 2.439 1_556 S
O61 C62 1.208 . S
C62 O60 1.247 . S
C62 O61 1.208 . S
C63 O68 1.247 . S
C63 O69 1.208 . S
C64 O56 1.315 . S
C64 O59 1.279 . S
C65 O66 1.315 . S
C65 O67 1.279 . S
O66 Cd58 2.223 . S
O66 C65 1.315 . S
O67 Cd57 2.240 . S
O67 C65 1.279 . S
O68 Cd58 2.297 . S
O68 C63 1.247 . S
O69 Cd58 2.439 . S
O69 C63 1.208 . S
O70 Cd71 2.223 . S
O70 C78 1.315 . S
Cd71 O70 2.223 . S
Cd71 O74 2.297 . S
Cd71 O75 2.439 . S
Cd71 O81 2.240 1_554 S
Cd72 O73 2.240 . S
Cd72 O80 2.223 1_554 S
Cd72 O82 2.297 1_554 S
Cd72 O83 2.439 1_554 S
O73 Cd72 2.240 . S
O73 C78 1.279 1_545 S
O74 Cd71 2.297 . S
O74 C76 1.247 . S
O75 Cd71 2.439 . S
O75 C76 1.208 . S
C76 O74 1.247 . S
C76 O75 1.208 . S
C77 O82 1.247 . S
C77 O83 1.208 . S
C78 O70 1.315 . S
C78 O73 1.279 1_565 S
C79 O80 1.315 . S
C79 O81 1.279 1_545 S
O80 Cd72 2.223 1_556 S
O80 C79 1.315 . S
O81 Cd71 2.240 1_556 S
O81 C79 1.279 1_565 S
O82 Cd72 2.297 1_556 S
O82 C77 1.247 . S
O83 Cd72 2.439 1_556 S
O83 C77 1.208 . S
O84 Cd85 2.223 . S
O84 C92 1.315 . S
Cd85 O84 2.223 . S
Cd85 O88 2.297 . S
Cd85 O89 2.439 . S
Cd85 O95 2.240 . S
Cd86 O87 2.240 . S
Cd86 O94 2.223 . S
Cd86 O96 2.297 . S
Cd86 O97 2.439 . S
O87 Cd86 2.240 . S
O87 C92 1.279 . S
O88 Cd85 2.297 . S
O88 C90 1.247 . S
O89 Cd85 2.439 . S
O89 C90 1.208 . S
C90 O88 1.247 . S
C90 O89 1.208 . S
C91 O96 1.247 . S
C91 O97 1.208 . S
C92 O84 1.315 . S
C92 O87 1.279 . S
C93 O94 1.315 . S
C93 O95 1.279 . S
O94 Cd86 2.223 . S
O94 C93 1.315 . S
O95 Cd85 2.240 . S
O95 C93 1.279 . S
O96 Cd86 2.297 . S
O96 C91 1.247 . S
O97 Cd86 2.439 . S
O97 C91 1.208 . S
O98 Cd99 2.223 . S
O98 C106 1.315 . S
Cd99 O98 2.223 . S
Cd99 O102 2.297 1_565 S
Cd99 O103 2.439 1_565 S
Cd99 O109 2.240 . S
Cd100 O101 2.240 . S
Cd100 O108 2.223 . S
Cd100 O110 2.297 . S
Cd100 O111 2.439 . S
O101 Cd100 2.240 . S
O101 C106 1.279 . S
O102 Cd99 2.297 1_545 S
O102 C104 1.247 . S
O103 Cd99 2.439 1_545 S
O103 C104 1.208 . S
C104 O102 1.247 . S
C104 O103 1.208 . S
C105 O110 1.247 . S
C105 O111 1.208 . S
C106 O98 1.315 . S
C106 O101 1.279 . S
C107 O108 1.315 . S
C107 O109 1.279 . S
O108 Cd100 2.223 . S
O108 C107 1.315 . S
O109 Cd99 2.240 . S
O109 C107 1.279 . S
O110 Cd100 2.297 . S
O110 C105 1.247 . S
O111 Cd100 2.439 . S
O111 C105 1.208 . S
O112 Cd113 2.223 . S
O112 C120 1.315 . S
Cd113 O112 2.223 . S
Cd113 O116 2.297 . S
Cd113 O117 2.439 . S
Cd113 O123 2.240 . S
Cd114 O115 2.240 . S
Cd114 O122 2.223 . S
Cd114 O124 2.297 1_455 S
Cd114 O125 2.439 1_455 S
O115 Cd114 2.240 . S
O115 C120 1.279 . S
O116 Cd113 2.297 . S
O116 C118 1.247 . S
O117 Cd113 2.439 . S
O117 C118 1.208 . S
C118 O116 1.247 . S
C118 O117 1.208 . S
C119 O124 1.247 . S
C119 O125 1.208 . S
C120 O112 1.315 . S
C120 O115 1.279 . S
C121 O122 1.315 . S
C121 O123 1.279 . S
O122 Cd114 2.223 . S
O122 C121 1.315 . S
O123 Cd113 2.240 . S
O123 C121 1.279 . S
O124 Cd114 2.297 1_655 S
O124 C119 1.247 . S
O125 Cd114 2.439 1_655 S
O125 C119 1.208 . S
O126 Cd127 2.223 . S
O126 C134 1.315 . S
Cd127 O126 2.223 . S
Cd127 O130 2.297 . S
Cd127 O131 2.439 . S
Cd127 O137 2.240 . S
Cd128 O129 2.240 . S
Cd128 O136 2.223 . S
Cd128 O138 2.297 1_565 S
Cd128 O139 2.439 1_565 S
O129 Cd128 2.240 . S
O129 C134 1.279 . S
O130 Cd127 2.297 . S
O130 C132 1.247 . S
O131 Cd127 2.439 . S
O131 C132 1.208 . S
C132 O130 1.247 . S
C132 O131 1.208 . S
C133 O138 1.247 . S
C133 O139 1.208 . S
C134 O126 1.315 . S
C134 O129 1.279 . S
C135 O136 1.315 . S
C135 O137 1.279 . S
O136 Cd128 2.223 . S
O136 C135 1.315 . S
O137 Cd127 2.240 . S
O137 C135 1.279 . S
O138 Cd128 2.297 1_545 S
O138 C133 1.247 . S
O139 Cd128 2.439 1_545 S
O139 C133 1.208 . S
O140 Cd141 2.223 . S
O140 C148 1.315 . S
Cd141 O140 2.223 . S
Cd141 O144 2.297 . S
Cd141 O145 2.439 . S
Cd141 O151 2.240 . S
Cd142 O143 2.240 . S
Cd142 O150 2.223 . S
Cd142 O152 2.297 1_455 S
Cd142 O153 2.439 1_455 S
O143 Cd142 2.240 . S
O143 C148 1.279 . S
O144 Cd141 2.297 . S
O144 C146 1.247 . S
O145 Cd141 2.439 . S
O145 C146 1.208 . S
C146 O144 1.247 . S
C146 O145 1.208 . S
C147 O152 1.247 . S
C147 O153 1.208 . S
C148 O140 1.315 . S
C148 O143 1.279 . S
C149 O150 1.315 . S
C149 O151 1.279 . S
O150 Cd142 2.223 . S
O150 C149 1.315 . S
O151 Cd141 2.240 . S
O151 C149 1.279 . S
O152 Cd142 2.297 1_655 S
O152 C147 1.247 . S
O153 Cd142 2.439 1_655 S
O153 C147 1.208 . S
O154 Cd155 2.223 . S
O154 C162 1.315 . S
Cd155 O154 2.223 . S
Cd155 O158 2.297 . S
Cd155 O159 2.439 . S
Cd155 O165 2.240 . S
Cd156 O157 2.240 . S
Cd156 O164 2.223 . S
Cd156 O166 2.297 . S
Cd156 O167 2.439 . S
O157 Cd156 2.240 . S
O157 C162 1.279 . S
O158 Cd155 2.297 . S
O158 C160 1.247 . S
O159 Cd155 2.439 . S
O159 C160 1.208 . S
C160 O158 1.247 . S
C160 O159 1.208 . S
C161 O166 1.247 . S
C161 O167 1.208 . S
C162 O154 1.315 . S
C162 O157 1.279 . S
C163 O164 1.315 . S
C163 O165 1.279 . S
O164 Cd156 2.223 . S
O164 C163 1.315 . S
O165 Cd155 2.240 . S
O165 C163 1.279 . S
O166 Cd156 2.297 . S
O166 C161 1.247 . S
O167 Cd156 2.439 . S
O167 C161 1.208 . S
O168 Cd169 2.223 . S
O168 C176 1.315 . S
Cd169 O168 2.223 . S
Cd169 O172 2.297 . S
Cd169 O173 2.439 . S
Cd169 O179 2.240 . S
Cd170 O171 2.240 . S
Cd170 O178 2.223 . S
Cd170 O180 2.297 1_545 S
Cd170 O181 2.439 1_545 S
O171 Cd170 2.240 . S
O171 C176 1.279 . S
O172 Cd169 2.297 . S
O172 C174 1.247 . S
O173 Cd169 2.439 . S
O173 C174 1.208 . S
C174 O172 1.247 . S
C174 O173 1.208 . S
C175 O180 1.247 . S
C175 O181 1.208 . S
C176 O168 1.315 . S
C176 O171 1.279 . S
C177 O178 1.315 . S
C177 O179 1.279 . S
O178 Cd170 2.223 . S
O178 C177 1.315 . S
O179 Cd169 2.240 . S
O179 C177 1.279 . S
O180 Cd170 2.297 1_565 S
O180 C175 1.247 . S
O181 Cd170 2.439 1_565 S
O181 C175 1.208 . S
O182 Cd183 2.223 . S
O182 C190 1.315 . S
Cd183 O182 2.223 . S
Cd183 O186 2.297 . S
Cd183 O187 2.439 . S
Cd183 O193 2.240 . S
Cd184 O185 2.240 . S
Cd184 O192 2.223 . S
Cd184 O194 2.297 1_655 S
Cd184 O195 2.439 1_655 S
O185 Cd184 2.240 . S
O185 C190 1.279 . S
O186 Cd183 2.297 . S
O186 C188 1.247 . S
O187 Cd183 2.439 . S
O187 C188 1.208 . S
C188 O186 1.247 . S
C188 O187 1.208 . S
C189 O194 1.247 . S
C189 O195 1.208 . S
C190 O182 1.315 . S
C190 O185 1.279 . S
C191 O192 1.315 . S
C191 O193 1.279 . S
O192 Cd184 2.223 . S
O192 C191 1.315 . S
O193 Cd183 2.240 . S
O193 C191 1.279 . S
O194 Cd184 2.297 1_455 S
O194 C189 1.247 . S
O195 Cd184 2.439 1_455 S
O195 C189 1.208 . S
O196 Cd197 2.223 . S
O196 C204 1.315 . S
Cd197 O196 2.223 . S
Cd197 O200 2.297 . S
Cd197 O201 2.439 . S
Cd197 O207 2.240 . S
Cd198 O199 2.240 . S
Cd198 O206 2.223 . S
Cd198 O208 2.297 . S
Cd198 O209 2.439 . S
O199 Cd198 2.240 . S
O199 C204 1.279 . S
O200 Cd197 2.297 . S
O200 C202 1.247 . S
O201 Cd197 2.439 . S
O201 C202 1.208 . S
C202 O200 1.247 . S
C202 O201 1.208 . S
C203 O208 1.247 . S
C203 O209 1.208 . S
C204 O196 1.315 . S
C204 O199 1.279 . S
C205 O206 1.315 . S
C205 O207 1.279 . S
O206 Cd198 2.223 . S
O206 C205 1.315 . S
O207 Cd197 2.240 . S
O207 C205 1.279 . S
O208 Cd198 2.297 . S
O208 C203 1.247 . S
O209 Cd198 2.439 . S
O209 C203 1.208 . S
O210 Cd211 2.223 . S
O210 C218 1.315 . S
Cd211 O210 2.223 . S
Cd211 O214 2.297 . S
Cd211 O215 2.439 . S
Cd211 O221 2.240 . S
Cd212 O213 2.240 . S
Cd212 O220 2.223 . S
Cd212 O222 2.297 . S
Cd212 O223 2.439 . S
O213 Cd212 2.240 . S
O213 C218 1.279 . S
O214 Cd211 2.297 . S
O214 C216 1.247 . S
O215 Cd211 2.439 . S
O215 C216 1.208 . S
C216 O214 1.247 . S
C216 O215 1.208 . S
C217 O222 1.247 . S
C217 O223 1.208 . S
C218 O210 1.315 . S
C218 O213 1.279 . S
C219 O220 1.315 . S
C219 O221 1.279 . S
O220 Cd212 2.223 . S
O220 C219 1.315 . S
O221 Cd211 2.240 . S
O221 C219 1.279 . S
O222 Cd212 2.297 . S
O222 C217 1.247 . S
O223 Cd212 2.439 . S
O223 C217 1.208 . S
O224 Cd225 2.223 . S
O224 C232 1.315 . S
Cd225 O224 2.223 . S
Cd225 O228 2.297 1_545 S
Cd225 O229 2.439 1_545 S
Cd225 O235 2.240 . S
Cd226 O227 2.240 . S
Cd226 O234 2.223 . S
Cd226 O236 2.297 . S
Cd226 O237 2.439 . S
O227 Cd226 2.240 . S
O227 C232 1.279 . S
O228 Cd225 2.297 1_565 S
O228 C230 1.247 . S
O229 Cd225 2.439 1_565 S
O229 C230 1.208 . S
C230 O228 1.247 . S
C230 O229 1.208 . S
C231 O236 1.247 . S
C231 O237 1.208 . S
C232 O224 1.315 . S
C232 O227 1.279 . S
C233 O234 1.315 . S
C233 O235 1.279 . S
O234 Cd226 2.223 . S
O234 C233 1.315 . S
O235 Cd225 2.240 . S
O235 C233 1.279 . S
O236 Cd226 2.297 . S
O236 C231 1.247 . S
O237 Cd226 2.439 . S
O237 C231 1.208 . S
O238 Cd239 2.223 . S
O238 C246 1.315 . S
Cd239 O238 2.223 . S
Cd239 O242 2.297 . S
Cd239 O243 2.439 . S
Cd239 O249 2.240 . S
Cd240 O241 2.240 . S
Cd240 O248 2.223 . S
Cd240 O250 2.297 1_655 S
Cd240 O251 2.439 1_655 S
O241 Cd240 2.240 . S
O241 C246 1.279 . S
O242 Cd239 2.297 . S
O242 C244 1.247 . S
O243 Cd239 2.439 . S
O243 C244 1.208 . S
C244 O242 1.247 . S
C244 O243 1.208 . S
C245 O250 1.247 . S
C245 O251 1.208 . S
C246 O238 1.315 . S
C246 O241 1.279 . S
C247 O248 1.315 . S
C247 O249 1.279 . S
O248 Cd240 2.223 . S
O248 C247 1.315 . S
O249 Cd239 2.240 . S
O249 C247 1.279 . S
O250 Cd240 2.297 1_455 S
O250 C245 1.247 . S
O251 Cd240 2.439 1_455 S
O251 C245 1.208 . S
C252 C253 1.384 . S
C252 C254 1.384 . S
C252 H280 0.931 . S
C253 C252 1.384 . S
C253 C256 1.382 . S
C254 C252 1.384 . S
C254 C255 1.381 . S
C254 H281 0.930 . S
C255 C254 1.381 . S
C255 C257 1.381 . S
C255 C258 1.487 . S
C256 C253 1.382 . S
C256 C257 1.387 . S
C256 H282 0.930 . S
C257 C255 1.381 . S
C257 C256 1.387 . S
C257 H283 0.931 . S
C258 C255 1.487 . S
C258 C265 1.399 . S
C258 N296 1.343 . S
C259 C260 1.384 . S
C259 C261 1.384 . S
C259 H284 0.931 . S
C260 C259 1.384 . S
C260 C263 1.382 . S
C261 C259 1.384 . S
C261 C262 1.381 . S
C261 H285 0.930 . S
C262 C261 1.381 . S
C262 C264 1.381 . S
C262 C265 1.487 . S
C263 C260 1.382 . S
C263 C264 1.387 . S
C263 H286 0.930 . S
C264 C262 1.381 . S
C264 C263 1.387 . S
C264 H287 0.931 . S
C265 C258 1.399 . S
C265 C262 1.487 . S
C265 N297 1.343 . S
C266 C267 1.384 . S
C266 C268 1.384 . S
C266 H288 0.931 . S
C267 C266 1.384 . S
C267 C270 1.382 . S
C268 C266 1.384 . S
C268 C269 1.381 . S
C268 H289 0.930 . S
C269 C268 1.381 . S
C269 C271 1.381 . S
C269 C272 1.487 . S
C270 C267 1.382 . S
C270 C271 1.387 . S
C270 H290 0.930 . S
C271 C269 1.381 . S
C271 C270 1.387 . S
C271 H291 0.931 . S
C272 C269 1.487 . S
C272 C279 1.399 . S
C272 N297 1.343 . S
C273 C274 1.384 . S
C273 C275 1.384 . S
C273 H292 0.931 . S
C274 C273 1.384 . S
C274 C277 1.382 . S
C275 C273 1.384 . S
C275 C276 1.381 . S
C275 H293 0.930 . S
C276 C275 1.381 . S
C276 C278 1.381 . S
C276 C279 1.487 . S
C277 C274 1.382 . S
C277 C278 1.387 . S
C277 H294 0.930 . S
C278 C276 1.381 . S
C278 C277 1.387 . S
C278 H295 0.931 . S
C279 C272 1.399 . S
C279 C276 1.487 . S
C279 N296 1.343 . S
H280 C252 0.931 . S
H281 C254 0.930 . S
H282 C256 0.930 . S
H283 C257 0.931 . S
H284 C259 0.931 . S
H285 C261 0.930 . S
H286 C263 0.930 . S
H287 C264 0.931 . S
H288 C266 0.931 . S
H289 C268 0.930 . S
H290 C270 0.930 . S
H291 C271 0.931 . S
H292 C273 0.931 . S
H293 C275 0.930 . S
H294 C277 0.930 . S
H295 C278 0.931 . S
N296 C258 1.343 . S
N296 C279 1.343 . S
N297 C265 1.343 . S
N297 C272 1.343 . S
C298 C299 1.384 . S
C298 C300 1.384 . S
C298 H326 0.931 . S
C299 C298 1.384 . S
C299 C302 1.382 . S
C300 C298 1.384 . S
C300 C301 1.381 . S
C300 H327 0.930 . S
C301 C300 1.381 . S
C301 C303 1.381 . S
C301 C304 1.487 . S
C302 C299 1.382 . S
C302 C303 1.387 . S
C302 H328 0.930 . S
C303 C301 1.381 . S
C303 C302 1.387 . S
C303 H329 0.931 . S
C304 C301 1.487 . S
C304 C311 1.399 . S
C304 N342 1.343 . S
C305 C306 1.384 . S
C305 C307 1.384 . S
C305 H330 0.931 . S
C306 C305 1.384 . S
C306 C309 1.382 . S
C307 C305 1.384 . S
C307 C308 1.381 . S
C307 H331 0.930 . S
C308 C307 1.381 . S
C308 C310 1.381 . S
C308 C311 1.487 . S
C309 C306 1.382 . S
C309 C310 1.387 . S
C309 H332 0.930 . S
C310 C308 1.381 . S
C310 C309 1.387 . S
C310 H333 0.931 . S
C311 C304 1.399 . S
C311 C308 1.487 . S
C311 N343 1.343 . S
C312 C313 1.384 . S
C312 C314 1.384 . S
C312 H334 0.931 . S
C313 C312 1.384 . S
C313 C316 1.382 . S
C314 C312 1.384 . S
C314 C315 1.381 . S
C314 H335 0.930 . S
C315 C314 1.381 . S
C315 C317 1.381 . S
C315 C318 1.487 . S
C316 C313 1.382 . S
C316 C317 1.387 . S
C316 H336 0.930 . S
C317 C315 1.381 . S
C317 C316 1.387 . S
C317 H337 0.931 . S
C318 C315 1.487 . S
C318 C325 1.399 . S
C318 N343 1.343 . S
C319 C320 1.384 . S
C319 C321 1.384 . S
C319 H338 0.931 . S
C320 C319 1.384 . S
C320 C323 1.382 . S
C321 C319 1.384 . S
C321 C322 1.381 . S
C321 H339 0.930 . S
C322 C321 1.381 . S
C322 C324 1.381 . S
C322 C325 1.487 . S
C323 C320 1.382 . S
C323 C324 1.387 . S
C323 H340 0.930 . S
C324 C322 1.381 . S
C324 C323 1.387 . S
C324 H341 0.931 . S
C325 C318 1.399 . S
C325 C322 1.487 . S
C325 N342 1.343 . S
H326 C298 0.931 . S
H327 C300 0.930 . S
H328 C302 0.930 . S
H329 C303 0.931 . S
H330 C305 0.931 . S
H331 C307 0.930 . S
H332 C309 0.930 . S
H333 C310 0.931 . S
H334 C312 0.931 . S
H335 C314 0.930 . S
H336 C316 0.930 . S
H337 C317 0.931 . S
H338 C319 0.931 . S
H339 C321 0.930 . S
H340 C323 0.930 . S
H341 C324 0.931 . S
N342 C304 1.343 . S
N342 C325 1.343 . S
N343 C311 1.343 . S
N343 C318 1.343 . S
C344 C345 1.384 . S
C344 C346 1.384 . S
C344 H372 0.931 . S
C345 C344 1.384 . S
C345 C348 1.382 . S
C346 C344 1.384 . S
C346 C347 1.381 . S
C346 H373 0.930 . S
C347 C346 1.381 . S
C347 C349 1.381 . S
C347 C350 1.487 . S
C348 C345 1.382 . S
C348 C349 1.387 . S
C348 H374 0.930 . S
C349 C347 1.381 . S
C349 C348 1.387 . S
C349 H375 0.931 . S
C350 C347 1.487 . S
C350 C357 1.399 . S
C350 N388 1.343 . S
C351 C352 1.384 . S
C351 C353 1.384 . S
C351 H376 0.931 . S
C352 C351 1.384 . S
C352 C355 1.382 . S
C353 C351 1.384 . S
C353 C354 1.381 . S
C353 H377 0.930 . S
C354 C353 1.381 . S
C354 C356 1.381 . S
C354 C357 1.487 . S
C355 C352 1.382 . S
C355 C356 1.387 . S
C355 H378 0.930 . S
C356 C354 1.381 . S
C356 C355 1.387 . S
C356 H379 0.931 . S
C357 C350 1.399 . S
C357 C354 1.487 . S
C357 N389 1.343 . S
C358 C359 1.384 . S
C358 C360 1.384 . S
C358 H380 0.931 . S
C359 C358 1.384 . S
C359 C362 1.382 . S
C360 C358 1.384 . S
C360 C361 1.381 . S
C360 H381 0.930 . S
C361 C360 1.381 . S
C361 C363 1.381 . S
C361 C364 1.487 . S
C362 C359 1.382 . S
C362 C363 1.387 . S
C362 H382 0.930 . S
C363 C361 1.381 . S
C363 C362 1.387 . S
C363 H383 0.931 . S
C364 C361 1.487 . S
C364 C371 1.399 . S
C364 N389 1.343 . S
C365 C366 1.384 . S
C365 C367 1.384 . S
C365 H384 0.931 . S
C366 C365 1.384 . S
C366 C369 1.382 . S
C367 C365 1.384 . S
C367 C368 1.381 . S
C367 H385 0.930 . S
C368 C367 1.381 . S
C368 C370 1.381 . S
C368 C371 1.487 . S
C369 C366 1.382 . S
C369 C370 1.387 . S
C369 H386 0.930 . S
C370 C368 1.381 . S
C370 C369 1.387 . S
C370 H387 0.931 . S
C371 C364 1.399 . S
C371 C368 1.487 . S
C371 N388 1.343 . S
H372 C344 0.931 . S
H373 C346 0.930 . S
H374 C348 0.930 . S
H375 C349 0.931 . S
H376 C351 0.931 . S
H377 C353 0.930 . S
H378 C355 0.930 . S
H379 C356 0.931 . S
H380 C358 0.931 . S
H381 C360 0.930 . S
H382 C362 0.930 . S
H383 C363 0.931 . S
H384 C365 0.931 . S
H385 C367 0.930 . S
H386 C369 0.930 . S
H387 C370 0.931 . S
N388 C350 1.343 . S
N388 C371 1.343 . S
N389 C357 1.343 . S
N389 C364 1.343 . S
C390 C391 1.384 . S
C390 C392 1.384 . S
C390 H418 0.931 . S
C391 C390 1.384 . S
C391 C394 1.382 . S
C392 C390 1.384 . S
C392 C393 1.381 . S
C392 H419 0.930 . S
C393 C392 1.381 . S
C393 C395 1.381 . S
C393 C396 1.487 . S
C394 C391 1.382 . S
C394 C395 1.387 . S
C394 H420 0.930 . S
C395 C393 1.381 . S
C395 C394 1.387 . S
C395 H421 0.931 . S
C396 C393 1.487 . S
C396 C403 1.399 . S
C396 N434 1.343 . S
C397 C398 1.384 . S
C397 C399 1.384 . S
C397 H422 0.931 . S
C398 C397 1.384 . S
C398 C401 1.382 . S
C399 C397 1.384 . S
C399 C400 1.381 . S
C399 H423 0.930 . S
C400 C399 1.381 . S
C400 C402 1.381 . S
C400 C403 1.487 . S
C401 C398 1.382 . S
C401 C402 1.387 . S
C401 H424 0.930 . S
C402 C400 1.381 . S
C402 C401 1.387 . S
C402 H425 0.931 . S
C403 C396 1.399 . S
C403 C400 1.487 . S
C403 N435 1.343 . S
C404 C405 1.384 . S
C404 C406 1.384 . S
C404 H426 0.931 . S
C405 C404 1.384 . S
C405 C408 1.382 . S
C406 C404 1.384 . S
C406 C407 1.381 . S
C406 H427 0.930 . S
C407 C406 1.381 . S
C407 C409 1.381 . S
C407 C410 1.487 . S
C408 C405 1.382 . S
C408 C409 1.387 . S
C408 H428 0.930 . S
C409 C407 1.381 . S
C409 C408 1.387 . S
C409 H429 0.931 . S
C410 C407 1.487 . S
C410 C417 1.399 . S
C410 N435 1.343 . S
C411 C412 1.384 . S
C411 C413 1.384 . S
C411 H430 0.931 . S
C412 C411 1.384 . S
C412 C415 1.382 . S
C413 C411 1.384 . S
C413 C414 1.381 . S
C413 H431 0.930 . S
C414 C413 1.381 . S
C414 C416 1.381 . S
C414 C417 1.487 . S
C415 C412 1.382 . S
C415 C416 1.387 . S
C415 H432 0.930 . S
C416 C414 1.381 . S
C416 C415 1.387 . S
C416 H433 0.931 . S
C417 C410 1.399 . S
C417 C414 1.487 . S
C417 N434 1.343 . S
H418 C390 0.931 . S
H419 C392 0.930 . S
H420 C394 0.930 . S
H421 C395 0.931 . S
H422 C397 0.931 . S
H423 C399 0.930 . S
H424 C401 0.930 . S
H425 C402 0.931 . S
H426 C404 0.931 . S
H427 C406 0.930 . S
H428 C408 0.930 . S
H429 C409 0.931 . S
H430 C411 0.931 . S
H431 C413 0.930 . S
H432 C415 0.930 . S
H433 C416 0.931 . S
N434 C396 1.343 . S
N434 C417 1.343 . S
N435 C403 1.343 . S
N435 C410 1.343 . S
C436 C437 1.384 . S
C436 C438 1.384 . S
C436 H464 0.931 . S
C437 C436 1.384 . S
C437 C440 1.382 . S
C438 C436 1.384 . S
C438 C439 1.381 . S
C438 H465 0.930 . S
C439 C438 1.381 . S
C439 C441 1.381 . S
C439 C442 1.487 . S
C440 C437 1.382 . S
C440 C441 1.387 . S
C440 H466 0.930 . S
C441 C439 1.381 . S
C441 C440 1.387 . S
C441 H467 0.931 . S
C442 C439 1.487 . S
C442 C449 1.399 . S
C442 N480 1.343 . S
C443 C444 1.384 . S
C443 C445 1.384 . S
C443 H468 0.931 . S
C444 C443 1.384 . S
C444 C447 1.382 . S
C445 C443 1.384 . S
C445 C446 1.381 . S
C445 H469 0.930 . S
C446 C445 1.381 . S
C446 C448 1.381 . S
C446 C449 1.487 . S
C447 C444 1.382 . S
C447 C448 1.387 . S
C447 H470 0.930 . S
C448 C446 1.381 . S
C448 C447 1.387 . S
C448 H471 0.931 . S
C449 C442 1.399 . S
C449 C446 1.487 . S
C449 N481 1.343 . S
C450 C451 1.384 . S
C450 C452 1.384 . S
C450 H472 0.931 . S
C451 C450 1.384 . S
C451 C454 1.382 . S
C452 C450 1.384 . S
C452 C453 1.381 . S
C452 H473 0.930 . S
C453 C452 1.381 . S
C453 C455 1.381 . S
C453 C456 1.487 . S
C454 C451 1.382 . S
C454 C455 1.387 . S
C454 H474 0.930 . S
C455 C453 1.381 . S
C455 C454 1.387 . S
C455 H475 0.931 . S
C456 C453 1.487 . S
C456 C463 1.399 . S
C456 N481 1.343 . S
C457 C458 1.384 . S
C457 C459 1.384 . S
C457 H476 0.931 . S
C458 C457 1.384 . S
C458 C461 1.382 . S
C459 C457 1.384 . S
C459 C460 1.381 . S
C459 H477 0.930 . S
C460 C459 1.381 . S
C460 C462 1.381 . S
C460 C463 1.487 . S
C461 C458 1.382 . S
C461 C462 1.387 . S
C461 H478 0.930 . S
C462 C460 1.381 . S
C462 C461 1.387 . S
C462 H479 0.931 . S
C463 C456 1.399 . S
C463 C460 1.487 . S
C463 N480 1.343 . S
H464 C436 0.931 . S
H465 C438 0.930 . S
H466 C440 0.930 . S
H467 C441 0.931 . S
H468 C443 0.931 . S
H469 C445 0.930 . S
H470 C447 0.930 . S
H471 C448 0.931 . S
H472 C450 0.931 . S
H473 C452 0.930 . S
H474 C454 0.930 . S
H475 C455 0.931 . S
H476 C457 0.931 . S
H477 C459 0.930 . S
H478 C461 0.930 . S
H479 C462 0.931 . S
N480 C442 1.343 . S
N480 C463 1.343 . S
N481 C449 1.343 . S
N481 C456 1.343 . S
C482 C483 1.384 . S
C482 C484 1.384 . S
C482 H510 0.931 . S
C483 C482 1.384 . S
C483 C486 1.382 . S
C484 C482 1.384 . S
C484 C485 1.381 . S
C484 H511 0.930 . S
C485 C484 1.381 . S
C485 C487 1.381 . S
C485 C488 1.487 . S
C486 C483 1.382 . S
C486 C487 1.387 . S
C486 H512 0.930 . S
C487 C485 1.381 . S
C487 C486 1.387 . S
C487 H513 0.931 . S
C488 C485 1.487 . S
C488 C495 1.399 . S
C488 N526 1.343 . S
C489 C490 1.384 . S
C489 C491 1.384 . S
C489 H514 0.931 . S
C490 C489 1.384 . S
C490 C493 1.382 . S
C491 C489 1.384 . S
C491 C492 1.381 . S
C491 H515 0.930 . S
C492 C491 1.381 . S
C492 C494 1.381 . S
C492 C495 1.487 . S
C493 C490 1.382 . S
C493 C494 1.387 . S
C493 H516 0.930 . S
C494 C492 1.381 . S
C494 C493 1.387 . S
C494 H517 0.931 . S
C495 C488 1.399 . S
C495 C492 1.487 . S
C495 N527 1.343 . S
C496 C497 1.384 . S
C496 C498 1.384 . S
C496 H518 0.931 . S
C497 C496 1.384 . S
C497 C500 1.382 . S
C498 C496 1.384 . S
C498 C499 1.381 . S
C498 H519 0.930 . S
C499 C498 1.381 . S
C499 C501 1.381 . S
C499 C502 1.487 . S
C500 C497 1.382 . S
C500 C501 1.387 . S
C500 H520 0.930 . S
C501 C499 1.381 . S
C501 C500 1.387 . S
C501 H521 0.931 . S
C502 C499 1.487 . S
C502 C509 1.399 . S
C502 N527 1.343 . S
C503 C504 1.384 . S
C503 C505 1.384 . S
C503 H522 0.931 . S
C504 C503 1.384 . S
C504 C507 1.382 . S
C505 C503 1.384 . S
C505 C506 1.381 . S
C505 H523 0.930 . S
C506 C505 1.381 . S
C506 C508 1.381 . S
C506 C509 1.487 . S
C507 C504 1.382 . S
C507 C508 1.387 . S
C507 H524 0.930 . S
C508 C506 1.381 . S
C508 C507 1.387 . S
C508 H525 0.931 . S
C509 C502 1.399 . S
C509 C506 1.487 . S
C509 N526 1.343 . S
H510 C482 0.931 . S
H511 C484 0.930 . S
H512 C486 0.930 . S
H513 C487 0.931 . S
H514 C489 0.931 . S
H515 C491 0.930 . S
H516 C493 0.930 . S
H517 C494 0.931 . S
H518 C496 0.931 . S
H519 C498 0.930 . S
H520 C500 0.930 . S
H521 C501 0.931 . S
H522 C503 0.931 . S
H523 C505 0.930 . S
H524 C507 0.930 . S
H525 C508 0.931 . S
N526 C488 1.343 . S
N526 C509 1.343 . S
N527 C495 1.343 . S
N527 C502 1.343 . S
C528 C529 1.384 . S
C528 C530 1.384 . S
C528 H556 0.931 . S
C529 C528 1.384 . S
C529 C532 1.382 . S
C530 C528 1.384 . S
C530 C531 1.381 . S
C530 H557 0.930 . S
C531 C530 1.381 . S
C531 C533 1.381 . S
C531 C534 1.487 . S
C532 C529 1.382 . S
C532 C533 1.387 . S
C532 H558 0.930 . S
C533 C531 1.381 . S
C533 C532 1.387 . S
C533 H559 0.931 . S
C534 C531 1.487 . S
C534 C541 1.399 . S
C534 N572 1.343 . S
C535 C536 1.384 . S
C535 C537 1.384 . S
C535 H560 0.931 . S
C536 C535 1.384 . S
C536 C539 1.382 . S
C537 C535 1.384 . S
C537 C538 1.381 . S
C537 H561 0.930 . S
C538 C537 1.381 . S
C538 C540 1.381 . S
C538 C541 1.487 . S
C539 C536 1.382 . S
C539 C540 1.387 . S
C539 H562 0.930 . S
C540 C538 1.381 . S
C540 C539 1.387 . S
C540 H563 0.931 . S
C541 C534 1.399 . S
C541 C538 1.487 . S
C541 N573 1.343 . S
C542 C543 1.384 . S
C542 C544 1.384 . S
C542 H564 0.931 . S
C543 C542 1.384 . S
C543 C546 1.382 . S
C544 C542 1.384 . S
C544 C545 1.381 . S
C544 H565 0.930 . S
C545 C544 1.381 . S
C545 C547 1.381 . S
C545 C548 1.487 . S
C546 C543 1.382 . S
C546 C547 1.387 . S
C546 H566 0.930 . S
C547 C545 1.381 . S
C547 C546 1.387 . S
C547 H567 0.931 . S
C548 C545 1.487 . S
C548 C555 1.399 . S
C548 N573 1.343 . S
C549 C550 1.384 . S
C549 C551 1.384 . S
C549 H568 0.931 . S
C550 C549 1.384 . S
C550 C553 1.382 . S
C551 C549 1.384 . S
C551 C552 1.381 . S
C551 H569 0.930 . S
C552 C551 1.381 . S
C552 C554 1.381 . S
C552 C555 1.487 . S
C553 C550 1.382 . S
C553 C554 1.387 . S
C553 H570 0.930 . S
C554 C552 1.381 . S
C554 C553 1.387 . S
C554 H571 0.931 . S
C555 C548 1.399 . S
C555 C552 1.487 . S
C555 N572 1.343 . S
H556 C528 0.931 . S
H557 C530 0.930 . S
H558 C532 0.930 . S
H559 C533 0.931 . S
H560 C535 0.931 . S
H561 C537 0.930 . S
H562 C539 0.930 . S
H563 C540 0.931 . S
H564 C542 0.931 . S
H565 C544 0.930 . S
H566 C546 0.930 . S
H567 C547 0.931 . S
H568 C549 0.931 . S
H569 C551 0.930 . S
H570 C553 0.930 . S
H571 C554 0.931 . S
N572 C534 1.343 . S
N572 C555 1.343 . S
N573 C541 1.343 . S
N573 C548 1.343 . S
C574 C575 1.384 . S
C574 C576 1.384 . S
C574 H602 0.931 . S
C575 C574 1.384 . S
C575 C578 1.382 . S
C576 C574 1.384 . S
C576 C577 1.381 . S
C576 H603 0.930 . S
C577 C576 1.381 . S
C577 C579 1.381 . S
C577 C580 1.487 . S
C578 C575 1.382 . S
C578 C579 1.387 . S
C578 H604 0.930 . S
C579 C577 1.381 . S
C579 C578 1.387 . S
C579 H605 0.931 . S
C580 C577 1.487 . S
C580 C587 1.399 . S
C580 N618 1.343 . S
C581 C582 1.384 . S
C581 C583 1.384 . S
C581 H606 0.931 . S
C582 C581 1.384 . S
C582 C585 1.382 . S
C583 C581 1.384 . S
C583 C584 1.381 . S
C583 H607 0.930 . S
C584 C583 1.381 . S
C584 C586 1.381 . S
C584 C587 1.487 . S
C585 C582 1.382 . S
C585 C586 1.387 . S
C585 H608 0.930 . S
C586 C584 1.381 . S
C586 C585 1.387 . S
C586 H609 0.931 . S
C587 C580 1.399 . S
C587 C584 1.487 . S
C587 N619 1.343 . S
C588 C589 1.384 . S
C588 C590 1.384 . S
C588 H610 0.931 . S
C589 C588 1.384 . S
C589 C592 1.382 . S
C590 C588 1.384 . S
C590 C591 1.381 . S
C590 H611 0.930 . S
C591 C590 1.381 . S
C591 C593 1.381 . S
C591 C594 1.487 . S
C592 C589 1.382 . S
C592 C593 1.387 . S
C592 H612 0.930 . S
C593 C591 1.381 . S
C593 C592 1.387 . S
C593 H613 0.931 . S
C594 C591 1.487 . S
C594 C601 1.399 . S
C594 N619 1.343 . S
C595 C596 1.384 . S
C595 C597 1.384 . S
C595 H614 0.931 . S
C596 C595 1.384 . S
C596 C599 1.382 . S
C597 C595 1.384 . S
C597 C598 1.381 . S
C597 H615 0.930 . S
C598 C597 1.381 . S
C598 C600 1.381 . S
C598 C601 1.487 . S
C599 C596 1.382 . S
C599 C600 1.387 . S
C599 H616 0.930 . S
C600 C598 1.381 . S
C600 C599 1.387 . S
C600 H617 0.931 . S
C601 C594 1.399 . S
C601 C598 1.487 . S
C601 N618 1.343 . S
H602 C574 0.931 . S
H603 C576 0.930 . S
H604 C578 0.930 . S
H605 C579 0.931 . S
H606 C581 0.931 . S
H607 C583 0.930 . S
H608 C585 0.930 . S
H609 C586 0.931 . S
H610 C588 0.931 . S
H611 C590 0.930 . S
H612 C592 0.930 . S
H613 C593 0.931 . S
H614 C595 0.931 . S
H615 C597 0.930 . S
H616 C599 0.930 . S
H617 C600 0.931 . S
N618 C580 1.343 . S
N618 C601 1.343 . S
N619 C587 1.343 . S
N619 C594 1.343 . S
C620 C621 1.384 . S
C620 C622 1.384 . S
C620 H648 0.931 . S
C621 C620 1.384 . S
C621 C624 1.382 . S
C622 C620 1.384 . S
C622 C623 1.381 . S
C622 H649 0.930 . S
C623 C622 1.381 . S
C623 C625 1.381 . S
C623 C626 1.487 . S
C624 C621 1.382 . S
C624 C625 1.387 . S
C624 H650 0.930 . S
C625 C623 1.381 . S
C625 C624 1.387 . S
C625 H651 0.931 . S
C626 C623 1.487 . S
C626 C633 1.399 . S
C626 N664 1.343 . S
C627 C628 1.384 . S
C627 C629 1.384 . S
C627 H652 0.931 . S
C628 C627 1.384 . S
C628 C631 1.382 . S
C629 C627 1.384 . S
C629 C630 1.381 . S
C629 H653 0.930 . S
C630 C629 1.381 . S
C630 C632 1.381 . S
C630 C633 1.487 . S
C631 C628 1.382 . S
C631 C632 1.387 . S
C631 H654 0.930 . S
C632 C630 1.381 . S
C632 C631 1.387 . S
C632 H655 0.931 . S
C633 C626 1.399 . S
C633 C630 1.487 . S
C633 N665 1.343 . S
C634 C635 1.384 . S
C634 C636 1.384 . S
C634 H656 0.931 . S
C635 C634 1.384 . S
C635 C638 1.382 . S
C636 C634 1.384 . S
C636 C637 1.381 . S
C636 H657 0.930 . S
C637 C636 1.381 . S
C637 C639 1.381 . S
C637 C640 1.487 . S
C638 C635 1.382 . S
C638 C639 1.387 . S
C638 H658 0.930 . S
C639 C637 1.381 . S
C639 C638 1.387 . S
C639 H659 0.931 . S
C640 C637 1.487 . S
C640 C647 1.399 . S
C640 N665 1.343 . S
C641 C642 1.384 . S
C641 C643 1.384 . S
C641 H660 0.931 . S
C642 C641 1.384 . S
C642 C645 1.382 . S
C643 C641 1.384 . S
C643 C644 1.381 . S
C643 H661 0.930 . S
C644 C643 1.381 . S
C644 C646 1.381 . S
C644 C647 1.487 . S
C645 C642 1.382 . S
C645 C646 1.387 . S
C645 H662 0.930 . S
C646 C644 1.381 . S
C646 C645 1.387 . S
C646 H663 0.931 . S
C647 C640 1.399 . S
C647 C644 1.487 . S
C647 N664 1.343 . S
H648 C620 0.931 . S
H649 C622 0.930 . S
H650 C624 0.930 . S
H651 C625 0.931 . S
H652 C627 0.931 . S
H653 C629 0.930 . S
H654 C631 0.930 . S
H655 C632 0.931 . S
H656 C634 0.931 . S
H657 C636 0.930 . S
H658 C638 0.930 . S
H659 C639 0.931 . S
H660 C641 0.931 . S
H661 C643 0.930 . S
H662 C645 0.930 . S
H663 C646 0.931 . S
N664 C626 1.343 . S
N664 C647 1.343 . S
N665 C633 1.343 . S
N665 C640 1.343 . S
C666 C667 1.384 . S
C666 C668 1.384 . S
C666 H694 0.931 . S
C667 C666 1.384 . S
C667 C670 1.382 1_655 S
C668 C666 1.384 . S
C668 C669 1.379 . S
C668 H695 0.930 . S
C669 C668 1.379 . S
C669 C671 1.383 1_655 S
C669 C672 1.479 1_655 S
C670 C667 1.382 1_455 S
C670 C671 1.387 . S
C670 H696 0.930 . S
C671 C669 1.383 1_455 S
C671 C670 1.387 . S
C671 H697 0.931 . S
C672 C669 1.479 1_455 S
C672 C679 1.399 1_455 S
C672 N710 1.353 . S
C673 C674 1.384 . S
C673 C675 1.384 . S
C673 H698 0.931 . S
C674 C673 1.384 . S
C674 C677 1.382 1_455 S
C675 C673 1.384 . S
C675 C676 1.382 . S
C675 H699 0.930 . S
C676 C675 1.382 . S
C676 C678 1.379 1_455 S
C676 C679 1.493 1_455 S
C677 C674 1.382 1_655 S
C677 C678 1.387 . S
C677 H700 0.930 . S
C678 C676 1.379 1_655 S
C678 C677 1.387 . S
C678 H701 0.931 . S
C679 C672 1.399 1_655 S
C679 C676 1.493 1_655 S
C679 N711 1.366 . S
C680 C681 1.384 . S
C680 C682 1.384 . S
C680 H702 0.931 . S
C681 C680 1.384 . S
C681 C684 1.382 1_455 S
C682 C680 1.384 . S
C682 C683 1.394 . S
C682 H703 0.930 . S
C683 C682 1.394 . S
C683 C685 1.375 1_455 S
C683 C686 1.479 1_455 S
C684 C681 1.382 1_655 S
C684 C685 1.387 . S
C684 H704 0.930 . S
C685 C683 1.375 1_655 S
C685 C684 1.387 . S
C685 H705 0.931 . S
C686 C683 1.479 1_655 S
C686 C693 1.399 1_655 S
C686 N711 1.317 . S
C687 C688 1.384 . S
C687 C689 1.384 . S
C687 H706 0.931 . S
C688 C687 1.384 . S
C688 C691 1.382 1_655 S
C689 C687 1.384 . S
C689 C690 1.382 1_655 S
C689 H707 0.930 . S
C690 C689 1.382 1_455 S
C690 C692 1.379 . S
C690 C693 1.499 . S
C691 C688 1.382 1_455 S
C691 C692 1.387 . S
C691 H708 0.930 . S
C692 C690 1.379 . S
C692 C691 1.387 . S
C692 H709 0.931 . S
C693 C686 1.399 1_455 S
C693 C690 1.499 . S
C693 N710 1.333 . S
H694 C666 0.931 . S
H695 C668 0.930 . S
H696 C670 0.930 . S
H697 C671 0.931 . S
H698 C673 0.931 . S
H699 C675 0.930 . S
H700 C677 0.930 . S
H701 C678 0.931 . S
H702 C680 0.931 . S
H703 C682 0.930 . S
H704 C684 0.930 . S
H705 C685 0.931 . S
H706 C687 0.931 . S
H707 C689 0.930 . S
H708 C691 0.930 . S
H709 C692 0.931 . S
N710 C672 1.353 . S
N710 C693 1.333 . S
N711 C679 1.366 . S
N711 C686 1.317 . S
C712 C713 1.384 . S
C712 C714 1.384 . S
C712 H740 0.931 . S
C713 C712 1.384 . S
C713 C716 1.382 . S
C714 C712 1.384 . S
C714 C715 1.381 . S
C714 H741 0.930 . S
C715 C714 1.381 . S
C715 C717 1.381 . S
C715 C718 1.487 . S
C716 C713 1.382 . S
C716 C717 1.387 . S
C716 H742 0.930 . S
C717 C715 1.381 . S
C717 C716 1.387 . S
C717 H743 0.931 . S
C718 C715 1.487 . S
C718 C725 1.399 . S
C718 N756 1.343 . S
C719 C720 1.384 . S
C719 C721 1.384 . S
C719 H744 0.931 . S
C720 C719 1.384 . S
C720 C723 1.382 . S
C721 C719 1.384 . S
C721 C722 1.381 . S
C721 H745 0.930 . S
C722 C721 1.381 . S
C722 C724 1.381 . S
C722 C725 1.487 . S
C723 C720 1.382 . S
C723 C724 1.387 . S
C723 H746 0.930 . S
C724 C722 1.381 . S
C724 C723 1.387 . S
C724 H747 0.931 . S
C725 C718 1.399 . S
C725 C722 1.487 . S
C725 N757 1.343 . S
C726 C727 1.384 . S
C726 C728 1.384 . S
C726 H748 0.931 . S
C727 C726 1.384 . S
C727 C730 1.382 . S
C728 C726 1.384 . S
C728 C729 1.381 . S
C728 H749 0.930 . S
C729 C728 1.381 . S
C729 C731 1.381 . S
C729 C732 1.487 . S
C730 C727 1.382 . S
C730 C731 1.387 . S
C730 H750 0.930 . S
C731 C729 1.381 . S
C731 C730 1.387 . S
C731 H751 0.931 . S
C732 C729 1.487 . S
C732 C739 1.399 . S
C732 N757 1.343 . S
C733 C734 1.384 . S
C733 C735 1.384 . S
C733 H752 0.931 . S
C734 C733 1.384 . S
C734 C737 1.382 . S
C735 C733 1.384 . S
C735 C736 1.381 . S
C735 H753 0.930 . S
C736 C735 1.381 . S
C736 C738 1.381 . S
C736 C739 1.487 . S
C737 C734 1.382 . S
C737 C738 1.387 . S
C737 H754 0.930 . S
C738 C736 1.381 . S
C738 C737 1.387 . S
C738 H755 0.931 . S
C739 C732 1.399 . S
C739 C736 1.487 . S
C739 N756 1.343 . S
H740 C712 0.931 . S
H741 C714 0.930 . S
H742 C716 0.930 . S
H743 C717 0.931 . S
H744 C719 0.931 . S
H745 C721 0.930 . S
H746 C723 0.930 . S
H747 C724 0.931 . S
H748 C726 0.931 . S
H749 C728 0.930 . S
H750 C730 0.930 . S
H751 C731 0.931 . S
H752 C733 0.931 . S
H753 C735 0.930 . S
H754 C737 0.930 . S
H755 C738 0.931 . S
N756 C718 1.343 . S
N756 C739 1.343 . S
N757 C725 1.343 . S
N757 C732 1.343 . S
C758 C759 1.384 1_545 S
C758 C760 1.384 . S
C758 H786 0.931 . S
C759 C758 1.384 1_565 S
C759 C762 1.382 . S
C760 C758 1.384 . S
C760 C761 1.381 1_545 S
C760 H787 0.930 . S
C761 C760 1.381 1_565 S
C761 C763 1.381 . S
C761 C764 1.487 . S
C762 C759 1.382 . S
C762 C763 1.387 . S
C762 H788 0.930 . S
C763 C761 1.381 . S
C763 C762 1.387 . S
C763 H789 0.931 . S
C764 C761 1.487 . S
C764 C771 1.399 1_565 S
C764 N802 1.343 . S
C765 C766 1.384 1_565 S
C765 C767 1.384 . S
C765 H790 0.931 . S
C766 C765 1.384 1_545 S
C766 C769 1.382 . S
C767 C765 1.384 . S
C767 C768 1.381 1_565 S
C767 H791 0.930 . S
C768 C767 1.381 1_545 S
C768 C770 1.381 . S
C768 C771 1.487 . S
C769 C766 1.382 . S
C769 C770 1.387 . S
C769 H792 0.930 . S
C770 C768 1.381 . S
C770 C769 1.387 . S
C770 H793 0.931 . S
C771 C764 1.399 1_545 S
C771 C768 1.487 . S
C771 N803 1.343 . S
C772 C773 1.384 1_565 S
C772 C774 1.384 . S
C772 H794 0.931 . S
C773 C772 1.384 1_545 S
C773 C776 1.382 . S
C774 C772 1.384 . S
C774 C775 1.381 1_565 S
C774 H795 0.930 . S
C775 C774 1.381 1_545 S
C775 C777 1.381 . S
C775 C778 1.487 . S
C776 C773 1.382 . S
C776 C777 1.387 . S
C776 H796 0.930 . S
C777 C775 1.381 . S
C777 C776 1.387 . S
C777 H797 0.931 . S
C778 C775 1.487 . S
C778 C785 1.399 1_545 S
C778 N803 1.343 . S
C779 C780 1.384 1_545 S
C779 C781 1.384 . S
C779 H798 0.931 . S
C780 C779 1.384 1_565 S
C780 C783 1.382 . S
C781 C779 1.384 . S
C781 C782 1.381 1_545 S
C781 H799 0.930 . S
C782 C781 1.381 1_565 S
C782 C784 1.381 . S
C782 C785 1.487 . S
C783 C780 1.382 . S
C783 C784 1.387 . S
C783 H800 0.930 . S
C784 C782 1.381 . S
C784 C783 1.387 . S
C784 H801 0.931 . S
C785 C778 1.399 1_565 S
C785 C782 1.487 . S
C785 N802 1.343 . S
H786 C758 0.931 . S
H787 C760 0.930 . S
H788 C762 0.930 . S
H789 C763 0.931 . S
H790 C765 0.931 . S
H791 C767 0.930 . S
H792 C769 0.930 . S
H793 C770 0.931 . S
H794 C772 0.931 . S
H795 C774 0.930 . S
H796 C776 0.930 . S
H797 C777 0.931 . S
H798 C779 0.931 . S
H799 C781 0.930 . S
H800 C783 0.930 . S
H801 C784 0.931 . S
N802 C764 1.343 . S
N802 C785 1.343 . S
N803 C771 1.343 . S
N803 C778 1.343 . S
C804 C805 1.384 . S
C804 C806 1.384 . S
C804 H832 0.931 . S
C805 C804 1.384 . S
C805 C808 1.382 1_545 S
C806 C804 1.384 . S
C806 C807 1.382 . S
C806 H833 0.930 . S
C807 C806 1.382 . S
C807 C809 1.379 1_545 S
C807 C810 1.493 1_545 S
C808 C805 1.382 1_565 S
C808 C809 1.387 . S
C808 H834 0.930 . S
C809 C807 1.379 1_565 S
C809 C808 1.387 . S
C809 H835 0.931 . S
C810 C807 1.493 1_565 S
C810 C817 1.399 1_565 S
C810 N848 1.366 . S
C811 C812 1.384 . S
C811 C813 1.384 . S
C811 H836 0.931 . S
C812 C811 1.384 . S
C812 C815 1.382 1_565 S
C813 C811 1.384 . S
C813 C814 1.379 . S
C813 H837 0.930 . S
C814 C813 1.379 . S
C814 C816 1.383 1_565 S
C814 C817 1.479 1_565 S
C815 C812 1.382 1_545 S
C815 C816 1.387 . S
C815 H838 0.930 . S
C816 C814 1.383 1_545 S
C816 C815 1.387 . S
C816 H839 0.931 . S
C817 C810 1.399 1_545 S
C817 C814 1.479 1_545 S
C817 N849 1.353 . S
C818 C819 1.384 . S
C818 C820 1.384 . S
C818 H840 0.931 . S
C819 C818 1.384 . S
C819 C822 1.382 1_565 S
C820 C818 1.384 . S
C820 C821 1.382 1_565 S
C820 H841 0.930 . S
C821 C820 1.382 1_545 S
C821 C823 1.379 . S
C821 C824 1.499 . S
C822 C819 1.382 1_545 S
C822 C823 1.387 . S
C822 H842 0.930 . S
C823 C821 1.379 . S
C823 C822 1.387 . S
C823 H843 0.931 . S
C824 C821 1.499 . S
C824 C831 1.399 1_545 S
C824 N849 1.333 . S
C825 C826 1.384 . S
C825 C827 1.384 . S
C825 H844 0.931 . S
C826 C825 1.384 . S
C826 C829 1.382 1_545 S
C827 C825 1.384 . S
C827 C828 1.394 . S
C827 H845 0.930 . S
C828 C827 1.394 . S
C828 C830 1.375 1_545 S
C828 C831 1.479 1_545 S
C829 C826 1.382 1_565 S
C829 C830 1.387 . S
C829 H846 0.930 . S
C830 C828 1.375 1_565 S
C830 C829 1.387 . S
C830 H847 0.931 . S
C831 C824 1.399 1_565 S
C831 C828 1.479 1_565 S
C831 N848 1.317 . S
H832 C804 0.931 . S
H833 C806 0.930 . S
H834 C808 0.930 . S
H835 C809 0.931 . S
H836 C811 0.931 . S
H837 C813 0.930 . S
H838 C815 0.930 . S
H839 C816 0.931 . S
H840 C818 0.931 . S
H841 C820 0.930 . S
H842 C822 0.930 . S
H843 C823 0.931 . S
H844 C825 0.931 . S
H845 C827 0.930 . S
H846 C829 0.930 . S
H847 C830 0.931 . S
N848 C810 1.366 . S
N848 C831 1.317 . S
N849 C817 1.353 . S
N849 C824 1.333 . S
C850 C851 1.384 . S
C850 C852 1.384 . S
C850 H878 0.931 . S
C851 C850 1.384 . S
C851 C854 1.382 1_655 S
C852 C850 1.384 . S
C852 C853 1.397 . S
C852 H879 0.930 . S
C853 C852 1.397 . S
C853 C855 1.373 1_655 S
C853 C856 1.478 1_655 S
C854 C851 1.382 1_455 S
C854 C855 1.387 . S
C854 H880 0.930 . S
C855 C853 1.373 1_455 S
C855 C854 1.387 . S
C855 H881 0.931 . S
C856 C853 1.478 1_455 S
C856 C863 1.399 1_455 S
C856 N894 1.317 . S
C857 C858 1.384 . S
C857 C859 1.384 . S
C857 H882 0.931 . S
C858 C857 1.384 . S
C858 C861 1.382 1_455 S
C859 C857 1.384 . S
C859 C860 1.380 . S
C859 H883 0.930 . S
C860 C859 1.380 . S
C860 C862 1.386 1_455 S
C860 C863 1.493 1_455 S
C861 C858 1.382 1_655 S
C861 C862 1.387 . S
C861 H884 0.930 . S
C862 C860 1.386 1_655 S
C862 C861 1.387 . S
C862 H885 0.931 . S
C863 C856 1.399 1_655 S
C863 C860 1.493 1_655 S
C863 N895 1.334 . S
C864 C865 1.384 . S
C864 C866 1.384 . S
C864 H886 0.931 . S
C865 C864 1.384 . S
C865 C868 1.382 1_455 S
C866 C864 1.384 . S
C866 C867 1.382 . S
C866 H887 0.930 . S
C867 C866 1.382 . S
C867 C869 1.381 1_455 S
C867 C870 1.478 1_455 S
C868 C865 1.382 1_655 S
C868 C869 1.387 . S
C868 H888 0.930 . S
C869 C867 1.381 1_655 S
C869 C868 1.387 . S
C869 H889 0.931 . S
C870 C867 1.478 1_655 S
C870 C877 1.399 1_655 S
C870 N895 1.352 . S
C871 C872 1.384 . S
C871 C873 1.384 . S
C871 H890 0.931 . S
C872 C871 1.384 . S
C872 C875 1.382 1_655 S
C873 C871 1.384 . S
C873 C874 1.383 . S
C873 H891 0.930 . S
C874 C873 1.383 . S
C874 C876 1.377 1_655 S
C874 C877 1.493 1_655 S
C875 C872 1.382 1_455 S
C875 C876 1.387 . S
C875 H892 0.930 . S
C876 C874 1.377 1_455 S
C876 C875 1.387 . S
C876 H893 0.931 . S
C877 C870 1.399 1_455 S
C877 C874 1.493 1_455 S
C877 N894 1.366 . S
H878 C850 0.931 . S
H879 C852 0.930 . S
H880 C854 0.930 . S
H881 C855 0.931 . S
H882 C857 0.931 . S
H883 C859 0.930 . S
H884 C861 0.930 . S
H885 C862 0.931 . S
H886 C864 0.931 . S
H887 C866 0.930 . S
H888 C868 0.930 . S
H889 C869 0.931 . S
H890 C871 0.931 . S
H891 C873 0.930 . S
H892 C875 0.930 . S
H893 C876 0.931 . S
N894 C856 1.317 . S
N894 C877 1.366 . S
N895 C863 1.334 . S
N895 C870 1.352 . S
C896 C897 1.384 . S
C896 C898 1.384 . S
C896 H924 0.931 . S
C897 C896 1.384 . S
C897 C900 1.382 . S
C898 C896 1.384 . S
C898 C899 1.381 . S
C898 H925 0.930 . S
C899 C898 1.381 . S
C899 C901 1.381 . S
C899 C902 1.487 . S
C900 C897 1.382 . S
C900 C901 1.387 . S
C900 H926 0.930 . S
C901 C899 1.381 . S
C901 C900 1.387 . S
C901 H927 0.931 . S
C902 C899 1.487 . S
C902 C909 1.399 . S
C902 N940 1.343 . S
C903 C904 1.384 . S
C903 C905 1.384 . S
C903 H928 0.931 . S
C904 C903 1.384 . S
C904 C907 1.382 . S
C905 C903 1.384 . S
C905 C906 1.381 . S
C905 H929 0.930 . S
C906 C905 1.381 . S
C906 C908 1.381 . S
C906 C909 1.487 . S
C907 C904 1.382 . S
C907 C908 1.387 . S
C907 H930 0.930 . S
C908 C906 1.381 . S
C908 C907 1.387 . S
C908 H931 0.931 . S
C909 C902 1.399 . S
C909 C906 1.487 . S
C909 N941 1.343 . S
C910 C911 1.384 . S
C910 C912 1.384 . S
C910 H932 0.931 . S
C911 C910 1.384 . S
C911 C914 1.382 . S
C912 C910 1.384 . S
C912 C913 1.381 . S
C912 H933 0.930 . S
C913 C912 1.381 . S
C913 C915 1.381 . S
C913 C916 1.487 . S
C914 C911 1.382 . S
C914 C915 1.387 . S
C914 H934 0.930 . S
C915 C913 1.381 . S
C915 C914 1.387 . S
C915 H935 0.931 . S
C916 C913 1.487 . S
C916 C923 1.399 . S
C916 N941 1.343 . S
C917 C918 1.384 . S
C917 C919 1.384 . S
C917 H936 0.931 . S
C918 C917 1.384 . S
C918 C921 1.382 . S
C919 C917 1.384 . S
C919 C920 1.381 . S
C919 H937 0.930 . S
C920 C919 1.381 . S
C920 C922 1.381 . S
C920 C923 1.487 . S
C921 C918 1.382 . S
C921 C922 1.387 . S
C921 H938 0.930 . S
C922 C920 1.381 . S
C922 C921 1.387 . S
C922 H939 0.931 . S
C923 C916 1.399 . S
C923 C920 1.487 . S
C923 N940 1.343 . S
H924 C896 0.931 . S
H925 C898 0.930 . S
H926 C900 0.930 . S
H927 C901 0.931 . S
H928 C903 0.931 . S
H929 C905 0.930 . S
H930 C907 0.930 . S
H931 C908 0.931 . S
H932 C910 0.931 . S
H933 C912 0.930 . S
H934 C914 0.930 . S
H935 C915 0.931 . S
H936 C917 0.931 . S
H937 C919 0.930 . S
H938 C921 0.930 . S
H939 C922 0.931 . S
N940 C902 1.343 . S
N940 C923 1.343 . S
N941 C909 1.343 . S
N941 C916 1.343 . S
C942 C943 1.384 . S
C942 C944 1.384 . S
C942 H970 0.931 . S
C943 C942 1.384 . S
C943 C946 1.382 . S
C944 C942 1.384 . S
C944 C945 1.381 . S
C944 H971 0.930 . S
C945 C944 1.381 . S
C945 C947 1.381 . S
C945 C948 1.487 . S
C946 C943 1.382 . S
C946 C947 1.387 . S
C946 H972 0.930 . S
C947 C945 1.381 . S
C947 C946 1.387 . S
C947 H973 0.931 . S
C948 C945 1.487 . S
C948 C955 1.399 . S
C948 N986 1.343 . S
C949 C950 1.384 . S
C949 C951 1.384 . S
C949 H974 0.931 . S
C950 C949 1.384 . S
C950 C953 1.382 . S
C951 C949 1.384 . S
C951 C952 1.381 . S
C951 H975 0.930 . S
C952 C951 1.381 . S
C952 C954 1.381 . S
C952 C955 1.487 . S
C953 C950 1.382 . S
C953 C954 1.387 . S
C953 H976 0.930 . S
C954 C952 1.381 . S
C954 C953 1.387 . S
C954 H977 0.931 . S
C955 C948 1.399 . S
C955 C952 1.487 . S
C955 N987 1.343 . S
C956 C957 1.384 . S
C956 C958 1.384 . S
C956 H978 0.931 . S
C957 C956 1.384 . S
C957 C960 1.382 . S
C958 C956 1.384 . S
C958 C959 1.381 . S
C958 H979 0.930 . S
C959 C958 1.381 . S
C959 C961 1.381 . S
C959 C962 1.487 . S
C960 C957 1.382 . S
C960 C961 1.387 . S
C960 H980 0.930 . S
C961 C959 1.381 . S
C961 C960 1.387 . S
C961 H981 0.931 . S
C962 C959 1.487 . S
C962 C969 1.399 . S
C962 N987 1.343 . S
C963 C964 1.384 . S
C963 C965 1.384 . S
C963 H982 0.931 . S
C964 C963 1.384 . S
C964 C967 1.382 . S
C965 C963 1.384 . S
C965 C966 1.381 . S
C965 H983 0.930 . S
C966 C965 1.381 . S
C966 C968 1.381 . S
C966 C969 1.487 . S
C967 C964 1.382 . S
C967 C968 1.387 . S
C967 H984 0.930 . S
C968 C966 1.381 . S
C968 C967 1.387 . S
C968 H985 0.931 . S
C969 C962 1.399 . S
C969 C966 1.487 . S
C969 N986 1.343 . S
H970 C942 0.931 . S
H971 C944 0.930 . S
H972 C946 0.930 . S
H973 C947 0.931 . S
H974 C949 0.931 . S
H975 C951 0.930 . S
H976 C953 0.930 . S
H977 C954 0.931 . S
H978 C956 0.931 . S
H979 C958 0.930 . S
H980 C960 0.930 . S
H981 C961 0.931 . S
H982 C963 0.931 . S
H983 C965 0.930 . S
H984 C967 0.930 . S
H985 C968 0.931 . S
N986 C948 1.343 . S
N986 C969 1.343 . S
N987 C955 1.343 . S
N987 C962 1.343 . S
C988 C989 1.384 . S
C988 C990 1.384 . S
C988 H1016 0.931 . S
C989 C988 1.384 . S
C989 C992 1.382 . S
C990 C988 1.384 . S
C990 C991 1.381 . S
C990 H1017 0.930 . S
C991 C990 1.381 . S
C991 C993 1.381 . S
C991 C994 1.487 . S
C992 C989 1.382 . S
C992 C993 1.387 . S
C992 H1018 0.930 . S
C993 C991 1.381 . S
C993 C992 1.387 . S
C993 H1019 0.931 . S
C994 C991 1.487 . S
C994 C1001 1.399 . S
C994 N1032 1.343 . S
C995 C996 1.384 . S
C995 C997 1.384 . S
C995 H1020 0.931 . S
C996 C995 1.384 . S
C996 C999 1.382 . S
C997 C995 1.384 . S
C997 C998 1.381 . S
C997 H1021 0.930 . S
C998 C997 1.381 . S
C998 C1000 1.381 . S
C998 C1001 1.487 . S
C999 C996 1.382 . S
C999 C1000 1.387 . S
C999 H1022 0.930 . S
C1000 C998 1.381 . S
C1000 C999 1.387 . S
C1000 H1023 0.931 . S
C1001 C994 1.399 . S
C1001 C998 1.487 . S
C1001 N1033 1.343 . S
C1002 C1003 1.384 . S
C1002 C1004 1.384 . S
C1002 H1024 0.931 . S
C1003 C1002 1.384 . S
C1003 C1006 1.382 . S
C1004 C1002 1.384 . S
C1004 C1005 1.381 . S
C1004 H1025 0.930 . S
C1005 C1004 1.381 . S
C1005 C1007 1.381 . S
C1005 C1008 1.487 . S
C1006 C1003 1.382 . S
C1006 C1007 1.387 . S
C1006 H1026 0.930 . S
C1007 C1005 1.381 . S
C1007 C1006 1.387 . S
C1007 H1027 0.931 . S
C1008 C1005 1.487 . S
C1008 C1015 1.399 . S
C1008 N1033 1.343 . S
C1009 C1010 1.384 . S
C1009 C1011 1.384 . S
C1009 H1028 0.931 . S
C1010 C1009 1.384 . S
C1010 C1013 1.382 . S
C1011 C1009 1.384 . S
C1011 C1012 1.381 . S
C1011 H1029 0.930 . S
C1012 C1011 1.381 . S
C1012 C1014 1.381 . S
C1012 C1015 1.487 . S
C1013 C1010 1.382 . S
C1013 C1014 1.387 . S
C1013 H1030 0.930 . S
C1014 C1012 1.381 . S
C1014 C1013 1.387 . S
C1014 H1031 0.931 . S
C1015 C1008 1.399 . S
C1015 C1012 1.487 . S
C1015 N1032 1.343 . S
H1016 C988 0.931 . S
H1017 C990 0.930 . S
H1018 C992 0.930 . S
H1019 C993 0.931 . S
H1020 C995 0.931 . S
H1021 C997 0.930 . S
H1022 C999 0.930 . S
H1023 C1000 0.931 . S
H1024 C1002 0.931 . S
H1025 C1004 0.930 . S
H1026 C1006 0.930 . S
H1027 C1007 0.931 . S
H1028 C1009 0.931 . S
H1029 C1011 0.930 . S
H1030 C1013 0.930 . S
H1031 C1014 0.931 . S
N1032 C994 1.343 . S
N1032 C1015 1.343 . S
N1033 C1001 1.343 . S
N1033 C1008 1.343 . S
C1034 C1035 1.384 . S
C1034 C1036 1.384 . S
C1034 H1062 0.931 . S
C1035 C1034 1.384 . S
C1035 C1038 1.382 . S
C1036 C1034 1.384 . S
C1036 C1037 1.381 . S
C1036 H1063 0.930 . S
C1037 C1036 1.381 . S
C1037 C1039 1.381 . S
C1037 C1040 1.487 . S
C1038 C1035 1.382 . S
C1038 C1039 1.387 . S
C1038 H1064 0.930 . S
C1039 C1037 1.381 . S
C1039 C1038 1.387 . S
C1039 H1065 0.931 . S
C1040 C1037 1.487 . S
C1040 C1047 1.399 . S
C1040 N1078 1.343 . S
C1041 C1042 1.384 . S
C1041 C1043 1.384 . S
C1041 H1066 0.931 . S
C1042 C1041 1.384 . S
C1042 C1045 1.382 . S
C1043 C1041 1.384 . S
C1043 C1044 1.381 . S
C1043 H1067 0.930 . S
C1044 C1043 1.381 . S
C1044 C1046 1.381 . S
C1044 C1047 1.487 . S
C1045 C1042 1.382 . S
C1045 C1046 1.387 . S
C1045 H1068 0.930 . S
C1046 C1044 1.381 . S
C1046 C1045 1.387 . S
C1046 H1069 0.931 . S
C1047 C1040 1.399 . S
C1047 C1044 1.487 . S
C1047 N1079 1.343 . S
C1048 C1049 1.384 . S
C1048 C1050 1.384 . S
C1048 H1070 0.931 . S
C1049 C1048 1.384 . S
C1049 C1052 1.382 . S
C1050 C1048 1.384 . S
C1050 C1051 1.381 . S
C1050 H1071 0.930 . S
C1051 C1050 1.381 . S
C1051 C1053 1.381 . S
C1051 C1054 1.487 . S
C1052 C1049 1.382 . S
C1052 C1053 1.387 . S
C1052 H1072 0.930 . S
C1053 C1051 1.381 . S
C1053 C1052 1.387 . S
C1053 H1073 0.931 . S
C1054 C1051 1.487 . S
C1054 C1061 1.399 . S
C1054 N1079 1.343 . S
C1055 C1056 1.384 . S
C1055 C1057 1.384 . S
C1055 H1074 0.931 . S
C1056 C1055 1.384 . S
C1056 C1059 1.382 . S
C1057 C1055 1.384 . S
C1057 C1058 1.381 . S
C1057 H1075 0.930 . S
C1058 C1057 1.381 . S
C1058 C1060 1.381 . S
C1058 C1061 1.487 . S
C1059 C1056 1.382 . S
C1059 C1060 1.387 . S
C1059 H1076 0.930 . S
C1060 C1058 1.381 . S
C1060 C1059 1.387 . S
C1060 H1077 0.931 . S
C1061 C1054 1.399 . S
C1061 C1058 1.487 . S
C1061 N1078 1.343 . S
H1062 C1034 0.931 . S
H1063 C1036 0.930 . S
H1064 C1038 0.930 . S
H1065 C1039 0.931 . S
H1066 C1041 0.931 . S
H1067 C1043 0.930 . S
H1068 C1045 0.930 . S
H1069 C1046 0.931 . S
H1070 C1048 0.931 . S
H1071 C1050 0.930 . S
H1072 C1052 0.930 . S
H1073 C1053 0.931 . S
H1074 C1055 0.931 . S
H1075 C1057 0.930 . S
H1076 C1059 0.930 . S
H1077 C1060 0.931 . S
N1078 C1040 1.343 . S
N1078 C1061 1.343 . S
N1079 C1047 1.343 . S
N1079 C1054 1.343 . S
H1080 C1086 0.930 . S
H1081 C1089 0.928 1_455 S
H1082 C1090 0.940 1_455 S
H1083 C1091 0.963 1_455 S
H1084 C1094 0.930 . S
H1085 C1095 0.930 . S
C1086 H1080 0.930 . S
C1086 C1087 1.355 . S
C1086 C1088 1.415 . S
C1087 C1086 1.355 . S
C1087 C1089 1.416 . S
C1088 C1086 1.415 . S
C1088 C1093 1.425 . S
C1088 C1095 1.409 . S
C1089 H1081 0.928 1_655 S
C1089 C1087 1.416 . S
C1089 C1090 1.359 . S
C1090 H1082 0.940 1_655 S
C1090 C1089 1.359 . S
C1090 C1093 1.410 . S
C1091 H1083 0.963 1_655 S
C1091 C1092 1.359 . S
C1091 C1093 1.395 . S
C1092 C1091 1.359 . S
C1092 C1094 1.419 . S
C1093 C1088 1.425 . S
C1093 C1090 1.410 . S
C1093 C1091 1.395 . S
C1094 H1084 0.930 . S
C1094 C1092 1.419 . S
C1094 C1095 1.362 . S
C1095 H1085 0.930 . S
C1095 C1088 1.409 . S
C1095 C1094 1.362 . S
H1096 C1102 0.930 . S
H1097 C1105 0.930 . S
H1098 C1106 0.930 . S
H1099 C1107 0.930 . S
H1100 C1110 0.930 . S
H1101 C1111 0.930 . S
C1102 H1096 0.930 . S
C1102 C1103 1.355 . S
C1102 C1104 1.415 . S
C1103 C1102 1.355 . S
C1103 C1105 1.419 . S
C1104 C1102 1.415 . S
C1104 C1109 1.425 . S
C1104 C1111 1.409 . S
C1105 H1097 0.930 . S
C1105 C1103 1.419 . S
C1105 C1106 1.362 . S
C1106 H1098 0.930 . S
C1106 C1105 1.362 . S
C1106 C1109 1.409 . S
C1107 H1099 0.930 . S
C1107 C1108 1.355 . S
C1107 C1109 1.415 . S
C1108 C1107 1.355 . S
C1108 C1110 1.419 . S
C1109 C1104 1.425 . S
C1109 C1106 1.409 . S
C1109 C1107 1.415 . S
C1110 H1100 0.930 . S
C1110 C1108 1.419 . S
C1110 C1111 1.362 . S
C1111 H1101 0.930 . S
C1111 C1104 1.409 . S
C1111 C1110 1.362 . S
H1112 C1118 0.930 . S
H1113 C1121 0.930 . S
H1114 C1122 0.930 . S
H1115 C1123 0.930 . S
H1116 C1126 0.930 . S
H1117 C1127 0.930 . S
C1118 H1112 0.930 . S
C1118 C1119 1.355 1_565 S
C1118 C1120 1.415 . S
C1119 C1118 1.355 1_545 S
C1119 C1121 1.419 . S
C1120 C1118 1.415 . S
C1120 C1125 1.425 1_565 S
C1120 C1127 1.409 . S
C1121 H1113 0.930 . S
C1121 C1119 1.419 . S
C1121 C1122 1.362 . S
C1122 H1114 0.930 . S
C1122 C1121 1.362 . S
C1122 C1125 1.409 . S
C1123 H1115 0.930 . S
C1123 C1124 1.355 . S
C1123 C1125 1.415 . S
C1124 C1123 1.355 . S
C1124 C1126 1.419 1_545 S
C1125 C1120 1.425 1_545 S
C1125 C1122 1.409 . S
C1125 C1123 1.415 . S
C1126 H1116 0.930 . S
C1126 C1124 1.419 1_565 S
C1126 C1127 1.362 . S
C1127 H1117 0.930 . S
C1127 C1120 1.409 . S
C1127 C1126 1.362 . S
H1128 C1134 0.930 . S
H1129 C1137 0.930 . S
H1130 C1138 0.952 . S
H1131 C1139 0.968 1_545 S
H1132 C1142 0.930 . S
H1133 C1143 0.930 . S
C1134 H1128 0.930 . S
C1134 C1135 1.355 . S
C1134 C1136 1.415 . S
C1135 C1134 1.355 . S
C1135 C1137 1.418 1_565 S
C1136 C1134 1.415 . S
C1136 C1141 1.425 . S
C1136 C1143 1.409 . S
C1137 H1129 0.930 . S
C1137 C1135 1.418 1_545 S
C1137 C1138 1.360 . S
C1138 H1130 0.952 . S
C1138 C1137 1.360 . S
C1138 C1141 1.410 1_545 S
C1139 H1131 0.968 1_565 S
C1139 C1140 1.358 . S
C1139 C1141 1.401 . S
C1140 C1139 1.358 . S
C1140 C1142 1.419 . S
C1141 C1136 1.425 . S
C1141 C1138 1.410 1_565 S
C1141 C1139 1.401 . S
C1142 H1132 0.930 . S
C1142 C1140 1.419 . S
C1142 C1143 1.362 . S
C1143 H1133 0.930 . S
C1143 C1136 1.409 . S
C1143 C1142 1.362 . S
H1144 C1150 0.930 . S
H1145 C1153 0.930 . S
H1146 C1154 0.930 . S
H1147 C1155 0.930 . S
H1148 C1158 0.930 . S
H1149 C1159 0.930 . S
C1150 H1144 0.930 . S
C1150 C1151 1.355 . S
C1150 C1152 1.415 . S
C1151 C1150 1.355 . S
C1151 C1153 1.419 1_455 S
C1152 C1150 1.415 . S
C1152 C1157 1.425 1_455 S
C1152 C1159 1.409 . S
C1153 H1145 0.930 . S
C1153 C1151 1.419 1_655 S
C1153 C1154 1.362 . S
C1154 H1146 0.930 . S
C1154 C1153 1.362 . S
C1154 C1157 1.409 . S
C1155 H1147 0.930 . S
C1155 C1156 1.355 1_655 S
C1155 C1157 1.415 . S
C1156 C1155 1.355 1_455 S
C1156 C1158 1.419 . S
C1157 C1152 1.425 1_655 S
C1157 C1154 1.409 . S
C1157 C1155 1.415 . S
C1158 H1148 0.930 . S
C1158 C1156 1.419 . S
C1158 C1159 1.362 . S
C1159 H1149 0.930 . S
C1159 C1152 1.409 . S
C1159 C1158 1.362 . S
H1160 C1166 0.930 . S
H1161 C1169 0.930 . S
H1162 C1170 0.930 . S
H1163 C1171 0.930 . S
H1164 C1174 0.930 . S
H1165 C1175 0.930 . S
C1166 H1160 0.930 . S
C1166 C1167 1.355 . S
C1166 C1168 1.415 . S
C1167 C1166 1.355 . S
C1167 C1169 1.419 . S
C1168 C1166 1.415 . S
C1168 C1173 1.425 . S
C1168 C1175 1.409 . S
C1169 H1161 0.930 . S
C1169 C1167 1.419 . S
C1169 C1170 1.362 . S
C1170 H1162 0.930 . S
C1170 C1169 1.362 . S
C1170 C1173 1.409 . S
C1171 H1163 0.930 . S
C1171 C1172 1.355 . S
C1171 C1173 1.415 . S
C1172 C1171 1.355 . S
C1172 C1174 1.419 . S
C1173 C1168 1.425 . S
C1173 C1170 1.409 . S
C1173 C1171 1.415 . S
C1174 H1164 0.930 . S
C1174 C1172 1.419 . S
C1174 C1175 1.362 . S
C1175 H1165 0.930 . S
C1175 C1168 1.409 . S
C1175 C1174 1.362 . S
H1176 C1182 0.930 . S
H1177 C1185 0.929 1_655 S
H1178 C1186 0.960 1_655 S
H1179 C1187 0.930 . S
H1180 C1190 0.930 . S
H1181 C1191 0.930 . S
C1182 H1176 0.930 . S
C1182 C1183 1.355 . S
C1182 C1184 1.415 . S
C1183 C1182 1.355 . S
C1183 C1185 1.410 . S
C1184 C1182 1.415 . S
C1184 C1189 1.425 . S
C1184 C1191 1.409 . S
C1185 H1177 0.929 1_455 S
C1185 C1183 1.410 . S
C1185 C1186 1.363 . S
C1186 H1178 0.960 1_455 S
C1186 C1185 1.363 . S
C1186 C1189 1.411 . S
C1187 H1179 0.930 . S
C1187 C1188 1.355 . S
C1187 C1189 1.415 . S
C1188 C1187 1.355 . S
C1188 C1190 1.419 . S
C1189 C1184 1.425 . S
C1189 C1186 1.411 . S
C1189 C1187 1.415 . S
C1190 H1180 0.930 . S
C1190 C1188 1.419 . S
C1190 C1191 1.362 . S
C1191 H1181 0.930 . S
C1191 C1184 1.409 . S
C1191 C1190 1.362 . S
H1192 C1198 0.930 . S
H1193 C1201 0.930 . S
H1194 C1202 0.930 . S
H1195 C1203 0.930 . S
H1196 C1206 0.930 . S
H1197 C1207 0.930 . S
C1198 H1192 0.930 . S
C1198 C1199 1.355 . S
C1198 C1200 1.415 . S
C1199 C1198 1.355 . S
C1199 C1201 1.419 . S
C1200 C1198 1.415 . S
C1200 C1205 1.425 . S
C1200 C1207 1.409 . S
C1201 H1193 0.930 . S
C1201 C1199 1.419 . S
C1201 C1202 1.362 . S
C1202 H1194 0.930 . S
C1202 C1201 1.362 . S
C1202 C1205 1.409 . S
C1203 H1195 0.930 . S
C1203 C1204 1.355 . S
C1203 C1205 1.415 . S
C1204 C1203 1.355 . S
C1204 C1206 1.419 . S
C1205 C1200 1.425 . S
C1205 C1202 1.409 . S
C1205 C1203 1.415 . S
C1206 H1196 0.930 . S
C1206 C1204 1.419 . S
C1206 C1207 1.362 . S
C1207 H1197 0.930 . S
C1207 C1200 1.409 . S
C1207 C1206 1.362 . S
H1208 C1214 0.930 . S
H1209 C1217 0.930 . S
H1210 C1218 0.930 . S
H1211 C1219 0.930 . S
H1212 C1222 0.930 . S
H1213 C1223 0.930 . S
C1214 H1208 0.930 . S
C1214 C1215 1.355 1_545 S
C1214 C1216 1.415 . S
C1215 C1214 1.355 1_565 S
C1215 C1217 1.419 . S
C1216 C1214 1.415 . S
C1216 C1221 1.425 1_545 S
C1216 C1223 1.409 . S
C1217 H1209 0.930 . S
C1217 C1215 1.419 . S
C1217 C1218 1.362 . S
C1218 H1210 0.930 . S
C1218 C1217 1.362 . S
C1218 C1221 1.409 . S
C1219 H1211 0.930 . S
C1219 C1220 1.355 . S
C1219 C1221 1.415 . S
C1220 C1219 1.355 . S
C1220 C1222 1.419 1_565 S
C1221 C1216 1.425 1_565 S
C1221 C1218 1.409 . S
C1221 C1219 1.415 . S
C1222 H1212 0.930 . S
C1222 C1220 1.419 1_545 S
C1222 C1223 1.362 . S
C1223 H1213 0.930 . S
C1223 C1216 1.409 . S
C1223 C1222 1.362 . S
H1224 C1230 0.932 . S
H1225 C1233 0.930 . S
H1226 C1234 0.930 . S
H1227 C1235 0.930 . S
H1228 C1238 0.930 . S
H1229 C1239 0.930 . S
C1230 H1224 0.932 . S
C1230 C1231 1.367 1_565 S
C1230 C1232 1.401 . S
C1231 C1230 1.367 1_545 S
C1231 C1233 1.419 . S
C1232 C1230 1.401 . S
C1232 C1237 1.425 1_565 S
C1232 C1239 1.409 . S
C1233 H1225 0.930 . S
C1233 C1231 1.419 . S
C1233 C1234 1.362 . S
C1234 H1226 0.930 . S
C1234 C1233 1.362 . S
C1234 C1237 1.409 . S
C1235 H1227 0.930 . S
C1235 C1236 1.355 . S
C1235 C1237 1.415 . S
C1236 C1235 1.355 . S
C1236 C1238 1.419 1_545 S
C1237 C1232 1.425 1_545 S
C1237 C1234 1.409 . S
C1237 C1235 1.415 . S
C1238 H1228 0.930 . S
C1238 C1236 1.419 1_565 S
C1238 C1239 1.362 . S
C1239 H1229 0.930 . S
C1239 C1232 1.409 . S
C1239 C1238 1.362 . S
H1240 C1246 0.930 . S
H1241 C1249 0.930 . S
H1242 C1250 0.930 . S
H1243 C1251 0.930 . S
H1244 C1254 0.930 . S
H1245 C1255 0.930 . S
C1246 H1240 0.930 . S
C1246 C1247 1.365 . S
C1246 C1248 1.415 . S
C1247 C1246 1.365 . S
C1247 C1249 1.385 1_655 S
C1248 C1246 1.415 . S
C1248 C1253 1.425 1_655 S
C1248 C1255 1.409 . S
C1249 H1241 0.930 . S
C1249 C1247 1.385 1_455 S
C1249 C1250 1.362 . S
C1250 H1242 0.930 . S
C1250 C1249 1.362 . S
C1250 C1253 1.409 . S
C1251 H1243 0.930 . S
C1251 C1252 1.355 1_455 S
C1251 C1253 1.415 . S
C1252 C1251 1.355 1_655 S
C1252 C1254 1.419 . S
C1253 C1248 1.425 1_455 S
C1253 C1250 1.409 . S
C1253 C1251 1.415 . S
C1254 H1244 0.930 . S
C1254 C1252 1.419 . S
C1254 C1255 1.362 . S
C1255 H1245 0.930 . S
C1255 C1248 1.409 . S
C1255 C1254 1.362 . S
H1256 C1262 0.930 . S
H1257 C1265 0.930 . S
H1258 C1266 0.930 . S
H1259 C1267 0.930 . S
H1260 C1270 0.930 . S
H1261 C1271 0.930 . S
C1262 H1256 0.930 . S
C1262 C1263 1.355 . S
C1262 C1264 1.415 . S
C1263 C1262 1.355 . S
C1263 C1265 1.419 . S
C1264 C1262 1.415 . S
C1264 C1269 1.425 . S
C1264 C1271 1.409 . S
C1265 H1257 0.930 . S
C1265 C1263 1.419 . S
C1265 C1266 1.362 . S
C1266 H1258 0.930 . S
C1266 C1265 1.362 . S
C1266 C1269 1.409 . S
C1267 H1259 0.930 . S
C1267 C1268 1.355 . S
C1267 C1269 1.415 . S
C1268 C1267 1.355 . S
C1268 C1270 1.419 . S
C1269 C1264 1.425 . S
C1269 C1266 1.409 . S
C1269 C1267 1.415 . S
C1270 H1260 0.930 . S
C1270 C1268 1.419 . S
C1270 C1271 1.362 . S
C1271 H1261 0.930 . S
C1271 C1264 1.409 . S
C1271 C1270 1.362 . S
H1272 C1278 0.930 . S
H1273 C1281 0.930 . S
H1274 C1282 0.930 . S
H1275 C1283 0.930 . S
H1276 C1286 0.930 . S
H1277 C1287 0.930 . S
C1278 H1272 0.930 . S
C1278 C1279 1.355 . S
C1278 C1280 1.415 . S
C1279 C1278 1.355 . S
C1279 C1281 1.419 . S
C1280 C1278 1.415 . S
C1280 C1285 1.425 . S
C1280 C1287 1.409 . S
C1281 H1273 0.930 . S
C1281 C1279 1.419 . S
C1281 C1282 1.362 . S
C1282 H1274 0.930 . S
C1282 C1281 1.362 . S
C1282 C1285 1.409 . S
C1283 H1275 0.930 . S
C1283 C1284 1.355 . S
C1283 C1285 1.415 . S
C1284 C1283 1.355 . S
C1284 C1286 1.419 . S
C1285 C1280 1.425 . S
C1285 C1282 1.409 . S
C1285 C1283 1.415 . S
C1286 H1276 0.930 . S
C1286 C1284 1.419 . S
C1286 C1287 1.362 . S
C1287 H1277 0.930 . S
C1287 C1280 1.409 . S
C1287 C1286 1.362 . S
H1288 C1294 0.930 . S
H1289 C1297 0.930 . S
H1290 C1298 0.930 . S
H1291 C1299 0.930 . S
H1292 C1302 0.930 . S
H1293 C1303 0.930 . S
C1294 H1288 0.930 . S
C1294 C1295 1.355 . S
C1294 C1296 1.415 . S
C1295 C1294 1.355 . S
C1295 C1297 1.419 . S
C1296 C1294 1.415 . S
C1296 C1301 1.425 . S
C1296 C1303 1.409 . S
C1297 H1289 0.930 . S
C1297 C1295 1.419 . S
C1297 C1298 1.362 . S
C1298 H1290 0.930 . S
C1298 C1297 1.362 . S
C1298 C1301 1.409 . S
C1299 H1291 0.930 . S
C1299 C1300 1.355 . S
C1299 C1301 1.415 . S
C1300 C1299 1.355 . S
C1300 C1302 1.419 . S
C1301 C1296 1.425 . S
C1301 C1298 1.409 . S
C1301 C1299 1.415 . S
C1302 H1292 0.930 . S
C1302 C1300 1.419 . S
C1302 C1303 1.362 . S
C1303 H1293 0.930 . S
C1303 C1296 1.409 . S
C1303 C1302 1.362 . S
H1304 C1310 0.930 . S
H1305 C1313 0.930 . S
H1306 C1314 0.930 . S
H1307 C1315 0.930 . S
H1308 C1318 0.930 . S
H1309 C1319 0.930 . S
C1310 H1304 0.930 . S
C1310 C1311 1.355 . S
C1310 C1312 1.415 . S
C1311 C1310 1.355 . S
C1311 C1313 1.419 . S
C1312 C1310 1.415 . S
C1312 C1317 1.425 . S
C1312 C1319 1.409 . S
C1313 H1305 0.930 . S
C1313 C1311 1.419 . S
C1313 C1314 1.362 . S
C1314 H1306 0.930 . S
C1314 C1313 1.362 . S
C1314 C1317 1.409 . S
C1315 H1307 0.930 . S
C1315 C1316 1.355 . S
C1315 C1317 1.415 . S
C1316 C1315 1.355 . S
C1316 C1318 1.419 . S
C1317 C1312 1.425 . S
C1317 C1314 1.409 . S
C1317 C1315 1.415 . S
C1318 H1308 0.930 . S
C1318 C1316 1.419 . S
C1318 C1319 1.362 . S
C1319 H1309 0.930 . S
C1319 C1312 1.409 . S
C1319 C1318 1.362 . S
H1320 C1326 0.930 . S
H1321 C1329 0.930 . S
H1322 C1330 0.930 . S
H1323 C1331 0.930 . S
H1324 C1334 0.930 . S
H1325 C1335 0.930 . S
C1326 H1320 0.930 . S
C1326 C1327 1.355 . S
C1326 C1328 1.415 . S
C1327 C1326 1.355 . S
C1327 C1329 1.419 . S
C1328 C1326 1.415 . S
C1328 C1333 1.425 . S
C1328 C1335 1.409 . S
C1329 H1321 0.930 . S
C1329 C1327 1.419 . S
C1329 C1330 1.362 . S
C1330 H1322 0.930 . S
C1330 C1329 1.362 . S
C1330 C1333 1.409 . S
C1331 H1323 0.930 . S
C1331 C1332 1.355 . S
C1331 C1333 1.415 . S
C1332 C1331 1.355 . S
C1332 C1334 1.419 . S
C1333 C1328 1.425 . S
C1333 C1330 1.409 . S
C1333 C1331 1.415 . S
C1334 H1324 0.930 . S
C1334 C1332 1.419 . S
C1334 C1335 1.362 . S
C1335 H1325 0.930 . S
C1335 C1328 1.409 . S
C1335 C1334 1.362 . S
H1336 C1342 0.930 . S
H1337 C1345 0.930 . S
H1338 C1346 0.930 . S
H1339 C1347 0.930 . S
H1340 C1350 0.930 . S
H1341 C1351 0.930 . S
C1342 H1336 0.930 . S
C1342 C1343 1.355 . S
C1342 C1344 1.415 . S
C1343 C1342 1.355 . S
C1343 C1345 1.419 . S
C1344 C1342 1.415 . S
C1344 C1349 1.425 . S
C1344 C1351 1.409 . S
C1345 H1337 0.930 . S
C1345 C1343 1.419 . S
C1345 C1346 1.362 . S
C1346 H1338 0.930 . S
C1346 C1345 1.362 . S
C1346 C1349 1.409 . S
C1347 H1339 0.930 . S
C1347 C1348 1.355 . S
C1347 C1349 1.415 . S
C1348 C1347 1.355 . S
C1348 C1350 1.419 . S
C1349 C1344 1.425 . S
C1349 C1346 1.409 . S
C1349 C1347 1.415 . S
C1350 H1340 0.930 . S
C1350 C1348 1.419 . S
C1350 C1351 1.362 . S
C1351 H1341 0.930 . S
C1351 C1344 1.409 . S
C1351 C1350 1.362 . S
H1352 C1358 0.930 . S
H1353 C1361 0.930 . S
H1354 C1362 0.930 . S
H1355 C1363 0.930 . S
H1356 C1366 0.930 . S
H1357 C1367 0.930 . S
C1358 H1352 0.930 . S
C1358 C1359 1.355 . S
C1358 C1360 1.415 . S
C1359 C1358 1.355 . S
C1359 C1361 1.419 . S
C1360 C1358 1.415 . S
C1360 C1365 1.425 . S
C1360 C1367 1.409 . S
C1361 H1353 0.930 . S
C1361 C1359 1.419 . S
C1361 C1362 1.362 . S
C1362 H1354 0.930 . S
C1362 C1361 1.362 . S
C1362 C1365 1.409 . S
C1363 H1355 0.930 . S
C1363 C1364 1.355 . S
C1363 C1365 1.415 . S
C1364 C1363 1.355 . S
C1364 C1366 1.419 . S
C1365 C1360 1.425 . S
C1365 C1362 1.409 . S
C1365 C1363 1.415 . S
C1366 H1356 0.930 . S
C1366 C1364 1.419 . S
C1366 C1367 1.362 . S
C1367 H1357 0.930 . S
C1367 C1360 1.409 . S
C1367 C1366 1.362 . S
H1368 C1374 0.930 . S
H1369 C1377 0.930 . S
H1370 C1378 0.930 . S
H1371 C1379 0.930 . S
H1372 C1382 0.930 . S
H1373 C1383 0.930 . S
C1374 H1368 0.930 . S
C1374 C1375 1.355 . S
C1374 C1376 1.415 . S
C1375 C1374 1.355 . S
C1375 C1377 1.419 . S
C1376 C1374 1.415 . S
C1376 C1381 1.425 . S
C1376 C1383 1.409 . S
C1377 H1369 0.930 . S
C1377 C1375 1.419 . S
C1377 C1378 1.362 . S
C1378 H1370 0.930 . S
C1378 C1377 1.362 . S
C1378 C1381 1.409 . S
C1379 H1371 0.930 . S
C1379 C1380 1.355 . S
C1379 C1381 1.415 . S
C1380 C1379 1.355 . S
C1380 C1382 1.419 . S
C1381 C1376 1.425 . S
C1381 C1378 1.409 . S
C1381 C1379 1.415 . S
C1382 H1372 0.930 . S
C1382 C1380 1.419 . S
C1382 C1383 1.362 . S
C1383 H1373 0.930 . S
C1383 C1376 1.409 . S
C1383 C1382 1.362 . S
H1384 C1390 0.930 . S
H1385 C1393 0.930 . S
H1386 C1394 0.930 . S
H1387 C1395 0.930 . S
H1388 C1398 0.930 . S
H1389 C1399 0.930 . S
C1390 H1384 0.930 . S
C1390 C1391 1.355 . S
C1390 C1392 1.415 . S
C1391 C1390 1.355 . S
C1391 C1393 1.419 . S
C1392 C1390 1.415 . S
C1392 C1397 1.425 . S
C1392 C1399 1.409 . S
C1393 H1385 0.930 . S
C1393 C1391 1.419 . S
C1393 C1394 1.362 . S
C1394 H1386 0.930 . S
C1394 C1393 1.362 . S
C1394 C1397 1.409 . S
C1395 H1387 0.930 . S
C1395 C1396 1.355 . S
C1395 C1397 1.415 . S
C1396 C1395 1.355 . S
C1396 C1398 1.419 . S
C1397 C1392 1.425 . S
C1397 C1394 1.409 . S
C1397 C1395 1.415 . S
C1398 H1388 0.930 . S
C1398 C1396 1.419 . S
C1398 C1399 1.362 . S
C1399 H1389 0.930 . S
C1399 C1392 1.409 . S
C1399 C1398 1.362 . S
H1400 C1406 0.930 . S
H1401 C1409 0.930 . S
H1402 C1410 0.930 . S
H1403 C1411 0.930 . S
H1404 C1414 0.930 . S
H1405 C1415 0.930 . S
C1406 H1400 0.930 . S
C1406 C1407 1.355 . S
C1406 C1408 1.415 . S
C1407 C1406 1.355 . S
C1407 C1409 1.419 . S
C1408 C1406 1.415 . S
C1408 C1413 1.425 . S
C1408 C1415 1.409 . S
C1409 H1401 0.930 . S
C1409 C1407 1.419 . S
C1409 C1410 1.362 . S
C1410 H1402 0.930 . S
C1410 C1409 1.362 . S
C1410 C1413 1.409 . S
C1411 H1403 0.930 . S
C1411 C1412 1.355 . S
C1411 C1413 1.415 . S
C1412 C1411 1.355 . S
C1412 C1414 1.419 . S
C1413 C1408 1.425 . S
C1413 C1410 1.409 . S
C1413 C1411 1.415 . S
C1414 H1404 0.930 . S
C1414 C1412 1.419 . S
C1414 C1415 1.362 . S
C1415 H1405 0.930 . S
C1415 C1408 1.409 . S
C1415 C1414 1.362 . S
H1416 C1422 0.930 . S
H1417 C1425 0.930 . S
H1418 C1426 0.930 . S
H1419 C1427 0.930 . S
H1420 C1430 0.930 . S
H1421 C1431 0.930 . S
C1422 H1416 0.930 . S
C1422 C1423 1.355 . S
C1422 C1424 1.415 . S
C1423 C1422 1.355 . S
C1423 C1425 1.419 . S
C1424 C1422 1.415 . S
C1424 C1429 1.425 . S
C1424 C1431 1.409 . S
C1425 H1417 0.930 . S
C1425 C1423 1.419 . S
C1425 C1426 1.362 . S
C1426 H1418 0.930 . S
C1426 C1425 1.362 . S
C1426 C1429 1.409 . S
C1427 H1419 0.930 . S
C1427 C1428 1.355 . S
C1427 C1429 1.415 . S
C1428 C1427 1.355 . S
C1428 C1430 1.419 . S
C1429 C1424 1.425 . S
C1429 C1426 1.409 . S
C1429 C1427 1.415 . S
C1430 H1420 0.930 . S
C1430 C1428 1.419 . S
C1430 C1431 1.362 . S
C1431 H1421 0.930 . S
C1431 C1424 1.409 . S
C1431 C1430 1.362 . S
H1432 C1438 0.930 . S
H1433 C1441 0.930 . S
H1434 C1442 0.930 . S
H1435 C1443 0.930 . S
H1436 C1446 0.930 . S
H1437 C1447 0.930 . S
C1438 H1432 0.930 . S
C1438 C1439 1.355 . S
C1438 C1440 1.415 . S
C1439 C1438 1.355 . S
C1439 C1441 1.419 . S
C1440 C1438 1.415 . S
C1440 C1445 1.425 . S
C1440 C1447 1.409 . S
C1441 H1433 0.930 . S
C1441 C1439 1.419 . S
C1441 C1442 1.362 . S
C1442 H1434 0.930 . S
C1442 C1441 1.362 . S
C1442 C1445 1.409 . S
C1443 H1435 0.930 . S
C1443 C1444 1.355 . S
C1443 C1445 1.415 . S
C1444 C1443 1.355 . S
C1444 C1446 1.419 . S
C1445 C1440 1.425 . S
C1445 C1442 1.409 . S
C1445 C1443 1.415 . S
C1446 H1436 0.930 . S
C1446 C1444 1.419 . S
C1446 C1447 1.362 . S
C1447 H1437 0.930 . S
C1447 C1440 1.409 . S
C1447 C1446 1.362 . S
H1448 C1454 0.930 . S
H1449 C1457 0.930 . S
H1450 C1458 0.930 . S
H1451 C1459 0.930 . S
H1452 C1462 0.930 . S
H1453 C1463 0.930 . S
C1454 H1448 0.930 . S
C1454 C1455 1.355 . S
C1454 C1456 1.415 . S
C1455 C1454 1.355 . S
C1455 C1457 1.419 . S
C1456 C1454 1.415 . S
C1456 C1461 1.425 . S
C1456 C1463 1.409 . S
C1457 H1449 0.930 . S
C1457 C1455 1.419 . S
C1457 C1458 1.362 . S
C1458 H1450 0.930 . S
C1458 C1457 1.362 . S
C1458 C1461 1.409 . S
C1459 H1451 0.930 . S
C1459 C1460 1.355 . S
C1459 C1461 1.415 . S
C1460 C1459 1.355 . S
C1460 C1462 1.419 . S
C1461 C1456 1.425 . S
C1461 C1458 1.409 . S
C1461 C1459 1.415 . S
C1462 H1452 0.930 . S
C1462 C1460 1.419 . S
C1462 C1463 1.362 . S
C1463 H1453 0.930 . S
C1463 C1456 1.409 . S
C1463 C1462 1.362 . S
H1464 C1470 0.930 . S
H1465 C1473 0.930 . S
H1466 C1474 0.930 . S
H1467 C1475 0.930 . S
H1468 C1478 0.930 . S
H1469 C1479 0.930 . S
C1470 H1464 0.930 . S
C1470 C1471 1.355 . S
C1470 C1472 1.415 . S
C1471 C1470 1.355 . S
C1471 C1473 1.419 . S
C1472 C1470 1.415 . S
C1472 C1477 1.425 . S
C1472 C1479 1.409 . S
C1473 H1465 0.930 . S
C1473 C1471 1.419 . S
C1473 C1474 1.362 . S
C1474 H1466 0.930 . S
C1474 C1473 1.362 . S
C1474 C1477 1.409 . S
C1475 H1467 0.930 . S
C1475 C1476 1.355 . S
C1475 C1477 1.415 . S
C1476 C1475 1.355 . S
C1476 C1478 1.419 . S
C1477 C1472 1.425 . S
C1477 C1474 1.409 . S
C1477 C1475 1.415 . S
C1478 H1468 0.930 . S
C1478 C1476 1.419 . S
C1478 C1479 1.362 . S
C1479 H1469 0.930 . S
C1479 C1472 1.409 . S
C1479 C1478 1.362 . S
H1480 C1486 0.930 . S
H1481 C1489 0.930 . S
H1482 C1490 0.930 . S
H1483 C1491 0.930 . S
H1484 C1494 0.930 . S
H1485 C1495 0.930 . S
C1486 H1480 0.930 . S
C1486 C1487 1.355 . S
C1486 C1488 1.415 . S
C1487 C1486 1.355 . S
C1487 C1489 1.419 . S
C1488 C1486 1.415 . S
C1488 C1493 1.425 . S
C1488 C1495 1.409 . S
C1489 H1481 0.930 . S
C1489 C1487 1.419 . S
C1489 C1490 1.362 . S
C1490 H1482 0.930 . S
C1490 C1489 1.362 . S
C1490 C1493 1.409 . S
C1491 H1483 0.930 . S
C1491 C1492 1.355 . S
C1491 C1493 1.415 . S
C1492 C1491 1.355 . S
C1492 C1494 1.419 . S
C1493 C1488 1.425 . S
C1493 C1490 1.409 . S
C1493 C1491 1.415 . S
C1494 H1484 0.930 . S
C1494 C1492 1.419 . S
C1494 C1495 1.362 . S
C1495 H1485 0.930 . S
C1495 C1488 1.409 . S
C1495 C1494 1.362 . S
H1496 C1502 0.930 . S
H1497 C1505 0.930 . S
H1498 C1506 0.930 . S
H1499 C1507 0.930 . S
H1500 C1510 0.930 . S
H1501 C1511 0.930 . S
C1502 H1496 0.930 . S
C1502 C1503 1.355 . S
C1502 C1504 1.415 . S
C1503 C1502 1.355 . S
C1503 C1505 1.419 . S
C1504 C1502 1.415 . S
C1504 C1509 1.425 . S
C1504 C1511 1.409 . S
C1505 H1497 0.930 . S
C1505 C1503 1.419 . S
C1505 C1506 1.362 . S
C1506 H1498 0.930 . S
C1506 C1505 1.362 . S
C1506 C1509 1.409 . S
C1507 H1499 0.930 . S
C1507 C1508 1.355 . S
C1507 C1509 1.415 . S
C1508 C1507 1.355 . S
C1508 C1510 1.419 . S
C1509 C1504 1.425 . S
C1509 C1506 1.409 . S
C1509 C1507 1.415 . S
C1510 H1500 0.930 . S
C1510 C1508 1.419 . S
C1510 C1511 1.362 . S
C1511 H1501 0.930 . S
C1511 C1504 1.409 . S
C1511 C1510 1.362 . S
H1512 C1518 0.930 . S
H1513 C1521 0.930 . S
H1514 C1522 0.930 . S
H1515 C1523 0.930 . S
H1516 C1526 0.930 . S
H1517 C1527 0.930 . S
C1518 H1512 0.930 . S
C1518 C1519 1.355 . S
C1518 C1520 1.415 . S
C1519 C1518 1.355 . S
C1519 C1521 1.419 . S
C1520 C1518 1.415 . S
C1520 C1525 1.425 . S
C1520 C1527 1.409 . S
C1521 H1513 0.930 . S
C1521 C1519 1.419 . S
C1521 C1522 1.362 . S
C1522 H1514 0.930 . S
C1522 C1521 1.362 . S
C1522 C1525 1.409 . S
C1523 H1515 0.930 . S
C1523 C1524 1.355 . S
C1523 C1525 1.415 . S
C1524 C1523 1.355 . S
C1524 C1526 1.419 . S
C1525 C1520 1.425 . S
C1525 C1522 1.409 . S
C1525 C1523 1.415 . S
C1526 H1516 0.930 . S
C1526 C1524 1.419 . S
C1526 C1527 1.362 . S
C1527 H1517 0.930 . S
C1527 C1520 1.409 . S
C1527 C1526 1.362 . S
H1528 C1534 0.930 . S
H1529 C1537 0.930 . S
H1530 C1538 0.930 . S
H1531 C1539 0.930 . S
H1532 C1542 0.930 . S
H1533 C1543 0.930 . S
C1534 H1528 0.930 . S
C1534 C1535 1.355 . S
C1534 C1536 1.415 . S
C1535 C1534 1.355 . S
C1535 C1537 1.419 . S
C1536 C1534 1.415 . S
C1536 C1541 1.425 . S
C1536 C1543 1.409 . S
C1537 H1529 0.930 . S
C1537 C1535 1.419 . S
C1537 C1538 1.362 . S
C1538 H1530 0.930 . S
C1538 C1537 1.362 . S
C1538 C1541 1.409 . S
C1539 H1531 0.930 . S
C1539 C1540 1.355 . S
C1539 C1541 1.415 . S
C1540 C1539 1.355 . S
C1540 C1542 1.419 . S
C1541 C1536 1.425 . S
C1541 C1538 1.409 . S
C1541 C1539 1.415 . S
C1542 H1532 0.930 . S
C1542 C1540 1.419 . S
C1542 C1543 1.362 . S
C1543 H1533 0.930 . S
C1543 C1536 1.409 . S
C1543 C1542 1.362 . S
H1544 C1550 0.930 . S
H1545 C1553 0.930 . S
H1546 C1554 0.930 . S
H1547 C1555 0.930 . S
H1548 C1558 0.930 . S
H1549 C1559 0.930 . S
C1550 H1544 0.930 . S
C1550 C1551 1.355 . S
C1550 C1552 1.415 . S
C1551 C1550 1.355 . S
C1551 C1553 1.419 . S
C1552 C1550 1.415 . S
C1552 C1557 1.425 . S
C1552 C1559 1.409 . S
C1553 H1545 0.930 . S
C1553 C1551 1.419 . S
C1553 C1554 1.362 . S
C1554 H1546 0.930 . S
C1554 C1553 1.362 . S
C1554 C1557 1.409 . S
C1555 H1547 0.930 . S
C1555 C1556 1.355 . S
C1555 C1557 1.415 . S
C1556 C1555 1.355 . S
C1556 C1558 1.419 . S
C1557 C1552 1.425 . S
C1557 C1554 1.409 . S
C1557 C1555 1.415 . S
C1558 H1548 0.930 . S
C1558 C1556 1.419 . S
C1558 C1559 1.362 . S
C1559 H1549 0.930 . S
C1559 C1552 1.409 . S
C1559 C1558 1.362 . S
H1560 C1566 0.930 . S
H1561 C1569 0.930 . S
H1562 C1570 0.930 . S
H1563 C1571 0.930 . S
H1564 C1574 0.930 . S
H1565 C1575 0.930 . S
C1566 H1560 0.930 . S
C1566 C1567 1.355 . S
C1566 C1568 1.415 . S
C1567 C1566 1.355 . S
C1567 C1569 1.419 . S
C1568 C1566 1.415 . S
C1568 C1573 1.425 . S
C1568 C1575 1.409 . S
C1569 H1561 0.930 . S
C1569 C1567 1.419 . S
C1569 C1570 1.362 . S
C1570 H1562 0.930 . S
C1570 C1569 1.362 . S
C1570 C1573 1.409 . S
C1571 H1563 0.930 . S
C1571 C1572 1.355 . S
C1571 C1573 1.415 . S
C1572 C1571 1.355 . S
C1572 C1574 1.419 . S
C1573 C1568 1.425 . S
C1573 C1570 1.409 . S
C1573 C1571 1.415 . S
C1574 H1564 0.930 . S
C1574 C1572 1.419 . S
C1574 C1575 1.362 . S
C1575 H1565 0.930 . S
C1575 C1568 1.409 . S
C1575 C1574 1.362 . S
H1576 C1582 0.930 . S
H1577 C1585 0.930 . S
H1578 C1586 0.930 . S
H1579 C1587 0.930 . S
H1580 C1590 0.930 . S
H1581 C1591 0.930 . S
C1582 H1576 0.930 . S
C1582 C1583 1.355 . S
C1582 C1584 1.415 . S
C1583 C1582 1.355 . S
C1583 C1585 1.419 . S
C1584 C1582 1.415 . S
C1584 C1589 1.425 . S
C1584 C1591 1.409 . S
C1585 H1577 0.930 . S
C1585 C1583 1.419 . S
C1585 C1586 1.362 . S
C1586 H1578 0.930 . S
C1586 C1585 1.362 . S
C1586 C1589 1.409 . S
C1587 H1579 0.930 . S
C1587 C1588 1.355 . S
C1587 C1589 1.415 . S
C1588 C1587 1.355 . S
C1588 C1590 1.419 . S
C1589 C1584 1.425 . S
C1589 C1586 1.409 . S
C1589 C1587 1.415 . S
C1590 H1580 0.930 . S
C1590 C1588 1.419 . S
C1590 C1591 1.362 . S
C1591 H1581 0.930 . S
C1591 C1584 1.409 . S
C1591 C1590 1.362 . S
H1592 C1598 0.930 . S
H1593 C1601 0.930 . S
H1594 C1602 0.930 . S
H1595 C1603 0.930 . S
H1596 C1606 0.930 . S
H1597 C1607 0.930 . S
C1598 H1592 0.930 . S
C1598 C1599 1.355 . S
C1598 C1600 1.415 . S
C1599 C1598 1.355 . S
C1599 C1601 1.419 . S
C1600 C1598 1.415 . S
C1600 C1605 1.425 . S
C1600 C1607 1.409 . S
C1601 H1593 0.930 . S
C1601 C1599 1.419 . S
C1601 C1602 1.362 . S
C1602 H1594 0.930 . S
C1602 C1601 1.362 . S
C1602 C1605 1.409 . S
C1603 H1595 0.930 . S
C1603 C1604 1.355 . S
C1603 C1605 1.415 . S
C1604 C1603 1.355 . S
C1604 C1606 1.419 . S
C1605 C1600 1.425 . S
C1605 C1602 1.409 . S
C1605 C1603 1.415 . S
C1606 H1596 0.930 . S
C1606 C1604 1.419 . S
C1606 C1607 1.362 . S
C1607 H1597 0.930 . S
C1607 C1600 1.409 . S
C1607 C1606 1.362 . S
H1608 C1614 0.930 . S
H1609 C1617 0.930 . S
H1610 C1618 0.930 . S
H1611 C1619 0.930 . S
H1612 C1622 0.930 . S
H1613 C1623 0.930 . S
C1614 H1608 0.930 . S
C1614 C1615 1.355 . S
C1614 C1616 1.415 . S
C1615 C1614 1.355 . S
C1615 C1617 1.419 . S
C1616 C1614 1.415 . S
C1616 C1621 1.425 . S
C1616 C1623 1.409 . S
C1617 H1609 0.930 . S
C1617 C1615 1.419 . S
C1617 C1618 1.362 . S
C1618 H1610 0.930 . S
C1618 C1617 1.362 . S
C1618 C1621 1.409 . S
C1619 H1611 0.930 . S
C1619 C1620 1.355 . S
C1619 C1621 1.415 . S
C1620 C1619 1.355 . S
C1620 C1622 1.419 . S
C1621 C1616 1.425 . S
C1621 C1618 1.409 . S
C1621 C1619 1.415 . S
C1622 H1612 0.930 . S
C1622 C1620 1.419 . S
C1622 C1623 1.362 . S
C1623 H1613 0.930 . S
C1623 C1616 1.409 . S
C1623 C1622 1.362 . S
H1624 C1630 0.930 . S
H1625 C1633 0.930 . S
H1626 C1634 0.930 . S
H1627 C1635 0.930 . S
H1628 C1638 0.930 . S
H1629 C1639 0.930 . S
C1630 H1624 0.930 . S
C1630 C1631 1.355 . S
C1630 C1632 1.415 . S
C1631 C1630 1.355 . S
C1631 C1633 1.419 . S
C1632 C1630 1.415 . S
C1632 C1637 1.425 . S
C1632 C1639 1.409 . S
C1633 H1625 0.930 . S
C1633 C1631 1.419 . S
C1633 C1634 1.362 . S
C1634 H1626 0.930 . S
C1634 C1633 1.362 . S
C1634 C1637 1.409 . S
C1635 H1627 0.930 . S
C1635 C1636 1.355 . S
C1635 C1637 1.415 . S
C1636 C1635 1.355 . S
C1636 C1638 1.419 . S
C1637 C1632 1.425 . S
C1637 C1634 1.409 . S
C1637 C1635 1.415 . S
C1638 H1628 0.930 . S
C1638 C1636 1.419 . S
C1638 C1639 1.362 . S
C1639 H1629 0.930 . S
C1639 C1632 1.409 . S
C1639 C1638 1.362 . S
H1640 C1646 0.930 . S
H1641 C1649 0.930 . S
H1642 C1650 0.930 . S
H1643 C1651 0.930 . S
H1644 C1654 0.930 . S
H1645 C1655 0.930 . S
C1646 H1640 0.930 . S
C1646 C1647 1.355 . S
C1646 C1648 1.415 . S
C1647 C1646 1.355 . S
C1647 C1649 1.419 . S
C1648 C1646 1.415 . S
C1648 C1653 1.425 . S
C1648 C1655 1.409 . S
C1649 H1641 0.930 . S
C1649 C1647 1.419 . S
C1649 C1650 1.362 . S
C1650 H1642 0.930 . S
C1650 C1649 1.362 . S
C1650 C1653 1.409 . S
C1651 H1643 0.930 . S
C1651 C1652 1.355 . S
C1651 C1653 1.415 . S
C1652 C1651 1.355 . S
C1652 C1654 1.419 . S
C1653 C1648 1.425 . S
C1653 C1650 1.409 . S
C1653 C1651 1.415 . S
C1654 H1644 0.930 . S
C1654 C1652 1.419 . S
C1654 C1655 1.362 . S
C1655 H1645 0.930 . S
C1655 C1648 1.409 . S
C1655 C1654 1.362 . S
H1656 C1662 0.930 . S
H1657 C1665 0.930 . S
H1658 C1666 0.930 . S
H1659 C1667 0.930 . S
H1660 C1670 0.930 . S
H1661 C1671 0.930 . S
C1662 H1656 0.930 . S
C1662 C1663 1.355 . S
C1662 C1664 1.415 . S
C1663 C1662 1.355 . S
C1663 C1665 1.419 . S
C1664 C1662 1.415 . S
C1664 C1669 1.425 . S
C1664 C1671 1.409 . S
C1665 H1657 0.930 . S
C1665 C1663 1.419 . S
C1665 C1666 1.362 . S
C1666 H1658 0.930 . S
C1666 C1665 1.362 . S
C1666 C1669 1.409 . S
C1667 H1659 0.930 . S
C1667 C1668 1.355 . S
C1667 C1669 1.415 . S
C1668 C1667 1.355 . S
C1668 C1670 1.419 . S
C1669 C1664 1.425 . S
C1669 C1666 1.409 . S
C1669 C1667 1.415 . S
C1670 H1660 0.930 . S
C1670 C1668 1.419 . S
C1670 C1671 1.362 . S
C1671 H1661 0.930 . S
C1671 C1664 1.409 . S
C1671 C1670 1.362 . S
H1672 C1678 0.930 . S
H1673 C1681 0.930 . S
H1674 C1682 0.930 . S
H1675 C1683 0.930 . S
H1676 C1686 0.930 . S
H1677 C1687 0.930 . S
C1678 H1672 0.930 . S
C1678 C1679 1.355 . S
C1678 C1680 1.415 . S
C1679 C1678 1.355 . S
C1679 C1681 1.419 . S
C1680 C1678 1.415 . S
C1680 C1685 1.425 . S
C1680 C1687 1.409 . S
C1681 H1673 0.930 . S
C1681 C1679 1.419 . S
C1681 C1682 1.362 . S
C1682 H1674 0.930 . S
C1682 C1681 1.362 . S
C1682 C1685 1.409 . S
C1683 H1675 0.930 . S
C1683 C1684 1.355 . S
C1683 C1685 1.415 . S
C1684 C1683 1.355 . S
C1684 C1686 1.419 . S
C1685 C1680 1.425 . S
C1685 C1682 1.409 . S
C1685 C1683 1.415 . S
C1686 H1676 0.930 . S
C1686 C1684 1.419 . S
C1686 C1687 1.362 . S
C1687 H1677 0.930 . S
C1687 C1680 1.409 . S
C1687 C1686 1.362 . S
H1688 C1694 0.930 . S
H1689 C1697 0.930 . S
H1690 C1698 0.930 . S
H1691 C1699 0.930 . S
H1692 C1702 0.930 . S
H1693 C1703 0.930 . S
C1694 H1688 0.930 . S
C1694 C1695 1.355 . S
C1694 C1696 1.415 . S
C1695 C1694 1.355 . S
C1695 C1697 1.419 . S
C1696 C1694 1.415 . S
C1696 C1701 1.425 . S
C1696 C1703 1.409 . S
C1697 H1689 0.930 . S
C1697 C1695 1.419 . S
C1697 C1698 1.362 . S
C1698 H1690 0.930 . S
C1698 C1697 1.362 . S
C1698 C1701 1.409 . S
C1699 H1691 0.930 . S
C1699 C1700 1.355 . S
C1699 C1701 1.415 . S
C1700 C1699 1.355 . S
C1700 C1702 1.419 . S
C1701 C1696 1.425 . S
C1701 C1698 1.409 . S
C1701 C1699 1.415 . S
C1702 H1692 0.930 . S
C1702 C1700 1.419 . S
C1702 C1703 1.362 . S
C1703 H1693 0.930 . S
C1703 C1696 1.409 . S
C1703 C1702 1.362 . S
H1704 C1710 0.930 . S
H1705 C1713 0.930 . S
H1706 C1714 0.930 . S
H1707 C1715 0.930 . S
H1708 C1718 0.930 . S
H1709 C1719 0.930 . S
C1710 H1704 0.930 . S
C1710 C1711 1.355 . S
C1710 C1712 1.415 . S
C1711 C1710 1.355 . S
C1711 C1713 1.419 . S
C1712 C1710 1.415 . S
C1712 C1717 1.425 . S
C1712 C1719 1.409 . S
C1713 H1705 0.930 . S
C1713 C1711 1.419 . S
C1713 C1714 1.362 . S
C1714 H1706 0.930 . S
C1714 C1713 1.362 . S
C1714 C1717 1.409 . S
C1715 H1707 0.930 . S
C1715 C1716 1.355 . S
C1715 C1717 1.415 . S
C1716 C1715 1.355 . S
C1716 C1718 1.419 . S
C1717 C1712 1.425 . S
C1717 C1714 1.409 . S
C1717 C1715 1.415 . S
C1718 H1708 0.930 . S
C1718 C1716 1.419 . S
C1718 C1719 1.362 . S
C1719 H1709 0.930 . S
C1719 C1712 1.409 . S
C1719 C1718 1.362 . S
H1720 C1726 0.930 . S
H1721 C1729 0.930 . S
H1722 C1730 0.930 . S
H1723 C1731 0.930 . S
H1724 C1734 0.930 . S
H1725 C1735 0.930 . S
C1726 H1720 0.930 . S
C1726 C1727 1.355 . S
C1726 C1728 1.415 . S
C1727 C1726 1.355 . S
C1727 C1729 1.419 . S
C1728 C1726 1.415 . S
C1728 C1733 1.425 . S
C1728 C1735 1.409 . S
C1729 H1721 0.930 . S
C1729 C1727 1.419 . S
C1729 C1730 1.362 . S
C1730 H1722 0.930 . S
C1730 C1729 1.362 . S
C1730 C1733 1.409 . S
C1731 H1723 0.930 . S
C1731 C1732 1.355 . S
C1731 C1733 1.415 . S
C1732 C1731 1.355 . S
C1732 C1734 1.419 . S
C1733 C1728 1.425 . S
C1733 C1730 1.409 . S
C1733 C1731 1.415 . S
C1734 H1724 0.930 . S
C1734 C1732 1.419 . S
C1734 C1735 1.362 . S
C1735 H1725 0.930 . S
C1735 C1728 1.409 . S
C1735 C1734 1.362 . S
H1736 C1742 0.930 . S
H1737 C1745 0.930 . S
H1738 C1746 0.930 . S
H1739 C1747 0.930 . S
H1740 C1750 0.930 . S
H1741 C1751 0.930 . S
C1742 H1736 0.930 . S
C1742 C1743 1.355 . S
C1742 C1744 1.415 . S
C1743 C1742 1.355 . S
C1743 C1745 1.419 . S
C1744 C1742 1.415 . S
C1744 C1749 1.425 . S
C1744 C1751 1.409 . S
C1745 H1737 0.930 . S
C1745 C1743 1.419 . S
C1745 C1746 1.362 . S
C1746 H1738 0.930 . S
C1746 C1745 1.362 . S
C1746 C1749 1.409 . S
C1747 H1739 0.930 . S
C1747 C1748 1.355 . S
C1747 C1749 1.415 . S
C1748 C1747 1.355 . S
C1748 C1750 1.419 . S
C1749 C1744 1.425 . S
C1749 C1746 1.409 . S
C1749 C1747 1.415 . S
C1750 H1740 0.930 . S
C1750 C1748 1.419 . S
C1750 C1751 1.362 . S
C1751 H1741 0.930 . S
C1751 C1744 1.409 . S
C1751 C1750 1.362 . S
H1752 C1758 0.930 . S
H1753 C1761 0.930 . S
H1754 C1762 0.930 . S
H1755 C1763 0.930 . S
H1756 C1766 0.930 . S
H1757 C1767 0.930 . S
C1758 H1752 0.930 . S
C1758 C1759 1.355 . S
C1758 C1760 1.415 . S
C1759 C1758 1.355 . S
C1759 C1761 1.419 . S
C1760 C1758 1.415 . S
C1760 C1765 1.425 . S
C1760 C1767 1.409 . S
C1761 H1753 0.930 . S
C1761 C1759 1.419 . S
C1761 C1762 1.362 . S
C1762 H1754 0.930 . S
C1762 C1761 1.362 . S
C1762 C1765 1.409 . S
C1763 H1755 0.930 . S
C1763 C1764 1.355 . S
C1763 C1765 1.415 . S
C1764 C1763 1.355 . S
C1764 C1766 1.419 . S
C1765 C1760 1.425 . S
C1765 C1762 1.409 . S
C1765 C1763 1.415 . S
C1766 H1756 0.930 . S
C1766 C1764 1.419 . S
C1766 C1767 1.362 . S
C1767 H1757 0.930 . S
C1767 C1760 1.409 . S
C1767 C1766 1.362 . S
H1768 C1774 0.930 . S
H1769 C1777 0.930 . S
H1770 C1778 0.930 . S
H1771 C1779 0.930 . S
H1772 C1782 0.930 . S
H1773 C1783 0.930 . S
C1774 H1768 0.930 . S
C1774 C1775 1.355 . S
C1774 C1776 1.415 . S
C1775 C1774 1.355 . S
C1775 C1777 1.419 . S
C1776 C1774 1.415 . S
C1776 C1781 1.425 . S
C1776 C1783 1.409 . S
C1777 H1769 0.930 . S
C1777 C1775 1.419 . S
C1777 C1778 1.362 . S
C1778 H1770 0.930 . S
C1778 C1777 1.362 . S
C1778 C1781 1.409 . S
C1779 H1771 0.930 . S
C1779 C1780 1.355 . S
C1779 C1781 1.415 . S
C1780 C1779 1.355 . S
C1780 C1782 1.419 . S
C1781 C1776 1.425 . S
C1781 C1778 1.409 . S
C1781 C1779 1.415 . S
C1782 H1772 0.930 . S
C1782 C1780 1.419 . S
C1782 C1783 1.362 . S
C1783 H1773 0.930 . S
C1783 C1776 1.409 . S
C1783 C1782 1.362 . S
H1784 C1790 0.930 . S
H1785 C1793 0.930 . S
H1786 C1794 0.930 . S
H1787 C1795 0.930 . S
H1788 C1798 0.930 . S
H1789 C1799 0.930 . S
C1790 H1784 0.930 . S
C1790 C1791 1.355 . S
C1790 C1792 1.415 . S
C1791 C1790 1.355 . S
C1791 C1793 1.419 . S
C1792 C1790 1.415 . S
C1792 C1797 1.425 . S
C1792 C1799 1.409 . S
C1793 H1785 0.930 . S
C1793 C1791 1.419 . S
C1793 C1794 1.362 . S
C1794 H1786 0.930 . S
C1794 C1793 1.362 . S
C1794 C1797 1.409 . S
C1795 H1787 0.930 . S
C1795 C1796 1.355 . S
C1795 C1797 1.415 . S
C1796 C1795 1.355 . S
C1796 C1798 1.419 . S
C1797 C1792 1.425 . S
C1797 C1794 1.409 . S
C1797 C1795 1.415 . S
C1798 H1788 0.930 . S
C1798 C1796 1.419 . S
C1798 C1799 1.362 . S
C1799 H1789 0.930 . S
C1799 C1792 1.409 . S
C1799 C1798 1.362 . S
H1800 C1806 0.930 . S
H1801 C1809 0.930 . S
H1802 C1810 0.930 . S
H1803 C1811 0.930 . S
H1804 C1814 0.930 . S
H1805 C1815 0.930 . S
C1806 H1800 0.930 . S
C1806 C1807 1.355 . S
C1806 C1808 1.415 . S
C1807 C1806 1.355 . S
C1807 C1809 1.419 . S
C1808 C1806 1.415 . S
C1808 C1813 1.425 . S
C1808 C1815 1.409 . S
C1809 H1801 0.930 . S
C1809 C1807 1.419 . S
C1809 C1810 1.362 . S
C1810 H1802 0.930 . S
C1810 C1809 1.362 . S
C1810 C1813 1.409 . S
C1811 H1803 0.930 . S
C1811 C1812 1.355 . S
C1811 C1813 1.415 . S
C1812 C1811 1.355 . S
C1812 C1814 1.419 . S
C1813 C1808 1.425 . S
C1813 C1810 1.409 . S
C1813 C1811 1.415 . S
C1814 H1804 0.930 . S
C1814 C1812 1.419 . S
C1814 C1815 1.362 . S
C1815 H1805 0.930 . S
C1815 C1808 1.409 . S
C1815 C1814 1.362 . S
H1816 C1822 0.930 . S
H1817 C1825 0.930 . S
H1818 C1826 0.930 . S
H1819 C1827 0.930 . S
H1820 C1830 0.930 . S
H1821 C1831 0.930 . S
C1822 H1816 0.930 . S
C1822 C1823 1.355 . S
C1822 C1824 1.415 . S
C1823 C1822 1.355 . S
C1823 C1825 1.419 . S
C1824 C1822 1.415 . S
C1824 C1829 1.425 . S
C1824 C1831 1.409 . S
C1825 H1817 0.930 . S
C1825 C1823 1.419 . S
C1825 C1826 1.362 . S
C1826 H1818 0.930 . S
C1826 C1825 1.362 . S
C1826 C1829 1.409 . S
C1827 H1819 0.930 . S
C1827 C1828 1.355 . S
C1827 C1829 1.415 . S
C1828 C1827 1.355 . S
C1828 C1830 1.419 . S
C1829 C1824 1.425 . S
C1829 C1826 1.409 . S
C1829 C1827 1.415 . S
C1830 H1820 0.930 . S
C1830 C1828 1.419 . S
C1830 C1831 1.362 . S
C1831 H1821 0.930 . S
C1831 C1824 1.409 . S
C1831 C1830 1.362 . S
H1832 C1838 0.930 . S
H1833 C1841 0.930 . S
H1834 C1842 0.930 . S
H1835 C1843 0.930 . S
H1836 C1846 0.930 . S
H1837 C1847 0.930 . S
C1838 H1832 0.930 . S
C1838 C1839 1.355 . S
C1838 C1840 1.415 . S
C1839 C1838 1.355 . S
C1839 C1841 1.419 . S
C1840 C1838 1.415 . S
C1840 C1845 1.425 . S
C1840 C1847 1.409 . S
C1841 H1833 0.930 . S
C1841 C1839 1.419 . S
C1841 C1842 1.362 . S
C1842 H1834 0.930 . S
C1842 C1841 1.362 . S
C1842 C1845 1.409 . S
C1843 H1835 0.930 . S
C1843 C1844 1.355 . S
C1843 C1845 1.415 . S
C1844 C1843 1.355 . S
C1844 C1846 1.419 . S
C1845 C1840 1.425 . S
C1845 C1842 1.409 . S
C1845 C1843 1.415 . S
C1846 H1836 0.930 . S
C1846 C1844 1.419 . S
C1846 C1847 1.362 . S
C1847 H1837 0.930 . S
C1847 C1840 1.409 . S
C1847 C1846 1.362 . S
H1848 C1854 0.930 . S
H1849 C1857 0.930 . S
H1850 C1858 0.930 . S
H1851 C1859 0.930 . S
H1852 C1862 0.930 . S
H1853 C1863 0.930 . S
C1854 H1848 0.930 . S
C1854 C1855 1.355 . S
C1854 C1856 1.415 . S
C1855 C1854 1.355 . S
C1855 C1857 1.419 . S
C1856 C1854 1.415 . S
C1856 C1861 1.425 . S
C1856 C1863 1.409 . S
C1857 H1849 0.930 . S
C1857 C1855 1.419 . S
C1857 C1858 1.362 . S
C1858 H1850 0.930 . S
C1858 C1857 1.362 . S
C1858 C1861 1.409 . S
C1859 H1851 0.930 . S
C1859 C1860 1.355 . S
C1859 C1861 1.415 . S
C1860 C1859 1.355 . S
C1860 C1862 1.419 . S
C1861 C1856 1.425 . S
C1861 C1858 1.409 . S
C1861 C1859 1.415 . S
C1862 H1852 0.930 . S
C1862 C1860 1.419 . S
C1862 C1863 1.362 . S
C1863 H1853 0.930 . S
C1863 C1856 1.409 . S
C1863 C1862 1.362 . S
H1864 C1870 0.930 . S
H1865 C1873 0.930 . S
H1866 C1874 0.930 . S
H1867 C1875 0.930 . S
H1868 C1878 0.930 . S
H1869 C1879 0.930 . S
C1870 H1864 0.930 . S
C1870 C1871 1.355 . S
C1870 C1872 1.415 . S
C1871 C1870 1.355 . S
C1871 C1873 1.419 . S
C1872 C1870 1.415 . S
C1872 C1877 1.425 . S
C1872 C1879 1.409 . S
C1873 H1865 0.930 . S
C1873 C1871 1.419 . S
C1873 C1874 1.362 . S
C1874 H1866 0.930 . S
C1874 C1873 1.362 . S
C1874 C1877 1.409 . S
C1875 H1867 0.930 . S
C1875 C1876 1.355 . S
C1875 C1877 1.415 . S
C1876 C1875 1.355 . S
C1876 C1878 1.419 . S
C1877 C1872 1.425 . S
C1877 C1874 1.409 . S
C1877 C1875 1.415 . S
C1878 H1868 0.930 . S
C1878 C1876 1.419 . S
C1878 C1879 1.362 . S
C1879 H1869 0.930 . S
C1879 C1872 1.409 . S
C1879 C1878 1.362 . S
H1880 C1886 0.930 . S
H1881 C1889 0.930 . S
H1882 C1890 0.930 . S
H1883 C1891 0.930 . S
H1884 C1894 0.930 . S
H1885 C1895 0.930 . S
C1886 H1880 0.930 . S
C1886 C1887 1.355 . S
C1886 C1888 1.415 . S
C1887 C1886 1.355 . S
C1887 C1889 1.419 . S
C1888 C1886 1.415 . S
C1888 C1893 1.425 . S
C1888 C1895 1.409 . S
C1889 H1881 0.930 . S
C1889 C1887 1.419 . S
C1889 C1890 1.362 . S
C1890 H1882 0.930 . S
C1890 C1889 1.362 . S
C1890 C1893 1.409 . S
C1891 H1883 0.930 . S
C1891 C1892 1.355 . S
C1891 C1893 1.415 . S
C1892 C1891 1.355 . S
C1892 C1894 1.419 . S
C1893 C1888 1.425 . S
C1893 C1890 1.409 . S
C1893 C1891 1.415 . S
C1894 H1884 0.930 . S
C1894 C1892 1.419 . S
C1894 C1895 1.362 . S
C1895 H1885 0.930 . S
C1895 C1888 1.409 . S
C1895 C1894 1.362 . S
H1896 C1902 0.930 . S
H1897 C1905 0.930 . S
H1898 C1906 0.930 . S
H1899 C1907 0.930 . S
H1900 C1910 0.930 . S
H1901 C1911 0.930 . S
C1902 H1896 0.930 . S
C1902 C1903 1.355 . S
C1902 C1904 1.415 . S
C1903 C1902 1.355 . S
C1903 C1905 1.419 1_455 S
C1904 C1902 1.415 . S
C1904 C1909 1.425 1_455 S
C1904 C1911 1.409 . S
C1905 H1897 0.930 . S
C1905 C1903 1.419 1_655 S
C1905 C1906 1.362 . S
C1906 H1898 0.930 . S
C1906 C1905 1.362 . S
C1906 C1909 1.409 . S
C1907 H1899 0.930 . S
C1907 C1908 1.355 1_655 S
C1907 C1909 1.415 . S
C1908 C1907 1.355 1_455 S
C1908 C1910 1.419 . S
C1909 C1904 1.425 1_655 S
C1909 C1906 1.409 . S
C1909 C1907 1.415 . S
C1910 H1900 0.930 . S
C1910 C1908 1.419 . S
C1910 C1911 1.362 . S
C1911 H1901 0.930 . S
C1911 C1904 1.409 . S
C1911 C1910 1.362 . S
H1912 C1918 0.930 . S
H1913 C1921 0.930 . S
H1914 C1922 0.930 . S
H1915 C1923 0.930 . S
H1916 C1926 0.930 . S
H1917 C1927 0.930 . S
C1918 H1912 0.930 . S
C1918 C1919 1.355 . S
C1918 C1920 1.415 . S
C1919 C1918 1.355 . S
C1919 C1921 1.419 . S
C1920 C1918 1.415 . S
C1920 C1925 1.425 . S
C1920 C1927 1.409 . S
C1921 H1913 0.930 . S
C1921 C1919 1.419 . S
C1921 C1922 1.362 . S
C1922 H1914 0.930 . S
C1922 C1921 1.362 . S
C1922 C1925 1.409 . S
C1923 H1915 0.930 . S
C1923 C1924 1.355 . S
C1923 C1925 1.415 . S
C1924 C1923 1.355 . S
C1924 C1926 1.419 . S
C1925 C1920 1.425 . S
C1925 C1922 1.409 . S
C1925 C1923 1.415 . S
C1926 H1916 0.930 . S
C1926 C1924 1.419 . S
C1926 C1927 1.362 . S
C1927 H1917 0.930 . S
C1927 C1920 1.409 . S
C1927 C1926 1.362 . S
H1928 C1934 0.930 . S
H1929 C1937 0.930 . S
H1930 C1938 0.930 . S
H1931 C1939 0.930 . S
H1932 C1942 0.930 . S
H1933 C1943 0.930 . S
C1934 H1928 0.930 . S
C1934 C1935 1.355 . S
C1934 C1936 1.415 . S
C1935 C1934 1.355 . S
C1935 C1937 1.419 1_565 S
C1936 C1934 1.415 . S
C1936 C1941 1.425 1_565 S
C1936 C1943 1.409 . S
C1937 H1929 0.930 . S
C1937 C1935 1.419 1_545 S
C1937 C1938 1.362 . S
C1938 H1930 0.930 . S
C1938 C1937 1.362 . S
C1938 C1941 1.409 . S
C1939 H1931 0.930 . S
C1939 C1940 1.355 1_545 S
C1939 C1941 1.415 . S
C1940 C1939 1.355 1_565 S
C1940 C1942 1.419 . S
C1941 C1936 1.425 1_545 S
C1941 C1938 1.409 . S
C1941 C1939 1.415 . S
C1942 H1932 0.930 . S
C1942 C1940 1.419 . S
C1942 C1943 1.362 . S
C1943 H1933 0.930 . S
C1943 C1936 1.409 . S
C1943 C1942 1.362 . S
H1944 C1950 0.930 . S
H1945 C1953 0.930 . S
H1946 C1954 0.930 . S
H1947 C1955 0.930 . S
H1948 C1958 0.930 . S
H1949 C1959 0.930 . S
C1950 H1944 0.930 . S
C1950 C1951 1.355 1_545 S
C1950 C1952 1.415 . S
C1951 C1950 1.355 1_565 S
C1951 C1953 1.419 . S
C1952 C1950 1.415 . S
C1952 C1957 1.425 1_545 S
C1952 C1959 1.409 . S
C1953 H1945 0.930 . S
C1953 C1951 1.419 . S
C1953 C1954 1.362 . S
C1954 H1946 0.930 . S
C1954 C1953 1.362 . S
C1954 C1957 1.409 . S
C1955 H1947 0.930 . S
C1955 C1956 1.355 . S
C1955 C1957 1.415 . S
C1956 C1955 1.355 . S
C1956 C1958 1.419 1_565 S
C1957 C1952 1.425 1_565 S
C1957 C1954 1.409 . S
C1957 C1955 1.415 . S
C1958 H1948 0.930 . S
C1958 C1956 1.419 1_545 S
C1958 C1959 1.362 . S
C1959 H1949 0.930 . S
C1959 C1952 1.409 . S
C1959 C1958 1.362 . S
H1960 C1966 0.930 . S
H1961 C1969 0.930 . S
H1962 C1970 0.930 . S
H1963 C1971 0.930 . S
H1964 C1974 0.930 . S
H1965 C1975 0.930 . S
C1966 H1960 0.930 . S
C1966 C1967 1.355 . S
C1966 C1968 1.415 . S
C1967 C1966 1.355 . S
C1967 C1969 1.419 1_455 S
C1968 C1966 1.415 . S
C1968 C1973 1.425 1_455 S
C1968 C1975 1.409 . S
C1969 H1961 0.930 . S
C1969 C1967 1.419 1_655 S
C1969 C1970 1.362 . S
C1970 H1962 0.930 . S
C1970 C1969 1.362 . S
C1970 C1973 1.409 . S
C1971 H1963 0.930 . S
C1971 C1972 1.355 1_655 S
C1971 C1973 1.415 . S
C1972 C1971 1.355 1_455 S
C1972 C1974 1.419 . S
C1973 C1968 1.425 1_655 S
C1973 C1970 1.409 . S
C1973 C1971 1.415 . S
C1974 H1964 0.930 . S
C1974 C1972 1.419 . S
C1974 C1975 1.362 . S
C1975 H1965 0.930 . S
C1975 C1968 1.409 . S
C1975 C1974 1.362 . S
H1976 C1982 0.930 . S
H1977 C1985 0.930 . S
H1978 C1986 0.930 . S
H1979 C1987 0.930 . S
H1980 C1990 0.930 . S
H1981 C1991 0.930 . S
C1982 H1976 0.930 . S
C1982 C1983 1.355 . S
C1982 C1984 1.415 . S
C1983 C1982 1.355 . S
C1983 C1985 1.419 . S
C1984 C1982 1.415 . S
C1984 C1989 1.425 . S
C1984 C1991 1.409 . S
C1985 H1977 0.930 . S
C1985 C1983 1.419 . S
C1985 C1986 1.362 . S
C1986 H1978 0.930 . S
C1986 C1985 1.362 . S
C1986 C1989 1.409 . S
C1987 H1979 0.930 . S
C1987 C1988 1.355 . S
C1987 C1989 1.415 . S
C1988 C1987 1.355 . S
C1988 C1990 1.419 . S
C1989 C1984 1.425 . S
C1989 C1986 1.409 . S
C1989 C1987 1.415 . S
C1990 H1980 0.930 . S
C1990 C1988 1.419 . S
C1990 C1991 1.362 . S
C1991 H1981 0.930 . S
C1991 C1984 1.409 . S
C1991 C1990 1.362 . S
H1992 C1998 0.930 . S
H1993 C2001 0.930 . S
H1994 C2002 0.930 . S
H1995 C2003 0.930 . S
H1996 C2006 0.930 . S
H1997 C2007 0.930 . S
C1998 H1992 0.930 . S
C1998 C1999 1.355 . S
C1998 C2000 1.415 . S
C1999 C1998 1.355 . S
C1999 C2001 1.419 . S
C2000 C1998 1.415 . S
C2000 C2005 1.425 . S
C2000 C2007 1.409 . S
C2001 H1993 0.930 . S
C2001 C1999 1.419 . S
C2001 C2002 1.362 . S
C2002 H1994 0.930 . S
C2002 C2001 1.362 . S
C2002 C2005 1.409 . S
C2003 H1995 0.930 . S
C2003 C2004 1.355 . S
C2003 C2005 1.415 . S
C2004 C2003 1.355 . S
C2004 C2006 1.419 . S
C2005 C2000 1.425 . S
C2005 C2002 1.409 . S
C2005 C2003 1.415 . S
C2006 H1996 0.930 . S
C2006 C2004 1.419 . S
C2006 C2007 1.362 . S
C2007 H1997 0.930 . S
C2007 C2000 1.409 . S
C2007 C2006 1.362 . S
H2008 C2014 0.930 . S
H2009 C2017 0.930 . S
H2010 C2018 0.930 . S
H2011 C2019 0.930 . S
H2012 C2022 0.930 . S
H2013 C2023 0.930 . S
C2014 H2008 0.930 . S
C2014 C2015 1.355 . S
C2014 C2016 1.415 . S
C2015 C2014 1.355 . S
C2015 C2017 1.419 . S
C2016 C2014 1.415 . S
C2016 C2021 1.425 . S
C2016 C2023 1.409 . S
C2017 H2009 0.930 . S
C2017 C2015 1.419 . S
C2017 C2018 1.362 . S
C2018 H2010 0.930 . S
C2018 C2017 1.362 . S
C2018 C2021 1.409 . S
C2019 H2011 0.930 . S
C2019 C2020 1.355 . S
C2019 C2021 1.415 . S
C2020 C2019 1.355 . S
C2020 C2022 1.419 . S
C2021 C2016 1.425 . S
C2021 C2018 1.409 . S
C2021 C2019 1.415 . S
C2022 H2012 0.930 . S
C2022 C2020 1.419 . S
C2022 C2023 1.362 . S
C2023 H2013 0.930 . S
C2023 C2016 1.409 . S
C2023 C2022 1.362 . S
H2024 C2030 0.930 . S
H2025 C2033 0.930 . S
H2026 C2034 0.930 . S
H2027 C2035 0.930 . S
H2028 C2038 0.930 . S
H2029 C2039 0.930 . S
C2030 H2024 0.930 . S
C2030 C2031 1.355 . S
C2030 C2032 1.415 . S
C2031 C2030 1.355 . S
C2031 C2033 1.419 . S
C2032 C2030 1.415 . S
C2032 C2037 1.425 . S
C2032 C2039 1.409 . S
C2033 H2025 0.930 . S
C2033 C2031 1.419 . S
C2033 C2034 1.362 . S
C2034 H2026 0.930 . S
C2034 C2033 1.362 . S
C2034 C2037 1.409 . S
C2035 H2027 0.930 . S
C2035 C2036 1.355 . S
C2035 C2037 1.415 . S
C2036 C2035 1.355 . S
C2036 C2038 1.419 . S
C2037 C2032 1.425 . S
C2037 C2034 1.409 . S
C2037 C2035 1.415 . S
C2038 H2028 0.930 . S
C2038 C2036 1.419 . S
C2038 C2039 1.362 . S
C2039 H2029 0.930 . S
C2039 C2032 1.409 . S
C2039 C2038 1.362 . S
H2040 C2046 0.930 . S
H2041 C2049 0.930 . S
H2042 C2050 0.930 . S
H2043 C2051 0.930 . S
H2044 C2054 0.930 . S
H2045 C2055 0.930 . S
C2046 H2040 0.930 . S
C2046 C2047 1.355 . S
C2046 C2048 1.415 . S
C2047 C2046 1.355 . S
C2047 C2049 1.419 1_545 S
C2048 C2046 1.415 . S
C2048 C2053 1.404 1_545 S
C2048 C2055 1.409 . S
C2049 H2041 0.930 . S
C2049 C2047 1.419 1_565 S
C2049 C2050 1.362 . S
C2050 H2042 0.930 . S
C2050 C2049 1.362 . S
C2050 C2053 1.408 . S
C2051 H2043 0.930 . S
C2051 C2052 1.355 1_565 S
C2051 C2053 1.439 . S
C2052 C2051 1.355 1_545 S
C2052 C2054 1.419 . S
C2053 C2048 1.404 1_565 S
C2053 C2050 1.408 . S
C2053 C2051 1.439 . S
C2054 H2044 0.930 . S
C2054 C2052 1.419 . S
C2054 C2055 1.362 . S
C2055 H2045 0.930 . S
C2055 C2048 1.409 . S
C2055 C2054 1.362 . S
H2056 C2062 0.930 . S
H2057 C2065 0.930 . S
H2058 C2066 0.930 . S
H2059 C2067 0.930 . S
H2060 C2070 0.930 . S
H2061 C2071 0.930 . S
C2062 H2056 0.930 . S
C2062 C2063 1.355 1_455 S
C2062 C2064 1.415 . S
C2063 C2062 1.355 1_655 S
C2063 C2065 1.419 . S
C2064 C2062 1.415 . S
C2064 C2069 1.425 1_455 S
C2064 C2071 1.409 . S
C2065 H2057 0.930 . S
C2065 C2063 1.419 . S
C2065 C2066 1.362 . S
C2066 H2058 0.930 . S
C2066 C2065 1.362 . S
C2066 C2069 1.409 . S
C2067 H2059 0.930 . S
C2067 C2068 1.355 . S
C2067 C2069 1.415 . S
C2068 C2067 1.355 . S
C2068 C2070 1.419 1_655 S
C2069 C2064 1.425 1_655 S
C2069 C2066 1.409 . S
C2069 C2067 1.415 . S
C2070 H2060 0.930 . S
C2070 C2068 1.419 1_455 S
C2070 C2071 1.362 . S
C2071 H2061 0.930 . S
C2071 C2064 1.409 . S
C2071 C2070 1.362 . S
H2072 C2078 0.930 . S
H2073 C2081 0.930 . S
H2074 C2082 0.930 . S
H2075 C2083 0.930 . S
H2076 C2086 0.930 . S
H2077 C2087 0.930 . S
C2078 H2072 0.930 . S
C2078 C2079 1.355 . S
C2078 C2080 1.415 . S
C2079 C2078 1.355 . S
C2079 C2081 1.419 . S
C2080 C2078 1.415 . S
C2080 C2085 1.425 . S
C2080 C2087 1.409 . S
C2081 H2073 0.930 . S
C2081 C2079 1.419 . S
C2081 C2082 1.362 . S
C2082 H2074 0.930 . S
C2082 C2081 1.362 . S
C2082 C2085 1.409 . S
C2083 H2075 0.930 . S
C2083 C2084 1.355 . S
C2083 C2085 1.415 . S
C2084 C2083 1.355 . S
C2084 C2086 1.419 . S
C2085 C2080 1.425 . S
C2085 C2082 1.409 . S
C2085 C2083 1.415 . S
C2086 H2076 0.930 . S
C2086 C2084 1.419 . S
C2086 C2087 1.362 . S
C2087 H2077 0.930 . S
C2087 C2080 1.409 . S
C2087 C2086 1.362 . S
H2088 C2094 0.930 . S
H2089 C2097 0.930 . S
H2090 C2098 0.930 . S
H2091 C2099 0.930 . S
H2092 C2102 0.930 . S
H2093 C2103 0.930 . S
C2094 H2088 0.930 . S
C2094 C2095 1.355 . S
C2094 C2096 1.415 . S
C2095 C2094 1.355 . S
C2095 C2097 1.419 . S
C2096 C2094 1.415 . S
C2096 C2101 1.425 . S
C2096 C2103 1.409 . S
C2097 H2089 0.930 . S
C2097 C2095 1.419 . S
C2097 C2098 1.362 . S
C2098 H2090 0.930 . S
C2098 C2097 1.362 . S
C2098 C2101 1.409 . S
C2099 H2091 0.930 . S
C2099 C2100 1.355 . S
C2099 C2101 1.415 . S
C2100 C2099 1.355 . S
C2100 C2102 1.419 . S
C2101 C2096 1.425 . S
C2101 C2098 1.409 . S
C2101 C2099 1.415 . S
C2102 H2092 0.930 . S
C2102 C2100 1.419 . S
C2102 C2103 1.362 . S
C2103 H2093 0.930 . S
C2103 C2096 1.409 . S
C2103 C2102 1.362 . S
H2104 C2110 0.930 . S
H2105 C2113 0.930 . S
H2106 C2114 0.930 . S
H2107 C2115 0.930 . S
H2108 C2118 0.930 . S
H2109 C2119 0.930 . S
C2110 H2104 0.930 . S
C2110 C2111 1.355 . S
C2110 C2112 1.415 . S
C2111 C2110 1.355 . S
C2111 C2113 1.419 . S
C2112 C2110 1.415 . S
C2112 C2117 1.425 . S
C2112 C2119 1.409 . S
C2113 H2105 0.930 . S
C2113 C2111 1.419 . S
C2113 C2114 1.362 . S
C2114 H2106 0.930 . S
C2114 C2113 1.362 . S
C2114 C2117 1.409 . S
C2115 H2107 0.930 . S
C2115 C2116 1.355 . S
C2115 C2117 1.415 . S
C2116 C2115 1.355 . S
C2116 C2118 1.419 . S
C2117 C2112 1.425 . S
C2117 C2114 1.409 . S
C2117 C2115 1.415 . S
C2118 H2108 0.930 . S
C2118 C2116 1.419 . S
C2118 C2119 1.362 . S
C2119 H2109 0.930 . S
C2119 C2112 1.409 . S
C2119 C2118 1.362 . S
H2120 C2126 0.930 . S
H2121 C2129 0.930 . S
H2122 C2130 0.930 . S
H2123 C2131 0.930 . S
H2124 C2134 0.930 . S
H2125 C2135 0.930 . S
C2126 H2120 0.930 . S
C2126 C2127 1.355 . S
C2126 C2128 1.415 . S
C2127 C2126 1.355 . S
C2127 C2129 1.419 . S
C2128 C2126 1.415 . S
C2128 C2133 1.425 . S
C2128 C2135 1.409 . S
C2129 H2121 0.930 . S
C2129 C2127 1.419 . S
C2129 C2130 1.362 . S
C2130 H2122 0.930 . S
C2130 C2129 1.362 . S
C2130 C2133 1.409 . S
C2131 H2123 0.930 . S
C2131 C2132 1.355 . S
C2131 C2133 1.415 . S
C2132 C2131 1.355 . S
C2132 C2134 1.419 . S
C2133 C2128 1.425 . S
C2133 C2130 1.409 . S
C2133 C2131 1.415 . S
C2134 H2124 0.930 . S
C2134 C2132 1.419 . S
C2134 C2135 1.362 . S
C2135 H2125 0.930 . S
C2135 C2128 1.409 . S
C2135 C2134 1.362 . S
H2136 C2142 0.930 . S
H2137 C2145 0.930 . S
H2138 C2146 0.930 . S
H2139 C2147 0.930 . S
H2140 C2150 0.930 . S
H2141 C2151 0.930 . S
C2142 H2136 0.930 . S
C2142 C2143 1.355 . S
C2142 C2144 1.415 . S
C2143 C2142 1.355 . S
C2143 C2145 1.419 . S
C2144 C2142 1.415 . S
C2144 C2149 1.425 . S
C2144 C2151 1.409 . S
C2145 H2137 0.930 . S
C2145 C2143 1.419 . S
C2145 C2146 1.362 . S
C2146 H2138 0.930 . S
C2146 C2145 1.362 . S
C2146 C2149 1.409 . S
C2147 H2139 0.930 . S
C2147 C2148 1.355 . S
C2147 C2149 1.415 . S
C2148 C2147 1.355 . S
C2148 C2150 1.419 . S
C2149 C2144 1.425 . S
C2149 C2146 1.409 . S
C2149 C2147 1.415 . S
C2150 H2140 0.930 . S
C2150 C2148 1.419 . S
C2150 C2151 1.362 . S
C2151 H2141 0.930 . S
C2151 C2144 1.409 . S
C2151 C2150 1.362 . S
H2152 C2158 0.930 . S
H2153 C2161 0.930 . S
H2154 C2162 0.930 . S
H2155 C2163 0.930 . S
H2156 C2166 0.930 . S
H2157 C2167 0.930 . S
C2158 H2152 0.930 . S
C2158 C2159 1.355 . S
C2158 C2160 1.415 . S
C2159 C2158 1.355 . S
C2159 C2161 1.419 . S
C2160 C2158 1.415 . S
C2160 C2165 1.425 . S
C2160 C2167 1.409 . S
C2161 H2153 0.930 . S
C2161 C2159 1.419 . S
C2161 C2162 1.362 . S
C2162 H2154 0.930 . S
C2162 C2161 1.362 . S
C2162 C2165 1.409 . S
C2163 H2155 0.930 . S
C2163 C2164 1.355 . S
C2163 C2165 1.415 . S
C2164 C2163 1.355 . S
C2164 C2166 1.419 . S
C2165 C2160 1.425 . S
C2165 C2162 1.409 . S
C2165 C2163 1.415 . S
C2166 H2156 0.930 . S
C2166 C2164 1.419 . S
C2166 C2167 1.362 . S
C2167 H2157 0.930 . S
C2167 C2160 1.409 . S
C2167 C2166 1.362 . S
H2168 C2174 0.930 . S
H2169 C2177 0.930 . S
H2170 C2178 0.930 . S
H2171 C2179 0.930 . S
H2172 C2182 0.930 . S
H2173 C2183 0.930 . S
C2174 H2168 0.930 . S
C2174 C2175 1.355 . S
C2174 C2176 1.415 . S
C2175 C2174 1.355 . S
C2175 C2177 1.419 . S
C2176 C2174 1.415 . S
C2176 C2181 1.425 . S
C2176 C2183 1.409 . S
C2177 H2169 0.930 . S
C2177 C2175 1.419 . S
C2177 C2178 1.362 . S
C2178 H2170 0.930 . S
C2178 C2177 1.362 . S
C2178 C2181 1.409 . S
C2179 H2171 0.930 . S
C2179 C2180 1.355 . S
C2179 C2181 1.415 . S
C2180 C2179 1.355 . S
C2180 C2182 1.419 . S
C2181 C2176 1.425 . S
C2181 C2178 1.409 . S
C2181 C2179 1.415 . S
C2182 H2172 0.930 . S
C2182 C2180 1.419 . S
C2182 C2183 1.362 . S
C2183 H2173 0.930 . S
C2183 C2176 1.409 . S
C2183 C2182 1.362 . S
H2184 C2190 0.930 . S
H2185 C2193 0.930 . S
H2186 C2194 0.930 . S
H2187 C2195 0.930 . S
H2188 C2198 0.930 . S
H2189 C2199 0.930 . S
C2190 H2184 0.930 . S
C2190 C2191 1.355 . S
C2190 C2192 1.415 . S
C2191 C2190 1.355 . S
C2191 C2193 1.419 1_655 S
C2192 C2190 1.415 . S
C2192 C2197 1.425 1_655 S
C2192 C2199 1.409 . S
C2193 H2185 0.930 . S
C2193 C2191 1.419 1_455 S
C2193 C2194 1.362 . S
C2194 H2186 0.930 . S
C2194 C2193 1.362 . S
C2194 C2197 1.409 . S
C2195 H2187 0.930 . S
C2195 C2196 1.355 1_455 S
C2195 C2197 1.415 . S
C2196 C2195 1.355 1_655 S
C2196 C2198 1.419 . S
C2197 C2192 1.425 1_455 S
C2197 C2194 1.409 . S
C2197 C2195 1.415 . S
C2198 H2188 0.930 . S
C2198 C2196 1.419 . S
C2198 C2199 1.362 . S
C2199 H2189 0.930 . S
C2199 C2192 1.409 . S
C2199 C2198 1.362 . S
H2200 C2206 0.930 . S
H2201 C2209 0.930 . S
H2202 C2210 0.930 . S
H2203 C2211 0.930 . S
H2204 C2214 0.930 . S
H2205 C2215 0.930 . S
C2206 H2200 0.930 . S
C2206 C2207 1.355 . S
C2206 C2208 1.415 . S
C2207 C2206 1.355 . S
C2207 C2209 1.419 . S
C2208 C2206 1.415 . S
C2208 C2213 1.425 . S
C2208 C2215 1.409 . S
C2209 H2201 0.930 . S
C2209 C2207 1.419 . S
C2209 C2210 1.362 . S
C2210 H2202 0.930 . S
C2210 C2209 1.362 . S
C2210 C2213 1.409 . S
C2211 H2203 0.930 . S
C2211 C2212 1.355 . S
C2211 C2213 1.415 . S
C2212 C2211 1.355 . S
C2212 C2214 1.419 . S
C2213 C2208 1.425 . S
C2213 C2210 1.409 . S
C2213 C2211 1.415 . S
C2214 H2204 0.930 . S
C2214 C2212 1.419 . S
C2214 C2215 1.362 . S
C2215 H2205 0.930 . S
C2215 C2208 1.409 . S
C2215 C2214 1.362 . S
H2216 C2222 0.930 . S
H2217 C2225 0.930 . S
H2218 C2226 0.930 . S
H2219 C2227 0.930 . S
H2220 C2230 0.930 . S
H2221 C2231 0.930 . S
C2222 H2216 0.930 . S
C2222 C2223 1.355 . S
C2222 C2224 1.415 . S
C2223 C2222 1.355 . S
C2223 C2225 1.419 1_545 S
C2224 C2222 1.415 . S
C2224 C2229 1.425 1_545 S
C2224 C2231 1.409 . S
C2225 H2217 0.930 . S
C2225 C2223 1.419 1_565 S
C2225 C2226 1.362 . S
C2226 H2218 0.930 . S
C2226 C2225 1.362 . S
C2226 C2229 1.409 . S
C2227 H2219 0.930 . S
C2227 C2228 1.355 1_565 S
C2227 C2229 1.415 . S
C2228 C2227 1.355 1_545 S
C2228 C2230 1.419 . S
C2229 C2224 1.425 1_565 S
C2229 C2226 1.409 . S
C2229 C2227 1.415 . S
C2230 H2220 0.930 . S
C2230 C2228 1.419 . S
C2230 C2231 1.362 . S
C2231 H2221 0.930 . S
C2231 C2224 1.409 . S
C2231 C2230 1.362 . S
C1087 C8 1.458 1_655 S
C1092 C688 1.474 . S
C1103 C22 1.567 . S
C1108 C734 1.539 . S
C1124 C766 1.486 . S
C1119 C37 1.482 1_545 S
C1135 C36 1.458 1_565 S
C1140 C819 1.474 . S
C1151 C9 1.436 1_455 S
C1156 C865 1.492 . S
C1167 C23 1.550 . S
C1172 C904 1.572 . S
C1183 C50 1.433 1_455 S
C1188 C858 1.471 . S
C1204 C911 1.550 . S
C1199 C64 1.572 . S
C1220 C812 1.488 . S
C1215 C79 1.473 1_565 S
C1231 C78 1.463 1_545 S
C1236 C773 1.469 . S
C1252 C667 1.493 . S
C1247 C51 1.460 1_655 S
C1263 C65 1.551 . S
C1268 C713 1.556 . S
C1279 C92 1.591 . S
C1284 C943 1.619 . S
C1295 C106 1.607 . S
C1300 C1010 1.625 . S
C1316 C1056 1.583 . S
C1311 C121 1.577 . S
C1327 C120 1.538 . S
C1332 C267 1.535 . S
C1343 C93 1.577 . S
C1348 C313 1.564 . S
C1359 C107 1.567 . S
C1364 C359 1.591 . S
C1375 C134 1.549 . S
C1380 C306 1.527 . S
C1391 C148 1.596 . S
C1396 C352 1.553 . S
C1412 C260 1.568 . S
C1407 C163 1.573 . S
C1428 C1035 1.620 . S
C1423 C162 1.594 . S
C1444 C964 1.582 . S
C1439 C135 1.578 . S
C1460 C989 1.594 . S
C1455 C149 1.629 . S
C1471 C176 1.536 . S
C1476 C391 1.552 . S
C1487 C190 1.569 . S
C1492 C444 1.589 . S
C1503 C205 1.582 . S
C1508 C490 1.563 . S
C1519 C204 1.610 . S
C1524 C536 1.608 . S
C1540 C589 1.593 . S
C1535 C177 1.576 . S
C1556 C635 1.593 . S
C1551 C191 1.629 . S
C1572 C582 1.596 . S
C1567 C218 1.615 . S
C1588 C628 1.614 . S
C1583 C232 1.608 . S
C1599 C247 1.579 . S
C1604 C543 1.580 . S
C1620 C497 1.538 . S
C1615 C246 1.542 . S
C1631 C219 1.585 . S
C1636 C412 1.561 . S
C1652 C451 1.570 . S
C1647 C233 1.592 . S
C1668 C274 1.561 . S
C1663 C6 1.550 . S
C1679 C20 1.486 . S
C1684 C320 1.503 . S
C1700 C366 1.545 . S
C1695 C35 1.557 . S
C1716 C398 1.527 . S
C1711 C34 1.557 . S
C1732 C437 1.561 . S
C1727 C7 1.554 . S
C1748 C483 1.510 . S
C1743 C21 1.508 . S
C1759 C48 1.562 . S
C1764 C504 1.537 . S
C1775 C62 1.477 . S
C1780 C405 1.518 . S
C1791 C77 1.534 . S
C1796 C458 1.560 . S
C1807 C76 1.532 . S
C1812 C299 1.575 . S
C1828 C345 1.544 . S
C1823 C49 1.551 . S
C1839 C63 1.478 . S
C1844 C253 1.509 . S
C1860 C529 1.510 . S
C1855 C90 1.539 . S
C1871 C104 1.541 . S
C1876 C596 1.580 . S
C1887 C119 1.542 . S
C1892 C642 1.587 . S
C1908 C681 1.487 . S
C1903 C118 1.468 . S
C1919 C91 1.520 . S
C1924 C727 1.557 . S
C1935 C105 1.473 . S
C1940 C759 1.484 . S
C1951 C132 1.416 . S
C1956 C780 1.468 . S
C1967 C146 1.473 . S
C1972 C674 1.491 . S
C1988 C720 1.534 . S
C1983 C161 1.531 . S
C1999 C160 1.504 . S
C2004 C575 1.543 . S
C2015 C133 1.558 . S
C2020 C621 1.568 . S
C2036 C550 1.554 . S
C2031 C147 1.572 . S
C2052 C826 1.487 . S
C2047 C174 1.467 . S
C2063 C188 1.409 . S
C2068 C872 1.479 . S
C2079 C203 1.507 . S
C2084 C897 1.550 . S
C2100 C950 1.539 . S
C2095 C202 1.532 . S
C2116 C1003 1.589 . S
C2111 C175 1.542 . S
C2127 C189 1.539 . S
C2132 C1049 1.588 . S
C2143 C216 1.548 . S
C2148 C1042 1.536 . S
C2159 C230 1.582 . S
C2164 C957 1.567 . S
C2180 C996 1.568 . S
C2175 C245 1.580 . S
C2196 C851 1.485 . S
C2191 C244 1.463 . S
C2212 C918 1.538 . S
C2207 C217 1.548 . S
C2223 C231 1.475 . S
C2228 C805 1.487 . S
