# Generated by pormake.
# Topology sqc, (4,8)-cn, num edge types: 1
# Building blocks:
#     Node 0, Type 0, BuildingBlock: NAHDIM_clean_linker_0, # of connection points: 4
#     Node 1, Type 0, BuildingBlock: NAHDIM_clean_linker_0, # of connection points: 4
#     Node 2, Type 0, BuildingBlock: NAHDIM_clean_linker_0, # of connection points: 4
#     Node 3, Type 0, BuildingBlock: NAHDIM_clean_linker_0, # of connection points: 4
#     Node 4, Type 0, BuildingBlock: NAHDIM_clean_linker_0, # of connection points: 4
#     Node 5, Type 0, BuildingBlock: NAHDIM_clean_linker_0, # of connection points: 4
#     Node 6, Type 0, BuildingBlock: NAHDIM_clean_linker_0, # of connection points: 4
#     Node 7, Type 0, BuildingBlock: NAHDIM_clean_linker_0, # of connection points: 4
#     Node 8, Type 1, BuildingBlock: TAGTUT_clean_sbu_3, # of connection points: 8
#     Node 9, Type 1, BuildingBlock: TAGTUT_clean_sbu_3, # of connection points: 8
#     Node 10, Type 1, BuildingBlock: TAGTUT_clean_sbu_3, # of connection points: 8
#     Node 11, Type 1, BuildingBlock: TAGTUT_clean_sbu_3, # of connection points: 8
#     Edge 12, Type (0, 1), BuildingBlock: XUDNAN_clean_linker_2, # of connection points: 2
#     Edge 13, Type (0, 1), BuildingBlock: XUDNAN_clean_linker_2, # of connection points: 2
#     Edge 14, Type (0, 1), BuildingBlock: XUDNAN_clean_linker_2, # of connection points: 2
#     Edge 15, Type (0, 1), BuildingBlock: XUDNAN_clean_linker_2, # of connection points: 2
#     Edge 16, Type (0, 1), BuildingBlock: XUDNAN_clean_linker_2, # of connection points: 2
#     Edge 17, Type (0, 1), BuildingBlock: XUDNAN_clean_linker_2, # of connection points: 2
#     Edge 18, Type (0, 1), BuildingBlock: XUDNAN_clean_linker_2, # of connection points: 2
#     Edge 19, Type (0, 1), BuildingBlock: XUDNAN_clean_linker_2, # of connection points: 2
#     Edge 20, Type (0, 1), BuildingBlock: XUDNAN_clean_linker_2, # of connection points: 2
#     Edge 21, Type (0, 1), BuildingBlock: XUDNAN_clean_linker_2, # of connection points: 2
#     Edge 22, Type (0, 1), BuildingBlock: XUDNAN_clean_linker_2, # of connection points: 2
#     Edge 23, Type (0, 1), BuildingBlock: XUDNAN_clean_linker_2, # of connection points: 2
#     Edge 24, Type (0, 1), BuildingBlock: XUDNAN_clean_linker_2, # of connection points: 2
#     Edge 25, Type (0, 1), BuildingBlock: XUDNAN_clean_linker_2, # of connection points: 2
#     Edge 26, Type (0, 1), BuildingBlock: XUDNAN_clean_linker_2, # of connection points: 2
#     Edge 27, Type (0, 1), BuildingBlock: XUDNAN_clean_linker_2, # of connection points: 2
#     Edge 28, Type (0, 1), BuildingBlock: XUDNAN_clean_linker_2, # of connection points: 2
#     Edge 29, Type (0, 1), BuildingBlock: XUDNAN_clean_linker_2, # of connection points: 2
#     Edge 30, Type (0, 1), BuildingBlock: XUDNAN_clean_linker_2, # of connection points: 2
#     Edge 31, Type (0, 1), BuildingBlock: XUDNAN_clean_linker_2, # of connection points: 2
#     Edge 32, Type (0, 1), BuildingBlock: XUDNAN_clean_linker_2, # of connection points: 2
#     Edge 33, Type (0, 1), BuildingBlock: XUDNAN_clean_linker_2, # of connection points: 2
#     Edge 34, Type (0, 1), BuildingBlock: XUDNAN_clean_linker_2, # of connection points: 2
#     Edge 35, Type (0, 1), BuildingBlock: XUDNAN_clean_linker_2, # of connection points: 2
#     Edge 36, Type (0, 1), BuildingBlock: XUDNAN_clean_linker_2, # of connection points: 2
#     Edge 37, Type (0, 1), BuildingBlock: XUDNAN_clean_linker_2, # of connection points: 2
#     Edge 38, Type (0, 1), BuildingBlock: XUDNAN_clean_linker_2, # of connection points: 2
#     Edge 39, Type (0, 1), BuildingBlock: XUDNAN_clean_linker_2, # of connection points: 2
#     Edge 40, Type (0, 1), BuildingBlock: XUDNAN_clean_linker_2, # of connection points: 2
#     Edge 41, Type (0, 1), BuildingBlock: XUDNAN_clean_linker_2, # of connection points: 2
#     Edge 42, Type (0, 1), BuildingBlock: XUDNAN_clean_linker_2, # of connection points: 2
#     Edge 43, Type (0, 1), BuildingBlock: XUDNAN_clean_linker_2, # of connection points: 2
# Relax obj value: 0.120
# Max RMSD: 0.249
# Mean RMSD: 0.121
data_MOF--net-sqc--node1-TAGTUT_clean_sbu_3--node2-NAHDIM_clean_linker_0--edge1-XUDNAN_clean_linker_2
_symmetry_space_group_name_H-M    P1
_symmetry_Int_Tables_number       1
_symmetry_cell_setting            triclinic
loop_
_symmetry_equiv_pos_as_xyz
'x, y, z'
_cell_length_a     30.98692
_cell_length_b     30.974999
_cell_length_c     103.89638
_cell_angle_alpha  90.26105
_cell_angle_beta   89.522354
_cell_angle_gamma 89.951449
loop_
_atom_site_label
_atom_site_type_symbol
_atom_site_fract_x
_atom_site_fract_y
_atom_site_fract_z
_atom_type_partial_charge
C0 C 0.81806 0.02262 0.46178 0.0
C1 C 0.83034 0.98203 0.454 0.0
C2 C 0.88644 0.94794 0.46726 0.0
C3 C 0.89474 0.91421 0.47579 0.0
C4 C 0.93388 0.91187 0.48246 0.0
C5 C 0.96539 0.94419 0.48051 0.0
C6 C 0.95841 0.97681 0.47127 0.0
C7 C 0.919 0.97845 0.46475 0.0
C8 C 0.94053 0.87646 0.49216 0.0
C9 C 0.99167 0.01146 0.46881 0.0
C10 C 0.21898 0.77121 0.47456 0.0
C11 C 0.23176 0.8165 0.46992 0.0
C12 C 0.19376 0.8671 0.4836 0.0
C13 C 0.18028 0.90199 0.47615 0.0
C14 C 0.14307 0.92551 0.47955 0.0
C15 C 0.1185 0.91306 0.49049 0.0
C16 C 0.13219 0.87752 0.49798 0.0
C17 C 0.17026 0.85554 0.49457 0.0
C18 C 0.13003 0.96356 0.47144 0.0
C19 C 0.10641 0.86234 0.50949 0.0
C20 C 0.18645 0.10533 0.5508 0.0
C21 C 0.17151 0.12131 0.53902 0.0
C22 C 0.13189 0.1076 0.53402 0.0
C23 C 0.1071 0.07667 0.54082 0.0
C24 C 0.1212 0.06187 0.55294 0.0
C25 C 0.16056 0.07688 0.55784 0.0
C26 C 0.11702 0.12549 0.52131 0.0
C27 C 0.09541 0.02922 0.56049 0.0
C28 C 0.75389 0.10146 0.52874 0.0
C29 C 0.78312 0.09346 0.54027 0.0
C30 C 0.86118 0.10765 0.53896 0.0
C31 C 0.89057 0.13314 0.53214 0.0
C32 C 0.93373 0.12033 0.53058 0.0
C33 C 0.94782 0.08132 0.5362 0.0
C34 C 0.91911 0.05729 0.54404 0.0
C35 C 0.87596 0.07071 0.54535 0.0
C36 C 0.9636 0.14711 0.52232 0.0
C37 C 0.9335 0.01628 0.5505 0.0
C38 C 0.00199 0.9486 0.48954 0.0
C39 C 0.04126 0.92853 0.48658 0.0
C40 C 0.07808 0.93648 0.49396 0.0
C41 C 0.07588 0.96618 0.50437 0.0
C42 C 0.11277 0.97773 0.51139 0.0
C43 C 0.11022 0.0076 0.52144 0.0
C44 C 0.0706 0.02679 0.52494 0.0
C45 C 0.06779 0.05828 0.53485 0.0
C46 C 0.0275 0.07501 0.53853 0.0
C47 C 0.98991 0.0623 0.5322 0.0
C48 C 0.99254 0.03295 0.52175 0.0
C49 C 0.95578 0.02188 0.51462 0.0
C50 C 0.95879 0.99423 0.50411 0.0
C51 C 0.99853 0.97572 0.50046 0.0
C52 C 0.03574 0.98527 0.50774 0.0
C53 C 0.03292 0.01477 0.51822 0.0
C54 C 0.27748 0.09175 0.53984 0.0
C55 C 0.26196 0.12869 0.54865 0.0
O56 O 0.8464 0.9503 0.46202 0.0
O57 O 0.8191 0.1199 0.5391 0.0
O58 O 0.22573 0.11594 0.55561 0.0
O59 O 0.22969 0.84451 0.48035 0.0
H60 H 0.85521 0.99153 0.44677 0.0
H61 H 0.80006 0.04569 0.45566 0.0
H62 H 0.84753 0.03914 0.46525 0.0
H63 H 0.79812 0.01428 0.47034 0.0
H64 H 0.86973 0.89048 0.47755 0.0
H65 H 0.91371 0.00445 0.45805 0.0
H66 H 0.97246 0.86093 0.49057 0.0
H67 H 0.91498 0.85138 0.49164 0.0
H68 H 0.94039 0.89057 0.502 0.0
H69 H 0.98401 0.03105 0.46019 0.0
H70 H 0.02411 0.99678 0.46747 0.0
H71 H 0.99318 0.03335 0.47728 0.0
H72 H 0.20845 0.82665 0.46239 0.0
H73 H 0.21449 0.7487 0.46634 0.0
H74 H 0.18773 0.7727 0.47985 0.0
H75 H 0.24388 0.75805 0.4811 0.0
H76 H 0.19913 0.91087 0.46774 0.0
H77 H 0.18127 0.82851 0.50027 0.0
H78 H 0.12191 0.99172 0.47766 0.0
H79 H 0.10077 0.95509 0.46588 0.0
H80 H 0.15588 0.97308 0.46454 0.0
H81 H 0.11797 0.83071 0.51311 0.0
H82 H 0.07174 0.85938 0.507 0.0
H83 H 0.10901 0.8864 0.51739 0.0
H84 H 0.25411 0.15747 0.54275 0.0
H85 H 0.19064 0.14425 0.53363 0.0
H86 H 0.17211 0.06518 0.567 0.0
H87 H 0.12021 0.1002 0.51376 0.0
H88 H 0.13625 0.15399 0.51827 0.0
H89 H 0.08247 0.13493 0.52191 0.0
H90 H 0.11151 0.01991 0.56958 0.0
H91 H 0.0904 0.99978 0.55455 0.0
H92 H 0.0631 0.04274 0.56286 0.0
H93 H 0.79232 0.05874 0.53997 0.0
H94 H 0.72525 0.07992 0.52909 0.0
H95 H 0.7719 0.09463 0.51966 0.0
H96 H 0.74283 0.13561 0.52861 0.0
H97 H 0.87903 0.16221 0.52753 0.0
H98 H 0.85393 0.05203 0.55124 0.0
H99 H 0.97335 0.12827 0.51365 0.0
H100 H 0.99338 0.15491 0.52772 0.0
H101 H 0.94832 0.17771 0.51917 0.0
H102 H 0.90963 0.00489 0.55776 0.0
H103 H 0.96506 0.0213 0.55527 0.0
H104 H 0.93792 0.99059 0.54312 0.0
H105 H 0.04335 0.90705 0.47832 0.0
H106 H 0.14415 0.96425 0.50907 0.0
H107 H 0.13973 0.01543 0.52644 0.0
H108 H 0.02551 0.0989 0.54618 0.0
H109 H 0.92424 0.03499 0.51691 0.0
H110 H 0.92939 0.98746 0.49893 0.0
H111 H 0.30675 0.10151 0.53434 0.0
H112 H 0.28511 0.06266 0.54562 0.0
H113 H 0.25224 0.08314 0.53277 0.0
C114 C 0.1415 0.90089 0.7911 0.0
C115 C 0.16889 0.89532 0.80325 0.0
C116 C 0.2294 0.84804 0.79658 0.0
C117 C 0.27427 0.84587 0.79539 0.0
C118 C 0.29516 0.80746 0.79171 0.0
C119 C 0.27028 0.77055 0.78859 0.0
C120 C 0.22474 0.7724 0.78981 0.0
C121 C 0.20485 0.81081 0.79403 0.0
C122 C 0.34387 0.80663 0.79115 0.0
C123 C 0.19687 0.73398 0.78655 0.0
C124 C 0.37701 0.46095 0.81471 0.0
C125 C 0.33576 0.47523 0.82182 0.0
C126 C 0.30827 0.5357 0.80876 0.0
C127 C 0.27628 0.54736 0.80006 0.0
C128 C 0.27651 0.5879 0.79411 0.0
C129 C 0.30974 0.61767 0.79696 0.0
C130 C 0.34107 0.60704 0.80626 0.0
C131 C 0.34014 0.56609 0.81206 0.0
C132 C 0.24234 0.59813 0.78431 0.0
C133 C 0.37676 0.63816 0.80955 0.0
C134 C 0.47301 0.52973 0.73508 0.0
C135 C 0.42863 0.53058 0.73246 0.0
C136 C 0.40531 0.56932 0.73325 0.0
C137 C 0.42671 0.60768 0.73699 0.0
C138 C 0.47194 0.60742 0.73873 0.0
C139 C 0.49462 0.56834 0.7376 0.0
C140 C 0.35742 0.56881 0.73075 0.0
C141 C 0.49591 0.64791 0.74244 0.0
C142 C 0.30154 0.89592 0.68929 0.0
C143 C 0.34306 0.87942 0.69543 0.0
C144 C 0.3515 0.80703 0.70415 0.0
C145 C 0.32871 0.76825 0.70439 0.0
C146 C 0.33411 0.73874 0.71444 0.0
C147 C 0.36427 0.74777 0.72426 0.0
C148 C 0.38866 0.78639 0.72381 0.0
C149 C 0.38169 0.8159 0.71381 0.0
C150 C 0.3076 0.69787 0.71453 0.0
C151 C 0.4223 0.79624 0.73382 0.0
C152 C 0.292 0.73026 0.78403 0.0
C153 C 0.29348 0.69485 0.79239 0.0
C154 C 0.31485 0.65677 0.78884 0.0
C155 C 0.33767 0.6547 0.77702 0.0
C156 C 0.36244 0.61824 0.77367 0.0
C157 C 0.38415 0.61599 0.76195 0.0
C158 C 0.38069 0.64938 0.75289 0.0
C159 C 0.4011 0.64634 0.7407 0.0
C160 C 0.39619 0.6795 0.73179 0.0
C161 C 0.3711 0.71591 0.73468 0.0
C162 C 0.35112 0.71998 0.74695 0.0
C163 C 0.32589 0.7562 0.75027 0.0
C164 C 0.3067 0.75984 0.76242 0.0
C165 C 0.31124 0.72699 0.77163 0.0
C166 C 0.33515 0.68953 0.76828 0.0
C167 C 0.35588 0.68644 0.75606 0.0
C168 C 0.51296 0.42591 0.74551 0.0
C169 C 0.47907 0.45186 0.73824 0.0
O170 O 0.21154 0.88668 0.80001 0.0
O171 O 0.34402 0.83484 0.69438 0.0
O172 O 0.49579 0.49234 0.73553 0.0
O173 O 0.30736 0.49466 0.81339 0.0
H174 H 0.15537 0.86807 0.80895 0.0
H175 H 0.13975 0.87032 0.78555 0.0
H176 H 0.15547 0.92587 0.78467 0.0
H177 H 0.10801 0.91041 0.79378 0.0
H178 H 0.29307 0.87452 0.79748 0.0
H179 H 0.17015 0.81144 0.79513 0.0
H180 H 0.35653 0.77608 0.79522 0.0
H181 H 0.35822 0.8342 0.79649 0.0
H182 H 0.35478 0.8086 0.78098 0.0
H183 H 0.16226 0.74287 0.78575 0.0
H184 H 0.19994 0.70938 0.79422 0.0
H185 H 0.20762 0.71896 0.77734 0.0
H186 H 0.34489 0.49847 0.82953 0.0
H187 H 0.39848 0.44308 0.82135 0.0
H188 H 0.39492 0.4895 0.8111 0.0
H189 H 0.36936 0.43996 0.80635 0.0
H190 H 0.25162 0.52394 0.79765 0.0
H191 H 0.36501 0.55793 0.81887 0.0
H192 H 0.22726 0.62984 0.78654 0.0
H193 H 0.21668 0.57313 0.78398 0.0
H194 H 0.25749 0.60047 0.77461 0.0
H195 H 0.39597 0.62716 0.8179 0.0
H196 H 0.36307 0.67054 0.81175 0.0
H197 H 0.3987 0.64165 0.80111 0.0
H198 H 0.45045 0.45499 0.74475 0.0
H199 H 0.41195 0.50101 0.73 0.0
H200 H 0.52906 0.56742 0.73932 0.0
H201 H 0.33964 0.57114 0.74005 0.0
H202 H 0.34718 0.53875 0.72577 0.0
H203 H 0.34805 0.59699 0.72482 0.0
H204 H 0.53131 0.64259 0.74301 0.0
H205 H 0.48399 0.65966 0.75194 0.0
H206 H 0.48959 0.67368 0.7353 0.0
H207 H 0.34191 0.88945 0.70574 0.0
H208 H 0.29923 0.9316 0.69024 0.0
H209 H 0.27312 0.88142 0.69421 0.0
H210 H 0.30056 0.88701 0.67892 0.0
H211 H 0.30586 0.76161 0.69679 0.0
H212 H 0.40031 0.84546 0.7134 0.0
H213 H 0.29262 0.69295 0.72416 0.0
H214 H 0.32896 0.66983 0.71251 0.0
H215 H 0.28174 0.69837 0.70719 0.0
H216 H 0.44117 0.82569 0.73147 0.0
H217 H 0.44485 0.76855 0.73471 0.0
H218 H 0.40639 0.80105 0.74333 0.0
H219 H 0.27723 0.69666 0.80166 0.0
H220 H 0.36578 0.59111 0.78011 0.0
H221 H 0.40315 0.5873 0.76004 0.0
H222 H 0.4113 0.67648 0.72236 0.0
H223 H 0.32095 0.78231 0.74355 0.0
H224 H 0.2878 0.78852 0.76444 0.0
H225 H 0.54273 0.42193 0.73957 0.0
H226 H 0.50016 0.3935 0.74804 0.0
H227 H 0.52147 0.44299 0.75456 0.0
C228 C 0.72858 0.93602 0.09783 0.0
C229 C 0.7449 0.92291 0.08442 0.0
C230 C 0.72186 0.96138 0.06551 0.0
C231 C 0.7242 0.92878 0.05615 0.0
C232 C 0.69724 0.92966 0.04538 0.0
C233 C 0.66682 0.9635 0.04409 0.0
C234 C 0.66554 0.99729 0.05333 0.0
C235 C 0.69381 0.99617 0.06383 0.0
C236 C 0.70023 0.89357 0.03561 0.0
C237 C 0.63312 0.03349 0.05242 0.0
C238 C 0.40338 0.7564 0.04311 0.0
C239 C 0.42346 0.79388 0.05057 0.0
C240 C 0.45676 0.85328 0.03871 0.0
C241 C 0.4541 0.8982 0.03828 0.0
C242 C 0.4895 0.92312 0.03432 0.0
C243 C 0.52804 0.90226 0.0303 0.0
C244 C 0.53025 0.85662 0.03017 0.0
C245 C 0.49453 0.83254 0.0344 0.0
C246 C 0.48598 0.97173 0.03471 0.0
C247 C 0.57045 0.83334 0.02568 0.0
C248 C 0.4886 0.99703 0.94904 0.0
C249 C 0.47604 0.02055 0.95998 0.0
C250 C 0.50561 0.02905 0.96984 0.0
C251 C 0.54802 0.01201 0.9689 0.0
C252 C 0.56077 0.98878 0.95771 0.0
C253 C 0.53098 0.98231 0.9478 0.0
C254 C 0.49137 0.05597 0.98125 0.0
C255 C 0.60563 0.97023 0.9563 0.0
C256 C 0.82915 0.22628 0.98635 0.0
C257 C 0.81004 0.18518 0.98051 0.0
C258 C 0.73677 0.15605 0.98196 0.0
C259 C 0.69525 0.16607 0.98632 0.0
C260 C 0.66428 0.13371 0.98817 0.0
C261 C 0.67502 0.09033 0.98526 0.0
C262 C 0.71657 0.08009 0.98038 0.0
C263 C 0.74723 0.11306 0.97887 0.0
C264 C 0.62024 0.1458 0.99335 0.0
C265 C 0.72857 0.03431 0.97683 0.0
C266 C 0.63372 0.96096 0.03385 0.0
C267 C 0.59823 0.93411 0.03607 0.0
C268 C 0.56644 0.92837 0.02677 0.0
C269 C 0.57043 0.94916 0.01475 0.0
C270 C 0.54058 0.94185 0.00486 0.0
C271 C 0.54399 0.96356 0.9932 0.0
C272 C 0.57667 0.9943 0.99112 0.0
C273 C 0.57911 0.01826 0.97957 0.0
C274 C 0.61178 0.04887 0.97793 0.0
C275 C 0.64271 0.05581 0.98742 0.0
C276 C 0.64144 0.03152 0.99891 0.0
C277 C 0.67271 0.03696 0.00853 0.0
C278 C 0.67092 0.01312 0.01985 0.0
C279 C 0.63694 0.98409 0.02217 0.0
C280 C 0.60516 0.97804 0.01258 0.0
C281 C 0.60784 0.0012 0.00084 0.0
C282 C 0.42242 0.92553 0.93257 0.0
C283 C 0.42253 0.96449 0.94166 0.0
O284 O 0.74501 0.95882 0.0765 0.0
O285 O 0.76552 0.18882 0.98077 0.0
O286 O 0.46005 0.98785 0.93963 0.0
O287 O 0.42214 0.83105 0.04321 0.0
H288 H 0.7216 0.89827 0.08083 0.0
H289 H 0.69484 0.94793 0.09719 0.0
H290 H 0.7487 0.9622 0.10197 0.0
H291 H 0.72902 0.90781 0.1044 0.0
H292 H 0.74666 0.90234 0.05741 0.0
H293 H 0.69256 0.02128 0.07112 0.0
H294 H 0.67157 0.87235 0.03662 0.0
H295 H 0.72968 0.87362 0.03689 0.0
H296 H 0.70027 0.90682 0.02569 0.0
H297 H 0.63496 0.05614 0.06072 0.0
H298 H 0.59995 0.02004 0.05198 0.0
H299 H 0.63877 0.05194 0.04343 0.0
H300 H 0.45737 0.78486 0.05281 0.0
H301 H 0.40388 0.72652 0.04899 0.0
H302 H 0.4222 0.75036 0.03413 0.0
H303 H 0.36951 0.76387 0.04047 0.0
H304 H 0.42451 0.91377 0.04146 0.0
H305 H 0.49608 0.79762 0.03425 0.0
H306 H 0.48776 0.98461 0.02478 0.0
H307 H 0.51335 0.98568 0.04017 0.0
H308 H 0.45526 0.98284 0.03922 0.0
H309 H 0.56507 0.79809 0.0245 0.0
H310 H 0.59639 0.83825 0.03284 0.0
H311 H 0.58195 0.8468 0.01637 0.0
H312 H 0.4216 0.95165 0.95168 0.0
H313 H 0.44322 0.03248 0.96071 0.0
H314 H 0.54021 0.96444 0.93921 0.0
H315 H 0.48575 0.03467 0.98965 0.0
H316 H 0.46097 0.07376 0.97931 0.0
H317 H 0.51677 0.07959 0.9839 0.0
H318 H 0.60871 0.94861 0.94777 0.0
H319 H 0.61433 0.95179 0.96504 0.0
H320 H 0.62924 0.99693 0.95523 0.0
H321 H 0.82032 0.15782 0.9867 0.0
H322 H 0.86499 0.22505 0.98614 0.0
H323 H 0.81842 0.22957 0.99653 0.0
H324 H 0.8181 0.2552 0.98101 0.0
H325 H 0.68746 0.19942 0.98855 0.0
H326 H 0.77904 0.10515 0.97518 0.0
H327 H 0.61285 0.12669 0.00212 0.0
H328 H 0.59535 0.13791 0.98609 0.0
H329 H 0.61778 0.18068 0.99578 0.0
H330 H 0.76103 0.03215 0.97225 0.0
H331 H 0.70436 0.02069 0.97012 0.0
H332 H 0.72834 0.01402 0.98561 0.0
H333 H 0.59517 0.9176 0.04523 0.0
H334 H 0.51429 0.91915 0.00603 0.0
H335 H 0.52021 0.95643 0.98593 0.0
H336 H 0.61305 0.06771 0.96915 0.0
H337 H 0.69907 0.05956 0.0074 0.0
H338 H 0.69603 0.01833 0.02687 0.0
H339 H 0.3929 0.90583 0.93414 0.0
H340 H 0.45102 0.90493 0.93445 0.0
H341 H 0.42365 0.93613 0.92237 0.0
C342 C 0.14511 0.07181 0.2391 0.0
C343 C 0.15593 0.09525 0.22653 0.0
C344 C 0.21628 0.14575 0.22986 0.0
C345 C 0.25915 0.15363 0.22638 0.0
C346 C 0.27976 0.19218 0.22985 0.0
C347 C 0.25683 0.22363 0.23708 0.0
C348 C 0.21321 0.21624 0.24053 0.0
C349 C 0.1934 0.17722 0.23697 0.0
C350 C 0.32636 0.19893 0.22603 0.0
C351 C 0.18801 0.2491 0.24828 0.0
C352 C 0.25341 0.46543 0.18583 0.0
C353 C 0.24979 0.48845 0.19891 0.0
C354 C 0.29273 0.44832 0.21398 0.0
C355 C 0.26372 0.44125 0.22416 0.0
C356 C 0.26778 0.40491 0.23207 0.0
C357 C 0.3016 0.37507 0.22972 0.0
C358 C 0.33163 0.3828 0.21965 0.0
C359 C 0.32708 0.41977 0.21198 0.0
C360 C 0.23562 0.39812 0.24286 0.0
C361 C 0.36805 0.35168 0.21689 0.0
C362 C 0.49511 0.43201 0.28982 0.0
C363 C 0.45182 0.43731 0.29368 0.0
C364 C 0.42204 0.40355 0.29225 0.0
C365 C 0.43566 0.3641 0.28661 0.0
C366 C 0.47959 0.35815 0.28321 0.0
C367 C 0.50885 0.39213 0.28501 0.0
C368 C 0.37577 0.41042 0.29642 0.0
C369 C 0.49538 0.31634 0.27733 0.0
C370 C 0.27608 0.07052 0.32129 0.0
C371 C 0.32362 0.08402 0.32035 0.0
C372 C 0.33923 0.15988 0.31546 0.0
C373 C 0.31917 0.20007 0.31661 0.0
C374 C 0.33001 0.23408 0.30834 0.0
C375 C 0.3625 0.22783 0.29886 0.0
C376 C 0.38491 0.18803 0.29818 0.0
C377 C 0.37296 0.15431 0.30649 0.0
C378 C 0.30574 0.27622 0.30944 0.0
C379 C 0.4206 0.18085 0.28844 0.0
C380 C 0.2798 0.26249 0.24186 0.0
C381 C 0.28085 0.29939 0.23416 0.0
C382 C 0.30494 0.33565 0.23775 0.0
C383 C 0.32999 0.33455 0.24906 0.0
C384 C 0.35699 0.3691 0.25249 0.0
C385 C 0.38188 0.36738 0.26357 0.0
C386 C 0.37929 0.33186 0.27195 0.0
C387 C 0.40363 0.33019 0.28341 0.0
C388 C 0.39832 0.29556 0.29188 0.0
C389 C 0.37011 0.26169 0.28902 0.0
C390 C 0.34758 0.26153 0.27724 0.0
C391 C 0.32081 0.22682 0.27374 0.0
C392 C 0.29913 0.22676 0.26209 0.0
C393 C 0.30204 0.26211 0.25368 0.0
C394 C 0.32789 0.29792 0.25716 0.0
C395 C 0.35165 0.29708 0.26879 0.0
C396 C 0.55327 0.53334 0.28564 0.0
C397 C 0.51573 0.50812 0.29159 0.0
O398 O 0.19899 0.10712 0.22639 0.0
O399 O 0.32562 0.12769 0.32332 0.0
O400 O 0.52453 0.46438 0.29054 0.0
O401 O 0.28734 0.48189 0.20579 0.0
H402 H 0.13464 0.12415 0.22612 0.0
H403 H 0.14781 0.09462 0.24733 0.0
H404 H 0.16775 0.04468 0.24081 0.0
H405 H 0.11154 0.05962 0.23891 0.0
H406 H 0.27659 0.12915 0.22095 0.0
H407 H 0.16052 0.17135 0.24005 0.0
H408 H 0.3298 0.22972 0.22069 0.0
H409 H 0.33909 0.17219 0.21993 0.0
H410 H 0.34642 0.20143 0.23481 0.0
H411 H 0.15361 0.23982 0.24954 0.0
H412 H 0.18956 0.28105 0.24349 0.0
H413 H 0.20272 0.25276 0.25793 0.0
H414 H 0.2217 0.47316 0.20387 0.0
H415 H 0.22534 0.47346 0.1797 0.0
H416 H 0.25378 0.42993 0.18731 0.0
H417 H 0.28381 0.4743 0.18077 0.0
H418 H 0.2378 0.46411 0.22587 0.0
H419 H 0.34947 0.42578 0.20412 0.0
H420 H 0.21738 0.36783 0.24114 0.0
H421 H 0.2123 0.42524 0.24377 0.0
H422 H 0.25285 0.3945 0.25213 0.0
H423 H 0.38818 0.36185 0.20855 0.0
H424 H 0.35476 0.31906 0.2149 0.0
H425 H 0.38895 0.34905 0.22548 0.0
H426 H 0.48646 0.51607 0.2859 0.0
H427 H 0.44106 0.4677 0.29777 0.0
H428 H 0.54246 0.38818 0.28226 0.0
H429 H 0.355 0.41255 0.2878 0.0
H430 H 0.37159 0.44047 0.30218 0.0
H431 H 0.36434 0.38258 0.30222 0.0
H432 H 0.53049 0.31704 0.27508 0.0
H433 H 0.47749 0.30957 0.26832 0.0
H434 H 0.48889 0.28931 0.28405 0.0
H435 H 0.33444 0.07761 0.31029 0.0
H436 H 0.27102 0.03777 0.3172 0.0
H437 H 0.2559 0.09318 0.31566 0.0
H438 H 0.26474 0.0712 0.33147 0.0
H439 H 0.29383 0.20425 0.32377 0.0
H440 H 0.39004 0.12383 0.30598 0.0
H441 H 0.28851 0.28267 0.30032 0.0
H442 H 0.3288 0.30312 0.31099 0.0
H443 H 0.28185 0.27614 0.31748 0.0
H444 H 0.43778 0.14982 0.28998 0.0
H445 H 0.44426 0.20771 0.28893 0.0
H446 H 0.40686 0.18069 0.27861 0.0
H447 H 0.26271 0.2999 0.22527 0.0
H448 H 0.35974 0.39758 0.24654 0.0
H449 H 0.40266 0.39461 0.26557 0.0
H450 H 0.41609 0.29512 0.30083 0.0
H451 H 0.31673 0.19898 0.27988 0.0
H452 H 0.27951 0.19885 0.25985 0.0
H453 H 0.54606 0.56849 0.28562 0.0
H454 H 0.55864 0.52273 0.27553 0.0
H455 H 0.58333 0.52788 0.29113 0.0
C456 C 0.64098 0.44293 0.28232 0.0
C457 C 0.64882 0.41932 0.29501 0.0
C458 C 0.70714 0.36536 0.29306 0.0
C459 C 0.74858 0.35598 0.29741 0.0
C460 C 0.76822 0.31612 0.29473 0.0
C461 C 0.74583 0.28484 0.28741 0.0
C462 C 0.70335 0.29356 0.28324 0.0
C463 C 0.68448 0.3339 0.28602 0.0
C464 C 0.81359 0.30806 0.29933 0.0
C465 C 0.67876 0.26099 0.27536 0.0
C466 C 0.85633 0.96968 0.3117 0.0
C467 C 0.80775 0.97761 0.31072 0.0
C468 C 0.79546 0.05537 0.30905 0.0
C469 C 0.7723 0.05804 0.29755 0.0
C470 C 0.77063 0.09686 0.29063 0.0
C471 C 0.79298 0.13362 0.29526 0.0
C472 C 0.81496 0.13137 0.30712 0.0
C473 C 0.81534 0.09234 0.31397 0.0
C474 C 0.74546 0.09837 0.27826 0.0
C475 C 0.83895 0.16983 0.31241 0.0
C476 C 0.99811 0.08215 0.23586 0.0
C477 C 0.95473 0.07664 0.23235 0.0
C478 C 0.9245 0.10976 0.23437 0.0
C479 C 0.93773 0.14874 0.24028 0.0
C480 C 0.98158 0.15477 0.24353 0.0
C481 C 0.01131 0.12147 0.24112 0.0
C482 C 0.87832 0.10287 0.23033 0.0
C483 C 0.99688 0.19607 0.24974 0.0
C484 C 0.77375 0.40856 0.19794 0.0
C485 C 0.81661 0.41811 0.20457 0.0
C486 C 0.85336 0.35254 0.21022 0.0
C487 C 0.83468 0.31218 0.20815 0.0
C488 C 0.84102 0.27846 0.21689 0.0
C489 C 0.86753 0.28533 0.22775 0.0
C490 C 0.888 0.32576 0.22954 0.0
C491 C 0.88024 0.3592 0.22078 0.0
C492 C 0.81878 0.23578 0.21465 0.0
C493 C 0.91739 0.3338 0.24079 0.0
C494 C 0.76926 0.2458 0.28277 0.0
C495 C 0.76929 0.20864 0.2904 0.0
C496 C 0.79562 0.17326 0.28724 0.0
C497 C 0.82379 0.17566 0.27646 0.0
C498 C 0.85365 0.14261 0.27367 0.0
C499 C 0.88099 0.14516 0.26301 0.0
C500 C 0.87877 0.18033 0.25451 0.0
C501 C 0.9055 0.18269 0.24343 0.0
C502 C 0.90165 0.21757 0.23503 0.0
C503 C 0.8721 0.25075 0.23748 0.0
C504 C 0.84613 0.24971 0.24873 0.0
C505 C 0.8171 0.28327 0.2517 0.0
C506 C 0.79233 0.28233 0.26291 0.0
C507 C 0.79429 0.24696 0.27133 0.0
C508 C 0.82228 0.21217 0.26832 0.0
C509 C 0.84912 0.21409 0.25718 0.0
C510 C 0.05867 0.98083 0.23706 0.0
C511 C 0.01996 0.00702 0.23246 0.0
O512 O 0.69127 0.40553 0.29555 0.0
O513 O 0.84544 0.38498 0.20192 0.0
O514 O 0.02811 0.0505 0.23436 0.0
O515 O 0.79811 0.01806 0.31582 0.0
H516 H 0.62619 0.39146 0.29526 0.0
H517 H 0.64401 0.41977 0.27417 0.0
H518 H 0.66499 0.469 0.28077 0.0
H519 H 0.60792 0.4566 0.28219 0.0
H520 H 0.76584 0.38044 0.30279 0.0
H521 H 0.65277 0.34092 0.2823 0.0
H522 H 0.81502 0.27705 0.30463 0.0
H523 H 0.82536 0.33431 0.30572 0.0
H524 H 0.83574 0.30535 0.29091 0.0
H525 H 0.64463 0.27071 0.27392 0.0
H526 H 0.67947 0.22898 0.28012 0.0
H527 H 0.69456 0.25729 0.26578 0.0
H528 H 0.79902 0.97584 0.30037 0.0
H529 H 0.86491 0.93765 0.30755 0.0
H530 H 0.8667 0.97091 0.32192 0.0
H531 H 0.87415 0.99486 0.30625 0.0
H532 H 0.75511 0.03002 0.29403 0.0
H533 H 0.83236 0.09013 0.32301 0.0
H534 H 0.72517 0.12792 0.27797 0.0
H535 H 0.7244 0.06965 0.27706 0.0
H536 H 0.76827 0.09961 0.26998 0.0
H537 H 0.85694 0.16194 0.32131 0.0
H538 H 0.81569 0.19614 0.31465 0.0
H539 H 0.86206 0.18221 0.30509 0.0
H540 H 0.99181 0.99717 0.23852 0.0
H541 H 0.94422 0.04668 0.22801 0.0
H542 H 0.04495 0.12556 0.24364 0.0
H543 H 0.85749 0.09977 0.23902 0.0
H544 H 0.87447 0.07331 0.22435 0.0
H545 H 0.86664 0.1311 0.2248 0.0
H546 H 0.03164 0.19482 0.25226 0.0
H547 H 0.97774 0.20264 0.25863 0.0
H548 H 0.99168 0.22348 0.24308 0.0
H549 H 0.81043 0.42046 0.21515 0.0
H550 H 0.74994 0.43454 0.20004 0.0
H551 H 0.76028 0.37763 0.20154 0.0
H552 H 0.77852 0.40593 0.18735 0.0
H553 H 0.8143 0.30755 0.19983 0.0
H554 H 0.89493 0.39062 0.22213 0.0
H555 H 0.79903 0.22714 0.22323 0.0
H556 H 0.84334 0.21003 0.21326 0.0
H557 H 0.79757 0.23639 0.20609 0.0
H558 H 0.93478 0.36503 0.23996 0.0
H559 H 0.94141 0.30731 0.24155 0.0
H560 H 0.8981 0.3342 0.24984 0.0
H561 H 0.7491 0.20749 0.29897 0.0
H562 H 0.8566 0.11456 0.27978 0.0
H563 H 0.90356 0.11894 0.26144 0.0
H564 H 0.92163 0.21869 0.22641 0.0
H565 H 0.81358 0.311 0.2455 0.0
H566 H 0.77111 0.30947 0.26476 0.0
H567 H 0.05189 0.9457 0.23626 0.0
H568 H 0.06538 0.98857 0.24729 0.0
H569 H 0.08782 0.98834 0.23121 0.0
C570 C 0.64722 0.59914 0.73229 0.0
C571 C 0.67076 0.60881 0.71955 0.0
C572 C 0.72857 0.66021 0.72508 0.0
C573 C 0.77322 0.66612 0.72489 0.0
C574 C 0.79174 0.7056 0.72851 0.0
C575 C 0.76483 0.7396 0.73297 0.0
C576 C 0.71947 0.7341 0.73305 0.0
C577 C 0.70176 0.69476 0.72887 0.0
C578 C 0.84015 0.71062 0.72767 0.0
C579 C 0.68965 0.76948 0.73775 0.0
C580 C 0.75365 0.07606 0.69702 0.0
C581 C 0.75661 0.04506 0.70779 0.0
C582 C 0.78374 0.97182 0.71189 0.0
C583 C 0.76129 0.96578 0.72356 0.0
C584 C 0.7658 0.92743 0.73056 0.0
C585 C 0.79471 0.8951 0.7261 0.0
C586 C 0.81765 0.90122 0.71442 0.0
C587 C 0.81142 0.93933 0.7074 0.0
C588 C 0.73976 0.9217 0.74279 0.0
C589 C 0.84917 0.86783 0.70944 0.0
C590 C 0.96107 0.98095 0.78765 0.0
C591 C 0.91744 0.97701 0.79124 0.0
C592 C 0.8958 0.93751 0.78989 0.0
C593 C 0.91818 0.90146 0.78474 0.0
C594 C 0.96288 0.90458 0.782 0.0
C595 C 0.98385 0.94434 0.78361 0.0
C596 C 0.84854 0.93482 0.79341 0.0
C597 C 0.98798 0.86647 0.77679 0.0
C598 C 0.8305 0.57707 0.8083 0.0
C599 C 0.87246 0.59896 0.81254 0.0
C600 C 0.8676 0.67711 0.80984 0.0
C601 C 0.83636 0.70932 0.81127 0.0
C602 C 0.83778 0.7468 0.80374 0.0
C603 C 0.87166 0.75217 0.79468 0.0
C604 C 0.90476 0.72083 0.79372 0.0
C605 C 0.90257 0.68372 0.80138 0.0
C606 C 0.80241 0.78001 0.80517 0.0
C607 C 0.9419 0.72615 0.78437 0.0
C608 C 0.78435 0.78029 0.73786 0.0
C609 C 0.78219 0.81721 0.73017 0.0
C610 C 0.80189 0.85579 0.73395 0.0
C611 C 0.82607 0.85722 0.74543 0.0
C612 C 0.84925 0.89434 0.74897 0.0
C613 C 0.87194 0.89591 0.76045 0.0
C614 C 0.87186 0.86062 0.76893 0.0
C615 C 0.8939 0.86236 0.7808 0.0
C616 C 0.89311 0.82677 0.78902 0.0
C617 C 0.87103 0.78908 0.78565 0.0
C618 C 0.84906 0.78662 0.77378 0.0
C619 C 0.82679 0.74907 0.77005 0.0
C620 C 0.80543 0.74695 0.75834 0.0
C621 C 0.80545 0.78228 0.74988 0.0
C622 C 0.827 0.82067 0.75356 0.0
C623 C 0.84932 0.82263 0.76544 0.0
C624 C 0.99162 0.08888 0.77845 0.0
C625 C 0.96284 0.05978 0.78671 0.0
O626 O 0.71319 0.6206 0.72174 0.0
O627 O 0.86317 0.64041 0.81683 0.0
O628 O 0.98198 0.01948 0.78769 0.0
O629 O 0.77948 0.00792 0.70461 0.0
H630 H 0.65357 0.63553 0.71461 0.0
H631 H 0.64485 0.62849 0.73839 0.0
H632 H 0.66457 0.57409 0.73785 0.0
H633 H 0.61389 0.58771 0.73037 0.0
H634 H 0.79368 0.63952 0.72182 0.0
H635 H 0.66708 0.69119 0.72885 0.0
H636 H 0.84891 0.74272 0.72371 0.0
H637 H 0.85524 0.68517 0.72155 0.0
H638 H 0.85401 0.70823 0.73745 0.0
H639 H 0.65578 0.75822 0.7388 0.0
H640 H 0.6903 0.79661 0.73081 0.0
H641 H 0.70068 0.78216 0.74718 0.0
H642 H 0.72525 0.03928 0.71281 0.0
H643 H 0.7182 0.07805 0.6948 0.0
H644 H 0.7618 0.05754 0.68794 0.0
H645 H 0.79015 0.13039 0.70337 0.0
H646 H 0.74002 0.99056 0.72731 0.0
H647 H 0.82865 0.94423 0.69841 0.0
H648 H 0.7611 0.92604 0.75122 0.0
H649 H 0.72592 0.88868 0.74327 0.0
H650 H 0.71303 0.94552 0.74359 0.0
H651 H 0.86751 0.87928 0.70089 0.0
H652 H 0.83142 0.83806 0.70675 0.0
H653 H 0.87237 0.85912 0.7171 0.0
H654 H 0.93157 0.05718 0.78154 0.0
H655 H 0.89995 0.00479 0.7949 0.0
H656 H 0.01776 0.94751 0.78116 0.0
H657 H 0.82915 0.93322 0.78449 0.0
H658 H 0.83762 0.96322 0.79914 0.0
H659 H 0.84196 0.90501 0.79899 0.0
H660 H 0.02271 0.87403 0.77532 0.0
H661 H 0.97414 0.85596 0.76747 0.0
H662 H 0.98519 0.83897 0.78356 0.0
H663 H 0.89354 0.59915 0.80384 0.0
H664 H 0.83654 0.5428 0.80562 0.0
H665 H 0.81761 0.59389 0.79972 0.0
H666 H 0.80557 0.57885 0.81603 0.0
H667 H 0.81002 0.70434 0.81803 0.0
H668 H 0.92827 0.66013 0.80074 0.0
H669 H 0.78364 0.78152 0.79613 0.0
H670 H 0.81666 0.81244 0.80681 0.0
H671 H 0.77997 0.77251 0.81325 0.0
H672 H 0.96554 0.69926 0.78495 0.0
H673 H 0.95884 0.75701 0.78635 0.0
H674 H 0.92941 0.72772 0.7744 0.0
H675 H 0.76471 0.81598 0.72117 0.0
H676 H 0.8503 0.92259 0.74288 0.0
H677 H 0.88926 0.92536 0.7626 0.0
H678 H 0.90997 0.82837 0.79812 0.0
H679 H 0.82564 0.72081 0.77614 0.0
H680 H 0.78869 0.71728 0.75603 0.0
H681 H 0.02433 0.09194 0.78266 0.0
H682 H 0.97703 0.12154 0.77763 0.0
H683 H 0.99498 0.07491 0.76863 0.0
C684 C 0.72417 0.53425 0.08709 0.0
C685 C 0.73867 0.5546 0.0743 0.0
C686 C 0.67042 0.57006 0.06326 0.0
C687 C 0.6584 0.52677 0.06128 0.0
C688 C 0.61981 0.51637 0.05505 0.0
C689 C 0.5936 0.54986 0.05016 0.0
C690 C 0.60575 0.59344 0.05201 0.0
C691 C 0.64383 0.60292 0.05867 0.0
C692 C 0.60734 0.46943 0.05366 0.0
C693 C 0.57875 0.62994 0.04685 0.0
C694 C 0.27944 0.45564 0.06985 0.0
C695 C 0.29514 0.49695 0.07657 0.0
C696 C 0.35315 0.52639 0.06277 0.0
C697 C 0.36473 0.56131 0.05501 0.0
C698 C 0.4056 0.56356 0.04912 0.0
C699 C 0.43534 0.52949 0.05088 0.0
C700 C 0.42438 0.49457 0.05901 0.0
C701 C 0.3835 0.49346 0.06493 0.0
C702 C 0.41652 0.60167 0.04072 0.0
C703 C 0.45543 0.45773 0.06112 0.0
C704 C 0.36096 0.40472 0.98339 0.0
C705 C 0.37447 0.44527 0.9789 0.0
C706 C 0.41672 0.45976 0.98111 0.0
C707 C 0.4458 0.43306 0.98787 0.0
C708 C 0.43339 0.39065 0.99125 0.0
C709 C 0.39109 0.37698 0.98889 0.0
C710 C 0.42946 0.50464 0.977 0.0
C711 C 0.46389 0.36084 0.99816 0.0
C712 C 0.77754 0.40702 0.99215 0.0
C713 C 0.76126 0.3979 0.97849 0.0
C714 C 0.6904 0.43435 0.97864 0.0
C715 C 0.6679 0.47084 0.9745 0.0
C716 C 0.62556 0.47931 0.97877 0.0
C717 C 0.60525 0.45048 0.98741 0.0
C718 C 0.62712 0.4126 0.99125 0.0
C719 C 0.66935 0.40485 0.98682 0.0
C720 C 0.60305 0.51982 0.97442 0.0
C721 C 0.60633 0.38092 0.00039 0.0
C722 C 0.55407 0.539 0.04288 0.0
C723 C 0.51423 0.5421 0.04925 0.0
C724 C 0.47629 0.5283 0.04335 0.0
C725 C 0.47795 0.51092 0.03074 0.0
C726 C 0.44055 0.49576 0.02466 0.0
C727 C 0.44266 0.47725 0.01248 0.0
C728 C 0.48233 0.47283 0.00589 0.0
C729 C 0.48494 0.45213 0.99373 0.0
C730 C 0.52508 0.44661 0.98766 0.0
C731 C 0.56296 0.46162 0.99343 0.0
C732 C 0.56069 0.48355 0.00541 0.0
C733 C 0.59795 0.49985 0.01135 0.0
C734 C 0.5957 0.51923 0.02345 0.0
C735 C 0.55624 0.52236 0.03018 0.0
C736 C 0.5181 0.50771 0.02417 0.0
C737 C 0.52031 0.48848 0.01174 0.0
C738 C 0.254 0.40416 0.99386 0.0
C739 C 0.28216 0.41557 0.9822 0.0
O740 O 0.70687 0.58165 0.0696 0.0
O741 O 0.73224 0.42949 0.97472 0.0
O742 O 0.31951 0.39087 0.9827 0.0
O743 O 0.3123 0.52555 0.06768 0.0
H744 H 0.74571 0.5286 0.06715 0.0
H745 H 0.69513 0.5139 0.08578 0.0
H746 H 0.71622 0.55961 0.09433 0.0
H747 H 0.75023 0.51341 0.09093 0.0
H748 H 0.67863 0.50075 0.06461 0.0
H749 H 0.65331 0.6362 0.06022 0.0
H750 H 0.57242 0.46488 0.05573 0.0
H751 H 0.62608 0.44833 0.06019 0.0
H752 H 0.61362 0.45865 0.04362 0.0
H753 H 0.59457 0.66183 0.04811 0.0
H754 H 0.54711 0.63062 0.05193 0.0
H755 H 0.57238 0.62469 0.03645 0.0
H756 H 0.32018 0.48749 0.08364 0.0
H757 H 0.26146 0.43497 0.07676 0.0
H758 H 0.30729 0.43677 0.06609 0.0
H759 H 0.25836 0.46328 0.06158 0.0
H760 H 0.34131 0.58673 0.05345 0.0
H761 H 0.3754 0.46627 0.07096 0.0
H762 H 0.44855 0.61495 0.04336 0.0
H763 H 0.39203 0.62779 0.04152 0.0
H764 H 0.41852 0.59096 0.03052 0.0
H765 H 0.44201 0.43278 0.06767 0.0
H766 H 0.48586 0.47028 0.06528 0.0
H767 H 0.46367 0.44225 0.05175 0.0
H768 H 0.28926 0.45066 0.98287 0.0
H769 H 0.35216 0.46602 0.97388 0.0
H770 H 0.38066 0.34521 0.99194 0.0
H771 H 0.43051 0.526 0.98561 0.0
H772 H 0.40628 0.51851 0.97004 0.0
H773 H 0.46222 0.50431 0.97258 0.0
H774 H 0.4502 0.32798 -0.00057 0.0
H775 H 0.47141 0.37441 0.0078 0.0
H776 H 0.49468 0.35822 0.99268 0.0
H777 H 0.74515 0.36582 0.97839 0.0
H778 H 0.80207 0.38262 0.99489 0.0
H779 H 0.75063 0.40531 0.99924 0.0
H780 H 0.79211 0.43971 0.99279 0.0
H781 H 0.68408 0.49329 0.96811 0.0
H782 H 0.68572 0.37607 0.99002 0.0
H783 H 0.59747 0.54143 0.98283 0.0
H784 H 0.571 0.51159 0.97038 0.0
H785 H 0.62206 0.53761 0.96705 0.0
H786 H 0.62654 0.35177 0.0019 0.0
H787 H 0.57452 0.37066 0.99663 0.0
H788 H 0.60059 0.39679 0.00986 0.0
H789 H 0.51291 0.55419 0.05907 0.0
H790 H 0.40916 0.49761 0.02928 0.0
H791 H 0.41267 0.46591 0.00842 0.0
H792 H 0.527 0.42932 0.97857 0.0
H793 H 0.62937 0.4976 0.00677 0.0
H794 H 0.62546 0.53107 0.02754 0.0
H795 H 0.22427 0.42424 0.99411 0.0
H796 H 0.27213 0.41037 0.00286 0.0
H797 H 0.24474 0.36951 0.99357 0.0
C798 C 0.97761 0.73933 0.45514 0.0
C799 C 0.97881 0.68999 0.45514 0.0
C800 C 0.99682 0.64653 0.4735 0.0
C801 C 0.0012 0.60448 0.46871 0.0
C802 C 0.0289 0.57492 0.47467 0.0
C803 C 0.05344 0.58827 0.48543 0.0
C804 C 0.04908 0.63099 0.49021 0.0
C805 C 0.01993 0.65932 0.48434 0.0
C806 C 0.03241 0.52965 0.46933 0.0
C807 C 0.07589 0.64709 0.50131 0.0
C808 C 0.39498 0.48987 0.47585 0.0
C809 C 0.36211 0.52613 0.47386 0.0
C810 C 0.28356 0.51591 0.47294 0.0
C811 C 0.27205 0.55152 0.48067 0.0
C812 C 0.23021 0.55536 0.4858 0.0
C813 C 0.19891 0.52371 0.4828 0.0
C814 C 0.20942 0.48984 0.47415 0.0
C815 C 0.25181 0.48625 0.4694 0.0
C816 C 0.21973 0.59272 0.49468 0.0
C817 C 0.1763 0.45668 0.47028 0.0
C818 C 0.21492 0.33508 0.54742 0.0
C819 C 0.22243 0.37877 0.5502 0.0
C820 C 0.19236 0.41049 0.5467 0.0
C821 C 0.1545 0.39816 0.54008 0.0
C822 C 0.14629 0.3539 0.53768 0.0
C823 C 0.17641 0.32286 0.54157 0.0
C824 C 0.20134 0.45717 0.5499 0.0
C825 C 0.10616 0.33949 0.53075 0.0
C826 C 0.87405 0.58601 0.57105 0.0
C827 C 0.88039 0.53942 0.56649 0.0
C828 C 0.95232 0.50972 0.56326 0.0
C829 C 0.99417 0.52404 0.5656 0.0
C830 C 0.02857 0.51149 0.55757 0.0
C831 C 0.02091 0.48259 0.54724 0.0
C832 C 0.9789 0.46592 0.54531 0.0
C833 C 0.94481 0.48019 0.55326 0.0
C834 C 0.07295 0.52969 0.56003 0.0
C835 C 0.96997 0.43345 0.5348 0.0
C836 C 0.08532 0.55824 0.49116 0.0
C837 C 0.1247 0.55269 0.48469 0.0
C838 C 0.15624 0.52479 0.48937 0.0
C839 C 0.14805 0.50059 0.50064 0.0
C840 C 0.17837 0.47083 0.50532 0.0
C841 C 0.17011 0.4473 0.51643 0.0
C842 C 0.13205 0.45395 0.52363 0.0
C843 C 0.12419 0.43146 0.53524 0.0
C844 C 0.087 0.44043 0.54247 0.0
C845 C 0.05689 0.47094 0.53835 0.0
C846 C 0.06314 0.49216 0.52643 0.0
C847 C 0.03264 0.52164 0.52168 0.0
C848 C 0.03914 0.54226 0.50994 0.0
C849 C 0.07738 0.53593 0.50281 0.0
C850 C 0.10877 0.50671 0.50749 0.0
C851 C 0.10119 0.48407 0.51916 0.0
C852 C 0.30225 0.27155 0.539 0.0
C853 C 0.28823 0.30689 0.54845 0.0
O854 O 0.97115 0.67547 0.46754 0.0
O855 O 0.91987 0.52474 0.57087 0.0
O856 O 0.24399 0.30398 0.55036 0.0
O857 O 0.32468 0.50873 0.46879 0.0
H858 H 0.01186 0.68025 0.45189 0.0
H859 H 0.00263 0.75214 0.46173 0.0
H860 H 0.94555 0.75133 0.45844 0.0
H861 H 0.98432 0.75182 0.44531 0.0
H862 H 0.98288 0.59493 0.46033 0.0
H863 H 0.01625 0.69209 0.48788 0.0
H864 H 0.0645 0.52531 0.46468 0.0
H865 H 0.00713 0.52271 0.46209 0.0
H866 H 0.02974 0.50573 0.47723 0.0
H867 H 0.07288 0.68255 0.5027 0.0
H868 H 0.11044 0.63898 0.49969 0.0
H869 H 0.06532 0.631 0.51031 0.0
H870 H 0.35629 0.54004 0.48361 0.0
H871 H 0.42578 0.50326 0.47954 0.0
H872 H 0.40152 0.4721 0.46673 0.0
H873 H 0.38219 0.46654 0.48301 0.0
H874 H 0.29554 0.57625 0.48286 0.0
H875 H 0.26066 0.45951 0.46315 0.0
H876 H 0.19372 0.61263 0.49044 0.0
H877 H 0.24815 0.61371 0.49645 0.0
H878 H 0.20765 0.58041 0.50406 0.0
H879 H 0.18783 0.43603 0.46218 0.0
H880 H 0.14585 0.47284 0.46743 0.0
H881 H 0.1688 0.43564 0.47862 0.0
H882 H 0.29697 0.33829 0.54393 0.0
H883 H 0.25164 0.38801 0.55517 0.0
H884 H 0.17072 0.2889 0.53968 0.0
H885 H 0.20876 0.47503 0.54092 0.0
H886 H 0.22905 0.4608 0.55654 0.0
H887 H 0.1724 0.47235 0.55439 0.0
H888 H 0.10551 0.30403 0.52911 0.0
H889 H 0.10406 0.356 0.5213 0.0
H890 H 0.07717 0.34878 0.53647 0.0
H891 H 0.87992 0.53974 0.55576 0.0
H892 H 0.84309 0.59916 0.56742 0.0
H893 H 0.90074 0.60646 0.56731 0.0
H894 H 0.87394 0.5878 0.58174 0.0
H895 H 0.99954 0.54633 0.5735 0.0
H896 H 0.91242 0.46814 0.55175 0.0
H897 H 0.08638 0.54403 0.55108 0.0
H898 H 0.09492 0.50326 0.56298 0.0
H899 H 0.07266 0.55475 0.56772 0.0
H900 H 0.93724 0.41913 0.53573 0.0
H901 H 0.99431 0.40712 0.53499 0.0
H902 H 0.97255 0.44943 0.52529 0.0
H903 H 0.13118 0.57087 0.47598 0.0
H904 H 0.20873 0.46502 0.50039 0.0
H905 H 0.19442 0.42441 0.51943 0.0
H906 H 0.08179 0.424 0.55156 0.0
H907 H 0.00312 0.5288 0.52691 0.0
H908 H 0.01417 0.56396 0.50666 0.0
H909 H 0.33797 0.27082 0.53795 0.0
H910 H 0.28804 0.2778 0.52941 0.0
H911 H 0.29063 0.23963 0.54236 0.0
C912 C 0.11041 0.71855 0.16205 0.0
C913 C 0.95094 0.66521 0.16036 0.0
C914 C 0.96002 0.7034 0.12053 0.0
Mg915 Mg 0.16177 0.78797 0.14468 0.0
Mg916 Mg 0.11689 0.86118 0.12543 0.0
O917 O 0.11661 0.805 0.13188 0.0
Mg918 Mg 0.06631 0.77461 0.13964 0.0
O919 O 0.0196 0.73944 0.14778 0.0
Mg920 Mg 0.03949 0.68119 0.14173 0.0
Mg921 Mg 0.96094 0.75263 0.14622 0.0
C922 C 0.02588 0.82985 0.11491 0.0
O923 O 0.03744 0.83356 0.15026 0.0
O924 O 0.21228 0.81699 0.13056 0.0
O925 O 0.9663 0.81924 0.15282 0.0
O926 O 0.15423 0.85452 0.15565 0.0
O927 O 0.17914 0.85847 0.11594 0.0
O928 O 0.12091 0.9 0.14229 0.0
O929 O 0.09221 0.71456 0.12959 0.0
O930 O 0.16272 0.72391 0.13347 0.0
C931 C 0.13154 0.70162 0.12879 0.0
C932 C 0.21296 0.83974 0.12025 0.0
O933 O 0.02604 0.79627 0.12215 0.0
O934 O 0.98583 0.65232 0.15479 0.0
O935 O 0.05543 0.85893 0.11527 0.0
O936 O 0.99196 0.68135 0.12468 0.0
O937 O 0.93594 0.70342 0.15889 0.0
O938 O 0.94428 0.73521 0.12688 0.0
O939 O 0.10818 0.75586 0.15674 0.0
O940 O 0.08689 0.68678 0.15839 0.0
C941 C 0.13776 0.89164 0.15316 0.0
C942 C 0.99926 0.84405 0.15409 0.0
C943 C 0.65058 0.79771 0.40059 0.0
C944 C 0.72404 0.65321 0.40194 0.0
C945 C 0.64141 0.62008 0.36933 0.0
Mg946 Mg 0.55919 0.83108 0.39066 0.0
Mg947 Mg 0.47701 0.77083 0.38066 0.0
O948 O 0.53652 0.77957 0.38124 0.0
Mg949 Mg 0.57998 0.73698 0.3874 0.0
O950 O 0.62823 0.69966 0.39318 0.0
Mg951 Mg 0.67351 0.71827 0.38056 0.0
Mg952 Mg 0.62658 0.64237 0.39824 0.0
C953 C 0.51007 0.68127 0.36937 0.0
O954 O 0.53833 0.71016 0.40426 0.0
O955 O 0.50975 0.87209 0.37951 0.0
O956 O 0.56656 0.64485 0.40907 0.0
O957 O 0.50836 0.82144 0.40743 0.0
O958 O 0.45804 0.82999 0.37117 0.0
O959 O 0.45871 0.77448 0.40042 0.0
O960 O 0.62266 0.76184 0.37092 0.0
O961 O 0.60797 0.83242 0.37404 0.0
C962 C 0.62889 0.80201 0.36825 0.0
C963 C 0.47582 0.86702 0.37268 0.0
O964 O 0.54748 0.68628 0.37441 0.0
O965 O 0.72345 0.67881 0.39227 0.0
O966 O 0.4792 0.70869 0.37074 0.0
O967 O 0.65943 0.65693 0.36727 0.0
O968 O 0.68957 0.63733 0.40687 0.0
O969 O 0.62649 0.6098 0.38037 0.0
O970 O 0.61027 0.78797 0.40007 0.0
O971 O 0.67949 0.7759 0.3944 0.0
C972 C 0.47438 0.79836 0.40927 0.0
C973 C 0.5378 0.67438 0.41049 0.0
C974 C 0.64477 0.20093 0.65045 0.0
C975 C 0.51234 0.09453 0.65165 0.0
C976 C 0.47579 0.16577 0.61713 0.0
Mg977 Mg 0.65599 0.29535 0.63712 0.0
Mg978 Mg 0.57428 0.36103 0.62974 0.0
O979 O 0.5962 0.30493 0.63054 0.0
Mg980 Mg 0.56659 0.25229 0.63725 0.0
O981 O 0.54252 0.19632 0.64355 0.0
Mg982 Mg 0.57316 0.15579 0.63135 0.0
Mg983 Mg 0.48346 0.18752 0.64575 0.0
C984 C 0.4925 0.30624 0.62038 0.0
O985 O 0.52947 0.28569 0.65435 0.0
O986 O 0.67971 0.35025 0.62348 0.0
O987 O 0.47042 0.24399 0.6573 0.0
O988 O 0.64468 0.34618 0.65318 0.0
O989 O 0.62158 0.38673 0.6166 0.0
O990 O 0.5882 0.38847 0.64848 0.0
O991 O 0.59987 0.21496 0.62088 0.0
O992 O 0.6642 0.24708 0.62083 0.0
C993 C 0.6383 0.21872 0.61638 0.0
C994 C 0.66218 0.37895 0.61632 0.0
O995 O 0.50806 0.27072 0.62475 0.0
O996 O 0.54339 0.09834 0.64341 0.0
O997 O 0.51094 0.34312 0.62197 0.0
O998 O 0.51548 0.15424 0.61711 0.0
O999 O 0.48656 0.12557 0.65437 0.0
O1000 O 0.4569 0.18073 0.62712 0.0
O1001 O 0.62662 0.23799 0.64908 0.0
O1002 O 0.62965 0.16622 0.64533 0.0
C1003 C 0.61954 0.37797 0.65581 0.0
C1004 C 0.49312 0.27741 0.65999 0.0
C1005 C 0.14131 0.28819 0.90676 0.0
C1006 C 0.18027 0.12827 0.90575 0.0
C1007 C 0.12592 0.12657 0.86779 0.0
Mg1008 Mg 0.06795 0.34495 0.89305 0.0
Mg1009 Mg 0.97636 0.30194 0.88377 0.0
O1010 O 0.03667 0.3002 0.88255 0.0
Mg1011 Mg 0.06821 0.24724 0.88819 0.0
O1012 O 0.10449 0.19778 0.8941 0.0
Mg1013 Mg 0.161 0.21182 0.88559 0.0
Mg1014 Mg 0.08797 0.14 0.89512 0.0
C1015 C 0.99091 0.21319 0.86873 0.0
O1016 O 0.01439 0.2234 0.90207 0.0
O1017 O 0.03116 0.3958 0.88092 0.0
O1018 O 0.02517 0.1514 0.90421 0.0
O1019 O 0.01429 0.35014 0.90864 0.0
O1020 O 0.96908 0.36426 0.87483 0.0
O1021 O 0.95816 0.30843 0.90368 0.0
O1022 O 0.12407 0.26577 0.87454 0.0
O1023 O 0.1211 0.33727 0.878 0.0
C1024 C 0.13852 0.30412 0.87264 0.0
C1025 C 0.99496 0.39657 0.87496 0.0
O1026 O 0.03032 0.21003 0.87253 0.0
O1027 O 0.19314 0.15898 0.89837 0.0
O1028 O 0.96517 0.24302 0.87277 0.0
O1029 O 0.14971 0.15987 0.86966 0.0
O1030 O 0.14056 0.11709 0.90657 0.0
O1031 O 0.09774 0.11422 0.87605 0.0
O1032 O 0.10156 0.28862 0.90344 0.0
O1033 O 0.16831 0.26173 0.90164 0.0
C1034 C 0.9775 0.33385 0.91141 0.0
C1035 C 0.00332 0.18605 0.90636 0.0
H1036 H 0.26295 0.76362 0.45054 0.0
H1037 H 0.30112 0.87245 0.47437 0.0
H1038 H 0.37128 0.87468 0.46306 0.0
H1039 H 0.37074 0.71225 0.4492 0.0
H1040 H 0.36339 0.69452 0.43281 0.0
H1041 H 0.31754 0.69924 0.44351 0.0
H1042 H 0.28001 0.75044 0.42742 0.0
H1043 H 0.32542 0.74567 0.41664 0.0
H1044 H 0.30782 0.79827 0.42203 0.0
H1045 H 0.4354 0.86878 0.44765 0.0
H1046 H 0.48528 0.85645 0.42924 0.0
H1047 H 0.4058 0.74905 0.41674 0.0
C1048 C 0.28641 0.78706 0.45375 0.0
C1049 C 0.27658 0.81676 0.46374 0.0
C1050 C 0.30785 0.84838 0.46704 0.0
C1051 C 0.34801 0.84994 0.46067 0.0
C1052 C 0.35672 0.81957 0.45105 0.0
C1053 C 0.32677 0.78857 0.44768 0.0
C1054 C 0.34272 0.76106 0.43656 0.0
C1055 C 0.34898 0.71396 0.44077 0.0
C1056 C 0.31218 0.76409 0.42498 0.0
C1057 C 0.38557 0.78258 0.43382 0.0
C1058 C 0.3935 0.81593 0.44234 0.0
C1059 C 0.42981 0.84229 0.44104 0.0
C1060 C 0.45803 0.83502 0.43057 0.0
C1061 C 0.44951 0.80187 0.4215 0.0
C1062 C 0.41343 0.77469 0.42346 0.0
H1063 H 0.3804 0.95645 0.7012 0.0
H1064 H 0.38979 0.84995 0.67416 0.0
H1065 H 0.44562 0.88955 0.66184 0.0
H1066 H 0.38181 0.03529 0.67862 0.0
H1067 H 0.41201 0.07411 0.68786 0.0
H1068 H 0.38042 0.03383 0.69596 0.0
H1069 H 0.44824 0.00835 0.70827 0.0
H1070 H 0.48016 0.04875 0.70017 0.0
H1071 H 0.49604 0.9928 0.69938 0.0
H1072 H 0.49332 0.94512 0.65091 0.0
H1073 H 0.52309 0.01273 0.64171 0.0
H1074 H 0.47977 0.08287 0.67562 0.0
C1075 C 0.3955 0.94085 0.69296 0.0
C1076 C 0.38183 0.89966 0.68887 0.0
C1077 C 0.40073 0.88097 0.67769 0.0
C1078 C 0.43248 0.90324 0.67064 0.0
C1079 C 0.44476 0.94423 0.67484 0.0
C1080 C 0.42675 0.96279 0.68578 0.0
C1081 C 0.44063 0.00926 0.68734 0.0
C1082 C 0.4014 0.03989 0.68744 0.0
C1083 C 0.4679 0.01512 0.69951 0.0
C1084 C 0.46778 0.01463 0.6753 0.0
C1085 C 0.47084 0.97659 0.66835 0.0
C1086 C 0.49175 0.97488 0.65639 0.0
C1087 C 0.50871 0.01332 0.65125 0.0
C1088 C 0.50373 0.05283 0.65798 0.0
C1089 C 0.48423 0.053 0.67031 0.0
H1090 H 0.40952 0.02653 0.9229 0.0
H1091 H 0.34586 0.96223 0.95481 0.0
H1092 H 0.27812 0.00064 0.94989 0.0
H1093 H 0.35215 0.13112 0.9265 0.0
H1094 H 0.34937 0.13909 0.90935 0.0
H1095 H 0.39382 0.1095 0.91611 0.0
H1096 H 0.37653 0.04463 0.90119 0.0
H1097 H 0.33188 0.07383 0.89447 0.0
H1098 H 0.32317 0.02147 0.90153 0.0
H1099 H 0.21621 0.04026 0.94038 0.0
H1100 H 0.16419 0.0813 0.92742 0.0
H1101 H 0.26807 0.12196 0.90193 0.0
C1102 C 0.38159 0.02147 0.92904 0.0
C1103 C 0.38306 0.99212 0.93942 0.0
C1104 C 0.34553 0.98522 0.94699 0.0
C1105 C 0.30696 0.0068 0.94425 0.0
C1106 C 0.30648 0.03525 0.93391 0.0
C1107 C 0.34285 0.04299 0.92649 0.0
C1108 C 0.33298 0.07363 0.91556 0.0
C1109 C 0.3586 0.11584 0.91697 0.0
C1110 C 0.34165 0.05208 0.90241 0.0
C1111 C 0.28517 0.08103 0.91782 0.0
C1112 C 0.27062 0.05865 0.92848 0.0
C1113 C 0.22728 0.05841 0.93211 0.0
C1114 C 0.19795 0.08165 0.92464 0.0
C1115 C 0.21207 0.105 0.91369 0.0
C1116 C 0.25638 0.10492 0.91034 0.0
H1117 H 0.16375 0.0053 0.22222 0.0
H1118 H 0.13233 0.12592 0.20327 0.0
H1119 H 0.12443 0.08683 0.18272 0.0
H1120 H 0.22463 0.9589 0.19682 0.0
H1121 H 0.20481 0.90472 0.19905 0.0
H1122 H 0.20679 0.94144 0.21252 0.0
H1123 H 0.12516 0.92977 0.21685 0.0
H1124 H 0.12314 0.89261 0.20348 0.0
H1125 H 0.08729 0.9383 0.20405 0.0
H1126 H 0.12291 0.03664 0.1643 0.0
H1127 H 0.12374 0.9769 0.14875 0.0
H1128 H 0.15356 0.88691 0.17942 0.0
C1129 C 0.15418 0.02352 0.21387 0.0
C1130 C 0.14733 0.06881 0.21449 0.0
C1131 C 0.13662 0.09121 0.2031 0.0
C1132 C 0.13231 0.06934 0.19138 0.0
C1133 C 0.13883 0.0249 0.19115 0.0
C1134 C 0.14895 0.00201 0.20208 0.0
C1135 C 0.15434 0.95425 0.19904 0.0
C1136 C 0.20038 0.93895 0.20204 0.0
C1137 C 0.12046 0.92717 0.20628 0.0
C1138 C 0.14612 0.95414 0.18466 0.0
C1139 C 0.13733 0.99537 0.18039 0.0
C1140 C 0.12949 0.00414 0.16752 0.0
C1141 C 0.13004 0.96981 0.15876 0.0
C1142 C 0.13852 0.92699 0.16284 0.0
C1143 C 0.14693 0.91918 0.17599 0.0
H1144 H 0.27294 0.10683 0.57446 0.0
H1145 H 0.33387 0.17622 0.54301 0.0
H1146 H 0.39509 0.19464 0.55712 0.0
H1147 H 0.30587 0.17797 0.60072 0.0
H1148 H 0.31432 0.13331 0.61139 0.0
H1149 H 0.27473 0.1293 0.59884 0.0
H1150 H 0.3129 0.05931 0.5908 0.0
H1151 H 0.35323 0.06479 0.60308 0.0
H1152 H 0.36926 0.06121 0.58639 0.0
H1153 H 0.45181 0.2012 0.57428 0.0
H1154 H 0.49747 0.19938 0.5938 0.0
H1155 H 0.39781 0.12798 0.61398 0.0
C1156 C 0.29863 0.12665 0.57057 0.0
C1157 C 0.29796 0.14135 0.5577 0.0
C1158 C 0.33317 0.16586 0.55294 0.0
C1159 C 0.36817 0.17615 0.56085 0.0
C1160 C 0.36767 0.16128 0.57347 0.0
C1161 C 0.33367 0.13731 0.57833 0.0
C1162 C 0.34169 0.12382 0.59208 0.0
C1163 C 0.3071 0.14224 0.60128 0.0
C1164 C 0.34444 0.07435 0.59314 0.0
C1165 C 0.3852 0.14449 0.59425 0.0
C1166 C 0.40001 0.16541 0.58335 0.0
C1167 C 0.44047 0.1851 0.58289 0.0
C1168 C 0.46627 0.18362 0.59392 0.0
C1169 C 0.45095 0.16334 0.60522 0.0
C1170 C 0.41 0.14368 0.60539 0.0
H1171 H 0.13903 0.9051 0.82826 0.0
H1172 H 0.19611 0.97729 0.79675 0.0
H1173 H 0.19022 0.04441 0.80961 0.0
H1174 H 0.06405 0.98051 0.83872 0.0
H1175 H 0.0711 0.97446 0.85582 0.0
H1176 H 0.08163 0.92976 0.84511 0.0
H1177 H 0.1591 0.9204 0.85282 0.0
H1178 H 0.14962 0.96245 0.86455 0.0
H1179 H 0.19463 0.96637 0.85351 0.0
H1180 H 0.1772 0.10389 0.82583 0.0
H1181 H 0.16015 0.15089 0.84452 0.0
H1182 H 0.11292 0.03953 0.86553 0.0
C1183 C 0.15033 0.93503 0.82407 0.0
C1184 C 0.1672 0.93611 0.8114 0.0
C1185 C 0.18231 0.97585 0.80635 0.0
C1186 C 0.17923 0.01408 0.81359 0.0
C1187 C 0.16174 0.01198 0.82597 0.0
C1188 C 0.14813 0.97337 0.83124 0.0
C1189 C 0.13163 0.97973 0.84489 0.0
C1190 C 0.0843 0.96535 0.84621 0.0
C1191 C 0.16047 0.95583 0.85451 0.0
C1192 C 0.13651 0.02821 0.84627 0.0
C1193 C 0.15444 0.04615 0.83532 0.0
C1194 C 0.16308 0.09023 0.83446 0.0
C1195 C 0.1533 0.11667 0.84511 0.0
C1196 C 0.13446 0.09904 0.85637 0.0
C1197 C 0.12637 0.05414 0.85694 0.0
H1198 H 0.34294 0.83034 0.05406 0.0
H1199 H 0.44931 0.7745 0.07516 0.0
H1200 H 0.40979 0.78719 0.09561 0.0
H1201 H 0.31407 0.9134 0.07778 0.0
H1202 H 0.25697 0.90765 0.07508 0.0
H1203 H 0.29481 0.89682 0.0622 0.0
H1204 H 0.26264 0.82018 0.05929 0.0
H1205 H 0.22453 0.83093 0.07207 0.0
H1206 H 0.25955 0.78455 0.07294 0.0
H1207 H 0.35723 0.80228 0.11355 0.0
H1208 H 0.29388 0.81479 0.1276 0.0
H1209 H 0.22185 0.86145 0.09478 0.0
C1210 C 0.35802 0.82121 0.06301 0.0
C1211 C 0.39936 0.8019 0.06307 0.0
C1212 C 0.41785 0.78971 0.07494 0.0
C1213 C 0.39573 0.79693 0.08658 0.0
C1214 C 0.35519 0.81638 0.08619 0.0
C1215 C 0.33644 0.82822 0.07471 0.0
C1216 C 0.29155 0.84634 0.07687 0.0
C1217 C 0.28923 0.89388 0.07274 0.0
C1218 C 0.25757 0.81885 0.06988 0.0
C1219 C 0.28761 0.84204 0.09134 0.0
C1220 C 0.32484 0.8251 0.09654 0.0
C1221 C 0.32805 0.81595 0.10961 0.0
C1222 C 0.29187 0.82321 0.11751 0.0
C1223 C 0.25291 0.83935 0.11232 0.0
C1224 C 0.25131 0.84982 0.09911 0.0
H1225 H 0.32642 0.99512 0.32355 0.0
H1226 H 0.38767 0.1131 0.33699 0.0
H1227 H 0.43273 0.07043 0.35155 0.0
H1228 H 0.3214 0.94372 0.35454 0.0
H1229 H 0.3319 0.89051 0.34814 0.0
H1230 H 0.30518 0.93018 0.3384 0.0
H1231 H 0.36353 0.92037 0.3206 0.0
H1232 H 0.39044 0.88068 0.33029 0.0
H1233 H 0.41965 0.92721 0.32459 0.0
H1234 H 0.47069 0.01533 0.36489 0.0
H1235 H 0.49931 0.95146 0.37597 0.0
H1236 H 0.41144 0.8695 0.35452 0.0
C1237 C 0.34868 0.01229 0.32968 0.0
C1238 C 0.35196 0.05791 0.32937 0.0
C1239 C 0.38324 0.07847 0.33721 0.0
C1240 C 0.40924 0.05446 0.34553 0.0
C1241 C 0.40391 0.00987 0.34588 0.0
C1242 C 0.37444 0.98895 0.33817 0.0
C1243 C 0.3747 0.9407 0.34053 0.0
C1244 C 0.33068 0.92539 0.34571 0.0
C1245 C 0.38788 0.91579 0.32827 0.0
C1246 C 0.40914 0.93776 0.35074 0.0
C1247 C 0.42563 0.97803 0.35365 0.0
C1248 C 0.45799 0.98362 0.36271 0.0
C1249 C 0.47402 0.94705 0.36895 0.0
C1250 C 0.4576 0.90533 0.36616 0.0
C1251 C 0.42457 0.90086 0.35694 0.0
H1252 H 0.78714 0.16638 0.55596 0.0
H1253 H 0.72258 0.04276 0.55224 0.0
H1254 H 0.67754 0.06015 0.57142 0.0
H1255 H 0.79075 0.16678 0.59087 0.0
H1256 H 0.78253 0.22432 0.59188 0.0
H1257 H 0.80947 0.20124 0.57805 0.0
H1258 H 0.75374 0.23781 0.56312 0.0
H1259 H 0.72643 0.26067 0.57691 0.0
H1260 H 0.69698 0.22782 0.56563 0.0
H1261 H 0.63638 0.09425 0.59043 0.0
H1262 H 0.60775 0.13908 0.60845 0.0
H1263 H 0.70351 0.23713 0.5998 0.0
C1264 C 0.76412 0.1425 0.55925 0.0
C1265 C 0.75871 0.10288 0.55268 0.0
C1266 C 0.72749 0.07309 0.55724 0.0
C1267 C 0.70174 0.08274 0.56808 0.0
C1268 C 0.7079 0.1222 0.57429 0.0
C1269 C 0.73878 0.15126 0.57011 0.0
C1270 C 0.73944 0.19133 0.57843 0.0
C1271 C 0.78314 0.19618 0.58521 0.0
C1272 C 0.72848 0.23178 0.57055 0.0
C1273 C 0.70381 0.18059 0.58788 0.0
C1274 C 0.68559 0.14081 0.58534 0.0
C1275 C 0.6508 0.12522 0.59259 0.0
C1276 C 0.63465 0.15089 0.60277 0.0
C1277 C 0.65377 0.19127 0.60563 0.0
C1278 C 0.68864 0.20605 0.59802 0.0
H1279 H 0.78052 0.97696 0.33625 0.0
H1280 H 0.78155 0.89879 0.30152 0.0
H1281 H 0.74272 0.84068 0.31312 0.0
H1282 H 0.79269 0.88897 0.35921 0.0
H1283 H 0.75647 0.9134 0.37079 0.0
H1284 H 0.78776 0.94691 0.3601 0.0
H1285 H 0.71776 0.98371 0.35211 0.0
H1286 H 0.6865 0.95073 0.3629 0.0
H1287 H 0.67459 0.95076 0.34595 0.0
H1288 H 0.70033 0.7923 0.32853 0.0
H1289 H 0.65318 0.76163 0.34566 0.0
H1290 H 0.67894 0.87331 0.36968 0.0
C1291 C 0.77253 0.94769 0.33106 0.0
C1292 C 0.7833 0.94268 0.3179 0.0
C1293 C 0.77294 0.90347 0.31155 0.0
C1294 C 0.75122 0.87023 0.31809 0.0
C1295 C 0.7404 0.87653 0.33101 0.0
C1296 C 0.75059 0.91444 0.33739 0.0
C1297 C 0.73296 0.9146 0.351 0.0
C1298 C 0.76968 0.91605 0.36085 0.0
C1299 C 0.70105 0.95216 0.3531 0.0
C1300 C 0.71028 0.8714 0.35119 0.0
C1301 C 0.71557 0.84935 0.33969 0.0
C1302 C 0.69619 0.80921 0.33759 0.0
C1303 C 0.6697 0.7919 0.34736 0.0
C1304 C 0.66239 0.81524 0.35891 0.0
C1305 C 0.68388 0.85485 0.3609 0.0
H1306 H 0.82099 0.96125 0.09224 0.0
H1307 H 0.76902 0.83984 0.07839 0.0
H1308 H 0.83959 0.80488 0.0819 0.0
H1309 H 0.93363 0.94503 0.07992 0.0
H1310 H 0.95669 0.96989 0.09399 0.0
H1311 H 0.90459 0.9871 0.08835 0.0
H1312 H 0.87139 0.97147 0.11083 0.0
H1313 H 0.92322 0.95416 0.11651 0.0
H1314 H 0.87744 0.91849 0.11771 0.0
H1315 H 0.91078 0.78016 0.09032 0.0
H1316 H 0.97989 0.76937 0.10167 0.0
H1317 H 0.98581 0.90635 0.11007 0.0
C1318 C 0.82478 0.92748 0.08974 0.0
C1319 C 0.78955 0.9032 0.08509 0.0
C1320 C 0.79557 0.85902 0.08198 0.0
C1321 C 0.83546 0.83885 0.08397 0.0
C1322 C 0.86899 0.86321 0.08908 0.0
C1323 C 0.86426 0.90671 0.0918 0.0
C1324 C 0.9042 0.92473 0.09818 0.0
C1325 C 0.92607 0.9587 0.08959 0.0
C1326 C 0.8934 0.94328 0.1116 0.0
C1327 C 0.93142 0.88422 0.09908 0.0
C1328 C 0.91069 0.84914 0.09366 0.0
C1329 C 0.92771 0.80753 0.09437 0.0
C1330 C 0.96668 0.80159 0.10091 0.0
C1331 C 0.98806 0.837 0.10666 0.0
C1332 C 0.9706 0.8789 0.10548 0.0
H1333 H 0.02236 0.06901 0.80603 0.0
H1334 H 0.88867 0.0955 0.79694 0.0
H1335 H 0.8789 0.13112 0.81815 0.0
H1336 H 0.00556 0.04831 0.83954 0.0
H1337 H 0.05232 0.07588 0.8454 0.0
H1338 H 0.05377 0.05071 0.82969 0.0
H1339 H 0.07433 0.11899 0.81804 0.0
H1340 H 0.07783 0.1476 0.83311 0.0
H1341 H 0.04366 0.16784 0.82059 0.0
H1342 H 0.88561 0.16813 0.83974 0.0
H1343 H 0.90869 0.20657 0.85932 0.0
H1344 H 0.03856 0.15626 0.85405 0.0
C1345 C 0.99091 0.08186 0.80859 0.0
C1346 C 0.95614 0.07926 0.79994 0.0
C1347 C 0.91558 0.09691 0.80351 0.0
C1348 C 0.90974 0.11708 0.81553 0.0
C1349 C 0.94486 0.11941 0.8238 0.0
C1350 C 0.98465 0.10242 0.82044 0.0
C1351 C 0.01779 0.1113 0.83069 0.0
C1352 C 0.03333 0.06896 0.83666 0.0
C1353 C 0.05564 0.13799 0.82528 0.0
C1354 C 0.99099 0.13712 0.84019 0.0
C1355 C 0.94879 0.14091 0.83615 0.0
C1356 C 0.91849 0.16504 0.84305 0.0
C1357 C 0.93199 0.18677 0.85418 0.0
C1358 C 0.97553 0.1845 0.85827 0.0
C1359 C 0.00499 0.15837 0.85131 0.0
H1360 H 0.83097 0.94779 0.42977 0.0
H1361 H 0.7454 0.96956 0.46243 0.0
H1362 H 0.68654 0.93314 0.45087 0.0
H1363 H 0.75003 0.95672 0.40391 0.0
H1364 H 0.77432 0.91311 0.39486 0.0
H1365 H 0.80731 0.94713 0.40487 0.0
H1366 H 0.83526 0.87934 0.41683 0.0
H1367 H 0.80223 0.84542 0.40688 0.0
H1368 H 0.79696 0.84298 0.42415 0.0
H1369 H 0.6384 0.88909 0.43632 0.0
H1370 H 0.60812 0.83578 0.42102 0.0
H1371 H 0.72666 0.84086 0.39854 0.0
C1372 C 0.79945 0.94612 0.43433 0.0
C1373 C 0.79241 0.96337 0.44676 0.0
C1374 C 0.75129 0.95837 0.4527 0.0
C1375 C 0.71758 0.93758 0.44621 0.0
C1376 C 0.72564 0.92129 0.4339 0.0
C1377 C 0.76574 0.92507 0.42807 0.0
C1378 C 0.76782 0.90049 0.41549 0.0
C1379 C 0.7753 0.93122 0.40411 0.0
C1380 C 0.80261 0.86496 0.41587 0.0
C1381 C 0.72294 0.88154 0.41526 0.0
C1382 C 0.69872 0.89443 0.42582 0.0
C1383 C 0.65693 0.87909 0.42795 0.0
C1384 C 0.63995 0.84895 0.41921 0.0
C1385 C 0.66514 0.8341 0.40865 0.0
C1386 C 0.70665 0.85154 0.40654 0.0
H1387 H 0.96988 0.94266 0.22278 0.0
H1388 H 0.0532 0.04738 0.21073 0.0
H1389 H 0.04532 0.02445 0.18803 0.0
H1390 H 0.01349 0.86637 0.2031 0.0
H1391 H 0.96392 0.83844 0.19958 0.0
H1392 H 0.96885 0.86831 0.21434 0.0
H1393 H 0.90089 0.91311 0.20867 0.0
H1394 H 0.89565 0.88321 0.19383 0.0
H1395 H 0.89886 0.94131 0.19354 0.0
H1396 H 0.04023 0.98166 0.16754 0.0
H1397 H 0.03724 0.92342 0.1511 0.0
H1398 H 0.95412 0.849 0.1763 0.0
C1399 C 0.98538 0.96146 0.2153 0.0
C1400 C 0.01148 0.99712 0.21844 0.0
C1401 C 0.03254 0.0203 0.20848 0.0
C1402 C 0.02822 0.00754 0.19558 0.0
C1403 C 0.00302 0.97146 0.19284 0.0
C1404 C 0.98156 0.94905 0.20243 0.0
C1405 C 0.96039 0.90875 0.19723 0.0
C1406 C 0.97773 0.8681 0.20396 0.0
C1407 C 0.91101 0.9118 0.19838 0.0
C1408 C 0.97501 0.91077 0.18333 0.0
C1409 C 0.99921 0.94738 0.18092 0.0
C1410 C 0.02079 0.95327 0.16922 0.0
C1411 C 0.01884 0.92022 0.15995 0.0
C1412 C 0.99471 0.88237 0.16239 0.0
C1413 C 0.97147 0.87838 0.17403 0.0
H1414 H 0.88697 0.14957 0.97333 0.0
H1415 H 0.77266 0.20835 0.9572 0.0
H1416 H 0.80628 0.20571 0.93559 0.0
H1417 H 0.96044 0.20859 0.95647 0.0
H1418 H 0.99937 0.16604 0.95399 0.0
H1419 H 0.96333 0.16425 0.96762 0.0
H1420 H 0.93622 0.08867 0.96055 0.0
H1421 H 0.97274 0.08994 0.94696 0.0
H1422 H 0.91592 0.08105 0.94449 0.0
H1423 H 0.85893 0.21279 0.91694 0.0
H1424 H 0.92196 0.21685 0.90208 0.0
H1425 H 0.00026 0.15016 0.93003 0.0
C1426 C 0.86865 0.16078 0.96517 0.0
C1427 C 0.82709 0.17858 0.96692 0.0
C1428 C 0.8043 0.19393 0.95608 0.0
C1429 C 0.82324 0.19273 0.94376 0.0
C1430 C 0.86512 0.17669 0.94247 0.0
C1431 C 0.8872 0.16017 0.95286 0.0
C1432 C 0.93297 0.14795 0.9492 0.0
C1433 C 0.96593 0.17323 0.9573 0.0
C1434 C 0.93985 0.09899 0.95036 0.0
C1435 C 0.93394 0.16209 0.9353 0.0
C1436 C 0.89458 0.17874 0.93156 0.0
C1437 C 0.88944 0.19857 0.91962 0.0
C1438 C 0.92532 0.20102 0.91129 0.0
C1439 C 0.96535 0.18299 0.91488 0.0
C1440 C 0.96951 0.16302 0.92696 0.0
H1441 H 0.71591 0.11911 0.72196 0.0
H1442 H 0.85309 0.05768 0.69995 0.0
H1443 H 0.83302 0.11097 0.6779 0.0
H1444 H 0.65133 0.12037 0.69294 0.0
H1445 H 0.62279 0.17029 0.69558 0.0
H1446 H 0.64785 0.14355 0.70888 0.0
H1447 H 0.68881 0.21541 0.71356 0.0
H1448 H 0.66518 0.24023 0.69962 0.0
H1449 H 0.72299 0.23826 0.70122 0.0
H1450 H 0.78156 0.15149 0.66007 0.0
H1451 H 0.72671 0.17684 0.64467 0.0
H1452 H 0.64077 0.20957 0.67616 0.0
C1453 C 0.74044 0.12062 0.71451 0.0
C1454 C 0.78276 0.07791 0.71273 0.0
C1455 C 0.82697 0.08086 0.70033 0.0
C1456 C 0.8134 0.11297 0.68654 0.0
C1457 C 0.76556 0.14538 0.68674 0.0
C1458 C 0.7315 0.15066 0.7001 0.0
C1459 C 0.6933 0.17651 0.69596 0.0
C1460 C 0.6514 0.15116 0.69848 0.0
C1461 C 0.69255 0.22018 0.70301 0.0
C1462 C 0.70228 0.18257 0.68144 0.0
C1463 C 0.74198 0.16646 0.67669 0.0
C1464 C 0.75166 0.1655 0.66358 0.0
C1465 C 0.72053 0.18 0.65491 0.0
C1466 C 0.68059 0.19605 0.65942 0.0
C1467 C 0.67205 0.19866 0.67272 0.0
H1468 H 0.79259 0.32798 0.96482 0.0
H1469 H 0.8147 0.46474 0.97098 0.0
H1470 H 0.87717 0.46184 0.95596 0.0
H1471 H 0.90536 0.2971 0.9618 0.0
H1472 H 0.8966 0.25827 0.9492 0.0
H1473 H 0.85486 0.26875 0.96102 0.0
H1474 H 0.79988 0.28756 0.94338 0.0
H1475 H 0.83983 0.27673 0.93107 0.0
H1476 H 0.81321 0.3283 0.93169 0.0
H1477 H 0.93731 0.44327 0.94005 0.0
H1478 H 0.98367 0.41325 0.9227 0.0
H1479 H 0.91817 0.2901 0.92602 0.0
C1480 C 0.81065 0.35731 0.96306 0.0
C1481 C 0.79894 0.39657 0.96911 0.0
C1482 C 0.82332 0.43429 0.96648 0.0
C1483 C 0.85889 0.4329 0.95802 0.0
C1484 C 0.86955 0.39358 0.95223 0.0
C1485 C 0.84587 0.35662 0.95456 0.0
C1486 C 0.8622 0.31913 0.94653 0.0
C1487 C 0.8808 0.28365 0.95515 0.0
C1488 C 0.82666 0.30187 0.93765 0.0
C1489 C 0.89775 0.34086 0.93897 0.0
C1490 C 0.90245 0.38351 0.94265 0.0
C1491 C 0.93378 0.40991 0.9371 0.0
C1492 C 0.96013 0.39248 0.92732 0.0
C1493 C 0.95432 0.34938 0.92302 0.0
C1494 C 0.92314 0.32318 0.92908 0.0
H1495 H 0.87672 0.43371 0.18509 0.0
H1496 H 0.79523 0.49881 0.21327 0.0
H1497 H 0.8207 0.56952 0.2052 0.0
H1498 H 0.96705 0.50768 0.18745 0.0
H1499 H 0.97984 0.50412 0.17052 0.0
H1500 H 0.95518 0.45899 0.1786 0.0
H1501 H 0.89322 0.45915 0.16198 0.0
H1502 H 0.91755 0.5044 0.15389 0.0
H1503 H 0.86252 0.50786 0.15956 0.0
H1504 H 0.85293 0.63289 0.19339 0.0
H1505 H 0.89246 0.68432 0.1795 0.0
H1506 H 0.95538 0.57702 0.15991 0.0
C1507 C 0.86468 0.46276 0.18972 0.0
C1508 C 0.83453 0.46084 0.19999 0.0
C1509 C 0.81883 0.49972 0.20553 0.0
C1510 C 0.83301 0.5399 0.20099 0.0
C1511 C 0.86299 0.5406 0.19093 0.0
C1512 C 0.87891 0.50305 0.18544 0.0
C1513 C 0.91099 0.51261 0.17478 0.0
C1514 C 0.95593 0.4948 0.17804 0.0
C1515 C 0.8951 0.49496 0.16179 0.0
C1516 C 0.91043 0.56142 0.17506 0.0
C1517 C 0.88233 0.577 0.18438 0.0
C1518 C 0.87531 0.62109 0.18613 0.0
C1519 C 0.89778 0.65001 0.17818 0.0
C1520 C 0.92721 0.63467 0.1687 0.0
C1521 C 0.93353 0.58977 0.16719 0.0
H1522 H 0.89066 0.68026 0.45879 0.0
H1523 H 0.99237 0.66284 0.43034 0.0
H1524 H 0.93813 0.64261 0.41411 0.0
H1525 H 0.81923 0.59156 0.44706 0.0
H1526 H 0.77096 0.62238 0.45033 0.0
H1527 H 0.81815 0.63011 0.46011 0.0
H1528 H 0.81691 0.71197 0.45506 0.0
H1529 H 0.76991 0.7045 0.44527 0.0
H1530 H 0.8175 0.72936 0.43852 0.0
H1531 H 0.87304 0.63482 0.40036 0.0
H1532 H 0.80118 0.63714 0.39019 0.0
H1533 H 0.74124 0.65555 0.42764 0.0
C1534 C 0.9015 0.67085 0.44925 0.0
C1535 C 0.94577 0.67218 0.44587 0.0
C1536 C 0.9587 0.66119 0.43317 0.0
C1537 C 0.92814 0.64968 0.4239 0.0
C1538 C 0.88473 0.64913 0.42749 0.0
C1539 C 0.87138 0.65902 0.43989 0.0
C1540 C 0.82257 0.65919 0.44098 0.0
C1541 C 0.8068 0.62368 0.45017 0.0
C1542 C 0.80576 0.70391 0.4452 0.0
C1543 C 0.81056 0.6491 0.42718 0.0
C1544 C 0.84694 0.6433 0.41957 0.0
C1545 C 0.84428 0.63816 0.40626 0.0
C1546 C 0.80344 0.63958 0.40057 0.0
C1547 C 0.76585 0.64549 0.40819 0.0
C1548 C 0.76944 0.64946 0.42168 0.0
H1549 H 0.63178 0.59833 0.69592 0.0
H1550 H 0.70958 0.5301 0.72377 0.0
H1551 H 0.70505 0.46378 0.71052 0.0
H1552 H 0.56236 0.52164 0.68975 0.0
H1553 H 0.55663 0.52316 0.67241 0.0
H1554 H 0.57077 0.57114 0.68127 0.0
H1555 H 0.64183 0.58545 0.6701 0.0
H1556 H 0.62807 0.54309 0.65892 0.0
H1557 H 0.67913 0.54183 0.6671 0.0
H1558 H 0.69123 0.40488 0.69439 0.0
H1559 H 0.66854 0.357 0.67664 0.0
H1560 H 0.59727 0.46301 0.65972 0.0
C1561 C 0.64835 0.56959 0.69914 0.0
C1562 C 0.67058 0.56917 0.71095 0.0
C1563 C 0.69192 0.53092 0.71483 0.0
C1564 C 0.68973 0.49322 0.70734 0.0
C1565 C 0.66676 0.49451 0.69588 0.0
C1566 C 0.64712 0.53189 0.69168 0.0
C1567 C 0.62344 0.52435 0.67918 0.0
C1568 C 0.57538 0.5356 0.68071 0.0
C1569 C 0.64438 0.55021 0.66818 0.0
C1570 C 0.63095 0.4763 0.67735 0.0
C1571 C 0.65708 0.46005 0.6869 0.0
C1572 C 0.67063 0.41716 0.68688 0.0
C1573 C 0.65757 0.39021 0.67676 0.0
C1574 C 0.63045 0.40598 0.66691 0.0
C1575 C 0.61697 0.44964 0.66728 0.0
H1576 H 0.74674 0.63259 0.08671 0.0
H1577 H 0.82211 0.53296 0.0676 0.0
H1578 H 0.88927 0.56997 0.07401 0.0
H1579 H 0.82335 0.72546 0.08094 0.0
H1580 H 0.81239 0.74722 0.09678 0.0
H1581 H 0.77085 0.71851 0.08823 0.0
H1582 H 0.76184 0.66665 0.10758 0.0
H1583 H 0.80325 0.69516 0.11609 0.0
H1584 H 0.80827 0.63782 0.11342 0.0
H1585 H 0.947 0.60992 0.08558 0.0
H1586 H 0.99028 0.64778 0.10195 0.0
H1587 H 0.87742 0.72187 0.1135 0.0
C1588 C 0.77742 0.61953 0.08348 0.0
C1589 C 0.77934 0.58044 0.07646 0.0
C1590 C 0.82 0.56331 0.07278 0.0
C1591 C 0.85826 0.5842 0.07634 0.0
C1592 C 0.85526 0.62218 0.08355 0.0
C1593 C 0.8158 0.63979 0.08703 0.0
C1594 C 0.82111 0.67722 0.09629 0.0
C1595 C 0.80604 0.71963 0.09018 0.0
C1596 C 0.79723 0.66866 0.1091 0.0
C1597 C 0.86956 0.67668 0.09796 0.0
C1598 C 0.8888 0.64527 0.09034 0.0
C1599 C 0.9325 0.63528 0.09137 0.0
C1600 C 0.95681 0.65686 0.10072 0.0
C1601 C 0.93725 0.68788 0.10896 0.0
C1602 C 0.89351 0.69897 0.10717 0.0
H1603 H 0.66058 0.50893 0.29932 0.0
H1604 H 0.62038 0.39023 0.31804 0.0
H1605 H 0.61301 0.42949 0.33858 0.0
H1606 H 0.72219 0.55098 0.32464 0.0
H1607 H 0.70588 0.60642 0.32265 0.0
H1608 H 0.70594 0.57017 0.30905 0.0
H1609 H 0.62541 0.5873 0.30499 0.0
H1610 H 0.62505 0.62388 0.31854 0.0
H1611 H 0.58665 0.58038 0.31782 0.0
H1612 H 0.61439 0.47838 0.35698 0.0
H1613 H 0.62017 0.5361 0.37288 0.0
H1614 H 0.65676 0.62648 0.34276 0.0
C1615 C 0.64905 0.49129 0.30761 0.0
C1616 C 0.6397 0.44643 0.30692 0.0
C1617 C 0.62656 0.42465 0.31824 0.0
C1618 C 0.62253 0.44661 0.32996 0.0
C1619 C 0.63166 0.49057 0.33026 0.0
C1620 C 0.64404 0.513 0.31942 0.0
C1621 C 0.65242 0.56024 0.32263 0.0
C1622 C 0.69941 0.57267 0.31956 0.0
C1623 C 0.62048 0.58968 0.31558 0.0
C1624 C 0.64376 0.5604 0.33705 0.0
C1625 C 0.63176 0.51968 0.34112 0.0
C1626 C 0.62335 0.51053 0.35393 0.0
C1627 C 0.62679 0.54387 0.36291 0.0
C1628 C 0.63864 0.58632 0.35914 0.0
C1629 C 0.64741 0.5946 0.34597 0.0
H1630 H 0.87586 0.49095 0.58898 0.0
H1631 H 0.80168 0.52746 0.55551 0.0
H1632 H 0.7383 0.48884 0.56433 0.0
H1633 H 0.82855 0.38252 0.59246 0.0
H1634 H 0.82949 0.38498 0.60979 0.0
H1635 H 0.86951 0.41365 0.6005 0.0
H1636 H 0.84826 0.48472 0.61219 0.0
H1637 H 0.80791 0.45642 0.62141 0.0
H1638 H 0.79288 0.50259 0.61194 0.0
H1639 H 0.68178 0.45191 0.57755 0.0
H1640 H 0.63681 0.41363 0.59354 0.0
H1641 H 0.74869 0.39745 0.61792 0.0
C1642 C 0.84661 0.48998 0.58337 0.0
C1643 C 0.84383 0.51153 0.57142 0.0
C1644 C 0.80457 0.5105 0.56456 0.0
C1645 C 0.76846 0.48881 0.5695 0.0
C1646 C 0.77222 0.46809 0.58131 0.0
C1647 C 0.81041 0.46795 0.58808 0.0
C1648 C 0.80554 0.44381 0.60066 0.0
C1649 C 0.83502 0.40386 0.60086 0.0
C1650 C 0.81415 0.47368 0.61223 0.0
C1651 C 0.75842 0.4311 0.60001 0.0
C1652 C 0.73979 0.44565 0.58879 0.0
C1653 C 0.6961 0.43987 0.5863 0.0
C1654 C 0.67079 0.41834 0.59547 0.0
C1655 C 0.68933 0.40245 0.60693 0.0
C1656 C 0.73378 0.40882 0.60917 0.0
H1657 H 0.8433 0.53559 0.83012 0.0
H1658 H 0.95663 0.60914 0.81881 0.0
H1659 H 0.99945 0.57042 0.8351 0.0
H1660 H 0.86734 0.52811 0.86438 0.0
H1661 H 0.84725 0.47364 0.86548 0.0
H1662 H 0.82463 0.51036 0.85394 0.0
H1663 H 0.84173 0.456 0.83555 0.0
H1664 H 0.86424 0.41913 0.84701 0.0
H1665 H 0.89621 0.43657 0.83343 0.0
H1666 H 0.03076 0.52044 0.85169 0.0
H1667 H 0.04887 0.4608 0.86642 0.0
H1668 H 0.91525 0.41876 0.86598 0.0
C1669 C 0.877 0.54395 0.83099 0.0
C1670 C 0.89681 0.57512 0.82295 0.0
C1671 C 0.94099 0.58501 0.82474 0.0
C1672 C 0.96547 0.56338 0.834 0.0
C1673 C 0.94521 0.53206 0.84148 0.0
C1674 C 0.90199 0.52236 0.84006 0.0
C1675 C 0.88855 0.48537 0.84866 0.0
C1676 C 0.85496 0.50028 0.85871 0.0
C1677 C 0.87171 0.44701 0.84068 0.0
C1678 C 0.93123 0.47499 0.85489 0.0
C1679 C 0.96337 0.50278 0.85082 0.0
C1680 C 0.00579 0.49866 0.85501 0.0
C1681 C 0.01574 0.46475 0.8634 0.0
C1682 C 0.98351 0.43506 0.86733 0.0
C1683 C 0.94064 0.44086 0.86314 0.0
H1684 H 0.29744 0.53109 0.10092 0.0
H1685 H 0.21289 0.51822 0.06806 0.0
H1686 H 0.15687 0.56023 0.07954 0.0
H1687 H 0.21222 0.52986 0.12632 0.0
H1688 H 0.24019 0.5698 0.13571 0.0
H1689 H 0.27032 0.53274 0.12573 0.0
H1690 H 0.30735 0.59748 0.11433 0.0
H1691 H 0.27715 0.63445 0.12429 0.0
H1692 H 0.27438 0.63843 0.10701 0.0
H1693 H 0.11204 0.60846 0.094 0.0
H1694 H 0.08632 0.66555 0.10893 0.0
H1695 H 0.20218 0.65026 0.1316 0.0
C1696 C 0.26666 0.53605 0.09628 0.0
C1697 C 0.25897 0.51967 0.08381 0.0
C1698 C 0.219 0.52874 0.07782 0.0
C1699 C 0.18695 0.55271 0.08426 0.0
C1700 C 0.19553 0.56803 0.09661 0.0
C1701 C 0.23463 0.56037 0.10249 0.0
C1702 C 0.23781 0.58425 0.11517 0.0
C1703 C 0.24026 0.55224 0.12639 0.0
C1704 C 0.27644 0.61551 0.11518 0.0
C1705 C 0.19522 0.60819 0.11523 0.0
C1706 C 0.17067 0.59743 0.10465 0.0
C1707 C 0.13082 0.61686 0.10238 0.0
C1708 C 0.1164 0.64913 0.11093 0.0
C1709 C 0.14234 0.66225 0.12139 0.0
C1710 C 0.18164 0.64067 0.12371 0.0
H1711 H 0.31519 0.46355 0.84734 0.0
H1712 H 0.30288 0.40223 0.80997 0.0
H1713 H 0.26089 0.34302 0.81988 0.0
H1714 H 0.31891 0.36354 0.86713 0.0
H1715 H 0.28654 0.38784 0.87971 0.0
H1716 H 0.32205 0.42085 0.87008 0.0
H1717 H 0.25761 0.46999 0.86397 0.0
H1718 H 0.22217 0.4374 0.87363 0.0
H1719 H 0.21035 0.44608 0.85688 0.0
H1720 H 0.21319 0.29461 0.83363 0.0
H1721 H 0.15924 0.26674 0.84934 0.0
H1722 H 0.20176 0.36158 0.87724 0.0
C1723 C 0.3047 0.43705 0.8413 0.0
C1724 C 0.31324 0.43697 0.82795 0.0
C1725 C 0.29765 0.40239 0.82029 0.0
C1726 C 0.27382 0.3686 0.82584 0.0
C1727 C 0.26569 0.36986 0.83905 0.0
C1728 C 0.28061 0.40338 0.84666 0.0
C1729 C 0.26322 0.40036 0.86025 0.0
C1730 C 0.29987 0.39268 0.86986 0.0
C1731 C 0.23676 0.44083 0.86388 0.0
C1732 C 0.23488 0.36089 0.85901 0.0
C1733 C 0.2374 0.34294 0.84683 0.0
C1734 C 0.21148 0.30801 0.84326 0.0
C1735 C 0.18113 0.29219 0.85223 0.0
C1736 C 0.17665 0.31203 0.86444 0.0
C1737 C 0.20489 0.34568 0.86797 0.0
H1738 H 0.35896 0.35203 0.55677 0.0
H1739 H 0.27199 0.24924 0.56815 0.0
H1740 H 0.31245 0.24038 0.5884 0.0
H1741 H 0.45473 0.30236 0.56889 0.0
H1742 H 0.47866 0.35266 0.57391 0.0
H1743 H 0.44176 0.35168 0.56062 0.0
H1744 H 0.39416 0.40927 0.57211 0.0
H1745 H 0.43081 0.41022 0.58548 0.0
H1746 H 0.37437 0.3991 0.58818 0.0
H1747 H 0.36361 0.24201 0.60732 0.0
H1748 H 0.42248 0.25309 0.62297 0.0
H1749 H 0.47651 0.35343 0.59883 0.0
C1750 C 0.34815 0.32801 0.56361 0.0
C1751 C 0.31168 0.30213 0.56108 0.0
C1752 C 0.29921 0.27014 0.57007 0.0
C1753 C 0.3221 0.26473 0.58156 0.0
C1754 C 0.35765 0.29116 0.58383 0.0
C1755 C 0.3707 0.32204 0.57507 0.0
C1756 C 0.41078 0.34537 0.57956 0.0
C1757 C 0.44872 0.33753 0.57019 0.0
C1758 C 0.40198 0.39386 0.58144 0.0
C1759 C 0.41808 0.32313 0.59229 0.0
C1760 C 0.38718 0.29186 0.59458 0.0
C1761 C 0.38796 0.26639 0.60561 0.0
C1762 C 0.42165 0.2726 0.61438 0.0
C1763 C 0.45415 0.30372 0.61204 0.0
C1764 C 0.45177 0.32977 0.60096 0.0
H1765 H 0.47681 0.58147 0.30035 0.0
H1766 H 0.54206 0.46682 0.31399 0.0
H1767 H 0.53705 0.49442 0.33627 0.0
H1768 H 0.53244 0.65287 0.31944 0.0
H1769 H 0.4879 0.68916 0.32238 0.0
H1770 H 0.48932 0.65692 0.30796 0.0
H1771 H 0.4142 0.62506 0.31369 0.0
H1772 H 0.41251 0.65737 0.32817 0.0
H1773 H 0.40593 0.59964 0.32909 0.0
H1774 H 0.53517 0.53924 0.35638 0.0
H1775 H 0.53713 0.59811 0.3726 0.0
H1776 H 0.47183 0.68296 0.34603 0.0
C1777 C 0.48903 0.56175 0.3081 0.0
C1778 C 0.50914 0.52179 0.30547 0.0
C1779 C 0.52599 0.49729 0.31577 0.0
C1780 C 0.52326 0.51268 0.32847 0.0
C1781 C 0.50411 0.55276 0.33067 0.0
C1782 C 0.48708 0.57687 0.32077 0.0
C1783 C 0.4724 0.62085 0.32543 0.0
C1784 C 0.497 0.65706 0.31839 0.0
C1785 C 0.42334 0.62601 0.32401 0.0
C1786 C 0.4851 0.61831 0.33942 0.0
C1787 C 0.50298 0.57864 0.3423 0.0
C1788 C 0.52095 0.57027 0.35429 0.0
C1789 C 0.52183 0.60373 0.36342 0.0
C1790 C 0.504 0.64457 0.36056 0.0
C1791 C 0.48452 0.65153 0.34855 0.0
H1792 H 0.29371 0.34816 0.96469 0.0
H1793 H 0.21484 0.46161 0.97211 0.0
H1794 H 0.17035 0.44365 0.95309 0.0
H1795 H 0.29293 0.35672 0.92969 0.0
H1796 H 0.29187 0.29894 0.92758 0.0
H1797 H 0.31779 0.32219 0.94142 0.0
H1798 H 0.26953 0.2756 0.95642 0.0
H1799 H 0.24329 0.25247 0.94264 0.0
H1800 H 0.21166 0.27877 0.95502 0.0
H1801 H 0.13091 0.40865 0.93415 0.0
H1802 H 0.10411 0.36317 0.91619 0.0
H1803 H 0.213 0.27676 0.92108 0.0
C1804 C 0.26765 0.36987 0.96226 0.0
C1805 C 0.25789 0.40656 0.96987 0.0
C1806 C 0.22295 0.43348 0.96634 0.0
C1807 C 0.19756 0.42353 0.95559 0.0
C1808 C 0.20797 0.38687 0.94838 0.0
C1809 C 0.24263 0.36091 0.9515 0.0
C1810 C 0.24713 0.32313 0.94237 0.0
C1811 C 0.28997 0.32541 0.93482 0.0
C1812 C 0.24261 0.27997 0.94954 0.0
C1813 C 0.20906 0.33128 0.93375 0.0
C1814 C 0.18658 0.368 0.93734 0.0
C1815 C 0.14869 0.38021 0.93114 0.0
C1816 C 0.13363 0.35418 0.92099 0.0
C1817 C 0.15676 0.31678 0.91714 0.0
C1818 C 0.19498 0.30559 0.92361 0.0
H1819 H 0.51912 0.45512 0.71445 0.0
H1820 H 0.41382 0.39323 0.7349 0.0
H1821 H 0.39983 0.34715 0.71585 0.0
H1822 H 0.46874 0.44572 0.68017 0.0
H1823 H 0.52382 0.4413 0.6746 0.0
H1824 H 0.51051 0.47266 0.68881 0.0
H1825 H 0.57251 0.4245 0.69868 0.0
H1826 H 0.57442 0.38515 0.68588 0.0
H1827 H 0.56063 0.36846 0.70186 0.0
H1828 H 0.40255 0.30341 0.69533 0.0
H1829 H 0.4233 0.2633 0.67577 0.0
H1830 H 0.52878 0.35299 0.66909 0.0
C1831 C 0.49206 0.43304 0.71474 0.0
C1832 C 0.46686 0.42834 0.72602 0.0
C1833 C 0.43287 0.39782 0.72623 0.0
C1834 C 0.42464 0.37168 0.71546 0.0
C1835 C 0.45054 0.37677 0.70454 0.0
C1836 C 0.48316 0.40708 0.70407 0.0
C1837 C 0.50927 0.40311 0.69179 0.0
C1838 C 0.50286 0.44304 0.68331 0.0
C1839 C 0.55707 0.39493 0.69475 0.0
C1840 C 0.48827 0.36418 0.68574 0.0
C1841 C 0.45351 0.3503 0.69303 0.0
C1842 C 0.42944 0.31436 0.68949 0.0
C1843 C 0.4416 0.2918 0.67832 0.0
C1844 C 0.47793 0.30485 0.67085 0.0
C1845 C 0.50096 0.34209 0.67455 0.0
H1846 H 0.38408 0.51682 0.44834 0.0
H1847 H 0.38116 0.6113 0.47922 0.0
H1848 H 0.41668 0.66455 0.46494 0.0
H1849 H 0.48724 0.53903 0.43823 0.0
H1850 H 0.47758 0.53053 0.42132 0.0
H1851 H 0.44475 0.50333 0.43307 0.0
H1852 H 0.37584 0.53573 0.42288 0.0
H1853 H 0.40862 0.56315 0.41106 0.0
H1854 H 0.37134 0.59339 0.42101 0.0
H1855 H 0.45849 0.70529 0.4477 0.0
H1856 H 0.50923 0.7262 0.43019 0.0
H1857 H 0.48868 0.60265 0.41157 0.0
C1858 C 0.39017 0.54901 0.452 0.0
C1859 C 0.3799 0.56006 0.46485 0.0
C1860 C 0.38868 0.60232 0.46937 0.0
C1861 C 0.4086 0.63279 0.46131 0.0
C1862 C 0.41936 0.62046 0.44876 0.0
C1863 C 0.4105 0.57945 0.44416 0.0
C1864 C 0.42984 0.57222 0.43093 0.0
C1865 C 0.46175 0.53405 0.4309 0.0
C1866 C 0.39428 0.56575 0.42088 0.0
C1867 C 0.45268 0.61478 0.42902 0.0
C1868 C 0.44517 0.64286 0.43918 0.0
C1869 C 0.46436 0.68362 0.43967 0.0
C1870 C 0.49292 0.69533 0.4297 0.0
C1871 C 0.50256 0.66588 0.41965 0.0
C1872 C 0.48154 0.62564 0.41919 0.0
H1873 H 0.27477 0.54774 0.17987 0.0
H1874 H 0.20268 0.53782 0.21568 0.0
H1875 H 0.17444 0.61143 0.21254 0.0
H1876 H 0.29069 0.67141 0.18057 0.0
H1877 H 0.28267 0.67376 0.16343 0.0
H1878 H 0.30855 0.62738 0.17044 0.0
H1879 H 0.25211 0.57715 0.15983 0.0
H1880 H 0.22683 0.62326 0.15278 0.0
H1881 H 0.19544 0.58709 0.16266 0.0
H1882 H 0.13949 0.67518 0.20309 0.0
H1883 H 0.09879 0.72001 0.18781 0.0
H1884 H 0.19098 0.68902 0.15776 0.0
C1885 C 0.25396 0.56132 0.18724 0.0
C1886 C 0.23999 0.53643 0.19788 0.0
C1887 C 0.2133 0.55604 0.20736 0.0
C1888 C 0.19739 0.59803 0.2057 0.0
C1889 C 0.20913 0.62051 0.19462 0.0
C1890 C 0.23724 0.60296 0.18559 0.0
C1891 C 0.23862 0.62996 0.17347 0.0
C1892 C 0.28276 0.65194 0.17189 0.0
C1893 C 0.22752 0.60271 0.1615 0.0
C1894 C 0.20378 0.66286 0.17656 0.0
C1895 C 0.18859 0.65814 0.18905 0.0
C1896 C 0.15213 0.68035 0.19348 0.0
C1897 C 0.12929 0.706 0.18478 0.0
C1898 C 0.14285 0.70897 0.17181 0.0
C1899 C 0.18148 0.68879 0.16781 0.0
loop_
_geom_bond_atom_site_label_1
_geom_bond_atom_site_label_2
_geom_bond_distance
_geom_bond_site_symmetry_2
_ccdc_geom_bond_type
C0 C1 1.560 . S
C0 H61 0.959 . S
C0 H62 0.959 . S
C0 H63 0.960 . S
C1 C0 1.560 . S
C1 O56 1.426 . S
C1 H60 0.980 . S
C2 C3 1.407 . S
C2 C7 1.418 . S
C2 O56 1.334 . S
C3 C2 1.407 . S
C3 C4 1.360 . S
C3 H64 0.929 . S
C4 C3 1.360 . S
C4 C5 1.401 . S
C4 C8 1.527 . S
C5 C4 1.401 . S
C5 C6 1.405 . S
C5 C38 1.587 . S
C6 C5 1.405 . S
C6 C7 1.332 . S
C6 C9 1.496 1_565 S
C7 C2 1.418 . S
C7 C6 1.332 . S
C7 H65 0.932 . S
C8 C4 1.527 . S
C8 H66 0.959 . S
C8 H67 0.961 . S
C8 H68 0.961 . S
C9 C6 1.496 1_545 S
C9 H69 0.960 . S
C9 H70 0.960 . S
C9 H71 0.961 . S
C10 C11 1.517 . S
C10 H73 0.961 . S
C10 H74 0.960 . S
C10 H75 0.959 . S
C11 C10 1.517 . S
C11 O59 1.468 . S
C11 H72 0.980 . S
C12 C13 1.349 . S
C12 C17 1.367 . S
C12 O59 1.408 . S
C13 C12 1.349 . S
C13 C14 1.407 . S
C13 H76 0.930 . S
C14 C13 1.407 . S
C14 C15 1.449 . S
C14 C18 1.535 . S
C15 C14 1.449 . S
C15 C16 1.384 . S
C15 C40 1.553 . S
C16 C15 1.384 . S
C16 C17 1.364 . S
C16 C19 1.450 . S
C17 C12 1.367 . S
C17 C16 1.364 . S
C17 H77 0.931 . S
C18 C14 1.535 . S
C18 H78 0.959 . S
C18 H79 0.961 . S
C18 H80 0.959 . S
C19 C16 1.450 . S
C19 H81 0.960 . S
C19 H82 0.960 . S
C19 H83 0.960 . S
C20 C21 1.309 . S
C20 C25 1.304 . S
C20 O58 1.435 . S
C21 C20 1.309 . S
C21 C22 1.476 . S
C21 H85 0.930 . S
C22 C21 1.476 . S
C22 C23 1.400 . S
C22 C26 1.567 . S
C23 C22 1.400 . S
C23 C24 1.373 . S
C23 C45 1.432 . S
C24 C23 1.373 . S
C24 C25 1.339 . S
C24 C27 1.530 1_545 S
C25 C20 1.304 . S
C25 C24 1.339 . S
C25 H86 0.930 1_545 S
C26 C22 1.567 . S
C26 H87 0.961 . S
C26 H88 0.960 . S
C26 H89 0.958 . S
C27 C24 1.530 1_565 S
C27 H90 0.961 . S
C27 H91 0.960 . S
C27 H92 0.960 . S
C28 C29 1.530 . S
C28 H94 0.961 . S
C28 H95 0.961 . S
C28 H96 0.959 . S
C29 C28 1.530 . S
C29 O57 1.412 . S
C29 H93 0.980 . S
C30 C31 1.288 . S
C30 C35 1.377 . S
C30 O57 1.393 . S
C31 C30 1.288 . S
C31 C32 1.369 . S
C31 H97 0.932 . S
C32 C31 1.369 . S
C32 C33 1.398 . S
C32 C36 1.527 . S
C33 C32 1.398 . S
C33 C34 1.380 . S
C33 C47 1.497 . S
C34 C33 1.380 . S
C34 C35 1.383 . S
C34 C37 1.603 1_545 S
C35 C30 1.377 . S
C35 C34 1.383 . S
C35 H98 0.929 . S
C36 C32 1.527 . S
C36 H99 0.961 . S
C36 H100 0.959 . S
C36 H101 0.959 . S
C37 C34 1.603 1_565 S
C37 H102 0.960 . S
C37 H103 0.962 . S
C37 H104 0.961 . S
C38 C5 1.587 . S
C38 C39 1.360 1_655 S
C38 C51 1.412 . S
C39 C38 1.360 1_455 S
C39 C40 1.365 . S
C39 H105 0.929 . S
C40 C15 1.553 . S
C40 C39 1.365 . S
C40 C41 1.404 . S
C41 C40 1.404 . S
C41 C42 1.395 . S
C41 C52 1.451 . S
C42 C41 1.395 . S
C42 C43 1.322 . S
C42 H106 0.930 . S
C43 C42 1.322 . S
C43 C44 1.459 . S
C43 H107 0.929 . S
C44 C43 1.459 . S
C44 C45 1.445 1_565 S
C44 C53 1.395 . S
C45 C23 1.432 . S
C45 C44 1.445 1_545 S
C45 C46 1.370 . S
C46 C45 1.370 . S
C46 C47 1.438 1_455 S
C46 H108 0.930 . S
C47 C33 1.497 . S
C47 C46 1.438 1_655 S
C47 C48 1.360 . S
C48 C47 1.360 . S
C48 C49 1.401 . S
C48 C53 1.446 1_645 S
C49 C48 1.401 . S
C49 C50 1.347 1_545 S
C49 H109 0.929 . S
C50 C49 1.347 1_565 S
C50 C51 1.455 . S
C50 H110 0.930 . S
C51 C38 1.412 . S
C51 C50 1.455 . S
C51 C52 1.331 1_655 S
C52 C41 1.451 . S
C52 C51 1.331 1_455 S
C52 C53 1.497 . S
C53 C44 1.395 . S
C53 C48 1.446 1_465 S
C53 C52 1.497 . S
C54 C55 1.582 . S
C54 H111 0.962 . S
C54 H112 0.959 . S
C54 H113 0.958 . S
C55 C54 1.582 . S
C55 O58 1.458 . S
C55 H84 0.980 . S
O56 C1 1.426 . S
O56 C2 1.334 . S
O57 C29 1.412 . S
O57 C30 1.393 . S
O58 C20 1.435 . S
O58 C55 1.458 . S
O59 C11 1.468 . S
O59 C12 1.408 . S
H60 C1 0.980 . S
H61 C0 0.959 . S
H62 C0 0.959 . S
H63 C0 0.960 . S
H64 C3 0.929 . S
H65 C7 0.932 . S
H66 C8 0.959 . S
H67 C8 0.961 . S
H68 C8 0.961 . S
H69 C9 0.960 . S
H70 C9 0.960 . S
H71 C9 0.961 . S
H72 C11 0.980 . S
H73 C10 0.961 . S
H74 C10 0.960 . S
H75 C10 0.959 . S
H76 C13 0.930 . S
H77 C17 0.931 . S
H78 C18 0.959 . S
H79 C18 0.961 . S
H80 C18 0.959 . S
H81 C19 0.960 . S
H82 C19 0.960 . S
H83 C19 0.960 . S
H84 C55 0.980 . S
H85 C21 0.930 . S
H86 C25 0.930 1_565 S
H87 C26 0.961 . S
H88 C26 0.960 . S
H89 C26 0.958 . S
H90 C27 0.961 . S
H91 C27 0.960 . S
H92 C27 0.960 . S
H93 C29 0.980 . S
H94 C28 0.961 . S
H95 C28 0.961 . S
H96 C28 0.959 . S
H97 C31 0.932 . S
H98 C35 0.929 . S
H99 C36 0.961 . S
H100 C36 0.959 . S
H101 C36 0.959 . S
H102 C37 0.960 . S
H103 C37 0.962 . S
H104 C37 0.961 . S
H105 C39 0.929 . S
H106 C42 0.930 . S
H107 C43 0.929 . S
H108 C46 0.930 . S
H109 C49 0.929 . S
H110 C50 0.930 . S
H111 C54 0.962 . S
H112 C54 0.959 . S
H113 C54 0.958 . S
C114 C115 1.560 . S
C114 H175 0.959 . S
C114 H176 0.959 . S
C114 H177 0.960 . S
C115 C114 1.560 . S
C115 O170 1.426 . S
C115 H174 0.980 . S
C116 C117 1.407 . S
C116 C121 1.418 . S
C116 O170 1.334 . S
C117 C116 1.407 . S
C117 C118 1.360 . S
C117 H178 0.929 . S
C118 C117 1.360 . S
C118 C119 1.401 . S
C118 C122 1.527 . S
C119 C118 1.401 . S
C119 C120 1.405 . S
C119 C152 1.587 . S
C120 C119 1.405 . S
C120 C121 1.332 . S
C120 C123 1.496 . S
C121 C116 1.418 . S
C121 C120 1.332 . S
C121 H179 0.929 . S
C122 C118 1.527 . S
C122 H180 0.959 . S
C122 H181 0.961 . S
C122 H182 0.961 . S
C123 C120 1.496 . S
C123 H183 0.960 . S
C123 H184 0.960 . S
C123 H185 0.961 . S
C124 C125 1.517 . S
C124 H187 0.961 . S
C124 H188 0.960 . S
C124 H189 0.959 . S
C125 C124 1.517 . S
C125 O173 1.468 . S
C125 H186 0.980 . S
C126 C127 1.349 . S
C126 C131 1.367 . S
C126 O173 1.408 . S
C127 C126 1.349 . S
C127 C128 1.407 . S
C127 H190 0.930 . S
C128 C127 1.407 . S
C128 C129 1.449 . S
C128 C132 1.535 . S
C129 C128 1.449 . S
C129 C130 1.384 . S
C129 C154 1.553 . S
C130 C129 1.384 . S
C130 C131 1.364 . S
C130 C133 1.450 . S
C131 C126 1.367 . S
C131 C130 1.364 . S
C131 H191 0.931 . S
C132 C128 1.535 . S
C132 H192 0.959 . S
C132 H193 0.961 . S
C132 H194 0.959 . S
C133 C130 1.450 . S
C133 H195 0.960 . S
C133 H196 0.960 . S
C133 H197 0.960 . S
C134 C135 1.309 . S
C134 C139 1.304 . S
C134 O172 1.435 . S
C135 C134 1.309 . S
C135 C136 1.476 . S
C135 H199 0.930 . S
C136 C135 1.476 . S
C136 C137 1.400 . S
C136 C140 1.567 . S
C137 C136 1.400 . S
C137 C138 1.373 . S
C137 C159 1.432 . S
C138 C137 1.373 . S
C138 C139 1.339 . S
C138 C141 1.530 . S
C139 C134 1.304 . S
C139 C138 1.339 . S
C139 H200 0.930 . S
C140 C136 1.567 . S
C140 H201 0.961 . S
C140 H202 0.960 . S
C140 H203 0.958 . S
C141 C138 1.530 . S
C141 H204 0.961 . S
C141 H205 0.960 . S
C141 H206 0.960 . S
C142 C143 1.530 . S
C142 H208 0.961 . S
C142 H209 0.961 . S
C142 H210 0.959 . S
C143 C142 1.530 . S
C143 O171 1.412 . S
C143 H207 0.980 . S
C144 C145 1.288 . S
C144 C149 1.377 . S
C144 O171 1.393 . S
C145 C144 1.288 . S
C145 C146 1.369 . S
C145 H211 0.932 . S
C146 C145 1.369 . S
C146 C147 1.398 . S
C146 C150 1.527 . S
C147 C146 1.398 . S
C147 C148 1.380 . S
C147 C161 1.497 . S
C148 C147 1.380 . S
C148 C149 1.383 . S
C148 C151 1.603 . S
C149 C144 1.377 . S
C149 C148 1.383 . S
C149 H212 0.929 . S
C150 C146 1.527 . S
C150 H213 0.961 . S
C150 H214 0.959 . S
C150 H215 0.959 . S
C151 C148 1.603 . S
C151 H216 0.960 . S
C151 H217 0.962 . S
C151 H218 0.961 . S
C152 C119 1.587 . S
C152 C153 1.360 . S
C152 C165 1.412 . S
C153 C152 1.360 . S
C153 C154 1.365 . S
C153 H219 0.929 . S
C154 C129 1.553 . S
C154 C153 1.365 . S
C154 C155 1.404 . S
C155 C154 1.404 . S
C155 C156 1.395 . S
C155 C166 1.451 . S
C156 C155 1.395 . S
C156 C157 1.322 . S
C156 H220 0.930 . S
C157 C156 1.322 . S
C157 C158 1.459 . S
C157 H221 0.929 . S
C158 C157 1.459 . S
C158 C159 1.445 . S
C158 C167 1.395 . S
C159 C137 1.432 . S
C159 C158 1.445 . S
C159 C160 1.370 . S
C160 C159 1.370 . S
C160 C161 1.438 . S
C160 H222 0.930 . S
C161 C147 1.497 . S
C161 C160 1.438 . S
C161 C162 1.360 . S
C162 C161 1.360 . S
C162 C163 1.401 . S
C162 C167 1.446 . S
C163 C162 1.401 . S
C163 C164 1.347 . S
C163 H223 0.929 . S
C164 C163 1.347 . S
C164 C165 1.455 . S
C164 H224 0.930 . S
C165 C152 1.412 . S
C165 C164 1.455 . S
C165 C166 1.331 . S
C166 C155 1.451 . S
C166 C165 1.331 . S
C166 C167 1.497 . S
C167 C158 1.395 . S
C167 C162 1.446 . S
C167 C166 1.497 . S
C168 C169 1.582 . S
C168 H225 0.962 . S
C168 H226 0.959 . S
C168 H227 0.958 . S
C169 C168 1.582 . S
C169 O172 1.458 . S
C169 H198 0.980 . S
O170 C115 1.426 . S
O170 C116 1.334 . S
O171 C143 1.412 . S
O171 C144 1.393 . S
O172 C134 1.435 . S
O172 C169 1.458 . S
O173 C125 1.468 . S
O173 C126 1.408 . S
H174 C115 0.980 . S
H175 C114 0.959 . S
H176 C114 0.959 . S
H177 C114 0.960 . S
H178 C117 0.929 . S
H179 C121 0.929 . S
H180 C122 0.959 . S
H181 C122 0.961 . S
H182 C122 0.961 . S
H183 C123 0.960 . S
H184 C123 0.960 . S
H185 C123 0.961 . S
H186 C125 0.980 . S
H187 C124 0.961 . S
H188 C124 0.960 . S
H189 C124 0.959 . S
H190 C127 0.930 . S
H191 C131 0.931 . S
H192 C132 0.959 . S
H193 C132 0.961 . S
H194 C132 0.959 . S
H195 C133 0.960 . S
H196 C133 0.960 . S
H197 C133 0.960 . S
H198 C169 0.980 . S
H199 C135 0.930 . S
H200 C139 0.930 . S
H201 C140 0.961 . S
H202 C140 0.960 . S
H203 C140 0.958 . S
H204 C141 0.961 . S
H205 C141 0.960 . S
H206 C141 0.960 . S
H207 C143 0.980 . S
H208 C142 0.961 . S
H209 C142 0.961 . S
H210 C142 0.959 . S
H211 C145 0.932 . S
H212 C149 0.929 . S
H213 C150 0.961 . S
H214 C150 0.959 . S
H215 C150 0.959 . S
H216 C151 0.960 . S
H217 C151 0.962 . S
H218 C151 0.961 . S
H219 C153 0.929 . S
H220 C156 0.930 . S
H221 C157 0.929 . S
H222 C160 0.930 . S
H223 C163 0.929 . S
H224 C164 0.930 . S
H225 C168 0.962 . S
H226 C168 0.959 . S
H227 C168 0.958 . S
C228 C229 1.560 . S
C228 H289 0.959 . S
C228 H290 0.959 . S
C228 H291 0.960 . S
C229 C228 1.560 . S
C229 O284 1.426 . S
C229 H288 0.980 . S
C230 C231 1.407 . S
C230 C235 1.418 . S
C230 O284 1.334 . S
C231 C230 1.407 . S
C231 C232 1.360 . S
C231 H292 0.929 . S
C232 C231 1.360 . S
C232 C233 1.401 . S
C232 C236 1.527 . S
C233 C232 1.401 . S
C233 C234 1.405 . S
C233 C266 1.587 . S
C234 C233 1.405 . S
C234 C235 1.332 . S
C234 C237 1.496 1_565 S
C235 C230 1.418 . S
C235 C234 1.332 . S
C235 H293 0.929 . S
C236 C232 1.527 . S
C236 H294 0.959 . S
C236 H295 0.961 . S
C236 H296 0.961 . S
C237 C234 1.496 1_545 S
C237 H297 0.960 . S
C237 H298 0.961 . S
C237 H299 0.961 . S
C238 C239 1.517 . S
C238 H301 0.961 . S
C238 H302 0.960 . S
C238 H303 0.959 . S
C239 C238 1.517 . S
C239 O287 1.468 . S
C239 H300 0.980 . S
C240 C241 1.349 . S
C240 C245 1.367 . S
C240 O287 1.408 . S
C241 C240 1.349 . S
C241 C242 1.407 . S
C241 H304 0.930 . S
C242 C241 1.407 . S
C242 C243 1.449 . S
C242 C246 1.535 . S
C243 C242 1.449 . S
C243 C244 1.384 . S
C243 C268 1.553 . S
C244 C243 1.384 . S
C244 C245 1.364 . S
C244 C247 1.450 . S
C245 C240 1.367 . S
C245 C244 1.364 . S
C245 H305 0.931 . S
C246 C242 1.535 . S
C246 H306 0.959 . S
C246 H307 0.961 . S
C246 H308 0.959 . S
C247 C244 1.450 . S
C247 H309 0.960 . S
C247 H310 0.960 . S
C247 H311 0.960 . S
C248 C249 1.309 . S
C248 C253 1.304 . S
C248 O286 1.435 . S
C249 C248 1.309 . S
C249 C250 1.476 . S
C249 H313 0.930 . S
C250 C249 1.476 . S
C250 C251 1.400 . S
C250 C254 1.567 . S
C251 C250 1.400 . S
C251 C252 1.373 . S
C251 C273 1.432 . S
C252 C251 1.373 . S
C252 C253 1.339 . S
C252 C255 1.530 1_545 S
C253 C248 1.304 . S
C253 C252 1.339 . S
C253 H314 0.930 1_545 S
C254 C250 1.567 . S
C254 H315 0.961 1_556 S
C254 H316 0.960 1_556 S
C254 H317 0.958 . S
C255 C252 1.530 1_565 S
C255 H318 0.961 . S
C255 H319 0.960 . S
C255 H320 0.960 . S
C256 C257 1.530 . S
C256 H322 0.961 . S
C256 H323 0.961 . S
C256 H324 0.959 . S
C257 C256 1.530 . S
C257 O285 1.412 . S
C257 H321 0.980 . S
C258 C259 1.288 . S
C258 C263 1.377 . S
C258 O285 1.393 . S
C259 C258 1.288 . S
C259 C260 1.369 . S
C259 H325 0.932 . S
C260 C259 1.369 . S
C260 C261 1.398 . S
C260 C264 1.527 . S
C261 C260 1.398 . S
C261 C262 1.380 . S
C261 C275 1.497 . S
C262 C261 1.380 . S
C262 C263 1.383 . S
C262 C265 1.603 1_545 S
C263 C258 1.377 . S
C263 C262 1.383 . S
C263 H326 0.929 . S
C264 C260 1.527 . S
C264 H327 0.961 1_556 S
C264 H328 0.959 . S
C264 H329 0.959 1_556 S
C265 C262 1.603 1_565 S
C265 H330 0.960 . S
C265 H331 0.962 . S
C265 H332 0.961 . S
C266 C233 1.587 . S
C266 C267 1.360 . S
C266 C279 1.412 . S
C267 C266 1.360 . S
C267 C268 1.365 . S
C267 H333 0.929 . S
C268 C243 1.553 . S
C268 C267 1.365 . S
C268 C269 1.404 . S
C269 C268 1.404 . S
C269 C270 1.395 . S
C269 C280 1.451 . S
C270 C269 1.395 . S
C270 C271 1.322 . S
C270 H334 0.930 . S
C271 C270 1.322 . S
C271 C272 1.457 1_554 S
C271 H335 0.929 . S
C272 C271 1.457 1_556 S
C272 C273 1.449 1_565 S
C272 C281 1.393 1_556 S
C273 C251 1.432 . S
C273 C272 1.449 1_545 S
C273 C274 1.370 . S
C274 C273 1.370 . S
C274 C275 1.438 . S
C274 H336 0.930 . S
C275 C261 1.497 . S
C275 C274 1.438 . S
C275 C276 1.360 1_556 S
C276 C275 1.360 1_554 S
C276 C277 1.401 . S
C276 C281 1.446 1_545 S
C277 C276 1.401 . S
C277 C278 1.347 1_545 S
C277 H337 0.929 . S
C278 C277 1.347 1_565 S
C278 C279 1.455 . S
C278 H338 0.930 . S
C279 C266 1.412 . S
C279 C278 1.455 . S
C279 C280 1.331 . S
C280 C269 1.451 . S
C280 C279 1.331 . S
C280 C281 1.497 . S
C281 C272 1.393 1_554 S
C281 C276 1.446 1_565 S
C281 C280 1.497 . S
C282 C283 1.582 . S
C282 H339 0.962 . S
C282 H340 0.959 . S
C282 H341 0.958 . S
C283 C282 1.582 . S
C283 O286 1.458 . S
C283 H312 0.980 . S
O284 C229 1.426 . S
O284 C230 1.334 . S
O285 C257 1.412 . S
O285 C258 1.393 . S
O286 C248 1.435 . S
O286 C283 1.458 . S
O287 C239 1.468 . S
O287 C240 1.408 . S
H288 C229 0.980 . S
H289 C228 0.959 . S
H290 C228 0.959 . S
H291 C228 0.960 . S
H292 C231 0.929 . S
H293 C235 0.929 . S
H294 C236 0.959 . S
H295 C236 0.961 . S
H296 C236 0.961 . S
H297 C237 0.960 . S
H298 C237 0.961 . S
H299 C237 0.961 . S
H300 C239 0.980 . S
H301 C238 0.961 . S
H302 C238 0.960 . S
H303 C238 0.959 . S
H304 C241 0.930 . S
H305 C245 0.931 . S
H306 C246 0.959 . S
H307 C246 0.961 . S
H308 C246 0.959 . S
H309 C247 0.960 . S
H310 C247 0.960 . S
H311 C247 0.960 . S
H312 C283 0.980 . S
H313 C249 0.930 . S
H314 C253 0.930 1_565 S
H315 C254 0.961 1_554 S
H316 C254 0.960 1_554 S
H317 C254 0.958 . S
H318 C255 0.961 . S
H319 C255 0.960 . S
H320 C255 0.960 . S
H321 C257 0.980 . S
H322 C256 0.961 . S
H323 C256 0.961 . S
H324 C256 0.959 . S
H325 C259 0.932 . S
H326 C263 0.929 . S
H327 C264 0.961 1_554 S
H328 C264 0.959 . S
H329 C264 0.959 1_554 S
H330 C265 0.960 . S
H331 C265 0.962 . S
H332 C265 0.961 . S
H333 C267 0.929 . S
H334 C270 0.930 . S
H335 C271 0.929 . S
H336 C274 0.930 . S
H337 C277 0.929 . S
H338 C278 0.930 . S
H339 C282 0.962 . S
H340 C282 0.959 . S
H341 C282 0.958 . S
C342 C343 1.560 . S
C342 H403 0.959 . S
C342 H404 0.959 . S
C342 H405 0.960 . S
C343 C342 1.560 . S
C343 O398 1.426 . S
C343 H402 0.980 . S
C344 C345 1.407 . S
C344 C349 1.418 . S
C344 O398 1.334 . S
C345 C344 1.407 . S
C345 C346 1.360 . S
C345 H406 0.929 . S
C346 C345 1.360 . S
C346 C347 1.401 . S
C346 C350 1.527 . S
C347 C346 1.401 . S
C347 C348 1.405 . S
C347 C380 1.587 . S
C348 C347 1.405 . S
C348 C349 1.332 . S
C348 C351 1.496 . S
C349 C344 1.418 . S
C349 C348 1.332 . S
C349 H407 0.929 . S
C350 C346 1.527 . S
C350 H408 0.959 . S
C350 H409 0.961 . S
C350 H410 0.961 . S
C351 C348 1.496 . S
C351 H411 0.960 . S
C351 H412 0.960 . S
C351 H413 0.961 . S
C352 C353 1.517 . S
C352 H415 0.961 . S
C352 H416 0.960 . S
C352 H417 0.959 . S
C353 C352 1.517 . S
C353 O401 1.468 . S
C353 H414 0.980 . S
C354 C355 1.349 . S
C354 C359 1.367 . S
C354 O401 1.408 . S
C355 C354 1.349 . S
C355 C356 1.407 . S
C355 H418 0.930 . S
C356 C355 1.407 . S
C356 C357 1.449 . S
C356 C360 1.535 . S
C357 C356 1.449 . S
C357 C358 1.384 . S
C357 C382 1.553 . S
C358 C357 1.384 . S
C358 C359 1.364 . S
C358 C361 1.450 . S
C359 C354 1.367 . S
C359 C358 1.364 . S
C359 H419 0.931 . S
C360 C356 1.535 . S
C360 H420 0.959 . S
C360 H421 0.961 . S
C360 H422 0.959 . S
C361 C358 1.450 . S
C361 H423 0.960 . S
C361 H424 0.960 . S
C361 H425 0.960 . S
C362 C363 1.309 . S
C362 C367 1.304 . S
C362 O400 1.435 . S
C363 C362 1.309 . S
C363 C364 1.476 . S
C363 H427 0.930 . S
C364 C363 1.476 . S
C364 C365 1.400 . S
C364 C368 1.567 . S
C365 C364 1.400 . S
C365 C366 1.373 . S
C365 C387 1.432 . S
C366 C365 1.373 . S
C366 C367 1.339 . S
C366 C369 1.530 . S
C367 C362 1.304 . S
C367 C366 1.339 . S
C367 H428 0.930 . S
C368 C364 1.567 . S
C368 H429 0.961 . S
C368 H430 0.960 . S
C368 H431 0.958 . S
C369 C366 1.530 . S
C369 H432 0.961 . S
C369 H433 0.960 . S
C369 H434 0.960 . S
C370 C371 1.530 . S
C370 H436 0.961 . S
C370 H437 0.961 . S
C370 H438 0.959 . S
C371 C370 1.530 . S
C371 O399 1.412 . S
C371 H435 0.980 . S
C372 C373 1.288 . S
C372 C377 1.377 . S
C372 O399 1.393 . S
C373 C372 1.288 . S
C373 C374 1.369 . S
C373 H439 0.932 . S
C374 C373 1.369 . S
C374 C375 1.398 . S
C374 C378 1.527 . S
C375 C374 1.398 . S
C375 C376 1.380 . S
C375 C389 1.497 . S
C376 C375 1.380 . S
C376 C377 1.383 . S
C376 C379 1.603 . S
C377 C372 1.377 . S
C377 C376 1.383 . S
C377 H440 0.929 . S
C378 C374 1.527 . S
C378 H441 0.961 . S
C378 H442 0.959 . S
C378 H443 0.959 . S
C379 C376 1.603 . S
C379 H444 0.960 . S
C379 H445 0.962 . S
C379 H446 0.961 . S
C380 C347 1.587 . S
C380 C381 1.360 . S
C380 C393 1.412 . S
C381 C380 1.360 . S
C381 C382 1.365 . S
C381 H447 0.929 . S
C382 C357 1.553 . S
C382 C381 1.365 . S
C382 C383 1.404 . S
C383 C382 1.404 . S
C383 C384 1.395 . S
C383 C394 1.451 . S
C384 C383 1.395 . S
C384 C385 1.322 . S
C384 H448 0.930 . S
C385 C384 1.322 . S
C385 C386 1.459 . S
C385 H449 0.929 . S
C386 C385 1.459 . S
C386 C387 1.445 . S
C386 C395 1.395 . S
C387 C365 1.432 . S
C387 C386 1.445 . S
C387 C388 1.370 . S
C388 C387 1.370 . S
C388 C389 1.438 . S
C388 H450 0.930 . S
C389 C375 1.497 . S
C389 C388 1.438 . S
C389 C390 1.360 . S
C390 C389 1.360 . S
C390 C391 1.401 . S
C390 C395 1.446 . S
C391 C390 1.401 . S
C391 C392 1.347 . S
C391 H451 0.929 . S
C392 C391 1.347 . S
C392 C393 1.455 . S
C392 H452 0.930 . S
C393 C380 1.412 . S
C393 C392 1.455 . S
C393 C394 1.331 . S
C394 C383 1.451 . S
C394 C393 1.331 . S
C394 C395 1.497 . S
C395 C386 1.395 . S
C395 C390 1.446 . S
C395 C394 1.497 . S
C396 C397 1.582 . S
C396 H453 0.962 . S
C396 H454 0.959 . S
C396 H455 0.958 . S
C397 C396 1.582 . S
C397 O400 1.458 . S
C397 H426 0.980 . S
O398 C343 1.426 . S
O398 C344 1.334 . S
O399 C371 1.412 . S
O399 C372 1.393 . S
O400 C362 1.435 . S
O400 C397 1.458 . S
O401 C353 1.468 . S
O401 C354 1.408 . S
H402 C343 0.980 . S
H403 C342 0.959 . S
H404 C342 0.959 . S
H405 C342 0.960 . S
H406 C345 0.929 . S
H407 C349 0.929 . S
H408 C350 0.959 . S
H409 C350 0.961 . S
H410 C350 0.961 . S
H411 C351 0.960 . S
H412 C351 0.960 . S
H413 C351 0.961 . S
H414 C353 0.980 . S
H415 C352 0.961 . S
H416 C352 0.960 . S
H417 C352 0.959 . S
H418 C355 0.930 . S
H419 C359 0.931 . S
H420 C360 0.959 . S
H421 C360 0.961 . S
H422 C360 0.959 . S
H423 C361 0.960 . S
H424 C361 0.960 . S
H425 C361 0.960 . S
H426 C397 0.980 . S
H427 C363 0.930 . S
H428 C367 0.930 . S
H429 C368 0.961 . S
H430 C368 0.960 . S
H431 C368 0.958 . S
H432 C369 0.961 . S
H433 C369 0.960 . S
H434 C369 0.960 . S
H435 C371 0.980 . S
H436 C370 0.961 . S
H437 C370 0.961 . S
H438 C370 0.959 . S
H439 C373 0.932 . S
H440 C377 0.929 . S
H441 C378 0.961 . S
H442 C378 0.959 . S
H443 C378 0.959 . S
H444 C379 0.960 . S
H445 C379 0.962 . S
H446 C379 0.961 . S
H447 C381 0.929 . S
H448 C384 0.930 . S
H449 C385 0.929 . S
H450 C388 0.930 . S
H451 C391 0.929 . S
H452 C392 0.930 . S
H453 C396 0.962 . S
H454 C396 0.959 . S
H455 C396 0.958 . S
C456 C457 1.560 . S
C456 H517 0.959 . S
C456 H518 0.959 . S
C456 H519 0.960 . S
C457 C456 1.560 . S
C457 O512 1.426 . S
C457 H516 0.980 . S
C458 C459 1.407 . S
C458 C463 1.418 . S
C458 O512 1.334 . S
C459 C458 1.407 . S
C459 C460 1.360 . S
C459 H520 0.929 . S
C460 C459 1.360 . S
C460 C461 1.401 . S
C460 C464 1.527 . S
C461 C460 1.401 . S
C461 C462 1.405 . S
C461 C494 1.587 . S
C462 C461 1.405 . S
C462 C463 1.332 . S
C462 C465 1.496 . S
C463 C458 1.418 . S
C463 C462 1.332 . S
C463 H521 0.929 . S
C464 C460 1.527 . S
C464 H522 0.959 . S
C464 H523 0.961 . S
C464 H524 0.961 . S
C465 C462 1.496 . S
C465 H525 0.960 . S
C465 H526 0.960 . S
C465 H527 0.961 . S
C466 C467 1.517 . S
C466 H529 0.961 . S
C466 H530 0.960 . S
C466 H531 0.959 . S
C467 C466 1.517 . S
C467 O515 1.468 . S
C467 H528 0.980 . S
C468 C469 1.349 . S
C468 C473 1.367 . S
C468 O515 1.408 1_545 S
C469 C468 1.349 . S
C469 C470 1.407 . S
C469 H532 0.930 . S
C470 C469 1.407 . S
C470 C471 1.449 . S
C470 C474 1.535 . S
C471 C470 1.449 . S
C471 C472 1.384 . S
C471 C496 1.553 . S
C472 C471 1.384 . S
C472 C473 1.364 . S
C472 C475 1.450 . S
C473 C468 1.367 . S
C473 C472 1.364 . S
C473 H533 0.931 . S
C474 C470 1.535 . S
C474 H534 0.959 . S
C474 H535 0.961 . S
C474 H536 0.959 . S
C475 C472 1.450 . S
C475 H537 0.960 . S
C475 H538 0.960 . S
C475 H539 0.960 . S
C476 C477 1.309 . S
C476 C481 1.304 . S
C476 O514 1.435 1_545 S
C477 C476 1.309 . S
C477 C478 1.476 . S
C477 H541 0.930 . S
C478 C477 1.476 . S
C478 C479 1.400 . S
C478 C482 1.567 . S
C479 C478 1.400 . S
C479 C480 1.373 . S
C479 C501 1.432 . S
C480 C479 1.373 . S
C480 C481 1.339 . S
C480 C483 1.530 . S
C481 C476 1.304 . S
C481 C480 1.339 . S
C481 H542 0.930 . S
C482 C478 1.567 . S
C482 H543 0.961 . S
C482 H544 0.960 . S
C482 H545 0.958 . S
C483 C480 1.530 . S
C483 H546 0.961 . S
C483 H547 0.960 . S
C483 H548 0.960 . S
C484 C485 1.530 . S
C484 H550 0.961 . S
C484 H551 0.961 . S
C484 H552 0.959 . S
C485 C484 1.530 . S
C485 O513 1.412 . S
C485 H549 0.980 . S
C486 C487 1.288 . S
C486 C491 1.377 . S
C486 O513 1.393 . S
C487 C486 1.288 . S
C487 C488 1.369 . S
C487 H553 0.932 . S
C488 C487 1.369 . S
C488 C489 1.398 . S
C488 C492 1.527 . S
C489 C488 1.398 . S
C489 C490 1.380 . S
C489 C503 1.497 . S
C490 C489 1.380 . S
C490 C491 1.383 . S
C490 C493 1.603 . S
C491 C486 1.377 . S
C491 C490 1.383 . S
C491 H554 0.929 . S
C492 C488 1.527 . S
C492 H555 0.961 . S
C492 H556 0.959 . S
C492 H557 0.959 . S
C493 C490 1.603 . S
C493 H558 0.960 . S
C493 H559 0.962 . S
C493 H560 0.961 . S
C494 C461 1.587 . S
C494 C495 1.360 . S
C494 C507 1.412 . S
C495 C494 1.360 . S
C495 C496 1.365 . S
C495 H561 0.929 . S
C496 C471 1.553 . S
C496 C495 1.365 . S
C496 C497 1.404 . S
C497 C496 1.404 . S
C497 C498 1.395 . S
C497 C508 1.451 . S
C498 C497 1.395 . S
C498 C499 1.322 . S
C498 H562 0.930 . S
C499 C498 1.322 . S
C499 C500 1.459 . S
C499 H563 0.929 . S
C500 C499 1.459 . S
C500 C501 1.445 . S
C500 C509 1.395 . S
C501 C479 1.432 . S
C501 C500 1.445 . S
C501 C502 1.370 . S
C502 C501 1.370 . S
C502 C503 1.438 . S
C502 H564 0.930 . S
C503 C489 1.497 . S
C503 C502 1.438 . S
C503 C504 1.360 . S
C504 C503 1.360 . S
C504 C505 1.401 . S
C504 C509 1.446 . S
C505 C504 1.401 . S
C505 C506 1.347 . S
C505 H565 0.929 . S
C506 C505 1.347 . S
C506 C507 1.455 . S
C506 H566 0.930 . S
C507 C494 1.412 . S
C507 C506 1.455 . S
C507 C508 1.331 . S
C508 C497 1.451 . S
C508 C507 1.331 . S
C508 C509 1.497 . S
C509 C500 1.395 . S
C509 C504 1.446 . S
C509 C508 1.497 . S
C510 C511 1.582 . S
C510 H567 0.962 . S
C510 H568 0.959 . S
C510 H569 0.958 . S
C511 C510 1.582 . S
C511 O514 1.458 . S
C511 H540 0.980 . S
O512 C457 1.426 . S
O512 C458 1.334 . S
O513 C485 1.412 . S
O513 C486 1.393 . S
O514 C476 1.435 1_565 S
O514 C511 1.458 . S
O515 C467 1.468 . S
O515 C468 1.408 1_565 S
H516 C457 0.980 . S
H517 C456 0.959 . S
H518 C456 0.959 . S
H519 C456 0.960 . S
H520 C459 0.929 . S
H521 C463 0.929 . S
H522 C464 0.959 . S
H523 C464 0.961 . S
H524 C464 0.961 . S
H525 C465 0.960 . S
H526 C465 0.960 . S
H527 C465 0.961 . S
H528 C467 0.980 . S
H529 C466 0.961 . S
H530 C466 0.960 . S
H531 C466 0.959 . S
H532 C469 0.930 . S
H533 C473 0.931 . S
H534 C474 0.959 . S
H535 C474 0.961 . S
H536 C474 0.959 . S
H537 C475 0.960 . S
H538 C475 0.960 . S
H539 C475 0.960 . S
H540 C511 0.980 . S
H541 C477 0.930 . S
H542 C481 0.930 . S
H543 C482 0.961 . S
H544 C482 0.960 . S
H545 C482 0.958 . S
H546 C483 0.961 . S
H547 C483 0.960 . S
H548 C483 0.960 . S
H549 C485 0.980 . S
H550 C484 0.961 . S
H551 C484 0.961 . S
H552 C484 0.959 . S
H553 C487 0.932 . S
H554 C491 0.929 . S
H555 C492 0.961 . S
H556 C492 0.959 . S
H557 C492 0.959 . S
H558 C493 0.960 . S
H559 C493 0.962 . S
H560 C493 0.961 . S
H561 C495 0.929 . S
H562 C498 0.930 . S
H563 C499 0.929 . S
H564 C502 0.930 . S
H565 C505 0.929 . S
H566 C506 0.930 . S
H567 C510 0.962 . S
H568 C510 0.959 . S
H569 C510 0.958 . S
C570 C571 1.560 . S
C570 H631 0.959 . S
C570 H632 0.959 . S
C570 H633 0.960 . S
C571 C570 1.560 . S
C571 O626 1.426 . S
C571 H630 0.980 . S
C572 C573 1.407 . S
C572 C577 1.418 . S
C572 O626 1.334 . S
C573 C572 1.407 . S
C573 C574 1.360 . S
C573 H634 0.929 . S
C574 C573 1.360 . S
C574 C575 1.401 . S
C574 C578 1.527 . S
C575 C574 1.401 . S
C575 C576 1.405 . S
C575 C608 1.587 . S
C576 C575 1.405 . S
C576 C577 1.332 . S
C576 C579 1.496 . S
C577 C572 1.418 . S
C577 C576 1.332 . S
C577 H635 0.929 . S
C578 C574 1.527 . S
C578 H636 0.959 . S
C578 H637 0.961 . S
C578 H638 0.961 . S
C579 C576 1.496 . S
C579 H639 0.960 . S
C579 H640 0.960 . S
C579 H641 0.961 . S
C580 C581 1.517 . S
C580 H643 0.961 . S
C580 H644 0.960 . S
C580 H645 0.959 . S
C581 C580 1.517 . S
C581 O629 1.468 . S
C581 H642 0.980 . S
C582 C583 1.349 . S
C582 C587 1.367 . S
C582 O629 1.408 1_565 S
C583 C582 1.349 . S
C583 C584 1.407 . S
C583 H646 0.930 . S
C584 C583 1.407 . S
C584 C585 1.449 . S
C584 C588 1.535 . S
C585 C584 1.449 . S
C585 C586 1.384 . S
C585 C610 1.553 . S
C586 C585 1.384 . S
C586 C587 1.364 . S
C586 C589 1.450 . S
C587 C582 1.367 . S
C587 C586 1.364 . S
C587 H647 0.931 . S
C588 C584 1.535 . S
C588 H648 0.959 . S
C588 H649 0.961 . S
C588 H650 0.959 . S
C589 C586 1.450 . S
C589 H651 0.960 . S
C589 H652 0.960 . S
C589 H653 0.960 . S
C590 C591 1.309 . S
C590 C595 1.304 . S
C590 O628 1.435 1_565 S
C591 C590 1.309 . S
C591 C592 1.476 . S
C591 H655 0.930 . S
C592 C591 1.476 . S
C592 C593 1.400 . S
C592 C596 1.567 . S
C593 C592 1.400 . S
C593 C594 1.373 . S
C593 C615 1.432 . S
C594 C593 1.373 . S
C594 C595 1.339 . S
C594 C597 1.530 . S
C595 C590 1.304 . S
C595 C594 1.339 . S
C595 H656 0.930 . S
C596 C592 1.567 . S
C596 H657 0.961 . S
C596 H658 0.960 . S
C596 H659 0.958 . S
C597 C594 1.530 . S
C597 H660 0.961 . S
C597 H661 0.960 . S
C597 H662 0.960 . S
C598 C599 1.530 . S
C598 H664 0.961 . S
C598 H665 0.961 . S
C598 H666 0.959 . S
C599 C598 1.530 . S
C599 O627 1.412 . S
C599 H663 0.980 . S
C600 C601 1.288 . S
C600 C605 1.377 . S
C600 O627 1.393 . S
C601 C600 1.288 . S
C601 C602 1.369 . S
C601 H667 0.932 . S
C602 C601 1.369 . S
C602 C603 1.398 . S
C602 C606 1.527 . S
C603 C602 1.398 . S
C603 C604 1.380 . S
C603 C617 1.497 . S
C604 C603 1.380 . S
C604 C605 1.383 . S
C604 C607 1.603 . S
C605 C600 1.377 . S
C605 C604 1.383 . S
C605 H668 0.929 . S
C606 C602 1.527 . S
C606 H669 0.961 . S
C606 H670 0.959 . S
C606 H671 0.959 . S
C607 C604 1.603 . S
C607 H672 0.960 . S
C607 H673 0.962 . S
C607 H674 0.961 . S
C608 C575 1.587 . S
C608 C609 1.360 . S
C608 C621 1.412 . S
C609 C608 1.360 . S
C609 C610 1.365 . S
C609 H675 0.929 . S
C610 C585 1.553 . S
C610 C609 1.365 . S
C610 C611 1.404 . S
C611 C610 1.404 . S
C611 C612 1.395 . S
C611 C622 1.451 . S
C612 C611 1.395 . S
C612 C613 1.322 . S
C612 H676 0.930 . S
C613 C612 1.322 . S
C613 C614 1.459 . S
C613 H677 0.929 . S
C614 C613 1.459 . S
C614 C615 1.445 . S
C614 C623 1.395 . S
C615 C593 1.432 . S
C615 C614 1.445 . S
C615 C616 1.370 . S
C616 C615 1.370 . S
C616 C617 1.438 . S
C616 H678 0.930 . S
C617 C603 1.497 . S
C617 C616 1.438 . S
C617 C618 1.360 . S
C618 C617 1.360 . S
C618 C619 1.401 . S
C618 C623 1.446 . S
C619 C618 1.401 . S
C619 C620 1.347 . S
C619 H679 0.929 . S
C620 C619 1.347 . S
C620 C621 1.455 . S
C620 H680 0.930 . S
C621 C608 1.412 . S
C621 C620 1.455 . S
C621 C622 1.331 . S
C622 C611 1.451 . S
C622 C621 1.331 . S
C622 C623 1.497 . S
C623 C614 1.395 . S
C623 C618 1.446 . S
C623 C622 1.497 . S
C624 C625 1.582 . S
C624 H681 0.962 . S
C624 H682 0.959 . S
C624 H683 0.958 . S
C625 C624 1.582 . S
C625 O628 1.458 . S
C625 H654 0.980 . S
O626 C571 1.426 . S
O626 C572 1.334 . S
O627 C599 1.412 . S
O627 C600 1.393 . S
O628 C590 1.435 1_545 S
O628 C625 1.458 . S
O629 C581 1.468 . S
O629 C582 1.408 1_545 S
H630 C571 0.980 . S
H631 C570 0.959 . S
H632 C570 0.959 . S
H633 C570 0.960 . S
H634 C573 0.929 . S
H635 C577 0.929 . S
H636 C578 0.959 . S
H637 C578 0.961 . S
H638 C578 0.961 . S
H639 C579 0.960 . S
H640 C579 0.960 . S
H641 C579 0.961 . S
H642 C581 0.980 . S
H643 C580 0.961 . S
H644 C580 0.960 . S
H645 C580 0.959 . S
H646 C583 0.930 . S
H647 C587 0.931 . S
H648 C588 0.959 . S
H649 C588 0.961 . S
H650 C588 0.959 . S
H651 C589 0.960 . S
H652 C589 0.960 . S
H653 C589 0.960 . S
H654 C625 0.980 . S
H655 C591 0.930 . S
H656 C595 0.930 . S
H657 C596 0.961 . S
H658 C596 0.960 . S
H659 C596 0.958 . S
H660 C597 0.961 . S
H661 C597 0.960 . S
H662 C597 0.960 . S
H663 C599 0.980 . S
H664 C598 0.961 . S
H665 C598 0.961 . S
H666 C598 0.959 . S
H667 C601 0.932 . S
H668 C605 0.929 . S
H669 C606 0.961 . S
H670 C606 0.959 . S
H671 C606 0.959 . S
H672 C607 0.960 . S
H673 C607 0.962 . S
H674 C607 0.961 . S
H675 C609 0.929 . S
H676 C612 0.930 . S
H677 C613 0.929 . S
H678 C616 0.930 . S
H679 C619 0.929 . S
H680 C620 0.930 . S
H681 C624 0.962 . S
H682 C624 0.959 . S
H683 C624 0.958 . S
C684 C685 1.560 . S
C684 H745 0.959 . S
C684 H746 0.959 . S
C684 H747 0.960 . S
C685 C684 1.560 . S
C685 O740 1.426 . S
C685 H744 0.980 . S
C686 C687 1.407 . S
C686 C691 1.418 . S
C686 O740 1.334 . S
C687 C686 1.407 . S
C687 C688 1.360 . S
C687 H748 0.929 . S
C688 C687 1.360 . S
C688 C689 1.401 . S
C688 C692 1.527 . S
C689 C688 1.401 . S
C689 C690 1.405 . S
C689 C722 1.587 . S
C690 C689 1.405 . S
C690 C691 1.332 . S
C690 C693 1.496 . S
C691 C686 1.418 . S
C691 C690 1.332 . S
C691 H749 0.929 . S
C692 C688 1.527 . S
C692 H750 0.959 . S
C692 H751 0.961 . S
C692 H752 0.961 . S
C693 C690 1.496 . S
C693 H753 0.960 . S
C693 H754 0.960 . S
C693 H755 0.961 . S
C694 C695 1.517 . S
C694 H757 0.961 . S
C694 H758 0.960 . S
C694 H759 0.959 . S
C695 C694 1.517 . S
C695 O743 1.468 . S
C695 H756 0.980 . S
C696 C697 1.349 . S
C696 C701 1.367 . S
C696 O743 1.408 . S
C697 C696 1.349 . S
C697 C698 1.407 . S
C697 H760 0.930 . S
C698 C697 1.407 . S
C698 C699 1.449 . S
C698 C702 1.535 . S
C699 C698 1.449 . S
C699 C700 1.384 . S
C699 C724 1.553 . S
C700 C699 1.384 . S
C700 C701 1.364 . S
C700 C703 1.450 . S
C701 C696 1.367 . S
C701 C700 1.364 . S
C701 H761 0.931 . S
C702 C698 1.535 . S
C702 H762 0.959 . S
C702 H763 0.961 . S
C702 H764 0.959 . S
C703 C700 1.450 . S
C703 H765 0.960 . S
C703 H766 0.960 . S
C703 H767 0.960 . S
C704 C705 1.309 . S
C704 C709 1.304 . S
C704 O742 1.435 . S
C705 C704 1.309 . S
C705 C706 1.476 . S
C705 H769 0.930 . S
C706 C705 1.476 . S
C706 C707 1.400 . S
C706 C710 1.567 . S
C707 C706 1.400 . S
C707 C708 1.373 . S
C707 C729 1.432 . S
C708 C707 1.373 . S
C708 C709 1.339 . S
C708 C711 1.530 1_556 S
C709 C704 1.304 . S
C709 C708 1.339 . S
C709 H770 0.930 . S
C710 C706 1.567 . S
C710 H771 0.961 . S
C710 H772 0.960 . S
C710 H773 0.958 . S
C711 C708 1.530 1_554 S
C711 H774 0.961 . S
C711 H775 0.960 . S
C711 H776 0.960 1_554 S
C712 C713 1.530 . S
C712 H778 0.961 . S
C712 H779 0.961 . S
C712 H780 0.959 . S
C713 C712 1.530 . S
C713 O741 1.412 . S
C713 H777 0.980 . S
C714 C715 1.288 . S
C714 C719 1.377 . S
C714 O741 1.393 . S
C715 C714 1.288 . S
C715 C716 1.369 . S
C715 H781 0.932 . S
C716 C715 1.369 . S
C716 C717 1.398 . S
C716 C720 1.527 . S
C717 C716 1.398 . S
C717 C718 1.380 . S
C717 C731 1.497 . S
C718 C717 1.380 . S
C718 C719 1.383 . S
C718 C721 1.603 . S
C719 C714 1.377 . S
C719 C718 1.383 . S
C719 H782 0.929 . S
C720 C716 1.527 . S
C720 H783 0.961 . S
C720 H784 0.959 . S
C720 H785 0.959 . S
C721 C718 1.603 . S
C721 H786 0.960 . S
C721 H787 0.963 . S
C721 H788 0.961 1_556 S
C722 C689 1.587 . S
C722 C723 1.360 . S
C722 C735 1.412 . S
C723 C722 1.360 . S
C723 C724 1.365 . S
C723 H789 0.929 . S
C724 C699 1.553 . S
C724 C723 1.365 . S
C724 C725 1.404 . S
C725 C724 1.404 . S
C725 C726 1.395 . S
C725 C736 1.451 . S
C726 C725 1.395 . S
C726 C727 1.322 . S
C726 H790 0.930 . S
C727 C726 1.322 . S
C727 C728 1.459 . S
C727 H791 0.929 . S
C728 C727 1.459 . S
C728 C729 1.445 1_554 S
C728 C737 1.395 . S
C729 C707 1.432 . S
C729 C728 1.445 1_556 S
C729 C730 1.370 . S
C730 C729 1.370 . S
C730 C731 1.438 . S
C730 H792 0.930 . S
C731 C717 1.497 . S
C731 C730 1.438 . S
C731 C732 1.360 1_556 S
C732 C731 1.360 1_554 S
C732 C733 1.401 . S
C732 C737 1.446 . S
C733 C732 1.401 . S
C733 C734 1.347 . S
C733 H793 0.929 . S
C734 C733 1.347 . S
C734 C735 1.455 . S
C734 H794 0.930 . S
C735 C722 1.412 . S
C735 C734 1.455 . S
C735 C736 1.331 . S
C736 C725 1.451 . S
C736 C735 1.331 . S
C736 C737 1.497 . S
C737 C728 1.395 . S
C737 C732 1.446 . S
C737 C736 1.497 . S
C738 C739 1.582 . S
C738 H795 0.962 . S
C738 H796 0.959 . S
C738 H797 0.958 . S
C739 C738 1.582 . S
C739 O742 1.458 . S
C739 H768 0.980 . S
O740 C685 1.426 . S
O740 C686 1.334 . S
O741 C713 1.412 . S
O741 C714 1.393 . S
O742 C704 1.435 . S
O742 C739 1.458 . S
O743 C695 1.468 . S
O743 C696 1.408 . S
H744 C685 0.980 . S
H745 C684 0.959 . S
H746 C684 0.959 . S
H747 C684 0.960 . S
H748 C687 0.929 . S
H749 C691 0.929 . S
H750 C692 0.959 . S
H751 C692 0.961 . S
H752 C692 0.961 . S
H753 C693 0.960 . S
H754 C693 0.960 . S
H755 C693 0.961 . S
H756 C695 0.980 . S
H757 C694 0.961 . S
H758 C694 0.960 . S
H759 C694 0.959 . S
H760 C697 0.930 . S
H761 C701 0.931 . S
H762 C702 0.959 . S
H763 C702 0.961 . S
H764 C702 0.959 . S
H765 C703 0.960 . S
H766 C703 0.960 . S
H767 C703 0.960 . S
H768 C739 0.980 . S
H769 C705 0.930 . S
H770 C709 0.930 . S
H771 C710 0.961 . S
H772 C710 0.960 . S
H773 C710 0.958 . S
H774 C711 0.961 . S
H775 C711 0.960 . S
H776 C711 0.960 1_556 S
H777 C713 0.980 . S
H778 C712 0.961 . S
H779 C712 0.961 . S
H780 C712 0.959 . S
H781 C715 0.932 . S
H782 C719 0.929 . S
H783 C720 0.961 . S
H784 C720 0.959 . S
H785 C720 0.959 . S
H786 C721 0.960 . S
H787 C721 0.963 . S
H788 C721 0.961 1_554 S
H789 C723 0.929 . S
H790 C726 0.930 . S
H791 C727 0.929 . S
H792 C730 0.930 . S
H793 C733 0.929 . S
H794 C734 0.930 . S
H795 C738 0.962 . S
H796 C738 0.959 . S
H797 C738 0.958 . S
C798 C799 1.560 . S
C798 H859 0.959 . S
C798 H860 0.959 . S
C798 H861 0.960 . S
C799 C798 1.560 . S
C799 O854 1.426 . S
C799 H858 0.980 . S
C800 C801 1.407 . S
C800 C805 1.418 1_655 S
C800 O854 1.334 . S
C801 C800 1.407 . S
C801 C802 1.360 1_655 S
C801 H862 0.929 . S
C802 C801 1.360 1_455 S
C802 C803 1.401 . S
C802 C806 1.527 . S
C803 C802 1.401 . S
C803 C804 1.405 . S
C803 C836 1.587 . S
C804 C803 1.405 . S
C804 C805 1.332 . S
C804 C807 1.496 . S
C805 C800 1.418 1_455 S
C805 C804 1.332 . S
C805 H863 0.929 . S
C806 C802 1.527 . S
C806 H864 0.959 . S
C806 H865 0.961 . S
C806 H866 0.961 . S
C807 C804 1.496 . S
C807 H867 0.960 . S
C807 H868 0.960 . S
C807 H869 0.961 . S
C808 C809 1.517 . S
C808 H871 0.961 . S
C808 H872 0.960 . S
C808 H873 0.959 . S
C809 C808 1.517 . S
C809 O857 1.468 . S
C809 H870 0.980 . S
C810 C811 1.349 . S
C810 C815 1.367 . S
C810 O857 1.408 . S
C811 C810 1.349 . S
C811 C812 1.407 . S
C811 H874 0.930 . S
C812 C811 1.407 . S
C812 C813 1.449 . S
C812 C816 1.535 . S
C813 C812 1.449 . S
C813 C814 1.384 . S
C813 C838 1.553 . S
C814 C813 1.384 . S
C814 C815 1.364 . S
C814 C817 1.450 . S
C815 C810 1.367 . S
C815 C814 1.364 . S
C815 H875 0.931 . S
C816 C812 1.535 . S
C816 H876 0.959 . S
C816 H877 0.961 . S
C816 H878 0.959 . S
C817 C814 1.450 . S
C817 H879 0.960 . S
C817 H880 0.960 . S
C817 H881 0.960 . S
C818 C819 1.309 . S
C818 C823 1.304 . S
C818 O856 1.435 . S
C819 C818 1.309 . S
C819 C820 1.476 . S
C819 H883 0.930 . S
C820 C819 1.476 . S
C820 C821 1.400 . S
C820 C824 1.567 . S
C821 C820 1.400 . S
C821 C822 1.373 . S
C821 C843 1.432 . S
C822 C821 1.373 . S
C822 C823 1.339 . S
C822 C825 1.530 . S
C823 C818 1.304 . S
C823 C822 1.339 . S
C823 H884 0.930 . S
C824 C820 1.567 . S
C824 H885 0.961 . S
C824 H886 0.960 . S
C824 H887 0.958 . S
C825 C822 1.530 . S
C825 H888 0.961 . S
C825 H889 0.960 . S
C825 H890 0.960 . S
C826 C827 1.530 . S
C826 H892 0.961 . S
C826 H893 0.961 . S
C826 H894 0.959 . S
C827 C826 1.530 . S
C827 O855 1.412 . S
C827 H891 0.980 . S
C828 C829 1.288 1_655 S
C828 C833 1.377 1_655 S
C828 O855 1.393 . S
C829 C828 1.288 1_455 S
C829 C830 1.369 . S
C829 H895 0.932 . S
C830 C829 1.369 . S
C830 C831 1.398 . S
C830 C834 1.527 . S
C831 C830 1.398 . S
C831 C832 1.380 . S
C831 C845 1.497 . S
C832 C831 1.380 . S
C832 C833 1.383 . S
C832 C835 1.603 . S
C833 C828 1.377 1_455 S
C833 C832 1.383 . S
C833 H896 0.929 1_455 S
C834 C830 1.527 . S
C834 H897 0.961 . S
C834 H898 0.959 . S
C834 H899 0.959 . S
C835 C832 1.603 . S
C835 H900 0.960 . S
C835 H901 0.962 . S
C835 H902 0.961 . S
C836 C803 1.587 . S
C836 C837 1.360 . S
C836 C849 1.412 . S
C837 C836 1.360 . S
C837 C838 1.365 . S
C837 H903 0.929 . S
C838 C813 1.553 . S
C838 C837 1.365 . S
C838 C839 1.404 . S
C839 C838 1.404 . S
C839 C840 1.395 . S
C839 C850 1.451 . S
C840 C839 1.395 . S
C840 C841 1.322 . S
C840 H904 0.930 . S
C841 C840 1.322 . S
C841 C842 1.459 . S
C841 H905 0.929 . S
C842 C841 1.459 . S
C842 C843 1.445 . S
C842 C851 1.395 . S
C843 C821 1.432 . S
C843 C842 1.445 . S
C843 C844 1.370 . S
C844 C843 1.370 . S
C844 C845 1.438 . S
C844 H906 0.930 . S
C845 C831 1.497 . S
C845 C844 1.438 . S
C845 C846 1.360 . S
C846 C845 1.360 . S
C846 C847 1.401 . S
C846 C851 1.446 . S
C847 C846 1.401 . S
C847 C848 1.347 . S
C847 H907 0.929 . S
C848 C847 1.347 . S
C848 C849 1.455 . S
C848 H908 0.930 . S
C849 C836 1.412 . S
C849 C848 1.455 . S
C849 C850 1.331 . S
C850 C839 1.451 . S
C850 C849 1.331 . S
C850 C851 1.497 . S
C851 C842 1.395 . S
C851 C846 1.446 . S
C851 C850 1.497 . S
C852 C853 1.582 . S
C852 H909 0.962 . S
C852 H910 0.959 . S
C852 H911 0.958 . S
C853 C852 1.582 . S
C853 O856 1.458 . S
C853 H882 0.980 . S
O854 C799 1.426 . S
O854 C800 1.334 . S
O855 C827 1.412 . S
O855 C828 1.393 . S
O856 C818 1.435 . S
O856 C853 1.458 . S
O857 C809 1.468 . S
O857 C810 1.408 . S
H858 C799 0.980 . S
H859 C798 0.959 . S
H860 C798 0.959 . S
H861 C798 0.960 . S
H862 C801 0.929 . S
H863 C805 0.929 . S
H864 C806 0.959 . S
H865 C806 0.961 . S
H866 C806 0.961 . S
H867 C807 0.960 . S
H868 C807 0.960 . S
H869 C807 0.961 . S
H870 C809 0.980 . S
H871 C808 0.961 . S
H872 C808 0.960 . S
H873 C808 0.959 . S
H874 C811 0.930 . S
H875 C815 0.931 . S
H876 C816 0.959 . S
H877 C816 0.961 . S
H878 C816 0.959 . S
H879 C817 0.960 . S
H880 C817 0.960 . S
H881 C817 0.960 . S
H882 C853 0.980 . S
H883 C819 0.930 . S
H884 C823 0.930 . S
H885 C824 0.961 . S
H886 C824 0.960 . S
H887 C824 0.958 . S
H888 C825 0.961 . S
H889 C825 0.960 . S
H890 C825 0.960 . S
H891 C827 0.980 . S
H892 C826 0.961 . S
H893 C826 0.961 . S
H894 C826 0.959 . S
H895 C829 0.932 . S
H896 C833 0.929 1_655 S
H897 C834 0.961 . S
H898 C834 0.959 . S
H899 C834 0.959 . S
H900 C835 0.960 . S
H901 C835 0.962 . S
H902 C835 0.961 . S
H903 C837 0.929 . S
H904 C840 0.930 . S
H905 C841 0.929 . S
H906 C844 0.930 . S
H907 C847 0.929 . S
H908 C848 0.930 . S
H909 C852 0.962 . S
H910 C852 0.959 . S
H911 C852 0.958 . S
C912 O939 1.312 . S
C912 O940 1.208 . S
C913 O934 1.331 1_655 S
C913 O937 1.244 . S
C914 O936 1.264 1_655 S
C914 O938 1.273 . S
Mg915 O917 1.936 . S
Mg915 O924 2.081 . S
Mg915 O926 2.023 . S
Mg915 O930 2.031 . S
Mg915 O939 2.291 . S
Mg916 O917 1.963 . S
Mg916 O927 1.942 . S
Mg916 O928 1.955 . S
Mg916 O935 1.986 . S
O917 Mg915 1.936 . S
O917 Mg916 1.963 . S
O917 Mg918 1.915 . S
Mg918 O917 1.915 . S
Mg918 O919 1.915 . S
Mg918 O923 2.013 . S
Mg918 O929 2.114 . S
Mg918 O933 2.013 . S
Mg918 O939 2.114 . S
O919 Mg918 1.915 . S
O919 Mg920 1.936 . S
O919 Mg921 1.963 1_455 S
Mg920 O919 1.936 . S
Mg920 O929 2.291 . S
Mg920 O934 2.081 . S
Mg920 O936 2.023 . S
Mg920 O940 2.031 . S
Mg921 O919 1.963 1_655 S
Mg921 O925 1.986 . S
Mg921 O937 1.942 . S
Mg921 O938 1.955 . S
C922 O933 1.191 . S
C922 O935 1.307 . S
O923 Mg918 2.013 . S
O923 C942 1.191 . S
O924 Mg915 2.081 . S
O924 C932 1.331 . S
O925 Mg921 1.986 . S
O925 C942 1.307 1_655 S
O926 Mg915 2.023 . S
O926 C941 1.264 . S
O927 Mg916 1.942 . S
O927 C932 1.244 . S
O928 Mg916 1.955 . S
O928 C941 1.273 . S
O929 Mg918 2.114 . S
O929 Mg920 2.291 . S
O929 C931 1.312 . S
O930 Mg915 2.031 . S
O930 C931 1.208 . S
C931 O929 1.312 . S
C931 O930 1.208 . S
C932 O924 1.331 . S
C932 O927 1.244 . S
O933 Mg918 2.013 . S
O933 C922 1.191 . S
O934 C913 1.331 1_455 S
O934 Mg920 2.081 . S
O935 Mg916 1.986 . S
O935 C922 1.307 . S
O936 C914 1.264 1_455 S
O936 Mg920 2.023 . S
O937 C913 1.244 . S
O937 Mg921 1.942 . S
O938 C914 1.273 . S
O938 Mg921 1.955 . S
O939 C912 1.312 . S
O939 Mg915 2.291 . S
O939 Mg918 2.114 . S
O940 C912 1.208 . S
O940 Mg920 2.031 . S
C941 O926 1.264 . S
C941 O928 1.273 . S
C942 O923 1.191 . S
C942 O925 1.307 1_455 S
C943 O970 1.312 . S
C943 O971 1.208 . S
C944 O965 1.331 . S
C944 O968 1.244 . S
C945 O967 1.264 . S
C945 O969 1.273 . S
Mg946 O948 1.936 . S
Mg946 O955 2.081 . S
Mg946 O957 2.023 . S
Mg946 O961 2.031 . S
Mg946 O970 2.291 . S
Mg947 O948 1.963 . S
Mg947 O958 1.942 . S
Mg947 O959 1.955 . S
Mg947 O966 1.986 . S
O948 Mg946 1.936 . S
O948 Mg947 1.963 . S
O948 Mg949 1.915 . S
Mg949 O948 1.915 . S
Mg949 O950 1.915 . S
Mg949 O954 2.013 . S
Mg949 O960 2.114 . S
Mg949 O964 2.013 . S
Mg949 O970 2.114 . S
O950 Mg949 1.915 . S
O950 Mg951 1.936 . S
O950 Mg952 1.963 . S
Mg951 O950 1.936 . S
Mg951 O960 2.291 . S
Mg951 O965 2.081 . S
Mg951 O967 2.023 . S
Mg951 O971 2.031 . S
Mg952 O950 1.963 . S
Mg952 O956 1.986 . S
Mg952 O968 1.942 . S
Mg952 O969 1.955 . S
C953 O964 1.191 . S
C953 O966 1.307 . S
O954 Mg949 2.013 . S
O954 C973 1.191 . S
O955 Mg946 2.081 . S
O955 C963 1.331 . S
O956 Mg952 1.986 . S
O956 C973 1.307 . S
O957 Mg946 2.023 . S
O957 C972 1.264 . S
O958 Mg947 1.942 . S
O958 C963 1.244 . S
O959 Mg947 1.955 . S
O959 C972 1.273 . S
O960 Mg949 2.114 . S
O960 Mg951 2.291 . S
O960 C962 1.312 . S
O961 Mg946 2.031 . S
O961 C962 1.208 . S
C962 O960 1.312 . S
C962 O961 1.208 . S
C963 O955 1.331 . S
C963 O958 1.244 . S
O964 Mg949 2.013 . S
O964 C953 1.191 . S
O965 C944 1.331 . S
O965 Mg951 2.081 . S
O966 Mg947 1.986 . S
O966 C953 1.307 . S
O967 C945 1.264 . S
O967 Mg951 2.023 . S
O968 C944 1.244 . S
O968 Mg952 1.942 . S
O969 C945 1.273 . S
O969 Mg952 1.955 . S
O970 C943 1.312 . S
O970 Mg946 2.291 . S
O970 Mg949 2.114 . S
O971 C943 1.208 . S
O971 Mg951 2.031 . S
C972 O957 1.264 . S
C972 O959 1.273 . S
C973 O954 1.191 . S
C973 O956 1.307 . S
C974 O1001 1.312 . S
C974 O1002 1.208 . S
C975 O996 1.331 . S
C975 O999 1.244 . S
C976 O998 1.264 . S
C976 O1000 1.273 . S
Mg977 O979 1.936 . S
Mg977 O986 2.081 . S
Mg977 O988 2.023 . S
Mg977 O992 2.031 . S
Mg977 O1001 2.291 . S
Mg978 O979 1.963 . S
Mg978 O989 1.942 . S
Mg978 O990 1.955 . S
Mg978 O997 1.986 . S
O979 Mg977 1.936 . S
O979 Mg978 1.963 . S
O979 Mg980 1.915 . S
Mg980 O979 1.915 . S
Mg980 O981 1.915 . S
Mg980 O985 2.013 . S
Mg980 O991 2.114 . S
Mg980 O995 2.013 . S
Mg980 O1001 2.114 . S
O981 Mg980 1.915 . S
O981 Mg982 1.936 . S
O981 Mg983 1.963 . S
Mg982 O981 1.936 . S
Mg982 O991 2.291 . S
Mg982 O996 2.081 . S
Mg982 O998 2.023 . S
Mg982 O1002 2.031 . S
Mg983 O981 1.963 . S
Mg983 O987 1.986 . S
Mg983 O999 1.942 . S
Mg983 O1000 1.955 . S
C984 O995 1.191 . S
C984 O997 1.307 . S
O985 Mg980 2.013 . S
O985 C1004 1.191 . S
O986 Mg977 2.081 . S
O986 C994 1.331 . S
O987 Mg983 1.986 . S
O987 C1004 1.307 . S
O988 Mg977 2.023 . S
O988 C1003 1.264 . S
O989 Mg978 1.942 . S
O989 C994 1.244 . S
O990 Mg978 1.955 . S
O990 C1003 1.273 . S
O991 Mg980 2.114 . S
O991 Mg982 2.291 . S
O991 C993 1.312 . S
O992 Mg977 2.031 . S
O992 C993 1.208 . S
C993 O991 1.312 . S
C993 O992 1.208 . S
C994 O986 1.331 . S
C994 O989 1.244 . S
O995 Mg980 2.013 . S
O995 C984 1.191 . S
O996 C975 1.331 . S
O996 Mg982 2.081 . S
O997 Mg978 1.986 . S
O997 C984 1.307 . S
O998 C976 1.264 . S
O998 Mg982 2.023 . S
O999 C975 1.244 . S
O999 Mg983 1.942 . S
O1000 C976 1.273 . S
O1000 Mg983 1.955 . S
O1001 C974 1.312 . S
O1001 Mg977 2.291 . S
O1001 Mg980 2.114 . S
O1002 C974 1.208 . S
O1002 Mg982 2.031 . S
C1003 O988 1.264 . S
C1003 O990 1.273 . S
C1004 O985 1.191 . S
C1004 O987 1.307 . S
C1005 O1032 1.312 . S
C1005 O1033 1.208 . S
C1006 O1027 1.331 . S
C1006 O1030 1.244 . S
C1007 O1029 1.264 . S
C1007 O1031 1.273 . S
Mg1008 O1010 1.936 . S
Mg1008 O1017 2.081 . S
Mg1008 O1019 2.023 . S
Mg1008 O1023 2.031 . S
Mg1008 O1032 2.291 . S
Mg1009 O1010 1.963 1_655 S
Mg1009 O1020 1.942 . S
Mg1009 O1021 1.955 . S
Mg1009 O1028 1.986 . S
O1010 Mg1008 1.936 . S
O1010 Mg1009 1.963 1_455 S
O1010 Mg1011 1.915 . S
Mg1011 O1010 1.915 . S
Mg1011 O1012 1.915 . S
Mg1011 O1016 2.013 . S
Mg1011 O1022 2.114 . S
Mg1011 O1026 2.013 . S
Mg1011 O1032 2.114 . S
O1012 Mg1011 1.915 . S
O1012 Mg1013 1.936 . S
O1012 Mg1014 1.963 . S
Mg1013 O1012 1.936 . S
Mg1013 O1022 2.291 . S
Mg1013 O1027 2.081 . S
Mg1013 O1029 2.023 . S
Mg1013 O1033 2.031 . S
Mg1014 O1012 1.963 . S
Mg1014 O1018 1.986 . S
Mg1014 O1030 1.942 . S
Mg1014 O1031 1.955 . S
C1015 O1026 1.191 . S
C1015 O1028 1.307 1_455 S
O1016 Mg1011 2.013 . S
O1016 C1035 1.191 . S
O1017 Mg1008 2.081 . S
O1017 C1025 1.331 1_455 S
O1018 Mg1014 1.986 . S
O1018 C1035 1.307 . S
O1019 Mg1008 2.023 . S
O1019 C1034 1.264 1_455 S
O1020 Mg1009 1.942 . S
O1020 C1025 1.244 . S
O1021 Mg1009 1.955 . S
O1021 C1034 1.273 . S
O1022 Mg1011 2.114 . S
O1022 Mg1013 2.291 . S
O1022 C1024 1.312 . S
O1023 Mg1008 2.031 . S
O1023 C1024 1.208 . S
C1024 O1022 1.312 . S
C1024 O1023 1.208 . S
C1025 O1017 1.331 1_655 S
C1025 O1020 1.244 . S
O1026 Mg1011 2.013 . S
O1026 C1015 1.191 . S
O1027 C1006 1.331 . S
O1027 Mg1013 2.081 . S
O1028 Mg1009 1.986 . S
O1028 C1015 1.307 1_655 S
O1029 C1007 1.264 . S
O1029 Mg1013 2.023 . S
O1030 C1006 1.244 . S
O1030 Mg1014 1.942 . S
O1031 C1007 1.273 . S
O1031 Mg1014 1.955 . S
O1032 C1005 1.312 . S
O1032 Mg1008 2.291 . S
O1032 Mg1011 2.114 . S
O1033 C1005 1.208 . S
O1033 Mg1013 2.031 . S
C1034 O1019 1.264 1_655 S
C1034 O1021 1.273 . S
C1035 O1016 1.191 . S
C1035 O1018 1.307 . S
H1036 C1048 0.930 . S
H1037 C1050 0.930 . S
H1038 C1051 0.930 . S
H1039 C1055 0.959 . S
H1040 C1055 0.959 . S
H1041 C1055 0.961 . S
H1042 C1056 0.960 . S
H1043 C1056 0.961 . S
H1044 C1056 0.959 . S
H1045 C1059 0.929 . S
H1046 C1060 0.931 . S
H1047 C1062 0.930 . S
C1048 H1036 0.930 . S
C1048 C1049 1.399 . S
C1048 C1053 1.399 . S
C1049 C1048 1.399 . S
C1049 C1050 1.376 . S
C1050 H1037 0.930 . S
C1050 C1049 1.376 . S
C1050 C1051 1.388 . S
C1051 H1038 0.930 . S
C1051 C1050 1.388 . S
C1051 C1052 1.390 . S
C1052 C1051 1.390 . S
C1052 C1053 1.394 . S
C1052 C1058 1.465 . S
C1053 C1048 1.399 . S
C1053 C1052 1.394 . S
C1053 C1054 1.516 . S
C1054 C1053 1.516 . S
C1054 C1055 1.502 . S
C1054 C1056 1.561 . S
C1054 C1057 1.526 . S
C1055 H1039 0.959 . S
C1055 H1040 0.959 . S
C1055 H1041 0.961 . S
C1055 C1054 1.502 . S
C1056 H1042 0.960 . S
C1056 H1043 0.961 . S
C1056 H1044 0.959 . S
C1056 C1054 1.561 . S
C1057 C1054 1.526 . S
C1057 C1058 1.396 . S
C1057 C1062 1.390 . S
C1058 C1052 1.465 . S
C1058 C1057 1.396 . S
C1058 C1059 1.399 . S
C1059 H1045 0.929 . S
C1059 C1058 1.399 . S
C1059 C1060 1.385 . S
C1060 H1046 0.931 . S
C1060 C1059 1.385 . S
C1060 C1061 1.389 . S
C1061 C1060 1.389 . S
C1061 C1062 1.387 . S
C1062 H1047 0.930 . S
C1062 C1057 1.390 . S
C1062 C1061 1.387 . S
H1063 C1075 0.930 . S
H1064 C1077 0.930 . S
H1065 C1078 0.930 . S
H1066 C1082 0.959 . S
H1067 C1082 0.959 . S
H1068 C1082 0.961 . S
H1069 C1083 0.960 . S
H1070 C1083 0.961 . S
H1071 C1083 0.959 . S
H1072 C1086 0.928 . S
H1073 C1087 0.931 . S
H1074 C1089 0.930 . S
C1075 H1063 0.930 . S
C1075 C1076 1.399 . S
C1075 C1080 1.399 . S
C1076 C1075 1.399 . S
C1076 C1077 1.376 . S
C1077 H1064 0.930 . S
C1077 C1076 1.376 . S
C1077 C1078 1.388 . S
C1078 H1065 0.930 . S
C1078 C1077 1.388 . S
C1078 C1079 1.390 . S
C1079 C1078 1.390 . S
C1079 C1080 1.394 . S
C1079 C1085 1.465 1_565 S
C1080 C1075 1.399 . S
C1080 C1079 1.394 . S
C1080 C1081 1.516 1_565 S
C1081 C1080 1.516 1_545 S
C1081 C1082 1.502 . S
C1081 C1083 1.561 . S
C1081 C1084 1.526 . S
C1082 H1066 0.959 . S
C1082 H1067 0.959 . S
C1082 H1068 0.961 . S
C1082 C1081 1.502 . S
C1083 H1069 0.960 . S
C1083 H1070 0.961 . S
C1083 H1071 0.959 . S
C1083 C1081 1.561 . S
C1084 C1081 1.526 . S
C1084 C1085 1.396 . S
C1084 C1089 1.390 . S
C1085 C1079 1.465 1_545 S
C1085 C1084 1.396 . S
C1085 C1086 1.399 . S
C1086 H1072 0.928 . S
C1086 C1085 1.399 . S
C1086 C1087 1.385 . S
C1087 H1073 0.931 . S
C1087 C1086 1.385 . S
C1087 C1088 1.389 . S
C1088 C1087 1.389 . S
C1088 C1089 1.387 . S
C1089 H1074 0.930 . S
C1089 C1084 1.390 . S
C1089 C1088 1.387 . S
H1090 C1102 0.930 . S
H1091 C1104 0.930 . S
H1092 C1105 0.930 . S
H1093 C1109 0.959 . S
H1094 C1109 0.959 . S
H1095 C1109 0.961 . S
H1096 C1110 0.960 . S
H1097 C1110 0.961 . S
H1098 C1110 0.959 . S
H1099 C1113 0.929 . S
H1100 C1114 0.931 . S
H1101 C1116 0.930 . S
C1102 H1090 0.930 . S
C1102 C1103 1.399 . S
C1102 C1107 1.399 . S
C1103 C1102 1.399 . S
C1103 C1104 1.376 . S
C1104 H1091 0.930 . S
C1104 C1103 1.376 . S
C1104 C1105 1.388 . S
C1105 H1092 0.930 . S
C1105 C1104 1.388 . S
C1105 C1106 1.390 . S
C1106 C1105 1.390 . S
C1106 C1107 1.394 . S
C1106 C1112 1.465 . S
C1107 C1102 1.399 . S
C1107 C1106 1.394 . S
C1107 C1108 1.516 . S
C1108 C1107 1.516 . S
C1108 C1109 1.502 . S
C1108 C1110 1.561 . S
C1108 C1111 1.526 . S
C1109 H1093 0.959 . S
C1109 H1094 0.959 . S
C1109 H1095 0.961 . S
C1109 C1108 1.502 . S
C1110 H1096 0.960 . S
C1110 H1097 0.961 . S
C1110 H1098 0.959 . S
C1110 C1108 1.561 . S
C1111 C1108 1.526 . S
C1111 C1112 1.396 . S
C1111 C1116 1.390 . S
C1112 C1106 1.465 . S
C1112 C1111 1.396 . S
C1112 C1113 1.399 . S
C1113 H1099 0.929 . S
C1113 C1112 1.399 . S
C1113 C1114 1.385 . S
C1114 H1100 0.931 . S
C1114 C1113 1.385 . S
C1114 C1115 1.389 . S
C1115 C1114 1.389 . S
C1115 C1116 1.387 . S
C1116 H1101 0.930 . S
C1116 C1111 1.390 . S
C1116 C1115 1.387 . S
H1117 C1129 0.930 . S
H1118 C1131 0.930 . S
H1119 C1132 0.930 . S
H1120 C1136 0.959 . S
H1121 C1136 0.959 . S
H1122 C1136 0.961 . S
H1123 C1137 0.960 . S
H1124 C1137 0.961 . S
H1125 C1137 0.959 . S
H1126 C1140 0.929 . S
H1127 C1141 0.931 . S
H1128 C1143 0.930 . S
C1129 H1117 0.930 . S
C1129 C1130 1.399 . S
C1129 C1134 1.399 1_545 S
C1130 C1129 1.399 . S
C1130 C1131 1.376 . S
C1131 H1118 0.930 . S
C1131 C1130 1.376 . S
C1131 C1132 1.388 . S
C1132 H1119 0.930 . S
C1132 C1131 1.388 . S
C1132 C1133 1.390 . S
C1133 C1132 1.390 . S
C1133 C1134 1.394 1_545 S
C1133 C1139 1.465 1_545 S
C1134 C1129 1.399 1_565 S
C1134 C1133 1.394 1_565 S
C1134 C1135 1.516 . S
C1135 C1134 1.516 . S
C1135 C1136 1.502 . S
C1135 C1137 1.561 . S
C1135 C1138 1.526 . S
C1136 H1120 0.959 . S
C1136 H1121 0.959 . S
C1136 H1122 0.961 . S
C1136 C1135 1.502 . S
C1137 H1123 0.960 . S
C1137 H1124 0.961 . S
C1137 H1125 0.959 . S
C1137 C1135 1.561 . S
C1138 C1135 1.526 . S
C1138 C1139 1.396 . S
C1138 C1143 1.390 . S
C1139 C1133 1.465 1_565 S
C1139 C1138 1.396 . S
C1139 C1140 1.399 . S
C1140 H1126 0.929 . S
C1140 C1139 1.399 . S
C1140 C1141 1.385 . S
C1141 H1127 0.931 . S
C1141 C1140 1.385 . S
C1141 C1142 1.389 . S
C1142 C1141 1.389 . S
C1142 C1143 1.387 . S
C1143 H1128 0.930 . S
C1143 C1138 1.390 . S
C1143 C1142 1.387 . S
H1144 C1156 0.930 . S
H1145 C1158 0.930 . S
H1146 C1159 0.930 . S
H1147 C1163 0.959 . S
H1148 C1163 0.959 . S
H1149 C1163 0.961 . S
H1150 C1164 0.960 . S
H1151 C1164 0.961 . S
H1152 C1164 0.959 . S
H1153 C1167 0.929 . S
H1154 C1168 0.931 . S
H1155 C1170 0.930 . S
C1156 H1144 0.930 . S
C1156 C1157 1.399 . S
C1156 C1161 1.399 . S
C1157 C1156 1.399 . S
C1157 C1158 1.376 . S
C1158 H1145 0.930 . S
C1158 C1157 1.376 . S
C1158 C1159 1.388 . S
C1159 H1146 0.930 . S
C1159 C1158 1.388 . S
C1159 C1160 1.390 . S
C1160 C1159 1.390 . S
C1160 C1161 1.394 . S
C1160 C1166 1.465 . S
C1161 C1156 1.399 . S
C1161 C1160 1.394 . S
C1161 C1162 1.516 . S
C1162 C1161 1.516 . S
C1162 C1163 1.502 . S
C1162 C1164 1.561 . S
C1162 C1165 1.526 . S
C1163 H1147 0.959 . S
C1163 H1148 0.959 . S
C1163 H1149 0.961 . S
C1163 C1162 1.502 . S
C1164 H1150 0.960 . S
C1164 H1151 0.961 . S
C1164 H1152 0.959 . S
C1164 C1162 1.561 . S
C1165 C1162 1.526 . S
C1165 C1166 1.396 . S
C1165 C1170 1.390 . S
C1166 C1160 1.465 . S
C1166 C1165 1.396 . S
C1166 C1167 1.399 . S
C1167 H1153 0.929 . S
C1167 C1166 1.399 . S
C1167 C1168 1.385 . S
C1168 H1154 0.931 . S
C1168 C1167 1.385 . S
C1168 C1169 1.389 . S
C1169 C1168 1.389 . S
C1169 C1170 1.387 . S
C1170 H1155 0.930 . S
C1170 C1165 1.390 . S
C1170 C1169 1.387 . S
H1171 C1183 0.930 . S
H1172 C1185 0.930 . S
H1173 C1186 0.930 . S
H1174 C1190 0.959 1_545 S
H1175 C1190 0.959 . S
H1176 C1190 0.961 . S
H1177 C1191 0.960 . S
H1178 C1191 0.961 . S
H1179 C1191 0.959 . S
H1180 C1194 0.929 . S
H1181 C1195 0.931 . S
H1182 C1197 0.930 . S
C1183 H1171 0.930 . S
C1183 C1184 1.399 . S
C1183 C1188 1.399 . S
C1184 C1183 1.399 . S
C1184 C1185 1.376 . S
C1185 H1172 0.930 . S
C1185 C1184 1.376 . S
C1185 C1186 1.388 1_565 S
C1186 H1173 0.930 . S
C1186 C1185 1.388 1_545 S
C1186 C1187 1.390 . S
C1187 C1186 1.390 . S
C1187 C1188 1.394 1_545 S
C1187 C1193 1.465 . S
C1188 C1183 1.399 . S
C1188 C1187 1.394 1_565 S
C1188 C1189 1.516 1_565 S
C1189 C1188 1.516 1_545 S
C1189 C1190 1.502 1_545 S
C1189 C1191 1.561 1_545 S
C1189 C1192 1.526 . S
C1190 H1174 0.959 1_565 S
C1190 H1175 0.959 . S
C1190 H1176 0.961 . S
C1190 C1189 1.502 1_565 S
C1191 H1177 0.960 . S
C1191 H1178 0.961 . S
C1191 H1179 0.959 . S
C1191 C1189 1.561 1_565 S
C1192 C1189 1.526 . S
C1192 C1193 1.396 . S
C1192 C1197 1.390 . S
C1193 C1187 1.465 . S
C1193 C1192 1.396 . S
C1193 C1194 1.399 . S
C1194 H1180 0.929 . S
C1194 C1193 1.399 . S
C1194 C1195 1.385 . S
C1195 H1181 0.931 . S
C1195 C1194 1.385 . S
C1195 C1196 1.389 . S
C1196 C1195 1.389 . S
C1196 C1197 1.387 . S
C1197 H1182 0.930 . S
C1197 C1192 1.390 . S
C1197 C1196 1.387 . S
H1198 C1210 0.930 . S
H1199 C1212 0.930 . S
H1200 C1213 0.930 . S
H1201 C1217 0.959 . S
H1202 C1217 0.959 . S
H1203 C1217 0.961 . S
H1204 C1218 0.960 . S
H1205 C1218 0.961 . S
H1206 C1218 0.959 . S
H1207 C1221 0.929 . S
H1208 C1222 0.931 . S
H1209 C1224 0.930 . S
C1210 H1198 0.930 . S
C1210 C1211 1.399 . S
C1210 C1215 1.399 . S
C1211 C1210 1.399 . S
C1211 C1212 1.376 . S
C1212 H1199 0.930 . S
C1212 C1211 1.376 . S
C1212 C1213 1.388 . S
C1213 H1200 0.930 . S
C1213 C1212 1.388 . S
C1213 C1214 1.390 . S
C1214 C1213 1.390 . S
C1214 C1215 1.394 . S
C1214 C1220 1.465 . S
C1215 C1210 1.399 . S
C1215 C1214 1.394 . S
C1215 C1216 1.516 . S
C1216 C1215 1.516 . S
C1216 C1217 1.502 . S
C1216 C1218 1.561 . S
C1216 C1219 1.526 . S
C1217 H1201 0.959 . S
C1217 H1202 0.959 . S
C1217 H1203 0.961 . S
C1217 C1216 1.502 . S
C1218 H1204 0.960 . S
C1218 H1205 0.961 . S
C1218 H1206 0.959 . S
C1218 C1216 1.561 . S
C1219 C1216 1.526 . S
C1219 C1220 1.396 . S
C1219 C1224 1.390 . S
C1220 C1214 1.465 . S
C1220 C1219 1.396 . S
C1220 C1221 1.399 . S
C1221 H1207 0.929 . S
C1221 C1220 1.399 . S
C1221 C1222 1.385 . S
C1222 H1208 0.931 . S
C1222 C1221 1.385 . S
C1222 C1223 1.389 . S
C1223 C1222 1.389 . S
C1223 C1224 1.387 . S
C1224 H1209 0.930 . S
C1224 C1219 1.390 . S
C1224 C1223 1.387 . S
H1225 C1237 0.930 . S
H1226 C1239 0.930 . S
H1227 C1240 0.930 . S
H1228 C1244 0.959 . S
H1229 C1244 0.959 1_565 S
H1230 C1244 0.961 . S
H1231 C1245 0.960 . S
H1232 C1245 0.961 . S
H1233 C1245 0.959 . S
H1234 C1248 0.929 . S
H1235 C1249 0.931 . S
H1236 C1251 0.930 . S
C1237 H1225 0.930 . S
C1237 C1238 1.399 . S
C1237 C1242 1.399 . S
C1238 C1237 1.399 . S
C1238 C1239 1.376 . S
C1239 H1226 0.930 . S
C1239 C1238 1.376 . S
C1239 C1240 1.388 . S
C1240 H1227 0.930 . S
C1240 C1239 1.388 . S
C1240 C1241 1.390 . S
C1241 C1240 1.390 . S
C1241 C1242 1.394 . S
C1241 C1247 1.465 1_545 S
C1242 C1237 1.399 . S
C1242 C1241 1.394 . S
C1242 C1243 1.516 1_545 S
C1243 C1242 1.516 1_565 S
C1243 C1244 1.502 1_565 S
C1243 C1245 1.561 . S
C1243 C1246 1.526 . S
C1244 H1228 0.959 . S
C1244 H1229 0.959 1_545 S
C1244 H1230 0.961 . S
C1244 C1243 1.502 1_545 S
C1245 H1231 0.960 . S
C1245 H1232 0.961 . S
C1245 H1233 0.959 . S
C1245 C1243 1.561 . S
C1246 C1243 1.526 . S
C1246 C1247 1.396 . S
C1246 C1251 1.390 . S
C1247 C1241 1.465 1_565 S
C1247 C1246 1.396 . S
C1247 C1248 1.399 . S
C1248 H1234 0.929 . S
C1248 C1247 1.399 . S
C1248 C1249 1.385 . S
C1249 H1235 0.931 . S
C1249 C1248 1.385 . S
C1249 C1250 1.389 . S
C1250 C1249 1.389 . S
C1250 C1251 1.387 . S
C1251 H1236 0.930 . S
C1251 C1246 1.390 . S
C1251 C1250 1.387 . S
H1252 C1264 0.930 . S
H1253 C1266 0.930 . S
H1254 C1267 0.930 . S
H1255 C1271 0.959 . S
H1256 C1271 0.959 . S
H1257 C1271 0.961 . S
H1258 C1272 0.960 . S
H1259 C1272 0.961 . S
H1260 C1272 0.959 . S
H1261 C1275 0.929 . S
H1262 C1276 0.931 . S
H1263 C1278 0.930 . S
C1264 H1252 0.930 . S
C1264 C1265 1.399 . S
C1264 C1269 1.399 . S
C1265 C1264 1.399 . S
C1265 C1266 1.376 . S
C1266 H1253 0.930 . S
C1266 C1265 1.376 . S
C1266 C1267 1.388 . S
C1267 H1254 0.930 . S
C1267 C1266 1.388 . S
C1267 C1268 1.390 . S
C1268 C1267 1.390 . S
C1268 C1269 1.394 . S
C1268 C1274 1.465 . S
C1269 C1264 1.399 . S
C1269 C1268 1.394 . S
C1269 C1270 1.516 . S
C1270 C1269 1.516 . S
C1270 C1271 1.502 . S
C1270 C1272 1.561 . S
C1270 C1273 1.526 . S
C1271 H1255 0.959 . S
C1271 H1256 0.959 . S
C1271 H1257 0.961 . S
C1271 C1270 1.502 . S
C1272 H1258 0.960 . S
C1272 H1259 0.961 . S
C1272 H1260 0.959 . S
C1272 C1270 1.561 . S
C1273 C1270 1.526 . S
C1273 C1274 1.396 . S
C1273 C1278 1.390 . S
C1274 C1268 1.465 . S
C1274 C1273 1.396 . S
C1274 C1275 1.399 . S
C1275 H1261 0.929 . S
C1275 C1274 1.399 . S
C1275 C1276 1.385 . S
C1276 H1262 0.931 . S
C1276 C1275 1.385 . S
C1276 C1277 1.389 . S
C1277 C1276 1.389 . S
C1277 C1278 1.387 . S
C1278 H1263 0.930 . S
C1278 C1273 1.390 . S
C1278 C1277 1.387 . S
H1279 C1291 0.930 . S
H1280 C1293 0.930 . S
H1281 C1294 0.930 . S
H1282 C1298 0.959 . S
H1283 C1298 0.959 . S
H1284 C1298 0.961 . S
H1285 C1299 0.960 . S
H1286 C1299 0.961 . S
H1287 C1299 0.959 . S
H1288 C1302 0.929 . S
H1289 C1303 0.931 . S
H1290 C1305 0.930 . S
C1291 H1279 0.930 . S
C1291 C1292 1.399 . S
C1291 C1296 1.399 . S
C1292 C1291 1.399 . S
C1292 C1293 1.376 . S
C1293 H1280 0.930 . S
C1293 C1292 1.376 . S
C1293 C1294 1.388 . S
C1294 H1281 0.930 . S
C1294 C1293 1.388 . S
C1294 C1295 1.390 . S
C1295 C1294 1.390 . S
C1295 C1296 1.394 . S
C1295 C1301 1.465 . S
C1296 C1291 1.399 . S
C1296 C1295 1.394 . S
C1296 C1297 1.516 . S
C1297 C1296 1.516 . S
C1297 C1298 1.502 . S
C1297 C1299 1.561 . S
C1297 C1300 1.526 . S
C1298 H1282 0.959 . S
C1298 H1283 0.959 . S
C1298 H1284 0.961 . S
C1298 C1297 1.502 . S
C1299 H1285 0.960 . S
C1299 H1286 0.961 . S
C1299 H1287 0.959 . S
C1299 C1297 1.561 . S
C1300 C1297 1.526 . S
C1300 C1301 1.396 . S
C1300 C1305 1.390 . S
C1301 C1295 1.465 . S
C1301 C1300 1.396 . S
C1301 C1302 1.399 . S
C1302 H1288 0.929 . S
C1302 C1301 1.399 . S
C1302 C1303 1.385 . S
C1303 H1289 0.931 . S
C1303 C1302 1.385 . S
C1303 C1304 1.389 . S
C1304 C1303 1.389 . S
C1304 C1305 1.387 . S
C1305 H1290 0.930 . S
C1305 C1300 1.390 . S
C1305 C1304 1.387 . S
H1306 C1318 0.930 . S
H1307 C1320 0.930 . S
H1308 C1321 0.930 . S
H1309 C1325 0.959 1_455 S
H1310 C1325 0.959 1_455 S
H1311 C1325 0.961 . S
H1312 C1326 0.960 . S
H1313 C1326 0.961 . S
H1314 C1326 0.959 . S
H1315 C1329 0.929 . S
H1316 C1330 0.931 . S
H1317 C1332 0.930 . S
C1318 H1306 0.930 . S
C1318 C1319 1.399 . S
C1318 C1323 1.399 . S
C1319 C1318 1.399 . S
C1319 C1320 1.376 . S
C1320 H1307 0.930 . S
C1320 C1319 1.376 . S
C1320 C1321 1.388 . S
C1321 H1308 0.930 . S
C1321 C1320 1.388 . S
C1321 C1322 1.390 . S
C1322 C1321 1.390 . S
C1322 C1323 1.394 . S
C1322 C1328 1.465 . S
C1323 C1318 1.399 . S
C1323 C1322 1.394 . S
C1323 C1324 1.516 . S
C1324 C1323 1.516 . S
C1324 C1325 1.502 . S
C1324 C1326 1.561 . S
C1324 C1327 1.526 . S
C1325 H1309 0.959 1_655 S
C1325 H1310 0.959 1_655 S
C1325 H1311 0.961 . S
C1325 C1324 1.502 . S
C1326 H1312 0.960 . S
C1326 H1313 0.961 . S
C1326 H1314 0.959 . S
C1326 C1324 1.561 . S
C1327 C1324 1.526 . S
C1327 C1328 1.396 . S
C1327 C1332 1.390 1_655 S
C1328 C1322 1.465 . S
C1328 C1327 1.396 . S
C1328 C1329 1.399 . S
C1329 H1315 0.929 . S
C1329 C1328 1.399 . S
C1329 C1330 1.385 . S
C1330 H1316 0.931 . S
C1330 C1329 1.385 . S
C1330 C1331 1.389 1_655 S
C1331 C1330 1.389 1_455 S
C1331 C1332 1.387 . S
C1332 H1317 0.930 . S
C1332 C1327 1.390 1_455 S
C1332 C1331 1.387 . S
H1333 C1345 0.930 . S
H1334 C1347 0.930 . S
H1335 C1348 0.930 . S
H1336 C1352 0.959 . S
H1337 C1352 0.959 . S
H1338 C1352 0.961 . S
H1339 C1353 0.960 . S
H1340 C1353 0.961 . S
H1341 C1353 0.959 1_455 S
H1342 C1356 0.929 . S
H1343 C1357 0.931 . S
H1344 C1359 0.930 . S
C1345 H1333 0.930 . S
C1345 C1346 1.399 . S
C1345 C1350 1.399 . S
C1346 C1345 1.399 . S
C1346 C1347 1.376 . S
C1347 H1334 0.930 . S
C1347 C1346 1.376 . S
C1347 C1348 1.388 . S
C1348 H1335 0.930 . S
C1348 C1347 1.388 . S
C1348 C1349 1.390 . S
C1349 C1348 1.390 . S
C1349 C1350 1.394 . S
C1349 C1355 1.465 . S
C1350 C1345 1.399 . S
C1350 C1349 1.394 . S
C1350 C1351 1.516 . S
C1351 C1350 1.516 . S
C1351 C1352 1.502 . S
C1351 C1353 1.561 . S
C1351 C1354 1.526 . S
C1352 H1336 0.959 . S
C1352 H1337 0.959 . S
C1352 H1338 0.961 . S
C1352 C1351 1.502 . S
C1353 H1339 0.960 . S
C1353 H1340 0.961 . S
C1353 H1341 0.959 1_655 S
C1353 C1351 1.561 . S
C1354 C1351 1.526 . S
C1354 C1355 1.396 . S
C1354 C1359 1.390 . S
C1355 C1349 1.465 . S
C1355 C1354 1.396 . S
C1355 C1356 1.399 . S
C1356 H1342 0.929 . S
C1356 C1355 1.399 . S
C1356 C1357 1.385 1_655 S
C1357 H1343 0.931 . S
C1357 C1356 1.385 1_455 S
C1357 C1358 1.389 . S
C1358 C1357 1.389 . S
C1358 C1359 1.387 1_455 S
C1359 H1344 0.930 . S
C1359 C1354 1.390 . S
C1359 C1358 1.387 1_655 S
H1360 C1372 0.930 . S
H1361 C1374 0.930 . S
H1362 C1375 0.930 . S
H1363 C1379 0.959 . S
H1364 C1379 0.959 . S
H1365 C1379 0.961 . S
H1366 C1380 0.960 . S
H1367 C1380 0.961 . S
H1368 C1380 0.959 . S
H1369 C1383 0.929 . S
H1370 C1384 0.931 . S
H1371 C1386 0.930 . S
C1372 H1360 0.930 . S
C1372 C1373 1.399 . S
C1372 C1377 1.399 . S
C1373 C1372 1.399 . S
C1373 C1374 1.376 . S
C1374 H1361 0.930 . S
C1374 C1373 1.376 . S
C1374 C1375 1.388 . S
C1375 H1362 0.930 . S
C1375 C1374 1.388 . S
C1375 C1376 1.390 . S
C1376 C1375 1.390 . S
C1376 C1377 1.394 . S
C1376 C1382 1.465 . S
C1377 C1372 1.399 . S
C1377 C1376 1.394 . S
C1377 C1378 1.516 . S
C1378 C1377 1.516 . S
C1378 C1379 1.502 . S
C1378 C1380 1.561 . S
C1378 C1381 1.526 . S
C1379 H1363 0.959 . S
C1379 H1364 0.959 . S
C1379 H1365 0.961 . S
C1379 C1378 1.502 . S
C1380 H1366 0.960 . S
C1380 H1367 0.961 . S
C1380 H1368 0.959 . S
C1380 C1378 1.561 . S
C1381 C1378 1.526 . S
C1381 C1382 1.396 . S
C1381 C1386 1.390 . S
C1382 C1376 1.465 . S
C1382 C1381 1.396 . S
C1382 C1383 1.399 . S
C1383 H1369 0.929 . S
C1383 C1382 1.399 . S
C1383 C1384 1.385 . S
C1384 H1370 0.931 . S
C1384 C1383 1.385 . S
C1384 C1385 1.389 . S
C1385 C1384 1.389 . S
C1385 C1386 1.387 . S
C1386 H1371 0.930 . S
C1386 C1381 1.390 . S
C1386 C1385 1.387 . S
H1387 C1399 0.930 . S
H1388 C1401 0.930 . S
H1389 C1402 0.930 . S
H1390 C1406 0.959 . S
H1391 C1406 0.959 . S
H1392 C1406 0.961 . S
H1393 C1407 0.960 . S
H1394 C1407 0.961 . S
H1395 C1407 0.959 . S
H1396 C1410 0.929 . S
H1397 C1411 0.931 . S
H1398 C1413 0.930 . S
C1399 H1387 0.930 . S
C1399 C1400 1.399 . S
C1399 C1404 1.399 . S
C1400 C1399 1.399 . S
C1400 C1401 1.376 . S
C1401 H1388 0.930 . S
C1401 C1400 1.376 . S
C1401 C1402 1.388 . S
C1402 H1389 0.930 . S
C1402 C1401 1.388 . S
C1402 C1403 1.390 . S
C1403 C1402 1.390 . S
C1403 C1404 1.394 . S
C1403 C1409 1.465 . S
C1404 C1399 1.399 . S
C1404 C1403 1.394 . S
C1404 C1405 1.516 . S
C1405 C1404 1.516 . S
C1405 C1406 1.502 . S
C1405 C1407 1.561 . S
C1405 C1408 1.526 . S
C1406 H1390 0.959 . S
C1406 H1391 0.959 . S
C1406 H1392 0.961 . S
C1406 C1405 1.502 . S
C1407 H1393 0.960 . S
C1407 H1394 0.961 . S
C1407 H1395 0.959 . S
C1407 C1405 1.561 . S
C1408 C1405 1.526 . S
C1408 C1409 1.396 . S
C1408 C1413 1.390 . S
C1409 C1403 1.465 . S
C1409 C1408 1.396 . S
C1409 C1410 1.399 1_655 S
C1410 H1396 0.929 . S
C1410 C1409 1.399 1_455 S
C1410 C1411 1.385 . S
C1411 H1397 0.931 . S
C1411 C1410 1.385 . S
C1411 C1412 1.389 . S
C1412 C1411 1.389 . S
C1412 C1413 1.387 1_455 S
C1413 H1398 0.930 . S
C1413 C1408 1.390 . S
C1413 C1412 1.387 1_655 S
H1414 C1426 0.930 . S
H1415 C1428 0.930 . S
H1416 C1429 0.930 . S
H1417 C1433 0.959 . S
H1418 C1433 0.959 1_455 S
H1419 C1433 0.961 . S
H1420 C1434 0.960 . S
H1421 C1434 0.961 . S
H1422 C1434 0.959 . S
H1423 C1437 0.929 . S
H1424 C1438 0.931 . S
H1425 C1440 0.930 1_455 S
C1426 H1414 0.930 . S
C1426 C1427 1.399 . S
C1426 C1431 1.399 . S
C1427 C1426 1.399 . S
C1427 C1428 1.376 . S
C1428 H1415 0.930 . S
C1428 C1427 1.376 . S
C1428 C1429 1.388 . S
C1429 H1416 0.930 . S
C1429 C1428 1.388 . S
C1429 C1430 1.390 . S
C1430 C1429 1.390 . S
C1430 C1431 1.394 . S
C1430 C1436 1.465 . S
C1431 C1426 1.399 . S
C1431 C1430 1.394 . S
C1431 C1432 1.516 . S
C1432 C1431 1.516 . S
C1432 C1433 1.502 . S
C1432 C1434 1.561 . S
C1432 C1435 1.526 . S
C1433 H1417 0.959 . S
C1433 H1418 0.959 1_655 S
C1433 H1419 0.961 . S
C1433 C1432 1.502 . S
C1434 H1420 0.960 . S
C1434 H1421 0.961 . S
C1434 H1422 0.959 . S
C1434 C1432 1.561 . S
C1435 C1432 1.526 . S
C1435 C1436 1.396 . S
C1435 C1440 1.390 . S
C1436 C1430 1.465 . S
C1436 C1435 1.396 . S
C1436 C1437 1.399 . S
C1437 H1423 0.929 . S
C1437 C1436 1.399 . S
C1437 C1438 1.385 . S
C1438 H1424 0.931 . S
C1438 C1437 1.385 . S
C1438 C1439 1.389 1_655 S
C1439 C1438 1.389 1_455 S
C1439 C1440 1.387 1_455 S
C1440 H1425 0.930 1_655 S
C1440 C1435 1.390 . S
C1440 C1439 1.387 1_655 S
H1441 C1453 0.930 . S
H1442 C1455 0.930 . S
H1443 C1456 0.930 . S
H1444 C1460 0.959 . S
H1445 C1460 0.959 . S
H1446 C1460 0.961 . S
H1447 C1461 0.960 . S
H1448 C1461 0.961 . S
H1449 C1461 0.959 . S
H1450 C1464 0.929 . S
H1451 C1465 0.931 . S
H1452 C1467 0.930 . S
C1453 H1441 0.930 . S
C1453 C1454 1.399 . S
C1453 C1458 1.399 . S
C1454 C1453 1.399 . S
C1454 C1455 1.376 . S
C1455 H1442 0.930 . S
C1455 C1454 1.376 . S
C1455 C1456 1.388 . S
C1456 H1443 0.930 . S
C1456 C1455 1.388 . S
C1456 C1457 1.390 . S
C1457 C1456 1.390 . S
C1457 C1458 1.394 . S
C1457 C1463 1.465 . S
C1458 C1453 1.399 . S
C1458 C1457 1.394 . S
C1458 C1459 1.516 . S
C1459 C1458 1.516 . S
C1459 C1460 1.502 . S
C1459 C1461 1.561 . S
C1459 C1462 1.526 . S
C1460 H1444 0.959 . S
C1460 H1445 0.959 . S
C1460 H1446 0.961 . S
C1460 C1459 1.502 . S
C1461 H1447 0.960 . S
C1461 H1448 0.961 . S
C1461 H1449 0.959 . S
C1461 C1459 1.561 . S
C1462 C1459 1.526 . S
C1462 C1463 1.396 . S
C1462 C1467 1.390 . S
C1463 C1457 1.465 . S
C1463 C1462 1.396 . S
C1463 C1464 1.399 . S
C1464 H1450 0.929 . S
C1464 C1463 1.399 . S
C1464 C1465 1.385 . S
C1465 H1451 0.931 . S
C1465 C1464 1.385 . S
C1465 C1466 1.389 . S
C1466 C1465 1.389 . S
C1466 C1467 1.387 . S
C1467 H1452 0.930 . S
C1467 C1462 1.390 . S
C1467 C1466 1.387 . S
H1468 C1480 0.930 . S
H1469 C1482 0.930 . S
H1470 C1483 0.930 . S
H1471 C1487 0.959 . S
H1472 C1487 0.959 . S
H1473 C1487 0.961 . S
H1474 C1488 0.960 . S
H1475 C1488 0.961 . S
H1476 C1488 0.959 . S
H1477 C1491 0.929 . S
H1478 C1492 0.931 . S
H1479 C1494 0.930 . S
C1480 H1468 0.930 . S
C1480 C1481 1.399 . S
C1480 C1485 1.399 . S
C1481 C1480 1.399 . S
C1481 C1482 1.376 . S
C1482 H1469 0.930 . S
C1482 C1481 1.376 . S
C1482 C1483 1.388 . S
C1483 H1470 0.930 . S
C1483 C1482 1.388 . S
C1483 C1484 1.390 . S
C1484 C1483 1.390 . S
C1484 C1485 1.394 . S
C1484 C1490 1.465 . S
C1485 C1480 1.399 . S
C1485 C1484 1.394 . S
C1485 C1486 1.516 . S
C1486 C1485 1.516 . S
C1486 C1487 1.502 . S
C1486 C1488 1.561 . S
C1486 C1489 1.526 . S
C1487 H1471 0.959 . S
C1487 H1472 0.959 . S
C1487 H1473 0.961 . S
C1487 C1486 1.502 . S
C1488 H1474 0.960 . S
C1488 H1475 0.961 . S
C1488 H1476 0.959 . S
C1488 C1486 1.561 . S
C1489 C1486 1.526 . S
C1489 C1490 1.396 . S
C1489 C1494 1.390 . S
C1490 C1484 1.465 . S
C1490 C1489 1.396 . S
C1490 C1491 1.399 . S
C1491 H1477 0.929 . S
C1491 C1490 1.399 . S
C1491 C1492 1.385 . S
C1492 H1478 0.931 . S
C1492 C1491 1.385 . S
C1492 C1493 1.389 . S
C1493 C1492 1.389 . S
C1493 C1494 1.387 . S
C1494 H1479 0.930 . S
C1494 C1489 1.390 . S
C1494 C1493 1.387 . S
H1495 C1507 0.930 . S
H1496 C1509 0.930 . S
H1497 C1510 0.930 . S
H1498 C1514 0.959 1_455 S
H1499 C1514 0.959 . S
H1500 C1514 0.961 . S
H1501 C1515 0.960 . S
H1502 C1515 0.961 . S
H1503 C1515 0.959 . S
H1504 C1518 0.929 . S
H1505 C1519 0.931 . S
H1506 C1521 0.930 . S
C1507 H1495 0.930 . S
C1507 C1508 1.399 . S
C1507 C1512 1.399 . S
C1508 C1507 1.399 . S
C1508 C1509 1.376 . S
C1509 H1496 0.930 . S
C1509 C1508 1.376 . S
C1509 C1510 1.388 . S
C1510 H1497 0.930 . S
C1510 C1509 1.388 . S
C1510 C1511 1.390 . S
C1511 C1510 1.390 . S
C1511 C1512 1.394 . S
C1511 C1517 1.465 . S
C1512 C1507 1.399 . S
C1512 C1511 1.394 . S
C1512 C1513 1.516 . S
C1513 C1512 1.516 . S
C1513 C1514 1.502 . S
C1513 C1515 1.561 . S
C1513 C1516 1.526 . S
C1514 H1498 0.959 1_655 S
C1514 H1499 0.959 . S
C1514 H1500 0.961 . S
C1514 C1513 1.502 . S
C1515 H1501 0.960 . S
C1515 H1502 0.961 . S
C1515 H1503 0.959 . S
C1515 C1513 1.561 . S
C1516 C1513 1.526 . S
C1516 C1517 1.396 . S
C1516 C1521 1.390 . S
C1517 C1511 1.465 . S
C1517 C1516 1.396 . S
C1517 C1518 1.399 . S
C1518 H1504 0.929 . S
C1518 C1517 1.399 . S
C1518 C1519 1.385 . S
C1519 H1505 0.931 . S
C1519 C1518 1.385 . S
C1519 C1520 1.389 . S
C1520 C1519 1.389 . S
C1520 C1521 1.387 . S
C1521 H1506 0.930 . S
C1521 C1516 1.390 . S
C1521 C1520 1.387 . S
H1522 C1534 0.930 . S
H1523 C1536 0.930 . S
H1524 C1537 0.930 . S
H1525 C1541 0.959 . S
H1526 C1541 0.959 . S
H1527 C1541 0.961 . S
H1528 C1542 0.960 . S
H1529 C1542 0.961 . S
H1530 C1542 0.959 . S
H1531 C1545 0.929 . S
H1532 C1546 0.931 . S
H1533 C1548 0.930 . S
C1534 H1522 0.930 . S
C1534 C1535 1.399 . S
C1534 C1539 1.399 . S
C1535 C1534 1.399 . S
C1535 C1536 1.376 . S
C1536 H1523 0.930 . S
C1536 C1535 1.376 . S
C1536 C1537 1.388 . S
C1537 H1524 0.930 . S
C1537 C1536 1.388 . S
C1537 C1538 1.390 . S
C1538 C1537 1.390 . S
C1538 C1539 1.394 . S
C1538 C1544 1.465 . S
C1539 C1534 1.399 . S
C1539 C1538 1.394 . S
C1539 C1540 1.516 . S
C1540 C1539 1.516 . S
C1540 C1541 1.502 . S
C1540 C1542 1.561 . S
C1540 C1543 1.526 . S
C1541 H1525 0.959 . S
C1541 H1526 0.959 . S
C1541 H1527 0.961 . S
C1541 C1540 1.502 . S
C1542 H1528 0.960 . S
C1542 H1529 0.961 . S
C1542 H1530 0.959 . S
C1542 C1540 1.561 . S
C1543 C1540 1.526 . S
C1543 C1544 1.396 . S
C1543 C1548 1.390 . S
C1544 C1538 1.465 . S
C1544 C1543 1.396 . S
C1544 C1545 1.399 . S
C1545 H1531 0.929 . S
C1545 C1544 1.399 . S
C1545 C1546 1.385 . S
C1546 H1532 0.931 . S
C1546 C1545 1.385 . S
C1546 C1547 1.389 . S
C1547 C1546 1.389 . S
C1547 C1548 1.387 . S
C1548 H1533 0.930 . S
C1548 C1543 1.390 . S
C1548 C1547 1.387 . S
H1549 C1561 0.930 . S
H1550 C1563 0.930 . S
H1551 C1564 0.930 . S
H1552 C1568 0.959 . S
H1553 C1568 0.959 . S
H1554 C1568 0.961 . S
H1555 C1569 0.960 . S
H1556 C1569 0.961 . S
H1557 C1569 0.959 . S
H1558 C1572 0.929 . S
H1559 C1573 0.931 . S
H1560 C1575 0.930 . S
C1561 H1549 0.930 . S
C1561 C1562 1.399 . S
C1561 C1566 1.399 . S
C1562 C1561 1.399 . S
C1562 C1563 1.376 . S
C1563 H1550 0.930 . S
C1563 C1562 1.376 . S
C1563 C1564 1.388 . S
C1564 H1551 0.930 . S
C1564 C1563 1.388 . S
C1564 C1565 1.390 . S
C1565 C1564 1.390 . S
C1565 C1566 1.394 . S
C1565 C1571 1.465 . S
C1566 C1561 1.399 . S
C1566 C1565 1.394 . S
C1566 C1567 1.516 . S
C1567 C1566 1.516 . S
C1567 C1568 1.502 . S
C1567 C1569 1.561 . S
C1567 C1570 1.526 . S
C1568 H1552 0.959 . S
C1568 H1553 0.959 . S
C1568 H1554 0.961 . S
C1568 C1567 1.502 . S
C1569 H1555 0.960 . S
C1569 H1556 0.961 . S
C1569 H1557 0.959 . S
C1569 C1567 1.561 . S
C1570 C1567 1.526 . S
C1570 C1571 1.396 . S
C1570 C1575 1.390 . S
C1571 C1565 1.465 . S
C1571 C1570 1.396 . S
C1571 C1572 1.399 . S
C1572 H1558 0.929 . S
C1572 C1571 1.399 . S
C1572 C1573 1.385 . S
C1573 H1559 0.931 . S
C1573 C1572 1.385 . S
C1573 C1574 1.389 . S
C1574 C1573 1.389 . S
C1574 C1575 1.387 . S
C1575 H1560 0.930 . S
C1575 C1570 1.390 . S
C1575 C1574 1.387 . S
H1576 C1588 0.930 . S
H1577 C1590 0.930 . S
H1578 C1591 0.930 . S
H1579 C1595 0.959 . S
H1580 C1595 0.959 . S
H1581 C1595 0.961 . S
H1582 C1596 0.960 . S
H1583 C1596 0.961 . S
H1584 C1596 0.959 . S
H1585 C1599 0.929 . S
H1586 C1600 0.931 . S
H1587 C1602 0.930 . S
C1588 H1576 0.930 . S
C1588 C1589 1.399 . S
C1588 C1593 1.399 . S
C1589 C1588 1.399 . S
C1589 C1590 1.376 . S
C1590 H1577 0.930 . S
C1590 C1589 1.376 . S
C1590 C1591 1.388 . S
C1591 H1578 0.930 . S
C1591 C1590 1.388 . S
C1591 C1592 1.390 . S
C1592 C1591 1.390 . S
C1592 C1593 1.394 . S
C1592 C1598 1.465 . S
C1593 C1588 1.399 . S
C1593 C1592 1.394 . S
C1593 C1594 1.516 . S
C1594 C1593 1.516 . S
C1594 C1595 1.502 . S
C1594 C1596 1.561 . S
C1594 C1597 1.526 . S
C1595 H1579 0.959 . S
C1595 H1580 0.959 . S
C1595 H1581 0.961 . S
C1595 C1594 1.502 . S
C1596 H1582 0.960 . S
C1596 H1583 0.961 . S
C1596 H1584 0.959 . S
C1596 C1594 1.561 . S
C1597 C1594 1.526 . S
C1597 C1598 1.396 . S
C1597 C1602 1.390 . S
C1598 C1592 1.465 . S
C1598 C1597 1.396 . S
C1598 C1599 1.399 . S
C1599 H1585 0.929 . S
C1599 C1598 1.399 . S
C1599 C1600 1.385 . S
C1600 H1586 0.931 . S
C1600 C1599 1.385 . S
C1600 C1601 1.389 . S
C1601 C1600 1.389 . S
C1601 C1602 1.387 . S
C1602 H1587 0.930 . S
C1602 C1597 1.390 . S
C1602 C1601 1.387 . S
H1603 C1615 0.930 . S
H1604 C1617 0.930 . S
H1605 C1618 0.930 . S
H1606 C1622 0.959 . S
H1607 C1622 0.959 . S
H1608 C1622 0.961 . S
H1609 C1623 0.960 . S
H1610 C1623 0.961 . S
H1611 C1623 0.959 . S
H1612 C1626 0.929 . S
H1613 C1627 0.931 . S
H1614 C1629 0.930 . S
C1615 H1603 0.930 . S
C1615 C1616 1.399 . S
C1615 C1620 1.399 . S
C1616 C1615 1.399 . S
C1616 C1617 1.376 . S
C1617 H1604 0.930 . S
C1617 C1616 1.376 . S
C1617 C1618 1.388 . S
C1618 H1605 0.930 . S
C1618 C1617 1.388 . S
C1618 C1619 1.390 . S
C1619 C1618 1.390 . S
C1619 C1620 1.394 . S
C1619 C1625 1.465 . S
C1620 C1615 1.399 . S
C1620 C1619 1.394 . S
C1620 C1621 1.516 . S
C1621 C1620 1.516 . S
C1621 C1622 1.502 . S
C1621 C1623 1.561 . S
C1621 C1624 1.526 . S
C1622 H1606 0.959 . S
C1622 H1607 0.959 . S
C1622 H1608 0.961 . S
C1622 C1621 1.502 . S
C1623 H1609 0.960 . S
C1623 H1610 0.961 . S
C1623 H1611 0.959 . S
C1623 C1621 1.561 . S
C1624 C1621 1.526 . S
C1624 C1625 1.396 . S
C1624 C1629 1.390 . S
C1625 C1619 1.465 . S
C1625 C1624 1.396 . S
C1625 C1626 1.399 . S
C1626 H1612 0.929 . S
C1626 C1625 1.399 . S
C1626 C1627 1.385 . S
C1627 H1613 0.931 . S
C1627 C1626 1.385 . S
C1627 C1628 1.389 . S
C1628 C1627 1.389 . S
C1628 C1629 1.387 . S
C1629 H1614 0.930 . S
C1629 C1624 1.390 . S
C1629 C1628 1.387 . S
H1630 C1642 0.930 . S
H1631 C1644 0.930 . S
H1632 C1645 0.930 . S
H1633 C1649 0.959 . S
H1634 C1649 0.959 . S
H1635 C1649 0.961 . S
H1636 C1650 0.960 . S
H1637 C1650 0.961 . S
H1638 C1650 0.959 . S
H1639 C1653 0.929 . S
H1640 C1654 0.931 . S
H1641 C1656 0.930 . S
C1642 H1630 0.930 . S
C1642 C1643 1.399 . S
C1642 C1647 1.399 . S
C1643 C1642 1.399 . S
C1643 C1644 1.376 . S
C1644 H1631 0.930 . S
C1644 C1643 1.376 . S
C1644 C1645 1.388 . S
C1645 H1632 0.930 . S
C1645 C1644 1.388 . S
C1645 C1646 1.390 . S
C1646 C1645 1.390 . S
C1646 C1647 1.394 . S
C1646 C1652 1.465 . S
C1647 C1642 1.399 . S
C1647 C1646 1.394 . S
C1647 C1648 1.516 . S
C1648 C1647 1.516 . S
C1648 C1649 1.502 . S
C1648 C1650 1.561 . S
C1648 C1651 1.526 . S
C1649 H1633 0.959 . S
C1649 H1634 0.959 . S
C1649 H1635 0.961 . S
C1649 C1648 1.502 . S
C1650 H1636 0.960 . S
C1650 H1637 0.961 . S
C1650 H1638 0.959 . S
C1650 C1648 1.561 . S
C1651 C1648 1.526 . S
C1651 C1652 1.396 . S
C1651 C1656 1.390 . S
C1652 C1646 1.465 . S
C1652 C1651 1.396 . S
C1652 C1653 1.399 . S
C1653 H1639 0.929 . S
C1653 C1652 1.399 . S
C1653 C1654 1.385 . S
C1654 H1640 0.931 . S
C1654 C1653 1.385 . S
C1654 C1655 1.389 . S
C1655 C1654 1.389 . S
C1655 C1656 1.387 . S
C1656 H1641 0.930 . S
C1656 C1651 1.390 . S
C1656 C1655 1.387 . S
H1657 C1669 0.930 . S
H1658 C1671 0.928 1_455 S
H1659 C1672 0.930 1_455 S
H1660 C1676 0.959 . S
H1661 C1676 0.959 . S
H1662 C1676 0.961 . S
H1663 C1677 0.960 . S
H1664 C1677 0.961 . S
H1665 C1677 0.959 . S
H1666 C1680 0.929 . S
H1667 C1681 0.931 . S
H1668 C1683 0.930 . S
C1669 H1657 0.930 . S
C1669 C1670 1.399 . S
C1669 C1674 1.399 . S
C1670 C1669 1.399 . S
C1670 C1671 1.376 . S
C1671 H1658 0.928 1_655 S
C1671 C1670 1.376 . S
C1671 C1672 1.388 . S
C1672 H1659 0.930 1_655 S
C1672 C1671 1.388 . S
C1672 C1673 1.390 . S
C1673 C1672 1.390 . S
C1673 C1674 1.394 . S
C1673 C1679 1.465 . S
C1674 C1669 1.399 . S
C1674 C1673 1.394 . S
C1674 C1675 1.516 . S
C1675 C1674 1.516 . S
C1675 C1676 1.502 . S
C1675 C1677 1.561 . S
C1675 C1678 1.526 . S
C1676 H1660 0.959 . S
C1676 H1661 0.959 . S
C1676 H1662 0.961 . S
C1676 C1675 1.502 . S
C1677 H1663 0.960 . S
C1677 H1664 0.961 . S
C1677 H1665 0.959 . S
C1677 C1675 1.561 . S
C1678 C1675 1.526 . S
C1678 C1679 1.396 . S
C1678 C1683 1.390 . S
C1679 C1673 1.465 . S
C1679 C1678 1.396 . S
C1679 C1680 1.399 1_655 S
C1680 H1666 0.929 . S
C1680 C1679 1.399 1_455 S
C1680 C1681 1.385 . S
C1681 H1667 0.931 . S
C1681 C1680 1.385 . S
C1681 C1682 1.389 1_455 S
C1682 C1681 1.389 1_655 S
C1682 C1683 1.387 . S
C1683 H1668 0.930 . S
C1683 C1678 1.390 . S
C1683 C1682 1.387 . S
H1684 C1696 0.930 . S
H1685 C1698 0.930 . S
H1686 C1699 0.930 . S
H1687 C1703 0.959 . S
H1688 C1703 0.959 . S
H1689 C1703 0.961 . S
H1690 C1704 0.960 . S
H1691 C1704 0.961 . S
H1692 C1704 0.959 . S
H1693 C1707 0.929 . S
H1694 C1708 0.931 . S
H1695 C1710 0.930 . S
C1696 H1684 0.930 . S
C1696 C1697 1.399 . S
C1696 C1701 1.399 . S
C1697 C1696 1.399 . S
C1697 C1698 1.376 . S
C1698 H1685 0.930 . S
C1698 C1697 1.376 . S
C1698 C1699 1.388 . S
C1699 H1686 0.930 . S
C1699 C1698 1.388 . S
C1699 C1700 1.390 . S
C1700 C1699 1.390 . S
C1700 C1701 1.394 . S
C1700 C1706 1.465 . S
C1701 C1696 1.399 . S
C1701 C1700 1.394 . S
C1701 C1702 1.516 . S
C1702 C1701 1.516 . S
C1702 C1703 1.502 . S
C1702 C1704 1.561 . S
C1702 C1705 1.526 . S
C1703 H1687 0.959 . S
C1703 H1688 0.959 . S
C1703 H1689 0.961 . S
C1703 C1702 1.502 . S
C1704 H1690 0.960 . S
C1704 H1691 0.961 . S
C1704 H1692 0.959 . S
C1704 C1702 1.561 . S
C1705 C1702 1.526 . S
C1705 C1706 1.396 . S
C1705 C1710 1.390 . S
C1706 C1700 1.465 . S
C1706 C1705 1.396 . S
C1706 C1707 1.399 . S
C1707 H1693 0.929 . S
C1707 C1706 1.399 . S
C1707 C1708 1.385 . S
C1708 H1694 0.931 . S
C1708 C1707 1.385 . S
C1708 C1709 1.389 . S
C1709 C1708 1.389 . S
C1709 C1710 1.387 . S
C1710 H1695 0.930 . S
C1710 C1705 1.390 . S
C1710 C1709 1.387 . S
H1711 C1723 0.930 . S
H1712 C1725 0.930 . S
H1713 C1726 0.930 . S
H1714 C1730 0.959 . S
H1715 C1730 0.959 . S
H1716 C1730 0.961 . S
H1717 C1731 0.960 . S
H1718 C1731 0.961 . S
H1719 C1731 0.959 . S
H1720 C1734 0.929 . S
H1721 C1735 0.931 . S
H1722 C1737 0.930 . S
C1723 H1711 0.930 . S
C1723 C1724 1.399 . S
C1723 C1728 1.399 . S
C1724 C1723 1.399 . S
C1724 C1725 1.376 . S
C1725 H1712 0.930 . S
C1725 C1724 1.376 . S
C1725 C1726 1.388 . S
C1726 H1713 0.930 . S
C1726 C1725 1.388 . S
C1726 C1727 1.390 . S
C1727 C1726 1.390 . S
C1727 C1728 1.394 . S
C1727 C1733 1.465 . S
C1728 C1723 1.399 . S
C1728 C1727 1.394 . S
C1728 C1729 1.516 . S
C1729 C1728 1.516 . S
C1729 C1730 1.502 . S
C1729 C1731 1.561 . S
C1729 C1732 1.526 . S
C1730 H1714 0.959 . S
C1730 H1715 0.959 . S
C1730 H1716 0.961 . S
C1730 C1729 1.502 . S
C1731 H1717 0.960 . S
C1731 H1718 0.961 . S
C1731 H1719 0.959 . S
C1731 C1729 1.561 . S
C1732 C1729 1.526 . S
C1732 C1733 1.396 . S
C1732 C1737 1.390 . S
C1733 C1727 1.465 . S
C1733 C1732 1.396 . S
C1733 C1734 1.399 . S
C1734 H1720 0.929 . S
C1734 C1733 1.399 . S
C1734 C1735 1.385 . S
C1735 H1721 0.931 . S
C1735 C1734 1.385 . S
C1735 C1736 1.389 . S
C1736 C1735 1.389 . S
C1736 C1737 1.387 . S
C1737 H1722 0.930 . S
C1737 C1732 1.390 . S
C1737 C1736 1.387 . S
H1738 C1750 0.930 . S
H1739 C1752 0.930 . S
H1740 C1753 0.930 . S
H1741 C1757 0.959 . S
H1742 C1757 0.959 . S
H1743 C1757 0.961 . S
H1744 C1758 0.960 . S
H1745 C1758 0.961 . S
H1746 C1758 0.959 . S
H1747 C1761 0.929 . S
H1748 C1762 0.931 . S
H1749 C1764 0.930 . S
C1750 H1738 0.930 . S
C1750 C1751 1.399 . S
C1750 C1755 1.399 . S
C1751 C1750 1.399 . S
C1751 C1752 1.376 . S
C1752 H1739 0.930 . S
C1752 C1751 1.376 . S
C1752 C1753 1.388 . S
C1753 H1740 0.930 . S
C1753 C1752 1.388 . S
C1753 C1754 1.390 . S
C1754 C1753 1.390 . S
C1754 C1755 1.394 . S
C1754 C1760 1.465 . S
C1755 C1750 1.399 . S
C1755 C1754 1.394 . S
C1755 C1756 1.516 . S
C1756 C1755 1.516 . S
C1756 C1757 1.502 . S
C1756 C1758 1.561 . S
C1756 C1759 1.526 . S
C1757 H1741 0.959 . S
C1757 H1742 0.959 . S
C1757 H1743 0.961 . S
C1757 C1756 1.502 . S
C1758 H1744 0.960 . S
C1758 H1745 0.961 . S
C1758 H1746 0.959 . S
C1758 C1756 1.561 . S
C1759 C1756 1.526 . S
C1759 C1760 1.396 . S
C1759 C1764 1.390 . S
C1760 C1754 1.465 . S
C1760 C1759 1.396 . S
C1760 C1761 1.399 . S
C1761 H1747 0.929 . S
C1761 C1760 1.399 . S
C1761 C1762 1.385 . S
C1762 H1748 0.931 . S
C1762 C1761 1.385 . S
C1762 C1763 1.389 . S
C1763 C1762 1.389 . S
C1763 C1764 1.387 . S
C1764 H1749 0.930 . S
C1764 C1759 1.390 . S
C1764 C1763 1.387 . S
H1765 C1777 0.930 . S
H1766 C1779 0.930 . S
H1767 C1780 0.930 . S
H1768 C1784 0.959 . S
H1769 C1784 0.959 . S
H1770 C1784 0.961 . S
H1771 C1785 0.960 . S
H1772 C1785 0.961 . S
H1773 C1785 0.959 . S
H1774 C1788 0.929 . S
H1775 C1789 0.931 . S
H1776 C1791 0.930 . S
C1777 H1765 0.930 . S
C1777 C1778 1.399 . S
C1777 C1782 1.399 . S
C1778 C1777 1.399 . S
C1778 C1779 1.376 . S
C1779 H1766 0.930 . S
C1779 C1778 1.376 . S
C1779 C1780 1.388 . S
C1780 H1767 0.930 . S
C1780 C1779 1.388 . S
C1780 C1781 1.390 . S
C1781 C1780 1.390 . S
C1781 C1782 1.394 . S
C1781 C1787 1.465 . S
C1782 C1777 1.399 . S
C1782 C1781 1.394 . S
C1782 C1783 1.516 . S
C1783 C1782 1.516 . S
C1783 C1784 1.502 . S
C1783 C1785 1.561 . S
C1783 C1786 1.526 . S
C1784 H1768 0.959 . S
C1784 H1769 0.959 . S
C1784 H1770 0.961 . S
C1784 C1783 1.502 . S
C1785 H1771 0.960 . S
C1785 H1772 0.961 . S
C1785 H1773 0.959 . S
C1785 C1783 1.561 . S
C1786 C1783 1.526 . S
C1786 C1787 1.396 . S
C1786 C1791 1.390 . S
C1787 C1781 1.465 . S
C1787 C1786 1.396 . S
C1787 C1788 1.399 . S
C1788 H1774 0.929 . S
C1788 C1787 1.399 . S
C1788 C1789 1.385 . S
C1789 H1775 0.931 . S
C1789 C1788 1.385 . S
C1789 C1790 1.389 . S
C1790 C1789 1.389 . S
C1790 C1791 1.387 . S
C1791 H1776 0.930 . S
C1791 C1786 1.390 . S
C1791 C1790 1.387 . S
H1792 C1804 0.930 . S
H1793 C1806 0.930 . S
H1794 C1807 0.930 . S
H1795 C1811 0.959 . S
H1796 C1811 0.959 . S
H1797 C1811 0.961 . S
H1798 C1812 0.960 . S
H1799 C1812 0.961 . S
H1800 C1812 0.959 . S
H1801 C1815 0.929 . S
H1802 C1816 0.931 . S
H1803 C1818 0.930 . S
C1804 H1792 0.930 . S
C1804 C1805 1.399 . S
C1804 C1809 1.399 . S
C1805 C1804 1.399 . S
C1805 C1806 1.376 . S
C1806 H1793 0.930 . S
C1806 C1805 1.376 . S
C1806 C1807 1.388 . S
C1807 H1794 0.930 . S
C1807 C1806 1.388 . S
C1807 C1808 1.390 . S
C1808 C1807 1.390 . S
C1808 C1809 1.394 . S
C1808 C1814 1.465 . S
C1809 C1804 1.399 . S
C1809 C1808 1.394 . S
C1809 C1810 1.516 . S
C1810 C1809 1.516 . S
C1810 C1811 1.502 . S
C1810 C1812 1.561 . S
C1810 C1813 1.526 . S
C1811 H1795 0.959 . S
C1811 H1796 0.959 . S
C1811 H1797 0.961 . S
C1811 C1810 1.502 . S
C1812 H1798 0.960 . S
C1812 H1799 0.961 . S
C1812 H1800 0.959 . S
C1812 C1810 1.561 . S
C1813 C1810 1.526 . S
C1813 C1814 1.396 . S
C1813 C1818 1.390 . S
C1814 C1808 1.465 . S
C1814 C1813 1.396 . S
C1814 C1815 1.399 . S
C1815 H1801 0.929 . S
C1815 C1814 1.399 . S
C1815 C1816 1.385 . S
C1816 H1802 0.931 . S
C1816 C1815 1.385 . S
C1816 C1817 1.389 . S
C1817 C1816 1.389 . S
C1817 C1818 1.387 . S
C1818 H1803 0.930 . S
C1818 C1813 1.390 . S
C1818 C1817 1.387 . S
H1819 C1831 0.930 . S
H1820 C1833 0.930 . S
H1821 C1834 0.930 . S
H1822 C1838 0.959 . S
H1823 C1838 0.959 . S
H1824 C1838 0.961 . S
H1825 C1839 0.960 . S
H1826 C1839 0.961 . S
H1827 C1839 0.959 . S
H1828 C1842 0.929 . S
H1829 C1843 0.931 . S
H1830 C1845 0.930 . S
C1831 H1819 0.930 . S
C1831 C1832 1.399 . S
C1831 C1836 1.399 . S
C1832 C1831 1.399 . S
C1832 C1833 1.376 . S
C1833 H1820 0.930 . S
C1833 C1832 1.376 . S
C1833 C1834 1.388 . S
C1834 H1821 0.930 . S
C1834 C1833 1.388 . S
C1834 C1835 1.390 . S
C1835 C1834 1.390 . S
C1835 C1836 1.394 . S
C1835 C1841 1.465 . S
C1836 C1831 1.399 . S
C1836 C1835 1.394 . S
C1836 C1837 1.516 . S
C1837 C1836 1.516 . S
C1837 C1838 1.502 . S
C1837 C1839 1.561 . S
C1837 C1840 1.526 . S
C1838 H1822 0.959 . S
C1838 H1823 0.959 . S
C1838 H1824 0.961 . S
C1838 C1837 1.502 . S
C1839 H1825 0.960 . S
C1839 H1826 0.961 . S
C1839 H1827 0.959 . S
C1839 C1837 1.561 . S
C1840 C1837 1.526 . S
C1840 C1841 1.396 . S
C1840 C1845 1.390 . S
C1841 C1835 1.465 . S
C1841 C1840 1.396 . S
C1841 C1842 1.399 . S
C1842 H1828 0.929 . S
C1842 C1841 1.399 . S
C1842 C1843 1.385 . S
C1843 H1829 0.931 . S
C1843 C1842 1.385 . S
C1843 C1844 1.389 . S
C1844 C1843 1.389 . S
C1844 C1845 1.387 . S
C1845 H1830 0.930 . S
C1845 C1840 1.390 . S
C1845 C1844 1.387 . S
H1846 C1858 0.930 . S
H1847 C1860 0.930 . S
H1848 C1861 0.930 . S
H1849 C1865 0.959 . S
H1850 C1865 0.959 . S
H1851 C1865 0.961 . S
H1852 C1866 0.960 . S
H1853 C1866 0.961 . S
H1854 C1866 0.959 . S
H1855 C1869 0.929 . S
H1856 C1870 0.931 . S
H1857 C1872 0.930 . S
C1858 H1846 0.930 . S
C1858 C1859 1.399 . S
C1858 C1863 1.399 . S
C1859 C1858 1.399 . S
C1859 C1860 1.376 . S
C1860 H1847 0.930 . S
C1860 C1859 1.376 . S
C1860 C1861 1.388 . S
C1861 H1848 0.930 . S
C1861 C1860 1.388 . S
C1861 C1862 1.390 . S
C1862 C1861 1.390 . S
C1862 C1863 1.394 . S
C1862 C1868 1.465 . S
C1863 C1858 1.399 . S
C1863 C1862 1.394 . S
C1863 C1864 1.516 . S
C1864 C1863 1.516 . S
C1864 C1865 1.502 . S
C1864 C1866 1.561 . S
C1864 C1867 1.526 . S
C1865 H1849 0.959 . S
C1865 H1850 0.959 . S
C1865 H1851 0.961 . S
C1865 C1864 1.502 . S
C1866 H1852 0.960 . S
C1866 H1853 0.961 . S
C1866 H1854 0.959 . S
C1866 C1864 1.561 . S
C1867 C1864 1.526 . S
C1867 C1868 1.396 . S
C1867 C1872 1.390 . S
C1868 C1862 1.465 . S
C1868 C1867 1.396 . S
C1868 C1869 1.399 . S
C1869 H1855 0.929 . S
C1869 C1868 1.399 . S
C1869 C1870 1.385 . S
C1870 H1856 0.931 . S
C1870 C1869 1.385 . S
C1870 C1871 1.389 . S
C1871 C1870 1.389 . S
C1871 C1872 1.387 . S
C1872 H1857 0.930 . S
C1872 C1867 1.390 . S
C1872 C1871 1.387 . S
H1873 C1885 0.930 . S
H1874 C1887 0.930 . S
H1875 C1888 0.930 . S
H1876 C1892 0.959 . S
H1877 C1892 0.959 . S
H1878 C1892 0.961 . S
H1879 C1893 0.960 . S
H1880 C1893 0.961 . S
H1881 C1893 0.959 . S
H1882 C1896 0.929 . S
H1883 C1897 0.931 . S
H1884 C1899 0.930 . S
C1885 H1873 0.930 . S
C1885 C1886 1.399 . S
C1885 C1890 1.399 . S
C1886 C1885 1.399 . S
C1886 C1887 1.376 . S
C1887 H1874 0.930 . S
C1887 C1886 1.376 . S
C1887 C1888 1.388 . S
C1888 H1875 0.930 . S
C1888 C1887 1.388 . S
C1888 C1889 1.390 . S
C1889 C1888 1.390 . S
C1889 C1890 1.394 . S
C1889 C1895 1.465 . S
C1890 C1885 1.399 . S
C1890 C1889 1.394 . S
C1890 C1891 1.516 . S
C1891 C1890 1.516 . S
C1891 C1892 1.502 . S
C1891 C1893 1.561 . S
C1891 C1894 1.526 . S
C1892 H1876 0.959 . S
C1892 H1877 0.959 . S
C1892 H1878 0.961 . S
C1892 C1891 1.502 . S
C1893 H1879 0.960 . S
C1893 H1880 0.961 . S
C1893 H1881 0.959 . S
C1893 C1891 1.561 . S
C1894 C1891 1.526 . S
C1894 C1895 1.396 . S
C1894 C1899 1.390 . S
C1895 C1889 1.465 . S
C1895 C1894 1.396 . S
C1895 C1896 1.399 . S
C1896 H1882 0.929 . S
C1896 C1895 1.399 . S
C1896 C1897 1.385 . S
C1897 H1883 0.931 . S
C1897 C1896 1.385 . S
C1897 C1898 1.389 . S
C1898 C1897 1.389 . S
C1898 C1899 1.387 . S
C1899 H1884 0.930 . S
C1899 C1894 1.390 . S
C1899 C1898 1.387 . S
C1061 C972 1.861 . S
C1049 C11 1.304 . S
C1076 C143 1.425 . S
C1088 C975 1.725 . S
C1103 C283 1.268 . S
C1115 C1006 1.848 . S
C1142 C941 1.673 . S
C1130 C343 1.420 . S
C1169 C976 1.937 . S
C1157 C55 1.422 . S
C1196 C1007 1.722 . S
C1184 C115 1.540 . S
C1223 C932 1.748 . S
C1211 C239 1.147 . S
C1250 C963 1.772 . S
C1238 C371 1.422 . S
C1265 C29 0.942 . S
C1277 C993 1.105 . S
C1292 C467 0.822 . S
C1304 C962 1.201 . S
C1319 C229 0.755 . S
C1331 C922 0.992 . S
C1358 C1015 1.239 . S
C1346 C625 0.860 . S
C1385 C943 1.072 . S
C1373 C1 0.968 . S
C1400 C511 0.869 . S
C1412 C942 1.232 . S
C1427 C257 0.936 . S
C1439 C1035 1.042 . S
C1466 C974 1.188 . S
C1454 C581 0.677 . S
C1481 C713 1.434 . S
C1493 C1034 1.820 . S
C1508 C485 1.304 . S
C1520 C913 1.774 . S
C1535 C799 1.407 . S
C1547 C944 1.623 . S
C1562 C571 1.542 . S
C1574 C1003 1.721 . S
C1601 C914 1.714 . S
C1589 C685 1.485 . S
C1616 C457 1.414 . S
C1628 C945 1.649 . S
C1643 C827 1.366 . S
C1655 C994 1.742 . S
C1682 C1025 1.755 . S
C1670 C599 1.410 . S
C1697 C695 0.669 . S
C1709 C931 1.173 . S
C1724 C125 0.627 . S
C1736 C1024 1.153 . S
C1751 C853 1.006 . S
C1763 C984 1.230 . S
C1790 C953 1.273 . S
C1778 C397 0.961 . S
C1817 C1005 1.284 . S
C1805 C739 0.976 . S
C1844 C1004 1.253 . S
C1832 C169 0.870 . S
C1871 C973 1.204 . S
C1859 C809 0.816 . S
C1898 C912 1.199 . S
C1886 C353 0.732 . S
