# Generated by pormake.
# Topology csq, (4,8)-cn, num edge types: 1
# Building blocks:
#     Node 0, Type 0, BuildingBlock: AZAVOO_clean_linker_0, # of connection points: 4
#     Node 1, Type 0, BuildingBlock: AZAVOO_clean_linker_0, # of connection points: 4
#     Node 2, Type 0, BuildingBlock: AZAVOO_clean_linker_0, # of connection points: 4
#     Node 3, Type 0, BuildingBlock: AZAVOO_clean_linker_0, # of connection points: 4
#     Node 4, Type 0, BuildingBlock: AZAVOO_clean_linker_0, # of connection points: 4
#     Node 5, Type 0, BuildingBlock: AZAVOO_clean_linker_0, # of connection points: 4
#     Node 6, Type 1, BuildingBlock: TAGTUT_clean_sbu_3, # of connection points: 8
#     Node 7, Type 1, BuildingBlock: TAGTUT_clean_sbu_3, # of connection points: 8
#     Node 8, Type 1, BuildingBlock: TAGTUT_clean_sbu_3, # of connection points: 8
#     Edge 9, Type (0, 1), BuildingBlock: UVAHIK_clean_linker_0, # of connection points: 2
#     Edge 10, Type (0, 1), BuildingBlock: UVAHIK_clean_linker_0, # of connection points: 2
#     Edge 11, Type (0, 1), BuildingBlock: UVAHIK_clean_linker_0, # of connection points: 2
#     Edge 12, Type (0, 1), BuildingBlock: UVAHIK_clean_linker_0, # of connection points: 2
#     Edge 13, Type (0, 1), BuildingBlock: UVAHIK_clean_linker_0, # of connection points: 2
#     Edge 14, Type (0, 1), BuildingBlock: UVAHIK_clean_linker_0, # of connection points: 2
#     Edge 15, Type (0, 1), BuildingBlock: UVAHIK_clean_linker_0, # of connection points: 2
#     Edge 16, Type (0, 1), BuildingBlock: UVAHIK_clean_linker_0, # of connection points: 2
#     Edge 17, Type (0, 1), BuildingBlock: UVAHIK_clean_linker_0, # of connection points: 2
#     Edge 18, Type (0, 1), BuildingBlock: UVAHIK_clean_linker_0, # of connection points: 2
#     Edge 19, Type (0, 1), BuildingBlock: UVAHIK_clean_linker_0, # of connection points: 2
#     Edge 20, Type (0, 1), BuildingBlock: UVAHIK_clean_linker_0, # of connection points: 2
#     Edge 21, Type (0, 1), BuildingBlock: UVAHIK_clean_linker_0, # of connection points: 2
#     Edge 22, Type (0, 1), BuildingBlock: UVAHIK_clean_linker_0, # of connection points: 2
#     Edge 23, Type (0, 1), BuildingBlock: UVAHIK_clean_linker_0, # of connection points: 2
#     Edge 24, Type (0, 1), BuildingBlock: UVAHIK_clean_linker_0, # of connection points: 2
#     Edge 25, Type (0, 1), BuildingBlock: UVAHIK_clean_linker_0, # of connection points: 2
#     Edge 26, Type (0, 1), BuildingBlock: UVAHIK_clean_linker_0, # of connection points: 2
#     Edge 27, Type (0, 1), BuildingBlock: UVAHIK_clean_linker_0, # of connection points: 2
#     Edge 28, Type (0, 1), BuildingBlock: UVAHIK_clean_linker_0, # of connection points: 2
#     Edge 29, Type (0, 1), BuildingBlock: UVAHIK_clean_linker_0, # of connection points: 2
#     Edge 30, Type (0, 1), BuildingBlock: UVAHIK_clean_linker_0, # of connection points: 2
#     Edge 31, Type (0, 1), BuildingBlock: UVAHIK_clean_linker_0, # of connection points: 2
#     Edge 32, Type (0, 1), BuildingBlock: UVAHIK_clean_linker_0, # of connection points: 2
# Relax obj value: 0.128
# Max RMSD: 0.242
# Mean RMSD: 0.203
data_MOF--net-csq--node1-TAGTUT_clean_sbu_3--node2-AZAVOO_clean_linker_0--edge1-UVAHIK_clean_linker_0
_symmetry_space_group_name_H-M    P1
_symmetry_Int_Tables_number       1
_symmetry_cell_setting            triclinic
loop_
_symmetry_equiv_pos_as_xyz
'x, y, z'
_cell_length_a     70.605064
_cell_length_b     69.898899
_cell_length_c     28.477949
_cell_angle_alpha  92.236553
_cell_angle_beta   92.213743
_cell_angle_gamma 119.93714
loop_
_atom_site_label
_atom_site_type_symbol
_atom_site_fract_x
_atom_site_fract_y
_atom_site_fract_z
_atom_type_partial_charge
H0 H 0.1465 0.46388 0.37507 0.0
H1 H 0.36555 0.48118 0.18026 0.0
H2 H 0.16933 0.4326 0.13581 0.0
H3 H 0.13857 0.43677 0.15971 0.0
H4 H 0.18118 0.50778 0.17396 0.0
H5 H 0.21137 0.50339 0.14854 0.0
H6 H 0.18618 0.43572 0.23172 0.0
H7 H 0.1656 0.44079 0.29341 0.0
H8 H 0.21266 0.5109 0.30605 0.0
H9 H 0.23297 0.50558 0.24393 0.0
H10 H 0.23057 0.43998 0.27009 0.0
H11 H 0.25395 0.44467 0.34045 0.0
H12 H 0.30203 0.50935 0.29931 0.0
H13 H 0.2781 0.50488 0.23103 0.0
H14 H 0.25736 0.43226 0.19623 0.0
H15 H 0.29169 0.432 0.20932 0.0
H16 H 0.32666 0.49571 0.1501 0.0
H17 H 0.29229 0.49595 0.1381 0.0
H18 H 0.24844 0.42773 0.08466 0.0
H19 H 0.27743 0.43091 0.03586 0.0
H20 H 0.29112 0.49612 0.00148 0.0
H21 H 0.26254 0.49302 0.05177 0.0
H22 H 0.19971 0.42284 0.05407 0.0
H23 H 0.17794 0.41541 0.97937 0.0
H24 H 0.19749 0.48471 0.97941 0.0
H25 H 0.21932 0.49194 0.05358 0.0
O26 O 0.15539 0.46212 0.35219 0.0
O27 O 0.1805 0.4979 0.35886 0.0
O28 O 0.33305 0.4483 0.20642 0.0
O29 O 0.35174 0.48087 0.17555 0.0
C30 C 0.21217 0.46519 0.14608 0.0
C31 C 0.22175 0.46747 0.19199 0.0
C32 C 0.24154 0.46742 0.19817 0.0
C33 C 0.25144 0.46422 0.1588 0.0
C34 C 0.24162 0.46139 0.11288 0.0
C35 C 0.22188 0.46177 0.10658 0.0
C36 C 0.19256 0.46769 0.14088 0.0
C37 C 0.17165 0.44907 0.14162 0.0
C38 C 0.15421 0.4515 0.15605 0.0
C39 C 0.15757 0.47259 0.1701 0.0
C40 C 0.17792 0.49131 0.16341 0.0
C41 C 0.19525 0.48885 0.14868 0.0
C42 C 0.21102 0.47028 0.23345 0.0
C43 C 0.19215 0.45211 0.24831 0.0
C44 C 0.18039 0.45507 0.2834 0.0
C45 C 0.1874 0.47628 0.30446 0.0
C46 C 0.20677 0.49436 0.29047 0.0
C47 C 0.21849 0.49137 0.25525 0.0
C48 C 0.25286 0.472 0.24545 0.0
C49 C 0.24581 0.45544 0.27744 0.0
C50 C 0.25929 0.45808 0.31725 0.0
C51 C 0.28007 0.47722 0.32511 0.0
C52 C 0.28612 0.49449 0.29482 0.0
C53 C 0.27253 0.49193 0.2555 0.0
C54 C 0.27234 0.46405 0.16597 0.0
C55 C 0.27247 0.44615 0.18619 0.0
C56 C 0.29209 0.44603 0.19356 0.0
C57 C 0.31193 0.46383 0.18066 0.0
C58 C 0.31169 0.48174 0.16037 0.0
C59 C 0.29207 0.48189 0.15329 0.0
C60 C 0.25347 0.46018 0.07197 0.0
C61 C 0.25718 0.44236 0.06522 0.0
C62 C 0.27383 0.44426 0.03738 0.0
C63 C 0.28692 0.46398 0.01551 0.0
C64 C 0.28167 0.48093 0.01873 0.0
C65 C 0.26509 0.47904 0.04677 0.0
C66 C 0.21094 0.45789 0.0591 0.0
C67 C 0.19955 0.43643 0.03737 0.0
C68 C 0.18709 0.43221 0.99494 0.0
C69 C 0.186 0.44946 0.97358 0.0
C70 C 0.19824 0.47112 0.99462 0.0
C71 C 0.21058 0.47528 0.03711 0.0
C72 C 0.17432 0.4795 0.34023 0.0
C73 C 0.33282 0.46378 0.18839 0.0
H74 H 0.82818 0.23459 0.39031 0.0
H75 H 0.66967 0.10683 0.91958 0.0
H76 H 0.80864 0.2769 0.12884 0.0
H77 H 0.83843 0.30682 0.17887 0.0
H78 H 0.87073 0.26836 0.18907 0.0
H79 H 0.84123 0.23873 0.1372 0.0
H80 H 0.79214 0.24331 0.20927 0.0
H81 H 0.80581 0.24432 0.29011 0.0
H82 H 0.81905 0.19213 0.24902 0.0
H83 H 0.80563 0.19152 0.16812 0.0
H84 H 0.74716 0.20049 0.1839 0.0
H85 H 0.72027 0.16936 0.2252 0.0
H86 H 0.736 0.12542 0.14701 0.0
H87 H 0.76294 0.1568 0.10575 0.0
H88 H 0.7232 0.19404 0.07447 0.0
H89 H 0.6888 0.16591 0.03284 0.0
H90 H 0.72287 0.13549 0.96948 0.0
H91 H 0.75709 0.16365 0.01156 0.0
H92 H 0.74889 0.23355 0.01438 0.0
H93 H 0.72326 0.21986 0.94495 0.0
H94 H 0.75538 0.18525 0.89186 0.0
H95 H 0.78168 0.20033 0.95968 0.0
H96 H 0.7852 0.26841 0.0438 0.0
H97 H 0.80286 0.29876 0.99188 0.0
H98 H 0.84989 0.27827 0.96165 0.0
H99 H 0.83181 0.24768 0.01323 0.0
O100 O 0.82265 0.23377 0.35817 0.0
O101 O 0.82871 0.20659 0.33552 0.0
O102 O 0.6655 0.13212 0.97572 0.0
O103 O 0.68279 0.11744 0.93828 0.0
C104 C 0.80288 0.23615 0.10665 0.0
C105 C 0.79067 0.21756 0.13328 0.0
C106 C 0.77109 0.19929 0.11316 0.0
C107 C 0.76376 0.19946 0.0666 0.0
C108 C 0.7758 0.21801 0.04021 0.0
C109 C 0.79524 0.23643 0.06017 0.0
C110 C 0.82283 0.2557 0.12908 0.0
C111 C 0.82254 0.27526 0.14027 0.0
C112 C 0.83945 0.29224 0.16917 0.0
C113 C 0.85672 0.28974 0.18799 0.0
C114 C 0.85748 0.27055 0.1752 0.0
C115 C 0.84077 0.25375 0.14545 0.0
C116 C 0.79803 0.21744 0.18282 0.0
C117 C 0.79802 0.23213 0.21781 0.0
C118 C 0.80582 0.23265 0.26396 0.0
C119 C 0.81359 0.21835 0.27601 0.0
C120 C 0.81322 0.20339 0.24092 0.0
C121 C 0.8055 0.20296 0.19474 0.0
C122 C 0.75696 0.18085 0.14197 0.0
C123 C 0.74509 0.18421 0.1764 0.0
C124 C 0.72976 0.16642 0.19992 0.0
C125 C 0.72598 0.14493 0.18918 0.0
C126 C 0.73839 0.14174 0.15558 0.0
C127 C 0.75383 0.15961 0.13224 0.0
C128 C 0.74256 0.18082 0.04598 0.0
C129 C 0.72308 0.18105 0.05218 0.0
C130 C 0.70351 0.16505 0.02819 0.0
C131 C 0.70312 0.14854 0.99756 0.0
C132 C 0.7226 0.14801 0.99262 0.0
C133 C 0.74214 0.16399 0.01678 0.0
C134 C 0.76701 0.21779 0.99205 0.0
C135 C 0.75115 0.22413 0.98629 0.0
C136 C 0.73622 0.21586 0.94701 0.0
C137 C 0.73668 0.20075 0.91355 0.0
C138 C 0.7544 0.19681 0.91666 0.0
C139 C 0.76959 0.20548 0.95549 0.0
C140 C 0.80725 0.2559 0.03216 0.0
C141 C 0.79941 0.2706 0.02617 0.0
C142 C 0.80958 0.28796 0.9967 0.0
C143 C 0.82772 0.29086 0.9725 0.0
C144 C 0.83577 0.27629 0.97933 0.0
C145 C 0.82562 0.25896 0.00902 0.0
C146 C 0.8221 0.21913 0.32496 0.0
C147 C 0.68262 0.1322 0.9701 0.0
H148 H 0.60432 0.85982 0.8166 0.0
H149 H 0.56055 0.64433 0.03151 0.0
H150 H 0.58287 0.83299 0.05315 0.0
H151 H 0.57627 0.85883 0.01009 0.0
H152 H 0.50733 0.81015 0.99223 0.0
H153 H 0.51425 0.7842 0.0344 0.0
H154 H 0.60225 0.81325 0.98448 0.0
H155 H 0.60982 0.83578 0.91641 0.0
H156 H 0.54046 0.80245 0.876 0.0
H157 H 0.53316 0.77998 0.94396 0.0
H158 H 0.60606 0.76833 0.00506 0.0
H159 H 0.61824 0.75575 0.93689 0.0
H160 H 0.55536 0.73315 0.86263 0.0
H161 H 0.54344 0.74569 0.93059 0.0
H162 H 0.59259 0.74866 0.10419 0.0
H163 H 0.59763 0.71649 0.10614 0.0
H164 H 0.54104 0.67982 0.00795 0.0
H165 H 0.53607 0.71205 0.00678 0.0
H166 H 0.57607 0.76449 0.17604 0.0
H167 H 0.5671 0.73847 0.23834 0.0
H168 H 0.50529 0.69364 0.16221 0.0
H169 H 0.51455 0.71951 0.09989 0.0
H170 H 0.57281 0.8135 0.14946 0.0
H171 H 0.56094 0.82523 0.21888 0.0
H172 H 0.49713 0.7663 0.19752 0.0
H173 H 0.50897 0.75519 0.12693 0.0
O174 O 0.60102 0.85039 0.84266 0.0
O175 O 0.56513 0.83324 0.8244 0.0
O176 O 0.58774 0.67676 0.08234 0.0
O177 O 0.55889 0.65726 0.03157 0.0
C178 C 0.55429 0.78869 0.05128 0.0
C179 C 0.56253 0.78263 0.01241 0.0
C180 C 0.56606 0.76456 0.01419 0.0
C181 C 0.56095 0.75215 0.05439 0.0
C182 C 0.55245 0.75797 0.09306 0.0
C183 C 0.54939 0.77647 0.09182 0.0
C184 C 0.54909 0.80664 0.04631 0.0
C185 C 0.56618 0.82833 0.04209 0.0
C186 C 0.56238 0.84304 0.01713 0.0
C187 C 0.54136 0.83626 0.99658 0.0
C188 C 0.52378 0.8156 0.00668 0.0
C189 C 0.52763 0.8009 0.03152 0.0
C190 C 0.56717 0.79513 0.96924 0.0
C191 C 0.58875 0.81074 0.96062 0.0
C192 C 0.59301 0.82363 0.92184 0.0
C193 C 0.57572 0.82104 0.89097 0.0
C194 C 0.55413 0.80497 0.89922 0.0
C195 C 0.54992 0.7921 0.93795 0.0
C196 C 0.57389 0.75785 0.97262 0.0
C197 C 0.59505 0.76081 0.97383 0.0
C198 C 0.60197 0.7537 0.93495 0.0
C199 C 0.58781 0.74364 0.89429 0.0
C200 C 0.56682 0.74127 0.89298 0.0
C201 C 0.5599 0.74824 0.93187 0.0
C202 C 0.56395 0.73262 0.05545 0.0
C203 C 0.58126 0.73362 0.08332 0.0
C204 C 0.58412 0.71524 0.08427 0.0
C205 C 0.56973 0.69557 0.05717 0.0
C206 C 0.55241 0.6947 0.02923 0.0
C207 C 0.54954 0.71307 0.02843 0.0
C208 C 0.54591 0.74388 0.13369 0.0
C209 C 0.56046 0.74922 0.17333 0.0
C210 C 0.55537 0.73433 0.20862 0.0
C211 C 0.5355 0.71406 0.20502 0.0
C212 C 0.5206 0.70923 0.16613 0.0
C213 C 0.52586 0.72394 0.13056 0.0
C214 C 0.54179 0.78347 0.13336 0.0
C215 C 0.55625 0.80319 0.15974 0.0
C216 C 0.54949 0.80972 0.19967 0.0
C217 C 0.52813 0.79659 0.21408 0.0
C218 C 0.51363 0.77685 0.18728 0.0
C219 C 0.5204 0.7704 0.14716 0.0
C220 C 0.58021 0.83518 0.8506 0.0
C221 C 0.57273 0.67602 0.05792 0.0
H222 H 0.81887 0.65518 0.37261 0.0
H223 H 0.93566 0.60097 0.97068 0.0
H224 H 0.76668 0.55838 0.13406 0.0
H225 H 0.73518 0.55305 0.17633 0.0
H226 H 0.75556 0.62218 0.16729 0.0
H227 H 0.78707 0.62734 0.12415 0.0
H228 H 0.80454 0.59306 0.21327 0.0
H229 H 0.80725 0.61354 0.28721 0.0
H230 H 0.84325 0.67511 0.22031 0.0
H231 H 0.8402 0.65439 0.14636 0.0
H232 H 0.85036 0.60295 0.19795 0.0
H233 H 0.88753 0.61644 0.23142 0.0
H234 H 0.91355 0.65825 0.11571 0.0
H235 H 0.87609 0.64562 0.0836 0.0
H236 H 0.85328 0.57347 0.11033 0.0
H237 H 0.88501 0.57071 0.08803 0.0
H238 H 0.89501 0.61474 0.97714 0.0
H239 H 0.86344 0.6176 0.00032 0.0
H240 H 0.80855 0.54249 0.04507 0.0
H241 H 0.81843 0.52394 0.98458 0.0
H242 H 0.83396 0.57777 0.89502 0.0
H243 H 0.82286 0.59546 0.95488 0.0
H244 H 0.76994 0.54005 0.04197 0.0
H245 H 0.73416 0.52227 0.99745 0.0
H246 H 0.74254 0.58668 0.97394 0.0
H247 H 0.77816 0.60421 0.01798 0.0
O248 O 0.81801 0.64741 0.34299 0.0
O249 O 0.8366 0.67862 0.30708 0.0
O250 O 0.91757 0.57971 0.03863 0.0
O251 O 0.92306 0.60179 0.98027 0.0
C252 C 0.7994 0.59645 0.10467 0.0
C253 C 0.82009 0.60975 0.12934 0.0
C254 C 0.83888 0.61059 0.11177 0.0
C255 C 0.83685 0.59734 0.07102 0.0
C256 C 0.81635 0.58449 0.04576 0.0
C257 C 0.79773 0.58455 0.06179 0.0
C258 C 0.77918 0.59323 0.12598 0.0
C259 C 0.76412 0.57229 0.14028 0.0
C260 C 0.74613 0.56928 0.16446 0.0
C261 C 0.74291 0.58721 0.17519 0.0
C262 C 0.75774 0.60811 0.15987 0.0
C263 C 0.77567 0.61107 0.13514 0.0
C264 C 0.82204 0.62225 0.1744 0.0
C265 C 0.81292 0.61097 0.21461 0.0
C266 C 0.81453 0.62272 0.25683 0.0
C267 C 0.82543 0.64597 0.25966 0.0
C268 C 0.83472 0.65721 0.21932 0.0
C269 C 0.83304 0.64543 0.17708 0.0
C270 C 0.86054 0.62324 0.13828 0.0
C271 C 0.86398 0.61588 0.18111 0.0
C272 C 0.88522 0.62352 0.20003 0.0
C273 C 0.90327 0.63826 0.17584 0.0
C274 C 0.89982 0.6469 0.13486 0.0
C275 C 0.87852 0.63972 0.11665 0.0
C276 C 0.85602 0.59561 0.05673 0.0
C277 C 0.86236 0.58249 0.08123 0.0
C278 C 0.88047 0.58094 0.06841 0.0
C279 C 0.89252 0.59248 0.0307 0.0
C280 C 0.88607 0.60561 0.00625 0.0
C281 C 0.86801 0.60721 0.01927 0.0
C282 C 0.81488 0.57025 0.00422 0.0
C283 C 0.81304 0.54968 0.01141 0.0
C284 C 0.81913 0.53934 0.97711 0.0
C285 C 0.82758 0.54961 0.93532 0.0
C286 C 0.82745 0.56925 0.92654 0.0
C287 C 0.82102 0.57941 0.96067 0.0
C288 C 0.77672 0.57341 0.03274 0.0
C289 C 0.76417 0.55027 0.02649 0.0
C290 C 0.74373 0.54016 0.00134 0.0
C291 C 0.7355 0.5531 0.98261 0.0
C292 C 0.74828 0.57628 0.98865 0.0
C293 C 0.76868 0.58631 0.01342 0.0
C294 C 0.82707 0.65839 0.30456 0.0
C295 C 0.91178 0.59088 0.01693 0.0
H296 H 0.26164 0.86333 0.39051 0.0
H297 H 0.09754 0.66562 0.03535 0.0
H298 H 0.2406 0.86365 0.14468 0.0
H299 H 0.27654 0.89004 0.18301 0.0
H300 H 0.30242 0.8496 0.12939 0.0
H301 H 0.26669 0.82366 0.09099 0.0
H302 H 0.20623 0.82925 0.21489 0.0
H303 H 0.22482 0.84505 0.29276 0.0
H304 H 0.27251 0.82538 0.26283 0.0
H305 H 0.25352 0.8093 0.18553 0.0
H306 H 0.16022 0.77995 0.18052 0.0
H307 H 0.1453 0.75682 0.24735 0.0
H308 H 0.20054 0.74615 0.25357 0.0
H309 H 0.21499 0.76872 0.18629 0.0
H310 H 0.14637 0.77484 0.0833 0.0
H311 H 0.11288 0.73923 0.06428 0.0
H312 H 0.15126 0.70661 0.06331 0.0
H313 H 0.1846 0.74235 0.08214 0.0
H314 H 0.16571 0.79744 0.00619 0.0
H315 H 0.14404 0.77439 0.93563 0.0
H316 H 0.18795 0.74838 0.92495 0.0
H317 H 0.20925 0.77119 0.99549 0.0
H318 H 0.21838 0.8504 0.02693 0.0
H319 H 0.24262 0.87514 0.96987 0.0
H320 H 0.27047 0.83287 0.9509 0.0
H321 H 0.24612 0.80818 0.00749 0.0
O322 O 0.25424 0.85653 0.36005 0.0
O323 O 0.27867 0.84661 0.34229 0.0
O324 O 0.09146 0.6974 0.04472 0.0
O325 O 0.11046 0.67986 0.04359 0.0
C326 C 0.22869 0.82242 0.10729 0.0
C327 C 0.2182 0.81022 0.14607 0.0
C328 C 0.1981 0.7902 0.13871 0.0
C329 C 0.18819 0.78278 0.09267 0.0
C330 C 0.19858 0.79517 0.05397 0.0
C331 C 0.21888 0.81491 0.06127 0.0
C332 C 0.25107 0.84174 0.11537 0.0
C333 C 0.25433 0.86112 0.13943 0.0
C334 C 0.27479 0.87602 0.16165 0.0
C335 C 0.29217 0.87162 0.16011 0.0
C336 C 0.28945 0.85356 0.13113 0.0
C337 C 0.26901 0.8387 0.10894 0.0
C338 C 0.22863 0.81831 0.19452 0.0
C339 C 0.22056 0.82819 0.22546 0.0
C340 C 0.23127 0.83727 0.26981 0.0
C341 C 0.25024 0.8366 0.28391 0.0
C342 C 0.258 0.82625 0.25305 0.0
C343 C 0.24721 0.81709 0.20886 0.0
C344 C 0.18871 0.77605 0.17868 0.0
C345 C 0.16898 0.77249 0.19619 0.0
C346 C 0.16055 0.75937 0.23433 0.0
C347 C 0.1719 0.7499 0.25586 0.0
C348 C 0.19165 0.75356 0.2382 0.0
C349 C 0.19987 0.76636 0.19972 0.0
C350 C 0.16781 0.76108 0.08418 0.0
C351 C 0.14744 0.75994 0.07926 0.0
C352 C 0.12838 0.73961 0.0683 0.0
C353 C 0.12941 0.72007 0.06217 0.0
C354 C 0.14989 0.72132 0.06775 0.0
C355 C 0.16893 0.74167 0.07866 0.0
C356 C 0.18902 0.78596 0.0057 0.0
C357 C 0.17101 0.7873 0.98759 0.0
C358 C 0.15863 0.77409 0.94755 0.0
C359 C 0.16428 0.75955 0.92498 0.0
C360 C 0.18337 0.75963 0.94119 0.0
C361 C 0.19557 0.77265 0.98145 0.0
C362 C 0.2305 0.82752 0.02108 0.0
C363 C 0.22931 0.84621 0.0094 0.0
C364 C 0.24311 0.86027 0.9769 0.0
C365 C 0.25847 0.85594 0.95632 0.0
C366 C 0.25886 0.83662 0.96653 0.0
C367 C 0.2449 0.82247 0.99853 0.0
C368 C 0.26195 0.84682 0.33047 0.0
C369 C 0.10926 0.69848 0.04968 0.0
H370 H 0.47905 0.29085 0.87312 0.0
H371 H 0.44683 0.09498 0.19431 0.0
H372 H 0.47828 0.27984 0.1375 0.0
H373 H 0.48175 0.30911 0.089 0.0
H374 H 0.41275 0.27031 0.04552 0.0
H375 H 0.40977 0.24067 0.09304 0.0
H376 H 0.48683 0.25943 0.05629 0.0
H377 H 0.49045 0.2761 0.98073 0.0
H378 H 0.42161 0.23108 0.94395 0.0
H379 H 0.41824 0.21466 0.0198 0.0
H380 H 0.49634 0.22557 0.09298 0.0
H381 H 0.51412 0.21523 0.03322 0.0
H382 H 0.45056 0.16754 0.96725 0.0
H383 H 0.43296 0.17853 0.02685 0.0
H384 H 0.48764 0.2036 0.18132 0.0
H385 H 0.49261 0.17274 0.20286 0.0
H386 H 0.42598 0.12666 0.15022 0.0
H387 H 0.42124 0.15772 0.12908 0.0
H388 H 0.47832 0.22922 0.24966 0.0
H389 H 0.48264 0.20968 0.31498 0.0
H390 H 0.41606 0.15657 0.28523 0.0
H391 H 0.4119 0.17615 0.21958 0.0
H392 H 0.47435 0.26581 0.22541 0.0
H393 H 0.47019 0.28592 0.29263 0.0
H394 H 0.40017 0.24117 0.27994 0.0
H395 H 0.40458 0.22122 0.21207 0.0
O396 O 0.47747 0.28345 0.90196 0.0
O397 O 0.44247 0.25876 0.88299 0.0
O398 O 0.4795 0.13186 0.21242 0.0
O399 O 0.44551 0.10744 0.18502 0.0
C400 C 0.44458 0.23781 0.12825 0.0
C401 C 0.44961 0.22741 0.09109 0.0
C402 C 0.45329 0.20985 0.09985 0.0
C403 C 0.45046 0.20155 0.1448 0.0
C404 C 0.44516 0.21168 0.18197 0.0
C405 C 0.44267 0.23013 0.17391 0.0
C406 C 0.44381 0.2581 0.11863 0.0
C407 C 0.46365 0.27817 0.11956 0.0
C408 C 0.46562 0.29487 0.09131 0.0
C409 C 0.44765 0.29185 0.06211 0.0
C410 C 0.42708 0.27291 0.06642 0.0
C411 C 0.42519 0.25612 0.0944 0.0
C412 C 0.45228 0.23589 0.04336 0.0
C413 C 0.47264 0.25304 0.03157 0.0
C414 C 0.47462 0.26258 0.9885 0.0
C415 C 0.45629 0.25499 0.95638 0.0
C416 C 0.43604 0.23733 0.96789 0.0
C417 C 0.43408 0.22786 0.01105 0.0
C418 C 0.46344 0.20263 0.0642 0.0
C419 C 0.48631 0.21284 0.06563 0.0
C420 C 0.4964 0.20689 0.03158 0.0
C421 C 0.48375 0.19054 0.99556 0.0
C422 C 0.46075 0.18039 0.99421 0.0
C423 C 0.45066 0.18644 0.02834 0.0
C424 C 0.45409 0.18282 0.15375 0.0
C425 C 0.47423 0.18681 0.17412 0.0
C426 C 0.47698 0.16916 0.18649 0.0
C427 C 0.45963 0.14722 0.17851 0.0
C428 C 0.43964 0.14333 0.15699 0.0
C429 C 0.43691 0.16101 0.14468 0.0
C430 C 0.4448 0.2041 0.22999 0.0
C431 C 0.46433 0.21391 0.25869 0.0
C432 C 0.46684 0.20264 0.29564 0.0
C433 C 0.44975 0.18156 0.3047 0.0
C434 C 0.42942 0.17287 0.27914 0.0
C435 C 0.42699 0.18406 0.2418 0.0
C436 C 0.43975 0.24227 0.21386 0.0
C437 C 0.45813 0.26041 0.23717 0.0
C438 C 0.45573 0.27168 0.27583 0.0
C439 C 0.43485 0.26499 0.2918 0.0
C440 C 0.41643 0.24672 0.26829 0.0
C441 C 0.41889 0.23536 0.22964 0.0
C442 C 0.45826 0.26573 0.91147 0.0
C443 C 0.46224 0.12845 0.19299 0.0
C444 C 0.03856 0.49761 0.53841 0.0
C445 C 0.02366 0.46275 0.70191 0.0
C446 C 0.96087 0.45886 0.68055 0.0
Mg447 Mg 0.02222 0.52901 0.49371 0.0
Mg448 Mg 0.00699 0.55763 0.55977 0.0
O449 O 0.00204 0.5294 0.54118 0.0
Mg450 Mg 0.00769 0.51298 0.59066 0.0
O451 O 0.01387 0.4957 0.63636 0.0
Mg452 Mg 0.99849 0.46571 0.60156 0.0
Mg453 Mg 0.00769 0.49702 0.69927 0.0
C454 C 0.97541 0.52957 0.63737 0.0
O455 O 0.03109 0.54441 0.63723 0.0
O456 O 0.00878 0.54603 0.44427 0.0
O457 O 0.02377 0.5329 0.71079 0.0
O458 O 0.05069 0.56377 0.51752 0.0
O459 O 0.99834 0.56479 0.49273 0.0
O460 O 0.04148 0.58076 0.57212 0.0
O461 O 0.98463 0.48064 0.54715 0.0
O462 O 0.99383 0.49386 0.4758 0.0
C463 C 0.98271 0.47783 0.50188 0.0
C464 C 0.00099 0.559 0.45135 0.0
O465 O 0.98046 0.51428 0.63214 0.0
O466 O 0.01557 0.45554 0.65938 0.0
O467 O 0.98458 0.5475 0.61566 0.0
O468 O 0.96776 0.45268 0.64537 0.0
O469 O 0.02259 0.47862 0.72344 0.0
O470 O 0.97318 0.47707 0.70448 0.0
O471 O 0.03418 0.51308 0.54714 0.0
O472 O 0.02838 0.47919 0.55781 0.0
C473 C 0.05567 0.58028 0.54648 0.0
C474 C 0.03288 0.54827 0.68215 0.0
C475 C 0.49601 0.02457 0.51199 0.0
C476 C 0.54962 0.99733 0.44635 0.0
C477 C 0.5108 0.94119 0.52537 0.0
Mg478 Mg 0.47033 0.01182 0.60904 0.0
Mg479 Mg 0.49187 0.00173 0.70209 0.0
O480 O 0.48235 0.99402 0.63861 0.0
Mg481 Mg 0.50358 0.99637 0.5914 0.0
O482 O 0.5231 0.99858 0.5403 0.0
Mg483 Mg 0.50028 0.98079 0.48795 0.0
Mg484 Mg 0.54331 0.98914 0.553 0.0
C485 C 0.51167 0.97066 0.67743 0.0
O486 O 0.53518 0.02219 0.63546 0.0
O487 O 0.44464 0.99927 0.6664 0.0
O488 O 0.55927 0.01141 0.61517 0.0
O489 O 0.49273 0.04358 0.65625 0.0
O490 O 0.46017 0.9914 0.72755 0.0
O491 O 0.51097 0.03685 0.71246 0.0
O492 O 0.47445 0.97125 0.54318 0.0
O493 O 0.44948 0.98065 0.56065 0.0
C494 C 0.45513 0.96848 0.53726 0.0
C495 C 0.44396 0.99214 0.70768 0.0
O496 O 0.50876 0.97099 0.63255 0.0
O497 O 0.52951 0.9924 0.4394 0.0
O498 O 0.50783 0.98225 0.70762 0.0
O499 O 0.50136 0.94889 0.49936 0.0
O500 O 0.558 0.997 0.48682 0.0
O501 O 0.52681 0.95377 0.55468 0.0
O502 O 0.49729 0.02157 0.55587 0.0
O503 O 0.49827 0.0124 0.48035 0.0
C504 C 0.50703 0.05025 0.69098 0.0
C505 C 0.5542 0.0238 0.63987 0.0
C506 C 0.5312 0.54941 0.68225 0.0
C507 C 0.46717 0.48331 0.77151 0.0
C508 C 0.49346 0.4458 0.71222 0.0
Mg509 Mg 0.5505 0.54541 0.58441 0.0
Mg510 Mg 0.52005 0.50574 0.50391 0.0
O511 O 0.5325 0.51276 0.56596 0.0
Mg512 Mg 0.51227 0.50339 0.61858 0.0
O513 O 0.49371 0.49574 0.6735 0.0
Mg514 Mg 0.51619 0.50185 0.72608 0.0
Mg515 Mg 0.46954 0.46692 0.66918 0.0
C516 C 0.4929 0.45894 0.54792 0.0
O517 O 0.48273 0.49998 0.57417 0.0
O518 O 0.57237 0.54702 0.52335 0.0
O519 O 0.45538 0.46903 0.60193 0.0
O520 O 0.53111 0.55535 0.53331 0.0
O521 O 0.55071 0.51849 0.47108 0.0
O522 O 0.50672 0.52653 0.48658 0.0
O523 O 0.53987 0.5059 0.66724 0.0
O524 O 0.56822 0.53471 0.63772 0.0
C525 C 0.56049 0.51964 0.66739 0.0
C526 C 0.56935 0.53537 0.48468 0.0
O527 O 0.4989 0.46722 0.59064 0.0
O528 O 0.48819 0.49598 0.77627 0.0
O529 O 0.49775 0.47072 0.51198 0.0
O530 O 0.50626 0.46521 0.7312 0.0
O531 O 0.4572 0.47111 0.73384 0.0
O532 O 0.47887 0.44241 0.68006 0.0
O533 O 0.52626 0.53947 0.64124 0.0
O534 O 0.52731 0.53863 0.71948 0.0
C535 C 0.51546 0.54681 0.50122 0.0
C536 C 0.46268 0.48417 0.57234 0.0
C537 C 0.13136 0.4602 0.23388 0.0
C538 C 0.14154 0.47491 0.19867 0.0
C539 C 0.11877 0.46388 0.26556 0.0
C540 C 0.11259 0.50826 0.32159 0.0
H541 H 0.05992 0.45913 0.36423 0.0
C542 C 0.06 0.5157 0.46828 0.0
C543 C 0.05281 0.49896 0.50024 0.0
C544 C 0.07071 0.51462 0.4286 0.0
C545 C 0.07465 0.47302 0.35282 0.0
H546 H 0.14577 0.50469 0.16836 0.0
H547 H 0.12372 0.51117 0.2242 0.0
H548 H 0.07737 0.45302 0.29778 0.0
H549 H 0.05288 0.46896 0.5174 0.0
H550 H 0.07154 0.4673 0.4492 0.0
H551 H 0.11 0.52814 0.37761 0.0
C552 C 0.12571 0.49686 0.22722 0.0
C553 C 0.08462 0.46952 0.31472 0.0
C554 C 0.13827 0.49311 0.19522 0.0
C555 C 0.05776 0.48195 0.49317 0.0
C556 C 0.06836 0.48088 0.45382 0.0
C557 C 0.10256 0.51179 0.35988 0.0
C558 C 0.11606 0.48242 0.26308 0.0
C559 C 0.10401 0.48695 0.29941 0.0
C560 C 0.07438 0.49679 0.42036 0.0
C561 C 0.08383 0.49404 0.37666 0.0
H562 H 0.13399 0.44638 0.2386 0.0
H563 H 0.1119 0.45266 0.29332 0.0
H564 H 0.12761 0.522 0.31075 0.0
H565 H 0.0567 0.52917 0.47291 0.0
H566 H 0.07535 0.52722 0.40353 0.0
C567 C 0.7055 0.12752 0.25973 0.0
C568 C 0.70842 0.12588 0.21155 0.0
C569 C 0.68803 0.11022 0.28017 0.0
C570 C 0.6564 0.06714 0.32004 0.0
H571 H 0.59872 0.03962 0.25484 0.0
C572 C 0.58263 0.00209 0.40812 0.0
C573 C 0.56441 0.00513 0.40761 0.0
C574 C 0.59901 0.01281 0.37719 0.0
C575 C 0.61472 0.04715 0.27345 0.0
H576 H 0.69546 0.10471 0.14708 0.0
H577 H 0.66507 0.07424 0.1831 0.0
H578 H 0.63054 0.06688 0.21617 0.0
H579 H 0.54825 0.02054 0.37238 0.0
H580 H 0.57727 0.03989 0.31897 0.0
H581 H 0.64068 0.0484 0.3781 0.0
C582 C 0.67621 0.08902 0.20489 0.0
C583 C 0.63297 0.06258 0.25113 0.0
C584 C 0.69375 0.10635 0.18443 0.0
C585 C 0.56212 0.01789 0.37339 0.0
C586 C 0.57874 0.02892 0.34276 0.0
C587 C 0.63822 0.05181 0.34231 0.0
C588 C 0.67307 0.09086 0.25292 0.0
C589 C 0.65395 0.07302 0.27457 0.0
C590 C 0.59775 0.02713 0.34558 0.0
C591 C 0.61711 0.04183 0.31958 0.0
H592 H 0.71664 0.14229 0.28159 0.0
H593 H 0.68593 0.11226 0.31716 0.0
H594 H 0.67237 0.07468 0.3388 0.0
H595 H 0.58461 0.99204 0.4337 0.0
H596 H 0.61312 0.01056 0.37937 0.0
C597 C 0.54672 0.69134 0.25164 0.0
C598 C 0.53093 0.69727 0.2398 0.0
C599 C 0.54195 0.67429 0.2814 0.0
C600 C 0.5074 0.64332 0.37429 0.0
H601 H 0.52052 0.598 0.33212 0.0
C602 C 0.51761 0.5835 0.49448 0.0
C603 C 0.50963 0.5616 0.47636 0.0
C604 C 0.51594 0.59881 0.467 0.0
C605 C 0.51652 0.61038 0.34417 0.0
H606 H 0.49801 0.69051 0.25077 0.0
H607 H 0.4898 0.66088 0.30384 0.0
H608 H 0.52707 0.62784 0.28159 0.0
H609 H 0.49215 0.53826 0.41641 0.0
H610 H 0.48949 0.5651 0.36835 0.0
H611 H 0.49747 0.62612 0.43761 0.0
C612 C 0.50579 0.66936 0.28973 0.0
C613 C 0.52049 0.62757 0.31546 0.0
C614 C 0.51045 0.6862 0.25929 0.0
C615 C 0.49857 0.55499 0.43141 0.0
C616 C 0.49715 0.57039 0.40374 0.0
C617 C 0.50375 0.62627 0.40344 0.0
C618 C 0.52139 0.66301 0.30045 0.0
C619 C 0.51618 0.64432 0.33038 0.0
C620 C 0.50645 0.5926 0.4207 0.0
C621 C 0.5084 0.60969 0.38873 0.0
H622 H 0.56255 0.69943 0.23674 0.0
H623 H 0.55432 0.66984 0.28941 0.0
H624 H 0.50398 0.65607 0.38664 0.0
H625 H 0.52609 0.58911 0.52909 0.0
H626 H 0.52329 0.61583 0.48098 0.0
C627 C 0.93524 0.63411 0.15782 0.0
C628 C 0.92501 0.64137 0.18951 0.0
C629 C 0.95238 0.63099 0.17394 0.0
C630 C 0.98928 0.63881 0.27857 0.0
H631 H 0.96879 0.57629 0.25372 0.0
C632 C 0.99084 0.5857 0.4202 0.0
C633 C 0.99682 0.56957 0.41126 0.0
C634 C 0.98884 0.59745 0.38397 0.0
C635 C 0.9752 0.5939 0.26012 0.0
H636 H 0.92569 0.65297 0.26139 0.0
H637 H 0.95579 0.64789 0.28961 0.0
H638 H 0.95474 0.59451 0.20359 0.0
H639 H 0.00497 0.55285 0.35666 0.0
H640 H 0.00078 0.57321 0.29249 0.0
H641 H 0.00854 0.63775 0.33719 0.0
C642 C 0.95074 0.64462 0.25239 0.0
C643 C 0.9672 0.60438 0.23137 0.0
C644 C 0.93345 0.64745 0.23642 0.0
C645 C 0.00028 0.56512 0.36471 0.0
C646 C 0.99802 0.57683 0.32808 0.0
C647 C 0.99729 0.62834 0.30722 0.0
C648 C 0.95965 0.63533 0.22182 0.0
C649 C 0.97323 0.62661 0.24203 0.0
C650 C 0.99261 0.59334 0.33767 0.0
C651 C 0.98932 0.60551 0.29987 0.0
H652 H 0.92879 0.62908 0.12153 0.0
H653 H 0.95901 0.62388 0.14967 0.0
H654 H 0.99445 0.65604 0.28708 0.0
H655 H 0.98798 0.58961 0.45547 0.0
H656 H 0.98403 0.60962 0.3922 0.0
C657 C 0.3079 0.88633 0.24204 0.0
C658 C 0.31128 0.88298 0.19485 0.0
C659 C 0.32488 0.89358 0.27682 0.0
C660 C 0.38467 0.92062 0.29827 0.0
H661 H 0.36881 0.89276 0.41677 0.0
C662 C 0.44684 0.94654 0.45962 0.0
C663 C 0.43957 0.95291 0.49937 0.0
C664 C 0.43218 0.93463 0.42091 0.0
C665 C 0.37349 0.90057 0.38378 0.0
H666 H 0.33542 0.88549 0.14688 0.0
H667 H 0.36524 0.89811 0.20807 0.0
H668 H 0.34149 0.87983 0.35054 0.0
H669 H 0.41105 0.95038 0.53125 0.0
H670 H 0.38557 0.92939 0.46438 0.0
H671 H 0.41662 0.94167 0.33218 0.0
C672 C 0.34938 0.89515 0.21794 0.0
C673 C 0.35785 0.89331 0.34599 0.0
C674 C 0.33232 0.88787 0.18298 0.0
C675 C 0.41719 0.9459 0.50095 0.0
C676 C 0.40256 0.93375 0.46276 0.0
C677 C 0.4004 0.92783 0.33614 0.0
C678 C 0.34565 0.89754 0.26538 0.0
C679 C 0.36307 0.90371 0.30333 0.0
C680 C 0.40999 0.9285 0.42191 0.0
C681 C 0.39473 0.91829 0.37962 0.0
H682 H 0.29183 0.88235 0.25264 0.0
H683 H 0.32159 0.8957 0.31291 0.0
H684 H 0.38916 0.92897 0.26587 0.0
H685 H 0.46392 0.95154 0.45742 0.0
H686 H 0.43824 0.93061 0.38987 0.0
C687 C 0.44751 0.28585 0.37086 0.0
C688 C 0.43247 0.27792 0.33128 0.0
C689 C 0.44748 0.30092 0.40445 0.0
C690 C 0.43534 0.34539 0.40672 0.0
H691 H 0.45102 0.35124 0.54065 0.0
C692 C 0.46017 0.4265 0.50872 0.0
C693 C 0.47914 0.43492 0.53886 0.0
C694 C 0.44875 0.4042 0.49321 0.0
C695 C 0.44669 0.34987 0.50329 0.0
H696 H 0.40463 0.27835 0.29758 0.0
H697 H 0.40448 0.30459 0.35647 0.0
H698 H 0.44097 0.3167 0.49502 0.0
H699 H 0.5004 0.42676 0.57927 0.0
H700 H 0.48123 0.38785 0.55 0.0
H701 H 0.4423 0.37869 0.41352 0.0
C702 C 0.41642 0.29927 0.36124 0.0
C703 C 0.44085 0.33007 0.47727 0.0
C704 C 0.41641 0.28415 0.3277 0.0
C705 C 0.48579 0.4205 0.55584 0.0
C706 C 0.47469 0.39821 0.53925 0.0
C707 C 0.44137 0.36515 0.43245 0.0
C708 C 0.43244 0.30841 0.39902 0.0
C709 C 0.43549 0.32781 0.42853 0.0
C710 C 0.45653 0.39001 0.50623 0.0
C711 C 0.4475 0.36785 0.48093 0.0
H712 H 0.45985 0.28104 0.3749 0.0
H713 H 0.4601 0.30774 0.43302 0.0
H714 H 0.43177 0.34437 0.36906 0.0
H715 H 0.45458 0.43737 0.49592 0.0
H716 H 0.4344 0.39834 0.4692 0.0
C717 C 0.52625 0.83817 0.91702 0.0
C718 C 0.5385 0.84913 0.95945 0.0
C719 C 0.52515 0.85014 0.87991 0.0
C720 C 0.5538 0.90592 0.83435 0.0
H721 H 0.49816 0.88669 0.76521 0.0
C722 C 0.53339 0.96411 0.73832 0.0
C723 C 0.51977 0.95659 0.6966 0.0
C724 C 0.53843 0.95001 0.76199 0.0
C725 C 0.51393 0.89202 0.78341 0.0
H726 H 0.55891 0.88125 0.99637 0.0
H727 H 0.55666 0.90221 0.93186 0.0
H728 H 0.50064 0.86398 0.82533 0.0
H729 H 0.50179 0.92888 0.64517 0.0
H730 H 0.51039 0.90379 0.68735 0.0
H731 H 0.56687 0.93435 0.79354 0.0
C732 C 0.54825 0.88433 0.92698 0.0
C733 C 0.51534 0.87906 0.81805 0.0
C734 C 0.54941 0.87235 0.96409 0.0
C735 C 0.51232 0.93503 0.67733 0.0
C736 C 0.51711 0.9207 0.70158 0.0
C737 C 0.55237 0.91888 0.79981 0.0
C738 C 0.53625 0.87337 0.8843 0.0
C739 C 0.53517 0.88614 0.84474 0.0
C740 C 0.5298 0.92794 0.74478 0.0
C741 C 0.53229 0.91235 0.77482 0.0
H742 H 0.51809 0.82032 0.91183 0.0
H743 H 0.51602 0.84118 0.84736 0.0
H744 H 0.56945 0.91158 0.85344 0.0
H745 H 0.53951 0.98075 0.75368 0.0
H746 H 0.54807 0.95608 0.7953 0.0
C747 C 0.70764 0.52552 0.92159 0.0
C748 C 0.71376 0.54272 0.95645 0.0
C749 C 0.68817 0.5175 0.89349 0.0
C750 C 0.65763 0.51891 0.81754 0.0
H751 H 0.60463 0.51485 0.8624 0.0
C752 C 0.59859 0.53208 0.69917 0.0
C753 C 0.57591 0.5183 0.70197 0.0
C754 C 0.61338 0.53088 0.73102 0.0
C755 C 0.61918 0.51558 0.84938 0.0
H756 H 0.70367 0.56395 0.99146 0.0
H757 H 0.66995 0.55027 0.94206 0.0
H758 H 0.63354 0.51893 0.91905 0.0
H759 H 0.551 0.49247 0.74075 0.0
H760 H 0.57702 0.49051 0.79687 0.0
H761 H 0.64352 0.51603 0.74798 0.0
C762 C 0.68006 0.54287 0.93642 0.0
C763 C 0.63579 0.51811 0.88177 0.0
C764 C 0.69951 0.55092 0.96434 0.0
C765 C 0.56835 0.50331 0.73762 0.0
C766 C 0.58323 0.50221 0.7698 0.0
C767 C 0.64108 0.51645 0.78524 0.0
C768 C 0.67441 0.52644 0.89994 0.0
C769 C 0.65543 0.52037 0.86617 0.0
C770 C 0.6059 0.51594 0.76661 0.0
C771 C 0.62195 0.51538 0.80082 0.0
H772 H 0.71834 0.51892 0.9147 0.0
H773 H 0.68414 0.50467 0.86595 0.0
H774 H 0.6726 0.52078 0.80431 0.0
H775 H 0.60503 0.54385 0.67228 0.0
H776 H 0.63074 0.54197 0.7282 0.0
C777 C 0.15631 0.73621 0.8496 0.0
C778 C 0.14877 0.74201 0.88968 0.0
C779 C 0.14229 0.71704 0.82127 0.0
C780 C 0.09679 0.66252 0.8355 0.0
H781 H 0.0904 0.65494 0.69912 0.0
C782 C 0.03862 0.57759 0.74274 0.0
C783 C 0.04521 0.57139 0.70184 0.0
C784 C 0.05017 0.59936 0.76197 0.0
C785 C 0.09221 0.65675 0.73723 0.0
H786 H 0.12049 0.73287 0.93042 0.0
H787 H 0.09608 0.69949 0.88096 0.0
H788 H 0.11247 0.6921 0.73797 0.0
H789 H 0.06903 0.58293 0.64888 0.0
H790 H 0.08976 0.62095 0.68327 0.0
H791 H 0.07753 0.62743 0.8355 0.0
C792 C 0.11277 0.70977 0.87143 0.0
C793 C 0.10473 0.67802 0.75936 0.0
C794 C 0.12669 0.72899 0.89943 0.0
C795 C 0.06349 0.58739 0.68021 0.0
C796 C 0.0753 0.60917 0.69987 0.0
C797 C 0.08459 0.64134 0.81354 0.0
C798 C 0.12062 0.70326 0.833 0.0
C799 C 0.10698 0.68106 0.80871 0.0
C800 C 0.06889 0.61537 0.74131 0.0
C801 C 0.082 0.63814 0.76413 0.0
H802 H 0.17325 0.74602 0.84129 0.0
H803 H 0.14874 0.71232 0.79191 0.0
H804 H 0.09869 0.66436 0.87363 0.0
H805 H 0.02434 0.56565 0.75966 0.0
H806 H 0.04437 0.60361 0.79314 0.0
C807 C 0.5123 0.181 0.97455 0.0
C808 C 0.49454 0.18371 0.96037 0.0
C809 C 0.52164 0.17323 0.94216 0.0
C810 C 0.52361 0.16139 0.81471 0.0
H811 H 0.52758 0.11165 0.85867 0.0
C812 C 0.5086 0.08679 0.69592 0.0
C813 C 0.51696 0.07335 0.71081 0.0
C814 C 0.51391 0.10633 0.72206 0.0
C815 C 0.52725 0.12587 0.84585 0.0
H816 H 0.47339 0.18151 0.90063 0.0
H817 H 0.48927 0.16728 0.84425 0.0
H818 H 0.52125 0.13466 0.91392 0.0
H819 H 0.5396 0.07131 0.7613 0.0
H820 H 0.54953 0.10579 0.80566 0.0
H821 H 0.52876 0.1519 0.74604 0.0
C822 C 0.49616 0.17144 0.88032 0.0
C823 C 0.52352 0.13907 0.87769 0.0
C824 C 0.48684 0.17925 0.91274 0.0
C825 C 0.53264 0.08111 0.74918 0.0
C826 C 0.53821 0.10082 0.77487 0.0
C827 C 0.52748 0.14821 0.78274 0.0
C828 C 0.51337 0.16792 0.89491 0.0
C829 C 0.52095 0.15652 0.86224 0.0
C830 C 0.5279 0.11294 0.76326 0.0
C831 C 0.5286 0.12983 0.79772 0.0
H832 H 0.51854 0.18414 0.01105 0.0
H833 H 0.53499 0.17084 0.95435 0.0
H834 H 0.52204 0.17496 0.80198 0.0
H835 H 0.49664 0.08143 0.66622 0.0
H836 H 0.50559 0.11518 0.71203 0.0
C837 C 0.3267 0.48811 0.00141 0.0
C838 C 0.30715 0.46764 0.99355 0.0
C839 C 0.34619 0.49118 0.98387 0.0
C840 C 0.37271 0.46005 0.94389 0.0
H841 H 0.4104 0.51269 0.8801 0.0
C842 C 0.43328 0.46284 0.81367 0.0
C843 C 0.45328 0.48243 0.80983 0.0
C844 C 0.41819 0.46223 0.84448 0.0
C845 C 0.40032 0.49812 0.89872 0.0
H846 H 0.29274 0.43453 0.96015 0.0
H847 H 0.32675 0.43988 0.92961 0.0
H848 H 0.37799 0.50934 0.91549 0.0
H849 H 0.47362 0.51652 0.83685 0.0
H850 H 0.44695 0.5155 0.89125 0.0
H851 H 0.39474 0.44861 0.92643 0.0
C852 C 0.32703 0.45346 0.94991 0.0
C853 C 0.38169 0.49614 0.91878 0.0
C854 C 0.30753 0.45041 0.96727 0.0
C855 C 0.45835 0.50119 0.83926 0.0
C856 C 0.44303 0.50064 0.87001 0.0
C857 C 0.39134 0.46205 0.92404 0.0
C858 C 0.34662 0.47382 0.95834 0.0
C859 C 0.36738 0.47683 0.94052 0.0
C860 C 0.42261 0.48122 0.87223 0.0
C861 C 0.40505 0.48084 0.90011 0.0
H862 H 0.32714 0.50159 0.0224 0.0
H863 H 0.36104 0.50699 0.99134 0.0
H864 H 0.3623 0.4452 0.96139 0.0
H865 H 0.42895 0.44806 0.79163 0.0
H866 H 0.40258 0.44708 0.84478 0.0
C867 C 0.84138 0.33001 0.95149 0.0
C868 C 0.83788 0.30873 0.9395 0.0
C869 C 0.85089 0.34678 0.92034 0.0
C870 C 0.8628 0.3568 0.79525 0.0
H871 H 0.90974 0.41396 0.84633 0.0
C872 C 0.92932 0.42038 0.68429 0.0
C873 C 0.9397 0.44297 0.6991 0.0
C874 C 0.91268 0.4046 0.70965 0.0
C875 C 0.89634 0.3983 0.83143 0.0
H876 H 0.84118 0.28827 0.88493 0.0
H877 H 0.8581 0.31764 0.83087 0.0
H878 H 0.88936 0.38521 0.89926 0.0
H879 H 0.93901 0.46685 0.749 0.0
H880 H 0.9096 0.43937 0.7924 0.0
H881 H 0.87012 0.36981 0.72725 0.0
C882 C 0.85332 0.3213 0.86422 0.0
C883 C 0.8847 0.38176 0.86188 0.0
C884 C 0.84391 0.30456 0.89545 0.0
C885 C 0.9316 0.44956 0.73703 0.0
C886 C 0.91485 0.43379 0.76217 0.0
C887 C 0.8744 0.37341 0.76474 0.0
C888 C 0.85702 0.34264 0.87639 0.0
C889 C 0.86806 0.36069 0.84412 0.0
C890 C 0.9059 0.41106 0.75013 0.0
C891 C 0.89159 0.39425 0.7824 0.0
H892 H 0.83704 0.33378 0.98528 0.0
H893 H 0.85339 0.36301 0.93063 0.0
H894 H 0.84982 0.34084 0.78056 0.0
H895 H 0.93509 0.4147 0.65518 0.0
H896 H 0.90624 0.38726 0.69935 0.0
C897 C 0.85179 0.53322 0.92346 0.0
C898 C 0.83881 0.5414 0.90397 0.0
C899 C 0.86416 0.52755 0.89502 0.0
C900 C 0.8726 0.51772 0.76955 0.0
H901 H 0.93106 0.53475 0.82043 0.0
C902 C 0.94406 0.53489 0.6552 0.0
C903 C 0.95771 0.52637 0.66778 0.0
C904 C 0.92771 0.53282 0.68406 0.0
C905 C 0.91466 0.52957 0.806 0.0
H906 H 0.82825 0.54931 0.83868 0.0
H907 H 0.85052 0.54037 0.78939 0.0
H908 H 0.90585 0.53866 0.87053 0.0
H909 H 0.9651 0.5092 0.7206 0.0
H910 H 0.93651 0.5058 0.77185 0.0
H911 H 0.88202 0.50974 0.70425 0.0
C912 C 0.85077 0.53783 0.82662 0.0
C913 C 0.90013 0.53175 0.83471 0.0
C914 C 0.83818 0.54326 0.85503 0.0
C915 C 0.95458 0.51558 0.70977 0.0
C916 C 0.93838 0.51382 0.73918 0.0
C917 C 0.88724 0.51581 0.74071 0.0
C918 C 0.86419 0.5302 0.84633 0.0
C919 C 0.879 0.52617 0.8167 0.0
C920 C 0.92484 0.52249 0.72657 0.0
C921 C 0.90852 0.52203 0.75846 0.0
H922 H 0.85307 0.53191 0.96107 0.0
H923 H 0.87397 0.5214 0.91146 0.0
H924 H 0.85634 0.51278 0.75466 0.0
H925 H 0.94605 0.54323 0.62294 0.0
H926 H 0.91771 0.5399 0.67373 0.0
C927 C 0.29762 0.87965 0.93981 0.0
C928 C 0.27549 0.87252 0.92814 0.0
C929 C 0.314 0.89582 0.91486 0.0
C930 C 0.32603 0.91928 0.80174 0.0
H931 H 0.37693 0.96733 0.87172 0.0
C932 C 0.40384 0.97984 0.71017 0.0
C933 C 0.42352 0.98338 0.73274 0.0
C934 C 0.38429 0.96969 0.73315 0.0
C935 C 0.36287 0.95401 0.8516 0.0
H936 H 0.25304 0.87656 0.88119 0.0
H937 H 0.28195 0.90471 0.83634 0.0
H938 H 0.34512 0.94243 0.91331 0.0
H939 H 0.43813 0.97973 0.79784 0.0
H940 H 0.40435 0.96193 0.83716 0.0
H941 H 0.34422 0.93008 0.74032 0.0
C942 C 0.28647 0.89781 0.86516 0.0
C943 C 0.34465 0.93982 0.87543 0.0
C944 C 0.27002 0.88181 0.89077 0.0
C945 C 0.42332 0.97725 0.77922 0.0
C946 C 0.4039 0.96718 0.80205 0.0
C947 C 0.3444 0.93337 0.77786 0.0
C948 C 0.30862 0.90507 0.87735 0.0
C949 C 0.32633 0.92195 0.85094 0.0
C950 C 0.38408 0.96301 0.77919 0.0
C951 C 0.3633 0.95047 0.8028 0.0
H952 H 0.30229 0.87295 0.96882 0.0
H953 H 0.33094 0.90096 0.92463 0.0
H954 H 0.3121 0.90556 0.78211 0.0
H955 H 0.40341 0.98438 0.67439 0.0
H956 H 0.36932 0.96686 0.71471 0.0
C957 C 0.46686 0.32932 0.02855 0.0
C958 C 0.45114 0.30665 0.02307 0.0
C959 C 0.47212 0.34247 0.99003 0.0
C960 C 0.45146 0.34719 0.87416 0.0
H961 H 0.5128 0.38476 0.8521 0.0
C962 C 0.47608 0.405 0.72235 0.0
C963 C 0.49299 0.42677 0.73464 0.0
C964 C 0.47247 0.38789 0.75129 0.0
C965 C 0.49559 0.37451 0.85785 0.0
H966 H 0.42847 0.28022 0.97228 0.0
H967 H 0.43711 0.30341 0.9058 0.0
H968 H 0.50259 0.36069 0.91745 0.0
H969 H 0.52068 0.44716 0.78451 0.0
H970 H 0.51412 0.41777 0.83507 0.0
H971 H 0.44434 0.36161 0.81622 0.0
C972 C 0.44536 0.31091 0.93999 0.0
C973 C 0.48978 0.36072 0.89531 0.0
C974 C 0.44028 0.29769 0.97833 0.0
C975 C 0.50736 0.43064 0.77409 0.0
C976 C 0.50364 0.41364 0.80313 0.0
C977 C 0.45727 0.36122 0.8371 0.0
C978 C 0.46158 0.33334 0.94529 0.0
C979 C 0.46767 0.34716 0.90422 0.0
C980 C 0.48562 0.39222 0.79322 0.0
C981 C 0.47944 0.37533 0.82885 0.0
H982 H 0.47535 0.33689 0.06249 0.0
H983 H 0.48445 0.35983 0.99522 0.0
H984 H 0.43429 0.33696 0.88038 0.0
H985 H 0.46483 0.40136 0.69195 0.0
H986 H 0.4588 0.37147 0.74179 0.0
C987 C 0.14892 0.42718 0.93129 0.0
C988 C 0.17062 0.44481 0.9321 0.0
C989 C 0.13329 0.42517 0.89685 0.0
C990 C 0.12263 0.46205 0.82956 0.0
H991 H 0.07206 0.40827 0.7743 0.0
C992 C 0.0445 0.4612 0.77299 0.0
C993 C 0.03671 0.45423 0.72571 0.0
C994 C 0.05996 0.45675 0.79358 0.0
C995 C 0.0862 0.42338 0.78926 0.0
H996 H 0.19345 0.47283 0.89496 0.0
H997 H 0.16613 0.46933 0.83476 0.0
H998 H 0.10254 0.40642 0.81437 0.0
H999 H 0.03782 0.43555 0.66417 0.0
H1000 H 0.06492 0.4276 0.70083 0.0
H1001 H 0.10623 0.47896 0.80587 0.0
C1002 C 0.16114 0.45732 0.86126 0.0
C1003 C 0.10355 0.42234 0.81223 0.0
C1004 C 0.17675 0.45934 0.8957 0.0
C1005 C 0.04355 0.44123 0.70061 0.0
C1006 C 0.05903 0.43666 0.72148 0.0
C1007 C 0.10531 0.46304 0.80718 0.0
C1008 C 0.13907 0.44076 0.86262 0.0
C1009 C 0.12181 0.44167 0.83314 0.0
C1010 C 0.06793 0.44512 0.76756 0.0
C1011 C 0.08676 0.44371 0.78767 0.0
H1012 H 0.14367 0.4158 0.95908 0.0
H1013 H 0.11639 0.41234 0.89906 0.0
H1014 H 0.13628 0.4772 0.84586 0.0
H1015 H 0.03937 0.47095 0.79367 0.0
H1016 H 0.06628 0.46307 0.82952 0.0
C1017 C 0.71944 0.17813 0.83691 0.0
C1018 C 0.71719 0.18645 0.88085 0.0
C1019 C 0.70108 0.16152 0.81041 0.0
C1020 C 0.64305 0.13551 0.7843 0.0
H1021 H 0.64291 0.08001 0.77102 0.0
C1022 C 0.56767 0.05583 0.70044 0.0
C1023 C 0.57172 0.04158 0.67197 0.0
C1024 C 0.58472 0.07346 0.72809 0.0
C1025 C 0.64276 0.09543 0.77362 0.0
H1026 H 0.69346 0.18418 0.93019 0.0
H1027 H 0.66153 0.15613 0.88253 0.0
H1028 H 0.67441 0.11241 0.81071 0.0
H1029 H 0.59711 0.03482 0.65027 0.0
H1030 H 0.62669 0.06579 0.69638 0.0
H1031 H 0.61184 0.11898 0.74575 0.0
C1032 C 0.67759 0.16244 0.86911 0.0
C1033 C 0.66078 0.11392 0.79653 0.0
C1034 C 0.69595 0.17869 0.89611 0.0
C1035 C 0.59322 0.04528 0.67206 0.0
C1036 C 0.61027 0.06305 0.69895 0.0
C1037 C 0.62515 0.11711 0.76043 0.0
C1038 C 0.68011 0.15333 0.82681 0.0
C1039 C 0.66109 0.13408 0.80182 0.0
C1040 C 0.60631 0.07746 0.72727 0.0
C1041 C 0.62482 0.09683 0.75456 0.0
H1042 H 0.73545 0.18391 0.82363 0.0
H1043 H 0.70327 0.15473 0.77758 0.0
H1044 H 0.64301 0.15097 0.78828 0.0
H1045 H 0.55143 0.05359 0.70083 0.0
H1046 H 0.58094 0.08398 0.74993 0.0
C1047 C 0.60266 0.71988 0.86568 0.0
C1048 C 0.59371 0.73333 0.85539 0.0
C1049 C 0.60371 0.70616 0.83028 0.0
C1050 C 0.60557 0.67814 0.75005 0.0
H1051 H 0.54768 0.64502 0.68603 0.0
C1052 C 0.55686 0.58468 0.72842 0.0
C1053 C 0.54374 0.57379 0.68703 0.0
C1054 C 0.56857 0.6077 0.73374 0.0
C1055 C 0.56414 0.65434 0.70248 0.0
H1056 H 0.58117 0.74489 0.79925 0.0
H1057 H 0.5831 0.72092 0.73711 0.0
H1058 H 0.55989 0.68156 0.72291 0.0
H1059 H 0.53289 0.57837 0.61827 0.0
H1060 H 0.55295 0.61892 0.62833 0.0
H1061 H 0.60888 0.64988 0.73291 0.0
C1062 C 0.58886 0.72064 0.77274 0.0
C1063 C 0.57122 0.67537 0.7236 0.0
C1064 C 0.58774 0.73433 0.80827 0.0
C1065 C 0.54288 0.58638 0.65057 0.0
C1066 C 0.55435 0.60951 0.65623 0.0
C1067 C 0.5984 0.65701 0.72928 0.0
C1068 C 0.59588 0.70563 0.78377 0.0
C1069 C 0.59152 0.68697 0.74989 0.0
C1070 C 0.5672 0.62034 0.69803 0.0
C1071 C 0.57717 0.6445 0.70753 0.0
H1072 H 0.60723 0.71859 0.90168 0.0
H1073 H 0.60896 0.69466 0.84033 0.0
H1074 H 0.6215 0.68689 0.76906 0.0
H1075 H 0.55804 0.57543 0.75693 0.0
H1076 H 0.57802 0.6156 0.76668 0.0
C1077 C 0.44053 0.15551 0.36972 0.0
C1078 C 0.45428 0.16718 0.33428 0.0
C1079 C 0.44407 0.14044 0.39424 0.0
C1080 C 0.46223 0.10156 0.37632 0.0
H1081 H 0.47919 0.10761 0.50961 0.0
C1082 C 0.49614 0.04934 0.45128 0.0
C1083 C 0.49111 0.04171 0.49653 0.0
C1084 C 0.49076 0.06466 0.43492 0.0
C1085 C 0.47407 0.10542 0.47253 0.0
H1086 H 0.48224 0.17215 0.29626 0.0
H1087 H 0.48801 0.14547 0.33814 0.0
H1088 H 0.47064 0.13434 0.47559 0.0
H1089 H 0.47682 0.04458 0.56056 0.0
H1090 H 0.46666 0.07088 0.53135 0.0
H1091 H 0.46504 0.07258 0.37263 0.0
C1092 C 0.47486 0.14832 0.34764 0.0
C1093 C 0.46927 0.12077 0.45315 0.0
C1094 C 0.47164 0.16365 0.32396 0.0
C1095 C 0.48091 0.05013 0.52551 0.0
C1096 C 0.47517 0.06528 0.50877 0.0
C1097 C 0.46661 0.08605 0.39567 0.0
C1098 C 0.46103 0.13648 0.38266 0.0
C1099 C 0.4638 0.11919 0.40472 0.0
C1100 C 0.47979 0.07253 0.46296 0.0
C1101 C 0.47319 0.08807 0.44379 0.0
H1102 H 0.42696 0.15787 0.37797 0.0
H1103 H 0.43316 0.13133 0.42099 0.0
H1104 H 0.45779 0.09992 0.33892 0.0
H1105 H 0.50433 0.04348 0.42832 0.0
H1106 H 0.49528 0.07036 0.40009 0.0
C1107 C 0.29841 0.45903 0.36545 0.0
C1108 C 0.29663 0.47801 0.36005 0.0
C1109 C 0.31622 0.46044 0.39151 0.0
C1110 C 0.3735 0.49858 0.42027 0.0
H1111 H 0.3689 0.45668 0.51066 0.0
C1112 C 0.44835 0.5041 0.5251 0.0
C1113 C 0.44661 0.48413 0.53793 0.0
C1114 C 0.43065 0.50403 0.50115 0.0
C1115 C 0.37049 0.46829 0.48488 0.0
H1116 H 0.31144 0.51302 0.38071 0.0
H1117 H 0.343 0.51551 0.42519 0.0
H1118 H 0.33584 0.45539 0.47828 0.0
H1119 H 0.42623 0.44841 0.5317 0.0
H1120 H 0.39585 0.44818 0.48799 0.0
H1121 H 0.40808 0.51106 0.42555 0.0
C1122 C 0.33055 0.49964 0.40891 0.0
C1123 C 0.35156 0.46766 0.4668 0.0
C1124 C 0.31252 0.49818 0.38344 0.0
C1125 C 0.42779 0.46406 0.52286 0.0
C1126 C 0.41032 0.46396 0.49829 0.0
C1127 C 0.39247 0.49905 0.43791 0.0
C1128 C 0.33275 0.48087 0.41218 0.0
C1129 C 0.35289 0.4827 0.43417 0.0
C1130 C 0.41113 0.48396 0.4891 0.0
C1131 C 0.39115 0.48375 0.4701 0.0
H1132 H 0.28677 0.44331 0.34728 0.0
H1133 H 0.31768 0.44576 0.39329 0.0
H1134 H 0.37486 0.51017 0.3946 0.0
H1135 H 0.46272 0.51981 0.5364 0.0
H1136 H 0.43185 0.51974 0.49458 0.0
C1137 C 0.87704 0.30039 0.26724 0.0
C1138 C 0.87301 0.30657 0.22321 0.0
C1139 C 0.89082 0.31654 0.30228 0.0
C1140 C 0.93466 0.3746 0.3203 0.0
H1141 H 0.91108 0.37469 0.44117 0.0
C1142 C 0.96302 0.4543 0.42932 0.0
C1143 C 0.96873 0.45569 0.47765 0.0
C1144 C 0.95238 0.434 0.40361 0.0
C1145 C 0.91806 0.37464 0.40799 0.0
H1146 H 0.88059 0.33416 0.18057 0.0
H1147 H 0.90492 0.36237 0.24137 0.0
H1148 H 0.89139 0.34248 0.38455 0.0
H1149 H 0.96659 0.43665 0.53756 0.0
H1150 H 0.94757 0.40062 0.49192 0.0
H1151 H 0.9609 0.40691 0.34275 0.0
C1152 C 0.89745 0.34511 0.24893 0.0
C1153 C 0.90683 0.35626 0.37563 0.0
C1154 C 0.88347 0.32903 0.21424 0.0
C1155 C 0.96245 0.43607 0.50032 0.0
C1156 C 0.95165 0.41553 0.47428 0.0
C1157 C 0.94587 0.39283 0.35253 0.0
C1158 C 0.90105 0.33905 0.29347 0.0
C1159 C 0.91466 0.35647 0.33084 0.0
C1160 C 0.94712 0.41447 0.42538 0.0
C1161 C 0.93725 0.39341 0.39589 0.0
H1162 H 0.86893 0.28314 0.27508 0.0
H1163 H 0.89336 0.31147 0.3363 0.0
H1164 H 0.94125 0.37499 0.28639 0.0
H1165 H 0.96721 0.46903 0.41085 0.0
H1166 H 0.94848 0.43363 0.36628 0.0
C1167 C 0.50002 0.80165 0.25561 0.0
C1168 C 0.52095 0.80389 0.25615 0.0
C1169 C 0.49401 0.81033 0.2935 0.0
C1170 C 0.5105 0.8346 0.41742 0.0
H1171 H 0.48458 0.86942 0.37836 0.0
C1172 C 0.52111 0.91177 0.5225 0.0
C1173 C 0.50521 0.91801 0.51501 0.0
C1174 C 0.5183 0.89223 0.50032 0.0
C1175 C 0.49129 0.85937 0.39031 0.0
H1176 H 0.55145 0.81575 0.2983 0.0
H1177 H 0.54127 0.83152 0.36361 0.0
H1178 H 0.48864 0.84569 0.32048 0.0
H1179 H 0.47267 0.90734 0.48386 0.0
H1180 H 0.46746 0.87296 0.44651 0.0
H1181 H 0.51395 0.84918 0.48717 0.0
C1182 C 0.52938 0.82286 0.33418 0.0
C1183 C 0.49366 0.84573 0.35691 0.0
C1184 C 0.53535 0.81412 0.29637 0.0
C1185 C 0.48539 0.90314 0.48959 0.0
C1186 C 0.48247 0.88351 0.46793 0.0
C1187 C 0.50812 0.84831 0.45098 0.0
C1188 C 0.50882 0.82151 0.33274 0.0
C1189 C 0.50374 0.83356 0.36978 0.0
C1190 C 0.49942 0.87849 0.47072 0.0
C1191 C 0.49892 0.86123 0.43757 0.0
H1192 H 0.48854 0.79396 0.22514 0.0
H1193 H 0.47794 0.80874 0.29154 0.0
H1194 H 0.51805 0.82518 0.4286 0.0
H1195 H 0.53655 0.92287 0.54198 0.0
H1196 H 0.53171 0.8889 0.50329 0.0
C1197 C 0.70386 0.56522 0.19596 0.0
C1198 C 0.7247 0.58411 0.20425 0.0
C1199 C 0.68727 0.56112 0.22602 0.0
C1200 C 0.67018 0.58689 0.31884 0.0
H1201 H 0.63528 0.5263 0.35293 0.0
C1202 C 0.60819 0.56104 0.46476 0.0
C1203 C 0.58786 0.54166 0.4541 0.0
C1204 C 0.62536 0.56698 0.43506 0.0
C1205 C 0.64474 0.54326 0.34346 0.0
H1206 H 0.74433 0.6138 0.24995 0.0
H1207 H 0.71533 0.6066 0.30266 0.0
H1208 H 0.66392 0.53556 0.29859 0.0
H1209 H 0.56976 0.51339 0.40363 0.0
H1210 H 0.59953 0.52378 0.35218 0.0
H1211 H 0.6509 0.59451 0.36404 0.0
C1212 C 0.71175 0.59508 0.27259 0.0
C1213 C 0.66113 0.54857 0.3122 0.0
C1214 C 0.72836 0.59922 0.24237 0.0
C1215 C 0.58517 0.52838 0.41317 0.0
C1216 C 0.6023 0.53427 0.3837 0.0
C1217 C 0.65375 0.58156 0.35027 0.0
C1218 C 0.69113 0.57576 0.26524 0.0
C1219 C 0.67393 0.5704 0.29913 0.0
C1220 C 0.6226 0.55361 0.39426 0.0
C1221 C 0.64072 0.55963 0.36258 0.0
H1222 H 0.70045 0.55347 0.16642 0.0
H1223 H 0.67143 0.54635 0.21872 0.0
H1224 H 0.67963 0.60383 0.30924 0.0
H1225 H 0.61084 0.57168 0.49594 0.0
H1226 H 0.64087 0.5819 0.44434 0.0
C1227 C 0.14094 0.71842 0.29241 0.0
C1228 C 0.16288 0.73554 0.29555 0.0
C1229 C 0.13289 0.70364 0.32788 0.0
C1230 C 0.14081 0.69511 0.4513 0.0
H1231 H 0.11006 0.63313 0.40726 0.0
C1232 C 0.07876 0.62157 0.55271 0.0
C1233 C 0.07675 0.60081 0.54178 0.0
C1234 C 0.0947 0.64041 0.53256 0.0
C1235 C 0.1189 0.65035 0.42033 0.0
H1236 H 0.19334 0.75129 0.33911 0.0
H1237 H 0.17909 0.72548 0.40162 0.0
H1238 H 0.12562 0.66133 0.35074 0.0
H1239 H 0.09207 0.58416 0.50786 0.0
H1240 H 0.12 0.61703 0.47354 0.0
H1241 H 0.1334 0.68392 0.52104 0.0
C1242 C 0.16824 0.72347 0.37154 0.0
C1243 C 0.12755 0.66649 0.38783 0.0
C1244 C 0.17639 0.7381 0.3357 0.0
C1245 C 0.0929 0.59984 0.51614 0.0
C1246 C 0.10884 0.61864 0.49624 0.0
C1247 C 0.13185 0.67887 0.48399 0.0
C1248 C 0.14654 0.70584 0.36745 0.0
C1249 C 0.13834 0.68901 0.40285 0.0
C1250 C 0.10892 0.63875 0.50159 0.0
C1251 C 0.12069 0.6563 0.46872 0.0
H1252 H 0.13021 0.71599 0.26176 0.0
H1253 H 0.11603 0.69028 0.3241 0.0
H1254 H 0.14908 0.71241 0.46371 0.0
H1255 H 0.06668 0.62292 0.5727 0.0
H1256 H 0.09445 0.65573 0.53759 0.0
loop_
_geom_bond_atom_site_label_1
_geom_bond_atom_site_label_2
_geom_bond_distance
_geom_bond_site_symmetry_2
_ccdc_geom_bond_type
H0 O26 0.856 . S
H1 O29 0.854 . S
H2 C37 0.930 . S
H3 C38 0.930 . S
H4 C40 0.930 . S
H5 C41 0.930 . S
H6 C43 0.931 . S
H7 C44 0.930 . S
H8 C46 0.930 . S
H9 C47 0.929 . S
H10 C49 0.930 . S
H11 C50 0.931 . S
H12 C52 0.930 . S
H13 C53 0.929 . S
H14 C55 0.931 . S
H15 C56 0.930 . S
H16 C58 0.930 . S
H17 C59 0.932 . S
H18 C61 0.930 . S
H19 C62 0.929 . S
H20 C64 0.931 . S
H21 C65 0.930 . S
H22 C67 0.929 . S
H23 C68 0.931 . S
H24 C70 0.930 . S
H25 C71 0.929 . S
O26 H0 0.856 . S
O26 C72 1.300 . S
O27 C72 1.209 . S
O28 C73 1.199 . S
O29 H1 0.854 . S
O29 C73 1.297 . S
C30 C31 1.404 . S
C30 C35 1.397 . S
C30 C36 1.492 . S
C31 C30 1.404 . S
C31 C32 1.396 . S
C31 C42 1.492 . S
C32 C31 1.396 . S
C32 C33 1.397 . S
C32 C48 1.509 . S
C33 C32 1.397 . S
C33 C34 1.412 . S
C33 C54 1.485 . S
C34 C33 1.412 . S
C34 C35 1.388 . S
C34 C60 1.490 . S
C35 C30 1.397 . S
C35 C34 1.388 . S
C35 C66 1.519 . S
C36 C30 1.492 . S
C36 C37 1.363 . S
C36 C41 1.390 . S
C37 H2 0.930 . S
C37 C36 1.363 . S
C37 C38 1.372 . S
C38 H3 0.930 . S
C38 C37 1.372 . S
C38 C39 1.383 . S
C39 C38 1.383 . S
C39 C40 1.395 . S
C40 H4 0.930 . S
C40 C39 1.395 . S
C40 C41 1.362 . S
C41 H5 0.930 . S
C41 C36 1.390 . S
C41 C40 1.362 . S
C42 C31 1.492 . S
C42 C43 1.377 . S
C42 C47 1.397 . S
C43 H6 0.931 . S
C43 C42 1.377 . S
C43 C44 1.376 . S
C44 H7 0.930 . S
C44 C43 1.376 . S
C44 C45 1.376 . S
C45 C44 1.376 . S
C45 C46 1.378 . S
C45 C72 1.486 . S
C46 H8 0.930 . S
C46 C45 1.378 . S
C46 C47 1.376 . S
C47 H9 0.929 . S
C47 C42 1.397 . S
C47 C46 1.376 . S
C48 C32 1.509 . S
C48 C49 1.391 . S
C48 C53 1.386 . S
C49 H10 0.930 . S
C49 C48 1.391 . S
C49 C50 1.375 . S
C50 H11 0.931 . S
C50 C49 1.375 . S
C50 C51 1.375 . S
C51 C50 1.375 . S
C51 C52 1.361 . S
C52 H12 0.930 . S
C52 C51 1.361 . S
C52 C53 1.399 . S
C53 H13 0.929 . S
C53 C48 1.386 . S
C53 C52 1.399 . S
C54 C33 1.485 . S
C54 C55 1.394 . S
C54 C59 1.360 . S
C55 H14 0.931 . S
C55 C54 1.394 . S
C55 C56 1.372 . S
C56 H15 0.930 . S
C56 C55 1.372 . S
C56 C57 1.397 . S
C57 C56 1.397 . S
C57 C58 1.390 . S
C57 C73 1.476 . S
C58 H16 0.930 . S
C58 C57 1.390 . S
C58 C59 1.366 . S
C59 H17 0.932 . S
C59 C54 1.360 . S
C59 C58 1.366 . S
C60 C34 1.490 . S
C60 C61 1.380 . S
C60 C65 1.386 . S
C61 H18 0.930 . S
C61 C60 1.380 . S
C61 C62 1.381 . S
C62 H19 0.929 . S
C62 C61 1.381 . S
C62 C63 1.371 . S
C63 C62 1.371 . S
C63 C64 1.380 . S
C64 H20 0.931 . S
C64 C63 1.380 . S
C64 C65 1.387 . S
C65 H21 0.930 . S
C65 C60 1.386 . S
C65 C64 1.387 . S
C66 C35 1.519 . S
C66 C67 1.377 . S
C66 C71 1.361 . S
C67 H22 0.929 . S
C67 C66 1.377 . S
C67 C68 1.386 . S
C68 H23 0.931 . S
C68 C67 1.386 . S
C68 C69 1.363 . S
C69 C68 1.363 . S
C69 C70 1.385 . S
C70 H24 0.930 . S
C70 C69 1.385 . S
C70 C71 1.396 . S
C71 H25 0.929 . S
C71 C66 1.361 . S
C71 C70 1.396 . S
C72 O26 1.300 . S
C72 O27 1.209 . S
C72 C45 1.486 . S
C73 O28 1.199 . S
C73 O29 1.297 . S
C73 C57 1.476 . S
H74 O100 0.856 . S
H75 O103 0.854 . S
H76 C111 0.930 . S
H77 C112 0.930 . S
H78 C114 0.930 . S
H79 C115 0.930 . S
H80 C117 0.931 . S
H81 C118 0.930 . S
H82 C120 0.930 . S
H83 C121 0.929 . S
H84 C123 0.930 . S
H85 C124 0.931 . S
H86 C126 0.930 . S
H87 C127 0.929 . S
H88 C129 0.931 . S
H89 C130 0.930 . S
H90 C132 0.930 . S
H91 C133 0.932 . S
H92 C135 0.925 1_554 S
H93 C136 0.929 . S
H94 C138 0.931 . S
H95 C139 0.930 1_554 S
H96 C141 0.929 . S
H97 C142 0.931 . S
H98 C144 0.930 . S
H99 C145 0.929 . S
O100 H74 0.856 . S
O100 C146 1.300 . S
O101 C146 1.209 . S
O102 C147 1.199 . S
O103 H75 0.854 . S
O103 C147 1.297 . S
C104 C105 1.404 . S
C104 C109 1.397 . S
C104 C110 1.492 . S
C105 C104 1.404 . S
C105 C106 1.396 . S
C105 C116 1.492 . S
C106 C105 1.396 . S
C106 C107 1.397 . S
C106 C122 1.509 . S
C107 C106 1.397 . S
C107 C108 1.412 . S
C107 C128 1.485 . S
C108 C107 1.412 . S
C108 C109 1.388 . S
C108 C134 1.490 . S
C109 C104 1.397 . S
C109 C108 1.388 . S
C109 C140 1.519 . S
C110 C104 1.492 . S
C110 C111 1.363 . S
C110 C115 1.390 . S
C111 H76 0.930 . S
C111 C110 1.363 . S
C111 C112 1.372 . S
C112 H77 0.930 . S
C112 C111 1.372 . S
C112 C113 1.383 . S
C113 C112 1.383 . S
C113 C114 1.395 . S
C114 H78 0.930 . S
C114 C113 1.395 . S
C114 C115 1.362 . S
C115 H79 0.930 . S
C115 C110 1.390 . S
C115 C114 1.362 . S
C116 C105 1.492 . S
C116 C117 1.377 . S
C116 C121 1.397 . S
C117 H80 0.931 . S
C117 C116 1.377 . S
C117 C118 1.376 . S
C118 H81 0.930 . S
C118 C117 1.376 . S
C118 C119 1.376 . S
C119 C118 1.376 . S
C119 C120 1.378 . S
C119 C146 1.486 . S
C120 H82 0.930 . S
C120 C119 1.378 . S
C120 C121 1.376 . S
C121 H83 0.929 . S
C121 C116 1.397 . S
C121 C120 1.376 . S
C122 C106 1.509 . S
C122 C123 1.391 . S
C122 C127 1.386 . S
C123 H84 0.930 . S
C123 C122 1.391 . S
C123 C124 1.375 . S
C124 H85 0.931 . S
C124 C123 1.375 . S
C124 C125 1.375 . S
C125 C124 1.375 . S
C125 C126 1.361 . S
C126 H86 0.930 . S
C126 C125 1.361 . S
C126 C127 1.399 . S
C127 H87 0.929 . S
C127 C122 1.386 . S
C127 C126 1.399 . S
C128 C107 1.485 . S
C128 C129 1.394 . S
C128 C133 1.360 . S
C129 H88 0.931 . S
C129 C128 1.394 . S
C129 C130 1.372 . S
C130 H89 0.930 . S
C130 C129 1.372 . S
C130 C131 1.397 . S
C131 C130 1.397 . S
C131 C132 1.390 . S
C131 C147 1.476 . S
C132 H90 0.930 . S
C132 C131 1.390 . S
C132 C133 1.366 . S
C133 H91 0.932 . S
C133 C128 1.360 . S
C133 C132 1.366 . S
C134 C108 1.490 . S
C134 C135 1.375 1_554 S
C134 C139 1.386 1_554 S
C135 H92 0.925 1_556 S
C135 C134 1.375 1_556 S
C135 C136 1.392 . S
C136 H93 0.929 . S
C136 C135 1.392 . S
C136 C137 1.371 . S
C137 C136 1.371 . S
C137 C138 1.380 . S
C138 H94 0.931 . S
C138 C137 1.380 . S
C138 C139 1.387 . S
C139 H95 0.930 1_556 S
C139 C134 1.386 1_556 S
C139 C138 1.387 . S
C140 C109 1.519 . S
C140 C141 1.377 . S
C140 C145 1.361 . S
C141 H96 0.929 . S
C141 C140 1.377 . S
C141 C142 1.386 . S
C142 H97 0.931 . S
C142 C141 1.386 . S
C142 C143 1.363 1_554 S
C143 C142 1.363 1_556 S
C143 C144 1.385 . S
C144 H98 0.930 . S
C144 C143 1.385 . S
C144 C145 1.396 1_556 S
C145 H99 0.929 . S
C145 C140 1.361 . S
C145 C144 1.396 1_554 S
C146 O100 1.300 . S
C146 O101 1.209 . S
C146 C119 1.486 . S
C147 O102 1.199 . S
C147 O103 1.297 . S
C147 C131 1.476 . S
H148 O174 0.856 . S
H149 O177 0.854 . S
H150 C185 0.930 . S
H151 C186 0.930 . S
H152 C188 0.930 . S
H153 C189 0.930 . S
H154 C191 0.931 . S
H155 C192 0.930 . S
H156 C194 0.930 . S
H157 C195 0.929 . S
H158 C197 0.930 . S
H159 C198 0.931 . S
H160 C200 0.930 . S
H161 C201 0.929 . S
H162 C203 0.931 . S
H163 C204 0.930 . S
H164 C206 0.930 . S
H165 C207 0.932 1_556 S
H166 C209 0.930 . S
H167 C210 0.929 . S
H168 C212 0.931 . S
H169 C213 0.930 . S
H170 C215 0.929 . S
H171 C216 0.931 . S
H172 C218 0.930 . S
H173 C219 0.929 . S
O174 H148 0.856 . S
O174 C220 1.300 . S
O175 C220 1.209 . S
O176 C221 1.199 . S
O177 H149 0.854 . S
O177 C221 1.297 . S
C178 C179 1.404 . S
C178 C183 1.397 1_556 S
C178 C184 1.492 . S
C179 C178 1.404 . S
C179 C180 1.396 . S
C179 C190 1.492 . S
C180 C179 1.396 . S
C180 C181 1.397 1_556 S
C180 C196 1.509 . S
C181 C180 1.397 1_554 S
C181 C182 1.412 . S
C181 C202 1.485 . S
C182 C181 1.412 . S
C182 C183 1.388 . S
C182 C208 1.490 . S
C183 C178 1.397 1_554 S
C183 C182 1.388 . S
C183 C214 1.519 . S
C184 C178 1.492 . S
C184 C185 1.363 . S
C184 C189 1.390 . S
C185 H150 0.930 . S
C185 C184 1.363 . S
C185 C186 1.372 . S
C186 H151 0.930 . S
C186 C185 1.372 . S
C186 C187 1.383 . S
C187 C186 1.383 . S
C187 C188 1.395 . S
C188 H152 0.930 . S
C188 C187 1.395 . S
C188 C189 1.362 . S
C189 H153 0.930 . S
C189 C184 1.390 . S
C189 C188 1.362 . S
C190 C179 1.492 . S
C190 C191 1.377 . S
C190 C195 1.397 . S
C191 H154 0.931 . S
C191 C190 1.377 . S
C191 C192 1.376 . S
C192 H155 0.930 . S
C192 C191 1.376 . S
C192 C193 1.376 . S
C193 C192 1.376 . S
C193 C194 1.378 . S
C193 C220 1.486 . S
C194 H156 0.930 . S
C194 C193 1.378 . S
C194 C195 1.376 . S
C195 H157 0.929 . S
C195 C190 1.397 . S
C195 C194 1.376 . S
C196 C180 1.509 . S
C196 C197 1.391 . S
C196 C201 1.386 . S
C197 H158 0.930 . S
C197 C196 1.391 . S
C197 C198 1.375 . S
C198 H159 0.931 . S
C198 C197 1.375 . S
C198 C199 1.375 . S
C199 C198 1.375 . S
C199 C200 1.361 . S
C200 H160 0.930 . S
C200 C199 1.361 . S
C200 C201 1.399 . S
C201 H161 0.929 . S
C201 C196 1.386 . S
C201 C200 1.399 . S
C202 C181 1.485 . S
C202 C203 1.394 . S
C202 C207 1.360 . S
C203 H162 0.931 . S
C203 C202 1.394 . S
C203 C204 1.372 . S
C204 H163 0.930 . S
C204 C203 1.372 . S
C204 C205 1.397 . S
C205 C204 1.397 . S
C205 C206 1.390 . S
C205 C221 1.476 . S
C206 H164 0.930 . S
C206 C205 1.390 . S
C206 C207 1.366 . S
C207 H165 0.932 1_554 S
C207 C202 1.360 . S
C207 C206 1.366 . S
C208 C182 1.490 . S
C208 C209 1.380 . S
C208 C213 1.386 . S
C209 H166 0.930 . S
C209 C208 1.380 . S
C209 C210 1.381 . S
C210 H167 0.929 . S
C210 C209 1.381 . S
C210 C211 1.371 . S
C211 C210 1.371 . S
C211 C212 1.380 . S
C212 H168 0.931 . S
C212 C211 1.380 . S
C212 C213 1.387 . S
C213 H169 0.930 . S
C213 C208 1.386 . S
C213 C212 1.387 . S
C214 C183 1.519 . S
C214 C215 1.377 . S
C214 C219 1.361 . S
C215 H170 0.929 . S
C215 C214 1.377 . S
C215 C216 1.386 . S
C216 H171 0.931 . S
C216 C215 1.386 . S
C216 C217 1.363 . S
C217 C216 1.363 . S
C217 C218 1.385 . S
C218 H172 0.930 . S
C218 C217 1.385 . S
C218 C219 1.396 . S
C219 H173 0.929 . S
C219 C214 1.361 . S
C219 C218 1.396 . S
C220 O174 1.300 . S
C220 O175 1.209 . S
C220 C193 1.486 . S
C221 O176 1.199 . S
C221 O177 1.297 . S
C221 C205 1.476 . S
H222 O248 0.856 . S
H223 O251 0.854 . S
H224 C259 0.930 . S
H225 C260 0.930 . S
H226 C262 0.930 . S
H227 C263 0.930 . S
H228 C265 0.931 . S
H229 C266 0.930 . S
H230 C268 0.930 . S
H231 C269 0.929 . S
H232 C271 0.930 . S
H233 C272 0.931 . S
H234 C274 0.930 . S
H235 C275 0.929 . S
H236 C277 0.931 . S
H237 C278 0.940 . S
H238 C280 0.930 . S
H239 C281 0.932 . S
H240 C283 0.930 . S
H241 C284 0.929 . S
H242 C286 0.931 . S
H243 C287 0.930 . S
H244 C289 0.929 . S
H245 C290 0.931 . S
H246 C292 0.930 . S
H247 C293 0.929 . S
O248 H222 0.856 . S
O248 C294 1.300 . S
O249 C294 1.209 . S
O250 C295 1.199 . S
O251 H223 0.854 . S
O251 C295 1.297 1_554 S
C252 C253 1.404 . S
C252 C257 1.397 . S
C252 C258 1.492 . S
C253 C252 1.404 . S
C253 C254 1.396 . S
C253 C264 1.492 . S
C254 C253 1.396 . S
C254 C255 1.397 . S
C254 C270 1.509 . S
C255 C254 1.397 . S
C255 C256 1.412 . S
C255 C276 1.485 . S
C256 C255 1.412 . S
C256 C257 1.388 . S
C256 C282 1.490 1_554 S
C257 C252 1.397 . S
C257 C256 1.388 . S
C257 C288 1.519 1_554 S
C258 C252 1.492 . S
C258 C259 1.363 . S
C258 C263 1.390 . S
C259 H224 0.930 . S
C259 C258 1.363 . S
C259 C260 1.372 . S
C260 H225 0.930 . S
C260 C259 1.372 . S
C260 C261 1.383 . S
C261 C260 1.383 . S
C261 C262 1.395 . S
C262 H226 0.930 . S
C262 C261 1.395 . S
C262 C263 1.362 . S
C263 H227 0.930 . S
C263 C258 1.390 . S
C263 C262 1.362 . S
C264 C253 1.492 . S
C264 C265 1.377 . S
C264 C269 1.397 . S
C265 H228 0.931 . S
C265 C264 1.377 . S
C265 C266 1.376 . S
C266 H229 0.930 . S
C266 C265 1.376 . S
C266 C267 1.376 . S
C267 C266 1.376 . S
C267 C268 1.378 . S
C267 C294 1.486 . S
C268 H230 0.930 . S
C268 C267 1.378 . S
C268 C269 1.376 . S
C269 H231 0.929 . S
C269 C264 1.397 . S
C269 C268 1.376 . S
C270 C254 1.509 . S
C270 C271 1.391 . S
C270 C275 1.386 . S
C271 H232 0.930 . S
C271 C270 1.391 . S
C271 C272 1.375 . S
C272 H233 0.931 . S
C272 C271 1.375 . S
C272 C273 1.375 . S
C273 C272 1.375 . S
C273 C274 1.361 . S
C274 H234 0.930 . S
C274 C273 1.361 . S
C274 C275 1.399 . S
C275 H235 0.929 . S
C275 C270 1.386 . S
C275 C274 1.399 . S
C276 C255 1.485 . S
C276 C277 1.394 . S
C276 C281 1.360 . S
C277 H236 0.931 . S
C277 C276 1.394 . S
C277 C278 1.366 1_554 S
C278 H237 0.940 . S
C278 C277 1.366 1_556 S
C278 C279 1.393 1_556 S
C279 C278 1.393 1_554 S
C279 C280 1.390 . S
C279 C295 1.476 1_554 S
C280 H238 0.930 . S
C280 C279 1.390 . S
C280 C281 1.366 . S
C281 H239 0.932 . S
C281 C276 1.360 . S
C281 C280 1.366 . S
C282 C256 1.490 1_556 S
C282 C283 1.380 . S
C282 C287 1.386 . S
C283 H240 0.930 . S
C283 C282 1.380 . S
C283 C284 1.381 . S
C284 H241 0.929 . S
C284 C283 1.381 . S
C284 C285 1.371 . S
C285 C284 1.371 . S
C285 C286 1.380 . S
C286 H242 0.931 . S
C286 C285 1.380 . S
C286 C287 1.387 . S
C287 H243 0.930 . S
C287 C282 1.386 . S
C287 C286 1.387 . S
C288 C257 1.519 1_556 S
C288 C289 1.377 . S
C288 C293 1.361 . S
C289 H244 0.929 . S
C289 C288 1.377 . S
C289 C290 1.386 . S
C290 H245 0.931 . S
C290 C289 1.386 . S
C290 C291 1.363 . S
C291 C290 1.363 . S
C291 C292 1.385 . S
C292 H246 0.930 . S
C292 C291 1.385 . S
C292 C293 1.396 . S
C293 H247 0.929 . S
C293 C288 1.361 . S
C293 C292 1.396 . S
C294 O248 1.300 . S
C294 O249 1.209 . S
C294 C267 1.486 . S
C295 O250 1.199 . S
C295 O251 1.297 1_556 S
C295 C279 1.476 1_556 S
H296 O322 0.856 . S
H297 O325 0.854 . S
H298 C333 0.930 . S
H299 C334 0.930 . S
H300 C336 0.930 . S
H301 C337 0.930 . S
H302 C339 0.931 . S
H303 C340 0.930 . S
H304 C342 0.930 . S
H305 C343 0.929 . S
H306 C345 0.930 . S
H307 C346 0.931 . S
H308 C348 0.930 . S
H309 C349 0.929 . S
H310 C351 0.931 . S
H311 C352 0.930 . S
H312 C354 0.930 . S
H313 C355 0.932 . S
H314 C357 0.930 . S
H315 C358 0.929 . S
H316 C360 0.931 . S
H317 C361 0.930 . S
H318 C363 0.929 . S
H319 C364 0.931 . S
H320 C366 0.930 1_556 S
H321 C367 0.929 . S
O322 H296 0.856 . S
O322 C368 1.300 . S
O323 C368 1.209 . S
O324 C369 1.199 . S
O325 H297 0.854 . S
O325 C369 1.297 . S
C326 C327 1.404 . S
C326 C331 1.397 . S
C326 C332 1.492 . S
C327 C326 1.404 . S
C327 C328 1.396 . S
C327 C338 1.492 . S
C328 C327 1.396 . S
C328 C329 1.397 . S
C328 C344 1.509 . S
C329 C328 1.397 . S
C329 C330 1.412 . S
C329 C350 1.485 . S
C330 C329 1.412 . S
C330 C331 1.388 . S
C330 C356 1.490 . S
C331 C326 1.397 . S
C331 C330 1.388 . S
C331 C362 1.519 . S
C332 C326 1.492 . S
C332 C333 1.363 . S
C332 C337 1.390 . S
C333 H298 0.930 . S
C333 C332 1.363 . S
C333 C334 1.372 . S
C334 H299 0.930 . S
C334 C333 1.372 . S
C334 C335 1.383 . S
C335 C334 1.383 . S
C335 C336 1.395 . S
C336 H300 0.930 . S
C336 C335 1.395 . S
C336 C337 1.362 . S
C337 H301 0.930 . S
C337 C332 1.390 . S
C337 C336 1.362 . S
C338 C327 1.492 . S
C338 C339 1.377 . S
C338 C343 1.397 . S
C339 H302 0.931 . S
C339 C338 1.377 . S
C339 C340 1.376 . S
C340 H303 0.930 . S
C340 C339 1.376 . S
C340 C341 1.376 . S
C341 C340 1.376 . S
C341 C342 1.378 . S
C341 C368 1.486 . S
C342 H304 0.930 . S
C342 C341 1.378 . S
C342 C343 1.376 . S
C343 H305 0.929 . S
C343 C338 1.397 . S
C343 C342 1.376 . S
C344 C328 1.509 . S
C344 C345 1.391 . S
C344 C349 1.386 . S
C345 H306 0.930 . S
C345 C344 1.391 . S
C345 C346 1.375 . S
C346 H307 0.931 . S
C346 C345 1.375 . S
C346 C347 1.375 . S
C347 C346 1.375 . S
C347 C348 1.361 . S
C348 H308 0.930 . S
C348 C347 1.361 . S
C348 C349 1.399 . S
C349 H309 0.929 . S
C349 C344 1.386 . S
C349 C348 1.399 . S
C350 C329 1.485 . S
C350 C351 1.394 . S
C350 C355 1.360 . S
C351 H310 0.931 . S
C351 C350 1.394 . S
C351 C352 1.372 . S
C352 H311 0.930 . S
C352 C351 1.372 . S
C352 C353 1.397 . S
C353 C352 1.397 . S
C353 C354 1.390 . S
C353 C369 1.476 . S
C354 H312 0.930 . S
C354 C353 1.390 . S
C354 C355 1.366 . S
C355 H313 0.932 . S
C355 C350 1.360 . S
C355 C354 1.366 . S
C356 C330 1.490 . S
C356 C357 1.380 . S
C356 C361 1.386 . S
C357 H314 0.930 . S
C357 C356 1.380 . S
C357 C358 1.381 1_554 S
C358 H315 0.929 . S
C358 C357 1.381 1_556 S
C358 C359 1.371 . S
C359 C358 1.371 . S
C359 C360 1.380 . S
C360 H316 0.931 . S
C360 C359 1.380 . S
C360 C361 1.387 1_556 S
C361 H317 0.930 . S
C361 C356 1.386 . S
C361 C360 1.387 1_554 S
C362 C331 1.519 . S
C362 C363 1.377 . S
C362 C367 1.361 . S
C363 H318 0.929 . S
C363 C362 1.377 . S
C363 C364 1.386 . S
C364 H319 0.931 . S
C364 C363 1.386 . S
C364 C365 1.371 . S
C365 C364 1.371 . S
C365 C366 1.389 . S
C366 H320 0.930 1_554 S
C366 C365 1.389 . S
C366 C367 1.396 . S
C367 H321 0.929 . S
C367 C362 1.361 . S
C367 C366 1.396 . S
C368 O322 1.300 . S
C368 O323 1.209 . S
C368 C341 1.486 . S
C369 O324 1.199 . S
C369 O325 1.297 . S
C369 C353 1.476 . S
H370 O396 0.856 . S
H371 O399 0.854 . S
H372 C407 0.930 . S
H373 C408 0.930 . S
H374 C410 0.930 . S
H375 C411 0.930 . S
H376 C413 0.931 1_554 S
H377 C414 0.930 . S
H378 C416 0.930 . S
H379 C417 0.929 . S
H380 C419 0.930 . S
H381 C420 0.931 . S
H382 C422 0.930 . S
H383 C423 0.929 . S
H384 C425 0.931 . S
H385 C426 0.930 . S
H386 C428 0.930 . S
H387 C429 0.932 . S
H388 C431 0.930 . S
H389 C432 0.929 . S
H390 C434 0.931 . S
H391 C435 0.930 . S
H392 C437 0.929 . S
H393 C438 0.931 . S
H394 C440 0.930 . S
H395 C441 0.929 . S
O396 H370 0.856 . S
O396 C442 1.300 . S
O397 C442 1.209 . S
O398 C443 1.199 . S
O399 H371 0.854 . S
O399 C443 1.297 . S
C400 C401 1.404 . S
C400 C405 1.397 . S
C400 C406 1.492 . S
C401 C400 1.404 . S
C401 C402 1.396 . S
C401 C412 1.492 . S
C402 C401 1.396 . S
C402 C403 1.397 . S
C402 C418 1.509 . S
C403 C402 1.397 . S
C403 C404 1.412 . S
C403 C424 1.485 . S
C404 C403 1.412 . S
C404 C405 1.388 . S
C404 C430 1.490 . S
C405 C400 1.397 . S
C405 C404 1.388 . S
C405 C436 1.519 . S
C406 C400 1.492 . S
C406 C407 1.363 . S
C406 C411 1.390 . S
C407 H372 0.930 . S
C407 C406 1.363 . S
C407 C408 1.372 . S
C408 H373 0.930 . S
C408 C407 1.372 . S
C408 C409 1.383 . S
C409 C408 1.383 . S
C409 C410 1.395 . S
C410 H374 0.930 . S
C410 C409 1.395 . S
C410 C411 1.362 . S
C411 H375 0.930 . S
C411 C406 1.390 . S
C411 C410 1.362 . S
C412 C401 1.492 . S
C412 C413 1.377 1_554 S
C412 C417 1.397 . S
C413 H376 0.931 1_556 S
C413 C412 1.377 1_556 S
C413 C414 1.376 . S
C414 H377 0.930 . S
C414 C413 1.376 . S
C414 C415 1.376 . S
C415 C414 1.376 . S
C415 C416 1.378 . S
C415 C442 1.486 . S
C416 H378 0.930 . S
C416 C415 1.378 . S
C416 C417 1.376 1_556 S
C417 H379 0.929 . S
C417 C412 1.397 . S
C417 C416 1.376 1_554 S
C418 C402 1.509 . S
C418 C419 1.391 . S
C418 C423 1.386 . S
C419 H380 0.930 . S
C419 C418 1.391 . S
C419 C420 1.375 1_554 S
C420 H381 0.931 . S
C420 C419 1.375 1_556 S
C420 C421 1.375 . S
C421 C420 1.375 . S
C421 C422 1.361 . S
C422 H382 0.930 . S
C422 C421 1.361 . S
C422 C423 1.399 1_556 S
C423 H383 0.929 . S
C423 C418 1.386 . S
C423 C422 1.399 1_554 S
C424 C403 1.485 . S
C424 C425 1.394 . S
C424 C429 1.360 . S
C425 H384 0.931 . S
C425 C424 1.394 . S
C425 C426 1.372 . S
C426 H385 0.930 . S
C426 C425 1.372 . S
C426 C427 1.397 . S
C427 C426 1.397 . S
C427 C428 1.390 . S
C427 C443 1.476 . S
C428 H386 0.930 . S
C428 C427 1.390 . S
C428 C429 1.366 . S
C429 H387 0.932 . S
C429 C424 1.360 . S
C429 C428 1.366 . S
C430 C404 1.490 . S
C430 C431 1.380 . S
C430 C435 1.386 . S
C431 H388 0.930 . S
C431 C430 1.380 . S
C431 C432 1.381 . S
C432 H389 0.929 . S
C432 C431 1.381 . S
C432 C433 1.371 . S
C433 C432 1.371 . S
C433 C434 1.380 . S
C434 H390 0.931 . S
C434 C433 1.380 . S
C434 C435 1.387 . S
C435 H391 0.930 . S
C435 C430 1.386 . S
C435 C434 1.387 . S
C436 C405 1.519 . S
C436 C437 1.377 . S
C436 C441 1.361 . S
C437 H392 0.929 . S
C437 C436 1.377 . S
C437 C438 1.386 . S
C438 H393 0.931 . S
C438 C437 1.386 . S
C438 C439 1.363 . S
C439 C438 1.363 . S
C439 C440 1.385 . S
C440 H394 0.930 . S
C440 C439 1.385 . S
C440 C441 1.396 . S
C441 H395 0.929 . S
C441 C436 1.361 . S
C441 C440 1.396 . S
C442 O396 1.300 . S
C442 O397 1.209 . S
C442 C415 1.486 . S
C443 O398 1.199 . S
C443 O399 1.297 . S
C443 C427 1.476 . S
C444 O471 1.312 . S
C444 O472 1.208 . S
C445 O466 1.331 . S
C445 O469 1.244 . S
C446 O468 1.264 . S
C446 O470 1.273 . S
Mg447 O449 1.936 . S
Mg447 O456 2.081 1_455 S
Mg447 O458 2.023 . S
Mg447 O462 2.031 1_455 S
Mg447 O471 2.291 . S
Mg448 O449 1.963 . S
Mg448 O459 1.942 1_455 S
Mg448 O460 1.955 . S
Mg448 O467 1.986 1_455 S
O449 Mg447 1.936 . S
O449 Mg448 1.963 . S
O449 Mg450 1.915 . S
Mg450 O449 1.915 . S
Mg450 O451 1.915 . S
Mg450 O455 2.013 . S
Mg450 O461 2.114 1_455 S
Mg450 O465 2.013 1_455 S
Mg450 O471 2.114 . S
O451 Mg450 1.915 . S
O451 Mg452 1.936 . S
O451 Mg453 1.963 . S
Mg452 O451 1.936 . S
Mg452 O461 2.291 1_455 S
Mg452 O466 2.081 . S
Mg452 O468 2.023 1_455 S
Mg452 O472 2.031 . S
Mg453 O451 1.963 . S
Mg453 O457 1.986 . S
Mg453 O469 1.942 . S
Mg453 O470 1.955 1_455 S
C454 O465 1.191 . S
C454 O467 1.307 . S
O455 Mg450 2.013 . S
O455 C474 1.191 . S
O456 Mg447 2.081 1_655 S
O456 C464 1.331 . S
O457 Mg453 1.986 . S
O457 C474 1.307 . S
O458 Mg447 2.023 . S
O458 C473 1.264 . S
O459 Mg448 1.942 1_655 S
O459 C464 1.244 . S
O460 Mg448 1.955 . S
O460 C473 1.273 . S
O461 Mg450 2.114 1_655 S
O461 Mg452 2.291 1_655 S
O461 C463 1.312 . S
O462 Mg447 2.031 1_655 S
O462 C463 1.208 . S
C463 O461 1.312 . S
C463 O462 1.208 . S
C464 O456 1.331 . S
C464 O459 1.244 . S
O465 Mg450 2.013 1_655 S
O465 C454 1.191 . S
O466 C445 1.331 . S
O466 Mg452 2.081 . S
O467 Mg448 1.986 1_655 S
O467 C454 1.307 . S
O468 C446 1.264 . S
O468 Mg452 2.023 1_655 S
O469 C445 1.244 . S
O469 Mg453 1.942 . S
O470 C446 1.273 . S
O470 Mg453 1.955 1_655 S
O471 C444 1.312 . S
O471 Mg447 2.291 . S
O471 Mg450 2.114 . S
O472 C444 1.208 . S
O472 Mg452 2.031 . S
C473 O458 1.264 . S
C473 O460 1.273 . S
C474 O455 1.191 . S
C474 O457 1.307 . S
C475 O502 1.312 . S
C475 O503 1.208 . S
C476 O497 1.331 . S
C476 O500 1.244 . S
C477 O499 1.264 . S
C477 O501 1.273 . S
Mg478 O480 1.936 . S
Mg478 O487 2.081 1_545 S
Mg478 O489 2.023 . S
Mg478 O493 2.031 1_545 S
Mg478 O502 2.291 . S
Mg479 O480 1.963 . S
Mg479 O490 1.942 1_545 S
Mg479 O491 1.955 . S
Mg479 O498 1.986 1_545 S
O480 Mg478 1.936 . S
O480 Mg479 1.963 . S
O480 Mg481 1.915 . S
Mg481 O480 1.915 . S
Mg481 O482 1.915 . S
Mg481 O486 2.013 . S
Mg481 O492 2.114 1_545 S
Mg481 O496 2.013 1_545 S
Mg481 O502 2.114 . S
O482 Mg481 1.915 . S
O482 Mg483 1.936 . S
O482 Mg484 1.963 . S
Mg483 O482 1.936 . S
Mg483 O492 2.291 1_545 S
Mg483 O497 2.081 . S
Mg483 O499 2.023 1_545 S
Mg483 O503 2.031 . S
Mg484 O482 1.963 . S
Mg484 O488 1.986 . S
Mg484 O500 1.942 . S
Mg484 O501 1.955 1_545 S
C485 O496 1.191 . S
C485 O498 1.307 . S
O486 Mg481 2.013 . S
O486 C505 1.191 . S
O487 Mg478 2.081 1_565 S
O487 C495 1.331 . S
O488 Mg484 1.986 . S
O488 C505 1.307 . S
O489 Mg478 2.023 . S
O489 C504 1.264 . S
O490 Mg479 1.942 1_565 S
O490 C495 1.244 . S
O491 Mg479 1.955 . S
O491 C504 1.273 . S
O492 Mg481 2.114 1_565 S
O492 Mg483 2.291 1_565 S
O492 C494 1.312 . S
O493 Mg478 2.031 1_565 S
O493 C494 1.208 . S
C494 O492 1.312 . S
C494 O493 1.208 . S
C495 O487 1.331 . S
C495 O490 1.244 . S
O496 Mg481 2.013 1_565 S
O496 C485 1.191 . S
O497 C476 1.331 . S
O497 Mg483 2.081 . S
O498 Mg479 1.986 1_565 S
O498 C485 1.307 . S
O499 C477 1.264 . S
O499 Mg483 2.023 1_565 S
O500 C476 1.244 . S
O500 Mg484 1.942 . S
O501 C477 1.273 . S
O501 Mg484 1.955 1_565 S
O502 C475 1.312 . S
O502 Mg478 2.291 . S
O502 Mg481 2.114 . S
O503 C475 1.208 . S
O503 Mg483 2.031 . S
C504 O489 1.264 . S
C504 O491 1.273 . S
C505 O486 1.191 . S
C505 O488 1.307 . S
C506 O533 1.312 . S
C506 O534 1.208 . S
C507 O528 1.331 . S
C507 O531 1.244 . S
C508 O530 1.264 . S
C508 O532 1.273 . S
Mg509 O511 1.936 . S
Mg509 O518 2.081 . S
Mg509 O520 2.023 . S
Mg509 O524 2.031 . S
Mg509 O533 2.291 . S
Mg510 O511 1.963 . S
Mg510 O521 1.942 . S
Mg510 O522 1.955 . S
Mg510 O529 1.986 . S
O511 Mg509 1.936 . S
O511 Mg510 1.963 . S
O511 Mg512 1.915 . S
Mg512 O511 1.915 . S
Mg512 O513 1.915 . S
Mg512 O517 2.013 . S
Mg512 O523 2.114 . S
Mg512 O527 2.013 . S
Mg512 O533 2.114 . S
O513 Mg512 1.915 . S
O513 Mg514 1.936 . S
O513 Mg515 1.963 . S
Mg514 O513 1.936 . S
Mg514 O523 2.291 . S
Mg514 O528 2.081 . S
Mg514 O530 2.023 . S
Mg514 O534 2.031 . S
Mg515 O513 1.963 . S
Mg515 O519 1.986 . S
Mg515 O531 1.942 . S
Mg515 O532 1.955 . S
C516 O527 1.191 . S
C516 O529 1.307 . S
O517 Mg512 2.013 . S
O517 C536 1.191 . S
O518 Mg509 2.081 . S
O518 C526 1.331 . S
O519 Mg515 1.986 . S
O519 C536 1.307 . S
O520 Mg509 2.023 . S
O520 C535 1.264 . S
O521 Mg510 1.942 . S
O521 C526 1.244 . S
O522 Mg510 1.955 . S
O522 C535 1.273 . S
O523 Mg512 2.114 . S
O523 Mg514 2.291 . S
O523 C525 1.312 . S
O524 Mg509 2.031 . S
O524 C525 1.208 . S
C525 O523 1.312 . S
C525 O524 1.208 . S
C526 O518 1.331 . S
C526 O521 1.244 . S
O527 Mg512 2.013 . S
O527 C516 1.191 . S
O528 C507 1.331 . S
O528 Mg514 2.081 . S
O529 Mg510 1.986 . S
O529 C516 1.307 . S
O530 C508 1.264 . S
O530 Mg514 2.023 . S
O531 C507 1.244 . S
O531 Mg515 1.942 . S
O532 C508 1.273 . S
O532 Mg515 1.955 . S
O533 C506 1.312 . S
O533 Mg509 2.291 . S
O533 Mg512 2.114 . S
O534 C506 1.208 . S
O534 Mg514 2.031 . S
C535 O520 1.264 . S
C535 O522 1.273 . S
C536 O517 1.191 . S
C536 O519 1.307 . S
C537 C538 1.349 . S
C537 C539 1.327 . S
C537 H562 0.950 . S
C538 C537 1.349 . S
C538 C554 1.349 . S
C539 C537 1.327 . S
C539 C558 1.429 . S
C539 H563 0.950 . S
C540 C557 1.574 . S
C540 C559 1.368 . S
C540 H564 0.949 . S
H541 C545 0.949 . S
C542 C543 1.349 . S
C542 C544 1.327 . S
C542 H565 0.950 . S
C543 C542 1.349 . S
C543 C555 1.349 . S
C544 C542 1.327 . S
C544 C560 1.429 . S
C544 H566 0.950 . S
C545 H541 0.949 . S
C545 C553 1.574 . S
C545 C561 1.368 . S
H546 C554 0.950 . S
H547 C552 0.950 . S
H548 C553 0.949 . S
H549 C555 0.950 . S
H550 C556 0.950 . S
H551 C557 0.949 . S
C552 H547 0.950 . S
C552 C554 1.327 . S
C552 C558 1.429 . S
C553 C545 1.574 . S
C553 H548 0.949 . S
C553 C559 1.368 . S
C554 C538 1.349 . S
C554 H546 0.950 . S
C554 C552 1.327 . S
C555 C543 1.349 . S
C555 H549 0.950 . S
C555 C556 1.327 . S
C556 H550 0.950 . S
C556 C555 1.327 . S
C556 C560 1.429 . S
C557 C540 1.574 . S
C557 H551 0.949 . S
C557 C561 1.368 . S
C558 C539 1.429 . S
C558 C552 1.429 . S
C558 C559 1.523 . S
C559 C540 1.368 . S
C559 C553 1.368 . S
C559 C558 1.523 . S
C560 C544 1.429 . S
C560 C556 1.429 . S
C560 C561 1.523 . S
C561 C545 1.368 . S
C561 C557 1.368 . S
C561 C560 1.523 . S
H562 C537 0.950 . S
H563 C539 0.950 . S
H564 C540 0.949 . S
H565 C542 0.950 . S
H566 C544 0.950 . S
C567 C568 1.349 . S
C567 C569 1.327 . S
C567 H592 0.950 . S
C568 C567 1.349 . S
C568 C584 1.349 . S
C569 C567 1.327 . S
C569 C588 1.429 . S
C569 H593 0.950 . S
C570 C587 1.574 . S
C570 C589 1.368 . S
C570 H594 0.949 . S
H571 C575 0.949 . S
C572 C573 1.349 . S
C572 C574 1.327 . S
C572 H595 0.950 . S
C573 C572 1.349 . S
C573 C585 1.349 . S
C574 C572 1.327 . S
C574 C590 1.429 . S
C574 H596 0.950 . S
C575 H571 0.949 . S
C575 C583 1.574 . S
C575 C591 1.368 . S
H576 C584 0.950 . S
H577 C582 0.950 . S
H578 C583 0.949 . S
H579 C585 0.950 . S
H580 C586 0.950 . S
H581 C587 0.949 . S
C582 H577 0.950 . S
C582 C584 1.327 . S
C582 C588 1.429 . S
C583 C575 1.574 . S
C583 H578 0.949 . S
C583 C589 1.368 . S
C584 C568 1.349 . S
C584 H576 0.950 . S
C584 C582 1.327 . S
C585 C573 1.349 . S
C585 H579 0.950 . S
C585 C586 1.327 . S
C586 H580 0.950 . S
C586 C585 1.327 . S
C586 C590 1.429 . S
C587 C570 1.574 . S
C587 H581 0.949 . S
C587 C591 1.368 . S
C588 C569 1.429 . S
C588 C582 1.429 . S
C588 C589 1.523 . S
C589 C570 1.368 . S
C589 C583 1.368 . S
C589 C588 1.523 . S
C590 C574 1.429 . S
C590 C586 1.429 . S
C590 C591 1.523 . S
C591 C575 1.368 . S
C591 C587 1.368 . S
C591 C590 1.523 . S
H592 C567 0.950 . S
H593 C569 0.950 . S
H594 C570 0.949 . S
H595 C572 0.950 . S
H596 C574 0.950 . S
C597 C598 1.349 . S
C597 C599 1.327 . S
C597 H622 0.950 . S
C598 C597 1.349 . S
C598 C614 1.349 . S
C599 C597 1.327 . S
C599 C618 1.429 . S
C599 H623 0.950 . S
C600 C617 1.574 . S
C600 C619 1.368 . S
C600 H624 0.949 . S
H601 C605 0.949 . S
C602 C603 1.349 . S
C602 C604 1.327 . S
C602 H625 0.950 . S
C603 C602 1.349 . S
C603 C615 1.349 . S
C604 C602 1.327 . S
C604 C620 1.429 . S
C604 H626 0.950 . S
C605 H601 0.949 . S
C605 C613 1.574 . S
C605 C621 1.368 . S
H606 C614 0.950 . S
H607 C612 0.950 . S
H608 C613 0.949 . S
H609 C615 0.950 . S
H610 C616 0.950 . S
H611 C617 0.949 . S
C612 H607 0.950 . S
C612 C614 1.327 . S
C612 C618 1.429 . S
C613 C605 1.574 . S
C613 H608 0.949 . S
C613 C619 1.368 . S
C614 C598 1.349 . S
C614 H606 0.950 . S
C614 C612 1.327 . S
C615 C603 1.349 . S
C615 H609 0.950 . S
C615 C616 1.327 . S
C616 H610 0.950 . S
C616 C615 1.327 . S
C616 C620 1.429 . S
C617 C600 1.574 . S
C617 H611 0.949 . S
C617 C621 1.368 . S
C618 C599 1.429 . S
C618 C612 1.429 . S
C618 C619 1.523 . S
C619 C600 1.368 . S
C619 C613 1.368 . S
C619 C618 1.523 . S
C620 C604 1.429 . S
C620 C616 1.429 . S
C620 C621 1.523 . S
C621 C605 1.368 . S
C621 C617 1.368 . S
C621 C620 1.523 . S
H622 C597 0.950 . S
H623 C599 0.950 . S
H624 C600 0.949 . S
H625 C602 0.950 . S
H626 C604 0.950 . S
C627 C628 1.349 . S
C627 C629 1.327 . S
C627 H652 0.950 . S
C628 C627 1.349 . S
C628 C644 1.349 . S
C629 C627 1.327 . S
C629 C648 1.429 . S
C629 H653 0.950 . S
C630 C647 1.574 . S
C630 C649 1.368 . S
C630 H654 0.949 . S
H631 C635 0.949 . S
C632 C633 1.349 . S
C632 C634 1.327 . S
C632 H655 0.950 . S
C633 C632 1.349 . S
C633 C645 1.349 . S
C634 C632 1.327 . S
C634 C650 1.429 . S
C634 H656 0.950 . S
C635 H631 0.949 . S
C635 C643 1.574 . S
C635 C651 1.368 . S
H636 C644 0.950 . S
H637 C642 0.950 . S
H638 C643 0.949 . S
H639 C645 0.950 . S
H640 C646 0.950 . S
H641 C647 0.949 . S
C642 H637 0.950 . S
C642 C644 1.327 . S
C642 C648 1.429 . S
C643 C635 1.574 . S
C643 H638 0.949 . S
C643 C649 1.368 . S
C644 C628 1.349 . S
C644 H636 0.950 . S
C644 C642 1.327 . S
C645 C633 1.349 . S
C645 H639 0.950 . S
C645 C646 1.327 . S
C646 H640 0.950 . S
C646 C645 1.327 . S
C646 C650 1.429 . S
C647 C630 1.574 . S
C647 H641 0.949 . S
C647 C651 1.368 . S
C648 C629 1.429 . S
C648 C642 1.429 . S
C648 C649 1.523 . S
C649 C630 1.368 . S
C649 C643 1.368 . S
C649 C648 1.523 . S
C650 C634 1.429 . S
C650 C646 1.429 . S
C650 C651 1.523 . S
C651 C635 1.368 . S
C651 C647 1.368 . S
C651 C650 1.523 . S
H652 C627 0.950 . S
H653 C629 0.950 . S
H654 C630 0.949 . S
H655 C632 0.950 . S
H656 C634 0.950 . S
C657 C658 1.349 . S
C657 C659 1.327 . S
C657 H682 0.950 . S
C658 C657 1.349 . S
C658 C674 1.349 . S
C659 C657 1.327 . S
C659 C678 1.429 . S
C659 H683 0.950 . S
C660 C677 1.574 . S
C660 C679 1.368 . S
C660 H684 0.949 . S
H661 C665 0.949 . S
C662 C663 1.349 . S
C662 C664 1.327 . S
C662 H685 0.950 . S
C663 C662 1.349 . S
C663 C675 1.349 . S
C664 C662 1.327 . S
C664 C680 1.429 . S
C664 H686 0.950 . S
C665 H661 0.949 . S
C665 C673 1.574 . S
C665 C681 1.368 . S
H666 C674 0.950 . S
H667 C672 0.950 . S
H668 C673 0.949 . S
H669 C675 0.950 . S
H670 C676 0.950 . S
H671 C677 0.949 . S
C672 H667 0.950 . S
C672 C674 1.327 . S
C672 C678 1.429 . S
C673 C665 1.574 . S
C673 H668 0.949 . S
C673 C679 1.368 . S
C674 C658 1.349 . S
C674 H666 0.950 . S
C674 C672 1.327 . S
C675 C663 1.349 . S
C675 H669 0.950 . S
C675 C676 1.327 . S
C676 H670 0.950 . S
C676 C675 1.327 . S
C676 C680 1.429 . S
C677 C660 1.574 . S
C677 H671 0.949 . S
C677 C681 1.368 . S
C678 C659 1.429 . S
C678 C672 1.429 . S
C678 C679 1.523 . S
C679 C660 1.368 . S
C679 C673 1.368 . S
C679 C678 1.523 . S
C680 C664 1.429 . S
C680 C676 1.429 . S
C680 C681 1.523 . S
C681 C665 1.368 . S
C681 C677 1.368 . S
C681 C680 1.523 . S
H682 C657 0.950 . S
H683 C659 0.950 . S
H684 C660 0.949 . S
H685 C662 0.950 . S
H686 C664 0.950 . S
C687 C688 1.349 . S
C687 C689 1.327 . S
C687 H712 0.950 . S
C688 C687 1.349 . S
C688 C704 1.349 . S
C689 C687 1.327 . S
C689 C708 1.429 . S
C689 H713 0.950 . S
C690 C707 1.574 . S
C690 C709 1.368 . S
C690 H714 0.949 . S
H691 C695 0.949 . S
C692 C693 1.349 . S
C692 C694 1.327 . S
C692 H715 0.950 . S
C693 C692 1.349 . S
C693 C705 1.349 . S
C694 C692 1.327 . S
C694 C710 1.429 . S
C694 H716 0.950 . S
C695 H691 0.949 . S
C695 C703 1.574 . S
C695 C711 1.368 . S
H696 C704 0.950 . S
H697 C702 0.950 . S
H698 C703 0.949 . S
H699 C705 0.950 . S
H700 C706 0.950 . S
H701 C707 0.949 . S
C702 H697 0.950 . S
C702 C704 1.327 . S
C702 C708 1.429 . S
C703 C695 1.574 . S
C703 H698 0.949 . S
C703 C709 1.368 . S
C704 C688 1.349 . S
C704 H696 0.950 . S
C704 C702 1.327 . S
C705 C693 1.349 . S
C705 H699 0.950 . S
C705 C706 1.327 . S
C706 H700 0.950 . S
C706 C705 1.327 . S
C706 C710 1.429 . S
C707 C690 1.574 . S
C707 H701 0.949 . S
C707 C711 1.368 . S
C708 C689 1.429 . S
C708 C702 1.429 . S
C708 C709 1.523 . S
C709 C690 1.368 . S
C709 C703 1.368 . S
C709 C708 1.523 . S
C710 C694 1.429 . S
C710 C706 1.429 . S
C710 C711 1.523 . S
C711 C695 1.368 . S
C711 C707 1.368 . S
C711 C710 1.523 . S
H712 C687 0.950 . S
H713 C689 0.950 . S
H714 C690 0.949 . S
H715 C692 0.950 . S
H716 C694 0.950 . S
C717 C718 1.349 . S
C717 C719 1.327 . S
C717 H742 0.950 . S
C718 C717 1.349 . S
C718 C734 1.349 . S
C719 C717 1.327 . S
C719 C738 1.429 . S
C719 H743 0.950 . S
C720 C737 1.574 . S
C720 C739 1.368 . S
C720 H744 0.949 . S
H721 C725 0.949 . S
C722 C723 1.349 . S
C722 C724 1.327 . S
C722 H745 0.950 . S
C723 C722 1.349 . S
C723 C735 1.349 . S
C724 C722 1.327 . S
C724 C740 1.429 . S
C724 H746 0.950 . S
C725 H721 0.949 . S
C725 C733 1.574 . S
C725 C741 1.368 . S
H726 C734 0.950 . S
H727 C732 0.950 . S
H728 C733 0.949 . S
H729 C735 0.950 . S
H730 C736 0.950 . S
H731 C737 0.949 . S
C732 H727 0.950 . S
C732 C734 1.327 . S
C732 C738 1.429 . S
C733 C725 1.574 . S
C733 H728 0.949 . S
C733 C739 1.368 . S
C734 C718 1.349 . S
C734 H726 0.950 . S
C734 C732 1.327 . S
C735 C723 1.349 . S
C735 H729 0.950 . S
C735 C736 1.327 . S
C736 H730 0.950 . S
C736 C735 1.327 . S
C736 C740 1.429 . S
C737 C720 1.574 . S
C737 H731 0.949 . S
C737 C741 1.368 . S
C738 C719 1.429 . S
C738 C732 1.429 . S
C738 C739 1.523 . S
C739 C720 1.368 . S
C739 C733 1.368 . S
C739 C738 1.523 . S
C740 C724 1.429 . S
C740 C736 1.429 . S
C740 C741 1.523 . S
C741 C725 1.368 . S
C741 C737 1.368 . S
C741 C740 1.523 . S
H742 C717 0.950 . S
H743 C719 0.950 . S
H744 C720 0.949 . S
H745 C722 0.950 . S
H746 C724 0.950 . S
C747 C748 1.349 . S
C747 C749 1.327 . S
C747 H772 0.950 . S
C748 C747 1.349 . S
C748 C764 1.349 . S
C749 C747 1.327 . S
C749 C768 1.429 . S
C749 H773 0.950 . S
C750 C767 1.574 . S
C750 C769 1.368 . S
C750 H774 0.949 . S
H751 C755 0.949 . S
C752 C753 1.349 . S
C752 C754 1.327 . S
C752 H775 0.950 . S
C753 C752 1.349 . S
C753 C765 1.349 . S
C754 C752 1.327 . S
C754 C770 1.429 . S
C754 H776 0.950 . S
C755 H751 0.949 . S
C755 C763 1.574 . S
C755 C771 1.368 . S
H756 C764 0.950 . S
H757 C762 0.950 . S
H758 C763 0.949 . S
H759 C765 0.950 . S
H760 C766 0.950 . S
H761 C767 0.949 . S
C762 H757 0.950 . S
C762 C764 1.327 . S
C762 C768 1.429 . S
C763 C755 1.574 . S
C763 H758 0.949 . S
C763 C769 1.368 . S
C764 C748 1.349 . S
C764 H756 0.950 . S
C764 C762 1.327 . S
C765 C753 1.349 . S
C765 H759 0.950 . S
C765 C766 1.327 . S
C766 H760 0.950 . S
C766 C765 1.327 . S
C766 C770 1.429 . S
C767 C750 1.574 . S
C767 H761 0.949 . S
C767 C771 1.368 . S
C768 C749 1.429 . S
C768 C762 1.429 . S
C768 C769 1.523 . S
C769 C750 1.368 . S
C769 C763 1.368 . S
C769 C768 1.523 . S
C770 C754 1.429 . S
C770 C766 1.429 . S
C770 C771 1.523 . S
C771 C755 1.368 . S
C771 C767 1.368 . S
C771 C770 1.523 . S
H772 C747 0.950 . S
H773 C749 0.950 . S
H774 C750 0.949 . S
H775 C752 0.950 . S
H776 C754 0.950 . S
C777 C778 1.349 . S
C777 C779 1.327 . S
C777 H802 0.950 . S
C778 C777 1.349 . S
C778 C794 1.349 . S
C779 C777 1.327 . S
C779 C798 1.429 . S
C779 H803 0.950 . S
C780 C797 1.574 . S
C780 C799 1.368 . S
C780 H804 0.949 . S
H781 C785 0.949 . S
C782 C783 1.349 . S
C782 C784 1.327 . S
C782 H805 0.950 . S
C783 C782 1.349 . S
C783 C795 1.349 . S
C784 C782 1.327 . S
C784 C800 1.429 . S
C784 H806 0.950 . S
C785 H781 0.949 . S
C785 C793 1.574 . S
C785 C801 1.368 . S
H786 C794 0.950 . S
H787 C792 0.950 . S
H788 C793 0.949 . S
H789 C795 0.950 . S
H790 C796 0.950 . S
H791 C797 0.949 . S
C792 H787 0.950 . S
C792 C794 1.327 . S
C792 C798 1.429 . S
C793 C785 1.574 . S
C793 H788 0.949 . S
C793 C799 1.368 . S
C794 C778 1.349 . S
C794 H786 0.950 . S
C794 C792 1.327 . S
C795 C783 1.349 . S
C795 H789 0.950 . S
C795 C796 1.327 . S
C796 H790 0.950 . S
C796 C795 1.327 . S
C796 C800 1.429 . S
C797 C780 1.574 . S
C797 H791 0.949 . S
C797 C801 1.368 . S
C798 C779 1.429 . S
C798 C792 1.429 . S
C798 C799 1.523 . S
C799 C780 1.368 . S
C799 C793 1.368 . S
C799 C798 1.523 . S
C800 C784 1.429 . S
C800 C796 1.429 . S
C800 C801 1.523 . S
C801 C785 1.368 . S
C801 C797 1.368 . S
C801 C800 1.523 . S
H802 C777 0.950 . S
H803 C779 0.950 . S
H804 C780 0.949 . S
H805 C782 0.950 . S
H806 C784 0.950 . S
C807 C808 1.349 . S
C807 C809 1.327 . S
C807 H832 0.950 . S
C808 C807 1.349 . S
C808 C824 1.349 . S
C809 C807 1.327 . S
C809 C828 1.429 . S
C809 H833 0.950 . S
C810 C827 1.574 . S
C810 C829 1.368 . S
C810 H834 0.949 . S
H811 C815 0.949 . S
C812 C813 1.349 . S
C812 C814 1.327 . S
C812 H835 0.950 . S
C813 C812 1.349 . S
C813 C825 1.349 . S
C814 C812 1.327 . S
C814 C830 1.429 . S
C814 H836 0.950 . S
C815 H811 0.949 . S
C815 C823 1.574 . S
C815 C831 1.368 . S
H816 C824 0.950 . S
H817 C822 0.950 . S
H818 C823 0.949 . S
H819 C825 0.950 . S
H820 C826 0.950 . S
H821 C827 0.949 . S
C822 H817 0.950 . S
C822 C824 1.327 . S
C822 C828 1.429 . S
C823 C815 1.574 . S
C823 H818 0.949 . S
C823 C829 1.368 . S
C824 C808 1.349 . S
C824 H816 0.950 . S
C824 C822 1.327 . S
C825 C813 1.349 . S
C825 H819 0.950 . S
C825 C826 1.327 . S
C826 H820 0.950 . S
C826 C825 1.327 . S
C826 C830 1.429 . S
C827 C810 1.574 . S
C827 H821 0.949 . S
C827 C831 1.368 . S
C828 C809 1.429 . S
C828 C822 1.429 . S
C828 C829 1.523 . S
C829 C810 1.368 . S
C829 C823 1.368 . S
C829 C828 1.523 . S
C830 C814 1.429 . S
C830 C826 1.429 . S
C830 C831 1.523 . S
C831 C815 1.368 . S
C831 C827 1.368 . S
C831 C830 1.523 . S
H832 C807 0.950 . S
H833 C809 0.950 . S
H834 C810 0.949 . S
H835 C812 0.950 . S
H836 C814 0.950 . S
C837 C838 1.349 . S
C837 C839 1.327 . S
C837 H862 0.950 1_556 S
C838 C837 1.349 . S
C838 C854 1.349 . S
C839 C837 1.327 . S
C839 C858 1.429 . S
C839 H863 0.950 . S
C840 C857 1.574 . S
C840 C859 1.368 . S
C840 H864 0.949 . S
H841 C845 0.949 . S
C842 C843 1.349 . S
C842 C844 1.327 . S
C842 H865 0.950 . S
C843 C842 1.349 . S
C843 C855 1.349 . S
C844 C842 1.327 . S
C844 C860 1.429 . S
C844 H866 0.950 . S
C845 H841 0.949 . S
C845 C853 1.574 . S
C845 C861 1.368 . S
H846 C854 0.950 . S
H847 C852 0.950 . S
H848 C853 0.949 . S
H849 C855 0.950 . S
H850 C856 0.950 . S
H851 C857 0.949 . S
C852 H847 0.950 . S
C852 C854 1.327 . S
C852 C858 1.429 . S
C853 C845 1.574 . S
C853 H848 0.949 . S
C853 C859 1.368 . S
C854 C838 1.349 . S
C854 H846 0.950 . S
C854 C852 1.327 . S
C855 C843 1.349 . S
C855 H849 0.950 . S
C855 C856 1.327 . S
C856 H850 0.950 . S
C856 C855 1.327 . S
C856 C860 1.429 . S
C857 C840 1.574 . S
C857 H851 0.949 . S
C857 C861 1.368 . S
C858 C839 1.429 . S
C858 C852 1.429 . S
C858 C859 1.523 . S
C859 C840 1.368 . S
C859 C853 1.368 . S
C859 C858 1.523 . S
C860 C844 1.429 . S
C860 C856 1.429 . S
C860 C861 1.523 . S
C861 C845 1.368 . S
C861 C857 1.368 . S
C861 C860 1.523 . S
H862 C837 0.950 1_554 S
H863 C839 0.950 . S
H864 C840 0.949 . S
H865 C842 0.950 . S
H866 C844 0.950 . S
C867 C868 1.349 . S
C867 C869 1.327 . S
C867 H892 0.958 . S
C868 C867 1.349 . S
C868 C884 1.349 . S
C869 C867 1.327 . S
C869 C888 1.429 . S
C869 H893 0.950 . S
C870 C887 1.574 . S
C870 C889 1.368 . S
C870 H894 0.949 . S
H871 C875 0.949 . S
C872 C873 1.349 . S
C872 C874 1.327 . S
C872 H895 0.950 . S
C873 C872 1.349 . S
C873 C885 1.349 . S
C874 C872 1.327 . S
C874 C890 1.429 . S
C874 H896 0.950 . S
C875 H871 0.949 . S
C875 C883 1.574 . S
C875 C891 1.368 . S
H876 C884 0.950 . S
H877 C882 0.950 . S
H878 C883 0.949 . S
H879 C885 0.950 . S
H880 C886 0.950 . S
H881 C887 0.949 . S
C882 H877 0.950 . S
C882 C884 1.327 . S
C882 C888 1.429 . S
C883 C875 1.574 . S
C883 H878 0.949 . S
C883 C889 1.368 . S
C884 C868 1.349 . S
C884 H876 0.950 . S
C884 C882 1.327 . S
C885 C873 1.349 . S
C885 H879 0.950 . S
C885 C886 1.327 . S
C886 H880 0.950 . S
C886 C885 1.327 . S
C886 C890 1.429 . S
C887 C870 1.574 . S
C887 H881 0.949 . S
C887 C891 1.368 . S
C888 C869 1.429 . S
C888 C882 1.429 . S
C888 C889 1.523 . S
C889 C870 1.368 . S
C889 C883 1.368 . S
C889 C888 1.523 . S
C890 C874 1.429 . S
C890 C886 1.429 . S
C890 C891 1.523 . S
C891 C875 1.368 . S
C891 C887 1.368 . S
C891 C890 1.523 . S
H892 C867 0.958 . S
H893 C869 0.950 . S
H894 C870 0.949 . S
H895 C872 0.950 . S
H896 C874 0.950 . S
C897 C898 1.349 . S
C897 C899 1.327 . S
C897 H922 0.950 . S
C898 C897 1.349 . S
C898 C914 1.349 . S
C899 C897 1.327 . S
C899 C918 1.429 . S
C899 H923 0.950 . S
C900 C917 1.574 . S
C900 C919 1.368 . S
C900 H924 0.949 . S
H901 C905 0.949 . S
C902 C903 1.349 . S
C902 C904 1.327 . S
C902 H925 0.950 . S
C903 C902 1.349 . S
C903 C915 1.349 . S
C904 C902 1.327 . S
C904 C920 1.429 . S
C904 H926 0.950 . S
C905 H901 0.949 . S
C905 C913 1.574 . S
C905 C921 1.368 . S
H906 C914 0.950 . S
H907 C912 0.950 . S
H908 C913 0.949 . S
H909 C915 0.950 . S
H910 C916 0.950 . S
H911 C917 0.949 . S
C912 H907 0.950 . S
C912 C914 1.327 . S
C912 C918 1.429 . S
C913 C905 1.574 . S
C913 H908 0.949 . S
C913 C919 1.368 . S
C914 C898 1.349 . S
C914 H906 0.950 . S
C914 C912 1.327 . S
C915 C903 1.349 . S
C915 H909 0.950 . S
C915 C916 1.327 . S
C916 H910 0.950 . S
C916 C915 1.327 . S
C916 C920 1.429 . S
C917 C900 1.574 . S
C917 H911 0.949 . S
C917 C921 1.368 . S
C918 C899 1.429 . S
C918 C912 1.429 . S
C918 C919 1.523 . S
C919 C900 1.368 . S
C919 C913 1.368 . S
C919 C918 1.523 . S
C920 C904 1.429 . S
C920 C916 1.429 . S
C920 C921 1.523 . S
C921 C905 1.368 . S
C921 C917 1.368 . S
C921 C920 1.523 . S
H922 C897 0.950 . S
H923 C899 0.950 . S
H924 C900 0.949 . S
H925 C902 0.950 . S
H926 C904 0.950 . S
C927 C928 1.349 . S
C927 C929 1.327 . S
C927 H952 0.950 . S
C928 C927 1.349 . S
C928 C944 1.349 . S
C929 C927 1.327 . S
C929 C948 1.429 . S
C929 H953 0.950 . S
C930 C947 1.574 . S
C930 C949 1.368 . S
C930 H954 0.949 . S
H931 C935 0.949 . S
C932 C933 1.349 . S
C932 C934 1.327 . S
C932 H955 0.950 . S
C933 C932 1.349 . S
C933 C945 1.349 . S
C934 C932 1.327 . S
C934 C950 1.429 . S
C934 H956 0.950 . S
C935 H931 0.949 . S
C935 C943 1.574 . S
C935 C951 1.368 . S
H936 C944 0.950 . S
H937 C942 0.950 . S
H938 C943 0.949 . S
H939 C945 0.950 . S
H940 C946 0.950 . S
H941 C947 0.949 . S
C942 H937 0.950 . S
C942 C944 1.327 . S
C942 C948 1.429 . S
C943 C935 1.574 . S
C943 H938 0.949 . S
C943 C949 1.368 . S
C944 C928 1.349 . S
C944 H936 0.950 . S
C944 C942 1.327 . S
C945 C933 1.349 . S
C945 H939 0.950 . S
C945 C946 1.327 . S
C946 H940 0.950 . S
C946 C945 1.327 . S
C946 C950 1.429 . S
C947 C930 1.574 . S
C947 H941 0.949 . S
C947 C951 1.368 . S
C948 C929 1.429 . S
C948 C942 1.429 . S
C948 C949 1.523 . S
C949 C930 1.368 . S
C949 C943 1.368 . S
C949 C948 1.523 . S
C950 C934 1.429 . S
C950 C946 1.429 . S
C950 C951 1.523 . S
C951 C935 1.368 . S
C951 C947 1.368 . S
C951 C950 1.523 . S
H952 C927 0.950 . S
H953 C929 0.950 . S
H954 C930 0.949 . S
H955 C932 0.950 . S
H956 C934 0.950 . S
C957 C958 1.349 . S
C957 C959 1.327 1_554 S
C957 H982 0.950 . S
C958 C957 1.349 . S
C958 C974 1.349 . S
C959 C957 1.327 1_556 S
C959 C978 1.429 . S
C959 H983 0.950 . S
C960 C977 1.574 . S
C960 C979 1.368 . S
C960 H984 0.949 . S
H961 C965 0.949 . S
C962 C963 1.349 . S
C962 C964 1.327 . S
C962 H985 0.950 . S
C963 C962 1.349 . S
C963 C975 1.349 . S
C964 C962 1.327 . S
C964 C980 1.429 . S
C964 H986 0.950 . S
C965 H961 0.949 . S
C965 C973 1.574 . S
C965 C981 1.368 . S
H966 C974 0.950 . S
H967 C972 0.950 . S
H968 C973 0.949 . S
H969 C975 0.950 . S
H970 C976 0.950 . S
H971 C977 0.949 . S
C972 H967 0.950 . S
C972 C974 1.327 1_556 S
C972 C978 1.429 . S
C973 C965 1.574 . S
C973 H968 0.949 . S
C973 C979 1.368 . S
C974 C958 1.349 . S
C974 H966 0.950 . S
C974 C972 1.327 1_554 S
C975 C963 1.349 . S
C975 H969 0.950 . S
C975 C976 1.327 . S
C976 H970 0.950 . S
C976 C975 1.327 . S
C976 C980 1.429 . S
C977 C960 1.574 . S
C977 H971 0.949 . S
C977 C981 1.368 . S
C978 C959 1.429 . S
C978 C972 1.429 . S
C978 C979 1.523 . S
C979 C960 1.368 . S
C979 C973 1.368 . S
C979 C978 1.523 . S
C980 C964 1.429 . S
C980 C976 1.429 . S
C980 C981 1.523 . S
C981 C965 1.368 . S
C981 C977 1.368 . S
C981 C980 1.523 . S
H982 C957 0.950 . S
H983 C959 0.950 . S
H984 C960 0.949 . S
H985 C962 0.950 . S
H986 C964 0.950 . S
C987 C988 1.349 . S
C987 C989 1.327 1_554 S
C987 H1012 0.950 . S
C988 C987 1.349 . S
C988 C1004 1.349 1_554 S
C989 C987 1.327 1_556 S
C989 C1008 1.429 . S
C989 H1013 0.950 . S
C990 C1007 1.574 . S
C990 C1009 1.368 . S
C990 H1014 0.949 . S
H991 C995 0.949 . S
C992 C993 1.349 . S
C992 C994 1.327 . S
C992 H1015 0.950 . S
C993 C992 1.349 . S
C993 C1005 1.349 . S
C994 C992 1.327 . S
C994 C1010 1.429 . S
C994 H1016 0.950 . S
C995 H991 0.949 . S
C995 C1003 1.574 . S
C995 C1011 1.368 . S
H996 C1004 0.950 1_554 S
H997 C1002 0.950 . S
H998 C1003 0.949 . S
H999 C1005 0.950 . S
H1000 C1006 0.950 . S
H1001 C1007 0.949 . S
C1002 H997 0.950 . S
C1002 C1004 1.327 . S
C1002 C1008 1.429 . S
C1003 C995 1.574 . S
C1003 H998 0.949 . S
C1003 C1009 1.368 . S
C1004 C988 1.349 1_556 S
C1004 H996 0.950 1_556 S
C1004 C1002 1.327 . S
C1005 C993 1.349 . S
C1005 H999 0.950 . S
C1005 C1006 1.327 . S
C1006 H1000 0.950 . S
C1006 C1005 1.327 . S
C1006 C1010 1.429 . S
C1007 C990 1.574 . S
C1007 H1001 0.949 . S
C1007 C1011 1.368 . S
C1008 C989 1.429 . S
C1008 C1002 1.429 . S
C1008 C1009 1.523 . S
C1009 C990 1.368 . S
C1009 C1003 1.368 . S
C1009 C1008 1.523 . S
C1010 C994 1.429 . S
C1010 C1006 1.429 . S
C1010 C1011 1.523 . S
C1011 C995 1.368 . S
C1011 C1007 1.368 . S
C1011 C1010 1.523 . S
H1012 C987 0.950 . S
H1013 C989 0.950 . S
H1014 C990 0.949 . S
H1015 C992 0.950 . S
H1016 C994 0.950 . S
C1017 C1018 1.349 . S
C1017 C1019 1.327 . S
C1017 H1042 0.950 . S
C1018 C1017 1.349 . S
C1018 C1034 1.349 . S
C1019 C1017 1.327 . S
C1019 C1038 1.429 . S
C1019 H1043 0.950 . S
C1020 C1037 1.574 . S
C1020 C1039 1.368 . S
C1020 H1044 0.949 . S
H1021 C1025 0.949 . S
C1022 C1023 1.349 . S
C1022 C1024 1.327 . S
C1022 H1045 0.950 . S
C1023 C1022 1.349 . S
C1023 C1035 1.349 . S
C1024 C1022 1.327 . S
C1024 C1040 1.429 . S
C1024 H1046 0.950 . S
C1025 H1021 0.949 . S
C1025 C1033 1.574 . S
C1025 C1041 1.368 . S
H1026 C1034 0.950 . S
H1027 C1032 0.950 . S
H1028 C1033 0.949 . S
H1029 C1035 0.950 . S
H1030 C1036 0.950 . S
H1031 C1037 0.949 . S
C1032 H1027 0.950 . S
C1032 C1034 1.327 . S
C1032 C1038 1.429 . S
C1033 C1025 1.574 . S
C1033 H1028 0.949 . S
C1033 C1039 1.368 . S
C1034 C1018 1.349 . S
C1034 H1026 0.950 . S
C1034 C1032 1.327 . S
C1035 C1023 1.349 . S
C1035 H1029 0.950 . S
C1035 C1036 1.327 . S
C1036 H1030 0.950 . S
C1036 C1035 1.327 . S
C1036 C1040 1.429 . S
C1037 C1020 1.574 . S
C1037 H1031 0.949 . S
C1037 C1041 1.368 . S
C1038 C1019 1.429 . S
C1038 C1032 1.429 . S
C1038 C1039 1.523 . S
C1039 C1020 1.368 . S
C1039 C1033 1.368 . S
C1039 C1038 1.523 . S
C1040 C1024 1.429 . S
C1040 C1036 1.429 . S
C1040 C1041 1.523 . S
C1041 C1025 1.368 . S
C1041 C1037 1.368 . S
C1041 C1040 1.523 . S
H1042 C1017 0.950 . S
H1043 C1019 0.950 . S
H1044 C1020 0.949 . S
H1045 C1022 0.950 . S
H1046 C1024 0.950 . S
C1047 C1048 1.349 . S
C1047 C1049 1.327 . S
C1047 H1072 0.950 . S
C1048 C1047 1.349 . S
C1048 C1064 1.349 . S
C1049 C1047 1.327 . S
C1049 C1068 1.429 . S
C1049 H1073 0.950 . S
C1050 C1067 1.574 . S
C1050 C1069 1.368 . S
C1050 H1074 0.949 . S
H1051 C1055 0.949 . S
C1052 C1053 1.349 . S
C1052 C1054 1.327 . S
C1052 H1075 0.950 . S
C1053 C1052 1.349 . S
C1053 C1065 1.349 . S
C1054 C1052 1.327 . S
C1054 C1070 1.429 . S
C1054 H1076 0.950 . S
C1055 H1051 0.949 . S
C1055 C1063 1.574 . S
C1055 C1071 1.368 . S
H1056 C1064 0.950 . S
H1057 C1062 0.950 . S
H1058 C1063 0.949 . S
H1059 C1065 0.950 . S
H1060 C1066 0.950 . S
H1061 C1067 0.949 . S
C1062 H1057 0.950 . S
C1062 C1064 1.327 . S
C1062 C1068 1.429 . S
C1063 C1055 1.574 . S
C1063 H1058 0.949 . S
C1063 C1069 1.368 . S
C1064 C1048 1.349 . S
C1064 H1056 0.950 . S
C1064 C1062 1.327 . S
C1065 C1053 1.349 . S
C1065 H1059 0.950 . S
C1065 C1066 1.327 . S
C1066 H1060 0.950 . S
C1066 C1065 1.327 . S
C1066 C1070 1.429 . S
C1067 C1050 1.574 . S
C1067 H1061 0.949 . S
C1067 C1071 1.368 . S
C1068 C1049 1.429 . S
C1068 C1062 1.429 . S
C1068 C1069 1.523 . S
C1069 C1050 1.368 . S
C1069 C1063 1.368 . S
C1069 C1068 1.523 . S
C1070 C1054 1.429 . S
C1070 C1066 1.429 . S
C1070 C1071 1.523 . S
C1071 C1055 1.368 . S
C1071 C1067 1.368 . S
C1071 C1070 1.523 . S
H1072 C1047 0.950 . S
H1073 C1049 0.950 . S
H1074 C1050 0.949 . S
H1075 C1052 0.950 . S
H1076 C1054 0.950 . S
C1077 C1078 1.349 . S
C1077 C1079 1.327 . S
C1077 H1102 0.950 . S
C1078 C1077 1.349 . S
C1078 C1094 1.349 . S
C1079 C1077 1.327 . S
C1079 C1098 1.429 . S
C1079 H1103 0.950 . S
C1080 C1097 1.574 . S
C1080 C1099 1.368 . S
C1080 H1104 0.949 . S
H1081 C1085 0.949 . S
C1082 C1083 1.349 . S
C1082 C1084 1.327 . S
C1082 H1105 0.950 . S
C1083 C1082 1.349 . S
C1083 C1095 1.349 . S
C1084 C1082 1.327 . S
C1084 C1100 1.429 . S
C1084 H1106 0.950 . S
C1085 H1081 0.949 . S
C1085 C1093 1.574 . S
C1085 C1101 1.368 . S
H1086 C1094 0.950 . S
H1087 C1092 0.950 . S
H1088 C1093 0.949 . S
H1089 C1095 0.950 . S
H1090 C1096 0.950 . S
H1091 C1097 0.949 . S
C1092 H1087 0.950 . S
C1092 C1094 1.327 . S
C1092 C1098 1.429 . S
C1093 C1085 1.574 . S
C1093 H1088 0.949 . S
C1093 C1099 1.368 . S
C1094 C1078 1.349 . S
C1094 H1086 0.950 . S
C1094 C1092 1.327 . S
C1095 C1083 1.349 . S
C1095 H1089 0.950 . S
C1095 C1096 1.327 . S
C1096 H1090 0.950 . S
C1096 C1095 1.327 . S
C1096 C1100 1.429 . S
C1097 C1080 1.574 . S
C1097 H1091 0.949 . S
C1097 C1101 1.368 . S
C1098 C1079 1.429 . S
C1098 C1092 1.429 . S
C1098 C1099 1.523 . S
C1099 C1080 1.368 . S
C1099 C1093 1.368 . S
C1099 C1098 1.523 . S
C1100 C1084 1.429 . S
C1100 C1096 1.429 . S
C1100 C1101 1.523 . S
C1101 C1085 1.368 . S
C1101 C1097 1.368 . S
C1101 C1100 1.523 . S
H1102 C1077 0.950 . S
H1103 C1079 0.950 . S
H1104 C1080 0.949 . S
H1105 C1082 0.950 . S
H1106 C1084 0.950 . S
C1107 C1108 1.349 . S
C1107 C1109 1.327 . S
C1107 H1132 0.950 . S
C1108 C1107 1.349 . S
C1108 C1124 1.349 . S
C1109 C1107 1.327 . S
C1109 C1128 1.429 . S
C1109 H1133 0.950 . S
C1110 C1127 1.574 . S
C1110 C1129 1.368 . S
C1110 H1134 0.949 . S
H1111 C1115 0.949 . S
C1112 C1113 1.349 . S
C1112 C1114 1.327 . S
C1112 H1135 0.950 . S
C1113 C1112 1.349 . S
C1113 C1125 1.349 . S
C1114 C1112 1.327 . S
C1114 C1130 1.429 . S
C1114 H1136 0.950 . S
C1115 H1111 0.949 . S
C1115 C1123 1.574 . S
C1115 C1131 1.368 . S
H1116 C1124 0.950 . S
H1117 C1122 0.950 . S
H1118 C1123 0.949 . S
H1119 C1125 0.950 . S
H1120 C1126 0.950 . S
H1121 C1127 0.949 . S
C1122 H1117 0.950 . S
C1122 C1124 1.327 . S
C1122 C1128 1.429 . S
C1123 C1115 1.574 . S
C1123 H1118 0.949 . S
C1123 C1129 1.368 . S
C1124 C1108 1.349 . S
C1124 H1116 0.950 . S
C1124 C1122 1.327 . S
C1125 C1113 1.349 . S
C1125 H1119 0.950 . S
C1125 C1126 1.327 . S
C1126 H1120 0.950 . S
C1126 C1125 1.327 . S
C1126 C1130 1.429 . S
C1127 C1110 1.574 . S
C1127 H1121 0.949 . S
C1127 C1131 1.368 . S
C1128 C1109 1.429 . S
C1128 C1122 1.429 . S
C1128 C1129 1.523 . S
C1129 C1110 1.368 . S
C1129 C1123 1.368 . S
C1129 C1128 1.523 . S
C1130 C1114 1.429 . S
C1130 C1126 1.429 . S
C1130 C1131 1.523 . S
C1131 C1115 1.368 . S
C1131 C1127 1.368 . S
C1131 C1130 1.523 . S
H1132 C1107 0.950 . S
H1133 C1109 0.950 . S
H1134 C1110 0.949 . S
H1135 C1112 0.950 . S
H1136 C1114 0.950 . S
C1137 C1138 1.349 . S
C1137 C1139 1.327 . S
C1137 H1162 0.950 . S
C1138 C1137 1.349 . S
C1138 C1154 1.349 . S
C1139 C1137 1.327 . S
C1139 C1158 1.429 . S
C1139 H1163 0.950 . S
C1140 C1157 1.574 . S
C1140 C1159 1.368 . S
C1140 H1164 0.949 . S
H1141 C1145 0.949 . S
C1142 C1143 1.349 . S
C1142 C1144 1.327 . S
C1142 H1165 0.950 . S
C1143 C1142 1.349 . S
C1143 C1155 1.349 . S
C1144 C1142 1.327 . S
C1144 C1160 1.429 . S
C1144 H1166 0.950 . S
C1145 H1141 0.949 . S
C1145 C1153 1.574 . S
C1145 C1161 1.368 . S
H1146 C1154 0.950 . S
H1147 C1152 0.950 . S
H1148 C1153 0.949 . S
H1149 C1155 0.950 . S
H1150 C1156 0.950 . S
H1151 C1157 0.949 . S
C1152 H1147 0.950 . S
C1152 C1154 1.327 . S
C1152 C1158 1.429 . S
C1153 C1145 1.574 . S
C1153 H1148 0.949 . S
C1153 C1159 1.368 . S
C1154 C1138 1.349 . S
C1154 H1146 0.950 . S
C1154 C1152 1.327 . S
C1155 C1143 1.349 . S
C1155 H1149 0.950 . S
C1155 C1156 1.327 . S
C1156 H1150 0.950 . S
C1156 C1155 1.327 . S
C1156 C1160 1.429 . S
C1157 C1140 1.574 . S
C1157 H1151 0.949 . S
C1157 C1161 1.368 . S
C1158 C1139 1.429 . S
C1158 C1152 1.429 . S
C1158 C1159 1.523 . S
C1159 C1140 1.368 . S
C1159 C1153 1.368 . S
C1159 C1158 1.523 . S
C1160 C1144 1.429 . S
C1160 C1156 1.429 . S
C1160 C1161 1.523 . S
C1161 C1145 1.368 . S
C1161 C1157 1.368 . S
C1161 C1160 1.523 . S
H1162 C1137 0.950 . S
H1163 C1139 0.950 . S
H1164 C1140 0.949 . S
H1165 C1142 0.950 . S
H1166 C1144 0.950 . S
C1167 C1168 1.349 . S
C1167 C1169 1.327 . S
C1167 H1192 0.950 . S
C1168 C1167 1.349 . S
C1168 C1184 1.349 . S
C1169 C1167 1.327 . S
C1169 C1188 1.429 . S
C1169 H1193 0.950 . S
C1170 C1187 1.574 . S
C1170 C1189 1.368 . S
C1170 H1194 0.949 . S
H1171 C1175 0.949 . S
C1172 C1173 1.349 . S
C1172 C1174 1.327 . S
C1172 H1195 0.950 . S
C1173 C1172 1.349 . S
C1173 C1185 1.349 . S
C1174 C1172 1.327 . S
C1174 C1190 1.429 . S
C1174 H1196 0.950 . S
C1175 H1171 0.949 . S
C1175 C1183 1.574 . S
C1175 C1191 1.368 . S
H1176 C1184 0.950 . S
H1177 C1182 0.950 . S
H1178 C1183 0.949 . S
H1179 C1185 0.950 . S
H1180 C1186 0.950 . S
H1181 C1187 0.949 . S
C1182 H1177 0.950 . S
C1182 C1184 1.327 . S
C1182 C1188 1.429 . S
C1183 C1175 1.574 . S
C1183 H1178 0.949 . S
C1183 C1189 1.368 . S
C1184 C1168 1.349 . S
C1184 H1176 0.950 . S
C1184 C1182 1.327 . S
C1185 C1173 1.349 . S
C1185 H1179 0.950 . S
C1185 C1186 1.327 . S
C1186 H1180 0.950 . S
C1186 C1185 1.327 . S
C1186 C1190 1.429 . S
C1187 C1170 1.574 . S
C1187 H1181 0.949 . S
C1187 C1191 1.368 . S
C1188 C1169 1.429 . S
C1188 C1182 1.429 . S
C1188 C1189 1.523 . S
C1189 C1170 1.368 . S
C1189 C1183 1.368 . S
C1189 C1188 1.523 . S
C1190 C1174 1.429 . S
C1190 C1186 1.429 . S
C1190 C1191 1.523 . S
C1191 C1175 1.368 . S
C1191 C1187 1.368 . S
C1191 C1190 1.523 . S
H1192 C1167 0.950 . S
H1193 C1169 0.950 . S
H1194 C1170 0.949 . S
H1195 C1172 0.950 . S
H1196 C1174 0.950 . S
C1197 C1198 1.349 . S
C1197 C1199 1.327 . S
C1197 H1222 0.950 . S
C1198 C1197 1.349 . S
C1198 C1214 1.349 . S
C1199 C1197 1.327 . S
C1199 C1218 1.429 . S
C1199 H1223 0.950 . S
C1200 C1217 1.574 . S
C1200 C1219 1.368 . S
C1200 H1224 0.949 . S
H1201 C1205 0.949 . S
C1202 C1203 1.349 . S
C1202 C1204 1.327 . S
C1202 H1225 0.950 . S
C1203 C1202 1.349 . S
C1203 C1215 1.349 . S
C1204 C1202 1.327 . S
C1204 C1220 1.429 . S
C1204 H1226 0.950 . S
C1205 H1201 0.949 . S
C1205 C1213 1.574 . S
C1205 C1221 1.368 . S
H1206 C1214 0.950 . S
H1207 C1212 0.950 . S
H1208 C1213 0.949 . S
H1209 C1215 0.950 . S
H1210 C1216 0.950 . S
H1211 C1217 0.949 . S
C1212 H1207 0.950 . S
C1212 C1214 1.327 . S
C1212 C1218 1.429 . S
C1213 C1205 1.574 . S
C1213 H1208 0.949 . S
C1213 C1219 1.368 . S
C1214 C1198 1.349 . S
C1214 H1206 0.950 . S
C1214 C1212 1.327 . S
C1215 C1203 1.349 . S
C1215 H1209 0.950 . S
C1215 C1216 1.327 . S
C1216 H1210 0.950 . S
C1216 C1215 1.327 . S
C1216 C1220 1.429 . S
C1217 C1200 1.574 . S
C1217 H1211 0.949 . S
C1217 C1221 1.368 . S
C1218 C1199 1.429 . S
C1218 C1212 1.429 . S
C1218 C1219 1.523 . S
C1219 C1200 1.368 . S
C1219 C1213 1.368 . S
C1219 C1218 1.523 . S
C1220 C1204 1.429 . S
C1220 C1216 1.429 . S
C1220 C1221 1.523 . S
C1221 C1205 1.368 . S
C1221 C1217 1.368 . S
C1221 C1220 1.523 . S
H1222 C1197 0.950 . S
H1223 C1199 0.950 . S
H1224 C1200 0.949 . S
H1225 C1202 0.950 . S
H1226 C1204 0.950 . S
C1227 C1228 1.349 . S
C1227 C1229 1.327 . S
C1227 H1252 0.950 . S
C1228 C1227 1.349 . S
C1228 C1244 1.349 . S
C1229 C1227 1.327 . S
C1229 C1248 1.429 . S
C1229 H1253 0.950 . S
C1230 C1247 1.574 . S
C1230 C1249 1.368 . S
C1230 H1254 0.949 . S
H1231 C1235 0.949 . S
C1232 C1233 1.349 . S
C1232 C1234 1.327 . S
C1232 H1255 0.950 . S
C1233 C1232 1.349 . S
C1233 C1245 1.349 . S
C1234 C1232 1.327 . S
C1234 C1250 1.429 . S
C1234 H1256 0.950 . S
C1235 H1231 0.949 . S
C1235 C1243 1.574 . S
C1235 C1251 1.368 . S
H1236 C1244 0.950 . S
H1237 C1242 0.950 . S
H1238 C1243 0.949 . S
H1239 C1245 0.950 . S
H1240 C1246 0.950 . S
H1241 C1247 0.949 . S
C1242 H1237 0.950 . S
C1242 C1244 1.327 . S
C1242 C1248 1.429 . S
C1243 C1235 1.574 . S
C1243 H1238 0.949 . S
C1243 C1249 1.368 . S
C1244 C1228 1.349 . S
C1244 H1236 0.950 . S
C1244 C1242 1.327 . S
C1245 C1233 1.349 . S
C1245 H1239 0.950 . S
C1245 C1246 1.327 . S
C1246 H1240 0.950 . S
C1246 C1245 1.327 . S
C1246 C1250 1.429 . S
C1247 C1230 1.574 . S
C1247 H1241 0.949 . S
C1247 C1251 1.368 . S
C1248 C1229 1.429 . S
C1248 C1242 1.429 . S
C1248 C1249 1.523 . S
C1249 C1230 1.368 . S
C1249 C1243 1.368 . S
C1249 C1248 1.523 . S
C1250 C1234 1.429 . S
C1250 C1246 1.429 . S
C1250 C1251 1.523 . S
C1251 C1235 1.368 . S
C1251 C1247 1.368 . S
C1251 C1250 1.523 . S
H1252 C1227 0.950 . S
H1253 C1229 0.950 . S
H1254 C1230 0.949 . S
H1255 C1232 0.950 . S
H1256 C1234 0.950 . S
C538 C39 1.687 . S
C543 C444 1.653 . S
C568 C125 0.763 . S
C573 C476 0.763 . S
C603 C535 2.272 . S
C598 C211 2.179 . S
C633 C464 0.692 . S
C628 C273 0.687 . S
C658 C335 1.748 . S
C663 C494 1.737 . S
C693 C516 1.578 . S
C688 C439 1.591 . S
C723 C485 1.646 . S
C718 C187 1.651 . S
C748 C291 1.679 . S
C753 C525 1.627 . S
C783 C474 1.909 . S
C778 C359 1.777 . S
C808 C421 0.712 . S
C813 C504 0.715 . S
C838 C63 2.108 1_556 S
C843 C507 2.199 . S
C873 C446 2.104 . S
C868 C143 2.122 . S
C903 C454 1.841 . S
C898 C285 1.757 . S
C933 C495 1.972 . S
C928 C365 2.010 1_556 S
C963 C508 2.134 . S
C958 C409 2.133 . S
C993 C445 1.948 . S
C988 C69 2.000 . S
C1023 C505 1.716 . S
C1018 C137 1.663 . S
C1048 C199 0.244 . S
C1053 C506 0.411 . S
C1083 C475 1.835 . S
C1078 C433 1.759 . S
C1113 C536 0.395 . S
C1108 C51 0.277 . S
C1143 C463 1.585 . S
C1138 C113 1.654 . S
C1173 C477 2.017 . S
C1168 C217 2.068 . S
C1198 C261 2.068 . S
C1203 C526 2.068 . S
C1228 C347 0.661 . S
C1233 C473 0.669 . S
