# Generated by pormake.
# Topology ptr, (4,4)-cn, num edge types: 1
# Building blocks:
#     Node 0, Type 0, BuildingBlock: CEKHIL_clean_sbu_0, # of connection points: 4
#     Node 1, Type 0, BuildingBlock: CEKHIL_clean_sbu_0, # of connection points: 4
#     Node 2, Type 0, BuildingBlock: CEKHIL_clean_sbu_0, # of connection points: 4
#     Node 3, Type 0, BuildingBlock: CEKHIL_clean_sbu_0, # of connection points: 4
#     Node 4, Type 0, BuildingBlock: CEKHIL_clean_sbu_0, # of connection points: 4
#     Node 5, Type 0, BuildingBlock: CEKHIL_clean_sbu_0, # of connection points: 4
#     Node 6, Type 0, BuildingBlock: CEKHIL_clean_sbu_0, # of connection points: 4
#     Node 7, Type 0, BuildingBlock: CEKHIL_clean_sbu_0, # of connection points: 4
#     Node 8, Type 0, BuildingBlock: CEKHIL_clean_sbu_0, # of connection points: 4
#     Node 9, Type 0, BuildingBlock: CEKHIL_clean_sbu_0, # of connection points: 4
#     Node 10, Type 0, BuildingBlock: CEKHIL_clean_sbu_0, # of connection points: 4
#     Node 11, Type 0, BuildingBlock: CEKHIL_clean_sbu_0, # of connection points: 4
#     Node 12, Type 0, BuildingBlock: CEKHIL_clean_sbu_0, # of connection points: 4
#     Node 13, Type 0, BuildingBlock: CEKHIL_clean_sbu_0, # of connection points: 4
#     Node 14, Type 0, BuildingBlock: CEKHIL_clean_sbu_0, # of connection points: 4
#     Node 15, Type 0, BuildingBlock: CEKHIL_clean_sbu_0, # of connection points: 4
#     Node 16, Type 0, BuildingBlock: CEKHIL_clean_sbu_0, # of connection points: 4
#     Node 17, Type 0, BuildingBlock: CEKHIL_clean_sbu_0, # of connection points: 4
#     Node 18, Type 1, BuildingBlock: AZAVOO_clean_linker_0, # of connection points: 4
#     Node 19, Type 1, BuildingBlock: AZAVOO_clean_linker_0, # of connection points: 4
#     Node 20, Type 1, BuildingBlock: AZAVOO_clean_linker_0, # of connection points: 4
#     Node 21, Type 1, BuildingBlock: AZAVOO_clean_linker_0, # of connection points: 4
#     Node 22, Type 1, BuildingBlock: AZAVOO_clean_linker_0, # of connection points: 4
#     Node 23, Type 1, BuildingBlock: AZAVOO_clean_linker_0, # of connection points: 4
#     Node 24, Type 1, BuildingBlock: AZAVOO_clean_linker_0, # of connection points: 4
#     Node 25, Type 1, BuildingBlock: AZAVOO_clean_linker_0, # of connection points: 4
#     Node 26, Type 1, BuildingBlock: AZAVOO_clean_linker_0, # of connection points: 4
#     Node 27, Type 1, BuildingBlock: AZAVOO_clean_linker_0, # of connection points: 4
#     Node 28, Type 1, BuildingBlock: AZAVOO_clean_linker_0, # of connection points: 4
#     Node 29, Type 1, BuildingBlock: AZAVOO_clean_linker_0, # of connection points: 4
#     Node 30, Type 1, BuildingBlock: AZAVOO_clean_linker_0, # of connection points: 4
#     Node 31, Type 1, BuildingBlock: AZAVOO_clean_linker_0, # of connection points: 4
#     Node 32, Type 1, BuildingBlock: AZAVOO_clean_linker_0, # of connection points: 4
#     Node 33, Type 1, BuildingBlock: AZAVOO_clean_linker_0, # of connection points: 4
#     Node 34, Type 1, BuildingBlock: AZAVOO_clean_linker_0, # of connection points: 4
#     Node 35, Type 1, BuildingBlock: AZAVOO_clean_linker_0, # of connection points: 4
#     Edge 36, Type (0, 1), BuildingBlock: ZUJKAS_clean_linker_0, # of connection points: 2
#     Edge 37, Type (0, 1), BuildingBlock: ZUJKAS_clean_linker_0, # of connection points: 2
#     Edge 38, Type (0, 1), BuildingBlock: ZUJKAS_clean_linker_0, # of connection points: 2
#     Edge 39, Type (0, 1), BuildingBlock: ZUJKAS_clean_linker_0, # of connection points: 2
#     Edge 40, Type (0, 1), BuildingBlock: ZUJKAS_clean_linker_0, # of connection points: 2
#     Edge 41, Type (0, 1), BuildingBlock: ZUJKAS_clean_linker_0, # of connection points: 2
#     Edge 42, Type (0, 1), BuildingBlock: ZUJKAS_clean_linker_0, # of connection points: 2
#     Edge 43, Type (0, 1), BuildingBlock: ZUJKAS_clean_linker_0, # of connection points: 2
#     Edge 44, Type (0, 1), BuildingBlock: ZUJKAS_clean_linker_0, # of connection points: 2
#     Edge 45, Type (0, 1), BuildingBlock: ZUJKAS_clean_linker_0, # of connection points: 2
#     Edge 46, Type (0, 1), BuildingBlock: ZUJKAS_clean_linker_0, # of connection points: 2
#     Edge 47, Type (0, 1), BuildingBlock: ZUJKAS_clean_linker_0, # of connection points: 2
#     Edge 48, Type (0, 1), BuildingBlock: ZUJKAS_clean_linker_0, # of connection points: 2
#     Edge 49, Type (0, 1), BuildingBlock: ZUJKAS_clean_linker_0, # of connection points: 2
#     Edge 50, Type (0, 1), BuildingBlock: ZUJKAS_clean_linker_0, # of connection points: 2
#     Edge 51, Type (0, 1), BuildingBlock: ZUJKAS_clean_linker_0, # of connection points: 2
#     Edge 52, Type (0, 1), BuildingBlock: ZUJKAS_clean_linker_0, # of connection points: 2
#     Edge 53, Type (0, 1), BuildingBlock: ZUJKAS_clean_linker_0, # of connection points: 2
#     Edge 54, Type (0, 1), BuildingBlock: ZUJKAS_clean_linker_0, # of connection points: 2
#     Edge 55, Type (0, 1), BuildingBlock: ZUJKAS_clean_linker_0, # of connection points: 2
#     Edge 56, Type (0, 1), BuildingBlock: ZUJKAS_clean_linker_0, # of connection points: 2
#     Edge 57, Type (0, 1), BuildingBlock: ZUJKAS_clean_linker_0, # of connection points: 2
#     Edge 58, Type (0, 1), BuildingBlock: ZUJKAS_clean_linker_0, # of connection points: 2
#     Edge 59, Type (0, 1), BuildingBlock: ZUJKAS_clean_linker_0, # of connection points: 2
#     Edge 60, Type (0, 1), BuildingBlock: ZUJKAS_clean_linker_0, # of connection points: 2
#     Edge 61, Type (0, 1), BuildingBlock: ZUJKAS_clean_linker_0, # of connection points: 2
#     Edge 62, Type (0, 1), BuildingBlock: ZUJKAS_clean_linker_0, # of connection points: 2
#     Edge 63, Type (0, 1), BuildingBlock: ZUJKAS_clean_linker_0, # of connection points: 2
#     Edge 64, Type (0, 1), BuildingBlock: ZUJKAS_clean_linker_0, # of connection points: 2
#     Edge 65, Type (0, 1), BuildingBlock: ZUJKAS_clean_linker_0, # of connection points: 2
#     Edge 66, Type (0, 1), BuildingBlock: ZUJKAS_clean_linker_0, # of connection points: 2
#     Edge 67, Type (0, 1), BuildingBlock: ZUJKAS_clean_linker_0, # of connection points: 2
#     Edge 68, Type (0, 1), BuildingBlock: ZUJKAS_clean_linker_0, # of connection points: 2
#     Edge 69, Type (0, 1), BuildingBlock: ZUJKAS_clean_linker_0, # of connection points: 2
#     Edge 70, Type (0, 1), BuildingBlock: ZUJKAS_clean_linker_0, # of connection points: 2
#     Edge 71, Type (0, 1), BuildingBlock: ZUJKAS_clean_linker_0, # of connection points: 2
#     Edge 72, Type (0, 1), BuildingBlock: ZUJKAS_clean_linker_0, # of connection points: 2
#     Edge 73, Type (0, 1), BuildingBlock: ZUJKAS_clean_linker_0, # of connection points: 2
#     Edge 74, Type (0, 1), BuildingBlock: ZUJKAS_clean_linker_0, # of connection points: 2
#     Edge 75, Type (0, 1), BuildingBlock: ZUJKAS_clean_linker_0, # of connection points: 2
#     Edge 76, Type (0, 1), BuildingBlock: ZUJKAS_clean_linker_0, # of connection points: 2
#     Edge 77, Type (0, 1), BuildingBlock: ZUJKAS_clean_linker_0, # of connection points: 2
#     Edge 78, Type (0, 1), BuildingBlock: ZUJKAS_clean_linker_0, # of connection points: 2
#     Edge 79, Type (0, 1), BuildingBlock: ZUJKAS_clean_linker_0, # of connection points: 2
#     Edge 80, Type (0, 1), BuildingBlock: ZUJKAS_clean_linker_0, # of connection points: 2
#     Edge 81, Type (0, 1), BuildingBlock: ZUJKAS_clean_linker_0, # of connection points: 2
#     Edge 82, Type (0, 1), BuildingBlock: ZUJKAS_clean_linker_0, # of connection points: 2
#     Edge 83, Type (0, 1), BuildingBlock: ZUJKAS_clean_linker_0, # of connection points: 2
#     Edge 84, Type (0, 1), BuildingBlock: ZUJKAS_clean_linker_0, # of connection points: 2
#     Edge 85, Type (0, 1), BuildingBlock: ZUJKAS_clean_linker_0, # of connection points: 2
#     Edge 86, Type (0, 1), BuildingBlock: ZUJKAS_clean_linker_0, # of connection points: 2
#     Edge 87, Type (0, 1), BuildingBlock: ZUJKAS_clean_linker_0, # of connection points: 2
#     Edge 88, Type (0, 1), BuildingBlock: ZUJKAS_clean_linker_0, # of connection points: 2
#     Edge 89, Type (0, 1), BuildingBlock: ZUJKAS_clean_linker_0, # of connection points: 2
#     Edge 90, Type (0, 1), BuildingBlock: ZUJKAS_clean_linker_0, # of connection points: 2
#     Edge 91, Type (0, 1), BuildingBlock: ZUJKAS_clean_linker_0, # of connection points: 2
#     Edge 92, Type (0, 1), BuildingBlock: ZUJKAS_clean_linker_0, # of connection points: 2
#     Edge 93, Type (0, 1), BuildingBlock: ZUJKAS_clean_linker_0, # of connection points: 2
#     Edge 94, Type (0, 1), BuildingBlock: ZUJKAS_clean_linker_0, # of connection points: 2
#     Edge 95, Type (0, 1), BuildingBlock: ZUJKAS_clean_linker_0, # of connection points: 2
#     Edge 96, Type (0, 1), BuildingBlock: ZUJKAS_clean_linker_0, # of connection points: 2
#     Edge 97, Type (0, 1), BuildingBlock: ZUJKAS_clean_linker_0, # of connection points: 2
#     Edge 98, Type (0, 1), BuildingBlock: ZUJKAS_clean_linker_0, # of connection points: 2
#     Edge 99, Type (0, 1), BuildingBlock: ZUJKAS_clean_linker_0, # of connection points: 2
#     Edge 100, Type (0, 1), BuildingBlock: ZUJKAS_clean_linker_0, # of connection points: 2
#     Edge 101, Type (0, 1), BuildingBlock: ZUJKAS_clean_linker_0, # of connection points: 2
#     Edge 102, Type (0, 1), BuildingBlock: ZUJKAS_clean_linker_0, # of connection points: 2
#     Edge 103, Type (0, 1), BuildingBlock: ZUJKAS_clean_linker_0, # of connection points: 2
#     Edge 104, Type (0, 1), BuildingBlock: ZUJKAS_clean_linker_0, # of connection points: 2
#     Edge 105, Type (0, 1), BuildingBlock: ZUJKAS_clean_linker_0, # of connection points: 2
#     Edge 106, Type (0, 1), BuildingBlock: ZUJKAS_clean_linker_0, # of connection points: 2
#     Edge 107, Type (0, 1), BuildingBlock: ZUJKAS_clean_linker_0, # of connection points: 2
# Relax obj value: 0.048
# Max RMSD: 0.178
# Mean RMSD: 0.118
data_MOF--net-ptr--node1-CEKHIL_clean_sbu_0--node2-AZAVOO_clean_linker_0--edge1-ZUJKAS_clean_linker_0
_symmetry_space_group_name_H-M    P1
_symmetry_Int_Tables_number       1
_symmetry_cell_setting            triclinic
loop_
_symmetry_equiv_pos_as_xyz
'x, y, z'
_cell_length_a     102.60867
_cell_length_b     99.870752
_cell_length_c     86.829065
_cell_angle_alpha  93.1783
_cell_angle_beta   91.636582
_cell_angle_gamma 121.17871
loop_
_atom_site_label
_atom_site_type_symbol
_atom_site_fract_x
_atom_site_fract_y
_atom_site_fract_z
_atom_type_partial_charge
Co0 Co 0.0092 0.35194 0.01391 0.0
O1 O 0.01193 0.34152 0.0305 0.0
O2 O 0.0302 0.36384 0.02239 0.0
C3 C 0.9961 0.33032 0.99735 0.0
O4 O 0.01061 0.36574 0.99675 0.0
Co5 Co 0.97655 0.34321 0.00252 0.0
O6 O 0.9872 0.3555 0.98499 0.0
C7 C 0.99088 0.36324 0.03155 0.0
C8 C 0.02613 0.35281 0.03178 0.0
C9 C 0.00157 0.36521 0.9858 0.0
O10 O 0.00347 0.3639 0.02891 0.0
O11 O 0.97853 0.35471 0.023 0.0
O12 O 0.01092 0.33781 0.99877 0.0
O13 O 0.98977 0.33525 0.00689 0.0
Co14 Co 0.6438 0.63565 0.05831 0.0
O15 O 0.65673 0.64751 0.04258 0.0
O16 O 0.65358 0.62508 0.0496 0.0
C17 C 0.65193 0.65631 0.07583 0.0
O18 O 0.63196 0.62046 0.07441 0.0
Co19 Co 0.61901 0.64183 0.07005 0.0
O20 O 0.61817 0.62876 0.0868 0.0
C21 C 0.61404 0.62477 0.03952 0.0
C22 C 0.66023 0.63678 0.04096 0.0
C23 C 0.62348 0.61973 0.08537 0.0
O24 O 0.62604 0.62408 0.04241 0.0
O25 O 0.60994 0.63229 0.04858 0.0
O26 O 0.65965 0.64938 0.07431 0.0
O27 O 0.64034 0.65133 0.06603 0.0
Co28 Co 0.36919 0.99938 0.01785 0.0
O29 O 0.35735 0.00335 0.00342 0.0
O30 O 0.37986 0.02156 0.01454 0.0
C31 C 0.34974 0.98456 0.03246 0.0
O32 O 0.38432 0.99962 0.03386 0.0
Co33 Co 0.36195 0.96549 0.02008 0.0
O34 O 0.37651 0.97471 0.03851 0.0
C35 C 0.3784 0.98274 0.99386 0.0
C36 C 0.36812 0.01801 0.00527 0.0
C37 C 0.38543 0.98947 0.04144 0.0
O38 O 0.37933 0.99517 0.00023 0.0
O39 O 0.371 0.96934 0.99941 0.0
O40 O 0.35719 -0.00023 0.03455 0.0
O41 O 0.35333 0.9788 0.02076 0.0
Co42 Co 0.9943 0.64973 0.0442 0.0
O43 O 0.99123 0.65924 0.02699 0.0
O44 O 0.97298 0.63788 0.0366 0.0
C45 C 0.00834 0.67226 0.05937 0.0
O46 O 0.99338 0.63696 0.06217 0.0
Co47 Co 0.02724 0.65857 0.05462 0.0
O48 O 0.01723 0.64716 0.07281 0.0
C49 C 0.01161 0.6373 0.02655 0.0
C50 C 0.97695 0.64824 0.02646 0.0
C51 C 0.00284 0.63776 0.07282 0.0
O52 O 0.99911 0.63661 0.02972 0.0
O53 O 0.02434 0.64637 0.03433 0.0
O54 O 0.99353 0.665 0.05865 0.0
O55 O 0.01404 0.66646 0.05 0.0
Co56 Co 0.35946 0.36543 0.00048 0.0
O57 O 0.34576 0.35343 0.01562 0.0
O58 O 0.34995 0.37638 0.00902 0.0
C59 C 0.35129 0.3451 0.98253 0.0
O60 O 0.37226 0.38083 0.98487 0.0
Co61 Co 0.38387 0.35826 0.98959 0.0
O62 O 0.38621 0.37227 0.97326 0.0
C63 C 0.38865 0.37532 0.02005 0.0
C64 C 0.34268 0.36447 0.01729 0.0
C65 C 0.38124 0.3816 0.97442 0.0
O66 O 0.37676 0.37619 0.017 0.0
O67 O 0.3928 0.36781 0.01106 0.0
O68 O 0.344 0.3525 0.98388 0.0
O69 O 0.36243 0.34939 0.99274 0.0
Co70 Co 0.63548 0.00375 0.04081 0.0
O71 O 0.64738 -0.00019 0.05517 0.0
O72 O 0.62497 0.98151 0.04394 0.0
C73 C 0.6549 0.01883 0.02632 0.0
O74 O 0.62037 0.00356 0.02479 0.0
Co75 Co 0.64248 0.03761 0.03913 0.0
O76 O 0.62852 0.02857 0.02025 0.0
C77 C 0.62584 0.01984 0.06498 0.0
C78 C 0.63671 0.98512 0.05324 0.0
C79 C 0.61955 0.01384 0.01714 0.0
O80 O 0.62519 0.0076 0.05847 0.0
O81 O 0.63308 0.03334 0.05962 0.0
O82 O 0.64758 0.00363 0.02413 0.0
O83 O 0.65123 0.02443 0.03811 0.0
Co84 Co 0.67303 0.68946 0.34705 0.0
O85 O 0.674 0.67802 0.3637 0.0
O86 O 0.69347 0.7003 0.35687 0.0
C87 C 0.66031 0.66846 0.32968 0.0
O88 O 0.67658 0.70427 0.33023 0.0
Co89 Co 0.642 0.68295 0.33291 0.0
O90 O 0.65444 0.69578 0.31645 0.0
C91 C 0.6544 0.70123 0.36316 0.0
C92 C 0.68834 0.68886 0.36588 0.0
C93 C 0.66887 0.70485 0.31858 0.0
O94 O 0.66693 0.7014 0.36163 0.0
O95 O 0.64276 0.69365 0.35348 0.0
O96 O 0.67503 0.6754 0.33208 0.0
O97 O 0.65373 0.6736 0.33863 0.0
Co98 Co 0.31145 0.96691 0.39408 0.0
O99 O 0.32505 0.97685 0.3781 0.0
O100 O 0.31939 0.95406 0.38661 0.0
C101 C 0.32117 0.98868 0.41045 0.0
O102 O 0.29846 0.95335 0.41075 0.0
Co103 Co 0.28883 0.97712 0.40395 0.0
O104 O 0.28589 0.96407 0.4214 0.0
C105 C 0.28249 0.95781 0.37458 0.0
C106 C 0.32698 0.96498 0.37736 0.0
C107 C 0.28997 0.95399 0.42107 0.0
O108 O 0.29367 0.95592 0.37814 0.0
O109 O 0.27941 0.96674 0.3828 0.0
O110 O 0.32769 0.98046 0.4099 0.0
O111 O 0.30989 0.9842 0.40038 0.0
Co112 Co 0.04285 0.33427 0.35321 0.0
O113 O 0.03186 0.33844 0.33782 0.0
O114 O 0.05443 0.35619 0.34921 0.0
C115 C 0.02276 0.32042 0.36748 0.0
O116 O 0.05737 0.3347 0.37005 0.0
Co117 Co 0.03478 0.30049 0.35805 0.0
O118 O 0.04855 0.31029 0.37702 0.0
C119 C 0.05156 0.31583 0.33109 0.0
C120 C 0.04311 0.35293 0.33946 0.0
C121 C 0.05786 0.32507 0.37897 0.0
O122 O 0.05294 0.3288 0.33647 0.0
O123 O 0.04387 0.30292 0.33746 0.0
O124 O 0.03055 0.33567 0.36915 0.0
O125 O 0.02658 0.31408 0.3565 0.0
Co126 Co 0.66045 0.9761 0.37811 0.0
O127 O 0.6576 0.98585 0.3609 0.0
O128 O 0.63989 0.96307 0.36873 0.0
C129 C 0.67205 0.99809 0.39438 0.0
O130 O 0.65893 0.96266 0.39564 0.0
Co131 Co 0.69287 0.98664 0.39216 0.0
O132 O 0.6816 0.97392 0.40922 0.0
C133 C 0.6813 0.96717 0.36241 0.0
C134 C 0.6437 0.97394 0.3592 0.0
C135 C 0.66741 0.96358 0.40738 0.0
O136 O 0.66794 0.96504 0.36411 0.0
O137 O 0.69293 0.97634 0.37166 0.0
O138 O 0.65724 0.98985 0.39244 0.0
O139 O 0.67919 0.99345 0.38572 0.0
Co140 Co 0.02746 0.70224 0.3386 0.0
O141 O 0.01333 0.68986 0.35329 0.0
O142 O 0.01685 0.71239 0.34614 0.0
C143 C 0.021 0.68211 0.32087 0.0
O144 O 0.04049 0.71783 0.32327 0.0
Co145 Co 0.05343 0.69659 0.32966 0.0
O146 O 0.05527 0.70979 0.31263 0.0
C147 C 0.0559 0.71314 0.35982 0.0
C148 C 0.0096 0.70044 0.35438 0.0
C149 C 0.04978 0.71869 0.31314 0.0
O150 O 0.04408 0.71377 0.35572 0.0
O151 O 0.06069 0.70573 0.35157 0.0
O152 O 0.0129 0.6887 0.32153 0.0
O153 O 0.03173 0.68695 0.33167 0.0
Co154 Co 0.29903 0.33601 0.37408 0.0
O155 O 0.31113 0.33385 0.38987 0.0
O156 O 0.28889 0.31444 0.37934 0.0
C157 C 0.31845 0.34992 0.35913 0.0
O158 O 0.28375 0.33366 0.35698 0.0
Co159 Co 0.30497 0.36878 0.36762 0.0
O160 O 0.29181 0.35742 0.34855 0.0
C161 C 0.28926 0.35415 0.3953 0.0
C162 C 0.30069 0.31904 0.38893 0.0
C163 C 0.28299 0.34254 0.34723 0.0
O164 O 0.28844 0.34132 0.39038 0.0
O165 O 0.29638 0.36683 0.38845 0.0
O166 O 0.31155 0.33471 0.35839 0.0
O167 O 0.31429 0.35629 0.36974 0.0
Co168 Co 0.34374 0.02479 0.68017 0.0
O169 O 0.34647 0.01543 0.6978 0.0
O170 O 0.36457 0.03738 0.68893 0.0
C171 C 0.3311 0.0023 0.66468 0.0
O172 O 0.34541 0.03774 0.66211 0.0
Co173 Co 0.31139 0.01515 0.66676 0.0
O174 O 0.32243 0.02743 0.64941 0.0
C175 C 0.32447 0.03614 0.6955 0.0
C176 C 0.36057 0.02696 0.69899 0.0
C177 C 0.33679 0.03717 0.65069 0.0
O178 O 0.33733 0.03704 0.69391 0.0
O179 O 0.31253 0.02726 0.68651 0.0
O180 O 0.34593 0.01009 0.66623 0.0
O181 O 0.32452 0.00769 0.6733 0.0
Co182 Co 0.97594 0.2984 0.71938 0.0
O183 O 0.98981 0.31093 0.70455 0.0
O184 O 0.98695 0.28871 0.71189 0.0
C185 C 0.98206 0.31845 0.73707 0.0
O186 O 0.96335 0.28272 0.73483 0.0
Co187 Co 0.94948 0.30307 0.72876 0.0
O188 O 0.94843 0.29032 0.74592 0.0
C189 C 0.94707 0.28654 0.69855 0.0
C190 C 0.99391 0.30063 0.70357 0.0
C191 C 0.95422 0.2817 0.7452 0.0
O192 O 0.95929 0.28653 0.70236 0.0
O193 O 0.94196 0.29349 0.70701 0.0
O194 O 0.99048 0.31225 0.73634 0.0
O195 O 0.97118 0.31331 0.72636 0.0
Co196 Co 0.70409 0.66507 0.68515 0.0
O197 O 0.69173 0.66762 0.66998 0.0
O198 O 0.71406 0.68683 0.68057 0.0
C199 C 0.68496 0.65061 0.70023 0.0
O200 O 0.71971 0.66708 0.70165 0.0
Co201 Co 0.69845 0.63214 0.69033 0.0
O202 O 0.71295 0.6431 0.70864 0.0
C203 C 0.71366 0.64759 0.66275 0.0
C204 C 0.70215 0.68245 0.67121 0.0
C205 C 0.72141 0.65801 0.7104 0.0
O206 O 0.71447 0.66028 0.66817 0.0
O207 O 0.7067 0.63472 0.6693 0.0
O208 O 0.6918 0.66582 0.70142 0.0
O209 O 0.68899 0.64458 0.68916 0.0
Co210 Co 0.33082 0.31269 0.71055 0.0
O211 O 0.32862 0.32344 0.69394 0.0
O212 O 0.31001 0.30104 0.70155 0.0
C213 C 0.34372 0.3342 0.72732 0.0
O214 O 0.32867 0.29852 0.72757 0.0
Co215 Co 0.36294 0.32089 0.72314 0.0
O216 O 0.35163 0.30779 0.73997 0.0
C217 C 0.34968 0.30193 0.69336 0.0
C218 C 0.3144 0.31224 0.69232 0.0
C219 C 0.33721 0.29837 0.73866 0.0
O220 O 0.33685 0.30087 0.69571 0.0
O221 O 0.36175 0.31041 0.7023 0.0
O222 O 0.32891 0.32674 0.72567 0.0
O223 O 0.35016 0.32919 0.71803 0.0
Co224 Co 0.69307 0.03449 0.66606 0.0
O225 O 0.67981 0.02447 0.68229 0.0
O226 O 0.68524 0.04727 0.67402 0.0
C227 C 0.68312 0.01277 0.64957 0.0
O228 O 0.70566 0.0481 0.64921 0.0
Co229 Co 0.71556 0.02439 0.65532 0.0
O230 O 0.71803 0.03744 0.63798 0.0
C231 C 0.72208 0.04311 0.68511 0.0
C232 C 0.67784 0.03631 0.68328 0.0
C233 C 0.71389 0.04747 0.63859 0.0
O234 O 0.71118 0.04546 0.68168 0.0
O235 O 0.72483 0.03401 0.6767 0.0
O236 O 0.67652 0.0209 0.65052 0.0
O237 O 0.6946 0.01727 0.65936 0.0
Co238 Co 0.96083 0.66703 0.70663 0.0
O239 O 0.97116 0.66272 0.72262 0.0
O240 O 0.94865 0.64523 0.71095 0.0
C241 C 0.98133 0.68021 0.69272 0.0
O242 O 0.94701 0.66684 0.68917 0.0
Co243 Co 0.97005 0.70106 0.7012 0.0
O244 O 0.95714 0.69127 0.68167 0.0
C245 C 0.95255 0.68638 0.72799 0.0
C246 C 0.95968 0.64835 0.72103 0.0
C247 C 0.94743 0.67657 0.67976 0.0
O248 O 0.95066 0.67315 0.72272 0.0
O249 O 0.96085 0.6992 0.72168 0.0
O250 O 0.9733 0.66496 0.69132 0.0
O251 O 0.97752 0.68691 0.70333 0.0
H252 H 0.17326 0.34973 0.05887 0.0
H253 H 0.23841 0.28769 0.17403 0.0
H254 H 0.16341 0.34666 0.14194 0.0
H255 H 0.14509 0.35235 0.13023 0.0
H256 H 0.10956 0.30354 0.13085 0.0
H257 H 0.1282 0.2979 0.14219 0.0
H258 H 0.18795 0.3464 0.12361 0.0
H259 H 0.18558 0.35222 0.09702 0.0
H260 H 0.14524 0.30596 0.08791 0.0
H261 H 0.14786 0.30024 0.11447 0.0
H262 H 0.21076 0.34156 0.1454 0.0
H263 H 0.23138 0.34797 0.12833 0.0
H264 H 0.20076 0.3071 0.09763 0.0
H265 H 0.18013 0.30068 0.11494 0.0
H266 H 0.20716 0.33201 0.17724 0.0
H267 H 0.22739 0.32746 0.18575 0.0
H268 H 0.20636 0.28446 0.1558 0.0
H269 H 0.18608 0.28904 0.14756 0.0
H270 H 0.18053 0.33319 0.19239 0.0
H271 H 0.18948 0.33159 0.21818 0.0
H272 H 0.17829 0.28424 0.2051 0.0
H273 H 0.16881 0.28577 0.17942 0.0
H274 H 0.15851 0.33899 0.17612 0.0
H275 H 0.14226 0.33841 0.19641 0.0
H276 H 0.12087 0.28794 0.19534 0.0
H277 H 0.13759 0.28878 0.17538 0.0
O278 O 0.17401 0.34717 0.06932 0.0
O279 O 0.15326 0.32331 0.06528 0.0
O280 O 0.24088 0.31195 0.18611 0.0
O281 O 0.23058 0.2898 0.17083 0.0
C282 C 0.15888 0.31822 0.14768 0.0
C283 C 0.16953 0.31931 0.13706 0.0
C284 C 0.18157 0.31721 0.14185 0.0
C285 C 0.18256 0.31329 0.15703 0.0
C286 C 0.1718 0.31198 0.16762 0.0
C287 C 0.15999 0.31454 0.16295 0.0
C288 C 0.14714 0.32186 0.14283 0.0
C289 C 0.15162 0.33725 0.13975 0.0
C290 C 0.1411 0.34049 0.13312 0.0
C291 C 0.12586 0.32838 0.12951 0.0
C292 C 0.12126 0.31308 0.13328 0.0
C293 C 0.13183 0.30985 0.13989 0.0
C294 C 0.16813 0.32287 0.12092 0.0
C295 C 0.17867 0.33752 0.11582 0.0
C296 C 0.17725 0.34082 0.10064 0.0
C297 C 0.16523 0.32955 0.09033 0.0
C298 C 0.15464 0.3149 0.09554 0.0
C299 C 0.1561 0.3116 0.1107 0.0
C300 C 0.19399 0.3206 0.13146 0.0
C301 C 0.20855 0.33389 0.13508 0.0
C302 C 0.2203 0.33753 0.12532 0.0
C303 C 0.21769 0.32801 0.11167 0.0
C304 C 0.20306 0.31471 0.10802 0.0
C305 C 0.19131 0.31099 0.11789 0.0
C306 C 0.1951 0.31078 0.16189 0.0
C307 C 0.20692 0.32158 0.17259 0.0
C308 C 0.21847 0.31898 0.1774 0.0
C309 C 0.21847 0.30557 0.17148 0.0
C310 C 0.20669 0.29488 0.16061 0.0
C311 C 0.19511 0.29748 0.15586 0.0
C312 C 0.17405 0.30961 0.18401 0.0
C313 C 0.1795 0.32228 0.19526 0.0
C314 C 0.1848 0.32141 0.20992 0.0
C315 C 0.18485 0.30789 0.21358 0.0
C316 C 0.17835 0.29479 0.20266 0.0
C317 C 0.17296 0.29565 0.18798 0.0
C318 C 0.14919 0.31393 0.17429 0.0
C319 C 0.15019 0.3278 0.18017 0.0
C320 C 0.14084 0.32742 0.19173 0.0
C321 C 0.13025 0.31312 0.19757 0.0
C322 C 0.12906 0.29918 0.19132 0.0
C323 C 0.1385 0.2996 0.17983 0.0
C324 C 0.16375 0.33309 0.07422 0.0
C325 C 0.23068 0.30269 0.17662 0.0
H326 H 0.66972 0.82394 0.07469 0.0
H327 H 0.71657 0.95701 0.19828 0.0
H328 H 0.67359 0.82029 0.1575 0.0
H329 H 0.67088 0.79508 0.1496 0.0
H330 H 0.71899 0.81488 0.16129 0.0
H331 H 0.72166 0.84029 0.16879 0.0
H332 H 0.67 0.84299 0.13969 0.0
H333 H 0.6654 0.83374 0.11226 0.0
H334 H 0.71249 0.84635 0.11078 0.0
H335 H 0.71697 0.85572 0.13817 0.0
H336 H 0.67011 0.86897 0.1628 0.0
H337 H 0.66092 0.88149 0.14588 0.0
H338 H 0.70155 0.8987 0.12059 0.0
H339 H 0.71075 0.88611 0.13777 0.0
H340 H 0.67978 0.87875 0.19493 0.0
H341 H 0.68146 0.9033 0.20384 0.0
H342 H 0.72345 0.92938 0.18104 0.0
H343 H 0.72174 0.90474 0.17241 0.0
H344 H 0.68138 0.85341 0.21022 0.0
H345 H 0.6817 0.86489 0.23587 0.0
H346 H 0.72773 0.90318 0.23094 0.0
H347 H 0.7271 0.8917 0.20506 0.0
H348 H 0.67867 0.82493 0.19276 0.0
H349 H 0.6797 0.80825 0.2117 0.0
H350 H 0.72796 0.84152 0.22133 0.0
H351 H 0.72683 0.8581 0.20208 0.0
O352 O 0.6718 0.8277 0.08551 0.0
O353 O 0.69609 0.83432 0.08539 0.0
O354 O 0.69403 0.93317 0.20648 0.0
O355 O 0.71559 0.94712 0.19487 0.0
C356 C 0.69923 0.84728 0.16849 0.0
C357 C 0.69668 0.85577 0.1575 0.0
C358 C 0.69659 0.86943 0.16244 0.0
C359 C 0.70002 0.87514 0.17817 0.0
C360 C 0.70251 0.86662 0.18915 0.0
C361 C 0.70184 0.85255 0.18435 0.0
C362 C 0.69784 0.83212 0.16356 0.0
C363 C 0.68356 0.8192 0.15824 0.0
C364 C 0.68201 0.80477 0.15393 0.0
C365 C 0.69471 0.80296 0.15493 0.0
C366 C 0.70903 0.81595 0.16029 0.0
C367 C 0.71057 0.83043 0.16461 0.0
C368 C 0.69385 0.85014 0.14086 0.0
C369 C 0.67933 0.84384 0.13338 0.0
C370 C 0.67672 0.83852 0.11773 0.0
C371 C 0.68858 0.83933 0.10931 0.0
C372 C 0.70311 0.84557 0.11691 0.0
C373 C 0.7057 0.85093 0.13255 0.0
C374 C 0.69116 0.87678 0.15161 0.0
C375 C 0.67706 0.87549 0.15365 0.0
C376 C 0.67184 0.88266 0.14399 0.0
C377 C 0.68058 0.89118 0.132 0.0
C378 C 0.69455 0.89214 0.1297 0.0
C379 C 0.69985 0.88503 0.1395 0.0
C380 C 0.70073 0.89 0.18317 0.0
C381 C 0.68937 0.88979 0.19196 0.0
C382 C 0.69033 0.90382 0.19698 0.0
C383 C 0.70262 0.91832 0.1932 0.0
C384 C 0.71386 0.91844 0.1842 0.0
C385 C 0.71291 0.90439 0.17922 0.0
C386 C 0.7042 0.87175 0.20581 0.0
C387 C 0.69169 0.86402 0.21489 0.0
C388 C 0.69192 0.87062 0.22956 0.0
C389 C 0.70469 0.88506 0.2354 0.0
C390 C 0.71762 0.8922 0.22666 0.0
C391 C 0.71736 0.8856 0.21196 0.0
C392 C 0.70268 0.84267 0.19603 0.0
C393 C 0.68946 0.8286 0.19894 0.0
C394 C 0.69006 0.81915 0.20984 0.0
C395 C 0.70391 0.82361 0.21806 0.0
C396 C 0.71717 0.83773 0.21509 0.0
C397 C 0.71653 0.84724 0.2042 0.0
C398 C 0.68578 0.83365 0.09269 0.0
C399 C 0.70376 0.93327 0.1986 0.0
H400 H 0.14626 0.85042 0.06498 0.0
H401 H 0.27229 0.94587 0.18943 0.0
H402 H 0.1351 0.85442 0.14649 0.0
H403 H 0.1119 0.82991 0.13653 0.0
H404 H 0.12978 0.80336 0.15622 0.0
H405 H 0.153 0.82785 0.16578 0.0
H406 H 0.1643 0.88042 0.12801 0.0
H407 H 0.15653 0.87169 0.10063 0.0
H408 H 0.15852 0.83017 0.10729 0.0
H409 H 0.16645 0.83913 0.1346 0.0
H410 H 0.19657 0.90807 0.14422 0.0
H411 H 0.2165 0.92091 0.12604 0.0
H412 H 0.21906 0.87907 0.12008 0.0
H413 H 0.19903 0.86634 0.138 0.0
H414 H 0.19657 0.91266 0.18225 0.0
H415 H 0.22183 0.93552 0.19006 0.0
H416 H 0.24252 0.90892 0.17588 0.0
H417 H 0.21718 0.8861 0.16831 0.0
H418 H 0.17116 0.88997 0.20324 0.0
H419 H 0.18131 0.89837 0.23028 0.0
H420 H 0.21074 0.87982 0.22341 0.0
H421 H 0.20044 0.87136 0.19659 0.0
H422 H 0.13815 0.85999 0.18412 0.0
H423 H 0.12018 0.84318 0.20247 0.0
H424 H 0.15111 0.82787 0.21542 0.0
H425 H 0.16873 0.84432 0.19678 0.0
O426 O 0.14939 0.85367 0.07582 0.0
O427 O 0.15054 0.8325 0.07987 0.0
O428 O 0.25095 0.95013 0.19367 0.0
O429 O 0.26216 0.937 0.18646 0.0
C430 C 0.16045 0.85755 0.16138 0.0
C431 C 0.1705 0.86572 0.1499 0.0
C432 C 0.18517 0.87882 0.15423 0.0
C433 C 0.18968 0.88395 0.17001 0.0
C434 C 0.17969 0.8757 0.18148 0.0
C435 C 0.16504 0.86254 0.17718 0.0
C436 C 0.1457 0.84287 0.15683 0.0
C437 C 0.13388 0.84329 0.14879 0.0
C438 C 0.12063 0.82931 0.1432 0.0
C439 C 0.11908 0.81473 0.14553 0.0
C440 C 0.13074 0.81442 0.15409 0.0
C441 C 0.14394 0.82836 0.15967 0.0
C442 C 0.16583 0.86036 0.13329 0.0
C443 C 0.16307 0.86946 0.12351 0.0
C444 C 0.15862 0.86443 0.10789 0.0
C445 C 0.15686 0.85021 0.10177 0.0
C446 C 0.15972 0.84116 0.11163 0.0
C447 C 0.16421 0.84622 0.12723 0.0
C448 C 0.19635 0.88628 0.14236 0.0
C449 C 0.20135 0.90167 0.13883 0.0
C450 C 0.21279 0.90899 0.12853 0.0
C451 C 0.21941 0.90103 0.12163 0.0
C452 C 0.21407 0.88547 0.12498 0.0
C453 C 0.20265 0.87818 0.13525 0.0
C454 C 0.20507 0.89779 0.17463 0.0
C455 C 0.20658 0.91181 0.18086 0.0
C456 C 0.22102 0.92484 0.18529 0.0
C457 C 0.23421 0.92406 0.18356 0.0
C458 C 0.23261 0.90994 0.17734 0.0
C459 C 0.21816 0.89691 0.17296 0.0
C460 C 0.18514 0.88013 0.19801 0.0
C461 C 0.17971 0.88763 0.20767 0.0
C462 C 0.18555 0.89247 0.22304 0.0
C463 C 0.19681 0.88973 0.22895 0.0
C464 C 0.20195 0.88191 0.21926 0.0
C465 C 0.19617 0.87718 0.20393 0.0
C466 C 0.15476 0.85341 0.18919 0.0
C467 C 0.14106 0.85308 0.19103 0.0
C468 C 0.13086 0.84355 0.20156 0.0
C469 C 0.1342 0.83414 0.21035 0.0
C470 C 0.14812 0.83481 0.20867 0.0
C471 C 0.15827 0.84432 0.19817 0.0
C472 C 0.15208 0.84487 0.08518 0.0
C473 C 0.24957 0.93788 0.18822 0.0
H474 H 0.30128 0.16767 0.98617 0.0
H475 H 0.32868 0.06791 0.87007 0.0
H476 H 0.28488 0.16018 0.90452 0.0
H477 H 0.28549 0.18469 0.91148 0.0
H478 H 0.32878 0.21088 0.89104 0.0
H479 H 0.32834 0.18652 0.88459 0.0
H480 H 0.28811 0.13515 0.92443 0.0
H481 H 0.28961 0.14493 0.9513 0.0
H482 H 0.33303 0.18648 0.94444 0.0
H483 H 0.33146 0.17648 0.91765 0.0
H484 H 0.29143 0.10746 0.91065 0.0
H485 H 0.29892 0.09431 0.92878 0.0
H486 H 0.34464 0.13516 0.93382 0.0
H487 H 0.33688 0.14828 0.91607 0.0
H488 H 0.28637 0.10091 0.87349 0.0
H489 H 0.28833 0.07778 0.86758 0.0
H490 H 0.3367 0.10546 0.88078 0.0
H491 H 0.3346 0.12852 0.88648 0.0
H492 H 0.28422 0.1202 0.84992 0.0
H493 H 0.28611 0.1091 0.82475 0.0
H494 H 0.33526 0.1344 0.83278 0.0
H495 H 0.33314 0.14488 0.85803 0.0
H496 H 0.28182 0.15371 0.86566 0.0
H497 H 0.28128 0.17097 0.84695 0.0
H498 H 0.32783 0.18629 0.83723 0.0
H499 H 0.32838 0.16937 0.85618 0.0
O500 O 0.30095 0.16399 0.97553 0.0
O501 O 0.32322 0.18515 0.9714 0.0
O502 O 0.3027 0.06321 0.86549 0.0
O503 O 0.32759 0.07687 0.87227 0.0
C504 C 0.30671 0.15696 0.89052 0.0
C505 C 0.30858 0.14918 0.90277 0.0
C506 C 0.30985 0.13593 0.89948 0.0
C507 C 0.30903 0.1303 0.88399 0.0
C508 C 0.30745 0.13822 0.87178 0.0
C509 C 0.30618 0.15148 0.87499 0.0
C510 C 0.30652 0.17157 0.89397 0.0
C511 C 0.29444 0.17122 0.90149 0.0
C512 C 0.29479 0.18517 0.90542 0.0
C513 C 0.30712 0.19962 0.90166 0.0
C514 C 0.31901 0.19987 0.89382 0.0
C515 C 0.31878 0.18599 0.89014 0.0
C516 C 0.30963 0.15515 0.91909 0.0
C517 C 0.29795 0.14634 0.92878 0.0
C518 C 0.29883 0.15197 0.9441 0.0
C519 C 0.31142 0.16651 0.95001 0.0
C520 C 0.32316 0.17526 0.94026 0.0
C521 C 0.32227 0.1696 0.92495 0.0
C522 C 0.31361 0.1288 0.91209 0.0
C523 C 0.30296 0.11364 0.91594 0.0
C524 C 0.30732 0.10612 0.92618 0.0
C525 C 0.32244 0.11361 0.93265 0.0
C526 C 0.33287 0.1291 0.92923 0.0
C527 C 0.32848 0.13662 0.91906 0.0
C528 C 0.31032 0.11633 0.88047 0.0
C529 C 0.29738 0.10194 0.87507 0.0
C530 C 0.29853 0.08876 0.87172 0.0
C531 C 0.31268 0.08977 0.87374 0.0
C532 C 0.32564 0.10426 0.87913 0.0
C533 C 0.32447 0.11744 0.88243 0.0
C534 C 0.30854 0.13329 0.85572 0.0
C535 C 0.29537 0.12348 0.84607 0.0
C536 C 0.2965 0.1172 0.83171 0.0
C537 C 0.31083 0.12073 0.82682 0.0
C538 C 0.32403 0.13118 0.83631 0.0
C539 C 0.32287 0.13731 0.85066 0.0
C540 C 0.3051 0.1602 0.86219 0.0
C541 C 0.2918 0.16062 0.85928 0.0
C542 C 0.2915 0.17045 0.84859 0.0
C543 C 0.30455 0.18008 0.8407 0.0
C544 C 0.31767 0.17918 0.84327 0.0
C545 C 0.31794 0.16936 0.85393 0.0
C546 C 0.31228 0.1725 0.96627 0.0
C547 C 0.31396 0.07579 0.87023 0.0
H548 H 0.84053 0.16411 0.99271 0.0
H549 H 0.74727 0.03758 0.86459 0.0
H550 H 0.84664 0.17121 0.91148 0.0
H551 H 0.86983 0.19538 0.92175 0.0
H552 H 0.89691 0.1757 0.9077 0.0
H553 H 0.87352 0.15128 0.89776 0.0
H554 H 0.81993 0.14794 0.92718 0.0
H555 H 0.82538 0.15599 0.95487 0.0
H556 H 0.85951 0.14291 0.95589 0.0
H557 H 0.85381 0.13474 0.92821 0.0
H558 H 0.793 0.12304 0.9036 0.0
H559 H 0.77231 0.11051 0.92088 0.0
H560 H 0.79651 0.0919 0.94434 0.0
H561 H 0.81726 0.10454 0.92689 0.0
H562 H 0.79246 0.11566 0.87034 0.0
H563 H 0.76851 0.09197 0.86066 0.0
H564 H 0.78299 0.06351 0.88255 0.0
H565 H 0.80698 0.0873 0.892 0.0
H566 H 0.82002 0.14118 0.85616 0.0
H567 H 0.81 0.13203 0.82937 0.0
H568 H 0.81561 0.09227 0.83324 0.0
H569 H 0.8253 0.10141 0.86022 0.0
H570 H 0.84759 0.16856 0.87455 0.0
H571 H 0.86529 0.18468 0.85576 0.0
H572 H 0.87671 0.14917 0.84615 0.0
H573 H 0.85901 0.13315 0.86514 0.0
O574 O 0.83852 0.1608 0.98177 0.0
O575 O 0.856 0.15397 0.98165 0.0
O576 O 0.74976 0.06229 0.85717 0.0
O577 O 0.75664 0.04714 0.86827 0.0
C578 C 0.84413 0.14462 0.89838 0.0
C579 C 0.83313 0.13579 0.9089 0.0
C580 C 0.819 0.12247 0.90336 0.0
C581 C 0.81616 0.11753 0.88743 0.0
C582 C 0.82714 0.12633 0.87693 0.0
C583 C 0.84107 0.13993 0.88238 0.0
C584 C 0.85838 0.15942 0.90406 0.0
C585 C 0.85756 0.17206 0.91072 0.0
C586 C 0.87079 0.18583 0.91656 0.0
C587 C 0.88512 0.18733 0.9156 0.0
C588 C 0.88599 0.17484 0.90853 0.0
C589 C 0.87268 0.16092 0.90288 0.0
C590 C 0.83639 0.14064 0.92573 0.0
C591 C 0.82849 0.14671 0.93343 0.0
C592 C 0.83167 0.15136 0.94924 0.0
C593 C 0.84286 0.15007 0.95761 0.0
C594 C 0.8508 0.14404 0.9498 0.0
C595 C 0.84758 0.13937 0.934 0.0
C596 C 0.80655 0.11459 0.91393 0.0
C597 C 0.79377 0.11615 0.9124 0.0
C598 C 0.78197 0.10898 0.92225 0.0
C599 C 0.78275 0.10016 0.93391 0.0
C600 C 0.79566 0.09872 0.93553 0.0
C601 C 0.80746 0.10585 0.92557 0.0
C602 C 0.8015 0.10317 0.88174 0.0
C603 C 0.79047 0.10429 0.87294 0.0
C604 C 0.77679 0.09074 0.86747 0.0
C605 C 0.77385 0.07583 0.8708 0.0
C606 C 0.78489 0.07479 0.87975 0.0
C607 C 0.79859 0.08836 0.88518 0.0
C608 C 0.82337 0.12195 0.86009 0.0
C609 C 0.81938 0.13068 0.8511 0.0
C610 C 0.81368 0.12543 0.83578 0.0
C611 C 0.8119 0.11134 0.82917 0.0
C612 C 0.8166 0.10302 0.83805 0.0
C613 C 0.82225 0.10827 0.85341 0.0
C614 C 0.85208 0.14974 0.87121 0.0
C615 C 0.85398 0.16432 0.86844 0.0
C616 C 0.864 0.17343 0.85764 0.0
C617 C 0.87233 0.16814 0.84945 0.0
C618 C 0.87052 0.15358 0.85238 0.0
C619 C 0.8604 0.14441 0.86314 0.0
C620 C 0.84623 0.15505 0.97439 0.0
C621 C 0.75935 0.06139 0.86498 0.0
H622 H 0.85547 0.68893 0.0074 0.0
H623 H 0.74416 0.67895 0.8819 0.0
H624 H 0.87099 0.70613 0.92916 0.0
H625 H 0.88962 0.70121 0.94169 0.0
H626 H 0.86791 0.65545 0.91661 0.0
H627 H 0.84931 0.66047 0.90416 0.0
H628 H 0.84379 0.70537 0.94706 0.0
H629 H 0.84948 0.70279 0.97392 0.0
H630 H 0.83942 0.65576 0.96107 0.0
H631 H 0.83357 0.65843 0.9343 0.0
H632 H 0.81539 0.70522 0.93167 0.0
H633 H 0.79533 0.69951 0.94947 0.0
H634 H 0.78307 0.65094 0.94714 0.0
H635 H 0.80329 0.65688 0.92968 0.0
H636 H 0.81955 0.71257 0.8948 0.0
H637 H 0.79751 0.71463 0.88733 0.0
H638 H 0.7675 0.66523 0.89312 0.0
H639 H 0.78966 0.66331 0.9004 0.0
H640 H 0.84377 0.71263 0.87383 0.0
H641 H 0.83597 0.71432 0.84732 0.0
H642 H 0.79888 0.66599 0.84607 0.0
H643 H 0.80689 0.66439 0.87229 0.0
H644 H 0.87179 0.70975 0.89151 0.0
H645 H 0.88801 0.71037 0.87102 0.0
H646 H 0.85168 0.66459 0.85197 0.0
H647 H 0.8358 0.66393 0.87271 0.0
O648 O 0.853 0.68963 0.99675 0.0
O649 O 0.84779 0.66555 0.98953 0.0
O650 O 0.769 0.70378 0.88186 0.0
O651 O 0.75307 0.67845 0.88477 0.0
C652 C 0.84558 0.68511 0.91114 0.0
C653 C 0.83541 0.684 0.92238 0.0
C654 C 0.82234 0.68454 0.91808 0.0
C655 C 0.81964 0.68669 0.90265 0.0
C656 C 0.82964 0.68756 0.89135 0.0
C657 C 0.84257 0.68666 0.89556 0.0
C658 C 0.85879 0.68365 0.91579 0.0
C659 C 0.87052 0.69522 0.92608 0.0
C660 C 0.88103 0.69232 0.93333 0.0
C661 C 0.88007 0.67784 0.9303 0.0
C662 C 0.86897 0.66673 0.91913 0.0
C663 C 0.85839 0.6696 0.91196 0.0
C664 C 0.83836 0.68213 0.93875 0.0
C665 C 0.84274 0.6945 0.9501 0.0
C666 C 0.84602 0.693 0.96542 0.0
C667 C 0.84496 0.67909 0.96963 0.0
C668 C 0.8404 0.66665 0.95821 0.0
C669 C 0.83707 0.66814 0.94292 0.0
C670 C 0.81078 0.68147 0.92945 0.0
C671 C 0.80842 0.6934 0.93513 0.0
C672 C 0.79691 0.69008 0.94521 0.0
C673 C 0.78758 0.67475 0.94973 0.0
C674 C 0.79019 0.66291 0.94412 0.0
C675 C 0.80169 0.66625 0.9341 0.0
C676 C 0.80618 0.68782 0.89821 0.0
C677 C 0.8082 0.70222 0.89443 0.0
C678 C 0.7956 0.70336 0.89018 0.0
C679 C 0.78073 0.6901 0.88966 0.0
C680 C 0.77878 0.67568 0.89343 0.0
C681 C 0.7914 0.67455 0.89764 0.0
C682 C 0.82587 0.68839 0.87494 0.0
C683 C 0.83409 0.70238 0.8677 0.0
C684 C 0.82957 0.70335 0.85264 0.0
C685 C 0.81681 0.69028 0.84459 0.0
C686 C 0.80888 0.6762 0.85183 0.0
C687 C 0.81337 0.67527 0.86684 0.0
C688 C 0.85262 0.68683 0.88353 0.0
C689 C 0.86743 0.69983 0.88296 0.0
C690 C 0.87661 0.7002 0.87119 0.0
C691 C 0.87113 0.68754 0.85983 0.0
C692 C 0.85634 0.67444 0.86063 0.0
C693 C 0.8472 0.67409 0.87239 0.0
C694 C 0.84865 0.67762 0.98588 0.0
C695 C 0.7673 0.69125 0.88519 0.0
H696 H 0.8315 0.68072 0.38907 0.0
H697 H 0.90655 0.62985 0.50634 0.0
H698 H 0.82513 0.68093 0.47494 0.0
H699 H 0.80639 0.6863 0.46365 0.0
H700 H 0.77265 0.63659 0.45972 0.0
H701 H 0.79148 0.63143 0.4715 0.0
H702 H 0.84833 0.68087 0.45406 0.0
H703 H 0.84478 0.6854 0.42725 0.0
H704 H 0.8076 0.63714 0.41915 0.0
H705 H 0.81138 0.63276 0.44595 0.0
H706 H 0.87226 0.67936 0.47401 0.0
H707 H 0.89294 0.68614 0.45688 0.0
H708 H 0.86557 0.64095 0.43107 0.0
H709 H 0.84486 0.63422 0.44841 0.0
H710 H 0.87119 0.67024 0.5074 0.0
H711 H 0.89274 0.66781 0.51603 0.0
H712 H 0.87298 0.62343 0.48851 0.0
H713 H 0.85139 0.62591 0.48015 0.0
H714 H 0.84418 0.66971 0.52344 0.0
H715 H 0.8536 0.669 0.54934 0.0
H716 H 0.84411 0.6221 0.53712 0.0
H717 H 0.83414 0.62271 0.51137 0.0
H718 H 0.82119 0.67429 0.50615 0.0
H719 H 0.80509 0.67422 0.52643 0.0
H720 H 0.78648 0.62454 0.52934 0.0
H721 H 0.80239 0.62468 0.50874 0.0
O722 O 0.83275 0.67867 0.3996 0.0
O723 O 0.81368 0.65378 0.39606 0.0
O724 O 0.90781 0.65394 0.51712 0.0
O725 O 0.89818 0.63113 0.50309 0.0
C726 C 0.82168 0.65268 0.47892 0.0
C727 C 0.83219 0.65374 0.46817 0.0
C728 C 0.84476 0.65255 0.47297 0.0
C729 C 0.84641 0.64946 0.48833 0.0
C730 C 0.83573 0.64805 0.49906 0.0
C731 C 0.82343 0.64985 0.49439 0.0
C732 C 0.80962 0.65581 0.47403 0.0
C733 C 0.81359 0.67125 0.4719 0.0
C734 C 0.80292 0.67426 0.4653 0.0
C735 C 0.78806 0.66186 0.46058 0.0
C736 C 0.78394 0.64642 0.46333 0.0
C737 C 0.79466 0.64343 0.47003 0.0
C738 C 0.83017 0.65647 0.45187 0.0
C739 C 0.8395 0.67128 0.44643 0.0
C740 C 0.83741 0.67384 0.43114 0.0
C741 C 0.82592 0.66163 0.42105 0.0
C742 C 0.81657 0.6468 0.4266 0.0
C743 C 0.81869 0.64426 0.44189 0.0
C744 C 0.85712 0.6563 0.46244 0.0
C745 C 0.87074 0.67093 0.46465 0.0
C746 C 0.88248 0.67482 0.4548 0.0
C747 C 0.88083 0.6641 0.4426 0.0
C748 C 0.86717 0.64939 0.44044 0.0
C749 C 0.85535 0.64555 0.45026 0.0
C750 C 0.8597 0.64819 0.49325 0.0
C751 C 0.87152 0.65998 0.5033 0.0
C752 C 0.88383 0.65858 0.50818 0.0
C753 C 0.88457 0.6454 0.50298 0.0
C754 C 0.87276 0.63371 0.49275 0.0
C755 C 0.86043 0.6351 0.48793 0.0
C756 C 0.83848 0.64627 0.51552 0.0
C757 C 0.84365 0.65908 0.52652 0.0
C758 C 0.84922 0.65873 0.54125 0.0
C759 C 0.84985 0.64559 0.5452 0.0
C760 C 0.84372 0.63236 0.53448 0.0
C761 C 0.83805 0.63269 0.51975 0.0
C762 C 0.81285 0.64947 0.5059 0.0
C763 C 0.81343 0.66335 0.51098 0.0
C764 C 0.80435 0.66331 0.52267 0.0
C765 C 0.79456 0.64939 0.52954 0.0
C766 C 0.79378 0.63542 0.52417 0.0
C767 C 0.80289 0.63548 0.51247 0.0
C768 C 0.8237 0.66439 0.40482 0.0
C769 C 0.89757 0.64381 0.50819 0.0
H770 H 0.34344 0.16004 0.40325 0.0
H771 H 0.37298 0.28449 0.53118 0.0
H772 H 0.341 0.15246 0.48534 0.0
H773 H 0.33976 0.12793 0.47768 0.0
H774 H 0.38715 0.1489 0.49362 0.0
H775 H 0.38839 0.17368 0.50085 0.0
H776 H 0.33732 0.17447 0.46789 0.0
H777 H 0.33533 0.16684 0.44026 0.0
H778 H 0.38356 0.18334 0.44247 0.0
H779 H 0.38541 0.19107 0.47007 0.0
H780 H 0.33318 0.19579 0.48851 0.0
H781 H 0.32448 0.20916 0.47215 0.0
H782 H 0.36983 0.23646 0.4561 0.0
H783 H 0.37847 0.22296 0.47268 0.0
H784 H 0.34062 0.20659 0.52272 0.0
H785 H 0.33963 0.22964 0.53192 0.0
H786 H 0.38401 0.25981 0.51479 0.0
H787 H 0.38493 0.23665 0.50584 0.0
H788 H 0.34416 0.18357 0.53971 0.0
H789 H 0.34311 0.19486 0.56499 0.0
H790 H 0.38922 0.23373 0.56185 0.0
H791 H 0.38994 0.2225 0.53635 0.0
H792 H 0.34437 0.15458 0.52027 0.0
H793 H 0.34579 0.13738 0.53832 0.0
H794 H 0.39189 0.17395 0.55345 0.0
H795 H 0.39046 0.19108 0.53509 0.0
O796 O 0.34449 0.16321 0.41417 0.0
O797 O 0.36932 0.17181 0.41594 0.0
O798 O 0.35032 0.25915 0.53635 0.0
O799 O 0.37304 0.27517 0.5276 0.0
C800 C 0.36514 0.17946 0.49868 0.0
C801 C 0.36279 0.18808 0.4877 0.0
C802 C 0.36158 0.20103 0.49273 0.0
C803 C 0.36372 0.20602 0.50859 0.0
C804 C 0.36621 0.19752 0.51958 0.0
C805 C 0.36655 0.18401 0.51468 0.0
C806 C 0.36481 0.16487 0.49352 0.0
C807 C 0.35116 0.15182 0.487 0.0
C808 C 0.35043 0.13776 0.48283 0.0
C809 C 0.36332 0.13644 0.48519 0.0
C810 C 0.37706 0.1496 0.49159 0.0
C811 C 0.37778 0.16371 0.49575 0.0
C812 C 0.36154 0.18347 0.47093 0.0
C813 C 0.34746 0.17656 0.46235 0.0
C814 C 0.34635 0.17215 0.44658 0.0
C815 C 0.35929 0.17451 0.43914 0.0
C816 C 0.37337 0.18138 0.44783 0.0
C817 C 0.37447 0.1858 0.46359 0.0
C818 C 0.35641 0.20842 0.48172 0.0
C819 C 0.34118 0.20453 0.48131 0.0
C820 C 0.33623 0.21211 0.4719 0.0
C821 C 0.34647 0.22382 0.46281 0.0
C822 C 0.36172 0.22753 0.46305 0.0
C823 C 0.36665 0.21982 0.47242 0.0
C824 C 0.36289 0.21999 0.51373 0.0
C825 C 0.35013 0.21819 0.52102 0.0
C826 C 0.34958 0.23137 0.52623 0.0
C827 C 0.36177 0.24658 0.52413 0.0
C828 C 0.37446 0.24828 0.51663 0.0
C829 C 0.375 0.23509 0.51147 0.0
C830 C 0.36711 0.20225 0.53623 0.0
C831 C 0.35419 0.19426 0.54472 0.0
C832 C 0.35362 0.20076 0.55916 0.0
C833 C 0.36601 0.21533 0.56535 0.0
C834 C 0.37937 0.22267 0.55727 0.0
C835 C 0.37989 0.2162 0.5428 0.0
C836 C 0.36736 0.17401 0.52626 0.0
C837 C 0.35481 0.15885 0.52742 0.0
C838 C 0.35565 0.14904 0.53769 0.0
C839 C 0.36901 0.15428 0.54718 0.0
C840 C 0.38145 0.16963 0.54629 0.0
C841 C 0.38065 0.1794 0.53584 0.0
C842 C 0.35807 0.16979 0.4224 0.0
C843 C 0.3613 0.26063 0.52974 0.0
H844 H 0.81097 0.18485 0.38885 0.0
H845 H 0.93864 0.27134 0.51291 0.0
H846 H 0.80046 0.18517 0.47345 0.0
H847 H 0.77536 0.16203 0.4655 0.0
H848 H 0.79272 0.13206 0.47615 0.0
H849 H 0.81744 0.1552 0.4846 0.0
H850 H 0.8298 0.21078 0.45317 0.0
H851 H 0.82172 0.20385 0.42563 0.0
H852 H 0.823 0.16142 0.42828 0.0
H853 H 0.83122 0.16859 0.45577 0.0
H854 H 0.86179 0.23706 0.46996 0.0
H855 H 0.8826 0.25191 0.45325 0.0
H856 H 0.88582 0.21083 0.44335 0.0
H857 H 0.86481 0.19607 0.45974 0.0
H858 H 0.86306 0.23954 0.50759 0.0
H859 H 0.8886 0.26182 0.51565 0.0
H860 H 0.90826 0.2351 0.4985 0.0
H861 H 0.88265 0.21286 0.49069 0.0
H862 H 0.8372 0.2159 0.52752 0.0
H863 H 0.84799 0.22406 0.55434 0.0
H864 H 0.87732 0.20568 0.5457 0.0
H865 H 0.86627 0.19734 0.51909 0.0
H866 H 0.80476 0.18831 0.5089 0.0
H867 H 0.78671 0.17103 0.52693 0.0
H868 H 0.81567 0.15236 0.53598 0.0
H869 H 0.8334 0.16939 0.51768 0.0
O870 O 0.81419 0.18738 0.39974 0.0
O871 O 0.81497 0.1657 0.40174 0.0
O872 O 0.91772 0.27587 0.51868 0.0
O873 O 0.92841 0.26269 0.50991 0.0
C874 C 0.82591 0.18573 0.48441 0.0
C875 C 0.83592 0.19444 0.47313 0.0
C876 C 0.85075 0.20713 0.47774 0.0
C877 C 0.85549 0.2112 0.49361 0.0
C878 C 0.84553 0.20238 0.50486 0.0
C879 C 0.83071 0.1897 0.50028 0.0
C880 C 0.8107 0.17181 0.47959 0.0
C881 C 0.79873 0.17357 0.47412 0.0
C882 C 0.78445 0.16034 0.46953 0.0
C883 C 0.78196 0.14513 0.47022 0.0
C884 C 0.79406 0.14352 0.47577 0.0
C885 C 0.80826 0.15673 0.48048 0.0
C886 C 0.83099 0.19014 0.45645 0.0
C887 C 0.82833 0.20001 0.44776 0.0
C888 C 0.82371 0.19601 0.43205 0.0
C889 C 0.82168 0.18206 0.42476 0.0
C890 C 0.82442 0.17222 0.43354 0.0
C891 C 0.82906 0.17626 0.44924 0.0
C892 C 0.86181 0.21551 0.46602 0.0
C893 C 0.86683 0.23124 0.46392 0.0
C894 C 0.8788 0.23972 0.4545 0.0
C895 C 0.88599 0.23261 0.44705 0.0
C896 C 0.88045 0.21664 0.44873 0.0
C897 C 0.86846 0.20817 0.4581 0.0
C898 C 0.87103 0.22465 0.4985 0.0
C899 C 0.87291 0.23853 0.50563 0.0
C900 C 0.8875 0.25123 0.51019 0.0
C901 C 0.90049 0.25025 0.50768 0.0
C902 C 0.89853 0.23627 0.50058 0.0
C903 C 0.88392 0.22356 0.49607 0.0
C904 C 0.85101 0.20609 0.52141 0.0
C905 C 0.8458 0.21346 0.53153 0.0
C906 C 0.85205 0.2182 0.54677 0.0
C907 C 0.86355 0.21557 0.55211 0.0
C908 C 0.86837 0.20772 0.54201 0.0
C909 C 0.86215 0.20303 0.52679 0.0
C910 C 0.82037 0.1801 0.51203 0.0
C911 C 0.80721 0.18054 0.51487 0.0
C912 C 0.79697 0.17073 0.52521 0.0
C913 C 0.79973 0.16028 0.53283 0.0
C914 C 0.81311 0.16011 0.53013 0.0
C915 C 0.82332 0.16992 0.51981 0.0
C916 C 0.81675 0.17783 0.40807 0.0
C917 C 0.91602 0.26374 0.51244 0.0
H918 H 0.00587 0.51636 0.31917 0.0
H919 H 0.02332 0.41837 0.19168 0.0
H920 H 0.98016 0.50699 0.23898 0.0
H921 H 0.97867 0.53001 0.24718 0.0
H922 H 0.0199 0.55957 0.2245 0.0
H923 H 0.02135 0.53652 0.21646 0.0
H924 H 0.98693 0.48433 0.25698 0.0
H925 H 0.99097 0.49391 0.28428 0.0
H926 H 0.03325 0.53551 0.27466 0.0
H927 H 0.02913 0.5257 0.24741 0.0
H928 H 0.98672 0.45707 0.23967 0.0
H929 H 0.99287 0.44211 0.25668 0.0
H930 H 0.0401 0.48006 0.26098 0.0
H931 H 0.03366 0.49508 0.24431 0.0
H932 H 0.98106 0.45068 0.20303 0.0
H933 H 0.98281 0.42786 0.1948 0.0
H934 H 0.03171 0.45547 0.205 0.0
H935 H 0.0298 0.47825 0.213 0.0
H936 H 0.97481 0.47127 0.18374 0.0
H937 H 0.97146 0.45759 0.15824 0.0
H938 H 0.02024 0.47752 0.15853 0.0
H939 H 0.02345 0.49128 0.18381 0.0
H940 H 0.97361 0.50109 0.20163 0.0
H941 H 0.96913 0.51697 0.18414 0.0
H942 H 0.0142 0.53497 0.16782 0.0
H943 H 0.01863 0.51922 0.18548 0.0
O944 O 0.00453 0.51276 0.30833 0.0
O945 O 0.02615 0.53395 0.30277 0.0
O946 O 0.99715 0.41357 0.18966 0.0
O947 O 0.0223 0.42721 0.19485 0.0
C948 C 0.0019 0.50621 0.2224 0.0
C949 C 0.00522 0.4985 0.23368 0.0
C950 C 0.00627 0.48533 0.22914 0.0
C951 C 0.0042 0.47997 0.21336 0.0
C952 C 0.00111 0.48781 0.20208 0.0
C953 C 0.99978 0.50081 0.20659 0.0
C954 C 0.00086 0.52011 0.22714 0.0
C955 C 0.98886 0.51845 0.2358 0.0
C956 C 0.98803 0.53158 0.24047 0.0
C957 C 0.99915 0.54657 0.23644 0.0
C958 C 0.01105 0.54814 0.22758 0.0
C959 C 0.01193 0.53502 0.22304 0.0
C960 C 0.00774 0.50432 0.25025 0.0
C961 C 0.99709 0.49547 0.26082 0.0
C962 C 0.99941 0.50099 0.27639 0.0
C963 C 0.01243 0.51548 0.28165 0.0
C964 C 0.02309 0.52431 0.27099 0.0
C965 C 0.02077 0.51875 0.25543 0.0
C966 C 0.00975 0.47711 0.24079 0.0
C967 C 0.99834 0.46221 0.2445 0.0
C968 C 0.00192 0.45365 0.25409 0.0
C969 C 0.01703 0.4598 0.26005 0.0
C970 C 0.02834 0.47502 0.25671 0.0
C971 C 0.0247 0.48361 0.24717 0.0
C972 C 0.0053 0.46609 0.20861 0.0
C973 C 0.99213 0.45177 0.20344 0.0
C974 C 0.99317 0.43876 0.19877 0.0
C975 C 0.00741 0.43984 0.19925 0.0
C976 C 0.02057 0.45423 0.2045 0.0
C977 C 0.01952 0.46724 0.20911 0.0
C978 C 0.99936 0.48221 0.18557 0.0
C979 C 0.98478 0.473 0.17805 0.0
C980 C 0.98289 0.4651 0.1636 0.0
C981 C 0.99558 0.46636 0.15645 0.0
C982 C 0.01026 0.47641 0.16364 0.0
C983 C 0.01212 0.48426 0.17809 0.0
C984 C 0.99644 0.50902 0.1948 0.0
C985 C 0.98242 0.50832 0.19412 0.0
C986 C 0.97988 0.51735 0.18411 0.0
C987 C 0.99136 0.52729 0.17469 0.0
C988 C 0.00522 0.52758 0.17509 0.0
C989 C 0.00772 0.5185 0.18504 0.0
C990 C 0.01484 0.52134 0.2982 0.0
C991 C 0.00858 0.42605 0.19429 0.0
H992 H 0.50721 0.50349 0.32755 0.0
H993 H 0.40946 0.37502 0.20248 0.0
H994 H 0.51107 0.50794 0.24518 0.0
H995 H 0.53416 0.53261 0.25455 0.0
H996 H 0.56152 0.51261 0.24271 0.0
H997 H 0.53822 0.48777 0.23349 0.0
H998 H 0.48538 0.48553 0.26242 0.0
H999 H 0.49138 0.49438 0.28993 0.0
H1000 H 0.52498 0.48059 0.29119 0.0
H1001 H 0.51874 0.47162 0.2637 0.0
H1002 H 0.45871 0.46125 0.24163 0.0
H1003 H 0.43819 0.44815 0.25904 0.0
H1004 H 0.46129 0.42657 0.27882 0.0
H1005 H 0.48183 0.43975 0.26122 0.0
H1006 H 0.45726 0.4527 0.20641 0.0
H1007 H 0.43269 0.42947 0.1973 0.0
H1008 H 0.44567 0.40012 0.2198 0.0
H1009 H 0.47027 0.42343 0.22866 0.0
H1010 H 0.48624 0.47701 0.19017 0.0
H1011 H 0.47607 0.4667 0.16352 0.0
H1012 H 0.47681 0.42474 0.17122 0.0
H1013 H 0.4873 0.43528 0.19781 0.0
H1014 H 0.51213 0.50418 0.20895 0.0
H1015 H 0.53026 0.51995 0.19032 0.0
H1016 H 0.5414 0.48406 0.18206 0.0
H1017 H 0.52327 0.46838 0.20092 0.0
O1018 O 0.50497 0.49984 0.31669 0.0
O1019 O 0.52213 0.4926 0.31672 0.0
O1020 O 0.41299 0.4 0.1945 0.0
O1021 O 0.41908 0.3844 0.20594 0.0
C1022 C 0.50875 0.48101 0.23358 0.0
C1023 C 0.49797 0.47252 0.24439 0.0
C1024 C 0.48377 0.45913 0.23924 0.0
C1025 C 0.48057 0.45381 0.22342 0.0
C1026 C 0.49146 0.4621 0.21262 0.0
C1027 C 0.50549 0.47581 0.21769 0.0
C1028 C 0.52296 0.49603 0.23883 0.0
C1029 C 0.52203 0.50885 0.24469 0.0
C1030 C 0.53522 0.52291 0.25003 0.0
C1031 C 0.54961 0.52447 0.24945 0.0
C1032 C 0.55057 0.51173 0.24322 0.0
C1033 C 0.53731 0.49757 0.23801 0.0
C1034 C 0.50153 0.47781 0.26112 0.0
C1035 C 0.49393 0.4843 0.2687 0.0
C1036 C 0.49743 0.48941 0.28439 0.0
C1037 C 0.50864 0.48817 0.29277 0.0
C1038 C 0.51627 0.48169 0.28509 0.0
C1039 C 0.51273 0.47656 0.2694 0.0
C1040 C 0.47169 0.45139 0.25018 0.0
C1041 C 0.45935 0.45373 0.24976 0.0
C1042 C 0.44771 0.44633 0.25977 0.0
C1043 C 0.44818 0.43639 0.27031 0.0
C1044 C 0.46061 0.43411 0.27074 0.0
C1045 C 0.47234 0.44163 0.26078 0.0
C1046 C 0.46555 0.43972 0.21812 0.0
C1047 C 0.45479 0.44123 0.2093 0.0
C1048 C 0.44076 0.42795 0.20415 0.0
C1049 C 0.43723 0.41292 0.20781 0.0
C1050 C 0.44803 0.4115 0.21676 0.0
C1051 C 0.46207 0.42479 0.22187 0.0
C1052 C 0.48755 0.45691 0.1959 0.0
C1053 C 0.48464 0.4658 0.18597 0.0
C1054 C 0.47878 0.45988 0.17078 0.0
C1055 C 0.47557 0.44488 0.16537 0.0
C1056 C 0.47905 0.43626 0.17517 0.0
C1057 C 0.4851 0.44229 0.19029 0.0
C1058 C 0.51644 0.48518 0.20628 0.0
C1059 C 0.51851 0.49975 0.20313 0.0
C1060 C 0.52878 0.50867 0.19242 0.0
C1061 C 0.5372 0.5032 0.18469 0.0
C1062 C 0.53515 0.48861 0.18792 0.0
C1063 C 0.52477 0.47962 0.1986 0.0
C1064 C 0.51236 0.49365 0.30944 0.0
C1065 C 0.42236 0.39877 0.20232 0.0
H1066 H 0.50934 0.99258 0.33606 0.0
H1067 H 0.39862 0.9821 0.2093 0.0
H1068 H 0.52735 0.01451 0.25583 0.0
H1069 H 0.54772 0.01187 0.26763 0.0
H1070 H 0.52504 0.96374 0.24795 0.0
H1071 H 0.50518 0.96687 0.23557 0.0
H1072 H 0.49933 0.01076 0.276 0.0
H1073 H 0.50449 0.0075 0.3028 0.0
H1074 H 0.49353 0.9603 0.28916 0.0
H1075 H 0.48825 0.96367 0.26245 0.0
H1076 H 0.47036 0.01071 0.25958 0.0
H1077 H 0.45034 0.00536 0.27724 0.0
H1078 H 0.439 0.95719 0.27719 0.0
H1079 H 0.45871 0.96256 0.25913 0.0
H1080 H 0.47404 0.01823 0.22409 0.0
H1081 H 0.45156 0.01939 0.21629 0.0
H1082 H 0.42284 0.96955 0.22082 0.0
H1083 H 0.44544 0.96853 0.22843 0.0
H1084 H 0.5009 0.02135 0.20526 0.0
H1085 H 0.49393 0.026 0.17969 0.0
H1086 H 0.4562 0.97787 0.17401 0.0
H1087 H 0.4635 0.9733 0.19928 0.0
H1088 H 0.52846 0.01765 0.22357 0.0
H1089 H 0.54627 0.02055 0.20394 0.0
H1090 H 0.51111 0.97724 0.17939 0.0
H1091 H 0.49349 0.97419 0.19926 0.0
O1092 O 0.50715 0.99358 0.32542 0.0
O1093 O 0.50145 0.96941 0.3178 0.0
O1094 O 0.42298 0.00755 0.2101 0.0
O1095 O 0.4077 0.98198 0.21235 0.0
C1096 C 0.50131 0.99169 0.24001 0.0
C1097 C 0.49068 0.98967 0.25104 0.0
C1098 C 0.4775 0.98998 0.24668 0.0
C1099 C 0.47507 0.99264 0.23135 0.0
C1100 C 0.48566 0.99462 0.22027 0.0
C1101 C 0.49878 0.99407 0.22457 0.0
C1102 C 0.51485 0.9909 0.24484 0.0
C1103 C 0.52704 0.00355 0.25376 0.0
C1104 C 0.53855 0.00192 0.26066 0.0
C1105 C 0.53794 0.98749 0.259 0.0
C1106 C 0.52603 0.97506 0.2494 0.0
C1107 C 0.51463 0.9768 0.24231 0.0
C1108 C 0.4935 0.98748 0.26731 0.0
C1109 C 0.49801 0.99971 0.27886 0.0
C1110 C 0.50097 0.99782 0.29414 0.0
C1111 C 0.49947 0.98365 0.29812 0.0
C1112 C 0.49484 0.97137 0.28649 0.0
C1113 C 0.49185 0.97327 0.27122 0.0
C1114 C 0.46595 0.98702 0.25808 0.0
C1115 C 0.46355 0.99902 0.26343 0.0
C1116 C 0.45218 0.99596 0.27359 0.0
C1117 C 0.44304 0.98083 0.27862 0.0
C1118 C 0.44569 0.96891 0.27339 0.0
C1119 C 0.45702 0.97197 0.26319 0.0
C1120 C 0.46135 0.99331 0.22683 0.0
C1121 C 0.46288 0.00758 0.22336 0.0
C1122 C 0.45002 0.0082 0.21893 0.0
C1123 C 0.43539 0.99455 0.21794 0.0
C1124 C 0.43393 0.98028 0.22148 0.0
C1125 C 0.4468 0.97966 0.22586 0.0
C1126 C 0.48268 0.997 0.20411 0.0
C1127 C 0.49132 0.01177 0.19832 0.0
C1128 C 0.48723 0.01443 0.1838 0.0
C1129 C 0.47446 0.00232 0.17482 0.0
C1130 C 0.46621 0.9874 0.18049 0.0
C1131 C 0.4703 0.98477 0.19497 0.0
C1132 C 0.50968 0.9957 0.21286 0.0
C1133 C 0.52467 0.00869 0.21406 0.0
C1134 C 0.53481 0.01034 0.20285 0.0
C1135 C 0.53004 0.99913 0.19014 0.0
C1136 C 0.51503 0.98612 0.18899 0.0
C1137 C 0.50498 0.98436 0.20031 0.0
C1138 C 0.50273 0.98172 0.31434 0.0
C1139 C 0.42169 0.99515 0.21322 0.0
H1140 H 0.51657 0.0474 0.73282 0.0
H1141 H 0.58677 0.98501 0.84294 0.0
H1142 H 0.50472 0.03781 0.8151 0.0
H1143 H 0.48512 0.04181 0.80347 0.0
H1144 H 0.45336 0.99162 0.79954 0.0
H1145 H 0.473 0.98782 0.81149 0.0
H1146 H 0.53138 0.04076 0.79643 0.0
H1147 H 0.52884 0.04803 0.77054 0.0
H1148 H 0.49047 0.00099 0.75871 0.0
H1149 H 0.49326 0.99384 0.78458 0.0
H1150 H 0.55505 0.03618 0.81405 0.0
H1151 H 0.57528 0.04164 0.79659 0.0
H1152 H 0.54463 0.99818 0.76921 0.0
H1153 H 0.52449 0.99279 0.78683 0.0
H1154 H 0.55126 0.02515 0.84815 0.0
H1155 H 0.57246 0.02196 0.85633 0.0
H1156 H 0.55396 0.9802 0.82485 0.0
H1157 H 0.53272 0.98342 0.81694 0.0
H1158 H 0.52378 0.02144 0.86514 0.0
H1159 H 0.53117 0.01613 0.89003 0.0
H1160 H 0.51982 0.97027 0.87058 0.0
H1161 H 0.51257 0.97579 0.84567 0.0
H1162 H 0.50064 0.02809 0.84872 0.0
H1163 H 0.48267 0.02471 0.86822 0.0
H1164 H 0.46346 0.97449 0.86304 0.0
H1165 H 0.48183 0.97811 0.84388 0.0
O1166 O 0.51744 0.04425 0.74295 0.0
O1167 O 0.49774 0.01993 0.73748 0.0
O1168 O 0.58749 0.00803 0.85599 0.0
O1169 O 0.57854 0.98658 0.83988 0.0
C1170 C 0.50285 0.01008 0.81876 0.0
C1171 C 0.51391 0.01245 0.80813 0.0
C1172 C 0.52628 0.01074 0.81252 0.0
C1173 C 0.52738 0.00622 0.82738 0.0
C1174 C 0.51614 0.00348 0.83792 0.0
C1175 C 0.50394 0.00557 0.83366 0.0
C1176 C 0.49026 0.01253 0.8141 0.0
C1177 C 0.49342 0.02773 0.812 0.0
C1178 C 0.48225 0.02996 0.80523 0.0
C1179 C 0.46772 0.01702 0.80039 0.0
C1180 C 0.46438 0.00185 0.80324 0.0
C1181 C 0.47557 0.99964 0.81006 0.0
C1182 C 0.51253 0.01678 0.79234 0.0
C1183 C 0.5225 0.03203 0.78818 0.0
C1184 C 0.52099 0.03615 0.77341 0.0
C1185 C 0.50944 0.02509 0.76255 0.0
C1186 C 0.49948 0.0098 0.76678 0.0
C1187 C 0.50104 0.00568 0.78154 0.0
C1188 C 0.53835 0.01409 0.80169 0.0
C1189 C 0.55272 0.02788 0.80425 0.0
C1190 C 0.56421 0.03101 0.79423 0.0
C1191 C 0.56153 0.02034 0.78153 0.0
C1192 C 0.54706 0.00655 0.77897 0.0
C1193 C 0.53554 0.00348 0.78895 0.0
C1194 C 0.54046 0.0045 0.83199 0.0
C1195 C 0.55181 0.01531 0.84306 0.0
C1196 C 0.5639 0.01347 0.84769 0.0
C1197 C 0.56489 0.00081 0.84125 0.0
C1198 C 0.55354 0.99007 0.83005 0.0
C1199 C 0.54143 0.9919 0.82547 0.0
C1200 C 0.51768 0.99902 0.85361 0.0
C1201 C 0.52248 0.01008 0.86639 0.0
C1202 C 0.5267 0.00701 0.8806 0.0
C1203 C 0.52621 0.99282 0.88225 0.0
C1204 C 0.52054 0.9814 0.86963 0.0
C1205 C 0.51628 0.98447 0.85544 0.0
C1206 C 0.49252 0.00334 0.84491 0.0
C1207 C 0.49248 0.01636 0.85176 0.0
C1208 C 0.48214 0.01438 0.86284 0.0
C1209 C 0.47158 0.99931 0.86723 0.0
C1210 C 0.47156 0.98627 0.86014 0.0
C1211 C 0.48197 0.98829 0.84911 0.0
C1212 C 0.5078 0.02954 0.7469 0.0
C1213 C 0.57768 0.99875 0.84619 0.0
H1214 H 0.96749 0.46614 0.74331 0.0
H1215 H 0.01292 0.60236 0.8634 0.0
H1216 H 0.97629 0.46618 0.82753 0.0
H1217 H 0.97526 0.44176 0.81963 0.0
H1218 H 0.02453 0.46608 0.82536 0.0
H1219 H 0.02535 0.49039 0.83362 0.0
H1220 H 0.97027 0.48792 0.80794 0.0
H1221 H 0.96458 0.47736 0.78087 0.0
H1222 H 0.01198 0.49181 0.77722 0.0
H1223 H 0.01753 0.50246 0.80427 0.0
H1224 H 0.97021 0.51419 0.82614 0.0
H1225 H 0.96307 0.52858 0.80934 0.0
H1226 H 0.00705 0.54905 0.78983 0.0
H1227 H 0.01412 0.53465 0.80683 0.0
H1228 H 0.97972 0.52439 0.86048 0.0
H1229 H 0.97975 0.54822 0.86884 0.0
H1230 H 0.02214 0.57612 0.8472 0.0
H1231 H 0.02203 0.55219 0.83908 0.0
H1232 H 0.98561 0.50418 0.87882 0.0
H1233 H 0.98862 0.51829 0.90384 0.0
H1234 H 0.03434 0.55398 0.89393 0.0
H1235 H 0.03094 0.54 0.8687 0.0
H1236 H 0.98435 0.47344 0.86256 0.0
H1237 H 0.98928 0.45881 0.88116 0.0
H1238 H 0.03712 0.49509 0.88513 0.0
H1239 H 0.03206 0.50951 0.86622 0.0
O1240 O 0.97 0.47044 0.75398 0.0
O1241 O 0.99448 0.47806 0.75273 0.0
O1242 O 0.99086 0.57788 0.87123 0.0
O1243 O 0.0126 0.59275 0.86021 0.0
C1244 C 0.00136 0.49477 0.83562 0.0
C1245 C 0.99774 0.50234 0.82446 0.0
C1246 C 0.99738 0.51591 0.829 0.0
C1247 C 0.00106 0.52217 0.84454 0.0
C1248 C 0.00481 0.51468 0.85566 0.0
C1249 C 0.00481 0.50089 0.85125 0.0
C1250 C 0.00089 0.48001 0.83104 0.0
C1251 C 0.98684 0.46619 0.82708 0.0
C1252 C 0.9863 0.45229 0.82253 0.0
C1253 C 0.99983 0.45199 0.82177 0.0
C1254 C 0.0139 0.46587 0.82598 0.0
C1255 C 0.01441 0.47977 0.8306 0.0
C1256 C 0.99431 0.49601 0.80802 0.0
C1257 C 0.97942 0.48887 0.80124 0.0
C1258 C 0.9762 0.48281 0.78579 0.0
C1259 C 0.98783 0.48375 0.77687 0.0
C1260 C 0.00276 0.4909 0.78375 0.0
C1261 C 0.00596 0.49698 0.79919 0.0
C1262 C 0.99266 0.52342 0.81767 0.0
C1263 C 0.9782 0.52163 0.81808 0.0
C1264 C 0.97413 0.52979 0.80844 0.0
C1265 C 0.98452 0.53996 0.79829 0.0
C1266 C 0.99888 0.5414 0.79763 0.0
C1267 C 0.0029 0.53314 0.80723 0.0
C1268 C 0.0009 0.53661 0.84925 0.0
C1269 C 0.98901 0.53567 0.8576 0.0
C1270 C 0.98905 0.54929 0.86233 0.0
C1271 C 0.00097 0.56409 0.85871 0.0
C1272 C 0.0128 0.56493 0.8502 0.0
C1273 C 0.01276 0.55129 0.84552 0.0
C1274 C 0.00804 0.52113 0.872 0.0
C1275 C 0.99642 0.51481 0.88228 0.0
C1276 C 0.99818 0.52291 0.89657 0.0
C1277 C 0.01165 0.5374 0.90081 0.0
C1278 C 0.0237 0.54303 0.89089 0.0
C1279 C 0.02188 0.53499 0.87656 0.0
C1280 C 0.00785 0.4925 0.86306 0.0
C1281 C 0.99587 0.47823 0.86749 0.0
C1282 C 0.99871 0.46995 0.87818 0.0
C1283 C 0.0136 0.47581 0.88465 0.0
C1284 C 0.02556 0.4902 0.88024 0.0
C1285 C 0.02269 0.4985 0.86956 0.0
C1286 C 0.98437 0.47727 0.76047 0.0
C1287 C 0.00111 0.57861 0.86378 0.0
H1288 H 0.48147 0.5122 0.72921 0.0
H1289 H 0.60619 0.60629 0.85467 0.0
H1290 H 0.46952 0.51856 0.80895 0.0
H1291 H 0.44537 0.49455 0.79993 0.0
H1292 H 0.45952 0.46699 0.82399 0.0
H1293 H 0.4837 0.49087 0.83258 0.0
H1294 H 0.49941 0.54348 0.79173 0.0
H1295 H 0.49198 0.53433 0.76439 0.0
H1296 H 0.49079 0.49148 0.77299 0.0
H1297 H 0.4984 0.50086 0.80027 0.0
H1298 H 0.53141 0.5709 0.80951 0.0
H1299 H 0.55243 0.5837 0.79253 0.0
H1300 H 0.55229 0.54045 0.78506 0.0
H1301 H 0.53167 0.52798 0.80247 0.0
H1302 H 0.53087 0.57575 0.84659 0.0
H1303 H 0.55645 0.59803 0.85449 0.0
H1304 H 0.57566 0.56975 0.84125 0.0
H1305 H 0.55 0.54753 0.83359 0.0
H1306 H 0.50416 0.55397 0.86684 0.0
H1307 H 0.51396 0.56311 0.89387 0.0
H1308 H 0.54293 0.54372 0.88922 0.0
H1309 H 0.53287 0.53442 0.86243 0.0
H1310 H 0.4717 0.52541 0.84788 0.0
H1311 H 0.45339 0.51042 0.8668 0.0
H1312 H 0.48171 0.4923 0.88091 0.0
H1313 H 0.5 0.50755 0.86226 0.0
O1314 O 0.48445 0.51561 0.74006 0.0
O1315 O 0.48394 0.49376 0.7451 0.0
O1316 O 0.58549 0.61166 0.85842 0.0
O1317 O 0.59595 0.59767 0.85168 0.0
C1318 C 0.49346 0.52075 0.82599 0.0
C1319 C 0.50384 0.52843 0.81457 0.0
C1320 C 0.51865 0.5413 0.81897 0.0
C1321 C 0.52303 0.54658 0.83475 0.0
C1322 C 0.51271 0.53884 0.84614 0.0
C1323 C 0.4979 0.52602 0.84178 0.0
C1324 C 0.47833 0.50647 0.82147 0.0
C1325 C 0.46733 0.50734 0.81234 0.0
C1326 C 0.45359 0.49366 0.80721 0.0
C1327 C 0.45057 0.47895 0.81134 0.0
C1328 C 0.46144 0.47819 0.82084 0.0
C1329 C 0.47525 0.49181 0.82575 0.0
C1330 C 0.49936 0.5228 0.79798 0.0
C1331 C 0.49757 0.53214 0.78767 0.0
C1332 C 0.4933 0.52687 0.77207 0.0
C1333 C 0.49076 0.51215 0.7665 0.0
C1334 C 0.49263 0.50285 0.77689 0.0
C1335 C 0.49693 0.50816 0.79248 0.0
C1336 C 0.53004 0.54853 0.80722 0.0
C1337 C 0.53584 0.56418 0.80406 0.0
C1338 C 0.54779 0.57143 0.79431 0.0
C1339 C 0.5541 0.56311 0.78752 0.0
C1340 C 0.54785 0.54725 0.7903 0.0
C1341 C 0.53596 0.54005 0.80009 0.0
C1342 C 0.53861 0.56007 0.83945 0.0
C1343 C 0.54063 0.5744 0.84544 0.0
C1344 C 0.55524 0.5871 0.84991 0.0
C1345 C 0.56811 0.58568 0.84847 0.0
C1346 C 0.56601 0.57126 0.84249 0.0
C1347 C 0.55138 0.55856 0.83806 0.0
C1348 C 0.51787 0.54361 0.86272 0.0
C1349 C 0.5125 0.55159 0.87176 0.0
C1350 C 0.51817 0.55686 0.88713 0.0
C1351 C 0.52923 0.55415 0.89366 0.0
C1352 C 0.53428 0.54582 0.8846 0.0
C1353 C 0.52865 0.5406 0.86928 0.0
C1354 C 0.4872 0.51763 0.85379 0.0
C1355 C 0.47397 0.5183 0.85519 0.0
C1356 C 0.4635 0.50967 0.86594 0.0
C1357 C 0.46608 0.50017 0.87541 0.0
C1358 C 0.47948 0.49971 0.87404 0.0
C1359 C 0.48994 0.50837 0.86335 0.0
C1360 C 0.48618 0.50657 0.74993 0.0
C1361 C 0.58367 0.59915 0.85317 0.0
H1362 H 0.63092 0.83148 0.65537 0.0
H1363 H 0.66268 0.73451 0.54023 0.0
H1364 H 0.61573 0.82495 0.57064 0.0
H1365 H 0.61564 0.849 0.57763 0.0
H1366 H 0.66257 0.87662 0.5656 0.0
H1367 H 0.66218 0.85254 0.55799 0.0
H1368 H 0.61946 0.80053 0.59306 0.0
H1369 H 0.62011 0.8097 0.61996 0.0
H1370 H 0.66459 0.85068 0.61518 0.0
H1371 H 0.66384 0.84128 0.58834 0.0
H1372 H 0.62367 0.77298 0.57977 0.0
H1373 H 0.63091 0.75907 0.59715 0.0
H1374 H 0.67679 0.79961 0.60302 0.0
H1375 H 0.66927 0.81348 0.58602 0.0
H1376 H 0.61967 0.76674 0.54286 0.0
H1377 H 0.62198 0.74381 0.53708 0.0
H1378 H 0.67023 0.77192 0.55076 0.0
H1379 H 0.66778 0.79478 0.55632 0.0
H1380 H 0.61715 0.78644 0.51962 0.0
H1381 H 0.61865 0.7747 0.49467 0.0
H1382 H 0.66777 0.79911 0.50249 0.0
H1383 H 0.66603 0.81025 0.52755 0.0
H1384 H 0.61503 0.82045 0.53621 0.0
H1385 H 0.61394 0.83662 0.51651 0.0
H1386 H 0.65958 0.85009 0.50494 0.0
H1387 H 0.66081 0.83441 0.52498 0.0
O1388 O 0.63092 0.82804 0.64472 0.0
O1389 O 0.65375 0.84892 0.64165 0.0
O1390 O 0.63664 0.72952 0.53529 0.0
O1391 O 0.66146 0.74341 0.54235 0.0
C1392 C 0.63932 0.82259 0.56023 0.0
C1393 C 0.64102 0.81469 0.57243 0.0
C1394 C 0.64249 0.80157 0.56909 0.0
C1395 C 0.64203 0.79621 0.55358 0.0
C1396 C 0.64052 0.8042 0.5414 0.0
C1397 C 0.63909 0.81737 0.54468 0.0
C1398 C 0.63895 0.83706 0.56381 0.0
C1399 C 0.62589 0.83624 0.56937 0.0
C1400 C 0.62592 0.85 0.57344 0.0
C1401 C 0.63911 0.86482 0.57222 0.0
C1402 C 0.65209 0.86549 0.56641 0.0
C1403 C 0.65197 0.85174 0.56216 0.0
C1404 C 0.64155 0.82029 0.58875 0.0
C1405 C 0.62933 0.81147 0.59787 0.0
C1406 C 0.62973 0.81675 0.61322 0.0
C1407 C 0.64239 0.83095 0.61971 0.0
C1408 C 0.65465 0.83972 0.61053 0.0
C1409 C 0.65424 0.8344 0.59519 0.0
C1410 C 0.64595 0.79421 0.58168 0.0
C1411 C 0.63517 0.77895 0.58515 0.0
C1412 C 0.63938 0.77099 0.59494 0.0
C1413 C 0.6545 0.77815 0.60133 0.0
C1414 C 0.66503 0.79378 0.59845 0.0
C1415 C 0.66077 0.80174 0.58873 0.0
C1416 C 0.64354 0.78237 0.55005 0.0
C1417 C 0.63073 0.76791 0.54456 0.0
C1418 C 0.63208 0.75484 0.54129 0.0
C1419 C 0.64629 0.75602 0.54349 0.0
C1420 C 0.65912 0.77058 0.54896 0.0
C1421 C 0.65775 0.78365 0.55218 0.0
C1422 C 0.64148 0.79917 0.52532 0.0
C1423 C 0.62822 0.78943 0.51576 0.0
C1424 C 0.62912 0.78276 0.50152 0.0
C1425 C 0.64333 0.78582 0.49666 0.0
C1426 C 0.65663 0.79623 0.50602 0.0
C1427 C 0.6557 0.80276 0.52025 0.0
C1428 C 0.63795 0.82613 0.53193 0.0
C1429 C 0.62475 0.82684 0.52937 0.0
C1430 C 0.62416 0.83607 0.51816 0.0
C1431 C 0.63665 0.84451 0.50918 0.0
C1432 C 0.64971 0.84351 0.51156 0.0
C1433 C 0.65041 0.83452 0.52294 0.0
C1434 C 0.64275 0.83656 0.63601 0.0
C1435 C 0.64778 0.74216 0.54011 0.0
H1436 H 0.17736 0.82968 0.66998 0.0
H1437 H 0.07585 0.71087 0.53908 0.0
H1438 H 0.18107 0.84049 0.58829 0.0
H1439 H 0.20516 0.86446 0.59683 0.0
H1440 H 0.22991 0.8427 0.58078 0.0
H1441 H 0.20559 0.81852 0.5726 0.0
H1442 H 0.15484 0.81734 0.60502 0.0
H1443 H 0.16132 0.82406 0.63282 0.0
H1444 H 0.19304 0.80787 0.63022 0.0
H1445 H 0.18632 0.80105 0.60244 0.0
H1446 H 0.12761 0.79536 0.58405 0.0
H1447 H 0.10683 0.78124 0.60092 0.0
H1448 H 0.12773 0.75573 0.616 0.0
H1449 H 0.14855 0.76995 0.59892 0.0
H1450 H 0.12442 0.78837 0.54912 0.0
H1451 H 0.09948 0.76602 0.53947 0.0
H1452 H 0.11262 0.73424 0.55576 0.0
H1453 H 0.13758 0.75671 0.56519 0.0
H1454 H 0.15146 0.81259 0.53359 0.0
H1455 H 0.14021 0.80421 0.50706 0.0
H1456 H 0.14497 0.76368 0.50791 0.0
H1457 H 0.15581 0.77198 0.53463 0.0
H1458 H 0.18135 0.8395 0.5531 0.0
H1459 H 0.19951 0.85656 0.53516 0.0
H1460 H 0.20726 0.81941 0.52008 0.0
H1461 H 0.18903 0.8024 0.53817 0.0
O1462 O 0.17492 0.82688 0.65898 0.0
O1463 O 0.19112 0.81846 0.65702 0.0
O1464 O 0.07946 0.73676 0.53455 0.0
O1465 O 0.08562 0.71993 0.54279 0.0
C1466 C 0.17687 0.81352 0.57427 0.0
C1467 C 0.16611 0.80454 0.58489 0.0
C1468 C 0.15159 0.79183 0.57942 0.0
C1469 C 0.14803 0.78769 0.5634 0.0
C1470 C 0.15879 0.79662 0.55277 0.0
C1471 C 0.17315 0.80965 0.55818 0.0
C1472 C 0.1916 0.82776 0.57993 0.0
C1473 C 0.19169 0.84085 0.58677 0.0
C1474 C 0.20546 0.85458 0.59146 0.0
C1475 C 0.21944 0.85552 0.58935 0.0
C1476 C 0.21932 0.8423 0.58263 0.0
C1477 C 0.20548 0.82853 0.57793 0.0
C1478 C 0.17002 0.80859 0.60177 0.0
C1479 C 0.16309 0.81514 0.61051 0.0
C1480 C 0.16686 0.81903 0.62637 0.0
C1481 C 0.17769 0.81648 0.63376 0.0
C1482 C 0.18465 0.80997 0.62491 0.0
C1483 C 0.18084 0.80606 0.60905 0.0
C1484 C 0.13953 0.78364 0.5903 0.0
C1485 C 0.12774 0.78679 0.59108 0.0
C1486 C 0.11594 0.77879 0.60077 0.0
C1487 C 0.11569 0.76742 0.6098 0.0
C1488 C 0.12761 0.76437 0.60909 0.0
C1489 C 0.1395 0.7725 0.59944 0.0
C1490 C 0.13281 0.77413 0.55775 0.0
C1491 C 0.1219 0.77657 0.55052 0.0
C1492 C 0.10766 0.76379 0.54506 0.0
C1493 C 0.10406 0.74833 0.54682 0.0
C1494 C 0.11502 0.74597 0.55419 0.0
C1495 C 0.12927 0.75877 0.55961 0.0
C1496 C 0.15441 0.79287 0.53598 0.0
C1497 C 0.15034 0.80208 0.5279 0.0
C1498 C 0.14393 0.79726 0.51274 0.0
C1499 C 0.14154 0.78318 0.50539 0.0
C1500 C 0.14637 0.77442 0.51333 0.0
C1501 C 0.1527 0.7792 0.52852 0.0
C1502 C 0.18397 0.81977 0.54701 0.0
C1503 C 0.18704 0.83509 0.54598 0.0
C1504 C 0.19746 0.84482 0.53579 0.0
C1505 C 0.20492 0.83937 0.5263 0.0
C1506 C 0.20164 0.82391 0.52719 0.0
C1507 C 0.19127 0.8142 0.53751 0.0
C1508 C 0.18169 0.82064 0.65061 0.0
C1509 C 0.08896 0.73471 0.541 0.0
H1510 H 0.19537 0.35301 0.67588 0.0
H1511 H 0.08225 0.34644 0.55522 0.0
H1512 H 0.20981 0.36979 0.59676 0.0
H1513 H 0.22823 0.36343 0.60714 0.0
H1514 H 0.2032 0.31788 0.58158 0.0
H1515 H 0.18469 0.32425 0.57149 0.0
H1516 H 0.18359 0.37075 0.61633 0.0
H1517 H 0.18963 0.36772 0.6429 0.0
H1518 H 0.17743 0.32009 0.62934 0.0
H1519 H 0.17124 0.32322 0.60286 0.0
H1520 H 0.1548 0.37158 0.60222 0.0
H1521 H 0.13488 0.36623 0.62009 0.0
H1522 H 0.12171 0.3174 0.61759 0.0
H1523 H 0.14177 0.32295 0.60005 0.0
H1524 H 0.1577 0.37868 0.56536 0.0
H1525 H 0.13577 0.38127 0.55889 0.0
H1526 H 0.10534 0.3321 0.56535 0.0
H1527 H 0.12738 0.32965 0.57162 0.0
H1528 H 0.18023 0.37759 0.54265 0.0
H1529 H 0.17038 0.37921 0.5171 0.0
H1530 H 0.13325 0.33111 0.51759 0.0
H1531 H 0.14308 0.32966 0.54299 0.0
H1532 H 0.20883 0.37464 0.55994 0.0
H1533 H 0.22459 0.37532 0.53895 0.0
H1534 H 0.18763 0.33002 0.51964 0.0
H1535 H 0.17216 0.32929 0.54086 0.0
O1536 O 0.19283 0.35392 0.66532 0.0
O1537 O 0.18649 0.32953 0.65775 0.0
O1538 O 0.10726 0.37094 0.55447 0.0
O1539 O 0.09112 0.34575 0.55774 0.0
C1540 C 0.18316 0.34997 0.57971 0.0
C1541 C 0.17366 0.34929 0.59153 0.0
C1542 C 0.16074 0.35037 0.58799 0.0
C1543 C 0.15751 0.35252 0.57274 0.0
C1544 C 0.16685 0.35299 0.56088 0.0
C1545 C 0.1797 0.35173 0.56435 0.0
C1546 C 0.19592 0.34747 0.5834 0.0
C1547 C 0.20853 0.3586 0.59313 0.0
C1548 C 0.21904 0.35494 0.59902 0.0
C1549 C 0.21707 0.34009 0.59529 0.0
C1550 C 0.20489 0.32933 0.58482 0.0
C1551 C 0.19442 0.33301 0.57891 0.0
C1552 C 0.17709 0.34725 0.60767 0.0
C1553 C 0.18219 0.35966 0.61915 0.0
C1554 C 0.18566 0.3579 0.6343 0.0
C1555 C 0.18406 0.34368 0.63824 0.0
C1556 C 0.17882 0.33122 0.62669 0.0
C1557 C 0.17532 0.33298 0.61156 0.0
C1558 C 0.14973 0.34766 0.5999 0.0
C1559 C 0.14772 0.3598 0.60573 0.0
C1560 C 0.13628 0.35668 0.61583 0.0
C1561 C 0.12666 0.34137 0.62024 0.0
C1562 C 0.12904 0.32936 0.61465 0.0
C1563 C 0.14047 0.33249 0.60459 0.0
C1564 C 0.14411 0.35401 0.56904 0.0
C1565 C 0.14628 0.3685 0.56537 0.0
C1566 C 0.13374 0.36993 0.56169 0.0
C1567 C 0.11879 0.35688 0.56163 0.0
C1568 C 0.11668 0.34238 0.56532 0.0
C1569 C 0.12924 0.34096 0.56895 0.0
C1570 C 0.16229 0.35355 0.54467 0.0
C1571 C 0.17011 0.36737 0.53708 0.0
C1572 C 0.16448 0.36827 0.52253 0.0
C1573 C 0.15091 0.35536 0.51546 0.0
C1574 C 0.14354 0.34135 0.52287 0.0
C1575 C 0.14919 0.34046 0.53732 0.0
C1576 C 0.18935 0.35196 0.55185 0.0
C1577 C 0.2042 0.36484 0.5512 0.0
C1578 C 0.21313 0.36525 0.53917 0.0
C1579 C 0.20735 0.35274 0.5276 0.0
C1580 C 0.19249 0.33976 0.52845 0.0
C1581 C 0.18359 0.33937 0.54047 0.0
C1582 C 0.18784 0.34189 0.65433 0.0
C1583 C 0.10542 0.35835 0.55772 0.0
H1584 H 0.01454 0.38315 0.0526 0.0
H1585 H 0.01449 0.40046 0.07361 0.0
H1586 H 0.9671 0.38342 0.06151 0.0
H1587 H 0.967 0.36617 0.04039 0.0
H1588 H 0.98578 0.41646 0.06557 0.0
H1589 H 0.99411 0.38788 0.11486 0.0
H1590 H 0.00784 0.39296 0.10051 0.0
H1591 H 0.98815 0.37835 0.09552 0.0
C1592 C 0.00406 0.38298 0.05444 0.0
C1593 C 0.99076 0.37322 0.04478 0.0
C1594 C 0.00405 0.39285 0.06651 0.0
C1595 C 0.99075 0.39309 0.06919 0.0
C1596 C 0.97747 0.38336 0.05964 0.0
H1597 H 0.97437 0.43521 0.15044 0.0
H1598 H 0.97243 0.41769 0.12851 0.0
C1599 C 0.97744 0.37348 0.04759 0.0
C1600 C 0.99078 0.40381 0.08167 0.0
H1601 H 0.99575 0.4122 0.12079 0.0
C1602 C 0.98792 0.41552 0.07766 0.0
C1603 C 0.99342 0.40243 0.09741 0.0
C1604 C 0.99592 0.38965 0.10241 0.0
C1605 C 0.98784 0.42607 0.08899 0.0
C1606 C 0.99087 0.42493 0.10469 0.0
C1607 C 0.99352 0.41308 0.10871 0.0
C1608 C 0.99131 0.43587 0.11719 0.0
C1609 C 0.98433 0.43819 0.0841 0.0
C1610 C 0.00248 0.45192 0.11799 0.0
C1611 C 0.00355 0.46199 0.13046 0.0
C1612 C 0.99349 0.45616 0.14237 0.0
C1613 C 0.98211 0.44012 0.14133 0.0
C1614 C 0.98107 0.43007 0.12889 0.0
H1615 H 0.97867 0.4351 0.07226 0.0
H1616 H 0.97686 0.43953 0.09225 0.0
H1617 H 0.99514 0.4497 0.08414 0.0
H1618 H 0.01063 0.45658 0.10919 0.0
H1619 H 0.01241 0.47429 0.13093 0.0
H1620 H 0.61002 0.61759 0.11251 0.0
H1621 H 0.59985 0.59597 0.1291 0.0
H1622 H 0.61588 0.57202 0.09968 0.0
H1623 H 0.62608 0.59368 0.0828 0.0
H1624 H 0.58512 0.55358 0.10541 0.0
H1625 H 0.62013 0.58192 0.1602 0.0
H1626 H 0.61269 0.59316 0.15259 0.0
H1627 H 0.62594 0.59028 0.14189 0.0
C1628 C 0.61159 0.60785 0.10962 0.0
C1629 C 0.61882 0.60735 0.09626 0.0
C1630 C 0.60588 0.59555 0.11923 0.0
C1631 C 0.6073 0.5825 0.11574 0.0
C1632 C 0.6148 0.58207 0.10263 0.0
H1633 H 0.56643 0.50982 0.18179 0.0
H1634 H 0.58477 0.52705 0.16388 0.0
C1635 C 0.62063 0.59446 0.09302 0.0
C1636 C 0.59956 0.56878 0.12503 0.0
H1637 H 0.59514 0.5589 0.16233 0.0
C1638 C 0.58751 0.55461 0.11781 0.0
C1639 C 0.60283 0.57005 0.14116 0.0
C1640 C 0.61621 0.58463 0.14939 0.0
C1641 C 0.57795 0.54208 0.12647 0.0
C1642 C 0.58041 0.5439 0.14275 0.0
C1643 C 0.59314 0.55761 0.14985 0.0
C1644 C 0.56912 0.53246 0.15271 0.0
C1645 C 0.56503 0.5272 0.11816 0.0
C1646 C 0.5543 0.52985 0.15235 0.0
C1647 C 0.54386 0.52009 0.16252 0.0
C1648 C 0.54806 0.51278 0.17331 0.0
C1649 C 0.56284 0.51518 0.17349 0.0
C1650 C 0.57333 0.52505 0.16333 0.0
H1651 H 0.56757 0.52566 0.10606 0.0
H1652 H 0.56268 0.51673 0.1242 0.0
H1653 H 0.55454 0.52783 0.11776 0.0
H1654 H 0.55091 0.5357 0.14445 0.0
H1655 H 0.53253 0.51836 0.16203 0.0
H1656 H 0.40204 0.01862 0.05744 0.0
H1657 H 0.42127 0.02665 0.0791 0.0
H1658 H 0.41542 0.9806 0.07531 0.0
H1659 H 0.39632 0.97249 0.05394 0.0
H1660 H 0.4155 0.01007 0.10774 0.0
H1661 H 0.46265 0.012 0.07636 0.0
H1662 H 0.44768 0.01372 0.06697 0.0
H1663 H 0.44427 0.99477 0.07113 0.0
C1664 C 0.40498 0.01028 0.06114 0.0
C1665 C 0.39761 0.99491 0.05398 0.0
C1666 C 0.41594 0.01488 0.0735 0.0
C1667 C 0.41988 0.00427 0.07864 0.0
C1668 C 0.41271 0.98904 0.07136 0.0
H1669 H 0.46364 0.98318 0.14795 0.0
H1670 H 0.45214 0.98666 0.12467 0.0
C1671 C 0.4017 0.98439 0.0592 0.0
C1672 C 0.4307 0.00846 0.09224 0.0
H1673 H 0.46323 0.00928 0.10361 0.0
C1674 C 0.42613 0.01027 0.10688 0.0
C1675 C 0.44449 0.00865 0.09102 0.0
C1676 C 0.45017 0.00732 0.07551 0.0
C1677 C 0.43448 0.01119 0.12043 0.0
C1678 C 0.44792 0.01061 0.11921 0.0
C1679 C 0.45291 0.00967 0.10452 0.0
C1680 C 0.45609 0.00939 0.13294 0.0
C1681 C 0.42829 0.01172 0.13587 0.0
C1682 C 0.46251 0.02121 0.14516 0.0
C1683 C 0.46895 0.01917 0.15859 0.0
C1684 C 0.46918 0.00531 0.15998 0.0
C1685 C 0.46339 0.99386 0.14738 0.0
C1686 C 0.45692 0.99588 0.13402 0.0
H1687 H 0.4163 0.0089 0.13464 0.0
H1688 H 0.42877 0.00334 0.1434 0.0
H1689 H 0.43536 0.0237 0.14175 0.0
H1690 H 0.46226 0.03187 0.14445 0.0
H1691 H 0.47323 0.02819 0.1681 0.0
H1692 H 0.39127 0.00735 0.97552 0.0
H1693 H 0.40553 0.0098 0.95268 0.0
H1694 H 0.399 0.96403 0.9577 0.0
H1695 H 0.38441 0.96128 0.98025 0.0
H1696 H 0.43176 0.01025 0.9506 0.0
H1697 H 0.38674 0.96013 0.91254 0.0
H1698 H 0.38259 0.96746 0.93002 0.0
H1699 H 0.38965 0.95432 0.93088 0.0
C1700 C 0.39274 0.99773 0.97169 0.0
C1701 C 0.38663 0.98408 0.9797 0.0
C1702 C 0.4009 0.99916 0.95862 0.0
C1703 C 0.40312 0.987 0.9533 0.0
C1704 C 0.39707 0.97339 0.96131 0.0
H1705 H 0.46259 0.97908 0.89018 0.0
H1706 H 0.44546 0.97618 0.91047 0.0
C1707 C 0.38881 0.97189 0.97429 0.0
C1708 C 0.41244 0.98887 0.9399 0.0
H1709 H 0.41236 0.97136 0.90491 0.0
C1710 C 0.42745 0.00183 0.94055 0.0
C1711 C 0.4068 0.9779 0.92675 0.0
C1712 C 0.39051 0.96426 0.92491 0.0
C1713 C 0.43709 0.00387 0.92859 0.0
C1714 C 0.43157 0.99269 0.9157 0.0
C1715 C 0.41654 0.97985 0.91491 0.0
C1716 C 0.44139 0.99407 0.90302 0.0
C1717 C 0.45323 0.01778 0.9299 0.0
C1718 C 0.44457 0.00496 0.89204 0.0
C1719 C 0.4542 0.00653 0.8803 0.0
C1720 C 0.46089 0.99727 0.87938 0.0
C1721 C 0.45749 0.98624 0.89037 0.0
C1722 C 0.44778 0.98462 0.90204 0.0
H1723 H 0.45624 0.02458 0.94134 0.0
H1724 H 0.4614 0.01379 0.92802 0.0
H1725 H 0.45461 0.0257 0.92078 0.0
H1726 H 0.43963 0.01227 0.89259 0.0
H1727 H 0.45635 0.01495 0.87191 0.0
H1728 H 0.98735 0.36456 0.95853 0.0
H1729 H 0.99558 0.3854 0.9412 0.0
H1730 H 0.03767 0.41372 0.96932 0.0
H1731 H 0.02939 0.39285 0.987 0.0
H1732 H 0.02271 0.42936 0.96375 0.0
H1733 H 0.02668 0.40161 0.90872 0.0
H1734 H 0.00884 0.38929 0.91694 0.0
H1735 H 0.02638 0.39383 0.92709 0.0
C1736 C 0.99848 0.37509 0.96095 0.0
C1737 C 0.00768 0.37704 0.97423 0.0
C1738 C 0.00323 0.38697 0.95092 0.0
C1739 C 0.01732 0.40104 0.95383 0.0
C1740 C 0.02679 0.40289 0.96679 0.0
H1741 H 0.03716 0.47034 0.88584 0.0
H1742 H 0.04119 0.45432 0.90354 0.0
C1743 C 0.02206 0.39093 0.97686 0.0
C1744 C 0.02121 0.41426 0.94419 0.0
H1745 H 0.02189 0.42283 0.9066 0.0
C1746 C 0.02287 0.42808 0.95128 0.0
C1747 C 0.02164 0.41271 0.92794 0.0
C1748 C 0.02096 0.39861 0.91976 0.0
C1749 C 0.02387 0.43991 0.94246 0.0
C1750 C 0.02293 0.43771 0.92614 0.0
C1751 C 0.02237 0.42441 0.91911 0.0
C1752 C 0.02125 0.44837 0.91616 0.0
C1753 C 0.02557 0.45448 0.95071 0.0
C1754 C 0.00869 0.45029 0.91736 0.0
C1755 C 0.00639 0.45944 0.90733 0.0
C1756 C 0.01656 0.46679 0.89581 0.0
C1757 C 0.02923 0.46499 0.89472 0.0
C1758 C 0.03151 0.45578 0.90476 0.0
H1759 H 0.03112 0.45677 0.96252 0.0
H1760 H 0.03238 0.46494 0.94419 0.0
H1761 H 0.01409 0.45281 0.95187 0.0
H1762 H 1.00044 0.4444 0.92585 0.0
H1763 H 0.99659 0.46069 0.90856 0.0
H1764 H 0.61951 0.60908 0.01608 0.0
H1765 H 0.60412 0.59638 0.99182 0.0
H1766 H 0.57185 0.60937 0.00562 0.0
H1767 H 0.587 0.62197 0.02995 0.0
H1768 H 0.55833 0.57776 0.99306 0.0
H1769 H 0.60123 0.62032 0.95578 0.0
H1770 H 0.60823 0.61151 0.96852 0.0
H1771 H 0.60216 0.62424 0.97646 0.0
C1772 C 0.60912 0.60922 0.01401 0.0
C1773 C 0.60456 0.61665 0.02497 0.0
C1774 C 0.60039 0.60202 9e-05 0.0
C1775 C 0.58698 0.60214 0.99687 0.0
C1776 C 0.58221 0.60922 0.00788 0.0
H1777 H 0.53855 0.58328 0.90737 0.0
H1778 H 0.55147 0.59448 0.93302 0.0
C1779 C 0.59093 0.61645 0.02177 0.0
C1780 C 0.57792 0.59497 0.98198 0.0
H1781 H 0.5794 0.59808 0.94305 0.0
C1782 C 0.5629 0.58218 0.98211 0.0
C1783 C 0.58389 0.60094 0.96778 0.0
C1784 C 0.59971 0.61509 0.96704 0.0
C1785 C 0.55374 0.57504 0.96833 0.0
C1786 C 0.55985 0.58076 0.9541 0.0
C1787 C 0.57479 0.59368 0.954 0.0
C1788 C 0.55099 0.57352 0.93912 0.0
C1789 C 0.53755 0.56159 0.96913 0.0
C1790 C 0.54638 0.55801 0.93412 0.0
C1791 C 0.53893 0.55156 0.91952 0.0
C1792 C 0.53602 0.56054 0.90963 0.0
C1793 C 0.54043 0.57599 0.91479 0.0
C1794 C 0.5479 0.58244 0.92939 0.0
H1795 H 0.53344 0.56122 0.98089 0.0
H1796 H 0.5297 0.56245 0.96072 0.0
H1797 H 0.53702 0.55036 0.96619 0.0
H1798 H 0.54887 0.55101 0.94136 0.0
H1799 H 0.53557 0.53958 0.9159 0.0
H1800 H 0.03589 0.63792 0.01361 0.0
H1801 H 0.03533 0.62036 0.99258 0.0
H1802 H 0.9861 0.59507 0.9893 0.0
H1803 H 0.98652 0.61281 0.01013 0.0
H1804 H 0.02286 0.58864 0.9911 0.0
H1805 H 0.99597 0.60445 0.94484 0.0
H1806 H 0.00346 0.61591 0.96318 0.0
H1807 H 0.9851 0.59802 0.96157 0.0
C1808 C 0.02492 0.62869 0.00839 0.0
C1809 C 0.01124 0.62684 0.01354 0.0
C1810 C 0.02463 0.61864 0.99638 0.0
C1811 C 0.01069 0.60653 0.98926 0.0
C1812 C 0.997 0.60455 0.99442 0.0
H1813 H 0.00096 0.52806 0.92934 0.0
H1814 H 1.00048 0.54431 0.95123 0.0
C1815 C 0.99727 0.61467 0.00637 0.0
C1816 C 0.01057 0.59586 0.97664 0.0
H1817 H 0.99937 0.58312 0.93862 0.0
C1818 C 0.01774 0.58742 0.97962 0.0
C1819 C 0.004 0.59443 0.96164 0.0
C1820 C 0.99682 0.60379 0.95753 0.0
C1821 C 0.01855 0.5776 0.96798 0.0
C1822 C 0.01172 0.57594 0.95306 0.0
C1823 C 0.00451 0.58434 0.95011 0.0
C1824 C 0.0124 0.56605 0.94013 0.0
C1825 C 0.02706 0.56945 0.97165 0.0
C1826 C 0.01903 0.57282 0.92657 0.0
C1827 C 0.0191 0.56356 0.91399 0.0
C1828 C 0.01256 0.54729 0.91471 0.0
C1829 C 0.00606 0.54054 0.9284 0.0
C1830 C 0.00592 0.54983 0.94097 0.0
H1831 H 0.03489 0.57509 0.98221 0.0
H1832 H 0.01874 0.55707 0.97372 0.0
H1833 H 0.03382 0.56947 0.96188 0.0
H1834 H 0.02401 0.5853 0.92565 0.0
H1835 H 0.02387 0.56911 0.90352 0.0
H1836 H 0.37341 0.40402 0.97218 0.0
H1837 H 0.38324 0.42514 0.95466 0.0
H1838 H 0.41133 0.40894 0.93517 0.0
H1839 H 0.40148 0.3878 0.95221 0.0
H1840 H 0.41251 0.4491 0.95251 0.0
H1841 H 0.39129 0.41328 0.8967 0.0
H1842 H 0.3842 0.40518 0.91484 0.0
H1843 H 0.40156 0.40704 0.90836 0.0
C1844 C 0.38156 0.40486 0.96404 0.0
C1845 C 0.38659 0.39413 0.96358 0.0
C1846 C 0.38716 0.41693 0.95405 0.0
C1847 C 0.39778 0.41842 0.94339 0.0
C1848 C 0.40282 0.40777 0.94297 0.0
H1849 H 0.47137 0.49421 0.90462 0.0
H1850 H 0.45279 0.47565 0.92119 0.0
C1851 C 0.39723 0.39572 0.95286 0.0
C1852 C 0.40444 0.43156 0.93325 0.0
H1853 H 0.41354 0.43939 0.89603 0.0
C1854 C 0.41249 0.44702 0.94011 0.0
C1855 C 0.40413 0.42889 0.91704 0.0
C1856 C 0.39467 0.41269 0.9088 0.0
C1857 C 0.42114 0.45979 0.93131 0.0
C1858 C 0.42204 0.45695 0.91533 0.0
C1859 C 0.41309 0.44159 0.90832 0.0
C1860 C 0.43307 0.46938 0.90591 0.0
C1861 C 0.42939 0.47615 0.9393 0.0
C1862 C 0.42824 0.47188 0.89163 0.0
C1863 C 0.43891 0.48224 0.88192 0.0
C1864 C 0.45463 0.49028 0.88629 0.0
C1865 C 0.45937 0.48809 0.9008 0.0
C1866 C 0.44872 0.47766 0.91043 0.0
H1867 H 0.42323 0.4769 0.94931 0.0
H1868 H 0.44091 0.47915 0.94378 0.0
H1869 H 0.4307 0.48499 0.93128 0.0
H1870 H 0.41624 0.46552 0.88782 0.0
H1871 H 0.43486 0.48347 0.87074 0.0
H1872 H 0.61106 0.03181 0.00245 0.0
H1873 H 0.59309 0.02414 0.98016 0.0
H1874 H 0.58351 0.97667 0.97959 0.0
H1875 H 0.60152 0.98423 0.00225 0.0
H1876 H 0.59585 0.01231 0.95153 0.0
H1877 H 0.54062 0.97105 0.97574 0.0
H1878 H 0.55757 0.98458 0.98786 0.0
H1879 H 0.55576 0.96716 0.9785 0.0
C1880 C 0.6051 0.01968 0.99772 0.0
C1881 C 0.60782 0.00864 0.00414 0.0
C1882 C 0.59479 0.01532 0.98496 0.0
C1883 C 0.5869 -0.00016 0.97826 0.0
C1884 C 0.58931 0.98864 0.98473 0.0
H1885 H 0.54447 0.98046 0.88454 0.0
H1886 H 0.558 0.97967 0.90776 0.0
C1887 C 0.59965 0.993 0.99764 0.0
C1888 C 0.57694 0.99593 0.96396 0.0
H1889 H 0.53981 0.97532 0.94932 0.0
C1890 C 0.58361 0.00412 0.951 0.0
C1891 C 0.56098 0.98533 0.96337 0.0
C1892 C 0.55321 0.97657 0.97711 0.0
C1893 C 0.57474 0.00226 0.93756 0.0
C1894 C 0.55877 0.9917 0.93695 0.0
C1895 C 0.55208 0.98331 0.94981 0.0
C1896 C 0.54887 0.98999 0.9233 0.0
C1897 C 0.58247 0.01207 0.92433 0.0
C1898 C 0.53878 0.99547 0.92445 0.0
C1899 C 0.53091 0.99582 0.91121 0.0
C1900 C 0.53295 0.99062 0.89659 0.0
C1901 C 0.5425 0.98441 0.89562 0.0
C1902 C 0.55035 0.98406 0.90886 0.0
H1903 H 0.59426 0.02186 0.92786 0.0
H1904 H 0.58315 0.00455 0.91488 0.0
H1905 H 0.57584 0.01705 0.91967 0.0
H1906 H 0.53746 5e-05 0.93552 0.0
H1907 H 0.52349 0.00049 0.91236 0.0
H1908 H 0.61709 0.03949 0.07752 0.0
H1909 H 0.6021 0.03581 0.09996 0.0
H1910 H 0.60093 0.99279 0.10703 0.0
H1911 H 0.61546 0.99609 0.08425 0.0
H1912 H 0.57363 0.98853 0.10899 0.0
H1913 H 0.61436 0.04275 0.1451 0.0
H1914 H 0.61023 0.04705 0.12645 0.0
H1915 H 0.61977 0.03623 0.12799 0.0
C1916 C 0.61378 0.02932 0.08394 0.0
C1917 C 0.61749 0.01809 0.0791 0.0
C1918 C 0.60529 0.02729 0.09685 0.0
C1919 C 0.60063 0.01418 0.10539 0.0
C1920 C 0.60445 0.00303 0.10067 0.0
H1921 H 0.55953 0.00622 0.19394 0.0
H1922 H 0.57681 0.00911 0.17373 0.0
C1923 C 0.61276 0.00494 0.08763 0.0
C1924 C 0.59101 0.01161 0.11868 0.0
H1925 H 0.58843 0.02931 0.15228 0.0
C1926 C 0.57695 0.9974 0.11853 0.0
C1927 C 0.59542 0.02304 0.13129 0.0
C1928 C 0.61084 0.03804 0.13282 0.0
C1929 C 0.56702 0.99448 0.13038 0.0
C1930 C 0.571 0.00631 0.14248 0.0
C1931 C 0.58526 0.02033 0.14289 0.0
C1932 C 0.5605 0.00444 0.15473 0.0
C1933 C 0.55245 0.97864 0.12989 0.0
C1934 C 0.54568 0.0011 0.15079 0.0
C1935 C 0.53577 0.99927 0.1623 0.0
C1936 C 0.5406 0.00108 0.17798 0.0
C1937 C 0.55555 0.00481 0.18194 0.0
C1938 C 0.5654 0.00643 0.17041 0.0
H1939 H 0.5535 0.96949 0.12314 0.0
H1940 H 0.54928 0.97486 0.14169 0.0
H1941 H 0.54305 0.97934 0.12414 0.0
H1942 H 0.54179 1e-05 0.13881 0.0
H1943 H 0.5244 0.99669 0.15894 0.0
H1944 H 0.01851 0.63885 0.09921 0.0
H1945 H 0.01095 0.61858 0.11714 0.0
H1946 H 0.96692 0.5908 0.0922 0.0
H1947 H 0.97451 0.61103 0.07386 0.0
H1948 H 0.98692 0.60434 0.13649 0.0
H1949 H 0.98404 0.56164 0.09035 0.0
H1950 H 0.99243 0.58221 0.0876 0.0
H1951 H 0.97205 0.56955 0.08708 0.0
C1952 C 0.00714 0.62851 0.09755 0.0
C1953 C 0.9972 0.62648 0.08493 0.0
C1954 C 0.00282 0.61694 0.10788 0.0
C1955 C 0.98849 0.60306 0.10584 0.0
C1956 C 0.97815 0.60131 0.0938 0.0
H1957 H 0.96618 0.52012 0.15604 0.0
H1958 H 0.96284 0.5377 0.13991 0.0
C1959 C 0.98247 0.61294 0.0834 0.0
C1960 C 0.98501 0.59023 0.1159 0.0
H1961 H 0.98141 0.55424 0.11574 0.0
C1962 C 0.98548 0.59328 0.13194 0.0
C1963 C 0.98313 0.5758 0.10993 0.0
C1964 C 0.98297 0.57205 0.09282 0.0
C1965 C 0.98469 0.58256 0.14222 0.0
C1966 C 0.98359 0.56851 0.13628 0.0
C1967 C 0.98229 0.56505 0.12023 0.0
C1968 C 0.9852 0.55798 0.14649 0.0
C1969 C 0.98536 0.58649 0.15936 0.0
C1970 C 0.99893 0.56354 0.15537 0.0
C1971 C 0.00089 0.55356 0.1645 0.0
C1972 C 0.98915 0.53779 0.16492 0.0
C1973 C 0.97537 0.53225 0.15604 0.0
C1974 C 0.97346 0.54224 0.14681 0.0
H1975 H 0.98161 0.59498 0.16181 0.0
H1976 H 0.97812 0.57577 0.16539 0.0
H1977 H 0.99732 0.59195 0.1642 0.0
H1978 H 0.00824 0.57557 0.15507 0.0
H1979 H 0.01157 0.55822 0.17133 0.0
H1980 H 0.38062 0.38566 0.04591 0.0
H1981 H 0.39603 0.39812 0.07022 0.0
H1982 H 0.43341 0.396 0.0513 0.0
H1983 H 0.41796 0.38313 0.02719 0.0
H1984 H 0.42889 0.38619 0.07941 0.0
H1985 H 0.43056 0.44257 0.08036 0.0
H1986 H 0.41147 0.42585 0.07897 0.0
H1987 H 0.42374 0.42879 0.06347 0.0
C1988 C 0.39216 0.38796 0.04689 0.0
C1989 C 0.39806 0.38341 0.03461 0.0
C1990 C 0.40099 0.39517 0.06076 0.0
C1991 C 0.41598 0.39824 0.06249 0.0
C1992 C 0.4219 0.39379 0.05021 0.0
H1993 H 0.4823 0.45835 0.13786 0.0
H1994 H 0.46839 0.44689 0.11259 0.0
C1995 C 0.41303 0.38642 0.03644 0.0
C1996 C 0.42531 0.40546 0.0773 0.0
H1997 H 0.43942 0.43728 0.1036 0.0
C1998 C 0.43127 0.39741 0.08465 0.0
C1999 C 0.4286 0.42021 0.08402 0.0
C2000 C 0.42339 0.42994 0.07622 0.0
C2001 C 0.44023 0.40357 0.09864 0.0
C2002 C 0.44294 0.41798 0.10571 0.0
C2003 C 0.4372 0.42616 0.09824 0.0
C2004 C 0.45162 0.42471 0.1209 0.0
C2005 C 0.44692 0.3947 0.10553 0.0
C2006 C 0.44676 0.4161 0.13396 0.0
C2007 C 0.45478 0.42254 0.14831 0.0
C2008 C 0.46765 0.43784 0.14994 0.0
C2009 C 0.47242 0.44653 0.13691 0.0
C2010 C 0.46448 0.44001 0.1225 0.0
H2011 H 0.44783 0.38687 0.09659 0.0
H2012 H 0.45843 0.40284 0.11129 0.0
H2013 H 0.43935 0.38723 0.11426 0.0
H2014 H 0.43662 0.40447 0.1331 0.0
H2015 H 0.45066 0.41572 0.15824 0.0
H2016 H 0.63234 0.70837 0.36781 0.0
H2017 H 0.6307 0.72358 0.38983 0.0
H2018 H 0.67205 0.72961 0.41123 0.0
H2019 H 0.67403 0.71471 0.38906 0.0
H2020 H 0.62785 0.71774 0.4199 0.0
H2021 H 0.68142 0.77428 0.4138 0.0
H2022 H 0.67328 0.75834 0.39882 0.0
H2023 H 0.68435 0.75815 0.41518 0.0
C2024 C 0.64115 0.71297 0.37715 0.0
C2025 C 0.65337 0.71038 0.37661 0.0
C2026 C 0.64018 0.72167 0.38974 0.0
C2027 C 0.65138 0.72796 0.40205 0.0
C2028 C 0.66349 0.72522 0.40167 0.0
H2029 H 0.66162 0.77371 0.49227 0.0
H2030 H 0.66322 0.76006 0.46887 0.0
C2031 C 0.66454 0.71661 0.38902 0.0
C2032 C 0.6501 0.73696 0.41547 0.0
H2033 H 0.66911 0.77214 0.43722 0.0
C2034 C 0.63681 0.72968 0.42361 0.0
C2035 C 0.66179 0.75257 0.42025 0.0
C2036 C 0.67595 0.76136 0.41147 0.0
C2037 C 0.63506 0.73744 0.43662 0.0
C2038 C 0.64688 0.75289 0.44154 0.0
C2039 C 0.6601 0.76025 0.43337 0.0
C2040 C 0.64592 0.76143 0.4555 0.0
C2041 C 0.62078 0.72899 0.44526 0.0
C2042 C 0.63574 0.76683 0.45562 0.0
C2043 C 0.63491 0.77484 0.46893 0.0
C2044 C 0.64427 0.77758 0.48233 0.0
C2045 C 0.65446 0.77211 0.48208 0.0
C2046 C 0.65534 0.7642 0.46877 0.0
H2047 H 0.61373 0.71631 0.44131 0.0
H2048 H 0.62375 0.73019 0.45787 0.0
H2049 H 0.61378 0.73438 0.44345 0.0
H2050 H 0.62849 0.7649 0.44539 0.0
H2051 H 0.62706 0.77904 0.46867 0.0
H2052 H 0.27299 0.95253 0.44529 0.0
H2053 H 0.26087 0.93172 0.46269 0.0
H2054 H 0.28043 0.90722 0.44027 0.0
H2055 H 0.29276 0.92812 0.42269 0.0
H2056 H 0.23966 0.8995 0.45209 0.0
H2057 H 0.28965 0.90763 0.48768 0.0
H2058 H 0.29056 0.92301 0.47687 0.0
H2059 H 0.29056 0.90676 0.467 0.0
C2060 C 0.27489 0.94283 0.44409 0.0
C2061 C 0.28381 0.94199 0.43249 0.0
C2062 C 0.26794 0.93094 0.45407 0.0
C2063 C 0.2698 0.91799 0.45279 0.0
C2064 C 0.27901 0.91723 0.44154 0.0
H2065 H 0.20736 0.83195 0.49611 0.0
H2066 H 0.22407 0.84979 0.4776 0.0
C2067 C 0.286 0.92917 0.43149 0.0
C2068 C 0.26125 0.90492 0.46266 0.0
H2069 H 0.26531 0.88693 0.49318 0.0
C2070 C 0.24525 0.89663 0.46098 0.0
C2071 C 0.26863 0.90132 0.47428 0.0
C2072 C 0.28579 0.91017 0.47672 0.0
C2073 C 0.23638 0.88503 0.47083 0.0
C2074 C 0.24373 0.8815 0.48255 0.0
C2075 C 0.25975 0.8896 0.48409 0.0
C2076 C 0.2349 0.87027 0.494 0.0
C2077 C 0.21921 0.87706 0.46902 0.0
C2078 C 0.23585 0.87581 0.50943 0.0
C2079 C 0.22638 0.86567 0.52002 0.0
C2080 C 0.21585 0.84978 0.51537 0.0
C2081 C 0.2154 0.84412 0.50004 0.0
C2082 C 0.22485 0.8543 0.48944 0.0
H2083 H 0.21549 0.88312 0.46128 0.0
H2084 H 0.2143 0.86481 0.46398 0.0
H2085 H 0.21444 0.87661 0.48043 0.0
H2086 H 0.24357 0.8881 0.51317 0.0
H2087 H 0.22717 0.87031 0.53181 0.0
H2088 H 0.07985 0.35584 0.3877 0.0
H2089 H 0.09955 0.36571 0.40904 0.0
H2090 H 0.08254 0.3183 0.42082 0.0
H2091 H 0.06302 0.30833 0.39958 0.0
H2092 H 0.09578 0.36219 0.44046 0.0
H2093 H 0.12822 0.33572 0.41867 0.0
H2094 H 0.11474 0.33749 0.40643 0.0
H2095 H 0.10819 0.3215 0.41864 0.0
C2096 C 0.08036 0.3475 0.39477 0.0
C2097 C 0.06987 0.33126 0.39184 0.0
C2098 C 0.09163 0.35317 0.40695 0.0
C2099 C 0.09269 0.34271 0.41631 0.0
C2100 C 0.08217 0.32656 0.4135 0.0
H2101 H 0.12101 0.34516 0.50852 0.0
H2102 H 0.10906 0.34527 0.4839 0.0
C2103 C 0.07092 0.32088 0.40139 0.0
C2104 C 0.10424 0.34854 0.42954 0.0
H2105 H 0.13134 0.34279 0.44613 0.0
C2106 C 0.10376 0.3582 0.4416 0.0
C2107 C 0.11487 0.3436 0.43088 0.0
C2108 C 0.11668 0.33414 0.41788 0.0
C2109 C 0.11289 0.36213 0.45541 0.0
C2110 C 0.12253 0.35602 0.45726 0.0
C2111 C 0.12379 0.3473 0.44479 0.0
C2112 C 0.13018 0.35718 0.47245 0.0
C2113 C 0.11187 0.37251 0.468 0.0
C2114 C 0.14603 0.36361 0.47414 0.0
C2115 C 0.15291 0.36339 0.48823 0.0
C2116 C 0.14399 0.35653 0.50074 0.0
C2117 C 0.12816 0.35034 0.49903 0.0
C2118 C 0.12134 0.3506 0.48503 0.0
H2119 H 0.10843 0.38037 0.46313 0.0
H2120 H 0.10306 0.36505 0.47587 0.0
H2121 H 0.12292 0.37981 0.4749 0.0
H2122 H 0.15303 0.3686 0.46451 0.0
H2123 H 0.16511 0.36817 0.48919 0.0
H2124 H 0.05696 0.29317 0.31971 0.0
H2125 H 0.06997 0.29322 0.29659 0.0
H2126 H 0.07622 0.33803 0.28698 0.0
H2127 H 0.06361 0.33832 0.31036 0.0
H2128 H 0.0628 0.29354 0.26667 0.0
H2129 H 0.11903 0.34681 0.2845 0.0
H2130 H 0.10427 0.33738 0.29778 0.0
H2131 H 0.10353 0.35028 0.28458 0.0
C2132 C 0.06115 0.30308 0.31272 0.0
C2133 C 0.05933 0.3158 0.31696 0.0
C2134 C 0.06858 0.30308 0.29949 0.0
C2135 C 0.07431 0.31574 0.29019 0.0
C2136 C 0.07227 0.32832 0.29421 0.0
H2137 H 0.11696 0.33072 0.20237 0.0
H2138 H 0.1029 0.33123 0.22449 0.0
C2139 C 0.06497 0.32843 0.30754 0.0
C2140 C 0.08215 0.31557 0.27615 0.0
H2141 H 0.11567 0.33595 0.25862 0.0
C2142 C 0.07437 0.3028 0.26494 0.0
C2143 C 0.09729 0.32765 0.27391 0.0
C2144 C 0.10659 0.34123 0.28589 0.0
C2145 C 0.08128 0.30183 0.25155 0.0
C2146 C 0.09631 0.31393 0.24931 0.0
C2147 C 0.10408 0.32676 0.26039 0.0
C2148 C 0.10437 0.31325 0.23574 0.0
C2149 C 0.07249 0.28792 0.2398 0.0
C2150 C 0.10985 0.30298 0.23485 0.0
C2151 C 0.11807 0.3028 0.22237 0.0
C2152 C 0.12091 0.31285 0.2105 0.0
C2153 C 0.11519 0.32298 0.21139 0.0
C2154 C 0.10707 0.32324 0.22395 0.0
H2155 H 0.06023 0.28072 0.24212 0.0
H2156 H 0.07342 0.29192 0.22798 0.0
H2157 H 0.07748 0.28037 0.24008 0.0
H2158 H 0.108 0.29532 0.24396 0.0
H2159 H 0.12253 0.29506 0.22225 0.0
H2160 H 0.65747 0.70707 0.29069 0.0
H2161 H 0.66913 0.72868 0.27414 0.0
H2162 H 0.70963 0.7524 0.30514 0.0
H2163 H 0.69795 0.73077 0.322 0.0
H2164 H 0.69802 0.77117 0.29819 0.0
H2165 H 0.70309 0.74227 0.24447 0.0
H2166 H 0.68431 0.73142 0.25134 0.0
H2167 H 0.70038 0.73384 0.26284 0.0
C2168 C 0.66895 0.71675 0.29394 0.0
C2169 C 0.67674 0.71719 0.30773 0.0
C2170 C 0.67565 0.72906 0.28436 0.0
C2171 C 0.69033 0.74205 0.28829 0.0
C2172 C 0.69834 0.74241 0.30185 0.0
H2173 H 0.72516 0.81511 0.22233 0.0
H2174 H 0.72491 0.79708 0.24059 0.0
C2175 C 0.69165 0.73002 0.31144 0.0
C2176 C 0.69653 0.75578 0.27891 0.0
H2177 H 0.7022 0.76575 0.24168 0.0
C2178 C 0.69924 0.77009 0.28588 0.0
C2179 C 0.69834 0.75445 0.26292 0.0
C2180 C 0.69653 0.73971 0.25498 0.0
C2181 C 0.7027 0.78277 0.27708 0.0
C2182 C 0.70324 0.78097 0.26088 0.0
C2183 C 0.70158 0.76705 0.25408 0.0
C2184 C 0.70418 0.7928 0.25066 0.0
C2185 C 0.70539 0.79784 0.28516 0.0
C2186 C 0.69259 0.79632 0.25027 0.0
C2187 C 0.69271 0.80657 0.23991 0.0
C2188 C 0.70438 0.81346 0.22965 0.0
C2189 C 0.71611 0.81011 0.2302 0.0
C2190 C 0.71595 0.79977 0.24056 0.0
H2191 H 0.70947 0.79917 0.29747 0.0
H2192 H 0.71387 0.80821 0.27937 0.0
H2193 H 0.69448 0.79766 0.28492 0.0
H2194 H 0.68323 0.79083 0.25774 0.0
H2195 H 0.68359 0.80902 0.23986 0.0
H2196 H 0.25603 0.95604 0.36466 0.0
H2197 H 0.24046 0.9429 0.34066 0.0
H2198 H 0.27112 0.92737 0.32794 0.0
H2199 H 0.28691 0.94056 0.35192 0.0
H2200 H 0.26414 0.94217 0.30464 0.0
H2201 H 0.21194 0.89518 0.32888 0.0
H2202 H 0.21888 0.91466 0.33753 0.0
H2203 H 0.23024 0.90589 0.33972 0.0
C2204 C 0.25946 0.94977 0.35684 0.0
C2205 C 0.27275 0.94937 0.36025 0.0
C2206 C 0.25047 0.94218 0.34316 0.0
C2207 C 0.25455 0.93402 0.33266 0.0
C2208 C 0.26775 0.93354 0.33599 0.0
H2209 H 0.20304 0.87423 0.25016 0.0
H2210 H 0.21674 0.88482 0.27561 0.0
C2211 C 0.27674 0.94107 0.3497 0.0
C2212 C 0.24544 0.92668 0.31783 0.0
H2213 H 0.20998 0.89868 0.30221 0.0
C2214 C 0.25232 0.93261 0.30409 0.0
C2215 C 0.23007 0.91416 0.31719 0.0
C2216 C 0.22234 0.90697 0.33159 0.0
C2217 C 0.24413 0.92654 0.28968 0.0
C2218 C 0.22863 0.91434 0.28907 0.0
C2219 C 0.22183 0.90817 0.30278 0.0
C2220 C 0.21943 0.90767 0.27421 0.0
C2221 C 0.25215 0.93311 0.27522 0.0
C2222 C 0.21611 0.91691 0.26523 0.0
C2223 C 0.20831 0.91092 0.25071 0.0
C2224 C 0.20373 0.89557 0.24494 0.0
C2225 C 0.20661 0.88616 0.25423 0.0
C2226 C 0.21435 0.89215 0.26877 0.0
H2227 H 0.26477 0.93996 0.27741 0.0
H2228 H 0.24902 0.92354 0.26605 0.0
H2229 H 0.24859 0.94103 0.27081 0.0
H2230 H 0.21979 0.92887 0.26935 0.0
H2231 H 0.20634 0.91847 0.24378 0.0
H2232 H 0.70818 0.9715 0.35257 0.0
H2233 H 0.7118 0.95696 0.33138 0.0
H2234 H 0.66305 0.92821 0.32166 0.0
H2235 H 0.65926 0.94295 0.3427 0.0
H2236 H 0.70198 0.9258 0.32748 0.0
H2237 H 0.67804 0.94288 0.2795 0.0
H2238 H 0.68254 0.95257 0.29874 0.0
H2239 H 0.66523 0.93387 0.29444 0.0
C2240 C 0.69818 0.96214 0.34591 0.0
C2241 C 0.68341 0.95844 0.34932 0.0
C2242 C 0.7003 0.95382 0.33381 0.0
C2243 C 0.68772 0.94163 0.32484 0.0
C2244 C 0.67294 0.93779 0.32824 0.0
H2245 H 0.69179 0.87253 0.26228 0.0
H2246 H 0.68776 0.8859 0.28443 0.0
C2247 C 0.67079 0.9462 0.34031 0.0
C2248 C 0.6902 0.93287 0.3121 0.0
H2249 H 0.68463 0.92387 0.27307 0.0
C2250 C 0.69819 0.92536 0.31557 0.0
C2251 C 0.6854 0.93249 0.29657 0.0
C2252 C 0.67745 0.94099 0.29202 0.0
C2253 C 0.70153 0.91749 0.30392 0.0
C2254 C 0.69646 0.91685 0.28844 0.0
C2255 C 0.68844 0.92433 0.28497 0.0
C2256 C 0.69962 0.90882 0.27553 0.0
C2257 C 0.71081 0.91031 0.30826 0.0
C2258 C 0.70749 0.91723 0.26311 0.0
C2259 C 0.70959 0.9096 0.25035 0.0
C2260 C 0.70386 0.89336 0.24973 0.0
C2261 C 0.69628 0.88502 0.26236 0.0
C2262 C 0.6941 0.89267 0.2751 0.0
H2263 H 0.71721 0.91541 0.31968 0.0
H2264 H 0.70302 0.89751 0.30899 0.0
H2265 H 0.71905 0.912 0.29944 0.0
H2266 H 0.71177 0.92969 0.26317 0.0
H2267 H 0.71519 0.91633 0.24071 0.0
H2268 H 0.04695 0.74464 0.314 0.0
H2269 H 0.05715 0.7655 0.29615 0.0
H2270 H 0.07446 0.74111 0.26935 0.0
H2271 H 0.06436 0.72033 0.28693 0.0
H2272 H 0.08856 0.78416 0.28983 0.0
H2273 H 0.05228 0.75185 0.23653 0.0
H2274 H 0.04693 0.74505 0.2555 0.0
H2275 H 0.0601 0.74151 0.24546 0.0
C2276 C 0.05274 0.74363 0.30418 0.0
C2277 C 0.05487 0.73083 0.30192 0.0
C2278 C 0.05857 0.75555 0.29403 0.0
C2279 C 0.06636 0.75472 0.28133 0.0
C2280 C 0.06823 0.74183 0.27891 0.0
H2281 H 0.12605 0.80387 0.21382 0.0
H2282 H 0.10819 0.78597 0.23141 0.0
C2283 C 0.06254 0.73002 0.28907 0.0
C2284 C 0.07363 0.76774 0.27114 0.0
H2285 H 0.07657 0.77505 0.23309 0.0
C2286 C 0.08575 0.78234 0.27746 0.0
C2287 C 0.06988 0.76529 0.25504 0.0
C2288 C 0.05648 0.75012 0.24774 0.0
C2289 C 0.09494 0.79421 0.26793 0.0
C2290 C 0.09172 0.7914 0.25173 0.0
C2291 C 0.07906 0.77712 0.24551 0.0
C2292 C 0.10222 0.80242 0.24095 0.0
C2293 C 0.10855 0.80926 0.27517 0.0
C2294 C 0.10467 0.81757 0.24039 0.0
C2295 C 0.115 0.82791 0.2304 0.0
C2296 C 0.12302 0.82323 0.22082 0.0
C2297 C 0.12029 0.80794 0.22126 0.0
C2298 C 0.10999 0.79765 0.2312 0.0
H2299 H 0.11082 0.80856 0.2876 0.0
H2300 H 0.11893 0.81218 0.26901 0.0
H2301 H 0.10644 0.81902 0.27422 0.0
H2302 H 0.09863 0.82139 0.24769 0.0
H2303 H 0.11688 0.83962 0.23034 0.0
H2304 H 0.28054 0.35701 0.32254 0.0
H2305 H 0.26155 0.34562 0.30075 0.0
H2306 H 0.24009 0.30056 0.3197 0.0
H2307 H 0.25918 0.31188 0.34177 0.0
H2308 H 0.25468 0.31729 0.27975 0.0
H2309 H 0.20549 0.31158 0.31098 0.0
H2310 H 0.22497 0.32532 0.3182 0.0
H2311 H 0.21706 0.30467 0.31924 0.0
C2312 C 0.27179 0.34468 0.32218 0.0
C2313 C 0.27138 0.33538 0.33398 0.0
C2314 C 0.26096 0.33819 0.30967 0.0
C2315 C 0.2494 0.32231 0.3087 0.0
C2316 C 0.24889 0.31289 0.32035 0.0
H2317 H 0.1761 0.2847 0.23366 0.0
H2318 H 0.19075 0.28519 0.25684 0.0
C2319 C 0.25983 0.31937 0.3329 0.0
C2320 C 0.2381 0.31586 0.29527 0.0
H2321 H 0.20232 0.3074 0.28386 0.0
C2322 C 0.24313 0.31483 0.28065 0.0
C2323 C 0.22303 0.31256 0.29654 0.0
C2324 C 0.2172 0.31358 0.31204 0.0
C2325 C 0.23372 0.31132 0.26717 0.0
C2326 C 0.21902 0.30912 0.26836 0.0
C2327 C 0.21362 0.30917 0.28302 0.0
C2328 C 0.20992 0.30857 0.25453 0.0
C2329 C 0.23975 0.31045 0.25174 0.0
C2330 C 0.21573 0.32165 0.2458 0.0
C2331 C 0.20745 0.32142 0.23268 0.0
C2332 C 0.19309 0.30813 0.22804 0.0
C2333 C 0.18716 0.29507 0.23692 0.0
C2334 C 0.19548 0.29534 0.25015 0.0
H2335 H 0.24875 0.30747 0.2529 0.0
H2336 H 0.23046 0.30158 0.24339 0.0
H2337 H 0.24489 0.32206 0.24692 0.0
H2338 H 0.22674 0.33206 0.24913 0.0
H2339 H 0.21247 0.33157 0.22598 0.0
H2340 H 0.28782 0.37862 0.40923 0.0
H2341 H 0.27479 0.37863 0.43233 0.0
H2342 H 0.25981 0.32997 0.43637 0.0
H2343 H 0.27295 0.32983 0.41338 0.0
H2344 H 0.24369 0.35977 0.43683 0.0
H2345 H 0.27884 0.35054 0.4798 0.0
H2346 H 0.2849 0.35651 0.46076 0.0
H2347 H 0.27116 0.33631 0.46337 0.0
C2348 C 0.28184 0.36792 0.41505 0.0
C2349 C 0.28149 0.35423 0.40942 0.0
C2350 C 0.27439 0.36796 0.42825 0.0
C2351 C 0.26653 0.35438 0.43617 0.0
C2352 C 0.26608 0.34068 0.4306 0.0
H2353 H 0.21035 0.32895 0.51457 0.0
H2354 H 0.22476 0.32964 0.49234 0.0
C2355 C 0.27352 0.34061 0.41739 0.0
C2356 C 0.25832 0.3544 0.44992 0.0
H2357 H 0.25634 0.3489 0.48845 0.0
C2358 C 0.2465 0.35748 0.44814 0.0
C2359 C 0.26201 0.35139 0.46464 0.0
C2360 C 0.275 0.34863 0.46735 0.0
C2361 C 0.23806 0.35733 0.46064 0.0
C2362 C 0.24173 0.35428 0.47535 0.0
C2363 C 0.25356 0.35123 0.47715 0.0
C2364 C 0.2333 0.35406 0.48899 0.0
C2365 C 0.22505 0.36006 0.45791 0.0
C2366 C 0.23354 0.36763 0.49461 0.0
C2367 C 0.22525 0.36726 0.50725 0.0
C2368 C 0.21662 0.3533 0.51454 0.0
C2369 C 0.21668 0.33981 0.50906 0.0
C2370 C 0.22499 0.34021 0.49644 0.0
H2371 H 0.22136 0.35837 0.44544 0.0
H2372 H 0.21508 0.35202 0.46432 0.0
H2373 H 0.22881 0.3723 0.4621 0.0
H2374 H 0.24009 0.37851 0.48918 0.0
H2375 H 0.22536 0.37782 0.51111 0.0
H2376 H 0.67831 0.96542 0.43692 0.0
H2377 H 0.66999 0.94414 0.4539 0.0
H2378 H 0.63403 0.91256 0.41985 0.0
H2379 H 0.64203 0.93397 0.40291 0.0
H2380 H 0.62488 0.90728 0.44961 0.0
H2381 H 0.68006 0.91038 0.44465 0.0
H2382 H 0.68241 0.9287 0.45198 0.0
H2383 H 0.67423 0.92076 0.43262 0.0
C2384 C 0.66851 0.954 0.43311 0.0
C2385 C 0.66096 0.95132 0.41847 0.0
C2386 C 0.66382 0.94183 0.4428 0.0
C2387 C 0.65168 0.92667 0.43794 0.0
C2388 C 0.64352 0.92415 0.42375 0.0
H2389 H 0.64404 0.84572 0.47918 0.0
H2390 H 0.64565 0.86425 0.46091 0.0
C2391 C 0.64809 0.9364 0.4141 0.0
C2392 C 0.64811 0.91334 0.44732 0.0
H2393 H 0.66425 0.8946 0.4637 0.0
C2394 C 0.63343 0.90442 0.45263 0.0
C2395 C 0.65918 0.90939 0.45094 0.0
C2396 C 0.6748 0.9177 0.44462 0.0
C2397 C 0.62968 0.89193 0.46188 0.0
C2398 C 0.64103 0.88856 0.46619 0.0
C2399 C 0.65557 0.89725 0.46052 0.0
C2400 C 0.63831 0.87624 0.47671 0.0
C2401 C 0.61354 0.88237 0.46671 0.0
C2402 C 0.6335 0.87668 0.49162 0.0
C2403 C 0.63239 0.86597 0.50199 0.0
C2404 C 0.63639 0.85484 0.49773 0.0
C2405 C 0.64098 0.85425 0.48276 0.0
C2406 C 0.64187 0.8648 0.47233 0.0
H2407 H 0.60535 0.88298 0.45856 0.0
H2408 H 0.60997 0.86986 0.46736 0.0
H2409 H 0.61284 0.88715 0.4783 0.0
H2410 H 0.63112 0.88566 0.49545 0.0
H2411 H 0.62904 0.8668 0.51355 0.0
H2412 H 0.05263 0.73393 0.37894 0.0
H2413 H 0.06756 0.74816 0.40309 0.0
H2414 H 0.09334 0.72527 0.39864 0.0
H2415 H 0.07882 0.71132 0.37443 0.0
H2416 H 0.07053 0.73731 0.42997 0.0
H2417 H 0.12706 0.77078 0.40587 0.0
H2418 H 0.10948 0.7605 0.39381 0.0
H2419 H 0.1181 0.75008 0.40094 0.0
C2420 C 0.06152 0.73197 0.38306 0.0
C2421 C 0.0646 0.72157 0.37465 0.0
C2422 C 0.07005 0.74013 0.39686 0.0
C2423 C 0.08179 0.73804 0.40248 0.0
C2424 C 0.08465 0.72743 0.39429 0.0
H2425 H 0.12017 0.75282 0.49533 0.0
H2426 H 0.10585 0.74295 0.47028 0.0
C2427 C 0.07623 0.71936 0.38048 0.0
C2428 C 0.09072 0.74647 0.4172 0.0
H2429 H 0.12715 0.76917 0.43336 0.0
C2430 C 0.0829 0.74442 0.4307 0.0
C2431 C 0.10684 0.756 0.41809 0.0
C2432 C 0.11585 0.75962 0.40387 0.0
C2433 C 0.09081 0.75111 0.44516 0.0
C2434 C 0.10697 0.75973 0.44618 0.0
C2435 C 0.11476 0.76234 0.4326 0.0
C2436 C 0.116 0.76577 0.46124 0.0
C2437 C 0.08175 0.7489 0.45918 0.0
C2438 C 0.12696 0.78181 0.46424 0.0
C2439 C 0.13547 0.78747 0.47846 0.0
C2440 C 0.13318 0.77717 0.48993 0.0
C2441 C 0.12238 0.76106 0.48673 0.0
C2442 C 0.11397 0.75542 0.47249 0.0
H2443 H 0.07019 0.74664 0.45595 0.0
H2444 H 0.08029 0.73858 0.46489 0.0
H2445 H 0.08766 0.75935 0.46766 0.0
H2446 H 0.12884 0.78997 0.45564 0.0
H2447 H 0.14384 0.7999 0.48046 0.0
H2448 H 0.30182 0.04255 0.69906 0.0
H2449 H 0.29973 0.05843 0.72008 0.0
H2450 H 0.34206 0.06738 0.74201 0.0
H2451 H 0.34447 0.05182 0.72078 0.0
H2452 H 0.29724 0.0537 0.75023 0.0
H2453 H 0.34928 0.11115 0.74295 0.0
H2454 H 0.34178 0.0948 0.72846 0.0
H2455 H 0.35326 0.09583 0.74507 0.0
C2456 C 0.31075 0.04795 0.7083 0.0
C2457 C 0.32335 0.04594 0.70821 0.0
C2458 C 0.30954 0.05705 0.7203 0.0
C2459 C 0.32086 0.0643 0.73248 0.0
C2460 C 0.3334 0.06224 0.73251 0.0
H2461 H 0.32961 0.1093 0.82211 0.0
H2462 H 0.33163 0.09628 0.79847 0.0
C2463 C 0.3347 0.05325 0.72042 0.0
C2464 C 0.31912 0.07338 0.7455 0.0
H2465 H 0.33714 0.10893 0.76659 0.0
C2466 C 0.30589 0.06583 0.75369 0.0
C2467 C 0.33039 0.08923 0.74995 0.0
C2468 C 0.3444 0.09828 0.74105 0.0
C2469 C 0.30384 0.07356 0.76652 0.0
C2470 C 0.3153 0.08922 0.77121 0.0
C2471 C 0.32841 0.09688 0.76292 0.0
C2472 C 0.31421 0.09756 0.78522 0.0
C2473 C 0.28967 0.06484 0.77528 0.0
C2474 C 0.30381 0.10268 0.78547 0.0
C2475 C 0.30273 0.11032 0.79894 0.0
C2476 C 0.31206 0.11294 0.81233 0.0
C2477 C 0.32248 0.10778 0.81193 0.0
C2478 C 0.3236 0.10025 0.79848 0.0
H2479 H 0.28275 0.05216 0.77126 0.0
H2480 H 0.2928 0.066 0.78784 0.0
H2481 H 0.28249 0.07006 0.77371 0.0
H2482 H 0.29655 0.10077 0.77526 0.0
H2483 H 0.29471 0.11429 0.79882 0.0
H2484 H 0.94041 0.27995 0.772 0.0
H2485 H 0.93077 0.259 0.7894 0.0
H2486 H 0.94756 0.23491 0.76131 0.0
H2487 H 0.95731 0.25592 0.74367 0.0
H2488 H 0.91641 0.21621 0.76778 0.0
H2489 H 0.95302 0.24731 0.82123 0.0
H2490 H 0.9452 0.25791 0.81288 0.0
H2491 H 0.95826 0.25456 0.80239 0.0
C2492 C 0.94223 0.2703 0.76956 0.0
C2493 C 0.94958 0.26959 0.75639 0.0
C2494 C 0.93682 0.2584 0.77962 0.0
C2495 C 0.93864 0.24553 0.77675 0.0
C2496 C 0.94618 0.24484 0.76378 0.0
H2497 H 0.90152 0.17514 0.84538 0.0
H2498 H 0.91892 0.19208 0.82667 0.0
C2499 C 0.95174 0.25685 0.75373 0.0
C2500 C 0.93141 0.23227 0.78667 0.0
H2501 H 0.92862 0.22407 0.82447 0.0
C2502 C 0.91928 0.21779 0.78013 0.0
C2503 C 0.9353 0.23431 0.80273 0.0
C2504 C 0.94876 0.24932 0.81021 0.0
C2505 C 0.91023 0.20566 0.78942 0.0
C2506 C 0.91334 0.20818 0.80564 0.0
C2507 C 0.92615 0.22224 0.81205 0.0
C2508 C 0.90265 0.19707 0.81622 0.0
C2509 C 0.89714 0.19041 0.78186 0.0
C2510 C 0.88783 0.19437 0.81656 0.0
C2511 C 0.87794 0.1848 0.82721 0.0
C2512 C 0.8827 0.17776 0.83776 0.0
C2513 C 0.89751 0.18031 0.83728 0.0
C2514 C 0.90745 0.19 0.82666 0.0
H2515 H 0.89908 0.1885 0.76962 0.0
H2516 H 0.89538 0.18028 0.78816 0.0
H2517 H 0.88651 0.19078 0.78199 0.0
H2518 H 0.884 0.19995 0.80879 0.0
H2519 H 0.86656 0.18294 0.82722 0.0
H2520 H 0.73156 0.64283 0.72774 0.0
H2521 H 0.75146 0.65401 0.74872 0.0
H2522 H 0.75935 0.70013 0.74268 0.0
H2523 H 0.73935 0.68905 0.72147 0.0
H2524 H 0.7843 0.68109 0.74728 0.0
H2525 H 0.7497 0.69074 0.7899 0.0
H2526 H 0.74078 0.67671 0.77325 0.0
H2527 H 0.7507 0.69732 0.77082 0.0
C2528 C 0.73749 0.65537 0.7308 0.0
C2529 C 0.73378 0.66503 0.72293 0.0
C2530 C 0.74891 0.66173 0.74277 0.0
C2531 C 0.7568 0.67785 0.74724 0.0
C2532 C 0.75331 0.68763 0.73939 0.0
H2533 H 0.81404 0.7142 0.83428 0.0
H2534 H 0.80227 0.71451 0.80944 0.0
C2535 C 0.74191 0.68127 0.72728 0.0
C2536 C 0.76839 0.68411 0.76041 0.0
H2537 H 0.77296 0.69412 0.79923 0.0
C2538 C 0.78198 0.68421 0.75861 0.0
C2539 C 0.76535 0.68828 0.77509 0.0
C2540 C 0.75084 0.68827 0.77754 0.0
C2541 C 0.79236 0.68778 0.77128 0.0
C2542 C 0.78883 0.6909 0.78619 0.0
C2543 C 0.77564 0.69166 0.78781 0.0
C2544 C 0.7977 0.69174 0.80039 0.0
C2545 C 0.80689 0.68792 0.7686 0.0
C2546 C 0.79916 0.67892 0.80351 0.0
C2547 C 0.80595 0.67876 0.81759 0.0
C2548 C 0.81128 0.69135 0.82898 0.0
C2549 C 0.81021 0.7044 0.82569 0.0
C2550 C 0.80341 0.70456 0.81154 0.0
H2551 H 0.81051 0.69105 0.75673 0.0
H2552 H 0.81633 0.69634 0.77707 0.0
H2553 H 0.80488 0.676 0.76981 0.0
H2554 H 0.79453 0.66873 0.79526 0.0
H2555 H 0.80672 0.6686 0.81972 0.0
H2556 H 0.7169 0.62416 0.64915 0.0
H2557 H 0.73024 0.62491 0.62609 0.0
H2558 H 0.74137 0.67229 0.62084 0.0
H2559 H 0.72797 0.6717 0.64391 0.0
H2560 H 0.72978 0.65111 0.59278 0.0
H2561 H 0.77756 0.651 0.62447 0.0
H2562 H 0.75875 0.63578 0.62866 0.0
H2563 H 0.765 0.65596 0.63396 0.0
C2564 C 0.72214 0.63476 0.64312 0.0
C2565 C 0.72142 0.64792 0.64849 0.0
C2566 C 0.72982 0.63517 0.62997 0.0
C2567 C 0.73693 0.64871 0.62191 0.0
C2568 C 0.73599 0.66175 0.62697 0.0
H2569 H 0.80427 0.67123 0.55423 0.0
H2570 H 0.78986 0.67138 0.57611 0.0
C2571 C 0.72836 0.66139 0.64018 0.0
C2572 C 0.74545 0.64927 0.60825 0.0
H2573 H 0.77647 0.64803 0.59712 0.0
C2574 C 0.74001 0.65048 0.5937 0.0
C2575 C 0.75886 0.64859 0.60955 0.0
C2576 C 0.76551 0.64789 0.625 0.0
C2577 C 0.74752 0.65076 0.58033 0.0
C2578 C 0.76071 0.64969 0.5816 0.0
C2579 C 0.76628 0.64873 0.59619 0.0
C2580 C 0.7691 0.64978 0.56796 0.0
C2581 C 0.74141 0.65243 0.565 0.0
C2582 C 0.76221 0.63752 0.55617 0.0
C2583 C 0.77041 0.63743 0.54361 0.0
C2584 C 0.78564 0.64958 0.54264 0.0
C2585 C 0.79248 0.66183 0.5545 0.0
C2586 C 0.7843 0.66189 0.56706 0.0
H2587 H 0.73344 0.65672 0.56649 0.0
H2588 H 0.75088 0.66063 0.55814 0.0
H2589 H 0.73512 0.6408 0.5583 0.0
H2590 H 0.75056 0.62793 0.55679 0.0
H2591 H 0.7648 0.62787 0.53463 0.0
H2592 H 0.36597 0.06287 0.65113 0.0
H2593 H 0.37546 0.08433 0.63403 0.0
H2594 H 0.3321 0.06026 0.60761 0.0
H2595 H 0.32251 0.03882 0.62445 0.0
H2596 H 0.37516 0.08343 0.59846 0.0
H2597 H 0.34016 0.1047 0.62588 0.0
H2598 H 0.34531 0.09219 0.63519 0.0
H2599 H 0.33029 0.08402 0.62009 0.0
C2600 C 0.35852 0.06201 0.64154 0.0
C2601 C 0.3434 0.04917 0.6393 0.0
C2602 C 0.36397 0.07429 0.6318 0.0
C2603 C 0.35438 0.07392 0.61974 0.0
C2604 C 0.33959 0.06081 0.61699 0.0
H2605 H 0.36013 0.12351 0.54118 0.0
H2606 H 0.35919 0.10537 0.55955 0.0
C2607 C 0.33415 0.04855 0.62665 0.0
C2608 C 0.35934 0.08754 0.61047 0.0
H2609 H 0.35121 0.11565 0.60267 0.0
C2610 C 0.37009 0.09062 0.59946 0.0
C2611 C 0.35281 0.09698 0.61198 0.0
C2612 C 0.34158 0.09445 0.624 0.0
C2613 C 0.37398 0.10253 0.58942 0.0
C2614 C 0.36685 0.11142 0.59041 0.0
C2615 C 0.35662 0.10877 0.60189 0.0
C2616 C 0.36899 0.12283 0.57907 0.0
C2617 C 0.38556 0.10539 0.57772 0.0
C2618 C 0.37474 0.13864 0.58398 0.0
C2619 C 0.37523 0.14903 0.57351 0.0
C2620 C 0.36976 0.14369 0.55802 0.0
C2621 C 0.36431 0.12792 0.55308 0.0
C2622 C 0.36392 0.11759 0.56352 0.0
H2623 H 0.39295 0.10081 0.58117 0.0
H2624 H 0.37951 0.09927 0.5664 0.0
H2625 H 0.3929 0.11812 0.57619 0.0
H2626 H 0.37856 0.14287 0.59597 0.0
H2627 H 0.37937 0.16109 0.57765 0.0
H2628 H 0.95461 0.27177 0.676 0.0
H2629 H 0.94032 0.25837 0.65133 0.0
H2630 H 0.90583 0.26896 0.66274 0.0
H2631 H 0.91984 0.28221 0.68739 0.0
H2632 H 0.89417 0.2374 0.65093 0.0
H2633 H 0.93695 0.2809 0.61411 0.0
H2634 H 0.94409 0.27282 0.62762 0.0
H2635 H 0.93708 0.28502 0.63465 0.0
C2636 C 0.94398 0.27124 0.67328 0.0
C2637 C 0.93844 0.27816 0.68368 0.0
C2638 C 0.93587 0.26363 0.65916 0.0
C2639 C 0.92212 0.26284 0.65518 0.0
C2640 C 0.91644 0.26949 0.6656 0.0
H2641 H 0.87298 0.24425 0.56694 0.0
H2642 H 0.88669 0.25489 0.59233 0.0
C2643 C 0.92452 0.2771 0.67968 0.0
C2644 C 0.9136 0.25519 0.64013 0.0
H2645 H 0.91534 0.2587 0.60126 0.0
C2646 C 0.8988 0.24199 0.64005 0.0
C2647 C 0.91964 0.26136 0.62601 0.0
C2648 C 0.93526 0.27588 0.6255 0.0
C2649 C 0.88984 0.23477 0.62618 0.0
C2650 C 0.89594 0.24086 0.61205 0.0
C2651 C 0.91075 0.25404 0.61213 0.0
C2652 C 0.887 0.23401 0.59706 0.0
C2653 C 0.8738 0.22095 0.62675 0.0
C2654 C 0.88261 0.21873 0.59136 0.0
C2655 C 0.87469 0.21259 0.5769 0.0
C2656 C 0.87108 0.22164 0.56787 0.0
C2657 C 0.87538 0.2369 0.57371 0.0
C2658 C 0.88332 0.24303 0.58815 0.0
H2659 H 0.86972 0.21988 0.6386 0.0
H2660 H 0.86577 0.22197 0.61876 0.0
H2661 H 0.87353 0.20999 0.62305 0.0
H2662 H 0.88552 0.21166 0.59799 0.0
H2663 H 0.87146 0.20077 0.57274 0.0
H2664 H 0.32604 0.27868 0.67423 0.0
H2665 H 0.32756 0.26238 0.65309 0.0
H2666 H 0.37658 0.28782 0.66089 0.0
H2667 H 0.37521 0.30391 0.68217 0.0
H2668 H 0.34185 0.27021 0.62626 0.0
H2669 H 0.36591 0.24276 0.6618 0.0
H2670 H 0.35791 0.25365 0.67019 0.0
H2671 H 0.37714 0.2638 0.66417 0.0
C2672 C 0.33716 0.28081 0.67146 0.0
C2673 C 0.35049 0.29252 0.68002 0.0
C2674 C 0.33799 0.27147 0.65939 0.0
C2675 C 0.35216 0.27365 0.65566 0.0
C2676 C 0.3655 0.28562 0.66386 0.0
H2677 H 0.3761 0.24654 0.57041 0.0
H2678 H 0.37224 0.25987 0.59259 0.0
C2679 C 0.36468 0.29489 0.67597 0.0
C2680 C 0.35309 0.26371 0.64295 0.0
H2681 H 0.36737 0.24017 0.63442 0.0
C2682 C 0.3473 0.26352 0.62806 0.0
C2683 C 0.35995 0.25476 0.64537 0.0
C2684 C 0.36543 0.25359 0.66128 0.0
C2685 C 0.34869 0.25508 0.61541 0.0
C2686 C 0.3564 0.24693 0.61768 0.0
C2687 C 0.36167 0.24663 0.63266 0.0
C2688 C 0.35934 0.23888 0.6046 0.0
C2689 C 0.3418 0.25492 0.59975 0.0
C2690 C 0.35398 0.22277 0.60433 0.0
C2691 C 0.35648 0.21514 0.5918 0.0
C2692 C 0.36443 0.22352 0.57934 0.0
C2693 C 0.37012 0.23975 0.57989 0.0
C2694 C 0.3677 0.24736 0.59244 0.0
H2695 H 0.33248 0.25743 0.60081 0.0
H2696 H 0.35074 0.26416 0.59318 0.0
H2697 H 0.33716 0.24341 0.59301 0.0
H2698 H 0.34765 0.21605 0.6137 0.0
H2699 H 0.3521 0.20268 0.59182 0.0
H2700 H 0.72845 0.04775 0.61267 0.0
H2701 H 0.73963 0.06815 0.59471 0.0
H2702 H 0.72342 0.09447 0.61997 0.0
H2703 H 0.71221 0.07408 0.63822 0.0
H2704 H 0.72581 0.08086 0.57586 0.0
H2705 H 0.77028 0.12529 0.61951 0.0
H2706 H 0.75946 0.10464 0.62252 0.0
H2707 H 0.75071 0.11619 0.62435 0.0
C2708 C 0.72716 0.05782 0.61443 0.0
C2709 C 0.71954 0.05933 0.62701 0.0
C2710 C 0.73354 0.06945 0.6041 0.0
C2711 C 0.73252 0.08289 0.60613 0.0
C2712 C 0.7245 0.08427 0.61834 0.0
H2713 H 0.78427 0.16642 0.55464 0.0
H2714 H 0.76607 0.14818 0.57199 0.0
C2715 C 0.71804 0.07257 0.62871 0.0
C2716 C 0.74035 0.09555 0.59563 0.0
H2717 H 0.77162 0.13225 0.59399 0.0
C2718 C 0.73571 0.09218 0.57983 0.0
C2719 C 0.75322 0.11031 0.60088 0.0
C2720 C 0.75885 0.1144 0.61772 0.0
C2721 C 0.74388 0.10302 0.56905 0.0
C2722 C 0.75721 0.11746 0.5742 0.0
C2723 C 0.76143 0.12114 0.59008 0.0
C2724 C 0.76757 0.12835 0.56322 0.0
C2725 C 0.73827 0.09883 0.55222 0.0
C2726 C 0.77454 0.12328 0.55267 0.0
C2727 C 0.78487 0.13361 0.54275 0.0
C2728 C 0.78855 0.1493 0.54327 0.0
C2729 C 0.78154 0.15437 0.55385 0.0
C2730 C 0.7712 0.14399 0.5638 0.0
H2731 H 0.72581 0.09011 0.55084 0.0
H2732 H 0.74066 0.10939 0.54632 0.0
H2733 H 0.7442 0.09351 0.54637 0.0
H2734 H 0.77215 0.11135 0.55224 0.0
H2735 H 0.78994 0.12929 0.53463 0.0
H2736 H 0.9466 0.69298 0.65599 0.0
H2737 H 0.92806 0.68348 0.63385 0.0
H2738 H 0.90413 0.63731 0.65043 0.0
H2739 H 0.92268 0.64671 0.67283 0.0
H2740 H 0.92063 0.65706 0.61134 0.0
H2741 H 0.87091 0.64948 0.64282 0.0
H2742 H 0.89031 0.6618 0.65096 0.0
H2743 H 0.88129 0.64085 0.65005 0.0
C2744 C 0.9374 0.6808 0.65503 0.0
C2745 C 0.93612 0.67063 0.66627 0.0
C2746 C 0.92682 0.67539 0.64232 0.0
C2747 C 0.91468 0.65975 0.6406 0.0
C2748 C 0.91334 0.64948 0.65168 0.0
H2749 H 0.84195 0.62263 0.56537 0.0
H2750 H 0.85693 0.62378 0.58855 0.0
C2751 C 0.92399 0.65487 0.66442 0.0
C2752 C 0.90367 0.65437 0.62697 0.0
H2753 H 0.86769 0.64541 0.61569 0.0
C2754 C 0.90899 0.65432 0.61228 0.0
C2755 C 0.88847 0.65068 0.62828 0.0
C2756 C 0.88232 0.65073 0.64384 0.0
C2757 C 0.89967 0.65119 0.59882 0.0
C2758 C 0.88476 0.64838 0.6001 0.0
C2759 C 0.87916 0.64765 0.61478 0.0
C2760 C 0.8754 0.64757 0.58636 0.0
C2761 C 0.90596 0.65119 0.58332 0.0
C2762 C 0.88069 0.66065 0.5777 0.0
C2763 C 0.87223 0.66003 0.56454 0.0
C2764 C 0.85821 0.64633 0.5598 0.0
C2765 C 0.85276 0.6333 0.56867 0.0
C2766 C 0.86126 0.63396 0.58192 0.0
H2767 H 0.91533 0.64872 0.58424 0.0
H2768 H 0.8969 0.64233 0.57478 0.0
H2769 H 0.91068 0.66293 0.5789 0.0
H2770 H 0.89146 0.67135 0.58108 0.0
H2771 H 0.8769 0.67019 0.55786 0.0
H2772 H 0.95209 0.71149 0.7418 0.0
H2773 H 0.93918 0.71213 0.76479 0.0
H2774 H 0.9222 0.66302 0.76876 0.0
H2775 H 0.93515 0.66222 0.74586 0.0
H2776 H 0.90759 0.69385 0.76925 0.0
H2777 H 0.94209 0.68371 0.81222 0.0
H2778 H 0.94825 0.68967 0.7932 0.0
H2779 H 0.93418 0.66957 0.79572 0.0
C2780 C 0.94568 0.70081 0.74757 0.0
C2781 C 0.94472 0.68681 0.74196 0.0
C2782 C 0.9383 0.70122 0.76071 0.0
C2783 C 0.92992 0.68768 0.76859 0.0
C2784 C 0.92885 0.67367 0.76301 0.0
H2785 H 0.87445 0.66378 0.84731 0.0
H2786 H 0.88885 0.66427 0.82516 0.0
C2787 C 0.93619 0.67323 0.74984 0.0
C2788 C 0.92193 0.68813 0.78236 0.0
H2789 H 0.92002 0.68294 0.82095 0.0
C2790 C 0.91035 0.69156 0.78058 0.0
C2791 C 0.92556 0.6851 0.7971 0.0
C2792 C 0.93828 0.68194 0.79977 0.0
C2793 C 0.90206 0.69171 0.7931 0.0
C2794 C 0.90566 0.68865 0.80784 0.0
C2795 C 0.91729 0.68529 0.80963 0.0
C2796 C 0.8973 0.68861 0.8215 0.0
C2797 C 0.88924 0.69472 0.79034 0.0
C2798 C 0.89752 0.70222 0.82695 0.0
C2799 C 0.88921 0.70195 0.83953 0.0
C2800 C 0.88059 0.68807 0.84696 0.0
C2801 C 0.88075 0.67458 0.84169 0.0
C2802 C 0.88905 0.67486 0.82911 0.0
H2803 H 0.88547 0.6929 0.77788 0.0
H2804 H 0.87926 0.68692 0.79687 0.0
H2805 H 0.89323 0.70706 0.79435 0.0
H2806 H 0.90405 0.71303 0.82142 0.0
H2807 H 0.88926 0.71251 0.84322 0.0
H2808 H 0.35092 0.29627 0.76508 0.0
H2809 H 0.34054 0.2751 0.78223 0.0
H2810 H 0.29755 0.25167 0.75512 0.0
H2811 H 0.3079 0.27282 0.73765 0.0
H2812 H 0.3144 0.26292 0.79999 0.0
H2813 H 0.31045 0.21864 0.7551 0.0
H2814 H 0.32131 0.23944 0.75281 0.0
H2815 H 0.30085 0.22884 0.75043 0.0
C2816 C 0.33922 0.28669 0.76274 0.0
C2817 C 0.3303 0.2862 0.74985 0.0
C2818 C 0.3333 0.2746 0.77262 0.0
C2819 C 0.31837 0.26172 0.76982 0.0
C2820 C 0.30919 0.2614 0.75733 0.0
H2821 H 0.28244 0.17572 0.81896 0.0
H2822 H 0.28327 0.19502 0.80202 0.0
C2823 C 0.31511 0.27355 0.74742 0.0
C2824 C 0.31282 0.2485 0.7798 0.0
H2825 H 0.3048 0.2108 0.78023 0.0
C2826 C 0.3121 0.25145 0.79565 0.0
C2827 C 0.30977 0.23353 0.77408 0.0
C2828 C 0.3107 0.22985 0.7572 0.0
C2829 C 0.30889 0.24 0.80602 0.0
C2830 C 0.30662 0.22532 0.80042 0.0
C2831 C 0.30659 0.22208 0.78448 0.0
C2832 C 0.30568 0.21377 0.81103 0.0
C2833 C 0.30819 0.24381 0.82292 0.0
C2834 C 0.31805 0.21788 0.82155 0.0
C2835 C 0.31761 0.20695 0.83117 0.0
C2836 C 0.30482 0.19161 0.83042 0.0
C2837 C 0.2924 0.18749 0.81988 0.0
C2838 C 0.29287 0.19846 0.81018 0.0
H2839 H 0.30532 0.25308 0.82459 0.0
H2840 H 0.29962 0.23323 0.8284 0.0
H2841 H 0.31953 0.24825 0.82898 0.0
H2842 H 0.32817 0.22954 0.82218 0.0
H2843 H 0.32728 0.21055 0.83929 0.0
H2844 H 0.74404 0.03865 0.69802 0.0
H2845 H 0.75975 0.05128 0.722 0.0
H2846 H 0.73862 0.07873 0.72865 0.0
H2847 H 0.72253 0.06588 0.70478 0.0
H2848 H 0.78064 0.08205 0.73061 0.0
H2849 H 0.73281 0.0589 0.76941 0.0
H2850 H 0.73035 0.05154 0.74943 0.0
H2851 H 0.73124 0.06973 0.7544 0.0
C2852 C 0.74268 0.04736 0.70454 0.0
C2853 C 0.73191 0.05116 0.69949 0.0
C2854 C 0.75171 0.05459 0.71826 0.0
C2855 C 0.75021 0.06577 0.72722 0.0
C2856 C 0.73973 0.06988 0.72207 0.0
H2857 H 0.81491 0.12728 0.80343 0.0
H2858 H 0.80034 0.11671 0.77846 0.0
C2859 C 0.73059 0.06257 0.70838 0.0
C2860 C 0.75963 0.07304 0.74195 0.0
H2861 H 0.75745 0.0772 0.7809 0.0
C2862 C 0.77559 0.08101 0.74162 0.0
C2863 C 0.75299 0.07147 0.7563 0.0
C2864 C 0.73591 0.06233 0.75749 0.0
C2865 C 0.78511 0.08747 0.75527 0.0
C2866 C 0.77847 0.08619 0.76958 0.0
C2867 C 0.76251 0.07824 0.7699 0.0
C2868 C 0.78779 0.09263 0.78445 0.0
C2869 C 0.80214 0.09521 0.75426 0.0
C2870 C 0.78541 0.08265 0.7962 0.0
C2871 C 0.79351 0.08868 0.81056 0.0
C2872 C 0.80419 0.10485 0.81349 0.0
C2873 C 0.80671 0.11479 0.8016 0.0
C2874 C 0.79852 0.10875 0.78725 0.0
H2875 H 0.80503 0.0915 0.74321 0.0
H2876 H 0.80736 0.10814 0.75483 0.0
H2877 H 0.80734 0.09242 0.764 0.0
H2878 H 0.77711 0.07018 0.79431 0.0
H2879 H 0.79105 0.08072 0.81952 0.0
H2880 H 0.05698 0.37387 0.03672 0.0
H2881 H 0.07495 0.37215 0.05459 0.0
H2882 H 0.03788 0.32933 0.06991 0.0
H2883 H 0.01993 0.33108 0.0524 0.0
H2884 H 0.05762 0.34962 0.09406 0.0
H2885 H 0.08901 0.3408 0.04729 0.0
H2886 H 0.08822 0.35834 0.04701 0.0
H2887 H 0.07097 0.33947 0.04356 0.0
C2888 C 0.05268 0.36416 0.04397 0.0
C2889 C 0.03706 0.35256 0.04307 0.0
C2890 C 0.06296 0.36314 0.05411 0.0
C2891 C 0.05777 0.35048 0.0634 0.0
C2892 C 0.04214 0.33917 0.06281 0.0
H2893 H 0.10498 0.31026 0.10564 0.0
H2894 H 0.0885 0.31628 0.09049 0.0
C2895 C 0.03189 0.34018 0.05275 0.0
C2896 C 0.06851 0.34863 0.07356 0.0
H2897 H 0.09765 0.34151 0.07294 0.0
C2898 C 0.06645 0.34795 0.08948 0.0
C2899 C 0.07985 0.34622 0.06749 0.0
C2900 C 0.08213 0.3461 0.0504 0.0
C2901 C 0.07534 0.34478 0.09949 0.0
C2902 C 0.08676 0.34249 0.09343 0.0
C2903 C 0.08892 0.34334 0.07754 0.0
C2904 C 0.09624 0.33863 0.10325 0.0
C2905 C 0.07207 0.34337 0.11635 0.0
C2906 C 0.106 0.34916 0.11552 0.0
C2907 C 0.11531 0.34566 0.12434 0.0
C2908 C 0.11513 0.33161 0.12097 0.0
C2909 C 0.10522 0.32104 0.10874 0.0
C2910 C 0.0959 0.32454 0.09996 0.0
H2911 H 0.06066 0.34161 0.11837 0.0
H2912 H 0.07262 0.33343 0.12077 0.0
H2913 H 0.08078 0.35432 0.12316 0.0
H2914 H 0.10663 0.36022 0.11811 0.0
H2915 H 0.12274 0.35401 0.13374 0.0
H2916 H 0.67796 0.67181 0.09502 0.0
H2917 H 0.68722 0.69627 0.11133 0.0
H2918 H 0.64616 0.6959 0.09829 0.0
H2919 H 0.63693 0.67166 0.08186 0.0
H2920 H 0.67328 0.72376 0.09339 0.0
H2921 H 0.67385 0.706 0.15289 0.0
H2922 H 0.68322 0.70046 0.13897 0.0
H2923 H 0.66294 0.69197 0.13668 0.0
C2924 C 0.6708 0.67682 0.09584 0.0
C2925 C 0.65676 0.6699 0.08711 0.0
C2926 C 0.67608 0.69074 0.10521 0.0
C2927 C 0.66732 0.69781 0.10606 0.0
C2928 C 0.65307 0.69059 0.09778 0.0
H2929 H 0.6717 0.77373 0.16087 0.0
H2930 H 0.66701 0.74845 0.14981 0.0
C2931 C 0.64781 0.67675 0.08841 0.0
C2932 C 0.67346 0.71342 0.11443 0.0
H2933 H 0.6838 0.73302 0.15032 0.0
C2934 C 0.67566 0.72582 0.10583 0.0
C2935 C 0.6765 0.71599 0.13064 0.0
C2936 C 0.67392 0.7029 0.14041 0.0
C2937 C 0.68054 0.74071 0.11303 0.0
C2938 C 0.6836 0.74333 0.12925 0.0
C2939 C 0.6816 0.73098 0.13786 0.0
C2940 C 0.68764 0.75847 0.13749 0.0
C2941 C 0.68183 0.75335 0.10326 0.0
C2942 C 0.70103 0.77242 0.13459 0.0
C2943 C 0.70366 0.78691 0.14074 0.0
C2944 C 0.69294 0.78763 0.14994 0.0
C2945 C 0.68 0.77355 0.15355 0.0
C2946 C 0.67738 0.7591 0.14737 0.0
H2947 H 0.67607 0.74849 0.09154 0.0
H2948 H 0.67678 0.75971 0.10889 0.0
H2949 H 0.69406 0.76196 0.1019 0.0
H2950 H 0.70919 0.77213 0.12715 0.0
H2951 H 0.71372 0.79754 0.13773 0.0
H2952 H 0.32903 0.95293 0.02792 0.0
H2953 H 0.3063 0.93752 0.0423 0.0
H2954 H 0.31901 0.97863 0.07273 0.0
H2955 H 0.3415 0.9941 0.05836 0.0
H2956 H 0.30278 0.9317 0.07369 0.0
H2957 H 0.2758 0.96483 0.05612 0.0
H2958 H 0.2919 0.96615 0.04684 0.0
H2959 H 0.29474 0.97717 0.06502 0.0
C2960 C 0.32701 0.95863 0.03774 0.0
C2961 C 0.33692 0.97475 0.04192 0.0
C2962 C 0.31403 0.94983 0.04592 0.0
C2963 C 0.31081 0.95704 0.05834 0.0
C2964 C 0.32108 0.97295 0.06294 0.0
H2965 H 0.24362 0.9313 0.12549 0.0
H2966 H 0.2653 0.94417 0.10936 0.0
C2967 C 0.33398 0.98174 0.05476 0.0
C2968 C 0.29663 0.94808 0.06644 0.0
H2969 H 0.26461 0.94797 0.07635 0.0
C2970 C 0.29434 0.93513 0.07416 0.0
C2971 C 0.28562 0.95258 0.06695 0.0
C2972 C 0.28703 0.96584 0.05816 0.0
C2973 C 0.28159 0.9269 0.08288 0.0
C2974 C 0.27082 0.93168 0.08371 0.0
C2975 C 0.27295 0.94442 0.07574 0.0
C2976 C 0.25746 0.92386 0.09313 0.0
C2977 C 0.27994 0.91346 0.09152 0.0
C2978 C 0.24574 0.90829 0.08913 0.0
C2979 C 0.23325 0.90094 0.09821 0.0
C2980 C 0.23225 0.90906 0.11147 0.0
C2981 C 0.24391 0.92478 0.11526 0.0
C2982 C 0.25637 0.93212 0.10613 0.0
H2983 H 0.29061 0.91315 0.09204 0.0
H2984 H 0.27675 0.91431 0.1035 0.0
H2985 H 0.27069 0.90221 0.0856 0.0
H2986 H 0.24627 0.90183 0.07896 0.0
H2987 H 0.22434 0.88892 0.09483 0.0
H2988 H 0.34786 0.01286 0.9816 0.0
H2989 H 0.34247 0.0317 0.97102 0.0
H2990 H 0.37829 0.06887 0.0017 0.0
H2991 H 0.38399 0.04998 0.01223 0.0
H2992 H 0.33289 0.04874 0.98812 0.0
H2993 H 0.38628 0.08834 0.96009 0.0
H2994 H 0.38171 0.0693 0.96564 0.0
H2995 H 0.38858 0.08551 0.98003 0.0
C2996 C 0.35477 0.02508 0.98596 0.0
C2997 C 0.36633 0.02995 0.99778 0.0
C2998 C 0.35165 0.03583 0.97991 0.0
C2999 C 0.35999 0.05169 0.98554 0.0
C3000 C 0.37187 0.05673 0.99703 0.0
H3001 H 0.34246 0.12484 0.95846 0.0
H3002 H 0.35204 0.11083 0.97275 0.0
C3003 C 0.3751 0.04594 0.00305 0.0
C3004 C 0.35539 0.06249 0.97992 0.0
H3005 H 0.3669 0.0944 0.95914 0.0
C3006 C 0.34036 0.05878 0.98187 0.0
C3007 C 0.3652 0.07565 0.97187 0.0
C3008 C 0.38132 0.07994 0.96914 0.0
C3009 C 0.33474 0.0676 0.97562 0.0
C3010 C 0.34436 0.0804 0.96712 0.0
C3011 C 0.35957 0.08454 0.96567 0.0
C3012 C 0.33847 0.08888 0.95873 0.0
C3013 C 0.31848 0.06304 0.97797 0.0
C3014 C 0.32776 0.08115 0.94611 0.0
C3015 C 0.32238 0.08912 0.93784 0.0
C3016 C 0.3276 0.10499 0.94206 0.0
C3017 C 0.3383 0.11267 0.95481 0.0
C3018 C 0.34375 0.10469 0.96303 0.0
H3019 H 0.31384 0.05554 0.98775 0.0
H3020 H 0.31765 0.07363 0.98018 0.0
H3021 H 0.31122 0.05633 0.96733 0.0
H3022 H 0.32374 0.069 0.94249 0.0
H3023 H 0.31444 0.08292 0.92788 0.0
H3024 H 0.00605 0.31454 0.97926 0.0
H3025 H 0.99043 0.29091 0.96164 0.0
H3026 H 0.95015 0.29202 0.97208 0.0
H3027 H 0.96559 0.31549 0.98971 0.0
H3028 H 0.96494 0.26203 0.97131 0.0
H3029 H 0.94792 0.28605 0.9239 0.0
H3030 H 0.96441 0.29817 0.93717 0.0
H3031 H 0.9456 0.29221 0.94294 0.0
C3032 C 0.99389 0.30985 0.97764 0.0
C3033 C 0.98702 0.31682 0.98587 0.0
C3034 C 0.98502 0.29637 0.96759 0.0
C3035 C 0.9692 0.28987 0.96545 0.0
C3036 C 0.96239 0.29703 0.97339 0.0
H3037 H 0.88951 0.2021 0.94417 0.0
H3038 H 0.91195 0.22674 0.95496 0.0
C3039 C 0.97121 0.31038 0.98353 0.0
C3040 C 0.95951 0.27491 0.95592 0.0
H3041 H 0.93269 0.25819 0.92557 0.0
C3042 C 0.95809 0.26119 0.96113 0.0
C3043 C 0.95071 0.27391 0.94261 0.0
C3044 C 0.9523 0.28838 0.9362 0.0
C3045 C 0.94738 0.24637 0.95389 0.0
C3046 C 0.9379 0.24533 0.94118 0.0
C3047 C 0.93995 0.25908 0.93539 0.0
C3048 C 0.92483 0.23008 0.93475 0.0
C3049 C 0.94588 0.23189 0.96015 0.0
C3050 C 0.92471 0.2239 0.9198 0.0
C3051 C 0.91192 0.20976 0.91364 0.0
C3052 C 0.89902 0.20183 0.92226 0.0
C3053 C 0.89926 0.20806 0.93725 0.0
C3054 C 0.91208 0.22204 0.94345 0.0
H3055 H 0.95611 0.2347 0.96759 0.0
H3056 H 0.93579 0.2264 0.96719 0.0
H3057 H 0.9441 0.22315 0.95056 0.0
H3058 H 0.93446 0.23004 0.91292 0.0
H3059 H 0.91195 0.20524 0.90202 0.0
H3060 H 0.67218 0.65731 0.01879 0.0
H3061 H 0.69331 0.6622 0.00306 0.0
H3062 H 0.69645 0.62569 0.02397 0.0
H3063 H 0.67498 0.62045 0.03954 0.0
H3064 H 0.72215 0.67216 0.01419 0.0
H3065 H 0.69829 0.61558 0.97846 0.0
H3066 H 0.68647 0.62071 0.98922 0.0
H3067 H 0.69726 0.61371 0.99891 0.0
C3068 C 0.67721 0.65014 0.01989 0.0
C3069 C 0.67194 0.63849 0.0304 0.0
C3070 C 0.6893 0.65298 0.0109 0.0
C3071 C 0.6964 0.64425 0.01226 0.0
C3072 C 0.69095 0.63236 0.02251 0.0
H3073 H 0.77842 0.65529 0.97332 0.0
H3074 H 0.75656 0.64792 0.98895 0.0
C3075 C 0.67873 0.62941 0.03144 0.0
C3076 C 0.71011 0.64842 0.00367 0.0
H3077 H 0.72466 0.6342 0.97694 0.0
C3078 C 0.72268 0.66387 0.00602 0.0
C3079 C 0.71079 0.63756 0.99307 0.0
C3080 C 0.69744 0.621 0.98963 0.0
C3081 C 0.7359 0.66875 0.99804 0.0
C3082 C 0.73652 0.65793 0.98736 0.0
C3083 C 0.72409 0.64243 0.98516 0.0
C3084 C 0.74987 0.66262 0.9781 0.0
C3085 C 0.74917 0.6854 0.00115 0.0
C3086 C 0.75327 0.67329 0.96681 0.0
C3087 C 0.76565 0.67742 0.95777 0.0
C3088 C 0.77486 0.67094 0.95984 0.0
C3089 C 0.77146 0.66034 0.97128 0.0
C3090 C 0.75902 0.65616 0.98027 0.0
H3091 H 0.7482 0.69117 0.012 0.0
H3092 H 0.76014 0.68571 0.00193 0.0
H3093 H 0.74947 0.69233 0.99146 0.0
H3094 H 0.74619 0.67822 0.96484 0.0
H3095 H 0.76777 0.68539 0.94889 0.0
H3096 H 0.94569 0.63271 0.02682 0.0
H3097 H 0.92815 0.63571 0.00953 0.0
H3098 H 0.96588 0.66666 0.98333 0.0
H3099 H 0.98338 0.66405 0.00067 0.0
H3100 H 0.94951 0.67945 0.992 0.0
H3101 H 0.91071 0.61886 0.96532 0.0
H3102 H 0.91217 0.62043 0.98609 0.0
H3103 H 0.92863 0.62475 0.97568 0.0
C3104 C 0.95016 0.63992 0.01721 0.0
C3105 C 0.9659 0.64821 0.01514 0.0
C3106 C 0.94013 0.64158 0.0073 0.0
C3107 C 0.9457 0.65134 0.99507 0.0
C3108 C 0.96133 0.6591 0.99269 0.0
H3109 H 0.89535 0.66351 0.92027 0.0
H3110 H 0.91108 0.6568 0.93602 0.0
C3111 C 0.97132 0.65759 0.00263 0.0
C3112 C 0.93563 0.65462 0.98546 0.0
H3113 H 0.90379 0.63769 0.96058 0.0
C3114 C 0.93953 0.67031 0.9851 0.0
C3115 C 0.9227 0.64271 0.97635 0.0
C3116 C 0.91834 0.62576 0.97572 0.0
C3117 C 0.93088 0.67443 0.97595 0.0
C3118 C 0.91771 0.6625 0.96718 0.0
C3119 C 0.91383 0.6468 0.96742 0.0
C3120 C 0.90787 0.66615 0.9577 0.0
C3121 C 0.93611 0.69159 0.97554 0.0
C3122 C 0.9007 0.67343 0.9647 0.0
C3123 C 0.89182 0.67734 0.95575 0.0
C3124 C 0.88981 0.67392 0.93962 0.0
C3125 C 0.89672 0.66631 0.93266 0.0
C3126 C 0.90568 0.66247 0.94164 0.0
H3127 H 0.9484 0.69931 0.97935 0.0
H3128 H 0.93426 0.69429 0.96373 0.0
H3129 H 0.92948 0.69448 0.98348 0.0
H3130 H 0.90193 0.67603 0.97712 0.0
H3131 H 0.88631 0.68282 0.9615 0.0
H3132 H 0.32955 0.33482 0.95856 0.0
H3133 H 0.32036 0.31148 0.9405 0.0
H3134 H 0.35265 0.30197 0.96247 0.0
H3135 H 0.36218 0.32544 0.98015 0.0
H3136 H 0.35114 0.29733 0.93136 0.0
H3137 H 0.29275 0.26723 0.95263 0.0
H3138 H 0.29889 0.28583 0.94509 0.0
H3139 H 0.3084 0.285 0.96239 0.0
C3140 C 0.33476 0.3278 0.95943 0.0
C3141 C 0.34648 0.33184 0.97084 0.0
C3142 C 0.32943 0.31443 0.94918 0.0
C3143 C 0.33561 0.30482 0.95036 0.0
C3144 C 0.34768 0.30919 0.9614 0.0
H3145 H 0.30321 0.20854 0.93046 0.0
H3146 H 0.30867 0.23451 0.94012 0.0
C3147 C 0.3531 0.32259 0.97151 0.0
C3148 C 0.32936 0.28994 0.94051 0.0
H3149 H 0.29774 0.25325 0.93342 0.0
C3150 C 0.33942 0.28772 0.93166 0.0
C3151 C 0.31409 0.27742 0.94106 0.0
C3152 C 0.30291 0.27887 0.95088 0.0
C3153 C 0.33483 0.27314 0.92383 0.0
C3154 C 0.3196 0.26057 0.9245 0.0
C3155 C 0.30937 0.26296 0.93286 0.0
C3156 C 0.31455 0.24446 0.91801 0.0
C3157 C 0.34659 0.27114 0.91566 0.0
C3158 C 0.31553 0.24128 0.90228 0.0
C3159 C 0.31257 0.22649 0.89678 0.0
C3160 C 0.30829 0.21457 0.90689 0.0
C3161 C 0.30639 0.21749 0.92242 0.0
C3162 C 0.30954 0.23232 0.92794 0.0
H3163 H 0.35842 0.28085 0.91918 0.0
H3164 H 0.34562 0.25986 0.91807 0.0
H3165 H 0.3447 0.27106 0.903 0.0
H3166 H 0.319 0.25036 0.89435 0.0
H3167 H 0.31392 0.22443 0.88471 0.0
H3168 H 0.67533 0.05055 0.03082 0.0
H3169 H 0.6977 0.06622 0.01608 0.0
H3170 H 0.68525 0.02518 0.98564 0.0
H3171 H 0.66312 0.00947 0.00035 0.0
H3172 H 0.7155 0.04106 0.99751 0.0
H3173 H 0.70017 0.08164 0.97265 0.0
H3174 H 0.69948 0.08081 0.99326 0.0
H3175 H 0.68632 0.06381 0.98075 0.0
C3176 C 0.67728 0.04494 0.02086 0.0
C3177 C 0.66752 0.02879 0.01676 0.0
C3178 C 0.69002 0.05391 0.01244 0.0
C3179 C 0.69307 0.04685 0.99973 0.0
C3180 C 0.68311 0.03083 0.99542 0.0
H3181 H 0.7522 0.0838 0.9258 0.0
H3182 H 0.73118 0.07168 0.94279 0.0
C3183 C 0.67045 0.02188 0.00383 0.0
C3184 C 0.70698 0.05584 0.99126 0.0
H3185 H 0.7244 0.08565 0.96763 0.0
C3186 C 0.71751 0.05087 0.99103 0.0
C3187 C 0.70946 0.06853 0.98277 0.0
C3188 C 0.69823 0.07399 0.98221 0.0
C3189 C 0.73037 0.0581 0.98232 0.0
C3190 C 0.73288 0.07082 0.97384 0.0
C3191 C 0.72246 0.07594 0.97424 0.0
C3192 C 0.74578 0.07838 0.96377 0.0
C3193 C 0.74086 0.05171 0.98183 0.0
C3194 C 0.76095 0.08622 0.96997 0.0
C3195 C 0.77301 0.09315 0.96027 0.0
C3196 C 0.77006 0.09247 0.94424 0.0
C3197 C 0.75483 0.08467 0.93812 0.0
C3198 C 0.74282 0.07772 0.9478 0.0
H3199 H 0.73551 0.03984 0.98615 0.0
H3200 H 0.74418 0.05105 0.96988 0.0
H3201 H 0.75141 0.05967 0.98925 0.0
H3202 H 0.76347 0.08709 0.98231 0.0
H3203 H 0.78462 0.09928 0.96533 0.0
H3204 H 0.62062 0.95305 0.04678 0.0
H3205 H 0.62604 0.93418 0.0579 0.0
H3206 H 0.66241 0.97176 0.08779 0.0
H3207 H 0.65729 0.99054 0.07664 0.0
H3208 H 0.67131 0.95348 0.07183 0.0
H3209 H 0.61755 0.9167 0.10057 0.0
H3210 H 0.61546 0.91879 0.08036 0.0
H3211 H 0.62274 0.9356 0.09407 0.0
C3212 C 0.62961 0.9572 0.05587 0.0
C3213 C 0.63855 0.97326 0.06082 0.0
C3214 C 0.63268 0.94643 0.06222 0.0
C3215 C 0.64461 0.95158 0.0737 0.0
C3216 C 0.65321 0.96754 0.0789 0.0
H3217 H 0.66888 0.90899 0.14163 0.0
H3218 H 0.6596 0.92219 0.1258 0.0
C3219 C 0.65023 0.97826 0.07253 0.0
C3220 C 0.64874 0.9407 0.08004 0.0
H3221 H 0.63644 0.9101 0.10278 0.0
C3222 C 0.66365 0.94388 0.07848 0.0
C3223 C 0.63873 0.92827 0.08876 0.0
C3224 C 0.62275 0.92463 0.09119 0.0
C3225 C 0.66902 0.93534 0.08585 0.0
C3226 C 0.65908 0.92303 0.09474 0.0
C3227 C 0.644 0.9195 0.09589 0.0
C3228 C 0.66446 0.9146 0.10404 0.0
C3229 C 0.6855 0.94009 0.08468 0.0
C3230 C 0.67025 0.9059 0.09704 0.0
C3231 C 0.67568 0.89841 0.1061 0.0
C3232 C 0.67518 0.89932 0.12226 0.0
C3233 C 0.66925 0.90793 0.12919 0.0
C3234 C 0.66395 0.91548 0.12016 0.0
H3235 H 0.6924 0.95187 0.08026 0.0
H3236 H 0.69074 0.94025 0.0961 0.0
H3237 H 0.68609 0.93146 0.07657 0.0
H3238 H 0.67051 0.90485 0.08459 0.0
H3239 H 0.68001 0.89169 0.10045 0.0
H3240 H 0.99949 0.68837 0.0786 0.0
H3241 H 0.01613 0.71315 0.09437 0.0
H3242 H 0.05573 0.71289 0.07945 0.0
H3243 H 0.0393 0.68837 0.06359 0.0
H3244 H 0.03901 0.72109 0.11845 0.0
H3245 H 0.06317 0.75556 0.06792 0.0
H3246 H 0.04606 0.7363 0.06625 0.0
H3247 H 0.06454 0.73835 0.0676 0.0
C3248 C 0.01175 0.69359 0.07874 0.0
C3249 C 0.01812 0.68653 0.06975 0.0
C3250 C 0.02121 0.70771 0.08774 0.0
C3251 C 0.03714 0.71497 0.0878 0.0
C3252 C 0.04347 0.70764 0.07928 0.0
H3253 H 0.11973 0.79077 0.12985 0.0
H3254 H 0.09831 0.76678 0.11677 0.0
C3255 C 0.03406 0.69359 0.07028 0.0
C3256 C 0.04729 0.73029 0.09662 0.0
H3257 H 0.07683 0.76742 0.09246 0.0
C3258 C 0.04712 0.73131 0.11279 0.0
C3259 C 0.05775 0.74362 0.08915 0.0
C3260 C 0.05782 0.74349 0.07176 0.0
C3261 C 0.05777 0.74513 0.12175 0.0
C3262 C 0.06871 0.75814 0.11428 0.0
C3263 C 0.06845 0.75733 0.09811 0.0
C3264 C 0.08128 0.77232 0.12301 0.0
C3265 C 0.05776 0.74557 0.13914 0.0
C3266 C 0.07871 0.78333 0.13082 0.0
C3267 C 0.09096 0.7971 0.13833 0.0
C3268 C 0.1059 0.79996 0.13816 0.0
C3269 C 0.10833 0.78878 0.13041 0.0
C3270 C 0.09614 0.77512 0.12286 0.0
H3271 H 0.04925 0.73404 0.1432 0.0
H3272 H 0.06926 0.74912 0.14422 0.0
H3273 H 0.05509 0.75447 0.14352 0.0
H3274 H 0.0673 0.78137 0.13091 0.0
H3275 H 0.08876 0.80549 0.14426 0.0
H3276 H 0.32915 0.38204 0.01925 0.0
H3277 H 0.30772 0.37734 0.03471 0.0
H3278 H 0.30814 0.33865 0.05393 0.0
H3279 H 0.32922 0.34304 0.0384 0.0
H3280 H 0.27961 0.33081 0.04277 0.0
H3281 H 0.30682 0.38622 0.08107 0.0
H3282 H 0.30802 0.38867 0.06071 0.0
H3283 H 0.31775 0.38024 0.06982 0.0
C3284 C 0.32478 0.37268 0.02694 0.0
C3285 C 0.33084 0.3629 0.0276 0.0
C3286 C 0.31258 0.37004 0.03579 0.0
C3287 C 0.3064 0.3577 0.04554 0.0
C3288 C 0.31271 0.3482 0.04646 0.0
H3289 H 0.24718 0.33715 0.11987 0.0
H3290 H 0.26813 0.34457 0.10297 0.0
C3291 C 0.32478 0.35076 0.03759 0.0
C3292 C 0.29292 0.35405 0.05431 0.0
H3293 H 0.28052 0.36834 0.08328 0.0
C3294 C 0.27977 0.33903 0.05159 0.0
C3295 C 0.29323 0.36477 0.06587 0.0
C3296 C 0.30723 0.38084 0.06969 0.0
C3297 C 0.267 0.33433 0.06029 0.0
C3298 C 0.26727 0.34507 0.0718 0.0
C3299 C 0.28033 0.36017 0.07438 0.0
C3300 C 0.25444 0.34059 0.08186 0.0
C3301 C 0.25357 0.31773 0.05744 0.0
C3302 C 0.2398 0.33594 0.0756 0.0
C3303 C 0.22777 0.33162 0.08524 0.0
C3304 C 0.23025 0.33207 0.10132 0.0
C3305 C 0.24496 0.33682 0.10754 0.0
C3306 C 0.25693 0.34105 0.09791 0.0
H3307 H 0.25664 0.30997 0.05093 0.0
H3308 H 0.24901 0.31266 0.06851 0.0
H3309 H 0.24433 0.31777 0.05052 0.0
H3310 H 0.2377 0.3358 0.06328 0.0
H3311 H 0.21662 0.32823 0.08016 0.0
H3312 H 0.6798 0.66798 0.38789 0.0
H3313 H 0.69632 0.66448 0.40591 0.0
H3314 H 0.73601 0.70297 0.38795 0.0
H3315 H 0.71951 0.70677 0.37009 0.0
H3316 H 0.71704 0.6567 0.39831 0.0
H3317 H 0.74596 0.71351 0.43406 0.0
H3318 H 0.72915 0.70718 0.42145 0.0
H3319 H 0.74764 0.71573 0.41372 0.0
C3320 C 0.69205 0.67585 0.38791 0.0
C3321 C 0.69837 0.68767 0.37758 0.0
C3322 C 0.70147 0.67382 0.39821 0.0
C3323 C 0.71739 0.68356 0.39841 0.0
C3324 C 0.72375 0.69554 0.38826 0.0
H3325 H 0.79441 0.68236 0.43836 0.0
H3326 H 0.77674 0.68743 0.42414 0.0
C3327 C 0.71431 0.69765 0.378 0.0
C3328 C 0.72731 0.68045 0.40847 0.0
H3329 H 0.75661 0.69732 0.43646 0.0
C3330 C 0.72558 0.66553 0.40676 0.0
C3331 C 0.73846 0.69199 0.41949 0.0
C3332 C 0.74034 0.70795 0.42243 0.0
C3333 C 0.73496 0.66197 0.41549 0.0
C3334 C 0.74626 0.67359 0.4263 0.0
C3335 C 0.74791 0.68845 0.42814 0.0
C3336 C 0.75686 0.6707 0.43539 0.0
C3337 C 0.73302 0.64596 0.41277 0.0
C3338 C 0.75152 0.65971 0.44655 0.0
C3339 C 0.76162 0.65687 0.45483 0.0
C3340 C 0.77725 0.66501 0.45211 0.0
C3341 C 0.78251 0.67609 0.44097 0.0
C3342 C 0.77243 0.67895 0.43275 0.0
H3343 H 0.7258 0.63942 0.40204 0.0
H3344 H 0.74429 0.647 0.41197 0.0
H3345 H 0.72748 0.63897 0.42266 0.0
H3346 H 0.73955 0.65337 0.44887 0.0
H3347 H 0.75723 0.6484 0.46345 0.0
H3348 H 0.34709 0.00341 0.42991 0.0
H3349 H 0.35759 0.0286 0.44537 0.0
H3350 H 0.31857 0.03114 0.43029 0.0
H3351 H 0.30814 0.00622 0.41475 0.0
H3352 H 0.34714 0.05791 0.42565 0.0
H3353 H 0.34371 0.04027 0.48582 0.0
H3354 H 0.35269 0.03363 0.47248 0.0
H3355 H 0.33266 0.02636 0.46959 0.0
C3356 C 0.34067 0.00925 0.43009 0.0
C3357 C 0.32684 0.0029 0.42108 0.0
C3358 C 0.34665 0.02359 0.43895 0.0
C3359 C 0.33881 0.03166 0.439 0.0
C3360 C 0.32479 0.02507 0.43039 0.0
H3361 H 0.34027 0.1069 0.49005 0.0
H3362 H 0.33695 0.08198 0.4798 0.0
C3363 C 0.31885 0.01083 0.42152 0.0
C3364 C 0.34552 0.04748 0.44708 0.0
H3365 H 0.35386 0.06716 0.48282 0.0
C3366 C 0.34878 0.06 0.43814 0.0
C3367 C 0.34758 0.05007 0.46337 0.0
C3368 C 0.34391 0.0369 0.47346 0.0
C3369 C 0.35355 0.07497 0.44505 0.0
C3370 C 0.35539 0.07755 0.46136 0.0
C3371 C 0.35257 0.06514 0.47031 0.0
C3372 C 0.35859 0.09257 0.46923 0.0
C3373 C 0.35581 0.08768 0.43484 0.0
C3374 C 0.37208 0.10676 0.46709 0.0
C3375 C 0.37392 0.12106 0.47277 0.0
C3376 C 0.36232 0.12136 0.48074 0.0
C3377 C 0.34925 0.10706 0.48365 0.0
C3378 C 0.34741 0.09281 0.47795 0.0
H3379 H 0.35108 0.08291 0.42279 0.0
H3380 H 0.35029 0.09399 0.43947 0.0
H3381 H 0.3682 0.09633 0.43452 0.0
H3382 H 0.38094 0.10678 0.46059 0.0
H3383 H 0.38411 0.13187 0.47035 0.0
H3384 H 0.01346 0.33081 0.39206 0.0
H3385 H 0.99065 0.31556 0.40619 0.0
H3386 H 0.97922 0.27376 0.37752 0.0
H3387 H 0.00221 0.28886 0.3636 0.0
H3388 H 0.96125 0.30002 0.39454 0.0
H3389 H 0.97411 0.25815 0.42014 0.0
H3390 H 0.98845 0.2755 0.41177 0.0
H3391 H 0.97529 0.25817 0.39957 0.0
C3392 C 0.0062 0.31832 0.38891 0.0
C3393 C 0.00963 0.31101 0.37675 0.0
C3394 C 0.99316 0.30964 0.39697 0.0
C3395 C 0.98332 0.29349 0.39304 0.0
C3396 C 0.98682 0.28613 0.381 0.0
H3397 H 0.89362 0.22367 0.41996 0.0
H3398 H 0.91714 0.23862 0.40669 0.0
C3399 C 0.99992 0.29479 0.37299 0.0
C3400 C 0.96896 0.28458 0.40093 0.0
H3401 H 0.9486 0.25256 0.42139 0.0
C3402 C 0.95854 0.28971 0.4005 0.0
C3403 C 0.96542 0.2711 0.40868 0.0
C3404 C 0.97647 0.26548 0.41022 0.0
C3405 C 0.94459 0.2816 0.40742 0.0
C3406 C 0.94102 0.26807 0.41501 0.0
C3407 C 0.95139 0.26291 0.41546 0.0
C3408 C 0.92665 0.25925 0.4228 0.0
C3409 C 0.93364 0.28738 0.40637 0.0
C3410 C 0.92429 0.26593 0.43625 0.0
C3411 C 0.91097 0.25739 0.44395 0.0
C3412 C 0.89973 0.24199 0.43832 0.0
C3413 C 0.9021 0.23542 0.42471 0.0
C3414 C 0.91548 0.24395 0.41707 0.0
H3415 H 0.93676 0.29611 0.39765 0.0
H3416 H 0.92181 0.27742 0.40337 0.0
H3417 H 0.93376 0.29305 0.41778 0.0
H3418 H 0.9329 0.27765 0.44096 0.0
H3419 H 0.90969 0.26271 0.45456 0.0
H3420 H 0.06225 0.38488 0.34389 0.0
H3421 H 0.05949 0.40492 0.33162 0.0
H3422 H 0.02005 0.36853 0.30396 0.0
H3423 H 0.02253 0.34854 0.31631 0.0
H3424 H 0.05904 0.41142 0.30078 0.0
H3425 H 0.00361 0.3936 0.32532 0.0
H3426 H 0.01592 0.38696 0.33217 0.0
H3427 H 0.00358 0.37756 0.31489 0.0
C3428 C 0.05305 0.38118 0.33513 0.0
C3429 C 0.04251 0.36514 0.33118 0.0
C3430 C 0.05148 0.39263 0.32815 0.0
C3431 C 0.03935 0.38818 0.31716 0.0
C3432 C 0.02925 0.3722 0.31272 0.0
H3433 H 0.0062 0.42841 0.25488 0.0
H3434 H 0.0126 0.41231 0.26975 0.0
C3435 C 0.03074 0.36079 0.31973 0.0
C3436 C 0.03703 0.40014 0.31036 0.0
H3437 H 0.01034 0.41035 0.30458 0.0
C3438 C 0.04849 0.41135 0.30177 0.0
C3439 C 0.0233 0.40008 0.31179 0.0
C3440 C 0.01097 0.38901 0.32167 0.0
C3441 C 0.04626 0.42203 0.29397 0.0
C3442 C 0.03227 0.42148 0.29488 0.0
C3443 C 0.02102 0.41063 0.30385 0.0
C3444 C 0.02871 0.4315 0.28596 0.0
C3445 C 0.05858 0.43347 0.28434 0.0
C3446 C 0.03559 0.44759 0.29028 0.0
C3447 C 0.03179 0.45682 0.28193 0.0
C3448 C 0.02105 0.45009 0.26913 0.0
C3449 C 0.01427 0.43394 0.26485 0.0
C3450 C 0.01801 0.42473 0.27324 0.0
H3451 H 0.06814 0.43132 0.28354 0.0
H3452 H 0.05375 0.43269 0.27249 0.0
H3453 H 0.06321 0.44561 0.28955 0.0
H3454 H 0.04377 0.45295 0.30019 0.0
H3455 H 0.0371 0.46918 0.28564 0.0
H3456 H 0.62983 0.65323 0.32187 0.0
H3457 H 0.61467 0.62951 0.30449 0.0
H3458 H 0.65546 0.62952 0.29381 0.0
H3459 H 0.67079 0.65331 0.31133 0.0
H3460 H 0.6169 0.62282 0.27215 0.0
H3461 H 0.6271 0.58632 0.31134 0.0
H3462 H 0.63101 0.60566 0.31767 0.0
H3463 H 0.64357 0.60351 0.30519 0.0
C3464 C 0.63561 0.64828 0.31573 0.0
C3465 C 0.65147 0.65503 0.31807 0.0
C3466 C 0.62694 0.63476 0.30577 0.0
C3467 C 0.63394 0.6277 0.29803 0.0
C3468 C 0.64985 0.63472 0.29985 0.0
H3469 H 0.57691 0.54121 0.23618 0.0
H3470 H 0.59937 0.56641 0.24636 0.0
C3471 C 0.65857 0.64831 0.30981 0.0
C3472 C 0.6243 0.61252 0.28878 0.0
H3473 H 0.60957 0.57314 0.28995 0.0
C3474 C 0.61549 0.61197 0.27583 0.0
C3475 C 0.62246 0.59842 0.29374 0.0
C3476 C 0.63143 0.59836 0.30779 0.0
C3477 C 0.60446 0.59759 0.26801 0.0
C3478 C 0.60224 0.58349 0.27334 0.0
C3479 C 0.61144 0.58405 0.2859 0.0
C3480 C 0.58917 0.5681 0.26726 0.0
C3481 C 0.59466 0.59742 0.25464 0.0
C3482 C 0.5762 0.56076 0.27578 0.0
C3483 C 0.56344 0.54652 0.27003 0.0
C3484 C 0.56347 0.5393 0.25568 0.0
C3485 C 0.57663 0.5465 0.2473 0.0
C3486 C 0.5894 0.56087 0.25304 0.0
H3487 H 0.59764 0.60943 0.2521 0.0
H3488 H 0.59601 0.5915 0.24414 0.0
H3489 H 0.58245 0.5906 0.25723 0.0
H3490 H 0.57589 0.5662 0.28681 0.0
H3491 H 0.55354 0.54113 0.27683 0.0
H3492 H 0.3345 0.94236 0.37363 0.0
H3493 H 0.35316 0.9423 0.35658 0.0
H3494 H 0.36233 0.9862 0.34028 0.0
H3495 H 0.34369 0.98625 0.35702 0.0
H3496 H 0.35871 0.96431 0.31665 0.0
H3497 H 0.39977 0.97106 0.36411 0.0
H3498 H 0.38061 0.95464 0.36461 0.0
H3499 H 0.38426 0.97427 0.36738 0.0
C3500 C 0.34047 0.95195 0.36637 0.0
C3501 C 0.33769 0.96435 0.36673 0.0
C3502 C 0.35117 0.95195 0.35671 0.0
C3503 C 0.35927 0.96436 0.34734 0.0
C3504 C 0.35624 0.97654 0.34746 0.0
H3505 H 0.44366 0.9992 0.3036 0.0
H3506 H 0.42281 0.99401 0.32001 0.0
C3507 C 0.34559 0.97655 0.35706 0.0
C3508 C 0.37103 0.96492 0.33742 0.0
H3509 H 0.40632 0.96925 0.33859 0.0
C3510 C 0.36907 0.96527 0.32141 0.0
C3511 C 0.38461 0.96637 0.34372 0.0
C3512 C 0.38758 0.9667 0.3609 0.0
C3513 C 0.38042 0.96724 0.31153 0.0
C3514 C 0.39398 0.96862 0.31782 0.0
C3515 C 0.39586 0.96808 0.33381 0.0
C3516 C 0.40665 0.97141 0.30809 0.0
C3517 C 0.37804 0.9684 0.29454 0.0
C3518 C 0.40452 0.96033 0.29609 0.0
C3519 C 0.41637 0.96333 0.2866 0.0
C3520 C 0.43061 0.97743 0.28901 0.0
C3521 C 0.43278 0.98835 0.30127 0.0
C3522 C 0.42091 0.98534 0.31074 0.0
H3523 H 0.36873 0.97074 0.29219 0.0
H3524 H 0.38867 0.97786 0.29003 0.0
H3525 H 0.3749 0.95713 0.28804 0.0
H3526 H 0.39367 0.94939 0.29401 0.0
H3527 H 0.41427 0.95472 0.27719 0.0
H3528 H 0.6473 0.99749 0.34211 0.0
H3529 H 0.62868 0.99733 0.32391 0.0
H3530 H 0.59672 0.94876 0.33086 0.0
H3531 H 0.61519 0.94903 0.34965 0.0
H3532 H 0.61504 0.9813 0.29717 0.0
H3533 H 0.57118 0.96764 0.33959 0.0
H3534 H 0.59028 0.97253 0.34526 0.0
H3535 H 0.57635 0.95306 0.33708 0.0
C3536 C 0.63632 0.98674 0.33977 0.0
C3537 C 0.63265 0.9733 0.34742 0.0
C3538 C 0.62568 0.98667 0.32933 0.0
C3539 C 0.61118 0.97312 0.3262 0.0
C3540 C 0.60768 0.95947 0.33339 0.0
H3541 H 0.55056 0.96989 0.25027 0.0
H3542 H 0.56763 0.96501 0.26591 0.0
C3543 C 0.61827 0.95961 0.34404 0.0
C3544 C 0.5998 0.97358 0.31562 0.0
H3545 H 0.56454 0.96934 0.31385 0.0
C3546 C 0.60397 0.97864 0.30079 0.0
C3547 C 0.58542 0.97029 0.32042 0.0
C3548 C 0.58056 0.96572 0.3365 0.0
C3549 C 0.59433 0.98079 0.29076 0.0
C3550 C 0.57988 0.97729 0.2955 0.0
C3551 C 0.57558 0.97193 0.31019 0.0
C3552 C 0.56939 0.98001 0.28585 0.0
C3553 C 0.60003 0.98741 0.27549 0.0
C3554 C 0.56429 0.98967 0.29197 0.0
C3555 C 0.55421 0.99214 0.28322 0.0
C3556 C 0.54907 0.98513 0.26804 0.0
C3557 C 0.5542 0.97544 0.26192 0.0
C3558 C 0.56415 0.9728 0.27078 0.0
H3559 H 0.61266 0.9934 0.27549 0.0
H3560 H 0.59505 0.97769 0.26619 0.0
H3561 H 0.5966 0.99592 0.27269 0.0
H3562 H 0.56808 0.99528 0.3036 0.0
H3563 H 0.55023 0.99933 0.28853 0.0
H3564 H 0.03628 0.6667 0.31764 0.0
H3565 H 0.03074 0.64525 0.29861 0.0
H3566 H 0.99383 0.6482 0.27747 0.0
H3567 H 0.99918 0.66963 0.29677 0.0
H3568 H 0.98523 0.61827 0.28284 0.0
H3569 H 0.03906 0.6451 0.25339 0.0
H3570 H 0.04271 0.64688 0.27395 0.0
H3571 H 0.03383 0.65659 0.26561 0.0
C3572 C 0.02709 0.66293 0.30885 0.0
C3573 C 0.01816 0.66984 0.30868 0.0
C3574 C 0.02401 0.65074 0.29789 0.0
C3575 C 0.01206 0.64533 0.28644 0.0
C3576 C 0.0032 0.65231 0.28613 0.0
H3577 H 0.00387 0.57124 0.22013 0.0
H3578 H 0.00484 0.59525 0.22998 0.0
C3579 C 0.00626 0.66453 0.29715 0.0
C3580 C 0.00821 0.63157 0.27567 0.0
H3581 H 0.02445 0.61666 0.25206 0.0
C3582 C 0.9937 0.61799 0.27586 0.0
C3583 C 0.01913 0.6313 0.26631 0.0
C3584 C 0.03449 0.64582 0.26466 0.0
C3585 C 0.99019 0.60384 0.26779 0.0
C3586 C 0.00163 0.60322 0.25962 0.0
C3587 C 0.01576 0.61707 0.25853 0.0
C3588 C 0.99967 0.58817 0.25322 0.0
C3589 C 0.97437 0.58965 0.26833 0.0
C3590 C 0.99649 0.57627 0.26303 0.0
C3591 C 0.99592 0.56259 0.25745 0.0
C3592 C 0.99872 0.56063 0.24199 0.0
C3593 C 0.00177 0.5725 0.23213 0.0
C3594 C 0.00226 0.58616 0.23771 0.0
H3595 H 0.96582 0.59316 0.27003 0.0
H3596 H 0.97092 0.58173 0.25756 0.0
H3597 H 0.97417 0.58302 0.27824 0.0
H3598 H 0.99493 0.57776 0.27515 0.0
H3599 H 0.99382 0.55379 0.26538 0.0
H3600 H 0.33432 0.38177 0.35772 0.0
H3601 H 0.35596 0.39724 0.3421 0.0
H3602 H 0.35261 0.35471 0.32292 0.0
H3603 H 0.33085 0.3392 0.33818 0.0
H3604 H 0.38349 0.399 0.34321 0.0
H3605 H 0.35496 0.37672 0.28445 0.0
H3606 H 0.34443 0.37339 0.30155 0.0
H3607 H 0.35209 0.36129 0.29616 0.0
C3608 C 0.33809 0.37572 0.35002 0.0
C3609 C 0.33088 0.35928 0.34912 0.0
C3610 C 0.35045 0.38457 0.34114 0.0
C3611 C 0.35574 0.3771 0.33119 0.0
C3612 C 0.34849 0.36068 0.33023 0.0
H3613 H 0.43326 0.40546 0.27605 0.0
H3614 H 0.41116 0.39152 0.29158 0.0
C3615 C 0.3361 0.35184 0.33903 0.0
C3616 C 0.36937 0.38648 0.32244 0.0
H3617 H 0.38225 0.39106 0.28615 0.0
C3618 C 0.3832 0.39739 0.33072 0.0
C3619 C 0.36894 0.38433 0.30614 0.0
C3620 C 0.35427 0.37341 0.29654 0.0
C3621 C 0.39671 0.40592 0.32317 0.0
C3622 C 0.39631 0.4035 0.30694 0.0
C3623 C 0.38248 0.39275 0.29863 0.0
C3624 C 0.41013 0.41211 0.29831 0.0
C3625 C 0.41139 0.41718 0.33258 0.0
C3626 C 0.41681 0.42827 0.29705 0.0
C3627 C 0.42938 0.43623 0.28819 0.0
C3628 C 0.43548 0.42815 0.28049 0.0
C3629 C 0.42891 0.412 0.28201 0.0
C3630 C 0.41626 0.40403 0.29078 0.0
H3631 H 0.41032 0.41555 0.34514 0.0
H3632 H 0.42081 0.41567 0.32873 0.0
H3633 H 0.41456 0.4294 0.33086 0.0
H3634 H 0.41211 0.43465 0.30267 0.0
H3635 H 0.43429 0.4487 0.2873 0.0
H3636 H 0.32403 0.32619 0.40985 0.0
H3637 H 0.32952 0.3081 0.42206 0.0
H3638 H 0.28806 0.26876 0.39996 0.0
H3639 H 0.28258 0.28689 0.3874 0.0
H3640 H 0.31317 0.28493 0.44173 0.0
H3641 H 0.32098 0.25986 0.3864 0.0
H3642 H 0.32005 0.27744 0.38766 0.0
H3643 H 0.3029 0.25851 0.38769 0.0
C3644 C 0.316 0.3137 0.40764 0.0
C3645 C 0.30292 0.30796 0.39755 0.0
C3646 C 0.31916 0.30337 0.41464 0.0
C3647 C 0.30935 0.2871 0.4117 0.0
C3648 C 0.29594 0.28129 0.40213 0.0
H3649 H 0.32003 0.21203 0.44464 0.0
H3650 H 0.31038 0.22685 0.43201 0.0
C3651 C 0.29277 0.29165 0.39507 0.0
C3652 C 0.31349 0.27642 0.4185 0.0
H3653 H 0.32411 0.24986 0.40928 0.0
C3654 C 0.31549 0.2772 0.43465 0.0
C3655 C 0.31654 0.26638 0.40919 0.0
C3656 C 0.31515 0.26552 0.39177 0.0
C3657 C 0.32059 0.26831 0.44176 0.0
C3658 C 0.32394 0.25854 0.43245 0.0
C3659 C 0.32158 0.25743 0.41633 0.0
C3660 C 0.33016 0.2496 0.43931 0.0
C3661 C 0.32235 0.26942 0.45918 0.0
C3662 C 0.34464 0.25752 0.44721 0.0
C3663 C 0.35019 0.24911 0.4544 0.0
C3664 C 0.34132 0.23264 0.45382 0.0
C3665 C 0.32703 0.22473 0.44543 0.0
C3666 C 0.32153 0.23315 0.43818 0.0
H3667 H 0.31596 0.27444 0.46461 0.0
H3668 H 0.31829 0.25768 0.46341 0.0
H3669 H 0.3346 0.27717 0.46302 0.0
H3670 H 0.35155 0.27023 0.448 0.0
H3671 H 0.36118 0.25553 0.46087 0.0
H3672 H 0.66139 0.01585 0.40765 0.0
H3673 H 0.67671 0.04175 0.42208 0.0
H3674 H 0.71682 0.03836 0.41945 0.0
H3675 H 0.70179 0.01286 0.40483 0.0
H3676 H 0.69593 0.05329 0.44959 0.0
H3677 H 0.72844 0.0783 0.39836 0.0
H3678 H 0.711 0.05936 0.39726 0.0
H3679 H 0.72886 0.06138 0.40352 0.0
C3680 C 0.67344 0.02058 0.41034 0.0
C3681 C 0.68046 0.01248 0.40493 0.0
C3682 C 0.68216 0.03535 0.41855 0.0
C3683 C 0.69795 0.04211 0.42147 0.0
C3684 C 0.70472 0.03353 0.41696 0.0
H3685 H 0.76712 0.11638 0.48219 0.0
H3686 H 0.74474 0.09229 0.47078 0.0
C3687 C 0.6961 0.01893 0.40866 0.0
C3688 C 0.70767 0.05839 0.42856 0.0
H3689 H 0.73963 0.09325 0.42264 0.0
C3690 C 0.70538 0.06213 0.44366 0.0
C3691 C 0.71972 0.07003 0.42065 0.0
C3692 C 0.72207 0.06713 0.40399 0.0
C3693 C 0.7154 0.07698 0.45138 0.0
C3694 C 0.7282 0.08817 0.44389 0.0
C3695 C 0.72994 0.08466 0.42849 0.0
C3696 C 0.74053 0.10319 0.45194 0.0
C3697 C 0.71217 0.08046 0.46748 0.0
C3698 C 0.74581 0.11738 0.44509 0.0
C3699 C 0.75895 0.13112 0.45131 0.0
C3700 C 0.76706 0.13098 0.46458 0.0
C3701 C 0.76133 0.11689 0.47181 0.0
C3702 C 0.74831 0.10312 0.46546 0.0
H3703 H 0.69973 0.07361 0.46915 0.0
H3704 H 0.71791 0.07698 0.47601 0.0
H3705 H 0.71641 0.09314 0.46994 0.0
H3706 H 0.74006 0.11771 0.43458 0.0
H3707 H 0.76309 0.14166 0.4453 0.0
H3708 H 0.99837 0.71997 0.35876 0.0
H3709 H 0.97703 0.71565 0.37421 0.0
H3710 H 0.97134 0.67187 0.38691 0.0
H3711 H 0.99266 0.67619 0.37185 0.0
H3712 H 0.94694 0.69083 0.3706 0.0
H3713 H 0.97234 0.69307 0.42853 0.0
H3714 H 0.98362 0.70008 0.41199 0.0
H3715 H 0.9731 0.67944 0.41479 0.0
C3716 C 0.99267 0.70953 0.365 0.0
C3717 C 0.99725 0.69847 0.36415 0.0
C3718 C 0.98048 0.70706 0.37378 0.0
C3719 C 0.97277 0.69356 0.38191 0.0
C3720 C 0.97735 0.68254 0.38105 0.0
H3721 H 0.89245 0.64606 0.43307 0.0
H3722 H 0.91452 0.65369 0.4176 0.0
C3723 C 0.9895 0.685 0.37234 0.0
C3724 C 0.95949 0.6905 0.39075 0.0
H3725 H 0.94523 0.68161 0.42628 0.0
C3726 C 0.94662 0.68901 0.38282 0.0
C3727 C 0.95911 0.68813 0.40669 0.0
C3728 C 0.97284 0.69042 0.41604 0.0
C3729 C 0.93319 0.68466 0.3903 0.0
C3730 C 0.93269 0.68184 0.4061 0.0
C3731 C 0.94564 0.68364 0.41411 0.0
C3732 C 0.91884 0.67698 0.41459 0.0
C3733 C 0.91946 0.68264 0.3812 0.0
C3734 C 0.91399 0.68755 0.41793 0.0
C3735 C 0.90144 0.68324 0.42677 0.0
C3736 C 0.89352 0.66827 0.43239 0.0
C3737 C 0.89824 0.6576 0.42876 0.0
C3738 C 0.91086 0.66197 0.42001 0.0
H3739 H 0.92081 0.68258 0.36855 0.0
H3740 H 0.909 0.67152 0.38362 0.0
H3741 H 0.91779 0.69247 0.38475 0.0
H3742 H 0.92011 0.69924 0.41397 0.0
H3743 H 0.89798 0.69166 0.4293 0.0
H3744 H 0.35436 0.00821 0.72269 0.0
H3745 H 0.37248 0.00814 0.74149 0.0
H3746 H 0.40973 0.04685 0.7209 0.0
H3747 H 0.39158 0.0472 0.70219 0.0
H3748 H 0.3951 0.00263 0.73499 0.0
H3749 H 0.41978 0.06135 0.7666 0.0
H3750 H 0.40251 0.05255 0.75412 0.0
H3751 H 0.42084 0.0619 0.74603 0.0
C3752 C 0.36639 0.01685 0.72226 0.0
C3753 C 0.37155 0.02772 0.71095 0.0
C3754 C 0.37673 0.01678 0.73302 0.0
C3755 C 0.39244 0.02759 0.73272 0.0
C3756 C 0.39763 0.03862 0.72157 0.0
H3757 H 0.47326 0.03699 0.77777 0.0
H3758 H 0.45472 0.03975 0.76216 0.0
C3759 C 0.38726 0.03875 0.71083 0.0
C3760 C 0.40337 0.02656 0.74343 0.0
H3761 H 0.43231 0.04734 0.77142 0.0
C3762 C 0.40315 0.01237 0.74304 0.0
C3763 C 0.41389 0.03929 0.7539 0.0
C3764 C 0.41422 0.05459 0.75533 0.0
C3765 C 0.41334 0.01064 0.75262 0.0
C3766 C 0.42392 0.02339 0.76301 0.0
C3767 C 0.42415 0.03759 0.76344 0.0
C3768 C 0.4351 0.0223 0.77321 0.0
C3769 C 0.41298 0.99532 0.75129 0.0
C3770 C 0.43021 0.01179 0.78481 0.0
C3771 C 0.44079 0.01025 0.79386 0.0
C3772 C 0.45647 0.01926 0.7915 0.0
C3773 C 0.46132 0.03004 0.78008 0.0
C3774 C 0.45074 0.03158 0.77107 0.0
H3775 H 0.4065 0.98797 0.74054 0.0
H3776 H 0.42473 0.99745 0.75144 0.0
H3777 H 0.40738 0.98857 0.76129 0.0
H3778 H 0.41819 0.00469 0.78678 0.0
H3779 H 0.4367 0.002 0.80269 0.0
H3780 H 0.00478 0.33241 0.7603 0.0
H3781 H 0.00934 0.35337 0.77985 0.0
H3782 H 0.96967 0.35267 0.76083 0.0
H3783 H 0.96498 0.33176 0.74149 0.0
H3784 H 0.01489 0.38283 0.77399 0.0
H3785 H 0.96345 0.352 0.80692 0.0
H3786 H 0.96966 0.34167 0.79432 0.0
H3787 H 0.95862 0.34935 0.78652 0.0
C3788 C 0.99694 0.33661 0.76044 0.0
C3789 C 0.98452 0.33046 0.74939 0.0
C3790 C 0.99955 0.34855 0.7716 0.0
C3791 C 0.98968 0.35435 0.77195 0.0
C3792 C 0.9772 0.34808 0.76101 0.0
H3793 H 0.98165 0.43095 0.79786 0.0
H3794 H 0.98056 0.40689 0.78846 0.0
C3795 C 0.97461 0.33622 0.74988 0.0
C3796 C 0.99293 0.36782 0.78282 0.0
H3797 H 0.97566 0.38034 0.80784 0.0
C3798 C 0.00651 0.38224 0.78171 0.0
C3799 C 0.98201 0.36696 0.79293 0.0
C3800 C 0.9677 0.35161 0.79538 0.0
C3801 C 0.00891 0.39608 0.78957 0.0
C3802 C 0.99747 0.39536 0.79877 0.0
C3803 C 0.98435 0.38081 0.80066 0.0
C3804 C 0.99811 0.40973 0.80505 0.0
C3805 C 0.02318 0.41152 0.78724 0.0
C3806 C 0.0083 0.4192 0.81756 0.0
C3807 C 0.00886 0.43293 0.82309 0.0
C3808 C 0.99923 0.43736 0.81616 0.0
C3809 C 0.98902 0.42775 0.80364 0.0
C3810 C 0.98843 0.41404 0.7982 0.0
H3811 H 0.03049 0.41017 0.77887 0.0
H3812 H 0.0201 0.41989 0.78303 0.0
H3813 H 0.02993 0.41674 0.79846 0.0
H3814 H 0.01577 0.41594 0.82304 0.0
H3815 H 0.01671 0.43998 0.83287 0.0
H3816 H 0.67361 0.66064 0.72309 0.0
H3817 H 0.65199 0.64456 0.73833 0.0
H3818 H 0.64681 0.60254 0.71526 0.0
H3819 H 0.66835 0.61858 0.69976 0.0
H3820 H 0.61975 0.60221 0.71582 0.0
H3821 H 0.64924 0.61894 0.77435 0.0
H3822 H 0.65278 0.63551 0.7641 0.0
H3823 H 0.6594 0.62297 0.75693 0.0
C3824 C 0.66799 0.64797 0.72138 0.0
C3825 C 0.67267 0.64086 0.71024 0.0
C3826 C 0.65568 0.6388 0.73016 0.0
C3827 C 0.64793 0.62236 0.72807 0.0
C3828 C 0.6527 0.61522 0.71709 0.0
H3829 H 0.57923 0.56033 0.78806 0.0
H3830 H 0.60163 0.57377 0.77299 0.0
C3831 C 0.66501 0.62439 0.70827 0.0
C3832 C 0.63431 0.61269 0.73672 0.0
H3833 H 0.62201 0.60557 0.77314 0.0
C3834 C 0.62025 0.60283 0.72835 0.0
C3835 C 0.63504 0.61342 0.75306 0.0
C3836 C 0.64995 0.62316 0.76265 0.0
C3837 C 0.60679 0.59398 0.73589 0.0
C3838 C 0.60741 0.59524 0.75224 0.0
C3839 C 0.62154 0.60477 0.76061 0.0
C3840 C 0.59355 0.58674 0.76091 0.0
C3841 C 0.59207 0.58326 0.7263 0.0
C3842 C 0.58161 0.58964 0.75916 0.0
C3843 C 0.56871 0.58186 0.76766 0.0
C3844 C 0.56757 0.57111 0.77813 0.0
C3845 C 0.57961 0.56831 0.77988 0.0
C3846 C 0.59248 0.57607 0.77138 0.0
H3847 H 0.59418 0.58039 0.71444 0.0
H3848 H 0.58494 0.57214 0.73179 0.0
H3849 H 0.5855 0.58921 0.72529 0.0
H3850 H 0.58234 0.59806 0.75136 0.0
H3851 H 0.55961 0.58424 0.76599 0.0
H3852 H 0.68091 0.67585 0.64795 0.0
H3853 H 0.67477 0.69393 0.63671 0.0
H3854 H 0.71127 0.73255 0.66555 0.0
H3855 H 0.71774 0.7145 0.67664 0.0
H3856 H 0.66526 0.71109 0.65291 0.0
H3857 H 0.71773 0.75059 0.62368 0.0
H3858 H 0.71384 0.73204 0.63008 0.0
H3859 H 0.72089 0.74889 0.64374 0.0
C3860 C 0.68781 0.68823 0.65173 0.0
C3861 C 0.6998 0.69376 0.66319 0.0
C3862 C 0.68427 0.69855 0.64531 0.0
C3863 C 0.6926 0.7146 0.65023 0.0
C3864 C 0.70487 0.72026 0.66137 0.0
H3865 H 0.67456 0.78811 0.62701 0.0
H3866 H 0.68411 0.77333 0.63989 0.0
C3867 C 0.70852 0.70993 0.66773 0.0
C3868 C 0.68761 0.72504 0.64443 0.0
H3869 H 0.69868 0.75725 0.62423 0.0
C3870 C 0.67259 0.72119 0.64665 0.0
C3871 C 0.69722 0.73827 0.63636 0.0
C3872 C 0.71328 0.74266 0.63318 0.0
C3873 C 0.66684 0.73008 0.64085 0.0
C3874 C 0.67633 0.7431 0.63255 0.0
C3875 C 0.69147 0.74724 0.63065 0.0
C3876 C 0.67042 0.752 0.62501 0.0
C3877 C 0.65062 0.72546 0.64358 0.0
C3878 C 0.65963 0.74486 0.61238 0.0
C3879 C 0.65427 0.75327 0.60491 0.0
C3880 C 0.65957 0.769 0.60997 0.0
C3881 C 0.67033 0.77607 0.62274 0.0
C3882 C 0.67577 0.76765 0.63015 0.0
H3883 H 0.64598 0.71744 0.65299 0.0
H3884 H 0.64991 0.73601 0.64657 0.0
H3885 H 0.64329 0.71932 0.63284 0.0
H3886 H 0.65555 0.73284 0.60813 0.0
H3887 H 0.64629 0.74756 0.5949 0.0
H3888 H 0.34151 0.98636 0.64731 0.0
H3889 H 0.32597 0.96094 0.63213 0.0
H3890 H 0.28503 0.96015 0.64383 0.0
H3891 H 0.30033 0.9853 0.65899 0.0
H3892 H 0.28612 0.93269 0.65015 0.0
H3893 H 0.29983 0.94984 0.59006 0.0
H3894 H 0.31546 0.95658 0.60437 0.0
H3895 H 0.30281 0.96389 0.60587 0.0
C3896 C 0.3292 0.98083 0.64646 0.0
C3897 C 0.32212 0.98778 0.65437 0.0
C3898 C 0.32037 0.96636 0.63777 0.0
C3899 C 0.30438 0.95874 0.63685 0.0
C3900 C 0.29736 0.96587 0.64442 0.0
H3901 H 0.22703 0.88553 0.58513 0.0
H3902 H 0.24972 0.90989 0.59586 0.0
C3903 C 0.30613 0.98025 0.65307 0.0
C3904 C 0.2947 0.94291 0.6288 0.0
H3905 H 0.28159 0.92334 0.59302 0.0
C3906 C 0.28525 0.93055 0.63767 0.0
C3907 C 0.29363 0.94027 0.61254 0.0
C3908 C 0.30338 0.95331 0.60255 0.0
C3909 C 0.2743 0.91571 0.63069 0.0
C3910 C 0.27295 0.91313 0.61438 0.0
C3911 C 0.28276 0.92536 0.60552 0.0
C3912 C 0.2603 0.8984 0.60639 0.0
C3913 C 0.26371 0.90319 0.64078 0.0
C3914 C 0.25894 0.88389 0.60841 0.0
C3915 C 0.24588 0.86991 0.60244 0.0
C3916 C 0.23401 0.87026 0.59431 0.0
C3917 C 0.23583 0.88487 0.59162 0.0
C3918 C 0.24885 0.8988 0.5976 0.0
H3919 H 0.2645 0.90799 0.65285 0.0
H3920 H 0.25168 0.89747 0.63604 0.0
H3921 H 0.26674 0.89403 0.64107 0.0
H3922 H 0.26776 0.88336 0.61501 0.0
H3923 H 0.2448 0.85884 0.6047 0.0
H3924 H 0.00743 0.32212 0.68245 0.0
H3925 H 0.02975 0.32782 0.66836 0.0
H3926 H 0.03179 0.29084 0.68957 0.0
H3927 H 0.00916 0.2848 0.70347 0.0
H3928 H 0.05806 0.33768 0.68117 0.0
H3929 H 0.03629 0.28198 0.64451 0.0
H3930 H 0.0238 0.28674 0.65443 0.0
H3931 H 0.03405 0.27953 0.66478 0.0
C3932 C 0.01249 0.31504 0.68396 0.0
C3933 C 0.00654 0.303 0.69406 0.0
C3934 C 0.02526 0.31834 0.67592 0.0
C3935 C 0.03237 0.30968 0.67781 0.0
C3936 C 0.02631 0.29746 0.68769 0.0
H3937 H 0.1165 0.32161 0.64359 0.0
H3938 H 0.09399 0.3141 0.65823 0.0
C3939 C 0.01341 0.29406 0.69567 0.0
C3940 C 0.04663 0.31417 0.67013 0.0
H3941 H 0.06281 0.30071 0.6446 0.0
C3942 C 0.05908 0.3296 0.67315 0.0
C3943 C 0.04795 0.30359 0.65971 0.0
C3944 C 0.03478 0.28708 0.65553 0.0
C3945 C 0.07282 0.33475 0.66604 0.0
C3946 C 0.07408 0.32422 0.65556 0.0
C3947 C 0.06176 0.30873 0.65269 0.0
C3948 C 0.08798 0.3292 0.64711 0.0
C3949 C 0.08592 0.35138 0.66985 0.0
C3950 C 0.092 0.34016 0.63603 0.0
C3951 C 0.10476 0.34438 0.62755 0.0
C3952 C 0.11372 0.33768 0.63 0.0
C3953 C 0.10974 0.32685 0.64129 0.0
C3954 C 0.09693 0.32259 0.64971 0.0
H3955 H 0.08433 0.35683 0.68058 0.0
H3956 H 0.09689 0.35174 0.67126 0.0
H3957 H 0.08672 0.35857 0.66021 0.0
H3958 H 0.08507 0.34521 0.63371 0.0
H3959 H 0.10731 0.35252 0.61875 0.0
H3960 H 0.32088 0.33506 0.67291 0.0
H3961 H 0.30325 0.33711 0.65519 0.0
H3962 H 0.26626 0.29271 0.66774 0.0
H3963 H 0.28386 0.29071 0.68585 0.0
H3964 H 0.28501 0.31808 0.62993 0.0
H3965 H 0.25004 0.32187 0.67578 0.0
H3966 H 0.26822 0.32367 0.6801 0.0
H3967 H 0.25144 0.30466 0.67527 0.0
C3968 C 0.309 0.32568 0.6719 0.0
C3969 C 0.30374 0.31277 0.68088 0.0
C3970 C 0.29895 0.32687 0.66173 0.0
C3971 C 0.2834 0.3152 0.66032 0.0
C3972 C 0.27816 0.30202 0.6689 0.0
H3973 H 0.20816 0.3124 0.60783 0.0
H3974 H 0.22405 0.30521 0.62247 0.0
C3975 C 0.28823 0.30084 0.67916 0.0
C3976 C 0.2728 0.31712 0.65002 0.0
H3977 H 0.24226 0.32206 0.65002 0.0
C3978 C 0.27562 0.31889 0.6343 0.0
C3979 C 0.26059 0.31823 0.65577 0.0
C3980 C 0.25742 0.31715 0.67267 0.0
C3981 C 0.26659 0.32178 0.62419 0.0
C3982 C 0.25454 0.32309 0.63 0.0
C3983 C 0.25151 0.32102 0.64562 0.0
C3984 C 0.24517 0.32707 0.62019 0.0
C3985 C 0.26998 0.32337 0.60738 0.0
C3986 C 0.25181 0.34175 0.61405 0.0
C3987 C 0.24277 0.34589 0.60564 0.0
C3988 C 0.22693 0.3354 0.60322 0.0
C3989 C 0.22037 0.32063 0.60924 0.0
C3990 C 0.2294 0.31654 0.6177 0.0
H3991 H 0.27695 0.31824 0.60401 0.0
H3992 H 0.25925 0.31755 0.59982 0.0
H3993 H 0.27648 0.33601 0.60528 0.0
H3994 H 0.26394 0.35016 0.61607 0.0
H3995 H 0.24815 0.35734 0.60114 0.0
H3996 H 0.65494 0.99535 0.63416 0.0
H3997 H 0.64441 0.96984 0.6193 0.0
H3998 H 0.68779 0.973 0.62574 0.0
H3999 H 0.69817 0.99812 0.64096 0.0
H4000 H 0.65166 0.95901 0.59317 0.0
H4001 H 0.6592 0.93232 0.64423 0.0
H4002 H 0.66135 0.95146 0.64559 0.0
H4003 H 0.67682 0.94915 0.63972 0.0
C4004 C 0.66225 0.99064 0.63226 0.0
C4005 C 0.67729 0.99856 0.6389 0.0
C4006 C 0.65623 0.97609 0.62379 0.0
C4007 C 0.66521 0.96935 0.62178 0.0
C4008 C 0.68053 0.97777 0.62755 0.0
H4009 H 0.654 0.89354 0.56009 0.0
H4010 H 0.65812 0.91835 0.57157 0.0
C4011 C 0.68647 0.99216 0.63617 0.0
C4012 C 0.65852 0.95326 0.61426 0.0
H4013 H 0.65442 0.91779 0.61982 0.0
C4014 C 0.6521 0.94992 0.59902 0.0
C4015 C 0.65871 0.94128 0.62205 0.0
C4016 C 0.66423 0.94367 0.63886 0.0
C4017 C 0.6465 0.93509 0.59112 0.0
C4018 C 0.64774 0.92349 0.59857 0.0
C4019 C 0.65358 0.92669 0.61402 0.0
C4020 C 0.64373 0.90819 0.59053 0.0
C4021 C 0.63924 0.93202 0.57496 0.0
C4022 C 0.63442 0.89417 0.59741 0.0
C4023 C 0.63248 0.88001 0.59118 0.0
C4024 C 0.63973 0.87952 0.57782 0.0
C4025 C 0.64846 0.89348 0.57054 0.0
C4026 C 0.65059 0.90768 0.57693 0.0
H4027 H 0.63421 0.93941 0.5732 0.0
H4028 H 0.64811 0.9351 0.56653 0.0
H4029 H 0.63016 0.9195 0.5724 0.0
H4030 H 0.62906 0.89426 0.60796 0.0
H4031 H 0.62585 0.8696 0.59726 0.0
H4032 H 0.99942 0.71209 0.69273 0.0
H4033 H 0.02214 0.72693 0.6783 0.0
H4034 H 0.01608 0.68357 0.65778 0.0
H4035 H 0.99322 0.66868 0.6719 0.0
H4036 H 0.0485 0.72613 0.68014 0.0
H4037 H 0.02191 0.70811 0.62028 0.0
H4038 H 0.01086 0.70486 0.63697 0.0
H4039 H 0.01746 0.69185 0.63146 0.0
C4040 C 0.00283 0.70573 0.68501 0.0
C4041 C 0.99452 0.68923 0.6834 0.0
C4042 C 0.01582 0.71422 0.6768 0.0
C4043 C 0.02068 0.70635 0.66682 0.0
C4044 C 0.01234 0.68988 0.66515 0.0
H4045 H 0.09948 0.73577 0.61242 0.0
H4046 H 0.07689 0.72092 0.62709 0.0
C4047 C 0.99933 0.68139 0.67329 0.0
C4048 C 0.03487 0.71536 0.65873 0.0
H4049 H 0.04904 0.72161 0.623 0.0
C4050 C 0.04861 0.72523 0.66764 0.0
C4051 C 0.03498 0.71411 0.64243 0.0
C4052 C 0.0205 0.70428 0.6322 0.0
C4053 C 0.0625 0.73371 0.66069 0.0
C4054 C 0.06261 0.73237 0.64442 0.0
C4055 C 0.0489 0.72251 0.6355 0.0
C4056 C 0.07678 0.74141 0.63637 0.0
C4057 C 0.07701 0.74384 0.6708 0.0
C4058 C 0.08416 0.75782 0.63681 0.0
C4059 C 0.09703 0.7663 0.62848 0.0
C4060 C 0.10273 0.75851 0.61955 0.0
C4061 C 0.09546 0.74209 0.61935 0.0
C4062 C 0.08252 0.7336 0.62763 0.0
H4063 H 0.07552 0.74085 0.68302 0.0
H4064 H 0.08645 0.74259 0.66649 0.0
H4065 H 0.08042 0.75633 0.67052 0.0
H4066 H 0.07978 0.76403 0.64335 0.0
H4067 H 0.10246 0.77896 0.62891 0.0
H4068 H 0.93821 0.61684 0.71922 0.0
H4069 H 0.93947 0.59655 0.73274 0.0
H4070 H 0.98274 0.63192 0.75557 0.0
H4071 H 0.98146 0.65217 0.74241 0.0
H4072 H 0.96169 0.58878 0.73097 0.0
H4073 H 0.95944 0.60789 0.79138 0.0
H4074 H 0.95419 0.61491 0.775 0.0
H4075 H 0.97395 0.62355 0.78146 0.0
C4076 C 0.94787 0.62029 0.72729 0.0
C4077 C 0.95971 0.6361 0.7298 0.0
C4078 C 0.94859 0.6087 0.73497 0.0
C4079 C 0.96108 0.61277 0.74533 0.0
C4080 C 0.97282 0.62856 0.74791 0.0
H4081 H 0.00256 0.57118 0.79444 0.0
H4082 H 0.99569 0.58769 0.78081 0.0
C4083 C 0.97211 0.64011 0.74029 0.0
C4084 C 0.96243 0.60054 0.75283 0.0
H4085 H 0.96915 0.59067 0.78794 0.0
C4086 C 0.96307 0.58901 0.74343 0.0
C4087 C 0.96421 0.60087 0.7691 0.0
C4088 C 0.96276 0.61238 0.77982 0.0
C4089 C 0.96616 0.57826 0.74986 0.0
C4090 C 0.96856 0.57905 0.76607 0.0
C4091 C 0.96743 0.59023 0.77549 0.0
C4092 C 0.9728 0.56876 0.77351 0.0
C4093 C 0.96744 0.56654 0.73931 0.0
C4094 C 0.96219 0.55265 0.77382 0.0
C4095 C 0.96608 0.54318 0.78159 0.0
C4096 C 0.98066 0.54969 0.78912 0.0
C4097 C 0.99132 0.56579 0.78855 0.0
C4098 C 0.98739 0.57525 0.78088 0.0
H4099 H 0.96751 0.56898 0.72697 0.0
H4100 H 0.97802 0.5666 0.74253 0.0
H4101 H 0.95759 0.55458 0.74058 0.0
H4102 H 0.95082 0.54748 0.76831 0.0
H4103 H 0.95766 0.5308 0.78179 0.0
H4104 H 0.33332 0.34657 0.74926 0.0
H4105 H 0.34865 0.3703 0.76684 0.0
H4106 H 0.38974 0.37673 0.74785 0.0
H4107 H 0.37461 0.35292 0.73066 0.0
H4108 H 0.39283 0.38161 0.77903 0.0
H4109 H 0.36864 0.41482 0.75391 0.0
H4110 H 0.35497 0.39657 0.76123 0.0
H4111 H 0.36522 0.3965 0.74482 0.0
C4112 C 0.34563 0.35302 0.74892 0.0
C4113 C 0.35277 0.34796 0.73853 0.0
C4114 C 0.35436 0.36662 0.75888 0.0
C4115 C 0.37032 0.37543 0.75845 0.0
C4116 C 0.37744 0.37014 0.74835 0.0
H4117 H 0.4391 0.47095 0.78139 0.0
H4118 H 0.418 0.44555 0.77023 0.0
C4119 C 0.36876 0.35653 0.73851 0.0
C4120 C 0.3798 0.3903 0.76829 0.0
H4121 H 0.38759 0.4279 0.77431 0.0
C4122 C 0.39161 0.39171 0.77812 0.0
C4123 C 0.37825 0.40348 0.76695 0.0
C4124 C 0.36618 0.40289 0.75607 0.0
C4125 C 0.40223 0.40605 0.78627 0.0
C4126 C 0.40073 0.41925 0.78489 0.0
C4127 C 0.38864 0.41773 0.77543 0.0
C4128 C 0.41236 0.43503 0.79207 0.0
C4129 C 0.41541 0.40708 0.79563 0.0
C4130 C 0.41588 0.4377 0.8081 0.0
C4131 C 0.42803 0.45217 0.81448 0.0
C4132 C 0.43665 0.46428 0.80494 0.0
C4133 C 0.43257 0.46186 0.78901 0.0
C4134 C 0.42055 0.44735 0.78263 0.0
H4135 H 0.41684 0.39699 0.79255 0.0
H4136 H 0.42627 0.4181 0.79391 0.0
H4137 H 0.41326 0.40704 0.80809 0.0
H4138 H 0.40946 0.42849 0.81564 0.0
H4139 H 0.43083 0.45382 0.82683 0.0
H4140 H 0.67117 0.05944 0.68837 0.0
H4141 H 0.65287 0.05952 0.70594 0.0
H4142 H 0.64206 0.01427 0.71985 0.0
H4143 H 0.6604 0.01423 0.70267 0.0
H4144 H 0.62192 0.03847 0.70565 0.0
H4145 H 0.64996 0.03888 0.7612 0.0
H4146 H 0.65967 0.04341 0.74349 0.0
H4147 H 0.64714 0.0233 0.74756 0.0
C4148 C 0.665 0.0496 0.6953 0.0
C4149 C 0.66729 0.03687 0.69419 0.0
C4150 C 0.65454 0.04965 0.70531 0.0
C4151 C 0.6463 0.03703 0.71441 0.0
C4152 C 0.64857 0.02432 0.71326 0.0
H4153 H 0.56981 -0.00017 0.77057 0.0
H4154 H 0.59064 0.00511 0.75404 0.0
C4155 C 0.65901 0.02428 0.70333 0.0
C4156 C 0.63476 0.03663 0.72459 0.0
H4157 H 0.6235 0.03088 0.76151 0.0
C4158 C 0.62237 0.03706 0.71791 0.0
C4159 C 0.6354 0.03482 0.74061 0.0
C4160 C 0.64884 0.03524 0.74867 0.0
C4161 C 0.61027 0.03503 0.72668 0.0
C4162 C 0.61065 0.03259 0.74252 0.0
C4163 C 0.62322 0.03262 0.74931 0.0
C4164 C 0.59786 0.02947 0.75215 0.0
C4165 C 0.59689 0.03493 0.7189 0.0
C4166 C 0.59509 0.04145 0.75656 0.0
C4167 C 0.58322 0.03848 0.76603 0.0
C4168 C 0.5739 0.02345 0.77118 0.0
C4169 C 0.57667 0.01146 0.76664 0.0
C4170 C 0.58861 0.01448 0.75728 0.0
H4171 H 0.59739 0.03489 0.70613 0.0
H4172 H 0.586 0.02448 0.72172 0.0
H4173 H 0.59679 0.04553 0.72327 0.0
H4174 H 0.6022 0.05312 0.7528 0.0
H4175 H 0.58129 0.04791 0.76926 0.0
loop_
_geom_bond_atom_site_label_1
_geom_bond_atom_site_label_2
_geom_bond_distance
_geom_bond_site_symmetry_2
_ccdc_geom_bond_type
Co0 O1 2.216 . S
Co0 O2 2.091 . S
Co0 O4 2.004 . S
Co0 O10 2.021 . S
Co0 O12 2.146 1_455 S
Co0 O13 2.244 1_455 S
O1 Co0 2.216 . S
O1 C8 1.247 . S
O2 Co0 2.091 . S
O2 C8 1.261 . S
C3 O12 1.332 . S
C3 O13 1.272 . S
O4 Co0 2.004 . S
O4 C9 1.259 1_554 S
Co5 O6 2.061 . S
Co5 O11 2.052 . S
Co5 O13 2.135 . S
O6 Co5 2.061 . S
O6 C9 1.235 1_654 S
C7 O10 1.238 1_655 S
C7 O11 1.241 . S
C8 O1 1.247 . S
C8 O2 1.261 . S
C9 O4 1.259 1_556 S
C9 O6 1.235 1_456 S
O10 Co0 2.021 . S
O10 C7 1.238 1_455 S
O11 Co5 2.052 . S
O11 C7 1.241 . S
O12 Co0 2.146 1_655 S
O12 C3 1.332 . S
O13 Co0 2.244 1_655 S
O13 C3 1.272 . S
O13 Co5 2.135 . S
Co14 O15 2.216 . S
Co14 O16 2.091 . S
Co14 O18 2.004 . S
Co14 O24 2.021 . S
Co14 O26 2.137 . S
Co14 O27 2.244 . S
O15 Co14 2.216 . S
O15 C22 1.247 . S
O16 Co14 2.091 . S
O16 C22 1.261 . S
C17 O26 1.247 . S
C17 O27 1.272 . S
O18 Co14 2.004 . S
O18 C23 1.259 . S
Co19 O20 2.061 . S
Co19 O25 2.052 . S
Co19 O27 2.135 . S
O20 Co19 2.061 . S
O20 C23 1.235 . S
C21 O24 1.238 . S
C21 O25 1.241 . S
C22 O15 1.247 . S
C22 O16 1.261 . S
C23 O18 1.259 . S
C23 O20 1.235 . S
O24 Co14 2.021 . S
O24 C21 1.238 . S
O25 Co19 2.052 . S
O25 C21 1.241 . S
O26 Co14 2.137 . S
O26 C17 1.247 . S
O27 Co14 2.244 . S
O27 C17 1.272 . S
O27 Co19 2.135 . S
Co28 O29 2.216 . S
Co28 O30 2.091 . S
Co28 O32 2.004 . S
Co28 O38 2.021 . S
Co28 O40 2.132 . S
Co28 O41 2.244 1_545 S
O29 Co28 2.216 . S
O29 C36 1.247 . S
O30 Co28 2.091 . S
O30 C36 1.261 . S
C31 O40 1.162 1_565 S
C31 O41 1.272 . S
O32 Co28 2.004 . S
O32 C37 1.259 . S
Co33 O34 2.061 . S
Co33 O39 2.052 . S
Co33 O41 2.135 . S
O34 Co33 2.061 . S
O34 C37 1.235 1_565 S
C35 O38 1.238 1_565 S
C35 O39 1.241 . S
C36 O29 1.247 . S
C36 O30 1.261 . S
C37 O32 1.259 . S
C37 O34 1.235 1_545 S
O38 Co28 2.021 . S
O38 C35 1.238 1_545 S
O39 Co33 2.052 . S
O39 C35 1.241 . S
O40 Co28 2.132 . S
O40 C31 1.162 1_545 S
O41 Co28 2.244 1_565 S
O41 C31 1.272 . S
O41 Co33 2.135 . S
Co42 O43 2.216 . S
Co42 O44 2.091 . S
Co42 O46 2.004 . S
Co42 O52 2.021 . S
Co42 O54 2.137 1_655 S
Co42 O55 2.244 1_655 S
O43 Co42 2.216 . S
O43 C50 1.247 . S
O44 Co42 2.091 . S
O44 C50 1.261 . S
C45 O54 1.247 . S
C45 O55 1.272 . S
O46 Co42 2.004 . S
O46 C51 1.298 . S
Co47 O48 2.061 . S
Co47 O53 2.052 . S
Co47 O55 2.135 . S
O48 Co47 2.061 . S
O48 C51 1.195 1_455 S
C49 O52 1.238 1_455 S
C49 O53 1.241 . S
C50 O43 1.247 . S
C50 O44 1.261 . S
C51 O46 1.298 . S
C51 O48 1.195 1_655 S
O52 Co42 2.021 . S
O52 C49 1.238 1_655 S
O53 Co47 2.052 . S
O53 C49 1.241 . S
O54 Co42 2.137 1_455 S
O54 C45 1.247 . S
O55 Co42 2.244 1_455 S
O55 C45 1.272 . S
O55 Co47 2.135 . S
Co56 O57 2.216 . S
Co56 O58 2.091 . S
Co56 O60 2.004 1_554 S
Co56 O66 2.021 . S
Co56 O68 2.137 1_554 S
Co56 O69 2.244 1_554 S
O57 Co56 2.216 . S
O57 C64 1.247 . S
O58 Co56 2.091 . S
O58 C64 1.261 . S
C59 O68 1.247 . S
C59 O69 1.272 . S
O60 Co56 2.004 1_556 S
O60 C65 1.259 . S
Co61 O62 2.061 . S
Co61 O67 2.052 1_556 S
Co61 O69 2.135 . S
O62 Co61 2.061 . S
O62 C65 1.235 . S
C63 O66 1.238 . S
C63 O67 1.241 . S
C64 O57 1.247 . S
C64 O58 1.261 . S
C65 O60 1.259 . S
C65 O62 1.235 . S
O66 Co56 2.021 . S
O66 C63 1.238 . S
O67 Co61 2.052 1_554 S
O67 C63 1.241 . S
O68 Co56 2.137 1_556 S
O68 C59 1.247 . S
O69 Co56 2.244 1_556 S
O69 C59 1.272 . S
O69 Co61 2.135 . S
Co70 O71 2.216 . S
Co70 O72 2.091 . S
Co70 O74 2.004 . S
Co70 O80 2.021 . S
Co70 O82 2.137 1_565 S
Co70 O83 2.244 1_565 S
O71 Co70 2.216 . S
O71 C78 1.247 . S
O72 Co70 2.091 . S
O72 C78 1.261 . S
C73 O82 1.247 . S
C73 O83 1.272 . S
O74 Co70 2.004 . S
O74 C79 1.259 . S
Co75 O76 2.061 . S
Co75 O81 2.052 . S
Co75 O83 2.135 . S
O76 Co75 2.061 . S
O76 C79 1.235 1_545 S
C77 O80 1.238 1_545 S
C77 O81 1.241 . S
C78 O71 1.247 . S
C78 O72 1.261 . S
C79 O74 1.259 . S
C79 O76 1.235 1_565 S
O80 Co70 2.021 . S
O80 C77 1.238 1_565 S
O81 Co75 2.052 . S
O81 C77 1.241 . S
O82 Co70 2.137 1_545 S
O82 C73 1.247 . S
O83 Co70 2.244 1_545 S
O83 C73 1.272 . S
O83 Co75 2.135 . S
Co84 O85 2.216 . S
Co84 O86 2.091 . S
Co84 O88 2.004 . S
Co84 O94 2.021 . S
Co84 O96 2.137 . S
Co84 O97 2.244 . S
O85 Co84 2.216 . S
O85 C92 1.247 . S
O86 Co84 2.091 . S
O86 C92 1.261 . S
C87 O96 1.247 . S
C87 O97 1.272 . S
O88 Co84 2.004 . S
O88 C93 1.259 . S
Co89 O90 2.061 . S
Co89 O95 2.052 . S
Co89 O97 2.135 . S
O90 Co89 2.061 . S
O90 C93 1.235 . S
C91 O94 1.238 . S
C91 O95 1.241 . S
C92 O85 1.247 . S
C92 O86 1.261 . S
C93 O88 1.259 . S
C93 O90 1.235 . S
O94 Co84 2.021 . S
O94 C91 1.238 . S
O95 Co89 2.052 . S
O95 C91 1.241 . S
O96 Co84 2.137 . S
O96 C87 1.247 . S
O97 Co84 2.244 . S
O97 C87 1.272 . S
O97 Co89 2.135 . S
Co98 O99 2.216 . S
Co98 O100 2.091 . S
Co98 O102 2.004 . S
Co98 O108 2.021 . S
Co98 O110 2.137 . S
Co98 O111 2.244 . S
O99 Co98 2.216 . S
O99 C106 1.247 . S
O100 Co98 2.091 . S
O100 C106 1.261 . S
C101 O110 1.247 . S
C101 O111 1.272 . S
O102 Co98 2.004 . S
O102 C107 1.259 . S
Co103 O104 2.061 . S
Co103 O109 2.052 . S
Co103 O111 2.135 . S
O104 Co103 2.061 . S
O104 C107 1.235 . S
C105 O108 1.238 . S
C105 O109 1.241 . S
C106 O99 1.247 . S
C106 O100 1.261 . S
C107 O102 1.259 . S
C107 O104 1.235 . S
O108 Co98 2.021 . S
O108 C105 1.238 . S
O109 Co103 2.052 . S
O109 C105 1.241 . S
O110 Co98 2.137 . S
O110 C101 1.247 . S
O111 Co98 2.244 . S
O111 C101 1.272 . S
O111 Co103 2.135 . S
Co112 O113 2.216 . S
Co112 O114 2.091 . S
Co112 O116 2.004 . S
Co112 O122 2.021 . S
Co112 O124 2.137 . S
Co112 O125 2.244 . S
O113 Co112 2.216 . S
O113 C120 1.247 . S
O114 Co112 2.091 . S
O114 C120 1.261 . S
C115 O124 1.247 . S
C115 O125 1.272 . S
O116 Co112 2.004 . S
O116 C121 1.259 . S
Co117 O118 2.061 . S
Co117 O123 2.052 . S
Co117 O125 2.135 . S
O118 Co117 2.061 . S
O118 C121 1.235 . S
C119 O122 1.238 . S
C119 O123 1.241 . S
C120 O113 1.247 . S
C120 O114 1.261 . S
C121 O116 1.259 . S
C121 O118 1.235 . S
O122 Co112 2.021 . S
O122 C119 1.238 . S
O123 Co117 2.052 . S
O123 C119 1.241 . S
O124 Co112 2.137 . S
O124 C115 1.247 . S
O125 Co112 2.244 . S
O125 C115 1.272 . S
O125 Co117 2.135 . S
Co126 O127 2.216 . S
Co126 O128 2.091 . S
Co126 O130 2.004 . S
Co126 O136 2.021 . S
Co126 O138 2.137 . S
Co126 O139 2.244 . S
O127 Co126 2.216 . S
O127 C134 1.247 . S
O128 Co126 2.091 . S
O128 C134 1.261 . S
C129 O138 1.247 . S
C129 O139 1.272 . S
O130 Co126 2.004 . S
O130 C135 1.259 . S
Co131 O132 2.061 . S
Co131 O137 2.052 . S
Co131 O139 2.135 . S
O132 Co131 2.061 . S
O132 C135 1.235 . S
C133 O136 1.238 . S
C133 O137 1.241 . S
C134 O127 1.247 . S
C134 O128 1.261 . S
C135 O130 1.259 . S
C135 O132 1.235 . S
O136 Co126 2.021 . S
O136 C133 1.238 . S
O137 Co131 2.052 . S
O137 C133 1.241 . S
O138 Co126 2.137 . S
O138 C129 1.247 . S
O139 Co126 2.244 . S
O139 C129 1.272 . S
O139 Co131 2.135 . S
Co140 O141 2.216 . S
Co140 O142 2.091 . S
Co140 O144 2.004 . S
Co140 O150 2.021 . S
Co140 O152 2.137 . S
Co140 O153 2.244 . S
O141 Co140 2.216 . S
O141 C148 1.247 . S
O142 Co140 2.091 . S
O142 C148 1.261 . S
C143 O152 1.247 . S
C143 O153 1.272 . S
O144 Co140 2.004 . S
O144 C149 1.259 . S
Co145 O146 2.061 . S
Co145 O151 2.052 . S
Co145 O153 2.135 . S
O146 Co145 2.061 . S
O146 C149 1.235 . S
C147 O150 1.238 . S
C147 O151 1.241 . S
C148 O141 1.247 . S
C148 O142 1.261 . S
C149 O144 1.259 . S
C149 O146 1.235 . S
O150 Co140 2.021 . S
O150 C147 1.238 . S
O151 Co145 2.052 . S
O151 C147 1.241 . S
O152 Co140 2.137 . S
O152 C143 1.247 . S
O153 Co140 2.244 . S
O153 C143 1.272 . S
O153 Co145 2.135 . S
Co154 O155 2.216 . S
Co154 O156 2.091 . S
Co154 O158 2.004 . S
Co154 O164 2.021 . S
Co154 O166 2.137 . S
Co154 O167 2.244 . S
O155 Co154 2.216 . S
O155 C162 1.247 . S
O156 Co154 2.091 . S
O156 C162 1.261 . S
C157 O166 1.247 . S
C157 O167 1.272 . S
O158 Co154 2.004 . S
O158 C163 1.259 . S
Co159 O160 2.061 . S
Co159 O165 2.052 . S
Co159 O167 2.135 . S
O160 Co159 2.061 . S
O160 C163 1.235 . S
C161 O164 1.238 . S
C161 O165 1.241 . S
C162 O155 1.247 . S
C162 O156 1.261 . S
C163 O158 1.259 . S
C163 O160 1.235 . S
O164 Co154 2.021 . S
O164 C161 1.238 . S
O165 Co159 2.052 . S
O165 C161 1.241 . S
O166 Co154 2.137 . S
O166 C157 1.247 . S
O167 Co154 2.244 . S
O167 C157 1.272 . S
O167 Co159 2.135 . S
Co168 O169 2.216 . S
Co168 O170 2.091 . S
Co168 O172 2.004 . S
Co168 O178 2.021 . S
Co168 O180 2.137 . S
Co168 O181 2.244 . S
O169 Co168 2.216 . S
O169 C176 1.247 . S
O170 Co168 2.091 . S
O170 C176 1.261 . S
C171 O180 1.247 . S
C171 O181 1.272 . S
O172 Co168 2.004 . S
O172 C177 1.259 . S
Co173 O174 2.061 . S
Co173 O179 2.052 . S
Co173 O181 2.135 . S
O174 Co173 2.061 . S
O174 C177 1.235 . S
C175 O178 1.238 . S
C175 O179 1.241 . S
C176 O169 1.247 . S
C176 O170 1.261 . S
C177 O172 1.259 . S
C177 O174 1.235 . S
O178 Co168 2.021 . S
O178 C175 1.238 . S
O179 Co173 2.052 . S
O179 C175 1.241 . S
O180 Co168 2.137 . S
O180 C171 1.247 . S
O181 Co168 2.244 . S
O181 C171 1.272 . S
O181 Co173 2.135 . S
Co182 O183 2.216 . S
Co182 O184 2.091 . S
Co182 O186 2.004 . S
Co182 O192 2.021 . S
Co182 O194 2.137 . S
Co182 O195 2.244 . S
O183 Co182 2.216 . S
O183 C190 1.247 . S
O184 Co182 2.091 . S
O184 C190 1.261 . S
C185 O194 1.247 . S
C185 O195 1.272 . S
O186 Co182 2.004 . S
O186 C191 1.259 . S
Co187 O188 2.061 . S
Co187 O193 2.052 . S
Co187 O195 2.135 . S
O188 Co187 2.061 . S
O188 C191 1.235 . S
C189 O192 1.238 . S
C189 O193 1.241 . S
C190 O183 1.247 . S
C190 O184 1.261 . S
C191 O186 1.259 . S
C191 O188 1.235 . S
O192 Co182 2.021 . S
O192 C189 1.238 . S
O193 Co187 2.052 . S
O193 C189 1.241 . S
O194 Co182 2.137 . S
O194 C185 1.247 . S
O195 Co182 2.244 . S
O195 C185 1.272 . S
O195 Co187 2.135 . S
Co196 O197 2.216 . S
Co196 O198 2.091 . S
Co196 O200 2.004 . S
Co196 O206 2.021 . S
Co196 O208 2.137 . S
Co196 O209 2.244 . S
O197 Co196 2.216 . S
O197 C204 1.247 . S
O198 Co196 2.091 . S
O198 C204 1.261 . S
C199 O208 1.247 . S
C199 O209 1.272 . S
O200 Co196 2.004 . S
O200 C205 1.259 . S
Co201 O202 2.061 . S
Co201 O207 2.052 . S
Co201 O209 2.135 . S
O202 Co201 2.061 . S
O202 C205 1.235 . S
C203 O206 1.238 . S
C203 O207 1.241 . S
C204 O197 1.247 . S
C204 O198 1.261 . S
C205 O200 1.259 . S
C205 O202 1.235 . S
O206 Co196 2.021 . S
O206 C203 1.238 . S
O207 Co201 2.052 . S
O207 C203 1.241 . S
O208 Co196 2.137 . S
O208 C199 1.247 . S
O209 Co196 2.244 . S
O209 C199 1.272 . S
O209 Co201 2.135 . S
Co210 O211 2.216 . S
Co210 O212 2.091 . S
Co210 O214 2.004 . S
Co210 O220 2.021 . S
Co210 O222 2.137 . S
Co210 O223 2.244 . S
O211 Co210 2.216 . S
O211 C218 1.247 . S
O212 Co210 2.091 . S
O212 C218 1.261 . S
C213 O222 1.247 . S
C213 O223 1.272 . S
O214 Co210 2.004 . S
O214 C219 1.259 . S
Co215 O216 2.061 . S
Co215 O221 2.052 . S
Co215 O223 2.135 . S
O216 Co215 2.061 . S
O216 C219 1.235 . S
C217 O220 1.238 . S
C217 O221 1.241 . S
C218 O211 1.247 . S
C218 O212 1.261 . S
C219 O214 1.259 . S
C219 O216 1.235 . S
O220 Co210 2.021 . S
O220 C217 1.238 . S
O221 Co215 2.052 . S
O221 C217 1.241 . S
O222 Co210 2.137 . S
O222 C213 1.247 . S
O223 Co210 2.244 . S
O223 C213 1.272 . S
O223 Co215 2.135 . S
Co224 O225 2.216 . S
Co224 O226 2.091 . S
Co224 O228 2.004 . S
Co224 O234 2.021 . S
Co224 O236 2.137 . S
Co224 O237 2.244 . S
O225 Co224 2.216 . S
O225 C232 1.247 . S
O226 Co224 2.091 . S
O226 C232 1.261 . S
C227 O236 1.247 . S
C227 O237 1.272 . S
O228 Co224 2.004 . S
O228 C233 1.259 . S
Co229 O230 2.061 . S
Co229 O235 2.052 . S
Co229 O237 2.135 . S
O230 Co229 2.061 . S
O230 C233 1.235 . S
C231 O234 1.238 . S
C231 O235 1.241 . S
C232 O225 1.247 . S
C232 O226 1.261 . S
C233 O228 1.259 . S
C233 O230 1.235 . S
O234 Co224 2.021 . S
O234 C231 1.238 . S
O235 Co229 2.052 . S
O235 C231 1.241 . S
O236 Co224 2.137 . S
O236 C227 1.247 . S
O237 Co224 2.244 . S
O237 C227 1.272 . S
O237 Co229 2.135 . S
Co238 O239 2.216 . S
Co238 O240 2.091 . S
Co238 O242 2.004 . S
Co238 O248 2.021 . S
Co238 O250 2.137 . S
Co238 O251 2.244 . S
O239 Co238 2.216 . S
O239 C246 1.247 . S
O240 Co238 2.091 . S
O240 C246 1.261 . S
C241 O250 1.247 . S
C241 O251 1.272 . S
O242 Co238 2.004 . S
O242 C247 1.259 . S
Co243 O244 2.061 . S
Co243 O249 2.052 . S
Co243 O251 2.135 . S
O244 Co243 2.061 . S
O244 C247 1.235 . S
C245 O248 1.238 . S
C245 O249 1.241 . S
C246 O239 1.247 . S
C246 O240 1.261 . S
C247 O242 1.259 . S
C247 O244 1.235 . S
O248 Co238 2.021 . S
O248 C245 1.238 . S
O249 Co243 2.052 . S
O249 C245 1.241 . S
O250 Co238 2.137 . S
O250 C241 1.247 . S
O251 Co238 2.244 . S
O251 C241 1.272 . S
O251 Co243 2.135 . S
H252 O278 0.856 . S
H253 O281 0.854 . S
H254 C289 0.930 . S
H255 C290 0.930 . S
H256 C292 0.930 . S
H257 C293 0.930 . S
H258 C295 0.931 . S
H259 C296 0.930 . S
H260 C298 0.930 . S
H261 C299 0.929 . S
H262 C301 0.930 . S
H263 C302 0.931 . S
H264 C304 0.930 . S
H265 C305 0.929 . S
H266 C307 0.931 . S
H267 C308 0.930 . S
H268 C310 0.930 . S
H269 C311 0.932 . S
H270 C313 0.930 . S
H271 C314 0.929 . S
H272 C316 0.931 . S
H273 C317 0.930 . S
H274 C319 0.929 . S
H275 C320 0.931 . S
H276 C322 0.930 . S
H277 C323 0.929 . S
O278 H252 0.856 . S
O278 C324 1.300 . S
O279 C324 1.209 . S
O280 C325 1.199 . S
O281 H253 0.854 . S
O281 C325 1.297 . S
C282 C283 1.404 . S
C282 C287 1.397 . S
C282 C288 1.492 . S
C283 C282 1.404 . S
C283 C284 1.396 . S
C283 C294 1.492 . S
C284 C283 1.396 . S
C284 C285 1.397 . S
C284 C300 1.509 . S
C285 C284 1.397 . S
C285 C286 1.412 . S
C285 C306 1.485 . S
C286 C285 1.412 . S
C286 C287 1.388 . S
C286 C312 1.490 . S
C287 C282 1.397 . S
C287 C286 1.388 . S
C287 C318 1.519 . S
C288 C282 1.492 . S
C288 C289 1.363 . S
C288 C293 1.390 . S
C289 H254 0.930 . S
C289 C288 1.363 . S
C289 C290 1.372 . S
C290 H255 0.930 . S
C290 C289 1.372 . S
C290 C291 1.383 . S
C291 C290 1.383 . S
C291 C292 1.395 . S
C292 H256 0.930 . S
C292 C291 1.395 . S
C292 C293 1.362 . S
C293 H257 0.930 . S
C293 C288 1.390 . S
C293 C292 1.362 . S
C294 C283 1.492 . S
C294 C295 1.377 . S
C294 C299 1.397 . S
C295 H258 0.931 . S
C295 C294 1.377 . S
C295 C296 1.376 . S
C296 H259 0.930 . S
C296 C295 1.376 . S
C296 C297 1.376 . S
C297 C296 1.376 . S
C297 C298 1.378 . S
C297 C324 1.486 . S
C298 H260 0.930 . S
C298 C297 1.378 . S
C298 C299 1.376 . S
C299 H261 0.929 . S
C299 C294 1.397 . S
C299 C298 1.376 . S
C300 C284 1.509 . S
C300 C301 1.391 . S
C300 C305 1.386 . S
C301 H262 0.930 . S
C301 C300 1.391 . S
C301 C302 1.375 . S
C302 H263 0.931 . S
C302 C301 1.375 . S
C302 C303 1.375 . S
C303 C302 1.375 . S
C303 C304 1.361 . S
C304 H264 0.930 . S
C304 C303 1.361 . S
C304 C305 1.399 . S
C305 H265 0.929 . S
C305 C300 1.386 . S
C305 C304 1.399 . S
C306 C285 1.485 . S
C306 C307 1.394 . S
C306 C311 1.360 . S
C307 H266 0.931 . S
C307 C306 1.394 . S
C307 C308 1.372 . S
C308 H267 0.930 . S
C308 C307 1.372 . S
C308 C309 1.397 . S
C309 C308 1.397 . S
C309 C310 1.390 . S
C309 C325 1.476 . S
C310 H268 0.930 . S
C310 C309 1.390 . S
C310 C311 1.366 . S
C311 H269 0.932 . S
C311 C306 1.360 . S
C311 C310 1.366 . S
C312 C286 1.490 . S
C312 C313 1.380 . S
C312 C317 1.386 . S
C313 H270 0.930 . S
C313 C312 1.380 . S
C313 C314 1.381 . S
C314 H271 0.929 . S
C314 C313 1.381 . S
C314 C315 1.371 . S
C315 C314 1.371 . S
C315 C316 1.380 . S
C316 H272 0.931 . S
C316 C315 1.380 . S
C316 C317 1.387 . S
C317 H273 0.930 . S
C317 C312 1.386 . S
C317 C316 1.387 . S
C318 C287 1.519 . S
C318 C319 1.377 . S
C318 C323 1.361 . S
C319 H274 0.929 . S
C319 C318 1.377 . S
C319 C320 1.386 . S
C320 H275 0.931 . S
C320 C319 1.386 . S
C320 C321 1.363 . S
C321 C320 1.363 . S
C321 C322 1.385 . S
C322 H276 0.930 . S
C322 C321 1.385 . S
C322 C323 1.396 . S
C323 H277 0.929 . S
C323 C318 1.361 . S
C323 C322 1.396 . S
C324 O278 1.300 . S
C324 O279 1.209 . S
C324 C297 1.486 . S
C325 O280 1.199 . S
C325 O281 1.297 . S
C325 C309 1.476 . S
H326 O352 0.856 . S
H327 O355 0.854 . S
H328 C363 0.930 . S
H329 C364 0.930 . S
H330 C366 0.930 . S
H331 C367 0.930 . S
H332 C369 0.931 . S
H333 C370 0.930 . S
H334 C372 0.930 . S
H335 C373 0.929 . S
H336 C375 0.930 . S
H337 C376 0.931 . S
H338 C378 0.930 . S
H339 C379 0.929 . S
H340 C381 0.931 . S
H341 C382 0.930 . S
H342 C384 0.930 . S
H343 C385 0.932 . S
H344 C387 0.930 . S
H345 C388 0.929 . S
H346 C390 0.931 . S
H347 C391 0.930 . S
H348 C393 0.929 . S
H349 C394 0.931 . S
H350 C396 0.930 . S
H351 C397 0.929 . S
O352 H326 0.856 . S
O352 C398 1.300 . S
O353 C398 1.209 . S
O354 C399 1.199 . S
O355 H327 0.854 . S
O355 C399 1.297 . S
C356 C357 1.404 . S
C356 C361 1.397 . S
C356 C362 1.492 . S
C357 C356 1.404 . S
C357 C358 1.396 . S
C357 C368 1.492 . S
C358 C357 1.396 . S
C358 C359 1.397 . S
C358 C374 1.509 . S
C359 C358 1.397 . S
C359 C360 1.412 . S
C359 C380 1.485 . S
C360 C359 1.412 . S
C360 C361 1.388 . S
C360 C386 1.490 . S
C361 C356 1.397 . S
C361 C360 1.388 . S
C361 C392 1.519 . S
C362 C356 1.492 . S
C362 C363 1.363 . S
C362 C367 1.390 . S
C363 H328 0.930 . S
C363 C362 1.363 . S
C363 C364 1.372 . S
C364 H329 0.930 . S
C364 C363 1.372 . S
C364 C365 1.383 . S
C365 C364 1.383 . S
C365 C366 1.395 . S
C366 H330 0.930 . S
C366 C365 1.395 . S
C366 C367 1.362 . S
C367 H331 0.930 . S
C367 C362 1.390 . S
C367 C366 1.362 . S
C368 C357 1.492 . S
C368 C369 1.377 . S
C368 C373 1.397 . S
C369 H332 0.931 . S
C369 C368 1.377 . S
C369 C370 1.376 . S
C370 H333 0.930 . S
C370 C369 1.376 . S
C370 C371 1.376 . S
C371 C370 1.376 . S
C371 C372 1.378 . S
C371 C398 1.486 . S
C372 H334 0.930 . S
C372 C371 1.378 . S
C372 C373 1.376 . S
C373 H335 0.929 . S
C373 C368 1.397 . S
C373 C372 1.376 . S
C374 C358 1.509 . S
C374 C375 1.391 . S
C374 C379 1.386 . S
C375 H336 0.930 . S
C375 C374 1.391 . S
C375 C376 1.375 . S
C376 H337 0.931 . S
C376 C375 1.375 . S
C376 C377 1.375 . S
C377 C376 1.375 . S
C377 C378 1.361 . S
C378 H338 0.930 . S
C378 C377 1.361 . S
C378 C379 1.399 . S
C379 H339 0.929 . S
C379 C374 1.386 . S
C379 C378 1.399 . S
C380 C359 1.485 . S
C380 C381 1.394 . S
C380 C385 1.360 . S
C381 H340 0.931 . S
C381 C380 1.394 . S
C381 C382 1.372 . S
C382 H341 0.930 . S
C382 C381 1.372 . S
C382 C383 1.397 . S
C383 C382 1.397 . S
C383 C384 1.390 . S
C383 C399 1.476 . S
C384 H342 0.930 . S
C384 C383 1.390 . S
C384 C385 1.366 . S
C385 H343 0.932 . S
C385 C380 1.360 . S
C385 C384 1.366 . S
C386 C360 1.490 . S
C386 C387 1.380 . S
C386 C391 1.386 . S
C387 H344 0.930 . S
C387 C386 1.380 . S
C387 C388 1.381 . S
C388 H345 0.929 . S
C388 C387 1.381 . S
C388 C389 1.371 . S
C389 C388 1.371 . S
C389 C390 1.380 . S
C390 H346 0.931 . S
C390 C389 1.380 . S
C390 C391 1.387 . S
C391 H347 0.930 . S
C391 C386 1.386 . S
C391 C390 1.387 . S
C392 C361 1.519 . S
C392 C393 1.377 . S
C392 C397 1.361 . S
C393 H348 0.929 . S
C393 C392 1.377 . S
C393 C394 1.386 . S
C394 H349 0.931 . S
C394 C393 1.386 . S
C394 C395 1.363 . S
C395 C394 1.363 . S
C395 C396 1.385 . S
C396 H350 0.930 . S
C396 C395 1.385 . S
C396 C397 1.396 . S
C397 H351 0.929 . S
C397 C392 1.361 . S
C397 C396 1.396 . S
C398 O352 1.300 . S
C398 O353 1.209 . S
C398 C371 1.486 . S
C399 O354 1.199 . S
C399 O355 1.297 . S
C399 C383 1.476 . S
H400 O426 0.856 . S
H401 O429 0.854 . S
H402 C437 0.930 . S
H403 C438 0.930 . S
H404 C440 0.930 . S
H405 C441 0.930 . S
H406 C443 0.931 . S
H407 C444 0.930 . S
H408 C446 0.930 . S
H409 C447 0.929 . S
H410 C449 0.930 . S
H411 C450 0.931 . S
H412 C452 0.930 . S
H413 C453 0.929 . S
H414 C455 0.931 . S
H415 C456 0.930 . S
H416 C458 0.930 . S
H417 C459 0.932 . S
H418 C461 0.930 . S
H419 C462 0.929 . S
H420 C464 0.931 . S
H421 C465 0.930 . S
H422 C467 0.929 . S
H423 C468 0.931 . S
H424 C470 0.930 . S
H425 C471 0.929 . S
O426 H400 0.856 . S
O426 C472 1.300 . S
O427 C472 1.209 . S
O428 C473 1.199 . S
O429 H401 0.854 . S
O429 C473 1.297 . S
C430 C431 1.404 . S
C430 C435 1.397 . S
C430 C436 1.492 . S
C431 C430 1.404 . S
C431 C432 1.396 . S
C431 C442 1.492 . S
C432 C431 1.396 . S
C432 C433 1.397 . S
C432 C448 1.509 . S
C433 C432 1.397 . S
C433 C434 1.412 . S
C433 C454 1.485 . S
C434 C433 1.412 . S
C434 C435 1.388 . S
C434 C460 1.490 . S
C435 C430 1.397 . S
C435 C434 1.388 . S
C435 C466 1.519 . S
C436 C430 1.492 . S
C436 C437 1.363 . S
C436 C441 1.390 . S
C437 H402 0.930 . S
C437 C436 1.363 . S
C437 C438 1.372 . S
C438 H403 0.930 . S
C438 C437 1.372 . S
C438 C439 1.383 . S
C439 C438 1.383 . S
C439 C440 1.395 . S
C440 H404 0.930 . S
C440 C439 1.395 . S
C440 C441 1.362 . S
C441 H405 0.930 . S
C441 C436 1.390 . S
C441 C440 1.362 . S
C442 C431 1.492 . S
C442 C443 1.377 . S
C442 C447 1.397 . S
C443 H406 0.931 . S
C443 C442 1.377 . S
C443 C444 1.376 . S
C444 H407 0.930 . S
C444 C443 1.376 . S
C444 C445 1.376 . S
C445 C444 1.376 . S
C445 C446 1.378 . S
C445 C472 1.486 . S
C446 H408 0.930 . S
C446 C445 1.378 . S
C446 C447 1.376 . S
C447 H409 0.929 . S
C447 C442 1.397 . S
C447 C446 1.376 . S
C448 C432 1.509 . S
C448 C449 1.391 . S
C448 C453 1.386 . S
C449 H410 0.930 . S
C449 C448 1.391 . S
C449 C450 1.375 . S
C450 H411 0.931 . S
C450 C449 1.375 . S
C450 C451 1.375 . S
C451 C450 1.375 . S
C451 C452 1.361 . S
C452 H412 0.930 . S
C452 C451 1.361 . S
C452 C453 1.399 . S
C453 H413 0.929 . S
C453 C448 1.386 . S
C453 C452 1.399 . S
C454 C433 1.485 . S
C454 C455 1.394 . S
C454 C459 1.360 . S
C455 H414 0.931 . S
C455 C454 1.394 . S
C455 C456 1.372 . S
C456 H415 0.930 . S
C456 C455 1.372 . S
C456 C457 1.397 . S
C457 C456 1.397 . S
C457 C458 1.390 . S
C457 C473 1.476 . S
C458 H416 0.930 . S
C458 C457 1.390 . S
C458 C459 1.366 . S
C459 H417 0.932 . S
C459 C454 1.360 . S
C459 C458 1.366 . S
C460 C434 1.490 . S
C460 C461 1.380 . S
C460 C465 1.386 . S
C461 H418 0.930 . S
C461 C460 1.380 . S
C461 C462 1.381 . S
C462 H419 0.929 . S
C462 C461 1.381 . S
C462 C463 1.371 . S
C463 C462 1.371 . S
C463 C464 1.380 . S
C464 H420 0.931 . S
C464 C463 1.380 . S
C464 C465 1.387 . S
C465 H421 0.930 . S
C465 C460 1.386 . S
C465 C464 1.387 . S
C466 C435 1.519 . S
C466 C467 1.377 . S
C466 C471 1.361 . S
C467 H422 0.929 . S
C467 C466 1.377 . S
C467 C468 1.386 . S
C468 H423 0.931 . S
C468 C467 1.386 . S
C468 C469 1.363 . S
C469 C468 1.363 . S
C469 C470 1.385 . S
C470 H424 0.930 . S
C470 C469 1.385 . S
C470 C471 1.396 . S
C471 H425 0.929 . S
C471 C466 1.361 . S
C471 C470 1.396 . S
C472 O426 1.300 . S
C472 O427 1.209 . S
C472 C445 1.486 . S
C473 O428 1.199 . S
C473 O429 1.297 . S
C473 C457 1.476 . S
H474 O500 0.856 . S
H475 O503 0.854 . S
H476 C511 0.930 . S
H477 C512 0.930 . S
H478 C514 0.930 . S
H479 C515 0.930 . S
H480 C517 0.931 . S
H481 C518 0.930 . S
H482 C520 0.930 . S
H483 C521 0.929 . S
H484 C523 0.930 . S
H485 C524 0.931 . S
H486 C526 0.930 . S
H487 C527 0.929 . S
H488 C529 0.931 . S
H489 C530 0.930 . S
H490 C532 0.930 . S
H491 C533 0.932 . S
H492 C535 0.930 . S
H493 C536 0.929 . S
H494 C538 0.931 . S
H495 C539 0.930 . S
H496 C541 0.929 . S
H497 C542 0.931 . S
H498 C544 0.930 . S
H499 C545 0.929 . S
O500 H474 0.856 . S
O500 C546 1.300 . S
O501 C546 1.209 . S
O502 C547 1.199 . S
O503 H475 0.854 . S
O503 C547 1.297 . S
C504 C505 1.404 . S
C504 C509 1.397 . S
C504 C510 1.492 . S
C505 C504 1.404 . S
C505 C506 1.396 . S
C505 C516 1.492 . S
C506 C505 1.396 . S
C506 C507 1.397 . S
C506 C522 1.509 . S
C507 C506 1.397 . S
C507 C508 1.412 . S
C507 C528 1.485 . S
C508 C507 1.412 . S
C508 C509 1.388 . S
C508 C534 1.490 . S
C509 C504 1.397 . S
C509 C508 1.388 . S
C509 C540 1.519 . S
C510 C504 1.492 . S
C510 C511 1.363 . S
C510 C515 1.390 . S
C511 H476 0.930 . S
C511 C510 1.363 . S
C511 C512 1.372 . S
C512 H477 0.930 . S
C512 C511 1.372 . S
C512 C513 1.383 . S
C513 C512 1.383 . S
C513 C514 1.395 . S
C514 H478 0.930 . S
C514 C513 1.395 . S
C514 C515 1.362 . S
C515 H479 0.930 . S
C515 C510 1.390 . S
C515 C514 1.362 . S
C516 C505 1.492 . S
C516 C517 1.377 . S
C516 C521 1.397 . S
C517 H480 0.931 . S
C517 C516 1.377 . S
C517 C518 1.376 . S
C518 H481 0.930 . S
C518 C517 1.376 . S
C518 C519 1.376 . S
C519 C518 1.376 . S
C519 C520 1.378 . S
C519 C546 1.486 . S
C520 H482 0.930 . S
C520 C519 1.378 . S
C520 C521 1.376 . S
C521 H483 0.929 . S
C521 C516 1.397 . S
C521 C520 1.376 . S
C522 C506 1.509 . S
C522 C523 1.391 . S
C522 C527 1.386 . S
C523 H484 0.930 . S
C523 C522 1.391 . S
C523 C524 1.375 . S
C524 H485 0.931 . S
C524 C523 1.375 . S
C524 C525 1.375 . S
C525 C524 1.375 . S
C525 C526 1.361 . S
C526 H486 0.930 . S
C526 C525 1.361 . S
C526 C527 1.399 . S
C527 H487 0.929 . S
C527 C522 1.386 . S
C527 C526 1.399 . S
C528 C507 1.485 . S
C528 C529 1.394 . S
C528 C533 1.360 . S
C529 H488 0.931 . S
C529 C528 1.394 . S
C529 C530 1.372 . S
C530 H489 0.930 . S
C530 C529 1.372 . S
C530 C531 1.397 . S
C531 C530 1.397 . S
C531 C532 1.390 . S
C531 C547 1.476 . S
C532 H490 0.930 . S
C532 C531 1.390 . S
C532 C533 1.366 . S
C533 H491 0.932 . S
C533 C528 1.360 . S
C533 C532 1.366 . S
C534 C508 1.490 . S
C534 C535 1.380 . S
C534 C539 1.386 . S
C535 H492 0.930 . S
C535 C534 1.380 . S
C535 C536 1.381 . S
C536 H493 0.929 . S
C536 C535 1.381 . S
C536 C537 1.371 . S
C537 C536 1.371 . S
C537 C538 1.380 . S
C538 H494 0.931 . S
C538 C537 1.380 . S
C538 C539 1.387 . S
C539 H495 0.930 . S
C539 C534 1.386 . S
C539 C538 1.387 . S
C540 C509 1.519 . S
C540 C541 1.377 . S
C540 C545 1.361 . S
C541 H496 0.929 . S
C541 C540 1.377 . S
C541 C542 1.386 . S
C542 H497 0.931 . S
C542 C541 1.386 . S
C542 C543 1.363 . S
C543 C542 1.363 . S
C543 C544 1.385 . S
C544 H498 0.930 . S
C544 C543 1.385 . S
C544 C545 1.396 . S
C545 H499 0.929 . S
C545 C540 1.361 . S
C545 C544 1.396 . S
C546 O500 1.300 . S
C546 O501 1.209 . S
C546 C519 1.486 . S
C547 O502 1.199 . S
C547 O503 1.297 . S
C547 C531 1.476 . S
H548 O574 0.856 . S
H549 O577 0.854 . S
H550 C585 0.930 . S
H551 C586 0.930 . S
H552 C588 0.930 . S
H553 C589 0.930 . S
H554 C591 0.931 . S
H555 C592 0.930 . S
H556 C594 0.930 . S
H557 C595 0.929 . S
H558 C597 0.930 . S
H559 C598 0.931 . S
H560 C600 0.930 . S
H561 C601 0.929 . S
H562 C603 0.931 . S
H563 C604 0.930 . S
H564 C606 0.930 . S
H565 C607 0.932 . S
H566 C609 0.930 . S
H567 C610 0.929 . S
H568 C612 0.931 . S
H569 C613 0.930 . S
H570 C615 0.929 . S
H571 C616 0.931 . S
H572 C618 0.930 . S
H573 C619 0.929 . S
O574 H548 0.856 . S
O574 C620 1.300 . S
O575 C620 1.209 . S
O576 C621 1.199 . S
O577 H549 0.854 . S
O577 C621 1.297 . S
C578 C579 1.404 . S
C578 C583 1.397 . S
C578 C584 1.492 . S
C579 C578 1.404 . S
C579 C580 1.396 . S
C579 C590 1.492 . S
C580 C579 1.396 . S
C580 C581 1.397 . S
C580 C596 1.509 . S
C581 C580 1.397 . S
C581 C582 1.412 . S
C581 C602 1.485 . S
C582 C581 1.412 . S
C582 C583 1.388 . S
C582 C608 1.490 . S
C583 C578 1.397 . S
C583 C582 1.388 . S
C583 C614 1.519 . S
C584 C578 1.492 . S
C584 C585 1.363 . S
C584 C589 1.390 . S
C585 H550 0.930 . S
C585 C584 1.363 . S
C585 C586 1.372 . S
C586 H551 0.930 . S
C586 C585 1.372 . S
C586 C587 1.383 . S
C587 C586 1.383 . S
C587 C588 1.395 . S
C588 H552 0.930 . S
C588 C587 1.395 . S
C588 C589 1.362 . S
C589 H553 0.930 . S
C589 C584 1.390 . S
C589 C588 1.362 . S
C590 C579 1.492 . S
C590 C591 1.377 . S
C590 C595 1.397 . S
C591 H554 0.931 . S
C591 C590 1.377 . S
C591 C592 1.376 . S
C592 H555 0.930 . S
C592 C591 1.376 . S
C592 C593 1.376 . S
C593 C592 1.376 . S
C593 C594 1.378 . S
C593 C620 1.486 . S
C594 H556 0.930 . S
C594 C593 1.378 . S
C594 C595 1.376 . S
C595 H557 0.929 . S
C595 C590 1.397 . S
C595 C594 1.376 . S
C596 C580 1.509 . S
C596 C597 1.391 . S
C596 C601 1.386 . S
C597 H558 0.930 . S
C597 C596 1.391 . S
C597 C598 1.375 . S
C598 H559 0.931 . S
C598 C597 1.375 . S
C598 C599 1.375 . S
C599 C598 1.375 . S
C599 C600 1.361 . S
C600 H560 0.930 . S
C600 C599 1.361 . S
C600 C601 1.399 . S
C601 H561 0.929 . S
C601 C596 1.386 . S
C601 C600 1.399 . S
C602 C581 1.485 . S
C602 C603 1.394 . S
C602 C607 1.360 . S
C603 H562 0.931 . S
C603 C602 1.394 . S
C603 C604 1.372 . S
C604 H563 0.930 . S
C604 C603 1.372 . S
C604 C605 1.397 . S
C605 C604 1.397 . S
C605 C606 1.390 . S
C605 C621 1.476 . S
C606 H564 0.930 . S
C606 C605 1.390 . S
C606 C607 1.366 . S
C607 H565 0.932 . S
C607 C602 1.360 . S
C607 C606 1.366 . S
C608 C582 1.490 . S
C608 C609 1.380 . S
C608 C613 1.386 . S
C609 H566 0.930 . S
C609 C608 1.380 . S
C609 C610 1.381 . S
C610 H567 0.929 . S
C610 C609 1.381 . S
C610 C611 1.371 . S
C611 C610 1.371 . S
C611 C612 1.380 . S
C612 H568 0.931 . S
C612 C611 1.380 . S
C612 C613 1.387 . S
C613 H569 0.930 . S
C613 C608 1.386 . S
C613 C612 1.387 . S
C614 C583 1.519 . S
C614 C615 1.377 . S
C614 C619 1.361 . S
C615 H570 0.929 . S
C615 C614 1.377 . S
C615 C616 1.386 . S
C616 H571 0.931 . S
C616 C615 1.386 . S
C616 C617 1.363 . S
C617 C616 1.363 . S
C617 C618 1.385 . S
C618 H572 0.930 . S
C618 C617 1.385 . S
C618 C619 1.396 . S
C619 H573 0.929 . S
C619 C614 1.361 . S
C619 C618 1.396 . S
C620 O574 1.300 . S
C620 O575 1.209 . S
C620 C593 1.486 . S
C621 O576 1.199 . S
C621 O577 1.297 . S
C621 C605 1.476 . S
H622 O648 0.856 1_554 S
H623 O651 0.854 . S
H624 C659 0.930 . S
H625 C660 0.930 . S
H626 C662 0.930 . S
H627 C663 0.930 . S
H628 C665 0.931 . S
H629 C666 0.930 . S
H630 C668 0.930 . S
H631 C669 0.929 . S
H632 C671 0.930 . S
H633 C672 0.931 . S
H634 C674 0.930 . S
H635 C675 0.929 . S
H636 C677 0.931 . S
H637 C678 0.930 . S
H638 C680 0.930 . S
H639 C681 0.932 . S
H640 C683 0.930 . S
H641 C684 0.929 . S
H642 C686 0.931 . S
H643 C687 0.930 . S
H644 C689 0.929 . S
H645 C690 0.931 . S
H646 C692 0.930 . S
H647 C693 0.929 . S
O648 H622 0.856 1_556 S
O648 C694 1.300 . S
O649 C694 1.209 . S
O650 C695 1.199 . S
O651 H623 0.854 . S
O651 C695 1.297 . S
C652 C653 1.404 . S
C652 C657 1.397 . S
C652 C658 1.492 . S
C653 C652 1.404 . S
C653 C654 1.396 . S
C653 C664 1.492 . S
C654 C653 1.396 . S
C654 C655 1.397 . S
C654 C670 1.509 . S
C655 C654 1.397 . S
C655 C656 1.412 . S
C655 C676 1.485 . S
C656 C655 1.412 . S
C656 C657 1.388 . S
C656 C682 1.490 . S
C657 C652 1.397 . S
C657 C656 1.388 . S
C657 C688 1.519 . S
C658 C652 1.492 . S
C658 C659 1.363 . S
C658 C663 1.390 . S
C659 H624 0.930 . S
C659 C658 1.363 . S
C659 C660 1.372 . S
C660 H625 0.930 . S
C660 C659 1.372 . S
C660 C661 1.383 . S
C661 C660 1.383 . S
C661 C662 1.395 . S
C662 H626 0.930 . S
C662 C661 1.395 . S
C662 C663 1.362 . S
C663 H627 0.930 . S
C663 C658 1.390 . S
C663 C662 1.362 . S
C664 C653 1.492 . S
C664 C665 1.377 . S
C664 C669 1.397 . S
C665 H628 0.931 . S
C665 C664 1.377 . S
C665 C666 1.376 . S
C666 H629 0.930 . S
C666 C665 1.376 . S
C666 C667 1.376 . S
C667 C666 1.376 . S
C667 C668 1.378 . S
C667 C694 1.486 . S
C668 H630 0.930 . S
C668 C667 1.378 . S
C668 C669 1.376 . S
C669 H631 0.929 . S
C669 C664 1.397 . S
C669 C668 1.376 . S
C670 C654 1.509 . S
C670 C671 1.391 . S
C670 C675 1.386 . S
C671 H632 0.930 . S
C671 C670 1.391 . S
C671 C672 1.375 . S
C672 H633 0.931 . S
C672 C671 1.375 . S
C672 C673 1.375 . S
C673 C672 1.375 . S
C673 C674 1.361 . S
C674 H634 0.930 . S
C674 C673 1.361 . S
C674 C675 1.399 . S
C675 H635 0.929 . S
C675 C670 1.386 . S
C675 C674 1.399 . S
C676 C655 1.485 . S
C676 C677 1.394 . S
C676 C681 1.360 . S
C677 H636 0.931 . S
C677 C676 1.394 . S
C677 C678 1.372 . S
C678 H637 0.930 . S
C678 C677 1.372 . S
C678 C679 1.397 . S
C679 C678 1.397 . S
C679 C680 1.390 . S
C679 C695 1.476 . S
C680 H638 0.930 . S
C680 C679 1.390 . S
C680 C681 1.366 . S
C681 H639 0.932 . S
C681 C676 1.360 . S
C681 C680 1.366 . S
C682 C656 1.490 . S
C682 C683 1.380 . S
C682 C687 1.386 . S
C683 H640 0.930 . S
C683 C682 1.380 . S
C683 C684 1.381 . S
C684 H641 0.929 . S
C684 C683 1.381 . S
C684 C685 1.371 . S
C685 C684 1.371 . S
C685 C686 1.380 . S
C686 H642 0.931 . S
C686 C685 1.380 . S
C686 C687 1.387 . S
C687 H643 0.930 . S
C687 C682 1.386 . S
C687 C686 1.387 . S
C688 C657 1.519 . S
C688 C689 1.377 . S
C688 C693 1.361 . S
C689 H644 0.929 . S
C689 C688 1.377 . S
C689 C690 1.386 . S
C690 H645 0.931 . S
C690 C689 1.386 . S
C690 C691 1.363 . S
C691 C690 1.363 . S
C691 C692 1.385 . S
C692 H646 0.930 . S
C692 C691 1.385 . S
C692 C693 1.396 . S
C693 H647 0.929 . S
C693 C688 1.361 . S
C693 C692 1.396 . S
C694 O648 1.300 . S
C694 O649 1.209 . S
C694 C667 1.486 . S
C695 O650 1.199 . S
C695 O651 1.297 . S
C695 C679 1.476 . S
H696 O722 0.856 . S
H697 O725 0.854 . S
H698 C733 0.930 . S
H699 C734 0.930 . S
H700 C736 0.930 . S
H701 C737 0.930 . S
H702 C739 0.931 . S
H703 C740 0.930 . S
H704 C742 0.930 . S
H705 C743 0.929 . S
H706 C745 0.930 . S
H707 C746 0.931 . S
H708 C748 0.930 . S
H709 C749 0.929 . S
H710 C751 0.931 . S
H711 C752 0.930 . S
H712 C754 0.930 . S
H713 C755 0.932 . S
H714 C757 0.930 . S
H715 C758 0.929 . S
H716 C760 0.931 . S
H717 C761 0.930 . S
H718 C763 0.929 . S
H719 C764 0.931 . S
H720 C766 0.930 . S
H721 C767 0.929 . S
O722 H696 0.856 . S
O722 C768 1.300 . S
O723 C768 1.209 . S
O724 C769 1.199 . S
O725 H697 0.854 . S
O725 C769 1.297 . S
C726 C727 1.404 . S
C726 C731 1.397 . S
C726 C732 1.492 . S
C727 C726 1.404 . S
C727 C728 1.396 . S
C727 C738 1.492 . S
C728 C727 1.396 . S
C728 C729 1.397 . S
C728 C744 1.509 . S
C729 C728 1.397 . S
C729 C730 1.412 . S
C729 C750 1.485 . S
C730 C729 1.412 . S
C730 C731 1.388 . S
C730 C756 1.490 . S
C731 C726 1.397 . S
C731 C730 1.388 . S
C731 C762 1.519 . S
C732 C726 1.492 . S
C732 C733 1.363 . S
C732 C737 1.390 . S
C733 H698 0.930 . S
C733 C732 1.363 . S
C733 C734 1.372 . S
C734 H699 0.930 . S
C734 C733 1.372 . S
C734 C735 1.383 . S
C735 C734 1.383 . S
C735 C736 1.395 . S
C736 H700 0.930 . S
C736 C735 1.395 . S
C736 C737 1.362 . S
C737 H701 0.930 . S
C737 C732 1.390 . S
C737 C736 1.362 . S
C738 C727 1.492 . S
C738 C739 1.377 . S
C738 C743 1.397 . S
C739 H702 0.931 . S
C739 C738 1.377 . S
C739 C740 1.376 . S
C740 H703 0.930 . S
C740 C739 1.376 . S
C740 C741 1.376 . S
C741 C740 1.376 . S
C741 C742 1.378 . S
C741 C768 1.486 . S
C742 H704 0.930 . S
C742 C741 1.378 . S
C742 C743 1.376 . S
C743 H705 0.929 . S
C743 C738 1.397 . S
C743 C742 1.376 . S
C744 C728 1.509 . S
C744 C745 1.391 . S
C744 C749 1.386 . S
C745 H706 0.930 . S
C745 C744 1.391 . S
C745 C746 1.375 . S
C746 H707 0.931 . S
C746 C745 1.375 . S
C746 C747 1.375 . S
C747 C746 1.375 . S
C747 C748 1.361 . S
C748 H708 0.930 . S
C748 C747 1.361 . S
C748 C749 1.399 . S
C749 H709 0.929 . S
C749 C744 1.386 . S
C749 C748 1.399 . S
C750 C729 1.485 . S
C750 C751 1.394 . S
C750 C755 1.360 . S
C751 H710 0.931 . S
C751 C750 1.394 . S
C751 C752 1.372 . S
C752 H711 0.930 . S
C752 C751 1.372 . S
C752 C753 1.397 . S
C753 C752 1.397 . S
C753 C754 1.390 . S
C753 C769 1.476 . S
C754 H712 0.930 . S
C754 C753 1.390 . S
C754 C755 1.366 . S
C755 H713 0.932 . S
C755 C750 1.360 . S
C755 C754 1.366 . S
C756 C730 1.490 . S
C756 C757 1.380 . S
C756 C761 1.386 . S
C757 H714 0.930 . S
C757 C756 1.380 . S
C757 C758 1.381 . S
C758 H715 0.929 . S
C758 C757 1.381 . S
C758 C759 1.371 . S
C759 C758 1.371 . S
C759 C760 1.380 . S
C760 H716 0.931 . S
C760 C759 1.380 . S
C760 C761 1.387 . S
C761 H717 0.930 . S
C761 C756 1.386 . S
C761 C760 1.387 . S
C762 C731 1.519 . S
C762 C763 1.377 . S
C762 C767 1.361 . S
C763 H718 0.929 . S
C763 C762 1.377 . S
C763 C764 1.386 . S
C764 H719 0.931 . S
C764 C763 1.386 . S
C764 C765 1.363 . S
C765 C764 1.363 . S
C765 C766 1.385 . S
C766 H720 0.930 . S
C766 C765 1.385 . S
C766 C767 1.396 . S
C767 H721 0.929 . S
C767 C762 1.361 . S
C767 C766 1.396 . S
C768 O722 1.300 . S
C768 O723 1.209 . S
C768 C741 1.486 . S
C769 O724 1.199 . S
C769 O725 1.297 . S
C769 C753 1.476 . S
H770 O796 0.856 . S
H771 O799 0.854 . S
H772 C807 0.930 . S
H773 C808 0.930 . S
H774 C810 0.930 . S
H775 C811 0.930 . S
H776 C813 0.931 . S
H777 C814 0.930 . S
H778 C816 0.930 . S
H779 C817 0.929 . S
H780 C819 0.930 . S
H781 C820 0.931 . S
H782 C822 0.930 . S
H783 C823 0.929 . S
H784 C825 0.931 . S
H785 C826 0.930 . S
H786 C828 0.930 . S
H787 C829 0.932 . S
H788 C831 0.930 . S
H789 C832 0.929 . S
H790 C834 0.931 . S
H791 C835 0.930 . S
H792 C837 0.929 . S
H793 C838 0.931 . S
H794 C840 0.930 . S
H795 C841 0.929 . S
O796 H770 0.856 . S
O796 C842 1.300 . S
O797 C842 1.209 . S
O798 C843 1.199 . S
O799 H771 0.854 . S
O799 C843 1.297 . S
C800 C801 1.404 . S
C800 C805 1.397 . S
C800 C806 1.492 . S
C801 C800 1.404 . S
C801 C802 1.396 . S
C801 C812 1.492 . S
C802 C801 1.396 . S
C802 C803 1.397 . S
C802 C818 1.509 . S
C803 C802 1.397 . S
C803 C804 1.412 . S
C803 C824 1.485 . S
C804 C803 1.412 . S
C804 C805 1.388 . S
C804 C830 1.490 . S
C805 C800 1.397 . S
C805 C804 1.388 . S
C805 C836 1.519 . S
C806 C800 1.492 . S
C806 C807 1.363 . S
C806 C811 1.390 . S
C807 H772 0.930 . S
C807 C806 1.363 . S
C807 C808 1.372 . S
C808 H773 0.930 . S
C808 C807 1.372 . S
C808 C809 1.383 . S
C809 C808 1.383 . S
C809 C810 1.395 . S
C810 H774 0.930 . S
C810 C809 1.395 . S
C810 C811 1.362 . S
C811 H775 0.930 . S
C811 C806 1.390 . S
C811 C810 1.362 . S
C812 C801 1.492 . S
C812 C813 1.377 . S
C812 C817 1.397 . S
C813 H776 0.931 . S
C813 C812 1.377 . S
C813 C814 1.376 . S
C814 H777 0.930 . S
C814 C813 1.376 . S
C814 C815 1.376 . S
C815 C814 1.376 . S
C815 C816 1.378 . S
C815 C842 1.486 . S
C816 H778 0.930 . S
C816 C815 1.378 . S
C816 C817 1.376 . S
C817 H779 0.929 . S
C817 C812 1.397 . S
C817 C816 1.376 . S
C818 C802 1.509 . S
C818 C819 1.391 . S
C818 C823 1.386 . S
C819 H780 0.930 . S
C819 C818 1.391 . S
C819 C820 1.375 . S
C820 H781 0.931 . S
C820 C819 1.375 . S
C820 C821 1.375 . S
C821 C820 1.375 . S
C821 C822 1.361 . S
C822 H782 0.930 . S
C822 C821 1.361 . S
C822 C823 1.399 . S
C823 H783 0.929 . S
C823 C818 1.386 . S
C823 C822 1.399 . S
C824 C803 1.485 . S
C824 C825 1.394 . S
C824 C829 1.360 . S
C825 H784 0.931 . S
C825 C824 1.394 . S
C825 C826 1.372 . S
C826 H785 0.930 . S
C826 C825 1.372 . S
C826 C827 1.397 . S
C827 C826 1.397 . S
C827 C828 1.390 . S
C827 C843 1.476 . S
C828 H786 0.930 . S
C828 C827 1.390 . S
C828 C829 1.366 . S
C829 H787 0.932 . S
C829 C824 1.360 . S
C829 C828 1.366 . S
C830 C804 1.490 . S
C830 C831 1.380 . S
C830 C835 1.386 . S
C831 H788 0.930 . S
C831 C830 1.380 . S
C831 C832 1.381 . S
C832 H789 0.929 . S
C832 C831 1.381 . S
C832 C833 1.371 . S
C833 C832 1.371 . S
C833 C834 1.380 . S
C834 H790 0.931 . S
C834 C833 1.380 . S
C834 C835 1.387 . S
C835 H791 0.930 . S
C835 C830 1.386 . S
C835 C834 1.387 . S
C836 C805 1.519 . S
C836 C837 1.377 . S
C836 C841 1.361 . S
C837 H792 0.929 . S
C837 C836 1.377 . S
C837 C838 1.386 . S
C838 H793 0.931 . S
C838 C837 1.386 . S
C838 C839 1.363 . S
C839 C838 1.363 . S
C839 C840 1.385 . S
C840 H794 0.930 . S
C840 C839 1.385 . S
C840 C841 1.396 . S
C841 H795 0.929 . S
C841 C836 1.361 . S
C841 C840 1.396 . S
C842 O796 1.300 . S
C842 O797 1.209 . S
C842 C815 1.486 . S
C843 O798 1.199 . S
C843 O799 1.297 . S
C843 C827 1.476 . S
H844 O870 0.856 . S
H845 O873 0.854 . S
H846 C881 0.930 . S
H847 C882 0.930 . S
H848 C884 0.930 . S
H849 C885 0.930 . S
H850 C887 0.931 . S
H851 C888 0.930 . S
H852 C890 0.930 . S
H853 C891 0.929 . S
H854 C893 0.930 . S
H855 C894 0.931 . S
H856 C896 0.930 . S
H857 C897 0.929 . S
H858 C899 0.931 . S
H859 C900 0.930 . S
H860 C902 0.930 . S
H861 C903 0.932 . S
H862 C905 0.930 . S
H863 C906 0.929 . S
H864 C908 0.931 . S
H865 C909 0.930 . S
H866 C911 0.929 . S
H867 C912 0.931 . S
H868 C914 0.930 . S
H869 C915 0.929 . S
O870 H844 0.856 . S
O870 C916 1.300 . S
O871 C916 1.209 . S
O872 C917 1.199 . S
O873 H845 0.854 . S
O873 C917 1.297 . S
C874 C875 1.404 . S
C874 C879 1.397 . S
C874 C880 1.492 . S
C875 C874 1.404 . S
C875 C876 1.396 . S
C875 C886 1.492 . S
C876 C875 1.396 . S
C876 C877 1.397 . S
C876 C892 1.509 . S
C877 C876 1.397 . S
C877 C878 1.412 . S
C877 C898 1.485 . S
C878 C877 1.412 . S
C878 C879 1.388 . S
C878 C904 1.490 . S
C879 C874 1.397 . S
C879 C878 1.388 . S
C879 C910 1.519 . S
C880 C874 1.492 . S
C880 C881 1.363 . S
C880 C885 1.390 . S
C881 H846 0.930 . S
C881 C880 1.363 . S
C881 C882 1.372 . S
C882 H847 0.930 . S
C882 C881 1.372 . S
C882 C883 1.383 . S
C883 C882 1.383 . S
C883 C884 1.395 . S
C884 H848 0.930 . S
C884 C883 1.395 . S
C884 C885 1.362 . S
C885 H849 0.930 . S
C885 C880 1.390 . S
C885 C884 1.362 . S
C886 C875 1.492 . S
C886 C887 1.377 . S
C886 C891 1.397 . S
C887 H850 0.931 . S
C887 C886 1.377 . S
C887 C888 1.376 . S
C888 H851 0.930 . S
C888 C887 1.376 . S
C888 C889 1.376 . S
C889 C888 1.376 . S
C889 C890 1.378 . S
C889 C916 1.486 . S
C890 H852 0.930 . S
C890 C889 1.378 . S
C890 C891 1.376 . S
C891 H853 0.929 . S
C891 C886 1.397 . S
C891 C890 1.376 . S
C892 C876 1.509 . S
C892 C893 1.391 . S
C892 C897 1.386 . S
C893 H854 0.930 . S
C893 C892 1.391 . S
C893 C894 1.375 . S
C894 H855 0.931 . S
C894 C893 1.375 . S
C894 C895 1.375 . S
C895 C894 1.375 . S
C895 C896 1.361 . S
C896 H856 0.930 . S
C896 C895 1.361 . S
C896 C897 1.399 . S
C897 H857 0.929 . S
C897 C892 1.386 . S
C897 C896 1.399 . S
C898 C877 1.485 . S
C898 C899 1.394 . S
C898 C903 1.360 . S
C899 H858 0.931 . S
C899 C898 1.394 . S
C899 C900 1.372 . S
C900 H859 0.930 . S
C900 C899 1.372 . S
C900 C901 1.397 . S
C901 C900 1.397 . S
C901 C902 1.390 . S
C901 C917 1.476 . S
C902 H860 0.930 . S
C902 C901 1.390 . S
C902 C903 1.366 . S
C903 H861 0.932 . S
C903 C898 1.360 . S
C903 C902 1.366 . S
C904 C878 1.490 . S
C904 C905 1.380 . S
C904 C909 1.386 . S
C905 H862 0.930 . S
C905 C904 1.380 . S
C905 C906 1.381 . S
C906 H863 0.929 . S
C906 C905 1.381 . S
C906 C907 1.371 . S
C907 C906 1.371 . S
C907 C908 1.380 . S
C908 H864 0.931 . S
C908 C907 1.380 . S
C908 C909 1.387 . S
C909 H865 0.930 . S
C909 C904 1.386 . S
C909 C908 1.387 . S
C910 C879 1.519 . S
C910 C911 1.377 . S
C910 C915 1.361 . S
C911 H866 0.929 . S
C911 C910 1.377 . S
C911 C912 1.386 . S
C912 H867 0.931 . S
C912 C911 1.386 . S
C912 C913 1.363 . S
C913 C912 1.363 . S
C913 C914 1.385 . S
C914 H868 0.930 . S
C914 C913 1.385 . S
C914 C915 1.396 . S
C915 H869 0.929 . S
C915 C910 1.361 . S
C915 C914 1.396 . S
C916 O870 1.300 . S
C916 O871 1.209 . S
C916 C889 1.486 . S
C917 O872 1.199 . S
C917 O873 1.297 . S
C917 C901 1.476 . S
H918 O944 0.856 . S
H919 O947 0.854 . S
H920 C955 0.930 . S
H921 C956 0.930 . S
H922 C958 0.930 . S
H923 C959 0.930 . S
H924 C961 0.931 . S
H925 C962 0.902 1_655 S
H926 C964 0.930 . S
H927 C965 0.929 . S
H928 C967 0.930 . S
H929 C968 0.910 1_655 S
H930 C970 0.930 . S
H931 C971 0.929 . S
H932 C973 0.931 . S
H933 C974 0.930 . S
H934 C976 0.930 . S
H935 C977 0.932 . S
H936 C979 0.930 . S
H937 C980 0.929 . S
H938 C982 0.931 . S
H939 C983 0.930 . S
H940 C985 0.929 . S
H941 C986 0.931 . S
H942 C988 0.930 . S
H943 C989 0.929 . S
O944 H918 0.856 . S
O944 C990 1.300 . S
O945 C990 1.209 . S
O946 C991 1.199 1_655 S
O947 H919 0.854 . S
O947 C991 1.297 . S
C948 C949 1.404 . S
C948 C953 1.394 . S
C948 C954 1.492 . S
C949 C948 1.404 . S
C949 C950 1.396 . S
C949 C960 1.492 . S
C950 C949 1.396 . S
C950 C951 1.397 . S
C950 C966 1.509 . S
C951 C950 1.397 . S
C951 C952 1.432 . S
C951 C972 1.485 . S
C952 C951 1.432 . S
C952 C953 1.397 . S
C952 C978 1.491 1_455 S
C953 C948 1.394 . S
C953 C952 1.397 . S
C953 C984 1.487 1_455 S
C954 C948 1.492 . S
C954 C955 1.363 1_455 S
C954 C959 1.390 . S
C955 H920 0.930 . S
C955 C954 1.363 1_655 S
C955 C956 1.372 . S
C956 H921 0.930 . S
C956 C955 1.372 . S
C956 C957 1.383 . S
C957 C956 1.383 . S
C957 C958 1.395 1_655 S
C958 H922 0.930 . S
C958 C957 1.395 1_455 S
C958 C959 1.362 . S
C959 H923 0.930 . S
C959 C954 1.390 . S
C959 C958 1.362 . S
C960 C949 1.492 . S
C960 C961 1.377 1_455 S
C960 C965 1.397 . S
C961 H924 0.931 . S
C961 C960 1.377 1_655 S
C961 C962 1.382 1_655 S
C962 H925 0.902 1_455 S
C962 C961 1.382 1_455 S
C962 C963 1.402 . S
C963 C962 1.402 . S
C963 C964 1.378 . S
C963 C990 1.486 . S
C964 H926 0.930 . S
C964 C963 1.378 . S
C964 C965 1.376 . S
C965 H927 0.929 . S
C965 C960 1.397 . S
C965 C964 1.376 . S
C966 C950 1.509 . S
C966 C967 1.391 1_455 S
C966 C971 1.386 . S
C967 H928 0.930 . S
C967 C966 1.391 1_655 S
C967 C968 1.341 1_655 S
C968 H929 0.910 1_455 S
C968 C967 1.341 1_455 S
C968 C969 1.433 . S
C969 C968 1.433 . S
C969 C970 1.361 . S
C970 H930 0.930 . S
C970 C969 1.361 . S
C970 C971 1.399 . S
C971 H931 0.929 . S
C971 C966 1.386 . S
C971 C970 1.399 . S
C972 C951 1.485 . S
C972 C973 1.394 1_455 S
C972 C977 1.360 . S
C973 H932 0.931 . S
C973 C972 1.394 1_655 S
C973 C974 1.372 . S
C974 H933 0.930 . S
C974 C973 1.372 . S
C974 C975 1.397 1_655 S
C975 C974 1.397 1_455 S
C975 C976 1.390 . S
C975 C991 1.476 . S
C976 H934 0.930 . S
C976 C975 1.390 . S
C976 C977 1.366 . S
C977 H935 0.932 . S
C977 C972 1.360 . S
C977 C976 1.366 . S
C978 C952 1.491 1_655 S
C978 C979 1.380 . S
C978 C983 1.386 1_655 S
C979 H936 0.930 . S
C979 C978 1.380 . S
C979 C980 1.381 . S
C980 H937 0.929 . S
C980 C979 1.381 . S
C980 C981 1.371 . S
C981 C980 1.371 . S
C981 C982 1.380 1_655 S
C982 H938 0.931 . S
C982 C981 1.380 1_455 S
C982 C983 1.387 . S
C983 H939 0.930 . S
C983 C978 1.386 1_455 S
C983 C982 1.387 . S
C984 C953 1.487 1_655 S
C984 C985 1.407 . S
C984 C989 1.342 1_655 S
C985 H940 0.929 . S
C985 C984 1.407 . S
C985 C986 1.386 . S
C986 H941 0.931 . S
C986 C985 1.386 . S
C986 C987 1.381 . S
C987 C986 1.381 . S
C987 C988 1.357 1_655 S
C988 H942 0.930 . S
C988 C987 1.357 1_455 S
C988 C989 1.396 . S
C989 H943 0.929 . S
C989 C984 1.342 1_455 S
C989 C988 1.396 . S
C990 O944 1.300 . S
C990 O945 1.209 . S
C990 C963 1.486 . S
C991 O946 1.199 1_455 S
C991 O947 1.297 . S
C991 C975 1.476 . S
H992 O1018 0.856 . S
H993 O1021 0.854 . S
H994 C1029 0.930 . S
H995 C1030 0.930 . S
H996 C1032 0.930 . S
H997 C1033 0.930 . S
H998 C1035 0.931 . S
H999 C1036 0.930 . S
H1000 C1038 0.930 . S
H1001 C1039 0.929 . S
H1002 C1041 0.930 . S
H1003 C1042 0.931 . S
H1004 C1044 0.930 . S
H1005 C1045 0.929 . S
H1006 C1047 0.931 . S
H1007 C1048 0.930 . S
H1008 C1050 0.930 . S
H1009 C1051 0.932 . S
H1010 C1053 0.930 . S
H1011 C1054 0.929 . S
H1012 C1056 0.931 . S
H1013 C1057 0.930 . S
H1014 C1059 0.929 . S
H1015 C1060 0.931 . S
H1016 C1062 0.930 . S
H1017 C1063 0.929 . S
O1018 H992 0.856 . S
O1018 C1064 1.300 . S
O1019 C1064 1.209 . S
O1020 C1065 1.199 . S
O1021 H993 0.854 . S
O1021 C1065 1.297 . S
C1022 C1023 1.404 . S
C1022 C1027 1.397 . S
C1022 C1028 1.492 . S
C1023 C1022 1.404 . S
C1023 C1024 1.396 . S
C1023 C1034 1.492 . S
C1024 C1023 1.396 . S
C1024 C1025 1.397 . S
C1024 C1040 1.509 . S
C1025 C1024 1.397 . S
C1025 C1026 1.412 . S
C1025 C1046 1.485 . S
C1026 C1025 1.412 . S
C1026 C1027 1.388 . S
C1026 C1052 1.490 . S
C1027 C1022 1.397 . S
C1027 C1026 1.388 . S
C1027 C1058 1.519 . S
C1028 C1022 1.492 . S
C1028 C1029 1.363 . S
C1028 C1033 1.390 . S
C1029 H994 0.930 . S
C1029 C1028 1.363 . S
C1029 C1030 1.372 . S
C1030 H995 0.930 . S
C1030 C1029 1.372 . S
C1030 C1031 1.383 . S
C1031 C1030 1.383 . S
C1031 C1032 1.395 . S
C1032 H996 0.930 . S
C1032 C1031 1.395 . S
C1032 C1033 1.362 . S
C1033 H997 0.930 . S
C1033 C1028 1.390 . S
C1033 C1032 1.362 . S
C1034 C1023 1.492 . S
C1034 C1035 1.377 . S
C1034 C1039 1.397 . S
C1035 H998 0.931 . S
C1035 C1034 1.377 . S
C1035 C1036 1.376 . S
C1036 H999 0.930 . S
C1036 C1035 1.376 . S
C1036 C1037 1.376 . S
C1037 C1036 1.376 . S
C1037 C1038 1.378 . S
C1037 C1064 1.486 . S
C1038 H1000 0.930 . S
C1038 C1037 1.378 . S
C1038 C1039 1.376 . S
C1039 H1001 0.929 . S
C1039 C1034 1.397 . S
C1039 C1038 1.376 . S
C1040 C1024 1.509 . S
C1040 C1041 1.391 . S
C1040 C1045 1.386 . S
C1041 H1002 0.930 . S
C1041 C1040 1.391 . S
C1041 C1042 1.375 . S
C1042 H1003 0.931 . S
C1042 C1041 1.375 . S
C1042 C1043 1.375 . S
C1043 C1042 1.375 . S
C1043 C1044 1.361 . S
C1044 H1004 0.930 . S
C1044 C1043 1.361 . S
C1044 C1045 1.399 . S
C1045 H1005 0.929 . S
C1045 C1040 1.386 . S
C1045 C1044 1.399 . S
C1046 C1025 1.485 . S
C1046 C1047 1.394 . S
C1046 C1051 1.360 . S
C1047 H1006 0.931 . S
C1047 C1046 1.394 . S
C1047 C1048 1.372 . S
C1048 H1007 0.930 . S
C1048 C1047 1.372 . S
C1048 C1049 1.397 . S
C1049 C1048 1.397 . S
C1049 C1050 1.390 . S
C1049 C1065 1.476 . S
C1050 H1008 0.930 . S
C1050 C1049 1.390 . S
C1050 C1051 1.366 . S
C1051 H1009 0.932 . S
C1051 C1046 1.360 . S
C1051 C1050 1.366 . S
C1052 C1026 1.490 . S
C1052 C1053 1.380 . S
C1052 C1057 1.386 . S
C1053 H1010 0.930 . S
C1053 C1052 1.380 . S
C1053 C1054 1.381 . S
C1054 H1011 0.929 . S
C1054 C1053 1.381 . S
C1054 C1055 1.371 . S
C1055 C1054 1.371 . S
C1055 C1056 1.380 . S
C1056 H1012 0.931 . S
C1056 C1055 1.380 . S
C1056 C1057 1.387 . S
C1057 H1013 0.930 . S
C1057 C1052 1.386 . S
C1057 C1056 1.387 . S
C1058 C1027 1.519 . S
C1058 C1059 1.377 . S
C1058 C1063 1.361 . S
C1059 H1014 0.929 . S
C1059 C1058 1.377 . S
C1059 C1060 1.386 . S
C1060 H1015 0.931 . S
C1060 C1059 1.386 . S
C1060 C1061 1.363 . S
C1061 C1060 1.363 . S
C1061 C1062 1.385 . S
C1062 H1016 0.930 . S
C1062 C1061 1.385 . S
C1062 C1063 1.396 . S
C1063 H1017 0.929 . S
C1063 C1058 1.361 . S
C1063 C1062 1.396 . S
C1064 O1018 1.300 . S
C1064 O1019 1.209 . S
C1064 C1037 1.486 . S
C1065 O1020 1.199 . S
C1065 O1021 1.297 . S
C1065 C1049 1.476 . S
H1066 O1092 0.856 . S
H1067 O1095 0.854 . S
H1068 C1103 0.930 . S
H1069 C1104 0.930 . S
H1070 C1106 0.930 . S
H1071 C1107 0.930 . S
H1072 C1109 0.931 . S
H1073 C1110 0.958 . S
H1074 C1112 0.930 . S
H1075 C1113 0.929 . S
H1076 C1115 0.930 . S
H1077 C1116 0.931 . S
H1078 C1118 0.930 . S
H1079 C1119 0.929 . S
H1080 C1121 0.931 . S
H1081 C1122 0.930 . S
H1082 C1124 0.930 . S
H1083 C1125 0.932 . S
H1084 C1127 0.930 . S
H1085 C1128 0.929 . S
H1086 C1130 0.931 . S
H1087 C1131 0.930 . S
H1088 C1133 0.929 . S
H1089 C1134 0.931 . S
H1090 C1136 0.930 . S
H1091 C1137 0.929 . S
O1092 H1066 0.856 . S
O1092 C1138 1.300 . S
O1093 C1138 1.209 . S
O1094 C1139 1.199 1_545 S
O1095 H1067 0.854 . S
O1095 C1139 1.297 . S
C1096 C1097 1.404 . S
C1096 C1101 1.413 . S
C1096 C1102 1.492 . S
C1097 C1096 1.404 . S
C1097 C1098 1.396 . S
C1097 C1108 1.492 . S
C1098 C1097 1.396 . S
C1098 C1099 1.397 . S
C1098 C1114 1.509 . S
C1099 C1098 1.397 . S
C1099 C1100 1.412 . S
C1099 C1120 1.485 . S
C1100 C1099 1.412 . S
C1100 C1101 1.364 . S
C1100 C1126 1.489 1_565 S
C1101 C1096 1.413 . S
C1101 C1100 1.364 . S
C1101 C1132 1.536 . S
C1102 C1096 1.492 . S
C1102 C1103 1.363 1_565 S
C1102 C1107 1.390 . S
C1103 H1068 0.930 . S
C1103 C1102 1.363 1_545 S
C1103 C1104 1.372 . S
C1104 H1069 0.930 . S
C1104 C1103 1.372 . S
C1104 C1105 1.383 . S
C1105 C1104 1.383 . S
C1105 C1106 1.395 1_545 S
C1106 H1070 0.930 . S
C1106 C1105 1.395 1_565 S
C1106 C1107 1.362 . S
C1107 H1071 0.930 . S
C1107 C1102 1.390 . S
C1107 C1106 1.362 . S
C1108 C1097 1.492 . S
C1108 C1109 1.377 1_565 S
C1108 C1113 1.397 . S
C1109 H1072 0.931 . S
C1109 C1108 1.377 1_545 S
C1109 C1110 1.391 . S
C1110 H1073 0.958 . S
C1110 C1109 1.391 . S
C1110 C1111 1.334 1_545 S
C1111 C1110 1.334 1_565 S
C1111 C1112 1.378 . S
C1111 C1138 1.486 . S
C1112 H1074 0.930 . S
C1112 C1111 1.378 . S
C1112 C1113 1.376 . S
C1113 H1075 0.929 . S
C1113 C1108 1.397 . S
C1113 C1112 1.376 . S
C1114 C1098 1.509 . S
C1114 C1115 1.391 1_565 S
C1114 C1119 1.386 . S
C1115 H1076 0.930 . S
C1115 C1114 1.391 1_545 S
C1115 C1116 1.375 . S
C1116 H1077 0.931 . S
C1116 C1115 1.375 . S
C1116 C1117 1.375 1_545 S
C1117 C1116 1.375 1_565 S
C1117 C1118 1.361 . S
C1118 H1078 0.930 . S
C1118 C1117 1.361 . S
C1118 C1119 1.399 . S
C1119 H1079 0.929 . S
C1119 C1114 1.386 . S
C1119 C1118 1.399 . S
C1120 C1099 1.485 . S
C1120 C1121 1.394 1_565 S
C1120 C1125 1.360 . S
C1121 H1080 0.931 . S
C1121 C1120 1.394 1_545 S
C1121 C1122 1.372 . S
C1122 H1081 0.930 . S
C1122 C1121 1.372 . S
C1122 C1123 1.397 1_545 S
C1123 C1122 1.397 1_565 S
C1123 C1124 1.390 . S
C1123 C1139 1.476 . S
C1124 H1082 0.930 . S
C1124 C1123 1.390 . S
C1124 C1125 1.366 . S
C1125 H1083 0.932 . S
C1125 C1120 1.360 . S
C1125 C1124 1.366 . S
C1126 C1100 1.489 1_545 S
C1126 C1127 1.380 . S
C1126 C1131 1.386 1_545 S
C1127 H1084 0.930 . S
C1127 C1126 1.380 . S
C1127 C1128 1.381 . S
C1128 H1085 0.929 . S
C1128 C1127 1.381 . S
C1128 C1129 1.371 . S
C1129 C1128 1.371 . S
C1129 C1130 1.380 1_545 S
C1130 H1086 0.931 . S
C1130 C1129 1.380 1_565 S
C1130 C1131 1.387 . S
C1131 H1087 0.930 . S
C1131 C1126 1.386 1_565 S
C1131 C1130 1.387 . S
C1132 C1101 1.536 . S
C1132 C1133 1.380 1_565 S
C1132 C1137 1.355 . S
C1133 H1088 0.929 . S
C1133 C1132 1.380 1_545 S
C1133 C1134 1.386 . S
C1134 H1089 0.931 . S
C1134 C1133 1.386 . S
C1134 C1135 1.304 1_545 S
C1135 C1134 1.304 1_565 S
C1135 C1136 1.416 . S
C1136 H1090 0.930 . S
C1136 C1135 1.416 . S
C1136 C1137 1.396 . S
C1137 H1091 0.929 . S
C1137 C1132 1.355 . S
C1137 C1136 1.396 . S
C1138 O1092 1.300 . S
C1138 O1093 1.209 . S
C1138 C1111 1.486 . S
C1139 O1094 1.199 1_565 S
C1139 O1095 1.297 . S
C1139 C1123 1.476 . S
H1140 O1166 0.856 . S
H1141 O1169 0.854 . S
H1142 C1177 0.930 . S
H1143 C1178 0.930 . S
H1144 C1180 0.930 . S
H1145 C1181 0.930 . S
H1146 C1183 0.931 . S
H1147 C1184 0.930 . S
H1148 C1186 0.930 . S
H1149 C1187 0.929 . S
H1150 C1189 0.930 . S
H1151 C1190 0.931 . S
H1152 C1192 0.930 . S
H1153 C1193 0.929 . S
H1154 C1195 0.931 . S
H1155 C1196 0.930 . S
H1156 C1198 0.930 . S
H1157 C1199 0.932 . S
H1158 C1201 0.930 . S
H1159 C1202 0.929 . S
H1160 C1204 0.931 . S
H1161 C1205 0.930 . S
H1162 C1207 0.929 . S
H1163 C1208 0.931 . S
H1164 C1210 0.930 . S
H1165 C1211 0.929 . S
O1166 H1140 0.856 . S
O1166 C1212 1.300 . S
O1167 C1212 1.209 1_565 S
O1168 C1213 1.199 1_545 S
O1169 H1141 0.854 . S
O1169 C1213 1.297 . S
C1170 C1171 1.404 . S
C1170 C1175 1.398 1_545 S
C1170 C1176 1.492 . S
C1171 C1170 1.404 . S
C1171 C1172 1.418 . S
C1171 C1182 1.492 . S
C1172 C1171 1.418 . S
C1172 C1173 1.379 1_545 S
C1172 C1188 1.501 . S
C1173 C1172 1.379 1_565 S
C1173 C1174 1.414 . S
C1173 C1194 1.510 . S
C1174 C1173 1.414 . S
C1174 C1175 1.362 . S
C1174 C1200 1.489 . S
C1175 C1170 1.398 1_565 S
C1175 C1174 1.362 . S
C1175 C1206 1.519 . S
C1176 C1170 1.492 . S
C1176 C1177 1.363 . S
C1176 C1181 1.390 1_545 S
C1177 H1142 0.930 . S
C1177 C1176 1.363 . S
C1177 C1178 1.372 . S
C1178 H1143 0.930 . S
C1178 C1177 1.372 . S
C1178 C1179 1.383 . S
C1179 C1178 1.383 . S
C1179 C1180 1.395 1_545 S
C1180 H1144 0.930 . S
C1180 C1179 1.395 1_565 S
C1180 C1181 1.362 . S
C1181 H1145 0.930 . S
C1181 C1176 1.390 1_565 S
C1181 C1180 1.362 . S
C1182 C1171 1.492 . S
C1182 C1183 1.377 . S
C1182 C1187 1.397 1_545 S
C1183 H1146 0.931 . S
C1183 C1182 1.377 . S
C1183 C1184 1.376 . S
C1184 H1147 0.930 . S
C1184 C1183 1.376 . S
C1184 C1185 1.376 . S
C1185 C1184 1.376 . S
C1185 C1186 1.378 1_545 S
C1185 C1212 1.486 . S
C1186 H1148 0.930 . S
C1186 C1185 1.378 1_565 S
C1186 C1187 1.376 . S
C1187 H1149 0.929 . S
C1187 C1182 1.397 1_565 S
C1187 C1186 1.376 . S
C1188 C1172 1.501 . S
C1188 C1189 1.397 . S
C1188 C1193 1.377 1_545 S
C1189 H1150 0.930 . S
C1189 C1188 1.397 . S
C1189 C1190 1.375 . S
C1190 H1151 0.931 . S
C1190 C1189 1.375 . S
C1190 C1191 1.360 1_545 S
C1191 C1190 1.360 1_565 S
C1191 C1192 1.370 . S
C1192 H1152 0.930 . S
C1192 C1191 1.370 . S
C1192 C1193 1.399 . S
C1193 H1153 0.929 . S
C1193 C1188 1.377 1_565 S
C1193 C1192 1.399 . S
C1194 C1173 1.510 . S
C1194 C1195 1.394 1_565 S
C1194 C1199 1.360 . S
C1195 H1154 0.931 . S
C1195 C1194 1.394 1_545 S
C1195 C1196 1.372 . S
C1196 H1155 0.930 . S
C1196 C1195 1.372 . S
C1196 C1197 1.397 1_545 S
C1197 C1196 1.397 1_565 S
C1197 C1198 1.390 . S
C1197 C1213 1.476 . S
C1198 H1156 0.930 . S
C1198 C1197 1.390 . S
C1198 C1199 1.366 . S
C1199 H1157 0.932 . S
C1199 C1194 1.360 . S
C1199 C1198 1.366 . S
C1200 C1174 1.489 . S
C1200 C1201 1.340 1_565 S
C1200 C1205 1.437 . S
C1201 H1158 0.930 . S
C1201 C1200 1.340 1_545 S
C1201 C1202 1.381 . S
C1202 H1159 0.929 . S
C1202 C1201 1.381 . S
C1202 C1203 1.387 . S
C1203 C1202 1.387 . S
C1203 C1204 1.367 1_545 S
C1204 H1160 0.931 . S
C1204 C1203 1.367 1_565 S
C1204 C1205 1.387 . S
C1205 H1161 0.930 . S
C1205 C1200 1.437 . S
C1205 C1204 1.387 . S
C1206 C1175 1.519 . S
C1206 C1207 1.377 1_565 S
C1206 C1211 1.361 . S
C1207 H1162 0.929 . S
C1207 C1206 1.377 1_545 S
C1207 C1208 1.386 . S
C1208 H1163 0.931 . S
C1208 C1207 1.386 . S
C1208 C1209 1.363 1_545 S
C1209 C1208 1.363 1_565 S
C1209 C1210 1.385 . S
C1210 H1164 0.930 . S
C1210 C1209 1.385 . S
C1210 C1211 1.396 . S
C1211 H1165 0.929 . S
C1211 C1206 1.361 . S
C1211 C1210 1.396 . S
C1212 O1166 1.300 . S
C1212 O1167 1.209 1_545 S
C1212 C1185 1.486 . S
C1213 O1168 1.199 1_565 S
C1213 O1169 1.297 . S
C1213 C1197 1.476 . S
H1214 O1240 0.856 . S
H1215 O1243 0.854 . S
H1216 C1251 0.930 . S
H1217 C1252 0.930 . S
H1218 C1254 0.930 . S
H1219 C1255 0.930 . S
H1220 C1257 0.931 . S
H1221 C1258 0.930 . S
H1222 C1260 0.930 . S
H1223 C1261 0.929 . S
H1224 C1263 0.930 . S
H1225 C1264 0.931 . S
H1226 C1266 0.930 . S
H1227 C1267 0.929 . S
H1228 C1269 0.931 . S
H1229 C1270 0.930 . S
H1230 C1272 0.930 . S
H1231 C1273 0.932 . S
H1232 C1275 0.930 . S
H1233 C1276 0.929 . S
H1234 C1278 0.931 . S
H1235 C1279 0.930 . S
H1236 C1281 0.929 . S
H1237 C1282 0.931 . S
H1238 C1284 0.930 . S
H1239 C1285 0.929 . S
O1240 H1214 0.856 . S
O1240 C1286 1.300 . S
O1241 C1286 1.209 1_455 S
O1242 C1287 1.199 1_655 S
O1243 H1215 0.854 . S
O1243 C1287 1.297 . S
C1244 C1245 1.404 . S
C1244 C1249 1.398 . S
C1244 C1250 1.492 . S
C1245 C1244 1.404 . S
C1245 C1246 1.396 . S
C1245 C1256 1.492 . S
C1246 C1245 1.396 . S
C1246 C1247 1.395 . S
C1246 C1262 1.509 . S
C1247 C1246 1.395 . S
C1247 C1248 1.397 1_655 S
C1247 C1268 1.516 1_655 S
C1248 C1247 1.397 1_455 S
C1248 C1249 1.395 1_455 S
C1248 C1274 1.499 . S
C1249 C1244 1.398 . S
C1249 C1248 1.395 1_655 S
C1249 C1280 1.522 1_655 S
C1250 C1244 1.492 . S
C1250 C1251 1.363 . S
C1250 C1255 1.390 1_655 S
C1251 H1216 0.930 . S
C1251 C1250 1.363 . S
C1251 C1252 1.372 . S
C1252 H1217 0.930 . S
C1252 C1251 1.372 . S
C1252 C1253 1.383 . S
C1253 C1252 1.383 . S
C1253 C1254 1.395 1_655 S
C1254 H1218 0.930 . S
C1254 C1253 1.395 1_455 S
C1254 C1255 1.362 . S
C1255 H1219 0.930 . S
C1255 C1250 1.390 1_455 S
C1255 C1254 1.362 . S
C1256 C1245 1.492 . S
C1256 C1257 1.377 . S
C1256 C1261 1.397 1_655 S
C1257 H1220 0.931 . S
C1257 C1256 1.377 . S
C1257 C1258 1.376 . S
C1258 H1221 0.930 . S
C1258 C1257 1.376 . S
C1258 C1259 1.376 . S
C1259 C1258 1.376 . S
C1259 C1260 1.378 1_655 S
C1259 C1286 1.486 . S
C1260 H1222 0.930 . S
C1260 C1259 1.378 1_455 S
C1260 C1261 1.376 . S
C1261 H1223 0.929 . S
C1261 C1256 1.397 1_455 S
C1261 C1260 1.376 . S
C1262 C1246 1.509 . S
C1262 C1263 1.391 . S
C1262 C1267 1.386 1_655 S
C1263 H1224 0.930 . S
C1263 C1262 1.391 . S
C1263 C1264 1.375 . S
C1264 H1225 0.931 . S
C1264 C1263 1.375 . S
C1264 C1265 1.375 . S
C1265 C1264 1.375 . S
C1265 C1266 1.361 1_655 S
C1266 H1226 0.930 . S
C1266 C1265 1.361 1_455 S
C1266 C1267 1.399 . S
C1267 H1227 0.929 . S
C1267 C1262 1.386 1_455 S
C1267 C1266 1.399 . S
C1268 C1247 1.516 1_455 S
C1268 C1269 1.357 1_455 S
C1268 C1273 1.376 . S
C1269 H1228 0.931 . S
C1269 C1268 1.357 1_655 S
C1269 C1270 1.372 . S
C1270 H1229 0.930 . S
C1270 C1269 1.372 . S
C1270 C1271 1.397 1_655 S
C1271 C1270 1.397 1_455 S
C1271 C1272 1.390 . S
C1271 C1287 1.476 . S
C1272 H1230 0.930 . S
C1272 C1271 1.390 . S
C1272 C1273 1.366 . S
C1273 H1231 0.932 . S
C1273 C1268 1.376 . S
C1273 C1272 1.366 . S
C1274 C1248 1.499 . S
C1274 C1275 1.338 1_455 S
C1274 C1279 1.418 . S
C1275 H1232 0.930 . S
C1275 C1274 1.338 1_655 S
C1275 C1276 1.381 . S
C1276 H1233 0.929 . S
C1276 C1275 1.381 . S
C1276 C1277 1.345 1_655 S
C1277 C1276 1.345 1_455 S
C1277 C1278 1.422 . S
C1278 H1234 0.931 . S
C1278 C1277 1.422 . S
C1278 C1279 1.387 . S
C1279 H1235 0.930 . S
C1279 C1274 1.418 . S
C1279 C1278 1.387 . S
C1280 C1249 1.522 1_455 S
C1280 C1281 1.377 1_455 S
C1280 C1285 1.361 . S
C1281 H1236 0.929 . S
C1281 C1280 1.377 1_655 S
C1281 C1282 1.386 . S
C1282 H1237 0.931 . S
C1282 C1281 1.386 . S
C1282 C1283 1.363 1_655 S
C1283 C1282 1.363 1_455 S
C1283 C1284 1.385 . S
C1284 H1238 0.930 . S
C1284 C1283 1.385 . S
C1284 C1285 1.396 . S
C1285 H1239 0.929 . S
C1285 C1280 1.361 . S
C1285 C1284 1.396 . S
C1286 O1240 1.300 . S
C1286 O1241 1.209 1_655 S
C1286 C1259 1.486 . S
C1287 O1242 1.199 1_455 S
C1287 O1243 1.297 . S
C1287 C1271 1.476 . S
H1288 O1314 0.856 . S
H1289 O1317 0.854 . S
H1290 C1325 0.930 . S
H1291 C1326 0.930 . S
H1292 C1328 0.930 . S
H1293 C1329 0.930 . S
H1294 C1331 0.931 . S
H1295 C1332 0.930 . S
H1296 C1334 0.930 . S
H1297 C1335 0.929 . S
H1298 C1337 0.930 . S
H1299 C1338 0.931 . S
H1300 C1340 0.930 . S
H1301 C1341 0.929 . S
H1302 C1343 0.931 . S
H1303 C1344 0.930 . S
H1304 C1346 0.930 . S
H1305 C1347 0.932 . S
H1306 C1349 0.930 . S
H1307 C1350 0.929 . S
H1308 C1352 0.931 . S
H1309 C1353 0.930 . S
H1310 C1355 0.929 . S
H1311 C1356 0.931 . S
H1312 C1358 0.930 . S
H1313 C1359 0.929 . S
O1314 H1288 0.856 . S
O1314 C1360 1.300 . S
O1315 C1360 1.209 . S
O1316 C1361 1.199 . S
O1317 H1289 0.854 . S
O1317 C1361 1.297 . S
C1318 C1319 1.404 . S
C1318 C1323 1.397 . S
C1318 C1324 1.492 . S
C1319 C1318 1.404 . S
C1319 C1320 1.396 . S
C1319 C1330 1.492 . S
C1320 C1319 1.396 . S
C1320 C1321 1.397 . S
C1320 C1336 1.509 . S
C1321 C1320 1.397 . S
C1321 C1322 1.412 . S
C1321 C1342 1.485 . S
C1322 C1321 1.412 . S
C1322 C1323 1.388 . S
C1322 C1348 1.490 . S
C1323 C1318 1.397 . S
C1323 C1322 1.388 . S
C1323 C1354 1.519 . S
C1324 C1318 1.492 . S
C1324 C1325 1.363 . S
C1324 C1329 1.390 . S
C1325 H1290 0.930 . S
C1325 C1324 1.363 . S
C1325 C1326 1.372 . S
C1326 H1291 0.930 . S
C1326 C1325 1.372 . S
C1326 C1327 1.383 . S
C1327 C1326 1.383 . S
C1327 C1328 1.395 . S
C1328 H1292 0.930 . S
C1328 C1327 1.395 . S
C1328 C1329 1.362 . S
C1329 H1293 0.930 . S
C1329 C1324 1.390 . S
C1329 C1328 1.362 . S
C1330 C1319 1.492 . S
C1330 C1331 1.377 . S
C1330 C1335 1.397 . S
C1331 H1294 0.931 . S
C1331 C1330 1.377 . S
C1331 C1332 1.376 . S
C1332 H1295 0.930 . S
C1332 C1331 1.376 . S
C1332 C1333 1.376 . S
C1333 C1332 1.376 . S
C1333 C1334 1.378 . S
C1333 C1360 1.486 . S
C1334 H1296 0.930 . S
C1334 C1333 1.378 . S
C1334 C1335 1.376 . S
C1335 H1297 0.929 . S
C1335 C1330 1.397 . S
C1335 C1334 1.376 . S
C1336 C1320 1.509 . S
C1336 C1337 1.391 . S
C1336 C1341 1.386 . S
C1337 H1298 0.930 . S
C1337 C1336 1.391 . S
C1337 C1338 1.375 . S
C1338 H1299 0.931 . S
C1338 C1337 1.375 . S
C1338 C1339 1.375 . S
C1339 C1338 1.375 . S
C1339 C1340 1.361 . S
C1340 H1300 0.930 . S
C1340 C1339 1.361 . S
C1340 C1341 1.399 . S
C1341 H1301 0.929 . S
C1341 C1336 1.386 . S
C1341 C1340 1.399 . S
C1342 C1321 1.485 . S
C1342 C1343 1.394 . S
C1342 C1347 1.360 . S
C1343 H1302 0.931 . S
C1343 C1342 1.394 . S
C1343 C1344 1.372 . S
C1344 H1303 0.930 . S
C1344 C1343 1.372 . S
C1344 C1345 1.397 . S
C1345 C1344 1.397 . S
C1345 C1346 1.390 . S
C1345 C1361 1.476 . S
C1346 H1304 0.930 . S
C1346 C1345 1.390 . S
C1346 C1347 1.366 . S
C1347 H1305 0.932 . S
C1347 C1342 1.360 . S
C1347 C1346 1.366 . S
C1348 C1322 1.490 . S
C1348 C1349 1.380 . S
C1348 C1353 1.386 . S
C1349 H1306 0.930 . S
C1349 C1348 1.380 . S
C1349 C1350 1.381 . S
C1350 H1307 0.929 . S
C1350 C1349 1.381 . S
C1350 C1351 1.371 . S
C1351 C1350 1.371 . S
C1351 C1352 1.380 . S
C1352 H1308 0.931 . S
C1352 C1351 1.380 . S
C1352 C1353 1.387 . S
C1353 H1309 0.930 . S
C1353 C1348 1.386 . S
C1353 C1352 1.387 . S
C1354 C1323 1.519 . S
C1354 C1355 1.377 . S
C1354 C1359 1.361 . S
C1355 H1310 0.929 . S
C1355 C1354 1.377 . S
C1355 C1356 1.386 . S
C1356 H1311 0.931 . S
C1356 C1355 1.386 . S
C1356 C1357 1.363 . S
C1357 C1356 1.363 . S
C1357 C1358 1.385 . S
C1358 H1312 0.930 . S
C1358 C1357 1.385 . S
C1358 C1359 1.396 . S
C1359 H1313 0.929 . S
C1359 C1354 1.361 . S
C1359 C1358 1.396 . S
C1360 O1314 1.300 . S
C1360 O1315 1.209 . S
C1360 C1333 1.486 . S
C1361 O1316 1.199 . S
C1361 O1317 1.297 . S
C1361 C1345 1.476 . S
H1362 O1388 0.856 . S
H1363 O1391 0.854 . S
H1364 C1399 0.930 . S
H1365 C1400 0.930 . S
H1366 C1402 0.930 . S
H1367 C1403 0.930 . S
H1368 C1405 0.931 . S
H1369 C1406 0.930 . S
H1370 C1408 0.930 . S
H1371 C1409 0.929 . S
H1372 C1411 0.930 . S
H1373 C1412 0.931 . S
H1374 C1414 0.930 . S
H1375 C1415 0.929 . S
H1376 C1417 0.931 . S
H1377 C1418 0.930 . S
H1378 C1420 0.930 . S
H1379 C1421 0.932 . S
H1380 C1423 0.930 . S
H1381 C1424 0.929 . S
H1382 C1426 0.931 . S
H1383 C1427 0.930 . S
H1384 C1429 0.929 . S
H1385 C1430 0.931 . S
H1386 C1432 0.930 . S
H1387 C1433 0.929 . S
O1388 H1362 0.856 . S
O1388 C1434 1.300 . S
O1389 C1434 1.209 . S
O1390 C1435 1.199 . S
O1391 H1363 0.854 . S
O1391 C1435 1.297 . S
C1392 C1393 1.404 . S
C1392 C1397 1.397 . S
C1392 C1398 1.492 . S
C1393 C1392 1.404 . S
C1393 C1394 1.396 . S
C1393 C1404 1.492 . S
C1394 C1393 1.396 . S
C1394 C1395 1.397 . S
C1394 C1410 1.509 . S
C1395 C1394 1.397 . S
C1395 C1396 1.412 . S
C1395 C1416 1.485 . S
C1396 C1395 1.412 . S
C1396 C1397 1.388 . S
C1396 C1422 1.490 . S
C1397 C1392 1.397 . S
C1397 C1396 1.388 . S
C1397 C1428 1.519 . S
C1398 C1392 1.492 . S
C1398 C1399 1.363 . S
C1398 C1403 1.390 . S
C1399 H1364 0.930 . S
C1399 C1398 1.363 . S
C1399 C1400 1.372 . S
C1400 H1365 0.930 . S
C1400 C1399 1.372 . S
C1400 C1401 1.383 . S
C1401 C1400 1.383 . S
C1401 C1402 1.395 . S
C1402 H1366 0.930 . S
C1402 C1401 1.395 . S
C1402 C1403 1.362 . S
C1403 H1367 0.930 . S
C1403 C1398 1.390 . S
C1403 C1402 1.362 . S
C1404 C1393 1.492 . S
C1404 C1405 1.377 . S
C1404 C1409 1.397 . S
C1405 H1368 0.931 . S
C1405 C1404 1.377 . S
C1405 C1406 1.376 . S
C1406 H1369 0.930 . S
C1406 C1405 1.376 . S
C1406 C1407 1.376 . S
C1407 C1406 1.376 . S
C1407 C1408 1.378 . S
C1407 C1434 1.486 . S
C1408 H1370 0.930 . S
C1408 C1407 1.378 . S
C1408 C1409 1.376 . S
C1409 H1371 0.929 . S
C1409 C1404 1.397 . S
C1409 C1408 1.376 . S
C1410 C1394 1.509 . S
C1410 C1411 1.391 . S
C1410 C1415 1.386 . S
C1411 H1372 0.930 . S
C1411 C1410 1.391 . S
C1411 C1412 1.375 . S
C1412 H1373 0.931 . S
C1412 C1411 1.375 . S
C1412 C1413 1.375 . S
C1413 C1412 1.375 . S
C1413 C1414 1.361 . S
C1414 H1374 0.930 . S
C1414 C1413 1.361 . S
C1414 C1415 1.399 . S
C1415 H1375 0.929 . S
C1415 C1410 1.386 . S
C1415 C1414 1.399 . S
C1416 C1395 1.485 . S
C1416 C1417 1.394 . S
C1416 C1421 1.360 . S
C1417 H1376 0.931 . S
C1417 C1416 1.394 . S
C1417 C1418 1.372 . S
C1418 H1377 0.930 . S
C1418 C1417 1.372 . S
C1418 C1419 1.397 . S
C1419 C1418 1.397 . S
C1419 C1420 1.390 . S
C1419 C1435 1.476 . S
C1420 H1378 0.930 . S
C1420 C1419 1.390 . S
C1420 C1421 1.366 . S
C1421 H1379 0.932 . S
C1421 C1416 1.360 . S
C1421 C1420 1.366 . S
C1422 C1396 1.490 . S
C1422 C1423 1.380 . S
C1422 C1427 1.386 . S
C1423 H1380 0.930 . S
C1423 C1422 1.380 . S
C1423 C1424 1.381 . S
C1424 H1381 0.929 . S
C1424 C1423 1.381 . S
C1424 C1425 1.371 . S
C1425 C1424 1.371 . S
C1425 C1426 1.380 . S
C1426 H1382 0.931 . S
C1426 C1425 1.380 . S
C1426 C1427 1.387 . S
C1427 H1383 0.930 . S
C1427 C1422 1.386 . S
C1427 C1426 1.387 . S
C1428 C1397 1.519 . S
C1428 C1429 1.377 . S
C1428 C1433 1.361 . S
C1429 H1384 0.929 . S
C1429 C1428 1.377 . S
C1429 C1430 1.386 . S
C1430 H1385 0.931 . S
C1430 C1429 1.386 . S
C1430 C1431 1.363 . S
C1431 C1430 1.363 . S
C1431 C1432 1.385 . S
C1432 H1386 0.930 . S
C1432 C1431 1.385 . S
C1432 C1433 1.396 . S
C1433 H1387 0.929 . S
C1433 C1428 1.361 . S
C1433 C1432 1.396 . S
C1434 O1388 1.300 . S
C1434 O1389 1.209 . S
C1434 C1407 1.486 . S
C1435 O1390 1.199 . S
C1435 O1391 1.297 . S
C1435 C1419 1.476 . S
H1436 O1462 0.856 . S
H1437 O1465 0.854 . S
H1438 C1473 0.930 . S
H1439 C1474 0.930 . S
H1440 C1476 0.930 . S
H1441 C1477 0.930 . S
H1442 C1479 0.931 . S
H1443 C1480 0.930 . S
H1444 C1482 0.930 . S
H1445 C1483 0.929 . S
H1446 C1485 0.930 . S
H1447 C1486 0.931 . S
H1448 C1488 0.930 . S
H1449 C1489 0.929 . S
H1450 C1491 0.931 . S
H1451 C1492 0.930 . S
H1452 C1494 0.930 . S
H1453 C1495 0.932 . S
H1454 C1497 0.930 . S
H1455 C1498 0.929 . S
H1456 C1500 0.931 . S
H1457 C1501 0.930 . S
H1458 C1503 0.929 . S
H1459 C1504 0.931 . S
H1460 C1506 0.930 . S
H1461 C1507 0.929 . S
O1462 H1436 0.856 . S
O1462 C1508 1.300 . S
O1463 C1508 1.209 . S
O1464 C1509 1.199 . S
O1465 H1437 0.854 . S
O1465 C1509 1.297 . S
C1466 C1467 1.404 . S
C1466 C1471 1.397 . S
C1466 C1472 1.492 . S
C1467 C1466 1.404 . S
C1467 C1468 1.396 . S
C1467 C1478 1.492 . S
C1468 C1467 1.396 . S
C1468 C1469 1.397 . S
C1468 C1484 1.509 . S
C1469 C1468 1.397 . S
C1469 C1470 1.412 . S
C1469 C1490 1.485 . S
C1470 C1469 1.412 . S
C1470 C1471 1.388 . S
C1470 C1496 1.490 . S
C1471 C1466 1.397 . S
C1471 C1470 1.388 . S
C1471 C1502 1.519 . S
C1472 C1466 1.492 . S
C1472 C1473 1.363 . S
C1472 C1477 1.390 . S
C1473 H1438 0.930 . S
C1473 C1472 1.363 . S
C1473 C1474 1.372 . S
C1474 H1439 0.930 . S
C1474 C1473 1.372 . S
C1474 C1475 1.383 . S
C1475 C1474 1.383 . S
C1475 C1476 1.395 . S
C1476 H1440 0.930 . S
C1476 C1475 1.395 . S
C1476 C1477 1.362 . S
C1477 H1441 0.930 . S
C1477 C1472 1.390 . S
C1477 C1476 1.362 . S
C1478 C1467 1.492 . S
C1478 C1479 1.377 . S
C1478 C1483 1.397 . S
C1479 H1442 0.931 . S
C1479 C1478 1.377 . S
C1479 C1480 1.376 . S
C1480 H1443 0.930 . S
C1480 C1479 1.376 . S
C1480 C1481 1.376 . S
C1481 C1480 1.376 . S
C1481 C1482 1.378 . S
C1481 C1508 1.486 . S
C1482 H1444 0.930 . S
C1482 C1481 1.378 . S
C1482 C1483 1.376 . S
C1483 H1445 0.929 . S
C1483 C1478 1.397 . S
C1483 C1482 1.376 . S
C1484 C1468 1.509 . S
C1484 C1485 1.391 . S
C1484 C1489 1.386 . S
C1485 H1446 0.930 . S
C1485 C1484 1.391 . S
C1485 C1486 1.375 . S
C1486 H1447 0.931 . S
C1486 C1485 1.375 . S
C1486 C1487 1.375 . S
C1487 C1486 1.375 . S
C1487 C1488 1.361 . S
C1488 H1448 0.930 . S
C1488 C1487 1.361 . S
C1488 C1489 1.399 . S
C1489 H1449 0.929 . S
C1489 C1484 1.386 . S
C1489 C1488 1.399 . S
C1490 C1469 1.485 . S
C1490 C1491 1.394 . S
C1490 C1495 1.360 . S
C1491 H1450 0.931 . S
C1491 C1490 1.394 . S
C1491 C1492 1.372 . S
C1492 H1451 0.930 . S
C1492 C1491 1.372 . S
C1492 C1493 1.397 . S
C1493 C1492 1.397 . S
C1493 C1494 1.390 . S
C1493 C1509 1.476 . S
C1494 H1452 0.930 . S
C1494 C1493 1.390 . S
C1494 C1495 1.366 . S
C1495 H1453 0.932 . S
C1495 C1490 1.360 . S
C1495 C1494 1.366 . S
C1496 C1470 1.490 . S
C1496 C1497 1.380 . S
C1496 C1501 1.386 . S
C1497 H1454 0.930 . S
C1497 C1496 1.380 . S
C1497 C1498 1.381 . S
C1498 H1455 0.929 . S
C1498 C1497 1.381 . S
C1498 C1499 1.371 . S
C1499 C1498 1.371 . S
C1499 C1500 1.380 . S
C1500 H1456 0.931 . S
C1500 C1499 1.380 . S
C1500 C1501 1.387 . S
C1501 H1457 0.930 . S
C1501 C1496 1.386 . S
C1501 C1500 1.387 . S
C1502 C1471 1.519 . S
C1502 C1503 1.377 . S
C1502 C1507 1.361 . S
C1503 H1458 0.929 . S
C1503 C1502 1.377 . S
C1503 C1504 1.386 . S
C1504 H1459 0.931 . S
C1504 C1503 1.386 . S
C1504 C1505 1.363 . S
C1505 C1504 1.363 . S
C1505 C1506 1.385 . S
C1506 H1460 0.930 . S
C1506 C1505 1.385 . S
C1506 C1507 1.396 . S
C1507 H1461 0.929 . S
C1507 C1502 1.361 . S
C1507 C1506 1.396 . S
C1508 O1462 1.300 . S
C1508 O1463 1.209 . S
C1508 C1481 1.486 . S
C1509 O1464 1.199 . S
C1509 O1465 1.297 . S
C1509 C1493 1.476 . S
H1510 O1536 0.856 . S
H1511 O1539 0.854 . S
H1512 C1547 0.930 . S
H1513 C1548 0.930 . S
H1514 C1550 0.930 . S
H1515 C1551 0.930 . S
H1516 C1553 0.931 . S
H1517 C1554 0.930 . S
H1518 C1556 0.930 . S
H1519 C1557 0.929 . S
H1520 C1559 0.930 . S
H1521 C1560 0.931 . S
H1522 C1562 0.930 . S
H1523 C1563 0.929 . S
H1524 C1565 0.931 . S
H1525 C1566 0.930 . S
H1526 C1568 0.930 . S
H1527 C1569 0.932 . S
H1528 C1571 0.930 . S
H1529 C1572 0.929 . S
H1530 C1574 0.931 . S
H1531 C1575 0.930 . S
H1532 C1577 0.929 . S
H1533 C1578 0.931 . S
H1534 C1580 0.930 . S
H1535 C1581 0.929 . S
O1536 H1510 0.856 . S
O1536 C1582 1.300 . S
O1537 C1582 1.209 . S
O1538 C1583 1.199 . S
O1539 H1511 0.854 . S
O1539 C1583 1.297 . S
C1540 C1541 1.404 . S
C1540 C1545 1.397 . S
C1540 C1546 1.492 . S
C1541 C1540 1.404 . S
C1541 C1542 1.396 . S
C1541 C1552 1.492 . S
C1542 C1541 1.396 . S
C1542 C1543 1.397 . S
C1542 C1558 1.509 . S
C1543 C1542 1.397 . S
C1543 C1544 1.412 . S
C1543 C1564 1.485 . S
C1544 C1543 1.412 . S
C1544 C1545 1.388 . S
C1544 C1570 1.490 . S
C1545 C1540 1.397 . S
C1545 C1544 1.388 . S
C1545 C1576 1.519 . S
C1546 C1540 1.492 . S
C1546 C1547 1.363 . S
C1546 C1551 1.390 . S
C1547 H1512 0.930 . S
C1547 C1546 1.363 . S
C1547 C1548 1.372 . S
C1548 H1513 0.930 . S
C1548 C1547 1.372 . S
C1548 C1549 1.383 . S
C1549 C1548 1.383 . S
C1549 C1550 1.395 . S
C1550 H1514 0.930 . S
C1550 C1549 1.395 . S
C1550 C1551 1.362 . S
C1551 H1515 0.930 . S
C1551 C1546 1.390 . S
C1551 C1550 1.362 . S
C1552 C1541 1.492 . S
C1552 C1553 1.377 . S
C1552 C1557 1.397 . S
C1553 H1516 0.931 . S
C1553 C1552 1.377 . S
C1553 C1554 1.376 . S
C1554 H1517 0.930 . S
C1554 C1553 1.376 . S
C1554 C1555 1.376 . S
C1555 C1554 1.376 . S
C1555 C1556 1.378 . S
C1555 C1582 1.486 . S
C1556 H1518 0.930 . S
C1556 C1555 1.378 . S
C1556 C1557 1.376 . S
C1557 H1519 0.929 . S
C1557 C1552 1.397 . S
C1557 C1556 1.376 . S
C1558 C1542 1.509 . S
C1558 C1559 1.391 . S
C1558 C1563 1.386 . S
C1559 H1520 0.930 . S
C1559 C1558 1.391 . S
C1559 C1560 1.375 . S
C1560 H1521 0.931 . S
C1560 C1559 1.375 . S
C1560 C1561 1.375 . S
C1561 C1560 1.375 . S
C1561 C1562 1.361 . S
C1562 H1522 0.930 . S
C1562 C1561 1.361 . S
C1562 C1563 1.399 . S
C1563 H1523 0.929 . S
C1563 C1558 1.386 . S
C1563 C1562 1.399 . S
C1564 C1543 1.485 . S
C1564 C1565 1.394 . S
C1564 C1569 1.360 . S
C1565 H1524 0.931 . S
C1565 C1564 1.394 . S
C1565 C1566 1.372 . S
C1566 H1525 0.930 . S
C1566 C1565 1.372 . S
C1566 C1567 1.397 . S
C1567 C1566 1.397 . S
C1567 C1568 1.390 . S
C1567 C1583 1.476 . S
C1568 H1526 0.930 . S
C1568 C1567 1.390 . S
C1568 C1569 1.366 . S
C1569 H1527 0.932 . S
C1569 C1564 1.360 . S
C1569 C1568 1.366 . S
C1570 C1544 1.490 . S
C1570 C1571 1.380 . S
C1570 C1575 1.386 . S
C1571 H1528 0.930 . S
C1571 C1570 1.380 . S
C1571 C1572 1.381 . S
C1572 H1529 0.929 . S
C1572 C1571 1.381 . S
C1572 C1573 1.371 . S
C1573 C1572 1.371 . S
C1573 C1574 1.380 . S
C1574 H1530 0.931 . S
C1574 C1573 1.380 . S
C1574 C1575 1.387 . S
C1575 H1531 0.930 . S
C1575 C1570 1.386 . S
C1575 C1574 1.387 . S
C1576 C1545 1.519 . S
C1576 C1577 1.377 . S
C1576 C1581 1.361 . S
C1577 H1532 0.929 . S
C1577 C1576 1.377 . S
C1577 C1578 1.386 . S
C1578 H1533 0.931 . S
C1578 C1577 1.386 . S
C1578 C1579 1.363 . S
C1579 C1578 1.363 . S
C1579 C1580 1.385 . S
C1580 H1534 0.930 . S
C1580 C1579 1.385 . S
C1580 C1581 1.396 . S
C1581 H1535 0.929 . S
C1581 C1576 1.361 . S
C1581 C1580 1.396 . S
C1582 O1536 1.300 . S
C1582 O1537 1.209 . S
C1582 C1555 1.486 . S
C1583 O1538 1.199 . S
C1583 O1539 1.297 . S
C1583 C1567 1.476 . S
H1584 C1592 0.929 . S
H1585 C1594 0.930 . S
H1586 C1596 0.930 . S
H1587 C1599 0.929 . S
H1588 C1602 0.930 . S
H1589 C1604 0.960 . S
H1590 C1604 0.960 . S
H1591 C1604 0.952 1_655 S
C1592 H1584 0.929 . S
C1592 C1593 1.378 . S
C1592 C1594 1.384 . S
C1593 C1592 1.378 . S
C1593 C1599 1.377 1_455 S
C1594 H1585 0.930 . S
C1594 C1592 1.384 . S
C1594 C1595 1.372 1_455 S
C1595 C1594 1.372 1_655 S
C1595 C1596 1.400 . S
C1595 C1600 1.490 . S
C1596 H1586 0.930 . S
C1596 C1595 1.400 . S
C1596 C1599 1.386 . S
H1597 C1613 0.930 . S
H1598 C1614 0.931 . S
C1599 H1587 0.929 . S
C1599 C1593 1.377 1_655 S
C1599 C1596 1.386 . S
C1600 C1595 1.490 . S
C1600 C1602 1.395 . S
C1600 C1603 1.419 . S
H1601 C1607 0.930 . S
C1602 H1588 0.930 . S
C1602 C1600 1.395 . S
C1602 C1605 1.403 . S
C1603 C1600 1.419 . S
C1603 C1604 1.475 1_655 S
C1603 C1607 1.436 . S
C1604 H1589 0.960 . S
C1604 H1590 0.960 . S
C1604 H1591 0.952 1_455 S
C1604 C1603 1.475 1_455 S
C1605 C1602 1.403 . S
C1605 C1606 1.392 . S
C1605 C1609 1.495 . S
C1606 C1605 1.392 . S
C1606 C1607 1.385 . S
C1606 C1608 1.478 . S
C1607 H1601 0.930 . S
C1607 C1603 1.436 . S
C1607 C1606 1.385 . S
C1608 C1606 1.478 . S
C1608 C1610 1.381 . S
C1608 C1614 1.383 . S
C1609 C1605 1.495 . S
C1609 H1615 0.959 . S
C1609 H1616 0.961 . S
C1609 H1617 0.960 . S
C1610 C1608 1.381 . S
C1610 C1611 1.394 . S
C1610 H1618 0.930 1_655 S
C1611 C1610 1.394 . S
C1611 C1612 1.383 . S
C1611 H1619 0.929 1_655 S
C1612 C1611 1.383 . S
C1612 C1613 1.377 . S
C1613 H1597 0.930 . S
C1613 C1612 1.377 . S
C1613 C1614 1.379 . S
C1614 H1598 0.931 . S
C1614 C1608 1.383 . S
C1614 C1613 1.379 . S
H1615 C1609 0.959 . S
H1616 C1609 0.961 . S
H1617 C1609 0.960 . S
H1618 C1610 0.930 1_455 S
H1619 C1611 0.929 1_455 S
H1620 C1628 0.929 . S
H1621 C1630 0.930 . S
H1622 C1632 0.930 . S
H1623 C1635 0.929 . S
H1624 C1638 0.930 . S
H1625 C1640 0.960 . S
H1626 C1640 0.960 . S
H1627 C1640 0.960 . S
C1628 H1620 0.929 . S
C1628 C1629 1.377 . S
C1628 C1630 1.384 . S
C1629 C1628 1.377 . S
C1629 C1635 1.390 . S
C1630 H1621 0.930 . S
C1630 C1628 1.384 . S
C1630 C1631 1.372 . S
C1631 C1630 1.372 . S
C1631 C1632 1.400 . S
C1631 C1636 1.490 . S
C1632 H1622 0.930 . S
C1632 C1631 1.400 . S
C1632 C1635 1.386 . S
H1633 C1649 0.930 . S
H1634 C1650 0.931 . S
C1635 H1623 0.929 . S
C1635 C1629 1.390 . S
C1635 C1632 1.386 . S
C1636 C1631 1.490 . S
C1636 C1638 1.395 . S
C1636 C1639 1.403 . S
H1637 C1643 0.930 . S
C1638 H1624 0.930 . S
C1638 C1636 1.395 . S
C1638 C1641 1.403 . S
C1639 C1636 1.403 . S
C1639 C1640 1.524 . S
C1639 C1643 1.400 . S
C1640 H1625 0.960 . S
C1640 H1626 0.960 . S
C1640 H1627 0.960 . S
C1640 C1639 1.524 . S
C1641 C1638 1.403 . S
C1641 C1642 1.392 . S
C1641 C1645 1.495 . S
C1642 C1641 1.392 . S
C1642 C1643 1.385 . S
C1642 C1644 1.478 . S
C1643 H1637 0.930 . S
C1643 C1639 1.400 . S
C1643 C1642 1.385 . S
C1644 C1642 1.478 . S
C1644 C1646 1.381 . S
C1644 C1650 1.383 . S
C1645 C1641 1.495 . S
C1645 H1651 0.959 . S
C1645 H1652 0.961 . S
C1645 H1653 0.960 . S
C1646 C1644 1.381 . S
C1646 C1647 1.394 . S
C1646 H1654 0.930 . S
C1647 C1646 1.394 . S
C1647 C1648 1.383 . S
C1647 H1655 0.929 . S
C1648 C1647 1.383 . S
C1648 C1649 1.377 . S
C1649 H1633 0.930 . S
C1649 C1648 1.377 . S
C1649 C1650 1.379 . S
C1650 H1634 0.931 . S
C1650 C1644 1.383 . S
C1650 C1649 1.379 . S
H1651 C1645 0.959 . S
H1652 C1645 0.961 . S
H1653 C1645 0.960 . S
H1654 C1646 0.930 . S
H1655 C1647 0.929 . S
H1656 C1664 0.929 . S
H1657 C1666 0.930 . S
H1658 C1668 0.949 . S
H1659 C1671 0.929 . S
H1660 C1674 0.930 . S
H1661 C1676 0.960 . S
H1662 C1676 0.960 . S
H1663 C1676 0.960 . S
C1664 H1656 0.929 . S
C1664 C1665 1.377 . S
C1664 C1666 1.384 . S
C1665 C1664 1.377 . S
C1665 C1671 1.390 1_545 S
C1666 H1657 0.930 . S
C1666 C1664 1.384 . S
C1666 C1667 1.372 . S
C1667 C1666 1.372 . S
C1667 C1668 1.387 1_545 S
C1667 C1672 1.490 . S
C1668 H1658 0.949 . S
C1668 C1667 1.387 1_565 S
C1668 C1671 1.379 . S
H1669 C1685 0.898 1_565 S
H1670 C1686 0.935 1_565 S
C1671 H1659 0.929 . S
C1671 C1665 1.390 1_565 S
C1671 C1668 1.379 . S
C1672 C1667 1.490 . S
C1672 C1674 1.395 . S
C1672 C1675 1.403 . S
H1673 C1679 0.930 . S
C1674 H1660 0.930 . S
C1674 C1672 1.395 . S
C1674 C1677 1.403 . S
C1675 C1672 1.403 . S
C1675 C1676 1.524 . S
C1675 C1679 1.400 . S
C1676 H1661 0.960 . S
C1676 H1662 0.960 . S
C1676 H1663 0.960 . S
C1676 C1675 1.524 . S
C1677 C1674 1.403 . S
C1677 C1678 1.392 . S
C1677 C1681 1.495 . S
C1678 C1677 1.392 . S
C1678 C1679 1.385 . S
C1678 C1680 1.478 . S
C1679 H1673 0.930 . S
C1679 C1675 1.400 . S
C1679 C1678 1.385 . S
C1680 C1678 1.478 . S
C1680 C1682 1.381 . S
C1680 C1686 1.375 . S
C1681 C1677 1.495 . S
C1681 H1687 0.959 . S
C1681 H1688 0.961 . S
C1681 H1689 0.960 . S
C1682 C1680 1.381 . S
C1682 C1683 1.394 . S
C1682 H1690 0.930 . S
C1683 C1682 1.394 . S
C1683 C1684 1.383 . S
C1683 H1691 0.929 . S
C1684 C1683 1.383 . S
C1684 C1685 1.396 . S
C1685 H1669 0.898 1_545 S
C1685 C1684 1.396 . S
C1685 C1686 1.395 . S
C1686 H1670 0.935 1_545 S
C1686 C1680 1.375 . S
C1686 C1685 1.395 . S
H1687 C1681 0.959 . S
H1688 C1681 0.961 . S
H1689 C1681 0.960 . S
H1690 C1682 0.930 . S
H1691 C1683 0.929 . S
H1692 C1700 0.929 . S
H1693 C1702 0.930 . S
H1694 C1704 0.930 . S
H1695 C1707 0.918 . S
H1696 C1710 0.930 . S
H1697 C1712 0.960 . S
H1698 C1712 0.960 . S
H1699 C1712 0.960 . S
C1700 H1692 0.929 . S
C1700 C1701 1.377 . S
C1700 C1702 1.384 . S
C1701 C1700 1.377 . S
C1701 C1707 1.390 . S
C1702 H1693 0.930 . S
C1702 C1700 1.384 . S
C1702 C1703 1.372 . S
C1703 C1702 1.372 . S
C1703 C1704 1.400 . S
C1703 C1708 1.490 . S
C1704 H1694 0.930 . S
C1704 C1703 1.400 . S
C1704 C1707 1.386 . S
H1705 C1721 0.930 . S
H1706 C1722 0.931 . S
C1707 H1695 0.918 . S
C1707 C1701 1.390 . S
C1707 C1704 1.386 . S
C1708 C1703 1.490 . S
C1708 C1710 1.395 1_565 S
C1708 C1711 1.403 . S
H1709 C1715 0.930 . S
C1710 H1696 0.930 . S
C1710 C1708 1.395 1_545 S
C1710 C1713 1.403 . S
C1711 C1708 1.403 . S
C1711 C1712 1.524 . S
C1711 C1715 1.400 . S
C1712 H1697 0.960 . S
C1712 H1698 0.960 . S
C1712 H1699 0.960 . S
C1712 C1711 1.524 . S
C1713 C1710 1.403 . S
C1713 C1714 1.392 1_545 S
C1713 C1717 1.495 . S
C1714 C1713 1.392 1_565 S
C1714 C1715 1.385 . S
C1714 C1716 1.478 . S
C1715 H1709 0.930 . S
C1715 C1711 1.400 . S
C1715 C1714 1.385 . S
C1716 C1714 1.478 . S
C1716 C1718 1.381 . S
C1716 C1722 1.383 . S
C1717 C1713 1.495 . S
C1717 H1723 0.959 . S
C1717 H1724 0.961 . S
C1717 H1725 0.960 . S
C1718 C1716 1.381 . S
C1718 C1719 1.394 . S
C1718 H1726 0.930 . S
C1719 C1718 1.394 . S
C1719 C1720 1.383 . S
C1719 H1727 0.929 . S
C1720 C1719 1.383 . S
C1720 C1721 1.377 . S
C1721 H1705 0.930 . S
C1721 C1720 1.377 . S
C1721 C1722 1.379 . S
C1722 H1706 0.931 . S
C1722 C1716 1.383 . S
C1722 C1721 1.379 . S
H1723 C1717 0.959 . S
H1724 C1717 0.961 . S
H1725 C1717 0.960 . S
H1726 C1718 0.930 . S
H1727 C1719 0.929 . S
H1728 C1736 0.989 . S
H1729 C1738 0.930 . S
H1730 C1740 0.930 . S
H1731 C1743 0.929 . S
H1732 C1746 0.930 . S
H1733 C1748 0.960 . S
H1734 C1748 0.960 . S
H1735 C1748 0.960 . S
C1736 H1728 0.989 . S
C1736 C1737 1.377 . S
C1736 C1738 1.384 . S
C1737 C1736 1.377 . S
C1737 C1743 1.390 . S
C1738 H1729 0.930 . S
C1738 C1736 1.384 . S
C1738 C1739 1.372 . S
C1739 C1738 1.372 . S
C1739 C1740 1.400 . S
C1739 C1744 1.490 . S
C1740 H1730 0.930 . S
C1740 C1739 1.400 . S
C1740 C1743 1.386 . S
H1741 C1757 0.930 . S
H1742 C1758 0.931 . S
C1743 H1731 0.929 . S
C1743 C1737 1.390 . S
C1743 C1740 1.386 . S
C1744 C1739 1.490 . S
C1744 C1746 1.395 . S
C1744 C1747 1.363 1_455 S
H1745 C1751 0.890 1_655 S
C1746 H1732 0.930 . S
C1746 C1744 1.395 . S
C1746 C1749 1.403 . S
C1747 C1744 1.363 1_655 S
C1747 C1748 1.549 . S
C1747 C1751 1.449 1_655 S
C1748 H1733 0.960 . S
C1748 H1734 0.960 . S
C1748 H1735 0.960 . S
C1748 C1747 1.549 . S
C1749 C1746 1.403 . S
C1749 C1750 1.392 . S
C1749 C1753 1.495 . S
C1750 C1749 1.392 . S
C1750 C1751 1.408 . S
C1750 C1752 1.478 . S
C1751 H1745 0.890 1_455 S
C1751 C1747 1.449 1_455 S
C1751 C1750 1.408 . S
C1752 C1750 1.478 . S
C1752 C1754 1.381 . S
C1752 C1758 1.383 . S
C1753 C1749 1.495 . S
C1753 H1759 0.959 . S
C1753 H1760 0.961 . S
C1753 H1761 0.960 . S
C1754 C1752 1.381 . S
C1754 C1755 1.394 . S
C1754 H1762 0.930 . S
C1755 C1754 1.394 . S
C1755 C1756 1.383 . S
C1755 H1763 0.929 . S
C1756 C1755 1.383 . S
C1756 C1757 1.377 . S
C1757 H1741 0.930 . S
C1757 C1756 1.377 . S
C1757 C1758 1.379 . S
C1758 H1742 0.931 . S
C1758 C1752 1.383 . S
C1758 C1757 1.379 . S
H1759 C1753 0.959 . S
H1760 C1753 0.961 . S
H1761 C1753 0.960 . S
H1762 C1754 0.930 . S
H1763 C1755 0.929 . S
H1764 C1772 0.929 . S
H1765 C1774 0.930 . S
H1766 C1776 0.931 1_556 S
H1767 C1779 0.929 . S
H1768 C1782 0.930 . S
H1769 C1784 0.960 . S
H1770 C1784 0.960 . S
H1771 C1784 0.960 . S
C1772 H1764 0.929 . S
C1772 C1773 1.377 . S
C1772 C1774 1.384 1_554 S
C1773 C1772 1.377 . S
C1773 C1779 1.390 . S
C1774 H1765 0.930 . S
C1774 C1772 1.384 1_556 S
C1774 C1775 1.372 . S
C1775 C1774 1.372 . S
C1775 C1776 1.403 1_556 S
C1775 C1780 1.490 . S
C1776 H1766 0.931 1_554 S
C1776 C1775 1.403 1_554 S
C1776 C1779 1.381 . S
H1777 C1793 0.930 . S
H1778 C1794 0.931 . S
C1779 H1767 0.929 . S
C1779 C1773 1.390 . S
C1779 C1776 1.381 . S
C1780 C1775 1.490 . S
C1780 C1782 1.395 . S
C1780 C1783 1.403 . S
H1781 C1787 0.930 . S
C1782 H1768 0.930 . S
C1782 C1780 1.395 . S
C1782 C1785 1.403 . S
C1783 C1780 1.403 . S
C1783 C1784 1.524 . S
C1783 C1787 1.400 . S
C1784 H1769 0.960 . S
C1784 H1770 0.960 . S
C1784 H1771 0.960 . S
C1784 C1783 1.524 . S
C1785 C1782 1.403 . S
C1785 C1786 1.392 . S
C1785 C1789 1.495 . S
C1786 C1785 1.392 . S
C1786 C1787 1.385 . S
C1786 C1788 1.478 . S
C1787 H1781 0.930 . S
C1787 C1783 1.400 . S
C1787 C1786 1.385 . S
C1788 C1786 1.478 . S
C1788 C1790 1.381 . S
C1788 C1794 1.383 . S
C1789 C1785 1.495 . S
C1789 H1795 0.959 . S
C1789 H1796 0.961 . S
C1789 H1797 0.960 . S
C1790 C1788 1.381 . S
C1790 C1791 1.394 . S
C1790 H1798 0.930 . S
C1791 C1790 1.394 . S
C1791 C1792 1.383 . S
C1791 H1799 0.929 . S
C1792 C1791 1.383 . S
C1792 C1793 1.377 . S
C1793 H1777 0.930 . S
C1793 C1792 1.377 . S
C1793 C1794 1.379 . S
C1794 H1778 0.931 . S
C1794 C1788 1.383 . S
C1794 C1793 1.379 . S
H1795 C1789 0.959 . S
H1796 C1789 0.961 . S
H1797 C1789 0.960 . S
H1798 C1790 0.930 . S
H1799 C1791 0.929 . S
H1800 C1808 0.929 . S
H1801 C1810 0.930 . S
H1802 C1812 0.930 . S
H1803 C1815 0.929 . S
H1804 C1818 0.930 . S
H1805 C1820 0.960 . S
H1806 C1820 0.960 . S
H1807 C1820 0.960 . S
C1808 H1800 0.929 . S
C1808 C1809 1.377 1_556 S
C1808 C1810 1.384 . S
C1809 C1808 1.377 1_554 S
C1809 C1815 1.390 1_455 S
C1810 H1801 0.930 . S
C1810 C1808 1.384 . S
C1810 C1811 1.372 . S
C1811 C1810 1.372 . S
C1811 C1812 1.400 1_455 S
C1811 C1816 1.490 . S
C1812 H1802 0.930 . S
C1812 C1811 1.400 1_655 S
C1812 C1815 1.386 1_556 S
H1813 C1829 0.930 . S
H1814 C1830 0.931 . S
C1815 H1803 0.929 . S
C1815 C1809 1.390 1_655 S
C1815 C1812 1.386 1_554 S
C1816 C1811 1.490 . S
C1816 C1818 1.395 . S
C1816 C1819 1.403 1_455 S
H1817 C1823 0.930 . S
C1818 H1804 0.930 . S
C1818 C1816 1.395 . S
C1818 C1821 1.403 . S
C1819 C1816 1.403 1_655 S
C1819 C1820 1.524 . S
C1819 C1823 1.400 . S
C1820 H1805 0.960 . S
C1820 H1806 0.960 . S
C1820 H1807 0.960 . S
C1820 C1819 1.524 . S
C1821 C1818 1.403 . S
C1821 C1822 1.392 . S
C1821 C1825 1.495 . S
C1822 C1821 1.392 . S
C1822 C1823 1.385 1_455 S
C1822 C1824 1.478 . S
C1823 H1817 0.930 . S
C1823 C1819 1.400 . S
C1823 C1822 1.385 1_655 S
C1824 C1822 1.478 . S
C1824 C1826 1.381 . S
C1824 C1830 1.383 1_455 S
C1825 C1821 1.495 . S
C1825 H1831 0.959 . S
C1825 H1832 0.961 . S
C1825 H1833 0.960 . S
C1826 C1824 1.381 . S
C1826 C1827 1.394 . S
C1826 H1834 0.930 . S
C1827 C1826 1.394 . S
C1827 C1828 1.383 . S
C1827 H1835 0.929 . S
C1828 C1827 1.383 . S
C1828 C1829 1.377 1_455 S
C1829 H1813 0.930 . S
C1829 C1828 1.377 1_655 S
C1829 C1830 1.379 . S
C1830 H1814 0.931 . S
C1830 C1824 1.383 1_655 S
C1830 C1829 1.379 . S
H1831 C1825 0.959 . S
H1832 C1825 0.961 . S
H1833 C1825 0.960 . S
H1834 C1826 0.930 . S
H1835 C1827 0.929 . S
H1836 C1844 0.929 . S
H1837 C1846 0.930 . S
H1838 C1848 0.930 . S
H1839 C1851 0.929 . S
H1840 C1854 0.930 . S
H1841 C1856 0.960 . S
H1842 C1856 0.960 . S
H1843 C1856 0.960 . S
C1844 H1836 0.929 . S
C1844 C1845 1.377 . S
C1844 C1846 1.384 . S
C1845 C1844 1.377 . S
C1845 C1851 1.390 . S
C1846 H1837 0.930 . S
C1846 C1844 1.384 . S
C1846 C1847 1.372 . S
C1847 C1846 1.372 . S
C1847 C1848 1.400 . S
C1847 C1852 1.490 . S
C1848 H1838 0.930 . S
C1848 C1847 1.400 . S
C1848 C1851 1.386 . S
H1849 C1865 0.930 . S
H1850 C1866 0.931 . S
C1851 H1839 0.929 . S
C1851 C1845 1.390 . S
C1851 C1848 1.386 . S
C1852 C1847 1.490 . S
C1852 C1854 1.395 . S
C1852 C1855 1.403 . S
H1853 C1859 0.930 . S
C1854 H1840 0.930 . S
C1854 C1852 1.395 . S
C1854 C1857 1.403 . S
C1855 C1852 1.403 . S
C1855 C1856 1.524 . S
C1855 C1859 1.400 . S
C1856 H1841 0.960 . S
C1856 H1842 0.960 . S
C1856 H1843 0.960 . S
C1856 C1855 1.524 . S
C1857 C1854 1.403 . S
C1857 C1858 1.392 . S
C1857 C1861 1.495 . S
C1858 C1857 1.392 . S
C1858 C1859 1.385 . S
C1858 C1860 1.478 . S
C1859 H1853 0.930 . S
C1859 C1855 1.400 . S
C1859 C1858 1.385 . S
C1860 C1858 1.478 . S
C1860 C1862 1.381 . S
C1860 C1866 1.383 . S
C1861 C1857 1.495 . S
C1861 H1867 0.959 . S
C1861 H1868 0.961 . S
C1861 H1869 0.960 . S
C1862 C1860 1.381 . S
C1862 C1863 1.394 . S
C1862 H1870 0.930 . S
C1863 C1862 1.394 . S
C1863 C1864 1.383 . S
C1863 H1871 0.929 . S
C1864 C1863 1.383 . S
C1864 C1865 1.377 . S
C1865 H1849 0.930 . S
C1865 C1864 1.377 . S
C1865 C1866 1.379 . S
C1866 H1850 0.931 . S
C1866 C1860 1.383 . S
C1866 C1865 1.379 . S
H1867 C1861 0.959 . S
H1868 C1861 0.961 . S
H1869 C1861 0.960 . S
H1870 C1862 0.930 . S
H1871 C1863 0.929 . S
H1872 C1880 0.929 . S
H1873 C1882 0.930 . S
H1874 C1884 0.930 . S
H1875 C1887 0.929 . S
H1876 C1890 0.930 . S
H1877 C1892 0.960 . S
H1878 C1892 0.960 . S
H1879 C1892 0.960 . S
C1880 H1872 0.929 . S
C1880 C1881 1.377 . S
C1880 C1882 1.384 1_554 S
C1881 C1880 1.377 . S
C1881 C1887 1.390 1_554 S
C1882 H1873 0.930 . S
C1882 C1880 1.384 1_556 S
C1882 C1883 1.372 . S
C1883 C1882 1.372 . S
C1883 C1884 1.400 . S
C1883 C1888 1.490 . S
C1884 H1874 0.930 . S
C1884 C1883 1.400 . S
C1884 C1887 1.386 . S
H1885 C1901 0.930 . S
H1886 C1902 0.931 . S
C1887 H1875 0.929 . S
C1887 C1881 1.390 1_556 S
C1887 C1884 1.386 . S
C1888 C1883 1.490 . S
C1888 C1890 1.395 1_565 S
C1888 C1891 1.403 . S
H1889 C1895 0.930 . S
C1890 H1876 0.930 . S
C1890 C1888 1.395 1_545 S
C1890 C1893 1.403 . S
C1891 C1888 1.403 . S
C1891 C1892 1.524 . S
C1891 C1895 1.400 . S
C1892 H1877 0.960 . S
C1892 H1878 0.960 . S
C1892 H1879 0.960 . S
C1892 C1891 1.524 . S
C1893 C1890 1.403 . S
C1893 C1894 1.392 . S
C1893 C1897 1.495 . S
C1894 C1893 1.392 . S
C1894 C1895 1.385 1_545 S
C1894 C1896 1.478 . S
C1895 H1889 0.930 . S
C1895 C1891 1.400 . S
C1895 C1894 1.385 1_565 S
C1896 C1894 1.478 . S
C1896 C1898 1.381 . S
C1896 C1902 1.383 . S
C1897 C1893 1.495 . S
C1897 H1903 0.959 . S
C1897 H1904 0.961 . S
C1897 H1905 0.960 . S
C1898 C1896 1.381 . S
C1898 C1899 1.394 . S
C1898 H1906 0.930 . S
C1899 C1898 1.394 . S
C1899 C1900 1.383 . S
C1899 H1907 0.916 . S
C1900 C1899 1.383 . S
C1900 C1901 1.377 . S
C1901 H1885 0.930 . S
C1901 C1900 1.377 . S
C1901 C1902 1.379 . S
C1902 H1886 0.931 . S
C1902 C1896 1.383 . S
C1902 C1901 1.379 . S
H1903 C1897 0.959 . S
H1904 C1897 0.961 . S
H1905 C1897 0.960 . S
H1906 C1898 0.930 . S
H1907 C1899 0.916 . S
H1908 C1916 0.929 . S
H1909 C1918 0.930 . S
H1910 C1920 0.930 . S
H1911 C1923 0.929 . S
H1912 C1926 0.930 . S
H1913 C1928 0.960 . S
H1914 C1928 0.960 . S
H1915 C1928 0.960 . S
C1916 H1908 0.929 . S
C1916 C1917 1.377 . S
C1916 C1918 1.384 . S
C1917 C1916 1.377 . S
C1917 C1923 1.390 . S
C1918 H1909 0.930 . S
C1918 C1916 1.384 . S
C1918 C1919 1.372 . S
C1919 C1918 1.372 . S
C1919 C1920 1.400 . S
C1919 C1924 1.490 . S
C1920 H1910 0.930 . S
C1920 C1919 1.400 . S
C1920 C1923 1.386 . S
H1921 C1937 0.930 . S
H1922 C1938 0.931 . S
C1923 H1911 0.929 . S
C1923 C1917 1.390 . S
C1923 C1920 1.386 . S
C1924 C1919 1.490 . S
C1924 C1926 1.395 1_545 S
C1924 C1927 1.403 . S
H1925 C1931 0.930 . S
C1926 H1912 0.930 . S
C1926 C1924 1.395 1_565 S
C1926 C1929 1.403 . S
C1927 C1924 1.403 . S
C1927 C1928 1.524 . S
C1927 C1931 1.400 . S
C1928 H1913 0.960 . S
C1928 H1914 0.960 . S
C1928 H1915 0.960 . S
C1928 C1927 1.524 . S
C1929 C1926 1.403 . S
C1929 C1930 1.414 . S
C1929 C1933 1.495 . S
C1930 C1929 1.414 . S
C1930 C1931 1.371 1_565 S
C1930 C1932 1.470 . S
C1931 H1925 0.930 . S
C1931 C1927 1.400 . S
C1931 C1930 1.371 1_545 S
C1932 C1930 1.470 . S
C1932 C1934 1.385 . S
C1932 C1938 1.383 . S
C1933 C1929 1.495 . S
C1933 H1939 0.959 . S
C1933 H1940 0.961 . S
C1933 H1941 0.960 . S
C1934 C1932 1.385 . S
C1934 C1935 1.392 . S
C1934 H1942 0.905 1_565 S
C1935 C1934 1.392 . S
C1935 C1936 1.382 . S
C1935 H1943 0.931 1_565 S
C1936 C1935 1.382 . S
C1936 C1937 1.377 . S
C1937 H1921 0.930 . S
C1937 C1936 1.377 . S
C1937 C1938 1.379 . S
C1938 H1922 0.931 . S
C1938 C1932 1.383 . S
C1938 C1937 1.379 . S
H1939 C1933 0.959 . S
H1940 C1933 0.961 . S
H1941 C1933 0.960 . S
H1942 C1934 0.905 1_545 S
H1943 C1935 0.931 1_545 S
H1944 C1952 0.929 . S
H1945 C1954 0.930 . S
H1946 C1956 0.930 . S
H1947 C1959 0.929 . S
H1948 C1962 0.930 . S
H1949 C1964 0.960 . S
H1950 C1964 0.960 . S
H1951 C1964 0.960 . S
C1952 H1944 0.929 . S
C1952 C1953 1.377 1_455 S
C1952 C1954 1.384 . S
C1953 C1952 1.377 1_655 S
C1953 C1959 1.390 . S
C1954 H1945 0.930 . S
C1954 C1952 1.384 . S
C1954 C1955 1.372 1_455 S
C1955 C1954 1.372 1_655 S
C1955 C1956 1.400 . S
C1955 C1960 1.490 . S
C1956 H1946 0.930 . S
C1956 C1955 1.400 . S
C1956 C1959 1.386 . S
H1957 C1973 0.930 . S
H1958 C1974 0.931 . S
C1959 H1947 0.929 . S
C1959 C1953 1.390 . S
C1959 C1956 1.386 . S
C1960 C1955 1.490 . S
C1960 C1962 1.395 1_655 S
C1960 C1963 1.403 . S
H1961 C1967 0.930 . S
C1962 H1948 0.930 . S
C1962 C1960 1.395 1_455 S
C1962 C1965 1.403 . S
C1963 C1960 1.403 . S
C1963 C1964 1.524 . S
C1963 C1967 1.400 . S
C1964 H1949 0.960 . S
C1964 H1950 0.960 . S
C1964 H1951 0.960 . S
C1964 C1963 1.524 . S
C1965 C1962 1.403 . S
C1965 C1966 1.389 . S
C1965 C1969 1.495 . S
C1966 C1965 1.389 . S
C1966 C1967 1.379 1_455 S
C1966 C1968 1.475 . S
C1967 H1961 0.930 . S
C1967 C1963 1.400 . S
C1967 C1966 1.379 1_655 S
C1968 C1966 1.475 . S
C1968 C1970 1.420 . S
C1968 C1974 1.359 1_455 S
C1969 C1965 1.495 . S
C1969 H1975 0.959 . S
C1969 H1976 0.961 . S
C1969 H1977 0.960 . S
C1970 C1968 1.420 . S
C1970 C1971 1.394 . S
C1970 H1978 0.930 . S
C1971 C1970 1.394 . S
C1971 C1972 1.387 . S
C1971 H1979 0.929 . S
C1972 C1971 1.387 . S
C1972 C1973 1.371 1_455 S
C1973 H1957 0.930 . S
C1973 C1972 1.371 1_655 S
C1973 C1974 1.379 . S
C1974 H1958 0.931 . S
C1974 C1968 1.359 1_655 S
C1974 C1973 1.379 . S
H1975 C1969 0.959 . S
H1976 C1969 0.961 . S
H1977 C1969 0.960 . S
H1978 C1970 0.930 . S
H1979 C1971 0.929 . S
H1980 C1988 0.929 . S
H1981 C1990 0.930 . S
H1982 C1992 0.930 . S
H1983 C1995 0.929 . S
H1984 C1998 0.930 . S
H1985 C2000 0.960 . S
H1986 C2000 0.960 . S
H1987 C2000 0.960 . S
C1988 H1980 0.929 . S
C1988 C1989 1.377 . S
C1988 C1990 1.384 . S
C1989 C1988 1.377 . S
C1989 C1995 1.390 . S
C1990 H1981 0.930 . S
C1990 C1988 1.384 . S
C1990 C1991 1.372 . S
C1991 C1990 1.372 . S
C1991 C1992 1.400 . S
C1991 C1996 1.490 . S
C1992 H1982 0.930 . S
C1992 C1991 1.400 . S
C1992 C1995 1.386 . S
H1993 C2009 0.930 . S
H1994 C2010 0.931 . S
C1995 H1983 0.929 . S
C1995 C1989 1.390 . S
C1995 C1992 1.386 . S
C1996 C1991 1.490 . S
C1996 C1998 1.395 . S
C1996 C1999 1.403 . S
H1997 C2003 0.930 . S
C1998 H1984 0.930 . S
C1998 C1996 1.395 . S
C1998 C2001 1.403 . S
C1999 C1996 1.403 . S
C1999 C2000 1.524 . S
C1999 C2003 1.400 . S
C2000 H1985 0.960 . S
C2000 H1986 0.960 . S
C2000 H1987 0.960 . S
C2000 C1999 1.524 . S
C2001 C1998 1.403 . S
C2001 C2002 1.392 . S
C2001 C2005 1.495 . S
C2002 C2001 1.392 . S
C2002 C2003 1.385 . S
C2002 C2004 1.478 . S
C2003 H1997 0.930 . S
C2003 C1999 1.400 . S
C2003 C2002 1.385 . S
C2004 C2002 1.478 . S
C2004 C2006 1.381 . S
C2004 C2010 1.383 . S
C2005 C2001 1.495 . S
C2005 H2011 0.959 . S
C2005 H2012 0.961 . S
C2005 H2013 0.960 . S
C2006 C2004 1.381 . S
C2006 C2007 1.394 . S
C2006 H2014 0.930 . S
C2007 C2006 1.394 . S
C2007 C2008 1.383 . S
C2007 H2015 0.929 . S
C2008 C2007 1.383 . S
C2008 C2009 1.377 . S
C2009 H1993 0.930 . S
C2009 C2008 1.377 . S
C2009 C2010 1.379 . S
C2010 H1994 0.931 . S
C2010 C2004 1.383 . S
C2010 C2009 1.379 . S
H2011 C2005 0.959 . S
H2012 C2005 0.961 . S
H2013 C2005 0.960 . S
H2014 C2006 0.930 . S
H2015 C2007 0.929 . S
H2016 C2024 0.929 . S
H2017 C2026 0.930 . S
H2018 C2028 0.930 . S
H2019 C2031 0.929 . S
H2020 C2034 0.930 . S
H2021 C2036 0.960 . S
H2022 C2036 0.960 . S
H2023 C2036 0.960 . S
C2024 H2016 0.929 . S
C2024 C2025 1.377 . S
C2024 C2026 1.384 . S
C2025 C2024 1.377 . S
C2025 C2031 1.390 . S
C2026 H2017 0.930 . S
C2026 C2024 1.384 . S
C2026 C2027 1.372 . S
C2027 C2026 1.372 . S
C2027 C2028 1.400 . S
C2027 C2032 1.490 . S
C2028 H2018 0.930 . S
C2028 C2027 1.400 . S
C2028 C2031 1.386 . S
H2029 C2045 0.930 . S
H2030 C2046 0.931 . S
C2031 H2019 0.929 . S
C2031 C2025 1.390 . S
C2031 C2028 1.386 . S
C2032 C2027 1.490 . S
C2032 C2034 1.395 . S
C2032 C2035 1.403 . S
H2033 C2039 0.930 . S
C2034 H2020 0.930 . S
C2034 C2032 1.395 . S
C2034 C2037 1.403 . S
C2035 C2032 1.403 . S
C2035 C2036 1.524 . S
C2035 C2039 1.400 . S
C2036 H2021 0.960 . S
C2036 H2022 0.960 . S
C2036 H2023 0.960 . S
C2036 C2035 1.524 . S
C2037 C2034 1.403 . S
C2037 C2038 1.392 . S
C2037 C2041 1.495 . S
C2038 C2037 1.392 . S
C2038 C2039 1.385 . S
C2038 C2040 1.478 . S
C2039 H2033 0.930 . S
C2039 C2035 1.400 . S
C2039 C2038 1.385 . S
C2040 C2038 1.478 . S
C2040 C2042 1.381 . S
C2040 C2046 1.383 . S
C2041 C2037 1.495 . S
C2041 H2047 0.959 . S
C2041 H2048 0.961 . S
C2041 H2049 0.960 . S
C2042 C2040 1.381 . S
C2042 C2043 1.394 . S
C2042 H2050 0.930 . S
C2043 C2042 1.394 . S
C2043 C2044 1.383 . S
C2043 H2051 0.929 . S
C2044 C2043 1.383 . S
C2044 C2045 1.377 . S
C2045 H2029 0.930 . S
C2045 C2044 1.377 . S
C2045 C2046 1.379 . S
C2046 H2030 0.931 . S
C2046 C2040 1.383 . S
C2046 C2045 1.379 . S
H2047 C2041 0.959 . S
H2048 C2041 0.961 . S
H2049 C2041 0.960 . S
H2050 C2042 0.930 . S
H2051 C2043 0.929 . S
H2052 C2060 0.929 . S
H2053 C2062 0.930 . S
H2054 C2064 0.930 . S
H2055 C2067 0.929 . S
H2056 C2070 0.930 . S
H2057 C2072 0.960 . S
H2058 C2072 0.960 . S
H2059 C2072 0.960 . S
C2060 H2052 0.929 . S
C2060 C2061 1.377 . S
C2060 C2062 1.384 . S
C2061 C2060 1.377 . S
C2061 C2067 1.390 . S
C2062 H2053 0.930 . S
C2062 C2060 1.384 . S
C2062 C2063 1.372 . S
C2063 C2062 1.372 . S
C2063 C2064 1.400 . S
C2063 C2068 1.490 . S
C2064 H2054 0.930 . S
C2064 C2063 1.400 . S
C2064 C2067 1.386 . S
H2065 C2081 0.930 . S
H2066 C2082 0.931 . S
C2067 H2055 0.929 . S
C2067 C2061 1.390 . S
C2067 C2064 1.386 . S
C2068 C2063 1.490 . S
C2068 C2070 1.395 . S
C2068 C2071 1.403 . S
H2069 C2075 0.930 . S
C2070 H2056 0.930 . S
C2070 C2068 1.395 . S
C2070 C2073 1.403 . S
C2071 C2068 1.403 . S
C2071 C2072 1.524 . S
C2071 C2075 1.400 . S
C2072 H2057 0.960 . S
C2072 H2058 0.960 . S
C2072 H2059 0.960 . S
C2072 C2071 1.524 . S
C2073 C2070 1.403 . S
C2073 C2074 1.392 . S
C2073 C2077 1.495 . S
C2074 C2073 1.392 . S
C2074 C2075 1.385 . S
C2074 C2076 1.478 . S
C2075 H2069 0.930 . S
C2075 C2071 1.400 . S
C2075 C2074 1.385 . S
C2076 C2074 1.478 . S
C2076 C2078 1.381 . S
C2076 C2082 1.383 . S
C2077 C2073 1.495 . S
C2077 H2083 0.959 . S
C2077 H2084 0.961 . S
C2077 H2085 0.960 . S
C2078 C2076 1.381 . S
C2078 C2079 1.394 . S
C2078 H2086 0.930 . S
C2079 C2078 1.394 . S
C2079 C2080 1.383 . S
C2079 H2087 0.929 . S
C2080 C2079 1.383 . S
C2080 C2081 1.377 . S
C2081 H2065 0.930 . S
C2081 C2080 1.377 . S
C2081 C2082 1.379 . S
C2082 H2066 0.931 . S
C2082 C2076 1.383 . S
C2082 C2081 1.379 . S
H2083 C2077 0.959 . S
H2084 C2077 0.961 . S
H2085 C2077 0.960 . S
H2086 C2078 0.930 . S
H2087 C2079 0.929 . S
H2088 C2096 0.929 . S
H2089 C2098 0.930 . S
H2090 C2100 0.930 . S
H2091 C2103 0.929 . S
H2092 C2106 0.930 . S
H2093 C2108 0.960 . S
H2094 C2108 0.960 . S
H2095 C2108 0.960 . S
C2096 H2088 0.929 . S
C2096 C2097 1.377 . S
C2096 C2098 1.384 . S
C2097 C2096 1.377 . S
C2097 C2103 1.390 . S
C2098 H2089 0.930 . S
C2098 C2096 1.384 . S
C2098 C2099 1.372 . S
C2099 C2098 1.372 . S
C2099 C2100 1.400 . S
C2099 C2104 1.490 . S
C2100 H2090 0.930 . S
C2100 C2099 1.400 . S
C2100 C2103 1.386 . S
H2101 C2117 0.930 . S
H2102 C2118 0.931 . S
C2103 H2091 0.929 . S
C2103 C2097 1.390 . S
C2103 C2100 1.386 . S
C2104 C2099 1.490 . S
C2104 C2106 1.395 . S
C2104 C2107 1.403 . S
H2105 C2111 0.930 . S
C2106 H2092 0.930 . S
C2106 C2104 1.395 . S
C2106 C2109 1.403 . S
C2107 C2104 1.403 . S
C2107 C2108 1.524 . S
C2107 C2111 1.400 . S
C2108 H2093 0.960 . S
C2108 H2094 0.960 . S
C2108 H2095 0.960 . S
C2108 C2107 1.524 . S
C2109 C2106 1.403 . S
C2109 C2110 1.392 . S
C2109 C2113 1.495 . S
C2110 C2109 1.392 . S
C2110 C2111 1.385 . S
C2110 C2112 1.478 . S
C2111 H2105 0.930 . S
C2111 C2107 1.400 . S
C2111 C2110 1.385 . S
C2112 C2110 1.478 . S
C2112 C2114 1.381 . S
C2112 C2118 1.383 . S
C2113 C2109 1.495 . S
C2113 H2119 0.959 . S
C2113 H2120 0.961 . S
C2113 H2121 0.960 . S
C2114 C2112 1.381 . S
C2114 C2115 1.394 . S
C2114 H2122 0.930 . S
C2115 C2114 1.394 . S
C2115 C2116 1.383 . S
C2115 H2123 0.929 . S
C2116 C2115 1.383 . S
C2116 C2117 1.377 . S
C2117 H2101 0.930 . S
C2117 C2116 1.377 . S
C2117 C2118 1.379 . S
C2118 H2102 0.931 . S
C2118 C2112 1.383 . S
C2118 C2117 1.379 . S
H2119 C2113 0.959 . S
H2120 C2113 0.961 . S
H2121 C2113 0.960 . S
H2122 C2114 0.930 . S
H2123 C2115 0.929 . S
H2124 C2132 0.929 . S
H2125 C2134 0.930 . S
H2126 C2136 0.930 . S
H2127 C2139 0.929 . S
H2128 C2142 0.930 . S
H2129 C2144 0.960 . S
H2130 C2144 0.960 . S
H2131 C2144 0.960 . S
C2132 H2124 0.929 . S
C2132 C2133 1.377 . S
C2132 C2134 1.384 . S
C2133 C2132 1.377 . S
C2133 C2139 1.390 . S
C2134 H2125 0.930 . S
C2134 C2132 1.384 . S
C2134 C2135 1.372 . S
C2135 C2134 1.372 . S
C2135 C2136 1.400 . S
C2135 C2140 1.490 . S
C2136 H2126 0.930 . S
C2136 C2135 1.400 . S
C2136 C2139 1.386 . S
H2137 C2153 0.930 . S
H2138 C2154 0.931 . S
C2139 H2127 0.929 . S
C2139 C2133 1.390 . S
C2139 C2136 1.386 . S
C2140 C2135 1.490 . S
C2140 C2142 1.395 . S
C2140 C2143 1.403 . S
H2141 C2147 0.930 . S
C2142 H2128 0.930 . S
C2142 C2140 1.395 . S
C2142 C2145 1.403 . S
C2143 C2140 1.403 . S
C2143 C2144 1.524 . S
C2143 C2147 1.400 . S
C2144 H2129 0.960 . S
C2144 H2130 0.960 . S
C2144 H2131 0.960 . S
C2144 C2143 1.524 . S
C2145 C2142 1.403 . S
C2145 C2146 1.392 . S
C2145 C2149 1.495 . S
C2146 C2145 1.392 . S
C2146 C2147 1.385 . S
C2146 C2148 1.478 . S
C2147 H2141 0.930 . S
C2147 C2143 1.400 . S
C2147 C2146 1.385 . S
C2148 C2146 1.478 . S
C2148 C2150 1.381 . S
C2148 C2154 1.383 . S
C2149 C2145 1.495 . S
C2149 H2155 0.959 . S
C2149 H2156 0.961 . S
C2149 H2157 0.960 . S
C2150 C2148 1.381 . S
C2150 C2151 1.394 . S
C2150 H2158 0.930 . S
C2151 C2150 1.394 . S
C2151 C2152 1.383 . S
C2151 H2159 0.929 . S
C2152 C2151 1.383 . S
C2152 C2153 1.377 . S
C2153 H2137 0.930 . S
C2153 C2152 1.377 . S
C2153 C2154 1.379 . S
C2154 H2138 0.931 . S
C2154 C2148 1.383 . S
C2154 C2153 1.379 . S
H2155 C2149 0.959 . S
H2156 C2149 0.961 . S
H2157 C2149 0.960 . S
H2158 C2150 0.930 . S
H2159 C2151 0.929 . S
H2160 C2168 0.929 . S
H2161 C2170 0.930 . S
H2162 C2172 0.930 . S
H2163 C2175 0.929 . S
H2164 C2178 0.930 . S
H2165 C2180 0.960 . S
H2166 C2180 0.960 . S
H2167 C2180 0.960 . S
C2168 H2160 0.929 . S
C2168 C2169 1.377 . S
C2168 C2170 1.384 . S
C2169 C2168 1.377 . S
C2169 C2175 1.390 . S
C2170 H2161 0.930 . S
C2170 C2168 1.384 . S
C2170 C2171 1.372 . S
C2171 C2170 1.372 . S
C2171 C2172 1.400 . S
C2171 C2176 1.490 . S
C2172 H2162 0.930 . S
C2172 C2171 1.400 . S
C2172 C2175 1.386 . S
H2173 C2189 0.930 . S
H2174 C2190 0.931 . S
C2175 H2163 0.929 . S
C2175 C2169 1.390 . S
C2175 C2172 1.386 . S
C2176 C2171 1.490 . S
C2176 C2178 1.395 . S
C2176 C2179 1.403 . S
H2177 C2183 0.930 . S
C2178 H2164 0.930 . S
C2178 C2176 1.395 . S
C2178 C2181 1.403 . S
C2179 C2176 1.403 . S
C2179 C2180 1.524 . S
C2179 C2183 1.400 . S
C2180 H2165 0.960 . S
C2180 H2166 0.960 . S
C2180 H2167 0.960 . S
C2180 C2179 1.524 . S
C2181 C2178 1.403 . S
C2181 C2182 1.392 . S
C2181 C2185 1.495 . S
C2182 C2181 1.392 . S
C2182 C2183 1.385 . S
C2182 C2184 1.478 . S
C2183 H2177 0.930 . S
C2183 C2179 1.400 . S
C2183 C2182 1.385 . S
C2184 C2182 1.478 . S
C2184 C2186 1.381 . S
C2184 C2190 1.383 . S
C2185 C2181 1.495 . S
C2185 H2191 0.959 . S
C2185 H2192 0.961 . S
C2185 H2193 0.960 . S
C2186 C2184 1.381 . S
C2186 C2187 1.394 . S
C2186 H2194 0.930 . S
C2187 C2186 1.394 . S
C2187 C2188 1.383 . S
C2187 H2195 0.929 . S
C2188 C2187 1.383 . S
C2188 C2189 1.377 . S
C2189 H2173 0.930 . S
C2189 C2188 1.377 . S
C2189 C2190 1.379 . S
C2190 H2174 0.931 . S
C2190 C2184 1.383 . S
C2190 C2189 1.379 . S
H2191 C2185 0.959 . S
H2192 C2185 0.961 . S
H2193 C2185 0.960 . S
H2194 C2186 0.930 . S
H2195 C2187 0.929 . S
H2196 C2204 0.929 . S
H2197 C2206 0.930 . S
H2198 C2208 0.930 . S
H2199 C2211 0.929 . S
H2200 C2214 0.930 . S
H2201 C2216 0.960 . S
H2202 C2216 0.960 . S
H2203 C2216 0.960 . S
C2204 H2196 0.929 . S
C2204 C2205 1.377 . S
C2204 C2206 1.384 . S
C2205 C2204 1.377 . S
C2205 C2211 1.390 . S
C2206 H2197 0.930 . S
C2206 C2204 1.384 . S
C2206 C2207 1.372 . S
C2207 C2206 1.372 . S
C2207 C2208 1.400 . S
C2207 C2212 1.490 . S
C2208 H2198 0.930 . S
C2208 C2207 1.400 . S
C2208 C2211 1.386 . S
H2209 C2225 0.930 . S
H2210 C2226 0.931 . S
C2211 H2199 0.929 . S
C2211 C2205 1.390 . S
C2211 C2208 1.386 . S
C2212 C2207 1.490 . S
C2212 C2214 1.395 . S
C2212 C2215 1.403 . S
H2213 C2219 0.930 . S
C2214 H2200 0.930 . S
C2214 C2212 1.395 . S
C2214 C2217 1.403 . S
C2215 C2212 1.403 . S
C2215 C2216 1.524 . S
C2215 C2219 1.400 . S
C2216 H2201 0.960 . S
C2216 H2202 0.960 . S
C2216 H2203 0.960 . S
C2216 C2215 1.524 . S
C2217 C2214 1.403 . S
C2217 C2218 1.392 . S
C2217 C2221 1.495 . S
C2218 C2217 1.392 . S
C2218 C2219 1.385 . S
C2218 C2220 1.478 . S
C2219 H2213 0.930 . S
C2219 C2215 1.400 . S
C2219 C2218 1.385 . S
C2220 C2218 1.478 . S
C2220 C2222 1.381 . S
C2220 C2226 1.383 . S
C2221 C2217 1.495 . S
C2221 H2227 0.959 . S
C2221 H2228 0.961 . S
C2221 H2229 0.960 . S
C2222 C2220 1.381 . S
C2222 C2223 1.394 . S
C2222 H2230 0.930 . S
C2223 C2222 1.394 . S
C2223 C2224 1.383 . S
C2223 H2231 0.929 . S
C2224 C2223 1.383 . S
C2224 C2225 1.377 . S
C2225 H2209 0.930 . S
C2225 C2224 1.377 . S
C2225 C2226 1.379 . S
C2226 H2210 0.931 . S
C2226 C2220 1.383 . S
C2226 C2225 1.379 . S
H2227 C2221 0.959 . S
H2228 C2221 0.961 . S
H2229 C2221 0.960 . S
H2230 C2222 0.930 . S
H2231 C2223 0.929 . S
H2232 C2240 0.929 . S
H2233 C2242 0.930 . S
H2234 C2244 0.930 . S
H2235 C2247 0.929 . S
H2236 C2250 0.930 . S
H2237 C2252 0.960 . S
H2238 C2252 0.960 . S
H2239 C2252 0.960 . S
C2240 H2232 0.929 . S
C2240 C2241 1.377 . S
C2240 C2242 1.384 . S
C2241 C2240 1.377 . S
C2241 C2247 1.390 . S
C2242 H2233 0.930 . S
C2242 C2240 1.384 . S
C2242 C2243 1.372 . S
C2243 C2242 1.372 . S
C2243 C2244 1.400 . S
C2243 C2248 1.490 . S
C2244 H2234 0.930 . S
C2244 C2243 1.400 . S
C2244 C2247 1.386 . S
H2245 C2261 0.930 . S
H2246 C2262 0.931 . S
C2247 H2235 0.929 . S
C2247 C2241 1.390 . S
C2247 C2244 1.386 . S
C2248 C2243 1.490 . S
C2248 C2250 1.395 . S
C2248 C2251 1.403 . S
H2249 C2255 0.930 . S
C2250 H2236 0.930 . S
C2250 C2248 1.395 . S
C2250 C2253 1.403 . S
C2251 C2248 1.403 . S
C2251 C2252 1.524 . S
C2251 C2255 1.400 . S
C2252 H2237 0.960 . S
C2252 H2238 0.960 . S
C2252 H2239 0.960 . S
C2252 C2251 1.524 . S
C2253 C2250 1.403 . S
C2253 C2254 1.392 . S
C2253 C2257 1.495 . S
C2254 C2253 1.392 . S
C2254 C2255 1.385 . S
C2254 C2256 1.478 . S
C2255 H2249 0.930 . S
C2255 C2251 1.400 . S
C2255 C2254 1.385 . S
C2256 C2254 1.478 . S
C2256 C2258 1.381 . S
C2256 C2262 1.383 . S
C2257 C2253 1.495 . S
C2257 H2263 0.959 . S
C2257 H2264 0.961 . S
C2257 H2265 0.960 . S
C2258 C2256 1.381 . S
C2258 C2259 1.394 . S
C2258 H2266 0.930 . S
C2259 C2258 1.394 . S
C2259 C2260 1.383 . S
C2259 H2267 0.929 . S
C2260 C2259 1.383 . S
C2260 C2261 1.377 . S
C2261 H2245 0.930 . S
C2261 C2260 1.377 . S
C2261 C2262 1.379 . S
C2262 H2246 0.931 . S
C2262 C2256 1.383 . S
C2262 C2261 1.379 . S
H2263 C2257 0.959 . S
H2264 C2257 0.961 . S
H2265 C2257 0.960 . S
H2266 C2258 0.930 . S
H2267 C2259 0.929 . S
H2268 C2276 0.929 . S
H2269 C2278 0.930 . S
H2270 C2280 0.930 . S
H2271 C2283 0.929 . S
H2272 C2286 0.930 . S
H2273 C2288 0.960 . S
H2274 C2288 0.960 . S
H2275 C2288 0.960 . S
C2276 H2268 0.929 . S
C2276 C2277 1.377 . S
C2276 C2278 1.384 . S
C2277 C2276 1.377 . S
C2277 C2283 1.390 . S
C2278 H2269 0.930 . S
C2278 C2276 1.384 . S
C2278 C2279 1.372 . S
C2279 C2278 1.372 . S
C2279 C2280 1.400 . S
C2279 C2284 1.490 . S
C2280 H2270 0.930 . S
C2280 C2279 1.400 . S
C2280 C2283 1.386 . S
H2281 C2297 0.930 . S
H2282 C2298 0.931 . S
C2283 H2271 0.929 . S
C2283 C2277 1.390 . S
C2283 C2280 1.386 . S
C2284 C2279 1.490 . S
C2284 C2286 1.395 . S
C2284 C2287 1.403 . S
H2285 C2291 0.930 . S
C2286 H2272 0.930 . S
C2286 C2284 1.395 . S
C2286 C2289 1.403 . S
C2287 C2284 1.403 . S
C2287 C2288 1.524 . S
C2287 C2291 1.400 . S
C2288 H2273 0.960 . S
C2288 H2274 0.960 . S
C2288 H2275 0.960 . S
C2288 C2287 1.524 . S
C2289 C2286 1.403 . S
C2289 C2290 1.392 . S
C2289 C2293 1.495 . S
C2290 C2289 1.392 . S
C2290 C2291 1.385 . S
C2290 C2292 1.478 . S
C2291 H2285 0.930 . S
C2291 C2287 1.400 . S
C2291 C2290 1.385 . S
C2292 C2290 1.478 . S
C2292 C2294 1.381 . S
C2292 C2298 1.383 . S
C2293 C2289 1.495 . S
C2293 H2299 0.959 . S
C2293 H2300 0.961 . S
C2293 H2301 0.960 . S
C2294 C2292 1.381 . S
C2294 C2295 1.394 . S
C2294 H2302 0.930 . S
C2295 C2294 1.394 . S
C2295 C2296 1.383 . S
C2295 H2303 0.929 . S
C2296 C2295 1.383 . S
C2296 C2297 1.377 . S
C2297 H2281 0.930 . S
C2297 C2296 1.377 . S
C2297 C2298 1.379 . S
C2298 H2282 0.931 . S
C2298 C2292 1.383 . S
C2298 C2297 1.379 . S
H2299 C2293 0.959 . S
H2300 C2293 0.961 . S
H2301 C2293 0.960 . S
H2302 C2294 0.930 . S
H2303 C2295 0.929 . S
H2304 C2312 0.929 . S
H2305 C2314 0.930 . S
H2306 C2316 0.930 . S
H2307 C2319 0.929 . S
H2308 C2322 0.930 . S
H2309 C2324 0.960 . S
H2310 C2324 0.960 . S
H2311 C2324 0.960 . S
C2312 H2304 0.929 . S
C2312 C2313 1.377 . S
C2312 C2314 1.384 . S
C2313 C2312 1.377 . S
C2313 C2319 1.390 . S
C2314 H2305 0.930 . S
C2314 C2312 1.384 . S
C2314 C2315 1.372 . S
C2315 C2314 1.372 . S
C2315 C2316 1.400 . S
C2315 C2320 1.490 . S
C2316 H2306 0.930 . S
C2316 C2315 1.400 . S
C2316 C2319 1.386 . S
H2317 C2333 0.930 . S
H2318 C2334 0.931 . S
C2319 H2307 0.929 . S
C2319 C2313 1.390 . S
C2319 C2316 1.386 . S
C2320 C2315 1.490 . S
C2320 C2322 1.395 . S
C2320 C2323 1.403 . S
H2321 C2327 0.930 . S
C2322 H2308 0.930 . S
C2322 C2320 1.395 . S
C2322 C2325 1.403 . S
C2323 C2320 1.403 . S
C2323 C2324 1.524 . S
C2323 C2327 1.400 . S
C2324 H2309 0.960 . S
C2324 H2310 0.960 . S
C2324 H2311 0.960 . S
C2324 C2323 1.524 . S
C2325 C2322 1.403 . S
C2325 C2326 1.392 . S
C2325 C2329 1.495 . S
C2326 C2325 1.392 . S
C2326 C2327 1.385 . S
C2326 C2328 1.478 . S
C2327 H2321 0.930 . S
C2327 C2323 1.400 . S
C2327 C2326 1.385 . S
C2328 C2326 1.478 . S
C2328 C2330 1.381 . S
C2328 C2334 1.383 . S
C2329 C2325 1.495 . S
C2329 H2335 0.959 . S
C2329 H2336 0.961 . S
C2329 H2337 0.960 . S
C2330 C2328 1.381 . S
C2330 C2331 1.394 . S
C2330 H2338 0.930 . S
C2331 C2330 1.394 . S
C2331 C2332 1.383 . S
C2331 H2339 0.929 . S
C2332 C2331 1.383 . S
C2332 C2333 1.377 . S
C2333 H2317 0.930 . S
C2333 C2332 1.377 . S
C2333 C2334 1.379 . S
C2334 H2318 0.931 . S
C2334 C2328 1.383 . S
C2334 C2333 1.379 . S
H2335 C2329 0.959 . S
H2336 C2329 0.961 . S
H2337 C2329 0.960 . S
H2338 C2330 0.930 . S
H2339 C2331 0.929 . S
H2340 C2348 0.929 . S
H2341 C2350 0.930 . S
H2342 C2352 0.930 . S
H2343 C2355 0.929 . S
H2344 C2358 0.930 . S
H2345 C2360 0.960 . S
H2346 C2360 0.960 . S
H2347 C2360 0.960 . S
C2348 H2340 0.929 . S
C2348 C2349 1.377 . S
C2348 C2350 1.384 . S
C2349 C2348 1.377 . S
C2349 C2355 1.390 . S
C2350 H2341 0.930 . S
C2350 C2348 1.384 . S
C2350 C2351 1.372 . S
C2351 C2350 1.372 . S
C2351 C2352 1.400 . S
C2351 C2356 1.490 . S
C2352 H2342 0.930 . S
C2352 C2351 1.400 . S
C2352 C2355 1.386 . S
H2353 C2369 0.930 . S
H2354 C2370 0.931 . S
C2355 H2343 0.929 . S
C2355 C2349 1.390 . S
C2355 C2352 1.386 . S
C2356 C2351 1.490 . S
C2356 C2358 1.395 . S
C2356 C2359 1.403 . S
H2357 C2363 0.930 . S
C2358 H2344 0.930 . S
C2358 C2356 1.395 . S
C2358 C2361 1.403 . S
C2359 C2356 1.403 . S
C2359 C2360 1.524 . S
C2359 C2363 1.400 . S
C2360 H2345 0.960 . S
C2360 H2346 0.960 . S
C2360 H2347 0.960 . S
C2360 C2359 1.524 . S
C2361 C2358 1.403 . S
C2361 C2362 1.392 . S
C2361 C2365 1.495 . S
C2362 C2361 1.392 . S
C2362 C2363 1.385 . S
C2362 C2364 1.478 . S
C2363 H2357 0.930 . S
C2363 C2359 1.400 . S
C2363 C2362 1.385 . S
C2364 C2362 1.478 . S
C2364 C2366 1.381 . S
C2364 C2370 1.383 . S
C2365 C2361 1.495 . S
C2365 H2371 0.959 . S
C2365 H2372 0.961 . S
C2365 H2373 0.960 . S
C2366 C2364 1.381 . S
C2366 C2367 1.394 . S
C2366 H2374 0.930 . S
C2367 C2366 1.394 . S
C2367 C2368 1.383 . S
C2367 H2375 0.929 . S
C2368 C2367 1.383 . S
C2368 C2369 1.377 . S
C2369 H2353 0.930 . S
C2369 C2368 1.377 . S
C2369 C2370 1.379 . S
C2370 H2354 0.931 . S
C2370 C2364 1.383 . S
C2370 C2369 1.379 . S
H2371 C2365 0.959 . S
H2372 C2365 0.961 . S
H2373 C2365 0.960 . S
H2374 C2366 0.930 . S
H2375 C2367 0.929 . S
H2376 C2384 0.929 . S
H2377 C2386 0.930 . S
H2378 C2388 0.930 . S
H2379 C2391 0.929 . S
H2380 C2394 0.930 . S
H2381 C2396 0.960 . S
H2382 C2396 0.960 . S
H2383 C2396 0.960 . S
C2384 H2376 0.929 . S
C2384 C2385 1.377 . S
C2384 C2386 1.384 . S
C2385 C2384 1.377 . S
C2385 C2391 1.390 . S
C2386 H2377 0.930 . S
C2386 C2384 1.384 . S
C2386 C2387 1.372 . S
C2387 C2386 1.372 . S
C2387 C2388 1.400 . S
C2387 C2392 1.490 . S
C2388 H2378 0.930 . S
C2388 C2387 1.400 . S
C2388 C2391 1.386 . S
H2389 C2405 0.930 . S
H2390 C2406 0.931 . S
C2391 H2379 0.929 . S
C2391 C2385 1.390 . S
C2391 C2388 1.386 . S
C2392 C2387 1.490 . S
C2392 C2394 1.395 . S
C2392 C2395 1.403 . S
H2393 C2399 0.930 . S
C2394 H2380 0.930 . S
C2394 C2392 1.395 . S
C2394 C2397 1.403 . S
C2395 C2392 1.403 . S
C2395 C2396 1.524 . S
C2395 C2399 1.400 . S
C2396 H2381 0.960 . S
C2396 H2382 0.960 . S
C2396 H2383 0.960 . S
C2396 C2395 1.524 . S
C2397 C2394 1.403 . S
C2397 C2398 1.392 . S
C2397 C2401 1.495 . S
C2398 C2397 1.392 . S
C2398 C2399 1.385 . S
C2398 C2400 1.478 . S
C2399 H2393 0.930 . S
C2399 C2395 1.400 . S
C2399 C2398 1.385 . S
C2400 C2398 1.478 . S
C2400 C2402 1.381 . S
C2400 C2406 1.383 . S
C2401 C2397 1.495 . S
C2401 H2407 0.959 . S
C2401 H2408 0.961 . S
C2401 H2409 0.960 . S
C2402 C2400 1.381 . S
C2402 C2403 1.394 . S
C2402 H2410 0.930 . S
C2403 C2402 1.394 . S
C2403 C2404 1.383 . S
C2403 H2411 0.929 . S
C2404 C2403 1.383 . S
C2404 C2405 1.377 . S
C2405 H2389 0.930 . S
C2405 C2404 1.377 . S
C2405 C2406 1.379 . S
C2406 H2390 0.931 . S
C2406 C2400 1.383 . S
C2406 C2405 1.379 . S
H2407 C2401 0.959 . S
H2408 C2401 0.961 . S
H2409 C2401 0.960 . S
H2410 C2402 0.930 . S
H2411 C2403 0.929 . S
H2412 C2420 0.929 . S
H2413 C2422 0.930 . S
H2414 C2424 0.930 . S
H2415 C2427 0.929 . S
H2416 C2430 0.930 . S
H2417 C2432 0.960 . S
H2418 C2432 0.960 . S
H2419 C2432 0.960 . S
C2420 H2412 0.929 . S
C2420 C2421 1.377 . S
C2420 C2422 1.384 . S
C2421 C2420 1.377 . S
C2421 C2427 1.390 . S
C2422 H2413 0.930 . S
C2422 C2420 1.384 . S
C2422 C2423 1.372 . S
C2423 C2422 1.372 . S
C2423 C2424 1.400 . S
C2423 C2428 1.490 . S
C2424 H2414 0.930 . S
C2424 C2423 1.400 . S
C2424 C2427 1.386 . S
H2425 C2441 0.930 . S
H2426 C2442 0.931 . S
C2427 H2415 0.929 . S
C2427 C2421 1.390 . S
C2427 C2424 1.386 . S
C2428 C2423 1.490 . S
C2428 C2430 1.395 . S
C2428 C2431 1.403 . S
H2429 C2435 0.930 . S
C2430 H2416 0.930 . S
C2430 C2428 1.395 . S
C2430 C2433 1.403 . S
C2431 C2428 1.403 . S
C2431 C2432 1.524 . S
C2431 C2435 1.400 . S
C2432 H2417 0.960 . S
C2432 H2418 0.960 . S
C2432 H2419 0.960 . S
C2432 C2431 1.524 . S
C2433 C2430 1.403 . S
C2433 C2434 1.392 . S
C2433 C2437 1.495 . S
C2434 C2433 1.392 . S
C2434 C2435 1.385 . S
C2434 C2436 1.478 . S
C2435 H2429 0.930 . S
C2435 C2431 1.400 . S
C2435 C2434 1.385 . S
C2436 C2434 1.478 . S
C2436 C2438 1.381 . S
C2436 C2442 1.383 . S
C2437 C2433 1.495 . S
C2437 H2443 0.959 . S
C2437 H2444 0.961 . S
C2437 H2445 0.960 . S
C2438 C2436 1.381 . S
C2438 C2439 1.394 . S
C2438 H2446 0.930 . S
C2439 C2438 1.394 . S
C2439 C2440 1.383 . S
C2439 H2447 0.929 . S
C2440 C2439 1.383 . S
C2440 C2441 1.377 . S
C2441 H2425 0.930 . S
C2441 C2440 1.377 . S
C2441 C2442 1.379 . S
C2442 H2426 0.931 . S
C2442 C2436 1.383 . S
C2442 C2441 1.379 . S
H2443 C2437 0.959 . S
H2444 C2437 0.961 . S
H2445 C2437 0.960 . S
H2446 C2438 0.930 . S
H2447 C2439 0.929 . S
H2448 C2456 0.929 . S
H2449 C2458 0.930 . S
H2450 C2460 0.930 . S
H2451 C2463 0.929 . S
H2452 C2466 0.930 . S
H2453 C2468 0.960 . S
H2454 C2468 0.960 . S
H2455 C2468 0.960 . S
C2456 H2448 0.929 . S
C2456 C2457 1.377 . S
C2456 C2458 1.384 . S
C2457 C2456 1.377 . S
C2457 C2463 1.390 . S
C2458 H2449 0.930 . S
C2458 C2456 1.384 . S
C2458 C2459 1.372 . S
C2459 C2458 1.372 . S
C2459 C2460 1.400 . S
C2459 C2464 1.490 . S
C2460 H2450 0.930 . S
C2460 C2459 1.400 . S
C2460 C2463 1.386 . S
H2461 C2477 0.930 . S
H2462 C2478 0.931 . S
C2463 H2451 0.929 . S
C2463 C2457 1.390 . S
C2463 C2460 1.386 . S
C2464 C2459 1.490 . S
C2464 C2466 1.395 . S
C2464 C2467 1.403 . S
H2465 C2471 0.930 . S
C2466 H2452 0.930 . S
C2466 C2464 1.395 . S
C2466 C2469 1.403 . S
C2467 C2464 1.403 . S
C2467 C2468 1.524 . S
C2467 C2471 1.400 . S
C2468 H2453 0.960 . S
C2468 H2454 0.960 . S
C2468 H2455 0.960 . S
C2468 C2467 1.524 . S
C2469 C2466 1.403 . S
C2469 C2470 1.392 . S
C2469 C2473 1.495 . S
C2470 C2469 1.392 . S
C2470 C2471 1.385 . S
C2470 C2472 1.478 . S
C2471 H2465 0.930 . S
C2471 C2467 1.400 . S
C2471 C2470 1.385 . S
C2472 C2470 1.478 . S
C2472 C2474 1.381 . S
C2472 C2478 1.383 . S
C2473 C2469 1.495 . S
C2473 H2479 0.959 . S
C2473 H2480 0.961 . S
C2473 H2481 0.960 . S
C2474 C2472 1.381 . S
C2474 C2475 1.394 . S
C2474 H2482 0.930 . S
C2475 C2474 1.394 . S
C2475 C2476 1.383 . S
C2475 H2483 0.929 . S
C2476 C2475 1.383 . S
C2476 C2477 1.377 . S
C2477 H2461 0.930 . S
C2477 C2476 1.377 . S
C2477 C2478 1.379 . S
C2478 H2462 0.931 . S
C2478 C2472 1.383 . S
C2478 C2477 1.379 . S
H2479 C2473 0.959 . S
H2480 C2473 0.961 . S
H2481 C2473 0.960 . S
H2482 C2474 0.930 . S
H2483 C2475 0.929 . S
H2484 C2492 0.929 . S
H2485 C2494 0.930 . S
H2486 C2496 0.930 . S
H2487 C2499 0.929 . S
H2488 C2502 0.930 . S
H2489 C2504 0.960 . S
H2490 C2504 0.960 . S
H2491 C2504 0.960 . S
C2492 H2484 0.929 . S
C2492 C2493 1.377 . S
C2492 C2494 1.384 . S
C2493 C2492 1.377 . S
C2493 C2499 1.390 . S
C2494 H2485 0.930 . S
C2494 C2492 1.384 . S
C2494 C2495 1.372 . S
C2495 C2494 1.372 . S
C2495 C2496 1.400 . S
C2495 C2500 1.490 . S
C2496 H2486 0.930 . S
C2496 C2495 1.400 . S
C2496 C2499 1.386 . S
H2497 C2513 0.930 . S
H2498 C2514 0.931 . S
C2499 H2487 0.929 . S
C2499 C2493 1.390 . S
C2499 C2496 1.386 . S
C2500 C2495 1.490 . S
C2500 C2502 1.395 . S
C2500 C2503 1.403 . S
H2501 C2507 0.930 . S
C2502 H2488 0.930 . S
C2502 C2500 1.395 . S
C2502 C2505 1.403 . S
C2503 C2500 1.403 . S
C2503 C2504 1.524 . S
C2503 C2507 1.400 . S
C2504 H2489 0.960 . S
C2504 H2490 0.960 . S
C2504 H2491 0.960 . S
C2504 C2503 1.524 . S
C2505 C2502 1.403 . S
C2505 C2506 1.392 . S
C2505 C2509 1.495 . S
C2506 C2505 1.392 . S
C2506 C2507 1.385 . S
C2506 C2508 1.478 . S
C2507 H2501 0.930 . S
C2507 C2503 1.400 . S
C2507 C2506 1.385 . S
C2508 C2506 1.478 . S
C2508 C2510 1.381 . S
C2508 C2514 1.383 . S
C2509 C2505 1.495 . S
C2509 H2515 0.959 . S
C2509 H2516 0.961 . S
C2509 H2517 0.960 . S
C2510 C2508 1.381 . S
C2510 C2511 1.394 . S
C2510 H2518 0.930 . S
C2511 C2510 1.394 . S
C2511 C2512 1.383 . S
C2511 H2519 0.929 . S
C2512 C2511 1.383 . S
C2512 C2513 1.377 . S
C2513 H2497 0.930 . S
C2513 C2512 1.377 . S
C2513 C2514 1.379 . S
C2514 H2498 0.931 . S
C2514 C2508 1.383 . S
C2514 C2513 1.379 . S
H2515 C2509 0.959 . S
H2516 C2509 0.961 . S
H2517 C2509 0.960 . S
H2518 C2510 0.930 . S
H2519 C2511 0.929 . S
H2520 C2528 0.929 . S
H2521 C2530 0.930 . S
H2522 C2532 0.930 . S
H2523 C2535 0.929 . S
H2524 C2538 0.930 . S
H2525 C2540 0.960 . S
H2526 C2540 0.960 . S
H2527 C2540 0.960 . S
C2528 H2520 0.929 . S
C2528 C2529 1.377 . S
C2528 C2530 1.384 . S
C2529 C2528 1.377 . S
C2529 C2535 1.390 . S
C2530 H2521 0.930 . S
C2530 C2528 1.384 . S
C2530 C2531 1.372 . S
C2531 C2530 1.372 . S
C2531 C2532 1.400 . S
C2531 C2536 1.490 . S
C2532 H2522 0.930 . S
C2532 C2531 1.400 . S
C2532 C2535 1.386 . S
H2533 C2549 0.930 . S
H2534 C2550 0.931 . S
C2535 H2523 0.929 . S
C2535 C2529 1.390 . S
C2535 C2532 1.386 . S
C2536 C2531 1.490 . S
C2536 C2538 1.395 . S
C2536 C2539 1.403 . S
H2537 C2543 0.930 . S
C2538 H2524 0.930 . S
C2538 C2536 1.395 . S
C2538 C2541 1.403 . S
C2539 C2536 1.403 . S
C2539 C2540 1.524 . S
C2539 C2543 1.400 . S
C2540 H2525 0.960 . S
C2540 H2526 0.960 . S
C2540 H2527 0.960 . S
C2540 C2539 1.524 . S
C2541 C2538 1.403 . S
C2541 C2542 1.392 . S
C2541 C2545 1.495 . S
C2542 C2541 1.392 . S
C2542 C2543 1.385 . S
C2542 C2544 1.478 . S
C2543 H2537 0.930 . S
C2543 C2539 1.400 . S
C2543 C2542 1.385 . S
C2544 C2542 1.478 . S
C2544 C2546 1.381 . S
C2544 C2550 1.383 . S
C2545 C2541 1.495 . S
C2545 H2551 0.959 . S
C2545 H2552 0.961 . S
C2545 H2553 0.960 . S
C2546 C2544 1.381 . S
C2546 C2547 1.394 . S
C2546 H2554 0.930 . S
C2547 C2546 1.394 . S
C2547 C2548 1.383 . S
C2547 H2555 0.929 . S
C2548 C2547 1.383 . S
C2548 C2549 1.377 . S
C2549 H2533 0.930 . S
C2549 C2548 1.377 . S
C2549 C2550 1.379 . S
C2550 H2534 0.931 . S
C2550 C2544 1.383 . S
C2550 C2549 1.379 . S
H2551 C2545 0.959 . S
H2552 C2545 0.961 . S
H2553 C2545 0.960 . S
H2554 C2546 0.930 . S
H2555 C2547 0.929 . S
H2556 C2564 0.929 . S
H2557 C2566 0.930 . S
H2558 C2568 0.930 . S
H2559 C2571 0.929 . S
H2560 C2574 0.930 . S
H2561 C2576 0.960 . S
H2562 C2576 0.960 . S
H2563 C2576 0.960 . S
C2564 H2556 0.929 . S
C2564 C2565 1.377 . S
C2564 C2566 1.384 . S
C2565 C2564 1.377 . S
C2565 C2571 1.390 . S
C2566 H2557 0.930 . S
C2566 C2564 1.384 . S
C2566 C2567 1.372 . S
C2567 C2566 1.372 . S
C2567 C2568 1.400 . S
C2567 C2572 1.490 . S
C2568 H2558 0.930 . S
C2568 C2567 1.400 . S
C2568 C2571 1.386 . S
H2569 C2585 0.930 . S
H2570 C2586 0.931 . S
C2571 H2559 0.929 . S
C2571 C2565 1.390 . S
C2571 C2568 1.386 . S
C2572 C2567 1.490 . S
C2572 C2574 1.395 . S
C2572 C2575 1.403 . S
H2573 C2579 0.930 . S
C2574 H2560 0.930 . S
C2574 C2572 1.395 . S
C2574 C2577 1.403 . S
C2575 C2572 1.403 . S
C2575 C2576 1.524 . S
C2575 C2579 1.400 . S
C2576 H2561 0.960 . S
C2576 H2562 0.960 . S
C2576 H2563 0.960 . S
C2576 C2575 1.524 . S
C2577 C2574 1.403 . S
C2577 C2578 1.392 . S
C2577 C2581 1.495 . S
C2578 C2577 1.392 . S
C2578 C2579 1.385 . S
C2578 C2580 1.478 . S
C2579 H2573 0.930 . S
C2579 C2575 1.400 . S
C2579 C2578 1.385 . S
C2580 C2578 1.478 . S
C2580 C2582 1.381 . S
C2580 C2586 1.383 . S
C2581 C2577 1.495 . S
C2581 H2587 0.959 . S
C2581 H2588 0.961 . S
C2581 H2589 0.960 . S
C2582 C2580 1.381 . S
C2582 C2583 1.394 . S
C2582 H2590 0.930 . S
C2583 C2582 1.394 . S
C2583 C2584 1.383 . S
C2583 H2591 0.929 . S
C2584 C2583 1.383 . S
C2584 C2585 1.377 . S
C2585 H2569 0.930 . S
C2585 C2584 1.377 . S
C2585 C2586 1.379 . S
C2586 H2570 0.931 . S
C2586 C2580 1.383 . S
C2586 C2585 1.379 . S
H2587 C2581 0.959 . S
H2588 C2581 0.961 . S
H2589 C2581 0.960 . S
H2590 C2582 0.930 . S
H2591 C2583 0.929 . S
H2592 C2600 0.929 . S
H2593 C2602 0.930 . S
H2594 C2604 0.930 . S
H2595 C2607 0.929 . S
H2596 C2610 0.930 . S
H2597 C2612 0.960 . S
H2598 C2612 0.960 . S
H2599 C2612 0.960 . S
C2600 H2592 0.929 . S
C2600 C2601 1.377 . S
C2600 C2602 1.384 . S
C2601 C2600 1.377 . S
C2601 C2607 1.390 . S
C2602 H2593 0.930 . S
C2602 C2600 1.384 . S
C2602 C2603 1.372 . S
C2603 C2602 1.372 . S
C2603 C2604 1.400 . S
C2603 C2608 1.490 . S
C2604 H2594 0.930 . S
C2604 C2603 1.400 . S
C2604 C2607 1.386 . S
H2605 C2621 0.930 . S
H2606 C2622 0.931 . S
C2607 H2595 0.929 . S
C2607 C2601 1.390 . S
C2607 C2604 1.386 . S
C2608 C2603 1.490 . S
C2608 C2610 1.395 . S
C2608 C2611 1.403 . S
H2609 C2615 0.930 . S
C2610 H2596 0.930 . S
C2610 C2608 1.395 . S
C2610 C2613 1.403 . S
C2611 C2608 1.403 . S
C2611 C2612 1.524 . S
C2611 C2615 1.400 . S
C2612 H2597 0.960 . S
C2612 H2598 0.960 . S
C2612 H2599 0.960 . S
C2612 C2611 1.524 . S
C2613 C2610 1.403 . S
C2613 C2614 1.392 . S
C2613 C2617 1.495 . S
C2614 C2613 1.392 . S
C2614 C2615 1.385 . S
C2614 C2616 1.478 . S
C2615 H2609 0.930 . S
C2615 C2611 1.400 . S
C2615 C2614 1.385 . S
C2616 C2614 1.478 . S
C2616 C2618 1.381 . S
C2616 C2622 1.383 . S
C2617 C2613 1.495 . S
C2617 H2623 0.959 . S
C2617 H2624 0.961 . S
C2617 H2625 0.960 . S
C2618 C2616 1.381 . S
C2618 C2619 1.394 . S
C2618 H2626 0.930 . S
C2619 C2618 1.394 . S
C2619 C2620 1.383 . S
C2619 H2627 0.929 . S
C2620 C2619 1.383 . S
C2620 C2621 1.377 . S
C2621 H2605 0.930 . S
C2621 C2620 1.377 . S
C2621 C2622 1.379 . S
C2622 H2606 0.931 . S
C2622 C2616 1.383 . S
C2622 C2621 1.379 . S
H2623 C2617 0.959 . S
H2624 C2617 0.961 . S
H2625 C2617 0.960 . S
H2626 C2618 0.930 . S
H2627 C2619 0.929 . S
H2628 C2636 0.929 . S
H2629 C2638 0.930 . S
H2630 C2640 0.930 . S
H2631 C2643 0.929 . S
H2632 C2646 0.930 . S
H2633 C2648 0.960 . S
H2634 C2648 0.960 . S
H2635 C2648 0.960 . S
C2636 H2628 0.929 . S
C2636 C2637 1.377 . S
C2636 C2638 1.384 . S
C2637 C2636 1.377 . S
C2637 C2643 1.390 . S
C2638 H2629 0.930 . S
C2638 C2636 1.384 . S
C2638 C2639 1.372 . S
C2639 C2638 1.372 . S
C2639 C2640 1.400 . S
C2639 C2644 1.490 . S
C2640 H2630 0.930 . S
C2640 C2639 1.400 . S
C2640 C2643 1.386 . S
H2641 C2657 0.930 . S
H2642 C2658 0.931 . S
C2643 H2631 0.929 . S
C2643 C2637 1.390 . S
C2643 C2640 1.386 . S
C2644 C2639 1.490 . S
C2644 C2646 1.395 . S
C2644 C2647 1.403 . S
H2645 C2651 0.930 . S
C2646 H2632 0.930 . S
C2646 C2644 1.395 . S
C2646 C2649 1.403 . S
C2647 C2644 1.403 . S
C2647 C2648 1.524 . S
C2647 C2651 1.400 . S
C2648 H2633 0.960 . S
C2648 H2634 0.960 . S
C2648 H2635 0.960 . S
C2648 C2647 1.524 . S
C2649 C2646 1.403 . S
C2649 C2650 1.392 . S
C2649 C2653 1.495 . S
C2650 C2649 1.392 . S
C2650 C2651 1.385 . S
C2650 C2652 1.478 . S
C2651 H2645 0.930 . S
C2651 C2647 1.400 . S
C2651 C2650 1.385 . S
C2652 C2650 1.478 . S
C2652 C2654 1.381 . S
C2652 C2658 1.383 . S
C2653 C2649 1.495 . S
C2653 H2659 0.959 . S
C2653 H2660 0.961 . S
C2653 H2661 0.960 . S
C2654 C2652 1.381 . S
C2654 C2655 1.394 . S
C2654 H2662 0.930 . S
C2655 C2654 1.394 . S
C2655 C2656 1.383 . S
C2655 H2663 0.929 . S
C2656 C2655 1.383 . S
C2656 C2657 1.377 . S
C2657 H2641 0.930 . S
C2657 C2656 1.377 . S
C2657 C2658 1.379 . S
C2658 H2642 0.931 . S
C2658 C2652 1.383 . S
C2658 C2657 1.379 . S
H2659 C2653 0.959 . S
H2660 C2653 0.961 . S
H2661 C2653 0.960 . S
H2662 C2654 0.930 . S
H2663 C2655 0.929 . S
H2664 C2672 0.929 . S
H2665 C2674 0.930 . S
H2666 C2676 0.930 . S
H2667 C2679 0.929 . S
H2668 C2682 0.930 . S
H2669 C2684 0.960 . S
H2670 C2684 0.960 . S
H2671 C2684 0.960 . S
C2672 H2664 0.929 . S
C2672 C2673 1.377 . S
C2672 C2674 1.384 . S
C2673 C2672 1.377 . S
C2673 C2679 1.390 . S
C2674 H2665 0.930 . S
C2674 C2672 1.384 . S
C2674 C2675 1.372 . S
C2675 C2674 1.372 . S
C2675 C2676 1.400 . S
C2675 C2680 1.490 . S
C2676 H2666 0.930 . S
C2676 C2675 1.400 . S
C2676 C2679 1.386 . S
H2677 C2693 0.930 . S
H2678 C2694 0.931 . S
C2679 H2667 0.929 . S
C2679 C2673 1.390 . S
C2679 C2676 1.386 . S
C2680 C2675 1.490 . S
C2680 C2682 1.395 . S
C2680 C2683 1.403 . S
H2681 C2687 0.930 . S
C2682 H2668 0.930 . S
C2682 C2680 1.395 . S
C2682 C2685 1.403 . S
C2683 C2680 1.403 . S
C2683 C2684 1.524 . S
C2683 C2687 1.400 . S
C2684 H2669 0.960 . S
C2684 H2670 0.960 . S
C2684 H2671 0.960 . S
C2684 C2683 1.524 . S
C2685 C2682 1.403 . S
C2685 C2686 1.392 . S
C2685 C2689 1.495 . S
C2686 C2685 1.392 . S
C2686 C2687 1.385 . S
C2686 C2688 1.478 . S
C2687 H2681 0.930 . S
C2687 C2683 1.400 . S
C2687 C2686 1.385 . S
C2688 C2686 1.478 . S
C2688 C2690 1.381 . S
C2688 C2694 1.383 . S
C2689 C2685 1.495 . S
C2689 H2695 0.959 . S
C2689 H2696 0.961 . S
C2689 H2697 0.960 . S
C2690 C2688 1.381 . S
C2690 C2691 1.394 . S
C2690 H2698 0.930 . S
C2691 C2690 1.394 . S
C2691 C2692 1.383 . S
C2691 H2699 0.929 . S
C2692 C2691 1.383 . S
C2692 C2693 1.377 . S
C2693 H2677 0.930 . S
C2693 C2692 1.377 . S
C2693 C2694 1.379 . S
C2694 H2678 0.931 . S
C2694 C2688 1.383 . S
C2694 C2693 1.379 . S
H2695 C2689 0.959 . S
H2696 C2689 0.961 . S
H2697 C2689 0.960 . S
H2698 C2690 0.930 . S
H2699 C2691 0.929 . S
H2700 C2708 0.929 . S
H2701 C2710 0.930 . S
H2702 C2712 0.930 . S
H2703 C2715 0.929 . S
H2704 C2718 0.930 . S
H2705 C2720 0.960 . S
H2706 C2720 0.960 . S
H2707 C2720 0.960 . S
C2708 H2700 0.929 . S
C2708 C2709 1.377 . S
C2708 C2710 1.384 . S
C2709 C2708 1.377 . S
C2709 C2715 1.390 . S
C2710 H2701 0.930 . S
C2710 C2708 1.384 . S
C2710 C2711 1.372 . S
C2711 C2710 1.372 . S
C2711 C2712 1.400 . S
C2711 C2716 1.490 . S
C2712 H2702 0.930 . S
C2712 C2711 1.400 . S
C2712 C2715 1.386 . S
H2713 C2729 0.930 . S
H2714 C2730 0.931 . S
C2715 H2703 0.929 . S
C2715 C2709 1.390 . S
C2715 C2712 1.386 . S
C2716 C2711 1.490 . S
C2716 C2718 1.395 . S
C2716 C2719 1.403 . S
H2717 C2723 0.930 . S
C2718 H2704 0.930 . S
C2718 C2716 1.395 . S
C2718 C2721 1.403 . S
C2719 C2716 1.403 . S
C2719 C2720 1.524 . S
C2719 C2723 1.400 . S
C2720 H2705 0.960 . S
C2720 H2706 0.960 . S
C2720 H2707 0.960 . S
C2720 C2719 1.524 . S
C2721 C2718 1.403 . S
C2721 C2722 1.392 . S
C2721 C2725 1.495 . S
C2722 C2721 1.392 . S
C2722 C2723 1.385 . S
C2722 C2724 1.478 . S
C2723 H2717 0.930 . S
C2723 C2719 1.400 . S
C2723 C2722 1.385 . S
C2724 C2722 1.478 . S
C2724 C2726 1.381 . S
C2724 C2730 1.383 . S
C2725 C2721 1.495 . S
C2725 H2731 0.959 . S
C2725 H2732 0.961 . S
C2725 H2733 0.960 . S
C2726 C2724 1.381 . S
C2726 C2727 1.394 . S
C2726 H2734 0.930 . S
C2727 C2726 1.394 . S
C2727 C2728 1.383 . S
C2727 H2735 0.929 . S
C2728 C2727 1.383 . S
C2728 C2729 1.377 . S
C2729 H2713 0.930 . S
C2729 C2728 1.377 . S
C2729 C2730 1.379 . S
C2730 H2714 0.931 . S
C2730 C2724 1.383 . S
C2730 C2729 1.379 . S
H2731 C2725 0.959 . S
H2732 C2725 0.961 . S
H2733 C2725 0.960 . S
H2734 C2726 0.930 . S
H2735 C2727 0.929 . S
H2736 C2744 0.929 . S
H2737 C2746 0.930 . S
H2738 C2748 0.930 . S
H2739 C2751 0.929 . S
H2740 C2754 0.930 . S
H2741 C2756 0.960 . S
H2742 C2756 0.960 . S
H2743 C2756 0.960 . S
C2744 H2736 0.929 . S
C2744 C2745 1.377 . S
C2744 C2746 1.384 . S
C2745 C2744 1.377 . S
C2745 C2751 1.390 . S
C2746 H2737 0.930 . S
C2746 C2744 1.384 . S
C2746 C2747 1.372 . S
C2747 C2746 1.372 . S
C2747 C2748 1.400 . S
C2747 C2752 1.490 . S
C2748 H2738 0.930 . S
C2748 C2747 1.400 . S
C2748 C2751 1.386 . S
H2749 C2765 0.930 . S
H2750 C2766 0.931 . S
C2751 H2739 0.929 . S
C2751 C2745 1.390 . S
C2751 C2748 1.386 . S
C2752 C2747 1.490 . S
C2752 C2754 1.395 . S
C2752 C2755 1.403 . S
H2753 C2759 0.930 . S
C2754 H2740 0.930 . S
C2754 C2752 1.395 . S
C2754 C2757 1.403 . S
C2755 C2752 1.403 . S
C2755 C2756 1.524 . S
C2755 C2759 1.400 . S
C2756 H2741 0.960 . S
C2756 H2742 0.960 . S
C2756 H2743 0.960 . S
C2756 C2755 1.524 . S
C2757 C2754 1.403 . S
C2757 C2758 1.392 . S
C2757 C2761 1.495 . S
C2758 C2757 1.392 . S
C2758 C2759 1.385 . S
C2758 C2760 1.478 . S
C2759 H2753 0.930 . S
C2759 C2755 1.400 . S
C2759 C2758 1.385 . S
C2760 C2758 1.478 . S
C2760 C2762 1.381 . S
C2760 C2766 1.383 . S
C2761 C2757 1.495 . S
C2761 H2767 0.959 . S
C2761 H2768 0.961 . S
C2761 H2769 0.960 . S
C2762 C2760 1.381 . S
C2762 C2763 1.394 . S
C2762 H2770 0.930 . S
C2763 C2762 1.394 . S
C2763 C2764 1.383 . S
C2763 H2771 0.929 . S
C2764 C2763 1.383 . S
C2764 C2765 1.377 . S
C2765 H2749 0.930 . S
C2765 C2764 1.377 . S
C2765 C2766 1.379 . S
C2766 H2750 0.931 . S
C2766 C2760 1.383 . S
C2766 C2765 1.379 . S
H2767 C2761 0.959 . S
H2768 C2761 0.961 . S
H2769 C2761 0.960 . S
H2770 C2762 0.930 . S
H2771 C2763 0.929 . S
H2772 C2780 0.929 . S
H2773 C2782 0.930 . S
H2774 C2784 0.930 . S
H2775 C2787 0.929 . S
H2776 C2790 0.930 . S
H2777 C2792 0.960 . S
H2778 C2792 0.960 . S
H2779 C2792 0.960 . S
C2780 H2772 0.929 . S
C2780 C2781 1.377 . S
C2780 C2782 1.384 . S
C2781 C2780 1.377 . S
C2781 C2787 1.390 . S
C2782 H2773 0.930 . S
C2782 C2780 1.384 . S
C2782 C2783 1.372 . S
C2783 C2782 1.372 . S
C2783 C2784 1.400 . S
C2783 C2788 1.490 . S
C2784 H2774 0.930 . S
C2784 C2783 1.400 . S
C2784 C2787 1.386 . S
H2785 C2801 0.930 . S
H2786 C2802 0.931 . S
C2787 H2775 0.929 . S
C2787 C2781 1.390 . S
C2787 C2784 1.386 . S
C2788 C2783 1.490 . S
C2788 C2790 1.395 . S
C2788 C2791 1.403 . S
H2789 C2795 0.930 . S
C2790 H2776 0.930 . S
C2790 C2788 1.395 . S
C2790 C2793 1.403 . S
C2791 C2788 1.403 . S
C2791 C2792 1.524 . S
C2791 C2795 1.400 . S
C2792 H2777 0.960 . S
C2792 H2778 0.960 . S
C2792 H2779 0.960 . S
C2792 C2791 1.524 . S
C2793 C2790 1.403 . S
C2793 C2794 1.392 . S
C2793 C2797 1.495 . S
C2794 C2793 1.392 . S
C2794 C2795 1.385 . S
C2794 C2796 1.478 . S
C2795 H2789 0.930 . S
C2795 C2791 1.400 . S
C2795 C2794 1.385 . S
C2796 C2794 1.478 . S
C2796 C2798 1.381 . S
C2796 C2802 1.383 . S
C2797 C2793 1.495 . S
C2797 H2803 0.959 . S
C2797 H2804 0.961 . S
C2797 H2805 0.960 . S
C2798 C2796 1.381 . S
C2798 C2799 1.394 . S
C2798 H2806 0.930 . S
C2799 C2798 1.394 . S
C2799 C2800 1.383 . S
C2799 H2807 0.929 . S
C2800 C2799 1.383 . S
C2800 C2801 1.377 . S
C2801 H2785 0.930 . S
C2801 C2800 1.377 . S
C2801 C2802 1.379 . S
C2802 H2786 0.931 . S
C2802 C2796 1.383 . S
C2802 C2801 1.379 . S
H2803 C2797 0.959 . S
H2804 C2797 0.961 . S
H2805 C2797 0.960 . S
H2806 C2798 0.930 . S
H2807 C2799 0.929 . S
H2808 C2816 0.929 . S
H2809 C2818 0.930 . S
H2810 C2820 0.930 . S
H2811 C2823 0.929 . S
H2812 C2826 0.930 . S
H2813 C2828 0.960 . S
H2814 C2828 0.960 . S
H2815 C2828 0.960 . S
C2816 H2808 0.929 . S
C2816 C2817 1.377 . S
C2816 C2818 1.384 . S
C2817 C2816 1.377 . S
C2817 C2823 1.390 . S
C2818 H2809 0.930 . S
C2818 C2816 1.384 . S
C2818 C2819 1.372 . S
C2819 C2818 1.372 . S
C2819 C2820 1.400 . S
C2819 C2824 1.490 . S
C2820 H2810 0.930 . S
C2820 C2819 1.400 . S
C2820 C2823 1.386 . S
H2821 C2837 0.930 . S
H2822 C2838 0.931 . S
C2823 H2811 0.929 . S
C2823 C2817 1.390 . S
C2823 C2820 1.386 . S
C2824 C2819 1.490 . S
C2824 C2826 1.395 . S
C2824 C2827 1.403 . S
H2825 C2831 0.930 . S
C2826 H2812 0.930 . S
C2826 C2824 1.395 . S
C2826 C2829 1.403 . S
C2827 C2824 1.403 . S
C2827 C2828 1.524 . S
C2827 C2831 1.400 . S
C2828 H2813 0.960 . S
C2828 H2814 0.960 . S
C2828 H2815 0.960 . S
C2828 C2827 1.524 . S
C2829 C2826 1.403 . S
C2829 C2830 1.392 . S
C2829 C2833 1.495 . S
C2830 C2829 1.392 . S
C2830 C2831 1.385 . S
C2830 C2832 1.478 . S
C2831 H2825 0.930 . S
C2831 C2827 1.400 . S
C2831 C2830 1.385 . S
C2832 C2830 1.478 . S
C2832 C2834 1.381 . S
C2832 C2838 1.383 . S
C2833 C2829 1.495 . S
C2833 H2839 0.959 . S
C2833 H2840 0.961 . S
C2833 H2841 0.960 . S
C2834 C2832 1.381 . S
C2834 C2835 1.394 . S
C2834 H2842 0.930 . S
C2835 C2834 1.394 . S
C2835 C2836 1.383 . S
C2835 H2843 0.929 . S
C2836 C2835 1.383 . S
C2836 C2837 1.377 . S
C2837 H2821 0.930 . S
C2837 C2836 1.377 . S
C2837 C2838 1.379 . S
C2838 H2822 0.931 . S
C2838 C2832 1.383 . S
C2838 C2837 1.379 . S
H2839 C2833 0.959 . S
H2840 C2833 0.961 . S
H2841 C2833 0.960 . S
H2842 C2834 0.930 . S
H2843 C2835 0.929 . S
H2844 C2852 0.929 . S
H2845 C2854 0.930 . S
H2846 C2856 0.930 . S
H2847 C2859 0.929 . S
H2848 C2862 0.930 . S
H2849 C2864 0.960 . S
H2850 C2864 0.960 . S
H2851 C2864 0.960 . S
C2852 H2844 0.929 . S
C2852 C2853 1.377 . S
C2852 C2854 1.384 . S
C2853 C2852 1.377 . S
C2853 C2859 1.390 . S
C2854 H2845 0.930 . S
C2854 C2852 1.384 . S
C2854 C2855 1.372 . S
C2855 C2854 1.372 . S
C2855 C2856 1.400 . S
C2855 C2860 1.490 . S
C2856 H2846 0.930 . S
C2856 C2855 1.400 . S
C2856 C2859 1.386 . S
H2857 C2873 0.930 . S
H2858 C2874 0.931 . S
C2859 H2847 0.929 . S
C2859 C2853 1.390 . S
C2859 C2856 1.386 . S
C2860 C2855 1.490 . S
C2860 C2862 1.395 . S
C2860 C2863 1.403 . S
H2861 C2867 0.930 . S
C2862 H2848 0.930 . S
C2862 C2860 1.395 . S
C2862 C2865 1.403 . S
C2863 C2860 1.403 . S
C2863 C2864 1.524 . S
C2863 C2867 1.400 . S
C2864 H2849 0.960 . S
C2864 H2850 0.960 . S
C2864 H2851 0.960 . S
C2864 C2863 1.524 . S
C2865 C2862 1.403 . S
C2865 C2866 1.392 . S
C2865 C2869 1.495 . S
C2866 C2865 1.392 . S
C2866 C2867 1.385 . S
C2866 C2868 1.478 . S
C2867 H2861 0.930 . S
C2867 C2863 1.400 . S
C2867 C2866 1.385 . S
C2868 C2866 1.478 . S
C2868 C2870 1.381 . S
C2868 C2874 1.383 . S
C2869 C2865 1.495 . S
C2869 H2875 0.959 . S
C2869 H2876 0.961 . S
C2869 H2877 0.960 . S
C2870 C2868 1.381 . S
C2870 C2871 1.394 . S
C2870 H2878 0.930 . S
C2871 C2870 1.394 . S
C2871 C2872 1.383 . S
C2871 H2879 0.929 . S
C2872 C2871 1.383 . S
C2872 C2873 1.377 . S
C2873 H2857 0.930 . S
C2873 C2872 1.377 . S
C2873 C2874 1.379 . S
C2874 H2858 0.931 . S
C2874 C2868 1.383 . S
C2874 C2873 1.379 . S
H2875 C2869 0.959 . S
H2876 C2869 0.961 . S
H2877 C2869 0.960 . S
H2878 C2870 0.930 . S
H2879 C2871 0.929 . S
H2880 C2888 0.929 . S
H2881 C2890 0.930 . S
H2882 C2892 0.930 . S
H2883 C2895 0.929 . S
H2884 C2898 0.930 . S
H2885 C2900 0.960 . S
H2886 C2900 0.960 . S
H2887 C2900 0.960 . S
C2888 H2880 0.929 . S
C2888 C2889 1.377 . S
C2888 C2890 1.384 . S
C2889 C2888 1.377 . S
C2889 C2895 1.390 . S
C2890 H2881 0.930 . S
C2890 C2888 1.384 . S
C2890 C2891 1.372 . S
C2891 C2890 1.372 . S
C2891 C2892 1.400 . S
C2891 C2896 1.490 . S
C2892 H2882 0.930 . S
C2892 C2891 1.400 . S
C2892 C2895 1.386 . S
H2893 C2909 0.930 . S
H2894 C2910 0.931 . S
C2895 H2883 0.929 . S
C2895 C2889 1.390 . S
C2895 C2892 1.386 . S
C2896 C2891 1.490 . S
C2896 C2898 1.395 . S
C2896 C2899 1.403 . S
H2897 C2903 0.930 . S
C2898 H2884 0.930 . S
C2898 C2896 1.395 . S
C2898 C2901 1.403 . S
C2899 C2896 1.403 . S
C2899 C2900 1.524 . S
C2899 C2903 1.400 . S
C2900 H2885 0.960 . S
C2900 H2886 0.960 . S
C2900 H2887 0.960 . S
C2900 C2899 1.524 . S
C2901 C2898 1.403 . S
C2901 C2902 1.392 . S
C2901 C2905 1.495 . S
C2902 C2901 1.392 . S
C2902 C2903 1.385 . S
C2902 C2904 1.478 . S
C2903 H2897 0.930 . S
C2903 C2899 1.400 . S
C2903 C2902 1.385 . S
C2904 C2902 1.478 . S
C2904 C2906 1.381 . S
C2904 C2910 1.383 . S
C2905 C2901 1.495 . S
C2905 H2911 0.959 . S
C2905 H2912 0.961 . S
C2905 H2913 0.960 . S
C2906 C2904 1.381 . S
C2906 C2907 1.394 . S
C2906 H2914 0.930 . S
C2907 C2906 1.394 . S
C2907 C2908 1.383 . S
C2907 H2915 0.929 . S
C2908 C2907 1.383 . S
C2908 C2909 1.377 . S
C2909 H2893 0.930 . S
C2909 C2908 1.377 . S
C2909 C2910 1.379 . S
C2910 H2894 0.931 . S
C2910 C2904 1.383 . S
C2910 C2909 1.379 . S
H2911 C2905 0.959 . S
H2912 C2905 0.961 . S
H2913 C2905 0.960 . S
H2914 C2906 0.930 . S
H2915 C2907 0.929 . S
H2916 C2924 0.929 . S
H2917 C2926 0.930 . S
H2918 C2928 0.930 . S
H2919 C2931 0.929 . S
H2920 C2934 0.930 . S
H2921 C2936 0.960 . S
H2922 C2936 0.960 . S
H2923 C2936 0.960 . S
C2924 H2916 0.929 . S
C2924 C2925 1.377 . S
C2924 C2926 1.384 . S
C2925 C2924 1.377 . S
C2925 C2931 1.390 . S
C2926 H2917 0.930 . S
C2926 C2924 1.384 . S
C2926 C2927 1.372 . S
C2927 C2926 1.372 . S
C2927 C2928 1.400 . S
C2927 C2932 1.490 . S
C2928 H2918 0.930 . S
C2928 C2927 1.400 . S
C2928 C2931 1.386 . S
H2929 C2945 0.930 . S
H2930 C2946 0.931 . S
C2931 H2919 0.929 . S
C2931 C2925 1.390 . S
C2931 C2928 1.386 . S
C2932 C2927 1.490 . S
C2932 C2934 1.395 . S
C2932 C2935 1.403 . S
H2933 C2939 0.930 . S
C2934 H2920 0.930 . S
C2934 C2932 1.395 . S
C2934 C2937 1.403 . S
C2935 C2932 1.403 . S
C2935 C2936 1.524 . S
C2935 C2939 1.400 . S
C2936 H2921 0.960 . S
C2936 H2922 0.960 . S
C2936 H2923 0.960 . S
C2936 C2935 1.524 . S
C2937 C2934 1.403 . S
C2937 C2938 1.392 . S
C2937 C2941 1.495 . S
C2938 C2937 1.392 . S
C2938 C2939 1.385 . S
C2938 C2940 1.478 . S
C2939 H2933 0.930 . S
C2939 C2935 1.400 . S
C2939 C2938 1.385 . S
C2940 C2938 1.478 . S
C2940 C2942 1.381 . S
C2940 C2946 1.383 . S
C2941 C2937 1.495 . S
C2941 H2947 0.959 . S
C2941 H2948 0.961 . S
C2941 H2949 0.960 . S
C2942 C2940 1.381 . S
C2942 C2943 1.394 . S
C2942 H2950 0.930 . S
C2943 C2942 1.394 . S
C2943 C2944 1.383 . S
C2943 H2951 0.929 . S
C2944 C2943 1.383 . S
C2944 C2945 1.377 . S
C2945 H2929 0.930 . S
C2945 C2944 1.377 . S
C2945 C2946 1.379 . S
C2946 H2930 0.931 . S
C2946 C2940 1.383 . S
C2946 C2945 1.379 . S
H2947 C2941 0.959 . S
H2948 C2941 0.961 . S
H2949 C2941 0.960 . S
H2950 C2942 0.930 . S
H2951 C2943 0.929 . S
H2952 C2960 0.929 . S
H2953 C2962 0.930 . S
H2954 C2964 0.930 . S
H2955 C2967 0.929 . S
H2956 C2970 0.930 . S
H2957 C2972 0.960 . S
H2958 C2972 0.960 . S
H2959 C2972 0.960 . S
C2960 H2952 0.929 . S
C2960 C2961 1.377 . S
C2960 C2962 1.384 . S
C2961 C2960 1.377 . S
C2961 C2967 1.390 . S
C2962 H2953 0.930 . S
C2962 C2960 1.384 . S
C2962 C2963 1.372 . S
C2963 C2962 1.372 . S
C2963 C2964 1.400 . S
C2963 C2968 1.490 . S
C2964 H2954 0.930 . S
C2964 C2963 1.400 . S
C2964 C2967 1.386 . S
H2965 C2981 0.930 . S
H2966 C2982 0.931 . S
C2967 H2955 0.929 . S
C2967 C2961 1.390 . S
C2967 C2964 1.386 . S
C2968 C2963 1.490 . S
C2968 C2970 1.395 . S
C2968 C2971 1.403 . S
H2969 C2975 0.930 . S
C2970 H2956 0.930 . S
C2970 C2968 1.395 . S
C2970 C2973 1.403 . S
C2971 C2968 1.403 . S
C2971 C2972 1.524 . S
C2971 C2975 1.400 . S
C2972 H2957 0.960 . S
C2972 H2958 0.960 . S
C2972 H2959 0.960 . S
C2972 C2971 1.524 . S
C2973 C2970 1.403 . S
C2973 C2974 1.392 . S
C2973 C2977 1.495 . S
C2974 C2973 1.392 . S
C2974 C2975 1.385 . S
C2974 C2976 1.478 . S
C2975 H2969 0.930 . S
C2975 C2971 1.400 . S
C2975 C2974 1.385 . S
C2976 C2974 1.478 . S
C2976 C2978 1.381 . S
C2976 C2982 1.383 . S
C2977 C2973 1.495 . S
C2977 H2983 0.959 . S
C2977 H2984 0.961 . S
C2977 H2985 0.960 . S
C2978 C2976 1.381 . S
C2978 C2979 1.394 . S
C2978 H2986 0.930 . S
C2979 C2978 1.394 . S
C2979 C2980 1.383 . S
C2979 H2987 0.929 . S
C2980 C2979 1.383 . S
C2980 C2981 1.377 . S
C2981 H2965 0.930 . S
C2981 C2980 1.377 . S
C2981 C2982 1.379 . S
C2982 H2966 0.931 . S
C2982 C2976 1.383 . S
C2982 C2981 1.379 . S
H2983 C2977 0.959 . S
H2984 C2977 0.961 . S
H2985 C2977 0.960 . S
H2986 C2978 0.930 . S
H2987 C2979 0.929 . S
H2988 C2996 0.929 . S
H2989 C2998 0.930 . S
H2990 C3000 0.930 . S
H2991 C3003 0.929 . S
H2992 C3006 0.930 . S
H2993 C3008 0.960 . S
H2994 C3008 0.960 . S
H2995 C3008 0.960 . S
C2996 H2988 0.929 . S
C2996 C2997 1.377 1_556 S
C2996 C2998 1.384 . S
C2997 C2996 1.377 1_554 S
C2997 C3003 1.390 . S
C2998 H2989 0.930 . S
C2998 C2996 1.384 . S
C2998 C2999 1.372 . S
C2999 C2998 1.372 . S
C2999 C3000 1.400 1_556 S
C2999 C3004 1.490 . S
C3000 H2990 0.930 . S
C3000 C2999 1.400 1_554 S
C3000 C3003 1.386 . S
H3001 C3017 0.930 . S
H3002 C3018 0.931 . S
C3003 H2991 0.929 . S
C3003 C2997 1.390 . S
C3003 C3000 1.386 . S
C3004 C2999 1.490 . S
C3004 C3006 1.395 . S
C3004 C3007 1.403 . S
H3005 C3011 0.930 . S
C3006 H2992 0.930 . S
C3006 C3004 1.395 . S
C3006 C3009 1.403 . S
C3007 C3004 1.403 . S
C3007 C3008 1.524 . S
C3007 C3011 1.400 . S
C3008 H2993 0.960 . S
C3008 H2994 0.960 . S
C3008 H2995 0.960 . S
C3008 C3007 1.524 . S
C3009 C3006 1.403 . S
C3009 C3010 1.392 . S
C3009 C3013 1.495 . S
C3010 C3009 1.392 . S
C3010 C3011 1.385 . S
C3010 C3012 1.478 . S
C3011 H3005 0.930 . S
C3011 C3007 1.400 . S
C3011 C3010 1.385 . S
C3012 C3010 1.478 . S
C3012 C3014 1.381 . S
C3012 C3018 1.383 . S
C3013 C3009 1.495 . S
C3013 H3019 0.959 . S
C3013 H3020 0.961 . S
C3013 H3021 0.960 . S
C3014 C3012 1.381 . S
C3014 C3015 1.394 . S
C3014 H3022 0.930 . S
C3015 C3014 1.394 . S
C3015 C3016 1.383 . S
C3015 H3023 0.929 . S
C3016 C3015 1.383 . S
C3016 C3017 1.377 . S
C3017 H3001 0.930 . S
C3017 C3016 1.377 . S
C3017 C3018 1.379 . S
C3018 H3002 0.931 . S
C3018 C3012 1.383 . S
C3018 C3017 1.379 . S
H3019 C3013 0.959 . S
H3020 C3013 0.961 . S
H3021 C3013 0.960 . S
H3022 C3014 0.930 . S
H3023 C3015 0.929 . S
H3024 C3032 0.929 . S
H3025 C3034 0.930 . S
H3026 C3036 0.930 . S
H3027 C3039 0.929 . S
H3028 C3042 0.930 . S
H3029 C3044 0.960 . S
H3030 C3044 0.960 . S
H3031 C3044 0.960 . S
C3032 H3024 0.929 . S
C3032 C3033 1.377 . S
C3032 C3034 1.384 . S
C3033 C3032 1.377 . S
C3033 C3039 1.390 . S
C3034 H3025 0.930 . S
C3034 C3032 1.384 . S
C3034 C3035 1.372 . S
C3035 C3034 1.372 . S
C3035 C3036 1.400 . S
C3035 C3040 1.490 . S
C3036 H3026 0.930 . S
C3036 C3035 1.400 . S
C3036 C3039 1.386 . S
H3037 C3053 0.930 . S
H3038 C3054 0.931 . S
C3039 H3027 0.929 . S
C3039 C3033 1.390 . S
C3039 C3036 1.386 . S
C3040 C3035 1.490 . S
C3040 C3042 1.395 . S
C3040 C3043 1.403 . S
H3041 C3047 0.930 . S
C3042 H3028 0.930 . S
C3042 C3040 1.395 . S
C3042 C3045 1.403 . S
C3043 C3040 1.403 . S
C3043 C3044 1.524 . S
C3043 C3047 1.400 . S
C3044 H3029 0.960 . S
C3044 H3030 0.960 . S
C3044 H3031 0.960 . S
C3044 C3043 1.524 . S
C3045 C3042 1.403 . S
C3045 C3046 1.392 . S
C3045 C3049 1.495 . S
C3046 C3045 1.392 . S
C3046 C3047 1.385 . S
C3046 C3048 1.478 . S
C3047 H3041 0.930 . S
C3047 C3043 1.400 . S
C3047 C3046 1.385 . S
C3048 C3046 1.478 . S
C3048 C3050 1.381 . S
C3048 C3054 1.383 . S
C3049 C3045 1.495 . S
C3049 H3055 0.959 . S
C3049 H3056 0.961 . S
C3049 H3057 0.960 . S
C3050 C3048 1.381 . S
C3050 C3051 1.394 . S
C3050 H3058 0.930 . S
C3051 C3050 1.394 . S
C3051 C3052 1.383 . S
C3051 H3059 0.929 . S
C3052 C3051 1.383 . S
C3052 C3053 1.377 . S
C3053 H3037 0.930 . S
C3053 C3052 1.377 . S
C3053 C3054 1.379 . S
C3054 H3038 0.931 . S
C3054 C3048 1.383 . S
C3054 C3053 1.379 . S
H3055 C3049 0.959 . S
H3056 C3049 0.961 . S
H3057 C3049 0.960 . S
H3058 C3050 0.930 . S
H3059 C3051 0.929 . S
H3060 C3068 0.929 . S
H3061 C3070 0.930 . S
H3062 C3072 0.930 . S
H3063 C3075 0.929 . S
H3064 C3078 0.930 . S
H3065 C3080 0.960 . S
H3066 C3080 0.960 . S
H3067 C3080 0.960 . S
C3068 H3060 0.929 . S
C3068 C3069 1.377 . S
C3068 C3070 1.384 . S
C3069 C3068 1.377 . S
C3069 C3075 1.390 . S
C3070 H3061 0.930 . S
C3070 C3068 1.384 . S
C3070 C3071 1.372 . S
C3071 C3070 1.372 . S
C3071 C3072 1.400 . S
C3071 C3076 1.490 . S
C3072 H3062 0.930 . S
C3072 C3071 1.400 . S
C3072 C3075 1.386 . S
H3073 C3089 0.930 . S
H3074 C3090 0.931 . S
C3075 H3063 0.929 . S
C3075 C3069 1.390 . S
C3075 C3072 1.386 . S
C3076 C3071 1.490 . S
C3076 C3078 1.395 . S
C3076 C3079 1.403 1_554 S
H3077 C3083 0.930 . S
C3078 H3064 0.930 . S
C3078 C3076 1.395 . S
C3078 C3081 1.403 . S
C3079 C3076 1.403 1_556 S
C3079 C3080 1.524 . S
C3079 C3083 1.400 . S
C3080 H3065 0.960 . S
C3080 H3066 0.960 . S
C3080 H3067 0.960 . S
C3080 C3079 1.524 . S
C3081 C3078 1.403 . S
C3081 C3082 1.392 1_554 S
C3081 C3085 1.495 . S
C3082 C3081 1.392 1_556 S
C3082 C3083 1.385 . S
C3082 C3084 1.478 . S
C3083 H3077 0.930 . S
C3083 C3079 1.400 . S
C3083 C3082 1.385 . S
C3084 C3082 1.478 . S
C3084 C3086 1.381 . S
C3084 C3090 1.383 . S
C3085 C3081 1.495 . S
C3085 H3091 0.959 . S
C3085 H3092 0.961 . S
C3085 H3093 0.960 . S
C3086 C3084 1.381 . S
C3086 C3087 1.394 . S
C3086 H3094 0.930 . S
C3087 C3086 1.394 . S
C3087 C3088 1.383 . S
C3087 H3095 0.929 . S
C3088 C3087 1.383 . S
C3088 C3089 1.377 . S
C3089 H3073 0.930 . S
C3089 C3088 1.377 . S
C3089 C3090 1.379 . S
C3090 H3074 0.931 . S
C3090 C3084 1.383 . S
C3090 C3089 1.379 . S
H3091 C3085 0.959 . S
H3092 C3085 0.961 . S
H3093 C3085 0.960 . S
H3094 C3086 0.930 . S
H3095 C3087 0.929 . S
H3096 C3104 0.929 . S
H3097 C3106 0.930 . S
H3098 C3108 0.930 . S
H3099 C3111 0.929 . S
H3100 C3114 0.930 . S
H3101 C3116 0.960 . S
H3102 C3116 0.960 . S
H3103 C3116 0.960 . S
C3104 H3096 0.929 . S
C3104 C3105 1.377 . S
C3104 C3106 1.384 . S
C3105 C3104 1.377 . S
C3105 C3111 1.390 1_554 S
C3106 H3097 0.930 . S
C3106 C3104 1.384 . S
C3106 C3107 1.372 1_554 S
C3107 C3106 1.372 1_556 S
C3107 C3108 1.400 . S
C3107 C3112 1.490 . S
C3108 H3098 0.930 . S
C3108 C3107 1.400 . S
C3108 C3111 1.386 . S
H3109 C3125 0.930 . S
H3110 C3126 0.931 . S
C3111 H3099 0.929 . S
C3111 C3105 1.390 1_556 S
C3111 C3108 1.386 . S
C3112 C3107 1.490 . S
C3112 C3114 1.395 . S
C3112 C3115 1.403 . S
H3113 C3119 0.930 . S
C3114 H3100 0.930 . S
C3114 C3112 1.395 . S
C3114 C3117 1.403 . S
C3115 C3112 1.403 . S
C3115 C3116 1.524 . S
C3115 C3119 1.400 . S
C3116 H3101 0.960 . S
C3116 H3102 0.960 . S
C3116 H3103 0.960 . S
C3116 C3115 1.524 . S
C3117 C3114 1.403 . S
C3117 C3118 1.392 . S
C3117 C3121 1.495 . S
C3118 C3117 1.392 . S
C3118 C3119 1.385 . S
C3118 C3120 1.478 . S
C3119 H3113 0.930 . S
C3119 C3115 1.400 . S
C3119 C3118 1.385 . S
C3120 C3118 1.478 . S
C3120 C3122 1.381 . S
C3120 C3126 1.383 . S
C3121 C3117 1.495 . S
C3121 H3127 0.959 . S
C3121 H3128 0.961 . S
C3121 H3129 0.960 . S
C3122 C3120 1.381 . S
C3122 C3123 1.394 . S
C3122 H3130 0.930 . S
C3123 C3122 1.394 . S
C3123 C3124 1.383 . S
C3123 H3131 0.929 . S
C3124 C3123 1.383 . S
C3124 C3125 1.377 . S
C3125 H3109 0.930 . S
C3125 C3124 1.377 . S
C3125 C3126 1.379 . S
C3126 H3110 0.931 . S
C3126 C3120 1.383 . S
C3126 C3125 1.379 . S
H3127 C3121 0.959 . S
H3128 C3121 0.961 . S
H3129 C3121 0.960 . S
H3130 C3122 0.930 . S
H3131 C3123 0.929 . S
H3132 C3140 0.929 . S
H3133 C3142 0.930 . S
H3134 C3144 0.930 . S
H3135 C3147 0.929 . S
H3136 C3150 0.930 . S
H3137 C3152 0.960 . S
H3138 C3152 0.960 . S
H3139 C3152 0.960 . S
C3140 H3132 0.929 . S
C3140 C3141 1.377 . S
C3140 C3142 1.384 . S
C3141 C3140 1.377 . S
C3141 C3147 1.390 . S
C3142 H3133 0.930 . S
C3142 C3140 1.384 . S
C3142 C3143 1.372 . S
C3143 C3142 1.372 . S
C3143 C3144 1.400 . S
C3143 C3148 1.490 . S
C3144 H3134 0.930 . S
C3144 C3143 1.400 . S
C3144 C3147 1.386 . S
H3145 C3161 0.930 . S
H3146 C3162 0.931 . S
C3147 H3135 0.929 . S
C3147 C3141 1.390 . S
C3147 C3144 1.386 . S
C3148 C3143 1.490 . S
C3148 C3150 1.395 . S
C3148 C3151 1.403 . S
H3149 C3155 0.930 . S
C3150 H3136 0.930 . S
C3150 C3148 1.395 . S
C3150 C3153 1.403 . S
C3151 C3148 1.403 . S
C3151 C3152 1.524 . S
C3151 C3155 1.400 . S
C3152 H3137 0.960 . S
C3152 H3138 0.960 . S
C3152 H3139 0.960 . S
C3152 C3151 1.524 . S
C3153 C3150 1.403 . S
C3153 C3154 1.392 . S
C3153 C3157 1.495 . S
C3154 C3153 1.392 . S
C3154 C3155 1.385 . S
C3154 C3156 1.478 . S
C3155 H3149 0.930 . S
C3155 C3151 1.400 . S
C3155 C3154 1.385 . S
C3156 C3154 1.478 . S
C3156 C3158 1.381 . S
C3156 C3162 1.383 . S
C3157 C3153 1.495 . S
C3157 H3163 0.959 . S
C3157 H3164 0.961 . S
C3157 H3165 0.960 . S
C3158 C3156 1.381 . S
C3158 C3159 1.394 . S
C3158 H3166 0.930 . S
C3159 C3158 1.394 . S
C3159 C3160 1.383 . S
C3159 H3167 0.929 . S
C3160 C3159 1.383 . S
C3160 C3161 1.377 . S
C3161 H3145 0.930 . S
C3161 C3160 1.377 . S
C3161 C3162 1.379 . S
C3162 H3146 0.931 . S
C3162 C3156 1.383 . S
C3162 C3161 1.379 . S
H3163 C3157 0.959 . S
H3164 C3157 0.961 . S
H3165 C3157 0.960 . S
H3166 C3158 0.930 . S
H3167 C3159 0.929 . S
H3168 C3176 0.929 . S
H3169 C3178 0.930 . S
H3170 C3180 0.930 . S
H3171 C3183 0.929 1_556 S
H3172 C3186 0.930 1_554 S
H3173 C3188 0.960 . S
H3174 C3188 0.960 . S
H3175 C3188 0.960 . S
C3176 H3168 0.929 . S
C3176 C3177 1.377 . S
C3176 C3178 1.384 . S
C3177 C3176 1.377 . S
C3177 C3183 1.390 . S
C3178 H3169 0.930 . S
C3178 C3176 1.384 . S
C3178 C3179 1.372 . S
C3179 C3178 1.372 . S
C3179 C3180 1.400 1_554 S
C3179 C3184 1.490 1_554 S
C3180 H3170 0.930 . S
C3180 C3179 1.400 1_556 S
C3180 C3183 1.386 1_556 S
H3181 C3197 0.930 . S
H3182 C3198 0.931 . S
C3183 H3171 0.929 1_554 S
C3183 C3177 1.390 . S
C3183 C3180 1.386 1_554 S
C3184 C3179 1.490 1_556 S
C3184 C3186 1.395 . S
C3184 C3187 1.403 . S
H3185 C3191 0.930 . S
C3186 H3172 0.930 1_556 S
C3186 C3184 1.395 . S
C3186 C3189 1.403 . S
C3187 C3184 1.403 . S
C3187 C3188 1.524 . S
C3187 C3191 1.400 . S
C3188 H3173 0.960 . S
C3188 H3174 0.960 . S
C3188 H3175 0.960 . S
C3188 C3187 1.524 . S
C3189 C3186 1.403 . S
C3189 C3190 1.392 . S
C3189 C3193 1.495 . S
C3190 C3189 1.392 . S
C3190 C3191 1.385 . S
C3190 C3192 1.478 . S
C3191 H3185 0.930 . S
C3191 C3187 1.400 . S
C3191 C3190 1.385 . S
C3192 C3190 1.478 . S
C3192 C3194 1.381 . S
C3192 C3198 1.383 . S
C3193 C3189 1.495 . S
C3193 H3199 0.959 1_556 S
C3193 H3200 0.961 . S
C3193 H3201 0.960 . S
C3194 C3192 1.381 . S
C3194 C3195 1.394 . S
C3194 H3202 0.930 . S
C3195 C3194 1.394 . S
C3195 C3196 1.383 . S
C3195 H3203 0.929 . S
C3196 C3195 1.383 . S
C3196 C3197 1.377 . S
C3197 H3181 0.930 . S
C3197 C3196 1.377 . S
C3197 C3198 1.379 . S
C3198 H3182 0.931 . S
C3198 C3192 1.383 . S
C3198 C3197 1.379 . S
H3199 C3193 0.959 1_554 S
H3200 C3193 0.961 . S
H3201 C3193 0.960 . S
H3202 C3194 0.930 . S
H3203 C3195 0.929 . S
H3204 C3212 0.929 . S
H3205 C3214 0.930 . S
H3206 C3216 0.930 . S
H3207 C3219 0.929 . S
H3208 C3222 0.930 . S
H3209 C3224 0.960 . S
H3210 C3224 0.960 . S
H3211 C3224 0.960 . S
C3212 H3204 0.929 . S
C3212 C3213 1.377 . S
C3212 C3214 1.384 . S
C3213 C3212 1.377 . S
C3213 C3219 1.390 . S
C3214 H3205 0.930 . S
C3214 C3212 1.384 . S
C3214 C3215 1.372 . S
C3215 C3214 1.372 . S
C3215 C3216 1.400 . S
C3215 C3220 1.490 . S
C3216 H3206 0.930 . S
C3216 C3215 1.400 . S
C3216 C3219 1.386 . S
H3217 C3233 0.930 . S
H3218 C3234 0.931 . S
C3219 H3207 0.929 . S
C3219 C3213 1.390 . S
C3219 C3216 1.386 . S
C3220 C3215 1.490 . S
C3220 C3222 1.395 . S
C3220 C3223 1.403 . S
H3221 C3227 0.930 . S
C3222 H3208 0.930 . S
C3222 C3220 1.395 . S
C3222 C3225 1.403 . S
C3223 C3220 1.403 . S
C3223 C3224 1.524 . S
C3223 C3227 1.400 . S
C3224 H3209 0.960 . S
C3224 H3210 0.960 . S
C3224 H3211 0.960 . S
C3224 C3223 1.524 . S
C3225 C3222 1.403 . S
C3225 C3226 1.392 . S
C3225 C3229 1.495 . S
C3226 C3225 1.392 . S
C3226 C3227 1.385 . S
C3226 C3228 1.478 . S
C3227 H3221 0.930 . S
C3227 C3223 1.400 . S
C3227 C3226 1.385 . S
C3228 C3226 1.478 . S
C3228 C3230 1.381 . S
C3228 C3234 1.383 . S
C3229 C3225 1.495 . S
C3229 H3235 0.959 . S
C3229 H3236 0.961 . S
C3229 H3237 0.960 . S
C3230 C3228 1.381 . S
C3230 C3231 1.394 . S
C3230 H3238 0.930 . S
C3231 C3230 1.394 . S
C3231 C3232 1.383 . S
C3231 H3239 0.929 . S
C3232 C3231 1.383 . S
C3232 C3233 1.377 . S
C3233 H3217 0.930 . S
C3233 C3232 1.377 . S
C3233 C3234 1.379 . S
C3234 H3218 0.931 . S
C3234 C3228 1.383 . S
C3234 C3233 1.379 . S
H3235 C3229 0.959 . S
H3236 C3229 0.961 . S
H3237 C3229 0.960 . S
H3238 C3230 0.930 . S
H3239 C3231 0.929 . S
H3240 C3248 0.929 . S
H3241 C3250 0.930 . S
H3242 C3252 0.930 . S
H3243 C3255 0.929 . S
H3244 C3258 0.930 . S
H3245 C3260 0.960 . S
H3246 C3260 0.960 . S
H3247 C3260 0.960 . S
C3248 H3240 0.929 . S
C3248 C3249 1.377 . S
C3248 C3250 1.384 . S
C3249 C3248 1.377 . S
C3249 C3255 1.390 . S
C3250 H3241 0.930 . S
C3250 C3248 1.384 . S
C3250 C3251 1.372 . S
C3251 C3250 1.372 . S
C3251 C3252 1.400 . S
C3251 C3256 1.490 . S
C3252 H3242 0.930 . S
C3252 C3251 1.400 . S
C3252 C3255 1.386 . S
H3253 C3269 0.930 . S
H3254 C3270 0.931 . S
C3255 H3243 0.929 . S
C3255 C3249 1.390 . S
C3255 C3252 1.386 . S
C3256 C3251 1.490 . S
C3256 C3258 1.395 . S
C3256 C3259 1.403 . S
H3257 C3263 0.930 . S
C3258 H3244 0.930 . S
C3258 C3256 1.395 . S
C3258 C3261 1.403 . S
C3259 C3256 1.403 . S
C3259 C3260 1.524 . S
C3259 C3263 1.400 . S
C3260 H3245 0.960 . S
C3260 H3246 0.960 . S
C3260 H3247 0.960 . S
C3260 C3259 1.524 . S
C3261 C3258 1.403 . S
C3261 C3262 1.392 . S
C3261 C3265 1.495 . S
C3262 C3261 1.392 . S
C3262 C3263 1.385 . S
C3262 C3264 1.478 . S
C3263 H3257 0.930 . S
C3263 C3259 1.400 . S
C3263 C3262 1.385 . S
C3264 C3262 1.478 . S
C3264 C3266 1.381 . S
C3264 C3270 1.383 . S
C3265 C3261 1.495 . S
C3265 H3271 0.959 . S
C3265 H3272 0.961 . S
C3265 H3273 0.960 . S
C3266 C3264 1.381 . S
C3266 C3267 1.394 . S
C3266 H3274 0.930 . S
C3267 C3266 1.394 . S
C3267 C3268 1.383 . S
C3267 H3275 0.929 . S
C3268 C3267 1.383 . S
C3268 C3269 1.377 . S
C3269 H3253 0.930 . S
C3269 C3268 1.377 . S
C3269 C3270 1.379 . S
C3270 H3254 0.931 . S
C3270 C3264 1.383 . S
C3270 C3269 1.379 . S
H3271 C3265 0.959 . S
H3272 C3265 0.961 . S
H3273 C3265 0.960 . S
H3274 C3266 0.930 . S
H3275 C3267 0.929 . S
H3276 C3284 0.929 . S
H3277 C3286 0.930 . S
H3278 C3288 0.930 . S
H3279 C3291 0.929 . S
H3280 C3294 0.930 . S
H3281 C3296 0.960 . S
H3282 C3296 0.960 . S
H3283 C3296 0.960 . S
C3284 H3276 0.929 . S
C3284 C3285 1.377 . S
C3284 C3286 1.384 . S
C3285 C3284 1.377 . S
C3285 C3291 1.390 . S
C3286 H3277 0.930 . S
C3286 C3284 1.384 . S
C3286 C3287 1.372 . S
C3287 C3286 1.372 . S
C3287 C3288 1.400 . S
C3287 C3292 1.490 . S
C3288 H3278 0.930 . S
C3288 C3287 1.400 . S
C3288 C3291 1.386 . S
H3289 C3305 0.930 . S
H3290 C3306 0.931 . S
C3291 H3279 0.929 . S
C3291 C3285 1.390 . S
C3291 C3288 1.386 . S
C3292 C3287 1.490 . S
C3292 C3294 1.395 . S
C3292 C3295 1.403 . S
H3293 C3299 0.930 . S
C3294 H3280 0.930 . S
C3294 C3292 1.395 . S
C3294 C3297 1.403 . S
C3295 C3292 1.403 . S
C3295 C3296 1.524 . S
C3295 C3299 1.400 . S
C3296 H3281 0.960 . S
C3296 H3282 0.960 . S
C3296 H3283 0.960 . S
C3296 C3295 1.524 . S
C3297 C3294 1.403 . S
C3297 C3298 1.392 . S
C3297 C3301 1.495 . S
C3298 C3297 1.392 . S
C3298 C3299 1.385 . S
C3298 C3300 1.478 . S
C3299 H3293 0.930 . S
C3299 C3295 1.400 . S
C3299 C3298 1.385 . S
C3300 C3298 1.478 . S
C3300 C3302 1.381 . S
C3300 C3306 1.383 . S
C3301 C3297 1.495 . S
C3301 H3307 0.959 . S
C3301 H3308 0.961 . S
C3301 H3309 0.960 . S
C3302 C3300 1.381 . S
C3302 C3303 1.394 . S
C3302 H3310 0.930 . S
C3303 C3302 1.394 . S
C3303 C3304 1.383 . S
C3303 H3311 0.929 . S
C3304 C3303 1.383 . S
C3304 C3305 1.377 . S
C3305 H3289 0.930 . S
C3305 C3304 1.377 . S
C3305 C3306 1.379 . S
C3306 H3290 0.931 . S
C3306 C3300 1.383 . S
C3306 C3305 1.379 . S
H3307 C3301 0.959 . S
H3308 C3301 0.961 . S
H3309 C3301 0.960 . S
H3310 C3302 0.930 . S
H3311 C3303 0.929 . S
H3312 C3320 0.929 . S
H3313 C3322 0.930 . S
H3314 C3324 0.930 . S
H3315 C3327 0.929 . S
H3316 C3330 0.930 . S
H3317 C3332 0.960 . S
H3318 C3332 0.960 . S
H3319 C3332 0.960 . S
C3320 H3312 0.929 . S
C3320 C3321 1.377 . S
C3320 C3322 1.384 . S
C3321 C3320 1.377 . S
C3321 C3327 1.390 . S
C3322 H3313 0.930 . S
C3322 C3320 1.384 . S
C3322 C3323 1.372 . S
C3323 C3322 1.372 . S
C3323 C3324 1.400 . S
C3323 C3328 1.490 . S
C3324 H3314 0.930 . S
C3324 C3323 1.400 . S
C3324 C3327 1.386 . S
H3325 C3341 0.930 . S
H3326 C3342 0.931 . S
C3327 H3315 0.929 . S
C3327 C3321 1.390 . S
C3327 C3324 1.386 . S
C3328 C3323 1.490 . S
C3328 C3330 1.395 . S
C3328 C3331 1.403 . S
H3329 C3335 0.930 . S
C3330 H3316 0.930 . S
C3330 C3328 1.395 . S
C3330 C3333 1.403 . S
C3331 C3328 1.403 . S
C3331 C3332 1.524 . S
C3331 C3335 1.400 . S
C3332 H3317 0.960 . S
C3332 H3318 0.960 . S
C3332 H3319 0.960 . S
C3332 C3331 1.524 . S
C3333 C3330 1.403 . S
C3333 C3334 1.392 . S
C3333 C3337 1.495 . S
C3334 C3333 1.392 . S
C3334 C3335 1.385 . S
C3334 C3336 1.478 . S
C3335 H3329 0.930 . S
C3335 C3331 1.400 . S
C3335 C3334 1.385 . S
C3336 C3334 1.478 . S
C3336 C3338 1.381 . S
C3336 C3342 1.383 . S
C3337 C3333 1.495 . S
C3337 H3343 0.959 . S
C3337 H3344 0.961 . S
C3337 H3345 0.960 . S
C3338 C3336 1.381 . S
C3338 C3339 1.394 . S
C3338 H3346 0.930 . S
C3339 C3338 1.394 . S
C3339 C3340 1.383 . S
C3339 H3347 0.929 . S
C3340 C3339 1.383 . S
C3340 C3341 1.377 . S
C3341 H3325 0.930 . S
C3341 C3340 1.377 . S
C3341 C3342 1.379 . S
C3342 H3326 0.931 . S
C3342 C3336 1.383 . S
C3342 C3341 1.379 . S
H3343 C3337 0.959 . S
H3344 C3337 0.961 . S
H3345 C3337 0.960 . S
H3346 C3338 0.930 . S
H3347 C3339 0.929 . S
H3348 C3356 0.929 . S
H3349 C3358 0.930 . S
H3350 C3360 0.930 . S
H3351 C3363 0.929 1_565 S
H3352 C3366 0.930 . S
H3353 C3368 0.960 . S
H3354 C3368 0.960 . S
H3355 C3368 0.960 . S
C3356 H3348 0.929 . S
C3356 C3357 1.377 . S
C3356 C3358 1.384 . S
C3357 C3356 1.377 . S
C3357 C3363 1.390 . S
C3358 H3349 0.930 . S
C3358 C3356 1.384 . S
C3358 C3359 1.372 . S
C3359 C3358 1.372 . S
C3359 C3360 1.400 . S
C3359 C3364 1.490 . S
C3360 H3350 0.930 . S
C3360 C3359 1.400 . S
C3360 C3363 1.386 . S
H3361 C3377 0.930 . S
H3362 C3378 0.931 . S
C3363 H3351 0.929 1_545 S
C3363 C3357 1.390 . S
C3363 C3360 1.386 . S
C3364 C3359 1.490 . S
C3364 C3366 1.395 . S
C3364 C3367 1.403 . S
H3365 C3371 0.930 . S
C3366 H3352 0.930 . S
C3366 C3364 1.395 . S
C3366 C3369 1.403 . S
C3367 C3364 1.403 . S
C3367 C3368 1.524 . S
C3367 C3371 1.400 . S
C3368 H3353 0.960 . S
C3368 H3354 0.960 . S
C3368 H3355 0.960 . S
C3368 C3367 1.524 . S
C3369 C3366 1.403 . S
C3369 C3370 1.392 . S
C3369 C3373 1.495 . S
C3370 C3369 1.392 . S
C3370 C3371 1.385 . S
C3370 C3372 1.478 . S
C3371 H3365 0.930 . S
C3371 C3367 1.400 . S
C3371 C3370 1.385 . S
C3372 C3370 1.478 . S
C3372 C3374 1.381 . S
C3372 C3378 1.383 . S
C3373 C3369 1.495 . S
C3373 H3379 0.959 . S
C3373 H3380 0.961 . S
C3373 H3381 0.960 . S
C3374 C3372 1.381 . S
C3374 C3375 1.394 . S
C3374 H3382 0.930 . S
C3375 C3374 1.394 . S
C3375 C3376 1.383 . S
C3375 H3383 0.929 . S
C3376 C3375 1.383 . S
C3376 C3377 1.377 . S
C3377 H3361 0.930 . S
C3377 C3376 1.377 . S
C3377 C3378 1.379 . S
C3378 H3362 0.931 . S
C3378 C3372 1.383 . S
C3378 C3377 1.379 . S
H3379 C3373 0.959 . S
H3380 C3373 0.961 . S
H3381 C3373 0.960 . S
H3382 C3374 0.930 . S
H3383 C3375 0.929 . S
H3384 C3392 0.929 . S
H3385 C3394 0.930 . S
H3386 C3396 0.930 . S
H3387 C3399 0.929 . S
H3388 C3402 0.930 . S
H3389 C3404 0.960 . S
H3390 C3404 0.960 . S
H3391 C3404 0.960 . S
C3392 H3384 0.929 . S
C3392 C3393 1.377 . S
C3392 C3394 1.384 1_455 S
C3393 C3392 1.377 . S
C3393 C3399 1.390 1_455 S
C3394 H3385 0.930 . S
C3394 C3392 1.384 1_655 S
C3394 C3395 1.372 . S
C3395 C3394 1.372 . S
C3395 C3396 1.400 . S
C3395 C3400 1.490 . S
C3396 H3386 0.930 . S
C3396 C3395 1.400 . S
C3396 C3399 1.386 . S
H3397 C3413 0.930 . S
H3398 C3414 0.931 . S
C3399 H3387 0.929 . S
C3399 C3393 1.390 1_655 S
C3399 C3396 1.386 . S
C3400 C3395 1.490 . S
C3400 C3402 1.395 . S
C3400 C3403 1.403 . S
H3401 C3407 0.930 . S
C3402 H3388 0.930 . S
C3402 C3400 1.395 . S
C3402 C3405 1.403 . S
C3403 C3400 1.403 . S
C3403 C3404 1.524 . S
C3403 C3407 1.400 . S
C3404 H3389 0.960 . S
C3404 H3390 0.960 . S
C3404 H3391 0.960 . S
C3404 C3403 1.524 . S
C3405 C3402 1.403 . S
C3405 C3406 1.392 . S
C3405 C3409 1.495 . S
C3406 C3405 1.392 . S
C3406 C3407 1.385 . S
C3406 C3408 1.478 . S
C3407 H3401 0.930 . S
C3407 C3403 1.400 . S
C3407 C3406 1.385 . S
C3408 C3406 1.478 . S
C3408 C3410 1.381 . S
C3408 C3414 1.383 . S
C3409 C3405 1.495 . S
C3409 H3415 0.959 . S
C3409 H3416 0.961 . S
C3409 H3417 0.960 . S
C3410 C3408 1.381 . S
C3410 C3411 1.394 . S
C3410 H3418 0.930 . S
C3411 C3410 1.394 . S
C3411 C3412 1.383 . S
C3411 H3419 0.929 . S
C3412 C3411 1.383 . S
C3412 C3413 1.377 . S
C3413 H3397 0.930 . S
C3413 C3412 1.377 . S
C3413 C3414 1.379 . S
C3414 H3398 0.931 . S
C3414 C3408 1.383 . S
C3414 C3413 1.379 . S
H3415 C3409 0.959 . S
H3416 C3409 0.961 . S
H3417 C3409 0.960 . S
H3418 C3410 0.930 . S
H3419 C3411 0.929 . S
H3420 C3428 0.929 . S
H3421 C3430 0.930 . S
H3422 C3432 0.930 . S
H3423 C3435 0.929 . S
H3424 C3438 0.930 . S
H3425 C3440 0.960 1_655 S
H3426 C3440 0.960 . S
H3427 C3440 0.960 . S
C3428 H3420 0.929 . S
C3428 C3429 1.377 . S
C3428 C3430 1.384 . S
C3429 C3428 1.377 . S
C3429 C3435 1.390 . S
C3430 H3421 0.930 . S
C3430 C3428 1.384 . S
C3430 C3431 1.372 . S
C3431 C3430 1.372 . S
C3431 C3432 1.400 . S
C3431 C3436 1.490 . S
C3432 H3422 0.930 . S
C3432 C3431 1.400 . S
C3432 C3435 1.386 . S
H3433 C3449 0.930 . S
H3434 C3450 0.931 . S
C3435 H3423 0.929 . S
C3435 C3429 1.390 . S
C3435 C3432 1.386 . S
C3436 C3431 1.490 . S
C3436 C3438 1.395 . S
C3436 C3439 1.403 . S
H3437 C3443 0.930 . S
C3438 H3424 0.930 . S
C3438 C3436 1.395 . S
C3438 C3441 1.403 . S
C3439 C3436 1.403 . S
C3439 C3440 1.524 . S
C3439 C3443 1.400 . S
C3440 H3425 0.960 1_455 S
C3440 H3426 0.960 . S
C3440 H3427 0.960 . S
C3440 C3439 1.524 . S
C3441 C3438 1.403 . S
C3441 C3442 1.392 . S
C3441 C3445 1.495 . S
C3442 C3441 1.392 . S
C3442 C3443 1.385 . S
C3442 C3444 1.478 . S
C3443 H3437 0.930 . S
C3443 C3439 1.400 . S
C3443 C3442 1.385 . S
C3444 C3442 1.478 . S
C3444 C3446 1.381 . S
C3444 C3450 1.383 . S
C3445 C3441 1.495 . S
C3445 H3451 0.959 . S
C3445 H3452 0.961 . S
C3445 H3453 0.960 . S
C3446 C3444 1.381 . S
C3446 C3447 1.394 . S
C3446 H3454 0.930 . S
C3447 C3446 1.394 . S
C3447 C3448 1.383 . S
C3447 H3455 0.929 . S
C3448 C3447 1.383 . S
C3448 C3449 1.377 . S
C3449 H3433 0.930 . S
C3449 C3448 1.377 . S
C3449 C3450 1.379 . S
C3450 H3434 0.931 . S
C3450 C3444 1.383 . S
C3450 C3449 1.379 . S
H3451 C3445 0.959 . S
H3452 C3445 0.961 . S
H3453 C3445 0.960 . S
H3454 C3446 0.930 . S
H3455 C3447 0.929 . S
H3456 C3464 0.929 . S
H3457 C3466 0.930 . S
H3458 C3468 0.930 . S
H3459 C3471 0.929 . S
H3460 C3474 0.930 . S
H3461 C3476 0.960 . S
H3462 C3476 0.960 . S
H3463 C3476 0.960 . S
C3464 H3456 0.929 . S
C3464 C3465 1.377 . S
C3464 C3466 1.384 . S
C3465 C3464 1.377 . S
C3465 C3471 1.390 . S
C3466 H3457 0.930 . S
C3466 C3464 1.384 . S
C3466 C3467 1.372 . S
C3467 C3466 1.372 . S
C3467 C3468 1.400 . S
C3467 C3472 1.490 . S
C3468 H3458 0.930 . S
C3468 C3467 1.400 . S
C3468 C3471 1.386 . S
H3469 C3485 0.930 . S
H3470 C3486 0.931 . S
C3471 H3459 0.929 . S
C3471 C3465 1.390 . S
C3471 C3468 1.386 . S
C3472 C3467 1.490 . S
C3472 C3474 1.395 . S
C3472 C3475 1.403 . S
H3473 C3479 0.930 . S
C3474 H3460 0.930 . S
C3474 C3472 1.395 . S
C3474 C3477 1.403 . S
C3475 C3472 1.403 . S
C3475 C3476 1.524 . S
C3475 C3479 1.400 . S
C3476 H3461 0.960 . S
C3476 H3462 0.960 . S
C3476 H3463 0.960 . S
C3476 C3475 1.524 . S
C3477 C3474 1.403 . S
C3477 C3478 1.392 . S
C3477 C3481 1.495 . S
C3478 C3477 1.392 . S
C3478 C3479 1.385 . S
C3478 C3480 1.478 . S
C3479 H3473 0.930 . S
C3479 C3475 1.400 . S
C3479 C3478 1.385 . S
C3480 C3478 1.478 . S
C3480 C3482 1.381 . S
C3480 C3486 1.383 . S
C3481 C3477 1.495 . S
C3481 H3487 0.959 . S
C3481 H3488 0.961 . S
C3481 H3489 0.960 . S
C3482 C3480 1.381 . S
C3482 C3483 1.394 . S
C3482 H3490 0.930 . S
C3483 C3482 1.394 . S
C3483 C3484 1.383 . S
C3483 H3491 0.929 . S
C3484 C3483 1.383 . S
C3484 C3485 1.377 . S
C3485 H3469 0.930 . S
C3485 C3484 1.377 . S
C3485 C3486 1.379 . S
C3486 H3470 0.931 . S
C3486 C3480 1.383 . S
C3486 C3485 1.379 . S
H3487 C3481 0.959 . S
H3488 C3481 0.961 . S
H3489 C3481 0.960 . S
H3490 C3482 0.930 . S
H3491 C3483 0.929 . S
H3492 C3500 0.929 . S
H3493 C3502 0.930 . S
H3494 C3504 0.930 . S
H3495 C3507 0.929 . S
H3496 C3510 0.930 . S
H3497 C3512 0.960 . S
H3498 C3512 0.960 . S
H3499 C3512 0.960 . S
C3500 H3492 0.929 . S
C3500 C3501 1.377 . S
C3500 C3502 1.384 . S
C3501 C3500 1.377 . S
C3501 C3507 1.390 . S
C3502 H3493 0.930 . S
C3502 C3500 1.384 . S
C3502 C3503 1.372 . S
C3503 C3502 1.372 . S
C3503 C3504 1.400 . S
C3503 C3508 1.490 . S
C3504 H3494 0.930 . S
C3504 C3503 1.400 . S
C3504 C3507 1.386 . S
H3505 C3521 0.930 1_545 S
H3506 C3522 0.931 1_545 S
C3507 H3495 0.929 . S
C3507 C3501 1.390 . S
C3507 C3504 1.386 . S
C3508 C3503 1.490 . S
C3508 C3510 1.395 . S
C3508 C3511 1.403 . S
H3509 C3515 0.930 . S
C3510 H3496 0.930 . S
C3510 C3508 1.395 . S
C3510 C3513 1.403 . S
C3511 C3508 1.403 . S
C3511 C3512 1.524 . S
C3511 C3515 1.400 . S
C3512 H3497 0.960 . S
C3512 H3498 0.960 . S
C3512 H3499 0.960 . S
C3512 C3511 1.524 . S
C3513 C3510 1.403 . S
C3513 C3514 1.392 . S
C3513 C3517 1.495 . S
C3514 C3513 1.392 . S
C3514 C3515 1.385 . S
C3514 C3516 1.478 . S
C3515 H3509 0.930 . S
C3515 C3511 1.400 . S
C3515 C3514 1.385 . S
C3516 C3514 1.478 . S
C3516 C3518 1.381 . S
C3516 C3522 1.383 . S
C3517 C3513 1.495 . S
C3517 H3523 0.959 . S
C3517 H3524 0.961 . S
C3517 H3525 0.960 . S
C3518 C3516 1.381 . S
C3518 C3519 1.394 . S
C3518 H3526 0.930 . S
C3519 C3518 1.394 . S
C3519 C3520 1.383 . S
C3519 H3527 0.929 . S
C3520 C3519 1.383 . S
C3520 C3521 1.377 . S
C3521 H3505 0.930 1_565 S
C3521 C3520 1.377 . S
C3521 C3522 1.379 . S
C3522 H3506 0.931 1_565 S
C3522 C3516 1.383 . S
C3522 C3521 1.379 . S
H3523 C3517 0.959 . S
H3524 C3517 0.961 . S
H3525 C3517 0.960 . S
H3526 C3518 0.930 . S
H3527 C3519 0.929 . S
H3528 C3536 0.929 . S
H3529 C3538 0.930 . S
H3530 C3540 0.930 . S
H3531 C3543 0.929 . S
H3532 C3546 0.930 . S
H3533 C3548 0.960 . S
H3534 C3548 0.960 . S
H3535 C3548 0.960 . S
C3536 H3528 0.929 . S
C3536 C3537 1.377 . S
C3536 C3538 1.384 . S
C3537 C3536 1.377 . S
C3537 C3543 1.390 . S
C3538 H3529 0.930 . S
C3538 C3536 1.384 . S
C3538 C3539 1.372 . S
C3539 C3538 1.372 . S
C3539 C3540 1.400 . S
C3539 C3544 1.490 . S
C3540 H3530 0.930 . S
C3540 C3539 1.400 . S
C3540 C3543 1.386 . S
H3541 C3557 0.930 . S
H3542 C3558 0.931 . S
C3543 H3531 0.929 . S
C3543 C3537 1.390 . S
C3543 C3540 1.386 . S
C3544 C3539 1.490 . S
C3544 C3546 1.395 1_565 S
C3544 C3547 1.403 . S
H3545 C3551 0.930 . S
C3546 H3532 0.930 . S
C3546 C3544 1.395 1_545 S
C3546 C3549 1.403 . S
C3547 C3544 1.403 . S
C3547 C3548 1.524 . S
C3547 C3551 1.400 . S
C3548 H3533 0.960 . S
C3548 H3534 0.960 . S
C3548 H3535 0.960 . S
C3548 C3547 1.524 . S
C3549 C3546 1.403 . S
C3549 C3550 1.392 1_545 S
C3549 C3553 1.495 . S
C3550 C3549 1.392 1_565 S
C3550 C3551 1.385 . S
C3550 C3552 1.478 . S
C3551 H3545 0.930 . S
C3551 C3547 1.400 . S
C3551 C3550 1.385 . S
C3552 C3550 1.478 . S
C3552 C3554 1.381 1_565 S
C3552 C3558 1.383 . S
C3553 C3549 1.495 . S
C3553 H3559 0.959 . S
C3553 H3560 0.961 . S
C3553 H3561 0.960 . S
C3554 C3552 1.381 1_545 S
C3554 C3555 1.394 . S
C3554 H3562 0.930 . S
C3555 C3554 1.394 . S
C3555 C3556 1.383 . S
C3555 H3563 0.929 . S
C3556 C3555 1.383 . S
C3556 C3557 1.377 1_545 S
C3557 H3541 0.930 . S
C3557 C3556 1.377 1_565 S
C3557 C3558 1.379 . S
C3558 H3542 0.931 . S
C3558 C3552 1.383 . S
C3558 C3557 1.379 . S
H3559 C3553 0.959 . S
H3560 C3553 0.961 . S
H3561 C3553 0.960 . S
H3562 C3554 0.930 . S
H3563 C3555 0.929 . S
H3564 C3572 0.929 . S
H3565 C3574 0.930 . S
H3566 C3576 0.930 . S
H3567 C3579 0.929 . S
H3568 C3582 0.930 1_655 S
H3569 C3584 0.960 . S
H3570 C3584 0.960 . S
H3571 C3584 0.960 . S
C3572 H3564 0.929 . S
C3572 C3573 1.377 . S
C3572 C3574 1.384 . S
C3573 C3572 1.377 . S
C3573 C3579 1.390 . S
C3574 H3565 0.930 . S
C3574 C3572 1.384 . S
C3574 C3575 1.372 . S
C3575 C3574 1.372 . S
C3575 C3576 1.400 . S
C3575 C3580 1.490 . S
C3576 H3566 0.930 . S
C3576 C3575 1.400 . S
C3576 C3579 1.386 . S
H3577 C3593 0.930 . S
H3578 C3594 0.921 . S
C3579 H3567 0.929 . S
C3579 C3573 1.390 . S
C3579 C3576 1.386 . S
C3580 C3575 1.490 . S
C3580 C3582 1.395 . S
C3580 C3583 1.403 . S
H3581 C3587 0.930 . S
C3582 H3568 0.930 1_455 S
C3582 C3580 1.395 . S
C3582 C3585 1.403 1_455 S
C3583 C3580 1.403 . S
C3583 C3584 1.524 . S
C3583 C3587 1.400 . S
C3584 H3569 0.960 . S
C3584 H3570 0.960 . S
C3584 H3571 0.960 . S
C3584 C3583 1.524 . S
C3585 C3582 1.403 1_655 S
C3585 C3586 1.392 1_655 S
C3585 C3589 1.495 . S
C3586 C3585 1.392 1_455 S
C3586 C3587 1.385 . S
C3586 C3588 1.478 . S
C3587 H3581 0.930 . S
C3587 C3583 1.400 . S
C3587 C3586 1.385 . S
C3588 C3586 1.478 . S
C3588 C3590 1.381 . S
C3588 C3594 1.378 1_455 S
C3589 C3585 1.495 . S
C3589 H3595 0.959 . S
C3589 H3596 0.961 . S
C3589 H3597 0.960 . S
C3590 C3588 1.381 . S
C3590 C3591 1.396 . S
C3590 H3598 0.930 . S
C3591 C3590 1.396 . S
C3591 C3592 1.384 1_455 S
C3591 H3599 0.917 . S
C3592 C3591 1.384 1_655 S
C3592 C3593 1.377 . S
C3593 H3577 0.930 . S
C3593 C3592 1.377 . S
C3593 C3594 1.368 . S
C3594 H3578 0.921 . S
C3594 C3588 1.378 1_655 S
C3594 C3593 1.368 . S
H3595 C3589 0.959 . S
H3596 C3589 0.961 . S
H3597 C3589 0.960 . S
H3598 C3590 0.930 . S
H3599 C3591 0.917 . S
H3600 C3608 0.929 . S
H3601 C3610 0.930 . S
H3602 C3612 0.930 . S
H3603 C3615 0.929 . S
H3604 C3618 0.930 . S
H3605 C3620 0.960 . S
H3606 C3620 0.960 . S
H3607 C3620 0.960 . S
C3608 H3600 0.929 . S
C3608 C3609 1.377 . S
C3608 C3610 1.384 . S
C3609 C3608 1.377 . S
C3609 C3615 1.390 . S
C3610 H3601 0.930 . S
C3610 C3608 1.384 . S
C3610 C3611 1.372 . S
C3611 C3610 1.372 . S
C3611 C3612 1.400 . S
C3611 C3616 1.490 . S
C3612 H3602 0.930 . S
C3612 C3611 1.400 . S
C3612 C3615 1.386 . S
H3613 C3629 0.930 . S
H3614 C3630 0.931 . S
C3615 H3603 0.929 . S
C3615 C3609 1.390 . S
C3615 C3612 1.386 . S
C3616 C3611 1.490 . S
C3616 C3618 1.395 . S
C3616 C3619 1.403 . S
H3617 C3623 0.930 . S
C3618 H3604 0.930 . S
C3618 C3616 1.395 . S
C3618 C3621 1.403 . S
C3619 C3616 1.403 . S
C3619 C3620 1.524 . S
C3619 C3623 1.400 . S
C3620 H3605 0.960 . S
C3620 H3606 0.960 . S
C3620 H3607 0.960 . S
C3620 C3619 1.524 . S
C3621 C3618 1.403 . S
C3621 C3622 1.392 . S
C3621 C3625 1.495 . S
C3622 C3621 1.392 . S
C3622 C3623 1.385 . S
C3622 C3624 1.478 . S
C3623 H3617 0.930 . S
C3623 C3619 1.400 . S
C3623 C3622 1.385 . S
C3624 C3622 1.478 . S
C3624 C3626 1.381 . S
C3624 C3630 1.383 . S
C3625 C3621 1.495 . S
C3625 H3631 0.959 . S
C3625 H3632 0.961 . S
C3625 H3633 0.960 . S
C3626 C3624 1.381 . S
C3626 C3627 1.394 . S
C3626 H3634 0.930 . S
C3627 C3626 1.394 . S
C3627 C3628 1.383 . S
C3627 H3635 0.929 . S
C3628 C3627 1.383 . S
C3628 C3629 1.377 . S
C3629 H3613 0.930 . S
C3629 C3628 1.377 . S
C3629 C3630 1.379 . S
C3630 H3614 0.931 . S
C3630 C3624 1.383 . S
C3630 C3629 1.379 . S
H3631 C3625 0.959 . S
H3632 C3625 0.961 . S
H3633 C3625 0.960 . S
H3634 C3626 0.930 . S
H3635 C3627 0.929 . S
H3636 C3644 0.929 . S
H3637 C3646 0.930 . S
H3638 C3648 0.930 . S
H3639 C3651 0.929 . S
H3640 C3654 0.930 . S
H3641 C3656 0.960 . S
H3642 C3656 0.960 . S
H3643 C3656 0.960 . S
C3644 H3636 0.929 . S
C3644 C3645 1.377 . S
C3644 C3646 1.384 . S
C3645 C3644 1.377 . S
C3645 C3651 1.390 . S
C3646 H3637 0.930 . S
C3646 C3644 1.384 . S
C3646 C3647 1.372 . S
C3647 C3646 1.372 . S
C3647 C3648 1.400 . S
C3647 C3652 1.490 . S
C3648 H3638 0.930 . S
C3648 C3647 1.400 . S
C3648 C3651 1.386 . S
H3649 C3665 0.930 . S
H3650 C3666 0.931 . S
C3651 H3639 0.929 . S
C3651 C3645 1.390 . S
C3651 C3648 1.386 . S
C3652 C3647 1.490 . S
C3652 C3654 1.395 . S
C3652 C3655 1.403 . S
H3653 C3659 0.930 . S
C3654 H3640 0.930 . S
C3654 C3652 1.395 . S
C3654 C3657 1.403 . S
C3655 C3652 1.403 . S
C3655 C3656 1.524 . S
C3655 C3659 1.400 . S
C3656 H3641 0.960 . S
C3656 H3642 0.960 . S
C3656 H3643 0.960 . S
C3656 C3655 1.524 . S
C3657 C3654 1.403 . S
C3657 C3658 1.392 . S
C3657 C3661 1.495 . S
C3658 C3657 1.392 . S
C3658 C3659 1.385 . S
C3658 C3660 1.478 . S
C3659 H3653 0.930 . S
C3659 C3655 1.400 . S
C3659 C3658 1.385 . S
C3660 C3658 1.478 . S
C3660 C3662 1.381 . S
C3660 C3666 1.383 . S
C3661 C3657 1.495 . S
C3661 H3667 0.959 . S
C3661 H3668 0.961 . S
C3661 H3669 0.960 . S
C3662 C3660 1.381 . S
C3662 C3663 1.394 . S
C3662 H3670 0.930 . S
C3663 C3662 1.394 . S
C3663 C3664 1.383 . S
C3663 H3671 0.929 . S
C3664 C3663 1.383 . S
C3664 C3665 1.377 . S
C3665 H3649 0.930 . S
C3665 C3664 1.377 . S
C3665 C3666 1.379 . S
C3666 H3650 0.931 . S
C3666 C3660 1.383 . S
C3666 C3665 1.379 . S
H3667 C3661 0.959 . S
H3668 C3661 0.961 . S
H3669 C3661 0.960 . S
H3670 C3662 0.930 . S
H3671 C3663 0.929 . S
H3672 C3680 0.929 . S
H3673 C3682 0.930 . S
H3674 C3684 0.930 . S
H3675 C3687 0.929 . S
H3676 C3690 0.930 . S
H3677 C3692 0.960 . S
H3678 C3692 0.960 . S
H3679 C3692 0.960 . S
C3680 H3672 0.929 . S
C3680 C3681 1.377 . S
C3680 C3682 1.384 . S
C3681 C3680 1.377 . S
C3681 C3687 1.390 . S
C3682 H3673 0.930 . S
C3682 C3680 1.384 . S
C3682 C3683 1.372 . S
C3683 C3682 1.372 . S
C3683 C3684 1.400 . S
C3683 C3688 1.490 . S
C3684 H3674 0.930 . S
C3684 C3683 1.400 . S
C3684 C3687 1.386 . S
H3685 C3701 0.930 . S
H3686 C3702 0.931 . S
C3687 H3675 0.929 . S
C3687 C3681 1.390 . S
C3687 C3684 1.386 . S
C3688 C3683 1.490 . S
C3688 C3690 1.395 . S
C3688 C3691 1.403 . S
H3689 C3695 0.930 . S
C3690 H3676 0.930 . S
C3690 C3688 1.395 . S
C3690 C3693 1.403 . S
C3691 C3688 1.403 . S
C3691 C3692 1.524 . S
C3691 C3695 1.400 . S
C3692 H3677 0.960 . S
C3692 H3678 0.960 . S
C3692 H3679 0.960 . S
C3692 C3691 1.524 . S
C3693 C3690 1.403 . S
C3693 C3694 1.392 . S
C3693 C3697 1.495 . S
C3694 C3693 1.392 . S
C3694 C3695 1.385 . S
C3694 C3696 1.478 . S
C3695 H3689 0.930 . S
C3695 C3691 1.400 . S
C3695 C3694 1.385 . S
C3696 C3694 1.478 . S
C3696 C3698 1.381 . S
C3696 C3702 1.383 . S
C3697 C3693 1.495 . S
C3697 H3703 0.959 . S
C3697 H3704 0.961 . S
C3697 H3705 0.960 . S
C3698 C3696 1.381 . S
C3698 C3699 1.394 . S
C3698 H3706 0.930 . S
C3699 C3698 1.394 . S
C3699 C3700 1.383 . S
C3699 H3707 0.929 . S
C3700 C3699 1.383 . S
C3700 C3701 1.377 . S
C3701 H3685 0.930 . S
C3701 C3700 1.377 . S
C3701 C3702 1.379 . S
C3702 H3686 0.931 . S
C3702 C3696 1.383 . S
C3702 C3701 1.379 . S
H3703 C3697 0.959 . S
H3704 C3697 0.961 . S
H3705 C3697 0.960 . S
H3706 C3698 0.930 . S
H3707 C3699 0.929 . S
H3708 C3716 0.929 . S
H3709 C3718 0.930 . S
H3710 C3720 0.930 . S
H3711 C3723 0.929 . S
H3712 C3726 0.930 . S
H3713 C3728 0.960 . S
H3714 C3728 0.960 . S
H3715 C3728 0.960 . S
C3716 H3708 0.929 . S
C3716 C3717 1.377 . S
C3716 C3718 1.384 . S
C3717 C3716 1.377 . S
C3717 C3723 1.390 . S
C3718 H3709 0.930 . S
C3718 C3716 1.384 . S
C3718 C3719 1.372 . S
C3719 C3718 1.372 . S
C3719 C3720 1.400 . S
C3719 C3724 1.490 . S
C3720 H3710 0.930 . S
C3720 C3719 1.400 . S
C3720 C3723 1.386 . S
H3721 C3737 0.930 . S
H3722 C3738 0.931 . S
C3723 H3711 0.929 . S
C3723 C3717 1.390 . S
C3723 C3720 1.386 . S
C3724 C3719 1.490 . S
C3724 C3726 1.395 . S
C3724 C3727 1.403 . S
H3725 C3731 0.930 . S
C3726 H3712 0.930 . S
C3726 C3724 1.395 . S
C3726 C3729 1.403 . S
C3727 C3724 1.403 . S
C3727 C3728 1.524 . S
C3727 C3731 1.400 . S
C3728 H3713 0.960 . S
C3728 H3714 0.960 . S
C3728 H3715 0.960 . S
C3728 C3727 1.524 . S
C3729 C3726 1.403 . S
C3729 C3730 1.392 . S
C3729 C3733 1.495 . S
C3730 C3729 1.392 . S
C3730 C3731 1.385 . S
C3730 C3732 1.478 . S
C3731 H3725 0.930 . S
C3731 C3727 1.400 . S
C3731 C3730 1.385 . S
C3732 C3730 1.478 . S
C3732 C3734 1.381 . S
C3732 C3738 1.383 . S
C3733 C3729 1.495 . S
C3733 H3739 0.959 . S
C3733 H3740 0.961 . S
C3733 H3741 0.960 . S
C3734 C3732 1.381 . S
C3734 C3735 1.394 . S
C3734 H3742 0.930 . S
C3735 C3734 1.394 . S
C3735 C3736 1.383 . S
C3735 H3743 0.929 . S
C3736 C3735 1.383 . S
C3736 C3737 1.377 . S
C3737 H3721 0.930 . S
C3737 C3736 1.377 . S
C3737 C3738 1.379 . S
C3738 H3722 0.931 . S
C3738 C3732 1.383 . S
C3738 C3737 1.379 . S
H3739 C3733 0.959 . S
H3740 C3733 0.961 . S
H3741 C3733 0.960 . S
H3742 C3734 0.930 . S
H3743 C3735 0.929 . S
H3744 C3752 0.929 . S
H3745 C3754 0.907 1_565 S
H3746 C3756 0.930 . S
H3747 C3759 0.929 . S
H3748 C3762 0.930 . S
H3749 C3764 0.960 . S
H3750 C3764 0.960 . S
H3751 C3764 0.960 . S
C3752 H3744 0.929 . S
C3752 C3753 1.377 . S
C3752 C3754 1.384 . S
C3753 C3752 1.377 . S
C3753 C3759 1.390 . S
C3754 H3745 0.907 1_545 S
C3754 C3752 1.384 . S
C3754 C3755 1.372 . S
C3755 C3754 1.372 . S
C3755 C3756 1.400 . S
C3755 C3760 1.490 . S
C3756 H3746 0.930 . S
C3756 C3755 1.400 . S
C3756 C3759 1.386 . S
H3757 C3773 0.930 . S
H3758 C3774 0.931 . S
C3759 H3747 0.929 . S
C3759 C3753 1.390 . S
C3759 C3756 1.386 . S
C3760 C3755 1.490 . S
C3760 C3762 1.395 . S
C3760 C3763 1.403 . S
H3761 C3767 0.930 . S
C3762 H3748 0.930 . S
C3762 C3760 1.395 . S
C3762 C3765 1.403 . S
C3763 C3760 1.403 . S
C3763 C3764 1.524 . S
C3763 C3767 1.400 . S
C3764 H3749 0.960 . S
C3764 H3750 0.960 . S
C3764 H3751 0.960 . S
C3764 C3763 1.524 . S
C3765 C3762 1.403 . S
C3765 C3766 1.392 . S
C3765 C3769 1.495 1_545 S
C3766 C3765 1.392 . S
C3766 C3767 1.385 . S
C3766 C3768 1.478 . S
C3767 H3761 0.930 . S
C3767 C3763 1.400 . S
C3767 C3766 1.385 . S
C3768 C3766 1.478 . S
C3768 C3770 1.381 1_545 S
C3768 C3774 1.383 . S
C3769 C3765 1.495 1_565 S
C3769 H3775 0.959 . S
C3769 H3776 0.965 1_565 S
C3769 H3777 0.960 . S
C3770 C3768 1.381 1_565 S
C3770 C3771 1.394 . S
C3770 H3778 0.930 . S
C3771 C3770 1.394 . S
C3771 C3772 1.383 1_565 S
C3771 H3779 0.929 . S
C3772 C3771 1.383 1_545 S
C3772 C3773 1.377 . S
C3773 H3757 0.930 . S
C3773 C3772 1.377 . S
C3773 C3774 1.379 . S
C3774 H3758 0.931 . S
C3774 C3768 1.383 . S
C3774 C3773 1.379 . S
H3775 C3769 0.959 . S
H3776 C3769 0.965 1_545 S
H3777 C3769 0.960 . S
H3778 C3770 0.930 . S
H3779 C3771 0.929 . S
H3780 C3788 0.929 . S
H3781 C3790 0.930 . S
H3782 C3792 0.930 . S
H3783 C3795 0.929 . S
H3784 C3798 0.930 1_455 S
H3785 C3800 0.960 . S
H3786 C3800 0.960 . S
H3787 C3800 0.960 . S
C3788 H3780 0.929 . S
C3788 C3789 1.377 . S
C3788 C3790 1.384 . S
C3789 C3788 1.377 . S
C3789 C3795 1.390 . S
C3790 H3781 0.930 . S
C3790 C3788 1.384 . S
C3790 C3791 1.372 . S
C3791 C3790 1.372 . S
C3791 C3792 1.400 . S
C3791 C3796 1.490 . S
C3792 H3782 0.930 . S
C3792 C3791 1.400 . S
C3792 C3795 1.386 . S
H3793 C3809 0.930 . S
H3794 C3810 0.931 . S
C3795 H3783 0.929 . S
C3795 C3789 1.390 . S
C3795 C3792 1.386 . S
C3796 C3791 1.490 . S
C3796 C3798 1.395 . S
C3796 C3799 1.403 . S
H3797 C3803 0.930 . S
C3798 H3784 0.930 1_655 S
C3798 C3796 1.395 . S
C3798 C3801 1.403 . S
C3799 C3796 1.403 . S
C3799 C3800 1.524 . S
C3799 C3803 1.400 . S
C3800 H3785 0.960 . S
C3800 H3786 0.960 . S
C3800 H3787 0.960 . S
C3800 C3799 1.524 . S
C3801 C3798 1.403 . S
C3801 C3802 1.392 . S
C3801 C3805 1.495 1_655 S
C3802 C3801 1.392 . S
C3802 C3803 1.385 . S
C3802 C3804 1.478 . S
C3803 H3797 0.930 . S
C3803 C3799 1.400 . S
C3803 C3802 1.385 . S
C3804 C3802 1.478 . S
C3804 C3806 1.368 1_655 S
C3804 C3810 1.383 . S
C3805 C3801 1.495 1_455 S
C3805 H3811 0.959 . S
C3805 H3812 0.961 . S
C3805 H3813 0.960 . S
C3806 C3804 1.368 1_455 S
C3806 C3807 1.384 . S
C3806 H3814 0.954 . S
C3807 C3806 1.384 . S
C3807 C3808 1.383 1_455 S
C3807 H3815 0.929 . S
C3808 C3807 1.383 1_655 S
C3808 C3809 1.377 . S
C3809 H3793 0.930 . S
C3809 C3808 1.377 . S
C3809 C3810 1.379 . S
C3810 H3794 0.931 . S
C3810 C3804 1.383 . S
C3810 C3809 1.379 . S
H3811 C3805 0.959 . S
H3812 C3805 0.961 . S
H3813 C3805 0.960 . S
H3814 C3806 0.954 . S
H3815 C3807 0.929 . S
H3816 C3824 0.929 . S
H3817 C3826 0.930 . S
H3818 C3828 0.930 . S
H3819 C3831 0.929 . S
H3820 C3834 0.930 . S
H3821 C3836 0.960 . S
H3822 C3836 0.960 . S
H3823 C3836 0.960 . S
C3824 H3816 0.929 . S
C3824 C3825 1.377 . S
C3824 C3826 1.384 . S
C3825 C3824 1.377 . S
C3825 C3831 1.390 . S
C3826 H3817 0.930 . S
C3826 C3824 1.384 . S
C3826 C3827 1.372 . S
C3827 C3826 1.372 . S
C3827 C3828 1.400 . S
C3827 C3832 1.490 . S
C3828 H3818 0.930 . S
C3828 C3827 1.400 . S
C3828 C3831 1.386 . S
H3829 C3845 0.930 . S
H3830 C3846 0.931 . S
C3831 H3819 0.929 . S
C3831 C3825 1.390 . S
C3831 C3828 1.386 . S
C3832 C3827 1.490 . S
C3832 C3834 1.395 . S
C3832 C3835 1.403 . S
H3833 C3839 0.930 . S
C3834 H3820 0.930 . S
C3834 C3832 1.395 . S
C3834 C3837 1.403 . S
C3835 C3832 1.403 . S
C3835 C3836 1.524 . S
C3835 C3839 1.400 . S
C3836 H3821 0.960 . S
C3836 H3822 0.960 . S
C3836 H3823 0.960 . S
C3836 C3835 1.524 . S
C3837 C3834 1.403 . S
C3837 C3838 1.392 . S
C3837 C3841 1.495 . S
C3838 C3837 1.392 . S
C3838 C3839 1.385 . S
C3838 C3840 1.478 . S
C3839 H3833 0.930 . S
C3839 C3835 1.400 . S
C3839 C3838 1.385 . S
C3840 C3838 1.478 . S
C3840 C3842 1.381 . S
C3840 C3846 1.383 . S
C3841 C3837 1.495 . S
C3841 H3847 0.959 . S
C3841 H3848 0.961 . S
C3841 H3849 0.960 . S
C3842 C3840 1.381 . S
C3842 C3843 1.394 . S
C3842 H3850 0.930 . S
C3843 C3842 1.394 . S
C3843 C3844 1.383 . S
C3843 H3851 0.929 . S
C3844 C3843 1.383 . S
C3844 C3845 1.377 . S
C3845 H3829 0.930 . S
C3845 C3844 1.377 . S
C3845 C3846 1.379 . S
C3846 H3830 0.931 . S
C3846 C3840 1.383 . S
C3846 C3845 1.379 . S
H3847 C3841 0.959 . S
H3848 C3841 0.961 . S
H3849 C3841 0.960 . S
H3850 C3842 0.930 . S
H3851 C3843 0.929 . S
H3852 C3860 0.929 . S
H3853 C3862 0.930 . S
H3854 C3864 0.930 . S
H3855 C3867 0.929 . S
H3856 C3870 0.930 . S
H3857 C3872 0.960 . S
H3858 C3872 0.960 . S
H3859 C3872 0.960 . S
C3860 H3852 0.929 . S
C3860 C3861 1.377 . S
C3860 C3862 1.384 . S
C3861 C3860 1.377 . S
C3861 C3867 1.390 . S
C3862 H3853 0.930 . S
C3862 C3860 1.384 . S
C3862 C3863 1.372 . S
C3863 C3862 1.372 . S
C3863 C3864 1.400 . S
C3863 C3868 1.490 . S
C3864 H3854 0.930 . S
C3864 C3863 1.400 . S
C3864 C3867 1.386 . S
H3865 C3881 0.930 . S
H3866 C3882 0.931 . S
C3867 H3855 0.929 . S
C3867 C3861 1.390 . S
C3867 C3864 1.386 . S
C3868 C3863 1.490 . S
C3868 C3870 1.395 . S
C3868 C3871 1.403 . S
H3869 C3875 0.930 . S
C3870 H3856 0.930 . S
C3870 C3868 1.395 . S
C3870 C3873 1.403 . S
C3871 C3868 1.403 . S
C3871 C3872 1.524 . S
C3871 C3875 1.400 . S
C3872 H3857 0.960 . S
C3872 H3858 0.960 . S
C3872 H3859 0.960 . S
C3872 C3871 1.524 . S
C3873 C3870 1.403 . S
C3873 C3874 1.392 . S
C3873 C3877 1.495 . S
C3874 C3873 1.392 . S
C3874 C3875 1.385 . S
C3874 C3876 1.478 . S
C3875 H3869 0.930 . S
C3875 C3871 1.400 . S
C3875 C3874 1.385 . S
C3876 C3874 1.478 . S
C3876 C3878 1.381 . S
C3876 C3882 1.383 . S
C3877 C3873 1.495 . S
C3877 H3883 0.959 . S
C3877 H3884 0.961 . S
C3877 H3885 0.960 . S
C3878 C3876 1.381 . S
C3878 C3879 1.394 . S
C3878 H3886 0.930 . S
C3879 C3878 1.394 . S
C3879 C3880 1.383 . S
C3879 H3887 0.929 . S
C3880 C3879 1.383 . S
C3880 C3881 1.377 . S
C3881 H3865 0.930 . S
C3881 C3880 1.377 . S
C3881 C3882 1.379 . S
C3882 H3866 0.931 . S
C3882 C3876 1.383 . S
C3882 C3881 1.379 . S
H3883 C3877 0.959 . S
H3884 C3877 0.961 . S
H3885 C3877 0.960 . S
H3886 C3878 0.930 . S
H3887 C3879 0.929 . S
H3888 C3896 0.929 . S
H3889 C3898 0.930 . S
H3890 C3900 0.930 . S
H3891 C3903 0.929 . S
H3892 C3906 0.930 . S
H3893 C3908 0.960 . S
H3894 C3908 0.960 . S
H3895 C3908 0.960 . S
C3896 H3888 0.929 . S
C3896 C3897 1.377 . S
C3896 C3898 1.384 . S
C3897 C3896 1.377 . S
C3897 C3903 1.390 . S
C3898 H3889 0.930 . S
C3898 C3896 1.384 . S
C3898 C3899 1.372 . S
C3899 C3898 1.372 . S
C3899 C3900 1.400 . S
C3899 C3904 1.490 . S
C3900 H3890 0.930 . S
C3900 C3899 1.400 . S
C3900 C3903 1.386 . S
H3901 C3917 0.930 . S
H3902 C3918 0.931 . S
C3903 H3891 0.929 . S
C3903 C3897 1.390 . S
C3903 C3900 1.386 . S
C3904 C3899 1.490 . S
C3904 C3906 1.395 . S
C3904 C3907 1.403 . S
H3905 C3911 0.930 . S
C3906 H3892 0.930 . S
C3906 C3904 1.395 . S
C3906 C3909 1.403 . S
C3907 C3904 1.403 . S
C3907 C3908 1.524 . S
C3907 C3911 1.400 . S
C3908 H3893 0.960 . S
C3908 H3894 0.960 . S
C3908 H3895 0.960 . S
C3908 C3907 1.524 . S
C3909 C3906 1.403 . S
C3909 C3910 1.392 . S
C3909 C3913 1.495 . S
C3910 C3909 1.392 . S
C3910 C3911 1.385 . S
C3910 C3912 1.478 . S
C3911 H3905 0.930 . S
C3911 C3907 1.400 . S
C3911 C3910 1.385 . S
C3912 C3910 1.478 . S
C3912 C3914 1.381 . S
C3912 C3918 1.383 . S
C3913 C3909 1.495 . S
C3913 H3919 0.959 . S
C3913 H3920 0.961 . S
C3913 H3921 0.960 . S
C3914 C3912 1.381 . S
C3914 C3915 1.394 . S
C3914 H3922 0.930 . S
C3915 C3914 1.394 . S
C3915 C3916 1.383 . S
C3915 H3923 0.929 . S
C3916 C3915 1.383 . S
C3916 C3917 1.377 . S
C3917 H3901 0.930 . S
C3917 C3916 1.377 . S
C3917 C3918 1.379 . S
C3918 H3902 0.931 . S
C3918 C3912 1.383 . S
C3918 C3917 1.379 . S
H3919 C3913 0.959 . S
H3920 C3913 0.961 . S
H3921 C3913 0.960 . S
H3922 C3914 0.930 . S
H3923 C3915 0.929 . S
H3924 C3932 0.929 . S
H3925 C3934 0.930 . S
H3926 C3936 0.930 . S
H3927 C3939 0.929 . S
H3928 C3942 0.930 . S
H3929 C3944 0.960 . S
H3930 C3944 0.960 . S
H3931 C3944 0.960 . S
C3932 H3924 0.929 . S
C3932 C3933 1.377 . S
C3932 C3934 1.384 . S
C3933 C3932 1.377 . S
C3933 C3939 1.390 . S
C3934 H3925 0.930 . S
C3934 C3932 1.384 . S
C3934 C3935 1.372 . S
C3935 C3934 1.372 . S
C3935 C3936 1.400 . S
C3935 C3940 1.490 . S
C3936 H3926 0.930 . S
C3936 C3935 1.400 . S
C3936 C3939 1.386 . S
H3937 C3953 0.930 . S
H3938 C3954 0.931 . S
C3939 H3927 0.929 . S
C3939 C3933 1.390 . S
C3939 C3936 1.386 . S
C3940 C3935 1.490 . S
C3940 C3942 1.395 . S
C3940 C3943 1.403 . S
H3941 C3947 0.930 . S
C3942 H3928 0.930 . S
C3942 C3940 1.395 . S
C3942 C3945 1.403 . S
C3943 C3940 1.403 . S
C3943 C3944 1.524 . S
C3943 C3947 1.400 . S
C3944 H3929 0.960 . S
C3944 H3930 0.960 . S
C3944 H3931 0.960 . S
C3944 C3943 1.524 . S
C3945 C3942 1.403 . S
C3945 C3946 1.392 . S
C3945 C3949 1.495 . S
C3946 C3945 1.392 . S
C3946 C3947 1.385 . S
C3946 C3948 1.478 . S
C3947 H3941 0.930 . S
C3947 C3943 1.400 . S
C3947 C3946 1.385 . S
C3948 C3946 1.478 . S
C3948 C3950 1.381 . S
C3948 C3954 1.383 . S
C3949 C3945 1.495 . S
C3949 H3955 0.959 . S
C3949 H3956 0.961 . S
C3949 H3957 0.960 . S
C3950 C3948 1.381 . S
C3950 C3951 1.394 . S
C3950 H3958 0.930 . S
C3951 C3950 1.394 . S
C3951 C3952 1.383 . S
C3951 H3959 0.929 . S
C3952 C3951 1.383 . S
C3952 C3953 1.377 . S
C3953 H3937 0.930 . S
C3953 C3952 1.377 . S
C3953 C3954 1.379 . S
C3954 H3938 0.931 . S
C3954 C3948 1.383 . S
C3954 C3953 1.379 . S
H3955 C3949 0.959 . S
H3956 C3949 0.961 . S
H3957 C3949 0.960 . S
H3958 C3950 0.930 . S
H3959 C3951 0.929 . S
H3960 C3968 0.929 . S
H3961 C3970 0.930 . S
H3962 C3972 0.930 . S
H3963 C3975 0.929 . S
H3964 C3978 0.930 . S
H3965 C3980 0.960 . S
H3966 C3980 0.960 . S
H3967 C3980 0.960 . S
C3968 H3960 0.929 . S
C3968 C3969 1.377 . S
C3968 C3970 1.384 . S
C3969 C3968 1.377 . S
C3969 C3975 1.390 . S
C3970 H3961 0.930 . S
C3970 C3968 1.384 . S
C3970 C3971 1.372 . S
C3971 C3970 1.372 . S
C3971 C3972 1.400 . S
C3971 C3976 1.490 . S
C3972 H3962 0.930 . S
C3972 C3971 1.400 . S
C3972 C3975 1.386 . S
H3973 C3989 0.930 . S
H3974 C3990 0.931 . S
C3975 H3963 0.929 . S
C3975 C3969 1.390 . S
C3975 C3972 1.386 . S
C3976 C3971 1.490 . S
C3976 C3978 1.395 . S
C3976 C3979 1.403 . S
H3977 C3983 0.930 . S
C3978 H3964 0.930 . S
C3978 C3976 1.395 . S
C3978 C3981 1.403 . S
C3979 C3976 1.403 . S
C3979 C3980 1.524 . S
C3979 C3983 1.400 . S
C3980 H3965 0.960 . S
C3980 H3966 0.960 . S
C3980 H3967 0.960 . S
C3980 C3979 1.524 . S
C3981 C3978 1.403 . S
C3981 C3982 1.392 . S
C3981 C3985 1.495 . S
C3982 C3981 1.392 . S
C3982 C3983 1.385 . S
C3982 C3984 1.478 . S
C3983 H3977 0.930 . S
C3983 C3979 1.400 . S
C3983 C3982 1.385 . S
C3984 C3982 1.478 . S
C3984 C3986 1.381 . S
C3984 C3990 1.383 . S
C3985 C3981 1.495 . S
C3985 H3991 0.959 . S
C3985 H3992 0.961 . S
C3985 H3993 0.960 . S
C3986 C3984 1.381 . S
C3986 C3987 1.394 . S
C3986 H3994 0.930 . S
C3987 C3986 1.394 . S
C3987 C3988 1.383 . S
C3987 H3995 0.929 . S
C3988 C3987 1.383 . S
C3988 C3989 1.377 . S
C3989 H3973 0.930 . S
C3989 C3988 1.377 . S
C3989 C3990 1.379 . S
C3990 H3974 0.931 . S
C3990 C3984 1.383 . S
C3990 C3989 1.379 . S
H3991 C3985 0.959 . S
H3992 C3985 0.961 . S
H3993 C3985 0.960 . S
H3994 C3986 0.930 . S
H3995 C3987 0.929 . S
H3996 C4004 0.929 . S
H3997 C4006 0.930 . S
H3998 C4008 0.930 . S
H3999 C4011 0.929 1_545 S
H4000 C4014 0.930 . S
H4001 C4016 0.960 . S
H4002 C4016 0.960 . S
H4003 C4016 0.960 . S
C4004 H3996 0.929 . S
C4004 C4005 1.377 . S
C4004 C4006 1.384 . S
C4005 C4004 1.377 . S
C4005 C4011 1.390 . S
C4006 H3997 0.930 . S
C4006 C4004 1.384 . S
C4006 C4007 1.372 . S
C4007 C4006 1.372 . S
C4007 C4008 1.400 . S
C4007 C4012 1.490 . S
C4008 H3998 0.930 . S
C4008 C4007 1.400 . S
C4008 C4011 1.386 . S
H4009 C4025 0.930 . S
H4010 C4026 0.931 . S
C4011 H3999 0.929 1_565 S
C4011 C4005 1.390 . S
C4011 C4008 1.386 . S
C4012 C4007 1.490 . S
C4012 C4014 1.395 . S
C4012 C4015 1.403 . S
H4013 C4019 0.930 . S
C4014 H4000 0.930 . S
C4014 C4012 1.395 . S
C4014 C4017 1.403 . S
C4015 C4012 1.403 . S
C4015 C4016 1.524 . S
C4015 C4019 1.400 . S
C4016 H4001 0.960 . S
C4016 H4002 0.960 . S
C4016 H4003 0.960 . S
C4016 C4015 1.524 . S
C4017 C4014 1.403 . S
C4017 C4018 1.392 . S
C4017 C4021 1.495 . S
C4018 C4017 1.392 . S
C4018 C4019 1.385 . S
C4018 C4020 1.478 . S
C4019 H4013 0.930 . S
C4019 C4015 1.400 . S
C4019 C4018 1.385 . S
C4020 C4018 1.478 . S
C4020 C4022 1.381 . S
C4020 C4026 1.383 . S
C4021 C4017 1.495 . S
C4021 H4027 0.959 . S
C4021 H4028 0.961 . S
C4021 H4029 0.960 . S
C4022 C4020 1.381 . S
C4022 C4023 1.394 . S
C4022 H4030 0.930 . S
C4023 C4022 1.394 . S
C4023 C4024 1.383 . S
C4023 H4031 0.929 . S
C4024 C4023 1.383 . S
C4024 C4025 1.377 . S
C4025 H4009 0.930 . S
C4025 C4024 1.377 . S
C4025 C4026 1.379 . S
C4026 H4010 0.931 . S
C4026 C4020 1.383 . S
C4026 C4025 1.379 . S
H4027 C4021 0.959 . S
H4028 C4021 0.961 . S
H4029 C4021 0.960 . S
H4030 C4022 0.930 . S
H4031 C4023 0.929 . S
H4032 C4040 0.929 . S
H4033 C4042 0.930 . S
H4034 C4044 0.930 . S
H4035 C4047 0.929 . S
H4036 C4050 0.930 . S
H4037 C4052 0.960 . S
H4038 C4052 0.960 . S
H4039 C4052 0.960 . S
C4040 H4032 0.929 . S
C4040 C4041 1.377 1_455 S
C4040 C4042 1.384 . S
C4041 C4040 1.377 1_655 S
C4041 C4047 1.390 . S
C4042 H4033 0.930 . S
C4042 C4040 1.384 . S
C4042 C4043 1.372 . S
C4043 C4042 1.372 . S
C4043 C4044 1.400 . S
C4043 C4048 1.490 . S
C4044 H4034 0.930 . S
C4044 C4043 1.400 . S
C4044 C4047 1.386 1_455 S
H4045 C4061 0.930 . S
H4046 C4062 0.931 . S
C4047 H4035 0.929 . S
C4047 C4041 1.390 . S
C4047 C4044 1.386 1_655 S
C4048 C4043 1.490 . S
C4048 C4050 1.395 . S
C4048 C4051 1.403 . S
H4049 C4055 0.930 . S
C4050 H4036 0.930 . S
C4050 C4048 1.395 . S
C4050 C4053 1.403 . S
C4051 C4048 1.403 . S
C4051 C4052 1.524 . S
C4051 C4055 1.400 . S
C4052 H4037 0.960 . S
C4052 H4038 0.960 . S
C4052 H4039 0.960 . S
C4052 C4051 1.524 . S
C4053 C4050 1.403 . S
C4053 C4054 1.392 . S
C4053 C4057 1.495 . S
C4054 C4053 1.392 . S
C4054 C4055 1.385 . S
C4054 C4056 1.478 . S
C4055 H4049 0.930 . S
C4055 C4051 1.400 . S
C4055 C4054 1.385 . S
C4056 C4054 1.478 . S
C4056 C4058 1.381 . S
C4056 C4062 1.383 . S
C4057 C4053 1.495 . S
C4057 H4063 0.959 . S
C4057 H4064 0.961 . S
C4057 H4065 0.960 . S
C4058 C4056 1.381 . S
C4058 C4059 1.394 . S
C4058 H4066 0.930 . S
C4059 C4058 1.394 . S
C4059 C4060 1.383 . S
C4059 H4067 0.929 . S
C4060 C4059 1.383 . S
C4060 C4061 1.377 . S
C4061 H4045 0.930 . S
C4061 C4060 1.377 . S
C4061 C4062 1.379 . S
C4062 H4046 0.931 . S
C4062 C4056 1.383 . S
C4062 C4061 1.379 . S
H4063 C4057 0.959 . S
H4064 C4057 0.961 . S
H4065 C4057 0.960 . S
H4066 C4058 0.930 . S
H4067 C4059 0.929 . S
H4068 C4076 0.929 . S
H4069 C4078 0.930 . S
H4070 C4080 0.930 . S
H4071 C4083 0.929 . S
H4072 C4086 0.930 . S
H4073 C4088 0.960 . S
H4074 C4088 0.960 . S
H4075 C4088 0.960 . S
C4076 H4068 0.929 . S
C4076 C4077 1.377 . S
C4076 C4078 1.384 . S
C4077 C4076 1.377 . S
C4077 C4083 1.390 . S
C4078 H4069 0.930 . S
C4078 C4076 1.384 . S
C4078 C4079 1.372 . S
C4079 C4078 1.372 . S
C4079 C4080 1.400 . S
C4079 C4084 1.490 . S
C4080 H4070 0.930 . S
C4080 C4079 1.400 . S
C4080 C4083 1.386 . S
H4081 C4097 0.930 . S
H4082 C4098 0.931 . S
C4083 H4071 0.929 . S
C4083 C4077 1.390 . S
C4083 C4080 1.386 . S
C4084 C4079 1.490 . S
C4084 C4086 1.395 . S
C4084 C4087 1.403 . S
H4085 C4091 0.930 . S
C4086 H4072 0.930 . S
C4086 C4084 1.395 . S
C4086 C4089 1.403 . S
C4087 C4084 1.403 . S
C4087 C4088 1.524 . S
C4087 C4091 1.400 . S
C4088 H4073 0.960 . S
C4088 H4074 0.960 . S
C4088 H4075 0.960 . S
C4088 C4087 1.524 . S
C4089 C4086 1.403 . S
C4089 C4090 1.392 . S
C4089 C4093 1.495 . S
C4090 C4089 1.392 . S
C4090 C4091 1.385 . S
C4090 C4092 1.478 . S
C4091 H4085 0.930 . S
C4091 C4087 1.400 . S
C4091 C4090 1.385 . S
C4092 C4090 1.478 . S
C4092 C4094 1.381 . S
C4092 C4098 1.383 1_655 S
C4093 C4089 1.495 . S
C4093 H4099 0.959 . S
C4093 H4100 0.961 . S
C4093 H4101 0.960 . S
C4094 C4092 1.381 . S
C4094 C4095 1.394 . S
C4094 H4102 0.930 . S
C4095 C4094 1.394 . S
C4095 C4096 1.383 . S
C4095 H4103 0.929 . S
C4096 C4095 1.383 . S
C4096 C4097 1.377 1_655 S
C4097 H4081 0.930 . S
C4097 C4096 1.377 1_455 S
C4097 C4098 1.379 . S
C4098 H4082 0.931 . S
C4098 C4092 1.383 1_455 S
C4098 C4097 1.379 . S
H4099 C4093 0.959 . S
H4100 C4093 0.961 . S
H4101 C4093 0.960 . S
H4102 C4094 0.930 . S
H4103 C4095 0.929 . S
H4104 C4112 0.929 . S
H4105 C4114 0.930 . S
H4106 C4116 0.930 . S
H4107 C4119 0.929 . S
H4108 C4122 0.930 . S
H4109 C4124 0.960 . S
H4110 C4124 0.960 . S
H4111 C4124 0.960 . S
C4112 H4104 0.929 . S
C4112 C4113 1.377 . S
C4112 C4114 1.384 . S
C4113 C4112 1.377 . S
C4113 C4119 1.390 . S
C4114 H4105 0.930 . S
C4114 C4112 1.384 . S
C4114 C4115 1.372 . S
C4115 C4114 1.372 . S
C4115 C4116 1.400 . S
C4115 C4120 1.490 . S
C4116 H4106 0.930 . S
C4116 C4115 1.400 . S
C4116 C4119 1.386 . S
H4117 C4133 0.930 . S
H4118 C4134 0.931 . S
C4119 H4107 0.929 . S
C4119 C4113 1.390 . S
C4119 C4116 1.386 . S
C4120 C4115 1.490 . S
C4120 C4122 1.395 . S
C4120 C4123 1.403 . S
H4121 C4127 0.930 . S
C4122 H4108 0.930 . S
C4122 C4120 1.395 . S
C4122 C4125 1.403 . S
C4123 C4120 1.403 . S
C4123 C4124 1.524 . S
C4123 C4127 1.400 . S
C4124 H4109 0.960 . S
C4124 H4110 0.960 . S
C4124 H4111 0.960 . S
C4124 C4123 1.524 . S
C4125 C4122 1.403 . S
C4125 C4126 1.392 . S
C4125 C4129 1.495 . S
C4126 C4125 1.392 . S
C4126 C4127 1.385 . S
C4126 C4128 1.478 . S
C4127 H4121 0.930 . S
C4127 C4123 1.400 . S
C4127 C4126 1.385 . S
C4128 C4126 1.478 . S
C4128 C4130 1.381 . S
C4128 C4134 1.383 . S
C4129 C4125 1.495 . S
C4129 H4135 0.959 . S
C4129 H4136 0.961 . S
C4129 H4137 0.960 . S
C4130 C4128 1.381 . S
C4130 C4131 1.394 . S
C4130 H4138 0.930 . S
C4131 C4130 1.394 . S
C4131 C4132 1.383 . S
C4131 H4139 0.929 . S
C4132 C4131 1.383 . S
C4132 C4133 1.377 . S
C4133 H4117 0.930 . S
C4133 C4132 1.377 . S
C4133 C4134 1.379 . S
C4134 H4118 0.931 . S
C4134 C4128 1.383 . S
C4134 C4133 1.379 . S
H4135 C4129 0.959 . S
H4136 C4129 0.961 . S
H4137 C4129 0.960 . S
H4138 C4130 0.930 . S
H4139 C4131 0.929 . S
H4140 C4148 0.929 . S
H4141 C4150 0.930 . S
H4142 C4152 0.930 . S
H4143 C4155 0.929 . S
H4144 C4158 0.930 . S
H4145 C4160 0.960 . S
H4146 C4160 0.960 . S
H4147 C4160 0.960 . S
C4148 H4140 0.929 . S
C4148 C4149 1.377 . S
C4148 C4150 1.384 . S
C4149 C4148 1.377 . S
C4149 C4155 1.390 . S
C4150 H4141 0.930 . S
C4150 C4148 1.384 . S
C4150 C4151 1.372 . S
C4151 C4150 1.372 . S
C4151 C4152 1.400 . S
C4151 C4156 1.490 . S
C4152 H4142 0.930 . S
C4152 C4151 1.400 . S
C4152 C4155 1.386 . S
H4153 C4169 0.930 . S
H4154 C4170 0.931 . S
C4155 H4143 0.929 . S
C4155 C4149 1.390 . S
C4155 C4152 1.386 . S
C4156 C4151 1.490 . S
C4156 C4158 1.395 . S
C4156 C4159 1.403 . S
H4157 C4163 0.930 . S
C4158 H4144 0.930 . S
C4158 C4156 1.395 . S
C4158 C4161 1.403 . S
C4159 C4156 1.403 . S
C4159 C4160 1.524 . S
C4159 C4163 1.400 . S
C4160 H4145 0.960 . S
C4160 H4146 0.960 . S
C4160 H4147 0.960 . S
C4160 C4159 1.524 . S
C4161 C4158 1.403 . S
C4161 C4162 1.392 . S
C4161 C4165 1.495 . S
C4162 C4161 1.392 . S
C4162 C4163 1.385 . S
C4162 C4164 1.478 . S
C4163 H4157 0.930 . S
C4163 C4159 1.400 . S
C4163 C4162 1.385 . S
C4164 C4162 1.478 . S
C4164 C4166 1.381 . S
C4164 C4170 1.383 1_545 S
C4165 C4161 1.495 . S
C4165 H4171 0.959 . S
C4165 H4172 0.961 . S
C4165 H4173 0.960 . S
C4166 C4164 1.381 . S
C4166 C4167 1.394 . S
C4166 H4174 0.930 . S
C4167 C4166 1.394 . S
C4167 C4168 1.383 . S
C4167 H4175 0.929 . S
C4168 C4167 1.383 . S
C4168 C4169 1.377 1_545 S
C4169 H4153 0.930 . S
C4169 C4168 1.377 1_565 S
C4169 C4170 1.379 . S
C4170 H4154 0.931 . S
C4170 C4164 1.383 1_565 S
C4170 C4169 1.379 . S
H4171 C4165 0.959 . S
H4172 C4165 0.961 . S
H4173 C4165 0.960 . S
H4174 C4166 0.930 . S
H4175 C4167 0.929 . S
C1593 C7 1.075 1_455 S
C1612 C981 1.082 . S
C1629 C23 1.602 . S
C1648 C1061 1.557 . S
C1684 C1129 1.257 . S
C1665 C37 1.297 . S
C1701 C35 1.741 1_556 S
C1720 C1209 1.720 . S
C1737 C9 1.494 . S
C1756 C1283 1.516 . S
C1773 C21 1.632 . S
C1792 C1351 1.587 . S
C1809 C49 0.991 . S
C1828 C1277 0.975 . S
C1864 C1357 1.476 . S
C1845 C65 1.458 . S
C1900 C1203 1.281 . S
C1881 C79 1.266 . S
C1917 C77 1.689 . S
C1936 C1135 1.709 . S
C1972 C987 1.505 1_455 S
C1953 C51 1.452 . S
C1989 C63 1.470 . S
C2008 C1055 1.458 . S
C2025 C91 1.379 . S
C2044 C1425 1.358 . S
C2061 C107 1.642 . S
C2080 C1505 1.575 . S
C2116 C1573 1.503 . S
C2097 C121 1.564 . S
C2133 C119 1.971 . S
C2152 C321 1.943 . S
C2169 C93 1.791 . S
C2188 C395 1.737 . S
C2205 C105 1.655 . S
C2224 C463 1.601 . S
C2241 C133 1.056 . S
C2260 C389 1.074 . S
C2277 C149 1.518 . S
C2296 C469 1.516 . S
C2332 C315 1.394 . S
C2313 C163 1.413 . S
C2368 C1579 1.949 . S
C2349 C161 1.958 . S
C2404 C1431 1.591 . S
C2385 C135 1.583 . S
C2440 C1499 1.509 . S
C2421 C147 1.517 . S
C2457 C175 1.247 . S
C2476 C537 1.239 . S
C2493 C191 1.659 . S
C2512 C617 1.608 . S
C2529 C205 1.602 . S
C2548 C685 1.549 . S
C2565 C203 2.093 . S
C2584 C765 2.062 . S
C2620 C839 1.726 . S
C2601 C177 1.760 . S
C2656 C907 1.663 . S
C2637 C189 1.696 . S
C2692 C833 1.182 . S
C2673 C217 1.200 . S
C2728 C913 1.505 . S
C2709 C233 1.491 . S
C2745 C247 1.354 . S
C2764 C759 1.325 . S
C2800 C691 1.805 . S
C2781 C245 1.818 . S
C2817 C219 1.633 . S
C2836 C543 1.636 . S
C2872 C611 1.499 . S
C2853 C231 1.492 . S
C2908 C291 2.009 . S
C2889 C8 2.039 . S
C2925 C17 1.444 . S
C2944 C365 1.423 . S
C2980 C451 1.520 . S
C2961 C31 1.525 . S
C3016 C525 1.222 . S
C2997 C36 1.230 . S
C3052 C587 1.643 . S
C3033 C3 1.655 1_556 S
C3088 C673 1.529 . S
C3069 C22 1.531 . S
C3105 C50 2.203 . S
C3124 C661 2.134 . S
C3141 C59 1.616 . S
C3160 C513 1.537 . S
C3177 C73 1.710 . S
C3196 C599 1.705 . S
C3213 C78 1.470 . S
C3232 C377 1.451 . S
C3268 C439 1.751 . S
C3249 C45 1.817 . S
C3285 C64 1.737 . S
C3304 C303 1.706 . S
C3340 C735 1.935 . S
C3321 C92 1.983 . S
C3357 C101 1.649 1_545 S
C3376 C809 1.621 . S
C3393 C115 1.618 . S
C3412 C895 1.608 . S
C3448 C969 0.966 . S
C3429 C120 0.969 . S
C3465 C87 1.582 . S
C3484 C1031 1.557 . S
C3501 C106 1.359 . S
C3520 C1117 1.345 . S
C3537 C134 1.851 . S
C3556 C1105 1.806 . S
C3573 C143 1.362 . S
C3592 C957 1.348 . S
C3628 C1043 1.637 . S
C3609 C157 1.670 . S
C3645 C162 1.427 . S
C3664 C821 1.346 . S
C3681 C129 1.886 1_545 S
C3700 C883 1.838 . S
C3736 C747 1.828 . S
C3717 C148 1.875 1_655 S
C3772 C1179 1.767 . S
C3753 C176 1.817 . S
C3789 C185 1.282 . S
C3808 C1253 1.260 . S
C3825 C199 1.488 . S
C3844 C1339 1.499 . S
C3880 C1413 1.194 . S
C3861 C204 1.197 . S
C3916 C1475 1.700 . S
C3897 C171 1.725 1_565 S
C3933 C190 1.676 1_455 S
C3952 C1561 1.660 . S
C3969 C218 2.144 . S
C3988 C1549 2.069 . S
C4005 C227 1.814 1_565 S
C4024 C1401 1.767 . S
C4060 C1487 1.771 . S
C4041 C241 1.793 . S
C4096 C1265 1.049 . S
C4077 C246 1.039 . S
C4132 C1327 1.666 . S
C4113 C213 1.752 . S
C4149 C232 1.441 . S
C4168 C1191 1.435 1_545 S
