# Generated by pormake.
# Topology pth, (4,4)-cn, num edge types: 1
# Building blocks:
#     Node 0, Type 0, BuildingBlock: QUQFOY_clean_sbu_1, # of connection points: 4
#     Node 1, Type 0, BuildingBlock: QUQFOY_clean_sbu_1, # of connection points: 4
#     Node 2, Type 0, BuildingBlock: QUQFOY_clean_sbu_1, # of connection points: 4
#     Node 3, Type 1, BuildingBlock: NAWXER_clean_linker_0, # of connection points: 4
#     Node 4, Type 1, BuildingBlock: NAWXER_clean_linker_0, # of connection points: 4
#     Node 5, Type 1, BuildingBlock: NAWXER_clean_linker_0, # of connection points: 4
#     Edge 6, Type (0, 1), BuildingBlock: UVAHIK_clean_linker_0, # of connection points: 2
#     Edge 7, Type (0, 1), BuildingBlock: UVAHIK_clean_linker_0, # of connection points: 2
#     Edge 8, Type (0, 1), BuildingBlock: UVAHIK_clean_linker_0, # of connection points: 2
#     Edge 9, Type (0, 1), BuildingBlock: UVAHIK_clean_linker_0, # of connection points: 2
#     Edge 10, Type (0, 1), BuildingBlock: UVAHIK_clean_linker_0, # of connection points: 2
#     Edge 11, Type (0, 1), BuildingBlock: UVAHIK_clean_linker_0, # of connection points: 2
#     Edge 12, Type (0, 1), BuildingBlock: UVAHIK_clean_linker_0, # of connection points: 2
#     Edge 13, Type (0, 1), BuildingBlock: UVAHIK_clean_linker_0, # of connection points: 2
#     Edge 14, Type (0, 1), BuildingBlock: UVAHIK_clean_linker_0, # of connection points: 2
#     Edge 15, Type (0, 1), BuildingBlock: UVAHIK_clean_linker_0, # of connection points: 2
#     Edge 16, Type (0, 1), BuildingBlock: UVAHIK_clean_linker_0, # of connection points: 2
#     Edge 17, Type (0, 1), BuildingBlock: UVAHIK_clean_linker_0, # of connection points: 2
# Relax obj value: 0.022
# Max RMSD: 0.123
# Mean RMSD: 0.073
data_MOF--net-pth--node1-QUQFOY_clean_sbu_1--node2-NAWXER_clean_linker_0--edge1-UVAHIK_clean_linker_0
_symmetry_space_group_name_H-M    P1
_symmetry_Int_Tables_number       1
_symmetry_cell_setting            triclinic
loop_
_symmetry_equiv_pos_as_xyz
'x, y, z'
_cell_length_a     34.843853
_cell_length_b     37.509124
_cell_length_c     84.16752
_cell_angle_alpha  90.001983
_cell_angle_beta   90.029123
_cell_angle_gamma 120.06932
loop_
_atom_site_label
_atom_site_type_symbol
_atom_site_fract_x
_atom_site_fract_y
_atom_site_fract_z
_atom_type_partial_charge
O0 O 0.02954 0.0621 0.04571 0.0
Cd1 Cd 0.97624 0.02098 0.0592 0.0
Cd2 Cd 0.0226 0.98204 0.05998 0.0
O3 O 0.07217 0.03504 0.04961 0.0
O4 O 0.94699 0.05248 0.06589 0.0
O5 O 0.97889 0.03019 0.08281 0.0
C6 C 0.95874 0.05067 0.08026 0.0
C7 C 0.03475 0.95279 0.08241 0.0
C8 C 0.0663 0.06323 0.0438 0.0
C9 C 0.93554 0.93984 0.04274 0.0
O10 O 0.97212 0.94116 0.04546 0.0
O11 O 0.92866 0.96779 0.04816 0.0
O12 O 0.05069 0.95134 0.06875 0.0
O13 O 0.01341 0.97264 0.08349 0.0
O14 O 0.96305 0.02809 0.39546 0.0
Cd15 Cd 0.01767 0.04223 0.38163 0.0
Cd16 Cd 0.97932 0.95911 0.38149 0.0
O17 O 0.92753 0.96056 0.39275 0.0
O18 O 0.04038 0.1006 0.37551 0.0
O19 O 0.01393 0.04967 0.35806 0.0
C20 C 0.0299 0.08838 0.36102 0.0
C21 C 0.96606 0.91235 0.36101 0.0
C22 C 0.92931 0.99301 0.39814 0.0
C23 C 0.06826 0.00813 0.39771 0.0
O24 O 0.03435 0.97318 0.39502 0.0
O25 O 0.07003 0.04073 0.3925 0.0
O26 O 0.95673 0.90061 0.37558 0.0
O27 O 0.98137 0.95088 0.35789 0.0
O28 O 0.9345 0.96892 0.71123 0.0
Cd29 Cd 0.97669 0.95972 0.72559 0.0
Cd30 Cd 0.02282 0.04186 0.72574 0.0
O31 O 0.96832 0.03644 0.71385 0.0
O32 O 0.94178 0.90229 0.73369 0.0
O33 O 0.96655 0.95725 0.74917 0.0
C34 C 0.94427 0.91765 0.74762 0.0
C35 C 0.05286 0.08593 0.74749 0.0
C36 C 0.93654 0.00309 0.70835 0.0
C37 C 0.06537 0.99842 0.71003 0.0
O38 O 0.06688 0.03246 0.71264 0.0
O39 O 0.03287 0.96495 0.7151 0.0
O40 O 0.05772 0.09992 0.7332 0.0
O41 O 0.02949 0.04654 0.74953 0.0
C42 C 0.97102 0.36663 0.24465 0.0
C43 C 0.00718 0.37831 0.25498 0.0
C44 C 0.96784 0.39613 0.23546 0.0
C45 C 0.00095 0.4378 0.23632 0.0
C46 C 0.04005 0.42017 0.25586 0.0
C47 C 0.03678 0.4496 0.24671 0.0
C48 C -0.00163 0.46954 0.22669 0.0
C49 C 0.01627 0.38595 0.19302 0.0
C50 C 0.97892 0.36318 0.18327 0.0
C51 C 0.02124 0.41993 0.20161 0.0
C52 C 0.98887 0.43168 0.20067 0.0
C53 C 0.94698 0.37558 0.18219 0.0
C54 C 0.95211 0.40966 0.19072 0.0
C55 C 0.99295 0.46682 0.21001 0.0
C56 C 0.04167 0.63955 0.19346 0.0
C57 C 0.00814 0.63411 0.1828 0.0
C58 C 0.03795 0.60619 0.2021 0.0
C59 C 0.00082 0.56674 0.20014 0.0
C60 C 0.97126 0.5945 0.18068 0.0
C61 C 0.96791 0.56095 0.18915 0.0
C62 C 0.99631 0.53186 0.20975 0.0
C63 C 0.96577 0.6096 0.2415 0.0
C64 C 0.99364 0.62669 0.25473 0.0
C65 C 0.96738 0.57929 0.23239 0.0
C66 C -0.00214 0.56626 0.23601 0.0
C67 C 0.02338 0.61302 0.25863 0.0
C68 C 0.02549 0.5831 0.24934 0.0
C69 C -0.00084 0.5335 0.22651 0.0
H70 H 0.9447 0.33481 0.24389 0.0
H71 H 0.93932 0.38643 0.22779 0.0
H72 H 0.06863 0.43023 0.26352 0.0
H73 H 0.06264 0.4816 0.24758 0.0
H74 H 0.04198 0.37785 0.19388 0.0
H75 H 0.05039 0.43706 0.20896 0.0
H76 H 0.91755 0.35854 0.17497 0.0
H77 H 0.92681 0.41831 0.18981 0.0
H78 H 0.07036 0.66977 0.19533 0.0
H79 H 0.06399 0.61121 0.2104 0.0
H80 H 0.94518 0.58951 0.17242 0.0
H81 H 0.93914 0.53069 0.18742 0.0
H82 H 0.94182 0.61888 0.23846 0.0
H83 H 0.94411 0.56553 0.22268 0.0
H84 H 0.04518 0.62566 0.2688 0.0
H85 H 0.04883 0.57321 0.25253 0.0
N86 N 0.00098 0.50265 0.23432 0.0
N87 N 0.99241 0.49823 0.20214 0.0
C88 C 0.63852 0.01943 0.52565 0.0
C89 C 0.62371 0.98795 0.51419 0.0
C90 C 0.60847 0.02171 0.53602 0.0
C91 C 0.56311 0.99226 0.53523 0.0
C92 C 0.57834 0.95834 0.51355 0.0
C93 C 0.54839 0.96061 0.52392 0.0
C94 C 0.53015 0.99607 0.54504 0.0
C95 C 0.61476 0.97576 0.58055 0.0
C96 C 0.63515 0.00687 0.5921 0.0
C97 C 0.58269 0.97497 0.57033 0.0
C98 C 0.57084 0.00561 0.57132 0.0
C99 C 0.62326 0.03752 0.59301 0.0
C100 C 0.59138 0.03679 0.58276 0.0
C101 C 0.53452 0.00368 0.56156 0.0
C102 C 0.35643 0.97626 0.58075 0.0
C103 C 0.36975 0.00558 0.59302 0.0
C104 C 0.38759 0.97677 0.57016 0.0
C105 C 0.43262 0.00687 0.57153 0.0
C106 C 0.41474 0.03599 0.59421 0.0
C107 C 0.44583 0.03649 0.58362 0.0
C108 C 0.46675 0.00519 0.56163 0.0
C109 C 0.38666 0.0314 0.52618 0.0
C110 C 0.36741 0.00242 0.51384 0.0
C111 C 0.4167 0.02956 0.5367 0.0
C112 C 0.42767 0.9984 0.53519 0.0
C113 C 0.37816 0.97107 0.51248 0.0
C114 C 0.40804 0.96919 0.52301 0.0
C115 C 0.46285 0.9984 0.54506 0.0
H116 H 0.67329 0.04259 0.5265 0.0
H117 H 0.62056 0.04709 0.54434 0.0
H118 H 0.56569 0.93412 0.5047 0.0
H119 H 0.51347 0.93786 0.52295 0.0
H120 H 0.62332 0.95181 0.57948 0.0
H121 H 0.56645 0.94987 0.56193 0.0
H122 H 0.63763 0.06148 0.60194 0.0
H123 H 0.58233 0.06043 0.58391 0.0
H124 H 0.32198 0.95258 0.57946 0.0
H125 H 0.37664 0.95284 0.56123 0.0
H126 H 0.42625 0.05862 0.60366 0.0
H127 H 0.48044 0.05966 0.58506 0.0
H128 H 0.3789 0.05579 0.52761 0.0
H129 H 0.43233 0.05323 0.54569 0.0
H130 H 0.36459 0.94868 0.50296 0.0
H131 H 0.41643 0.94522 0.52146 0.0
N132 N 0.49451 0.99377 0.53749 0.0
N133 N 0.50262 0.0079 0.56916 0.0
C134 C 0.38157 0.36724 0.86994 0.0
C135 C 0.3564 0.37787 0.85997 0.0
C136 C 0.41598 0.3972 0.87919 0.0
C137 C 0.4257 0.43833 0.87875 0.0
C138 C 0.36651 0.4192 0.85952 0.0
C139 C 0.40101 0.44912 0.86872 0.0
C140 C 0.46233 0.47057 0.88829 0.0
C141 C 0.35965 0.38541 0.92377 0.0
C142 C 0.37567 0.36807 0.93492 0.0
C143 C 0.38896 0.41718 0.91375 0.0
C144 C 0.43472 0.43164 0.91451 0.0
C145 C 0.42144 0.38257 0.93562 0.0
C146 C 0.45064 0.4141 0.92555 0.0
C147 C 0.4668 0.467 0.90482 0.0
C148 C 0.60836 0.63777 0.92281 0.0
C149 C 0.6294 0.62827 0.93499 0.0
C150 C 0.57778 0.6069 0.91279 0.0
C151 C 0.56795 0.56594 0.91463 0.0
C152 C 0.61957 0.58726 0.93679 0.0
C153 C 0.58897 0.5564 0.92676 0.0
C154 C 0.53319 0.53248 0.90488 0.0
C155 C 0.64216 0.60697 0.87039 0.0
C156 C 0.63224 0.62999 0.85971 0.0
C157 C 0.6089 0.57665 0.87984 0.0
C158 C 0.56505 0.5686 0.8787 0.0
C159 C 0.58841 0.62214 0.85866 0.0
C160 C 0.55496 0.59131 0.86795 0.0
C161 C 0.52964 0.53537 0.88828 0.0
H162 H 0.3753 0.33591 0.87036 0.0
H163 H 0.43532 0.38833 0.88656 0.0
H164 H 0.34751 0.42844 0.85215 0.0
H165 H 0.40807 0.48071 0.86815 0.0
H166 H 0.32461 0.37532 0.92314 0.0
H167 H 0.37593 0.43108 0.90571 0.0
H168 H 0.43472 0.36956 0.94398 0.0
H169 H 0.48583 0.42495 0.92643 0.0
H170 H 0.61539 0.66909 0.92106 0.0
H171 H 0.56105 0.61495 0.90385 0.0
H172 H 0.63469 0.57882 0.9462 0.0
H173 H 0.58146 0.52494 0.92855 0.0
H174 H 0.67569 0.61247 0.87144 0.0
H175 H 0.6173 0.55901 0.88787 0.0
H176 H 0.57988 0.6392 0.85038 0.0
H177 H 0.52126 0.58532 0.86682 0.0
N178 N 0.49404 0.5046 0.88063 0.0
N179 N 0.50196 0.4982 0.91244 0.0
C180 C 0.96875 0.07577 0.10847 0.0
C181 C 0.95223 0.07416 0.09309 0.0
C182 C 0.96694 0.10185 0.11999 0.0
C183 C 0.91516 0.16575 0.12903 0.0
H184 H 0.02216 0.23105 0.15366 0.0
C185 C 0.95562 0.31896 0.15873 0.0
C186 C 0.97332 0.32677 0.17419 0.0
C187 C 0.95007 0.28472 0.15021 0.0
C188 C 0.99181 0.21268 0.14704 0.0
H189 H 0.91941 0.09752 0.07792 0.0
H190 H 0.91684 0.14312 0.0978 0.0
H191 H 0.01639 0.17601 0.13661 0.0
H192 H -0.00141 0.30413 0.19286 0.0
H193 H 0.98966 0.24476 0.17782 0.0
H194 H 0.89124 0.20339 0.1391 0.0
C195 C 0.93067 0.12398 0.10112 0.0
C196 C 0.98841 0.18101 0.13729 0.0
C197 C 0.93239 0.09794 0.08966 0.0
C198 C 0.98551 0.29948 0.18089 0.0
C199 C 0.98025 0.26536 0.17231 0.0
C200 C 0.91869 0.19756 0.13869 0.0
C201 C 0.94859 0.12684 0.11635 0.0
C202 C 0.95033 0.15759 0.12796 0.0
C203 C 0.96237 0.25757 0.15689 0.0
C204 C 0.95733 0.22181 0.1476 0.0
H205 H 0.98414 0.05775 0.1115 0.0
H206 H 0.98047 0.10284 0.13167 0.0
H207 H 0.885 0.14783 0.12225 0.0
H208 H 0.94665 0.33968 0.15306 0.0
H209 H 0.93695 0.27996 0.13825 0.0
C210 C 0.85915 0.95173 0.41374 0.0
C211 C 0.89324 0.99012 0.40834 0.0
C212 C 0.82729 0.94952 0.42443 0.0
C213 C 0.77802 0.00927 0.44059 0.0
H214 H 0.75125 0.93816 0.4773 0.0
C215 C 0.68751 0.02359 0.49524 0.0
C216 C 0.65491 0.98699 0.5024 0.0
C217 C 0.71526 0.02256 0.4835 0.0
C218 C 0.7579 0.95778 0.46702 0.0
H219 H 0.91973 0.0562 0.40957 0.0
H220 H 0.86436 0.05228 0.42817 0.0
H221 H 0.8003 0.9381 0.45664 0.0
H222 H 0.62673 0.92069 0.50311 0.0
H223 H 0.67466 0.91883 0.48242 0.0
H224 H 0.73586 0.02913 0.45097 0.0
C225 C 0.86206 0.02388 0.4241 0.0
C226 C 0.78596 0.9577 0.45517 0.0
C227 C 0.89398 0.02611 0.41349 0.0
C228 C 0.65121 0.9494 0.49772 0.0
C229 C 0.67896 0.94837 0.48597 0.0
C230 C 0.74991 0.00929 0.4524 0.0
C231 C 0.82871 0.98562 0.42985 0.0
C232 C 0.79667 0.98375 0.44191 0.0
C233 C 0.71106 0.98491 0.47863 0.0
C234 C 0.73988 0.98386 0.46584 0.0
H235 H 0.85758 0.9234 0.41 0.0
H236 H 0.80166 0.91957 0.42852 0.0
H237 H 0.78512 0.02924 0.43039 0.0
H238 H 0.69094 0.05302 0.49843 0.0
H239 H 0.74008 0.05134 0.47826 0.0
C240 C 0.9071 0.84858 0.76059 0.0
C241 C 0.91975 0.89044 0.76107 0.0
C242 C 0.87975 0.82161 0.77237 0.0
C243 C 0.82987 0.81715 0.81223 0.0
H244 H 0.74311 0.7076 0.7978 0.0
C245 C 0.6737 0.70105 0.84805 0.0
C246 C 0.66733 0.66109 0.84931 0.0
C247 C 0.7067 0.73014 0.83809 0.0
C248 C 0.76735 0.73801 0.80201 0.0
H249 H 0.9147 0.93726 0.77444 0.0
H250 H 0.86544 0.89 0.79469 0.0
H251 H 0.79698 0.7564 0.77912 0.0
H252 H 0.69002 0.62002 0.84112 0.0
H253 H 0.74706 0.67058 0.82345 0.0
H254 H 0.79842 0.79864 0.83505 0.0
C255 C 0.87751 0.87798 0.78548 0.0
C256 C 0.79854 0.76599 0.79134 0.0
C257 C 0.90567 0.90514 0.77384 0.0
C258 C 0.69445 0.6507 0.84043 0.0
C259 C 0.72686 0.6795 0.83029 0.0
C260 C 0.79807 0.78927 0.82285 0.0
C261 C 0.86347 0.83565 0.78474 0.0
C262 C 0.83049 0.80591 0.7963 0.0
C263 C 0.73326 0.71945 0.82901 0.0
C264 C 0.76672 0.74938 0.81784 0.0
H265 H 0.91789 0.83649 0.75097 0.0
H266 H 0.8709 0.78957 0.77161 0.0
H267 H 0.8542 0.84733 0.81657 0.0
H268 H 0.65333 0.70983 0.85484 0.0
H269 H 0.71085 0.76069 0.83723 0.0
C270 C 0.06875 0.91578 0.09575 0.0
C271 C 0.03765 0.92919 0.09596 0.0
C272 C 0.06767 0.88867 0.10736 0.0
C273 C 0.98916 0.8048 0.13185 0.0
H274 H 0.09272 0.81535 0.1534 0.0
C275 C 0.9763 0.67773 0.174 0.0
C276 C 0.01165 0.66984 0.17402 0.0
C277 C 0.98003 0.712 0.166 0.0
C278 C 0.06351 0.8116 0.14733 0.0
H279 H 0.98201 0.92593 0.10877 0.0
H280 H 0.97958 0.87771 0.12892 0.0
H281 H 0.0995 0.87195 0.13704 0.0
H282 H 0.07828 0.69101 0.16554 0.0
H283 H 0.08432 0.74979 0.15101 0.0
H284 H 0.95346 0.74389 0.14134 0.0
C285 C 0.00492 0.88849 0.11981 0.0
C286 C 0.06742 0.84422 0.13807 0.0
C287 C 0.00651 0.91624 0.10836 0.0
C288 C 0.05069 0.69666 0.16581 0.0
C289 C 0.05419 0.73053 0.1576 0.0
C290 C 0.98536 0.77192 0.14089 0.0
C291 C 0.035 0.8739 0.11923 0.0
C292 C 0.03035 0.84098 0.13015 0.0
C293 C 0.01897 0.73881 0.15761 0.0
C294 C 0.02258 0.77468 0.14864 0.0
H295 H 0.09316 0.9253 0.08635 0.0
H296 H 0.09107 0.87771 0.10659 0.0
H297 H 0.96018 0.80129 0.12567 0.0
H298 H 0.94605 0.65777 0.18043 0.0
H299 H 0.95249 0.71765 0.16656 0.0
C300 C 0.14049 0.04878 0.41234 0.0
C301 C 0.10445 0.01056 0.40774 0.0
C302 C 0.1726 0.05059 0.42284 0.0
C303 C 0.21621 0.9869 0.44022 0.0
H304 H 0.25349 0.06519 0.47498 0.0
C305 C 0.30044 0.97003 0.49611 0.0
C306 C 0.33771 0.00567 0.50197 0.0
C307 C 0.27417 0.97279 0.48419 0.0
C308 C 0.24378 0.04348 0.46524 0.0
H309 H 0.07461 0.94428 0.41025 0.0
H310 H 0.12998 0.94749 0.42858 0.0
H311 H 0.20519 0.06661 0.45426 0.0
H312 H 0.37624 0.07227 0.49996 0.0
H313 H 0.32986 0.07706 0.47929 0.0
H314 H 0.25404 0.96323 0.45137 0.0
C315 C 0.13389 0.97609 0.42397 0.0
C316 C 0.21624 0.04436 0.45334 0.0
C317 C 0.1019 0.97427 0.41352 0.0
C318 C 0.34743 0.04425 0.49588 0.0
C319 C 0.32097 0.04702 0.484 0.0
C320 C 0.24353 0.98591 0.45214 0.0
C321 C 0.16936 0.01424 0.42891 0.0
C322 C 0.20164 0.01569 0.44081 0.0
C323 C 0.2844 0.01126 0.4779 0.0
C324 C 0.25712 0.0138 0.46489 0.0
H325 H 0.14349 0.07732 0.40808 0.0
H326 H 0.19983 0.08046 0.42626 0.0
H327 H 0.20629 0.96491 0.43058 0.0
H328 H 0.29154 0.93991 0.50073 0.0
H329 H 0.24566 0.94475 0.47994 0.0
C330 C 0.10085 0.15696 0.7582 0.0
C331 C 0.07562 0.11433 0.76091 0.0
C332 C 0.1256 0.18383 0.77043 0.0
C333 C 0.17956 0.18642 0.80832 0.0
H334 H 0.19491 0.29603 0.81111 0.0
C335 C 0.29212 0.30613 0.85559 0.0
C336 C 0.32031 0.34625 0.84986 0.0
C337 C 0.25845 0.2765 0.84597 0.0
C338 C 0.19111 0.26558 0.81044 0.0
H339 H 0.05553 0.06655 0.77877 0.0
H340 H 0.09857 0.1137 0.80025 0.0
H341 H 0.14132 0.24639 0.79242 0.0
H342 H 0.33553 0.38626 0.82937 0.0
H343 H 0.27668 0.33485 0.81274 0.0
H344 H 0.22984 0.20591 0.82624 0.0
C345 C 0.09957 0.12622 0.78856 0.0
C346 C 0.16041 0.23713 0.79973 0.0
C347 C 0.07469 0.09925 0.77629 0.0
C348 C 0.31393 0.35598 0.8343 0.0
C349 C 0.28018 0.32647 0.82475 0.0
C350 C 0.21019 0.21487 0.8191 0.0
C351 C 0.12575 0.1688 0.78571 0.0
C352 C 0.15488 0.19747 0.7983 0.0
C353 C 0.25207 0.2864 0.83045 0.0
C354 C 0.21691 0.25502 0.82004 0.0
H355 H 0.10239 0.16963 0.7465 0.0
H356 H 0.14584 0.21632 0.76773 0.0
H357 H 0.17654 0.15631 0.80741 0.0
H358 H 0.29569 0.29773 0.86758 0.0
H359 H 0.23706 0.24598 0.85075 0.0
C360 C 0.86652 0.96732 0.69236 0.0
C361 C 0.90314 0.00416 0.69778 0.0
C362 C 0.83675 0.96818 0.68146 0.0
C363 C 0.83018 0.03302 0.65022 0.0
H364 H 0.70321 0.9602 0.65411 0.0
C365 C 0.70479 0.04361 0.6084 0.0
C366 C 0.66731 0.00658 0.60364 0.0
C367 C 0.73365 0.04357 0.61992 0.0
C368 C 0.73862 0.98036 0.65273 0.0
H369 H 0.93651 0.07085 0.69627 0.0
H370 H 0.88442 0.07226 0.67725 0.0
H371 H 0.75253 0.95999 0.67463 0.0
H372 H 0.63107 0.94038 0.60719 0.0
H373 H 0.68215 0.94018 0.6269 0.0
H374 H 0.81647 0.05304 0.62823 0.0
C375 C 0.87906 0.04273 0.68135 0.0
C376 C 0.76683 0.98032 0.66453 0.0
C377 C 0.9087 0.0419 0.69233 0.0
C378 C 0.65986 0.96942 0.61045 0.0
C379 C 0.68881 0.96936 0.62193 0.0
C380 C 0.802 0.03292 0.63838 0.0
C381 C 0.84305 0.00587 0.67567 0.0
C382 C 0.81291 0.00663 0.66339 0.0
C383 C 0.72584 0.00647 0.62691 0.0
C384 C 0.75587 0.00655 0.63948 0.0
H385 H 0.8612 0.93771 0.69632 0.0
H386 H 0.80951 0.93926 0.67722 0.0
H387 H 0.86562 0.05317 0.64888 0.0
H388 H 0.7118 0.07273 0.60327 0.0
H389 H 0.76162 0.07275 0.62356 0.0
C390 C 0.90952 0.87555 0.02672 0.0
C391 C 0.90178 0.90641 0.03268 0.0
C392 C 0.8791 0.84526 0.0165 0.0
C393 C 0.76289 0.79455 0.00282 0.0
H394 H 0.80972 0.76606 0.96622 0.0
C395 C 0.65096 0.69036 0.95208 0.0
C396 C 0.66061 0.66076 0.94605 0.0
C397 C 0.67993 0.72051 0.96271 0.0
C398 C 0.79611 0.77332 0.97647 0.0
H399 H 0.85541 0.92906 0.03279 0.0
H400 H 0.80235 0.8762 0.01482 0.0
H401 H 0.86051 0.81785 0.9849 0.0
H402 H 0.70849 0.63993 0.94631 0.0
H403 H 0.75869 0.69211 0.96505 0.0
H404 H 0.69844 0.74992 0.99435 0.0
C405 C 0.83188 0.87534 0.01819 0.0
C406 C 0.82522 0.803 0.98718 0.0
C407 C 0.86238 0.90573 0.02843 0.0
C408 C 0.69993 0.66207 0.95084 0.0
C409 C 0.72892 0.69224 0.96145 0.0
C410 C 0.73374 0.76481 0.99209 0.0
C411 C 0.84019 0.84507 0.01196 0.0
C412 C 0.80897 0.81383 0.00052 0.0
C413 C 0.71922 0.72178 0.96752 0.0
C414 C 0.75005 0.75376 0.97883 0.0
H415 H 0.93937 0.87494 0.02982 0.0
H416 H 0.8861 0.82194 0.01214 0.0
H417 H 0.74937 0.80189 0.01307 0.0
H418 H 0.62068 0.6899 0.94877 0.0
H419 H 0.67171 0.74305 0.96705 0.0
C420 C 0.9715 0.89457 0.33259 0.0
C421 C 0.96206 0.8827 0.34859 0.0
C422 C 0.97119 0.86709 0.32124 0.0
C423 C 0.93508 0.75591 0.31507 0.0
H424 H 0.02852 0.79854 0.28343 0.0
C425 C 0.98651 0.65288 0.2813 0.0
C426 C 0.99041 0.65763 0.26472 0.0
C427 C 0.98114 0.68083 0.29066 0.0
C428 C 0.00202 0.78629 0.29212 0.0
H429 H 0.94418 0.83248 0.36517 0.0
H430 H 0.94478 0.78535 0.34565 0.0
H431 H 0.02097 0.8462 0.30116 0.0
H432 H 0.99289 0.69579 0.24497 0.0
H433 H 0.98429 0.74523 0.26144 0.0
H434 H 0.91734 0.69592 0.30636 0.0
C435 C 0.95142 0.81536 0.34167 0.0
C436 C 0.99748 0.81357 0.30223 0.0
C437 C 0.95136 0.8426 0.35293 0.0
C438 C 0.98972 0.69134 0.25772 0.0
C439 C 0.98503 0.71967 0.26713 0.0
C440 C 0.94002 0.7287 0.30511 0.0
C441 C 0.96172 0.82728 0.32568 0.0
C442 C 0.9643 0.79869 0.31399 0.0
C443 C 0.9802 0.7144 0.28367 0.0
C444 C 0.97384 0.74357 0.29367 0.0
H445 H 0.97978 0.92524 0.32887 0.0
H446 H 0.97864 0.87715 0.309 0.0
H447 H 0.90848 0.74331 0.3237 0.0
H448 H 0.9866 0.62701 0.28698 0.0
H449 H 0.97789 0.67628 0.30341 0.0
C450 C 0.09679 0.96018 0.69559 0.0
C451 C 0.10003 0.99771 0.70008 0.0
C452 C 0.12727 0.95958 0.68495 0.0
C453 C 0.23759 0.02567 0.66661 0.0
H454 H 0.19029 0.94539 0.63251 0.0
C455 C 0.33951 0.03962 0.61072 0.0
C456 C 0.3374 0.00345 0.60502 0.0
C457 C 0.31073 0.03776 0.62266 0.0
C458 C 0.2041 0.96769 0.64205 0.0
H459 H 0.1388 0.06412 0.69727 0.0
H460 H 0.19151 0.06299 0.67868 0.0
H461 H 0.14098 0.94383 0.65339 0.0
H462 H 0.30324 0.93692 0.60741 0.0
H463 H 0.25279 0.9337 0.62816 0.0
H464 H 0.30061 0.04984 0.65516 0.0
C465 C 0.16571 0.03403 0.68347 0.0
C466 C 0.17587 0.96674 0.65405 0.0
C467 C 0.13528 0.03465 0.69409 0.0
C468 C 0.3053 0.96532 0.61135 0.0
C469 C 0.27646 0.96346 0.62327 0.0
C470 C 0.26578 0.02666 0.65461 0.0
C471 C 0.16169 0.99648 0.67859 0.0
C472 C 0.19222 0.99594 0.66639 0.0
C473 C 0.27912 0.9997 0.62916 0.0
C474 C 0.24929 0.99791 0.64212 0.0
H475 H 0.07013 0.93117 0.70001 0.0
H476 H 0.12366 0.93018 0.68159 0.0
H477 H 0.25137 0.0482 0.67608 0.0
H478 H 0.36339 0.06942 0.60593 0.0
H479 H 0.31306 0.06618 0.62674 0.0
C480 C 0.09654 0.12959 0.02886 0.0
C481 C 0.10127 0.09634 0.034 0.0
C482 C 0.12759 0.15925 0.01861 0.0
C483 C 0.2413 0.2014 0.00266 0.0
H484 H 0.19601 0.24033 0.96881 0.0
C485 C 0.35621 0.33813 0.96232 0.0
C486 C 0.34501 0.33594 0.94616 0.0
C487 C 0.32718 0.30837 0.97302 0.0
C488 C 0.20921 0.2295 0.97809 0.0
H489 H 0.14299 0.06873 0.03266 0.0
H490 H 0.19688 0.12021 0.01456 0.0
H491 H 0.1447 0.18964 0.98762 0.0
H492 H 0.29498 0.30043 0.92849 0.0
H493 H 0.24438 0.24809 0.94714 0.0
H494 H 0.30575 0.24051 0.99284 0.0
C495 C 0.16942 0.12363 0.01863 0.0
C496 C 0.17983 0.20086 0.98902 0.0
C497 C 0.13843 0.09403 0.02897 0.0
C498 C 0.30425 0.30318 0.94091 0.0
C499 C 0.27527 0.27327 0.9516 0.0
C500 C 0.27071 0.22998 0.99167 0.0
C501 C 0.16402 0.15629 0.01315 0.0
C502 C 0.1955 0.1866 0.00149 0.0
C503 C 0.28631 0.27561 0.9678 0.0
C504 C 0.25503 0.24449 0.97929 0.0
H505 H 0.06851 0.13252 0.03261 0.0
H506 H 0.12292 0.18448 0.01491 0.0
H507 H 0.25454 0.19131 0.01218 0.0
H508 H 0.3871 0.36337 0.96676 0.0
H509 H 0.33641 0.31156 0.98544 0.0
C510 C 0.01678 0.10422 0.33316 0.0
C511 C 0.0332 0.11771 0.34858 0.0
C512 C 0.01549 0.13153 0.32209 0.0
C513 C 0.00953 0.22648 0.32103 0.0
H514 H 0.04304 0.23315 0.27675 0.0
C515 C 0.02534 0.3567 0.28082 0.0
C516 C 0.01026 0.34723 0.26505 0.0
C517 C 0.02819 0.3277 0.29037 0.0
C518 C 0.03301 0.23128 0.28904 0.0
H519 H 0.06311 0.1709 0.36421 0.0
H520 H 0.06102 0.21823 0.34498 0.0
H521 H 0.04898 0.18423 0.29438 0.0
H522 H 0.98683 0.29975 0.24693 0.0
H523 H 0.99073 0.24864 0.26378 0.0
H524 H 0.99312 0.27298 0.31581 0.0
C525 C 0.04848 0.18648 0.34149 0.0
C526 C 0.03652 0.20332 0.29912 0.0
C527 C 0.04992 0.15935 0.35249 0.0
C528 C -0.00187 0.30793 0.25907 0.0
C529 C 0.00088 0.27879 0.26867 0.0
C530 C 0.00582 0.25416 0.31097 0.0
C531 C 0.03037 0.17272 0.3263 0.0
C532 C 0.02535 0.20106 0.31528 0.0
C533 C 0.01577 0.28829 0.28447 0.0
C534 C 0.01803 0.25734 0.2949 0.0
H535 H 0.00365 0.07231 0.32979 0.0
H536 H 0.00127 0.12004 0.31047 0.0
H537 H -0.0003 0.2248 0.33334 0.0
H538 H 0.03447 0.38645 0.28589 0.0
H539 H 0.04043 0.33633 0.3024 0.0
loop_
_geom_bond_atom_site_label_1
_geom_bond_atom_site_label_2
_geom_bond_distance
_geom_bond_site_symmetry_2
_ccdc_geom_bond_type
O0 Cd1 2.223 1_455 S
O0 C8 1.315 . S
Cd1 O0 2.223 1_655 S
Cd1 O4 2.297 . S
Cd1 O5 2.439 . S
Cd1 O11 2.240 1_545 S
Cd2 O3 2.240 1_565 S
Cd2 O10 2.223 1_455 S
Cd2 O12 2.297 . S
Cd2 O13 2.439 . S
O3 Cd2 2.240 1_545 S
O3 C8 1.279 . S
O4 Cd1 2.297 . S
O4 C6 1.247 . S
O5 Cd1 2.439 . S
O5 C6 1.208 . S
C6 O4 1.247 . S
C6 O5 1.208 . S
C7 O12 1.247 . S
C7 O13 1.208 . S
C8 O0 1.315 . S
C8 O3 1.279 . S
C9 O10 1.315 . S
C9 O11 1.279 . S
O10 Cd2 2.223 1_655 S
O10 C9 1.315 . S
O11 Cd1 2.240 1_565 S
O11 C9 1.279 . S
O12 Cd2 2.297 . S
O12 C7 1.247 . S
O13 Cd2 2.439 . S
O13 C7 1.208 . S
O14 Cd15 2.223 1_655 S
O14 C22 1.315 . S
Cd15 O14 2.223 1_455 S
Cd15 O18 2.297 . S
Cd15 O19 2.439 . S
Cd15 O25 2.240 . S
Cd16 O17 2.240 . S
Cd16 O24 2.223 1_655 S
Cd16 O26 2.297 . S
Cd16 O27 2.439 . S
O17 Cd16 2.240 . S
O17 C22 1.279 1_565 S
O18 Cd15 2.297 . S
O18 C20 1.247 . S
O19 Cd15 2.439 . S
O19 C20 1.208 . S
C20 O18 1.247 . S
C20 O19 1.208 . S
C21 O26 1.247 . S
C21 O27 1.208 . S
C22 O14 1.315 . S
C22 O17 1.279 1_545 S
C23 O24 1.315 . S
C23 O25 1.279 1_565 S
O24 Cd16 2.223 1_455 S
O24 C23 1.315 . S
O25 Cd15 2.240 . S
O25 C23 1.279 1_545 S
O26 Cd16 2.297 . S
O26 C21 1.247 . S
O27 Cd16 2.439 . S
O27 C21 1.208 . S
O28 Cd29 2.223 . S
O28 C36 1.315 . S
Cd29 O28 2.223 . S
Cd29 O32 2.297 . S
Cd29 O33 2.439 . S
Cd29 O39 2.240 1_655 S
Cd30 O31 2.240 1_455 S
Cd30 O38 2.223 . S
Cd30 O40 2.297 . S
Cd30 O41 2.439 . S
O31 Cd30 2.240 1_655 S
O31 C36 1.279 1_545 S
O32 Cd29 2.297 . S
O32 C34 1.247 . S
O33 Cd29 2.439 . S
O33 C34 1.208 . S
C34 O32 1.247 . S
C34 O33 1.208 . S
C35 O40 1.247 . S
C35 O41 1.208 . S
C36 O28 1.315 . S
C36 O31 1.279 1_565 S
C37 O38 1.315 . S
C37 O39 1.279 1_545 S
O38 Cd30 2.223 . S
O38 C37 1.315 . S
O39 Cd29 2.240 1_455 S
O39 C37 1.279 1_565 S
O40 Cd30 2.297 . S
O40 C35 1.247 . S
O41 Cd30 2.439 . S
O41 C35 1.208 . S
C42 C43 1.384 1_655 S
C42 C44 1.384 . S
C42 H70 0.931 . S
C43 C42 1.384 1_455 S
C43 C46 1.382 . S
C44 C42 1.384 . S
C44 C45 1.381 1_655 S
C44 H71 0.930 . S
C45 C44 1.381 1_455 S
C45 C47 1.381 . S
C45 C48 1.487 . S
C46 C43 1.382 . S
C46 C47 1.387 . S
C46 H72 0.930 . S
C47 C45 1.381 . S
C47 C46 1.387 . S
C47 H73 0.931 . S
C48 C45 1.487 . S
C48 C55 1.399 1_455 S
C48 N86 1.343 . S
C49 C50 1.384 1_455 S
C49 C51 1.384 . S
C49 H74 0.931 . S
C50 C49 1.384 1_655 S
C50 C53 1.382 . S
C51 C49 1.384 . S
C51 C52 1.381 1_455 S
C51 H75 0.930 . S
C52 C51 1.381 1_655 S
C52 C54 1.381 . S
C52 C55 1.487 . S
C53 C50 1.382 . S
C53 C54 1.387 . S
C53 H76 0.930 . S
C54 C52 1.381 . S
C54 C53 1.387 . S
C54 H77 0.931 . S
C55 C48 1.399 1_655 S
C55 C52 1.487 . S
C55 N87 1.343 . S
C56 C57 1.384 1_455 S
C56 C58 1.384 . S
C56 H78 0.931 . S
C57 C56 1.384 1_655 S
C57 C60 1.382 . S
C58 C56 1.384 . S
C58 C59 1.381 1_455 S
C58 H79 0.930 . S
C59 C58 1.381 1_655 S
C59 C61 1.381 . S
C59 C62 1.487 . S
C60 C57 1.382 . S
C60 C61 1.387 . S
C60 H80 0.930 . S
C61 C59 1.381 . S
C61 C60 1.387 . S
C61 H81 0.931 . S
C62 C59 1.487 . S
C62 C69 1.399 1_655 S
C62 N87 1.343 . S
C63 C64 1.384 1_655 S
C63 C65 1.384 . S
C63 H82 0.931 . S
C64 C63 1.384 1_455 S
C64 C67 1.382 . S
C65 C63 1.384 . S
C65 C66 1.381 1_655 S
C65 H83 0.930 . S
C66 C65 1.381 1_455 S
C66 C68 1.381 . S
C66 C69 1.487 . S
C67 C64 1.382 . S
C67 C68 1.387 . S
C67 H84 0.930 . S
C68 C66 1.381 . S
C68 C67 1.387 . S
C68 H85 0.931 . S
C69 C62 1.399 1_455 S
C69 C66 1.487 . S
C69 N86 1.343 . S
H70 C42 0.931 . S
H71 C44 0.930 . S
H72 C46 0.930 . S
H73 C47 0.931 . S
H74 C49 0.931 . S
H75 C51 0.930 . S
H76 C53 0.930 . S
H77 C54 0.931 . S
H78 C56 0.931 . S
H79 C58 0.930 . S
H80 C60 0.930 . S
H81 C61 0.931 . S
H82 C63 0.931 . S
H83 C65 0.930 . S
H84 C67 0.930 . S
H85 C68 0.931 . S
N86 C48 1.343 . S
N86 C69 1.343 . S
N87 C55 1.343 . S
N87 C62 1.343 . S
C88 C89 1.364 1_545 S
C88 C90 1.384 . S
C88 H116 0.931 . S
C89 C88 1.364 1_565 S
C89 C92 1.390 . S
C90 C88 1.384 . S
C90 C91 1.381 1_545 S
C90 H117 0.930 . S
C91 C90 1.381 1_565 S
C91 C93 1.381 . S
C91 C94 1.487 . S
C92 C89 1.390 . S
C92 C93 1.387 . S
C92 H118 0.930 . S
C93 C91 1.381 . S
C93 C92 1.387 . S
C93 H119 0.931 . S
C94 C91 1.487 . S
C94 C101 1.399 1_565 S
C94 N132 1.343 . S
C95 C96 1.384 1_565 S
C95 C97 1.384 . S
C95 H120 0.931 . S
C96 C95 1.384 1_545 S
C96 C99 1.382 . S
C97 C95 1.384 . S
C97 C98 1.381 1_565 S
C97 H121 0.930 . S
C98 C97 1.381 1_545 S
C98 C100 1.381 . S
C98 C101 1.487 . S
C99 C96 1.382 . S
C99 C100 1.387 . S
C99 H122 0.930 . S
C100 C98 1.381 . S
C100 C99 1.387 . S
C100 H123 0.931 . S
C101 C94 1.399 1_545 S
C101 C98 1.487 . S
C101 N133 1.343 . S
C102 C103 1.384 1_565 S
C102 C104 1.384 . S
C102 H124 0.931 . S
C103 C102 1.384 1_545 S
C103 C106 1.382 . S
C104 C102 1.384 . S
C104 C105 1.381 1_565 S
C104 H125 0.930 . S
C105 C104 1.381 1_545 S
C105 C107 1.381 . S
C105 C108 1.487 . S
C106 C103 1.382 . S
C106 C107 1.387 . S
C106 H126 0.930 . S
C107 C105 1.381 . S
C107 C106 1.387 . S
C107 H127 0.931 . S
C108 C105 1.487 . S
C108 C115 1.399 1_545 S
C108 N133 1.343 . S
C109 C110 1.367 1_545 S
C109 C111 1.384 . S
C109 H128 0.931 . S
C110 C109 1.367 1_565 S
C110 C113 1.414 . S
C111 C109 1.384 . S
C111 C112 1.381 1_545 S
C111 H129 0.930 . S
C112 C111 1.381 1_565 S
C112 C114 1.381 . S
C112 C115 1.487 . S
C113 C110 1.414 . S
C113 C114 1.387 . S
C113 H130 0.930 . S
C114 C112 1.381 . S
C114 C113 1.387 . S
C114 H131 0.931 . S
C115 C108 1.399 1_565 S
C115 C112 1.487 . S
C115 N132 1.343 . S
H116 C88 0.931 . S
H117 C90 0.930 . S
H118 C92 0.930 . S
H119 C93 0.931 . S
H120 C95 0.931 . S
H121 C97 0.930 . S
H122 C99 0.930 . S
H123 C100 0.931 . S
H124 C102 0.931 . S
H125 C104 0.930 . S
H126 C106 0.930 . S
H127 C107 0.931 . S
H128 C109 0.931 . S
H129 C111 0.930 . S
H130 C113 0.930 . S
H131 C114 0.931 . S
N132 C94 1.343 . S
N132 C115 1.343 . S
N133 C101 1.343 . S
N133 C108 1.343 . S
C134 C135 1.384 . S
C134 C136 1.384 . S
C134 H162 0.931 . S
C135 C134 1.384 . S
C135 C138 1.382 . S
C136 C134 1.384 . S
C136 C137 1.381 . S
C136 H163 0.930 . S
C137 C136 1.381 . S
C137 C139 1.381 . S
C137 C140 1.487 . S
C138 C135 1.382 . S
C138 C139 1.387 . S
C138 H164 0.930 . S
C139 C137 1.381 . S
C139 C138 1.387 . S
C139 H165 0.931 . S
C140 C137 1.487 . S
C140 C147 1.399 . S
C140 N178 1.343 . S
C141 C142 1.384 . S
C141 C143 1.384 . S
C141 H166 0.931 . S
C142 C141 1.384 . S
C142 C145 1.382 . S
C143 C141 1.384 . S
C143 C144 1.381 . S
C143 H167 0.930 . S
C144 C143 1.381 . S
C144 C146 1.381 . S
C144 C147 1.487 . S
C145 C142 1.382 . S
C145 C146 1.387 . S
C145 H168 0.930 . S
C146 C144 1.381 . S
C146 C145 1.387 . S
C146 H169 0.931 . S
C147 C140 1.399 . S
C147 C144 1.487 . S
C147 N179 1.343 . S
C148 C149 1.384 . S
C148 C150 1.384 . S
C148 H170 0.931 . S
C149 C148 1.384 . S
C149 C152 1.382 . S
C150 C148 1.384 . S
C150 C151 1.381 . S
C150 H171 0.930 . S
C151 C150 1.381 . S
C151 C153 1.381 . S
C151 C154 1.487 . S
C152 C149 1.382 . S
C152 C153 1.387 . S
C152 H172 0.930 . S
C153 C151 1.381 . S
C153 C152 1.387 . S
C153 H173 0.931 . S
C154 C151 1.487 . S
C154 C161 1.399 . S
C154 N179 1.343 . S
C155 C156 1.384 . S
C155 C157 1.384 . S
C155 H174 0.931 . S
C156 C155 1.384 . S
C156 C159 1.382 . S
C157 C155 1.384 . S
C157 C158 1.381 . S
C157 H175 0.930 . S
C158 C157 1.381 . S
C158 C160 1.381 . S
C158 C161 1.487 . S
C159 C156 1.382 . S
C159 C160 1.387 . S
C159 H176 0.930 . S
C160 C158 1.381 . S
C160 C159 1.387 . S
C160 H177 0.931 . S
C161 C154 1.399 . S
C161 C158 1.487 . S
C161 N178 1.343 . S
H162 C134 0.931 . S
H163 C136 0.930 . S
H164 C138 0.930 . S
H165 C139 0.931 . S
H166 C141 0.931 . S
H167 C143 0.930 . S
H168 C145 0.930 . S
H169 C146 0.931 . S
H170 C148 0.931 . S
H171 C150 0.930 . S
H172 C152 0.930 . S
H173 C153 0.931 . S
H174 C155 0.931 . S
H175 C157 0.930 . S
H176 C159 0.930 . S
H177 C160 0.931 . S
N178 C140 1.343 . S
N178 C161 1.343 . S
N179 C147 1.343 . S
N179 C154 1.343 . S
C180 C181 1.357 . S
C180 C182 1.327 . S
C180 H205 0.950 . S
C181 C180 1.357 . S
C181 C197 1.329 1_455 S
C182 C180 1.327 . S
C182 C201 1.444 . S
C182 H206 0.950 . S
C183 C200 1.574 . S
C183 C202 1.356 1_655 S
C183 H207 0.949 . S
H184 C188 0.949 . S
C185 C186 1.348 1_655 S
C185 C187 1.327 . S
C185 H208 0.950 . S
C186 C185 1.348 1_455 S
C186 C198 1.350 . S
C187 C185 1.327 . S
C187 C203 1.423 1_655 S
C187 H209 0.950 . S
C188 H184 0.949 . S
C188 C196 1.574 . S
C188 C204 1.377 . S
H189 C197 0.950 . S
H190 C195 0.950 . S
H191 C196 0.949 . S
H192 C198 0.950 . S
H193 C199 0.950 . S
H194 C200 0.949 . S
C195 H190 0.950 . S
C195 C197 1.327 . S
C195 C201 1.423 1_655 S
C196 C188 1.574 . S
C196 H191 0.949 . S
C196 C202 1.375 . S
C197 C181 1.329 1_655 S
C197 H189 0.950 . S
C197 C195 1.327 . S
C198 C186 1.350 . S
C198 H192 0.950 . S
C198 C199 1.327 . S
C199 H193 0.950 . S
C199 C198 1.327 . S
C199 C203 1.431 . S
C200 C183 1.574 . S
C200 H194 0.949 . S
C200 C204 1.364 1_655 S
C201 C182 1.444 . S
C201 C195 1.423 1_455 S
C201 C202 1.521 . S
C202 C183 1.356 1_455 S
C202 C196 1.375 . S
C202 C201 1.521 . S
C203 C187 1.423 1_455 S
C203 C199 1.431 . S
C203 C204 1.521 . S
C204 C188 1.377 . S
C204 C200 1.364 1_455 S
C204 C203 1.521 . S
H205 C180 0.950 . S
H206 C182 0.950 . S
H207 C183 0.949 . S
H208 C185 0.950 . S
H209 C187 0.950 . S
C210 C211 1.349 1_565 S
C210 C212 1.327 . S
C210 H235 0.950 . S
C211 C210 1.349 1_545 S
C211 C227 1.349 . S
C212 C210 1.327 . S
C212 C231 1.429 1_565 S
C212 H236 0.950 . S
C213 C230 1.574 . S
C213 C232 1.368 . S
C213 H237 0.949 . S
H214 C218 0.949 . S
C215 C216 1.353 . S
C215 C217 1.327 . S
C215 H238 0.950 . S
C216 C215 1.353 . S
C216 C228 1.341 1_545 S
C217 C215 1.327 . S
C217 C233 1.460 . S
C217 H239 0.950 . S
C218 H214 0.949 . S
C218 C226 1.574 . S
C218 C234 1.368 1_565 S
H219 C227 0.950 . S
H220 C225 0.950 . S
H221 C226 0.949 . S
H222 C228 0.950 . S
H223 C229 0.950 . S
H224 C230 0.949 . S
C225 H220 0.950 . S
C225 C227 1.327 . S
C225 C231 1.429 . S
C226 C218 1.574 . S
C226 H221 0.949 . S
C226 C232 1.368 1_565 S
C227 C211 1.349 . S
C227 H219 0.950 . S
C227 C225 1.327 . S
C228 C216 1.341 1_565 S
C228 H222 0.950 . S
C228 C229 1.327 . S
C229 H223 0.950 . S
C229 C228 1.327 . S
C229 C233 1.411 1_565 S
C230 C213 1.574 . S
C230 H224 0.949 . S
C230 C234 1.368 . S
C231 C212 1.429 1_545 S
C231 C225 1.429 . S
C231 C232 1.523 . S
C232 C213 1.368 . S
C232 C226 1.368 1_545 S
C232 C231 1.523 . S
C233 C217 1.460 . S
C233 C229 1.411 1_545 S
C233 C234 1.511 . S
C234 C218 1.368 1_545 S
C234 C230 1.368 . S
C234 C233 1.511 . S
H235 C210 0.950 . S
H236 C212 0.950 . S
H237 C213 0.949 . S
H238 C215 0.950 . S
H239 C217 0.950 . S
C240 C241 1.349 . S
C240 C242 1.327 . S
C240 H265 0.950 . S
C241 C240 1.349 . S
C241 C257 1.349 . S
C242 C240 1.327 . S
C242 C261 1.429 . S
C242 H266 0.950 . S
C243 C260 1.574 . S
C243 C262 1.368 . S
C243 H267 0.949 . S
H244 C248 0.949 . S
C245 C246 1.349 . S
C245 C247 1.327 . S
C245 H268 0.950 . S
C246 C245 1.349 . S
C246 C258 1.349 . S
C247 C245 1.327 . S
C247 C263 1.429 . S
C247 H269 0.950 . S
C248 H244 0.949 . S
C248 C256 1.574 . S
C248 C264 1.368 . S
H249 C257 0.950 . S
H250 C255 0.950 . S
H251 C256 0.949 . S
H252 C258 0.950 . S
H253 C259 0.950 . S
H254 C260 0.949 . S
C255 H250 0.950 . S
C255 C257 1.327 . S
C255 C261 1.429 . S
C256 C248 1.574 . S
C256 H251 0.949 . S
C256 C262 1.368 . S
C257 C241 1.349 . S
C257 H249 0.950 . S
C257 C255 1.327 . S
C258 C246 1.349 . S
C258 H252 0.950 . S
C258 C259 1.327 . S
C259 H253 0.950 . S
C259 C258 1.327 . S
C259 C263 1.429 . S
C260 C243 1.574 . S
C260 H254 0.949 . S
C260 C264 1.368 . S
C261 C242 1.429 . S
C261 C255 1.429 . S
C261 C262 1.523 . S
C262 C243 1.368 . S
C262 C256 1.368 . S
C262 C261 1.523 . S
C263 C247 1.429 . S
C263 C259 1.429 . S
C263 C264 1.523 . S
C264 C248 1.368 . S
C264 C260 1.368 . S
C264 C263 1.523 . S
H265 C240 0.950 . S
H266 C242 0.950 . S
H267 C243 0.949 . S
H268 C245 0.950 . S
H269 C247 0.950 . S
C270 C271 1.327 1_455 S
C270 C272 1.327 . S
C270 H295 0.950 . S
C271 C270 1.327 1_655 S
C271 C287 1.362 . S
C272 C270 1.327 . S
C272 C291 1.420 1_455 S
C272 H296 0.950 . S
C273 C290 1.574 . S
C273 C292 1.376 . S
C273 H297 0.949 . S
H274 C278 0.949 . S
C275 C276 1.351 1_655 S
C275 C277 1.327 . S
C275 H298 0.950 . S
C276 C275 1.351 1_455 S
C276 C288 1.348 . S
C277 C275 1.327 . S
C277 C293 1.429 . S
C277 H299 0.950 . S
C278 H274 0.949 . S
C278 C286 1.574 . S
C278 C294 1.365 1_455 S
H279 C287 0.950 . S
H280 C285 0.950 . S
H281 C286 0.949 . S
H282 C288 0.950 . S
H283 C289 0.950 . S
H284 C290 0.949 . S
C285 H280 0.950 . S
C285 C287 1.327 . S
C285 C291 1.444 . S
C286 C278 1.574 . S
C286 H281 0.949 . S
C286 C292 1.357 1_455 S
C287 C271 1.362 . S
C287 H279 0.950 . S
C287 C285 1.327 . S
C288 C276 1.348 . S
C288 H282 0.950 . S
C288 C289 1.327 . S
C289 H283 0.950 . S
C289 C288 1.327 . S
C289 C293 1.427 1_455 S
C290 C273 1.574 . S
C290 H284 0.949 . S
C290 C294 1.374 . S
C291 C272 1.420 1_655 S
C291 C285 1.444 . S
C291 C292 1.521 . S
C292 C273 1.376 . S
C292 C286 1.357 1_655 S
C292 C291 1.521 . S
C293 C277 1.429 . S
C293 C289 1.427 1_655 S
C293 C294 1.521 . S
C294 C278 1.365 1_655 S
C294 C290 1.374 . S
C294 C293 1.521 . S
H295 C270 0.950 . S
H296 C272 0.950 . S
H297 C273 0.949 . S
H298 C275 0.950 . S
H299 C277 0.950 . S
C300 C301 1.349 1_545 S
C300 C302 1.327 . S
C300 H325 0.950 . S
C301 C300 1.349 1_565 S
C301 C317 1.349 . S
C302 C300 1.327 . S
C302 C321 1.429 1_545 S
C302 H326 0.950 . S
C303 C320 1.574 . S
C303 C322 1.368 . S
C303 H327 0.949 . S
H304 C308 0.949 . S
C305 C306 1.349 . S
C305 C307 1.327 . S
C305 H328 0.950 . S
C306 C305 1.349 . S
C306 C318 1.349 1_565 S
C307 C305 1.327 . S
C307 C323 1.453 . S
C307 H329 0.950 . S
C308 H304 0.949 . S
C308 C316 1.574 . S
C308 C324 1.368 1_545 S
H309 C317 0.950 . S
H310 C315 0.950 . S
H311 C316 0.949 . S
H312 C318 0.950 . S
H313 C319 0.950 . S
H314 C320 0.949 . S
C315 H310 0.950 . S
C315 C317 1.327 . S
C315 C321 1.429 . S
C316 C308 1.574 . S
C316 H311 0.949 . S
C316 C322 1.368 1_545 S
C317 C301 1.349 . S
C317 H309 0.950 . S
C317 C315 1.327 . S
C318 C306 1.349 1_545 S
C318 H312 0.950 . S
C318 C319 1.327 . S
C319 H313 0.950 . S
C319 C318 1.327 . S
C319 C323 1.415 1_545 S
C320 C303 1.574 . S
C320 H314 0.949 . S
C320 C324 1.368 . S
C321 C302 1.429 1_565 S
C321 C315 1.429 . S
C321 C322 1.523 . S
C322 C303 1.368 . S
C322 C316 1.368 1_565 S
C322 C321 1.523 . S
C323 C307 1.453 . S
C323 C319 1.415 1_565 S
C323 C324 1.513 . S
C324 C308 1.368 1_565 S
C324 C320 1.368 . S
C324 C323 1.513 . S
H325 C300 0.950 . S
H326 C302 0.950 . S
H327 C303 0.949 . S
H328 C305 0.950 . S
H329 C307 0.950 . S
C330 C331 1.349 . S
C330 C332 1.327 . S
C330 H355 0.950 . S
C331 C330 1.349 . S
C331 C347 1.349 . S
C332 C330 1.327 . S
C332 C351 1.429 . S
C332 H356 0.950 . S
C333 C350 1.574 . S
C333 C352 1.368 . S
C333 H357 0.949 . S
H334 C338 0.949 . S
C335 C336 1.349 . S
C335 C337 1.327 . S
C335 H358 0.950 . S
C336 C335 1.349 . S
C336 C348 1.349 . S
C337 C335 1.327 . S
C337 C353 1.429 . S
C337 H359 0.950 . S
C338 H334 0.949 . S
C338 C346 1.574 . S
C338 C354 1.368 . S
H339 C347 0.950 . S
H340 C345 0.950 . S
H341 C346 0.949 . S
H342 C348 0.950 . S
H343 C349 0.950 . S
H344 C350 0.949 . S
C345 H340 0.950 . S
C345 C347 1.327 . S
C345 C351 1.429 . S
C346 C338 1.574 . S
C346 H341 0.949 . S
C346 C352 1.368 . S
C347 C331 1.349 . S
C347 H339 0.950 . S
C347 C345 1.327 . S
C348 C336 1.349 . S
C348 H342 0.950 . S
C348 C349 1.327 . S
C349 H343 0.950 . S
C349 C348 1.327 . S
C349 C353 1.429 . S
C350 C333 1.574 . S
C350 H344 0.949 . S
C350 C354 1.368 . S
C351 C332 1.429 . S
C351 C345 1.429 . S
C351 C352 1.523 . S
C352 C333 1.368 . S
C352 C346 1.368 . S
C352 C351 1.523 . S
C353 C337 1.429 . S
C353 C349 1.429 . S
C353 C354 1.523 . S
C354 C338 1.368 . S
C354 C350 1.368 . S
C354 C353 1.523 . S
H355 C330 0.950 . S
H356 C332 0.950 . S
H357 C333 0.949 . S
H358 C335 0.950 . S
H359 C337 0.950 . S
C360 C361 1.349 . S
C360 C362 1.327 . S
C360 H385 0.950 . S
C361 C360 1.349 . S
C361 C377 1.349 1_565 S
C362 C360 1.327 . S
C362 C381 1.429 . S
C362 H386 0.950 . S
C363 C380 1.574 . S
C363 C382 1.368 1_545 S
C363 H387 0.949 . S
H364 C368 0.949 . S
C365 C366 1.347 1_545 S
C365 C367 1.327 . S
C365 H388 0.950 . S
C366 C365 1.347 1_565 S
C366 C378 1.354 . S
C367 C365 1.327 . S
C367 C383 1.429 1_545 S
C367 H389 0.950 . S
C368 H364 0.949 . S
C368 C376 1.574 . S
C368 C384 1.368 . S
H369 C377 0.950 . S
H370 C375 0.950 . S
H371 C376 0.949 . S
H372 C378 0.950 . S
H373 C379 0.950 . S
H374 C380 0.949 . S
C375 H370 0.950 . S
C375 C377 1.327 . S
C375 C381 1.429 1_545 S
C376 C368 1.574 . S
C376 H371 0.949 . S
C376 C382 1.368 . S
C377 C361 1.349 1_545 S
C377 H369 0.950 . S
C377 C375 1.327 . S
C378 C366 1.354 . S
C378 H372 0.950 . S
C378 C379 1.327 . S
C379 H373 0.950 . S
C379 C378 1.327 . S
C379 C383 1.429 . S
C380 C363 1.574 . S
C380 H374 0.949 . S
C380 C384 1.368 1_545 S
C381 C362 1.429 . S
C381 C375 1.429 1_565 S
C381 C382 1.523 . S
C382 C363 1.368 1_565 S
C382 C376 1.368 . S
C382 C381 1.523 . S
C383 C367 1.429 1_565 S
C383 C379 1.429 . S
C383 C384 1.523 . S
C384 C368 1.368 . S
C384 C380 1.368 1_565 S
C384 C383 1.523 . S
H385 C360 0.950 . S
H386 C362 0.950 . S
H387 C363 0.949 . S
H388 C365 0.950 . S
H389 C367 0.950 . S
C390 C391 1.349 . S
C390 C392 1.327 . S
C390 H415 0.950 . S
C391 C390 1.349 . S
C391 C407 1.349 . S
C392 C390 1.327 . S
C392 C411 1.429 . S
C392 H416 0.950 1_554 S
C393 C410 1.574 . S
C393 C412 1.368 . S
C393 H417 0.949 1_556 S
H394 C398 0.949 . S
C395 C396 1.349 . S
C395 C397 1.327 . S
C395 H418 0.950 . S
C396 C395 1.349 . S
C396 C408 1.349 . S
C397 C395 1.327 . S
C397 C413 1.429 . S
C397 H419 0.950 . S
C398 H394 0.949 . S
C398 C406 1.574 . S
C398 C414 1.368 . S
H399 C407 0.950 . S
H400 C405 0.950 . S
H401 C406 0.949 . S
H402 C408 0.950 . S
H403 C409 0.950 . S
H404 C410 0.949 . S
C405 H400 0.950 . S
C405 C407 1.327 . S
C405 C411 1.429 . S
C406 C398 1.574 . S
C406 H401 0.949 . S
C406 C412 1.368 . S
C407 C391 1.349 . S
C407 H399 0.950 . S
C407 C405 1.327 . S
C408 C396 1.349 . S
C408 H402 0.950 . S
C408 C409 1.327 . S
C409 H403 0.950 . S
C409 C408 1.327 . S
C409 C413 1.429 . S
C410 C393 1.574 . S
C410 H404 0.949 . S
C410 C414 1.368 . S
C411 C392 1.429 . S
C411 C405 1.429 . S
C411 C412 1.523 1_554 S
C412 C393 1.368 . S
C412 C406 1.368 . S
C412 C411 1.523 1_556 S
C413 C397 1.429 . S
C413 C409 1.429 . S
C413 C414 1.523 . S
C414 C398 1.368 . S
C414 C410 1.368 . S
C414 C413 1.523 . S
H415 C390 0.950 . S
H416 C392 0.950 1_556 S
H417 C393 0.949 1_554 S
H418 C395 0.950 . S
H419 C397 0.950 . S
C420 C421 1.349 . S
C420 C422 1.327 . S
C420 H445 0.950 . S
C421 C420 1.349 . S
C421 C437 1.349 1_455 S
C422 C420 1.327 . S
C422 C441 1.429 . S
C422 H446 0.950 . S
C423 C440 1.574 . S
C423 C442 1.368 1_655 S
C423 H447 0.949 . S
H424 C428 0.949 . S
C425 C426 1.348 1_655 S
C425 C427 1.327 . S
C425 H448 0.950 . S
C426 C425 1.348 1_455 S
C426 C438 1.346 . S
C427 C425 1.327 . S
C427 C443 1.429 1_655 S
C427 H449 0.950 . S
C428 H424 0.949 . S
C428 C436 1.574 . S
C428 C444 1.368 . S
H429 C437 0.950 . S
H430 C435 0.950 . S
H431 C436 0.949 . S
H432 C438 0.950 . S
H433 C439 0.950 . S
H434 C440 0.949 . S
C435 H430 0.950 . S
C435 C437 1.327 . S
C435 C441 1.429 1_655 S
C436 C428 1.574 . S
C436 H431 0.949 . S
C436 C442 1.368 . S
C437 C421 1.349 1_655 S
C437 H429 0.950 . S
C437 C435 1.327 . S
C438 C426 1.346 . S
C438 H432 0.950 . S
C438 C439 1.327 . S
C439 H433 0.950 . S
C439 C438 1.327 . S
C439 C443 1.429 . S
C440 C423 1.574 . S
C440 H434 0.949 . S
C440 C444 1.368 1_655 S
C441 C422 1.429 . S
C441 C435 1.429 1_455 S
C441 C442 1.523 . S
C442 C423 1.368 1_455 S
C442 C436 1.368 . S
C442 C441 1.523 . S
C443 C427 1.429 1_455 S
C443 C439 1.429 . S
C443 C444 1.523 . S
C444 C428 1.368 . S
C444 C440 1.368 1_455 S
C444 C443 1.523 . S
H445 C420 0.950 . S
H446 C422 0.950 . S
H447 C423 0.949 . S
H448 C425 0.950 . S
H449 C427 0.950 . S
C450 C451 1.349 1_565 S
C450 C452 1.327 . S
C450 H475 0.950 . S
C451 C450 1.349 1_545 S
C451 C467 1.349 . S
C452 C450 1.327 . S
C452 C471 1.429 1_565 S
C452 H476 0.950 . S
C453 C470 1.574 . S
C453 C472 1.368 . S
C453 H477 0.949 . S
H454 C458 0.949 . S
C455 C456 1.360 . S
C455 C457 1.327 . S
C455 H478 0.950 . S
C456 C455 1.360 . S
C456 C468 1.344 1_545 S
C457 C455 1.327 . S
C457 C473 1.429 . S
C457 H479 0.950 . S
C458 H454 0.949 . S
C458 C466 1.574 . S
C458 C474 1.368 1_565 S
H459 C467 0.950 . S
H460 C465 0.950 . S
H461 C466 0.949 . S
H462 C468 0.950 . S
H463 C469 0.950 . S
H464 C470 0.949 . S
C465 H460 0.950 . S
C465 C467 1.327 . S
C465 C471 1.429 . S
C466 C458 1.574 . S
C466 H461 0.949 . S
C466 C472 1.368 1_565 S
C467 C451 1.349 . S
C467 H459 0.950 . S
C467 C465 1.327 . S
C468 C456 1.344 1_565 S
C468 H462 0.950 . S
C468 C469 1.327 . S
C469 H463 0.950 . S
C469 C468 1.327 . S
C469 C473 1.429 1_565 S
C470 C453 1.574 . S
C470 H464 0.949 . S
C470 C474 1.368 . S
C471 C452 1.429 1_545 S
C471 C465 1.429 . S
C471 C472 1.523 . S
C472 C453 1.368 . S
C472 C466 1.368 1_545 S
C472 C471 1.523 . S
C473 C457 1.429 . S
C473 C469 1.429 1_545 S
C473 C474 1.523 . S
C474 C458 1.368 1_545 S
C474 C470 1.368 . S
C474 C473 1.523 . S
H475 C450 0.950 . S
H476 C452 0.950 . S
H477 C453 0.949 . S
H478 C455 0.950 . S
H479 C457 0.950 . S
C480 C481 1.349 . S
C480 C482 1.357 . S
C480 H505 0.950 . S
C481 C480 1.349 . S
C481 C497 1.349 . S
C482 C480 1.357 . S
C482 C501 1.442 . S
C482 H506 0.906 1_554 S
C483 C500 1.574 1_554 S
C483 C502 1.368 1_554 S
C483 H507 0.949 . S
H484 C488 0.949 . S
C485 C486 1.349 . S
C485 C487 1.327 . S
C485 H508 0.950 . S
C486 C485 1.349 . S
C486 C498 1.349 . S
C487 C485 1.327 . S
C487 C503 1.429 . S
C487 H509 0.950 . S
C488 H484 0.949 . S
C488 C496 1.574 . S
C488 C504 1.368 . S
H489 C497 0.950 . S
H490 C495 0.950 . S
H491 C496 0.949 . S
H492 C498 0.950 . S
H493 C499 0.950 . S
H494 C500 0.949 . S
C495 H490 0.950 . S
C495 C497 1.327 . S
C495 C501 1.429 . S
C496 C488 1.574 . S
C496 H491 0.949 . S
C496 C502 1.368 . S
C497 C481 1.349 . S
C497 H489 0.950 . S
C497 C495 1.327 . S
C498 C486 1.349 . S
C498 H492 0.950 . S
C498 C499 1.327 . S
C499 H493 0.950 . S
C499 C498 1.327 . S
C499 C503 1.429 . S
C500 C483 1.574 1_556 S
C500 H494 0.949 . S
C500 C504 1.368 . S
C501 C482 1.442 . S
C501 C495 1.429 . S
C501 C502 1.523 1_554 S
C502 C483 1.368 1_556 S
C502 C496 1.368 . S
C502 C501 1.523 1_556 S
C503 C487 1.429 . S
C503 C499 1.429 . S
C503 C504 1.523 . S
C504 C488 1.368 . S
C504 C500 1.368 . S
C504 C503 1.523 . S
H505 C480 0.950 . S
H506 C482 0.906 1_556 S
H507 C483 0.949 . S
H508 C485 0.950 . S
H509 C487 0.950 . S
C510 C511 1.349 1_455 S
C510 C512 1.327 . S
C510 H535 0.950 . S
C511 C510 1.349 1_655 S
C511 C527 1.349 . S
C512 C510 1.327 . S
C512 C531 1.429 1_455 S
C512 H536 0.950 . S
C513 C530 1.574 . S
C513 C532 1.368 . S
C513 H537 0.949 . S
H514 C518 0.949 . S
C515 C516 1.349 . S
C515 C517 1.327 . S
C515 H538 0.950 . S
C516 C515 1.349 . S
C516 C528 1.348 1_655 S
C517 C515 1.327 . S
C517 C533 1.429 . S
C517 H539 0.950 . S
C518 H514 0.949 . S
C518 C526 1.574 . S
C518 C534 1.368 1_455 S
H519 C527 0.950 . S
H520 C525 0.950 . S
H521 C526 0.949 . S
H522 C528 0.950 . S
H523 C529 0.950 . S
H524 C530 0.949 . S
C525 H520 0.950 . S
C525 C527 1.327 . S
C525 C531 1.429 . S
C526 C518 1.574 . S
C526 H521 0.949 . S
C526 C532 1.368 1_455 S
C527 C511 1.349 . S
C527 H519 0.950 . S
C527 C525 1.327 . S
C528 C516 1.348 1_455 S
C528 H522 0.950 . S
C528 C529 1.327 . S
C529 H523 0.950 . S
C529 C528 1.327 . S
C529 C533 1.429 1_455 S
C530 C513 1.574 . S
C530 H524 0.949 . S
C530 C534 1.368 . S
C531 C512 1.429 1_655 S
C531 C525 1.429 . S
C531 C532 1.523 . S
C532 C513 1.368 . S
C532 C526 1.368 1_655 S
C532 C531 1.523 . S
C533 C517 1.429 . S
C533 C529 1.429 1_655 S
C533 C534 1.523 . S
C534 C518 1.368 1_655 S
C534 C530 1.368 . S
C534 C533 1.523 . S
H535 C510 0.950 . S
H536 C512 0.950 . S
H537 C513 0.949 . S
H538 C515 0.950 . S
H539 C517 0.950 . S
C186 C50 1.486 1_455 S
C181 C6 1.470 1_455 S
C211 C22 1.591 . S
C216 C89 1.634 1_545 S
C241 C34 1.215 . S
C246 C156 1.238 . S
C271 C7 1.471 1_655 S
C276 C57 1.488 1_455 S
C306 C110 1.602 . S
C301 C23 1.589 . S
C331 C35 1.215 . S
C336 C135 1.233 . S
C366 C96 1.611 1_565 S
C361 C36 1.597 . S
C391 C9 1.840 . S
C396 C149 1.877 . S
C426 C64 1.487 . S
C421 C21 1.462 1_455 S
C456 C103 1.608 . S
C451 C37 1.592 . S
C486 C142 1.875 . S
C481 C8 1.837 . S
C511 C20 1.459 1_655 S
C516 C43 1.481 1_655 S
