# Generated by pormake.
# Topology tbo, (3,4)-cn, num edge types: 1
# Building blocks:
#     Node 0, Type 0, BuildingBlock: OLANEW_clean_sbu_2, # of connection points: 3
#     Node 1, Type 0, BuildingBlock: OLANEW_clean_sbu_2, # of connection points: 3
#     Node 2, Type 0, BuildingBlock: OLANEW_clean_sbu_2, # of connection points: 3
#     Node 3, Type 0, BuildingBlock: OLANEW_clean_sbu_2, # of connection points: 3
#     Node 4, Type 0, BuildingBlock: OLANEW_clean_sbu_2, # of connection points: 3
#     Node 5, Type 0, BuildingBlock: OLANEW_clean_sbu_2, # of connection points: 3
#     Node 6, Type 0, BuildingBlock: OLANEW_clean_sbu_2, # of connection points: 3
#     Node 7, Type 0, BuildingBlock: OLANEW_clean_sbu_2, # of connection points: 3
#     Node 8, Type 0, BuildingBlock: OLANEW_clean_sbu_2, # of connection points: 3
#     Node 9, Type 0, BuildingBlock: OLANEW_clean_sbu_2, # of connection points: 3
#     Node 10, Type 0, BuildingBlock: OLANEW_clean_sbu_2, # of connection points: 3
#     Node 11, Type 0, BuildingBlock: OLANEW_clean_sbu_2, # of connection points: 3
#     Node 12, Type 0, BuildingBlock: OLANEW_clean_sbu_2, # of connection points: 3
#     Node 13, Type 0, BuildingBlock: OLANEW_clean_sbu_2, # of connection points: 3
#     Node 14, Type 0, BuildingBlock: OLANEW_clean_sbu_2, # of connection points: 3
#     Node 15, Type 0, BuildingBlock: OLANEW_clean_sbu_2, # of connection points: 3
#     Node 16, Type 0, BuildingBlock: OLANEW_clean_sbu_2, # of connection points: 3
#     Node 17, Type 0, BuildingBlock: OLANEW_clean_sbu_2, # of connection points: 3
#     Node 18, Type 0, BuildingBlock: OLANEW_clean_sbu_2, # of connection points: 3
#     Node 19, Type 0, BuildingBlock: OLANEW_clean_sbu_2, # of connection points: 3
#     Node 20, Type 0, BuildingBlock: OLANEW_clean_sbu_2, # of connection points: 3
#     Node 21, Type 0, BuildingBlock: OLANEW_clean_sbu_2, # of connection points: 3
#     Node 22, Type 0, BuildingBlock: OLANEW_clean_sbu_2, # of connection points: 3
#     Node 23, Type 0, BuildingBlock: OLANEW_clean_sbu_2, # of connection points: 3
#     Node 24, Type 0, BuildingBlock: OLANEW_clean_sbu_2, # of connection points: 3
#     Node 25, Type 0, BuildingBlock: OLANEW_clean_sbu_2, # of connection points: 3
#     Node 26, Type 0, BuildingBlock: OLANEW_clean_sbu_2, # of connection points: 3
#     Node 27, Type 0, BuildingBlock: OLANEW_clean_sbu_2, # of connection points: 3
#     Node 28, Type 0, BuildingBlock: OLANEW_clean_sbu_2, # of connection points: 3
#     Node 29, Type 0, BuildingBlock: OLANEW_clean_sbu_2, # of connection points: 3
#     Node 30, Type 0, BuildingBlock: OLANEW_clean_sbu_2, # of connection points: 3
#     Node 31, Type 0, BuildingBlock: OLANEW_clean_sbu_2, # of connection points: 3
#     Node 32, Type 1, BuildingBlock: KUFVIS_clean_linker_0, # of connection points: 4
#     Node 33, Type 1, BuildingBlock: KUFVIS_clean_linker_0, # of connection points: 4
#     Node 34, Type 1, BuildingBlock: KUFVIS_clean_linker_0, # of connection points: 4
#     Node 35, Type 1, BuildingBlock: KUFVIS_clean_linker_0, # of connection points: 4
#     Node 36, Type 1, BuildingBlock: KUFVIS_clean_linker_0, # of connection points: 4
#     Node 37, Type 1, BuildingBlock: KUFVIS_clean_linker_0, # of connection points: 4
#     Node 38, Type 1, BuildingBlock: KUFVIS_clean_linker_0, # of connection points: 4
#     Node 39, Type 1, BuildingBlock: KUFVIS_clean_linker_0, # of connection points: 4
#     Node 40, Type 1, BuildingBlock: KUFVIS_clean_linker_0, # of connection points: 4
#     Node 41, Type 1, BuildingBlock: KUFVIS_clean_linker_0, # of connection points: 4
#     Node 42, Type 1, BuildingBlock: KUFVIS_clean_linker_0, # of connection points: 4
#     Node 43, Type 1, BuildingBlock: KUFVIS_clean_linker_0, # of connection points: 4
#     Node 44, Type 1, BuildingBlock: KUFVIS_clean_linker_0, # of connection points: 4
#     Node 45, Type 1, BuildingBlock: KUFVIS_clean_linker_0, # of connection points: 4
#     Node 46, Type 1, BuildingBlock: KUFVIS_clean_linker_0, # of connection points: 4
#     Node 47, Type 1, BuildingBlock: KUFVIS_clean_linker_0, # of connection points: 4
#     Node 48, Type 1, BuildingBlock: KUFVIS_clean_linker_0, # of connection points: 4
#     Node 49, Type 1, BuildingBlock: KUFVIS_clean_linker_0, # of connection points: 4
#     Node 50, Type 1, BuildingBlock: KUFVIS_clean_linker_0, # of connection points: 4
#     Node 51, Type 1, BuildingBlock: KUFVIS_clean_linker_0, # of connection points: 4
#     Node 52, Type 1, BuildingBlock: KUFVIS_clean_linker_0, # of connection points: 4
#     Node 53, Type 1, BuildingBlock: KUFVIS_clean_linker_0, # of connection points: 4
#     Node 54, Type 1, BuildingBlock: KUFVIS_clean_linker_0, # of connection points: 4
#     Node 55, Type 1, BuildingBlock: KUFVIS_clean_linker_0, # of connection points: 4
#     Edge 56, Type (0, 1), BuildingBlock: XIVTED_clean_linker_0, # of connection points: 2
#     Edge 57, Type (0, 1), BuildingBlock: XIVTED_clean_linker_0, # of connection points: 2
#     Edge 58, Type (0, 1), BuildingBlock: XIVTED_clean_linker_0, # of connection points: 2
#     Edge 59, Type (0, 1), BuildingBlock: XIVTED_clean_linker_0, # of connection points: 2
#     Edge 60, Type (0, 1), BuildingBlock: XIVTED_clean_linker_0, # of connection points: 2
#     Edge 61, Type (0, 1), BuildingBlock: XIVTED_clean_linker_0, # of connection points: 2
#     Edge 62, Type (0, 1), BuildingBlock: XIVTED_clean_linker_0, # of connection points: 2
#     Edge 63, Type (0, 1), BuildingBlock: XIVTED_clean_linker_0, # of connection points: 2
#     Edge 64, Type (0, 1), BuildingBlock: XIVTED_clean_linker_0, # of connection points: 2
#     Edge 65, Type (0, 1), BuildingBlock: XIVTED_clean_linker_0, # of connection points: 2
#     Edge 66, Type (0, 1), BuildingBlock: XIVTED_clean_linker_0, # of connection points: 2
#     Edge 67, Type (0, 1), BuildingBlock: XIVTED_clean_linker_0, # of connection points: 2
#     Edge 68, Type (0, 1), BuildingBlock: XIVTED_clean_linker_0, # of connection points: 2
#     Edge 69, Type (0, 1), BuildingBlock: XIVTED_clean_linker_0, # of connection points: 2
#     Edge 70, Type (0, 1), BuildingBlock: XIVTED_clean_linker_0, # of connection points: 2
#     Edge 71, Type (0, 1), BuildingBlock: XIVTED_clean_linker_0, # of connection points: 2
#     Edge 72, Type (0, 1), BuildingBlock: XIVTED_clean_linker_0, # of connection points: 2
#     Edge 73, Type (0, 1), BuildingBlock: XIVTED_clean_linker_0, # of connection points: 2
#     Edge 74, Type (0, 1), BuildingBlock: XIVTED_clean_linker_0, # of connection points: 2
#     Edge 75, Type (0, 1), BuildingBlock: XIVTED_clean_linker_0, # of connection points: 2
#     Edge 76, Type (0, 1), BuildingBlock: XIVTED_clean_linker_0, # of connection points: 2
#     Edge 77, Type (0, 1), BuildingBlock: XIVTED_clean_linker_0, # of connection points: 2
#     Edge 78, Type (0, 1), BuildingBlock: XIVTED_clean_linker_0, # of connection points: 2
#     Edge 79, Type (0, 1), BuildingBlock: XIVTED_clean_linker_0, # of connection points: 2
#     Edge 80, Type (0, 1), BuildingBlock: XIVTED_clean_linker_0, # of connection points: 2
#     Edge 81, Type (0, 1), BuildingBlock: XIVTED_clean_linker_0, # of connection points: 2
#     Edge 82, Type (0, 1), BuildingBlock: XIVTED_clean_linker_0, # of connection points: 2
#     Edge 83, Type (0, 1), BuildingBlock: XIVTED_clean_linker_0, # of connection points: 2
#     Edge 84, Type (0, 1), BuildingBlock: XIVTED_clean_linker_0, # of connection points: 2
#     Edge 85, Type (0, 1), BuildingBlock: XIVTED_clean_linker_0, # of connection points: 2
#     Edge 86, Type (0, 1), BuildingBlock: XIVTED_clean_linker_0, # of connection points: 2
#     Edge 87, Type (0, 1), BuildingBlock: XIVTED_clean_linker_0, # of connection points: 2
#     Edge 88, Type (0, 1), BuildingBlock: XIVTED_clean_linker_0, # of connection points: 2
#     Edge 89, Type (0, 1), BuildingBlock: XIVTED_clean_linker_0, # of connection points: 2
#     Edge 90, Type (0, 1), BuildingBlock: XIVTED_clean_linker_0, # of connection points: 2
#     Edge 91, Type (0, 1), BuildingBlock: XIVTED_clean_linker_0, # of connection points: 2
#     Edge 92, Type (0, 1), BuildingBlock: XIVTED_clean_linker_0, # of connection points: 2
#     Edge 93, Type (0, 1), BuildingBlock: XIVTED_clean_linker_0, # of connection points: 2
#     Edge 94, Type (0, 1), BuildingBlock: XIVTED_clean_linker_0, # of connection points: 2
#     Edge 95, Type (0, 1), BuildingBlock: XIVTED_clean_linker_0, # of connection points: 2
#     Edge 96, Type (0, 1), BuildingBlock: XIVTED_clean_linker_0, # of connection points: 2
#     Edge 97, Type (0, 1), BuildingBlock: XIVTED_clean_linker_0, # of connection points: 2
#     Edge 98, Type (0, 1), BuildingBlock: XIVTED_clean_linker_0, # of connection points: 2
#     Edge 99, Type (0, 1), BuildingBlock: XIVTED_clean_linker_0, # of connection points: 2
#     Edge 100, Type (0, 1), BuildingBlock: XIVTED_clean_linker_0, # of connection points: 2
#     Edge 101, Type (0, 1), BuildingBlock: XIVTED_clean_linker_0, # of connection points: 2
#     Edge 102, Type (0, 1), BuildingBlock: XIVTED_clean_linker_0, # of connection points: 2
#     Edge 103, Type (0, 1), BuildingBlock: XIVTED_clean_linker_0, # of connection points: 2
#     Edge 104, Type (0, 1), BuildingBlock: XIVTED_clean_linker_0, # of connection points: 2
#     Edge 105, Type (0, 1), BuildingBlock: XIVTED_clean_linker_0, # of connection points: 2
#     Edge 106, Type (0, 1), BuildingBlock: XIVTED_clean_linker_0, # of connection points: 2
#     Edge 107, Type (0, 1), BuildingBlock: XIVTED_clean_linker_0, # of connection points: 2
#     Edge 108, Type (0, 1), BuildingBlock: XIVTED_clean_linker_0, # of connection points: 2
#     Edge 109, Type (0, 1), BuildingBlock: XIVTED_clean_linker_0, # of connection points: 2
#     Edge 110, Type (0, 1), BuildingBlock: XIVTED_clean_linker_0, # of connection points: 2
#     Edge 111, Type (0, 1), BuildingBlock: XIVTED_clean_linker_0, # of connection points: 2
#     Edge 112, Type (0, 1), BuildingBlock: XIVTED_clean_linker_0, # of connection points: 2
#     Edge 113, Type (0, 1), BuildingBlock: XIVTED_clean_linker_0, # of connection points: 2
#     Edge 114, Type (0, 1), BuildingBlock: XIVTED_clean_linker_0, # of connection points: 2
#     Edge 115, Type (0, 1), BuildingBlock: XIVTED_clean_linker_0, # of connection points: 2
#     Edge 116, Type (0, 1), BuildingBlock: XIVTED_clean_linker_0, # of connection points: 2
#     Edge 117, Type (0, 1), BuildingBlock: XIVTED_clean_linker_0, # of connection points: 2
#     Edge 118, Type (0, 1), BuildingBlock: XIVTED_clean_linker_0, # of connection points: 2
#     Edge 119, Type (0, 1), BuildingBlock: XIVTED_clean_linker_0, # of connection points: 2
#     Edge 120, Type (0, 1), BuildingBlock: XIVTED_clean_linker_0, # of connection points: 2
#     Edge 121, Type (0, 1), BuildingBlock: XIVTED_clean_linker_0, # of connection points: 2
#     Edge 122, Type (0, 1), BuildingBlock: XIVTED_clean_linker_0, # of connection points: 2
#     Edge 123, Type (0, 1), BuildingBlock: XIVTED_clean_linker_0, # of connection points: 2
#     Edge 124, Type (0, 1), BuildingBlock: XIVTED_clean_linker_0, # of connection points: 2
#     Edge 125, Type (0, 1), BuildingBlock: XIVTED_clean_linker_0, # of connection points: 2
#     Edge 126, Type (0, 1), BuildingBlock: XIVTED_clean_linker_0, # of connection points: 2
#     Edge 127, Type (0, 1), BuildingBlock: XIVTED_clean_linker_0, # of connection points: 2
#     Edge 128, Type (0, 1), BuildingBlock: XIVTED_clean_linker_0, # of connection points: 2
#     Edge 129, Type (0, 1), BuildingBlock: XIVTED_clean_linker_0, # of connection points: 2
#     Edge 130, Type (0, 1), BuildingBlock: XIVTED_clean_linker_0, # of connection points: 2
#     Edge 131, Type (0, 1), BuildingBlock: XIVTED_clean_linker_0, # of connection points: 2
#     Edge 132, Type (0, 1), BuildingBlock: XIVTED_clean_linker_0, # of connection points: 2
#     Edge 133, Type (0, 1), BuildingBlock: XIVTED_clean_linker_0, # of connection points: 2
#     Edge 134, Type (0, 1), BuildingBlock: XIVTED_clean_linker_0, # of connection points: 2
#     Edge 135, Type (0, 1), BuildingBlock: XIVTED_clean_linker_0, # of connection points: 2
#     Edge 136, Type (0, 1), BuildingBlock: XIVTED_clean_linker_0, # of connection points: 2
#     Edge 137, Type (0, 1), BuildingBlock: XIVTED_clean_linker_0, # of connection points: 2
#     Edge 138, Type (0, 1), BuildingBlock: XIVTED_clean_linker_0, # of connection points: 2
#     Edge 139, Type (0, 1), BuildingBlock: XIVTED_clean_linker_0, # of connection points: 2
#     Edge 140, Type (0, 1), BuildingBlock: XIVTED_clean_linker_0, # of connection points: 2
#     Edge 141, Type (0, 1), BuildingBlock: XIVTED_clean_linker_0, # of connection points: 2
#     Edge 142, Type (0, 1), BuildingBlock: XIVTED_clean_linker_0, # of connection points: 2
#     Edge 143, Type (0, 1), BuildingBlock: XIVTED_clean_linker_0, # of connection points: 2
#     Edge 144, Type (0, 1), BuildingBlock: XIVTED_clean_linker_0, # of connection points: 2
#     Edge 145, Type (0, 1), BuildingBlock: XIVTED_clean_linker_0, # of connection points: 2
#     Edge 146, Type (0, 1), BuildingBlock: XIVTED_clean_linker_0, # of connection points: 2
#     Edge 147, Type (0, 1), BuildingBlock: XIVTED_clean_linker_0, # of connection points: 2
#     Edge 148, Type (0, 1), BuildingBlock: XIVTED_clean_linker_0, # of connection points: 2
#     Edge 149, Type (0, 1), BuildingBlock: XIVTED_clean_linker_0, # of connection points: 2
#     Edge 150, Type (0, 1), BuildingBlock: XIVTED_clean_linker_0, # of connection points: 2
#     Edge 151, Type (0, 1), BuildingBlock: XIVTED_clean_linker_0, # of connection points: 2
# Relax obj value: 0.018
# Max RMSD: 0.150
# Mean RMSD: 0.098
data_MOF--net-tbo--node1-OLANEW_clean_sbu_2--node2-KUFVIS_clean_linker_0--edge1-XIVTED_clean_linker_0
_symmetry_space_group_name_H-M    P1
_symmetry_Int_Tables_number       1
_symmetry_cell_setting            triclinic
loop_
_symmetry_equiv_pos_as_xyz
'x, y, z'
_cell_length_a     76.471676
_cell_length_b     78.460974
_cell_length_c     75.662317
_cell_angle_alpha  97.800657
_cell_angle_beta   87.23924
_cell_angle_gamma 99.398222
loop_
_atom_site_label
_atom_site_type_symbol
_atom_site_fract_x
_atom_site_fract_y
_atom_site_fract_z
_atom_type_partial_charge
O0 O 0.20749 0.17593 0.17269 0.0
Cd1 Cd 0.19267 0.15991 0.19649 0.0
O2 O 0.18576 0.19034 0.16867 0.0
Cd3 Cd 0.16679 0.18263 0.18993 0.0
O4 O 0.14404 0.18868 0.20718 0.0
C5 C 0.13011 0.19077 0.19973 0.0
O6 O 0.1296 0.18817 0.18223 0.0
C7 C 0.20111 0.18654 0.16443 0.0
C8 C 0.2138 0.13901 0.21053 0.0
O9 O 0.20433 0.1331 0.19685 0.0
O10 O 0.21347 0.15481 0.21745 0.0
O11 O 0.883 0.18278 0.16622 0.0
Cd12 Cd 0.85723 0.1626 0.15412 0.0
O13 O 0.89586 0.16262 0.17545 0.0
Cd14 Cd 0.87336 0.14201 0.16892 0.0
O15 O 0.85111 0.12206 0.17464 0.0
C16 C 0.85409 0.1069 0.17629 0.0
O17 O 0.87029 0.1034 0.17339 0.0
C18 C 0.89598 0.17848 0.17352 0.0
C19 C 0.83936 0.17895 0.13174 0.0
O20 O 0.83635 0.1807 0.14864 0.0
O21 O 0.85063 0.16918 0.1253 0.0
O22 O 0.9183 0.83467 0.14812 0.0
Cd23 Cd 0.9406 0.85252 0.16784 0.0
O24 O 0.90108 0.85294 0.16014 0.0
Cd25 Cd 0.87673 0.86371 0.16768 0.0
O26 O 0.85809 0.87843 0.1834 0.0
C27 C 0.85455 0.89251 0.17893 0.0
O28 O 0.8617 0.89793 0.16414 0.0
C29 C 0.90313 0.83942 0.1494 0.0
C30 C 0.95695 0.83249 0.18775 0.0
O31 O 0.94154 0.83627 0.19226 0.0
O32 O 0.96471 0.83818 0.17382 0.0
O33 O 0.19682 0.91363 0.1509 0.0
Cd34 Cd 0.178 0.89077 0.1321 0.0
O35 O 0.18932 0.89921 0.17385 0.0
Cd36 Cd 0.17331 0.87571 0.16111 0.0
O37 O 0.15883 0.8514 0.16867 0.0
C38 C 0.14571 0.85322 0.17931 0.0
O39 O 0.14134 0.86883 0.1834 0.0
C40 C 0.19762 0.91249 0.16743 0.0
C41 C 0.1968 0.86583 0.11414 0.0
O42 O 0.19123 0.865 0.13028 0.0
O43 O 0.19355 0.87852 0.10645 0.0
O44 O 0.20788 0.87912 0.87421 0.0
Cd45 Cd 0.1868 0.85416 0.88241 0.0
O46 O 0.18755 0.89549 0.87179 0.0
Cd47 Cd 0.16527 0.87523 0.87642 0.0
O48 O 0.14149 0.85636 0.86958 0.0
C49 C 0.12994 0.86107 0.86055 0.0
O50 O 0.13251 0.87708 0.85652 0.0
C51 C 0.20374 0.89345 0.87102 0.0
C52 C 0.20253 0.83316 0.9019 0.0
O53 O 0.20388 0.83158 0.88483 0.0
O54 O 0.19371 0.84467 0.90984 0.0
O55 O 0.19569 0.1566 0.91577 0.0
Cd56 Cd 0.17818 0.13369 0.8957 0.0
O57 O 0.17863 0.17517 0.91078 0.0
Cd58 Cd 0.16846 0.19967 0.91007 0.0
O59 O 0.1518 0.21505 0.89795 0.0
C60 C 0.15828 0.22829 0.8904 0.0
O61 O 0.17548 0.23363 0.89067 0.0
C62 C 0.19182 0.17191 0.91863 0.0
C63 C 0.19941 0.11338 0.8737 0.0
O64 O 0.195 0.12706 0.86877 0.0
O65 O 0.19379 0.10931 0.88905 0.0
O66 O 0.90656 0.17801 0.92423 0.0
Cd67 Cd 0.92808 0.15985 0.91117 0.0
O68 O 0.88716 0.15437 0.92514 0.0
Cd69 Cd 0.86105 0.13851 0.92716 0.0
O70 O 0.83989 0.11746 0.91809 0.0
C71 C 0.82434 0.1201 0.91537 0.0
O72 O 0.82047 0.13592 0.91917 0.0
C73 C 0.89089 0.1709 0.92776 0.0
C74 C 0.94803 0.17695 0.88525 0.0
O75 O 0.93364 0.16653 0.88123 0.0
O76 O 0.95314 0.17888 0.90138 0.0
O77 O 0.87761 0.85475 0.84944 0.0
Cd78 Cd 0.85307 0.86766 0.86532 0.0
O79 O 0.88414 0.84308 0.87272 0.0
Cd80 Cd 0.86362 0.85171 0.89142 0.0
O81 O 0.84557 0.84868 0.91459 0.0
C82 C 0.8522 0.8467 0.92914 0.0
O83 O 0.86947 0.84758 0.9298 0.0
C84 C 0.88705 0.84567 0.85652 0.0
C85 C 0.83918 0.89165 0.84785 0.0
O86 O 0.85037 0.89689 0.86028 0.0
O87 O 0.83483 0.87519 0.84347 0.0
O88 O 0.20602 0.67448 0.67594 0.0
Cd89 Cd 0.18864 0.65771 0.69779 0.0
O90 O 0.18454 0.68811 0.66952 0.0
Cd91 Cd 0.16442 0.67884 0.68917 0.0
O92 O 0.14107 0.68169 0.70678 0.0
C93 C 0.12693 0.684 0.69986 0.0
O94 O 0.12662 0.68359 0.68246 0.0
C95 C 0.20035 0.68498 0.66699 0.0
C96 C 0.20842 0.63683 0.71347 0.0
O97 O 0.20032 0.63111 0.69889 0.0
O98 O 0.20725 0.65241 0.72058 0.0
O99 O 0.89799 0.67945 0.64192 0.0
Cd100 Cd 0.87632 0.66187 0.6214 0.0
O101 O 0.89259 0.65864 0.65884 0.0
Cd102 Cd 0.89184 0.64533 0.68259 0.0
O103 O 0.88309 0.62652 0.7013 0.0
C104 C 0.87991 0.63123 0.71772 0.0
O105 O 0.88263 0.64791 0.72385 0.0
C106 C 0.90061 0.67368 0.65631 0.0
C107 C 0.86097 0.68285 0.60175 0.0
O108 O 0.85592 0.68118 0.6179 0.0
O109 O 0.87321 0.67451 0.59476 0.0
O110 O 0.89184 0.33224 0.67232 0.0
Cd111 Cd 0.90929 0.35181 0.69555 0.0
O112 O 0.88388 0.35421 0.66106 0.0
Cd113 Cd 0.89286 0.37491 0.68252 0.0
O114 O 0.88267 0.39618 0.69955 0.0
C115 C 0.86651 0.39682 0.69687 0.0
O116 O 0.85812 0.38523 0.68469 0.0
C117 C 0.88398 0.33793 0.66041 0.0
C118 C 0.9314 0.33588 0.71446 0.0
O119 O 0.91548 0.33716 0.71994 0.0
O120 O 0.93681 0.34186 0.69987 0.0
O121 O 0.19273 0.41537 0.65412 0.0
Cd122 Cd 0.1742 0.39203 0.63589 0.0
O123 O 0.17857 0.40657 0.67805 0.0
Cd124 Cd 0.1606 0.38426 0.66546 0.0
O125 O 0.14626 0.36081 0.67505 0.0
C126 C 0.15483 0.35533 0.68651 0.0
O127 O 0.17107 0.36319 0.68993 0.0
C128 C 0.19049 0.41699 0.67097 0.0
C129 C 0.19488 0.36896 0.61765 0.0
O130 O 0.18946 0.36745 0.63374 0.0
O131 O 0.19041 0.38129 0.61022 0.0
O132 O 0.20901 0.42321 0.39802 0.0
Cd133 Cd 0.19423 0.40965 0.42319 0.0
O134 O 0.18319 0.4168 0.38552 0.0
Cd135 Cd 0.16399 0.4126 0.36423 0.0
O136 O 0.14209 0.39741 0.34866 0.0
C137 C 0.135 0.38356 0.35485 0.0
O138 O 0.1411 0.37997 0.36963 0.0
C139 C 0.19947 0.42352 0.3848 0.0
C140 C 0.20982 0.38229 0.43212 0.0
O141 O 0.19785 0.37953 0.42032 0.0
O142 O 0.21452 0.39797 0.4395 0.0
O143 O 0.20091 0.67032 0.40704 0.0
Cd144 Cd 0.18148 0.65768 0.38214 0.0
O145 O 0.18169 0.6866 0.41967 0.0
Cd146 Cd 0.16412 0.68194 0.39687 0.0
O147 O 0.14895 0.68803 0.37529 0.0
C148 C 0.15245 0.70355 0.37147 0.0
O149 O 0.16477 0.71456 0.38038 0.0
C150 C 0.19633 0.68094 0.42001 0.0
C151 C 0.19595 0.63331 0.35774 0.0
O152 O 0.19778 0.64937 0.35533 0.0
O153 O 0.1874 0.62876 0.37177 0.0
O154 O 0.86724 0.66971 0.35827 0.0
Cd155 Cd 0.87855 0.64514 0.34067 0.0
O156 O 0.87897 0.6602 0.37988 0.0
Cd157 Cd 0.88643 0.654 0.40554 0.0
O158 O 0.88109 0.62677 0.39392 0.0
C159 C 0.88946 0.62294 0.37936 0.0
O160 O 0.90269 0.63437 0.37441 0.0
C161 C 0.86996 0.67083 0.37484 0.0
C162 C 0.91004 0.65567 0.32254 0.0
O163 O 0.89506 0.65372 0.31499 0.0
O164 O 0.91012 0.65256 0.33873 0.0
O165 O 0.88146 0.36311 0.35088 0.0
Cd166 Cd 0.85689 0.37561 0.36714 0.0
O167 O 0.887 0.34787 0.37187 0.0
Cd168 Cd 0.86608 0.35389 0.39149 0.0
O169 O 0.84804 0.34802 0.41417 0.0
C170 C 0.85463 0.34457 0.42815 0.0
O171 O 0.87192 0.34555 0.42874 0.0
C172 C 0.89047 0.35275 0.35653 0.0
C173 C 0.84315 0.39926 0.34898 0.0
O174 O 0.85479 0.40466 0.36096 0.0
O175 O 0.83814 0.38279 0.34552 0.0
O176 O 0.70305 0.14748 0.66111 0.0
Cd177 Cd 0.68773 0.1251 0.67884 0.0
O178 O 0.68319 0.16379 0.67119 0.0
Cd179 Cd 0.66749 0.18516 0.67464 0.0
O180 O 0.64821 0.2017 0.68629 0.0
C181 C 0.63239 0.19951 0.6809 0.0
O182 O 0.62759 0.18744 0.66747 0.0
C183 C 0.69672 0.16153 0.6612 0.0
C184 C 0.70722 0.11111 0.70221 0.0
O185 O 0.70611 0.10479 0.68568 0.0
O186 O 0.69974 0.12446 0.70752 0.0
O187 O 0.39235 0.18726 0.63941 0.0
Cd188 Cd 0.37094 0.1676 0.62002 0.0
O189 O 0.38865 0.16817 0.65829 0.0
Cd190 Cd 0.39118 0.15445 0.68122 0.0
O191 O 0.38394 0.13366 0.69814 0.0
C192 C 0.38342 0.13658 0.71508 0.0
O193 O 0.38805 0.15259 0.7229 0.0
C194 C 0.39618 0.18286 0.65414 0.0
C195 C 0.35007 0.1853 0.60191 0.0
O196 O 0.3451 0.18067 0.61721 0.0
O197 O 0.36493 0.18162 0.59522 0.0
O198 O 0.43093 0.84041 0.64783 0.0
Cd199 Cd 0.45579 0.85825 0.66447 0.0
O200 O 0.41512 0.85949 0.66107 0.0
Cd201 Cd 0.39302 0.87399 0.66861 0.0
O202 O 0.37765 0.89337 0.68244 0.0
C203 C 0.36104 0.88993 0.68546 0.0
O204 O 0.35259 0.87434 0.67972 0.0
C205 C 0.41601 0.84568 0.65028 0.0
C206 C 0.47804 0.84062 0.68106 0.0
O207 O 0.46308 0.8435 0.68819 0.0
O208 O 0.48236 0.84564 0.66579 0.0
O209 O 0.75285 0.94144 0.63179 0.0
Cd210 Cd 0.7655 0.93956 0.60161 0.0
O211 O 0.74436 0.91323 0.63169 0.0
Cd212 Cd 0.73149 0.89092 0.64465 0.0
O213 O 0.71766 0.87422 0.6635 0.0
C214 C 0.70731 0.88095 0.67506 0.0
O215 O 0.7053 0.89724 0.67486 0.0
C216 C 0.74598 0.92867 0.63986 0.0
C217 C 0.7723 0.90637 0.58881 0.0
O218 O 0.75858 0.91181 0.58398 0.0
O219 O 0.78274 0.91655 0.59979 0.0
O220 O 0.7002 0.88931 0.38343 0.0
Cd221 Cd 0.68497 0.8708 0.40483 0.0
O222 O 0.67372 0.89498 0.37949 0.0
Cd223 Cd 0.6534 0.90249 0.36422 0.0
O224 O 0.62928 0.88998 0.35064 0.0
C225 C 0.62597 0.89094 0.33454 0.0
O226 O 0.63704 0.9012 0.3253 0.0
C227 C 0.69013 0.89682 0.37526 0.0
C228 C 0.70484 0.8472 0.41512 0.0
O229 O 0.69695 0.84408 0.4002 0.0
O230 O 0.70356 0.86155 0.42506 0.0
O231 O 0.68341 0.14596 0.41915 0.0
Cd232 Cd 0.6666 0.12377 0.39785 0.0
O233 O 0.67239 0.16619 0.40831 0.0
Cd234 Cd 0.66448 0.19035 0.40184 0.0
O235 O 0.64946 0.20532 0.38718 0.0
C236 C 0.65687 0.21615 0.37697 0.0
O237 O 0.67426 0.21922 0.37567 0.0
C238 C 0.68223 0.16199 0.41962 0.0
C239 C 0.6877 0.10634 0.37275 0.0
O240 O 0.68192 0.12003 0.36954 0.0
O241 O 0.6837 0.10102 0.38794 0.0
O242 O 0.33975 0.20962 0.34987 0.0
Cd243 Cd 0.35606 0.20329 0.32206 0.0
O244 O 0.35961 0.19957 0.36363 0.0
Cd245 Cd 0.37066 0.18818 0.3845 0.0
O246 O 0.37366 0.16118 0.37583 0.0
C247 C 0.38228 0.15885 0.36115 0.0
O248 O 0.39066 0.17259 0.35439 0.0
C249 C 0.34549 0.20625 0.36428 0.0
C250 C 0.39215 0.21313 0.32756 0.0
O251 O 0.38222 0.22425 0.32519 0.0
O252 O 0.38507 0.19711 0.32712 0.0
O253 O 0.38494 0.87235 0.34743 0.0
Cd254 Cd 0.3623 0.88724 0.36437 0.0
O255 O 0.39029 0.85668 0.36815 0.0
Cd256 Cd 0.371 0.86382 0.38912 0.0
O257 O 0.35487 0.85693 0.41272 0.0
C258 C 0.36272 0.85411 0.42624 0.0
O259 O 0.38014 0.85648 0.42594 0.0
C260 C 0.39336 0.86129 0.35266 0.0
C261 C 0.35006 0.91118 0.3454 0.0
O262 O 0.36212 0.91631 0.35699 0.0
O263 O 0.34386 0.89488 0.34279 0.0
O264 O 0.70306 0.67018 0.18337 0.0
Cd265 Cd 0.68895 0.65418 0.20756 0.0
O266 O 0.68085 0.6838 0.17869 0.0
Cd267 Cd 0.66102 0.67661 0.19944 0.0
O268 O 0.6372 0.68364 0.21433 0.0
C269 C 0.62419 0.68578 0.20543 0.0
O270 O 0.62516 0.68264 0.18793 0.0
C271 C 0.69639 0.68035 0.17476 0.0
C272 C 0.71008 0.6327 0.2208 0.0
O273 O 0.70023 0.62707 0.20734 0.0
O274 O 0.71019 0.64853 0.22785 0.0
O275 O 0.37412 0.68089 0.15749 0.0
Cd276 Cd 0.35127 0.65869 0.1427 0.0
O277 O 0.39644 0.66623 0.15268 0.0
Cd278 Cd 0.37797 0.64213 0.14588 0.0
O279 O 0.36122 0.62158 0.15854 0.0
C280 C 0.36247 0.62359 0.17542 0.0
O281 O 0.37325 0.6371 0.183 0.0
C282 C 0.39056 0.68025 0.15845 0.0
C283 C 0.33097 0.67439 0.12179 0.0
O284 O 0.3275 0.6741 0.1385 0.0
O285 O 0.34387 0.66698 0.11482 0.0
O286 O 0.41409 0.34532 0.15371 0.0
Cd287 Cd 0.43542 0.36359 0.1744 0.0
O288 O 0.3977 0.36584 0.1599 0.0
Cd289 Cd 0.37443 0.3791 0.1612 0.0
O290 O 0.3559 0.3972 0.17041 0.0
C291 C 0.33977 0.39187 0.17441 0.0
O292 O 0.33388 0.37504 0.17229 0.0
C293 C 0.39988 0.35113 0.15143 0.0
C294 C 0.45257 0.34547 0.19588 0.0
O295 O 0.43693 0.3489 0.19994 0.0
O296 O 0.46006 0.35036 0.18148 0.0
O297 O 0.68971 0.40578 0.15197 0.0
Cd298 Cd 0.67509 0.382 0.131 0.0
O299 O 0.6857 0.38868 0.17312 0.0
Cd300 Cd 0.67256 0.36435 0.15885 0.0
O301 O 0.65973 0.33886 0.16499 0.0
C302 C 0.64293 0.33541 0.16494 0.0
O303 O 0.63407 0.34652 0.15925 0.0
C304 C 0.6914 0.40343 0.16805 0.0
C305 C 0.69974 0.36277 0.11345 0.0
O306 O 0.6944 0.37476 0.10616 0.0
O307 O 0.69334 0.35985 0.1289 0.0
O308 O 0.70771 0.3842 0.88915 0.0
Cd309 Cd 0.69069 0.36198 0.9056 0.0
O310 O 0.68357 0.38674 0.87608 0.0
Cd311 Cd 0.66595 0.39355 0.85706 0.0
O312 O 0.64233 0.38812 0.84072 0.0
C313 C 0.64333 0.38779 0.82387 0.0
O314 O 0.65892 0.39183 0.8161 0.0
C315 C 0.70017 0.3913 0.87812 0.0
C316 C 0.71255 0.34218 0.9196 0.0
O317 O 0.70588 0.33725 0.90418 0.0
O318 O 0.70888 0.3564 0.92831 0.0
O319 O 0.68393 0.65301 0.92421 0.0
Cd320 Cd 0.66757 0.63128 0.90216 0.0
O321 O 0.67905 0.67361 0.90922 0.0
Cd322 Cd 0.67901 0.69891 0.89975 0.0
O323 O 0.67259 0.71824 0.88359 0.0
C324 C 0.67726 0.71727 0.86715 0.0
O325 O 0.68648 0.70507 0.8604 0.0
C326 C 0.68576 0.66914 0.92266 0.0
C327 C 0.68971 0.61189 0.88038 0.0
O328 O 0.68579 0.62599 0.87597 0.0
O329 O 0.6832 0.60698 0.89513 0.0
O330 O 0.41798 0.73976 0.90703 0.0
Cd331 Cd 0.44087 0.73134 0.88564 0.0
O332 O 0.40666 0.71325 0.89653 0.0
Cd333 Cd 0.38878 0.68847 0.89219 0.0
O334 O 0.37789 0.66354 0.87732 0.0
C335 C 0.3834 0.66083 0.86122 0.0
O336 O 0.39499 0.67292 0.85485 0.0
C337 C 0.40516 0.7272 0.90681 0.0
C338 C 0.4681 0.7571 0.87693 0.0
O339 O 0.45321 0.7545 0.8691 0.0
O340 O 0.46978 0.74801 0.88943 0.0
O341 O 0.38939 0.37189 0.84338 0.0
Cd342 Cd 0.36653 0.38637 0.86049 0.0
O343 O 0.39518 0.35675 0.86435 0.0
Cd344 Cd 0.37527 0.3641 0.88458 0.0
O345 O 0.35703 0.35887 0.90727 0.0
C346 C 0.36335 0.35541 0.92138 0.0
O347 O 0.38058 0.35604 0.92215 0.0
C348 C 0.39812 0.36116 0.84876 0.0
C349 C 0.35452 0.4112 0.84256 0.0
O350 O 0.36635 0.41589 0.85446 0.0
O351 O 0.34848 0.39491 0.83914 0.0
H352 H 0.2744 0.27443 0.98176 0.0
H353 H 0.29671 0.29747 0.03193 0.0
H354 H 0.26264 0.24723 0.02714 0.0
H355 H 0.2593 0.25273 0.05605 0.0
H356 H 0.29378 0.26517 0.10048 0.0
H357 H 0.30923 0.28746 0.05253 0.0
C358 C 0.27574 0.2741 0.99591 0.0
C359 C 0.26667 0.25993 0.0037 0.0
C360 C 0.28685 0.28751 0.00597 0.0
C361 C 0.28865 0.28666 0.02424 0.0
C362 C 0.28018 0.27213 0.0324 0.0
C363 C 0.26903 0.25885 0.02178 0.0
C364 C 0.28364 0.27048 0.05154 0.0
C365 C 0.27165 0.25956 0.06162 0.0
C366 C 0.27558 0.25707 0.07899 0.0
C367 C 0.29111 0.26641 0.0868 0.0
C368 C 0.30293 0.27777 0.07746 0.0
C369 C 0.29935 0.27944 0.0598 0.0
H370 H 0.77772 0.26819 0.07752 0.0
H371 H 0.79824 0.24051 0.03047 0.0
H372 H 0.77936 0.28897 0.02799 0.0
H373 H 0.77067 0.27715 0.00181 0.0
H374 H 0.79721 0.25703 0.95437 0.0
H375 H 0.81104 0.24531 0.00513 0.0
C376 C 0.7813 0.2674 0.06344 0.0
C377 C 0.77712 0.27995 0.05352 0.0
C378 C 0.78977 0.25362 0.05538 0.0
C379 C 0.79257 0.25162 0.03672 0.0
C380 C 0.78828 0.26395 0.02633 0.0
C381 C 0.7814 0.27852 0.03521 0.0
C382 C 0.79074 0.26176 0.00634 0.0
C383 C 0.78085 0.26999 0.99577 0.0
C384 C 0.78366 0.26906 0.97721 0.0
C385 C 0.79535 0.25828 0.96874 0.0
C386 C 0.80465 0.24911 0.97885 0.0
C387 C 0.80278 0.25145 0.99756 0.0
H388 H 0.7633 0.77017 0.9925 0.0
H389 H 0.75526 0.73989 0.036 0.0
H390 H 0.78904 0.79019 0.04163 0.0
H391 H 0.8035 0.77855 0.05945 0.0
H392 H 0.79096 0.75587 0.10761 0.0
H393 H 0.75362 0.74445 0.06544 0.0
C394 C 0.76545 0.769 0.00631 0.0
C395 C 0.77742 0.78173 0.01619 0.0
C396 C 0.75704 0.75418 0.01356 0.0
C397 C 0.76114 0.75182 0.03092 0.0
C398 C 0.77289 0.76461 0.04144 0.0
C399 C 0.78052 0.77977 0.0339 0.0
C400 C 0.77773 0.76202 0.05988 0.0
C401 C 0.79405 0.77053 0.06716 0.0
C402 C 0.7987 0.76862 0.0844 0.0
C403 C 0.78745 0.75724 0.09422 0.0
C404 C 0.77134 0.74822 0.08731 0.0
C405 C 0.76636 0.751 0.07035 0.0
H406 H 0.26097 0.75975 0.07148 0.0
H407 H 0.28461 0.73653 0.02348 0.0
H408 H 0.26168 0.78307 0.02338 0.0
H409 H 0.25369 0.77047 0.9962 0.0
H410 H 0.2858 0.75724 0.94982 0.0
H411 H 0.30063 0.7477 0.00098 0.0
C412 C 0.26478 0.75991 0.05754 0.0
C413 C 0.26001 0.77282 0.04841 0.0
C414 C 0.27433 0.74716 0.04887 0.0
C415 C 0.27779 0.74663 0.03036 0.0
C416 C 0.27277 0.75921 0.02076 0.0
C417 C 0.26443 0.77255 0.03017 0.0
C418 C 0.27638 0.75866 0.00105 0.0
C419 C 0.26509 0.76514 0.99023 0.0
C420 C 0.26864 0.76525 0.97181 0.0
C421 C 0.28308 0.75771 0.96404 0.0
C422 C 0.29458 0.75136 0.9745 0.0
C423 C 0.29132 0.7521 0.99297 0.0
H424 H 0.07105 0.27696 0.28027 0.0
H425 H 0.02186 0.25236 0.25686 0.0
H426 H 0.02662 0.30422 0.28618 0.0
H427 H 0.99803 0.29647 0.29168 0.0
H428 H 0.95246 0.27915 0.25937 0.0
H429 H 0.00157 0.26164 0.24267 0.0
C430 C 0.0572 0.27711 0.27794 0.0
C431 C 0.0496 0.29172 0.28502 0.0
C432 C 0.04741 0.26312 0.2673 0.0
C433 C 0.02951 0.26364 0.26428 0.0
C434 C 0.02154 0.27837 0.27105 0.0
C435 C 0.03202 0.29253 0.28114 0.0
C436 C 0.00243 0.27894 0.26766 0.0
C437 C 0.99224 0.28907 0.27967 0.0
C438 C 0.97442 0.28974 0.27638 0.0
C439 C 0.96645 0.27947 0.26138 0.0
C440 C 0.97606 0.26888 0.24954 0.0
C441 C 0.9941 0.26914 0.25245 0.0
H442 H 0.76418 0.94018 0.26962 0.0
H443 H 0.78486 0.9877 0.24909 0.0
H444 H 0.73766 0.98453 0.28295 0.0
H445 H 0.74704 0.01229 0.29068 0.0
H446 H 0.76252 0.05761 0.26433 0.0
H447 H 0.77358 0.00818 0.23897 0.0
C448 C 0.76317 0.95359 0.26853 0.0
C449 C 0.74987 0.96151 0.2783 0.0
C450 C 0.7753 0.96279 0.25738 0.0
C451 C 0.77458 0.98044 0.25666 0.0
C452 C 0.76115 0.98873 0.26593 0.0
C453 C 0.74859 0.97885 0.27636 0.0
C454 C 0.76063 0.00769 0.26508 0.0
C455 C 0.75298 0.01802 0.27917 0.0
C456 C 0.75292 0.03586 0.27863 0.0
C457 C 0.76148 0.04366 0.26424 0.0
C458 C 0.7694 0.0338 0.25016 0.0
C459 C 0.76832 0.01579 0.25039 0.0
H460 H 0.111 0.75736 0.26525 0.0
H461 H 0.06087 0.73281 0.28535 0.0
H462 H 0.06351 0.75842 0.23817 0.0
H463 H 0.03915 0.76666 0.24984 0.0
H464 H 0.98823 0.73728 0.2599 0.0
H465 H 0.03512 0.71856 0.27258 0.0
C466 C 0.09677 0.75369 0.26416 0.0
C467 C 0.08809 0.75972 0.25091 0.0
C468 C 0.08705 0.7434 0.27629 0.0
C469 C 0.06842 0.73964 0.27524 0.0
C470 C 0.05956 0.74541 0.26181 0.0
C471 C 0.06979 0.75461 0.24922 0.0
C472 C 0.03972 0.74296 0.26134 0.0
C473 C 0.03129 0.75532 0.25446 0.0
C474 C 0.01277 0.75314 0.25322 0.0
C475 C 0.00256 0.73876 0.25986 0.0
C476 C 0.01055 0.72635 0.26686 0.0
C477 C 0.0291 0.72845 0.26757 0.0
H478 H 0.30869 0.09018 0.27334 0.0
H479 H 0.27481 0.04216 0.25669 0.0
H480 H 0.32479 0.04218 0.28125 0.0
H481 H 0.31255 0.01685 0.28802 0.0
H482 H 0.28557 0.96892 0.26105 0.0
H483 H 0.27917 0.01686 0.24336 0.0
C484 C 0.30605 0.07607 0.27188 0.0
C485 C 0.318 0.06705 0.27876 0.0
C486 C 0.29059 0.06713 0.26356 0.0
C487 C 0.28726 0.04882 0.26217 0.0
C488 C 0.29951 0.03931 0.2683 0.0
C489 C 0.31492 0.04879 0.27656 0.0
C490 C 0.29614 0.01968 0.26617 0.0
C491 C 0.30396 0.01016 0.2775 0.0
C492 C 0.30083 0.99179 0.27525 0.0
C493 C 0.28879 0.983 0.2624 0.0
C494 C 0.28077 0.99206 0.2512 0.0
C495 C 0.28497 0.01023 0.25268 0.0
H496 H 0.06219 0.75779 0.7871 0.0
H497 H 0.01357 0.73456 0.76196 0.0
H498 H 0.01753 0.78454 0.7951 0.0
H499 H 0.98903 0.77882 0.79741 0.0
H500 H 0.94539 0.76428 0.7622 0.0
H501 H 0.9934 0.74374 0.74862 0.0
C502 C 0.0483 0.75797 0.78498 0.0
C503 C 0.04048 0.77203 0.79324 0.0
C504 C 0.03881 0.74474 0.77323 0.0
C505 C 0.02092 0.74539 0.77028 0.0
C506 C 0.01275 0.75973 0.77795 0.0
C507 C 0.02296 0.77311 0.78929 0.0
C508 C 0.99391 0.76095 0.77375 0.0
C509 C 0.98371 0.77167 0.7851 0.0
C510 C 0.9665 0.77351 0.78064 0.0
C511 C 0.95895 0.76363 0.76523 0.0
C512 C 0.96846 0.75244 0.75408 0.0
C513 C 0.986 0.75157 0.7581 0.0
H514 H 0.29196 0.94943 0.78556 0.0
H515 H 0.30944 0.99651 0.76241 0.0
H516 H 0.28238 0.99825 0.81391 0.0
H517 H 0.27139 0.01959 0.80347 0.0
H518 H 0.29823 0.06951 0.7925 0.0
H519 H 0.32161 0.02388 0.7744 0.0
C520 C 0.2932 0.96347 0.78638 0.0
C521 C 0.28574 0.97284 0.80113 0.0
C522 C 0.30206 0.97195 0.77254 0.0
C523 C 0.30325 0.99014 0.77347 0.0
C524 C 0.29591 0.99991 0.78821 0.0
C525 C 0.28751 0.99104 0.80212 0.0
C526 C 0.29656 0.01922 0.78906 0.0
C527 C 0.28284 0.02735 0.79795 0.0
C528 C 0.28347 0.04547 0.79949 0.0
C529 C 0.29773 0.05553 0.7915 0.0
C530 C 0.31133 0.0478 0.78216 0.0
C531 C 0.31076 0.02967 0.7811 0.0
H532 H 0.11095 0.28268 0.78984 0.0
H533 H 0.06164 0.2694 0.8178 0.0
H534 H 0.06219 0.28701 0.76621 0.0
H535 H 0.03594 0.29418 0.77649 0.0
H536 H 0.98772 0.2639 0.79387 0.0
H537 H 0.03772 0.25186 0.80691 0.0
C538 C 0.09665 0.28172 0.79065 0.0
C539 C 0.08774 0.28649 0.77671 0.0
C540 C 0.08731 0.2753 0.8054 0.0
C541 C 0.06873 0.27355 0.806 0.0
C542 C 0.05933 0.27722 0.7917 0.0
C543 C 0.06908 0.28385 0.77718 0.0
C544 C 0.03945 0.27366 0.79188 0.0
C545 C 0.02937 0.28345 0.78319 0.0
C546 C 0.01068 0.2798 0.78348 0.0
C547 C 0.00207 0.26662 0.7932 0.0
C548 C 0.01184 0.257 0.80221 0.0
C549 C 0.03038 0.26016 0.80089 0.0
H550 H 0.75746 0.06428 0.80969 0.0
H551 H 0.75126 0.01969 0.76982 0.0
H552 H 0.76451 0.01451 0.82339 0.0
H553 H 0.77934 0.99395 0.80867 0.0
H554 H 0.76536 0.94846 0.77069 0.0
H555 H 0.73889 0.99243 0.7705 0.0
C556 C 0.75706 0.05039 0.80602 0.0
C557 C 0.76161 0.04029 0.81857 0.0
C558 C 0.75289 0.04296 0.78851 0.0
C559 C 0.75382 0.0252 0.78351 0.0
C560 C 0.75802 0.01462 0.79591 0.0
C561 C 0.76165 0.02237 0.81352 0.0
C562 C 0.75908 0.99571 0.7902 0.0
C563 C 0.77102 0.98708 0.79796 0.0
C564 C 0.77293 0.96975 0.79142 0.0
C565 C 0.7634 0.96144 0.77633 0.0
C566 C 0.75179 0.96991 0.76814 0.0
C567 C 0.74887 0.98649 0.77597 0.0
H568 H 0.28442 0.76471 0.48759 0.0
H569 H 0.27482 0.73902 0.5343 0.0
H570 H 0.30596 0.79063 0.53716 0.0
H571 H 0.31912 0.78169 0.55873 0.0
H572 H 0.30136 0.76394 0.60861 0.0
H573 H 0.26911 0.74741 0.56275 0.0
C574 C 0.28618 0.7648 0.50174 0.0
C575 C 0.29641 0.77917 0.5114 0.0
C576 C 0.27813 0.75053 0.51005 0.0
C577 C 0.28062 0.75047 0.52831 0.0
C578 C 0.29089 0.76476 0.53849 0.0
C579 C 0.29856 0.77917 0.52976 0.0
C580 C 0.29371 0.7646 0.55804 0.0
C581 C 0.30908 0.77422 0.56636 0.0
C582 C 0.31167 0.77444 0.58468 0.0
C583 C 0.29923 0.76414 0.59458 0.0
C584 C 0.28409 0.75405 0.58663 0.0
C585 C 0.28116 0.75475 0.56855 0.0
H586 H 0.81032 0.78285 0.55516 0.0
H587 H 0.80885 0.74599 0.50743 0.0
H588 H 0.79326 0.79595 0.50632 0.0
H589 H 0.77469 0.78051 0.48658 0.0
H590 H 0.78616 0.75475 0.43458 0.0
H591 H 0.81734 0.75048 0.47901 0.0
C592 C 0.80769 0.77936 0.5411 0.0
C593 C 0.80144 0.79136 0.53178 0.0
C594 C 0.81064 0.76297 0.53245 0.0
C595 C 0.80678 0.75857 0.51421 0.0
C596 C 0.80033 0.77031 0.50463 0.0
C597 C 0.79794 0.78671 0.51357 0.0
C598 C 0.79618 0.76565 0.48528 0.0
C599 C 0.78251 0.77232 0.47798 0.0
C600 C 0.77915 0.76902 0.45962 0.0
C601 C 0.78908 0.75801 0.44862 0.0
C602 C 0.80265 0.75101 0.45561 0.0
C603 C 0.80625 0.7551 0.47386 0.0
H604 H 0.76285 0.26441 0.48685 0.0
H605 H 0.75183 0.23483 0.53074 0.0
H606 H 0.78789 0.28381 0.5365 0.0
H607 H 0.80005 0.27192 0.55619 0.0
H608 H 0.78171 0.25241 0.60509 0.0
H609 H 0.74836 0.24034 0.5598 0.0
C610 C 0.76455 0.2632 0.50074 0.0
C611 C 0.77666 0.2756 0.51082 0.0
C612 C 0.75526 0.24873 0.50799 0.0
C613 C 0.75854 0.24644 0.52559 0.0
C614 C 0.77037 0.25894 0.53634 0.0
C615 C 0.77916 0.27364 0.52868 0.0
C616 C 0.77363 0.25669 0.55535 0.0
C617 C 0.78957 0.26481 0.56367 0.0
C618 C 0.79246 0.26367 0.58166 0.0
C619 C 0.77957 0.25351 0.59126 0.0
C620 C 0.76392 0.24469 0.58324 0.0
C621 C 0.76089 0.24656 0.56545 0.0
H622 H 0.27086 0.26997 0.56901 0.0
H623 H 0.26458 0.29713 0.52528 0.0
H624 H 0.28459 0.24825 0.5161 0.0
H625 H 0.29075 0.25391 0.48943 0.0
H626 H 0.27243 0.27631 0.44664 0.0
H627 H 0.25442 0.29131 0.49968 0.0
C628 C 0.27181 0.27067 0.5548 0.0
C629 C 0.27972 0.25829 0.54331 0.0
C630 C 0.2653 0.2841 0.54802 0.0
C631 C 0.26765 0.2855 0.52976 0.0
C632 C 0.27368 0.27233 0.51758 0.0
C633 C 0.2798 0.25871 0.52473 0.0
C634 C 0.27322 0.27296 0.49772 0.0
C635 C 0.2827 0.26262 0.48519 0.0
C636 C 0.28167 0.26315 0.46676 0.0
C637 C 0.27227 0.2751 0.46075 0.0
C638 C 0.26323 0.28588 0.47285 0.0
C639 C 0.26295 0.28401 0.49101 0.0
H640 H 0.78573 0.45013 0.78871 0.0
H641 H 0.77179 0.49696 0.81778 0.0
H642 H 0.80483 0.4989 0.76972 0.0
H643 H 0.8148 0.52541 0.78259 0.0
H644 H 0.79056 0.57047 0.80027 0.0
H645 H 0.76336 0.52011 0.80936 0.0
C646 C 0.78648 0.46418 0.79022 0.0
C647 C 0.79672 0.47373 0.778 0.0
C648 C 0.77725 0.47249 0.80438 0.0
C649 C 0.77839 0.49069 0.80633 0.0
C650 C 0.78832 0.50067 0.79397 0.0
C651 C 0.79745 0.49187 0.77977 0.0
C652 C 0.78904 0.52009 0.79583 0.0
C653 C 0.80359 0.5309 0.78883 0.0
C654 C 0.80403 0.549 0.79 0.0
C655 C 0.79017 0.5565 0.79909 0.0
C656 C 0.77571 0.54616 0.80651 0.0
C657 C 0.77506 0.528 0.80447 0.0
H658 H 0.30243 0.58939 0.77606 0.0
H659 H 0.27113 0.53999 0.75938 0.0
H660 H 0.32198 0.5429 0.78345 0.0
H661 H 0.31201 0.51638 0.78876 0.0
H662 H 0.28693 0.46809 0.76066 0.0
H663 H 0.27707 0.51584 0.74523 0.0
C664 C 0.30064 0.57529 0.77457 0.0
C665 C 0.31341 0.56708 0.7812 0.0
C666 C 0.28552 0.56554 0.76635 0.0
C667 C 0.28336 0.54726 0.76479 0.0
C668 C 0.29652 0.53856 0.77054 0.0
C669 C 0.31151 0.54884 0.7789 0.0
C670 C 0.29454 0.51894 0.76768 0.0
C671 C 0.30343 0.50958 0.77827 0.0
C672 C 0.30139 0.49123 0.77529 0.0
C673 C 0.28938 0.48221 0.76249 0.0
C674 C 0.28042 0.49111 0.75197 0.0
C675 C 0.28358 0.50933 0.7541 0.0
H676 H 0.26337 0.45336 0.26596 0.0
H677 H 0.25239 0.5034 0.28933 0.0
H678 H 0.2759 0.49679 0.23623 0.0
H679 H 0.28866 0.52395 0.24407 0.0
H680 H 0.27073 0.57231 0.26221 0.0
H681 H 0.24263 0.52527 0.27946 0.0
C682 C 0.26344 0.46701 0.26489 0.0
C683 C 0.27088 0.47399 0.2496 0.0
C684 C 0.25631 0.4775 0.27897 0.0
C685 C 0.25699 0.49532 0.27788 0.0
C686 C 0.2642 0.50272 0.26261 0.0
C687 C 0.27082 0.49172 0.24839 0.0
C688 C 0.26545 0.52194 0.26188 0.0
C689 C 0.27896 0.53082 0.25157 0.0
C690 C 0.28064 0.54887 0.25138 0.0
C691 C 0.26905 0.5583 0.26199 0.0
C692 C 0.25551 0.54992 0.27243 0.0
C693 C 0.25356 0.53172 0.27198 0.0
H694 H 0.80128 0.57774 0.28482 0.0
H695 H 0.76555 0.53202 0.26459 0.0
H696 H 0.81382 0.52766 0.28993 0.0
H697 H 0.8005 0.50287 0.29555 0.0
H698 H 0.7714 0.4567 0.26759 0.0
H699 H 0.76735 0.50603 0.25165 0.0
C700 C 0.79782 0.56369 0.28244 0.0
C701 C 0.80857 0.55335 0.28918 0.0
C702 C 0.7825 0.55601 0.27302 0.0
C703 C 0.778 0.5377 0.2707 0.0
C704 C 0.78907 0.52695 0.27674 0.0
C705 C 0.80457 0.53518 0.28561 0.0
C706 C 0.78443 0.50734 0.27412 0.0
C707 C 0.79163 0.49693 0.28499 0.0
C708 C 0.78767 0.47861 0.28222 0.0
C709 C 0.77522 0.47073 0.2694 0.0
C710 C 0.76769 0.48066 0.25869 0.0
C711 C 0.77277 0.49878 0.26064 0.0
H712 H 0.45026 0.27888 0.7503 0.0
H713 H 0.4991 0.30414 0.77399 0.0
H714 H 0.49942 0.2652 0.7278 0.0
H715 H 0.52455 0.26144 0.73897 0.0
H716 H 0.57367 0.2956 0.7494 0.0
H717 H 0.52491 0.31506 0.76232 0.0
C718 C 0.4646 0.28048 0.75051 0.0
C719 C 0.47378 0.27011 0.73796 0.0
C720 C 0.47371 0.29299 0.76329 0.0
C721 C 0.49229 0.29484 0.76371 0.0
C722 C 0.50197 0.28506 0.75083 0.0
C723 C 0.49243 0.27278 0.73794 0.0
C724 C 0.52193 0.28787 0.75058 0.0
C725 C 0.53147 0.27431 0.74358 0.0
C726 C 0.55012 0.27708 0.74297 0.0
C727 C 0.55929 0.29343 0.74969 0.0
C728 C 0.55025 0.30698 0.75701 0.0
C729 C 0.53164 0.30422 0.75723 0.0
H730 H 0.65731 0.79901 0.77236 0.0
H731 H 0.60519 0.78263 0.79393 0.0
H732 H 0.61263 0.819 0.75547 0.0
H733 H 0.58426 0.80418 0.74851 0.0
H734 H 0.53701 0.80567 0.78132 0.0
H735 H 0.58559 0.80125 0.80499 0.0
C736 C 0.64316 0.79926 0.77282 0.0
C737 C 0.6362 0.80981 0.76222 0.0
C738 C 0.63209 0.78971 0.78463 0.0
C739 C 0.61382 0.79048 0.78534 0.0
C740 C 0.60659 0.80107 0.77494 0.0
C741 C 0.61795 0.81067 0.76343 0.0
C742 C 0.58732 0.8025 0.77654 0.0
C743 C 0.57775 0.80423 0.76154 0.0
C744 C 0.55957 0.80545 0.76319 0.0
C745 C 0.55104 0.80491 0.77999 0.0
C746 C 0.56024 0.8031 0.79503 0.0
C747 C 0.57839 0.80212 0.79324 0.0
H748 H 0.44478 0.78259 0.25058 0.0
H749 H 0.49178 0.79799 0.2809 0.0
H750 H 0.49133 0.75965 0.23426 0.0
H751 H 0.51295 0.75149 0.24875 0.0
H752 H 0.56319 0.77788 0.26879 0.0
H753 H 0.51947 0.80581 0.27128 0.0
C754 C 0.45845 0.78143 0.25251 0.0
C755 C 0.46673 0.76932 0.241 0.0
C756 C 0.46742 0.79178 0.26689 0.0
C757 C 0.48512 0.79029 0.26947 0.0
C758 C 0.49422 0.77913 0.25748 0.0
C759 C 0.48475 0.76858 0.24335 0.0
C760 C 0.5135 0.77863 0.25989 0.0
C761 C 0.52103 0.76331 0.25472 0.0
C762 C 0.53901 0.76297 0.25772 0.0
C763 C 0.54933 0.77792 0.26639 0.0
C764 C 0.5422 0.79322 0.27144 0.0
C765 C 0.52455 0.79368 0.26772 0.0
H766 H 0.60838 0.26528 0.27127 0.0
H767 H 0.55792 0.26963 0.25161 0.0
H768 H 0.5621 0.26081 0.30596 0.0
H769 H 0.53263 0.25038 0.30208 0.0
H770 H 0.4899 0.27634 0.29146 0.0
H771 H 0.53968 0.28715 0.2636 0.0
C772 C 0.59427 0.26516 0.27342 0.0
C773 C 0.58616 0.26124 0.28984 0.0
C774 C 0.58424 0.26914 0.25987 0.0
C775 C 0.56586 0.26819 0.2626 0.0
C776 C 0.55771 0.26605 0.27934 0.0
C777 C 0.56801 0.26236 0.29287 0.0
C778 C 0.5388 0.26869 0.28269 0.0
C779 C 0.5278 0.25978 0.29512 0.0
C780 C 0.51032 0.26288 0.2985 0.0
C781 C 0.50353 0.2743 0.28893 0.0
C782 C 0.51375 0.28252 0.27572 0.0
C783 C 0.53157 0.28019 0.27322 0.0
H784 H 0.23553 0.18424 0.15331 0.0
H785 H 0.23924 0.25321 0.08338 0.0
H786 H 0.19089 0.20839 0.14289 0.0
H787 H 0.28487 0.23299 0.09816 0.0
H788 H 0.22051 0.23449 0.10264 0.0
H789 H 0.25307 0.19977 0.13084 0.0
C790 C 0.22937 0.19272 0.14625 0.0
C791 C 0.21171 0.19507 0.15013 0.0
C792 C 0.23461 0.23409 0.10159 0.0
C793 C 0.23176 0.21293 0.12433 0.0
C794 C 0.24528 0.24469 0.09051 0.0
C795 C 0.26366 0.24478 0.08929 0.0
C796 C 0.24239 0.22344 0.11144 0.0
C797 C 0.27079 0.23355 0.09893 0.0
C798 C 0.2394 0.20161 0.13342 0.0
C799 C 0.20447 0.20622 0.14047 0.0
N800 N 0.26018 0.22342 0.10962 0.0
N801 N 0.21452 0.21477 0.12809 0.0
H802 H 0.83657 0.17303 0.09531 0.0
H803 H 0.8034 0.26211 0.08881 0.0
H804 H 0.82248 0.2069 0.1418 0.0
H805 H 0.7912 0.21823 0.04778 0.0
H806 H 0.81394 0.24309 0.10731 0.0
H807 H 0.82338 0.19041 0.07642 0.0
C808 C 0.83064 0.18406 0.10153 0.0
C809 C 0.83063 0.18857 0.12014 0.0
C810 C 0.80885 0.23762 0.09429 0.0
C811 C 0.81585 0.20852 0.09868 0.0
C812 C 0.8027 0.24844 0.08371 0.0
C813 C 0.79614 0.24182 0.06667 0.0
C814 C 0.80888 0.22005 0.08776 0.0
C815 C 0.79627 0.22405 0.06068 0.0
C816 C 0.82309 0.1939 0.09077 0.0
C817 C 0.82274 0.20294 0.12753 0.0
N818 N 0.80264 0.21379 0.07118 0.0
N819 N 0.81585 0.21252 0.11676 0.0
H820 H 0.89802 0.80445 0.13859 0.0
H821 H 0.8102 0.80355 0.08504 0.0
H822 H 0.87461 0.85052 0.13644 0.0
H823 H 0.82408 0.75749 0.10245 0.0
H824 H 0.83607 0.82097 0.10019 0.0
H825 H 0.8732 0.78704 0.12181 0.0
C826 C 0.88763 0.8109 0.1346 0.0
C827 C 0.88821 0.82891 0.13917 0.0
C828 C 0.83348 0.80704 0.10065 0.0
C829 C 0.85991 0.80912 0.11981 0.0
C830 C 0.81882 0.79709 0.0919 0.0
C831 C 0.815 0.77906 0.09252 0.0
C832 C 0.84454 0.79888 0.10991 0.0
C833 C 0.82648 0.77137 0.10177 0.0
C834 C 0.87346 0.80095 0.12508 0.0
C835 C 0.87445 0.83661 0.1336 0.0
N836 N 0.84075 0.78132 0.11007 0.0
N837 N 0.86088 0.82668 0.12415 0.0
H838 H 0.2131 0.84265 0.12855 0.0
H839 H 0.23411 0.78828 0.03585 0.0
H840 H 0.20248 0.85837 0.07814 0.0
H841 H 0.26439 0.7892 0.08285 0.0
H842 H 0.21922 0.81137 0.05166 0.0
H843 H 0.22872 0.82011 0.11253 0.0
C844 C 0.21405 0.84135 0.11411 0.0
C845 C 0.20651 0.8524 0.10464 0.0
C846 C 0.22916 0.8065 0.05845 0.0
C847 C 0.22414 0.82657 0.0863 0.0
C848 C 0.23775 0.79337 0.04943 0.0
C849 C 0.25062 0.78673 0.05796 0.0
C850 C 0.23322 0.81287 0.07625 0.0
C851 C 0.25438 0.79363 0.07576 0.0
C852 C 0.22301 0.82855 0.10501 0.0
C853 C 0.20817 0.85018 0.08595 0.0
N854 N 0.24566 0.80625 0.08433 0.0
N855 N 0.21671 0.83741 0.07736 0.0
H856 H 0.1949 0.82591 0.93614 0.0
H857 H 0.28047 0.78361 0.94392 0.0
H858 H 0.22993 0.81559 0.8909 0.0
H859 H 0.23285 0.7681 0.97479 0.0
H860 H 0.26361 0.79875 0.9265 0.0
H861 H 0.21013 0.80823 0.95291 0.0
C862 C 0.20578 0.81993 0.92975 0.0
C863 C 0.2112 0.82223 0.91212 0.0
C864 C 0.25685 0.79192 0.93703 0.0
C865 C 0.22871 0.80229 0.93124 0.0
C866 C 0.26643 0.78309 0.94695 0.0
C867 C 0.25813 0.77425 0.96086 0.0
C868 C 0.23889 0.79239 0.94122 0.0
C869 C 0.23997 0.77483 0.96442 0.0
C870 C 0.21437 0.80979 0.93928 0.0
C871 C 0.2253 0.81412 0.90444 0.0
N872 N 0.23099 0.78386 0.95476 0.0
N873 N 0.2337 0.80467 0.91411 0.0
H874 H 0.22687 0.1741 0.92462 0.0
H875 H 0.23086 0.24954 0.00687 0.0
H876 H 0.18188 0.19992 0.94053 0.0
H877 H 0.27686 0.23916 0.97463 0.0
H878 H 0.21208 0.2283 0.98589 0.0
H879 H 0.24494 0.19506 0.94593 0.0
C880 C 0.22082 0.18426 0.93255 0.0
C881 C 0.20289 0.18539 0.93069 0.0
C882 C 0.2263 0.23064 0.9835 0.0
C883 C 0.22343 0.20921 0.95538 0.0
C884 C 0.23697 0.24258 0.9955 0.0
C885 C 0.25536 0.24595 0.99242 0.0
C886 C 0.23418 0.22187 0.96855 0.0
C887 C 0.26272 0.23684 0.97743 0.0
C888 C 0.23114 0.19621 0.94469 0.0
C889 C 0.19572 0.19878 0.94134 0.0
N890 N 0.25212 0.22515 0.96609 0.0
N891 N 0.20599 0.21012 0.95338 0.0
H892 H 0.88952 0.20368 0.9205 0.0
H893 H 0.80626 0.21631 0.98606 0.0
H894 H 0.86177 0.16346 0.94972 0.0
H895 H 0.82943 0.25409 0.95171 0.0
H896 H 0.8264 0.19672 0.9727 0.0
H897 H 0.86769 0.22235 0.93168 0.0
C898 C 0.87875 0.19873 0.92918 0.0
C899 C 0.87731 0.1819 0.934 0.0
C900 C 0.82706 0.20925 0.96801 0.0
C901 C 0.85235 0.20323 0.94694 0.0
C902 C 0.81563 0.22047 0.97569 0.0
C903 C 0.81629 0.2369 0.97007 0.0
C904 C 0.83936 0.2145 0.95466 0.0
C905 C 0.82845 0.24152 0.95638 0.0
C906 C 0.86626 0.20937 0.9355 0.0
C907 C 0.86312 0.17615 0.94528 0.0
N908 N 0.83961 0.23042 0.94923 0.0
N909 N 0.85124 0.18683 0.95145 0.0
H910 H 0.81582 0.84216 0.93201 0.0
H911 H 0.81284 0.79473 0.01906 0.0
H912 H 0.86219 0.83906 0.96104 0.0
H913 H 0.76603 0.80104 0.99252 0.0
H914 H 0.83076 0.81425 1.00031 0.0
H915 H 0.79712 0.83017 0.95593 0.0
C916 C 0.82208 0.83914 0.9435 0.0
C917 C 0.84063 0.84143 0.94439 0.0
C918 C 0.81654 0.81156 0.99873 0.0
C919 C 0.81928 0.82758 0.97181 0.0
C920 C 0.80625 0.80051 0.00956 0.0
C921 C 0.78789 0.79602 0.00723 0.0
C922 C 0.80846 0.8181 0.98535 0.0
C923 C 0.78018 0.80382 0.99453 0.0
C924 C 0.81139 0.83229 0.95717 0.0
C925 C 0.84797 0.83738 0.95967 0.0
N926 N 0.79052 0.81428 0.98392 0.0
N927 N 0.83729 0.83049 0.97266 0.0
H928 H 0.09914 0.19764 0.18764 0.0
H929 H 0.07092 0.24635 0.28194 0.0
H930 H 0.1277 0.20025 0.23602 0.0
H931 H 0.04476 0.24695 0.23282 0.0
H932 H 0.08915 0.22596 0.26619 0.0
H933 H 0.07663 0.21215 0.20476 0.0
C934 C 0.10062 0.20111 0.2019 0.0
C935 C 0.11547 0.19786 0.21035 0.0
C936 C 0.0793 0.2304 0.25888 0.0
C937 C 0.08968 0.21459 0.23007 0.0
C938 C 0.06889 0.24206 0.26786 0.0
C939 C 0.05643 0.24857 0.25864 0.0
C940 C 0.07731 0.22518 0.24049 0.0
C941 C 0.05415 0.24227 0.24049 0.0
C942 C 0.08774 0.20942 0.21167 0.0
C943 C 0.11656 0.20258 0.2289 0.0
N944 N 0.06463 0.23109 0.23197 0.0
N945 N 0.10393 0.21083 0.23809 0.0
H946 H 0.85658 0.07403 0.18316 0.0
H947 H 0.76171 0.06053 0.23322 0.0
H948 H 0.81973 0.11062 0.18606 0.0
H949 H 0.80118 0.02722 0.23475 0.0
H950 H 0.78097 0.07682 0.21244 0.0
H951 H 0.83453 0.05446 0.19827 0.0
C952 C 0.84379 0.07789 0.18681 0.0
C953 C 0.8401 0.09409 0.18351 0.0
C954 C 0.78533 0.06584 0.2172 0.0
C955 C 0.81477 0.07175 0.20095 0.0
C956 C 0.77437 0.05657 0.22912 0.0
C957 C 0.77988 0.04256 0.2359 0.0
C958 C 0.80194 0.0611 0.21201 0.0
C959 C 0.79628 0.03782 0.22981 0.0
C960 C 0.8312 0.0667 0.19548 0.0
C961 C 0.82322 0.09831 0.18846 0.0
N962 N 0.80677 0.04715 0.21834 0.0
N963 N 0.81125 0.08728 0.19707 0.0
H964 H 0.99236 0.83292 0.1918 0.0
H965 H 0.98246 0.74584 0.23351 0.0
H966 H 0.94068 0.80738 0.20728 0.0
H967 H 0.02316 0.78864 0.25243 0.0
H968 H 0.96862 0.76584 0.21892 0.0
H969 H 0.00599 0.81427 0.20895 0.0
C970 C 0.98392 0.82338 0.19879 0.0
C971 C 0.9654 0.82164 0.19818 0.0
C972 C 0.98056 0.77077 0.22635 0.0
C973 C 0.98081 0.80024 0.21735 0.0
C974 C 0.98845 0.75942 0.23486 0.0
C975 C 0.00407 0.76544 0.24445 0.0
C976 C 0.98855 0.7882 0.22691 0.0
C977 C 0.01139 0.78318 0.24498 0.0
C978 C 0.99168 0.81287 0.2086 0.0
C979 C 0.95501 0.80916 0.20751 0.0
N980 N 0.00367 0.79389 0.23617 0.0
N981 N 0.96287 0.79874 0.21653 0.0
H982 H 0.19676 0.91644 0.20365 0.0
H983 H 0.27836 0.9947 0.21549 0.0
H984 H 0.22288 0.93976 0.15889 0.0
H985 H 0.25287 0.96744 0.25797 0.0
H986 H 0.25678 0.97701 0.19461 0.0
H987 H 0.21568 0.93738 0.22376 0.0
C988 C 0.20648 0.92602 0.19802 0.0
C989 C 0.20836 0.92621 0.17951 0.0
C990 C 0.25591 0.97499 0.20852 0.0
C991 C 0.2303 0.95035 0.20265 0.0
C992 C 0.26814 0.98509 0.22042 0.0
C993 C 0.26748 0.98235 0.23841 0.0
C994 C 0.24291 0.9622 0.21477 0.0
C995 C 0.25404 0.96975 0.24415 0.0
C996 C 0.21731 0.93803 0.20956 0.0
C997 C 0.22105 0.93912 0.17307 0.0
N998 N 0.24237 0.96014 0.23237 0.0
N999 N 0.23168 0.95063 0.18464 0.0
H1000 H 0.1212 0.82661 0.86515 0.0
H1001 H 0.04349 0.80759 0.79452 0.0
H1002 H 0.10392 0.86653 0.83931 0.0
H1003 H 0.06178 0.76786 0.81976 0.0
H1004 H 0.06332 0.82982 0.81312 0.0
H1005 H 0.09742 0.80536 0.85089 0.0
C1006 C 0.11232 0.83095 0.85659 0.0
C1007 C 0.11467 0.84836 0.8533 0.0
C1008 C 0.06289 0.81624 0.81469 0.0
C1009 C 0.08743 0.82405 0.83683 0.0
C1010 C 0.05149 0.80356 0.80415 0.0
C1011 C 0.0511 0.78584 0.80549 0.0
C1012 C 0.07396 0.81115 0.82665 0.0
C1013 C 0.06188 0.78136 0.81808 0.0
C1014 C 0.09874 0.81879 0.84843 0.0
C1015 C 0.10269 0.85322 0.84214 0.0
N1016 N 0.07293 0.79391 0.82808 0.0
N1017 N 0.08968 0.84111 0.83421 0.0
H1018 H 0.21291 0.11826 0.84025 0.0
H1019 H 0.26757 0.03855 0.83159 0.0
H1020 H 0.21174 0.08411 0.88062 0.0
H1021 H 0.26748 0.07201 0.79079 0.0
H1022 H 0.24605 0.05415 0.84915 0.0
H1023 H 0.2321 0.10081 0.82153 0.0
C1024 C 0.21666 0.10707 0.84518 0.0
C1025 C 0.21075 0.10269 0.86207 0.0
C1026 C 0.25068 0.05804 0.83632 0.0
C1027 C 0.23276 0.08262 0.84067 0.0
C1028 C 0.26289 0.04905 0.82623 0.0
C1029 C 0.26945 0.05404 0.80973 0.0
C1030 C 0.24497 0.07213 0.82989 0.0
C1031 C 0.26304 0.0679 0.80357 0.0
C1032 C 0.22762 0.09709 0.83446 0.0
C1033 C 0.21601 0.08801 0.86771 0.0
N1034 N 0.25123 0.07649 0.81368 0.0
N1035 N 0.22676 0.07853 0.85706 0.0
H1036 H 0.93944 0.17794 0.85063 0.0
H1037 H 0.02152 0.25233 0.8352 0.0
H1038 H 0.97935 0.19924 0.88954 0.0
H1039 H 0.98167 0.23267 0.79582 0.0
H1040 H 0.00686 0.23166 0.85449 0.0
H1041 H 0.95533 0.19653 0.8296 0.0
C1042 C 0.95161 0.18642 0.85471 0.0
C1043 C 0.95805 0.1871 0.8719 0.0
C1044 C 0.0013 0.23178 0.84162 0.0
C1045 C 0.97621 0.20841 0.84797 0.0
C1046 C 0.00975 0.24353 0.83052 0.0
C1047 C 0.00287 0.24419 0.8138 0.0
C1048 C 0.98576 0.22057 0.83606 0.0
C1049 C 0.98735 0.23271 0.80866 0.0
C1050 C 0.96064 0.19705 0.84272 0.0
C1051 C 0.97385 0.19833 0.87647 0.0
N1052 N 0.97929 0.22136 0.81976 0.0
N1053 N 0.98234 0.20856 0.86461 0.0
H1054 H 0.82431 0.88634 0.81506 0.0
H1055 H 0.77971 0.97134 0.82717 0.0
H1056 H 0.83552 0.92533 0.86077 0.0
H1057 H 0.7941 0.9465 0.77521 0.0
H1058 H 0.79753 0.95358 0.84084 0.0
H1059 H 0.80996 0.90671 0.80122 0.0
C1060 C 0.82379 0.89921 0.82216 0.0
C1061 C 0.83114 0.90416 0.83907 0.0
C1062 C 0.7968 0.95215 0.82644 0.0
C1063 C 0.81449 0.92743 0.82343 0.0
C1064 C 0.78671 0.96233 0.81859 0.0
C1065 C 0.78505 0.96028 0.79995 0.0
C1066 C 0.80507 0.93962 0.81562 0.0
C1067 C 0.79439 0.94821 0.78963 0.0
C1068 C 0.81566 0.91084 0.81423 0.0
C1069 C 0.8301 0.92103 0.84766 0.0
N1070 N 0.80375 0.93821 0.79759 0.0
N1071 N 0.82173 0.932 0.83984 0.0
H1072 H 0.21905 0.10567 0.19781 0.0
H1073 H 0.28001 0.09781 0.27873 0.0
H1074 H 0.23317 0.14693 0.24095 0.0
H1075 H 0.27234 0.05919 0.23223 0.0
H1076 H 0.26113 0.11496 0.26597 0.0
H1077 H 0.23683 0.08759 0.21099 0.0
C1078 C 0.22588 0.11094 0.21005 0.0
C1079 C 0.22462 0.12789 0.21825 0.0
C1080 C 0.26354 0.10273 0.25854 0.0
C1081 C 0.24495 0.10718 0.23347 0.0
C1082 C 0.27441 0.09293 0.2658 0.0
C1083 C 0.27798 0.07706 0.25648 0.0
C1084 C 0.25605 0.09667 0.24182 0.0
C1085 C 0.26991 0.07127 0.23996 0.0
C1086 C 0.23604 0.10059 0.21757 0.0
C1087 C 0.23377 0.13398 0.23411 0.0
N1088 N 0.25939 0.08109 0.23314 0.0
N1089 N 0.2435 0.12365 0.24118 0.0
H1090 H 0.23922 0.89246 0.86442 0.0
H1091 H 0.25417 0.97914 0.81727 0.0
H1092 H 0.19954 0.92556 0.86306 0.0
H1093 H 0.29322 0.94502 0.81636 0.0
H1094 H 0.23558 0.96179 0.83757 0.0
H1095 H 0.26061 0.91357 0.85036 0.0
C1096 C 0.23505 0.90426 0.86139 0.0
C1097 C 0.21747 0.90713 0.86477 0.0
C1098 C 0.24828 0.95817 0.83306 0.0
C1099 C 0.24189 0.9313 0.84853 0.0
C1100 C 0.25898 0.96816 0.82155 0.0
C1101 C 0.27524 0.96346 0.81495 0.0
C1102 C 0.25383 0.94332 0.83801 0.0
C1103 C 0.28064 0.94894 0.82083 0.0
C1104 C 0.24727 0.91629 0.8533 0.0
C1105 C 0.21288 0.9227 0.86058 0.0
N1106 N 0.26991 0.93932 0.83191 0.0
N1107 N 0.22495 0.93411 0.85255 0.0
H1108 H 0.1229 0.21815 0.88364 0.0
H1109 H 0.119 0.29127 0.82018 0.0
H1110 H 0.16747 0.25732 0.87336 0.0
H1111 H 0.07781 0.24702 0.82363 0.0
H1112 H 0.13563 0.28099 0.84229 0.0
H1113 H 0.10487 0.23069 0.86456 0.0
C1114 C 0.12888 0.22947 0.8775 0.0
C1115 C 0.1468 0.23661 0.88004 0.0
C1116 C 0.12291 0.27358 0.83827 0.0
C1117 C 0.12617 0.25103 0.85811 0.0
C1118 C 0.11343 0.2794 0.82557 0.0
C1119 C 0.097 0.26994 0.81986 0.0
C1120 C 0.11594 0.2582 0.84542 0.0
C1121 C 0.09032 0.25485 0.82767 0.0
C1122 C 0.11857 0.2366 0.86655 0.0
C1123 C 0.15376 0.25131 0.87173 0.0
N1124 N 0.09984 0.24942 0.83997 0.0
N1125 N 0.14347 0.25798 0.86109 0.0
H1126 H 0.7912 0.12177 0.90398 0.0
H1127 H 0.78893 0.0339 0.83758 0.0
H1128 H 0.829 0.08648 0.90403 0.0
H1129 H 0.74815 0.06637 0.84038 0.0
H1130 H 0.80132 0.05085 0.86476 0.0
H1131 H 0.77298 0.09983 0.88364 0.0
C1132 C 0.79555 0.10932 0.89993 0.0
C1133 C 0.81181 0.10608 0.90547 0.0
C1134 C 0.78952 0.05415 0.85958 0.0
C1135 C 0.7911 0.08098 0.88208 0.0
C1136 C 0.78235 0.04438 0.84409 0.0
C1137 C 0.7676 0.04885 0.83649 0.0
C1138 C 0.78204 0.06864 0.86749 0.0
C1139 C 0.7598 0.06272 0.84549 0.0
C1140 C 0.78514 0.0968 0.8883 0.0
C1141 C 0.81669 0.08966 0.89991 0.0
N1142 N 0.76725 0.07227 0.86037 0.0
N1143 N 0.80651 0.07783 0.88834 0.0
H1144 H 0.91047 0.82682 0.86796 0.0
H1145 H 0.94654 0.79591 0.76971 0.0
H1146 H 0.89467 0.8446 0.82047 0.0
H1147 H 0.96306 0.77897 0.81732 0.0
H1148 H 0.92859 0.81486 0.78818 0.0
H1149 H 0.93102 0.81059 0.84982 0.0
C1150 C 0.91139 0.82743 0.85373 0.0
C1151 C 0.9007 0.83706 0.84575 0.0
C1152 C 0.93619 0.80707 0.79462 0.0
C1153 C 0.92426 0.8183 0.82481 0.0
C1154 C 0.94638 0.79616 0.78407 0.0
C1155 C 0.95625 0.78571 0.79195 0.0
C1156 C 0.93576 0.80756 0.81325 0.0
C1157 C 0.95577 0.78686 0.81065 0.0
C1158 C 0.92316 0.81812 0.84337 0.0
C1159 C 0.9026 0.83735 0.82723 0.0
N1160 N 0.94562 0.79749 0.82064 0.0
N1161 N 0.91404 0.82803 0.81739 0.0
H1162 H 0.84132 0.88737 0.2124 0.0
H1163 H 0.78595 0.96631 0.22274 0.0
H1164 H 0.84193 0.92174 0.17231 0.0
H1165 H 0.79457 0.93858 0.26629 0.0
H1166 H 0.80582 0.94983 0.20378 0.0
H1167 H 0.82307 0.90525 0.23184 0.0
C1168 C 0.83758 0.89865 0.20765 0.0
C1169 C 0.84315 0.90304 0.19067 0.0
C1170 C 0.80343 0.94742 0.21751 0.0
C1171 C 0.82225 0.92361 0.21291 0.0
C1172 C 0.79217 0.95691 0.2284 0.0
C1173 C 0.78846 0.95379 0.24615 0.0
C1174 C 0.81097 0.93459 0.22434 0.0
C1175 C 0.79673 0.94122 0.25262 0.0
C1176 C 0.82722 0.90891 0.2188 0.0
C1177 C 0.83794 0.91786 0.18529 0.0
N1178 N 0.80749 0.93203 0.2417 0.0
N1179 N 0.82774 0.92758 0.19635 0.0
H1180 H 0.11552 0.8523 0.19995 0.0
H1181 H 0.12017 0.76011 0.23231 0.0
H1182 H 0.15546 0.82105 0.17985 0.0
H1183 H 0.07719 0.78953 0.24493 0.0
H1184 H 0.13432 0.7824 0.21386 0.0
H1185 H 0.10193 0.82929 0.21706 0.0
C1186 C 0.12138 0.84053 0.19905 0.0
C1187 C 0.13666 0.83861 0.18846 0.0
C1188 C 0.12175 0.78387 0.22064 0.0
C1189 C 0.12121 0.81214 0.20823 0.0
C1190 C 0.11376 0.77124 0.23121 0.0
C1191 C 0.09741 0.7729 0.23996 0.0
C1192 C 0.11337 0.79826 0.21906 0.0
C1193 C 0.08964 0.78756 0.23815 0.0
C1194 C 0.11361 0.82736 0.20885 0.0
C1195 C 0.14364 0.82303 0.18781 0.0
N1196 N 0.09767 0.79962 0.22794 0.0
N1197 N 0.13592 0.8104 0.19766 0.0
H1198 H 0.92614 0.17399 0.18929 0.0
H1199 H 0.95121 0.2748 0.22693 0.0
H1200 H 0.89861 0.21398 0.17538 0.0
H1201 H 0.97971 0.23483 0.23909 0.0
H1202 H 0.93372 0.25323 0.20559 0.0
H1203 H 0.94785 0.19654 0.20498 0.0
C1204 C 0.92476 0.18752 0.18937 0.0
C1205 C 0.9104 0.19206 0.18115 0.0
C1206 C 0.94393 0.24922 0.21278 0.0
C1207 C 0.93519 0.218 0.19927 0.0
C1208 C 0.95388 0.26151 0.22501 0.0
C1209 C 0.96685 0.25659 0.23493 0.0
C1210 C 0.94687 0.23183 0.21052 0.0
C1211 C 0.96992 0.23925 0.23166 0.0
C1212 C 0.93717 0.20041 0.19835 0.0
C1213 C 0.9094 0.20984 0.18162 0.0
N1214 N 0.95989 0.22749 0.2199 0.0
N1215 N 0.92149 0.22213 0.19069 0.0
H1216 H 0.19197 0.70631 0.64386 0.0
H1217 H 0.2921 0.73234 0.60937 0.0
H1218 H 0.23593 0.68445 0.66027 0.0
H1219 H 0.24761 0.74976 0.58833 0.0
H1220 H 0.27166 0.71469 0.62802 0.0
H1221 H 0.21198 0.72214 0.62336 0.0
C1222 C 0.20582 0.70477 0.64313 0.0
C1223 C 0.21226 0.69404 0.6539 0.0
C1224 C 0.26633 0.7223 0.61929 0.0
C1225 C 0.23531 0.71227 0.63041 0.0
C1226 C 0.278 0.73247 0.6087 0.0
C1227 C 0.27157 0.74266 0.59736 0.0
C1228 C 0.24801 0.72234 0.61867 0.0
C1229 C 0.25314 0.74205 0.59681 0.0
C1230 C 0.21724 0.71383 0.63138 0.0
C1231 C 0.23034 0.69257 0.65227 0.0
N1232 N 0.24203 0.73217 0.6074 0.0
N1233 N 0.24122 0.70164 0.64084 0.0
H1234 H 0.84818 0.71262 0.61477 0.0
H1235 H 0.80395 0.72687 0.52773 0.0
H1236 H 0.85597 0.67922 0.56581 0.0
H1237 H 0.83403 0.77052 0.56015 0.0
H1238 H 0.81647 0.7071 0.54408 0.0
H1239 H 0.83585 0.73211 0.59764 0.0
C1240 C 0.84717 0.70934 0.60044 0.0
C1241 C 0.85313 0.69437 0.59163 0.0
C1242 C 0.82022 0.72104 0.54752 0.0
C1243 C 0.83879 0.71628 0.57219 0.0
C1244 C 0.81321 0.7324 0.53814 0.0
C1245 C 0.81786 0.75057 0.54244 0.0
C1246 C 0.83153 0.72784 0.56165 0.0
C1247 C 0.8296 0.75673 0.55652 0.0
C1248 C 0.84024 0.72047 0.59073 0.0
C1249 C 0.85161 0.69072 0.57304 0.0
N1250 N 0.83587 0.7454 0.56572 0.0
N1251 N 0.8444 0.70153 0.5639 0.0
H1252 H 0.87556 0.30218 0.65775 0.0
H1253 H 0.80844 0.29704 0.57845 0.0
H1254 H 0.86857 0.34601 0.63143 0.0
H1255 H 0.81315 0.25317 0.60569 0.0
H1256 H 0.83313 0.31417 0.59537 0.0
H1257 H 0.85541 0.28313 0.63659 0.0
C1258 C 0.86999 0.30777 0.6474 0.0
C1259 C 0.87365 0.32577 0.6465 0.0
C1260 C 0.82887 0.30076 0.59758 0.0
C1261 C 0.85051 0.30406 0.62231 0.0
C1262 C 0.81482 0.29091 0.5878 0.0
C1263 C 0.80857 0.27365 0.59072 0.0
C1264 C 0.83677 0.29336 0.61045 0.0
C1265 C 0.81728 0.26652 0.60322 0.0
C1266 C 0.85843 0.29689 0.63536 0.0
C1267 C 0.86603 0.33226 0.63279 0.0
N1268 N 0.83084 0.27643 0.61271 0.0
N1269 N 0.85476 0.32146 0.62135 0.0
H1270 H 0.20107 0.36334 0.58175 0.0
H1271 H 0.27079 0.29881 0.58323 0.0
H1272 H 0.2136 0.34687 0.63117 0.0
H1273 H 0.23648 0.29718 0.53907 0.0
H1274 H 0.25382 0.31949 0.60096 0.0
H1275 H 0.21863 0.34267 0.56548 0.0
C1276 C 0.20757 0.35542 0.58918 0.0
C1277 C 0.2058 0.35673 0.60782 0.0
C1278 C 0.25013 0.31454 0.58736 0.0
C1279 C 0.22602 0.33317 0.58929 0.0
C1280 C 0.25973 0.3027 0.57726 0.0
C1281 C 0.25528 0.2964 0.55948 0.0
C1282 C 0.23619 0.32022 0.57953 0.0
C1283 C 0.24082 0.30204 0.55248 0.0
C1284 C 0.21753 0.34358 0.57989 0.0
C1285 C 0.21453 0.34614 0.61678 0.0
N1286 N 0.23195 0.31371 0.56244 0.0
N1287 N 0.22437 0.33481 0.60742 0.0
H1288 H 0.20433 0.34783 0.41773 0.0
H1289 H 0.26479 0.31944 0.48856 0.0
H1290 H 0.23325 0.38365 0.45863 0.0
H1291 H 0.24294 0.28428 0.44327 0.0
H1292 H 0.25178 0.34266 0.4785 0.0
H1293 H 0.21708 0.32403 0.42737 0.0
C1294 C 0.21338 0.3507 0.42871 0.0
C1295 C 0.21772 0.36777 0.4374 0.0
C1296 C 0.24979 0.32988 0.47073 0.0
C1297 C 0.23226 0.3406 0.44853 0.0
C1298 C 0.2571 0.31656 0.47656 0.0
C1299 C 0.25487 0.29984 0.46681 0.0
C1300 C 0.24008 0.32655 0.45502 0.0
C1301 C 0.24507 0.29699 0.45115 0.0
C1302 C 0.22066 0.33711 0.43419 0.0
C1303 C 0.22952 0.37072 0.45153 0.0
N1304 N 0.23799 0.31021 0.44576 0.0
N1305 N 0.23632 0.35728 0.45667 0.0
H1306 H 0.23161 0.67858 0.42177 0.0
H1307 H 0.24366 0.73698 0.51719 0.0
H1308 H 0.18858 0.69847 0.45254 0.0
H1309 H 0.28636 0.73178 0.47852 0.0
H1310 H 0.22346 0.71684 0.49678 0.0
H1311 H 0.25185 0.69223 0.44561 0.0
C1312 C 0.22636 0.68562 0.43362 0.0
C1313 C 0.20839 0.68755 0.43506 0.0
C1314 C 0.23731 0.71992 0.49289 0.0
C1315 C 0.23148 0.7031 0.46241 0.0
C1316 C 0.24884 0.73127 0.50457 0.0
C1317 C 0.26663 0.73609 0.49943 0.0
C1318 C 0.2437 0.71324 0.47607 0.0
C1319 C 0.27268 0.72848 0.48288 0.0
C1320 C 0.23794 0.69344 0.44719 0.0
C1321 C 0.20236 0.69681 0.45076 0.0
N1322 N 0.26122 0.71751 0.47174 0.0
N1323 N 0.21388 0.7043 0.46378 0.0
H1324 H 0.86234 0.66989 0.41065 0.0
H1325 H 0.81564 0.75504 0.42173 0.0
H1326 H 0.85836 0.70019 0.36791 0.0
H1327 H 0.81429 0.72141 0.46261 0.0
H1328 H 0.8331 0.73621 0.40248 0.0
H1329 H 0.84704 0.69004 0.43072 0.0
C1330 C 0.85857 0.68094 0.40554 0.0
C1331 C 0.86181 0.68344 0.3876 0.0
C1332 C 0.829 0.73295 0.41567 0.0
C1333 C 0.84391 0.70637 0.41041 0.0
C1334 C 0.81892 0.74364 0.42662 0.0
C1335 C 0.8134 0.73976 0.44379 0.0
C1336 C 0.83364 0.71827 0.4219 0.0
C1337 C 0.81839 0.725 0.44955 0.0
C1338 C 0.84964 0.69236 0.41698 0.0
C1339 C 0.85611 0.69775 0.38164 0.0
N1340 N 0.8282 0.71478 0.43862 0.0
N1341 N 0.84743 0.70866 0.39301 0.0
H1342 H 0.86463 0.33471 0.45903 0.0
H1343 H 0.7657 0.29583 0.48793 0.0
H1344 H 0.81821 0.33905 0.43072 0.0
H1345 H 0.81236 0.28752 0.51335 0.0
H1346 H 0.78444 0.31541 0.46975 0.0
H1347 H 0.84547 0.32109 0.48166 0.0
C1348 C 0.85039 0.33295 0.45763 0.0
C1349 C 0.84304 0.33789 0.44282 0.0
C1350 C 0.79058 0.30947 0.47943 0.0
C1351 C 0.82098 0.32222 0.46875 0.0
C1352 C 0.77988 0.29827 0.48982 0.0
C1353 C 0.78748 0.28982 0.50203 0.0
C1354 C 0.80906 0.31226 0.4812 0.0
C1355 C 0.80591 0.29376 0.50414 0.0
C1356 C 0.83945 0.32515 0.47058 0.0
C1357 C 0.82449 0.33535 0.44183 0.0
N1358 N 0.81608 0.30452 0.49368 0.0
N1359 N 0.81412 0.32758 0.45453 0.0
H1360 H 0.1236 0.68796 0.73647 0.0
H1361 H 0.03629 0.73188 0.73773 0.0
H1362 H 0.09562 0.69145 0.68921 0.0
H1363 H 0.0632 0.72707 0.78522 0.0
H1364 H 0.05556 0.71366 0.72014 0.0
H1365 H 0.0997 0.69913 0.75481 0.0
C1366 C 0.11236 0.6909 0.72994 0.0
C1367 C 0.11174 0.68893 0.71125 0.0
C1368 C 0.05713 0.71641 0.73444 0.0
C1369 C 0.08432 0.70182 0.73219 0.0
C1370 C 0.046 0.7267 0.74453 0.0
C1371 C 0.04825 0.73121 0.76298 0.0
C1372 C 0.07068 0.71062 0.74281 0.0
C1373 C 0.06122 0.72423 0.77099 0.0
C1374 C 0.0987 0.69729 0.74043 0.0
C1375 C 0.09676 0.69288 0.70356 0.0
N1376 N 0.07206 0.71447 0.76085 0.0
N1377 N 0.08376 0.69928 0.71404 0.0
H1378 H 0.87109 0.59591 0.70885 0.0
H1379 H 0.82167 0.58148 0.80256 0.0
H1380 H 0.86999 0.63678 0.7531 0.0
H1381 H 0.8191 0.5419 0.75678 0.0
H1382 H 0.84251 0.60088 0.78593 0.0
H1383 H 0.85526 0.57501 0.72749 0.0
C1384 C 0.86765 0.60049 0.72253 0.0
C1385 C 0.87174 0.61819 0.72936 0.0
C1386 C 0.83751 0.5879 0.77957 0.0
C1387 C 0.85353 0.59426 0.75078 0.0
C1388 C 0.82557 0.57683 0.78904 0.0
C1389 C 0.81846 0.56009 0.78099 0.0
C1390 C 0.84239 0.58223 0.76188 0.0
C1391 C 0.82429 0.55465 0.76356 0.0
C1392 C 0.85859 0.58852 0.73317 0.0
C1393 C 0.86702 0.6233 0.74722 0.0
N1394 N 0.83578 0.56574 0.75455 0.0
N1395 N 0.85806 0.61142 0.75727 0.0
H1396 H 0.92466 0.3244 0.74709 0.0
H1397 H 0.01749 0.29021 0.75021 0.0
H1398 H 0.9652 0.3295 0.7056 0.0
H1399 H 0.97946 0.2917 0.79423 0.0
H1400 H 0.99871 0.30451 0.73355 0.0
H1401 H 0.94444 0.31182 0.7642 0.0
C1402 C 0.93771 0.32285 0.74155 0.0
C1403 C 0.94324 0.328 0.72484 0.0
C1404 C 0.99451 0.30175 0.74688 0.0
C1405 C 0.96605 0.31358 0.74444 0.0
C1406 C 0.00529 0.29369 0.75646 0.0
C1407 C 1.00002 0.28959 0.77363 0.0
C1408 C 0.97829 0.30573 0.75448 0.0
C1409 C 0.98394 0.29425 0.78091 0.0
C1410 C 0.94904 0.31571 0.75137 0.0
C1411 C 0.96036 0.32571 0.7184 0.0
N1412 N 0.97365 0.30197 0.77129 0.0
N1413 N 0.97113 0.31863 0.72818 0.0
H1414 H 0.18939 0.42279 0.7073 0.0
H1415 H 0.27655 0.49473 0.71678 0.0
H1416 H 0.21899 0.44065 0.66143 0.0
H1417 H 0.25362 0.46537 0.75876 0.0
H1418 H 0.25372 0.47815 0.6966 0.0
H1419 H 0.21072 0.44189 0.7267 0.0
C1420 C 0.20031 0.43084 0.70127 0.0
C1421 C 0.20247 0.42999 0.68266 0.0
C1422 C 0.25374 0.47537 0.71023 0.0
C1423 C 0.22709 0.45191 0.70495 0.0
C1424 C 0.26669 0.48483 0.72172 0.0
C1425 C 0.26699 0.48129 0.73939 0.0
C1426 C 0.24093 0.4625 0.71658 0.0
C1427 C 0.25399 0.46832 0.74517 0.0
C1428 C 0.21255 0.44171 0.71239 0.0
C1429 C 0.21686 0.44084 0.67569 0.0
N1430 N 0.24149 0.45944 0.73382 0.0
N1431 N 0.22871 0.45132 0.68686 0.0
H1432 H 0.11789 0.38715 0.32469 0.0
H1433 H 0.06817 0.28891 0.31389 0.0
H1434 H 0.11973 0.35167 0.36323 0.0
H1435 H 0.05539 0.3268 0.28234 0.0
H1436 H 0.08759 0.31195 0.33173 0.0
H1437 H 0.09541 0.36552 0.30853 0.0
C1438 C 0.11352 0.37487 0.3298 0.0
C1439 C 0.12079 0.37118 0.34528 0.0
C1440 C 0.08047 0.31531 0.321 0.0
C1441 C 0.0952 0.34642 0.32685 0.0
C1442 C 0.06944 0.30215 0.31079 0.0
C1443 C 0.06027 0.30599 0.2966 0.0
C1444 C 0.08257 0.33246 0.31688 0.0
C1445 C 0.06221 0.32336 0.29323 0.0
C1446 C 0.10066 0.36256 0.3206 0.0
C1447 C 0.11458 0.35509 0.35133 0.0
N1448 N 0.07332 0.33597 0.3032 0.0
N1449 N 0.10226 0.34328 0.34204 0.0
H1450 H 0.21001 0.63768 0.32442 0.0
H1451 H 0.24362 0.54572 0.30671 0.0
H1452 H 0.19896 0.59954 0.36122 0.0
H1453 H 0.24143 0.57834 0.26553 0.0
H1454 H 0.22766 0.56515 0.32711 0.0
H1455 H 0.22258 0.61638 0.30309 0.0
C1456 C 0.21022 0.62482 0.32802 0.0
C1457 C 0.20346 0.62041 0.34466 0.0
C1458 C 0.23056 0.56796 0.31356 0.0
C1459 C 0.2179 0.59593 0.32028 0.0
C1460 C 0.23957 0.5568 0.30185 0.0
C1461 C 0.24407 0.56046 0.28437 0.0
C1462 C 0.22613 0.58298 0.30784 0.0
C1463 C 0.23864 0.57518 0.27897 0.0
C1464 C 0.21734 0.61263 0.3158 0.0
C1465 C 0.20403 0.60351 0.34855 0.0
N1466 N 0.23012 0.58596 0.29068 0.0
N1467 N 0.21123 0.59191 0.3365 0.0
H1468 H 0.9147 0.65947 0.28722 0.0
H1469 H 0.01154 0.7144 0.29914 0.0
H1470 H 0.94315 0.6664 0.33625 0.0
H1471 H 0.98327 0.70463 0.24992 0.0
H1472 H 0.98876 0.69336 0.31188 0.0
H1473 H 0.94147 0.67266 0.27233 0.0
C1474 C 0.92663 0.66366 0.29483 0.0
C1475 C 0.92663 0.66206 0.31306 0.0
C1476 C 0.9877 0.69561 0.2982 0.0
C1477 C 0.95737 0.67731 0.29612 0.0
C1478 C 1.00075 0.70752 0.29091 0.0
C1479 C 0.99907 0.71141 0.27359 0.0
C1480 C 0.97295 0.68763 0.28804 0.0
C1481 C 0.98484 0.70221 0.26346 0.0
C1482 C 0.94195 0.67116 0.28631 0.0
C1483 C 0.94254 0.66752 0.3222 0.0
N1484 N 0.97221 0.69092 0.27091 0.0
N1485 N 0.95723 0.67512 0.31368 0.0
H1486 H 0.84441 0.43456 0.35816 0.0
H1487 H 0.79874 0.44762 0.26953 0.0
H1488 H 0.8247 0.3921 0.3181 0.0
H1489 H 0.79773 0.48414 0.3176 0.0
H1490 H 0.81229 0.42875 0.28586 0.0
H1491 H 0.83137 0.4545 0.3422 0.0
C1492 C 0.8374 0.42944 0.34599 0.0
C1493 C 0.83563 0.41162 0.33946 0.0
C1494 C 0.80907 0.44087 0.29285 0.0
C1495 C 0.82088 0.43436 0.32111 0.0
C1496 C 0.8012 0.45166 0.28357 0.0
C1497 C 0.79672 0.46747 0.2922 0.0
C1498 C 0.81287 0.44593 0.31092 0.0
C1499 C 0.80096 0.47217 0.3103 0.0
C1500 C 0.82992 0.44081 0.33695 0.0
C1501 C 0.82635 0.4057 0.32367 0.0
N1502 N 0.8088 0.46145 0.31906 0.0
N1503 N 0.81943 0.41704 0.315 0.0
H1504 H 0.22523 0.64449 0.7454 0.0
H1505 H 0.26784 0.55678 0.73479 0.0
H1506 H 0.21529 0.60403 0.70072 0.0
H1507 H 0.27291 0.59513 0.78164 0.0
H1508 H 0.24801 0.57336 0.7223 0.0
H1509 H 0.24256 0.62636 0.75888 0.0
C1510 C 0.22667 0.63178 0.73841 0.0
C1511 C 0.21881 0.62582 0.72186 0.0
C1512 C 0.2534 0.57809 0.73536 0.0
C1513 C 0.23873 0.60491 0.73726 0.0
C1514 C 0.26464 0.56857 0.74255 0.0
C1515 C 0.27222 0.57462 0.75924 0.0
C1516 C 0.24972 0.59383 0.74489 0.0
C1517 C 0.2677 0.59011 0.76858 0.0
C1518 C 0.23656 0.6214 0.74615 0.0
C1519 C 0.22113 0.60919 0.71348 0.0
N1520 N 0.25686 0.5992 0.76124 0.0
N1521 N 0.23092 0.59935 0.72124 0.0
H1522 H 0.18362 0.43996 0.3617 0.0
H1523 H 0.26979 0.45568 0.29818 0.0
H1524 H 0.23363 0.42517 0.37222 0.0
H1525 H 0.22462 0.48177 0.29598 0.0
H1526 H 0.25585 0.44233 0.32383 0.0
H1527 H 0.19742 0.45312 0.33589 0.0
C1528 C 0.19742 0.43922 0.3584 0.0
C1529 C 0.20742 0.43119 0.36892 0.0
C1530 C 0.24901 0.45101 0.31778 0.0
C1531 C 0.2234 0.44652 0.33964 0.0
C1532 C 0.25692 0.45857 0.3031 0.0
C1533 C 0.24832 0.46982 0.29494 0.0
C1534 C 0.23228 0.45457 0.32424 0.0
C1535 C 0.23174 0.47327 0.30197 0.0
C1536 C 0.20535 0.44693 0.3438 0.0
C1537 C 0.22543 0.43118 0.36441 0.0
N1538 N 0.22421 0.46559 0.31616 0.0
N1539 N 0.23283 0.43864 0.35006 0.0
H1540 H 0.1574 0.73564 0.36013 0.0
H1541 H 0.08075 0.71135 0.28818 0.0
H1542 H 0.1254 0.68475 0.35082 0.0
H1543 H 0.11432 0.76142 0.29696 0.0
H1544 H 0.09634 0.70142 0.31142 0.0
H1545 H 0.14136 0.74525 0.33724 0.0
C1546 C 0.147 0.72645 0.35327 0.0
C1547 C 0.14277 0.70934 0.35743 0.0
C1548 C 0.1003 0.71457 0.30824 0.0
C1549 C 0.12424 0.72033 0.3311 0.0
C1550 C 0.09135 0.72028 0.29504 0.0
C1551 C 0.09627 0.73723 0.29052 0.0
C1552 C 0.11427 0.7259 0.31707 0.0
C1553 C 0.11023 0.74816 0.29975 0.0
C1554 C 0.13782 0.73198 0.34017 0.0
C1555 C 0.12913 0.69806 0.34805 0.0
N1556 N 0.11871 0.74232 0.31255 0.0
N1557 N 0.12034 0.70376 0.33533 0.0
H1558 H 0.863 0.59597 0.3849 0.0
H1559 H 0.83507 0.58072 0.28449 0.0
H1560 H 0.8969 0.61763 0.34351 0.0
H1561 H 0.81512 0.5443 0.32137 0.0
H1562 H 0.85775 0.59483 0.30596 0.0
H1563 H 0.84545 0.57657 0.36194 0.0
C1564 C 0.86696 0.59642 0.371 0.0
C1565 C 0.88128 0.60862 0.36612 0.0
C1566 C 0.84855 0.58359 0.30922 0.0
C1567 C 0.86103 0.58679 0.33981 0.0
C1568 C 0.83557 0.57565 0.29705 0.0
C1569 C 0.82323 0.56138 0.30121 0.0
C1570 C 0.84892 0.57741 0.32577 0.0
C1571 C 0.82448 0.55521 0.31761 0.0
C1572 C 0.85691 0.58538 0.3579 0.0
C1573 C 0.88586 0.60856 0.3479 0.0
N1574 N 0.83694 0.56339 0.32939 0.0
N1575 N 0.87554 0.59808 0.33538 0.0
H1576 H 0.89884 0.35626 0.3213 0.0
H1577 H 0.97276 0.29361 0.31309 0.0
H1578 H 0.91407 0.33264 0.36532 0.0
H1579 H 0.95178 0.31087 0.26788 0.0
H1580 H 0.95383 0.31055 0.33295 0.0
H1581 H 0.92059 0.34242 0.30208 0.0
C1582 C 0.90683 0.34829 0.32698 0.0
C1583 C 0.90451 0.34555 0.34496 0.0
C1584 C 0.95342 0.31069 0.31869 0.0
C1585 C 0.92945 0.32961 0.32298 0.0
C1586 C 0.96432 0.3011 0.30735 0.0
C1587 C 0.9638 0.30074 0.28878 0.0
C1588 C 0.94198 0.32009 0.31143 0.0
C1589 C 0.95243 0.31058 0.2821 0.0
C1590 C 0.91922 0.34033 0.31597 0.0
C1591 C 0.91529 0.33506 0.35153 0.0
N1592 N 0.94197 0.31981 0.29339 0.0
N1593 N 0.92723 0.32745 0.34055 0.0
H1594 H 0.87982 0.42452 0.7215 0.0
H1595 H 0.78417 0.44569 0.75416 0.0
H1596 H 0.83127 0.39879 0.69648 0.0
H1597 H 0.83218 0.48052 0.76961 0.0
H1598 H 0.80147 0.42825 0.73304 0.0
H1599 H 0.86302 0.44505 0.7396 0.0
C1600 C 0.86567 0.42322 0.71976 0.0
C1601 C 0.85693 0.40984 0.70752 0.0
C1602 C 0.80825 0.4398 0.74088 0.0
C1603 C 0.83767 0.43319 0.72817 0.0
C1604 C 0.79837 0.44973 0.75293 0.0
C1605 C 0.8068 0.46449 0.76362 0.0
C1606 C 0.82677 0.44449 0.73971 0.0
C1607 C 0.82521 0.46925 0.7615 0.0
C1608 C 0.85611 0.43497 0.73004 0.0
C1609 C 0.83858 0.40883 0.70577 0.0
N1610 N 0.83464 0.45914 0.74993 0.0
N1611 N 0.82958 0.42024 0.71606 0.0
H1612 H 0.16827 0.3447 0.71513 0.0
H1613 H 0.0801 0.28243 0.74083 0.0
H1614 H 0.12129 0.33623 0.68361 0.0
H1615 H 0.11897 0.30933 0.77883 0.0
H1616 H 0.09697 0.2972 0.71739 0.0
H1617 H 0.15251 0.32603 0.7359 0.0
C1618 C 0.1547 0.33876 0.71244 0.0
C1619 C 0.14602 0.34222 0.69771 0.0
C1620 C 0.10178 0.29973 0.73087 0.0
C1621 C 0.1279 0.32082 0.72152 0.0
C1622 C 0.09212 0.29141 0.74431 0.0
C1623 C 0.09806 0.29461 0.76194 0.0
C1624 C 0.11758 0.31112 0.73504 0.0
C1625 C 0.11397 0.30613 0.76545 0.0
C1626 C 0.14569 0.32816 0.72437 0.0
C1627 C 0.12843 0.33404 0.69489 0.0
N1628 N 0.12315 0.31392 0.75215 0.0
N1629 N 0.11989 0.32376 0.70676 0.0
H1630 H 0.92006 0.66395 0.68186 0.0
H1631 H 0.94806 0.76158 0.72916 0.0
H1632 H 0.90701 0.70909 0.6618 0.0
H1633 H 0.96904 0.71773 0.74368 0.0
H1634 H 0.93238 0.74238 0.70477 0.0
H1635 H 0.93745 0.6832 0.70512 0.0
C1636 C 0.92067 0.67788 0.68247 0.0
C1637 C 0.91177 0.68491 0.67011 0.0
C1638 C 0.94049 0.73696 0.71321 0.0
C1639 C 0.93191 0.70704 0.69643 0.0
C1640 C 0.94939 0.74791 0.72717 0.0
C1641 C 0.95983 0.74123 0.73848 0.0
C1642 C 0.9419 0.71915 0.71062 0.0
C1643 C 0.96124 0.72344 0.73518 0.0
C1644 C 0.93077 0.68888 0.69562 0.0
C1645 C 0.91361 0.70311 0.67111 0.0
N1646 N 0.95227 0.713 0.72163 0.0
N1647 N 0.92335 0.71353 0.68411 0.0
H1648 H 0.69822 0.19718 0.66629 0.0
H1649 H 0.74884 0.21098 0.57279 0.0
H1650 H 0.71375 0.1552 0.62915 0.0
H1651 H 0.75026 0.25193 0.61714 0.0
H1652 H 0.73075 0.19095 0.59118 0.0
H1653 H 0.71242 0.21798 0.64642 0.0
C1654 C 0.70438 0.19232 0.65386 0.0
C1655 C 0.70472 0.17443 0.64932 0.0
C1656 C 0.73491 0.20436 0.59683 0.0
C1657 C 0.72098 0.19809 0.62658 0.0
C1658 C 0.74509 0.21581 0.5863 0.0
C1659 C 0.75113 0.2331 0.59349 0.0
C1660 C 0.73053 0.21028 0.61462 0.0
C1661 C 0.74602 0.23865 0.61115 0.0
C1662 C 0.71259 0.20419 0.64259 0.0
C1663 C 0.71324 0.16889 0.6332 0.0
N1664 N 0.73605 0.22728 0.62113 0.0
N1665 N 0.72097 0.18065 0.6224 0.0
H1666 H 0.35748 0.19777 0.56983 0.0
H1667 H 0.26863 0.23985 0.57146 0.0
H1668 H 0.31753 0.19429 0.61205 0.0
H1669 H 0.31117 0.24743 0.5323 0.0
H1670 H 0.28507 0.221 0.5851 0.0
H1671 H 0.33945 0.21389 0.55453 0.0
C1672 C 0.34489 0.20035 0.57587 0.0
C1673 C 0.33906 0.19474 0.5923 0.0
C1674 C 0.29076 0.22671 0.57346 0.0
C1675 C 0.3183 0.2132 0.57481 0.0
C1676 C 0.2814 0.23753 0.56569 0.0
C1677 C 0.28856 0.24536 0.55076 0.0
C1678 C 0.30742 0.22368 0.56626 0.0
C1679 C 0.30502 0.24158 0.54368 0.0
C1680 C 0.33459 0.20957 0.56712 0.0
C1681 C 0.3226 0.19843 0.59945 0.0
N1682 N 0.31392 0.2311 0.55154 0.0
N1683 N 0.31282 0.20747 0.59069 0.0
H1684 H 0.38067 0.84433 0.65983 0.0
H1685 H 0.34656 0.77903 0.57301 0.0
H1686 H 0.41571 0.8243 0.61864 0.0
H1687 H 0.31222 0.7952 0.61684 0.0
H1688 H 0.37191 0.79696 0.58855 0.0
H1689 H 0.35529 0.82787 0.64335 0.0
C1690 C 0.38304 0.83674 0.64718 0.0
C1691 C 0.40036 0.83597 0.64047 0.0
C1692 C 0.35883 0.79659 0.59476 0.0
C1693 C 0.37132 0.81668 0.62168 0.0
C1694 C 0.34434 0.78643 0.58584 0.0
C1695 C 0.32724 0.78554 0.59366 0.0
C1696 C 0.35621 0.80603 0.61159 0.0
C1697 C 0.32519 0.79529 0.61042 0.0
C1698 C 0.36853 0.82715 0.63785 0.0
C1699 C 0.40259 0.82531 0.6243 0.0
N1700 N 0.33947 0.80511 0.61881 0.0
N1701 N 0.38826 0.81613 0.61545 0.0
H1702 H 0.78884 0.88458 0.60509 0.0
H1703 H 0.80643 0.82273 0.51826 0.0
H1704 H 0.76517 0.88912 0.55566 0.0
H1705 H 0.78941 0.79989 0.56638 0.0
H1706 H 0.79869 0.85036 0.53257 0.0
H1707 H 0.79631 0.85614 0.59184 0.0
C1708 C 0.78524 0.87957 0.59148 0.0
C1709 C 0.77636 0.88908 0.58141 0.0
C1710 C 0.79673 0.83924 0.53993 0.0
C1711 C 0.78523 0.85715 0.56623 0.0
C1712 C 0.801 0.8234 0.53177 0.0
C1713 C 0.79829 0.8087 0.54095 0.0
C1714 C 0.79023 0.84063 0.55757 0.0
C1715 C 0.79192 0.81079 0.55876 0.0
C1716 C 0.78944 0.86341 0.58401 0.0
C1717 C 0.77192 0.88208 0.56386 0.0
N1718 N 0.78816 0.8265 0.56654 0.0
N1719 N 0.77663 0.86661 0.55671 0.0
H1720 H 0.72071 0.82254 0.39413 0.0
H1721 H 0.74748 0.77754 0.47451 0.0
H1722 H 0.71171 0.84286 0.44913 0.0
H1723 H 0.78098 0.78132 0.42706 0.0
H1724 H 0.72871 0.79584 0.46329 0.0
H1725 H 0.73764 0.8017 0.40414 0.0
C1726 C 0.72223 0.82255 0.40829 0.0
C1727 C 0.71493 0.83448 0.42085 0.0
C1728 C 0.74013 0.79251 0.45534 0.0
C1729 C 0.73379 0.81055 0.43228 0.0
C1730 C 0.75094 0.78214 0.46175 0.0
C1731 C 0.76613 0.77805 0.45192 0.0
C1732 C 0.74423 0.79852 0.43879 0.0
C1733 C 0.76941 0.78394 0.43512 0.0
C1734 C 0.73188 0.81071 0.41396 0.0
C1735 C 0.71728 0.83398 0.43903 0.0
N1736 N 0.75856 0.79389 0.4291 0.0
N1737 N 0.72641 0.82211 0.44422 0.0
H1738 H 0.70312 0.15547 0.4453 0.0
H1739 H 0.73054 0.25536 0.48595 0.0
H1740 H 0.68402 0.19797 0.42554 0.0
H1741 H 0.75126 0.21292 0.50398 0.0
H1742 H 0.71196 0.23442 0.46505 0.0
H1743 H 0.71948 0.1762 0.46787 0.0
C1744 C 0.70232 0.16917 0.44565 0.0
C1745 C 0.6921 0.1749 0.43333 0.0
C1746 C 0.72048 0.22966 0.47362 0.0
C1747 C 0.71095 0.19883 0.4594 0.0
C1748 C 0.73113 0.2416 0.48555 0.0
C1749 C 0.7426 0.2359 0.49664 0.0
C1750 C 0.72127 0.21182 0.47272 0.0
C1751 C 0.74256 0.21791 0.49577 0.0
C1752 C 0.71169 0.18101 0.45862 0.0
C1753 C 0.69164 0.19284 0.43462 0.0
N1754 N 0.73217 0.20653 0.48393 0.0
N1755 N 0.70094 0.20416 0.44739 0.0
H1756 H 0.3584 0.21471 0.39816 0.0
H1757 H 0.26716 0.24351 0.43713 0.0
H1758 H 0.31025 0.20732 0.36868 0.0
H1759 H 0.31566 0.25569 0.46631 0.0
H1760 H 0.28192 0.22603 0.41378 0.0
H1761 H 0.34216 0.22539 0.42505 0.0
C1762 C 0.34433 0.21491 0.39745 0.0
C1763 C 0.33564 0.21013 0.38119 0.0
C1764 C 0.28936 0.2324 0.42532 0.0
C1765 C 0.31712 0.2226 0.41169 0.0
C1766 C 0.28094 0.24244 0.43861 0.0
C1767 C 0.29029 0.25126 0.45351 0.0
C1768 C 0.30736 0.23125 0.4268 0.0
C1769 C 0.30801 0.24912 0.45499 0.0
C1770 C 0.33512 0.22116 0.41275 0.0
C1771 C 0.31749 0.211 0.38092 0.0
N1772 N 0.31606 0.23949 0.44166 0.0
N1773 N 0.30889 0.21723 0.39589 0.0
H1774 H 0.37559 0.8459 0.45665 0.0
H1775 H 0.28196 0.79553 0.48726 0.0
H1776 H 0.32665 0.8447 0.43003 0.0
H1777 H 0.3308 0.79597 0.51366 0.0
H1778 H 0.29755 0.81643 0.46846 0.0
H1779 H 0.35897 0.83055 0.47971 0.0
C1780 C 0.36132 0.84256 0.45572 0.0
C1781 C 0.35254 0.84647 0.44125 0.0
C1782 C 0.30486 0.81212 0.47847 0.0
C1783 C 0.3334 0.82878 0.46765 0.0
C1784 C 0.29596 0.80016 0.4892 0.0
C1785 C 0.30515 0.79383 0.5019 0.0
C1786 C 0.32315 0.81777 0.48034 0.0
C1787 C 0.3232 0.80052 0.50405 0.0
C1788 C 0.35184 0.83378 0.46892 0.0
C1789 C 0.33402 0.84188 0.44086 0.0
N1790 N 0.33166 0.81196 0.49323 0.0
N1791 N 0.3251 0.83316 0.45376 0.0
H1792 H 0.59841 0.20044 0.67125 0.0
H1793 H 0.57918 0.26783 0.75657 0.0
H1794 H 0.63651 0.22225 0.71179 0.0
H1795 H 0.54462 0.25476 0.71168 0.0
H1796 H 0.59848 0.24806 0.74186 0.0
H1797 H 0.57703 0.21757 0.68709 0.0
C1798 C 0.60229 0.20881 0.68347 0.0
C1799 C 0.61933 0.20995 0.69015 0.0
C1800 C 0.58664 0.24942 0.73523 0.0
C1801 C 0.59486 0.22944 0.70842 0.0
C1802 C 0.5756 0.26071 0.74363 0.0
C1803 C 0.56039 0.26315 0.73523 0.0
C1804 C 0.58248 0.24038 0.71826 0.0
C1805 C 0.55621 0.25326 0.71864 0.0
C1806 C 0.59007 0.21857 0.6925 0.0
C1807 C 0.62359 0.22101 0.70606 0.0
N1808 N 0.56728 0.24241 0.71061 0.0
N1809 N 0.61145 0.23028 0.71464 0.0
H1810 H 0.37892 0.13849 0.75141 0.0
H1811 H 0.32494 0.04172 0.7481 0.0
H1812 H 0.37127 0.10228 0.70307 0.0
H1813 H 0.33024 0.07922 0.79557 0.0
H1814 H 0.34542 0.06219 0.73218 0.0
H1815 H 0.36446 0.11558 0.76847 0.0
C1816 C 0.37434 0.12569 0.74438 0.0
C1817 C 0.37617 0.12239 0.72574 0.0
C1818 C 0.34225 0.06587 0.74613 0.0
C1819 C 0.3595 0.09604 0.74522 0.0
C1820 C 0.33067 0.05413 0.75525 0.0
C1821 C 0.32572 0.05887 0.77312 0.0
C1822 C 0.34895 0.08243 0.75496 0.0
C1823 C 0.33344 0.07517 0.78171 0.0
C1824 C 0.36606 0.11259 0.75414 0.0
C1825 C 0.37004 0.10548 0.7174 0.0
N1826 N 0.34453 0.08641 0.77252 0.0
N1827 N 0.36187 0.09299 0.72717 0.0
H1828 H 0.47001 0.8211 0.70845 0.0
H1829 H 0.56919 0.82628 0.73666 0.0
H1830 H 0.51397 0.84202 0.67576 0.0
H1831 H 0.52609 0.78918 0.75435 0.0
H1832 H 0.54984 0.83254 0.71418 0.0
H1833 H 0.49065 0.80995 0.72589 0.0
C1834 C 0.48401 0.82323 0.70486 0.0
C1835 C 0.49029 0.83254 0.69067 0.0
C1836 C 0.54473 0.82288 0.72286 0.0
C1837 C 0.51407 0.82001 0.71075 0.0
C1838 C 0.55579 0.81924 0.73563 0.0
C1839 C 0.54916 0.80744 0.74766 0.0
C1840 C 0.52692 0.81478 0.72227 0.0
C1841 C 0.53163 0.79875 0.74572 0.0
C1842 C 0.49579 0.81681 0.71478 0.0
C1843 C 0.50858 0.83487 0.68658 0.0
N1844 N 0.52108 0.80278 0.7335 0.0
N1845 N 0.51988 0.82886 0.69673 0.0
H1846 H 0.74936 0.90915 0.66659 0.0
H1847 H 0.746 0.98778 0.74077 0.0
H1848 H 0.73234 0.95666 0.6566 0.0
H1849 H 0.7416 0.93529 0.754 0.0
H1850 H 0.73899 0.97607 0.71029 0.0
H1851 H 0.74482 0.9174 0.69857 0.0
C1852 C 0.74401 0.92099 0.67106 0.0
C1853 C 0.74087 0.93207 0.6589 0.0
C1854 C 0.73926 0.96707 0.7199 0.0
C1855 C 0.73655 0.94202 0.69552 0.0
C1856 C 0.74314 0.97376 0.7375 0.0
C1857 C 0.74462 0.96257 0.7502 0.0
C1858 C 0.73725 0.94904 0.71469 0.0
C1859 C 0.74115 0.9445 0.74468 0.0
C1860 C 0.74163 0.9258 0.68936 0.0
C1861 C 0.73489 0.94773 0.66555 0.0
N1862 N 0.73796 0.9383 0.72726 0.0
N1863 N 0.73313 0.95234 0.68342 0.0
H1864 H 0.61376 0.88933 0.30062 0.0
H1865 H 0.55992 0.79434 0.30186 0.0
H1866 H 0.6048 0.86417 0.34834 0.0
H1867 H 0.54922 0.82672 0.26325 0.0
H1868 H 0.57854 0.81943 0.31788 0.0
H1869 H 0.59169 0.86639 0.2855 0.0
C1870 C 0.60704 0.87912 0.30797 0.0
C1871 C 0.61125 0.8786 0.32573 0.0
C1872 C 0.57205 0.8211 0.30596 0.0
C1873 C 0.58631 0.85232 0.30848 0.0
C1874 C 0.56154 0.80678 0.29679 0.0
C1875 C 0.55314 0.80854 0.28124 0.0
C1876 C 0.57443 0.83724 0.29938 0.0
C1877 C 0.5555 0.82494 0.27525 0.0
C1878 C 0.59446 0.86608 0.29934 0.0
C1879 C 0.60209 0.8651 0.33463 0.0
N1880 N 0.56611 0.83868 0.28424 0.0
N1881 N 0.59024 0.8524 0.32584 0.0
H1882 H 0.69529 0.11225 0.33818 0.0
H1883 H 0.75213 0.0346 0.31495 0.0
H1884 H 0.70411 0.07844 0.37625 0.0
H1885 H 0.73325 0.06141 0.27527 0.0
H1886 H 0.73683 0.05202 0.33812 0.0
H1887 H 0.71174 0.09549 0.31554 0.0
C1888 C 0.70075 0.10135 0.34181 0.0
C1889 C 0.69826 0.09671 0.35914 0.0
C1890 C 0.73606 0.05408 0.32433 0.0
C1891 C 0.71712 0.07744 0.33324 0.0
C1892 C 0.74471 0.04406 0.31107 0.0
C1893 C 0.74398 0.04648 0.29307 0.0
C1894 C 0.72668 0.06668 0.31961 0.0
C1895 C 0.73442 0.05922 0.28895 0.0
C1896 C 0.7101 0.09174 0.32886 0.0
C1897 C 0.70565 0.08244 0.36305 0.0
N1898 N 0.72618 0.06882 0.30209 0.0
N1899 N 0.71474 0.07331 0.35021 0.0
H1900 H 0.40897 0.24542 0.34014 0.0
H1901 H 0.50012 0.22772 0.29661 0.0
H1902 H 0.41889 0.19356 0.32043 0.0
H1903 H 0.49204 0.27636 0.32724 0.0
H1904 H 0.47273 0.21337 0.30997 0.0
H1905 H 0.44078 0.25568 0.3401 0.0
C1906 C 0.41791 0.23616 0.33597 0.0
C1907 C 0.41133 0.21872 0.32994 0.0
C1908 C 0.47722 0.22707 0.31422 0.0
C1909 C 0.44783 0.23039 0.32957 0.0
C1910 C 0.49293 0.2352 0.3067 0.0
C1911 C 0.49809 0.25324 0.3107 0.0
C1912 C 0.46665 0.23718 0.32557 0.0
C1913 C 0.4883 0.26244 0.32371 0.0
C1914 C 0.4361 0.24199 0.33603 0.0
C1915 C 0.42347 0.20718 0.32499 0.0
N1916 N 0.47285 0.25439 0.3304 0.0
N1917 N 0.44117 0.2133 0.32453 0.0
H1918 H 0.33233 0.90383 0.31416 0.0
H1919 H 0.30923 0.99844 0.3111 0.0
H1920 H 0.35283 0.94678 0.35336 0.0
H1921 H 0.31357 0.96139 0.26398 0.0
H1922 H 0.32229 0.97956 0.32842 0.0
H1923 H 0.32159 0.9243 0.2973 0.0
C1924 C 0.33455 0.91758 0.31925 0.0
C1925 C 0.34353 0.92361 0.33517 0.0
C1926 C 0.32041 0.97568 0.31426 0.0
C1927 C 0.3311 0.94712 0.31598 0.0
C1928 C 0.31304 0.98648 0.30433 0.0
C1929 C 0.30997 0.98142 0.28604 0.0
C1930 C 0.32452 0.95965 0.30588 0.0
C1931 C 0.31512 0.96566 0.27811 0.0
C1932 C 0.32848 0.92926 0.30957 0.0
C1933 C 0.34604 0.9416 0.34109 0.0
N1934 N 0.32191 0.9553 0.28808 0.0
N1935 N 0.33973 0.95274 0.33156 0.0
H1936 H 0.70788 0.11865 0.73863 0.0
H1937 H 0.76142 0.042 0.75251 0.0
H1938 H 0.72617 0.08399 0.69496 0.0
H1939 H 0.73218 0.06877 0.79475 0.0
H1940 H 0.75158 0.05932 0.73149 0.0
H1941 H 0.7201 0.1029 0.75962 0.0
C1942 C 0.7146 0.10783 0.73343 0.0
C1943 C 0.71593 0.10261 0.71498 0.0
C1944 C 0.74736 0.06141 0.74537 0.0
C1945 C 0.72992 0.08445 0.739 0.0
C1946 C 0.75289 0.05144 0.7574 0.0
C1947 C 0.74758 0.0538 0.77551 0.0
C1948 C 0.73655 0.07397 0.75146 0.0
C1949 C 0.73683 0.06658 0.78102 0.0
C1950 C 0.72151 0.09878 0.74544 0.0
C1951 C 0.72478 0.08845 0.70906 0.0
N1952 N 0.73168 0.07614 0.76908 0.0
N1953 N 0.73141 0.07985 0.72102 0.0
H1954 H 0.68151 0.92713 0.36682 0.0
H1955 H 0.73657 0.92632 0.27549 0.0
H1956 H 0.71474 0.88819 0.34988 0.0
H1957 H 0.73589 0.9745 0.31068 0.0
H1958 H 0.72093 0.91045 0.29867 0.0
H1959 H 0.69408 0.94311 0.34209 0.0
C1960 C 0.69131 0.92189 0.35778 0.0
C1961 C 0.69717 0.90638 0.36032 0.0
C1962 C 0.72412 0.92452 0.30115 0.0
C1963 C 0.71117 0.92425 0.33206 0.0
C1964 C 0.73316 0.93363 0.288 0.0
C1965 C 0.738 0.95186 0.29116 0.0
C1966 C 0.71939 0.93367 0.3174 0.0
C1967 C 0.73244 0.96053 0.30747 0.0
C1968 C 0.69848 0.93101 0.3438 0.0
C1969 C 0.71 0.90017 0.3484 0.0
N1970 N 0.72345 0.95135 0.32 0.0
N1971 N 0.71648 0.90905 0.33466 0.0
H1972 H 0.62075 0.20995 0.37356 0.0
H1973 H 0.62071 0.27397 0.29951 0.0
H1974 H 0.66821 0.2406 0.35444 0.0
H1975 H 0.57544 0.2366 0.31228 0.0
H1976 H 0.63773 0.26403 0.32155 0.0
H1977 H 0.60335 0.22195 0.35343 0.0
C1978 C 0.62752 0.21929 0.36522 0.0
C1979 C 0.64601 0.22419 0.36566 0.0
C1980 C 0.62405 0.25805 0.31955 0.0
C1981 C 0.62611 0.23798 0.34249 0.0
C1982 C 0.61433 0.26365 0.30687 0.0
C1983 C 0.59658 0.25606 0.30387 0.0
C1984 C 0.616 0.2448 0.32941 0.0
C1985 C 0.58899 0.243 0.31421 0.0
C1986 C 0.61757 0.2261 0.35367 0.0
C1987 C 0.65401 0.23637 0.35452 0.0
N1988 N 0.59873 0.23778 0.32644 0.0
N1989 N 0.64403 0.24281 0.34338 0.0
H1990 H 0.36462 0.12766 0.37001 0.0
H1991 H 0.34264 0.09415 0.26986 0.0
H1992 H 0.39225 0.15131 0.32615 0.0
H1993 H 0.32687 0.06265 0.31212 0.0
H1994 H 0.36354 0.11358 0.28987 0.0
H1995 H 0.35357 0.10197 0.34918 0.0
C1996 C 0.36868 0.12731 0.35607 0.0
C1997 C 0.37907 0.14181 0.34977 0.0
C1998 C 0.35579 0.10223 0.2947 0.0
C1999 C 0.36623 0.1126 0.32581 0.0
C2000 C 0.34384 0.09119 0.28328 0.0
C2001 C 0.33294 0.07693 0.28945 0.0
C2002 C 0.35654 0.09919 0.31251 0.0
C2003 C 0.33506 0.07354 0.30689 0.0
C2004 C 0.36235 0.11263 0.34416 0.0
C2005 C 0.38406 0.14055 0.33158 0.0
N2006 N 0.34638 0.0848 0.31794 0.0
N2007 N 0.37729 0.12636 0.32019 0.0
H2008 H 0.41624 0.84009 0.36053 0.0
H2009 H 0.44583 0.81423 0.25891 0.0
H2010 H 0.39957 0.86314 0.31678 0.0
H2011 H 0.46747 0.79653 0.3035 0.0
H2012 H 0.42913 0.83256 0.27981 0.0
H2013 H 0.43553 0.82457 0.33988 0.0
C2014 C 0.4167 0.84199 0.34659 0.0
C2015 C 0.40616 0.85291 0.3404 0.0
C2016 C 0.43761 0.82476 0.28504 0.0
C2017 C 0.42822 0.83499 0.31657 0.0
C2018 C 0.44709 0.81422 0.27311 0.0
C2019 C 0.45802 0.80376 0.27946 0.0
C2020 C 0.43895 0.82477 0.30349 0.0
C2021 C 0.45932 0.80447 0.298 0.0
C2022 C 0.42775 0.8331 0.33479 0.0
C2023 C 0.40742 0.85487 0.32218 0.0
N2024 N 0.44981 0.81468 0.30934 0.0
N2025 N 0.41813 0.84589 0.31089 0.0
H2026 H 0.32582 0.88653 0.69536 0.0
H2027 H 0.33494 0.97918 0.75654 0.0
H2028 H 0.37457 0.92316 0.7001 0.0
H2029 H 0.28735 0.94099 0.75378 0.0
H2030 H 0.34885 0.96027 0.73349 0.0
H2031 H 0.31079 0.90759 0.71453 0.0
C2032 C 0.33336 0.89904 0.70034 0.0
C2033 C 0.35153 0.90301 0.69619 0.0
C2034 C 0.33532 0.95609 0.73785 0.0
C2035 C 0.33437 0.92724 0.71824 0.0
C2036 C 0.32735 0.96693 0.75092 0.0
C2037 C 0.31003 0.96157 0.75724 0.0
C2038 C 0.3259 0.93979 0.731 0.0
C2039 C 0.30084 0.9455 0.74955 0.0
C2040 C 0.32476 0.91107 0.71131 0.0
C2041 C 0.36057 0.91948 0.70301 0.0
N2042 N 0.30891 0.93516 0.73694 0.0
N2043 N 0.35192 0.93094 0.71376 0.0
H2044 H 0.68412 0.89162 0.70122 0.0
H2045 H 0.6628 0.79982 0.7394 0.0
H2046 H 0.70832 0.84696 0.67965 0.0
H2047 H 0.63637 0.84382 0.75762 0.0
H2048 H 0.68103 0.81722 0.71868 0.0
H2049 H 0.66779 0.87458 0.72307 0.0
C2050 C 0.68602 0.87822 0.70107 0.0
C2051 C 0.69756 0.87069 0.68851 0.0
C2052 C 0.67125 0.82306 0.72724 0.0
C2053 C 0.67885 0.85105 0.71361 0.0
C2054 C 0.66092 0.81317 0.73913 0.0
C2055 C 0.64795 0.82034 0.75015 0.0
C2056 C 0.66865 0.84026 0.72645 0.0
C2057 C 0.646 0.83766 0.74916 0.0
C2058 C 0.67667 0.86848 0.71358 0.0
C2059 C 0.69952 0.85327 0.68905 0.0
N2060 N 0.65619 0.847 0.73751 0.0
N2061 N 0.69023 0.84403 0.70137 0.0
H2062 H 0.42143 0.20877 0.64441 0.0
H2063 H 0.48137 0.26191 0.70221 0.0
H2064 H 0.39999 0.18487 0.69053 0.0
H2065 H 0.44353 0.24726 0.74382 0.0
H2066 H 0.4646 0.23988 0.68099 0.0
H2067 H 0.44152 0.22975 0.6635 0.0
C2068 C 0.42117 0.20774 0.65855 0.0
C2069 C 0.40917 0.1948 0.6658 0.0
C2070 C 0.45972 0.24162 0.69466 0.0
C2071 C 0.43256 0.21873 0.68791 0.0
C2072 C 0.4695 0.25407 0.70688 0.0
C2073 C 0.46379 0.25659 0.72482 0.0
C2074 C 0.44398 0.23165 0.70036 0.0
C2075 C 0.44825 0.24604 0.73005 0.0
C2076 C 0.43284 0.21966 0.66948 0.0
C2077 C 0.40931 0.19426 0.68425 0.0
N2078 N 0.43891 0.23407 0.7179 0.0
N2079 N 0.42074 0.20612 0.69468 0.0
H2080 H 0.68553 0.70122 0.15258 0.0
H2081 H 0.78119 0.7241 0.10614 0.0
H2082 H 0.7311 0.67886 0.16392 0.0
H2083 H 0.73523 0.74505 0.09346 0.0
H2084 H 0.76272 0.70632 0.12619 0.0
H2085 H 0.70312 0.71619 0.12989 0.0
C2086 C 0.69923 0.69938 0.15028 0.0
C2087 C 0.70684 0.68878 0.16031 0.0
C2088 C 0.75662 0.71471 0.11896 0.0
C2089 C 0.72714 0.70603 0.13422 0.0
C2090 C 0.76717 0.72491 0.10755 0.0
C2091 C 0.75978 0.73621 0.09821 0.0
C2092 C 0.73848 0.7158 0.12119 0.0
C2093 C 0.74149 0.73648 0.10032 0.0
C2094 C 0.70927 0.70795 0.13727 0.0
C2095 C 0.72465 0.6869 0.15658 0.0
N2096 N 0.7315 0.72655 0.11169 0.0
N2097 N 0.7342 0.69551 0.14393 0.0
H2098 H 0.31006 0.6988 0.13391 0.0
H2099 H 0.27886 0.71274 0.03875 0.0
H2100 H 0.32898 0.67125 0.08533 0.0
H2101 H 0.28611 0.75387 0.08324 0.0
H2102 H 0.29174 0.69404 0.05626 0.0
H2103 H 0.29503 0.71552 0.11608 0.0
C2104 C 0.31092 0.69615 0.11949 0.0
C2105 C 0.32088 0.68369 0.11108 0.0
C2106 C 0.29037 0.70716 0.06211 0.0
C2107 C 0.30358 0.70267 0.09065 0.0
C2108 C 0.28312 0.71792 0.05211 0.0
C2109 C 0.28129 0.73504 0.05943 0.0
C2110 C 0.29553 0.71342 0.07965 0.0
C2111 C 0.28678 0.74073 0.07704 0.0
C2112 C 0.3024 0.70575 0.10935 0.0
C2113 C 0.32154 0.68083 0.09234 0.0
N2114 N 0.29355 0.72994 0.08653 0.0
N2115 N 0.31297 0.69023 0.08272 0.0
H2116 H 0.3756 0.36254 0.13208 0.0
H2117 H 0.32656 0.26659 0.0976 0.0
H2118 H 0.39333 0.31578 0.1433 0.0
H2119 H 0.31513 0.31268 0.07818 0.0
H2120 H 0.35079 0.28445 0.1148 0.0
H2121 H 0.35283 0.34466 0.11296 0.0
C2122 C 0.37454 0.34851 0.13074 0.0
C2123 C 0.38613 0.34063 0.13962 0.0
C2124 C 0.34309 0.29066 0.10668 0.0
C2125 C 0.36036 0.32007 0.11742 0.0
C2126 C 0.32923 0.28048 0.0969 0.0
C2127 C 0.31878 0.28818 0.08651 0.0
C2128 C 0.34644 0.30875 0.10626 0.0
C2129 C 0.32293 0.30621 0.08593 0.0
C2130 C 0.36168 0.33831 0.11962 0.0
C2131 C 0.3846 0.3224 0.13678 0.0
N2132 N 0.33633 0.31591 0.09581 0.0
N2133 N 0.37189 0.31274 0.12604 0.0
H2134 H 0.70882 0.35869 0.07787 0.0
H2135 H 0.78104 0.29798 0.08738 0.0
H2136 H 0.72019 0.3433 0.12821 0.0
H2137 H 0.75154 0.29453 0.03937 0.0
H2138 H 0.76347 0.31957 0.10188 0.0
H2139 H 0.72939 0.34012 0.06286 0.0
C2140 C 0.71574 0.35151 0.08577 0.0
C2141 C 0.71272 0.35239 0.10428 0.0
C2142 C 0.76098 0.31411 0.08814 0.0
C2143 C 0.73629 0.3314 0.08728 0.0
C2144 C 0.77091 0.30172 0.07986 0.0
C2145 C 0.76769 0.29422 0.06213 0.0
C2146 C 0.7479 0.31925 0.07857 0.0
C2147 C 0.75469 0.30003 0.05296 0.0
C2148 C 0.72741 0.34091 0.0772 0.0
C2149 C 0.72202 0.34284 0.11389 0.0
N2150 N 0.74526 0.31218 0.06129 0.0
N2151 N 0.73343 0.33275 0.10528 0.0
H2152 H 0.73048 0.35052 0.95073 0.0
H2153 H 0.76715 0.25986 0.94484 0.0
H2154 H 0.72082 0.31008 0.90598 0.0
H2155 H 0.77952 0.30295 0.98653 0.0
H2156 H 0.75073 0.27789 0.92974 0.0
H2157 H 0.74883 0.33304 0.96363 0.0
C2158 C 0.73223 0.33795 0.94359 0.0
C2159 C 0.72404 0.33174 0.92727 0.0
C2160 C 0.75711 0.28338 0.94217 0.0
C2161 C 0.7451 0.31155 0.94203 0.0
C2162 C 0.76654 0.27313 0.95073 0.0
C2163 C 0.77453 0.27983 0.96708 0.0
C2164 C 0.75573 0.30044 0.95002 0.0
C2165 C 0.77326 0.2971 0.97414 0.0
C2166 C 0.74276 0.32797 0.95096 0.0
C2167 C 0.72688 0.31537 0.91861 0.0
N2168 N 0.76399 0.30673 0.96564 0.0
N2169 N 0.73712 0.30579 0.92613 0.0
H2170 H 0.68453 0.70434 0.93079 0.0
H2171 H 0.7553 0.71854 0.00844 0.0
H2172 H 0.70897 0.66303 0.94638 0.0
H2173 H 0.7309 0.75979 0.99269 0.0
H2174 H 0.73714 0.69764 0.98699 0.0
H2175 H 0.70072 0.7247 0.95399 0.0
C2176 C 0.69348 0.69958 0.93886 0.0
C2177 C 0.69562 0.68199 0.93635 0.0
C2178 C 0.73567 0.71126 0.98831 0.0
C2179 C 0.71388 0.70517 0.96334 0.0
C2180 C 0.74594 0.72316 0.00068 0.0
C2181 C 0.74471 0.74095 0.00228 0.0
C2182 C 0.7241 0.71719 0.97748 0.0
C2183 C 0.73247 0.74623 0.9917 0.0
C2184 C 0.70258 0.71119 0.95229 0.0
C2185 C 0.70695 0.67649 0.94775 0.0
N2186 N 0.72274 0.73444 0.9797 0.0
N2187 N 0.71568 0.68802 0.96068 0.0
H2188 H 0.40259 0.74842 0.93815 0.0
H2189 H 0.29689 0.72844 0.94415 0.0
H2190 H 0.37106 0.71071 0.90081 0.0
H2191 H 0.32879 0.76028 0.9855 0.0
H2192 H 0.32392 0.72087 0.92861 0.0
H2193 H 0.37574 0.75241 0.95606 0.0
C2194 C 0.39003 0.74085 0.93381 0.0
C2195 C 0.3891 0.72901 0.91811 0.0
C2196 C 0.32502 0.72938 0.94117 0.0
C2197 C 0.35829 0.7336 0.93845 0.0
C2198 C 0.30961 0.73372 0.95001 0.0
C2199 C 0.31064 0.74507 0.96606 0.0
C2200 C 0.34161 0.7366 0.94834 0.0
C2201 C 0.32741 0.75141 0.97319 0.0
C2202 C 0.37472 0.74309 0.94407 0.0
C2203 C 0.37249 0.7196 0.91307 0.0
N2204 N 0.34225 0.74723 0.96418 0.0
N2205 N 0.35773 0.72218 0.92315 0.0
H2206 H 0.32692 0.35025 0.9234 0.0
H2207 H 0.32197 0.30135 0.01009 0.0
H2208 H 0.37271 0.34583 0.95266 0.0
H2209 H 0.27618 0.30543 0.9807 0.0
H2210 H 0.34029 0.32094 0.99159 0.0
H2211 H 0.30779 0.33693 0.9463 0.0
C2212 C 0.33296 0.34664 0.93472 0.0
C2213 C 0.35148 0.34901 0.93599 0.0
C2214 C 0.3262 0.31771 0.98931 0.0
C2215 C 0.32962 0.33367 0.96226 0.0
C2216 C 0.31569 0.30663 0.99998 0.0
C2217 C 0.29752 0.30156 0.99683 0.0
C2218 C 0.31851 0.32377 0.97533 0.0
C2219 C 0.29018 0.30871 0.98339 0.0
C2220 C 0.32202 0.33902 0.9478 0.0
C2221 C 0.35852 0.34414 0.95102 0.0
N2222 N 0.30072 0.31929 0.97304 0.0
N2223 N 0.34761 0.33658 0.96347 0.0
H2224 H 0.61895 0.69655 0.24114 0.0
H2225 H 0.53634 0.74294 0.225 0.0
H2226 H 0.59491 0.69279 0.19001 0.0
H2227 H 0.5616 0.74798 0.27561 0.0
H2228 H 0.55473 0.72101 0.21298 0.0
H2229 H 0.59546 0.71207 0.25488 0.0
C2230 C 0.60864 0.69882 0.23282 0.0
C2231 C 0.60905 0.6935 0.21435 0.0
C2232 C 0.5561 0.72676 0.22678 0.0
C2233 C 0.5821 0.71138 0.23 0.0
C2234 C 0.54549 0.73917 0.23368 0.0
C2235 C 0.5476 0.74747 0.25126 0.0
C2236 C 0.5689 0.72261 0.23753 0.0
C2237 C 0.55977 0.74215 0.26188 0.0
C2238 C 0.59522 0.70771 0.24068 0.0
C2239 C 0.59525 0.69676 0.20428 0.0
N2240 N 0.57007 0.73022 0.25481 0.0
N2241 N 0.58246 0.7056 0.2122 0.0
H2242 H 0.36112 0.6259 0.21172 0.0
H2243 H 0.28903 0.54008 0.21605 0.0
H2244 H 0.33945 0.59351 0.16462 0.0
H2245 H 0.30369 0.57875 0.26125 0.0
H2246 H 0.3102 0.55716 0.19723 0.0
H2247 H 0.34279 0.60651 0.2302 0.0
C2248 C 0.35254 0.61467 0.20523 0.0
C2249 C 0.35175 0.61141 0.18656 0.0
C2250 C 0.30883 0.56184 0.21128 0.0
C2251 C 0.33066 0.58906 0.20776 0.0
C2252 C 0.29687 0.55206 0.22203 0.0
C2253 C 0.29454 0.55811 0.24018 0.0
C2254 C 0.31862 0.57768 0.21881 0.0
C2255 C 0.30492 0.57375 0.24726 0.0
C2256 C 0.34205 0.60359 0.21582 0.0
C2257 C 0.34041 0.59658 0.17896 0.0
N2258 N 0.31646 0.583 0.23656 0.0
N2259 N 0.33026 0.58596 0.18959 0.0
H2260 H 0.43771 0.32562 0.22133 0.0
H2261 H 0.52829 0.31231 0.26083 0.0
H2262 H 0.48819 0.3446 0.19724 0.0
H2263 H 0.47993 0.27535 0.26314 0.0
H2264 H 0.51383 0.32768 0.241 0.0
H2265 H 0.45296 0.31069 0.24081 0.0
C2266 C 0.45201 0.32667 0.22016 0.0
C2267 C 0.4617 0.33629 0.2076 0.0
C2268 C 0.50646 0.31621 0.24595 0.0
C2269 C 0.47923 0.31944 0.23001 0.0
C2270 C 0.51471 0.30737 0.25722 0.0
C2271 C 0.50534 0.29252 0.26392 0.0
C2272 C 0.48866 0.31035 0.24158 0.0
C2273 C 0.48763 0.28697 0.25885 0.0
C2274 C 0.46069 0.31811 0.23123 0.0
C2275 C 0.48022 0.3372 0.20666 0.0
N2276 N 0.47988 0.29594 0.24813 0.0
N2277 N 0.48843 0.32897 0.21782 0.0
H2278 H 0.71333 0.43369 0.16174 0.0
H2279 H 0.73862 0.45701 0.26456 0.0
H2280 H 0.68998 0.40502 0.20415 0.0
H2281 H 0.76634 0.48435 0.22317 0.0
H2282 H 0.718 0.44047 0.24262 0.0
H2283 H 0.73025 0.45496 0.18403 0.0
C2284 C 0.71161 0.43199 0.17572 0.0
C2285 C 0.70041 0.41746 0.18109 0.0
C2286 C 0.72851 0.45013 0.23827 0.0
C2287 C 0.7196 0.4416 0.2065 0.0
C2288 C 0.7403 0.45953 0.2508 0.0
C2289 C 0.75431 0.47185 0.24558 0.0
C2290 C 0.73077 0.45294 0.2203 0.0
C2291 C 0.7557 0.4749 0.22768 0.0
C2292 C 0.72129 0.44408 0.1884 0.0
C2293 C 0.69864 0.41587 0.19935 0.0
N2294 N 0.74417 0.46535 0.21558 0.0
N2295 N 0.70819 0.42772 0.21134 0.0
H2296 H 0.64124 0.38233 0.78742 0.0
H2297 H 0.54499 0.32489 0.78996 0.0
H2298 H 0.6094 0.37667 0.83558 0.0
H2299 H 0.57931 0.32647 0.74309 0.0
H2300 H 0.56569 0.34867 0.8056 0.0
H2301 H 0.61618 0.36666 0.76995 0.0
C2302 C 0.62892 0.378 0.79432 0.0
C2303 C 0.62754 0.38059 0.81303 0.0
C2304 C 0.56856 0.344 0.7918 0.0
C2305 C 0.59879 0.36252 0.79308 0.0
C2306 C 0.55667 0.33053 0.78284 0.0
C2307 C 0.56059 0.32356 0.7653 0.0
C2308 C 0.58444 0.35052 0.78314 0.0
C2309 C 0.57596 0.33128 0.75672 0.0
C2310 C 0.6146 0.36902 0.78433 0.0
C2311 C 0.61116 0.37479 0.82121 0.0
N2312 N 0.58742 0.34419 0.76578 0.0
N2313 N 0.5975 0.36586 0.8112 0.0
H2314 H 0.70477 0.61833 0.84789 0.0
H2315 H 0.75898 0.53827 0.83793 0.0
H2316 H 0.70144 0.58205 0.88647 0.0
H2317 H 0.76001 0.57306 0.7982 0.0
H2318 H 0.73706 0.55341 0.8554 0.0
H2319 H 0.7245 0.60147 0.8292 0.0
C2320 C 0.70816 0.6068 0.85243 0.0
C2321 C 0.70147 0.60163 0.86881 0.0
C2322 C 0.74203 0.55769 0.84282 0.0
C2323 C 0.72409 0.58223 0.84745 0.0
C2324 C 0.75446 0.54897 0.83278 0.0
C2325 C 0.76145 0.55446 0.81661 0.0
C2326 C 0.73654 0.57204 0.83669 0.0
C2327 C 0.75525 0.56856 0.81073 0.0
C2328 C 0.71942 0.59715 0.84173 0.0
C2329 C 0.7063 0.58654 0.87397 0.0
N2330 N 0.74322 0.5769 0.82079 0.0
N2331 N 0.71735 0.57741 0.86335 0.0
H2332 H 0.50294 0.75992 0.88535 0.0
H2333 H 0.56384 0.78026 0.81845 0.0
H2334 H 0.4683 0.78074 0.8534 0.0
H2335 H 0.53382 0.82053 0.81051 0.0
H2336 H 0.54381 0.7728 0.84316 0.0
H2337 H 0.52852 0.77511 0.87012 0.0
C2338 C 0.50071 0.76788 0.87529 0.0
C2339 C 0.48346 0.76876 0.87033 0.0
C2340 C 0.54189 0.78364 0.83644 0.0
C2341 C 0.51264 0.7858 0.85259 0.0
C2342 C 0.55336 0.78791 0.82224 0.0
C2343 C 0.55037 0.80087 0.81219 0.0
C2344 C 0.52725 0.79235 0.84054 0.0
C2345 C 0.53636 0.81014 0.81759 0.0
C2346 C 0.51534 0.77639 0.86647 0.0
C2347 C 0.48137 0.77944 0.85739 0.0
N2348 N 0.5251 0.80545 0.83116 0.0
N2349 N 0.49581 0.78741 0.84884 0.0
H2350 H 0.35636 0.44649 0.85253 0.0
H2351 H 0.31634 0.46262 0.76206 0.0
H2352 H 0.3378 0.40528 0.81077 0.0
H2353 H 0.3101 0.49662 0.81105 0.0
H2354 H 0.33008 0.44397 0.77853 0.0
H2355 H 0.34481 0.46731 0.83636 0.0
C2356 C 0.34995 0.44184 0.83994 0.0
C2357 C 0.348 0.42411 0.83299 0.0
C2358 C 0.32574 0.45552 0.78568 0.0
C2359 C 0.33507 0.44783 0.81442 0.0
C2360 C 0.31781 0.46619 0.77631 0.0
C2361 C 0.31162 0.48106 0.78521 0.0
C2362 C 0.32785 0.4598 0.80413 0.0
C2363 C 0.31459 0.48529 0.80361 0.0
C2364 C 0.34332 0.4537 0.8308 0.0
C2365 C 0.33952 0.41879 0.81667 0.0
N2366 N 0.32244 0.47465 0.8125 0.0
N2367 N 0.33349 0.4306 0.80791 0.0
H2368 H 0.7145 0.59927 0.20756 0.0
H2369 H 0.77371 0.58754 0.28838 0.0
H2370 H 0.72988 0.63982 0.25099 0.0
H2371 H 0.76532 0.55002 0.24107 0.0
H2372 H 0.75634 0.60612 0.27564 0.0
H2373 H 0.73167 0.58039 0.22031 0.0
C2374 C 0.7215 0.60423 0.21976 0.0
C2375 C 0.72074 0.6212 0.22819 0.0
C2376 C 0.75829 0.59382 0.26803 0.0
C2377 C 0.74038 0.59956 0.24295 0.0
C2378 C 0.76831 0.5832 0.27527 0.0
C2379 C 0.77116 0.56716 0.26577 0.0
C2380 C 0.75091 0.58841 0.25116 0.0
C2381 C 0.76338 0.56215 0.249 0.0
C2382 C 0.73132 0.59343 0.22704 0.0
C2383 C 0.7301 0.62687 0.24399 0.0
N2384 N 0.75366 0.57273 0.24224 0.0
N2385 N 0.73947 0.61608 0.25086 0.0
H2386 H 0.68974 0.41757 0.86223 0.0
H2387 H 0.78663 0.44654 0.82077 0.0
H2388 H 0.73554 0.39429 0.87057 0.0
H2389 H 0.74306 0.47424 0.8164 0.0
H2390 H 0.76779 0.42736 0.83917 0.0
H2391 H 0.70854 0.43826 0.84513 0.0
C2392 C 0.70365 0.41662 0.86025 0.0
C2393 C 0.71099 0.40395 0.86756 0.0
C2394 C 0.76232 0.43767 0.8343 0.0
C2395 C 0.73266 0.42784 0.84842 0.0
C2396 C 0.77308 0.44861 0.82376 0.0
C2397 C 0.76635 0.46192 0.81697 0.0
C2398 C 0.74461 0.43994 0.83802 0.0
C2399 C 0.74877 0.46417 0.82146 0.0
C2400 C 0.71444 0.42859 0.85068 0.0
C2401 C 0.72928 0.40379 0.86513 0.0
N2402 N 0.73843 0.45319 0.83159 0.0
N2403 N 0.73943 0.41547 0.85573 0.0
H2404 H 0.65571 0.7421 0.87589 0.0
H2405 H 0.65756 0.76853 0.77692 0.0
H2406 H 0.68568 0.71911 0.83176 0.0
H2407 H 0.62383 0.78753 0.81998 0.0
H2408 H 0.66946 0.75169 0.79718 0.0
H2409 H 0.64536 0.76022 0.856 0.0
C2410 C 0.66019 0.74091 0.86204 0.0
C2411 C 0.67155 0.729 0.8555 0.0
C2412 C 0.65945 0.75954 0.80219 0.0
C2413 C 0.65969 0.74972 0.83259 0.0
C2414 C 0.65271 0.76922 0.79064 0.0
C2415 C 0.63959 0.7794 0.79671 0.0
C2416 C 0.65312 0.7601 0.81998 0.0
C2417 C 0.63371 0.77966 0.81462 0.0
C2418 C 0.65423 0.75124 0.85067 0.0
C2419 C 0.6769 0.72806 0.8374 0.0
N2420 N 0.64051 0.77018 0.82559 0.0
N2421 N 0.67091 0.73824 0.82659 0.0
H2422 H 0.36228 0.63151 0.87058 0.0
H2423 H 0.33671 0.5945 0.7711 0.0
H2424 H 0.38803 0.65378 0.82508 0.0
H2425 H 0.32287 0.56457 0.8149 0.0
H2426 H 0.3569 0.6156 0.7904 0.0
H2427 H 0.34867 0.60625 0.85049 0.0
C2428 C 0.36517 0.63104 0.85638 0.0
C2429 C 0.37614 0.64486 0.84948 0.0
C2430 C 0.34971 0.60427 0.79574 0.0
C2431 C 0.36057 0.61606 0.82643 0.0
C2432 C 0.33822 0.59225 0.78472 0.0
C2433 C 0.32811 0.57789 0.79151 0.0
C2434 C 0.3508 0.60209 0.81376 0.0
C2435 C 0.33051 0.57548 0.8092 0.0
C2436 C 0.35746 0.61658 0.84493 0.0
C2437 C 0.37955 0.64348 0.83099 0.0
N2438 N 0.3414 0.58764 0.81984 0.0
N2439 N 0.37162 0.62945 0.82009 0.0
H2440 H 0.42247 0.34159 0.85704 0.0
H2441 H 0.44781 0.31079 0.75551 0.0
H2442 H 0.40308 0.3616 0.81261 0.0
H2443 H 0.47681 0.30113 0.79965 0.0
H2444 H 0.43063 0.3287 0.77631 0.0
H2445 H 0.44198 0.32616 0.83642 0.0
C2446 C 0.42238 0.34285 0.84296 0.0
C2447 C 0.41104 0.35289 0.83657 0.0
C2448 C 0.44081 0.32274 0.78146 0.0
C2449 C 0.43327 0.33507 0.81284 0.0
C2450 C 0.45054 0.31243 0.76961 0.0
C2451 C 0.46369 0.30437 0.77588 0.0
C2452 C 0.44407 0.3249 0.7998 0.0
C2453 C 0.46684 0.30715 0.79425 0.0
C2454 C 0.43356 0.33404 0.8312 0.0
C2455 C 0.41158 0.35404 0.81818 0.0
N2456 N 0.45701 0.31707 0.80559 0.0
N2457 N 0.42238 0.34512 0.80696 0.0
H2458 H 0.30504 0.38489 0.18572 0.0
H2459 H 0.30241 0.48256 0.23164 0.0
H2460 H 0.3482 0.42737 0.18218 0.0
H2461 H 0.25939 0.44004 0.2355 0.0
H2462 H 0.31812 0.46321 0.21093 0.0
H2463 H 0.28705 0.40543 0.20157 0.0
C2464 C 0.31071 0.39855 0.18815 0.0
C2465 C 0.32823 0.40437 0.18272 0.0
C2466 C 0.30518 0.45814 0.21619 0.0
C2467 C 0.30769 0.42799 0.20096 0.0
C2468 C 0.29613 0.46923 0.22792 0.0
C2469 C 0.2796 0.4629 0.23545 0.0
C2470 C 0.29769 0.44055 0.21195 0.0
C2471 C 0.27224 0.44541 0.23028 0.0
C2472 C 0.30042 0.41028 0.19722 0.0
C2473 C 0.33481 0.42226 0.1862 0.0
N2474 N 0.28138 0.43484 0.21897 0.0
N2475 N 0.32458 0.43339 0.19519 0.0
H2476 H 0.60724 0.32679 0.17059 0.0
H2477 H 0.61402 0.26033 0.24034 0.0
H2478 H 0.65718 0.31193 0.18153 0.0
H2479 H 0.57424 0.29391 0.24209 0.0
H2480 H 0.62793 0.27323 0.21422 0.0
H2481 H 0.59241 0.30752 0.1913 0.0
C2482 C 0.61507 0.31927 0.17711 0.0
C2483 C 0.63353 0.32126 0.17458 0.0
C2484 C 0.61601 0.2775 0.22029 0.0
C2485 C 0.61661 0.29925 0.19843 0.0
C2486 C 0.60812 0.27026 0.23526 0.0
C2487 C 0.59276 0.27583 0.24345 0.0
C2488 C 0.60833 0.29021 0.21339 0.0
C2489 C 0.58569 0.28869 0.23607 0.0
C2490 C 0.60659 0.30832 0.189 0.0
C2491 C 0.64293 0.31097 0.18328 0.0
N2492 N 0.59349 0.29534 0.22152 0.0
N2493 N 0.63439 0.30055 0.19502 0.0
H2494 H 0.38084 0.70836 0.17958 0.0
H2495 H 0.47749 0.75566 0.20717 0.0
H2496 H 0.42705 0.68612 0.15929 0.0
H2497 H 0.43175 0.75443 0.24316 0.0
H2498 H 0.45957 0.73487 0.18534 0.0
H2499 H 0.3999 0.73102 0.19824 0.0
C2500 C 0.39502 0.70837 0.17883 0.0
C2501 C 0.40234 0.6952 0.16796 0.0
C2502 C 0.45356 0.73933 0.19802 0.0
C2503 C 0.4242 0.7212 0.18929 0.0
C2504 C 0.46377 0.7511 0.21057 0.0
C2505 C 0.45618 0.75703 0.22713 0.0
C2506 C 0.43559 0.73373 0.20193 0.0
C2507 C 0.43818 0.75077 0.23049 0.0
C2508 C 0.40586 0.72126 0.18957 0.0
C2509 C 0.42085 0.69594 0.16759 0.0
N2510 N 0.42853 0.73959 0.218 0.0
N2511 N 0.43119 0.70873 0.17816 0.0
loop_
_geom_bond_atom_site_label_1
_geom_bond_atom_site_label_2
_geom_bond_distance
_geom_bond_site_symmetry_2
_ccdc_geom_bond_type
O0 Cd1 2.300 . S
O0 C7 1.275 . S
Cd1 O0 2.300 . S
Cd1 O9 2.381 . S
Cd1 O10 2.378 . S
O2 Cd3 2.385 . S
O2 C7 1.255 . S
Cd3 O2 2.385 . S
Cd3 O4 2.317 . S
O4 Cd3 2.317 . S
O4 C5 1.232 . S
C5 O4 1.232 . S
C5 O6 1.218 . S
O6 C5 1.218 . S
C7 O0 1.275 . S
C7 O2 1.255 . S
C8 O9 1.258 . S
C8 O10 1.256 . S
O9 Cd1 2.381 . S
O9 C8 1.258 . S
O10 Cd1 2.378 . S
O10 C8 1.256 . S
O11 Cd12 2.300 . S
O11 C18 1.275 . S
Cd12 O11 2.300 . S
Cd12 O20 2.381 . S
Cd12 O21 2.378 . S
O13 Cd14 2.385 . S
O13 C18 1.255 . S
Cd14 O13 2.385 . S
Cd14 O15 2.317 . S
O15 Cd14 2.317 . S
O15 C16 1.232 . S
C16 O15 1.232 . S
C16 O17 1.218 . S
O17 C16 1.218 . S
C18 O11 1.275 . S
C18 O13 1.255 . S
C19 O20 1.258 . S
C19 O21 1.256 . S
O20 Cd12 2.381 . S
O20 C19 1.258 . S
O21 Cd12 2.378 . S
O21 C19 1.256 . S
O22 Cd23 2.300 . S
O22 C29 1.275 . S
Cd23 O22 2.300 . S
Cd23 O31 2.381 . S
Cd23 O32 2.378 . S
O24 Cd25 2.385 . S
O24 C29 1.255 . S
Cd25 O24 2.385 . S
Cd25 O26 2.317 . S
O26 Cd25 2.317 . S
O26 C27 1.232 . S
C27 O26 1.232 . S
C27 O28 1.218 . S
O28 C27 1.218 . S
C29 O22 1.275 . S
C29 O24 1.255 . S
C30 O31 1.258 . S
C30 O32 1.256 . S
O31 Cd23 2.381 . S
O31 C30 1.258 . S
O32 Cd23 2.378 . S
O32 C30 1.256 . S
O33 Cd34 2.300 . S
O33 C40 1.275 . S
Cd34 O33 2.300 . S
Cd34 O42 2.381 . S
Cd34 O43 2.378 . S
O35 Cd36 2.385 . S
O35 C40 1.255 . S
Cd36 O35 2.385 . S
Cd36 O37 2.317 . S
O37 Cd36 2.317 . S
O37 C38 1.232 . S
C38 O37 1.232 . S
C38 O39 1.218 . S
O39 C38 1.218 . S
C40 O33 1.275 . S
C40 O35 1.255 . S
C41 O42 1.258 . S
C41 O43 1.256 . S
O42 Cd34 2.381 . S
O42 C41 1.258 . S
O43 Cd34 2.378 . S
O43 C41 1.256 . S
O44 Cd45 2.300 . S
O44 C51 1.275 . S
Cd45 O44 2.300 . S
Cd45 O53 2.381 . S
Cd45 O54 2.378 . S
O46 Cd47 2.385 . S
O46 C51 1.255 . S
Cd47 O46 2.385 . S
Cd47 O48 2.317 . S
O48 Cd47 2.317 . S
O48 C49 1.232 . S
C49 O48 1.232 . S
C49 O50 1.218 . S
O50 C49 1.218 . S
C51 O44 1.275 . S
C51 O46 1.255 . S
C52 O53 1.258 . S
C52 O54 1.256 . S
O53 Cd45 2.381 . S
O53 C52 1.258 . S
O54 Cd45 2.378 . S
O54 C52 1.256 . S
O55 Cd56 2.300 . S
O55 C62 1.275 . S
Cd56 O55 2.300 . S
Cd56 O64 2.381 . S
Cd56 O65 2.378 . S
O57 Cd58 2.385 . S
O57 C62 1.255 . S
Cd58 O57 2.385 . S
Cd58 O59 2.317 . S
O59 Cd58 2.317 . S
O59 C60 1.232 . S
C60 O59 1.232 . S
C60 O61 1.218 . S
O61 C60 1.218 . S
C62 O55 1.275 . S
C62 O57 1.255 . S
C63 O64 1.258 . S
C63 O65 1.256 . S
O64 Cd56 2.381 . S
O64 C63 1.258 . S
O65 Cd56 2.378 . S
O65 C63 1.256 . S
O66 Cd67 2.300 . S
O66 C73 1.275 . S
Cd67 O66 2.300 . S
Cd67 O75 2.381 . S
Cd67 O76 2.378 . S
O68 Cd69 2.385 . S
O68 C73 1.255 . S
Cd69 O68 2.385 . S
Cd69 O70 2.317 . S
O70 Cd69 2.317 . S
O70 C71 1.232 . S
C71 O70 1.232 . S
C71 O72 1.218 . S
O72 C71 1.218 . S
C73 O66 1.275 . S
C73 O68 1.255 . S
C74 O75 1.258 . S
C74 O76 1.256 . S
O75 Cd67 2.381 . S
O75 C74 1.258 . S
O76 Cd67 2.378 . S
O76 C74 1.256 . S
O77 Cd78 2.300 . S
O77 C84 1.275 . S
Cd78 O77 2.300 . S
Cd78 O86 2.381 . S
Cd78 O87 2.378 . S
O79 Cd80 2.385 . S
O79 C84 1.255 . S
Cd80 O79 2.385 . S
Cd80 O81 2.317 . S
O81 Cd80 2.317 . S
O81 C82 1.232 . S
C82 O81 1.232 . S
C82 O83 1.218 . S
O83 C82 1.218 . S
C84 O77 1.275 . S
C84 O79 1.255 . S
C85 O86 1.258 . S
C85 O87 1.256 . S
O86 Cd78 2.381 . S
O86 C85 1.258 . S
O87 Cd78 2.378 . S
O87 C85 1.256 . S
O88 Cd89 2.300 . S
O88 C95 1.275 . S
Cd89 O88 2.300 . S
Cd89 O97 2.381 . S
Cd89 O98 2.378 . S
O90 Cd91 2.385 . S
O90 C95 1.255 . S
Cd91 O90 2.385 . S
Cd91 O92 2.317 . S
O92 Cd91 2.317 . S
O92 C93 1.232 . S
C93 O92 1.232 . S
C93 O94 1.218 . S
O94 C93 1.218 . S
C95 O88 1.275 . S
C95 O90 1.255 . S
C96 O97 1.258 . S
C96 O98 1.256 . S
O97 Cd89 2.381 . S
O97 C96 1.258 . S
O98 Cd89 2.378 . S
O98 C96 1.256 . S
O99 Cd100 2.300 . S
O99 C106 1.275 . S
Cd100 O99 2.300 . S
Cd100 O108 2.381 . S
Cd100 O109 2.378 . S
O101 Cd102 2.385 . S
O101 C106 1.255 . S
Cd102 O101 2.385 . S
Cd102 O103 2.317 . S
O103 Cd102 2.317 . S
O103 C104 1.232 . S
C104 O103 1.232 . S
C104 O105 1.218 . S
O105 C104 1.218 . S
C106 O99 1.275 . S
C106 O101 1.255 . S
C107 O108 1.258 . S
C107 O109 1.256 . S
O108 Cd100 2.381 . S
O108 C107 1.258 . S
O109 Cd100 2.378 . S
O109 C107 1.256 . S
O110 Cd111 2.300 . S
O110 C117 1.275 . S
Cd111 O110 2.300 . S
Cd111 O119 2.381 . S
Cd111 O120 2.378 . S
O112 Cd113 2.385 . S
O112 C117 1.255 . S
Cd113 O112 2.385 . S
Cd113 O114 2.317 . S
O114 Cd113 2.317 . S
O114 C115 1.232 . S
C115 O114 1.232 . S
C115 O116 1.218 . S
O116 C115 1.218 . S
C117 O110 1.275 . S
C117 O112 1.255 . S
C118 O119 1.258 . S
C118 O120 1.256 . S
O119 Cd111 2.381 . S
O119 C118 1.258 . S
O120 Cd111 2.378 . S
O120 C118 1.256 . S
O121 Cd122 2.300 . S
O121 C128 1.275 . S
Cd122 O121 2.300 . S
Cd122 O130 2.381 . S
Cd122 O131 2.378 . S
O123 Cd124 2.385 . S
O123 C128 1.255 . S
Cd124 O123 2.385 . S
Cd124 O125 2.317 . S
O125 Cd124 2.317 . S
O125 C126 1.232 . S
C126 O125 1.232 . S
C126 O127 1.218 . S
O127 C126 1.218 . S
C128 O121 1.275 . S
C128 O123 1.255 . S
C129 O130 1.258 . S
C129 O131 1.256 . S
O130 Cd122 2.381 . S
O130 C129 1.258 . S
O131 Cd122 2.378 . S
O131 C129 1.256 . S
O132 Cd133 2.300 . S
O132 C139 1.275 . S
Cd133 O132 2.300 . S
Cd133 O141 2.381 . S
Cd133 O142 2.378 . S
O134 Cd135 2.385 . S
O134 C139 1.255 . S
Cd135 O134 2.385 . S
Cd135 O136 2.317 . S
O136 Cd135 2.317 . S
O136 C137 1.232 . S
C137 O136 1.232 . S
C137 O138 1.218 . S
O138 C137 1.218 . S
C139 O132 1.275 . S
C139 O134 1.255 . S
C140 O141 1.258 . S
C140 O142 1.256 . S
O141 Cd133 2.381 . S
O141 C140 1.258 . S
O142 Cd133 2.378 . S
O142 C140 1.256 . S
O143 Cd144 2.300 . S
O143 C150 1.275 . S
Cd144 O143 2.300 . S
Cd144 O152 2.381 . S
Cd144 O153 2.378 . S
O145 Cd146 2.385 . S
O145 C150 1.255 . S
Cd146 O145 2.385 . S
Cd146 O147 2.317 . S
O147 Cd146 2.317 . S
O147 C148 1.232 . S
C148 O147 1.232 . S
C148 O149 1.218 . S
O149 C148 1.218 . S
C150 O143 1.275 . S
C150 O145 1.255 . S
C151 O152 1.258 . S
C151 O153 1.256 . S
O152 Cd144 2.381 . S
O152 C151 1.258 . S
O153 Cd144 2.378 . S
O153 C151 1.256 . S
O154 Cd155 2.300 . S
O154 C161 1.275 . S
Cd155 O154 2.300 . S
Cd155 O163 2.381 . S
Cd155 O164 2.378 . S
O156 Cd157 2.385 . S
O156 C161 1.255 . S
Cd157 O156 2.385 . S
Cd157 O158 2.317 . S
O158 Cd157 2.317 . S
O158 C159 1.232 . S
C159 O158 1.232 . S
C159 O160 1.218 . S
O160 C159 1.218 . S
C161 O154 1.275 . S
C161 O156 1.255 . S
C162 O163 1.258 . S
C162 O164 1.256 . S
O163 Cd155 2.381 . S
O163 C162 1.258 . S
O164 Cd155 2.378 . S
O164 C162 1.256 . S
O165 Cd166 2.300 . S
O165 C172 1.275 . S
Cd166 O165 2.300 . S
Cd166 O174 2.381 . S
Cd166 O175 2.378 . S
O167 Cd168 2.385 . S
O167 C172 1.255 . S
Cd168 O167 2.385 . S
Cd168 O169 2.317 . S
O169 Cd168 2.317 . S
O169 C170 1.232 . S
C170 O169 1.232 . S
C170 O171 1.218 . S
O171 C170 1.218 . S
C172 O165 1.275 . S
C172 O167 1.255 . S
C173 O174 1.258 . S
C173 O175 1.256 . S
O174 Cd166 2.381 . S
O174 C173 1.258 . S
O175 Cd166 2.378 . S
O175 C173 1.256 . S
O176 Cd177 2.300 . S
O176 C183 1.275 . S
Cd177 O176 2.300 . S
Cd177 O185 2.381 . S
Cd177 O186 2.378 . S
O178 Cd179 2.385 . S
O178 C183 1.255 . S
Cd179 O178 2.385 . S
Cd179 O180 2.317 . S
O180 Cd179 2.317 . S
O180 C181 1.232 . S
C181 O180 1.232 . S
C181 O182 1.218 . S
O182 C181 1.218 . S
C183 O176 1.275 . S
C183 O178 1.255 . S
C184 O185 1.258 . S
C184 O186 1.256 . S
O185 Cd177 2.381 . S
O185 C184 1.258 . S
O186 Cd177 2.378 . S
O186 C184 1.256 . S
O187 Cd188 2.300 . S
O187 C194 1.275 . S
Cd188 O187 2.300 . S
Cd188 O196 2.381 . S
Cd188 O197 2.378 . S
O189 Cd190 2.385 . S
O189 C194 1.255 . S
Cd190 O189 2.385 . S
Cd190 O191 2.317 . S
O191 Cd190 2.317 . S
O191 C192 1.232 . S
C192 O191 1.232 . S
C192 O193 1.218 . S
O193 C192 1.218 . S
C194 O187 1.275 . S
C194 O189 1.255 . S
C195 O196 1.258 . S
C195 O197 1.256 . S
O196 Cd188 2.381 . S
O196 C195 1.258 . S
O197 Cd188 2.378 . S
O197 C195 1.256 . S
O198 Cd199 2.300 . S
O198 C205 1.275 . S
Cd199 O198 2.300 . S
Cd199 O207 2.381 . S
Cd199 O208 2.378 . S
O200 Cd201 2.385 . S
O200 C205 1.255 . S
Cd201 O200 2.385 . S
Cd201 O202 2.317 . S
O202 Cd201 2.317 . S
O202 C203 1.232 . S
C203 O202 1.232 . S
C203 O204 1.218 . S
O204 C203 1.218 . S
C205 O198 1.275 . S
C205 O200 1.255 . S
C206 O207 1.258 . S
C206 O208 1.256 . S
O207 Cd199 2.381 . S
O207 C206 1.258 . S
O208 Cd199 2.378 . S
O208 C206 1.256 . S
O209 Cd210 2.300 . S
O209 C216 1.275 . S
Cd210 O209 2.300 . S
Cd210 O218 2.381 . S
Cd210 O219 2.378 . S
O211 Cd212 2.385 . S
O211 C216 1.255 . S
Cd212 O211 2.385 . S
Cd212 O213 2.317 . S
O213 Cd212 2.317 . S
O213 C214 1.232 . S
C214 O213 1.232 . S
C214 O215 1.218 . S
O215 C214 1.218 . S
C216 O209 1.275 . S
C216 O211 1.255 . S
C217 O218 1.258 . S
C217 O219 1.256 . S
O218 Cd210 2.381 . S
O218 C217 1.258 . S
O219 Cd210 2.378 . S
O219 C217 1.256 . S
O220 Cd221 2.300 . S
O220 C227 1.275 . S
Cd221 O220 2.300 . S
Cd221 O229 2.381 . S
Cd221 O230 2.378 . S
O222 Cd223 2.385 . S
O222 C227 1.255 . S
Cd223 O222 2.385 . S
Cd223 O224 2.317 . S
O224 Cd223 2.317 . S
O224 C225 1.232 . S
C225 O224 1.232 . S
C225 O226 1.218 . S
O226 C225 1.218 . S
C227 O220 1.275 . S
C227 O222 1.255 . S
C228 O229 1.258 . S
C228 O230 1.256 . S
O229 Cd221 2.381 . S
O229 C228 1.258 . S
O230 Cd221 2.378 . S
O230 C228 1.256 . S
O231 Cd232 2.300 . S
O231 C238 1.275 . S
Cd232 O231 2.300 . S
Cd232 O240 2.381 . S
Cd232 O241 2.378 . S
O233 Cd234 2.385 . S
O233 C238 1.255 . S
Cd234 O233 2.385 . S
Cd234 O235 2.317 . S
O235 Cd234 2.317 . S
O235 C236 1.232 . S
C236 O235 1.232 . S
C236 O237 1.218 . S
O237 C236 1.218 . S
C238 O231 1.275 . S
C238 O233 1.255 . S
C239 O240 1.258 . S
C239 O241 1.256 . S
O240 Cd232 2.381 . S
O240 C239 1.258 . S
O241 Cd232 2.378 . S
O241 C239 1.256 . S
O242 Cd243 2.300 . S
O242 C249 1.275 . S
Cd243 O242 2.300 . S
Cd243 O251 2.381 . S
Cd243 O252 2.378 . S
O244 Cd245 2.385 . S
O244 C249 1.255 . S
Cd245 O244 2.385 . S
Cd245 O246 2.317 . S
O246 Cd245 2.317 . S
O246 C247 1.232 . S
C247 O246 1.232 . S
C247 O248 1.218 . S
O248 C247 1.218 . S
C249 O242 1.275 . S
C249 O244 1.255 . S
C250 O251 1.258 . S
C250 O252 1.256 . S
O251 Cd243 2.381 . S
O251 C250 1.258 . S
O252 Cd243 2.378 . S
O252 C250 1.256 . S
O253 Cd254 2.300 . S
O253 C260 1.275 . S
Cd254 O253 2.300 . S
Cd254 O262 2.381 . S
Cd254 O263 2.378 . S
O255 Cd256 2.385 . S
O255 C260 1.255 . S
Cd256 O255 2.385 . S
Cd256 O257 2.317 . S
O257 Cd256 2.317 . S
O257 C258 1.232 . S
C258 O257 1.232 . S
C258 O259 1.218 . S
O259 C258 1.218 . S
C260 O253 1.275 . S
C260 O255 1.255 . S
C261 O262 1.258 . S
C261 O263 1.256 . S
O262 Cd254 2.381 . S
O262 C261 1.258 . S
O263 Cd254 2.378 . S
O263 C261 1.256 . S
O264 Cd265 2.300 . S
O264 C271 1.275 . S
Cd265 O264 2.300 . S
Cd265 O273 2.381 . S
Cd265 O274 2.378 . S
O266 Cd267 2.385 . S
O266 C271 1.255 . S
Cd267 O266 2.385 . S
Cd267 O268 2.317 . S
O268 Cd267 2.317 . S
O268 C269 1.232 . S
C269 O268 1.232 . S
C269 O270 1.218 . S
O270 C269 1.218 . S
C271 O264 1.275 . S
C271 O266 1.255 . S
C272 O273 1.258 . S
C272 O274 1.256 . S
O273 Cd265 2.381 . S
O273 C272 1.258 . S
O274 Cd265 2.378 . S
O274 C272 1.256 . S
O275 Cd276 2.300 . S
O275 C282 1.275 . S
Cd276 O275 2.300 . S
Cd276 O284 2.381 . S
Cd276 O285 2.378 . S
O277 Cd278 2.385 . S
O277 C282 1.255 . S
Cd278 O277 2.385 . S
Cd278 O279 2.317 . S
O279 Cd278 2.317 . S
O279 C280 1.232 . S
C280 O279 1.232 . S
C280 O281 1.218 . S
O281 C280 1.218 . S
C282 O275 1.275 . S
C282 O277 1.255 . S
C283 O284 1.258 . S
C283 O285 1.256 . S
O284 Cd276 2.381 . S
O284 C283 1.258 . S
O285 Cd276 2.378 . S
O285 C283 1.256 . S
O286 Cd287 2.300 . S
O286 C293 1.275 . S
Cd287 O286 2.300 . S
Cd287 O295 2.381 . S
Cd287 O296 2.378 . S
O288 Cd289 2.385 . S
O288 C293 1.255 . S
Cd289 O288 2.385 . S
Cd289 O290 2.317 . S
O290 Cd289 2.317 . S
O290 C291 1.232 . S
C291 O290 1.232 . S
C291 O292 1.218 . S
O292 C291 1.218 . S
C293 O286 1.275 . S
C293 O288 1.255 . S
C294 O295 1.258 . S
C294 O296 1.256 . S
O295 Cd287 2.381 . S
O295 C294 1.258 . S
O296 Cd287 2.378 . S
O296 C294 1.256 . S
O297 Cd298 2.300 . S
O297 C304 1.275 . S
Cd298 O297 2.300 . S
Cd298 O306 2.381 . S
Cd298 O307 2.378 . S
O299 Cd300 2.385 . S
O299 C304 1.255 . S
Cd300 O299 2.385 . S
Cd300 O301 2.317 . S
O301 Cd300 2.317 . S
O301 C302 1.232 . S
C302 O301 1.232 . S
C302 O303 1.218 . S
O303 C302 1.218 . S
C304 O297 1.275 . S
C304 O299 1.255 . S
C305 O306 1.258 . S
C305 O307 1.256 . S
O306 Cd298 2.381 . S
O306 C305 1.258 . S
O307 Cd298 2.378 . S
O307 C305 1.256 . S
O308 Cd309 2.300 . S
O308 C315 1.275 . S
Cd309 O308 2.300 . S
Cd309 O317 2.381 . S
Cd309 O318 2.378 . S
O310 Cd311 2.385 . S
O310 C315 1.255 . S
Cd311 O310 2.385 . S
Cd311 O312 2.317 . S
O312 Cd311 2.317 . S
O312 C313 1.232 . S
C313 O312 1.232 . S
C313 O314 1.218 . S
O314 C313 1.218 . S
C315 O308 1.275 . S
C315 O310 1.255 . S
C316 O317 1.258 . S
C316 O318 1.256 . S
O317 Cd309 2.381 . S
O317 C316 1.258 . S
O318 Cd309 2.378 . S
O318 C316 1.256 . S
O319 Cd320 2.300 . S
O319 C326 1.275 . S
Cd320 O319 2.300 . S
Cd320 O328 2.381 . S
Cd320 O329 2.378 . S
O321 Cd322 2.385 . S
O321 C326 1.255 . S
Cd322 O321 2.385 . S
Cd322 O323 2.317 . S
O323 Cd322 2.317 . S
O323 C324 1.232 . S
C324 O323 1.232 . S
C324 O325 1.218 . S
O325 C324 1.218 . S
C326 O319 1.275 . S
C326 O321 1.255 . S
C327 O328 1.258 . S
C327 O329 1.256 . S
O328 Cd320 2.381 . S
O328 C327 1.258 . S
O329 Cd320 2.378 . S
O329 C327 1.256 . S
O330 Cd331 2.300 . S
O330 C337 1.275 . S
Cd331 O330 2.300 . S
Cd331 O339 2.381 . S
Cd331 O340 2.378 . S
O332 Cd333 2.385 . S
O332 C337 1.255 . S
Cd333 O332 2.385 . S
Cd333 O334 2.317 . S
O334 Cd333 2.317 . S
O334 C335 1.232 . S
C335 O334 1.232 . S
C335 O336 1.218 . S
O336 C335 1.218 . S
C337 O330 1.275 . S
C337 O332 1.255 . S
C338 O339 1.258 . S
C338 O340 1.256 . S
O339 Cd331 2.381 . S
O339 C338 1.258 . S
O340 Cd331 2.378 . S
O340 C338 1.256 . S
O341 Cd342 2.300 . S
O341 C348 1.275 . S
Cd342 O341 2.300 . S
Cd342 O350 2.381 . S
Cd342 O351 2.378 . S
O343 Cd344 2.385 . S
O343 C348 1.255 . S
Cd344 O343 2.385 . S
Cd344 O345 2.317 . S
O345 Cd344 2.317 . S
O345 C346 1.232 . S
C346 O345 1.232 . S
C346 O347 1.218 . S
O347 C346 1.218 . S
C348 O341 1.275 . S
C348 O343 1.255 . S
C349 O350 1.258 . S
C349 O351 1.256 . S
O350 Cd342 2.381 . S
O350 C349 1.258 . S
O351 Cd342 2.378 . S
O351 C349 1.256 . S
H352 C358 0.930 . S
H353 C361 0.931 . S
H354 C363 0.931 . S
H355 C365 0.930 . S
H356 C367 0.930 . S
H357 C369 0.931 . S
C358 H352 0.930 . S
C358 C359 1.380 1_556 S
C358 C360 1.394 1_556 S
C359 C358 1.380 1_554 S
C359 C363 1.382 . S
C360 C358 1.394 1_554 S
C360 C361 1.400 . S
C361 H353 0.931 . S
C361 C360 1.400 . S
C361 C362 1.375 . S
C362 C361 1.375 . S
C362 C363 1.415 . S
C362 C364 1.501 . S
C363 H354 0.931 . S
C363 C359 1.382 . S
C363 C362 1.415 . S
C364 C362 1.501 . S
C364 C365 1.384 . S
C364 C369 1.408 . S
C365 H355 0.930 . S
C365 C364 1.384 . S
C365 C366 1.389 . S
C366 C365 1.389 . S
C366 C367 1.405 . S
C367 H356 0.930 . S
C367 C366 1.405 . S
C367 C368 1.364 . S
C368 C367 1.364 . S
C368 C369 1.400 . S
C369 H357 0.931 . S
C369 C364 1.408 . S
C369 C368 1.400 . S
H370 C376 0.930 . S
H371 C379 0.931 . S
H372 C381 0.931 . S
H373 C383 0.930 . S
H374 C385 0.930 . S
H375 C387 0.931 . S
C376 H370 0.930 . S
C376 C377 1.380 . S
C376 C378 1.394 . S
C377 C376 1.380 . S
C377 C381 1.382 . S
C378 C376 1.394 . S
C378 C379 1.400 . S
C379 H371 0.931 . S
C379 C378 1.400 . S
C379 C380 1.375 . S
C380 C379 1.375 . S
C380 C381 1.415 . S
C380 C382 1.501 1_554 S
C381 H372 0.931 . S
C381 C377 1.382 . S
C381 C380 1.415 . S
C382 C380 1.501 1_556 S
C382 C383 1.384 . S
C382 C387 1.408 . S
C383 H373 0.930 . S
C383 C382 1.384 . S
C383 C384 1.389 . S
C384 C383 1.389 . S
C384 C385 1.405 . S
C385 H374 0.930 . S
C385 C384 1.405 . S
C385 C386 1.364 . S
C386 C385 1.364 . S
C386 C387 1.400 . S
C387 H375 0.931 . S
C387 C382 1.408 . S
C387 C386 1.400 . S
H388 C394 0.930 . S
H389 C397 0.931 . S
H390 C399 0.931 . S
H391 C401 0.930 . S
H392 C403 0.930 . S
H393 C405 0.931 . S
C394 H388 0.930 . S
C394 C395 1.380 1_556 S
C394 C396 1.394 1_556 S
C395 C394 1.380 1_554 S
C395 C399 1.382 . S
C396 C394 1.394 1_554 S
C396 C397 1.400 . S
C397 H389 0.931 . S
C397 C396 1.400 . S
C397 C398 1.375 . S
C398 C397 1.375 . S
C398 C399 1.415 . S
C398 C400 1.501 . S
C399 H390 0.931 . S
C399 C395 1.382 . S
C399 C398 1.415 . S
C400 C398 1.501 . S
C400 C401 1.384 . S
C400 C405 1.408 . S
C401 H391 0.930 . S
C401 C400 1.384 . S
C401 C402 1.389 . S
C402 C401 1.389 . S
C402 C403 1.405 . S
C403 H392 0.930 . S
C403 C402 1.405 . S
C403 C404 1.364 . S
C404 C403 1.364 . S
C404 C405 1.400 . S
C405 H393 0.931 . S
C405 C400 1.408 . S
C405 C404 1.400 . S
H406 C412 0.930 . S
H407 C415 0.931 . S
H408 C417 0.931 . S
H409 C419 0.930 . S
H410 C421 0.930 . S
H411 C423 0.931 . S
C412 H406 0.930 . S
C412 C413 1.380 . S
C412 C414 1.394 . S
C413 C412 1.380 . S
C413 C417 1.382 . S
C414 C412 1.394 . S
C414 C415 1.400 . S
C415 H407 0.931 . S
C415 C414 1.400 . S
C415 C416 1.375 . S
C416 C415 1.375 . S
C416 C417 1.415 . S
C416 C418 1.501 1_554 S
C417 H408 0.931 . S
C417 C413 1.382 . S
C417 C416 1.415 . S
C418 C416 1.501 1_556 S
C418 C419 1.384 . S
C418 C423 1.408 . S
C419 H409 0.930 . S
C419 C418 1.384 . S
C419 C420 1.389 . S
C420 C419 1.389 . S
C420 C421 1.405 . S
C421 H410 0.930 . S
C421 C420 1.405 . S
C421 C422 1.364 . S
C422 C421 1.364 . S
C422 C423 1.400 . S
C423 H411 0.931 . S
C423 C418 1.408 . S
C423 C422 1.400 . S
H424 C430 0.930 . S
H425 C433 0.931 . S
H426 C435 0.931 . S
H427 C437 0.930 . S
H428 C439 0.930 . S
H429 C441 0.931 . S
C430 H424 0.930 . S
C430 C431 1.380 . S
C430 C432 1.394 . S
C431 C430 1.380 . S
C431 C435 1.382 . S
C432 C430 1.394 . S
C432 C433 1.400 . S
C433 H425 0.931 . S
C433 C432 1.400 . S
C433 C434 1.375 . S
C434 C433 1.375 . S
C434 C435 1.415 . S
C434 C436 1.501 1_455 S
C435 H426 0.931 . S
C435 C431 1.382 . S
C435 C434 1.415 . S
C436 C434 1.501 1_655 S
C436 C437 1.384 . S
C436 C441 1.408 . S
C437 H427 0.930 . S
C437 C436 1.384 . S
C437 C438 1.389 . S
C438 C437 1.389 . S
C438 C439 1.405 . S
C439 H428 0.930 . S
C439 C438 1.405 . S
C439 C440 1.364 . S
C440 C439 1.364 . S
C440 C441 1.400 . S
C441 H429 0.931 . S
C441 C436 1.408 . S
C441 C440 1.400 . S
H442 C448 0.930 . S
H443 C451 0.931 . S
H444 C453 0.931 . S
H445 C455 0.930 . S
H446 C457 0.930 . S
H447 C459 0.931 . S
C448 H442 0.930 . S
C448 C449 1.380 . S
C448 C450 1.394 . S
C449 C448 1.380 . S
C449 C453 1.382 . S
C450 C448 1.394 . S
C450 C451 1.400 . S
C451 H443 0.931 . S
C451 C450 1.400 . S
C451 C452 1.375 . S
C452 C451 1.375 . S
C452 C453 1.415 . S
C452 C454 1.501 1_565 S
C453 H444 0.931 . S
C453 C449 1.382 . S
C453 C452 1.415 . S
C454 C452 1.501 1_545 S
C454 C455 1.384 . S
C454 C459 1.408 . S
C455 H445 0.930 . S
C455 C454 1.384 . S
C455 C456 1.389 . S
C456 C455 1.389 . S
C456 C457 1.405 . S
C457 H446 0.930 . S
C457 C456 1.405 . S
C457 C458 1.364 . S
C458 C457 1.364 . S
C458 C459 1.400 . S
C459 H447 0.931 . S
C459 C454 1.408 . S
C459 C458 1.400 . S
H460 C466 0.930 . S
H461 C469 0.931 . S
H462 C471 0.931 . S
H463 C473 0.930 . S
H464 C475 0.930 . S
H465 C477 0.931 . S
C466 H460 0.930 . S
C466 C467 1.380 . S
C466 C468 1.394 . S
C467 C466 1.380 . S
C467 C471 1.382 . S
C468 C466 1.394 . S
C468 C469 1.400 . S
C469 H461 0.931 . S
C469 C468 1.400 . S
C469 C470 1.375 . S
C470 C469 1.375 . S
C470 C471 1.415 . S
C470 C472 1.501 . S
C471 H462 0.931 . S
C471 C467 1.382 . S
C471 C470 1.415 . S
C472 C470 1.501 . S
C472 C473 1.384 . S
C472 C477 1.408 . S
C473 H463 0.930 . S
C473 C472 1.384 . S
C473 C474 1.389 . S
C474 C473 1.389 . S
C474 C475 1.405 . S
C475 H464 0.930 . S
C475 C474 1.405 . S
C475 C476 1.364 . S
C476 C475 1.364 . S
C476 C477 1.400 . S
C477 H465 0.931 . S
C477 C472 1.408 . S
C477 C476 1.400 . S
H478 C484 0.930 . S
H479 C487 0.931 . S
H480 C489 0.931 . S
H481 C491 0.930 . S
H482 C493 0.930 . S
H483 C495 0.931 . S
C484 H478 0.930 . S
C484 C485 1.380 . S
C484 C486 1.394 . S
C485 C484 1.380 . S
C485 C489 1.382 . S
C486 C484 1.394 . S
C486 C487 1.400 . S
C487 H479 0.931 . S
C487 C486 1.400 . S
C487 C488 1.375 . S
C488 C487 1.375 . S
C488 C489 1.415 . S
C488 C490 1.501 . S
C489 H480 0.931 . S
C489 C485 1.382 . S
C489 C488 1.415 . S
C490 C488 1.501 . S
C490 C491 1.384 . S
C490 C495 1.408 1_545 S
C491 H481 0.930 . S
C491 C490 1.384 . S
C491 C492 1.389 1_545 S
C492 C491 1.389 1_565 S
C492 C493 1.405 . S
C493 H482 0.930 . S
C493 C492 1.405 . S
C493 C494 1.364 . S
C494 C493 1.364 . S
C494 C495 1.400 . S
C495 H483 0.931 . S
C495 C490 1.408 1_565 S
C495 C494 1.400 . S
H496 C502 0.930 . S
H497 C505 0.931 . S
H498 C507 0.931 . S
H499 C509 0.930 . S
H500 C511 0.930 . S
H501 C513 0.931 . S
C502 H496 0.930 . S
C502 C503 1.380 . S
C502 C504 1.394 . S
C503 C502 1.380 . S
C503 C507 1.382 . S
C504 C502 1.394 . S
C504 C505 1.400 . S
C505 H497 0.931 . S
C505 C504 1.400 . S
C505 C506 1.375 . S
C506 C505 1.375 . S
C506 C507 1.415 . S
C506 C508 1.501 1_455 S
C507 H498 0.931 . S
C507 C503 1.382 . S
C507 C506 1.415 . S
C508 C506 1.501 1_655 S
C508 C509 1.384 . S
C508 C513 1.408 . S
C509 H499 0.930 . S
C509 C508 1.384 . S
C509 C510 1.389 . S
C510 C509 1.389 . S
C510 C511 1.405 . S
C511 H500 0.930 . S
C511 C510 1.405 . S
C511 C512 1.364 . S
C512 C511 1.364 . S
C512 C513 1.400 . S
C513 H501 0.931 . S
C513 C508 1.408 . S
C513 C512 1.400 . S
H514 C520 0.930 . S
H515 C523 0.931 . S
H516 C525 0.931 . S
H517 C527 0.930 . S
H518 C529 0.930 . S
H519 C531 0.931 . S
C520 H514 0.930 . S
C520 C521 1.380 . S
C520 C522 1.394 . S
C521 C520 1.380 . S
C521 C525 1.382 . S
C522 C520 1.394 . S
C522 C523 1.400 . S
C523 H515 0.931 . S
C523 C522 1.400 . S
C523 C524 1.375 . S
C524 C523 1.375 . S
C524 C525 1.415 . S
C524 C526 1.501 1_565 S
C525 H516 0.931 . S
C525 C521 1.382 . S
C525 C524 1.415 . S
C526 C524 1.501 1_545 S
C526 C527 1.384 . S
C526 C531 1.408 . S
C527 H517 0.930 . S
C527 C526 1.384 . S
C527 C528 1.389 . S
C528 C527 1.389 . S
C528 C529 1.405 . S
C529 H518 0.930 . S
C529 C528 1.405 . S
C529 C530 1.364 . S
C530 C529 1.364 . S
C530 C531 1.400 . S
C531 H519 0.931 . S
C531 C526 1.408 . S
C531 C530 1.400 . S
H532 C538 0.930 . S
H533 C541 0.931 . S
H534 C543 0.931 . S
H535 C545 0.930 . S
H536 C547 0.930 . S
H537 C549 0.931 . S
C538 H532 0.930 . S
C538 C539 1.380 . S
C538 C540 1.394 . S
C539 C538 1.380 . S
C539 C543 1.382 . S
C540 C538 1.394 . S
C540 C541 1.400 . S
C541 H533 0.931 . S
C541 C540 1.400 . S
C541 C542 1.375 . S
C542 C541 1.375 . S
C542 C543 1.415 . S
C542 C544 1.501 . S
C543 H534 0.931 . S
C543 C539 1.382 . S
C543 C542 1.415 . S
C544 C542 1.501 . S
C544 C545 1.384 . S
C544 C549 1.408 . S
C545 H535 0.930 . S
C545 C544 1.384 . S
C545 C546 1.389 . S
C546 C545 1.389 . S
C546 C547 1.405 . S
C547 H536 0.930 . S
C547 C546 1.405 . S
C547 C548 1.364 . S
C548 C547 1.364 . S
C548 C549 1.400 . S
C549 H537 0.931 . S
C549 C544 1.408 . S
C549 C548 1.400 . S
H550 C556 0.930 . S
H551 C559 0.931 . S
H552 C561 0.931 . S
H553 C563 0.930 . S
H554 C565 0.930 . S
H555 C567 0.931 . S
C556 H550 0.930 . S
C556 C557 1.380 . S
C556 C558 1.394 . S
C557 C556 1.380 . S
C557 C561 1.382 . S
C558 C556 1.394 . S
C558 C559 1.400 . S
C559 H551 0.931 . S
C559 C558 1.400 . S
C559 C560 1.375 . S
C560 C559 1.375 . S
C560 C561 1.415 . S
C560 C562 1.501 . S
C561 H552 0.931 . S
C561 C557 1.382 . S
C561 C560 1.415 . S
C562 C560 1.501 . S
C562 C563 1.384 . S
C562 C567 1.408 1_545 S
C563 H553 0.930 . S
C563 C562 1.384 . S
C563 C564 1.389 1_545 S
C564 C563 1.389 1_565 S
C564 C565 1.405 . S
C565 H554 0.930 . S
C565 C564 1.405 . S
C565 C566 1.364 . S
C566 C565 1.364 . S
C566 C567 1.400 . S
C567 H555 0.931 . S
C567 C562 1.408 1_565 S
C567 C566 1.400 . S
H568 C574 0.930 . S
H569 C577 0.931 . S
H570 C579 0.931 . S
H571 C581 0.930 . S
H572 C583 0.930 . S
H573 C585 0.931 . S
C574 H568 0.930 . S
C574 C575 1.380 . S
C574 C576 1.394 . S
C575 C574 1.380 . S
C575 C579 1.382 . S
C576 C574 1.394 . S
C576 C577 1.400 . S
C577 H569 0.931 . S
C577 C576 1.400 . S
C577 C578 1.375 . S
C578 C577 1.375 . S
C578 C579 1.415 . S
C578 C580 1.501 . S
C579 H570 0.931 . S
C579 C575 1.382 . S
C579 C578 1.415 . S
C580 C578 1.501 . S
C580 C581 1.384 . S
C580 C585 1.408 . S
C581 H571 0.930 . S
C581 C580 1.384 . S
C581 C582 1.389 . S
C582 C581 1.389 . S
C582 C583 1.405 . S
C583 H572 0.930 . S
C583 C582 1.405 . S
C583 C584 1.364 . S
C584 C583 1.364 . S
C584 C585 1.400 . S
C585 H573 0.931 . S
C585 C580 1.408 . S
C585 C584 1.400 . S
H586 C592 0.930 . S
H587 C595 0.931 . S
H588 C597 0.931 . S
H589 C599 0.930 . S
H590 C601 0.930 . S
H591 C603 0.931 . S
C592 H586 0.930 . S
C592 C593 1.380 . S
C592 C594 1.394 . S
C593 C592 1.380 . S
C593 C597 1.382 . S
C594 C592 1.394 . S
C594 C595 1.400 . S
C595 H587 0.931 . S
C595 C594 1.400 . S
C595 C596 1.375 . S
C596 C595 1.375 . S
C596 C597 1.415 . S
C596 C598 1.501 . S
C597 H588 0.931 . S
C597 C593 1.382 . S
C597 C596 1.415 . S
C598 C596 1.501 . S
C598 C599 1.384 . S
C598 C603 1.408 . S
C599 H589 0.930 . S
C599 C598 1.384 . S
C599 C600 1.389 . S
C600 C599 1.389 . S
C600 C601 1.405 . S
C601 H590 0.930 . S
C601 C600 1.405 . S
C601 C602 1.364 . S
C602 C601 1.364 . S
C602 C603 1.400 . S
C603 H591 0.931 . S
C603 C598 1.408 . S
C603 C602 1.400 . S
H604 C610 0.930 . S
H605 C613 0.931 . S
H606 C615 0.931 . S
H607 C617 0.930 . S
H608 C619 0.930 . S
H609 C621 0.931 . S
C610 H604 0.930 . S
C610 C611 1.380 . S
C610 C612 1.394 . S
C611 C610 1.380 . S
C611 C615 1.382 . S
C612 C610 1.394 . S
C612 C613 1.400 . S
C613 H605 0.931 . S
C613 C612 1.400 . S
C613 C614 1.375 . S
C614 C613 1.375 . S
C614 C615 1.415 . S
C614 C616 1.501 . S
C615 H606 0.931 . S
C615 C611 1.382 . S
C615 C614 1.415 . S
C616 C614 1.501 . S
C616 C617 1.384 . S
C616 C621 1.408 . S
C617 H607 0.930 . S
C617 C616 1.384 . S
C617 C618 1.389 . S
C618 C617 1.389 . S
C618 C619 1.405 . S
C619 H608 0.930 . S
C619 C618 1.405 . S
C619 C620 1.364 . S
C620 C619 1.364 . S
C620 C621 1.400 . S
C621 H609 0.931 . S
C621 C616 1.408 . S
C621 C620 1.400 . S
H622 C628 0.930 . S
H623 C631 0.931 . S
H624 C633 0.931 . S
H625 C635 0.930 . S
H626 C637 0.930 . S
H627 C639 0.931 . S
C628 H622 0.930 . S
C628 C629 1.380 . S
C628 C630 1.394 . S
C629 C628 1.380 . S
C629 C633 1.382 . S
C630 C628 1.394 . S
C630 C631 1.400 . S
C631 H623 0.931 . S
C631 C630 1.400 . S
C631 C632 1.375 . S
C632 C631 1.375 . S
C632 C633 1.415 . S
C632 C634 1.501 . S
C633 H624 0.931 . S
C633 C629 1.382 . S
C633 C632 1.415 . S
C634 C632 1.501 . S
C634 C635 1.384 . S
C634 C639 1.408 . S
C635 H625 0.930 . S
C635 C634 1.384 . S
C635 C636 1.389 . S
C636 C635 1.389 . S
C636 C637 1.405 . S
C637 H626 0.930 . S
C637 C636 1.405 . S
C637 C638 1.364 . S
C638 C637 1.364 . S
C638 C639 1.400 . S
C639 H627 0.931 . S
C639 C634 1.408 . S
C639 C638 1.400 . S
H640 C646 0.930 . S
H641 C649 0.931 . S
H642 C651 0.931 . S
H643 C653 0.930 . S
H644 C655 0.930 . S
H645 C657 0.931 . S
C646 H640 0.930 . S
C646 C647 1.380 . S
C646 C648 1.394 . S
C647 C646 1.380 . S
C647 C651 1.382 . S
C648 C646 1.394 . S
C648 C649 1.400 . S
C649 H641 0.931 . S
C649 C648 1.400 . S
C649 C650 1.375 . S
C650 C649 1.375 . S
C650 C651 1.415 . S
C650 C652 1.501 . S
C651 H642 0.931 . S
C651 C647 1.382 . S
C651 C650 1.415 . S
C652 C650 1.501 . S
C652 C653 1.384 . S
C652 C657 1.408 . S
C653 H643 0.930 . S
C653 C652 1.384 . S
C653 C654 1.389 . S
C654 C653 1.389 . S
C654 C655 1.405 . S
C655 H644 0.930 . S
C655 C654 1.405 . S
C655 C656 1.364 . S
C656 C655 1.364 . S
C656 C657 1.400 . S
C657 H645 0.931 . S
C657 C652 1.408 . S
C657 C656 1.400 . S
H658 C664 0.930 . S
H659 C667 0.931 . S
H660 C669 0.931 . S
H661 C671 0.930 . S
H662 C673 0.930 . S
H663 C675 0.931 . S
C664 H658 0.930 . S
C664 C665 1.380 . S
C664 C666 1.394 . S
C665 C664 1.380 . S
C665 C669 1.382 . S
C666 C664 1.394 . S
C666 C667 1.400 . S
C667 H659 0.931 . S
C667 C666 1.400 . S
C667 C668 1.375 . S
C668 C667 1.375 . S
C668 C669 1.415 . S
C668 C670 1.501 . S
C669 H660 0.931 . S
C669 C665 1.382 . S
C669 C668 1.415 . S
C670 C668 1.501 . S
C670 C671 1.384 . S
C670 C675 1.408 . S
C671 H661 0.930 . S
C671 C670 1.384 . S
C671 C672 1.389 . S
C672 C671 1.389 . S
C672 C673 1.405 . S
C673 H662 0.930 . S
C673 C672 1.405 . S
C673 C674 1.364 . S
C674 C673 1.364 . S
C674 C675 1.400 . S
C675 H663 0.931 . S
C675 C670 1.408 . S
C675 C674 1.400 . S
H676 C682 0.930 . S
H677 C685 0.931 . S
H678 C687 0.931 . S
H679 C689 0.930 . S
H680 C691 0.930 . S
H681 C693 0.931 . S
C682 H676 0.930 . S
C682 C683 1.380 . S
C682 C684 1.394 . S
C683 C682 1.380 . S
C683 C687 1.382 . S
C684 C682 1.394 . S
C684 C685 1.400 . S
C685 H677 0.931 . S
C685 C684 1.400 . S
C685 C686 1.375 . S
C686 C685 1.375 . S
C686 C687 1.415 . S
C686 C688 1.501 . S
C687 H678 0.931 . S
C687 C683 1.382 . S
C687 C686 1.415 . S
C688 C686 1.501 . S
C688 C689 1.384 . S
C688 C693 1.408 . S
C689 H679 0.930 . S
C689 C688 1.384 . S
C689 C690 1.389 . S
C690 C689 1.389 . S
C690 C691 1.405 . S
C691 H680 0.930 . S
C691 C690 1.405 . S
C691 C692 1.364 . S
C692 C691 1.364 . S
C692 C693 1.400 . S
C693 H681 0.931 . S
C693 C688 1.408 . S
C693 C692 1.400 . S
H694 C700 0.930 . S
H695 C703 0.931 . S
H696 C705 0.931 . S
H697 C707 0.930 . S
H698 C709 0.930 . S
H699 C711 0.931 . S
C700 H694 0.930 . S
C700 C701 1.380 . S
C700 C702 1.394 . S
C701 C700 1.380 . S
C701 C705 1.382 . S
C702 C700 1.394 . S
C702 C703 1.400 . S
C703 H695 0.931 . S
C703 C702 1.400 . S
C703 C704 1.375 . S
C704 C703 1.375 . S
C704 C705 1.415 . S
C704 C706 1.501 . S
C705 H696 0.931 . S
C705 C701 1.382 . S
C705 C704 1.415 . S
C706 C704 1.501 . S
C706 C707 1.384 . S
C706 C711 1.408 . S
C707 H697 0.930 . S
C707 C706 1.384 . S
C707 C708 1.389 . S
C708 C707 1.389 . S
C708 C709 1.405 . S
C709 H698 0.930 . S
C709 C708 1.405 . S
C709 C710 1.364 . S
C710 C709 1.364 . S
C710 C711 1.400 . S
C711 H699 0.931 . S
C711 C706 1.408 . S
C711 C710 1.400 . S
H712 C718 0.930 . S
H713 C721 0.931 . S
H714 C723 0.931 . S
H715 C725 0.930 . S
H716 C727 0.930 . S
H717 C729 0.931 . S
C718 H712 0.930 . S
C718 C719 1.380 . S
C718 C720 1.394 . S
C719 C718 1.380 . S
C719 C723 1.382 . S
C720 C718 1.394 . S
C720 C721 1.400 . S
C721 H713 0.931 . S
C721 C720 1.400 . S
C721 C722 1.375 . S
C722 C721 1.375 . S
C722 C723 1.415 . S
C722 C724 1.501 . S
C723 H714 0.931 . S
C723 C719 1.382 . S
C723 C722 1.415 . S
C724 C722 1.501 . S
C724 C725 1.384 . S
C724 C729 1.408 . S
C725 H715 0.930 . S
C725 C724 1.384 . S
C725 C726 1.389 . S
C726 C725 1.389 . S
C726 C727 1.405 . S
C727 H716 0.930 . S
C727 C726 1.405 . S
C727 C728 1.364 . S
C728 C727 1.364 . S
C728 C729 1.400 . S
C729 H717 0.931 . S
C729 C724 1.408 . S
C729 C728 1.400 . S
H730 C736 0.930 . S
H731 C739 0.931 . S
H732 C741 0.931 . S
H733 C743 0.930 . S
H734 C745 0.930 . S
H735 C747 0.931 . S
C736 H730 0.930 . S
C736 C737 1.380 . S
C736 C738 1.394 . S
C737 C736 1.380 . S
C737 C741 1.382 . S
C738 C736 1.394 . S
C738 C739 1.400 . S
C739 H731 0.931 . S
C739 C738 1.400 . S
C739 C740 1.375 . S
C740 C739 1.375 . S
C740 C741 1.415 . S
C740 C742 1.501 . S
C741 H732 0.931 . S
C741 C737 1.382 . S
C741 C740 1.415 . S
C742 C740 1.501 . S
C742 C743 1.384 . S
C742 C747 1.408 . S
C743 H733 0.930 . S
C743 C742 1.384 . S
C743 C744 1.389 . S
C744 C743 1.389 . S
C744 C745 1.405 . S
C745 H734 0.930 . S
C745 C744 1.405 . S
C745 C746 1.364 . S
C746 C745 1.364 . S
C746 C747 1.400 . S
C747 H735 0.931 . S
C747 C742 1.408 . S
C747 C746 1.400 . S
H748 C754 0.930 . S
H749 C757 0.931 . S
H750 C759 0.931 . S
H751 C761 0.930 . S
H752 C763 0.930 . S
H753 C765 0.931 . S
C754 H748 0.930 . S
C754 C755 1.380 . S
C754 C756 1.394 . S
C755 C754 1.380 . S
C755 C759 1.382 . S
C756 C754 1.394 . S
C756 C757 1.400 . S
C757 H749 0.931 . S
C757 C756 1.400 . S
C757 C758 1.375 . S
C758 C757 1.375 . S
C758 C759 1.415 . S
C758 C760 1.501 . S
C759 H750 0.931 . S
C759 C755 1.382 . S
C759 C758 1.415 . S
C760 C758 1.501 . S
C760 C761 1.384 . S
C760 C765 1.408 . S
C761 H751 0.930 . S
C761 C760 1.384 . S
C761 C762 1.389 . S
C762 C761 1.389 . S
C762 C763 1.405 . S
C763 H752 0.930 . S
C763 C762 1.405 . S
C763 C764 1.364 . S
C764 C763 1.364 . S
C764 C765 1.400 . S
C765 H753 0.931 . S
C765 C760 1.408 . S
C765 C764 1.400 . S
H766 C772 0.930 . S
H767 C775 0.931 . S
H768 C777 0.931 . S
H769 C779 0.930 . S
H770 C781 0.930 . S
H771 C783 0.931 . S
C772 H766 0.930 . S
C772 C773 1.380 . S
C772 C774 1.394 . S
C773 C772 1.380 . S
C773 C777 1.382 . S
C774 C772 1.394 . S
C774 C775 1.400 . S
C775 H767 0.931 . S
C775 C774 1.400 . S
C775 C776 1.375 . S
C776 C775 1.375 . S
C776 C777 1.415 . S
C776 C778 1.501 . S
C777 H768 0.931 . S
C777 C773 1.382 . S
C777 C776 1.415 . S
C778 C776 1.501 . S
C778 C779 1.384 . S
C778 C783 1.408 . S
C779 H769 0.930 . S
C779 C778 1.384 . S
C779 C780 1.389 . S
C780 C779 1.389 . S
C780 C781 1.405 . S
C781 H770 0.930 . S
C781 C780 1.405 . S
C781 C782 1.364 . S
C782 C781 1.364 . S
C782 C783 1.400 . S
C783 H771 0.931 . S
C783 C778 1.408 . S
C783 C782 1.400 . S
H784 C790 0.930 . S
H785 C794 0.930 . S
H786 C799 0.929 . S
H787 C797 0.929 . S
H788 C792 0.929 . S
H789 C798 0.929 . S
C790 H784 0.930 . S
C790 C791 1.367 . S
C790 C798 1.378 . S
C791 C790 1.367 . S
C791 C799 1.433 . S
C792 H788 0.929 . S
C792 C794 1.378 . S
C792 C796 1.350 . S
C793 C796 1.463 . S
C793 C798 1.350 . S
C793 N801 1.427 . S
C794 H785 0.930 . S
C794 C792 1.378 . S
C794 C795 1.367 . S
C795 C794 1.367 . S
C795 C797 1.433 . S
C796 C792 1.350 . S
C796 C793 1.463 . S
C796 N800 1.427 . S
C797 H787 0.929 . S
C797 C795 1.433 . S
C797 N800 1.384 . S
C798 H789 0.929 . S
C798 C790 1.378 . S
C798 C793 1.350 . S
C799 H786 0.929 . S
C799 C791 1.433 . S
C799 N801 1.384 . S
N800 C796 1.427 . S
N800 C797 1.384 . S
N801 C793 1.427 . S
N801 C799 1.384 . S
H802 C808 0.930 . S
H803 C812 0.930 . S
H804 C817 0.929 . S
H805 C815 0.929 . S
H806 C810 0.929 . S
H807 C816 0.929 . S
C808 H802 0.930 . S
C808 C809 1.367 . S
C808 C816 1.378 . S
C809 C808 1.367 . S
C809 C817 1.433 . S
C810 H806 0.929 . S
C810 C812 1.378 . S
C810 C814 1.350 . S
C811 C814 1.463 . S
C811 C816 1.350 . S
C811 N819 1.427 . S
C812 H803 0.930 . S
C812 C810 1.378 . S
C812 C813 1.367 . S
C813 C812 1.367 . S
C813 C815 1.433 . S
C814 C810 1.350 . S
C814 C811 1.463 . S
C814 N818 1.427 . S
C815 H805 0.929 . S
C815 C813 1.433 . S
C815 N818 1.384 . S
C816 H807 0.929 . S
C816 C808 1.378 . S
C816 C811 1.350 . S
C817 H804 0.929 . S
C817 C809 1.433 . S
C817 N819 1.384 . S
N818 C814 1.427 . S
N818 C815 1.384 . S
N819 C811 1.427 . S
N819 C817 1.384 . S
H820 C826 0.930 . S
H821 C830 0.930 . S
H822 C835 0.929 . S
H823 C833 0.929 . S
H824 C828 0.929 . S
H825 C834 0.929 . S
C826 H820 0.930 . S
C826 C827 1.367 . S
C826 C834 1.378 . S
C827 C826 1.367 . S
C827 C835 1.433 . S
C828 H824 0.929 . S
C828 C830 1.378 . S
C828 C832 1.350 . S
C829 C832 1.463 . S
C829 C834 1.350 . S
C829 N837 1.427 . S
C830 H821 0.930 . S
C830 C828 1.378 . S
C830 C831 1.367 . S
C831 C830 1.367 . S
C831 C833 1.433 . S
C832 C828 1.350 . S
C832 C829 1.463 . S
C832 N836 1.427 . S
C833 H823 0.929 . S
C833 C831 1.433 . S
C833 N836 1.384 . S
C834 H825 0.929 . S
C834 C826 1.378 . S
C834 C829 1.350 . S
C835 H822 0.929 . S
C835 C827 1.433 . S
C835 N837 1.384 . S
N836 C832 1.427 . S
N836 C833 1.384 . S
N837 C829 1.427 . S
N837 C835 1.384 . S
H838 C844 0.930 . S
H839 C848 0.930 . S
H840 C853 0.929 . S
H841 C851 0.929 . S
H842 C846 0.929 . S
H843 C852 0.929 . S
C844 H838 0.930 . S
C844 C845 1.367 . S
C844 C852 1.378 . S
C845 C844 1.367 . S
C845 C853 1.433 . S
C846 H842 0.929 . S
C846 C848 1.378 . S
C846 C850 1.350 . S
C847 C850 1.463 . S
C847 C852 1.350 . S
C847 N855 1.427 . S
C848 H839 0.930 . S
C848 C846 1.378 . S
C848 C849 1.367 . S
C849 C848 1.367 . S
C849 C851 1.433 . S
C850 C846 1.350 . S
C850 C847 1.463 . S
C850 N854 1.427 . S
C851 H841 0.929 . S
C851 C849 1.433 . S
C851 N854 1.384 . S
C852 H843 0.929 . S
C852 C844 1.378 . S
C852 C847 1.350 . S
C853 H840 0.929 . S
C853 C845 1.433 . S
C853 N855 1.384 . S
N854 C850 1.427 . S
N854 C851 1.384 . S
N855 C847 1.427 . S
N855 C853 1.384 . S
H856 C862 0.930 . S
H857 C866 0.930 . S
H858 C871 0.929 . S
H859 C869 0.929 . S
H860 C864 0.929 . S
H861 C870 0.929 . S
C862 H856 0.930 . S
C862 C863 1.367 . S
C862 C870 1.378 . S
C863 C862 1.367 . S
C863 C871 1.433 . S
C864 H860 0.929 . S
C864 C866 1.378 . S
C864 C868 1.350 . S
C865 C868 1.463 . S
C865 C870 1.350 . S
C865 N873 1.427 . S
C866 H857 0.930 . S
C866 C864 1.378 . S
C866 C867 1.367 . S
C867 C866 1.367 . S
C867 C869 1.433 . S
C868 C864 1.350 . S
C868 C865 1.463 . S
C868 N872 1.427 . S
C869 H859 0.929 . S
C869 C867 1.433 . S
C869 N872 1.384 . S
C870 H861 0.929 . S
C870 C862 1.378 . S
C870 C865 1.350 . S
C871 H858 0.929 . S
C871 C863 1.433 . S
C871 N873 1.384 . S
N872 C868 1.427 . S
N872 C869 1.384 . S
N873 C865 1.427 . S
N873 C871 1.384 . S
H874 C880 0.930 . S
H875 C884 0.930 . S
H876 C889 0.929 . S
H877 C887 0.929 . S
H878 C882 0.929 . S
H879 C888 0.929 . S
C880 H874 0.930 . S
C880 C881 1.367 . S
C880 C888 1.378 . S
C881 C880 1.367 . S
C881 C889 1.433 . S
C882 H878 0.929 . S
C882 C884 1.378 . S
C882 C886 1.350 . S
C883 C886 1.463 . S
C883 C888 1.350 . S
C883 N891 1.427 . S
C884 H875 0.930 . S
C884 C882 1.378 . S
C884 C885 1.367 . S
C885 C884 1.367 . S
C885 C887 1.433 . S
C886 C882 1.350 . S
C886 C883 1.463 . S
C886 N890 1.427 . S
C887 H877 0.929 . S
C887 C885 1.433 . S
C887 N890 1.384 . S
C888 H879 0.929 . S
C888 C880 1.378 . S
C888 C883 1.350 . S
C889 H876 0.929 . S
C889 C881 1.433 . S
C889 N891 1.384 . S
N890 C886 1.427 . S
N890 C887 1.384 . S
N891 C883 1.427 . S
N891 C889 1.384 . S
H892 C898 0.930 . S
H893 C902 0.930 . S
H894 C907 0.929 . S
H895 C905 0.929 . S
H896 C900 0.929 . S
H897 C906 0.929 . S
C898 H892 0.930 . S
C898 C899 1.367 . S
C898 C906 1.378 . S
C899 C898 1.367 . S
C899 C907 1.433 . S
C900 H896 0.929 . S
C900 C902 1.378 . S
C900 C904 1.350 . S
C901 C904 1.463 . S
C901 C906 1.350 . S
C901 N909 1.427 . S
C902 H893 0.930 . S
C902 C900 1.378 . S
C902 C903 1.367 . S
C903 C902 1.367 . S
C903 C905 1.433 . S
C904 C900 1.350 . S
C904 C901 1.463 . S
C904 N908 1.427 . S
C905 H895 0.929 . S
C905 C903 1.433 . S
C905 N908 1.384 . S
C906 H897 0.929 . S
C906 C898 1.378 . S
C906 C901 1.350 . S
C907 H894 0.929 . S
C907 C899 1.433 . S
C907 N909 1.384 . S
N908 C904 1.427 . S
N908 C905 1.384 . S
N909 C901 1.427 . S
N909 C907 1.384 . S
H910 C916 0.930 . S
H911 C920 0.930 . S
H912 C925 0.929 . S
H913 C923 0.929 . S
H914 C918 0.929 . S
H915 C924 0.929 . S
C916 H910 0.930 . S
C916 C917 1.367 . S
C916 C924 1.378 . S
C917 C916 1.367 . S
C917 C925 1.433 . S
C918 H914 0.929 . S
C918 C920 1.378 . S
C918 C922 1.350 . S
C919 C922 1.463 . S
C919 C924 1.350 . S
C919 N927 1.427 . S
C920 H911 0.930 . S
C920 C918 1.378 . S
C920 C921 1.367 . S
C921 C920 1.367 . S
C921 C923 1.433 . S
C922 C918 1.350 . S
C922 C919 1.463 . S
C922 N926 1.427 . S
C923 H913 0.929 . S
C923 C921 1.433 . S
C923 N926 1.384 . S
C924 H915 0.929 . S
C924 C916 1.378 . S
C924 C919 1.350 . S
C925 H912 0.929 . S
C925 C917 1.433 . S
C925 N927 1.384 . S
N926 C922 1.427 . S
N926 C923 1.384 . S
N927 C919 1.427 . S
N927 C925 1.384 . S
H928 C934 0.930 . S
H929 C938 0.930 . S
H930 C943 0.929 . S
H931 C941 0.929 . S
H932 C936 0.929 . S
H933 C942 0.929 . S
C934 H928 0.930 . S
C934 C935 1.367 . S
C934 C942 1.378 . S
C935 C934 1.367 . S
C935 C943 1.433 . S
C936 H932 0.929 . S
C936 C938 1.378 . S
C936 C940 1.350 . S
C937 C940 1.463 . S
C937 C942 1.350 . S
C937 N945 1.427 . S
C938 H929 0.930 . S
C938 C936 1.378 . S
C938 C939 1.367 . S
C939 C938 1.367 . S
C939 C941 1.433 . S
C940 C936 1.350 . S
C940 C937 1.463 . S
C940 N944 1.427 . S
C941 H931 0.929 . S
C941 C939 1.433 . S
C941 N944 1.384 . S
C942 H933 0.929 . S
C942 C934 1.378 . S
C942 C937 1.350 . S
C943 H930 0.929 . S
C943 C935 1.433 . S
C943 N945 1.384 . S
N944 C940 1.427 . S
N944 C941 1.384 . S
N945 C937 1.427 . S
N945 C943 1.384 . S
H946 C952 0.930 . S
H947 C956 0.930 . S
H948 C961 0.929 . S
H949 C959 0.929 . S
H950 C954 0.929 . S
H951 C960 0.929 . S
C952 H946 0.930 . S
C952 C953 1.367 . S
C952 C960 1.378 . S
C953 C952 1.367 . S
C953 C961 1.433 . S
C954 H950 0.929 . S
C954 C956 1.378 . S
C954 C958 1.350 . S
C955 C958 1.463 . S
C955 C960 1.350 . S
C955 N963 1.427 . S
C956 H947 0.930 . S
C956 C954 1.378 . S
C956 C957 1.367 . S
C957 C956 1.367 . S
C957 C959 1.433 . S
C958 C954 1.350 . S
C958 C955 1.463 . S
C958 N962 1.427 . S
C959 H949 0.929 . S
C959 C957 1.433 . S
C959 N962 1.384 . S
C960 H951 0.929 . S
C960 C952 1.378 . S
C960 C955 1.350 . S
C961 H948 0.929 . S
C961 C953 1.433 . S
C961 N963 1.384 . S
N962 C958 1.427 . S
N962 C959 1.384 . S
N963 C955 1.427 . S
N963 C961 1.384 . S
H964 C970 0.930 . S
H965 C974 0.930 . S
H966 C979 0.929 . S
H967 C977 0.929 . S
H968 C972 0.929 . S
H969 C978 0.929 . S
C970 H964 0.930 . S
C970 C971 1.367 . S
C970 C978 1.378 . S
C971 C970 1.367 . S
C971 C979 1.433 . S
C972 H968 0.929 . S
C972 C974 1.378 1_655 S
C972 C976 1.350 . S
C973 C976 1.463 . S
C973 C978 1.350 . S
C973 N981 1.427 . S
C974 H965 0.930 . S
C974 C972 1.378 1_455 S
C974 C975 1.367 . S
C975 C974 1.367 . S
C975 C977 1.433 . S
C976 C972 1.350 . S
C976 C973 1.463 . S
C976 N980 1.427 . S
C977 H967 0.929 . S
C977 C975 1.433 . S
C977 N980 1.384 1_455 S
C978 H969 0.929 . S
C978 C970 1.378 . S
C978 C973 1.350 . S
C979 H966 0.929 . S
C979 C971 1.433 . S
C979 N981 1.384 . S
N980 C976 1.427 . S
N980 C977 1.384 1_655 S
N981 C973 1.427 . S
N981 C979 1.384 . S
H982 C988 0.930 . S
H983 C992 0.930 . S
H984 C997 0.929 . S
H985 C995 0.929 . S
H986 C990 0.929 . S
H987 C996 0.929 . S
C988 H982 0.930 . S
C988 C989 1.367 . S
C988 C996 1.378 . S
C989 C988 1.367 . S
C989 C997 1.433 . S
C990 H986 0.929 . S
C990 C992 1.378 . S
C990 C994 1.350 . S
C991 C994 1.463 . S
C991 C996 1.350 . S
C991 N999 1.427 . S
C992 H983 0.930 . S
C992 C990 1.378 . S
C992 C993 1.367 . S
C993 C992 1.367 . S
C993 C995 1.433 . S
C994 C990 1.350 . S
C994 C991 1.463 . S
C994 N998 1.427 . S
C995 H985 0.929 . S
C995 C993 1.433 . S
C995 N998 1.384 . S
C996 H987 0.929 . S
C996 C988 1.378 . S
C996 C991 1.350 . S
C997 H984 0.929 . S
C997 C989 1.433 . S
C997 N999 1.384 . S
N998 C994 1.427 . S
N998 C995 1.384 . S
N999 C991 1.427 . S
N999 C997 1.384 . S
H1000 C1006 0.930 . S
H1001 C1010 0.930 . S
H1002 C1015 0.929 . S
H1003 C1013 0.929 . S
H1004 C1008 0.929 . S
H1005 C1014 0.929 . S
C1006 H1000 0.930 . S
C1006 C1007 1.367 . S
C1006 C1014 1.378 . S
C1007 C1006 1.367 . S
C1007 C1015 1.433 . S
C1008 H1004 0.929 . S
C1008 C1010 1.378 . S
C1008 C1012 1.350 . S
C1009 C1012 1.463 . S
C1009 C1014 1.350 . S
C1009 N1017 1.427 . S
C1010 H1001 0.930 . S
C1010 C1008 1.378 . S
C1010 C1011 1.367 . S
C1011 C1010 1.367 . S
C1011 C1013 1.433 . S
C1012 C1008 1.350 . S
C1012 C1009 1.463 . S
C1012 N1016 1.427 . S
C1013 H1003 0.929 . S
C1013 C1011 1.433 . S
C1013 N1016 1.384 . S
C1014 H1005 0.929 . S
C1014 C1006 1.378 . S
C1014 C1009 1.350 . S
C1015 H1002 0.929 . S
C1015 C1007 1.433 . S
C1015 N1017 1.384 . S
N1016 C1012 1.427 . S
N1016 C1013 1.384 . S
N1017 C1009 1.427 . S
N1017 C1015 1.384 . S
H1018 C1024 0.930 . S
H1019 C1028 0.930 . S
H1020 C1033 0.929 . S
H1021 C1031 0.929 . S
H1022 C1026 0.929 . S
H1023 C1032 0.929 . S
C1024 H1018 0.930 . S
C1024 C1025 1.367 . S
C1024 C1032 1.378 . S
C1025 C1024 1.367 . S
C1025 C1033 1.433 . S
C1026 H1022 0.929 . S
C1026 C1028 1.378 . S
C1026 C1030 1.350 . S
C1027 C1030 1.463 . S
C1027 C1032 1.350 . S
C1027 N1035 1.427 . S
C1028 H1019 0.930 . S
C1028 C1026 1.378 . S
C1028 C1029 1.367 . S
C1029 C1028 1.367 . S
C1029 C1031 1.433 . S
C1030 C1026 1.350 . S
C1030 C1027 1.463 . S
C1030 N1034 1.427 . S
C1031 H1021 0.929 . S
C1031 C1029 1.433 . S
C1031 N1034 1.384 . S
C1032 H1023 0.929 . S
C1032 C1024 1.378 . S
C1032 C1027 1.350 . S
C1033 H1020 0.929 . S
C1033 C1025 1.433 . S
C1033 N1035 1.384 . S
N1034 C1030 1.427 . S
N1034 C1031 1.384 . S
N1035 C1027 1.427 . S
N1035 C1033 1.384 . S
H1036 C1042 0.930 . S
H1037 C1046 0.954 . S
H1038 C1051 0.929 . S
H1039 C1049 0.929 1_455 S
H1040 C1044 0.929 . S
H1041 C1050 0.929 . S
C1042 H1036 0.930 . S
C1042 C1043 1.367 . S
C1042 C1050 1.378 . S
C1043 C1042 1.367 . S
C1043 C1051 1.433 . S
C1044 H1040 0.929 . S
C1044 C1046 1.345 1_655 S
C1044 C1048 1.350 . S
C1045 C1048 1.463 . S
C1045 C1050 1.350 . S
C1045 N1053 1.427 . S
C1046 H1037 0.954 . S
C1046 C1044 1.345 1_455 S
C1046 C1047 1.377 . S
C1047 C1046 1.377 . S
C1047 C1049 1.433 1_455 S
C1048 C1044 1.350 . S
C1048 C1045 1.463 . S
C1048 N1052 1.427 . S
C1049 H1039 0.929 1_655 S
C1049 C1047 1.433 1_655 S
C1049 N1052 1.384 . S
C1050 H1041 0.929 . S
C1050 C1042 1.378 . S
C1050 C1045 1.350 . S
C1051 H1038 0.929 . S
C1051 C1043 1.433 . S
C1051 N1053 1.384 . S
N1052 C1048 1.427 . S
N1052 C1049 1.384 . S
N1053 C1045 1.427 . S
N1053 C1051 1.384 . S
H1054 C1060 0.930 . S
H1055 C1064 0.930 . S
H1056 C1069 0.929 . S
H1057 C1067 0.929 . S
H1058 C1062 0.929 . S
H1059 C1068 0.929 . S
C1060 H1054 0.930 . S
C1060 C1061 1.367 . S
C1060 C1068 1.378 . S
C1061 C1060 1.367 . S
C1061 C1069 1.433 . S
C1062 H1058 0.929 . S
C1062 C1064 1.378 . S
C1062 C1066 1.350 . S
C1063 C1066 1.463 . S
C1063 C1068 1.350 . S
C1063 N1071 1.427 . S
C1064 H1055 0.930 . S
C1064 C1062 1.378 . S
C1064 C1065 1.367 . S
C1065 C1064 1.367 . S
C1065 C1067 1.433 . S
C1066 C1062 1.350 . S
C1066 C1063 1.463 . S
C1066 N1070 1.427 . S
C1067 H1057 0.929 . S
C1067 C1065 1.433 . S
C1067 N1070 1.384 . S
C1068 H1059 0.929 . S
C1068 C1060 1.378 . S
C1068 C1063 1.350 . S
C1069 H1056 0.929 . S
C1069 C1061 1.433 . S
C1069 N1071 1.384 . S
N1070 C1066 1.427 . S
N1070 C1067 1.384 . S
N1071 C1063 1.427 . S
N1071 C1069 1.384 . S
H1072 C1078 0.930 . S
H1073 C1082 0.930 . S
H1074 C1087 0.929 . S
H1075 C1085 0.929 . S
H1076 C1080 0.929 . S
H1077 C1086 0.929 . S
C1078 H1072 0.930 . S
C1078 C1079 1.367 . S
C1078 C1086 1.378 . S
C1079 C1078 1.367 . S
C1079 C1087 1.433 . S
C1080 H1076 0.929 . S
C1080 C1082 1.378 . S
C1080 C1084 1.350 . S
C1081 C1084 1.463 . S
C1081 C1086 1.350 . S
C1081 N1089 1.427 . S
C1082 H1073 0.930 . S
C1082 C1080 1.378 . S
C1082 C1083 1.367 . S
C1083 C1082 1.367 . S
C1083 C1085 1.433 . S
C1084 C1080 1.350 . S
C1084 C1081 1.463 . S
C1084 N1088 1.427 . S
C1085 H1075 0.929 . S
C1085 C1083 1.433 . S
C1085 N1088 1.384 . S
C1086 H1077 0.929 . S
C1086 C1078 1.378 . S
C1086 C1081 1.350 . S
C1087 H1074 0.929 . S
C1087 C1079 1.433 . S
C1087 N1089 1.384 . S
N1088 C1084 1.427 . S
N1088 C1085 1.384 . S
N1089 C1081 1.427 . S
N1089 C1087 1.384 . S
H1090 C1096 0.930 . S
H1091 C1100 0.930 . S
H1092 C1105 0.929 . S
H1093 C1103 0.929 . S
H1094 C1098 0.929 . S
H1095 C1104 0.929 . S
C1096 H1090 0.930 . S
C1096 C1097 1.367 . S
C1096 C1104 1.378 . S
C1097 C1096 1.367 . S
C1097 C1105 1.433 . S
C1098 H1094 0.929 . S
C1098 C1100 1.378 . S
C1098 C1102 1.350 . S
C1099 C1102 1.463 . S
C1099 C1104 1.350 . S
C1099 N1107 1.427 . S
C1100 H1091 0.930 . S
C1100 C1098 1.378 . S
C1100 C1101 1.367 . S
C1101 C1100 1.367 . S
C1101 C1103 1.433 . S
C1102 C1098 1.350 . S
C1102 C1099 1.463 . S
C1102 N1106 1.427 . S
C1103 H1093 0.929 . S
C1103 C1101 1.433 . S
C1103 N1106 1.384 . S
C1104 H1095 0.929 . S
C1104 C1096 1.378 . S
C1104 C1099 1.350 . S
C1105 H1092 0.929 . S
C1105 C1097 1.433 . S
C1105 N1107 1.384 . S
N1106 C1102 1.427 . S
N1106 C1103 1.384 . S
N1107 C1099 1.427 . S
N1107 C1105 1.384 . S
H1108 C1114 0.930 . S
H1109 C1118 0.930 . S
H1110 C1123 0.929 . S
H1111 C1121 0.929 . S
H1112 C1116 0.929 . S
H1113 C1122 0.929 . S
C1114 H1108 0.930 . S
C1114 C1115 1.367 . S
C1114 C1122 1.378 . S
C1115 C1114 1.367 . S
C1115 C1123 1.433 . S
C1116 H1112 0.929 . S
C1116 C1118 1.378 . S
C1116 C1120 1.350 . S
C1117 C1120 1.463 . S
C1117 C1122 1.350 . S
C1117 N1125 1.427 . S
C1118 H1109 0.930 . S
C1118 C1116 1.378 . S
C1118 C1119 1.367 . S
C1119 C1118 1.367 . S
C1119 C1121 1.433 . S
C1120 C1116 1.350 . S
C1120 C1117 1.463 . S
C1120 N1124 1.427 . S
C1121 H1111 0.929 . S
C1121 C1119 1.433 . S
C1121 N1124 1.384 . S
C1122 H1113 0.929 . S
C1122 C1114 1.378 . S
C1122 C1117 1.350 . S
C1123 H1110 0.929 . S
C1123 C1115 1.433 . S
C1123 N1125 1.384 . S
N1124 C1120 1.427 . S
N1124 C1121 1.384 . S
N1125 C1117 1.427 . S
N1125 C1123 1.384 . S
H1126 C1132 0.930 . S
H1127 C1136 0.930 . S
H1128 C1141 0.929 . S
H1129 C1139 0.929 . S
H1130 C1134 0.929 . S
H1131 C1140 0.929 . S
C1132 H1126 0.930 . S
C1132 C1133 1.367 . S
C1132 C1140 1.378 . S
C1133 C1132 1.367 . S
C1133 C1141 1.433 . S
C1134 H1130 0.929 . S
C1134 C1136 1.378 . S
C1134 C1138 1.350 . S
C1135 C1138 1.463 . S
C1135 C1140 1.350 . S
C1135 N1143 1.427 . S
C1136 H1127 0.930 . S
C1136 C1134 1.378 . S
C1136 C1137 1.367 . S
C1137 C1136 1.367 . S
C1137 C1139 1.433 . S
C1138 C1134 1.350 . S
C1138 C1135 1.463 . S
C1138 N1142 1.427 . S
C1139 H1129 0.929 . S
C1139 C1137 1.433 . S
C1139 N1142 1.384 . S
C1140 H1131 0.929 . S
C1140 C1132 1.378 . S
C1140 C1135 1.350 . S
C1141 H1128 0.929 . S
C1141 C1133 1.433 . S
C1141 N1143 1.384 . S
N1142 C1138 1.427 . S
N1142 C1139 1.384 . S
N1143 C1135 1.427 . S
N1143 C1141 1.384 . S
H1144 C1150 0.930 . S
H1145 C1154 0.930 . S
H1146 C1159 0.929 . S
H1147 C1157 0.929 . S
H1148 C1152 0.929 . S
H1149 C1158 0.929 . S
C1150 H1144 0.930 . S
C1150 C1151 1.367 . S
C1150 C1158 1.378 . S
C1151 C1150 1.367 . S
C1151 C1159 1.433 . S
C1152 H1148 0.929 . S
C1152 C1154 1.378 . S
C1152 C1156 1.350 . S
C1153 C1156 1.463 . S
C1153 C1158 1.350 . S
C1153 N1161 1.427 . S
C1154 H1145 0.930 . S
C1154 C1152 1.378 . S
C1154 C1155 1.367 . S
C1155 C1154 1.367 . S
C1155 C1157 1.433 . S
C1156 C1152 1.350 . S
C1156 C1153 1.463 . S
C1156 N1160 1.427 . S
C1157 H1147 0.929 . S
C1157 C1155 1.433 . S
C1157 N1160 1.384 . S
C1158 H1149 0.929 . S
C1158 C1150 1.378 . S
C1158 C1153 1.350 . S
C1159 H1146 0.929 . S
C1159 C1151 1.433 . S
C1159 N1161 1.384 . S
N1160 C1156 1.427 . S
N1160 C1157 1.384 . S
N1161 C1153 1.427 . S
N1161 C1159 1.384 . S
H1162 C1168 0.930 . S
H1163 C1172 0.930 . S
H1164 C1177 0.929 . S
H1165 C1175 0.929 . S
H1166 C1170 0.929 . S
H1167 C1176 0.929 . S
C1168 H1162 0.930 . S
C1168 C1169 1.367 . S
C1168 C1176 1.378 . S
C1169 C1168 1.367 . S
C1169 C1177 1.433 . S
C1170 H1166 0.929 . S
C1170 C1172 1.378 . S
C1170 C1174 1.350 . S
C1171 C1174 1.463 . S
C1171 C1176 1.350 . S
C1171 N1179 1.427 . S
C1172 H1163 0.930 . S
C1172 C1170 1.378 . S
C1172 C1173 1.367 . S
C1173 C1172 1.367 . S
C1173 C1175 1.433 . S
C1174 C1170 1.350 . S
C1174 C1171 1.463 . S
C1174 N1178 1.427 . S
C1175 H1165 0.929 . S
C1175 C1173 1.433 . S
C1175 N1178 1.384 . S
C1176 H1167 0.929 . S
C1176 C1168 1.378 . S
C1176 C1171 1.350 . S
C1177 H1164 0.929 . S
C1177 C1169 1.433 . S
C1177 N1179 1.384 . S
N1178 C1174 1.427 . S
N1178 C1175 1.384 . S
N1179 C1171 1.427 . S
N1179 C1177 1.384 . S
H1180 C1186 0.930 . S
H1181 C1190 0.930 . S
H1182 C1195 0.929 . S
H1183 C1193 0.929 . S
H1184 C1188 0.929 . S
H1185 C1194 0.929 . S
C1186 H1180 0.930 . S
C1186 C1187 1.367 . S
C1186 C1194 1.378 . S
C1187 C1186 1.367 . S
C1187 C1195 1.433 . S
C1188 H1184 0.929 . S
C1188 C1190 1.378 . S
C1188 C1192 1.350 . S
C1189 C1192 1.463 . S
C1189 C1194 1.350 . S
C1189 N1197 1.427 . S
C1190 H1181 0.930 . S
C1190 C1188 1.378 . S
C1190 C1191 1.367 . S
C1191 C1190 1.367 . S
C1191 C1193 1.433 . S
C1192 C1188 1.350 . S
C1192 C1189 1.463 . S
C1192 N1196 1.427 . S
C1193 H1183 0.929 . S
C1193 C1191 1.433 . S
C1193 N1196 1.384 . S
C1194 H1185 0.929 . S
C1194 C1186 1.378 . S
C1194 C1189 1.350 . S
C1195 H1182 0.929 . S
C1195 C1187 1.433 . S
C1195 N1197 1.384 . S
N1196 C1192 1.427 . S
N1196 C1193 1.384 . S
N1197 C1189 1.427 . S
N1197 C1195 1.384 . S
H1198 C1204 0.930 . S
H1199 C1208 0.930 . S
H1200 C1213 0.929 . S
H1201 C1211 0.929 . S
H1202 C1206 0.929 . S
H1203 C1212 0.929 . S
C1204 H1198 0.930 . S
C1204 C1205 1.367 . S
C1204 C1212 1.378 . S
C1205 C1204 1.367 . S
C1205 C1213 1.433 . S
C1206 H1202 0.929 . S
C1206 C1208 1.378 . S
C1206 C1210 1.350 . S
C1207 C1210 1.463 . S
C1207 C1212 1.350 . S
C1207 N1215 1.427 . S
C1208 H1199 0.930 . S
C1208 C1206 1.378 . S
C1208 C1209 1.367 . S
C1209 C1208 1.367 . S
C1209 C1211 1.433 . S
C1210 C1206 1.350 . S
C1210 C1207 1.463 . S
C1210 N1214 1.427 . S
C1211 H1201 0.929 . S
C1211 C1209 1.433 . S
C1211 N1214 1.384 . S
C1212 H1203 0.929 . S
C1212 C1204 1.378 . S
C1212 C1207 1.350 . S
C1213 H1200 0.929 . S
C1213 C1205 1.433 . S
C1213 N1215 1.384 . S
N1214 C1210 1.427 . S
N1214 C1211 1.384 . S
N1215 C1207 1.427 . S
N1215 C1213 1.384 . S
H1216 C1222 0.930 . S
H1217 C1226 0.930 . S
H1218 C1231 0.929 . S
H1219 C1229 0.929 . S
H1220 C1224 0.929 . S
H1221 C1230 0.929 . S
C1222 H1216 0.930 . S
C1222 C1223 1.367 . S
C1222 C1230 1.378 . S
C1223 C1222 1.367 . S
C1223 C1231 1.433 . S
C1224 H1220 0.929 . S
C1224 C1226 1.378 . S
C1224 C1228 1.350 . S
C1225 C1228 1.463 . S
C1225 C1230 1.350 . S
C1225 N1233 1.427 . S
C1226 H1217 0.930 . S
C1226 C1224 1.378 . S
C1226 C1227 1.367 . S
C1227 C1226 1.367 . S
C1227 C1229 1.433 . S
C1228 C1224 1.350 . S
C1228 C1225 1.463 . S
C1228 N1232 1.427 . S
C1229 H1219 0.929 . S
C1229 C1227 1.433 . S
C1229 N1232 1.384 . S
C1230 H1221 0.929 . S
C1230 C1222 1.378 . S
C1230 C1225 1.350 . S
C1231 H1218 0.929 . S
C1231 C1223 1.433 . S
C1231 N1233 1.384 . S
N1232 C1228 1.427 . S
N1232 C1229 1.384 . S
N1233 C1225 1.427 . S
N1233 C1231 1.384 . S
H1234 C1240 0.930 . S
H1235 C1244 0.930 . S
H1236 C1249 0.929 . S
H1237 C1247 0.929 . S
H1238 C1242 0.929 . S
H1239 C1248 0.929 . S
C1240 H1234 0.930 . S
C1240 C1241 1.367 . S
C1240 C1248 1.378 . S
C1241 C1240 1.367 . S
C1241 C1249 1.433 . S
C1242 H1238 0.929 . S
C1242 C1244 1.378 . S
C1242 C1246 1.350 . S
C1243 C1246 1.463 . S
C1243 C1248 1.350 . S
C1243 N1251 1.427 . S
C1244 H1235 0.930 . S
C1244 C1242 1.378 . S
C1244 C1245 1.367 . S
C1245 C1244 1.367 . S
C1245 C1247 1.433 . S
C1246 C1242 1.350 . S
C1246 C1243 1.463 . S
C1246 N1250 1.427 . S
C1247 H1237 0.929 . S
C1247 C1245 1.433 . S
C1247 N1250 1.384 . S
C1248 H1239 0.929 . S
C1248 C1240 1.378 . S
C1248 C1243 1.350 . S
C1249 H1236 0.929 . S
C1249 C1241 1.433 . S
C1249 N1251 1.384 . S
N1250 C1246 1.427 . S
N1250 C1247 1.384 . S
N1251 C1243 1.427 . S
N1251 C1249 1.384 . S
H1252 C1258 0.930 . S
H1253 C1262 0.930 . S
H1254 C1267 0.929 . S
H1255 C1265 0.929 . S
H1256 C1260 0.929 . S
H1257 C1266 0.929 . S
C1258 H1252 0.930 . S
C1258 C1259 1.367 . S
C1258 C1266 1.378 . S
C1259 C1258 1.367 . S
C1259 C1267 1.433 . S
C1260 H1256 0.929 . S
C1260 C1262 1.378 . S
C1260 C1264 1.350 . S
C1261 C1264 1.463 . S
C1261 C1266 1.350 . S
C1261 N1269 1.427 . S
C1262 H1253 0.930 . S
C1262 C1260 1.378 . S
C1262 C1263 1.367 . S
C1263 C1262 1.367 . S
C1263 C1265 1.433 . S
C1264 C1260 1.350 . S
C1264 C1261 1.463 . S
C1264 N1268 1.427 . S
C1265 H1255 0.929 . S
C1265 C1263 1.433 . S
C1265 N1268 1.384 . S
C1266 H1257 0.929 . S
C1266 C1258 1.378 . S
C1266 C1261 1.350 . S
C1267 H1254 0.929 . S
C1267 C1259 1.433 . S
C1267 N1269 1.384 . S
N1268 C1264 1.427 . S
N1268 C1265 1.384 . S
N1269 C1261 1.427 . S
N1269 C1267 1.384 . S
H1270 C1276 0.930 . S
H1271 C1280 0.930 . S
H1272 C1285 0.929 . S
H1273 C1283 0.929 . S
H1274 C1278 0.929 . S
H1275 C1284 0.929 . S
C1276 H1270 0.930 . S
C1276 C1277 1.367 . S
C1276 C1284 1.378 . S
C1277 C1276 1.367 . S
C1277 C1285 1.433 . S
C1278 H1274 0.929 . S
C1278 C1280 1.378 . S
C1278 C1282 1.350 . S
C1279 C1282 1.463 . S
C1279 C1284 1.350 . S
C1279 N1287 1.427 . S
C1280 H1271 0.930 . S
C1280 C1278 1.378 . S
C1280 C1281 1.367 . S
C1281 C1280 1.367 . S
C1281 C1283 1.433 . S
C1282 C1278 1.350 . S
C1282 C1279 1.463 . S
C1282 N1286 1.427 . S
C1283 H1273 0.929 . S
C1283 C1281 1.433 . S
C1283 N1286 1.384 . S
C1284 H1275 0.929 . S
C1284 C1276 1.378 . S
C1284 C1279 1.350 . S
C1285 H1272 0.929 . S
C1285 C1277 1.433 . S
C1285 N1287 1.384 . S
N1286 C1282 1.427 . S
N1286 C1283 1.384 . S
N1287 C1279 1.427 . S
N1287 C1285 1.384 . S
H1288 C1294 0.930 . S
H1289 C1298 0.930 . S
H1290 C1303 0.929 . S
H1291 C1301 0.929 . S
H1292 C1296 0.929 . S
H1293 C1302 0.929 . S
C1294 H1288 0.930 . S
C1294 C1295 1.367 . S
C1294 C1302 1.378 . S
C1295 C1294 1.367 . S
C1295 C1303 1.433 . S
C1296 H1292 0.929 . S
C1296 C1298 1.378 . S
C1296 C1300 1.350 . S
C1297 C1300 1.463 . S
C1297 C1302 1.350 . S
C1297 N1305 1.427 . S
C1298 H1289 0.930 . S
C1298 C1296 1.378 . S
C1298 C1299 1.367 . S
C1299 C1298 1.367 . S
C1299 C1301 1.433 . S
C1300 C1296 1.350 . S
C1300 C1297 1.463 . S
C1300 N1304 1.427 . S
C1301 H1291 0.929 . S
C1301 C1299 1.433 . S
C1301 N1304 1.384 . S
C1302 H1293 0.929 . S
C1302 C1294 1.378 . S
C1302 C1297 1.350 . S
C1303 H1290 0.929 . S
C1303 C1295 1.433 . S
C1303 N1305 1.384 . S
N1304 C1300 1.427 . S
N1304 C1301 1.384 . S
N1305 C1297 1.427 . S
N1305 C1303 1.384 . S
H1306 C1312 0.930 . S
H1307 C1316 0.930 . S
H1308 C1321 0.929 . S
H1309 C1319 0.929 . S
H1310 C1314 0.929 . S
H1311 C1320 0.929 . S
C1312 H1306 0.930 . S
C1312 C1313 1.367 . S
C1312 C1320 1.378 . S
C1313 C1312 1.367 . S
C1313 C1321 1.433 . S
C1314 H1310 0.929 . S
C1314 C1316 1.378 . S
C1314 C1318 1.350 . S
C1315 C1318 1.463 . S
C1315 C1320 1.350 . S
C1315 N1323 1.427 . S
C1316 H1307 0.930 . S
C1316 C1314 1.378 . S
C1316 C1317 1.367 . S
C1317 C1316 1.367 . S
C1317 C1319 1.433 . S
C1318 C1314 1.350 . S
C1318 C1315 1.463 . S
C1318 N1322 1.427 . S
C1319 H1309 0.929 . S
C1319 C1317 1.433 . S
C1319 N1322 1.384 . S
C1320 H1311 0.929 . S
C1320 C1312 1.378 . S
C1320 C1315 1.350 . S
C1321 H1308 0.929 . S
C1321 C1313 1.433 . S
C1321 N1323 1.384 . S
N1322 C1318 1.427 . S
N1322 C1319 1.384 . S
N1323 C1315 1.427 . S
N1323 C1321 1.384 . S
H1324 C1330 0.930 . S
H1325 C1334 0.930 . S
H1326 C1339 0.929 . S
H1327 C1337 0.929 . S
H1328 C1332 0.929 . S
H1329 C1338 0.929 . S
C1330 H1324 0.930 . S
C1330 C1331 1.367 . S
C1330 C1338 1.378 . S
C1331 C1330 1.367 . S
C1331 C1339 1.433 . S
C1332 H1328 0.929 . S
C1332 C1334 1.378 . S
C1332 C1336 1.350 . S
C1333 C1336 1.463 . S
C1333 C1338 1.350 . S
C1333 N1341 1.427 . S
C1334 H1325 0.930 . S
C1334 C1332 1.378 . S
C1334 C1335 1.367 . S
C1335 C1334 1.367 . S
C1335 C1337 1.433 . S
C1336 C1332 1.350 . S
C1336 C1333 1.463 . S
C1336 N1340 1.427 . S
C1337 H1327 0.929 . S
C1337 C1335 1.433 . S
C1337 N1340 1.384 . S
C1338 H1329 0.929 . S
C1338 C1330 1.378 . S
C1338 C1333 1.350 . S
C1339 H1326 0.929 . S
C1339 C1331 1.433 . S
C1339 N1341 1.384 . S
N1340 C1336 1.427 . S
N1340 C1337 1.384 . S
N1341 C1333 1.427 . S
N1341 C1339 1.384 . S
H1342 C1348 0.930 . S
H1343 C1352 0.930 . S
H1344 C1357 0.929 . S
H1345 C1355 0.929 . S
H1346 C1350 0.929 . S
H1347 C1356 0.929 . S
C1348 H1342 0.930 . S
C1348 C1349 1.367 . S
C1348 C1356 1.378 . S
C1349 C1348 1.367 . S
C1349 C1357 1.433 . S
C1350 H1346 0.929 . S
C1350 C1352 1.378 . S
C1350 C1354 1.350 . S
C1351 C1354 1.463 . S
C1351 C1356 1.350 . S
C1351 N1359 1.427 . S
C1352 H1343 0.930 . S
C1352 C1350 1.378 . S
C1352 C1353 1.367 . S
C1353 C1352 1.367 . S
C1353 C1355 1.433 . S
C1354 C1350 1.350 . S
C1354 C1351 1.463 . S
C1354 N1358 1.427 . S
C1355 H1345 0.929 . S
C1355 C1353 1.433 . S
C1355 N1358 1.384 . S
C1356 H1347 0.929 . S
C1356 C1348 1.378 . S
C1356 C1351 1.350 . S
C1357 H1344 0.929 . S
C1357 C1349 1.433 . S
C1357 N1359 1.384 . S
N1358 C1354 1.427 . S
N1358 C1355 1.384 . S
N1359 C1351 1.427 . S
N1359 C1357 1.384 . S
H1360 C1366 0.930 . S
H1361 C1370 0.930 . S
H1362 C1375 0.929 . S
H1363 C1373 0.929 . S
H1364 C1368 0.929 . S
H1365 C1374 0.929 . S
C1366 H1360 0.930 . S
C1366 C1367 1.367 . S
C1366 C1374 1.378 . S
C1367 C1366 1.367 . S
C1367 C1375 1.433 . S
C1368 H1364 0.929 . S
C1368 C1370 1.378 . S
C1368 C1372 1.350 . S
C1369 C1372 1.463 . S
C1369 C1374 1.350 . S
C1369 N1377 1.427 . S
C1370 H1361 0.930 . S
C1370 C1368 1.378 . S
C1370 C1371 1.367 . S
C1371 C1370 1.367 . S
C1371 C1373 1.433 . S
C1372 C1368 1.350 . S
C1372 C1369 1.463 . S
C1372 N1376 1.427 . S
C1373 H1363 0.929 . S
C1373 C1371 1.433 . S
C1373 N1376 1.384 . S
C1374 H1365 0.929 . S
C1374 C1366 1.378 . S
C1374 C1369 1.350 . S
C1375 H1362 0.929 . S
C1375 C1367 1.433 . S
C1375 N1377 1.384 . S
N1376 C1372 1.427 . S
N1376 C1373 1.384 . S
N1377 C1369 1.427 . S
N1377 C1375 1.384 . S
H1378 C1384 0.930 . S
H1379 C1388 0.930 . S
H1380 C1393 0.929 . S
H1381 C1391 0.929 . S
H1382 C1386 0.929 . S
H1383 C1392 0.929 . S
C1384 H1378 0.930 . S
C1384 C1385 1.367 . S
C1384 C1392 1.378 . S
C1385 C1384 1.367 . S
C1385 C1393 1.433 . S
C1386 H1382 0.929 . S
C1386 C1388 1.378 . S
C1386 C1390 1.350 . S
C1387 C1390 1.463 . S
C1387 C1392 1.350 . S
C1387 N1395 1.427 . S
C1388 H1379 0.930 . S
C1388 C1386 1.378 . S
C1388 C1389 1.367 . S
C1389 C1388 1.367 . S
C1389 C1391 1.433 . S
C1390 C1386 1.350 . S
C1390 C1387 1.463 . S
C1390 N1394 1.427 . S
C1391 H1381 0.929 . S
C1391 C1389 1.433 . S
C1391 N1394 1.384 . S
C1392 H1383 0.929 . S
C1392 C1384 1.378 . S
C1392 C1387 1.350 . S
C1393 H1380 0.929 . S
C1393 C1385 1.433 . S
C1393 N1395 1.384 . S
N1394 C1390 1.427 . S
N1394 C1391 1.384 . S
N1395 C1387 1.427 . S
N1395 C1393 1.384 . S
H1396 C1402 0.930 . S
H1397 C1406 0.930 . S
H1398 C1411 0.929 . S
H1399 C1409 0.929 . S
H1400 C1404 0.931 1_455 S
H1401 C1410 0.929 . S
C1402 H1396 0.930 . S
C1402 C1403 1.367 . S
C1402 C1410 1.378 . S
C1403 C1402 1.367 . S
C1403 C1411 1.433 . S
C1404 H1400 0.931 1_655 S
C1404 C1406 1.359 1_655 S
C1404 C1408 1.368 . S
C1405 C1408 1.463 . S
C1405 C1410 1.350 . S
C1405 N1413 1.427 . S
C1406 H1397 0.930 . S
C1406 C1404 1.359 1_455 S
C1406 C1407 1.367 . S
C1407 C1406 1.367 . S
C1407 C1409 1.433 1_455 S
C1408 C1404 1.368 . S
C1408 C1405 1.463 . S
C1408 N1412 1.427 . S
C1409 H1399 0.929 . S
C1409 C1407 1.433 1_655 S
C1409 N1412 1.384 . S
C1410 H1401 0.929 . S
C1410 C1402 1.378 . S
C1410 C1405 1.350 . S
C1411 H1398 0.929 . S
C1411 C1403 1.433 . S
C1411 N1413 1.384 . S
N1412 C1408 1.427 . S
N1412 C1409 1.384 . S
N1413 C1405 1.427 . S
N1413 C1411 1.384 . S
H1414 C1420 0.930 . S
H1415 C1424 0.930 . S
H1416 C1429 0.929 . S
H1417 C1427 0.929 . S
H1418 C1422 0.929 . S
H1419 C1428 0.929 . S
C1420 H1414 0.930 . S
C1420 C1421 1.367 . S
C1420 C1428 1.378 . S
C1421 C1420 1.367 . S
C1421 C1429 1.433 . S
C1422 H1418 0.929 . S
C1422 C1424 1.378 . S
C1422 C1426 1.350 . S
C1423 C1426 1.463 . S
C1423 C1428 1.350 . S
C1423 N1431 1.427 . S
C1424 H1415 0.930 . S
C1424 C1422 1.378 . S
C1424 C1425 1.367 . S
C1425 C1424 1.367 . S
C1425 C1427 1.433 . S
C1426 C1422 1.350 . S
C1426 C1423 1.463 . S
C1426 N1430 1.427 . S
C1427 H1417 0.929 . S
C1427 C1425 1.433 . S
C1427 N1430 1.384 . S
C1428 H1419 0.929 . S
C1428 C1420 1.378 . S
C1428 C1423 1.350 . S
C1429 H1416 0.929 . S
C1429 C1421 1.433 . S
C1429 N1431 1.384 . S
N1430 C1426 1.427 . S
N1430 C1427 1.384 . S
N1431 C1423 1.427 . S
N1431 C1429 1.384 . S
H1432 C1438 0.930 . S
H1433 C1442 0.930 . S
H1434 C1447 0.929 . S
H1435 C1445 0.929 . S
H1436 C1440 0.929 . S
H1437 C1446 0.929 . S
C1438 H1432 0.930 . S
C1438 C1439 1.367 . S
C1438 C1446 1.378 . S
C1439 C1438 1.367 . S
C1439 C1447 1.433 . S
C1440 H1436 0.929 . S
C1440 C1442 1.378 . S
C1440 C1444 1.350 . S
C1441 C1444 1.463 . S
C1441 C1446 1.350 . S
C1441 N1449 1.427 . S
C1442 H1433 0.930 . S
C1442 C1440 1.378 . S
C1442 C1443 1.367 . S
C1443 C1442 1.367 . S
C1443 C1445 1.433 . S
C1444 C1440 1.350 . S
C1444 C1441 1.463 . S
C1444 N1448 1.427 . S
C1445 H1435 0.929 . S
C1445 C1443 1.433 . S
C1445 N1448 1.384 . S
C1446 H1437 0.929 . S
C1446 C1438 1.378 . S
C1446 C1441 1.350 . S
C1447 H1434 0.929 . S
C1447 C1439 1.433 . S
C1447 N1449 1.384 . S
N1448 C1444 1.427 . S
N1448 C1445 1.384 . S
N1449 C1441 1.427 . S
N1449 C1447 1.384 . S
H1450 C1456 0.930 . S
H1451 C1460 0.930 . S
H1452 C1465 0.929 . S
H1453 C1463 0.929 . S
H1454 C1458 0.929 . S
H1455 C1464 0.929 . S
C1456 H1450 0.930 . S
C1456 C1457 1.367 . S
C1456 C1464 1.378 . S
C1457 C1456 1.367 . S
C1457 C1465 1.433 . S
C1458 H1454 0.929 . S
C1458 C1460 1.378 . S
C1458 C1462 1.350 . S
C1459 C1462 1.463 . S
C1459 C1464 1.350 . S
C1459 N1467 1.427 . S
C1460 H1451 0.930 . S
C1460 C1458 1.378 . S
C1460 C1461 1.367 . S
C1461 C1460 1.367 . S
C1461 C1463 1.433 . S
C1462 C1458 1.350 . S
C1462 C1459 1.463 . S
C1462 N1466 1.427 . S
C1463 H1453 0.929 . S
C1463 C1461 1.433 . S
C1463 N1466 1.384 . S
C1464 H1455 0.929 . S
C1464 C1456 1.378 . S
C1464 C1459 1.350 . S
C1465 H1452 0.929 . S
C1465 C1457 1.433 . S
C1465 N1467 1.384 . S
N1466 C1462 1.427 . S
N1466 C1463 1.384 . S
N1467 C1459 1.427 . S
N1467 C1465 1.384 . S
H1468 C1474 0.930 . S
H1469 C1478 0.917 1_455 S
H1470 C1483 0.929 . S
H1471 C1481 0.928 1_455 S
H1472 C1476 0.929 . S
H1473 C1482 0.929 . S
C1474 H1468 0.930 . S
C1474 C1475 1.367 . S
C1474 C1482 1.378 . S
C1475 C1474 1.367 . S
C1475 C1483 1.433 . S
C1476 H1472 0.929 . S
C1476 C1478 1.401 . S
C1476 C1480 1.350 . S
C1477 C1480 1.463 . S
C1477 C1482 1.350 . S
C1477 N1485 1.427 . S
C1478 H1469 0.917 1_655 S
C1478 C1476 1.401 . S
C1478 C1479 1.358 1_655 S
C1479 C1478 1.358 1_455 S
C1479 C1481 1.432 1_455 S
C1480 C1476 1.350 . S
C1480 C1477 1.463 . S
C1480 N1484 1.427 . S
C1481 H1471 0.928 1_655 S
C1481 C1479 1.432 1_655 S
C1481 N1484 1.386 . S
C1482 H1473 0.929 . S
C1482 C1474 1.378 . S
C1482 C1477 1.350 . S
C1483 H1470 0.929 . S
C1483 C1475 1.433 . S
C1483 N1485 1.384 . S
N1484 C1480 1.427 . S
N1484 C1481 1.386 . S
N1485 C1477 1.427 . S
N1485 C1483 1.384 . S
H1486 C1492 0.930 . S
H1487 C1496 0.930 . S
H1488 C1501 0.929 . S
H1489 C1499 0.929 . S
H1490 C1494 0.929 . S
H1491 C1500 0.929 . S
C1492 H1486 0.930 . S
C1492 C1493 1.367 . S
C1492 C1500 1.378 . S
C1493 C1492 1.367 . S
C1493 C1501 1.433 . S
C1494 H1490 0.929 . S
C1494 C1496 1.378 . S
C1494 C1498 1.350 . S
C1495 C1498 1.463 . S
C1495 C1500 1.350 . S
C1495 N1503 1.427 . S
C1496 H1487 0.930 . S
C1496 C1494 1.378 . S
C1496 C1497 1.367 . S
C1497 C1496 1.367 . S
C1497 C1499 1.433 . S
C1498 C1494 1.350 . S
C1498 C1495 1.463 . S
C1498 N1502 1.427 . S
C1499 H1489 0.929 . S
C1499 C1497 1.433 . S
C1499 N1502 1.384 . S
C1500 H1491 0.929 . S
C1500 C1492 1.378 . S
C1500 C1495 1.350 . S
C1501 H1488 0.929 . S
C1501 C1493 1.433 . S
C1501 N1503 1.384 . S
N1502 C1498 1.427 . S
N1502 C1499 1.384 . S
N1503 C1495 1.427 . S
N1503 C1501 1.384 . S
H1504 C1510 0.930 . S
H1505 C1514 0.930 . S
H1506 C1519 0.929 . S
H1507 C1517 0.929 . S
H1508 C1512 0.929 . S
H1509 C1518 0.929 . S
C1510 H1504 0.930 . S
C1510 C1511 1.367 . S
C1510 C1518 1.378 . S
C1511 C1510 1.367 . S
C1511 C1519 1.433 . S
C1512 H1508 0.929 . S
C1512 C1514 1.378 . S
C1512 C1516 1.350 . S
C1513 C1516 1.463 . S
C1513 C1518 1.350 . S
C1513 N1521 1.427 . S
C1514 H1505 0.930 . S
C1514 C1512 1.378 . S
C1514 C1515 1.367 . S
C1515 C1514 1.367 . S
C1515 C1517 1.433 . S
C1516 C1512 1.350 . S
C1516 C1513 1.463 . S
C1516 N1520 1.427 . S
C1517 H1507 0.929 . S
C1517 C1515 1.433 . S
C1517 N1520 1.384 . S
C1518 H1509 0.929 . S
C1518 C1510 1.378 . S
C1518 C1513 1.350 . S
C1519 H1506 0.929 . S
C1519 C1511 1.433 . S
C1519 N1521 1.384 . S
N1520 C1516 1.427 . S
N1520 C1517 1.384 . S
N1521 C1513 1.427 . S
N1521 C1519 1.384 . S
H1522 C1528 0.930 . S
H1523 C1532 0.930 . S
H1524 C1537 0.929 . S
H1525 C1535 0.929 . S
H1526 C1530 0.929 . S
H1527 C1536 0.929 . S
C1528 H1522 0.930 . S
C1528 C1529 1.367 . S
C1528 C1536 1.378 . S
C1529 C1528 1.367 . S
C1529 C1537 1.433 . S
C1530 H1526 0.929 . S
C1530 C1532 1.378 . S
C1530 C1534 1.350 . S
C1531 C1534 1.463 . S
C1531 C1536 1.350 . S
C1531 N1539 1.427 . S
C1532 H1523 0.930 . S
C1532 C1530 1.378 . S
C1532 C1533 1.367 . S
C1533 C1532 1.367 . S
C1533 C1535 1.433 . S
C1534 C1530 1.350 . S
C1534 C1531 1.463 . S
C1534 N1538 1.427 . S
C1535 H1525 0.929 . S
C1535 C1533 1.433 . S
C1535 N1538 1.384 . S
C1536 H1527 0.929 . S
C1536 C1528 1.378 . S
C1536 C1531 1.350 . S
C1537 H1524 0.929 . S
C1537 C1529 1.433 . S
C1537 N1539 1.384 . S
N1538 C1534 1.427 . S
N1538 C1535 1.384 . S
N1539 C1531 1.427 . S
N1539 C1537 1.384 . S
H1540 C1546 0.930 . S
H1541 C1550 0.930 . S
H1542 C1555 0.929 . S
H1543 C1553 0.929 . S
H1544 C1548 0.929 . S
H1545 C1554 0.929 . S
C1546 H1540 0.930 . S
C1546 C1547 1.367 . S
C1546 C1554 1.378 . S
C1547 C1546 1.367 . S
C1547 C1555 1.433 . S
C1548 H1544 0.929 . S
C1548 C1550 1.378 . S
C1548 C1552 1.350 . S
C1549 C1552 1.463 . S
C1549 C1554 1.350 . S
C1549 N1557 1.427 . S
C1550 H1541 0.930 . S
C1550 C1548 1.378 . S
C1550 C1551 1.367 . S
C1551 C1550 1.367 . S
C1551 C1553 1.433 . S
C1552 C1548 1.350 . S
C1552 C1549 1.463 . S
C1552 N1556 1.427 . S
C1553 H1543 0.929 . S
C1553 C1551 1.433 . S
C1553 N1556 1.384 . S
C1554 H1545 0.929 . S
C1554 C1546 1.378 . S
C1554 C1549 1.350 . S
C1555 H1542 0.929 . S
C1555 C1547 1.433 . S
C1555 N1557 1.384 . S
N1556 C1552 1.427 . S
N1556 C1553 1.384 . S
N1557 C1549 1.427 . S
N1557 C1555 1.384 . S
H1558 C1564 0.930 . S
H1559 C1568 0.930 . S
H1560 C1573 0.929 . S
H1561 C1571 0.929 . S
H1562 C1566 0.929 . S
H1563 C1572 0.929 . S
C1564 H1558 0.930 . S
C1564 C1565 1.367 . S
C1564 C1572 1.378 . S
C1565 C1564 1.367 . S
C1565 C1573 1.433 . S
C1566 H1562 0.929 . S
C1566 C1568 1.378 . S
C1566 C1570 1.350 . S
C1567 C1570 1.463 . S
C1567 C1572 1.350 . S
C1567 N1575 1.427 . S
C1568 H1559 0.930 . S
C1568 C1566 1.378 . S
C1568 C1569 1.367 . S
C1569 C1568 1.367 . S
C1569 C1571 1.433 . S
C1570 C1566 1.350 . S
C1570 C1567 1.463 . S
C1570 N1574 1.427 . S
C1571 H1561 0.929 . S
C1571 C1569 1.433 . S
C1571 N1574 1.384 . S
C1572 H1563 0.929 . S
C1572 C1564 1.378 . S
C1572 C1567 1.350 . S
C1573 H1560 0.929 . S
C1573 C1565 1.433 . S
C1573 N1575 1.384 . S
N1574 C1570 1.427 . S
N1574 C1571 1.384 . S
N1575 C1567 1.427 . S
N1575 C1573 1.384 . S
H1576 C1582 0.930 . S
H1577 C1586 0.930 . S
H1578 C1591 0.929 . S
H1579 C1589 0.929 . S
H1580 C1584 0.929 . S
H1581 C1590 0.929 . S
C1582 H1576 0.930 . S
C1582 C1583 1.367 . S
C1582 C1590 1.378 . S
C1583 C1582 1.367 . S
C1583 C1591 1.433 . S
C1584 H1580 0.929 . S
C1584 C1586 1.378 . S
C1584 C1588 1.350 . S
C1585 C1588 1.463 . S
C1585 C1590 1.350 . S
C1585 N1593 1.427 . S
C1586 H1577 0.930 . S
C1586 C1584 1.378 . S
C1586 C1587 1.367 . S
C1587 C1586 1.367 . S
C1587 C1589 1.433 . S
C1588 C1584 1.350 . S
C1588 C1585 1.463 . S
C1588 N1592 1.427 . S
C1589 H1579 0.929 . S
C1589 C1587 1.433 . S
C1589 N1592 1.384 . S
C1590 H1581 0.929 . S
C1590 C1582 1.378 . S
C1590 C1585 1.350 . S
C1591 H1578 0.929 . S
C1591 C1583 1.433 . S
C1591 N1593 1.384 . S
N1592 C1588 1.427 . S
N1592 C1589 1.384 . S
N1593 C1585 1.427 . S
N1593 C1591 1.384 . S
H1594 C1600 0.930 . S
H1595 C1604 0.930 . S
H1596 C1609 0.929 . S
H1597 C1607 0.929 . S
H1598 C1602 0.929 . S
H1599 C1608 0.929 . S
C1600 H1594 0.930 . S
C1600 C1601 1.367 . S
C1600 C1608 1.378 . S
C1601 C1600 1.367 . S
C1601 C1609 1.433 . S
C1602 H1598 0.929 . S
C1602 C1604 1.378 . S
C1602 C1606 1.350 . S
C1603 C1606 1.463 . S
C1603 C1608 1.350 . S
C1603 N1611 1.427 . S
C1604 H1595 0.930 . S
C1604 C1602 1.378 . S
C1604 C1605 1.367 . S
C1605 C1604 1.367 . S
C1605 C1607 1.433 . S
C1606 C1602 1.350 . S
C1606 C1603 1.463 . S
C1606 N1610 1.427 . S
C1607 H1597 0.929 . S
C1607 C1605 1.433 . S
C1607 N1610 1.384 . S
C1608 H1599 0.929 . S
C1608 C1600 1.378 . S
C1608 C1603 1.350 . S
C1609 H1596 0.929 . S
C1609 C1601 1.433 . S
C1609 N1611 1.384 . S
N1610 C1606 1.427 . S
N1610 C1607 1.384 . S
N1611 C1603 1.427 . S
N1611 C1609 1.384 . S
H1612 C1618 0.930 . S
H1613 C1622 0.930 . S
H1614 C1627 0.929 . S
H1615 C1625 0.929 . S
H1616 C1620 0.929 . S
H1617 C1626 0.929 . S
C1618 H1612 0.930 . S
C1618 C1619 1.367 . S
C1618 C1626 1.378 . S
C1619 C1618 1.367 . S
C1619 C1627 1.433 . S
C1620 H1616 0.929 . S
C1620 C1622 1.378 . S
C1620 C1624 1.350 . S
C1621 C1624 1.463 . S
C1621 C1626 1.350 . S
C1621 N1629 1.427 . S
C1622 H1613 0.930 . S
C1622 C1620 1.378 . S
C1622 C1623 1.367 . S
C1623 C1622 1.367 . S
C1623 C1625 1.433 . S
C1624 C1620 1.350 . S
C1624 C1621 1.463 . S
C1624 N1628 1.427 . S
C1625 H1615 0.929 . S
C1625 C1623 1.433 . S
C1625 N1628 1.384 . S
C1626 H1617 0.929 . S
C1626 C1618 1.378 . S
C1626 C1621 1.350 . S
C1627 H1614 0.929 . S
C1627 C1619 1.433 . S
C1627 N1629 1.384 . S
N1628 C1624 1.427 . S
N1628 C1625 1.384 . S
N1629 C1621 1.427 . S
N1629 C1627 1.384 . S
H1630 C1636 0.930 . S
H1631 C1640 0.930 . S
H1632 C1645 0.929 . S
H1633 C1643 0.929 . S
H1634 C1638 0.929 . S
H1635 C1644 0.929 . S
C1636 H1630 0.930 . S
C1636 C1637 1.367 . S
C1636 C1644 1.378 . S
C1637 C1636 1.367 . S
C1637 C1645 1.433 . S
C1638 H1634 0.929 . S
C1638 C1640 1.378 . S
C1638 C1642 1.350 . S
C1639 C1642 1.463 . S
C1639 C1644 1.350 . S
C1639 N1647 1.427 . S
C1640 H1631 0.930 . S
C1640 C1638 1.378 . S
C1640 C1641 1.367 . S
C1641 C1640 1.367 . S
C1641 C1643 1.433 . S
C1642 C1638 1.350 . S
C1642 C1639 1.463 . S
C1642 N1646 1.427 . S
C1643 H1633 0.929 . S
C1643 C1641 1.433 . S
C1643 N1646 1.384 . S
C1644 H1635 0.929 . S
C1644 C1636 1.378 . S
C1644 C1639 1.350 . S
C1645 H1632 0.929 . S
C1645 C1637 1.433 . S
C1645 N1647 1.384 . S
N1646 C1642 1.427 . S
N1646 C1643 1.384 . S
N1647 C1639 1.427 . S
N1647 C1645 1.384 . S
H1648 C1654 0.930 . S
H1649 C1658 0.930 . S
H1650 C1663 0.929 . S
H1651 C1661 0.929 . S
H1652 C1656 0.929 . S
H1653 C1662 0.929 . S
C1654 H1648 0.930 . S
C1654 C1655 1.367 . S
C1654 C1662 1.378 . S
C1655 C1654 1.367 . S
C1655 C1663 1.433 . S
C1656 H1652 0.929 . S
C1656 C1658 1.378 . S
C1656 C1660 1.350 . S
C1657 C1660 1.463 . S
C1657 C1662 1.350 . S
C1657 N1665 1.427 . S
C1658 H1649 0.930 . S
C1658 C1656 1.378 . S
C1658 C1659 1.367 . S
C1659 C1658 1.367 . S
C1659 C1661 1.433 . S
C1660 C1656 1.350 . S
C1660 C1657 1.463 . S
C1660 N1664 1.427 . S
C1661 H1651 0.929 . S
C1661 C1659 1.433 . S
C1661 N1664 1.384 . S
C1662 H1653 0.929 . S
C1662 C1654 1.378 . S
C1662 C1657 1.350 . S
C1663 H1650 0.929 . S
C1663 C1655 1.433 . S
C1663 N1665 1.384 . S
N1664 C1660 1.427 . S
N1664 C1661 1.384 . S
N1665 C1657 1.427 . S
N1665 C1663 1.384 . S
H1666 C1672 0.930 . S
H1667 C1676 0.930 . S
H1668 C1681 0.929 . S
H1669 C1679 0.929 . S
H1670 C1674 0.929 . S
H1671 C1680 0.929 . S
C1672 H1666 0.930 . S
C1672 C1673 1.367 . S
C1672 C1680 1.378 . S
C1673 C1672 1.367 . S
C1673 C1681 1.433 . S
C1674 H1670 0.929 . S
C1674 C1676 1.378 . S
C1674 C1678 1.350 . S
C1675 C1678 1.463 . S
C1675 C1680 1.350 . S
C1675 N1683 1.427 . S
C1676 H1667 0.930 . S
C1676 C1674 1.378 . S
C1676 C1677 1.367 . S
C1677 C1676 1.367 . S
C1677 C1679 1.433 . S
C1678 C1674 1.350 . S
C1678 C1675 1.463 . S
C1678 N1682 1.427 . S
C1679 H1669 0.929 . S
C1679 C1677 1.433 . S
C1679 N1682 1.384 . S
C1680 H1671 0.929 . S
C1680 C1672 1.378 . S
C1680 C1675 1.350 . S
C1681 H1668 0.929 . S
C1681 C1673 1.433 . S
C1681 N1683 1.384 . S
N1682 C1678 1.427 . S
N1682 C1679 1.384 . S
N1683 C1675 1.427 . S
N1683 C1681 1.384 . S
H1684 C1690 0.930 . S
H1685 C1694 0.930 . S
H1686 C1699 0.929 . S
H1687 C1697 0.929 . S
H1688 C1692 0.929 . S
H1689 C1698 0.929 . S
C1690 H1684 0.930 . S
C1690 C1691 1.367 . S
C1690 C1698 1.378 . S
C1691 C1690 1.367 . S
C1691 C1699 1.433 . S
C1692 H1688 0.929 . S
C1692 C1694 1.378 . S
C1692 C1696 1.350 . S
C1693 C1696 1.463 . S
C1693 C1698 1.350 . S
C1693 N1701 1.427 . S
C1694 H1685 0.930 . S
C1694 C1692 1.378 . S
C1694 C1695 1.367 . S
C1695 C1694 1.367 . S
C1695 C1697 1.433 . S
C1696 C1692 1.350 . S
C1696 C1693 1.463 . S
C1696 N1700 1.427 . S
C1697 H1687 0.929 . S
C1697 C1695 1.433 . S
C1697 N1700 1.384 . S
C1698 H1689 0.929 . S
C1698 C1690 1.378 . S
C1698 C1693 1.350 . S
C1699 H1686 0.929 . S
C1699 C1691 1.433 . S
C1699 N1701 1.384 . S
N1700 C1696 1.427 . S
N1700 C1697 1.384 . S
N1701 C1693 1.427 . S
N1701 C1699 1.384 . S
H1702 C1708 0.930 . S
H1703 C1712 0.930 . S
H1704 C1717 0.929 . S
H1705 C1715 0.929 . S
H1706 C1710 0.929 . S
H1707 C1716 0.929 . S
C1708 H1702 0.930 . S
C1708 C1709 1.367 . S
C1708 C1716 1.378 . S
C1709 C1708 1.367 . S
C1709 C1717 1.433 . S
C1710 H1706 0.929 . S
C1710 C1712 1.378 . S
C1710 C1714 1.350 . S
C1711 C1714 1.463 . S
C1711 C1716 1.350 . S
C1711 N1719 1.427 . S
C1712 H1703 0.930 . S
C1712 C1710 1.378 . S
C1712 C1713 1.367 . S
C1713 C1712 1.367 . S
C1713 C1715 1.433 . S
C1714 C1710 1.350 . S
C1714 C1711 1.463 . S
C1714 N1718 1.427 . S
C1715 H1705 0.929 . S
C1715 C1713 1.433 . S
C1715 N1718 1.384 . S
C1716 H1707 0.929 . S
C1716 C1708 1.378 . S
C1716 C1711 1.350 . S
C1717 H1704 0.929 . S
C1717 C1709 1.433 . S
C1717 N1719 1.384 . S
N1718 C1714 1.427 . S
N1718 C1715 1.384 . S
N1719 C1711 1.427 . S
N1719 C1717 1.384 . S
H1720 C1726 0.930 . S
H1721 C1730 0.930 . S
H1722 C1735 0.929 . S
H1723 C1733 0.929 . S
H1724 C1728 0.929 . S
H1725 C1734 0.929 . S
C1726 H1720 0.930 . S
C1726 C1727 1.367 . S
C1726 C1734 1.378 . S
C1727 C1726 1.367 . S
C1727 C1735 1.433 . S
C1728 H1724 0.929 . S
C1728 C1730 1.378 . S
C1728 C1732 1.350 . S
C1729 C1732 1.463 . S
C1729 C1734 1.350 . S
C1729 N1737 1.427 . S
C1730 H1721 0.930 . S
C1730 C1728 1.378 . S
C1730 C1731 1.367 . S
C1731 C1730 1.367 . S
C1731 C1733 1.433 . S
C1732 C1728 1.350 . S
C1732 C1729 1.463 . S
C1732 N1736 1.427 . S
C1733 H1723 0.929 . S
C1733 C1731 1.433 . S
C1733 N1736 1.384 . S
C1734 H1725 0.929 . S
C1734 C1726 1.378 . S
C1734 C1729 1.350 . S
C1735 H1722 0.929 . S
C1735 C1727 1.433 . S
C1735 N1737 1.384 . S
N1736 C1732 1.427 . S
N1736 C1733 1.384 . S
N1737 C1729 1.427 . S
N1737 C1735 1.384 . S
H1738 C1744 0.930 . S
H1739 C1748 0.930 . S
H1740 C1753 0.929 . S
H1741 C1751 0.929 . S
H1742 C1746 0.929 . S
H1743 C1752 0.929 . S
C1744 H1738 0.930 . S
C1744 C1745 1.367 . S
C1744 C1752 1.378 . S
C1745 C1744 1.367 . S
C1745 C1753 1.433 . S
C1746 H1742 0.929 . S
C1746 C1748 1.378 . S
C1746 C1750 1.350 . S
C1747 C1750 1.463 . S
C1747 C1752 1.350 . S
C1747 N1755 1.427 . S
C1748 H1739 0.930 . S
C1748 C1746 1.378 . S
C1748 C1749 1.367 . S
C1749 C1748 1.367 . S
C1749 C1751 1.433 . S
C1750 C1746 1.350 . S
C1750 C1747 1.463 . S
C1750 N1754 1.427 . S
C1751 H1741 0.929 . S
C1751 C1749 1.433 . S
C1751 N1754 1.384 . S
C1752 H1743 0.929 . S
C1752 C1744 1.378 . S
C1752 C1747 1.350 . S
C1753 H1740 0.929 . S
C1753 C1745 1.433 . S
C1753 N1755 1.384 . S
N1754 C1750 1.427 . S
N1754 C1751 1.384 . S
N1755 C1747 1.427 . S
N1755 C1753 1.384 . S
H1756 C1762 0.930 . S
H1757 C1766 0.930 . S
H1758 C1771 0.929 . S
H1759 C1769 0.929 . S
H1760 C1764 0.929 . S
H1761 C1770 0.929 . S
C1762 H1756 0.930 . S
C1762 C1763 1.367 . S
C1762 C1770 1.378 . S
C1763 C1762 1.367 . S
C1763 C1771 1.433 . S
C1764 H1760 0.929 . S
C1764 C1766 1.378 . S
C1764 C1768 1.350 . S
C1765 C1768 1.463 . S
C1765 C1770 1.350 . S
C1765 N1773 1.427 . S
C1766 H1757 0.930 . S
C1766 C1764 1.378 . S
C1766 C1767 1.367 . S
C1767 C1766 1.367 . S
C1767 C1769 1.433 . S
C1768 C1764 1.350 . S
C1768 C1765 1.463 . S
C1768 N1772 1.427 . S
C1769 H1759 0.929 . S
C1769 C1767 1.433 . S
C1769 N1772 1.384 . S
C1770 H1761 0.929 . S
C1770 C1762 1.378 . S
C1770 C1765 1.350 . S
C1771 H1758 0.929 . S
C1771 C1763 1.433 . S
C1771 N1773 1.384 . S
N1772 C1768 1.427 . S
N1772 C1769 1.384 . S
N1773 C1765 1.427 . S
N1773 C1771 1.384 . S
H1774 C1780 0.930 . S
H1775 C1784 0.930 . S
H1776 C1789 0.929 . S
H1777 C1787 0.929 . S
H1778 C1782 0.929 . S
H1779 C1788 0.929 . S
C1780 H1774 0.930 . S
C1780 C1781 1.367 . S
C1780 C1788 1.378 . S
C1781 C1780 1.367 . S
C1781 C1789 1.433 . S
C1782 H1778 0.929 . S
C1782 C1784 1.378 . S
C1782 C1786 1.350 . S
C1783 C1786 1.463 . S
C1783 C1788 1.350 . S
C1783 N1791 1.427 . S
C1784 H1775 0.930 . S
C1784 C1782 1.378 . S
C1784 C1785 1.367 . S
C1785 C1784 1.367 . S
C1785 C1787 1.433 . S
C1786 C1782 1.350 . S
C1786 C1783 1.463 . S
C1786 N1790 1.427 . S
C1787 H1777 0.929 . S
C1787 C1785 1.433 . S
C1787 N1790 1.384 . S
C1788 H1779 0.929 . S
C1788 C1780 1.378 . S
C1788 C1783 1.350 . S
C1789 H1776 0.929 . S
C1789 C1781 1.433 . S
C1789 N1791 1.384 . S
N1790 C1786 1.427 . S
N1790 C1787 1.384 . S
N1791 C1783 1.427 . S
N1791 C1789 1.384 . S
H1792 C1798 0.930 . S
H1793 C1802 0.930 . S
H1794 C1807 0.929 . S
H1795 C1805 0.929 . S
H1796 C1800 0.929 . S
H1797 C1806 0.929 . S
C1798 H1792 0.930 . S
C1798 C1799 1.367 . S
C1798 C1806 1.378 . S
C1799 C1798 1.367 . S
C1799 C1807 1.433 . S
C1800 H1796 0.929 . S
C1800 C1802 1.378 . S
C1800 C1804 1.350 . S
C1801 C1804 1.463 . S
C1801 C1806 1.350 . S
C1801 N1809 1.427 . S
C1802 H1793 0.930 . S
C1802 C1800 1.378 . S
C1802 C1803 1.367 . S
C1803 C1802 1.367 . S
C1803 C1805 1.433 . S
C1804 C1800 1.350 . S
C1804 C1801 1.463 . S
C1804 N1808 1.427 . S
C1805 H1795 0.929 . S
C1805 C1803 1.433 . S
C1805 N1808 1.384 . S
C1806 H1797 0.929 . S
C1806 C1798 1.378 . S
C1806 C1801 1.350 . S
C1807 H1794 0.929 . S
C1807 C1799 1.433 . S
C1807 N1809 1.384 . S
N1808 C1804 1.427 . S
N1808 C1805 1.384 . S
N1809 C1801 1.427 . S
N1809 C1807 1.384 . S
H1810 C1816 0.930 . S
H1811 C1820 0.930 . S
H1812 C1825 0.929 . S
H1813 C1823 0.929 . S
H1814 C1818 0.929 . S
H1815 C1824 0.929 . S
C1816 H1810 0.930 . S
C1816 C1817 1.367 . S
C1816 C1824 1.378 . S
C1817 C1816 1.367 . S
C1817 C1825 1.433 . S
C1818 H1814 0.929 . S
C1818 C1820 1.378 . S
C1818 C1822 1.350 . S
C1819 C1822 1.463 . S
C1819 C1824 1.350 . S
C1819 N1827 1.427 . S
C1820 H1811 0.930 . S
C1820 C1818 1.378 . S
C1820 C1821 1.367 . S
C1821 C1820 1.367 . S
C1821 C1823 1.433 . S
C1822 C1818 1.350 . S
C1822 C1819 1.463 . S
C1822 N1826 1.427 . S
C1823 H1813 0.929 . S
C1823 C1821 1.433 . S
C1823 N1826 1.384 . S
C1824 H1815 0.929 . S
C1824 C1816 1.378 . S
C1824 C1819 1.350 . S
C1825 H1812 0.929 . S
C1825 C1817 1.433 . S
C1825 N1827 1.384 . S
N1826 C1822 1.427 . S
N1826 C1823 1.384 . S
N1827 C1819 1.427 . S
N1827 C1825 1.384 . S
H1828 C1834 0.930 . S
H1829 C1838 0.930 . S
H1830 C1843 0.929 . S
H1831 C1841 0.929 . S
H1832 C1836 0.929 . S
H1833 C1842 0.929 . S
C1834 H1828 0.930 . S
C1834 C1835 1.367 . S
C1834 C1842 1.378 . S
C1835 C1834 1.367 . S
C1835 C1843 1.433 . S
C1836 H1832 0.929 . S
C1836 C1838 1.378 . S
C1836 C1840 1.350 . S
C1837 C1840 1.463 . S
C1837 C1842 1.350 . S
C1837 N1845 1.427 . S
C1838 H1829 0.930 . S
C1838 C1836 1.378 . S
C1838 C1839 1.367 . S
C1839 C1838 1.367 . S
C1839 C1841 1.433 . S
C1840 C1836 1.350 . S
C1840 C1837 1.463 . S
C1840 N1844 1.427 . S
C1841 H1831 0.929 . S
C1841 C1839 1.433 . S
C1841 N1844 1.384 . S
C1842 H1833 0.929 . S
C1842 C1834 1.378 . S
C1842 C1837 1.350 . S
C1843 H1830 0.929 . S
C1843 C1835 1.433 . S
C1843 N1845 1.384 . S
N1844 C1840 1.427 . S
N1844 C1841 1.384 . S
N1845 C1837 1.427 . S
N1845 C1843 1.384 . S
H1846 C1852 0.930 . S
H1847 C1856 0.930 . S
H1848 C1861 0.929 . S
H1849 C1859 0.929 . S
H1850 C1854 0.929 . S
H1851 C1860 0.929 . S
C1852 H1846 0.930 . S
C1852 C1853 1.367 . S
C1852 C1860 1.378 . S
C1853 C1852 1.367 . S
C1853 C1861 1.433 . S
C1854 H1850 0.929 . S
C1854 C1856 1.378 . S
C1854 C1858 1.350 . S
C1855 C1858 1.463 . S
C1855 C1860 1.350 . S
C1855 N1863 1.427 . S
C1856 H1847 0.930 . S
C1856 C1854 1.378 . S
C1856 C1857 1.367 . S
C1857 C1856 1.367 . S
C1857 C1859 1.433 . S
C1858 C1854 1.350 . S
C1858 C1855 1.463 . S
C1858 N1862 1.427 . S
C1859 H1849 0.929 . S
C1859 C1857 1.433 . S
C1859 N1862 1.384 . S
C1860 H1851 0.929 . S
C1860 C1852 1.378 . S
C1860 C1855 1.350 . S
C1861 H1848 0.929 . S
C1861 C1853 1.433 . S
C1861 N1863 1.384 . S
N1862 C1858 1.427 . S
N1862 C1859 1.384 . S
N1863 C1855 1.427 . S
N1863 C1861 1.384 . S
H1864 C1870 0.930 . S
H1865 C1874 0.930 . S
H1866 C1879 0.929 . S
H1867 C1877 0.929 . S
H1868 C1872 0.929 . S
H1869 C1878 0.929 . S
C1870 H1864 0.930 . S
C1870 C1871 1.367 . S
C1870 C1878 1.378 . S
C1871 C1870 1.367 . S
C1871 C1879 1.433 . S
C1872 H1868 0.929 . S
C1872 C1874 1.378 . S
C1872 C1876 1.350 . S
C1873 C1876 1.463 . S
C1873 C1878 1.350 . S
C1873 N1881 1.427 . S
C1874 H1865 0.930 . S
C1874 C1872 1.378 . S
C1874 C1875 1.367 . S
C1875 C1874 1.367 . S
C1875 C1877 1.433 . S
C1876 C1872 1.350 . S
C1876 C1873 1.463 . S
C1876 N1880 1.427 . S
C1877 H1867 0.929 . S
C1877 C1875 1.433 . S
C1877 N1880 1.384 . S
C1878 H1869 0.929 . S
C1878 C1870 1.378 . S
C1878 C1873 1.350 . S
C1879 H1866 0.929 . S
C1879 C1871 1.433 . S
C1879 N1881 1.384 . S
N1880 C1876 1.427 . S
N1880 C1877 1.384 . S
N1881 C1873 1.427 . S
N1881 C1879 1.384 . S
H1882 C1888 0.930 . S
H1883 C1892 0.930 . S
H1884 C1897 0.929 . S
H1885 C1895 0.929 . S
H1886 C1890 0.929 . S
H1887 C1896 0.929 . S
C1888 H1882 0.930 . S
C1888 C1889 1.367 . S
C1888 C1896 1.378 . S
C1889 C1888 1.367 . S
C1889 C1897 1.433 . S
C1890 H1886 0.929 . S
C1890 C1892 1.378 . S
C1890 C1894 1.350 . S
C1891 C1894 1.463 . S
C1891 C1896 1.350 . S
C1891 N1899 1.427 . S
C1892 H1883 0.930 . S
C1892 C1890 1.378 . S
C1892 C1893 1.367 . S
C1893 C1892 1.367 . S
C1893 C1895 1.433 . S
C1894 C1890 1.350 . S
C1894 C1891 1.463 . S
C1894 N1898 1.427 . S
C1895 H1885 0.929 . S
C1895 C1893 1.433 . S
C1895 N1898 1.384 . S
C1896 H1887 0.929 . S
C1896 C1888 1.378 . S
C1896 C1891 1.350 . S
C1897 H1884 0.929 . S
C1897 C1889 1.433 . S
C1897 N1899 1.384 . S
N1898 C1894 1.427 . S
N1898 C1895 1.384 . S
N1899 C1891 1.427 . S
N1899 C1897 1.384 . S
H1900 C1906 0.930 . S
H1901 C1910 0.930 . S
H1902 C1915 0.929 . S
H1903 C1913 0.929 . S
H1904 C1908 0.929 . S
H1905 C1914 0.929 . S
C1906 H1900 0.930 . S
C1906 C1907 1.367 . S
C1906 C1914 1.378 . S
C1907 C1906 1.367 . S
C1907 C1915 1.433 . S
C1908 H1904 0.929 . S
C1908 C1910 1.378 . S
C1908 C1912 1.350 . S
C1909 C1912 1.463 . S
C1909 C1914 1.350 . S
C1909 N1917 1.427 . S
C1910 H1901 0.930 . S
C1910 C1908 1.378 . S
C1910 C1911 1.367 . S
C1911 C1910 1.367 . S
C1911 C1913 1.433 . S
C1912 C1908 1.350 . S
C1912 C1909 1.463 . S
C1912 N1916 1.427 . S
C1913 H1903 0.929 . S
C1913 C1911 1.433 . S
C1913 N1916 1.384 . S
C1914 H1905 0.929 . S
C1914 C1906 1.378 . S
C1914 C1909 1.350 . S
C1915 H1902 0.929 . S
C1915 C1907 1.433 . S
C1915 N1917 1.384 . S
N1916 C1912 1.427 . S
N1916 C1913 1.384 . S
N1917 C1909 1.427 . S
N1917 C1915 1.384 . S
H1918 C1924 0.930 . S
H1919 C1928 0.930 . S
H1920 C1933 0.929 . S
H1921 C1931 0.929 . S
H1922 C1926 0.929 . S
H1923 C1932 0.929 . S
C1924 H1918 0.930 . S
C1924 C1925 1.367 . S
C1924 C1932 1.378 . S
C1925 C1924 1.367 . S
C1925 C1933 1.433 . S
C1926 H1922 0.929 . S
C1926 C1928 1.378 . S
C1926 C1930 1.350 . S
C1927 C1930 1.463 . S
C1927 C1932 1.350 . S
C1927 N1935 1.427 . S
C1928 H1919 0.930 . S
C1928 C1926 1.378 . S
C1928 C1929 1.367 . S
C1929 C1928 1.367 . S
C1929 C1931 1.433 . S
C1930 C1926 1.350 . S
C1930 C1927 1.463 . S
C1930 N1934 1.427 . S
C1931 H1921 0.929 . S
C1931 C1929 1.433 . S
C1931 N1934 1.384 . S
C1932 H1923 0.929 . S
C1932 C1924 1.378 . S
C1932 C1927 1.350 . S
C1933 H1920 0.929 . S
C1933 C1925 1.433 . S
C1933 N1935 1.384 . S
N1934 C1930 1.427 . S
N1934 C1931 1.384 . S
N1935 C1927 1.427 . S
N1935 C1933 1.384 . S
H1936 C1942 0.930 . S
H1937 C1946 0.930 . S
H1938 C1951 0.929 . S
H1939 C1949 0.929 . S
H1940 C1944 0.929 . S
H1941 C1950 0.929 . S
C1942 H1936 0.930 . S
C1942 C1943 1.367 . S
C1942 C1950 1.378 . S
C1943 C1942 1.367 . S
C1943 C1951 1.433 . S
C1944 H1940 0.929 . S
C1944 C1946 1.378 . S
C1944 C1948 1.350 . S
C1945 C1948 1.463 . S
C1945 C1950 1.350 . S
C1945 N1953 1.427 . S
C1946 H1937 0.930 . S
C1946 C1944 1.378 . S
C1946 C1947 1.367 . S
C1947 C1946 1.367 . S
C1947 C1949 1.433 . S
C1948 C1944 1.350 . S
C1948 C1945 1.463 . S
C1948 N1952 1.427 . S
C1949 H1939 0.929 . S
C1949 C1947 1.433 . S
C1949 N1952 1.384 . S
C1950 H1941 0.929 . S
C1950 C1942 1.378 . S
C1950 C1945 1.350 . S
C1951 H1938 0.929 . S
C1951 C1943 1.433 . S
C1951 N1953 1.384 . S
N1952 C1948 1.427 . S
N1952 C1949 1.384 . S
N1953 C1945 1.427 . S
N1953 C1951 1.384 . S
H1954 C1960 0.930 . S
H1955 C1964 0.930 . S
H1956 C1969 0.929 . S
H1957 C1967 0.929 . S
H1958 C1962 0.929 . S
H1959 C1968 0.929 . S
C1960 H1954 0.930 . S
C1960 C1961 1.367 . S
C1960 C1968 1.378 . S
C1961 C1960 1.367 . S
C1961 C1969 1.433 . S
C1962 H1958 0.929 . S
C1962 C1964 1.378 . S
C1962 C1966 1.350 . S
C1963 C1966 1.463 . S
C1963 C1968 1.350 . S
C1963 N1971 1.427 . S
C1964 H1955 0.930 . S
C1964 C1962 1.378 . S
C1964 C1965 1.367 . S
C1965 C1964 1.367 . S
C1965 C1967 1.433 . S
C1966 C1962 1.350 . S
C1966 C1963 1.463 . S
C1966 N1970 1.427 . S
C1967 H1957 0.929 . S
C1967 C1965 1.433 . S
C1967 N1970 1.384 . S
C1968 H1959 0.929 . S
C1968 C1960 1.378 . S
C1968 C1963 1.350 . S
C1969 H1956 0.929 . S
C1969 C1961 1.433 . S
C1969 N1971 1.384 . S
N1970 C1966 1.427 . S
N1970 C1967 1.384 . S
N1971 C1963 1.427 . S
N1971 C1969 1.384 . S
H1972 C1978 0.930 . S
H1973 C1982 0.930 . S
H1974 C1987 0.929 . S
H1975 C1985 0.929 . S
H1976 C1980 0.929 . S
H1977 C1986 0.929 . S
C1978 H1972 0.930 . S
C1978 C1979 1.367 . S
C1978 C1986 1.378 . S
C1979 C1978 1.367 . S
C1979 C1987 1.433 . S
C1980 H1976 0.929 . S
C1980 C1982 1.378 . S
C1980 C1984 1.350 . S
C1981 C1984 1.463 . S
C1981 C1986 1.350 . S
C1981 N1989 1.427 . S
C1982 H1973 0.930 . S
C1982 C1980 1.378 . S
C1982 C1983 1.367 . S
C1983 C1982 1.367 . S
C1983 C1985 1.433 . S
C1984 C1980 1.350 . S
C1984 C1981 1.463 . S
C1984 N1988 1.427 . S
C1985 H1975 0.929 . S
C1985 C1983 1.433 . S
C1985 N1988 1.384 . S
C1986 H1977 0.929 . S
C1986 C1978 1.378 . S
C1986 C1981 1.350 . S
C1987 H1974 0.929 . S
C1987 C1979 1.433 . S
C1987 N1989 1.384 . S
N1988 C1984 1.427 . S
N1988 C1985 1.384 . S
N1989 C1981 1.427 . S
N1989 C1987 1.384 . S
H1990 C1996 0.930 . S
H1991 C2000 0.930 . S
H1992 C2005 0.929 . S
H1993 C2003 0.929 . S
H1994 C1998 0.929 . S
H1995 C2004 0.929 . S
C1996 H1990 0.930 . S
C1996 C1997 1.367 . S
C1996 C2004 1.378 . S
C1997 C1996 1.367 . S
C1997 C2005 1.433 . S
C1998 H1994 0.929 . S
C1998 C2000 1.378 . S
C1998 C2002 1.350 . S
C1999 C2002 1.463 . S
C1999 C2004 1.350 . S
C1999 N2007 1.427 . S
C2000 H1991 0.930 . S
C2000 C1998 1.378 . S
C2000 C2001 1.367 . S
C2001 C2000 1.367 . S
C2001 C2003 1.433 . S
C2002 C1998 1.350 . S
C2002 C1999 1.463 . S
C2002 N2006 1.427 . S
C2003 H1993 0.929 . S
C2003 C2001 1.433 . S
C2003 N2006 1.384 . S
C2004 H1995 0.929 . S
C2004 C1996 1.378 . S
C2004 C1999 1.350 . S
C2005 H1992 0.929 . S
C2005 C1997 1.433 . S
C2005 N2007 1.384 . S
N2006 C2002 1.427 . S
N2006 C2003 1.384 . S
N2007 C1999 1.427 . S
N2007 C2005 1.384 . S
H2008 C2014 0.930 . S
H2009 C2018 0.930 . S
H2010 C2023 0.929 . S
H2011 C2021 0.929 . S
H2012 C2016 0.929 . S
H2013 C2022 0.929 . S
C2014 H2008 0.930 . S
C2014 C2015 1.367 . S
C2014 C2022 1.378 . S
C2015 C2014 1.367 . S
C2015 C2023 1.433 . S
C2016 H2012 0.929 . S
C2016 C2018 1.378 . S
C2016 C2020 1.350 . S
C2017 C2020 1.463 . S
C2017 C2022 1.350 . S
C2017 N2025 1.427 . S
C2018 H2009 0.930 . S
C2018 C2016 1.378 . S
C2018 C2019 1.367 . S
C2019 C2018 1.367 . S
C2019 C2021 1.433 . S
C2020 C2016 1.350 . S
C2020 C2017 1.463 . S
C2020 N2024 1.427 . S
C2021 H2011 0.929 . S
C2021 C2019 1.433 . S
C2021 N2024 1.384 . S
C2022 H2013 0.929 . S
C2022 C2014 1.378 . S
C2022 C2017 1.350 . S
C2023 H2010 0.929 . S
C2023 C2015 1.433 . S
C2023 N2025 1.384 . S
N2024 C2020 1.427 . S
N2024 C2021 1.384 . S
N2025 C2017 1.427 . S
N2025 C2023 1.384 . S
H2026 C2032 0.930 . S
H2027 C2036 0.930 . S
H2028 C2041 0.929 . S
H2029 C2039 0.929 . S
H2030 C2034 0.929 . S
H2031 C2040 0.929 . S
C2032 H2026 0.930 . S
C2032 C2033 1.367 . S
C2032 C2040 1.378 . S
C2033 C2032 1.367 . S
C2033 C2041 1.433 . S
C2034 H2030 0.929 . S
C2034 C2036 1.378 . S
C2034 C2038 1.350 . S
C2035 C2038 1.463 . S
C2035 C2040 1.350 . S
C2035 N2043 1.427 . S
C2036 H2027 0.930 . S
C2036 C2034 1.378 . S
C2036 C2037 1.367 . S
C2037 C2036 1.367 . S
C2037 C2039 1.433 . S
C2038 C2034 1.350 . S
C2038 C2035 1.463 . S
C2038 N2042 1.427 . S
C2039 H2029 0.929 . S
C2039 C2037 1.433 . S
C2039 N2042 1.384 . S
C2040 H2031 0.929 . S
C2040 C2032 1.378 . S
C2040 C2035 1.350 . S
C2041 H2028 0.929 . S
C2041 C2033 1.433 . S
C2041 N2043 1.384 . S
N2042 C2038 1.427 . S
N2042 C2039 1.384 . S
N2043 C2035 1.427 . S
N2043 C2041 1.384 . S
H2044 C2050 0.930 . S
H2045 C2054 0.930 . S
H2046 C2059 0.929 . S
H2047 C2057 0.929 . S
H2048 C2052 0.929 . S
H2049 C2058 0.929 . S
C2050 H2044 0.930 . S
C2050 C2051 1.367 . S
C2050 C2058 1.378 . S
C2051 C2050 1.367 . S
C2051 C2059 1.433 . S
C2052 H2048 0.929 . S
C2052 C2054 1.378 . S
C2052 C2056 1.350 . S
C2053 C2056 1.463 . S
C2053 C2058 1.350 . S
C2053 N2061 1.427 . S
C2054 H2045 0.930 . S
C2054 C2052 1.378 . S
C2054 C2055 1.367 . S
C2055 C2054 1.367 . S
C2055 C2057 1.433 . S
C2056 C2052 1.350 . S
C2056 C2053 1.463 . S
C2056 N2060 1.427 . S
C2057 H2047 0.929 . S
C2057 C2055 1.433 . S
C2057 N2060 1.384 . S
C2058 H2049 0.929 . S
C2058 C2050 1.378 . S
C2058 C2053 1.350 . S
C2059 H2046 0.929 . S
C2059 C2051 1.433 . S
C2059 N2061 1.384 . S
N2060 C2056 1.427 . S
N2060 C2057 1.384 . S
N2061 C2053 1.427 . S
N2061 C2059 1.384 . S
H2062 C2068 0.930 . S
H2063 C2072 0.930 . S
H2064 C2077 0.929 . S
H2065 C2075 0.929 . S
H2066 C2070 0.929 . S
H2067 C2076 0.929 . S
C2068 H2062 0.930 . S
C2068 C2069 1.367 . S
C2068 C2076 1.378 . S
C2069 C2068 1.367 . S
C2069 C2077 1.433 . S
C2070 H2066 0.929 . S
C2070 C2072 1.378 . S
C2070 C2074 1.350 . S
C2071 C2074 1.463 . S
C2071 C2076 1.350 . S
C2071 N2079 1.427 . S
C2072 H2063 0.930 . S
C2072 C2070 1.378 . S
C2072 C2073 1.367 . S
C2073 C2072 1.367 . S
C2073 C2075 1.433 . S
C2074 C2070 1.350 . S
C2074 C2071 1.463 . S
C2074 N2078 1.427 . S
C2075 H2065 0.929 . S
C2075 C2073 1.433 . S
C2075 N2078 1.384 . S
C2076 H2067 0.929 . S
C2076 C2068 1.378 . S
C2076 C2071 1.350 . S
C2077 H2064 0.929 . S
C2077 C2069 1.433 . S
C2077 N2079 1.384 . S
N2078 C2074 1.427 . S
N2078 C2075 1.384 . S
N2079 C2071 1.427 . S
N2079 C2077 1.384 . S
H2080 C2086 0.930 . S
H2081 C2090 0.930 . S
H2082 C2095 0.929 . S
H2083 C2093 0.929 . S
H2084 C2088 0.929 . S
H2085 C2094 0.929 . S
C2086 H2080 0.930 . S
C2086 C2087 1.367 . S
C2086 C2094 1.378 . S
C2087 C2086 1.367 . S
C2087 C2095 1.433 . S
C2088 H2084 0.929 . S
C2088 C2090 1.378 . S
C2088 C2092 1.350 . S
C2089 C2092 1.463 . S
C2089 C2094 1.350 . S
C2089 N2097 1.427 . S
C2090 H2081 0.930 . S
C2090 C2088 1.378 . S
C2090 C2091 1.367 . S
C2091 C2090 1.367 . S
C2091 C2093 1.433 . S
C2092 C2088 1.350 . S
C2092 C2089 1.463 . S
C2092 N2096 1.427 . S
C2093 H2083 0.929 . S
C2093 C2091 1.433 . S
C2093 N2096 1.384 . S
C2094 H2085 0.929 . S
C2094 C2086 1.378 . S
C2094 C2089 1.350 . S
C2095 H2082 0.929 . S
C2095 C2087 1.433 . S
C2095 N2097 1.384 . S
N2096 C2092 1.427 . S
N2096 C2093 1.384 . S
N2097 C2089 1.427 . S
N2097 C2095 1.384 . S
H2098 C2104 0.930 . S
H2099 C2108 0.930 . S
H2100 C2113 0.929 . S
H2101 C2111 0.929 . S
H2102 C2106 0.929 . S
H2103 C2112 0.929 . S
C2104 H2098 0.930 . S
C2104 C2105 1.367 . S
C2104 C2112 1.378 . S
C2105 C2104 1.367 . S
C2105 C2113 1.433 . S
C2106 H2102 0.929 . S
C2106 C2108 1.378 . S
C2106 C2110 1.350 . S
C2107 C2110 1.463 . S
C2107 C2112 1.350 . S
C2107 N2115 1.427 . S
C2108 H2099 0.930 . S
C2108 C2106 1.378 . S
C2108 C2109 1.367 . S
C2109 C2108 1.367 . S
C2109 C2111 1.433 . S
C2110 C2106 1.350 . S
C2110 C2107 1.463 . S
C2110 N2114 1.427 . S
C2111 H2101 0.929 . S
C2111 C2109 1.433 . S
C2111 N2114 1.384 . S
C2112 H2103 0.929 . S
C2112 C2104 1.378 . S
C2112 C2107 1.350 . S
C2113 H2100 0.929 . S
C2113 C2105 1.433 . S
C2113 N2115 1.384 . S
N2114 C2110 1.427 . S
N2114 C2111 1.384 . S
N2115 C2107 1.427 . S
N2115 C2113 1.384 . S
H2116 C2122 0.930 . S
H2117 C2126 0.930 . S
H2118 C2131 0.929 . S
H2119 C2129 0.929 . S
H2120 C2124 0.929 . S
H2121 C2130 0.929 . S
C2122 H2116 0.930 . S
C2122 C2123 1.367 . S
C2122 C2130 1.378 . S
C2123 C2122 1.367 . S
C2123 C2131 1.433 . S
C2124 H2120 0.929 . S
C2124 C2126 1.378 . S
C2124 C2128 1.350 . S
C2125 C2128 1.463 . S
C2125 C2130 1.350 . S
C2125 N2133 1.427 . S
C2126 H2117 0.930 . S
C2126 C2124 1.378 . S
C2126 C2127 1.367 . S
C2127 C2126 1.367 . S
C2127 C2129 1.433 . S
C2128 C2124 1.350 . S
C2128 C2125 1.463 . S
C2128 N2132 1.427 . S
C2129 H2119 0.929 . S
C2129 C2127 1.433 . S
C2129 N2132 1.384 . S
C2130 H2121 0.929 . S
C2130 C2122 1.378 . S
C2130 C2125 1.350 . S
C2131 H2118 0.929 . S
C2131 C2123 1.433 . S
C2131 N2133 1.384 . S
N2132 C2128 1.427 . S
N2132 C2129 1.384 . S
N2133 C2125 1.427 . S
N2133 C2131 1.384 . S
H2134 C2140 0.930 . S
H2135 C2144 0.930 . S
H2136 C2149 0.929 . S
H2137 C2147 0.929 . S
H2138 C2142 0.929 . S
H2139 C2148 0.929 . S
C2140 H2134 0.930 . S
C2140 C2141 1.367 . S
C2140 C2148 1.378 . S
C2141 C2140 1.367 . S
C2141 C2149 1.433 . S
C2142 H2138 0.929 . S
C2142 C2144 1.378 . S
C2142 C2146 1.350 . S
C2143 C2146 1.463 . S
C2143 C2148 1.350 . S
C2143 N2151 1.427 . S
C2144 H2135 0.930 . S
C2144 C2142 1.378 . S
C2144 C2145 1.367 . S
C2145 C2144 1.367 . S
C2145 C2147 1.433 . S
C2146 C2142 1.350 . S
C2146 C2143 1.463 . S
C2146 N2150 1.427 . S
C2147 H2137 0.929 . S
C2147 C2145 1.433 . S
C2147 N2150 1.384 . S
C2148 H2139 0.929 . S
C2148 C2140 1.378 . S
C2148 C2143 1.350 . S
C2149 H2136 0.929 . S
C2149 C2141 1.433 . S
C2149 N2151 1.384 . S
N2150 C2146 1.427 . S
N2150 C2147 1.384 . S
N2151 C2143 1.427 . S
N2151 C2149 1.384 . S
H2152 C2158 0.930 . S
H2153 C2162 0.930 . S
H2154 C2167 0.929 . S
H2155 C2165 0.929 . S
H2156 C2160 0.929 . S
H2157 C2166 0.929 . S
C2158 H2152 0.930 . S
C2158 C2159 1.367 . S
C2158 C2166 1.378 . S
C2159 C2158 1.367 . S
C2159 C2167 1.433 . S
C2160 H2156 0.929 . S
C2160 C2162 1.378 . S
C2160 C2164 1.350 . S
C2161 C2164 1.463 . S
C2161 C2166 1.350 . S
C2161 N2169 1.427 . S
C2162 H2153 0.930 . S
C2162 C2160 1.378 . S
C2162 C2163 1.367 . S
C2163 C2162 1.367 . S
C2163 C2165 1.433 . S
C2164 C2160 1.350 . S
C2164 C2161 1.463 . S
C2164 N2168 1.427 . S
C2165 H2155 0.929 . S
C2165 C2163 1.433 . S
C2165 N2168 1.384 . S
C2166 H2157 0.929 . S
C2166 C2158 1.378 . S
C2166 C2161 1.350 . S
C2167 H2154 0.929 . S
C2167 C2159 1.433 . S
C2167 N2169 1.384 . S
N2168 C2164 1.427 . S
N2168 C2165 1.384 . S
N2169 C2161 1.427 . S
N2169 C2167 1.384 . S
H2170 C2176 0.930 . S
H2171 C2180 0.930 . S
H2172 C2185 0.929 . S
H2173 C2183 0.929 . S
H2174 C2178 0.929 . S
H2175 C2184 0.929 . S
C2176 H2170 0.930 . S
C2176 C2177 1.367 . S
C2176 C2184 1.378 . S
C2177 C2176 1.367 . S
C2177 C2185 1.433 . S
C2178 H2174 0.929 . S
C2178 C2180 1.378 . S
C2178 C2182 1.350 . S
C2179 C2182 1.463 . S
C2179 C2184 1.350 . S
C2179 N2187 1.427 . S
C2180 H2171 0.930 . S
C2180 C2178 1.378 . S
C2180 C2181 1.367 . S
C2181 C2180 1.367 . S
C2181 C2183 1.433 . S
C2182 C2178 1.350 . S
C2182 C2179 1.463 . S
C2182 N2186 1.427 . S
C2183 H2173 0.929 . S
C2183 C2181 1.433 . S
C2183 N2186 1.384 . S
C2184 H2175 0.929 . S
C2184 C2176 1.378 . S
C2184 C2179 1.350 . S
C2185 H2172 0.929 . S
C2185 C2177 1.433 . S
C2185 N2187 1.384 . S
N2186 C2182 1.427 . S
N2186 C2183 1.384 . S
N2187 C2179 1.427 . S
N2187 C2185 1.384 . S
H2188 C2194 0.930 . S
H2189 C2198 0.930 . S
H2190 C2203 0.929 . S
H2191 C2201 0.929 . S
H2192 C2196 0.929 . S
H2193 C2202 0.929 . S
C2194 H2188 0.930 . S
C2194 C2195 1.367 . S
C2194 C2202 1.378 . S
C2195 C2194 1.367 . S
C2195 C2203 1.433 . S
C2196 H2192 0.929 . S
C2196 C2198 1.378 . S
C2196 C2200 1.350 . S
C2197 C2200 1.463 . S
C2197 C2202 1.350 . S
C2197 N2205 1.427 . S
C2198 H2189 0.930 . S
C2198 C2196 1.378 . S
C2198 C2199 1.367 . S
C2199 C2198 1.367 . S
C2199 C2201 1.433 . S
C2200 C2196 1.350 . S
C2200 C2197 1.463 . S
C2200 N2204 1.427 . S
C2201 H2191 0.929 . S
C2201 C2199 1.433 . S
C2201 N2204 1.384 . S
C2202 H2193 0.929 . S
C2202 C2194 1.378 . S
C2202 C2197 1.350 . S
C2203 H2190 0.929 . S
C2203 C2195 1.433 . S
C2203 N2205 1.384 . S
N2204 C2200 1.427 . S
N2204 C2201 1.384 . S
N2205 C2197 1.427 . S
N2205 C2203 1.384 . S
H2206 C2212 0.930 . S
H2207 C2216 0.930 . S
H2208 C2221 0.929 . S
H2209 C2219 0.929 . S
H2210 C2214 0.929 . S
H2211 C2220 0.929 . S
C2212 H2206 0.930 . S
C2212 C2213 1.367 . S
C2212 C2220 1.378 . S
C2213 C2212 1.367 . S
C2213 C2221 1.433 . S
C2214 H2210 0.929 . S
C2214 C2216 1.378 . S
C2214 C2218 1.350 . S
C2215 C2218 1.463 . S
C2215 C2220 1.350 . S
C2215 N2223 1.427 . S
C2216 H2207 0.930 . S
C2216 C2214 1.378 . S
C2216 C2217 1.367 . S
C2217 C2216 1.367 . S
C2217 C2219 1.433 . S
C2218 C2214 1.350 . S
C2218 C2215 1.463 . S
C2218 N2222 1.427 . S
C2219 H2209 0.929 . S
C2219 C2217 1.433 . S
C2219 N2222 1.384 . S
C2220 H2211 0.929 . S
C2220 C2212 1.378 . S
C2220 C2215 1.350 . S
C2221 H2208 0.929 . S
C2221 C2213 1.433 . S
C2221 N2223 1.384 . S
N2222 C2218 1.427 . S
N2222 C2219 1.384 . S
N2223 C2215 1.427 . S
N2223 C2221 1.384 . S
H2224 C2230 0.930 . S
H2225 C2234 0.930 . S
H2226 C2239 0.929 . S
H2227 C2237 0.929 . S
H2228 C2232 0.929 . S
H2229 C2238 0.929 . S
C2230 H2224 0.930 . S
C2230 C2231 1.367 . S
C2230 C2238 1.378 . S
C2231 C2230 1.367 . S
C2231 C2239 1.433 . S
C2232 H2228 0.929 . S
C2232 C2234 1.378 . S
C2232 C2236 1.350 . S
C2233 C2236 1.463 . S
C2233 C2238 1.350 . S
C2233 N2241 1.427 . S
C2234 H2225 0.930 . S
C2234 C2232 1.378 . S
C2234 C2235 1.367 . S
C2235 C2234 1.367 . S
C2235 C2237 1.433 . S
C2236 C2232 1.350 . S
C2236 C2233 1.463 . S
C2236 N2240 1.427 . S
C2237 H2227 0.929 . S
C2237 C2235 1.433 . S
C2237 N2240 1.384 . S
C2238 H2229 0.929 . S
C2238 C2230 1.378 . S
C2238 C2233 1.350 . S
C2239 H2226 0.929 . S
C2239 C2231 1.433 . S
C2239 N2241 1.384 . S
N2240 C2236 1.427 . S
N2240 C2237 1.384 . S
N2241 C2233 1.427 . S
N2241 C2239 1.384 . S
H2242 C2248 0.930 . S
H2243 C2252 0.930 . S
H2244 C2257 0.929 . S
H2245 C2255 0.929 . S
H2246 C2250 0.929 . S
H2247 C2256 0.929 . S
C2248 H2242 0.930 . S
C2248 C2249 1.367 . S
C2248 C2256 1.378 . S
C2249 C2248 1.367 . S
C2249 C2257 1.433 . S
C2250 H2246 0.929 . S
C2250 C2252 1.378 . S
C2250 C2254 1.350 . S
C2251 C2254 1.463 . S
C2251 C2256 1.350 . S
C2251 N2259 1.427 . S
C2252 H2243 0.930 . S
C2252 C2250 1.378 . S
C2252 C2253 1.367 . S
C2253 C2252 1.367 . S
C2253 C2255 1.433 . S
C2254 C2250 1.350 . S
C2254 C2251 1.463 . S
C2254 N2258 1.427 . S
C2255 H2245 0.929 . S
C2255 C2253 1.433 . S
C2255 N2258 1.384 . S
C2256 H2247 0.929 . S
C2256 C2248 1.378 . S
C2256 C2251 1.350 . S
C2257 H2244 0.929 . S
C2257 C2249 1.433 . S
C2257 N2259 1.384 . S
N2258 C2254 1.427 . S
N2258 C2255 1.384 . S
N2259 C2251 1.427 . S
N2259 C2257 1.384 . S
H2260 C2266 0.930 . S
H2261 C2270 0.930 . S
H2262 C2275 0.929 . S
H2263 C2273 0.929 . S
H2264 C2268 0.929 . S
H2265 C2274 0.929 . S
C2266 H2260 0.930 . S
C2266 C2267 1.367 . S
C2266 C2274 1.378 . S
C2267 C2266 1.367 . S
C2267 C2275 1.433 . S
C2268 H2264 0.929 . S
C2268 C2270 1.378 . S
C2268 C2272 1.350 . S
C2269 C2272 1.463 . S
C2269 C2274 1.350 . S
C2269 N2277 1.427 . S
C2270 H2261 0.930 . S
C2270 C2268 1.378 . S
C2270 C2271 1.367 . S
C2271 C2270 1.367 . S
C2271 C2273 1.433 . S
C2272 C2268 1.350 . S
C2272 C2269 1.463 . S
C2272 N2276 1.427 . S
C2273 H2263 0.929 . S
C2273 C2271 1.433 . S
C2273 N2276 1.384 . S
C2274 H2265 0.929 . S
C2274 C2266 1.378 . S
C2274 C2269 1.350 . S
C2275 H2262 0.929 . S
C2275 C2267 1.433 . S
C2275 N2277 1.384 . S
N2276 C2272 1.427 . S
N2276 C2273 1.384 . S
N2277 C2269 1.427 . S
N2277 C2275 1.384 . S
H2278 C2284 0.930 . S
H2279 C2288 0.930 . S
H2280 C2293 0.929 . S
H2281 C2291 0.929 . S
H2282 C2286 0.929 . S
H2283 C2292 0.929 . S
C2284 H2278 0.930 . S
C2284 C2285 1.367 . S
C2284 C2292 1.378 . S
C2285 C2284 1.367 . S
C2285 C2293 1.433 . S
C2286 H2282 0.929 . S
C2286 C2288 1.378 . S
C2286 C2290 1.350 . S
C2287 C2290 1.463 . S
C2287 C2292 1.350 . S
C2287 N2295 1.427 . S
C2288 H2279 0.930 . S
C2288 C2286 1.378 . S
C2288 C2289 1.367 . S
C2289 C2288 1.367 . S
C2289 C2291 1.433 . S
C2290 C2286 1.350 . S
C2290 C2287 1.463 . S
C2290 N2294 1.427 . S
C2291 H2281 0.929 . S
C2291 C2289 1.433 . S
C2291 N2294 1.384 . S
C2292 H2283 0.929 . S
C2292 C2284 1.378 . S
C2292 C2287 1.350 . S
C2293 H2280 0.929 . S
C2293 C2285 1.433 . S
C2293 N2295 1.384 . S
N2294 C2290 1.427 . S
N2294 C2291 1.384 . S
N2295 C2287 1.427 . S
N2295 C2293 1.384 . S
H2296 C2302 0.930 . S
H2297 C2306 0.930 . S
H2298 C2311 0.929 . S
H2299 C2309 0.929 . S
H2300 C2304 0.929 . S
H2301 C2310 0.929 . S
C2302 H2296 0.930 . S
C2302 C2303 1.367 . S
C2302 C2310 1.378 . S
C2303 C2302 1.367 . S
C2303 C2311 1.433 . S
C2304 H2300 0.929 . S
C2304 C2306 1.378 . S
C2304 C2308 1.350 . S
C2305 C2308 1.463 . S
C2305 C2310 1.350 . S
C2305 N2313 1.427 . S
C2306 H2297 0.930 . S
C2306 C2304 1.378 . S
C2306 C2307 1.367 . S
C2307 C2306 1.367 . S
C2307 C2309 1.433 . S
C2308 C2304 1.350 . S
C2308 C2305 1.463 . S
C2308 N2312 1.427 . S
C2309 H2299 0.929 . S
C2309 C2307 1.433 . S
C2309 N2312 1.384 . S
C2310 H2301 0.929 . S
C2310 C2302 1.378 . S
C2310 C2305 1.350 . S
C2311 H2298 0.929 . S
C2311 C2303 1.433 . S
C2311 N2313 1.384 . S
N2312 C2308 1.427 . S
N2312 C2309 1.384 . S
N2313 C2305 1.427 . S
N2313 C2311 1.384 . S
H2314 C2320 0.930 . S
H2315 C2324 0.930 . S
H2316 C2329 0.929 . S
H2317 C2327 0.929 . S
H2318 C2322 0.929 . S
H2319 C2328 0.929 . S
C2320 H2314 0.930 . S
C2320 C2321 1.367 . S
C2320 C2328 1.378 . S
C2321 C2320 1.367 . S
C2321 C2329 1.433 . S
C2322 H2318 0.929 . S
C2322 C2324 1.378 . S
C2322 C2326 1.350 . S
C2323 C2326 1.463 . S
C2323 C2328 1.350 . S
C2323 N2331 1.427 . S
C2324 H2315 0.930 . S
C2324 C2322 1.378 . S
C2324 C2325 1.367 . S
C2325 C2324 1.367 . S
C2325 C2327 1.433 . S
C2326 C2322 1.350 . S
C2326 C2323 1.463 . S
C2326 N2330 1.427 . S
C2327 H2317 0.929 . S
C2327 C2325 1.433 . S
C2327 N2330 1.384 . S
C2328 H2319 0.929 . S
C2328 C2320 1.378 . S
C2328 C2323 1.350 . S
C2329 H2316 0.929 . S
C2329 C2321 1.433 . S
C2329 N2331 1.384 . S
N2330 C2326 1.427 . S
N2330 C2327 1.384 . S
N2331 C2323 1.427 . S
N2331 C2329 1.384 . S
H2332 C2338 0.930 . S
H2333 C2342 0.930 . S
H2334 C2347 0.929 . S
H2335 C2345 0.929 . S
H2336 C2340 0.929 . S
H2337 C2346 0.929 . S
C2338 H2332 0.930 . S
C2338 C2339 1.367 . S
C2338 C2346 1.378 . S
C2339 C2338 1.367 . S
C2339 C2347 1.433 . S
C2340 H2336 0.929 . S
C2340 C2342 1.378 . S
C2340 C2344 1.350 . S
C2341 C2344 1.463 . S
C2341 C2346 1.350 . S
C2341 N2349 1.427 . S
C2342 H2333 0.930 . S
C2342 C2340 1.378 . S
C2342 C2343 1.367 . S
C2343 C2342 1.367 . S
C2343 C2345 1.433 . S
C2344 C2340 1.350 . S
C2344 C2341 1.463 . S
C2344 N2348 1.427 . S
C2345 H2335 0.929 . S
C2345 C2343 1.433 . S
C2345 N2348 1.384 . S
C2346 H2337 0.929 . S
C2346 C2338 1.378 . S
C2346 C2341 1.350 . S
C2347 H2334 0.929 . S
C2347 C2339 1.433 . S
C2347 N2349 1.384 . S
N2348 C2344 1.427 . S
N2348 C2345 1.384 . S
N2349 C2341 1.427 . S
N2349 C2347 1.384 . S
H2350 C2356 0.930 . S
H2351 C2360 0.930 . S
H2352 C2365 0.929 . S
H2353 C2363 0.929 . S
H2354 C2358 0.929 . S
H2355 C2364 0.929 . S
C2356 H2350 0.930 . S
C2356 C2357 1.367 . S
C2356 C2364 1.378 . S
C2357 C2356 1.367 . S
C2357 C2365 1.433 . S
C2358 H2354 0.929 . S
C2358 C2360 1.378 . S
C2358 C2362 1.350 . S
C2359 C2362 1.463 . S
C2359 C2364 1.350 . S
C2359 N2367 1.427 . S
C2360 H2351 0.930 . S
C2360 C2358 1.378 . S
C2360 C2361 1.367 . S
C2361 C2360 1.367 . S
C2361 C2363 1.433 . S
C2362 C2358 1.350 . S
C2362 C2359 1.463 . S
C2362 N2366 1.427 . S
C2363 H2353 0.929 . S
C2363 C2361 1.433 . S
C2363 N2366 1.384 . S
C2364 H2355 0.929 . S
C2364 C2356 1.378 . S
C2364 C2359 1.350 . S
C2365 H2352 0.929 . S
C2365 C2357 1.433 . S
C2365 N2367 1.384 . S
N2366 C2362 1.427 . S
N2366 C2363 1.384 . S
N2367 C2359 1.427 . S
N2367 C2365 1.384 . S
H2368 C2374 0.930 . S
H2369 C2378 0.930 . S
H2370 C2383 0.929 . S
H2371 C2381 0.929 . S
H2372 C2376 0.929 . S
H2373 C2382 0.929 . S
C2374 H2368 0.930 . S
C2374 C2375 1.367 . S
C2374 C2382 1.378 . S
C2375 C2374 1.367 . S
C2375 C2383 1.433 . S
C2376 H2372 0.929 . S
C2376 C2378 1.378 . S
C2376 C2380 1.350 . S
C2377 C2380 1.463 . S
C2377 C2382 1.350 . S
C2377 N2385 1.427 . S
C2378 H2369 0.930 . S
C2378 C2376 1.378 . S
C2378 C2379 1.367 . S
C2379 C2378 1.367 . S
C2379 C2381 1.433 . S
C2380 C2376 1.350 . S
C2380 C2377 1.463 . S
C2380 N2384 1.427 . S
C2381 H2371 0.929 . S
C2381 C2379 1.433 . S
C2381 N2384 1.384 . S
C2382 H2373 0.929 . S
C2382 C2374 1.378 . S
C2382 C2377 1.350 . S
C2383 H2370 0.929 . S
C2383 C2375 1.433 . S
C2383 N2385 1.384 . S
N2384 C2380 1.427 . S
N2384 C2381 1.384 . S
N2385 C2377 1.427 . S
N2385 C2383 1.384 . S
H2386 C2392 0.930 . S
H2387 C2396 0.930 . S
H2388 C2401 0.929 . S
H2389 C2399 0.929 . S
H2390 C2394 0.929 . S
H2391 C2400 0.929 . S
C2392 H2386 0.930 . S
C2392 C2393 1.367 . S
C2392 C2400 1.378 . S
C2393 C2392 1.367 . S
C2393 C2401 1.433 . S
C2394 H2390 0.929 . S
C2394 C2396 1.378 . S
C2394 C2398 1.350 . S
C2395 C2398 1.463 . S
C2395 C2400 1.350 . S
C2395 N2403 1.427 . S
C2396 H2387 0.930 . S
C2396 C2394 1.378 . S
C2396 C2397 1.367 . S
C2397 C2396 1.367 . S
C2397 C2399 1.433 . S
C2398 C2394 1.350 . S
C2398 C2395 1.463 . S
C2398 N2402 1.427 . S
C2399 H2389 0.929 . S
C2399 C2397 1.433 . S
C2399 N2402 1.384 . S
C2400 H2391 0.929 . S
C2400 C2392 1.378 . S
C2400 C2395 1.350 . S
C2401 H2388 0.929 . S
C2401 C2393 1.433 . S
C2401 N2403 1.384 . S
N2402 C2398 1.427 . S
N2402 C2399 1.384 . S
N2403 C2395 1.427 . S
N2403 C2401 1.384 . S
H2404 C2410 0.930 . S
H2405 C2414 0.930 . S
H2406 C2419 0.929 . S
H2407 C2417 0.929 . S
H2408 C2412 0.929 . S
H2409 C2418 0.929 . S
C2410 H2404 0.930 . S
C2410 C2411 1.367 . S
C2410 C2418 1.378 . S
C2411 C2410 1.367 . S
C2411 C2419 1.433 . S
C2412 H2408 0.929 . S
C2412 C2414 1.378 . S
C2412 C2416 1.350 . S
C2413 C2416 1.463 . S
C2413 C2418 1.350 . S
C2413 N2421 1.427 . S
C2414 H2405 0.930 . S
C2414 C2412 1.378 . S
C2414 C2415 1.367 . S
C2415 C2414 1.367 . S
C2415 C2417 1.433 . S
C2416 C2412 1.350 . S
C2416 C2413 1.463 . S
C2416 N2420 1.427 . S
C2417 H2407 0.929 . S
C2417 C2415 1.433 . S
C2417 N2420 1.384 . S
C2418 H2409 0.929 . S
C2418 C2410 1.378 . S
C2418 C2413 1.350 . S
C2419 H2406 0.929 . S
C2419 C2411 1.433 . S
C2419 N2421 1.384 . S
N2420 C2416 1.427 . S
N2420 C2417 1.384 . S
N2421 C2413 1.427 . S
N2421 C2419 1.384 . S
H2422 C2428 0.930 . S
H2423 C2432 0.930 . S
H2424 C2437 0.929 . S
H2425 C2435 0.929 . S
H2426 C2430 0.929 . S
H2427 C2436 0.929 . S
C2428 H2422 0.930 . S
C2428 C2429 1.367 . S
C2428 C2436 1.378 . S
C2429 C2428 1.367 . S
C2429 C2437 1.433 . S
C2430 H2426 0.929 . S
C2430 C2432 1.378 . S
C2430 C2434 1.350 . S
C2431 C2434 1.463 . S
C2431 C2436 1.350 . S
C2431 N2439 1.427 . S
C2432 H2423 0.930 . S
C2432 C2430 1.378 . S
C2432 C2433 1.367 . S
C2433 C2432 1.367 . S
C2433 C2435 1.433 . S
C2434 C2430 1.350 . S
C2434 C2431 1.463 . S
C2434 N2438 1.427 . S
C2435 H2425 0.929 . S
C2435 C2433 1.433 . S
C2435 N2438 1.384 . S
C2436 H2427 0.929 . S
C2436 C2428 1.378 . S
C2436 C2431 1.350 . S
C2437 H2424 0.929 . S
C2437 C2429 1.433 . S
C2437 N2439 1.384 . S
N2438 C2434 1.427 . S
N2438 C2435 1.384 . S
N2439 C2431 1.427 . S
N2439 C2437 1.384 . S
H2440 C2446 0.930 . S
H2441 C2450 0.930 . S
H2442 C2455 0.929 . S
H2443 C2453 0.929 . S
H2444 C2448 0.929 . S
H2445 C2454 0.929 . S
C2446 H2440 0.930 . S
C2446 C2447 1.367 . S
C2446 C2454 1.378 . S
C2447 C2446 1.367 . S
C2447 C2455 1.433 . S
C2448 H2444 0.929 . S
C2448 C2450 1.378 . S
C2448 C2452 1.350 . S
C2449 C2452 1.463 . S
C2449 C2454 1.350 . S
C2449 N2457 1.427 . S
C2450 H2441 0.930 . S
C2450 C2448 1.378 . S
C2450 C2451 1.367 . S
C2451 C2450 1.367 . S
C2451 C2453 1.433 . S
C2452 C2448 1.350 . S
C2452 C2449 1.463 . S
C2452 N2456 1.427 . S
C2453 H2443 0.929 . S
C2453 C2451 1.433 . S
C2453 N2456 1.384 . S
C2454 H2445 0.929 . S
C2454 C2446 1.378 . S
C2454 C2449 1.350 . S
C2455 H2442 0.929 . S
C2455 C2447 1.433 . S
C2455 N2457 1.384 . S
N2456 C2452 1.427 . S
N2456 C2453 1.384 . S
N2457 C2449 1.427 . S
N2457 C2455 1.384 . S
H2458 C2464 0.930 . S
H2459 C2468 0.930 . S
H2460 C2473 0.929 . S
H2461 C2471 0.929 . S
H2462 C2466 0.929 . S
H2463 C2472 0.929 . S
C2464 H2458 0.930 . S
C2464 C2465 1.367 . S
C2464 C2472 1.378 . S
C2465 C2464 1.367 . S
C2465 C2473 1.433 . S
C2466 H2462 0.929 . S
C2466 C2468 1.378 . S
C2466 C2470 1.350 . S
C2467 C2470 1.463 . S
C2467 C2472 1.350 . S
C2467 N2475 1.427 . S
C2468 H2459 0.930 . S
C2468 C2466 1.378 . S
C2468 C2469 1.367 . S
C2469 C2468 1.367 . S
C2469 C2471 1.433 . S
C2470 C2466 1.350 . S
C2470 C2467 1.463 . S
C2470 N2474 1.427 . S
C2471 H2461 0.929 . S
C2471 C2469 1.433 . S
C2471 N2474 1.384 . S
C2472 H2463 0.929 . S
C2472 C2464 1.378 . S
C2472 C2467 1.350 . S
C2473 H2460 0.929 . S
C2473 C2465 1.433 . S
C2473 N2475 1.384 . S
N2474 C2470 1.427 . S
N2474 C2471 1.384 . S
N2475 C2467 1.427 . S
N2475 C2473 1.384 . S
H2476 C2482 0.930 . S
H2477 C2486 0.930 . S
H2478 C2491 0.929 . S
H2479 C2489 0.929 . S
H2480 C2484 0.929 . S
H2481 C2490 0.929 . S
C2482 H2476 0.930 . S
C2482 C2483 1.367 . S
C2482 C2490 1.378 . S
C2483 C2482 1.367 . S
C2483 C2491 1.433 . S
C2484 H2480 0.929 . S
C2484 C2486 1.378 . S
C2484 C2488 1.350 . S
C2485 C2488 1.463 . S
C2485 C2490 1.350 . S
C2485 N2493 1.427 . S
C2486 H2477 0.930 . S
C2486 C2484 1.378 . S
C2486 C2487 1.367 . S
C2487 C2486 1.367 . S
C2487 C2489 1.433 . S
C2488 C2484 1.350 . S
C2488 C2485 1.463 . S
C2488 N2492 1.427 . S
C2489 H2479 0.929 . S
C2489 C2487 1.433 . S
C2489 N2492 1.384 . S
C2490 H2481 0.929 . S
C2490 C2482 1.378 . S
C2490 C2485 1.350 . S
C2491 H2478 0.929 . S
C2491 C2483 1.433 . S
C2491 N2493 1.384 . S
N2492 C2488 1.427 . S
N2492 C2489 1.384 . S
N2493 C2485 1.427 . S
N2493 C2491 1.384 . S
H2494 C2500 0.930 . S
H2495 C2504 0.930 . S
H2496 C2509 0.929 . S
H2497 C2507 0.929 . S
H2498 C2502 0.929 . S
H2499 C2508 0.929 . S
C2500 H2494 0.930 . S
C2500 C2501 1.367 . S
C2500 C2508 1.378 . S
C2501 C2500 1.367 . S
C2501 C2509 1.433 . S
C2502 H2498 0.929 . S
C2502 C2504 1.378 . S
C2502 C2506 1.350 . S
C2503 C2506 1.463 . S
C2503 C2508 1.350 . S
C2503 N2511 1.427 . S
C2504 H2495 0.930 . S
C2504 C2502 1.378 . S
C2504 C2505 1.367 . S
C2505 C2504 1.367 . S
C2505 C2507 1.433 . S
C2506 C2502 1.350 . S
C2506 C2503 1.463 . S
C2506 N2510 1.427 . S
C2507 H2497 0.929 . S
C2507 C2505 1.433 . S
C2507 N2510 1.384 . S
C2508 H2499 0.929 . S
C2508 C2500 1.378 . S
C2508 C2503 1.350 . S
C2509 H2496 0.929 . S
C2509 C2501 1.433 . S
C2509 N2511 1.384 . S
N2510 C2506 1.427 . S
N2510 C2507 1.384 . S
N2511 C2503 1.427 . S
N2511 C2509 1.384 . S
C795 C366 1.897 . S
C791 C7 1.850 . S
C813 C378 1.269 . S
C809 C19 1.327 . S
C827 C29 1.748 . S
C831 C402 1.751 . S
C849 C413 1.282 . S
C845 C41 1.368 . S
C863 C52 1.420 . S
C867 C420 1.388 . S
C881 C62 1.557 . S
C885 C359 1.565 1_556 S
C899 C73 1.223 . S
C903 C386 1.267 . S
C921 C395 1.679 1_556 S
C917 C82 1.559 . S
C939 C432 1.718 . S
C935 C5 1.588 . S
C953 C16 1.331 . S
C957 C458 1.518 . S
C971 C30 1.724 . S
C975 C474 1.629 . S
C993 C494 1.278 . S
C989 C40 1.389 . S
C1007 C49 1.209 . S
C1011 C503 1.353 . S
C1029 C528 1.450 . S
C1025 C63 1.509 . S
C1043 C74 1.249 . S
C1047 C548 1.222 . S
C1065 C564 1.525 . S
C1061 C85 1.577 . S
C1079 C8 1.609 . S
C1083 C486 1.546 . S
C1097 C51 1.541 . S
C1101 C521 1.547 . S
C1119 C540 1.744 . S
C1115 C60 1.546 . S
C1133 C71 1.160 . S
C1137 C557 1.413 . S
C1155 C510 1.947 . S
C1151 C84 1.916 . S
C1173 C450 1.473 . S
C1169 C27 1.305 . S
C1187 C38 1.305 . S
C1191 C467 1.339 . S
C1209 C440 1.611 . S
C1205 C18 1.575 . S
C1227 C584 1.893 . S
C1223 C95 1.860 . S
C1241 C107 1.327 . S
C1245 C594 1.275 . S
C1259 C117 1.752 . S
C1263 C618 1.754 . S
C1281 C630 1.292 . S
C1277 C129 1.368 . S
C1295 C140 1.427 . S
C1299 C638 1.400 . S
C1313 C150 1.544 . S
C1317 C576 1.558 . S
C1331 C161 1.213 . S
C1335 C602 1.254 . S
C1349 C170 1.550 . S
C1353 C611 1.685 . S
C1371 C504 1.714 . S
C1367 C93 1.599 . S
C1385 C104 1.336 . S
C1389 C654 1.526 . S
C1407 C546 1.643 . S
C1403 C118 1.733 . S
C1421 C128 1.388 . S
C1425 C674 1.276 . S
C1439 C137 1.184 . S
C1443 C431 1.337 . S
C1461 C692 1.429 . S
C1457 C151 1.507 . S
C1475 C162 1.248 . S
C1479 C476 1.220 . S
C1497 C708 1.511 . S
C1493 C173 1.582 . S
C1511 C96 1.604 . S
C1515 C666 1.553 . S
C1533 C684 1.547 . S
C1529 C139 1.542 . S
C1547 C148 1.548 . S
C1551 C468 1.742 . S
C1569 C701 1.408 . S
C1565 C159 1.151 . S
C1583 C172 1.907 . S
C1587 C438 1.944 . S
C1601 C115 1.307 . S
C1605 C647 1.465 . S
C1619 C126 1.302 . S
C1623 C539 1.346 . S
C1637 C106 1.567 . S
C1641 C512 1.605 . S
C1655 C183 1.853 . S
C1659 C620 1.902 . S
C1677 C629 1.266 . S
C1673 C195 1.325 . S
C1691 C205 1.749 . S
C1695 C582 1.744 . S
C1709 C217 1.366 . S
C1713 C593 1.285 . S
C1727 C228 1.426 . S
C1731 C600 1.398 . S
C1745 C238 1.548 . S
C1749 C612 1.562 . S
C1767 C636 1.250 . S
C1763 C249 1.203 . S
C1781 C258 1.550 . S
C1785 C575 1.680 . S
C1803 C726 1.712 . S
C1799 C181 1.600 . S
C1817 C192 1.349 . S
C1821 C530 1.529 . S
C1839 C744 1.637 . S
C1835 C206 1.729 . S
C1853 C216 1.388 . S
C1857 C566 1.279 . S
C1871 C225 1.194 . S
C1875 C764 1.343 . S
C1889 C239 1.508 . S
C1893 C456 1.448 . S
C1911 C780 1.181 . S
C1907 C250 1.228 . S
C1925 C261 1.576 . S
C1929 C492 1.516 . S
C1947 C558 1.549 . S
C1943 C184 1.611 . S
C1965 C449 1.538 . S
C1961 C227 1.537 . S
C1979 C236 1.553 . S
C1983 C773 1.737 . S
C1997 C247 1.147 . S
C2001 C485 1.405 . S
C2019 C756 1.948 . S
C2015 C260 1.911 . S
C2037 C522 1.472 . S
C2033 C203 1.307 . S
C2055 C737 1.335 . S
C2051 C214 1.317 . S
C2073 C719 1.618 . S
C2069 C194 1.575 . S
C2087 C271 1.863 . S
C2091 C404 1.895 . S
C2105 C283 1.330 . S
C2109 C414 1.279 . S
C2127 C368 1.743 . S
C2123 C293 1.744 . S
C2145 C377 1.291 . S
C2141 C305 1.368 . S
C2163 C384 1.387 . S
C2159 C316 1.419 . S
C2181 C396 1.567 1_556 S
C2177 C326 1.559 . S
C2199 C422 1.257 . S
C2195 C337 1.205 . S
C2213 C346 1.559 . S
C2217 C360 1.679 1_556 S
C2231 C269 1.593 . S
C2235 C762 1.722 . S
C2253 C690 1.532 . S
C2249 C280 1.343 . S
C2271 C782 1.616 . S
C2267 C294 1.732 . S
C2289 C710 1.272 . S
C2285 C304 1.385 . S
C2303 C313 1.215 . S
C2307 C728 1.356 . S
C2325 C656 1.427 . S
C2321 C327 1.505 . S
C2343 C746 1.197 . S
C2339 C338 1.229 . S
C2357 C349 1.576 . S
C2361 C672 1.506 . S
C2379 C702 1.544 . S
C2375 C272 1.611 . S
C2397 C648 1.546 . S
C2393 C315 1.540 . S
C2415 C738 1.740 . S
C2411 C324 1.541 . S
C2429 C335 1.151 . S
C2433 C665 1.408 . S
C2447 C348 1.911 . S
C2451 C720 1.945 . S
C2465 C291 1.292 . S
C2469 C683 1.452 . S
C2483 C302 1.302 . S
C2487 C774 1.342 . S
C2505 C755 1.617 . S
C2501 C282 1.576 . S
