# Generated by pormake.
# Topology ptr, (4,4)-cn, num edge types: 1
# Building blocks:
#     Node 0, Type 0, BuildingBlock: QUQFOY_clean_sbu_1, # of connection points: 4
#     Node 1, Type 0, BuildingBlock: QUQFOY_clean_sbu_1, # of connection points: 4
#     Node 2, Type 0, BuildingBlock: QUQFOY_clean_sbu_1, # of connection points: 4
#     Node 3, Type 0, BuildingBlock: QUQFOY_clean_sbu_1, # of connection points: 4
#     Node 4, Type 0, BuildingBlock: QUQFOY_clean_sbu_1, # of connection points: 4
#     Node 5, Type 0, BuildingBlock: QUQFOY_clean_sbu_1, # of connection points: 4
#     Node 6, Type 0, BuildingBlock: QUQFOY_clean_sbu_1, # of connection points: 4
#     Node 7, Type 0, BuildingBlock: QUQFOY_clean_sbu_1, # of connection points: 4
#     Node 8, Type 0, BuildingBlock: QUQFOY_clean_sbu_1, # of connection points: 4
#     Node 9, Type 0, BuildingBlock: QUQFOY_clean_sbu_1, # of connection points: 4
#     Node 10, Type 0, BuildingBlock: QUQFOY_clean_sbu_1, # of connection points: 4
#     Node 11, Type 0, BuildingBlock: QUQFOY_clean_sbu_1, # of connection points: 4
#     Node 12, Type 0, BuildingBlock: QUQFOY_clean_sbu_1, # of connection points: 4
#     Node 13, Type 0, BuildingBlock: QUQFOY_clean_sbu_1, # of connection points: 4
#     Node 14, Type 0, BuildingBlock: QUQFOY_clean_sbu_1, # of connection points: 4
#     Node 15, Type 0, BuildingBlock: QUQFOY_clean_sbu_1, # of connection points: 4
#     Node 16, Type 0, BuildingBlock: QUQFOY_clean_sbu_1, # of connection points: 4
#     Node 17, Type 0, BuildingBlock: QUQFOY_clean_sbu_1, # of connection points: 4
#     Node 18, Type 1, BuildingBlock: GIZVER_clean_linker_0, # of connection points: 4
#     Node 19, Type 1, BuildingBlock: GIZVER_clean_linker_0, # of connection points: 4
#     Node 20, Type 1, BuildingBlock: GIZVER_clean_linker_0, # of connection points: 4
#     Node 21, Type 1, BuildingBlock: GIZVER_clean_linker_0, # of connection points: 4
#     Node 22, Type 1, BuildingBlock: GIZVER_clean_linker_0, # of connection points: 4
#     Node 23, Type 1, BuildingBlock: GIZVER_clean_linker_0, # of connection points: 4
#     Node 24, Type 1, BuildingBlock: GIZVER_clean_linker_0, # of connection points: 4
#     Node 25, Type 1, BuildingBlock: GIZVER_clean_linker_0, # of connection points: 4
#     Node 26, Type 1, BuildingBlock: GIZVER_clean_linker_0, # of connection points: 4
#     Node 27, Type 1, BuildingBlock: GIZVER_clean_linker_0, # of connection points: 4
#     Node 28, Type 1, BuildingBlock: GIZVER_clean_linker_0, # of connection points: 4
#     Node 29, Type 1, BuildingBlock: GIZVER_clean_linker_0, # of connection points: 4
#     Node 30, Type 1, BuildingBlock: GIZVER_clean_linker_0, # of connection points: 4
#     Node 31, Type 1, BuildingBlock: GIZVER_clean_linker_0, # of connection points: 4
#     Node 32, Type 1, BuildingBlock: GIZVER_clean_linker_0, # of connection points: 4
#     Node 33, Type 1, BuildingBlock: GIZVER_clean_linker_0, # of connection points: 4
#     Node 34, Type 1, BuildingBlock: GIZVER_clean_linker_0, # of connection points: 4
#     Node 35, Type 1, BuildingBlock: GIZVER_clean_linker_0, # of connection points: 4
#     Edge 36, Type (0, 1), BuildingBlock: OJICUG_clean_linker_0, # of connection points: 2
#     Edge 37, Type (0, 1), BuildingBlock: OJICUG_clean_linker_0, # of connection points: 2
#     Edge 38, Type (0, 1), BuildingBlock: OJICUG_clean_linker_0, # of connection points: 2
#     Edge 39, Type (0, 1), BuildingBlock: OJICUG_clean_linker_0, # of connection points: 2
#     Edge 40, Type (0, 1), BuildingBlock: OJICUG_clean_linker_0, # of connection points: 2
#     Edge 41, Type (0, 1), BuildingBlock: OJICUG_clean_linker_0, # of connection points: 2
#     Edge 42, Type (0, 1), BuildingBlock: OJICUG_clean_linker_0, # of connection points: 2
#     Edge 43, Type (0, 1), BuildingBlock: OJICUG_clean_linker_0, # of connection points: 2
#     Edge 44, Type (0, 1), BuildingBlock: OJICUG_clean_linker_0, # of connection points: 2
#     Edge 45, Type (0, 1), BuildingBlock: OJICUG_clean_linker_0, # of connection points: 2
#     Edge 46, Type (0, 1), BuildingBlock: OJICUG_clean_linker_0, # of connection points: 2
#     Edge 47, Type (0, 1), BuildingBlock: OJICUG_clean_linker_0, # of connection points: 2
#     Edge 48, Type (0, 1), BuildingBlock: OJICUG_clean_linker_0, # of connection points: 2
#     Edge 49, Type (0, 1), BuildingBlock: OJICUG_clean_linker_0, # of connection points: 2
#     Edge 50, Type (0, 1), BuildingBlock: OJICUG_clean_linker_0, # of connection points: 2
#     Edge 51, Type (0, 1), BuildingBlock: OJICUG_clean_linker_0, # of connection points: 2
#     Edge 52, Type (0, 1), BuildingBlock: OJICUG_clean_linker_0, # of connection points: 2
#     Edge 53, Type (0, 1), BuildingBlock: OJICUG_clean_linker_0, # of connection points: 2
#     Edge 54, Type (0, 1), BuildingBlock: OJICUG_clean_linker_0, # of connection points: 2
#     Edge 55, Type (0, 1), BuildingBlock: OJICUG_clean_linker_0, # of connection points: 2
#     Edge 56, Type (0, 1), BuildingBlock: OJICUG_clean_linker_0, # of connection points: 2
#     Edge 57, Type (0, 1), BuildingBlock: OJICUG_clean_linker_0, # of connection points: 2
#     Edge 58, Type (0, 1), BuildingBlock: OJICUG_clean_linker_0, # of connection points: 2
#     Edge 59, Type (0, 1), BuildingBlock: OJICUG_clean_linker_0, # of connection points: 2
#     Edge 60, Type (0, 1), BuildingBlock: OJICUG_clean_linker_0, # of connection points: 2
#     Edge 61, Type (0, 1), BuildingBlock: OJICUG_clean_linker_0, # of connection points: 2
#     Edge 62, Type (0, 1), BuildingBlock: OJICUG_clean_linker_0, # of connection points: 2
#     Edge 63, Type (0, 1), BuildingBlock: OJICUG_clean_linker_0, # of connection points: 2
#     Edge 64, Type (0, 1), BuildingBlock: OJICUG_clean_linker_0, # of connection points: 2
#     Edge 65, Type (0, 1), BuildingBlock: OJICUG_clean_linker_0, # of connection points: 2
#     Edge 66, Type (0, 1), BuildingBlock: OJICUG_clean_linker_0, # of connection points: 2
#     Edge 67, Type (0, 1), BuildingBlock: OJICUG_clean_linker_0, # of connection points: 2
#     Edge 68, Type (0, 1), BuildingBlock: OJICUG_clean_linker_0, # of connection points: 2
#     Edge 69, Type (0, 1), BuildingBlock: OJICUG_clean_linker_0, # of connection points: 2
#     Edge 70, Type (0, 1), BuildingBlock: OJICUG_clean_linker_0, # of connection points: 2
#     Edge 71, Type (0, 1), BuildingBlock: OJICUG_clean_linker_0, # of connection points: 2
#     Edge 72, Type (0, 1), BuildingBlock: OJICUG_clean_linker_0, # of connection points: 2
#     Edge 73, Type (0, 1), BuildingBlock: OJICUG_clean_linker_0, # of connection points: 2
#     Edge 74, Type (0, 1), BuildingBlock: OJICUG_clean_linker_0, # of connection points: 2
#     Edge 75, Type (0, 1), BuildingBlock: OJICUG_clean_linker_0, # of connection points: 2
#     Edge 76, Type (0, 1), BuildingBlock: OJICUG_clean_linker_0, # of connection points: 2
#     Edge 77, Type (0, 1), BuildingBlock: OJICUG_clean_linker_0, # of connection points: 2
#     Edge 78, Type (0, 1), BuildingBlock: OJICUG_clean_linker_0, # of connection points: 2
#     Edge 79, Type (0, 1), BuildingBlock: OJICUG_clean_linker_0, # of connection points: 2
#     Edge 80, Type (0, 1), BuildingBlock: OJICUG_clean_linker_0, # of connection points: 2
#     Edge 81, Type (0, 1), BuildingBlock: OJICUG_clean_linker_0, # of connection points: 2
#     Edge 82, Type (0, 1), BuildingBlock: OJICUG_clean_linker_0, # of connection points: 2
#     Edge 83, Type (0, 1), BuildingBlock: OJICUG_clean_linker_0, # of connection points: 2
#     Edge 84, Type (0, 1), BuildingBlock: OJICUG_clean_linker_0, # of connection points: 2
#     Edge 85, Type (0, 1), BuildingBlock: OJICUG_clean_linker_0, # of connection points: 2
#     Edge 86, Type (0, 1), BuildingBlock: OJICUG_clean_linker_0, # of connection points: 2
#     Edge 87, Type (0, 1), BuildingBlock: OJICUG_clean_linker_0, # of connection points: 2
#     Edge 88, Type (0, 1), BuildingBlock: OJICUG_clean_linker_0, # of connection points: 2
#     Edge 89, Type (0, 1), BuildingBlock: OJICUG_clean_linker_0, # of connection points: 2
#     Edge 90, Type (0, 1), BuildingBlock: OJICUG_clean_linker_0, # of connection points: 2
#     Edge 91, Type (0, 1), BuildingBlock: OJICUG_clean_linker_0, # of connection points: 2
#     Edge 92, Type (0, 1), BuildingBlock: OJICUG_clean_linker_0, # of connection points: 2
#     Edge 93, Type (0, 1), BuildingBlock: OJICUG_clean_linker_0, # of connection points: 2
#     Edge 94, Type (0, 1), BuildingBlock: OJICUG_clean_linker_0, # of connection points: 2
#     Edge 95, Type (0, 1), BuildingBlock: OJICUG_clean_linker_0, # of connection points: 2
#     Edge 96, Type (0, 1), BuildingBlock: OJICUG_clean_linker_0, # of connection points: 2
#     Edge 97, Type (0, 1), BuildingBlock: OJICUG_clean_linker_0, # of connection points: 2
#     Edge 98, Type (0, 1), BuildingBlock: OJICUG_clean_linker_0, # of connection points: 2
#     Edge 99, Type (0, 1), BuildingBlock: OJICUG_clean_linker_0, # of connection points: 2
#     Edge 100, Type (0, 1), BuildingBlock: OJICUG_clean_linker_0, # of connection points: 2
#     Edge 101, Type (0, 1), BuildingBlock: OJICUG_clean_linker_0, # of connection points: 2
#     Edge 102, Type (0, 1), BuildingBlock: OJICUG_clean_linker_0, # of connection points: 2
#     Edge 103, Type (0, 1), BuildingBlock: OJICUG_clean_linker_0, # of connection points: 2
#     Edge 104, Type (0, 1), BuildingBlock: OJICUG_clean_linker_0, # of connection points: 2
#     Edge 105, Type (0, 1), BuildingBlock: OJICUG_clean_linker_0, # of connection points: 2
#     Edge 106, Type (0, 1), BuildingBlock: OJICUG_clean_linker_0, # of connection points: 2
#     Edge 107, Type (0, 1), BuildingBlock: OJICUG_clean_linker_0, # of connection points: 2
# Relax obj value: 0.019
# Max RMSD: 0.067
# Mean RMSD: 0.054
data_MOF--net-ptr--node1-QUQFOY_clean_sbu_1--node2-GIZVER_clean_linker_0--edge1-OJICUG_clean_linker_0
_symmetry_space_group_name_H-M    P1
_symmetry_Int_Tables_number       1
_symmetry_cell_setting            triclinic
loop_
_symmetry_equiv_pos_as_xyz
'x, y, z'
_cell_length_a     59.540101
_cell_length_b     59.586023
_cell_length_c     37.623578
_cell_angle_alpha  90.357329
_cell_angle_beta   90.126282
_cell_angle_gamma 120.00176
loop_
_atom_site_label
_atom_site_type_symbol
_atom_site_fract_x
_atom_site_fract_y
_atom_site_fract_z
_atom_type_partial_charge
O0 O 0.05401 0.43699 0.0464 0.0
Cd1 Cd 0.05926 0.42061 0.00112 0.0
Cd2 Cd 1.00537 0.39332 0.00362 0.0
O3 O 1.0117 0.41182 0.05247 0.0
O4 O 0.09598 0.42835 0.00386 0.0
O5 O 0.06226 0.38859 0.00564 0.0
C6 C 0.08711 0.40381 0.00727 0.0
C7 C 0.97552 0.34889 -0.00178 0.0
C8 C 0.03334 0.43009 0.06386 0.0
C9 C 0.03197 0.42917 0.94096 0.0
O10 O 1.01113 0.4146 0.95768 0.0
O11 O 0.05372 0.43337 0.95298 0.0
O12 O 0.96799 0.36567 0.00149 0.0
O13 O 1.00018 0.3573 -0.00069 0.0
O14 O 0.60861 0.62364 0.0496 0.0
Cd15 Cd 0.62499 0.6448 0.0039 0.0
Cd16 Cd 0.65245 0.61941 0.00804 0.0
O17 O 0.63417 0.607 0.05617 0.0
O18 O 0.61802 0.67428 0.00529 0.0
O19 O 0.65742 0.67934 0.0089 0.0
C20 C 0.64267 0.68953 0.00926 0.0
C21 C 0.69702 0.63569 0.00206 0.0
C22 C 0.61574 0.61011 0.06723 0.0
C23 C 0.61745 0.60848 0.94434 0.0
O24 O 0.63113 0.60196 0.96281 0.0
O25 O 0.61359 0.62658 0.95488 0.0
O26 O 0.68119 0.61138 0.00716 0.0
O27 O 0.68764 0.65112 0.00211 0.0
O28 O 0.44483 0.03873 0.95858 0.0
Cd29 Cd 0.42721 0.0424 0.00401 0.0
Cd30 Cd 0.40163 0.99045 -0.00101 0.0
O31 O 0.42002 0.99651 0.95095 0.0
O32 O 0.43456 0.07887 0.00446 0.0
O33 O 0.3951 0.04511 -0.00219 0.0
C34 C 0.41013 0.06996 -0.00088 0.0
C35 C 0.35698 0.96343 0.00474 0.0
C36 C 0.43827 0.01824 0.94047 0.0
C37 C 0.43563 1.01431 0.06307 0.0
O38 O 0.42283 0.99407 0.04407 0.0
O39 O 0.43846 0.03589 0.05304 0.0
O40 O 0.37217 0.95415 -0.00077 0.0
O41 O 0.36711 0.98833 0.00519 0.0
O42 O 1.00497 0.59749 0.95928 0.0
Cd43 Cd 1.00118 0.61504 0.00486 0.0
Cd44 Cd 0.0531 0.64113 0.00112 0.0
O45 O 0.04722 0.62256 0.95301 0.0
O46 O 0.96492 0.60832 0.00434 0.0
O47 O 0.9992 0.64746 -0.00123 0.0
C48 C 0.97428 0.63279 -0.0007 0.0
C49 C 0.08001 0.68582 0.0067 0.0
C50 C 1.0256 0.60427 0.94174 0.0
C51 C 0.02942 0.60739 0.06472 0.0
O52 O 0.0497 0.62043 0.04631 0.0
O53 O 1.00768 0.60401 0.05401 0.0
O54 O 0.08936 0.67065 0.00177 0.0
O55 O 0.05508 0.67563 0.00687 0.0
O56 O 0.44293 0.41623 0.96218 0.0
Cd57 Cd 0.42574 0.39539 0.00734 0.0
Cd58 Cd 0.4007 0.4232 0.00312 0.0
O59 O 0.4186 0.43411 0.95413 0.0
O60 O 0.43399 0.36681 0.00685 0.0
O61 O 0.39408 0.36003 0.00154 0.0
C62 C 0.40963 0.35079 0.00184 0.0
C63 C 0.35595 0.40509 0.00883 0.0
C64 C 0.43651 0.42994 0.94371 0.0
C65 C 0.43572 0.43273 0.06663 0.0
O66 O 0.42223 0.43995 0.04895 0.0
O67 O 0.43855 0.41412 0.0555 0.0
O68 O 0.3709 0.42971 0.00466 0.0
O69 O 0.36641 0.3906 0.00826 0.0
O70 O 0.61147 0.99382 0.04579 0.0
Cd71 Cd 0.62796 0.98862 0.0007 0.0
Cd72 Cd 0.65499 0.04252 0.00449 0.0
O73 O 0.63663 0.03607 0.05323 0.0
O74 O 0.61977 0.95179 0.00275 0.0
O75 O 0.65974 0.98513 0.00561 0.0
C76 C 0.64427 0.96034 0.00664 0.0
C77 C 0.69938 0.07247 -0.00084 0.0
C78 C 0.6183 1.01437 0.06383 0.0
C79 C 0.61896 1.01589 0.94116 0.0
O80 O 0.63335 0.03668 0.9585 0.0
O81 O 0.61511 0.99421 0.95253 0.0
O82 O 0.68256 0.07991 0.00288 0.0
O83 O 0.69108 0.04786 -7e-05 0.0
O84 O 0.72114 0.77064 0.37924 0.0
Cd85 Cd 0.72634 0.75419 0.33398 0.0
Cd86 Cd 0.67245 0.72693 0.33654 0.0
O87 O 0.67883 0.74547 0.38536 0.0
O88 O 0.76301 0.7618 0.33673 0.0
O89 O 0.7292 0.72211 0.33858 0.0
C90 C 0.75406 0.73725 0.3402 0.0
C91 C 0.6425 0.68252 0.33121 0.0
C92 C 0.70049 0.76375 0.39673 0.0
C93 C 0.69905 0.76274 0.27382 0.0
O94 O 0.67823 0.74819 0.29056 0.0
O95 O 0.7208 0.76694 0.28582 0.0
O96 O 0.63505 0.69936 0.33445 0.0
O97 O 0.66714 0.69085 0.33227 0.0
O98 O 0.27542 0.95663 0.38336 0.0
Cd99 Cd 0.29176 0.9778 0.33765 0.0
Cd100 Cd 0.31925 0.95241 0.34174 0.0
O101 O 0.301 0.94 0.3899 0.0
O102 O 0.28461 1.00715 0.33907 0.0
O103 O 0.32409 1.01244 0.34263 0.0
C104 C 0.30924 0.0225 0.34301 0.0
C105 C 0.36382 0.96876 0.33568 0.0
C106 C 0.28257 0.94309 0.40097 0.0
C107 C 0.28423 0.94149 0.27807 0.0
O108 O 0.29791 0.93496 0.29653 0.0
O109 O 0.28037 0.95959 0.28863 0.0
O110 O 0.34802 0.94445 0.3408 0.0
O111 O 0.3544 0.98416 0.33577 0.0
O112 O 0.11163 0.37219 0.29195 0.0
Cd113 Cd 0.094 0.37585 0.33739 0.0
Cd114 Cd 0.06841 0.32391 0.33234 0.0
O115 O 0.08682 0.32998 0.28432 0.0
O116 O 0.10129 0.41229 0.33784 0.0
O117 O 0.06186 0.37849 0.33118 0.0
C118 C 0.07685 0.40335 0.3325 0.0
C119 C 1.02375 0.29693 0.33803 0.0
C120 C 0.10507 0.3517 0.27384 0.0
C121 C 0.1024 0.34773 0.39643 0.0
O122 O 0.08958 0.3275 0.37743 0.0
O123 O 0.10525 0.36933 0.3864 0.0
O124 O 0.03891 0.28763 0.33255 0.0
O125 O 0.0339 0.32184 0.3385 0.0
O126 O 0.672 0.93103 0.29215 0.0
Cd127 Cd 0.66821 0.94857 0.33775 0.0
Cd128 Cd 0.72013 0.97467 0.33397 0.0
O129 O 0.71425 0.95611 0.28585 0.0
O130 O 0.63193 0.9418 0.33729 0.0
O131 O 0.66618 0.98096 0.3317 0.0
C132 C 0.64126 0.96627 0.33226 0.0
C133 C 0.74693 0.01938 0.33959 0.0
C134 C 0.69263 0.93782 0.2746 0.0
C135 C 0.6965 0.94093 0.39757 0.0
O136 O 0.71677 0.95397 0.37914 0.0
O137 O 0.67475 0.93755 0.38688 0.0
O138 O 0.75635 1.00426 0.33463 0.0
O139 O 0.722 1.00911 0.33976 0.0
O140 O 0.10966 0.74949 0.2958 0.0
Cd141 Cd 0.09246 0.72865 0.34094 0.0
Cd142 Cd 0.06747 0.7565 0.33677 0.0
O143 O 0.08538 0.76743 0.28778 0.0
O144 O 0.10065 0.70003 0.34041 0.0
O145 O 0.06076 0.69331 0.33512 0.0
C146 C 0.07628 0.68404 0.33541 0.0
C147 C 1.02273 0.73845 0.34244 0.0
C148 C 0.10326 0.76323 0.27735 0.0
C149 C 0.10248 0.76596 0.40027 0.0
O150 O 0.089 0.77321 0.38261 0.0
O151 O 0.10528 0.74734 0.38912 0.0
O152 O 0.0377 0.76306 0.33832 0.0
O153 O 0.03316 0.72393 0.34186 0.0
O154 O 0.27823 0.32716 0.37919 0.0
Cd155 Cd 0.29472 0.32195 0.33412 0.0
Cd156 Cd 0.32176 0.37587 0.33791 0.0
O157 O 0.3034 0.3694 0.38665 0.0
O158 O 0.28649 0.2851 0.33617 0.0
O159 O 0.32648 0.3184 0.33906 0.0
C160 C 0.31098 0.29362 0.34009 0.0
C161 C 0.36614 0.40586 0.33258 0.0
C162 C 0.28506 0.3477 0.39724 0.0
C163 C 0.28574 0.34922 0.27457 0.0
O164 O 0.30012 0.37002 0.29192 0.0
O165 O 0.28189 0.32754 0.28594 0.0
O166 O 0.3493 0.41327 0.3363 0.0
O167 O 0.35787 0.38125 0.33335 0.0
O168 O 0.38734 0.10373 0.71298 0.0
Cd169 Cd 0.39255 0.0873 0.66771 0.0
Cd170 Cd 0.33868 0.06002 0.67029 0.0
O171 O 0.34504 0.07856 0.71911 0.0
O172 O 0.42925 0.095 0.67041 0.0
O173 O 0.3955 0.05527 0.67226 0.0
C174 C 0.42035 0.07046 0.67386 0.0
C175 C 0.30889 1.01558 0.66497 0.0
C176 C 0.36669 0.09683 0.73047 0.0
C177 C 0.36521 0.09581 0.60756 0.0
O178 O 0.34439 0.08127 0.62431 0.0
O179 O 0.38697 0.10003 0.61955 0.0
O180 O 0.30132 0.03233 0.66822 0.0
O181 O 0.33355 0.02402 0.66602 0.0
O182 O 0.94216 0.29021 0.71648 0.0
Cd183 Cd 0.95855 0.3114 0.67081 0.0
Cd184 Cd 0.98597 0.28595 0.67489 0.0
O185 O 0.96769 0.27353 0.72302 0.0
O186 O 0.95148 0.34082 0.67224 0.0
O187 O 0.99092 0.346 0.67585 0.0
C188 C 0.97612 0.35612 0.67623 0.0
C189 C 0.03054 0.30223 0.66888 0.0
C190 C 0.94927 0.27665 0.73409 0.0
C191 C 0.95098 0.27511 0.61121 0.0
O192 O 0.96464 0.26854 0.62965 0.0
O193 O 0.94715 0.29322 0.62177 0.0
O194 O 1.0147 0.27792 0.67396 0.0
O195 O 1.02116 0.31766 0.66897 0.0
O196 O 0.77822 0.70548 0.62511 0.0
Cd197 Cd 0.7606 0.70917 0.67052 0.0
Cd198 Cd 0.73499 0.65722 0.66552 0.0
O199 O 0.7534 0.66326 0.61751 0.0
O200 O 0.76799 0.74565 0.67094 0.0
O201 O 0.72851 0.71191 0.66427 0.0
C202 C 0.74356 0.73676 0.66558 0.0
C203 C 0.69034 0.63022 0.67122 0.0
C204 C 0.77166 0.68498 0.60702 0.0
C205 C 0.76897 0.68107 0.72962 0.0
O206 O 0.75617 0.66083 0.71062 0.0
O207 O 0.77182 0.70266 0.71956 0.0
O208 O 0.70551 0.62093 0.66576 0.0
O209 O 0.70047 0.65512 0.67167 0.0
O210 O 0.33857 0.26422 0.62569 0.0
Cd211 Cd 0.3348 0.28177 0.67128 0.0
Cd212 Cd 0.38672 0.30783 0.66751 0.0
O213 O 0.38082 0.28925 0.6194 0.0
O214 O 0.29853 0.27503 0.6708 0.0
O215 O 0.33279 0.31418 0.6652 0.0
C216 C 0.30787 0.2995 0.66576 0.0
C217 C 0.41354 0.35254 0.67307 0.0
C218 C 0.35919 0.27098 0.60814 0.0
C219 C 0.36307 0.27413 0.73114 0.0
O220 O 0.38334 0.28715 0.7127 0.0
O221 O 0.34133 0.27077 0.72043 0.0
O222 O 0.42295 0.33741 0.66814 0.0
O223 O 0.38861 0.34229 0.67325 0.0
O224 O 0.77619 0.08297 0.62874 0.0
Cd225 Cd 0.75901 0.06209 0.67388 0.0
Cd226 Cd 0.73395 0.0899 0.66972 0.0
O227 O 0.75185 0.10084 0.62072 0.0
O228 O 0.76733 0.03356 0.67333 0.0
O229 O 0.72739 0.0267 0.66804 0.0
C230 C 0.74298 0.0175 0.66832 0.0
C231 C 0.68921 0.07179 0.67543 0.0
C232 C 0.76977 0.09669 0.61029 0.0
C233 C 0.76899 0.0994 0.73321 0.0
O234 O 0.75549 0.10662 0.71556 0.0
O235 O 0.7718 0.08079 0.72205 0.0
O236 O 0.70416 0.09641 0.67129 0.0
O237 O 0.69967 0.0573 0.67484 0.0
O238 O 0.94482 0.66052 0.71271 0.0
Cd239 Cd 0.96132 0.65531 0.66765 0.0
Cd240 Cd 0.98837 0.70921 0.67144 0.0
O241 O 0.97 0.70277 0.72017 0.0
O242 O 0.95307 0.61845 0.66972 0.0
O243 O 0.99307 0.65175 0.67262 0.0
C244 C 0.97756 0.62697 0.67365 0.0
C245 C 0.03278 0.73911 0.66614 0.0
C246 C 0.95165 0.68107 0.73075 0.0
C247 C 0.95237 0.68258 0.60809 0.0
O248 O 0.96675 0.70338 0.62543 0.0
O249 O 0.9485 0.6609 0.61946 0.0
O250 O 1.01598 0.74658 0.66984 0.0
O251 O 1.02444 0.71449 0.66691 0.0
H252 H 0.16808 0.33386 0.14643 0.0
H253 H 0.16573 0.35321 0.03666 0.0
H254 H 0.13088 0.37687 0.11749 0.0
H255 H 0.17372 0.30914 0.09321 0.0
H256 H 0.18173 0.32448 0.05093 0.0
H257 H 0.20442 0.3315 0.14643 0.0
H258 H 0.28478 0.37391 0.11819 0.0
H259 H 0.22655 0.35352 0.03739 0.0
C260 C 0.16337 0.34377 0.12635 0.0
C261 C 0.14975 0.35638 0.1363 0.0
C262 C 0.1702 0.34332 0.09061 0.0
C263 C 0.16189 0.35454 0.0645 0.0
C264 C 0.14767 0.3666 0.07432 0.0
C265 C 0.14233 0.36802 0.11017 0.0
C266 C 0.18363 0.32837 0.08006 0.0
C267 C 0.21201 0.34211 0.09093 0.0
C268 C 0.21915 0.34159 0.12659 0.0
C269 C 0.24537 0.35365 0.13671 0.0
C270 C 0.2645 0.36548 0.1108 0.0
C271 C 0.25784 0.36511 0.07507 0.0
C272 C 0.23163 0.35388 0.06514 0.0
H273 H 0.71663 0.84269 0.14516 0.0
H274 H 0.69343 0.81935 0.03614 0.0
H275 H 0.67398 0.76211 0.11706 0.0
H276 H 0.73799 0.8732 0.09202 0.0
H277 H 0.72222 0.86441 0.04968 0.0
H278 H 0.71223 0.87744 0.14541 0.0
H279 H 0.66911 0.91449 0.11649 0.0
H280 H 0.69437 0.88129 0.03518 0.0
C281 C 0.70625 0.82777 0.12535 0.0
C282 C 0.6943 0.80169 0.13552 0.0
C283 C 0.70512 0.83449 0.08973 0.0
C284 C 0.69334 0.81459 0.06391 0.0
C285 C 0.68237 0.78854 0.07387 0.0
C286 C 0.6823 0.78229 0.10963 0.0
C287 C 0.71865 0.86273 0.07882 0.0
C288 C 0.70364 0.87614 0.08925 0.0
C289 C 0.70253 0.88232 0.12518 0.0
C290 C 0.68959 0.89558 0.13522 0.0
C291 C 0.6782 0.90327 0.10902 0.0
C292 C 0.68022 0.89857 0.07303 0.0
C293 C 0.69262 0.88469 0.0631 0.0
H294 H 0.18987 0.81926 0.15742 0.0
H295 H 0.18108 0.79932 0.04631 0.0
H296 H 0.11473 0.76726 0.11519 0.0
H297 H 0.22569 0.8185 0.11765 0.0
H298 H 0.22308 0.82066 0.07094 0.0
H299 H 0.22656 0.85475 0.15759 0.0
H300 H 0.27818 0.92936 0.11529 0.0
H301 H 0.2443 0.86245 0.04614 0.0
C302 C 0.17768 0.81036 0.13444 0.0
C303 C 0.15088 0.79472 0.13948 0.0
C304 C 0.18878 0.81289 0.1007 0.0
C305 C 0.17256 0.79872 0.07197 0.0
C306 C 0.14581 0.78189 0.07694 0.0
C307 C 0.13505 0.78093 0.11051 0.0
C308 C 0.21799 0.82607 0.09681 0.0
C309 C 0.23187 0.85532 0.10079 0.0
C310 C 0.23511 0.86673 0.1346 0.0
C311 C 0.25105 0.8935 0.13967 0.0
C312 C 0.26433 0.90904 0.11064 0.0
C313 C 0.26257 0.89798 0.07689 0.0
C314 C 0.24552 0.87121 0.07192 0.0
H315 H 0.39065 0.21753 0.85362 0.0
H316 H 0.40086 0.23801 0.96462 0.0
H317 H 0.36728 0.26974 0.89363 0.0
H318 H 0.42701 0.21852 0.89552 0.0
H319 H 0.42041 0.21502 0.94175 0.0
H320 H 0.39343 0.18321 0.85223 0.0
H321 H 0.36755 0.10741 0.89211 0.0
H322 H 0.39899 0.17259 0.96418 0.0
C323 C 0.38718 0.2265 0.87627 0.0
C324 C 0.37634 0.24231 0.87038 0.0
C325 C 0.39528 0.22396 0.91038 0.0
C326 C 0.39315 0.23843 0.93866 0.0
C327 C 0.38316 0.25515 0.9329 0.0
C328 C 0.37388 0.25609 0.8989 0.0
C329 C 0.41094 0.21041 0.9151 0.0
C330 C 0.39563 0.18123 0.90941 0.0
C331 C 0.38878 0.17068 0.87486 0.0
C332 C 0.37763 0.14395 0.86876 0.0
C333 C 0.37412 0.12768 0.89743 0.0
C334 C 0.38247 0.13788 0.93179 0.0
C335 C 0.39223 0.16454 0.93782 0.0
H336 H 0.88746 0.19659 0.86242 0.0
H337 H 0.8911 0.21961 0.97226 0.0
H338 H 0.92665 0.27702 0.89099 0.0
H339 H 0.88044 0.16618 0.9159 0.0
H340 H 0.8731 0.17452 0.95817 0.0
H341 H 0.8499 0.1608 0.86223 0.0
H342 H 0.76976 0.12182 0.89105 0.0
H343 H 0.82824 0.15627 0.97249 0.0
C344 C 0.89245 0.2114 0.88249 0.0
C345 C 0.90653 0.23749 0.87241 0.0
C346 C 0.88553 0.20456 0.9183 0.0
C347 C 0.89479 0.22444 0.94437 0.0
C348 C 0.90977 0.25055 0.93442 0.0
C349 C 0.91478 0.25685 0.89848 0.0
C350 C 0.87116 0.17623 0.92904 0.0
C351 C 0.84265 0.16211 0.91842 0.0
C352 C 0.83534 0.15568 0.88247 0.0
C353 C 0.80911 0.14181 0.87241 0.0
C354 C 0.79004 0.13352 0.89857 0.0
C355 C 0.79679 0.13821 0.93458 0.0
C356 C 0.82307 0.15286 0.94456 0.0
H357 H 0.86391 0.65395 0.84957 0.0
H358 H 0.87318 0.64566 0.96122 0.0
H359 H 0.93921 0.67808 0.89187 0.0
H360 H 0.82809 0.61885 0.89028 0.0
H361 H 0.83111 0.62434 0.93692 0.0
H362 H 0.828 0.65453 0.85028 0.0
H363 H 0.77584 0.67741 0.89202 0.0
H364 H 0.80912 0.64447 0.96141 0.0
C365 C 0.87621 0.65789 0.87257 0.0
C366 C 0.90301 0.6689 0.86744 0.0
C367 C 0.86525 0.65027 0.90657 0.0
C368 C 0.88158 0.65296 0.93537 0.0
C369 C 0.90828 0.66264 0.93029 0.0
C370 C 0.91891 0.67162 0.89653 0.0
C371 C 0.83603 0.63443 0.9109 0.0
C372 C 0.82217 0.64982 0.90696 0.0
C373 C 0.81918 0.65791 0.87316 0.0
C374 C 0.80311 0.66853 0.86789 0.0
C375 C 0.78968 0.67096 0.89679 0.0
C376 C 0.79127 0.66189 0.93056 0.0
C377 C 0.80818 0.65202 0.93566 0.0
H378 H 0.83471 0.66712 0.47972 0.0
H379 H 0.8325 0.68648 0.36992 0.0
H380 H 0.79748 0.71007 0.45062 0.0
H381 H 0.84046 0.64243 0.42657 0.0
H382 H 0.8485 0.65776 0.38428 0.0
H383 H 0.87111 0.66482 0.47983 0.0
H384 H 0.95149 0.70734 0.45173 0.0
H385 H 0.89331 0.68685 0.37081 0.0
C386 C 0.83001 0.67702 0.45962 0.0
C387 C 0.81636 0.68961 0.4695 0.0
C388 C 0.83689 0.67658 0.4239 0.0
C389 C 0.82861 0.6878 0.39775 0.0
C390 C 0.81435 0.69983 0.4075 0.0
C391 C 0.80896 0.70123 0.44334 0.0
C392 C 0.85036 0.66165 0.41341 0.0
C393 C 0.87873 0.67543 0.42434 0.0
C394 C 0.88584 0.67493 0.46001 0.0
C395 C 0.91206 0.68702 0.47018 0.0
C396 C 0.93121 0.69888 0.4443 0.0
C397 C 0.92457 0.6985 0.40855 0.0
C398 C 0.89838 0.68722 0.39858 0.0
H399 H 0.38287 0.17568 0.47878 0.0
H400 H 0.35979 0.1523 0.36975 0.0
H401 H 0.34009 0.09509 0.45078 0.0
H402 H 0.40436 0.20613 0.42559 0.0
H403 H 0.38857 0.19735 0.38326 0.0
H404 H 0.37867 0.21051 0.47897 0.0
H405 H 0.33573 0.24773 0.44999 0.0
H406 H 0.36083 0.21435 0.36873 0.0
C407 C 0.37248 0.16076 0.45898 0.0
C408 C 0.36047 0.13469 0.4692 0.0
C409 C 0.37141 0.16747 0.42335 0.0
C410 C 0.35964 0.14756 0.39754 0.0
C411 C 0.3486 0.1215 0.40754 0.0
C412 C 0.34846 0.11527 0.44332 0.0
C413 C 0.38501 0.1957 0.4124 0.0
C414 C 0.37007 0.2092 0.42281 0.0
C415 C 0.36899 0.21541 0.45873 0.0
C416 C 0.35611 0.22874 0.46875 0.0
C417 C 0.34477 0.23647 0.44254 0.0
C418 C 0.34677 0.23173 0.40655 0.0
C419 C 0.3591 0.21778 0.39664 0.0
H420 H 0.85644 0.15289 0.4905 0.0
H421 H 0.84779 0.13294 0.3794 0.0
H422 H 0.78137 0.10078 0.44814 0.0
H423 H 0.89231 0.15212 0.45085 0.0
H424 H 0.88976 0.15427 0.40413 0.0
H425 H 0.89317 0.18837 0.49074 0.0
H426 H 0.94488 0.26296 0.44845 0.0
H427 H 0.91097 0.19605 0.3793 0.0
C428 C 0.84427 0.14397 0.4675 0.0
C429 C 0.81748 0.12829 0.47249 0.0
C430 C 0.85542 0.1465 0.43379 0.0
C431 C 0.83924 0.13233 0.40504 0.0
C432 C 0.81249 0.11546 0.40996 0.0
C433 C 0.80169 0.11448 0.44351 0.0
C434 C 0.88464 0.15968 0.42998 0.0
C435 C 0.89851 0.18894 0.43394 0.0
C436 C 0.90174 0.20035 0.46775 0.0
C437 C 0.9177 0.22712 0.47283 0.0
C438 C 0.93101 0.24264 0.44379 0.0
C439 C 0.92925 0.23159 0.41005 0.0
C440 C 0.91218 0.20482 0.40508 0.0
H441 H 0.05698 0.55069 0.18708 0.0
H442 H 0.0674 0.57124 0.29805 0.0
H443 H 0.03372 0.60295 0.22719 0.0
H444 H 0.09348 0.55178 0.22886 0.0
H445 H 0.08693 0.54827 0.2751 0.0
H446 H 0.05995 0.51645 0.18561 0.0
H447 H 0.03414 0.44067 0.2255 0.0
H448 H 0.0655 0.50584 0.29756 0.0
C449 C 0.05356 0.55968 0.20975 0.0
C450 C 0.04273 0.57549 0.20389 0.0
C451 C 0.06173 0.55717 0.24383 0.0
C452 C 0.05965 0.57165 0.27213 0.0
C453 C 0.04965 0.58837 0.2664 0.0
C454 C 0.04032 0.5893 0.23243 0.0
C455 C 0.07742 0.54365 0.24847 0.0
C456 C 0.06214 0.51447 0.24279 0.0
C457 C 0.0553 0.50392 0.20824 0.0
C458 C 0.04419 0.47719 0.20214 0.0
C459 C 0.04069 0.46093 0.23081 0.0
C460 C 0.04903 0.47113 0.26518 0.0
C461 C 0.05875 0.49779 0.27121 0.0
H462 H 0.55406 0.53014 0.1957 0.0
H463 H 0.5579 0.55325 0.30554 0.0
H464 H 0.59325 0.61059 0.22414 0.0
H465 H 0.5472 0.4998 0.24927 0.0
H466 H 0.53985 0.50815 0.29152 0.0
H467 H 0.51661 0.49426 0.1956 0.0
H468 H 0.43649 0.4552 0.22446 0.0
H469 H 0.49498 0.48984 0.30586 0.0
C470 C 0.55907 0.54496 0.21576 0.0
C471 C 0.57312 0.57104 0.20563 0.0
C472 C 0.55222 0.53816 0.25159 0.0
C473 C 0.56153 0.55805 0.27762 0.0
C474 C 0.57647 0.58416 0.26762 0.0
C475 C 0.5814 0.59043 0.23167 0.0
C476 C 0.53789 0.50983 0.26238 0.0
C477 C 0.50938 0.49564 0.25178 0.0
C478 C 0.50206 0.48916 0.21584 0.0
C479 C 0.47583 0.47524 0.2058 0.0
C480 C 0.45676 0.46694 0.23197 0.0
C481 C 0.46352 0.47168 0.26797 0.0
C482 C 0.4898 0.48639 0.27793 0.0
H483 H 0.53064 0.98718 0.1828 0.0
H484 H 0.54005 0.979 0.29444 0.0
H485 H 0.606 1.01144 0.22496 0.0
H486 H 0.49488 0.95211 0.22358 0.0
H487 H 0.49795 0.95761 0.27022 0.0
H488 H 0.49475 0.98781 0.18362 0.0
H489 H 0.44254 1.01058 0.22548 0.0
H490 H 0.47593 0.97769 0.29477 0.0
C491 C 0.54297 0.99115 0.20578 0.0
C492 C 0.56977 1.00219 0.2006 0.0
C493 C 0.53204 0.98356 0.2398 0.0
C494 C 0.54841 0.98629 0.26857 0.0
C495 C 0.57511 0.99599 0.26344 0.0
C496 C 0.5857 1.00496 0.22966 0.0
C497 C 0.50283 0.9677 0.24419 0.0
C498 C 0.48894 0.98307 0.2403 0.0
C499 C 0.48593 0.99117 0.20652 0.0
C500 C 0.46983 1.00176 0.2013 0.0
C501 C 0.4564 1.00416 0.23023 0.0
C502 C 0.45803 0.99508 0.26398 0.0
C503 C 0.47496 0.98524 0.26903 0.0
H504 H 0.50128 1.00044 0.81301 0.0
H505 H 0.49896 0.01984 0.70325 0.0
H506 H 0.46402 0.04341 0.7841 0.0
H507 H 0.50697 0.97578 0.75977 0.0
H508 H 0.51498 0.99113 0.7175 0.0
H509 H 0.53766 0.99816 0.81301 0.0
H510 H 0.61802 0.04061 0.78478 0.0
H511 H 0.55979 0.02018 0.70396 0.0
C512 C 0.49656 1.01035 0.79294 0.0
C513 C 0.48292 0.02294 0.80289 0.0
C514 C 0.50341 1.00993 0.7572 0.0
C515 C 0.4951 0.02116 0.7311 0.0
C516 C 0.48086 0.03318 0.74092 0.0
C517 C 0.4755 0.03457 0.77677 0.0
C518 C 0.51687 0.99501 0.74663 0.0
C519 C 0.54525 1.00877 0.75751 0.0
C520 C 0.55239 1.00825 0.79317 0.0
C521 C 0.57861 0.02032 0.80329 0.0
C522 C 0.59774 0.03216 0.77739 0.0
C523 C 0.59108 0.03179 0.74165 0.0
C524 C 0.56488 0.02054 0.73172 0.0
H525 H 0.04963 0.50916 0.81235 0.0
H526 H 1.02665 0.48589 0.70326 0.0
H527 H 1.00706 0.4286 0.78414 0.0
H528 H 0.0711 0.5397 0.75924 0.0
H529 H 0.05537 0.53094 0.71688 0.0
H530 H 0.04529 0.54393 0.81259 0.0
H531 H 1.0022 0.58099 0.7836 0.0
H532 H 0.02754 0.54784 0.70233 0.0
C533 C 0.03929 0.49426 0.79251 0.0
C534 C 0.02734 0.46817 0.80265 0.0
C535 C 0.03822 0.501 0.75689 0.0
C536 C 1.02651 0.48111 0.73103 0.0
C537 C 1.01552 0.45505 0.74097 0.0
C538 C 1.01538 0.44878 0.77673 0.0
C539 C 0.05177 0.52924 0.746 0.0
C540 C 0.03675 0.54265 0.75642 0.0
C541 C 0.0356 0.54881 0.79234 0.0
C542 C 1.02266 0.56207 0.80236 0.0
C543 C 1.01129 0.56978 0.77615 0.0
C544 C 1.01335 0.56509 0.74016 0.0
C545 C 1.02576 0.55122 0.73024 0.0
H546 H 0.52314 0.48607 0.82384 0.0
H547 H 0.51443 0.46614 0.71273 0.0
H548 H 0.44805 0.43397 0.78155 0.0
H549 H 0.55902 0.48541 0.78414 0.0
H550 H 0.55642 0.4875 0.73742 0.0
H551 H 0.55976 0.52166 0.82397 0.0
H552 H 0.61141 0.59623 0.7816 0.0
H553 H 0.57762 0.52927 0.71255 0.0
C554 C 0.51096 0.47716 0.80085 0.0
C555 C 0.48417 0.46147 0.80587 0.0
C556 C 0.52208 0.47971 0.76712 0.0
C557 C 0.50589 0.46553 0.73838 0.0
C558 C 0.47914 0.44865 0.74334 0.0
C559 C 0.46837 0.44766 0.7769 0.0
C560 C 0.5513 0.49293 0.76326 0.0
C561 C 0.56513 0.52218 0.76718 0.0
C562 C 0.56833 0.53362 0.80096 0.0
C563 C 0.58426 0.5604 0.80601 0.0
C564 C 0.59757 0.57591 0.77696 0.0
C565 C 0.59584 0.56483 0.74324 0.0
C566 C 0.57881 0.53805 0.73831 0.0
H567 H 0.72417 0.88433 0.51998 0.0
H568 H 0.73448 0.90486 0.63095 0.0
H569 H 0.70075 0.93648 0.56004 0.0
H570 H 0.76065 0.88544 0.56183 0.0
H571 H 0.75404 0.8819 0.60806 0.0
H572 H 0.72721 0.85013 0.51849 0.0
H573 H 0.70122 0.7743 0.55836 0.0
H574 H 0.73255 0.83945 0.63048 0.0
C575 C 0.72072 0.89331 0.54263 0.0
C576 C 0.70985 0.90908 0.53675 0.0
C577 C 0.72887 0.8908 0.57673 0.0
C578 C 0.72674 0.90526 0.60501 0.0
C579 C 0.71669 0.92194 0.59927 0.0
C580 C 0.70738 0.92286 0.56528 0.0
C581 C 0.74457 0.87729 0.58141 0.0
C582 C 0.72929 0.84812 0.57569 0.0
C583 C 0.72251 0.83758 0.54112 0.0
C584 C 0.71136 0.81085 0.53501 0.0
C585 C 0.7078 0.79457 0.56368 0.0
C586 C 0.71609 0.80475 0.59806 0.0
C587 C 0.72584 0.83141 0.6041 0.0
H588 H 0.22091 0.86312 0.52946 0.0
H589 H 0.22455 0.88625 0.63926 0.0
H590 H 0.26005 0.94358 0.55789 0.0
H591 H 0.2139 0.83276 0.58301 0.0
H592 H 0.20656 0.84114 0.62526 0.0
H593 H 0.18335 0.82733 0.52932 0.0
H594 H 0.10322 0.78836 0.55811 0.0
H595 H 0.16168 0.82287 0.63957 0.0
C596 C 0.22589 0.87795 0.5495 0.0
C597 C 0.23995 0.90403 0.53938 0.0
C598 C 0.21898 0.87115 0.58532 0.0
C599 C 0.22823 0.89105 0.61135 0.0
C600 C 0.2432 0.91715 0.60136 0.0
C601 C 0.2482 0.92342 0.56541 0.0
C602 C 0.20461 0.84282 0.59612 0.0
C603 C 0.1761 0.82868 0.5855 0.0
C604 C 0.1688 0.82223 0.54955 0.0
C605 C 0.14257 0.80835 0.53948 0.0
C606 C 0.12349 0.80007 0.56565 0.0
C607 C 0.13024 0.80478 0.60165 0.0
C608 C 0.15652 0.81944 0.61163 0.0
H609 H 0.19735 0.3205 0.51615 0.0
H610 H 0.20671 0.31228 0.6278 0.0
H611 H 0.27269 0.34471 0.55837 0.0
H612 H 0.16157 0.28543 0.5569 0.0
H613 H 0.16462 0.29091 0.60354 0.0
H614 H 0.16148 0.32116 0.51697 0.0
H615 H 0.10932 0.34399 0.55882 0.0
H616 H 0.14261 0.31101 0.6281 0.0
C617 C 0.20967 0.32445 0.53914 0.0
C618 C 0.23647 0.33548 0.53398 0.0
C619 C 0.19873 0.31685 0.57316 0.0
C620 C 0.21509 0.31957 0.60194 0.0
C621 C 0.24179 0.32926 0.59682 0.0
C622 C 0.2524 0.33824 0.56305 0.0
C623 C 0.16952 0.30101 0.57753 0.0
C624 C 0.15565 0.3164 0.57364 0.0
C625 C 0.15266 0.32452 0.53986 0.0
C626 C 0.13658 0.33514 0.53464 0.0
C627 C 0.12316 0.33754 0.56356 0.0
C628 C 0.12476 0.32845 0.59731 0.0
C629 C 0.14166 0.31857 0.60237 0.0
C630 C 0.05743 0.46656 0.10709 0.0
C631 C 0.0349 0.44317 0.09813 0.0
H632 H 0.07788 0.49569 0.14681 0.0
C633 C 1.01454 0.43206 0.12276 0.0
H634 H 0.07343 0.47571 0.08867 0.0
C635 C 1.01715 0.44356 0.15622 0.0
C636 C 0.03999 0.46657 0.16543 0.0
H637 H 0.99694 0.41407 0.11666 0.0
H638 H 1.00152 0.43424 0.17516 0.0
C639 C 0.0599 0.47817 0.14029 0.0
C640 C 0.60628 0.57896 0.11721 0.0
C641 C 0.60291 0.59839 0.10127 0.0
H642 H 0.59896 0.55466 0.1626 0.0
C643 C 0.58777 0.60707 0.1187 0.0
H644 H 0.61768 0.57172 0.10432 0.0
C645 C 0.57723 0.59739 0.15205 0.0
C646 C 0.58124 0.57855 0.16839 0.0
H647 H 0.58475 0.62196 0.10714 0.0
H648 H 0.56637 0.60504 0.16549 0.0
C649 C 0.59539 0.569 0.15037 0.0
C650 C 0.45463 0.03207 0.12333 0.0
C651 C 0.4465 1.01232 0.09749 0.0
H652 H 0.46848 0.0442 0.17667 0.0
C653 C 0.44781 0.98998 0.10536 0.0
H654 H 0.45384 0.04951 0.11805 0.0
C655 C 0.45638 0.98711 0.13863 0.0
C656 C 0.46366 1.00642 0.16488 0.0
H657 H 0.44179 0.97446 0.08601 0.0
H658 H 0.45634 0.96928 0.14425 0.0
C659 C 0.46296 0.02905 0.15684 0.0
C660 C 0.44869 0.99713 0.89032 0.0
C661 C 0.45157 0.01974 0.90663 0.0
H662 H 0.45682 0.98055 0.84485 0.0
C663 C 0.46666 0.04367 0.88978 0.0
H664 H 0.43734 0.97841 0.90274 0.0
C665 C 0.47768 0.04483 0.85661 0.0
C666 C 0.47417 0.02214 0.8399 0.0
H667 H 0.46931 0.06144 0.90168 0.0
H668 H 0.48854 0.06341 0.84365 0.0
C669 C 0.46003 0.99835 0.85736 0.0
C670 C 1.00677 0.43198 0.88949 0.0
C671 C 0.03071 0.44081 0.90684 0.0
H672 H 0.98703 0.43395 0.84298 0.0
C673 C 0.05338 0.46035 0.89082 0.0
H674 H 0.98893 0.41703 0.90109 0.0
C675 C 0.05219 0.47028 0.85768 0.0
C676 C 0.02836 0.4606 0.83979 0.0
H677 H 0.07211 0.46771 0.90361 0.0
H678 H 0.07 0.48472 0.84538 0.0
C679 C 1.00565 0.44166 0.85624 0.0
C680 C 0.60605 0.57183 0.90207 0.0
C681 C 0.60679 0.59529 0.90988 0.0
H682 H 0.59824 0.54245 0.86323 0.0
C683 C 0.59846 0.60643 0.8839 0.0
H684 H 0.61225 0.56269 0.92153 0.0
C685 C 0.59049 0.5948 0.85031 0.0
C686 C 0.59031 0.57164 0.84238 0.0
H687 H 0.59886 0.62452 0.88912 0.0
H688 H 0.5848 0.60407 0.83037 0.0
C689 C 0.59781 0.5601 0.86876 0.0
C690 C 0.04725 0.59451 0.89185 0.0
C691 C 1.02444 0.59139 0.90749 0.0
H692 H 0.06444 0.58727 0.84645 0.0
C693 C 1.00071 0.57673 0.88941 0.0
H694 H 0.06581 0.60555 0.90522 0.0
C695 C 1.0 0.5664 0.8557 0.0
C696 C 1.02292 0.57019 0.83969 0.0
H697 H 0.9828 0.57395 0.90077 0.0
H698 H 0.98159 0.55586 0.8418 0.0
C699 C 0.04647 0.58386 0.85837 0.0
C700 C 0.43847 0.44842 0.88316 0.0
C701 C 0.44966 0.44032 0.90942 0.0
H702 H 0.44069 0.46148 0.82953 0.0
C703 C 0.47312 0.441 0.90206 0.0
H704 H 0.42038 0.44807 0.88803 0.0
C705 C 0.48479 0.44889 0.8689 0.0
C706 C 0.47317 0.45609 0.8422 0.0
H707 H 0.48231 0.43499 0.92176 0.0
H708 H 0.50242 0.44837 0.86372 0.0
C709 C 0.45002 0.45602 0.84971 0.0
C710 C 0.58736 0.99444 0.89076 0.0
C711 C 0.60705 1.01711 0.90713 0.0
H712 H 0.56254 0.97777 0.84519 0.0
C713 C 0.6157 0.04102 0.89025 0.0
H714 H 0.58013 0.97574 0.90319 0.0
C715 C 0.60569 0.0421 0.85711 0.0
C716 C 0.58657 0.01938 0.84033 0.0
H717 H 0.63076 0.05886 0.90213 0.0
H718 H 0.61327 0.06069 0.8442 0.0
C719 C 0.5771 0.99559 0.85775 0.0
C720 C 0.58121 0.99016 0.10532 0.0
C721 C 0.60491 1.01257 0.09773 0.0
H722 H 0.55148 0.96949 0.14356 0.0
C723 C 0.61595 0.03255 0.12332 0.0
H724 H 0.57209 0.97446 0.08612 0.0
C725 C 0.60408 0.02964 0.15639 0.0
C726 C 0.58076 1.00688 0.16424 0.0
H727 H 0.63417 0.05006 0.11827 0.0
H728 H 0.61337 0.04494 0.17612 0.0
C729 C 0.56923 0.9874 0.13811 0.0
C730 C 0.0541 0.59609 0.10781 0.0
C731 C 0.03155 0.59697 0.09933 0.0
H732 H 0.07515 0.58848 0.14742 0.0
C733 C 1.0118 0.58896 0.12479 0.0
H734 H 0.06963 0.60203 0.08876 0.0
C735 C 1.01503 0.58124 0.15856 0.0
C736 C 0.03787 0.58099 0.16721 0.0
H737 H 0.99422 0.58945 0.11904 0.0
H738 H 0.99988 0.57584 0.1781 0.0
C739 C 0.05718 0.58811 0.14132 0.0
C740 C 0.43892 0.46051 0.11884 0.0
C741 C 0.44768 0.44561 0.10086 0.0
H742 H 0.4411 0.48164 0.1663 0.0
C743 C 0.46736 0.44239 0.1165 0.0
H744 H 0.42381 0.46338 0.1075 0.0
C745 C 0.47751 0.45321 0.14988 0.0
C746 C 0.46791 0.46711 0.16845 0.0
H747 H 0.47465 0.43117 0.1032 0.0
H748 H 0.49207 0.44975 0.16184 0.0
C749 C 0.44878 0.47097 0.15245 0.0
C750 C 0.72462 0.8002 0.43997 0.0
C751 C 0.70207 0.77684 0.43099 0.0
H752 H 0.74508 0.82931 0.47971 0.0
C753 C 0.68169 0.76576 0.45561 0.0
H754 H 0.74063 0.80933 0.42155 0.0
C755 C 0.68431 0.77725 0.48906 0.0
C756 C 0.70717 0.80024 0.49829 0.0
H757 H 0.66407 0.74778 0.44949 0.0
H758 H 0.66866 0.76795 0.50799 0.0
C759 C 0.72709 0.81181 0.47317 0.0
C760 C 0.25459 0.94004 0.45244 0.0
C761 C 0.26976 0.93138 0.43502 0.0
H762 H 0.23317 0.93799 0.49922 0.0
C763 C 0.27316 0.91197 0.45098 0.0
H764 H 0.25154 0.95491 0.44087 0.0
C765 C 0.26226 0.90201 0.48414 0.0
C766 C 0.24809 0.91154 0.50214 0.0
H767 H 0.28458 0.90475 0.43811 0.0
H768 H 0.26586 0.88769 0.49639 0.0
C769 C 0.24405 0.93036 0.48579 0.0
C770 C 0.11456 0.32338 0.43871 0.0
C771 C 0.11327 0.34574 0.43085 0.0
H772 H 0.12307 0.30266 0.47758 0.0
C773 C 0.12143 0.36549 0.45668 0.0
H774 H 0.10852 0.30786 0.41935 0.0
C775 C 0.12975 0.36245 0.49019 0.0
C776 C 0.13043 0.33981 0.49822 0.0
H777 H 0.12065 0.38294 0.45141 0.0
H778 H 0.13529 0.37761 0.51002 0.0
C779 C 0.12313 0.3205 0.47197 0.0
C780 C 0.13349 0.37713 0.22317 0.0
C781 C 0.11838 0.3532 0.24002 0.0
H782 H 0.15538 0.39686 0.17704 0.0
C783 C 0.1155 0.33059 0.22371 0.0
H784 H 0.13613 0.39491 0.23507 0.0
C785 C 0.12685 0.3318 0.19076 0.0
C786 C 0.14099 0.35559 0.1733 0.0
H787 H 0.10415 0.31187 0.23613 0.0
H788 H 0.12364 0.314 0.17825 0.0
C789 C 0.14451 0.37828 0.19001 0.0
C790 C 0.72044 0.79388 0.22362 0.0
C791 C 0.69777 0.77436 0.23969 0.0
H792 H 0.73702 0.81821 0.17814 0.0
C793 C 0.67382 0.76555 0.2224 0.0
H794 H 0.73917 0.80122 0.23637 0.0
C795 C 0.67267 0.77522 0.18916 0.0
C796 C 0.69537 0.79414 0.17265 0.0
H797 H 0.65598 0.75063 0.23404 0.0
H798 H 0.65403 0.76753 0.17594 0.0
C799 C 0.71922 0.80379 0.19048 0.0
C800 C 0.26524 0.93947 0.21764 0.0
C801 C 0.27358 0.92832 0.24359 0.0
H802 H 0.25157 0.93714 0.16412 0.0
C803 C 0.27286 0.90488 0.23573 0.0
H804 H 0.26563 0.95756 0.2229 0.0
C805 C 0.26462 0.89317 0.20241 0.0
C806 C 0.25711 0.90472 0.17606 0.0
H807 H 0.27906 0.89573 0.25517 0.0
H808 H 0.26506 0.87553 0.19684 0.0
C809 C 0.25728 0.92787 0.18404 0.0
C810 C 0.71425 0.92806 0.22467 0.0
C811 C 0.69145 0.92494 0.24034 0.0
H812 H 0.73142 0.92082 0.17924 0.0
C813 C 0.66771 0.91026 0.2223 0.0
H814 H 0.73282 0.93912 0.23801 0.0
C815 C 0.66697 0.89992 0.18859 0.0
C816 C 0.68988 0.90371 0.17255 0.0
H817 H 0.6498 0.90747 0.23368 0.0
H818 H 0.64855 0.88937 0.17472 0.0
C819 C 0.71345 0.91741 0.19119 0.0
C820 C 0.13985 0.77424 0.23567 0.0
C821 C 0.11641 0.77361 0.24306 0.0
H822 H 0.16912 0.78157 0.1973 0.0
C823 C 0.10524 0.78174 0.21681 0.0
H824 H 0.14903 0.76821 0.25535 0.0
C825 C 0.11678 0.78933 0.18336 0.0
C826 C 0.1399 0.78935 0.17582 0.0
H827 H 0.08717 0.78143 0.2217 0.0
H828 H 0.10746 0.79481 0.16319 0.0
C829 C 0.15151 0.78212 0.2025 0.0
C830 C 0.25414 0.32776 0.22417 0.0
C831 C 0.27382 0.35044 0.24054 0.0
H832 H 0.2293 0.3111 0.17861 0.0
C833 C 0.28247 0.37434 0.22365 0.0
H834 H 0.24691 0.30907 0.23661 0.0
C835 C 0.27246 0.37543 0.19052 0.0
C836 C 0.25334 0.35271 0.17375 0.0
H837 H 0.29753 0.39219 0.23554 0.0
H838 H 0.28004 0.39402 0.17761 0.0
C839 C 0.24387 0.32892 0.19117 0.0
C840 C 0.2827 0.36586 0.45675 0.0
C841 C 0.27165 0.3459 0.43113 0.0
H842 H 0.2801 0.37823 0.50955 0.0
C843 C 0.24795 0.32348 0.4387 0.0
H844 H 0.30092 0.38337 0.45171 0.0
C845 C 0.23596 0.32071 0.47149 0.0
C846 C 0.24748 0.34019 0.49763 0.0
H847 H 0.23883 0.30779 0.41949 0.0
H848 H 0.2182 0.3028 0.47692 0.0
C849 C 0.27081 0.36294 0.48981 0.0
C850 C 0.72121 0.92968 0.44067 0.0
C851 C 0.69865 0.93051 0.43218 0.0
H852 H 0.74229 0.92212 0.4803 0.0
C853 C 0.67889 0.92248 0.45763 0.0
H854 H 0.73675 0.93564 0.42162 0.0
C855 C 0.68213 0.91476 0.4914 0.0
C856 C 0.70498 0.91456 0.50006 0.0
H857 H 0.66128 0.92293 0.45187 0.0
H858 H 0.66696 0.90934 0.51093 0.0
C859 C 0.7243 0.92171 0.47419 0.0
C860 C 0.13409 0.77555 0.45015 0.0
C861 C 0.11443 0.77881 0.43451 0.0
H862 H 0.15878 0.78285 0.49549 0.0
C863 C 0.10569 0.79373 0.45251 0.0
H864 H 0.14136 0.76432 0.43683 0.0
C865 C 0.11556 0.80416 0.48613 0.0
C866 C 0.13466 0.80026 0.50213 0.0
H867 H 0.09061 0.79664 0.44118 0.0
H868 H 0.10789 0.81484 0.5 0.0
C869 C 0.14424 0.78634 0.48354 0.0
C870 C 0.34792 0.09883 0.78939 0.0
C871 C 0.36828 0.10993 0.76474 0.0
H872 H 0.33493 0.10102 0.8418 0.0
C873 C 0.39082 0.1333 0.77369 0.0
H874 H 0.3303 0.08085 0.78329 0.0
C875 C 0.39331 0.14491 0.8069 0.0
C876 C 0.37341 0.13332 0.83205 0.0
H877 H 0.40681 0.14244 0.75525 0.0
H878 H 0.4113 0.16242 0.81341 0.0
C879 C 0.35056 0.11033 0.82285 0.0
C880 C 0.92128 0.27359 0.78554 0.0
C881 C 0.93643 0.26491 0.76811 0.0
H882 H 0.89984 0.27153 0.8323 0.0
C883 C 0.93978 0.24547 0.78404 0.0
H884 H 0.91826 0.28849 0.77399 0.0
C885 C 0.92886 0.23549 0.81718 0.0
C886 C 0.9147 0.24503 0.8352 0.0
H887 H 0.95119 0.23824 0.77116 0.0
H888 H 0.93242 0.22114 0.82941 0.0
C889 C 0.9107 0.26389 0.81887 0.0
C890 C 0.78111 0.65674 0.77195 0.0
C891 C 0.77984 0.67909 0.76405 0.0
H892 H 0.78961 0.63603 0.81087 0.0
C893 C 0.78798 0.69886 0.78986 0.0
H894 H 0.77508 0.6412 0.75261 0.0
C895 C 0.79629 0.69583 0.82339 0.0
C896 C 0.79697 0.67319 0.83145 0.0
H897 H 0.78721 0.7163 0.78457 0.0
H898 H 0.80183 0.711 0.84321 0.0
C899 C 0.78967 0.65386 0.80522 0.0
C900 C 0.78209 0.66384 0.55691 0.0
C901 C 0.78496 0.68646 0.5732 0.0
H902 H 0.79023 0.64724 0.51149 0.0
C903 C 0.80006 0.71039 0.55633 0.0
H904 H 0.77073 0.64513 0.56936 0.0
C905 C 0.81108 0.71152 0.52317 0.0
C906 C 0.80758 0.68882 0.50649 0.0
H907 H 0.8027 0.72816 0.5682 0.0
H908 H 0.82195 0.73009 0.51019 0.0
C909 C 0.79343 0.66504 0.52397 0.0
C910 C 0.33997 0.0986 0.55612 0.0
C911 C 0.36393 0.10742 0.57343 0.0
H912 H 0.32019 0.10054 0.50964 0.0
C913 C 0.38659 0.12693 0.55734 0.0
H914 H 0.32214 0.08368 0.56777 0.0
C915 C 0.38537 0.13682 0.52418 0.0
C916 C 0.36153 0.12715 0.50634 0.0
H917 H 0.40533 0.13429 0.5701 0.0
H918 H 0.40318 0.15124 0.51185 0.0
C919 C 0.33882 0.10825 0.52286 0.0
C920 C 0.93954 0.23848 0.56887 0.0
C921 C 0.94031 0.26194 0.57673 0.0
H922 H 0.93167 0.20911 0.52999 0.0
C923 C 0.93199 0.27312 0.55079 0.0
H924 H 0.94573 0.22931 0.5883 0.0
C925 C 0.92399 0.26151 0.51719 0.0
C926 C 0.92378 0.23834 0.50921 0.0
H927 H 0.93241 0.29122 0.55604 0.0
H928 H 0.9183 0.2708 0.49728 0.0
C929 C 0.93127 0.22676 0.53555 0.0
C930 C 0.33426 0.24347 0.55582 0.0
C931 C 0.358 0.2581 0.57389 0.0
H932 H 0.3151 0.22261 0.50823 0.0
C933 C 0.38079 0.26118 0.55822 0.0
H934 H 0.31637 0.24071 0.56719 0.0
C935 C 0.37997 0.25053 0.52473 0.0
C936 C 0.35641 0.23688 0.50608 0.0
H937 H 0.39936 0.2722 0.57157 0.0
H938 H 0.39793 0.2539 0.51279 0.0
C939 C 0.33351 0.23313 0.52211 0.0
C940 C 0.77174 0.11518 0.54975 0.0
C941 C 0.78293 0.10709 0.57602 0.0
H942 H 0.77397 0.12826 0.49612 0.0
C943 C 0.80641 0.10779 0.56867 0.0
H944 H 0.75364 0.11482 0.55461 0.0
C945 C 0.81809 0.1157 0.53553 0.0
C946 C 0.80647 0.12289 0.50881 0.0
H947 H 0.8156 0.10179 0.58837 0.0
H948 H 0.83572 0.1152 0.53036 0.0
C949 C 0.78331 0.12281 0.51631 0.0
C950 C 0.92079 0.66113 0.55766 0.0
C951 C 0.94046 0.68381 0.57404 0.0
H952 H 0.89598 0.64447 0.51208 0.0
C953 C 0.94911 0.70771 0.55717 0.0
H954 H 0.91356 0.64243 0.57009 0.0
C955 C 0.93911 0.7088 0.52402 0.0
C956 C 0.92 0.68608 0.50723 0.0
H957 H 0.96416 0.72556 0.56907 0.0
H958 H 0.94668 0.72739 0.51112 0.0
C959 C 0.91053 0.66229 0.52465 0.0
C960 C 0.94928 0.69925 0.79025 0.0
C961 C 0.93824 0.67928 0.76463 0.0
H962 H 0.94668 0.71162 0.84304 0.0
C963 C 0.91452 0.65688 0.77218 0.0
H964 H 0.96752 0.71675 0.78522 0.0
C965 C 0.90251 0.65412 0.80496 0.0
C966 C 0.91404 0.67359 0.8311 0.0
H967 H 0.90539 0.6412 0.75297 0.0
H968 H 0.88474 0.63622 0.81037 0.0
C969 C 0.93739 0.69633 0.8233 0.0
C970 C 0.38775 0.26289 0.77429 0.0
C971 C 0.3652 0.26373 0.76576 0.0
H972 H 0.40881 0.25532 0.81395 0.0
C973 C 0.34543 0.25572 0.7912 0.0
H974 H 0.4033 0.26884 0.75525 0.0
C975 C 0.34866 0.24801 0.82498 0.0
C976 C 0.3715 0.2478 0.83368 0.0
H977 H 0.32784 0.25618 0.78542 0.0
H978 H 0.33349 0.2426 0.84451 0.0
C979 C 0.39083 0.25492 0.80782 0.0
C980 C 0.7722 0.12716 0.78545 0.0
C981 C 0.78095 0.11225 0.76744 0.0
H982 H 0.7744 0.14828 0.83294 0.0
C983 C 0.80062 0.10902 0.78306 0.0
H984 H 0.7571 0.13005 0.77413 0.0
C985 C 0.81078 0.11981 0.81645 0.0
C986 C 0.8012 0.13372 0.83505 0.0
H987 H 0.8079 0.09779 0.76974 0.0
H988 H 0.82533 0.11634 0.82839 0.0
C989 C 0.78208 0.1376 0.81906 0.0
C990 C 0.1306 0.41121 0.0267 0.0
C991 C 0.10474 0.39386 0.01664 0.0
H992 H 0.16482 0.41591 0.05279 0.0
C993 C 0.09519 0.3671 0.01982 0.0
H994 H 0.13857 0.43195 0.02462 0.0
C995 C 0.1105 0.358 0.03531 0.0
C996 C 0.13553 0.3755 0.04794 0.0
H997 H 0.07541 0.35324 0.01225 0.0
H998 H 0.10207 0.33742 0.03992 0.0
C999 C 0.14576 0.4021 0.04255 0.0
C1000 C 0.6802 0.73399 0.02141 0.0
C1001 C 0.65331 0.71736 0.01772 0.0
H1002 H 0.71058 0.77044 0.04144 0.0
C1003 C 0.63652 0.7268 0.02641 0.0
H1004 H 0.69364 0.72736 0.01483 0.0
C1005 C 0.64629 0.75146 0.04159 0.0
C1006 C 0.67299 0.76722 0.04767 0.0
H1007 H 0.61571 0.71449 0.02386 0.0
H1008 H 0.63289 0.75747 0.05093 0.0
C1009 C 0.68994 0.75873 0.03627 0.0
C1010 C 0.31964 0.91909 0.01583 0.0
C1011 C 0.3296 0.94601 0.01478 0.0
H1012 H 0.29049 0.88274 0.03611 0.0
C1013 C 0.31446 0.95615 0.02818 0.0
H1014 H 0.3307 0.91061 0.00544 0.0
C1015 C 0.29109 0.94002 0.04552 0.0
C1016 C 0.28248 0.91348 0.04983 0.0
H1017 H 0.32145 0.97677 0.02745 0.0
H1018 H 0.28063 0.94861 0.05759 0.0
C1019 C 0.29636 0.90301 0.03318 0.0
C1020 C 0.41753 0.11474 -0.00886 0.0
C1021 C 0.40041 0.08783 -0.00941 0.0
H1022 H 0.42508 0.1518 0.9733 0.0
C1023 C 0.37515 0.07828 0.97725 0.0
H1024 H 0.43703 0.12277 0.00163 0.0
C1025 C 0.36814 0.09507 0.9613 0.0
C1026 C 0.38629 0.12167 0.95836 0.0
H1027 H 0.36139 0.05767 0.97684 0.0
H1028 H 0.34917 0.08699 0.94899 0.0
C1029 C 0.41054 0.13149 0.9752 0.0
C1030 C 0.93084 0.31395 0.9807 0.0
C1031 C 0.95659 0.32137 -0.01016 0.0
H1032 H 0.89539 0.28504 0.95614 0.0
C1033 C 0.96468 0.30294 0.98687 0.0
H1034 H 0.92395 0.32764 0.98268 0.0
C1035 C 0.94803 0.27835 0.97238 0.0
C1036 C 0.9231 0.27183 0.96054 0.0
H1037 H 0.98433 0.30799 -0.00622 0.0
H1038 H 0.95536 0.26521 0.96777 0.0
C1039 C 0.91433 0.28948 0.96583 0.0
C1040 C 0.73351 0.62721 -0.00924 0.0
C1041 C 0.7243 0.6448 -0.00795 0.0
H1042 H 0.76214 0.61894 0.97058 0.0
C1043 C 0.74014 0.66998 0.97905 0.0
H1044 H 0.72191 0.60772 0.00083 0.0
C1045 C 0.76346 0.67653 0.96193 0.0
C1046 C 0.77137 0.65803 0.95748 0.0
H1047 H 0.73373 0.68408 0.97993 0.0
H1048 H 0.77445 0.69552 0.95013 0.0
C1049 C 0.75679 0.63374 0.97367 0.0
C1050 C 0.92988 0.62618 -0.01061 0.0
C1051 C 0.95686 0.64297 -0.0098 0.0
H1052 H 0.89327 0.61938 0.97006 0.0
C1053 C 0.96697 0.66837 0.97766 0.0
H1054 H 0.92143 0.60657 -0.00079 0.0
C1055 C 0.95067 0.67589 0.96124 0.0
C1056 C 0.92402 0.65812 0.95702 0.0
H1057 H 0.98765 0.68188 0.97829 0.0
H1058 H 0.9592 0.695 0.94968 0.0
C1059 C 0.91364 0.63366 0.97296 0.0
C1060 C 0.37523 0.30713 0.97961 0.0
C1061 C 0.40054 0.32335 -0.00751 0.0
H1062 H 0.34947 0.27211 0.95142 0.0
C1063 C 0.41823 0.31423 -0.00817 0.0
H1064 H 0.36105 0.31346 0.98004 0.0
C1065 C 0.41161 0.29059 0.97544 0.0
C1066 C 0.38715 0.27555 0.95933 0.0
H1067 H 0.43782 0.32612 0.00185 0.0
H1068 H 0.42646 0.28526 0.97278 0.0
C1069 C 0.36859 0.28344 0.96319 0.0
C1070 C 0.74527 0.08347 0.98705 0.0
C1071 C 0.72676 0.09143 -0.0095 0.0
H1072 H 0.78278 0.09286 0.96742 0.0
C1073 C 0.73387 0.11704 0.98149 0.0
H1074 H 0.74045 0.06393 -0.00618 0.0
C1075 C 0.75807 0.1335 0.96636 0.0
C1076 C 0.77578 0.12486 0.96067 0.0
H1077 H 0.72012 0.12382 0.9838 0.0
H1078 H 0.76224 0.15232 0.95685 0.0
C1079 C 0.7696 0.10009 0.97232 0.0
C1080 C 0.63623 0.91665 0.02533 0.0
C1081 C 0.65387 0.94242 0.01587 0.0
H1082 H 0.63099 0.88221 0.05079 0.0
C1083 C 0.68059 0.95157 0.01947 0.0
H1084 H 0.61552 0.90897 0.02291 0.0
C1085 C 0.68937 0.93597 0.03477 0.0
C1086 C 0.6716 0.91103 0.04681 0.0
H1087 H 0.69467 0.97128 0.01237 0.0
H1088 H 0.70994 0.94409 0.03971 0.0
C1089 C 0.64502 0.9012 0.04101 0.0
C1090 C 0.12436 0.72348 0.0175 0.0
C1091 C 0.0974 0.7134 0.01627 0.0
H1092 H 0.16086 0.75318 0.03748 0.0
C1093 C 0.08726 0.72874 0.02893 0.0
H1094 H 0.13284 0.71228 0.00765 0.0
C1095 C 0.10348 0.75252 0.04577 0.0
C1096 C 0.13009 0.76134 0.05029 0.0
H1097 H 0.06659 0.72163 0.02802 0.0
H1098 H 0.09491 0.76319 0.05728 0.0
C1099 C 0.14052 0.74717 0.03435 0.0
C1100 C 0.31864 0.41089 0.02683 0.0
C1101 C 0.32822 0.39426 0.01784 0.0
H1102 H 0.28816 0.4144 0.05194 0.0
C1103 C 0.31194 0.3674 0.02185 0.0
H1104 H 0.33068 0.43168 0.02408 0.0
C1105 C 0.28746 0.35759 0.03721 0.0
C1106 C 0.27888 0.37444 0.04879 0.0
H1107 H 0.31869 0.35407 0.01509 0.0
H1108 H 0.27606 0.33702 0.04251 0.0
C1109 C 0.29424 0.40106 0.04249 0.0
C1110 C 0.7975 0.7445 0.35961 0.0
C1111 C 0.7716 0.72722 0.34964 0.0
H1112 H 0.83169 0.74912 0.3857 0.0
C1113 C 0.76195 0.70044 0.35298 0.0
H1114 H 0.80556 0.76525 0.35741 0.0
C1115 C 0.77718 0.69129 0.36854 0.0
C1116 C 0.80225 0.70874 0.38107 0.0
H1117 H 0.74214 0.68663 0.34548 0.0
H1118 H 0.76868 0.67071 0.37328 0.0
C1119 C 0.8126 0.73534 0.37553 0.0
C1120 C 0.34663 0.06709 0.35499 0.0
C1121 C 0.31975 0.05032 0.35147 0.0
H1122 H 0.37693 0.10365 0.37485 0.0
C1123 C 0.30287 0.05961 0.36031 0.0
H1124 H 0.36014 0.06057 0.34829 0.0
C1125 C 0.31254 0.08426 0.37547 0.0
C1126 C 0.33924 0.10017 0.38137 0.0
H1127 H 0.28206 0.04719 0.3579 0.0
H1128 H 0.29908 0.09016 0.38493 0.0
C1129 C 0.35628 0.09183 0.36982 0.0
C1130 C 0.98636 0.25262 0.34909 0.0
C1131 C 0.99635 0.27954 0.34803 0.0
H1132 H 0.95716 0.21629 0.36934 0.0
C1133 C 0.98122 0.28971 0.36139 0.0
H1134 H 0.9974 0.24411 0.33873 0.0
C1135 C 0.95784 0.27361 0.37869 0.0
C1136 C 0.94919 0.24707 0.38301 0.0
H1137 H 0.98825 0.31034 0.36065 0.0
H1138 H 0.94739 0.28222 0.39073 0.0
C1139 C 0.96305 0.23656 0.3664 0.0
C1140 C 0.04182 0.41159 0.31064 0.0
C1141 C 0.06709 0.42118 0.32397 0.0
H1142 H 1.01579 0.42022 0.28238 0.0
C1143 C 0.08417 0.44809 0.32452 0.0
H1144 H 0.02809 0.39097 0.31023 0.0
C1145 C 0.07714 0.46481 0.30858 0.0
C1146 C 0.05287 0.45495 0.29175 0.0
H1147 H 0.10367 0.45615 0.33501 0.0
H1148 H 0.09165 0.48513 0.30668 0.0
C1149 C 0.03477 0.42834 0.29469 0.0
C1150 C 0.63149 0.6365 0.31998 0.0
C1151 C 0.6235 0.655 0.32288 0.0
H1152 H 0.62203 0.59871 0.30101 0.0
C1153 C 0.59777 0.64766 0.31372 0.0
H1154 H 0.65113 0.64149 0.32691 0.0
C1155 C 0.58119 0.62319 0.29891 0.0
C1156 C 0.58987 0.60546 0.2937 0.0
H1157 H 0.59095 0.66141 0.31564 0.0
H1158 H 0.56227 0.61881 0.28921 0.0
C1159 C 0.61477 0.61191 0.30556 0.0
C1160 C 0.40689 1.00309 0.3126 0.0
C1161 C 0.39109 0.97791 0.32562 0.0
H1162 H 0.44115 0.02867 0.28362 0.0
C1163 C 0.40034 0.96035 0.32429 0.0
H1164 H 0.40045 1.01717 0.31351 0.0
C1165 C 0.42361 0.96691 0.30714 0.0
C1166 C 0.43814 0.9912 0.29094 0.0
H1167 H 0.38878 0.94086 0.33437 0.0
H1168 H 0.42898 0.95213 0.30403 0.0
C1169 C 0.4302 1.00967 0.29543 0.0
C1170 C 0.63388 1.00181 0.31068 0.0
C1171 C 0.62381 0.97641 0.32322 0.0
H1172 H 0.62604 0.02841 0.28274 0.0
C1173 C 0.59684 0.95961 0.32246 0.0
H1174 H 0.65456 1.01534 0.31127 0.0
C1175 C 0.58055 0.96706 0.30608 0.0
C1176 C 0.5909 0.99151 0.29014 0.0
H1177 H 0.58841 0.94 0.33228 0.0
H1178 H 0.56019 0.95275 0.30322 0.0
C1179 C 0.61755 1.0093 0.29431 0.0
C1180 C 0.04183 0.6404 0.31319 0.0
C1181 C 0.06716 0.65659 0.32603 0.0
H1182 H 1.01602 0.6054 0.285 0.0
C1183 C 0.08482 0.64744 0.32532 0.0
H1184 H 0.02767 0.64675 0.31365 0.0
C1185 C 0.07816 0.6238 0.30891 0.0
C1186 C 0.05368 0.60878 0.29284 0.0
H1187 H 0.10442 0.65932 0.33532 0.0
H1188 H 0.09299 0.61845 0.30622 0.0
C1189 C 0.03516 0.61671 0.29675 0.0
C1190 C 0.41204 0.41692 0.32046 0.0
C1191 C 0.39352 0.42484 0.32391 0.0
H1192 H 0.44957 0.42634 0.30082 0.0
C1193 C 0.4006 0.45044 0.31491 0.0
H1194 H 0.40725 0.39738 0.32723 0.0
C1195 C 0.42479 0.46693 0.29978 0.0
C1196 C 0.44252 0.45832 0.29408 0.0
H1197 H 0.38683 0.45721 0.31723 0.0
H1198 H 0.42894 0.48574 0.29027 0.0
C1199 C 0.43637 0.43356 0.30572 0.0
C1200 C 0.30288 0.2499 0.35874 0.0
C1201 C 0.32055 0.27568 0.34933 0.0
H1202 H 0.29758 0.21544 0.38418 0.0
C1203 C 0.34726 0.28481 0.35301 0.0
H1204 H 0.28217 0.24224 0.35627 0.0
C1205 C 0.356 0.26917 0.36833 0.0
C1206 C 0.33819 0.24423 0.38031 0.0
H1207 H 0.36137 0.30451 0.34595 0.0
H1208 H 0.37656 0.27728 0.37332 0.0
C1209 C 0.31163 0.23442 0.37445 0.0
C1210 C 0.75405 0.06223 0.36185 0.0
C1211 C 0.76427 0.04695 0.3492 0.0
H1212 H 0.76159 0.09664 0.39022 0.0
C1213 C 0.79123 0.0571 0.35049 0.0
H1214 H 0.73338 0.05508 0.3609 0.0
C1215 C 0.80733 0.08079 0.36738 0.0
C1216 C 0.79683 0.0949 0.38329 0.0
H1217 H 0.79977 0.04594 0.34065 0.0
H1218 H 0.82767 0.08684 0.37054 0.0
C1219 C 0.77021 0.08602 0.37871 0.0
C1220 C 0.98546 0.74429 0.36049 0.0
C1221 C 0.995 0.72764 0.35143 0.0
H1222 H 0.955 0.74782 0.38564 0.0
C1223 C 0.97868 0.70078 0.35533 0.0
H1224 H 0.99753 0.76509 0.35783 0.0
C1225 C 0.95419 0.69098 0.37065 0.0
C1226 C 0.94563 0.70784 0.38231 0.0
H1227 H 0.98539 0.68744 0.34851 0.0
H1228 H 0.94275 0.6704 0.37587 0.0
C1229 C 0.96105 0.73447 0.37613 0.0
C1230 C 0.46383 0.07781 0.69323 0.0
C1231 C 0.43795 0.06048 0.68323 0.0
H1232 H 0.49806 0.08248 0.71929 0.0
C1233 C 0.42837 0.03371 0.68648 0.0
H1234 H 0.47184 0.09855 0.6911 0.0
C1235 C 0.44366 0.0246 0.70198 0.0
C1236 C 0.46871 0.04208 0.71454 0.0
H1237 H 0.40857 0.01987 0.67896 0.0
H1238 H 0.43521 1.00402 0.70664 0.0
C1239 C 0.47898 0.06868 0.70909 0.0
C1240 C 0.96983 0.39329 0.69342 0.0
C1241 C 0.98668 0.38393 0.68473 0.0
H1242 H 0.96607 0.42388 0.71796 0.0
C1243 C 1.01356 0.40062 0.68847 0.0
H1244 H 0.94902 0.38094 0.69085 0.0
C1245 C 1.02323 0.42535 0.70336 0.0
C1246 C 1.0062 0.43375 0.71474 0.0
H1247 H 0.02705 0.39405 0.68189 0.0
H1248 H 0.04386 0.4371 0.70855 0.0
C1249 C 0.97952 0.41794 0.70863 0.0
C1250 C 0.64779 0.62296 0.69455 0.0
C1251 C 0.66294 0.61281 0.68123 0.0
H1252 H 0.61393 0.61545 0.72386 0.0
C1253 C 0.65298 0.58589 0.68233 0.0
H1254 H 0.65479 0.64358 0.69378 0.0
C1255 C 0.62967 0.56982 0.69964 0.0
C1256 C 0.61578 0.58031 0.7162 0.0
H1257 H 0.66404 0.5774 0.67199 0.0
H1258 H 0.6238 0.54955 0.70261 0.0
C1259 C 0.6244 0.60684 0.71185 0.0
C1260 C 0.751 0.78156 0.65757 0.0
C1261 C 0.73387 0.75465 0.657 0.0
H1262 H 0.75862 0.81864 0.63972 0.0
C1263 C 0.70864 0.74513 0.64357 0.0
H1264 H 0.77049 0.78957 0.66813 0.0
C1265 C 0.70167 0.76194 0.62758 0.0
C1266 C 0.71984 0.78853 0.62467 0.0
H1267 H 0.69486 0.72452 0.64313 0.0
H1268 H 0.68272 0.75386 0.6152 0.0
C1269 C 0.74407 0.79832 0.64159 0.0
C1270 C 0.26421 0.98056 0.64755 0.0
C1271 C 0.28998 0.98803 0.65664 0.0
H1272 H 0.22875 0.95159 0.62308 0.0
C1273 C 0.29811 0.96964 0.65367 0.0
H1274 H 0.25729 0.99423 0.64953 0.0
C1275 C 0.28148 0.94503 0.63923 0.0
C1276 C 0.25652 0.93846 0.62744 0.0
H1277 H 0.31778 0.97473 0.66055 0.0
H1278 H 0.28884 0.93191 0.63462 0.0
C1279 C 0.24772 0.95607 0.63273 0.0
C1280 C 0.07365 0.33652 0.64589 0.0
C1281 C 0.05781 0.31134 0.65886 0.0
H1282 H 0.10796 0.36208 0.61698 0.0
C1283 C 0.06701 0.29374 0.65752 0.0
H1284 H 0.06725 0.35063 0.64681 0.0
C1285 C 0.09028 0.30028 0.64041 0.0
C1286 C 0.10487 0.32458 0.62425 0.0
H1287 H 0.05541 0.27425 0.66756 0.0
H1288 H 0.09563 0.28547 0.63728 0.0
C1289 C 0.09697 0.34308 0.62876 0.0
C1290 C 0.30052 0.33505 0.64413 0.0
C1291 C 0.29044 0.30966 0.65668 0.0
H1292 H 0.29271 0.36166 0.61616 0.0
C1293 C 0.26346 0.29286 0.6559 0.0
H1294 H 0.3212 0.34857 0.64474 0.0
C1295 C 0.24719 0.30032 0.63949 0.0
C1296 C 0.25755 0.32477 0.62354 0.0
H1297 H 0.25502 0.27325 0.66573 0.0
H1298 H 0.22683 0.28602 0.63661 0.0
C1299 C 0.28421 0.34255 0.62774 0.0
C1300 C 0.70864 0.97382 0.64605 0.0
C1301 C 0.73395 0.99008 0.65893 0.0
H1302 H 0.68293 0.9388 0.61784 0.0
C1303 C 0.75168 0.98102 0.65823 0.0
H1304 H 0.69443 0.98011 0.64651 0.0
C1305 C 0.74511 0.9574 0.64181 0.0
C1306 C 0.72065 0.94232 0.62571 0.0
H1307 H 0.77127 0.99294 0.66825 0.0
H1308 H 0.75999 0.95211 0.63913 0.0
C1309 C 0.70205 0.95016 0.62961 0.0
C1310 C 0.06733 0.78367 0.64855 0.0
C1311 C 0.06017 0.75805 0.65751 0.0
H1312 H 0.09575 0.81896 0.62397 0.0
C1313 C 0.07865 0.75006 0.65405 0.0
H1314 H 0.0536 0.79049 0.65088 0.0
C1315 C 0.10299 0.76666 0.63934 0.0
C1316 C 0.10922 0.79145 0.62774 0.0
H1317 H 0.0738 0.7305 0.66078 0.0
H1318 H 0.11615 0.75939 0.63442 0.0
C1319 C 0.09154 0.80012 0.63345 0.0
C1320 C 1.01383 0.61813 0.68653 0.0
C1321 C 0.98712 0.60902 0.68292 0.0
H1322 H 0.04314 0.61059 0.70679 0.0
C1323 C 0.96945 0.58327 0.6924 0.0
H1324 H 0.02794 0.63782 0.6794 0.0
C1325 C 0.9782 0.56779 0.70812 0.0
C1326 C 1.00476 0.57758 0.71392 0.0
H1327 H 0.94874 0.57562 0.68999 0.0
H1328 H 0.96414 0.54882 0.71792 0.0
C1329 C 1.02257 0.6025 0.70186 0.0
C1330 C 0.45785 0.39026 0.6839 0.0
C1331 C 0.43089 0.38012 0.68264 0.0
H1332 H 0.49431 0.42002 0.7039 0.0
C1333 C 0.42068 0.39541 0.69529 0.0
H1334 H 0.46638 0.3791 0.67407 0.0
C1335 C 0.43685 0.4192 0.71213 0.0
C1336 C 0.46348 0.42808 0.71667 0.0
H1337 H 0.40001 0.38826 0.69436 0.0
H1338 H 0.42824 0.42983 0.72363 0.0
C1339 C 0.47397 0.41396 0.70076 0.0
C1340 C 0.6519 0.07759 0.69345 0.0
C1341 C 0.66148 0.06096 0.68445 0.0
H1342 H 0.62142 0.08109 0.71858 0.0
C1343 C 0.64519 0.0341 0.68843 0.0
H1344 H 0.66394 0.09838 0.69073 0.0
C1345 C 0.62071 0.02428 0.70378 0.0
C1346 C 0.61212 0.04113 0.71538 0.0
H1347 H 0.65194 0.02077 0.68165 0.0
H1348 H 0.60931 1.00371 0.70906 0.0
C1349 C 0.6275 0.06775 0.70911 0.0
loop_
_geom_bond_atom_site_label_1
_geom_bond_atom_site_label_2
_geom_bond_distance
_geom_bond_site_symmetry_2
_ccdc_geom_bond_type
O0 Cd1 2.223 . S
O0 C8 1.315 . S
Cd1 O0 2.223 . S
Cd1 O4 2.297 . S
Cd1 O5 2.439 . S
Cd1 O11 2.240 1_554 S
Cd2 O3 2.240 . S
Cd2 O10 2.223 1_554 S
Cd2 O12 2.297 1_554 S
Cd2 O13 2.439 1_554 S
O3 Cd2 2.240 . S
O3 C8 1.279 1_655 S
O4 Cd1 2.297 . S
O4 C6 1.247 . S
O5 Cd1 2.439 . S
O5 C6 1.208 . S
C6 O4 1.247 . S
C6 O5 1.208 . S
C7 O12 1.247 . S
C7 O13 1.208 . S
C8 O0 1.315 . S
C8 O3 1.279 1_455 S
C9 O10 1.315 . S
C9 O11 1.279 1_655 S
O10 Cd2 2.223 1_556 S
O10 C9 1.315 . S
O11 Cd1 2.240 1_556 S
O11 C9 1.279 1_455 S
O12 Cd2 2.297 1_556 S
O12 C7 1.247 . S
O13 Cd2 2.439 1_556 S
O13 C7 1.208 . S
O14 Cd15 2.223 . S
O14 C22 1.315 . S
Cd15 O14 2.223 . S
Cd15 O18 2.297 . S
Cd15 O19 2.439 . S
Cd15 O25 2.240 1_554 S
Cd16 O17 2.240 . S
Cd16 O24 2.223 1_554 S
Cd16 O26 2.297 1_554 S
Cd16 O27 2.439 1_554 S
O17 Cd16 2.240 . S
O17 C22 1.279 . S
O18 Cd15 2.297 . S
O18 C20 1.247 . S
O19 Cd15 2.439 . S
O19 C20 1.208 . S
C20 O18 1.247 . S
C20 O19 1.208 . S
C21 O26 1.247 . S
C21 O27 1.208 . S
C22 O14 1.315 . S
C22 O17 1.279 . S
C23 O24 1.315 . S
C23 O25 1.279 . S
O24 Cd16 2.223 1_556 S
O24 C23 1.315 . S
O25 Cd15 2.240 1_556 S
O25 C23 1.279 . S
O26 Cd16 2.297 1_556 S
O26 C21 1.247 . S
O27 Cd16 2.439 1_556 S
O27 C21 1.208 . S
O28 Cd29 2.223 1_556 S
O28 C36 1.315 . S
Cd29 O28 2.223 1_554 S
Cd29 O32 2.297 1_554 S
Cd29 O33 2.439 1_554 S
Cd29 O39 2.240 . S
Cd30 O31 2.240 1_554 S
Cd30 O38 2.223 . S
Cd30 O40 2.297 . S
Cd30 O41 2.439 . S
O31 Cd30 2.240 1_556 S
O31 C36 1.279 1_565 S
O32 Cd29 2.297 1_556 S
O32 C34 1.247 . S
O33 Cd29 2.439 1_556 S
O33 C34 1.208 . S
C34 O32 1.247 . S
C34 O33 1.208 . S
C35 O40 1.247 . S
C35 O41 1.208 . S
C36 O28 1.315 . S
C36 O31 1.279 1_545 S
C37 O38 1.315 . S
C37 O39 1.279 1_565 S
O38 Cd30 2.223 . S
O38 C37 1.315 . S
O39 Cd29 2.240 . S
O39 C37 1.279 1_545 S
O40 Cd30 2.297 . S
O40 C35 1.247 . S
O41 Cd30 2.439 . S
O41 C35 1.208 . S
O42 Cd43 2.223 1_556 S
O42 C50 1.315 . S
Cd43 O42 2.223 1_554 S
Cd43 O46 2.297 1_554 S
Cd43 O47 2.439 1_554 S
Cd43 O53 2.240 . S
Cd44 O45 2.240 1_554 S
Cd44 O52 2.223 . S
Cd44 O54 2.297 . S
Cd44 O55 2.439 . S
O45 Cd44 2.240 1_556 S
O45 C50 1.279 1_455 S
O46 Cd43 2.297 1_556 S
O46 C48 1.247 . S
O47 Cd43 2.439 1_556 S
O47 C48 1.208 . S
C48 O46 1.247 . S
C48 O47 1.208 . S
C49 O54 1.247 . S
C49 O55 1.208 . S
C50 O42 1.315 . S
C50 O45 1.279 1_655 S
C51 O52 1.315 . S
C51 O53 1.279 1_455 S
O52 Cd44 2.223 . S
O52 C51 1.315 . S
O53 Cd43 2.240 . S
O53 C51 1.279 1_655 S
O54 Cd44 2.297 . S
O54 C49 1.247 . S
O55 Cd44 2.439 . S
O55 C49 1.208 . S
O56 Cd57 2.223 1_556 S
O56 C64 1.315 . S
Cd57 O56 2.223 1_554 S
Cd57 O60 2.297 1_554 S
Cd57 O61 2.439 1_554 S
Cd57 O67 2.240 . S
Cd58 O59 2.240 1_554 S
Cd58 O66 2.223 . S
Cd58 O68 2.297 . S
Cd58 O69 2.439 . S
O59 Cd58 2.240 1_556 S
O59 C64 1.279 . S
O60 Cd57 2.297 1_556 S
O60 C62 1.247 . S
O61 Cd57 2.439 1_556 S
O61 C62 1.208 . S
C62 O60 1.247 . S
C62 O61 1.208 . S
C63 O68 1.247 . S
C63 O69 1.208 . S
C64 O56 1.315 . S
C64 O59 1.279 . S
C65 O66 1.315 . S
C65 O67 1.279 . S
O66 Cd58 2.223 . S
O66 C65 1.315 . S
O67 Cd57 2.240 . S
O67 C65 1.279 . S
O68 Cd58 2.297 . S
O68 C63 1.247 . S
O69 Cd58 2.439 . S
O69 C63 1.208 . S
O70 Cd71 2.223 . S
O70 C78 1.315 . S
Cd71 O70 2.223 . S
Cd71 O74 2.297 . S
Cd71 O75 2.439 . S
Cd71 O81 2.240 1_554 S
Cd72 O73 2.240 . S
Cd72 O80 2.223 1_554 S
Cd72 O82 2.297 1_554 S
Cd72 O83 2.439 1_554 S
O73 Cd72 2.240 . S
O73 C78 1.279 1_545 S
O74 Cd71 2.297 . S
O74 C76 1.247 . S
O75 Cd71 2.439 . S
O75 C76 1.208 . S
C76 O74 1.247 . S
C76 O75 1.208 . S
C77 O82 1.247 . S
C77 O83 1.208 . S
C78 O70 1.315 . S
C78 O73 1.279 1_565 S
C79 O80 1.315 . S
C79 O81 1.279 1_545 S
O80 Cd72 2.223 1_556 S
O80 C79 1.315 . S
O81 Cd71 2.240 1_556 S
O81 C79 1.279 1_565 S
O82 Cd72 2.297 1_556 S
O82 C77 1.247 . S
O83 Cd72 2.439 1_556 S
O83 C77 1.208 . S
O84 Cd85 2.223 . S
O84 C92 1.315 . S
Cd85 O84 2.223 . S
Cd85 O88 2.297 . S
Cd85 O89 2.439 . S
Cd85 O95 2.240 . S
Cd86 O87 2.240 . S
Cd86 O94 2.223 . S
Cd86 O96 2.297 . S
Cd86 O97 2.439 . S
O87 Cd86 2.240 . S
O87 C92 1.279 . S
O88 Cd85 2.297 . S
O88 C90 1.247 . S
O89 Cd85 2.439 . S
O89 C90 1.208 . S
C90 O88 1.247 . S
C90 O89 1.208 . S
C91 O96 1.247 . S
C91 O97 1.208 . S
C92 O84 1.315 . S
C92 O87 1.279 . S
C93 O94 1.315 . S
C93 O95 1.279 . S
O94 Cd86 2.223 . S
O94 C93 1.315 . S
O95 Cd85 2.240 . S
O95 C93 1.279 . S
O96 Cd86 2.297 . S
O96 C91 1.247 . S
O97 Cd86 2.439 . S
O97 C91 1.208 . S
O98 Cd99 2.223 . S
O98 C106 1.315 . S
Cd99 O98 2.223 . S
Cd99 O102 2.297 1_565 S
Cd99 O103 2.439 1_565 S
Cd99 O109 2.240 . S
Cd100 O101 2.240 . S
Cd100 O108 2.223 . S
Cd100 O110 2.297 . S
Cd100 O111 2.439 . S
O101 Cd100 2.240 . S
O101 C106 1.279 . S
O102 Cd99 2.297 1_545 S
O102 C104 1.247 . S
O103 Cd99 2.439 1_545 S
O103 C104 1.208 . S
C104 O102 1.247 . S
C104 O103 1.208 . S
C105 O110 1.247 . S
C105 O111 1.208 . S
C106 O98 1.315 . S
C106 O101 1.279 . S
C107 O108 1.315 . S
C107 O109 1.279 . S
O108 Cd100 2.223 . S
O108 C107 1.315 . S
O109 Cd99 2.240 . S
O109 C107 1.279 . S
O110 Cd100 2.297 . S
O110 C105 1.247 . S
O111 Cd100 2.439 . S
O111 C105 1.208 . S
O112 Cd113 2.223 . S
O112 C120 1.315 . S
Cd113 O112 2.223 . S
Cd113 O116 2.297 . S
Cd113 O117 2.439 . S
Cd113 O123 2.240 . S
Cd114 O115 2.240 . S
Cd114 O122 2.223 . S
Cd114 O124 2.297 1_455 S
Cd114 O125 2.439 1_455 S
O115 Cd114 2.240 . S
O115 C120 1.279 . S
O116 Cd113 2.297 . S
O116 C118 1.247 . S
O117 Cd113 2.439 . S
O117 C118 1.208 . S
C118 O116 1.247 . S
C118 O117 1.208 . S
C119 O124 1.247 . S
C119 O125 1.208 . S
C120 O112 1.315 . S
C120 O115 1.279 . S
C121 O122 1.315 . S
C121 O123 1.279 . S
O122 Cd114 2.223 . S
O122 C121 1.315 . S
O123 Cd113 2.240 . S
O123 C121 1.279 . S
O124 Cd114 2.297 1_655 S
O124 C119 1.247 . S
O125 Cd114 2.439 1_655 S
O125 C119 1.208 . S
O126 Cd127 2.223 . S
O126 C134 1.315 . S
Cd127 O126 2.223 . S
Cd127 O130 2.297 . S
Cd127 O131 2.439 . S
Cd127 O137 2.240 . S
Cd128 O129 2.240 . S
Cd128 O136 2.223 . S
Cd128 O138 2.297 1_565 S
Cd128 O139 2.439 1_565 S
O129 Cd128 2.240 . S
O129 C134 1.279 . S
O130 Cd127 2.297 . S
O130 C132 1.247 . S
O131 Cd127 2.439 . S
O131 C132 1.208 . S
C132 O130 1.247 . S
C132 O131 1.208 . S
C133 O138 1.247 . S
C133 O139 1.208 . S
C134 O126 1.315 . S
C134 O129 1.279 . S
C135 O136 1.315 . S
C135 O137 1.279 . S
O136 Cd128 2.223 . S
O136 C135 1.315 . S
O137 Cd127 2.240 . S
O137 C135 1.279 . S
O138 Cd128 2.297 1_545 S
O138 C133 1.247 . S
O139 Cd128 2.439 1_545 S
O139 C133 1.208 . S
O140 Cd141 2.223 . S
O140 C148 1.315 . S
Cd141 O140 2.223 . S
Cd141 O144 2.297 . S
Cd141 O145 2.439 . S
Cd141 O151 2.240 . S
Cd142 O143 2.240 . S
Cd142 O150 2.223 . S
Cd142 O152 2.297 1_455 S
Cd142 O153 2.439 1_455 S
O143 Cd142 2.240 . S
O143 C148 1.279 . S
O144 Cd141 2.297 . S
O144 C146 1.247 . S
O145 Cd141 2.439 . S
O145 C146 1.208 . S
C146 O144 1.247 . S
C146 O145 1.208 . S
C147 O152 1.247 . S
C147 O153 1.208 . S
C148 O140 1.315 . S
C148 O143 1.279 . S
C149 O150 1.315 . S
C149 O151 1.279 . S
O150 Cd142 2.223 . S
O150 C149 1.315 . S
O151 Cd141 2.240 . S
O151 C149 1.279 . S
O152 Cd142 2.297 1_655 S
O152 C147 1.247 . S
O153 Cd142 2.439 1_655 S
O153 C147 1.208 . S
O154 Cd155 2.223 . S
O154 C162 1.315 . S
Cd155 O154 2.223 . S
Cd155 O158 2.297 . S
Cd155 O159 2.439 . S
Cd155 O165 2.240 . S
Cd156 O157 2.240 . S
Cd156 O164 2.223 . S
Cd156 O166 2.297 . S
Cd156 O167 2.439 . S
O157 Cd156 2.240 . S
O157 C162 1.279 . S
O158 Cd155 2.297 . S
O158 C160 1.247 . S
O159 Cd155 2.439 . S
O159 C160 1.208 . S
C160 O158 1.247 . S
C160 O159 1.208 . S
C161 O166 1.247 . S
C161 O167 1.208 . S
C162 O154 1.315 . S
C162 O157 1.279 . S
C163 O164 1.315 . S
C163 O165 1.279 . S
O164 Cd156 2.223 . S
O164 C163 1.315 . S
O165 Cd155 2.240 . S
O165 C163 1.279 . S
O166 Cd156 2.297 . S
O166 C161 1.247 . S
O167 Cd156 2.439 . S
O167 C161 1.208 . S
O168 Cd169 2.223 . S
O168 C176 1.315 . S
Cd169 O168 2.223 . S
Cd169 O172 2.297 . S
Cd169 O173 2.439 . S
Cd169 O179 2.240 . S
Cd170 O171 2.240 . S
Cd170 O178 2.223 . S
Cd170 O180 2.297 1_545 S
Cd170 O181 2.439 1_545 S
O171 Cd170 2.240 . S
O171 C176 1.279 . S
O172 Cd169 2.297 . S
O172 C174 1.247 . S
O173 Cd169 2.439 . S
O173 C174 1.208 . S
C174 O172 1.247 . S
C174 O173 1.208 . S
C175 O180 1.247 . S
C175 O181 1.208 . S
C176 O168 1.315 . S
C176 O171 1.279 . S
C177 O178 1.315 . S
C177 O179 1.279 . S
O178 Cd170 2.223 . S
O178 C177 1.315 . S
O179 Cd169 2.240 . S
O179 C177 1.279 . S
O180 Cd170 2.297 1_565 S
O180 C175 1.247 . S
O181 Cd170 2.439 1_565 S
O181 C175 1.208 . S
O182 Cd183 2.223 . S
O182 C190 1.315 . S
Cd183 O182 2.223 . S
Cd183 O186 2.297 . S
Cd183 O187 2.439 . S
Cd183 O193 2.240 . S
Cd184 O185 2.240 . S
Cd184 O192 2.223 . S
Cd184 O194 2.297 1_655 S
Cd184 O195 2.439 1_655 S
O185 Cd184 2.240 . S
O185 C190 1.279 . S
O186 Cd183 2.297 . S
O186 C188 1.247 . S
O187 Cd183 2.439 . S
O187 C188 1.208 . S
C188 O186 1.247 . S
C188 O187 1.208 . S
C189 O194 1.247 . S
C189 O195 1.208 . S
C190 O182 1.315 . S
C190 O185 1.279 . S
C191 O192 1.315 . S
C191 O193 1.279 . S
O192 Cd184 2.223 . S
O192 C191 1.315 . S
O193 Cd183 2.240 . S
O193 C191 1.279 . S
O194 Cd184 2.297 1_455 S
O194 C189 1.247 . S
O195 Cd184 2.439 1_455 S
O195 C189 1.208 . S
O196 Cd197 2.223 . S
O196 C204 1.315 . S
Cd197 O196 2.223 . S
Cd197 O200 2.297 . S
Cd197 O201 2.439 . S
Cd197 O207 2.240 . S
Cd198 O199 2.240 . S
Cd198 O206 2.223 . S
Cd198 O208 2.297 . S
Cd198 O209 2.439 . S
O199 Cd198 2.240 . S
O199 C204 1.279 . S
O200 Cd197 2.297 . S
O200 C202 1.247 . S
O201 Cd197 2.439 . S
O201 C202 1.208 . S
C202 O200 1.247 . S
C202 O201 1.208 . S
C203 O208 1.247 . S
C203 O209 1.208 . S
C204 O196 1.315 . S
C204 O199 1.279 . S
C205 O206 1.315 . S
C205 O207 1.279 . S
O206 Cd198 2.223 . S
O206 C205 1.315 . S
O207 Cd197 2.240 . S
O207 C205 1.279 . S
O208 Cd198 2.297 . S
O208 C203 1.247 . S
O209 Cd198 2.439 . S
O209 C203 1.208 . S
O210 Cd211 2.223 . S
O210 C218 1.315 . S
Cd211 O210 2.223 . S
Cd211 O214 2.297 . S
Cd211 O215 2.439 . S
Cd211 O221 2.240 . S
Cd212 O213 2.240 . S
Cd212 O220 2.223 . S
Cd212 O222 2.297 . S
Cd212 O223 2.439 . S
O213 Cd212 2.240 . S
O213 C218 1.279 . S
O214 Cd211 2.297 . S
O214 C216 1.247 . S
O215 Cd211 2.439 . S
O215 C216 1.208 . S
C216 O214 1.247 . S
C216 O215 1.208 . S
C217 O222 1.247 . S
C217 O223 1.208 . S
C218 O210 1.315 . S
C218 O213 1.279 . S
C219 O220 1.315 . S
C219 O221 1.279 . S
O220 Cd212 2.223 . S
O220 C219 1.315 . S
O221 Cd211 2.240 . S
O221 C219 1.279 . S
O222 Cd212 2.297 . S
O222 C217 1.247 . S
O223 Cd212 2.439 . S
O223 C217 1.208 . S
O224 Cd225 2.223 . S
O224 C232 1.315 . S
Cd225 O224 2.223 . S
Cd225 O228 2.297 1_545 S
Cd225 O229 2.439 1_545 S
Cd225 O235 2.240 . S
Cd226 O227 2.240 . S
Cd226 O234 2.223 . S
Cd226 O236 2.297 . S
Cd226 O237 2.439 . S
O227 Cd226 2.240 . S
O227 C232 1.279 . S
O228 Cd225 2.297 1_565 S
O228 C230 1.247 . S
O229 Cd225 2.439 1_565 S
O229 C230 1.208 . S
C230 O228 1.247 . S
C230 O229 1.208 . S
C231 O236 1.247 . S
C231 O237 1.208 . S
C232 O224 1.315 . S
C232 O227 1.279 . S
C233 O234 1.315 . S
C233 O235 1.279 . S
O234 Cd226 2.223 . S
O234 C233 1.315 . S
O235 Cd225 2.240 . S
O235 C233 1.279 . S
O236 Cd226 2.297 . S
O236 C231 1.247 . S
O237 Cd226 2.439 . S
O237 C231 1.208 . S
O238 Cd239 2.223 . S
O238 C246 1.315 . S
Cd239 O238 2.223 . S
Cd239 O242 2.297 . S
Cd239 O243 2.439 . S
Cd239 O249 2.240 . S
Cd240 O241 2.240 . S
Cd240 O248 2.223 . S
Cd240 O250 2.297 1_655 S
Cd240 O251 2.439 1_655 S
O241 Cd240 2.240 . S
O241 C246 1.279 . S
O242 Cd239 2.297 . S
O242 C244 1.247 . S
O243 Cd239 2.439 . S
O243 C244 1.208 . S
C244 O242 1.247 . S
C244 O243 1.208 . S
C245 O250 1.247 . S
C245 O251 1.208 . S
C246 O238 1.315 . S
C246 O241 1.279 . S
C247 O248 1.315 . S
C247 O249 1.279 . S
O248 Cd240 2.223 . S
O248 C247 1.315 . S
O249 Cd239 2.240 . S
O249 C247 1.279 . S
O250 Cd240 2.297 1_455 S
O250 C245 1.247 . S
O251 Cd240 2.439 1_455 S
O251 C245 1.208 . S
H252 C260 0.930 . S
H253 C263 0.930 . S
H254 C265 0.930 . S
H255 C266 0.970 . S
H256 C266 0.970 . S
H257 C268 0.930 . S
H258 C270 0.930 . S
H259 C272 0.930 . S
C260 H252 0.930 . S
C260 C261 1.382 . S
C260 C262 1.426 . S
C261 C260 1.382 . S
C261 C265 1.389 . S
C262 C260 1.426 . S
C262 C263 1.375 . S
C262 C266 1.532 . S
C263 H253 0.930 . S
C263 C262 1.375 . S
C263 C264 1.416 . S
C264 C263 1.416 . S
C264 C265 1.371 . S
C265 H254 0.930 . S
C265 C261 1.389 . S
C265 C264 1.371 . S
C266 H255 0.970 . S
C266 H256 0.970 . S
C266 C262 1.532 . S
C266 C267 1.499 . S
C267 C266 1.499 . S
C267 C268 1.370 . S
C267 C272 1.415 . S
C268 H257 0.930 . S
C268 C267 1.370 . S
C268 C269 1.407 . S
C269 C268 1.407 . S
C269 C270 1.365 . S
C270 H258 0.930 . S
C270 C269 1.365 . S
C270 C271 1.393 . S
C271 C270 1.393 . S
C271 C272 1.387 . S
C272 H259 0.930 . S
C272 C267 1.415 . S
C272 C271 1.387 . S
H273 C281 0.930 . S
H274 C284 0.930 . S
H275 C286 0.930 . S
H276 C287 0.970 . S
H277 C287 0.970 . S
H278 C289 0.930 . S
H279 C291 0.930 . S
H280 C293 0.930 . S
C281 H273 0.930 . S
C281 C282 1.382 . S
C281 C283 1.426 . S
C282 C281 1.382 . S
C282 C286 1.389 . S
C283 C281 1.426 . S
C283 C284 1.375 . S
C283 C287 1.532 . S
C284 H274 0.930 . S
C284 C283 1.375 . S
C284 C285 1.416 . S
C285 C284 1.416 . S
C285 C286 1.371 . S
C286 H275 0.930 . S
C286 C282 1.389 . S
C286 C285 1.371 . S
C287 H276 0.970 . S
C287 H277 0.970 . S
C287 C283 1.532 . S
C287 C288 1.499 . S
C288 C287 1.499 . S
C288 C289 1.370 . S
C288 C293 1.415 . S
C289 H278 0.930 . S
C289 C288 1.370 . S
C289 C290 1.407 . S
C290 C289 1.407 . S
C290 C291 1.365 . S
C291 H279 0.930 . S
C291 C290 1.365 . S
C291 C292 1.393 . S
C292 C291 1.393 . S
C292 C293 1.387 . S
C293 H280 0.930 . S
C293 C288 1.415 . S
C293 C292 1.387 . S
H294 C302 0.930 . S
H295 C305 0.930 . S
H296 C307 0.930 . S
H297 C308 0.970 . S
H298 C308 0.970 . S
H299 C310 0.930 . S
H300 C312 0.930 . S
H301 C314 0.930 . S
C302 H294 0.930 . S
C302 C303 1.382 . S
C302 C304 1.426 . S
C303 C302 1.382 . S
C303 C307 1.389 . S
C304 C302 1.426 . S
C304 C305 1.375 . S
C304 C308 1.532 . S
C305 H295 0.930 . S
C305 C304 1.375 . S
C305 C306 1.416 . S
C306 C305 1.416 . S
C306 C307 1.371 . S
C307 H296 0.930 . S
C307 C303 1.389 . S
C307 C306 1.371 . S
C308 H297 0.970 . S
C308 H298 0.970 . S
C308 C304 1.532 . S
C308 C309 1.499 . S
C309 C308 1.499 . S
C309 C310 1.370 . S
C309 C314 1.415 . S
C310 H299 0.930 . S
C310 C309 1.370 . S
C310 C311 1.407 . S
C311 C310 1.407 . S
C311 C312 1.365 . S
C312 H300 0.930 . S
C312 C311 1.365 . S
C312 C313 1.393 . S
C313 C312 1.393 . S
C313 C314 1.387 . S
C314 H301 0.930 . S
C314 C309 1.415 . S
C314 C313 1.387 . S
H315 C323 0.930 . S
H316 C326 0.930 . S
H317 C328 0.930 . S
H318 C329 0.970 . S
H319 C329 0.970 . S
H320 C331 0.930 . S
H321 C333 0.930 . S
H322 C335 0.930 . S
C323 H315 0.930 . S
C323 C324 1.382 . S
C323 C325 1.426 . S
C324 C323 1.382 . S
C324 C328 1.389 . S
C325 C323 1.426 . S
C325 C326 1.375 . S
C325 C329 1.532 . S
C326 H316 0.930 . S
C326 C325 1.375 . S
C326 C327 1.416 . S
C327 C326 1.416 . S
C327 C328 1.371 . S
C328 H317 0.930 . S
C328 C324 1.389 . S
C328 C327 1.371 . S
C329 H318 0.970 . S
C329 H319 0.970 . S
C329 C325 1.532 . S
C329 C330 1.499 . S
C330 C329 1.499 . S
C330 C331 1.370 . S
C330 C335 1.415 . S
C331 H320 0.930 . S
C331 C330 1.370 . S
C331 C332 1.407 . S
C332 C331 1.407 . S
C332 C333 1.365 . S
C333 H321 0.930 . S
C333 C332 1.365 . S
C333 C334 1.393 . S
C334 C333 1.393 . S
C334 C335 1.387 . S
C335 H322 0.930 . S
C335 C330 1.415 . S
C335 C334 1.387 . S
H336 C344 0.930 . S
H337 C347 0.930 . S
H338 C349 0.930 . S
H339 C350 0.970 . S
H340 C350 0.970 . S
H341 C352 0.930 . S
H342 C354 0.930 . S
H343 C356 0.930 . S
C344 H336 0.930 . S
C344 C345 1.382 . S
C344 C346 1.426 . S
C345 C344 1.382 . S
C345 C349 1.389 . S
C346 C344 1.426 . S
C346 C347 1.375 . S
C346 C350 1.532 . S
C347 H337 0.930 . S
C347 C346 1.375 . S
C347 C348 1.416 . S
C348 C347 1.416 . S
C348 C349 1.371 . S
C349 H338 0.930 . S
C349 C345 1.389 . S
C349 C348 1.371 . S
C350 H339 0.970 . S
C350 H340 0.970 . S
C350 C346 1.532 . S
C350 C351 1.499 . S
C351 C350 1.499 . S
C351 C352 1.370 . S
C351 C356 1.415 . S
C352 H341 0.930 . S
C352 C351 1.370 . S
C352 C353 1.407 . S
C353 C352 1.407 . S
C353 C354 1.365 . S
C354 H342 0.930 . S
C354 C353 1.365 . S
C354 C355 1.393 . S
C355 C354 1.393 . S
C355 C356 1.387 . S
C356 H343 0.930 . S
C356 C351 1.415 . S
C356 C355 1.387 . S
H357 C365 0.930 . S
H358 C368 0.930 . S
H359 C370 0.930 . S
H360 C371 0.970 . S
H361 C371 0.970 . S
H362 C373 0.930 . S
H363 C375 0.930 . S
H364 C377 0.930 . S
C365 H357 0.930 . S
C365 C366 1.382 . S
C365 C367 1.426 . S
C366 C365 1.382 . S
C366 C370 1.389 . S
C367 C365 1.426 . S
C367 C368 1.375 . S
C367 C371 1.532 . S
C368 H358 0.930 . S
C368 C367 1.375 . S
C368 C369 1.416 . S
C369 C368 1.416 . S
C369 C370 1.371 . S
C370 H359 0.930 . S
C370 C366 1.389 . S
C370 C369 1.371 . S
C371 H360 0.970 . S
C371 H361 0.970 . S
C371 C367 1.532 . S
C371 C372 1.499 . S
C372 C371 1.499 . S
C372 C373 1.370 . S
C372 C377 1.415 . S
C373 H362 0.930 . S
C373 C372 1.370 . S
C373 C374 1.407 . S
C374 C373 1.407 . S
C374 C375 1.365 . S
C375 H363 0.930 . S
C375 C374 1.365 . S
C375 C376 1.393 . S
C376 C375 1.393 . S
C376 C377 1.387 . S
C377 H364 0.930 . S
C377 C372 1.415 . S
C377 C376 1.387 . S
H378 C386 0.930 . S
H379 C389 0.930 . S
H380 C391 0.930 . S
H381 C392 0.970 . S
H382 C392 0.970 . S
H383 C394 0.930 . S
H384 C396 0.930 . S
H385 C398 0.930 . S
C386 H378 0.930 . S
C386 C387 1.382 . S
C386 C388 1.426 . S
C387 C386 1.382 . S
C387 C391 1.389 . S
C388 C386 1.426 . S
C388 C389 1.375 . S
C388 C392 1.532 . S
C389 H379 0.930 . S
C389 C388 1.375 . S
C389 C390 1.416 . S
C390 C389 1.416 . S
C390 C391 1.371 . S
C391 H380 0.930 . S
C391 C387 1.389 . S
C391 C390 1.371 . S
C392 H381 0.970 . S
C392 H382 0.970 . S
C392 C388 1.532 . S
C392 C393 1.499 . S
C393 C392 1.499 . S
C393 C394 1.370 . S
C393 C398 1.415 . S
C394 H383 0.930 . S
C394 C393 1.370 . S
C394 C395 1.407 . S
C395 C394 1.407 . S
C395 C396 1.365 . S
C396 H384 0.930 . S
C396 C395 1.365 . S
C396 C397 1.393 . S
C397 C396 1.393 . S
C397 C398 1.387 . S
C398 H385 0.930 . S
C398 C393 1.415 . S
C398 C397 1.387 . S
H399 C407 0.930 . S
H400 C410 0.930 . S
H401 C412 0.930 . S
H402 C413 0.970 . S
H403 C413 0.970 . S
H404 C415 0.930 . S
H405 C417 0.930 . S
H406 C419 0.930 . S
C407 H399 0.930 . S
C407 C408 1.382 . S
C407 C409 1.426 . S
C408 C407 1.382 . S
C408 C412 1.389 . S
C409 C407 1.426 . S
C409 C410 1.375 . S
C409 C413 1.532 . S
C410 H400 0.930 . S
C410 C409 1.375 . S
C410 C411 1.416 . S
C411 C410 1.416 . S
C411 C412 1.371 . S
C412 H401 0.930 . S
C412 C408 1.389 . S
C412 C411 1.371 . S
C413 H402 0.970 . S
C413 H403 0.970 . S
C413 C409 1.532 . S
C413 C414 1.499 . S
C414 C413 1.499 . S
C414 C415 1.370 . S
C414 C419 1.415 . S
C415 H404 0.930 . S
C415 C414 1.370 . S
C415 C416 1.407 . S
C416 C415 1.407 . S
C416 C417 1.365 . S
C417 H405 0.930 . S
C417 C416 1.365 . S
C417 C418 1.393 . S
C418 C417 1.393 . S
C418 C419 1.387 . S
C419 H406 0.930 . S
C419 C414 1.415 . S
C419 C418 1.387 . S
H420 C428 0.930 . S
H421 C431 0.930 . S
H422 C433 0.930 . S
H423 C434 0.970 . S
H424 C434 0.970 . S
H425 C436 0.930 . S
H426 C438 0.930 . S
H427 C440 0.930 . S
C428 H420 0.930 . S
C428 C429 1.382 . S
C428 C430 1.426 . S
C429 C428 1.382 . S
C429 C433 1.389 . S
C430 C428 1.426 . S
C430 C431 1.375 . S
C430 C434 1.532 . S
C431 H421 0.930 . S
C431 C430 1.375 . S
C431 C432 1.416 . S
C432 C431 1.416 . S
C432 C433 1.371 . S
C433 H422 0.930 . S
C433 C429 1.389 . S
C433 C432 1.371 . S
C434 H423 0.970 . S
C434 H424 0.970 . S
C434 C430 1.532 . S
C434 C435 1.499 . S
C435 C434 1.499 . S
C435 C436 1.370 . S
C435 C440 1.415 . S
C436 H425 0.930 . S
C436 C435 1.370 . S
C436 C437 1.407 . S
C437 C436 1.407 . S
C437 C438 1.365 . S
C438 H426 0.930 . S
C438 C437 1.365 . S
C438 C439 1.393 . S
C439 C438 1.393 . S
C439 C440 1.387 . S
C440 H427 0.930 . S
C440 C435 1.415 . S
C440 C439 1.387 . S
H441 C449 0.930 . S
H442 C452 0.930 . S
H443 C454 0.927 1_655 S
H444 C455 0.970 . S
H445 C455 0.970 . S
H446 C457 0.930 . S
H447 C459 0.930 . S
H448 C461 0.930 . S
C449 H441 0.930 . S
C449 C450 1.382 . S
C449 C451 1.426 . S
C450 C449 1.382 . S
C450 C454 1.390 . S
C451 C449 1.426 . S
C451 C452 1.375 . S
C451 C455 1.532 . S
C452 H442 0.930 . S
C452 C451 1.375 . S
C452 C453 1.416 . S
C453 C452 1.416 . S
C453 C454 1.373 . S
C454 H443 0.927 1_455 S
C454 C450 1.390 . S
C454 C453 1.373 . S
C455 H444 0.970 . S
C455 H445 0.970 . S
C455 C451 1.532 . S
C455 C456 1.499 . S
C456 C455 1.499 . S
C456 C457 1.370 . S
C456 C461 1.415 . S
C457 H446 0.930 . S
C457 C456 1.370 . S
C457 C458 1.407 . S
C458 C457 1.407 . S
C458 C459 1.365 1_455 S
C459 H447 0.930 . S
C459 C458 1.365 1_655 S
C459 C460 1.393 1_655 S
C460 C459 1.393 1_455 S
C460 C461 1.387 . S
C461 H448 0.930 . S
C461 C456 1.415 . S
C461 C460 1.387 . S
H462 C470 0.930 . S
H463 C473 0.930 . S
H464 C475 0.930 . S
H465 C476 0.970 . S
H466 C476 0.970 . S
H467 C478 0.930 . S
H468 C480 0.930 . S
H469 C482 0.930 . S
C470 H462 0.930 . S
C470 C471 1.382 . S
C470 C472 1.426 . S
C471 C470 1.382 . S
C471 C475 1.389 . S
C472 C470 1.426 . S
C472 C473 1.375 . S
C472 C476 1.532 . S
C473 H463 0.930 . S
C473 C472 1.375 . S
C473 C474 1.416 . S
C474 C473 1.416 . S
C474 C475 1.371 . S
C475 H464 0.930 . S
C475 C471 1.389 . S
C475 C474 1.371 . S
C476 H465 0.970 . S
C476 H466 0.970 . S
C476 C472 1.532 . S
C476 C477 1.499 . S
C477 C476 1.499 . S
C477 C478 1.370 . S
C477 C482 1.415 . S
C478 H467 0.930 . S
C478 C477 1.370 . S
C478 C479 1.407 . S
C479 C478 1.407 . S
C479 C480 1.365 . S
C480 H468 0.930 . S
C480 C479 1.365 . S
C480 C481 1.393 . S
C481 C480 1.393 . S
C481 C482 1.387 . S
C482 H469 0.930 . S
C482 C477 1.415 . S
C482 C481 1.387 . S
H483 C491 0.930 . S
H484 C494 0.930 . S
H485 C496 0.930 . S
H486 C497 0.970 . S
H487 C497 0.970 . S
H488 C499 0.930 . S
H489 C501 0.930 . S
H490 C503 0.930 . S
C491 H483 0.930 . S
C491 C492 1.382 . S
C491 C493 1.426 . S
C492 C491 1.382 . S
C492 C496 1.389 1_565 S
C493 C491 1.426 . S
C493 C494 1.375 . S
C493 C497 1.532 . S
C494 H484 0.930 . S
C494 C493 1.375 . S
C494 C495 1.416 . S
C495 C494 1.416 . S
C495 C496 1.371 1_565 S
C496 H485 0.930 . S
C496 C492 1.389 1_545 S
C496 C495 1.371 1_545 S
C497 H486 0.970 . S
C497 H487 0.970 . S
C497 C493 1.532 . S
C497 C498 1.499 . S
C498 C497 1.499 . S
C498 C499 1.370 . S
C498 C503 1.415 . S
C499 H488 0.930 . S
C499 C498 1.370 . S
C499 C500 1.442 . S
C500 C499 1.442 . S
C500 C501 1.351 1_565 S
C501 H489 0.930 . S
C501 C500 1.351 1_545 S
C501 C502 1.393 1_545 S
C502 C501 1.393 1_565 S
C502 C503 1.387 . S
C503 H490 0.930 . S
C503 C498 1.415 . S
C503 C502 1.387 . S
H504 C512 0.930 . S
H505 C515 0.930 . S
H506 C517 0.930 . S
H507 C518 0.970 . S
H508 C518 0.970 . S
H509 C520 0.930 . S
H510 C522 0.930 . S
H511 C524 0.930 . S
C512 H504 0.930 . S
C512 C513 1.382 . S
C512 C514 1.426 . S
C513 C512 1.382 . S
C513 C517 1.389 1_565 S
C514 C512 1.426 . S
C514 C515 1.375 . S
C514 C518 1.532 . S
C515 H505 0.930 . S
C515 C514 1.375 . S
C515 C516 1.389 1_565 S
C516 C515 1.389 1_545 S
C516 C517 1.382 . S
C517 H506 0.930 . S
C517 C513 1.389 1_545 S
C517 C516 1.382 . S
C518 H507 0.970 . S
C518 H508 0.970 . S
C518 C514 1.532 . S
C518 C519 1.499 . S
C519 C518 1.499 . S
C519 C520 1.370 . S
C519 C524 1.415 . S
C520 H509 0.930 . S
C520 C519 1.370 . S
C520 C521 1.407 . S
C521 C520 1.407 . S
C521 C522 1.365 1_565 S
C522 H510 0.930 . S
C522 C521 1.365 1_545 S
C522 C523 1.393 1_545 S
C523 C522 1.393 1_565 S
C523 C524 1.387 . S
C524 H511 0.930 . S
C524 C519 1.415 . S
C524 C523 1.387 . S
H525 C533 0.930 . S
H526 C536 0.930 . S
H527 C538 0.930 . S
H528 C539 0.970 . S
H529 C539 0.970 . S
H530 C541 0.930 . S
H531 C543 0.930 . S
H532 C545 0.930 . S
C533 H525 0.930 . S
C533 C534 1.382 . S
C533 C535 1.426 . S
C534 C533 1.382 . S
C534 C538 1.389 1_455 S
C535 C533 1.426 . S
C535 C536 1.375 . S
C535 C539 1.532 . S
C536 H526 0.930 . S
C536 C535 1.375 . S
C536 C537 1.416 . S
C537 C536 1.416 . S
C537 C538 1.371 1_455 S
C538 H527 0.930 . S
C538 C534 1.389 1_655 S
C538 C537 1.371 1_655 S
C539 H528 0.970 . S
C539 H529 0.970 . S
C539 C535 1.532 . S
C539 C540 1.499 . S
C540 C539 1.499 . S
C540 C541 1.370 . S
C540 C545 1.415 . S
C541 H530 0.930 . S
C541 C540 1.370 . S
C541 C542 1.407 . S
C542 C541 1.407 . S
C542 C543 1.365 1_455 S
C543 H531 0.930 . S
C543 C542 1.365 1_655 S
C543 C544 1.393 1_655 S
C544 C543 1.393 1_455 S
C544 C545 1.387 . S
C545 H532 0.930 . S
C545 C540 1.415 . S
C545 C544 1.387 . S
H546 C554 0.930 . S
H547 C557 0.930 . S
H548 C559 0.930 . S
H549 C560 0.970 . S
H550 C560 0.970 . S
H551 C562 0.930 . S
H552 C564 0.930 . S
H553 C566 0.930 . S
C554 H546 0.930 . S
C554 C555 1.382 . S
C554 C556 1.426 . S
C555 C554 1.382 . S
C555 C559 1.389 . S
C556 C554 1.426 . S
C556 C557 1.375 . S
C556 C560 1.532 . S
C557 H547 0.930 . S
C557 C556 1.375 . S
C557 C558 1.416 . S
C558 C557 1.416 . S
C558 C559 1.371 . S
C559 H548 0.930 . S
C559 C555 1.389 . S
C559 C558 1.371 . S
C560 H549 0.970 . S
C560 H550 0.970 . S
C560 C556 1.532 . S
C560 C561 1.499 . S
C561 C560 1.499 . S
C561 C562 1.370 . S
C561 C566 1.415 . S
C562 H551 0.930 . S
C562 C561 1.370 . S
C562 C563 1.407 . S
C563 C562 1.407 . S
C563 C564 1.365 . S
C564 H552 0.930 . S
C564 C563 1.365 . S
C564 C565 1.393 . S
C565 C564 1.393 . S
C565 C566 1.387 . S
C566 H553 0.930 . S
C566 C561 1.415 . S
C566 C565 1.387 . S
H567 C575 0.930 . S
H568 C578 0.930 . S
H569 C580 0.930 . S
H570 C581 0.970 . S
H571 C581 0.970 . S
H572 C583 0.930 . S
H573 C585 0.930 . S
H574 C587 0.930 . S
C575 H567 0.930 . S
C575 C576 1.382 . S
C575 C577 1.426 . S
C576 C575 1.382 . S
C576 C580 1.389 . S
C577 C575 1.426 . S
C577 C578 1.375 . S
C577 C581 1.532 . S
C578 H568 0.930 . S
C578 C577 1.375 . S
C578 C579 1.416 . S
C579 C578 1.416 . S
C579 C580 1.371 . S
C580 H569 0.930 . S
C580 C576 1.389 . S
C580 C579 1.371 . S
C581 H570 0.970 . S
C581 H571 0.970 . S
C581 C577 1.532 . S
C581 C582 1.499 . S
C582 C581 1.499 . S
C582 C583 1.370 . S
C582 C587 1.415 . S
C583 H572 0.930 . S
C583 C582 1.370 . S
C583 C584 1.407 . S
C584 C583 1.407 . S
C584 C585 1.365 . S
C585 H573 0.930 . S
C585 C584 1.365 . S
C585 C586 1.393 . S
C586 C585 1.393 . S
C586 C587 1.387 . S
C587 H574 0.930 . S
C587 C582 1.415 . S
C587 C586 1.387 . S
H588 C596 0.930 . S
H589 C599 0.930 . S
H590 C601 0.930 . S
H591 C602 0.970 . S
H592 C602 0.970 . S
H593 C604 0.930 . S
H594 C606 0.930 . S
H595 C608 0.930 . S
C596 H588 0.930 . S
C596 C597 1.382 . S
C596 C598 1.426 . S
C597 C596 1.382 . S
C597 C601 1.389 . S
C598 C596 1.426 . S
C598 C599 1.375 . S
C598 C602 1.532 . S
C599 H589 0.930 . S
C599 C598 1.375 . S
C599 C600 1.416 . S
C600 C599 1.416 . S
C600 C601 1.371 . S
C601 H590 0.930 . S
C601 C597 1.389 . S
C601 C600 1.371 . S
C602 H591 0.970 . S
C602 H592 0.970 . S
C602 C598 1.532 . S
C602 C603 1.499 . S
C603 C602 1.499 . S
C603 C604 1.370 . S
C603 C608 1.415 . S
C604 H593 0.930 . S
C604 C603 1.370 . S
C604 C605 1.407 . S
C605 C604 1.407 . S
C605 C606 1.365 . S
C606 H594 0.930 . S
C606 C605 1.365 . S
C606 C607 1.393 . S
C607 C606 1.393 . S
C607 C608 1.387 . S
C608 H595 0.930 . S
C608 C603 1.415 . S
C608 C607 1.387 . S
H609 C617 0.930 . S
H610 C620 0.930 . S
H611 C622 0.930 . S
H612 C623 0.970 . S
H613 C623 0.970 . S
H614 C625 0.930 . S
H615 C627 0.930 . S
H616 C629 0.930 . S
C617 H609 0.930 . S
C617 C618 1.382 . S
C617 C619 1.426 . S
C618 C617 1.382 . S
C618 C622 1.389 . S
C619 C617 1.426 . S
C619 C620 1.375 . S
C619 C623 1.532 . S
C620 H610 0.930 . S
C620 C619 1.375 . S
C620 C621 1.416 . S
C621 C620 1.416 . S
C621 C622 1.371 . S
C622 H611 0.930 . S
C622 C618 1.389 . S
C622 C621 1.371 . S
C623 H612 0.970 . S
C623 H613 0.970 . S
C623 C619 1.532 . S
C623 C624 1.499 . S
C624 C623 1.499 . S
C624 C625 1.370 . S
C624 C629 1.415 . S
C625 H614 0.930 . S
C625 C624 1.370 . S
C625 C626 1.407 . S
C626 C625 1.407 . S
C626 C627 1.365 . S
C627 H615 0.930 . S
C627 C626 1.365 . S
C627 C628 1.393 . S
C628 C627 1.393 . S
C628 C629 1.387 . S
C629 H616 0.930 . S
C629 C624 1.415 . S
C629 C628 1.387 . S
C630 C631 1.387 1_655 S
C630 H634 0.950 . S
C630 C639 1.390 . S
C631 C630 1.387 1_455 S
C631 C633 1.387 . S
H632 C639 0.950 . S
C633 C631 1.387 . S
C633 C635 1.390 . S
C633 H637 0.950 . S
H634 C630 0.950 . S
C635 C633 1.390 . S
C635 C636 1.387 1_455 S
C635 H638 0.950 . S
C636 C635 1.387 1_655 S
C636 C639 1.387 . S
H637 C633 0.950 . S
H638 C635 0.950 . S
C639 C630 1.390 . S
C639 H632 0.950 . S
C639 C636 1.387 . S
C640 C641 1.387 . S
C640 H644 0.950 . S
C640 C649 1.390 . S
C641 C640 1.387 . S
C641 C643 1.387 . S
H642 C649 0.950 . S
C643 C641 1.387 . S
C643 C645 1.390 . S
C643 H647 0.950 . S
H644 C640 0.950 . S
C645 C643 1.390 . S
C645 C646 1.387 . S
C645 H648 0.950 . S
C646 C645 1.387 . S
C646 C649 1.387 . S
H647 C643 0.950 . S
H648 C645 0.950 . S
C649 C640 1.390 . S
C649 H642 0.950 . S
C649 C646 1.387 . S
C650 C651 1.406 . S
C650 H654 0.950 . S
C650 C659 1.390 . S
C651 C650 1.406 . S
C651 C653 1.358 1_545 S
H652 C659 0.950 . S
C653 C651 1.358 1_565 S
C653 C655 1.390 . S
C653 H657 0.950 . S
H654 C650 0.950 . S
C655 C653 1.390 . S
C655 C656 1.387 1_565 S
C655 H658 0.950 . S
C656 C655 1.387 1_545 S
C656 C659 1.387 . S
H657 C653 0.950 . S
H658 C655 0.950 . S
C659 C650 1.390 . S
C659 H652 0.950 . S
C659 C656 1.387 . S
C660 C661 1.387 1_565 S
C660 H664 0.950 . S
C660 C669 1.390 . S
C661 C660 1.387 1_545 S
C661 C663 1.387 . S
H662 C669 0.950 . S
C663 C661 1.387 . S
C663 C665 1.390 . S
C663 H667 0.950 . S
H664 C660 0.950 . S
C665 C663 1.390 . S
C665 C666 1.387 1_545 S
C665 H668 0.950 . S
C666 C665 1.387 1_565 S
C666 C669 1.387 . S
H667 C663 0.950 . S
H668 C665 0.950 . S
C669 C660 1.390 . S
C669 H662 0.950 . S
C669 C666 1.387 . S
C670 C671 1.372 1_655 S
C670 H674 0.950 . S
C670 C679 1.390 . S
C671 C670 1.372 1_455 S
C671 C673 1.395 . S
H672 C679 0.950 . S
C673 C671 1.395 . S
C673 C675 1.390 . S
C673 H677 0.950 . S
H674 C670 0.950 . S
C675 C673 1.390 . S
C675 C676 1.387 . S
C675 H678 0.950 . S
C676 C675 1.387 . S
C676 C679 1.387 1_455 S
H677 C673 0.950 . S
H678 C675 0.950 . S
C679 C670 1.390 . S
C679 H672 0.950 . S
C679 C676 1.387 1_655 S
C680 C681 1.387 . S
C680 H684 0.950 . S
C680 C689 1.390 . S
C681 C680 1.387 . S
C681 C683 1.387 . S
H682 C689 0.950 . S
C683 C681 1.387 . S
C683 C685 1.390 . S
C683 H687 0.950 . S
H684 C680 0.950 . S
C685 C683 1.390 . S
C685 C686 1.387 . S
C685 H688 0.950 . S
C686 C685 1.387 . S
C686 C689 1.387 . S
H687 C683 0.950 . S
H688 C685 0.950 . S
C689 C680 1.390 . S
C689 H682 0.950 . S
C689 C686 1.387 . S
C690 C691 1.372 1_455 S
C690 H694 0.950 . S
C690 C699 1.390 . S
C691 C690 1.372 1_655 S
C691 C693 1.396 . S
H692 C699 0.950 . S
C693 C691 1.396 . S
C693 C695 1.390 . S
C693 H697 0.950 . S
H694 C690 0.950 . S
C695 C693 1.390 . S
C695 C696 1.362 1_655 S
C695 H698 0.950 . S
C696 C695 1.362 1_455 S
C696 C699 1.401 . S
H697 C693 0.950 . S
H698 C695 0.950 . S
C699 C690 1.390 . S
C699 H692 0.950 . S
C699 C696 1.401 . S
C700 C701 1.387 . S
C700 H704 0.950 . S
C700 C709 1.390 . S
C701 C700 1.387 . S
C701 C703 1.387 . S
H702 C709 0.950 . S
C703 C701 1.387 . S
C703 C705 1.390 . S
C703 H707 0.950 . S
H704 C700 0.950 . S
C705 C703 1.390 . S
C705 C706 1.387 . S
C705 H708 0.950 . S
C706 C705 1.387 . S
C706 C709 1.387 . S
H707 C703 0.950 . S
H708 C705 0.950 . S
C709 C700 1.390 . S
C709 H702 0.950 . S
C709 C706 1.387 . S
C710 C711 1.387 1_565 S
C710 H714 0.950 . S
C710 C719 1.390 . S
C711 C710 1.387 1_545 S
C711 C713 1.387 . S
H712 C719 0.950 . S
C713 C711 1.387 . S
C713 C715 1.390 . S
C713 H717 0.950 . S
H714 C710 0.950 . S
C715 C713 1.390 . S
C715 C716 1.387 . S
C715 H718 0.950 . S
C716 C715 1.387 . S
C716 C719 1.387 1_545 S
H717 C713 0.950 . S
H718 C715 0.950 . S
C719 C710 1.390 . S
C719 H712 0.950 . S
C719 C716 1.387 1_565 S
C720 C721 1.386 . S
C720 H724 0.950 . S
C720 C729 1.390 . S
C721 C720 1.386 . S
C721 C723 1.390 1_565 S
H722 C729 0.950 . S
C723 C721 1.390 1_545 S
C723 C725 1.390 . S
C723 H727 0.950 . S
H724 C720 0.950 . S
C725 C723 1.390 . S
C725 C726 1.407 . S
C725 H728 0.950 . S
C726 C725 1.407 . S
C726 C729 1.356 1_545 S
H727 C723 0.950 . S
H728 C725 0.950 . S
C729 C720 1.390 . S
C729 H722 0.950 . S
C729 C726 1.356 1_565 S
C730 C731 1.387 . S
C730 H734 0.950 . S
C730 C739 1.390 . S
C731 C730 1.387 . S
C731 C733 1.387 1_455 S
H732 C739 0.950 . S
C733 C731 1.387 1_655 S
C733 C735 1.390 . S
C733 H737 0.950 . S
H734 C730 0.950 . S
C735 C733 1.390 . S
C735 C736 1.387 1_655 S
C735 H738 0.950 . S
C736 C735 1.387 1_455 S
C736 C739 1.387 . S
H737 C733 0.950 . S
H738 C735 0.950 . S
C739 C730 1.390 . S
C739 H732 0.950 . S
C739 C736 1.387 . S
C740 C741 1.387 . S
C740 H744 0.950 . S
C740 C749 1.390 . S
C741 C740 1.387 . S
C741 C743 1.387 . S
H742 C749 0.950 . S
C743 C741 1.387 . S
C743 C745 1.390 . S
C743 H747 0.950 . S
H744 C740 0.950 . S
C745 C743 1.390 . S
C745 C746 1.387 . S
C745 H748 0.950 . S
C746 C745 1.387 . S
C746 C749 1.387 . S
H747 C743 0.950 . S
H748 C745 0.950 . S
C749 C740 1.390 . S
C749 H742 0.950 . S
C749 C746 1.387 . S
C750 C751 1.387 . S
C750 H754 0.950 . S
C750 C759 1.390 . S
C751 C750 1.387 . S
C751 C753 1.387 . S
H752 C759 0.950 . S
C753 C751 1.387 . S
C753 C755 1.390 . S
C753 H757 0.950 . S
H754 C750 0.950 . S
C755 C753 1.390 . S
C755 C756 1.387 . S
C755 H758 0.950 . S
C756 C755 1.387 . S
C756 C759 1.387 . S
H757 C753 0.950 . S
H758 C755 0.950 . S
C759 C750 1.390 . S
C759 H752 0.950 . S
C759 C756 1.387 . S
C760 C761 1.387 . S
C760 H764 0.950 . S
C760 C769 1.390 . S
C761 C760 1.387 . S
C761 C763 1.387 . S
H762 C769 0.950 . S
C763 C761 1.387 . S
C763 C765 1.390 . S
C763 H767 0.950 . S
H764 C760 0.950 . S
C765 C763 1.390 . S
C765 C766 1.387 . S
C765 H768 0.950 . S
C766 C765 1.387 . S
C766 C769 1.387 . S
H767 C763 0.950 . S
H768 C765 0.950 . S
C769 C760 1.390 . S
C769 H762 0.950 . S
C769 C766 1.387 . S
C770 C771 1.387 . S
C770 H774 0.950 . S
C770 C779 1.390 . S
C771 C770 1.387 . S
C771 C773 1.387 . S
H772 C779 0.950 . S
C773 C771 1.387 . S
C773 C775 1.390 . S
C773 H777 0.950 . S
H774 C770 0.950 . S
C775 C773 1.390 . S
C775 C776 1.387 . S
C775 H778 0.950 . S
C776 C775 1.387 . S
C776 C779 1.387 . S
H777 C773 0.950 . S
H778 C775 0.950 . S
C779 C770 1.390 . S
C779 H772 0.950 . S
C779 C776 1.387 . S
C780 C781 1.387 . S
C780 H784 0.950 . S
C780 C789 1.390 . S
C781 C780 1.387 . S
C781 C783 1.387 . S
H782 C789 0.950 . S
C783 C781 1.387 . S
C783 C785 1.390 . S
C783 H787 0.950 . S
H784 C780 0.950 . S
C785 C783 1.390 . S
C785 C786 1.387 . S
C785 H788 0.950 . S
C786 C785 1.387 . S
C786 C789 1.387 . S
H787 C783 0.950 . S
H788 C785 0.950 . S
C789 C780 1.390 . S
C789 H782 0.950 . S
C789 C786 1.387 . S
C790 C791 1.387 . S
C790 H794 0.950 . S
C790 C799 1.390 . S
C791 C790 1.387 . S
C791 C793 1.387 . S
H792 C799 0.950 . S
C793 C791 1.387 . S
C793 C795 1.390 . S
C793 H797 0.950 . S
H794 C790 0.950 . S
C795 C793 1.390 . S
C795 C796 1.387 . S
C795 H798 0.950 . S
C796 C795 1.387 . S
C796 C799 1.387 . S
H797 C793 0.950 . S
H798 C795 0.950 . S
C799 C790 1.390 . S
C799 H792 0.950 . S
C799 C796 1.387 . S
C800 C801 1.387 . S
C800 H804 0.950 . S
C800 C809 1.390 . S
C801 C800 1.387 . S
C801 C803 1.387 . S
H802 C809 0.950 . S
C803 C801 1.387 . S
C803 C805 1.390 . S
C803 H807 0.950 . S
H804 C800 0.950 . S
C805 C803 1.390 . S
C805 C806 1.387 . S
C805 H808 0.950 . S
C806 C805 1.387 . S
C806 C809 1.387 . S
H807 C803 0.950 . S
H808 C805 0.950 . S
C809 C800 1.390 . S
C809 H802 0.950 . S
C809 C806 1.387 . S
C810 C811 1.387 . S
C810 H814 0.950 . S
C810 C819 1.390 . S
C811 C810 1.387 . S
C811 C813 1.387 . S
H812 C819 0.950 . S
C813 C811 1.387 . S
C813 C815 1.390 . S
C813 H817 0.950 . S
H814 C810 0.950 . S
C815 C813 1.390 . S
C815 C816 1.387 . S
C815 H818 0.950 . S
C816 C815 1.387 . S
C816 C819 1.387 . S
H817 C813 0.950 . S
H818 C815 0.950 . S
C819 C810 1.390 . S
C819 H812 0.950 . S
C819 C816 1.387 . S
C820 C821 1.387 . S
C820 H824 0.950 . S
C820 C829 1.390 . S
C821 C820 1.387 . S
C821 C823 1.387 . S
H822 C829 0.950 . S
C823 C821 1.387 . S
C823 C825 1.390 . S
C823 H827 0.950 . S
H824 C820 0.950 . S
C825 C823 1.390 . S
C825 C826 1.387 . S
C825 H828 0.950 . S
C826 C825 1.387 . S
C826 C829 1.387 . S
H827 C823 0.950 . S
H828 C825 0.950 . S
C829 C820 1.390 . S
C829 H822 0.950 . S
C829 C826 1.387 . S
C830 C831 1.387 . S
C830 H834 0.950 . S
C830 C839 1.390 . S
C831 C830 1.387 . S
C831 C833 1.387 . S
H832 C839 0.950 . S
C833 C831 1.387 . S
C833 C835 1.390 . S
C833 H837 0.950 . S
H834 C830 0.950 . S
C835 C833 1.390 . S
C835 C836 1.387 . S
C835 H838 0.950 . S
C836 C835 1.387 . S
C836 C839 1.387 . S
H837 C833 0.950 . S
H838 C835 0.950 . S
C839 C830 1.390 . S
C839 H832 0.950 . S
C839 C836 1.387 . S
C840 C841 1.387 . S
C840 H844 0.950 . S
C840 C849 1.390 . S
C841 C840 1.387 . S
C841 C843 1.387 . S
H842 C849 0.950 . S
C843 C841 1.387 . S
C843 C845 1.390 . S
C843 H847 0.950 . S
H844 C840 0.950 . S
C845 C843 1.390 . S
C845 C846 1.387 . S
C845 H848 0.950 . S
C846 C845 1.387 . S
C846 C849 1.387 . S
H847 C843 0.950 . S
H848 C845 0.950 . S
C849 C840 1.390 . S
C849 H842 0.950 . S
C849 C846 1.387 . S
C850 C851 1.387 . S
C850 H854 0.950 . S
C850 C859 1.390 . S
C851 C850 1.387 . S
C851 C853 1.387 . S
H852 C859 0.950 . S
C853 C851 1.387 . S
C853 C855 1.390 . S
C853 H857 0.950 . S
H854 C850 0.950 . S
C855 C853 1.390 . S
C855 C856 1.387 . S
C855 H858 0.950 . S
C856 C855 1.387 . S
C856 C859 1.387 . S
H857 C853 0.950 . S
H858 C855 0.950 . S
C859 C850 1.390 . S
C859 H852 0.950 . S
C859 C856 1.387 . S
C860 C861 1.387 . S
C860 H864 0.950 . S
C860 C869 1.390 . S
C861 C860 1.387 . S
C861 C863 1.387 . S
H862 C869 0.950 . S
C863 C861 1.387 . S
C863 C865 1.390 . S
C863 H867 0.950 . S
H864 C860 0.950 . S
C865 C863 1.390 . S
C865 C866 1.387 . S
C865 H868 0.950 . S
C866 C865 1.387 . S
C866 C869 1.387 . S
H867 C863 0.950 . S
H868 C865 0.950 . S
C869 C860 1.390 . S
C869 H862 0.950 . S
C869 C866 1.387 . S
C870 C871 1.387 . S
C870 H874 0.950 . S
C870 C879 1.390 . S
C871 C870 1.387 . S
C871 C873 1.387 . S
H872 C879 0.950 . S
C873 C871 1.387 . S
C873 C875 1.390 . S
C873 H877 0.950 . S
H874 C870 0.950 . S
C875 C873 1.390 . S
C875 C876 1.387 . S
C875 H878 0.950 . S
C876 C875 1.387 . S
C876 C879 1.387 . S
H877 C873 0.950 . S
H878 C875 0.950 . S
C879 C870 1.390 . S
C879 H872 0.950 . S
C879 C876 1.387 . S
C880 C881 1.387 . S
C880 H884 0.950 . S
C880 C889 1.390 . S
C881 C880 1.387 . S
C881 C883 1.387 . S
H882 C889 0.950 . S
C883 C881 1.387 . S
C883 C885 1.390 . S
C883 H887 0.950 . S
H884 C880 0.950 . S
C885 C883 1.390 . S
C885 C886 1.387 . S
C885 H888 0.950 . S
C886 C885 1.387 . S
C886 C889 1.387 . S
H887 C883 0.950 . S
H888 C885 0.950 . S
C889 C880 1.390 . S
C889 H882 0.950 . S
C889 C886 1.387 . S
C890 C891 1.387 . S
C890 H894 0.950 . S
C890 C899 1.390 . S
C891 C890 1.387 . S
C891 C893 1.387 . S
H892 C899 0.950 . S
C893 C891 1.387 . S
C893 C895 1.390 . S
C893 H897 0.950 . S
H894 C890 0.950 . S
C895 C893 1.390 . S
C895 C896 1.387 . S
C895 H898 0.950 . S
C896 C895 1.387 . S
C896 C899 1.387 . S
H897 C893 0.950 . S
H898 C895 0.950 . S
C899 C890 1.390 . S
C899 H892 0.950 . S
C899 C896 1.387 . S
C900 C901 1.387 . S
C900 H904 0.950 . S
C900 C909 1.390 . S
C901 C900 1.387 . S
C901 C903 1.387 . S
H902 C909 0.950 . S
C903 C901 1.387 . S
C903 C905 1.390 . S
C903 H907 0.950 . S
H904 C900 0.950 . S
C905 C903 1.390 . S
C905 C906 1.387 . S
C905 H908 0.950 . S
C906 C905 1.387 . S
C906 C909 1.387 . S
H907 C903 0.950 . S
H908 C905 0.950 . S
C909 C900 1.390 . S
C909 H902 0.950 . S
C909 C906 1.387 . S
C910 C911 1.387 . S
C910 H914 0.950 . S
C910 C919 1.390 . S
C911 C910 1.387 . S
C911 C913 1.387 . S
H912 C919 0.950 . S
C913 C911 1.387 . S
C913 C915 1.390 . S
C913 H917 0.950 . S
H914 C910 0.950 . S
C915 C913 1.390 . S
C915 C916 1.387 . S
C915 H918 0.950 . S
C916 C915 1.387 . S
C916 C919 1.387 . S
H917 C913 0.950 . S
H918 C915 0.950 . S
C919 C910 1.390 . S
C919 H912 0.950 . S
C919 C916 1.387 . S
C920 C921 1.387 . S
C920 H924 0.950 . S
C920 C929 1.390 . S
C921 C920 1.387 . S
C921 C923 1.387 . S
H922 C929 0.950 . S
C923 C921 1.387 . S
C923 C925 1.390 . S
C923 H927 0.950 . S
H924 C920 0.950 . S
C925 C923 1.390 . S
C925 C926 1.387 . S
C925 H928 0.950 . S
C926 C925 1.387 . S
C926 C929 1.387 . S
H927 C923 0.950 . S
H928 C925 0.950 . S
C929 C920 1.390 . S
C929 H922 0.950 . S
C929 C926 1.387 . S
C930 C931 1.387 . S
C930 H934 0.950 . S
C930 C939 1.390 . S
C931 C930 1.387 . S
C931 C933 1.387 . S
H932 C939 0.950 . S
C933 C931 1.387 . S
C933 C935 1.390 . S
C933 H937 0.950 . S
H934 C930 0.950 . S
C935 C933 1.390 . S
C935 C936 1.387 . S
C935 H938 0.950 . S
C936 C935 1.387 . S
C936 C939 1.387 . S
H937 C933 0.950 . S
H938 C935 0.950 . S
C939 C930 1.390 . S
C939 H932 0.950 . S
C939 C936 1.387 . S
C940 C941 1.387 . S
C940 H944 0.950 . S
C940 C949 1.390 . S
C941 C940 1.387 . S
C941 C943 1.387 . S
H942 C949 0.950 . S
C943 C941 1.387 . S
C943 C945 1.390 . S
C943 H947 0.950 . S
H944 C940 0.950 . S
C945 C943 1.390 . S
C945 C946 1.387 . S
C945 H948 0.950 . S
C946 C945 1.387 . S
C946 C949 1.387 . S
H947 C943 0.950 . S
H948 C945 0.950 . S
C949 C940 1.390 . S
C949 H942 0.950 . S
C949 C946 1.387 . S
C950 C951 1.387 . S
C950 H954 0.950 . S
C950 C959 1.390 . S
C951 C950 1.387 . S
C951 C953 1.387 . S
H952 C959 0.950 . S
C953 C951 1.387 . S
C953 C955 1.390 . S
C953 H957 0.950 . S
H954 C950 0.950 . S
C955 C953 1.390 . S
C955 C956 1.387 . S
C955 H958 0.950 . S
C956 C955 1.387 . S
C956 C959 1.387 . S
H957 C953 0.950 . S
H958 C955 0.950 . S
C959 C950 1.390 . S
C959 H952 0.950 . S
C959 C956 1.387 . S
C960 C961 1.387 . S
C960 H964 0.950 . S
C960 C969 1.390 . S
C961 C960 1.387 . S
C961 C963 1.387 . S
H962 C969 0.950 . S
C963 C961 1.387 . S
C963 C965 1.390 . S
C963 H967 0.950 . S
H964 C960 0.950 . S
C965 C963 1.390 . S
C965 C966 1.387 . S
C965 H968 0.950 . S
C966 C965 1.387 . S
C966 C969 1.387 . S
H967 C963 0.950 . S
H968 C965 0.950 . S
C969 C960 1.390 . S
C969 H962 0.950 . S
C969 C966 1.387 . S
C970 C971 1.387 . S
C970 H974 0.950 . S
C970 C979 1.390 . S
C971 C970 1.387 . S
C971 C973 1.387 . S
H972 C979 0.950 . S
C973 C971 1.387 . S
C973 C975 1.390 . S
C973 H977 0.950 . S
H974 C970 0.950 . S
C975 C973 1.390 . S
C975 C976 1.387 . S
C975 H978 0.950 . S
C976 C975 1.387 . S
C976 C979 1.387 . S
H977 C973 0.950 . S
H978 C975 0.950 . S
C979 C970 1.390 . S
C979 H972 0.950 . S
C979 C976 1.387 . S
C980 C981 1.387 . S
C980 H984 0.950 . S
C980 C989 1.390 . S
C981 C980 1.387 . S
C981 C983 1.387 . S
H982 C989 0.950 . S
C983 C981 1.387 . S
C983 C985 1.390 . S
C983 H987 0.950 . S
H984 C980 0.950 . S
C985 C983 1.390 . S
C985 C986 1.387 . S
C985 H988 0.950 . S
C986 C985 1.387 . S
C986 C989 1.387 . S
H987 C983 0.950 . S
H988 C985 0.950 . S
C989 C980 1.390 . S
C989 H982 0.950 . S
C989 C986 1.387 . S
C990 C991 1.387 . S
C990 H994 0.950 . S
C990 C999 1.390 . S
C991 C990 1.387 . S
C991 C993 1.387 . S
H992 C999 0.950 . S
C993 C991 1.387 . S
C993 C995 1.390 . S
C993 H997 0.950 . S
H994 C990 0.950 . S
C995 C993 1.390 . S
C995 C996 1.387 . S
C995 H998 0.950 . S
C996 C995 1.387 . S
C996 C999 1.387 . S
H997 C993 0.950 . S
H998 C995 0.950 . S
C999 C990 1.390 . S
C999 H992 0.950 . S
C999 C996 1.387 . S
C1000 C1001 1.387 . S
C1000 H1004 0.950 . S
C1000 C1009 1.390 . S
C1001 C1000 1.387 . S
C1001 C1003 1.387 . S
H1002 C1009 0.950 . S
C1003 C1001 1.387 . S
C1003 C1005 1.390 . S
C1003 H1007 0.950 . S
H1004 C1000 0.950 . S
C1005 C1003 1.390 . S
C1005 C1006 1.387 . S
C1005 H1008 0.950 . S
C1006 C1005 1.387 . S
C1006 C1009 1.387 . S
H1007 C1003 0.950 . S
H1008 C1005 0.950 . S
C1009 C1000 1.390 . S
C1009 H1002 0.950 . S
C1009 C1006 1.387 . S
C1010 C1011 1.387 . S
C1010 H1014 0.950 . S
C1010 C1019 1.390 . S
C1011 C1010 1.387 . S
C1011 C1013 1.387 . S
H1012 C1019 0.950 . S
C1013 C1011 1.387 . S
C1013 C1015 1.390 . S
C1013 H1017 0.950 . S
H1014 C1010 0.950 . S
C1015 C1013 1.390 . S
C1015 C1016 1.387 . S
C1015 H1018 0.950 . S
C1016 C1015 1.387 . S
C1016 C1019 1.387 . S
H1017 C1013 0.950 . S
H1018 C1015 0.950 . S
C1019 C1010 1.390 . S
C1019 H1012 0.950 . S
C1019 C1016 1.387 . S
C1020 C1021 1.387 . S
C1020 H1024 0.950 . S
C1020 C1029 1.390 . S
C1021 C1020 1.387 . S
C1021 C1023 1.387 . S
H1022 C1029 0.950 . S
C1023 C1021 1.387 . S
C1023 C1025 1.390 . S
C1023 H1027 0.950 . S
H1024 C1020 0.950 . S
C1025 C1023 1.390 . S
C1025 C1026 1.387 . S
C1025 H1028 0.950 . S
C1026 C1025 1.387 . S
C1026 C1029 1.387 . S
H1027 C1023 0.950 . S
H1028 C1025 0.950 . S
C1029 C1020 1.390 . S
C1029 H1022 0.950 . S
C1029 C1026 1.387 . S
C1030 C1031 1.387 . S
C1030 H1034 0.922 1_556 S
C1030 C1039 1.390 . S
C1031 C1030 1.387 . S
C1031 C1033 1.387 . S
H1032 C1039 0.950 . S
C1033 C1031 1.387 . S
C1033 C1035 1.390 . S
C1033 H1037 0.950 . S
H1034 C1030 0.922 1_554 S
C1035 C1033 1.390 . S
C1035 C1036 1.387 . S
C1035 H1038 0.950 . S
C1036 C1035 1.387 . S
C1036 C1039 1.387 . S
H1037 C1033 0.950 . S
H1038 C1035 0.950 . S
C1039 C1030 1.390 . S
C1039 H1032 0.950 . S
C1039 C1036 1.387 . S
C1040 C1041 1.387 . S
C1040 H1044 0.950 . S
C1040 C1049 1.390 . S
C1041 C1040 1.387 . S
C1041 C1043 1.387 . S
H1042 C1049 0.950 . S
C1043 C1041 1.387 . S
C1043 C1045 1.390 . S
C1043 H1047 0.950 . S
H1044 C1040 0.950 . S
C1045 C1043 1.390 . S
C1045 C1046 1.387 . S
C1045 H1048 0.950 . S
C1046 C1045 1.387 . S
C1046 C1049 1.387 . S
H1047 C1043 0.950 . S
H1048 C1045 0.950 . S
C1049 C1040 1.390 . S
C1049 H1042 0.950 . S
C1049 C1046 1.387 . S
C1050 C1051 1.387 . S
C1050 H1054 0.950 . S
C1050 C1059 1.390 . S
C1051 C1050 1.387 . S
C1051 C1053 1.387 . S
H1052 C1059 0.950 . S
C1053 C1051 1.387 . S
C1053 C1055 1.390 . S
C1053 H1057 0.950 . S
H1054 C1050 0.950 . S
C1055 C1053 1.390 . S
C1055 C1056 1.387 . S
C1055 H1058 0.950 . S
C1056 C1055 1.387 . S
C1056 C1059 1.387 . S
H1057 C1053 0.950 . S
H1058 C1055 0.950 . S
C1059 C1050 1.390 . S
C1059 H1052 0.950 . S
C1059 C1056 1.387 . S
C1060 C1061 1.387 . S
C1060 H1064 0.950 . S
C1060 C1069 1.390 . S
C1061 C1060 1.387 . S
C1061 C1063 1.387 . S
H1062 C1069 0.950 . S
C1063 C1061 1.387 . S
C1063 C1065 1.390 . S
C1063 H1067 0.950 . S
H1064 C1060 0.950 . S
C1065 C1063 1.390 . S
C1065 C1066 1.387 . S
C1065 H1068 0.950 . S
C1066 C1065 1.387 . S
C1066 C1069 1.387 . S
H1067 C1063 0.950 . S
H1068 C1065 0.950 . S
C1069 C1060 1.390 . S
C1069 H1062 0.950 . S
C1069 C1066 1.387 . S
C1070 C1071 1.387 . S
C1070 H1074 0.950 . S
C1070 C1079 1.390 . S
C1071 C1070 1.387 . S
C1071 C1073 1.387 . S
H1072 C1079 0.950 . S
C1073 C1071 1.387 . S
C1073 C1075 1.390 . S
C1073 H1077 0.950 . S
H1074 C1070 0.950 . S
C1075 C1073 1.390 . S
C1075 C1076 1.387 . S
C1075 H1078 0.950 . S
C1076 C1075 1.387 . S
C1076 C1079 1.387 . S
H1077 C1073 0.950 . S
H1078 C1075 0.950 . S
C1079 C1070 1.390 . S
C1079 H1072 0.950 . S
C1079 C1076 1.387 . S
C1080 C1081 1.387 . S
C1080 H1084 0.950 . S
C1080 C1089 1.390 . S
C1081 C1080 1.387 . S
C1081 C1083 1.387 . S
H1082 C1089 0.950 . S
C1083 C1081 1.387 . S
C1083 C1085 1.390 . S
C1083 H1087 0.950 . S
H1084 C1080 0.950 . S
C1085 C1083 1.390 . S
C1085 C1086 1.387 . S
C1085 H1088 0.950 . S
C1086 C1085 1.387 . S
C1086 C1089 1.387 . S
H1087 C1083 0.950 . S
H1088 C1085 0.950 . S
C1089 C1080 1.390 . S
C1089 H1082 0.950 . S
C1089 C1086 1.387 . S
C1090 C1091 1.387 . S
C1090 H1094 0.950 . S
C1090 C1099 1.390 . S
C1091 C1090 1.387 . S
C1091 C1093 1.387 . S
H1092 C1099 0.950 . S
C1093 C1091 1.387 . S
C1093 C1095 1.390 . S
C1093 H1097 0.950 . S
H1094 C1090 0.950 . S
C1095 C1093 1.390 . S
C1095 C1096 1.387 . S
C1095 H1098 0.950 . S
C1096 C1095 1.387 . S
C1096 C1099 1.387 . S
H1097 C1093 0.950 . S
H1098 C1095 0.950 . S
C1099 C1090 1.390 . S
C1099 H1092 0.950 . S
C1099 C1096 1.387 . S
C1100 C1101 1.387 . S
C1100 H1104 0.950 . S
C1100 C1109 1.390 . S
C1101 C1100 1.387 . S
C1101 C1103 1.387 . S
H1102 C1109 0.950 . S
C1103 C1101 1.387 . S
C1103 C1105 1.390 . S
C1103 H1107 0.950 . S
H1104 C1100 0.950 . S
C1105 C1103 1.390 . S
C1105 C1106 1.387 . S
C1105 H1108 0.950 . S
C1106 C1105 1.387 . S
C1106 C1109 1.387 . S
H1107 C1103 0.950 . S
H1108 C1105 0.950 . S
C1109 C1100 1.390 . S
C1109 H1102 0.950 . S
C1109 C1106 1.387 . S
C1110 C1111 1.387 . S
C1110 H1114 0.950 . S
C1110 C1119 1.390 . S
C1111 C1110 1.387 . S
C1111 C1113 1.387 . S
H1112 C1119 0.950 . S
C1113 C1111 1.387 . S
C1113 C1115 1.390 . S
C1113 H1117 0.950 . S
H1114 C1110 0.950 . S
C1115 C1113 1.390 . S
C1115 C1116 1.387 . S
C1115 H1118 0.950 . S
C1116 C1115 1.387 . S
C1116 C1119 1.387 . S
H1117 C1113 0.950 . S
H1118 C1115 0.950 . S
C1119 C1110 1.390 . S
C1119 H1112 0.950 . S
C1119 C1116 1.387 . S
C1120 C1121 1.387 . S
C1120 H1124 0.950 . S
C1120 C1129 1.390 . S
C1121 C1120 1.387 . S
C1121 C1123 1.387 . S
H1122 C1129 0.950 . S
C1123 C1121 1.387 . S
C1123 C1125 1.390 . S
C1123 H1127 0.950 . S
H1124 C1120 0.950 . S
C1125 C1123 1.390 . S
C1125 C1126 1.387 . S
C1125 H1128 0.950 . S
C1126 C1125 1.387 . S
C1126 C1129 1.387 . S
H1127 C1123 0.950 . S
H1128 C1125 0.950 . S
C1129 C1120 1.390 . S
C1129 H1122 0.950 . S
C1129 C1126 1.387 . S
C1130 C1131 1.387 . S
C1130 H1134 0.950 . S
C1130 C1139 1.390 . S
C1131 C1130 1.387 . S
C1131 C1133 1.387 . S
H1132 C1139 0.950 . S
C1133 C1131 1.387 . S
C1133 C1135 1.390 . S
C1133 H1137 0.950 . S
H1134 C1130 0.950 . S
C1135 C1133 1.390 . S
C1135 C1136 1.387 . S
C1135 H1138 0.950 . S
C1136 C1135 1.387 . S
C1136 C1139 1.387 . S
H1137 C1133 0.950 . S
H1138 C1135 0.950 . S
C1139 C1130 1.390 . S
C1139 H1132 0.950 . S
C1139 C1136 1.387 . S
C1140 C1141 1.387 1_655 S
C1140 H1144 0.950 . S
C1140 C1149 1.390 . S
C1141 C1140 1.387 1_455 S
C1141 C1143 1.387 . S
H1142 C1149 0.950 . S
C1143 C1141 1.387 . S
C1143 C1145 1.390 . S
C1143 H1147 0.950 . S
H1144 C1140 0.950 . S
C1145 C1143 1.390 . S
C1145 C1146 1.387 . S
C1145 H1148 0.950 . S
C1146 C1145 1.387 . S
C1146 C1149 1.387 1_455 S
H1147 C1143 0.950 . S
H1148 C1145 0.950 . S
C1149 C1140 1.390 . S
C1149 H1142 0.950 . S
C1149 C1146 1.387 1_655 S
C1150 C1151 1.387 . S
C1150 H1154 0.950 . S
C1150 C1159 1.390 . S
C1151 C1150 1.387 . S
C1151 C1153 1.387 . S
H1152 C1159 0.950 . S
C1153 C1151 1.387 . S
C1153 C1155 1.390 . S
C1153 H1157 0.950 . S
H1154 C1150 0.950 . S
C1155 C1153 1.390 . S
C1155 C1156 1.387 . S
C1155 H1158 0.950 . S
C1156 C1155 1.387 . S
C1156 C1159 1.387 . S
H1157 C1153 0.950 . S
H1158 C1155 0.950 . S
C1159 C1150 1.390 . S
C1159 H1152 0.950 . S
C1159 C1156 1.387 . S
C1160 C1161 1.387 1_545 S
C1160 H1164 0.950 . S
C1160 C1169 1.390 . S
C1161 C1160 1.387 1_565 S
C1161 C1163 1.387 . S
H1162 C1169 0.950 . S
C1163 C1161 1.387 . S
C1163 C1165 1.390 . S
C1163 H1167 0.950 . S
H1164 C1160 0.950 . S
C1165 C1163 1.390 . S
C1165 C1166 1.387 . S
C1165 H1168 0.950 . S
C1166 C1165 1.387 . S
C1166 C1169 1.387 1_565 S
H1167 C1163 0.950 . S
H1168 C1165 0.950 . S
C1169 C1160 1.390 . S
C1169 H1162 0.950 . S
C1169 C1166 1.387 1_545 S
C1170 C1171 1.387 1_545 S
C1170 H1174 0.950 . S
C1170 C1179 1.390 . S
C1171 C1170 1.387 1_565 S
C1171 C1173 1.387 . S
H1172 C1179 0.950 . S
C1173 C1171 1.387 . S
C1173 C1175 1.390 . S
C1173 H1177 0.950 . S
H1174 C1170 0.950 . S
C1175 C1173 1.390 . S
C1175 C1176 1.387 . S
C1175 H1178 0.950 . S
C1176 C1175 1.387 . S
C1176 C1179 1.387 1_565 S
H1177 C1173 0.950 . S
H1178 C1175 0.950 . S
C1179 C1170 1.390 . S
C1179 H1172 0.950 . S
C1179 C1176 1.387 1_545 S
C1180 C1181 1.387 1_655 S
C1180 H1184 0.950 . S
C1180 C1189 1.390 . S
C1181 C1180 1.387 1_455 S
C1181 C1183 1.387 . S
H1182 C1189 0.950 . S
C1183 C1181 1.387 . S
C1183 C1185 1.390 . S
C1183 H1187 0.950 . S
H1184 C1180 0.950 . S
C1185 C1183 1.390 . S
C1185 C1186 1.387 . S
C1185 H1188 0.950 . S
C1186 C1185 1.387 . S
C1186 C1189 1.387 1_455 S
H1187 C1183 0.950 . S
H1188 C1185 0.950 . S
C1189 C1180 1.390 . S
C1189 H1182 0.950 . S
C1189 C1186 1.387 1_655 S
C1190 C1191 1.387 . S
C1190 H1194 0.950 . S
C1190 C1199 1.390 . S
C1191 C1190 1.387 . S
C1191 C1193 1.387 . S
H1192 C1199 0.950 . S
C1193 C1191 1.387 . S
C1193 C1195 1.390 . S
C1193 H1197 0.950 . S
H1194 C1190 0.950 . S
C1195 C1193 1.390 . S
C1195 C1196 1.387 . S
C1195 H1198 0.950 . S
C1196 C1195 1.387 . S
C1196 C1199 1.387 . S
H1197 C1193 0.950 . S
H1198 C1195 0.950 . S
C1199 C1190 1.390 . S
C1199 H1192 0.950 . S
C1199 C1196 1.387 . S
C1200 C1201 1.387 . S
C1200 H1204 0.950 . S
C1200 C1209 1.390 . S
C1201 C1200 1.387 . S
C1201 C1203 1.387 . S
H1202 C1209 0.950 . S
C1203 C1201 1.387 . S
C1203 C1205 1.390 . S
C1203 H1207 0.950 . S
H1204 C1200 0.950 . S
C1205 C1203 1.390 . S
C1205 C1206 1.387 . S
C1205 H1208 0.950 . S
C1206 C1205 1.387 . S
C1206 C1209 1.387 . S
H1207 C1203 0.950 . S
H1208 C1205 0.950 . S
C1209 C1200 1.390 . S
C1209 H1202 0.950 . S
C1209 C1206 1.387 . S
C1210 C1211 1.387 . S
C1210 H1214 0.950 . S
C1210 C1219 1.390 . S
C1211 C1210 1.387 . S
C1211 C1213 1.387 . S
H1212 C1219 0.950 . S
C1213 C1211 1.387 . S
C1213 C1215 1.390 . S
C1213 H1217 0.950 . S
H1214 C1210 0.950 . S
C1215 C1213 1.390 . S
C1215 C1216 1.387 . S
C1215 H1218 0.950 . S
C1216 C1215 1.387 . S
C1216 C1219 1.387 . S
H1217 C1213 0.950 . S
H1218 C1215 0.950 . S
C1219 C1210 1.390 . S
C1219 H1212 0.950 . S
C1219 C1216 1.387 . S
C1220 C1221 1.387 . S
C1220 H1224 0.950 . S
C1220 C1229 1.390 . S
C1221 C1220 1.387 . S
C1221 C1223 1.387 . S
H1222 C1229 0.950 . S
C1223 C1221 1.387 . S
C1223 C1225 1.390 . S
C1223 H1227 0.950 . S
H1224 C1220 0.950 . S
C1225 C1223 1.390 . S
C1225 C1226 1.387 . S
C1225 H1228 0.950 . S
C1226 C1225 1.387 . S
C1226 C1229 1.387 . S
H1227 C1223 0.950 . S
H1228 C1225 0.950 . S
C1229 C1220 1.390 . S
C1229 H1222 0.950 . S
C1229 C1226 1.387 . S
C1230 C1231 1.387 . S
C1230 H1234 0.950 . S
C1230 C1239 1.390 . S
C1231 C1230 1.387 . S
C1231 C1233 1.387 1_545 S
H1232 C1239 0.950 . S
C1233 C1231 1.387 1_565 S
C1233 C1235 1.390 . S
C1233 H1237 0.950 . S
H1234 C1230 0.950 . S
C1235 C1233 1.390 . S
C1235 C1236 1.387 1_565 S
C1235 H1238 0.950 . S
C1236 C1235 1.387 1_545 S
C1236 C1239 1.387 . S
H1237 C1233 0.950 . S
H1238 C1235 0.950 . S
C1239 C1230 1.390 . S
C1239 H1232 0.950 . S
C1239 C1236 1.387 . S
C1240 C1241 1.387 . S
C1240 H1244 0.950 1_655 S
C1240 C1249 1.370 . S
C1241 C1240 1.387 . S
C1241 C1243 1.387 . S
H1242 C1249 0.961 1_455 S
C1243 C1241 1.387 . S
C1243 C1245 1.390 . S
C1243 H1247 0.950 . S
H1244 C1240 0.950 1_455 S
C1245 C1243 1.390 . S
C1245 C1246 1.387 . S
C1245 H1248 0.950 . S
C1246 C1245 1.387 . S
C1246 C1249 1.399 . S
H1247 C1243 0.950 . S
H1248 C1245 0.950 . S
C1249 C1240 1.370 . S
C1249 H1242 0.961 1_655 S
C1249 C1246 1.399 . S
C1250 C1251 1.387 . S
C1250 H1254 0.950 . S
C1250 C1259 1.390 . S
C1251 C1250 1.387 . S
C1251 C1253 1.387 . S
H1252 C1259 0.950 . S
C1253 C1251 1.387 . S
C1253 C1255 1.390 . S
C1253 H1257 0.950 . S
H1254 C1250 0.950 . S
C1255 C1253 1.390 . S
C1255 C1256 1.387 . S
C1255 H1258 0.950 . S
C1256 C1255 1.387 . S
C1256 C1259 1.387 . S
H1257 C1253 0.950 . S
H1258 C1255 0.950 . S
C1259 C1250 1.390 . S
C1259 H1252 0.950 . S
C1259 C1256 1.387 . S
C1260 C1261 1.387 . S
C1260 H1264 0.950 . S
C1260 C1269 1.390 . S
C1261 C1260 1.387 . S
C1261 C1263 1.387 . S
H1262 C1269 0.950 . S
C1263 C1261 1.387 . S
C1263 C1265 1.390 . S
C1263 H1267 0.950 . S
H1264 C1260 0.950 . S
C1265 C1263 1.390 . S
C1265 C1266 1.387 . S
C1265 H1268 0.950 . S
C1266 C1265 1.387 . S
C1266 C1269 1.387 . S
H1267 C1263 0.950 . S
H1268 C1265 0.950 . S
C1269 C1260 1.390 . S
C1269 H1262 0.950 . S
C1269 C1266 1.387 . S
C1270 C1271 1.387 . S
C1270 H1274 0.950 . S
C1270 C1279 1.390 . S
C1271 C1270 1.387 . S
C1271 C1273 1.387 . S
H1272 C1279 0.950 . S
C1273 C1271 1.387 . S
C1273 C1275 1.390 . S
C1273 H1277 0.950 . S
H1274 C1270 0.950 . S
C1275 C1273 1.390 . S
C1275 C1276 1.387 . S
C1275 H1278 0.950 . S
C1276 C1275 1.387 . S
C1276 C1279 1.387 . S
H1277 C1273 0.950 . S
H1278 C1275 0.950 . S
C1279 C1270 1.390 . S
C1279 H1272 0.950 . S
C1279 C1276 1.387 . S
C1280 C1281 1.387 . S
C1280 H1284 0.950 . S
C1280 C1289 1.390 . S
C1281 C1280 1.387 . S
C1281 C1283 1.387 . S
H1282 C1289 0.950 . S
C1283 C1281 1.387 . S
C1283 C1285 1.390 . S
C1283 H1287 0.950 . S
H1284 C1280 0.950 . S
C1285 C1283 1.390 . S
C1285 C1286 1.387 . S
C1285 H1288 0.950 . S
C1286 C1285 1.387 . S
C1286 C1289 1.387 . S
H1287 C1283 0.950 . S
H1288 C1285 0.950 . S
C1289 C1280 1.390 . S
C1289 H1282 0.950 . S
C1289 C1286 1.387 . S
C1290 C1291 1.387 . S
C1290 H1294 0.950 . S
C1290 C1299 1.390 . S
C1291 C1290 1.387 . S
C1291 C1293 1.387 . S
H1292 C1299 0.950 . S
C1293 C1291 1.387 . S
C1293 C1295 1.390 . S
C1293 H1297 0.950 . S
H1294 C1290 0.950 . S
C1295 C1293 1.390 . S
C1295 C1296 1.387 . S
C1295 H1298 0.950 . S
C1296 C1295 1.387 . S
C1296 C1299 1.387 . S
H1297 C1293 0.950 . S
H1298 C1295 0.950 . S
C1299 C1290 1.390 . S
C1299 H1292 0.950 . S
C1299 C1296 1.387 . S
C1300 C1301 1.387 . S
C1300 H1304 0.950 . S
C1300 C1309 1.390 . S
C1301 C1300 1.387 . S
C1301 C1303 1.387 . S
H1302 C1309 0.950 . S
C1303 C1301 1.387 . S
C1303 C1305 1.390 . S
C1303 H1307 0.950 . S
H1304 C1300 0.950 . S
C1305 C1303 1.390 . S
C1305 C1306 1.387 . S
C1305 H1308 0.950 . S
C1306 C1305 1.387 . S
C1306 C1309 1.387 . S
H1307 C1303 0.950 . S
H1308 C1305 0.950 . S
C1309 C1300 1.390 . S
C1309 H1302 0.950 . S
C1309 C1306 1.387 . S
C1310 C1311 1.387 . S
C1310 H1314 0.950 . S
C1310 C1319 1.390 . S
C1311 C1310 1.387 . S
C1311 C1313 1.387 . S
H1312 C1319 0.950 . S
C1313 C1311 1.387 . S
C1313 C1315 1.390 . S
C1313 H1317 0.950 . S
H1314 C1310 0.950 . S
C1315 C1313 1.390 . S
C1315 C1316 1.387 . S
C1315 H1318 0.950 . S
C1316 C1315 1.387 . S
C1316 C1319 1.387 . S
H1317 C1313 0.950 . S
H1318 C1315 0.950 . S
C1319 C1310 1.390 . S
C1319 H1312 0.950 . S
C1319 C1316 1.387 . S
C1320 C1321 1.387 1_455 S
C1320 H1324 0.950 . S
C1320 C1329 1.390 . S
C1321 C1320 1.387 1_655 S
C1321 C1323 1.387 . S
H1322 C1329 0.950 . S
C1323 C1321 1.387 . S
C1323 C1325 1.390 . S
C1323 H1327 0.950 . S
H1324 C1320 0.950 . S
C1325 C1323 1.390 . S
C1325 C1326 1.387 . S
C1325 H1328 0.950 . S
C1326 C1325 1.387 . S
C1326 C1329 1.387 1_655 S
H1327 C1323 0.950 . S
H1328 C1325 0.950 . S
C1329 C1320 1.390 . S
C1329 H1322 0.950 . S
C1329 C1326 1.387 1_455 S
C1330 C1331 1.387 . S
C1330 H1334 0.950 . S
C1330 C1339 1.390 . S
C1331 C1330 1.387 . S
C1331 C1333 1.387 . S
H1332 C1339 0.950 . S
C1333 C1331 1.387 . S
C1333 C1335 1.390 . S
C1333 H1337 0.950 . S
H1334 C1330 0.950 . S
C1335 C1333 1.390 . S
C1335 C1336 1.387 . S
C1335 H1338 0.950 . S
C1336 C1335 1.387 . S
C1336 C1339 1.387 . S
H1337 C1333 0.950 . S
H1338 C1335 0.950 . S
C1339 C1330 1.390 . S
C1339 H1332 0.950 . S
C1339 C1336 1.387 . S
C1340 C1341 1.387 . S
C1340 H1344 0.950 . S
C1340 C1349 1.390 . S
C1341 C1340 1.387 . S
C1341 C1343 1.387 1_545 S
H1342 C1349 0.950 . S
C1343 C1341 1.387 1_565 S
C1343 C1345 1.390 . S
C1343 H1347 0.950 . S
H1344 C1340 0.950 . S
C1345 C1343 1.390 . S
C1345 C1346 1.387 1_565 S
C1345 H1348 0.950 . S
C1346 C1345 1.387 1_545 S
C1346 C1349 1.387 . S
H1347 C1343 0.950 . S
H1348 C1345 0.950 . S
C1349 C1340 1.390 . S
C1349 H1342 0.950 . S
C1349 C1346 1.387 . S
C631 C8 1.554 . S
C636 C458 1.478 1_655 S
C641 C22 1.545 . S
C646 C471 1.513 . S
C656 C500 1.451 1_545 S
C651 C37 1.548 1_545 S
C661 C36 1.537 . S
C666 C513 1.506 . S
C671 C9 1.555 1_455 S
C676 C534 1.519 . S
C681 C23 1.546 . S
C686 C563 1.476 . S
C691 C50 1.547 . S
C696 C542 1.510 . S
C706 C555 1.485 . S
C701 C64 1.529 . S
C716 C521 1.487 1_545 S
C711 C79 1.526 . S
C721 C78 1.520 . S
C726 C492 1.482 1_545 S
C736 C450 1.487 . S
C731 C51 1.533 . S
C741 C65 1.531 . S
C746 C479 1.489 . S
C751 C92 1.554 . S
C756 C584 1.480 . S
C761 C106 1.546 . S
C766 C597 1.516 . S
C776 C626 1.472 . S
C771 C121 1.542 . S
C781 C120 1.538 . S
C786 C261 1.509 . S
C791 C93 1.550 . S
C796 C282 1.519 . S
C801 C107 1.545 . S
C806 C311 1.474 . S
C811 C134 1.537 . S
C816 C290 1.497 . S
C821 C148 1.529 . S
C826 C303 1.485 . S
C836 C269 1.488 . S
C831 C163 1.526 . S
C846 C618 1.479 . S
C841 C162 1.522 . S
C856 C576 1.487 . S
C851 C135 1.532 . S
C866 C605 1.491 . S
C861 C149 1.530 . S
C871 C176 1.554 . S
C876 C332 1.477 . S
C881 C190 1.546 . S
C886 C345 1.515 . S
C891 C205 1.542 . S
C896 C374 1.472 . S
C901 C204 1.537 . S
C906 C387 1.506 . S
C916 C408 1.518 . S
C911 C177 1.549 . S
C926 C437 1.473 . S
C921 C191 1.547 . S
C936 C416 1.497 . S
C931 C218 1.538 . S
C946 C429 1.485 . S
C941 C232 1.528 . S
C951 C247 1.526 . S
C956 C395 1.488 . S
C966 C366 1.479 . S
C961 C246 1.522 . S
C971 C219 1.532 . S
C976 C324 1.487 . S
C986 C353 1.489 . S
C981 C233 1.530 . S
C996 C264 1.395 . S
C991 C6 1.477 . S
C1001 C20 1.469 . S
C1006 C285 1.390 . S
C1016 C313 1.417 . S
C1011 C35 1.468 . S
C1026 C334 1.411 . S
C1021 C34 1.461 . S
C1036 C348 1.392 . S
C1031 C7 1.472 . S
C1046 C376 1.419 . S
C1041 C21 1.469 . S
C1051 C48 1.489 . S
C1056 C369 1.391 . S
C1061 C62 1.479 . S
C1066 C327 1.379 . S
C1071 C77 1.478 . S
C1076 C355 1.426 . S
C1081 C76 1.471 . S
C1086 C292 1.422 . S
C1096 C306 1.386 . S
C1091 C49 1.480 . S
C1101 C63 1.481 . S
C1106 C271 1.431 . S
C1116 C390 1.395 . S
C1111 C90 1.477 . S
C1121 C104 1.469 . S
C1126 C411 1.390 . S
C1131 C119 1.468 . S
C1136 C439 1.416 . S
C1146 C460 1.414 . S
C1141 C118 1.461 . S
C1151 C91 1.472 . S
C1156 C474 1.393 . S
C1161 C105 1.470 . S
C1166 C502 1.422 . S
C1171 C132 1.487 . S
C1176 C495 1.387 . S
C1181 C146 1.477 . S
C1186 C453 1.381 . S
C1196 C481 1.427 . S
C1191 C161 1.479 . S
C1201 C160 1.469 . S
C1206 C418 1.419 . S
C1211 C133 1.482 . S
C1216 C432 1.383 . S
C1226 C397 1.431 . S
C1221 C147 1.481 . S
C1236 C516 1.413 . S
C1231 C174 1.477 . S
C1241 C188 1.469 . S
C1246 C537 1.389 1_655 S
C1251 C203 1.466 . S
C1256 C565 1.419 . S
C1266 C586 1.411 . S
C1261 C202 1.461 . S
C1276 C600 1.391 . S
C1271 C175 1.472 . S
C1281 C189 1.470 . S
C1286 C628 1.422 . S
C1291 C216 1.487 . S
C1296 C621 1.388 . S
C1301 C230 1.477 . S
C1306 C579 1.381 . S
C1316 C607 1.427 . S
C1311 C245 1.477 . S
C1326 C544 1.420 1_655 S
C1321 C244 1.471 . S
C1336 C558 1.386 . S
C1331 C217 1.480 . S
C1341 C231 1.481 . S
C1346 C523 1.431 1_545 S
