# Generated by pormake.
# Topology ctn, (3,4)-cn, num edge types: 1
# Building blocks:
#     Node 0, Type 0, BuildingBlock: PAMTOO_clean_linker_0, # of connection points: 3
#     Node 1, Type 0, BuildingBlock: PAMTOO_clean_linker_0, # of connection points: 3
#     Node 2, Type 0, BuildingBlock: PAMTOO_clean_linker_0, # of connection points: 3
#     Node 3, Type 0, BuildingBlock: PAMTOO_clean_linker_0, # of connection points: 3
#     Node 4, Type 0, BuildingBlock: PAMTOO_clean_linker_0, # of connection points: 3
#     Node 5, Type 0, BuildingBlock: PAMTOO_clean_linker_0, # of connection points: 3
#     Node 6, Type 0, BuildingBlock: PAMTOO_clean_linker_0, # of connection points: 3
#     Node 7, Type 0, BuildingBlock: PAMTOO_clean_linker_0, # of connection points: 3
#     Node 8, Type 0, BuildingBlock: PAMTOO_clean_linker_0, # of connection points: 3
#     Node 9, Type 0, BuildingBlock: PAMTOO_clean_linker_0, # of connection points: 3
#     Node 10, Type 0, BuildingBlock: PAMTOO_clean_linker_0, # of connection points: 3
#     Node 11, Type 0, BuildingBlock: PAMTOO_clean_linker_0, # of connection points: 3
#     Node 12, Type 0, BuildingBlock: PAMTOO_clean_linker_0, # of connection points: 3
#     Node 13, Type 0, BuildingBlock: PAMTOO_clean_linker_0, # of connection points: 3
#     Node 14, Type 0, BuildingBlock: PAMTOO_clean_linker_0, # of connection points: 3
#     Node 15, Type 0, BuildingBlock: PAMTOO_clean_linker_0, # of connection points: 3
#     Node 16, Type 1, BuildingBlock: QUQFOY_clean_sbu_1, # of connection points: 4
#     Node 17, Type 1, BuildingBlock: QUQFOY_clean_sbu_1, # of connection points: 4
#     Node 18, Type 1, BuildingBlock: QUQFOY_clean_sbu_1, # of connection points: 4
#     Node 19, Type 1, BuildingBlock: QUQFOY_clean_sbu_1, # of connection points: 4
#     Node 20, Type 1, BuildingBlock: QUQFOY_clean_sbu_1, # of connection points: 4
#     Node 21, Type 1, BuildingBlock: QUQFOY_clean_sbu_1, # of connection points: 4
#     Node 22, Type 1, BuildingBlock: QUQFOY_clean_sbu_1, # of connection points: 4
#     Node 23, Type 1, BuildingBlock: QUQFOY_clean_sbu_1, # of connection points: 4
#     Node 24, Type 1, BuildingBlock: QUQFOY_clean_sbu_1, # of connection points: 4
#     Node 25, Type 1, BuildingBlock: QUQFOY_clean_sbu_1, # of connection points: 4
#     Node 26, Type 1, BuildingBlock: QUQFOY_clean_sbu_1, # of connection points: 4
#     Node 27, Type 1, BuildingBlock: QUQFOY_clean_sbu_1, # of connection points: 4
#     Edge 28, Type (0, 1), BuildingBlock: MIFKUJ_clean_linker_0, # of connection points: 2
#     Edge 29, Type (0, 1), BuildingBlock: MIFKUJ_clean_linker_0, # of connection points: 2
#     Edge 30, Type (0, 1), BuildingBlock: MIFKUJ_clean_linker_0, # of connection points: 2
#     Edge 31, Type (0, 1), BuildingBlock: MIFKUJ_clean_linker_0, # of connection points: 2
#     Edge 32, Type (0, 1), BuildingBlock: MIFKUJ_clean_linker_0, # of connection points: 2
#     Edge 33, Type (0, 1), BuildingBlock: MIFKUJ_clean_linker_0, # of connection points: 2
#     Edge 34, Type (0, 1), BuildingBlock: MIFKUJ_clean_linker_0, # of connection points: 2
#     Edge 35, Type (0, 1), BuildingBlock: MIFKUJ_clean_linker_0, # of connection points: 2
#     Edge 36, Type (0, 1), BuildingBlock: MIFKUJ_clean_linker_0, # of connection points: 2
#     Edge 37, Type (0, 1), BuildingBlock: MIFKUJ_clean_linker_0, # of connection points: 2
#     Edge 38, Type (0, 1), BuildingBlock: MIFKUJ_clean_linker_0, # of connection points: 2
#     Edge 39, Type (0, 1), BuildingBlock: MIFKUJ_clean_linker_0, # of connection points: 2
#     Edge 40, Type (0, 1), BuildingBlock: MIFKUJ_clean_linker_0, # of connection points: 2
#     Edge 41, Type (0, 1), BuildingBlock: MIFKUJ_clean_linker_0, # of connection points: 2
#     Edge 42, Type (0, 1), BuildingBlock: MIFKUJ_clean_linker_0, # of connection points: 2
#     Edge 43, Type (0, 1), BuildingBlock: MIFKUJ_clean_linker_0, # of connection points: 2
#     Edge 44, Type (0, 1), BuildingBlock: MIFKUJ_clean_linker_0, # of connection points: 2
#     Edge 45, Type (0, 1), BuildingBlock: MIFKUJ_clean_linker_0, # of connection points: 2
#     Edge 46, Type (0, 1), BuildingBlock: MIFKUJ_clean_linker_0, # of connection points: 2
#     Edge 47, Type (0, 1), BuildingBlock: MIFKUJ_clean_linker_0, # of connection points: 2
#     Edge 48, Type (0, 1), BuildingBlock: MIFKUJ_clean_linker_0, # of connection points: 2
#     Edge 49, Type (0, 1), BuildingBlock: MIFKUJ_clean_linker_0, # of connection points: 2
#     Edge 50, Type (0, 1), BuildingBlock: MIFKUJ_clean_linker_0, # of connection points: 2
#     Edge 51, Type (0, 1), BuildingBlock: MIFKUJ_clean_linker_0, # of connection points: 2
#     Edge 52, Type (0, 1), BuildingBlock: MIFKUJ_clean_linker_0, # of connection points: 2
#     Edge 53, Type (0, 1), BuildingBlock: MIFKUJ_clean_linker_0, # of connection points: 2
#     Edge 54, Type (0, 1), BuildingBlock: MIFKUJ_clean_linker_0, # of connection points: 2
#     Edge 55, Type (0, 1), BuildingBlock: MIFKUJ_clean_linker_0, # of connection points: 2
#     Edge 56, Type (0, 1), BuildingBlock: MIFKUJ_clean_linker_0, # of connection points: 2
#     Edge 57, Type (0, 1), BuildingBlock: MIFKUJ_clean_linker_0, # of connection points: 2
#     Edge 58, Type (0, 1), BuildingBlock: MIFKUJ_clean_linker_0, # of connection points: 2
#     Edge 59, Type (0, 1), BuildingBlock: MIFKUJ_clean_linker_0, # of connection points: 2
#     Edge 60, Type (0, 1), BuildingBlock: MIFKUJ_clean_linker_0, # of connection points: 2
#     Edge 61, Type (0, 1), BuildingBlock: MIFKUJ_clean_linker_0, # of connection points: 2
#     Edge 62, Type (0, 1), BuildingBlock: MIFKUJ_clean_linker_0, # of connection points: 2
#     Edge 63, Type (0, 1), BuildingBlock: MIFKUJ_clean_linker_0, # of connection points: 2
#     Edge 64, Type (0, 1), BuildingBlock: MIFKUJ_clean_linker_0, # of connection points: 2
#     Edge 65, Type (0, 1), BuildingBlock: MIFKUJ_clean_linker_0, # of connection points: 2
#     Edge 66, Type (0, 1), BuildingBlock: MIFKUJ_clean_linker_0, # of connection points: 2
#     Edge 67, Type (0, 1), BuildingBlock: MIFKUJ_clean_linker_0, # of connection points: 2
#     Edge 68, Type (0, 1), BuildingBlock: MIFKUJ_clean_linker_0, # of connection points: 2
#     Edge 69, Type (0, 1), BuildingBlock: MIFKUJ_clean_linker_0, # of connection points: 2
#     Edge 70, Type (0, 1), BuildingBlock: MIFKUJ_clean_linker_0, # of connection points: 2
#     Edge 71, Type (0, 1), BuildingBlock: MIFKUJ_clean_linker_0, # of connection points: 2
#     Edge 72, Type (0, 1), BuildingBlock: MIFKUJ_clean_linker_0, # of connection points: 2
#     Edge 73, Type (0, 1), BuildingBlock: MIFKUJ_clean_linker_0, # of connection points: 2
#     Edge 74, Type (0, 1), BuildingBlock: MIFKUJ_clean_linker_0, # of connection points: 2
#     Edge 75, Type (0, 1), BuildingBlock: MIFKUJ_clean_linker_0, # of connection points: 2
# Relax obj value: 0.090
# Max RMSD: 0.207
# Mean RMSD: 0.146
data_MOF--net-ctn--node1-QUQFOY_clean_sbu_1--node2-PAMTOO_clean_linker_0--edge1-MIFKUJ_clean_linker_0
_symmetry_space_group_name_H-M    P1
_symmetry_Int_Tables_number       1
_symmetry_cell_setting            triclinic
loop_
_symmetry_equiv_pos_as_xyz
'x, y, z'
_cell_length_a     70.168567
_cell_length_b     70.210435
_cell_length_c     71.402537
_cell_angle_alpha  87.838349
_cell_angle_beta   92.750164
_cell_angle_gamma 102.252
loop_
_atom_site_label
_atom_site_type_symbol
_atom_site_fract_x
_atom_site_fract_y
_atom_site_fract_z
_atom_type_partial_charge
H0 H 0.05429 0.1382 0.06841 0.0
H1 H 0.07337 0.08726 0.09098 0.0
H2 H 0.0928 0.11191 0.03765 0.0
H3 H 0.07478 0.06841 0.04233 0.0
C4 C 0.08382 0.06589 0.05508 0.0
O5 O 0.0936 0.08344 0.06221 0.0
H6 H 0.07376 0.05784 0.06567 0.0
C7 C 0.06324 0.12745 0.06764 0.0
C8 C 0.07416 0.12729 0.05167 0.0
C9 C 0.06256 0.11294 0.08184 0.0
C10 C 0.07361 0.0986 0.08022 0.0
C11 C 0.08436 0.09821 0.06428 0.0
C12 C 0.08464 0.11251 0.05004 0.0
H13 H 0.28572 0.71591 0.2472 0.0
H14 H 0.25121 0.73921 0.20416 0.0
H15 H 0.30245 0.77586 0.22811 0.0
H16 H 0.26694 0.79481 0.21975 0.0
C17 C 0.26093 0.78592 0.20741 0.0
O18 O 0.27344 0.77394 0.20358 0.0
H19 H 0.24631 0.777 0.21064 0.0
C20 C 0.2831 0.72797 0.23825 0.0
C21 C 0.29633 0.74607 0.2391 0.0
C22 C 0.26658 0.72528 0.22587 0.0
C23 C 0.26351 0.74098 0.21418 0.0
C24 C 0.27634 0.75913 0.21519 0.0
C25 C 0.29265 0.76169 0.2276 0.0
H26 H 0.92968 0.50142 0.08874 0.0
H27 H 0.90675 0.48073 0.03449 0.0
H28 H 0.94776 0.45287 0.06481 0.0
H29 H 0.95166 0.47258 0.02232 0.0
C30 C 0.93887 0.46095 0.01809 0.0
O31 O 0.92769 0.45433 0.03337 0.0
H32 H 0.92986 0.46734 0.00738 0.0
C33 C 0.92857 0.49101 0.07771 0.0
C34 C 0.93988 0.47661 0.07918 0.0
C35 C 0.9166 0.49275 0.06163 0.0
C36 C 0.91588 0.47975 0.04701 0.0
C37 C 0.92739 0.46573 0.04812 0.0
C38 C 0.93918 0.46404 0.06417 0.0
H39 H 0.71326 0.84773 0.25287 0.0
H40 H 0.69331 0.79011 0.23146 0.0
H41 H 0.74088 0.82936 0.20606 0.0
H42 H 0.71332 0.80755 0.18035 0.0
C43 C 0.70927 0.79336 0.18817 0.0
O44 O 0.71899 0.79442 0.20549 0.0
H45 H 0.69326 0.79014 0.1902 0.0
C46 C 0.71427 0.83687 0.24279 0.0
C47 C 0.72862 0.8411 0.22926 0.0
C48 C 0.70136 0.8186 0.2437 0.0
C49 C 0.70324 0.80422 0.23118 0.0
C50 C 0.71757 0.80817 0.21777 0.0
C51 C 0.7302 0.82649 0.21683 0.0
H52 H 0.08083 0.97604 0.48637 0.0
H53 H 0.02912 0.93956 0.46196 0.0
H54 H 0.05464 0.99389 0.43471 0.0
H55 H 0.00746 0.97385 0.45092 0.0
C56 C 0.00735 0.96689 0.43711 0.0
O57 O 0.02555 0.96344 0.43374 0.0
H58 H 0.99675 0.9527 0.43779 0.0
C59 C 0.06967 0.97312 0.47519 0.0
C60 C 0.0697 0.98676 0.46031 0.0
C61 C 0.05512 0.95603 0.47597 0.0
C62 C 0.04059 0.9526 0.46155 0.0
C63 C 0.04035 0.96631 0.44683 0.0
C64 C 0.05498 0.9833 0.44609 0.0
H65 H 0.20608 0.7854 0.80029 0.0
H66 H 0.22383 0.74185 0.76817 0.0
H67 H 0.25826 0.76498 0.81654 0.0
H68 H 0.28115 0.76049 0.78559 0.0
C69 C 0.27189 0.74745 0.77893 0.0
O70 O 0.25528 0.741 0.78894 0.0
H71 H 0.26762 0.75155 0.76436 0.0
C72 C 0.21622 0.77616 0.7979 0.0
C73 C 0.23246 0.77675 0.81032 0.0
C74 C 0.21272 0.76355 0.78269 0.0
C75 C 0.22619 0.75185 0.77965 0.0
C76 C 0.2426 0.75253 0.79179 0.0
C77 C 0.24558 0.76474 0.8072 0.0
H78 H 0.93003 0.60724 0.47968 0.0
H79 H 0.95748 0.57748 0.44052 0.0
H80 H 0.99042 0.62847 0.46732 0.0
H81 H 0.0061 0.62513 0.42963 0.0
C82 C 0.99678 0.6105 0.42697 0.0
O83 O 0.99161 0.60114 0.44386 0.0
H84 H 0.98363 0.6127 0.41847 0.0
C85 C 0.94268 0.6062 0.47193 0.0
C86 C 0.96025 0.61981 0.47485 0.0
C87 C 0.94149 0.59089 0.45955 0.0
C88 C 0.95807 0.58933 0.44997 0.0
C89 C 0.97557 0.60303 0.45265 0.0
C90 C 0.97665 0.61824 0.46502 0.0
H91 H 0.76057 0.82875 0.83236 0.0
H92 H 0.81237 0.81431 0.81148 0.0
H93 H 0.7825 0.85241 0.77925 0.0
H94 H 0.79906 0.82658 0.75411 0.0
C95 C 0.80746 0.82065 0.76569 0.0
O96 O 0.81111 0.83385 0.77996 0.0
H97 H 0.79859 0.80639 0.7706 0.0
C98 C 0.77137 0.83007 0.82177 0.0
C99 C 0.76991 0.842 0.80575 0.0
C100 C 0.78672 0.82002 0.82418 0.0
C101 C 0.80033 0.82176 0.81004 0.0
C102 C 0.79856 0.83316 0.79383 0.0
C103 C 0.78361 0.8435 0.79182 0.0
H104 H 0.25986 0.33046 0.33481 0.0
H105 H 0.31001 0.31593 0.31051 0.0
H106 H 0.28055 0.3569 0.28226 0.0
H107 H 0.29342 0.33194 0.2553 0.0
C108 C 0.30359 0.32584 0.26506 0.0
O109 O 0.30833 0.33759 0.28036 0.0
H110 H 0.29606 0.31084 0.26946 0.0
C111 C 0.27024 0.33213 0.3238 0.0
C112 C 0.26864 0.34507 0.30863 0.0
C113 C 0.28527 0.32158 0.32486 0.0
C114 C 0.29825 0.32376 0.31012 0.0
C115 C 0.29631 0.33623 0.29475 0.0
C116 C 0.28179 0.34713 0.29417 0.0
H117 H 0.4321 0.99818 0.58846 0.0
H118 H 0.41649 0.98243 0.53113 0.0
H119 H 0.45481 0.95306 0.56346 0.0
H120 H 0.4639 0.97262 0.52346 0.0
C121 C 0.45059 0.96304 0.51717 0.0
O122 O 0.43743 0.95606 0.53088 0.0
H123 H 0.44375 0.97179 0.50658 0.0
C124 C 0.43297 0.98925 0.57664 0.0
C125 C 0.44489 0.97538 0.5782 0.0
C126 C 0.42242 0.99191 0.5598 0.0
C127 C 0.42393 0.98039 0.54446 0.0
C128 C 0.4357 0.96662 0.54587 0.0
C129 C 0.44598 0.964 0.56267 0.0
H130 H 0.2172 0.34633 0.76217 0.0
H131 H 0.19715 0.29189 0.73447 0.0
H132 H 0.24641 0.33296 0.71407 0.0
H133 H 0.2205 0.31465 0.68548 0.0
C134 C 0.21543 0.29982 0.69181 0.0
O135 O 0.224 0.2987 0.7095 0.0
H136 H 0.1993 0.29703 0.69292 0.0
C137 C 0.21865 0.33655 0.7512 0.0
C138 C 0.23354 0.34212 0.73833 0.0
C139 C 0.20533 0.31857 0.74989 0.0
C140 C 0.20721 0.30586 0.7357 0.0
C141 C 0.22218 0.31105 0.72304 0.0
C142 C 0.23526 0.32907 0.72434 0.0
H143 H 0.78642 0.21365 0.75267 0.0
H144 H 0.749 0.23549 0.71138 0.0
H145 H 0.80465 0.27065 0.72665 0.0
H146 H 0.77355 0.29207 0.7243 0.0
C147 C 0.76392 0.28384 0.71318 0.0
O148 O 0.77232 0.26931 0.7069 0.0
H149 H 0.74962 0.27724 0.71925 0.0
C150 C 0.78385 0.22492 0.74269 0.0
C151 C 0.79803 0.24232 0.74093 0.0
C152 C 0.76615 0.22207 0.73198 0.0
C153 C 0.76242 0.23725 0.71991 0.0
C154 C 0.77615 0.25479 0.71842 0.0
C155 C 0.79399 0.25718 0.72858 0.0
H156 H 0.55046 0.63553 0.56922 0.0
H157 H 0.56809 0.58375 0.59158 0.0
H158 H 0.59039 0.6099 0.5397 0.0
H159 H 0.57762 0.56816 0.5398 0.0
C160 C 0.58191 0.56425 0.55441 0.0
O161 O 0.59022 0.58094 0.56392 0.0
H162 H 0.56861 0.55655 0.56163 0.0
C163 C 0.55932 0.62469 0.56858 0.0
C164 C 0.57091 0.62482 0.55305 0.0
C165 C 0.55796 0.60983 0.58251 0.0
C166 C 0.56886 0.59534 0.58101 0.0
C167 C 0.58051 0.59543 0.56563 0.0
C168 C 0.58156 0.61014 0.5517 0.0
H169 H 0.5803 0.4767 0.96421 0.0
H170 H 0.54853 0.42605 0.93575 0.0
H171 H 0.57441 0.47722 0.90385 0.0
H172 H 0.52547 0.42947 0.90716 0.0
C173 C 0.53479 0.43709 0.89581 0.0
O174 O 0.55412 0.4414 0.90201 0.0
H175 H 0.53319 0.42654 0.88434 0.0
C176 C 0.57455 0.46956 0.95132 0.0
C177 C 0.57871 0.47935 0.93399 0.0
C178 C 0.56353 0.45041 0.95215 0.0
C179 C 0.55664 0.44102 0.9354 0.0
C180 C 0.56029 0.4508 0.91806 0.0
C181 C 0.57126 0.46994 0.91735 0.0
H182 H 0.69982 0.28472 0.30432 0.0
H183 H 0.72611 0.25413 0.26519 0.0
H184 H 0.74931 0.25997 0.32182 0.0
H185 H 0.77905 0.26456 0.29443 0.0
C186 C 0.77133 0.25441 0.28359 0.0
O187 O 0.75281 0.24595 0.28915 0.0
H188 H 0.77027 0.2628 0.27018 0.0
C189 C 0.7108 0.27659 0.30139 0.0
C190 C 0.72452 0.27339 0.31553 0.0
C191 C 0.71115 0.2696 0.2833 0.0
C192 C 0.72579 0.25981 0.27905 0.0
C193 C 0.73955 0.2565 0.29297 0.0
C194 C 0.73884 0.26313 0.31114 0.0
H195 H 0.46131 0.0926 0.01256 0.0
H196 H 0.48244 0.07028 0.96404 0.0
H197 H 0.51585 0.1218 0.98958 0.0
H198 H 0.52215 0.12225 0.94715 0.0
C199 C 0.51387 0.10697 0.94579 0.0
O200 O 0.51452 0.09717 0.96282 0.0
H201 H 0.49857 0.10749 0.9412 0.0
C202 C 0.47251 0.09336 0.00244 0.0
C203 C 0.4889 0.10881 0.00288 0.0
C204 C 0.46994 0.07952 0.98836 0.0
C205 C 0.48417 0.08091 0.97495 0.0
C206 C 0.50072 0.09608 0.97554 0.0
C207 C 0.50303 0.11004 0.98938 0.0
O208 O 0.24729 0.89449 0.9833 0.0
Cd209 Cd 0.25659 0.91179 0.00612 0.0
Cd210 Cd 0.24023 0.93705 0.98468 0.0
O211 O 0.23311 0.91469 0.96612 0.0
O212 O 0.26562 0.89308 0.02419 0.0
O213 O 0.24208 0.90816 0.03024 0.0
C214 C 0.25294 0.89607 0.03556 0.0
C215 C 0.2163 0.95144 0.99599 0.0
C216 C 0.23802 0.89833 0.96839 0.0
C217 C 0.28287 0.94938 0.99356 0.0
O218 O 0.26824 0.95342 0.98434 0.0
O219 O 0.28109 0.9338 0.00357 0.0
O220 O 0.22235 0.95519 0.97919 0.0
O221 O 0.22367 0.93909 0.00636 0.0
O222 O 0.14341 0.53069 0.26734 0.0
Cd223 Cd 0.12891 0.50726 0.28288 0.0
Cd224 Cd 0.09695 0.51505 0.2611 0.0
O225 O 0.11783 0.53877 0.25254 0.0
O226 O 0.15058 0.49686 0.29537 0.0
O227 O 0.12854 0.47956 0.27607 0.0
C228 C 0.14399 0.48076 0.28692 0.0
C229 C 0.07369 0.50208 0.23789 0.0
C230 C 0.1361 0.54207 0.25629 0.0
C231 C 0.09533 0.51498 0.30341 0.0
O232 O 0.08645 0.51511 0.28751 0.0
O233 O 0.11286 0.51282 0.3047 0.0
O234 O 0.07351 0.51828 0.24563 0.0
O235 O 0.08725 0.49297 0.24327 0.0
O236 O 0.76531 0.68877 0.99292 0.0
Cd237 Cd 0.75292 0.66724 0.01181 0.0
Cd238 Cd 0.7786 0.64822 0.99714 0.0
O239 O 0.78769 0.67429 0.9828 0.0
O240 O 0.73697 0.68027 0.02734 0.0
O241 O 0.76221 0.66884 0.03903 0.0
C242 C 0.74819 0.67766 0.04158 0.0
C243 C 0.8017 0.63259 0.01188 0.0
C244 C 0.7796 0.68886 0.9826 0.0
C245 C 0.73608 0.63081 0.99074 0.0
O246 O 0.75345 0.63033 0.98688 0.0
O247 O 0.73279 0.64381 0.00132 0.0
O248 O 0.79936 0.63345 0.99388 0.0
O249 O 0.79108 0.64106 0.0217 0.0
O250 O 0.91479 0.04865 0.26885 0.0
Cd251 Cd 0.89975 0.0524 0.24404 0.0
Cd252 Cd 0.8742 0.06243 0.26783 0.0
O253 O 0.89481 0.05751 0.28808 0.0
O254 O 0.91825 0.04893 0.22492 0.0
O255 O 0.9086 0.07662 0.22779 0.0
C256 C 0.91902 0.06672 0.21937 0.0
C257 C 0.86331 0.09155 0.2685 0.0
C258 C 0.91033 0.05159 0.28536 0.0
C259 C 0.85902 0.02753 0.24432 0.0
O260 O 0.85524 0.03843 0.25683 0.0
O261 O 0.87572 0.03099 0.23726 0.0
O262 O 0.85762 0.07742 0.28036 0.0
O263 O 0.87535 0.08916 0.25608 0.0
O264 O 0.27227 0.19124 0.49395 0.0
Cd265 Cd 0.25996 0.17188 0.51479 0.0
Cd266 Cd 0.28251 0.14922 0.49799 0.0
O267 O 0.29137 0.17406 0.48182 0.0
O268 O 0.2454 0.18763 0.52898 0.0
O269 O 0.26979 0.17568 0.54181 0.0
C270 C 0.25643 0.18557 0.5435 0.0
C271 C 0.3054 0.13156 0.50962 0.0
C272 C 0.28477 0.18954 0.48213 0.0
C273 C 0.23903 0.13458 0.49688 0.0
O274 O 0.25541 0.13262 0.49134 0.0
O275 O 0.2379 0.14867 0.50711 0.0
O276 O 0.29999 0.13159 0.49213 0.0
O277 O 0.29825 0.1422 0.52063 0.0
O278 O 0.42576 0.54946 0.77653 0.0
Cd279 Cd 0.40713 0.55273 0.75407 0.0
Cd280 Cd 0.3856 0.56137 0.78205 0.0
O281 O 0.40903 0.55731 0.79933 0.0
O282 O 0.42266 0.54907 0.73247 0.0
O283 O 0.41364 0.57675 0.73703 0.0
C284 C 0.42274 0.56679 0.72714 0.0
C285 C 0.3749 0.59056 0.78179 0.0
C286 C 0.42404 0.55203 0.79383 0.0
C287 C 0.36755 0.52656 0.7597 0.0
O288 O 0.36569 0.53687 0.77347 0.0
O289 O 0.38269 0.53085 0.75004 0.0
O290 O 0.37096 0.57777 0.79528 0.0
O291 O 0.38537 0.58689 0.76849 0.0
O292 O 0.74678 0.38557 0.49161 0.0
Cd293 Cd 0.75515 0.40606 0.51185 0.0
Cd294 Cd 0.72967 0.42372 0.49319 0.0
O295 O 0.72272 0.39796 0.47876 0.0
O296 O 0.76841 0.39332 0.53241 0.0
O297 O 0.74096 0.40335 0.53592 0.0
C298 C 0.75456 0.39509 0.54302 0.0
C299 C 0.70562 0.43712 0.5058 0.0
C300 C 0.73262 0.3847 0.47969 0.0
C301 C 0.77178 0.44403 0.49283 0.0
O302 O 0.75461 0.44367 0.48609 0.0
O303 O 0.77503 0.43073 0.50432 0.0
O304 O 0.70788 0.43748 0.48797 0.0
O305 O 0.71662 0.42838 0.51656 0.0
O306 O 0.64197 0.02641 0.77111 0.0
Cd307 Cd 0.62719 0.00218 0.78548 0.0
Cd308 Cd 0.5961 0.01064 0.76356 0.0
O309 O 0.61693 0.03439 0.75524 0.0
O310 O 0.64871 0.99133 0.79773 0.0
O311 O 0.6272 0.97495 0.77738 0.0
C312 C 0.64249 0.97574 0.78838 0.0
C313 C 0.57322 0.99708 0.74033 0.0
C314 C 0.63501 0.03787 0.75984 0.0
C315 C 0.59363 0.01032 0.80575 0.0
O316 O 0.58536 0.01149 0.78967 0.0
O317 O 0.61068 0.00683 0.80733 0.0
O318 O 0.57277 0.01339 0.74773 0.0
O319 O 0.58688 0.98823 0.74602 0.0
O320 O 0.98627 0.29584 0.91288 0.0
Cd321 Cd 0.99108 0.27325 0.89725 0.0
Cd322 Cd 0.00839 0.30237 0.87524 0.0
O323 O 0.00551 0.31945 0.89733 0.0
O324 O 0.98816 0.25 0.91454 0.0
O325 O 0.01617 0.26418 0.90219 0.0
C326 C 0.00658 0.25084 0.91314 0.0
C327 C 0.0385 0.30463 0.86198 0.0
C328 C 0.99453 0.31373 0.91098 0.0
C329 C 0.97181 0.27669 0.85974 0.0
O330 O 0.98395 0.29284 0.85814 0.0
O331 O 0.97296 0.26543 0.87392 0.0
O332 O 0.02838 0.31781 0.85863 0.0
O333 O 0.03168 0.2903 0.87333 0.0
O334 O 0.48634 0.7933 0.41177 0.0
Cd335 Cd 0.48927 0.76957 0.39701 0.0
Cd336 Cd 0.50738 0.79651 0.37305 0.0
O337 O 0.50507 0.81527 0.39406 0.0
O338 O 0.48643 0.74716 0.41528 0.0
O339 O 0.51396 0.75967 0.40125 0.0
C340 C 0.50461 0.74724 0.41315 0.0
C341 C 0.53752 0.79836 0.35991 0.0
C342 C 0.49482 0.81087 0.40842 0.0
C343 C 0.46939 0.77133 0.35948 0.0
O344 O 0.48284 0.78617 0.35622 0.0
O345 O 0.46968 0.76164 0.37484 0.0
O346 O 0.52726 0.8113 0.35597 0.0
O347 O 0.53075 0.78438 0.37163 0.0
O348 O 0.98151 0.76899 0.68043 0.0
Cd349 Cd 0.00224 0.76244 0.6638 0.0
Cd350 Cd 0.99638 0.79359 0.64198 0.0
O351 O 0.97863 0.79542 0.6638 0.0
O352 O 0.01938 0.74811 0.67891 0.0
O353 O 0.02967 0.77782 0.66656 0.0
C354 C 0.03342 0.76302 0.67627 0.0
C355 C 0.01231 0.82289 0.62808 0.0
C356 C 0.97403 0.78389 0.67779 0.0
C357 C 0.98804 0.75386 0.62456 0.0
O358 O 0.98816 0.77193 0.62268 0.0
O359 O 0.99314 0.74676 0.64014 0.0
O360 O 0.99368 0.81693 0.62646 0.0
O361 O 0.02212 0.81244 0.63827 0.0
O362 O 0.485 0.29369 0.17816 0.0
Cd363 Cd 0.50686 0.2846 0.16505 0.0
Cd364 Cd 0.49582 0.30657 0.13505 0.0
O365 O 0.47585 0.3106 0.15399 0.0
O366 O 0.523 0.27504 0.18533 0.0
O367 O 0.53466 0.29967 0.16594 0.0
C368 C 0.53763 0.28807 0.17975 0.0
C369 C 0.5082 0.3332 0.11542 0.0
C370 C 0.47384 0.30423 0.17082 0.0
C371 C 0.49459 0.26373 0.12951 0.0
O372 O 0.49273 0.28012 0.12243 0.0
O373 O 0.49948 0.26206 0.14674 0.0
O374 O 0.49045 0.32365 0.11356 0.0
O375 O 0.51908 0.32789 0.12888 0.0
H376 H 0.22765 0.81431 0.81135 0.0
H377 H 0.22859 0.83407 0.83886 0.0
H378 H 0.24468 0.78818 0.87403 0.0
H379 H 0.24294 0.76793 0.84655 0.0
H380 H 0.21642 0.80165 0.88914 0.0
H381 H 0.278 0.83032 0.86372 0.0
H382 H 0.30069 0.84522 0.83934 0.0
H383 H 0.27116 0.89282 0.83207 0.0
H384 H 0.24811 0.87807 0.85622 0.0
H385 H 0.24448 0.86122 0.9692 0.0
H386 H 0.24274 0.83977 0.94275 0.0
H387 H 0.22247 0.88226 0.90617 0.0
H388 H 0.22423 0.90389 0.93253 0.0
H389 H 0.25353 0.87004 0.89242 0.0
H390 H 0.19173 0.84066 0.91803 0.0
H391 H 0.16962 0.82561 0.9428 0.0
H392 H 0.20062 0.77913 0.95035 0.0
H393 H 0.2231 0.79406 0.92578 0.0
C394 C 0.23139 0.8084 0.82494 0.0
C395 C 0.23513 0.7895 0.82678 0.0
C396 C 0.2321 0.8198 0.84064 0.0
C397 C 0.23686 0.81268 0.8585 0.0
C398 C 0.241 0.79397 0.86037 0.0
C399 C 0.2402 0.7825 0.84464 0.0
C400 C 0.23677 0.82453 0.87525 0.0
C401 C 0.22479 0.8165 0.89 0.0
C402 C 0.24735 0.84405 0.87618 0.0
C403 C 0.26122 0.85299 0.86167 0.0
C404 C 0.27625 0.84389 0.85682 0.0
C405 C 0.28919 0.85232 0.84306 0.0
C406 C 0.28734 0.86993 0.83413 0.0
C407 C 0.27257 0.87917 0.83898 0.0
C408 C 0.25957 0.87079 0.85272 0.0
C409 C 0.23938 0.86591 0.95559 0.0
C410 C 0.23457 0.88432 0.95297 0.0
C411 C 0.23835 0.8536 0.9405 0.0
C412 C 0.23247 0.85943 0.92252 0.0
C413 C 0.22709 0.87752 0.91995 0.0
C414 C 0.22801 0.88982 0.93505 0.0
C415 C 0.23308 0.8472 0.90619 0.0
C416 C 0.2452 0.85517 0.89155 0.0
C417 C 0.22274 0.82761 0.90543 0.0
C418 C 0.20922 0.81859 0.92019 0.0
C419 C 0.19394 0.82732 0.92508 0.0
C420 C 0.18132 0.81879 0.93906 0.0
C421 C 0.18375 0.80145 0.94818 0.0
C422 C 0.19877 0.79258 0.94329 0.0
C423 C 0.21145 0.80106 0.92933 0.0
H424 H 0.17396 0.79487 0.959 0.0
H425 H 0.29738 0.87643 0.82348 0.0
H426 H 0.03448 0.60692 0.43356 0.0
H427 H 0.05259 0.58692 0.41694 0.0
H428 H 0.00184 0.567 0.38062 0.0
H429 H 0.98363 0.58658 0.39756 0.0
H430 H 0.01888 0.53755 0.3908 0.0
H431 H 0.04014 0.6035 0.36665 0.0
H432 H 0.05406 0.63872 0.36886 0.0
H433 H 0.10725 0.6264 0.39369 0.0
H434 H 0.09353 0.59108 0.39184 0.0
H435 H 0.05666 0.51438 0.30672 0.0
H436 H 0.04142 0.52625 0.33261 0.0
H437 H 0.09658 0.53743 0.36393 0.0
H438 H 0.11204 0.52557 0.33796 0.0
H439 H 0.08018 0.56934 0.36053 0.0
H440 H 0.0599 0.50282 0.37972 0.0
H441 H 0.04568 0.46785 0.37605 0.0
H442 H 0.99032 0.48123 0.35918 0.0
H443 H 0.00428 0.51632 0.36248 0.0
C444 C 0.02731 0.5983 0.42197 0.0
C445 C 0.00789 0.59857 0.41648 0.0
C446 C 0.03761 0.5869 0.41251 0.0
C447 C 0.02865 0.5757 0.39736 0.0
C448 C 0.00905 0.57558 0.39223 0.0
C449 C 0.99872 0.58687 0.40177 0.0
C450 C 0.03976 0.56448 0.38648 0.0
C451 C 0.03223 0.5445 0.38408 0.0
C452 C 0.05749 0.57344 0.37819 0.0
C453 C 0.06573 0.59466 0.37932 0.0
C454 C 0.05474 0.6083 0.37272 0.0
C455 C 0.0626 0.62828 0.37388 0.0
C456 C 0.0815 0.63479 0.38147 0.0
C457 C 0.0926 0.62133 0.38786 0.0
C458 C 0.08479 0.60134 0.38675 0.0
C459 C 0.0655 0.51901 0.31925 0.0
C460 C 0.0856 0.51919 0.32023 0.0
C461 C 0.05673 0.52569 0.33409 0.0
C462 C 0.06786 0.53265 0.35021 0.0
C463 C 0.08774 0.53206 0.3516 0.0
C464 C 0.09653 0.52523 0.33679 0.0
C465 C 0.0591 0.54249 0.36451 0.0
C466 C 0.06705 0.56226 0.36753 0.0
C467 C 0.04169 0.53335 0.37322 0.0
C468 C 0.03319 0.51224 0.37124 0.0
C469 C 0.04474 0.49833 0.37509 0.0
C470 C 0.03671 0.47847 0.3731 0.0
C471 C 0.01712 0.47232 0.36736 0.0
C472 C 0.0055 0.48601 0.36363 0.0
C473 C 0.01345 0.50589 0.36558 0.0
H474 H 0.01093 0.45695 0.36583 0.0
H475 H 0.08756 0.65026 0.38234 0.0
H476 H 0.77931 0.82699 0.86043 0.0
H477 H 0.78133 0.80619 0.88826 0.0
H478 H 0.80138 0.76491 0.8549 0.0
H479 H 0.7981 0.78494 0.8268 0.0
H480 H 0.77557 0.74623 0.87672 0.0
H481 H 0.83245 0.7965 0.88606 0.0
H482 H 0.85157 0.83014 0.88867 0.0
H483 H 0.81856 0.83888 0.93553 0.0
H484 H 0.79904 0.80536 0.93304 0.0
H485 H 0.8031 0.69005 0.95297 0.0
H486 H 0.80817 0.71444 0.92737 0.0
H487 H 0.77434 0.74866 0.95519 0.0
H488 H 0.76899 0.72425 0.98086 0.0
H489 H 0.8089 0.77092 0.9366 0.0
H490 H 0.75103 0.72032 0.92502 0.0
H491 H 0.73341 0.68612 0.92236 0.0
H492 H 0.77094 0.67778 0.87899 0.0
H493 H 0.78898 0.71188 0.88162 0.0
C494 C 0.78394 0.81339 0.85894 0.0
C495 C 0.78852 0.80767 0.84131 0.0
C496 C 0.7854 0.80164 0.87495 0.0
C497 C 0.79184 0.78412 0.87376 0.0
C498 C 0.79649 0.77842 0.85621 0.0
C499 C 0.79479 0.79001 0.84016 0.0
C500 C 0.79284 0.77126 0.89062 0.0
C501 C 0.78317 0.75162 0.88968 0.0
C502 C 0.80245 0.77829 0.9077 0.0
C503 C 0.81416 0.79847 0.90925 0.0
C504 C 0.82916 0.80564 0.89683 0.0
C505 C 0.84009 0.82468 0.8983 0.0
C506 C 0.83625 0.83666 0.91222 0.0
C507 C 0.8215 0.82959 0.92473 0.0
C508 C 0.81051 0.81057 0.92331 0.0
C509 C 0.79706 0.70295 0.95388 0.0
C510 C 0.78544 0.7051 0.96885 0.0
C511 C 0.79996 0.71684 0.93922 0.0
C512 C 0.79145 0.73319 0.93936 0.0
C513 C 0.781 0.7361 0.95487 0.0
C514 C 0.7779 0.7221 0.96946 0.0
C515 C 0.79173 0.74611 0.92251 0.0
C516 C 0.80151 0.76566 0.92352 0.0
C517 C 0.78246 0.73899 0.90539 0.0
C518 C 0.77148 0.71857 0.90366 0.0
C519 C 0.75562 0.71114 0.91503 0.0
C520 C 0.74555 0.69179 0.91351 0.0
C521 C 0.75109 0.67977 0.90055 0.0
C522 C 0.76668 0.6871 0.88905 0.0
C523 C 0.77683 0.70644 0.89054 0.0
H524 H 0.74327 0.66479 0.8994 0.0
H525 H 0.84473 0.85139 0.91334 0.0
H526 H 0.98641 0.99511 0.44043 0.0
H527 H 0.97226 0.01318 0.41535 0.0
H528 H 0.99791 0.98421 0.37402 0.0
H529 H 0.01201 0.96597 0.3991 0.0
H530 H 0.00081 0.02478 0.36615 0.0
H531 H 0.95255 0.96738 0.38258 0.0
H532 H 0.93184 0.94481 0.4043 0.0
H533 H 0.90479 0.99099 0.4199 0.0
H534 H 0.92556 0.01391 0.39845 0.0
H535 H 0.94193 0.03469 0.28473 0.0
H536 H 0.96066 0.02441 0.31138 0.0
H537 H 0.92601 0.0479 0.34927 0.0
H538 H 0.90678 0.05782 0.3226 0.0
H539 H 0.92851 0.01254 0.36029 0.0
H540 H 0.97463 0.06958 0.34207 0.0
H541 H 0.99524 0.09238 0.32047 0.0
H542 H 0.02636 0.04808 0.30851 0.0
H543 H 0.00575 0.0249 0.32985 0.0
C544 C 0.98931 0.99287 0.42601 0.0
C545 C 0.0006 0.97944 0.4217 0.0
C546 C 0.98118 0.00313 0.41172 0.0
C547 C 0.98405 -1e-05 0.39287 0.0
C548 C 0.99569 0.98693 0.38851 0.0
C549 C 0.00372 0.97655 0.40281 0.0
C550 C 0.97389 0.00942 0.3777 0.0
C551 C 0.98501 0.02203 0.36472 0.0
C552 C 0.95329 0.00617 0.37622 0.0
C553 C 0.94076 0.9924 0.38908 0.0
C554 C 0.94231 0.97276 0.39076 0.0
C555 C 0.93053 0.9599 0.403 0.0
C556 C 0.91705 0.96648 0.41352 0.0
C557 C 0.91527 0.98592 0.41177 0.0
C558 C 0.92703 0.99885 0.39957 0.0
C559 C 0.9384 0.0379 0.2987 0.0
C560 C 0.9228 0.04703 0.30152 0.0
C561 C 0.94923 0.0321 0.31396 0.0
C562 C 0.94489 0.03556 0.33234 0.0
C563 C 0.92962 0.0451 0.3352 0.0
C564 C 0.91868 0.05078 0.31994 0.0
C565 C 0.95538 0.02797 0.34855 0.0
C566 C 0.94432 0.01558 0.36175 0.0
C567 C 0.97603 0.03153 0.35025 0.0
C568 C 0.98853 0.04545 0.33746 0.0
C569 C 0.98577 0.06465 0.33473 0.0
C570 C 0.99747 0.07765 0.32255 0.0
C571 C 0.01207 0.07167 0.3131 0.0
C572 C 0.01503 0.05269 0.31584 0.0
C573 C 0.00336 0.03962 0.32799 0.0
H574 H 0.02111 0.08176 0.30367 0.0
H575 H 0.90794 0.9565 0.42298 0.0
H576 H 0.25076 0.28883 0.69015 0.0
H577 H 0.25982 0.26645 0.66834 0.0
H578 H 0.20199 0.25719 0.64215 0.0
H579 H 0.19273 0.27898 0.66436 0.0
H580 H 0.21327 0.22384 0.64556 0.0
H581 H 0.24215 0.28883 0.62323 0.0
H582 H 0.26285 0.32183 0.6256 0.0
H583 H 0.31333 0.29725 0.63745 0.0
H584 H 0.29287 0.26408 0.63537 0.0
H585 H 0.22481 0.1991 0.55294 0.0
H586 H 0.2203 0.21511 0.5816 0.0
H587 H 0.27714 0.20864 0.60307 0.0
H588 H 0.28175 0.19228 0.57427 0.0
H589 H 0.26983 0.24702 0.6054 0.0
H590 H 0.24012 0.18154 0.62278 0.0
H591 H 0.21852 0.14924 0.61861 0.0
H592 H 0.1685 0.17555 0.61431 0.0
H593 H 0.18982 0.20806 0.61817 0.0
C594 C 0.23991 0.28172 0.67994 0.0
C595 C 0.22089 0.28525 0.67921 0.0
C596 C 0.24515 0.26909 0.66737 0.0
C597 C 0.23163 0.26021 0.6535 0.0
C598 C 0.21263 0.26373 0.6528 0.0
C599 C 0.20735 0.27619 0.66547 0.0
C600 C 0.23726 0.24763 0.63935 0.0
C601 C 0.22558 0.22897 0.63673 0.0
C602 C 0.25365 0.25407 0.62814 0.0
C603 C 0.26595 0.27399 0.62938 0.0
C604 C 0.25764 0.29047 0.62649 0.0
C605 C 0.26933 0.3092 0.62775 0.0
C606 C 0.28938 0.31163 0.63173 0.0
C607 C 0.29779 0.29534 0.6344 0.0
C608 C 0.28616 0.27657 0.63318 0.0
C609 C 0.23634 0.20095 0.56378 0.0
C610 C 0.25366 0.19445 0.56134 0.0
C611 C 0.23369 0.21002 0.58019 0.0
C612 C 0.24832 0.21292 0.59449 0.0
C613 C 0.26565 0.20645 0.5922 0.0
C614 C 0.26823 0.19708 0.5758 0.0
C615 C 0.24557 0.2235 0.61138 0.0
C616 C 0.25775 0.24179 0.61449 0.0
C617 C 0.22951 0.21682 0.62289 0.0
C618 C 0.2166 0.19727 0.62065 0.0
C619 C 0.22453 0.18046 0.62081 0.0
C620 C 0.21233 0.16211 0.61852 0.0
C621 C 0.19216 0.16035 0.61617 0.0
C622 C 0.18413 0.17694 0.61613 0.0
C623 C 0.19626 0.19533 0.6184 0.0
H624 H 0.18274 0.14612 0.6144 0.0
H625 H 0.29841 0.32614 0.6327 0.0
H626 H 0.55094 0.63952 0.60334 0.0
H627 H 0.5262 0.63749 0.62688 0.0
H628 H 0.50871 0.57544 0.61941 0.0
H629 H 0.53294 0.57743 0.59564 0.0
H630 H 0.47751 0.59265 0.61906 0.0
H631 H 0.53696 0.594 0.65719 0.0
H632 H 0.57061 0.60824 0.66831 0.0
H633 H 0.55234 0.65945 0.68509 0.0
H634 H 0.5186 0.64561 0.67384 0.0
H635 H 0.43406 0.5471 0.69924 0.0
H636 H 0.45465 0.56033 0.67335 0.0
H637 H 0.45715 0.61872 0.69158 0.0
H638 H 0.43623 0.60545 0.71773 0.0
H639 H 0.49393 0.61073 0.6853 0.0
H640 H 0.43321 0.60652 0.65211 0.0
H641 H 0.39952 0.59175 0.64157 0.0
H642 H 0.41985 0.54598 0.61567 0.0
H643 H 0.45364 0.56029 0.62628 0.0
C644 C 0.5418 0.62546 0.60674 0.0
C645 C 0.54396 0.60862 0.59769 0.0
C646 C 0.52775 0.62431 0.62024 0.0
C647 C 0.51566 0.60631 0.62491 0.0
C648 C 0.51787 0.58949 0.61598 0.0
C649 C 0.5319 0.59062 0.60255 0.0
C650 C 0.5005 0.60475 0.63899 0.0
C651 C 0.48109 0.59655 0.63356 0.0
C652 C 0.50507 0.61057 0.65772 0.0
C653 C 0.52533 0.61889 0.66445 0.0
C654 C 0.54016 0.60838 0.66309 0.0
C655 C 0.55924 0.61636 0.66945 0.0
C656 C 0.56363 0.63477 0.67734 0.0
C657 C 0.54893 0.64521 0.67894 0.0
C658 C 0.52983 0.63731 0.67258 0.0
C659 C 0.43877 0.56278 0.69765 0.0
C660 C 0.43357 0.57525 0.71052 0.0
C661 C 0.45047 0.57032 0.68278 0.0
C662 C 0.45731 0.5905 0.68048 0.0
C663 C 0.45192 0.6031 0.69311 0.0
C664 C 0.43994 0.59552 0.70794 0.0
C665 C 0.47109 0.59795 0.6655 0.0
C666 C 0.49024 0.60727 0.67071 0.0
C667 C 0.46629 0.59315 0.64656 0.0
C668 C 0.44598 0.58445 0.64009 0.0
C669 C 0.43049 0.59322 0.64428 0.0
C670 C 0.41137 0.58494 0.63827 0.0
C671 C 0.40754 0.56793 0.62798 0.0
C672 C 0.42284 0.55916 0.62364 0.0
C673 C 0.44199 0.56737 0.62962 0.0
H674 H 0.39273 0.56154 0.62334 0.0
H675 H 0.5784 0.64092 0.68226 0.0
H676 H 0.73019 0.29435 0.69949 0.0
H677 H 0.72633 0.3165 0.67288 0.0
H678 H 0.78816 0.32634 0.66416 0.0
H679 H 0.79208 0.30466 0.69112 0.0
H680 H 0.77619 0.35948 0.65994 0.0
H681 H 0.75402 0.29422 0.63747 0.0
H682 H 0.73384 0.26086 0.63748 0.0
H683 H 0.68188 0.28392 0.63032 0.0
H684 H 0.70176 0.31744 0.63052 0.0
H685 H 0.78442 0.38446 0.5636 0.0
H686 H 0.78343 0.36924 0.59492 0.0
H687 H 0.72291 0.37232 0.59785 0.0
H688 H 0.72382 0.3878 0.56638 0.0
H689 H 0.73056 0.33516 0.60669 0.0
H690 H 0.75441 0.4009 0.62481 0.0
H691 H 0.77568 0.4337 0.62369 0.0
H692 H 0.82575 0.40916 0.63789 0.0
H693 H 0.80482 0.37616 0.63882 0.0
C694 C 0.74292 0.30133 0.6919 0.0
C695 C 0.7614 0.29769 0.69714 0.0
C696 C 0.74072 0.31391 0.67669 0.0
C697 C 0.75691 0.32286 0.66635 0.0
C698 C 0.77545 0.31958 0.6719 0.0
C699 C 0.77768 0.30715 0.6872 0.0
C700 C 0.7546 0.33525 0.64944 0.0
C701 C 0.7663 0.35412 0.64825 0.0
C702 C 0.74131 0.32846 0.63439 0.0
C703 C 0.72935 0.30833 0.63424 0.0
C704 C 0.73828 0.29217 0.63605 0.0
C705 C 0.7269 0.27324 0.63599 0.0
C706 C 0.70659 0.27027 0.63396 0.0
C707 C 0.69762 0.28624 0.63193 0.0
C708 C 0.70893 0.30521 0.63201 0.0
C709 C 0.77094 0.38209 0.57096 0.0
C710 C 0.75418 0.38727 0.56252 0.0
C711 C 0.77043 0.37348 0.58889 0.0
C712 C 0.75314 0.36978 0.59872 0.0
C713 C 0.73641 0.37515 0.59048 0.0
C714 C 0.73698 0.38402 0.57256 0.0
C715 C 0.75243 0.35918 0.61707 0.0
C716 C 0.7402 0.34064 0.61852 0.0
C717 C 0.76538 0.36618 0.63226 0.0
C718 C 0.77804 0.38602 0.63176 0.0
C719 C 0.76998 0.40247 0.62755 0.0
C720 C 0.78197 0.42111 0.62698 0.0
C721 C 0.80206 0.42351 0.63068 0.0
C722 C 0.81019 0.40727 0.63501 0.0
C723 C 0.79826 0.3886 0.63559 0.0
H724 H 0.81132 0.43795 0.63024 0.0
H725 H 0.69781 0.2556 0.63391 0.0
H726 H 0.482 0.96845 0.58163 0.0
H727 H 0.5021 0.96701 0.61029 0.0
H728 H 0.45553 0.97737 0.64311 0.0
H729 H 0.43484 0.97784 0.61464 0.0
H730 H 0.49342 0.00395 0.64799 0.0
H731 H 0.46423 0.93525 0.64738 0.0
H732 H 0.4553 0.9029 0.63325 0.0
H733 H 0.51586 0.90313 0.62669 0.0
H734 H 0.52514 0.93564 0.64053 0.0
H735 H 0.53577 0.00114 0.73716 0.0
H736 H 0.51263 0.99262 0.71068 0.0
H737 H 0.55494 0.96826 0.68294 0.0
H738 H 0.57788 0.97593 0.71006 0.0
H739 H 0.51947 0.94791 0.67481 0.0
H740 H 0.54963 0.01549 0.67314 0.0
H741 H 0.56055 0.04861 0.68528 0.0
H742 H 0.50105 0.05187 0.69317 0.0
H743 H 0.48979 0.01864 0.68132 0.0
C744 C 0.47576 0.96991 0.59494 0.0
C745 C 0.45676 0.97335 0.59575 0.0
C746 C 0.48735 0.96916 0.6113 0.0
C747 C 0.48024 0.97204 0.62875 0.0
C748 C 0.46123 0.97513 0.62972 0.0
C749 C 0.44951 0.97558 0.6134 0.0
C750 C 0.49321 0.97344 0.64579 0.0
C751 C 0.49887 0.99164 0.65407 0.0
C752 C 0.50092 0.95753 0.65311 0.0
C753 C 0.49536 0.93797 0.64482 0.0
C754 C 0.47563 0.92849 0.64276 0.0
C755 C 0.47051 0.9101 0.63484 0.0
C756 C 0.485 0.90099 0.62903 0.0
C757 C 0.50465 0.91022 0.63117 0.0
C758 C 0.50985 0.92862 0.63907 0.0
C759 C 0.54001 0.99367 0.72554 0.0
C760 C 0.55865 0.9894 0.72548 0.0
C761 C 0.52682 0.98888 0.71039 0.0
C762 C 0.53227 0.98036 0.69457 0.0
C763 C 0.55049 0.97499 0.69494 0.0
C764 C 0.56357 0.97938 0.71039 0.0
C765 C 0.51945 0.97841 0.67729 0.0
C766 C 0.51395 0.96021 0.66883 0.0
C767 C 0.51218 0.99445 0.66947 0.0
C768 C 0.51888 0.0145 0.6765 0.0
C769 C 0.53888 0.02322 0.67758 0.0
C770 C 0.54513 0.04202 0.6844 0.0
C771 C 0.53151 0.05232 0.69004 0.0
C772 C 0.51159 0.04386 0.68882 0.0
C773 C 0.50526 0.02505 0.68204 0.0
H774 H 0.53637 0.06688 0.69531 0.0
H775 H 0.481 0.88675 0.6229 0.0
H776 H 0.81958 0.2147 0.75062 0.0
H777 H 0.84997 0.21886 0.76965 0.0
H778 H 0.85055 0.27997 0.77437 0.0
H779 H 0.81957 0.27587 0.75633 0.0
H780 H 0.88778 0.26835 0.7634 0.0
H781 H 0.83717 0.25614 0.80949 0.0
H782 H 0.80723 0.23685 0.82311 0.0
H783 H 0.83424 0.18749 0.8307 0.0
H784 H 0.86424 0.20643 0.81684 0.0
H785 H 0.95744 0.30131 0.83525 0.0
H786 H 0.92923 0.29349 0.81355 0.0
H787 H 0.92161 0.23262 0.83002 0.0
H788 H 0.94935 0.24059 0.85255 0.0
H789 H 0.88835 0.24125 0.82857 0.0
H790 H 0.93936 0.252 0.78568 0.0
H791 H 0.96956 0.26888 0.77081 0.0
H792 H 0.94313 0.3173 0.75516 0.0
H793 H 0.91285 0.30084 0.77017 0.0
C794 C 0.82594 0.22899 0.75591 0.0
C795 C 0.81694 0.24492 0.75197 0.0
C796 C 0.84343 0.23135 0.76662 0.0
C797 C 0.85242 0.2497 0.77333 0.0
C798 C 0.84382 0.26572 0.76915 0.0
C799 C 0.82615 0.26333 0.75874 0.0
C800 C 0.87059 0.25215 0.78514 0.0
C801 C 0.88798 0.26261 0.77772 0.0
C802 C 0.87083 0.24394 0.80348 0.0
C803 C 0.85285 0.23262 0.81193 0.0
C804 C 0.83665 0.24112 0.81389 0.0
C805 C 0.81969 0.23026 0.82169 0.0
C806 C 0.81881 0.21093 0.82771 0.0
C807 C 0.83492 0.20245 0.826 0.0
C808 C 0.85191 0.21324 0.81818 0.0
C809 C 0.94989 0.28623 0.83412 0.0
C810 C 0.95563 0.27155 0.84557 0.0
C811 C 0.9338 0.28174 0.8216 0.0
C812 C 0.92343 0.26239 0.81984 0.0
C813 C 0.92936 0.24765 0.83108 0.0
C814 C 0.94524 0.2522 0.84391 0.0
C815 C 0.90581 0.25782 0.80703 0.0
C816 C 0.88841 0.2469 0.81422 0.0
C817 C 0.90569 0.26526 0.78829 0.0
C818 C 0.92387 0.27523 0.77919 0.0
C819 C 0.94003 0.26631 0.77919 0.0
C820 C 0.95716 0.2758 0.77071 0.0
C821 C 0.95827 0.29417 0.76208 0.0
C822 C 0.94225 0.30308 0.76186 0.0
C823 C 0.92508 0.29366 0.77033 0.0
H824 H 0.97155 0.30149 0.75552 0.0
H825 H 0.80567 0.20255 0.83375 0.0
H826 H 0.48361 0.96445 0.49833 0.0
H827 H 0.49287 0.93858 0.48092 0.0
H828 H 0.43959 0.89906 0.49604 0.0
H829 H 0.43014 0.92487 0.51323 0.0
H830 H 0.47348 0.88268 0.50029 0.0
H831 H 0.44119 0.9186 0.45435 0.0
H832 H 0.43593 0.94826 0.43709 0.0
H833 H 0.49419 0.95855 0.41737 0.0
H834 H 0.49989 0.92908 0.43474 0.0
H835 H 0.46793 0.80818 0.4353 0.0
H836 H 0.46238 0.83402 0.45488 0.0
H837 H 0.51032 0.87423 0.42991 0.0
H838 H 0.51552 0.84856 0.40974 0.0
H839 H 0.48095 0.89095 0.43152 0.0
H840 H 0.51342 0.85476 0.47575 0.0
H841 H 0.51962 0.82553 0.49313 0.0
H842 H 0.46307 0.81628 0.51658 0.0
H843 H 0.4564 0.84531 0.49912 0.0
C844 C 0.474 0.95016 0.49808 0.0
C845 C 0.45641 0.94656 0.50749 0.0
C846 C 0.47926 0.93546 0.48811 0.0
C847 C 0.46692 0.91694 0.48727 0.0
C848 C 0.44937 0.91323 0.4967 0.0
C849 C 0.44402 0.92799 0.50652 0.0
C850 C 0.47204 0.90158 0.47606 0.0
C851 C 0.47494 0.88435 0.48523 0.0
C852 C 0.47447 0.90409 0.45652 0.0
C853 C 0.47104 0.92176 0.44601 0.0
C854 C 0.45294 0.92728 0.44647 0.0
C855 C 0.44987 0.94404 0.43664 0.0
C856 C 0.46474 0.95532 0.42618 0.0
C857 C 0.4827 0.94982 0.4255 0.0
C858 C 0.48585 0.93309 0.43532 0.0
C859 C 0.4774 0.82248 0.43406 0.0
C860 C 0.49218 0.82632 0.42097 0.0
C861 C 0.47427 0.83723 0.44535 0.0
C862 C 0.48612 0.85602 0.4441 0.0
C863 C 0.50101 0.85984 0.43115 0.0
C864 C 0.50399 0.84515 0.41966 0.0
C865 C 0.48238 0.87186 0.45569 0.0
C866 C 0.47968 0.88924 0.44661 0.0
C867 C 0.48034 0.86953 0.47535 0.0
C868 C 0.48435 0.85213 0.48599 0.0
C869 C 0.50225 0.84642 0.48451 0.0
C870 C 0.50586 0.8299 0.49439 0.0
C871 C 0.49173 0.81902 0.50592 0.0
C872 C 0.47399 0.8247 0.50763 0.0
C873 C 0.4703 0.8412 0.49776 0.0
H874 H 0.49455 0.80623 0.51355 0.0
H875 H 0.46233 0.96829 0.41858 0.0
H876 H 0.16684 0.30383 0.74112 0.0
H877 H 0.13945 0.29933 0.76196 0.0
H878 H 0.17954 0.31767 0.80875 0.0
H879 H 0.20696 0.32235 0.78793 0.0
H880 H 0.12788 0.27804 0.79277 0.0
H881 H 0.15963 0.34615 0.83628 0.0
H882 H 0.18295 0.37766 0.8329 0.0
H883 H 0.17187 0.37736 0.77323 0.0
H884 H 0.14828 0.34603 0.77629 0.0
H885 H 0.06416 0.28018 0.867 0.0
H886 H 0.0937 0.28101 0.84979 0.0
H887 H 0.08364 0.33161 0.81785 0.0
H888 H 0.05448 0.33117 0.83523 0.0
H889 H 0.12074 0.33618 0.82701 0.0
H890 H 0.07146 0.28523 0.79997 0.0
H891 H 0.04625 0.25483 0.80024 0.0
H892 H 0.08881 0.22283 0.82159 0.0
H893 H 0.11423 0.25312 0.82167 0.0
C894 C 0.16983 0.30656 0.75591 0.0
C895 C 0.189 0.31364 0.76287 0.0
C896 C 0.15417 0.304 0.7678 0.0
C897 C 0.15743 0.30845 0.78685 0.0
C898 C 0.17667 0.3145 0.79403 0.0
C899 C 0.1923 0.31719 0.78213 0.0
C900 C 0.14066 0.30796 0.79888 0.0
C901 C 0.12637 0.2907 0.80036 0.0
C902 C 0.13849 0.3246 0.80849 0.0
C903 C 0.15237 0.34364 0.80652 0.0
C904 C 0.16212 0.35285 0.82246 0.0
C905 C 0.17539 0.37068 0.82059 0.0
C906 C 0.17894 0.37947 0.80285 0.0
C907 C 0.16916 0.37051 0.78695 0.0
C908 C 0.15585 0.35271 0.78875 0.0
C909 C 0.06833 0.29156 0.8564 0.0
C910 C 0.05694 0.30557 0.85243 0.0
C911 C 0.08516 0.29196 0.84652 0.0
C912 C 0.09076 0.30622 0.83235 0.0
C913 C 0.07964 0.32047 0.82871 0.0
C914 C 0.06292 0.32016 0.83865 0.0
C915 C 0.10795 0.30622 0.82101 0.0
C916 C 0.12234 0.32342 0.81963 0.0
C917 C 0.10992 0.28968 0.81111 0.0
C918 C 0.09469 0.27146 0.81102 0.0
C919 C 0.0754 0.27173 0.80485 0.0
C920 C 0.06109 0.25452 0.80492 0.0
C921 C 0.06591 0.23692 0.81098 0.0
C922 C 0.08509 0.23649 0.81693 0.0
C923 C 0.09946 0.25366 0.81691 0.0
H924 H 0.05481 0.22361 0.81102 0.0
H925 H 0.18924 0.39325 0.80144 0.0
H926 H 0.56329 0.61781 0.51594 0.0
H927 H 0.55764 0.64105 0.49105 0.0
H928 H 0.57176 0.68778 0.53031 0.0
H929 H 0.57663 0.66432 0.55541 0.0
H930 H 0.54041 0.69045 0.513 0.0
H931 H 0.60154 0.6836 0.4924 0.0
H932 H 0.62712 0.66678 0.48357 0.0
H933 H 0.59017 0.64021 0.4379 0.0
H934 H 0.56424 0.65665 0.44661 0.0
H935 H 0.54392 0.74901 0.41797 0.0
H936 H 0.56022 0.7302 0.44081 0.0
H937 H 0.50416 0.69739 0.4576 0.0
H938 H 0.48784 0.71636 0.43525 0.0
H939 H 0.56176 0.69287 0.44755 0.0
H940 H 0.5039 0.69066 0.50393 0.0
H941 H 0.48159 0.71096 0.51364 0.0
H942 H 0.51847 0.76191 0.48977 0.0
H943 H 0.54114 0.74198 0.48016 0.0
C944 C 0.56559 0.63312 0.51913 0.0
C945 C 0.57037 0.63932 0.53755 0.0
C946 C 0.56244 0.64643 0.50488 0.0
C947 C 0.56443 0.66627 0.50871 0.0
C948 C 0.57006 0.67257 0.52699 0.0
C949 C 0.57288 0.6592 0.54131 0.0
C950 C 0.55875 0.67997 0.49415 0.0
C951 C 0.54525 0.69105 0.49875 0.0
C952 C 0.56533 0.68119 0.4756 0.0
C953 C 0.58089 0.67127 0.47025 0.0
C954 C 0.59881 0.67406 0.48056 0.0
C955 C 0.61338 0.66461 0.47556 0.0
C956 C 0.61026 0.65241 0.46021 0.0
C957 C 0.59257 0.64966 0.44979 0.0
C958 C 0.57793 0.65907 0.45474 0.0
C959 C 0.53509 0.73763 0.42639 0.0
C960 C 0.51459 0.73432 0.42499 0.0
C961 C 0.54443 0.72689 0.43942 0.0
C962 C 0.5334 0.71268 0.45118 0.0
C963 C 0.51296 0.7086 0.44898 0.0
C964 C 0.50365 0.71941 0.43613 0.0
C965 C 0.54302 0.70267 0.46638 0.0
C966 C 0.55718 0.69235 0.46189 0.0
C967 C 0.53758 0.70263 0.48522 0.0
C968 C 0.52413 0.71478 0.49119 0.0
C969 C 0.5073 0.70621 0.50084 0.0
C970 C 0.49458 0.71765 0.50631 0.0
C971 C 0.49858 0.7377 0.50228 0.0
C972 C 0.51535 0.74637 0.49283 0.0
C973 C 0.52813 0.735 0.48735 0.0
H974 H 0.48871 0.74652 0.50651 0.0
H975 H 0.62156 0.64511 0.45636 0.0
H976 H 0.81659 0.81593 0.72964 0.0
H977 H 0.84655 0.80829 0.71856 0.0
H978 H 0.87022 0.80854 0.77545 0.0
H979 H 0.84017 0.81602 0.78662 0.0
H980 H 0.89682 0.82905 0.75021 0.0
H981 H 0.85437 0.76649 0.75666 0.0
H982 H 0.82377 0.74197 0.75227 0.0
H983 H 0.82961 0.74635 0.69259 0.0
H984 H 0.86011 0.77112 0.6966 0.0
H985 H 0.95637 0.75996 0.70601 0.0
H986 H 0.93021 0.76532 0.72538 0.0
H987 H 0.93191 0.82118 0.69747 0.0
H988 H 0.95802 0.81606 0.6782 0.0
H989 H 0.89416 0.76991 0.71339 0.0
H990 H 0.92031 0.8524 0.72796 0.0
H991 H 0.95124 0.87618 0.73351 0.0
H992 H 0.97896 0.83011 0.75403 0.0
H993 H 0.94815 0.80609 0.74887 0.0
C994 C 0.82827 0.81453 0.73973 0.0
C995 C 0.82631 0.81703 0.7589 0.0
C996 C 0.84529 0.81007 0.73342 0.0
C997 C 0.86055 0.80784 0.74621 0.0
C998 C 0.85864 0.81032 0.76538 0.0
C999 C 0.84154 0.81464 0.77171 0.0
C1000 C 0.87845 0.80286 0.73947 0.0
C1001 C 0.8963 0.81609 0.74223 0.0
C1002 C 0.87775 0.78574 0.72941 0.0
C1003 C 0.85945 0.77078 0.72693 0.0
C1004 C 0.84905 0.76234 0.74259 0.0
C1005 C 0.83174 0.74837 0.74017 0.0
C1006 C 0.82473 0.74263 0.72216 0.0
C1007 C 0.83505 0.75082 0.70653 0.0
C1008 C 0.85237 0.76481 0.70887 0.0
C1009 C 0.95133 0.77348 0.70416 0.0
C1010 C 0.95925 0.78756 0.69052 0.0
C1011 C 0.93636 0.77649 0.71519 0.0
C1012 C 0.92923 0.79369 0.71294 0.0
C1013 C 0.93738 0.80792 0.69962 0.0
C1014 C 0.95225 0.8049 0.68854 0.0
C1015 C 0.91247 0.79639 0.72362 0.0
C1016 C 0.89478 0.78276 0.72155 0.0
C1017 C 0.91338 0.81304 0.73447 0.0
C1018 C 0.93193 0.82743 0.73789 0.0
C1019 C 0.93298 0.84736 0.73375 0.0
C1020 C 0.9505 0.86088 0.73681 0.0
C1021 C 0.96707 0.85465 0.74407 0.0
C1022 C 0.96614 0.8349 0.74835 0.0
C1023 C 0.94865 0.82132 0.74533 0.0
H1024 H 0.98062 0.86514 0.74642 0.0
H1025 H 0.81133 0.73182 0.72032 0.0
H1026 H 0.02361 0.94053 0.49652 0.0
H1027 H 0.02279 0.92034 0.52524 0.0
H1028 H 0.0842 0.92134 0.52182 0.0
H1029 H 0.08511 0.94156 0.4929 0.0
H1030 H 0.06065 0.88384 0.53065 0.0
H1031 H 0.07317 0.94892 0.55218 0.0
H1032 H 0.06823 0.98257 0.55343 0.0
H1033 H 0.01017 0.9611 0.57221 0.0
H1034 H 0.01464 0.92729 0.57078 0.0
H1035 H 0.05097 0.83427 0.61984 0.0
H1036 H 0.06507 0.86007 0.59726 0.0
H1037 H 0.00908 0.87596 0.58888 0.0
H1038 H 0.99508 0.85059 0.61139 0.0
H1039 H 0.03808 0.90777 0.58845 0.0
H1040 H 0.023 0.84378 0.56048 0.0
H1041 H 0.02617 0.80967 0.55779 0.0
H1042 H 0.0877 0.82887 0.55025 0.0
H1043 H 0.08491 0.8631 0.55315 0.0
C1044 C 0.03687 0.93622 0.50173 0.0
C1045 C 0.05442 0.94259 0.49251 0.0
C1046 C 0.03643 0.92486 0.51821 0.0
C1047 C 0.0535 0.91961 0.52572 0.0
C1048 C 0.07092 0.92538 0.51625 0.0
C1049 C 0.07143 0.93693 0.49983 0.0
C1050 C 0.05291 0.9082 0.54359 0.0
C1051 C 0.0562 0.8892 0.54345 0.0
C1052 C 0.04691 0.91521 0.56016 0.0
C1053 C 0.04422 0.93555 0.56128 0.0
C1054 C 0.0593 0.95136 0.55646 0.0
C1055 C 0.05659 0.97047 0.55721 0.0
C1056 C 0.03889 0.97397 0.56287 0.0
C1057 C 0.02387 0.95837 0.56783 0.0
C1058 C 0.0265 0.93922 0.56708 0.0
C1059 C 0.04183 0.84359 0.61349 0.0
C1060 C 0.02189 0.84029 0.6172 0.0
C1061 C 0.04987 0.85823 0.60054 0.0
C1062 C 0.03804 0.86973 0.5912 0.0
C1063 C 0.01847 0.86726 0.59589 0.0
C1064 C 0.01046 0.85266 0.60871 0.0
C1065 C 0.04518 0.88316 0.57536 0.0
C1066 C 0.0431 0.90257 0.57584 0.0
C1067 C 0.05213 0.87648 0.55905 0.0
C1068 C 0.0538 0.85594 0.55729 0.0
C1069 C 0.03723 0.8407 0.5584 0.0
C1070 C 0.03895 0.82136 0.55682 0.0
C1071 C 0.05713 0.8171 0.55392 0.0
C1072 C 0.07363 0.83219 0.55255 0.0
C1073 C 0.07199 0.85156 0.55416 0.0
H1074 H 0.05844 0.80212 0.55269 0.0
H1075 H 0.03682 0.98878 0.56344 0.0
H1076 H 0.20826 0.75878 0.74447 0.0
H1077 H 0.17863 0.75764 0.72468 0.0
H1078 H 0.14729 0.76593 0.77326 0.0
H1079 H 0.17618 0.76544 0.79319 0.0
H1080 H 0.12503 0.74129 0.75363 0.0
H1081 H 0.16538 0.8038 0.73975 0.0
H1082 H 0.19504 0.82692 0.7299 0.0
H1083 H 0.18953 0.80079 0.67596 0.0
H1084 H 0.15995 0.77734 0.68558 0.0
H1085 H 0.06203 0.79454 0.68558 0.0
H1086 H 0.09344 0.79421 0.702 0.0
H1087 H 0.08096 0.73134 0.70078 0.0
H1088 H 0.04922 0.73161 0.68535 0.0
H1089 H 0.12534 0.78344 0.69625 0.0
H1090 H 0.0983 0.71168 0.73919 0.0
H1091 H 0.06776 0.69284 0.75212 0.0
H1092 H 0.04527 0.74505 0.75356 0.0
H1093 H 0.07576 0.76423 0.74087 0.0
C1094 C 0.19498 0.76004 0.75098 0.0
C1095 C 0.19474 0.76245 0.77044 0.0
C1096 C 0.1781 0.75967 0.73959 0.0
C1097 C 0.16077 0.76208 0.74739 0.0
C1098 C 0.16046 0.76413 0.76684 0.0
C1099 C 0.17715 0.76413 0.77823 0.0
C1100 C 0.14283 0.76237 0.73552 0.0
C1101 C 0.12517 0.75049 0.74106 0.0
C1102 C 0.14282 0.77462 0.71929 0.0
C1103 C 0.16058 0.78869 0.71346 0.0
C1104 C 0.17058 0.80289 0.72584 0.0
C1105 C 0.18736 0.81607 0.72029 0.0
C1106 C 0.1942 0.81529 0.70233 0.0
C1107 C 0.18424 0.80136 0.68987 0.0
C1108 C 0.16746 0.78813 0.69536 0.0
C1109 C 0.06608 0.78068 0.68877 0.0
C1110 C 0.05311 0.76309 0.68449 0.0
C1111 C 0.08404 0.7805 0.69809 0.0
C1112 C 0.08942 0.76273 0.703 0.0
C1113 C 0.07693 0.74521 0.69765 0.0
C1114 C 0.05881 0.74537 0.68877 0.0
C1115 C 0.10762 0.76243 0.71446 0.0
C1116 C 0.12529 0.7742 0.70878 0.0
C1117 C 0.10755 0.75071 0.73106 0.0
C1118 C 0.08923 0.73933 0.73889 0.0
C1119 C 0.08686 0.71914 0.74233 0.0
C1120 C 0.06955 0.7084 0.74961 0.0
C1121 C 0.05456 0.71773 0.7536 0.0
C1122 C 0.05686 0.73783 0.7504 0.0
C1123 C 0.07415 0.74864 0.74314 0.0
H1124 H 0.04117 0.70939 0.75922 0.0
H1125 H 0.20719 0.82551 0.69806 0.0
H1126 H 0.97419 0.65901 0.47056 0.0
H1127 H 0.97695 0.68377 0.49443 0.0
H1128 H 0.95312 0.63893 0.53502 0.0
H1129 H 0.94968 0.61438 0.51103 0.0
H1130 H 0.93807 0.6688 0.53924 0.0
H1131 H 0.0034 0.65953 0.53276 0.0
H1132 H 0.03293 0.65831 0.51585 0.0
H1133 H 0.03895 0.71861 0.49913 0.0
H1134 H 0.00929 0.72011 0.51575 0.0
H1135 H 0.97711 0.71413 0.62466 0.0
H1136 H 0.97016 0.69323 0.59741 0.0
H1137 H 0.98078 0.74402 0.56044 0.0
H1138 H 0.98745 0.76508 0.58758 0.0
H1139 H 0.0016 0.71373 0.55285 0.0
H1140 H 0.93681 0.72253 0.56271 0.0
H1141 H 0.90812 0.72257 0.58133 0.0
H1142 H 0.90231 0.66135 0.5938 0.0
H1143 H 0.93115 0.66101 0.57547 0.0
C1144 C 0.96953 0.65455 0.48459 0.0
C1145 C 0.96174 0.63487 0.48903 0.0
C1146 C 0.97116 0.66864 0.49822 0.0
C1147 C 0.96549 0.66317 0.51661 0.0
C1148 C 0.95753 0.64351 0.52094 0.0
C1149 C 0.95559 0.6295 0.50726 0.0
C1150 C 0.96805 0.67778 0.53149 0.0
C1151 C 0.95202 0.67849 0.5423 0.0
C1152 C 0.98615 0.69073 0.53527 0.0
C1153 C 0.00401 0.68987 0.52532 0.0
C1154 C 0.01094 0.67248 0.52536 0.0
C1155 C 0.02771 0.67175 0.51585 0.0
C1156 C 0.03778 0.68835 0.50637 0.0
C1157 C 0.03112 0.70575 0.50644 0.0
C1158 C 0.01434 0.70656 0.51591 0.0
C1159 C 0.97781 0.72085 0.61073 0.0
C1160 C 0.98281 0.74123 0.60824 0.0
C1161 C 0.97379 0.70892 0.59522 0.0
C1162 C 0.97493 0.71716 0.577 0.0
C1163 C 0.97981 0.73746 0.57444 0.0
C1164 C 0.98353 0.74943 0.58994 0.0
C1165 C 0.97174 0.70445 0.56065 0.0
C1166 C 0.98764 0.70412 0.54961 0.0
C1167 C 0.95365 0.69164 0.55687 0.0
C1168 C 0.93625 0.69179 0.56785 0.0
C1169 C 0.92952 0.70911 0.56956 0.0
C1170 C 0.91321 0.70918 0.58004 0.0
C1171 C 0.90343 0.69198 0.58878 0.0
C1172 C 0.90991 0.67466 0.58703 0.0
C1173 C 0.92623 0.67452 0.57659 0.0
H1174 H 0.8908 0.69206 0.59688 0.0
H1175 H 0.05076 0.68776 0.49902 0.0
H1176 H 0.76742 0.85046 0.22089 0.0
H1177 H 0.78887 0.8827 0.21986 0.0
H1178 H 0.7414 0.9085 0.23511 0.0
H1179 H 0.7195 0.87656 0.23475 0.0
H1180 H 0.76146 0.93131 0.21085 0.0
H1181 H 0.77782 0.89885 0.26771 0.0
H1182 H 0.78744 0.87244 0.28724 0.0
H1183 H 0.84105 0.88023 0.25851 0.0
H1184 H 0.83163 0.90653 0.23864 0.0
H1185 H 0.82023 0.01769 0.25225 0.0
H1186 H 0.79744 0.98671 0.24613 0.0
H1187 H 0.8424 0.96607 0.21884 0.0
H1188 H 0.86517 0.99697 0.22463 0.0
H1189 H 0.82411 0.94104 0.2481 0.0
H1190 H 0.80712 0.97588 0.19258 0.0
H1191 H 0.79674 0.00313 0.17506 0.0
H1192 H 0.7432 0.99186 0.20422 0.0
H1193 H 0.75339 0.96471 0.22212 0.0
C1194 C 0.76141 0.863 0.22369 0.0
C1195 C 0.74173 0.86079 0.22813 0.0
C1196 C 0.77379 0.88144 0.22334 0.0
C1197 C 0.76689 0.89802 0.22783 0.0
C1198 C 0.74713 0.89594 0.23173 0.0
C1199 C 0.73468 0.87757 0.23178 0.0
C1200 C 0.7803 0.91745 0.22895 0.0
C1201 C 0.77505 0.93345 0.21916 0.0
C1202 C 0.79819 0.92028 0.23961 0.0
C1203 C 0.80392 0.90451 0.25156 0.0
C1204 C 0.79159 0.89483 0.26547 0.0
C1205 C 0.79702 0.8799 0.27661 0.0
C1206 C 0.81482 0.87462 0.27408 0.0
C1207 C 0.82725 0.88431 0.26044 0.0
C1208 C 0.82188 0.89924 0.24924 0.0
C1209 C 0.82519 0.00666 0.24472 0.0
C1210 C 0.84454 0.00977 0.239 0.0
C1211 C 0.81214 0.98901 0.24119 0.0
C1212 C 0.81829 0.97415 0.23205 0.0
C1213 C 0.83741 0.97739 0.22592 0.0
C1214 C 0.85037 0.99509 0.2292 0.0
C1215 C 0.80523 0.95475 0.23003 0.0
C1216 C 0.81054 0.93881 0.23972 0.0
C1217 C 0.78728 0.95208 0.2196 0.0
C1218 C 0.78111 0.96838 0.20883 0.0
C1219 C 0.79321 0.97933 0.19539 0.0
C1220 C 0.78734 0.99473 0.18536 0.0
C1221 C 0.76934 0.99926 0.18856 0.0
C1222 C 0.75715 0.98835 0.20177 0.0
C1223 C 0.76296 0.97294 0.21185 0.0
H1224 H 0.76482 0.01118 0.18077 0.0
H1225 H 0.819 0.86306 0.28272 0.0
H1226 H 0.79442 0.25025 0.25462 0.0
H1227 H 0.81296 0.22478 0.25104 0.0
H1228 H 0.79256 0.1982 0.30391 0.0
H1229 H 0.77462 0.22404 0.30779 0.0
H1230 H 0.82949 0.19798 0.30155 0.0
H1231 H 0.77242 0.18041 0.26031 0.0
H1232 H 0.7494 0.1857 0.23441 0.0
H1233 H 0.79568 0.19473 0.19571 0.0
H1234 H 0.81903 0.18973 0.22144 0.0
H1235 H 0.84028 0.1012 0.29468 0.0
H1236 H 0.82776 0.13093 0.29598 0.0
H1237 H 0.85715 0.1531 0.24549 0.0
H1238 H 0.86976 0.12316 0.24401 0.0
H1239 H 0.81897 0.15774 0.24483 0.0
H1240 H 0.87527 0.17172 0.28651 0.0
H1241 H 0.89734 0.16532 0.31281 0.0
H1242 H 0.85141 0.16195 0.35121 0.0
H1243 H 0.82897 0.16806 0.3251 0.0
C1244 C 0.7939 0.23893 0.26543 0.0
C1245 C 0.78274 0.2388 0.28126 0.0
C1246 C 0.80443 0.22436 0.26335 0.0
C1247 C 0.80385 0.20933 0.27703 0.0
C1248 C 0.79315 0.20955 0.29311 0.0
C1249 C 0.7828 0.22421 0.29527 0.0
C1250 C 0.81427 0.19327 0.27464 0.0
C1251 C 0.82705 0.18909 0.28921 0.0
C1252 C 0.81154 0.18198 0.25832 0.0
C1253 C 0.7975 0.18491 0.24283 0.0
C1254 C 0.77771 0.18366 0.2463 0.0
C1255 C 0.7646 0.18659 0.23165 0.0
C1256 C 0.77109 0.19061 0.21343 0.0
C1257 C 0.79069 0.19165 0.20983 0.0
C1258 C 0.80386 0.18876 0.22444 0.0
C1259 C 0.84417 0.11239 0.28385 0.0
C1260 C 0.85607 0.10982 0.26925 0.0
C1261 C 0.83706 0.12943 0.28467 0.0
C1262 C 0.84171 0.14432 0.27096 0.0
C1263 C 0.85346 0.1418 0.25625 0.0
C1264 C 0.86068 0.12472 0.25546 0.0
C1265 C 0.83383 0.16225 0.27189 0.0
C1266 C 0.82156 0.16679 0.25706 0.0
C1267 C 0.8369 0.17377 0.28804 0.0
C1268 C 0.8504 0.17021 0.30381 0.0
C1269 C 0.86983 0.16948 0.30054 0.0
C1270 C 0.88242 0.16592 0.31542 0.0
C1271 C 0.87577 0.16319 0.33366 0.0
C1272 C 0.85654 0.16406 0.33707 0.0
C1273 C 0.84389 0.16759 0.32224 0.0
H1274 H 0.88554 0.16044 0.34516 0.0
H1275 H 0.76092 0.19287 0.20211 0.0
H1276 H 0.45446 0.05404 0.01606 0.0
H1277 H 0.42307 0.03058 0.01493 0.0
H1278 H 0.41305 0.04793 0.95732 0.0
H1279 H 0.44462 0.07116 0.95829 0.0
H1280 H 0.38179 0.04849 0.98341 0.0
H1281 H 0.42232 0.00684 0.96246 0.0
H1282 H 0.45076 0.9913 0.96438 0.0
H1283 H 0.4325 0.96396 0.01723 0.0
H1284 H 0.4041 0.9796 0.01576 0.0
H1285 H 0.29472 0.97794 0.96703 0.0
H1286 H 0.327 0.99916 0.96461 0.0
H1287 H 0.34676 0.9724 0.01524 0.0
H1288 H 0.31475 0.9506 0.01731 0.0
H1289 H 0.37361 0.97671 0.99104 0.0
H1290 H 0.33485 0.01868 0.01399 0.0
H1291 H 0.30697 0.03493 0.0143 0.0
H1292 H 0.32222 0.06249 0.96079 0.0
H1293 H 0.35005 0.04619 0.96006 0.0
C1294 C 0.44562 0.05264 0.00312 0.0
C1295 C 0.45187 0.06429 0.98725 0.0
C1296 C 0.42779 0.03927 0.00248 0.0
C1297 C 0.41585 0.03759 0.98604 0.0
C1298 C 0.42214 0.04906 0.9701 0.0
C1299 C 0.44015 0.06218 0.97064 0.0
C1300 C 0.39641 0.02445 0.98584 0.0
C1301 C 0.37991 0.03276 0.98475 0.0
C1302 C 0.39417 0.00405 0.98821 0.0
C1303 C 0.41118 0.99455 0.98908 0.0
C1304 C 0.42447 0.99766 0.97458 0.0
C1305 C 0.44056 0.9888 0.97556 0.0
C1306 C 0.44346 0.97669 0.99094 0.0
C1307 C 0.43025 0.97337 0.00534 0.0
C1308 C 0.41414 0.98221 0.00442 0.0
C1309 C 0.30593 0.97663 0.97768 0.0
C1310 C 0.30218 0.96266 0.9924 0.0
C1311 C 0.32436 0.98881 0.97632 0.0
C1312 C 0.33925 0.98758 0.98989 0.0
C1313 C 0.33552 0.97361 0.00459 0.0
C1314 C 0.3172 0.96121 0.00579 0.0
C1315 C 0.35878 0.0007 0.98872 0.0
C1316 C 0.37536 0.99242 0.98958 0.0
C1317 C 0.36112 0.0212 0.98647 0.0
C1318 C 0.34441 0.03105 0.98688 0.0
C1319 C 0.33217 0.02809 0.00223 0.0
C1320 C 0.31639 0.03732 0.00249 0.0
C1321 C 0.31279 0.04969 0.98755 0.0
C1322 C 0.325 0.05288 0.97234 0.0
C1323 C 0.34079 0.04366 0.972 0.0
H1324 H 0.30057 0.05683 0.98778 0.0
H1325 H 0.45593 0.96984 0.99168 0.0
H1326 H 0.22917 0.33188 0.30866 0.0
H1327 H 0.204 0.35165 0.30618 0.0
H1328 H 0.249 0.40409 0.30501 0.0
H1329 H 0.27409 0.38443 0.30693 0.0
H1330 H 0.21566 0.40123 0.3317 0.0
H1331 H 0.23117 0.39312 0.26657 0.0
H1332 H 0.23392 0.37285 0.23977 0.0
H1333 H 0.17326 0.34543 0.24268 0.0
H1334 H 0.17025 0.36536 0.26971 0.0
H1335 H 0.18089 0.48256 0.30096 0.0
H1336 H 0.19805 0.45603 0.30597 0.0
H1337 H 0.14733 0.41529 0.28474 0.0
H1338 H 0.13022 0.44219 0.27893 0.0
H1339 H 0.17832 0.40694 0.27167 0.0
H1340 H 0.16035 0.41746 0.33272 0.0
H1341 H 0.15601 0.4358 0.36041 0.0
H1342 H 0.21811 0.45561 0.3673 0.0
H1343 H 0.22282 0.43762 0.33948 0.0
C1344 C 0.23358 0.34763 0.30793 0.0
C1345 C 0.25344 0.35674 0.30793 0.0
C1346 C 0.21928 0.35885 0.3065 0.0
C1347 C 0.22475 0.37926 0.30542 0.0
C1348 C 0.24458 0.38834 0.30586 0.0
C1349 C 0.25884 0.37716 0.30688 0.0
C1350 C 0.20992 0.39135 0.30346 0.0
C1351 C 0.2075 0.40258 0.3186 0.0
C1352 C 0.19875 0.39237 0.2866 0.0
C1353 C 0.20055 0.38053 0.2703 0.0
C1354 C 0.21848 0.38262 0.26162 0.0
C1355 C 0.22007 0.37123 0.24636 0.0
C1356 C 0.20379 0.35781 0.23957 0.0
C1357 C 0.18587 0.3558 0.24798 0.0
C1358 C 0.18421 0.36714 0.26326 0.0
C1359 C 0.17332 0.46796 0.29739 0.0
C1360 C 0.15415 0.46442 0.28968 0.0
C1361 C 0.18312 0.45275 0.30039 0.0
C1362 C 0.17382 0.43355 0.29622 0.0
C1363 C 0.15474 0.42997 0.28822 0.0
C1364 C 0.14499 0.44532 0.28491 0.0
C1365 C 0.18447 0.41752 0.29977 0.0
C1366 C 0.18611 0.40544 0.28495 0.0
C1367 C 0.19464 0.41542 0.31712 0.0
C1368 C 0.19193 0.42626 0.33393 0.0
C1369 C 0.17308 0.42583 0.34006 0.0
C1370 C 0.17055 0.43615 0.3558 0.0
C1371 C 0.18677 0.44688 0.36559 0.0
C1372 C 0.20556 0.44729 0.3597 0.0
C1373 C 0.20817 0.437 0.34396 0.0
H1374 H 0.18478 0.45487 0.37777 0.0
H1375 H 0.20504 0.349 0.22775 0.0
H1376 H 0.0781 0.01392 0.48713 0.0
H1377 H 0.10595 0.04164 0.48882 0.0
H1378 H 0.12408 0.02723 0.4352 0.0
H1379 H 0.09592 0.99958 0.43332 0.0
H1380 H 0.15307 0.03046 0.46561 0.0
H1381 H 0.10898 0.06674 0.43592 0.0
H1382 H 0.07816 0.0782 0.43157 0.0
H1383 H 0.08747 0.10385 0.48578 0.0
H1384 H 0.11822 0.09229 0.49059 0.0
H1385 H 0.23424 0.10978 0.46772 0.0
H1386 H 0.20463 0.08678 0.45771 0.0
H1387 H 0.17391 0.10425 0.50287 0.0
H1388 H 0.20331 0.12789 0.51248 0.0
H1389 H 0.15117 0.10003 0.47285 0.0
H1390 H 0.19205 0.06114 0.50479 0.0
H1391 H 0.22205 0.04861 0.51126 0.0
H1392 H 0.21793 0.02667 0.45555 0.0
H1393 H 0.18802 0.0393 0.44867 0.0
C1394 C 0.08786 0.01693 0.47557 0.0
C1395 C 0.08501 0.00474 0.4601 0.0
C1396 C 0.10367 0.03274 0.47652 0.0
C1397 C 0.11697 0.03645 0.46211 0.0
C1398 C 0.11388 0.02459 0.44639 0.0
C1399 C 0.09783 0.00892 0.4453 0.0
C1400 C 0.13494 0.05168 0.4644 0.0
C1401 C 0.15278 0.04576 0.46679 0.0
C1402 C 0.13431 0.07146 0.46653 0.0
C1403 C 0.11585 0.07851 0.46367 0.0
C1404 C 0.10438 0.07468 0.44699 0.0
C1405 C 0.08694 0.08123 0.44442 0.0
C1406 C 0.08084 0.09172 0.45841 0.0
C1407 C 0.0922 0.09571 0.47497 0.0
C1408 C 0.10966 0.08919 0.47761 0.0
C1409 C 0.22118 0.1087 0.47554 0.0
C1410 C 0.22113 0.12053 0.49099 0.0
C1411 C 0.20427 0.09552 0.46983 0.0
C1412 C 0.18712 0.09353 0.47972 0.0
C1413 C 0.18697 0.10551 0.49501 0.0
C1414 C 0.2038 0.11896 0.50055 0.0
C1415 C 0.16939 0.07881 0.47433 0.0
C1416 C 0.15157 0.0848 0.47143 0.0
C1417 C 0.16996 0.05898 0.47203 0.0
C1418 C 0.18793 0.05136 0.47615 0.0
C1419 C 0.19763 0.05377 0.49387 0.0
C1420 C 0.2146 0.04663 0.49762 0.0
C1421 C 0.22193 0.0369 0.48381 0.0
C1422 C 0.21226 0.03425 0.46623 0.0
C1423 C 0.19529 0.04138 0.4624 0.0
H1424 H 0.23507 0.03139 0.48674 0.0
H1425 H 0.06733 0.09677 0.4564 0.0
H1426 H 0.77363 0.18534 0.7356 0.0
H1427 H 0.75023 0.15441 0.73799 0.0
H1428 H 0.70272 0.18471 0.7323 0.0
H1429 H 0.7261 0.21589 0.73115 0.0
H1430 H 0.69521 0.15776 0.75826 0.0
H1431 H 0.71581 0.15899 0.69551 0.0
H1432 H 0.7391 0.16253 0.6702 0.0
H1433 H 0.76149 0.11403 0.69356 0.0
H1434 H 0.7385 0.11036 0.71919 0.0
H1435 H 0.62424 0.0702 0.74386 0.0
H1436 H 0.64556 0.10161 0.73619 0.0
H1437 H 0.69604 0.07827 0.7531 0.0
H1438 H 0.67487 0.04686 0.76097 0.0
H1439 H 0.70007 0.10206 0.71929 0.0
H1440 H 0.68003 0.103 0.78325 0.0
H1441 H 0.65569 0.09953 0.80763 0.0
H1442 H 0.63081 0.14451 0.78009 0.0
H1443 H 0.65482 0.14803 0.75536 0.0
C1444 C 0.75822 0.1855 0.73511 0.0
C1445 C 0.75179 0.20317 0.7332 0.0
C1446 C 0.74483 0.16774 0.73618 0.0
C1447 C 0.72469 0.16718 0.73495 0.0
C1448 C 0.71819 0.18476 0.73314 0.0
C1449 C 0.73159 0.20258 0.73231 0.0
C1450 C 0.71047 0.14825 0.73606 0.0
C1451 C 0.69608 0.14573 0.74948 0.0
C1452 C 0.71171 0.1324 0.72479 0.0
C1453 C 0.72553 0.13451 0.70936 0.0
C1454 C 0.72579 0.14916 0.69533 0.0
C1455 C 0.73893 0.15118 0.68091 0.0
C1456 C 0.75179 0.13854 0.68029 0.0
C1457 C 0.75152 0.12382 0.69407 0.0
C1458 C 0.73843 0.12175 0.70853 0.0
C1459 C 0.63989 0.07165 0.74569 0.0
C1460 C 0.64788 0.05609 0.75315 0.0
C1461 C 0.65202 0.08961 0.74136 0.0
C1462 C 0.67231 0.09224 0.74424 0.0
C1463 C 0.68039 0.07649 0.7508 0.0
C1464 C 0.66827 0.05859 0.75535 0.0
C1465 C 0.68509 0.11169 0.74153 0.0
C1466 C 0.69916 0.11424 0.72787 0.0
C1467 C 0.68342 0.12763 0.7524 0.0
C1468 C 0.66909 0.12563 0.76735 0.0
C1469 C 0.66926 0.11203 0.7823 0.0
C1470 C 0.65555 0.11007 0.7962 0.0
C1471 C 0.64169 0.12176 0.79539 0.0
C1472 C 0.64154 0.13545 0.78069 0.0
C1473 C 0.6552 0.13744 0.76673 0.0
H1474 H 0.63113 0.12027 0.80619 0.0
H1475 H 0.76195 0.14012 0.66912 0.0
H1476 H 0.38747 0.99001 0.54023 0.0
H1477 H 0.36943 0.01597 0.53467 0.0
H1478 H 0.41116 0.05382 0.57017 0.0
H1479 H 0.43008 0.02839 0.57499 0.0
H1480 H 0.36417 0.04946 0.57325 0.0
H1481 H 0.42033 0.0668 0.53333 0.0
H1482 H 0.44243 0.05864 0.51049 0.0
H1483 H 0.39386 0.04048 0.47166 0.0
H1484 H 0.37143 0.04824 0.49443 0.0
H1485 H 0.32677 0.13349 0.54304 0.0
H1486 H 0.34842 0.11192 0.55435 0.0
H1487 H 0.33459 0.07899 0.50382 0.0
H1488 H 0.31388 0.10091 0.49219 0.0
H1489 H 0.37076 0.08322 0.51084 0.0
H1490 H 0.31432 0.06361 0.5484 0.0
H1491 H 0.28973 0.06809 0.57045 0.0
H1492 H 0.33497 0.08666 0.61256 0.0
H1493 H 0.35986 0.08252 0.59066 0.0
C1494 C 0.39297 0.00386 0.54678 0.0
C1495 C 0.41041 0.00709 0.55791 0.0
C1496 C 0.38249 0.01859 0.54375 0.0
C1497 C 0.38902 0.03672 0.55203 0.0
C1498 C 0.40588 0.03982 0.56379 0.0
C1499 C 0.4166 0.0252 0.56657 0.0
C1500 C 0.37886 0.05274 0.54721 0.0
C1501 C 0.3658 0.05718 0.55978 0.0
C1502 C 0.38071 0.06229 0.52945 0.0
C1503 C 0.3942 0.05792 0.51564 0.0
C1504 C 0.41435 0.0609 0.51999 0.0
C1505 C 0.42693 0.05638 0.50704 0.0
C1506 C 0.41955 0.04899 0.48965 0.0
C1507 C 0.39956 0.04617 0.48515 0.0
C1508 C 0.38691 0.05065 0.49806 0.0
C1509 C 0.32846 0.12168 0.53436 0.0
C1510 C 0.31868 0.11892 0.51671 0.0
C1511 C 0.34073 0.10928 0.54087 0.0
C1512 C 0.34301 0.09364 0.53004 0.0
C1513 C 0.33322 0.09098 0.51242 0.0
C1514 C 0.32132 0.10353 0.50579 0.0
C1515 C 0.3556 0.07997 0.53675 0.0
C1516 C 0.36919 0.07586 0.52449 0.0
C1517 C 0.35389 0.07045 0.55467 0.0
C1518 C 0.33896 0.07299 0.56783 0.0
C1519 C 0.31903 0.0688 0.56232 0.0
C1520 C 0.30504 0.07125 0.57479 0.0
C1521 C 0.31079 0.07772 0.59288 0.0
C1522 C 0.33054 0.0817 0.59854 0.0
C1523 C 0.3446 0.07929 0.5861 0.0
H1524 H 0.29993 0.0796 0.60252 0.0
H1525 H 0.42931 0.0455 0.47965 0.0
H1526 H 0.57317 0.52486 0.55113 0.0
H1527 H 0.59532 0.50299 0.54661 0.0
H1528 H 0.6445 0.55166 0.55041 0.0
H1529 H 0.62229 0.57366 0.55415 0.0
H1530 H 0.64865 0.53158 0.52261 0.0
H1531 H 0.6345 0.51535 0.5862 0.0
H1532 H 0.61419 0.50593 0.61364 0.0
H1533 H 0.58758 0.45163 0.58844 0.0
H1534 H 0.60754 0.46083 0.56071 0.0
H1535 H 0.70294 0.44653 0.54237 0.0
H1536 H 0.68298 0.46788 0.55413 0.0
H1537 H 0.65705 0.4727 0.4986 0.0
H1538 H 0.6772 0.45186 0.48672 0.0
H1539 H 0.64513 0.4678 0.55615 0.0
H1540 H 0.65196 0.51831 0.4892 0.0
H1541 H 0.67543 0.52953 0.46442 0.0
H1542 H 0.7223 0.51885 0.50146 0.0
H1543 H 0.69917 0.50784 0.52654 0.0
C1544 C 0.58874 0.5308 0.55131 0.0
C1545 C 0.59602 0.55085 0.55352 0.0
C1546 C 0.60141 0.51829 0.54881 0.0
C1547 C 0.62166 0.52557 0.54855 0.0
C1548 C 0.62896 0.54564 0.55072 0.0
C1549 C 0.61627 0.5582 0.55301 0.0
C1550 C 0.63502 0.51245 0.54471 0.0
C1551 C 0.64791 0.51769 0.53004 0.0
C1552 C 0.63446 0.49449 0.55464 0.0
C1553 C 0.62242 0.48886 0.5713 0.0
C1554 C 0.62422 0.50146 0.58644 0.0
C1555 C 0.61278 0.49615 0.60206 0.0
C1556 C 0.59958 0.47821 0.60277 0.0
C1557 C 0.59781 0.46552 0.58787 0.0
C1558 C 0.6092 0.47077 0.5722 0.0
C1559 C 0.6928 0.45196 0.53273 0.0
C1560 C 0.6918 0.4477 0.51358 0.0
C1561 C 0.68141 0.46415 0.53947 0.0
C1562 C 0.66883 0.47222 0.52717 0.0
C1563 C 0.66699 0.46701 0.50827 0.0
C1564 C 0.67846 0.45502 0.50151 0.0
C1565 C 0.65821 0.48673 0.53373 0.0
C1566 C 0.6459 0.48176 0.54887 0.0
C1567 C 0.65972 0.50523 0.52463 0.0
C1568 C 0.67379 0.51209 0.50969 0.0
C1569 C 0.66729 0.51844 0.49208 0.0
C1570 C 0.68053 0.52475 0.47798 0.0
C1571 C 0.70033 0.52485 0.48134 0.0
C1572 C 0.70695 0.5187 0.49885 0.0
C1573 C 0.69377 0.51241 0.513 0.0
H1574 H 0.71055 0.52972 0.4704 0.0
H1575 H 0.59074 0.47412 0.61487 0.0
H1576 H 0.75519 0.28852 0.33976 0.0
H1577 H 0.75371 0.30295 0.37016 0.0
H1578 H 0.6909 0.29069 0.36471 0.0
H1579 H 0.69207 0.27523 0.33486 0.0
H1580 H 0.71151 0.33177 0.37168 0.0
H1581 H 0.70646 0.26565 0.39505 0.0
H1582 H 0.71683 0.23425 0.39876 0.0
H1583 H 0.77181 0.26315 0.42359 0.0
H1584 H 0.76188 0.29479 0.41978 0.0
H1585 H 0.69939 0.37212 0.45795 0.0
H1586 H 0.69492 0.34899 0.4325 0.0
H1587 H 0.75354 0.34028 0.44364 0.0
H1588 H 0.75766 0.36248 0.46962 0.0
H1589 H 0.73239 0.30778 0.43396 0.0
H1590 H 0.74098 0.37317 0.40831 0.0
H1591 H 0.73374 0.40591 0.40338 0.0
H1592 H 0.67633 0.3805 0.38134 0.0
H1593 H 0.68316 0.34758 0.38637 0.0
C1594 C 0.74103 0.28843 0.34518 0.0
C1595 C 0.72376 0.28087 0.33467 0.0
C1596 C 0.74023 0.29679 0.36252 0.0
C1597 C 0.7222 0.29791 0.36955 0.0
C1598 C 0.70495 0.29002 0.3594 0.0
C1599 C 0.7057 0.28136 0.34226 0.0
C1600 C 0.72141 0.30844 0.38693 0.0
C1601 C 0.71573 0.32642 0.38538 0.0
C1602 C 0.72752 0.30163 0.4046 0.0
C1603 C 0.73349 0.28262 0.40696 0.0
C1604 C 0.72083 0.26534 0.40114 0.0
C1605 C 0.72662 0.24749 0.4033 0.0
C1606 C 0.74498 0.24671 0.41136 0.0
C1607 C 0.75759 0.26378 0.41733 0.0
C1608 C 0.75188 0.28167 0.41519 0.0
C1609 C 0.71119 0.36503 0.45512 0.0
C1610 C 0.72892 0.36924 0.46568 0.0
C1611 C 0.70868 0.3519 0.44051 0.0
C1612 C 0.72407 0.34323 0.43582 0.0
C1613 C 0.74145 0.34678 0.44692 0.0
C1614 C 0.7438 0.35954 0.46177 0.0
C1615 C 0.72261 0.33134 0.4188 0.0
C1616 C 0.72793 0.31312 0.42034 0.0
C1617 C 0.71663 0.33815 0.40099 0.0
C1618 C 0.7125 0.35792 0.39792 0.0
C1619 C 0.72677 0.37457 0.40253 0.0
C1620 C 0.72274 0.39315 0.39971 0.0
C1621 C 0.70456 0.39528 0.39211 0.0
C1622 C 0.69039 0.37883 0.38727 0.0
C1623 C 0.69433 0.3602 0.39009 0.0
H1624 H 0.70148 0.40968 0.38993 0.0
H1625 H 0.74943 0.23288 0.41302 0.0
H1626 H 0.49625 0.07437 0.9271 0.0
H1627 H 0.51077 0.05602 0.90514 0.0
H1628 H 0.56569 0.09725 0.91143 0.0
H1629 H 0.5511 0.11568 0.93327 0.0
H1630 H 0.55642 0.0889 0.87505 0.0
H1631 H 0.55968 0.05336 0.93329 0.0
H1632 H 0.54659 0.03602 0.96212 0.0
H1633 H 0.50746 0.9935 0.9291 0.0
H1634 H 0.52013 0.01075 0.90006 0.0
H1635 H 0.60719 0.01119 0.84252 0.0
H1636 H 0.59404 0.02533 0.86865 0.0
H1637 H 0.546 0.03566 0.8326 0.0
H1638 H 0.55876 0.02147 0.80654 0.0
H1639 H 0.55539 0.01839 0.88578 0.0
H1640 H 0.546 0.08417 0.83827 0.0
H1641 H 0.56001 0.10164 0.80981 0.0
H1642 H 0.61436 0.08438 0.82313 0.0
H1643 H 0.60076 0.06708 0.8518 0.0
C1644 C 0.51135 0.07956 0.92358 0.0
C1645 C 0.52251 0.09656 0.9315 0.0
C1646 C 0.51967 0.06903 0.91121 0.0
C1647 C 0.53934 0.07522 0.90679 0.0
C1648 C 0.55048 0.09227 0.91465 0.0
C1649 C 0.54216 0.10279 0.92704 0.0
C1650 C 0.54824 0.06401 0.89379 0.0
C1651 C 0.55625 0.07351 0.87746 0.0
C1652 C 0.54823 0.04398 0.89706 0.0
C1653 C 0.54076 0.03344 0.9145 0.0
C1654 C 0.5482 0.04038 0.93217 0.0
C1655 C 0.54086 0.03056 0.94855 0.0
C1656 C 0.52617 0.0137 0.94744 0.0
C1657 C 0.51883 0.00658 0.92994 0.0
C1658 C 0.5261 0.01636 0.91352 0.0
C1659 C 0.59359 0.01607 0.84026 0.0
C1660 C 0.58416 0.01543 0.82238 0.0
C1661 C 0.5861 0.02409 0.85521 0.0
C1662 C 0.56924 0.03172 0.85239 0.0
C1663 C 0.55914 0.02996 0.83493 0.0
C1664 C 0.56648 0.02183 0.82007 0.0
C1665 C 0.56311 0.04323 0.86698 0.0
C1666 C 0.55563 0.0338 0.88352 0.0
C1667 C 0.5638 0.0634 0.86405 0.0
C1668 C 0.57228 0.07418 0.84708 0.0
C1669 C 0.56097 0.08419 0.83517 0.0
C1670 C 0.56883 0.09405 0.819 0.0
C1671 C 0.58804 0.09406 0.81463 0.0
C1672 C 0.59946 0.0843 0.82649 0.0
C1673 C 0.59167 0.07445 0.84269 0.0
H1674 H 0.59407 0.10166 0.80208 0.0
H1675 H 0.52051 0.00612 0.96014 0.0
H1676 H 0.29595 0.28614 0.32526 0.0
H1677 H 0.30004 0.26497 0.35234 0.0
H1678 H 0.28278 0.30549 0.3887 0.0
H1679 H 0.27992 0.32739 0.36185 0.0
H1680 H 0.31176 0.2923 0.40488 0.0
H1681 H 0.25088 0.26294 0.37405 0.0
H1682 H 0.22904 0.24928 0.34755 0.0
H1683 H 0.26228 0.2052 0.34181 0.0
H1684 H 0.28448 0.21876 0.36813 0.0
H1685 H 0.2776 0.22639 0.48088 0.0
H1686 H 0.28227 0.24995 0.45454 0.0
H1687 H 0.30817 0.211 0.42364 0.0
H1688 H 0.30368 0.18737 0.44994 0.0
H1689 H 0.27697 0.22298 0.40445 0.0
H1690 H 0.33627 0.25174 0.43793 0.0
H1691 H 0.35651 0.26545 0.46536 0.0
H1692 H 0.32413 0.31076 0.46731 0.0
H1693 H 0.30349 0.29715 0.44003 0.0
C1694 C 0.2933 0.29073 0.33903 0.0
C1695 C 0.28749 0.30847 0.34132 0.0
C1696 C 0.29543 0.27847 0.3545 0.0
C1697 C 0.29141 0.28347 0.37253 0.0
C1698 C 0.28589 0.30127 0.37491 0.0
C1699 C 0.284 0.31367 0.35949 0.0
C1700 C 0.29264 0.27002 0.38888 0.0
C1701 C 0.30399 0.27719 0.40485 0.0
C1702 C 0.28281 0.2502 0.38873 0.0
C1703 C 0.26946 0.24199 0.37293 0.0
C1704 C 0.25362 0.25042 0.36704 0.0
C1705 C 0.24116 0.24269 0.35207 0.0
C1706 C 0.24431 0.22642 0.34297 0.0
C1707 C 0.25989 0.21782 0.34885 0.0
C1708 C 0.2724 0.22552 0.3638 0.0
C1709 C 0.28461 0.22297 0.46862 0.0
C1710 C 0.29015 0.20495 0.46746 0.0
C1711 C 0.28733 0.23648 0.45361 0.0
C1712 C 0.29556 0.23218 0.43718 0.0
C1713 C 0.30179 0.21456 0.43624 0.0
C1714 C 0.29927 0.20112 0.45131 0.0
C1715 C 0.296 0.24528 0.42041 0.0
C1716 C 0.28488 0.23805 0.40439 0.0
C1717 C 0.3058 0.26506 0.42064 0.0
C1718 C 0.31822 0.27331 0.43702 0.0
C1719 C 0.33335 0.26452 0.4443 0.0
C1720 C 0.34492 0.2723 0.4598 0.0
C1721 C 0.34158 0.28894 0.4681 0.0
C1722 C 0.32669 0.29786 0.46088 0.0
C1723 C 0.31506 0.29014 0.44538 0.0
H1724 H 0.35056 0.29494 0.4801 0.0
H1725 H 0.23465 0.22045 0.33138 0.0
H1726 H 0.51616 0.46024 0.91516 0.0
H1727 H 0.50133 0.487 0.9026 0.0
H1728 H 0.52339 0.48102 0.84821 0.0
H1729 H 0.5384 0.45446 0.86085 0.0
H1730 H 0.52461 0.51934 0.85577 0.0
H1731 H 0.47788 0.45736 0.85886 0.0
H1732 H 0.45968 0.42797 0.87515 0.0
H1733 H 0.43607 0.46382 0.91138 0.0
H1734 H 0.45436 0.49343 0.89543 0.0
H1735 H 0.45802 0.54135 0.78643 0.0
H1736 H 0.48036 0.52924 0.80854 0.0
H1737 H 0.44667 0.53988 0.85455 0.0
H1738 H 0.42382 0.55172 0.83232 0.0
H1739 H 0.4523 0.50408 0.85682 0.0
H1740 H 0.49402 0.56612 0.84884 0.0
H1741 H 0.51177 0.59519 0.8318 0.0
H1742 H 0.54457 0.55995 0.8045 0.0
H1743 H 0.52684 0.5306 0.82116 0.0
C1744 C 0.51801 0.46488 0.9006 0.0
C1745 C 0.52791 0.45507 0.88878 0.0
C1746 C 0.50959 0.48012 0.89345 0.0
C1747 C 0.51095 0.48573 0.87439 0.0
C1748 C 0.52208 0.47686 0.86294 0.0
C1749 C 0.53053 0.46166 0.8701 0.0
C1750 C 0.49929 0.49937 0.86585 0.0
C1751 C 0.5088 0.51606 0.85595 0.0
C1752 C 0.47869 0.49536 0.86659 0.0
C1753 C 0.46766 0.47758 0.87612 0.0
C1754 C 0.46893 0.45896 0.87039 0.0
C1755 C 0.45858 0.44227 0.87955 0.0
C1756 C 0.44678 0.44403 0.89434 0.0
C1757 C 0.44525 0.46248 0.89996 0.0
C1758 C 0.4556 0.47922 0.89087 0.0
C1759 C 0.45547 0.54145 0.80126 0.0
C1760 C 0.43901 0.54737 0.80758 0.0
C1761 C 0.46841 0.53465 0.81394 0.0
C1762 C 0.46534 0.53381 0.83326 0.0
C1763 C 0.44937 0.54046 0.83971 0.0
C1764 C 0.43634 0.54725 0.82698 0.0
C1765 C 0.47755 0.52391 0.84626 0.0
C1766 C 0.46813 0.5078 0.85698 0.0
C1767 C 0.49821 0.52849 0.84624 0.0
C1768 C 0.50901 0.54612 0.83621 0.0
C1769 C 0.50493 0.56453 0.83911 0.0
C1770 C 0.515 0.58107 0.82953 0.0
C1771 C 0.52927 0.57941 0.81706 0.0
C1772 C 0.53352 0.56121 0.81417 0.0
C1773 C 0.52348 0.54462 0.82371 0.0
H1774 H 0.53705 0.59224 0.80965 0.0
H1775 H 0.43877 0.43109 0.90141 0.0
H1776 H 0.68576 0.76946 0.16341 0.0
H1777 H 0.69464 0.74617 0.14262 0.0
H1778 H 0.7538 0.75953 0.16568 0.0
H1779 H 0.74506 0.78343 0.18604 0.0
H1780 H 0.75437 0.75905 0.12957 0.0
H1781 H 0.72189 0.71483 0.17539 0.0
H1782 H 0.69577 0.70017 0.19668 0.0
H1783 H 0.65559 0.68591 0.14952 0.0
H1784 H 0.68139 0.70074 0.12794 0.0
H1785 H 0.77413 0.68454 0.0718 0.0
H1786 H 0.76982 0.70035 0.10097 0.0
H1787 H 0.71133 0.7037 0.08191 0.0
H1788 H 0.71555 0.68817 0.05284 0.0
H1789 H 0.71435 0.69257 0.12012 0.0
H1790 H 0.74659 0.74188 0.0755 0.0
H1791 H 0.77316 0.7564 0.05462 0.0
H1792 H 0.81479 0.76012 0.10113 0.0
H1793 H 0.78846 0.74537 0.12224 0.0
C1794 C 0.70057 0.76717 0.16424 0.0
C1795 C 0.71458 0.77781 0.1767 0.0
C1796 C 0.70563 0.75379 0.15243 0.0
C1797 C 0.7248 0.75071 0.15288 0.0
C1798 C 0.73887 0.76147 0.16523 0.0
C1799 C 0.73385 0.77501 0.17694 0.0
C1800 C 0.73029 0.7372 0.13957 0.0
C1801 C 0.74589 0.74435 0.12785 0.0
C1802 C 0.71916 0.71804 0.13714 0.0
C1803 C 0.70357 0.70902 0.15005 0.0
C1804 C 0.70745 0.70869 0.16956 0.0
C1805 C 0.6927 0.70033 0.18168 0.0
C1806 C 0.67402 0.69214 0.17445 0.0
C1807 C 0.67006 0.69226 0.15509 0.0
C1808 C 0.68476 0.70062 0.14291 0.0
C1809 C 0.76028 0.68842 0.07398 0.0
C1810 C 0.74523 0.68526 0.06 0.0
C1811 C 0.75786 0.69747 0.0906 0.0
C1812 C 0.74029 0.70327 0.09351 0.0
C1813 C 0.72498 0.6993 0.07994 0.0
C1814 C 0.72747 0.69052 0.06329 0.0
C1815 C 0.73805 0.71466 0.11001 0.0
C1816 C 0.72306 0.70712 0.12224 0.0
C1817 C 0.74983 0.73337 0.11305 0.0
C1818 C 0.76561 0.7423 0.10038 0.0
C1819 C 0.76143 0.74564 0.08123 0.0
C1820 C 0.77644 0.75394 0.06936 0.0
C1821 C 0.79566 0.75912 0.07653 0.0
C1822 C 0.7999 0.75606 0.09559 0.0
C1823 C 0.78495 0.74774 0.10751 0.0
H1824 H 0.80726 0.76555 0.06732 0.0
H1825 H 0.66262 0.68568 0.18386 0.0
H1826 H 0.03879 0.08015 0.0958 0.0
H1827 H 0.01384 0.07787 0.11881 0.0
H1828 H 0.02893 0.1402 0.12498 0.0
H1829 H 0.05453 0.14258 0.10222 0.0
H1830 H 0.02168 0.12026 0.15899 0.0
H1831 H 0.9896 0.12216 0.0992 0.0
H1832 H 0.98109 0.11343 0.06628 0.0
H1833 H 0.95676 0.05445 0.08378 0.0
H1834 H 0.9654 0.06275 0.1168 0.0
H1835 H 0.93269 0.10545 0.21025 0.0
H1836 H 0.95612 0.11894 0.18612 0.0
H1837 H 0.95753 0.06065 0.17008 0.0
H1838 H 0.93446 0.04718 0.19402 0.0
H1839 H 0.95467 0.08609 0.1395 0.0
H1840 H 0.99234 0.08402 0.19864 0.0
H1841 H 0.00117 0.09305 0.23146 0.0
H1842 H 0.01446 0.15363 0.21462 0.0
H1843 H 0.00545 0.14494 0.18171 0.0
C1844 C 0.03715 0.09336 0.10231 0.0
C1845 C 0.04867 0.11156 0.09716 0.0
C1846 C 0.0227 0.09206 0.11531 0.0
C1847 C 0.0193 0.10891 0.12333 0.0
C1848 C 0.03123 0.12704 0.11883 0.0
C1849 C 0.04576 0.12838 0.10577 0.0
C1850 C 0.00291 0.10733 0.13604 0.0
C1851 C 0.00693 0.1132 0.15463 0.0
C1852 C 0.98367 0.09813 0.13033 0.0
C1853 C 0.97825 0.09307 0.11049 0.0
C1854 C 0.98255 0.1073 0.09603 0.0
C1855 C 0.97769 0.10243 0.07734 0.0
C1856 C 0.96841 0.08339 0.07294 0.0
C1857 C 0.96394 0.06919 0.08721 0.0
C1858 C 0.9688 0.07398 0.10592 0.0
C1859 C 0.93788 0.09557 0.20142 0.0
C1860 C 0.93184 0.07527 0.20406 0.0
C1861 C 0.95128 0.10328 0.18772 0.0
C1862 C 0.95858 0.09076 0.1764 0.0
C1863 C 0.95203 0.07055 0.17865 0.0
C1864 C 0.93891 0.06288 0.1924 0.0
C1865 C 0.97361 0.09831 0.16258 0.0
C1866 C 0.96931 0.09359 0.14373 0.0
C1867 C 0.99252 0.10867 0.16804 0.0
C1868 C 0.99798 0.11385 0.18778 0.0
C1869 C 0.99698 0.09927 0.20197 0.0
C1870 C 0.00205 0.10432 0.22058 0.0
C1871 C 0.0083 0.12391 0.22513 0.0
C1872 C 0.00956 0.13847 0.21108 0.0
C1873 C 0.00448 0.13349 0.19245 0.0
H1874 H 0.01222 0.12779 0.23955 0.0
H1875 H 0.96466 0.07965 0.05846 0.0
H1876 H 0.26358 0.77899 0.16991 0.0
H1877 H 0.26056 0.80085 0.14303 0.0
H1878 H 0.24811 0.84358 0.1798 0.0
H1879 H 0.2517 0.82188 0.20704 0.0
H1880 H 0.22265 0.83446 0.14375 0.0
H1881 H 0.2891 0.85515 0.16716 0.0
H1882 H 0.32125 0.84984 0.17887 0.0
H1883 H 0.32868 0.82373 0.12703 0.0
H1884 H 0.29641 0.8286 0.11511 0.0
H1885 H 0.23531 0.90512 0.06661 0.0
H1886 H 0.23495 0.88914 0.09783 0.0
H1887 H 0.2661 0.84796 0.07713 0.0
H1888 H 0.26707 0.86415 0.04637 0.0
H1889 H 0.28232 0.86086 0.10862 0.0
H1890 H 0.21584 0.83656 0.08602 0.0
H1891 H 0.18306 0.83937 0.07377 0.0
H1892 H 0.17495 0.86985 0.12281 0.0
H1893 H 0.20781 0.86743 0.13525 0.0
C1894 C 0.26042 0.79311 0.17235 0.0
C1895 C 0.2586 0.79907 0.19065 0.0
C1896 C 0.25855 0.8055 0.15696 0.0
C1897 C 0.25433 0.82384 0.15952 0.0
C1898 C 0.25149 0.82949 0.17763 0.0
C1899 C 0.25366 0.81718 0.19311 0.0
C1900 C 0.25376 0.83725 0.14317 0.0
C1901 C 0.2357 0.84062 0.1362 0.0
C1902 C 0.27077 0.84488 0.13326 0.0
C1903 C 0.29027 0.8421 0.14031 0.0
C1904 C 0.29752 0.84812 0.15832 0.0
C1905 C 0.31578 0.84522 0.16498 0.0
C1906 C 0.32698 0.83642 0.15372 0.0
C1907 C 0.31997 0.83054 0.13574 0.0
C1908 C 0.30171 0.83338 0.12902 0.0
C1909 C 0.24195 0.89258 0.06876 0.0
C1910 C 0.2513 0.88594 0.0541 0.0
C1911 C 0.2417 0.88343 0.08657 0.0
C1912 C 0.25047 0.8673 0.08984 0.0
C1913 C 0.25939 0.86046 0.07503 0.0
C1914 C 0.25988 0.86971 0.05741 0.0
C1915 C 0.25106 0.85769 0.10868 0.0
C1916 C 0.26922 0.85504 0.11621 0.0
C1917 C 0.23408 0.85054 0.11892 0.0
C1918 C 0.21436 0.85203 0.11145 0.0
C1919 C 0.20713 0.84401 0.09411 0.0
C1920 C 0.18852 0.8455 0.08715 0.0
C1921 C 0.17695 0.85484 0.09747 0.0
C1922 C 0.18394 0.86266 0.11481 0.0
C1923 C 0.20255 0.86123 0.12183 0.0
H1924 H 0.16255 0.85598 0.09206 0.0
H1925 H 0.34112 0.83418 0.1589 0.0
H1926 H 0.9328 0.48166 0.1159 0.0
H1927 H 0.95534 0.48231 0.14314 0.0
H1928 H 0.99869 0.46846 0.10824 0.0
H1929 H 0.97662 0.46859 0.08071 0.0
H1930 H 0.994 0.44758 0.14541 0.0
H1931 H 0.00481 0.51221 0.11644 0.0
H1932 H 0.99416 0.54138 0.10321 0.0
H1933 H 0.97071 0.55 0.15594 0.0
H1934 H 0.98096 0.52068 0.1694 0.0
H1935 H 0.07686 0.47891 0.20863 0.0
H1936 H 0.05353 0.47075 0.18195 0.0
H1937 H 0.01372 0.5002 0.20756 0.0
H1938 H 0.03727 0.50909 0.2336 0.0
H1939 H 0.01726 0.51226 0.17374 0.0
H1940 H 0.00588 0.44864 0.20351 0.0
H1941 H 0.01467 0.41882 0.21739 0.0
H1942 H 0.03711 0.40736 0.16502 0.0
H1943 H 0.02869 0.43727 0.15089 0.0
C1944 C 0.94714 0.47882 0.11395 0.0
C1945 C 0.95293 0.47529 0.09603 0.0
C1946 C 0.95991 0.479 0.12957 0.0
C1947 C 0.97864 0.47547 0.12763 0.0
C1948 C 0.98422 0.47108 0.10999 0.0
C1949 C 0.97154 0.47112 0.09429 0.0
C1950 C 0.99288 0.47798 0.14375 0.0
C1951 C 0.99932 0.46171 0.15156 0.0
C1952 C 0.99942 0.49638 0.15186 0.0
C1953 C 0.99348 0.51415 0.14386 0.0
C1954 C 0.99724 0.52024 0.12517 0.0
C1955 C 0.9913 0.53681 0.11764 0.0
C1956 C 0.98172 0.54751 0.12871 0.0
C1957 C 0.97811 0.54169 0.14737 0.0
C1958 C 0.984 0.5251 0.15496 0.0
C1959 C 0.06299 0.48336 0.20862 0.0
C1960 C 0.0589 0.49475 0.22305 0.0
C1961 C 0.04963 0.47864 0.19343 0.0
C1962 C 0.0318 0.48483 0.19272 0.0
C1963 C 0.02742 0.4954 0.20765 0.0
C1964 C 0.04087 0.50044 0.22256 0.0
C1965 C 0.01826 0.48174 0.17593 0.0
C1966 C 0.01201 0.49802 0.16779 0.0
C1967 C 0.01175 0.46329 0.16774 0.0
C1968 C 0.01685 0.44531 0.1762 0.0
C1969 C 0.01284 0.43985 0.195 0.0
C1970 C 0.01773 0.42291 0.2029 0.0
C1971 C 0.0265 0.41123 0.19211 0.0
C1972 C 0.03035 0.41644 0.17337 0.0
C1973 C 0.02551 0.43337 0.1654 0.0
H1974 H 0.03026 0.39812 0.19825 0.0
H1975 H 0.97713 0.56034 0.12286 0.0
H1976 H 0.33325 0.76606 0.23157 0.0
H1977 H 0.36274 0.7692 0.25177 0.0
H1978 H 0.3297 0.73375 0.29469 0.0
H1979 H 0.29993 0.73141 0.27496 0.0
H1980 H 0.3538 0.76325 0.30995 0.0
H1981 H 0.35965 0.71529 0.26598 0.0
H1982 H 0.36022 0.70165 0.23474 0.0
H1983 H 0.40915 0.74731 0.22104 0.0
H1984 H 0.40871 0.76139 0.25212 0.0
H1985 H 0.43525 0.74469 0.36434 0.0
H1986 H 0.40622 0.7389 0.3433 0.0
H1987 H 0.43621 0.78064 0.30308 0.0
H1988 H 0.46536 0.78658 0.32402 0.0
H1989 H 0.41375 0.74692 0.28668 0.0
H1990 H 0.40674 0.795 0.33098 0.0
H1991 H 0.40606 0.80766 0.36263 0.0
H1992 H 0.35885 0.76003 0.37608 0.0
H1993 H 0.35945 0.74692 0.34458 0.0
C1994 C 0.33218 0.75916 0.24541 0.0
C1995 C 0.31421 0.74842 0.2516 0.0
C1996 C 0.34912 0.76075 0.25685 0.0
C1997 C 0.34852 0.7514 0.27461 0.0
C1998 C 0.33055 0.74097 0.28098 0.0
C1999 C 0.31357 0.73951 0.26961 0.0
C2000 C 0.36658 0.75267 0.28664 0.0
C2001 C 0.36679 0.75938 0.30493 0.0
C2002 C 0.38368 0.74795 0.28001 0.0
C2003 C 0.38402 0.7395 0.26132 0.0
C2004 C 0.37044 0.72251 0.25626 0.0
C2005 C 0.37075 0.71469 0.23859 0.0
C2006 C 0.38468 0.72364 0.2259 0.0
C2007 C 0.39835 0.74041 0.23088 0.0
C2008 C 0.39809 0.74831 0.24852 0.0
C2009 C 0.43579 0.75247 0.35092 0.0
C2010 C 0.45259 0.76622 0.34592 0.0
C2011 C 0.41916 0.74919 0.33895 0.0
C2012 C 0.41903 0.75953 0.32176 0.0
C2013 C 0.43603 0.77257 0.31633 0.0
C2014 C 0.45264 0.77597 0.32834 0.0
C2015 C 0.40088 0.75748 0.30988 0.0
C2016 C 0.40068 0.75066 0.29165 0.0
C2017 C 0.38374 0.76194 0.3166 0.0
C2018 C 0.38328 0.76987 0.3355 0.0
C2019 C 0.39632 0.78714 0.34074 0.0
C2020 C 0.39593 0.79441 0.35864 0.0
C2021 C 0.38246 0.78463 0.37138 0.0
C2022 C 0.3693 0.76758 0.36621 0.0
C2023 C 0.36965 0.76023 0.34833 0.0
H2024 H 0.38218 0.79028 0.38524 0.0
H2025 H 0.3849 0.71756 0.21222 0.0
H2026 H 0.92104 0.42185 0.01652 0.0
H2027 H 0.93207 0.39622 0.00033 0.0
H2028 H 0.98283 0.43802 0.98268 0.0
H2029 H 0.97198 0.46364 0.999 0.0
H2030 H 0.96291 0.41604 0.95372 0.0
H2031 H 0.98818 0.40553 0.01623 0.0
H2032 H 0.98614 0.39956 0.0504 0.0
H2033 H 0.94482 0.34578 0.0414 0.0
H2034 H 0.9464 0.35157 0.00715 0.0
H2035 H 0.01322 0.35189 0.91422 0.0
H2036 H 0.00513 0.37611 0.93439 0.0
H2037 H 0.95848 0.33255 0.95724 0.0
H2038 H 0.96685 0.30808 0.9375 0.0
H2039 H 0.97638 0.35529 0.98417 0.0
H2040 H 0.94956 0.36545 0.92258 0.0
H2041 H 0.94993 0.37097 0.88827 0.0
H2042 H 0.99181 0.42476 0.89527 0.0
H2043 H 0.99189 0.41943 0.92963 0.0
C2044 C 0.93475 0.42547 0.00951 0.0
C2045 C 0.94597 0.44462 0.00945 0.0
C2046 C 0.941 0.41084 0.00025 0.0
C2047 C 0.95838 0.4152 0.99051 0.0
C2048 C 0.96946 0.43434 0.99024 0.0
C2049 C 0.96331 0.44891 0.99962 0.0
C2050 C 0.96458 0.40004 0.97985 0.0
C2051 C 0.96614 0.40288 0.9604 0.0
C2052 C 0.96818 0.38263 0.98854 0.0
C2053 C 0.96726 0.37909 0.00912 0.0
C2054 C 0.97853 0.39252 0.02153 0.0
C2055 C 0.97748 0.38915 0.04092 0.0
C2056 C 0.96532 0.37233 0.04806 0.0
C2057 C 0.95421 0.35881 0.03584 0.0
C2058 C 0.95519 0.36212 0.01644 0.0
C2059 C 0.00132 0.34741 0.92363 0.0
C2060 C 0.99056 0.32809 0.92412 0.0
C2061 C 0.99667 0.3613 0.93511 0.0
C2062 C 0.98094 0.35624 0.94706 0.0
C2063 C 0.97063 0.3368 0.94808 0.0
C2064 C 0.9754 0.32285 0.93675 0.0
C2065 C 0.97485 0.37134 0.958 0.0
C2066 C 0.97322 0.36847 0.97748 0.0
C2067 C 0.97094 0.38866 0.94932 0.0
C2068 C 0.97088 0.39194 0.92866 0.0
C2069 C 0.95896 0.37839 0.91679 0.0
C2070 C 0.95907 0.38149 0.89734 0.0
C2071 C 0.97093 0.39818 0.88959 0.0
C2072 C 0.98266 0.41182 0.90129 0.0
C2073 C 0.98262 0.40878 0.92075 0.0
H2074 H 0.97099 0.40055 0.87453 0.0
H2075 H 0.96453 0.36974 0.06307 0.0
H2076 H 0.68928 0.78595 0.26598 0.0
H2077 H 0.66328 0.78035 0.28857 0.0
H2078 H 0.65187 0.83733 0.27464 0.0
H2079 H 0.67774 0.843 0.25217 0.0
H2080 H 0.6527 0.83102 0.31169 0.0
H2081 H 0.62263 0.79553 0.25741 0.0
H2082 H 0.6197 0.77105 0.23297 0.0
H2083 H 0.61645 0.72558 0.27538 0.0
H2084 H 0.61962 0.74985 0.30008 0.0
H2085 H 0.55684 0.82789 0.33771 0.0
H2086 H 0.58676 0.8291 0.3213 0.0
H2087 H 0.59046 0.77241 0.34473 0.0
H2088 H 0.56032 0.77104 0.36127 0.0
H2089 H 0.5958 0.77553 0.30658 0.0
H2090 H 0.62177 0.81124 0.3608 0.0
H2091 H 0.62402 0.83606 0.38478 0.0
H2092 H 0.63452 0.88147 0.34221 0.0
H2093 H 0.63207 0.85691 0.31792 0.0
C2094 C 0.68113 0.79721 0.26768 0.0
C2095 C 0.68559 0.81493 0.25735 0.0
C2096 C 0.66631 0.79401 0.2806 0.0
C2097 C 0.65558 0.8084 0.28323 0.0
C2098 C 0.66005 0.82608 0.27294 0.0
C2099 C 0.67486 0.82931 0.26012 0.0
C2100 C 0.63957 0.8052 0.29659 0.0
C2101 C 0.6402 0.81895 0.3105 0.0
C2102 C 0.62356 0.78911 0.29542 0.0
C2103 C 0.6216 0.77452 0.28058 0.0
C2104 C 0.62145 0.78033 0.26152 0.0
C2105 C 0.61972 0.76649 0.24762 0.0
C2106 C 0.61796 0.74678 0.25262 0.0
C2107 C 0.61786 0.74086 0.27153 0.0
C2108 C 0.61962 0.75465 0.28548 0.0
C2109 C 0.56405 0.81572 0.33951 0.0
C2110 C 0.55621 0.79937 0.35081 0.0
C2111 C 0.58122 0.81647 0.33017 0.0
C2112 C 0.59093 0.80093 0.33194 0.0
C2113 C 0.58321 0.78458 0.34325 0.0
C2114 C 0.56604 0.78386 0.35272 0.0
C2115 C 0.60872 0.80164 0.32133 0.0
C2116 C 0.60844 0.78742 0.30796 0.0
C2117 C 0.62503 0.81735 0.32294 0.0
C2118 C 0.6266 0.8322 0.33751 0.0
C2119 C 0.62442 0.82651 0.35652 0.0
C2120 C 0.62576 0.84054 0.37018 0.0
C2121 C 0.62938 0.86033 0.36502 0.0
C2122 C 0.63171 0.86613 0.34619 0.0
C2123 C 0.63038 0.85216 0.33247 0.0
H2124 H 0.63041 0.87117 0.37561 0.0
H2125 H 0.61661 0.73609 0.24184 0.0
H2126 H 0.06612 0.12004 0.01457 0.0
H2127 H 0.05986 0.14308 0.9897 0.0
H2128 H 0.07352 0.18992 0.02883 0.0
H2129 H 0.07921 0.16675 0.05386 0.0
H2130 H 0.04127 0.19133 0.01171 0.0
H2131 H 0.10329 0.18642 0.99128 0.0
H2132 H 0.12931 0.17025 0.98232 0.0
H2133 H 0.09292 0.14374 0.93626 0.0
H2134 H 0.06656 0.15954 0.9451 0.0
H2135 H 0.0459 0.25317 0.9189 0.0
H2136 H 0.06193 0.23364 0.94126 0.0
H2137 H 0.00573 0.19912 0.95557 0.0
H2138 H 0.98965 0.21876 0.93368 0.0
H2139 H 0.06372 0.19587 0.94653 0.0
H2140 H 0.00448 0.1905 0.00181 0.0
H2141 H 0.98117 0.20963 0.01166 0.0
H2142 H 0.01754 0.26212 0.99003 0.0
H2143 H 0.04119 0.24336 0.9803 0.0
C2144 C 0.06819 0.13533 0.01774 0.0
C2145 C 0.0731 0.14164 0.03612 0.0
C2146 C 0.06467 0.14852 0.0035 0.0
C2147 C 0.06634 0.16831 0.00732 0.0
C2148 C 0.07207 0.17473 0.02553 0.0
C2149 C 0.07533 0.16151 0.03982 0.0
C2150 C 0.06027 0.18186 0.99285 0.0
C2151 C 0.04632 0.19238 0.99751 0.0
C2152 C 0.06707 0.18358 0.97436 0.0
C2153 C 0.08289 0.17406 0.96895 0.0
C2154 C 0.10078 0.17703 0.97932 0.0
C2155 C 0.1156 0.16795 0.97425 0.0
C2156 C 0.11276 0.15595 0.95875 0.0
C2157 C 0.0951 0.15304 0.94827 0.0
C2158 C 0.08022 0.16207 0.95329 0.0
C2159 C 0.03699 0.24127 0.92667 0.0
C2160 C 0.0165 0.23766 0.92472 0.0
C2161 C 0.04617 0.23011 0.9394 0.0
C2162 C 0.035 0.21518 0.95034 0.0
C2163 C 0.01461 0.21085 0.94757 0.0
C2164 C 0.00544 0.22206 0.935 0.0
C2165 C 0.0444 0.20476 0.96537 0.0
C2166 C 0.05888 0.19487 0.9608 0.0
C2167 C 0.03854 0.20402 0.98412 0.0
C2168 C 0.02452 0.21548 0.99019 0.0
C2169 C 0.00754 0.20613 0.99924 0.0
C2170 C 0.99427 0.21692 0.00479 0.0
C2171 C 0.99785 0.23707 0.00143 0.0
C2172 C 0.01475 0.2465 0.99257 0.0
C2173 C 0.02809 0.2358 0.98702 0.0
H2174 H 0.98754 0.24539 0.00571 0.0
H2175 H 0.12425 0.14893 0.95485 0.0
H2176 H 0.33118 0.30562 0.27706 0.0
H2177 H 0.36122 0.30351 0.26175 0.0
H2178 H 0.34729 0.34181 0.21684 0.0
H2179 H 0.31721 0.3438 0.23209 0.0
H2180 H 0.35819 0.31001 0.20377 0.0
H2181 H 0.38232 0.35856 0.24957 0.0
H2182 H 0.38705 0.37202 0.28126 0.0
H2183 H 0.41583 0.32619 0.30028 0.0
H2184 H 0.41101 0.31228 0.26875 0.0
H2185 H 0.44836 0.32752 0.1601 0.0
H2186 H 0.4205 0.33264 0.17693 0.0
H2187 H 0.43476 0.29539 0.22256 0.0
H2188 H 0.46292 0.29041 0.20596 0.0
H2189 H 0.42387 0.32705 0.23538 0.0
H2190 H 0.3991 0.27793 0.19033 0.0
H2191 H 0.39415 0.26381 0.15892 0.0
H2192 H 0.36624 0.30992 0.13886 0.0
H2193 H 0.37128 0.32447 0.1701 0.0
C2194 C 0.33461 0.31353 0.2639 0.0
C2195 C 0.3219 0.32466 0.25558 0.0
C2196 C 0.35175 0.31243 0.25524 0.0
C2197 C 0.35651 0.32261 0.23822 0.0
C2198 C 0.34385 0.33383 0.22995 0.0
C2199 C 0.32672 0.33496 0.23864 0.0
C2200 C 0.37446 0.32116 0.22878 0.0
C2201 C 0.37258 0.31402 0.21056 0.0
C2202 C 0.39315 0.32589 0.23789 0.0
C2203 C 0.39614 0.33427 0.25684 0.0
C2204 C 0.38952 0.35125 0.26055 0.0
C2205 C 0.39224 0.35898 0.27847 0.0
C2206 C 0.40169 0.34994 0.29278 0.0
C2207 C 0.40848 0.33317 0.28918 0.0
C2208 C 0.40578 0.32537 0.27128 0.0
C2209 C 0.44568 0.32051 0.17377 0.0
C2210 C 0.45778 0.30842 0.18161 0.0
C2211 C 0.4297 0.3234 0.18334 0.0
C2212 C 0.42539 0.31413 0.20085 0.0
C2213 C 0.43781 0.30262 0.20903 0.0
C2214 C 0.45386 0.29977 0.19949 0.0
C2215 C 0.40758 0.31598 0.21033 0.0
C2216 C 0.40947 0.32312 0.22857 0.0
C2217 C 0.38886 0.31116 0.20129 0.0
C2218 C 0.38575 0.3024 0.1825 0.0
C2219 C 0.39205 0.28514 0.17918 0.0
C2220 C 0.3892 0.27705 0.16141 0.0
C2221 C 0.37993 0.28599 0.14689 0.0
C2222 C 0.37344 0.30302 0.15011 0.0
C2223 C 0.37628 0.3112 0.16785 0.0
H2224 H 0.37774 0.27969 0.13314 0.0
H2225 H 0.40378 0.35594 0.30665 0.0
H2226 H 0.58939 0.44843 0.98164 0.0
H2227 H 0.58264 0.43187 0.01218 0.0
H2228 H 0.52214 0.41272 0.99455 0.0
H2229 H 0.52875 0.4294 0.96405 0.0
H2230 H 0.52751 0.42816 0.03055 0.0
H2231 H 0.55137 0.38174 0.99428 0.0
H2232 H 0.57538 0.3711 0.97522 0.0
H2233 H 0.61831 0.38262 0.02056 0.0
H2234 H 0.59461 0.3936 0.03981 0.0
H2235 H 0.48773 0.34789 0.08722 0.0
H2236 H 0.50027 0.37166 0.06282 0.0
H2237 H 0.55834 0.37841 0.08809 0.0
H2238 H 0.54584 0.35411 0.11261 0.0
H2239 H 0.55845 0.37318 0.05129 0.0
H2240 H 0.53352 0.4154 0.08924 0.0
H2241 H 0.5098 0.42619 0.10854 0.0
H2242 H 0.46963 0.42349 0.06094 0.0
H2243 H 0.49299 0.41241 0.0414 0.0
C2244 C 0.57463 0.44077 0.98434 0.0
C2245 C 0.55957 0.44017 0.97051 0.0
C2246 C 0.57084 0.43127 0.00172 0.0
C2247 C 0.55192 0.42105 0.00555 0.0
C2248 C 0.53683 0.42056 0.99183 0.0
C2249 C 0.54065 0.42994 0.9744 0.0
C2250 C 0.54779 0.41063 0.02377 0.0
C2251 C 0.53415 0.41606 0.03508 0.0
C2252 C 0.55708 0.39537 0.02994 0.0
C2253 C 0.5713 0.38871 0.0184 0.0
C2254 C 0.56598 0.38217 0.00012 0.0
C2255 C 0.57952 0.37605 0.9893 0.0
C2256 C 0.59838 0.37624 0.99665 0.0
C2257 C 0.60371 0.38251 0.01487 0.0
C2258 C 0.59023 0.38868 0.02575 0.0
C2259 C 0.50315 0.35455 0.08778 0.0
C2260 C 0.51581 0.34908 0.10184 0.0
C2261 C 0.51028 0.36827 0.07385 0.0
C2262 C 0.5302 0.37701 0.07375 0.0
C2263 C 0.54289 0.3719 0.08797 0.0
C2264 C 0.53573 0.35808 0.10198 0.0
C2265 C 0.53771 0.39034 0.05793 0.0
C2266 C 0.55202 0.3855 0.04702 0.0
C2267 C 0.52911 0.40624 0.05219 0.0
C2268 C 0.51499 0.41296 0.06387 0.0
C2269 C 0.51957 0.41697 0.08291 0.0
C2270 C 0.5062 0.42316 0.09389 0.0
C2271 C 0.48821 0.4255 0.08597 0.0
C2272 C 0.48357 0.42168 0.06705 0.0
C2273 C 0.49689 0.41547 0.056 0.0
H2274 H 0.47787 0.43029 0.0945 0.0
H2275 H 0.60884 0.37149 0.98824 0.0
H2276 H 0.71449 0.28563 0.24769 0.0
H2277 H 0.68767 0.29024 0.22555 0.0
H2278 H 0.64577 0.2624 0.26565 0.0
H2279 H 0.67233 0.25808 0.28774 0.0
H2280 H 0.63794 0.24901 0.22794 0.0
H2281 H 0.65541 0.30908 0.263 0.0
H2282 H 0.67834 0.33873 0.27365 0.0
H2283 H 0.6876 0.35829 0.21645 0.0
H2284 H 0.66491 0.32857 0.20546 0.0
H2285 H 0.54671 0.26963 0.21201 0.0
H2286 H 0.57899 0.26808 0.22518 0.0
H2287 H 0.6055 0.30606 0.18041 0.0
H2288 H 0.57295 0.30802 0.16723 0.0
H2289 H 0.62499 0.31498 0.21383 0.0
H2290 H 0.6038 0.25795 0.17859 0.0
H2291 H 0.58116 0.22843 0.16728 0.0
H2292 H 0.57986 0.20285 0.2229 0.0
H2293 H 0.60227 0.23233 0.23462 0.0
C2294 C 0.69952 0.28042 0.25163 0.0
C2295 C 0.69537 0.2716 0.26938 0.0
C2296 C 0.68429 0.2831 0.23906 0.0
C2297 C 0.6648 0.27669 0.24404 0.0
C2298 C 0.66072 0.26742 0.26157 0.0
C2299 C 0.67586 0.26504 0.27418 0.0
C2300 C 0.6484 0.27982 0.23137 0.0
C2301 C 0.63507 0.26341 0.22482 0.0
C2302 C 0.64512 0.29866 0.22679 0.0
C2303 C 0.65869 0.3165 0.23341 0.0
C2304 C 0.66249 0.31961 0.25269 0.0
C2305 C 0.6754 0.33645 0.25879 0.0
C2306 C 0.68448 0.35035 0.24573 0.0
C2307 C 0.6806 0.34748 0.22654 0.0
C2308 C 0.66772 0.33065 0.22038 0.0
C2309 C 0.55937 0.27778 0.20499 0.0
C2310 C 0.55729 0.28881 0.18848 0.0
C2311 C 0.57783 0.2768 0.2125 0.0
C2312 C 0.59464 0.28657 0.20352 0.0
C2313 C 0.5927 0.29828 0.18746 0.0
C2314 C 0.57412 0.29939 0.17997 0.0
C2315 C 0.61408 0.28408 0.21099 0.0
C2316 C 0.62801 0.30058 0.21652 0.0
C2317 C 0.61805 0.26529 0.21448 0.0
C2318 C 0.60466 0.24742 0.2075 0.0
C2319 C 0.5986 0.24608 0.18844 0.0
C2320 C 0.58581 0.22934 0.18195 0.0
C2321 C 0.57906 0.21378 0.19437 0.0
C2322 C 0.58511 0.21491 0.2133 0.0
C2323 C 0.59788 0.23163 0.21986 0.0
H2324 H 0.56916 0.20084 0.18932 0.0
H2325 H 0.69446 0.36338 0.25048 0.0
H2326 H 0.49641 0.14804 0.99644 0.0
H2327 H 0.49754 0.17341 0.01921 0.0
H2328 H 0.48668 0.12948 0.06363 0.0
H2329 H 0.48491 0.10399 0.04069 0.0
H2330 H 0.46509 0.15468 0.06759 0.0
H2331 H 0.53274 0.15966 0.05759 0.0
H2332 H 0.56221 0.16267 0.03931 0.0
H2333 H 0.5544 0.21808 0.01647 0.0
H2334 H 0.52471 0.21528 0.03442 0.0
H2335 H 0.4925 0.22541 0.13999 0.0
H2336 H 0.49116 0.19799 0.11938 0.0
H2337 H 0.49066 0.23646 0.07091 0.0
H2338 H 0.49182 0.26386 0.09128 0.0
H2339 H 0.51902 0.21314 0.0708 0.0
H2340 H 0.45029 0.2067 0.0807 0.0
H2341 H 0.4214 0.20323 0.09989 0.0
H2342 H 0.43266 0.14974 0.12449 0.0
H2343 H 0.46181 0.15305 0.10562 0.0
C2344 C 0.49449 0.14385 0.0111 0.0
C2345 C 0.49069 0.12412 0.01688 0.0
C2346 C 0.49518 0.15833 0.02411 0.0
C2347 C 0.49251 0.15337 0.04319 0.0
C2348 C 0.4888 0.13364 0.04899 0.0
C2349 C 0.48783 0.11912 0.03592 0.0
C2350 C 0.493 0.16878 0.05696 0.0
C2351 C 0.47706 0.16729 0.06851 0.0
C2352 C 0.50847 0.18539 0.05799 0.0
C2353 C 0.5264 0.18718 0.04725 0.0
C2354 C 0.53722 0.17243 0.04858 0.0
C2355 C 0.55398 0.1741 0.03828 0.0
C2356 C 0.56015 0.19053 0.0267 0.0
C2357 C 0.54959 0.20535 0.02543 0.0
C2358 C 0.53281 0.20374 0.03568 0.0
C2359 C 0.49192 0.22799 0.12494 0.0
C2360 C 0.49229 0.24681 0.11727 0.0
C2361 C 0.49113 0.21233 0.11321 0.0
C2362 C 0.49083 0.21528 0.09367 0.0
C2363 C 0.49093 0.23395 0.08598 0.0
C2364 C 0.4915 0.24956 0.09765 0.0
C2365 C 0.49107 0.19906 0.08117 0.0
C2366 C 0.50716 0.20042 0.06992 0.0
C2367 C 0.47588 0.18226 0.08058 0.0
C2368 C 0.45835 0.18024 0.09191 0.0
C2369 C 0.44672 0.1943 0.09033 0.0
C2370 C 0.43027 0.19234 0.10112 0.0
C2371 C 0.42523 0.17631 0.11345 0.0
C2372 C 0.4366 0.16217 0.11496 0.0
C2373 C 0.45308 0.16408 0.10421 0.0
H2374 H 0.41249 0.17481 0.12179 0.0
H2375 H 0.57312 0.1918 0.01874 0.0
H2376 H 0.27262 0.35182 0.73107 0.0
H2377 H 0.29443 0.38376 0.73282 0.0
H2378 H 0.24725 0.4084 0.75086 0.0
H2379 H 0.22496 0.37689 0.74766 0.0
H2380 H 0.26728 0.43297 0.72826 0.0
H2381 H 0.28399 0.39637 0.78205 0.0
H2382 H 0.29343 0.36857 0.79947 0.0
H2383 H 0.34668 0.37794 0.76997 0.0
H2384 H 0.33743 0.40565 0.75218 0.0
H2385 H 0.33006 0.51644 0.77156 0.0
H2386 H 0.3064 0.48579 0.76615 0.0
H2387 H 0.34798 0.46558 0.73359 0.0
H2388 H 0.37153 0.49619 0.73859 0.0
H2389 H 0.33077 0.43941 0.76372 0.0
H2390 H 0.31272 0.47748 0.71059 0.0
H2391 H 0.30251 0.50599 0.69529 0.0
H2392 H 0.25059 0.49458 0.72694 0.0
H2393 H 0.26064 0.46615 0.74263 0.0
C2394 C 0.26675 0.36406 0.73511 0.0
C2395 C 0.24699 0.36162 0.73939 0.0
C2396 C 0.27935 0.38231 0.73637 0.0
C2397 C 0.27263 0.39845 0.74239 0.0
C2398 C 0.25286 0.39617 0.74632 0.0
C2399 C 0.24016 0.37801 0.74474 0.0
C2400 C 0.2862 0.41767 0.74471 0.0
C2401 C 0.28104 0.43436 0.73622 0.0
C2402 C 0.30428 0.41958 0.75494 0.0
C2403 C 0.30993 0.40296 0.76566 0.0
C2404 C 0.29765 0.39241 0.77918 0.0
C2405 C 0.30297 0.37669 0.78914 0.0
C2406 C 0.32062 0.37146 0.7858 0.0
C2407 C 0.333 0.38199 0.77252 0.0
C2408 C 0.32774 0.39771 0.76251 0.0
C2409 C 0.33408 0.50554 0.7631 0.0
C2410 C 0.35267 0.50873 0.75552 0.0
C2411 C 0.32056 0.48809 0.76 0.0
C2412 C 0.32551 0.47349 0.74949 0.0
C2413 C 0.34393 0.47671 0.74174 0.0
C2414 C 0.35732 0.49424 0.74457 0.0
C2415 C 0.31183 0.45449 0.74722 0.0
C2416 C 0.31699 0.4379 0.75577 0.0
C2417 C 0.29361 0.45276 0.73739 0.0
C2418 C 0.28754 0.46982 0.72794 0.0
C2419 C 0.29922 0.48116 0.71442 0.0
C2420 C 0.29344 0.49728 0.70565 0.0
C2421 C 0.27594 0.50213 0.71018 0.0
C2422 C 0.26416 0.49083 0.72346 0.0
C2423 C 0.26988 0.4747 0.73229 0.0
H2424 H 0.27149 0.51461 0.70337 0.0
H2425 H 0.32472 0.35928 0.79352 0.0
H2426 H 0.27859 0.72208 0.80757 0.0
H2427 H 0.29809 0.69707 0.80722 0.0
H2428 H 0.31252 0.71373 0.74998 0.0
H2429 H 0.29238 0.7383 0.7501 0.0
H2430 H 0.3039 0.67569 0.75353 0.0
H2431 H 0.34572 0.72658 0.78764 0.0
H2432 H 0.35482 0.75107 0.81215 0.0
H2433 H 0.34392 0.70583 0.85486 0.0
H2434 H 0.3345 0.68108 0.83061 0.0
H2435 H 0.37678 0.61852 0.75365 0.0
H2436 H 0.36158 0.64694 0.75243 0.0
H2437 H 0.33964 0.63134 0.80756 0.0
H2438 H 0.35483 0.60308 0.80895 0.0
H2439 H 0.35421 0.67043 0.80358 0.0
H2440 H 0.31034 0.62005 0.76899 0.0
H2441 H 0.30144 0.59579 0.74425 0.0
H2442 H 0.31703 0.64087 0.70201 0.0
H2443 H 0.32627 0.66537 0.72653 0.0
C2444 C 0.28575 0.72023 0.79486 0.0
C2445 C 0.28359 0.73177 0.77869 0.0
C2446 C 0.29708 0.7061 0.79473 0.0
C2447 C 0.30696 0.70362 0.77862 0.0
C2448 C 0.30499 0.71531 0.76254 0.0
C2449 C 0.29349 0.72932 0.76261 0.0
C2450 C 0.31901 0.68858 0.77847 0.0
C2451 C 0.31514 0.67478 0.7643 0.0
C2452 C 0.3335 0.68715 0.79266 0.0
C2453 C 0.33925 0.70199 0.8073 0.0
C2454 C 0.34514 0.72186 0.80226 0.0
C2455 C 0.35037 0.73579 0.81611 0.0
C2456 C 0.34991 0.73002 0.83505 0.0
C2457 C 0.34426 0.71029 0.84018 0.0
C2458 C 0.33899 0.6963 0.82639 0.0
C2459 C 0.36885 0.62124 0.76557 0.0
C2460 C 0.36693 0.60848 0.78136 0.0
C2461 C 0.36012 0.63744 0.76482 0.0
C2462 C 0.34931 0.64113 0.77983 0.0
C2463 C 0.3479 0.62876 0.79582 0.0
C2464 C 0.35654 0.61256 0.79655 0.0
C2465 C 0.33893 0.65751 0.77879 0.0
C2466 C 0.3431 0.67152 0.79273 0.0
C2467 C 0.32481 0.65921 0.76434 0.0
C2468 C 0.3192 0.6445 0.7496 0.0
C2469 C 0.31202 0.62476 0.75443 0.0
C2470 C 0.30688 0.61097 0.74045 0.0
C2471 C 0.30872 0.61677 0.72157 0.0
C2472 C 0.31565 0.63639 0.71664 0.0
C2473 C 0.32082 0.65023 0.73057 0.0
H2474 H 0.30474 0.60607 0.71076 0.0
H2475 H 0.35396 0.74082 0.84575 0.0
H2476 H 0.93719 0.55156 0.46343 0.0
H2477 H 0.90667 0.52721 0.46458 0.0
H2478 H 0.87409 0.57228 0.4526 0.0
H2479 H 0.90468 0.59677 0.45216 0.0
H2480 H 0.8592 0.55134 0.48036 0.0
H2481 H 0.87688 0.53614 0.42021 0.0
H2482 H 0.89808 0.5285 0.39625 0.0
H2483 H 0.90342 0.476 0.42697 0.0
H2484 H 0.88247 0.48345 0.45126 0.0
H2485 H 0.77001 0.47873 0.47468 0.0
H2486 H 0.79747 0.50444 0.46495 0.0
H2487 H 0.8379 0.4702 0.48756 0.0
H2488 H 0.81067 0.44457 0.49749 0.0
H2489 H 0.84623 0.48679 0.4508 0.0
H2490 H 0.83091 0.50522 0.51239 0.0
H2491 H 0.80895 0.51328 0.53543 0.0
H2492 H 0.798 0.5606 0.49957 0.0
H2493 H 0.81971 0.55265 0.4762 0.0
C2494 C 0.92351 0.55617 0.46067 0.0
C2495 C 0.92321 0.57598 0.4577 0.0
C2496 C 0.90606 0.54226 0.46126 0.0
C2497 C 0.88803 0.54786 0.45846 0.0
C2498 C 0.88779 0.56761 0.45482 0.0
C2499 C 0.90523 0.58156 0.45454 0.0
C2500 C 0.8695 0.53336 0.46091 0.0
C2501 C 0.85621 0.53741 0.47353 0.0
C2502 C 0.86563 0.51504 0.45224 0.0
C2503 C 0.8782 0.51044 0.43763 0.0
C2504 C 0.88268 0.52303 0.42193 0.0
C2505 C 0.89464 0.51872 0.40828 0.0
C2506 C 0.90212 0.50179 0.4101 0.0
C2507 C 0.89762 0.48911 0.42557 0.0
C2508 C 0.88568 0.49336 0.43928 0.0
C2509 C 0.78475 0.47668 0.47756 0.0
C2510 C 0.78818 0.45967 0.48693 0.0
C2511 C 0.80038 0.49136 0.472 0.0
C2512 C 0.81964 0.48915 0.47556 0.0
C2513 C 0.8231 0.47209 0.48465 0.0
C2514 C 0.80753 0.45754 0.49042 0.0
C2515 C 0.83632 0.50481 0.47034 0.0
C2516 C 0.8492 0.5009 0.45728 0.0
C2517 C 0.8397 0.52336 0.47837 0.0
C2518 C 0.82674 0.52819 0.49246 0.0
C2519 C 0.82368 0.51723 0.50935 0.0
C2520 C 0.81131 0.5218 0.52248 0.0
C2521 C 0.80203 0.5374 0.51894 0.0
C2522 C 0.80517 0.5485 0.50228 0.0
C2523 C 0.81751 0.54398 0.48909 0.0
H2524 H 0.79246 0.54092 0.52912 0.0
H2525 H 0.91138 0.49848 0.39952 0.0
H2526 H 0.77417 0.88096 0.79925 0.0
H2527 H 0.74846 0.89987 0.79669 0.0
H2528 H 0.70482 0.84718 0.80462 0.0
H2529 H 0.7306 0.82818 0.8077 0.0
H2530 H 0.70246 0.8807 0.77046 0.0
H2531 H 0.70469 0.86497 0.83768 0.0
H2532 H 0.72246 0.86211 0.86796 0.0
H2533 H 0.74934 0.923 0.8643 0.0
H2534 H 0.73196 0.92612 0.83382 0.0
H2535 H 0.62971 0.93782 0.77773 0.0
H2536 H 0.64763 0.91137 0.78119 0.0
H2537 H 0.69718 0.95125 0.80571 0.0
H2538 H 0.67915 0.97729 0.80302 0.0
H2539 H 0.69256 0.91924 0.82464 0.0
H2540 H 0.69389 0.9361 0.75844 0.0
H2541 H 0.67967 0.94101 0.72681 0.0
H2542 H 0.64963 0.88098 0.72674 0.0
H2543 H 0.6635 0.87577 0.75848 0.0
C2544 C 0.75908 0.87344 0.80036 0.0
C2545 C 0.75428 0.85319 0.8037 0.0
C2546 C 0.74447 0.8842 0.79891 0.0
C2547 C 0.72486 0.87484 0.80047 0.0
C2548 C 0.71993 0.85457 0.80339 0.0
C2549 C 0.7346 0.84381 0.80522 0.0
C2550 C 0.70972 0.88659 0.79957 0.0
C2551 C 0.69987 0.88883 0.78236 0.0
C2552 C 0.70691 0.8975 0.815 0.0
C2553 C 0.71719 0.89572 0.8334 0.0
C2554 C 0.71454 0.87769 0.84325 0.0
C2555 C 0.72451 0.87604 0.86046 0.0
C2556 C 0.73707 0.89235 0.86802 0.0
C2557 C 0.73963 0.91037 0.85841 0.0
C2558 C 0.72972 0.91209 0.84118 0.0
C2559 C 0.64441 0.94087 0.78387 0.0
C2560 C 0.65302 0.9596 0.79011 0.0
C2561 C 0.65467 0.92578 0.78578 0.0
C2562 C 0.67385 0.92933 0.79357 0.0
C2563 C 0.68238 0.94807 0.79977 0.0
C2564 C 0.67206 0.96299 0.79817 0.0
C2565 C 0.6853 0.91376 0.79534 0.0
C2566 C 0.69465 0.91085 0.81275 0.0
C2567 C 0.68789 0.9025 0.77995 0.0
C2568 C 0.67952 0.90562 0.76091 0.0
C2569 C 0.68412 0.92399 0.75173 0.0
C2570 C 0.67616 0.92682 0.73378 0.0
C2571 C 0.6637 0.91133 0.7248 0.0
C2572 C 0.65924 0.89297 0.73373 0.0
C2573 C 0.66716 0.89007 0.75169 0.0
H2574 H 0.65755 0.91355 0.7109 0.0
H2575 H 0.74477 0.89105 0.88135 0.0
H2576 H 0.57792 0.51103 0.9547 0.0
H2577 H 0.60421 0.53977 0.95898 0.0
H2578 H 0.63699 0.51946 0.91715 0.0
H2579 H 0.61078 0.49055 0.91296 0.0
H2580 H 0.65722 0.52589 0.95059 0.0
H2581 H 0.6209 0.56086 0.90894 0.0
H2582 H 0.5919 0.57248 0.89647 0.0
H2583 H 0.58914 0.60116 0.94803 0.0
H2584 H 0.61797 0.58947 0.96093 0.0
H2585 H 0.73714 0.60544 0.96291 0.0
H2586 H 0.70985 0.58222 0.94878 0.0
H2587 H 0.67045 0.60038 0.98559 0.0
H2588 H 0.69762 0.62406 0.99945 0.0
H2589 H 0.65432 0.59584 0.9512 0.0
H2590 H 0.68734 0.55799 0.99417 0.0
H2591 H 0.71548 0.54567 0.0079 0.0
H2592 H 0.72333 0.52162 0.95511 0.0
H2593 H 0.69538 0.53403 0.941 0.0
C2594 C 0.59055 0.51295 0.94611 0.0
C2595 C 0.5924 0.49855 0.93359 0.0
C2596 C 0.6055 0.52941 0.94849 0.0
C2597 C 0.62254 0.53173 0.93838 0.0
C2598 C 0.62392 0.51794 0.92505 0.0
C2599 C 0.6089 0.50152 0.92258 0.0
C2600 C 0.63975 0.54712 0.94348 0.0
C2601 C 0.65675 0.54125 0.95031 0.0
C2602 C 0.63886 0.56705 0.94368 0.0
C2603 C 0.62153 0.57415 0.93596 0.0
C2604 C 0.61402 0.56951 0.91769 0.0
C2605 C 0.59763 0.57614 0.91053 0.0
C2606 C 0.58866 0.58752 0.92146 0.0
C2607 C 0.5961 0.59233 0.93958 0.0
C2608 C 0.61248 0.58573 0.94681 0.0
C2609 C 0.72268 0.60448 0.96804 0.0
C2610 C 0.71958 0.6165 0.98242 0.0
C2611 C 0.70709 0.59119 0.95995 0.0
C2612 C 0.68814 0.58939 0.96628 0.0
C2613 C 0.68495 0.60153 0.98047 0.0
C2614 C 0.70051 0.61498 0.98845 0.0
C2615 C 0.67171 0.57456 0.95844 0.0
C2616 C 0.65487 0.58052 0.95119 0.0
C2617 C 0.67262 0.55463 0.95801 0.0
C2618 C 0.68941 0.54713 0.96648 0.0
C2619 C 0.69517 0.55021 0.98546 0.0
C2620 C 0.71106 0.54318 0.99331 0.0
C2621 C 0.72122 0.53292 0.98237 0.0
C2622 C 0.71547 0.52961 0.96356 0.0
C2623 C 0.6996 0.53662 0.95563 0.0
H2624 H 0.73352 0.52749 0.98848 0.0
H2625 H 0.57597 0.59264 0.91589 0.0
H2626 H 0.27452 0.6886 0.22852 0.0
H2627 H 0.25125 0.65746 0.22988 0.0
H2628 H 0.20354 0.68734 0.22234 0.0
H2629 H 0.2267 0.71864 0.22214 0.0
H2630 H 0.19615 0.66157 0.2492 0.0
H2631 H 0.21724 0.66021 0.18687 0.0
H2632 H 0.24075 0.6626 0.16187 0.0
H2633 H 0.2627 0.61482 0.1875 0.0
H2634 H 0.2395 0.6123 0.2128 0.0
H2635 H 0.12517 0.57378 0.23905 0.0
H2636 H 0.14645 0.60465 0.22968 0.0
H2637 H 0.19707 0.58172 0.247 0.0
H2638 H 0.17596 0.55084 0.2565 0.0
H2639 H 0.20112 0.60416 0.21273 0.0
H2640 H 0.1815 0.6081 0.27636 0.0
H2641 H 0.15744 0.60576 0.30086 0.0
H2642 H 0.13194 0.64924 0.27132 0.0
H2643 H 0.1557 0.65162 0.24648 0.0
C2644 C 0.25908 0.68859 0.22727 0.0
C2645 C 0.2525 0.70618 0.22533 0.0
C2646 C 0.24577 0.67072 0.22776 0.0
C2647 C 0.22562 0.67001 0.22595 0.0
C2648 C 0.21902 0.68751 0.22368 0.0
C2649 C 0.2323 0.7054 0.2234 0.0
C2650 C 0.21143 0.6511 0.22757 0.0
C2651 C 0.19704 0.64916 0.24092 0.0
C2652 C 0.21276 0.63475 0.21705 0.0
C2653 C 0.22672 0.63618 0.20182 0.0
C2654 C 0.22718 0.6503 0.18726 0.0
C2655 C 0.24044 0.65167 0.17302 0.0
C2656 C 0.25324 0.6389 0.17312 0.0
C2657 C 0.25278 0.62471 0.18744 0.0
C2658 C 0.23956 0.62329 0.20173 0.0
C2659 C 0.14083 0.57519 0.24062 0.0
C2660 C 0.14888 0.55992 0.24869 0.0
C2661 C 0.15295 0.59284 0.23529 0.0
C2662 C 0.17328 0.59546 0.23781 0.0
C2663 C 0.18139 0.57994 0.24496 0.0
C2664 C 0.1693 0.56236 0.25046 0.0
C2665 C 0.18606 0.61478 0.23432 0.0
C2666 C 0.20018 0.61673 0.22073 0.0
C2667 C 0.18441 0.63121 0.24449 0.0
C2668 C 0.17022 0.62987 0.25947 0.0
C2669 C 0.17065 0.61704 0.27501 0.0
C2670 C 0.1571 0.61573 0.28897 0.0
C2671 C 0.14313 0.6273 0.28762 0.0
C2672 C 0.14274 0.64025 0.27233 0.0
C2673 C 0.15625 0.6416 0.25831 0.0
H2674 H 0.13265 0.62627 0.29844 0.0
H2675 H 0.2635 0.63998 0.16208 0.0
H2676 H 0.89588 0.506 0.0882 0.0
H2677 H 0.87805 0.53248 0.08464 0.0
H2678 H 0.89455 0.54178 0.02704 0.0
H2679 H 0.91284 0.51587 0.03066 0.0
H2680 H 0.89866 0.57581 0.0443 0.0
H2681 H 0.84918 0.51623 0.0388 0.0
H2682 H 0.83079 0.48415 0.04978 0.0
H2683 H 0.81337 0.5104 0.09772 0.0
H2684 H 0.83188 0.54262 0.08712 0.0
H2685 H 0.82924 0.61829 0.99471 0.0
H2686 H 0.85042 0.59766 0.00839 0.0
H2687 H 0.82685 0.60065 0.06264 0.0
H2688 H 0.80539 0.62143 0.04894 0.0
H2689 H 0.82737 0.56309 0.05339 0.0
H2690 H 0.87279 0.62371 0.05571 0.0
H2691 H 0.8907 0.65567 0.044 0.0
H2692 H 0.91564 0.62766 0.00177 0.0
H2693 H 0.89766 0.59554 0.01304 0.0
C2694 C 0.89582 0.5138 0.07483 0.0
C2695 C 0.90564 0.50871 0.05966 0.0
C2696 C 0.88553 0.52884 0.07279 0.0
C2697 C 0.88483 0.539 0.05553 0.0
C2698 C 0.89486 0.53413 0.04048 0.0
C2699 C 0.90513 0.51915 0.04251 0.0
C2700 C 0.87347 0.55455 0.05282 0.0
C2701 C 0.88306 0.57302 0.04622 0.0
C2702 C 0.85324 0.55111 0.05595 0.0
C2703 C 0.8421 0.53177 0.0623 0.0
C2704 C 0.84156 0.51513 0.05176 0.0
C2705 C 0.83109 0.49693 0.0579 0.0
C2706 C 0.82097 0.49523 0.07447 0.0
C2707 C 0.82125 0.51173 0.08491 0.0
C2708 C 0.83172 0.52996 0.07884 0.0
C2709 C 0.82867 0.61477 0.0096 0.0
C2710 C 0.81562 0.62149 0.02074 0.0
C2711 C 0.84087 0.60303 0.01742 0.0
C2712 C 0.84035 0.59776 0.03657 0.0
C2713 C 0.82753 0.60463 0.04784 0.0
C2714 C 0.81535 0.61654 0.04002 0.0
C2715 C 0.85246 0.58414 0.04429 0.0
C2716 C 0.84304 0.56604 0.05184 0.0
C2717 C 0.87285 0.58789 0.04199 0.0
C2718 C 0.88377 0.6072 0.03517 0.0
C2719 C 0.88198 0.62436 0.04384 0.0
C2720 C 0.89217 0.64251 0.03729 0.0
C2721 C 0.90428 0.6437 0.02213 0.0
C2722 C 0.90626 0.62672 0.01351 0.0
C2723 C 0.89609 0.60853 0.01999 0.0
H2724 H 0.91215 0.65777 0.01708 0.0
H2725 H 0.81287 0.48113 0.0792 0.0
H2726 H 0.09942 0.06343 0.0211 0.0
H2727 H 0.12171 0.04276 0.01292 0.0
H2728 H 0.12314 0.02112 0.07023 0.0
H2729 H 0.10088 0.04195 0.07844 0.0
H2730 H 0.15936 0.02884 0.05549 0.0
H2731 H 0.09542 0.9934 0.03812 0.0
H2732 H 0.06252 0.98847 0.02289 0.0
H2733 H 0.08762 0.00019 0.9689 0.0
H2734 H 0.12069 0.00548 0.98383 0.0
H2735 H 0.20321 0.95005 0.03173 0.0
H2736 H 0.18027 0.9682 0.04357 0.0
H2737 H 0.17392 0.99393 0.98841 0.0
H2738 H 0.19662 0.97583 0.97648 0.0
H2739 H 0.13901 0.98193 0.00435 0.0
H2740 H 0.20293 0.0193 0.02212 0.0
H2741 H 0.23579 0.02439 0.03746 0.0
H2742 H 0.21054 0.00874 0.09095 0.0
H2743 H 0.17751 0.0033 0.07588 0.0
C2744 C 0.10452 0.05425 0.03191 0.0
C2745 C 0.09817 0.05387 0.05028 0.0
C2746 C 0.11719 0.04244 0.02724 0.0
C2747 C 0.12377 0.03013 0.0409 0.0
C2748 C 0.1181 0.03039 0.05946 0.0
C2749 C 0.10538 0.04219 0.06412 0.0
C2750 C 0.13629 0.01677 0.03563 0.0
C2751 C 0.1548 0.01835 0.04452 0.0
C2752 C 0.13041 0.00326 0.02117 0.0
C2753 C 0.11054 -0.0 0.01211 0.0
C2754 C 0.09393 0.99508 0.02301 0.0
C2755 C 0.07525 0.99219 0.01443 0.0
C2756 C 0.07298 0.99406 0.99494 0.0
C2757 C 0.0894 0.99877 0.98399 0.0
C2758 C 0.10811 0.00169 0.9925 0.0
C2759 C 0.19683 0.95949 0.02211 0.0
C2760 C 0.20178 0.96155 0.00318 0.0
C2761 C 0.1838 0.96991 0.02892 0.0
C2762 C 0.17554 0.98255 0.0169 0.0
C2763 C 0.18013 0.98427 0.99793 0.0
C2764 C 0.19316 0.97394 0.99115 0.0
C2765 C 0.16223 0.99423 0.02397 0.0
C2766 C 0.14352 0.9923 0.01543 0.0
C2767 C 0.16793 0.00738 0.03877 0.0
C2768 C 0.18777 0.01067 0.04785 0.0
C2769 C 0.20439 0.01678 0.03713 0.0
C2770 C 0.22304 0.01976 0.04578 0.0
C2771 C 0.22526 0.01683 0.06516 0.0
C2772 C 0.20881 0.01097 0.07594 0.0
C2773 C 0.19012 0.00794 0.06735 0.0
H2774 H 0.23971 0.01915 0.07183 0.0
H2775 H 0.05851 0.99182 0.98833 0.0
loop_
_geom_bond_atom_site_label_1
_geom_bond_atom_site_label_2
_geom_bond_distance
_geom_bond_site_symmetry_2
_ccdc_geom_bond_type
H0 C7 0.929 . S
H1 C10 0.930 . S
H2 C12 0.929 . S
H3 C4 0.969 . S
C4 H3 0.969 . S
C4 O5 1.550 . S
C4 H6 0.973 . S
O5 C4 1.550 . S
O5 C11 1.412 . S
H6 C4 0.973 . S
C7 H0 0.929 . S
C7 C8 1.400 . S
C7 C9 1.364 . S
C8 C7 1.400 . S
C8 C12 1.377 . S
C9 C7 1.364 . S
C9 C10 1.374 . S
C10 H1 0.930 . S
C10 C9 1.374 . S
C10 C11 1.383 . S
C11 O5 1.412 . S
C11 C10 1.383 . S
C11 C12 1.394 . S
C12 H2 0.929 . S
C12 C8 1.377 . S
C12 C11 1.394 . S
H13 C20 0.929 . S
H14 C23 0.930 . S
H15 C25 0.929 . S
H16 C17 0.969 . S
C17 H16 0.969 . S
C17 O18 1.550 . S
C17 H19 0.973 . S
O18 C17 1.550 . S
O18 C24 1.412 . S
H19 C17 0.973 . S
C20 H13 0.929 . S
C20 C21 1.400 . S
C20 C22 1.364 . S
C21 C20 1.400 . S
C21 C25 1.377 . S
C22 C20 1.364 . S
C22 C23 1.374 . S
C23 H14 0.930 . S
C23 C22 1.374 . S
C23 C24 1.383 . S
C24 O18 1.412 . S
C24 C23 1.383 . S
C24 C25 1.394 . S
C25 H15 0.929 . S
C25 C21 1.377 . S
C25 C24 1.394 . S
H26 C33 0.929 . S
H27 C36 0.930 . S
H28 C38 0.929 . S
H29 C30 0.969 . S
C30 H29 0.969 . S
C30 O31 1.550 . S
C30 H32 0.973 . S
O31 C30 1.550 . S
O31 C37 1.412 . S
H32 C30 0.973 . S
C33 H26 0.929 . S
C33 C34 1.400 . S
C33 C35 1.364 . S
C34 C33 1.400 . S
C34 C38 1.377 . S
C35 C33 1.364 . S
C35 C36 1.374 . S
C36 H27 0.930 . S
C36 C35 1.374 . S
C36 C37 1.383 . S
C37 O31 1.412 . S
C37 C36 1.383 . S
C37 C38 1.394 . S
C38 H28 0.929 . S
C38 C34 1.377 . S
C38 C37 1.394 . S
H39 C46 0.929 . S
H40 C49 0.930 . S
H41 C51 0.929 . S
H42 C43 0.969 . S
C43 H42 0.969 . S
C43 O44 1.550 . S
C43 H45 0.973 . S
O44 C43 1.550 . S
O44 C50 1.412 . S
H45 C43 0.973 . S
C46 H39 0.929 . S
C46 C47 1.400 . S
C46 C48 1.364 . S
C47 C46 1.400 . S
C47 C51 1.377 . S
C48 C46 1.364 . S
C48 C49 1.374 . S
C49 H40 0.930 . S
C49 C48 1.374 . S
C49 C50 1.383 . S
C50 O44 1.412 . S
C50 C49 1.383 . S
C50 C51 1.394 . S
C51 H41 0.929 . S
C51 C47 1.377 . S
C51 C50 1.394 . S
H52 C59 0.929 . S
H53 C62 0.930 . S
H54 C64 0.929 . S
H55 C56 0.969 . S
C56 H55 0.969 . S
C56 O57 1.550 . S
C56 H58 0.973 . S
O57 C56 1.550 . S
O57 C63 1.412 . S
H58 C56 0.973 . S
C59 H52 0.929 . S
C59 C60 1.400 . S
C59 C61 1.364 . S
C60 C59 1.400 . S
C60 C64 1.377 . S
C61 C59 1.364 . S
C61 C62 1.374 . S
C62 H53 0.930 . S
C62 C61 1.374 . S
C62 C63 1.383 . S
C63 O57 1.412 . S
C63 C62 1.383 . S
C63 C64 1.394 . S
C64 H54 0.929 . S
C64 C60 1.377 . S
C64 C63 1.394 . S
H65 C72 0.929 . S
H66 C75 0.930 . S
H67 C77 0.929 . S
H68 C69 0.969 . S
C69 H68 0.969 . S
C69 O70 1.550 . S
C69 H71 0.973 . S
O70 C69 1.550 . S
O70 C76 1.412 . S
H71 C69 0.973 . S
C72 H65 0.929 . S
C72 C73 1.400 . S
C72 C74 1.364 . S
C73 C72 1.400 . S
C73 C77 1.377 . S
C74 C72 1.364 . S
C74 C75 1.374 . S
C75 H66 0.930 . S
C75 C74 1.374 . S
C75 C76 1.383 . S
C76 O70 1.412 . S
C76 C75 1.383 . S
C76 C77 1.394 . S
C77 H67 0.929 . S
C77 C73 1.377 . S
C77 C76 1.394 . S
H78 C85 0.929 . S
H79 C88 0.930 . S
H80 C90 0.929 . S
H81 C82 0.969 . S
C82 H81 0.969 . S
C82 O83 1.550 . S
C82 H84 0.973 . S
O83 C82 1.550 . S
O83 C89 1.412 . S
H84 C82 0.973 . S
C85 H78 0.929 . S
C85 C86 1.400 . S
C85 C87 1.364 . S
C86 C85 1.400 . S
C86 C90 1.377 . S
C87 C85 1.364 . S
C87 C88 1.374 . S
C88 H79 0.930 . S
C88 C87 1.374 . S
C88 C89 1.383 . S
C89 O83 1.412 . S
C89 C88 1.383 . S
C89 C90 1.394 . S
C90 H80 0.929 . S
C90 C86 1.377 . S
C90 C89 1.394 . S
H91 C98 0.929 . S
H92 C101 0.930 . S
H93 C103 0.929 . S
H94 C95 0.969 . S
C95 H94 0.969 . S
C95 O96 1.550 . S
C95 H97 0.973 . S
O96 C95 1.550 . S
O96 C102 1.412 . S
H97 C95 0.973 . S
C98 H91 0.929 . S
C98 C99 1.400 . S
C98 C100 1.364 . S
C99 C98 1.400 . S
C99 C103 1.377 . S
C100 C98 1.364 . S
C100 C101 1.374 . S
C101 H92 0.930 . S
C101 C100 1.374 . S
C101 C102 1.383 . S
C102 O96 1.412 . S
C102 C101 1.383 . S
C102 C103 1.394 . S
C103 H93 0.929 . S
C103 C99 1.377 . S
C103 C102 1.394 . S
H104 C111 0.929 . S
H105 C114 0.930 . S
H106 C116 0.929 . S
H107 C108 0.969 . S
C108 H107 0.969 . S
C108 O109 1.550 . S
C108 H110 0.973 . S
O109 C108 1.550 . S
O109 C115 1.412 . S
H110 C108 0.973 . S
C111 H104 0.929 . S
C111 C112 1.400 . S
C111 C113 1.364 . S
C112 C111 1.400 . S
C112 C116 1.377 . S
C113 C111 1.364 . S
C113 C114 1.374 . S
C114 H105 0.930 . S
C114 C113 1.374 . S
C114 C115 1.383 . S
C115 O109 1.412 . S
C115 C114 1.383 . S
C115 C116 1.394 . S
C116 H106 0.929 . S
C116 C112 1.377 . S
C116 C115 1.394 . S
H117 C124 0.929 . S
H118 C127 0.930 . S
H119 C129 0.929 . S
H120 C121 0.969 . S
C121 H120 0.969 . S
C121 O122 1.550 . S
C121 H123 0.973 . S
O122 C121 1.550 . S
O122 C128 1.412 . S
H123 C121 0.973 . S
C124 H117 0.929 . S
C124 C125 1.400 . S
C124 C126 1.364 . S
C125 C124 1.400 . S
C125 C129 1.377 . S
C126 C124 1.364 . S
C126 C127 1.374 . S
C127 H118 0.930 . S
C127 C126 1.374 . S
C127 C128 1.383 . S
C128 O122 1.412 . S
C128 C127 1.383 . S
C128 C129 1.394 . S
C129 H119 0.929 . S
C129 C125 1.377 . S
C129 C128 1.394 . S
H130 C137 0.929 . S
H131 C140 0.930 . S
H132 C142 0.929 . S
H133 C134 0.969 . S
C134 H133 0.969 . S
C134 O135 1.550 . S
C134 H136 0.973 . S
O135 C134 1.550 . S
O135 C141 1.412 . S
H136 C134 0.973 . S
C137 H130 0.929 . S
C137 C138 1.400 . S
C137 C139 1.364 . S
C138 C137 1.400 . S
C138 C142 1.377 . S
C139 C137 1.364 . S
C139 C140 1.374 . S
C140 H131 0.930 . S
C140 C139 1.374 . S
C140 C141 1.383 . S
C141 O135 1.412 . S
C141 C140 1.383 . S
C141 C142 1.394 . S
C142 H132 0.929 . S
C142 C138 1.377 . S
C142 C141 1.394 . S
H143 C150 0.929 . S
H144 C153 0.930 . S
H145 C155 0.929 . S
H146 C147 0.969 . S
C147 H146 0.969 . S
C147 O148 1.550 . S
C147 H149 0.973 . S
O148 C147 1.550 . S
O148 C154 1.412 . S
H149 C147 0.973 . S
C150 H143 0.929 . S
C150 C151 1.400 . S
C150 C152 1.364 . S
C151 C150 1.400 . S
C151 C155 1.377 . S
C152 C150 1.364 . S
C152 C153 1.374 . S
C153 H144 0.930 . S
C153 C152 1.374 . S
C153 C154 1.383 . S
C154 O148 1.412 . S
C154 C153 1.383 . S
C154 C155 1.394 . S
C155 H145 0.929 . S
C155 C151 1.377 . S
C155 C154 1.394 . S
H156 C163 0.929 . S
H157 C166 0.930 . S
H158 C168 0.929 . S
H159 C160 0.969 . S
C160 H159 0.969 . S
C160 O161 1.550 . S
C160 H162 0.973 . S
O161 C160 1.550 . S
O161 C167 1.412 . S
H162 C160 0.973 . S
C163 H156 0.929 . S
C163 C164 1.400 . S
C163 C165 1.364 . S
C164 C163 1.400 . S
C164 C168 1.377 . S
C165 C163 1.364 . S
C165 C166 1.374 . S
C166 H157 0.930 . S
C166 C165 1.374 . S
C166 C167 1.383 . S
C167 O161 1.412 . S
C167 C166 1.383 . S
C167 C168 1.394 . S
C168 H158 0.929 . S
C168 C164 1.377 . S
C168 C167 1.394 . S
H169 C176 0.929 . S
H170 C179 0.930 . S
H171 C181 0.929 . S
H172 C173 0.969 . S
C173 H172 0.969 . S
C173 O174 1.550 . S
C173 H175 0.973 . S
O174 C173 1.550 . S
O174 C180 1.412 . S
H175 C173 0.973 . S
C176 H169 0.929 . S
C176 C177 1.400 . S
C176 C178 1.364 . S
C177 C176 1.400 . S
C177 C181 1.377 . S
C178 C176 1.364 . S
C178 C179 1.374 . S
C179 H170 0.930 . S
C179 C178 1.374 . S
C179 C180 1.383 . S
C180 O174 1.412 . S
C180 C179 1.383 . S
C180 C181 1.394 . S
C181 H171 0.929 . S
C181 C177 1.377 . S
C181 C180 1.394 . S
H182 C189 0.929 . S
H183 C192 0.930 . S
H184 C194 0.929 . S
H185 C186 0.969 . S
C186 H185 0.969 . S
C186 O187 1.550 . S
C186 H188 0.973 . S
O187 C186 1.550 . S
O187 C193 1.412 . S
H188 C186 0.973 . S
C189 H182 0.929 . S
C189 C190 1.400 . S
C189 C191 1.364 . S
C190 C189 1.400 . S
C190 C194 1.377 . S
C191 C189 1.364 . S
C191 C192 1.374 . S
C192 H183 0.930 . S
C192 C191 1.374 . S
C192 C193 1.383 . S
C193 O187 1.412 . S
C193 C192 1.383 . S
C193 C194 1.394 . S
C194 H184 0.929 . S
C194 C190 1.377 . S
C194 C193 1.394 . S
H195 C202 0.929 . S
H196 C205 0.930 . S
H197 C207 0.929 . S
H198 C199 0.969 . S
C199 H198 0.969 . S
C199 O200 1.550 . S
C199 H201 0.973 . S
O200 C199 1.550 . S
O200 C206 1.412 . S
H201 C199 0.973 . S
C202 H195 0.929 . S
C202 C203 1.400 . S
C202 C204 1.364 . S
C203 C202 1.400 . S
C203 C207 1.377 . S
C204 C202 1.364 . S
C204 C205 1.374 . S
C205 H196 0.930 . S
C205 C204 1.374 . S
C205 C206 1.383 . S
C206 O200 1.412 . S
C206 C205 1.383 . S
C206 C207 1.394 . S
C207 H197 0.929 . S
C207 C203 1.377 . S
C207 C206 1.394 . S
O208 Cd209 2.223 . S
O208 C216 1.315 1_554 S
Cd209 O208 2.223 . S
Cd209 O212 2.297 . S
Cd209 O213 2.439 . S
Cd209 O219 2.240 . S
Cd210 O211 2.240 . S
Cd210 O218 2.223 1_554 S
Cd210 O220 2.297 . S
Cd210 O221 2.439 . S
O211 Cd210 2.240 . S
O211 C216 1.279 1_554 S
O212 Cd209 2.297 . S
O212 C214 1.247 . S
O213 Cd209 2.439 . S
O213 C214 1.208 . S
C214 O212 1.247 . S
C214 O213 1.208 . S
C215 O220 1.247 . S
C215 O221 1.208 . S
C216 O208 1.315 1_556 S
C216 O211 1.279 1_556 S
C217 O218 1.315 1_554 S
C217 O219 1.279 . S
O218 Cd210 2.223 1_556 S
O218 C217 1.315 1_556 S
O219 Cd209 2.240 . S
O219 C217 1.279 . S
O220 Cd210 2.297 . S
O220 C215 1.247 . S
O221 Cd210 2.439 . S
O221 C215 1.208 . S
O222 Cd223 2.223 . S
O222 C230 1.315 . S
Cd223 O222 2.223 . S
Cd223 O226 2.297 . S
Cd223 O227 2.439 . S
Cd223 O233 2.240 . S
Cd224 O225 2.240 . S
Cd224 O232 2.223 . S
Cd224 O234 2.297 . S
Cd224 O235 2.439 . S
O225 Cd224 2.240 . S
O225 C230 1.279 . S
O226 Cd223 2.297 . S
O226 C228 1.247 . S
O227 Cd223 2.439 . S
O227 C228 1.208 . S
C228 O226 1.247 . S
C228 O227 1.208 . S
C229 O234 1.247 . S
C229 O235 1.208 . S
C230 O222 1.315 . S
C230 O225 1.279 . S
C231 O232 1.315 . S
C231 O233 1.279 . S
O232 Cd224 2.223 . S
O232 C231 1.315 . S
O233 Cd223 2.240 . S
O233 C231 1.279 . S
O234 Cd224 2.297 . S
O234 C229 1.247 . S
O235 Cd224 2.439 . S
O235 C229 1.208 . S
O236 Cd237 2.223 1_556 S
O236 C244 1.315 . S
Cd237 O236 2.223 1_554 S
Cd237 O240 2.297 . S
Cd237 O241 2.439 . S
Cd237 O247 2.240 . S
Cd238 O239 2.240 . S
Cd238 O246 2.223 1_554 S
Cd238 O248 2.297 . S
Cd238 O249 2.439 . S
O239 Cd238 2.240 . S
O239 C244 1.279 1_554 S
O240 Cd237 2.297 . S
O240 C242 1.247 . S
O241 Cd237 2.439 . S
O241 C242 1.208 . S
C242 O240 1.247 . S
C242 O241 1.208 . S
C243 O248 1.247 . S
C243 O249 1.208 . S
C244 O236 1.315 . S
C244 O239 1.279 1_556 S
C245 O246 1.317 . S
C245 O247 1.275 1_556 S
O246 Cd238 2.223 1_556 S
O246 C245 1.317 . S
O247 Cd237 2.240 . S
O247 C245 1.275 1_554 S
O248 Cd238 2.297 . S
O248 C243 1.247 . S
O249 Cd238 2.439 . S
O249 C243 1.208 . S
O250 Cd251 2.223 . S
O250 C258 1.315 . S
Cd251 O250 2.223 . S
Cd251 O254 2.297 . S
Cd251 O255 2.439 . S
Cd251 O261 2.240 . S
Cd252 O253 2.240 . S
Cd252 O260 2.223 . S
Cd252 O262 2.297 . S
Cd252 O263 2.439 . S
O253 Cd252 2.240 . S
O253 C258 1.279 . S
O254 Cd251 2.297 . S
O254 C256 1.247 . S
O255 Cd251 2.439 . S
O255 C256 1.208 . S
C256 O254 1.247 . S
C256 O255 1.208 . S
C257 O262 1.247 . S
C257 O263 1.208 . S
C258 O250 1.315 . S
C258 O253 1.279 . S
C259 O260 1.315 . S
C259 O261 1.279 . S
O260 Cd252 2.223 . S
O260 C259 1.315 . S
O261 Cd251 2.240 . S
O261 C259 1.279 . S
O262 Cd252 2.297 . S
O262 C257 1.247 . S
O263 Cd252 2.439 . S
O263 C257 1.208 . S
O264 Cd265 2.223 . S
O264 C272 1.315 . S
Cd265 O264 2.223 . S
Cd265 O268 2.297 . S
Cd265 O269 2.439 . S
Cd265 O275 2.240 . S
Cd266 O267 2.240 . S
Cd266 O274 2.223 . S
Cd266 O276 2.297 . S
Cd266 O277 2.439 . S
O267 Cd266 2.240 . S
O267 C272 1.279 . S
O268 Cd265 2.297 . S
O268 C270 1.247 . S
O269 Cd265 2.439 . S
O269 C270 1.208 . S
C270 O268 1.247 . S
C270 O269 1.208 . S
C271 O276 1.247 . S
C271 O277 1.208 . S
C272 O264 1.315 . S
C272 O267 1.279 . S
C273 O274 1.315 . S
C273 O275 1.279 . S
O274 Cd266 2.223 . S
O274 C273 1.315 . S
O275 Cd265 2.240 . S
O275 C273 1.279 . S
O276 Cd266 2.297 . S
O276 C271 1.247 . S
O277 Cd266 2.439 . S
O277 C271 1.208 . S
O278 Cd279 2.223 . S
O278 C286 1.315 . S
Cd279 O278 2.223 . S
Cd279 O282 2.297 . S
Cd279 O283 2.439 . S
Cd279 O289 2.240 . S
Cd280 O281 2.240 . S
Cd280 O288 2.223 . S
Cd280 O290 2.297 . S
Cd280 O291 2.439 . S
O281 Cd280 2.240 . S
O281 C286 1.279 . S
O282 Cd279 2.297 . S
O282 C284 1.247 . S
O283 Cd279 2.439 . S
O283 C284 1.208 . S
C284 O282 1.247 . S
C284 O283 1.208 . S
C285 O290 1.247 . S
C285 O291 1.208 . S
C286 O278 1.315 . S
C286 O281 1.279 . S
C287 O288 1.315 . S
C287 O289 1.279 . S
O288 Cd280 2.223 . S
O288 C287 1.315 . S
O289 Cd279 2.240 . S
O289 C287 1.279 . S
O290 Cd280 2.297 . S
O290 C285 1.247 . S
O291 Cd280 2.439 . S
O291 C285 1.208 . S
O292 Cd293 2.223 . S
O292 C300 1.315 . S
Cd293 O292 2.223 . S
Cd293 O296 2.297 . S
Cd293 O297 2.439 . S
Cd293 O303 2.240 . S
Cd294 O295 2.240 . S
Cd294 O302 2.223 . S
Cd294 O304 2.297 . S
Cd294 O305 2.439 . S
O295 Cd294 2.240 . S
O295 C300 1.279 . S
O296 Cd293 2.297 . S
O296 C298 1.247 . S
O297 Cd293 2.439 . S
O297 C298 1.208 . S
C298 O296 1.247 . S
C298 O297 1.208 . S
C299 O304 1.247 . S
C299 O305 1.208 . S
C300 O292 1.315 . S
C300 O295 1.279 . S
C301 O302 1.315 . S
C301 O303 1.279 . S
O302 Cd294 2.223 . S
O302 C301 1.315 . S
O303 Cd293 2.240 . S
O303 C301 1.279 . S
O304 Cd294 2.297 . S
O304 C299 1.247 . S
O305 Cd294 2.439 . S
O305 C299 1.208 . S
O306 Cd307 2.223 1_545 S
O306 C314 1.315 . S
Cd307 O306 2.223 1_565 S
Cd307 O310 2.297 . S
Cd307 O311 2.439 . S
Cd307 O317 2.240 1_565 S
Cd308 O309 2.240 . S
Cd308 O316 2.223 . S
Cd308 O318 2.297 . S
Cd308 O319 2.439 1_545 S
O309 Cd308 2.240 . S
O309 C314 1.279 . S
O310 Cd307 2.297 . S
O310 C312 1.247 . S
O311 Cd307 2.439 . S
O311 C312 1.208 . S
C312 O310 1.247 . S
C312 O311 1.208 . S
C313 O318 1.247 1_565 S
C313 O319 1.208 . S
C314 O306 1.315 . S
C314 O309 1.279 . S
C315 O316 1.315 . S
C315 O317 1.279 . S
O316 Cd308 2.223 . S
O316 C315 1.315 . S
O317 Cd307 2.240 1_545 S
O317 C315 1.279 . S
O318 Cd308 2.297 . S
O318 C313 1.247 1_545 S
O319 Cd308 2.439 1_565 S
O319 C313 1.208 . S
O320 Cd321 2.223 . S
O320 C328 1.315 . S
Cd321 O320 2.223 . S
Cd321 O324 2.318 . S
Cd321 O325 2.439 1_655 S
Cd321 O331 2.240 . S
Cd322 O323 2.240 . S
Cd322 O330 2.223 1_455 S
Cd322 O332 2.297 . S
Cd322 O333 2.439 . S
O323 Cd322 2.240 . S
O323 C328 1.279 1_455 S
O324 Cd321 2.318 . S
O324 C326 1.198 1_655 S
O325 Cd321 2.439 1_455 S
O325 C326 1.208 . S
C326 O324 1.198 1_455 S
C326 O325 1.208 . S
C327 O332 1.247 . S
C327 O333 1.208 . S
C328 O320 1.315 . S
C328 O323 1.279 1_655 S
C329 O330 1.315 . S
C329 O331 1.279 . S
O330 Cd322 2.223 1_655 S
O330 C329 1.315 . S
O331 Cd321 2.240 . S
O331 C329 1.279 . S
O332 Cd322 2.297 . S
O332 C327 1.247 . S
O333 Cd322 2.439 . S
O333 C327 1.208 . S
O334 Cd335 2.223 . S
O334 C342 1.315 . S
Cd335 O334 2.223 . S
Cd335 O338 2.297 . S
Cd335 O339 2.439 . S
Cd335 O345 2.240 . S
Cd336 O337 2.240 . S
Cd336 O344 2.223 . S
Cd336 O346 2.297 . S
Cd336 O347 2.439 . S
O337 Cd336 2.240 . S
O337 C342 1.279 . S
O338 Cd335 2.297 . S
O338 C340 1.247 . S
O339 Cd335 2.439 . S
O339 C340 1.208 . S
C340 O338 1.247 . S
C340 O339 1.208 . S
C341 O346 1.247 . S
C341 O347 1.208 . S
C342 O334 1.315 . S
C342 O337 1.279 . S
C343 O344 1.315 . S
C343 O345 1.279 . S
O344 Cd336 2.223 . S
O344 C343 1.315 . S
O345 Cd335 2.240 . S
O345 C343 1.279 . S
O346 Cd336 2.297 . S
O346 C341 1.247 . S
O347 Cd336 2.439 . S
O347 C341 1.208 . S
O348 Cd349 2.223 1_655 S
O348 C356 1.315 . S
Cd349 O348 2.223 1_455 S
Cd349 O352 2.297 . S
Cd349 O353 2.439 . S
Cd349 O359 2.240 . S
Cd350 O351 2.240 . S
Cd350 O358 2.223 1_455 S
Cd350 O360 2.297 . S
Cd350 O361 2.439 . S
O351 Cd350 2.240 . S
O351 C356 1.279 1_455 S
O352 Cd349 2.297 . S
O352 C354 1.247 . S
O353 Cd349 2.439 . S
O353 C354 1.208 . S
C354 O352 1.247 . S
C354 O353 1.208 . S
C355 O360 1.247 . S
C355 O361 1.208 . S
C356 O348 1.315 . S
C356 O351 1.279 1_655 S
C357 O358 1.352 . S
C357 O359 1.234 1_655 S
O358 Cd350 2.223 1_655 S
O358 C357 1.352 . S
O359 Cd349 2.240 . S
O359 C357 1.234 1_455 S
O360 Cd350 2.297 . S
O360 C355 1.247 . S
O361 Cd350 2.439 . S
O361 C355 1.208 . S
O362 Cd363 2.223 . S
O362 C370 1.315 . S
Cd363 O362 2.223 . S
Cd363 O366 2.297 . S
Cd363 O367 2.439 . S
Cd363 O373 2.240 . S
Cd364 O365 2.240 . S
Cd364 O372 2.223 . S
Cd364 O374 2.297 . S
Cd364 O375 2.439 . S
O365 Cd364 2.240 . S
O365 C370 1.279 . S
O366 Cd363 2.297 . S
O366 C368 1.247 . S
O367 Cd363 2.439 . S
O367 C368 1.208 . S
C368 O366 1.247 . S
C368 O367 1.208 . S
C369 O374 1.247 . S
C369 O375 1.208 . S
C370 O362 1.315 . S
C370 O365 1.279 . S
C371 O372 1.315 . S
C371 O373 1.279 . S
O372 Cd364 2.223 . S
O372 C371 1.315 . S
O373 Cd363 2.240 . S
O373 C371 1.279 . S
O374 Cd364 2.297 . S
O374 C369 1.247 . S
O375 Cd364 2.439 . S
O375 C369 1.208 . S
H376 C394 0.951 . S
H377 C396 0.951 . S
H378 C398 0.950 . S
H379 C399 0.950 . S
H380 C401 0.950 . S
H381 C404 0.950 . S
H382 C405 0.950 . S
H383 C407 0.950 . S
H384 C408 0.950 . S
H385 C409 0.951 . S
H386 C411 0.951 . S
H387 C413 0.950 . S
H388 C414 0.950 . S
H389 C416 0.950 . S
H390 C419 0.950 . S
H391 C420 0.950 . S
H392 C422 0.950 . S
H393 C423 0.950 . S
C394 H376 0.951 . S
C394 C395 1.366 . S
C394 C396 1.388 . S
C395 C394 1.366 . S
C395 C399 1.385 . S
C396 H377 0.951 . S
C396 C394 1.388 . S
C396 C397 1.366 . S
C397 C396 1.366 . S
C397 C398 1.414 . S
C397 C400 1.499 . S
C398 H378 0.950 . S
C398 C397 1.414 . S
C398 C399 1.374 . S
C399 H379 0.950 . S
C399 C395 1.385 . S
C399 C398 1.374 . S
C400 C397 1.499 . S
C400 C401 1.373 . S
C400 C402 1.389 . S
C401 H380 0.950 . S
C401 C400 1.373 . S
C401 C417 1.377 . S
C402 C400 1.389 . S
C402 C403 1.524 . S
C402 C416 1.377 . S
C403 C402 1.524 . S
C403 C404 1.397 . S
C403 C408 1.363 . S
C404 H381 0.950 . S
C404 C403 1.397 . S
C404 C405 1.334 . S
C405 H382 0.950 . S
C405 C404 1.334 . S
C405 C406 1.287 . S
C406 C405 1.287 . S
C406 C407 1.524 . S
C406 H425 0.913 . S
C407 H383 0.950 . S
C407 C406 1.524 . S
C407 C408 1.415 . S
C408 H384 0.950 . S
C408 C403 1.363 . S
C408 C407 1.415 . S
C409 H385 0.951 . S
C409 C410 1.366 . S
C409 C411 1.388 . S
C410 C409 1.366 . S
C410 C414 1.385 . S
C411 H386 0.951 . S
C411 C409 1.388 . S
C411 C412 1.366 . S
C412 C411 1.366 . S
C412 C413 1.414 . S
C412 C415 1.499 . S
C413 H387 0.950 . S
C413 C412 1.414 . S
C413 C414 1.374 . S
C414 H388 0.950 . S
C414 C410 1.385 . S
C414 C413 1.374 . S
C415 C412 1.499 . S
C415 C416 1.373 . S
C415 C417 1.389 . S
C416 H389 0.950 . S
C416 C402 1.377 . S
C416 C415 1.373 . S
C417 C401 1.377 . S
C417 C415 1.389 . S
C417 C418 1.524 . S
C418 C417 1.524 . S
C418 C419 1.397 . S
C418 C423 1.363 . S
C419 H390 0.950 . S
C419 C418 1.397 . S
C419 C420 1.334 . S
C420 H391 0.950 . S
C420 C419 1.334 . S
C420 C421 1.287 . S
C421 C420 1.287 . S
C421 C422 1.524 . S
C421 H424 0.999 . S
C422 H392 0.950 . S
C422 C421 1.524 . S
C422 C423 1.415 . S
C423 H393 0.950 . S
C423 C418 1.363 . S
C423 C422 1.415 . S
H424 C421 0.999 . S
H425 C406 0.913 . S
H426 C444 0.951 . S
H427 C446 0.951 . S
H428 C448 0.950 . S
H429 C449 0.950 . S
H430 C451 0.950 1_655 S
H431 C454 0.950 . S
H432 C455 0.950 . S
H433 C457 0.950 . S
H434 C458 0.950 . S
H435 C459 0.951 . S
H436 C461 0.951 . S
H437 C463 0.950 . S
H438 C464 0.950 . S
H439 C466 0.950 . S
H440 C469 0.950 . S
H441 C470 0.950 . S
H442 C472 0.950 . S
H443 C473 0.950 . S
C444 H426 0.951 . S
C444 C445 1.366 . S
C444 C446 1.388 1_655 S
C445 C444 1.366 . S
C445 C449 1.385 . S
C446 H427 0.951 . S
C446 C444 1.388 1_455 S
C446 C447 1.371 . S
C447 C446 1.371 . S
C447 C448 1.376 1_455 S
C447 C450 1.530 . S
C448 H428 0.950 . S
C448 C447 1.376 1_655 S
C448 C449 1.374 . S
C449 H429 0.950 . S
C449 C445 1.385 . S
C449 C448 1.374 . S
C450 C447 1.530 . S
C450 C451 1.373 . S
C450 C452 1.389 . S
C451 H430 0.950 1_455 S
C451 C450 1.373 . S
C451 C467 1.377 . S
C452 C450 1.389 . S
C452 C453 1.524 . S
C452 C466 1.377 . S
C453 C452 1.524 . S
C453 C454 1.397 . S
C453 C458 1.363 . S
C454 H431 0.950 . S
C454 C453 1.397 . S
C454 C455 1.334 . S
C455 H432 0.950 . S
C455 C454 1.334 . S
C455 C456 1.287 . S
C456 C455 1.287 . S
C456 C457 1.524 . S
C456 H475 0.913 . S
C457 H433 0.950 . S
C457 C456 1.524 . S
C457 C458 1.415 . S
C458 H434 0.950 . S
C458 C453 1.363 . S
C458 C457 1.415 . S
C459 H435 0.951 . S
C459 C460 1.366 . S
C459 C461 1.388 . S
C460 C459 1.366 . S
C460 C464 1.385 . S
C461 H436 0.951 . S
C461 C459 1.388 . S
C461 C462 1.366 . S
C462 C461 1.366 . S
C462 C463 1.414 . S
C462 C465 1.499 . S
C463 H437 0.950 . S
C463 C462 1.414 . S
C463 C464 1.374 . S
C464 H438 0.950 . S
C464 C460 1.385 . S
C464 C463 1.374 . S
C465 C462 1.499 . S
C465 C466 1.373 . S
C465 C467 1.389 . S
C466 H439 0.950 . S
C466 C452 1.377 . S
C466 C465 1.373 . S
C467 C451 1.377 . S
C467 C465 1.389 . S
C467 C468 1.524 . S
C468 C467 1.524 . S
C468 C469 1.397 . S
C468 C473 1.363 1_455 S
C469 H440 0.950 . S
C469 C468 1.397 . S
C469 C470 1.334 . S
C470 H441 0.950 . S
C470 C469 1.334 . S
C470 C471 1.287 . S
C471 C470 1.287 . S
C471 C472 1.524 1_455 S
C471 H474 0.999 1_455 S
C472 H442 0.950 . S
C472 C471 1.524 1_655 S
C472 C473 1.415 . S
C473 H443 0.950 . S
C473 C468 1.363 1_655 S
C473 C472 1.415 . S
H474 C471 0.999 1_655 S
H475 C456 0.913 . S
H476 C494 0.951 . S
H477 C496 0.951 . S
H478 C498 0.950 . S
H479 C499 0.950 . S
H480 C501 0.950 . S
H481 C504 0.950 . S
H482 C505 0.950 . S
H483 C507 0.950 . S
H484 C508 0.950 . S
H485 C509 0.951 . S
H486 C511 0.951 . S
H487 C513 0.950 . S
H488 C514 0.950 . S
H489 C516 0.950 . S
H490 C519 0.950 . S
H491 C520 0.950 . S
H492 C522 0.950 . S
H493 C523 0.950 . S
C494 H476 0.951 . S
C494 C495 1.366 . S
C494 C496 1.388 . S
C495 C494 1.366 . S
C495 C499 1.385 . S
C496 H477 0.951 . S
C496 C494 1.388 . S
C496 C497 1.366 . S
C497 C496 1.366 . S
C497 C498 1.414 . S
C497 C500 1.499 . S
C498 H478 0.950 . S
C498 C497 1.414 . S
C498 C499 1.374 . S
C499 H479 0.950 . S
C499 C495 1.385 . S
C499 C498 1.374 . S
C500 C497 1.499 . S
C500 C501 1.373 . S
C500 C502 1.389 . S
C501 H480 0.950 . S
C501 C500 1.373 . S
C501 C517 1.377 . S
C502 C500 1.389 . S
C502 C503 1.524 . S
C502 C516 1.377 . S
C503 C502 1.524 . S
C503 C504 1.397 . S
C503 C508 1.363 . S
C504 H481 0.950 . S
C504 C503 1.397 . S
C504 C505 1.334 . S
C505 H482 0.950 . S
C505 C504 1.334 . S
C505 C506 1.287 . S
C506 C505 1.287 . S
C506 C507 1.524 . S
C506 H525 0.913 . S
C507 H483 0.950 . S
C507 C506 1.524 . S
C507 C508 1.415 . S
C508 H484 0.950 . S
C508 C503 1.363 . S
C508 C507 1.415 . S
C509 H485 0.951 . S
C509 C510 1.366 . S
C509 C511 1.388 . S
C510 C509 1.366 . S
C510 C514 1.385 . S
C511 H486 0.951 . S
C511 C509 1.388 . S
C511 C512 1.366 . S
C512 C511 1.366 . S
C512 C513 1.414 . S
C512 C515 1.499 . S
C513 H487 0.950 . S
C513 C512 1.414 . S
C513 C514 1.374 . S
C514 H488 0.950 . S
C514 C510 1.385 . S
C514 C513 1.374 . S
C515 C512 1.499 . S
C515 C516 1.373 . S
C515 C517 1.389 . S
C516 H489 0.950 . S
C516 C502 1.377 . S
C516 C515 1.373 . S
C517 C501 1.377 . S
C517 C515 1.389 . S
C517 C518 1.524 . S
C518 C517 1.524 . S
C518 C519 1.397 . S
C518 C523 1.363 . S
C519 H490 0.950 . S
C519 C518 1.397 . S
C519 C520 1.334 . S
C520 H491 0.950 . S
C520 C519 1.334 . S
C520 C521 1.287 . S
C521 C520 1.287 . S
C521 C522 1.524 . S
C521 H524 0.999 . S
C522 H492 0.950 . S
C522 C521 1.524 . S
C522 C523 1.415 . S
C523 H493 0.950 . S
C523 C518 1.363 . S
C523 C522 1.415 . S
H524 C521 0.999 . S
H525 C506 0.913 . S
H526 C544 0.951 . S
H527 C546 0.951 1_655 S
H528 C548 0.950 . S
H529 C549 0.950 . S
H530 C551 0.950 1_455 S
H531 C554 0.950 . S
H532 C555 0.950 . S
H533 C557 0.950 . S
H534 C558 0.950 . S
H535 C559 0.951 . S
H536 C561 0.951 . S
H537 C563 0.950 . S
H538 C564 0.950 . S
H539 C566 0.950 1_565 S
H540 C569 0.950 . S
H541 C570 0.950 . S
H542 C572 0.950 . S
H543 C573 0.950 . S
C544 H526 0.951 . S
C544 C545 1.366 . S
C544 C546 1.388 . S
C545 C544 1.366 . S
C545 C549 1.385 . S
C546 H527 0.951 1_455 S
C546 C544 1.388 . S
C546 C547 1.366 . S
C547 C546 1.366 . S
C547 C548 1.414 . S
C547 C550 1.499 1_465 S
C548 H528 0.950 . S
C548 C547 1.414 . S
C548 C549 1.374 . S
C549 H529 0.950 . S
C549 C545 1.385 . S
C549 C548 1.374 . S
C550 C547 1.499 1_645 S
C550 C551 1.373 . S
C550 C552 1.389 1_545 S
C551 H530 0.950 1_655 S
C551 C550 1.373 . S
C551 C567 1.377 . S
C552 C550 1.389 1_565 S
C552 C553 1.524 . S
C552 C566 1.377 1_565 S
C553 C552 1.524 . S
C553 C554 1.397 . S
C553 C558 1.363 . S
C554 H531 0.950 . S
C554 C553 1.397 . S
C554 C555 1.334 . S
C555 H532 0.950 . S
C555 C554 1.334 . S
C555 C556 1.287 . S
C556 C555 1.287 . S
C556 C557 1.524 . S
C556 H575 0.913 . S
C557 H533 0.950 . S
C557 C556 1.524 . S
C557 C558 1.415 . S
C558 H534 0.950 . S
C558 C553 1.363 . S
C558 C557 1.415 . S
C559 H535 0.951 . S
C559 C560 1.366 . S
C559 C561 1.388 . S
C560 C559 1.366 . S
C560 C564 1.385 . S
C561 H536 0.951 . S
C561 C559 1.388 . S
C561 C562 1.366 . S
C562 C561 1.366 . S
C562 C563 1.414 . S
C562 C565 1.499 . S
C563 H537 0.950 . S
C563 C562 1.414 . S
C563 C564 1.374 . S
C564 H538 0.950 . S
C564 C560 1.385 . S
C564 C563 1.374 . S
C565 C562 1.499 . S
C565 C566 1.373 . S
C565 C567 1.389 . S
C566 H539 0.950 1_545 S
C566 C552 1.377 1_545 S
C566 C565 1.373 . S
C567 C551 1.377 . S
C567 C565 1.389 . S
C567 C568 1.524 . S
C568 C567 1.524 . S
C568 C569 1.397 . S
C568 C573 1.363 1_655 S
C569 H540 0.950 . S
C569 C568 1.397 . S
C569 C570 1.334 . S
C570 H541 0.950 . S
C570 C569 1.334 . S
C570 C571 1.287 1_655 S
C571 C570 1.287 1_455 S
C571 C572 1.524 . S
C571 H574 0.999 . S
C572 H542 0.950 . S
C572 C571 1.524 . S
C572 C573 1.415 . S
C573 H543 0.950 . S
C573 C568 1.363 1_455 S
C573 C572 1.415 . S
H574 C571 0.999 . S
H575 C556 0.913 . S
H576 C594 0.951 . S
H577 C596 0.951 . S
H578 C598 0.950 . S
H579 C599 0.950 . S
H580 C601 0.950 . S
H581 C604 0.950 . S
H582 C605 0.950 . S
H583 C607 0.950 . S
H584 C608 0.950 . S
H585 C609 0.951 . S
H586 C611 0.951 . S
H587 C613 0.950 . S
H588 C614 0.950 . S
H589 C616 0.950 . S
H590 C619 0.950 . S
H591 C620 0.950 . S
H592 C622 0.950 . S
H593 C623 0.950 . S
C594 H576 0.951 . S
C594 C595 1.366 . S
C594 C596 1.388 . S
C595 C594 1.366 . S
C595 C599 1.385 . S
C596 H577 0.951 . S
C596 C594 1.388 . S
C596 C597 1.366 . S
C597 C596 1.366 . S
C597 C598 1.414 . S
C597 C600 1.499 . S
C598 H578 0.950 . S
C598 C597 1.414 . S
C598 C599 1.374 . S
C599 H579 0.950 . S
C599 C595 1.385 . S
C599 C598 1.374 . S
C600 C597 1.499 . S
C600 C601 1.373 . S
C600 C602 1.389 . S
C601 H580 0.950 . S
C601 C600 1.373 . S
C601 C617 1.377 . S
C602 C600 1.389 . S
C602 C603 1.524 . S
C602 C616 1.377 . S
C603 C602 1.524 . S
C603 C604 1.397 . S
C603 C608 1.363 . S
C604 H581 0.950 . S
C604 C603 1.397 . S
C604 C605 1.334 . S
C605 H582 0.950 . S
C605 C604 1.334 . S
C605 C606 1.287 . S
C606 C605 1.287 . S
C606 C607 1.524 . S
C606 H625 0.913 . S
C607 H583 0.950 . S
C607 C606 1.524 . S
C607 C608 1.415 . S
C608 H584 0.950 . S
C608 C603 1.363 . S
C608 C607 1.415 . S
C609 H585 0.951 . S
C609 C610 1.366 . S
C609 C611 1.388 . S
C610 C609 1.366 . S
C610 C614 1.385 . S
C611 H586 0.951 . S
C611 C609 1.388 . S
C611 C612 1.366 . S
C612 C611 1.366 . S
C612 C613 1.414 . S
C612 C615 1.499 . S
C613 H587 0.950 . S
C613 C612 1.414 . S
C613 C614 1.374 . S
C614 H588 0.950 . S
C614 C610 1.385 . S
C614 C613 1.374 . S
C615 C612 1.499 . S
C615 C616 1.373 . S
C615 C617 1.389 . S
C616 H589 0.950 . S
C616 C602 1.377 . S
C616 C615 1.373 . S
C617 C601 1.377 . S
C617 C615 1.389 . S
C617 C618 1.524 . S
C618 C617 1.524 . S
C618 C619 1.397 . S
C618 C623 1.363 . S
C619 H590 0.950 . S
C619 C618 1.397 . S
C619 C620 1.334 . S
C620 H591 0.950 . S
C620 C619 1.334 . S
C620 C621 1.287 . S
C621 C620 1.287 . S
C621 C622 1.524 . S
C621 H624 0.999 . S
C622 H592 0.950 . S
C622 C621 1.524 . S
C622 C623 1.415 . S
C623 H593 0.950 . S
C623 C618 1.363 . S
C623 C622 1.415 . S
H624 C621 0.999 . S
H625 C606 0.913 . S
H626 C644 0.951 . S
H627 C646 0.951 . S
H628 C648 0.950 . S
H629 C649 0.950 . S
H630 C651 0.950 . S
H631 C654 0.950 . S
H632 C655 0.950 . S
H633 C657 0.950 . S
H634 C658 0.950 . S
H635 C659 0.951 . S
H636 C661 0.951 . S
H637 C663 0.950 . S
H638 C664 0.950 . S
H639 C666 0.950 . S
H640 C669 0.950 . S
H641 C670 0.950 . S
H642 C672 0.950 . S
H643 C673 0.950 . S
C644 H626 0.951 . S
C644 C645 1.366 . S
C644 C646 1.388 . S
C645 C644 1.366 . S
C645 C649 1.385 . S
C646 H627 0.951 . S
C646 C644 1.388 . S
C646 C647 1.366 . S
C647 C646 1.366 . S
C647 C648 1.414 . S
C647 C650 1.499 . S
C648 H628 0.950 . S
C648 C647 1.414 . S
C648 C649 1.374 . S
C649 H629 0.950 . S
C649 C645 1.385 . S
C649 C648 1.374 . S
C650 C647 1.499 . S
C650 C651 1.373 . S
C650 C652 1.389 . S
C651 H630 0.950 . S
C651 C650 1.373 . S
C651 C667 1.377 . S
C652 C650 1.389 . S
C652 C653 1.524 . S
C652 C666 1.377 . S
C653 C652 1.524 . S
C653 C654 1.397 . S
C653 C658 1.363 . S
C654 H631 0.950 . S
C654 C653 1.397 . S
C654 C655 1.334 . S
C655 H632 0.950 . S
C655 C654 1.334 . S
C655 C656 1.287 . S
C656 C655 1.287 . S
C656 C657 1.524 . S
C656 H675 0.913 . S
C657 H633 0.950 . S
C657 C656 1.524 . S
C657 C658 1.415 . S
C658 H634 0.950 . S
C658 C653 1.363 . S
C658 C657 1.415 . S
C659 H635 0.951 . S
C659 C660 1.366 . S
C659 C661 1.388 . S
C660 C659 1.366 . S
C660 C664 1.385 . S
C661 H636 0.951 . S
C661 C659 1.388 . S
C661 C662 1.366 . S
C662 C661 1.366 . S
C662 C663 1.414 . S
C662 C665 1.499 . S
C663 H637 0.950 . S
C663 C662 1.414 . S
C663 C664 1.374 . S
C664 H638 0.950 . S
C664 C660 1.385 . S
C664 C663 1.374 . S
C665 C662 1.499 . S
C665 C666 1.373 . S
C665 C667 1.389 . S
C666 H639 0.950 . S
C666 C652 1.377 . S
C666 C665 1.373 . S
C667 C651 1.377 . S
C667 C665 1.389 . S
C667 C668 1.524 . S
C668 C667 1.524 . S
C668 C669 1.397 . S
C668 C673 1.363 . S
C669 H640 0.950 . S
C669 C668 1.397 . S
C669 C670 1.334 . S
C670 H641 0.950 . S
C670 C669 1.334 . S
C670 C671 1.287 . S
C671 C670 1.287 . S
C671 C672 1.524 . S
C671 H674 0.999 . S
C672 H642 0.950 . S
C672 C671 1.524 . S
C672 C673 1.415 . S
C673 H643 0.950 . S
C673 C668 1.363 . S
C673 C672 1.415 . S
H674 C671 0.999 . S
H675 C656 0.913 . S
H676 C694 0.951 . S
H677 C696 0.951 . S
H678 C698 0.950 . S
H679 C699 0.950 . S
H680 C701 0.950 . S
H681 C704 0.950 . S
H682 C705 0.950 . S
H683 C707 0.950 . S
H684 C708 0.950 . S
H685 C709 0.951 . S
H686 C711 0.951 . S
H687 C713 0.950 . S
H688 C714 0.950 . S
H689 C716 0.950 . S
H690 C719 0.950 . S
H691 C720 0.950 . S
H692 C722 0.950 . S
H693 C723 0.950 . S
C694 H676 0.951 . S
C694 C695 1.366 . S
C694 C696 1.388 . S
C695 C694 1.366 . S
C695 C699 1.385 . S
C696 H677 0.951 . S
C696 C694 1.388 . S
C696 C697 1.366 . S
C697 C696 1.366 . S
C697 C698 1.414 . S
C697 C700 1.499 . S
C698 H678 0.950 . S
C698 C697 1.414 . S
C698 C699 1.374 . S
C699 H679 0.950 . S
C699 C695 1.385 . S
C699 C698 1.374 . S
C700 C697 1.499 . S
C700 C701 1.373 . S
C700 C702 1.389 . S
C701 H680 0.950 . S
C701 C700 1.373 . S
C701 C717 1.377 . S
C702 C700 1.389 . S
C702 C703 1.524 . S
C702 C716 1.377 . S
C703 C702 1.524 . S
C703 C704 1.397 . S
C703 C708 1.363 . S
C704 H681 0.950 . S
C704 C703 1.397 . S
C704 C705 1.334 . S
C705 H682 0.950 . S
C705 C704 1.334 . S
C705 C706 1.287 . S
C706 C705 1.287 . S
C706 C707 1.524 . S
C706 H725 0.913 . S
C707 H683 0.950 . S
C707 C706 1.524 . S
C707 C708 1.415 . S
C708 H684 0.950 . S
C708 C703 1.363 . S
C708 C707 1.415 . S
C709 H685 0.951 . S
C709 C710 1.366 . S
C709 C711 1.388 . S
C710 C709 1.366 . S
C710 C714 1.385 . S
C711 H686 0.951 . S
C711 C709 1.388 . S
C711 C712 1.366 . S
C712 C711 1.366 . S
C712 C713 1.414 . S
C712 C715 1.499 . S
C713 H687 0.950 . S
C713 C712 1.414 . S
C713 C714 1.374 . S
C714 H688 0.950 . S
C714 C710 1.385 . S
C714 C713 1.374 . S
C715 C712 1.499 . S
C715 C716 1.373 . S
C715 C717 1.389 . S
C716 H689 0.950 . S
C716 C702 1.377 . S
C716 C715 1.373 . S
C717 C701 1.377 . S
C717 C715 1.389 . S
C717 C718 1.524 . S
C718 C717 1.524 . S
C718 C719 1.397 . S
C718 C723 1.363 . S
C719 H690 0.950 . S
C719 C718 1.397 . S
C719 C720 1.334 . S
C720 H691 0.950 . S
C720 C719 1.334 . S
C720 C721 1.287 . S
C721 C720 1.287 . S
C721 C722 1.524 . S
C721 H724 0.999 . S
C722 H692 0.950 . S
C722 C721 1.524 . S
C722 C723 1.415 . S
C723 H693 0.950 . S
C723 C718 1.363 . S
C723 C722 1.415 . S
H724 C721 0.999 . S
H725 C706 0.913 . S
H726 C744 0.951 . S
H727 C746 0.951 . S
H728 C748 0.950 . S
H729 C749 0.950 . S
H730 C751 0.950 . S
H731 C754 0.950 . S
H732 C755 0.950 . S
H733 C757 0.950 . S
H734 C758 0.950 . S
H735 C759 0.951 . S
H736 C761 0.951 . S
H737 C763 0.950 . S
H738 C764 0.950 . S
H739 C766 0.950 . S
H740 C769 0.944 1_565 S
H741 C770 0.950 . S
H742 C772 0.950 . S
H743 C773 0.950 . S
C744 H726 0.951 . S
C744 C745 1.366 . S
C744 C746 1.388 . S
C745 C744 1.366 . S
C745 C749 1.385 . S
C746 H727 0.951 . S
C746 C744 1.388 . S
C746 C747 1.366 . S
C747 C746 1.366 . S
C747 C748 1.414 . S
C747 C750 1.499 . S
C748 H728 0.950 . S
C748 C747 1.414 . S
C748 C749 1.374 . S
C749 H729 0.950 . S
C749 C745 1.385 . S
C749 C748 1.374 . S
C750 C747 1.499 . S
C750 C751 1.373 . S
C750 C752 1.389 . S
C751 H730 0.950 . S
C751 C750 1.373 . S
C751 C767 1.377 . S
C752 C750 1.389 . S
C752 C753 1.524 . S
C752 C766 1.377 . S
C753 C752 1.524 . S
C753 C754 1.397 . S
C753 C758 1.363 . S
C754 H731 0.950 . S
C754 C753 1.397 . S
C754 C755 1.334 . S
C755 H732 0.950 . S
C755 C754 1.334 . S
C755 C756 1.287 . S
C756 C755 1.287 . S
C756 C757 1.524 . S
C756 H775 0.913 . S
C757 H733 0.950 . S
C757 C756 1.524 . S
C757 C758 1.415 . S
C758 H734 0.950 . S
C758 C753 1.363 . S
C758 C757 1.415 . S
C759 H735 0.951 . S
C759 C760 1.366 . S
C759 C761 1.388 . S
C760 C759 1.366 . S
C760 C764 1.385 . S
C761 H736 0.951 . S
C761 C759 1.388 . S
C761 C762 1.366 . S
C762 C761 1.366 . S
C762 C763 1.414 . S
C762 C765 1.499 . S
C763 H737 0.950 . S
C763 C762 1.414 . S
C763 C764 1.374 . S
C764 H738 0.950 . S
C764 C760 1.385 . S
C764 C763 1.374 . S
C765 C762 1.499 . S
C765 C766 1.373 . S
C765 C767 1.389 . S
C766 H739 0.950 . S
C766 C752 1.377 . S
C766 C765 1.373 . S
C767 C751 1.377 . S
C767 C765 1.389 . S
C767 C768 1.524 . S
C768 C767 1.524 . S
C768 C769 1.379 1_565 S
C768 C773 1.363 . S
C769 H740 0.944 1_545 S
C769 C768 1.379 1_545 S
C769 C770 1.358 . S
C770 H741 0.950 . S
C770 C769 1.358 . S
C770 C771 1.287 . S
C771 C770 1.287 . S
C771 C772 1.524 . S
C771 H774 0.999 . S
C772 H742 0.950 . S
C772 C771 1.524 . S
C772 C773 1.415 1_545 S
C773 H743 0.950 . S
C773 C768 1.363 . S
C773 C772 1.415 1_565 S
H774 C771 0.999 . S
H775 C756 0.913 . S
H776 C794 0.951 . S
H777 C796 0.951 . S
H778 C798 0.950 . S
H779 C799 0.950 . S
H780 C801 0.950 . S
H781 C804 0.950 . S
H782 C805 0.950 . S
H783 C807 0.950 . S
H784 C808 0.950 . S
H785 C809 0.951 . S
H786 C811 0.951 . S
H787 C813 0.950 . S
H788 C814 0.950 . S
H789 C816 0.950 . S
H790 C819 0.950 . S
H791 C820 0.950 . S
H792 C822 0.950 . S
H793 C823 0.950 . S
C794 H776 0.951 . S
C794 C795 1.366 . S
C794 C796 1.388 . S
C795 C794 1.366 . S
C795 C799 1.385 . S
C796 H777 0.951 . S
C796 C794 1.388 . S
C796 C797 1.366 . S
C797 C796 1.366 . S
C797 C798 1.414 . S
C797 C800 1.499 . S
C798 H778 0.950 . S
C798 C797 1.414 . S
C798 C799 1.374 . S
C799 H779 0.950 . S
C799 C795 1.385 . S
C799 C798 1.374 . S
C800 C797 1.499 . S
C800 C801 1.373 . S
C800 C802 1.389 . S
C801 H780 0.950 . S
C801 C800 1.373 . S
C801 C817 1.377 . S
C802 C800 1.389 . S
C802 C803 1.524 . S
C802 C816 1.377 . S
C803 C802 1.524 . S
C803 C804 1.397 . S
C803 C808 1.363 . S
C804 H781 0.950 . S
C804 C803 1.397 . S
C804 C805 1.334 . S
C805 H782 0.950 . S
C805 C804 1.334 . S
C805 C806 1.287 . S
C806 C805 1.287 . S
C806 C807 1.524 . S
C806 H825 0.913 . S
C807 H783 0.950 . S
C807 C806 1.524 . S
C807 C808 1.415 . S
C808 H784 0.950 . S
C808 C803 1.363 . S
C808 C807 1.415 . S
C809 H785 0.951 . S
C809 C810 1.366 . S
C809 C811 1.388 . S
C810 C809 1.366 . S
C810 C814 1.385 . S
C811 H786 0.951 . S
C811 C809 1.388 . S
C811 C812 1.366 . S
C812 C811 1.366 . S
C812 C813 1.414 . S
C812 C815 1.499 . S
C813 H787 0.950 . S
C813 C812 1.414 . S
C813 C814 1.374 . S
C814 H788 0.950 . S
C814 C810 1.385 . S
C814 C813 1.374 . S
C815 C812 1.499 . S
C815 C816 1.373 . S
C815 C817 1.389 . S
C816 H789 0.950 . S
C816 C802 1.377 . S
C816 C815 1.373 . S
C817 C801 1.377 . S
C817 C815 1.389 . S
C817 C818 1.524 . S
C818 C817 1.524 . S
C818 C819 1.397 . S
C818 C823 1.363 . S
C819 H790 0.950 . S
C819 C818 1.397 . S
C819 C820 1.334 . S
C820 H791 0.950 . S
C820 C819 1.334 . S
C820 C821 1.287 . S
C821 C820 1.287 . S
C821 C822 1.524 . S
C821 H824 0.999 . S
C822 H792 0.950 . S
C822 C821 1.524 . S
C822 C823 1.415 . S
C823 H793 0.950 . S
C823 C818 1.363 . S
C823 C822 1.415 . S
H824 C821 0.999 . S
H825 C806 0.913 . S
H826 C844 0.951 . S
H827 C846 0.951 . S
H828 C848 0.950 . S
H829 C849 0.950 . S
H830 C851 0.950 . S
H831 C854 0.950 . S
H832 C855 0.950 . S
H833 C857 0.950 . S
H834 C858 0.950 . S
H835 C859 0.951 . S
H836 C861 0.951 . S
H837 C863 0.950 . S
H838 C864 0.950 . S
H839 C866 0.950 . S
H840 C869 0.950 . S
H841 C870 0.950 . S
H842 C872 0.950 . S
H843 C873 0.950 . S
C844 H826 0.951 . S
C844 C845 1.366 . S
C844 C846 1.388 . S
C845 C844 1.366 . S
C845 C849 1.385 . S
C846 H827 0.951 . S
C846 C844 1.388 . S
C846 C847 1.366 . S
C847 C846 1.366 . S
C847 C848 1.414 . S
C847 C850 1.499 . S
C848 H828 0.950 . S
C848 C847 1.414 . S
C848 C849 1.374 . S
C849 H829 0.950 . S
C849 C845 1.385 . S
C849 C848 1.374 . S
C850 C847 1.499 . S
C850 C851 1.373 . S
C850 C852 1.389 . S
C851 H830 0.950 . S
C851 C850 1.373 . S
C851 C867 1.377 . S
C852 C850 1.389 . S
C852 C853 1.524 . S
C852 C866 1.377 . S
C853 C852 1.524 . S
C853 C854 1.397 . S
C853 C858 1.363 . S
C854 H831 0.950 . S
C854 C853 1.397 . S
C854 C855 1.334 . S
C855 H832 0.950 . S
C855 C854 1.334 . S
C855 C856 1.287 . S
C856 C855 1.287 . S
C856 C857 1.524 . S
C856 H875 0.913 . S
C857 H833 0.950 . S
C857 C856 1.524 . S
C857 C858 1.415 . S
C858 H834 0.950 . S
C858 C853 1.363 . S
C858 C857 1.415 . S
C859 H835 0.951 . S
C859 C860 1.366 . S
C859 C861 1.388 . S
C860 C859 1.366 . S
C860 C864 1.385 . S
C861 H836 0.951 . S
C861 C859 1.388 . S
C861 C862 1.366 . S
C862 C861 1.366 . S
C862 C863 1.414 . S
C862 C865 1.499 . S
C863 H837 0.950 . S
C863 C862 1.414 . S
C863 C864 1.374 . S
C864 H838 0.950 . S
C864 C860 1.385 . S
C864 C863 1.374 . S
C865 C862 1.499 . S
C865 C866 1.373 . S
C865 C867 1.389 . S
C866 H839 0.950 . S
C866 C852 1.377 . S
C866 C865 1.373 . S
C867 C851 1.377 . S
C867 C865 1.389 . S
C867 C868 1.524 . S
C868 C867 1.524 . S
C868 C869 1.397 . S
C868 C873 1.363 . S
C869 H840 0.950 . S
C869 C868 1.397 . S
C869 C870 1.334 . S
C870 H841 0.950 . S
C870 C869 1.334 . S
C870 C871 1.287 . S
C871 C870 1.287 . S
C871 C872 1.524 . S
C871 H874 0.999 . S
C872 H842 0.950 . S
C872 C871 1.524 . S
C872 C873 1.415 . S
C873 H843 0.950 . S
C873 C868 1.363 . S
C873 C872 1.415 . S
H874 C871 0.999 . S
H875 C856 0.913 . S
H876 C894 0.951 . S
H877 C896 0.951 . S
H878 C898 0.950 . S
H879 C899 0.950 . S
H880 C901 0.950 . S
H881 C904 0.950 . S
H882 C905 0.950 . S
H883 C907 0.950 . S
H884 C908 0.950 . S
H885 C909 0.951 . S
H886 C911 0.951 . S
H887 C913 0.950 . S
H888 C914 0.950 . S
H889 C916 0.950 . S
H890 C919 0.950 . S
H891 C920 0.950 . S
H892 C922 0.950 . S
H893 C923 0.950 . S
C894 H876 0.951 . S
C894 C895 1.366 . S
C894 C896 1.388 . S
C895 C894 1.366 . S
C895 C899 1.385 . S
C896 H877 0.951 . S
C896 C894 1.388 . S
C896 C897 1.366 . S
C897 C896 1.366 . S
C897 C898 1.414 . S
C897 C900 1.499 . S
C898 H878 0.950 . S
C898 C897 1.414 . S
C898 C899 1.374 . S
C899 H879 0.950 . S
C899 C895 1.385 . S
C899 C898 1.374 . S
C900 C897 1.499 . S
C900 C901 1.373 . S
C900 C902 1.389 . S
C901 H880 0.950 . S
C901 C900 1.373 . S
C901 C917 1.377 . S
C902 C900 1.389 . S
C902 C903 1.524 . S
C902 C916 1.377 . S
C903 C902 1.524 . S
C903 C904 1.397 . S
C903 C908 1.363 . S
C904 H881 0.950 . S
C904 C903 1.397 . S
C904 C905 1.334 . S
C905 H882 0.950 . S
C905 C904 1.334 . S
C905 C906 1.287 . S
C906 C905 1.287 . S
C906 C907 1.524 . S
C906 H925 0.913 . S
C907 H883 0.950 . S
C907 C906 1.524 . S
C907 C908 1.415 . S
C908 H884 0.950 . S
C908 C903 1.363 . S
C908 C907 1.415 . S
C909 H885 0.951 . S
C909 C910 1.366 . S
C909 C911 1.388 . S
C910 C909 1.366 . S
C910 C914 1.385 . S
C911 H886 0.951 . S
C911 C909 1.388 . S
C911 C912 1.366 . S
C912 C911 1.366 . S
C912 C913 1.414 . S
C912 C915 1.499 . S
C913 H887 0.950 . S
C913 C912 1.414 . S
C913 C914 1.374 . S
C914 H888 0.950 . S
C914 C910 1.385 . S
C914 C913 1.374 . S
C915 C912 1.499 . S
C915 C916 1.373 . S
C915 C917 1.389 . S
C916 H889 0.950 . S
C916 C902 1.377 . S
C916 C915 1.373 . S
C917 C901 1.377 . S
C917 C915 1.389 . S
C917 C918 1.524 . S
C918 C917 1.524 . S
C918 C919 1.397 . S
C918 C923 1.363 . S
C919 H890 0.950 . S
C919 C918 1.397 . S
C919 C920 1.334 . S
C920 H891 0.950 . S
C920 C919 1.334 . S
C920 C921 1.287 . S
C921 C920 1.287 . S
C921 C922 1.524 . S
C921 H924 0.999 . S
C922 H892 0.950 . S
C922 C921 1.524 . S
C922 C923 1.415 . S
C923 H893 0.950 . S
C923 C918 1.363 . S
C923 C922 1.415 . S
H924 C921 0.999 . S
H925 C906 0.913 . S
H926 C944 0.951 . S
H927 C946 0.951 . S
H928 C948 0.950 . S
H929 C949 0.950 . S
H930 C951 0.950 . S
H931 C954 0.950 . S
H932 C955 0.950 . S
H933 C957 0.950 . S
H934 C958 0.950 . S
H935 C959 0.951 . S
H936 C961 0.951 . S
H937 C963 0.950 . S
H938 C964 0.950 . S
H939 C966 0.950 . S
H940 C969 0.950 . S
H941 C970 0.950 . S
H942 C972 0.950 . S
H943 C973 0.950 . S
C944 H926 0.951 . S
C944 C945 1.366 . S
C944 C946 1.388 . S
C945 C944 1.366 . S
C945 C949 1.385 . S
C946 H927 0.951 . S
C946 C944 1.388 . S
C946 C947 1.366 . S
C947 C946 1.366 . S
C947 C948 1.414 . S
C947 C950 1.499 . S
C948 H928 0.950 . S
C948 C947 1.414 . S
C948 C949 1.374 . S
C949 H929 0.950 . S
C949 C945 1.385 . S
C949 C948 1.374 . S
C950 C947 1.499 . S
C950 C951 1.373 . S
C950 C952 1.389 . S
C951 H930 0.950 . S
C951 C950 1.373 . S
C951 C967 1.377 . S
C952 C950 1.389 . S
C952 C953 1.524 . S
C952 C966 1.377 . S
C953 C952 1.524 . S
C953 C954 1.397 . S
C953 C958 1.363 . S
C954 H931 0.950 . S
C954 C953 1.397 . S
C954 C955 1.334 . S
C955 H932 0.950 . S
C955 C954 1.334 . S
C955 C956 1.287 . S
C956 C955 1.287 . S
C956 C957 1.524 . S
C956 H975 0.913 . S
C957 H933 0.950 . S
C957 C956 1.524 . S
C957 C958 1.415 . S
C958 H934 0.950 . S
C958 C953 1.363 . S
C958 C957 1.415 . S
C959 H935 0.951 . S
C959 C960 1.366 . S
C959 C961 1.388 . S
C960 C959 1.366 . S
C960 C964 1.385 . S
C961 H936 0.951 . S
C961 C959 1.388 . S
C961 C962 1.366 . S
C962 C961 1.366 . S
C962 C963 1.414 . S
C962 C965 1.499 . S
C963 H937 0.950 . S
C963 C962 1.414 . S
C963 C964 1.374 . S
C964 H938 0.950 . S
C964 C960 1.385 . S
C964 C963 1.374 . S
C965 C962 1.499 . S
C965 C966 1.373 . S
C965 C967 1.389 . S
C966 H939 0.950 . S
C966 C952 1.377 . S
C966 C965 1.373 . S
C967 C951 1.377 . S
C967 C965 1.389 . S
C967 C968 1.524 . S
C968 C967 1.524 . S
C968 C969 1.397 . S
C968 C973 1.363 . S
C969 H940 0.950 . S
C969 C968 1.397 . S
C969 C970 1.334 . S
C970 H941 0.950 . S
C970 C969 1.334 . S
C970 C971 1.287 . S
C971 C970 1.287 . S
C971 C972 1.524 . S
C971 H974 0.999 . S
C972 H942 0.950 . S
C972 C971 1.524 . S
C972 C973 1.415 . S
C973 H943 0.950 . S
C973 C968 1.363 . S
C973 C972 1.415 . S
H974 C971 0.999 . S
H975 C956 0.913 . S
H976 C994 0.951 . S
H977 C996 0.951 . S
H978 C998 0.950 . S
H979 C999 0.950 . S
H980 C1001 0.950 . S
H981 C1004 0.950 . S
H982 C1005 0.950 . S
H983 C1007 0.950 . S
H984 C1008 0.950 . S
H985 C1009 0.951 . S
H986 C1011 0.951 . S
H987 C1013 0.950 . S
H988 C1014 0.950 . S
H989 C1016 0.950 . S
H990 C1019 0.950 . S
H991 C1020 0.950 . S
H992 C1022 0.950 . S
H993 C1023 0.950 . S
C994 H976 0.951 . S
C994 C995 1.366 . S
C994 C996 1.388 . S
C995 C994 1.366 . S
C995 C999 1.385 . S
C996 H977 0.951 . S
C996 C994 1.388 . S
C996 C997 1.366 . S
C997 C996 1.366 . S
C997 C998 1.414 . S
C997 C1000 1.499 . S
C998 H978 0.950 . S
C998 C997 1.414 . S
C998 C999 1.374 . S
C999 H979 0.950 . S
C999 C995 1.385 . S
C999 C998 1.374 . S
C1000 C997 1.499 . S
C1000 C1001 1.373 . S
C1000 C1002 1.389 . S
C1001 H980 0.950 . S
C1001 C1000 1.373 . S
C1001 C1017 1.377 . S
C1002 C1000 1.389 . S
C1002 C1003 1.524 . S
C1002 C1016 1.377 . S
C1003 C1002 1.524 . S
C1003 C1004 1.397 . S
C1003 C1008 1.363 . S
C1004 H981 0.950 . S
C1004 C1003 1.397 . S
C1004 C1005 1.334 . S
C1005 H982 0.950 . S
C1005 C1004 1.334 . S
C1005 C1006 1.287 . S
C1006 C1005 1.287 . S
C1006 C1007 1.524 . S
C1006 H1025 0.913 . S
C1007 H983 0.950 . S
C1007 C1006 1.524 . S
C1007 C1008 1.415 . S
C1008 H984 0.950 . S
C1008 C1003 1.363 . S
C1008 C1007 1.415 . S
C1009 H985 0.951 . S
C1009 C1010 1.366 . S
C1009 C1011 1.388 . S
C1010 C1009 1.366 . S
C1010 C1014 1.385 . S
C1011 H986 0.951 . S
C1011 C1009 1.388 . S
C1011 C1012 1.366 . S
C1012 C1011 1.366 . S
C1012 C1013 1.414 . S
C1012 C1015 1.499 . S
C1013 H987 0.950 . S
C1013 C1012 1.414 . S
C1013 C1014 1.374 . S
C1014 H988 0.950 . S
C1014 C1010 1.385 . S
C1014 C1013 1.374 . S
C1015 C1012 1.499 . S
C1015 C1016 1.373 . S
C1015 C1017 1.389 . S
C1016 H989 0.950 . S
C1016 C1002 1.377 . S
C1016 C1015 1.373 . S
C1017 C1001 1.377 . S
C1017 C1015 1.389 . S
C1017 C1018 1.524 . S
C1018 C1017 1.524 . S
C1018 C1019 1.397 . S
C1018 C1023 1.363 . S
C1019 H990 0.950 . S
C1019 C1018 1.397 . S
C1019 C1020 1.334 . S
C1020 H991 0.950 . S
C1020 C1019 1.334 . S
C1020 C1021 1.287 . S
C1021 C1020 1.287 . S
C1021 C1022 1.524 . S
C1021 H1024 0.999 . S
C1022 H992 0.950 . S
C1022 C1021 1.524 . S
C1022 C1023 1.415 . S
C1023 H993 0.950 . S
C1023 C1018 1.363 . S
C1023 C1022 1.415 . S
H1024 C1021 0.999 . S
H1025 C1006 0.913 . S
H1026 C1044 0.951 . S
H1027 C1046 0.951 . S
H1028 C1048 0.950 . S
H1029 C1049 0.950 . S
H1030 C1051 0.950 . S
H1031 C1054 0.950 . S
H1032 C1055 0.950 . S
H1033 C1057 0.950 1_655 S
H1034 C1058 0.950 . S
H1035 C1059 0.951 . S
H1036 C1061 0.951 . S
H1037 C1063 0.950 . S
H1038 C1064 0.950 . S
H1039 C1066 0.950 . S
H1040 C1069 0.950 . S
H1041 C1070 0.950 . S
H1042 C1072 0.950 . S
H1043 C1073 0.950 . S
C1044 H1026 0.951 . S
C1044 C1045 1.366 . S
C1044 C1046 1.388 . S
C1045 C1044 1.366 . S
C1045 C1049 1.385 . S
C1046 H1027 0.951 . S
C1046 C1044 1.388 . S
C1046 C1047 1.366 . S
C1047 C1046 1.366 . S
C1047 C1048 1.414 . S
C1047 C1050 1.499 . S
C1048 H1028 0.950 . S
C1048 C1047 1.414 . S
C1048 C1049 1.374 . S
C1049 H1029 0.950 . S
C1049 C1045 1.385 . S
C1049 C1048 1.374 . S
C1050 C1047 1.499 . S
C1050 C1051 1.373 . S
C1050 C1052 1.389 . S
C1051 H1030 0.950 . S
C1051 C1050 1.373 . S
C1051 C1067 1.377 . S
C1052 C1050 1.389 . S
C1052 C1053 1.524 . S
C1052 C1066 1.377 . S
C1053 C1052 1.524 . S
C1053 C1054 1.397 . S
C1053 C1058 1.363 . S
C1054 H1031 0.950 . S
C1054 C1053 1.397 . S
C1054 C1055 1.334 . S
C1055 H1032 0.950 . S
C1055 C1054 1.334 . S
C1055 C1056 1.287 . S
C1056 C1055 1.287 . S
C1056 C1057 1.524 . S
C1056 H1075 0.913 . S
C1057 H1033 0.950 1_455 S
C1057 C1056 1.524 . S
C1057 C1058 1.415 . S
C1058 H1034 0.950 . S
C1058 C1053 1.363 . S
C1058 C1057 1.415 . S
C1059 H1035 0.951 . S
C1059 C1060 1.366 . S
C1059 C1061 1.388 . S
C1060 C1059 1.366 . S
C1060 C1064 1.385 . S
C1061 H1036 0.951 . S
C1061 C1059 1.388 . S
C1061 C1062 1.366 . S
C1062 C1061 1.366 . S
C1062 C1063 1.414 . S
C1062 C1065 1.499 . S
C1063 H1037 0.950 . S
C1063 C1062 1.414 . S
C1063 C1064 1.374 . S
C1064 H1038 0.950 . S
C1064 C1060 1.385 . S
C1064 C1063 1.374 . S
C1065 C1062 1.499 . S
C1065 C1066 1.373 . S
C1065 C1067 1.389 . S
C1066 H1039 0.950 . S
C1066 C1052 1.377 . S
C1066 C1065 1.373 . S
C1067 C1051 1.377 . S
C1067 C1065 1.389 . S
C1067 C1068 1.524 . S
C1068 C1067 1.524 . S
C1068 C1069 1.397 . S
C1068 C1073 1.363 . S
C1069 H1040 0.950 . S
C1069 C1068 1.397 . S
C1069 C1070 1.334 . S
C1070 H1041 0.950 . S
C1070 C1069 1.334 . S
C1070 C1071 1.287 . S
C1071 C1070 1.287 . S
C1071 C1072 1.524 . S
C1071 H1074 0.999 . S
C1072 H1042 0.950 . S
C1072 C1071 1.524 . S
C1072 C1073 1.415 . S
C1073 H1043 0.950 . S
C1073 C1068 1.363 . S
C1073 C1072 1.415 . S
H1074 C1071 0.999 . S
H1075 C1056 0.913 . S
H1076 C1094 0.951 . S
H1077 C1096 0.951 . S
H1078 C1098 0.950 . S
H1079 C1099 0.950 . S
H1080 C1101 0.950 . S
H1081 C1104 0.950 . S
H1082 C1105 0.950 . S
H1083 C1107 0.950 . S
H1084 C1108 0.950 . S
H1085 C1109 0.951 . S
H1086 C1111 0.951 . S
H1087 C1113 0.950 . S
H1088 C1114 0.950 . S
H1089 C1116 0.950 . S
H1090 C1119 0.950 . S
H1091 C1120 0.950 . S
H1092 C1122 0.950 . S
H1093 C1123 0.950 . S
C1094 H1076 0.951 . S
C1094 C1095 1.366 . S
C1094 C1096 1.388 . S
C1095 C1094 1.366 . S
C1095 C1099 1.385 . S
C1096 H1077 0.951 . S
C1096 C1094 1.388 . S
C1096 C1097 1.366 . S
C1097 C1096 1.366 . S
C1097 C1098 1.414 . S
C1097 C1100 1.499 . S
C1098 H1078 0.950 . S
C1098 C1097 1.414 . S
C1098 C1099 1.374 . S
C1099 H1079 0.950 . S
C1099 C1095 1.385 . S
C1099 C1098 1.374 . S
C1100 C1097 1.499 . S
C1100 C1101 1.373 . S
C1100 C1102 1.389 . S
C1101 H1080 0.950 . S
C1101 C1100 1.373 . S
C1101 C1117 1.377 . S
C1102 C1100 1.389 . S
C1102 C1103 1.524 . S
C1102 C1116 1.377 . S
C1103 C1102 1.524 . S
C1103 C1104 1.397 . S
C1103 C1108 1.363 . S
C1104 H1081 0.950 . S
C1104 C1103 1.397 . S
C1104 C1105 1.334 . S
C1105 H1082 0.950 . S
C1105 C1104 1.334 . S
C1105 C1106 1.287 . S
C1106 C1105 1.287 . S
C1106 C1107 1.524 . S
C1106 H1125 0.913 . S
C1107 H1083 0.950 . S
C1107 C1106 1.524 . S
C1107 C1108 1.415 . S
C1108 H1084 0.950 . S
C1108 C1103 1.363 . S
C1108 C1107 1.415 . S
C1109 H1085 0.951 . S
C1109 C1110 1.366 . S
C1109 C1111 1.388 . S
C1110 C1109 1.366 . S
C1110 C1114 1.385 . S
C1111 H1086 0.951 . S
C1111 C1109 1.388 . S
C1111 C1112 1.366 . S
C1112 C1111 1.366 . S
C1112 C1113 1.414 . S
C1112 C1115 1.499 . S
C1113 H1087 0.950 . S
C1113 C1112 1.414 . S
C1113 C1114 1.374 . S
C1114 H1088 0.950 . S
C1114 C1110 1.385 . S
C1114 C1113 1.374 . S
C1115 C1112 1.499 . S
C1115 C1116 1.373 . S
C1115 C1117 1.389 . S
C1116 H1089 0.950 . S
C1116 C1102 1.377 . S
C1116 C1115 1.373 . S
C1117 C1101 1.377 . S
C1117 C1115 1.389 . S
C1117 C1118 1.524 . S
C1118 C1117 1.524 . S
C1118 C1119 1.397 . S
C1118 C1123 1.363 . S
C1119 H1090 0.950 . S
C1119 C1118 1.397 . S
C1119 C1120 1.334 . S
C1120 H1091 0.950 . S
C1120 C1119 1.334 . S
C1120 C1121 1.287 . S
C1121 C1120 1.287 . S
C1121 C1122 1.524 . S
C1121 H1124 0.999 . S
C1122 H1092 0.950 . S
C1122 C1121 1.524 . S
C1122 C1123 1.415 . S
C1123 H1093 0.950 . S
C1123 C1118 1.363 . S
C1123 C1122 1.415 . S
H1124 C1121 0.999 . S
H1125 C1106 0.913 . S
H1126 C1144 0.951 . S
H1127 C1146 0.951 . S
H1128 C1148 0.950 . S
H1129 C1149 0.950 . S
H1130 C1151 0.950 . S
H1131 C1154 0.950 . S
H1132 C1155 0.950 . S
H1133 C1157 0.950 . S
H1134 C1158 0.950 . S
H1135 C1159 0.951 . S
H1136 C1161 0.951 . S
H1137 C1163 0.950 1_455 S
H1138 C1164 0.951 . S
H1139 C1166 0.924 1_455 S
H1140 C1169 0.950 . S
H1141 C1170 0.950 . S
H1142 C1172 0.950 . S
H1143 C1173 0.950 . S
C1144 H1126 0.951 . S
C1144 C1145 1.366 . S
C1144 C1146 1.388 . S
C1145 C1144 1.366 . S
C1145 C1149 1.385 . S
C1146 H1127 0.951 . S
C1146 C1144 1.388 . S
C1146 C1147 1.366 . S
C1147 C1146 1.366 . S
C1147 C1148 1.414 . S
C1147 C1150 1.499 . S
C1148 H1128 0.950 . S
C1148 C1147 1.414 . S
C1148 C1149 1.374 . S
C1149 H1129 0.950 . S
C1149 C1145 1.385 . S
C1149 C1148 1.374 . S
C1150 C1147 1.499 . S
C1150 C1151 1.373 . S
C1150 C1152 1.389 . S
C1151 H1130 0.950 . S
C1151 C1150 1.373 . S
C1151 C1167 1.377 . S
C1152 C1150 1.389 . S
C1152 C1153 1.524 . S
C1152 C1166 1.377 . S
C1153 C1152 1.524 . S
C1153 C1154 1.397 . S
C1153 C1158 1.363 1_655 S
C1154 H1131 0.950 . S
C1154 C1153 1.397 . S
C1154 C1155 1.334 1_655 S
C1155 H1132 0.950 . S
C1155 C1154 1.334 1_455 S
C1155 C1156 1.287 . S
C1156 C1155 1.287 . S
C1156 C1157 1.524 . S
C1156 H1175 0.913 . S
C1157 H1133 0.950 . S
C1157 C1156 1.524 . S
C1157 C1158 1.415 . S
C1158 H1134 0.950 . S
C1158 C1153 1.363 1_455 S
C1158 C1157 1.415 . S
C1159 H1135 0.951 . S
C1159 C1160 1.366 . S
C1159 C1161 1.388 . S
C1160 C1159 1.366 . S
C1160 C1164 1.384 1_655 S
C1161 H1136 0.951 . S
C1161 C1159 1.388 . S
C1161 C1162 1.366 . S
C1162 C1161 1.366 . S
C1162 C1163 1.414 . S
C1162 C1165 1.499 . S
C1163 H1137 0.950 1_655 S
C1163 C1162 1.414 . S
C1163 C1164 1.374 1_655 S
C1164 H1138 0.951 . S
C1164 C1160 1.384 1_455 S
C1164 C1163 1.374 1_455 S
C1165 C1162 1.499 . S
C1165 C1166 1.373 . S
C1165 C1167 1.389 . S
C1166 H1139 0.924 1_655 S
C1166 C1152 1.377 . S
C1166 C1165 1.373 . S
C1167 C1151 1.377 . S
C1167 C1165 1.389 . S
C1167 C1168 1.524 . S
C1168 C1167 1.524 . S
C1168 C1169 1.397 . S
C1168 C1173 1.363 . S
C1169 H1140 0.950 . S
C1169 C1168 1.397 . S
C1169 C1170 1.334 . S
C1170 H1141 0.950 . S
C1170 C1169 1.334 . S
C1170 C1171 1.287 . S
C1171 C1170 1.287 . S
C1171 C1172 1.524 . S
C1171 H1174 0.999 . S
C1172 H1142 0.950 . S
C1172 C1171 1.524 . S
C1172 C1173 1.415 . S
C1173 H1143 0.950 . S
C1173 C1168 1.363 . S
C1173 C1172 1.415 . S
H1174 C1171 0.999 . S
H1175 C1156 0.913 . S
H1176 C1194 0.951 . S
H1177 C1196 0.951 . S
H1178 C1198 0.950 . S
H1179 C1199 0.950 . S
H1180 C1201 0.950 . S
H1181 C1204 0.950 . S
H1182 C1205 0.950 . S
H1183 C1207 0.950 . S
H1184 C1208 0.950 . S
H1185 C1209 0.951 . S
H1186 C1211 0.954 1_565 S
H1187 C1213 0.950 . S
H1188 C1214 0.950 . S
H1189 C1216 0.950 . S
H1190 C1219 0.950 . S
H1191 C1220 0.950 . S
H1192 C1222 0.950 . S
H1193 C1223 0.950 . S
C1194 H1176 0.951 . S
C1194 C1195 1.366 . S
C1194 C1196 1.388 . S
C1195 C1194 1.366 . S
C1195 C1199 1.385 . S
C1196 H1177 0.951 . S
C1196 C1194 1.388 . S
C1196 C1197 1.366 . S
C1197 C1196 1.366 . S
C1197 C1198 1.414 . S
C1197 C1200 1.499 . S
C1198 H1178 0.950 . S
C1198 C1197 1.414 . S
C1198 C1199 1.374 . S
C1199 H1179 0.950 . S
C1199 C1195 1.385 . S
C1199 C1198 1.374 . S
C1200 C1197 1.499 . S
C1200 C1201 1.373 . S
C1200 C1202 1.389 . S
C1201 H1180 0.950 . S
C1201 C1200 1.373 . S
C1201 C1217 1.377 . S
C1202 C1200 1.389 . S
C1202 C1203 1.524 . S
C1202 C1216 1.377 . S
C1203 C1202 1.524 . S
C1203 C1204 1.397 . S
C1203 C1208 1.363 . S
C1204 H1181 0.950 . S
C1204 C1203 1.397 . S
C1204 C1205 1.334 . S
C1205 H1182 0.950 . S
C1205 C1204 1.334 . S
C1205 C1206 1.287 . S
C1206 C1205 1.287 . S
C1206 C1207 1.524 . S
C1206 H1225 0.913 . S
C1207 H1183 0.950 . S
C1207 C1206 1.524 . S
C1207 C1208 1.415 . S
C1208 H1184 0.950 . S
C1208 C1203 1.363 . S
C1208 C1207 1.415 . S
C1209 H1185 0.951 . S
C1209 C1210 1.366 . S
C1209 C1211 1.388 . S
C1210 C1209 1.366 . S
C1210 C1214 1.385 . S
C1211 H1186 0.954 1_545 S
C1211 C1209 1.388 . S
C1211 C1212 1.366 1_545 S
C1212 C1211 1.366 1_565 S
C1212 C1213 1.414 . S
C1212 C1215 1.499 . S
C1213 H1187 0.950 . S
C1213 C1212 1.414 . S
C1213 C1214 1.374 1_565 S
C1214 H1188 0.950 . S
C1214 C1210 1.385 . S
C1214 C1213 1.374 1_545 S
C1215 C1212 1.499 . S
C1215 C1216 1.373 . S
C1215 C1217 1.389 . S
C1216 H1189 0.950 . S
C1216 C1202 1.377 . S
C1216 C1215 1.373 . S
C1217 C1201 1.377 . S
C1217 C1215 1.389 . S
C1217 C1218 1.524 . S
C1218 C1217 1.524 . S
C1218 C1219 1.397 . S
C1218 C1223 1.363 . S
C1219 H1190 0.950 . S
C1219 C1218 1.397 . S
C1219 C1220 1.334 1_565 S
C1220 H1191 0.950 . S
C1220 C1219 1.334 1_545 S
C1220 C1221 1.287 . S
C1221 C1220 1.287 . S
C1221 C1222 1.524 . S
C1221 H1224 0.999 . S
C1222 H1192 0.950 . S
C1222 C1221 1.524 . S
C1222 C1223 1.415 1_545 S
C1223 H1193 0.950 . S
C1223 C1218 1.363 . S
C1223 C1222 1.415 1_565 S
H1224 C1221 0.999 . S
H1225 C1206 0.913 . S
H1226 C1244 0.951 . S
H1227 C1246 0.951 . S
H1228 C1248 0.950 . S
H1229 C1249 0.950 . S
H1230 C1251 0.950 . S
H1231 C1254 0.950 . S
H1232 C1255 0.950 . S
H1233 C1257 0.950 . S
H1234 C1258 0.950 . S
H1235 C1259 0.951 . S
H1236 C1261 0.951 . S
H1237 C1263 0.950 . S
H1238 C1264 0.950 . S
H1239 C1266 0.950 . S
H1240 C1269 0.950 . S
H1241 C1270 0.950 . S
H1242 C1272 0.950 . S
H1243 C1273 0.950 . S
C1244 H1226 0.951 . S
C1244 C1245 1.366 . S
C1244 C1246 1.388 . S
C1245 C1244 1.366 . S
C1245 C1249 1.385 . S
C1246 H1227 0.951 . S
C1246 C1244 1.388 . S
C1246 C1247 1.366 . S
C1247 C1246 1.366 . S
C1247 C1248 1.414 . S
C1247 C1250 1.499 . S
C1248 H1228 0.950 . S
C1248 C1247 1.414 . S
C1248 C1249 1.374 . S
C1249 H1229 0.950 . S
C1249 C1245 1.385 . S
C1249 C1248 1.374 . S
C1250 C1247 1.499 . S
C1250 C1251 1.373 . S
C1250 C1252 1.389 . S
C1251 H1230 0.950 . S
C1251 C1250 1.373 . S
C1251 C1267 1.377 . S
C1252 C1250 1.389 . S
C1252 C1253 1.524 . S
C1252 C1266 1.377 . S
C1253 C1252 1.524 . S
C1253 C1254 1.397 . S
C1253 C1258 1.363 . S
C1254 H1231 0.950 . S
C1254 C1253 1.397 . S
C1254 C1255 1.334 . S
C1255 H1232 0.950 . S
C1255 C1254 1.334 . S
C1255 C1256 1.287 . S
C1256 C1255 1.287 . S
C1256 C1257 1.524 . S
C1256 H1275 0.913 . S
C1257 H1233 0.950 . S
C1257 C1256 1.524 . S
C1257 C1258 1.415 . S
C1258 H1234 0.950 . S
C1258 C1253 1.363 . S
C1258 C1257 1.415 . S
C1259 H1235 0.951 . S
C1259 C1260 1.366 . S
C1259 C1261 1.388 . S
C1260 C1259 1.366 . S
C1260 C1264 1.385 . S
C1261 H1236 0.951 . S
C1261 C1259 1.388 . S
C1261 C1262 1.366 . S
C1262 C1261 1.366 . S
C1262 C1263 1.414 . S
C1262 C1265 1.499 . S
C1263 H1237 0.950 . S
C1263 C1262 1.414 . S
C1263 C1264 1.374 . S
C1264 H1238 0.950 . S
C1264 C1260 1.385 . S
C1264 C1263 1.374 . S
C1265 C1262 1.499 . S
C1265 C1266 1.373 . S
C1265 C1267 1.389 . S
C1266 H1239 0.950 . S
C1266 C1252 1.377 . S
C1266 C1265 1.373 . S
C1267 C1251 1.377 . S
C1267 C1265 1.389 . S
C1267 C1268 1.524 . S
C1268 C1267 1.524 . S
C1268 C1269 1.397 . S
C1268 C1273 1.363 . S
C1269 H1240 0.950 . S
C1269 C1268 1.397 . S
C1269 C1270 1.334 . S
C1270 H1241 0.950 . S
C1270 C1269 1.334 . S
C1270 C1271 1.287 . S
C1271 C1270 1.287 . S
C1271 C1272 1.524 . S
C1271 H1274 0.999 . S
C1272 H1242 0.950 . S
C1272 C1271 1.524 . S
C1272 C1273 1.415 . S
C1273 H1243 0.950 . S
C1273 C1268 1.363 . S
C1273 C1272 1.415 . S
H1274 C1271 0.999 . S
H1275 C1256 0.913 . S
H1276 C1294 0.951 . S
H1277 C1296 0.951 . S
H1278 C1298 0.950 . S
H1279 C1299 0.950 . S
H1280 C1301 0.950 . S
H1281 C1304 0.950 . S
H1282 C1305 0.950 . S
H1283 C1307 0.950 1_565 S
H1284 C1308 0.950 . S
H1285 C1309 0.951 . S
H1286 C1311 0.955 . S
H1287 C1313 0.961 . S
H1288 C1314 0.950 . S
H1289 C1316 0.950 . S
H1290 C1319 0.950 1_554 S
H1291 C1320 0.950 . S
H1292 C1322 0.950 . S
H1293 C1323 0.950 . S
C1294 H1276 0.951 . S
C1294 C1295 1.366 . S
C1294 C1296 1.388 . S
C1295 C1294 1.366 . S
C1295 C1299 1.385 . S
C1296 H1277 0.951 . S
C1296 C1294 1.388 . S
C1296 C1297 1.366 . S
C1297 C1296 1.366 . S
C1297 C1298 1.414 . S
C1297 C1300 1.499 . S
C1298 H1278 0.950 . S
C1298 C1297 1.414 . S
C1298 C1299 1.374 . S
C1299 H1279 0.950 . S
C1299 C1295 1.385 . S
C1299 C1298 1.374 . S
C1300 C1297 1.499 . S
C1300 C1301 1.373 . S
C1300 C1302 1.389 . S
C1301 H1280 0.950 . S
C1301 C1300 1.373 . S
C1301 C1317 1.377 . S
C1302 C1300 1.389 . S
C1302 C1303 1.524 . S
C1302 C1316 1.377 . S
C1303 C1302 1.524 . S
C1303 C1304 1.397 . S
C1303 C1308 1.363 . S
C1304 H1281 0.950 . S
C1304 C1303 1.397 . S
C1304 C1305 1.334 . S
C1305 H1282 0.950 . S
C1305 C1304 1.334 . S
C1305 C1306 1.287 . S
C1306 C1305 1.287 . S
C1306 C1307 1.524 . S
C1306 H1325 0.913 . S
C1307 H1283 0.950 1_545 S
C1307 C1306 1.524 . S
C1307 C1308 1.415 . S
C1308 H1284 0.950 . S
C1308 C1303 1.363 . S
C1308 C1307 1.415 . S
C1309 H1285 0.951 . S
C1309 C1310 1.366 . S
C1309 C1311 1.383 1_565 S
C1310 C1309 1.366 . S
C1310 C1314 1.385 1_556 S
C1311 H1286 0.955 . S
C1311 C1309 1.383 1_545 S
C1311 C1312 1.366 . S
C1312 C1311 1.366 . S
C1312 C1313 1.397 1_546 S
C1312 C1315 1.499 . S
C1313 H1287 0.961 . S
C1313 C1312 1.397 1_564 S
C1313 C1314 1.381 . S
C1314 H1288 0.950 . S
C1314 C1310 1.385 1_554 S
C1314 C1313 1.381 . S
C1315 C1312 1.499 . S
C1315 C1316 1.373 . S
C1315 C1317 1.389 . S
C1316 H1289 0.950 . S
C1316 C1302 1.377 . S
C1316 C1315 1.373 . S
C1317 C1301 1.377 . S
C1317 C1315 1.389 . S
C1317 C1318 1.524 . S
C1318 C1317 1.524 . S
C1318 C1319 1.397 . S
C1318 C1323 1.363 . S
C1319 H1290 0.950 1_556 S
C1319 C1318 1.397 . S
C1319 C1320 1.334 1_556 S
C1320 H1291 0.950 . S
C1320 C1319 1.334 1_554 S
C1320 C1321 1.287 1_554 S
C1321 C1320 1.287 1_556 S
C1321 C1322 1.524 . S
C1321 H1324 0.999 . S
C1322 H1292 0.950 . S
C1322 C1321 1.524 . S
C1322 C1323 1.415 . S
C1323 H1293 0.950 . S
C1323 C1318 1.363 . S
C1323 C1322 1.415 . S
H1324 C1321 0.999 . S
H1325 C1306 0.913 . S
H1326 C1344 0.951 . S
H1327 C1346 0.951 . S
H1328 C1348 0.950 . S
H1329 C1349 0.950 . S
H1330 C1351 0.950 . S
H1331 C1354 0.950 . S
H1332 C1355 0.950 . S
H1333 C1357 0.950 . S
H1334 C1358 0.950 . S
H1335 C1359 0.951 . S
H1336 C1361 0.951 . S
H1337 C1363 0.950 . S
H1338 C1364 0.950 . S
H1339 C1366 0.950 . S
H1340 C1369 0.950 . S
H1341 C1370 0.950 . S
H1342 C1372 0.950 . S
H1343 C1373 0.950 . S
C1344 H1326 0.951 . S
C1344 C1345 1.366 . S
C1344 C1346 1.388 . S
C1345 C1344 1.366 . S
C1345 C1349 1.385 . S
C1346 H1327 0.951 . S
C1346 C1344 1.388 . S
C1346 C1347 1.366 . S
C1347 C1346 1.366 . S
C1347 C1348 1.414 . S
C1347 C1350 1.499 . S
C1348 H1328 0.950 . S
C1348 C1347 1.414 . S
C1348 C1349 1.374 . S
C1349 H1329 0.950 . S
C1349 C1345 1.385 . S
C1349 C1348 1.374 . S
C1350 C1347 1.499 . S
C1350 C1351 1.373 . S
C1350 C1352 1.389 . S
C1351 H1330 0.950 . S
C1351 C1350 1.373 . S
C1351 C1367 1.377 . S
C1352 C1350 1.389 . S
C1352 C1353 1.524 . S
C1352 C1366 1.377 . S
C1353 C1352 1.524 . S
C1353 C1354 1.397 . S
C1353 C1358 1.363 . S
C1354 H1331 0.950 . S
C1354 C1353 1.397 . S
C1354 C1355 1.334 . S
C1355 H1332 0.950 . S
C1355 C1354 1.334 . S
C1355 C1356 1.287 . S
C1356 C1355 1.287 . S
C1356 C1357 1.524 . S
C1356 H1375 0.913 . S
C1357 H1333 0.950 . S
C1357 C1356 1.524 . S
C1357 C1358 1.415 . S
C1358 H1334 0.950 . S
C1358 C1353 1.363 . S
C1358 C1357 1.415 . S
C1359 H1335 0.951 . S
C1359 C1360 1.366 . S
C1359 C1361 1.388 . S
C1360 C1359 1.366 . S
C1360 C1364 1.385 . S
C1361 H1336 0.951 . S
C1361 C1359 1.388 . S
C1361 C1362 1.366 . S
C1362 C1361 1.366 . S
C1362 C1363 1.414 . S
C1362 C1365 1.499 . S
C1363 H1337 0.950 . S
C1363 C1362 1.414 . S
C1363 C1364 1.374 . S
C1364 H1338 0.950 . S
C1364 C1360 1.385 . S
C1364 C1363 1.374 . S
C1365 C1362 1.499 . S
C1365 C1366 1.373 . S
C1365 C1367 1.389 . S
C1366 H1339 0.950 . S
C1366 C1352 1.377 . S
C1366 C1365 1.373 . S
C1367 C1351 1.377 . S
C1367 C1365 1.389 . S
C1367 C1368 1.524 . S
C1368 C1367 1.524 . S
C1368 C1369 1.397 . S
C1368 C1373 1.363 . S
C1369 H1340 0.950 . S
C1369 C1368 1.397 . S
C1369 C1370 1.334 . S
C1370 H1341 0.950 . S
C1370 C1369 1.334 . S
C1370 C1371 1.287 . S
C1371 C1370 1.287 . S
C1371 C1372 1.524 . S
C1371 H1374 0.999 . S
C1372 H1342 0.950 . S
C1372 C1371 1.524 . S
C1372 C1373 1.415 . S
C1373 H1343 0.950 . S
C1373 C1368 1.363 . S
C1373 C1372 1.415 . S
H1374 C1371 0.999 . S
H1375 C1356 0.913 . S
H1376 C1394 0.951 . S
H1377 C1396 0.951 . S
H1378 C1398 0.950 . S
H1379 C1399 0.950 . S
H1380 C1401 0.950 . S
H1381 C1404 0.950 . S
H1382 C1405 0.950 . S
H1383 C1407 0.950 . S
H1384 C1408 0.950 . S
H1385 C1409 0.951 . S
H1386 C1411 0.951 . S
H1387 C1413 0.950 . S
H1388 C1414 0.950 . S
H1389 C1416 0.950 . S
H1390 C1419 0.950 . S
H1391 C1420 0.950 . S
H1392 C1422 0.950 . S
H1393 C1423 0.950 . S
C1394 H1376 0.951 . S
C1394 C1395 1.366 . S
C1394 C1396 1.388 1_565 S
C1395 C1394 1.366 . S
C1395 C1399 1.385 1_565 S
C1396 H1377 0.951 . S
C1396 C1394 1.388 1_545 S
C1396 C1397 1.366 . S
C1397 C1396 1.366 . S
C1397 C1398 1.414 . S
C1397 C1400 1.499 . S
C1398 H1378 0.950 . S
C1398 C1397 1.414 . S
C1398 C1399 1.374 . S
C1399 H1379 0.950 . S
C1399 C1395 1.385 1_545 S
C1399 C1398 1.374 . S
C1400 C1397 1.499 . S
C1400 C1401 1.373 . S
C1400 C1402 1.389 . S
C1401 H1380 0.950 . S
C1401 C1400 1.373 . S
C1401 C1417 1.377 . S
C1402 C1400 1.389 . S
C1402 C1403 1.524 . S
C1402 C1416 1.377 . S
C1403 C1402 1.524 . S
C1403 C1404 1.397 . S
C1403 C1408 1.363 . S
C1404 H1381 0.950 . S
C1404 C1403 1.397 . S
C1404 C1405 1.334 . S
C1405 H1382 0.950 . S
C1405 C1404 1.334 . S
C1405 C1406 1.287 . S
C1406 C1405 1.287 . S
C1406 C1407 1.524 . S
C1406 H1425 0.913 . S
C1407 H1383 0.950 . S
C1407 C1406 1.524 . S
C1407 C1408 1.415 . S
C1408 H1384 0.950 . S
C1408 C1403 1.363 . S
C1408 C1407 1.415 . S
C1409 H1385 0.951 . S
C1409 C1410 1.366 . S
C1409 C1411 1.388 . S
C1410 C1409 1.366 . S
C1410 C1414 1.385 . S
C1411 H1386 0.951 . S
C1411 C1409 1.388 . S
C1411 C1412 1.366 . S
C1412 C1411 1.366 . S
C1412 C1413 1.414 . S
C1412 C1415 1.499 . S
C1413 H1387 0.950 . S
C1413 C1412 1.414 . S
C1413 C1414 1.374 . S
C1414 H1388 0.950 . S
C1414 C1410 1.385 . S
C1414 C1413 1.374 . S
C1415 C1412 1.499 . S
C1415 C1416 1.373 . S
C1415 C1417 1.389 . S
C1416 H1389 0.950 . S
C1416 C1402 1.377 . S
C1416 C1415 1.373 . S
C1417 C1401 1.377 . S
C1417 C1415 1.389 . S
C1417 C1418 1.524 . S
C1418 C1417 1.524 . S
C1418 C1419 1.397 . S
C1418 C1423 1.363 . S
C1419 H1390 0.950 . S
C1419 C1418 1.397 . S
C1419 C1420 1.334 . S
C1420 H1391 0.950 . S
C1420 C1419 1.334 . S
C1420 C1421 1.287 . S
C1421 C1420 1.287 . S
C1421 C1422 1.524 . S
C1421 H1424 0.999 . S
C1422 H1392 0.950 . S
C1422 C1421 1.524 . S
C1422 C1423 1.415 . S
C1423 H1393 0.950 . S
C1423 C1418 1.363 . S
C1423 C1422 1.415 . S
H1424 C1421 0.999 . S
H1425 C1406 0.913 . S
H1426 C1444 0.951 . S
H1427 C1446 0.951 . S
H1428 C1448 0.950 . S
H1429 C1449 0.950 . S
H1430 C1451 0.950 . S
H1431 C1454 0.950 . S
H1432 C1455 0.950 . S
H1433 C1457 0.950 . S
H1434 C1458 0.950 . S
H1435 C1459 0.951 . S
H1436 C1461 0.951 . S
H1437 C1463 0.950 . S
H1438 C1464 0.950 . S
H1439 C1466 0.950 . S
H1440 C1469 0.950 . S
H1441 C1470 0.950 . S
H1442 C1472 0.950 . S
H1443 C1473 0.950 . S
C1444 H1426 0.951 . S
C1444 C1445 1.366 . S
C1444 C1446 1.388 . S
C1445 C1444 1.366 . S
C1445 C1449 1.385 . S
C1446 H1427 0.951 . S
C1446 C1444 1.388 . S
C1446 C1447 1.366 . S
C1447 C1446 1.366 . S
C1447 C1448 1.414 . S
C1447 C1450 1.499 . S
C1448 H1428 0.950 . S
C1448 C1447 1.414 . S
C1448 C1449 1.374 . S
C1449 H1429 0.950 . S
C1449 C1445 1.385 . S
C1449 C1448 1.374 . S
C1450 C1447 1.499 . S
C1450 C1451 1.373 . S
C1450 C1452 1.389 . S
C1451 H1430 0.950 . S
C1451 C1450 1.373 . S
C1451 C1467 1.377 . S
C1452 C1450 1.389 . S
C1452 C1453 1.524 . S
C1452 C1466 1.377 . S
C1453 C1452 1.524 . S
C1453 C1454 1.397 . S
C1453 C1458 1.363 . S
C1454 H1431 0.950 . S
C1454 C1453 1.397 . S
C1454 C1455 1.334 . S
C1455 H1432 0.950 . S
C1455 C1454 1.334 . S
C1455 C1456 1.287 . S
C1456 C1455 1.287 . S
C1456 C1457 1.524 . S
C1456 H1475 0.913 . S
C1457 H1433 0.950 . S
C1457 C1456 1.524 . S
C1457 C1458 1.415 . S
C1458 H1434 0.950 . S
C1458 C1453 1.363 . S
C1458 C1457 1.415 . S
C1459 H1435 0.951 . S
C1459 C1460 1.366 . S
C1459 C1461 1.388 . S
C1460 C1459 1.366 . S
C1460 C1464 1.385 . S
C1461 H1436 0.951 . S
C1461 C1459 1.388 . S
C1461 C1462 1.366 . S
C1462 C1461 1.366 . S
C1462 C1463 1.414 . S
C1462 C1465 1.499 . S
C1463 H1437 0.950 . S
C1463 C1462 1.414 . S
C1463 C1464 1.374 . S
C1464 H1438 0.950 . S
C1464 C1460 1.385 . S
C1464 C1463 1.374 . S
C1465 C1462 1.499 . S
C1465 C1466 1.373 . S
C1465 C1467 1.389 . S
C1466 H1439 0.950 . S
C1466 C1452 1.377 . S
C1466 C1465 1.373 . S
C1467 C1451 1.377 . S
C1467 C1465 1.389 . S
C1467 C1468 1.524 . S
C1468 C1467 1.524 . S
C1468 C1469 1.397 . S
C1468 C1473 1.363 . S
C1469 H1440 0.950 . S
C1469 C1468 1.397 . S
C1469 C1470 1.334 . S
C1470 H1441 0.950 . S
C1470 C1469 1.334 . S
C1470 C1471 1.287 . S
C1471 C1470 1.287 . S
C1471 C1472 1.524 . S
C1471 H1474 0.999 . S
C1472 H1442 0.950 . S
C1472 C1471 1.524 . S
C1472 C1473 1.415 . S
C1473 H1443 0.950 . S
C1473 C1468 1.363 . S
C1473 C1472 1.415 . S
H1474 C1471 0.999 . S
H1475 C1456 0.913 . S
H1476 C1494 0.951 . S
H1477 C1496 0.951 . S
H1478 C1498 0.950 . S
H1479 C1499 0.950 . S
H1480 C1501 0.950 . S
H1481 C1504 0.950 . S
H1482 C1505 0.950 . S
H1483 C1507 0.950 . S
H1484 C1508 0.950 . S
H1485 C1509 0.951 . S
H1486 C1511 0.951 . S
H1487 C1513 0.950 . S
H1488 C1514 0.950 . S
H1489 C1516 0.950 . S
H1490 C1519 0.950 . S
H1491 C1520 0.950 . S
H1492 C1522 0.950 . S
H1493 C1523 0.950 . S
C1494 H1476 0.951 . S
C1494 C1495 1.366 . S
C1494 C1496 1.388 . S
C1495 C1494 1.366 . S
C1495 C1499 1.385 . S
C1496 H1477 0.951 . S
C1496 C1494 1.388 . S
C1496 C1497 1.366 . S
C1497 C1496 1.366 . S
C1497 C1498 1.414 . S
C1497 C1500 1.503 1_565 S
C1498 H1478 0.950 . S
C1498 C1497 1.414 . S
C1498 C1499 1.374 . S
C1499 H1479 0.950 . S
C1499 C1495 1.385 . S
C1499 C1498 1.374 . S
C1500 C1497 1.503 1_545 S
C1500 C1501 1.369 . S
C1500 C1502 1.388 1_545 S
C1501 H1480 0.950 . S
C1501 C1500 1.369 . S
C1501 C1517 1.377 . S
C1502 C1500 1.388 1_565 S
C1502 C1503 1.520 . S
C1502 C1516 1.382 1_565 S
C1503 C1502 1.520 . S
C1503 C1504 1.397 . S
C1503 C1508 1.363 . S
C1504 H1481 0.950 . S
C1504 C1503 1.397 . S
C1504 C1505 1.334 . S
C1505 H1482 0.950 . S
C1505 C1504 1.334 . S
C1505 C1506 1.287 . S
C1506 C1505 1.287 . S
C1506 C1507 1.524 . S
C1506 H1525 0.913 . S
C1507 H1483 0.950 . S
C1507 C1506 1.524 . S
C1507 C1508 1.415 . S
C1508 H1484 0.950 . S
C1508 C1503 1.363 . S
C1508 C1507 1.415 . S
C1509 H1485 0.951 . S
C1509 C1510 1.366 . S
C1509 C1511 1.388 . S
C1510 C1509 1.366 . S
C1510 C1514 1.385 . S
C1511 H1486 0.951 . S
C1511 C1509 1.388 . S
C1511 C1512 1.366 . S
C1512 C1511 1.366 . S
C1512 C1513 1.414 . S
C1512 C1515 1.499 . S
C1513 H1487 0.950 . S
C1513 C1512 1.414 . S
C1513 C1514 1.374 . S
C1514 H1488 0.950 . S
C1514 C1510 1.385 . S
C1514 C1513 1.374 . S
C1515 C1512 1.499 . S
C1515 C1516 1.373 . S
C1515 C1517 1.389 . S
C1516 H1489 0.950 . S
C1516 C1502 1.382 1_545 S
C1516 C1515 1.373 . S
C1517 C1501 1.377 . S
C1517 C1515 1.389 . S
C1517 C1518 1.524 . S
C1518 C1517 1.524 . S
C1518 C1519 1.397 . S
C1518 C1523 1.363 . S
C1519 H1490 0.950 . S
C1519 C1518 1.397 . S
C1519 C1520 1.334 . S
C1520 H1491 0.950 . S
C1520 C1519 1.334 . S
C1520 C1521 1.287 . S
C1521 C1520 1.287 . S
C1521 C1522 1.524 . S
C1521 H1524 0.999 . S
C1522 H1492 0.950 . S
C1522 C1521 1.524 . S
C1522 C1523 1.415 . S
C1523 H1493 0.950 . S
C1523 C1518 1.363 . S
C1523 C1522 1.415 . S
H1524 C1521 0.999 . S
H1525 C1506 0.913 . S
H1526 C1544 0.951 . S
H1527 C1546 0.951 . S
H1528 C1548 0.950 . S
H1529 C1549 0.950 . S
H1530 C1551 0.950 . S
H1531 C1554 0.950 . S
H1532 C1555 0.950 . S
H1533 C1557 0.950 . S
H1534 C1558 0.950 . S
H1535 C1559 0.951 . S
H1536 C1561 0.951 . S
H1537 C1563 0.950 . S
H1538 C1564 0.950 . S
H1539 C1566 0.950 . S
H1540 C1569 0.950 . S
H1541 C1570 0.950 . S
H1542 C1572 0.950 . S
H1543 C1573 0.950 . S
C1544 H1526 0.951 . S
C1544 C1545 1.366 . S
C1544 C1546 1.388 . S
C1545 C1544 1.366 . S
C1545 C1549 1.385 . S
C1546 H1527 0.951 . S
C1546 C1544 1.388 . S
C1546 C1547 1.366 . S
C1547 C1546 1.366 . S
C1547 C1548 1.414 . S
C1547 C1550 1.499 . S
C1548 H1528 0.950 . S
C1548 C1547 1.414 . S
C1548 C1549 1.374 . S
C1549 H1529 0.950 . S
C1549 C1545 1.385 . S
C1549 C1548 1.374 . S
C1550 C1547 1.499 . S
C1550 C1551 1.373 . S
C1550 C1552 1.389 . S
C1551 H1530 0.950 . S
C1551 C1550 1.373 . S
C1551 C1567 1.377 . S
C1552 C1550 1.389 . S
C1552 C1553 1.524 . S
C1552 C1566 1.377 . S
C1553 C1552 1.524 . S
C1553 C1554 1.397 . S
C1553 C1558 1.363 . S
C1554 H1531 0.950 . S
C1554 C1553 1.397 . S
C1554 C1555 1.334 . S
C1555 H1532 0.950 . S
C1555 C1554 1.334 . S
C1555 C1556 1.287 . S
C1556 C1555 1.287 . S
C1556 C1557 1.524 . S
C1556 H1575 0.913 . S
C1557 H1533 0.950 . S
C1557 C1556 1.524 . S
C1557 C1558 1.415 . S
C1558 H1534 0.950 . S
C1558 C1553 1.363 . S
C1558 C1557 1.415 . S
C1559 H1535 0.951 . S
C1559 C1560 1.366 . S
C1559 C1561 1.388 . S
C1560 C1559 1.366 . S
C1560 C1564 1.385 . S
C1561 H1536 0.951 . S
C1561 C1559 1.388 . S
C1561 C1562 1.366 . S
C1562 C1561 1.366 . S
C1562 C1563 1.414 . S
C1562 C1565 1.499 . S
C1563 H1537 0.950 . S
C1563 C1562 1.414 . S
C1563 C1564 1.374 . S
C1564 H1538 0.950 . S
C1564 C1560 1.385 . S
C1564 C1563 1.374 . S
C1565 C1562 1.499 . S
C1565 C1566 1.373 . S
C1565 C1567 1.389 . S
C1566 H1539 0.950 . S
C1566 C1552 1.377 . S
C1566 C1565 1.373 . S
C1567 C1551 1.377 . S
C1567 C1565 1.389 . S
C1567 C1568 1.524 . S
C1568 C1567 1.524 . S
C1568 C1569 1.397 . S
C1568 C1573 1.363 . S
C1569 H1540 0.950 . S
C1569 C1568 1.397 . S
C1569 C1570 1.334 . S
C1570 H1541 0.950 . S
C1570 C1569 1.334 . S
C1570 C1571 1.287 . S
C1571 C1570 1.287 . S
C1571 C1572 1.524 . S
C1571 H1574 0.999 . S
C1572 H1542 0.950 . S
C1572 C1571 1.524 . S
C1572 C1573 1.415 . S
C1573 H1543 0.950 . S
C1573 C1568 1.363 . S
C1573 C1572 1.415 . S
H1574 C1571 0.999 . S
H1575 C1556 0.913 . S
H1576 C1594 0.951 . S
H1577 C1596 0.951 . S
H1578 C1598 0.950 . S
H1579 C1599 0.950 . S
H1580 C1601 0.950 . S
H1581 C1604 0.950 . S
H1582 C1605 0.950 . S
H1583 C1607 0.950 . S
H1584 C1608 0.950 . S
H1585 C1609 0.951 . S
H1586 C1611 0.951 . S
H1587 C1613 0.950 . S
H1588 C1614 0.950 . S
H1589 C1616 0.950 . S
H1590 C1619 0.950 . S
H1591 C1620 0.950 . S
H1592 C1622 0.950 . S
H1593 C1623 0.950 . S
C1594 H1576 0.951 . S
C1594 C1595 1.366 . S
C1594 C1596 1.388 . S
C1595 C1594 1.366 . S
C1595 C1599 1.385 . S
C1596 H1577 0.951 . S
C1596 C1594 1.388 . S
C1596 C1597 1.366 . S
C1597 C1596 1.366 . S
C1597 C1598 1.414 . S
C1597 C1600 1.499 . S
C1598 H1578 0.950 . S
C1598 C1597 1.414 . S
C1598 C1599 1.374 . S
C1599 H1579 0.950 . S
C1599 C1595 1.385 . S
C1599 C1598 1.374 . S
C1600 C1597 1.499 . S
C1600 C1601 1.373 . S
C1600 C1602 1.389 . S
C1601 H1580 0.950 . S
C1601 C1600 1.373 . S
C1601 C1617 1.377 . S
C1602 C1600 1.389 . S
C1602 C1603 1.524 . S
C1602 C1616 1.377 . S
C1603 C1602 1.524 . S
C1603 C1604 1.397 . S
C1603 C1608 1.363 . S
C1604 H1581 0.950 . S
C1604 C1603 1.397 . S
C1604 C1605 1.334 . S
C1605 H1582 0.950 . S
C1605 C1604 1.334 . S
C1605 C1606 1.287 . S
C1606 C1605 1.287 . S
C1606 C1607 1.524 . S
C1606 H1625 0.913 . S
C1607 H1583 0.950 . S
C1607 C1606 1.524 . S
C1607 C1608 1.415 . S
C1608 H1584 0.950 . S
C1608 C1603 1.363 . S
C1608 C1607 1.415 . S
C1609 H1585 0.951 . S
C1609 C1610 1.366 . S
C1609 C1611 1.388 . S
C1610 C1609 1.366 . S
C1610 C1614 1.385 . S
C1611 H1586 0.951 . S
C1611 C1609 1.388 . S
C1611 C1612 1.366 . S
C1612 C1611 1.366 . S
C1612 C1613 1.414 . S
C1612 C1615 1.499 . S
C1613 H1587 0.950 . S
C1613 C1612 1.414 . S
C1613 C1614 1.374 . S
C1614 H1588 0.950 . S
C1614 C1610 1.385 . S
C1614 C1613 1.374 . S
C1615 C1612 1.499 . S
C1615 C1616 1.373 . S
C1615 C1617 1.389 . S
C1616 H1589 0.950 . S
C1616 C1602 1.377 . S
C1616 C1615 1.373 . S
C1617 C1601 1.377 . S
C1617 C1615 1.389 . S
C1617 C1618 1.524 . S
C1618 C1617 1.524 . S
C1618 C1619 1.397 . S
C1618 C1623 1.363 . S
C1619 H1590 0.950 . S
C1619 C1618 1.397 . S
C1619 C1620 1.334 . S
C1620 H1591 0.950 . S
C1620 C1619 1.334 . S
C1620 C1621 1.287 . S
C1621 C1620 1.287 . S
C1621 C1622 1.524 . S
C1621 H1624 0.999 . S
C1622 H1592 0.950 . S
C1622 C1621 1.524 . S
C1622 C1623 1.415 . S
C1623 H1593 0.950 . S
C1623 C1618 1.363 . S
C1623 C1622 1.415 . S
H1624 C1621 0.999 . S
H1625 C1606 0.913 . S
H1626 C1644 0.951 . S
H1627 C1646 0.951 . S
H1628 C1648 0.950 . S
H1629 C1649 0.950 . S
H1630 C1651 0.950 . S
H1631 C1654 0.950 . S
H1632 C1655 0.950 . S
H1633 C1657 0.950 . S
H1634 C1658 0.950 . S
H1635 C1659 0.951 . S
H1636 C1661 0.951 . S
H1637 C1663 0.950 . S
H1638 C1664 0.950 . S
H1639 C1666 0.950 . S
H1640 C1669 0.950 . S
H1641 C1670 0.950 . S
H1642 C1672 0.950 . S
H1643 C1673 0.950 . S
C1644 H1626 0.951 . S
C1644 C1645 1.366 . S
C1644 C1646 1.388 . S
C1645 C1644 1.366 . S
C1645 C1649 1.385 . S
C1646 H1627 0.951 . S
C1646 C1644 1.388 . S
C1646 C1647 1.366 . S
C1647 C1646 1.366 . S
C1647 C1648 1.414 . S
C1647 C1650 1.499 . S
C1648 H1628 0.950 . S
C1648 C1647 1.414 . S
C1648 C1649 1.374 . S
C1649 H1629 0.950 . S
C1649 C1645 1.385 . S
C1649 C1648 1.374 . S
C1650 C1647 1.499 . S
C1650 C1651 1.373 . S
C1650 C1652 1.389 . S
C1651 H1630 0.950 . S
C1651 C1650 1.373 . S
C1651 C1667 1.377 . S
C1652 C1650 1.389 . S
C1652 C1653 1.524 . S
C1652 C1666 1.377 . S
C1653 C1652 1.524 . S
C1653 C1654 1.397 . S
C1653 C1658 1.363 . S
C1654 H1631 0.950 . S
C1654 C1653 1.397 . S
C1654 C1655 1.334 . S
C1655 H1632 0.950 . S
C1655 C1654 1.334 . S
C1655 C1656 1.287 . S
C1656 C1655 1.287 . S
C1656 C1657 1.524 . S
C1656 H1675 0.913 . S
C1657 H1633 0.950 . S
C1657 C1656 1.524 . S
C1657 C1658 1.415 . S
C1658 H1634 0.950 . S
C1658 C1653 1.363 . S
C1658 C1657 1.415 . S
C1659 H1635 0.951 . S
C1659 C1660 1.366 . S
C1659 C1661 1.388 . S
C1660 C1659 1.366 . S
C1660 C1664 1.385 . S
C1661 H1636 0.951 . S
C1661 C1659 1.388 . S
C1661 C1662 1.366 . S
C1662 C1661 1.366 . S
C1662 C1663 1.414 . S
C1662 C1665 1.499 . S
C1663 H1637 0.950 . S
C1663 C1662 1.414 . S
C1663 C1664 1.374 . S
C1664 H1638 0.950 . S
C1664 C1660 1.385 . S
C1664 C1663 1.374 . S
C1665 C1662 1.499 . S
C1665 C1666 1.373 . S
C1665 C1667 1.389 . S
C1666 H1639 0.950 . S
C1666 C1652 1.377 . S
C1666 C1665 1.373 . S
C1667 C1651 1.377 . S
C1667 C1665 1.389 . S
C1667 C1668 1.524 . S
C1668 C1667 1.524 . S
C1668 C1669 1.397 . S
C1668 C1673 1.363 . S
C1669 H1640 0.950 . S
C1669 C1668 1.397 . S
C1669 C1670 1.334 . S
C1670 H1641 0.950 . S
C1670 C1669 1.334 . S
C1670 C1671 1.287 . S
C1671 C1670 1.287 . S
C1671 C1672 1.524 . S
C1671 H1674 0.999 . S
C1672 H1642 0.950 . S
C1672 C1671 1.524 . S
C1672 C1673 1.415 . S
C1673 H1643 0.950 . S
C1673 C1668 1.363 . S
C1673 C1672 1.415 . S
H1674 C1671 0.999 . S
H1675 C1656 0.913 . S
H1676 C1694 0.951 . S
H1677 C1696 0.951 . S
H1678 C1698 0.950 . S
H1679 C1699 0.950 . S
H1680 C1701 0.950 . S
H1681 C1704 0.950 . S
H1682 C1705 0.950 . S
H1683 C1707 0.950 . S
H1684 C1708 0.950 . S
H1685 C1709 0.951 . S
H1686 C1711 0.951 . S
H1687 C1713 0.950 . S
H1688 C1714 0.950 . S
H1689 C1716 0.950 . S
H1690 C1719 0.950 . S
H1691 C1720 0.950 . S
H1692 C1722 0.950 . S
H1693 C1723 0.950 . S
C1694 H1676 0.951 . S
C1694 C1695 1.366 . S
C1694 C1696 1.388 . S
C1695 C1694 1.366 . S
C1695 C1699 1.385 . S
C1696 H1677 0.951 . S
C1696 C1694 1.388 . S
C1696 C1697 1.366 . S
C1697 C1696 1.366 . S
C1697 C1698 1.414 . S
C1697 C1700 1.499 . S
C1698 H1678 0.950 . S
C1698 C1697 1.414 . S
C1698 C1699 1.374 . S
C1699 H1679 0.950 . S
C1699 C1695 1.385 . S
C1699 C1698 1.374 . S
C1700 C1697 1.499 . S
C1700 C1701 1.373 . S
C1700 C1702 1.389 . S
C1701 H1680 0.950 . S
C1701 C1700 1.373 . S
C1701 C1717 1.377 . S
C1702 C1700 1.389 . S
C1702 C1703 1.524 . S
C1702 C1716 1.377 . S
C1703 C1702 1.524 . S
C1703 C1704 1.397 . S
C1703 C1708 1.363 . S
C1704 H1681 0.950 . S
C1704 C1703 1.397 . S
C1704 C1705 1.334 . S
C1705 H1682 0.950 . S
C1705 C1704 1.334 . S
C1705 C1706 1.287 . S
C1706 C1705 1.287 . S
C1706 C1707 1.524 . S
C1706 H1725 0.913 . S
C1707 H1683 0.950 . S
C1707 C1706 1.524 . S
C1707 C1708 1.415 . S
C1708 H1684 0.950 . S
C1708 C1703 1.363 . S
C1708 C1707 1.415 . S
C1709 H1685 0.951 . S
C1709 C1710 1.366 . S
C1709 C1711 1.388 . S
C1710 C1709 1.366 . S
C1710 C1714 1.385 . S
C1711 H1686 0.951 . S
C1711 C1709 1.388 . S
C1711 C1712 1.366 . S
C1712 C1711 1.366 . S
C1712 C1713 1.414 . S
C1712 C1715 1.499 . S
C1713 H1687 0.950 . S
C1713 C1712 1.414 . S
C1713 C1714 1.374 . S
C1714 H1688 0.950 . S
C1714 C1710 1.385 . S
C1714 C1713 1.374 . S
C1715 C1712 1.499 . S
C1715 C1716 1.373 . S
C1715 C1717 1.389 . S
C1716 H1689 0.950 . S
C1716 C1702 1.377 . S
C1716 C1715 1.373 . S
C1717 C1701 1.377 . S
C1717 C1715 1.389 . S
C1717 C1718 1.524 . S
C1718 C1717 1.524 . S
C1718 C1719 1.397 . S
C1718 C1723 1.363 . S
C1719 H1690 0.950 . S
C1719 C1718 1.397 . S
C1719 C1720 1.334 . S
C1720 H1691 0.950 . S
C1720 C1719 1.334 . S
C1720 C1721 1.287 . S
C1721 C1720 1.287 . S
C1721 C1722 1.524 . S
C1721 H1724 0.999 . S
C1722 H1692 0.950 . S
C1722 C1721 1.524 . S
C1722 C1723 1.415 . S
C1723 H1693 0.950 . S
C1723 C1718 1.363 . S
C1723 C1722 1.415 . S
H1724 C1721 0.999 . S
H1725 C1706 0.913 . S
H1726 C1744 0.951 . S
H1727 C1746 0.951 . S
H1728 C1748 0.950 . S
H1729 C1749 0.950 . S
H1730 C1751 0.950 . S
H1731 C1754 0.950 . S
H1732 C1755 0.950 . S
H1733 C1757 0.950 . S
H1734 C1758 0.950 . S
H1735 C1759 0.951 . S
H1736 C1761 0.951 . S
H1737 C1763 0.950 . S
H1738 C1764 0.950 . S
H1739 C1766 0.950 . S
H1740 C1769 0.950 . S
H1741 C1770 0.950 . S
H1742 C1772 0.950 . S
H1743 C1773 0.950 . S
C1744 H1726 0.951 . S
C1744 C1745 1.366 . S
C1744 C1746 1.388 . S
C1745 C1744 1.366 . S
C1745 C1749 1.385 . S
C1746 H1727 0.951 . S
C1746 C1744 1.388 . S
C1746 C1747 1.366 . S
C1747 C1746 1.366 . S
C1747 C1748 1.414 . S
C1747 C1750 1.499 . S
C1748 H1728 0.950 . S
C1748 C1747 1.414 . S
C1748 C1749 1.374 . S
C1749 H1729 0.950 . S
C1749 C1745 1.385 . S
C1749 C1748 1.374 . S
C1750 C1747 1.499 . S
C1750 C1751 1.373 . S
C1750 C1752 1.389 . S
C1751 H1730 0.950 . S
C1751 C1750 1.373 . S
C1751 C1767 1.377 . S
C1752 C1750 1.389 . S
C1752 C1753 1.524 . S
C1752 C1766 1.377 . S
C1753 C1752 1.524 . S
C1753 C1754 1.397 . S
C1753 C1758 1.363 . S
C1754 H1731 0.950 . S
C1754 C1753 1.397 . S
C1754 C1755 1.334 . S
C1755 H1732 0.950 . S
C1755 C1754 1.334 . S
C1755 C1756 1.287 . S
C1756 C1755 1.287 . S
C1756 C1757 1.524 . S
C1756 H1775 0.913 . S
C1757 H1733 0.950 . S
C1757 C1756 1.524 . S
C1757 C1758 1.415 . S
C1758 H1734 0.950 . S
C1758 C1753 1.363 . S
C1758 C1757 1.415 . S
C1759 H1735 0.951 . S
C1759 C1760 1.366 . S
C1759 C1761 1.388 . S
C1760 C1759 1.366 . S
C1760 C1764 1.385 . S
C1761 H1736 0.951 . S
C1761 C1759 1.388 . S
C1761 C1762 1.366 . S
C1762 C1761 1.366 . S
C1762 C1763 1.414 . S
C1762 C1765 1.499 . S
C1763 H1737 0.950 . S
C1763 C1762 1.414 . S
C1763 C1764 1.374 . S
C1764 H1738 0.950 . S
C1764 C1760 1.385 . S
C1764 C1763 1.374 . S
C1765 C1762 1.499 . S
C1765 C1766 1.373 . S
C1765 C1767 1.389 . S
C1766 H1739 0.950 . S
C1766 C1752 1.377 . S
C1766 C1765 1.373 . S
C1767 C1751 1.377 . S
C1767 C1765 1.389 . S
C1767 C1768 1.524 . S
C1768 C1767 1.524 . S
C1768 C1769 1.397 . S
C1768 C1773 1.363 . S
C1769 H1740 0.950 . S
C1769 C1768 1.397 . S
C1769 C1770 1.334 . S
C1770 H1741 0.950 . S
C1770 C1769 1.334 . S
C1770 C1771 1.287 . S
C1771 C1770 1.287 . S
C1771 C1772 1.524 . S
C1771 H1774 0.999 . S
C1772 H1742 0.950 . S
C1772 C1771 1.524 . S
C1772 C1773 1.415 . S
C1773 H1743 0.950 . S
C1773 C1768 1.363 . S
C1773 C1772 1.415 . S
H1774 C1771 0.999 . S
H1775 C1756 0.913 . S
H1776 C1794 0.951 . S
H1777 C1796 0.951 . S
H1778 C1798 0.950 . S
H1779 C1799 0.950 . S
H1780 C1801 0.950 . S
H1781 C1804 0.950 . S
H1782 C1805 0.950 . S
H1783 C1807 0.950 . S
H1784 C1808 0.950 . S
H1785 C1809 0.951 . S
H1786 C1811 0.951 . S
H1787 C1813 0.950 . S
H1788 C1814 0.950 . S
H1789 C1816 0.950 . S
H1790 C1819 0.950 . S
H1791 C1820 0.950 . S
H1792 C1822 0.950 . S
H1793 C1823 0.950 . S
C1794 H1776 0.951 . S
C1794 C1795 1.366 . S
C1794 C1796 1.388 . S
C1795 C1794 1.366 . S
C1795 C1799 1.385 . S
C1796 H1777 0.951 . S
C1796 C1794 1.388 . S
C1796 C1797 1.366 . S
C1797 C1796 1.366 . S
C1797 C1798 1.414 . S
C1797 C1800 1.499 . S
C1798 H1778 0.950 . S
C1798 C1797 1.414 . S
C1798 C1799 1.374 . S
C1799 H1779 0.950 . S
C1799 C1795 1.385 . S
C1799 C1798 1.374 . S
C1800 C1797 1.499 . S
C1800 C1801 1.373 . S
C1800 C1802 1.389 . S
C1801 H1780 0.950 . S
C1801 C1800 1.373 . S
C1801 C1817 1.377 . S
C1802 C1800 1.389 . S
C1802 C1803 1.524 . S
C1802 C1816 1.377 . S
C1803 C1802 1.524 . S
C1803 C1804 1.397 . S
C1803 C1808 1.363 . S
C1804 H1781 0.950 . S
C1804 C1803 1.397 . S
C1804 C1805 1.334 . S
C1805 H1782 0.950 . S
C1805 C1804 1.334 . S
C1805 C1806 1.287 . S
C1806 C1805 1.287 . S
C1806 C1807 1.524 . S
C1806 H1825 0.913 . S
C1807 H1783 0.950 . S
C1807 C1806 1.524 . S
C1807 C1808 1.415 . S
C1808 H1784 0.950 . S
C1808 C1803 1.363 . S
C1808 C1807 1.415 . S
C1809 H1785 0.951 . S
C1809 C1810 1.366 . S
C1809 C1811 1.388 . S
C1810 C1809 1.366 . S
C1810 C1814 1.385 . S
C1811 H1786 0.951 . S
C1811 C1809 1.388 . S
C1811 C1812 1.366 . S
C1812 C1811 1.366 . S
C1812 C1813 1.414 . S
C1812 C1815 1.499 . S
C1813 H1787 0.950 . S
C1813 C1812 1.414 . S
C1813 C1814 1.374 . S
C1814 H1788 0.950 . S
C1814 C1810 1.385 . S
C1814 C1813 1.374 . S
C1815 C1812 1.499 . S
C1815 C1816 1.373 . S
C1815 C1817 1.389 . S
C1816 H1789 0.950 . S
C1816 C1802 1.377 . S
C1816 C1815 1.373 . S
C1817 C1801 1.377 . S
C1817 C1815 1.389 . S
C1817 C1818 1.524 . S
C1818 C1817 1.524 . S
C1818 C1819 1.397 . S
C1818 C1823 1.363 . S
C1819 H1790 0.950 . S
C1819 C1818 1.397 . S
C1819 C1820 1.334 . S
C1820 H1791 0.950 . S
C1820 C1819 1.334 . S
C1820 C1821 1.287 . S
C1821 C1820 1.287 . S
C1821 C1822 1.524 . S
C1821 H1824 0.999 . S
C1822 H1792 0.950 . S
C1822 C1821 1.524 . S
C1822 C1823 1.415 . S
C1823 H1793 0.950 . S
C1823 C1818 1.363 . S
C1823 C1822 1.415 . S
H1824 C1821 0.999 . S
H1825 C1806 0.913 . S
H1826 C1844 0.951 . S
H1827 C1846 0.951 . S
H1828 C1848 0.950 . S
H1829 C1849 0.950 . S
H1830 C1851 0.950 . S
H1831 C1854 0.950 . S
H1832 C1855 0.950 . S
H1833 C1857 0.950 . S
H1834 C1858 0.950 . S
H1835 C1859 0.951 . S
H1836 C1861 0.951 . S
H1837 C1863 0.950 . S
H1838 C1864 0.950 . S
H1839 C1866 0.950 . S
H1840 C1869 0.950 . S
H1841 C1870 0.950 . S
H1842 C1872 0.950 . S
H1843 C1873 0.950 . S
C1844 H1826 0.951 . S
C1844 C1845 1.366 . S
C1844 C1846 1.388 . S
C1845 C1844 1.366 . S
C1845 C1849 1.385 . S
C1846 H1827 0.951 . S
C1846 C1844 1.388 . S
C1846 C1847 1.366 . S
C1847 C1846 1.366 . S
C1847 C1848 1.414 . S
C1847 C1850 1.499 . S
C1848 H1828 0.950 . S
C1848 C1847 1.414 . S
C1848 C1849 1.374 . S
C1849 H1829 0.950 . S
C1849 C1845 1.385 . S
C1849 C1848 1.374 . S
C1850 C1847 1.499 . S
C1850 C1851 1.373 . S
C1850 C1852 1.389 . S
C1851 H1830 0.950 . S
C1851 C1850 1.373 . S
C1851 C1867 1.377 . S
C1852 C1850 1.389 . S
C1852 C1853 1.524 . S
C1852 C1866 1.377 1_455 S
C1853 C1852 1.524 . S
C1853 C1854 1.397 . S
C1853 C1858 1.363 . S
C1854 H1831 0.950 . S
C1854 C1853 1.397 . S
C1854 C1855 1.334 . S
C1855 H1832 0.950 . S
C1855 C1854 1.334 . S
C1855 C1856 1.287 . S
C1856 C1855 1.287 . S
C1856 C1857 1.524 . S
C1856 H1875 0.913 . S
C1857 H1833 0.950 . S
C1857 C1856 1.524 . S
C1857 C1858 1.415 . S
C1858 H1834 0.950 . S
C1858 C1853 1.363 . S
C1858 C1857 1.415 . S
C1859 H1835 0.951 . S
C1859 C1860 1.366 . S
C1859 C1861 1.388 . S
C1860 C1859 1.366 . S
C1860 C1864 1.385 . S
C1861 H1836 0.951 . S
C1861 C1859 1.388 . S
C1861 C1862 1.366 . S
C1862 C1861 1.366 . S
C1862 C1863 1.414 . S
C1862 C1865 1.499 . S
C1863 H1837 0.950 . S
C1863 C1862 1.414 . S
C1863 C1864 1.374 . S
C1864 H1838 0.950 . S
C1864 C1860 1.385 . S
C1864 C1863 1.374 . S
C1865 C1862 1.499 . S
C1865 C1866 1.373 . S
C1865 C1867 1.389 1_655 S
C1866 H1839 0.950 . S
C1866 C1852 1.377 1_655 S
C1866 C1865 1.373 . S
C1867 C1851 1.377 . S
C1867 C1865 1.389 1_455 S
C1867 C1868 1.524 . S
C1868 C1867 1.524 . S
C1868 C1869 1.397 . S
C1868 C1873 1.363 . S
C1869 H1840 0.950 . S
C1869 C1868 1.397 . S
C1869 C1870 1.334 . S
C1870 H1841 0.950 . S
C1870 C1869 1.334 . S
C1870 C1871 1.287 . S
C1871 C1870 1.287 . S
C1871 C1872 1.524 . S
C1871 H1874 0.999 . S
C1872 H1842 0.950 . S
C1872 C1871 1.524 . S
C1872 C1873 1.415 . S
C1873 H1843 0.950 . S
C1873 C1868 1.363 . S
C1873 C1872 1.415 . S
H1874 C1871 0.999 . S
H1875 C1856 0.913 . S
H1876 C1894 0.951 . S
H1877 C1896 0.951 . S
H1878 C1898 0.950 . S
H1879 C1899 0.950 . S
H1880 C1901 0.950 . S
H1881 C1904 0.950 . S
H1882 C1905 0.950 . S
H1883 C1907 0.950 . S
H1884 C1908 0.950 . S
H1885 C1909 0.951 . S
H1886 C1911 0.951 . S
H1887 C1913 0.950 . S
H1888 C1914 0.950 . S
H1889 C1916 0.950 . S
H1890 C1919 0.950 . S
H1891 C1920 0.950 . S
H1892 C1922 0.950 . S
H1893 C1923 0.950 . S
C1894 H1876 0.951 . S
C1894 C1895 1.366 . S
C1894 C1896 1.388 . S
C1895 C1894 1.366 . S
C1895 C1899 1.385 . S
C1896 H1877 0.951 . S
C1896 C1894 1.388 . S
C1896 C1897 1.366 . S
C1897 C1896 1.366 . S
C1897 C1898 1.414 . S
C1897 C1900 1.499 . S
C1898 H1878 0.950 . S
C1898 C1897 1.414 . S
C1898 C1899 1.374 . S
C1899 H1879 0.950 . S
C1899 C1895 1.385 . S
C1899 C1898 1.374 . S
C1900 C1897 1.499 . S
C1900 C1901 1.373 . S
C1900 C1902 1.389 . S
C1901 H1880 0.950 . S
C1901 C1900 1.373 . S
C1901 C1917 1.377 . S
C1902 C1900 1.389 . S
C1902 C1903 1.524 . S
C1902 C1916 1.377 . S
C1903 C1902 1.524 . S
C1903 C1904 1.397 . S
C1903 C1908 1.363 . S
C1904 H1881 0.950 . S
C1904 C1903 1.397 . S
C1904 C1905 1.334 . S
C1905 H1882 0.950 . S
C1905 C1904 1.334 . S
C1905 C1906 1.287 . S
C1906 C1905 1.287 . S
C1906 C1907 1.524 . S
C1906 H1925 0.913 . S
C1907 H1883 0.950 . S
C1907 C1906 1.524 . S
C1907 C1908 1.415 . S
C1908 H1884 0.950 . S
C1908 C1903 1.363 . S
C1908 C1907 1.415 . S
C1909 H1885 0.951 . S
C1909 C1910 1.366 . S
C1909 C1911 1.388 . S
C1910 C1909 1.366 . S
C1910 C1914 1.385 . S
C1911 H1886 0.951 . S
C1911 C1909 1.388 . S
C1911 C1912 1.366 . S
C1912 C1911 1.366 . S
C1912 C1913 1.414 . S
C1912 C1915 1.499 . S
C1913 H1887 0.950 . S
C1913 C1912 1.414 . S
C1913 C1914 1.374 . S
C1914 H1888 0.950 . S
C1914 C1910 1.385 . S
C1914 C1913 1.374 . S
C1915 C1912 1.499 . S
C1915 C1916 1.373 . S
C1915 C1917 1.389 . S
C1916 H1889 0.950 . S
C1916 C1902 1.377 . S
C1916 C1915 1.373 . S
C1917 C1901 1.377 . S
C1917 C1915 1.389 . S
C1917 C1918 1.524 . S
C1918 C1917 1.524 . S
C1918 C1919 1.397 . S
C1918 C1923 1.363 . S
C1919 H1890 0.950 . S
C1919 C1918 1.397 . S
C1919 C1920 1.334 . S
C1920 H1891 0.950 . S
C1920 C1919 1.334 . S
C1920 C1921 1.287 . S
C1921 C1920 1.287 . S
C1921 C1922 1.524 . S
C1921 H1924 0.999 . S
C1922 H1892 0.950 . S
C1922 C1921 1.524 . S
C1922 C1923 1.415 . S
C1923 H1893 0.950 . S
C1923 C1918 1.363 . S
C1923 C1922 1.415 . S
H1924 C1921 0.999 . S
H1925 C1906 0.913 . S
H1926 C1944 0.951 . S
H1927 C1946 0.951 . S
H1928 C1948 0.950 . S
H1929 C1949 0.950 . S
H1930 C1951 0.950 . S
H1931 C1954 0.950 . S
H1932 C1955 0.950 . S
H1933 C1957 0.950 . S
H1934 C1958 0.950 . S
H1935 C1959 0.951 . S
H1936 C1961 0.951 . S
H1937 C1963 0.950 . S
H1938 C1964 0.950 . S
H1939 C1966 0.950 . S
H1940 C1969 0.961 . S
H1941 C1970 0.957 . S
H1942 C1972 0.950 . S
H1943 C1973 0.950 . S
C1944 H1926 0.951 . S
C1944 C1945 1.366 . S
C1944 C1946 1.388 . S
C1945 C1944 1.366 . S
C1945 C1949 1.385 . S
C1946 H1927 0.951 . S
C1946 C1944 1.388 . S
C1946 C1947 1.366 . S
C1947 C1946 1.366 . S
C1947 C1948 1.414 . S
C1947 C1950 1.499 . S
C1948 H1928 0.950 . S
C1948 C1947 1.414 . S
C1948 C1949 1.374 . S
C1949 H1929 0.950 . S
C1949 C1945 1.385 . S
C1949 C1948 1.374 . S
C1950 C1947 1.499 . S
C1950 C1951 1.373 . S
C1950 C1952 1.389 . S
C1951 H1930 0.950 . S
C1951 C1950 1.373 . S
C1951 C1967 1.377 . S
C1952 C1950 1.389 . S
C1952 C1953 1.524 . S
C1952 C1966 1.377 1_655 S
C1953 C1952 1.524 . S
C1953 C1954 1.397 . S
C1953 C1958 1.363 . S
C1954 H1931 0.950 . S
C1954 C1953 1.397 . S
C1954 C1955 1.334 . S
C1955 H1932 0.950 . S
C1955 C1954 1.334 . S
C1955 C1956 1.287 . S
C1956 C1955 1.287 . S
C1956 C1957 1.524 . S
C1956 H1975 0.913 . S
C1957 H1933 0.950 . S
C1957 C1956 1.524 . S
C1957 C1958 1.415 . S
C1958 H1934 0.950 . S
C1958 C1953 1.363 . S
C1958 C1957 1.415 . S
C1959 H1935 0.951 . S
C1959 C1960 1.366 . S
C1959 C1961 1.388 . S
C1960 C1959 1.366 . S
C1960 C1964 1.385 . S
C1961 H1936 0.951 . S
C1961 C1959 1.388 . S
C1961 C1962 1.366 . S
C1962 C1961 1.366 . S
C1962 C1963 1.414 . S
C1962 C1965 1.499 . S
C1963 H1937 0.950 . S
C1963 C1962 1.414 . S
C1963 C1964 1.374 . S
C1964 H1938 0.950 . S
C1964 C1960 1.385 . S
C1964 C1963 1.374 . S
C1965 C1962 1.499 . S
C1965 C1966 1.373 . S
C1965 C1967 1.389 1_455 S
C1966 H1939 0.950 . S
C1966 C1952 1.377 1_455 S
C1966 C1965 1.373 . S
C1967 C1951 1.377 . S
C1967 C1965 1.389 1_655 S
C1967 C1968 1.524 1_655 S
C1968 C1967 1.524 1_455 S
C1968 C1969 1.392 1_455 S
C1968 C1973 1.363 . S
C1969 H1940 0.961 . S
C1969 C1968 1.392 1_655 S
C1969 C1970 1.328 1_655 S
C1970 H1941 0.957 . S
C1970 C1969 1.328 1_455 S
C1970 C1971 1.287 . S
C1971 C1970 1.287 . S
C1971 C1972 1.524 . S
C1971 H1974 0.999 . S
C1972 H1942 0.950 . S
C1972 C1971 1.524 . S
C1972 C1973 1.415 . S
C1973 H1943 0.950 . S
C1973 C1968 1.363 . S
C1973 C1972 1.415 . S
H1974 C1971 0.999 . S
H1975 C1956 0.913 . S
H1976 C1994 0.951 . S
H1977 C1996 0.951 . S
H1978 C1998 0.950 . S
H1979 C1999 0.950 . S
H1980 C2001 0.950 . S
H1981 C2004 0.950 . S
H1982 C2005 0.950 . S
H1983 C2007 0.950 . S
H1984 C2008 0.950 . S
H1985 C2009 0.951 . S
H1986 C2011 0.951 . S
H1987 C2013 0.950 . S
H1988 C2014 0.950 . S
H1989 C2016 0.950 . S
H1990 C2019 0.950 . S
H1991 C2020 0.950 . S
H1992 C2022 0.950 . S
H1993 C2023 0.950 . S
C1994 H1976 0.951 . S
C1994 C1995 1.366 . S
C1994 C1996 1.388 . S
C1995 C1994 1.366 . S
C1995 C1999 1.385 . S
C1996 H1977 0.951 . S
C1996 C1994 1.388 . S
C1996 C1997 1.366 . S
C1997 C1996 1.366 . S
C1997 C1998 1.414 . S
C1997 C2000 1.499 . S
C1998 H1978 0.950 . S
C1998 C1997 1.414 . S
C1998 C1999 1.374 . S
C1999 H1979 0.950 . S
C1999 C1995 1.385 . S
C1999 C1998 1.374 . S
C2000 C1997 1.499 . S
C2000 C2001 1.373 . S
C2000 C2002 1.389 . S
C2001 H1980 0.950 . S
C2001 C2000 1.373 . S
C2001 C2017 1.377 . S
C2002 C2000 1.389 . S
C2002 C2003 1.524 . S
C2002 C2016 1.377 . S
C2003 C2002 1.524 . S
C2003 C2004 1.397 . S
C2003 C2008 1.363 . S
C2004 H1981 0.950 . S
C2004 C2003 1.397 . S
C2004 C2005 1.334 . S
C2005 H1982 0.950 . S
C2005 C2004 1.334 . S
C2005 C2006 1.287 . S
C2006 C2005 1.287 . S
C2006 C2007 1.524 . S
C2006 H2025 0.913 . S
C2007 H1983 0.950 . S
C2007 C2006 1.524 . S
C2007 C2008 1.415 . S
C2008 H1984 0.950 . S
C2008 C2003 1.363 . S
C2008 C2007 1.415 . S
C2009 H1985 0.951 . S
C2009 C2010 1.366 . S
C2009 C2011 1.388 . S
C2010 C2009 1.366 . S
C2010 C2014 1.385 . S
C2011 H1986 0.951 . S
C2011 C2009 1.388 . S
C2011 C2012 1.366 . S
C2012 C2011 1.366 . S
C2012 C2013 1.414 . S
C2012 C2015 1.499 . S
C2013 H1987 0.950 . S
C2013 C2012 1.414 . S
C2013 C2014 1.374 . S
C2014 H1988 0.950 . S
C2014 C2010 1.385 . S
C2014 C2013 1.374 . S
C2015 C2012 1.499 . S
C2015 C2016 1.373 . S
C2015 C2017 1.389 . S
C2016 H1989 0.950 . S
C2016 C2002 1.377 . S
C2016 C2015 1.373 . S
C2017 C2001 1.377 . S
C2017 C2015 1.389 . S
C2017 C2018 1.524 . S
C2018 C2017 1.524 . S
C2018 C2019 1.397 . S
C2018 C2023 1.363 . S
C2019 H1990 0.950 . S
C2019 C2018 1.397 . S
C2019 C2020 1.334 . S
C2020 H1991 0.950 . S
C2020 C2019 1.334 . S
C2020 C2021 1.287 . S
C2021 C2020 1.287 . S
C2021 C2022 1.524 . S
C2021 H2024 0.999 . S
C2022 H1992 0.950 . S
C2022 C2021 1.524 . S
C2022 C2023 1.415 . S
C2023 H1993 0.950 . S
C2023 C2018 1.363 . S
C2023 C2022 1.415 . S
H2024 C2021 0.999 . S
H2025 C2006 0.913 . S
H2026 C2044 0.951 . S
H2027 C2046 0.951 . S
H2028 C2048 0.950 . S
H2029 C2049 0.950 . S
H2030 C2051 0.950 . S
H2031 C2054 0.950 . S
H2032 C2055 0.950 . S
H2033 C2057 0.950 . S
H2034 C2058 0.950 . S
H2035 C2059 0.951 . S
H2036 C2061 0.951 . S
H2037 C2063 0.950 . S
H2038 C2064 0.950 . S
H2039 C2066 0.950 . S
H2040 C2069 0.950 . S
H2041 C2070 0.950 . S
H2042 C2072 0.950 . S
H2043 C2073 0.950 . S
C2044 H2026 0.951 . S
C2044 C2045 1.366 . S
C2044 C2046 1.388 . S
C2045 C2044 1.366 . S
C2045 C2049 1.385 . S
C2046 H2027 0.951 . S
C2046 C2044 1.388 . S
C2046 C2047 1.366 . S
C2047 C2046 1.366 . S
C2047 C2048 1.414 . S
C2047 C2050 1.499 . S
C2048 H2028 0.950 . S
C2048 C2047 1.414 . S
C2048 C2049 1.374 . S
C2049 H2029 0.950 . S
C2049 C2045 1.385 . S
C2049 C2048 1.374 . S
C2050 C2047 1.499 . S
C2050 C2051 1.373 1_554 S
C2050 C2052 1.389 . S
C2051 H2030 0.950 . S
C2051 C2050 1.373 1_556 S
C2051 C2067 1.377 . S
C2052 C2050 1.389 . S
C2052 C2053 1.524 . S
C2052 C2066 1.377 1_554 S
C2053 C2052 1.524 . S
C2053 C2054 1.397 . S
C2053 C2058 1.363 . S
C2054 H2031 0.950 . S
C2054 C2053 1.397 . S
C2054 C2055 1.334 . S
C2055 H2032 0.950 . S
C2055 C2054 1.334 . S
C2055 C2056 1.287 . S
C2056 C2055 1.287 . S
C2056 C2057 1.524 . S
C2056 H2075 0.913 . S
C2057 H2033 0.950 . S
C2057 C2056 1.524 . S
C2057 C2058 1.415 . S
C2058 H2034 0.950 . S
C2058 C2053 1.363 . S
C2058 C2057 1.415 . S
C2059 H2035 0.951 . S
C2059 C2060 1.366 . S
C2059 C2061 1.388 . S
C2060 C2059 1.366 . S
C2060 C2064 1.385 . S
C2061 H2036 0.951 . S
C2061 C2059 1.388 . S
C2061 C2062 1.366 . S
C2062 C2061 1.366 . S
C2062 C2063 1.414 . S
C2062 C2065 1.499 . S
C2063 H2037 0.950 . S
C2063 C2062 1.414 . S
C2063 C2064 1.374 . S
C2064 H2038 0.950 . S
C2064 C2060 1.385 . S
C2064 C2063 1.374 . S
C2065 C2062 1.499 . S
C2065 C2066 1.373 . S
C2065 C2067 1.389 . S
C2066 H2039 0.950 . S
C2066 C2052 1.377 1_556 S
C2066 C2065 1.373 . S
C2067 C2051 1.377 . S
C2067 C2065 1.389 . S
C2067 C2068 1.524 . S
C2068 C2067 1.524 . S
C2068 C2069 1.397 . S
C2068 C2073 1.363 . S
C2069 H2040 0.950 . S
C2069 C2068 1.397 . S
C2069 C2070 1.334 . S
C2070 H2041 0.950 . S
C2070 C2069 1.334 . S
C2070 C2071 1.287 . S
C2071 C2070 1.287 . S
C2071 C2072 1.524 . S
C2071 H2074 0.999 . S
C2072 H2042 0.950 . S
C2072 C2071 1.524 . S
C2072 C2073 1.415 . S
C2073 H2043 0.950 . S
C2073 C2068 1.363 . S
C2073 C2072 1.415 . S
H2074 C2071 0.999 . S
H2075 C2056 0.913 . S
H2076 C2094 0.951 . S
H2077 C2096 0.951 . S
H2078 C2098 0.950 . S
H2079 C2099 0.950 . S
H2080 C2101 0.950 . S
H2081 C2104 0.950 . S
H2082 C2105 0.950 . S
H2083 C2107 0.950 . S
H2084 C2108 0.950 . S
H2085 C2109 0.951 . S
H2086 C2111 0.951 . S
H2087 C2113 0.950 . S
H2088 C2114 0.950 . S
H2089 C2116 0.950 . S
H2090 C2119 0.950 . S
H2091 C2120 0.950 . S
H2092 C2122 0.950 . S
H2093 C2123 0.950 . S
C2094 H2076 0.951 . S
C2094 C2095 1.366 . S
C2094 C2096 1.388 . S
C2095 C2094 1.366 . S
C2095 C2099 1.385 . S
C2096 H2077 0.951 . S
C2096 C2094 1.388 . S
C2096 C2097 1.366 . S
C2097 C2096 1.366 . S
C2097 C2098 1.414 . S
C2097 C2100 1.499 . S
C2098 H2078 0.950 . S
C2098 C2097 1.414 . S
C2098 C2099 1.374 . S
C2099 H2079 0.950 . S
C2099 C2095 1.385 . S
C2099 C2098 1.374 . S
C2100 C2097 1.499 . S
C2100 C2101 1.373 . S
C2100 C2102 1.389 . S
C2101 H2080 0.950 . S
C2101 C2100 1.373 . S
C2101 C2117 1.377 . S
C2102 C2100 1.389 . S
C2102 C2103 1.524 . S
C2102 C2116 1.377 . S
C2103 C2102 1.524 . S
C2103 C2104 1.397 . S
C2103 C2108 1.363 . S
C2104 H2081 0.950 . S
C2104 C2103 1.397 . S
C2104 C2105 1.334 . S
C2105 H2082 0.950 . S
C2105 C2104 1.334 . S
C2105 C2106 1.287 . S
C2106 C2105 1.287 . S
C2106 C2107 1.524 . S
C2106 H2125 0.913 . S
C2107 H2083 0.950 . S
C2107 C2106 1.524 . S
C2107 C2108 1.415 . S
C2108 H2084 0.950 . S
C2108 C2103 1.363 . S
C2108 C2107 1.415 . S
C2109 H2085 0.951 . S
C2109 C2110 1.366 . S
C2109 C2111 1.388 . S
C2110 C2109 1.366 . S
C2110 C2114 1.385 . S
C2111 H2086 0.951 . S
C2111 C2109 1.388 . S
C2111 C2112 1.366 . S
C2112 C2111 1.366 . S
C2112 C2113 1.414 . S
C2112 C2115 1.499 . S
C2113 H2087 0.950 . S
C2113 C2112 1.414 . S
C2113 C2114 1.374 . S
C2114 H2088 0.950 . S
C2114 C2110 1.385 . S
C2114 C2113 1.374 . S
C2115 C2112 1.499 . S
C2115 C2116 1.373 . S
C2115 C2117 1.389 . S
C2116 H2089 0.950 . S
C2116 C2102 1.377 . S
C2116 C2115 1.373 . S
C2117 C2101 1.377 . S
C2117 C2115 1.389 . S
C2117 C2118 1.524 . S
C2118 C2117 1.524 . S
C2118 C2119 1.397 . S
C2118 C2123 1.363 . S
C2119 H2090 0.950 . S
C2119 C2118 1.397 . S
C2119 C2120 1.334 . S
C2120 H2091 0.950 . S
C2120 C2119 1.334 . S
C2120 C2121 1.287 . S
C2121 C2120 1.287 . S
C2121 C2122 1.524 . S
C2121 H2124 0.999 . S
C2122 H2092 0.950 . S
C2122 C2121 1.524 . S
C2122 C2123 1.415 . S
C2123 H2093 0.950 . S
C2123 C2118 1.363 . S
C2123 C2122 1.415 . S
H2124 C2121 0.999 . S
H2125 C2106 0.913 . S
H2126 C2144 0.951 . S
H2127 C2146 0.951 . S
H2128 C2148 0.950 . S
H2129 C2149 0.950 . S
H2130 C2151 0.950 . S
H2131 C2154 0.950 . S
H2132 C2155 0.971 . S
H2133 C2157 0.950 . S
H2134 C2158 0.950 . S
H2135 C2159 0.951 . S
H2136 C2161 0.951 . S
H2137 C2163 0.950 . S
H2138 C2164 0.950 . S
H2139 C2166 0.950 . S
H2140 C2169 0.964 . S
H2141 C2170 0.950 1_655 S
H2142 C2172 0.950 . S
H2143 C2173 0.950 . S
C2144 H2126 0.951 . S
C2144 C2145 1.366 . S
C2144 C2146 1.388 . S
C2145 C2144 1.366 . S
C2145 C2149 1.385 . S
C2146 H2127 0.951 . S
C2146 C2144 1.388 . S
C2146 C2147 1.366 . S
C2147 C2146 1.366 . S
C2147 C2148 1.414 . S
C2147 C2150 1.499 . S
C2148 H2128 0.950 . S
C2148 C2147 1.414 . S
C2148 C2149 1.374 . S
C2149 H2129 0.950 . S
C2149 C2145 1.385 . S
C2149 C2148 1.374 . S
C2150 C2147 1.499 . S
C2150 C2151 1.373 . S
C2150 C2152 1.389 . S
C2151 H2130 0.950 . S
C2151 C2150 1.373 . S
C2151 C2167 1.377 . S
C2152 C2150 1.389 . S
C2152 C2153 1.524 1_554 S
C2152 C2166 1.377 1_554 S
C2153 C2152 1.524 1_556 S
C2153 C2154 1.397 1_556 S
C2153 C2158 1.363 . S
C2154 H2131 0.950 . S
C2154 C2153 1.397 1_554 S
C2154 C2155 1.350 . S
C2155 H2132 0.971 . S
C2155 C2154 1.350 . S
C2155 C2156 1.252 1_554 S
C2156 C2155 1.252 1_556 S
C2156 C2157 1.524 . S
C2156 H2175 0.913 . S
C2157 H2133 0.950 . S
C2157 C2156 1.524 . S
C2157 C2158 1.415 . S
C2158 H2134 0.950 . S
C2158 C2153 1.363 . S
C2158 C2157 1.415 . S
C2159 H2135 0.951 . S
C2159 C2160 1.366 . S
C2159 C2161 1.388 . S
C2160 C2159 1.366 . S
C2160 C2164 1.385 . S
C2161 H2136 0.951 . S
C2161 C2159 1.388 . S
C2161 C2162 1.366 . S
C2162 C2161 1.366 . S
C2162 C2163 1.414 . S
C2162 C2165 1.499 . S
C2163 H2137 0.950 . S
C2163 C2162 1.414 . S
C2163 C2164 1.374 . S
C2164 H2138 0.950 . S
C2164 C2160 1.385 . S
C2164 C2163 1.374 . S
C2165 C2162 1.499 . S
C2165 C2166 1.373 . S
C2165 C2167 1.389 1_556 S
C2166 H2139 0.950 . S
C2166 C2152 1.377 1_556 S
C2166 C2165 1.373 . S
C2167 C2151 1.377 . S
C2167 C2165 1.389 1_554 S
C2167 C2168 1.524 . S
C2168 C2167 1.524 . S
C2168 C2169 1.397 . S
C2168 C2173 1.363 . S
C2169 H2140 0.964 . S
C2169 C2168 1.397 . S
C2169 C2170 1.334 . S
C2170 H2141 0.950 1_455 S
C2170 C2169 1.334 . S
C2170 C2171 1.287 . S
C2171 C2170 1.287 . S
C2171 C2172 1.524 . S
C2171 H2174 1.004 . S
C2172 H2142 0.950 . S
C2172 C2171 1.524 . S
C2172 C2173 1.415 . S
C2173 H2143 0.950 . S
C2173 C2168 1.363 . S
C2173 C2172 1.415 . S
H2174 C2171 1.004 . S
H2175 C2156 0.913 . S
H2176 C2194 0.951 . S
H2177 C2196 0.951 . S
H2178 C2198 0.950 . S
H2179 C2199 0.950 . S
H2180 C2201 0.950 . S
H2181 C2204 0.950 . S
H2182 C2205 0.950 . S
H2183 C2207 0.950 . S
H2184 C2208 0.950 . S
H2185 C2209 0.951 . S
H2186 C2211 0.951 . S
H2187 C2213 0.950 . S
H2188 C2214 0.950 . S
H2189 C2216 0.950 . S
H2190 C2219 0.950 . S
H2191 C2220 0.950 . S
H2192 C2222 0.950 . S
H2193 C2223 0.950 . S
C2194 H2176 0.951 . S
C2194 C2195 1.366 . S
C2194 C2196 1.388 . S
C2195 C2194 1.366 . S
C2195 C2199 1.385 . S
C2196 H2177 0.951 . S
C2196 C2194 1.388 . S
C2196 C2197 1.366 . S
C2197 C2196 1.366 . S
C2197 C2198 1.414 . S
C2197 C2200 1.499 . S
C2198 H2178 0.950 . S
C2198 C2197 1.414 . S
C2198 C2199 1.374 . S
C2199 H2179 0.950 . S
C2199 C2195 1.385 . S
C2199 C2198 1.374 . S
C2200 C2197 1.499 . S
C2200 C2201 1.373 . S
C2200 C2202 1.389 . S
C2201 H2180 0.950 . S
C2201 C2200 1.373 . S
C2201 C2217 1.377 . S
C2202 C2200 1.389 . S
C2202 C2203 1.524 . S
C2202 C2216 1.377 . S
C2203 C2202 1.524 . S
C2203 C2204 1.397 . S
C2203 C2208 1.363 . S
C2204 H2181 0.950 . S
C2204 C2203 1.397 . S
C2204 C2205 1.334 . S
C2205 H2182 0.950 . S
C2205 C2204 1.334 . S
C2205 C2206 1.287 . S
C2206 C2205 1.287 . S
C2206 C2207 1.524 . S
C2206 H2225 0.913 . S
C2207 H2183 0.950 . S
C2207 C2206 1.524 . S
C2207 C2208 1.415 . S
C2208 H2184 0.950 . S
C2208 C2203 1.363 . S
C2208 C2207 1.415 . S
C2209 H2185 0.951 . S
C2209 C2210 1.366 . S
C2209 C2211 1.388 . S
C2210 C2209 1.366 . S
C2210 C2214 1.385 . S
C2211 H2186 0.951 . S
C2211 C2209 1.388 . S
C2211 C2212 1.366 . S
C2212 C2211 1.366 . S
C2212 C2213 1.414 . S
C2212 C2215 1.499 . S
C2213 H2187 0.950 . S
C2213 C2212 1.414 . S
C2213 C2214 1.374 . S
C2214 H2188 0.950 . S
C2214 C2210 1.385 . S
C2214 C2213 1.374 . S
C2215 C2212 1.499 . S
C2215 C2216 1.373 . S
C2215 C2217 1.389 . S
C2216 H2189 0.950 . S
C2216 C2202 1.377 . S
C2216 C2215 1.373 . S
C2217 C2201 1.377 . S
C2217 C2215 1.389 . S
C2217 C2218 1.524 . S
C2218 C2217 1.524 . S
C2218 C2219 1.397 . S
C2218 C2223 1.363 . S
C2219 H2190 0.950 . S
C2219 C2218 1.397 . S
C2219 C2220 1.334 . S
C2220 H2191 0.950 . S
C2220 C2219 1.334 . S
C2220 C2221 1.287 . S
C2221 C2220 1.287 . S
C2221 C2222 1.524 . S
C2221 H2224 0.999 . S
C2222 H2192 0.950 . S
C2222 C2221 1.524 . S
C2222 C2223 1.415 . S
C2223 H2193 0.950 . S
C2223 C2218 1.363 . S
C2223 C2222 1.415 . S
H2224 C2221 0.999 . S
H2225 C2206 0.913 . S
H2226 C2244 0.951 . S
H2227 C2246 0.951 . S
H2228 C2248 0.950 . S
H2229 C2249 0.950 . S
H2230 C2251 0.950 . S
H2231 C2254 0.950 . S
H2232 C2255 0.950 . S
H2233 C2257 0.950 . S
H2234 C2258 0.925 1_554 S
H2235 C2259 0.951 . S
H2236 C2261 0.951 . S
H2237 C2263 0.950 . S
H2238 C2264 0.950 . S
H2239 C2266 0.950 . S
H2240 C2269 0.950 . S
H2241 C2270 0.950 . S
H2242 C2272 0.950 . S
H2243 C2273 0.948 1_556 S
C2244 H2226 0.951 . S
C2244 C2245 1.366 . S
C2244 C2246 1.388 . S
C2245 C2244 1.366 . S
C2245 C2249 1.385 . S
C2246 H2227 0.951 . S
C2246 C2244 1.388 . S
C2246 C2247 1.366 . S
C2247 C2246 1.366 . S
C2247 C2248 1.414 . S
C2247 C2250 1.499 . S
C2248 H2228 0.950 . S
C2248 C2247 1.414 . S
C2248 C2249 1.374 . S
C2249 H2229 0.950 . S
C2249 C2245 1.385 . S
C2249 C2248 1.374 . S
C2250 C2247 1.499 . S
C2250 C2251 1.373 . S
C2250 C2252 1.389 . S
C2251 H2230 0.950 . S
C2251 C2250 1.373 . S
C2251 C2267 1.377 1_556 S
C2252 C2250 1.389 . S
C2252 C2253 1.524 . S
C2252 C2266 1.377 1_556 S
C2253 C2252 1.524 . S
C2253 C2254 1.397 . S
C2253 C2258 1.363 . S
C2254 H2231 0.950 . S
C2254 C2253 1.397 . S
C2254 C2255 1.334 . S
C2255 H2232 0.950 . S
C2255 C2254 1.334 . S
C2255 C2256 1.287 . S
C2256 C2255 1.287 . S
C2256 C2257 1.524 . S
C2256 H2275 0.913 . S
C2257 H2233 0.950 . S
C2257 C2256 1.524 . S
C2257 C2258 1.415 . S
C2258 H2234 0.925 1_556 S
C2258 C2253 1.363 . S
C2258 C2257 1.415 . S
C2259 H2235 0.951 . S
C2259 C2260 1.366 . S
C2259 C2261 1.388 . S
C2260 C2259 1.366 . S
C2260 C2264 1.385 . S
C2261 H2236 0.951 . S
C2261 C2259 1.388 . S
C2261 C2262 1.366 . S
C2262 C2261 1.366 . S
C2262 C2263 1.414 . S
C2262 C2265 1.499 . S
C2263 H2237 0.950 . S
C2263 C2262 1.414 . S
C2263 C2264 1.374 . S
C2264 H2238 0.950 . S
C2264 C2260 1.385 . S
C2264 C2263 1.374 . S
C2265 C2262 1.499 . S
C2265 C2266 1.373 . S
C2265 C2267 1.389 . S
C2266 H2239 0.950 . S
C2266 C2252 1.377 1_554 S
C2266 C2265 1.373 . S
C2267 C2251 1.377 1_554 S
C2267 C2265 1.389 . S
C2267 C2268 1.524 . S
C2268 C2267 1.524 . S
C2268 C2269 1.397 . S
C2268 C2273 1.363 . S
C2269 H2240 0.950 . S
C2269 C2268 1.397 . S
C2269 C2270 1.334 . S
C2270 H2241 0.950 . S
C2270 C2269 1.334 . S
C2270 C2271 1.287 . S
C2271 C2270 1.287 . S
C2271 C2272 1.524 . S
C2271 H2274 0.999 . S
C2272 H2242 0.950 . S
C2272 C2271 1.524 . S
C2272 C2273 1.415 . S
C2273 H2243 0.948 1_554 S
C2273 C2268 1.363 . S
C2273 C2272 1.415 . S
H2274 C2271 0.999 . S
H2275 C2256 0.913 . S
H2276 C2294 0.951 . S
H2277 C2296 0.951 . S
H2278 C2298 0.950 . S
H2279 C2299 0.950 . S
H2280 C2301 0.950 . S
H2281 C2304 0.950 . S
H2282 C2305 0.950 . S
H2283 C2307 0.950 . S
H2284 C2308 0.950 . S
H2285 C2309 0.951 . S
H2286 C2311 0.951 . S
H2287 C2313 0.950 . S
H2288 C2314 0.950 . S
H2289 C2316 0.950 . S
H2290 C2319 0.950 . S
H2291 C2320 0.950 . S
H2292 C2322 0.950 . S
H2293 C2323 0.950 . S
C2294 H2276 0.951 . S
C2294 C2295 1.366 . S
C2294 C2296 1.388 . S
C2295 C2294 1.366 . S
C2295 C2299 1.385 . S
C2296 H2277 0.951 . S
C2296 C2294 1.388 . S
C2296 C2297 1.366 . S
C2297 C2296 1.366 . S
C2297 C2298 1.414 . S
C2297 C2300 1.499 . S
C2298 H2278 0.950 . S
C2298 C2297 1.414 . S
C2298 C2299 1.374 . S
C2299 H2279 0.950 . S
C2299 C2295 1.385 . S
C2299 C2298 1.374 . S
C2300 C2297 1.499 . S
C2300 C2301 1.373 . S
C2300 C2302 1.389 . S
C2301 H2280 0.950 . S
C2301 C2300 1.373 . S
C2301 C2317 1.377 . S
C2302 C2300 1.389 . S
C2302 C2303 1.524 . S
C2302 C2316 1.377 . S
C2303 C2302 1.524 . S
C2303 C2304 1.397 . S
C2303 C2308 1.363 . S
C2304 H2281 0.950 . S
C2304 C2303 1.397 . S
C2304 C2305 1.334 . S
C2305 H2282 0.950 . S
C2305 C2304 1.334 . S
C2305 C2306 1.287 . S
C2306 C2305 1.287 . S
C2306 C2307 1.524 . S
C2306 H2325 0.913 . S
C2307 H2283 0.950 . S
C2307 C2306 1.524 . S
C2307 C2308 1.415 . S
C2308 H2284 0.950 . S
C2308 C2303 1.363 . S
C2308 C2307 1.415 . S
C2309 H2285 0.951 . S
C2309 C2310 1.366 . S
C2309 C2311 1.388 . S
C2310 C2309 1.366 . S
C2310 C2314 1.385 . S
C2311 H2286 0.951 . S
C2311 C2309 1.388 . S
C2311 C2312 1.366 . S
C2312 C2311 1.366 . S
C2312 C2313 1.414 . S
C2312 C2315 1.499 . S
C2313 H2287 0.950 . S
C2313 C2312 1.414 . S
C2313 C2314 1.374 . S
C2314 H2288 0.950 . S
C2314 C2310 1.385 . S
C2314 C2313 1.374 . S
C2315 C2312 1.499 . S
C2315 C2316 1.373 . S
C2315 C2317 1.389 . S
C2316 H2289 0.950 . S
C2316 C2302 1.377 . S
C2316 C2315 1.373 . S
C2317 C2301 1.377 . S
C2317 C2315 1.389 . S
C2317 C2318 1.524 . S
C2318 C2317 1.524 . S
C2318 C2319 1.397 . S
C2318 C2323 1.363 . S
C2319 H2290 0.950 . S
C2319 C2318 1.397 . S
C2319 C2320 1.334 . S
C2320 H2291 0.950 . S
C2320 C2319 1.334 . S
C2320 C2321 1.287 . S
C2321 C2320 1.287 . S
C2321 C2322 1.524 . S
C2321 H2324 0.999 . S
C2322 H2292 0.950 . S
C2322 C2321 1.524 . S
C2322 C2323 1.415 . S
C2323 H2293 0.950 . S
C2323 C2318 1.363 . S
C2323 C2322 1.415 . S
H2324 C2321 0.999 . S
H2325 C2306 0.913 . S
H2326 C2344 0.951 . S
H2327 C2346 0.951 . S
H2328 C2348 0.909 1_554 S
H2329 C2349 0.950 . S
H2330 C2351 0.950 . S
H2331 C2354 0.950 . S
H2332 C2355 0.950 . S
H2333 C2357 0.950 . S
H2334 C2358 0.950 . S
H2335 C2359 0.951 . S
H2336 C2361 0.951 . S
H2337 C2363 0.950 . S
H2338 C2364 0.950 . S
H2339 C2366 0.950 . S
H2340 C2369 0.950 . S
H2341 C2370 0.950 . S
H2342 C2372 0.950 . S
H2343 C2373 0.950 . S
C2344 H2326 0.951 . S
C2344 C2345 1.366 . S
C2344 C2346 1.388 . S
C2345 C2344 1.366 . S
C2345 C2349 1.385 . S
C2346 H2327 0.951 . S
C2346 C2344 1.388 . S
C2346 C2347 1.366 . S
C2347 C2346 1.366 . S
C2347 C2348 1.422 . S
C2347 C2350 1.499 1_556 S
C2348 H2328 0.909 1_556 S
C2348 C2347 1.422 . S
C2348 C2349 1.408 . S
C2349 H2329 0.950 . S
C2349 C2345 1.385 . S
C2349 C2348 1.408 . S
C2350 C2347 1.499 1_554 S
C2350 C2351 1.373 . S
C2350 C2352 1.389 . S
C2351 H2330 0.950 . S
C2351 C2350 1.373 . S
C2351 C2367 1.377 . S
C2352 C2350 1.389 . S
C2352 C2353 1.524 1_554 S
C2352 C2366 1.377 . S
C2353 C2352 1.524 1_556 S
C2353 C2354 1.397 . S
C2353 C2358 1.363 . S
C2354 H2331 0.950 . S
C2354 C2353 1.397 . S
C2354 C2355 1.334 . S
C2355 H2332 0.950 . S
C2355 C2354 1.334 . S
C2355 C2356 1.287 . S
C2356 C2355 1.287 . S
C2356 C2357 1.524 . S
C2356 H2375 0.913 . S
C2357 H2333 0.950 . S
C2357 C2356 1.524 . S
C2357 C2358 1.415 . S
C2358 H2334 0.950 . S
C2358 C2353 1.363 . S
C2358 C2357 1.415 . S
C2359 H2335 0.951 . S
C2359 C2360 1.366 . S
C2359 C2361 1.388 . S
C2360 C2359 1.366 . S
C2360 C2364 1.385 . S
C2361 H2336 0.951 . S
C2361 C2359 1.388 . S
C2361 C2362 1.366 . S
C2362 C2361 1.366 . S
C2362 C2363 1.414 . S
C2362 C2365 1.499 . S
C2363 H2337 0.950 . S
C2363 C2362 1.414 . S
C2363 C2364 1.374 . S
C2364 H2338 0.950 . S
C2364 C2360 1.385 . S
C2364 C2363 1.374 . S
C2365 C2362 1.499 . S
C2365 C2366 1.373 . S
C2365 C2367 1.389 . S
C2366 H2339 0.950 . S
C2366 C2352 1.377 . S
C2366 C2365 1.373 . S
C2367 C2351 1.377 . S
C2367 C2365 1.389 . S
C2367 C2368 1.524 . S
C2368 C2367 1.524 . S
C2368 C2369 1.397 . S
C2368 C2373 1.363 . S
C2369 H2340 0.950 . S
C2369 C2368 1.397 . S
C2369 C2370 1.334 . S
C2370 H2341 0.950 . S
C2370 C2369 1.334 . S
C2370 C2371 1.287 . S
C2371 C2370 1.287 . S
C2371 C2372 1.524 . S
C2371 H2374 0.999 . S
C2372 H2342 0.950 . S
C2372 C2371 1.524 . S
C2372 C2373 1.415 . S
C2373 H2343 0.950 . S
C2373 C2368 1.363 . S
C2373 C2372 1.415 . S
H2374 C2371 0.999 . S
H2375 C2356 0.913 . S
H2376 C2394 0.951 . S
H2377 C2396 0.951 . S
H2378 C2398 0.950 . S
H2379 C2399 0.950 . S
H2380 C2401 0.950 . S
H2381 C2404 0.950 . S
H2382 C2405 0.950 . S
H2383 C2407 0.950 . S
H2384 C2408 0.950 . S
H2385 C2409 0.951 . S
H2386 C2411 0.951 . S
H2387 C2413 0.950 . S
H2388 C2414 0.950 . S
H2389 C2416 0.950 . S
H2390 C2419 0.950 . S
H2391 C2420 0.950 . S
H2392 C2422 0.950 . S
H2393 C2423 0.950 . S
C2394 H2376 0.951 . S
C2394 C2395 1.366 . S
C2394 C2396 1.388 . S
C2395 C2394 1.366 . S
C2395 C2399 1.385 . S
C2396 H2377 0.951 . S
C2396 C2394 1.388 . S
C2396 C2397 1.366 . S
C2397 C2396 1.366 . S
C2397 C2398 1.414 . S
C2397 C2400 1.499 . S
C2398 H2378 0.950 . S
C2398 C2397 1.414 . S
C2398 C2399 1.374 . S
C2399 H2379 0.950 . S
C2399 C2395 1.385 . S
C2399 C2398 1.374 . S
C2400 C2397 1.499 . S
C2400 C2401 1.373 . S
C2400 C2402 1.389 . S
C2401 H2380 0.950 . S
C2401 C2400 1.373 . S
C2401 C2417 1.377 . S
C2402 C2400 1.389 . S
C2402 C2403 1.524 . S
C2402 C2416 1.377 . S
C2403 C2402 1.524 . S
C2403 C2404 1.397 . S
C2403 C2408 1.363 . S
C2404 H2381 0.950 . S
C2404 C2403 1.397 . S
C2404 C2405 1.334 . S
C2405 H2382 0.950 . S
C2405 C2404 1.334 . S
C2405 C2406 1.287 . S
C2406 C2405 1.287 . S
C2406 C2407 1.524 . S
C2406 H2425 0.913 . S
C2407 H2383 0.950 . S
C2407 C2406 1.524 . S
C2407 C2408 1.415 . S
C2408 H2384 0.950 . S
C2408 C2403 1.363 . S
C2408 C2407 1.415 . S
C2409 H2385 0.951 . S
C2409 C2410 1.366 . S
C2409 C2411 1.388 . S
C2410 C2409 1.366 . S
C2410 C2414 1.385 . S
C2411 H2386 0.951 . S
C2411 C2409 1.388 . S
C2411 C2412 1.366 . S
C2412 C2411 1.366 . S
C2412 C2413 1.414 . S
C2412 C2415 1.499 . S
C2413 H2387 0.950 . S
C2413 C2412 1.414 . S
C2413 C2414 1.374 . S
C2414 H2388 0.950 . S
C2414 C2410 1.385 . S
C2414 C2413 1.374 . S
C2415 C2412 1.499 . S
C2415 C2416 1.373 . S
C2415 C2417 1.389 . S
C2416 H2389 0.950 . S
C2416 C2402 1.377 . S
C2416 C2415 1.373 . S
C2417 C2401 1.377 . S
C2417 C2415 1.389 . S
C2417 C2418 1.524 . S
C2418 C2417 1.524 . S
C2418 C2419 1.397 . S
C2418 C2423 1.363 . S
C2419 H2390 0.950 . S
C2419 C2418 1.397 . S
C2419 C2420 1.334 . S
C2420 H2391 0.950 . S
C2420 C2419 1.334 . S
C2420 C2421 1.287 . S
C2421 C2420 1.287 . S
C2421 C2422 1.524 . S
C2421 H2424 0.999 . S
C2422 H2392 0.950 . S
C2422 C2421 1.524 . S
C2422 C2423 1.415 . S
C2423 H2393 0.950 . S
C2423 C2418 1.363 . S
C2423 C2422 1.415 . S
H2424 C2421 0.999 . S
H2425 C2406 0.913 . S
H2426 C2444 0.951 . S
H2427 C2446 0.951 . S
H2428 C2448 0.950 . S
H2429 C2449 0.950 . S
H2430 C2451 0.950 . S
H2431 C2454 0.950 . S
H2432 C2455 0.950 . S
H2433 C2457 0.950 . S
H2434 C2458 0.950 . S
H2435 C2459 0.951 . S
H2436 C2461 0.951 . S
H2437 C2463 0.950 . S
H2438 C2464 0.950 . S
H2439 C2466 0.950 . S
H2440 C2469 0.950 . S
H2441 C2470 0.950 . S
H2442 C2472 0.950 . S
H2443 C2473 0.950 . S
C2444 H2426 0.951 . S
C2444 C2445 1.366 . S
C2444 C2446 1.388 . S
C2445 C2444 1.366 . S
C2445 C2449 1.385 . S
C2446 H2427 0.951 . S
C2446 C2444 1.388 . S
C2446 C2447 1.366 . S
C2447 C2446 1.366 . S
C2447 C2448 1.414 . S
C2447 C2450 1.499 . S
C2448 H2428 0.950 . S
C2448 C2447 1.414 . S
C2448 C2449 1.374 . S
C2449 H2429 0.950 . S
C2449 C2445 1.385 . S
C2449 C2448 1.374 . S
C2450 C2447 1.499 . S
C2450 C2451 1.373 . S
C2450 C2452 1.389 . S
C2451 H2430 0.950 . S
C2451 C2450 1.373 . S
C2451 C2467 1.377 . S
C2452 C2450 1.389 . S
C2452 C2453 1.524 . S
C2452 C2466 1.377 . S
C2453 C2452 1.524 . S
C2453 C2454 1.397 . S
C2453 C2458 1.363 . S
C2454 H2431 0.950 . S
C2454 C2453 1.397 . S
C2454 C2455 1.334 . S
C2455 H2432 0.950 . S
C2455 C2454 1.334 . S
C2455 C2456 1.287 . S
C2456 C2455 1.287 . S
C2456 C2457 1.524 . S
C2456 H2475 0.913 . S
C2457 H2433 0.950 . S
C2457 C2456 1.524 . S
C2457 C2458 1.415 . S
C2458 H2434 0.950 . S
C2458 C2453 1.363 . S
C2458 C2457 1.415 . S
C2459 H2435 0.951 . S
C2459 C2460 1.366 . S
C2459 C2461 1.388 . S
C2460 C2459 1.366 . S
C2460 C2464 1.385 . S
C2461 H2436 0.951 . S
C2461 C2459 1.388 . S
C2461 C2462 1.366 . S
C2462 C2461 1.366 . S
C2462 C2463 1.414 . S
C2462 C2465 1.499 . S
C2463 H2437 0.950 . S
C2463 C2462 1.414 . S
C2463 C2464 1.374 . S
C2464 H2438 0.950 . S
C2464 C2460 1.385 . S
C2464 C2463 1.374 . S
C2465 C2462 1.499 . S
C2465 C2466 1.373 . S
C2465 C2467 1.389 . S
C2466 H2439 0.950 . S
C2466 C2452 1.377 . S
C2466 C2465 1.373 . S
C2467 C2451 1.377 . S
C2467 C2465 1.389 . S
C2467 C2468 1.524 . S
C2468 C2467 1.524 . S
C2468 C2469 1.397 . S
C2468 C2473 1.363 . S
C2469 H2440 0.950 . S
C2469 C2468 1.397 . S
C2469 C2470 1.334 . S
C2470 H2441 0.950 . S
C2470 C2469 1.334 . S
C2470 C2471 1.287 . S
C2471 C2470 1.287 . S
C2471 C2472 1.524 . S
C2471 H2474 0.999 . S
C2472 H2442 0.950 . S
C2472 C2471 1.524 . S
C2472 C2473 1.415 . S
C2473 H2443 0.950 . S
C2473 C2468 1.363 . S
C2473 C2472 1.415 . S
H2474 C2471 0.999 . S
H2475 C2456 0.913 . S
H2476 C2494 0.951 . S
H2477 C2496 0.951 . S
H2478 C2498 0.950 . S
H2479 C2499 0.950 . S
H2480 C2501 0.950 . S
H2481 C2504 0.950 . S
H2482 C2505 0.950 . S
H2483 C2507 0.950 . S
H2484 C2508 0.950 . S
H2485 C2509 0.951 . S
H2486 C2511 0.951 . S
H2487 C2513 0.950 . S
H2488 C2514 0.950 . S
H2489 C2516 0.950 . S
H2490 C2519 0.950 . S
H2491 C2520 0.950 . S
H2492 C2522 0.950 . S
H2493 C2523 0.950 . S
C2494 H2476 0.951 . S
C2494 C2495 1.366 . S
C2494 C2496 1.388 . S
C2495 C2494 1.366 . S
C2495 C2499 1.385 . S
C2496 H2477 0.951 . S
C2496 C2494 1.388 . S
C2496 C2497 1.366 . S
C2497 C2496 1.366 . S
C2497 C2498 1.414 . S
C2497 C2500 1.499 . S
C2498 H2478 0.950 . S
C2498 C2497 1.414 . S
C2498 C2499 1.374 . S
C2499 H2479 0.950 . S
C2499 C2495 1.385 . S
C2499 C2498 1.374 . S
C2500 C2497 1.499 . S
C2500 C2501 1.373 . S
C2500 C2502 1.389 . S
C2501 H2480 0.950 . S
C2501 C2500 1.373 . S
C2501 C2517 1.377 . S
C2502 C2500 1.389 . S
C2502 C2503 1.524 . S
C2502 C2516 1.377 . S
C2503 C2502 1.524 . S
C2503 C2504 1.397 . S
C2503 C2508 1.363 . S
C2504 H2481 0.950 . S
C2504 C2503 1.397 . S
C2504 C2505 1.334 . S
C2505 H2482 0.950 . S
C2505 C2504 1.334 . S
C2505 C2506 1.287 . S
C2506 C2505 1.287 . S
C2506 C2507 1.524 . S
C2506 H2525 0.913 . S
C2507 H2483 0.950 . S
C2507 C2506 1.524 . S
C2507 C2508 1.415 . S
C2508 H2484 0.950 . S
C2508 C2503 1.363 . S
C2508 C2507 1.415 . S
C2509 H2485 0.951 . S
C2509 C2510 1.366 . S
C2509 C2511 1.388 . S
C2510 C2509 1.366 . S
C2510 C2514 1.385 . S
C2511 H2486 0.951 . S
C2511 C2509 1.388 . S
C2511 C2512 1.366 . S
C2512 C2511 1.366 . S
C2512 C2513 1.414 . S
C2512 C2515 1.499 . S
C2513 H2487 0.950 . S
C2513 C2512 1.414 . S
C2513 C2514 1.374 . S
C2514 H2488 0.950 . S
C2514 C2510 1.385 . S
C2514 C2513 1.374 . S
C2515 C2512 1.499 . S
C2515 C2516 1.373 . S
C2515 C2517 1.389 . S
C2516 H2489 0.950 . S
C2516 C2502 1.377 . S
C2516 C2515 1.373 . S
C2517 C2501 1.377 . S
C2517 C2515 1.389 . S
C2517 C2518 1.524 . S
C2518 C2517 1.524 . S
C2518 C2519 1.397 . S
C2518 C2523 1.363 . S
C2519 H2490 0.950 . S
C2519 C2518 1.397 . S
C2519 C2520 1.334 . S
C2520 H2491 0.950 . S
C2520 C2519 1.334 . S
C2520 C2521 1.287 . S
C2521 C2520 1.287 . S
C2521 C2522 1.524 . S
C2521 H2524 0.999 . S
C2522 H2492 0.950 . S
C2522 C2521 1.524 . S
C2522 C2523 1.415 . S
C2523 H2493 0.950 . S
C2523 C2518 1.363 . S
C2523 C2522 1.415 . S
H2524 C2521 0.999 . S
H2525 C2506 0.913 . S
H2526 C2544 0.951 . S
H2527 C2546 0.951 . S
H2528 C2548 0.950 . S
H2529 C2549 0.950 . S
H2530 C2551 0.950 . S
H2531 C2554 0.950 . S
H2532 C2555 0.950 . S
H2533 C2557 0.950 . S
H2534 C2558 0.950 . S
H2535 C2559 0.951 . S
H2536 C2561 0.951 . S
H2537 C2563 0.950 . S
H2538 C2564 0.950 . S
H2539 C2566 0.950 . S
H2540 C2569 0.950 . S
H2541 C2570 0.950 . S
H2542 C2572 0.950 . S
H2543 C2573 0.950 . S
C2544 H2526 0.951 . S
C2544 C2545 1.366 . S
C2544 C2546 1.388 . S
C2545 C2544 1.366 . S
C2545 C2549 1.385 . S
C2546 H2527 0.951 . S
C2546 C2544 1.388 . S
C2546 C2547 1.366 . S
C2547 C2546 1.366 . S
C2547 C2548 1.414 . S
C2547 C2550 1.499 . S
C2548 H2528 0.950 . S
C2548 C2547 1.414 . S
C2548 C2549 1.374 . S
C2549 H2529 0.950 . S
C2549 C2545 1.385 . S
C2549 C2548 1.374 . S
C2550 C2547 1.499 . S
C2550 C2551 1.373 . S
C2550 C2552 1.389 . S
C2551 H2530 0.950 . S
C2551 C2550 1.373 . S
C2551 C2567 1.377 . S
C2552 C2550 1.389 . S
C2552 C2553 1.524 . S
C2552 C2566 1.377 . S
C2553 C2552 1.524 . S
C2553 C2554 1.397 . S
C2553 C2558 1.363 . S
C2554 H2531 0.950 . S
C2554 C2553 1.397 . S
C2554 C2555 1.334 . S
C2555 H2532 0.950 . S
C2555 C2554 1.334 . S
C2555 C2556 1.287 . S
C2556 C2555 1.287 . S
C2556 C2557 1.524 . S
C2556 H2575 0.913 . S
C2557 H2533 0.950 . S
C2557 C2556 1.524 . S
C2557 C2558 1.415 . S
C2558 H2534 0.950 . S
C2558 C2553 1.363 . S
C2558 C2557 1.415 . S
C2559 H2535 0.951 . S
C2559 C2560 1.366 . S
C2559 C2561 1.388 . S
C2560 C2559 1.366 . S
C2560 C2564 1.385 . S
C2561 H2536 0.951 . S
C2561 C2559 1.388 . S
C2561 C2562 1.366 . S
C2562 C2561 1.366 . S
C2562 C2563 1.414 . S
C2562 C2565 1.499 . S
C2563 H2537 0.950 . S
C2563 C2562 1.414 . S
C2563 C2564 1.374 . S
C2564 H2538 0.950 . S
C2564 C2560 1.385 . S
C2564 C2563 1.374 . S
C2565 C2562 1.499 . S
C2565 C2566 1.373 . S
C2565 C2567 1.389 . S
C2566 H2539 0.950 . S
C2566 C2552 1.377 . S
C2566 C2565 1.373 . S
C2567 C2551 1.377 . S
C2567 C2565 1.389 . S
C2567 C2568 1.524 . S
C2568 C2567 1.524 . S
C2568 C2569 1.397 . S
C2568 C2573 1.363 . S
C2569 H2540 0.950 . S
C2569 C2568 1.397 . S
C2569 C2570 1.334 . S
C2570 H2541 0.950 . S
C2570 C2569 1.334 . S
C2570 C2571 1.287 . S
C2571 C2570 1.287 . S
C2571 C2572 1.524 . S
C2571 H2574 0.999 . S
C2572 H2542 0.950 . S
C2572 C2571 1.524 . S
C2572 C2573 1.415 . S
C2573 H2543 0.950 . S
C2573 C2568 1.363 . S
C2573 C2572 1.415 . S
H2574 C2571 0.999 . S
H2575 C2556 0.913 . S
H2576 C2594 0.951 . S
H2577 C2596 0.951 . S
H2578 C2598 0.950 . S
H2579 C2599 0.950 . S
H2580 C2601 0.950 . S
H2581 C2604 0.950 . S
H2582 C2605 0.950 . S
H2583 C2607 0.950 . S
H2584 C2608 0.950 . S
H2585 C2609 0.951 . S
H2586 C2611 0.951 . S
H2587 C2613 0.950 . S
H2588 C2614 0.950 1_554 S
H2589 C2616 0.950 . S
H2590 C2619 0.950 . S
H2591 C2620 0.950 1_554 S
H2592 C2622 0.950 . S
H2593 C2623 0.950 . S
C2594 H2576 0.951 . S
C2594 C2595 1.366 . S
C2594 C2596 1.388 . S
C2595 C2594 1.366 . S
C2595 C2599 1.385 . S
C2596 H2577 0.951 . S
C2596 C2594 1.388 . S
C2596 C2597 1.366 . S
C2597 C2596 1.366 . S
C2597 C2598 1.414 . S
C2597 C2600 1.499 . S
C2598 H2578 0.950 . S
C2598 C2597 1.414 . S
C2598 C2599 1.374 . S
C2599 H2579 0.950 . S
C2599 C2595 1.385 . S
C2599 C2598 1.374 . S
C2600 C2597 1.499 . S
C2600 C2601 1.373 . S
C2600 C2602 1.389 . S
C2601 H2580 0.950 . S
C2601 C2600 1.373 . S
C2601 C2617 1.377 . S
C2602 C2600 1.389 . S
C2602 C2603 1.524 . S
C2602 C2616 1.377 . S
C2603 C2602 1.524 . S
C2603 C2604 1.397 . S
C2603 C2608 1.363 . S
C2604 H2581 0.950 . S
C2604 C2603 1.397 . S
C2604 C2605 1.334 . S
C2605 H2582 0.950 . S
C2605 C2604 1.334 . S
C2605 C2606 1.287 . S
C2606 C2605 1.287 . S
C2606 C2607 1.524 . S
C2606 H2625 0.913 . S
C2607 H2583 0.950 . S
C2607 C2606 1.524 . S
C2607 C2608 1.415 . S
C2608 H2584 0.950 . S
C2608 C2603 1.363 . S
C2608 C2607 1.415 . S
C2609 H2585 0.951 . S
C2609 C2610 1.366 . S
C2609 C2611 1.388 . S
C2610 C2609 1.366 . S
C2610 C2614 1.385 . S
C2611 H2586 0.951 . S
C2611 C2609 1.388 . S
C2611 C2612 1.366 . S
C2612 C2611 1.366 . S
C2612 C2613 1.414 . S
C2612 C2615 1.499 . S
C2613 H2587 0.950 . S
C2613 C2612 1.414 . S
C2613 C2614 1.374 . S
C2614 H2588 0.950 1_556 S
C2614 C2610 1.385 . S
C2614 C2613 1.374 . S
C2615 C2612 1.499 . S
C2615 C2616 1.373 . S
C2615 C2617 1.389 . S
C2616 H2589 0.950 . S
C2616 C2602 1.377 . S
C2616 C2615 1.373 . S
C2617 C2601 1.377 . S
C2617 C2615 1.389 . S
C2617 C2618 1.524 . S
C2618 C2617 1.524 . S
C2618 C2619 1.397 . S
C2618 C2623 1.363 . S
C2619 H2590 0.950 . S
C2619 C2618 1.397 . S
C2619 C2620 1.334 . S
C2620 H2591 0.950 1_556 S
C2620 C2619 1.334 . S
C2620 C2621 1.287 . S
C2621 C2620 1.287 . S
C2621 C2622 1.524 . S
C2621 H2624 0.999 . S
C2622 H2592 0.950 . S
C2622 C2621 1.524 . S
C2622 C2623 1.415 . S
C2623 H2593 0.950 . S
C2623 C2618 1.363 . S
C2623 C2622 1.415 . S
H2624 C2621 0.999 . S
H2625 C2606 0.913 . S
H2626 C2644 0.951 . S
H2627 C2646 0.951 . S
H2628 C2648 0.950 . S
H2629 C2649 0.950 . S
H2630 C2651 0.950 . S
H2631 C2654 0.950 . S
H2632 C2655 0.950 . S
H2633 C2657 0.950 . S
H2634 C2658 0.950 . S
H2635 C2659 0.951 . S
H2636 C2661 0.951 . S
H2637 C2663 0.950 . S
H2638 C2664 0.950 . S
H2639 C2666 0.950 . S
H2640 C2669 0.950 . S
H2641 C2670 0.950 . S
H2642 C2672 0.950 . S
H2643 C2673 0.950 . S
C2644 H2626 0.951 . S
C2644 C2645 1.366 . S
C2644 C2646 1.388 . S
C2645 C2644 1.366 . S
C2645 C2649 1.385 . S
C2646 H2627 0.951 . S
C2646 C2644 1.388 . S
C2646 C2647 1.366 . S
C2647 C2646 1.366 . S
C2647 C2648 1.414 . S
C2647 C2650 1.499 . S
C2648 H2628 0.950 . S
C2648 C2647 1.414 . S
C2648 C2649 1.374 . S
C2649 H2629 0.950 . S
C2649 C2645 1.385 . S
C2649 C2648 1.374 . S
C2650 C2647 1.499 . S
C2650 C2651 1.373 . S
C2650 C2652 1.389 . S
C2651 H2630 0.950 . S
C2651 C2650 1.373 . S
C2651 C2667 1.377 . S
C2652 C2650 1.389 . S
C2652 C2653 1.524 . S
C2652 C2666 1.377 . S
C2653 C2652 1.524 . S
C2653 C2654 1.397 . S
C2653 C2658 1.363 . S
C2654 H2631 0.950 . S
C2654 C2653 1.397 . S
C2654 C2655 1.334 . S
C2655 H2632 0.950 . S
C2655 C2654 1.334 . S
C2655 C2656 1.287 . S
C2656 C2655 1.287 . S
C2656 C2657 1.524 . S
C2656 H2675 0.913 . S
C2657 H2633 0.950 . S
C2657 C2656 1.524 . S
C2657 C2658 1.415 . S
C2658 H2634 0.950 . S
C2658 C2653 1.363 . S
C2658 C2657 1.415 . S
C2659 H2635 0.951 . S
C2659 C2660 1.366 . S
C2659 C2661 1.388 . S
C2660 C2659 1.366 . S
C2660 C2664 1.385 . S
C2661 H2636 0.951 . S
C2661 C2659 1.388 . S
C2661 C2662 1.366 . S
C2662 C2661 1.366 . S
C2662 C2663 1.414 . S
C2662 C2665 1.499 . S
C2663 H2637 0.950 . S
C2663 C2662 1.414 . S
C2663 C2664 1.374 . S
C2664 H2638 0.950 . S
C2664 C2660 1.385 . S
C2664 C2663 1.374 . S
C2665 C2662 1.499 . S
C2665 C2666 1.373 . S
C2665 C2667 1.389 . S
C2666 H2639 0.950 . S
C2666 C2652 1.377 . S
C2666 C2665 1.373 . S
C2667 C2651 1.377 . S
C2667 C2665 1.389 . S
C2667 C2668 1.524 . S
C2668 C2667 1.524 . S
C2668 C2669 1.397 . S
C2668 C2673 1.363 . S
C2669 H2640 0.950 . S
C2669 C2668 1.397 . S
C2669 C2670 1.334 . S
C2670 H2641 0.950 . S
C2670 C2669 1.334 . S
C2670 C2671 1.287 . S
C2671 C2670 1.287 . S
C2671 C2672 1.524 . S
C2671 H2674 0.999 . S
C2672 H2642 0.950 . S
C2672 C2671 1.524 . S
C2672 C2673 1.415 . S
C2673 H2643 0.950 . S
C2673 C2668 1.363 . S
C2673 C2672 1.415 . S
H2674 C2671 0.999 . S
H2675 C2656 0.913 . S
H2676 C2694 0.951 . S
H2677 C2696 0.951 . S
H2678 C2698 0.950 . S
H2679 C2699 0.950 . S
H2680 C2701 0.950 . S
H2681 C2704 0.950 . S
H2682 C2705 0.950 . S
H2683 C2707 0.950 . S
H2684 C2708 0.950 . S
H2685 C2709 0.951 . S
H2686 C2711 0.951 . S
H2687 C2713 0.950 . S
H2688 C2714 0.950 . S
H2689 C2716 0.950 . S
H2690 C2719 0.950 . S
H2691 C2720 0.950 . S
H2692 C2722 0.950 . S
H2693 C2723 0.950 . S
C2694 H2676 0.951 . S
C2694 C2695 1.366 . S
C2694 C2696 1.388 . S
C2695 C2694 1.366 . S
C2695 C2699 1.385 . S
C2696 H2677 0.951 . S
C2696 C2694 1.388 . S
C2696 C2697 1.366 . S
C2697 C2696 1.366 . S
C2697 C2698 1.414 . S
C2697 C2700 1.499 . S
C2698 H2678 0.950 . S
C2698 C2697 1.414 . S
C2698 C2699 1.374 . S
C2699 H2679 0.950 . S
C2699 C2695 1.385 . S
C2699 C2698 1.374 . S
C2700 C2697 1.499 . S
C2700 C2701 1.373 . S
C2700 C2702 1.389 . S
C2701 H2680 0.950 . S
C2701 C2700 1.373 . S
C2701 C2717 1.377 . S
C2702 C2700 1.389 . S
C2702 C2703 1.524 . S
C2702 C2716 1.377 . S
C2703 C2702 1.524 . S
C2703 C2704 1.397 . S
C2703 C2708 1.363 . S
C2704 H2681 0.950 . S
C2704 C2703 1.397 . S
C2704 C2705 1.334 . S
C2705 H2682 0.950 . S
C2705 C2704 1.334 . S
C2705 C2706 1.287 . S
C2706 C2705 1.287 . S
C2706 C2707 1.524 . S
C2706 H2725 0.913 . S
C2707 H2683 0.950 . S
C2707 C2706 1.524 . S
C2707 C2708 1.415 . S
C2708 H2684 0.950 . S
C2708 C2703 1.363 . S
C2708 C2707 1.415 . S
C2709 H2685 0.951 . S
C2709 C2710 1.366 . S
C2709 C2711 1.388 . S
C2710 C2709 1.366 . S
C2710 C2714 1.385 . S
C2711 H2686 0.951 . S
C2711 C2709 1.388 . S
C2711 C2712 1.366 . S
C2712 C2711 1.366 . S
C2712 C2713 1.414 . S
C2712 C2715 1.499 . S
C2713 H2687 0.950 . S
C2713 C2712 1.414 . S
C2713 C2714 1.374 . S
C2714 H2688 0.950 . S
C2714 C2710 1.385 . S
C2714 C2713 1.374 . S
C2715 C2712 1.499 . S
C2715 C2716 1.373 . S
C2715 C2717 1.389 . S
C2716 H2689 0.950 . S
C2716 C2702 1.377 . S
C2716 C2715 1.373 . S
C2717 C2701 1.377 . S
C2717 C2715 1.389 . S
C2717 C2718 1.524 . S
C2718 C2717 1.524 . S
C2718 C2719 1.397 . S
C2718 C2723 1.363 . S
C2719 H2690 0.950 . S
C2719 C2718 1.397 . S
C2719 C2720 1.334 . S
C2720 H2691 0.950 . S
C2720 C2719 1.334 . S
C2720 C2721 1.287 . S
C2721 C2720 1.287 . S
C2721 C2722 1.524 . S
C2721 H2724 0.999 . S
C2722 H2692 0.950 . S
C2722 C2721 1.524 . S
C2722 C2723 1.415 . S
C2723 H2693 0.950 . S
C2723 C2718 1.363 . S
C2723 C2722 1.415 . S
H2724 C2721 0.999 . S
H2725 C2706 0.913 . S
H2726 C2744 0.951 . S
H2727 C2746 0.951 . S
H2728 C2748 0.950 . S
H2729 C2749 0.950 . S
H2730 C2751 0.950 . S
H2731 C2754 0.950 . S
H2732 C2755 0.950 . S
H2733 C2757 0.950 . S
H2734 C2758 0.950 . S
H2735 C2759 0.951 . S
H2736 C2761 0.951 . S
H2737 C2763 0.950 . S
H2738 C2764 0.950 . S
H2739 C2766 0.950 . S
H2740 C2769 0.950 . S
H2741 C2770 0.950 . S
H2742 C2772 0.950 . S
H2743 C2773 0.950 . S
C2744 H2726 0.951 . S
C2744 C2745 1.366 . S
C2744 C2746 1.388 . S
C2745 C2744 1.366 . S
C2745 C2749 1.385 . S
C2746 H2727 0.951 . S
C2746 C2744 1.388 . S
C2746 C2747 1.366 . S
C2747 C2746 1.366 . S
C2747 C2748 1.414 . S
C2747 C2750 1.499 . S
C2748 H2728 0.950 . S
C2748 C2747 1.414 . S
C2748 C2749 1.374 . S
C2749 H2729 0.950 . S
C2749 C2745 1.385 . S
C2749 C2748 1.374 . S
C2750 C2747 1.499 . S
C2750 C2751 1.373 . S
C2750 C2752 1.389 . S
C2751 H2730 0.950 . S
C2751 C2750 1.373 . S
C2751 C2767 1.377 . S
C2752 C2750 1.389 . S
C2752 C2753 1.524 . S
C2752 C2766 1.377 . S
C2753 C2752 1.524 . S
C2753 C2754 1.397 . S
C2753 C2758 1.363 . S
C2754 H2731 0.950 . S
C2754 C2753 1.397 . S
C2754 C2755 1.334 . S
C2755 H2732 0.950 . S
C2755 C2754 1.334 . S
C2755 C2756 1.287 . S
C2756 C2755 1.287 . S
C2756 C2757 1.524 . S
C2756 H2775 0.913 . S
C2757 H2733 0.950 . S
C2757 C2756 1.524 . S
C2757 C2758 1.415 . S
C2758 H2734 0.950 . S
C2758 C2753 1.363 . S
C2758 C2757 1.415 . S
C2759 H2735 0.951 . S
C2759 C2760 1.366 . S
C2759 C2761 1.388 1_565 S
C2760 C2759 1.366 . S
C2760 C2764 1.385 . S
C2761 H2736 0.951 . S
C2761 C2759 1.388 1_545 S
C2761 C2762 1.366 . S
C2762 C2761 1.366 . S
C2762 C2763 1.414 . S
C2762 C2765 1.499 . S
C2763 H2737 0.950 . S
C2763 C2762 1.414 . S
C2763 C2764 1.374 1_545 S
C2764 H2738 0.950 . S
C2764 C2760 1.385 . S
C2764 C2763 1.374 1_565 S
C2765 C2762 1.499 . S
C2765 C2766 1.373 . S
C2765 C2767 1.389 . S
C2766 H2739 0.950 . S
C2766 C2752 1.377 . S
C2766 C2765 1.373 . S
C2767 C2751 1.377 . S
C2767 C2765 1.389 . S
C2767 C2768 1.524 . S
C2768 C2767 1.524 . S
C2768 C2769 1.397 . S
C2768 C2773 1.363 . S
C2769 H2740 0.950 . S
C2769 C2768 1.397 . S
C2769 C2770 1.334 . S
C2770 H2741 0.950 . S
C2770 C2769 1.334 . S
C2770 C2771 1.287 . S
C2771 C2770 1.287 . S
C2771 C2772 1.524 . S
C2771 H2774 0.999 . S
C2772 H2742 0.950 . S
C2772 C2771 1.524 . S
C2772 C2773 1.415 . S
C2773 H2743 0.950 . S
C2773 C2768 1.363 . S
C2773 C2772 1.415 . S
H2774 C2771 0.999 . S
H2775 C2756 0.913 . S
C410 C216 1.838 . S
C395 C73 1.860 . S
C460 C231 1.447 . S
C445 C82 1.458 . S
C495 C100 2.149 . S
C510 C244 2.131 . S
C560 C258 1.388 . S
C545 C56 1.332 . S
C610 C270 1.456 . S
C595 C134 1.510 . S
C660 C284 1.433 . S
C645 C165 1.454 . S
C695 C147 1.422 . S
C710 C298 1.419 . S
C760 C313 1.764 . S
C745 C125 1.807 . S
C795 C151 1.422 . S
C810 C329 1.407 . S
C860 C342 1.411 . S
C845 C121 1.364 . S
C895 C139 1.836 . S
C910 C327 1.816 . S
C960 C340 1.118 . S
C945 C164 1.105 . S
C995 C95 1.644 . S
C1010 C356 1.690 . S
C1045 C61 1.421 . S
C1060 C355 1.419 . S
C1095 C74 1.765 . S
C1110 C354 1.701 . S
C1145 C86 1.946 . S
C1160 C357 1.918 . S
C1195 C47 1.659 . S
C1210 C259 1.653 . S
C1245 C186 1.314 . S
C1260 C257 1.338 . S
C1310 C217 1.384 1_556 S
C1295 C204 1.391 . S
C1360 C228 2.125 . S
C1345 C112 2.140 . S
C1395 C60 1.343 . S
C1410 C273 1.348 . S
C1460 C314 1.841 . S
C1445 C152 1.835 . S
C1510 C271 1.849 . S
C1495 C126 1.875 . S
C1560 C299 1.180 . S
C1545 C160 1.109 . S
C1610 C300 1.838 . S
C1595 C190 1.860 . S
C1645 C199 1.458 . S
C1660 C315 1.448 . S
C1695 C113 2.149 . S
C1710 C272 2.131 . S
C1760 C286 1.388 . S
C1745 C173 1.332 . S
C1795 C43 1.510 . S
C1810 C242 1.455 . S
C1860 C256 1.434 . S
C1845 C9 1.455 . S
C1910 C214 1.419 . S
C1895 C17 1.422 . S
C1960 C229 1.763 . S
C1945 C34 1.807 . S
C1995 C21 1.422 . S
C2010 C343 1.406 . S
C2045 C30 1.363 . S
C2060 C328 1.410 . S
C2095 C48 1.836 . S
C2110 C341 1.817 . S
C2145 C8 1.105 . S
C2160 C326 1.118 . S
C2210 C370 1.691 . S
C2195 C108 1.643 . S
C2260 C369 1.420 . S
C2245 C178 1.420 . S
C2310 C368 1.701 . S
C2295 C191 1.766 . S
C2345 C203 1.945 . S
C2360 C371 1.910 . S
C2395 C138 1.659 . S
C2410 C287 1.653 . S
C2460 C285 1.337 . S
C2445 C69 1.313 . S
C2510 C301 1.384 . S
C2495 C87 1.391 . S
C2560 C312 2.124 . S
C2545 C99 2.140 . S
C2595 C177 1.343 . S
C2610 C245 1.349 . S
C2660 C230 1.841 . S
C2645 C22 1.834 . S
C2695 C35 1.874 . S
C2710 C243 1.849 . S
C2760 C215 1.179 . S
C2745 C4 1.109 . S
