# Generated by pormake.
# Topology anh, (6,3)-cn, num edge types: 1
# Building blocks:
#     Node 0, Type 0, BuildingBlock: PAMTOO_clean_sbu_0, # of connection points: 6
#     Node 1, Type 0, BuildingBlock: PAMTOO_clean_sbu_0, # of connection points: 6
#     Node 2, Type 0, BuildingBlock: PAMTOO_clean_sbu_0, # of connection points: 6
#     Node 3, Type 1, BuildingBlock: KAKCAD_clean_linker_0, # of connection points: 3
#     Node 4, Type 1, BuildingBlock: KAKCAD_clean_linker_0, # of connection points: 3
#     Node 5, Type 1, BuildingBlock: KAKCAD_clean_linker_0, # of connection points: 3
#     Node 6, Type 1, BuildingBlock: KAKCAD_clean_linker_0, # of connection points: 3
#     Node 7, Type 1, BuildingBlock: KAKCAD_clean_linker_0, # of connection points: 3
#     Node 8, Type 1, BuildingBlock: KAKCAD_clean_linker_0, # of connection points: 3
#     Edge 9, Type (0, 1), BuildingBlock: TEMPAE_clean_linker_10, # of connection points: 2
#     Edge 10, Type (0, 1), BuildingBlock: TEMPAE_clean_linker_10, # of connection points: 2
#     Edge 11, Type (0, 1), BuildingBlock: TEMPAE_clean_linker_10, # of connection points: 2
#     Edge 12, Type (0, 1), BuildingBlock: TEMPAE_clean_linker_10, # of connection points: 2
#     Edge 13, Type (0, 1), BuildingBlock: TEMPAE_clean_linker_10, # of connection points: 2
#     Edge 14, Type (0, 1), BuildingBlock: TEMPAE_clean_linker_10, # of connection points: 2
#     Edge 15, Type (0, 1), BuildingBlock: TEMPAE_clean_linker_10, # of connection points: 2
#     Edge 16, Type (0, 1), BuildingBlock: TEMPAE_clean_linker_10, # of connection points: 2
#     Edge 17, Type (0, 1), BuildingBlock: TEMPAE_clean_linker_10, # of connection points: 2
#     Edge 18, Type (0, 1), BuildingBlock: TEMPAE_clean_linker_10, # of connection points: 2
#     Edge 19, Type (0, 1), BuildingBlock: TEMPAE_clean_linker_10, # of connection points: 2
#     Edge 20, Type (0, 1), BuildingBlock: TEMPAE_clean_linker_10, # of connection points: 2
#     Edge 21, Type (0, 1), BuildingBlock: TEMPAE_clean_linker_10, # of connection points: 2
#     Edge 22, Type (0, 1), BuildingBlock: TEMPAE_clean_linker_10, # of connection points: 2
#     Edge 23, Type (0, 1), BuildingBlock: TEMPAE_clean_linker_10, # of connection points: 2
#     Edge 24, Type (0, 1), BuildingBlock: TEMPAE_clean_linker_10, # of connection points: 2
#     Edge 25, Type (0, 1), BuildingBlock: TEMPAE_clean_linker_10, # of connection points: 2
#     Edge 26, Type (0, 1), BuildingBlock: TEMPAE_clean_linker_10, # of connection points: 2
# Relax obj value: 0.178
# Max RMSD: 0.195
# Mean RMSD: 0.155
data_MOF--net-anh--node1-PAMTOO_clean_sbu_0--node2-KAKCAD_clean_linker_0--edge1-TEMPAE_clean_linker_10
_symmetry_space_group_name_H-M    P1
_symmetry_Int_Tables_number       1
_symmetry_cell_setting            triclinic
loop_
_symmetry_equiv_pos_as_xyz
'x, y, z'
_cell_length_a     36.693538
_cell_length_b     35.835033
_cell_length_c     67.614912
_cell_angle_alpha  90.17538
_cell_angle_beta   94.84068
_cell_angle_gamma 105.21101
loop_
_atom_site_label
_atom_site_type_symbol
_atom_site_fract_x
_atom_site_fract_y
_atom_site_fract_z
_atom_type_partial_charge
Dy0 Dy 0.06962 0.59623 0.14729 0.0
Dy1 Dy 1.04266 0.50231 0.13851 0.0
C2 C 1.05633 0.56128 0.10409 0.0
O3 O 1.00767 0.58021 0.15224 0.0
O4 O 0.98932 0.52234 0.13467 0.0
O5 O 0.08966 0.6531 0.13566 0.0
O6 O 0.08027 0.64675 0.16683 0.0
O7 O 1.03442 0.51304 0.17013 0.0
O8 O 0.0829 0.56768 0.17517 0.0
O9 O 0.10602 0.51494 0.14467 0.0
O10 O 0.12312 0.58096 0.14093 0.0
O11 O 1.04275 0.44432 0.1469 0.0
O12 O 1.00983 0.45362 0.1201 0.0
C13 C 0.98096 0.55136 0.14362 0.0
O14 O 1.04504 0.58411 0.11594 0.0
O15 O 0.06513 0.53034 0.11097 0.0
C16 C 0.13238 0.69681 0.15838 0.0
C17 C 0.20426 0.74865 0.16832 0.0
C18 C 0.20035 0.71658 0.15549 0.0
C19 C 0.16482 0.69085 0.15065 0.0
C20 C 0.13611 0.72852 0.17127 0.0
C21 C 0.1717 0.75416 0.17625 0.0
C22 C 0.09467 0.67022 0.1531 0.0
C23 C 0.05931 0.53761 0.18214 0.0
C24 C 0.13202 0.54777 0.14289 0.0
C25 C 0.98351 0.39997 0.13911 0.0
C26 C 0.91986 0.34536 0.15168 0.0
C27 C 0.93126 0.38305 0.16005 0.0
C28 C 0.96272 0.41014 0.15378 0.0
C29 C 0.97215 0.36259 0.13058 0.0
C30 C 0.94051 0.33548 0.13678 0.0
C31 C 1.0169 0.42838 0.13272 0.0
H32 H 0.22463 0.71161 0.14892 0.0
H33 H 0.16272 0.66645 0.14072 0.0
H34 H 0.11147 0.73345 0.17751 0.0
H35 H 0.17372 0.77808 0.18647 0.0
H36 H 0.91564 0.39169 0.17135 0.0
H37 H 0.97091 0.43904 0.16041 0.0
H38 H 0.98786 0.35431 0.11922 0.0
H39 H 0.93258 0.30659 0.13017 0.0
Dy40 Dy 0.55333 0.02352 0.51674 0.0
Dy41 Dy 0.64681 0.04933 0.52295 0.0
C42 C 0.59735 0.03216 0.55932 0.0
O43 O 0.56898 0.08711 0.51196 0.0
O44 O 0.6289 0.10333 0.5281 0.0
O45 O 0.49985 0.00293 0.52926 0.0
O46 O 0.50086 0.01582 0.498 0.0
O47 O 0.62946 0.0625 0.49194 0.0
O48 O 0.57547 0.01325 0.48803 0.0
O49 O 0.63174 0.98557 0.51646 0.0
O50 O 0.56901 0.96846 0.52302 0.0
O51 O 0.70092 0.04977 0.5126 0.0
O52 O 0.69841 0.07861 0.5405 0.0
C53 C 0.59889 0.113 0.52006 0.0
O54 O 0.57092 0.04295 0.54831 0.0
O55 O 0.62613 0.02474 0.55137 0.0
C56 C 0.4523 0.96303 0.50719 0.0
C57 C 0.39832 0.89195 0.49756 0.0
C58 C 0.43157 0.89315 0.50983 0.0
C59 C 0.45838 0.92832 0.51451 0.0
C60 C 0.41932 0.96201 0.49492 0.0
C61 C 0.39261 0.92681 0.49009 0.0
C62 C 0.48014 0.00032 0.51211 0.0
C63 C 0.60308 0.03849 0.4804 0.0
C64 C 0.60042 0.9593 0.51973 0.0
C65 C 0.74727 0.10784 0.52088 0.0
C66 C 0.79972 0.1748 0.50928 0.0
C67 C 0.76163 0.16582 0.50141 0.0
C68 C 0.73558 0.13267 0.50722 0.0
C69 C 0.78509 0.11673 0.52889 0.0
C70 C 0.81116 0.15003 0.52316 0.0
C71 C 0.71994 0.07303 0.527 0.0
H72 H 0.43674 0.86697 0.51601 0.0
H73 H 0.48377 0.92836 0.52394 0.0
H74 H 0.41429 0.98847 0.48901 0.0
H75 H 0.36771 0.9269 0.4803 0.0
H76 H 0.75191 0.18463 0.49089 0.0
H77 H 0.70632 0.12638 0.50105 0.0
H78 H 0.79447 0.09787 0.53951 0.0
H79 H 0.84038 0.15608 0.52934 0.0
Dy80 Dy 0.57823 0.45159 0.84255 0.0
Dy81 Dy 0.48551 0.43158 0.83722 0.0
C82 C 0.53393 0.45258 0.80051 0.0
O83 O 0.5658 0.50803 0.83508 0.0
O84 O 0.50542 0.4949 0.84492 0.0
O85 O 0.63239 0.48305 0.85682 0.0
O86 O 0.62944 0.43955 0.83396 0.0
O87 O 0.49953 0.41935 0.86889 0.0
O88 O 0.56031 0.45836 0.87271 0.0
O89 O 0.5009 0.37635 0.83116 0.0
O90 O 0.55712 0.38981 0.85051 0.0
O91 O 0.43195 0.42982 0.8486 0.0
O92 O 0.43341 0.40907 0.8186 0.0
C93 C 0.53648 0.51958 0.83997 0.0
O94 O 0.56003 0.43932 0.8103 0.0
O95 O 0.50615 0.45972 0.80947 0.0
C96 C 0.6827 0.49377 0.83662 0.0
C97 C 0.74307 0.54948 0.82197 0.0
C98 C 0.70707 0.53946 0.81131 0.0
C99 C 0.67701 0.51182 0.81863 0.0
C100 C 0.71851 0.50318 0.84706 0.0
C101 C 0.74833 0.53082 0.83989 0.0
C102 C 0.65136 0.46702 0.84551 0.0
C103 C 0.5294 0.43867 0.88022 0.0
C104 C 0.52831 0.36484 0.84096 0.0
C105 C 0.38997 0.44545 0.8242 0.0
C106 C 0.35248 0.50379 0.81633 0.0
C107 C 0.33773 0.47321 0.82889 0.0
C108 C 0.35629 0.44429 0.83273 0.0
C109 C 0.40402 0.47491 0.811 0.0
C110 C 0.38526 0.50366 0.80698 0.0
C111 C 0.41301 0.41958 0.83138 0.0
H112 H 0.70204 0.55318 0.79747 0.0
H113 H 0.64927 0.50503 0.81047 0.0
H114 H 0.72321 0.48986 0.86108 0.0
H115 H 0.77523 0.5385 0.84885 0.0
H116 H 0.31301 0.47269 0.83668 0.0
H117 H 0.3454 0.42214 0.84319 0.0
H118 H 0.43033 0.47665 0.80444 0.0
H119 H 0.39716 0.52645 0.79707 0.0
C120 C 0.61031 0.08347 0.32089 0.0
C121 C 0.60471 0.04871 0.33123 0.0
C122 C 0.6073 0.08303 0.30012 0.0
C123 C 0.59845 0.04781 0.28927 0.0
C124 C 0.59339 0.01313 0.29964 0.0
C125 C 0.59648 0.01357 0.32036 0.0
C126 C 0.59353 0.04696 0.26723 0.0
C127 C 0.61886 0.07337 0.25626 0.0
C128 C 0.61441 0.07222 0.23537 0.0
C129 C 0.58408 0.04412 0.22546 0.0
C130 C 0.55833 0.01757 0.23625 0.0
C131 C 0.56328 0.01945 0.2571 0.0
C132 C 0.52562 0.98817 0.22611 0.0
C133 C 0.50338 0.99801 0.21001 0.0
C134 C 0.5149 0.95051 0.23342 0.0
C135 C 0.48176 0.92399 0.22554 0.0
C136 C 0.45865 0.93434 0.21006 0.0
C137 C 0.64203 0.10009 0.2241 0.0
C138 C 0.65412 0.13934 0.23005 0.0
C139 C 0.6577 0.08748 0.20789 0.0
C140 C 0.68564 0.11338 0.19821 0.0
C141 C 0.69824 0.15249 0.20443 0.0
C142 C 0.68182 0.16525 0.2203 0.0
C143 C 0.47022 0.9713 0.20203 0.0
H144 H 0.61704 0.11104 0.32886 0.0
H145 H 0.61112 0.11021 0.29256 0.0
H146 H 0.58697 0.98554 0.29171 0.0
H147 H 0.59165 0.98628 0.32787 0.0
H148 H 0.64272 0.0942 0.26399 0.0
H149 H 0.54288 0.99996 0.26555 0.0
H150 H 0.58053 0.04298 0.20937 0.0
H151 H 0.5107 0.02685 0.20413 0.0
H152 H 0.53185 0.94169 0.2455 0.0
H153 H 0.47393 0.89545 0.23176 0.0
H154 H 0.64231 0.14998 0.24238 0.0
H155 H 0.64913 0.05736 0.20305 0.0
H156 H 0.45284 0.98009 0.19013 0.0
H157 H 0.69112 0.19511 0.22556 0.0
H158 H 0.69755 0.10278 0.18591 0.0
C159 C 0.54358 0.53178 0.64496 0.0
C160 C 0.56904 0.5176 0.65753 0.0
C161 C 0.54921 0.53711 0.62486 0.0
C162 C 0.57987 0.52746 0.61702 0.0
C163 C 0.60543 0.5135 0.62961 0.0
C164 C 0.60028 0.50901 0.64978 0.0
C165 C 0.58425 0.5302 0.59556 0.0
C166 C 0.58993 0.56581 0.58627 0.0
C167 C 0.59431 0.56843 0.56581 0.0
C168 C 0.59217 0.5346 0.55457 0.0
C169 C 0.58596 0.49862 0.56384 0.0
C170 C 0.58244 0.49685 0.58434 0.0
C171 C 0.58333 0.46225 0.55269 0.0
C172 C 0.55235 0.43018 0.55462 0.0
C173 C 0.61372 0.4576 0.54251 0.0
C174 C 0.61427 0.42079 0.53564 0.0
C175 C 0.58435 0.3882 0.5388 0.0
C176 C 0.60057 0.60683 0.5566 0.0
C177 C 0.57663 0.61297 0.54032 0.0
C178 C 0.62831 0.63853 0.56546 0.0
C179 C 0.63083 0.6759 0.55887 0.0
C180 C 0.60539 0.68257 0.54339 0.0
C181 C 0.57893 0.65055 0.5338 0.0
C182 C 0.55276 0.39363 0.54767 0.0
H183 H 0.51931 0.53859 0.65069 0.0
H184 H 0.5291 0.54772 0.61531 0.0
H185 H 0.62923 0.50589 0.6238 0.0
H186 H 0.6201 0.49781 0.65923 0.0
H187 H 0.59099 0.59156 0.59501 0.0
H188 H 0.57808 0.46929 0.59163 0.0
H189 H 0.59524 0.53625 0.53877 0.0
H190 H 0.52844 0.43315 0.56227 0.0
H191 H 0.63804 0.4819 0.54099 0.0
H192 H 0.63904 0.41756 0.52889 0.0
H193 H 0.55486 0.58899 0.53333 0.0
H194 H 0.64744 0.63448 0.57788 0.0
H195 H 0.52886 0.3693 0.5499 0.0
H196 H 0.55879 0.65465 0.5219 0.0
H197 H 0.6522 0.69974 0.56624 0.0
C198 C 0.1397 0.69819 0.96489 0.0
C199 C 0.10454 0.6751 0.96996 0.0
C200 C 0.14259 0.71695 0.9467 0.0
C201 C 0.1104 0.71294 0.93317 0.0
C202 C 0.0753 0.69006 0.9384 0.0
C203 C 0.07237 0.67175 0.95657 0.0
C204 C 0.11322 0.72999 0.91308 0.0
C205 C 0.14346 0.7286 0.90194 0.0
C206 C 0.14249 0.73734 0.88165 0.0
C207 C 0.11053 0.74713 0.87247 0.0
C208 C 0.07988 0.74833 0.88335 0.0
C209 C 0.08276 0.74222 0.90388 0.0
C210 C 1.04243 0.74824 0.87292 0.0
C211 C 1.03916 0.76922 0.85555 0.0
C212 C 1.00949 0.72324 0.87935 0.0
C213 C 0.97456 0.71868 0.86866 0.0
C214 C 0.97124 0.73871 0.85107 0.0
C215 C 0.17213 0.73017 0.86962 0.0
C216 C 0.21043 0.74043 0.87714 0.0
C217 C 0.16178 0.70922 0.85148 0.0
C218 C 0.18866 0.69665 0.84177 0.0
C219 C 0.22639 0.70457 0.85004 0.0
C220 C 0.2373 0.72772 0.86745 0.0
C221 C 1.00384 0.76432 0.84464 0.0
H222 H 0.16513 0.70124 0.9748 0.0
H223 H 0.17005 0.73439 0.9432 0.0
H224 H 1.04997 0.68538 0.92826 0.0
H225 H 1.04468 0.65489 0.96008 0.0
H226 H 0.16638 0.71768 0.90862 0.0
H227 H 0.05973 0.74427 0.91249 0.0
H228 H 0.10855 0.75133 0.8566 0.0
H229 H 0.06394 0.78876 0.85018 0.0
H230 H 1.01072 0.70536 0.89214 0.0
H231 H 0.95034 0.6977 0.87372 0.0
H232 H 0.21932 0.75701 0.89094 0.0
H233 H 0.13246 0.70031 0.8454 0.0
H234 H 1.00212 0.77999 0.83107 0.0
H235 H 0.26631 0.73462 0.87403 0.0
H236 H 0.17928 0.67843 0.82852 0.0
C237 C 1.03752 0.50727 0.34174 0.0
C238 C 0.06951 0.51293 0.3309 0.0
C239 C 1.04154 0.50834 0.36249 0.0
C240 C 0.07764 0.51523 0.37283 0.0
C241 C 0.10956 0.52045 0.36198 0.0
C242 C 0.10554 0.51931 0.34126 0.0
C243 C 0.08221 0.51756 0.39487 0.0
C244 C 1.05751 0.49095 0.40603 0.0
C245 C 0.06204 0.49282 0.42689 0.0
C246 C 0.09178 0.52172 0.4366 0.0
C247 C 0.11663 0.54879 0.42563 0.0
C248 C 0.11146 0.5465 0.40479 0.0
C249 C 0.1476 0.58009 0.43571 0.0
C250 C 0.14131 0.60043 0.45236 0.0
C251 C 0.18325 0.59116 0.42807 0.0
C252 C 0.21135 0.62282 0.43631 0.0
C253 C 0.20459 0.64396 0.45248 0.0
C254 C 1.03587 0.46407 0.43838 0.0
C255 C 0.99663 0.45428 0.43301 0.0
C256 C 1.04997 0.44518 0.45427 0.0
C257 C 1.02539 0.41626 0.4642 0.0
C258 C 0.98622 0.40592 0.45854 0.0
C259 C 0.97206 0.42558 0.44301 0.0
C260 C 0.1696 0.63202 0.4607 0.0
H261 H 1.00936 0.50197 0.33416 0.0
H262 H 1.01644 0.50449 0.37044 0.0
H263 H 0.13771 0.52537 0.36953 0.0
H264 H 0.13077 0.52419 0.33335 0.0
H265 H 1.0353 0.46804 0.39848 0.0
H266 H 0.12972 0.56795 0.39621 0.0
H267 H 0.09549 0.52316 0.45268 0.0
H268 H 0.11407 0.59288 0.45849 0.0
H269 H 0.18932 0.57558 0.41554 0.0
H270 H 0.23832 0.63101 0.42991 0.0
H271 H 0.98494 0.46863 0.42094 0.0
H272 H 0.08011 0.45199 0.45865 0.0
H273 H 0.16358 0.64799 0.4731 0.0
H274 H 0.94206 0.41801 0.4382 0.0
H275 H 1.03704 0.40177 0.47623 0.0
C276 C 0.54236 0.94852 0.71067 0.0
C277 C 0.57085 0.98011 0.70481 0.0
C278 C 0.53855 0.94107 0.73079 0.0
C279 C 0.56286 0.96527 0.74545 0.0
C280 C 0.59146 0.99663 0.73965 0.0
C281 C 0.59555 0.00385 0.71957 0.0
C282 C 0.55804 0.95845 0.76679 0.0
C283 C 0.55444 0.92158 0.77456 0.0
C284 C 0.55118 0.91522 0.79499 0.0
C285 C 0.54963 0.94637 0.80749 0.0
C286 C 0.55297 0.98339 0.7997 0.0
C287 C 0.55748 0.98913 0.77947 0.0
C288 C 0.55221 0.01718 0.81209 0.0
C289 C 0.51778 0.02131 0.81813 0.0
C290 C 0.58436 0.04883 0.81421 0.0
C291 C 0.58167 0.08472 0.82106 0.0
C292 C 0.54661 0.08989 0.82568 0.0
C293 C 0.55045 0.87617 0.80289 0.0
C294 C 0.52637 0.8595 0.81747 0.0
C295 C 0.57317 0.8545 0.79515 0.0
C296 C 0.57052 0.81665 0.80099 0.0
C297 C 0.54556 0.79952 0.81499 0.0
C298 C 0.52408 0.82155 0.82353 0.0
C299 C 0.51499 0.05741 0.8249 0.0
H300 H 0.52249 0.92996 0.69974 0.0
H301 H 0.51603 0.91691 0.73488 0.0
H302 H 0.6109 0.01543 0.75068 0.0
H303 H 0.6183 0.02791 0.71563 0.0
H304 H 0.55474 0.89789 0.76463 0.0
H305 H 0.55985 0.01766 0.7735 0.0
H306 H 0.54709 0.94227 0.82323 0.0
H307 H 0.4925 0.99739 0.81627 0.0
H308 H 0.61113 0.04631 0.80948 0.0
H309 H 0.60675 0.1089 0.8219 0.0
H310 H 0.50841 0.87525 0.82372 0.0
H311 H 0.59295 0.86668 0.78437 0.0
H312 H 0.48754 0.06041 0.82825 0.0
H313 H 0.5046 0.80899 0.83438 0.0
H314 H 0.588 0.80063 0.79447 0.0
C315 C 0.55274 0.46894 0.04108 0.0
C316 C 0.53006 0.48454 0.02739 0.0
C317 C 0.5564 0.47924 0.06125 0.0
C318 C 0.53776 0.50567 0.06823 0.0
C319 C 0.51483 0.52098 0.05455 0.0
C320 C 0.51084 0.51037 0.03443 0.0
C321 C 0.54274 0.51785 0.08959 0.0
C322 C 0.57819 0.52402 0.10045 0.0
C323 C 0.58361 0.53663 0.12041 0.0
C324 C 0.55269 0.5434 0.12975 0.0
C325 C 0.51681 0.53769 0.11888 0.0
C326 C 0.51233 0.52452 0.09901 0.0
C327 C 0.48326 0.54622 0.12711 0.0
C328 C 0.46391 0.52313 0.14169 0.0
C329 C 0.46619 0.57281 0.11741 0.0
C330 C 0.42988 0.57484 0.12133 0.0
C331 C 0.40928 0.55013 0.135 0.0
C332 C 0.62268 0.54367 0.13036 0.0
C333 C 0.63531 0.51262 0.13833 0.0
C334 C 0.64973 0.57856 0.12737 0.0
C335 C 0.68864 0.58184 0.13146 0.0
C336 C 0.70159 0.55019 0.13853 0.0
C337 C 0.67425 0.51591 0.1425 0.0
C338 C 0.42733 0.52512 0.14564 0.0
H339 H 0.56832 0.44932 0.03619 0.0
H340 H 0.57388 0.46644 0.07137 0.0
H341 H 0.50043 0.5418 0.05928 0.0
H342 H 0.4927 0.52254 0.02439 0.0
H343 H 0.60221 0.51995 0.09323 0.0
H344 H 0.48466 0.51931 0.09084 0.0
H345 H 0.5567 0.55378 0.14505 0.0
H346 H 0.47604 0.50189 0.14914 0.0
H347 H 0.4803 0.59082 0.10601 0.0
H348 H 0.41746 0.59509 0.11316 0.0
H349 H 0.61517 0.48502 0.1402 0.0
H350 H 0.64086 0.60261 0.12077 0.0
H351 H 0.4124 0.50557 0.15624 0.0
H352 H 0.68294 0.49076 0.14772 0.0
H353 H 0.70866 0.60888 0.12846 0.0
C354 C 0.18324 0.51263 0.14144 0.0
C355 C 0.17281 0.54753 0.14286 0.0
C356 C 0.22151 0.51222 0.14091 0.0
C357 C 0.25043 0.54752 0.142 0.0
C358 C 0.24014 0.58279 0.14379 0.0
C359 C 0.20165 0.58238 0.14411 0.0
C360 C 0.23095 0.47394 0.13883 0.0
C361 C 0.26981 0.62115 0.14515 0.0
C362 C 0.35377 0.54602 0.1557 0.0
C363 C 0.36853 0.5491 0.13708 0.0
C364 C 0.31554 0.54548 0.15756 0.0
C365 C 0.29116 0.5477 0.1404 0.0
C366 C 0.30582 0.55033 0.12157 0.0
C367 C 0.34407 0.55103 0.12016 0.0
C368 C 0.30131 0.54287 0.17794 0.0
C369 C 0.28101 0.55236 0.10283 0.0
H370 H 0.16139 0.48549 0.14045 0.0
H371 H 0.19421 0.60957 0.14535 0.0
H372 H 0.24441 0.4729 0.12482 0.0
H373 H 0.25169 0.47075 0.15121 0.0
H374 H 0.20548 0.44898 0.13875 0.0
H375 H 0.25749 0.64587 0.14747 0.0
H376 H 0.29161 0.6212 0.15757 0.0
H377 H 0.28445 0.62564 0.13131 0.0
H378 H 0.37229 0.54471 0.16889 0.0
H379 H 0.35475 0.55259 0.10563 0.0
H380 H 0.27693 0.51704 0.17855 0.0
H381 H 0.29102 0.56859 0.18105 0.0
H382 H 0.3236 0.54107 0.1898 0.0
H383 H 0.25629 0.52657 0.10138 0.0
H384 H 0.2965 0.5539 0.0893 0.0
H385 H 0.26979 0.57818 0.10357 0.0
C386 C 0.8283 0.2182 0.48261 0.0
C387 C 0.82748 0.20964 0.50281 0.0
C388 C 0.85457 0.2508 0.47618 0.0
C389 C 0.88052 0.27555 0.49032 0.0
C390 C 0.8797 0.26722 0.51075 0.0
C391 C 0.85325 0.23424 0.51676 0.0
C392 C 0.85477 0.25856 0.45424 0.0
C393 C 0.90672 0.29314 0.52625 0.0
C394 C 0.96992 0.33847 0.47106 0.0
C395 C 0.96029 0.37353 0.46811 0.0
C396 C 0.94453 0.30656 0.4787 0.0
C397 C 0.90874 0.30991 0.48359 0.0
C398 C 0.89928 0.34556 0.48119 0.0
C399 C 0.92514 0.37693 0.47341 0.0
C400 C 0.95553 0.26893 0.48094 0.0
C401 C 0.86151 0.35031 0.48642 0.0
H402 H 0.80874 0.19899 0.47177 0.0
H403 H 0.8524 0.22793 0.53241 0.0
H404 H 0.85009 0.28748 0.45134 0.0
H405 H 0.88284 0.25885 0.44921 0.0
H406 H 0.8326 0.23655 0.4452 0.0
H407 H 0.90208 0.28286 0.54155 0.0
H408 H 0.93641 0.29465 0.52342 0.0
H409 H 0.90337 0.32299 0.52533 0.0
H410 H 0.99687 0.33557 0.46677 0.0
H411 H 0.91779 0.40414 0.47136 0.0
H412 H 0.9361 0.24635 0.47096 0.0
H413 H 0.95266 0.25876 0.49635 0.0
H414 H 0.98508 0.27164 0.47735 0.0
H415 H 0.83831 0.33096 0.4767 0.0
H416 H 0.85939 0.38052 0.48472 0.0
H417 H 0.8569 0.34176 0.50195 0.0
C418 C 0.50389 0.57307 0.83906 0.0
C419 C 0.53739 0.5612 0.83863 0.0
C420 C 0.50387 0.61199 0.83655 0.0
C421 C 0.53818 0.63984 0.8336 0.0
C422 C 0.57228 0.62825 0.83375 0.0
C423 C 0.57144 0.58909 0.83616 0.0
C424 C 0.4668 0.62292 0.83624 0.0
C425 C 0.60955 0.65709 0.8309 0.0
C426 C 0.53573 0.73023 0.80483 0.0
C427 C 0.54151 0.75838 0.82005 0.0
C428 C 0.5337 0.69147 0.80908 0.0
C429 C 0.53815 0.68058 0.82907 0.0
C430 C 0.54342 0.70878 0.84455 0.0
C431 C 0.54472 0.74733 0.83986 0.0
C432 C 0.52723 0.66223 0.79214 0.0
C433 C 0.54845 0.69834 0.86603 0.0
H434 H 0.47734 0.55178 0.84081 0.0
H435 H 0.59751 0.5803 0.83592 0.0
H436 H 0.46999 0.6495 0.84539 0.0
H437 H 0.45787 0.62913 0.82078 0.0
H438 H 0.44394 0.59944 0.84174 0.0
H439 H 0.63388 0.64399 0.83277 0.0
H440 H 0.60854 0.66899 0.81579 0.0
H441 H 0.61464 0.68173 0.84167 0.0
H442 H 0.53276 0.73862 0.7895 0.0
H443 H 0.54936 0.76909 0.85164 0.0
H444 H 0.50202 0.63798 0.79419 0.0
H445 H 0.55193 0.64984 0.79199 0.0
H446 H 0.52291 0.67509 0.77749 0.0
H447 H 0.52382 0.67479 0.86972 0.0
H448 H 0.5515 0.7234 0.87633 0.0
H449 H 0.57402 0.68736 0.86857 0.0
C450 C 0.92973 0.58201 0.1529 0.0
C451 C 0.94014 0.55157 0.1437 0.0
C452 C 0.89137 0.58256 0.15285 0.0
C453 C 0.86239 0.552 0.14334 0.0
C454 C 0.87269 0.52108 0.13415 0.0
C455 C 0.9112 0.52121 0.13446 0.0
C456 C 0.88187 0.61605 0.16288 0.0
C457 C 0.84296 0.48788 0.12381 0.0
C458 C 0.75949 0.53471 0.15619 0.0
C459 C 0.7432 0.55201 0.14037 0.0
C460 C 0.79817 0.53495 0.15751 0.0
C461 C 0.82142 0.55269 0.14259 0.0
C462 C 0.80523 0.57042 0.12667 0.0
C463 C 0.76656 0.56992 0.12577 0.0
C464 C 0.81413 0.51592 0.17482 0.0
C465 C 0.82863 0.58939 0.11032 0.0
H466 H 0.9516 0.60562 0.16013 0.0
H467 H 0.91861 0.49741 0.12734 0.0
H468 H 0.86738 0.63142 0.15185 0.0
H469 H 0.86198 0.60524 0.17433 0.0
H470 H 0.90745 0.6371 0.17005 0.0
H471 H 0.85542 0.46572 0.11764 0.0
H472 H 0.82224 0.47378 0.13432 0.0
H473 H 0.82701 0.4989 0.1115 0.0
H474 H 0.74198 0.52107 0.16766 0.0
H475 H 0.75437 0.58279 0.11327 0.0
H476 H 0.83857 0.53704 0.18286 0.0
H477 H 0.82479 0.49188 0.16936 0.0
H478 H 0.79273 0.50424 0.18546 0.0
H479 H 0.85365 0.61211 0.1167 0.0
H480 H 0.81217 0.60271 0.09921 0.0
H481 H 0.8394 0.56765 0.10258 0.0
C482 C 0.33092 0.8521 0.49129 0.0
C483 C 0.36985 0.85449 0.49241 0.0
C484 C 0.30378 0.81736 0.48569 0.0
C485 C 0.31581 0.78405 0.48132 0.0
C486 C 0.35496 0.78594 0.48292 0.0
C487 C 0.38151 0.82118 0.48832 0.0
C488 C 0.26227 0.81651 0.48405 0.0
C489 C 0.36884 0.75094 0.4785 0.0
C490 C 0.24329 0.68619 0.48048 0.0
C491 C 0.23336 0.67949 0.46006 0.0
C492 C 0.2704 0.71997 0.48766 0.0
C493 C 0.2875 0.74779 0.47408 0.0
C494 C 0.2774 0.7412 0.45345 0.0
C495 C 0.25057 0.70706 0.4467 0.0
C496 C 0.28082 0.72586 0.50974 0.0
C497 C 0.29465 0.77039 0.43851 0.0
H498 H 0.3216 0.87746 0.49479 0.0
H499 H 0.41149 0.8228 0.4889 0.0
H500 H 0.24994 0.80926 0.46852 0.0
H501 H 0.24657 0.79368 0.49353 0.0
H502 H 0.25756 0.84463 0.48851 0.0
H503 H 0.40002 0.75653 0.48174 0.0
H504 H 0.35468 0.72619 0.48738 0.0
H505 H 0.36141 0.74214 0.46261 0.0
H506 H 0.23018 0.66477 0.49082 0.0
H507 H 0.24251 0.70219 0.43091 0.0
H508 H 0.27458 0.75271 0.51497 0.0
H509 H 0.3117 0.72947 0.51307 0.0
H510 H 0.26523 0.70125 0.5183 0.0
H511 H 0.28859 0.7985 0.44158 0.0
H512 H 0.28364 0.76087 0.423 0.0
H513 H 0.32592 0.77543 0.43984 0.0
C514 C 0.55589 0.31047 0.85193 0.0
C515 C 0.52771 0.3232 0.84068 0.0
C516 C 0.55733 0.27174 0.85086 0.0
C517 C 0.53002 0.24498 0.83818 0.0
C518 C 0.50079 0.25732 0.82727 0.0
C519 C 0.49994 0.29624 0.82867 0.0
C520 C 0.58889 0.25978 0.86279 0.0
C521 C 0.47117 0.2297 0.81356 0.0
C522 C 0.55997 0.16001 0.81749 0.0
C523 C 0.54251 0.12957 0.82938 0.0
C524 C 0.55598 0.19751 0.8202 0.0
C525 C 0.53388 0.20498 0.83516 0.0
C526 C 0.51601 0.17444 0.84719 0.0
C527 C 0.52045 0.13705 0.84413 0.0
C528 C 0.57537 0.22915 0.80696 0.0
C529 C 0.49233 0.18132 0.86333 0.0
H530 H 0.57735 0.33093 0.86137 0.0
H531 H 0.478 0.30569 0.81996 0.0
H532 H 0.5771 0.23399 0.87157 0.0
H533 H 0.60787 0.25163 0.8526 0.0
H534 H 0.60613 0.28325 0.87307 0.0
H535 H 0.44875 0.24303 0.80726 0.0
H536 H 0.48483 0.22024 0.80113 0.0
H537 H 0.45765 0.20343 0.82159 0.0
H538 H 0.57633 0.15438 0.80575 0.0
H539 H 0.50697 0.11374 0.8534 0.0
H540 H 0.59526 0.25285 0.8161 0.0
H541 H 0.55404 0.24168 0.79882 0.0
H542 H 0.59145 0.21854 0.79598 0.0
H543 H 0.5099 0.2033 0.87425 0.0
H544 H 0.48004 0.15449 0.8713 0.0
H545 H 0.46888 0.19295 0.85688 0.0
C546 C 0.63483 0.90727 0.51997 0.0
C547 C 0.60077 0.91798 0.52049 0.0
C548 C 0.63582 0.86854 0.52208 0.0
C549 C 0.60194 0.83979 0.52471 0.0
C550 C 0.56725 0.85018 0.52451 0.0
C551 C 0.5671 0.8891 0.52245 0.0
C552 C 0.67338 0.85863 0.52224 0.0
C553 C 0.53044 0.82039 0.52716 0.0
C554 C 0.59952 0.73339 0.51849 0.0
C555 C 0.60503 0.7229 0.53828 0.0
C556 C 0.59854 0.77135 0.51378 0.0
C557 C 0.60319 0.79945 0.52922 0.0
C558 C 0.60877 0.78903 0.5492 0.0
C559 C 0.60947 0.75096 0.55347 0.0
C560 C 0.59246 0.7814 0.49231 0.0
C561 C 0.61373 0.81806 0.56613 0.0
H562 H 0.66099 0.92926 0.51841 0.0
H563 H 0.54055 0.89692 0.5227 0.0
H564 H 0.68098 0.84861 0.53716 0.0
H565 H 0.67129 0.83459 0.51146 0.0
H566 H 0.69664 0.88373 0.51855 0.0
H567 H 0.50555 0.8326 0.52502 0.0
H568 H 0.52631 0.79574 0.51649 0.0
H569 H 0.53144 0.80871 0.54231 0.0
H570 H 0.59632 0.712 0.50666 0.0
H571 H 0.61288 0.74299 0.56883 0.0
H572 H 0.6167 0.80513 0.48834 0.0
H573 H 0.56664 0.79202 0.49 0.0
H574 H 0.58934 0.75628 0.48204 0.0
H575 H 0.6382 0.84319 0.56417 0.0
H576 H 0.61846 0.80548 0.58081 0.0
H577 H 0.5882 0.82914 0.56615 0.0
C578 C 0.76838 0.61578 0.80839 0.0
C579 C 0.77473 0.5811 0.81561 0.0
C580 C 0.79878 0.64881 0.80708 0.0
C581 C 0.83589 0.64734 0.81393 0.0
C582 C 0.84274 0.61128 0.81903 0.0
C583 C 0.81212 0.57848 0.81932 0.0
C584 C 0.79047 0.68572 0.79982 0.0
C585 C 0.88187 0.6079 0.82622 0.0
C586 C 0.93192 0.71841 0.81875 0.0
C587 C 0.93421 0.72881 0.83893 0.0
C588 C 0.89759 0.69629 0.80906 0.0
C589 C 0.86576 0.68325 0.82012 0.0
C590 C 0.86671 0.69851 0.83957 0.0
C591 C 0.90081 0.7219 0.84855 0.0
C592 C 0.89665 0.6839 0.78766 0.0
C593 C 0.8333 0.68617 0.85191 0.0
H594 H 0.73966 0.61808 0.80503 0.0
H595 H 0.81733 0.55125 0.82392 0.0
H596 H 0.77979 0.6997 0.81194 0.0
H597 H 0.816 0.70643 0.79483 0.0
H598 H 0.76788 0.67933 0.78733 0.0
H599 H 0.88219 0.57765 0.82959 0.0
H600 H 0.90188 0.61843 0.81483 0.0
H601 H 0.89257 0.62609 0.83988 0.0
H602 H 0.95743 0.72446 0.81099 0.0
H603 H 0.90226 0.73136 0.86391 0.0
H604 H 0.86741 0.67656 0.78024 0.0
H605 H 0.90787 0.65811 0.78686 0.0
H606 H 0.91501 0.70718 0.77938 0.0
H607 H 0.80769 0.69171 0.84393 0.0
H608 H 0.83846 0.70164 0.86656 0.0
H609 H 0.8272 0.65463 0.85449 0.0
C610 C 0.27473 0.76272 0.1766 0.0
C611 C 0.24212 0.77621 0.17342 0.0
C612 C 0.31049 0.78835 0.18162 0.0
C613 C 0.31375 0.82843 0.18375 0.0
C614 C 0.28109 0.84231 0.18042 0.0
C615 C 0.24574 0.8161 0.17519 0.0
C616 C 0.34471 0.77244 0.18496 0.0
C617 C 0.28337 0.88483 0.18267 0.0
C618 C 0.39723 0.88844 0.21698 0.0
C619 C 0.42167 0.90722 0.2031 0.0
C620 C 0.36202 0.86288 0.21086 0.0
C621 C 0.35106 0.85563 0.19034 0.0
C622 C 0.37562 0.87444 0.17622 0.0
C623 C 0.41059 0.90025 0.18278 0.0
C624 C 0.33645 0.84381 0.22637 0.0
C625 C 0.36506 0.86711 0.15423 0.0
H626 H 0.27224 0.73196 0.17554 0.0
H627 H 0.2209 0.82693 0.17241 0.0
H628 H 0.36713 0.78751 0.17555 0.0
H629 H 0.35667 0.77775 0.20065 0.0
H630 H 0.33775 0.74087 0.18157 0.0
H631 H 0.25545 0.89105 0.1792 0.0
H632 H 0.29408 0.89506 0.19811 0.0
H633 H 0.30373 0.90184 0.17272 0.0
H634 H 0.40544 0.89422 0.2327 0.0
H635 H 0.42953 0.91455 0.17203 0.0
H636 H 0.33042 0.81189 0.22482 0.0
H637 H 0.3089 0.85124 0.22416 0.0
H638 H 0.3491 0.85274 0.24172 0.0
H639 H 0.3601 0.83586 0.15058 0.0
H640 H 0.3874 0.88385 0.14518 0.0
H641 H 0.33823 0.87494 0.14989 0.0
C642 C 0.62995 0.18275 0.52907 0.0
C643 C 0.59839 0.15431 0.52062 0.0
C644 C 0.62914 0.2216 0.53065 0.0
C645 C 0.59598 0.23236 0.52363 0.0
C646 C 0.56448 0.20407 0.51451 0.0
C647 C 0.56605 0.16542 0.51312 0.0
C648 C 0.66334 0.25091 0.54045 0.0
C649 C 0.52862 0.21439 0.50682 0.0
C650 C 0.57646 0.31939 0.54841 0.0
C651 C 0.58717 0.34834 0.53449 0.0
C652 C 0.57919 0.28167 0.545 0.0
C653 C 0.59311 0.27249 0.52724 0.0
C654 C 0.60416 0.30152 0.51312 0.0
C655 C 0.60115 0.33918 0.51694 0.0
C656 C 0.56733 0.25167 0.56051 0.0
C657 C 0.61907 0.29275 0.49399 0.0
H658 H 0.65521 0.17461 0.53478 0.0
H659 H 0.54157 0.1438 0.50646 0.0
H660 H 0.67201 0.27609 0.53078 0.0
H661 H 0.65605 0.26187 0.55455 0.0
H662 H 0.68787 0.23852 0.54377 0.0
H663 H 0.50774 0.18969 0.49882 0.0
H664 H 0.51524 0.22373 0.51939 0.0
H665 H 0.53528 0.23901 0.49663 0.0
H666 H 0.56643 0.32641 0.56222 0.0
H667 H 0.60935 0.36136 0.50609 0.0
H668 H 0.59162 0.24021 0.56582 0.0
H669 H 0.54449 0.22693 0.55392 0.0
H670 H 0.55695 0.26348 0.5735 0.0
H671 H 0.64459 0.28197 0.49726 0.0
H672 H 0.62658 0.31854 0.48458 0.0
H673 H 0.59748 0.26952 0.48541 0.0
C674 C 0.35957 0.57533 0.81533 0.0
C675 C 0.33588 0.53747 0.81484 0.0
C676 C 0.345 0.60739 0.81771 0.0
C677 C 0.30592 0.60135 0.81996 0.0
C678 C 0.28143 0.56349 0.81787 0.0
C679 C 0.29668 0.53206 0.81515 0.0
C680 C 0.37213 0.64726 0.81936 0.0
C681 C 0.2395 0.5558 0.82008 0.0
C682 C 0.27227 0.66449 0.85521 0.0
C683 C 0.25244 0.684 0.84212 0.0
C684 C 0.29161 0.63908 0.8481 0.0
C685 C 0.2913 0.63319 0.82737 0.0
C686 C 0.27369 0.65489 0.81405 0.0
C687 C 0.25412 0.67988 0.8216 0.0
C688 C 0.31034 0.61669 0.8628 0.0
C689 C 0.27411 0.65042 0.79189 0.0
H690 H 0.38989 0.58001 0.81505 0.0
H691 H 0.27802 0.50301 0.81418 0.0
H692 H 0.35818 0.66987 0.81417 0.0
H693 H 0.38306 0.65391 0.83514 0.0
H694 H 0.39679 0.64876 0.81064 0.0
H695 H 0.22388 0.52532 0.81621 0.0
H696 H 0.2352 0.56203 0.83568 0.0
H697 H 0.22697 0.57512 0.81051 0.0
H698 H 0.27076 0.66724 0.87107 0.0
H699 H 0.23921 0.69533 0.81145 0.0
H700 H 0.34026 0.62013 0.85976 0.0
H701 H 0.29559 0.58541 0.8612 0.0
H702 H 0.3098 0.6262 0.8784 0.0
H703 H 0.30329 0.65212 0.788 0.0
H704 H 0.26352 0.67287 0.78371 0.0
H705 H 0.25597 0.62155 0.78677 0.0
C706 C 0.88243 0.31255 0.17901 0.0
C707 C 0.88677 0.3164 0.15865 0.0
C708 C 0.85137 0.28543 0.18588 0.0
C709 C 0.82382 0.26167 0.17205 0.0
C710 C 0.82799 0.26543 0.15146 0.0
C711 C 0.8595 0.29266 0.14501 0.0
C712 C 0.84812 0.28209 0.20796 0.0
C713 C 0.79906 0.24085 0.13626 0.0
C714 C 0.7622 0.16869 0.1912 0.0
C715 C 0.72941 0.17971 0.19495 0.0
C716 C 0.79289 0.19487 0.18343 0.0
C717 C 0.79067 0.23293 0.17921 0.0
C718 C 0.75729 0.24394 0.18251 0.0
C719 C 0.72712 0.21724 0.1904 0.0
C720 C 0.82808 0.1821 0.18024 0.0
C721 C 0.75369 0.28414 0.17804 0.0
H722 H 0.90367 0.33047 0.18963 0.0
H723 H 0.86251 0.2958 0.12924 0.0
H724 H 0.82123 0.28791 0.2117 0.0
H725 H 0.84734 0.2522 0.21254 0.0
H726 H 0.87208 0.30254 0.21676 0.0
H727 H 0.80642 0.24734 0.12081 0.0
H728 H 0.79664 0.20976 0.13881 0.0
H729 H 0.77076 0.24564 0.13784 0.0
H730 H 0.76433 0.13989 0.19491 0.0
H731 H 0.70167 0.22576 0.19305 0.0
H732 H 0.85248 0.19973 0.18993 0.0
H733 H 0.83518 0.18686 0.16466 0.0
H734 H 0.82474 0.15109 0.18354 0.0
H735 H 0.77534 0.30572 0.18755 0.0
H736 H 0.72522 0.28759 0.18059 0.0
H737 H 0.75907 0.29091 0.16237 0.0
C738 C 0.08943 0.56133 0.07325 0.0
C739 C 0.06224 0.5728 0.08342 0.0
C740 C 0.09821 0.57571 0.05443 0.0
C741 C 0.07876 0.60151 0.04549 0.0
C742 C 1.0503 0.61198 0.05541 0.0
C743 C 1.04267 0.59781 0.07435 0.0
C744 C 0.12913 0.56438 0.04444 0.0
C745 C 1.02835 0.63875 0.04619 0.0
C746 C 0.12084 0.67272 0.00674 0.0
C747 C 0.10089 0.65468 0.98915 0.0
C748 C 0.11517 0.6549 0.02511 0.0
C749 C 0.08854 0.61842 0.02595 0.0
C750 C 0.0693 0.59946 0.0082 0.0
C751 C 0.07598 0.61763 0.99003 0.0
C752 C 0.13665 0.67577 0.04371 0.0
C753 C 1.04054 0.56065 0.00849 0.0
H754 H 0.10491 0.54231 0.08033 0.0
H755 H 1.0215 0.60658 0.08214 0.0
H756 H 0.11832 0.55207 0.02935 0.0
H757 H 0.15277 0.59043 0.04268 0.0
H758 H 0.14051 0.54288 0.05301 0.0
H759 H 1.00581 0.64245 0.05542 0.0
H760 H 1.0479 0.6676 0.04417 0.0
H761 H 1.01503 0.62736 0.03128 0.0
H762 H 0.13994 0.70139 0.00628 0.0
H763 H 0.06115 0.60297 0.97648 0.0
H764 H 0.15018 0.65627 0.05261 0.0
H765 H 0.11668 0.68453 0.05304 0.0
H766 H 0.15891 0.70205 0.04037 0.0
H767 H 1.05318 0.53954 0.01657 0.0
H768 H 1.02963 0.54874 0.99331 0.0
H769 H 1.01624 0.56358 0.01651 0.0
C770 C 0.57558 0.01575 0.44594 0.0
C771 C 0.60427 0.04028 0.45857 0.0
C772 C 0.57615 0.01749 0.42524 0.0
C773 C 0.60616 0.04438 0.41695 0.0
C774 C 0.63526 0.06913 0.4296 0.0
C775 C 0.63397 0.0668 0.45025 0.0
C776 C 0.54459 0.99062 0.41222 0.0
C777 C 0.66773 0.09814 0.4213 0.0
C778 C 0.62476 0.02451 0.36404 0.0
C779 C 0.60651 0.04886 0.35327 0.0
C780 C 0.62523 0.02308 0.3848 0.0
C781 C 0.60701 0.04657 0.39503 0.0
C782 C 0.58902 0.07162 0.38428 0.0
C783 C 0.58899 0.07247 0.36353 0.0
C784 C 0.64488 0.99614 0.39576 0.0
C785 C 0.56922 0.09704 0.39467 0.0
H786 H 0.55251 0.9952 0.45222 0.0
H787 H 0.65629 0.08587 0.45988 0.0
H788 H 0.52992 0.00769 0.40227 0.0
H789 H 0.55647 0.9724 0.40263 0.0
H790 H 0.52334 0.97137 0.42099 0.0
H791 H 0.68824 0.11513 0.43316 0.0
H792 H 0.68306 0.08305 0.4119 0.0
H793 H 0.65667 0.11846 0.41169 0.0
H794 H 0.63878 0.00657 0.35622 0.0
H795 H 0.57444 0.09099 0.35527 0.0
H796 H 0.62417 0.97466 0.4038 0.0
H797 H 0.66699 0.01271 0.40702 0.0
H798 H 0.65837 0.98036 0.38564 0.0
H799 H 0.54569 0.07882 0.40245 0.0
H800 H 0.55748 0.11568 0.38422 0.0
H801 H 0.58924 0.11582 0.4061 0.0
C802 C 0.52219 0.49109 0.77116 0.0
C803 C 0.53727 0.46191 0.77941 0.0
C804 C 0.52676 0.50165 0.75137 0.0
C805 C 0.54595 0.48181 0.73947 0.0
C806 C 0.56057 0.4518 0.74765 0.0
C807 C 0.5565 0.44257 0.76763 0.0
C808 C 0.51165 0.53445 0.74333 0.0
C809 C 0.58047 0.42942 0.73529 0.0
C810 C 0.52864 0.48441 0.68341 0.0
C811 C 0.5623 0.5102 0.67854 0.0
C812 C 0.52284 0.47499 0.70323 0.0
C813 C 0.55105 0.49255 0.71848 0.0
C814 C 0.58464 0.51954 0.71363 0.0
C815 C 0.59009 0.52765 0.69364 0.0
C816 C 0.48704 0.44548 0.70779 0.0
C817 C 0.61494 0.53954 0.72953 0.0
H818 H 0.50769 0.5064 0.78033 0.0
H819 H 0.56802 0.41989 0.77399 0.0
H820 H 0.53511 0.5575 0.73804 0.0
H821 H 0.49068 0.52407 0.73039 0.0
H822 H 0.4979 0.54729 0.75463 0.0
H823 H 0.5888 0.4059 0.74368 0.0
H824 H 0.56172 0.41654 0.7219 0.0
H825 H 0.60632 0.4492 0.7301 0.0
H826 H 0.50737 0.47072 0.67163 0.0
H827 H 0.61603 0.54773 0.68978 0.0
H828 H 0.47156 0.45816 0.71824 0.0
H829 H 0.49438 0.42045 0.71516 0.0
H830 H 0.46778 0.43477 0.69422 0.0
H831 H 0.60241 0.554 0.7407 0.0
H832 H 0.63827 0.56147 0.72335 0.0
H833 H 0.62715 0.51793 0.73743 0.0
C834 C 0.62512 0.02352 0.5935 0.0
C835 C 0.59391 0.02684 0.58083 0.0
C836 C 0.62188 0.01692 0.6138 0.0
C837 C 0.58644 0.01299 0.62154 0.0
C838 C 0.55489 0.01656 0.60885 0.0
C839 C 0.55907 0.02372 0.58866 0.0
C840 C 0.65631 0.01387 0.62694 0.0
C841 C 0.51654 0.01209 0.61652 0.0
C842 C 0.56923 0.95825 0.66933 0.0
C843 C 0.57467 0.98849 0.68342 0.0
C844 C 0.57267 0.96582 0.64912 0.0
C845 C 0.58226 0.00457 0.64287 0.0
C846 C 0.58796 0.03524 0.65698 0.0
C847 C 0.58383 0.02684 0.67705 0.0
C848 C 0.56611 0.93232 0.63447 0.0
C849 C 0.59848 0.07695 0.65088 0.0
H850 H 0.65218 0.0261 0.58756 0.0
H851 H 0.53476 0.02599 0.57892 0.0
H852 H 0.66192 0.03525 0.63947 0.0
H853 H 0.65101 0.98474 0.63343 0.0
H854 H 0.68209 0.01888 0.61874 0.0
H855 H 0.49494 0.01605 0.60475 0.0
H856 H 0.50653 0.9829 0.62271 0.0
H857 H 0.51869 0.03347 0.62875 0.0
H858 H 0.56272 0.92858 0.67411 0.0
H859 H 0.58743 0.05039 0.68774 0.0
H860 H 0.59223 0.93409 0.62696 0.0
H861 H 0.54342 0.93378 0.6228 0.0
H862 H 0.55791 0.90387 0.64167 0.0
H863 H 0.62501 0.08322 0.6433 0.0
H864 H 0.60262 0.09746 0.66374 0.0
H865 H 0.57596 0.08233 0.64013 0.0
C866 C 0.56168 0.45188 0.91448 0.0
C867 C 0.52798 0.43993 0.90201 0.0
C868 C 0.561 0.45632 0.93504 0.0
C869 C 0.52573 0.44913 0.94332 0.0
C870 C 0.49159 0.43611 0.9309 0.0
C871 C 0.49313 0.43139 0.91038 0.0
C872 C 0.59804 0.46973 0.94782 0.0
C873 C 0.45346 0.42858 0.93918 0.0
C874 C 0.52596 0.43724 -0.00083 0.0
C875 C 0.52732 0.47481 0.00578 0.0
C876 C 0.52491 0.42826 0.97886 0.0
C877 C 0.52476 0.45741 0.96481 0.0
C878 C 0.52528 0.49513 0.97132 0.0
C879 C 0.52685 0.50343 0.9917 0.0
C880 C 0.52467 0.38778 0.97246 0.0
C881 C 0.52494 0.52698 0.95678 0.0
H882 H 0.58874 0.45821 0.90814 0.0
H883 H 0.46697 0.42233 0.90081 0.0
H884 H 0.60048 0.49874 0.95445 0.0
H885 H 0.59891 0.44974 0.96024 0.0
H886 H 0.62298 0.4715 0.93928 0.0
H887 H 0.42965 0.41644 0.92775 0.0
H888 H 0.45184 0.40819 0.95158 0.0
H889 H 0.44974 0.456 0.94527 0.0
H890 H 0.5257 0.41476 0.00988 0.0
H891 H 0.52856 0.5327 -0.00338 0.0
H892 H 0.55037 0.38859 0.96474 0.0
H893 H 0.49974 0.37544 0.96176 0.0
H894 H 0.52392 0.36817 0.98521 0.0
H895 H 0.5511 0.53331 0.94889 0.0
H896 H 0.52318 0.55411 0.96417 0.0
H897 H 0.50052 0.5176 0.94541 0.0
C898 C 1.03465 0.50042 0.2117 0.0
C899 C 0.06022 0.53194 0.20384 0.0
C900 C 1.03479 0.49527 0.23228 0.0
C901 C 0.06113 0.52226 0.24528 0.0
C902 C 0.08717 0.55395 0.23744 0.0
C903 C 0.08641 0.55841 0.21683 0.0
C904 C 1.00662 0.46111 0.24011 0.0
C905 C 0.11572 0.58333 0.25085 0.0
C906 C 1.04164 0.53321 0.29893 0.0
C907 C 0.06559 0.51328 0.30887 0.0
C908 C 1.03927 0.53563 0.27817 0.0
C909 C 0.0614 0.5177 0.26712 0.0
C910 C 0.08497 0.4968 0.27702 0.0
C911 C 0.08678 0.49484 0.29779 0.0
C912 C 1.01385 0.55824 0.26812 0.0
C913 C 0.10885 0.47716 0.26572 0.0
H914 H 1.01432 0.47981 0.20178 0.0
H915 H 0.1063 0.58283 0.21091 0.0
H916 H 1.02176 0.44332 0.24929 0.0
H917 H 0.98819 0.4714 0.24985 0.0
H918 H 0.98837 0.44244 0.22801 0.0
H919 H 0.13423 0.60614 0.24238 0.0
H920 H 0.10082 0.59737 0.26102 0.0
H921 H 0.13388 0.56873 0.26019 0.0
H922 H 1.02554 0.54789 0.30742 0.0
H923 H 0.10492 0.47893 0.30538 0.0
H924 H 0.99399 0.53999 0.25646 0.0
H925 H 1.03124 0.58349 0.26071 0.0
H926 H 0.9971 0.56884 0.27875 0.0
H927 H 0.09072 0.45701 0.25417 0.0
H928 H 0.12448 0.46072 0.27557 0.0
H929 H 0.12971 0.49909 0.25799 0.0
loop_
_geom_bond_atom_site_label_1
_geom_bond_atom_site_label_2
_geom_bond_distance
_geom_bond_site_symmetry_2
_ccdc_geom_bond_type
Dy0 O3 2.307 1_455 S
Dy0 O5 2.395 . S
Dy0 O6 2.379 . S
Dy0 O8 2.339 . S
Dy0 O10 2.298 . S
Dy0 O14 2.275 . S
Dy0 C22 2.738 . S
Dy1 O4 2.298 . S
Dy1 O7 2.275 1_655 S
Dy1 O9 2.307 1_655 S
Dy1 O11 2.395 . S
Dy1 O12 2.379 . S
Dy1 O15 2.339 . S
Dy1 C31 2.738 . S
C2 O14 1.254 . S
C2 O15 1.257 1_455 S
O3 Dy0 2.307 1_655 S
O3 C13 1.266 . S
O4 Dy1 2.298 . S
O4 C13 1.236 . S
O5 Dy0 2.395 . S
O5 C22 1.255 . S
O6 Dy0 2.379 . S
O6 C22 1.249 . S
O7 Dy1 2.275 1_455 S
O7 C23 1.254 . S
O8 Dy0 2.339 . S
O8 C23 1.257 . S
O9 Dy1 2.307 1_455 S
O9 C24 1.266 . S
O10 Dy0 2.298 . S
O10 C24 1.236 . S
O11 Dy1 2.395 . S
O11 C31 1.255 . S
O12 Dy1 2.379 . S
O12 C31 1.249 . S
C13 O3 1.266 . S
C13 O4 1.236 . S
O14 Dy0 2.275 . S
O14 C2 1.254 . S
O15 Dy1 2.339 . S
O15 C2 1.257 1_655 S
C16 C19 1.344 . S
C16 C20 1.328 . S
C16 C22 1.516 . S
C17 C18 1.304 . S
C17 C21 1.323 . S
C18 C17 1.304 . S
C18 C19 1.371 . S
C18 H32 0.930 . S
C19 C16 1.344 . S
C19 C18 1.371 . S
C19 H33 0.931 . S
C20 C16 1.328 . S
C20 C21 1.433 . S
C20 H34 0.931 . S
C21 C17 1.323 . S
C21 C20 1.433 . S
C21 H35 0.933 . S
C22 Dy0 2.738 . S
C22 O5 1.255 . S
C22 O6 1.249 . S
C22 C16 1.516 . S
C23 O7 1.254 . S
C23 O8 1.257 . S
C24 O9 1.266 . S
C24 O10 1.236 . S
C25 C28 1.344 . S
C25 C29 1.328 . S
C25 C31 1.516 . S
C26 C27 1.304 . S
C26 C30 1.323 . S
C27 C26 1.304 . S
C27 C28 1.371 . S
C27 H36 0.930 . S
C28 C25 1.344 . S
C28 C27 1.371 . S
C28 H37 0.931 . S
C29 C25 1.328 . S
C29 C30 1.433 . S
C29 H38 0.931 . S
C30 C26 1.323 . S
C30 C29 1.433 . S
C30 H39 0.933 . S
C31 Dy1 2.738 . S
C31 O11 1.255 . S
C31 O12 1.249 . S
C31 C25 1.516 . S
H32 C18 0.930 . S
H33 C19 0.931 . S
H34 C20 0.931 . S
H35 C21 0.933 . S
H36 C27 0.930 . S
H37 C28 0.931 . S
H38 C29 0.931 . S
H39 C30 0.933 . S
Dy40 O43 2.307 . S
Dy40 O45 2.395 1_545 S
Dy40 O46 2.379 1_545 S
Dy40 O48 2.339 . S
Dy40 O50 2.298 1_545 S
Dy40 O54 2.275 . S
Dy40 C62 2.738 1_545 S
Dy41 O44 2.298 . S
Dy41 O47 2.275 . S
Dy41 O49 2.307 1_545 S
Dy41 O51 2.395 . S
Dy41 O52 2.379 . S
Dy41 O55 2.339 . S
Dy41 C71 2.738 . S
C42 O54 1.254 . S
C42 O55 1.257 . S
O43 Dy40 2.307 . S
O43 C53 1.266 . S
O44 Dy41 2.298 . S
O44 C53 1.236 . S
O45 Dy40 2.395 1_565 S
O45 C62 1.255 . S
O46 Dy40 2.379 1_565 S
O46 C62 1.249 . S
O47 Dy41 2.275 . S
O47 C63 1.254 . S
O48 Dy40 2.339 . S
O48 C63 1.257 . S
O49 Dy41 2.307 1_565 S
O49 C64 1.266 . S
O50 Dy40 2.298 1_565 S
O50 C64 1.236 . S
O51 Dy41 2.395 . S
O51 C71 1.255 . S
O52 Dy41 2.379 . S
O52 C71 1.249 . S
C53 O43 1.266 . S
C53 O44 1.236 . S
O54 Dy40 2.275 . S
O54 C42 1.254 . S
O55 Dy41 2.339 . S
O55 C42 1.257 . S
C56 C59 1.344 . S
C56 C60 1.328 . S
C56 C62 1.516 . S
C57 C58 1.304 . S
C57 C61 1.323 . S
C58 C57 1.304 . S
C58 C59 1.371 . S
C58 H72 0.930 . S
C59 C56 1.344 . S
C59 C58 1.371 . S
C59 H73 0.931 . S
C60 C56 1.328 . S
C60 C61 1.433 . S
C60 H74 0.931 . S
C61 C57 1.323 . S
C61 C60 1.433 . S
C61 H75 0.933 . S
C62 Dy40 2.738 1_565 S
C62 O45 1.255 . S
C62 O46 1.249 . S
C62 C56 1.516 . S
C63 O47 1.254 . S
C63 O48 1.257 . S
C64 O49 1.266 . S
C64 O50 1.236 . S
C65 C68 1.344 . S
C65 C69 1.328 . S
C65 C71 1.516 . S
C66 C67 1.304 . S
C66 C70 1.323 . S
C67 C66 1.304 . S
C67 C68 1.371 . S
C67 H76 0.930 . S
C68 C65 1.344 . S
C68 C67 1.371 . S
C68 H77 0.931 . S
C69 C65 1.328 . S
C69 C70 1.433 . S
C69 H78 0.931 . S
C70 C66 1.323 . S
C70 C69 1.433 . S
C70 H79 0.933 . S
C71 Dy41 2.738 . S
C71 O51 1.255 . S
C71 O52 1.249 . S
C71 C65 1.516 . S
H72 C58 0.930 . S
H73 C59 0.931 . S
H74 C60 0.931 . S
H75 C61 0.933 . S
H76 C67 0.930 . S
H77 C68 0.931 . S
H78 C69 0.931 . S
H79 C70 0.933 . S
Dy80 O83 2.307 . S
Dy80 O85 2.395 . S
Dy80 O86 2.379 . S
Dy80 O88 2.339 . S
Dy80 O90 2.298 . S
Dy80 O94 2.275 . S
Dy80 C102 2.738 . S
Dy81 O84 2.298 . S
Dy81 O87 2.275 . S
Dy81 O89 2.307 . S
Dy81 O91 2.395 . S
Dy81 O92 2.379 . S
Dy81 O95 2.339 . S
Dy81 C111 2.738 . S
C82 O94 1.254 . S
C82 O95 1.257 . S
O83 Dy80 2.307 . S
O83 C93 1.266 . S
O84 Dy81 2.298 . S
O84 C93 1.236 . S
O85 Dy80 2.395 . S
O85 C102 1.255 . S
O86 Dy80 2.379 . S
O86 C102 1.249 . S
O87 Dy81 2.275 . S
O87 C103 1.254 . S
O88 Dy80 2.339 . S
O88 C103 1.257 . S
O89 Dy81 2.307 . S
O89 C104 1.266 . S
O90 Dy80 2.298 . S
O90 C104 1.236 . S
O91 Dy81 2.395 . S
O91 C111 1.255 . S
O92 Dy81 2.379 . S
O92 C111 1.249 . S
C93 O83 1.266 . S
C93 O84 1.236 . S
O94 Dy80 2.275 . S
O94 C82 1.254 . S
O95 Dy81 2.339 . S
O95 C82 1.257 . S
C96 C99 1.344 . S
C96 C100 1.328 . S
C96 C102 1.516 . S
C97 C98 1.304 . S
C97 C101 1.323 . S
C98 C97 1.304 . S
C98 C99 1.371 . S
C98 H112 0.930 . S
C99 C96 1.344 . S
C99 C98 1.371 . S
C99 H113 0.931 . S
C100 C96 1.328 . S
C100 C101 1.433 . S
C100 H114 0.931 . S
C101 C97 1.323 . S
C101 C100 1.433 . S
C101 H115 0.933 . S
C102 Dy80 2.738 . S
C102 O85 1.255 . S
C102 O86 1.249 . S
C102 C96 1.516 . S
C103 O87 1.254 . S
C103 O88 1.257 . S
C104 O89 1.266 . S
C104 O90 1.236 . S
C105 C108 1.344 . S
C105 C109 1.328 . S
C105 C111 1.516 . S
C106 C107 1.304 . S
C106 C110 1.323 . S
C107 C106 1.304 . S
C107 C108 1.371 . S
C107 H116 0.930 . S
C108 C105 1.344 . S
C108 C107 1.371 . S
C108 H117 0.931 . S
C109 C105 1.328 . S
C109 C110 1.433 . S
C109 H118 0.931 . S
C110 C106 1.323 . S
C110 C109 1.433 . S
C110 H119 0.933 . S
C111 Dy81 2.738 . S
C111 O91 1.255 . S
C111 O92 1.249 . S
C111 C105 1.516 . S
H112 C98 0.930 . S
H113 C99 0.931 . S
H114 C100 0.931 . S
H115 C101 0.933 . S
H116 C107 0.930 . S
H117 C108 0.931 . S
H118 C109 0.931 . S
H119 C110 0.933 . S
C120 C121 1.386 . S
C120 C122 1.397 . S
C120 H144 0.931 . S
C121 C120 1.386 . S
C121 C125 1.397 . S
C122 C120 1.397 . S
C122 C123 1.384 . S
C122 H145 0.930 . S
C123 C122 1.384 . S
C123 C124 1.377 . S
C123 C126 1.481 . S
C124 C123 1.377 . S
C124 C125 1.389 . S
C124 H146 0.928 . S
C125 C121 1.397 . S
C125 C124 1.389 . S
C125 H147 0.931 1_545 S
C126 C123 1.481 . S
C126 C127 1.387 . S
C126 C131 1.390 . S
C127 C126 1.387 . S
C127 C128 1.401 . S
C127 H148 0.930 . S
C128 C127 1.401 . S
C128 C129 1.376 . S
C128 C137 1.511 . S
C129 C128 1.376 . S
C129 C130 1.392 . S
C129 H150 0.931 . S
C130 C129 1.392 . S
C130 C131 1.361 . S
C130 C132 1.505 . S
C131 C126 1.390 . S
C131 C130 1.361 . S
C131 H149 0.931 . S
C132 C130 1.505 . S
C132 C133 1.376 . S
C132 C134 1.354 1_545 S
C133 C132 1.376 . S
C133 C143 1.386 1_545 S
C133 H151 0.931 . S
C134 C132 1.354 1_565 S
C134 C135 1.409 . S
C134 H152 0.929 . S
C135 C134 1.409 . S
C135 C136 1.380 . S
C135 H153 0.930 . S
C136 C135 1.380 . S
C136 C143 1.357 . S
C137 C128 1.511 . S
C137 C138 1.341 . S
C137 C139 1.371 . S
C138 C137 1.341 . S
C138 C142 1.394 . S
C138 H154 0.930 . S
C139 C137 1.371 . S
C139 C140 1.392 . S
C139 H155 0.931 . S
C140 C139 1.392 . S
C140 C141 1.331 . S
C140 H158 0.932 . S
C141 C140 1.331 . S
C141 C142 1.336 . S
C142 C138 1.394 . S
C142 C141 1.336 . S
C142 H157 0.929 . S
C143 C133 1.386 1_565 S
C143 C136 1.357 . S
C143 H156 0.928 . S
H144 C120 0.931 . S
H145 C122 0.930 . S
H146 C124 0.928 . S
H147 C125 0.931 1_565 S
H148 C127 0.930 . S
H149 C131 0.931 . S
H150 C129 0.931 . S
H151 C133 0.931 . S
H152 C134 0.929 . S
H153 C135 0.930 . S
H154 C138 0.930 . S
H155 C139 0.931 . S
H156 C143 0.928 . S
H157 C142 0.929 . S
H158 C140 0.932 . S
C159 C160 1.386 . S
C159 C161 1.397 . S
C159 H183 0.931 . S
C160 C159 1.386 . S
C160 C164 1.397 . S
C161 C159 1.397 . S
C161 C162 1.384 . S
C161 H184 0.930 . S
C162 C161 1.384 . S
C162 C163 1.377 . S
C162 C165 1.481 . S
C163 C162 1.377 . S
C163 C164 1.389 . S
C163 H185 0.929 . S
C164 C160 1.397 . S
C164 C163 1.389 . S
C164 H186 0.931 . S
C165 C162 1.481 . S
C165 C166 1.387 . S
C165 C170 1.390 . S
C166 C165 1.387 . S
C166 C167 1.401 . S
C166 H187 0.930 . S
C167 C166 1.401 . S
C167 C168 1.376 . S
C167 C176 1.511 . S
C168 C167 1.376 . S
C168 C169 1.392 . S
C168 H189 0.931 . S
C169 C168 1.392 . S
C169 C170 1.361 . S
C169 C171 1.500 . S
C170 C165 1.390 . S
C170 C169 1.361 . S
C170 H188 0.931 . S
C171 C169 1.500 . S
C171 C172 1.371 . S
C171 C173 1.365 . S
C172 C171 1.371 . S
C172 C182 1.386 . S
C172 H190 0.931 . S
C173 C171 1.365 . S
C173 C174 1.409 . S
C173 H191 0.929 . S
C174 C173 1.409 . S
C174 C175 1.380 . S
C174 H192 0.930 . S
C175 C174 1.380 . S
C175 C182 1.357 . S
C176 C167 1.511 . S
C176 C177 1.341 . S
C176 C178 1.371 . S
C177 C176 1.341 . S
C177 C181 1.394 . S
C177 H193 0.930 . S
C178 C176 1.371 . S
C178 C179 1.392 . S
C178 H194 0.931 . S
C179 C178 1.392 . S
C179 C180 1.331 . S
C179 H197 0.932 . S
C180 C179 1.331 . S
C180 C181 1.336 . S
C181 C177 1.394 . S
C181 C180 1.336 . S
C181 H196 0.929 . S
C182 C172 1.386 . S
C182 C175 1.357 . S
C182 H195 0.928 . S
H183 C159 0.931 . S
H184 C161 0.930 . S
H185 C163 0.929 . S
H186 C164 0.931 . S
H187 C166 0.930 . S
H188 C170 0.931 . S
H189 C168 0.931 . S
H190 C172 0.931 . S
H191 C173 0.929 . S
H192 C174 0.930 . S
H193 C177 0.930 . S
H194 C178 0.931 . S
H195 C182 0.928 . S
H196 C181 0.929 . S
H197 C179 0.932 . S
C198 C199 1.386 . S
C198 C200 1.397 . S
C198 H222 0.931 . S
C199 C198 1.386 . S
C199 C203 1.395 1_455 S
C200 C198 1.397 . S
C200 C201 1.384 . S
C200 H223 0.930 . S
C201 C200 1.384 . S
C201 C202 1.377 1_455 S
C201 C204 1.481 . S
C202 C201 1.377 1_655 S
C202 C203 1.389 . S
C202 H224 0.929 . S
C203 C199 1.395 1_655 S
C203 C202 1.389 . S
C203 H225 0.934 . S
C204 C201 1.481 . S
C204 C205 1.387 . S
C204 C209 1.390 1_455 S
C205 C204 1.387 . S
C205 C206 1.401 . S
C205 H226 0.930 . S
C206 C205 1.401 . S
C206 C207 1.376 . S
C206 C215 1.511 . S
C207 C206 1.376 . S
C207 C208 1.392 1_455 S
C207 H228 0.931 . S
C208 C207 1.392 1_655 S
C208 C209 1.361 . S
C208 C210 1.500 . S
C209 C204 1.390 1_655 S
C209 C208 1.361 . S
C209 H227 0.931 . S
C210 C208 1.500 . S
C210 C211 1.371 . S
C210 C212 1.365 . S
C211 C210 1.371 . S
C211 C221 1.386 . S
C211 H229 0.931 . S
C212 C210 1.365 . S
C212 C213 1.409 . S
C212 H230 0.929 . S
C213 C212 1.409 . S
C213 C214 1.380 . S
C213 H231 0.930 . S
C214 C213 1.380 . S
C214 C221 1.357 . S
C215 C206 1.511 . S
C215 C216 1.341 . S
C215 C217 1.371 . S
C216 C215 1.341 . S
C216 C220 1.394 . S
C216 H232 0.930 . S
C217 C215 1.371 . S
C217 C218 1.392 . S
C217 H233 0.931 . S
C218 C217 1.392 . S
C218 C219 1.331 . S
C218 H236 0.932 . S
C219 C218 1.331 . S
C219 C220 1.336 . S
C220 C216 1.394 . S
C220 C219 1.336 . S
C220 H235 0.929 . S
C221 C211 1.386 . S
C221 C214 1.357 . S
C221 H234 0.928 . S
H222 C198 0.931 . S
H223 C200 0.930 . S
H224 C202 0.929 . S
H225 C203 0.934 . S
H226 C205 0.930 . S
H227 C209 0.931 . S
H228 C207 0.931 . S
H229 C211 0.931 . S
H230 C212 0.929 . S
H231 C213 0.930 . S
H232 C216 0.930 . S
H233 C217 0.931 . S
H234 C221 0.928 . S
H235 C220 0.929 . S
H236 C218 0.932 . S
C237 C238 1.386 . S
C237 C239 1.397 . S
C237 H261 0.931 . S
C238 C237 1.386 . S
C238 C242 1.397 1_655 S
C239 C237 1.397 . S
C239 C240 1.384 1_655 S
C239 H262 0.930 . S
C240 C239 1.384 1_455 S
C240 C241 1.377 . S
C240 C243 1.481 . S
C241 C240 1.377 . S
C241 C242 1.389 . S
C241 H263 0.929 . S
C242 C238 1.397 1_455 S
C242 C241 1.389 . S
C242 H264 0.931 . S
C243 C240 1.481 . S
C243 C244 1.387 1_455 S
C243 C248 1.390 . S
C244 C243 1.387 1_655 S
C244 C245 1.401 . S
C244 H265 0.930 . S
C245 C244 1.401 . S
C245 C246 1.376 1_655 S
C245 C254 1.511 . S
C246 C245 1.376 1_455 S
C246 C247 1.392 . S
C246 H267 0.931 . S
C247 C246 1.392 . S
C247 C248 1.361 . S
C247 C249 1.500 . S
C248 C243 1.390 . S
C248 C247 1.361 . S
C248 H266 0.931 . S
C249 C247 1.500 . S
C249 C250 1.371 . S
C249 C251 1.365 . S
C250 C249 1.371 . S
C250 C260 1.386 . S
C250 H268 0.931 . S
C251 C249 1.365 . S
C251 C252 1.409 . S
C251 H269 0.929 . S
C252 C251 1.409 . S
C252 C253 1.380 . S
C252 H270 0.930 . S
C253 C252 1.380 . S
C253 C260 1.357 . S
C254 C245 1.511 . S
C254 C255 1.341 . S
C254 C256 1.371 . S
C255 C254 1.341 . S
C255 C259 1.394 . S
C255 H271 0.930 . S
C256 C254 1.371 . S
C256 C257 1.392 . S
C256 H272 0.931 . S
C257 C256 1.392 . S
C257 C258 1.331 . S
C257 H275 0.932 . S
C258 C257 1.331 . S
C258 C259 1.336 . S
C259 C255 1.394 . S
C259 C258 1.336 . S
C259 H274 0.929 . S
C260 C250 1.386 . S
C260 C253 1.357 . S
C260 H273 0.928 . S
H261 C237 0.931 . S
H262 C239 0.930 . S
H263 C241 0.929 . S
H264 C242 0.931 . S
H265 C244 0.930 . S
H266 C248 0.931 . S
H267 C246 0.931 . S
H268 C250 0.931 . S
H269 C251 0.929 . S
H270 C252 0.930 . S
H271 C255 0.930 . S
H272 C256 0.931 . S
H273 C260 0.928 . S
H274 C259 0.929 . S
H275 C257 0.932 . S
C276 C277 1.386 1_565 S
C276 C278 1.397 . S
C276 H300 0.931 . S
C277 C276 1.386 1_545 S
C277 C281 1.397 . S
C278 C276 1.397 . S
C278 C279 1.384 1_565 S
C278 H301 0.930 . S
C279 C278 1.384 1_545 S
C279 C280 1.377 . S
C279 C282 1.481 . S
C280 C279 1.377 . S
C280 C281 1.389 . S
C280 H302 0.929 . S
C281 C277 1.397 . S
C281 C280 1.389 . S
C281 H303 0.931 . S
C282 C279 1.481 . S
C282 C283 1.387 1_545 S
C282 C287 1.390 . S
C283 C282 1.387 1_565 S
C283 C284 1.401 . S
C283 H304 0.930 . S
C284 C283 1.401 . S
C284 C285 1.376 1_565 S
C284 C293 1.511 . S
C285 C284 1.376 1_545 S
C285 C286 1.392 . S
C285 H306 0.931 . S
C286 C285 1.392 . S
C286 C287 1.361 . S
C286 C288 1.500 . S
C287 C282 1.390 . S
C287 C286 1.361 . S
C287 H305 0.931 . S
C288 C286 1.500 . S
C288 C289 1.371 . S
C288 C290 1.365 . S
C289 C288 1.371 . S
C289 C299 1.386 . S
C289 H307 0.931 . S
C290 C288 1.365 . S
C290 C291 1.409 . S
C290 H308 0.929 . S
C291 C290 1.409 . S
C291 C292 1.380 . S
C291 H309 0.930 . S
C292 C291 1.380 . S
C292 C299 1.357 . S
C293 C284 1.511 . S
C293 C294 1.341 . S
C293 C295 1.371 . S
C294 C293 1.341 . S
C294 C298 1.394 . S
C294 H310 0.930 . S
C295 C293 1.371 . S
C295 C296 1.392 . S
C295 H311 0.931 . S
C296 C295 1.392 . S
C296 C297 1.331 . S
C296 H314 0.932 . S
C297 C296 1.331 . S
C297 C298 1.336 . S
C298 C294 1.394 . S
C298 C297 1.336 . S
C298 H313 0.929 . S
C299 C289 1.386 . S
C299 C292 1.357 . S
C299 H312 0.928 . S
H300 C276 0.931 . S
H301 C278 0.930 . S
H302 C280 0.929 . S
H303 C281 0.931 . S
H304 C283 0.930 . S
H305 C287 0.931 . S
H306 C285 0.931 . S
H307 C289 0.931 . S
H308 C290 0.929 . S
H309 C291 0.930 . S
H310 C294 0.930 . S
H311 C295 0.931 . S
H312 C299 0.928 . S
H313 C298 0.929 . S
H314 C296 0.932 . S
C315 C316 1.386 . S
C315 C317 1.397 . S
C315 H339 0.931 . S
C316 C315 1.386 . S
C316 C320 1.397 . S
C317 C315 1.397 . S
C317 C318 1.384 . S
C317 H340 0.930 . S
C318 C317 1.384 . S
C318 C319 1.377 . S
C318 C321 1.481 . S
C319 C318 1.377 . S
C319 C320 1.389 . S
C319 H341 0.929 . S
C320 C316 1.397 . S
C320 C319 1.389 . S
C320 H342 0.931 . S
C321 C318 1.481 . S
C321 C322 1.387 . S
C321 C326 1.390 . S
C322 C321 1.387 . S
C322 C323 1.401 . S
C322 H343 0.930 . S
C323 C322 1.401 . S
C323 C324 1.376 . S
C323 C332 1.511 . S
C324 C323 1.376 . S
C324 C325 1.392 . S
C324 H345 0.931 . S
C325 C324 1.392 . S
C325 C326 1.361 . S
C325 C327 1.500 . S
C326 C321 1.390 . S
C326 C325 1.361 . S
C326 H344 0.931 . S
C327 C325 1.500 . S
C327 C328 1.371 . S
C327 C329 1.365 . S
C328 C327 1.371 . S
C328 C338 1.386 . S
C328 H346 0.931 . S
C329 C327 1.365 . S
C329 C330 1.409 . S
C329 H347 0.929 . S
C330 C329 1.409 . S
C330 C331 1.380 . S
C330 H348 0.930 . S
C331 C330 1.380 . S
C331 C338 1.357 . S
C332 C323 1.511 . S
C332 C333 1.341 . S
C332 C334 1.371 . S
C333 C332 1.341 . S
C333 C337 1.394 . S
C333 H349 0.930 . S
C334 C332 1.371 . S
C334 C335 1.392 . S
C334 H350 0.931 . S
C335 C334 1.392 . S
C335 C336 1.331 . S
C335 H353 0.932 . S
C336 C335 1.331 . S
C336 C337 1.336 . S
C337 C333 1.394 . S
C337 C336 1.336 . S
C337 H352 0.929 . S
C338 C328 1.386 . S
C338 C331 1.357 . S
C338 H351 0.928 . S
H339 C315 0.931 . S
H340 C317 0.930 . S
H341 C319 0.929 . S
H342 C320 0.931 . S
H343 C322 0.930 . S
H344 C326 0.931 . S
H345 C324 0.931 . S
H346 C328 0.931 . S
H347 C329 0.929 . S
H348 C330 0.930 . S
H349 C333 0.930 . S
H350 C334 0.931 . S
H351 C338 0.928 . S
H352 C337 0.929 . S
H353 C335 0.932 . S
C354 C355 1.391 . S
C354 C356 1.394 . S
C354 H370 0.931 . S
C355 C354 1.391 . S
C355 C359 1.376 . S
C356 C354 1.394 . S
C356 C357 1.369 . S
C356 C360 1.531 . S
C357 C356 1.369 . S
C357 C358 1.410 . S
C357 C365 1.503 . S
C358 C357 1.410 . S
C358 C359 1.392 . S
C358 C361 1.511 . S
C359 C355 1.376 . S
C359 C358 1.392 . S
C359 H371 0.929 . S
C360 C356 1.531 . S
C360 H372 0.960 . S
C360 H373 0.962 . S
C360 H374 0.960 . S
C361 C358 1.511 . S
C361 H375 0.961 . S
C361 H376 0.961 . S
C361 H377 0.961 . S
C362 C363 1.370 . S
C362 C364 1.363 . S
C362 H378 0.931 . S
C363 C362 1.370 . S
C363 C367 1.408 . S
C364 C362 1.363 . S
C364 C365 1.370 . S
C364 C368 1.524 . S
C365 C357 1.503 . S
C365 C364 1.370 . S
C365 C366 1.403 . S
C366 C365 1.403 . S
C366 C367 1.404 . S
C366 C369 1.539 . S
C367 C363 1.408 . S
C367 C366 1.404 . S
C367 H379 0.930 . S
C368 C364 1.524 . S
C368 H380 0.956 . S
C368 H381 0.961 . S
C368 H382 0.961 . S
C369 C366 1.539 . S
C369 H383 0.958 . S
C369 H384 0.961 . S
C369 H385 0.960 . S
H370 C354 0.931 . S
H371 C359 0.929 . S
H372 C360 0.960 . S
H373 C360 0.962 . S
H374 C360 0.960 . S
H375 C361 0.961 . S
H376 C361 0.961 . S
H377 C361 0.961 . S
H378 C362 0.931 . S
H379 C367 0.930 . S
H380 C368 0.956 . S
H381 C368 0.961 . S
H382 C368 0.961 . S
H383 C369 0.958 . S
H384 C369 0.961 . S
H385 C369 0.960 . S
C386 C387 1.391 . S
C386 C388 1.394 . S
C386 H402 0.931 . S
C387 C386 1.391 . S
C387 C391 1.376 . S
C388 C386 1.394 . S
C388 C389 1.369 . S
C388 C392 1.531 . S
C389 C388 1.369 . S
C389 C390 1.410 . S
C389 C397 1.503 . S
C390 C389 1.410 . S
C390 C391 1.392 . S
C390 C393 1.511 . S
C391 C387 1.376 . S
C391 C390 1.392 . S
C391 H403 0.929 . S
C392 C388 1.531 . S
C392 H404 0.960 . S
C392 H405 0.962 . S
C392 H406 0.960 . S
C393 C390 1.511 . S
C393 H407 0.961 . S
C393 H408 0.961 . S
C393 H409 0.961 . S
C394 C395 1.370 . S
C394 C396 1.363 . S
C394 H410 0.931 . S
C395 C394 1.370 . S
C395 C399 1.408 . S
C396 C394 1.363 . S
C396 C397 1.370 . S
C396 C400 1.524 . S
C397 C389 1.503 . S
C397 C396 1.370 . S
C397 C398 1.403 . S
C398 C397 1.403 . S
C398 C399 1.404 . S
C398 C401 1.539 . S
C399 C395 1.408 . S
C399 C398 1.404 . S
C399 H411 0.930 . S
C400 C396 1.524 . S
C400 H412 0.956 . S
C400 H413 0.961 . S
C400 H414 0.961 . S
C401 C398 1.539 . S
C401 H415 0.958 . S
C401 H416 0.961 . S
C401 H417 0.960 . S
H402 C386 0.931 . S
H403 C391 0.929 . S
H404 C392 0.960 . S
H405 C392 0.962 . S
H406 C392 0.960 . S
H407 C393 0.961 . S
H408 C393 0.961 . S
H409 C393 0.961 . S
H410 C394 0.931 . S
H411 C399 0.930 . S
H412 C400 0.956 . S
H413 C400 0.961 . S
H414 C400 0.961 . S
H415 C401 0.958 . S
H416 C401 0.961 . S
H417 C401 0.960 . S
C418 C419 1.391 . S
C418 C420 1.394 . S
C418 H434 0.931 . S
C419 C418 1.391 . S
C419 C423 1.376 . S
C420 C418 1.394 . S
C420 C421 1.369 . S
C420 C424 1.531 . S
C421 C420 1.369 . S
C421 C422 1.410 . S
C421 C429 1.503 . S
C422 C421 1.410 . S
C422 C423 1.392 . S
C422 C425 1.511 . S
C423 C419 1.376 . S
C423 C422 1.392 . S
C423 H435 0.929 . S
C424 C420 1.531 . S
C424 H436 0.960 . S
C424 H437 0.962 . S
C424 H438 0.960 . S
C425 C422 1.511 . S
C425 H439 0.961 . S
C425 H440 0.961 . S
C425 H441 0.961 . S
C426 C427 1.370 . S
C426 C428 1.363 . S
C426 H442 0.931 . S
C427 C426 1.370 . S
C427 C431 1.408 . S
C428 C426 1.363 . S
C428 C429 1.370 . S
C428 C432 1.524 . S
C429 C421 1.503 . S
C429 C428 1.370 . S
C429 C430 1.403 . S
C430 C429 1.403 . S
C430 C431 1.404 . S
C430 C433 1.539 . S
C431 C427 1.408 . S
C431 C430 1.404 . S
C431 H443 0.930 . S
C432 C428 1.524 . S
C432 H444 0.956 . S
C432 H445 0.961 . S
C432 H446 0.961 . S
C433 C430 1.539 . S
C433 H447 0.958 . S
C433 H448 0.961 . S
C433 H449 0.960 . S
H434 C418 0.931 . S
H435 C423 0.929 . S
H436 C424 0.960 . S
H437 C424 0.962 . S
H438 C424 0.960 . S
H439 C425 0.961 . S
H440 C425 0.961 . S
H441 C425 0.961 . S
H442 C426 0.931 . S
H443 C431 0.930 . S
H444 C432 0.956 . S
H445 C432 0.961 . S
H446 C432 0.961 . S
H447 C433 0.958 . S
H448 C433 0.961 . S
H449 C433 0.960 . S
C450 C451 1.391 . S
C450 C452 1.394 . S
C450 H466 0.931 . S
C451 C450 1.391 . S
C451 C455 1.376 . S
C452 C450 1.394 . S
C452 C453 1.369 . S
C452 C456 1.531 . S
C453 C452 1.369 . S
C453 C454 1.410 . S
C453 C461 1.503 . S
C454 C453 1.410 . S
C454 C455 1.392 . S
C454 C457 1.511 . S
C455 C451 1.376 . S
C455 C454 1.392 . S
C455 H467 0.929 . S
C456 C452 1.531 . S
C456 H468 0.960 . S
C456 H469 0.962 . S
C456 H470 0.960 . S
C457 C454 1.511 . S
C457 H471 0.961 . S
C457 H472 0.961 . S
C457 H473 0.961 . S
C458 C459 1.370 . S
C458 C460 1.363 . S
C458 H474 0.931 . S
C459 C458 1.370 . S
C459 C463 1.408 . S
C460 C458 1.363 . S
C460 C461 1.370 . S
C460 C464 1.524 . S
C461 C453 1.503 . S
C461 C460 1.370 . S
C461 C462 1.403 . S
C462 C461 1.403 . S
C462 C463 1.404 . S
C462 C465 1.539 . S
C463 C459 1.408 . S
C463 C462 1.404 . S
C463 H475 0.930 . S
C464 C460 1.524 . S
C464 H476 0.956 . S
C464 H477 0.961 . S
C464 H478 0.961 . S
C465 C462 1.539 . S
C465 H479 0.958 . S
C465 H480 0.961 . S
C465 H481 0.960 . S
H466 C450 0.931 . S
H467 C455 0.929 . S
H468 C456 0.960 . S
H469 C456 0.962 . S
H470 C456 0.960 . S
H471 C457 0.961 . S
H472 C457 0.961 . S
H473 C457 0.961 . S
H474 C458 0.931 . S
H475 C463 0.930 . S
H476 C464 0.956 . S
H477 C464 0.961 . S
H478 C464 0.961 . S
H479 C465 0.958 . S
H480 C465 0.961 . S
H481 C465 0.960 . S
C482 C483 1.391 . S
C482 C484 1.394 . S
C482 H498 0.931 . S
C483 C482 1.391 . S
C483 C487 1.376 . S
C484 C482 1.394 . S
C484 C485 1.369 . S
C484 C488 1.531 . S
C485 C484 1.369 . S
C485 C486 1.410 . S
C485 C493 1.503 . S
C486 C485 1.410 . S
C486 C487 1.392 . S
C486 C489 1.511 . S
C487 C483 1.376 . S
C487 C486 1.392 . S
C487 H499 0.929 . S
C488 C484 1.531 . S
C488 H500 0.960 . S
C488 H501 0.962 . S
C488 H502 0.960 . S
C489 C486 1.511 . S
C489 H503 0.961 . S
C489 H504 0.961 . S
C489 H505 0.961 . S
C490 C491 1.370 . S
C490 C492 1.363 . S
C490 H506 0.931 . S
C491 C490 1.370 . S
C491 C495 1.408 . S
C492 C490 1.363 . S
C492 C493 1.370 . S
C492 C496 1.524 . S
C493 C485 1.503 . S
C493 C492 1.370 . S
C493 C494 1.403 . S
C494 C493 1.403 . S
C494 C495 1.404 . S
C494 C497 1.539 . S
C495 C491 1.408 . S
C495 C494 1.404 . S
C495 H507 0.930 . S
C496 C492 1.524 . S
C496 H508 0.956 . S
C496 H509 0.961 . S
C496 H510 0.961 . S
C497 C494 1.539 . S
C497 H511 0.958 . S
C497 H512 0.961 . S
C497 H513 0.960 . S
H498 C482 0.931 . S
H499 C487 0.929 . S
H500 C488 0.960 . S
H501 C488 0.962 . S
H502 C488 0.960 . S
H503 C489 0.961 . S
H504 C489 0.961 . S
H505 C489 0.961 . S
H506 C490 0.931 . S
H507 C495 0.930 . S
H508 C496 0.956 . S
H509 C496 0.961 . S
H510 C496 0.961 . S
H511 C497 0.958 . S
H512 C497 0.961 . S
H513 C497 0.960 . S
C514 C515 1.391 . S
C514 C516 1.394 . S
C514 H530 0.931 . S
C515 C514 1.391 . S
C515 C519 1.376 . S
C516 C514 1.394 . S
C516 C517 1.369 . S
C516 C520 1.531 . S
C517 C516 1.369 . S
C517 C518 1.410 . S
C517 C525 1.503 . S
C518 C517 1.410 . S
C518 C519 1.392 . S
C518 C521 1.511 . S
C519 C515 1.376 . S
C519 C518 1.392 . S
C519 H531 0.929 . S
C520 C516 1.531 . S
C520 H532 0.960 . S
C520 H533 0.962 . S
C520 H534 0.960 . S
C521 C518 1.511 . S
C521 H535 0.961 . S
C521 H536 0.961 . S
C521 H537 0.961 . S
C522 C523 1.370 . S
C522 C524 1.363 . S
C522 H538 0.931 . S
C523 C522 1.370 . S
C523 C527 1.408 . S
C524 C522 1.363 . S
C524 C525 1.370 . S
C524 C528 1.524 . S
C525 C517 1.503 . S
C525 C524 1.370 . S
C525 C526 1.403 . S
C526 C525 1.403 . S
C526 C527 1.404 . S
C526 C529 1.539 . S
C527 C523 1.408 . S
C527 C526 1.404 . S
C527 H539 0.930 . S
C528 C524 1.524 . S
C528 H540 0.956 . S
C528 H541 0.961 . S
C528 H542 0.961 . S
C529 C526 1.539 . S
C529 H543 0.958 . S
C529 H544 0.961 . S
C529 H545 0.960 . S
H530 C514 0.931 . S
H531 C519 0.929 . S
H532 C520 0.960 . S
H533 C520 0.962 . S
H534 C520 0.960 . S
H535 C521 0.961 . S
H536 C521 0.961 . S
H537 C521 0.961 . S
H538 C522 0.931 . S
H539 C527 0.930 . S
H540 C528 0.956 . S
H541 C528 0.961 . S
H542 C528 0.961 . S
H543 C529 0.958 . S
H544 C529 0.961 . S
H545 C529 0.960 . S
C546 C547 1.391 . S
C546 C548 1.394 . S
C546 H562 0.931 . S
C547 C546 1.391 . S
C547 C551 1.376 . S
C548 C546 1.394 . S
C548 C549 1.369 . S
C548 C552 1.531 . S
C549 C548 1.369 . S
C549 C550 1.410 . S
C549 C557 1.503 . S
C550 C549 1.410 . S
C550 C551 1.392 . S
C550 C553 1.511 . S
C551 C547 1.376 . S
C551 C550 1.392 . S
C551 H563 0.929 . S
C552 C548 1.531 . S
C552 H564 0.960 . S
C552 H565 0.962 . S
C552 H566 0.960 . S
C553 C550 1.511 . S
C553 H567 0.961 . S
C553 H568 0.961 . S
C553 H569 0.961 . S
C554 C555 1.370 . S
C554 C556 1.363 . S
C554 H570 0.931 . S
C555 C554 1.370 . S
C555 C559 1.408 . S
C556 C554 1.363 . S
C556 C557 1.370 . S
C556 C560 1.524 . S
C557 C549 1.503 . S
C557 C556 1.370 . S
C557 C558 1.403 . S
C558 C557 1.403 . S
C558 C559 1.404 . S
C558 C561 1.539 . S
C559 C555 1.408 . S
C559 C558 1.404 . S
C559 H571 0.930 . S
C560 C556 1.524 . S
C560 H572 0.956 . S
C560 H573 0.961 . S
C560 H574 0.961 . S
C561 C558 1.539 . S
C561 H575 0.958 . S
C561 H576 0.961 . S
C561 H577 0.960 . S
H562 C546 0.931 . S
H563 C551 0.929 . S
H564 C552 0.960 . S
H565 C552 0.962 . S
H566 C552 0.960 . S
H567 C553 0.961 . S
H568 C553 0.961 . S
H569 C553 0.961 . S
H570 C554 0.931 . S
H571 C559 0.930 . S
H572 C560 0.956 . S
H573 C560 0.961 . S
H574 C560 0.961 . S
H575 C561 0.958 . S
H576 C561 0.961 . S
H577 C561 0.960 . S
C578 C579 1.391 . S
C578 C580 1.394 . S
C578 H594 0.931 . S
C579 C578 1.391 . S
C579 C583 1.376 . S
C580 C578 1.394 . S
C580 C581 1.369 . S
C580 C584 1.531 . S
C581 C580 1.369 . S
C581 C582 1.410 . S
C581 C589 1.503 . S
C582 C581 1.410 . S
C582 C583 1.392 . S
C582 C585 1.511 . S
C583 C579 1.376 . S
C583 C582 1.392 . S
C583 H595 0.929 . S
C584 C580 1.531 . S
C584 H596 0.960 . S
C584 H597 0.962 . S
C584 H598 0.960 . S
C585 C582 1.511 . S
C585 H599 0.961 . S
C585 H600 0.961 . S
C585 H601 0.961 . S
C586 C587 1.370 . S
C586 C588 1.363 . S
C586 H602 0.931 . S
C587 C586 1.370 . S
C587 C591 1.408 . S
C588 C586 1.363 . S
C588 C589 1.370 . S
C588 C592 1.524 . S
C589 C581 1.503 . S
C589 C588 1.370 . S
C589 C590 1.403 . S
C590 C589 1.403 . S
C590 C591 1.404 . S
C590 C593 1.539 . S
C591 C587 1.408 . S
C591 C590 1.404 . S
C591 H603 0.930 . S
C592 C588 1.524 . S
C592 H604 0.956 . S
C592 H605 0.961 . S
C592 H606 0.961 . S
C593 C590 1.539 . S
C593 H607 0.958 . S
C593 H608 0.961 . S
C593 H609 0.960 . S
H594 C578 0.931 . S
H595 C583 0.929 . S
H596 C584 0.960 . S
H597 C584 0.962 . S
H598 C584 0.960 . S
H599 C585 0.961 . S
H600 C585 0.961 . S
H601 C585 0.961 . S
H602 C586 0.931 . S
H603 C591 0.930 . S
H604 C592 0.956 . S
H605 C592 0.961 . S
H606 C592 0.961 . S
H607 C593 0.958 . S
H608 C593 0.961 . S
H609 C593 0.960 . S
C610 C611 1.391 . S
C610 C612 1.394 . S
C610 H626 0.931 . S
C611 C610 1.391 . S
C611 C615 1.376 . S
C612 C610 1.394 . S
C612 C613 1.369 . S
C612 C616 1.531 . S
C613 C612 1.369 . S
C613 C614 1.410 . S
C613 C621 1.503 . S
C614 C613 1.410 . S
C614 C615 1.392 . S
C614 C617 1.511 . S
C615 C611 1.376 . S
C615 C614 1.392 . S
C615 H627 0.929 . S
C616 C612 1.531 . S
C616 H628 0.960 . S
C616 H629 0.962 . S
C616 H630 0.960 . S
C617 C614 1.511 . S
C617 H631 0.961 . S
C617 H632 0.961 . S
C617 H633 0.961 . S
C618 C619 1.370 . S
C618 C620 1.363 . S
C618 H634 0.931 . S
C619 C618 1.370 . S
C619 C623 1.408 . S
C620 C618 1.363 . S
C620 C621 1.370 . S
C620 C624 1.524 . S
C621 C613 1.503 . S
C621 C620 1.370 . S
C621 C622 1.403 . S
C622 C621 1.403 . S
C622 C623 1.404 . S
C622 C625 1.539 . S
C623 C619 1.408 . S
C623 C622 1.404 . S
C623 H635 0.930 . S
C624 C620 1.524 . S
C624 H636 0.956 . S
C624 H637 0.961 . S
C624 H638 0.961 . S
C625 C622 1.539 . S
C625 H639 0.958 . S
C625 H640 0.961 . S
C625 H641 0.960 . S
H626 C610 0.931 . S
H627 C615 0.929 . S
H628 C616 0.960 . S
H629 C616 0.962 . S
H630 C616 0.960 . S
H631 C617 0.961 . S
H632 C617 0.961 . S
H633 C617 0.961 . S
H634 C618 0.931 . S
H635 C623 0.930 . S
H636 C624 0.956 . S
H637 C624 0.961 . S
H638 C624 0.961 . S
H639 C625 0.958 . S
H640 C625 0.961 . S
H641 C625 0.960 . S
C642 C643 1.391 . S
C642 C644 1.394 . S
C642 H658 0.931 . S
C643 C642 1.391 . S
C643 C647 1.376 . S
C644 C642 1.394 . S
C644 C645 1.369 . S
C644 C648 1.531 . S
C645 C644 1.369 . S
C645 C646 1.410 . S
C645 C653 1.503 . S
C646 C645 1.410 . S
C646 C647 1.392 . S
C646 C649 1.511 . S
C647 C643 1.376 . S
C647 C646 1.392 . S
C647 H659 0.929 . S
C648 C644 1.531 . S
C648 H660 0.960 . S
C648 H661 0.962 . S
C648 H662 0.960 . S
C649 C646 1.511 . S
C649 H663 0.961 . S
C649 H664 0.961 . S
C649 H665 0.961 . S
C650 C651 1.370 . S
C650 C652 1.363 . S
C650 H666 0.931 . S
C651 C650 1.370 . S
C651 C655 1.408 . S
C652 C650 1.363 . S
C652 C653 1.370 . S
C652 C656 1.524 . S
C653 C645 1.503 . S
C653 C652 1.370 . S
C653 C654 1.403 . S
C654 C653 1.403 . S
C654 C655 1.404 . S
C654 C657 1.539 . S
C655 C651 1.408 . S
C655 C654 1.404 . S
C655 H667 0.930 . S
C656 C652 1.524 . S
C656 H668 0.956 . S
C656 H669 0.961 . S
C656 H670 0.961 . S
C657 C654 1.539 . S
C657 H671 0.958 . S
C657 H672 0.961 . S
C657 H673 0.960 . S
H658 C642 0.931 . S
H659 C647 0.929 . S
H660 C648 0.960 . S
H661 C648 0.962 . S
H662 C648 0.960 . S
H663 C649 0.961 . S
H664 C649 0.961 . S
H665 C649 0.961 . S
H666 C650 0.931 . S
H667 C655 0.930 . S
H668 C656 0.956 . S
H669 C656 0.961 . S
H670 C656 0.961 . S
H671 C657 0.958 . S
H672 C657 0.961 . S
H673 C657 0.960 . S
C674 C675 1.391 . S
C674 C676 1.394 . S
C674 H690 0.931 . S
C675 C674 1.391 . S
C675 C679 1.376 . S
C676 C674 1.394 . S
C676 C677 1.369 . S
C676 C680 1.531 . S
C677 C676 1.369 . S
C677 C678 1.410 . S
C677 C685 1.503 . S
C678 C677 1.410 . S
C678 C679 1.392 . S
C678 C681 1.511 . S
C679 C675 1.376 . S
C679 C678 1.392 . S
C679 H691 0.929 . S
C680 C676 1.531 . S
C680 H692 0.960 . S
C680 H693 0.962 . S
C680 H694 0.960 . S
C681 C678 1.511 . S
C681 H695 0.961 . S
C681 H696 0.961 . S
C681 H697 0.961 . S
C682 C683 1.370 . S
C682 C684 1.363 . S
C682 H698 0.931 . S
C683 C682 1.370 . S
C683 C687 1.408 . S
C684 C682 1.363 . S
C684 C685 1.370 . S
C684 C688 1.524 . S
C685 C677 1.503 . S
C685 C684 1.370 . S
C685 C686 1.403 . S
C686 C685 1.403 . S
C686 C687 1.404 . S
C686 C689 1.539 . S
C687 C683 1.408 . S
C687 C686 1.404 . S
C687 H699 0.930 . S
C688 C684 1.524 . S
C688 H700 0.956 . S
C688 H701 0.961 . S
C688 H702 0.961 . S
C689 C686 1.539 . S
C689 H703 0.958 . S
C689 H704 0.961 . S
C689 H705 0.960 . S
H690 C674 0.931 . S
H691 C679 0.929 . S
H692 C680 0.960 . S
H693 C680 0.962 . S
H694 C680 0.960 . S
H695 C681 0.961 . S
H696 C681 0.961 . S
H697 C681 0.961 . S
H698 C682 0.931 . S
H699 C687 0.930 . S
H700 C688 0.956 . S
H701 C688 0.961 . S
H702 C688 0.961 . S
H703 C689 0.958 . S
H704 C689 0.961 . S
H705 C689 0.960 . S
C706 C707 1.391 . S
C706 C708 1.394 . S
C706 H722 0.931 . S
C707 C706 1.391 . S
C707 C711 1.376 . S
C708 C706 1.394 . S
C708 C709 1.369 . S
C708 C712 1.531 . S
C709 C708 1.369 . S
C709 C710 1.410 . S
C709 C717 1.503 . S
C710 C709 1.410 . S
C710 C711 1.392 . S
C710 C713 1.511 . S
C711 C707 1.376 . S
C711 C710 1.392 . S
C711 H723 0.929 . S
C712 C708 1.531 . S
C712 H724 0.960 . S
C712 H725 0.962 . S
C712 H726 0.960 . S
C713 C710 1.511 . S
C713 H727 0.961 . S
C713 H728 0.961 . S
C713 H729 0.961 . S
C714 C715 1.370 . S
C714 C716 1.363 . S
C714 H730 0.931 . S
C715 C714 1.370 . S
C715 C719 1.408 . S
C716 C714 1.363 . S
C716 C717 1.370 . S
C716 C720 1.524 . S
C717 C709 1.503 . S
C717 C716 1.370 . S
C717 C718 1.403 . S
C718 C717 1.403 . S
C718 C719 1.404 . S
C718 C721 1.539 . S
C719 C715 1.408 . S
C719 C718 1.404 . S
C719 H731 0.930 . S
C720 C716 1.524 . S
C720 H732 0.956 . S
C720 H733 0.961 . S
C720 H734 0.961 . S
C721 C718 1.539 . S
C721 H735 0.958 . S
C721 H736 0.961 . S
C721 H737 0.960 . S
H722 C706 0.931 . S
H723 C711 0.929 . S
H724 C712 0.960 . S
H725 C712 0.962 . S
H726 C712 0.960 . S
H727 C713 0.961 . S
H728 C713 0.961 . S
H729 C713 0.961 . S
H730 C714 0.931 . S
H731 C719 0.930 . S
H732 C720 0.956 . S
H733 C720 0.961 . S
H734 C720 0.961 . S
H735 C721 0.958 . S
H736 C721 0.961 . S
H737 C721 0.960 . S
C738 C739 1.391 . S
C738 C740 1.394 . S
C738 H754 0.931 . S
C739 C738 1.391 . S
C739 C743 1.376 1_455 S
C740 C738 1.394 . S
C740 C741 1.369 . S
C740 C744 1.531 . S
C741 C740 1.369 . S
C741 C742 1.410 1_455 S
C741 C749 1.503 . S
C742 C741 1.410 1_655 S
C742 C743 1.392 . S
C742 C745 1.511 . S
C743 C739 1.376 1_655 S
C743 C742 1.392 . S
C743 H755 0.929 . S
C744 C740 1.531 . S
C744 H756 0.960 . S
C744 H757 0.962 . S
C744 H758 0.960 . S
C745 C742 1.511 . S
C745 H759 0.961 . S
C745 H760 0.961 . S
C745 H761 0.961 . S
C746 C747 1.370 . S
C746 C748 1.363 . S
C746 H762 0.931 . S
C747 C746 1.370 . S
C747 C751 1.408 . S
C748 C746 1.363 . S
C748 C749 1.370 . S
C748 C752 1.524 . S
C749 C741 1.503 . S
C749 C748 1.370 . S
C749 C750 1.403 . S
C750 C749 1.403 . S
C750 C751 1.404 . S
C750 C753 1.539 1_455 S
C751 C747 1.408 . S
C751 C750 1.404 . S
C751 H763 0.930 1_455 S
C752 C748 1.524 . S
C752 H764 0.956 . S
C752 H765 0.961 . S
C752 H766 0.961 . S
C753 C750 1.539 1_655 S
C753 H767 0.958 . S
C753 H768 0.961 . S
C753 H769 0.960 . S
H754 C738 0.931 . S
H755 C743 0.929 . S
H756 C744 0.960 . S
H757 C744 0.962 . S
H758 C744 0.960 . S
H759 C745 0.961 . S
H760 C745 0.961 . S
H761 C745 0.961 . S
H762 C746 0.931 . S
H763 C751 0.930 1_655 S
H764 C752 0.956 . S
H765 C752 0.961 . S
H766 C752 0.961 . S
H767 C753 0.958 . S
H768 C753 0.961 . S
H769 C753 0.960 . S
C770 C771 1.391 . S
C770 C772 1.394 . S
C770 H786 0.931 1_545 S
C771 C770 1.391 . S
C771 C775 1.376 . S
C772 C770 1.394 . S
C772 C773 1.369 . S
C772 C776 1.531 1_545 S
C773 C772 1.369 . S
C773 C774 1.410 . S
C773 C781 1.503 . S
C774 C773 1.410 . S
C774 C775 1.392 . S
C774 C777 1.511 . S
C775 C771 1.376 . S
C775 C774 1.392 . S
C775 H787 0.929 . S
C776 C772 1.531 1_565 S
C776 H788 0.960 . S
C776 H789 0.962 1_565 S
C776 H790 0.960 . S
C777 C774 1.511 . S
C777 H791 0.961 . S
C777 H792 0.961 . S
C777 H793 0.961 . S
C778 C779 1.370 . S
C778 C780 1.363 . S
C778 H794 0.931 . S
C779 C778 1.370 . S
C779 C783 1.408 . S
C780 C778 1.363 . S
C780 C781 1.370 . S
C780 C784 1.524 . S
C781 C773 1.503 . S
C781 C780 1.370 . S
C781 C782 1.403 . S
C782 C781 1.403 . S
C782 C783 1.404 . S
C782 C785 1.539 1_545 S
C783 C779 1.408 . S
C783 C782 1.404 . S
C783 H795 0.930 . S
C784 C780 1.524 . S
C784 H796 0.956 . S
C784 H797 0.961 . S
C784 H798 0.961 . S
C785 C782 1.539 1_565 S
C785 H799 0.958 . S
C785 H800 0.961 . S
C785 H801 0.960 . S
H786 C770 0.931 1_565 S
H787 C775 0.929 . S
H788 C776 0.960 . S
H789 C776 0.962 1_545 S
H790 C776 0.960 . S
H791 C777 0.961 . S
H792 C777 0.961 . S
H793 C777 0.961 . S
H794 C778 0.931 . S
H795 C783 0.930 . S
H796 C784 0.956 . S
H797 C784 0.961 . S
H798 C784 0.961 . S
H799 C785 0.958 . S
H800 C785 0.961 . S
H801 C785 0.960 . S
C802 C803 1.391 . S
C802 C804 1.394 . S
C802 H818 0.931 . S
C803 C802 1.391 . S
C803 C807 1.376 . S
C804 C802 1.394 . S
C804 C805 1.369 . S
C804 C808 1.531 . S
C805 C804 1.369 . S
C805 C806 1.410 . S
C805 C813 1.503 . S
C806 C805 1.410 . S
C806 C807 1.392 . S
C806 C809 1.511 . S
C807 C803 1.376 . S
C807 C806 1.392 . S
C807 H819 0.929 . S
C808 C804 1.531 . S
C808 H820 0.960 . S
C808 H821 0.962 . S
C808 H822 0.960 . S
C809 C806 1.511 . S
C809 H823 0.961 . S
C809 H824 0.961 . S
C809 H825 0.961 . S
C810 C811 1.370 . S
C810 C812 1.363 . S
C810 H826 0.931 . S
C811 C810 1.370 . S
C811 C815 1.408 . S
C812 C810 1.363 . S
C812 C813 1.370 . S
C812 C816 1.524 . S
C813 C805 1.503 . S
C813 C812 1.370 . S
C813 C814 1.403 . S
C814 C813 1.403 . S
C814 C815 1.404 . S
C814 C817 1.539 . S
C815 C811 1.408 . S
C815 C814 1.404 . S
C815 H827 0.930 . S
C816 C812 1.524 . S
C816 H828 0.956 . S
C816 H829 0.961 . S
C816 H830 0.961 . S
C817 C814 1.539 . S
C817 H831 0.958 . S
C817 H832 0.961 . S
C817 H833 0.960 . S
H818 C802 0.931 . S
H819 C807 0.929 . S
H820 C808 0.960 . S
H821 C808 0.962 . S
H822 C808 0.960 . S
H823 C809 0.961 . S
H824 C809 0.961 . S
H825 C809 0.961 . S
H826 C810 0.931 . S
H827 C815 0.930 . S
H828 C816 0.956 . S
H829 C816 0.961 . S
H830 C816 0.961 . S
H831 C817 0.958 . S
H832 C817 0.961 . S
H833 C817 0.960 . S
C834 C835 1.391 . S
C834 C836 1.394 . S
C834 H850 0.931 . S
C835 C834 1.391 . S
C835 C839 1.376 . S
C836 C834 1.394 . S
C836 C837 1.369 . S
C836 C840 1.531 . S
C837 C836 1.369 . S
C837 C838 1.410 . S
C837 C845 1.503 . S
C838 C837 1.410 . S
C838 C839 1.392 . S
C838 C841 1.511 1_545 S
C839 C835 1.376 . S
C839 C838 1.392 . S
C839 H851 0.929 1_545 S
C840 C836 1.531 . S
C840 H852 0.960 . S
C840 H853 0.962 . S
C840 H854 0.960 . S
C841 C838 1.511 1_565 S
C841 H855 0.961 . S
C841 H856 0.961 . S
C841 H857 0.961 1_565 S
C842 C843 1.370 1_565 S
C842 C844 1.363 . S
C842 H858 0.931 . S
C843 C842 1.370 1_545 S
C843 C847 1.408 . S
C844 C842 1.363 . S
C844 C845 1.370 1_565 S
C844 C848 1.524 . S
C845 C837 1.503 . S
C845 C844 1.370 1_545 S
C845 C846 1.403 . S
C846 C845 1.403 . S
C846 C847 1.404 . S
C846 C849 1.539 . S
C847 C843 1.408 . S
C847 C846 1.404 . S
C847 H859 0.930 . S
C848 C844 1.524 . S
C848 H860 0.956 . S
C848 H861 0.961 . S
C848 H862 0.961 . S
C849 C846 1.539 . S
C849 H863 0.958 . S
C849 H864 0.961 . S
C849 H865 0.960 . S
H850 C834 0.931 . S
H851 C839 0.929 1_565 S
H852 C840 0.960 . S
H853 C840 0.962 . S
H854 C840 0.960 . S
H855 C841 0.961 . S
H856 C841 0.961 . S
H857 C841 0.961 1_545 S
H858 C842 0.931 . S
H859 C847 0.930 . S
H860 C848 0.956 . S
H861 C848 0.961 . S
H862 C848 0.961 . S
H863 C849 0.958 . S
H864 C849 0.961 . S
H865 C849 0.960 . S
C866 C867 1.391 . S
C866 C868 1.394 . S
C866 H882 0.931 . S
C867 C866 1.391 . S
C867 C871 1.376 . S
C868 C866 1.394 . S
C868 C869 1.369 . S
C868 C872 1.531 . S
C869 C868 1.369 . S
C869 C870 1.410 . S
C869 C877 1.503 . S
C870 C869 1.410 . S
C870 C871 1.392 . S
C870 C873 1.511 . S
C871 C867 1.376 . S
C871 C870 1.392 . S
C871 H883 0.929 . S
C872 C868 1.531 . S
C872 H884 0.960 . S
C872 H885 0.962 . S
C872 H886 0.960 . S
C873 C870 1.511 . S
C873 H887 0.961 . S
C873 H888 0.961 . S
C873 H889 0.961 . S
C874 C875 1.370 . S
C874 C876 1.363 . S
C874 H890 0.931 . S
C875 C874 1.370 . S
C875 C879 1.408 . S
C876 C874 1.363 . S
C876 C877 1.370 . S
C876 C880 1.524 . S
C877 C869 1.503 . S
C877 C876 1.370 . S
C877 C878 1.403 . S
C878 C877 1.403 . S
C878 C879 1.404 . S
C878 C881 1.539 . S
C879 C875 1.408 . S
C879 C878 1.404 . S
C879 H891 0.930 . S
C880 C876 1.524 . S
C880 H892 0.956 . S
C880 H893 0.961 . S
C880 H894 0.961 . S
C881 C878 1.539 . S
C881 H895 0.958 . S
C881 H896 0.961 . S
C881 H897 0.960 . S
H882 C866 0.931 . S
H883 C871 0.929 . S
H884 C872 0.960 . S
H885 C872 0.962 . S
H886 C872 0.960 . S
H887 C873 0.961 . S
H888 C873 0.961 . S
H889 C873 0.961 . S
H890 C874 0.931 . S
H891 C879 0.930 . S
H892 C880 0.956 . S
H893 C880 0.961 . S
H894 C880 0.961 . S
H895 C881 0.958 . S
H896 C881 0.961 . S
H897 C881 0.960 . S
C898 C899 1.391 1_655 S
C898 C900 1.394 . S
C898 H914 0.931 . S
C899 C898 1.391 1_455 S
C899 C903 1.376 . S
C900 C898 1.394 . S
C900 C901 1.371 . S
C900 C904 1.531 . S
C901 C900 1.371 . S
C901 C902 1.407 1_655 S
C901 C909 1.504 . S
C902 C901 1.407 1_455 S
C902 C903 1.392 . S
C902 C905 1.511 . S
C903 C899 1.376 . S
C903 C902 1.392 . S
C903 H915 0.929 . S
C904 C900 1.531 . S
C904 H916 0.960 . S
C904 H917 0.962 . S
C904 H918 0.960 . S
C905 C902 1.511 . S
C905 H919 0.961 . S
C905 H920 0.961 . S
C905 H921 0.961 . S
C906 C907 1.370 1_455 S
C906 C908 1.363 . S
C906 H922 0.931 . S
C907 C906 1.370 1_655 S
C907 C911 1.408 . S
C908 C906 1.363 . S
C908 C909 1.370 1_455 S
C908 C912 1.524 . S
C909 C901 1.504 . S
C909 C908 1.370 1_655 S
C909 C910 1.403 . S
C910 C909 1.403 . S
C910 C911 1.404 . S
C910 C913 1.539 . S
C911 C907 1.408 . S
C911 C910 1.404 . S
C911 H923 0.930 . S
C912 C908 1.524 . S
C912 H924 0.956 1_455 S
C912 H925 0.961 . S
C912 H926 0.961 . S
C913 C910 1.539 . S
C913 H927 0.958 . S
C913 H928 0.961 1_655 S
C913 H929 0.960 1_655 S
H914 C898 0.931 . S
H915 C903 0.929 . S
H916 C904 0.960 . S
H917 C904 0.962 . S
H918 C904 0.960 . S
H919 C905 0.961 . S
H920 C905 0.961 . S
H921 C905 0.961 . S
H922 C906 0.931 . S
H923 C911 0.930 . S
H924 C912 0.956 1_655 S
H925 C912 0.961 . S
H926 C912 0.961 . S
H927 C913 0.958 . S
H928 C913 0.961 1_455 S
H929 C913 0.960 1_455 S
C355 C24 2.949 . S
C363 C331 2.904 . S
C387 C66 1.086 . S
C395 C258 1.153 . S
C419 C93 1.849 . S
C427 C297 1.811 . S
C451 C13 3.077 . S
C459 C336 3.023 . S
C491 C253 1.271 . S
C483 C57 1.268 . S
C523 C292 1.933 . S
C515 C104 1.960 . S
C547 C64 1.961 . S
C555 C180 1.919 . S
C579 C97 0.537 . S
C587 C214 0.511 . S
C611 C17 1.297 . S
C619 C136 1.299 . S
C651 C175 1.802 . S
C643 C53 1.839 . S
C683 C219 0.190 . S
C675 C106 0.392 . S
C707 C26 1.108 . S
C715 C141 1.167 . S
C747 C199 1.075 1_554 S
C739 C2 1.038 . S
C771 C63 1.428 . S
C779 C121 1.499 . S
C803 C82 1.373 . S
C811 C160 1.389 . S
C843 C277 1.405 . S
C835 C42 1.368 . S
C875 C316 1.792 1_556 S
C867 C103 1.743 . S
C899 C23 1.492 . S
C907 C238 1.507 . S
