# Generated by pormake.
# Topology zzz, (3,6)-cn, num edge types: 1
# Building blocks:
#     Node 0, Type 0, BuildingBlock: VETTIZ_charged_linker_0, # of connection points: 3
#     Node 1, Type 0, BuildingBlock: VETTIZ_charged_linker_0, # of connection points: 3
#     Node 2, Type 0, BuildingBlock: VETTIZ_charged_linker_0, # of connection points: 3
#     Node 3, Type 0, BuildingBlock: VETTIZ_charged_linker_0, # of connection points: 3
#     Node 4, Type 0, BuildingBlock: VETTIZ_charged_linker_0, # of connection points: 3
#     Node 5, Type 0, BuildingBlock: VETTIZ_charged_linker_0, # of connection points: 3
#     Node 6, Type 0, BuildingBlock: VETTIZ_charged_linker_0, # of connection points: 3
#     Node 7, Type 0, BuildingBlock: VETTIZ_charged_linker_0, # of connection points: 3
#     Node 8, Type 1, BuildingBlock: FUNLAD_clean_sbu_0, # of connection points: 6
#     Node 9, Type 1, BuildingBlock: FUNLAD_clean_sbu_0, # of connection points: 6
#     Node 10, Type 1, BuildingBlock: FUNLAD_clean_sbu_0, # of connection points: 6
#     Node 11, Type 1, BuildingBlock: FUNLAD_clean_sbu_0, # of connection points: 6
#     Edge 12, Type (0, 1), BuildingBlock: AJUNOK_clean_linker_0, # of connection points: 2
#     Edge 13, Type (0, 1), BuildingBlock: AJUNOK_clean_linker_0, # of connection points: 2
#     Edge 14, Type (0, 1), BuildingBlock: AJUNOK_clean_linker_0, # of connection points: 2
#     Edge 15, Type (0, 1), BuildingBlock: AJUNOK_clean_linker_0, # of connection points: 2
#     Edge 16, Type (0, 1), BuildingBlock: AJUNOK_clean_linker_0, # of connection points: 2
#     Edge 17, Type (0, 1), BuildingBlock: AJUNOK_clean_linker_0, # of connection points: 2
#     Edge 18, Type (0, 1), BuildingBlock: AJUNOK_clean_linker_0, # of connection points: 2
#     Edge 19, Type (0, 1), BuildingBlock: AJUNOK_clean_linker_0, # of connection points: 2
#     Edge 20, Type (0, 1), BuildingBlock: AJUNOK_clean_linker_0, # of connection points: 2
#     Edge 21, Type (0, 1), BuildingBlock: AJUNOK_clean_linker_0, # of connection points: 2
#     Edge 22, Type (0, 1), BuildingBlock: AJUNOK_clean_linker_0, # of connection points: 2
#     Edge 23, Type (0, 1), BuildingBlock: AJUNOK_clean_linker_0, # of connection points: 2
#     Edge 24, Type (0, 1), BuildingBlock: AJUNOK_clean_linker_0, # of connection points: 2
#     Edge 25, Type (0, 1), BuildingBlock: AJUNOK_clean_linker_0, # of connection points: 2
#     Edge 26, Type (0, 1), BuildingBlock: AJUNOK_clean_linker_0, # of connection points: 2
#     Edge 27, Type (0, 1), BuildingBlock: AJUNOK_clean_linker_0, # of connection points: 2
#     Edge 28, Type (0, 1), BuildingBlock: AJUNOK_clean_linker_0, # of connection points: 2
#     Edge 29, Type (0, 1), BuildingBlock: AJUNOK_clean_linker_0, # of connection points: 2
#     Edge 30, Type (0, 1), BuildingBlock: AJUNOK_clean_linker_0, # of connection points: 2
#     Edge 31, Type (0, 1), BuildingBlock: AJUNOK_clean_linker_0, # of connection points: 2
#     Edge 32, Type (0, 1), BuildingBlock: AJUNOK_clean_linker_0, # of connection points: 2
#     Edge 33, Type (0, 1), BuildingBlock: AJUNOK_clean_linker_0, # of connection points: 2
#     Edge 34, Type (0, 1), BuildingBlock: AJUNOK_clean_linker_0, # of connection points: 2
#     Edge 35, Type (0, 1), BuildingBlock: AJUNOK_clean_linker_0, # of connection points: 2
# Relax obj value: 0.275
# Max RMSD: 0.240
# Mean RMSD: 0.196
data_MOF--net-zzz--node1-FUNLAD_clean_sbu_0--node2-VETTIZ_charged_linker_0--edge1-AJUNOK_clean_linker_0
_symmetry_space_group_name_H-M    P1
_symmetry_Int_Tables_number       1
_symmetry_cell_setting            triclinic
loop_
_symmetry_equiv_pos_as_xyz
'x, y, z'
_cell_length_a     44.441482
_cell_length_b     50.22957
_cell_length_c     17.761595
_cell_angle_alpha  85.766421
_cell_angle_beta   84.53625
_cell_angle_gamma 92.309467
loop_
_atom_site_label
_atom_site_type_symbol
_atom_site_fract_x
_atom_site_fract_y
_atom_site_fract_z
_atom_type_partial_charge
C0 C 0.85869 0.48339 0.44691 0.0
C1 C 0.88178 0.47163 0.48571 0.0
C2 C 0.88894 0.44506 0.4744 0.0
C3 C 0.8567 0.44487 0.37354 0.0
C4 C 0.84561 0.46894 0.39213 0.0
C5 C 0.81906 0.47565 0.34756 0.0
H6 H 0.73893 0.44574 0.05133 0.0
C7 C 0.84289 0.43633 0.30792 0.0
C8 C 0.81913 0.45298 0.29431 0.0
H9 H 0.7195 0.50606 0.20736 0.0
H10 H 0.76249 0.49333 0.27547 0.0
H11 H 0.79845 0.45744 0.01324 0.0
H12 H 0.75822 0.39754 0.17085 0.0
H13 H 0.78986 0.38465 0.11951 0.0
H14 H 0.76101 0.40001 0.06883 0.0
H15 H 0.80479 0.42385 0.99523 0.0
H16 H 0.8319 0.44344 0.04047 0.0
C17 C 0.82581 0.50327 0.30378 0.0
C18 C 0.79015 0.4742 0.4037 0.0
C19 C 0.91245 0.40187 0.10293 0.0
C20 C 0.90785 0.39859 0.027 0.0
C21 C 0.8783 0.39273 0.00842 0.0
C22 C 0.85341 0.39461 0.06206 0.0
C23 C 0.85833 0.40325 0.13331 0.0
C24 C 0.88729 0.40443 0.15538 0.0
C25 C 0.88789 0.41314 0.23453 0.0
C26 C 0.85478 0.42009 0.25166 0.0
C27 C 0.83817 0.41555 0.19021 0.0
C28 C 0.90988 0.43793 0.23335 0.0
C29 C 0.8974 0.38936 0.28616 0.0
C30 C 0.7437 0.45592 0.10089 0.0
C31 C 0.72572 0.47657 0.12489 0.0
C32 C 0.73307 0.48997 0.18824 0.0
C33 C 0.75781 0.48243 0.22787 0.0
C34 C 0.77555 0.46155 0.2031 0.0
C35 C 0.76855 0.44903 0.13975 0.0
C36 C 0.79101 0.42885 0.11694 0.0
C37 C 0.81149 0.42969 0.18067 0.0
C38 C 0.80242 0.44893 0.23113 0.0
C39 C 0.80744 0.4387 0.03769 0.0
C40 C 0.77421 0.40122 0.11865 0.0
H41 H 0.88054 0.41081 0.41344 0.0
H42 H 0.85167 0.50325 0.45774 0.0
H43 H 0.79089 0.45767 0.4487 0.0
H44 H 0.76945 0.46975 0.37634 0.0
H45 H 0.78771 0.4931 0.43199 0.0
H46 H 0.84872 0.50418 0.27218 0.0
H47 H 0.82513 0.51941 0.34335 0.0
H48 H 0.80971 0.50766 0.26146 0.0
H49 H 0.93504 0.40588 0.11856 0.0
H50 H 0.87434 0.38943 0.9505 0.0
H51 H 0.83123 0.39102 0.045 0.0
H52 H 0.90342 0.45431 0.1933 0.0
H53 H 0.93352 0.43297 0.21602 0.0
H54 H 0.91012 0.44568 0.28993 0.0
H55 H 0.91092 0.37518 0.25333 0.0
H56 H 0.87734 0.37784 0.31612 0.0
H57 H 0.91235 0.39608 0.32829 0.0
H58 H 0.90554 0.4353 0.50637 0.0
C59 C 0.87588 0.43139 0.41921 0.0
C60 C 0.02114 0.84707 0.01517 0.0
C61 C 1.01428 0.87407 0.02068 0.0
C62 C 0.9859 0.88008 0.05667 0.0
C63 C 0.97515 0.83351 0.09471 0.0
C64 C 1.00066 0.82706 0.05089 0.0
C65 C 1.00217 0.79727 0.0476 0.0
H66 H 0.96537 0.67385 0.19759 0.0
C67 C 0.96098 0.80914 0.135 0.0
C68 C 0.97401 0.78764 0.10078 0.0
H69 H 0.97019 0.69818 0.9577 0.0
H70 H 0.96779 0.74481 0.98707 0.0
H71 H 1.01026 0.72743 0.24956 0.0
H72 H 0.91276 0.71826 0.24446 0.0
H73 H 0.9241 0.72646 0.33395 0.0
H74 H 0.9332 0.69489 0.2994 0.0
H75 H 0.98791 0.70323 0.31326 0.0
H76 H 0.9903 0.73801 0.33168 0.0
C77 C 0.03133 0.78765 0.07923 0.0
C78 C 1.00102 0.7902 0.96493 0.0
C79 C 0.92677 0.82224 0.40707 0.0
C80 C 0.93571 0.80891 0.47245 0.0
C81 C 0.94432 0.78225 0.47001 0.0
C82 C 0.94573 0.76978 0.40126 0.0
C83 C 0.94067 0.78485 0.334 0.0
C84 C 0.93217 0.81099 0.33786 0.0
C85 C 0.9364 0.82684 0.26228 0.0
C86 C 0.94805 0.80563 0.21161 0.0
C87 C 0.94922 0.7807 0.25325 0.0
C88 C 0.9599 0.85062 0.26547 0.0
C89 C 0.90525 0.83599 0.24201 0.0
C90 C 0.96759 0.6893 0.1513 0.0
C91 C 0.96942 0.68258 0.07517 0.0
C92 C 0.97023 0.70303 0.01615 0.0
C93 C 0.97046 0.7298 0.03202 0.0
C94 C 0.97152 0.73615 0.10682 0.0
C95 C 0.96762 0.71651 0.16588 0.0
C96 C 0.96125 0.72867 0.24135 0.0
C97 C 0.95912 0.75819 0.21484 0.0
C98 C 0.96844 0.76193 0.13742 0.0
C99 C 0.98871 0.72405 0.28704 0.0
C100 C 0.9312 0.71643 0.28242 0.0
H101 H 0.94425 0.86485 0.11733 0.0
H102 H 0.0418 0.84172 0.9837 0.0
H103 H 0.01645 0.80387 0.92537 0.0
H104 H 0.97777 0.7918 0.94738 0.0
H105 H 1.00904 0.76989 0.95711 0.0
H106 H 0.03262 0.79362 0.13794 0.0
H107 H 0.0517 0.7963 0.04319 0.0
H108 H 0.03193 0.76553 0.08063 0.0
H109 H 0.9211 0.84304 0.40748 0.0
H110 H 0.95185 0.7718 0.51985 0.0
H111 H 0.95294 0.74967 0.40179 0.0
H112 H 0.96308 0.85588 0.32381 0.0
H113 H 0.9528 0.86934 0.23687 0.0
H114 H 0.9828 0.846 0.24056 0.0
H115 H 0.88803 0.81907 0.25131 0.0
H116 H 0.90582 0.84344 0.18174 0.0
H117 H 0.89745 0.85209 0.27782 0.0
H118 H 0.97869 0.90043 0.05557 0.0
C119 C 0.9661 0.85978 0.09276 0.0
C120 C 0.84475 0.00543 0.0812 0.0
C121 C 0.85917 0.01356 0.00779 0.0
C122 C 0.84458 0.03112 0.95968 0.0
C123 C 0.80166 0.0317 0.05395 0.0
C124 C 0.81573 0.01485 0.10321 0.0
C125 C 0.79564 0.0086 0.17752 0.0
H126 H 0.66184 0.03477 0.38481 0.0
C127 C 0.77228 0.03851 0.09134 0.0
C128 C 0.76852 0.02586 0.16538 0.0
H129 H 0.72469 0.97677 0.45341 0.0
H130 H 0.7582 0.98937 0.33677 0.0
H131 H 0.7113 0.0818 0.31201 0.0
H132 H 0.65472 0.02024 0.2477 0.0
H133 H 0.66545 0.0361 0.1575 0.0
H134 H 0.64493 0.05386 0.22932 0.0
H135 H 0.67106 0.08141 0.30803 0.0
H136 H 0.697 0.09456 0.22819 0.0
C137 C 0.81269 0.01719 0.2439 0.0
C138 C 0.78641 0.97853 0.18455 0.0
C139 C 0.69258 0.07594 0.93609 0.0
C140 C 0.66217 0.08064 0.95841 0.0
C141 C 0.65395 0.08704 0.03306 0.0
C142 C 0.67445 0.08404 0.08778 0.0
C143 C 0.70285 0.07394 0.0674 0.0
C144 C 0.71265 0.07252 0.9919 0.0
C145 C 0.74433 0.06288 0.98149 0.0
C146 C 0.74938 0.0543 0.06343 0.0
C147 C 0.72467 0.06036 0.1128 0.0
C148 C 0.76568 0.087 0.94804 0.0
C149 C 0.74452 0.03889 0.93122 0.0
C150 C 0.68296 0.02486 0.37546 0.0
C151 C 0.69073 0.00505 0.42847 0.0
C152 C 0.71814 0.99217 0.41309 0.0
C153 C 0.73744 0.99944 0.34545 0.0
C154 C 0.72878 0.01925 0.29206 0.0
C155 C 0.70164 0.03125 0.30839 0.0
C156 C 0.69372 0.05018 0.24555 0.0
C157 C 0.72057 0.04805 0.18763 0.0
C158 C 0.74174 0.03026 0.2143 0.0
C159 C 0.69297 0.07853 0.27465 0.0
C160 C 0.66323 0.03982 0.21847 0.0
H161 H 0.80659 0.05355 0.94263 0.0
H162 H 0.85558 0.992 0.11956 0.0
H163 H 0.7784 0.97242 0.13063 0.0
H164 H 0.76766 0.97331 0.22905 0.0
H165 H 0.80594 0.96639 0.19714 0.0
H166 H 0.82151 0.03829 0.23266 0.0
H167 H 0.83218 0.00444 0.25178 0.0
H168 H 0.79792 0.01593 0.29776 0.0
H169 H 0.69939 0.07167 0.87823 0.0
H170 H 0.63075 0.0912 0.05115 0.0
H171 H 0.66658 0.0876 0.14482 0.0
H172 H 0.75431 0.10633 0.9488 0.0
H173 H 0.77414 0.08477 0.88804 0.0
H174 H 0.78533 0.08965 0.98144 0.0
H175 H 0.72533 0.02439 0.95112 0.0
H176 H 0.76521 0.02756 0.93234 0.0
H177 H 0.74236 0.04568 0.87112 0.0
H178 H 0.85528 0.03782 0.90369 0.0
C179 C 0.81629 0.04036 0.98249 0.0
C180 C 0.5732 0.66004 0.41957 0.0
C181 C 0.58361 0.63375 0.42595 0.0
C182 C 0.59683 0.62284 0.36059 0.0
C183 C 0.58065 0.65988 0.28325 0.0
C184 C 0.57312 0.67327 0.34674 0.0
C185 C 0.56265 0.70088 0.3247 0.0
H186 H 0.51198 0.7842 0.05142 0.0
C187 C 0.57009 0.6746 0.2175 0.0
C188 C 0.56385 0.70039 0.23808 0.0
H189 H 0.58236 0.80794 0.1875 0.0
H190 H 0.58595 0.7611 0.23511 0.0
H191 H 0.54968 0.73854 0.99172 0.0
H192 H 0.47607 0.73314 0.17032 0.0
H193 H 0.47318 0.70485 0.11834 0.0
H194 H 0.4696 0.73769 0.07208 0.0
H195 H 0.51136 0.74524 0.97476 0.0
H196 H 0.5242 0.71186 0.97841 0.0
C197 C 0.5844 0.72216 0.35072 0.0
C198 C 0.53003 0.70386 0.36006 0.0
C199 C 0.51943 0.61572 0.0422 0.0
C200 C 0.49585 0.61955 0.99582 0.0
C201 C 0.48359 0.64496 0.98848 0.0
C202 C 0.49513 0.66624 0.02599 0.0
C203 C 0.51903 0.662 0.07146 0.0
C204 C 0.53011 0.63682 0.08072 0.0
C205 C 0.55414 0.63528 0.13478 0.0
C206 C 0.55519 0.66385 0.15824 0.0
C207 C 0.53525 0.67949 0.11906 0.0
C208 C 0.58415 0.62879 0.09007 0.0
C209 C 0.54368 0.61407 0.20134 0.0
C210 C 0.52662 0.77968 0.09562 0.0
C211 C 0.54563 0.79987 0.11907 0.0
C212 C 0.56644 0.79292 0.17175 0.0
C213 C 0.56785 0.76626 0.20142 0.0
C214 C 0.54783 0.74664 0.1796 0.0
C215 C 0.52882 0.75316 0.12438 0.0
C216 C 0.51656 0.72863 0.09106 0.0
C217 C 0.53315 0.7069 0.13178 0.0
C218 C 0.54902 0.71744 0.18794 0.0
C219 C 0.52569 0.73106 1.00434 0.0
C220 C 0.482 0.72586 0.11336 0.0
H221 H 0.60508 0.62685 0.23995 0.0
H222 H 0.56386 0.66923 0.46931 0.0
H223 H 0.51459 0.68777 0.34366 0.0
H224 H 0.52156 0.72343 0.34033 0.0
H225 H 0.52901 0.7028 0.42297 0.0
H226 H 0.58901 0.71717 0.41043 0.0
H227 H 0.57424 0.74196 0.34967 0.0
H228 H 0.60634 0.72355 0.31461 0.0
H229 H 0.52971 0.59657 0.04799 0.0
H230 H 0.46515 0.64836 0.9538 0.0
H231 H 0.48514 0.6852 0.01791 0.0
H232 H 0.58759 0.64083 0.03451 0.0
H233 H 0.58413 0.60731 0.07895 0.0
H234 H 0.60403 0.63364 0.12024 0.0
H235 H 0.53164 0.62333 0.24982 0.0
H236 H 0.56279 0.60297 0.22126 0.0
H237 H 0.5279 0.59835 0.18465 0.0
H238 H 0.60576 0.60308 0.36429 0.0
C239 C 0.59561 0.63602 0.28896 0.0
C240 C 0.31848 0.52127 0.29409 0.0
C241 C 0.33445 0.53383 0.34812 0.0
C242 C 0.32489 0.55841 0.37295 0.0
C243 C 0.28175 0.55548 0.30157 0.0
C244 C 0.2924 0.53309 0.26978 0.0
C245 C 0.27392 0.52586 0.20578 0.0
H246 H 0.1502 0.55395 0.01505 0.0
C247 C 0.25456 0.56319 0.26794 0.0
C248 C 0.25037 0.54737 0.20772 0.0
H249 H 0.21168 0.49136 0.97192 0.0
H250 H 0.24182 0.50584 0.07101 0.0
H251 H 0.1353 0.5486 0.15471 0.0
H252 H 0.18257 0.61709 0.12004 0.0
H253 H 0.15971 0.60155 0.05536 0.0
H254 H 0.20035 0.60138 0.04287 0.0
H255 H 0.13221 0.582 0.17672 0.0
H256 H 0.14949 0.5582 0.23882 0.0
C257 C 0.25929 0.49755 0.22596 0.0
C258 C 0.29486 0.52843 0.1309 0.0
C259 C 0.16788 0.59521 0.43206 0.0
C260 C 0.13876 0.60163 0.41401 0.0
C261 C 0.13485 0.61149 0.33942 0.0
C262 C 0.15816 0.61004 0.28128 0.0
C263 C 0.18484 0.59807 0.29854 0.0
C264 C 0.19085 0.59372 0.37297 0.0
C265 C 0.2222 0.58404 0.37905 0.0
C266 C 0.23169 0.57966 0.29567 0.0
C267 C 0.20838 0.58587 0.25057 0.0
C268 C 0.2208 0.55762 0.43005 0.0
C269 C 0.24119 0.60623 0.4112 0.0
C270 C 0.17046 0.54359 0.02592 0.0
C271 C 0.17897 0.52194 0.98474 0.0
C272 C 0.20487 0.50833 1.00257 0.0
C273 C 0.22226 0.51677 0.05993 0.0
C274 C 0.21319 0.53862 0.1008 0.0
C275 C 0.18734 0.55127 0.08368 0.0
C276 C 0.17921 0.57284 0.13475 0.0
C277 C 0.20503 0.57182 0.18495 0.0
C278 C 0.22516 0.55184 0.16488 0.0
C279 C 0.14759 0.56519 0.17873 0.0
C280 C 0.18032 0.59972 0.08589 0.0
H281 H 0.29394 0.58947 0.36178 0.0
H282 H 0.3264 0.50321 0.27074 0.0
H283 H 0.30935 0.54717 0.1267 0.0
H284 H 0.2822 0.52955 0.08041 0.0
H285 H 0.30996 0.51136 0.12779 0.0
H286 H 0.2482 0.49579 0.28508 0.0
H287 H 0.27663 0.48226 0.22168 0.0
H288 H 0.24154 0.49262 0.18925 0.0
H289 H 0.17168 0.58856 0.48961 0.0
H290 H 0.11292 0.61774 0.32503 0.0
H291 H 0.15417 0.61669 0.22448 0.0
H292 H 0.20578 0.54229 0.40839 0.0
H293 H 0.21217 0.56073 0.48934 0.0
H294 H 0.24356 0.54952 0.43213 0.0
H295 H 0.22698 0.61794 0.45045 0.0
H296 H 0.2523 0.62048 0.36504 0.0
H297 H 0.25844 0.5978 0.4461 0.0
H298 H 0.3376 0.56904 0.41142 0.0
C299 C 0.29904 0.56961 0.34806 0.0
C300 C 0.03222 0.15187 0.44804 0.0
C301 C 0.0396 0.12497 0.44273 0.0
C302 C 0.06833 0.11936 0.40787 0.0
C303 C 0.07826 0.16598 0.36949 0.0
C304 C 0.0525 0.17212 0.4128 0.0
C305 C 0.05044 0.20188 0.41568 0.0
H306 H 0.08626 0.32559 0.26661 0.0
C307 C 0.09201 0.19044 0.32885 0.0
C308 C 0.07862 0.2118 0.36296 0.0
H309 H 0.08247 0.301 0.50628 0.0
H310 H 0.08484 0.25444 0.4764 0.0
H311 H 0.13877 0.28119 0.21643 0.0
H312 H 0.04105 0.27127 0.21612 0.0
H313 H 0.06085 0.26178 0.13227 0.0
H314 H 0.06257 0.2963 0.15331 0.0
H315 H 0.11778 0.30469 0.16344 0.0
H316 H 0.12648 0.27324 0.12758 0.0
C317 C 0.05115 0.20915 0.49827 0.0
C318 C 0.02123 0.21103 0.3833 0.0
C319 C 0.12467 0.17704 0.05617 0.0
C320 C 0.11511 0.19005 0.99109 0.0
C321 C 0.10607 0.2166 0.9935 0.0
C322 C 0.10495 0.22926 0.06196 0.0
C323 C 0.11074 0.21448 0.12908 0.0
C324 C 0.1196 0.18843 0.12527 0.0
C325 C 0.11615 0.17276 0.20113 0.0
C326 C 0.10448 0.19396 0.25185 0.0
C327 C 0.10266 0.21877 0.20998 0.0
C328 C 0.14764 0.16412 0.22009 0.0
C329 C 0.09299 0.14862 0.19945 0.0
C330 C 0.08432 0.31011 0.3128 0.0
C331 C 0.08269 0.31678 0.38905 0.0
C332 C 0.08227 0.29626 0.44779 0.0
C333 C 0.08206 0.26951 0.43166 0.0
C334 C 0.08073 0.26324 0.35689 0.0
C335 C 0.08432 0.28292 0.29795 0.0
C336 C 0.09021 0.27077 0.22223 0.0
C337 C 0.09264 0.24125 0.24847 0.0
C338 C 0.0837 0.23749 0.32607 0.0
C339 C 0.11993 0.28312 0.17974 0.0
C340 C 0.06236 0.2753 0.17799 0.0
H341 H 0.10994 0.13515 0.34805 0.0
H342 H 1.01128 0.15697 0.47874 0.0
H343 H 0.02025 0.23313 0.38159 0.0
H344 H 1.00088 0.20218 0.41904 0.0
H345 H 0.02026 0.20492 0.32461 0.0
H346 H 0.03548 0.19558 0.53754 0.0
H347 H 0.04317 0.22952 0.50529 0.0
H348 H 0.07426 0.20754 0.51668 0.0
H349 H 0.13073 0.15634 0.05581 0.0
H350 H 0.09808 0.22682 0.94392 0.0
H351 H 0.09745 0.24927 0.06146 0.0
H352 H 0.16453 0.18128 0.21009 0.0
H353 H 0.15554 0.14811 0.18404 0.0
H354 H 0.14755 0.1567 0.28027 0.0
H355 H 0.07003 0.15314 0.22418 0.0
H356 H 0.10041 0.13021 0.22902 0.0
H357 H 0.08989 0.14283 0.14157 0.0
H358 H 0.07593 0.09913 0.40934 0.0
C359 C 0.08789 0.13989 0.37213 0.0
C360 C 0.34347 0.01004 0.05742 0.0
C361 C 0.37302 0.02254 0.04162 0.0
C362 C 0.38436 0.0383 0.09609 0.0
C363 C 0.34299 0.02185 0.1863 0.0
C364 C 0.32797 0.01137 0.13056 0.0
C365 C 0.29671 1.0001 0.16444 0.0
H366 H 0.20768 0.9699 0.50406 0.0
C367 C 0.32738 0.01269 0.25972 0.0
C368 C 0.29752 0.00493 0.24913 0.0
H369 H 0.1778 0.02085 0.3222 0.0
H370 H 0.22833 0.02007 0.25139 0.0
H371 H 0.25225 0.93096 0.39842 0.0
H372 H 0.26713 0.00319 0.50975 0.0
H373 H 0.2942 0.97992 0.53287 0.0
H374 H 0.25501 0.97152 0.55953 0.0
H375 H 0.25559 0.93018 0.49841 0.0
H376 H 0.28849 0.93007 0.43021 0.0
C377 C 0.29346 0.97003 0.15344 0.0
C378 C 0.27196 0.01535 0.12752 0.0
C379 C 0.39825 0.97148 0.43673 0.0
C380 C 0.39406 0.9524 0.49905 0.0
C381 C 0.36451 0.94234 0.5248 0.0
C382 C 0.33958 0.95141 0.48896 0.0
C383 C 0.3443 0.97093 0.42748 0.0
C384 C 0.37336 0.98016 0.40138 0.0
C385 C 0.37476 0.99858 0.3305 0.0
C386 C 0.34114 1.00028 0.32112 0.0
C387 C 0.32365 0.98372 0.37718 0.0
C388 C 0.39194 0.98433 0.26606 0.0
C389 C 0.39012 0.02597 0.34337 0.0
C390 C 0.21142 0.98001 0.44771 0.0
C391 C 0.18856 0.99492 0.41826 0.0
C392 C 0.19467 0.00849 0.3452 0.0
C393 C 0.22343 0.00766 0.30361 0.0
C394 C 0.2458 0.99245 0.33427 0.0
C395 C 0.23982 0.97953 0.40619 0.0
C396 C 0.26804 0.96952 0.43705 0.0
C397 C 0.29194 0.98106 0.37541 0.0
C398 C 0.27878 0.99221 0.31234 0.0
C399 C 0.2661 0.93858 0.44196 0.0
C400 C 0.27141 0.98148 0.51401 0.0
H401 H 0.37877 0.0494 0.21066 0.0
H402 H 0.33355 0.99881 0.01551 0.0
H403 H 0.27171 0.03626 0.14408 0.0
H404 H 0.24941 0.00525 0.14409 0.0
H405 H 0.27595 0.0159 0.06467 0.0
H406 H 0.31193 0.95916 0.17834 0.0
H407 H 0.2944 0.9666 0.09218 0.0
H408 H 0.27147 0.96138 0.18168 0.0
H409 H 0.4205 0.98023 0.41673 0.0
H410 H 0.36069 0.92779 0.57326 0.0
H411 H 0.31757 0.94325 0.51113 0.0
H412 H 0.37943 0.96552 0.25577 0.0
H413 H 0.41485 0.97921 0.2809 0.0
H414 H 0.39555 0.99676 0.21201 0.0
H415 H 0.40062 0.02571 0.39774 0.0
H416 H 0.37357 0.04196 0.34522 0.0
H417 H 0.4086 0.03204 0.29803 0.0
H418 H 0.40621 0.04892 0.08454 0.0
C419 C 0.36923 0.03814 0.16873 0.0
C420 C 0.48093 0.33417 0.04088 0.0
C421 C 0.47352 0.36135 0.03224 0.0
C422 C 0.46455 0.37459 0.09715 0.0
C423 C 0.48041 0.33779 0.17572 0.0
C424 C 0.48291 0.32234 0.11483 0.0
C425 C 0.48851 0.29362 0.14128 0.0
H426 H 0.53397 0.21206 0.43374 0.0
C427 C 0.49236 0.32335 0.23996 0.0
C428 C 0.49597 0.29677 0.22271 0.0
H429 H 0.49185 0.18612 0.24122 0.0
H430 H 0.49168 0.23257 0.18811 0.0
H431 H 0.57917 0.25462 0.33684 0.0
H432 H 0.49468 0.2617 0.4707 0.0
H433 H 0.52182 0.28576 0.49415 0.0
H434 H 0.52914 0.251 0.50631 0.0
H435 H 0.57801 0.2606 0.43511 0.0
H436 H 0.57995 0.28782 0.36205 0.0
C437 C 0.51528 0.28322 0.09197 0.0
C438 C 0.45863 0.27692 0.13933 0.0
C439 C 0.54322 0.38035 0.41866 0.0
C440 C 0.56364 0.37498 0.47281 0.0
C441 C 0.57198 0.34844 0.48753 0.0
C442 C 0.55945 0.32762 0.45007 0.0
C443 C 0.53881 0.33347 0.39647 0.0
C444 C 0.53161 0.35959 0.38048 0.0
C445 C 0.51106 0.36268 0.31846 0.0
C446 C 0.507 0.33376 0.29962 0.0
C447 C 0.52303 0.31685 0.34584 0.0
C448 C 0.52839 0.38069 0.25239 0.0
C449 C 0.48097 0.37417 0.35061 0.0
C450 C 0.52452 0.21646 0.38043 0.0
C451 C 0.51235 0.1958 0.34226 0.0
C452 C 0.50086 0.20196 0.27201 0.0
C453 C 0.50025 0.22877 0.24217 0.0
C454 C 0.51088 0.24941 0.28367 0.0
C455 C 0.52352 0.24292 0.35063 0.0
C456 C 0.53455 0.26709 0.38661 0.0
C457 C 0.52294 0.28914 0.33594 0.0
C458 C 0.50963 0.27896 0.27448 0.0
C459 C 0.56967 0.26763 0.38041 0.0
C460 C 0.51941 0.26645 0.46901 0.0
H461 H 0.4624 0.37417 0.21696 0.0
H462 H 0.48657 0.32317 0.99171 0.0
H463 H 0.43868 0.28876 0.15513 0.0
H464 H 0.45645 0.25931 0.18065 0.0
H465 H 0.45644 0.27035 0.08164 0.0
H466 H 0.53556 0.29703 0.09058 0.0
H467 H 0.50964 0.28167 0.03281 0.0
H468 H 0.52148 0.26326 0.11425 0.0
H469 H 0.53579 0.40039 0.40702 0.0
H470 H 0.58799 0.34375 0.52827 0.0
H471 H 0.56607 0.30777 0.46473 0.0
H472 H 0.5494 0.37127 0.23075 0.0
H473 H 0.53494 0.4005 0.27147 0.0
H474 H 0.51513 0.38488 0.20411 0.0
H475 H 0.47909 0.37445 0.41345 0.0
H476 H 0.46097 0.36182 0.3385 0.0
H477 H 0.47879 0.39504 0.32707 0.0
H478 H 0.458 0.39515 0.09187 0.0
C479 C 0.46783 0.3628 0.16921 0.0
C480 C 0.05035 0.96487 0.83178 0.0
N481 N 0.99828 0.94999 0.65552 0.0
C482 C 0.01636 0.92876 0.65645 0.0
C483 C 1.00559 0.90371 0.63932 0.0
C484 C 0.97623 0.90036 0.61725 0.0
C485 C 0.95848 0.92298 0.61319 0.0
C486 C 0.96978 0.94757 0.63405 0.0
Zn487 Zn 1.01491 0.98425 0.69752 0.0
C488 C 0.97389 0.9996 0.83205 0.0
N489 N 0.05425 0.04869 0.80493 0.0
C490 C 0.08266 0.05121 0.82693 0.0
C491 C 0.03601 0.06983 0.80416 0.0
C492 C 0.04651 0.09486 0.82221 0.0
C493 C 0.07575 0.0983 0.84491 0.0
C494 C 0.09369 0.07579 0.84857 0.0
Zn495 Zn 0.03768 0.01436 0.76281 0.0
O496 O 0.03469 0.95986 0.77802 0.0
C497 C 0.07845 0.99907 0.6276 0.0
O498 O 0.05665 0.98899 0.84376 0.0
H499 H 1.01327 0.06753 0.78807 0.0
H500 H 0.03918 0.93099 0.67209 0.0
H501 H 0.09683 0.0342 0.82745 0.0
O502 O 0.05503 0.98447 0.61982 0.0
O503 O 0.0781 0.01339 0.68413 0.0
H504 H 0.95572 0.96466 0.63349 0.0
O505 O 0.0183 0.03873 0.68173 0.0
O506 O 0.99562 0.00966 0.61716 0.0
O507 O 0.99713 0.01449 0.83963 0.0
O508 O 0.97476 0.98487 0.77641 0.0
C509 C 1.00236 0.03375 0.6285 0.0
H510 H 0.02027 0.8871 0.64375 0.0
H511 H 0.93624 0.92195 0.59329 0.0
H512 H 0.0317 0.11138 0.81804 0.0
H513 H 0.11587 0.07689 0.86884 0.0
C514 C 0.49684 0.96771 0.65258 0.0
N515 N 0.51944 0.05066 0.62702 0.0
C516 C 0.52244 0.04804 0.5509 0.0
C517 C 0.51968 0.07006 0.4993 0.0
C518 C 0.51409 0.09521 0.52598 0.0
C519 C 0.51056 0.09722 0.60491 0.0
C520 C 0.51331 0.07465 0.65454 0.0
Zn521 Zn 0.52633 0.01801 0.70049 0.0
C522 C 0.47698 0.00706 0.82588 0.0
N523 N 0.54201 0.94742 0.84227 0.0
C524 C 0.55203 0.92459 0.81371 0.0
C525 C 0.5347 0.94848 0.91823 0.0
C526 C 0.53636 0.92581 0.96821 0.0
C527 C 0.54602 0.90188 0.94001 0.0
C528 C 0.55446 0.90157 0.86187 0.0
Zn529 Zn 0.53504 0.98024 0.76947 0.0
O530 O 0.50136 0.99274 0.63678 0.0
C531 C 0.58434 0.99211 0.64416 0.0
O532 O 0.50865 0.95616 0.7076 0.0
H533 H 0.52696 0.9668 0.94012 0.0
H534 H 0.52736 0.02885 0.52993 0.0
H535 H 0.5575 0.92402 0.75322 0.0
O536 O 0.56757 0.01173 0.63374 0.0
O537 O 0.57598 0.97385 0.69657 0.0
H538 H 0.51103 0.07641 0.71512 0.0
O539 O 0.56149 0.00509 0.83043 0.0
O540 O 0.55158 0.04221 0.76568 0.0
O541 O 0.49391 0.9877 0.83938 0.0
O542 O 0.48524 0.02404 0.77013 0.0
C543 C 0.56534 0.03029 0.81682 0.0
H544 H 0.52188 0.06737 0.43914 0.0
H545 H 0.50638 0.11621 0.62815 0.0
H546 H 0.52996 0.92691 0.02825 0.0
H547 H 0.56189 0.88343 0.83798 0.0
C548 C 0.56206 0.4657 0.63952 0.0
N549 N 0.47473 0.49469 0.62783 0.0
C550 C 0.48342 0.49743 0.55189 0.0
C551 C 0.46195 0.49999 0.49957 0.0
C552 C 0.43111 0.50015 0.52526 0.0
C553 C 0.4226 0.49607 0.60373 0.0
C554 C 0.44488 0.49341 0.6543 0.0
Zn555 Zn 0.50855 0.49613 0.70005 0.0
C556 C 0.50703 0.45107 0.81575 0.0
N557 N 0.58392 0.50096 0.83445 0.0
C558 C 0.61331 0.50693 0.80741 0.0
C559 C 0.57609 0.49444 0.90979 0.0
C560 C 0.59819 0.49278 0.9606 0.0
C561 C 0.6287 0.4983 0.93416 0.0
C562 C 0.63618 0.50584 0.85664 0.0
Zn563 Zn 0.54996 0.49931 0.76289 0.0
O564 O 0.535 0.47164 0.63099 0.0
C565 C 0.55128 0.54415 0.6462 0.0
O566 O 0.57565 0.47516 0.69203 0.0
H567 H 0.55264 0.4899 0.93051 0.0
H568 H 0.50719 0.49859 0.53162 0.0
H569 H 0.61913 0.51192 0.74736 0.0
O570 O 0.52709 0.53111 0.6361 0.0
O571 O 0.56763 0.53519 0.69666 0.0
H572 H 0.43837 0.4913 0.71477 0.0
O573 O 0.5235 0.52298 0.8338 0.0
O574 O 0.4833 0.52108 0.7706 0.0
O575 O 0.5316 0.46369 0.82514 0.0
O576 O 0.49035 0.46067 0.76687 0.0
C577 C 0.49675 0.52967 0.82461 0.0
H578 H 0.46951 0.50256 0.43958 0.0
H579 H 0.39905 0.49615 0.62598 0.0
H580 H 0.59154 0.48691 0.01997 0.0
H581 H 0.65954 0.50989 0.83394 0.0
C582 C 0.05655 0.53942 0.63109 0.0
N583 N 0.05267 0.45573 0.62774 0.0
C584 C 0.05002 0.45975 0.55198 0.0
C585 C 0.05748 0.43985 0.50329 0.0
C586 C 0.06756 0.41546 0.53286 0.0
C587 C 0.07088 0.41217 0.61091 0.0
C588 C 0.06329 0.43262 0.65747 0.0
Zn589 Zn 0.03782 0.48399 0.69891 0.0
C590 C 0.08093 0.49874 0.80658 0.0
N591 N 1.00432 0.54482 0.83765 0.0
C592 C 0.99229 0.5672 0.80757 0.0
C593 C 1.00752 0.54138 0.91322 0.0
C594 C 0.99889 0.56111 0.9615 0.0
C595 C 0.98664 0.5845 0.9318 0.0
C596 C 0.98334 0.58737 0.85373 0.0
Zn597 Zn 0.01948 0.51661 0.76698 0.0
O598 O 0.05883 0.51468 0.62224 0.0
C599 C 0.97691 0.50249 0.65807 0.0
O600 O 0.04129 0.54681 0.68932 0.0
H601 H 0.01721 0.52346 0.93599 0.0
H602 H 0.0415 0.47824 0.52936 0.0
H603 H 0.99018 0.56966 0.74732 0.0
O604 O 0.99781 0.48664 0.64248 0.0
O605 O 0.97935 0.51828 0.71008 0.0
H606 H 0.06516 0.42976 0.71776 0.0
O607 O 0.99746 0.486 0.84216 0.0
O608 O 1.01563 0.45377 0.77647 0.0
O609 O 0.05994 0.51456 0.82173 0.0
O610 O 0.07805 0.48216 0.75664 0.0
C611 C 0.99901 0.46126 0.83238 0.0
H612 H 0.05513 0.44343 0.44331 0.0
H613 H 0.07838 0.39363 0.63623 0.0
H614 H 1.00191 0.5582 0.02129 0.0
H615 H 0.97474 0.6054 0.8281 0.0
C616 C 0.16099 0.00552 0.54231 0.0
C617 C 0.15976 0.99784 0.46777 0.0
C618 C 0.13468 0.00643 0.59275 0.0
C619 C 0.1059 0.99923 0.57152 0.0
H620 H 0.18262 0.01069 0.56214 0.0
H621 H 0.13704 0.01221 0.64953 0.0
S622 S 0.08996 0.97897 0.38158 0.0
N623 N 0.12712 0.98403 0.37434 0.0
N624 N 0.07774 0.98534 0.4689 0.0
C625 C 0.10426 0.99205 0.49655 0.0
C626 C 0.13109 0.99151 0.4448 0.0
C627 C 0.48861 0.16154 0.441 0.0
C628 C 0.51054 0.16831 0.3795 0.0
C629 C 0.48938 0.13752 0.4864 0.0
C630 C 0.5123 0.11941 0.47248 0.0
H631 H 0.47127 0.17536 0.45558 0.0
H632 H 0.47218 0.13335 0.53372 0.0
S633 S 0.5753 0.12831 0.31813 0.0
N634 N 0.55561 0.15525 0.30627 0.0
N635 N 0.55756 0.11024 0.39184 0.0
C636 C 0.53402 0.12579 0.40978 0.0
C637 C 0.53306 0.15023 0.36339 0.0
C638 C 0.35766 0.49903 0.42968 0.0
C639 C 0.36122 0.52229 0.37991 0.0
C640 C 0.38071 0.49141 0.47485 0.0
C641 C 0.40821 0.50667 0.47129 0.0
H642 H 0.33629 0.48752 0.43693 0.0
H643 H 0.37668 0.47386 0.51433 0.0
S644 S 0.42901 0.56865 0.3468 0.0
N645 N 0.39465 0.55978 0.32688 0.0
N646 N 0.43779 0.54575 0.41157 0.0
C647 C 0.41243 0.52933 0.41906 0.0
C648 C 0.38899 0.53705 0.37346 0.0
C649 C 0.10344 0.35446 0.45543 0.0
C650 C 0.08179 0.34476 0.41012 0.0
C651 C 0.09946 0.37813 0.49152 0.0
C652 C 0.07355 0.39296 0.48414 0.0
H653 H 0.12294 0.34295 0.46591 0.0
H654 H 0.11627 0.38435 0.52779 0.0
S655 S 1.01087 0.37661 0.36859 0.0
N656 N 0.03441 0.35232 0.35642 0.0
N657 N 0.02652 0.3967 0.42496 0.0
C658 C 0.05249 0.38419 0.43562 0.0
C659 C 0.05672 0.36011 0.39846 0.0
C660 C 0.8911 0.98936 0.91399 0.0
C661 C 0.8893 0.00469 0.97741 0.0
C662 C 0.91867 0.98691 0.86953 0.0
C663 C 0.94568 1.00006 0.88568 0.0
H664 H 0.87065 0.98035 0.89617 0.0
H665 H 0.91843 0.97557 0.82001 0.0
S666 S 0.95343 0.04109 0.04937 0.0
N667 N 0.91709 0.0319 0.05689 0.0
N668 N 0.96893 0.02745 0.97409 0.0
C669 C 0.9444 0.01438 0.95144 0.0
C670 C 0.91626 0.01666 0.99699 0.0
C671 C 0.57263 0.83825 0.03822 0.0
C672 C 0.54612 0.82727 0.08082 0.0
C673 C 0.57258 0.86257 0.99359 0.0
C674 C 0.54615 0.87702 0.99108 0.0
H675 H 0.59328 0.82747 0.03714 0.0
H676 H 0.59329 0.87002 0.9602 0.0
S677 S 0.47114 0.8573 0.0943 0.0
N678 N 0.49298 0.83292 0.11887 0.0
N679 N 0.49298 0.87879 0.03632 0.0
C680 C 0.51975 0.86661 0.03516 0.0
C681 C 0.5197 0.84169 0.07959 0.0
C682 C 0.6769 0.46414 0.07457 0.0
C683 C 0.69964 0.48376 0.08241 0.0
C684 C 0.65367 0.46932 0.02808 0.0
C685 C 0.65262 0.49416 0.98645 0.0
H686 H 0.67738 0.44447 0.10377 0.0
H687 H 0.6369 0.45347 0.02288 0.0
S688 S 0.70636 0.55245 0.98876 0.0
N689 N 0.71927 0.5292 0.04644 0.0
N690 N 0.6758 0.53886 0.95797 0.0
C691 C 0.67496 0.5141 0.99465 0.0
C692 C 0.69838 0.50893 0.04302 0.0
C693 C 0.99612 0.64011 0.06291 0.0
C694 C 0.97011 0.6546 0.05457 0.0
C695 C 1.00057 0.61647 0.02647 0.0
C696 C 0.97915 0.60666 0.98043 0.0
H697 H 1.014 0.64801 0.09356 0.0
H698 H 0.02173 0.60675 0.03065 0.0
S699 S 0.90507 0.63519 0.95117 0.0
N700 N 0.92121 0.65607 1.00453 0.0
N701 N 0.92925 0.6115 0.93705 0.0
C702 C 0.95205 0.61999 0.9766 0.0
C703 C 0.94761 0.644 0.01345 0.0
C704 C 1.00712 0.10467 0.55624 0.0
C705 C 0.01951 0.10277 0.48117 0.0
C706 C 0.99625 0.0818 0.60171 0.0
C707 C 0.99788 0.05631 0.57396 0.0
H708 H 1.00866 0.12337 0.58265 0.0
H709 H 0.98997 0.08375 0.66147 0.0
S710 S 0.01997 0.0417 0.37558 0.0
N711 N 0.02578 0.07439 0.37588 0.0
N712 N 1.00662 0.0311 0.46309 0.0
C713 C 1.00587 0.05461 0.4963 0.0
C714 C 0.01662 0.07798 0.44951 0.0
C715 C 0.41763 0.94908 0.62061 0.0
C716 C 0.42022 0.9463 0.54208 0.0
C717 C 0.44342 0.9529 0.6586 0.0
C718 C 0.47238 0.95419 0.61902 0.0
H719 H 0.3957 0.95106 0.65142 0.0
H720 H 0.44056 0.95751 0.71748 0.0
S721 S 0.49162 0.94162 0.4182 0.0
N722 N 0.45425 0.93939 0.43002 0.0
N723 N 0.50272 0.94826 0.50129 0.0
C724 C 0.47548 0.94854 0.54295 0.0
C725 C 0.4493 0.944 0.50453 0.0
C726 C 0.57989 0.42287 0.48003 0.0
C727 C 0.57361 0.39712 0.51697 0.0
C728 C 0.57941 0.44564 0.52098 0.0
C729 C 0.57399 0.44325 0.60018 0.0
H730 H 0.58255 0.42562 0.41863 0.0
H731 H 0.58103 0.46519 0.49032 0.0
S732 S 0.56112 0.38071 0.725 0.0
N733 N 0.56485 0.37074 0.63826 0.0
N734 N 0.56592 0.41359 0.71496 0.0
C735 C 0.57131 0.41768 0.6383 0.0
C736 C 0.57083 0.39451 0.59673 0.0
C737 C 0.11034 0.59578 0.54347 0.0
C738 C 0.11243 0.59093 0.46615 0.0
C739 C 0.09029 0.58027 0.59678 0.0
C740 C 0.07242 0.5591 0.57428 0.0
H741 H 0.12544 0.61063 0.56325 0.0
H742 H 0.09035 0.58363 0.65633 0.0
S743 S 0.06748 0.53971 0.37855 0.0
N744 N 0.09311 0.56474 0.36953 0.0
N745 N 0.05589 0.53558 0.4699 0.0
C746 C 0.07296 0.55513 0.49693 0.0
C747 C 0.09286 0.5711 0.44271 0.0
C748 C 0.04561 0.89394 0.90492 0.0
C749 C 0.03434 0.896 0.98075 0.0
C750 C 0.05607 0.9167 0.85848 0.0
C751 C 0.05508 0.94226 0.88603 0.0
H752 H 0.04346 0.8752 0.87892 0.0
H753 H 0.0615 0.91462 0.79846 0.0
S754 S 0.03641 0.95714 0.08568 0.0
N755 N 0.03008 0.92449 0.08603 0.0
N756 N 0.0485 0.96761 0.99722 0.0
C757 C 0.04834 0.94407 0.96413 0.0
C758 C 0.03803 0.9208 0.01186 0.0
C759 C 0.63861 0.04286 0.90108 0.0
C760 C 0.63842 0.07007 0.9146 0.0
C761 C 0.61453 0.03032 0.87076 0.0
C762 C 0.58937 0.04452 0.8518 0.0
H763 H 0.65711 0.03085 0.91665 0.0
H764 H 0.61581 0.00928 0.86166 0.0
S765 S 0.57822 0.11639 0.874 0.0
N766 N 0.61126 0.11101 0.90656 0.0
N767 N 0.56597 0.0875 0.84646 0.0
C768 C 0.58911 0.07194 0.86314 0.0
C769 C 0.61358 0.08467 0.89561 0.0
C770 C 0.48296 0.57099 0.98913 0.0
C771 C 0.4859 0.59704 0.95295 0.0
C772 C 0.48298 0.54853 0.94701 0.0
C773 C 0.48483 0.55138 0.8676 0.0
H774 H 0.48319 0.56794 0.0501 0.0
H775 H 0.48391 0.52891 0.97632 0.0
S776 S 0.4884 0.61472 0.74587 0.0
N777 N 0.4877 0.62415 0.83312 0.0
N778 N 0.48618 0.58172 0.75449 0.0
C779 C 0.48428 0.57708 0.83118 0.0
C780 C 0.48506 0.60004 0.87382 0.0
C781 C 0.92374 0.43245 0.92161 0.0
C782 C 0.93119 0.41007 0.96728 0.0
C783 C 0.94607 0.44844 0.87739 0.0
C784 C 0.97665 0.44244 0.87595 0.0
H785 H 0.90063 0.43871 0.92371 0.0
H786 H 0.9394 0.46605 0.84523 0.0
S787 S 1.00799 0.38491 0.97938 0.0
N788 N 0.97121 0.38191 0.00541 0.0
N789 N 1.01337 0.41173 0.91897 0.0
C790 C 0.98445 0.41933 0.91748 0.0
C791 C 0.96165 0.40323 0.96419 0.0
C792 C 0.07474 0.16367 0.941 0.0
C793 C 0.10532 0.17249 0.93392 0.0
C794 C 0.06542 0.14023 0.9101 0.0
C795 C 0.08621 0.12478 0.86937 0.0
H796 H 0.05825 0.17365 0.97657 0.0
H797 H 0.04193 0.13343 0.92253 0.0
S798 S 0.16842 0.14208 0.82485 0.0
N799 N 0.15609 0.16563 0.8786 0.0
N800 N 0.13847 0.12253 0.81508 0.0
C801 C 0.1166 0.13472 0.85673 0.0
C802 C 0.12615 0.15833 0.8901 0.0
C803 C 0.40823 0.03812 0.92587 0.0
C804 C 0.39457 0.01693 0.97549 0.0
C805 C 0.43411 0.03454 0.87587 0.0
C806 C 0.44798 0.00978 0.87478 0.0
H807 H 0.39958 0.05794 0.9281 0.0
H808 H 0.44407 0.05167 0.84021 0.0
S809 S 0.42032 0.94762 0.99176 0.0
N810 N 0.39614 0.97008 0.01826 0.0
N811 N 0.44476 0.96329 0.92571 0.0
C812 C 0.43387 0.9882 0.92247 0.0
C813 C 0.40723 0.99179 0.97232 0.0
C814 C 0.46011 0.39287 0.92555 0.0
C815 C 0.48207 0.37854 0.96138 0.0
C816 C 0.46835 0.41555 0.87511 0.0
C817 C 0.49872 0.42524 0.86121 0.0
H818 H 0.43632 0.38741 0.93995 0.0
H819 H 0.45065 0.42644 0.85054 0.0
S820 S 0.56476 0.39409 0.93974 0.0
N821 N 0.53537 0.37467 0.9764 0.0
N822 N 0.55091 0.41768 0.88523 0.0
C823 C 0.52091 0.41037 0.89476 0.0
C824 C 0.51257 0.38692 0.94383 0.0
C825 C 0.14436 0.48819 0.9336 0.0
C826 C 0.15931 0.51368 0.92638 0.0
C827 C 0.11993 0.48258 0.89104 0.0
C828 C 0.1097 0.5024 0.84071 0.0
H829 H 0.15024 0.47312 0.97584 0.0
H830 H 0.10788 0.46328 0.90094 0.0
S831 S 0.14393 0.57074 0.7929 0.0
N832 N 0.16435 0.5576 0.85792 0.0
N833 N 0.11825 0.54727 0.77995 0.0
C834 C 0.12575 0.52721 0.82939 0.0
C835 C 0.15065 0.53279 0.8716 0.0
C836 C 0.9764 0.83471 0.5228 0.0
C837 C 0.94572 0.82623 0.52989 0.0
C838 C 0.98604 0.85812 0.55328 0.0
C839 C 0.96547 0.87385 0.59368 0.0
H840 H 0.99273 0.82452 0.48733 0.0
H841 H 1.00959 0.86469 0.54064 0.0
S842 S 0.88311 0.85737 0.63863 0.0
N843 N 0.89508 0.83363 0.58515 0.0
N844 N 0.9133 0.87665 0.64815 0.0
C845 C 0.93498 0.8642 0.60661 0.0
C846 C 0.9251 0.84063 0.57357 0.0
C847 C 0.65118 0.97448 0.50724 0.0
C848 C 0.66896 0.99864 0.49759 0.0
C849 C 0.62459 0.97154 0.55843 0.0
C850 C 0.61473 0.99283 0.60046 0.0
H851 H 0.65669 0.95848 0.47141 0.0
H852 H 0.61072 0.95318 0.56147 0.0
S853 S 0.65531 0.05868 0.60331 0.0
N854 N 0.67638 0.04293 0.5408 0.0
N855 N 0.62662 0.03765 0.63498 0.0
C856 C 0.63341 0.0163 0.59477 0.0
C857 C 0.66046 0.01912 0.54397 0.0
C858 C 0.5978 0.6009 0.52908 0.0
C859 C 0.5755 0.61533 0.49481 0.0
C860 C 0.5899 0.57869 0.58145 0.0
C861 C 0.55947 0.56965 0.59928 0.0
H862 H 0.62153 0.60612 0.51273 0.0
H863 H 0.60778 0.56768 0.60474 0.0
S864 S 0.49257 0.60127 0.52682 0.0
N865 N 0.52183 0.61985 0.48527 0.0
N866 N 0.50691 0.57793 0.58123 0.0
C867 C 0.53699 0.58461 0.56737 0.0
C868 C 0.54502 0.60748 0.51579 0.0
C869 C 0.89886 0.48159 0.61101 0.0
C870 C 0.90128 0.48691 0.53172 0.0
C871 C 0.92262 0.48899 0.65329 0.0
C872 C 0.94968 0.50133 0.61713 0.0
H873 H 0.8794 0.47007 0.63965 0.0
H874 H 0.92075 0.48318 0.71358 0.0
S875 S 0.9665 0.52082 0.41192 0.0
N876 N 0.93196 0.50677 0.41975 0.0
N877 N 0.9769 0.51991 0.4989 0.0
C878 C 0.9517 0.50795 0.53871 0.0
C879 C 0.92737 0.50094 0.49603 0.0
loop_
_geom_bond_atom_site_label_1
_geom_bond_atom_site_label_2
_geom_bond_distance
_geom_bond_site_symmetry_2
_ccdc_geom_bond_type
C0 C1 1.391 . S
C0 C4 1.391 . S
C0 H42 0.948 . S
C1 C0 1.391 . S
C1 C2 1.391 . S
C2 C1 1.391 . S
C2 H58 0.947 . S
C2 C59 1.392 . S
C3 C4 1.391 . S
C3 C7 1.397 . S
C3 C59 1.419 . S
C4 C0 1.391 . S
C4 C3 1.391 . S
C4 C5 1.399 . S
C5 C4 1.399 . S
C5 C8 1.396 . S
C5 C17 1.453 . S
C5 C18 1.684 . S
H6 C30 0.948 . S
C7 C3 1.397 . S
C7 C8 1.394 . S
C7 C26 1.723 . S
C8 C5 1.396 . S
C8 C7 1.394 . S
C8 C38 1.723 . S
H9 C32 0.947 . S
H10 C33 0.948 . S
H11 C39 0.982 1_554 S
H12 C40 0.979 . S
H13 C40 0.980 . S
H14 C40 0.983 . S
H15 C39 0.979 . S
H16 C39 0.977 . S
C17 C5 1.453 . S
C17 H46 0.982 . S
C17 H47 0.979 . S
C17 H48 0.977 . S
C18 C5 1.684 . S
C18 H43 0.979 . S
C18 H44 0.980 . S
C18 H45 0.983 . S
C19 C20 1.391 1_554 S
C19 C24 1.391 . S
C19 H49 0.948 . S
C20 C19 1.391 1_556 S
C20 C21 1.391 . S
C21 C20 1.391 . S
C21 C22 1.392 . S
C21 H50 0.947 . S
C22 C21 1.392 . S
C22 C23 1.419 1_556 S
C22 H51 0.948 . S
C23 C22 1.419 1_554 S
C23 C24 1.391 . S
C23 C27 1.397 . S
C24 C19 1.391 . S
C24 C23 1.391 . S
C24 C25 1.399 . S
C25 C24 1.399 . S
C25 C26 1.396 . S
C25 C28 1.453 . S
C25 C29 1.684 . S
C26 C7 1.723 . S
C26 C25 1.396 . S
C26 C27 1.394 . S
C27 C23 1.397 . S
C27 C26 1.394 . S
C27 C37 1.723 . S
C28 C25 1.453 . S
C28 H52 0.982 . S
C28 H53 0.979 . S
C28 H54 0.977 . S
C29 C25 1.684 . S
C29 H55 0.979 . S
C29 H56 0.980 . S
C29 H57 0.983 . S
C30 H6 0.948 . S
C30 C31 1.391 . S
C30 C35 1.391 . S
C31 C30 1.391 . S
C31 C32 1.391 . S
C32 H9 0.947 . S
C32 C31 1.391 . S
C32 C33 1.392 . S
C33 H10 0.948 . S
C33 C32 1.392 . S
C33 C34 1.419 . S
C34 C33 1.419 . S
C34 C35 1.391 . S
C34 C38 1.397 . S
C35 C30 1.391 . S
C35 C34 1.391 . S
C35 C36 1.399 . S
C36 C35 1.399 . S
C36 C37 1.396 . S
C36 C39 1.453 1_554 S
C36 C40 1.684 1_554 S
C37 C27 1.723 . S
C37 C36 1.396 . S
C37 C38 1.394 . S
C38 C8 1.723 . S
C38 C34 1.397 . S
C38 C37 1.394 . S
C39 H11 0.982 1_556 S
C39 H15 0.979 . S
C39 H16 0.977 . S
C39 C36 1.453 1_556 S
C40 H12 0.979 . S
C40 H13 0.980 . S
C40 H14 0.983 . S
C40 C36 1.684 1_556 S
H41 C59 0.948 . S
H42 C0 0.948 . S
H43 C18 0.979 . S
H44 C18 0.980 . S
H45 C18 0.983 . S
H46 C17 0.982 . S
H47 C17 0.979 . S
H48 C17 0.977 . S
H49 C19 0.948 . S
H50 C21 0.947 . S
H51 C22 0.948 . S
H52 C28 0.982 . S
H53 C28 0.979 . S
H54 C28 0.977 . S
H55 C29 0.979 . S
H56 C29 0.980 . S
H57 C29 0.983 . S
H58 C2 0.947 . S
C59 C2 1.392 . S
C59 C3 1.419 . S
C59 H41 0.948 . S
C60 C61 1.391 . S
C60 C64 1.391 . S
C60 H102 0.948 . S
C61 C60 1.391 . S
C61 C62 1.391 . S
C62 C61 1.391 . S
C62 H118 0.947 . S
C62 C119 1.392 . S
C63 C64 1.391 . S
C63 C67 1.397 . S
C63 C119 1.419 . S
C64 C60 1.391 . S
C64 C63 1.391 . S
C64 C65 1.399 . S
C65 C64 1.399 . S
C65 C68 1.396 . S
C65 C77 1.453 . S
C65 C78 1.684 . S
H66 C90 0.948 1_554 S
C67 C63 1.397 . S
C67 C68 1.394 . S
C67 C86 1.723 1_556 S
C68 C65 1.396 . S
C68 C67 1.394 . S
C68 C98 1.723 . S
H69 C92 0.947 . S
H70 C93 0.948 . S
H71 C99 0.982 . S
H72 C100 0.979 . S
H73 C100 0.980 . S
H74 C100 0.983 . S
H75 C99 0.979 . S
H76 C99 0.977 . S
C77 C65 1.453 . S
C77 H106 0.982 . S
C77 H107 0.979 . S
C77 H108 0.977 . S
C78 C65 1.684 . S
C78 H103 0.979 . S
C78 H104 0.980 . S
C78 H105 0.983 . S
C79 C80 1.391 . S
C79 C84 1.391 . S
C79 H109 0.948 . S
C80 C79 1.391 . S
C80 C81 1.391 . S
C81 C80 1.391 . S
C81 C82 1.392 . S
C81 H110 0.947 . S
C82 C81 1.392 . S
C82 C83 1.419 . S
C82 H111 0.948 . S
C83 C82 1.419 . S
C83 C84 1.391 . S
C83 C87 1.397 . S
C84 C79 1.391 . S
C84 C83 1.391 . S
C84 C85 1.399 . S
C85 C84 1.399 . S
C85 C86 1.396 . S
C85 C88 1.453 . S
C85 C89 1.684 . S
C86 C67 1.723 1_554 S
C86 C85 1.396 . S
C86 C87 1.394 . S
C87 C83 1.397 . S
C87 C86 1.394 . S
C87 C97 1.723 . S
C88 C85 1.453 . S
C88 H112 0.982 . S
C88 H113 0.979 . S
C88 H114 0.977 . S
C89 C85 1.684 . S
C89 H115 0.979 . S
C89 H116 0.980 . S
C89 H117 0.983 . S
C90 H66 0.948 1_556 S
C90 C91 1.391 . S
C90 C95 1.391 1_556 S
C91 C90 1.391 . S
C91 C92 1.391 . S
C92 H69 0.947 . S
C92 C91 1.391 . S
C92 C93 1.392 . S
C93 H70 0.948 . S
C93 C92 1.392 . S
C93 C94 1.419 . S
C94 C93 1.419 . S
C94 C95 1.391 1_556 S
C94 C98 1.397 . S
C95 C90 1.391 1_554 S
C95 C94 1.391 1_554 S
C95 C96 1.399 . S
C96 C95 1.399 . S
C96 C97 1.396 . S
C96 C99 1.453 . S
C96 C100 1.684 . S
C97 C87 1.723 . S
C97 C96 1.396 . S
C97 C98 1.394 1_554 S
C98 C68 1.723 . S
C98 C94 1.397 . S
C98 C97 1.394 1_556 S
C99 H71 0.982 . S
C99 H75 0.979 . S
C99 H76 0.977 . S
C99 C96 1.453 . S
C100 H72 0.979 . S
C100 H73 0.980 . S
C100 H74 0.983 . S
C100 C96 1.684 . S
H101 C119 0.948 . S
H102 C60 0.948 . S
H103 C78 0.979 . S
H104 C78 0.980 . S
H105 C78 0.983 . S
H106 C77 0.982 . S
H107 C77 0.979 . S
H108 C77 0.977 . S
H109 C79 0.948 . S
H110 C81 0.947 . S
H111 C82 0.948 . S
H112 C88 0.982 . S
H113 C88 0.979 . S
H114 C88 0.977 . S
H115 C89 0.979 . S
H116 C89 0.980 . S
H117 C89 0.983 . S
H118 C62 0.947 . S
C119 C62 1.392 . S
C119 C63 1.419 . S
C119 H101 0.948 . S
C120 C121 1.391 . S
C120 C124 1.391 . S
C120 H162 0.948 . S
C121 C120 1.391 . S
C121 C122 1.391 1_554 S
C122 C121 1.391 1_556 S
C122 H178 0.947 . S
C122 C179 1.392 . S
C123 C124 1.391 . S
C123 C127 1.397 1_565 S
C123 C179 1.419 1_554 S
C124 C120 1.391 . S
C124 C123 1.391 . S
C124 C125 1.399 . S
C125 C124 1.399 . S
C125 C128 1.396 1_565 S
C125 C137 1.453 1_565 S
C125 C138 1.684 . S
H126 C150 0.948 . S
C127 C123 1.397 1_545 S
C127 C128 1.394 . S
C127 C146 1.723 . S
C128 C125 1.396 1_545 S
C128 C127 1.394 . S
C128 C158 1.723 . S
H129 C152 0.947 . S
H130 C153 0.948 . S
H131 C159 0.982 . S
H132 C160 0.979 . S
H133 C160 0.980 . S
H134 C160 0.983 . S
H135 C159 0.979 . S
H136 C159 0.977 . S
C137 C125 1.453 1_545 S
C137 H166 0.982 . S
C137 H167 0.979 . S
C137 H168 0.977 . S
C138 C125 1.684 . S
C138 H163 0.979 . S
C138 H164 0.980 . S
C138 H165 0.983 . S
C139 C140 1.391 . S
C139 C144 1.391 . S
C139 H169 0.948 . S
C140 C139 1.391 . S
C140 C141 1.391 . S
C141 C140 1.391 . S
C141 C142 1.392 1_556 S
C141 H170 0.947 . S
C142 C141 1.392 1_554 S
C142 C143 1.419 . S
C142 H171 0.948 . S
C143 C142 1.419 . S
C143 C144 1.391 1_554 S
C143 C147 1.397 1_565 S
C144 C139 1.391 . S
C144 C143 1.391 1_556 S
C144 C145 1.399 . S
C145 C144 1.399 . S
C145 C146 1.396 1_566 S
C145 C148 1.453 1_565 S
C145 C149 1.684 . S
C146 C127 1.723 . S
C146 C145 1.396 1_544 S
C146 C147 1.394 . S
C147 C143 1.397 1_545 S
C147 C146 1.394 . S
C147 C157 1.723 . S
C148 C145 1.453 1_545 S
C148 H172 0.982 . S
C148 H173 0.979 . S
C148 H174 0.977 . S
C149 C145 1.684 . S
C149 H175 0.979 . S
C149 H176 0.980 . S
C149 H177 0.983 . S
C150 H126 0.948 . S
C150 C151 1.391 . S
C150 C155 1.391 . S
C151 C150 1.391 . S
C151 C152 1.391 . S
C152 H129 0.947 . S
C152 C151 1.391 . S
C152 C153 1.392 . S
C153 H130 0.948 . S
C153 C152 1.392 . S
C153 C154 1.419 . S
C154 C153 1.419 . S
C154 C155 1.391 . S
C154 C158 1.397 1_565 S
C155 C150 1.391 . S
C155 C154 1.391 . S
C155 C156 1.399 . S
C156 C155 1.399 . S
C156 C157 1.396 1_565 S
C156 C159 1.453 1_565 S
C156 C160 1.684 . S
C157 C147 1.723 . S
C157 C156 1.396 1_545 S
C157 C158 1.394 . S
C158 C128 1.723 . S
C158 C154 1.397 1_545 S
C158 C157 1.394 . S
C159 H131 0.982 . S
C159 H135 0.979 . S
C159 H136 0.977 . S
C159 C156 1.453 1_545 S
C160 H132 0.979 . S
C160 H133 0.980 . S
C160 H134 0.983 . S
C160 C156 1.684 . S
H161 C179 0.948 . S
H162 C120 0.948 . S
H163 C138 0.979 . S
H164 C138 0.980 . S
H165 C138 0.983 . S
H166 C137 0.982 . S
H167 C137 0.979 . S
H168 C137 0.977 . S
H169 C139 0.948 . S
H170 C141 0.947 . S
H171 C142 0.948 . S
H172 C148 0.982 . S
H173 C148 0.979 . S
H174 C148 0.977 . S
H175 C149 0.979 . S
H176 C149 0.980 . S
H177 C149 0.983 . S
H178 C122 0.947 . S
C179 C122 1.392 . S
C179 C123 1.419 1_556 S
C179 H161 0.948 . S
C180 C181 1.391 . S
C180 C184 1.391 . S
C180 H222 0.948 . S
C181 C180 1.391 . S
C181 C182 1.391 . S
C182 C181 1.391 . S
C182 H238 0.947 . S
C182 C239 1.392 . S
C183 C184 1.391 . S
C183 C187 1.397 . S
C183 C239 1.419 . S
C184 C180 1.391 . S
C184 C183 1.391 . S
C184 C185 1.399 . S
C185 C184 1.399 . S
C185 C188 1.396 . S
C185 C197 1.453 . S
C185 C198 1.684 . S
H186 C210 0.948 . S
C187 C183 1.397 . S
C187 C188 1.394 . S
C187 C206 1.723 . S
C188 C185 1.396 . S
C188 C187 1.394 . S
C188 C218 1.723 . S
H189 C212 0.947 . S
H190 C213 0.948 . S
H191 C219 0.982 . S
H192 C220 0.979 . S
H193 C220 0.980 . S
H194 C220 0.983 . S
H195 C219 0.979 . S
H196 C219 0.977 . S
C197 C185 1.453 . S
C197 H226 0.982 . S
C197 H227 0.979 . S
C197 H228 0.977 . S
C198 C185 1.684 . S
C198 H223 0.979 . S
C198 H224 0.980 . S
C198 H225 0.983 . S
C199 C200 1.391 . S
C199 C204 1.391 1_556 S
C199 H229 0.948 . S
C200 C199 1.391 . S
C200 C201 1.391 . S
C201 C200 1.391 . S
C201 C202 1.392 . S
C201 H230 0.947 . S
C202 C201 1.392 . S
C202 C203 1.419 . S
C202 H231 0.948 . S
C203 C202 1.419 . S
C203 C204 1.391 1_556 S
C203 C207 1.397 1_556 S
C204 C199 1.391 1_554 S
C204 C203 1.391 1_554 S
C204 C205 1.399 . S
C205 C204 1.399 . S
C205 C206 1.396 . S
C205 C208 1.453 . S
C205 C209 1.684 . S
C206 C187 1.723 . S
C206 C205 1.396 . S
C206 C207 1.394 . S
C207 C203 1.397 1_554 S
C207 C206 1.394 . S
C207 C217 1.723 . S
C208 C205 1.453 . S
C208 H232 0.982 . S
C208 H233 0.979 . S
C208 H234 0.977 . S
C209 C205 1.684 . S
C209 H235 0.979 . S
C209 H236 0.980 . S
C209 H237 0.983 . S
C210 H186 0.948 . S
C210 C211 1.391 1_556 S
C210 C215 1.391 1_556 S
C211 C210 1.391 1_554 S
C211 C212 1.391 . S
C212 H189 0.947 . S
C212 C211 1.391 . S
C212 C213 1.392 . S
C213 H190 0.948 . S
C213 C212 1.392 . S
C213 C214 1.419 . S
C214 C213 1.419 . S
C214 C215 1.391 . S
C214 C218 1.397 . S
C215 C210 1.391 1_554 S
C215 C214 1.391 . S
C215 C216 1.399 1_554 S
C216 C215 1.399 1_556 S
C216 C217 1.396 1_556 S
C216 C219 1.453 . S
C216 C220 1.684 . S
C217 C207 1.723 . S
C217 C216 1.396 1_554 S
C217 C218 1.394 . S
C218 C188 1.723 . S
C218 C214 1.397 . S
C218 C217 1.394 . S
C219 H191 0.982 . S
C219 H195 0.979 . S
C219 H196 0.977 . S
C219 C216 1.453 . S
C220 H192 0.979 . S
C220 H193 0.980 . S
C220 H194 0.983 . S
C220 C216 1.684 . S
H221 C239 0.948 . S
H222 C180 0.948 . S
H223 C198 0.979 . S
H224 C198 0.980 . S
H225 C198 0.983 . S
H226 C197 0.982 . S
H227 C197 0.979 . S
H228 C197 0.977 . S
H229 C199 0.948 . S
H230 C201 0.947 . S
H231 C202 0.948 . S
H232 C208 0.982 . S
H233 C208 0.979 . S
H234 C208 0.977 . S
H235 C209 0.979 . S
H236 C209 0.980 . S
H237 C209 0.983 . S
H238 C182 0.947 . S
C239 C182 1.392 . S
C239 C183 1.419 . S
C239 H221 0.948 . S
C240 C241 1.391 . S
C240 C244 1.391 . S
C240 H282 0.948 . S
C241 C240 1.391 . S
C241 C242 1.391 . S
C242 C241 1.391 . S
C242 H298 0.947 . S
C242 C299 1.392 . S
C243 C244 1.391 . S
C243 C247 1.397 . S
C243 C299 1.419 . S
C244 C240 1.391 . S
C244 C243 1.391 . S
C244 C245 1.399 . S
C245 C244 1.399 . S
C245 C248 1.396 . S
C245 C257 1.453 . S
C245 C258 1.684 . S
H246 C270 0.948 . S
C247 C243 1.397 . S
C247 C248 1.394 . S
C247 C266 1.723 . S
C248 C245 1.396 . S
C248 C247 1.394 . S
C248 C278 1.723 . S
H249 C272 0.947 . S
H250 C273 0.948 . S
H251 C279 0.982 . S
H252 C280 0.979 . S
H253 C280 0.980 . S
H254 C280 0.983 . S
H255 C279 0.979 . S
H256 C279 0.977 . S
C257 C245 1.453 . S
C257 H286 0.982 . S
C257 H287 0.979 . S
C257 H288 0.977 . S
C258 C245 1.684 . S
C258 H283 0.979 . S
C258 H284 0.980 . S
C258 H285 0.983 . S
C259 C260 1.391 . S
C259 C264 1.391 . S
C259 H289 0.948 . S
C260 C259 1.391 . S
C260 C261 1.391 . S
C261 C260 1.391 . S
C261 C262 1.392 . S
C261 H290 0.947 . S
C262 C261 1.392 . S
C262 C263 1.419 . S
C262 H291 0.948 . S
C263 C262 1.419 . S
C263 C264 1.391 . S
C263 C267 1.397 . S
C264 C259 1.391 . S
C264 C263 1.391 . S
C264 C265 1.399 . S
C265 C264 1.399 . S
C265 C266 1.396 . S
C265 C268 1.453 . S
C265 C269 1.684 . S
C266 C247 1.723 . S
C266 C265 1.396 . S
C266 C267 1.394 . S
C267 C263 1.397 . S
C267 C266 1.394 . S
C267 C277 1.723 . S
C268 C265 1.453 . S
C268 H292 0.982 . S
C268 H293 0.979 . S
C268 H294 0.977 . S
C269 C265 1.684 . S
C269 H295 0.979 . S
C269 H296 0.980 . S
C269 H297 0.983 . S
C270 H246 0.948 . S
C270 C271 1.391 1_554 S
C270 C275 1.391 . S
C271 C270 1.391 1_556 S
C271 C272 1.391 . S
C272 H249 0.947 . S
C272 C271 1.391 . S
C272 C273 1.392 1_556 S
C273 H250 0.948 . S
C273 C272 1.392 1_554 S
C273 C274 1.419 . S
C274 C273 1.419 . S
C274 C275 1.391 . S
C274 C278 1.397 . S
C275 C270 1.391 . S
C275 C274 1.391 . S
C275 C276 1.399 . S
C276 C275 1.399 . S
C276 C277 1.396 . S
C276 C279 1.453 . S
C276 C280 1.684 . S
C277 C267 1.723 . S
C277 C276 1.396 . S
C277 C278 1.394 . S
C278 C248 1.723 . S
C278 C274 1.397 . S
C278 C277 1.394 . S
C279 H251 0.982 . S
C279 H255 0.979 . S
C279 H256 0.977 . S
C279 C276 1.453 . S
C280 H252 0.979 . S
C280 H253 0.980 . S
C280 H254 0.983 . S
C280 C276 1.684 . S
H281 C299 0.948 . S
H282 C240 0.948 . S
H283 C258 0.979 . S
H284 C258 0.980 . S
H285 C258 0.983 . S
H286 C257 0.982 . S
H287 C257 0.979 . S
H288 C257 0.977 . S
H289 C259 0.948 . S
H290 C261 0.947 . S
H291 C262 0.948 . S
H292 C268 0.982 . S
H293 C268 0.979 . S
H294 C268 0.977 . S
H295 C269 0.979 . S
H296 C269 0.980 . S
H297 C269 0.983 . S
H298 C242 0.947 . S
C299 C242 1.392 . S
C299 C243 1.419 . S
C299 H281 0.948 . S
C300 C301 1.391 . S
C300 C304 1.391 . S
C300 H342 0.948 . S
C301 C300 1.391 . S
C301 C302 1.391 . S
C302 C301 1.391 . S
C302 H358 0.947 . S
C302 C359 1.392 . S
C303 C304 1.391 . S
C303 C307 1.397 . S
C303 C359 1.419 . S
C304 C300 1.391 . S
C304 C303 1.391 . S
C304 C305 1.399 . S
C305 C304 1.399 . S
C305 C308 1.396 . S
C305 C317 1.453 . S
C305 C318 1.684 . S
H306 C330 0.948 . S
C307 C303 1.397 . S
C307 C308 1.394 . S
C307 C326 1.723 . S
C308 C305 1.396 . S
C308 C307 1.394 . S
C308 C338 1.723 . S
H309 C332 0.947 . S
H310 C333 0.948 . S
H311 C339 0.982 . S
H312 C340 0.979 . S
H313 C340 0.980 . S
H314 C340 0.983 . S
H315 C339 0.979 . S
H316 C339 0.977 . S
C317 C305 1.453 . S
C317 H346 0.982 . S
C317 H347 0.979 . S
C317 H348 0.977 . S
C318 C305 1.684 . S
C318 H343 0.979 . S
C318 H344 0.980 . S
C318 H345 0.983 . S
C319 C320 1.391 . S
C319 C324 1.391 . S
C319 H349 0.948 . S
C320 C319 1.391 . S
C320 C321 1.391 . S
C321 C320 1.391 . S
C321 C322 1.392 . S
C321 H350 0.947 . S
C322 C321 1.392 . S
C322 C323 1.419 . S
C322 H351 0.948 . S
C323 C322 1.419 . S
C323 C324 1.391 . S
C323 C327 1.397 . S
C324 C319 1.391 . S
C324 C323 1.391 . S
C324 C325 1.399 . S
C325 C324 1.399 . S
C325 C326 1.396 . S
C325 C328 1.453 . S
C325 C329 1.684 . S
C326 C307 1.723 . S
C326 C325 1.396 . S
C326 C327 1.394 . S
C327 C323 1.397 . S
C327 C326 1.394 . S
C327 C337 1.723 . S
C328 C325 1.453 . S
C328 H352 0.982 . S
C328 H353 0.979 . S
C328 H354 0.977 . S
C329 C325 1.684 . S
C329 H355 0.979 . S
C329 H356 0.980 . S
C329 H357 0.983 . S
C330 H306 0.948 . S
C330 C331 1.391 . S
C330 C335 1.391 . S
C331 C330 1.391 . S
C331 C332 1.391 . S
C332 H309 0.947 . S
C332 C331 1.391 . S
C332 C333 1.392 . S
C333 H310 0.948 . S
C333 C332 1.392 . S
C333 C334 1.419 . S
C334 C333 1.419 . S
C334 C335 1.391 . S
C334 C338 1.397 . S
C335 C330 1.391 . S
C335 C334 1.391 . S
C335 C336 1.399 . S
C336 C335 1.399 . S
C336 C337 1.396 . S
C336 C339 1.453 . S
C336 C340 1.684 . S
C337 C327 1.723 . S
C337 C336 1.396 . S
C337 C338 1.394 . S
C338 C308 1.723 . S
C338 C334 1.397 . S
C338 C337 1.394 . S
C339 H311 0.982 . S
C339 H315 0.979 . S
C339 H316 0.977 . S
C339 C336 1.453 . S
C340 H312 0.979 . S
C340 H313 0.980 . S
C340 H314 0.983 . S
C340 C336 1.684 . S
H341 C359 0.948 . S
H342 C300 0.948 . S
H343 C318 0.979 . S
H344 C318 0.980 . S
H345 C318 0.983 . S
H346 C317 0.982 . S
H347 C317 0.979 . S
H348 C317 0.977 . S
H349 C319 0.948 . S
H350 C321 0.947 . S
H351 C322 0.948 . S
H352 C328 0.982 . S
H353 C328 0.979 . S
H354 C328 0.977 . S
H355 C329 0.979 . S
H356 C329 0.980 . S
H357 C329 0.983 . S
H358 C302 0.947 . S
C359 C302 1.392 . S
C359 C303 1.419 . S
C359 H341 0.948 . S
C360 C361 1.391 . S
C360 C364 1.391 . S
C360 H402 0.948 . S
C361 C360 1.391 . S
C361 C362 1.391 . S
C362 C361 1.391 . S
C362 H418 0.947 . S
C362 C419 1.392 . S
C363 C364 1.391 . S
C363 C367 1.397 1_545 S
C363 C419 1.419 . S
C364 C360 1.391 . S
C364 C363 1.391 . S
C364 C365 1.399 . S
C365 C364 1.399 . S
C365 C368 1.396 1_545 S
C365 C377 1.453 1_545 S
C365 C378 1.684 . S
H366 C390 0.948 . S
C367 C363 1.397 1_565 S
C367 C368 1.394 . S
C367 C386 1.723 . S
C368 C365 1.396 1_565 S
C368 C367 1.394 . S
C368 C398 1.723 . S
H369 C392 0.947 . S
H370 C393 0.948 . S
H371 C399 0.982 . S
H372 C400 0.979 . S
H373 C400 0.980 . S
H374 C400 0.983 . S
H375 C399 0.979 . S
H376 C399 0.977 . S
C377 C365 1.453 1_565 S
C377 H406 0.982 . S
C377 H407 0.979 . S
C377 H408 0.977 . S
C378 C365 1.684 . S
C378 H403 0.979 . S
C378 H404 0.980 . S
C378 H405 0.983 . S
C379 C380 1.391 . S
C379 C384 1.391 . S
C379 H409 0.948 . S
C380 C379 1.391 . S
C380 C381 1.391 . S
C381 C380 1.391 . S
C381 C382 1.392 . S
C381 H410 0.947 . S
C382 C381 1.392 . S
C382 C383 1.419 . S
C382 H411 0.948 . S
C383 C382 1.419 . S
C383 C384 1.391 . S
C383 C387 1.397 1_545 S
C384 C379 1.391 . S
C384 C383 1.391 . S
C384 C385 1.399 . S
C385 C384 1.399 . S
C385 C386 1.396 1_545 S
C385 C388 1.453 1_545 S
C385 C389 1.684 . S
C386 C367 1.723 . S
C386 C385 1.396 1_565 S
C386 C387 1.394 . S
C387 C383 1.397 1_565 S
C387 C386 1.394 . S
C387 C397 1.723 . S
C388 C385 1.453 1_565 S
C388 H412 0.982 . S
C388 H413 0.979 . S
C388 H414 0.977 . S
C389 C385 1.684 . S
C389 H415 0.979 . S
C389 H416 0.980 . S
C389 H417 0.983 . S
C390 H366 0.948 . S
C390 C391 1.391 . S
C390 C395 1.391 . S
C391 C390 1.391 . S
C391 C392 1.391 . S
C392 H369 0.947 . S
C392 C391 1.391 . S
C392 C393 1.392 . S
C393 H370 0.948 . S
C393 C392 1.392 . S
C393 C394 1.419 . S
C394 C393 1.419 . S
C394 C395 1.391 . S
C394 C398 1.397 1_545 S
C395 C390 1.391 . S
C395 C394 1.391 . S
C395 C396 1.399 . S
C396 C395 1.399 . S
C396 C397 1.396 1_545 S
C396 C399 1.453 1_545 S
C396 C400 1.684 . S
C397 C387 1.723 . S
C397 C396 1.396 1_565 S
C397 C398 1.394 . S
C398 C368 1.723 . S
C398 C394 1.397 1_565 S
C398 C397 1.394 . S
C399 H371 0.982 . S
C399 H375 0.979 . S
C399 H376 0.977 . S
C399 C396 1.453 1_565 S
C400 H372 0.979 . S
C400 H373 0.980 . S
C400 H374 0.983 . S
C400 C396 1.684 . S
H401 C419 0.948 . S
H402 C360 0.948 . S
H403 C378 0.979 . S
H404 C378 0.980 . S
H405 C378 0.983 . S
H406 C377 0.982 . S
H407 C377 0.979 . S
H408 C377 0.977 . S
H409 C379 0.948 . S
H410 C381 0.947 . S
H411 C382 0.948 . S
H412 C388 0.982 . S
H413 C388 0.979 . S
H414 C388 0.977 . S
H415 C389 0.979 . S
H416 C389 0.980 . S
H417 C389 0.983 . S
H418 C362 0.947 . S
C419 C362 1.392 . S
C419 C363 1.419 . S
C419 H401 0.948 . S
C420 C421 1.391 . S
C420 C424 1.391 . S
C420 H462 0.948 . S
C421 C420 1.391 . S
C421 C422 1.391 . S
C422 C421 1.391 . S
C422 H478 0.947 . S
C422 C479 1.392 . S
C423 C424 1.391 . S
C423 C427 1.397 . S
C423 C479 1.419 . S
C424 C420 1.391 . S
C424 C423 1.391 . S
C424 C425 1.399 . S
C425 C424 1.399 . S
C425 C428 1.396 . S
C425 C437 1.453 . S
C425 C438 1.684 . S
H426 C450 0.948 . S
C427 C423 1.397 . S
C427 C428 1.394 . S
C427 C446 1.723 . S
C428 C425 1.396 . S
C428 C427 1.394 . S
C428 C458 1.723 . S
H429 C452 0.947 . S
H430 C453 0.948 . S
H431 C459 0.982 . S
H432 C460 0.979 . S
H433 C460 0.980 . S
H434 C460 0.983 . S
H435 C459 0.979 . S
H436 C459 0.977 . S
C437 C425 1.453 . S
C437 H466 0.982 . S
C437 H467 0.979 . S
C437 H468 0.977 . S
C438 C425 1.684 . S
C438 H463 0.979 . S
C438 H464 0.980 . S
C438 H465 0.983 . S
C439 C440 1.391 . S
C439 C444 1.391 . S
C439 H469 0.948 . S
C440 C439 1.391 . S
C440 C441 1.391 . S
C441 C440 1.391 . S
C441 C442 1.392 . S
C441 H470 0.947 . S
C442 C441 1.392 . S
C442 C443 1.419 . S
C442 H471 0.948 . S
C443 C442 1.419 . S
C443 C444 1.391 . S
C443 C447 1.397 . S
C444 C439 1.391 . S
C444 C443 1.391 . S
C444 C445 1.399 . S
C445 C444 1.399 . S
C445 C446 1.396 . S
C445 C448 1.453 . S
C445 C449 1.684 . S
C446 C427 1.723 . S
C446 C445 1.396 . S
C446 C447 1.394 . S
C447 C443 1.397 . S
C447 C446 1.394 . S
C447 C457 1.723 . S
C448 C445 1.453 . S
C448 H472 0.982 . S
C448 H473 0.979 . S
C448 H474 0.977 . S
C449 C445 1.684 . S
C449 H475 0.979 . S
C449 H476 0.980 . S
C449 H477 0.983 . S
C450 H426 0.948 . S
C450 C451 1.391 . S
C450 C455 1.391 . S
C451 C450 1.391 . S
C451 C452 1.391 . S
C452 H429 0.947 . S
C452 C451 1.391 . S
C452 C453 1.392 . S
C453 H430 0.948 . S
C453 C452 1.392 . S
C453 C454 1.419 . S
C454 C453 1.419 . S
C454 C455 1.391 . S
C454 C458 1.397 . S
C455 C450 1.391 . S
C455 C454 1.391 . S
C455 C456 1.399 . S
C456 C455 1.399 . S
C456 C457 1.396 . S
C456 C459 1.453 . S
C456 C460 1.684 . S
C457 C447 1.723 . S
C457 C456 1.396 . S
C457 C458 1.394 . S
C458 C428 1.723 . S
C458 C454 1.397 . S
C458 C457 1.394 . S
C459 H431 0.982 . S
C459 H435 0.979 . S
C459 H436 0.977 . S
C459 C456 1.453 . S
C460 H432 0.979 . S
C460 H433 0.980 . S
C460 H434 0.983 . S
C460 C456 1.684 . S
H461 C479 0.948 . S
H462 C420 0.948 . S
H463 C438 0.979 . S
H464 C438 0.980 . S
H465 C438 0.983 . S
H466 C437 0.982 . S
H467 C437 0.979 . S
H468 C437 0.977 . S
H469 C439 0.948 . S
H470 C441 0.947 . S
H471 C442 0.948 . S
H472 C448 0.982 . S
H473 C448 0.979 . S
H474 C448 0.977 . S
H475 C449 0.979 . S
H476 C449 0.980 . S
H477 C449 0.983 . S
H478 C422 0.947 . S
C479 C422 1.392 . S
C479 C423 1.419 . S
C479 H461 0.948 . S
C480 O496 1.251 1_455 S
C480 O498 1.254 . S
N481 C482 1.333 . S
N481 C486 1.307 . S
N481 Zn487 2.020 1_655 S
C482 N481 1.333 . S
C482 C483 1.379 . S
C482 H500 0.952 . S
C483 C482 1.379 . S
C483 C484 1.390 . S
C483 H510 0.949 . S
C484 C483 1.390 . S
C484 C485 1.357 . S
C485 C484 1.357 . S
C485 C486 1.370 . S
C485 H511 0.950 . S
C486 N481 1.307 . S
C486 C485 1.370 . S
C486 H504 0.948 1_565 S
Zn487 N481 2.020 1_455 S
Zn487 O496 2.039 1_455 S
Zn487 O502 2.034 . S
Zn487 O506 2.025 1_565 S
Zn487 O508 2.020 1_465 S
C488 O507 1.246 . S
C488 O508 1.255 . S
N489 C490 1.307 . S
N489 C491 1.333 . S
N489 Zn495 2.020 . S
C490 N489 1.307 . S
C490 C494 1.377 . S
C490 H501 0.948 1_545 S
C491 N489 1.333 . S
C491 C492 1.379 . S
C491 H499 0.952 . S
C492 C491 1.379 . S
C492 C493 1.390 1_556 S
C492 H512 0.949 . S
C493 C492 1.390 1_554 S
C493 C494 1.355 1_554 S
C494 C490 1.377 . S
C494 C493 1.355 1_556 S
C494 H513 0.944 1_556 S
Zn495 N489 2.020 . S
Zn495 O498 2.025 1_545 S
Zn495 O503 2.023 1_545 S
Zn495 O505 2.039 . S
Zn495 O507 2.034 1_455 S
O496 C480 1.251 1_655 S
O496 Zn487 2.039 1_655 S
C497 O502 1.246 . S
C497 O503 1.251 . S
O498 C480 1.254 . S
O498 Zn495 2.025 1_565 S
H499 C491 0.952 . S
H500 C482 0.952 . S
H501 C490 0.948 1_565 S
O502 Zn487 2.034 . S
O502 C497 1.246 . S
O503 Zn495 2.023 1_565 S
O503 C497 1.251 . S
H504 C486 0.948 1_545 S
O505 Zn495 2.039 . S
O505 C509 1.251 . S
O506 Zn487 2.025 1_545 S
O506 C509 1.254 . S
O507 C488 1.246 . S
O507 Zn495 2.034 1_655 S
O508 Zn487 2.020 1_645 S
O508 C488 1.255 . S
C509 O505 1.251 . S
C509 O506 1.254 . S
H510 C483 0.949 . S
H511 C485 0.950 . S
H512 C492 0.949 . S
H513 C494 0.944 1_554 S
C514 O530 1.251 1_565 S
C514 O532 1.254 . S
N515 C516 1.333 . S
N515 C520 1.307 . S
N515 Zn521 2.020 . S
C516 N515 1.333 . S
C516 C517 1.379 . S
C516 H534 0.952 . S
C517 C516 1.379 . S
C517 C518 1.390 . S
C517 H544 0.949 . S
C518 C517 1.390 . S
C518 C519 1.357 . S
C519 C518 1.357 . S
C519 C520 1.370 . S
C519 H545 0.950 . S
C520 N515 1.307 . S
C520 C519 1.370 . S
C520 H538 0.948 . S
Zn521 N515 2.020 . S
Zn521 O530 2.039 . S
Zn521 O536 2.034 . S
Zn521 O540 2.025 . S
Zn521 O542 2.024 . S
C522 O541 1.246 1_545 S
C522 O542 1.249 . S
N523 C524 1.307 . S
N523 C525 1.333 . S
N523 Zn529 2.020 . S
C524 N523 1.307 . S
C524 C528 1.370 . S
C524 H535 0.948 . S
C525 N523 1.333 . S
C525 C526 1.379 . S
C525 H533 0.952 . S
C526 C525 1.379 . S
C526 C527 1.390 . S
C526 H546 0.949 . S
C527 C526 1.390 . S
C527 C528 1.357 . S
C528 C524 1.370 . S
C528 C527 1.357 . S
C528 H547 0.950 . S
Zn529 N523 2.020 . S
Zn529 O532 2.025 . S
Zn529 O537 2.024 . S
Zn529 O539 2.039 . S
Zn529 O541 2.034 . S
O530 C514 1.251 1_545 S
O530 Zn521 2.039 . S
C531 O536 1.246 1_565 S
C531 O537 1.249 . S
O532 C514 1.254 . S
O532 Zn529 2.025 . S
H533 C525 0.952 . S
H534 C516 0.952 . S
H535 C524 0.948 . S
O536 Zn521 2.034 . S
O536 C531 1.246 1_545 S
O537 Zn529 2.024 . S
O537 C531 1.249 . S
H538 C520 0.948 . S
O539 Zn529 2.039 . S
O539 C543 1.251 1_565 S
O540 Zn521 2.025 . S
O540 C543 1.254 . S
O541 C522 1.246 1_565 S
O541 Zn529 2.034 . S
O542 Zn521 2.024 . S
O542 C522 1.249 . S
C543 O539 1.251 1_545 S
C543 O540 1.254 . S
H544 C517 0.949 . S
H545 C519 0.950 . S
H546 C526 0.949 . S
H547 C528 0.950 . S
C548 O564 1.251 . S
C548 O566 1.254 . S
N549 C550 1.333 . S
N549 C554 1.307 . S
N549 Zn555 2.020 . S
C550 N549 1.333 . S
C550 C551 1.379 . S
C550 H568 0.952 . S
C551 C550 1.379 . S
C551 C552 1.390 . S
C551 H578 0.949 . S
C552 C551 1.390 . S
C552 C553 1.357 . S
C553 C552 1.357 . S
C553 C554 1.370 . S
C553 H579 0.950 . S
C554 N549 1.307 . S
C554 C553 1.370 . S
C554 H572 0.948 . S
Zn555 N549 2.020 . S
Zn555 O564 2.039 . S
Zn555 O570 2.034 . S
Zn555 O574 2.025 . S
Zn555 O576 2.024 . S
C556 O575 1.246 . S
C556 O576 1.249 . S
N557 C558 1.307 . S
N557 C559 1.333 . S
N557 Zn563 2.020 . S
C558 N557 1.307 . S
C558 C562 1.370 . S
C558 H569 0.948 . S
C559 N557 1.333 . S
C559 C560 1.379 . S
C559 H567 0.952 . S
C560 C559 1.379 . S
C560 C561 1.390 . S
C560 H580 0.949 . S
C561 C560 1.390 . S
C561 C562 1.357 . S
C562 C558 1.370 . S
C562 C561 1.357 . S
C562 H581 0.950 . S
Zn563 N557 2.020 . S
Zn563 O566 2.025 . S
Zn563 O571 2.024 . S
Zn563 O573 2.039 . S
Zn563 O575 2.034 . S
O564 C548 1.251 . S
O564 Zn555 2.039 . S
C565 O570 1.246 . S
C565 O571 1.249 . S
O566 C548 1.254 . S
O566 Zn563 2.025 . S
H567 C559 0.952 . S
H568 C550 0.952 . S
H569 C558 0.948 . S
O570 Zn555 2.034 . S
O570 C565 1.246 . S
O571 Zn563 2.024 . S
O571 C565 1.249 . S
H572 C554 0.948 . S
O573 Zn563 2.039 . S
O573 C577 1.251 . S
O574 Zn555 2.025 . S
O574 C577 1.254 . S
O575 C556 1.246 . S
O575 Zn563 2.034 . S
O576 Zn555 2.024 . S
O576 C556 1.249 . S
C577 O573 1.251 . S
C577 O574 1.254 . S
H578 C551 0.949 . S
H579 C553 0.950 . S
H580 C560 0.949 . S
H581 C562 0.950 . S
C582 O598 1.251 . S
C582 O600 1.254 . S
N583 C584 1.333 . S
N583 C588 1.307 . S
N583 Zn589 2.020 . S
C584 N583 1.333 . S
C584 C585 1.379 . S
C584 H602 0.952 . S
C585 C584 1.379 . S
C585 C586 1.390 . S
C585 H612 0.949 . S
C586 C585 1.390 . S
C586 C587 1.357 . S
C587 C586 1.357 . S
C587 C588 1.370 . S
C587 H613 0.950 . S
C588 N583 1.307 . S
C588 C587 1.370 . S
C588 H606 0.948 . S
Zn589 N583 2.020 . S
Zn589 O598 2.039 . S
Zn589 O604 2.034 1_455 S
Zn589 O608 2.025 1_455 S
Zn589 O610 2.024 . S
C590 O609 1.246 . S
C590 O610 1.249 . S
N591 C592 1.307 . S
N591 C593 1.333 . S
N591 Zn597 2.020 1_655 S
C592 N591 1.307 . S
C592 C596 1.370 . S
C592 H603 0.948 1_655 S
C593 N591 1.333 . S
C593 C594 1.379 . S
C593 H601 0.952 . S
C594 C593 1.379 . S
C594 C595 1.390 . S
C594 H614 0.949 . S
C595 C594 1.390 . S
C595 C596 1.357 . S
C596 C592 1.370 . S
C596 C595 1.357 . S
C596 H615 0.950 . S
Zn597 N591 2.020 1_455 S
Zn597 O600 2.025 . S
Zn597 O605 2.024 1_455 S
Zn597 O607 2.039 1_455 S
Zn597 O609 2.034 . S
O598 C582 1.251 . S
O598 Zn589 2.039 . S
C599 O604 1.246 . S
C599 O605 1.249 . S
O600 C582 1.254 . S
O600 Zn597 2.025 . S
H601 C593 0.952 . S
H602 C584 0.952 . S
H603 C592 0.948 1_455 S
O604 Zn589 2.034 1_655 S
O604 C599 1.246 . S
O605 Zn597 2.024 1_655 S
O605 C599 1.249 . S
H606 C588 0.948 . S
O607 Zn597 2.039 1_655 S
O607 C611 1.251 . S
O608 Zn589 2.025 1_655 S
O608 C611 1.254 . S
O609 C590 1.246 . S
O609 Zn597 2.034 . S
O610 Zn589 2.024 . S
O610 C590 1.249 . S
C611 O607 1.251 . S
C611 O608 1.254 . S
H612 C585 0.949 . S
H613 C587 0.950 . S
H614 C594 0.949 . S
H615 C596 0.950 . S
C616 C617 1.369 1_545 S
C616 C618 1.419 . S
C616 H620 0.930 . S
C617 C616 1.369 1_565 S
C617 C626 1.429 . S
C618 C616 1.419 . S
C618 C619 1.360 1_545 S
C618 H621 0.932 . S
C619 C618 1.360 1_565 S
C619 C625 1.428 . S
H620 C616 0.930 . S
H621 C618 0.932 . S
S622 N623 1.613 . S
S622 N624 1.610 . S
N623 S622 1.613 . S
N623 C626 1.350 . S
N624 S622 1.610 . S
N624 C625 1.351 . S
C625 C619 1.428 . S
C625 N624 1.351 . S
C625 C626 1.434 . S
C626 C617 1.429 . S
C626 N623 1.350 . S
C626 C625 1.434 . S
C627 C628 1.369 . S
C627 C629 1.419 . S
C627 H631 0.930 . S
C628 C627 1.369 . S
C628 C637 1.429 . S
C629 C627 1.419 . S
C629 C630 1.363 . S
C629 H632 0.929 . S
C630 C629 1.363 . S
C630 C636 1.428 . S
H631 C627 0.930 . S
H632 C629 0.929 . S
S633 N634 1.613 . S
S633 N635 1.610 . S
N634 S633 1.613 . S
N634 C637 1.350 . S
N635 S633 1.610 . S
N635 C636 1.351 . S
C636 C630 1.428 . S
C636 N635 1.351 . S
C636 C637 1.434 . S
C637 C628 1.429 . S
C637 N634 1.350 . S
C637 C636 1.434 . S
C638 C639 1.369 . S
C638 C640 1.419 . S
C638 H642 0.930 . S
C639 C638 1.369 . S
C639 C648 1.429 . S
C640 C638 1.419 . S
C640 C641 1.363 . S
C640 H643 0.929 . S
C641 C640 1.363 . S
C641 C647 1.428 . S
H642 C638 0.930 . S
H643 C640 0.929 . S
S644 N645 1.613 . S
S644 N646 1.610 . S
N645 S644 1.613 . S
N645 C648 1.350 . S
N646 S644 1.610 . S
N646 C647 1.351 . S
C647 C641 1.428 . S
C647 N646 1.351 . S
C647 C648 1.434 . S
C648 C639 1.429 . S
C648 N645 1.350 . S
C648 C647 1.434 . S
C649 C650 1.369 . S
C649 C651 1.419 . S
C649 H653 0.930 . S
C650 C649 1.369 . S
C650 C659 1.429 . S
C651 C649 1.419 . S
C651 C652 1.363 . S
C651 H654 0.929 . S
C652 C651 1.363 . S
C652 C658 1.428 . S
H653 C649 0.930 . S
H654 C651 0.929 . S
S655 N656 1.613 . S
S655 N657 1.610 . S
N656 S655 1.613 . S
N656 C659 1.350 . S
N657 S655 1.610 . S
N657 C658 1.351 . S
C658 C652 1.428 . S
C658 N657 1.351 . S
C658 C659 1.434 . S
C659 C650 1.429 . S
C659 N656 1.350 . S
C659 C658 1.434 . S
C660 C661 1.369 1_565 S
C660 C662 1.419 . S
C660 H664 0.930 . S
C661 C660 1.369 1_545 S
C661 C670 1.429 . S
C662 C660 1.419 . S
C662 C663 1.363 1_565 S
C662 H665 0.929 . S
C663 C662 1.363 1_545 S
C663 C669 1.428 . S
H664 C660 0.930 . S
H665 C662 0.929 . S
S666 N667 1.613 . S
S666 N668 1.610 . S
N667 S666 1.613 . S
N667 C670 1.350 . S
N668 S666 1.610 . S
N668 C669 1.351 . S
C669 C663 1.428 . S
C669 N668 1.351 . S
C669 C670 1.434 . S
C670 C661 1.429 . S
C670 N667 1.350 . S
C670 C669 1.434 . S
C671 C672 1.369 . S
C671 C673 1.419 . S
C671 H675 0.930 . S
C672 C671 1.369 . S
C672 C681 1.429 . S
C673 C671 1.419 . S
C673 C674 1.363 . S
C673 H676 0.929 . S
C674 C673 1.363 . S
C674 C680 1.428 . S
H675 C671 0.930 . S
H676 C673 0.929 . S
S677 N678 1.613 . S
S677 N679 1.610 . S
N678 S677 1.613 . S
N678 C681 1.350 . S
N679 S677 1.610 . S
N679 C680 1.351 . S
C680 C674 1.428 . S
C680 N679 1.351 . S
C680 C681 1.434 . S
C681 C672 1.429 . S
C681 N678 1.350 . S
C681 C680 1.434 . S
C682 C683 1.369 1_556 S
C682 C684 1.419 . S
C682 H686 0.930 1_556 S
C683 C682 1.369 1_554 S
C683 C692 1.429 . S
C684 C682 1.419 . S
C684 C685 1.363 . S
C684 H687 0.929 . S
C685 C684 1.363 . S
C685 C691 1.428 . S
H686 C682 0.930 1_554 S
H687 C684 0.929 . S
S688 N689 1.613 1_556 S
S688 N690 1.610 . S
N689 S688 1.613 1_554 S
N689 C692 1.350 . S
N690 S688 1.610 . S
N690 C691 1.351 . S
C691 C685 1.428 . S
C691 N690 1.351 . S
C691 C692 1.434 1_556 S
C692 C683 1.429 . S
C692 N689 1.350 . S
C692 C691 1.434 1_554 S
C693 C694 1.369 . S
C693 C695 1.419 . S
C693 H697 0.930 . S
C694 C693 1.369 . S
C694 C703 1.429 . S
C695 C693 1.419 . S
C695 C696 1.363 . S
C695 H698 0.929 . S
C696 C695 1.363 . S
C696 C702 1.428 . S
H697 C693 0.930 . S
H698 C695 0.929 . S
S699 N700 1.613 . S
S699 N701 1.610 . S
N700 S699 1.613 . S
N700 C703 1.350 . S
N701 S699 1.610 . S
N701 C702 1.351 . S
C702 C696 1.428 . S
C702 N701 1.351 . S
C702 C703 1.434 . S
C703 C694 1.429 . S
C703 N700 1.350 . S
C703 C702 1.434 . S
C704 C705 1.369 . S
C704 C706 1.419 . S
C704 H708 0.930 . S
C705 C704 1.369 . S
C705 C714 1.429 . S
C706 C704 1.419 . S
C706 C707 1.363 . S
C706 H709 0.929 . S
C707 C706 1.363 . S
C707 C713 1.428 . S
H708 C704 0.930 . S
H709 C706 0.929 . S
S710 N711 1.613 . S
S710 N712 1.610 . S
N711 S710 1.613 . S
N711 C714 1.350 . S
N712 S710 1.610 . S
N712 C713 1.351 . S
C713 C707 1.428 . S
C713 N712 1.351 . S
C713 C714 1.434 . S
C714 C705 1.429 . S
C714 N711 1.350 . S
C714 C713 1.434 . S
C715 C716 1.353 1_545 S
C715 C717 1.419 . S
C715 H719 0.930 . S
C716 C715 1.353 1_565 S
C716 C725 1.450 . S
C717 C715 1.419 . S
C717 C718 1.363 1_545 S
C717 H720 0.929 . S
C718 C717 1.363 1_565 S
C718 C724 1.428 . S
H719 C715 0.930 . S
H720 C717 0.929 . S
S721 N722 1.613 . S
S721 N723 1.610 . S
N722 S721 1.613 . S
N722 C725 1.350 . S
N723 S721 1.610 . S
N723 C724 1.351 . S
C724 C718 1.428 . S
C724 N723 1.351 . S
C724 C725 1.434 . S
C725 C716 1.450 . S
C725 N722 1.350 . S
C725 C724 1.434 . S
C726 C727 1.369 . S
C726 C728 1.419 . S
C726 H730 0.930 . S
C727 C726 1.369 . S
C727 C736 1.429 . S
C728 C726 1.419 . S
C728 C729 1.363 . S
C728 H731 0.929 . S
C729 C728 1.363 . S
C729 C735 1.428 . S
H730 C726 0.930 . S
H731 C728 0.929 . S
S732 N733 1.613 . S
S732 N734 1.610 . S
N733 S732 1.613 . S
N733 C736 1.350 . S
N734 S732 1.610 . S
N734 C735 1.351 . S
C735 C729 1.428 . S
C735 N734 1.351 . S
C735 C736 1.434 . S
C736 C727 1.429 . S
C736 N733 1.350 . S
C736 C735 1.434 . S
C737 C738 1.369 . S
C737 C739 1.419 . S
C737 H741 0.930 . S
C738 C737 1.369 . S
C738 C747 1.429 . S
C739 C737 1.419 . S
C739 C740 1.363 . S
C739 H742 0.929 . S
C740 C739 1.363 . S
C740 C746 1.428 . S
H741 C737 0.930 . S
H742 C739 0.929 . S
S743 N744 1.613 . S
S743 N745 1.610 . S
N744 S743 1.613 . S
N744 C747 1.350 . S
N745 S743 1.610 . S
N745 C746 1.351 . S
C746 C740 1.428 . S
C746 N745 1.351 . S
C746 C747 1.434 . S
C747 C738 1.429 . S
C747 N744 1.350 . S
C747 C746 1.434 . S
C748 C749 1.369 . S
C748 C750 1.419 . S
C748 H752 0.930 . S
C749 C748 1.369 . S
C749 C758 1.429 . S
C750 C748 1.419 . S
C750 C751 1.363 . S
C750 H753 0.929 1_655 S
C751 C750 1.363 . S
C751 C757 1.428 . S
H752 C748 0.930 . S
H753 C750 0.929 1_455 S
S754 N755 1.613 . S
S754 N756 1.610 . S
N755 S754 1.613 . S
N755 C758 1.350 . S
N756 S754 1.610 . S
N756 C757 1.351 . S
C757 C751 1.428 . S
C757 N756 1.351 . S
C757 C758 1.434 . S
C758 C749 1.429 . S
C758 N755 1.350 . S
C758 C757 1.434 . S
C759 C760 1.363 1_565 S
C759 C761 1.419 . S
C759 H763 0.930 . S
C760 C759 1.363 1_545 S
C760 C769 1.442 . S
C761 C759 1.419 . S
C761 C762 1.363 1_565 S
C761 H764 0.929 . S
C762 C761 1.363 1_545 S
C762 C768 1.428 . S
H763 C759 0.930 . S
H764 C761 0.929 . S
S765 N766 1.613 . S
S765 N767 1.610 . S
N766 S765 1.613 . S
N766 C769 1.350 . S
N767 S765 1.610 . S
N767 C768 1.351 . S
C768 C762 1.428 . S
C768 N767 1.351 . S
C768 C769 1.434 . S
C769 C760 1.442 . S
C769 N766 1.350 . S
C769 C768 1.434 . S
C770 C771 1.369 . S
C770 C772 1.419 . S
C770 H774 0.930 . S
C771 C770 1.369 . S
C771 C780 1.429 . S
C772 C770 1.419 . S
C772 C773 1.363 . S
C772 H775 0.929 . S
C773 C772 1.363 . S
C773 C779 1.428 . S
H774 C770 0.930 . S
H775 C772 0.929 . S
S776 N777 1.613 . S
S776 N778 1.610 . S
N777 S776 1.613 . S
N777 C780 1.350 . S
N778 S776 1.610 . S
N778 C779 1.351 . S
C779 C773 1.428 . S
C779 N778 1.351 . S
C779 C780 1.434 . S
C780 C771 1.429 . S
C780 N777 1.350 . S
C780 C779 1.434 . S
C781 C782 1.369 . S
C781 C783 1.419 . S
C781 H785 0.930 . S
C782 C781 1.369 . S
C782 C791 1.429 . S
C783 C781 1.419 . S
C783 C784 1.363 . S
C783 H786 0.929 . S
C784 C783 1.363 . S
C784 C790 1.428 . S
H785 C781 0.930 . S
H786 C783 0.929 . S
S787 N788 1.613 . S
S787 N789 1.610 1_554 S
N788 S787 1.613 . S
N788 C791 1.350 1_554 S
N789 S787 1.610 1_556 S
N789 C790 1.351 . S
C790 C784 1.428 . S
C790 N789 1.351 . S
C790 C791 1.434 . S
C791 C782 1.429 . S
C791 N788 1.350 1_556 S
C791 C790 1.434 . S
C792 C793 1.369 . S
C792 C794 1.419 . S
C792 H796 0.930 . S
C793 C792 1.369 . S
C793 C802 1.429 . S
C794 C792 1.419 . S
C794 C795 1.363 . S
C794 H797 0.929 . S
C795 C794 1.363 . S
C795 C801 1.428 . S
H796 C792 0.930 . S
H797 C794 0.929 . S
S798 N799 1.613 . S
S798 N800 1.610 . S
N799 S798 1.613 . S
N799 C802 1.350 1_556 S
N800 S798 1.610 . S
N800 C801 1.351 1_556 S
C801 C795 1.428 . S
C801 N800 1.351 1_554 S
C801 C802 1.434 . S
C802 C793 1.429 . S
C802 N799 1.350 1_554 S
C802 C801 1.434 . S
C803 C804 1.369 . S
C803 C805 1.419 . S
C803 H807 0.930 . S
C804 C803 1.369 . S
C804 C813 1.428 1_546 S
C805 C803 1.419 . S
C805 C806 1.363 . S
C805 H808 0.929 . S
C806 C805 1.363 . S
C806 C812 1.429 . S
H807 C803 0.930 . S
H808 C805 0.929 . S
S809 N810 1.613 . S
S809 N811 1.610 . S
N810 S809 1.613 . S
N810 C813 1.350 . S
N811 S809 1.610 . S
N811 C812 1.351 1_564 S
C812 C806 1.429 . S
C812 N811 1.351 1_546 S
C812 C813 1.435 1_546 S
C813 C804 1.428 1_564 S
C813 N810 1.350 . S
C813 C812 1.435 1_564 S
C814 C815 1.369 . S
C814 C816 1.419 . S
C814 H818 0.930 . S
C815 C814 1.369 . S
C815 C824 1.429 1_556 S
C816 C814 1.419 . S
C816 C817 1.363 . S
C816 H819 0.929 . S
C817 C816 1.363 . S
C817 C823 1.428 . S
H818 C814 0.930 . S
H819 C816 0.929 . S
S820 N821 1.613 . S
S820 N822 1.610 . S
N821 S820 1.613 . S
N821 C824 1.350 . S
N822 S820 1.610 . S
N822 C823 1.351 1_554 S
C823 C817 1.428 . S
C823 N822 1.351 1_556 S
C823 C824 1.434 1_556 S
C824 C815 1.429 1_554 S
C824 N821 1.350 . S
C824 C823 1.434 1_554 S
C825 C826 1.369 . S
C825 C827 1.419 . S
C825 H829 0.930 . S
C826 C825 1.369 . S
C826 C835 1.429 . S
C827 C825 1.419 . S
C827 C828 1.363 . S
C827 H830 0.929 . S
C828 C827 1.363 . S
C828 C834 1.428 . S
H829 C825 0.930 . S
H830 C827 0.929 . S
S831 N832 1.613 . S
S831 N833 1.610 . S
N832 S831 1.613 . S
N832 C835 1.350 . S
N833 S831 1.610 . S
N833 C834 1.351 . S
C834 C828 1.428 . S
C834 N833 1.351 . S
C834 C835 1.434 . S
C835 C826 1.429 . S
C835 N832 1.350 . S
C835 C834 1.434 . S
C836 C837 1.369 . S
C836 C838 1.419 . S
C836 H840 0.930 . S
C837 C836 1.369 . S
C837 C846 1.429 . S
C838 C836 1.419 . S
C838 C839 1.363 . S
C838 H841 0.929 . S
C839 C838 1.363 . S
C839 C845 1.428 . S
H840 C836 0.930 . S
H841 C838 0.929 . S
S842 N843 1.613 . S
S842 N844 1.610 . S
N843 S842 1.613 . S
N843 C846 1.350 . S
N844 S842 1.610 . S
N844 C845 1.351 . S
C845 C839 1.428 . S
C845 N844 1.351 . S
C845 C846 1.434 . S
C846 C837 1.429 . S
C846 N843 1.350 . S
C846 C845 1.434 . S
C847 C848 1.373 . S
C847 C849 1.419 . S
C847 H851 0.930 . S
C848 C847 1.373 . S
C848 C857 1.423 1_565 S
C849 C847 1.419 . S
C849 C850 1.363 . S
C849 H852 0.929 . S
C850 C849 1.363 . S
C850 C856 1.428 1_565 S
H851 C847 0.930 . S
H852 C849 0.929 . S
S853 N854 1.613 . S
S853 N855 1.610 . S
N854 S853 1.613 . S
N854 C857 1.350 . S
N855 S853 1.610 . S
N855 C856 1.351 . S
C856 C850 1.428 1_545 S
C856 N855 1.351 . S
C856 C857 1.434 . S
C857 C848 1.423 1_545 S
C857 N854 1.350 . S
C857 C856 1.434 . S
C858 C859 1.369 . S
C858 C860 1.419 . S
C858 H862 0.930 . S
C859 C858 1.369 . S
C859 C868 1.429 . S
C860 C858 1.419 . S
C860 C861 1.363 . S
C860 H863 0.929 . S
C861 C860 1.363 . S
C861 C867 1.428 . S
H862 C858 0.930 . S
H863 C860 0.929 . S
S864 N865 1.613 . S
S864 N866 1.610 . S
N865 S864 1.613 . S
N865 C868 1.350 . S
N866 S864 1.610 . S
N866 C867 1.351 . S
C867 C861 1.428 . S
C867 N866 1.351 . S
C867 C868 1.434 . S
C868 C859 1.429 . S
C868 N865 1.350 . S
C868 C867 1.434 . S
C869 C870 1.369 . S
C869 C871 1.419 . S
C869 H873 0.930 . S
C870 C869 1.369 . S
C870 C879 1.429 . S
C871 C869 1.419 . S
C871 C872 1.363 . S
C871 H874 0.929 . S
C872 C871 1.363 . S
C872 C878 1.428 . S
H873 C869 0.930 . S
H874 C871 0.929 . S
S875 N876 1.613 . S
S875 N877 1.610 . S
N876 S875 1.613 . S
N876 C879 1.350 . S
N877 S875 1.610 . S
N877 C878 1.351 . S
C878 C872 1.428 . S
C878 N877 1.351 . S
C878 C879 1.434 . S
C879 C870 1.429 . S
C879 N876 1.350 . S
C879 C878 1.434 . S
C617 C391 2.008 1_565 S
C619 C497 1.979 . S
C630 C518 1.821 . S
C628 C451 1.864 . S
C641 C552 1.770 . S
C639 C241 1.602 . S
C652 C586 1.769 . S
C650 C331 1.598 . S
C663 C488 1.977 . S
C661 C121 1.845 1_546 S
C672 C211 1.782 1_556 S
C674 C527 1.831 . S
C683 C31 1.846 . S
C685 C561 1.770 . S
C694 C91 1.683 . S
C696 C595 1.772 . S
C707 C509 1.294 . S
C705 C301 0.903 . S
C718 C514 0.831 . S
C716 C380 0.831 1_565 S
C729 C548 1.005 . S
C727 C440 1.032 . S
C738 C260 0.595 . S
C740 C582 0.556 . S
C749 C61 1.106 . S
C751 C480 1.288 1_655 S
C762 C543 0.828 . S
C760 C140 0.813 1_545 S
C773 C577 1.004 . S
C771 C200 0.971 . S
C782 C20 0.568 . S
C784 C611 0.559 . S
C793 C320 1.817 . S
C795 C493 1.898 . S
C804 C361 1.922 1_556 S
C806 C522 2.250 . S
C817 C556 1.990 . S
C815 C421 1.715 1_556 S
C828 C590 2.086 . S
C826 C271 2.028 . S
C837 C80 1.891 . S
C839 C484 1.907 . S
C850 C531 2.249 . S
C848 C151 2.190 . S
C861 C565 1.986 . S
C859 C181 1.664 . S
C870 C1 1.792 . S
C872 C599 2.087 . S
