# Generated by pormake.
# Topology nom, (4,4)-cn, num edge types: 1
# Building blocks:
#     Node 0, Type 0, BuildingBlock: MUDLON_clean_linker_0, # of connection points: 4
#     Node 1, Type 0, BuildingBlock: MUDLON_clean_linker_0, # of connection points: 4
#     Node 2, Type 0, BuildingBlock: MUDLON_clean_linker_0, # of connection points: 4
#     Node 3, Type 0, BuildingBlock: MUDLON_clean_linker_0, # of connection points: 4
#     Node 4, Type 0, BuildingBlock: MUDLON_clean_linker_0, # of connection points: 4
#     Node 5, Type 0, BuildingBlock: MUDLON_clean_linker_0, # of connection points: 4
#     Node 6, Type 1, BuildingBlock: AZAVOO_clean_sbu_0, # of connection points: 4
#     Node 7, Type 1, BuildingBlock: AZAVOO_clean_sbu_0, # of connection points: 4
#     Node 8, Type 1, BuildingBlock: AZAVOO_clean_sbu_0, # of connection points: 4
#     Node 9, Type 1, BuildingBlock: AZAVOO_clean_sbu_0, # of connection points: 4
#     Node 10, Type 1, BuildingBlock: AZAVOO_clean_sbu_0, # of connection points: 4
#     Node 11, Type 1, BuildingBlock: AZAVOO_clean_sbu_0, # of connection points: 4
#     Edge 12, Type (0, 1), BuildingBlock: UVAHIK_clean_linker_0, # of connection points: 2
#     Edge 13, Type (0, 1), BuildingBlock: UVAHIK_clean_linker_0, # of connection points: 2
#     Edge 14, Type (0, 1), BuildingBlock: UVAHIK_clean_linker_0, # of connection points: 2
#     Edge 15, Type (0, 1), BuildingBlock: UVAHIK_clean_linker_0, # of connection points: 2
#     Edge 16, Type (0, 1), BuildingBlock: UVAHIK_clean_linker_0, # of connection points: 2
#     Edge 17, Type (0, 1), BuildingBlock: UVAHIK_clean_linker_0, # of connection points: 2
#     Edge 18, Type (0, 1), BuildingBlock: UVAHIK_clean_linker_0, # of connection points: 2
#     Edge 19, Type (0, 1), BuildingBlock: UVAHIK_clean_linker_0, # of connection points: 2
#     Edge 20, Type (0, 1), BuildingBlock: UVAHIK_clean_linker_0, # of connection points: 2
#     Edge 21, Type (0, 1), BuildingBlock: UVAHIK_clean_linker_0, # of connection points: 2
#     Edge 22, Type (0, 1), BuildingBlock: UVAHIK_clean_linker_0, # of connection points: 2
#     Edge 23, Type (0, 1), BuildingBlock: UVAHIK_clean_linker_0, # of connection points: 2
#     Edge 24, Type (0, 1), BuildingBlock: UVAHIK_clean_linker_0, # of connection points: 2
#     Edge 25, Type (0, 1), BuildingBlock: UVAHIK_clean_linker_0, # of connection points: 2
#     Edge 26, Type (0, 1), BuildingBlock: UVAHIK_clean_linker_0, # of connection points: 2
#     Edge 27, Type (0, 1), BuildingBlock: UVAHIK_clean_linker_0, # of connection points: 2
#     Edge 28, Type (0, 1), BuildingBlock: UVAHIK_clean_linker_0, # of connection points: 2
#     Edge 29, Type (0, 1), BuildingBlock: UVAHIK_clean_linker_0, # of connection points: 2
#     Edge 30, Type (0, 1), BuildingBlock: UVAHIK_clean_linker_0, # of connection points: 2
#     Edge 31, Type (0, 1), BuildingBlock: UVAHIK_clean_linker_0, # of connection points: 2
#     Edge 32, Type (0, 1), BuildingBlock: UVAHIK_clean_linker_0, # of connection points: 2
#     Edge 33, Type (0, 1), BuildingBlock: UVAHIK_clean_linker_0, # of connection points: 2
#     Edge 34, Type (0, 1), BuildingBlock: UVAHIK_clean_linker_0, # of connection points: 2
#     Edge 35, Type (0, 1), BuildingBlock: UVAHIK_clean_linker_0, # of connection points: 2
# Relax obj value: 0.034
# Max RMSD: 0.155
# Mean RMSD: 0.120
data_MOF--net-nom--node1-AZAVOO_clean_sbu_0--node2-MUDLON_clean_linker_0--edge1-UVAHIK_clean_linker_0
_symmetry_space_group_name_H-M    P1
_symmetry_Int_Tables_number       1
_symmetry_cell_setting            triclinic
loop_
_symmetry_equiv_pos_as_xyz
'x, y, z'
_cell_length_a     73.401746
_cell_length_b     74.617454
_cell_length_c     71.606076
_cell_angle_alpha  91.239159
_cell_angle_beta   90.685248
_cell_angle_gamma 120.26375
loop_
_atom_site_label
_atom_site_type_symbol
_atom_site_fract_x
_atom_site_fract_y
_atom_site_fract_z
_atom_type_partial_charge
H0 H 0.10845 0.52148 0.32361 0.0
N1 N 0.07817 0.52812 0.33556 0.0
H2 H 0.13819 0.54394 0.30423 0.0
H3 H 0.08253 0.56153 0.31586 0.0
H4 H 0.11148 0.58332 0.29614 0.0
H5 H 0.10123 0.56776 0.35063 0.0
H6 H 0.11906 0.57771 0.38101 0.0
H7 H 0.07416 0.5031 0.36309 0.0
H8 H 0.09093 0.51291 0.39425 0.0
H9 H 0.04616 0.4944 0.31934 0.0
H10 H 0.06255 0.55356 0.34505 0.0
H11 H 0.0104 0.48754 0.31267 0.0
H12 H 0.02754 0.54755 0.33753 0.0
H13 H 0.91329 0.46736 0.29327 0.0
H14 H 0.89403 0.45201 0.2637 0.0
H15 H 0.91868 0.51324 0.24192 0.0
H16 H 0.93733 0.52864 0.27192 0.0
H17 H 0.9143 0.52762 0.31091 0.0
H18 H 0.88454 0.51588 0.33171 0.0
H19 H 0.89242 0.46455 0.34753 0.0
H20 H 0.92194 0.47624 0.32635 0.0
H21 H 0.95817 0.49343 0.28369 0.0
H22 H 0.99183 0.49755 0.29281 0.0
H23 H 0.99197 0.52927 0.3441 0.0
N24 N 0.93597 0.50889 0.30285 0.0
H25 H 0.95878 0.52639 0.33439 0.0
C26 C 0.09315 0.53961 0.32135 0.0
C27 C 0.10883 0.53473 0.31732 0.0
C28 C 0.12579 0.54757 0.30621 0.0
C29 C 0.12734 0.56559 0.29883 0.0
C30 C 0.11098 0.5698 0.30194 0.0
C31 C 0.09416 0.55708 0.31314 0.0
C32 C 0.08663 0.53456 0.3544 0.0
C33 C 0.09882 0.55564 0.36003 0.0
C34 C 0.10889 0.56134 0.37761 0.0
C35 C 0.10671 0.54614 0.39013 0.0
C36 C 0.09348 0.52507 0.38483 0.0
C37 C 0.08367 0.51939 0.36712 0.0
C38 C 0.05705 0.52444 0.33258 0.0
C39 C 0.04202 0.50591 0.32349 0.0
C40 C 0.02166 0.50214 0.31956 0.0
C41 C 0.01599 0.51703 0.32443 0.0
C42 C 0.03108 0.53551 0.33383 0.0
C43 C 0.05129 0.53908 0.33804 0.0
C44 C 0.92648 0.49925 0.2849 0.0
C45 C 0.91452 0.47752 0.28222 0.0
C46 C 0.90356 0.46875 0.26531 0.0
C47 C 0.90478 0.48148 0.25067 0.0
C48 C 0.91754 0.50312 0.25303 0.0
C49 C 0.92816 0.51191 0.27008 0.0
C50 C 0.92025 0.50284 0.31702 0.0
C51 C 0.90979 0.51405 0.31912 0.0
C52 C 0.89288 0.50736 0.33111 0.0
C53 C 0.88607 0.48924 0.34129 0.0
C54 C 0.89712 0.47842 0.33973 0.0
C55 C 0.91404 0.48513 0.32768 0.0
C56 C 0.95518 0.50912 0.30857 0.0
C57 C 0.96504 0.50107 0.29705 0.0
C58 C 0.98451 0.50335 0.30234 0.0
C59 C 0.99472 0.51366 0.31927 0.0
C60 C 0.98482 0.52148 0.33084 0.0
C61 C 0.96557 0.51955 0.3254 0.0
H62 H 0.45525 0.91647 0.46641 0.0
N63 N 0.43554 0.93858 0.4588 0.0
H64 H 0.44183 0.88621 0.48578 0.0
H65 H 0.4034 0.92491 0.48182 0.0
H66 H 0.38961 0.89427 0.50116 0.0
H67 H 0.40208 0.92129 0.43581 0.0
H68 H 0.39835 0.90354 0.40568 0.0
H69 H 0.46757 0.93852 0.43965 0.0
H70 H 0.46387 0.92014 0.40991 0.0
H71 H 0.47373 0.95166 0.47718 0.0
H72 H 0.43552 0.97286 0.45015 0.0
H73 H 0.50074 0.98732 0.48462 0.0
H74 H 0.46311 0.00881 0.45656 0.0
H75 H 0.58709 0.10543 0.50444 0.0
H76 H 0.59729 0.1213 0.53592 0.0
H77 H 0.53153 0.09539 0.54875 0.0
H78 H 0.52151 0.07987 0.51741 0.0
H79 H 0.52614 0.10562 0.49363 0.0
H80 H 0.53104 0.13576 0.47716 0.0
H81 H 0.57707 0.13255 0.44234 0.0
H82 H 0.57236 0.10239 0.45935 0.0
H83 H 0.55424 0.05407 0.4802 0.0
H84 H 0.5273 0.01816 0.47226 0.0
H85 H 0.47878 0.03405 0.48049 0.0
N86 N 0.54868 0.08567 0.48887 0.0
H87 H 0.50573 0.06987 0.48723 0.0
C88 C 0.43027 0.92304 0.47264 0.0
C89 C 0.4412 0.91211 0.47424 0.0
C90 C 0.4334 0.89464 0.48523 0.0
C91 C 0.41452 0.88769 0.49481 0.0
C92 C 0.40428 0.89931 0.49405 0.0
C93 C 0.4121 0.9168 0.48302 0.0
C94 C 0.43497 0.93108 0.43997 0.0
C95 C 0.4157 0.92143 0.42998 0.0
C96 C 0.41358 0.91112 0.4129 0.0
C97 C 0.43072 0.9101 0.40552 0.0
C98 C 0.45037 0.92069 0.41513 0.0
C99 C 0.4525 0.93115 0.43219 0.0
C100 C 0.45227 0.95949 0.46332 0.0
C101 C 0.47108 0.96392 0.47276 0.0
C102 C 0.48674 0.98449 0.47685 0.0
C103 C 0.48417 0.0011 0.4713 0.0
C104 C 0.46552 0.99653 0.46149 0.0
C105 C 0.44977 0.97598 0.45766 0.0
C106 C 0.55363 0.09147 0.50843 0.0
C107 C 0.5749 0.1028 0.51422 0.0
C108 C 0.58068 0.11183 0.53219 0.0
C109 C 0.5652 0.10976 0.54475 0.0
C110 C 0.54382 0.09752 0.53928 0.0
C111 C 0.53807 0.08845 0.52132 0.0
C112 C 0.54896 0.10168 0.47772 0.0
C113 C 0.537 0.11105 0.48225 0.0
C114 C 0.53979 0.12836 0.47274 0.0
C115 C 0.55454 0.13668 0.45848 0.0
C116 C 0.56581 0.12673 0.45344 0.0
C117 C 0.56302 0.10941 0.463 0.0
C118 C 0.53214 0.06468 0.48442 0.0
C119 C 0.53776 0.04972 0.4802 0.0
C120 C 0.5223 0.02917 0.47582 0.0
C121 C 0.50075 0.02305 0.47578 0.0
C122 C 0.49517 0.03815 0.48006 0.0
C123 C 0.51066 0.05874 0.48415 0.0
H124 H 0.51201 0.61822 0.63863 0.0
N125 N 0.51448 0.58471 0.64524 0.0
H126 H 0.48663 0.6207 0.61825 0.0
H127 H 0.48903 0.55552 0.6179 0.0
H128 H 0.4646 0.55828 0.5968 0.0
H129 H 0.47363 0.55701 0.65401 0.0
H130 H 0.45698 0.55567 0.68367 0.0
H131 H 0.53323 0.60592 0.67678 0.0
H132 H 0.51661 0.60457 0.70666 0.0
H133 H 0.5542 0.59862 0.63618 0.0
H134 H 0.49606 0.54234 0.64672 0.0
H135 H 0.57186 0.57858 0.63147 0.0
H136 H 0.51318 0.52206 0.64118 0.0
H137 H 0.62199 0.51139 0.60671 0.0
H138 H 0.62364 0.49838 0.57543 0.0
H139 H 0.55564 0.46643 0.57027 0.0
H140 H 0.55417 0.47984 0.60145 0.0
H141 H 0.5537 0.4643 0.62987 0.0
H142 H 0.55314 0.4371 0.6486 0.0
H143 H 0.61655 0.48013 0.66898 0.0
H144 H 0.61692 0.50731 0.65016 0.0
H145 H 0.59308 0.53613 0.60705 0.0
H146 H 0.57443 0.55516 0.61075 0.0
H147 H 0.53802 0.51447 0.65465 0.0
N148 N 0.58777 0.50321 0.62538 0.0
H149 H 0.55582 0.49493 0.65038 0.0
C150 C 0.5025 0.58675 0.63008 0.0
C151 C 0.502 0.60525 0.62922 0.0
C152 C 0.4875 0.60665 0.61744 0.0
C153 C 0.47327 0.58957 0.60598 0.0
C154 C 0.47491 0.57157 0.60576 0.0
C155 C 0.48917 0.57005 0.61781 0.0
C156 C 0.50471 0.58181 0.66314 0.0
C157 C 0.48322 0.56727 0.66547 0.0
C158 C 0.47369 0.56655 0.6824 0.0
C159 C 0.48548 0.58013 0.69739 0.0
C160 C 0.50718 0.59384 0.69537 0.0
C161 C 0.51667 0.5947 0.67835 0.0
C162 C 0.52388 0.57208 0.64168 0.0
C163 C 0.54521 0.5819 0.63721 0.0
C164 C 0.5552 0.57037 0.63442 0.0
C165 C 0.54394 0.54863 0.63587 0.0
C166 C 0.52245 0.53877 0.64023 0.0
C167 C 0.51255 0.55037 0.64325 0.0
C168 C 0.58806 0.4965 0.6064 0.0
C169 C 0.6075 0.50178 0.59871 0.0
C170 C 0.60839 0.49438 0.58088 0.0
C171 C 0.58974 0.48135 0.5705 0.0
C172 C 0.57021 0.47627 0.57809 0.0
C173 C 0.56936 0.48391 0.59586 0.0
C174 C 0.58548 0.48788 0.63856 0.0
C175 C 0.56739 0.46797 0.63851 0.0
C176 C 0.5671 0.45241 0.6492 0.0
C177 C 0.58487 0.45641 0.66014 0.0
C178 C 0.60253 0.4766 0.66086 0.0
C179 C 0.6028 0.49214 0.65012 0.0
C180 C 0.57574 0.51363 0.62795 0.0
C181 C 0.58083 0.53106 0.61728 0.0
C182 C 0.5703 0.54212 0.61958 0.0
C183 C 0.55466 0.53638 0.633 0.0
C184 C 0.54965 0.51908 0.64388 0.0
C185 C 0.56001 0.50783 0.64142 0.0
H186 H 0.11158 0.62301 0.81304 0.0
N187 N 0.07589 0.58937 0.80213 0.0
H188 H 0.13909 0.62506 0.83403 0.0
H189 H 0.0723 0.5581 0.82454 0.0
H190 H 0.09932 0.56016 0.84582 0.0
H191 H 0.08779 0.56161 0.79028 0.0
H192 H 0.10097 0.55998 0.75972 0.0
H193 H 0.07611 0.60968 0.77209 0.0
H194 H 0.08771 0.60707 0.74085 0.0
H195 H 0.05322 0.6067 0.81086 0.0
H196 H 0.04827 0.54747 0.79959 0.0
H197 H 0.01514 0.58966 0.81425 0.0
H198 H 0.0105 0.52994 0.80474 0.0
H199 H 0.89274 0.52627 0.83774 0.0
H200 H 0.8803 0.51619 0.86947 0.0
H201 H 0.92009 0.48918 0.87506 0.0
H202 H 0.93206 0.49896 0.84323 0.0
H203 H 0.90715 0.47747 0.81766 0.0
H204 H 0.87998 0.45084 0.79722 0.0
H205 H 0.87383 0.49796 0.76837 0.0
H206 H 0.90026 0.52449 0.78994 0.0
H207 H 0.94935 0.55398 0.83535 0.0
H208 H 0.98734 0.57031 0.83268 0.0
H209 H 0.97845 0.52233 0.79236 0.0
N210 N 0.91945 0.51883 0.81908 0.0
H211 H 0.94081 0.50517 0.79637 0.0
C212 C 0.08987 0.59051 0.81707 0.0
C213 C 0.10865 0.60937 0.82049 0.0
C214 C 0.12431 0.61051 0.83256 0.0
C215 C 0.12147 0.59272 0.84152 0.0
C216 C 0.10213 0.57407 0.83892 0.0
C217 C 0.08651 0.57293 0.82678 0.0
C218 C 0.08155 0.58629 0.78362 0.0
C219 C 0.08781 0.57167 0.77963 0.0
C220 C 0.09511 0.57055 0.76195 0.0
C221 C 0.09576 0.58362 0.74775 0.0
C222 C 0.08811 0.59721 0.75153 0.0
C223 C 0.08128 0.59863 0.76932 0.0
C224 C 0.05361 0.57839 0.80544 0.0
C225 C 0.04389 0.58992 0.80963 0.0
C226 C 0.02209 0.58006 0.81169 0.0
C227 C 0.00952 0.55827 0.80999 0.0
C228 C 0.01945 0.54672 0.80592 0.0
C229 C 0.0412 0.55669 0.80334 0.0
C230 C 0.91326 0.51341 0.83815 0.0
C231 C 0.89882 0.51829 0.84591 0.0
C232 C 0.89187 0.51262 0.86405 0.0
C233 C 0.89925 0.50192 0.87481 0.0
C234 C 0.91394 0.49722 0.86707 0.0
C235 C 0.92087 0.50289 0.84892 0.0
C236 C 0.90537 0.503 0.80562 0.0
C237 C 0.89994 0.48211 0.80701 0.0
C238 C 0.88455 0.46686 0.79503 0.0
C239 C 0.87447 0.47213 0.78115 0.0
C240 C 0.88086 0.49322 0.77914 0.0
C241 C 0.89607 0.50845 0.79133 0.0
C242 C 0.94193 0.52824 0.81629 0.0
C243 C 0.95563 0.5469 0.82605 0.0
C244 C 0.97743 0.55635 0.82432 0.0
C245 C 0.98621 0.54778 0.81222 0.0
C246 C 0.97246 0.52924 0.80215 0.0
C247 C 0.95064 0.51944 0.80431 0.0
H248 H 0.56171 0.10553 0.97813 0.0
N249 N 0.57415 0.07745 0.96917 0.0
H250 H 0.57895 0.13435 0.00085 0.0
H251 H 0.60445 0.08443 0.99393 0.0
H252 H 0.62135 0.11283 0.01739 0.0
H253 H 0.60576 0.09754 0.94612 0.0
H254 H 0.60504 0.11235 0.91626 0.0
H255 H 0.53935 0.07517 0.95186 0.0
H256 H 0.53807 0.08851 0.92156 0.0
H257 H 0.53905 0.0686 0.98935 0.0
H258 H 0.56905 0.04112 0.95789 0.0
H259 H 0.50898 0.0343 0.99438 0.0
H260 H 0.53849 0.00665 0.96212 0.0
H261 H 0.41184 0.91993 0.00875 0.0
H262 H 0.40359 0.91202 0.04161 0.0
H263 H 0.47025 0.94496 0.05592 0.0
H264 H 0.47833 0.95183 0.02332 0.0
H265 H 0.4674 0.91538 0.00558 0.0
H266 H 0.4621 0.88304 0.99155 0.0
H267 H 0.42249 0.88614 0.94812 0.0
H268 H 0.42771 0.91861 0.96247 0.0
H269 H 0.44918 0.97214 0.98469 0.0
H270 H 0.47935 0.00626 0.97819 0.0
H271 H 0.5211 0.98163 0.9852 0.0
N272 N 0.44965 0.93803 0.99358 0.0
H273 H 0.49108 0.94777 0.99095 0.0
C274 C 0.5821 0.09301 0.98413 0.0
C275 C 0.57461 0.1069 0.98673 0.0
C276 C 0.58438 0.12331 -0.0001 0.0
C277 C 0.60171 0.12607 0.01086 0.0
C278 C 0.60833 0.11142 0.00893 0.0
C279 C 0.59864 0.09511 0.99565 0.0
C280 C 0.57269 0.08505 0.95116 0.0
C281 C 0.59096 0.09551 0.94075 0.0
C282 C 0.59043 0.1038 0.92359 0.0
C283 C 0.57144 0.10153 0.91633 0.0
C284 C 0.55305 0.09083 0.92675 0.0
C285 C 0.5537 0.08292 0.94408 0.0
C286 C 0.55656 0.05741 0.97347 0.0
C287 C 0.53929 0.0552 0.98363 0.0
C288 C 0.52189 0.03552 0.98626 0.0
C289 C 0.52125 0.01768 0.9786 0.0
C290 C 0.53856 0.01999 0.96846 0.0
C291 C 0.55602 0.03965 0.966 0.0
C292 C 0.44559 0.93641 0.01337 0.0
C293 C 0.42462 0.9257 0.01906 0.0
C294 C 0.41996 0.92133 0.03786 0.0
C295 C 0.43629 0.92772 0.05139 0.0
C296 C 0.4573 0.93948 0.04582 0.0
C297 C 0.46194 0.9436 0.02704 0.0
C298 C 0.44788 0.91947 0.98504 0.0
C299 C 0.4577 0.90926 0.99297 0.0
C300 C 0.45474 0.89077 0.98487 0.0
C301 C 0.44186 0.88201 0.96873 0.0
C302 C 0.43232 0.89238 0.96068 0.0
C303 C 0.43537 0.91096 0.96876 0.0
C304 C 0.46768 0.95732 0.98822 0.0
C305 C 0.46484 0.97412 0.98452 0.0
C306 C 0.48212 0.99362 0.98103 0.0
C307 C 0.5027 0.99674 0.98132 0.0
C308 C 0.50548 0.97975 0.98461 0.0
C309 C 0.48819 0.96025 0.98793 0.0
H310 H 0.50408 0.41267 0.13203 0.0
N311 N 0.50511 0.44754 0.14188 0.0
H312 H 0.53273 0.40877 0.11966 0.0
H313 H 0.54257 0.47916 0.12893 0.0
H314 H 0.57101 0.47543 0.11588 0.0
H315 H 0.54017 0.46908 0.16471 0.0
H316 H 0.5433 0.46257 0.19728 0.0
H317 H 0.47385 0.42353 0.16407 0.0
H318 H 0.47636 0.41792 0.1973 0.0
H319 H 0.47155 0.43798 0.12065 0.0
H320 H 0.52394 0.48923 0.15029 0.0
H321 H 0.45696 0.46006 0.11331 0.0
H322 H 0.5101 0.51187 0.14228 0.0
H323 H 0.39647 0.51582 0.10294 0.0
H324 H 0.38915 0.52656 0.07302 0.0
H325 H 0.45612 0.5654 0.06501 0.0
H326 H 0.46325 0.55447 0.0949 0.0
H327 H 0.46354 0.56972 0.12424 0.0
H328 H 0.4614 0.59444 0.1454 0.0
H329 H 0.40622 0.54402 0.16995 0.0
H330 H 0.4075 0.51971 0.14736 0.0
H331 H 0.43862 0.50428 0.09364 0.0
H332 H 0.45962 0.48775 0.09645 0.0
H333 H 0.4818 0.51661 0.1513 0.0
N334 N 0.43382 0.5285 0.11935 0.0
H335 H 0.46195 0.53419 0.14813 0.0
C336 C 0.52101 0.44609 0.13138 0.0
C337 C 0.5185 0.42639 0.12813 0.0
C338 C 0.53492 0.42422 0.12101 0.0
C339 C 0.5543 0.4418 0.11685 0.0
C340 C 0.55644 0.46156 0.11923 0.0
C341 C 0.54002 0.46372 0.12651 0.0
C342 C 0.50682 0.4463 0.16182 0.0
C343 C 0.52616 0.45792 0.1717 0.0
C344 C 0.52784 0.45434 0.19051 0.0
C345 C 0.51012 0.43947 0.20002 0.0
C346 C 0.49048 0.42904 0.19038 0.0
C347 C 0.48893 0.43233 0.17144 0.0
C348 C 0.49877 0.46191 0.13587 0.0
C349 C 0.48016 0.45419 0.12512 0.0
C350 C 0.47195 0.46693 0.12087 0.0
C351 C 0.48235 0.48785 0.12717 0.0
C352 C 0.50152 0.4958 0.1374 0.0
C353 C 0.5096 0.48292 0.14182 0.0
C354 C 0.43029 0.53435 0.10115 0.0
C355 C 0.40951 0.52651 0.09462 0.0
C356 C 0.4054 0.53262 0.07754 0.0
C357 C 0.42208 0.54685 0.0667 0.0
C358 C 0.44296 0.55461 0.07318 0.0
C359 C 0.44706 0.54837 0.09023 0.0
C360 C 0.43518 0.54294 0.13382 0.0
C361 C 0.45093 0.56402 0.1341 0.0
C362 C 0.44985 0.57814 0.14652 0.0
C363 C 0.43336 0.57141 0.15928 0.0
C364 C 0.41872 0.54998 0.15995 0.0
C365 C 0.41952 0.53598 0.1472 0.0
C366 C 0.44891 0.52129 0.12028 0.0
C367 C 0.44858 0.5078 0.10603 0.0
C368 C 0.4604 0.49799 0.10778 0.0
C369 C 0.47235 0.5007 0.12415 0.0
C370 C 0.47312 0.51443 0.13831 0.0
C371 C 0.46155 0.52454 0.13646 0.0
Mg372 Mg 0.62171 0.37309 0.36462 0.0
O373 O 0.61643 0.39003 0.38947 0.0
O374 O 0.62687 0.42224 0.38037 0.0
Mg375 Mg 0.63831 0.42599 0.35061 0.0
C376 C 0.61943 0.40828 0.39262 0.0
C377 C 0.59909 0.33413 0.38899 0.0
O378 O 0.5835 0.33755 0.38554 0.0
O379 O 0.65711 0.3911 0.37101 0.0
O380 O 0.66605 0.42284 0.36164 0.0
O381 O 0.58953 0.36288 0.35305 0.0
O382 O 0.61799 0.39228 0.34615 0.0
C383 C 0.67086 0.41008 0.36858 0.0
C384 C 0.59781 0.38036 0.34466 0.0
O385 O 0.61727 0.34666 0.38297 0.0
Mg386 Mg 0.27565 0.64184 0.58593 0.0
O387 O 0.25319 0.625 0.56066 0.0
O388 O 0.23483 0.59133 0.56736 0.0
Mg389 Mg 0.24426 0.58682 0.59656 0.0
C390 C 0.23934 0.60617 0.55636 0.0
C391 C 0.29971 0.68778 0.57815 0.0
O392 O 0.29306 0.68681 0.59526 0.0
O393 O 0.29653 0.62864 0.57768 0.0
O394 O 0.27719 0.59566 0.58603 0.0
O395 O 0.25132 0.64705 0.59876 0.0
O396 O 0.25413 0.61938 0.60351 0.0
C397 C 0.29404 0.61056 0.57951 0.0
C398 C 0.2439 0.62905 0.60609 0.0
O399 O 0.2951 0.67096 0.56938 0.0
Mg400 Mg 0.62995 0.26682 0.74583 0.0
O401 O 0.62644 0.24621 0.72003 0.0
O402 O 0.64478 0.23057 0.72697 0.0
Mg403 Mg 0.65853 0.23986 0.7567 0.0
C404 C 0.6333 0.23396 0.71571 0.0
C405 C 0.62273 0.30211 0.73884 0.0
O406 O 0.63181 0.30571 0.7555 0.0
O407 O 0.66388 0.28945 0.73893 0.0
O408 O 0.68114 0.27335 0.7476 0.0
O409 O 0.60095 0.24124 0.75782 0.0
O410 O 0.63303 0.24634 0.76283 0.0
C411 C 0.68097 0.28915 0.74127 0.0
C412 C 0.613 0.23513 0.76524 0.0
O413 O 0.61907 0.28579 0.7297 0.0
Mg414 Mg 0.37068 0.64343 0.86632 0.0
O415 O 0.37493 0.62617 0.89065 0.0
O416 O 0.35898 0.59263 0.88169 0.0
Mg417 Mg 0.34601 0.5887 0.85179 0.0
C418 C 0.3693 0.6073 0.89382 0.0
C419 C 0.39785 0.68408 0.89127 0.0
O420 O 0.41297 0.68019 0.88729 0.0
O421 O 0.33615 0.62974 0.873 0.0
O422 O 0.32137 0.59697 0.86214 0.0
O423 O 0.40086 0.64919 0.85419 0.0
O424 O 0.36987 0.62142 0.84747 0.0
C425 C 0.31996 0.61188 0.86971 0.0
C426 C 0.39004 0.6313 0.84558 0.0
O427 O 0.37918 0.67164 0.88518 0.0
Mg428 Mg 0.74273 0.38244 0.05139 0.0
O429 O 0.76635 0.39259 0.07631 0.0
O430 O 0.7915 0.38569 0.06784 0.0
Mg431 Mg 0.78353 0.37033 0.03865 0.0
C432 C 0.78361 0.39279 0.07964 0.0
C433 C 0.72333 0.40314 0.07651 0.0
O434 O 0.74284 0.41871 0.0762 0.0
O435 O 0.7287 0.34862 0.0588 0.0
O436 O 0.7536 0.34185 0.04941 0.0
O437 O 0.76195 0.41333 0.0388 0.0
O438 O 0.76609 0.38643 0.03297 0.0
C439 C 0.73553 0.33607 0.0563 0.0
C440 C 0.7723 0.40571 0.0306 0.0
O441 O 0.7188 0.38589 0.06866 0.0
Mg442 Mg 0.36398 0.75153 0.20739 0.0
O443 O 0.38059 0.77161 0.23378 0.0
O444 O 0.41414 0.79334 0.22658 0.0
Mg445 Mg 0.41891 0.78707 0.19621 0.0
C446 C 0.39917 0.78642 0.23817 0.0
C447 C 0.31855 0.71933 0.21481 0.0
O448 O 0.31803 0.724 0.19729 0.0
O449 O 0.38025 0.73299 0.21156 0.0
O450 O 0.41335 0.75457 0.20324 0.0
O451 O 0.35561 0.77478 0.19854 0.0
O452 O 0.38501 0.77533 0.19089 0.0
C453 C 0.399 0.73689 0.20873 0.0
C454 C 0.37379 0.78419 0.19071 0.0
O455 O 0.33603 0.7286 0.2239 0.0
C456 C 0.15703 0.57414 0.2769 0.0
C457 C 0.14666 0.58077 0.2892 0.0
C458 C 0.17579 0.58859 0.26866 0.0
C459 C 0.2199 0.64265 0.27502 0.0
H460 H 0.23034 0.63614 0.22307 0.0
C461 C 0.29989 0.69678 0.24168 0.0
C462 C 0.29919 0.70319 0.22351 0.0
C463 C 0.28157 0.68128 0.24968 0.0
C464 C 0.2276 0.63825 0.23757 0.0
H465 H 0.14801 0.60783 0.30255 0.0
H466 H 0.18021 0.63293 0.28779 0.0
H467 H 0.19749 0.6103 0.23678 0.0
H468 H 0.2787 0.69846 0.19953 0.0
H469 H 0.24675 0.67175 0.21361 0.0
H470 H 0.24969 0.67088 0.27569 0.0
C471 C 0.17404 0.61657 0.28468 0.0
C472 C 0.20889 0.62331 0.24548 0.0
C473 C 0.15537 0.60216 0.29292 0.0
C474 C 0.2798 0.69383 0.21354 0.0
C475 C 0.2615 0.67839 0.22156 0.0
C476 C 0.23858 0.65759 0.26711 0.0
C477 C 0.18459 0.60997 0.27258 0.0
C478 C 0.20475 0.62542 0.26426 0.0
C479 C 0.26216 0.67191 0.23971 0.0
C480 C 0.24259 0.65564 0.24826 0.0
H481 H 0.15067 0.55778 0.27364 0.0
H482 H 0.18361 0.583 0.25949 0.0
H483 H 0.21735 0.64459 0.28961 0.0
H484 H 0.31461 0.70362 0.24968 0.0
H485 H 0.28267 0.67647 0.26361 0.0
C486 C 0.54268 0.16044 0.44586 0.0
C487 C 0.55905 0.15639 0.44981 0.0
C488 C 0.54714 0.17964 0.43912 0.0
C489 C 0.59041 0.23418 0.43736 0.0
H490 H 0.55411 0.23823 0.39999 0.0
C491 C 0.61144 0.31062 0.40104 0.0
C492 C 0.59499 0.31478 0.39793 0.0
C493 C 0.60721 0.29156 0.40798 0.0
C494 C 0.56426 0.23737 0.41059 0.0
H495 H 0.59296 0.16933 0.44951 0.0
H496 H 0.60067 0.20255 0.43725 0.0
H497 H 0.54649 0.20416 0.40998 0.0
H498 H 0.56131 0.30241 0.40025 0.0
H499 H 0.554 0.26924 0.41243 0.0
H500 H 0.60827 0.26742 0.43784 0.0
C501 C 0.5844 0.191 0.43965 0.0
C502 C 0.5599 0.21784 0.41631 0.0
C503 C 0.57994 0.17182 0.44642 0.0
C504 C 0.57434 0.29969 0.40241 0.0
C505 C 0.57011 0.28062 0.40927 0.0
C506 C 0.59481 0.25371 0.43159 0.0
C507 C 0.56808 0.19524 0.43614 0.0
C508 C 0.57291 0.216 0.42979 0.0
C509 C 0.58645 0.27623 0.41189 0.0
C510 C 0.58175 0.25552 0.41817 0.0
H511 H 0.5264 0.14883 0.44813 0.0
H512 H 0.53419 0.18243 0.4367 0.0
H513 H 0.60055 0.23336 0.44801 0.0
H514 H 0.62753 0.3219 0.39774 0.0
H515 H 0.62013 0.28859 0.40974 0.0
C516 C 0.43522 0.57179 0.5954 0.0
C517 C 0.45535 0.58974 0.59612 0.0
C518 C 0.41765 0.57255 0.58885 0.0
C519 C 0.39995 0.60549 0.56526 0.0
H520 H 0.35211 0.57656 0.59734 0.0
C521 C 0.33208 0.62368 0.57226 0.0
C522 C 0.3117 0.60697 0.57533 0.0
C523 C 0.34922 0.62044 0.57092 0.0
C524 C 0.36515 0.58445 0.58801 0.0
H525 H 0.47285 0.62223 0.58904 0.0
H526 H 0.44202 0.62375 0.57843 0.0
H527 H 0.38277 0.57284 0.60185 0.0
H528 H 0.29316 0.57353 0.57791 0.0
H529 H 0.32294 0.56793 0.57541 0.0
H530 H 0.38231 0.61766 0.55191 0.0
C531 C 0.43989 0.60901 0.58273 0.0
C532 C 0.38278 0.58228 0.59057 0.0
C533 C 0.45756 0.60819 0.58908 0.0
C534 C 0.30867 0.58682 0.57584 0.0
C535 C 0.32575 0.58359 0.57446 0.0
C536 C 0.38225 0.60774 0.56276 0.0
C537 C 0.41962 0.59133 0.58312 0.0
C538 C 0.40046 0.59282 0.57931 0.0
C539 C 0.34631 0.60043 0.57259 0.0
C540 C 0.3647 0.59729 0.57418 0.0
H541 H 0.43272 0.55731 0.60081 0.0
H542 H 0.40236 0.55851 0.58894 0.0
H543 H 0.41323 0.6137 0.55625 0.0
H544 H 0.33497 0.6394 0.57173 0.0
H545 H 0.36488 0.63375 0.56956 0.0
C546 C 0.83869 0.45756 0.76557 0.0
C547 C 0.85628 0.45553 0.76996 0.0
C548 C 0.82047 0.44098 0.75733 0.0
C549 C 0.79793 0.38767 0.73555 0.0
H550 H 0.7466 0.37991 0.75772 0.0
C551 C 0.72054 0.30866 0.74028 0.0
C552 C 0.70131 0.30834 0.73809 0.0
C553 C 0.73973 0.32736 0.73975 0.0
C554 C 0.76072 0.382 0.75112 0.0
H555 H 0.86892 0.43481 0.76769 0.0
H556 H 0.83682 0.40561 0.75431 0.0
H557 H 0.77974 0.4115 0.76487 0.0
H558 H 0.68728 0.32734 0.73243 0.0
H559 H 0.72074 0.35989 0.73163 0.0
H560 H 0.77871 0.35744 0.7226 0.0
C561 C 0.83717 0.42012 0.75696 0.0
C562 C 0.77979 0.40019 0.75517 0.0
C563 C 0.85553 0.43682 0.76494 0.0
C564 C 0.70176 0.32699 0.73432 0.0
C565 C 0.72092 0.34567 0.73391 0.0
C566 C 0.77881 0.36931 0.73166 0.0
C567 C 0.81919 0.4218 0.75353 0.0
C568 C 0.79871 0.4032 0.74763 0.0
C569 C 0.74007 0.34612 0.73711 0.0
C570 C 0.76007 0.36622 0.73959 0.0
H571 H 0.83852 0.47161 0.76928 0.0
H572 H 0.80712 0.44304 0.75448 0.0
H573 H 0.81211 0.38957 0.72926 0.0
H574 H 0.72079 0.29458 0.7431 0.0
H575 H 0.75424 0.32725 0.74236 0.0
C576 C 0.41746 0.84641 0.95488 0.0
C577 C 0.43792 0.8618 0.96073 0.0
C578 C 0.41356 0.82706 0.9481 0.0
C579 C 0.43957 0.80027 0.92759 0.0
H580 H 0.38973 0.75064 0.94362 0.0
C581 C 0.42346 0.71813 0.90718 0.0
C582 C 0.40267 0.70356 0.90138 0.0
C583 C 0.42815 0.73715 0.91555 0.0
C584 C 0.40362 0.76435 0.93888 0.0
H585 H 0.47042 0.86911 0.96365 0.0
H586 H 0.46357 0.83524 0.95195 0.0
H587 H 0.39714 0.78461 0.95547 0.0
H588 H 0.37043 0.69736 0.90023 0.0
H589 H 0.37864 0.73051 0.91459 0.0
H590 H 0.44593 0.78005 0.91083 0.0
C591 C 0.45056 0.83818 0.95255 0.0
C592 C 0.40785 0.78381 0.94566 0.0
C593 C 0.45445 0.8575 0.9594 0.0
C594 C 0.38661 0.70821 0.90455 0.0
C595 C 0.3913 0.7272 0.91289 0.0
C596 C 0.4353 0.7808 0.92077 0.0
C597 C 0.43005 0.82269 0.94695 0.0
C598 C 0.4258 0.802 0.94001 0.0
C599 C 0.41215 0.74199 0.91831 0.0
C600 C 0.41721 0.76262 0.92625 0.0
H601 H 0.40436 0.84917 0.9559 0.0
H602 H 0.39763 0.81554 0.94368 0.0
H603 H 0.4534 0.814 0.92281 0.0
H604 H 0.43619 0.715 0.90501 0.0
H605 H 0.44433 0.74808 0.91981 0.0
C606 C 0.59297 0.45348 0.11841 0.0
C607 C 0.57252 0.43948 0.11134 0.0
C608 C 0.60979 0.45031 0.11458 0.0
C609 C 0.6258 0.42038 0.08332 0.0
H610 H 0.66672 0.43172 0.12328 0.0
C611 C 0.68501 0.39152 0.07936 0.0
C612 C 0.70626 0.40651 0.08324 0.0
C613 C 0.66895 0.39569 0.08352 0.0
C614 C 0.65548 0.42861 0.11197 0.0
H615 H 0.55398 0.41159 0.09406 0.0
H616 H 0.58304 0.40565 0.08797 0.0
H617 H 0.63837 0.43921 0.12834 0.0
H618 H 0.72719 0.43726 0.09537 0.0
H619 H 0.699 0.44439 0.1029 0.0
H620 H 0.64269 0.40933 0.06715 0.0
C621 C 0.58622 0.41927 0.09626 0.0
C622 C 0.63928 0.433 0.1148 0.0
C623 C 0.56944 0.42254 0.09995 0.0
C624 C 0.71099 0.4254 0.09217 0.0
C625 C 0.69487 0.42948 0.09651 0.0
C626 C 0.64183 0.41579 0.08058 0.0
C627 C 0.60657 0.43299 0.1037 0.0
C628 C 0.62419 0.42889 0.10052 0.0
C629 C 0.67374 0.41485 0.09183 0.0
C630 C 0.65679 0.41979 0.09489 0.0
H631 H 0.59594 0.46657 0.12741 0.0
H632 H 0.6253 0.4614 0.12028 0.0
H633 H 0.61475 0.41739 0.07188 0.0
H634 H 0.68079 0.37679 0.07252 0.0
H635 H 0.65277 0.38402 0.08001 0.0
C636 C 0.40389 0.85012 0.49544 0.0
C637 C 0.40468 0.86752 0.50427 0.0
C638 C 0.39353 0.83076 0.50363 0.0
C639 C 0.37412 0.80518 0.54835 0.0
H640 H 0.33649 0.75732 0.5168 0.0
C641 C 0.31568 0.72633 0.57894 0.0
C642 C 0.31233 0.70817 0.56949 0.0
C643 C 0.32759 0.74568 0.57098 0.0
C644 C 0.34716 0.77045 0.52576 0.0
H645 H 0.3956 0.87833 0.52884 0.0
H646 H 0.37739 0.84441 0.54317 0.0
H647 H 0.35637 0.79137 0.50317 0.0
H648 H 0.31895 0.69609 0.54427 0.0
H649 H 0.34006 0.72996 0.53046 0.0
H650 H 0.365 0.7843 0.57093 0.0
C651 C 0.38489 0.84582 0.52992 0.0
C652 C 0.35853 0.78997 0.51795 0.0
C653 C 0.39516 0.86519 0.52166 0.0
C654 C 0.32118 0.70978 0.55188 0.0
C655 C 0.33319 0.72919 0.54393 0.0
C656 C 0.36283 0.78564 0.55614 0.0
C657 C 0.38378 0.82835 0.52088 0.0
C658 C 0.37205 0.80757 0.52917 0.0
C659 C 0.33654 0.74738 0.5534 0.0
C660 C 0.34911 0.76805 0.54497 0.0
H661 H 0.41081 0.85132 0.48192 0.0
H662 H 0.39313 0.81765 0.49642 0.0
H663 H 0.38465 0.8184 0.55729 0.0
H664 H 0.309 0.72565 0.59249 0.0
H665 H 0.3295 0.75928 0.57852 0.0
C666 C 0.5784 0.42008 0.6602 0.0
C667 C 0.58566 0.43931 0.66961 0.0
C668 C 0.58082 0.40454 0.66835 0.0
C669 C 0.61385 0.39794 0.70345 0.0
H670 H 0.57164 0.33952 0.69778 0.0
C671 C 0.62204 0.33518 0.74137 0.0
C672 C 0.61719 0.31701 0.73105 0.0
C673 C 0.61723 0.34956 0.73413 0.0
C674 C 0.58365 0.35577 0.69931 0.0
H675 H 0.60032 0.45699 0.6953 0.0
H676 H 0.60438 0.42978 0.70963 0.0
H677 H 0.56436 0.36555 0.68526 0.0
H678 H 0.60327 0.29957 0.70508 0.0
H679 H 0.59495 0.32485 0.69236 0.0
H680 H 0.63314 0.38822 0.71744 0.0
C681 C 0.59719 0.42687 0.69578 0.0
C682 C 0.57948 0.37068 0.69218 0.0
C683 C 0.59483 0.44244 0.6876 0.0
C684 C 0.60721 0.31343 0.71337 0.0
C685 C 0.60234 0.32784 0.70613 0.0
C686 C 0.61798 0.38307 0.71061 0.0
C687 C 0.59053 0.40787 0.68611 0.0
C688 C 0.59455 0.39195 0.69416 0.0
C689 C 0.60744 0.34613 0.7164 0.0
C690 C 0.60294 0.36182 0.70863 0.0
H691 H 0.57157 0.4173 0.6462 0.0
H692 H 0.57576 0.39021 0.66042 0.0
H693 H 0.62599 0.41415 0.70488 0.0
H694 H 0.62964 0.3384 0.75507 0.0
H695 H 0.62108 0.36334 0.74251 0.0
C696 C 0.14353 0.57684 0.8493 0.0
C697 C 0.13938 0.59317 0.85187 0.0
C698 C 0.16189 0.57836 0.85684 0.0
C699 C 0.21596 0.61806 0.8696 0.0
H700 H 0.22001 0.57104 0.88623 0.0
C701 C 0.29668 0.62482 0.88209 0.0
C702 C 0.2988 0.60875 0.87375 0.0
C703 C 0.27676 0.62264 0.88415 0.0
C704 C 0.21913 0.58431 0.8816 0.0
H705 H 0.15061 0.62331 0.86547 0.0
H706 H 0.18281 0.626 0.87861 0.0
H707 H 0.18535 0.56763 0.88172 0.0
H708 H 0.28147 0.57736 0.86188 0.0
H709 H 0.24684 0.57371 0.86516 0.0
H710 H 0.24961 0.63452 0.86875 0.0
C711 C 0.17194 0.61215 0.87051 0.0
C712 C 0.19929 0.58237 0.87905 0.0
C713 C 0.15352 0.61061 0.86298 0.0
C714 C 0.28046 0.59009 0.86831 0.0
C715 C 0.26055 0.58793 0.87033 0.0
C716 C 0.23577 0.61999 0.87213 0.0
C717 C 0.17658 0.59626 0.86712 0.0
C718 C 0.19748 0.59908 0.87257 0.0
C719 C 0.25849 0.60435 0.87789 0.0
C720 C 0.23758 0.603 0.87771 0.0
H721 H 0.13318 0.56332 0.84059 0.0
H722 H 0.16511 0.56597 0.85373 0.0
H723 H 0.21514 0.63114 0.86434 0.0
H724 H 0.31045 0.63935 0.88664 0.0
H725 H 0.27569 0.63546 0.8903 0.0
C726 C 0.60369 0.15394 0.03279 0.0
C727 C 0.61389 0.14509 0.02298 0.0
C728 C 0.61541 0.17316 0.04226 0.0
C729 C 0.66938 0.21212 0.05973 0.0
H730 H 0.65282 0.25209 0.04645 0.0
C731 C 0.72813 0.2994 0.05619 0.0
C732 C 0.72141 0.31372 0.05987 0.0
C733 C 0.71402 0.27809 0.05697 0.0
C734 C 0.65747 0.24111 0.05071 0.0
H735 H 0.64451 0.14935 0.016 0.0
H736 H 0.6648 0.18257 0.03262 0.0
H737 H 0.62949 0.21552 0.0384 0.0
H738 H 0.69484 0.31681 0.06852 0.0
H739 H 0.67028 0.27958 0.07005 0.0
H740 H 0.69772 0.23785 0.07148 0.0
C741 C 0.64775 0.17458 0.03318 0.0
C742 C 0.64407 0.2201 0.04607 0.0
C743 C 0.63607 0.15547 0.02364 0.0
C744 C 0.70053 0.30623 0.06543 0.0
C745 C 0.6864 0.28488 0.06622 0.0
C746 C 0.68276 0.23314 0.06443 0.0
C747 C 0.63758 0.18388 0.04224 0.0
C748 C 0.65016 0.20546 0.05001 0.0
C749 C 0.69284 0.27055 0.0615 0.0
C750 C 0.67726 0.24796 0.05945 0.0
H751 H 0.58663 0.14621 0.03284 0.0
H752 H 0.60713 0.17983 0.04931 0.0
H753 H 0.67434 0.20115 0.06322 0.0
H754 H 0.74409 0.30457 0.05195 0.0
H755 H 0.7195 0.26754 0.05305 0.0
C756 C 0.40983 0.58287 0.17404 0.0
C757 C 0.43031 0.58677 0.17048 0.0
C758 C 0.40669 0.5981 0.18244 0.0
C759 C 0.4341 0.65065 0.2063 0.0
H760 H 0.38694 0.65324 0.18442 0.0
C761 C 0.42409 0.72327 0.20719 0.0
C762 C 0.40366 0.7198 0.21019 0.0
C763 C 0.42774 0.7066 0.20606 0.0
C764 C 0.4 0.65257 0.19087 0.0
H765 H 0.46362 0.6096 0.1743 0.0
H766 H 0.45808 0.63658 0.18781 0.0
H767 H 0.39249 0.62491 0.17541 0.0
H768 H 0.37133 0.69614 0.21554 0.0
H769 H 0.37774 0.66719 0.21335 0.0
H770 H 0.44205 0.67916 0.22103 0.0
C771 C 0.44441 0.62154 0.18443 0.0
C772 C 0.40316 0.63624 0.18578 0.0
C773 C 0.44759 0.60611 0.17636 0.0
C774 C 0.38724 0.69942 0.21306 0.0
C775 C 0.39086 0.6828 0.21177 0.0
C776 C 0.43108 0.66723 0.2112 0.0
C777 C 0.42388 0.6179 0.18712 0.0
C778 C 0.42025 0.635 0.1934 0.0
C779 C 0.411 0.68616 0.20776 0.0
C780 C 0.41398 0.66831 0.20351 0.0
H781 H 0.39603 0.56836 0.16962 0.0
H782 H 0.39065 0.59448 0.18475 0.0
H783 H 0.44729 0.65012 0.21262 0.0
H784 H 0.43713 0.73877 0.20503 0.0
H785 H 0.44341 0.7096 0.20288 0.0
C786 C 0.85145 0.45949 0.351 0.0
C787 C 0.86644 0.48083 0.35211 0.0
C788 C 0.83155 0.45196 0.35862 0.0
C789 C 0.79453 0.4697 0.36652 0.0
H790 H 0.76094 0.41682 0.38992 0.0
C791 C 0.70694 0.43875 0.3778 0.0
C792 C 0.69327 0.41765 0.37323 0.0
C793 C 0.72857 0.44658 0.38014 0.0
C794 C 0.77007 0.43157 0.3833 0.0
H795 H 0.87292 0.51069 0.36353 0.0
H796 H 0.83803 0.49756 0.3766 0.0
H797 H 0.7986 0.43031 0.38547 0.0
H798 H 0.69133 0.38797 0.36838 0.0
H799 H 0.72925 0.40175 0.37163 0.0
H800 H 0.76617 0.47065 0.36329 0.0
C801 C 0.84164 0.48673 0.36962 0.0
C802 C 0.79164 0.43932 0.38085 0.0
C803 C 0.86156 0.49424 0.36208 0.0
C804 C 0.70153 0.40431 0.37191 0.0
C805 C 0.72327 0.41223 0.37389 0.0
C806 C 0.77302 0.46189 0.36877 0.0
C807 C 0.82621 0.46563 0.36743 0.0
C808 C 0.80401 0.45834 0.37221 0.0
C809 C 0.73713 0.43358 0.37755 0.0
C810 C 0.76041 0.44259 0.37695 0.0
H811 H 0.85458 0.44874 0.34326 0.0
H812 H 0.81992 0.43565 0.35656 0.0
H813 H 0.80355 0.4842 0.35947 0.0
H814 H 0.70095 0.44933 0.37924 0.0
H815 H 0.73865 0.46298 0.38351 0.0
C816 C 0.12731 0.5402 0.41512 0.0
C817 C 0.11909 0.55225 0.40813 0.0
C818 C 0.13987 0.54641 0.43143 0.0
C819 C 0.17636 0.59198 0.45944 0.0
H820 H 0.16471 0.55325 0.499 0.0
C821 C 0.22429 0.61619 0.5296 0.0
C822 C 0.22734 0.60124 0.53843 0.0
C823 C 0.21122 0.61079 0.5136 0.0
C824 C 0.16846 0.5642 0.48798 0.0
H825 H 0.11735 0.58014 0.41334 0.0
H826 H 0.13994 0.5913 0.44149 0.0
H827 H 0.14129 0.54251 0.47154 0.0
H828 H 0.22002 0.56924 0.5369 0.0
H829 H 0.19811 0.56005 0.50866 0.0
H830 H 0.20393 0.61347 0.47547 0.0
C831 C 0.13655 0.57702 0.43421 0.0
C832 C 0.15491 0.55804 0.47231 0.0
C833 C 0.12368 0.57063 0.41804 0.0
C834 C 0.21776 0.58104 0.53055 0.0
C835 C 0.20502 0.57573 0.51442 0.0
C836 C 0.19014 0.59806 0.47499 0.0
C837 C 0.14479 0.56498 0.44101 0.0
C838 C 0.15877 0.57184 0.45789 0.0
C839 C 0.20118 0.59039 0.50593 0.0
C840 C 0.18643 0.58419 0.48944 0.0
H841 H 0.12458 0.52622 0.40773 0.0
H842 H 0.14622 0.53697 0.4363 0.0
H843 H 0.17977 0.60284 0.44839 0.0
H844 H 0.23137 0.63187 0.53544 0.0
H845 H 0.20851 0.62247 0.5076 0.0
C846 C 0.56115 0.13219 0.56892 0.0
C847 C 0.57138 0.12153 0.56291 0.0
C848 C 0.56768 0.14433 0.58543 0.0
C849 C 0.59679 0.15245 0.62995 0.0
H850 H 0.60273 0.20714 0.62978 0.0
C851 C 0.63636 0.21087 0.69162 0.0
C852 C 0.6271 0.22254 0.69741 0.0
C853 C 0.62973 0.19899 0.67498 0.0
C854 C 0.60092 0.19182 0.63013 0.0
H855 H 0.5962 0.1149 0.56972 0.0
H856 H 0.60768 0.1362 0.59858 0.0
H857 H 0.59043 0.18504 0.60148 0.0
H858 H 0.60384 0.23113 0.68998 0.0
H859 H 0.59206 0.21014 0.66101 0.0
H860 H 0.60711 0.1591 0.65861 0.0
C861 C 0.59455 0.13508 0.59052 0.0
C862 C 0.59388 0.17916 0.61391 0.0
C863 C 0.58808 0.12302 0.57394 0.0
C864 C 0.61135 0.22238 0.68592 0.0
C865 C 0.60465 0.2104 0.66927 0.0
C866 C 0.60374 0.16506 0.64619 0.0
C867 C 0.58453 0.14602 0.59635 0.0
C868 C 0.5918 0.15937 0.61364 0.0
C869 C 0.6136 0.19837 0.66373 0.0
C870 C 0.60597 0.18493 0.64646 0.0
H871 H 0.54841 0.13158 0.56062 0.0
H872 H 0.55951 0.15239 0.58965 0.0
H873 H 0.59505 0.13716 0.63026 0.0
H874 H 0.64867 0.21075 0.70001 0.0
H875 H 0.63729 0.19028 0.67095 0.0
C876 C 0.48354 0.58209 0.73233 0.0
C877 C 0.47485 0.58115 0.71451 0.0
C878 C 0.47402 0.58434 0.74833 0.0
C879 C 0.42437 0.58138 0.7645 0.0
H880 H 0.46092 0.61855 0.80437 0.0
C881 C 0.42119 0.63587 0.82795 0.0
C882 C 0.40048 0.62282 0.83376 0.0
C883 C 0.43049 0.62852 0.81536 0.0
C884 C 0.45046 0.60823 0.79332 0.0
H885 H 0.44954 0.58196 0.69939 0.0
H886 H 0.43329 0.58644 0.72707 0.0
H887 H 0.47621 0.61001 0.77817 0.0
H888 H 0.37372 0.59148 0.83164 0.0
H889 H 0.39018 0.57839 0.81035 0.0
H890 H 0.39878 0.58069 0.77892 0.0
C891 C 0.44702 0.58477 0.7289 0.0
C892 C 0.45923 0.60305 0.7784 0.0
C893 C 0.45638 0.58227 0.71298 0.0
C894 C 0.38961 0.602 0.82734 0.0
C895 C 0.39903 0.59454 0.81498 0.0
C896 C 0.41565 0.58678 0.77926 0.0
C897 C 0.45576 0.58596 0.7468 0.0
C898 C 0.44632 0.58985 0.76361 0.0
C899 C 0.41943 0.60782 0.80848 0.0
C900 C 0.4286 0.60056 0.79373 0.0
H901 H 0.49771 0.58112 0.73389 0.0
H902 H 0.48101 0.58488 0.76188 0.0
H903 H 0.41387 0.57083 0.75358 0.0
H904 H 0.42997 0.65203 0.83258 0.0
H905 H 0.44607 0.63935 0.8105 0.0
C906 C 0.8876 0.50796 0.90598 0.0
C907 C 0.89102 0.49502 0.89374 0.0
C908 C 0.87841 0.50087 0.92324 0.0
C909 C 0.86523 0.45984 0.95756 0.0
H910 H 0.81906 0.46904 0.96916 0.0
C911 C 0.79941 0.40931 0.00782 0.0
C912 C 0.79028 0.41852 0.01862 0.0
C913 C 0.81484 0.42089 0.99497 0.0
C914 C 0.83217 0.46665 0.96638 0.0
H915 H 0.88783 0.46461 0.89022 0.0
H916 H 0.87183 0.45225 0.92032 0.0
H917 H 0.84048 0.48531 0.94225 0.0
H918 H 0.79092 0.44736 0.02511 0.0
H919 H 0.8181 0.46768 0.00284 0.0
H920 H 0.85656 0.44078 0.9815 0.0
C921 C 0.8765 0.46798 0.91668 0.0
C922 C 0.84445 0.47598 0.95092 0.0
C923 C 0.88566 0.47507 0.89941 0.0
C924 C 0.79755 0.43978 0.01688 0.0
C925 C 0.81304 0.45139 0.00406 0.0
C926 C 0.85296 0.45054 0.97307 0.0
C927 C 0.87247 0.48069 0.92866 0.0
C928 C 0.86087 0.47239 0.94614 0.0
C929 C 0.82153 0.44197 0.99267 0.0
C930 C 0.83605 0.45355 0.97747 0.0
H931 H 0.89189 0.52355 0.90216 0.0
H932 H 0.87578 0.51112 0.93229 0.0
H933 H 0.87798 0.45703 0.95437 0.0
H934 H 0.79408 0.39293 0.00874 0.0
H935 H 0.82084 0.41307 0.98627 0.0
C936 C 0.44394 0.91347 0.07977 0.0
C937 C 0.43154 0.92032 0.07078 0.0
C938 C 0.43837 0.90429 0.09707 0.0
C939 C 0.39153 0.87331 0.12387 0.0
H940 H 0.43278 0.87682 0.16038 0.0
C941 C 0.36861 0.81351 0.18147 0.0
C942 C 0.38138 0.80445 0.18202 0.0
C943 C 0.37502 0.83179 0.17189 0.0
C944 C 0.42107 0.87576 0.15036 0.0
H945 H 0.40411 0.92388 0.07345 0.0
H946 H 0.39419 0.90752 0.10376 0.0
H947 H 0.44372 0.90265 0.13625 0.0
H948 H 0.41119 0.80784 0.17349 0.0
H949 H 0.42235 0.83963 0.15686 0.0
H950 H 0.36907 0.84593 0.13748 0.0
C951 C 0.40819 0.9092 0.09725 0.0
C952 C 0.42731 0.89053 0.13657 0.0
C953 C 0.41383 0.9185 0.07989 0.0
C954 C 0.40103 0.81444 0.17343 0.0
C955 C 0.40749 0.83276 0.16398 0.0
C956 C 0.38527 0.85859 0.13771 0.0
C957 C 0.4202 0.90163 0.10584 0.0
C958 C 0.41279 0.88896 0.12273 0.0
C959 C 0.39438 0.84142 0.16281 0.0
C960 C 0.40015 0.85921 0.15064 0.0
H961 H 0.45742 0.9142 0.07303 0.0
H962 H 0.44772 0.89824 0.10308 0.0
H963 H 0.37999 0.87155 0.11333 0.0
H964 H 0.35341 0.80622 0.18802 0.0
H965 H 0.36466 0.83819 0.17129 0.0
C966 C 0.52808 0.44819 0.23185 0.0
C967 C 0.51263 0.43356 0.21923 0.0
C968 C 0.53283 0.44191 0.24856 0.0
C969 C 0.52888 0.39466 0.2682 0.0
H970 H 0.55482 0.43106 0.31182 0.0
C971 C 0.56306 0.37204 0.33029 0.0
C972 C 0.58451 0.38646 0.33402 0.0
C973 C 0.55084 0.37727 0.31904 0.0
C974 C 0.54746 0.4207 0.29976 0.0
H975 H 0.48897 0.40091 0.2152 0.0
H976 H 0.49624 0.39031 0.24473 0.0
H977 H 0.53832 0.44093 0.2874 0.0
H978 H 0.60969 0.41788 0.32928 0.0
H979 H 0.58826 0.42707 0.31007 0.0
H980 H 0.53809 0.3745 0.28062 0.0
C981 C 0.50536 0.40654 0.24137 0.0
C982 C 0.53813 0.42638 0.28571 0.0
C983 C 0.50092 0.41274 0.22449 0.0
C984 C 0.59325 0.40643 0.32683 0.0
C985 C 0.58095 0.41176 0.31587 0.0
C986 C 0.53786 0.38885 0.28238 0.0
C987 C 0.52195 0.42088 0.25328 0.0
C988 C 0.52921 0.41369 0.26949 0.0
C989 C 0.55975 0.39711 0.3116 0.0
C990 C 0.54769 0.40205 0.29805 0.0
H991 H 0.53707 0.46445 0.22857 0.0
H992 H 0.54577 0.45346 0.25727 0.0
H993 H 0.52261 0.38462 0.25584 0.0
H994 H 0.55585 0.35652 0.33561 0.0
H995 H 0.53451 0.36571 0.31592 0.0
C996 C 0.44342 0.90349 0.37502 0.0
C997 C 0.42772 0.89704 0.38849 0.0
C998 C 0.44062 0.89082 0.3593 0.0
C999 C 0.39939 0.8479 0.3302 0.0
H1000 H 0.44518 0.84022 0.31367 0.0
C1001 C 0.38722 0.79009 0.27004 0.0
C1002 C 0.40319 0.79698 0.25681 0.0
C1003 C 0.39051 0.80125 0.2869 0.0
C1004 C 0.43229 0.84235 0.318 0.0
H1005 H 0.39698 0.87193 0.39615 0.0
H1006 H 0.39202 0.85007 0.36865 0.0
H1007 H 0.45044 0.86242 0.34114 0.0
H1008 H 0.43541 0.82073 0.25124 0.0
H1009 H 0.44096 0.84025 0.28039 0.0
H1010 H 0.38133 0.82816 0.30697 0.0
C1011 C 0.40636 0.86504 0.37012 0.0
C1012 C 0.43532 0.85507 0.33373 0.0
C1013 C 0.40919 0.87763 0.38586 0.0
C1014 C 0.42274 0.81491 0.26109 0.0
C1015 C 0.42598 0.82609 0.27789 0.0
C1016 C 0.39639 0.83527 0.31444 0.0
C1017 C 0.42204 0.87147 0.35668 0.0
C1018 C 0.41891 0.85801 0.33997 0.0
C1019 C 0.40981 0.81958 0.29088 0.0
C1020 C 0.41282 0.83237 0.30811 0.0
H1021 H 0.45778 0.91842 0.37652 0.0
H1022 H 0.45288 0.89629 0.34904 0.0
H1023 H 0.38653 0.85008 0.33454 0.0
H1024 H 0.37202 0.77629 0.26726 0.0
H1025 H 0.37785 0.7956 0.29675 0.0
C1026 C 0.60528 0.48565 0.5389 0.0
C1027 C 0.59082 0.47273 0.552 0.0
C1028 C 0.60729 0.47739 0.52191 0.0
C1029 C 0.58092 0.43104 0.48985 0.0
H1030 H 0.6374 0.45435 0.47079 0.0
C1031 C 0.60275 0.39871 0.42409 0.0
C1032 C 0.61492 0.41394 0.41123 0.0
C1033 C 0.59894 0.40448 0.44172 0.0
C1034 C 0.62154 0.44772 0.47594 0.0
H1035 H 0.56694 0.44108 0.5576 0.0
H1036 H 0.57071 0.4265 0.528 0.0
H1037 H 0.63224 0.4671 0.50067 0.0
H1038 H 0.63262 0.44713 0.40683 0.0
H1039 H 0.62619 0.45705 0.4375 0.0
H1040 H 0.57041 0.41148 0.46501 0.0
C1041 C 0.58024 0.44309 0.53069 0.0
C1042 C 0.61854 0.4551 0.493 0.0
C1043 C 0.57808 0.45141 0.54764 0.0
C1044 C 0.62314 0.43498 0.41635 0.0
C1045 C 0.61958 0.4407 0.43397 0.0
C1046 C 0.58398 0.42349 0.47282 0.0
C1047 C 0.59506 0.45596 0.51771 0.0
C1048 C 0.59816 0.44716 0.50001 0.0
C1049 C 0.60754 0.42556 0.44685 0.0
C1050 C 0.60428 0.43205 0.46558 0.0
H1051 H 0.61506 0.50219 0.54182 0.0
H1052 H 0.61848 0.48786 0.51206 0.0
H1053 H 0.565 0.42467 0.49477 0.0
H1054 H 0.59614 0.38238 0.42054 0.0
H1055 H 0.58962 0.39253 0.45147 0.0
C1056 C 0.11748 0.60299 0.72049 0.0
C1057 C 0.10568 0.5841 0.72957 0.0
C1058 C 0.12818 0.60395 0.70424 0.0
C1059 C 0.15554 0.58104 0.68228 0.0
H1060 H 0.15507 0.61113 0.63897 0.0
C1061 C 0.21532 0.59994 0.62375 0.0
C1062 C 0.22435 0.62007 0.61688 0.0
C1063 C 0.19753 0.59212 0.63488 0.0
C1064 C 0.15551 0.6028 0.651 0.0
H1065 H 0.09534 0.55119 0.72802 0.0
H1066 H 0.11496 0.55321 0.70003 0.0
H1067 H 0.1296 0.60378 0.66345 0.0
H1068 H 0.22162 0.64767 0.61608 0.0
H1069 H 0.19128 0.63444 0.63593 0.0
H1070 H 0.18223 0.58115 0.67061 0.0
C1071 C 0.11565 0.56716 0.70558 0.0
C1072 C 0.14082 0.59848 0.66492 0.0
C1073 C 0.10457 0.5661 0.72168 0.0
C1074 C 0.215 0.63205 0.62107 0.0
C1075 C 0.19742 0.62436 0.63235 0.0
C1076 C 0.17046 0.58564 0.6685 0.0
C1077 C 0.12767 0.58615 0.69684 0.0
C1078 C 0.14102 0.58797 0.68086 0.0
C1079 C 0.18856 0.60436 0.63957 0.0
C1080 C 0.17097 0.59704 0.65291 0.0
H1081 H 0.1192 0.6173 0.72627 0.0
H1082 H 0.13763 0.61884 0.69792 0.0
H1083 H 0.15612 0.57309 0.69455 0.0
H1084 H 0.22211 0.59029 0.62079 0.0
H1085 H 0.19097 0.57655 0.63996 0.0
C1086 C 0.58417 0.11192 0.88369 0.0
C1087 C 0.57102 0.11087 0.89827 0.0
C1088 C 0.58493 0.12205 0.8673 0.0
C1089 C 0.5731 0.16158 0.84983 0.0
H1090 H 0.58759 0.1468 0.80229 0.0
C1091 C 0.58392 0.20847 0.78403 0.0
C1092 C 0.60414 0.21649 0.77667 0.0
C1093 C 0.57649 0.19253 0.79679 0.0
C1094 C 0.58342 0.15098 0.81548 0.0
H1095 H 0.54778 0.11917 0.90658 0.0
H1096 H 0.54817 0.13563 0.87767 0.0
H1097 H 0.58004 0.12409 0.82869 0.0
H1098 H 0.63185 0.21322 0.77603 0.0
H1099 H 0.61869 0.18513 0.79802 0.0
H1100 H 0.57637 0.1884 0.83649 0.0
C1101 C 0.55846 0.12924 0.87913 0.0
C1102 C 0.57925 0.13811 0.83065 0.0
C1103 C 0.55798 0.11945 0.89566 0.0
C1104 C 0.61628 0.20748 0.7815 0.0
C1105 C 0.6087 0.1913 0.79401 0.0
C1106 C 0.57688 0.17422 0.83459 0.0
C1107 C 0.57229 0.1311 0.86489 0.0
C1108 C 0.5745 0.14348 0.84816 0.0
C1109 C 0.58899 0.18408 0.80212 0.0
C1110 C 0.58249 0.16926 0.81741 0.0
H1111 H 0.59411 0.10512 0.88498 0.0
H1112 H 0.59597 0.12332 0.85679 0.0
H1113 H 0.56992 0.16653 0.86311 0.0
H1114 H 0.57418 0.2151 0.78058 0.0
H1115 H 0.56119 0.18714 0.80284 0.0
C1116 C 0.40205 0.53933 0.03622 0.0
C1117 C 0.41758 0.55377 0.04884 0.0
C1118 C 0.39725 0.54588 0.01971 0.0
C1119 C 0.41783 0.58979 0.98757 0.0
H1120 H 0.35921 0.56315 0.97092 0.0
C1121 C 0.38899 0.61779 0.92478 0.0
C1122 C 0.3749 0.60211 0.91207 0.0
C1123 C 0.39442 0.61268 0.94184 0.0
C1124 C 0.37566 0.57065 0.97534 0.0
H1125 H 0.44027 0.58638 0.05408 0.0
H1126 H 0.43173 0.5979 0.02533 0.0
H1127 H 0.36844 0.55277 -0.0001 0.0
H1128 H 0.35537 0.56874 0.90745 0.0
H1129 H 0.36479 0.55994 0.93714 0.0
H1130 H 0.42494 0.60776 0.96296 0.0
C1131 C 0.4235 0.58146 0.02803 0.0
C1132 C 0.38098 0.56466 0.99191 0.0
C1133 C 0.4284 0.57488 0.04451 0.0
C1134 C 0.36627 0.58124 0.91687 0.0
C1135 C 0.37156 0.57617 0.93395 0.0
C1136 C 0.41248 0.59588 0.97102 0.0
C1137 C 0.40777 0.56705 0.01549 0.0
C1138 C 0.40215 0.57399 -0.00186 0.0
C1139 C 0.3857 0.59181 0.94661 0.0
C1140 C 0.39136 0.5862 0.96464 0.0
H1141 H 0.39369 0.52292 0.03906 0.0
H1142 H 0.38537 0.5343 0.01019 0.0
H1143 H 0.43431 0.59715 0.99184 0.0
H1144 H 0.39595 0.63402 0.92151 0.0
H1145 H 0.40526 0.62507 0.9514 0.0
C1146 C 0.87022 0.4587 0.23402 0.0
C1147 C 0.89207 0.47225 0.23324 0.0
C1148 C 0.858 0.45041 0.2176 0.0
C1149 C 0.85982 0.4577 0.16603 0.0
H1150 H 0.81077 0.40227 0.16539 0.0
C1151 C 0.8172 0.40995 0.0987 0.0
C1152 C 0.7953 0.40206 0.09751 0.0
C1153 C 0.82847 0.41896 0.1154 0.0
C1154 C 0.82434 0.41783 0.16546 0.0
H1155 H 0.91845 0.48753 0.21488 0.0
H1156 H 0.89741 0.47234 0.18618 0.0
H1157 H 0.83192 0.4167 0.19413 0.0
H1158 H 0.76803 0.39722 0.11294 0.0
H1159 H 0.7878 0.41246 0.14245 0.0
H1160 H 0.85259 0.45823 0.13701 0.0
C1161 C 0.88943 0.46861 0.19936 0.0
C1162 C 0.83645 0.42619 0.18194 0.0
C1163 C 0.90157 0.47721 0.21579 0.0
C1164 C 0.78489 0.40321 0.11344 0.0
C1165 C 0.79614 0.41184 0.1303 0.0
C1166 C 0.84795 0.44915 0.14948 0.0
C1167 C 0.86743 0.45519 0.20001 0.0
C1168 C 0.85439 0.44627 0.18247 0.0
C1169 C 0.81805 0.41989 0.13136 0.0
C1170 C 0.83013 0.42915 0.14906 0.0
H1171 H 0.86251 0.45486 0.24734 0.0
H1172 H 0.84111 0.44054 0.21876 0.0
H1173 H 0.87316 0.47335 0.1659 0.0
H1174 H 0.8257 0.40941 0.08664 0.0
H1175 H 0.84534 0.42496 0.11593 0.0
loop_
_geom_bond_atom_site_label_1
_geom_bond_atom_site_label_2
_geom_bond_distance
_geom_bond_site_symmetry_2
_ccdc_geom_bond_type
H0 C27 0.929 . S
N1 C26 1.433 . S
N1 C32 1.435 . S
N1 C38 1.423 . S
H2 C28 0.930 . S
H3 C31 0.931 . S
H4 C30 0.929 . S
H5 C33 0.930 . S
H6 C34 0.932 . S
H7 C37 0.929 . S
H8 C36 0.931 . S
H9 C39 0.929 . S
H10 C43 0.932 . S
H11 C40 0.931 . S
H12 C42 0.929 . S
H13 C45 0.929 . S
H14 C46 0.930 . S
H15 C48 0.929 . S
H16 C49 0.931 . S
H17 C51 0.930 . S
H18 C52 0.932 . S
H19 C54 0.931 . S
H20 C55 0.929 . S
H21 C57 0.929 . S
H22 C58 0.931 . S
H23 C60 0.929 . S
N24 C44 1.433 . S
N24 C50 1.435 . S
N24 C56 1.423 . S
H25 C61 0.932 . S
C26 N1 1.433 . S
C26 C27 1.363 . S
C26 C31 1.370 . S
C27 H0 0.929 . S
C27 C26 1.363 . S
C27 C28 1.385 . S
C28 H2 0.930 . S
C28 C27 1.385 . S
C28 C29 1.357 . S
C29 C28 1.357 . S
C29 C30 1.406 . S
C30 H4 0.929 . S
C30 C29 1.406 . S
C30 C31 1.391 . S
C31 H3 0.931 . S
C31 C26 1.370 . S
C31 C30 1.391 . S
C32 N1 1.435 . S
C32 C33 1.358 . S
C32 C37 1.371 . S
C33 H5 0.930 . S
C33 C32 1.358 . S
C33 C34 1.405 . S
C34 H6 0.932 . S
C34 C33 1.405 . S
C34 C35 1.383 . S
C35 C34 1.383 . S
C35 C36 1.393 . S
C36 H8 0.931 . S
C36 C35 1.393 . S
C36 C37 1.382 . S
C37 H7 0.929 . S
C37 C32 1.371 . S
C37 C36 1.382 . S
C38 N1 1.423 . S
C38 C39 1.362 . S
C38 C43 1.388 . S
C39 H9 0.929 . S
C39 C38 1.362 . S
C39 C40 1.376 . S
C40 H11 0.931 . S
C40 C39 1.376 . S
C40 C41 1.396 . S
C41 C40 1.396 . S
C41 C42 1.348 . S
C41 C59 1.472 1_455 S
C42 H12 0.929 . S
C42 C41 1.348 . S
C42 C43 1.443 . S
C43 H10 0.932 . S
C43 C38 1.388 . S
C43 C42 1.443 . S
C44 N24 1.433 . S
C44 C45 1.363 . S
C44 C49 1.370 . S
C45 H13 0.929 . S
C45 C44 1.363 . S
C45 C46 1.385 . S
C46 H14 0.930 . S
C46 C45 1.385 . S
C46 C47 1.357 . S
C47 C46 1.357 . S
C47 C48 1.406 . S
C48 H15 0.929 . S
C48 C47 1.406 . S
C48 C49 1.391 . S
C49 H16 0.931 . S
C49 C44 1.370 . S
C49 C48 1.391 . S
C50 N24 1.435 . S
C50 C51 1.358 . S
C50 C55 1.371 . S
C51 H17 0.930 . S
C51 C50 1.358 . S
C51 C52 1.405 . S
C52 H18 0.932 . S
C52 C51 1.405 . S
C52 C53 1.383 . S
C53 C52 1.383 . S
C53 C54 1.393 . S
C54 H19 0.931 . S
C54 C53 1.393 . S
C54 C55 1.382 . S
C55 H20 0.929 . S
C55 C50 1.371 . S
C55 C54 1.382 . S
C56 N24 1.423 . S
C56 C57 1.362 . S
C56 C61 1.388 . S
C57 H21 0.929 . S
C57 C56 1.362 . S
C57 C58 1.376 . S
C58 H22 0.931 . S
C58 C57 1.376 . S
C58 C59 1.396 . S
C59 C41 1.472 1_655 S
C59 C58 1.396 . S
C59 C60 1.348 . S
C60 H23 0.929 . S
C60 C59 1.348 . S
C60 C61 1.443 . S
C61 H25 0.932 . S
C61 C56 1.388 . S
C61 C60 1.443 . S
H62 C89 0.929 . S
N63 C88 1.433 . S
N63 C94 1.435 . S
N63 C100 1.423 . S
H64 C90 0.930 . S
H65 C93 0.931 . S
H66 C92 0.929 . S
H67 C95 0.930 . S
H68 C96 0.932 . S
H69 C99 0.929 . S
H70 C98 0.931 . S
H71 C101 0.929 . S
H72 C105 0.932 . S
H73 C102 0.931 . S
H74 C104 0.923 1_545 S
H75 C107 0.929 . S
H76 C108 0.930 . S
H77 C110 0.929 . S
H78 C111 0.931 . S
H79 C113 0.930 . S
H80 C114 0.932 . S
H81 C116 0.931 . S
H82 C117 0.929 . S
H83 C119 0.929 . S
H84 C120 0.931 . S
H85 C122 0.929 . S
N86 C106 1.433 . S
N86 C112 1.435 . S
N86 C118 1.423 . S
H87 C123 0.932 . S
C88 N63 1.433 . S
C88 C89 1.363 . S
C88 C93 1.370 . S
C89 H62 0.929 . S
C89 C88 1.363 . S
C89 C90 1.385 . S
C90 H64 0.930 . S
C90 C89 1.385 . S
C90 C91 1.357 . S
C91 C90 1.357 . S
C91 C92 1.406 . S
C92 H66 0.929 . S
C92 C91 1.406 . S
C92 C93 1.391 . S
C93 H65 0.931 . S
C93 C88 1.370 . S
C93 C92 1.391 . S
C94 N63 1.435 . S
C94 C95 1.358 . S
C94 C99 1.371 . S
C95 H67 0.930 . S
C95 C94 1.358 . S
C95 C96 1.405 . S
C96 H68 0.932 . S
C96 C95 1.405 . S
C96 C97 1.383 . S
C97 C96 1.383 . S
C97 C98 1.393 . S
C98 H70 0.931 . S
C98 C97 1.393 . S
C98 C99 1.382 . S
C99 H69 0.929 . S
C99 C94 1.371 . S
C99 C98 1.382 . S
C100 N63 1.423 . S
C100 C101 1.362 . S
C100 C105 1.388 . S
C101 H71 0.929 . S
C101 C100 1.362 . S
C101 C102 1.376 . S
C102 H73 0.931 . S
C102 C101 1.376 . S
C102 C103 1.396 1_565 S
C103 C102 1.396 1_545 S
C103 C104 1.348 1_545 S
C103 C121 1.472 . S
C104 H74 0.923 1_565 S
C104 C103 1.348 1_565 S
C104 C105 1.449 . S
C105 H72 0.932 . S
C105 C100 1.388 . S
C105 C104 1.449 . S
C106 N86 1.433 . S
C106 C107 1.363 . S
C106 C111 1.370 . S
C107 H75 0.929 . S
C107 C106 1.363 . S
C107 C108 1.385 . S
C108 H76 0.930 . S
C108 C107 1.385 . S
C108 C109 1.357 . S
C109 C108 1.357 . S
C109 C110 1.406 . S
C110 H77 0.929 . S
C110 C109 1.406 . S
C110 C111 1.391 . S
C111 H78 0.931 . S
C111 C106 1.370 . S
C111 C110 1.391 . S
C112 N86 1.435 . S
C112 C113 1.358 . S
C112 C117 1.371 . S
C113 H79 0.930 . S
C113 C112 1.358 . S
C113 C114 1.405 . S
C114 H80 0.932 . S
C114 C113 1.405 . S
C114 C115 1.383 . S
C115 C114 1.383 . S
C115 C116 1.393 . S
C116 H81 0.931 . S
C116 C115 1.393 . S
C116 C117 1.382 . S
C117 H82 0.929 . S
C117 C112 1.371 . S
C117 C116 1.382 . S
C118 N86 1.423 . S
C118 C119 1.362 . S
C118 C123 1.388 . S
C119 H83 0.929 . S
C119 C118 1.362 . S
C119 C120 1.376 . S
C120 H84 0.931 . S
C120 C119 1.376 . S
C120 C121 1.396 . S
C121 C103 1.472 . S
C121 C120 1.396 . S
C121 C122 1.348 . S
C122 H85 0.929 . S
C122 C121 1.348 . S
C122 C123 1.443 . S
C123 H87 0.932 . S
C123 C118 1.388 . S
C123 C122 1.443 . S
H124 C151 0.929 . S
N125 C150 1.433 . S
N125 C156 1.435 . S
N125 C162 1.423 . S
H126 C152 0.930 . S
H127 C155 0.931 . S
H128 C154 0.929 . S
H129 C157 0.930 . S
H130 C158 0.932 . S
H131 C161 0.929 . S
H132 C160 0.931 . S
H133 C163 0.929 . S
H134 C167 0.932 . S
H135 C164 0.931 . S
H136 C166 0.929 . S
H137 C169 0.929 . S
H138 C170 0.930 . S
H139 C172 0.929 . S
H140 C173 0.931 . S
H141 C175 0.930 . S
H142 C176 0.932 . S
H143 C178 0.931 . S
H144 C179 0.929 . S
H145 C181 0.929 . S
H146 C182 0.931 . S
H147 C184 0.929 . S
N148 C168 1.433 . S
N148 C174 1.435 . S
N148 C180 1.423 . S
H149 C185 0.932 . S
C150 N125 1.433 . S
C150 C151 1.363 . S
C150 C155 1.370 . S
C151 H124 0.929 . S
C151 C150 1.363 . S
C151 C152 1.385 . S
C152 H126 0.930 . S
C152 C151 1.385 . S
C152 C153 1.357 . S
C153 C152 1.357 . S
C153 C154 1.406 . S
C154 H128 0.929 . S
C154 C153 1.406 . S
C154 C155 1.391 . S
C155 H127 0.931 . S
C155 C150 1.370 . S
C155 C154 1.391 . S
C156 N125 1.435 . S
C156 C157 1.358 . S
C156 C161 1.371 . S
C157 H129 0.930 . S
C157 C156 1.358 . S
C157 C158 1.405 . S
C158 H130 0.932 . S
C158 C157 1.405 . S
C158 C159 1.383 . S
C159 C158 1.383 . S
C159 C160 1.393 . S
C160 H132 0.931 . S
C160 C159 1.393 . S
C160 C161 1.382 . S
C161 H131 0.929 . S
C161 C156 1.371 . S
C161 C160 1.382 . S
C162 N125 1.423 . S
C162 C163 1.362 . S
C162 C167 1.388 . S
C163 H133 0.929 . S
C163 C162 1.362 . S
C163 C164 1.376 . S
C164 H135 0.931 . S
C164 C163 1.376 . S
C164 C165 1.396 . S
C165 C164 1.396 . S
C165 C166 1.348 . S
C165 C183 1.472 . S
C166 H136 0.929 . S
C166 C165 1.348 . S
C166 C167 1.443 . S
C167 H134 0.932 . S
C167 C162 1.388 . S
C167 C166 1.443 . S
C168 N148 1.433 . S
C168 C169 1.363 . S
C168 C173 1.370 . S
C169 H137 0.929 . S
C169 C168 1.363 . S
C169 C170 1.385 . S
C170 H138 0.930 . S
C170 C169 1.385 . S
C170 C171 1.357 . S
C171 C170 1.357 . S
C171 C172 1.406 . S
C172 H139 0.929 . S
C172 C171 1.406 . S
C172 C173 1.391 . S
C173 H140 0.931 . S
C173 C168 1.370 . S
C173 C172 1.391 . S
C174 N148 1.435 . S
C174 C175 1.358 . S
C174 C179 1.371 . S
C175 H141 0.930 . S
C175 C174 1.358 . S
C175 C176 1.405 . S
C176 H142 0.932 . S
C176 C175 1.405 . S
C176 C177 1.383 . S
C177 C176 1.383 . S
C177 C178 1.393 . S
C178 H143 0.931 . S
C178 C177 1.393 . S
C178 C179 1.382 . S
C179 H144 0.929 . S
C179 C174 1.371 . S
C179 C178 1.382 . S
C180 N148 1.423 . S
C180 C181 1.362 . S
C180 C185 1.388 . S
C181 H145 0.929 . S
C181 C180 1.362 . S
C181 C182 1.376 . S
C182 H146 0.931 . S
C182 C181 1.376 . S
C182 C183 1.396 . S
C183 C165 1.472 . S
C183 C182 1.396 . S
C183 C184 1.348 . S
C184 H147 0.929 . S
C184 C183 1.348 . S
C184 C185 1.443 . S
C185 H149 0.932 . S
C185 C180 1.388 . S
C185 C184 1.443 . S
H186 C213 0.929 . S
N187 C212 1.433 . S
N187 C218 1.435 . S
N187 C224 1.423 . S
H188 C214 0.930 . S
H189 C217 0.931 . S
H190 C216 0.929 . S
H191 C219 0.930 . S
H192 C220 0.932 . S
H193 C223 0.929 . S
H194 C222 0.931 . S
H195 C225 0.929 . S
H196 C229 0.932 . S
H197 C226 0.931 . S
H198 C228 0.929 . S
H199 C231 0.929 . S
H200 C232 0.930 . S
H201 C234 0.929 . S
H202 C235 0.931 . S
H203 C237 0.930 . S
H204 C238 0.932 . S
H205 C240 0.931 . S
H206 C241 0.929 . S
H207 C243 0.929 . S
H208 C244 0.931 . S
H209 C246 0.929 . S
N210 C230 1.433 . S
N210 C236 1.435 . S
N210 C242 1.423 . S
H211 C247 0.932 . S
C212 N187 1.433 . S
C212 C213 1.363 . S
C212 C217 1.370 . S
C213 H186 0.929 . S
C213 C212 1.363 . S
C213 C214 1.385 . S
C214 H188 0.930 . S
C214 C213 1.385 . S
C214 C215 1.357 . S
C215 C214 1.357 . S
C215 C216 1.406 . S
C216 H190 0.929 . S
C216 C215 1.406 . S
C216 C217 1.391 . S
C217 H189 0.931 . S
C217 C212 1.370 . S
C217 C216 1.391 . S
C218 N187 1.435 . S
C218 C219 1.358 . S
C218 C223 1.371 . S
C219 H191 0.930 . S
C219 C218 1.358 . S
C219 C220 1.405 . S
C220 H192 0.932 . S
C220 C219 1.405 . S
C220 C221 1.383 . S
C221 C220 1.383 . S
C221 C222 1.393 . S
C222 H194 0.931 . S
C222 C221 1.393 . S
C222 C223 1.382 . S
C223 H193 0.929 . S
C223 C218 1.371 . S
C223 C222 1.382 . S
C224 N187 1.423 . S
C224 C225 1.362 . S
C224 C229 1.388 . S
C225 H195 0.929 . S
C225 C224 1.362 . S
C225 C226 1.376 . S
C226 H197 0.931 . S
C226 C225 1.376 . S
C226 C227 1.396 . S
C227 C226 1.396 . S
C227 C228 1.348 . S
C227 C245 1.472 1_455 S
C228 H198 0.929 . S
C228 C227 1.348 . S
C228 C229 1.443 . S
C229 H196 0.932 . S
C229 C224 1.388 . S
C229 C228 1.443 . S
C230 N210 1.433 . S
C230 C231 1.363 . S
C230 C235 1.370 . S
C231 H199 0.929 . S
C231 C230 1.363 . S
C231 C232 1.385 . S
C232 H200 0.930 . S
C232 C231 1.385 . S
C232 C233 1.357 . S
C233 C232 1.357 . S
C233 C234 1.406 . S
C234 H201 0.929 . S
C234 C233 1.406 . S
C234 C235 1.391 . S
C235 H202 0.931 . S
C235 C230 1.370 . S
C235 C234 1.391 . S
C236 N210 1.435 . S
C236 C237 1.358 . S
C236 C241 1.371 . S
C237 H203 0.930 . S
C237 C236 1.358 . S
C237 C238 1.405 . S
C238 H204 0.932 . S
C238 C237 1.405 . S
C238 C239 1.383 . S
C239 C238 1.383 . S
C239 C240 1.393 . S
C240 H205 0.931 . S
C240 C239 1.393 . S
C240 C241 1.382 . S
C241 H206 0.929 . S
C241 C236 1.371 . S
C241 C240 1.382 . S
C242 N210 1.423 . S
C242 C243 1.362 . S
C242 C247 1.388 . S
C243 H207 0.929 . S
C243 C242 1.362 . S
C243 C244 1.376 . S
C244 H208 0.931 . S
C244 C243 1.376 . S
C244 C245 1.396 . S
C245 C227 1.472 1_655 S
C245 C244 1.396 . S
C245 C246 1.348 . S
C246 H209 0.929 . S
C246 C245 1.348 . S
C246 C247 1.443 . S
C247 H211 0.932 . S
C247 C242 1.388 . S
C247 C246 1.443 . S
H248 C275 0.929 . S
N249 C274 1.433 . S
N249 C280 1.435 . S
N249 C286 1.423 . S
H250 C276 0.930 . S
H251 C279 0.931 . S
H252 C278 0.929 . S
H253 C281 0.930 . S
H254 C282 0.932 . S
H255 C285 0.929 . S
H256 C284 0.931 . S
H257 C287 0.929 . S
H258 C291 0.932 . S
H259 C288 0.931 . S
H260 C290 0.929 . S
H261 C293 0.929 . S
H262 C294 0.930 . S
H263 C296 0.929 . S
H264 C297 0.931 . S
H265 C299 0.930 1_554 S
H266 C300 0.932 . S
H267 C302 0.931 . S
H268 C303 0.929 . S
H269 C305 0.968 . S
H270 C306 0.955 1_545 S
H271 C308 0.929 . S
N272 C292 1.452 . S
N272 C298 1.424 1_554 S
N272 C304 1.416 1_554 S
H273 C309 0.932 . S
C274 N249 1.433 . S
C274 C275 1.363 . S
C274 C279 1.370 . S
C275 H248 0.929 . S
C275 C274 1.363 . S
C275 C276 1.385 . S
C276 H250 0.930 . S
C276 C275 1.385 . S
C276 C277 1.357 1_556 S
C277 C276 1.357 1_554 S
C277 C278 1.406 . S
C278 H252 0.929 . S
C278 C277 1.406 . S
C278 C279 1.391 1_554 S
C279 H251 0.931 . S
C279 C274 1.370 . S
C279 C278 1.391 1_556 S
C280 N249 1.435 . S
C280 C281 1.358 . S
C280 C285 1.371 . S
C281 H253 0.930 . S
C281 C280 1.358 . S
C281 C282 1.405 . S
C282 H254 0.932 . S
C282 C281 1.405 . S
C282 C283 1.383 . S
C283 C282 1.383 . S
C283 C284 1.393 . S
C284 H256 0.931 . S
C284 C283 1.393 . S
C284 C285 1.382 . S
C285 H255 0.929 . S
C285 C280 1.371 . S
C285 C284 1.382 . S
C286 N249 1.423 . S
C286 C287 1.362 . S
C286 C291 1.388 . S
C287 H257 0.929 . S
C287 C286 1.362 . S
C287 C288 1.376 . S
C288 H259 0.931 . S
C288 C287 1.376 . S
C288 C289 1.396 . S
C289 C288 1.396 . S
C289 C290 1.348 . S
C289 C307 1.472 . S
C290 H260 0.929 . S
C290 C289 1.348 . S
C290 C291 1.443 . S
C291 H258 0.932 . S
C291 C286 1.388 . S
C291 C290 1.443 . S
C292 N272 1.452 . S
C292 C293 1.363 . S
C292 C297 1.370 . S
C293 H261 0.929 . S
C293 C292 1.363 . S
C293 C294 1.385 . S
C294 H262 0.930 . S
C294 C293 1.385 . S
C294 C295 1.357 . S
C295 C294 1.357 . S
C295 C296 1.406 . S
C296 H263 0.929 . S
C296 C295 1.406 . S
C296 C297 1.391 . S
C297 H264 0.931 . S
C297 C292 1.370 . S
C297 C296 1.391 . S
C298 N272 1.424 1_556 S
C298 C299 1.358 . S
C298 C303 1.371 . S
C299 H265 0.930 1_556 S
C299 C298 1.358 . S
C299 C300 1.405 . S
C300 H266 0.932 . S
C300 C299 1.405 . S
C300 C301 1.383 . S
C301 C300 1.383 . S
C301 C302 1.393 . S
C302 H267 0.931 . S
C302 C301 1.393 . S
C302 C303 1.382 . S
C303 H268 0.929 . S
C303 C298 1.371 . S
C303 C302 1.382 . S
C304 N272 1.416 1_556 S
C304 C305 1.343 1_556 S
C304 C309 1.388 . S
C305 H269 0.968 . S
C305 C304 1.343 1_554 S
C305 C306 1.358 1_554 S
C306 H270 0.955 1_565 S
C306 C305 1.358 1_556 S
C306 C307 1.396 1_565 S
C307 C289 1.472 . S
C307 C306 1.396 1_545 S
C307 C308 1.348 1_545 S
C308 H271 0.929 . S
C308 C307 1.348 1_565 S
C308 C309 1.443 . S
C309 H273 0.932 . S
C309 C304 1.388 . S
C309 C308 1.443 . S
H310 C337 0.929 . S
N311 C336 1.433 . S
N311 C342 1.435 . S
N311 C348 1.423 . S
H312 C338 0.930 . S
H313 C341 0.931 . S
H314 C340 0.929 . S
H315 C343 0.930 . S
H316 C344 0.932 . S
H317 C347 0.929 . S
H318 C346 0.931 . S
H319 C349 0.929 . S
H320 C353 0.932 . S
H321 C350 0.931 . S
H322 C352 0.929 . S
H323 C355 0.929 . S
H324 C356 0.930 . S
H325 C358 0.929 . S
H326 C359 0.931 . S
H327 C361 0.930 . S
H328 C362 0.932 . S
H329 C364 0.931 . S
H330 C365 0.929 . S
H331 C367 0.929 . S
H332 C368 0.931 . S
H333 C370 0.929 . S
N334 C354 1.433 . S
N334 C360 1.435 . S
N334 C366 1.423 . S
H335 C371 0.932 . S
C336 N311 1.433 . S
C336 C337 1.363 . S
C336 C341 1.370 . S
C337 H310 0.929 . S
C337 C336 1.363 . S
C337 C338 1.385 . S
C338 H312 0.930 . S
C338 C337 1.385 . S
C338 C339 1.357 . S
C339 C338 1.357 . S
C339 C340 1.406 . S
C340 H314 0.929 . S
C340 C339 1.406 . S
C340 C341 1.391 . S
C341 H313 0.931 . S
C341 C336 1.370 . S
C341 C340 1.391 . S
C342 N311 1.435 . S
C342 C343 1.358 . S
C342 C347 1.371 . S
C343 H315 0.930 . S
C343 C342 1.358 . S
C343 C344 1.405 . S
C344 H316 0.932 . S
C344 C343 1.405 . S
C344 C345 1.383 . S
C345 C344 1.383 . S
C345 C346 1.393 . S
C346 H318 0.931 . S
C346 C345 1.393 . S
C346 C347 1.382 . S
C347 H317 0.929 . S
C347 C342 1.371 . S
C347 C346 1.382 . S
C348 N311 1.423 . S
C348 C349 1.362 . S
C348 C353 1.388 . S
C349 H319 0.929 . S
C349 C348 1.362 . S
C349 C350 1.376 . S
C350 H321 0.931 . S
C350 C349 1.376 . S
C350 C351 1.396 . S
C351 C350 1.396 . S
C351 C352 1.348 . S
C351 C369 1.472 . S
C352 H322 0.929 . S
C352 C351 1.348 . S
C352 C353 1.443 . S
C353 H320 0.932 . S
C353 C348 1.388 . S
C353 C352 1.443 . S
C354 N334 1.433 . S
C354 C355 1.363 . S
C354 C359 1.370 . S
C355 H323 0.929 . S
C355 C354 1.363 . S
C355 C356 1.385 . S
C356 H324 0.930 . S
C356 C355 1.385 . S
C356 C357 1.357 . S
C357 C356 1.357 . S
C357 C358 1.406 . S
C358 H325 0.929 . S
C358 C357 1.406 . S
C358 C359 1.391 . S
C359 H326 0.931 . S
C359 C354 1.370 . S
C359 C358 1.391 . S
C360 N334 1.435 . S
C360 C361 1.358 . S
C360 C365 1.371 . S
C361 H327 0.930 . S
C361 C360 1.358 . S
C361 C362 1.405 . S
C362 H328 0.932 . S
C362 C361 1.405 . S
C362 C363 1.383 . S
C363 C362 1.383 . S
C363 C364 1.393 . S
C364 H329 0.931 . S
C364 C363 1.393 . S
C364 C365 1.382 . S
C365 H330 0.929 . S
C365 C360 1.371 . S
C365 C364 1.382 . S
C366 N334 1.423 . S
C366 C367 1.362 . S
C366 C371 1.388 . S
C367 H331 0.929 . S
C367 C366 1.362 . S
C367 C368 1.376 . S
C368 H332 0.931 . S
C368 C367 1.376 . S
C368 C369 1.396 . S
C369 C351 1.472 . S
C369 C368 1.396 . S
C369 C370 1.348 . S
C370 H333 0.929 . S
C370 C369 1.348 . S
C370 C371 1.443 . S
C371 H335 0.932 . S
C371 C366 1.388 . S
C371 C370 1.443 . S
Mg372 O373 2.028 . S
Mg372 O379 1.986 . S
Mg372 O381 2.114 . S
Mg372 O382 2.251 . S
Mg372 O385 2.010 . S
O373 Mg372 2.028 . S
O373 C376 1.250 . S
O374 Mg375 2.028 . S
O374 C376 1.248 . S
Mg375 O374 2.028 . S
Mg375 O380 2.032 . S
Mg375 O382 2.079 . S
C376 O373 1.250 . S
C376 O374 1.248 . S
C377 O378 1.264 . S
C377 O385 1.249 . S
O378 C377 1.264 . S
O379 Mg372 1.986 . S
O379 C383 1.246 . S
O380 Mg375 2.032 . S
O380 C383 1.259 . S
O381 Mg372 2.114 . S
O381 C384 1.252 . S
O382 Mg372 2.251 . S
O382 Mg375 2.079 . S
O382 C384 1.273 . S
C383 O379 1.246 . S
C383 O380 1.259 . S
C384 O381 1.252 . S
C384 O382 1.273 . S
O385 Mg372 2.010 . S
O385 C377 1.249 . S
Mg386 O387 2.028 . S
Mg386 O393 1.986 . S
Mg386 O395 2.114 . S
Mg386 O396 2.251 . S
Mg386 O399 2.010 . S
O387 Mg386 2.028 . S
O387 C390 1.250 . S
O388 Mg389 2.028 . S
O388 C390 1.248 . S
Mg389 O388 2.028 . S
Mg389 O394 2.032 . S
Mg389 O396 2.079 . S
C390 O387 1.250 . S
C390 O388 1.248 . S
C391 O392 1.264 . S
C391 O399 1.249 . S
O392 C391 1.264 . S
O393 Mg386 1.986 . S
O393 C397 1.246 . S
O394 Mg389 2.032 . S
O394 C397 1.259 . S
O395 Mg386 2.114 . S
O395 C398 1.252 . S
O396 Mg386 2.251 . S
O396 Mg389 2.079 . S
O396 C398 1.273 . S
C397 O393 1.246 . S
C397 O394 1.259 . S
C398 O395 1.252 . S
C398 O396 1.273 . S
O399 Mg386 2.010 . S
O399 C391 1.249 . S
Mg400 O401 2.028 . S
Mg400 O407 1.986 . S
Mg400 O409 2.114 . S
Mg400 O410 2.251 . S
Mg400 O413 2.010 . S
O401 Mg400 2.028 . S
O401 C404 1.250 . S
O402 Mg403 2.028 . S
O402 C404 1.248 . S
Mg403 O402 2.028 . S
Mg403 O408 2.032 . S
Mg403 O410 2.079 . S
C404 O401 1.250 . S
C404 O402 1.248 . S
C405 O406 1.264 . S
C405 O413 1.249 . S
O406 C405 1.264 . S
O407 Mg400 1.986 . S
O407 C411 1.246 . S
O408 Mg403 2.032 . S
O408 C411 1.259 . S
O409 Mg400 2.114 . S
O409 C412 1.252 . S
O410 Mg400 2.251 . S
O410 Mg403 2.079 . S
O410 C412 1.273 . S
C411 O407 1.246 . S
C411 O408 1.259 . S
C412 O409 1.252 . S
C412 O410 1.273 . S
O413 Mg400 2.010 . S
O413 C405 1.249 . S
Mg414 O415 2.028 . S
Mg414 O421 1.986 . S
Mg414 O423 2.114 . S
Mg414 O424 2.251 . S
Mg414 O427 2.010 . S
O415 Mg414 2.028 . S
O415 C418 1.250 . S
O416 Mg417 2.028 . S
O416 C418 1.248 . S
Mg417 O416 2.028 . S
Mg417 O422 2.032 . S
Mg417 O424 2.079 . S
C418 O415 1.250 . S
C418 O416 1.248 . S
C419 O420 1.264 . S
C419 O427 1.249 . S
O420 C419 1.264 . S
O421 Mg414 1.986 . S
O421 C425 1.246 . S
O422 Mg417 2.032 . S
O422 C425 1.259 . S
O423 Mg414 2.114 . S
O423 C426 1.252 . S
O424 Mg414 2.251 . S
O424 Mg417 2.079 . S
O424 C426 1.273 . S
C425 O421 1.246 . S
C425 O422 1.259 . S
C426 O423 1.252 . S
C426 O424 1.273 . S
O427 Mg414 2.010 . S
O427 C419 1.249 . S
Mg428 O429 2.028 . S
Mg428 O435 1.986 . S
Mg428 O437 2.114 . S
Mg428 O438 2.251 . S
Mg428 O441 2.010 . S
O429 Mg428 2.028 . S
O429 C432 1.250 . S
O430 Mg431 2.028 . S
O430 C432 1.248 . S
Mg431 O430 2.028 . S
Mg431 O436 2.032 . S
Mg431 O438 2.079 . S
C432 O429 1.250 . S
C432 O430 1.248 . S
C433 O434 1.264 . S
C433 O441 1.249 . S
O434 C433 1.264 . S
O435 Mg428 1.986 . S
O435 C439 1.246 . S
O436 Mg431 2.032 . S
O436 C439 1.259 . S
O437 Mg428 2.114 . S
O437 C440 1.252 . S
O438 Mg428 2.251 . S
O438 Mg431 2.079 . S
O438 C440 1.273 . S
C439 O435 1.246 . S
C439 O436 1.259 . S
C440 O437 1.252 . S
C440 O438 1.273 . S
O441 Mg428 2.010 . S
O441 C433 1.249 . S
Mg442 O443 2.028 . S
Mg442 O449 1.986 . S
Mg442 O451 2.114 . S
Mg442 O452 2.251 . S
Mg442 O455 2.010 . S
O443 Mg442 2.028 . S
O443 C446 1.250 . S
O444 Mg445 2.028 . S
O444 C446 1.248 . S
Mg445 O444 2.028 . S
Mg445 O450 2.032 . S
Mg445 O452 2.079 . S
C446 O443 1.250 . S
C446 O444 1.248 . S
C447 O448 1.264 . S
C447 O455 1.249 . S
O448 C447 1.264 . S
O449 Mg442 1.986 . S
O449 C453 1.246 . S
O450 Mg445 2.032 . S
O450 C453 1.259 . S
O451 Mg442 2.114 . S
O451 C454 1.252 . S
O452 Mg442 2.251 . S
O452 Mg445 2.079 . S
O452 C454 1.273 . S
C453 O449 1.246 . S
C453 O450 1.259 . S
C454 O451 1.252 . S
C454 O452 1.273 . S
O455 Mg442 2.010 . S
O455 C447 1.249 . S
C456 C457 1.349 . S
C456 C458 1.327 . S
C456 H481 0.950 . S
C457 C456 1.349 . S
C457 C473 1.349 . S
C458 C456 1.327 . S
C458 C477 1.429 . S
C458 H482 0.950 . S
C459 C476 1.574 . S
C459 C478 1.368 . S
C459 H483 0.949 . S
H460 C464 0.949 . S
C461 C462 1.349 . S
C461 C463 1.327 . S
C461 H484 0.950 . S
C462 C461 1.349 . S
C462 C474 1.349 . S
C463 C461 1.327 . S
C463 C479 1.429 . S
C463 H485 0.950 . S
C464 H460 0.949 . S
C464 C472 1.574 . S
C464 C480 1.368 . S
H465 C473 0.950 . S
H466 C471 0.950 . S
H467 C472 0.949 . S
H468 C474 0.950 . S
H469 C475 0.950 . S
H470 C476 0.949 . S
C471 H466 0.950 . S
C471 C473 1.327 . S
C471 C477 1.429 . S
C472 C464 1.574 . S
C472 H467 0.949 . S
C472 C478 1.368 . S
C473 C457 1.349 . S
C473 H465 0.950 . S
C473 C471 1.327 . S
C474 C462 1.349 . S
C474 H468 0.950 . S
C474 C475 1.327 . S
C475 H469 0.950 . S
C475 C474 1.327 . S
C475 C479 1.429 . S
C476 C459 1.574 . S
C476 H470 0.949 . S
C476 C480 1.368 . S
C477 C458 1.429 . S
C477 C471 1.429 . S
C477 C478 1.523 . S
C478 C459 1.368 . S
C478 C472 1.368 . S
C478 C477 1.523 . S
C479 C463 1.429 . S
C479 C475 1.429 . S
C479 C480 1.523 . S
C480 C464 1.368 . S
C480 C476 1.368 . S
C480 C479 1.523 . S
H481 C456 0.950 . S
H482 C458 0.950 . S
H483 C459 0.949 . S
H484 C461 0.950 . S
H485 C463 0.950 . S
C486 C487 1.349 . S
C486 C488 1.327 . S
C486 H511 0.950 . S
C487 C486 1.349 . S
C487 C503 1.349 . S
C488 C486 1.327 . S
C488 C507 1.429 . S
C488 H512 0.950 . S
C489 C506 1.574 . S
C489 C508 1.368 . S
C489 H513 0.949 . S
H490 C494 0.949 . S
C491 C492 1.349 . S
C491 C493 1.327 . S
C491 H514 0.950 . S
C492 C491 1.349 . S
C492 C504 1.349 . S
C493 C491 1.327 . S
C493 C509 1.429 . S
C493 H515 0.950 . S
C494 H490 0.949 . S
C494 C502 1.574 . S
C494 C510 1.368 . S
H495 C503 0.950 . S
H496 C501 0.950 . S
H497 C502 0.949 . S
H498 C504 0.950 . S
H499 C505 0.950 . S
H500 C506 0.949 . S
C501 H496 0.950 . S
C501 C503 1.327 . S
C501 C507 1.429 . S
C502 C494 1.574 . S
C502 H497 0.949 . S
C502 C508 1.368 . S
C503 C487 1.349 . S
C503 H495 0.950 . S
C503 C501 1.327 . S
C504 C492 1.349 . S
C504 H498 0.950 . S
C504 C505 1.327 . S
C505 H499 0.950 . S
C505 C504 1.327 . S
C505 C509 1.429 . S
C506 C489 1.574 . S
C506 H500 0.949 . S
C506 C510 1.368 . S
C507 C488 1.429 . S
C507 C501 1.429 . S
C507 C508 1.523 . S
C508 C489 1.368 . S
C508 C502 1.368 . S
C508 C507 1.523 . S
C509 C493 1.429 . S
C509 C505 1.429 . S
C509 C510 1.523 . S
C510 C494 1.368 . S
C510 C506 1.368 . S
C510 C509 1.523 . S
H511 C486 0.950 . S
H512 C488 0.950 . S
H513 C489 0.949 . S
H514 C491 0.950 . S
H515 C493 0.950 . S
C516 C517 1.349 . S
C516 C518 1.327 . S
C516 H541 0.950 . S
C517 C516 1.349 . S
C517 C533 1.349 . S
C518 C516 1.327 . S
C518 C537 1.429 . S
C518 H542 0.950 . S
C519 C536 1.574 . S
C519 C538 1.368 . S
C519 H543 0.949 . S
H520 C524 0.949 . S
C521 C522 1.349 . S
C521 C523 1.327 . S
C521 H544 0.950 . S
C522 C521 1.349 . S
C522 C534 1.349 . S
C523 C521 1.327 . S
C523 C539 1.429 . S
C523 H545 0.950 . S
C524 H520 0.949 . S
C524 C532 1.574 . S
C524 C540 1.368 . S
H525 C533 0.950 . S
H526 C531 0.950 . S
H527 C532 0.949 . S
H528 C534 0.950 . S
H529 C535 0.950 . S
H530 C536 0.949 . S
C531 H526 0.950 . S
C531 C533 1.327 . S
C531 C537 1.429 . S
C532 C524 1.574 . S
C532 H527 0.949 . S
C532 C538 1.368 . S
C533 C517 1.349 . S
C533 H525 0.950 . S
C533 C531 1.327 . S
C534 C522 1.349 . S
C534 H528 0.950 . S
C534 C535 1.327 . S
C535 H529 0.950 . S
C535 C534 1.327 . S
C535 C539 1.429 . S
C536 C519 1.574 . S
C536 H530 0.949 . S
C536 C540 1.368 . S
C537 C518 1.429 . S
C537 C531 1.429 . S
C537 C538 1.523 . S
C538 C519 1.368 . S
C538 C532 1.368 . S
C538 C537 1.523 . S
C539 C523 1.429 . S
C539 C535 1.429 . S
C539 C540 1.523 . S
C540 C524 1.368 . S
C540 C536 1.368 . S
C540 C539 1.523 . S
H541 C516 0.950 . S
H542 C518 0.950 . S
H543 C519 0.949 . S
H544 C521 0.950 . S
H545 C523 0.950 . S
C546 C547 1.349 . S
C546 C548 1.327 . S
C546 H571 0.950 . S
C547 C546 1.349 . S
C547 C563 1.349 . S
C548 C546 1.327 . S
C548 C567 1.429 . S
C548 H572 0.950 . S
C549 C566 1.574 . S
C549 C568 1.368 . S
C549 H573 0.949 . S
H550 C554 0.949 . S
C551 C552 1.349 . S
C551 C553 1.327 . S
C551 H574 0.950 . S
C552 C551 1.349 . S
C552 C564 1.349 . S
C553 C551 1.327 . S
C553 C569 1.429 . S
C553 H575 0.950 . S
C554 H550 0.949 . S
C554 C562 1.574 . S
C554 C570 1.368 . S
H555 C563 0.950 . S
H556 C561 0.950 . S
H557 C562 0.949 . S
H558 C564 0.950 . S
H559 C565 0.950 . S
H560 C566 0.949 . S
C561 H556 0.950 . S
C561 C563 1.327 . S
C561 C567 1.429 . S
C562 C554 1.574 . S
C562 H557 0.949 . S
C562 C568 1.368 . S
C563 C547 1.349 . S
C563 H555 0.950 . S
C563 C561 1.327 . S
C564 C552 1.349 . S
C564 H558 0.950 . S
C564 C565 1.327 . S
C565 H559 0.950 . S
C565 C564 1.327 . S
C565 C569 1.429 . S
C566 C549 1.574 . S
C566 H560 0.949 . S
C566 C570 1.368 . S
C567 C548 1.429 . S
C567 C561 1.429 . S
C567 C568 1.523 . S
C568 C549 1.368 . S
C568 C562 1.368 . S
C568 C567 1.523 . S
C569 C553 1.429 . S
C569 C565 1.429 . S
C569 C570 1.523 . S
C570 C554 1.368 . S
C570 C566 1.368 . S
C570 C569 1.523 . S
H571 C546 0.950 . S
H572 C548 0.950 . S
H573 C549 0.949 . S
H574 C551 0.950 . S
H575 C553 0.950 . S
C576 C577 1.349 . S
C576 C578 1.327 . S
C576 H601 0.950 . S
C577 C576 1.349 . S
C577 C593 1.349 . S
C578 C576 1.327 . S
C578 C597 1.429 . S
C578 H602 0.950 . S
C579 C596 1.574 . S
C579 C598 1.368 . S
C579 H603 0.949 . S
H580 C584 0.949 . S
C581 C582 1.349 . S
C581 C583 1.327 . S
C581 H604 0.950 . S
C582 C581 1.349 . S
C582 C594 1.349 . S
C583 C581 1.327 . S
C583 C599 1.429 . S
C583 H605 0.950 . S
C584 H580 0.949 . S
C584 C592 1.574 . S
C584 C600 1.368 . S
H585 C593 0.950 . S
H586 C591 0.950 . S
H587 C592 0.949 . S
H588 C594 0.950 . S
H589 C595 0.950 . S
H590 C596 0.949 . S
C591 H586 0.950 . S
C591 C593 1.327 . S
C591 C597 1.429 . S
C592 C584 1.574 . S
C592 H587 0.949 . S
C592 C598 1.368 . S
C593 C577 1.349 . S
C593 H585 0.950 . S
C593 C591 1.327 . S
C594 C582 1.349 . S
C594 H588 0.950 . S
C594 C595 1.327 . S
C595 H589 0.950 . S
C595 C594 1.327 . S
C595 C599 1.429 . S
C596 C579 1.574 . S
C596 H590 0.949 . S
C596 C600 1.368 . S
C597 C578 1.429 . S
C597 C591 1.429 . S
C597 C598 1.523 . S
C598 C579 1.368 . S
C598 C592 1.368 . S
C598 C597 1.523 . S
C599 C583 1.429 . S
C599 C595 1.429 . S
C599 C600 1.523 . S
C600 C584 1.368 . S
C600 C596 1.368 . S
C600 C599 1.523 . S
H601 C576 0.950 . S
H602 C578 0.950 . S
H603 C579 0.949 . S
H604 C581 0.950 . S
H605 C583 0.950 . S
C606 C607 1.349 . S
C606 C608 1.327 . S
C606 H631 0.950 . S
C607 C606 1.349 . S
C607 C623 1.349 . S
C608 C606 1.327 . S
C608 C627 1.429 . S
C608 H632 0.950 . S
C609 C626 1.574 . S
C609 C628 1.368 . S
C609 H633 0.949 . S
H610 C614 0.949 . S
C611 C612 1.349 . S
C611 C613 1.327 . S
C611 H634 0.950 . S
C612 C611 1.349 . S
C612 C624 1.349 . S
C613 C611 1.327 . S
C613 C629 1.429 . S
C613 H635 0.950 . S
C614 H610 0.949 . S
C614 C622 1.574 . S
C614 C630 1.368 . S
H615 C623 0.950 . S
H616 C621 0.950 . S
H617 C622 0.949 . S
H618 C624 0.950 . S
H619 C625 0.950 . S
H620 C626 0.949 . S
C621 H616 0.950 . S
C621 C623 1.327 . S
C621 C627 1.429 . S
C622 C614 1.574 . S
C622 H617 0.949 . S
C622 C628 1.368 . S
C623 C607 1.349 . S
C623 H615 0.950 . S
C623 C621 1.327 . S
C624 C612 1.349 . S
C624 H618 0.950 . S
C624 C625 1.327 . S
C625 H619 0.950 . S
C625 C624 1.327 . S
C625 C629 1.429 . S
C626 C609 1.574 . S
C626 H620 0.949 . S
C626 C630 1.368 . S
C627 C608 1.429 . S
C627 C621 1.429 . S
C627 C628 1.523 . S
C628 C609 1.368 . S
C628 C622 1.368 . S
C628 C627 1.523 . S
C629 C613 1.429 . S
C629 C625 1.429 . S
C629 C630 1.523 . S
C630 C614 1.368 . S
C630 C626 1.368 . S
C630 C629 1.523 . S
H631 C606 0.950 . S
H632 C608 0.950 . S
H633 C609 0.949 . S
H634 C611 0.950 . S
H635 C613 0.950 . S
C636 C637 1.349 . S
C636 C638 1.327 . S
C636 H661 0.950 . S
C637 C636 1.349 . S
C637 C653 1.349 . S
C638 C636 1.327 . S
C638 C657 1.429 . S
C638 H662 0.950 . S
C639 C656 1.574 . S
C639 C658 1.368 . S
C639 H663 0.949 . S
H640 C644 0.949 . S
C641 C642 1.349 . S
C641 C643 1.327 . S
C641 H664 0.950 . S
C642 C641 1.349 . S
C642 C654 1.349 . S
C643 C641 1.327 . S
C643 C659 1.429 . S
C643 H665 0.950 . S
C644 H640 0.949 . S
C644 C652 1.574 . S
C644 C660 1.368 . S
H645 C653 0.950 . S
H646 C651 0.950 . S
H647 C652 0.949 . S
H648 C654 0.950 . S
H649 C655 0.950 . S
H650 C656 0.949 . S
C651 H646 0.950 . S
C651 C653 1.327 . S
C651 C657 1.429 . S
C652 C644 1.574 . S
C652 H647 0.949 . S
C652 C658 1.368 . S
C653 C637 1.349 . S
C653 H645 0.950 . S
C653 C651 1.327 . S
C654 C642 1.349 . S
C654 H648 0.950 . S
C654 C655 1.327 . S
C655 H649 0.950 . S
C655 C654 1.327 . S
C655 C659 1.429 . S
C656 C639 1.574 . S
C656 H650 0.949 . S
C656 C660 1.368 . S
C657 C638 1.429 . S
C657 C651 1.429 . S
C657 C658 1.523 . S
C658 C639 1.368 . S
C658 C652 1.368 . S
C658 C657 1.523 . S
C659 C643 1.429 . S
C659 C655 1.429 . S
C659 C660 1.523 . S
C660 C644 1.368 . S
C660 C656 1.368 . S
C660 C659 1.523 . S
H661 C636 0.950 . S
H662 C638 0.950 . S
H663 C639 0.949 . S
H664 C641 0.950 . S
H665 C643 0.950 . S
C666 C667 1.349 . S
C666 C668 1.327 . S
C666 H691 0.950 . S
C667 C666 1.349 . S
C667 C683 1.349 . S
C668 C666 1.327 . S
C668 C687 1.429 . S
C668 H692 0.950 . S
C669 C686 1.574 . S
C669 C688 1.368 . S
C669 H693 0.949 . S
H670 C674 0.949 . S
C671 C672 1.349 . S
C671 C673 1.327 . S
C671 H694 0.950 . S
C672 C671 1.349 . S
C672 C684 1.349 . S
C673 C671 1.327 . S
C673 C689 1.429 . S
C673 H695 0.950 . S
C674 H670 0.949 . S
C674 C682 1.574 . S
C674 C690 1.368 . S
H675 C683 0.950 . S
H676 C681 0.950 . S
H677 C682 0.949 . S
H678 C684 0.950 . S
H679 C685 0.950 . S
H680 C686 0.949 . S
C681 H676 0.950 . S
C681 C683 1.327 . S
C681 C687 1.429 . S
C682 C674 1.574 . S
C682 H677 0.949 . S
C682 C688 1.368 . S
C683 C667 1.349 . S
C683 H675 0.950 . S
C683 C681 1.327 . S
C684 C672 1.349 . S
C684 H678 0.950 . S
C684 C685 1.327 . S
C685 H679 0.950 . S
C685 C684 1.327 . S
C685 C689 1.429 . S
C686 C669 1.574 . S
C686 H680 0.949 . S
C686 C690 1.368 . S
C687 C668 1.429 . S
C687 C681 1.429 . S
C687 C688 1.523 . S
C688 C669 1.368 . S
C688 C682 1.368 . S
C688 C687 1.523 . S
C689 C673 1.429 . S
C689 C685 1.429 . S
C689 C690 1.523 . S
C690 C674 1.368 . S
C690 C686 1.368 . S
C690 C689 1.523 . S
H691 C666 0.950 . S
H692 C668 0.950 . S
H693 C669 0.949 . S
H694 C671 0.950 . S
H695 C673 0.950 . S
C696 C697 1.349 . S
C696 C698 1.327 . S
C696 H721 0.950 . S
C697 C696 1.349 . S
C697 C713 1.349 . S
C698 C696 1.327 . S
C698 C717 1.429 . S
C698 H722 0.950 . S
C699 C716 1.574 . S
C699 C718 1.368 . S
C699 H723 0.949 . S
H700 C704 0.949 . S
C701 C702 1.349 . S
C701 C703 1.327 . S
C701 H724 0.950 . S
C702 C701 1.349 . S
C702 C714 1.349 . S
C703 C701 1.327 . S
C703 C719 1.429 . S
C703 H725 0.950 . S
C704 H700 0.949 . S
C704 C712 1.574 . S
C704 C720 1.368 . S
H705 C713 0.950 . S
H706 C711 0.950 . S
H707 C712 0.949 . S
H708 C714 0.950 . S
H709 C715 0.950 . S
H710 C716 0.949 . S
C711 H706 0.950 . S
C711 C713 1.327 . S
C711 C717 1.429 . S
C712 C704 1.574 . S
C712 H707 0.949 . S
C712 C718 1.368 . S
C713 C697 1.349 . S
C713 H705 0.950 . S
C713 C711 1.327 . S
C714 C702 1.349 . S
C714 H708 0.950 . S
C714 C715 1.327 . S
C715 H709 0.950 . S
C715 C714 1.327 . S
C715 C719 1.429 . S
C716 C699 1.574 . S
C716 H710 0.949 . S
C716 C720 1.368 . S
C717 C698 1.429 . S
C717 C711 1.429 . S
C717 C718 1.523 . S
C718 C699 1.368 . S
C718 C712 1.368 . S
C718 C717 1.523 . S
C719 C703 1.429 . S
C719 C715 1.429 . S
C719 C720 1.523 . S
C720 C704 1.368 . S
C720 C716 1.368 . S
C720 C719 1.523 . S
H721 C696 0.950 . S
H722 C698 0.950 . S
H723 C699 0.949 . S
H724 C701 0.950 . S
H725 C703 0.950 . S
C726 C727 1.349 . S
C726 C728 1.327 . S
C726 H751 0.950 . S
C727 C726 1.349 . S
C727 C743 1.349 . S
C728 C726 1.327 . S
C728 C747 1.429 . S
C728 H752 0.950 . S
C729 C746 1.574 . S
C729 C748 1.368 . S
C729 H753 0.949 . S
H730 C734 0.949 . S
C731 C732 1.349 . S
C731 C733 1.327 . S
C731 H754 0.950 . S
C732 C731 1.349 . S
C732 C744 1.349 . S
C733 C731 1.327 . S
C733 C749 1.429 . S
C733 H755 0.950 . S
C734 H730 0.949 . S
C734 C742 1.574 . S
C734 C750 1.368 . S
H735 C743 0.950 . S
H736 C741 0.950 . S
H737 C742 0.949 . S
H738 C744 0.950 . S
H739 C745 0.950 . S
H740 C746 0.949 . S
C741 H736 0.950 . S
C741 C743 1.327 . S
C741 C747 1.429 . S
C742 C734 1.574 . S
C742 H737 0.949 . S
C742 C748 1.368 . S
C743 C727 1.349 . S
C743 H735 0.950 . S
C743 C741 1.327 . S
C744 C732 1.349 . S
C744 H738 0.950 . S
C744 C745 1.327 . S
C745 H739 0.950 . S
C745 C744 1.327 . S
C745 C749 1.429 . S
C746 C729 1.574 . S
C746 H740 0.949 . S
C746 C750 1.368 . S
C747 C728 1.429 . S
C747 C741 1.429 . S
C747 C748 1.523 . S
C748 C729 1.368 . S
C748 C742 1.368 . S
C748 C747 1.523 . S
C749 C733 1.429 . S
C749 C745 1.429 . S
C749 C750 1.523 . S
C750 C734 1.368 . S
C750 C746 1.368 . S
C750 C749 1.523 . S
H751 C726 0.950 . S
H752 C728 0.950 . S
H753 C729 0.949 . S
H754 C731 0.950 . S
H755 C733 0.950 . S
C756 C757 1.349 . S
C756 C758 1.327 . S
C756 H781 0.950 . S
C757 C756 1.349 . S
C757 C773 1.349 . S
C758 C756 1.327 . S
C758 C777 1.429 . S
C758 H782 0.950 . S
C759 C776 1.574 . S
C759 C778 1.368 . S
C759 H783 0.949 . S
H760 C764 0.949 . S
C761 C762 1.349 . S
C761 C763 1.327 . S
C761 H784 0.950 . S
C762 C761 1.349 . S
C762 C774 1.349 . S
C763 C761 1.327 . S
C763 C779 1.429 . S
C763 H785 0.950 . S
C764 H760 0.949 . S
C764 C772 1.574 . S
C764 C780 1.368 . S
H765 C773 0.950 . S
H766 C771 0.950 . S
H767 C772 0.949 . S
H768 C774 0.950 . S
H769 C775 0.950 . S
H770 C776 0.949 . S
C771 H766 0.950 . S
C771 C773 1.327 . S
C771 C777 1.429 . S
C772 C764 1.574 . S
C772 H767 0.949 . S
C772 C778 1.368 . S
C773 C757 1.349 . S
C773 H765 0.950 . S
C773 C771 1.327 . S
C774 C762 1.349 . S
C774 H768 0.950 . S
C774 C775 1.327 . S
C775 H769 0.950 . S
C775 C774 1.327 . S
C775 C779 1.429 . S
C776 C759 1.574 . S
C776 H770 0.949 . S
C776 C780 1.368 . S
C777 C758 1.429 . S
C777 C771 1.429 . S
C777 C778 1.523 . S
C778 C759 1.368 . S
C778 C772 1.368 . S
C778 C777 1.523 . S
C779 C763 1.429 . S
C779 C775 1.429 . S
C779 C780 1.523 . S
C780 C764 1.368 . S
C780 C776 1.368 . S
C780 C779 1.523 . S
H781 C756 0.950 . S
H782 C758 0.950 . S
H783 C759 0.949 . S
H784 C761 0.950 . S
H785 C763 0.950 . S
C786 C787 1.349 . S
C786 C788 1.327 . S
C786 H811 0.950 . S
C787 C786 1.349 . S
C787 C803 1.349 . S
C788 C786 1.327 . S
C788 C807 1.429 . S
C788 H812 0.950 . S
C789 C806 1.574 . S
C789 C808 1.368 . S
C789 H813 0.949 . S
H790 C794 0.949 . S
C791 C792 1.349 . S
C791 C793 1.327 . S
C791 H814 0.950 . S
C792 C791 1.349 . S
C792 C804 1.349 . S
C793 C791 1.327 . S
C793 C809 1.429 . S
C793 H815 0.950 . S
C794 H790 0.949 . S
C794 C802 1.574 . S
C794 C810 1.368 . S
H795 C803 0.950 . S
H796 C801 0.950 . S
H797 C802 0.949 . S
H798 C804 0.950 . S
H799 C805 0.950 . S
H800 C806 0.949 . S
C801 H796 0.950 . S
C801 C803 1.327 . S
C801 C807 1.429 . S
C802 C794 1.574 . S
C802 H797 0.949 . S
C802 C808 1.368 . S
C803 C787 1.349 . S
C803 H795 0.950 . S
C803 C801 1.327 . S
C804 C792 1.349 . S
C804 H798 0.950 . S
C804 C805 1.327 . S
C805 H799 0.950 . S
C805 C804 1.327 . S
C805 C809 1.429 . S
C806 C789 1.574 . S
C806 H800 0.949 . S
C806 C810 1.368 . S
C807 C788 1.429 . S
C807 C801 1.429 . S
C807 C808 1.523 . S
C808 C789 1.368 . S
C808 C802 1.368 . S
C808 C807 1.523 . S
C809 C793 1.429 . S
C809 C805 1.429 . S
C809 C810 1.523 . S
C810 C794 1.368 . S
C810 C806 1.368 . S
C810 C809 1.523 . S
H811 C786 0.950 . S
H812 C788 0.950 . S
H813 C789 0.949 . S
H814 C791 0.950 . S
H815 C793 0.950 . S
C816 C817 1.349 . S
C816 C818 1.327 . S
C816 H841 0.950 . S
C817 C816 1.349 . S
C817 C833 1.349 . S
C818 C816 1.327 . S
C818 C837 1.429 . S
C818 H842 0.950 . S
C819 C836 1.574 . S
C819 C838 1.368 . S
C819 H843 0.949 . S
H820 C824 0.949 . S
C821 C822 1.349 . S
C821 C823 1.327 . S
C821 H844 0.950 . S
C822 C821 1.349 . S
C822 C834 1.349 . S
C823 C821 1.327 . S
C823 C839 1.429 . S
C823 H845 0.950 . S
C824 H820 0.949 . S
C824 C832 1.574 . S
C824 C840 1.368 . S
H825 C833 0.950 . S
H826 C831 0.950 . S
H827 C832 0.949 . S
H828 C834 0.950 . S
H829 C835 0.950 . S
H830 C836 0.949 . S
C831 H826 0.950 . S
C831 C833 1.327 . S
C831 C837 1.429 . S
C832 C824 1.574 . S
C832 H827 0.949 . S
C832 C838 1.368 . S
C833 C817 1.349 . S
C833 H825 0.950 . S
C833 C831 1.327 . S
C834 C822 1.349 . S
C834 H828 0.950 . S
C834 C835 1.327 . S
C835 H829 0.950 . S
C835 C834 1.327 . S
C835 C839 1.429 . S
C836 C819 1.574 . S
C836 H830 0.949 . S
C836 C840 1.368 . S
C837 C818 1.429 . S
C837 C831 1.429 . S
C837 C838 1.523 . S
C838 C819 1.368 . S
C838 C832 1.368 . S
C838 C837 1.523 . S
C839 C823 1.429 . S
C839 C835 1.429 . S
C839 C840 1.523 . S
C840 C824 1.368 . S
C840 C836 1.368 . S
C840 C839 1.523 . S
H841 C816 0.950 . S
H842 C818 0.950 . S
H843 C819 0.949 . S
H844 C821 0.950 . S
H845 C823 0.950 . S
C846 C847 1.349 . S
C846 C848 1.327 . S
C846 H871 0.950 . S
C847 C846 1.349 . S
C847 C863 1.349 . S
C848 C846 1.327 . S
C848 C867 1.429 . S
C848 H872 0.950 . S
C849 C866 1.574 . S
C849 C868 1.368 . S
C849 H873 0.949 . S
H850 C854 0.949 . S
C851 C852 1.349 . S
C851 C853 1.327 . S
C851 H874 0.950 . S
C852 C851 1.349 . S
C852 C864 1.349 . S
C853 C851 1.327 . S
C853 C869 1.429 . S
C853 H875 0.950 . S
C854 H850 0.949 . S
C854 C862 1.574 . S
C854 C870 1.368 . S
H855 C863 0.950 . S
H856 C861 0.950 . S
H857 C862 0.949 . S
H858 C864 0.950 . S
H859 C865 0.950 . S
H860 C866 0.949 . S
C861 H856 0.950 . S
C861 C863 1.327 . S
C861 C867 1.429 . S
C862 C854 1.574 . S
C862 H857 0.949 . S
C862 C868 1.368 . S
C863 C847 1.349 . S
C863 H855 0.950 . S
C863 C861 1.327 . S
C864 C852 1.349 . S
C864 H858 0.950 . S
C864 C865 1.327 . S
C865 H859 0.950 . S
C865 C864 1.327 . S
C865 C869 1.429 . S
C866 C849 1.574 . S
C866 H860 0.949 . S
C866 C870 1.368 . S
C867 C848 1.429 . S
C867 C861 1.429 . S
C867 C868 1.523 . S
C868 C849 1.368 . S
C868 C862 1.368 . S
C868 C867 1.523 . S
C869 C853 1.429 . S
C869 C865 1.429 . S
C869 C870 1.523 . S
C870 C854 1.368 . S
C870 C866 1.368 . S
C870 C869 1.523 . S
H871 C846 0.950 . S
H872 C848 0.950 . S
H873 C849 0.949 . S
H874 C851 0.950 . S
H875 C853 0.950 . S
C876 C877 1.349 . S
C876 C878 1.327 . S
C876 H901 0.950 . S
C877 C876 1.349 . S
C877 C893 1.349 . S
C878 C876 1.327 . S
C878 C897 1.429 . S
C878 H902 0.950 . S
C879 C896 1.574 . S
C879 C898 1.368 . S
C879 H903 0.949 . S
H880 C884 0.949 . S
C881 C882 1.349 . S
C881 C883 1.327 . S
C881 H904 0.950 . S
C882 C881 1.349 . S
C882 C894 1.349 . S
C883 C881 1.327 . S
C883 C899 1.429 . S
C883 H905 0.950 . S
C884 H880 0.949 . S
C884 C892 1.574 . S
C884 C900 1.368 . S
H885 C893 0.950 . S
H886 C891 0.950 . S
H887 C892 0.949 . S
H888 C894 0.950 . S
H889 C895 0.950 . S
H890 C896 0.949 . S
C891 H886 0.950 . S
C891 C893 1.327 . S
C891 C897 1.429 . S
C892 C884 1.574 . S
C892 H887 0.949 . S
C892 C898 1.368 . S
C893 C877 1.349 . S
C893 H885 0.950 . S
C893 C891 1.327 . S
C894 C882 1.349 . S
C894 H888 0.950 . S
C894 C895 1.327 . S
C895 H889 0.950 . S
C895 C894 1.327 . S
C895 C899 1.429 . S
C896 C879 1.574 . S
C896 H890 0.949 . S
C896 C900 1.368 . S
C897 C878 1.429 . S
C897 C891 1.429 . S
C897 C898 1.523 . S
C898 C879 1.368 . S
C898 C892 1.368 . S
C898 C897 1.523 . S
C899 C883 1.429 . S
C899 C895 1.429 . S
C899 C900 1.523 . S
C900 C884 1.368 . S
C900 C896 1.368 . S
C900 C899 1.523 . S
H901 C876 0.950 . S
H902 C878 0.950 . S
H903 C879 0.949 . S
H904 C881 0.950 . S
H905 C883 0.950 . S
C906 C907 1.349 . S
C906 C908 1.327 . S
C906 H931 0.950 . S
C907 C906 1.349 . S
C907 C923 1.349 . S
C908 C906 1.327 . S
C908 C927 1.429 . S
C908 H932 0.950 . S
C909 C926 1.574 . S
C909 C928 1.368 . S
C909 H933 0.949 . S
H910 C914 0.949 . S
C911 C912 1.349 . S
C911 C913 1.303 1_554 S
C911 H934 0.950 . S
C912 C911 1.349 . S
C912 C924 1.349 . S
C913 C911 1.303 1_556 S
C913 C929 1.447 . S
C913 H935 0.957 . S
C914 H910 0.949 . S
C914 C922 1.574 . S
C914 C930 1.368 . S
H915 C923 0.950 . S
H916 C921 0.950 . S
H917 C922 0.949 . S
H918 C924 0.950 . S
H919 C925 0.950 . S
H920 C926 0.949 . S
C921 H916 0.950 . S
C921 C923 1.327 . S
C921 C927 1.429 . S
C922 C914 1.574 . S
C922 H917 0.949 . S
C922 C928 1.368 . S
C923 C907 1.349 . S
C923 H915 0.950 . S
C923 C921 1.327 . S
C924 C912 1.349 . S
C924 H918 0.950 . S
C924 C925 1.327 1_554 S
C925 H919 0.950 . S
C925 C924 1.327 1_556 S
C925 C929 1.429 . S
C926 C909 1.574 . S
C926 H920 0.949 . S
C926 C930 1.368 . S
C927 C908 1.429 . S
C927 C921 1.429 . S
C927 C928 1.523 . S
C928 C909 1.368 . S
C928 C922 1.368 . S
C928 C927 1.523 . S
C929 C913 1.447 . S
C929 C925 1.429 . S
C929 C930 1.523 . S
C930 C914 1.368 . S
C930 C926 1.368 . S
C930 C929 1.523 . S
H931 C906 0.950 . S
H932 C908 0.950 . S
H933 C909 0.949 . S
H934 C911 0.950 . S
H935 C913 0.957 . S
C936 C937 1.349 . S
C936 C938 1.327 . S
C936 H961 0.950 . S
C937 C936 1.349 . S
C937 C953 1.349 . S
C938 C936 1.327 . S
C938 C957 1.429 . S
C938 H962 0.950 . S
C939 C956 1.574 . S
C939 C958 1.368 . S
C939 H963 0.949 . S
H940 C944 0.949 . S
C941 C942 1.349 . S
C941 C943 1.327 . S
C941 H964 0.950 . S
C942 C941 1.349 . S
C942 C954 1.349 . S
C943 C941 1.327 . S
C943 C959 1.429 . S
C943 H965 0.950 . S
C944 H940 0.949 . S
C944 C952 1.574 . S
C944 C960 1.368 . S
H945 C953 0.950 . S
H946 C951 0.950 . S
H947 C952 0.949 . S
H948 C954 0.950 . S
H949 C955 0.950 . S
H950 C956 0.949 . S
C951 H946 0.950 . S
C951 C953 1.327 . S
C951 C957 1.429 . S
C952 C944 1.574 . S
C952 H947 0.949 . S
C952 C958 1.368 . S
C953 C937 1.349 . S
C953 H945 0.950 . S
C953 C951 1.327 . S
C954 C942 1.349 . S
C954 H948 0.950 . S
C954 C955 1.327 . S
C955 H949 0.950 . S
C955 C954 1.327 . S
C955 C959 1.429 . S
C956 C939 1.574 . S
C956 H950 0.949 . S
C956 C960 1.368 . S
C957 C938 1.429 . S
C957 C951 1.429 . S
C957 C958 1.523 . S
C958 C939 1.368 . S
C958 C952 1.368 . S
C958 C957 1.523 . S
C959 C943 1.429 . S
C959 C955 1.429 . S
C959 C960 1.523 . S
C960 C944 1.368 . S
C960 C956 1.368 . S
C960 C959 1.523 . S
H961 C936 0.950 . S
H962 C938 0.950 . S
H963 C939 0.949 . S
H964 C941 0.950 . S
H965 C943 0.950 . S
C966 C967 1.349 . S
C966 C968 1.327 . S
C966 H991 0.950 . S
C967 C966 1.349 . S
C967 C983 1.349 . S
C968 C966 1.327 . S
C968 C987 1.429 . S
C968 H992 0.950 . S
C969 C986 1.574 . S
C969 C988 1.368 . S
C969 H993 0.949 . S
H970 C974 0.949 . S
C971 C972 1.349 . S
C971 C973 1.327 . S
C971 H994 0.950 . S
C972 C971 1.349 . S
C972 C984 1.349 . S
C973 C971 1.327 . S
C973 C989 1.429 . S
C973 H995 0.950 . S
C974 H970 0.949 . S
C974 C982 1.574 . S
C974 C990 1.368 . S
H975 C983 0.950 . S
H976 C981 0.950 . S
H977 C982 0.949 . S
H978 C984 0.950 . S
H979 C985 0.950 . S
H980 C986 0.949 . S
C981 H976 0.950 . S
C981 C983 1.327 . S
C981 C987 1.429 . S
C982 C974 1.574 . S
C982 H977 0.949 . S
C982 C988 1.368 . S
C983 C967 1.349 . S
C983 H975 0.950 . S
C983 C981 1.327 . S
C984 C972 1.349 . S
C984 H978 0.950 . S
C984 C985 1.327 . S
C985 H979 0.950 . S
C985 C984 1.327 . S
C985 C989 1.429 . S
C986 C969 1.574 . S
C986 H980 0.949 . S
C986 C990 1.368 . S
C987 C968 1.429 . S
C987 C981 1.429 . S
C987 C988 1.523 . S
C988 C969 1.368 . S
C988 C982 1.368 . S
C988 C987 1.523 . S
C989 C973 1.429 . S
C989 C985 1.429 . S
C989 C990 1.523 . S
C990 C974 1.368 . S
C990 C986 1.368 . S
C990 C989 1.523 . S
H991 C966 0.950 . S
H992 C968 0.950 . S
H993 C969 0.949 . S
H994 C971 0.950 . S
H995 C973 0.950 . S
C996 C997 1.349 . S
C996 C998 1.327 . S
C996 H1021 0.950 . S
C997 C996 1.349 . S
C997 C1013 1.349 . S
C998 C996 1.327 . S
C998 C1017 1.429 . S
C998 H1022 0.950 . S
C999 C1016 1.574 . S
C999 C1018 1.368 . S
C999 H1023 0.949 . S
H1000 C1004 0.949 . S
C1001 C1002 1.349 . S
C1001 C1003 1.327 . S
C1001 H1024 0.950 . S
C1002 C1001 1.349 . S
C1002 C1014 1.349 . S
C1003 C1001 1.327 . S
C1003 C1019 1.429 . S
C1003 H1025 0.950 . S
C1004 H1000 0.949 . S
C1004 C1012 1.574 . S
C1004 C1020 1.368 . S
H1005 C1013 0.950 . S
H1006 C1011 0.950 . S
H1007 C1012 0.949 . S
H1008 C1014 0.950 . S
H1009 C1015 0.950 . S
H1010 C1016 0.949 . S
C1011 H1006 0.950 . S
C1011 C1013 1.327 . S
C1011 C1017 1.429 . S
C1012 C1004 1.574 . S
C1012 H1007 0.949 . S
C1012 C1018 1.368 . S
C1013 C997 1.349 . S
C1013 H1005 0.950 . S
C1013 C1011 1.327 . S
C1014 C1002 1.349 . S
C1014 H1008 0.950 . S
C1014 C1015 1.327 . S
C1015 H1009 0.950 . S
C1015 C1014 1.327 . S
C1015 C1019 1.429 . S
C1016 C999 1.574 . S
C1016 H1010 0.949 . S
C1016 C1020 1.368 . S
C1017 C998 1.429 . S
C1017 C1011 1.429 . S
C1017 C1018 1.523 . S
C1018 C999 1.368 . S
C1018 C1012 1.368 . S
C1018 C1017 1.523 . S
C1019 C1003 1.429 . S
C1019 C1015 1.429 . S
C1019 C1020 1.523 . S
C1020 C1004 1.368 . S
C1020 C1016 1.368 . S
C1020 C1019 1.523 . S
H1021 C996 0.950 . S
H1022 C998 0.950 . S
H1023 C999 0.949 . S
H1024 C1001 0.950 . S
H1025 C1003 0.950 . S
C1026 C1027 1.349 . S
C1026 C1028 1.327 . S
C1026 H1051 0.950 . S
C1027 C1026 1.349 . S
C1027 C1043 1.349 . S
C1028 C1026 1.327 . S
C1028 C1047 1.429 . S
C1028 H1052 0.950 . S
C1029 C1046 1.574 . S
C1029 C1048 1.368 . S
C1029 H1053 0.949 . S
H1030 C1034 0.949 . S
C1031 C1032 1.349 . S
C1031 C1033 1.327 . S
C1031 H1054 0.950 . S
C1032 C1031 1.349 . S
C1032 C1044 1.349 . S
C1033 C1031 1.327 . S
C1033 C1049 1.429 . S
C1033 H1055 0.950 . S
C1034 H1030 0.949 . S
C1034 C1042 1.574 . S
C1034 C1050 1.368 . S
H1035 C1043 0.950 . S
H1036 C1041 0.950 . S
H1037 C1042 0.949 . S
H1038 C1044 0.950 . S
H1039 C1045 0.950 . S
H1040 C1046 0.949 . S
C1041 H1036 0.950 . S
C1041 C1043 1.327 . S
C1041 C1047 1.429 . S
C1042 C1034 1.574 . S
C1042 H1037 0.949 . S
C1042 C1048 1.368 . S
C1043 C1027 1.349 . S
C1043 H1035 0.950 . S
C1043 C1041 1.327 . S
C1044 C1032 1.349 . S
C1044 H1038 0.950 . S
C1044 C1045 1.327 . S
C1045 H1039 0.950 . S
C1045 C1044 1.327 . S
C1045 C1049 1.429 . S
C1046 C1029 1.574 . S
C1046 H1040 0.949 . S
C1046 C1050 1.368 . S
C1047 C1028 1.429 . S
C1047 C1041 1.429 . S
C1047 C1048 1.523 . S
C1048 C1029 1.368 . S
C1048 C1042 1.368 . S
C1048 C1047 1.523 . S
C1049 C1033 1.429 . S
C1049 C1045 1.429 . S
C1049 C1050 1.523 . S
C1050 C1034 1.368 . S
C1050 C1046 1.368 . S
C1050 C1049 1.523 . S
H1051 C1026 0.950 . S
H1052 C1028 0.950 . S
H1053 C1029 0.949 . S
H1054 C1031 0.950 . S
H1055 C1033 0.950 . S
C1056 C1057 1.349 . S
C1056 C1058 1.327 . S
C1056 H1081 0.950 . S
C1057 C1056 1.349 . S
C1057 C1073 1.349 . S
C1058 C1056 1.327 . S
C1058 C1077 1.429 . S
C1058 H1082 0.950 . S
C1059 C1076 1.574 . S
C1059 C1078 1.368 . S
C1059 H1083 0.949 . S
H1060 C1064 0.949 . S
C1061 C1062 1.349 . S
C1061 C1063 1.327 . S
C1061 H1084 0.950 . S
C1062 C1061 1.349 . S
C1062 C1074 1.349 . S
C1063 C1061 1.327 . S
C1063 C1079 1.429 . S
C1063 H1085 0.950 . S
C1064 H1060 0.949 . S
C1064 C1072 1.574 . S
C1064 C1080 1.368 . S
H1065 C1073 0.950 . S
H1066 C1071 0.950 . S
H1067 C1072 0.949 . S
H1068 C1074 0.950 . S
H1069 C1075 0.950 . S
H1070 C1076 0.949 . S
C1071 H1066 0.950 . S
C1071 C1073 1.327 . S
C1071 C1077 1.429 . S
C1072 C1064 1.574 . S
C1072 H1067 0.949 . S
C1072 C1078 1.368 . S
C1073 C1057 1.349 . S
C1073 H1065 0.950 . S
C1073 C1071 1.327 . S
C1074 C1062 1.349 . S
C1074 H1068 0.950 . S
C1074 C1075 1.327 . S
C1075 H1069 0.950 . S
C1075 C1074 1.327 . S
C1075 C1079 1.429 . S
C1076 C1059 1.574 . S
C1076 H1070 0.949 . S
C1076 C1080 1.368 . S
C1077 C1058 1.429 . S
C1077 C1071 1.429 . S
C1077 C1078 1.523 . S
C1078 C1059 1.368 . S
C1078 C1072 1.368 . S
C1078 C1077 1.523 . S
C1079 C1063 1.429 . S
C1079 C1075 1.429 . S
C1079 C1080 1.523 . S
C1080 C1064 1.368 . S
C1080 C1076 1.368 . S
C1080 C1079 1.523 . S
H1081 C1056 0.950 . S
H1082 C1058 0.950 . S
H1083 C1059 0.949 . S
H1084 C1061 0.950 . S
H1085 C1063 0.950 . S
C1086 C1087 1.349 . S
C1086 C1088 1.327 . S
C1086 H1111 0.950 . S
C1087 C1086 1.349 . S
C1087 C1103 1.349 . S
C1088 C1086 1.327 . S
C1088 C1107 1.429 . S
C1088 H1112 0.950 . S
C1089 C1106 1.574 . S
C1089 C1108 1.368 . S
C1089 H1113 0.949 . S
H1090 C1094 0.949 . S
C1091 C1092 1.349 . S
C1091 C1093 1.327 . S
C1091 H1114 0.950 . S
C1092 C1091 1.349 . S
C1092 C1104 1.349 . S
C1093 C1091 1.327 . S
C1093 C1109 1.429 . S
C1093 H1115 0.950 . S
C1094 H1090 0.949 . S
C1094 C1102 1.574 . S
C1094 C1110 1.368 . S
H1095 C1103 0.950 . S
H1096 C1101 0.950 . S
H1097 C1102 0.949 . S
H1098 C1104 0.950 . S
H1099 C1105 0.950 . S
H1100 C1106 0.949 . S
C1101 H1096 0.950 . S
C1101 C1103 1.327 . S
C1101 C1107 1.429 . S
C1102 C1094 1.574 . S
C1102 H1097 0.949 . S
C1102 C1108 1.368 . S
C1103 C1087 1.349 . S
C1103 H1095 0.950 . S
C1103 C1101 1.327 . S
C1104 C1092 1.349 . S
C1104 H1098 0.950 . S
C1104 C1105 1.327 . S
C1105 H1099 0.950 . S
C1105 C1104 1.327 . S
C1105 C1109 1.429 . S
C1106 C1089 1.574 . S
C1106 H1100 0.949 . S
C1106 C1110 1.368 . S
C1107 C1088 1.429 . S
C1107 C1101 1.429 . S
C1107 C1108 1.523 . S
C1108 C1089 1.368 . S
C1108 C1102 1.368 . S
C1108 C1107 1.523 . S
C1109 C1093 1.429 . S
C1109 C1105 1.429 . S
C1109 C1110 1.523 . S
C1110 C1094 1.368 . S
C1110 C1106 1.368 . S
C1110 C1109 1.523 . S
H1111 C1086 0.950 . S
H1112 C1088 0.950 . S
H1113 C1089 0.949 . S
H1114 C1091 0.950 . S
H1115 C1093 0.950 . S
C1116 C1117 1.349 . S
C1116 C1118 1.327 . S
C1116 H1141 0.950 . S
C1117 C1116 1.349 . S
C1117 C1133 1.349 . S
C1118 C1116 1.327 . S
C1118 C1137 1.429 . S
C1118 H1142 0.950 . S
C1119 C1136 1.580 . S
C1119 C1138 1.364 1_556 S
C1119 H1143 0.948 1_556 S
H1120 C1124 0.949 . S
C1121 C1122 1.349 . S
C1121 C1123 1.327 . S
C1121 H1144 0.950 . S
C1122 C1121 1.349 . S
C1122 C1134 1.349 . S
C1123 C1121 1.327 . S
C1123 C1139 1.429 . S
C1123 H1145 0.950 . S
C1124 H1120 0.949 . S
C1124 C1132 1.574 1_556 S
C1124 C1140 1.368 . S
H1125 C1133 0.950 . S
H1126 C1131 0.950 . S
H1127 C1132 0.949 . S
H1128 C1134 0.950 . S
H1129 C1135 0.950 . S
H1130 C1136 0.949 . S
C1131 H1126 0.950 . S
C1131 C1133 1.327 . S
C1131 C1137 1.429 . S
C1132 C1124 1.574 1_554 S
C1132 H1127 0.949 . S
C1132 C1138 1.368 . S
C1133 C1117 1.349 . S
C1133 H1125 0.950 . S
C1133 C1131 1.327 . S
C1134 C1122 1.349 . S
C1134 H1128 0.950 . S
C1134 C1135 1.327 . S
C1135 H1129 0.950 . S
C1135 C1134 1.327 . S
C1135 C1139 1.429 . S
C1136 C1119 1.580 . S
C1136 H1130 0.949 . S
C1136 C1140 1.368 . S
C1137 C1118 1.429 . S
C1137 C1131 1.429 . S
C1137 C1138 1.523 . S
C1138 C1119 1.364 1_554 S
C1138 C1132 1.368 . S
C1138 C1137 1.523 . S
C1139 C1123 1.429 . S
C1139 C1135 1.429 . S
C1139 C1140 1.523 . S
C1140 C1124 1.368 . S
C1140 C1136 1.368 . S
C1140 C1139 1.523 . S
H1141 C1116 0.950 . S
H1142 C1118 0.950 . S
H1143 C1119 0.948 1_554 S
H1144 C1121 0.950 . S
H1145 C1123 0.950 . S
C1146 C1147 1.349 . S
C1146 C1148 1.327 . S
C1146 H1171 0.950 . S
C1147 C1146 1.349 . S
C1147 C1163 1.349 . S
C1148 C1146 1.327 . S
C1148 C1167 1.429 . S
C1148 H1172 0.950 . S
C1149 C1166 1.574 . S
C1149 C1168 1.368 . S
C1149 H1173 0.949 . S
H1150 C1154 0.949 . S
C1151 C1152 1.349 . S
C1151 C1153 1.327 . S
C1151 H1174 0.950 . S
C1152 C1151 1.349 . S
C1152 C1164 1.349 . S
C1153 C1151 1.327 . S
C1153 C1169 1.429 . S
C1153 H1175 0.950 . S
C1154 H1150 0.949 . S
C1154 C1162 1.574 . S
C1154 C1170 1.368 . S
H1155 C1163 0.950 . S
H1156 C1161 0.950 . S
H1157 C1162 0.949 . S
H1158 C1164 0.950 . S
H1159 C1165 0.950 . S
H1160 C1166 0.949 . S
C1161 H1156 0.950 . S
C1161 C1163 1.327 . S
C1161 C1167 1.429 . S
C1162 C1154 1.574 . S
C1162 H1157 0.949 . S
C1162 C1168 1.368 . S
C1163 C1147 1.349 . S
C1163 H1155 0.950 . S
C1163 C1161 1.327 . S
C1164 C1152 1.349 . S
C1164 H1158 0.950 . S
C1164 C1165 1.327 . S
C1165 H1159 0.950 . S
C1165 C1164 1.327 . S
C1165 C1169 1.429 . S
C1166 C1149 1.574 . S
C1166 H1160 0.949 . S
C1166 C1170 1.368 . S
C1167 C1148 1.429 . S
C1167 C1161 1.429 . S
C1167 C1168 1.523 . S
C1168 C1149 1.368 . S
C1168 C1162 1.368 . S
C1168 C1167 1.523 . S
C1169 C1153 1.429 . S
C1169 C1165 1.429 . S
C1169 C1170 1.523 . S
C1170 C1154 1.368 . S
C1170 C1166 1.368 . S
C1170 C1169 1.523 . S
H1171 C1146 0.950 . S
H1172 C1148 0.950 . S
H1173 C1149 0.949 . S
H1174 C1151 0.950 . S
H1175 C1153 0.950 . S
C462 C447 1.313 . S
C457 C29 1.471 . S
C487 C115 1.472 . S
C492 C377 1.260 . S
C517 C153 1.449 . S
C522 C397 1.540 . S
C547 C239 1.340 . S
C552 C411 1.353 . S
C582 C419 1.236 . S
C577 C301 1.450 . S
C607 C339 1.725 . S
C612 C433 1.543 . S
C637 C91 1.502 . S
C642 C391 1.352 . S
C667 C177 1.398 . S
C672 C405 1.195 . S
C697 C215 1.367 . S
C702 C425 1.449 . S
C732 C439 1.802 . S
C727 C277 1.690 . S
C762 C453 1.449 . S
C757 C363 1.427 . S
C792 C383 1.408 . S
C787 C53 1.392 . S
C817 C35 1.486 . S
C822 C390 1.489 . S
C847 C109 1.365 . S
C852 C404 1.437 . S
C882 C426 1.393 . S
C877 C159 1.369 . S
C907 C233 1.571 . S
C912 C440 1.704 . S
C942 C454 1.472 . S
C937 C295 1.339 . S
C972 C384 1.257 . S
C967 C345 1.234 . S
C1002 C446 1.360 . S
C997 C97 1.367 . S
C1027 C171 1.335 . S
C1032 C376 1.412 . S
C1062 C398 1.508 . S
C1057 C221 1.474 . S
C1087 C283 1.299 . S
C1092 C412 1.320 . S
C1117 C357 1.416 . S
C1122 C418 1.505 . S
C1147 C47 1.602 . S
C1152 C432 1.686 . S
