# Generated by pormake.
# Topology zzz, (3,6)-cn, num edge types: 1
# Building blocks:
#     Node 0, Type 0, BuildingBlock: PAMTOO_clean_linker_0, # of connection points: 3
#     Node 1, Type 0, BuildingBlock: PAMTOO_clean_linker_0, # of connection points: 3
#     Node 2, Type 0, BuildingBlock: PAMTOO_clean_linker_0, # of connection points: 3
#     Node 3, Type 0, BuildingBlock: PAMTOO_clean_linker_0, # of connection points: 3
#     Node 4, Type 0, BuildingBlock: PAMTOO_clean_linker_0, # of connection points: 3
#     Node 5, Type 0, BuildingBlock: PAMTOO_clean_linker_0, # of connection points: 3
#     Node 6, Type 0, BuildingBlock: PAMTOO_clean_linker_0, # of connection points: 3
#     Node 7, Type 0, BuildingBlock: PAMTOO_clean_linker_0, # of connection points: 3
#     Node 8, Type 1, BuildingBlock: CUKXOW_clean_sbu_0, # of connection points: 6
#     Node 9, Type 1, BuildingBlock: CUKXOW_clean_sbu_0, # of connection points: 6
#     Node 10, Type 1, BuildingBlock: CUKXOW_clean_sbu_0, # of connection points: 6
#     Node 11, Type 1, BuildingBlock: CUKXOW_clean_sbu_0, # of connection points: 6
#     Edge 12, Type (0, 1), BuildingBlock: KIFKEQ_clean_linker_1, # of connection points: 2
#     Edge 13, Type (0, 1), BuildingBlock: KIFKEQ_clean_linker_1, # of connection points: 2
#     Edge 14, Type (0, 1), BuildingBlock: KIFKEQ_clean_linker_1, # of connection points: 2
#     Edge 15, Type (0, 1), BuildingBlock: KIFKEQ_clean_linker_1, # of connection points: 2
#     Edge 16, Type (0, 1), BuildingBlock: KIFKEQ_clean_linker_1, # of connection points: 2
#     Edge 17, Type (0, 1), BuildingBlock: KIFKEQ_clean_linker_1, # of connection points: 2
#     Edge 18, Type (0, 1), BuildingBlock: KIFKEQ_clean_linker_1, # of connection points: 2
#     Edge 19, Type (0, 1), BuildingBlock: KIFKEQ_clean_linker_1, # of connection points: 2
#     Edge 20, Type (0, 1), BuildingBlock: KIFKEQ_clean_linker_1, # of connection points: 2
#     Edge 21, Type (0, 1), BuildingBlock: KIFKEQ_clean_linker_1, # of connection points: 2
#     Edge 22, Type (0, 1), BuildingBlock: KIFKEQ_clean_linker_1, # of connection points: 2
#     Edge 23, Type (0, 1), BuildingBlock: KIFKEQ_clean_linker_1, # of connection points: 2
#     Edge 24, Type (0, 1), BuildingBlock: KIFKEQ_clean_linker_1, # of connection points: 2
#     Edge 25, Type (0, 1), BuildingBlock: KIFKEQ_clean_linker_1, # of connection points: 2
#     Edge 26, Type (0, 1), BuildingBlock: KIFKEQ_clean_linker_1, # of connection points: 2
#     Edge 27, Type (0, 1), BuildingBlock: KIFKEQ_clean_linker_1, # of connection points: 2
#     Edge 28, Type (0, 1), BuildingBlock: KIFKEQ_clean_linker_1, # of connection points: 2
#     Edge 29, Type (0, 1), BuildingBlock: KIFKEQ_clean_linker_1, # of connection points: 2
#     Edge 30, Type (0, 1), BuildingBlock: KIFKEQ_clean_linker_1, # of connection points: 2
#     Edge 31, Type (0, 1), BuildingBlock: KIFKEQ_clean_linker_1, # of connection points: 2
#     Edge 32, Type (0, 1), BuildingBlock: KIFKEQ_clean_linker_1, # of connection points: 2
#     Edge 33, Type (0, 1), BuildingBlock: KIFKEQ_clean_linker_1, # of connection points: 2
#     Edge 34, Type (0, 1), BuildingBlock: KIFKEQ_clean_linker_1, # of connection points: 2
#     Edge 35, Type (0, 1), BuildingBlock: KIFKEQ_clean_linker_1, # of connection points: 2
# Relax obj value: 0.065
# Max RMSD: 0.118
# Mean RMSD: 0.081
data_MOF--net-zzz--node1-CUKXOW_clean_sbu_0--node2-PAMTOO_clean_linker_0--edge1-KIFKEQ_clean_linker_1
_symmetry_space_group_name_H-M    P1
_symmetry_Int_Tables_number       1
_symmetry_cell_setting            triclinic
loop_
_symmetry_equiv_pos_as_xyz
'x, y, z'
_cell_length_a     51.399943
_cell_length_b     53.384162
_cell_length_c     16.018547
_cell_angle_alpha  93.184111
_cell_angle_beta   86.757335
_cell_angle_gamma 93.772969
loop_
_atom_site_label
_atom_site_type_symbol
_atom_site_fract_x
_atom_site_fract_y
_atom_site_fract_z
_atom_type_partial_charge
H0 H 0.83618 0.53576 0.14364 0.0
H1 H 0.7713 0.52841 0.98436 0.0
H2 H 0.75775 0.53428 0.25271 0.0
H3 H 0.71593 0.5015 0.1657 0.0
C4 C 0.72071 0.50813 0.10169 0.0
O5 O 0.73546 0.53064 0.1075 0.0
H6 H 0.7319 0.49348 0.06601 0.0
C7 C 0.81526 0.53502 0.13633 0.0
C8 C 0.79823 0.53563 0.20741 0.0
C9 C 0.80578 0.53226 0.0561 0.0
C10 C 0.77882 0.53067 0.04635 0.0
C11 C 0.76146 0.53175 0.1173 0.0
C12 C 0.77116 0.53394 0.19807 0.0
H13 H 0.96006 0.8404 0.0904 0.0
H14 H 0.97901 0.77962 0.91504 0.0
H15 H 0.96333 0.76584 0.17607 0.0
H16 H 0.00494 0.73635 0.09129 0.0
C17 C 0.99853 0.73567 0.02595 0.0
O18 O 0.97415 0.74503 0.02613 0.0
H19 H 0.01295 0.74738 0.98803 0.0
C20 C 0.96216 0.82045 0.07674 0.0
C21 C 0.9602 0.80414 0.14243 0.0
C22 C 0.96927 0.81193 0.99511 0.0
C23 C 0.97325 0.7864 0.97796 0.0
C24 C 0.97043 0.76965 0.04295 0.0
C25 C 0.96437 0.7786 0.12554 0.0
H26 H 0.66363 0.97389 0.10904 0.0
H27 H 0.73462 0.97473 0.9539 0.0
H28 H 0.73768 0.98241 0.22233 0.0
H29 H 0.7806 0.01216 0.1378 0.0
C30 C 0.77866 0.00339 0.07365 0.0
O31 O 0.76559 0.98004 0.07905 0.0
H32 H 0.76742 0.01605 0.0383 0.0
C33 C 0.68479 0.97402 0.10295 0.0
C34 C 0.69902 0.97793 0.17484 0.0
C35 C 0.6973 0.97297 0.02317 0.0
C36 C 0.72466 0.97467 0.01535 0.0
C37 C 0.73924 0.97738 0.08729 0.0
C38 C 0.7264 0.979 0.16725 0.0
H39 H 0.56597 0.67578 0.14147 0.0
H40 H 0.55207 0.73769 0.99283 0.0
H41 H 0.56645 0.75071 0.25459 0.0
H42 H 0.53286 0.7897 0.19673 0.0
C43 C 0.53519 0.78388 0.12915 0.0
O44 O 0.5583 0.77217 0.11461 0.0
H45 H 0.5182 0.7707 0.11384 0.0
C46 C 0.56498 0.69586 0.13552 0.0
C47 C 0.56733 0.71209 0.20659 0.0
C48 C 0.55924 0.70478 0.05859 0.0
C49 C 0.5567 0.73057 0.0519 0.0
C50 C 0.55995 0.74722 0.12212 0.0
C51 C 0.56484 0.73793 0.19991 0.0
H52 H 0.18474 0.49045 0.25626 0.0
H53 H 0.24822 0.50004 0.42109 0.0
H54 H 0.26354 0.50119 0.15391 0.0
H55 H 0.30649 0.47738 0.23351 0.0
C56 C 0.30016 0.48265 0.29933 0.0
O57 O 0.28487 0.50298 0.30023 0.0
H58 H 0.28884 0.46602 0.3251 0.0
C59 C 0.20556 0.4927 0.26532 0.0
C60 C 0.223 0.49525 0.19576 0.0
C61 C 0.21437 0.49464 0.34655 0.0
C62 C 0.24117 0.49841 0.35841 0.0
C63 C 0.25897 0.50011 0.28874 0.0
C64 C 0.24984 0.49906 0.20736 0.0
H65 H 0.05505 0.17884 0.31768 0.0
H66 H 0.03536 0.24074 0.48758 0.0
H67 H 0.04544 0.25118 0.22274 0.0
H68 H 0.06427 0.29663 0.31245 0.0
C69 C 0.05691 0.2919 0.3766 0.0
O70 O 0.03662 0.27368 0.37111 0.0
H71 H 0.07321 0.28463 0.40933 0.0
C72 C 0.05184 0.19867 0.32899 0.0
C73 C 0.05161 0.21393 0.2609 0.0
C74 C 0.04564 0.20797 0.41057 0.0
C75 C 0.04031 0.23332 0.42478 0.0
C76 C 0.04101 0.24908 0.35716 0.0
C77 C 0.04593 0.2392 0.27498 0.0
H78 H 0.35093 0.04126 0.2798 0.0
H79 H 0.28112 0.03053 0.43823 0.0
H80 H 0.27637 0.03018 0.17059 0.0
H81 H 0.23041 0.05353 0.2569 0.0
C82 C 0.23341 0.04753 0.32087 0.0
O83 O 0.24931 0.02758 0.31499 0.0
H84 H 0.2428 0.06393 0.35635 0.0
C85 C 0.32979 0.03914 0.2875 0.0
C86 C 0.31514 0.03662 0.21632 0.0
C87 C 0.31789 0.03668 0.36762 0.0
C88 C 0.29063 0.03266 0.37669 0.0
C89 C 0.27559 0.03103 0.30577 0.0
C90 C 0.28792 0.0324 0.22535 0.0
H91 H 0.46179 0.34231 0.25925 0.0
H92 H 0.47729 0.2815 0.41053 0.0
H93 H 0.45824 0.26649 0.15319 0.0
H94 H 0.4363 0.22466 0.25647 0.0
C95 C 0.44652 0.23077 0.31421 0.0
O96 O 0.46833 0.24609 0.29315 0.0
H97 H 0.43254 0.24122 0.35655 0.0
C98 C 0.46274 0.32229 0.26661 0.0
C99 C 0.45876 0.30547 0.19791 0.0
C100 C 0.46976 0.31395 0.34285 0.0
C101 C 0.47187 0.28819 0.35168 0.0
C102 C 0.46697 0.27098 0.28388 0.0
C103 C 0.46105 0.27969 0.20625 0.0
Tb104 Tb 0.99808 0.9907 0.6236 0.0
C105 C 0.05613 0.01393 0.61615 0.0
Tb106 Tb 0.01564 0.02942 0.76667 0.0
O107 O 1.00253 0.01998 0.53242 0.0
O108 O 0.99356 0.02871 0.65927 0.0
O109 O 0.03969 0.99537 0.58886 0.0
C110 C 0.03058 0.07232 0.84893 0.0
O111 O 0.04998 0.0301 0.67933 0.0
C112 C 0.01411 0.98199 0.80096 0.0
C113 C 0.95745 0.00757 0.77395 0.0
O114 O 0.03831 0.05031 0.86301 0.0
O115 O 0.01437 0.07001 0.78961 0.0
O116 O 0.01262 1.00006 0.85869 0.0
O117 O 0.01954 0.99131 0.73126 0.0
O118 O 0.97419 0.02591 0.80064 0.0
O119 O 0.96327 0.99118 0.71077 0.0
C120 C 0.98442 0.94751 0.54106 0.0
O121 O 0.97351 0.9686 0.53501 0.0
O122 O 1.0032 0.95094 0.59197 0.0
C123 C 0.99949 0.03799 0.58973 0.0
Tb124 Tb 0.50675 0.03447 0.66534 0.0
C125 C 0.54958 0.99956 0.58887 0.0
Tb126 Tb 0.51005 0.98175 0.73822 0.0
O127 O 0.54526 0.04699 0.70809 0.0
O128 O 0.52244 0.01947 0.76995 0.0
O129 O 0.53504 0.01848 0.57526 0.0
C130 C 0.52283 0.94097 0.81242 0.0
O131 O 0.54452 0.98424 0.65132 0.0
C132 C 0.47196 0.98562 0.6385 0.0
C133 C 0.46703 0.01695 0.814 0.0
O134 O 0.51674 0.94156 0.73496 0.0
O135 O 0.52185 0.96339 0.84785 0.0
O136 O 0.47161 0.96909 0.69509 0.0
O137 O 0.49439 0.99673 0.63381 0.0
O138 O 0.4815 0.99797 0.82803 0.0
O139 O 0.47235 0.03204 0.75123 0.0
C140 C 0.49349 0.07541 0.5934 0.0
O141 O 0.49258 0.05277 0.55902 0.0
O142 O 0.50181 0.07496 0.66832 0.0
C143 C 0.54489 0.03054 0.76495 0.0
Tb144 Tb 0.52035 0.53004 0.64918 0.0
C145 C 0.46183 0.50976 0.63314 0.0
Tb146 Tb 0.49624 0.49104 0.77628 0.0
O147 O 0.51986 0.5013 0.54506 0.0
O148 O 0.52154 0.49147 0.66868 0.0
O149 O 0.47992 0.52783 0.61404 0.0
C150 C 0.47973 0.44763 0.84209 0.0
O151 O 0.46493 0.49288 0.68945 0.0
C152 C 0.49801 0.53823 0.82943 0.0
C153 C 0.55463 0.51201 0.79313 0.0
O154 O 0.46853 0.46873 0.85647 0.0
O155 O 0.50024 0.45118 0.79235 0.0
O156 O 0.49818 0.51977 0.87927 0.0
O157 O 0.49445 0.52942 0.75622 0.0
O158 O 0.53647 0.49405 0.81205 0.0
O159 O 0.55171 0.52885 0.73649 0.0
C160 C 0.53893 0.57276 0.5817 0.0
O161 O 0.54637 0.55047 0.55896 0.0
O162 O 0.52108 0.57086 0.6418 0.0
C163 C 0.51849 0.48279 0.595 0.0
Tb164 Tb 0.98859 0.51355 0.64051 0.0
C165 C 0.01276 0.46088 0.6455 0.0
Tb166 Tb 0.03045 0.50752 0.76892 0.0
O167 O 0.01821 0.51028 0.53744 0.0
O168 O 0.0283 0.52512 0.65535 0.0
O169 O 0.99368 0.47344 0.61789 0.0
C170 C 0.07546 0.50253 0.84031 0.0
O171 O 0.02932 0.47069 0.70139 0.0
C172 C 0.98167 0.50152 0.82567 0.0
C173 C 0.00713 0.55957 0.76172 0.0
O174 O 0.07035 0.49492 0.76435 0.0
O175 O 0.05508 0.51246 0.8764 0.0
O176 O 1.00078 0.50837 0.87326 0.0
O177 O 0.99102 0.49581 0.75375 0.0
O178 O 0.0288 0.5481 0.77174 0.0
O179 O 0.98741 0.54832 0.72079 0.0
C180 C 0.94421 0.52078 0.56845 0.0
O181 O 0.96685 0.53193 0.54965 0.0
O182 O 0.94668 0.50538 0.62685 0.0
C183 C 0.03736 0.51806 0.58405 0.0
H184 H 0.18708 0.03208 0.25124 0.0
H185 H 0.22212 0.04557 0.48916 0.0
H186 H 0.14465 0.02242 0.32328 0.0
H187 H 0.17984 0.0355 0.56182 0.0
H188 H 0.09551 0.04888 0.65517 0.0
H189 H 0.13837 0.05501 0.58459 0.0
H190 H 0.11997 0.99228 0.41136 0.0
H191 H 0.07673 0.98631 0.48128 0.0
C192 C 0.18565 0.03279 0.31905 0.0
C193 C 0.20764 0.04002 0.36489 0.0
C194 C 0.16143 0.02711 0.36036 0.0
C195 C 0.15877 0.02842 0.44839 0.0
C196 C 0.18109 0.03479 0.49401 0.0
C197 C 0.20529 0.04043 0.45264 0.0
C198 C 0.10054 0.03629 0.60226 0.0
C199 C 0.08256 0.01708 0.57406 0.0
C200 C 0.12525 0.03972 0.56205 0.0
C201 C 0.13268 0.02409 0.49244 0.0
C202 C 0.11479 0.0048 0.46434 0.0
C203 C 0.09003 1.00131 0.50476 0.0
H204 H 0.46734 0.18863 0.24065 0.0
H205 H 0.44398 0.22229 0.48183 0.0
H206 H 0.47941 0.15129 0.30774 0.0
H207 H 0.45517 0.1848 0.54926 0.0
H208 H 0.50098 0.12407 0.65146 0.0
H209 H 0.4909 0.16182 0.58367 0.0
H210 H 0.45995 0.1156 0.37751 0.0
H211 H 0.4709 0.07794 0.44448 0.0
C212 C 0.4647 0.18789 0.30806 0.0
C213 C 0.45443 0.20808 0.35606 0.0
C214 C 0.47142 0.1665 0.34654 0.0
C215 C 0.46807 0.16488 0.43399 0.0
C216 C 0.45826 0.18542 0.48196 0.0
C217 C 0.45166 0.20683 0.44343 0.0
C218 C 0.49202 0.12204 0.59166 0.0
C219 C 0.48676 0.09814 0.55306 0.0
C220 C 0.48611 0.14366 0.55292 0.0
C221 C 0.4746 0.14184 0.47495 0.0
C222 C 0.46921 0.11779 0.43677 0.0
C223 C 0.4753 0.09618 0.47532 0.0
H224 H 0.34992 0.49819 0.24556 0.0
H225 H 0.30246 0.48222 0.4692 0.0
H226 H 0.38827 0.50644 0.32896 0.0
H227 H 0.34064 0.49088 0.55345 0.0
H228 H 0.42025 0.47544 0.6526 0.0
H229 H 0.38088 0.47088 0.57438 0.0
H230 H 0.40785 0.53531 0.43438 0.0
H231 H 0.44756 0.5397 0.51174 0.0
C232 C 0.34775 0.49662 0.31277 0.0
C233 C 0.32346 0.48911 0.35103 0.0
C234 C 0.36962 0.5015 0.36065 0.0
C235 C 0.36758 0.49913 0.44788 0.0
C236 C 0.34299 0.49243 0.48628 0.0
C237 C 0.32114 0.48758 0.43833 0.0
C238 C 0.41779 0.48877 0.60559 0.0
C239 C 0.43718 0.50792 0.58852 0.0
C240 C 0.39508 0.48623 0.56097 0.0
C241 C 0.39119 0.50272 0.49804 0.0
C242 C 0.41038 0.5221 0.48176 0.0
C243 C 0.43309 0.52468 0.52652 0.0
H244 H 0.00838 0.31191 0.38322 0.0
H245 H 0.08632 0.326 0.46897 0.0
H246 H 0.99569 0.35141 0.45335 0.0
H247 H 0.07414 0.36589 0.53609 0.0
H248 H 0.04082 0.42555 0.71006 0.0
H249 H 0.04931 0.38386 0.65032 0.0
H250 H 1.00211 0.39581 0.44287 0.0
H251 H 0.99285 0.4373 0.50446 0.0
C252 C 0.02271 0.32335 0.41786 0.0
C253 C 0.04815 0.31553 0.42291 0.0
C254 C 0.01555 0.34613 0.45725 0.0
C255 C 0.0338 0.36182 0.50116 0.0
C256 C 0.05933 0.35406 0.50487 0.0
C257 C 0.0664 0.33125 0.46612 0.0
C258 C 0.03206 0.41924 0.65204 0.0
C259 C 0.01623 0.43482 0.61189 0.0
C260 C 0.03707 0.39534 0.6174 0.0
C261 C 0.02666 0.38649 0.54116 0.0
C262 C 0.01025 0.40184 0.50209 0.0
C263 C 0.00501 0.4257 0.53727 0.0
H264 H 0.7902 0.99615 0.90564 0.0
H265 H 0.82636 0.00466 0.1428 0.0
H266 H 0.83336 0.99542 0.83245 0.0
H267 H 0.86948 0.0036 0.07038 0.0
H268 H 0.93935 0.03543 0.91073 0.0
H269 H 0.89643 0.03212 0.98225 0.0
H270 H 0.87274 0.97127 0.80841 0.0
H271 H 0.91583 0.97471 0.7356 0.0
C272 C 0.80745 0.99763 0.94189 0.0
C273 C 0.80509 1.00092 0.02951 0.0
C274 C 0.83211 0.99708 0.90022 0.0
C275 C 0.85489 0.99974 0.94554 0.0
C276 C 0.85236 1.002 0.03355 0.0
C277 C 0.82772 1.00249 0.07508 0.0
C278 C 0.92507 0.0213 0.88741 0.0
C279 C 0.93111 0.00538 0.81705 0.0
C280 C 0.90047 0.01929 0.92903 0.0
C281 C 0.88118 1.00134 0.9014 0.0
C282 C 0.88712 0.98542 0.83092 0.0
C283 C 0.91185 0.98734 0.78936 0.0
H284 H 0.50698 0.79089 0.99267 0.0
H285 H 0.56468 0.82809 0.14981 0.0
H286 H 0.50616 0.82869 0.91413 0.0
H287 H 0.56463 0.86585 0.06976 0.0
H288 H 0.53213 0.93733 0.97686 0.0
H289 H 0.53693 0.89919 0.05028 0.0
H290 H 0.53034 0.85493 0.81724 0.0
H291 H 0.52476 0.89311 0.74465 0.0
C292 C 0.51965 0.80717 0.00985 0.0
C293 C 0.53565 0.80676 0.07786 0.0
C294 C 0.51937 0.82878 0.96446 0.0
C295 C 0.53527 0.85044 0.98564 0.0
C296 C 0.5518 0.84971 0.05253 0.0
C297 C 0.55197 0.82809 0.0981 0.0
C298 C 0.53188 0.91944 0.94138 0.0
C299 C 0.52791 0.91812 0.85525 0.0
C300 C 0.5348 0.89757 0.98331 0.0
C301 C 0.5339 0.87388 0.9399 0.0
C302 C 0.53067 0.87276 0.85304 0.0
C303 C 0.52766 0.89464 0.81123 0.0
H304 H 0.67042 0.50955 0.16844 0.0
H305 H 0.71616 0.51463 0.93521 0.0
H306 H 0.6305 0.51273 0.09465 0.0
H307 H 0.67619 0.51753 0.86058 0.0
H308 H 0.59913 0.54285 0.76728 0.0
H309 H 0.63929 0.54425 0.84296 0.0
H310 H 0.6057 0.48516 -0.0035 0.0
H311 H 0.56574 0.48387 0.92227 0.0
C312 C 0.67186 0.5114 0.1013 0.0
C313 C 0.69623 0.51147 0.05712 0.0
C314 C 0.64905 0.51312 0.05896 0.0
C315 C 0.65013 0.51512 0.97157 0.0
C316 C 0.67468 0.51615 0.9279 0.0
C317 C 0.69751 0.51433 0.97033 0.0
C318 C 0.60031 0.53019 0.81725 0.0
C319 C 0.57917 0.5132 0.83833 0.0
C320 C 0.62336 0.53094 0.86041 0.0
C321 C 0.62566 0.51488 0.926 0.0
C322 C 0.60446 0.49805 0.94721 0.0
C323 C 0.58157 0.49719 0.90396 0.0
H324 H 0.98392 0.71916 0.86981 0.0
H325 H 0.01173 0.69288 0.09644 0.0
H326 H 0.98489 0.67655 0.80457 0.0
H327 H 0.01258 0.65036 0.03199 0.0
H328 H 0.04244 0.58723 0.85557 0.0
H329 H 0.03893 0.62936 0.91897 0.0
H330 H 0.96368 0.63318 0.81503 0.0
H331 H 0.9672 0.59083 0.75051 0.0
C332 C 0.98996 0.70416 0.90574 0.0
C333 C 0.99768 0.7092 0.98803 0.0
C334 C 0.99044 0.67981 0.86868 0.0
C335 C 0.99891 0.66012 0.91304 0.0
C336 C 0.00627 0.66519 0.99584 0.0
C337 C 0.00566 0.68947 0.03293 0.0
C338 C 0.02513 0.59699 0.84577 0.0
C339 C 0.0051 0.5856 0.79774 0.0
C340 C 0.02306 0.62112 0.88276 0.0
C341 C 1.00096 0.63454 0.87253 0.0
C342 C 0.98103 0.62335 0.82362 0.0
C343 C 0.98302 0.59907 0.78687 0.0
H344 H 0.0813 0.17844 0.46621 0.0
H345 H 1.0002 0.19488 0.49588 0.0
H346 H 0.07109 0.1381 0.52914 0.0
H347 H 0.98969 0.1543 0.55691 0.0
H348 H 0.9798 0.07841 0.67654 0.0
H349 H 0.99341 0.12289 0.66136 0.0
H350 H 0.0485 0.10176 0.45987 0.0
H351 H 0.0354 0.05755 0.4771 0.0
C352 C 0.06147 0.17382 0.48962 0.0
C353 C 0.0415 0.1896 0.47623 0.0
C354 C 0.05553 0.15061 0.52442 0.0
C355 C 0.02947 0.14272 0.54562 0.0
C356 C 0.00995 0.1598 0.54111 0.0
C357 C 0.01595 0.18313 0.50669 0.0
C358 C 0.99502 0.08343 0.62975 0.0
C359 C 0.00676 0.06472 0.57841 0.0
C360 C 1.00273 0.10881 0.62089 0.0
C361 C 0.02231 0.11585 0.56032 0.0
C362 C 0.03384 0.09697 0.50862 0.0
C363 C 0.02607 0.07168 0.51742 0.0
H364 H 0.35748 0.06981 0.41548 0.0
H365 H 0.31787 0.99861 0.47329 0.0
H366 H 0.39421 0.06007 0.49573 0.0
H367 H 0.35462 0.98861 0.55259 0.0
H368 H 0.42317 0.98028 0.71165 0.0
H369 H 0.38339 0.99711 0.66796 0.0
H370 H 0.42706 0.02964 0.45762 0.0
H371 H 0.46684 0.01274 0.50188 0.0
C372 C 0.3563 0.05246 0.44791 0.0
C373 C 0.33501 0.03485 0.43785 0.0
C374 C 0.37741 0.04674 0.4929 0.0
C375 C 0.3776 0.02331 0.52859 0.0
C376 C 0.35509 0.00684 0.52584 0.0
C377 C 0.33393 0.0126 0.48088 0.0
C378 C 0.42421 0.99102 0.65597 0.0
C379 C 0.44804 0.99541 0.61012 0.0
C380 C 0.40146 1.00072 0.63124 0.0
C381 C 0.40206 0.01487 0.55977 0.0
C382 C 0.42603 0.01932 0.51416 0.0
C383 C 0.44879 0.00962 0.53911 0.0
H384 H 0.51797 0.32674 0.39849 0.0
H385 H 0.43761 0.34565 0.42755 0.0
H386 H 0.53146 0.36668 0.47157 0.0
H387 H 0.4508 0.38546 0.49966 0.0
H388 H 0.4797 0.45103 0.65914 0.0
H389 H 0.46998 0.4071 0.62025 0.0
H390 H 0.532 0.41073 0.42684 0.0
H391 H 0.54264 0.45487 0.47017 0.0
C392 C 0.50317 0.33903 0.42368 0.0
C393 C 0.47678 0.33317 0.40865 0.0
C394 C 0.51087 0.36202 0.4641 0.0
C395 C 0.49224 0.37935 0.49039 0.0
C396 C 0.46564 0.37248 0.48086 0.0
C397 C 0.45801 0.34965 0.44002 0.0
C398 C 0.49192 0.44234 0.6107 0.0
C399 C 0.51249 0.45616 0.56983 0.0
C400 C 0.48604 0.41717 0.58723 0.0
C401 C 0.50035 0.4053 0.52095 0.0
C402 C 0.52096 0.41918 0.47944 0.0
C403 C 0.52687 0.44446 0.50342 0.0
H404 H 0.18122 0.45598 0.39479 0.0
H405 H 0.20166 0.53456 0.44901 0.0
H406 H 0.13912 0.46012 0.4712 0.0
H407 H 0.15926 0.53909 0.5235 0.0
H408 H 0.07972 0.53756 0.66653 0.0
H409 H 0.1256 0.52906 0.63424 0.0
H410 H 0.10278 0.48098 0.42124 0.0
H411 H 0.05721 0.48896 0.45493 0.0
C412 C 0.17705 0.47389 0.42622 0.0
C413 C 0.19452 0.49495 0.41653 0.0
C414 C 0.15285 0.47638 0.46882 0.0
C415 C 0.14559 0.50008 0.50134 0.0
C416 C 0.16425 0.52058 0.49921 0.0
C417 C 0.18859 0.518 0.45703 0.0
C418 C 0.08465 0.52508 0.6131 0.0
C419 C 0.06504 0.51386 0.56317 0.0
C420 C 0.11084 0.52023 0.59467 0.0
C421 C 0.11782 0.50409 0.52586 0.0
C422 C 0.09805 0.49301 0.47594 0.0
C423 C 0.07197 0.49786 0.49437 0.0
H424 H 0.0171 0.8254 0.92627 0.0
H425 H 0.93622 0.8426 0.93214 0.0
H426 H 0.0298 0.86566 0.86432 0.0
H427 H 0.94867 0.88268 0.87025 0.0
H428 H 0.97798 0.94952 0.72772 0.0
H429 H 0.96909 0.90511 0.74967 0.0
H430 H 0.02773 0.90938 0.93361 0.0
H431 H 0.03727 0.95406 0.90856 0.0
C432 C 1.00201 0.83734 0.91069 0.0
C433 C 0.97571 0.83098 0.93295 0.0
C434 C 0.00927 0.86048 0.87661 0.0
C435 C 0.99026 0.87743 0.86364 0.0
C436 C 0.96375 0.86997 0.87909 0.0
C437 C 0.95656 0.84701 0.91399 0.0
C438 C 0.98957 0.94091 0.77072 0.0
C439 C 0.00881 0.95507 0.81465 0.0
C440 C 0.98423 0.91547 0.78414 0.0
C441 C 0.99789 0.90368 0.84264 0.0
C442 C 0.01726 0.91784 0.88674 0.0
C443 C 0.02252 0.94341 0.87325 0.0
H444 H 0.657 0.94094 0.97449 0.0
H445 H 0.69961 0.01063 0.91615 0.0
H446 H 0.62057 0.9525 0.89616 0.0
H447 H 0.6631 0.02264 0.83982 0.0
H448 H 0.55003 1.00216 0.89846 0.0
H449 H 0.58941 0.98348 0.93774 0.0
H450 H 0.63304 0.01747 0.72986 0.0
H451 H 0.59372 0.03633 0.69199 0.0
C452 C 0.65894 0.95826 0.94183 0.0
C453 C 0.68098 0.97495 0.95127 0.0
C454 C 0.63796 0.9651 0.89827 0.0
C455 C 0.63863 0.98881 0.86393 0.0
C456 C 0.66191 0.00424 0.8655 0.0
C457 C 0.68296 0.9973 0.90867 0.0
C458 C 0.56798 0.00526 0.86075 0.0
C459 C 0.56881 0.02033 0.79183 0.0
C460 C 0.59053 0.99451 0.88277 0.0
C461 C 0.61436 0.99869 0.83615 0.0
C462 C 0.61509 0.01393 0.76725 0.0
C463 C 0.59258 0.02478 0.7457 0.0
H464 H 0.5912 0.67075 0.98439 0.0
H465 H 0.51305 0.6956 0.98478 0.0
H466 H 0.57704 0.63121 0.91173 0.0
H467 H 0.4986 0.65582 0.91346 0.0
H468 H 0.48361 0.58069 0.7626 0.0
H469 H 0.50078 0.62404 0.79337 0.0
H470 H 0.54942 0.59735 0.97684 0.0
H471 H 0.53267 0.55432 0.94468 0.0
C472 C 0.57122 0.66807 0.96583 0.0
C473 C 0.55315 0.68604 0.99018 0.0
C474 C 0.56302 0.64536 0.92532 0.0
C475 C 0.53657 0.64017 0.90907 0.0
C476 C 0.5191 0.65928 0.92528 0.0
C477 C 0.52737 0.6821 0.96562 0.0
C478 C 0.49811 0.58426 0.80905 0.0
C479 C 0.50705 0.56434 0.85089 0.0
C480 C 0.50786 0.60897 0.82674 0.0
C481 C 0.52677 0.61405 0.88646 0.0
C482 C 0.53535 0.594 0.92898 0.0
C483 C 0.5255 0.56942 0.91161 0.0
H484 H 0.8181 0.48882 0.97321 0.0
H485 H 0.83802 0.56856 0.98774 0.0
H486 H 0.86025 0.48162 0.9007 0.0
H487 H 0.87992 0.56167 0.91296 0.0
H488 H 0.96236 0.53543 0.94096 0.0
H489 H 0.91679 0.54411 0.97203 0.0
H490 H 0.89324 0.48663 0.78569 0.0
H491 H 0.93908 0.47736 0.75722 0.0
C492 C 0.83098 0.50487 0.95658 0.0
C493 C 0.82498 0.52921 0.98531 0.0
C494 C 0.85519 0.50079 0.91557 0.0
C495 C 0.87366 0.52105 0.90298 0.0
C496 C 0.86632 0.54565 0.92358 0.0
C497 C 0.84222 0.54967 0.96503 0.0
C498 C 0.9474 0.52461 0.90704 0.0
C499 C 0.95408 0.5059 0.84632 0.0
C500 C 0.92133 0.52984 0.92368 0.0
C501 C 0.90138 0.51638 0.88013 0.0
C502 C 0.90814 0.4974 0.81995 0.0
C503 C 0.9343 0.49218 0.80338 0.0
H504 H 0.09315 0.18998 0.19148 0.0
H505 H 0.0153 0.20888 0.14375 0.0
H506 H 0.09213 0.15852 0.07488 0.0
H507 H 0.01369 0.1769 0.02903 0.0
H508 H 0.01804 0.11924 0.81485 0.0
H509 H 0.02793 0.15858 0.8955 0.0
H510 H 0.06921 0.11812 0.0677 0.0
H511 H 0.05994 0.0791 0.98549 0.0
C512 C 0.07619 0.18795 0.15389 0.0
C513 C 0.05431 0.20177 0.17613 0.0
C514 C 0.07541 0.16971 0.088 0.0
C515 C 0.05259 0.16471 0.0439 0.0
C516 C 0.03163 0.18026 0.06131 0.0
C517 C 0.03254 0.1987 0.12681 0.0
C518 C 0.02948 0.1189 0.86949 0.0
C519 C 0.03809 0.09618 0.89454 0.0
C520 C 0.0351 0.1414 0.91576 0.0
C521 C 0.04935 0.14159 0.9882 0.0
C522 C 0.0586 0.11884 0.01147 0.0
C523 C 0.0531 0.09639 0.96491 0.0
H524 H 0.34482 0.07451 0.14641 0.0
H525 H 0.3199 0.99626 0.10737 0.0
H526 H 0.37987 0.06975 0.03847 0.0
H527 H 0.35502 0.9913 -0.0012 0.0
H528 H 0.44438 0.98676 0.93457 0.0
H529 H 0.40322 0.99195 0.01529 0.0
H530 H 0.39272 0.05975 0.88946 0.0
H531 H 0.43389 0.0548 0.8093 0.0
C532 C 0.34622 0.05657 0.11187 0.0
C533 C 0.32961 0.03581 0.13419 0.0
C534 C 0.36635 0.05376 0.0505 0.0
C535 C 0.37043 0.03005 0.01112 0.0
C536 C 0.35254 0.00971 0.02903 0.0
C537 C 0.33221 0.01261 0.08997 0.0
C538 C 0.43339 0.00284 0.92431 0.0
C539 C 0.44265 0.02049 0.86606 0.0
C540 C 0.40961 0.00562 0.96975 0.0
C541 C 0.39464 0.02617 0.95822 0.0
C542 C 0.40387 0.04378 0.89992 0.0
C543 C 0.42753 0.04094 0.85418 0.0
H544 H 0.49459 0.31045 0.06938 0.0
H545 H 0.41597 0.32705 0.15046 0.0
H546 H 0.49558 0.34242 0.96675 0.0
H547 H 0.41615 0.35836 0.04482 0.0
H548 H 0.49412 0.40156 0.78506 0.0
H549 H 0.4833 0.36144 0.84831 0.0
H550 H 0.43618 0.39915 0.0429 0.0
H551 H 0.44606 0.43893 0.9766 0.0
C552 C 0.47699 0.32 0.06166 0.0
C553 C 0.45518 0.31629 0.11707 0.0
C554 C 0.47752 0.3385 0.00306 0.0
C555 C 0.45611 0.35349 -0.0015 0.0
C556 C 0.43323 0.3477 0.04805 0.0
C557 C 0.43288 0.32944 0.10743 0.0
C558 C 0.48116 0.40111 0.84077 0.0
C559 C 0.47115 0.42329 0.87678 0.0
C560 C 0.475 0.37814 0.8772 0.0
C561 C 0.45905 0.37693 0.95136 0.0
C562 C 0.44818 0.39913 0.98516 0.0
C563 C 0.45402 0.42204 0.94778 0.0
H564 H 0.20373 0.45595 0.0983 0.0
H565 H 0.21455 0.53677 0.11515 0.0
H566 H 0.17108 0.45843 0.99386 0.0
H567 H 0.18165 0.53939 0.01175 0.0
H568 H 0.09067 0.52699 0.9837 0.0
H569 H 0.13252 0.52612 0.04773 0.0
H570 H 0.15946 0.47524 0.84721 0.0
H571 H 0.11747 0.47656 0.78159 0.0
C572 C 0.20003 0.47415 0.0763 0.0
C573 C 0.21179 0.49616 0.11346 0.0
C574 C 0.18127 0.4756 0.01708 0.0
C575 C 0.17368 0.49911 0.99566 0.0
C576 C 0.18711 0.52105 0.0276 0.0
C577 C 0.20611 0.51957 0.08587 0.0
C578 C 0.10556 0.51573 0.95299 0.0
C579 C 0.10085 0.50172 0.87811 0.0
C580 C 0.12959 0.51543 0.98916 0.0
C581 C 0.14929 0.50083 0.95185 0.0
C582 C 0.14461 0.48674 0.87686 0.0
C583 C 0.12064 0.48744 0.83965 0.0
H584 H 0.99718 0.80901 0.25638 0.0
H585 H 0.9185 0.82695 0.2162 0.0
H586 H 0.99976 0.84149 0.36891 0.0
H587 H 0.92033 0.85878 0.33161 0.0
H588 H 0.99933 0.90138 0.57437 0.0
H589 H 0.98839 0.86126 0.49995 0.0
H590 H 0.94178 0.89923 0.33567 0.0
H591 H 0.95191 0.93898 0.41268 0.0
C592 C 0.97993 0.819 0.27503 0.0
C593 C 0.95764 0.81554 0.22819 0.0
C594 C 0.98139 0.83778 0.33931 0.0
C595 C 0.96045 0.85326 0.35819 0.0
C596 C 0.93709 0.84772 0.31721 0.0
C597 C 0.9358 0.82919 0.25222 0.0
C598 C 0.98656 0.901 0.52274 0.0
C599 C 0.97667 0.92323 0.49843 0.0
C600 C 0.9803 0.87804 0.48002 0.0
C601 C 0.96425 0.87688 0.41146 0.0
C602 C 0.95378 0.89918 0.38904 0.0
C603 C 0.95979 0.92207 0.43248 0.0
H604 H 0.67119 0.01838 0.20632 0.0
H605 H 0.69261 0.95162 0.31806 0.0
H606 H 0.6373 0.02422 0.31485 0.0
H607 H 0.65938 0.95816 0.43206 0.0
H608 H 0.57365 0.95662 0.5389 0.0
H609 H 0.61412 0.95319 0.45267 0.0
H610 H 0.62278 0.03432 0.4478 0.0
H611 H 0.58144 0.0373 0.52744 0.0
C612 C 0.66921 0.0055 0.25661 0.0
C613 C 0.68437 0.98455 0.25404 0.0
C614 C 0.64977 0.00885 0.31946 0.0
C615 C 0.6452 0.99155 0.38264 0.0
C616 C 0.66187 0.97157 0.38355 0.0
C617 C 0.68123 0.96801 0.31934 0.0
C618 C 0.58421 0.97361 0.51842 0.0
C619 C 0.57411 0.99715 0.53758 0.0
C620 C 0.60764 0.97174 0.47006 0.0
C621 C 0.62183 0.99347 0.44198 0.0
C622 C 0.61215 0.01707 0.4654 0.0
C623 C 0.58839 0.01884 0.51122 0.0
H624 H 0.60771 0.68729 0.2564 0.0
H625 H 0.53041 0.70904 0.33371 0.0
H626 H 0.605 0.65642 0.36401 0.0
H627 H 0.52699 0.67757 0.43909 0.0
H628 H 0.52711 0.62033 0.63325 0.0
H629 H 0.53887 0.6591 0.56202 0.0
H630 H 0.58166 0.61674 0.36807 0.0
H631 H 0.57061 0.57834 0.44106 0.0
C632 C 0.59053 0.68605 0.29876 0.0
C633 C 0.56934 0.70059 0.28752 0.0
C634 C 0.58874 0.66809 0.35941 0.0
C635 C 0.56552 0.664 0.40902 0.0
C636 C 0.54524 0.6802 0.40257 0.0
C637 C 0.54719 0.69838 0.34245 0.0
C638 C 0.53933 0.61946 0.57593 0.0
C639 C 0.54784 0.59636 0.54222 0.0
C640 C 0.546 0.64165 0.53493 0.0
C641 C 0.56118 0.64117 0.45901 0.0
C642 C 0.57035 0.61804 0.42707 0.0
C643 C 0.56384 0.59592 0.46844 0.0
H644 H 0.80309 0.4966 0.30508 0.0
H645 H 0.82213 0.57599 0.28747 0.0
H646 H 0.83623 0.49466 0.40763 0.0
H647 H 0.8548 0.57447 0.39184 0.0
H648 H 0.93725 0.5514 0.44261 0.0
H649 H 0.89697 0.55721 0.37496 0.0
H650 H 0.85491 0.50588 0.54159 0.0
H651 H 0.89558 0.49973 0.60817 0.0
C652 C 0.81345 0.51387 0.32672 0.0
C653 C 0.80997 0.53648 0.28945 0.0
C654 C 0.83259 0.51278 0.38503 0.0
C655 C 0.84857 0.53433 0.40676 0.0
C656 C 0.84323 0.55742 0.37514 0.0
C657 C 0.82423 0.55844 0.31657 0.0
C658 C 0.91937 0.5415 0.46505 0.0
C659 C 0.91953 0.525 0.53006 0.0
C660 C 0.89618 0.54501 0.42693 0.0
C661 C 0.87258 0.53214 0.45316 0.0
C662 C 0.87273 0.51595 0.51947 0.0
C663 C 0.89599 0.51244 0.55762 0.0
loop_
_geom_bond_atom_site_label_1
_geom_bond_atom_site_label_2
_geom_bond_distance
_geom_bond_site_symmetry_2
_ccdc_geom_bond_type
H0 C7 0.929 . S
H1 C10 0.930 1_556 S
H2 C12 0.929 . S
H3 C4 0.969 . S
C4 H3 0.969 . S
C4 O5 1.550 1_556 S
C4 H6 0.973 . S
O5 C4 1.550 1_554 S
O5 C11 1.412 . S
H6 C4 0.973 . S
C7 H0 0.929 . S
C7 C8 1.400 . S
C7 C9 1.364 . S
C8 C7 1.400 . S
C8 C12 1.377 . S
C9 C7 1.364 . S
C9 C10 1.374 . S
C10 H1 0.930 1_554 S
C10 C9 1.374 . S
C10 C11 1.383 . S
C11 O5 1.412 . S
C11 C10 1.383 . S
C11 C12 1.394 . S
C12 H2 0.929 . S
C12 C8 1.377 . S
C12 C11 1.394 . S
H13 C20 0.929 . S
H14 C23 0.930 . S
H15 C25 0.929 . S
H16 C17 0.969 . S
C17 H16 0.969 . S
C17 O18 1.550 1_556 S
C17 H19 0.973 . S
O18 C17 1.550 1_554 S
O18 C24 1.412 . S
H19 C17 0.973 . S
C20 H13 0.929 . S
C20 C21 1.400 . S
C20 C22 1.364 1_554 S
C21 C20 1.400 . S
C21 C25 1.377 . S
C22 C20 1.364 1_556 S
C22 C23 1.374 . S
C23 H14 0.930 . S
C23 C22 1.374 . S
C23 C24 1.383 1_556 S
C24 O18 1.412 . S
C24 C23 1.383 1_554 S
C24 C25 1.394 . S
C25 H15 0.929 . S
C25 C21 1.377 . S
C25 C24 1.394 . S
H26 C33 0.929 . S
H27 C36 0.930 1_556 S
H28 C38 0.929 . S
H29 C30 0.969 . S
C30 H29 0.969 . S
C30 O31 1.550 1_556 S
C30 H32 0.973 . S
O31 C30 1.550 1_554 S
O31 C37 1.412 . S
H32 C30 0.973 . S
C33 H26 0.929 . S
C33 C34 1.400 . S
C33 C35 1.364 . S
C34 C33 1.400 . S
C34 C38 1.377 . S
C35 C33 1.364 . S
C35 C36 1.374 . S
C36 H27 0.930 1_554 S
C36 C35 1.374 . S
C36 C37 1.383 . S
C37 O31 1.412 . S
C37 C36 1.383 . S
C37 C38 1.394 . S
C38 H28 0.929 . S
C38 C34 1.377 . S
C38 C37 1.394 . S
H39 C46 0.929 . S
H40 C49 0.930 1_556 S
H41 C51 0.929 . S
H42 C43 0.969 . S
C43 H42 0.969 . S
C43 O44 1.550 . S
C43 H45 0.973 1_554 S
O44 C43 1.550 . S
O44 C50 1.412 . S
H45 C43 0.973 1_556 S
C46 H39 0.929 . S
C46 C47 1.400 . S
C46 C48 1.364 . S
C47 C46 1.400 . S
C47 C51 1.377 . S
C48 C46 1.364 . S
C48 C49 1.374 . S
C49 H40 0.930 1_554 S
C49 C48 1.374 . S
C49 C50 1.383 . S
C50 O44 1.412 . S
C50 C49 1.383 . S
C50 C51 1.394 . S
C51 H41 0.929 . S
C51 C47 1.377 . S
C51 C50 1.394 . S
H52 C59 0.929 . S
H53 C62 0.930 . S
H54 C64 0.929 . S
H55 C56 0.969 . S
C56 H55 0.969 . S
C56 O57 1.550 . S
C56 H58 0.973 . S
O57 C56 1.550 . S
O57 C63 1.412 . S
H58 C56 0.973 . S
C59 H52 0.929 . S
C59 C60 1.400 . S
C59 C61 1.364 . S
C60 C59 1.400 . S
C60 C64 1.377 . S
C61 C59 1.364 . S
C61 C62 1.374 . S
C62 H53 0.930 . S
C62 C61 1.374 . S
C62 C63 1.383 . S
C63 O57 1.412 . S
C63 C62 1.383 . S
C63 C64 1.394 . S
C64 H54 0.929 . S
C64 C60 1.377 . S
C64 C63 1.394 . S
H65 C72 0.929 . S
H66 C75 0.930 . S
H67 C77 0.929 . S
H68 C69 0.969 . S
C69 H68 0.969 . S
C69 O70 1.550 . S
C69 H71 0.973 . S
O70 C69 1.550 . S
O70 C76 1.412 . S
H71 C69 0.973 . S
C72 H65 0.929 . S
C72 C73 1.400 . S
C72 C74 1.364 . S
C73 C72 1.400 . S
C73 C77 1.377 . S
C74 C72 1.364 . S
C74 C75 1.374 . S
C75 H66 0.930 . S
C75 C74 1.374 . S
C75 C76 1.383 . S
C76 O70 1.412 . S
C76 C75 1.383 . S
C76 C77 1.394 . S
C77 H67 0.929 . S
C77 C73 1.377 . S
C77 C76 1.394 . S
H78 C85 0.929 . S
H79 C88 0.930 . S
H80 C90 0.929 . S
H81 C82 0.969 . S
C82 H81 0.969 . S
C82 O83 1.550 . S
C82 H84 0.973 . S
O83 C82 1.550 . S
O83 C89 1.412 . S
H84 C82 0.973 . S
C85 H78 0.929 . S
C85 C86 1.400 . S
C85 C87 1.364 . S
C86 C85 1.400 . S
C86 C90 1.377 . S
C87 C85 1.364 . S
C87 C88 1.374 . S
C88 H79 0.930 . S
C88 C87 1.374 . S
C88 C89 1.383 . S
C89 O83 1.412 . S
C89 C88 1.383 . S
C89 C90 1.394 . S
C90 H80 0.929 . S
C90 C86 1.377 . S
C90 C89 1.394 . S
H91 C98 0.929 . S
H92 C101 0.930 . S
H93 C103 0.929 . S
H94 C95 0.969 . S
C95 H94 0.969 . S
C95 O96 1.550 . S
C95 H97 0.973 . S
O96 C95 1.550 . S
O96 C102 1.412 . S
H97 C95 0.973 . S
C98 H91 0.929 . S
C98 C99 1.400 . S
C98 C100 1.364 . S
C99 C98 1.400 . S
C99 C103 1.377 . S
C100 C98 1.364 . S
C100 C101 1.374 . S
C101 H92 0.930 . S
C101 C100 1.374 . S
C101 C102 1.383 . S
C102 O96 1.412 . S
C102 C101 1.383 . S
C102 C103 1.394 . S
C103 H93 0.929 . S
C103 C99 1.377 . S
C103 C102 1.394 . S
Tb104 O107 2.453 1_565 S
Tb104 O108 2.596 1_665 S
Tb104 O109 2.374 1_665 S
Tb104 O117 2.343 1_655 S
Tb104 O119 2.353 1_565 S
Tb104 O121 2.427 . S
Tb104 O122 2.513 1_655 S
C105 O109 1.251 . S
C105 O111 1.263 . S
Tb106 O108 2.343 . S
Tb106 O111 2.353 . S
Tb106 O114 2.427 . S
Tb106 O115 2.523 . S
Tb106 O116 2.453 1_545 S
Tb106 O117 2.596 1_545 S
Tb106 O118 2.374 1_455 S
O107 Tb104 2.453 1_545 S
O107 C123 1.245 1_655 S
O108 Tb104 2.596 1_445 S
O108 Tb106 2.343 . S
O108 C123 1.259 . S
O109 Tb104 2.374 1_445 S
O109 C105 1.251 . S
C110 O114 1.275 . S
C110 O115 1.271 . S
O111 C105 1.263 . S
O111 Tb106 2.353 . S
C112 O116 1.245 . S
C112 O117 1.259 . S
C113 O118 1.250 . S
C113 O119 1.263 . S
O114 Tb106 2.427 . S
O114 C110 1.275 . S
O115 Tb106 2.523 . S
O115 C110 1.271 . S
O116 Tb106 2.453 1_565 S
O116 C112 1.245 . S
O117 Tb104 2.343 1_455 S
O117 Tb106 2.596 1_565 S
O117 C112 1.259 . S
O118 Tb106 2.374 1_655 S
O118 C113 1.250 . S
O119 Tb104 2.353 1_545 S
O119 C113 1.263 . S
C120 O121 1.275 . S
C120 O122 1.246 1_655 S
O121 Tb104 2.427 . S
O121 C120 1.275 . S
O122 Tb104 2.513 1_455 S
O122 C120 1.246 1_455 S
C123 O107 1.245 1_455 S
C123 O108 1.259 . S
Tb124 O127 2.453 . S
Tb124 O128 2.596 1_545 S
Tb124 O129 2.374 . S
Tb124 O137 2.343 . S
Tb124 O139 2.353 . S
Tb124 O141 2.427 . S
Tb124 O142 2.513 . S
C125 O129 1.234 1_565 S
C125 O131 1.276 . S
Tb126 O128 2.343 . S
Tb126 O131 2.353 . S
Tb126 O134 2.427 . S
Tb126 O135 2.513 . S
Tb126 O136 2.453 . S
Tb126 O137 2.596 1_565 S
Tb126 O138 2.374 . S
O127 Tb124 2.453 . S
O127 C143 1.245 . S
O128 Tb124 2.596 1_565 S
O128 Tb126 2.343 . S
O128 C143 1.259 1_565 S
O129 Tb124 2.374 . S
O129 C125 1.234 1_545 S
C130 O134 1.275 . S
C130 O135 1.246 . S
O131 C125 1.276 . S
O131 Tb126 2.353 . S
C132 O136 1.245 1_545 S
C132 O137 1.259 . S
C133 O138 1.250 1_545 S
C133 O139 1.263 . S
O134 Tb126 2.427 . S
O134 C130 1.275 . S
O135 Tb126 2.513 . S
O135 C130 1.246 . S
O136 Tb126 2.453 . S
O136 C132 1.245 1_565 S
O137 Tb124 2.343 . S
O137 Tb126 2.596 1_545 S
O137 C132 1.259 . S
O138 Tb126 2.374 . S
O138 C133 1.250 1_565 S
O139 Tb124 2.353 . S
O139 C133 1.263 . S
C140 O141 1.275 . S
C140 O142 1.246 . S
O141 Tb124 2.427 . S
O141 C140 1.275 . S
O142 Tb124 2.513 . S
O142 C140 1.246 . S
C143 O127 1.245 . S
C143 O128 1.259 1_545 S
Tb144 O147 2.453 . S
Tb144 O148 2.596 . S
Tb144 O149 2.374 . S
Tb144 O157 2.343 . S
Tb144 O159 2.353 . S
Tb144 O161 2.427 . S
Tb144 O162 2.513 . S
C145 O149 1.251 . S
C145 O151 1.263 . S
Tb146 O148 2.343 . S
Tb146 O151 2.353 . S
Tb146 O154 2.427 . S
Tb146 O155 2.513 . S
Tb146 O156 2.453 . S
Tb146 O157 2.596 . S
Tb146 O158 2.374 . S
O147 Tb144 2.453 . S
O147 C163 1.245 . S
O148 Tb144 2.596 . S
O148 Tb146 2.343 . S
O148 C163 1.259 . S
O149 Tb144 2.374 . S
O149 C145 1.251 . S
C150 O154 1.275 . S
C150 O155 1.246 . S
O151 C145 1.263 . S
O151 Tb146 2.353 . S
C152 O156 1.245 . S
C152 O157 1.259 . S
C153 O158 1.250 . S
C153 O159 1.263 . S
O154 Tb146 2.427 . S
O154 C150 1.275 . S
O155 Tb146 2.513 . S
O155 C150 1.246 . S
O156 Tb146 2.453 . S
O156 C152 1.245 . S
O157 Tb144 2.343 . S
O157 Tb146 2.596 . S
O157 C152 1.259 . S
O158 Tb146 2.374 . S
O158 C153 1.250 . S
O159 Tb144 2.353 . S
O159 C153 1.263 . S
C160 O161 1.275 . S
C160 O162 1.246 . S
O161 Tb144 2.427 . S
O161 C160 1.275 . S
O162 Tb144 2.513 . S
O162 C160 1.246 . S
C163 O147 1.245 . S
C163 O148 1.259 . S
Tb164 O167 2.453 1_655 S
Tb164 O168 2.596 1_655 S
Tb164 O169 2.374 1_655 S
Tb164 O177 2.343 . S
Tb164 O179 2.353 1_655 S
Tb164 O181 2.427 . S
Tb164 O182 2.513 . S
C165 O169 1.251 . S
C165 O171 1.263 . S
Tb166 O168 2.343 . S
Tb166 O171 2.353 . S
Tb166 O174 2.427 . S
Tb166 O175 2.513 . S
Tb166 O176 2.453 1_455 S
Tb166 O177 2.596 1_455 S
Tb166 O178 2.374 . S
O167 Tb164 2.453 1_455 S
O167 C183 1.245 . S
O168 Tb164 2.596 1_455 S
O168 Tb166 2.343 . S
O168 C183 1.259 . S
O169 Tb164 2.374 1_455 S
O169 C165 1.251 . S
C170 O174 1.275 . S
C170 O175 1.246 . S
O171 C165 1.263 . S
O171 Tb166 2.353 . S
C172 O176 1.245 . S
C172 O177 1.259 . S
C173 O178 1.250 . S
C173 O179 1.263 . S
O174 Tb166 2.427 . S
O174 C170 1.275 . S
O175 Tb166 2.513 . S
O175 C170 1.246 . S
O176 Tb166 2.453 1_655 S
O176 C172 1.245 . S
O177 Tb164 2.343 . S
O177 Tb166 2.596 1_655 S
O177 C172 1.259 . S
O178 Tb166 2.374 . S
O178 C173 1.250 . S
O179 Tb164 2.353 1_455 S
O179 C173 1.263 . S
C180 O181 1.275 . S
C180 O182 1.246 . S
O181 Tb164 2.427 . S
O181 C180 1.275 . S
O182 Tb164 2.513 . S
O182 C180 1.246 . S
C183 O167 1.245 . S
C183 O168 1.259 . S
H184 C192 0.950 . S
H185 C197 0.950 . S
H186 C194 0.950 . S
H187 C196 0.950 . S
H188 C198 0.950 . S
H189 C200 0.950 . S
H190 C202 0.950 . S
H191 C203 0.950 . S
C192 H184 0.950 . S
C192 C193 1.386 . S
C192 C194 1.391 . S
C193 C192 1.386 . S
C193 C197 1.393 . S
C194 H186 0.950 . S
C194 C192 1.391 . S
C194 C195 1.400 . S
C195 C194 1.400 . S
C195 C196 1.398 . S
C195 C201 1.491 . S
C196 H187 0.950 . S
C196 C195 1.398 . S
C196 C197 1.391 . S
C197 H185 0.950 . S
C197 C193 1.393 . S
C197 C196 1.391 . S
C198 H188 0.950 . S
C198 C199 1.386 . S
C198 C200 1.391 . S
C199 C198 1.386 . S
C199 C203 1.393 . S
C200 H189 0.950 . S
C200 C198 1.391 . S
C200 C201 1.400 . S
C201 C195 1.491 . S
C201 C200 1.400 . S
C201 C202 1.398 . S
C202 H190 0.950 . S
C202 C201 1.398 . S
C202 C203 1.391 . S
C203 H191 0.950 . S
C203 C199 1.393 . S
C203 C202 1.391 . S
H204 C212 0.950 . S
H205 C217 0.950 . S
H206 C214 0.950 . S
H207 C216 0.950 . S
H208 C218 0.950 . S
H209 C220 0.950 . S
H210 C222 0.950 . S
H211 C223 0.950 . S
C212 H204 0.950 . S
C212 C213 1.386 . S
C212 C214 1.391 . S
C213 C212 1.386 . S
C213 C217 1.393 . S
C214 H206 0.950 . S
C214 C212 1.391 . S
C214 C215 1.400 . S
C215 C214 1.400 . S
C215 C216 1.398 . S
C215 C221 1.491 . S
C216 H207 0.950 . S
C216 C215 1.398 . S
C216 C217 1.391 . S
C217 H205 0.950 . S
C217 C213 1.393 . S
C217 C216 1.391 . S
C218 H208 0.950 . S
C218 C219 1.386 . S
C218 C220 1.391 . S
C219 C218 1.386 . S
C219 C223 1.393 . S
C220 H209 0.950 . S
C220 C218 1.391 . S
C220 C221 1.400 . S
C221 C215 1.491 . S
C221 C220 1.400 . S
C221 C222 1.398 . S
C222 H210 0.950 . S
C222 C221 1.398 . S
C222 C223 1.391 . S
C223 H211 0.950 . S
C223 C219 1.393 . S
C223 C222 1.391 . S
H224 C232 0.950 . S
H225 C237 0.950 . S
H226 C234 0.950 . S
H227 C236 0.950 . S
H228 C238 0.950 . S
H229 C240 0.950 . S
H230 C242 0.950 . S
H231 C243 0.950 . S
C232 H224 0.950 . S
C232 C233 1.386 . S
C232 C234 1.391 . S
C233 C232 1.386 . S
C233 C237 1.393 . S
C234 H226 0.950 . S
C234 C232 1.391 . S
C234 C235 1.400 . S
C235 C234 1.400 . S
C235 C236 1.398 . S
C235 C241 1.491 . S
C236 H227 0.950 . S
C236 C235 1.398 . S
C236 C237 1.391 . S
C237 H225 0.950 . S
C237 C233 1.393 . S
C237 C236 1.391 . S
C238 H228 0.950 . S
C238 C239 1.386 . S
C238 C240 1.391 . S
C239 C238 1.386 . S
C239 C243 1.393 . S
C240 H229 0.950 . S
C240 C238 1.391 . S
C240 C241 1.400 . S
C241 C235 1.491 . S
C241 C240 1.400 . S
C241 C242 1.398 . S
C242 H230 0.950 . S
C242 C241 1.398 . S
C242 C243 1.391 . S
C243 H231 0.950 . S
C243 C239 1.393 . S
C243 C242 1.391 . S
H244 C252 0.950 . S
H245 C257 0.950 . S
H246 C254 0.950 . S
H247 C256 0.950 . S
H248 C258 0.950 . S
H249 C260 0.950 . S
H250 C262 0.950 1_655 S
H251 C263 0.950 1_655 S
C252 H244 0.950 . S
C252 C253 1.386 . S
C252 C254 1.391 . S
C253 C252 1.386 . S
C253 C257 1.393 . S
C254 H246 0.950 . S
C254 C252 1.391 . S
C254 C255 1.400 . S
C255 C254 1.400 . S
C255 C256 1.398 . S
C255 C261 1.491 . S
C256 H247 0.950 . S
C256 C255 1.398 . S
C256 C257 1.391 . S
C257 H245 0.950 . S
C257 C253 1.393 . S
C257 C256 1.391 . S
C258 H248 0.950 . S
C258 C259 1.386 . S
C258 C260 1.391 . S
C259 C258 1.386 . S
C259 C263 1.393 . S
C260 H249 0.950 . S
C260 C258 1.391 . S
C260 C261 1.400 . S
C261 C255 1.491 . S
C261 C260 1.400 . S
C261 C262 1.398 . S
C262 H250 0.950 1_455 S
C262 C261 1.398 . S
C262 C263 1.391 . S
C263 H251 0.950 1_455 S
C263 C259 1.393 . S
C263 C262 1.391 . S
H264 C272 0.950 . S
H265 C277 0.950 . S
H266 C274 0.950 1_545 S
H267 C276 0.950 . S
H268 C278 0.950 . S
H269 C280 0.950 . S
H270 C282 0.950 . S
H271 C283 0.950 . S
C272 H264 0.950 . S
C272 C273 1.386 . S
C272 C274 1.391 . S
C273 C272 1.386 . S
C273 C277 1.393 1_556 S
C274 H266 0.950 1_565 S
C274 C272 1.391 . S
C274 C275 1.400 . S
C275 C274 1.400 . S
C275 C276 1.398 . S
C275 C281 1.491 . S
C276 H267 0.950 . S
C276 C275 1.398 . S
C276 C277 1.391 1_556 S
C277 H265 0.950 . S
C277 C273 1.393 1_554 S
C277 C276 1.391 1_554 S
C278 H268 0.950 . S
C278 C279 1.386 . S
C278 C280 1.391 . S
C279 C278 1.386 . S
C279 C283 1.393 1_565 S
C280 H269 0.950 . S
C280 C278 1.391 . S
C280 C281 1.400 . S
C281 C275 1.491 . S
C281 C280 1.400 . S
C281 C282 1.398 1_565 S
C282 H270 0.950 . S
C282 C281 1.398 1_545 S
C282 C283 1.391 . S
C283 H271 0.950 . S
C283 C279 1.393 1_545 S
C283 C282 1.391 . S
H284 C292 0.950 . S
H285 C297 0.950 . S
H286 C294 0.950 . S
H287 C296 0.950 1_554 S
H288 C298 0.950 . S
H289 C300 0.950 . S
H290 C302 0.950 . S
H291 C303 0.950 . S
C292 H284 0.950 . S
C292 C293 1.386 1_556 S
C292 C294 1.391 . S
C293 C292 1.386 1_554 S
C293 C297 1.393 . S
C294 H286 0.950 . S
C294 C292 1.391 . S
C294 C295 1.400 . S
C295 C294 1.400 . S
C295 C296 1.398 . S
C295 C301 1.491 . S
C296 H287 0.950 1_556 S
C296 C295 1.398 . S
C296 C297 1.391 1_556 S
C297 H285 0.950 . S
C297 C293 1.393 . S
C297 C296 1.391 1_554 S
C298 H288 0.950 . S
C298 C299 1.386 . S
C298 C300 1.391 . S
C299 C298 1.386 . S
C299 C303 1.393 . S
C300 H289 0.950 . S
C300 C298 1.391 . S
C300 C301 1.400 . S
C301 C295 1.491 . S
C301 C300 1.400 . S
C301 C302 1.398 . S
C302 H290 0.950 . S
C302 C301 1.398 . S
C302 C303 1.391 . S
C303 H291 0.950 . S
C303 C299 1.393 . S
C303 C302 1.391 . S
H304 C312 0.950 . S
H305 C317 0.950 . S
H306 C314 0.950 1_554 S
H307 C316 0.950 . S
H308 C318 0.950 . S
H309 C320 0.950 . S
H310 C322 0.950 . S
H311 C323 0.950 . S
C312 H304 0.950 . S
C312 C313 1.386 1_554 S
C312 C314 1.391 1_554 S
C313 C312 1.386 1_556 S
C313 C317 1.393 . S
C314 H306 0.950 1_556 S
C314 C312 1.391 1_556 S
C314 C315 1.400 . S
C315 C314 1.400 . S
C315 C316 1.398 . S
C315 C321 1.491 . S
C316 H307 0.950 . S
C316 C315 1.398 . S
C316 C317 1.391 . S
C317 H305 0.950 . S
C317 C313 1.393 . S
C317 C316 1.391 . S
C318 H308 0.950 . S
C318 C319 1.386 . S
C318 C320 1.391 . S
C319 C318 1.386 . S
C319 C323 1.393 . S
C320 H309 0.950 . S
C320 C318 1.391 . S
C320 C321 1.400 . S
C321 C315 1.491 . S
C321 C320 1.400 . S
C321 C322 1.398 . S
C322 H310 0.950 . S
C322 C321 1.398 . S
C322 C323 1.391 . S
C323 H311 0.950 . S
C323 C319 1.393 . S
C323 C322 1.391 . S
H324 C332 0.950 . S
H325 C337 0.950 . S
H326 C334 0.950 . S
H327 C336 0.950 1_455 S
H328 C338 0.950 . S
H329 C340 0.950 . S
H330 C342 0.950 . S
H331 C343 0.950 . S
C332 H324 0.950 . S
C332 C333 1.386 . S
C332 C334 1.391 . S
C333 C332 1.386 . S
C333 C337 1.393 . S
C334 H326 0.950 . S
C334 C332 1.391 . S
C334 C335 1.400 . S
C335 C334 1.400 . S
C335 C336 1.398 . S
C335 C341 1.491 . S
C336 H327 0.950 1_655 S
C336 C335 1.398 . S
C336 C337 1.391 . S
C337 H325 0.950 . S
C337 C333 1.393 . S
C337 C336 1.391 . S
C338 H328 0.950 . S
C338 C339 1.386 1_455 S
C338 C340 1.391 . S
C339 C338 1.386 1_655 S
C339 C343 1.393 . S
C340 H329 0.950 . S
C340 C338 1.391 . S
C340 C341 1.400 1_455 S
C341 C335 1.491 . S
C341 C340 1.400 1_655 S
C341 C342 1.398 . S
C342 H330 0.950 . S
C342 C341 1.398 . S
C342 C343 1.391 . S
C343 H331 0.950 . S
C343 C339 1.393 . S
C343 C342 1.391 . S
H344 C352 0.950 . S
H345 C357 0.950 . S
H346 C354 0.950 . S
H347 C356 0.950 . S
H348 C358 0.950 1_655 S
H349 C360 0.928 1_655 S
H350 C362 0.950 . S
H351 C363 0.950 . S
C352 H344 0.950 . S
C352 C353 1.386 . S
C352 C354 1.391 . S
C353 C352 1.386 . S
C353 C357 1.393 . S
C354 H346 0.950 . S
C354 C352 1.391 . S
C354 C355 1.400 . S
C355 C354 1.400 . S
C355 C356 1.398 . S
C355 C361 1.491 . S
C356 H347 0.950 . S
C356 C355 1.398 . S
C356 C357 1.391 . S
C357 H345 0.950 . S
C357 C353 1.393 . S
C357 C356 1.391 . S
C358 H348 0.950 1_455 S
C358 C359 1.386 . S
C358 C360 1.391 . S
C359 C358 1.386 . S
C359 C363 1.393 . S
C360 H349 0.928 1_455 S
C360 C358 1.391 . S
C360 C361 1.400 . S
C361 C355 1.491 . S
C361 C360 1.400 . S
C361 C362 1.398 . S
C362 H350 0.950 . S
C362 C361 1.398 . S
C362 C363 1.391 . S
C363 H351 0.950 . S
C363 C359 1.393 . S
C363 C362 1.391 . S
H364 C372 0.950 . S
H365 C377 0.950 . S
H366 C374 0.950 . S
H367 C376 0.950 . S
H368 C378 0.973 . S
H369 C380 0.950 1_565 S
H370 C382 0.950 . S
H371 C383 0.950 . S
C372 H364 0.950 . S
C372 C373 1.386 . S
C372 C374 1.391 . S
C373 C372 1.386 . S
C373 C377 1.393 . S
C374 H366 0.950 . S
C374 C372 1.391 . S
C374 C375 1.400 . S
C375 C374 1.400 . S
C375 C376 1.398 . S
C375 C381 1.491 . S
C376 H367 0.950 . S
C376 C375 1.398 . S
C376 C377 1.391 . S
C377 H365 0.950 . S
C377 C373 1.393 . S
C377 C376 1.391 . S
C378 H368 0.973 . S
C378 C379 1.370 1_565 S
C378 C380 1.383 1_565 S
C379 C378 1.370 1_545 S
C379 C383 1.393 . S
C380 H369 0.950 1_545 S
C380 C378 1.383 1_545 S
C380 C381 1.400 . S
C381 C375 1.491 . S
C381 C380 1.400 . S
C381 C382 1.398 . S
C382 H370 0.950 . S
C382 C381 1.398 . S
C382 C383 1.391 . S
C383 H371 0.950 . S
C383 C379 1.393 . S
C383 C382 1.391 . S
H384 C392 0.950 . S
H385 C397 0.950 . S
H386 C394 0.950 . S
H387 C396 0.950 . S
H388 C398 0.950 . S
H389 C400 0.950 . S
H390 C402 0.950 . S
H391 C403 0.950 . S
C392 H384 0.950 . S
C392 C393 1.386 . S
C392 C394 1.391 . S
C393 C392 1.386 . S
C393 C397 1.393 . S
C394 H386 0.950 . S
C394 C392 1.391 . S
C394 C395 1.400 . S
C395 C394 1.400 . S
C395 C396 1.398 . S
C395 C401 1.491 . S
C396 H387 0.950 . S
C396 C395 1.398 . S
C396 C397 1.391 . S
C397 H385 0.950 . S
C397 C393 1.393 . S
C397 C396 1.391 . S
C398 H388 0.950 . S
C398 C399 1.386 . S
C398 C400 1.391 . S
C399 C398 1.386 . S
C399 C403 1.393 . S
C400 H389 0.950 . S
C400 C398 1.391 . S
C400 C401 1.400 . S
C401 C395 1.491 . S
C401 C400 1.400 . S
C401 C402 1.398 . S
C402 H390 0.950 . S
C402 C401 1.398 . S
C402 C403 1.391 . S
C403 H391 0.950 . S
C403 C399 1.393 . S
C403 C402 1.391 . S
H404 C412 0.950 . S
H405 C417 0.950 . S
H406 C414 0.950 . S
H407 C416 0.950 . S
H408 C418 0.950 . S
H409 C420 0.950 . S
H410 C422 0.950 . S
H411 C423 0.950 . S
C412 H404 0.950 . S
C412 C413 1.386 . S
C412 C414 1.391 . S
C413 C412 1.386 . S
C413 C417 1.393 . S
C414 H406 0.950 . S
C414 C412 1.391 . S
C414 C415 1.400 . S
C415 C414 1.400 . S
C415 C416 1.398 . S
C415 C421 1.491 . S
C416 H407 0.950 . S
C416 C415 1.398 . S
C416 C417 1.391 . S
C417 H405 0.950 . S
C417 C413 1.393 . S
C417 C416 1.391 . S
C418 H408 0.950 . S
C418 C419 1.386 . S
C418 C420 1.391 . S
C419 C418 1.386 . S
C419 C423 1.393 . S
C420 H409 0.950 . S
C420 C418 1.391 . S
C420 C421 1.400 . S
C421 C415 1.491 . S
C421 C420 1.400 . S
C421 C422 1.398 . S
C422 H410 0.950 . S
C422 C421 1.398 . S
C422 C423 1.391 . S
C423 H411 0.950 . S
C423 C419 1.393 . S
C423 C422 1.391 . S
H424 C432 0.950 . S
H425 C437 0.950 . S
H426 C434 0.950 1_455 S
H427 C436 0.950 . S
H428 C438 0.950 . S
H429 C440 0.950 . S
H430 C442 0.950 . S
H431 C443 0.950 . S
C432 H424 0.950 . S
C432 C433 1.386 . S
C432 C434 1.391 . S
C433 C432 1.386 . S
C433 C437 1.393 . S
C434 H426 0.950 1_655 S
C434 C432 1.391 . S
C434 C435 1.400 . S
C435 C434 1.400 . S
C435 C436 1.398 . S
C435 C441 1.491 . S
C436 H427 0.950 . S
C436 C435 1.398 . S
C436 C437 1.391 . S
C437 H425 0.950 . S
C437 C433 1.393 . S
C437 C436 1.391 . S
C438 H428 0.950 . S
C438 C439 1.386 . S
C438 C440 1.391 . S
C439 C438 1.386 . S
C439 C443 1.393 1_655 S
C440 H429 0.950 . S
C440 C438 1.391 . S
C440 C441 1.400 . S
C441 C435 1.491 . S
C441 C440 1.400 . S
C441 C442 1.398 1_655 S
C442 H430 0.950 . S
C442 C441 1.398 1_455 S
C442 C443 1.391 . S
C443 H431 0.950 . S
C443 C439 1.393 1_455 S
C443 C442 1.391 . S
H444 C452 0.950 . S
H445 C457 0.950 . S
H446 C454 0.950 . S
H447 C456 0.950 1_554 S
H448 C458 0.950 . S
H449 C460 0.949 1_545 S
H450 C462 0.950 . S
H451 C463 0.950 . S
C452 H444 0.950 . S
C452 C453 1.386 . S
C452 C454 1.391 . S
C453 C452 1.386 . S
C453 C457 1.393 1_556 S
C454 H446 0.950 . S
C454 C452 1.391 . S
C454 C455 1.400 . S
C455 C454 1.400 . S
C455 C456 1.398 . S
C455 C461 1.491 . S
C456 H447 0.950 1_556 S
C456 C455 1.398 . S
C456 C457 1.391 1_556 S
C457 H445 0.950 . S
C457 C453 1.393 1_554 S
C457 C456 1.391 1_554 S
C458 H448 0.950 . S
C458 C459 1.386 1_545 S
C458 C460 1.390 1_545 S
C459 C458 1.386 1_565 S
C459 C463 1.393 . S
C460 H449 0.949 1_565 S
C460 C458 1.390 1_565 S
C460 C461 1.402 . S
C461 C455 1.491 . S
C461 C460 1.402 . S
C461 C462 1.398 . S
C462 H450 0.950 . S
C462 C461 1.398 . S
C462 C463 1.391 . S
C463 H451 0.950 . S
C463 C459 1.393 . S
C463 C462 1.391 . S
H464 C472 0.950 . S
H465 C477 0.950 . S
H466 C474 0.950 . S
H467 C476 0.950 . S
H468 C478 0.950 . S
H469 C480 0.950 . S
H470 C482 0.950 . S
H471 C483 0.950 . S
C472 H464 0.950 . S
C472 C473 1.386 . S
C472 C474 1.391 . S
C473 C472 1.386 . S
C473 C477 1.393 . S
C474 H466 0.950 . S
C474 C472 1.391 . S
C474 C475 1.400 . S
C475 C474 1.400 . S
C475 C476 1.398 . S
C475 C481 1.491 . S
C476 H467 0.950 . S
C476 C475 1.398 . S
C476 C477 1.391 . S
C477 H465 0.950 . S
C477 C473 1.393 . S
C477 C476 1.391 . S
C478 H468 0.950 . S
C478 C479 1.386 . S
C478 C480 1.391 . S
C479 C478 1.386 . S
C479 C483 1.393 . S
C480 H469 0.950 . S
C480 C478 1.391 . S
C480 C481 1.400 . S
C481 C475 1.491 . S
C481 C480 1.400 . S
C481 C482 1.398 . S
C482 H470 0.950 . S
C482 C481 1.398 . S
C482 C483 1.391 . S
C483 H471 0.950 . S
C483 C479 1.393 . S
C483 C482 1.391 . S
H484 C492 0.950 . S
H485 C497 0.950 . S
H486 C494 0.950 . S
H487 C496 0.950 1_554 S
H488 C498 0.950 . S
H489 C500 0.950 . S
H490 C502 0.950 . S
H491 C503 0.950 . S
C492 H484 0.950 . S
C492 C493 1.386 . S
C492 C494 1.391 . S
C493 C492 1.386 . S
C493 C497 1.393 1_556 S
C494 H486 0.950 . S
C494 C492 1.391 . S
C494 C495 1.400 . S
C495 C494 1.400 . S
C495 C496 1.398 . S
C495 C501 1.491 . S
C496 H487 0.950 1_556 S
C496 C495 1.398 . S
C496 C497 1.391 1_556 S
C497 H485 0.950 . S
C497 C493 1.393 1_554 S
C497 C496 1.391 1_554 S
C498 H488 0.950 . S
C498 C499 1.386 . S
C498 C500 1.391 . S
C499 C498 1.386 . S
C499 C503 1.393 . S
C500 H489 0.950 . S
C500 C498 1.391 . S
C500 C501 1.400 . S
C501 C495 1.491 . S
C501 C500 1.400 . S
C501 C502 1.398 . S
C502 H490 0.950 . S
C502 C501 1.398 . S
C502 C503 1.391 . S
C503 H491 0.950 . S
C503 C499 1.393 . S
C503 C502 1.391 . S
H504 C512 0.950 . S
H505 C517 0.950 . S
H506 C514 0.950 . S
H507 C516 0.950 . S
H508 C518 0.950 1_655 S
H509 C520 0.950 . S
H510 C522 0.950 . S
H511 C523 0.950 . S
C512 H504 0.950 . S
C512 C513 1.386 . S
C512 C514 1.391 . S
C513 C512 1.386 . S
C513 C517 1.393 . S
C514 H506 0.950 . S
C514 C512 1.391 . S
C514 C515 1.400 . S
C515 C514 1.400 . S
C515 C516 1.398 . S
C515 C521 1.491 . S
C516 H507 0.950 . S
C516 C515 1.398 . S
C516 C517 1.391 . S
C517 H505 0.950 . S
C517 C513 1.393 . S
C517 C516 1.391 . S
C518 H508 0.950 1_455 S
C518 C519 1.386 . S
C518 C520 1.391 . S
C519 C518 1.386 . S
C519 C523 1.393 . S
C520 H509 0.950 . S
C520 C518 1.391 . S
C520 C521 1.400 1_556 S
C521 C515 1.491 . S
C521 C520 1.400 1_554 S
C521 C522 1.398 . S
C522 H510 0.950 . S
C522 C521 1.398 . S
C522 C523 1.391 1_554 S
C523 H511 0.950 . S
C523 C519 1.393 . S
C523 C522 1.391 1_556 S
H524 C532 0.950 . S
H525 C537 0.950 . S
H526 C534 0.950 1_556 S
H527 C536 0.950 . S
H528 C538 0.950 1_565 S
H529 C540 0.950 . S
H530 C542 0.950 . S
H531 C543 0.950 . S
C532 H524 0.950 . S
C532 C533 1.386 . S
C532 C534 1.391 . S
C533 C532 1.386 . S
C533 C537 1.393 . S
C534 H526 0.950 1_554 S
C534 C532 1.391 . S
C534 C535 1.400 . S
C535 C534 1.400 . S
C535 C536 1.398 . S
C535 C541 1.487 1_554 S
C536 H527 0.950 . S
C536 C535 1.398 . S
C536 C537 1.391 . S
C537 H525 0.950 . S
C537 C533 1.393 . S
C537 C536 1.391 . S
C538 H528 0.950 1_545 S
C538 C539 1.386 . S
C538 C540 1.391 1_556 S
C539 C538 1.386 . S
C539 C543 1.393 . S
C540 H529 0.950 . S
C540 C538 1.391 1_554 S
C540 C541 1.399 1_554 S
C541 C535 1.487 1_556 S
C541 C540 1.399 1_556 S
C541 C542 1.404 . S
C542 H530 0.950 . S
C542 C541 1.404 . S
C542 C543 1.391 . S
C543 H531 0.950 . S
C543 C539 1.393 . S
C543 C542 1.391 . S
H544 C552 0.950 . S
H545 C557 0.950 . S
H546 C554 0.950 . S
H547 C556 0.950 1_556 S
H548 C558 0.950 . S
H549 C560 0.950 . S
H550 C562 0.950 . S
H551 C563 0.950 1_554 S
C552 H544 0.950 . S
C552 C553 1.386 . S
C552 C554 1.391 . S
C553 C552 1.386 . S
C553 C557 1.393 . S
C554 H546 0.950 . S
C554 C552 1.391 . S
C554 C555 1.400 . S
C555 C554 1.400 . S
C555 C556 1.398 . S
C555 C561 1.491 . S
C556 H547 0.950 1_554 S
C556 C555 1.398 . S
C556 C557 1.391 . S
C557 H545 0.950 . S
C557 C553 1.393 . S
C557 C556 1.391 . S
C558 H548 0.950 . S
C558 C559 1.386 . S
C558 C560 1.391 . S
C559 C558 1.386 . S
C559 C563 1.393 . S
C560 H549 0.950 . S
C560 C558 1.391 . S
C560 C561 1.400 1_556 S
C561 C555 1.491 . S
C561 C560 1.400 1_554 S
C561 C562 1.398 . S
C562 H550 0.950 . S
C562 C561 1.398 . S
C562 C563 1.391 1_554 S
C563 H551 0.950 1_556 S
C563 C559 1.393 . S
C563 C562 1.391 1_556 S
H564 C572 0.950 . S
H565 C577 0.950 . S
H566 C574 0.950 . S
H567 C576 0.950 . S
H568 C578 0.950 . S
H569 C580 0.950 . S
H570 C582 0.950 . S
H571 C583 0.950 . S
C572 H564 0.950 . S
C572 C573 1.386 . S
C572 C574 1.391 . S
C573 C572 1.386 . S
C573 C577 1.393 . S
C574 H566 0.950 . S
C574 C572 1.391 . S
C574 C575 1.400 . S
C575 C574 1.400 . S
C575 C576 1.398 . S
C575 C581 1.491 . S
C576 H567 0.950 . S
C576 C575 1.398 . S
C576 C577 1.391 . S
C577 H565 0.950 . S
C577 C573 1.393 . S
C577 C576 1.391 . S
C578 H568 0.950 . S
C578 C579 1.386 . S
C578 C580 1.391 1_556 S
C579 C578 1.386 . S
C579 C583 1.393 . S
C580 H569 0.950 . S
C580 C578 1.391 1_554 S
C580 C581 1.400 . S
C581 C575 1.491 . S
C581 C580 1.400 . S
C581 C582 1.398 1_554 S
C582 H570 0.950 . S
C582 C581 1.398 1_556 S
C582 C583 1.391 . S
C583 H571 0.950 . S
C583 C579 1.393 . S
C583 C582 1.391 . S
H584 C592 0.950 . S
H585 C597 0.950 . S
H586 C594 0.950 . S
H587 C596 0.950 . S
H588 C598 0.950 . S
H589 C600 0.950 . S
H590 C602 0.950 . S
H591 C603 0.950 . S
C592 H584 0.950 . S
C592 C593 1.386 . S
C592 C594 1.391 . S
C593 C592 1.386 . S
C593 C597 1.393 . S
C594 H586 0.950 . S
C594 C592 1.391 . S
C594 C595 1.400 . S
C595 C594 1.400 . S
C595 C596 1.398 . S
C595 C601 1.491 . S
C596 H587 0.950 . S
C596 C595 1.398 . S
C596 C597 1.391 . S
C597 H585 0.950 . S
C597 C593 1.393 . S
C597 C596 1.391 . S
C598 H588 0.950 . S
C598 C599 1.386 . S
C598 C600 1.391 . S
C599 C598 1.386 . S
C599 C603 1.393 . S
C600 H589 0.950 . S
C600 C598 1.391 . S
C600 C601 1.400 . S
C601 C595 1.491 . S
C601 C600 1.400 . S
C601 C602 1.398 . S
C602 H590 0.950 . S
C602 C601 1.398 . S
C602 C603 1.391 . S
C603 H591 0.950 . S
C603 C599 1.393 . S
C603 C602 1.391 . S
H604 C612 0.950 1_545 S
H605 C617 0.950 . S
H606 C614 0.950 1_545 S
H607 C616 0.950 . S
H608 C618 0.950 . S
H609 C620 0.950 . S
H610 C622 0.950 . S
H611 C623 0.950 . S
C612 H604 0.950 1_565 S
C612 C613 1.386 . S
C612 C614 1.391 . S
C613 C612 1.386 . S
C613 C617 1.393 . S
C614 H606 0.950 1_565 S
C614 C612 1.391 . S
C614 C615 1.400 . S
C615 C614 1.400 . S
C615 C616 1.398 . S
C615 C621 1.491 . S
C616 H607 0.950 . S
C616 C615 1.398 . S
C616 C617 1.391 . S
C617 H605 0.950 . S
C617 C613 1.393 . S
C617 C616 1.391 . S
C618 H608 0.950 . S
C618 C619 1.386 . S
C618 C620 1.391 . S
C619 C618 1.386 . S
C619 C623 1.393 1_565 S
C620 H609 0.950 . S
C620 C618 1.391 . S
C620 C621 1.400 . S
C621 C615 1.491 . S
C621 C620 1.400 . S
C621 C622 1.398 1_565 S
C622 H610 0.950 . S
C622 C621 1.398 1_545 S
C622 C623 1.391 . S
C623 H611 0.950 . S
C623 C619 1.393 1_545 S
C623 C622 1.391 . S
H624 C632 0.950 . S
H625 C637 0.950 . S
H626 C634 0.950 . S
H627 C636 0.950 . S
H628 C638 0.950 . S
H629 C640 0.950 . S
H630 C642 0.950 . S
H631 C643 0.950 . S
C632 H624 0.950 . S
C632 C633 1.386 . S
C632 C634 1.391 . S
C633 C632 1.386 . S
C633 C637 1.393 . S
C634 H626 0.950 . S
C634 C632 1.391 . S
C634 C635 1.400 . S
C635 C634 1.400 . S
C635 C636 1.398 . S
C635 C641 1.491 . S
C636 H627 0.950 . S
C636 C635 1.398 . S
C636 C637 1.391 . S
C637 H625 0.950 . S
C637 C633 1.393 . S
C637 C636 1.391 . S
C638 H628 0.950 . S
C638 C639 1.386 . S
C638 C640 1.391 . S
C639 C638 1.386 . S
C639 C643 1.393 . S
C640 H629 0.950 . S
C640 C638 1.391 . S
C640 C641 1.400 . S
C641 C635 1.491 . S
C641 C640 1.400 . S
C641 C642 1.398 . S
C642 H630 0.950 . S
C642 C641 1.398 . S
C642 C643 1.391 . S
C643 H631 0.950 . S
C643 C639 1.393 . S
C643 C642 1.391 . S
H644 C652 0.950 . S
H645 C657 0.950 . S
H646 C654 0.950 . S
H647 C656 0.950 . S
H648 C658 0.950 . S
H649 C660 0.950 . S
H650 C662 0.950 . S
H651 C663 0.950 . S
C652 H644 0.950 . S
C652 C653 1.386 . S
C652 C654 1.391 . S
C653 C652 1.386 . S
C653 C657 1.393 . S
C654 H646 0.950 . S
C654 C652 1.391 . S
C654 C655 1.400 . S
C655 C654 1.400 . S
C655 C656 1.398 . S
C655 C661 1.491 . S
C656 H647 0.950 . S
C656 C655 1.398 . S
C656 C657 1.391 . S
C657 H645 0.950 . S
C657 C653 1.393 . S
C657 C656 1.391 . S
C658 H648 0.950 . S
C658 C659 1.386 . S
C658 C660 1.391 . S
C659 C658 1.386 . S
C659 C663 1.393 . S
C660 H649 0.950 . S
C660 C658 1.391 . S
C660 C661 1.400 . S
C661 C655 1.491 . S
C661 C660 1.400 . S
C661 C662 1.398 . S
C662 H650 0.950 . S
C662 C661 1.398 . S
C662 C663 1.391 . S
C663 H651 0.950 . S
C663 C659 1.393 . S
C663 C662 1.391 . S
C193 C82 1.528 . S
C199 C105 1.603 . S
C219 C140 1.607 . S
C213 C95 1.542 . S
C239 C145 1.333 . S
C233 C56 1.261 . S
C259 C165 1.467 . S
C253 C69 1.404 . S
C279 C113 1.604 1_565 S
C273 C30 1.480 . S
C293 C43 1.451 . S
C299 C130 1.609 . S
C313 C4 1.232 . S
C319 C153 1.322 . S
C333 C17 1.342 . S
C339 C173 1.467 1_655 S
C359 C123 1.231 . S
C353 C74 1.243 . S
C379 C132 0.983 . S
C373 C87 0.996 . S
C399 C163 1.328 . S
C393 C100 1.295 . S
C413 C61 0.998 . S
C419 C183 0.962 . S
C433 C22 1.236 . S
C439 C112 1.235 1_655 S
C459 C143 0.976 1_565 S
C453 C35 0.971 1_556 S
C479 C152 1.333 . S
C473 C48 1.281 1_556 S
C493 C9 0.991 1_556 S
C499 C172 0.969 . S
C513 C73 1.458 . S
C519 C110 1.488 . S
C533 C86 1.447 . S
C539 C133 1.509 . S
C559 C150 1.584 . S
C553 C99 1.543 . S
C579 C170 1.590 . S
C573 C60 1.551 . S
C593 C21 1.468 . S
C599 C120 1.482 . S
C619 C125 1.514 . S
C613 C34 1.438 . S
C639 C160 1.576 . S
C633 C47 1.549 . S
C653 C8 1.556 . S
C659 C180 1.583 . S
