# Generated by pormake.
# Topology zzz, (3,6)-cn, num edge types: 1
# Building blocks:
#     Node 0, Type 0, BuildingBlock: BETDIP_clean_linker_0, # of connection points: 3
#     Node 1, Type 0, BuildingBlock: BETDIP_clean_linker_0, # of connection points: 3
#     Node 2, Type 0, BuildingBlock: BETDIP_clean_linker_0, # of connection points: 3
#     Node 3, Type 0, BuildingBlock: BETDIP_clean_linker_0, # of connection points: 3
#     Node 4, Type 0, BuildingBlock: BETDIP_clean_linker_0, # of connection points: 3
#     Node 5, Type 0, BuildingBlock: BETDIP_clean_linker_0, # of connection points: 3
#     Node 6, Type 0, BuildingBlock: BETDIP_clean_linker_0, # of connection points: 3
#     Node 7, Type 0, BuildingBlock: BETDIP_clean_linker_0, # of connection points: 3
#     Node 8, Type 1, BuildingBlock: KUMJIN_clean_sbu_1, # of connection points: 6
#     Node 9, Type 1, BuildingBlock: KUMJIN_clean_sbu_1, # of connection points: 6
#     Node 10, Type 1, BuildingBlock: KUMJIN_clean_sbu_1, # of connection points: 6
#     Node 11, Type 1, BuildingBlock: KUMJIN_clean_sbu_1, # of connection points: 6
#     Edge 12, Type (0, 1), BuildingBlock: CIFDUS_clean_linker_0, # of connection points: 2
#     Edge 13, Type (0, 1), BuildingBlock: CIFDUS_clean_linker_0, # of connection points: 2
#     Edge 14, Type (0, 1), BuildingBlock: CIFDUS_clean_linker_0, # of connection points: 2
#     Edge 15, Type (0, 1), BuildingBlock: CIFDUS_clean_linker_0, # of connection points: 2
#     Edge 16, Type (0, 1), BuildingBlock: CIFDUS_clean_linker_0, # of connection points: 2
#     Edge 17, Type (0, 1), BuildingBlock: CIFDUS_clean_linker_0, # of connection points: 2
#     Edge 18, Type (0, 1), BuildingBlock: CIFDUS_clean_linker_0, # of connection points: 2
#     Edge 19, Type (0, 1), BuildingBlock: CIFDUS_clean_linker_0, # of connection points: 2
#     Edge 20, Type (0, 1), BuildingBlock: CIFDUS_clean_linker_0, # of connection points: 2
#     Edge 21, Type (0, 1), BuildingBlock: CIFDUS_clean_linker_0, # of connection points: 2
#     Edge 22, Type (0, 1), BuildingBlock: CIFDUS_clean_linker_0, # of connection points: 2
#     Edge 23, Type (0, 1), BuildingBlock: CIFDUS_clean_linker_0, # of connection points: 2
#     Edge 24, Type (0, 1), BuildingBlock: CIFDUS_clean_linker_0, # of connection points: 2
#     Edge 25, Type (0, 1), BuildingBlock: CIFDUS_clean_linker_0, # of connection points: 2
#     Edge 26, Type (0, 1), BuildingBlock: CIFDUS_clean_linker_0, # of connection points: 2
#     Edge 27, Type (0, 1), BuildingBlock: CIFDUS_clean_linker_0, # of connection points: 2
#     Edge 28, Type (0, 1), BuildingBlock: CIFDUS_clean_linker_0, # of connection points: 2
#     Edge 29, Type (0, 1), BuildingBlock: CIFDUS_clean_linker_0, # of connection points: 2
#     Edge 30, Type (0, 1), BuildingBlock: CIFDUS_clean_linker_0, # of connection points: 2
#     Edge 31, Type (0, 1), BuildingBlock: CIFDUS_clean_linker_0, # of connection points: 2
#     Edge 32, Type (0, 1), BuildingBlock: CIFDUS_clean_linker_0, # of connection points: 2
#     Edge 33, Type (0, 1), BuildingBlock: CIFDUS_clean_linker_0, # of connection points: 2
#     Edge 34, Type (0, 1), BuildingBlock: CIFDUS_clean_linker_0, # of connection points: 2
#     Edge 35, Type (0, 1), BuildingBlock: CIFDUS_clean_linker_0, # of connection points: 2
# Relax obj value: 0.204
# Max RMSD: 0.111
# Mean RMSD: 0.082
data_MOF--net-zzz--node1-KUMJIN_clean_sbu_1--node2-BETDIP_clean_linker_0--edge1-CIFDUS_clean_linker_0
_symmetry_space_group_name_H-M    P1
_symmetry_Int_Tables_number       1
_symmetry_cell_setting            triclinic
loop_
_symmetry_equiv_pos_as_xyz
'x, y, z'
_cell_length_a     44.101803
_cell_length_b     44.118239
_cell_length_c     13.753966
_cell_angle_alpha  89.991296
_cell_angle_beta   89.621345
_cell_angle_gamma 90.298259
loop_
_atom_site_label
_atom_site_type_symbol
_atom_site_fract_x
_atom_site_fract_y
_atom_site_fract_z
_atom_type_partial_charge
H0 H 0.76886 0.51741 0.39887 0.0
H1 H 0.74389 0.58319 0.18416 0.0
H2 H 0.83347 0.58436 0.30739 0.0
H3 H 0.69437 0.57384 0.27486 0.0
C4 C 0.69699 0.55107 0.24592 0.0
C5 C 0.77439 0.53731 0.3561 0.0
C6 C 0.80334 0.55151 0.36643 0.0
C7 C 0.75245 0.54942 0.29102 0.0
C8 C 0.76055 0.57458 0.23389 0.0
C9 C 0.79045 0.5859 0.23129 0.0
C10 C 0.8106 0.57568 0.30383 0.0
N11 N 0.72378 0.5346 0.27314 0.0
H12 H 0.98399 0.77912 0.40392 0.0
H13 H 0.04268 0.76018 0.15903 0.0
H14 H 0.05046 0.84499 0.30961 0.0
H15 H 0.97633 0.73881 0.12924 0.0
C16 C 0.98984 0.72411 0.17495 0.0
C17 C 1.00213 0.78597 0.35515 0.0
C18 C 0.01631 0.81498 0.36711 0.0
C19 C 1.01165 0.76593 0.27883 0.0
C20 C 0.03508 0.77527 0.21632 0.0
C21 C 0.04953 0.80328 0.22882 0.0
C22 C 0.04002 0.82275 0.30346 0.0
N23 N 0.99965 0.73577 0.2674 0.0
H24 H 0.77232 0.03362 0.39333 0.0
H25 H 0.77763 0.96039 0.18585 0.0
H26 H 0.70248 0.96549 0.38395 0.0
H27 H 0.83 0.96199 0.25408 0.0
C28 C 0.83292 0.98506 0.22757 0.0
C29 C 0.76375 1.01236 0.36518 0.0
C30 C 0.73543 1.00052 0.40049 0.0
C31 C 0.7808 0.99623 0.29271 0.0
C32 C 0.76722 0.97058 0.24943 0.0
C33 C 0.73879 0.95985 0.28057 0.0
C34 C 0.72481 0.97335 0.36132 0.0
N35 N 0.81008 1.00653 0.25711 0.0
H36 H 0.51865 0.77502 0.43381 0.0
H37 H 0.56431 0.78938 0.15922 0.0
H38 H 0.55358 0.69933 0.27144 0.0
H39 H 0.57798 0.83624 0.25105 0.0
C40 C 0.55373 0.84057 0.24991 0.0
C41 C 0.53147 0.7663 0.3726 0.0
C42 C 0.53743 0.73449 0.36595 0.0
C43 C 0.542 0.78666 0.2984 0.0
C44 C 0.55748 0.77453 0.21827 0.0
C45 C 0.5603 0.74324 0.20552 0.0
C46 C 0.55176 0.72364 0.28155 0.0
N47 N 0.53429 0.81841 0.29631 0.0
H48 H 0.26426 0.48704 0.05045 0.0
H49 H 0.2918 0.5525 0.26687 0.0
H50 H 0.2067 0.56254 0.12336 0.0
H51 H 0.34003 0.54147 0.16835 0.0
C52 C 0.33786 0.51891 0.19956 0.0
C53 C 0.26009 0.50764 0.09099 0.0
C54 C 0.23286 0.5245 0.07413 0.0
C55 C 0.28229 0.51835 0.15907 0.0
C56 C 0.27597 0.54476 0.21219 0.0
C57 C 0.24891 0.56056 0.19963 0.0
C58 C 0.22803 0.55062 0.13015 0.0
N59 N 0.31019 0.50254 0.17906 0.0
H60 H 1.00438 0.28301 0.02587 0.0
H61 H 0.07897 0.31146 0.20494 0.0
H62 H 0.07651 0.22144 0.08591 0.0
H63 H 0.06537 0.35879 0.13744 0.0
C64 C 0.04276 0.35628 0.16846 0.0
C65 C 0.02615 0.27845 0.05853 0.0
C66 C 0.04062 0.24996 0.0415 0.0
C67 C 0.04041 0.30121 0.11712 0.0
C68 C 0.06836 0.29444 0.16022 0.0
C69 C 0.08083 0.26525 0.15619 0.0
C70 C 0.06759 0.2441 0.09173 0.0
N71 N 0.02577 0.32944 0.14221 0.0
H72 H 0.2599 1.01753 1.01082 0.0
H73 H 0.24488 0.07669 0.25657 0.0
H74 H 0.32758 0.08281 0.0953 0.0
H75 H 0.22947 0.02572 0.3071 0.0
C76 C 0.21073 0.02709 0.25631 0.0
C77 C 0.26676 0.0367 0.0547 0.0
C78 C 0.29629 0.04989 0.04102 0.0
C79 C 0.24717 0.04731 0.13131 0.0
C80 C 0.25802 0.0703 0.19301 0.0
C81 C 0.28809 0.08026 0.18678 0.0
C82 C 0.30473 0.07378 0.10231 0.0
N83 N 0.2186 0.03291 0.15591 0.0
H84 H 0.48677 0.28207 0.11319 0.0
H85 H 0.55824 0.256 0.30879 0.0
H86 H 0.56393 0.34069 0.15778 0.0
H87 H 0.54274 0.20669 0.21739 0.0
C88 C 0.52195 0.2099 0.25898 0.0
C89 C 0.50851 0.2866 0.1464 0.0
C90 C 0.52491 0.3137 0.12156 0.0
C91 C 0.52105 0.26499 0.21279 0.0
C92 C 0.54901 0.2716 0.25595 0.0
C93 C 0.56429 0.29883 0.23744 0.0
C94 C 0.55244 0.3192 0.16942 0.0
N95 N 0.5055 0.23755 0.24187 0.0
Eu96 Eu 0.99106 0.04085 0.6275 0.0
C97 C 0.04365 0.06484 0.02869 0.0
N98 N 0.06024 0.05953 0.94751 0.0
C99 C 0.09178 0.10262 0.98325 0.0
C100 C 0.0496 0.09005 0.08884 0.0
C101 C 0.08514 0.07705 0.92685 0.0
C102 C 0.0735 0.10955 0.06349 0.0
C103 C 1.00776 0.0455 0.14677 0.0
C104 C 0.02305 0.04308 0.05675 0.0
C105 C 1.01168 0.07167 0.20374 0.0
C106 C 0.03263 0.09397 0.17472 0.0
Eu107 Eu 0.04494 0.01869 0.84516 0.0
N108 N 0.02085 1.01781 1.00137 0.0
C109 C 0.99056 0.02077 0.17944 0.0
C110 C 1.00707 0.99244 0.03845 0.0
C111 C 0.99105 0.99375 0.12659 0.0
H112 H 0.09903 0.07203 0.86382 0.0
H113 H 0.97891 0.974 0.15307 0.0
H114 H 0.93373 0.08268 0.70942 0.0
H115 H 0.99192 0.95792 0.33208 0.0
H116 H 1.00734 0.97147 0.99763 0.0
H117 H 0.97811 0.02189 0.24743 0.0
H118 H 1.01411 0.99357 0.45023 0.0
H119 H 0.11085 0.11705 0.96445 0.0
H120 H 0.99982 0.07414 0.27252 0.0
H121 H 0.03656 0.11337 0.22139 0.0
H122 H 0.87782 0.08472 0.69752 0.0
H123 H 0.07878 0.12924 0.10746 0.0
H124 H 0.93616 0.95375 0.31641 0.0
N125 N 0.93787 0.04534 0.61286 0.0
C126 C 0.92352 0.02612 0.55152 0.0
C127 C 0.89038 0.06799 0.65639 0.0
C128 C 0.89175 0.02666 0.54109 0.0
C129 C 0.92198 0.06666 0.66345 0.0
C130 C 0.87514 0.04773 0.59551 0.0
N131 N 0.97143 1.00822 0.5054 0.0
C132 C 0.98977 0.99178 0.44491 0.0
C133 C 0.92718 0.98731 0.42776 0.0
C134 C 0.94091 1.00687 0.49581 0.0
C135 C 0.9458 0.96916 0.36936 0.0
C136 C 0.97726 0.97153 0.37775 0.0
H137 H 0.85068 0.0489 0.58969 0.0
H138 H 0.85334 1.00656 0.4668 0.0
H139 H 0.88445 0.97181 0.36822 0.0
O140 O 0.02522 0.06846 0.55672 0.0
O141 O 0.99221 0.989 0.64595 0.0
O142 O 0.0347 0.9794 0.74013 0.0
O143 O 0.9779 0.07658 0.52536 0.0
O144 O 0.03824 0.0214 0.5847 0.0
O145 O 0.06603 0.0396 0.7101 0.0
O146 O 0.06586 0.98056 0.92183 0.0
O147 O 0.0436 0.06751 0.78759 0.0
O148 O 0.99417 0.07546 0.75339 0.0
O149 O 0.0938 1.01081 0.83957 0.0
O150 O 0.99415 1.00454 0.85157 0.0
O151 O 0.97139 0.04485 0.78064 0.0
C152 C 1.01337 0.9705 0.67862 0.0
C153 C 1.01234 0.11848 0.53234 0.0
C154 C 0.0485 0.16027 0.51262 0.0
C155 C 0.0279 0.1791 0.56362 0.0
C156 C 0.99247 0.13741 0.58344 0.0
C157 C 1.0005 0.16755 0.59996 0.0
C158 C 0.04056 0.12959 0.50127 0.0
C159 C 0.06491 0.0284 0.62189 0.0
C160 C 1.0058 0.08632 0.51619 0.0
C161 C 0.87775 1.00665 0.47552 0.0
C162 C 0.89545 0.98693 0.41915 0.0
C163 C 0.02006 0.08563 0.78799 0.0
C164 C 0.10685 0.95894 0.83493 0.0
C165 C 0.11648 0.90462 0.83122 0.0
C166 C 0.12876 0.90727 0.73743 0.0
C167 C 0.11992 0.96144 0.74156 0.0
C168 C 0.10584 0.93051 0.87975 0.0
C169 C 0.13087 0.93575 0.69342 0.0
C170 C 0.9709 0.02322 0.84601 0.0
C171 C 0.09252 0.98507 0.88416 0.0
H172 H 0.03196 0.20306 0.57309 0.0
H173 H 0.97102 0.12891 0.61126 0.0
H174 H 0.98511 0.18226 0.63912 0.0
H175 H 0.05607 0.11382 0.46749 0.0
H176 H 0.13655 0.8874 0.69854 0.0
H177 H 0.12116 0.98302 0.70483 0.0
H178 H 0.0955 0.92827 0.95123 0.0
H179 H 0.14045 0.93787 0.62107 0.0
Eu180 Eu 0.53594 0.05549 0.85648 0.0
C181 C 0.54483 0.93003 0.69837 0.0
N182 N 0.54963 0.95622 0.64833 0.0
C183 C 0.59622 0.93632 0.58402 0.0
C184 C 0.56653 0.90664 0.69765 0.0
C185 C 0.57385 0.95867 0.58617 0.0
C186 C 0.5929 0.91049 0.64182 0.0
C187 C 0.51035 0.89796 0.79107 0.0
C188 C 0.5171 0.9256 0.74411 0.0
C189 C 0.5326 0.87536 0.79578 0.0
C190 C 0.56065 0.8797 0.74916 0.0
Eu191 Eu 0.51189 0.99424 0.66759 0.0
N192 N 0.49625 0.94806 0.7398 0.0
C193 C 0.48123 0.89367 0.83014 0.0
C194 C 0.46725 0.94338 0.77218 0.0
C195 C 0.45943 0.91629 0.81916 0.0
H196 H 0.57608 0.97774 0.53737 0.0
H197 H 0.43669 0.91294 0.84732 0.0
H198 H 0.47321 0.09681 0.8819 0.0
H199 H 0.65206 0.09525 0.78517 0.0
H200 H 0.45051 0.96102 0.76442 0.0
H201 H 0.47517 0.87277 0.86698 0.0
H202 H 0.61305 0.06052 0.85007 0.0
H203 H 0.61581 0.93887 0.53682 0.0
H204 H 0.52804 0.85415 0.83293 0.0
H205 H 0.57723 0.86168 0.75062 0.0
H206 H 0.45522 0.14852 0.84251 0.0
H207 H 0.61011 0.89307 0.63928 0.0
H208 H 0.6373 0.14488 0.71705 0.0
N209 N 0.51751 0.10467 0.82553 0.0
C210 C 0.5376 0.12512 0.78874 0.0
C211 C 0.47837 0.14216 0.82639 0.0
C212 C 0.52838 0.1547 0.76453 0.0
C213 C 0.48856 0.11301 0.84871 0.0
C214 C 0.49824 0.16296 0.7827 0.0
N215 N 0.57605 0.08869 0.80975 0.0
C216 C 0.60607 0.08153 0.81689 0.0
C217 C 0.58937 0.13772 0.74411 0.0
C218 C 0.56768 0.11668 0.77894 0.0
C219 C 0.61995 0.1294 0.74336 0.0
C220 C 0.62837 0.1014 0.78168 0.0
H221 H 0.49027 0.18548 0.76512 0.0
H222 H 0.54285 0.19787 0.70443 0.0
H223 H 0.59631 0.183 0.6865 0.0
O224 O 0.55732 0.07674 0.98232 0.0
O225 O 0.50976 0.07115 0.7201 0.0
O226 O 0.5287 0.03925 0.60614 0.0
O227 O 0.5161 0.05095 1.00163 0.0
O228 O 0.5747 0.02681 0.79169 0.0
O229 O 0.55803 1.01776 0.63742 0.0
O230 O 0.47298 1.00246 0.57803 0.0
O231 O 0.51066 0.98309 0.83104 0.0
O232 O 0.55336 1.00722 0.87581 0.0
O233 O 0.50541 0.96767 0.53265 0.0
O234 O 0.47003 1.01756 0.73636 0.0
O235 O 0.48773 0.03763 0.88078 0.0
C236 C 0.51878 0.06628 0.63012 0.0
C237 C 0.55331 0.04509 0.11945 0.0
C238 C 0.5915 1.00763 0.16306 0.0
C239 C 0.57974 1.00731 0.25864 0.0
C240 C 0.54184 0.04445 0.21459 0.0
C241 C 0.55493 0.02542 0.28371 0.0
C242 C 0.57758 0.02625 0.09382 0.0
C243 C 0.58051 0.02238 0.69859 0.0
C244 C 0.539 0.06375 0.04445 0.0
C245 C 0.54959 0.17518 0.72497 0.0
C246 C 0.58002 0.16668 0.71458 0.0
C247 C 0.53465 0.98425 0.8865 0.0
C248 C 0.46146 0.97666 0.42879 0.0
C249 C 0.41512 0.9881 0.34303 0.0
C250 C 0.42185 0.96565 0.27408 0.0
C251 C 0.46853 0.95446 0.35917 0.0
C252 C 0.435 0.99364 0.41906 0.0
C253 C 0.44873 0.9491 0.28176 0.0
C254 C 0.46531 0.028 0.82536 0.0
C255 C 0.4805 0.98213 0.51389 0.0
H256 H 0.59015 0.99383 0.31495 0.0
H257 H 0.52274 0.05847 0.23511 0.0
H258 H 0.54607 0.02495 0.35728 0.0
H259 H 0.58573 0.02633 0.01945 0.0
H260 H 0.40645 0.96107 0.21477 0.0
H261 H 0.489 0.94114 0.3651 0.0
H262 H 0.42918 1.01078 0.4725 0.0
H263 H 0.45403 0.93187 0.22844 0.0
Eu264 Eu 0.54884 0.5115 0.62973 0.0
C265 C 0.426 0.49585 0.8839 0.0
N266 N 0.43361 0.51406 0.80763 0.0
C267 C 0.3834 0.50903 0.7433 0.0
C268 C 0.39657 0.48334 0.89227 0.0
C269 C 0.41271 0.52117 0.73847 0.0
C270 C 0.37529 0.49001 0.82041 0.0
C271 C 0.44043 0.47069 0.03367 0.0
C272 C 0.44762 0.48979 0.95436 0.0
C273 C 0.4111 0.45841 0.04243 0.0
C274 C 0.38923 0.46475 0.97204 0.0
Eu275 Eu 0.48329 0.53448 0.80928 0.0
N276 N 0.47592 0.50185 0.94397 0.0
C277 C 0.46314 0.46393 0.10076 0.0
C278 C 0.49796 0.49583 1.01044 0.0
C279 C 0.49211 0.47622 0.08817 0.0
H280 H 0.41822 0.53687 0.68077 0.0
H281 H 0.51001 0.47061 0.13838 0.0
H282 H 0.60896 0.55457 0.69151 0.0
H283 H 0.49646 0.5024 0.27027 0.0
H284 H 0.52033 0.50544 1.00292 0.0
H285 H 0.45865 0.44897 0.16173 0.0
H286 H 0.51311 0.48354 0.42892 0.0
H287 H 0.36696 0.51468 0.6882 0.0
H288 H 0.40516 0.44381 0.10309 0.0
H289 H 0.36672 0.45507 0.97978 0.0
H290 H 0.63678 0.59954 0.62898 0.0
H291 H 0.35248 0.48083 0.82427 0.0
H292 H 0.51352 0.55268 0.21134 0.0
N293 N 0.5777 0.55368 0.57446 0.0
C294 C 0.56941 0.5658 0.48784 0.0
C295 C 0.61781 0.59036 0.58887 0.0
C296 C 0.58433 0.5917 0.45035 0.0
C297 C 0.60214 0.56493 0.62386 0.0
C298 C 0.60859 0.60408 0.5025 0.0
N299 N 0.5348 0.52504 0.4688 0.0
C300 C 0.51942 0.50626 0.40703 0.0
C301 C 0.53945 0.56232 0.34107 0.0
C302 C 0.547 0.55135 0.43428 0.0
C303 C 0.52006 0.54499 0.28302 0.0
C304 C 0.51065 0.51648 0.31534 0.0
H305 H 0.62064 0.62391 0.47591 0.0
H306 H 0.58595 0.62413 0.33201 0.0
H307 H 0.54663 0.59838 0.23624 0.0
O308 O 0.56152 0.46773 0.5661 0.0
O309 O 0.54363 0.56076 0.68175 0.0
O310 O 0.49294 0.5663 0.68007 0.0
O311 O 0.5957 0.5017 0.58975 0.0
O312 O 0.49932 0.49637 0.59165 0.0
O313 O 0.47235 0.53624 0.64968 0.0
O314 O 0.49202 0.57373 0.90137 0.0
O315 O 0.49152 0.48262 0.80309 0.0
O316 O 0.54146 0.47862 0.75523 0.0
O317 O 0.44586 0.56222 0.8632 0.0
O318 O 0.53123 0.54086 0.87293 0.0
O319 O 0.56831 0.51589 0.78258 0.0
C320 C 0.52 0.57781 0.66417 0.0
C321 C 0.60956 0.45108 0.61744 0.0
C322 C 0.62935 0.39975 0.62195 0.0
C323 C 0.64167 0.40526 0.71396 0.0
C324 C 0.62254 0.4567 0.70886 0.0
C325 C 0.63859 0.43387 0.75661 0.0
C326 C 0.61345 0.42279 0.5741 0.0
C327 C 0.4748 0.51361 0.58903 0.0
C328 C 0.59043 0.47361 0.56862 0.0
C329 C 0.57514 0.60394 0.3611 0.0
C330 C 0.55268 0.58932 0.3067 0.0
C331 C 0.51698 0.46702 0.79641 0.0
C332 C 0.46149 0.61314 0.84262 0.0
C333 C 0.48562 0.66161 0.80313 0.0
C334 C 0.46509 0.66556 0.72655 0.0
C335 C 0.44117 0.61744 0.76537 0.0
C336 C 0.48298 0.63566 0.86216 0.0
C337 C 0.44287 0.64364 0.70842 0.0
C338 C 0.55928 0.5306 0.86119 0.0
C339 C 0.46426 0.58351 0.89192 0.0
H340 H 0.65338 0.38748 0.75266 0.0
H341 H 0.61984 0.47846 0.74394 0.0
H342 H 0.64816 0.43822 0.82757 0.0
H343 H 0.60289 0.41824 0.5045 0.0
H344 H 0.46637 0.68536 0.68016 0.0
H345 H 0.42457 0.60024 0.7469 0.0
H346 H 0.49799 0.63254 0.92339 0.0
H347 H 0.42736 0.64664 0.64856 0.0
Eu348 Eu 0.03138 0.56501 0.61894 0.0
C349 C 0.04457 0.44375 0.87376 0.0
N350 N 0.02622 0.44993 0.79732 0.0
C351 C 0.03087 0.39874 0.74079 0.0
C352 C 0.05712 0.41465 0.88597 0.0
C353 C 0.01888 0.42787 0.73188 0.0
C354 C 0.05013 0.3921 0.81801 0.0
C355 C 0.07009 0.461 0.01978 0.0
C356 C 0.05096 0.46662 0.94001 0.0
C357 C 0.08272 0.43211 0.03179 0.0
C358 C 0.07619 0.40898 0.96526 0.0
Eu359 Eu 1.00618 0.49946 0.7909 0.0
N360 N 0.03922 0.49465 0.92473 0.0
C361 C 0.07634 0.48474 0.08424 0.0
C362 C 0.04465 0.51768 0.98862 0.0
C363 C 0.06355 0.51319 0.06851 0.0
H364 H 1.00317 0.43244 0.67399 0.0
H365 H 0.06811 0.53165 0.11822 0.0
H366 H 0.9938 0.62535 0.70636 0.0
H367 H 0.02817 0.51682 0.25099 0.0
H368 H 0.0345 0.53955 0.97829 0.0
H369 H 0.09096 0.48134 0.14626 0.0
H370 H 0.05099 0.52847 0.40918 0.0
H371 H 0.02501 0.38134 0.68861 0.0
H372 H 0.09776 0.4275 0.09187 0.0
H373 H 0.0861 0.3868 0.97559 0.0
H374 H 0.95108 0.65828 0.65865 0.0
H375 H 0.0593 0.36946 0.82491 0.0
H376 H 0.98015 0.54122 0.2036 0.0
N377 N 0.99103 0.59789 0.57971 0.0
C378 C 0.97761 0.59323 0.49208 0.0
C379 C 0.95823 0.64 0.61145 0.0
C380 C 0.95302 0.61128 0.46252 0.0
C381 C 0.98232 0.62137 0.63833 0.0
C382 C 0.9433 0.63473 0.52372 0.0
N383 N 1.01352 0.55449 0.45966 0.0
C384 C 0.02886 0.53732 0.3931 0.0
C385 C 0.97577 0.56599 0.33891 0.0
C386 C 0.98876 0.57054 0.43146 0.0
C387 C 0.98942 0.54537 0.27518 0.0
C388 C 0.01648 0.5315 0.30166 0.0
H389 H 0.92451 0.64908 0.50346 0.0
H390 H 0.91996 0.619 0.3494 0.0
H391 H 0.94002 0.57956 0.24084 0.0
O392 O 0.07328 0.57611 0.53935 0.0
O393 O 0.98084 0.55973 0.66023 0.0
O394 O 0.97403 0.50894 0.6642 0.0
O395 O 0.04489 0.61191 0.59312 0.0
O396 O 0.04566 0.51604 0.57718 0.0
O397 O 1.00614 0.48653 0.63077 0.0
O398 O 0.97648 0.50292 0.91664 0.0
O399 O 0.05846 0.50438 0.77739 0.0
O400 O 0.06406 0.55494 0.74261 0.0
O401 O 0.97106 0.46507 0.81832 0.0
O402 O 0.9952 0.54841 0.84228 0.0
O403 O 0.0312 0.58053 0.77652 0.0
C404 C 0.96341 0.53595 0.645 0.0
C405 C 0.09759 0.61957 0.60327 0.0
C406 C 0.15191 0.62954 0.60141 0.0
C407 C 0.14993 0.64209 0.69478 0.0
C408 C 0.09568 0.63279 0.69635 0.0
C409 C 0.12176 0.64407 0.74145 0.0
C410 C 0.12566 0.61853 0.55592 0.0
C411 C 0.02862 0.49129 0.56959 0.0
C412 C 0.07115 0.60502 0.55719 0.0
C413 C 0.93911 0.60562 0.37276 0.0
C414 C 0.95045 0.58304 0.31113 0.0
C415 C 0.07541 0.52915 0.77365 0.0
C416 C 0.92673 0.48986 0.87222 0.0
C417 C 0.8874 0.5288 0.87713 0.0
C418 C 0.86577 0.50616 0.8546 0.0
C419 C 0.90486 0.46782 0.85057 0.0
C420 C 0.91804 0.52042 0.87953 0.0
C421 C 0.8746 0.47613 0.83959 0.0
C422 C 1.01049 0.57436 0.8427 0.0
C423 C 0.95863 0.48129 0.88667 0.0
H424 H 0.17009 0.65014 0.73141 0.0
H425 H 0.07428 0.63373 0.73531 0.0
H426 H 0.1202 0.65378 0.81356 0.0
H427 H 0.12732 0.60789 0.48495 0.0
H428 H 0.84176 0.51097 0.85339 0.0
H429 H 0.91115 0.44424 0.8426 0.0
H430 H 0.93515 0.53765 0.89105 0.0
H431 H 0.85771 0.45901 0.82343 0.0
H432 H 0.19818 0.03694 0.444 0.0
H433 H 0.15276 0.01853 0.17428 0.0
H434 H 0.10359 1.01671 0.26167 0.0
H435 H 0.07344 0.01917 0.41977 0.0
H436 H 0.12176 0.04128 0.68305 0.0
H437 H 0.16915 0.04263 0.59383 0.0
C438 C 0.17754 0.03262 0.40367 0.0
C439 C 0.17947 0.02772 0.30235 0.0
C440 C 0.14954 0.03202 0.45418 0.0
C441 C 0.15224 0.02244 0.25198 0.0
C442 C 0.12405 0.02129 0.30243 0.0
C443 C 0.09433 0.02424 0.45761 0.0
C444 C 0.0935 0.0295 0.55986 0.0
C445 C 0.12234 0.0258 0.40428 0.0
C446 C 0.1211 0.03669 0.60576 0.0
C447 C 0.14854 0.03754 0.55445 0.0
H448 H 0.54899 0.15579 0.27903 0.0
H449 H 0.47983 0.21045 0.41317 0.0
H450 H 0.47289 0.17169 0.54098 0.0
H451 H 0.487 0.12127 0.6154 0.0
H452 H 0.55662 0.06836 0.47466 0.0
H453 H 0.56241 0.10679 0.34964 0.0
C454 C 0.53216 0.15925 0.33577 0.0
C455 C 0.51486 0.18614 0.33537 0.0
C456 C 0.52837 0.13689 0.4087 0.0
C457 C 0.49331 0.19003 0.41031 0.0
C458 C 0.48947 0.1678 0.48392 0.0
C459 C 0.50364 0.11834 0.558 0.0
C460 C 0.52145 0.09157 0.55603 0.0
C461 C 0.50698 0.14104 0.48434 0.0
C462 C 0.54243 0.08826 0.47912 0.0
C463 C 0.54588 0.11044 0.40708 0.0
H464 H 0.38795 0.55097 0.24405 0.0
H465 H 0.34358 0.46665 0.31521 0.0
H466 H 0.38337 0.45578 0.43546 0.0
H467 H 0.43008 0.47224 0.5287 0.0
H468 H 0.47076 0.55865 0.45897 0.0
H469 H 0.43379 0.56644 0.33069 0.0
C470 C 0.38699 0.53 0.28516 0.0
C471 C 0.36253 0.50972 0.26978 0.0
C472 C 0.40969 0.52423 0.35503 0.0
C473 C 0.36192 0.48276 0.32464 0.0
C474 C 0.38479 0.47659 0.39383 0.0
C475 C 0.43124 0.49237 0.48369 0.0
C476 C 0.45411 0.51443 0.50208 0.0
C477 C 0.40878 0.49732 0.41072 0.0
C478 C 0.45413 0.54099 0.44551 0.0
C479 C 0.43276 0.54558 0.3722 0.0
H480 H 0.07711 0.40243 0.23682 0.0
H481 H 0.98861 0.36225 0.27383 0.0
H482 H 0.97647 0.40018 0.39944 0.0
H483 H 0.99131 0.44522 0.49994 0.0
H484 H 0.08072 0.48384 0.46219 0.0
H485 H 0.09181 0.44675 0.33527 0.0
C486 C 0.05499 0.40207 0.27154 0.0
C487 C 0.03376 0.37942 0.24454 0.0
C488 C 0.04829 0.42393 0.34401 0.0
C489 C 1.00542 0.37925 0.29211 0.0
C490 C 0.99851 0.40104 0.36429 0.0
C491 C 1.01333 0.44547 0.46453 0.0
C492 C 0.03508 0.46782 0.49162 0.0
C493 C 0.01981 0.42352 0.39128 0.0
C494 C 0.06333 0.46748 0.44336 0.0
C495 C 0.06977 0.44606 0.37059 0.0
H496 H 0.85246 0.0368 0.11942 0.0
H497 H 0.87589 0.94441 0.18715 0.0
H498 H 0.91937 0.94715 0.07815 0.0
H499 H 0.95047 0.97448 0.95672 0.0
H500 H 0.92975 0.06757 0.89187 0.0
H501 H 0.88601 0.06548 1.00193 0.0
C502 C 0.86716 1.01737 0.11079 0.0
C503 C 0.86039 0.99031 0.16237 0.0
C504 C 0.89282 0.01898 0.04643 0.0
C505 C 0.88008 0.96553 0.14899 0.0
C506 C 0.90516 0.96698 0.08602 0.0
C507 C 0.93679 0.99454 0.9677 0.0
C508 C 0.9441 0.02124 0.91569 0.0
C509 C 0.91172 0.99342 0.03337 0.0
C510 C 0.92508 0.04656 0.92993 0.0
C511 C 0.89992 0.04546 0.99377 0.0
H512 H 0.58959 0.88039 0.15335 0.0
H513 H 0.49518 0.85987 0.20356 0.0
H514 H 0.48092 0.90194 0.09549 0.0
H515 H 0.49562 0.94533 0.98611 0.0
H516 H 0.59055 0.96447 0.93851 0.0
H517 H 0.60406 0.92208 0.04355 0.0
C518 C 0.5658 0.88514 0.14131 0.0
C519 C 0.54354 0.86685 0.18768 0.0
C520 C 0.55783 0.90934 0.07895 0.0
C521 C 0.51288 0.87347 0.17007 0.0
C522 C 0.50474 0.89763 0.10796 0.0
C523 C 0.51927 0.94028 0.99911 0.0
C524 C 0.54204 0.95841 0.95395 0.0
C525 C 0.52702 0.91584 0.06192 0.0
C526 C 0.57251 0.95138 0.9724 0.0
C527 C 0.58028 0.92706 0.03289 0.0
H528 H 0.64216 0.57622 0.2116 0.0
H529 H 0.69891 0.50281 0.11526 0.0
H530 H 0.66177 0.48998 0.98874 0.0
H531 H 0.61336 0.50084 0.90136 0.0
H532 H 0.55667 0.57376 1.0038 0.0
H533 H 0.59338 0.58545 0.13043 0.0
C534 C 0.64636 0.5572 0.16348 0.0
C535 C 0.6735 0.54052 0.17367 0.0
C536 C 0.62479 0.54994 0.09098 0.0
C537 C 0.67832 0.51597 0.11024 0.0
C538 C 0.65704 0.50874 0.03728 0.0
C539 C 0.60899 0.51932 0.95116 0.0
C540 C 0.58202 0.53651 0.94112 0.0
C541 C 0.63025 0.52576 0.02609 0.0
C542 C 0.57689 0.56001 1.0085 0.0
C543 C 0.59798 0.56677 0.08154 0.0
H544 H 0.95303 0.68519 0.07551 0.0
H545 H 0.04453 0.6942 0.17905 0.0
H546 H 0.05926 0.64887 0.08645 0.0
H547 H 0.04679 0.6084 0.96478 0.0
H548 H 0.95398 0.59673 0.87588 0.0
H549 H 0.93907 0.64068 0.97376 0.0
C550 C 0.97607 0.67684 0.07958 0.0
C551 C 0.9976 0.69322 0.13495 0.0
C552 C 0.9842 0.65023 0.02757 0.0
C553 C 0.02736 0.682 0.13863 0.0
C554 C 0.03585 0.65614 0.08466 0.0
C555 C 0.02325 0.61529 0.96789 0.0
C556 C 1.00154 0.59919 0.91218 0.0
C557 C 1.01462 0.64033 0.02717 0.0
C558 C 0.97112 0.60841 0.91803 0.0
C559 C 0.96261 0.63375 0.97379 0.0
H560 H 0.11714 0.21341 0.16553 0.0
H561 H 0.09656 0.29296 0.33548 0.0
H562 H 0.09593 0.26305 0.48137 0.0
H563 H 0.07928 0.21412 0.54674 0.0
H564 H 0.08163 0.13568 0.35689 0.0
H565 H 0.11038 0.16376 0.23942 0.0
C566 C 0.11195 0.22435 0.23408 0.0
C567 C 0.10163 0.25451 0.23577 0.0
C568 C 0.107 0.20631 0.31648 0.0
C569 C 0.10098 0.26905 0.32758 0.0
C570 C 0.10037 0.2518 0.4127 0.0
C571 C 0.08568 0.20295 0.47967 0.0
C572 C 0.0755 0.17327 0.45956 0.0
C573 C 0.09925 0.22019 0.4056 0.0
C574 C 0.0874 0.15871 0.37589 0.0
C575 C 0.104 0.17495 0.30665 0.0
H576 H 0.28456 0.04023 0.33321 0.0
H577 H 0.33404 0.1199 0.24327 0.0
H578 H 0.38142 0.09667 0.29624 0.0
H579 H 0.40906 0.04836 0.3184 0.0
H580 H 0.35858 0.96594 0.3698 0.0
H581 H 0.31113 0.99448 0.37353 0.0
C582 C 0.30552 0.05313 0.3285 0.0
C583 C 0.30621 0.08073 0.2772 0.0
C584 C 0.33266 0.03789 0.34447 0.0
C585 C 0.33312 0.09801 0.27889 0.0
C586 C 0.36034 0.08425 0.30573 0.0
C587 C 0.38755 0.03687 0.33043 0.0
C588 C 0.38677 1.0052 0.34081 0.0
C589 C 0.36048 0.05329 0.32953 0.0
C590 C 0.35921 0.99024 0.35845 0.0
C591 C 0.33232 1.00659 0.36224 0.0
H592 H 0.56916 0.29161 0.43252 0.0
H593 H 0.61663 0.32837 0.18324 0.0
H594 H 0.64875 0.3586 0.2903 0.0
H595 H 0.65312 0.38375 0.44892 0.0
H596 H 0.60328 0.34895 0.69534 0.0
H597 H 0.58334 0.30754 0.59609 0.0
C598 C 0.58738 0.30515 0.40144 0.0
C599 C 0.58986 0.30854 0.29994 0.0
C600 C 0.6052 0.32297 0.46324 0.0
C601 C 0.61368 0.32617 0.26118 0.0
C602 C 0.63205 0.34342 0.32232 0.0
C603 C 0.63905 0.36617 0.48149 0.0
C604 C 0.62918 0.36938 0.57812 0.0
C605 C 0.62655 0.34348 0.42281 0.0
C606 C 0.61108 0.34673 0.6208 0.0
C607 C 0.59933 0.32338 0.56365 0.0
H608 H 0.25406 0.56048 0.39573 0.0
H609 H 0.22319 0.61511 0.15606 0.0
H610 H 0.19467 0.64714 0.26845 0.0
H611 H 0.16967 0.65152 0.42773 0.0
H612 H 0.1985 0.59523 0.66529 0.0
H613 H 0.23764 0.57258 0.56182 0.0
C614 C 0.24211 0.58013 0.36846 0.0
C615 C 0.24004 0.58502 0.26769 0.0
C616 C 0.22519 0.59792 0.43318 0.0
C617 C 0.22446 0.61054 0.23333 0.0
C618 C 0.20814 0.6288 0.29746 0.0
C619 C 0.18541 0.63516 0.4574 0.0
C620 C 0.18126 0.62466 0.55283 0.0
C621 C 0.20693 0.62153 0.39658 0.0
C622 C 0.20154 0.60357 0.59172 0.0
C623 C 0.2236 0.59039 0.53227 0.0
H624 H 0.04808 0.80026 0.03204 0.0
H625 H 0.10357 0.83034 0.27086 0.0
H626 H 0.13498 0.86017 0.15936 0.0
H627 H 0.13889 0.88607 1.00213 0.0
H628 H 0.082 0.85795 0.76519 0.0
H629 H 0.05956 0.81806 0.8665 0.0
C630 C 0.06771 0.81246 0.05906 0.0
C631 C 0.07307 0.81387 0.15954 0.0
C632 C 0.08522 0.83007 0.99487 0.0
C633 C 0.09862 0.82964 0.19383 0.0
C634 C 0.11656 0.84667 0.13024 0.0
C635 C 0.12242 0.87036 0.97203 0.0
C636 C 0.11166 0.87495 0.87754 0.0
C637 C 0.10895 0.84838 0.03172 0.0
C638 C 0.09048 0.85467 0.83807 0.0
C639 C 0.07743 0.83214 0.89635 0.0
H640 H 0.72619 0.97578 0.09722 0.0
H641 H 0.70338 0.90847 0.31161 0.0
H642 H 0.64952 0.91476 0.27717 0.0
H643 H 0.61084 0.95246 0.23113 0.0
H644 H 0.63639 0.02525 0.0358 0.0
H645 H 0.6865 1.00417 0.01803 0.0
C646 C 0.70953 0.9612 0.13246 0.0
C647 C 0.71828 0.94372 0.21272 0.0
C648 C 0.67872 0.96749 0.11974 0.0
C649 C 0.69691 0.9233 0.25258 0.0
C650 C 0.66599 0.92767 0.23523 0.0
C651 C 0.62726 0.96358 0.184 0.0
C652 C 0.61982 0.99101 0.1376 0.0
C653 C 0.65682 0.95204 0.17689 0.0
C654 C 0.64109 1.00422 0.07315 0.0
C655 C 0.67006 0.99223 0.06297 0.0
H656 H 0.53456 0.76525 0.04319 0.0
H657 H 0.59224 0.69307 0.14349 0.0
H658 H 0.5806 0.66382 0.99715 0.0
H659 H 0.54324 0.65382 0.86962 0.0
H660 H 0.47876 0.72323 0.79481 0.0
H661 H 0.50566 0.7594 0.89592 0.0
C662 C 0.54586 0.74377 0.03151 0.0
C663 C 0.56363 0.73098 0.10553 0.0
C664 C 0.53755 0.72647 0.95099 0.0
C665 C 0.57791 0.70306 0.08857 0.0
C666 C 0.57115 0.68632 1.0051 0.0
C667 C 0.53538 0.67704 0.87439 0.0
C668 C 0.50805 0.68536 0.82928 0.0
C669 C 0.54915 0.6969 0.94019 0.0
C670 C 0.49925 0.7159 0.83055 0.0
C671 C 0.51442 0.73657 0.88965 0.0
H672 H 0.84658 0.61471 0.1956 0.0
H673 H 0.76229 0.5963 0.04861 0.0
H674 H 0.78951 0.58548 0.90101 0.0
H675 H 0.83545 0.56101 0.83735 0.0
H676 H 0.91775 0.56654 1.00655 0.0
H677 H 0.89411 0.60174 0.11585 0.0
C678 C 0.83387 0.60771 0.13239 0.0
C679 C 0.80263 0.60096 0.13996 0.0
C680 C 0.84988 0.59811 0.04971 0.0
C681 C 0.78667 0.59792 0.05135 0.0
C682 C 0.80231 0.59162 0.96514 0.0
C683 C 0.8484 0.56996 0.89767 0.0
C684 C 0.87772 0.55897 0.91623 0.0
C685 C 0.83375 0.58789 0.96762 0.0
C686 C 0.89483 0.57326 0.99007 0.0
C687 C 0.88116 0.59346 0.05452 0.0
H688 H 0.0701 0.21621 0.90366 0.0
H689 H 0.98329 0.22324 0.0465 0.0
H690 H 0.96795 0.17418 0.97637 0.0
H691 H 0.98147 0.12602 0.88642 0.0
H692 H 0.06963 0.12018 0.75044 0.0
H693 H 0.08189 0.17126 0.80517 0.0
C694 C 0.0475 0.20741 0.91809 0.0
C695 C 0.02792 0.22398 0.98059 0.0
C696 C 0.03919 0.17872 0.87953 0.0
C697 C 0.99882 0.21168 0.99794 0.0
C698 C 0.99019 0.18324 0.95859 0.0
C699 C 1.00317 0.13612 0.86763 0.0
C700 C 0.0247 0.11867 0.81462 0.0
C701 C 1.01045 0.16603 0.90107 0.0
C702 C 0.0527 0.13249 0.79179 0.0
C703 C 0.05978 0.16193 0.82311 0.0
H704 H 0.34939 0.02666 0.10392 0.0
H705 H 0.30249 0.04757 0.83916 0.0
H706 H 0.34999 0.04071 0.74623 0.0
H707 H 0.40708 0.03418 0.74316 0.0
H708 H 0.4525 0.01798 1.01526 0.0
H709 H 0.40413 0.01789 0.10082 0.0
C710 C 0.34926 0.02888 0.02532 0.0
C711 C 0.32186 0.03712 0.979 0.0
C712 C 0.377 0.02651 0.97335 0.0
C713 C 0.32269 0.04053 0.87718 0.0
C714 C 0.35017 0.0371 0.82413 0.0
C715 C 0.40635 0.03035 0.82097 0.0
C716 C 0.43403 0.02636 0.87206 0.0
C717 C 0.37783 0.03096 0.87165 0.0
C718 C 0.43212 0.02156 0.97328 0.0
C719 C 0.40424 0.02134 0.02276 0.0
H720 H 0.55815 0.34083 0.97769 0.0
H721 H 0.46921 0.34312 0.10834 0.0
H722 H 0.4578 0.38969 0.01679 0.0
H723 H 0.47496 0.43243 0.90689 0.0
H724 H 0.56578 0.4295 0.78808 0.0
H725 H 0.57418 0.38112 0.86606 0.0
C726 C 0.53599 0.35116 0.98542 0.0
C727 C 0.51462 0.33801 0.05056 0.0
C728 C 0.53001 0.37846 0.93495 0.0
C729 C 0.48608 0.35208 0.05836 0.0
C730 C 0.4797 0.3791 1.00661 0.0
C731 C 0.49665 0.42141 0.89861 0.0
C732 C 0.51985 0.43574 0.84229 0.0
C733 C 0.50177 0.39302 0.94611 0.0
C734 C 0.54745 0.42 0.83119 0.0
C735 C 0.55238 0.39197 0.87605 0.0
H736 H 0.20664 0.56087 0.93866 0.0
H737 H 0.20041 0.47046 0.05494 0.0
H738 H 0.15203 0.46277 0.96933 0.0
H739 H 0.10892 0.48371 0.87017 0.0
H740 H 0.11591 0.57576 0.76614 0.0
H741 H 0.16594 0.58052 0.8363 0.0
C742 C 0.19511 0.53915 0.94394 0.0
C743 C 0.20773 0.51622 1.00335 0.0
C744 C 0.16677 0.53533 0.89731 0.0
C745 C 0.19195 0.4884 1.0089 0.0
C746 C 0.16389 0.48418 0.96076 0.0
C747 C 0.12118 0.5049 0.86353 0.0
C748 C 0.10752 0.52964 0.814 0.0
C749 C 0.15056 0.50779 0.90646 0.0
C750 C 0.12487 0.55643 0.80447 0.0
C751 C 0.15386 0.55921 0.84472 0.0
H752 H 0.05158 0.84199 0.50504 0.0
H753 H 0.96152 0.84453 0.38708 0.0
H754 H 0.95182 0.89237 0.47364 0.0
H755 H 0.97084 0.93632 0.57309 0.0
H756 H 0.06139 0.93199 0.68937 0.0
H757 H 0.06887 0.88295 0.61315 0.0
C758 C 0.02944 0.85248 0.50052 0.0
C759 C 1.00715 0.83902 0.44037 0.0
C760 C 0.02426 0.88035 0.54928 0.0
C761 C 0.97888 0.85361 0.43432 0.0
C762 C 0.97351 0.88136 0.48295 0.0
C763 C 0.99211 0.92454 0.58277 0.0
C764 C 1.01558 0.93861 0.63742 0.0
C765 C 0.99629 0.89543 0.53911 0.0
C766 C 0.04279 0.92236 0.64869 0.0
C767 C 0.04715 0.89398 0.60495 0.0
H768 H 0.71697 0.98815 0.58815 0.0
H769 H 0.69848 0.04636 0.34489 0.0
H770 H 0.64849 0.0581 0.41337 0.0
H771 H 0.60724 0.04723 0.53413 0.0
H772 H 0.62706 0.99176 0.78321 0.0
H773 H 0.67868 0.9836 0.72171 0.0
C774 C 0.70267 1.00465 0.55259 0.0
C775 C 0.71234 1.01708 0.46227 0.0
C776 C 0.6735 1.01107 0.59239 0.0
C777 C 0.69254 0.03735 0.41582 0.0
C778 C 0.66349 0.04354 0.45418 0.0
C779 C 0.62296 0.0336 0.57544 0.0
C780 C 0.61289 0.01981 0.66304 0.0
C781 C 0.65326 0.0298 0.54091 0.0
C782 C 0.63392 1.0026 0.71582 0.0
C783 C 0.66358 0.99792 0.68046 0.0
H784 H 0.56763 0.70691 0.51639 0.0
H785 H 0.48257 0.70573 0.36518 0.0
H786 H 0.46879 0.65771 0.44433 0.0
H787 H 0.4831 0.61294 0.54566 0.0
H788 H 0.56713 0.61594 0.70322 0.0
H789 H 0.5789 0.66561 0.63384 0.0
C790 C 0.54558 0.69675 0.50354 0.0
C791 C 0.52584 0.7107 0.43641 0.0
C792 C 0.53787 0.66872 0.54908 0.0
C793 C 0.49785 0.69628 0.41841 0.0
C794 C 0.49016 0.66842 0.46272 0.0
C795 C 0.50381 0.62462 0.56577 0.0
C796 C 0.52454 0.60998 0.62834 0.0
C797 C 0.5103 0.65391 0.52646 0.0
C798 C 0.55109 0.62594 0.65354 0.0
C799 C 0.55778 0.65463 0.61421 0.0
H800 H 0.83504 0.58373 0.50261 0.0
H801 H 0.8301 0.49504 0.37331 0.0
H802 H 0.87831 0.48139 0.45045 0.0
H803 H 0.92501 0.49666 0.54313 0.0
H804 H 0.92766 0.58507 0.67606 0.0
H805 H 0.87797 0.59667 0.6097 0.0
C806 C 0.84406 0.56109 0.49323 0.0
C807 C 0.82843 0.54039 0.43245 0.0
C808 C 0.87208 0.55353 0.53717 0.0
C809 C 0.84099 0.51132 0.42074 0.0
C810 C 0.86892 0.50365 0.46409 0.0
C811 C 0.91457 0.51833 0.55848 0.0
C812 C 0.931 0.54039 0.61225 0.0
C813 C 0.88518 0.52482 0.52071 0.0
C814 C 0.9165 0.56808 0.63208 0.0
C815 C 0.88774 0.57467 0.59472 0.0
loop_
_geom_bond_atom_site_label_1
_geom_bond_atom_site_label_2
_geom_bond_distance
_geom_bond_site_symmetry_2
_ccdc_geom_bond_type
H0 C5 0.930 . S
H1 C8 0.930 . S
H2 C10 0.930 . S
H3 C4 1.016 . S
C4 H3 1.016 . S
C4 N11 1.286 . S
C5 H0 0.930 . S
C5 C6 1.397 . S
C5 C7 1.361 . S
C6 C5 1.397 . S
C6 C10 1.390 . S
C7 C5 1.361 . S
C7 C8 1.393 . S
C7 N11 1.413 . S
C8 H1 0.930 . S
C8 C7 1.393 . S
C8 C9 1.399 . S
C9 C8 1.399 . S
C9 C10 1.381 . S
C10 H2 0.930 . S
C10 C6 1.390 . S
C10 C9 1.381 . S
N11 C4 1.286 . S
N11 C7 1.413 . S
H12 C17 0.930 . S
H13 C20 0.930 . S
H14 C22 0.930 . S
H15 C16 1.016 . S
C16 H15 1.016 . S
C16 N23 1.286 . S
C17 H12 0.930 . S
C17 C18 1.397 . S
C17 C19 1.361 . S
C18 C17 1.397 . S
C18 C22 1.390 . S
C19 C17 1.361 . S
C19 C20 1.393 . S
C19 N23 1.413 . S
C20 H13 0.930 . S
C20 C19 1.393 . S
C20 C21 1.399 . S
C21 C20 1.399 . S
C21 C22 1.381 . S
C22 H14 0.930 . S
C22 C18 1.390 . S
C22 C21 1.381 . S
N23 C16 1.286 . S
N23 C19 1.413 . S
H24 C29 0.930 . S
H25 C32 0.930 . S
H26 C34 0.930 . S
H27 C28 1.016 . S
C28 H27 1.016 . S
C28 N35 1.286 . S
C29 H24 0.930 . S
C29 C30 1.397 . S
C29 C31 1.361 . S
C30 C29 1.397 . S
C30 C34 1.390 . S
C31 C29 1.361 . S
C31 C32 1.393 . S
C31 N35 1.413 . S
C32 H25 0.930 . S
C32 C31 1.393 . S
C32 C33 1.399 . S
C33 C32 1.399 . S
C33 C34 1.381 . S
C34 H26 0.930 . S
C34 C30 1.390 . S
C34 C33 1.381 . S
N35 C28 1.286 . S
N35 C31 1.413 . S
H36 C41 0.930 . S
H37 C44 0.930 . S
H38 C46 0.930 . S
H39 C40 1.016 . S
C40 H39 1.016 . S
C40 N47 1.286 . S
C41 H36 0.930 . S
C41 C42 1.397 . S
C41 C43 1.361 . S
C42 C41 1.397 . S
C42 C46 1.390 . S
C43 C41 1.361 . S
C43 C44 1.393 . S
C43 N47 1.413 . S
C44 H37 0.930 . S
C44 C43 1.393 . S
C44 C45 1.399 . S
C45 C44 1.399 . S
C45 C46 1.381 . S
C46 H38 0.930 . S
C46 C42 1.390 . S
C46 C45 1.381 . S
N47 C40 1.286 . S
N47 C43 1.413 . S
H48 C53 0.930 . S
H49 C56 0.930 . S
H50 C58 0.930 . S
H51 C52 1.016 . S
C52 H51 1.016 . S
C52 N59 1.286 . S
C53 H48 0.930 . S
C53 C54 1.397 . S
C53 C55 1.361 1_556 S
C54 C53 1.397 . S
C54 C58 1.390 1_556 S
C55 C53 1.361 1_554 S
C55 C56 1.393 . S
C55 N59 1.413 . S
C56 H49 0.930 . S
C56 C55 1.393 . S
C56 C57 1.399 . S
C57 C56 1.399 . S
C57 C58 1.381 . S
C58 H50 0.930 . S
C58 C54 1.390 1_554 S
C58 C57 1.381 . S
N59 C52 1.286 . S
N59 C55 1.413 . S
H60 C65 0.930 . S
H61 C68 0.930 . S
H62 C70 0.930 . S
H63 C64 1.016 . S
C64 H63 1.016 . S
C64 N71 1.286 . S
C65 H60 0.930 . S
C65 C66 1.397 . S
C65 C67 1.361 1_556 S
C66 C65 1.397 . S
C66 C70 1.390 1_556 S
C67 C65 1.361 1_554 S
C67 C68 1.393 . S
C67 N71 1.413 . S
C68 H61 0.930 . S
C68 C67 1.393 . S
C68 C69 1.399 . S
C69 C68 1.399 . S
C69 C70 1.381 . S
C70 H62 0.930 . S
C70 C66 1.390 1_554 S
C70 C69 1.381 . S
N71 C64 1.286 . S
N71 C67 1.413 . S
H72 C77 0.930 . S
H73 C80 0.930 . S
H74 C82 0.930 . S
H75 C76 1.016 . S
C76 H75 1.016 . S
C76 N83 1.286 . S
C77 H72 0.930 . S
C77 C78 1.397 . S
C77 C79 1.361 1_556 S
C78 C77 1.397 . S
C78 C82 1.390 1_556 S
C79 C77 1.361 1_554 S
C79 C80 1.393 . S
C79 N83 1.413 . S
C80 H73 0.930 . S
C80 C79 1.393 . S
C80 C81 1.399 . S
C81 C80 1.399 . S
C81 C82 1.381 . S
C82 H74 0.930 . S
C82 C78 1.390 1_554 S
C82 C81 1.381 . S
N83 C76 1.286 . S
N83 C79 1.413 . S
H84 C89 0.930 . S
H85 C92 0.930 . S
H86 C94 0.930 . S
H87 C88 1.016 . S
C88 H87 1.016 . S
C88 N95 1.286 . S
C89 H84 0.930 . S
C89 C90 1.397 . S
C89 C91 1.361 1_556 S
C90 C89 1.397 . S
C90 C94 1.390 1_556 S
C91 C89 1.361 1_554 S
C91 C92 1.393 . S
C91 N95 1.413 . S
C92 H85 0.930 . S
C92 C91 1.393 . S
C92 C93 1.399 . S
C93 C92 1.399 . S
C93 C94 1.381 . S
C94 H86 0.930 . S
C94 C90 1.390 1_554 S
C94 C93 1.381 . S
N95 C88 1.286 . S
N95 C91 1.413 . S
Eu96 N125 2.600 . S
Eu96 N131 2.562 . S
Eu96 O140 2.475 . S
Eu96 O141 2.373 1_545 S
Eu96 O143 2.432 . S
Eu96 O144 2.291 1_655 S
Eu96 O148 2.335 1_655 S
Eu96 O151 2.372 . S
Eu96 C160 2.787 . S
C97 N98 1.365 . S
C97 C100 1.405 . S
C97 C104 1.448 1_556 S
N98 C97 1.365 . S
N98 C101 1.319 . S
N98 Eu107 2.600 1_545 S
C99 C101 1.397 . S
C99 C102 1.367 . S
C99 H119 0.931 . S
C100 C97 1.405 . S
C100 C102 1.403 . S
C100 C106 1.439 1_556 S
C101 N98 1.319 . S
C101 C99 1.397 . S
C101 H112 0.930 1_545 S
C102 C99 1.367 . S
C102 C100 1.403 . S
C102 H123 0.929 . S
C103 C104 1.430 . S
C103 C105 1.387 . S
C103 C109 1.404 . S
C104 C97 1.448 1_554 S
C104 C103 1.430 . S
C104 N108 1.351 1_554 S
C105 C103 1.387 . S
C105 C106 1.374 . S
C105 H120 0.931 . S
C106 C100 1.439 1_554 S
C106 C105 1.374 . S
C106 H121 0.931 . S
Eu107 N98 2.600 1_565 S
Eu107 N108 2.562 1_565 S
Eu107 O142 2.335 . S
Eu107 O145 2.372 . S
Eu107 O146 2.462 . S
Eu107 O147 2.373 1_565 S
Eu107 O149 2.432 . S
Eu107 O150 2.291 1_465 S
Eu107 C171 2.787 . S
N108 C104 1.351 1_556 S
N108 Eu107 2.562 1_545 S
N108 C110 1.325 1_556 S
C109 C103 1.404 . S
C109 C111 1.366 . S
C109 H117 0.930 . S
C110 N108 1.325 1_554 S
C110 C111 1.416 . S
C110 H116 0.929 1_455 S
C111 C109 1.366 . S
C111 C110 1.416 . S
C111 H113 0.917 1_455 S
H112 C101 0.930 1_565 S
H113 C111 0.917 1_655 S
H114 C129 0.930 . S
H115 C136 0.949 . S
H116 C110 0.929 1_655 S
H117 C109 0.930 . S
H118 C132 0.954 . S
H119 C99 0.931 . S
H120 C105 0.931 . S
H121 C106 0.931 . S
H122 C127 0.931 . S
H123 C102 0.929 . S
H124 C135 0.930 . S
N125 Eu96 2.600 . S
N125 C126 1.365 . S
N125 C129 1.319 . S
C126 N125 1.365 . S
C126 C128 1.405 1_545 S
C126 C134 1.448 1_545 S
C127 H122 0.931 . S
C127 C129 1.397 . S
C127 C130 1.367 1_545 S
C128 C126 1.405 1_565 S
C128 C130 1.403 . S
C128 C161 1.439 . S
C129 H114 0.930 . S
C129 N125 1.319 . S
C129 C127 1.397 . S
C130 C127 1.367 1_565 S
C130 C128 1.403 . S
C130 H137 0.929 . S
N131 Eu96 2.562 . S
N131 C132 1.302 1_655 S
N131 C134 1.351 1_545 S
C132 H118 0.954 . S
C132 N131 1.302 1_455 S
C132 C136 1.416 1_545 S
C133 C134 1.430 . S
C133 C135 1.404 . S
C133 C162 1.387 . S
C134 C126 1.448 1_565 S
C134 N131 1.351 1_565 S
C134 C133 1.430 . S
C135 H124 0.930 . S
C135 C133 1.404 . S
C135 C136 1.346 1_655 S
C136 H115 0.949 . S
C136 C132 1.416 1_565 S
C136 C135 1.346 1_455 S
H137 C130 0.929 . S
H138 C161 0.931 . S
H139 C162 0.931 . S
O140 Eu96 2.475 . S
O140 C160 1.285 . S
O141 Eu96 2.373 1_565 S
O141 C152 1.249 . S
O142 Eu107 2.335 . S
O142 C152 1.264 1_455 S
O143 Eu96 2.432 . S
O143 C160 1.268 . S
O144 Eu96 2.291 1_455 S
O144 C159 1.255 . S
O145 Eu107 2.372 . S
O145 C159 1.257 1_565 S
O146 Eu107 2.462 . S
O146 C171 1.252 . S
O147 Eu107 2.373 1_545 S
O147 C163 1.249 . S
O148 Eu96 2.335 1_455 S
O148 C163 1.264 . S
O149 Eu107 2.432 . S
O149 C171 1.268 . S
O150 Eu107 2.291 1_645 S
O150 C170 1.255 . S
O151 Eu96 2.372 . S
O151 C170 1.257 . S
C152 O141 1.249 . S
C152 O142 1.264 1_655 S
C153 C156 1.382 . S
C153 C158 1.390 . S
C153 C160 1.506 . S
C154 C155 1.398 . S
C154 C158 1.392 . S
C155 C154 1.398 . S
C155 C157 1.372 . S
C155 H172 0.931 . S
C156 C153 1.382 . S
C156 C157 1.390 . S
C156 H173 0.931 . S
C157 C155 1.372 . S
C157 C156 1.390 . S
C157 H174 0.929 . S
C158 C153 1.390 . S
C158 C154 1.392 . S
C158 H175 0.930 1_655 S
C159 O144 1.255 . S
C159 O145 1.257 1_545 S
C160 Eu96 2.787 . S
C160 O140 1.285 . S
C160 O143 1.268 . S
C160 C153 1.506 . S
C161 C128 1.439 . S
C161 H138 0.931 . S
C161 C162 1.374 . S
C162 C133 1.387 . S
C162 H139 0.931 . S
C162 C161 1.374 . S
C163 O147 1.249 . S
C163 O148 1.264 . S
C164 C167 1.382 . S
C164 C168 1.390 1_556 S
C164 C171 1.506 . S
C165 C166 1.398 . S
C165 C168 1.392 . S
C166 C165 1.398 . S
C166 C169 1.375 . S
C166 H176 0.931 . S
C167 C164 1.382 . S
C167 C169 1.387 1_556 S
C167 H177 0.931 . S
C168 C164 1.390 1_554 S
C168 C165 1.392 . S
C168 H178 0.930 . S
C169 C166 1.375 . S
C169 C167 1.387 1_554 S
C169 H179 0.929 1_554 S
C170 O150 1.255 . S
C170 O151 1.257 . S
C171 Eu107 2.787 . S
C171 O146 1.252 . S
C171 O149 1.268 . S
C171 C164 1.506 . S
H172 C155 0.931 . S
H173 C156 0.931 . S
H174 C157 0.929 . S
H175 C158 0.930 1_455 S
H176 C166 0.931 . S
H177 C167 0.931 . S
H178 C168 0.930 . S
H179 C169 0.929 1_556 S
Eu180 N209 2.600 . S
Eu180 N215 2.562 . S
Eu180 O224 2.462 . S
Eu180 O225 2.373 . S
Eu180 O227 2.432 . S
Eu180 O228 2.291 . S
Eu180 O232 2.335 1_545 S
Eu180 O235 2.372 . S
Eu180 C244 2.787 . S
C181 N182 1.365 . S
C181 C184 1.405 . S
C181 C188 1.448 . S
N182 C181 1.365 . S
N182 C185 1.319 . S
N182 Eu191 2.600 . S
C183 C185 1.397 . S
C183 C186 1.367 . S
C183 H203 0.931 . S
C184 C181 1.405 . S
C184 C186 1.403 . S
C184 C190 1.439 . S
C185 N182 1.319 . S
C185 C183 1.397 . S
C185 H196 0.930 . S
C186 C183 1.367 . S
C186 C184 1.403 . S
C186 H207 0.929 . S
C187 C188 1.430 . S
C187 C189 1.387 . S
C187 C193 1.404 . S
C188 C181 1.448 . S
C188 C187 1.430 . S
C188 N192 1.351 . S
C189 C187 1.387 . S
C189 C190 1.374 . S
C189 H204 0.931 . S
C190 C184 1.439 . S
C190 C189 1.374 . S
C190 H205 0.931 . S
Eu191 N182 2.600 . S
Eu191 N192 2.562 . S
Eu191 O226 2.335 1_565 S
Eu191 O229 2.372 . S
Eu191 O230 2.462 . S
Eu191 O231 2.373 . S
Eu191 O233 2.432 . S
Eu191 O234 2.291 1_565 S
Eu191 C255 2.787 . S
N192 C188 1.351 . S
N192 Eu191 2.562 . S
N192 C194 1.325 . S
C193 C187 1.404 . S
C193 C195 1.366 . S
C193 H201 0.930 . S
C194 N192 1.325 . S
C194 C195 1.416 . S
C194 H200 0.929 . S
C195 C193 1.366 . S
C195 C194 1.416 . S
C195 H197 0.930 . S
H196 C185 0.930 . S
H197 C195 0.930 . S
H198 C213 0.930 . S
H199 C220 0.930 . S
H200 C194 0.929 . S
H201 C193 0.930 . S
H202 C216 0.929 . S
H203 C183 0.931 . S
H204 C189 0.931 . S
H205 C190 0.931 . S
H206 C211 0.931 1_554 S
H207 C186 0.929 . S
H208 C219 0.930 . S
N209 Eu180 2.600 . S
N209 C210 1.365 . S
N209 C213 1.319 . S
C210 N209 1.365 . S
C210 C212 1.405 . S
C210 C218 1.448 . S
C211 H206 0.931 1_556 S
C211 C213 1.397 . S
C211 C214 1.367 . S
C212 C210 1.405 . S
C212 C214 1.403 . S
C212 C245 1.439 . S
C213 H198 0.930 . S
C213 N209 1.319 . S
C213 C211 1.397 . S
C214 C211 1.367 . S
C214 C212 1.403 . S
C214 H221 0.929 . S
N215 Eu180 2.562 . S
N215 C216 1.325 . S
N215 C218 1.351 . S
C216 H202 0.929 . S
C216 N215 1.325 . S
C216 C220 1.416 . S
C217 C218 1.430 . S
C217 C219 1.404 . S
C217 C246 1.387 . S
C218 C210 1.448 . S
C218 N215 1.351 . S
C218 C217 1.430 . S
C219 H208 0.930 . S
C219 C217 1.404 . S
C219 C220 1.366 . S
C220 H199 0.930 . S
C220 C216 1.416 . S
C220 C219 1.366 . S
H221 C214 0.929 . S
H222 C245 0.931 . S
H223 C246 0.931 . S
O224 Eu180 2.462 . S
O224 C244 1.252 . S
O225 Eu180 2.373 . S
O225 C236 1.249 . S
O226 Eu191 2.335 1_545 S
O226 C236 1.264 . S
O227 Eu180 2.432 . S
O227 C244 1.268 . S
O228 Eu180 2.291 . S
O228 C243 1.255 . S
O229 Eu191 2.372 . S
O229 C243 1.257 1_565 S
O230 Eu191 2.462 . S
O230 C255 1.252 . S
O231 Eu191 2.373 . S
O231 C247 1.249 . S
O232 Eu180 2.335 1_565 S
O232 C247 1.264 . S
O233 Eu191 2.432 . S
O233 C255 1.268 . S
O234 Eu191 2.291 1_545 S
O234 C254 1.255 . S
O235 Eu180 2.372 . S
O235 C254 1.257 . S
C236 O225 1.249 . S
C236 O226 1.264 . S
C237 C240 1.382 . S
C237 C242 1.390 . S
C237 C244 1.506 1_554 S
C238 C239 1.398 . S
C238 C242 1.392 . S
C239 C238 1.398 . S
C239 C241 1.372 . S
C239 H256 0.931 . S
C240 C237 1.382 . S
C240 C241 1.390 . S
C240 H257 0.931 . S
C241 C239 1.372 . S
C241 C240 1.390 . S
C241 H258 0.929 . S
C242 C237 1.390 . S
C242 C238 1.392 . S
C242 H259 0.930 1_554 S
C243 O228 1.255 . S
C243 O229 1.257 1_545 S
C244 Eu180 2.787 . S
C244 O224 1.252 . S
C244 O227 1.268 . S
C244 C237 1.506 1_556 S
C245 C212 1.439 . S
C245 H222 0.931 . S
C245 C246 1.374 . S
C246 C217 1.387 . S
C246 H223 0.931 . S
C246 C245 1.374 . S
C247 O231 1.249 . S
C247 O232 1.264 . S
C248 C251 1.382 . S
C248 C252 1.390 1_565 S
C248 C255 1.506 . S
C249 C250 1.398 1_545 S
C249 C252 1.392 . S
C250 C249 1.398 1_565 S
C250 C253 1.372 . S
C250 H260 0.931 . S
C251 C248 1.382 . S
C251 C253 1.390 . S
C251 H261 0.931 . S
C252 C248 1.390 1_545 S
C252 C249 1.392 . S
C252 H262 0.930 . S
C253 C250 1.372 . S
C253 C251 1.390 . S
C253 H263 0.929 . S
C254 O234 1.255 . S
C254 O235 1.257 . S
C255 Eu191 2.787 . S
C255 O230 1.252 . S
C255 O233 1.268 . S
C255 C248 1.506 . S
H256 C239 0.931 . S
H257 C240 0.931 . S
H258 C241 0.929 . S
H259 C242 0.930 1_556 S
H260 C250 0.931 . S
H261 C251 0.931 . S
H262 C252 0.930 . S
H263 C253 0.929 . S
Eu264 N293 2.600 . S
Eu264 N299 2.562 . S
Eu264 O308 2.462 . S
Eu264 O309 2.373 . S
Eu264 O311 2.432 . S
Eu264 O312 2.291 . S
Eu264 O316 2.335 . S
Eu264 O319 2.372 . S
Eu264 C328 2.787 . S
C265 N266 1.365 . S
C265 C268 1.405 . S
C265 C272 1.448 1_556 S
N266 C265 1.365 . S
N266 C269 1.319 . S
N266 Eu275 2.600 . S
C267 C269 1.397 . S
C267 C270 1.367 . S
C267 H287 0.931 . S
C268 C265 1.405 . S
C268 C270 1.403 . S
C268 C274 1.439 1_556 S
C269 N266 1.319 . S
C269 C267 1.397 . S
C269 H280 0.930 . S
C270 C267 1.367 . S
C270 C268 1.403 . S
C270 H291 0.929 . S
C271 C272 1.430 . S
C271 C273 1.387 . S
C271 C277 1.404 . S
C272 C265 1.448 1_554 S
C272 C271 1.430 . S
C272 N276 1.351 1_554 S
C273 C271 1.387 . S
C273 C274 1.374 . S
C273 H288 0.931 . S
C274 C268 1.439 1_554 S
C274 C273 1.374 . S
C274 H289 0.931 . S
Eu275 N266 2.600 . S
Eu275 N276 2.562 . S
Eu275 O310 2.335 . S
Eu275 O313 2.372 . S
Eu275 O314 2.462 . S
Eu275 O315 2.373 . S
Eu275 O317 2.432 . S
Eu275 O318 2.291 . S
Eu275 C339 2.787 . S
N276 C272 1.351 1_556 S
N276 Eu275 2.562 . S
N276 C278 1.325 1_556 S
C277 C271 1.404 . S
C277 C279 1.366 . S
C277 H285 0.930 . S
C278 N276 1.325 1_554 S
C278 C279 1.416 . S
C278 H284 0.929 . S
C279 C277 1.366 . S
C279 C278 1.416 . S
C279 H281 0.930 . S
H280 C269 0.930 . S
H281 C279 0.930 . S
H282 C297 0.930 . S
H283 C304 0.930 . S
H284 C278 0.929 . S
H285 C277 0.930 . S
H286 C300 0.929 . S
H287 C267 0.931 . S
H288 C273 0.931 . S
H289 C274 0.931 . S
H290 C295 0.931 . S
H291 C270 0.929 . S
H292 C303 0.930 . S
N293 Eu264 2.600 . S
N293 C294 1.365 . S
N293 C297 1.319 . S
C294 N293 1.365 . S
C294 C296 1.405 . S
C294 C302 1.448 . S
C295 H290 0.931 . S
C295 C297 1.397 . S
C295 C298 1.367 . S
C296 C294 1.405 . S
C296 C298 1.403 . S
C296 C329 1.439 . S
C297 H282 0.930 . S
C297 N293 1.319 . S
C297 C295 1.397 . S
C298 C295 1.367 . S
C298 C296 1.403 . S
C298 H305 0.929 . S
N299 Eu264 2.562 . S
N299 C300 1.325 . S
N299 C302 1.351 . S
C300 H286 0.929 . S
C300 N299 1.325 . S
C300 C304 1.416 . S
C301 C302 1.430 . S
C301 C303 1.404 . S
C301 C330 1.387 . S
C302 C294 1.448 . S
C302 N299 1.351 . S
C302 C301 1.430 . S
C303 H292 0.930 . S
C303 C301 1.404 . S
C303 C304 1.366 . S
C304 H283 0.930 . S
C304 C300 1.416 . S
C304 C303 1.366 . S
H305 C298 0.929 . S
H306 C329 0.931 . S
H307 C330 0.931 . S
O308 Eu264 2.462 . S
O308 C328 1.252 . S
O309 Eu264 2.373 . S
O309 C320 1.249 . S
O310 Eu275 2.335 . S
O310 C320 1.264 . S
O311 Eu264 2.432 . S
O311 C328 1.268 . S
O312 Eu264 2.291 . S
O312 C327 1.255 . S
O313 Eu275 2.372 . S
O313 C327 1.257 . S
O314 Eu275 2.462 . S
O314 C339 1.252 . S
O315 Eu275 2.373 . S
O315 C331 1.249 . S
O316 Eu264 2.335 . S
O316 C331 1.264 . S
O317 Eu275 2.432 . S
O317 C339 1.268 . S
O318 Eu275 2.291 . S
O318 C338 1.255 . S
O319 Eu264 2.372 . S
O319 C338 1.257 . S
C320 O309 1.249 . S
C320 O310 1.264 . S
C321 C324 1.382 . S
C321 C326 1.390 . S
C321 C328 1.506 . S
C322 C323 1.398 . S
C322 C326 1.392 . S
C323 C322 1.398 . S
C323 C325 1.372 . S
C323 H340 0.931 . S
C324 C321 1.382 . S
C324 C325 1.390 . S
C324 H341 0.931 . S
C325 C323 1.372 . S
C325 C324 1.390 . S
C325 H342 0.929 . S
C326 C321 1.390 . S
C326 C322 1.392 . S
C326 H343 0.930 . S
C327 O312 1.255 . S
C327 O313 1.257 . S
C328 Eu264 2.787 . S
C328 O308 1.252 . S
C328 O311 1.268 . S
C328 C321 1.506 . S
C329 C296 1.439 . S
C329 H306 0.931 . S
C329 C330 1.374 . S
C330 C301 1.387 . S
C330 H307 0.931 . S
C330 C329 1.374 . S
C331 O315 1.249 . S
C331 O316 1.264 . S
C332 C335 1.382 . S
C332 C336 1.390 1_556 S
C332 C339 1.506 . S
C333 C334 1.398 . S
C333 C336 1.392 . S
C334 C333 1.398 . S
C334 C337 1.372 . S
C334 H344 0.931 . S
C335 C332 1.382 . S
C335 C337 1.390 1_556 S
C335 H345 0.931 . S
C336 C332 1.390 1_554 S
C336 C333 1.392 . S
C336 H346 0.930 . S
C337 C334 1.372 . S
C337 C335 1.390 1_554 S
C337 H347 0.929 1_554 S
C338 O318 1.255 . S
C338 O319 1.257 . S
C339 Eu275 2.787 . S
C339 O314 1.252 . S
C339 O317 1.268 . S
C339 C332 1.506 . S
H340 C323 0.931 . S
H341 C324 0.931 . S
H342 C325 0.929 . S
H343 C326 0.930 . S
H344 C334 0.931 . S
H345 C335 0.931 . S
H346 C336 0.930 . S
H347 C337 0.929 1_556 S
Eu348 N377 2.600 . S
Eu348 N383 2.562 . S
Eu348 O392 2.462 . S
Eu348 O393 2.373 1_455 S
Eu348 O395 2.432 . S
Eu348 O396 2.291 . S
Eu348 O400 2.335 . S
Eu348 O403 2.372 . S
Eu348 C412 2.787 . S
C349 N350 1.365 . S
C349 C352 1.405 . S
C349 C356 1.448 1_556 S
N350 C349 1.365 . S
N350 C353 1.316 1_455 S
N350 Eu359 2.600 1_455 S
C351 C353 1.389 1_455 S
C351 C354 1.367 . S
C351 H371 0.931 . S
C352 C349 1.405 . S
C352 C354 1.403 . S
C352 C358 1.439 1_556 S
C353 N350 1.316 1_655 S
C353 C351 1.389 1_655 S
C353 H364 0.942 . S
C354 C351 1.367 . S
C354 C352 1.403 . S
C354 H375 0.929 . S
C355 C356 1.430 . S
C355 C357 1.387 . S
C355 C361 1.404 . S
C356 C349 1.448 1_554 S
C356 C355 1.430 . S
C356 N360 1.351 1_554 S
C357 C355 1.387 . S
C357 C358 1.374 . S
C357 H372 0.931 . S
C358 C352 1.439 1_554 S
C358 C357 1.374 . S
C358 H373 0.931 . S
Eu359 N350 2.600 1_655 S
Eu359 N360 2.562 1_655 S
Eu359 O394 2.335 . S
Eu359 O397 2.372 . S
Eu359 O398 2.462 . S
Eu359 O399 2.373 1_655 S
Eu359 O401 2.432 . S
Eu359 O402 2.291 1_655 S
Eu359 C423 2.787 . S
N360 C356 1.351 1_556 S
N360 Eu359 2.562 1_455 S
N360 C362 1.325 1_556 S
C361 C355 1.404 . S
C361 C363 1.366 . S
C361 H369 0.930 . S
C362 N360 1.325 1_554 S
C362 C363 1.416 . S
C362 H368 0.929 . S
C363 C361 1.366 . S
C363 C362 1.416 . S
C363 H365 0.930 . S
H364 C353 0.942 . S
H365 C363 0.930 . S
H366 C381 0.930 . S
H367 C388 0.930 . S
H368 C362 0.929 . S
H369 C361 0.930 . S
H370 C384 0.929 . S
H371 C351 0.931 . S
H372 C357 0.931 . S
H373 C358 0.931 . S
H374 C379 0.931 . S
H375 C354 0.929 . S
H376 C387 0.930 . S
N377 Eu348 2.600 . S
N377 C378 1.367 . S
N377 C381 1.319 . S
C378 N377 1.367 . S
C378 C380 1.404 1_455 S
C378 C386 1.447 1_455 S
C379 H374 0.931 . S
C379 C381 1.397 . S
C379 C382 1.367 1_455 S
C380 C378 1.404 1_655 S
C380 C382 1.403 . S
C380 C413 1.439 . S
C381 H366 0.930 . S
C381 N377 1.319 . S
C381 C379 1.397 . S
C382 C379 1.367 1_655 S
C382 C380 1.403 . S
C382 H389 0.929 . S
N383 Eu348 2.562 . S
N383 C384 1.325 . S
N383 C386 1.351 1_455 S
C384 H370 0.929 . S
C384 N383 1.325 . S
C384 C388 1.416 1_455 S
C385 C386 1.430 . S
C385 C387 1.404 . S
C385 C414 1.387 . S
C386 C378 1.447 1_655 S
C386 N383 1.351 1_655 S
C386 C385 1.430 . S
C387 H376 0.930 . S
C387 C385 1.404 . S
C387 C388 1.366 . S
C388 H367 0.930 . S
C388 C384 1.416 1_655 S
C388 C387 1.366 . S
H389 C382 0.929 . S
H390 C413 0.931 . S
H391 C414 0.931 . S
O392 Eu348 2.462 . S
O392 C412 1.252 . S
O393 Eu348 2.373 1_655 S
O393 C404 1.249 . S
O394 Eu359 2.335 . S
O394 C404 1.264 . S
O395 Eu348 2.432 . S
O395 C412 1.268 . S
O396 Eu348 2.291 . S
O396 C411 1.255 . S
O397 Eu359 2.372 . S
O397 C411 1.257 1_655 S
O398 Eu359 2.462 . S
O398 C423 1.252 . S
O399 Eu359 2.373 1_455 S
O399 C415 1.249 . S
O400 Eu348 2.335 . S
O400 C415 1.264 . S
O401 Eu359 2.432 . S
O401 C423 1.268 . S
O402 Eu359 2.291 1_455 S
O402 C422 1.255 . S
O403 Eu348 2.372 . S
O403 C422 1.257 . S
C404 O393 1.249 . S
C404 O394 1.264 . S
C405 C408 1.382 . S
C405 C410 1.390 . S
C405 C412 1.506 . S
C406 C407 1.398 . S
C406 C410 1.392 . S
C407 C406 1.398 . S
C407 C409 1.372 . S
C407 H424 0.931 . S
C408 C405 1.382 . S
C408 C409 1.390 . S
C408 H425 0.931 . S
C409 C407 1.372 . S
C409 C408 1.390 . S
C409 H426 0.929 . S
C410 C405 1.390 . S
C410 C406 1.392 . S
C410 H427 0.930 . S
C411 O396 1.255 . S
C411 O397 1.257 1_455 S
C412 Eu348 2.787 . S
C412 O392 1.252 . S
C412 O395 1.268 . S
C412 C405 1.506 . S
C413 C380 1.439 . S
C413 H390 0.931 . S
C413 C414 1.374 . S
C414 C385 1.387 . S
C414 H391 0.931 . S
C414 C413 1.374 . S
C415 O399 1.249 . S
C415 O400 1.264 . S
C416 C419 1.382 . S
C416 C420 1.390 1_556 S
C416 C423 1.506 . S
C417 C418 1.398 . S
C417 C420 1.392 . S
C418 C417 1.398 . S
C418 C421 1.372 . S
C418 H428 0.931 . S
C419 C416 1.382 . S
C419 C421 1.390 1_556 S
C419 H429 0.931 . S
C420 C416 1.390 1_554 S
C420 C417 1.392 . S
C420 H430 0.930 . S
C421 C418 1.372 . S
C421 C419 1.390 1_554 S
C421 H431 0.929 1_554 S
C422 O402 1.255 . S
C422 O403 1.257 . S
C423 Eu359 2.787 . S
C423 O398 1.252 . S
C423 O401 1.268 . S
C423 C416 1.506 . S
H424 C407 0.931 . S
H425 C408 0.931 . S
H426 C409 0.929 . S
H427 C410 0.930 . S
H428 C418 0.931 . S
H429 C419 0.931 . S
H430 C420 0.930 . S
H431 C421 0.929 1_556 S
H432 C438 0.930 . S
H433 C441 0.930 . S
H434 C442 0.930 . S
H435 C443 0.930 . S
H436 C446 0.930 . S
H437 C447 0.930 . S
C438 H432 0.930 . S
C438 C439 1.355 . S
C438 C440 1.415 . S
C439 C438 1.355 . S
C439 C441 1.419 . S
C440 C438 1.415 . S
C440 C445 1.425 . S
C440 C447 1.409 . S
C441 H433 0.930 . S
C441 C439 1.419 . S
C441 C442 1.362 . S
C442 H434 0.930 . S
C442 C441 1.362 . S
C442 C445 1.409 . S
C443 H435 0.930 . S
C443 C444 1.355 . S
C443 C445 1.415 . S
C444 C443 1.355 . S
C444 C446 1.419 . S
C445 C440 1.425 . S
C445 C442 1.409 . S
C445 C443 1.415 . S
C446 H436 0.930 . S
C446 C444 1.419 . S
C446 C447 1.362 . S
C447 H437 0.930 . S
C447 C440 1.409 . S
C447 C446 1.362 . S
H448 C454 0.930 . S
H449 C457 0.930 . S
H450 C458 0.930 . S
H451 C459 0.930 . S
H452 C462 0.930 . S
H453 C463 0.930 . S
C454 H448 0.930 . S
C454 C455 1.355 . S
C454 C456 1.415 . S
C455 C454 1.355 . S
C455 C457 1.419 . S
C456 C454 1.415 . S
C456 C461 1.425 . S
C456 C463 1.409 . S
C457 H449 0.930 . S
C457 C455 1.419 . S
C457 C458 1.362 . S
C458 H450 0.930 . S
C458 C457 1.362 . S
C458 C461 1.409 . S
C459 H451 0.930 . S
C459 C460 1.355 . S
C459 C461 1.415 . S
C460 C459 1.355 . S
C460 C462 1.419 . S
C461 C456 1.425 . S
C461 C458 1.409 . S
C461 C459 1.415 . S
C462 H452 0.930 . S
C462 C460 1.419 . S
C462 C463 1.362 . S
C463 H453 0.930 . S
C463 C456 1.409 . S
C463 C462 1.362 . S
H464 C470 0.930 . S
H465 C473 0.930 . S
H466 C474 0.930 . S
H467 C475 0.930 . S
H468 C478 0.930 . S
H469 C479 0.930 . S
C470 H464 0.930 . S
C470 C471 1.355 . S
C470 C472 1.415 . S
C471 C470 1.355 . S
C471 C473 1.419 . S
C472 C470 1.415 . S
C472 C477 1.425 . S
C472 C479 1.409 . S
C473 H465 0.930 . S
C473 C471 1.419 . S
C473 C474 1.362 . S
C474 H466 0.930 . S
C474 C473 1.362 . S
C474 C477 1.409 . S
C475 H467 0.930 . S
C475 C476 1.355 . S
C475 C477 1.415 . S
C476 C475 1.355 . S
C476 C478 1.419 . S
C477 C472 1.425 . S
C477 C474 1.409 . S
C477 C475 1.415 . S
C478 H468 0.930 . S
C478 C476 1.419 . S
C478 C479 1.362 . S
C479 H469 0.930 . S
C479 C472 1.409 . S
C479 C478 1.362 . S
H480 C486 0.930 . S
H481 C489 0.930 1_655 S
H482 C490 0.930 . S
H483 C491 0.930 1_655 S
H484 C494 0.930 . S
H485 C495 0.930 . S
C486 H480 0.930 . S
C486 C487 1.355 . S
C486 C488 1.415 . S
C487 C486 1.355 . S
C487 C489 1.419 . S
C488 C486 1.415 . S
C488 C493 1.425 . S
C488 C495 1.409 . S
C489 H481 0.930 1_455 S
C489 C487 1.419 . S
C489 C490 1.362 1_455 S
C490 H482 0.930 . S
C490 C489 1.362 1_655 S
C490 C493 1.409 1_655 S
C491 H483 0.930 1_455 S
C491 C492 1.355 . S
C491 C493 1.415 . S
C492 C491 1.355 . S
C492 C494 1.419 . S
C493 C488 1.425 . S
C493 C490 1.409 1_455 S
C493 C491 1.415 . S
C494 H484 0.930 . S
C494 C492 1.419 . S
C494 C495 1.362 . S
C495 H485 0.930 . S
C495 C488 1.409 . S
C495 C494 1.362 . S
H496 C502 0.930 . S
H497 C505 0.930 . S
H498 C506 0.930 . S
H499 C507 0.930 . S
H500 C510 0.930 . S
H501 C511 0.930 . S
C502 H496 0.930 . S
C502 C503 1.355 1_545 S
C502 C504 1.415 . S
C503 C502 1.355 1_565 S
C503 C505 1.419 . S
C504 C502 1.415 . S
C504 C509 1.425 1_545 S
C504 C511 1.409 . S
C505 H497 0.930 . S
C505 C503 1.419 . S
C505 C506 1.362 . S
C506 H498 0.930 . S
C506 C505 1.362 . S
C506 C509 1.409 . S
C507 H499 0.930 . S
C507 C508 1.355 1_565 S
C507 C509 1.415 1_556 S
C508 C507 1.355 1_545 S
C508 C510 1.419 . S
C509 C504 1.425 1_565 S
C509 C506 1.409 . S
C509 C507 1.415 1_554 S
C510 H500 0.930 . S
C510 C508 1.419 . S
C510 C511 1.362 1_556 S
C511 H501 0.930 . S
C511 C504 1.409 . S
C511 C510 1.362 1_554 S
H512 C518 0.930 . S
H513 C521 0.930 . S
H514 C522 0.930 . S
H515 C523 0.930 . S
H516 C526 0.930 1_556 S
H517 C527 0.930 . S
C518 H512 0.930 . S
C518 C519 1.355 . S
C518 C520 1.415 . S
C519 C518 1.355 . S
C519 C521 1.419 . S
C520 C518 1.415 . S
C520 C525 1.425 . S
C520 C527 1.409 . S
C521 H513 0.930 . S
C521 C519 1.419 . S
C521 C522 1.362 . S
C522 H514 0.930 . S
C522 C521 1.362 . S
C522 C525 1.409 . S
C523 H515 0.930 . S
C523 C524 1.355 . S
C523 C525 1.415 1_556 S
C524 C523 1.355 . S
C524 C526 1.419 1_556 S
C525 C520 1.425 . S
C525 C522 1.409 . S
C525 C523 1.415 1_554 S
C526 H516 0.930 1_554 S
C526 C524 1.419 1_554 S
C526 C527 1.362 . S
C527 H517 0.930 . S
C527 C520 1.409 . S
C527 C526 1.362 . S
H528 C534 0.930 . S
H529 C537 0.930 . S
H530 C538 0.930 . S
H531 C539 0.930 . S
H532 C542 0.930 . S
H533 C543 0.930 . S
C534 H528 0.930 . S
C534 C535 1.355 . S
C534 C536 1.415 . S
C535 C534 1.355 . S
C535 C537 1.419 . S
C536 C534 1.415 . S
C536 C541 1.425 . S
C536 C543 1.409 1_554 S
C537 H529 0.930 . S
C537 C535 1.419 . S
C537 C538 1.362 . S
C538 H530 0.930 . S
C538 C537 1.362 . S
C538 C541 1.409 . S
C539 H531 0.930 . S
C539 C540 1.355 . S
C539 C541 1.415 1_556 S
C540 C539 1.355 . S
C540 C542 1.419 . S
C541 C536 1.425 . S
C541 C538 1.409 . S
C541 C539 1.415 1_554 S
C542 H532 0.930 . S
C542 C540 1.419 . S
C542 C543 1.362 . S
C543 H533 0.930 . S
C543 C536 1.409 1_556 S
C543 C542 1.362 . S
H544 C550 0.930 . S
H545 C553 0.930 . S
H546 C554 0.930 . S
H547 C555 0.930 . S
H548 C558 0.930 . S
H549 C559 0.930 . S
C550 H544 0.930 . S
C550 C551 1.355 . S
C550 C552 1.415 . S
C551 C550 1.355 . S
C551 C553 1.419 1_655 S
C552 C550 1.415 . S
C552 C557 1.412 1_655 S
C552 C559 1.409 . S
C553 H545 0.930 . S
C553 C551 1.419 1_455 S
C553 C554 1.362 . S
C554 H546 0.930 . S
C554 C553 1.362 . S
C554 C557 1.418 . S
C555 H547 0.930 . S
C555 C556 1.355 1_455 S
C555 C557 1.419 1_556 S
C556 C555 1.355 1_655 S
C556 C558 1.419 . S
C557 C552 1.412 1_455 S
C557 C554 1.418 . S
C557 C555 1.419 1_554 S
C558 H548 0.930 . S
C558 C556 1.419 . S
C558 C559 1.362 1_556 S
C559 H549 0.930 . S
C559 C552 1.409 . S
C559 C558 1.362 1_554 S
H560 C566 0.930 . S
H561 C569 0.930 1_655 S
H562 C570 0.930 . S
H563 C571 0.930 . S
H564 C574 0.930 . S
H565 C575 0.930 . S
C566 H560 0.930 . S
C566 C567 1.355 . S
C566 C568 1.415 . S
C567 C566 1.355 . S
C567 C569 1.419 . S
C568 C566 1.415 . S
C568 C573 1.425 . S
C568 C575 1.409 . S
C569 H561 0.930 1_455 S
C569 C567 1.419 . S
C569 C570 1.362 1_455 S
C570 H562 0.930 . S
C570 C569 1.362 1_655 S
C570 C573 1.409 1_655 S
C571 H563 0.930 . S
C571 C572 1.355 1_655 S
C571 C573 1.415 1_655 S
C572 C571 1.355 1_455 S
C572 C574 1.419 . S
C573 C568 1.425 . S
C573 C570 1.409 1_455 S
C573 C571 1.415 1_455 S
C574 H564 0.930 . S
C574 C572 1.419 . S
C574 C575 1.362 . S
C575 H565 0.930 . S
C575 C568 1.409 . S
C575 C574 1.362 . S
H576 C582 0.930 . S
H577 C585 0.930 . S
H578 C586 0.930 . S
H579 C587 0.930 . S
H580 C590 0.930 . S
H581 C591 0.930 . S
C582 H576 0.930 . S
C582 C583 1.355 . S
C582 C584 1.415 . S
C583 C582 1.355 . S
C583 C585 1.419 . S
C584 C582 1.415 . S
C584 C589 1.425 . S
C584 C591 1.409 1_545 S
C585 H577 0.930 . S
C585 C583 1.419 . S
C585 C586 1.362 . S
C586 H578 0.930 . S
C586 C585 1.362 . S
C586 C589 1.409 . S
C587 H579 0.930 . S
C587 C588 1.355 . S
C587 C589 1.415 . S
C588 C587 1.355 . S
C588 C590 1.419 1_545 S
C589 C584 1.425 . S
C589 C586 1.409 . S
C589 C587 1.415 . S
C590 H580 0.930 . S
C590 C588 1.419 1_565 S
C590 C591 1.362 . S
C591 H581 0.930 . S
C591 C584 1.409 1_565 S
C591 C590 1.362 . S
H592 C598 0.930 . S
H593 C601 0.930 . S
H594 C602 0.930 . S
H595 C603 0.930 . S
H596 C606 0.930 . S
H597 C607 0.930 . S
C598 H592 0.930 . S
C598 C599 1.355 . S
C598 C600 1.415 . S
C599 C598 1.355 . S
C599 C601 1.419 . S
C600 C598 1.415 . S
C600 C605 1.425 . S
C600 C607 1.409 . S
C601 H593 0.930 . S
C601 C599 1.419 . S
C601 C602 1.362 . S
C602 H594 0.930 . S
C602 C601 1.362 . S
C602 C605 1.409 . S
C603 H595 0.930 . S
C603 C604 1.355 . S
C603 C605 1.415 . S
C604 C603 1.355 . S
C604 C606 1.419 . S
C605 C600 1.425 . S
C605 C602 1.409 . S
C605 C603 1.415 . S
C606 H596 0.930 . S
C606 C604 1.419 . S
C606 C607 1.362 . S
C607 H597 0.930 . S
C607 C600 1.409 . S
C607 C606 1.362 . S
H608 C614 0.930 . S
H609 C617 0.930 . S
H610 C618 0.930 . S
H611 C619 0.930 . S
H612 C622 0.930 . S
H613 C623 0.930 . S
C614 H608 0.930 . S
C614 C615 1.355 . S
C614 C616 1.415 . S
C615 C614 1.355 . S
C615 C617 1.419 . S
C616 C614 1.415 . S
C616 C621 1.425 . S
C616 C623 1.409 . S
C617 H609 0.930 . S
C617 C615 1.419 . S
C617 C618 1.362 . S
C618 H610 0.930 . S
C618 C617 1.362 . S
C618 C621 1.409 . S
C619 H611 0.930 . S
C619 C620 1.355 . S
C619 C621 1.415 . S
C620 C619 1.355 . S
C620 C622 1.419 . S
C621 C616 1.425 . S
C621 C618 1.409 . S
C621 C619 1.415 . S
C622 H612 0.930 . S
C622 C620 1.419 . S
C622 C623 1.362 . S
C623 H613 0.930 . S
C623 C616 1.409 . S
C623 C622 1.362 . S
H624 C630 0.930 . S
H625 C633 0.930 . S
H626 C634 0.930 . S
H627 C635 0.930 . S
H628 C638 0.930 1_556 S
H629 C639 0.930 . S
C630 H624 0.930 . S
C630 C631 1.355 . S
C630 C632 1.415 . S
C631 C630 1.355 . S
C631 C633 1.419 1_655 S
C632 C630 1.415 . S
C632 C637 1.425 1_655 S
C632 C639 1.409 . S
C633 H625 0.930 . S
C633 C631 1.419 1_455 S
C633 C634 1.362 . S
C634 H626 0.930 . S
C634 C633 1.362 . S
C634 C637 1.409 . S
C635 H627 0.930 . S
C635 C636 1.355 . S
C635 C637 1.415 . S
C636 C635 1.355 . S
C636 C638 1.419 1_455 S
C637 C632 1.425 1_455 S
C637 C634 1.409 . S
C637 C635 1.415 . S
C638 H628 0.930 1_554 S
C638 C636 1.419 1_655 S
C638 C639 1.362 . S
C639 H629 0.930 . S
C639 C632 1.409 . S
C639 C638 1.362 . S
H640 C646 0.930 . S
H641 C649 0.930 . S
H642 C650 0.930 . S
H643 C651 0.930 . S
H644 C654 0.930 . S
H645 C655 0.930 . S
C646 H640 0.930 . S
C646 C647 1.355 1_545 S
C646 C648 1.415 . S
C647 C646 1.355 1_565 S
C647 C649 1.419 . S
C648 C646 1.415 . S
C648 C653 1.425 1_545 S
C648 C655 1.409 . S
C649 H641 0.930 . S
C649 C647 1.419 . S
C649 C650 1.362 . S
C650 H642 0.930 . S
C650 C649 1.362 . S
C650 C653 1.409 . S
C651 H643 0.930 . S
C651 C652 1.355 1_565 S
C651 C653 1.415 . S
C652 C651 1.355 1_545 S
C652 C654 1.419 . S
C653 C648 1.425 1_565 S
C653 C650 1.409 . S
C653 C651 1.415 . S
C654 H644 0.930 . S
C654 C652 1.419 . S
C654 C655 1.362 . S
C655 H645 0.930 . S
C655 C648 1.409 . S
C655 C654 1.362 . S
H656 C662 0.930 . S
H657 C665 0.930 . S
H658 C666 0.930 . S
H659 C667 0.930 . S
H660 C670 0.930 . S
H661 C671 0.930 . S
C662 H656 0.930 . S
C662 C663 1.355 . S
C662 C664 1.415 . S
C663 C662 1.355 . S
C663 C665 1.419 . S
C664 C662 1.415 . S
C664 C669 1.425 . S
C664 C671 1.409 . S
C665 H657 0.930 . S
C665 C663 1.419 . S
C665 C666 1.362 . S
C666 H658 0.930 . S
C666 C665 1.362 . S
C666 C669 1.409 . S
C667 H659 0.930 . S
C667 C668 1.355 . S
C667 C669 1.415 . S
C668 C667 1.355 . S
C668 C670 1.419 . S
C669 C664 1.425 . S
C669 C666 1.409 . S
C669 C667 1.415 . S
C670 H660 0.930 . S
C670 C668 1.419 . S
C670 C671 1.362 . S
C671 H661 0.930 . S
C671 C664 1.409 . S
C671 C670 1.362 . S
H672 C678 0.930 . S
H673 C681 0.930 . S
H674 C682 0.930 . S
H675 C683 0.930 . S
H676 C686 0.930 . S
H677 C687 0.930 . S
C678 H672 0.930 . S
C678 C679 1.355 . S
C678 C680 1.415 . S
C679 C678 1.355 . S
C679 C681 1.419 . S
C680 C678 1.415 . S
C680 C685 1.425 . S
C680 C687 1.409 . S
C681 H673 0.930 . S
C681 C679 1.419 . S
C681 C682 1.362 . S
C682 H674 0.930 . S
C682 C681 1.362 . S
C682 C685 1.409 . S
C683 H675 0.930 . S
C683 C684 1.355 . S
C683 C685 1.415 . S
C684 C683 1.355 . S
C684 C686 1.419 . S
C685 C680 1.425 . S
C685 C682 1.409 . S
C685 C683 1.415 . S
C686 H676 0.930 . S
C686 C684 1.419 . S
C686 C687 1.362 . S
C687 H677 0.930 . S
C687 C680 1.409 . S
C687 C686 1.362 . S
H688 C694 0.930 . S
H689 C697 0.924 1_655 S
H690 C698 0.930 . S
H691 C699 0.930 1_655 S
H692 C702 0.930 . S
H693 C703 0.930 . S
C694 H688 0.930 . S
C694 C695 1.355 . S
C694 C696 1.415 . S
C695 C694 1.355 . S
C695 C697 1.427 . S
C696 C694 1.415 . S
C696 C701 1.425 . S
C696 C703 1.409 . S
C697 H689 0.924 1_455 S
C697 C695 1.427 . S
C697 C698 1.360 1_455 S
C698 H690 0.930 . S
C698 C697 1.360 1_655 S
C698 C701 1.409 1_655 S
C699 H691 0.930 1_455 S
C699 C700 1.355 . S
C699 C701 1.415 . S
C700 C699 1.355 . S
C700 C702 1.419 . S
C701 C696 1.425 . S
C701 C698 1.409 1_455 S
C701 C699 1.415 . S
C702 H692 0.930 . S
C702 C700 1.419 . S
C702 C703 1.362 . S
C703 H693 0.930 . S
C703 C696 1.409 . S
C703 C702 1.362 . S
H704 C710 0.930 . S
H705 C713 0.930 . S
H706 C714 0.930 . S
H707 C715 0.930 . S
H708 C718 0.930 . S
H709 C719 0.930 1_554 S
C710 H704 0.930 . S
C710 C711 1.355 . S
C710 C712 1.415 . S
C711 C710 1.355 . S
C711 C713 1.419 . S
C712 C710 1.415 . S
C712 C717 1.425 . S
C712 C719 1.409 . S
C713 H705 0.930 . S
C713 C711 1.419 . S
C713 C714 1.362 . S
C714 H706 0.930 . S
C714 C713 1.362 . S
C714 C717 1.409 . S
C715 H707 0.930 . S
C715 C716 1.355 . S
C715 C717 1.415 . S
C716 C715 1.355 . S
C716 C718 1.419 . S
C717 C712 1.425 . S
C717 C714 1.409 . S
C717 C715 1.415 . S
C718 H708 0.930 . S
C718 C716 1.419 . S
C718 C719 1.362 . S
C719 H709 0.930 1_556 S
C719 C712 1.409 . S
C719 C718 1.362 . S
H720 C726 0.930 . S
H721 C729 0.930 . S
H722 C730 0.930 . S
H723 C731 0.930 . S
H724 C734 0.930 . S
H725 C735 0.930 . S
C726 H720 0.930 . S
C726 C727 1.355 . S
C726 C728 1.415 . S
C727 C726 1.355 . S
C727 C729 1.419 . S
C728 C726 1.415 . S
C728 C733 1.425 . S
C728 C735 1.409 . S
C729 H721 0.930 . S
C729 C727 1.419 . S
C729 C730 1.362 . S
C730 H722 0.930 . S
C730 C729 1.362 . S
C730 C733 1.409 . S
C731 H723 0.930 . S
C731 C732 1.355 . S
C731 C733 1.415 . S
C732 C731 1.355 . S
C732 C734 1.419 . S
C733 C728 1.425 . S
C733 C730 1.409 . S
C733 C731 1.415 . S
C734 H724 0.930 . S
C734 C732 1.419 . S
C734 C735 1.362 . S
C735 H725 0.930 . S
C735 C728 1.409 . S
C735 C734 1.362 . S
H736 C742 0.930 . S
H737 C745 0.930 . S
H738 C746 0.930 . S
H739 C747 0.930 . S
H740 C750 0.930 . S
H741 C751 0.930 . S
C742 H736 0.930 . S
C742 C743 1.355 . S
C742 C744 1.415 . S
C743 C742 1.355 . S
C743 C745 1.419 . S
C744 C742 1.415 . S
C744 C749 1.425 . S
C744 C751 1.409 . S
C745 H737 0.930 . S
C745 C743 1.419 . S
C745 C746 1.362 . S
C746 H738 0.930 . S
C746 C745 1.362 . S
C746 C749 1.409 . S
C747 H739 0.930 . S
C747 C748 1.355 . S
C747 C749 1.415 . S
C748 C747 1.355 . S
C748 C750 1.419 . S
C749 C744 1.425 . S
C749 C746 1.409 . S
C749 C747 1.415 . S
C750 H740 0.930 . S
C750 C748 1.419 . S
C750 C751 1.362 . S
C751 H741 0.930 . S
C751 C744 1.409 . S
C751 C750 1.362 . S
H752 C758 0.930 . S
H753 C761 0.930 . S
H754 C762 0.930 . S
H755 C763 0.930 . S
H756 C766 0.930 . S
H757 C767 0.930 . S
C758 H752 0.930 . S
C758 C759 1.355 1_455 S
C758 C760 1.415 . S
C759 C758 1.355 1_655 S
C759 C761 1.419 . S
C760 C758 1.415 . S
C760 C765 1.425 1_455 S
C760 C767 1.409 . S
C761 H753 0.930 . S
C761 C759 1.419 . S
C761 C762 1.362 . S
C762 H754 0.930 . S
C762 C761 1.362 . S
C762 C765 1.409 . S
C763 H755 0.930 . S
C763 C764 1.355 . S
C763 C765 1.415 . S
C764 C763 1.355 . S
C764 C766 1.419 1_655 S
C765 C760 1.425 1_655 S
C765 C762 1.409 . S
C765 C763 1.415 . S
C766 H756 0.930 . S
C766 C764 1.419 1_455 S
C766 C767 1.362 . S
C767 H757 0.930 . S
C767 C760 1.409 . S
C767 C766 1.362 . S
H768 C774 0.930 . S
H769 C777 0.930 . S
H770 C778 0.930 . S
H771 C779 0.930 . S
H772 C782 0.930 . S
H773 C783 0.930 . S
C774 H768 0.930 . S
C774 C775 1.355 . S
C774 C776 1.415 . S
C775 C774 1.355 . S
C775 C777 1.419 1_565 S
C776 C774 1.415 . S
C776 C781 1.425 . S
C776 C783 1.409 . S
C777 H769 0.930 . S
C777 C775 1.419 1_545 S
C777 C778 1.362 . S
C778 H770 0.930 . S
C778 C777 1.362 . S
C778 C781 1.409 1_545 S
C779 H771 0.930 . S
C779 C780 1.355 1_545 S
C779 C781 1.415 1_545 S
C780 C779 1.355 1_565 S
C780 C782 1.419 . S
C781 C776 1.425 . S
C781 C778 1.409 1_565 S
C781 C779 1.415 1_565 S
C782 H772 0.930 . S
C782 C780 1.419 . S
C782 C783 1.362 . S
C783 H773 0.930 . S
C783 C776 1.409 . S
C783 C782 1.362 . S
H784 C790 0.930 . S
H785 C793 0.930 . S
H786 C794 0.930 . S
H787 C795 0.930 . S
H788 C798 0.930 . S
H789 C799 0.930 . S
C790 H784 0.930 . S
C790 C791 1.355 . S
C790 C792 1.415 . S
C791 C790 1.355 . S
C791 C793 1.419 . S
C792 C790 1.415 . S
C792 C797 1.425 . S
C792 C799 1.409 . S
C793 H785 0.930 . S
C793 C791 1.419 . S
C793 C794 1.362 . S
C794 H786 0.930 . S
C794 C793 1.362 . S
C794 C797 1.409 . S
C795 H787 0.930 . S
C795 C796 1.355 . S
C795 C797 1.415 . S
C796 C795 1.355 . S
C796 C798 1.419 . S
C797 C792 1.425 . S
C797 C794 1.409 . S
C797 C795 1.415 . S
C798 H788 0.930 . S
C798 C796 1.419 . S
C798 C799 1.362 . S
C799 H789 0.930 . S
C799 C792 1.409 . S
C799 C798 1.362 . S
H800 C806 0.930 . S
H801 C809 0.930 . S
H802 C810 0.930 . S
H803 C811 0.930 . S
H804 C814 0.930 . S
H805 C815 0.930 . S
C806 H800 0.930 . S
C806 C807 1.355 . S
C806 C808 1.415 . S
C807 C806 1.355 . S
C807 C809 1.419 . S
C808 C806 1.415 . S
C808 C813 1.425 . S
C808 C815 1.409 . S
C809 H801 0.930 . S
C809 C807 1.419 . S
C809 C810 1.362 . S
C810 H802 0.930 . S
C810 C809 1.362 . S
C810 C813 1.409 . S
C811 H803 0.930 . S
C811 C812 1.355 . S
C811 C813 1.415 . S
C812 C811 1.355 . S
C812 C814 1.419 . S
C813 C808 1.425 . S
C813 C810 1.409 . S
C813 C811 1.415 . S
C814 H804 0.930 . S
C814 C812 1.419 . S
C814 C815 1.362 . S
C815 H805 0.930 . S
C815 C808 1.409 . S
C815 C814 1.362 . S
C439 C76 1.872 . S
C444 C159 2.062 . S
C460 C236 2.086 . S
C455 C88 1.877 . S
C476 C327 2.069 . S
C471 C52 1.921 . S
C492 C411 2.085 . S
C487 C64 1.897 . S
C508 C170 2.063 . S
C503 C28 1.873 . S
C519 C40 1.871 . S
C524 C247 2.074 . S
C535 C4 1.933 . S
C540 C338 2.096 . S
C551 C16 1.873 . S
C556 C422 2.073 1_655 S
C572 C154 0.717 1_455 S
C567 C69 0.594 . S
C588 C249 0.700 . S
C583 C81 0.637 . S
C604 C322 0.672 . S
C599 C93 0.581 . S
C615 C57 0.570 . S
C620 C406 0.691 . S
C631 C21 0.586 . S
C636 C165 0.719 . S
C652 C238 0.730 . S
C647 C33 0.614 . S
C668 C333 0.580 . S
C663 C45 0.703 . S
C679 C9 0.699 . S
C684 C417 0.681 . S
C695 C66 1.994 . S
C700 C163 2.190 . S
C711 C78 2.023 . S
C716 C254 2.209 . S
C732 C331 2.205 . S
C727 C90 2.001 . S
C748 C415 2.191 . S
C743 C54 1.953 . S
C759 C18 1.972 . S
C764 C152 2.185 . S
C780 C243 2.218 1_565 S
C775 C30 1.931 . S
C796 C320 2.195 . S
C791 C42 1.965 . S
C807 C6 1.993 . S
C812 C404 2.208 . S
