# Generated by pormake.
# Topology apo, (3,6)-cn, num edge types: 1
# Building blocks:
#     Node 0, Type 0, BuildingBlock: MIDCAF_clean_linker_0, # of connection points: 3
#     Node 1, Type 0, BuildingBlock: MIDCAF_clean_linker_0, # of connection points: 3
#     Node 2, Type 0, BuildingBlock: MIDCAF_clean_linker_0, # of connection points: 3
#     Node 3, Type 0, BuildingBlock: MIDCAF_clean_linker_0, # of connection points: 3
#     Node 4, Type 0, BuildingBlock: MIDCAF_clean_linker_0, # of connection points: 3
#     Node 5, Type 0, BuildingBlock: MIDCAF_clean_linker_0, # of connection points: 3
#     Node 6, Type 0, BuildingBlock: MIDCAF_clean_linker_0, # of connection points: 3
#     Node 7, Type 0, BuildingBlock: MIDCAF_clean_linker_0, # of connection points: 3
#     Node 8, Type 1, BuildingBlock: KUMBOL_clean_sbu_1, # of connection points: 6
#     Node 9, Type 1, BuildingBlock: KUMBOL_clean_sbu_1, # of connection points: 6
#     Node 10, Type 1, BuildingBlock: KUMBOL_clean_sbu_1, # of connection points: 6
#     Node 11, Type 1, BuildingBlock: KUMBOL_clean_sbu_1, # of connection points: 6
#     Edge 12, Type (0, 1), BuildingBlock: CIFDUS_clean_linker_0, # of connection points: 2
#     Edge 13, Type (0, 1), BuildingBlock: CIFDUS_clean_linker_0, # of connection points: 2
#     Edge 14, Type (0, 1), BuildingBlock: CIFDUS_clean_linker_0, # of connection points: 2
#     Edge 15, Type (0, 1), BuildingBlock: CIFDUS_clean_linker_0, # of connection points: 2
#     Edge 16, Type (0, 1), BuildingBlock: CIFDUS_clean_linker_0, # of connection points: 2
#     Edge 17, Type (0, 1), BuildingBlock: CIFDUS_clean_linker_0, # of connection points: 2
#     Edge 18, Type (0, 1), BuildingBlock: CIFDUS_clean_linker_0, # of connection points: 2
#     Edge 19, Type (0, 1), BuildingBlock: CIFDUS_clean_linker_0, # of connection points: 2
#     Edge 20, Type (0, 1), BuildingBlock: CIFDUS_clean_linker_0, # of connection points: 2
#     Edge 21, Type (0, 1), BuildingBlock: CIFDUS_clean_linker_0, # of connection points: 2
#     Edge 22, Type (0, 1), BuildingBlock: CIFDUS_clean_linker_0, # of connection points: 2
#     Edge 23, Type (0, 1), BuildingBlock: CIFDUS_clean_linker_0, # of connection points: 2
#     Edge 24, Type (0, 1), BuildingBlock: CIFDUS_clean_linker_0, # of connection points: 2
#     Edge 25, Type (0, 1), BuildingBlock: CIFDUS_clean_linker_0, # of connection points: 2
#     Edge 26, Type (0, 1), BuildingBlock: CIFDUS_clean_linker_0, # of connection points: 2
#     Edge 27, Type (0, 1), BuildingBlock: CIFDUS_clean_linker_0, # of connection points: 2
#     Edge 28, Type (0, 1), BuildingBlock: CIFDUS_clean_linker_0, # of connection points: 2
#     Edge 29, Type (0, 1), BuildingBlock: CIFDUS_clean_linker_0, # of connection points: 2
#     Edge 30, Type (0, 1), BuildingBlock: CIFDUS_clean_linker_0, # of connection points: 2
#     Edge 31, Type (0, 1), BuildingBlock: CIFDUS_clean_linker_0, # of connection points: 2
#     Edge 32, Type (0, 1), BuildingBlock: CIFDUS_clean_linker_0, # of connection points: 2
#     Edge 33, Type (0, 1), BuildingBlock: CIFDUS_clean_linker_0, # of connection points: 2
#     Edge 34, Type (0, 1), BuildingBlock: CIFDUS_clean_linker_0, # of connection points: 2
#     Edge 35, Type (0, 1), BuildingBlock: CIFDUS_clean_linker_0, # of connection points: 2
# Relax obj value: 0.009
# Max RMSD: 0.101
# Mean RMSD: 0.079
data_MOF--net-apo--node1-KUMBOL_clean_sbu_1--node2-MIDCAF_clean_linker_0--edge1-CIFDUS_clean_linker_0
_symmetry_space_group_name_H-M    P1
_symmetry_Int_Tables_number       1
_symmetry_cell_setting            triclinic
loop_
_symmetry_equiv_pos_as_xyz
'x, y, z'
_cell_length_a     26.23781
_cell_length_b     46.69998
_cell_length_c     57.957943
_cell_angle_alpha  90.02019
_cell_angle_beta   89.743737
_cell_angle_gamma 90.612965
loop_
_atom_site_label
_atom_site_type_symbol
_atom_site_fract_x
_atom_site_fract_y
_atom_site_fract_z
_atom_type_partial_charge
C0 C 0.3694 0.40488 0.48913 0.0
C1 C 0.36084 0.38132 0.50374 0.0
C2 C 0.33489 0.35718 0.49495 0.0
C3 C 0.31918 0.3564 0.47183 0.0
H4 H 0.26159 0.30169 0.41739 0.0
H5 H 0.21875 0.26132 0.39823 0.0
H6 H 0.18909 0.31489 0.3392 0.0
H7 H 0.231 0.35494 0.35812 0.0
H8 H 0.32368 0.40152 0.34848 0.0
H9 H 0.35699 0.43945 0.32359 0.0
H10 H 0.38436 0.49278 0.38318 0.0
H11 H 0.35126 0.45479 0.40829 0.0
H12 H 0.36157 0.42278 0.45557 0.0
H13 H 0.38824 0.42407 0.49545 0.0
H14 H 0.3278 0.33866 0.50579 0.0
H15 H 0.30009 0.33732 0.46546 0.0
N16 N 0.2893 0.35632 0.42293 0.0
N17 N 0.29208 0.37854 0.38659 0.0
N18 N 0.32862 0.40143 0.41841 0.0
C19 C 0.27755 0.35605 0.40003 0.0
C20 C 0.31757 0.40128 0.39558 0.0
C21 C 0.31476 0.37914 0.43226 0.0
C22 C 0.2499 0.33158 0.38931 0.0
C23 C 0.24557 0.30486 0.4004 0.0
C24 C 0.22136 0.28172 0.38938 0.0
C25 C 0.20046 0.28497 0.36722 0.0
C26 C 0.20421 0.31177 0.35637 0.0
C27 C 0.22866 0.33471 0.36722 0.0
C28 C 0.33503 0.42503 0.38043 0.0
C29 C 0.33639 0.42138 0.35634 0.0
C30 C 0.35567 0.44303 0.34206 0.0
C31 C 0.37337 0.46896 0.35149 0.0
C32 C 0.37066 0.47303 0.37547 0.0
C33 C 0.352 0.4512 0.38983 0.0
C34 C 0.32892 0.37982 0.45709 0.0
C35 C 0.35374 0.40415 0.46619 0.0
C36 C 0.16011 0.09884 0.99917 0.0
C37 C 0.1673 0.12434 0.01173 0.0
C38 C 0.18415 0.14898 0.99985 0.0
C39 C 0.19472 0.14796 0.97618 0.0
H40 H 0.2836 0.18929 0.92527 0.0
H41 H 0.32734 0.2289 0.90581 0.0
H42 H 0.29357 0.1902 0.83979 0.0
H43 H 0.25168 0.15032 0.85916 0.0
H44 H 0.25337 0.07518 0.86535 0.0
H45 H 0.23187 0.03282 0.8423 0.0
H46 H 0.10562 0.01403 0.88795 0.0
H47 H 0.12761 0.05595 0.9114 0.0
H48 H 0.16519 0.07768 0.96654 0.0
H49 H 0.14796 0.07932 1.00775 0.0
H50 H 0.18938 0.1691 1.00886 0.0
H51 H 0.20812 0.16731 0.96771 0.0
N52 N 0.22573 0.1433 0.92819 0.0
N53 N 0.22801 0.11762 0.89342 0.0
N54 N 0.19089 0.09684 0.92635 0.0
C55 C 0.23881 0.14188 0.90548 0.0
C56 C 0.20407 0.09505 0.90369 0.0
C57 C 0.20175 0.12086 0.93877 0.0
C58 C 0.26438 0.16646 0.89382 0.0
C59 C 0.28553 0.18925 0.9066 0.0
C60 C 0.31039 0.21206 0.89542 0.0
C61 C 0.31435 0.21273 0.8712 0.0
C62 C 0.29236 0.19016 0.85847 0.0
C63 C 0.268 0.16728 0.86962 0.0
C64 C 0.19209 0.06894 0.89017 0.0
C65 C 0.22118 0.06193 0.87055 0.0
C66 C 0.20914 0.03766 0.85743 0.0
C67 C 0.16713 0.02031 0.86339 0.0
C68 C 0.13814 0.02718 0.88301 0.0
C69 C 0.15084 0.05108 0.89644 0.0
C70 C 0.18847 0.12231 0.96372 0.0
C71 C 0.1704 0.09786 0.97548 0.0
C72 C 0.8299 0.11583 0.51915 0.0
C73 C 0.835 0.14417 0.51103 0.0
C74 C 0.8378 0.16651 0.5273 0.0
C75 C 0.83238 0.16093 0.55084 0.0
H76 H 0.71187 0.18239 0.60283 0.0
H77 H 0.66683 0.21879 0.62453 0.0
H78 H 0.74442 0.1926 0.68667 0.0
H79 H 0.78682 0.15492 0.66503 0.0
H80 H 0.77829 0.07451 0.65591 0.0
H81 H 0.80431 0.031 0.67536 0.0
H82 H 0.92115 0.01835 0.62359 0.0
H83 H 0.8932 0.06116 0.60352 0.0
H84 H 0.82 0.08828 0.54853 0.0
H85 H 0.82714 0.09806 0.5072 0.0
H86 H 0.84329 0.18851 0.52186 0.0
H87 H 0.83329 0.17877 0.56279 0.0
N88 N 0.79041 0.14787 0.59617 0.0
N89 N 0.79411 0.11882 0.62905 0.0
N90 N 0.82862 0.10272 0.59393 0.0
C91 C 0.7799 0.14364 0.61886 0.0
C92 C 0.81839 0.09824 0.61671 0.0
C93 C 0.81483 0.12761 0.5836 0.0
C94 C 0.7529 0.16583 0.63223 0.0
C95 C 0.71918 0.18441 0.62114 0.0
C96 C 0.69362 0.20547 0.63363 0.0
C97 C 0.70204 0.209 0.65745 0.0
C98 C 0.73604 0.19034 0.66849 0.0
C99 C 0.76072 0.16881 0.65606 0.0
C100 C 0.83375 0.07135 0.62818 0.0
C101 C 0.80943 0.06238 0.64863 0.0
C102 C 0.82463 0.03746 0.65989 0.0
C103 C 0.86519 0.02109 0.65123 0.0
C104 C 0.88925 0.03003 0.63064 0.0
C105 C 0.87343 0.05472 0.61915 0.0
C106 C 0.82526 0.1328 0.55884 0.0
C107 C 0.82551 0.11019 0.54284 0.0
C108 C 0.70417 0.39914 0.02195 0.0
C109 C 0.69983 0.37273 0.01048 0.0
C110 C 0.70016 0.34734 0.02343 0.0
C111 C 0.70614 0.34826 0.04734 0.0
H112 H 0.81576 0.31409 0.09895 0.0
H113 H 0.86124 0.2762 0.11889 0.0
H114 H 0.7831 0.29788 0.1823 0.0
H115 H 0.74005 0.33655 0.16264 0.0
H116 H 0.7407 0.41018 0.16453 0.0
H117 H 0.71306 0.44921 0.18899 0.0
H118 H 0.62225 0.48237 0.13323 0.0
H119 H 0.65112 0.44347 0.10834 0.0
H120 H 0.71286 0.42073 0.05439 0.0
H121 H 0.70399 0.419 0.0123 0.0
H122 H 0.69733 0.3267 0.01496 0.0
H123 H 0.70712 0.32827 0.05678 0.0
N124 N 0.74179 0.35263 0.09463 0.0
N125 N 0.73535 0.37584 0.1303 0.0
N126 N 0.70545 0.39837 0.09691 0.0
C127 C 0.74979 0.3528 0.11774 0.0
C128 C 0.71332 0.39873 0.1201 0.0
C129 C 0.71948 0.37528 0.0841 0.0
C130 C 0.7747 0.32845 0.12927 0.0
C131 C 0.80827 0.31063 0.11713 0.0
C132 C 0.83417 0.28881 0.12858 0.0
C133 C 0.82639 0.28405 0.15233 0.0
C134 C 0.79133 0.30135 0.16419 0.0
C135 C 0.76626 0.32344 0.15287 0.0
C136 C 0.69782 0.42349 0.13446 0.0
C137 C 0.71491 0.42577 0.15736 0.0
C138 C 0.69885 0.44813 0.17149 0.0
C139 C 0.66495 0.46876 0.16319 0.0
C140 C 0.6487 0.46695 0.14012 0.0
C141 C 0.66507 0.44458 0.12587 0.0
C142 C 0.71099 0.37463 0.05887 0.0
C143 C 0.70909 0.4001 0.04599 0.0
C144 C 0.64702 0.59291 0.53159 0.0
C145 C 0.6611 0.61462 0.51602 0.0
C146 C 0.69357 0.63682 0.52364 0.0
C147 C 0.71041 0.63761 0.54661 0.0
H148 H 0.76286 0.69435 0.60214 0.0
H149 H 0.8062 0.73466 0.62112 0.0
H150 H 0.84869 0.67918 0.67724 0.0
H151 H 0.8058 0.63914 0.65849 0.0
H152 H 0.69471 0.59717 0.67056 0.0
H153 H 0.6583 0.55992 0.69548 0.0
H154 H 0.6431 0.50364 0.63679 0.0
H155 H 0.6788 0.54091 0.61171 0.0
H156 H 0.65172 0.57641 0.56571 0.0
H157 H 0.62287 0.57521 0.52616 0.0
H158 H 0.70504 0.65386 0.512 0.0
H159 H 0.73474 0.65519 0.55208 0.0
N160 N 0.73858 0.63908 0.59581 0.0
N161 N 0.73576 0.61744 0.63242 0.0
N162 N 0.69644 0.59494 0.60108 0.0
C163 C 0.75132 0.63938 0.6186 0.0
C164 C 0.70837 0.59516 0.6238 0.0
C165 C 0.71118 0.61671 0.58692 0.0
C166 C 0.7806 0.66355 0.62884 0.0
C167 C 0.78192 0.69072 0.6184 0.0
C168 C 0.80644 0.71382 0.62932 0.0
C169 C 0.83077 0.71006 0.65068 0.0
C170 C 0.8307 0.68271 0.66071 0.0
C171 C 0.80575 0.6598 0.65 0.0
C172 C 0.68949 0.57202 0.63915 0.0
C173 C 0.68399 0.57678 0.66298 0.0
C174 C 0.66292 0.55558 0.67723 0.0
C175 C 0.64787 0.52902 0.668 0.0
C176 C 0.65466 0.52392 0.64432 0.0
C177 C 0.67486 0.5453 0.62999 0.0
C178 C 0.69544 0.61604 0.56229 0.0
C179 C 0.66395 0.59356 0.55433 0.0
C180 C 0.82286 0.90984 0.01578 0.0
C181 C 0.81019 0.88496 1.00328 0.0
C182 C 0.7857 0.86222 0.01489 0.0
C183 C 0.77469 0.86418 0.03848 0.0
H184 H 0.677 0.8311 0.09383 0.0
H185 H 0.63197 0.79327 0.11539 0.0
H186 H 0.71396 0.81716 0.17698 0.0
H187 H 0.75831 0.855 0.15575 0.0
H188 H 0.80418 0.91736 0.15821 0.0
H189 H 0.83364 0.95812 0.18092 0.0
H190 H 0.84176 0.00987 0.11931 0.0
H191 H 0.81239 0.96893 0.09631 0.0
H192 H 0.82256 0.93128 0.04835 0.0
H193 H 0.84086 0.928 1.0073 0.0
H194 H 0.77578 0.84266 1.00584 0.0
H195 H 0.75629 0.84609 0.04688 0.0
N196 N 0.75391 0.86877 0.08747 0.0
N197 N 0.76418 0.89277 0.12269 0.0
N198 N 0.79463 0.91381 0.08857 0.0
C199 C 0.74691 0.86974 0.1107 0.0
C200 C 0.78774 0.91496 0.11181 0.0
C201 C 0.77809 0.89068 0.07627 0.0
C202 C 0.72108 0.84603 0.12312 0.0
C203 C 0.68553 0.82814 0.11194 0.0
C204 C 0.65958 0.80667 0.12426 0.0
C205 C 0.66963 0.8024 0.14779 0.0
C206 C 0.70579 0.81994 0.15881 0.0
C207 C 0.73095 0.84166 0.14666 0.0
C208 C 0.80598 0.93987 0.1254 0.0
C209 C 0.8121 0.9374 0.14942 0.0
C210 C 0.82917 0.96069 0.16246 0.0
C211 C 0.8399 0.98708 0.15185 0.0
C212 C 0.83335 0.98976 0.1279 0.0
C213 C 0.81692 0.96629 0.11475 0.0
C214 C 0.78795 0.88895 0.05104 0.0
C215 C 0.81196 0.9118 0.03934 0.0
C216 C 0.18593 0.88059 0.49615 0.0
C217 C 0.18399 0.85183 0.50316 0.0
C218 C 0.19646 0.83036 0.48717 0.0
C219 C 0.21046 0.83752 0.46456 0.0
H220 H 0.29053 0.80712 0.40614 0.0
H221 H 0.33111 0.77358 0.37964 0.0
H222 H 0.33107 0.83789 0.32612 0.0
H223 H 0.2901 0.87119 0.35226 0.0
H224 H 0.25913 0.93477 0.36465 0.0
H225 H 0.2264 0.9775 0.3463 0.0
H226 H 0.11034 0.9838 0.39918 0.0
H227 H 0.14452 0.94151 0.4181 0.0
H228 H 0.19975 0.91012 0.46857 0.0
H229 H 0.17621 0.89754 0.5081 0.0
H230 H 0.19562 0.80802 0.4922 0.0
H231 H 0.21963 0.82047 0.45262 0.0
N232 N 0.24913 0.85518 0.41925 0.0
N233 N 0.24658 0.88828 0.38892 0.0
N234 N 0.21026 0.89982 0.42465 0.0
C235 C 0.26059 0.86229 0.39704 0.0
C236 C 0.22139 0.90711 0.40251 0.0
C237 C 0.22425 0.87396 0.4332 0.0
C238 C 0.28677 0.84189 0.3814 0.0
C239 C 0.29925 0.81415 0.38875 0.0
C240 C 0.3227 0.79494 0.37358 0.0
C241 C 0.33409 0.80303 0.35073 0.0
C242 C 0.32205 0.83082 0.34348 0.0
C243 C 0.29877 0.84999 0.35859 0.0
C244 C 0.20411 0.93457 0.39271 0.0
C245 C 0.22689 0.94538 0.3725 0.0
C246 C 0.20789 0.96982 0.36188 0.0
C247 C 0.16513 0.98384 0.37101 0.0
C248 C 0.14351 0.97367 0.39174 0.0
C249 C 0.16299 0.94935 0.40256 0.0
C250 C 0.21145 0.86628 0.45738 0.0
C251 C 0.19914 0.88773 0.47347 0.0
C252 C 0.33095 0.61033 1.0008 0.0
C253 C 0.30299 0.63187 0.01192 0.0
C254 C 0.27448 0.65084 0.99847 0.0
C255 C 0.27319 0.64816 0.9745 0.0
H256 H 0.25548 0.6977 0.91485 0.0
H257 H 0.2126 0.73507 0.89343 0.0
H258 H 0.18626 0.67584 0.83726 0.0
H259 H 0.23129 0.63887 0.85831 0.0
H260 H 0.35227 0.59302 0.86061 0.0
H261 H 0.3822 0.55045 0.84085 0.0
H262 H 0.33475 0.49873 0.89926 0.0
H263 H 0.30863 0.54183 0.91954 0.0
H264 H 0.35062 0.59039 0.96864 0.0
H265 H 0.35318 0.59539 0.01077 0.0
H266 H 0.25307 0.66788 1.00652 0.0
H267 H 0.25041 0.66315 0.96484 0.0
N268 N 0.27598 0.64456 0.92502 0.0
N269 N 0.28913 0.61832 0.8911 0.0
N270 N 0.31387 0.59934 0.92688 0.0
C271 C 0.27176 0.64225 0.90175 0.0
C272 C 0.31024 0.59682 0.90353 0.0
C273 C 0.297 0.62331 0.93775 0.0
C274 C 0.24687 0.66524 0.88832 0.0
C275 C 0.24075 0.69267 0.89788 0.0
C276 C 0.21574 0.71409 0.88562 0.0
C277 C 0.19548 0.70858 0.86359 0.0
C278 C 0.20197 0.68114 0.85399 0.0
C279 C 0.22764 0.65982 0.86613 0.0
C280 C 0.32831 0.57075 0.89164 0.0
C281 C 0.34852 0.57251 0.86921 0.0
C282 C 0.36522 0.54793 0.85779 0.0
C283 C 0.36081 0.52075 0.86823 0.0
C284 C 0.33999 0.51913 0.89069 0.0
C285 C 0.32462 0.54386 0.90234 0.0
C286 C 0.30007 0.62626 0.96327 0.0
C287 C 0.3292 0.60741 0.9767 0.0
C288 C 0.85401 0.1013 0.25364 0.0
C289 C 0.86134 0.05102 0.2635 0.0
C290 C 0.87911 0.07956 0.26529 0.0
C291 C 0.81944 0.04457 0.24934 0.0
C292 C 0.81163 0.09494 0.2396 0.0
C293 C 0.79466 0.06646 0.23744 0.0
N294 N 0.87252 0.12855 0.25526 0.0
C295 C 0.84925 0.15059 0.2442 0.0
C296 C 0.7881 0.11737 0.22783 0.0
C297 C 0.80684 0.14533 0.23025 0.0
Gd298 Gd 0.07649 0.1418 0.24211 0.0
Gd299 Gd 0.94424 0.13518 0.27863 0.0
N300 N 0.92047 0.08632 0.27847 0.0
C301 C 0.88569 0.02983 0.27629 0.0
C302 C 0.94115 0.06611 0.29253 0.0
C303 C 0.92511 0.03752 0.29121 0.0
H304 H 0.96881 0.07187 0.3054 0.0
H305 H 0.94252 0.02152 0.30205 0.0
H306 H 0.05025 0.20305 0.2126 0.0
H307 H 0.86328 0.17225 0.24627 0.0
H308 H 0.07453 0.25386 0.21409 0.0
H309 H 0.87319 0.00767 0.2754 0.0
H310 H 0.80563 0.02273 0.24762 0.0
H311 H 0.15977 0.10752 0.27513 0.0
H312 H 0.75547 0.11334 0.21686 0.0
H313 H 0.78865 0.16283 0.22136 0.0
H314 H 0.21109 0.25753 0.26866 0.0
H315 H 0.7624 0.06113 0.22658 0.0
H316 H 0.26624 0.16921 0.30184 0.0
H317 H 0.23514 0.11912 0.29906 0.0
N318 N 0.14863 0.1506 0.26475 0.0
C319 C 0.1658 0.17816 0.26551 0.0
C320 C 0.17322 0.12941 0.27631 0.0
C321 C 0.23343 0.16421 0.29123 0.0
C322 C 0.21589 0.13591 0.28977 0.0
C323 C 0.20839 0.18575 0.27903 0.0
H324 H 0.25644 0.22083 0.29072 0.0
N325 N 0.09852 0.19088 0.24034 0.0
C326 C 0.13947 0.19892 0.25332 0.0
C327 C 0.13117 0.24783 0.24036 0.0
C328 C 0.15621 0.22773 0.254 0.0
C329 C 0.07747 0.20993 0.22535 0.0
C330 C 0.09234 0.23876 0.22562 0.0
O331 O 0.94776 0.12035 0.24139 0.0
O332 O 0.02792 0.10236 0.23667 0.0
O333 O 0.09491 0.14489 0.20502 0.0
O334 O 0.14207 0.11997 0.22844 0.0
O335 O 0.0146 0.11412 0.29356 0.0
O336 O 0.06289 0.10085 0.26176 0.0
O337 O 0.07443 0.15627 0.2795 0.0
O338 O 0.99409 0.174 0.28532 0.0
O339 O 0.92458 0.12973 0.31538 0.0
O340 O 0.87839 0.1564 0.29274 0.0
O341 O 0.00518 0.16245 0.22772 0.0
O342 O 0.95955 0.17667 0.25998 0.0
C343 C 0.97872 0.10113 0.23301 0.0
C344 C 0.04924 0.09793 0.28353 0.0
C345 C 0.1696 0.12044 0.18854 0.0
C346 C 0.196 0.12107 0.14805 0.0
C347 C 0.2472 0.09651 0.17648 0.0
C348 C 0.2129 0.10419 0.19376 0.0
C349 C 0.23903 0.10501 0.1538 0.0
C350 C 0.16093 0.12864 0.16546 0.0
C351 C 0.13467 0.1287 0.20748 0.0
C352 C 0.19808 0.23546 0.26778 0.0
C353 C 0.22411 0.21454 0.28024 0.0
H354 H 0.14289 0.27015 0.24038 0.0
C355 C 0.04347 0.17483 0.28889 0.0
C356 C 0.97216 0.17934 0.23809 0.0
C357 C 0.84854 0.15229 0.33213 0.0
C358 C 0.82559 0.15351 0.37313 0.0
C359 C 0.76478 0.16846 0.344 0.0
C360 C 0.80018 0.1629 0.32666 0.0
C361 C 0.77716 0.16372 0.36701 0.0
C362 C 0.86114 0.14755 0.35543 0.0
C363 C 0.88461 0.14582 0.31324 0.0
H364 H 0.28042 0.08404 0.18072 0.0
H365 H 0.22056 0.09746 0.21128 0.0
H366 H 0.26628 0.09891 0.14062 0.0
H367 H 0.12779 0.14116 0.16109 0.0
H368 H 0.72742 0.17633 0.33958 0.0
H369 H 0.78935 0.16656 0.30889 0.0
H370 H 0.74838 0.16776 0.38003 0.0
H371 H 0.89861 0.1397 0.35976 0.0
C372 C 0.65514 0.40195 0.76618 0.0
C373 C 0.63847 0.44993 0.77992 0.0
C374 C 0.62537 0.4206 0.77886 0.0
C375 C 0.68036 0.46033 0.76712 0.0
C376 C 0.69841 0.41201 0.75405 0.0
C377 C 0.71033 0.44139 0.75425 0.0
N378 N 0.6415 0.37383 0.76567 0.0
C379 C 0.67173 0.35417 0.75503 0.0
C380 C 0.72837 0.39216 0.74217 0.0
C381 C 0.71532 0.36307 0.74291 0.0
Gd382 Gd 0.44883 0.35243 0.74061 0.0
Gd383 Gd 0.56675 0.36071 0.78555 0.0
N384 N 0.58515 0.40979 0.79104 0.0
C385 C 0.61004 0.46773 0.79439 0.0
C386 C 0.56075 0.4265 0.80681 0.0
C387 C 0.57171 0.45582 0.80828 0.0
H388 H 0.53379 0.41715 0.81871 0.0
H389 H 0.55122 0.46909 0.82043 0.0
H390 H 0.4593 0.28496 0.72296 0.0
H391 H 0.66172 0.33168 0.75565 0.0
H392 H 0.41589 0.23813 0.72931 0.0
H393 H 0.61881 0.4904 0.7957 0.0
H394 H 0.69062 0.48286 0.76751 0.0
H395 H 0.36325 0.40245 0.75652 0.0
H396 H 0.76196 0.39902 0.73264 0.0
H397 H 0.73871 0.34751 0.7341 0.0
H398 H 0.27403 0.26084 0.77864 0.0
H399 H 0.74305 0.44962 0.74479 0.0
H400 H 0.24203 0.36019 0.79303 0.0
H401 H 0.28397 0.40485 0.77941 0.0
N402 N 0.36947 0.35723 0.7594 0.0
C403 C 0.34494 0.33246 0.76514 0.0
C404 C 0.34669 0.38294 0.7633 0.0
C405 C 0.27755 0.35908 0.78348 0.0
C406 C 0.30115 0.38433 0.77587 0.0
C407 C 0.29866 0.33266 0.77759 0.0
H408 H 0.23886 0.3063 0.7928 0.0
N409 N 0.40803 0.30773 0.74448 0.0
C410 C 0.36439 0.30691 0.7571 0.0
C411 C 0.35798 0.25575 0.75152 0.0
C412 C 0.33862 0.28082 0.76136 0.0
C413 C 0.42558 0.28372 0.73372 0.0
C414 C 0.4012 0.25729 0.73734 0.0
O415 O 0.57236 0.3738 0.74797 0.0
O416 O 0.49512 0.39325 0.74039 0.0
O417 O 0.46254 0.3465 0.70399 0.0
O418 O 0.39108 0.36386 0.7155 0.0
O419 O 0.4908 0.37948 0.79652 0.0
O420 O 0.45314 0.39307 0.76224 0.0
O421 O 0.46751 0.31829 0.76667 0.0
O422 O 0.49235 0.34223 0.79911 0.0
O423 O 0.60388 0.36745 0.81883 0.0
O424 O 0.60906 0.32602 0.80122 0.0
O425 O 0.52303 0.33109 0.73045 0.0
O426 O 0.5656 0.31977 0.7645 0.0
C427 C 0.5448 0.39369 0.73841 0.0
C428 C 0.45978 0.39595 0.78471 0.0
C429 C 0.42357 0.3797 0.67965 0.0
C430 C 0.41418 0.39322 0.6392 0.0
C431 C 0.45063 0.42691 0.66683 0.0
C432 C 0.44462 0.40677 0.68443 0.0
C433 C 0.43563 0.42023 0.64435 0.0
C434 C 0.40815 0.37303 0.65708 0.0
C435 C 0.41971 0.35785 0.69782 0.0
C436 C 0.29404 0.28071 0.77486 0.0
C437 C 0.27409 0.3066 0.78298 0.0
H438 H 0.33931 0.23525 0.75439 0.0
C439 C 0.467 0.32134 0.7891 0.0
C440 C 0.55608 0.31586 0.74233 0.0
C441 C 0.6532 0.33043 0.8378 0.0
C442 C 0.67801 0.33005 0.87826 0.0
C443 C 0.72339 0.3009 0.85042 0.0
C444 C 0.69164 0.31062 0.83289 0.0
C445 C 0.71682 0.31064 0.873 0.0
C446 C 0.64627 0.34 0.8606 0.0
C447 C 0.62159 0.34157 0.81899 0.0
H448 H 0.46703 0.44775 0.67061 0.0
H449 H 0.45661 0.41229 0.70172 0.0
H450 H 0.44029 0.43632 0.63103 0.0
H451 H 0.3925 0.35195 0.65337 0.0
H452 H 0.75321 0.28579 0.84649 0.0
H453 H 0.69766 0.30304 0.81542 0.0
H454 H 0.74157 0.30276 0.88645 0.0
H455 H 0.61641 0.35511 0.86462 0.0
C456 C 0.85659 0.81968 0.75413 0.0
C457 C 0.87029 0.76875 0.75908 0.0
C458 C 0.88604 0.79741 0.76252 0.0
C459 C 0.82566 0.76282 0.74657 0.0
C460 C 0.81153 0.81381 0.74175 0.0
C461 C 0.79637 0.78528 0.73794 0.0
N462 N 0.87305 0.84708 0.75738 0.0
C463 C 0.84567 0.86963 0.74934 0.0
C464 C 0.78346 0.83683 0.73324 0.0
C465 C 0.8005 0.86485 0.73716 0.0
Gd466 Gd 0.07606 0.86573 0.73765 0.0
Gd467 Gd 0.95045 0.85291 0.77686 0.0
N468 N 0.92992 0.80376 0.77405 0.0
C469 C 0.89954 0.74687 0.76856 0.0
C470 C 0.95605 0.78259 0.78488 0.0
C471 C 0.94205 0.75386 0.78188 0.0
H472 H 0.98668 0.78758 0.79646 0.0
H473 H 0.96361 0.73715 0.79017 0.0
H474 H 0.04171 0.93253 0.7211 0.0
H475 H 0.85842 0.89133 0.75249 0.0
H476 H 0.0691 0.98217 0.72793 0.0
H477 H 0.88872 0.72458 0.76632 0.0
H478 H 0.81329 0.74093 0.7436 0.0
H479 H 0.16813 0.82447 0.7588 0.0
H480 H 0.74865 0.8332 0.72364 0.0
H481 H 0.77891 0.88277 0.73076 0.0
H482 H 0.22453 0.97335 0.77039 0.0
H483 H 0.76207 0.78036 0.72832 0.0
H484 H 0.28417 0.879 0.78706 0.0
H485 H 0.24995 0.83038 0.77925 0.0
N486 N 0.15534 0.86908 0.75593 0.0
C487 C 0.17408 0.89599 0.75943 0.0
C488 C 0.1822 0.84569 0.76261 0.0
C489 C 0.24811 0.87649 0.77821 0.0
C490 C 0.22883 0.84901 0.77392 0.0
C491 C 0.22082 0.90041 0.77089 0.0
H492 H 0.27426 0.93226 0.78373 0.0
N493 N 0.10026 0.91425 0.74137 0.0
C494 C 0.14572 0.91921 0.752 0.0
C495 C 0.13517 0.97024 0.74746 0.0
C496 C 0.16392 0.94738 0.75568 0.0
C497 C 0.07418 0.9364 0.73186 0.0
C498 C 0.09054 0.96468 0.73518 0.0
O499 O 0.95052 0.839 0.73939 0.0
O500 O 0.03221 0.8243 0.73297 0.0
O501 O 0.0784 0.87462 0.7008 0.0
O502 O 0.13968 0.85144 0.71679 0.0
O503 O 0.0257 0.83423 0.78905 0.0
O504 O 0.07139 0.82335 0.75603 0.0
O505 O 0.07569 0.88211 0.77463 0.0
O506 O 0.99272 0.89471 0.78117 0.0
O507 O 0.94661 0.8467 0.81408 0.0
O508 O 0.88415 0.86648 0.79633 0.0
O509 O 0.00158 0.88513 0.7255 0.0
O510 O 0.95382 0.89526 0.75822 0.0
C511 C 0.98311 0.82212 0.72914 0.0
C512 C 0.06125 0.81963 0.7781 0.0
C513 C 0.1182 0.83877 0.67873 0.0
C514 C 0.13051 0.82707 0.63795 0.0
C515 C 0.10469 0.79007 0.66541 0.0
C516 C 0.10513 0.81011 0.68324 0.0
C517 C 0.11763 0.79835 0.64297 0.0
C518 C 0.13029 0.84722 0.6561 0.0
C519 C 0.11977 0.85996 0.69751 0.0
C520 C 0.21022 0.95185 0.76727 0.0
C521 C 0.23859 0.92844 0.77483 0.0
H522 H 0.14779 0.99218 0.74996 0.0
C523 C 0.04171 0.89856 0.78448 0.0
C524 C 0.96566 0.89953 0.73634 0.0
C525 C 0.90518 0.88458 0.833 0.0
C526 C 0.90322 0.90185 0.87274 0.0
C527 C 0.91771 0.93519 0.84114 0.0
C528 C 0.91374 0.91277 0.82535 0.0
C529 C 0.91282 0.9298 0.8647 0.0
C530 C 0.89934 0.87921 0.85675 0.0
C531 C 0.90433 0.86084 0.81623 0.0
H532 H 0.09488 0.76795 0.66904 0.0
H533 H 0.0958 0.80318 0.70058 0.0
H534 H 0.11839 0.78208 0.62968 0.0
H535 H 0.1393 0.86953 0.65272 0.0
H536 H 0.92453 0.95682 0.83509 0.0
H537 H 0.91744 0.91743 0.80714 0.0
H538 H 0.91563 0.94758 0.87666 0.0
H539 H 0.89262 0.85752 0.86277 0.0
C540 C 0.70038 0.64463 0.26334 0.0
C541 C 0.72364 0.69477 0.26803 0.0
C542 C 0.6874 0.67234 0.26954 0.0
C543 C 0.77308 0.68894 0.26006 0.0
C544 C 0.75013 0.63863 0.25557 0.0
C545 C 0.78629 0.66096 0.25385 0.0
N546 N 0.66461 0.62348 0.2652 0.0
C547 C 0.67648 0.59572 0.26047 0.0
C548 C 0.76213 0.61032 0.24994 0.0
C549 C 0.72521 0.58876 0.25253 0.0
Gd550 Gd 0.45736 0.64181 0.23765 0.0
Gd551 Gd 0.58437 0.63747 0.27864 0.0
N552 N 0.63883 0.67749 0.27652 0.0
C553 C 0.70897 0.7224 0.27448 0.0
C554 C 0.62491 0.70409 0.28387 0.0
C555 C 0.6595 0.72702 0.28259 0.0
H556 H 0.5869 0.70767 0.29035 0.0
H557 H 0.64804 0.74822 0.28793 0.0
H558 H 0.48489 0.58296 0.20534 0.0
H559 H 0.64866 0.57886 0.26323 0.0
H560 H 0.46084 0.53201 0.20438 0.0
H561 H 0.73564 0.74023 0.27347 0.0
H562 H 0.80142 0.70591 0.25868 0.0
H563 H 0.37129 0.67409 0.27065 0.0
H564 H 0.79993 0.60484 0.2439 0.0
H565 H 0.73441 0.56674 0.24864 0.0
H566 H 0.32088 0.52469 0.25756 0.0
H567 H 0.82467 0.65677 0.24785 0.0
H568 H 0.2631 0.61083 0.29377 0.0
H569 H 0.29392 0.66111 0.29314 0.0
N570 N 0.38367 0.63164 0.25902 0.0
C571 C 0.36646 0.60409 0.25839 0.0
C572 C 0.3578 0.65217 0.27085 0.0
C573 C 0.29675 0.61646 0.28379 0.0
C574 C 0.31409 0.64487 0.28353 0.0
C575 C 0.32288 0.59567 0.27109 0.0
H576 H 0.27398 0.55991 0.28072 0.0
N577 N 0.43519 0.59306 0.23323 0.0
C578 C 0.39347 0.58418 0.24548 0.0
C579 C 0.4026 0.53624 0.23042 0.0
C580 C 0.37668 0.55539 0.24472 0.0
C581 C 0.45715 0.5751 0.21757 0.0
C582 C 0.44232 0.54629 0.21642 0.0
O583 O 0.59227 0.66831 0.24885 0.0
O584 O 0.51942 0.6719 0.22599 0.0
O585 O 0.4269 0.63651 0.20286 0.0
O586 O 0.40303 0.67253 0.22433 0.0
O587 O 0.52044 0.66629 0.28996 0.0
O588 O 0.47078 0.68156 0.2591 0.0
O589 O 0.4558 0.62702 0.27503 0.0
O590 O 0.52821 0.60102 0.27688 0.0
O591 O 0.57225 0.64529 0.31512 0.0
O592 O 0.63238 0.61697 0.3041 0.0
O593 O 0.5299 0.62336 0.22251 0.0
O594 O 0.56513 0.60165 0.25409 0.0
C595 C 0.5665 0.67897 0.23147 0.0
C596 C 0.48841 0.68424 0.2803 0.0
C597 C 0.3664 0.66968 0.18577 0.0
C598 C 0.33846 0.66846 0.14546 0.0
C599 C 0.30193 0.70264 0.17245 0.0
C600 C 0.33238 0.69208 0.19007 0.0
C601 C 0.30495 0.69104 0.15033 0.0
C602 C 0.36937 0.65791 0.16336 0.0
C603 C 0.39954 0.65947 0.20455 0.0
C604 C 0.33395 0.54677 0.25778 0.0
C605 C 0.3071 0.56685 0.27089 0.0
H606 H 0.39091 0.51395 0.22935 0.0
C607 C 0.48044 0.60465 0.28252 0.0
C608 C 0.5618 0.60505 0.23166 0.0
C609 C 0.59514 0.60857 0.34064 0.0
C610 C 0.59937 0.59737 0.38172 0.0
C611 C 0.55116 0.56658 0.35559 0.0
C612 C 0.56473 0.58416 0.33703 0.0
C613 C 0.56825 0.57311 0.37781 0.0
C614 C 0.61254 0.61505 0.36292 0.0
C615 C 0.60808 0.62797 0.32155 0.0
H616 H 0.27608 0.72005 0.17591 0.0
H617 H 0.32942 0.70158 0.20707 0.0
H618 H 0.28147 0.70009 0.13691 0.0
H619 H 0.39548 0.6406 0.15986 0.0
H620 H 0.52749 0.54779 0.35273 0.0
H621 H 0.55162 0.57876 0.31991 0.0
H622 H 0.55778 0.55893 0.39188 0.0
H623 H 0.63572 0.63411 0.36564 0.0
H624 H 0.15331 0.98867 0.3247 0.0
H625 H 0.12378 0.03319 0.38858 0.0
H626 H 0.08417 0.07219 0.36723 0.0
H627 H 0.05877 0.09385 0.33022 0.0
H628 H 0.09224 0.04962 0.2666 0.0
H629 H 0.13054 0.0106 0.28809 0.0
C630 C 0.13903 0.00709 0.33401 0.0
C631 C 0.14186 0.008 0.35823 0.0
C632 C 0.1171 0.02956 0.32165 0.0
C633 C 0.12175 0.03175 0.36996 0.0
C634 C 0.09933 0.05415 0.35776 0.0
C635 C 0.07441 0.07563 0.32111 0.0
C636 C 0.07266 0.07462 0.29687 0.0
C637 C 0.0968 0.05327 0.33359 0.0
C638 C 0.09338 0.05101 0.28525 0.0
C639 C 0.11515 0.02862 0.29751 0.0
H640 H 0.36044 0.50982 0.82158 0.0
H641 H 0.40126 0.47171 0.88685 0.0
H642 H 0.42953 0.4289 0.86693 0.0
H643 H 0.44631 0.4028 0.831 0.0
H644 H 0.418 0.44388 0.76567 0.0
H645 H 0.38132 0.48484 0.78564 0.0
C646 C 0.3762 0.49246 0.83158 0.0
C647 C 0.37821 0.49436 0.85587 0.0
C648 C 0.39462 0.46822 0.81996 0.0
C649 C 0.39782 0.47098 0.86826 0.0
C650 C 0.41459 0.44644 0.85684 0.0
C651 C 0.43223 0.42074 0.8211 0.0
C652 C 0.43492 0.42014 0.79684 0.0
C653 C 0.41351 0.4449 0.83271 0.0
C654 C 0.41599 0.44351 0.78434 0.0
C655 C 0.39538 0.46711 0.79576 0.0
H656 H 0.6743 0.47329 0.67218 0.0
H657 H 0.56727 0.53562 0.69709 0.0
H658 H 0.52499 0.49901 0.72081 0.0
H659 H 0.51808 0.44908 0.73417 0.0
H660 H 0.6272 0.38721 0.71048 0.0
H661 H 0.66926 0.42372 0.6866 0.0
C662 C 0.64168 0.47874 0.68281 0.0
C663 C 0.6237 0.50697 0.68289 0.0
C664 C 0.61802 0.45769 0.69656 0.0
C665 C 0.58184 0.514 0.6969 0.0
C666 C 0.55758 0.49309 0.71036 0.0
C667 C 0.5509 0.44368 0.72364 0.0
C668 C 0.56956 0.41564 0.7239 0.0
C669 C 0.5752 0.46485 0.71025 0.0
C670 C 0.61243 0.40878 0.71052 0.0
C671 C 0.63636 0.4296 0.69686 0.0
H672 H 0.91728 0.98668 0.18246 0.0
H673 H 0.80526 0.04203 0.15232 0.0
H674 H 0.83729 0.0823 0.17543 0.0
H675 H 0.89876 0.10187 0.20355 0.0
H676 H 0.01223 0.04653 0.2326 0.0
H677 H 0.97815 0.00606 0.21056 0.0
C678 C 0.89977 0.00754 0.18107 0.0
C679 C 0.85907 0.01147 0.16577 0.0
C680 C 0.91882 0.03055 0.19409 0.0
C681 C 0.83698 0.03864 0.16387 0.0
C682 C 0.85516 0.06159 0.1771 0.0
C683 C 0.91575 0.08088 0.20505 0.0
C684 C 0.95787 0.07705 0.21955 0.0
C685 C 0.8963 0.05782 0.19214 0.0
C686 C 0.98006 0.04994 0.2213 0.0
C687 C 0.96047 0.02681 0.20882 0.0
H688 H 0.86939 0.01277 0.6979 0.0
H689 H 0.90107 0.9708 0.63303 0.0
H690 H 0.93412 0.92951 0.65361 0.0
H691 H 0.95577 0.90563 0.68999 0.0
H692 H 0.91982 0.94649 0.75475 0.0
H693 H 0.88511 0.98748 0.73416 0.0
C694 C 0.88256 0.99444 0.68816 0.0
C695 C 0.88296 0.99521 0.66384 0.0
C696 C 0.90056 0.97043 0.7001 0.0
C697 C 0.90123 0.97126 0.6517 0.0
C698 C 0.91979 0.94746 0.66346 0.0
C699 C 0.94005 0.92344 0.69958 0.0
C700 C 0.94058 0.92308 0.72385 0.0
C701 C 0.92002 0.94691 0.68765 0.0
C702 C 0.91966 0.94618 0.73606 0.0
C703 C 0.90007 0.96971 0.7243 0.0
H704 H 0.64995 0.52534 0.15344 0.0
H705 H 0.63635 0.46318 0.20831 0.0
H706 H 0.60628 0.50014 0.23456 0.0
H707 H 0.58162 0.54971 0.24179 0.0
H708 H 0.59148 0.61183 0.1869 0.0
H709 H 0.62459 0.57522 0.1607 0.0
C710 C 0.64004 0.51984 0.17108 0.0
C711 C 0.64582 0.49151 0.17888 0.0
C712 C 0.62213 0.54118 0.18609 0.0
C713 C 0.63324 0.48487 0.20191 0.0
C714 C 0.61573 0.50596 0.21693 0.0
C715 C 0.59184 0.55534 0.2242 0.0
C716 C 0.58485 0.58346 0.21633 0.0
C717 C 0.61008 0.53416 0.20923 0.0
C718 C 0.59685 0.5903 0.19333 0.0
C719 C 0.61567 0.56939 0.17837 0.0
H720 H 0.35291 0.526 0.35049 0.0
H721 H 0.44629 0.46143 0.31871 0.0
H722 H 0.48717 0.49773 0.29434 0.0
H723 H 0.49766 0.54787 0.28262 0.0
H724 H 0.40361 0.61264 0.31357 0.0
H725 H 0.36131 0.57627 0.33762 0.0
C726 C 0.38228 0.51998 0.33824 0.0
C727 C 0.39671 0.49115 0.3364 0.0
C728 C 0.40539 0.54095 0.32417 0.0
C729 C 0.43432 0.48348 0.32028 0.0
C730 C 0.45784 0.50421 0.30643 0.0
C731 C 0.46801 0.55397 0.29471 0.0
C732 C 0.45395 0.58279 0.29656 0.0
C733 C 0.44388 0.533 0.30832 0.0
C734 C 0.41499 0.59049 0.31195 0.0
C735 C 0.39096 0.56975 0.32571 0.0
H736 H 0.07625 0.01101 0.84302 0.0
H737 H 0.22556 0.97487 0.8507 0.0
H738 H 0.20008 0.93353 0.82708 0.0
H739 H 0.13398 0.90718 0.80523 0.0
H740 H 0.98771 0.94632 0.79461 0.0
H741 H 0.01278 0.9866 0.81882 0.0
C742 C 0.10304 0.99399 0.83954 0.0
C743 C 0.15237 0.99565 0.84874 0.0
C744 C 0.08847 0.97074 0.82564 0.0
C745 C 0.18727 0.97386 0.84381 0.0
C746 C 0.17269 0.95027 0.83037 0.0
C747 C 0.10785 0.92468 0.80799 0.0
C748 C 0.05864 0.92339 0.79848 0.0
C749 C 0.12324 0.94842 0.82129 0.0
C750 C 0.02521 0.94625 0.80231 0.0
C751 C 0.0397 0.9695 0.81596 0.0
H752 H 0.22563 0.15191 0.04371 0.0
H753 H 0.0926 0.09737 0.03737 0.0
H754 H 0.08605 0.09409 0.07937 0.0
H755 H 0.12281 0.10346 0.118 0.0
H756 H 0.2567 0.15712 0.1237 0.0
H757 H 0.25725 0.16483 0.08197 0.0
C758 C 0.19445 0.13982 0.05144 0.0
C759 C 0.15995 0.12474 0.03728 0.0
C760 C 0.19098 0.13796 0.07559 0.0
C761 C 0.12032 0.10879 0.04778 0.0
C762 C 0.11634 0.10703 0.07183 0.0
C763 C 0.15119 0.11739 0.11005 0.0
C764 C 0.1895 0.12988 0.12375 0.0
C765 C 0.15208 0.12105 0.08592 0.0
C766 C 0.22675 0.14748 0.11338 0.0
C767 C 0.22725 0.15171 0.08955 0.0
H768 H 0.31153 0.36402 0.5432 0.0
H769 H 0.45326 0.40074 0.51855 0.0
H770 H 0.48267 0.40678 0.55808 0.0
H771 H 0.46699 0.40372 0.59968 0.0
H772 H 0.32589 0.36705 0.62488 0.0
H773 H 0.2979 0.35835 0.58522 0.0
C774 C 0.34911 0.37297 0.5465 0.0
C775 C 0.37981 0.38229 0.52791 0.0
C776 C 0.36591 0.37645 0.56939 0.0
C777 C 0.42838 0.39394 0.53252 0.0
C778 C 0.44537 0.39731 0.55513 0.0
C779 C 0.43005 0.39388 0.59649 0.0
C780 C 0.39838 0.38632 0.61519 0.0
C781 C 0.41415 0.38911 0.5737 0.0
C782 C 0.35108 0.373 0.61078 0.0
C783 C 0.33496 0.36815 0.5881 0.0
H784 H 0.63072 0.34422 0.98411 0.0
H785 H 0.76531 0.39772 0.97989 0.0
H786 H 0.76892 0.39067 0.93806 0.0
H787 H 0.73766 0.3659 0.90314 0.0
H788 H 0.60158 0.31375 0.90709 0.0
H789 H 0.59427 0.32362 0.94855 0.0
C790 C 0.66046 0.35453 0.97392 0.0
C791 C 0.69793 0.37127 0.98497 0.0
C792 C 0.6621 0.35046 0.94992 0.0
C793 C 0.736 0.38483 0.97168 0.0
C794 C 0.73823 0.38066 0.94782 0.0
C795 C 0.7061 0.35712 0.91313 0.0
C796 C 0.67027 0.3391 0.90237 0.0
C797 C 0.70209 0.36307 0.93683 0.0
C798 C 0.62938 0.32776 0.91521 0.0
C799 C 0.62539 0.3333 0.93885 0.0
H800 H 0.87611 0.11355 0.47493 0.0
H801 H 0.78972 0.18963 0.49012 0.0
H802 H 0.78443 0.20046 0.44929 0.0
H803 H 0.79999 0.18754 0.40924 0.0
H804 H 0.87907 0.1095 0.39298 0.0
H805 H 0.89202 0.10054 0.43415 0.0
C806 C 0.85591 0.13242 0.46934 0.0
C807 C 0.83375 0.15079 0.48583 0.0
C808 C 0.85165 0.13826 0.44557 0.0
C809 C 0.80829 0.17536 0.47808 0.0
C810 C 0.80475 0.18151 0.45462 0.0
C811 C 0.81975 0.16841 0.41463 0.0
C812 C 0.83789 0.14906 0.39796 0.0
C813 C 0.82571 0.16297 0.43824 0.0
C814 C 0.86486 0.12488 0.40536 0.0
C815 C 0.8719 0.1196 0.42894 0.0
H816 H 0.89662 0.90306 0.98133 0.0
H817 H 0.75103 0.86223 0.9688 0.0
H818 H 0.76925 0.86117 0.92744 0.0
H819 H 0.82404 0.87508 0.89445 0.0
H820 H 0.96722 0.91825 0.90712 0.0
H821 H 0.95244 0.9153 0.94874 0.0
C822 C 0.86871 0.89406 0.96956 0.0
C823 C 0.82235 0.88297 0.97821 0.0
C824 C 0.87901 0.89399 0.94577 0.0
C825 C 0.78719 0.87075 0.9627 0.0
C826 C 0.79745 0.87028 0.939 0.0
C827 C 0.85225 0.88339 0.9064 0.0
C828 C 0.89657 0.8969 0.89783 0.0
C829 C 0.84293 0.88219 0.9303 0.0
C830 C 0.93269 0.90791 0.91339 0.0
C831 C 0.92423 0.90626 0.93715 0.0
H832 H 0.71344 0.62331 0.47567 0.0
H833 H 0.56352 0.60388 0.50267 0.0
H834 H 0.531 0.59765 0.46362 0.0
H835 H 0.54568 0.59558 0.4219 0.0
H836 H 0.69537 0.61443 0.39447 0.0
H837 H 0.72714 0.62352 0.43343 0.0
C838 C 0.67353 0.61811 0.47295 0.0
C839 C 0.6411 0.61376 0.49206 0.0
C840 C 0.65503 0.61436 0.45036 0.0
C841 C 0.58949 0.60688 0.48827 0.0
C842 C 0.5708 0.60338 0.46594 0.0
C843 C 0.58531 0.60157 0.42446 0.0
C844 C 0.61814 0.60409 0.40532 0.0
C845 C 0.60338 0.60657 0.44688 0.0
C846 C 0.66917 0.61247 0.40889 0.0
C847 C 0.68745 0.61755 0.43119 0.0
H848 H 0.3836 0.63274 0.04187 0.0
H849 H 0.21956 0.637 0.0393 0.0
H850 H 0.21611 0.64622 0.08068 0.0
H851 H 0.25939 0.65626 0.117 0.0
H852 H 0.42348 0.65424 0.12013 0.0
H853 H 0.42722 0.64018 0.07941 0.0
C854 C 0.34716 0.6353 0.05049 0.0
C855 C 0.30191 0.63452 0.03749 0.0
C856 C 0.34545 0.64102 0.07439 0.0
C857 C 0.25493 0.63796 0.04885 0.0
C858 C 0.25291 0.64315 0.07253 0.0
C859 C 0.29605 0.65276 0.1088 0.0
C860 C 0.34107 0.65668 0.12156 0.0
C861 C 0.29791 0.64534 0.08535 0.0
C862 C 0.38817 0.65131 0.11077 0.0
C863 C 0.39034 0.64348 0.08742 0.0
H864 H 0.21921 0.87457 0.5433 0.0
H865 H 0.11298 0.81209 0.51632 0.0
H866 H 0.0857 0.79969 0.5555 0.0
H867 H 0.09175 0.80679 0.59727 0.0
H868 H 0.20252 0.8669 0.62443 0.0
H869 H 0.22704 0.88064 0.58536 0.0
C870 C 0.18995 0.85832 0.54606 0.0
C871 C 0.16811 0.84424 0.527 0.0
C872 C 0.17492 0.85107 0.56864 0.0
C873 C 0.13064 0.82302 0.53076 0.0
C874 C 0.11489 0.81603 0.55313 0.0
C875 C 0.12176 0.82263 0.59476 0.0
C876 C 0.14502 0.83575 0.61398 0.0
C877 C 0.13688 0.82985 0.5722 0.0
C878 C 0.18307 0.85674 0.61013 0.0
C879 C 0.19757 0.86446 0.58772 0.0
H880 H 0.11142 0.2854 0.34353 0.0
H881 H 0.23399 0.22989 0.36341 0.0
H882 H 0.19556 0.19058 0.34135 0.0
H883 H 0.12791 0.17238 0.3157 0.0
H884 H 0.00648 0.22836 0.29533 0.0
H885 H 0.04347 0.2671 0.3184 0.0
C886 C 0.12975 0.2647 0.34301 0.0
C887 C 0.17553 0.26058 0.35507 0.0
C888 C 0.10762 0.24231 0.33023 0.0
C889 C 0.19845 0.23352 0.3545 0.0
C890 C 0.17666 0.2111 0.34178 0.0
C891 C 0.10978 0.19313 0.31626 0.0
C892 C 0.06484 0.19764 0.30371 0.0
C893 C 0.13142 0.21532 0.32947 0.0
C894 C 0.04103 0.22438 0.30492 0.0
C895 C 0.06228 0.24655 0.31802 0.0
H896 H 0.37602 0.20909 0.83347 0.0
H897 H 0.31465 0.27015 0.88183 0.0
H898 H 0.35902 0.30907 0.86161 0.0
H899 H 0.41327 0.32604 0.82916 0.0
H900 H 0.47032 0.26465 0.78012 0.0
H901 H 0.42884 0.22571 0.80133 0.0
C902 C 0.37174 0.23092 0.8395 0.0
C903 C 0.34178 0.23657 0.85914 0.0
C904 C 0.39656 0.25321 0.82758 0.0
C905 C 0.33788 0.26503 0.86693 0.0
C906 C 0.36301 0.28736 0.85529 0.0
C907 C 0.41695 0.30406 0.82338 0.0
C908 C 0.44465 0.29811 0.80318 0.0
C909 C 0.39235 0.28173 0.83553 0.0
C910 C 0.4488 0.26969 0.79557 0.0
C911 C 0.4252 0.24742 0.8077 0.0
H912 H 0.66867 0.20802 0.70241 0.0
H913 H 0.67627 0.26261 0.64224 0.0
H914 H 0.63019 0.29962 0.66285 0.0
H915 H 0.58787 0.31688 0.69796 0.0
H916 H 0.58729 0.26457 0.75924 0.0
H917 H 0.63179 0.22661 0.73836 0.0
C918 C 0.66114 0.22813 0.69383 0.0
C919 C 0.67563 0.2321 0.67057 0.0
C920 C 0.63597 0.24986 0.70603 0.0
C921 C 0.66453 0.25837 0.65984 0.0
C922 C 0.63853 0.27978 0.6717 0.0
C923 C 0.59742 0.2971 0.70669 0.0
C924 C 0.58404 0.29331 0.72998 0.0
C925 C 0.62387 0.27571 0.69474 0.0
C926 C 0.59735 0.2679 0.74128 0.0
C927 C 0.62262 0.2462 0.72934 0.0
H928 H 0.86295 0.28649 0.19625 0.0
H929 H 0.85532 0.23095 0.13672 0.0
H930 H 0.90263 0.19443 0.15748 0.0
H931 H 0.94383 0.17753 0.19312 0.0
H932 H 0.94443 0.23174 0.25336 0.0
H933 H 0.90118 0.26929 0.23188 0.0
C934 C 0.8708 0.26626 0.18783 0.0
C935 C 0.85527 0.26161 0.16489 0.0
C936 C 0.8967 0.24504 0.20005 0.0
C937 C 0.86728 0.23543 0.15421 0.0
C938 C 0.89405 0.21439 0.16614 0.0
C939 C 0.93472 0.19768 0.20141 0.0
C940 C 0.94733 0.20203 0.22469 0.0
C941 C 0.90878 0.21891 0.1891 0.0
C942 C 0.93481 0.22796 0.23545 0.0
C943 C 0.91021 0.24942 0.22318 0.0
H944 H 0.9234 0.71212 0.67159 0.0
H945 H 0.79063 0.76297 0.65793 0.0
H946 H 0.82664 0.80241 0.68058 0.0
H947 H 0.89492 0.82197 0.705 0.0
H948 H 0.02727 0.77098 0.7191 0.0
H949 H 0.99272 0.73218 0.69532 0.0
C950 C 0.90245 0.73187 0.67355 0.0
C951 C 0.85444 0.73463 0.66308 0.0
C952 C 0.92336 0.75442 0.68661 0.0
C953 C 0.82792 0.76045 0.66556 0.0
C954 C 0.84834 0.78293 0.67862 0.0
C955 C 0.9161 0.80232 0.7029 0.0
C956 C 0.96344 0.79927 0.71385 0.0
C957 C 0.89586 0.78008 0.68933 0.0
C958 C 0.99091 0.77391 0.7107 0.0
C959 C 0.97103 0.75166 0.69722 0.0
H960 H 0.71136 0.7617 0.17463 0.0
H961 H 0.56704 0.79304 0.15069 0.0
H962 H 0.52193 0.75759 0.17461 0.0
H963 H 0.52393 0.71857 0.20315 0.0
H964 H 0.66893 0.6856 0.22494 0.0
H965 H 0.71343 0.72114 0.20149 0.0
C966 C 0.67002 0.76069 0.17469 0.0
C967 C 0.64243 0.7799 0.16107 0.0
C968 C 0.64456 0.74025 0.18832 0.0
C969 C 0.58895 0.77826 0.16097 0.0
C970 C 0.56324 0.75814 0.17471 0.0
C971 C 0.56526 0.71911 0.20271 0.0
C972 C 0.59307 0.70002 0.21646 0.0
C973 C 0.59068 0.73913 0.18857 0.0
C974 C 0.64658 0.70084 0.21546 0.0
C975 C 0.67211 0.72091 0.20172 0.0
H976 H 0.41232 0.76685 0.3593 0.0
H977 H 0.31055 0.79362 0.30538 0.0
H978 H 0.35088 0.76052 0.27841 0.0
H979 H 0.41396 0.72314 0.27035 0.0
H980 H 0.51435 0.69606 0.32491 0.0
H981 H 0.4757 0.73005 0.35119 0.0
C982 C 0.39867 0.76528 0.3417 0.0
C983 C 0.35842 0.78266 0.33442 0.0
C984 C 0.42189 0.74615 0.32629 0.0
C985 C 0.34182 0.78069 0.31141 0.0
C986 C 0.36473 0.76168 0.29598 0.0
C987 C 0.42755 0.7247 0.28795 0.0
C988 C 0.46686 0.70674 0.29552 0.0
C989 C 0.40478 0.74424 0.30324 0.0
C990 C 0.48403 0.70936 0.31845 0.0
C991 C 0.46187 0.72882 0.33362 0.0
H992 H 0.195 0.71897 0.81708 0.0
H993 H 0.13158 0.7493 0.88139 0.0
H994 H 0.08626 0.78667 0.86086 0.0
H995 H 0.06368 0.81061 0.82462 0.0
H996 H 0.12175 0.77776 0.76012 0.0
H997 H 0.16935 0.74141 0.78078 0.0
C998 C 0.17079 0.73346 0.82666 0.0
C999 C 0.16723 0.73123 0.85086 0.0
C1000 C 0.14374 0.75457 0.8147 0.0
C1001 C 0.13615 0.7507 0.86286 0.0
C1002 C 0.10975 0.77201 0.8511 0.0
C1003 C 0.08668 0.79549 0.81506 0.0
C1004 C 0.08958 0.79728 0.79084 0.0
C1005 C 0.11326 0.77416 0.82702 0.0
C1006 C 0.11936 0.7773 0.77878 0.0
C1007 C 0.14649 0.75635 0.79058 0.0
loop_
_geom_bond_atom_site_label_1
_geom_bond_atom_site_label_2
_geom_bond_distance
_geom_bond_site_symmetry_2
_ccdc_geom_bond_type
C0 C1 1.384 . S
C0 H13 0.947 . S
C0 C35 1.382 . S
C1 C0 1.384 . S
C1 C2 1.378 . S
C2 C1 1.378 . S
C2 C3 1.378 . S
C2 H14 0.952 . S
C3 C2 1.378 . S
C3 H15 0.950 . S
C3 C34 1.383 . S
H4 C23 0.947 . S
H5 C24 0.946 . S
H6 C26 0.953 . S
H7 C27 0.945 . S
H8 C29 0.952 . S
H9 C30 0.949 . S
H10 C32 0.950 . S
H11 C33 0.948 . S
H12 C35 0.951 . S
H13 C0 0.947 . S
H14 C2 0.952 . S
H15 C3 0.950 . S
N16 C19 1.382 . S
N16 C21 1.363 . S
N17 C19 1.371 . S
N17 C20 1.372 . S
N18 C20 1.361 . S
N18 C21 1.377 . S
C19 N16 1.382 . S
C19 N17 1.371 . S
C19 C22 1.480 . S
C20 N17 1.372 . S
C20 N18 1.361 . S
C20 C28 1.457 . S
C21 N16 1.363 . S
C21 N18 1.377 . S
C21 C34 1.479 . S
C22 C19 1.480 . S
C22 C23 1.383 . S
C22 C27 1.385 . S
C23 H4 0.947 . S
C23 C22 1.383 . S
C23 C24 1.388 . S
C24 H5 0.946 . S
C24 C23 1.388 . S
C24 C25 1.384 . S
C25 C24 1.384 . S
C25 C26 1.377 . S
C26 H6 0.953 . S
C26 C25 1.377 . S
C26 C27 1.369 . S
C27 H7 0.945 . S
C27 C22 1.385 . S
C27 C26 1.369 . S
C28 C20 1.457 . S
C28 C29 1.372 . S
C28 C33 1.364 . S
C29 H8 0.952 . S
C29 C28 1.372 . S
C29 C30 1.389 . S
C30 H9 0.949 . S
C30 C29 1.389 . S
C30 C31 1.387 . S
C31 C30 1.387 . S
C31 C32 1.372 . S
C32 H10 0.950 . S
C32 C31 1.372 . S
C32 C33 1.379 . S
C33 H11 0.948 . S
C33 C28 1.364 . S
C33 C32 1.379 . S
C34 C3 1.383 . S
C34 C21 1.479 . S
C34 C35 1.398 . S
C35 C0 1.382 . S
C35 H12 0.951 . S
C35 C34 1.398 . S
C36 C37 1.384 . S
C36 H49 0.947 . S
C36 C71 1.382 . S
C37 C36 1.384 . S
C37 C38 1.378 . S
C38 C37 1.378 . S
C38 C39 1.378 . S
C38 H50 0.952 . S
C39 C38 1.378 . S
C39 H51 0.950 . S
C39 C70 1.383 . S
H40 C59 0.947 . S
H41 C60 0.946 . S
H42 C62 0.953 . S
H43 C63 0.945 . S
H44 C65 0.952 . S
H45 C66 0.949 . S
H46 C68 0.950 . S
H47 C69 0.948 . S
H48 C71 0.951 . S
H49 C36 0.947 . S
H50 C38 0.952 . S
H51 C39 0.950 . S
N52 C55 1.382 . S
N52 C57 1.363 . S
N53 C55 1.371 . S
N53 C56 1.372 . S
N54 C56 1.361 . S
N54 C57 1.377 . S
C55 N52 1.382 . S
C55 N53 1.371 . S
C55 C58 1.480 . S
C56 N53 1.372 . S
C56 N54 1.361 . S
C56 C64 1.457 . S
C57 N52 1.363 . S
C57 N54 1.377 . S
C57 C70 1.479 . S
C58 C55 1.480 . S
C58 C59 1.383 . S
C58 C63 1.385 . S
C59 H40 0.947 . S
C59 C58 1.383 . S
C59 C60 1.388 . S
C60 H41 0.946 . S
C60 C59 1.388 . S
C60 C61 1.384 . S
C61 C60 1.384 . S
C61 C62 1.377 . S
C62 H42 0.953 . S
C62 C61 1.377 . S
C62 C63 1.369 . S
C63 H43 0.945 . S
C63 C58 1.385 . S
C63 C62 1.369 . S
C64 C56 1.457 . S
C64 C65 1.372 . S
C64 C69 1.364 . S
C65 H44 0.952 . S
C65 C64 1.372 . S
C65 C66 1.389 . S
C66 H45 0.949 . S
C66 C65 1.389 . S
C66 C67 1.387 . S
C67 C66 1.387 . S
C67 C68 1.372 . S
C68 H46 0.950 . S
C68 C67 1.372 . S
C68 C69 1.379 . S
C69 H47 0.948 . S
C69 C64 1.364 . S
C69 C68 1.379 . S
C70 C39 1.383 . S
C70 C57 1.479 . S
C70 C71 1.398 . S
C71 C36 1.382 . S
C71 H48 0.951 . S
C71 C70 1.398 . S
C72 C73 1.384 . S
C72 H85 0.947 . S
C72 C107 1.382 . S
C73 C72 1.384 . S
C73 C74 1.378 . S
C74 C73 1.378 . S
C74 C75 1.378 . S
C74 H86 0.952 . S
C75 C74 1.378 . S
C75 H87 0.950 . S
C75 C106 1.383 . S
H76 C95 0.947 . S
H77 C96 0.946 . S
H78 C98 0.953 . S
H79 C99 0.945 . S
H80 C101 0.952 . S
H81 C102 0.949 . S
H82 C104 0.950 . S
H83 C105 0.948 . S
H84 C107 0.951 . S
H85 C72 0.947 . S
H86 C74 0.952 . S
H87 C75 0.950 . S
N88 C91 1.382 . S
N88 C93 1.363 . S
N89 C91 1.371 . S
N89 C92 1.372 . S
N90 C92 1.361 . S
N90 C93 1.377 . S
C91 N88 1.382 . S
C91 N89 1.371 . S
C91 C94 1.480 . S
C92 N89 1.372 . S
C92 N90 1.361 . S
C92 C100 1.457 . S
C93 N88 1.363 . S
C93 N90 1.377 . S
C93 C106 1.479 . S
C94 C91 1.480 . S
C94 C95 1.383 . S
C94 C99 1.385 . S
C95 H76 0.947 . S
C95 C94 1.383 . S
C95 C96 1.388 . S
C96 H77 0.946 . S
C96 C95 1.388 . S
C96 C97 1.384 . S
C97 C96 1.384 . S
C97 C98 1.377 . S
C98 H78 0.953 . S
C98 C97 1.377 . S
C98 C99 1.369 . S
C99 H79 0.945 . S
C99 C94 1.385 . S
C99 C98 1.369 . S
C100 C92 1.457 . S
C100 C101 1.372 . S
C100 C105 1.364 . S
C101 H80 0.952 . S
C101 C100 1.372 . S
C101 C102 1.389 . S
C102 H81 0.949 . S
C102 C101 1.389 . S
C102 C103 1.387 . S
C103 C102 1.387 . S
C103 C104 1.372 . S
C104 H82 0.950 . S
C104 C103 1.372 . S
C104 C105 1.379 . S
C105 H83 0.948 . S
C105 C100 1.364 . S
C105 C104 1.379 . S
C106 C75 1.383 . S
C106 C93 1.479 . S
C106 C107 1.398 . S
C107 C72 1.382 . S
C107 H84 0.951 . S
C107 C106 1.398 . S
C108 C109 1.384 . S
C108 H121 0.947 . S
C108 C143 1.382 . S
C109 C108 1.384 . S
C109 C110 1.378 . S
C110 C109 1.378 . S
C110 C111 1.378 . S
C110 H122 0.952 . S
C111 C110 1.378 . S
C111 H123 0.950 . S
C111 C142 1.383 . S
H112 C131 0.947 . S
H113 C132 0.946 . S
H114 C134 0.953 . S
H115 C135 0.945 . S
H116 C137 0.952 . S
H117 C138 0.949 . S
H118 C140 0.950 . S
H119 C141 0.948 . S
H120 C143 0.951 . S
H121 C108 0.947 . S
H122 C110 0.952 . S
H123 C111 0.950 . S
N124 C127 1.382 . S
N124 C129 1.363 . S
N125 C127 1.371 . S
N125 C128 1.372 . S
N126 C128 1.361 . S
N126 C129 1.377 . S
C127 N124 1.382 . S
C127 N125 1.371 . S
C127 C130 1.480 . S
C128 N125 1.372 . S
C128 N126 1.361 . S
C128 C136 1.457 . S
C129 N124 1.363 . S
C129 N126 1.377 . S
C129 C142 1.479 . S
C130 C127 1.480 . S
C130 C131 1.383 . S
C130 C135 1.385 . S
C131 H112 0.947 . S
C131 C130 1.383 . S
C131 C132 1.388 . S
C132 H113 0.946 . S
C132 C131 1.388 . S
C132 C133 1.384 . S
C133 C132 1.384 . S
C133 C134 1.377 . S
C134 H114 0.953 . S
C134 C133 1.377 . S
C134 C135 1.369 . S
C135 H115 0.945 . S
C135 C130 1.385 . S
C135 C134 1.369 . S
C136 C128 1.457 . S
C136 C137 1.372 . S
C136 C141 1.364 . S
C137 H116 0.952 . S
C137 C136 1.372 . S
C137 C138 1.389 . S
C138 H117 0.949 . S
C138 C137 1.389 . S
C138 C139 1.387 . S
C139 C138 1.387 . S
C139 C140 1.372 . S
C140 H118 0.950 . S
C140 C139 1.372 . S
C140 C141 1.379 . S
C141 H119 0.948 . S
C141 C136 1.364 . S
C141 C140 1.379 . S
C142 C111 1.383 . S
C142 C129 1.479 . S
C142 C143 1.398 . S
C143 C108 1.382 . S
C143 H120 0.951 . S
C143 C142 1.398 . S
C144 C145 1.384 . S
C144 H157 0.947 . S
C144 C179 1.382 . S
C145 C144 1.384 . S
C145 C146 1.378 . S
C146 C145 1.378 . S
C146 C147 1.378 . S
C146 H158 0.952 . S
C147 C146 1.378 . S
C147 H159 0.950 . S
C147 C178 1.383 . S
H148 C167 0.947 . S
H149 C168 0.946 . S
H150 C170 0.953 . S
H151 C171 0.945 . S
H152 C173 0.952 . S
H153 C174 0.949 . S
H154 C176 0.950 . S
H155 C177 0.948 . S
H156 C179 0.951 . S
H157 C144 0.947 . S
H158 C146 0.952 . S
H159 C147 0.950 . S
N160 C163 1.382 . S
N160 C165 1.363 . S
N161 C163 1.371 . S
N161 C164 1.372 . S
N162 C164 1.361 . S
N162 C165 1.377 . S
C163 N160 1.382 . S
C163 N161 1.371 . S
C163 C166 1.480 . S
C164 N161 1.372 . S
C164 N162 1.361 . S
C164 C172 1.457 . S
C165 N160 1.363 . S
C165 N162 1.377 . S
C165 C178 1.479 . S
C166 C163 1.480 . S
C166 C167 1.383 . S
C166 C171 1.385 . S
C167 H148 0.947 . S
C167 C166 1.383 . S
C167 C168 1.388 . S
C168 H149 0.946 . S
C168 C167 1.388 . S
C168 C169 1.384 . S
C169 C168 1.384 . S
C169 C170 1.377 . S
C170 H150 0.953 . S
C170 C169 1.377 . S
C170 C171 1.369 . S
C171 H151 0.945 . S
C171 C166 1.385 . S
C171 C170 1.369 . S
C172 C164 1.457 . S
C172 C173 1.372 . S
C172 C177 1.364 . S
C173 H152 0.952 . S
C173 C172 1.372 . S
C173 C174 1.389 . S
C174 H153 0.949 . S
C174 C173 1.389 . S
C174 C175 1.387 . S
C175 C174 1.387 . S
C175 C176 1.372 . S
C176 H154 0.950 . S
C176 C175 1.372 . S
C176 C177 1.379 . S
C177 H155 0.948 . S
C177 C172 1.364 . S
C177 C176 1.379 . S
C178 C147 1.383 . S
C178 C165 1.479 . S
C178 C179 1.398 . S
C179 C144 1.382 . S
C179 H156 0.951 . S
C179 C178 1.398 . S
C180 C181 1.384 . S
C180 H193 0.947 . S
C180 C215 1.382 . S
C181 C180 1.384 . S
C181 C182 1.378 . S
C182 C181 1.378 . S
C182 C183 1.378 . S
C182 H194 0.952 . S
C183 C182 1.378 . S
C183 H195 0.950 . S
C183 C214 1.383 . S
H184 C203 0.947 . S
H185 C204 0.946 . S
H186 C206 0.953 . S
H187 C207 0.945 . S
H188 C209 0.952 . S
H189 C210 0.949 . S
H190 C212 0.950 . S
H191 C213 0.948 . S
H192 C215 0.951 . S
H193 C180 0.947 . S
H194 C182 0.952 . S
H195 C183 0.950 . S
N196 C199 1.382 . S
N196 C201 1.363 . S
N197 C199 1.371 . S
N197 C200 1.372 . S
N198 C200 1.361 . S
N198 C201 1.377 . S
C199 N196 1.382 . S
C199 N197 1.371 . S
C199 C202 1.480 . S
C200 N197 1.372 . S
C200 N198 1.361 . S
C200 C208 1.457 . S
C201 N196 1.363 . S
C201 N198 1.377 . S
C201 C214 1.479 . S
C202 C199 1.480 . S
C202 C203 1.383 . S
C202 C207 1.385 . S
C203 H184 0.947 . S
C203 C202 1.383 . S
C203 C204 1.388 . S
C204 H185 0.946 . S
C204 C203 1.388 . S
C204 C205 1.384 . S
C205 C204 1.384 . S
C205 C206 1.377 . S
C206 H186 0.953 . S
C206 C205 1.377 . S
C206 C207 1.369 . S
C207 H187 0.945 . S
C207 C202 1.385 . S
C207 C206 1.369 . S
C208 C200 1.457 . S
C208 C209 1.372 . S
C208 C213 1.364 . S
C209 H188 0.952 . S
C209 C208 1.372 . S
C209 C210 1.389 . S
C210 H189 0.949 . S
C210 C209 1.389 . S
C210 C211 1.387 . S
C211 C210 1.387 . S
C211 C212 1.372 . S
C212 H190 0.950 . S
C212 C211 1.372 . S
C212 C213 1.379 . S
C213 H191 0.948 . S
C213 C208 1.364 . S
C213 C212 1.379 . S
C214 C183 1.383 . S
C214 C201 1.479 . S
C214 C215 1.398 . S
C215 C180 1.382 . S
C215 H192 0.951 . S
C215 C214 1.398 . S
C216 C217 1.384 . S
C216 H229 0.947 . S
C216 C251 1.382 . S
C217 C216 1.384 . S
C217 C218 1.378 . S
C218 C217 1.378 . S
C218 C219 1.378 . S
C218 H230 0.952 . S
C219 C218 1.378 . S
C219 H231 0.950 . S
C219 C250 1.383 . S
H220 C239 0.947 . S
H221 C240 0.946 . S
H222 C242 0.953 . S
H223 C243 0.945 . S
H224 C245 0.952 . S
H225 C246 0.949 . S
H226 C248 0.950 . S
H227 C249 0.948 . S
H228 C251 0.951 . S
H229 C216 0.947 . S
H230 C218 0.952 . S
H231 C219 0.950 . S
N232 C235 1.382 . S
N232 C237 1.363 . S
N233 C235 1.371 . S
N233 C236 1.372 . S
N234 C236 1.361 . S
N234 C237 1.377 . S
C235 N232 1.382 . S
C235 N233 1.371 . S
C235 C238 1.480 . S
C236 N233 1.372 . S
C236 N234 1.361 . S
C236 C244 1.457 . S
C237 N232 1.363 . S
C237 N234 1.377 . S
C237 C250 1.479 . S
C238 C235 1.480 . S
C238 C239 1.383 . S
C238 C243 1.385 . S
C239 H220 0.947 . S
C239 C238 1.383 . S
C239 C240 1.388 . S
C240 H221 0.946 . S
C240 C239 1.388 . S
C240 C241 1.384 . S
C241 C240 1.384 . S
C241 C242 1.377 . S
C242 H222 0.953 . S
C242 C241 1.377 . S
C242 C243 1.369 . S
C243 H223 0.945 . S
C243 C238 1.385 . S
C243 C242 1.369 . S
C244 C236 1.457 . S
C244 C245 1.372 . S
C244 C249 1.364 . S
C245 H224 0.952 . S
C245 C244 1.372 . S
C245 C246 1.389 . S
C246 H225 0.949 . S
C246 C245 1.389 . S
C246 C247 1.387 . S
C247 C246 1.387 . S
C247 C248 1.372 . S
C248 H226 0.950 . S
C248 C247 1.372 . S
C248 C249 1.379 . S
C249 H227 0.948 . S
C249 C244 1.364 . S
C249 C248 1.379 . S
C250 C219 1.383 . S
C250 C237 1.479 . S
C250 C251 1.398 . S
C251 C216 1.382 . S
C251 H228 0.951 . S
C251 C250 1.398 . S
C252 C253 1.384 . S
C252 H265 0.947 . S
C252 C287 1.382 . S
C253 C252 1.384 . S
C253 C254 1.378 . S
C254 C253 1.378 . S
C254 C255 1.378 . S
C254 H266 0.952 . S
C255 C254 1.378 . S
C255 H267 0.950 . S
C255 C286 1.383 . S
H256 C275 0.947 . S
H257 C276 0.946 . S
H258 C278 0.953 . S
H259 C279 0.945 . S
H260 C281 0.952 . S
H261 C282 0.949 . S
H262 C284 0.950 . S
H263 C285 0.948 . S
H264 C287 0.951 . S
H265 C252 0.947 . S
H266 C254 0.952 . S
H267 C255 0.950 . S
N268 C271 1.382 . S
N268 C273 1.363 . S
N269 C271 1.371 . S
N269 C272 1.372 . S
N270 C272 1.361 . S
N270 C273 1.377 . S
C271 N268 1.382 . S
C271 N269 1.371 . S
C271 C274 1.480 . S
C272 N269 1.372 . S
C272 N270 1.361 . S
C272 C280 1.457 . S
C273 N268 1.363 . S
C273 N270 1.377 . S
C273 C286 1.479 . S
C274 C271 1.480 . S
C274 C275 1.383 . S
C274 C279 1.385 . S
C275 H256 0.947 . S
C275 C274 1.383 . S
C275 C276 1.388 . S
C276 H257 0.946 . S
C276 C275 1.388 . S
C276 C277 1.384 . S
C277 C276 1.384 . S
C277 C278 1.377 . S
C278 H258 0.953 . S
C278 C277 1.377 . S
C278 C279 1.369 . S
C279 H259 0.945 . S
C279 C274 1.385 . S
C279 C278 1.369 . S
C280 C272 1.457 . S
C280 C281 1.372 . S
C280 C285 1.364 . S
C281 H260 0.952 . S
C281 C280 1.372 . S
C281 C282 1.389 . S
C282 H261 0.949 . S
C282 C281 1.389 . S
C282 C283 1.387 . S
C283 C282 1.387 . S
C283 C284 1.372 . S
C284 H262 0.950 . S
C284 C283 1.372 . S
C284 C285 1.379 . S
C285 H263 0.948 . S
C285 C280 1.364 . S
C285 C284 1.379 . S
C286 C255 1.383 . S
C286 C273 1.479 . S
C286 C287 1.398 . S
C287 C252 1.382 . S
C287 H264 0.951 . S
C287 C286 1.398 . S
C288 C290 1.422 . S
C288 C292 1.415 . S
C288 N294 1.369 . S
C289 C290 1.421 . S
C289 C291 1.417 . S
C289 C301 1.422 . S
C290 C288 1.422 . S
C290 C289 1.421 . S
C290 N300 1.359 . S
C291 C289 1.417 . S
C291 C293 1.329 . S
C291 H310 0.930 . S
C292 C288 1.415 . S
C292 C293 1.437 . S
C292 C296 1.413 . S
C293 C291 1.329 . S
C293 C292 1.437 . S
C293 H315 0.929 . S
N294 C288 1.369 . S
N294 C295 1.338 . S
N294 Gd299 2.622 . S
C295 N294 1.338 . S
C295 C297 1.378 . S
C295 H307 0.929 . S
C296 C292 1.413 . S
C296 C297 1.348 . S
C296 H312 0.931 . S
C297 C295 1.378 . S
C297 C296 1.348 . S
C297 H313 0.930 . S
Gd298 N318 2.622 . S
Gd298 N325 2.570 . S
Gd298 O332 2.353 . S
Gd298 O333 2.468 . S
Gd298 O334 2.427 . S
Gd298 O336 2.388 . S
Gd298 O337 2.386 . S
Gd298 O341 2.307 . S
Gd298 C351 2.805 . S
Gd299 N294 2.622 . S
Gd299 N300 2.570 . S
Gd299 O331 2.386 . S
Gd299 O335 2.307 1_655 S
Gd299 O338 2.353 1_655 S
Gd299 O339 2.468 . S
Gd299 O340 2.427 . S
Gd299 O342 2.388 . S
Gd299 C363 2.805 . S
N300 C290 1.359 . S
N300 Gd299 2.570 . S
N300 C302 1.343 . S
C301 C289 1.422 . S
C301 C303 1.321 . S
C301 H309 0.931 . S
C302 N300 1.343 . S
C302 C303 1.390 . S
C302 H304 0.931 . S
C303 C301 1.321 . S
C303 C302 1.390 . S
C303 H305 0.930 . S
H304 C302 0.931 . S
H305 C303 0.930 . S
H306 C329 0.931 . S
H307 C295 0.929 . S
H308 C330 0.930 . S
H309 C301 0.931 . S
H310 C291 0.930 . S
H311 C320 0.929 . S
H312 C296 0.931 . S
H313 C297 0.930 . S
H314 C352 0.930 . S
H315 C293 0.929 . S
H316 C321 0.931 . S
H317 C322 0.930 . S
N318 Gd298 2.622 . S
N318 C319 1.369 . S
N318 C320 1.338 . S
C319 N318 1.369 . S
C319 C323 1.415 . S
C319 C326 1.422 . S
C320 H311 0.929 . S
C320 N318 1.338 . S
C320 C322 1.378 . S
C321 H316 0.931 . S
C321 C322 1.348 . S
C321 C323 1.413 . S
C322 H317 0.930 . S
C322 C320 1.378 . S
C322 C321 1.348 . S
C323 C319 1.415 . S
C323 C321 1.413 . S
C323 C353 1.437 . S
H324 C353 0.929 . S
N325 Gd298 2.570 . S
N325 C326 1.359 . S
N325 C329 1.343 . S
C326 C319 1.422 . S
C326 N325 1.359 . S
C326 C328 1.421 . S
C327 C328 1.422 . S
C327 C330 1.321 . S
C327 H354 0.931 . S
C328 C326 1.421 . S
C328 C327 1.422 . S
C328 C352 1.417 . S
C329 H306 0.931 . S
C329 N325 1.343 . S
C329 C330 1.390 . S
C330 H308 0.930 . S
C330 C327 1.321 . S
C330 C329 1.390 . S
O331 Gd299 2.386 . S
O331 C343 1.265 . S
O332 Gd298 2.353 . S
O332 C343 1.242 1_455 S
O333 Gd298 2.468 . S
O333 C351 1.263 . S
O334 Gd298 2.427 . S
O334 C351 1.252 . S
O335 Gd299 2.307 1_455 S
O335 C344 1.261 . S
O336 Gd298 2.388 . S
O336 C344 1.252 . S
O337 Gd298 2.386 . S
O337 C355 1.265 . S
O338 Gd299 2.353 1_455 S
O338 C355 1.242 . S
O339 Gd299 2.468 . S
O339 C363 1.263 . S
O340 Gd299 2.427 . S
O340 C363 1.252 . S
O341 Gd298 2.307 . S
O341 C356 1.261 1_455 S
O342 Gd299 2.388 . S
O342 C356 1.252 . S
C343 O331 1.265 . S
C343 O332 1.242 1_655 S
C344 O335 1.261 . S
C344 O336 1.252 . S
C345 C348 1.394 . S
C345 C350 1.370 . S
C345 C351 1.500 . S
C346 C349 1.383 . S
C346 C350 1.395 . S
C347 C348 1.396 . S
C347 C349 1.365 . S
C347 H364 0.929 . S
C348 C345 1.394 . S
C348 C347 1.396 . S
C348 H365 0.930 . S
C349 C346 1.383 . S
C349 C347 1.365 . S
C349 H366 0.931 . S
C350 C345 1.370 . S
C350 C346 1.395 . S
C350 H367 0.930 . S
C351 Gd298 2.805 . S
C351 O333 1.263 . S
C351 O334 1.252 . S
C351 C345 1.500 . S
C352 H314 0.930 . S
C352 C328 1.417 . S
C352 C353 1.329 . S
C353 C323 1.437 . S
C353 H324 0.929 . S
C353 C352 1.329 . S
H354 C327 0.931 . S
C355 O337 1.265 . S
C355 O338 1.242 . S
C356 O341 1.261 1_655 S
C356 O342 1.252 . S
C357 C360 1.394 . S
C357 C362 1.370 . S
C357 C363 1.500 . S
C358 C361 1.383 . S
C358 C362 1.395 . S
C359 C360 1.396 . S
C359 C361 1.365 . S
C359 H368 0.929 . S
C360 C357 1.394 . S
C360 C359 1.396 . S
C360 H369 0.930 . S
C361 C358 1.383 . S
C361 C359 1.365 . S
C361 H370 0.931 . S
C362 C357 1.370 . S
C362 C358 1.395 . S
C362 H371 0.930 . S
C363 Gd299 2.805 . S
C363 O339 1.263 . S
C363 O340 1.252 . S
C363 C357 1.500 . S
H364 C347 0.929 . S
H365 C348 0.930 . S
H366 C349 0.931 . S
H367 C350 0.930 . S
H368 C359 0.929 . S
H369 C360 0.930 . S
H370 C361 0.931 . S
H371 C362 0.930 . S
C372 C374 1.422 . S
C372 C376 1.415 . S
C372 N378 1.369 . S
C373 C374 1.421 . S
C373 C375 1.417 . S
C373 C385 1.422 . S
C374 C372 1.422 . S
C374 C373 1.421 . S
C374 N384 1.359 . S
C375 C373 1.417 . S
C375 C377 1.329 . S
C375 H394 0.930 . S
C376 C372 1.415 . S
C376 C377 1.437 . S
C376 C380 1.413 . S
C377 C375 1.329 . S
C377 C376 1.437 . S
C377 H399 0.929 . S
N378 C372 1.369 . S
N378 C379 1.338 . S
N378 Gd383 2.622 . S
C379 N378 1.338 . S
C379 C381 1.378 . S
C379 H391 0.929 . S
C380 C376 1.413 . S
C380 C381 1.348 . S
C380 H396 0.931 . S
C381 C379 1.378 . S
C381 C380 1.348 . S
C381 H397 0.930 . S
Gd382 N402 2.622 . S
Gd382 N409 2.570 . S
Gd382 O416 2.353 . S
Gd382 O417 2.468 . S
Gd382 O418 2.427 . S
Gd382 O420 2.388 . S
Gd382 O421 2.386 . S
Gd382 O425 2.307 . S
Gd382 C435 2.805 . S
Gd383 N378 2.622 . S
Gd383 N384 2.570 . S
Gd383 O415 2.386 . S
Gd383 O419 2.307 . S
Gd383 O422 2.353 . S
Gd383 O423 2.468 . S
Gd383 O424 2.427 . S
Gd383 O426 2.388 . S
Gd383 C447 2.805 . S
N384 C374 1.359 . S
N384 Gd383 2.570 . S
N384 C386 1.343 . S
C385 C373 1.422 . S
C385 C387 1.321 . S
C385 H393 0.931 . S
C386 N384 1.343 . S
C386 C387 1.390 . S
C386 H388 0.931 . S
C387 C385 1.321 . S
C387 C386 1.390 . S
C387 H389 0.930 . S
H388 C386 0.931 . S
H389 C387 0.930 . S
H390 C413 0.931 . S
H391 C379 0.929 . S
H392 C414 0.930 . S
H393 C385 0.931 . S
H394 C375 0.930 . S
H395 C404 0.929 . S
H396 C380 0.931 . S
H397 C381 0.930 . S
H398 C436 0.930 . S
H399 C377 0.929 . S
H400 C405 0.931 . S
H401 C406 0.930 . S
N402 Gd382 2.622 . S
N402 C403 1.369 . S
N402 C404 1.338 . S
C403 N402 1.369 . S
C403 C407 1.415 . S
C403 C410 1.422 . S
C404 H395 0.929 . S
C404 N402 1.338 . S
C404 C406 1.378 . S
C405 H400 0.931 . S
C405 C406 1.348 . S
C405 C407 1.413 . S
C406 H401 0.930 . S
C406 C404 1.378 . S
C406 C405 1.348 . S
C407 C403 1.415 . S
C407 C405 1.413 . S
C407 C437 1.437 . S
H408 C437 0.929 . S
N409 Gd382 2.570 . S
N409 C410 1.359 . S
N409 C413 1.343 . S
C410 C403 1.422 . S
C410 N409 1.359 . S
C410 C412 1.421 . S
C411 C412 1.422 . S
C411 C414 1.321 . S
C411 H438 0.931 . S
C412 C410 1.421 . S
C412 C411 1.422 . S
C412 C436 1.417 . S
C413 H390 0.931 . S
C413 N409 1.343 . S
C413 C414 1.390 . S
C414 H392 0.930 . S
C414 C411 1.321 . S
C414 C413 1.390 . S
O415 Gd383 2.386 . S
O415 C427 1.265 . S
O416 Gd382 2.353 . S
O416 C427 1.242 . S
O417 Gd382 2.468 . S
O417 C435 1.263 . S
O418 Gd382 2.427 . S
O418 C435 1.252 . S
O419 Gd383 2.307 . S
O419 C428 1.261 . S
O420 Gd382 2.388 . S
O420 C428 1.252 . S
O421 Gd382 2.386 . S
O421 C439 1.265 . S
O422 Gd383 2.353 . S
O422 C439 1.242 . S
O423 Gd383 2.468 . S
O423 C447 1.263 . S
O424 Gd383 2.427 . S
O424 C447 1.252 . S
O425 Gd382 2.307 . S
O425 C440 1.261 . S
O426 Gd383 2.388 . S
O426 C440 1.252 . S
C427 O415 1.265 . S
C427 O416 1.242 . S
C428 O419 1.261 . S
C428 O420 1.252 . S
C429 C432 1.394 . S
C429 C434 1.370 . S
C429 C435 1.500 . S
C430 C433 1.383 . S
C430 C434 1.395 . S
C431 C432 1.396 . S
C431 C433 1.365 . S
C431 H448 0.929 . S
C432 C429 1.394 . S
C432 C431 1.396 . S
C432 H449 0.930 . S
C433 C430 1.383 . S
C433 C431 1.365 . S
C433 H450 0.931 . S
C434 C429 1.370 . S
C434 C430 1.395 . S
C434 H451 0.930 . S
C435 Gd382 2.805 . S
C435 O417 1.263 . S
C435 O418 1.252 . S
C435 C429 1.500 . S
C436 H398 0.930 . S
C436 C412 1.417 . S
C436 C437 1.329 . S
C437 C407 1.437 . S
C437 H408 0.929 . S
C437 C436 1.329 . S
H438 C411 0.931 . S
C439 O421 1.265 . S
C439 O422 1.242 . S
C440 O425 1.261 . S
C440 O426 1.252 . S
C441 C444 1.394 . S
C441 C446 1.370 . S
C441 C447 1.500 . S
C442 C445 1.383 . S
C442 C446 1.395 . S
C443 C444 1.396 . S
C443 C445 1.365 . S
C443 H452 0.929 . S
C444 C441 1.394 . S
C444 C443 1.396 . S
C444 H453 0.930 . S
C445 C442 1.383 . S
C445 C443 1.365 . S
C445 H454 0.931 . S
C446 C441 1.370 . S
C446 C442 1.395 . S
C446 H455 0.930 . S
C447 Gd383 2.805 . S
C447 O423 1.263 . S
C447 O424 1.252 . S
C447 C441 1.500 . S
H448 C431 0.929 . S
H449 C432 0.930 . S
H450 C433 0.931 . S
H451 C434 0.930 . S
H452 C443 0.929 . S
H453 C444 0.930 . S
H454 C445 0.931 . S
H455 C446 0.930 . S
C456 C458 1.422 . S
C456 C460 1.415 . S
C456 N462 1.369 . S
C457 C458 1.421 . S
C457 C459 1.417 . S
C457 C469 1.422 . S
C458 C456 1.422 . S
C458 C457 1.421 . S
C458 N468 1.359 . S
C459 C457 1.417 . S
C459 C461 1.329 . S
C459 H478 0.930 . S
C460 C456 1.415 . S
C460 C461 1.437 . S
C460 C464 1.413 . S
C461 C459 1.329 . S
C461 C460 1.437 . S
C461 H483 0.929 . S
N462 C456 1.369 . S
N462 C463 1.338 . S
N462 Gd467 2.622 . S
C463 N462 1.338 . S
C463 C465 1.378 . S
C463 H475 0.929 . S
C464 C460 1.413 . S
C464 C465 1.348 . S
C464 H480 0.931 . S
C465 C463 1.378 . S
C465 C464 1.348 . S
C465 H481 0.930 . S
Gd466 N486 2.622 . S
Gd466 N493 2.570 . S
Gd466 O500 2.353 . S
Gd466 O501 2.468 . S
Gd466 O502 2.427 . S
Gd466 O504 2.388 . S
Gd466 O505 2.386 . S
Gd466 O509 2.307 . S
Gd466 C519 2.805 . S
Gd467 N462 2.622 . S
Gd467 N468 2.570 . S
Gd467 O499 2.386 . S
Gd467 O503 2.307 1_655 S
Gd467 O506 2.353 1_655 S
Gd467 O507 2.468 . S
Gd467 O508 2.427 . S
Gd467 O510 2.388 . S
Gd467 C531 2.805 . S
N468 C458 1.359 . S
N468 Gd467 2.570 . S
N468 C470 1.343 . S
C469 C457 1.422 . S
C469 C471 1.321 . S
C469 H477 0.931 . S
C470 N468 1.343 . S
C470 C471 1.390 . S
C470 H472 0.931 . S
C471 C469 1.321 . S
C471 C470 1.390 . S
C471 H473 0.930 . S
H472 C470 0.931 . S
H473 C471 0.930 . S
H474 C497 0.931 . S
H475 C463 0.929 . S
H476 C498 0.930 . S
H477 C469 0.931 . S
H478 C459 0.930 . S
H479 C488 0.929 . S
H480 C464 0.931 . S
H481 C465 0.930 . S
H482 C520 0.930 . S
H483 C461 0.929 . S
H484 C489 0.931 . S
H485 C490 0.930 . S
N486 Gd466 2.622 . S
N486 C487 1.369 . S
N486 C488 1.338 . S
C487 N486 1.369 . S
C487 C491 1.415 . S
C487 C494 1.422 . S
C488 H479 0.929 . S
C488 N486 1.338 . S
C488 C490 1.378 . S
C489 H484 0.931 . S
C489 C490 1.348 . S
C489 C491 1.413 . S
C490 H485 0.930 . S
C490 C488 1.378 . S
C490 C489 1.348 . S
C491 C487 1.415 . S
C491 C489 1.413 . S
C491 C521 1.437 . S
H492 C521 0.929 . S
N493 Gd466 2.570 . S
N493 C494 1.359 . S
N493 C497 1.343 . S
C494 C487 1.422 . S
C494 N493 1.359 . S
C494 C496 1.421 . S
C495 C496 1.422 . S
C495 C498 1.321 . S
C495 H522 0.931 . S
C496 C494 1.421 . S
C496 C495 1.422 . S
C496 C520 1.417 . S
C497 H474 0.931 . S
C497 N493 1.343 . S
C497 C498 1.390 . S
C498 H476 0.930 . S
C498 C495 1.321 . S
C498 C497 1.390 . S
O499 Gd467 2.386 . S
O499 C511 1.265 . S
O500 Gd466 2.353 . S
O500 C511 1.242 1_455 S
O501 Gd466 2.468 . S
O501 C519 1.263 . S
O502 Gd466 2.427 . S
O502 C519 1.252 . S
O503 Gd467 2.307 1_455 S
O503 C512 1.261 . S
O504 Gd466 2.388 . S
O504 C512 1.252 . S
O505 Gd466 2.386 . S
O505 C523 1.265 . S
O506 Gd467 2.353 1_455 S
O506 C523 1.242 . S
O507 Gd467 2.468 . S
O507 C531 1.263 . S
O508 Gd467 2.427 . S
O508 C531 1.252 . S
O509 Gd466 2.307 . S
O509 C524 1.261 1_455 S
O510 Gd467 2.388 . S
O510 C524 1.252 . S
C511 O499 1.265 . S
C511 O500 1.242 1_655 S
C512 O503 1.261 . S
C512 O504 1.252 . S
C513 C516 1.394 . S
C513 C518 1.370 . S
C513 C519 1.500 . S
C514 C517 1.383 . S
C514 C518 1.395 . S
C515 C516 1.396 . S
C515 C517 1.365 . S
C515 H532 0.929 . S
C516 C513 1.394 . S
C516 C515 1.396 . S
C516 H533 0.930 . S
C517 C514 1.383 . S
C517 C515 1.365 . S
C517 H534 0.931 . S
C518 C513 1.370 . S
C518 C514 1.395 . S
C518 H535 0.930 . S
C519 Gd466 2.805 . S
C519 O501 1.263 . S
C519 O502 1.252 . S
C519 C513 1.500 . S
C520 H482 0.930 . S
C520 C496 1.417 . S
C520 C521 1.329 . S
C521 C491 1.437 . S
C521 H492 0.929 . S
C521 C520 1.329 . S
H522 C495 0.931 . S
C523 O505 1.265 . S
C523 O506 1.242 . S
C524 O509 1.261 1_655 S
C524 O510 1.252 . S
C525 C528 1.394 . S
C525 C530 1.370 . S
C525 C531 1.500 . S
C526 C529 1.383 . S
C526 C530 1.395 . S
C527 C528 1.396 . S
C527 C529 1.365 . S
C527 H536 0.929 . S
C528 C525 1.394 . S
C528 C527 1.396 . S
C528 H537 0.930 . S
C529 C526 1.383 . S
C529 C527 1.365 . S
C529 H538 0.931 . S
C530 C525 1.370 . S
C530 C526 1.395 . S
C530 H539 0.930 . S
C531 Gd467 2.805 . S
C531 O507 1.263 . S
C531 O508 1.252 . S
C531 C525 1.500 . S
H532 C515 0.929 . S
H533 C516 0.930 . S
H534 C517 0.931 . S
H535 C518 0.930 . S
H536 C527 0.929 . S
H537 C528 0.930 . S
H538 C529 0.931 . S
H539 C530 0.930 . S
C540 C542 1.422 . S
C540 C544 1.415 . S
C540 N546 1.369 . S
C541 C542 1.421 . S
C541 C543 1.417 . S
C541 C553 1.422 . S
C542 C540 1.422 . S
C542 C541 1.421 . S
C542 N552 1.359 . S
C543 C541 1.417 . S
C543 C545 1.329 . S
C543 H562 0.930 . S
C544 C540 1.415 . S
C544 C545 1.437 . S
C544 C548 1.413 . S
C545 C543 1.329 . S
C545 C544 1.437 . S
C545 H567 0.929 . S
N546 C540 1.369 . S
N546 C547 1.338 . S
N546 Gd551 2.622 . S
C547 N546 1.338 . S
C547 C549 1.378 . S
C547 H559 0.929 . S
C548 C544 1.413 . S
C548 C549 1.348 . S
C548 H564 0.931 . S
C549 C547 1.378 . S
C549 C548 1.348 . S
C549 H565 0.930 . S
Gd550 N570 2.622 . S
Gd550 N577 2.570 . S
Gd550 O584 2.353 . S
Gd550 O585 2.468 . S
Gd550 O586 2.427 . S
Gd550 O588 2.388 . S
Gd550 O589 2.386 . S
Gd550 O593 2.307 . S
Gd550 C603 2.805 . S
Gd551 N546 2.622 . S
Gd551 N552 2.570 . S
Gd551 O583 2.386 . S
Gd551 O587 2.307 . S
Gd551 O590 2.353 . S
Gd551 O591 2.468 . S
Gd551 O592 2.427 . S
Gd551 O594 2.388 . S
Gd551 C615 2.805 . S
N552 C542 1.359 . S
N552 Gd551 2.570 . S
N552 C554 1.343 . S
C553 C541 1.422 . S
C553 C555 1.321 . S
C553 H561 0.931 . S
C554 N552 1.343 . S
C554 C555 1.390 . S
C554 H556 0.931 . S
C555 C553 1.321 . S
C555 C554 1.390 . S
C555 H557 0.930 . S
H556 C554 0.931 . S
H557 C555 0.930 . S
H558 C581 0.931 . S
H559 C547 0.929 . S
H560 C582 0.930 . S
H561 C553 0.931 . S
H562 C543 0.930 . S
H563 C572 0.929 . S
H564 C548 0.931 . S
H565 C549 0.930 . S
H566 C604 0.930 . S
H567 C545 0.929 . S
H568 C573 0.931 . S
H569 C574 0.930 . S
N570 Gd550 2.622 . S
N570 C571 1.369 . S
N570 C572 1.338 . S
C571 N570 1.369 . S
C571 C575 1.415 . S
C571 C578 1.422 . S
C572 H563 0.929 . S
C572 N570 1.338 . S
C572 C574 1.378 . S
C573 H568 0.931 . S
C573 C574 1.348 . S
C573 C575 1.413 . S
C574 H569 0.930 . S
C574 C572 1.378 . S
C574 C573 1.348 . S
C575 C571 1.415 . S
C575 C573 1.413 . S
C575 C605 1.437 . S
H576 C605 0.929 . S
N577 Gd550 2.570 . S
N577 C578 1.359 . S
N577 C581 1.343 . S
C578 C571 1.422 . S
C578 N577 1.359 . S
C578 C580 1.421 . S
C579 C580 1.422 . S
C579 C582 1.321 . S
C579 H606 0.931 . S
C580 C578 1.421 . S
C580 C579 1.422 . S
C580 C604 1.417 . S
C581 H558 0.931 . S
C581 N577 1.343 . S
C581 C582 1.390 . S
C582 H560 0.930 . S
C582 C579 1.321 . S
C582 C581 1.390 . S
O583 Gd551 2.386 . S
O583 C595 1.265 . S
O584 Gd550 2.353 . S
O584 C595 1.242 . S
O585 Gd550 2.468 . S
O585 C603 1.263 . S
O586 Gd550 2.427 . S
O586 C603 1.252 . S
O587 Gd551 2.307 . S
O587 C596 1.261 . S
O588 Gd550 2.388 . S
O588 C596 1.252 . S
O589 Gd550 2.386 . S
O589 C607 1.265 . S
O590 Gd551 2.353 . S
O590 C607 1.242 . S
O591 Gd551 2.468 . S
O591 C615 1.263 . S
O592 Gd551 2.427 . S
O592 C615 1.252 . S
O593 Gd550 2.307 . S
O593 C608 1.261 . S
O594 Gd551 2.388 . S
O594 C608 1.252 . S
C595 O583 1.265 . S
C595 O584 1.242 . S
C596 O587 1.261 . S
C596 O588 1.252 . S
C597 C600 1.394 . S
C597 C602 1.370 . S
C597 C603 1.500 . S
C598 C601 1.383 . S
C598 C602 1.395 . S
C599 C600 1.396 . S
C599 C601 1.365 . S
C599 H616 0.929 . S
C600 C597 1.394 . S
C600 C599 1.396 . S
C600 H617 0.930 . S
C601 C598 1.383 . S
C601 C599 1.365 . S
C601 H618 0.931 . S
C602 C597 1.370 . S
C602 C598 1.395 . S
C602 H619 0.930 . S
C603 Gd550 2.805 . S
C603 O585 1.263 . S
C603 O586 1.252 . S
C603 C597 1.500 . S
C604 H566 0.930 . S
C604 C580 1.417 . S
C604 C605 1.329 . S
C605 C575 1.437 . S
C605 H576 0.929 . S
C605 C604 1.329 . S
H606 C579 0.931 . S
C607 O589 1.265 . S
C607 O590 1.242 . S
C608 O593 1.261 . S
C608 O594 1.252 . S
C609 C612 1.394 . S
C609 C614 1.370 . S
C609 C615 1.500 . S
C610 C613 1.383 . S
C610 C614 1.395 . S
C611 C612 1.396 . S
C611 C613 1.365 . S
C611 H620 0.929 . S
C612 C609 1.394 . S
C612 C611 1.396 . S
C612 H621 0.930 . S
C613 C610 1.383 . S
C613 C611 1.365 . S
C613 H622 0.931 . S
C614 C609 1.370 . S
C614 C610 1.395 . S
C614 H623 0.930 . S
C615 Gd551 2.805 . S
C615 O591 1.263 . S
C615 O592 1.252 . S
C615 C609 1.500 . S
H616 C599 0.929 . S
H617 C600 0.930 . S
H618 C601 0.931 . S
H619 C602 0.930 . S
H620 C611 0.929 . S
H621 C612 0.930 . S
H622 C613 0.931 . S
H623 C614 0.930 . S
H624 C630 0.930 1_565 S
H625 C633 0.930 . S
H626 C634 0.930 . S
H627 C635 0.930 . S
H628 C638 0.930 1_655 S
H629 C639 0.930 . S
C630 H624 0.930 1_545 S
C630 C631 1.355 . S
C630 C632 1.415 . S
C631 C630 1.355 . S
C631 C633 1.419 . S
C632 C630 1.415 . S
C632 C637 1.425 . S
C632 C639 1.409 . S
C633 H625 0.930 . S
C633 C631 1.419 . S
C633 C634 1.362 . S
C634 H626 0.930 . S
C634 C633 1.362 . S
C634 C637 1.409 . S
C635 H627 0.930 . S
C635 C636 1.355 . S
C635 C637 1.415 . S
C636 C635 1.355 . S
C636 C638 1.419 . S
C637 C632 1.425 . S
C637 C634 1.409 . S
C637 C635 1.415 . S
C638 H628 0.930 1_455 S
C638 C636 1.419 . S
C638 C639 1.362 . S
C639 H629 0.930 . S
C639 C632 1.409 . S
C639 C638 1.362 . S
H640 C646 0.930 . S
H641 C649 0.930 . S
H642 C650 0.930 . S
H643 C651 0.930 . S
H644 C654 0.930 . S
H645 C655 0.930 . S
C646 H640 0.930 . S
C646 C647 1.355 . S
C646 C648 1.415 . S
C647 C646 1.355 . S
C647 C649 1.419 . S
C648 C646 1.415 . S
C648 C653 1.425 . S
C648 C655 1.409 . S
C649 H641 0.930 . S
C649 C647 1.419 . S
C649 C650 1.362 . S
C650 H642 0.930 . S
C650 C649 1.362 . S
C650 C653 1.409 . S
C651 H643 0.930 . S
C651 C652 1.355 . S
C651 C653 1.415 . S
C652 C651 1.355 . S
C652 C654 1.419 . S
C653 C648 1.425 . S
C653 C650 1.409 . S
C653 C651 1.415 . S
C654 H644 0.930 . S
C654 C652 1.419 . S
C654 C655 1.362 . S
C655 H645 0.930 . S
C655 C648 1.409 . S
C655 C654 1.362 . S
H656 C662 0.930 . S
H657 C665 0.930 . S
H658 C666 0.930 . S
H659 C667 0.930 . S
H660 C670 0.930 . S
H661 C671 0.930 . S
C662 H656 0.930 . S
C662 C663 1.355 . S
C662 C664 1.415 . S
C663 C662 1.355 . S
C663 C665 1.419 . S
C664 C662 1.415 . S
C664 C669 1.425 . S
C664 C671 1.409 . S
C665 H657 0.930 . S
C665 C663 1.419 . S
C665 C666 1.362 . S
C666 H658 0.930 . S
C666 C665 1.362 . S
C666 C669 1.409 . S
C667 H659 0.930 . S
C667 C668 1.355 . S
C667 C669 1.415 . S
C668 C667 1.355 . S
C668 C670 1.419 . S
C669 C664 1.425 . S
C669 C666 1.409 . S
C669 C667 1.415 . S
C670 H660 0.930 . S
C670 C668 1.419 . S
C670 C671 1.362 . S
C671 H661 0.930 . S
C671 C664 1.409 . S
C671 C670 1.362 . S
H672 C678 0.930 1_565 S
H673 C681 0.930 . S
H674 C682 0.930 . S
H675 C683 0.930 . S
H676 C686 0.930 . S
H677 C687 0.930 . S
C678 H672 0.930 1_545 S
C678 C679 1.355 . S
C678 C680 1.415 . S
C679 C678 1.355 . S
C679 C681 1.419 . S
C680 C678 1.415 . S
C680 C685 1.425 . S
C680 C687 1.409 . S
C681 H673 0.930 . S
C681 C679 1.419 . S
C681 C682 1.362 . S
C682 H674 0.930 . S
C682 C681 1.362 . S
C682 C685 1.409 . S
C683 H675 0.930 . S
C683 C684 1.355 . S
C683 C685 1.415 . S
C684 C683 1.355 . S
C684 C686 1.419 . S
C685 C680 1.425 . S
C685 C682 1.409 . S
C685 C683 1.415 . S
C686 H676 0.930 . S
C686 C684 1.419 . S
C686 C687 1.362 . S
C687 H677 0.930 . S
C687 C680 1.409 . S
C687 C686 1.362 . S
H688 C694 0.930 1_545 S
H689 C697 0.930 . S
H690 C698 0.930 . S
H691 C699 0.930 . S
H692 C702 0.930 1_455 S
H693 C703 0.930 . S
C694 H688 0.930 1_565 S
C694 C695 1.355 . S
C694 C696 1.415 . S
C695 C694 1.355 . S
C695 C697 1.419 . S
C696 C694 1.415 . S
C696 C701 1.425 . S
C696 C703 1.409 . S
C697 H689 0.930 . S
C697 C695 1.419 . S
C697 C698 1.362 . S
C698 H690 0.930 . S
C698 C697 1.362 . S
C698 C701 1.409 . S
C699 H691 0.930 . S
C699 C700 1.355 . S
C699 C701 1.415 . S
C700 C699 1.355 . S
C700 C702 1.419 . S
C701 C696 1.425 . S
C701 C698 1.409 . S
C701 C699 1.415 . S
C702 H692 0.930 1_655 S
C702 C700 1.419 . S
C702 C703 1.362 . S
C703 H693 0.930 . S
C703 C696 1.409 . S
C703 C702 1.362 . S
H704 C710 0.930 . S
H705 C713 0.930 . S
H706 C714 0.930 . S
H707 C715 0.930 . S
H708 C718 0.930 . S
H709 C719 0.930 . S
C710 H704 0.930 . S
C710 C711 1.355 . S
C710 C712 1.415 . S
C711 C710 1.355 . S
C711 C713 1.419 . S
C712 C710 1.415 . S
C712 C717 1.425 . S
C712 C719 1.409 . S
C713 H705 0.930 . S
C713 C711 1.419 . S
C713 C714 1.362 . S
C714 H706 0.930 . S
C714 C713 1.362 . S
C714 C717 1.409 . S
C715 H707 0.930 . S
C715 C716 1.355 . S
C715 C717 1.415 . S
C716 C715 1.355 . S
C716 C718 1.419 . S
C717 C712 1.425 . S
C717 C714 1.409 . S
C717 C715 1.415 . S
C718 H708 0.930 . S
C718 C716 1.419 . S
C718 C719 1.362 . S
C719 H709 0.930 . S
C719 C712 1.409 . S
C719 C718 1.362 . S
H720 C726 0.930 . S
H721 C729 0.930 . S
H722 C730 0.930 . S
H723 C731 0.930 . S
H724 C734 0.930 . S
H725 C735 0.930 . S
C726 H720 0.930 . S
C726 C727 1.355 . S
C726 C728 1.415 . S
C727 C726 1.355 . S
C727 C729 1.419 . S
C728 C726 1.415 . S
C728 C733 1.425 . S
C728 C735 1.409 . S
C729 H721 0.930 . S
C729 C727 1.419 . S
C729 C730 1.362 . S
C730 H722 0.930 . S
C730 C729 1.362 . S
C730 C733 1.409 . S
C731 H723 0.930 . S
C731 C732 1.355 . S
C731 C733 1.415 . S
C732 C731 1.355 . S
C732 C734 1.419 . S
C733 C728 1.425 . S
C733 C730 1.409 . S
C733 C731 1.415 . S
C734 H724 0.930 . S
C734 C732 1.419 . S
C734 C735 1.362 . S
C735 H725 0.930 . S
C735 C728 1.409 . S
C735 C734 1.362 . S
H736 C742 0.930 . S
H737 C745 0.930 1_545 S
H738 C746 0.930 . S
H739 C747 0.930 . S
H740 C750 0.930 . S
H741 C751 0.930 . S
C742 H736 0.930 . S
C742 C743 1.355 . S
C742 C744 1.415 . S
C743 C742 1.355 . S
C743 C745 1.419 . S
C744 C742 1.415 . S
C744 C749 1.425 . S
C744 C751 1.409 . S
C745 H737 0.930 1_565 S
C745 C743 1.419 . S
C745 C746 1.362 . S
C746 H738 0.930 . S
C746 C745 1.362 . S
C746 C749 1.409 . S
C747 H739 0.930 . S
C747 C748 1.355 . S
C747 C749 1.415 . S
C748 C747 1.355 . S
C748 C750 1.419 . S
C749 C744 1.425 . S
C749 C746 1.409 . S
C749 C747 1.415 . S
C750 H740 0.930 . S
C750 C748 1.419 . S
C750 C751 1.362 . S
C751 H741 0.930 . S
C751 C744 1.409 . S
C751 C750 1.362 . S
H752 C758 0.930 . S
H753 C761 0.930 . S
H754 C762 0.930 . S
H755 C763 0.930 . S
H756 C766 0.930 . S
H757 C767 0.930 . S
C758 H752 0.930 . S
C758 C759 1.355 . S
C758 C760 1.415 . S
C759 C758 1.355 . S
C759 C761 1.419 . S
C760 C758 1.415 . S
C760 C765 1.425 . S
C760 C767 1.409 . S
C761 H753 0.930 . S
C761 C759 1.419 . S
C761 C762 1.362 . S
C762 H754 0.930 . S
C762 C761 1.362 . S
C762 C765 1.409 . S
C763 H755 0.930 . S
C763 C764 1.355 . S
C763 C765 1.415 . S
C764 C763 1.355 . S
C764 C766 1.419 . S
C765 C760 1.425 . S
C765 C762 1.409 . S
C765 C763 1.415 . S
C766 H756 0.930 . S
C766 C764 1.419 . S
C766 C767 1.362 . S
C767 H757 0.930 . S
C767 C760 1.409 . S
C767 C766 1.362 . S
H768 C774 0.930 . S
H769 C777 0.930 . S
H770 C778 0.930 . S
H771 C779 0.930 . S
H772 C782 0.930 . S
H773 C783 0.930 . S
C774 H768 0.930 . S
C774 C775 1.355 . S
C774 C776 1.415 . S
C775 C774 1.355 . S
C775 C777 1.419 . S
C776 C774 1.415 . S
C776 C781 1.425 . S
C776 C783 1.409 . S
C777 H769 0.930 . S
C777 C775 1.419 . S
C777 C778 1.362 . S
C778 H770 0.930 . S
C778 C777 1.362 . S
C778 C781 1.409 . S
C779 H771 0.930 . S
C779 C780 1.355 . S
C779 C781 1.415 . S
C780 C779 1.355 . S
C780 C782 1.419 . S
C781 C776 1.425 . S
C781 C778 1.409 . S
C781 C779 1.415 . S
C782 H772 0.930 . S
C782 C780 1.419 . S
C782 C783 1.362 . S
C783 H773 0.930 . S
C783 C776 1.409 . S
C783 C782 1.362 . S
H784 C790 0.930 . S
H785 C793 0.930 . S
H786 C794 0.930 . S
H787 C795 0.930 . S
H788 C798 0.930 . S
H789 C799 0.930 . S
C790 H784 0.930 . S
C790 C791 1.355 . S
C790 C792 1.415 . S
C791 C790 1.355 . S
C791 C793 1.419 . S
C792 C790 1.415 . S
C792 C797 1.425 . S
C792 C799 1.409 . S
C793 H785 0.930 . S
C793 C791 1.419 . S
C793 C794 1.362 . S
C794 H786 0.930 . S
C794 C793 1.362 . S
C794 C797 1.409 . S
C795 H787 0.930 . S
C795 C796 1.355 . S
C795 C797 1.415 . S
C796 C795 1.355 . S
C796 C798 1.419 . S
C797 C792 1.425 . S
C797 C794 1.409 . S
C797 C795 1.415 . S
C798 H788 0.930 . S
C798 C796 1.419 . S
C798 C799 1.362 . S
C799 H789 0.930 . S
C799 C792 1.409 . S
C799 C798 1.362 . S
H800 C806 0.930 . S
H801 C809 0.930 . S
H802 C810 0.930 . S
H803 C811 0.930 . S
H804 C814 0.930 . S
H805 C815 0.930 . S
C806 H800 0.930 . S
C806 C807 1.355 . S
C806 C808 1.415 . S
C807 C806 1.355 . S
C807 C809 1.419 . S
C808 C806 1.415 . S
C808 C813 1.425 . S
C808 C815 1.409 . S
C809 H801 0.930 . S
C809 C807 1.419 . S
C809 C810 1.362 . S
C810 H802 0.930 . S
C810 C809 1.362 . S
C810 C813 1.409 . S
C811 H803 0.930 . S
C811 C812 1.355 . S
C811 C813 1.415 . S
C812 C811 1.355 . S
C812 C814 1.419 . S
C813 C808 1.425 . S
C813 C810 1.409 . S
C813 C811 1.415 . S
C814 H804 0.930 . S
C814 C812 1.419 . S
C814 C815 1.362 . S
C815 H805 0.930 . S
C815 C808 1.409 . S
C815 C814 1.362 . S
H816 C822 0.930 . S
H817 C825 0.930 . S
H818 C826 0.930 . S
H819 C827 0.930 . S
H820 C830 0.930 . S
H821 C831 0.930 . S
C822 H816 0.930 . S
C822 C823 1.355 . S
C822 C824 1.415 . S
C823 C822 1.355 . S
C823 C825 1.419 . S
C824 C822 1.415 . S
C824 C829 1.425 . S
C824 C831 1.409 . S
C825 H817 0.930 . S
C825 C823 1.419 . S
C825 C826 1.362 . S
C826 H818 0.930 . S
C826 C825 1.362 . S
C826 C829 1.409 . S
C827 H819 0.930 . S
C827 C828 1.355 . S
C827 C829 1.415 . S
C828 C827 1.355 . S
C828 C830 1.419 . S
C829 C824 1.425 . S
C829 C826 1.409 . S
C829 C827 1.415 . S
C830 H820 0.930 . S
C830 C828 1.419 . S
C830 C831 1.362 . S
C831 H821 0.930 . S
C831 C824 1.409 . S
C831 C830 1.362 . S
H832 C838 0.930 . S
H833 C841 0.930 . S
H834 C842 0.930 . S
H835 C843 0.930 . S
H836 C846 0.930 . S
H837 C847 0.930 . S
C838 H832 0.930 . S
C838 C839 1.355 . S
C838 C840 1.415 . S
C839 C838 1.355 . S
C839 C841 1.419 . S
C840 C838 1.415 . S
C840 C845 1.425 . S
C840 C847 1.409 . S
C841 H833 0.930 . S
C841 C839 1.419 . S
C841 C842 1.362 . S
C842 H834 0.930 . S
C842 C841 1.362 . S
C842 C845 1.409 . S
C843 H835 0.930 . S
C843 C844 1.355 . S
C843 C845 1.415 . S
C844 C843 1.355 . S
C844 C846 1.419 . S
C845 C840 1.425 . S
C845 C842 1.409 . S
C845 C843 1.415 . S
C846 H836 0.930 . S
C846 C844 1.419 . S
C846 C847 1.362 . S
C847 H837 0.930 . S
C847 C840 1.409 . S
C847 C846 1.362 . S
H848 C854 0.930 . S
H849 C857 0.930 . S
H850 C858 0.930 . S
H851 C859 0.930 . S
H852 C862 0.930 . S
H853 C863 0.930 . S
C854 H848 0.930 . S
C854 C855 1.355 . S
C854 C856 1.415 . S
C855 C854 1.355 . S
C855 C857 1.419 . S
C856 C854 1.415 . S
C856 C861 1.425 . S
C856 C863 1.409 . S
C857 H849 0.930 . S
C857 C855 1.419 . S
C857 C858 1.362 . S
C858 H850 0.930 . S
C858 C857 1.362 . S
C858 C861 1.409 . S
C859 H851 0.930 . S
C859 C860 1.355 . S
C859 C861 1.415 . S
C860 C859 1.355 . S
C860 C862 1.419 . S
C861 C856 1.425 . S
C861 C858 1.409 . S
C861 C859 1.415 . S
C862 H852 0.930 . S
C862 C860 1.419 . S
C862 C863 1.362 . S
C863 H853 0.930 . S
C863 C856 1.409 . S
C863 C862 1.362 . S
H864 C870 0.930 . S
H865 C873 0.930 . S
H866 C874 0.930 . S
H867 C875 0.930 . S
H868 C878 0.930 . S
H869 C879 0.930 . S
C870 H864 0.930 . S
C870 C871 1.355 . S
C870 C872 1.415 . S
C871 C870 1.355 . S
C871 C873 1.419 . S
C872 C870 1.415 . S
C872 C877 1.425 . S
C872 C879 1.409 . S
C873 H865 0.930 . S
C873 C871 1.419 . S
C873 C874 1.362 . S
C874 H866 0.930 . S
C874 C873 1.362 . S
C874 C877 1.409 . S
C875 H867 0.930 . S
C875 C876 1.355 . S
C875 C877 1.415 . S
C876 C875 1.355 . S
C876 C878 1.419 . S
C877 C872 1.425 . S
C877 C874 1.409 . S
C877 C875 1.415 . S
C878 H868 0.930 . S
C878 C876 1.419 . S
C878 C879 1.362 . S
C879 H869 0.930 . S
C879 C872 1.409 . S
C879 C878 1.362 . S
H880 C886 0.930 . S
H881 C889 0.930 . S
H882 C890 0.930 . S
H883 C891 0.930 . S
H884 C894 0.930 . S
H885 C895 0.930 . S
C886 H880 0.930 . S
C886 C887 1.355 . S
C886 C888 1.415 . S
C887 C886 1.355 . S
C887 C889 1.419 . S
C888 C886 1.415 . S
C888 C893 1.425 . S
C888 C895 1.409 . S
C889 H881 0.930 . S
C889 C887 1.419 . S
C889 C890 1.362 . S
C890 H882 0.930 . S
C890 C889 1.362 . S
C890 C893 1.409 . S
C891 H883 0.930 . S
C891 C892 1.355 . S
C891 C893 1.415 . S
C892 C891 1.355 . S
C892 C894 1.419 . S
C893 C888 1.425 . S
C893 C890 1.409 . S
C893 C891 1.415 . S
C894 H884 0.930 . S
C894 C892 1.419 . S
C894 C895 1.362 . S
C895 H885 0.930 . S
C895 C888 1.409 . S
C895 C894 1.362 . S
H896 C902 0.930 . S
H897 C905 0.930 . S
H898 C906 0.930 . S
H899 C907 0.930 . S
H900 C910 0.930 . S
H901 C911 0.930 . S
C902 H896 0.930 . S
C902 C903 1.355 . S
C902 C904 1.415 . S
C903 C902 1.355 . S
C903 C905 1.419 . S
C904 C902 1.415 . S
C904 C909 1.425 . S
C904 C911 1.409 . S
C905 H897 0.930 . S
C905 C903 1.419 . S
C905 C906 1.362 . S
C906 H898 0.930 . S
C906 C905 1.362 . S
C906 C909 1.409 . S
C907 H899 0.930 . S
C907 C908 1.355 . S
C907 C909 1.415 . S
C908 C907 1.355 . S
C908 C910 1.419 . S
C909 C904 1.425 . S
C909 C906 1.409 . S
C909 C907 1.415 . S
C910 H900 0.930 . S
C910 C908 1.419 . S
C910 C911 1.362 . S
C911 H901 0.930 . S
C911 C904 1.409 . S
C911 C910 1.362 . S
H912 C918 0.930 . S
H913 C921 0.930 . S
H914 C922 0.930 . S
H915 C923 0.930 . S
H916 C926 0.930 . S
H917 C927 0.930 . S
C918 H912 0.930 . S
C918 C919 1.355 . S
C918 C920 1.415 . S
C919 C918 1.355 . S
C919 C921 1.419 . S
C920 C918 1.415 . S
C920 C925 1.425 . S
C920 C927 1.409 . S
C921 H913 0.930 . S
C921 C919 1.419 . S
C921 C922 1.362 . S
C922 H914 0.930 . S
C922 C921 1.362 . S
C922 C925 1.409 . S
C923 H915 0.930 . S
C923 C924 1.355 . S
C923 C925 1.415 . S
C924 C923 1.355 . S
C924 C926 1.419 . S
C925 C920 1.425 . S
C925 C922 1.409 . S
C925 C923 1.415 . S
C926 H916 0.930 . S
C926 C924 1.419 . S
C926 C927 1.362 . S
C927 H917 0.930 . S
C927 C920 1.409 . S
C927 C926 1.362 . S
H928 C934 0.930 . S
H929 C937 0.930 . S
H930 C938 0.930 . S
H931 C939 0.930 . S
H932 C942 0.930 . S
H933 C943 0.930 . S
C934 H928 0.930 . S
C934 C935 1.355 . S
C934 C936 1.415 . S
C935 C934 1.355 . S
C935 C937 1.419 . S
C936 C934 1.415 . S
C936 C941 1.425 . S
C936 C943 1.409 . S
C937 H929 0.930 . S
C937 C935 1.419 . S
C937 C938 1.362 . S
C938 H930 0.930 . S
C938 C937 1.362 . S
C938 C941 1.409 . S
C939 H931 0.930 . S
C939 C940 1.355 . S
C939 C941 1.415 . S
C940 C939 1.355 . S
C940 C942 1.419 . S
C941 C936 1.425 . S
C941 C938 1.409 . S
C941 C939 1.415 . S
C942 H932 0.930 . S
C942 C940 1.419 . S
C942 C943 1.362 . S
C943 H933 0.930 . S
C943 C936 1.409 . S
C943 C942 1.362 . S
H944 C950 0.930 . S
H945 C953 0.930 . S
H946 C954 0.930 . S
H947 C955 0.930 . S
H948 C958 0.930 1_455 S
H949 C959 0.930 . S
C950 H944 0.930 . S
C950 C951 1.355 . S
C950 C952 1.415 . S
C951 C950 1.355 . S
C951 C953 1.419 . S
C952 C950 1.415 . S
C952 C957 1.425 . S
C952 C959 1.409 . S
C953 H945 0.930 . S
C953 C951 1.419 . S
C953 C954 1.362 . S
C954 H946 0.930 . S
C954 C953 1.362 . S
C954 C957 1.409 . S
C955 H947 0.930 . S
C955 C956 1.355 . S
C955 C957 1.415 . S
C956 C955 1.355 . S
C956 C958 1.419 . S
C957 C952 1.425 . S
C957 C954 1.409 . S
C957 C955 1.415 . S
C958 H948 0.930 1_655 S
C958 C956 1.419 . S
C958 C959 1.362 . S
C959 H949 0.930 . S
C959 C952 1.409 . S
C959 C958 1.362 . S
H960 C966 0.930 . S
H961 C969 0.930 . S
H962 C970 0.930 . S
H963 C971 0.930 . S
H964 C974 0.930 . S
H965 C975 0.930 . S
C966 H960 0.930 . S
C966 C967 1.355 . S
C966 C968 1.415 . S
C967 C966 1.355 . S
C967 C969 1.419 . S
C968 C966 1.415 . S
C968 C973 1.425 . S
C968 C975 1.409 . S
C969 H961 0.930 . S
C969 C967 1.419 . S
C969 C970 1.362 . S
C970 H962 0.930 . S
C970 C969 1.362 . S
C970 C973 1.409 . S
C971 H963 0.930 . S
C971 C972 1.355 . S
C971 C973 1.415 . S
C972 C971 1.355 . S
C972 C974 1.419 . S
C973 C968 1.425 . S
C973 C970 1.409 . S
C973 C971 1.415 . S
C974 H964 0.930 . S
C974 C972 1.419 . S
C974 C975 1.362 . S
C975 H965 0.930 . S
C975 C968 1.409 . S
C975 C974 1.362 . S
H976 C982 0.930 . S
H977 C985 0.930 . S
H978 C986 0.930 . S
H979 C987 0.930 . S
H980 C990 0.930 . S
H981 C991 0.930 . S
C982 H976 0.930 . S
C982 C983 1.355 . S
C982 C984 1.415 . S
C983 C982 1.355 . S
C983 C985 1.419 . S
C984 C982 1.415 . S
C984 C989 1.425 . S
C984 C991 1.409 . S
C985 H977 0.930 . S
C985 C983 1.419 . S
C985 C986 1.362 . S
C986 H978 0.930 . S
C986 C985 1.362 . S
C986 C989 1.409 . S
C987 H979 0.930 . S
C987 C988 1.355 . S
C987 C989 1.415 . S
C988 C987 1.355 . S
C988 C990 1.419 . S
C989 C984 1.425 . S
C989 C986 1.409 . S
C989 C987 1.415 . S
C990 H980 0.930 . S
C990 C988 1.419 . S
C990 C991 1.362 . S
C991 H981 0.930 . S
C991 C984 1.409 . S
C991 C990 1.362 . S
H992 C998 0.930 . S
H993 C1001 0.930 . S
H994 C1002 0.930 . S
H995 C1003 0.930 . S
H996 C1006 0.930 . S
H997 C1007 0.930 . S
C998 H992 0.930 . S
C998 C999 1.355 . S
C998 C1000 1.415 . S
C999 C998 1.355 . S
C999 C1001 1.419 . S
C1000 C998 1.415 . S
C1000 C1005 1.425 . S
C1000 C1007 1.409 . S
C1001 H993 0.930 . S
C1001 C999 1.419 . S
C1001 C1002 1.362 . S
C1002 H994 0.930 . S
C1002 C1001 1.362 . S
C1002 C1005 1.409 . S
C1003 H995 0.930 . S
C1003 C1004 1.355 . S
C1003 C1005 1.415 . S
C1004 C1003 1.355 . S
C1004 C1006 1.419 . S
C1005 C1000 1.425 . S
C1005 C1002 1.409 . S
C1005 C1003 1.415 . S
C1006 H996 0.930 . S
C1006 C1004 1.419 . S
C1006 C1007 1.362 . S
C1007 H997 0.930 . S
C1007 C1000 1.409 . S
C1007 C1006 1.362 . S
C631 C247 1.478 1_545 S
C636 C344 1.472 . S
C652 C428 1.442 . S
C647 C283 1.478 . S
C668 C427 1.456 . S
C663 C175 1.470 . S
C679 C211 1.476 1_545 S
C684 C343 1.480 . S
C700 C524 1.443 . S
C695 C103 1.479 1_565 S
C716 C608 1.470 . S
C711 C139 1.446 . S
C727 C31 1.454 . S
C732 C607 1.459 . S
C743 C67 1.466 1_565 S
C748 C523 1.466 . S
C764 C346 1.352 . S
C759 C37 1.508 1_554 S
C780 C430 1.260 . S
C775 C1 1.483 . S
C796 C442 1.432 . S
C791 C109 1.540 1_556 S
C812 C358 1.436 . S
C807 C73 1.515 . S
C828 C526 1.389 . S
C823 C181 1.523 1_556 S
C839 C145 1.511 . S
C844 C610 1.261 . S
C860 C598 1.422 . S
C855 C253 1.539 1_554 S
C871 C217 1.532 . S
C876 C514 1.440 . S
C892 C355 1.580 . S
C887 C25 1.542 . S
C908 C439 1.576 . S
C903 C61 1.530 . S
C919 C97 1.536 . S
C924 C440 1.535 . S
C940 C356 1.535 . S
C935 C133 1.538 . S
C956 C511 1.573 . S
C951 C169 1.565 . S
C967 C205 1.581 . S
C972 C595 1.582 . S
C983 C241 1.538 . S
C988 C596 1.566 . S
C999 C277 1.567 . S
C1004 C512 1.534 . S
