# Generated by pormake.
# Topology pyr, (3,6)-cn, num edge types: 1
# Building blocks:
#     Node 0, Type 0, BuildingBlock: PAMTOO_clean_linker_0, # of connection points: 3
#     Node 1, Type 0, BuildingBlock: PAMTOO_clean_linker_0, # of connection points: 3
#     Node 2, Type 0, BuildingBlock: PAMTOO_clean_linker_0, # of connection points: 3
#     Node 3, Type 0, BuildingBlock: PAMTOO_clean_linker_0, # of connection points: 3
#     Node 4, Type 0, BuildingBlock: PAMTOO_clean_linker_0, # of connection points: 3
#     Node 5, Type 0, BuildingBlock: PAMTOO_clean_linker_0, # of connection points: 3
#     Node 6, Type 0, BuildingBlock: PAMTOO_clean_linker_0, # of connection points: 3
#     Node 7, Type 0, BuildingBlock: PAMTOO_clean_linker_0, # of connection points: 3
#     Node 8, Type 1, BuildingBlock: PAMTOO_clean_sbu_0, # of connection points: 6
#     Node 9, Type 1, BuildingBlock: PAMTOO_clean_sbu_0, # of connection points: 6
#     Node 10, Type 1, BuildingBlock: PAMTOO_clean_sbu_0, # of connection points: 6
#     Node 11, Type 1, BuildingBlock: PAMTOO_clean_sbu_0, # of connection points: 6
#     Edge 12, Type (0, 1), BuildingBlock: ZUJKAS_clean_linker_0, # of connection points: 2
#     Edge 13, Type (0, 1), BuildingBlock: ZUJKAS_clean_linker_0, # of connection points: 2
#     Edge 14, Type (0, 1), BuildingBlock: ZUJKAS_clean_linker_0, # of connection points: 2
#     Edge 15, Type (0, 1), BuildingBlock: ZUJKAS_clean_linker_0, # of connection points: 2
#     Edge 16, Type (0, 1), BuildingBlock: ZUJKAS_clean_linker_0, # of connection points: 2
#     Edge 17, Type (0, 1), BuildingBlock: ZUJKAS_clean_linker_0, # of connection points: 2
#     Edge 18, Type (0, 1), BuildingBlock: ZUJKAS_clean_linker_0, # of connection points: 2
#     Edge 19, Type (0, 1), BuildingBlock: ZUJKAS_clean_linker_0, # of connection points: 2
#     Edge 20, Type (0, 1), BuildingBlock: ZUJKAS_clean_linker_0, # of connection points: 2
#     Edge 21, Type (0, 1), BuildingBlock: ZUJKAS_clean_linker_0, # of connection points: 2
#     Edge 22, Type (0, 1), BuildingBlock: ZUJKAS_clean_linker_0, # of connection points: 2
#     Edge 23, Type (0, 1), BuildingBlock: ZUJKAS_clean_linker_0, # of connection points: 2
#     Edge 24, Type (0, 1), BuildingBlock: ZUJKAS_clean_linker_0, # of connection points: 2
#     Edge 25, Type (0, 1), BuildingBlock: ZUJKAS_clean_linker_0, # of connection points: 2
#     Edge 26, Type (0, 1), BuildingBlock: ZUJKAS_clean_linker_0, # of connection points: 2
#     Edge 27, Type (0, 1), BuildingBlock: ZUJKAS_clean_linker_0, # of connection points: 2
#     Edge 28, Type (0, 1), BuildingBlock: ZUJKAS_clean_linker_0, # of connection points: 2
#     Edge 29, Type (0, 1), BuildingBlock: ZUJKAS_clean_linker_0, # of connection points: 2
#     Edge 30, Type (0, 1), BuildingBlock: ZUJKAS_clean_linker_0, # of connection points: 2
#     Edge 31, Type (0, 1), BuildingBlock: ZUJKAS_clean_linker_0, # of connection points: 2
#     Edge 32, Type (0, 1), BuildingBlock: ZUJKAS_clean_linker_0, # of connection points: 2
#     Edge 33, Type (0, 1), BuildingBlock: ZUJKAS_clean_linker_0, # of connection points: 2
#     Edge 34, Type (0, 1), BuildingBlock: ZUJKAS_clean_linker_0, # of connection points: 2
#     Edge 35, Type (0, 1), BuildingBlock: ZUJKAS_clean_linker_0, # of connection points: 2
# Relax obj value: 0.124
# Max RMSD: 0.252
# Mean RMSD: 0.142
data_MOF--net-pyr--node1-PAMTOO_clean_sbu_0--node2-PAMTOO_clean_linker_0--edge1-ZUJKAS_clean_linker_0
_symmetry_space_group_name_H-M    P1
_symmetry_Int_Tables_number       1
_symmetry_cell_setting            triclinic
loop_
_symmetry_equiv_pos_as_xyz
'x, y, z'
_cell_length_a     46.765606
_cell_length_b     51.070519
_cell_length_c     50.336265
_cell_angle_alpha  90.484922
_cell_angle_beta   90.513595
_cell_angle_gamma 106.71266
loop_
_atom_site_label
_atom_site_type_symbol
_atom_site_fract_x
_atom_site_fract_y
_atom_site_fract_z
_atom_type_partial_charge
H0 H 0.29995 0.28511 0.24845 0.0
H1 H 0.3605 0.23608 0.24085 0.0
H2 H 0.34842 0.2856 0.17595 0.0
H3 H 0.35114 0.23364 0.15724 0.0
C4 C 0.3604 0.22652 0.17533 0.0
O5 O 0.37346 0.24883 0.19147 0.0
H6 H 0.3416 0.21186 0.18569 0.0
C7 C 0.31677 0.27912 0.23724 0.0
C8 C 0.3229 0.28832 0.21106 0.0
C9 C 0.33028 0.26039 0.24832 0.0
C10 C 0.35034 0.251 0.23297 0.0
C11 C 0.35661 0.26006 0.20695 0.0
C12 C 0.34345 0.27904 0.19623 0.0
H13 H 0.23862 0.84026 0.72372 0.0
H14 H 0.20161 0.78705 0.65754 0.0
H15 H 0.27341 0.77321 0.70335 0.0
H16 H 0.25889 0.78176 0.6331 0.0
C17 C 0.25126 0.75979 0.63874 0.0
O18 O 0.23707 0.75629 0.66296 0.0
H19 H 0.23492 0.74929 0.62313 0.0
C20 C 0.23846 0.8229 0.71113 0.0
C21 C 0.25858 0.80766 0.71638 0.0
C22 C 0.21788 0.81581 0.68991 0.0
C23 C 0.21696 0.79268 0.67428 0.0
C24 C 0.23708 0.77755 0.67911 0.0
C25 C 0.25774 0.78493 0.70011 0.0
H26 H 0.71724 0.33627 0.90578 0.0
H27 H 0.6481 0.32308 0.84583 0.0
H28 H 0.71882 0.39846 0.84818 0.0
H29 H 0.659 0.40375 0.84024 0.0
C30 C 0.64994 0.38649 0.826 0.0
O31 O 0.66976 0.37109 0.82356 0.0
H32 H 0.62857 0.37337 0.83405 0.0
C33 C 0.7077 0.34318 0.88844 0.0
C34 C 0.72158 0.36928 0.87834 0.0
C35 C 0.68135 0.32609 0.87689 0.0
C36 C 0.66831 0.33587 0.85519 0.0
C37 C 0.68177 0.36205 0.845 0.0
C38 C 0.70836 0.37857 0.85653 0.0
H39 H 0.881 0.71873 0.40844 0.0
H40 H 0.88059 0.65596 0.35069 0.0
H41 H 0.95151 0.73133 0.35126 0.0
H42 H 0.93762 0.70945 0.29704 0.0
C43 C 0.92482 0.6881 0.30175 0.0
O44 O 0.9304 0.6829 0.328 0.0
H45 H 0.90062 0.68615 0.29906 0.0
C46 C 0.89086 0.71168 0.39141 0.0
C47 C 0.91751 0.72869 0.38097 0.0
C48 C 0.87713 0.68546 0.38076 0.0
C49 C 0.89083 0.67599 0.35938 0.0
C50 C 0.91759 0.69245 0.34871 0.0
C51 C 0.931 0.71868 0.35969 0.0
H52 H 0.72259 0.82236 0.8482 0.0
H53 H 0.7116 0.78672 0.92612 0.0
H54 H 0.76671 0.76208 0.86955 0.0
H55 H 0.72077 0.71986 0.90094 0.0
C56 C 0.7328 0.72841 0.91972 0.0
O57 O 0.74649 0.75609 0.91781 0.0
H58 H 0.71605 0.72476 0.93582 0.0
C59 C 0.72683 0.80804 0.86237 0.0
C60 C 0.74598 0.79232 0.85548 0.0
C61 C 0.71423 0.80638 0.88781 0.0
C62 C 0.72022 0.78792 0.90612 0.0
C63 C 0.73897 0.77203 0.89937 0.0
C64 C 0.75186 0.77427 0.87423 0.0
H65 H 0.87761 0.22383 0.35414 0.0
H66 H 0.83643 0.28894 0.36134 0.0
H67 H 0.89104 0.27411 0.42488 0.0
H68 H 0.84638 0.30263 0.44843 0.0
C69 C 0.83529 0.29758 0.42866 0.0
O70 O 0.8569 0.30352 0.40931 0.0
H71 H 0.82311 0.27532 0.42894 0.0
C72 C 0.87444 0.24114 0.36506 0.0
C73 C 0.88687 0.24718 0.3907 0.0
C74 C 0.85626 0.25609 0.35414 0.0
C75 C 0.85065 0.27736 0.36918 0.0
C76 C 0.86331 0.28378 0.39454 0.0
C77 C 0.88165 0.26901 0.4051 0.0
H78 H 0.38114 0.71037 0.17734 0.0
H79 H 0.37537 0.64896 0.2367 0.0
H80 H 0.44475 0.72518 0.24219 0.0
H81 H 0.46347 0.67555 0.25428 0.0
C82 C 0.44272 0.66282 0.2637 0.0
O83 O 0.42196 0.67739 0.26435 0.0
H84 H 0.43391 0.64395 0.25142 0.0
C85 C 0.3896 0.70364 0.19536 0.0
C86 C 0.41454 0.72121 0.20851 0.0
C87 C 0.37524 0.67756 0.20522 0.0
C88 C 0.38614 0.66899 0.22874 0.0
C89 C 0.41144 0.68598 0.24183 0.0
C90 C 0.42556 0.71203 0.2317 0.0
H91 H 0.1238 0.32709 0.77328 0.0
H92 H 0.19798 0.4008 0.77309 0.0
H93 H 0.18934 0.34156 0.71103 0.0
H94 H 0.24829 0.36376 0.73599 0.0
C95 C 0.2492 0.38578 0.73527 0.0
O96 O 0.22127 0.38849 0.72943 0.0
H97 H 0.25652 0.39482 0.75526 0.0
C98 C 0.14391 0.33982 0.76428 0.0
C99 C 0.15421 0.33111 0.7403 0.0
C100 C 0.15964 0.36498 0.77662 0.0
C101 C 0.18574 0.38122 0.76448 0.0
C102 C 0.19619 0.37269 0.74093 0.0
C103 C 0.1805 0.34787 0.72903 0.0
Dy104 Dy 0.06931 0.0399 0.54452 0.0
Dy105 Dy 0.00601 0.02048 0.57629 0.0
C106 C 0.05526 0.07727 0.59062 0.0
O107 O 0.07797 0.0208 0.58236 0.0
O108 O 0.03139 0.99148 0.58819 0.0
O109 O 0.11648 0.06152 0.54389 0.0
O110 O 0.09496 0.03729 0.50985 0.0
O111 O 0.99976 0.99303 0.54029 0.0
O112 O 0.04879 0.9958 0.53336 0.0
O113 O 1.00329 0.05575 0.55167 0.0
O114 O 0.03669 0.05338 0.5193 0.0
O115 O 0.95772 1.00688 0.57644 0.0
O116 O 0.98285 1.01387 0.6135 0.0
C117 C 0.0603 0.99844 0.5925 0.0
O118 O 0.06637 0.07728 0.56672 0.0
O119 O 0.03631 0.05511 0.60004 0.0
C120 C 0.13637 0.07579 0.50113 0.0
C121 C 0.1732 0.11316 0.46594 0.0
C122 C 0.17761 0.11663 0.49354 0.0
C123 C 0.15947 0.09802 0.51097 0.0
C124 C 0.13148 0.07283 0.47353 0.0
C125 C 0.14964 0.09133 0.45615 0.0
C126 C 0.11931 0.05446 0.51929 0.0
C127 C 0.02026 0.98349 0.5294 0.0
C128 C 0.01454 0.06203 0.52796 0.0
C129 C 0.93749 0.97916 0.61283 0.0
C130 C 0.9035 0.93189 0.63859 0.0
C131 C 0.92942 0.93164 0.62472 0.0
C132 C 0.94631 0.95514 0.61191 0.0
C133 C 0.91115 0.97922 0.62572 0.0
C134 C 0.89426 0.9558 0.63849 0.0
C135 C 0.95661 1.0048 0.60223 0.0
H136 H 0.19576 0.13314 0.50162 0.0
H137 H 0.16405 0.10064 0.53212 0.0
H138 H 0.11405 0.05583 0.46523 0.0
H139 H 0.14545 0.08836 0.43498 0.0
H140 H 0.93697 0.91349 0.62423 0.0
H141 H 0.96667 0.95482 0.60197 0.0
H142 H 0.90416 0.99768 0.62669 0.0
H143 H 0.87471 0.95686 0.64933 0.0
Dy144 Dy 0.52094 1.01412 0.02354 0.0
Dy145 Dy 0.58112 0.03211 0.06178 0.0
C146 C 0.52978 0.97561 0.07021 0.0
O147 O 0.50853 0.0326 0.06051 0.0
O148 O 0.55463 0.06031 0.07296 0.0
O149 O 0.47375 0.99453 1.01815 0.0
O150 O 0.49999 0.01611 0.98554 0.0
O151 O 0.59052 0.06035 0.02693 0.0
O152 O 0.54234 0.05851 1.01631 0.0
O153 O 0.58546 0.99704 0.03728 0.0
O154 O 0.55623 1.0013 1.00169 0.0
O155 O 0.62918 0.04633 0.06683 0.0
O156 O 0.6005 0.03612 0.10106 0.0
C157 C 0.52541 0.05363 0.07398 0.0
O158 O 0.52088 0.97623 0.04546 0.0
O159 O 0.54817 0.99725 0.08168 0.0
C160 C 0.45844 0.97895 0.97455 0.0
C161 C 0.42845 0.93819 0.93777 0.0
C162 C 0.44985 0.93344 0.9555 0.0
C163 C 0.46477 0.95371 0.97377 0.0
C164 C 0.43726 0.98377 0.95695 0.0
C165 C 0.42243 0.96364 0.93871 0.0
C166 C 0.474 1.00082 0.99307 0.0
C167 C 0.57112 0.07054 1.01489 0.0
C168 C 0.57682 0.99171 1.01245 0.0
C169 C 0.64591 0.07134 0.10716 0.0
C170 C 0.68315 0.11564 0.13668 0.0
C171 C 0.68932 0.11143 0.10995 0.0
C172 C 0.67091 0.08947 0.09534 0.0
C173 C 0.63956 0.07582 0.13376 0.0
C174 C 0.65788 0.09773 0.1483 0.0
C175 C 0.62764 0.04675 0.09271 0.0
H176 H 0.45487 0.91402 0.95539 0.0
H177 H 0.48124 0.94975 0.98722 0.0
H178 H 0.43233 1.00325 0.95717 0.0
H179 H 0.40661 0.96824 0.92499 0.0
H180 H 0.70856 0.12495 0.1004 0.0
H181 H 0.67658 0.08644 0.07495 0.0
H182 H 0.62078 0.06201 0.14363 0.0
H183 H 0.65281 0.10001 0.169 0.0
Dy184 Dy 0.55003 0.50207 0.52926 0.0
Dy185 Dy 0.55841 0.56015 0.56138 0.0
C186 C 0.57705 0.51162 0.58796 0.0
O187 O 0.50433 0.4979 0.54524 0.0
O188 O 0.51667 0.53175 0.57738 0.0
O189 O 0.55714 0.46226 0.52784 0.0
O190 O 0.53462 0.47546 0.49511 0.0
O191 O 0.5261 0.55883 0.52792 0.0
O192 O 0.5449 0.53299 0.49972 0.0
O193 O 0.59637 0.5685 0.53295 0.0
O194 O 0.59843 0.52478 0.52486 0.0
O195 O 0.56676 0.60398 0.56104 0.0
O196 O 0.55951 0.58238 0.59828 0.0
C197 C 0.49772 0.51004 0.56654 0.0
O198 O 0.5572 0.49515 0.57227 0.0
O199 O 0.58626 0.53798 0.58327 0.0
C200 C 0.56648 0.44823 0.48543 0.0
C201 C 0.60891 0.42952 0.4576 0.0
C202 C 0.6143 0.45752 0.46344 0.0
C203 C 0.59323 0.4668 0.47724 0.0
C204 C 0.56037 0.42053 0.47859 0.0
C205 C 0.58137 0.41123 0.4647 0.0
C206 C 0.54669 0.45702 0.50371 0.0
C207 C 0.52996 0.55082 0.50371 0.0
C208 C 0.61009 0.55141 0.52333 0.0
C209 C 0.53878 0.61875 0.59323 0.0
C210 C 0.49457 0.64428 0.60579 0.0
C211 C 0.4876 0.62056 0.58975 0.0
C212 C 0.50949 0.60789 0.58356 0.0
C213 C 0.54588 0.64222 0.60943 0.0
C214 C 0.5239 0.6549 0.61573 0.0
C215 C 0.56169 0.60542 0.58636 0.0
H216 H 0.63516 0.47215 0.458 0.0
H217 H 0.59829 0.48829 0.48241 0.0
H218 H 0.53992 0.40591 0.48498 0.0
H219 H 0.57667 0.3895 0.46078 0.0
H220 H 0.46512 0.61164 0.58214 0.0
H221 H 0.50359 0.58961 0.57119 0.0
H222 H 0.5684 0.6508 0.61708 0.0
H223 H 0.52998 0.67325 0.62798 0.0
Dy224 Dy 0.05012 0.54893 0.02759 0.0
Dy225 Dy 0.04166 0.49319 0.0624 0.0
C226 C 0.02167 0.54354 0.0862 0.0
O227 O 0.09645 0.55174 0.04164 0.0
O228 O 0.08436 0.52236 0.0768 0.0
O229 O 0.0628 0.59292 0.02386 0.0
O230 O 0.04527 0.567 0.98984 0.0
O231 O 0.07204 0.48961 0.02916 0.0
O232 O 0.05744 0.51707 0.99953 0.0
O233 O 1.00336 0.48438 0.03362 0.0
O234 O 1.0011 0.52803 0.02766 0.0
O235 O 0.03098 0.44923 0.06434 0.0
O236 O 0.04191 0.47372 0.10032 0.0
C237 C 0.1036 0.54187 0.06397 0.0
O238 O 0.03876 0.55955 0.06873 0.0
O239 O 0.01506 0.51675 0.08412 0.0
C240 C 0.02969 0.60616 0.99513 0.0
C241 C 0.98352 0.62965 0.98333 0.0
C242 C 0.98074 0.61126 1.00445 0.0
C243 C 1.0036 0.59961 1.01026 0.0
C244 C 0.03291 0.62483 0.97438 0.0
C245 C 0.01 0.63655 0.96852 0.0
C246 C 0.05219 0.59171 0.99969 0.0
C247 C 0.06974 0.4975 1.00465 0.0
C248 C 0.98912 0.50153 0.02534 0.0
C249 C 0.05998 0.4356 0.09696 0.0
C250 C 0.10479 0.41219 0.11326 0.0
C251 C 0.10712 0.426 0.08899 0.0
C252 C 0.08499 0.43775 0.08098 0.0
C253 C 0.05735 0.42154 0.121 0.0
C254 C 0.07962 0.40995 0.12914 0.0
C255 C 0.03778 0.44961 0.08955 0.0
H256 H 0.96049 0.60517 1.01596 0.0
H257 H 1.00061 0.58494 0.02618 0.0
H258 H 0.05285 0.62994 0.96241 0.0
H259 H 0.01293 0.65085 0.95231 0.0
H260 H 0.12644 0.42834 0.07653 0.0
H261 H 0.08768 0.44892 0.06253 0.0
H262 H 0.03831 0.4199 0.13366 0.0
H263 H 0.07717 0.39924 0.14784 0.0
H264 H 0.31622 0.2068 0.26265 0.0
H265 H 0.29545 0.18691 0.30473 0.0
H266 H 0.30196 0.26738 0.33586 0.0
H267 H 0.32274 0.28751 0.29367 0.0
H268 H 0.31635 0.19502 0.35756 0.0
H269 H 0.21303 0.22674 0.34257 0.0
H270 H 0.23945 0.22807 0.31636 0.0
H271 H 0.24749 0.2538 0.34212 0.0
C272 C 0.31378 0.22033 0.27861 0.0
C273 C 0.32096 0.24872 0.27483 0.0
C274 C 0.3018 0.20892 0.3026 0.0
C275 C 0.29672 0.22565 0.3232 0.0
C276 C 0.30514 0.2541 0.31998 0.0
H277 H 0.19481 0.16908 0.46804 0.0
H278 H 0.22808 0.19895 0.43623 0.0
C279 C 0.31703 0.26554 0.29593 0.0
C280 C 0.28133 0.21298 0.34746 0.0
H281 H 0.21582 0.20172 0.38097 0.0
C282 C 0.29449 0.19667 0.36285 0.0
C283 C 0.25283 0.21524 0.35429 0.0
C284 C 0.23717 0.23171 0.33791 0.0
C285 C 0.27961 0.18207 0.38459 0.0
C286 C 0.25071 0.18358 0.39083 0.0
C287 C 0.23803 0.2007 0.37611 0.0
C288 C 0.23217 0.16576 0.41097 0.0
C289 C 0.29476 0.16488 0.40052 0.0
C290 C 0.22335 0.13733 0.40709 0.0
C291 C 0.2044 0.12034 0.42507 0.0
C292 C 0.19378 0.13145 0.44725 0.0
C293 C 0.20283 0.15996 0.45124 0.0
C294 C 0.22173 0.177 0.4331 0.0
H295 H 0.3194 0.17202 0.39836 0.0
H296 H 0.2893 0.1652 0.42193 0.0
H297 H 0.28688 0.1434 0.39325 0.0
H298 H 0.23073 0.1283 0.38987 0.0
H299 H 0.19808 0.09844 0.42163 0.0
H300 H 0.29099 0.85939 0.73103 0.0
H301 H 0.32419 0.87333 0.76937 0.0
H302 H 0.31041 0.78881 0.78993 0.0
H303 H 0.2759 0.77464 0.75207 0.0
H304 H 0.30437 0.81877 0.83235 0.0
H305 H 0.40874 0.87199 0.78172 0.0
H306 H 0.37888 0.885 0.77097 0.0
H307 H 0.37701 0.84983 0.76413 0.0
C308 C 0.29494 0.84371 0.74369 0.0
C309 C 0.28061 0.81589 0.73858 0.0
C310 C 0.31434 0.85172 0.76539 0.0
C311 C 0.32026 0.83211 0.78224 0.0
C312 C 0.30638 0.80427 0.77701 0.0
H313 H 0.45169 0.90424 0.90774 0.0
H314 H 0.42651 0.87258 0.87232 0.0
C315 C 0.28681 0.79621 0.75531 0.0
C316 C 0.33912 0.84104 0.80636 0.0
H317 H 0.40466 0.8859 0.82742 0.0
C318 C 0.32655 0.83303 0.83128 0.0
C319 C 0.36834 0.85912 0.80504 0.0
C320 C 0.38412 0.86672 0.77899 0.0
C321 C 0.34157 0.84415 0.85487 0.0
C322 C 0.36953 0.8643 0.85342 0.0
C323 C 0.38301 0.87079 0.82858 0.0
C324 C 0.38388 0.88071 0.87695 0.0
C325 C 0.32704 0.8345 0.88106 0.0
C326 C 0.36825 0.89563 0.89146 0.0
C327 C 0.38243 0.91343 0.91186 0.0
C328 C 0.41276 0.91711 0.91791 0.0
C329 C 0.42824 0.90167 0.90378 0.0
C330 C 0.41393 0.88369 0.88343 0.0
H331 H 0.3127 0.81301 0.87948 0.0
H332 H 0.3439 0.83591 0.89709 0.0
H333 H 0.31252 0.84736 0.88674 0.0
H334 H 0.34529 0.89425 0.88645 0.0
H335 H 0.36973 0.92472 0.92256 0.0
H336 H 0.59666 0.38123 0.7999 0.0
H337 H 0.58784 0.4034 0.7589 0.0
H338 H 0.68247 0.44179 0.75208 0.0
H339 H 0.69137 0.41945 0.79317 0.0
H340 H 0.60266 0.45986 0.74946 0.0
H341 H 0.65834 0.4079 0.67762 0.0
H342 H 0.64811 0.39497 0.71054 0.0
H343 H 0.68066 0.42345 0.70595 0.0
C344 C 0.61562 0.39408 0.78945 0.0
C345 C 0.64476 0.39831 0.7995 0.0
C346 C 0.61055 0.40685 0.76608 0.0
C347 C 0.63449 0.42406 0.75219 0.0
C348 C 0.66367 0.42822 0.76213 0.0
H349 H 0.61249 0.53909 0.62934 0.0
H350 H 0.62838 0.51935 0.66919 0.0
C351 C 0.66875 0.41549 0.78559 0.0
C352 C 0.62862 0.43833 0.72791 0.0
H353 H 0.64029 0.44337 0.66092 0.0
C354 C 0.61099 0.45635 0.73012 0.0
C355 C 0.63931 0.4336 0.70262 0.0
C356 C 0.65746 0.41378 0.69884 0.0
C357 C 0.60369 0.46965 0.70778 0.0
C358 C 0.61454 0.46507 0.68252 0.0
C359 C 0.63222 0.44709 0.68031 0.0
C360 C 0.60618 0.47736 0.65795 0.0
C361 C 0.58366 0.48788 0.71126 0.0
C362 C 0.58904 0.46037 0.63807 0.0
C363 C 0.57995 0.47156 0.61534 0.0
C364 C 0.58799 0.50007 0.61178 0.0
C365 C 0.6058 0.51708 0.63143 0.0
C366 C 0.61479 0.50582 0.6543 0.0
H367 H 0.57242 0.48496 0.73082 0.0
H368 H 0.59722 0.50957 0.70997 0.0
H369 H 0.56634 0.48391 0.69531 0.0
H370 H 0.58219 0.43837 0.64037 0.0
H371 H 0.56641 0.45775 0.60062 0.0
H372 H 0.97321 0.66664 0.3039 0.0
H373 H 0.98935 0.63948 0.26971 0.0
H374 H 0.91437 0.64171 0.2202 0.0
H375 H 0.89778 0.66798 0.25457 0.0
H376 H 0.92192 0.59225 0.21773 0.0
H377 H 0.03156 0.66866 0.20258 0.0
H378 H 0.02625 0.65641 0.23599 0.0
H379 H 1.00291 0.67579 0.22267 0.0
C380 C 0.95991 0.66089 0.28592 0.0
C381 C 0.9338 0.66897 0.28226 0.0
C382 C 0.96937 0.64566 0.26617 0.0
C383 C 0.9534 0.63876 0.24201 0.0
C384 C 0.92716 0.6466 0.23855 0.0
H385 H 0.02061 0.59671 0.09181 0.0
H386 H 1.00346 0.61818 0.12963 0.0
C387 C 0.91762 0.6616 0.2583 0.0
C388 C 0.96389 0.62377 0.22008 0.0
H389 H 0.0227 0.62678 0.17898 0.0
C390 C 0.944 0.59982 0.20931 0.0
C391 C 0.99253 0.63372 0.20862 0.0
C392 C 0.01446 0.66019 0.21784 0.0
C393 C 0.9518 0.58569 0.18761 0.0
C394 C 0.98072 0.59526 0.17659 0.0
C395 C 1.00063 0.61918 0.18741 0.0
C396 C 0.99046 0.58152 0.15326 0.0
C397 C 0.92849 0.56121 0.17616 0.0
C398 C 0.98907 0.55361 0.15362 0.0
C399 C 0.99854 0.54111 0.13173 0.0
C400 C 0.01021 0.55632 0.10907 0.0
C401 C 0.01181 0.58428 0.10885 0.0
C402 C 1.00203 0.59666 0.13058 0.0
H403 H 0.90555 0.56148 0.18143 0.0
H404 H 0.92994 0.56032 0.15419 0.0
H405 H 0.93204 0.54228 0.18439 0.0
H406 H 0.98109 0.5415 0.17103 0.0
H407 H 0.99731 0.51964 0.13281 0.0
H408 H 0.39191 0.20319 0.20892 0.0
H409 H 0.42592 0.17618 0.19724 0.0
H410 H 0.41161 0.18857 0.11405 0.0
H411 H 0.37826 0.21593 0.12569 0.0
H412 H 0.41217 0.12874 0.16886 0.0
H413 H 0.50168 0.20651 0.11831 0.0
H414 H 0.47426 0.21541 0.13875 0.0
H415 H 0.46551 0.20455 0.10476 0.0
C416 C 0.39657 0.20048 0.1882 0.0
C417 C 0.38285 0.2118 0.16819 0.0
C418 C 0.41585 0.18505 0.18155 0.0
C419 C 0.42169 0.18079 0.1548 0.0
C420 C 0.40806 0.19222 0.13482 0.0
H421 H 0.46601 0.04991 0.07619 0.0
H422 H 0.44282 0.08047 0.0994 0.0
C423 C 0.38889 0.2077 0.14146 0.0
C424 C 0.44027 0.16279 0.14754 0.0
H425 H 0.49855 0.15949 0.1087 0.0
C426 C 0.43134 0.13555 0.15603 0.0
C427 C 0.46558 0.17181 0.1312 0.0
C428 C 0.47752 0.20125 0.12296 0.0
C429 C 0.44613 0.11674 0.14748 0.0
C430 C 0.47004 0.12529 0.12954 0.0
C431 C 0.47995 0.15286 0.12218 0.0
C432 C 0.48404 0.10578 0.117 0.0
C433 C 0.43584 0.08785 0.1576 0.0
C434 C 0.51502 0.11013 0.11877 0.0
C435 C 0.52844 0.09284 0.10525 0.0
C436 C 0.5111 0.07095 0.08961 0.0
C437 C 0.48001 0.06644 0.08819 0.0
C438 C 0.46666 0.0838 0.10162 0.0
H439 H 0.42477 0.08698 0.17715 0.0
H440 H 0.41931 0.07501 0.14337 0.0
H441 H 0.45477 0.07893 0.15965 0.0
H442 H 0.52885 0.12709 0.13041 0.0
H443 H 0.55244 0.09688 0.10678 0.0
H444 H 0.23433 0.87145 0.6879 0.0
H445 H 0.20383 0.90084 0.67448 0.0
H446 H 0.12808 0.82994 0.66226 0.0
H447 H 0.15842 0.80026 0.67602 0.0
H448 H 0.17271 0.89466 0.62232 0.0
H449 H 0.09726 0.88565 0.7089 0.0
H450 H 0.13303 0.87885 0.71141 0.0
H451 H 0.10226 0.85464 0.69507 0.0
C452 C 0.21103 0.8621 0.68284 0.0
C453 C 0.19872 0.83353 0.68312 0.0
C454 C 0.19371 0.87892 0.67506 0.0
C455 C 0.1637 0.86754 0.66765 0.0
C456 C 0.15113 0.83908 0.66824 0.0
H457 H 0.03327 0.94564 0.60724 0.0
H458 H 0.05732 0.9132 0.62622 0.0
C459 C 0.16853 0.82218 0.67588 0.0
C460 C 0.14632 0.88549 0.65766 0.0
H461 H 0.08976 0.91266 0.67315 0.0
C462 C 0.15455 0.8986 0.63338 0.0
C463 C 0.12249 0.89028 0.67208 0.0
C464 C 0.11317 0.87679 0.69841 0.0
C465 C 0.13964 0.91656 0.62311 0.0
C466 C 0.1164 0.9221 0.63792 0.0
C467 C 0.10773 0.90852 0.66197 0.0
C468 C 0.10127 0.94226 0.62877 0.0
C469 C 0.14867 0.92914 0.59632 0.0
C470 C 0.11781 0.96955 0.62482 0.0
C471 C 0.10424 0.98805 0.61385 0.0
C472 C 0.07374 0.97969 0.60693 0.0
C473 C 0.05683 0.95271 0.61228 0.0
C474 C 0.07052 0.93414 0.62311 0.0
H475 H 0.16036 0.91701 0.58444 0.0
H476 H 0.12896 0.93087 0.58477 0.0
H477 H 0.16422 0.94997 0.5992 0.0
H478 H 0.14142 0.9764 0.62969 0.0
H479 H 0.11784 1.00876 0.6103 0.0
H480 H 0.73811 0.42444 0.88969 0.0
H481 H 0.78394 0.45162 0.91226 0.0
H482 H 0.81415 0.37967 0.91852 0.0
H483 H 0.76925 0.35276 0.89526 0.0
H484 H 0.804 0.445 0.96267 0.0
H485 H 0.88705 0.43437 0.88897 0.0
H486 H 0.84765 0.42587 0.88124 0.0
H487 H 0.8627 0.40183 0.89831 0.0
C488 C 0.75481 0.41456 0.89543 0.0
C489 C 0.74997 0.38641 0.89069 0.0
C490 C 0.78087 0.43006 0.90849 0.0
C491 C 0.80269 0.41777 0.91678 0.0
C492 C 0.79798 0.38976 0.91186 0.0
H493 H 0.95965 0.44818 1.01359 0.0
H494 H 0.91379 0.43051 0.98748 0.0
C495 C 0.77206 0.37431 0.89883 0.0
C496 C 0.82979 0.43367 0.9317 0.0
H497 H 0.90579 0.448 0.93311 0.0
C498 C 0.82629 0.44606 0.95602 0.0
C499 C 0.8589 0.43514 0.92297 0.0
C500 C 0.86435 0.42384 0.89631 0.0
C501 C 0.85103 0.45866 0.97242 0.0
C502 C 0.87995 0.459 0.96417 0.0
C503 C 0.88353 0.44747 0.93948 0.0
C504 C 0.90673 0.47005 0.98134 0.0
C505 C 0.84606 0.47056 0.99891 0.0
C506 C 0.91787 0.49819 0.98671 0.0
C507 C 0.94423 0.50845 1.00164 0.0
C508 C 0.95988 0.49071 1.01146 0.0
C509 C 0.94821 0.46247 1.00645 0.0
C510 C 0.92201 0.4523 0.99145 0.0
H511 H 0.82203 0.46507 1.00408 0.0
H512 H 0.85838 0.46333 1.01487 0.0
H513 H 0.85478 0.49317 0.99829 0.0
H514 H 0.90656 0.51227 0.97884 0.0
H515 H 0.95262 0.53032 1.00502 0.0
H516 H 0.86016 0.63024 0.39117 0.0
H517 H 0.81429 0.60334 0.41265 0.0
H518 H 0.78439 0.67549 0.41909 0.0
H519 H 0.82929 0.70208 0.39684 0.0
H520 H 0.79419 0.60956 0.46244 0.0
H521 H 0.71092 0.62142 0.3884 0.0
H522 H 0.75027 0.62998 0.38128 0.0
H523 H 0.73534 0.65383 0.39896 0.0
C524 C 0.84353 0.64023 0.39668 0.0
C525 C 0.84853 0.66838 0.39227 0.0
C526 C 0.8174 0.62487 0.40914 0.0
C527 C 0.79561 0.63725 0.41721 0.0
C528 C 0.80047 0.66526 0.4126 0.0
H529 H 0.63809 0.60491 0.51191 0.0
H530 H 0.68334 0.62327 0.48619 0.0
C531 C 0.82643 0.68056 0.40014 0.0
C532 C 0.76842 0.62145 0.43158 0.0
H533 H 0.69236 0.60731 0.43192 0.0
C534 C 0.7719 0.60871 0.45556 0.0
C535 C 0.73924 0.62022 0.42262 0.0
C536 C 0.73367 0.63185 0.39627 0.0
C537 C 0.74718 0.59592 0.47133 0.0
C538 C 0.71819 0.59568 0.46284 0.0
C539 C 0.71462 0.6077 0.43852 0.0
C540 C 0.69135 0.58414 0.47936 0.0
C541 C 0.75229 0.58366 0.49747 0.0
C542 C 0.68075 0.55595 0.48415 0.0
C543 C 0.65471 0.54528 0.49886 0.0
C544 C 0.63876 0.56263 0.50911 0.0
C545 C 0.64975 0.59089 0.50449 0.0
C546 C 0.67562 0.60147 0.48969 0.0
H547 H 0.7763 0.58951 0.50327 0.0
H548 H 0.73959 0.5902 0.5135 0.0
H549 H 0.74414 0.56104 0.49584 0.0
H550 H 0.69231 0.54213 0.47609 0.0
H551 H 0.64692 0.52342 0.50191 0.0
H552 H 0.3059 0.33073 0.2332 0.0
H553 H 0.27105 0.35355 0.21446 0.0
H554 H 0.26616 0.3074 0.14158 0.0
H555 H 0.29966 0.28351 0.16053 0.0
H556 H 0.27156 0.3848 0.16971 0.0
H557 H 0.17935 0.28792 0.16388 0.0
H558 H 0.21375 0.29079 0.18173 0.0
H559 H 0.21212 0.28683 0.14616 0.0
C560 C 0.29739 0.32542 0.21318 0.0
C561 C 0.30533 0.30505 0.1985 0.0
C562 C 0.27765 0.33861 0.20246 0.0
C563 C 0.26555 0.3317 0.17687 0.0
C564 C 0.27475 0.31257 0.16159 0.0
H565 H 0.13328 0.38206 0.08418 0.0
H566 H 0.17365 0.36365 0.09898 0.0
C567 C 0.29428 0.29922 0.17235 0.0
C568 C 0.24239 0.34368 0.16662 0.0
H569 H 0.1699 0.32696 0.14496 0.0
C570 C 0.24933 0.37218 0.16432 0.0
C571 C 0.21334 0.32712 0.15977 0.0
C572 C 0.20403 0.2965 0.16322 0.0
C573 C 0.22803 0.38457 0.15502 0.0
C574 C 0.19913 0.36798 0.14806 0.0
C575 C 0.19221 0.33952 0.15022 0.0
C576 C 0.17543 0.37978 0.13902 0.0
C577 C 0.23657 0.41524 0.15245 0.0
C578 C 0.16298 0.39461 0.1568 0.0
C579 C 0.13987 0.40499 0.14848 0.0
C580 C 0.12893 0.40075 0.12221 0.0
C581 C 0.14147 0.38584 0.10446 0.0
C582 C 0.16443 0.37529 0.11287 0.0
H583 H 0.26114 0.42459 0.15366 0.0
H584 H 0.22816 0.42101 0.13331 0.0
H585 H 0.22621 0.42397 0.16875 0.0
H586 H 0.17099 0.39796 0.17716 0.0
H587 H 0.1308 0.41661 0.1625 0.0
H588 H 0.62213 0.29924 0.88598 0.0
H589 H 0.60172 0.25506 0.90794 0.0
H590 H 0.69024 0.24583 0.9146 0.0
H591 H 0.71067 0.28947 0.89247 0.0
H592 H 0.60728 0.20047 0.89497 0.0
H593 H 0.65929 0.24055 0.99225 0.0
H594 H 0.65482 0.26264 0.96568 0.0
H595 H 0.68444 0.24675 0.9647 0.0
C596 C 0.63717 0.28761 0.89179 0.0
C597 C 0.66811 0.29815 0.88781 0.0
C598 C 0.6255 0.26244 0.90444 0.0
C599 C 0.64455 0.24744 0.91341 0.0
C600 C 0.67521 0.25734 0.90841 0.0
H601 H 0.6289 0.10049 1.00484 0.0
H602 H 0.64583 0.14276 0.97948 0.0
C603 C 0.68684 0.28235 0.89577 0.0
C604 C 0.63275 0.22169 0.92845 0.0
H605 H 0.63725 0.19267 0.98871 0.0
C606 C 0.61362 0.19877 0.91552 0.0
C607 C 0.64118 0.21949 0.95523 0.0
C608 C 0.66085 0.24369 0.97043 0.0
C609 C 0.60333 0.17349 0.92843 0.0
C610 C 0.61186 0.17124 0.95523 0.0
C611 C 0.63078 0.1943 0.96819 0.0
C612 C 0.6014 0.14525 0.97026 0.0
C613 C 0.58417 0.14922 0.91297 0.0
C614 C 0.5708 0.13269 0.97388 0.0
C615 C 0.56105 0.10847 0.98827 0.0
C616 C 0.58169 0.09634 0.99966 0.0
C617 C 0.61236 0.10916 0.99632 0.0
C618 C 0.62209 0.13337 0.98182 0.0
H619 H 0.58678 0.15222 0.89119 0.0
H620 H 0.58976 0.1302 0.91828 0.0
H621 H 0.56036 0.14646 0.9177 0.0
H622 H 0.55438 0.14178 0.9658 0.0
H623 H 0.53726 0.09936 0.99058 0.0
H624 H 0.97657 0.75557 0.39293 0.0
H625 H 0.99632 0.7995 0.41666 0.0
H626 H 0.90776 0.80894 0.41955 0.0
H627 H 0.88801 0.76555 0.39575 0.0
H628 H 0.99253 0.85433 0.40537 0.0
H629 H 0.93463 0.81351 0.49845 0.0
H630 H 0.93976 0.79162 0.47165 0.0
H631 H 0.91076 0.80824 0.46955 0.0
C632 C 0.96138 0.7672 0.39828 0.0
C633 C 0.93059 0.75671 0.39276 0.0
C634 C 0.97268 0.79226 0.41197 0.0
C635 C 0.95343 0.80727 0.42046 0.0
C636 C 0.92298 0.79746 0.41384 0.0
H637 H 0.96351 0.95305 0.51489 0.0
H638 H 0.94871 0.91111 0.48792 0.0
C639 C 0.91172 0.77257 0.4002 0.0
C640 C 0.96473 0.83288 0.4367 0.0
H641 H 0.95671 0.86148 0.49687 0.0
C642 C 0.98492 0.85586 0.42546 0.0
C643 C 0.95474 0.83495 0.4629 0.0
C644 C 0.93398 0.81073 0.47651 0.0
C645 C 0.99462 0.88103 0.43937 0.0
C646 C 0.9844 0.88317 0.46553 0.0
C647 C 0.96451 0.86002 0.47684 0.0
C648 C 0.99376 0.90918 0.48151 0.0
C649 C 0.01493 0.90532 0.42552 0.0
C650 C 0.02404 0.92211 0.48727 0.0
C651 C 0.0326 0.94623 0.50262 0.0
C652 C 0.01109 0.95793 0.51288 0.0
C653 C 0.98076 0.94477 0.50732 0.0
C654 C 0.97223 0.9207 0.49188 0.0
H655 H 0.0138 0.9025 0.40358 0.0
H656 H 0.00916 0.92438 0.43054 0.0
H657 H 0.03833 0.90788 0.432 0.0
H658 H 0.04111 0.91336 0.48018 0.0
H659 H 0.05615 0.95556 0.50662 0.0
H660 H 0.30791 0.78463 0.65708 0.0
H661 H 0.35136 0.7667 0.65621 0.0
H662 H 0.29654 0.69121 0.62147 0.0
H663 H 0.25307 0.70893 0.62276 0.0
H664 H 0.33542 0.6838 0.66167 0.0
H665 H 0.39465 0.75933 0.58706 0.0
H666 H 0.38392 0.77363 0.61677 0.0
H667 H 0.35567 0.75372 0.59441 0.0
C668 C 0.30526 0.7642 0.64936 0.0
C669 C 0.27746 0.74831 0.63945 0.0
C670 C 0.33001 0.75403 0.64877 0.0
C671 C 0.32726 0.72785 0.63827 0.0
C672 C 0.29916 0.71154 0.62946 0.0
H673 H 0.45344 0.65429 0.57158 0.0
H674 H 0.41391 0.67531 0.58159 0.0
C675 C 0.27443 0.72167 0.63011 0.0
C676 C 0.3537 0.71759 0.63567 0.0
H677 H 0.41961 0.72839 0.60285 0.0
C678 C 0.35396 0.69362 0.64898 0.0
C679 C 0.37766 0.73035 0.61885 0.0
C680 C 0.37801 0.75555 0.60325 0.0
C681 C 0.37744 0.68188 0.64571 0.0
C682 C 0.40137 0.69466 0.62892 0.0
C683 C 0.40129 0.71879 0.61586 0.0
C684 C 0.42574 0.68235 0.62323 0.0
C685 C 0.37597 0.65541 0.65949 0.0
C686 C 0.44571 0.67966 0.64329 0.0
C687 C 0.46831 0.66755 0.63764 0.0
C688 C 0.47125 0.65793 0.61183 0.0
C689 C 0.45146 0.66109 0.59174 0.0
C690 C 0.429 0.67325 0.59738 0.0
H691 H 0.35345 0.64557 0.66759 0.0
H692 H 0.38189 0.64083 0.6456 0.0
H693 H 0.3923 0.65954 0.67623 0.0
H694 H 0.44379 0.6869 0.66329 0.0
H695 H 0.48313 0.66529 0.65355 0.0
H696 H 0.72349 0.7997 0.8065 0.0
H697 H 0.75154 0.81421 0.76588 0.0
H698 H 0.832 0.80889 0.80516 0.0
H699 H 0.80445 0.79562 0.84618 0.0
H700 H 0.83832 0.85819 0.78366 0.0
H701 H 0.7877 0.77808 0.70856 0.0
H702 H 0.76047 0.79065 0.72524 0.0
H703 H 0.78195 0.77276 0.74377 0.0
C704 C 0.7471 0.80134 0.80641 0.0
C705 C 0.76175 0.79671 0.82967 0.0
C706 C 0.76302 0.80923 0.78304 0.0
C707 C 0.7938 0.8123 0.78238 0.0
C708 C 0.8082 0.80641 0.80518 0.0
H709 H 0.92791 0.90071 0.67052 0.0
H710 H 0.90225 0.86727 0.70323 0.0
C711 C 0.79235 0.79867 0.82859 0.0
C712 C 0.8116 0.82518 0.75926 0.0
H713 H 0.8167 0.82154 0.69174 0.0
C714 C 0.83395 0.84992 0.76362 0.0
C715 C 0.80567 0.81445 0.73312 0.0
C716 C 0.78283 0.78738 0.72739 0.0
C717 C 0.8498 0.86477 0.74249 0.0
C718 C 0.84345 0.85437 0.71629 0.0
C719 C 0.82153 0.82937 0.71189 0.0
C720 C 0.85823 0.87028 0.6933 0.0
C721 C 0.87234 0.89207 0.74828 0.0
C722 C 0.84172 0.88189 0.67601 0.0
C723 C 0.85626 0.9008 0.65709 0.0
C724 C 0.88757 0.90839 0.65518 0.0
C725 C 0.90379 0.89524 0.67134 0.0
C726 C 0.8892 0.87628 0.6902 0.0
H727 H 0.87027 0.89955 0.76877 0.0
H728 H 0.8952 0.89003 0.74617 0.0
H729 H 0.8697 0.90769 0.734 0.0
H730 H 0.81775 0.87738 0.67804 0.0
H731 H 0.8431 0.91021 0.64461 0.0
H732 H 0.79824 0.25076 0.34001 0.0
H733 H 0.77315 0.23323 0.2979 0.0
H734 H 0.85611 0.22586 0.26673 0.0
H735 H 0.88138 0.24335 0.30881 0.0
H736 H 0.78375 0.24999 0.24397 0.0
H737 H 0.79945 0.14765 0.26197 0.0
H738 H 0.80539 0.17361 0.28762 0.0
H739 H 0.83304 0.17571 0.26255 0.0
C740 C 0.81126 0.24587 0.32403 0.0
C741 C 0.84172 0.24817 0.32779 0.0
C742 C 0.79688 0.2358 0.30003 0.0
C743 C 0.8127 0.22786 0.27941 0.0
C744 C 0.84341 0.23139 0.28261 0.0
H745 H 0.74422 0.13051 0.13745 0.0
H746 H 0.77793 0.16186 0.16866 0.0
C747 C 0.85778 0.24134 0.30664 0.0
C748 C 0.79662 0.21436 0.25526 0.0
H749 H 0.77556 0.1532 0.22204 0.0
C750 C 0.78206 0.22888 0.23903 0.0
C751 C 0.79448 0.18682 0.24894 0.0
C752 C 0.80868 0.16988 0.26625 0.0
C753 C 0.76528 0.21649 0.21663 0.0
C754 C 0.76267 0.18878 0.21065 0.0
C755 C 0.77776 0.17449 0.22658 0.0
C756 C 0.74285 0.17342 0.18915 0.0
C757 C 0.75058 0.23317 0.19957 0.0
C758 C 0.71199 0.1699 0.19002 0.0
C759 C 0.6927 0.15216 0.1721 0.0
C760 C 0.70386 0.13737 0.15312 0.0
C761 C 0.73491 0.1418 0.1516 0.0
C762 C 0.7542 0.1596 0.16952 0.0
H763 H 0.76212 0.2554 0.20161 0.0
H764 H 0.75034 0.22716 0.17829 0.0
H765 H 0.72716 0.22971 0.20597 0.0
H766 H 0.70266 0.17992 0.20531 0.0
H767 H 0.66893 0.1494 0.17361 0.0
H768 H 0.49753 0.67004 0.28752 0.0
H769 H 0.50899 0.65209 0.32999 0.0
H770 H 0.41486 0.61821 0.34447 0.0
H771 H 0.40335 0.63569 0.30155 0.0
H772 H 0.49541 0.66024 0.38149 0.0
H773 H 0.44487 0.55161 0.35207 0.0
H774 H 0.45124 0.57909 0.32856 0.0
H775 H 0.41965 0.57224 0.35024 0.0
C776 C 0.47927 0.65903 0.2999 0.0
C777 C 0.44952 0.65448 0.29132 0.0
C778 C 0.48584 0.64874 0.32418 0.0
C779 C 0.46285 0.63342 0.34035 0.0
C780 C 0.43305 0.62949 0.33217 0.0
H781 H 0.49709 0.5877 0.50369 0.0
H782 H 0.4793 0.60784 0.46519 0.0
C783 C 0.42645 0.63973 0.30779 0.0
C784 C 0.47033 0.62113 0.36536 0.0
H785 H 0.46333 0.56015 0.39609 0.0
C786 C 0.48828 0.63836 0.38473 0.0
C787 C 0.46141 0.59252 0.36949 0.0
C788 C 0.44347 0.57272 0.34892 0.0
C789 C 0.49761 0.62783 0.40797 0.0
C790 C 0.48832 0.59925 0.41227 0.0
C791 C 0.47026 0.58205 0.39295 0.0
C792 C 0.49834 0.58662 0.43594 0.0
C793 C 0.5182 0.64736 0.42724 0.0
C794 C 0.51419 0.56731 0.43246 0.0
C795 C 0.52413 0.55555 0.45441 0.0
C796 C 0.5184 0.56274 0.48047 0.0
C797 C 0.50208 0.58177 0.48395 0.0
C798 C 0.49205 0.59348 0.46192 0.0
H799 H 0.52913 0.66735 0.41796 0.0
H800 H 0.50509 0.65117 0.44436 0.0
H801 H 0.5358 0.63864 0.43492 0.0
H802 H 0.51925 0.56157 0.41266 0.0
H803 H 0.53658 0.54098 0.45089 0.0
H804 H 0.19345 0.38962 0.81967 0.0
H805 H 0.17764 0.4098 0.85902 0.0
H806 H 0.08652 0.3837 0.83055 0.0
H807 H 0.10227 0.36336 0.79096 0.0
H808 H 0.15255 0.45112 0.86157 0.0
H809 H 0.0763 0.35923 0.90719 0.0
H810 H 0.10163 0.35707 0.88097 0.0
H811 H 0.067 0.36418 0.87328 0.0
C812 C 0.16999 0.38803 0.82174 0.0
C813 C 0.14919 0.37489 0.80192 0.0
C814 C 0.16095 0.39957 0.84438 0.0
C815 C 0.13081 0.39821 0.84806 0.0
C816 C 0.10983 0.38462 0.8286 0.0
H817 H 0.06817 0.5082 0.95139 0.0
H818 H 0.08297 0.48418 0.91419 0.0
C819 C 0.11887 0.37297 0.80588 0.0
C820 C 0.12191 0.41229 0.87155 0.0
H821 H 0.07641 0.40227 0.92578 0.0
C822 C 0.13593 0.44036 0.87561 0.0
C823 C 0.10049 0.39835 0.89021 0.0
C824 C 0.08566 0.36799 0.88792 0.0
C825 C 0.12894 0.45484 0.89738 0.0
C826 C 0.10685 0.44111 0.91558 0.0
C827 C 0.09314 0.41294 0.9118 0.0
C828 C 0.09766 0.45569 0.93852 0.0
C829 C 0.14576 0.48469 0.90093 0.0
C830 C 0.10027 0.44746 0.96482 0.0
C831 C 0.09168 0.46118 0.98631 0.0
C832 C 0.08003 0.48339 0.98202 0.0
C833 C 0.07726 0.49141 0.95563 0.0
C834 C 0.08586 0.47771 0.93422 0.0
H835 H 0.16726 0.49007 0.89015 0.0
H836 H 0.13205 0.49733 0.89284 0.0
H837 H 0.15043 0.4901 0.92226 0.0
H838 H 0.10917 0.43047 0.96877 0.0
H839 H 0.09399 0.45423 1.00627 0.0
H840 H 0.66484 0.79585 0.91963 0.0
H841 H 0.63979 0.82846 0.93625 0.0
H842 H 0.69861 0.89232 0.89042 0.0
H843 H 0.72498 0.86039 0.87509 0.0
H844 H 0.69595 0.90888 0.93948 0.0
H845 H 0.58056 0.86182 0.90284 0.0
H846 H 0.59405 0.83837 0.92211 0.0
H847 H 0.61178 0.85092 0.89125 0.0
C848 C 0.67245 0.81682 0.91305 0.0
C849 C 0.69694 0.8254 0.89595 0.0
C850 C 0.65777 0.83537 0.92225 0.0
C851 C 0.66695 0.86275 0.9142 0.0
C852 C 0.69095 0.87123 0.89671 0.0
H853 H 0.57017 0.9801 0.959 0.0
H854 H 0.59256 0.95023 0.93328 0.0
C855 C 0.70584 0.85282 0.88775 0.0
C856 C 0.65327 0.88307 0.92573 0.0
H857 H 0.58664 0.8957 0.93756 0.0
C858 C 0.67207 0.90613 0.93877 0.0
C859 C 0.62218 0.87976 0.92446 0.0
C860 C 0.60103 0.85653 0.90915 0.0
C861 C 0.66058 0.92545 0.95133 0.0
C862 C 0.62932 0.9212 0.95156 0.0
C863 C 0.61057 0.89872 0.93768 0.0
C864 C 0.6157 0.93929 0.96694 0.0
C865 C 0.6821 0.95028 0.96417 0.0
C866 C 0.62091 0.94268 0.99441 0.0
C867 C 0.60843 0.95985 1.00906 0.0
C868 C 0.59007 0.9737 0.99661 0.0
C869 C 0.58433 0.96984 0.96916 0.0
C870 C 0.59705 0.95275 0.95445 0.0
H871 H 0.70452 0.95499 0.95501 0.0
H872 H 0.67385 0.96854 0.96255 0.0
H873 H 0.68475 0.94623 0.98554 0.0
H874 H 0.63454 0.9319 1.00459 0.0
H875 H 0.61302 0.96203 0.03022 0.0
H876 H 0.92918 0.22634 0.36846 0.0
H877 H 0.9529 0.194 0.38843 0.0
H878 H 0.90484 0.19532 0.46088 0.0
H879 H 0.88076 0.22716 0.44105 0.0
H880 H 0.98775 0.19962 0.43842 0.0
H881 H 0.88381 0.113 0.43787 0.0
H882 H 0.88829 0.14282 0.41748 0.0
H883 H 0.88019 0.14422 0.4522 0.0
C884 C 0.92371 0.21972 0.38865 0.0
C885 C 0.90308 0.22928 0.40318 0.0
C886 C 0.93733 0.20136 0.40003 0.0
C887 C 0.93028 0.19207 0.42597 0.0
C888 C 0.91028 0.20205 0.44071 0.0
H889 H 0.97038 0.08518 0.54015 0.0
H890 H 0.95161 0.11627 0.51328 0.0
C891 C 0.89679 0.22045 0.42944 0.0
C892 C 0.94345 0.17168 0.43774 0.0
H893 H 0.92473 0.10735 0.4632 0.0
C894 C 0.97414 0.17931 0.4436 0.0
C895 C 0.92553 0.14523 0.44433 0.0
C896 C 0.89266 0.13564 0.43746 0.0
C897 C 0.98718 0.16155 0.45705 0.0
C898 C 0.96906 0.13535 0.46431 0.0
C899 C 0.93854 0.12747 0.45768 0.0
C900 C 0.98084 0.11635 0.4802 0.0
C901 C 0.01992 0.17137 0.46437 0.0
C902 C 1.00331 0.1058 0.47036 0.0
C903 C 0.01422 0.08798 0.48576 0.0
C904 C 1.00267 0.0803 0.51117 0.0
C905 C 0.97984 0.09065 0.52071 0.0
C906 C 0.96904 0.10844 0.50537 0.0
H907 H 0.02912 0.19388 0.46241 0.0
H908 H 0.02372 0.16573 0.48509 0.0
H909 H 0.03256 0.16151 0.45096 0.0
H910 H 0.01231 0.11123 0.45076 0.0
H911 H 0.03171 0.0803 0.47775 0.0
H912 H 0.36892 0.66651 0.15196 0.0
H913 H 0.3237 0.64134 0.12755 0.0
H914 H 0.27619 0.62337 0.20127 0.0
H915 H 0.32141 0.64876 0.22588 0.0
H916 H 0.28578 0.58489 0.13336 0.0
H917 H 0.22764 0.6637 0.1541 0.0
H918 H 0.26756 0.67048 0.1579 0.0
H919 H 0.24302 0.651 0.18243 0.0
C920 C 0.34887 0.65711 0.16299 0.0
C921 C 0.34865 0.65982 0.19083 0.0
C922 C 0.32311 0.64265 0.14902 0.0
C923 C 0.29652 0.63081 0.16256 0.0
C924 C 0.29642 0.63263 0.19043 0.0
H925 H 0.12954 0.52095 0.10429 0.0
H926 H 0.1772 0.54203 0.12679 0.0
C927 C 0.3223 0.64694 0.20447 0.0
C928 C 0.26874 0.61736 0.14735 0.0
H929 H 0.20022 0.62405 0.13064 0.0
C930 C 0.26703 0.59338 0.13278 0.0
C931 C 0.24453 0.62875 0.14632 0.0
C932 C 0.24567 0.65501 0.16082 0.0
C933 C 0.24148 0.58023 0.11756 0.0
C934 C 0.21704 0.59134 0.11695 0.0
C935 C 0.21896 0.61554 0.1312 0.0
C936 C 0.189 0.57789 0.10209 0.0
C937 C 0.24092 0.55472 0.10198 0.0
C938 C 0.17973 0.59109 0.0807 0.0
C939 C 0.15244 0.57904 0.06766 0.0
C940 C 0.13371 0.55374 0.07605 0.0
C941 C 0.14333 0.54046 0.09729 0.0
C942 C 0.17068 0.55241 0.11013 0.0
H943 H 0.26364 0.55232 0.09971 0.0
H944 H 0.22703 0.53659 0.11256 0.0
H945 H 0.23088 0.55501 0.08195 0.0
H946 H 0.19351 0.61085 0.07427 0.0
H947 H 0.14567 0.5899 0.0515 0.0
H948 H 0.28653 0.43824 0.73613 0.0
H949 H 0.3254 0.45977 0.70422 0.0
H950 H 0.3009 0.38624 0.65608 0.0
H951 H 0.26176 0.36486 0.68784 0.0
H952 H 0.37361 0.4413 0.6914 0.0
H953 H 0.30675 0.44528 0.60068 0.0
H954 H 0.29042 0.43944 0.63326 0.0
H955 H 0.29881 0.41203 0.61529 0.0
C956 C 0.28927 0.42685 0.71857 0.0
C957 C 0.27146 0.3998 0.71457 0.0
C958 C 0.31146 0.43912 0.70036 0.0
C959 C 0.31601 0.42473 0.67762 0.0
C960 C 0.29755 0.39796 0.6732 0.0
H961 H 0.45601 0.4602 0.55743 0.0
H962 H 0.4112 0.43934 0.58344 0.0
C963 C 0.27534 0.38568 0.69142 0.0
C964 C 0.34139 0.43706 0.65966 0.0
H965 H 0.35935 0.45614 0.5955 0.0
C966 C 0.37044 0.44466 0.67047 0.0
C967 C 0.33733 0.44123 0.63226 0.0
C968 C 0.30664 0.4343 0.61966 0.0
C969 C 0.39548 0.45609 0.65469 0.0
C970 C 0.39144 0.46058 0.62737 0.0
C971 C 0.36244 0.45273 0.61644 0.0
C972 C 0.41714 0.47394 0.61015 0.0
C973 C 0.42615 0.46282 0.66737 0.0
C974 C 0.43481 0.50064 0.61596 0.0
C975 C 0.46037 0.51257 0.60122 0.0
C976 C 0.4688 0.49817 0.58014 0.0
C977 C 0.45026 0.47187 0.57354 0.0
C978 C 0.42464 0.4599 0.5884 0.0
H979 H 0.42598 0.45152 0.68616 0.0
H980 H 0.44244 0.45792 0.65369 0.0
H981 H 0.43396 0.48502 0.67213 0.0
H982 H 0.42911 0.51213 0.63225 0.0
H983 H 0.4738 0.53298 0.60673 0.0
H984 H 0.75337 0.71814 0.9684 0.0
H985 H 0.7958 0.70037 0.9781 0.0
H986 H 0.80854 0.69128 0.89411 0.0
H987 H 0.76636 0.70939 0.8844 0.0
H988 H 0.80598 0.65021 0.96372 0.0
H989 H 0.89035 0.73903 0.9206 0.0
H990 H 0.85279 0.73958 0.92783 0.0
H991 H 0.86009 0.72233 0.89853 0.0
C992 C 0.76501 0.71193 0.95209 0.0
C993 C 0.75641 0.7146 0.9257 0.0
C994 C 0.78923 0.70191 0.95761 0.0
C995 C 0.80547 0.69481 0.93681 0.0
C996 C 0.79655 0.69701 0.91043 0.0
H997 H 0.9624 0.6361 0.93364 0.0
H998 H 0.91914 0.65181 0.92216 0.0
C999 C 0.77234 0.70705 0.9049 0.0
C1000 C 0.832 0.68552 0.94281 0.0
H1001 H 0.90753 0.70212 0.93494 0.0
C1002 C 0.8282 0.66155 0.95748 0.0
C1003 C 0.86092 0.70041 0.93461 0.0
C1004 C 0.86646 0.7269 0.91972 0.0
C1005 C 0.85257 0.65188 0.96396 0.0
C1006 C 0.88151 0.66687 0.9559 0.0
C1007 C 0.88529 0.69072 0.94106 0.0
C1008 C 0.9082 0.65822 0.9629 0.0
C1009 C 0.84711 0.6255 0.979 0.0
C1010 C 0.91672 0.65728 0.98958 0.0
C1011 C 0.94152 0.64852 0.9962 0.0
C1012 C 0.95833 0.64064 0.97623 0.0
C1013 C 0.95013 0.64229 0.94947 0.0
C1014 C 0.92533 0.65109 0.94288 0.0
H1015 H 0.8233 0.61316 0.97786 0.0
H1016 H 0.86112 0.61298 0.97121 0.0
H1017 H 0.85311 0.63022 1.00024 0.0
H1018 H 0.90416 0.66331 1.00529 0.0
H1019 H 0.94755 0.64793 1.01696 0.0
H1020 H 0.3864 0.75746 0.18966 0.0
H1021 H 0.40858 0.8011 0.16804 0.0
H1022 H 0.49647 0.79234 0.18185 0.0
H1023 H 0.47428 0.74804 0.20294 0.0
H1024 H 0.4487 0.84895 0.18602 0.0
H1025 H 0.49534 0.80441 0.10152 0.0
H1026 H 0.46853 0.78369 0.12402 0.0
H1027 H 0.50708 0.79671 0.13388 0.0
C1028 C 0.41047 0.76471 0.18801 0.0
C1029 C 0.42854 0.74902 0.1977 0.0
C1030 C 0.42313 0.78978 0.17577 0.0
C1031 C 0.45416 0.7998 0.17285 0.0
C1032 C 0.47242 0.78476 0.18339 0.0
H1033 H 0.54427 0.96633 0.12148 0.0
H1034 H 0.52693 0.92415 0.14671 0.0
C1035 C 0.45974 0.75959 0.19571 0.0
C1036 C 0.46703 0.82582 0.15844 0.0
H1037 H 0.50587 0.85251 0.10293 0.0
C1038 C 0.46133 0.84976 0.16792 0.0
C1039 C 0.4831 0.82679 0.13457 0.0
C1040 C 0.48871 0.80152 0.12268 0.0
C1041 C 0.47124 0.87459 0.15425 0.0
C1042 C 0.48773 0.87566 0.13062 0.0
C1043 C 0.49341 0.85172 0.12112 0.0
C1044 C 0.49865 0.90126 0.11515 0.0
C1045 C 0.46321 0.89926 0.16484 0.0
C1046 C 0.48915 0.90232 0.08873 0.0
C1047 C 0.49916 0.92641 0.07413 0.0
C1048 C 0.51905 0.94997 0.08562 0.0
C1049 C 0.5288 0.94871 0.11201 0.0
C1050 C 0.51879 0.92461 0.12656 0.0
H1051 H 0.44437 0.89344 0.17897 0.0
H1052 H 0.48279 0.91286 0.17556 0.0
H1053 H 0.45703 0.91104 0.14841 0.0
H1054 H 0.47372 0.88452 0.07945 0.0
H1055 H 0.49126 0.92655 0.05386 0.0
H1056 H 0.12913 0.28051 0.76264 0.0
H1057 H 0.10946 0.23633 0.73929 0.0
H1058 H 0.12489 0.27727 0.66405 0.0
H1059 H 0.14376 0.32128 0.687 0.0
H1060 H 0.06064 0.21944 0.69429 0.0
H1061 H 0.17508 0.21888 0.66582 0.0
H1062 H 0.16814 0.23861 0.69373 0.0
H1063 H 0.16549 0.25014 0.66048 0.0
C1064 C 0.12776 0.28017 0.74115 0.0
C1065 C 0.13847 0.30452 0.72676 0.0
C1066 C 0.11667 0.25487 0.72782 0.0
C1067 C 0.11616 0.25345 0.6999 0.0
C1068 C 0.12548 0.2778 0.68558 0.0
H1069 H 0.08763 0.12895 0.57599 0.0
H1070 H 0.10102 0.17078 0.60312 0.0
C1071 C 0.13637 0.30298 0.69879 0.0
C1072 C 0.10712 0.22665 0.68544 0.0
H1073 H 0.13492 0.18459 0.64666 0.0
C1074 C 0.07685 0.21164 0.68405 0.0
C1075 C 0.12826 0.21663 0.67188 0.0
C1076 C 0.16113 0.23171 0.67308 0.0
C1077 C 0.06707 0.18726 0.66888 0.0
C1078 C 0.08826 0.17718 0.65525 0.0
C1079 C 0.1186 0.19215 0.65699 0.0
C1080 C 0.07955 0.15148 0.63873 0.0
C1081 C 0.034 0.17317 0.66682 0.0
C1082 C 0.06329 0.12641 0.64962 0.0
C1083 C 0.05537 0.10242 0.63404 0.0
C1084 C 0.06391 0.10277 0.60724 0.0
C1085 C 0.08063 0.1278 0.5965 0.0
C1086 C 0.08833 0.15182 0.61205 0.0
H1087 H 0.02064 0.18737 0.67156 0.0
H1088 H 0.02761 0.16449 0.6466 0.0
H1089 H 0.02804 0.15622 0.68127 0.0
H1090 H 0.05693 0.12527 0.6703 0.0
H1091 H 0.04273 0.08353 0.64311 0.0
H1092 H 0.78549 0.28421 0.3967 0.0
H1093 H 0.74747 0.30864 0.39227 0.0
H1094 H 0.79821 0.37137 0.44617 0.0
H1095 H 0.83623 0.34712 0.45038 0.0
H1096 H 0.71459 0.3191 0.43455 0.0
H1097 H 0.77584 0.41595 0.38667 0.0
H1098 H 0.7891 0.38604 0.38639 0.0
H1099 H 0.79509 0.40816 0.41518 0.0
C1100 C 0.78855 0.30339 0.4073 0.0
C1101 C 0.81337 0.31365 0.42422 0.0
C1102 C 0.76696 0.31732 0.40473 0.0
C1103 C 0.77015 0.34194 0.4187 0.0
C1104 C 0.79556 0.35269 0.43482 0.0
H1105 H 0.66789 0.44466 0.47172 0.0
H1106 H 0.70609 0.42358 0.45783 0.0
C1107 C 0.81711 0.33875 0.43741 0.0
C1108 C 0.74567 0.35501 0.41861 0.0
H1109 H 0.73054 0.41579 0.4089 0.0
C1110 C 0.71785 0.34009 0.4285 0.0
C1111 C 0.75009 0.3824 0.41079 0.0
C1112 C 0.77907 0.399 0.39892 0.0
C1113 C 0.69479 0.35224 0.43209 0.0
C1114 C 0.6995 0.37992 0.42504 0.0
C1115 C 0.72699 0.39458 0.41428 0.0
C1116 C 0.67703 0.39454 0.43073 0.0
C1117 C 0.66616 0.33575 0.4447 0.0
C1118 C 0.64824 0.3858 0.41943 0.0
C1119 C 0.62628 0.39781 0.42738 0.0
C1120 C 0.63285 0.41898 0.44654 0.0
C1121 C 0.66215 0.42861 0.45673 0.0
C1122 C 0.68401 0.41651 0.44888 0.0
H1123 H 0.66859 0.31687 0.45408 0.0
H1124 H 0.65874 0.34804 0.46003 0.0
H1125 H 0.64838 0.32958 0.42922 0.0
H1126 H 0.64258 0.36925 0.40495 0.0
H1127 H 0.60403 0.39023 0.41889 0.0
loop_
_geom_bond_atom_site_label_1
_geom_bond_atom_site_label_2
_geom_bond_distance
_geom_bond_site_symmetry_2
_ccdc_geom_bond_type
H0 C7 0.929 . S
H1 C10 0.930 . S
H2 C12 0.929 . S
H3 C4 0.969 . S
C4 H3 0.969 . S
C4 O5 1.550 . S
C4 H6 0.973 . S
O5 C4 1.550 . S
O5 C11 1.412 . S
H6 C4 0.973 . S
C7 H0 0.929 . S
C7 C8 1.400 . S
C7 C9 1.364 . S
C8 C7 1.400 . S
C8 C12 1.377 . S
C9 C7 1.364 . S
C9 C10 1.374 . S
C10 H1 0.930 . S
C10 C9 1.374 . S
C10 C11 1.383 . S
C11 O5 1.412 . S
C11 C10 1.383 . S
C11 C12 1.394 . S
C12 H2 0.929 . S
C12 C8 1.377 . S
C12 C11 1.394 . S
H13 C20 0.929 . S
H14 C23 0.930 . S
H15 C25 0.929 . S
H16 C17 0.969 . S
C17 H16 0.969 . S
C17 O18 1.550 . S
C17 H19 0.973 . S
O18 C17 1.550 . S
O18 C24 1.412 . S
H19 C17 0.973 . S
C20 H13 0.929 . S
C20 C21 1.400 . S
C20 C22 1.364 . S
C21 C20 1.400 . S
C21 C25 1.377 . S
C22 C20 1.364 . S
C22 C23 1.374 . S
C23 H14 0.930 . S
C23 C22 1.374 . S
C23 C24 1.383 . S
C24 O18 1.412 . S
C24 C23 1.383 . S
C24 C25 1.394 . S
C25 H15 0.929 . S
C25 C21 1.377 . S
C25 C24 1.394 . S
H26 C33 0.929 . S
H27 C36 0.930 . S
H28 C38 0.929 . S
H29 C30 0.969 . S
C30 H29 0.969 . S
C30 O31 1.550 . S
C30 H32 0.973 . S
O31 C30 1.550 . S
O31 C37 1.412 . S
H32 C30 0.973 . S
C33 H26 0.929 . S
C33 C34 1.400 . S
C33 C35 1.364 . S
C34 C33 1.400 . S
C34 C38 1.377 . S
C35 C33 1.364 . S
C35 C36 1.374 . S
C36 H27 0.930 . S
C36 C35 1.374 . S
C36 C37 1.383 . S
C37 O31 1.412 . S
C37 C36 1.383 . S
C37 C38 1.394 . S
C38 H28 0.929 . S
C38 C34 1.377 . S
C38 C37 1.394 . S
H39 C46 0.929 . S
H40 C49 0.930 . S
H41 C51 0.929 . S
H42 C43 0.969 . S
C43 H42 0.969 . S
C43 O44 1.550 . S
C43 H45 0.973 . S
O44 C43 1.550 . S
O44 C50 1.412 . S
H45 C43 0.973 . S
C46 H39 0.929 . S
C46 C47 1.400 . S
C46 C48 1.364 . S
C47 C46 1.400 . S
C47 C51 1.377 . S
C48 C46 1.364 . S
C48 C49 1.374 . S
C49 H40 0.930 . S
C49 C48 1.374 . S
C49 C50 1.383 . S
C50 O44 1.412 . S
C50 C49 1.383 . S
C50 C51 1.394 . S
C51 H41 0.929 . S
C51 C47 1.377 . S
C51 C50 1.394 . S
H52 C59 0.929 . S
H53 C62 0.930 . S
H54 C64 0.929 . S
H55 C56 0.969 . S
C56 H55 0.969 . S
C56 O57 1.550 . S
C56 H58 0.973 . S
O57 C56 1.550 . S
O57 C63 1.412 . S
H58 C56 0.973 . S
C59 H52 0.929 . S
C59 C60 1.400 . S
C59 C61 1.364 . S
C60 C59 1.400 . S
C60 C64 1.377 . S
C61 C59 1.364 . S
C61 C62 1.374 . S
C62 H53 0.930 . S
C62 C61 1.374 . S
C62 C63 1.383 . S
C63 O57 1.412 . S
C63 C62 1.383 . S
C63 C64 1.394 . S
C64 H54 0.929 . S
C64 C60 1.377 . S
C64 C63 1.394 . S
H65 C72 0.929 . S
H66 C75 0.930 . S
H67 C77 0.929 . S
H68 C69 0.969 . S
C69 H68 0.969 . S
C69 O70 1.550 . S
C69 H71 0.973 . S
O70 C69 1.550 . S
O70 C76 1.412 . S
H71 C69 0.973 . S
C72 H65 0.929 . S
C72 C73 1.400 . S
C72 C74 1.364 . S
C73 C72 1.400 . S
C73 C77 1.377 . S
C74 C72 1.364 . S
C74 C75 1.374 . S
C75 H66 0.930 . S
C75 C74 1.374 . S
C75 C76 1.383 . S
C76 O70 1.412 . S
C76 C75 1.383 . S
C76 C77 1.394 . S
C77 H67 0.929 . S
C77 C73 1.377 . S
C77 C76 1.394 . S
H78 C85 0.929 . S
H79 C88 0.930 . S
H80 C90 0.929 . S
H81 C82 0.969 . S
C82 H81 0.969 . S
C82 O83 1.550 . S
C82 H84 0.973 . S
O83 C82 1.550 . S
O83 C89 1.412 . S
H84 C82 0.973 . S
C85 H78 0.929 . S
C85 C86 1.400 . S
C85 C87 1.364 . S
C86 C85 1.400 . S
C86 C90 1.377 . S
C87 C85 1.364 . S
C87 C88 1.374 . S
C88 H79 0.930 . S
C88 C87 1.374 . S
C88 C89 1.383 . S
C89 O83 1.412 . S
C89 C88 1.383 . S
C89 C90 1.394 . S
C90 H80 0.929 . S
C90 C86 1.377 . S
C90 C89 1.394 . S
H91 C98 0.929 . S
H92 C101 0.930 . S
H93 C103 0.929 . S
H94 C95 0.969 . S
C95 H94 0.969 . S
C95 O96 1.550 . S
C95 H97 0.973 . S
O96 C95 1.550 . S
O96 C102 1.412 . S
H97 C95 0.973 . S
C98 H91 0.929 . S
C98 C99 1.400 . S
C98 C100 1.364 . S
C99 C98 1.400 . S
C99 C103 1.377 . S
C100 C98 1.364 . S
C100 C101 1.374 . S
C101 H92 0.930 . S
C101 C100 1.374 . S
C101 C102 1.383 . S
C102 O96 1.412 . S
C102 C101 1.383 . S
C102 C103 1.394 . S
C103 H93 0.929 . S
C103 C99 1.377 . S
C103 C102 1.394 . S
Dy104 O107 2.308 . S
Dy104 O109 2.395 . S
Dy104 O110 2.379 . S
Dy104 O112 2.339 1_545 S
Dy104 O114 2.298 . S
Dy104 O118 2.275 . S
Dy104 C126 2.738 . S
Dy105 O108 2.296 1_655 S
Dy105 O111 2.275 1_545 S
Dy105 O113 2.307 . S
Dy105 O115 2.395 1_545 S
Dy105 O116 2.379 . S
Dy105 O119 2.339 1_655 S
Dy105 C135 2.738 1_545 S
C106 O118 1.254 . S
C106 O119 1.257 . S
O107 Dy104 2.308 . S
O107 C117 1.266 1_545 S
O108 Dy105 2.296 1_455 S
O108 C117 1.237 1_545 S
O109 Dy104 2.395 . S
O109 C126 1.255 . S
O110 Dy104 2.379 . S
O110 C126 1.249 . S
O111 Dy105 2.275 1_565 S
O111 C127 1.254 1_655 S
O112 Dy104 2.339 1_565 S
O112 C127 1.257 . S
O113 Dy105 2.307 . S
O113 C128 1.266 . S
O114 Dy104 2.298 . S
O114 C128 1.236 1_455 S
O115 Dy105 2.395 1_565 S
O115 C135 1.255 . S
O116 Dy105 2.379 . S
O116 C135 1.249 1_545 S
C117 O107 1.266 1_565 S
C117 O108 1.237 1_565 S
O118 Dy104 2.275 . S
O118 C106 1.254 . S
O119 Dy105 2.339 1_455 S
O119 C106 1.257 . S
C120 C123 1.344 . S
C120 C124 1.328 . S
C120 C126 1.516 . S
C121 C122 1.304 . S
C121 C125 1.323 . S
C122 C121 1.304 . S
C122 C123 1.371 . S
C122 H136 0.930 . S
C123 C120 1.344 . S
C123 C122 1.371 . S
C123 H137 0.931 . S
C124 C120 1.328 . S
C124 C125 1.433 . S
C124 H138 0.931 . S
C125 C121 1.323 . S
C125 C124 1.433 . S
C125 H139 0.933 . S
C126 Dy104 2.738 . S
C126 O109 1.255 . S
C126 O110 1.249 . S
C126 C120 1.516 . S
C127 O111 1.254 1_455 S
C127 O112 1.257 . S
C128 O113 1.266 . S
C128 O114 1.236 1_655 S
C129 C132 1.344 . S
C129 C133 1.328 . S
C129 C135 1.516 . S
C130 C131 1.304 . S
C130 C134 1.323 . S
C131 C130 1.304 . S
C131 C132 1.371 . S
C131 H140 0.930 . S
C132 C129 1.344 . S
C132 C131 1.371 . S
C132 H141 0.931 . S
C133 C129 1.328 . S
C133 C134 1.433 . S
C133 H142 0.931 . S
C134 C130 1.323 . S
C134 C133 1.433 . S
C134 H143 0.933 . S
C135 Dy105 2.738 1_565 S
C135 O115 1.255 . S
C135 O116 1.249 1_565 S
C135 C129 1.516 . S
H136 C122 0.930 . S
H137 C123 0.931 . S
H138 C124 0.931 . S
H139 C125 0.933 . S
H140 C131 0.930 . S
H141 C132 0.931 . S
H142 C133 0.931 . S
H143 C134 0.933 . S
Dy144 O147 2.307 1_556 S
Dy144 O149 2.395 1_545 S
Dy144 O150 2.379 1_545 S
Dy144 O152 2.339 . S
Dy144 O154 2.298 1_545 S
Dy144 O158 2.275 1_546 S
Dy144 C166 2.738 1_545 S
Dy145 O148 2.298 . S
Dy145 O151 2.239 1_554 S
Dy145 O153 2.307 1_545 S
Dy145 O155 2.395 . S
Dy145 O156 2.379 . S
Dy145 O159 2.339 1_545 S
Dy145 C175 2.738 . S
C146 O158 1.254 . S
C146 O159 1.257 . S
O147 Dy144 2.307 1_554 S
O147 C157 1.266 . S
O148 Dy145 2.298 . S
O148 C157 1.236 . S
O149 Dy144 2.395 1_565 S
O149 C166 1.255 . S
O150 Dy144 2.379 1_565 S
O150 C166 1.249 . S
O151 Dy145 2.239 1_556 S
O151 C167 1.289 . S
O152 Dy144 2.339 . S
O152 C167 1.257 . S
O153 Dy145 2.307 1_565 S
O153 C168 1.266 1_554 S
O154 Dy144 2.298 1_565 S
O154 C168 1.236 . S
O155 Dy145 2.395 . S
O155 C175 1.255 . S
O156 Dy145 2.379 . S
O156 C175 1.249 . S
C157 O147 1.266 . S
C157 O148 1.236 . S
O158 Dy144 2.275 1_564 S
O158 C146 1.254 . S
O159 Dy145 2.339 1_565 S
O159 C146 1.257 . S
C160 C163 1.344 . S
C160 C164 1.328 . S
C160 C166 1.516 . S
C161 C162 1.304 . S
C161 C165 1.323 . S
C162 C161 1.304 . S
C162 C163 1.371 . S
C162 H176 0.930 . S
C163 C160 1.344 . S
C163 C162 1.371 . S
C163 H177 0.931 . S
C164 C160 1.328 . S
C164 C165 1.433 . S
C164 H178 0.931 . S
C165 C161 1.323 . S
C165 C164 1.433 . S
C165 H179 0.933 . S
C166 Dy144 2.738 1_565 S
C166 O149 1.255 . S
C166 O150 1.249 . S
C166 C160 1.516 . S
C167 O151 1.289 . S
C167 O152 1.257 . S
C168 O153 1.266 1_556 S
C168 O154 1.236 . S
C169 C172 1.344 . S
C169 C173 1.328 . S
C169 C175 1.516 . S
C170 C171 1.304 . S
C170 C174 1.323 . S
C171 C170 1.304 . S
C171 C172 1.371 . S
C171 H180 0.930 . S
C172 C169 1.344 . S
C172 C171 1.371 . S
C172 H181 0.931 . S
C173 C169 1.328 . S
C173 C174 1.433 . S
C173 H182 0.931 . S
C174 C170 1.323 . S
C174 C173 1.433 . S
C174 H183 0.933 . S
C175 Dy145 2.738 . S
C175 O155 1.255 . S
C175 O156 1.249 . S
C175 C169 1.516 . S
H176 C162 0.930 . S
H177 C163 0.931 . S
H178 C164 0.931 . S
H179 C165 0.933 . S
H180 C171 0.930 . S
H181 C172 0.931 . S
H182 C173 0.931 . S
H183 C174 0.933 . S
Dy184 O187 2.307 . S
Dy184 O189 2.395 . S
Dy184 O190 2.379 . S
Dy184 O192 2.339 . S
Dy184 O194 2.298 . S
Dy184 O198 2.275 . S
Dy184 C206 2.738 . S
Dy185 O188 2.298 . S
Dy185 O191 2.275 . S
Dy185 O193 2.307 . S
Dy185 O195 2.395 . S
Dy185 O196 2.379 . S
Dy185 O199 2.339 . S
Dy185 C215 2.738 . S
C186 O198 1.254 . S
C186 O199 1.257 . S
O187 Dy184 2.307 . S
O187 C197 1.266 . S
O188 Dy185 2.298 . S
O188 C197 1.236 . S
O189 Dy184 2.395 . S
O189 C206 1.255 . S
O190 Dy184 2.379 . S
O190 C206 1.249 . S
O191 Dy185 2.275 . S
O191 C207 1.254 . S
O192 Dy184 2.339 . S
O192 C207 1.257 . S
O193 Dy185 2.307 . S
O193 C208 1.266 . S
O194 Dy184 2.298 . S
O194 C208 1.236 . S
O195 Dy185 2.395 . S
O195 C215 1.255 . S
O196 Dy185 2.379 . S
O196 C215 1.249 . S
C197 O187 1.266 . S
C197 O188 1.236 . S
O198 Dy184 2.275 . S
O198 C186 1.254 . S
O199 Dy185 2.339 . S
O199 C186 1.257 . S
C200 C203 1.344 . S
C200 C204 1.328 . S
C200 C206 1.516 . S
C201 C202 1.304 . S
C201 C205 1.323 . S
C202 C201 1.304 . S
C202 C203 1.371 . S
C202 H216 0.930 . S
C203 C200 1.344 . S
C203 C202 1.371 . S
C203 H217 0.931 . S
C204 C200 1.328 . S
C204 C205 1.433 . S
C204 H218 0.931 . S
C205 C201 1.323 . S
C205 C204 1.433 . S
C205 H219 0.933 . S
C206 Dy184 2.738 . S
C206 O189 1.255 . S
C206 O190 1.249 . S
C206 C200 1.516 . S
C207 O191 1.254 . S
C207 O192 1.257 . S
C208 O193 1.266 . S
C208 O194 1.236 . S
C209 C212 1.344 . S
C209 C213 1.328 . S
C209 C215 1.516 . S
C210 C211 1.304 . S
C210 C214 1.323 . S
C211 C210 1.304 . S
C211 C212 1.371 . S
C211 H220 0.930 . S
C212 C209 1.344 . S
C212 C211 1.371 . S
C212 H221 0.931 . S
C213 C209 1.328 . S
C213 C214 1.433 . S
C213 H222 0.931 . S
C214 C210 1.323 . S
C214 C213 1.433 . S
C214 H223 0.933 . S
C215 Dy185 2.738 . S
C215 O195 1.255 . S
C215 O196 1.249 . S
C215 C209 1.516 . S
H216 C202 0.930 . S
H217 C203 0.931 . S
H218 C204 0.931 . S
H219 C205 0.933 . S
H220 C211 0.930 . S
H221 C212 0.931 . S
H222 C213 0.931 . S
H223 C214 0.933 . S
Dy224 O227 2.307 . S
Dy224 O229 2.395 1_455 S
Dy224 O230 2.379 1_554 S
Dy224 O232 2.339 1_554 S
Dy224 O234 2.298 1_455 S
Dy224 O238 2.275 . S
Dy224 C246 2.738 1_454 S
Dy225 O228 2.298 . S
Dy225 O231 2.275 . S
Dy225 O233 2.307 1_455 S
Dy225 O235 2.395 . S
Dy225 O236 2.379 . S
Dy225 O239 2.339 . S
Dy225 C255 2.738 . S
C226 O238 1.254 . S
C226 O239 1.257 . S
O227 Dy224 2.307 . S
O227 C237 1.266 . S
O228 Dy225 2.298 . S
O228 C237 1.236 . S
O229 Dy224 2.395 1_655 S
O229 C246 1.255 1_554 S
O230 Dy224 2.379 1_556 S
O230 C246 1.249 1_455 S
O231 Dy225 2.275 . S
O231 C247 1.254 1_554 S
O232 Dy224 2.339 1_556 S
O232 C247 1.257 . S
O233 Dy225 2.307 1_655 S
O233 C248 1.266 . S
O234 Dy224 2.298 1_655 S
O234 C248 1.236 . S
O235 Dy225 2.395 . S
O235 C255 1.255 . S
O236 Dy225 2.379 . S
O236 C255 1.249 . S
C237 O227 1.266 . S
C237 O228 1.236 . S
O238 Dy224 2.275 . S
O238 C226 1.254 . S
O239 Dy225 2.339 . S
O239 C226 1.257 . S
C240 C243 1.344 . S
C240 C244 1.328 . S
C240 C246 1.516 . S
C241 C242 1.304 . S
C241 C245 1.323 . S
C242 C241 1.304 . S
C242 C243 1.371 . S
C242 H256 0.930 . S
C243 C240 1.344 . S
C243 C242 1.371 . S
C243 H257 0.931 1_556 S
C244 C240 1.328 . S
C244 C245 1.433 . S
C244 H258 0.931 . S
C245 C241 1.323 . S
C245 C244 1.433 . S
C245 H259 0.933 . S
C246 Dy224 2.738 1_656 S
C246 O229 1.255 1_556 S
C246 O230 1.249 1_655 S
C246 C240 1.516 . S
C247 O231 1.254 1_556 S
C247 O232 1.257 . S
C248 O233 1.266 . S
C248 O234 1.236 . S
C249 C252 1.344 . S
C249 C253 1.328 . S
C249 C255 1.516 . S
C250 C251 1.304 . S
C250 C254 1.323 . S
C251 C250 1.304 . S
C251 C252 1.371 . S
C251 H260 0.930 . S
C252 C249 1.344 . S
C252 C251 1.371 . S
C252 H261 0.931 . S
C253 C249 1.328 . S
C253 C254 1.433 . S
C253 H262 0.931 . S
C254 C250 1.323 . S
C254 C253 1.433 . S
C254 H263 0.933 . S
C255 Dy225 2.738 . S
C255 O235 1.255 . S
C255 O236 1.249 . S
C255 C249 1.516 . S
H256 C242 0.930 . S
H257 C243 0.931 1_554 S
H258 C244 0.931 . S
H259 C245 0.933 . S
H260 C251 0.930 . S
H261 C252 0.931 . S
H262 C253 0.931 . S
H263 C254 0.933 . S
H264 C272 0.929 . S
H265 C274 0.930 . S
H266 C276 0.930 . S
H267 C279 0.929 . S
H268 C282 0.930 . S
H269 C284 0.960 . S
H270 C284 0.960 . S
H271 C284 0.960 . S
C272 H264 0.929 . S
C272 C273 1.377 . S
C272 C274 1.384 . S
C273 C272 1.377 . S
C273 C279 1.390 . S
C274 H265 0.930 . S
C274 C272 1.384 . S
C274 C275 1.372 . S
C275 C274 1.372 . S
C275 C276 1.400 . S
C275 C280 1.490 . S
C276 H266 0.930 . S
C276 C275 1.400 . S
C276 C279 1.386 . S
H277 C293 0.930 . S
H278 C294 0.931 . S
C279 H267 0.929 . S
C279 C273 1.390 . S
C279 C276 1.386 . S
C280 C275 1.490 . S
C280 C282 1.395 . S
C280 C283 1.403 . S
H281 C287 0.930 . S
C282 H268 0.930 . S
C282 C280 1.395 . S
C282 C285 1.403 . S
C283 C280 1.403 . S
C283 C284 1.524 . S
C283 C287 1.400 . S
C284 H269 0.960 . S
C284 H270 0.960 . S
C284 H271 0.960 . S
C284 C283 1.524 . S
C285 C282 1.403 . S
C285 C286 1.392 . S
C285 C289 1.495 . S
C286 C285 1.392 . S
C286 C287 1.385 . S
C286 C288 1.478 . S
C287 H281 0.930 . S
C287 C283 1.400 . S
C287 C286 1.385 . S
C288 C286 1.478 . S
C288 C290 1.381 . S
C288 C294 1.383 . S
C289 C285 1.495 . S
C289 H295 0.959 . S
C289 H296 0.961 . S
C289 H297 0.960 . S
C290 C288 1.381 . S
C290 C291 1.394 . S
C290 H298 0.930 . S
C291 C290 1.394 . S
C291 C292 1.383 . S
C291 H299 0.929 . S
C292 C291 1.383 . S
C292 C293 1.377 . S
C293 H277 0.930 . S
C293 C292 1.377 . S
C293 C294 1.379 . S
C294 H278 0.931 . S
C294 C288 1.383 . S
C294 C293 1.379 . S
H295 C289 0.959 . S
H296 C289 0.961 . S
H297 C289 0.960 . S
H298 C290 0.930 . S
H299 C291 0.929 . S
H300 C308 0.929 . S
H301 C310 0.930 . S
H302 C312 0.930 . S
H303 C315 0.929 . S
H304 C318 0.930 . S
H305 C320 0.960 . S
H306 C320 0.960 . S
H307 C320 0.960 . S
C308 H300 0.929 . S
C308 C309 1.377 . S
C308 C310 1.384 . S
C309 C308 1.377 . S
C309 C315 1.390 . S
C310 H301 0.930 . S
C310 C308 1.384 . S
C310 C311 1.372 . S
C311 C310 1.372 . S
C311 C312 1.400 . S
C311 C316 1.490 . S
C312 H302 0.930 . S
C312 C311 1.400 . S
C312 C315 1.386 . S
H313 C329 0.930 . S
H314 C330 0.931 . S
C315 H303 0.929 . S
C315 C309 1.390 . S
C315 C312 1.386 . S
C316 C311 1.490 . S
C316 C318 1.395 . S
C316 C319 1.403 . S
H317 C323 0.930 . S
C318 H304 0.930 . S
C318 C316 1.395 . S
C318 C321 1.403 . S
C319 C316 1.403 . S
C319 C320 1.524 . S
C319 C323 1.400 . S
C320 H305 0.960 . S
C320 H306 0.960 . S
C320 H307 0.960 . S
C320 C319 1.524 . S
C321 C318 1.403 . S
C321 C322 1.392 . S
C321 C325 1.495 . S
C322 C321 1.392 . S
C322 C323 1.385 . S
C322 C324 1.478 . S
C323 H317 0.930 . S
C323 C319 1.400 . S
C323 C322 1.385 . S
C324 C322 1.478 . S
C324 C326 1.381 . S
C324 C330 1.383 . S
C325 C321 1.495 . S
C325 H331 0.959 . S
C325 H332 0.961 . S
C325 H333 0.960 . S
C326 C324 1.381 . S
C326 C327 1.394 . S
C326 H334 0.930 . S
C327 C326 1.394 . S
C327 C328 1.383 . S
C327 H335 0.929 . S
C328 C327 1.383 . S
C328 C329 1.377 . S
C329 H313 0.930 . S
C329 C328 1.377 . S
C329 C330 1.379 . S
C330 H314 0.931 . S
C330 C324 1.383 . S
C330 C329 1.379 . S
H331 C325 0.959 . S
H332 C325 0.961 . S
H333 C325 0.960 . S
H334 C326 0.930 . S
H335 C327 0.929 . S
H336 C344 0.929 . S
H337 C346 0.930 . S
H338 C348 0.930 . S
H339 C351 0.929 . S
H340 C354 0.930 . S
H341 C356 0.960 . S
H342 C356 0.960 . S
H343 C356 0.960 . S
C344 H336 0.929 . S
C344 C345 1.377 . S
C344 C346 1.384 . S
C345 C344 1.377 . S
C345 C351 1.390 . S
C346 H337 0.930 . S
C346 C344 1.384 . S
C346 C347 1.372 . S
C347 C346 1.372 . S
C347 C348 1.400 . S
C347 C352 1.490 . S
C348 H338 0.930 . S
C348 C347 1.400 . S
C348 C351 1.386 . S
H349 C365 0.930 . S
H350 C366 0.931 . S
C351 H339 0.929 . S
C351 C345 1.390 . S
C351 C348 1.386 . S
C352 C347 1.490 . S
C352 C354 1.395 . S
C352 C355 1.403 . S
H353 C359 0.930 . S
C354 H340 0.930 . S
C354 C352 1.395 . S
C354 C357 1.403 . S
C355 C352 1.403 . S
C355 C356 1.524 . S
C355 C359 1.400 . S
C356 H341 0.960 . S
C356 H342 0.960 . S
C356 H343 0.960 . S
C356 C355 1.524 . S
C357 C354 1.403 . S
C357 C358 1.392 . S
C357 C361 1.495 . S
C358 C357 1.392 . S
C358 C359 1.385 . S
C358 C360 1.478 . S
C359 H353 0.930 . S
C359 C355 1.400 . S
C359 C358 1.385 . S
C360 C358 1.478 . S
C360 C362 1.381 . S
C360 C366 1.383 . S
C361 C357 1.495 . S
C361 H367 0.959 . S
C361 H368 0.961 . S
C361 H369 0.960 . S
C362 C360 1.381 . S
C362 C363 1.394 . S
C362 H370 0.930 . S
C363 C362 1.394 . S
C363 C364 1.383 . S
C363 H371 0.929 . S
C364 C363 1.383 . S
C364 C365 1.377 . S
C365 H349 0.930 . S
C365 C364 1.377 . S
C365 C366 1.379 . S
C366 H350 0.931 . S
C366 C360 1.383 . S
C366 C365 1.379 . S
H367 C361 0.959 . S
H368 C361 0.961 . S
H369 C361 0.960 . S
H370 C362 0.930 . S
H371 C363 0.929 . S
H372 C380 0.929 . S
H373 C382 0.930 . S
H374 C384 0.930 . S
H375 C387 0.929 . S
H376 C390 0.930 . S
H377 C392 0.960 . S
H378 C392 0.960 . S
H379 C392 0.960 . S
C380 H372 0.929 . S
C380 C381 1.377 . S
C380 C382 1.384 . S
C381 C380 1.377 . S
C381 C387 1.390 . S
C382 H373 0.930 . S
C382 C380 1.384 . S
C382 C383 1.372 . S
C383 C382 1.372 . S
C383 C384 1.400 . S
C383 C388 1.490 . S
C384 H374 0.930 . S
C384 C383 1.400 . S
C384 C387 1.386 . S
H385 C401 0.930 . S
H386 C402 0.931 . S
C387 H375 0.929 . S
C387 C381 1.390 . S
C387 C384 1.386 . S
C388 C383 1.490 . S
C388 C390 1.395 . S
C388 C391 1.403 . S
H389 C395 0.930 . S
C390 H376 0.930 . S
C390 C388 1.395 . S
C390 C393 1.403 . S
C391 C388 1.403 . S
C391 C392 1.524 . S
C391 C395 1.400 . S
C392 H377 0.960 . S
C392 H378 0.960 . S
C392 H379 0.960 . S
C392 C391 1.524 . S
C393 C390 1.403 . S
C393 C394 1.392 . S
C393 C397 1.495 . S
C394 C393 1.392 . S
C394 C395 1.385 . S
C394 C396 1.478 . S
C395 H389 0.930 . S
C395 C391 1.400 . S
C395 C394 1.385 . S
C396 C394 1.478 . S
C396 C398 1.420 . S
C396 C402 1.383 . S
C397 C393 1.495 . S
C397 H403 0.959 . S
C397 H404 0.961 . S
C397 H405 0.960 . S
C398 C396 1.420 . S
C398 C399 1.379 1_655 S
C398 H406 0.907 1_655 S
C399 C398 1.379 1_455 S
C399 C400 1.383 1_455 S
C399 H407 0.929 . S
C400 C399 1.383 1_655 S
C400 C401 1.377 . S
C401 H385 0.930 . S
C401 C400 1.377 . S
C401 C402 1.379 . S
C402 H386 0.931 . S
C402 C396 1.383 . S
C402 C401 1.379 . S
H403 C397 0.959 . S
H404 C397 0.961 . S
H405 C397 0.960 . S
H406 C398 0.907 1_455 S
H407 C399 0.929 . S
H408 C416 0.929 . S
H409 C418 0.930 . S
H410 C420 0.930 . S
H411 C423 0.929 . S
H412 C426 0.930 . S
H413 C428 0.960 . S
H414 C428 0.960 . S
H415 C428 0.960 . S
C416 H408 0.929 . S
C416 C417 1.377 . S
C416 C418 1.384 . S
C417 C416 1.377 . S
C417 C423 1.390 . S
C418 H409 0.930 . S
C418 C416 1.384 . S
C418 C419 1.372 . S
C419 C418 1.372 . S
C419 C420 1.400 . S
C419 C424 1.490 . S
C420 H410 0.930 . S
C420 C419 1.400 . S
C420 C423 1.386 . S
H421 C437 0.930 . S
H422 C438 0.931 . S
C423 H411 0.929 . S
C423 C417 1.390 . S
C423 C420 1.386 . S
C424 C419 1.490 . S
C424 C426 1.395 . S
C424 C427 1.403 . S
H425 C431 0.930 . S
C426 H412 0.930 . S
C426 C424 1.395 . S
C426 C429 1.403 . S
C427 C424 1.403 . S
C427 C428 1.524 . S
C427 C431 1.400 . S
C428 H413 0.960 . S
C428 H414 0.960 . S
C428 H415 0.960 . S
C428 C427 1.524 . S
C429 C426 1.403 . S
C429 C430 1.392 . S
C429 C433 1.495 . S
C430 C429 1.392 . S
C430 C431 1.385 . S
C430 C432 1.478 . S
C431 H425 0.930 . S
C431 C427 1.400 . S
C431 C430 1.385 . S
C432 C430 1.478 . S
C432 C434 1.381 . S
C432 C438 1.383 . S
C433 C429 1.495 . S
C433 H439 0.959 . S
C433 H440 0.961 . S
C433 H441 0.960 . S
C434 C432 1.381 . S
C434 C435 1.394 . S
C434 H442 0.930 . S
C435 C434 1.394 . S
C435 C436 1.383 . S
C435 H443 0.929 . S
C436 C435 1.383 . S
C436 C437 1.377 . S
C437 H421 0.930 . S
C437 C436 1.377 . S
C437 C438 1.379 . S
C438 H422 0.931 . S
C438 C432 1.383 . S
C438 C437 1.379 . S
H439 C433 0.959 . S
H440 C433 0.961 . S
H441 C433 0.960 . S
H442 C434 0.930 . S
H443 C435 0.929 . S
H444 C452 0.929 . S
H445 C454 0.930 . S
H446 C456 0.930 . S
H447 C459 0.929 . S
H448 C462 0.930 . S
H449 C464 0.960 . S
H450 C464 0.960 . S
H451 C464 0.960 . S
C452 H444 0.929 . S
C452 C453 1.377 . S
C452 C454 1.384 . S
C453 C452 1.377 . S
C453 C459 1.390 . S
C454 H445 0.930 . S
C454 C452 1.384 . S
C454 C455 1.372 . S
C455 C454 1.372 . S
C455 C456 1.400 . S
C455 C460 1.490 . S
C456 H446 0.930 . S
C456 C455 1.400 . S
C456 C459 1.386 . S
H457 C473 0.930 . S
H458 C474 0.931 . S
C459 H447 0.929 . S
C459 C453 1.390 . S
C459 C456 1.386 . S
C460 C455 1.490 . S
C460 C462 1.395 . S
C460 C463 1.403 . S
H461 C467 0.930 . S
C462 H448 0.930 . S
C462 C460 1.395 . S
C462 C465 1.403 . S
C463 C460 1.403 . S
C463 C464 1.524 . S
C463 C467 1.400 . S
C464 H449 0.960 . S
C464 H450 0.960 . S
C464 H451 0.960 . S
C464 C463 1.524 . S
C465 C462 1.403 . S
C465 C466 1.392 . S
C465 C469 1.495 . S
C466 C465 1.392 . S
C466 C467 1.385 . S
C466 C468 1.478 . S
C467 H461 0.930 . S
C467 C463 1.400 . S
C467 C466 1.385 . S
C468 C466 1.478 . S
C468 C470 1.381 . S
C468 C474 1.383 . S
C469 C465 1.495 . S
C469 H475 0.959 . S
C469 H476 0.961 . S
C469 H477 0.960 . S
C470 C468 1.381 . S
C470 C471 1.394 . S
C470 H478 0.930 . S
C471 C470 1.394 . S
C471 C472 1.383 . S
C471 H479 0.929 . S
C472 C471 1.383 . S
C472 C473 1.377 . S
C473 H457 0.930 . S
C473 C472 1.377 . S
C473 C474 1.379 . S
C474 H458 0.931 . S
C474 C468 1.383 . S
C474 C473 1.379 . S
H475 C469 0.959 . S
H476 C469 0.961 . S
H477 C469 0.960 . S
H478 C470 0.930 . S
H479 C471 0.929 . S
H480 C488 0.929 . S
H481 C490 0.930 . S
H482 C492 0.930 . S
H483 C495 0.929 . S
H484 C498 0.930 . S
H485 C500 0.960 . S
H486 C500 0.960 . S
H487 C500 0.960 . S
C488 H480 0.929 . S
C488 C489 1.377 . S
C488 C490 1.384 . S
C489 C488 1.377 . S
C489 C495 1.390 . S
C490 H481 0.930 . S
C490 C488 1.384 . S
C490 C491 1.372 . S
C491 C490 1.372 . S
C491 C492 1.400 . S
C491 C496 1.490 . S
C492 H482 0.930 . S
C492 C491 1.400 . S
C492 C495 1.386 . S
H493 C509 0.930 1_554 S
H494 C510 0.931 . S
C495 H483 0.929 . S
C495 C489 1.390 . S
C495 C492 1.386 . S
C496 C491 1.490 . S
C496 C498 1.395 . S
C496 C499 1.403 . S
H497 C503 0.930 . S
C498 H484 0.930 . S
C498 C496 1.395 . S
C498 C501 1.403 . S
C499 C496 1.403 . S
C499 C500 1.524 . S
C499 C503 1.400 . S
C500 H485 0.960 . S
C500 H486 0.960 . S
C500 H487 0.960 . S
C500 C499 1.524 . S
C501 C498 1.403 . S
C501 C502 1.392 . S
C501 C505 1.539 . S
C502 C501 1.392 . S
C502 C503 1.385 . S
C502 C504 1.478 . S
C503 H497 0.930 . S
C503 C499 1.400 . S
C503 C502 1.385 . S
C504 C502 1.478 . S
C504 C506 1.381 . S
C504 C510 1.383 . S
C505 C501 1.539 . S
C505 H511 0.955 1_556 S
C505 H512 0.940 1_556 S
C505 H513 0.943 1_556 S
C506 C504 1.381 . S
C506 C507 1.394 1_556 S
C506 H514 0.930 . S
C507 C506 1.394 1_554 S
C507 C508 1.383 . S
C507 H515 0.929 . S
C508 C507 1.383 . S
C508 C509 1.378 1_554 S
C509 H493 0.930 1_556 S
C509 C508 1.378 1_556 S
C509 C510 1.378 . S
C510 H494 0.931 . S
C510 C504 1.383 . S
C510 C509 1.378 . S
H511 C505 0.955 1_554 S
H512 C505 0.940 1_554 S
H513 C505 0.943 1_554 S
H514 C506 0.930 . S
H515 C507 0.929 . S
H516 C524 0.929 . S
H517 C526 0.930 . S
H518 C528 0.930 . S
H519 C531 0.929 . S
H520 C534 0.930 . S
H521 C536 0.960 . S
H522 C536 0.960 . S
H523 C536 0.960 . S
C524 H516 0.929 . S
C524 C525 1.377 . S
C524 C526 1.384 . S
C525 C524 1.377 . S
C525 C531 1.390 . S
C526 H517 0.930 . S
C526 C524 1.384 . S
C526 C527 1.372 . S
C527 C526 1.372 . S
C527 C528 1.400 . S
C527 C532 1.490 . S
C528 H518 0.930 . S
C528 C527 1.400 . S
C528 C531 1.386 . S
H529 C545 0.930 . S
H530 C546 0.931 . S
C531 H519 0.929 . S
C531 C525 1.390 . S
C531 C528 1.386 . S
C532 C527 1.490 . S
C532 C534 1.395 . S
C532 C535 1.403 . S
H533 C539 0.930 . S
C534 H520 0.930 . S
C534 C532 1.395 . S
C534 C537 1.403 . S
C535 C532 1.403 . S
C535 C536 1.524 . S
C535 C539 1.400 . S
C536 H521 0.960 . S
C536 H522 0.960 . S
C536 H523 0.960 . S
C536 C535 1.524 . S
C537 C534 1.403 . S
C537 C538 1.392 . S
C537 C541 1.495 . S
C538 C537 1.392 . S
C538 C539 1.385 . S
C538 C540 1.478 . S
C539 H533 0.930 . S
C539 C535 1.400 . S
C539 C538 1.385 . S
C540 C538 1.478 . S
C540 C542 1.381 . S
C540 C546 1.383 . S
C541 C537 1.495 . S
C541 H547 0.959 . S
C541 H548 0.961 . S
C541 H549 0.960 . S
C542 C540 1.381 . S
C542 C543 1.394 . S
C542 H550 0.930 . S
C543 C542 1.394 . S
C543 C544 1.383 . S
C543 H551 0.929 . S
C544 C543 1.383 . S
C544 C545 1.377 . S
C545 H529 0.930 . S
C545 C544 1.377 . S
C545 C546 1.379 . S
C546 H530 0.931 . S
C546 C540 1.383 . S
C546 C545 1.379 . S
H547 C541 0.959 . S
H548 C541 0.961 . S
H549 C541 0.960 . S
H550 C542 0.930 . S
H551 C543 0.929 . S
H552 C560 0.929 . S
H553 C562 0.930 . S
H554 C564 0.930 . S
H555 C567 0.929 . S
H556 C570 0.930 . S
H557 C572 0.960 . S
H558 C572 0.960 . S
H559 C572 0.960 . S
C560 H552 0.929 . S
C560 C561 1.377 . S
C560 C562 1.384 . S
C561 C560 1.377 . S
C561 C567 1.390 . S
C562 H553 0.930 . S
C562 C560 1.384 . S
C562 C563 1.372 . S
C563 C562 1.372 . S
C563 C564 1.400 . S
C563 C568 1.490 . S
C564 H554 0.930 . S
C564 C563 1.400 . S
C564 C567 1.386 . S
H565 C581 0.930 . S
H566 C582 0.931 . S
C567 H555 0.929 . S
C567 C561 1.390 . S
C567 C564 1.386 . S
C568 C563 1.490 . S
C568 C570 1.395 . S
C568 C571 1.403 . S
H569 C575 0.930 . S
C570 H556 0.930 . S
C570 C568 1.395 . S
C570 C573 1.403 . S
C571 C568 1.403 . S
C571 C572 1.524 . S
C571 C575 1.400 . S
C572 H557 0.960 . S
C572 H558 0.960 . S
C572 H559 0.960 . S
C572 C571 1.524 . S
C573 C570 1.403 . S
C573 C574 1.392 . S
C573 C577 1.495 . S
C574 C573 1.392 . S
C574 C575 1.385 . S
C574 C576 1.478 . S
C575 H569 0.930 . S
C575 C571 1.400 . S
C575 C574 1.385 . S
C576 C574 1.478 . S
C576 C578 1.381 . S
C576 C582 1.383 . S
C577 C573 1.495 . S
C577 H583 0.959 . S
C577 H584 0.961 . S
C577 H585 0.960 . S
C578 C576 1.381 . S
C578 C579 1.394 . S
C578 H586 0.930 . S
C579 C578 1.394 . S
C579 C580 1.383 . S
C579 H587 0.929 . S
C580 C579 1.383 . S
C580 C581 1.377 . S
C581 H565 0.930 . S
C581 C580 1.377 . S
C581 C582 1.379 . S
C582 H566 0.931 . S
C582 C576 1.383 . S
C582 C581 1.379 . S
H583 C577 0.959 . S
H584 C577 0.961 . S
H585 C577 0.960 . S
H586 C578 0.930 . S
H587 C579 0.929 . S
H588 C596 0.929 . S
H589 C598 0.930 . S
H590 C600 0.930 . S
H591 C603 0.929 . S
H592 C606 0.930 . S
H593 C608 0.960 . S
H594 C608 0.960 . S
H595 C608 0.960 . S
C596 H588 0.929 . S
C596 C597 1.377 . S
C596 C598 1.384 . S
C597 C596 1.377 . S
C597 C603 1.390 . S
C598 H589 0.930 . S
C598 C596 1.384 . S
C598 C599 1.372 . S
C599 C598 1.372 . S
C599 C600 1.400 . S
C599 C604 1.490 . S
C600 H590 0.930 . S
C600 C599 1.400 . S
C600 C603 1.386 . S
H601 C617 0.930 . S
H602 C618 0.931 . S
C603 H591 0.929 . S
C603 C597 1.390 . S
C603 C600 1.386 . S
C604 C599 1.490 . S
C604 C606 1.395 . S
C604 C607 1.403 . S
H605 C611 0.930 . S
C606 H592 0.930 . S
C606 C604 1.395 . S
C606 C609 1.403 . S
C607 C604 1.403 . S
C607 C608 1.524 . S
C607 C611 1.400 . S
C608 H593 0.960 . S
C608 H594 0.960 . S
C608 H595 0.960 . S
C608 C607 1.524 . S
C609 C606 1.403 . S
C609 C610 1.392 . S
C609 C613 1.495 . S
C610 C609 1.392 . S
C610 C611 1.385 . S
C610 C612 1.478 . S
C611 H605 0.930 . S
C611 C607 1.400 . S
C611 C610 1.385 . S
C612 C610 1.478 . S
C612 C614 1.381 . S
C612 C618 1.383 . S
C613 C609 1.495 . S
C613 H619 0.959 . S
C613 H620 0.961 . S
C613 H621 0.960 . S
C614 C612 1.381 . S
C614 C615 1.394 . S
C614 H622 0.930 . S
C615 C614 1.394 . S
C615 C616 1.383 . S
C615 H623 0.929 . S
C616 C615 1.383 . S
C616 C617 1.377 . S
C617 H601 0.930 . S
C617 C616 1.377 . S
C617 C618 1.379 . S
C618 H602 0.931 . S
C618 C612 1.383 . S
C618 C617 1.379 . S
H619 C613 0.959 . S
H620 C613 0.961 . S
H621 C613 0.960 . S
H622 C614 0.930 . S
H623 C615 0.929 . S
H624 C632 0.929 . S
H625 C634 0.930 . S
H626 C636 0.930 . S
H627 C639 0.929 . S
H628 C642 0.930 . S
H629 C644 0.960 . S
H630 C644 0.960 . S
H631 C644 0.960 . S
C632 H624 0.929 . S
C632 C633 1.377 . S
C632 C634 1.384 . S
C633 C632 1.377 . S
C633 C639 1.390 . S
C634 H625 0.930 . S
C634 C632 1.384 . S
C634 C635 1.372 . S
C635 C634 1.372 . S
C635 C636 1.400 . S
C635 C640 1.490 . S
C636 H626 0.930 . S
C636 C635 1.400 . S
C636 C639 1.386 . S
H637 C653 0.930 . S
H638 C654 0.931 . S
C639 H627 0.929 . S
C639 C633 1.390 . S
C639 C636 1.386 . S
C640 C635 1.490 . S
C640 C642 1.395 . S
C640 C643 1.403 . S
H641 C647 0.930 . S
C642 H628 0.930 . S
C642 C640 1.395 . S
C642 C645 1.403 . S
C643 C640 1.403 . S
C643 C644 1.524 . S
C643 C647 1.400 . S
C644 H629 0.960 . S
C644 H630 0.960 . S
C644 H631 0.960 . S
C644 C643 1.524 . S
C645 C642 1.403 . S
C645 C646 1.392 . S
C645 C649 1.495 1_655 S
C646 C645 1.392 . S
C646 C647 1.385 . S
C646 C648 1.478 . S
C647 H641 0.930 . S
C647 C643 1.400 . S
C647 C646 1.385 . S
C648 C646 1.478 . S
C648 C650 1.381 . S
C648 C654 1.383 . S
C649 C645 1.495 1_455 S
C649 H655 0.959 . S
C649 H656 0.961 . S
C649 H657 0.960 . S
C650 C648 1.381 . S
C650 C651 1.394 1_655 S
C650 H658 0.930 1_655 S
C651 C650 1.394 1_455 S
C651 C652 1.383 1_455 S
C651 H659 0.929 . S
C652 C651 1.383 1_655 S
C652 C653 1.377 . S
C653 H637 0.930 . S
C653 C652 1.377 . S
C653 C654 1.379 . S
C654 H638 0.931 . S
C654 C648 1.383 . S
C654 C653 1.379 . S
H655 C649 0.959 . S
H656 C649 0.961 . S
H657 C649 0.960 . S
H658 C650 0.930 1_455 S
H659 C651 0.929 . S
H660 C668 0.929 . S
H661 C670 0.930 . S
H662 C672 0.930 . S
H663 C675 0.929 . S
H664 C678 0.930 . S
H665 C680 0.960 . S
H666 C680 0.960 . S
H667 C680 0.960 . S
C668 H660 0.929 . S
C668 C669 1.377 . S
C668 C670 1.384 . S
C669 C668 1.377 . S
C669 C675 1.390 . S
C670 H661 0.930 . S
C670 C668 1.384 . S
C670 C671 1.372 . S
C671 C670 1.372 . S
C671 C672 1.400 . S
C671 C676 1.490 . S
C672 H662 0.930 . S
C672 C671 1.400 . S
C672 C675 1.386 . S
H673 C689 0.930 . S
H674 C690 0.931 . S
C675 H663 0.929 . S
C675 C669 1.390 . S
C675 C672 1.386 . S
C676 C671 1.490 . S
C676 C678 1.395 . S
C676 C679 1.403 . S
H677 C683 0.930 . S
C678 H664 0.930 . S
C678 C676 1.395 . S
C678 C681 1.403 . S
C679 C676 1.403 . S
C679 C680 1.524 . S
C679 C683 1.400 . S
C680 H665 0.960 . S
C680 H666 0.960 . S
C680 H667 0.960 . S
C680 C679 1.524 . S
C681 C678 1.403 . S
C681 C682 1.392 . S
C681 C685 1.495 . S
C682 C681 1.392 . S
C682 C683 1.385 . S
C682 C684 1.478 . S
C683 H677 0.930 . S
C683 C679 1.400 . S
C683 C682 1.385 . S
C684 C682 1.478 . S
C684 C686 1.381 . S
C684 C690 1.383 . S
C685 C681 1.495 . S
C685 H691 0.959 . S
C685 H692 0.961 . S
C685 H693 0.960 . S
C686 C684 1.381 . S
C686 C687 1.394 . S
C686 H694 0.930 . S
C687 C686 1.394 . S
C687 C688 1.383 . S
C687 H695 0.929 . S
C688 C687 1.383 . S
C688 C689 1.377 . S
C689 H673 0.930 . S
C689 C688 1.377 . S
C689 C690 1.379 . S
C690 H674 0.931 . S
C690 C684 1.383 . S
C690 C689 1.379 . S
H691 C685 0.959 . S
H692 C685 0.961 . S
H693 C685 0.960 . S
H694 C686 0.930 . S
H695 C687 0.929 . S
H696 C704 0.929 . S
H697 C706 0.930 . S
H698 C708 0.930 . S
H699 C711 0.929 . S
H700 C714 0.930 . S
H701 C716 0.960 . S
H702 C716 0.960 . S
H703 C716 0.960 . S
C704 H696 0.929 . S
C704 C705 1.377 . S
C704 C706 1.384 . S
C705 C704 1.377 . S
C705 C711 1.390 . S
C706 H697 0.930 . S
C706 C704 1.384 . S
C706 C707 1.372 . S
C707 C706 1.372 . S
C707 C708 1.400 . S
C707 C712 1.490 . S
C708 H698 0.930 . S
C708 C707 1.400 . S
C708 C711 1.386 . S
H709 C725 0.930 . S
H710 C726 0.931 . S
C711 H699 0.929 . S
C711 C705 1.390 . S
C711 C708 1.386 . S
C712 C707 1.490 . S
C712 C714 1.395 . S
C712 C715 1.403 . S
H713 C719 0.930 . S
C714 H700 0.930 . S
C714 C712 1.395 . S
C714 C717 1.403 . S
C715 C712 1.403 . S
C715 C716 1.524 . S
C715 C719 1.400 . S
C716 H701 0.960 . S
C716 H702 0.960 . S
C716 H703 0.960 . S
C716 C715 1.524 . S
C717 C714 1.403 . S
C717 C718 1.392 . S
C717 C721 1.495 . S
C718 C717 1.392 . S
C718 C719 1.385 . S
C718 C720 1.478 . S
C719 H713 0.930 . S
C719 C715 1.400 . S
C719 C718 1.385 . S
C720 C718 1.478 . S
C720 C722 1.381 . S
C720 C726 1.383 . S
C721 C717 1.495 . S
C721 H727 0.959 . S
C721 H728 0.961 . S
C721 H729 0.960 . S
C722 C720 1.381 . S
C722 C723 1.394 . S
C722 H730 0.930 . S
C723 C722 1.394 . S
C723 C724 1.383 . S
C723 H731 0.929 . S
C724 C723 1.383 . S
C724 C725 1.377 . S
C725 H709 0.930 . S
C725 C724 1.377 . S
C725 C726 1.379 . S
C726 H710 0.931 . S
C726 C720 1.383 . S
C726 C725 1.379 . S
H727 C721 0.959 . S
H728 C721 0.961 . S
H729 C721 0.960 . S
H730 C722 0.930 . S
H731 C723 0.929 . S
H732 C740 0.929 . S
H733 C742 0.930 . S
H734 C744 0.930 . S
H735 C747 0.929 . S
H736 C750 0.930 . S
H737 C752 0.960 . S
H738 C752 0.960 . S
H739 C752 0.960 . S
C740 H732 0.929 . S
C740 C741 1.377 . S
C740 C742 1.384 . S
C741 C740 1.377 . S
C741 C747 1.390 . S
C742 H733 0.930 . S
C742 C740 1.384 . S
C742 C743 1.372 . S
C743 C742 1.372 . S
C743 C744 1.400 . S
C743 C748 1.490 . S
C744 H734 0.930 . S
C744 C743 1.400 . S
C744 C747 1.386 . S
H745 C761 0.930 . S
H746 C762 0.931 . S
C747 H735 0.929 . S
C747 C741 1.390 . S
C747 C744 1.386 . S
C748 C743 1.490 . S
C748 C750 1.395 . S
C748 C751 1.403 . S
H749 C755 0.930 . S
C750 H736 0.930 . S
C750 C748 1.395 . S
C750 C753 1.403 . S
C751 C748 1.403 . S
C751 C752 1.524 . S
C751 C755 1.400 . S
C752 H737 0.960 . S
C752 H738 0.960 . S
C752 H739 0.960 . S
C752 C751 1.524 . S
C753 C750 1.403 . S
C753 C754 1.392 . S
C753 C757 1.495 . S
C754 C753 1.392 . S
C754 C755 1.385 . S
C754 C756 1.478 . S
C755 H749 0.930 . S
C755 C751 1.400 . S
C755 C754 1.385 . S
C756 C754 1.478 . S
C756 C758 1.381 . S
C756 C762 1.383 . S
C757 C753 1.495 . S
C757 H763 0.959 . S
C757 H764 0.961 . S
C757 H765 0.960 . S
C758 C756 1.381 . S
C758 C759 1.394 . S
C758 H766 0.930 . S
C759 C758 1.394 . S
C759 C760 1.383 . S
C759 H767 0.929 . S
C760 C759 1.383 . S
C760 C761 1.377 . S
C761 H745 0.930 . S
C761 C760 1.377 . S
C761 C762 1.379 . S
C762 H746 0.931 . S
C762 C756 1.383 . S
C762 C761 1.379 . S
H763 C757 0.959 . S
H764 C757 0.961 . S
H765 C757 0.960 . S
H766 C758 0.930 . S
H767 C759 0.929 . S
H768 C776 0.929 . S
H769 C778 0.930 . S
H770 C780 0.930 . S
H771 C783 0.929 . S
H772 C786 0.930 . S
H773 C788 0.960 . S
H774 C788 0.960 . S
H775 C788 0.960 . S
C776 H768 0.929 . S
C776 C777 1.377 . S
C776 C778 1.384 . S
C777 C776 1.377 . S
C777 C783 1.390 . S
C778 H769 0.930 . S
C778 C776 1.384 . S
C778 C779 1.372 . S
C779 C778 1.372 . S
C779 C780 1.400 . S
C779 C784 1.490 . S
C780 H770 0.930 . S
C780 C779 1.400 . S
C780 C783 1.386 . S
H781 C797 0.930 . S
H782 C798 0.931 . S
C783 H771 0.929 . S
C783 C777 1.390 . S
C783 C780 1.386 . S
C784 C779 1.490 . S
C784 C786 1.395 . S
C784 C787 1.403 . S
H785 C791 0.930 . S
C786 H772 0.930 . S
C786 C784 1.395 . S
C786 C789 1.403 . S
C787 C784 1.403 . S
C787 C788 1.524 . S
C787 C791 1.400 . S
C788 H773 0.960 . S
C788 H774 0.960 . S
C788 H775 0.960 . S
C788 C787 1.524 . S
C789 C786 1.403 . S
C789 C790 1.392 . S
C789 C793 1.495 . S
C790 C789 1.392 . S
C790 C791 1.385 . S
C790 C792 1.478 . S
C791 H785 0.930 . S
C791 C787 1.400 . S
C791 C790 1.385 . S
C792 C790 1.478 . S
C792 C794 1.381 . S
C792 C798 1.383 . S
C793 C789 1.495 . S
C793 H799 0.959 . S
C793 H800 0.961 . S
C793 H801 0.960 . S
C794 C792 1.381 . S
C794 C795 1.394 . S
C794 H802 0.930 . S
C795 C794 1.394 . S
C795 C796 1.383 . S
C795 H803 0.929 . S
C796 C795 1.383 . S
C796 C797 1.377 . S
C797 H781 0.930 . S
C797 C796 1.377 . S
C797 C798 1.379 . S
C798 H782 0.931 . S
C798 C792 1.383 . S
C798 C797 1.379 . S
H799 C793 0.959 . S
H800 C793 0.961 . S
H801 C793 0.960 . S
H802 C794 0.930 . S
H803 C795 0.929 . S
H804 C812 0.929 . S
H805 C814 0.930 . S
H806 C816 0.930 . S
H807 C819 0.929 . S
H808 C822 0.930 . S
H809 C824 0.960 . S
H810 C824 0.960 . S
H811 C824 0.960 . S
C812 H804 0.929 . S
C812 C813 1.377 . S
C812 C814 1.384 . S
C813 C812 1.377 . S
C813 C819 1.390 . S
C814 H805 0.930 . S
C814 C812 1.384 . S
C814 C815 1.372 . S
C815 C814 1.372 . S
C815 C816 1.400 . S
C815 C820 1.490 . S
C816 H806 0.930 . S
C816 C815 1.400 . S
C816 C819 1.386 . S
H817 C833 0.930 . S
H818 C834 0.931 . S
C819 H807 0.929 . S
C819 C813 1.390 . S
C819 C816 1.386 . S
C820 C815 1.490 . S
C820 C822 1.395 . S
C820 C823 1.403 . S
H821 C827 0.930 . S
C822 H808 0.930 . S
C822 C820 1.395 . S
C822 C825 1.403 . S
C823 C820 1.403 . S
C823 C824 1.524 . S
C823 C827 1.400 . S
C824 H809 0.960 . S
C824 H810 0.960 . S
C824 H811 0.960 . S
C824 C823 1.524 . S
C825 C822 1.403 . S
C825 C826 1.392 . S
C825 C829 1.495 . S
C826 C825 1.392 . S
C826 C827 1.385 . S
C826 C828 1.478 . S
C827 H821 0.930 . S
C827 C823 1.400 . S
C827 C826 1.385 . S
C828 C826 1.478 . S
C828 C830 1.381 . S
C828 C834 1.383 . S
C829 C825 1.495 . S
C829 H835 0.959 . S
C829 H836 0.961 . S
C829 H837 0.960 . S
C830 C828 1.381 . S
C830 C831 1.394 . S
C830 H838 0.930 . S
C831 C830 1.394 . S
C831 C832 1.383 . S
C831 H839 0.929 . S
C832 C831 1.383 . S
C832 C833 1.377 . S
C833 H817 0.930 . S
C833 C832 1.377 . S
C833 C834 1.379 . S
C834 H818 0.931 . S
C834 C828 1.383 . S
C834 C833 1.379 . S
H835 C829 0.959 . S
H836 C829 0.961 . S
H837 C829 0.960 . S
H838 C830 0.930 . S
H839 C831 0.929 . S
H840 C848 0.929 . S
H841 C850 0.930 . S
H842 C852 0.930 . S
H843 C855 0.929 . S
H844 C858 0.930 . S
H845 C860 0.960 . S
H846 C860 0.960 . S
H847 C860 0.960 . S
C848 H840 0.929 . S
C848 C849 1.377 . S
C848 C850 1.384 . S
C849 C848 1.377 . S
C849 C855 1.390 . S
C850 H841 0.930 . S
C850 C848 1.384 . S
C850 C851 1.372 . S
C851 C850 1.372 . S
C851 C852 1.400 . S
C851 C856 1.490 . S
C852 H842 0.930 . S
C852 C851 1.400 . S
C852 C855 1.386 . S
H853 C869 0.930 . S
H854 C870 0.931 . S
C855 H843 0.929 . S
C855 C849 1.390 . S
C855 C852 1.386 . S
C856 C851 1.490 . S
C856 C858 1.395 . S
C856 C859 1.403 . S
H857 C863 0.930 . S
C858 H844 0.930 . S
C858 C856 1.395 . S
C858 C861 1.403 . S
C859 C856 1.403 . S
C859 C860 1.524 . S
C859 C863 1.400 . S
C860 H845 0.960 . S
C860 H846 0.960 . S
C860 H847 0.960 . S
C860 C859 1.524 . S
C861 C858 1.403 . S
C861 C862 1.392 . S
C861 C865 1.495 . S
C862 C861 1.392 . S
C862 C863 1.385 . S
C862 C864 1.478 . S
C863 H857 0.930 . S
C863 C859 1.400 . S
C863 C862 1.385 . S
C864 C862 1.478 . S
C864 C866 1.381 . S
C864 C870 1.383 . S
C865 C861 1.495 . S
C865 H871 0.959 . S
C865 H872 0.961 . S
C865 H873 0.960 . S
C866 C864 1.381 . S
C866 C867 1.394 . S
C866 H874 0.930 . S
C867 C866 1.394 . S
C867 C868 1.383 . S
C867 H875 0.929 . S
C868 C867 1.383 . S
C868 C869 1.377 . S
C869 H853 0.930 . S
C869 C868 1.377 . S
C869 C870 1.379 . S
C870 H854 0.931 . S
C870 C864 1.383 . S
C870 C869 1.379 . S
H871 C865 0.959 . S
H872 C865 0.961 . S
H873 C865 0.960 . S
H874 C866 0.930 . S
H875 C867 0.929 . S
H876 C884 0.929 . S
H877 C886 0.930 . S
H878 C888 0.930 . S
H879 C891 0.929 . S
H880 C894 0.930 . S
H881 C896 0.960 . S
H882 C896 0.960 . S
H883 C896 0.960 . S
C884 H876 0.929 . S
C884 C885 1.377 . S
C884 C886 1.384 . S
C885 C884 1.377 . S
C885 C891 1.390 . S
C886 H877 0.930 . S
C886 C884 1.384 . S
C886 C887 1.372 . S
C887 C886 1.372 . S
C887 C888 1.400 . S
C887 C892 1.490 . S
C888 H878 0.930 . S
C888 C887 1.400 . S
C888 C891 1.386 . S
H889 C905 0.930 . S
H890 C906 0.931 . S
C891 H879 0.929 . S
C891 C885 1.390 . S
C891 C888 1.386 . S
C892 C887 1.490 . S
C892 C894 1.395 . S
C892 C895 1.403 . S
H893 C899 0.930 . S
C894 H880 0.930 . S
C894 C892 1.395 . S
C894 C897 1.403 . S
C895 C892 1.403 . S
C895 C896 1.524 . S
C895 C899 1.400 . S
C896 H881 0.960 . S
C896 H882 0.960 . S
C896 H883 0.960 . S
C896 C895 1.524 . S
C897 C894 1.403 . S
C897 C898 1.392 . S
C897 C901 1.495 1_655 S
C898 C897 1.392 . S
C898 C899 1.385 . S
C898 C900 1.478 . S
C899 H893 0.930 . S
C899 C895 1.400 . S
C899 C898 1.385 . S
C900 C898 1.478 . S
C900 C902 1.381 . S
C900 C906 1.383 . S
C901 C897 1.495 1_455 S
C901 H907 0.959 . S
C901 H908 0.961 . S
C901 H909 0.960 . S
C902 C900 1.381 . S
C902 C903 1.394 . S
C902 H910 0.930 . S
C903 C902 1.394 . S
C903 C904 1.383 . S
C903 H911 0.929 1_655 S
C904 C903 1.383 . S
C904 C905 1.377 . S
C905 H889 0.930 . S
C905 C904 1.377 . S
C905 C906 1.379 . S
C906 H890 0.931 . S
C906 C900 1.383 . S
C906 C905 1.379 . S
H907 C901 0.959 . S
H908 C901 0.961 . S
H909 C901 0.960 . S
H910 C902 0.930 . S
H911 C903 0.929 1_455 S
H912 C920 0.929 . S
H913 C922 0.930 . S
H914 C924 0.930 . S
H915 C927 0.929 . S
H916 C930 0.930 . S
H917 C932 0.960 . S
H918 C932 0.960 . S
H919 C932 0.960 . S
C920 H912 0.929 . S
C920 C921 1.377 . S
C920 C922 1.384 . S
C921 C920 1.377 . S
C921 C927 1.390 . S
C922 H913 0.930 . S
C922 C920 1.384 . S
C922 C923 1.372 . S
C923 C922 1.372 . S
C923 C924 1.400 . S
C923 C928 1.490 . S
C924 H914 0.930 . S
C924 C923 1.400 . S
C924 C927 1.386 . S
H925 C941 0.930 . S
H926 C942 0.931 . S
C927 H915 0.929 . S
C927 C921 1.390 . S
C927 C924 1.386 . S
C928 C923 1.490 . S
C928 C930 1.395 . S
C928 C931 1.403 . S
H929 C935 0.930 . S
C930 H916 0.930 . S
C930 C928 1.395 . S
C930 C933 1.403 . S
C931 C928 1.403 . S
C931 C932 1.524 . S
C931 C935 1.400 . S
C932 H917 0.960 . S
C932 H918 0.960 . S
C932 H919 0.960 . S
C932 C931 1.524 . S
C933 C930 1.403 . S
C933 C934 1.392 . S
C933 C937 1.495 . S
C934 C933 1.392 . S
C934 C935 1.385 . S
C934 C936 1.478 . S
C935 H929 0.930 . S
C935 C931 1.400 . S
C935 C934 1.385 . S
C936 C934 1.478 . S
C936 C938 1.381 . S
C936 C942 1.383 . S
C937 C933 1.495 . S
C937 H943 0.959 . S
C937 H944 0.961 . S
C937 H945 0.960 . S
C938 C936 1.381 . S
C938 C939 1.394 . S
C938 H946 0.930 . S
C939 C938 1.394 . S
C939 C940 1.383 . S
C939 H947 0.929 . S
C940 C939 1.383 . S
C940 C941 1.377 . S
C941 H925 0.930 . S
C941 C940 1.377 . S
C941 C942 1.379 . S
C942 H926 0.931 . S
C942 C936 1.383 . S
C942 C941 1.379 . S
H943 C937 0.959 . S
H944 C937 0.961 . S
H945 C937 0.960 . S
H946 C938 0.930 . S
H947 C939 0.929 . S
H948 C956 0.929 . S
H949 C958 0.930 . S
H950 C960 0.930 . S
H951 C963 0.929 . S
H952 C966 0.930 . S
H953 C968 0.960 . S
H954 C968 0.960 . S
H955 C968 0.960 . S
C956 H948 0.929 . S
C956 C957 1.377 . S
C956 C958 1.384 . S
C957 C956 1.377 . S
C957 C963 1.390 . S
C958 H949 0.930 . S
C958 C956 1.384 . S
C958 C959 1.372 . S
C959 C958 1.372 . S
C959 C960 1.400 . S
C959 C964 1.490 . S
C960 H950 0.930 . S
C960 C959 1.400 . S
C960 C963 1.386 . S
H961 C977 0.930 . S
H962 C978 0.931 . S
C963 H951 0.929 . S
C963 C957 1.390 . S
C963 C960 1.386 . S
C964 C959 1.490 . S
C964 C966 1.395 . S
C964 C967 1.403 . S
H965 C971 0.930 . S
C966 H952 0.930 . S
C966 C964 1.395 . S
C966 C969 1.403 . S
C967 C964 1.403 . S
C967 C968 1.524 . S
C967 C971 1.400 . S
C968 H953 0.960 . S
C968 H954 0.960 . S
C968 H955 0.960 . S
C968 C967 1.524 . S
C969 C966 1.403 . S
C969 C970 1.392 . S
C969 C973 1.495 . S
C970 C969 1.392 . S
C970 C971 1.385 . S
C970 C972 1.478 . S
C971 H965 0.930 . S
C971 C967 1.400 . S
C971 C970 1.385 . S
C972 C970 1.478 . S
C972 C974 1.381 . S
C972 C978 1.383 . S
C973 C969 1.495 . S
C973 H979 0.959 . S
C973 H980 0.961 . S
C973 H981 0.960 . S
C974 C972 1.381 . S
C974 C975 1.394 . S
C974 H982 0.930 . S
C975 C974 1.394 . S
C975 C976 1.383 . S
C975 H983 0.929 . S
C976 C975 1.383 . S
C976 C977 1.377 . S
C977 H961 0.930 . S
C977 C976 1.377 . S
C977 C978 1.379 . S
C978 H962 0.931 . S
C978 C972 1.383 . S
C978 C977 1.379 . S
H979 C973 0.959 . S
H980 C973 0.961 . S
H981 C973 0.960 . S
H982 C974 0.930 . S
H983 C975 0.929 . S
H984 C992 0.929 . S
H985 C994 0.930 . S
H986 C996 0.930 . S
H987 C999 0.929 . S
H988 C1002 0.930 . S
H989 C1004 0.960 . S
H990 C1004 0.960 . S
H991 C1004 0.960 . S
C992 H984 0.929 . S
C992 C993 1.377 . S
C992 C994 1.384 . S
C993 C992 1.377 . S
C993 C999 1.390 . S
C994 H985 0.930 . S
C994 C992 1.384 . S
C994 C995 1.372 . S
C995 C994 1.372 . S
C995 C996 1.400 . S
C995 C1000 1.490 . S
C996 H986 0.930 . S
C996 C995 1.400 . S
C996 C999 1.386 . S
H997 C1013 0.930 . S
H998 C1014 0.931 . S
C999 H987 0.929 . S
C999 C993 1.390 . S
C999 C996 1.386 . S
C1000 C995 1.490 . S
C1000 C1002 1.395 . S
C1000 C1003 1.403 . S
H1001 C1007 0.930 . S
C1002 H988 0.930 . S
C1002 C1000 1.395 . S
C1002 C1005 1.403 . S
C1003 C1000 1.403 . S
C1003 C1004 1.524 . S
C1003 C1007 1.400 . S
C1004 H989 0.960 . S
C1004 H990 0.960 . S
C1004 H991 0.960 . S
C1004 C1003 1.524 . S
C1005 C1002 1.403 . S
C1005 C1006 1.392 . S
C1005 C1009 1.495 . S
C1006 C1005 1.392 . S
C1006 C1007 1.385 . S
C1006 C1008 1.478 . S
C1007 H1001 0.930 . S
C1007 C1003 1.400 . S
C1007 C1006 1.385 . S
C1008 C1006 1.478 . S
C1008 C1010 1.381 . S
C1008 C1014 1.383 . S
C1009 C1005 1.495 . S
C1009 H1015 0.959 . S
C1009 H1016 0.961 . S
C1009 H1017 0.960 . S
C1010 C1008 1.381 . S
C1010 C1011 1.394 . S
C1010 H1018 0.930 . S
C1011 C1010 1.394 . S
C1011 C1012 1.383 . S
C1011 H1019 0.929 . S
C1012 C1011 1.383 . S
C1012 C1013 1.377 . S
C1013 H997 0.930 . S
C1013 C1012 1.377 . S
C1013 C1014 1.379 . S
C1014 H998 0.931 . S
C1014 C1008 1.383 . S
C1014 C1013 1.379 . S
H1015 C1009 0.959 . S
H1016 C1009 0.961 . S
H1017 C1009 0.960 . S
H1018 C1010 0.930 . S
H1019 C1011 0.929 . S
H1020 C1028 0.929 . S
H1021 C1030 0.930 . S
H1022 C1032 0.930 . S
H1023 C1035 0.929 . S
H1024 C1038 0.930 . S
H1025 C1040 0.960 . S
H1026 C1040 0.960 . S
H1027 C1040 0.960 . S
C1028 H1020 0.929 . S
C1028 C1029 1.377 . S
C1028 C1030 1.384 . S
C1029 C1028 1.377 . S
C1029 C1035 1.390 . S
C1030 H1021 0.930 . S
C1030 C1028 1.384 . S
C1030 C1031 1.372 . S
C1031 C1030 1.372 . S
C1031 C1032 1.400 . S
C1031 C1036 1.490 . S
C1032 H1022 0.930 . S
C1032 C1031 1.400 . S
C1032 C1035 1.386 . S
H1033 C1049 0.930 . S
H1034 C1050 0.931 . S
C1035 H1023 0.929 . S
C1035 C1029 1.390 . S
C1035 C1032 1.386 . S
C1036 C1031 1.490 . S
C1036 C1038 1.395 . S
C1036 C1039 1.403 . S
H1037 C1043 0.930 . S
C1038 H1024 0.930 . S
C1038 C1036 1.395 . S
C1038 C1041 1.403 . S
C1039 C1036 1.403 . S
C1039 C1040 1.524 . S
C1039 C1043 1.400 . S
C1040 H1025 0.960 . S
C1040 H1026 0.960 . S
C1040 H1027 0.960 . S
C1040 C1039 1.524 . S
C1041 C1038 1.403 . S
C1041 C1042 1.392 . S
C1041 C1045 1.495 . S
C1042 C1041 1.392 . S
C1042 C1043 1.385 . S
C1042 C1044 1.478 . S
C1043 H1037 0.930 . S
C1043 C1039 1.400 . S
C1043 C1042 1.385 . S
C1044 C1042 1.478 . S
C1044 C1046 1.381 . S
C1044 C1050 1.383 . S
C1045 C1041 1.495 . S
C1045 H1051 0.959 . S
C1045 H1052 0.961 . S
C1045 H1053 0.960 . S
C1046 C1044 1.381 . S
C1046 C1047 1.394 . S
C1046 H1054 0.930 . S
C1047 C1046 1.394 . S
C1047 C1048 1.383 . S
C1047 H1055 0.929 . S
C1048 C1047 1.383 . S
C1048 C1049 1.377 . S
C1049 H1033 0.930 . S
C1049 C1048 1.377 . S
C1049 C1050 1.379 . S
C1050 H1034 0.931 . S
C1050 C1044 1.383 . S
C1050 C1049 1.379 . S
H1051 C1045 0.959 . S
H1052 C1045 0.961 . S
H1053 C1045 0.960 . S
H1054 C1046 0.930 . S
H1055 C1047 0.929 . S
H1056 C1064 0.929 . S
H1057 C1066 0.930 . S
H1058 C1068 0.930 . S
H1059 C1071 0.929 . S
H1060 C1074 0.930 . S
H1061 C1076 0.960 . S
H1062 C1076 0.960 . S
H1063 C1076 0.960 . S
C1064 H1056 0.929 . S
C1064 C1065 1.377 . S
C1064 C1066 1.384 . S
C1065 C1064 1.377 . S
C1065 C1071 1.390 . S
C1066 H1057 0.930 . S
C1066 C1064 1.384 . S
C1066 C1067 1.372 . S
C1067 C1066 1.372 . S
C1067 C1068 1.400 . S
C1067 C1072 1.490 . S
C1068 H1058 0.930 . S
C1068 C1067 1.400 . S
C1068 C1071 1.386 . S
H1069 C1085 0.930 . S
H1070 C1086 0.931 . S
C1071 H1059 0.929 . S
C1071 C1065 1.390 . S
C1071 C1068 1.386 . S
C1072 C1067 1.490 . S
C1072 C1074 1.395 . S
C1072 C1075 1.403 . S
H1073 C1079 0.930 . S
C1074 H1060 0.930 . S
C1074 C1072 1.395 . S
C1074 C1077 1.403 . S
C1075 C1072 1.403 . S
C1075 C1076 1.524 . S
C1075 C1079 1.400 . S
C1076 H1061 0.960 . S
C1076 H1062 0.960 . S
C1076 H1063 0.960 . S
C1076 C1075 1.524 . S
C1077 C1074 1.403 . S
C1077 C1078 1.392 . S
C1077 C1081 1.495 . S
C1078 C1077 1.392 . S
C1078 C1079 1.385 . S
C1078 C1080 1.478 . S
C1079 H1073 0.930 . S
C1079 C1075 1.400 . S
C1079 C1078 1.385 . S
C1080 C1078 1.478 . S
C1080 C1082 1.381 . S
C1080 C1086 1.383 . S
C1081 C1077 1.495 . S
C1081 H1087 0.959 . S
C1081 H1088 0.961 . S
C1081 H1089 0.960 . S
C1082 C1080 1.381 . S
C1082 C1083 1.394 . S
C1082 H1090 0.930 . S
C1083 C1082 1.394 . S
C1083 C1084 1.383 . S
C1083 H1091 0.929 . S
C1084 C1083 1.383 . S
C1084 C1085 1.377 . S
C1085 H1069 0.930 . S
C1085 C1084 1.377 . S
C1085 C1086 1.379 . S
C1086 H1070 0.931 . S
C1086 C1080 1.383 . S
C1086 C1085 1.379 . S
H1087 C1081 0.959 . S
H1088 C1081 0.961 . S
H1089 C1081 0.960 . S
H1090 C1082 0.930 . S
H1091 C1083 0.929 . S
H1092 C1100 0.929 . S
H1093 C1102 0.930 . S
H1094 C1104 0.930 . S
H1095 C1107 0.929 . S
H1096 C1110 0.930 . S
H1097 C1112 0.960 . S
H1098 C1112 0.960 . S
H1099 C1112 0.960 . S
C1100 H1092 0.929 . S
C1100 C1101 1.377 . S
C1100 C1102 1.384 . S
C1101 C1100 1.377 . S
C1101 C1107 1.390 . S
C1102 H1093 0.930 . S
C1102 C1100 1.384 . S
C1102 C1103 1.372 . S
C1103 C1102 1.372 . S
C1103 C1104 1.400 . S
C1103 C1108 1.490 . S
C1104 H1094 0.930 . S
C1104 C1103 1.400 . S
C1104 C1107 1.386 . S
H1105 C1121 0.930 . S
H1106 C1122 0.931 . S
C1107 H1095 0.929 . S
C1107 C1101 1.390 . S
C1107 C1104 1.386 . S
C1108 C1103 1.490 . S
C1108 C1110 1.395 . S
C1108 C1111 1.403 . S
H1109 C1115 0.930 . S
C1110 H1096 0.930 . S
C1110 C1108 1.395 . S
C1110 C1113 1.403 . S
C1111 C1108 1.403 . S
C1111 C1112 1.524 . S
C1111 C1115 1.400 . S
C1112 H1097 0.960 . S
C1112 H1098 0.960 . S
C1112 H1099 0.960 . S
C1112 C1111 1.524 . S
C1113 C1110 1.403 . S
C1113 C1114 1.392 . S
C1113 C1117 1.495 . S
C1114 C1113 1.392 . S
C1114 C1115 1.385 . S
C1114 C1116 1.478 . S
C1115 H1109 0.930 . S
C1115 C1111 1.400 . S
C1115 C1114 1.385 . S
C1116 C1114 1.478 . S
C1116 C1118 1.381 . S
C1116 C1122 1.383 . S
C1117 C1113 1.495 . S
C1117 H1123 0.959 . S
C1117 H1124 0.961 . S
C1117 H1125 0.960 . S
C1118 C1116 1.381 . S
C1118 C1119 1.394 . S
C1118 H1126 0.930 . S
C1119 C1118 1.394 . S
C1119 C1120 1.383 . S
C1119 H1127 0.929 . S
C1120 C1119 1.383 . S
C1120 C1121 1.377 . S
C1121 H1105 0.930 . S
C1121 C1120 1.377 . S
C1121 C1122 1.379 . S
C1122 H1106 0.931 . S
C1122 C1116 1.383 . S
C1122 C1121 1.379 . S
H1123 C1117 0.959 . S
H1124 C1117 0.961 . S
H1125 C1117 0.960 . S
H1126 C1118 0.930 . S
H1127 C1119 0.929 . S
C273 C9 1.485 . S
C292 C121 1.514 . S
C309 C21 1.014 . S
C328 C161 1.018 . S
C364 C186 1.969 . S
C345 C30 1.993 . S
C381 C43 2.117 . S
C400 C226 2.167 1_655 S
C436 C157 1.588 . S
C417 C4 1.451 . S
C472 C117 2.364 . S
C453 C22 2.322 . S
C508 C248 1.213 . S
C489 C34 1.215 . S
C544 C208 1.429 . S
C525 C48 1.424 . S
C561 C8 1.302 . S
C580 C250 1.289 . S
C616 C167 2.043 . S
C597 C35 2.074 . S
C633 C47 2.340 . S
C652 C127 2.272 1_655 S
C669 C17 1.078 . S
C688 C210 1.083 . S
C724 C130 0.974 . S
C705 C60 0.964 . S
C741 C74 1.158 . S
C760 C170 1.174 . S
C777 C82 1.704 . S
C796 C207 1.714 . S
C813 C100 2.794 . S
C832 C247 2.726 . S
C849 C61 2.052 . S
C868 C168 2.094 . S
C904 C128 1.667 . S
C885 C73 1.629 . S
C940 C237 1.817 . S
C921 C87 1.823 . S
C976 C197 1.270 . S
C957 C95 1.303 . S
C993 C56 1.191 . S
C1012 C241 1.166 . S
C1048 C146 2.273 . S
C1029 C86 2.311 . S
C1084 C106 2.155 . S
C1065 C99 2.197 . S
C1101 C69 0.967 . S
C1120 C201 1.061 . S
