# Generated by pormake.
# Topology anh, (6,3)-cn, num edge types: 1
# Building blocks:
#     Node 0, Type 0, BuildingBlock: CUWYAW_clean_sbu_0, # of connection points: 6
#     Node 1, Type 0, BuildingBlock: CUWYAW_clean_sbu_0, # of connection points: 6
#     Node 2, Type 0, BuildingBlock: CUWYAW_clean_sbu_0, # of connection points: 6
#     Node 3, Type 1, BuildingBlock: CUQRIR_clean_linker_1, # of connection points: 3
#     Node 4, Type 1, BuildingBlock: CUQRIR_clean_linker_1, # of connection points: 3
#     Node 5, Type 1, BuildingBlock: CUQRIR_clean_linker_1, # of connection points: 3
#     Node 6, Type 1, BuildingBlock: CUQRIR_clean_linker_1, # of connection points: 3
#     Node 7, Type 1, BuildingBlock: CUQRIR_clean_linker_1, # of connection points: 3
#     Node 8, Type 1, BuildingBlock: CUQRIR_clean_linker_1, # of connection points: 3
#     Edge 9, Type (0, 1), BuildingBlock: EZIPEK_clean_linker_0, # of connection points: 2
#     Edge 10, Type (0, 1), BuildingBlock: EZIPEK_clean_linker_0, # of connection points: 2
#     Edge 11, Type (0, 1), BuildingBlock: EZIPEK_clean_linker_0, # of connection points: 2
#     Edge 12, Type (0, 1), BuildingBlock: EZIPEK_clean_linker_0, # of connection points: 2
#     Edge 13, Type (0, 1), BuildingBlock: EZIPEK_clean_linker_0, # of connection points: 2
#     Edge 14, Type (0, 1), BuildingBlock: EZIPEK_clean_linker_0, # of connection points: 2
#     Edge 15, Type (0, 1), BuildingBlock: EZIPEK_clean_linker_0, # of connection points: 2
#     Edge 16, Type (0, 1), BuildingBlock: EZIPEK_clean_linker_0, # of connection points: 2
#     Edge 17, Type (0, 1), BuildingBlock: EZIPEK_clean_linker_0, # of connection points: 2
#     Edge 18, Type (0, 1), BuildingBlock: EZIPEK_clean_linker_0, # of connection points: 2
#     Edge 19, Type (0, 1), BuildingBlock: EZIPEK_clean_linker_0, # of connection points: 2
#     Edge 20, Type (0, 1), BuildingBlock: EZIPEK_clean_linker_0, # of connection points: 2
#     Edge 21, Type (0, 1), BuildingBlock: EZIPEK_clean_linker_0, # of connection points: 2
#     Edge 22, Type (0, 1), BuildingBlock: EZIPEK_clean_linker_0, # of connection points: 2
#     Edge 23, Type (0, 1), BuildingBlock: EZIPEK_clean_linker_0, # of connection points: 2
#     Edge 24, Type (0, 1), BuildingBlock: EZIPEK_clean_linker_0, # of connection points: 2
#     Edge 25, Type (0, 1), BuildingBlock: EZIPEK_clean_linker_0, # of connection points: 2
#     Edge 26, Type (0, 1), BuildingBlock: EZIPEK_clean_linker_0, # of connection points: 2
# Relax obj value: 0.463
# Max RMSD: 0.212
# Mean RMSD: 0.165
data_MOF--net-anh--node1-CUWYAW_clean_sbu_0--node2-CUQRIR_clean_linker_1--edge1-EZIPEK_clean_linker_0
_symmetry_space_group_name_H-M    P1
_symmetry_Int_Tables_number       1
_symmetry_cell_setting            triclinic
loop_
_symmetry_equiv_pos_as_xyz
'x, y, z'
_cell_length_a     20.130851
_cell_length_b     20.308015
_cell_length_c     33.831824
_cell_angle_alpha  85.201043
_cell_angle_beta   91.284825
_cell_angle_gamma 120.16051
loop_
_atom_site_label
_atom_site_type_symbol
_atom_site_fract_x
_atom_site_fract_y
_atom_site_fract_z
_atom_type_partial_charge
C0 C 1.09038 0.39077 0.17355 0.0
Eu1 Eu 1.17619 0.53831 0.15982 0.0
C2 C 1.01303 0.33507 0.16238 0.0
C3 C 0.96994 0.27091 0.18872 0.0
C4 C 0.89021 0.23574 0.18918 0.0
C5 C 0.8535 0.26377 0.16262 0.0
C6 C 0.89623 0.31794 0.13151 0.0
C7 C 0.97591 0.35575 0.1325 0.0
C8 C 0.24105 0.61127 0.22766 0.0
C9 C 1.06112 0.61197 0.13763 0.0
C10 C 0.30593 0.83859 0.14107 0.0
Eu11 Eu 0.24959 0.69171 0.14286 0.0
C12 C 0.2839 0.88836 0.15868 0.0
C13 C 0.32522 0.96677 0.14765 0.0
C14 C 0.32067 1.01733 0.1713 0.0
C15 C 0.27593 0.98967 0.20649 0.0
C16 C 0.22527 0.91087 0.21403 0.0
C17 C 0.22976 0.86005 0.19023 0.0
C18 C 0.2236 0.62043 0.07513 0.0
C19 C 0.3601 0.61553 0.13846 0.0
O20 O 1.14321 0.42268 0.14545 0.0
O21 O 1.09215 0.43997 0.19664 0.0
O22 O 0.25109 0.55964 0.2138 0.0
O23 O 0.20304 0.62854 0.20268 0.0
O24 O 1.0652 0.54821 0.14519 0.0
O25 O 1.12731 0.67753 0.13775 0.0
O26 O 0.261 0.7971 0.11397 0.0
O27 O 0.3273 0.80055 0.16617 0.0
O28 O 0.28951 0.67695 0.08393 0.0
O29 O 1.17637 0.60146 0.10336 0.0
O30 O 0.35851 0.67736 0.14772 0.0
O31 O 0.29163 0.55311 0.13543 0.0
H32 H 0.99766 0.25445 0.21216 0.0
H33 H 0.85838 0.19335 0.21339 0.0
H34 H 0.86883 0.33938 0.11042 0.0
H35 H 1.00712 0.40695 0.11331 0.0
H36 H 0.36616 0.98924 0.12296 0.0
H37 H 0.35939 1.07804 0.16482 0.0
H38 H 1.19058 0.8887 0.24111 0.0
H39 H 0.19674 0.79924 0.19873 0.0
C40 C 0.71416 0.29842 0.47572 0.0
Eu41 Eu 0.78724 0.22564 0.48955 0.0
C42 C 0.64875 0.28592 0.4507 0.0
C43 C 0.66116 0.32634 0.41309 0.0
C44 C 0.60565 0.34438 0.39897 0.0
C45 C 0.5492 0.33438 0.42653 0.0
C46 C 0.5203 0.26617 0.45145 0.0
C47 C 0.57369 0.24676 0.46697 0.0
C48 C 0.82412 0.18275 0.56207 0.0
C49 C 0.9752 0.3462 0.47062 0.0
C50 C 0.96203 1.09987 0.47726 0.0
Eu51 Eu 0.87562 0.16108 0.47673 0.0
C52 C 0.96857 1.03977 0.4607 0.0
C53 C 0.93594 1.01269 0.42421 0.0
C54 C 0.92 0.94022 0.41568 0.0
C55 C 0.9306 0.89425 0.4454 0.0
C56 C 0.98074 0.92905 0.47633 0.0
C57 C 0.99838 1.00176 0.48451 0.0
C58 C 0.82029 0.19508 0.40854 0.0
C59 C 0.6819 1.04076 0.47888 0.0
O60 O 0.70032 0.25157 0.50745 0.0
O61 O 0.77828 0.31748 0.45716 0.0
O62 O 0.75976 0.17956 0.55346 0.0
O63 O 0.87017 0.21371 0.53204 0.0
O64 O 0.90506 0.33759 0.47074 0.0
O65 O 0.9786 0.28341 0.47908 0.0
O66 O 0.90585 1.0782 0.50322 0.0
O67 O 0.9706 0.15572 0.45202 0.0
O68 O 0.89014 0.20874 0.41115 0.0
O69 O 0.78516 0.16338 0.44042 0.0
O70 O 0.75164 1.04604 0.47898 0.0
O71 O 0.68234 1.10587 0.48148 0.0
H72 H 0.71609 0.35205 0.39752 0.0
H73 H 0.61901 0.38323 0.37259 0.0
H74 H 0.46637 0.24332 0.46761 0.0
H75 H 0.55905 0.20898 0.49387 0.0
H76 H 0.9152 1.04321 0.40468 0.0
H77 H 0.88553 0.91523 0.39021 0.0
H78 H 0.99294 0.89534 0.4987 0.0
H79 H 1.02657 1.02379 0.51196 0.0
C80 C 1.04966 0.81919 0.79796 0.0
Eu81 Eu 0.90185 0.7347 0.81164 0.0
C82 C 1.10491 0.79843 0.78373 0.0
C83 C 1.15191 0.7868 0.81103 0.0
C84 C 1.18645 0.74566 0.80132 0.0
C85 C 1.17416 0.71472 0.76428 0.0
C86 C 1.13873 0.73809 0.73471 0.0
C87 C 1.10307 0.77871 0.74452 0.0
C88 C 0.83652 0.67439 0.88684 0.0
C89 C 0.82639 0.54938 0.80816 0.0
C90 C 0.60391 0.59477 0.8129 0.0
Eu91 Eu 0.75193 0.65955 0.80571 0.0
C92 C 0.5491 0.58006 0.84402 0.0
C93 C 0.47325 0.55363 0.83351 0.0
C94 C 0.41636 0.52224 0.86274 0.0
C95 C 0.4345 0.51688 0.90269 0.0
C96 C 0.51127 0.54712 0.91354 0.0
C97 C 0.56887 0.57985 0.88412 0.0
C98 C 0.81412 0.66397 0.73414 0.0
C99 C 0.82559 0.84655 0.79823 0.0
O100 O 0.99825 0.81491 0.77272 0.0
O101 O 1.01941 0.78989 0.8333 0.0
O102 O 0.89383 0.67161 0.87215 0.0
O103 O 0.81465 0.70841 0.86102 0.0
O104 O 0.88835 0.61676 0.79765 0.0
O105 O 0.76668 0.55323 0.8209 0.0
O106 O 0.64184 0.55882 0.81933 0.0
O107 O 0.64684 0.66542 0.79874 0.0
O108 O 0.75392 0.60626 0.75032 0.0
O109 O 0.83736 0.71892 0.75566 0.0
O110 O 0.76401 0.78013 0.79149 0.0
O111 O 0.8867 0.84267 0.81124 0.0
H112 H 1.15667 0.80372 0.84097 0.0
H113 H 0.21771 0.73288 0.82414 0.0
H114 H 1.13411 0.72087 0.70489 0.0
H115 H 1.06979 0.78981 0.72215 0.0
H116 H 0.4575 0.55325 0.80263 0.0
H117 H 0.3577 0.49912 0.85383 0.0
H118 H 0.52615 0.5431 0.94426 0.0
H119 H 0.62805 0.60104 0.89233 0.0
C120 C 0.52682 0.23991 0.23897 0.0
N121 N 0.60348 0.22257 0.25539 0.0
N122 N 0.47321 0.22785 0.28487 0.0
C123 C 0.49968 0.2378 0.19751 0.0
C124 C 0.52063 0.20667 0.32743 0.0
N125 N 0.60029 0.20408 0.30465 0.0
C126 C 0.48464 0.16862 0.36694 0.0
H127 H 0.45206 0.2504 0.19599 0.0
H128 H 0.47984 0.18027 0.18758 0.0
H129 H 0.54829 0.27978 0.17769 0.0
H130 H 0.44429 1.10702 0.36409 0.0
H131 H 0.45156 0.1941 0.37757 0.0
H132 H 0.52966 0.17398 0.38806 0.0
C133 C 0.67241 0.5904 0.53005 0.0
N134 N 0.73828 0.64243 0.54579 0.0
N135 N 0.6456 0.52063 0.5492 0.0
C136 C 0.64101 0.60543 0.49125 0.0
C137 C 0.69374 0.53445 0.58023 0.0
N138 N 0.75179 0.6093 0.57824 0.0
C139 C 0.67837 0.4744 0.61359 0.0
H140 H 0.63928 0.65907 0.49108 0.0
H141 H 0.58173 0.55976 0.48612 0.0
H142 H 0.6788 0.61138 0.46619 0.0
H143 H 0.71551 0.44939 0.61001 0.0
H144 H 0.61779 0.42725 0.61322 0.0
H145 H 0.68942 0.49901 0.6427 0.0
C146 C 1.18458 0.4538 0.87449 0.0
N147 N 1.18777 0.45917 0.91485 0.0
N148 N 1.1681 0.50539 0.85565 0.0
C149 C 1.19169 0.39603 0.85238 0.0
C150 C 1.15787 0.53995 0.88532 0.0
N151 N 1.17178 0.5141 0.92057 0.0
C152 C 1.13649 0.60121 0.88003 0.0
H153 H 0.24478 0.39483 0.85886 0.0
H154 H 1.19138 0.40803 0.81984 0.0
H155 H 1.14214 0.33836 0.86069 0.0
H156 H 1.09054 0.58883 0.90189 0.0
H157 H 1.11638 0.60526 0.8497 0.0
H158 H 1.18677 0.65714 0.88581 0.0
C159 C 0.32427 0.69345 0.45719 0.0
N160 N 0.27281 0.64455 0.43073 0.0
N161 N 0.38766 0.75658 0.43865 0.0
C162 C 0.3126 0.67943 0.50135 0.0
C163 C 0.37187 0.74392 0.39972 0.0
N164 N 0.30479 0.67697 0.39459 0.0
C165 C 0.42388 0.79705 0.36596 0.0
H166 H 0.27301 0.69867 0.51057 0.0
H167 H 0.36776 0.71173 0.51665 0.0
H168 H 0.28598 0.61744 0.51047 0.0
H169 H 0.46634 0.77982 0.35908 0.0
H170 H 0.45628 0.85706 0.3736 0.0
H171 H 0.39066 0.79432 0.33892 0.0
C172 C 0.81982 0.19329 0.79313 0.0
N173 N 0.82684 0.14839 0.76631 0.0
N174 N 0.82621 0.26068 0.77534 0.0
C175 C 0.80819 0.1719 0.837 0.0
C176 C 0.83683 0.25412 0.73656 0.0
N177 N 0.83803 0.18864 0.73081 0.0
C178 C 0.84638 0.31295 0.70327 0.0
H179 H 0.75613 1.11522 0.84327 0.0
H180 H 0.80223 0.21462 0.85262 0.0
H181 H 0.85785 0.16749 0.84874 0.0
H182 H 0.90778 0.34707 0.69389 0.0
H183 H 0.82874 0.35335 0.71187 0.0
H184 H 0.81271 0.28442 0.67728 0.0
C185 C 0.71248 0.61185 0.11711 0.0
N186 N 0.76838 0.61696 0.09147 0.0
N187 N 0.65384 0.61758 0.09774 0.0
C188 C 0.71514 0.60131 0.16139 0.0
C189 C 0.6765 0.62588 0.05909 0.0
N190 N 0.74374 0.62497 0.05484 0.0
C191 C 0.63171 0.63386 0.02447 0.0
H192 H 0.74302 0.56715 0.17003 0.0
H193 H 0.65654 0.57308 0.17491 0.0
H194 H 0.74934 0.65812 0.17315 0.0
H195 H 0.67118 0.68 0.00233 0.0
H196 H 0.58668 0.64597 0.03349 0.0
H197 H 0.60311 0.57979 0.00975 0.0
C198 C 0.44863 0.55239 0.14114 0.0
C199 C 0.43841 0.6169 0.13017 0.0
C200 C 0.57761 0.68547 0.10663 0.0
C201 C 0.58393 0.61833 0.11261 0.0
N202 N 0.51697 0.48346 0.13063 0.0
N203 N 0.49587 0.74106 0.09342 0.0
C204 C 0.51683 0.55072 0.12852 0.0
C205 C 0.50414 0.68255 0.1108 0.0
N206 N 0.39503 0.49337 0.16563 0.0
N207 N 0.64286 0.75332 0.09676 0.0
H208 H 0.44375 0.74016 0.09272 0.0
H209 H 0.53837 0.78636 0.07551 0.0
H210 H 0.69611 0.75704 0.09339 0.0
H211 H 0.64541 0.80595 0.09585 0.0
H212 H 0.40202 0.44847 0.17782 0.0
H213 H 0.34789 0.49363 0.17752 0.0
H214 H 0.46807 0.4305 0.13759 0.0
H215 H 0.56495 0.48058 0.12222 0.0
C216 C 1.11358 0.42905 0.43748 0.0
C217 C 1.05113 0.42529 0.45944 0.0
C218 C 1.13303 0.56942 0.45807 0.0
C219 C 0.19781 0.57104 0.44015 0.0
N220 N 0.25173 0.49472 0.42422 0.0
N221 N 1.01221 0.49738 0.49641 0.0
C222 C 1.18819 0.49853 0.43308 0.0
C223 C 1.06392 0.49732 0.47103 0.0
N224 N 1.10135 0.36723 0.41857 0.0
N225 N 1.13671 0.63734 0.46237 0.0
H226 H 0.96397 0.44754 0.50798 0.0
H227 H 1.02112 0.54593 0.50927 0.0
H228 H 1.18567 0.68977 0.45437 0.0
H229 H 1.08957 0.64162 0.47061 0.0
H230 H 1.14207 0.36863 0.3995 0.0
H231 H 1.04766 0.31817 0.41763 0.0
H232 H 0.25082 0.44332 0.4223 0.0
H233 H 0.30655 0.54249 0.42422 0.0
C234 C 0.89073 0.9941 0.77282 0.0
C235 C 0.82596 0.92548 0.79062 0.0
C236 C 0.75898 1.00364 0.78977 0.0
C237 C 0.82599 1.07318 0.77483 0.0
N238 N 0.96218 0.13375 0.76516 0.0
N239 N 0.70311 0.87525 0.82379 0.0
C240 C 0.89337 1.06764 0.76992 0.0
C241 C 0.76133 0.9334 0.80091 0.0
N242 N 0.94966 0.98949 0.75676 0.0
N243 N 0.69169 1.00378 0.79317 0.0
H244 H 0.70371 0.82584 0.83428 0.0
H245 H 0.65852 0.87936 0.83609 0.0
H246 H 0.68828 1.05324 0.78759 0.0
H247 H 0.63867 0.95428 0.79874 0.0
H248 H 0.99445 1.03505 0.74004 0.0
H249 H 0.94946 0.93818 0.75626 0.0
H250 H 1.01473 0.13541 0.7648 0.0
H251 H 0.96648 0.18661 0.76734 0.0
C252 C 0.96653 0.66738 0.13932 0.0
C253 C 0.98342 0.61137 0.12646 0.0
C254 C 0.85283 0.55391 0.09479 0.0
C255 C 0.84141 0.61584 0.10248 0.0
N256 N 0.8966 0.7372 0.13006 0.0
N257 N 0.94275 0.51013 0.08286 0.0
C258 C 0.90125 0.67403 0.12412 0.0
C259 C 0.92626 0.55711 0.10175 0.0
N260 N 1.0102 0.71209 0.16825 0.0
N261 N 0.79161 0.48886 0.08309 0.0
H262 H 0.99612 0.51365 0.08439 0.0
H263 H 0.90683 0.4743 0.06197 0.0
H264 H 0.73701 0.48248 0.08159 0.0
H265 H 0.79301 0.4388 0.08044 0.0
H266 H 0.99729 0.74846 0.18197 0.0
H267 H 1.05401 0.70624 0.18198 0.0
H268 H 0.94148 0.78593 0.14114 0.0
H269 H 0.85002 0.74315 0.12079 0.0
C270 C 0.58689 0.88986 0.4849 0.0
C271 C 0.60299 0.96537 0.47096 0.0
C272 C 0.46539 0.89936 0.44743 0.0
C273 C 0.45623 0.82503 0.45423 0.0
N274 N 0.51584 0.75252 0.47715 0.0
N275 N 0.55077 1.03588 0.43329 0.0
C276 C 0.51925 0.82145 0.47236 0.0
C277 C 0.53979 0.96817 0.45108 0.0
N278 N 0.63246 0.88227 0.51305 0.0
N279 N 0.40201 0.90426 0.43707 0.0
H280 H 0.60408 1.08525 0.42959 0.0
H281 H 0.50896 1.04108 0.41699 0.0
H282 H 0.34848 0.85573 0.43381 0.0
H283 H 0.40042 0.95485 0.43587 0.0
H284 H 0.61646 0.82993 0.52876 0.0
H285 H 0.67992 0.92897 0.52416 0.0
H286 H 0.5624 0.74662 0.48657 0.0
H287 H 0.46804 0.70245 0.46892 0.0
C288 C 0.88094 0.45434 0.81861 0.0
C289 C 0.82204 0.4698 0.80393 0.0
C290 C 0.75737 0.33703 0.77947 0.0
C291 C 0.81984 0.32541 0.79052 0.0
N292 N 0.9296 0.36539 0.83135 0.0
N293 N 0.70417 0.42126 0.76743 0.0
C294 C 0.87834 0.38224 0.81308 0.0
C295 C 0.75975 0.40904 0.78421 0.0
N296 N 0.94127 0.50963 0.8375 0.0
N297 N 0.69348 0.27689 0.76538 0.0
H298 H 0.70075 0.46978 0.77071 0.0
H299 H 0.66394 0.38571 0.7479 0.0
H300 H 0.69037 0.22477 0.76204 0.0
H301 H 0.64152 0.27548 0.76079 0.0
H302 H 0.99087 0.50779 0.84432 0.0
H303 H 0.94296 0.55905 0.84522 0.0
H304 H 0.96647 0.39645 0.85329 0.0
H305 H 0.93212 0.3169 0.82603 0.0
C306 C 0.88724 0.75907 0.46557 0.0
C307 C 0.86753 0.81608 0.45652 0.0
C308 C 0.77577 0.76571 0.51174 0.0
C309 C 0.79315 0.70735 0.52092 0.0
N310 N 0.85749 0.64057 0.50302 0.0
N311 N 0.76736 0.84845 0.45955 0.0
C312 C 0.84667 0.70151 0.4967 0.0
C313 C 0.80352 0.81146 0.47589 0.0
N314 N 0.9472 0.76291 0.44538 0.0
N315 N 0.73001 0.7753 0.53696 0.0
H316 H 0.77982 0.87548 0.43101 0.0
H317 H 0.71719 0.84191 0.4718 0.0
H318 H 0.70435 0.73875 0.56247 0.0
H319 H 0.72573 0.82443 0.53458 0.0
H320 H 0.97112 0.72867 0.45308 0.0
H321 H 0.97422 0.803 0.42119 0.0
H322 H 0.88842 0.62801 0.48374 0.0
H323 H 0.83278 0.60092 0.52718 0.0
C324 C 0.2587 0.66094 0.77623 0.0
C325 C 1.18869 0.65025 0.76069 0.0
C326 C 1.12632 0.51696 0.7881 0.0
C327 C 1.18623 0.53852 0.81518 0.0
N328 N 0.31928 0.62684 0.82872 0.0
N329 N 1.05948 0.55943 0.74192 0.0
C330 C 0.25631 0.60757 0.80637 0.0
C331 C 1.12442 0.57459 0.76207 0.0
N332 N 0.32501 0.72795 0.767 0.0
N333 N 1.07163 0.44203 0.7879 0.0
H334 H 1.05776 0.59781 0.72019 0.0
H335 H 1.0074 0.50848 0.74672 0.0
H336 H 1.07294 0.40055 0.80775 0.0
H337 H 1.0302 0.42092 0.76616 0.0
H338 H 0.37746 0.73996 0.77947 0.0
H339 H 0.32619 0.76919 0.7459 0.0
H340 H 0.32046 0.5914 0.85251 0.0
H341 H 0.32046 0.5914 0.85251 0.0
C342 C 0.28755 1.10104 0.24029 0.0
C343 C 0.30346 1.03997 0.23938 0.0
C344 C 0.4163 1.10951 0.27781 0.0
C345 C 0.39942 0.16502 0.2812 0.0
N346 N 0.33192 0.22975 0.26096 0.0
N347 N 0.37996 0.98274 0.26341 0.0
C348 C 0.33785 0.16584 0.26149 0.0
C349 C 0.36535 1.04168 0.2613 0.0
N350 N 0.22667 1.09741 0.21998 0.0
N351 N 0.49535 0.14068 0.27801 0.0
H352 H 0.34597 0.9319 0.25036 0.0
H353 H 0.42341 0.98315 0.28102 0.0
H354 H 0.57657 0.27458 0.28534 0.0
H355 H 0.51016 1.10149 0.26938 0.0
H356 H 0.21114 0.1392 0.21942 0.0
H357 H 1.18977 1.05002 0.20476 0.0
H358 H 0.2905 0.23704 0.24552 0.0
H359 H 0.37069 0.2761 0.27639 0.0
C360 C 0.64598 0.44792 0.45938 0.0
C361 C 0.5679 0.40132 0.45008 0.0
C362 C 0.5351 0.42213 0.51597 0.0
C363 C 0.61357 0.45505 0.52621 0.0
N364 N 0.73504 0.46543 0.51107 0.0
N365 N 0.43672 0.35823 0.46686 0.0
C366 C 0.66532 0.45401 0.49932 0.0
C367 C 0.51164 0.39345 0.47772 0.0
N368 N 0.70089 0.48906 0.43055 0.0
N369 N 0.48509 0.4224 0.5423 0.0
H370 H 0.42136 0.3413 0.43815 0.0
H371 H 0.39102 0.34597 0.48564 0.0
H372 H 0.50288 0.442 0.57035 0.0
H373 H 0.42767 0.404 0.53657 0.0
H374 H 0.75822 0.52582 0.43722 0.0
H375 H 0.68655 0.49364 0.40103 0.0
H376 H 0.774 0.46491 0.49141 0.0
H377 H 0.74923 0.46661 0.54089 0.0
C378 C 0.35148 0.51502 0.95697 0.0
C379 C 0.37056 0.47503 0.9315 0.0
C380 C 0.23673 0.37204 0.93507 0.0
C381 C 0.21942 0.42737 0.94528 0.0
N382 N 0.25794 0.47671 0.00892 0.0
N383 N 0.33732 0.35238 0.90938 0.0
C384 C 0.27484 0.47905 0.97011 0.0
C385 C 0.31531 0.3974 0.92607 0.0
N386 N 0.40397 0.58469 0.96873 0.0
N387 N 1.17854 0.29952 0.93153 0.0
H388 H 0.39515 0.37169 0.9032 0.0
H389 H 0.29894 0.29723 0.90196 0.0
H390 H 1.12171 0.28483 0.93728 0.0
H391 H 1.187 0.25518 0.92472 0.0
H392 H 0.38785 0.61383 0.98681 0.0
H393 H 0.46159 0.61285 0.95973 0.0
H394 H 0.29982 0.50948 0.0288 0.0
H395 H 0.20385 0.43609 0.02078 0.0
C396 C 0.77403 0.31677 0.18505 0.0
C397 C 0.7782 0.25259 0.17499 0.0
C398 C 0.67065 0.16909 0.21917 0.0
C399 C 0.66395 0.23248 0.22921 0.0
N400 N 0.69939 0.36471 0.21379 0.0
N401 N 0.71771 1.1166 0.17346 0.0
C402 C 0.71186 0.30562 0.20916 0.0
C403 C 0.72039 0.17854 0.18808 0.0
N404 N 0.83409 0.38787 0.17421 0.0
N405 N 0.63537 1.09977 0.23993 0.0
H406 H 0.75408 1.12236 0.15023 0.0
H407 H 0.67652 1.06055 0.18308 0.0
H408 H 0.60693 1.08844 0.26694 0.0
H409 H 0.60693 1.08844 0.26694 0.0
H410 H 0.84062 0.43867 0.18316 0.0
H411 H 0.84062 0.43867 0.18316 0.0
H412 H 0.72517 0.41559 0.19558 0.0
H413 H 0.65963 0.36149 0.23408 0.0
C414 C 0.24189 0.6495 0.00106 0.0
C415 C 0.20059 0.5976 0.03402 0.0
C416 C 1.12179 0.50258 0.98758 0.0
C417 C 1.17645 0.54666 0.95738 0.0
N418 N 0.29499 0.66086 0.93611 0.0
N419 N 1.10575 0.46808 0.05735 0.0
C420 C 0.23806 0.62032 0.96408 0.0
C421 C 1.1397 0.52301 0.02697 0.0
N422 N 0.28158 0.72647 0.00429 0.0
N423 N 1.05519 0.43886 0.97892 0.0
H424 H 1.12299 0.47795 0.08623 0.0
H425 H 1.06838 0.41071 0.05307 0.0
H426 H 1.04259 0.42214 0.95006 0.0
H427 H 1.0103 0.40749 -0.0004 0.0
H428 H 0.30807 0.7661 0.97996 0.0
H429 H 0.27823 0.75071 0.0296 0.0
H430 H 0.34471 0.71185 0.94137 0.0
H431 H 0.29557 0.6399 0.9092 0.0
C432 C 0.79083 0.26778 0.35452 0.0
C433 C 0.7787 0.19695 0.37221 0.0
C434 C 0.65007 0.13059 0.34443 0.0
C435 C 0.66131 0.20123 0.32669 0.0
N436 N 0.74506 0.33613 0.31049 0.0
N437 N 0.70868 1.05996 0.37488 0.0
C438 C 0.7331 0.26938 0.32992 0.0
C439 C 0.71218 0.12792 0.36375 0.0
N440 N 0.8551 0.33372 0.36348 0.0
N441 N 0.57929 1.06655 0.34391 0.0
H442 H 0.75455 1.05747 0.38849 0.0
H443 H 0.66437 1.00714 0.36746 0.0
H444 H 0.53178 1.06773 0.33209 0.0
H445 H 0.56598 1.01322 0.35731 0.0
H446 H 0.86351 0.38816 0.35596 0.0
H447 H 0.89952 0.33368 0.37997 0.0
H448 H 0.79854 0.38576 0.30733 0.0
H449 H 0.70147 0.34113 0.29616 0.0
C450 C 0.85176 0.62447 0.67397 0.0
C451 C 0.82691 0.67085 0.69064 0.0
C452 C 0.81101 0.71368 0.62385 0.0
C453 C 0.80685 0.64855 0.60917 0.0
N454 N 0.85452 0.56145 0.61615 0.0
N455 N 0.78055 0.76047 0.67935 0.0
C456 C 0.83844 0.61067 0.63296 0.0
C457 C 0.8058 0.71582 0.66509 0.0
N458 N 0.88737 0.59397 0.69736 0.0
N459 N 0.83669 0.77951 0.60018 0.0
H460 H 0.77497 0.76439 0.70944 0.0
H461 H 0.76016 0.7895 0.66051 0.0
H462 H 0.86712 0.78814 0.57402 0.0
H463 H 0.84343 0.82947 0.61052 0.0
H464 H 0.90924 0.56145 0.68736 0.0
H465 H 0.90049 0.60668 0.72666 0.0
H466 H 0.87242 0.52693 0.63168 0.0
H467 H 0.84825 0.55468 0.58588 0.0
C468 C 0.78123 1.11026 0.62954 0.0
C469 C 0.84179 0.1705 0.60534 0.0
C470 C 0.91237 0.21828 0.66719 0.0
C471 C 0.84496 0.16854 0.69086 0.0
N472 N 0.71104 1.07315 0.69219 0.0
N473 N 0.96844 0.28268 0.60254 0.0
C474 C 0.7788 1.11493 0.67143 0.0
C475 C 0.90928 0.22363 0.62449 0.0
N476 N 0.72517 1.04826 0.61229 0.0
N477 N 0.9788 0.26378 0.68586 0.0
H478 H 0.97127 0.28728 0.57174 0.0
H479 H 1.01375 0.32936 0.61482 0.0
H480 H 0.98068 0.26688 0.71645 0.0
H481 H 1.03226 0.29497 0.67145 0.0
H482 H 0.68308 0.99965 0.6286 0.0
H483 H 0.72628 1.04213 0.58201 0.0
H484 H 0.65871 1.03924 0.67895 0.0
H485 H 0.70629 1.07851 0.72208 0.0
C486 C 0.86034 0.71725 0.95782 0.0
C487 C 0.8165 0.66032 0.93127 0.0
C488 C 0.73932 0.57361 0.98944 0.0
C489 C 0.77862 0.63271 0.01553 0.0
N490 N 0.86881 0.76472 0.02265 0.0
N491 N 0.71067 0.53493 0.92195 0.0
C492 C 0.8378 0.70529 -0.00084 0.0
C493 C 0.75555 0.58838 0.94732 0.0
N494 N 0.92404 0.78322 0.94355 0.0
N495 N 0.68413 0.50322 0.00514 0.0
H496 H 0.72101 0.54349 0.89143 0.0
H497 H 0.66005 0.48461 0.93032 0.0
H498 H 0.6654 0.49293 0.03464 0.0
H499 H 0.65901 0.45436 0.98976 0.0
H500 H 0.96359 0.82339 0.96166 0.0
H501 H 0.94033 0.79544 0.91358 0.0
H502 H 0.90542 0.82133 0.01214 0.0
H503 H 0.85295 0.75778 0.05244 0.0
C504 C 0.19922 0.6318 0.29586 0.0
C505 C 0.2538 0.62731 0.27146 0.0
C506 C 0.32726 0.6326 0.33226 0.0
C507 C 0.2789 0.64752 0.35542 0.0
N508 N 1.17706 0.67633 0.35611 0.0
N509 N 0.37964 0.64061 0.2671 0.0
C510 C 0.2169 0.6509 0.33632 0.0
C511 C 0.32012 0.63171 0.29003 0.0
N512 N 1.12896 0.61473 0.28145 0.0
N513 N 0.3824 0.62165 0.35064 0.0
H514 H 0.38004 0.6459 0.23618 0.0
H515 H 0.4325 0.65187 0.2785 0.0
H516 H 0.39346 0.62789 0.38073 0.0
H517 H 0.41324 0.60126 0.33664 0.0
H518 H 1.08481 0.60996 0.29915 0.0
H519 H 1.11155 0.59724 0.25316 0.0
H520 H 1.13675 0.68823 0.34267 0.0
H521 H 1.18976 0.69213 0.38502 0.0
loop_
_geom_bond_atom_site_label_1
_geom_bond_atom_site_label_2
_geom_bond_distance
_geom_bond_site_symmetry_2
_ccdc_geom_bond_type
C0 Eu1 2.835 . S
C0 C2 1.500 . S
C0 O20 1.257 . S
C0 O21 1.260 . S
Eu1 C0 2.835 . S
Eu1 O20 2.473 . S
Eu1 O21 2.480 . S
Eu1 O22 2.430 . S
Eu1 O23 2.670 1_655 S
Eu1 O24 2.394 . S
Eu1 O29 2.355 1_655 S
Eu1 O31 2.374 1_655 S
C2 C0 1.500 . S
C2 C3 1.377 . S
C2 C7 1.377 . S
C3 C2 1.377 . S
C3 C4 1.395 . S
C3 H32 0.931 . S
C4 C3 1.395 . S
C4 C5 1.383 . S
C4 H33 0.931 . S
C5 C4 1.383 . S
C5 C6 1.394 . S
C6 C5 1.394 . S
C6 C7 1.378 . S
C6 H34 0.931 . S
C7 C2 1.377 . S
C7 C6 1.378 . S
C7 H35 0.931 . S
C8 O22 1.259 1_455 S
C8 O23 1.270 . S
C9 O24 1.251 . S
C9 O25 1.251 . S
C10 Eu11 2.835 . S
C10 C12 1.500 . S
C10 O26 1.257 . S
C10 O27 1.260 . S
Eu11 C10 2.835 . S
Eu11 O23 2.355 . S
Eu11 O25 2.374 1_455 S
Eu11 O26 2.473 . S
Eu11 O27 2.480 . S
Eu11 O28 2.430 . S
Eu11 O29 2.670 . S
Eu11 O30 2.394 . S
C12 C10 1.500 . S
C12 C13 1.377 . S
C12 C17 1.377 . S
C13 C12 1.377 . S
C13 C14 1.395 . S
C13 H36 0.931 . S
C14 C13 1.395 . S
C14 C15 1.383 . S
C14 H37 0.931 . S
C15 C14 1.383 . S
C15 C16 1.394 . S
C16 C15 1.394 . S
C16 C17 1.378 . S
C16 H38 0.931 . S
C17 C12 1.377 . S
C17 C16 1.378 . S
C17 H39 0.931 . S
C18 O28 1.259 . S
C18 O29 1.270 . S
C19 O30 1.251 . S
C19 O31 1.251 . S
O20 C0 1.257 . S
O20 Eu1 2.473 . S
O21 C0 1.260 . S
O21 Eu1 2.480 . S
O22 Eu1 2.430 . S
O22 C8 1.259 1_655 S
O23 Eu1 2.670 1_455 S
O23 C8 1.270 . S
O23 Eu11 2.355 . S
O24 Eu1 2.394 . S
O24 C9 1.251 . S
O25 C9 1.251 . S
O25 Eu11 2.374 1_655 S
O26 C10 1.257 . S
O26 Eu11 2.473 . S
O27 C10 1.260 . S
O27 Eu11 2.480 . S
O28 Eu11 2.430 . S
O28 C18 1.259 . S
O29 Eu1 2.355 1_455 S
O29 Eu11 2.670 . S
O29 C18 1.270 . S
O30 Eu11 2.394 . S
O30 C19 1.251 . S
O31 Eu1 2.374 1_455 S
O31 C19 1.251 . S
H32 C3 0.931 . S
H33 C4 0.931 . S
H34 C6 0.931 . S
H35 C7 0.931 . S
H36 C13 0.931 . S
H37 C14 0.931 . S
H38 C16 0.931 . S
H39 C17 0.931 . S
C40 Eu41 2.835 . S
C40 C42 1.500 . S
C40 O60 1.257 . S
C40 O61 1.260 . S
Eu41 C40 2.835 . S
Eu41 O60 2.473 . S
Eu41 O61 2.480 . S
Eu41 O62 2.430 . S
Eu41 O63 2.670 . S
Eu41 O64 2.394 . S
Eu41 O69 2.355 . S
Eu41 O71 2.374 1_545 S
C42 C40 1.500 . S
C42 C43 1.377 . S
C42 C47 1.377 . S
C43 C42 1.377 . S
C43 C44 1.395 . S
C43 H72 0.931 . S
C44 C43 1.395 . S
C44 C45 1.383 . S
C44 H73 0.931 . S
C45 C44 1.383 . S
C45 C46 1.394 . S
C46 C45 1.394 . S
C46 C47 1.378 . S
C46 H74 0.931 . S
C47 C42 1.377 . S
C47 C46 1.378 . S
C47 H75 0.931 . S
C48 O62 1.259 . S
C48 O63 1.270 . S
C49 O64 1.251 . S
C49 O65 1.251 . S
C50 Eu51 2.835 . S
C50 C52 1.500 . S
C50 O66 1.257 . S
C50 O67 1.260 . S
Eu51 C50 2.835 . S
Eu51 O63 2.355 1_565 S
Eu51 O65 2.374 1_565 S
Eu51 O66 2.473 . S
Eu51 O67 2.480 . S
Eu51 O68 2.430 1_565 S
Eu51 O69 2.670 1_565 S
Eu51 O70 2.394 . S
C52 C50 1.500 . S
C52 C53 1.377 . S
C52 C57 1.377 . S
C53 C52 1.377 . S
C53 C54 1.395 . S
C53 H76 0.931 . S
C54 C53 1.395 . S
C54 C55 1.383 . S
C54 H77 0.931 . S
C55 C54 1.383 . S
C55 C56 1.394 . S
C56 C55 1.394 . S
C56 C57 1.378 . S
C56 H78 0.931 . S
C57 C52 1.377 . S
C57 C56 1.378 . S
C57 H79 0.931 . S
C58 O68 1.259 . S
C58 O69 1.270 . S
C59 O70 1.251 . S
C59 O71 1.251 . S
O60 C40 1.257 . S
O60 Eu41 2.473 . S
O61 C40 1.260 . S
O61 Eu41 2.480 . S
O62 Eu41 2.430 . S
O62 C48 1.259 . S
O63 Eu41 2.670 . S
O63 C48 1.270 . S
O63 Eu51 2.355 1_545 S
O64 Eu41 2.394 . S
O64 C49 1.251 . S
O65 C49 1.251 . S
O65 Eu51 2.374 1_545 S
O66 C50 1.257 . S
O66 Eu51 2.473 . S
O67 C50 1.260 . S
O67 Eu51 2.480 . S
O68 Eu51 2.430 1_545 S
O68 C58 1.259 . S
O69 Eu41 2.355 . S
O69 Eu51 2.670 1_545 S
O69 C58 1.270 . S
O70 Eu51 2.394 . S
O70 C59 1.251 . S
O71 Eu41 2.374 1_565 S
O71 C59 1.251 . S
H72 C43 0.931 . S
H73 C44 0.931 . S
H74 C46 0.931 . S
H75 C47 0.931 . S
H76 C53 0.931 . S
H77 C54 0.931 . S
H78 C56 0.931 . S
H79 C57 0.931 . S
C80 Eu81 2.835 . S
C80 C82 1.500 . S
C80 O100 1.257 . S
C80 O101 1.260 . S
Eu81 C80 2.835 . S
Eu81 O100 2.473 . S
Eu81 O101 2.480 . S
Eu81 O102 2.430 . S
Eu81 O103 2.670 . S
Eu81 O104 2.394 . S
Eu81 O109 2.355 . S
Eu81 O111 2.374 . S
C82 C80 1.500 . S
C82 C83 1.377 . S
C82 C87 1.377 . S
C83 C82 1.377 . S
C83 C84 1.395 . S
C83 H112 0.931 . S
C84 C83 1.395 . S
C84 C85 1.383 . S
C84 H113 0.931 . S
C85 C84 1.383 . S
C85 C86 1.394 . S
C86 C85 1.394 . S
C86 C87 1.378 . S
C86 H114 0.931 . S
C87 C82 1.377 . S
C87 C86 1.378 . S
C87 H115 0.931 . S
C88 O102 1.259 . S
C88 O103 1.270 . S
C89 O104 1.251 . S
C89 O105 1.251 . S
C90 Eu91 2.835 . S
C90 C92 1.500 . S
C90 O106 1.257 . S
C90 O107 1.260 . S
Eu91 C90 2.835 . S
Eu91 O103 2.355 . S
Eu91 O105 2.374 . S
Eu91 O106 2.473 . S
Eu91 O107 2.480 . S
Eu91 O108 2.430 . S
Eu91 O109 2.670 . S
Eu91 O110 2.394 . S
C92 C90 1.500 . S
C92 C93 1.377 . S
C92 C97 1.377 . S
C93 C92 1.377 . S
C93 C94 1.395 . S
C93 H116 0.931 . S
C94 C93 1.395 . S
C94 C95 1.383 . S
C94 H117 0.931 . S
C95 C94 1.383 . S
C95 C96 1.394 . S
C96 C95 1.394 . S
C96 C97 1.378 . S
C96 H118 0.931 . S
C97 C92 1.377 . S
C97 C96 1.378 . S
C97 H119 0.931 . S
C98 O108 1.259 . S
C98 O109 1.270 . S
C99 O110 1.251 . S
C99 O111 1.251 . S
O100 C80 1.257 . S
O100 Eu81 2.473 . S
O101 C80 1.260 . S
O101 Eu81 2.480 . S
O102 Eu81 2.430 . S
O102 C88 1.259 . S
O103 Eu81 2.670 . S
O103 C88 1.270 . S
O103 Eu91 2.355 . S
O104 Eu81 2.394 . S
O104 C89 1.251 . S
O105 C89 1.251 . S
O105 Eu91 2.374 . S
O106 C90 1.257 . S
O106 Eu91 2.473 . S
O107 C90 1.260 . S
O107 Eu91 2.480 . S
O108 Eu91 2.430 . S
O108 C98 1.259 . S
O109 Eu81 2.355 . S
O109 Eu91 2.670 . S
O109 C98 1.270 . S
O110 Eu91 2.394 . S
O110 C99 1.251 . S
O111 Eu81 2.374 . S
O111 C99 1.251 . S
H112 C83 0.931 . S
H113 C84 0.931 . S
H114 C86 0.931 . S
H115 C87 0.931 . S
H116 C93 0.931 . S
H117 C94 0.931 . S
H118 C96 0.931 . S
H119 C97 0.931 . S
C120 N121 1.317 . S
C120 N122 1.348 1_545 S
C120 C123 1.485 . S
N121 C120 1.317 . S
N121 N125 1.370 . S
N122 C120 1.348 1_565 S
N122 C124 1.346 . S
C123 C120 1.485 . S
C123 H127 0.960 . S
C123 H128 0.961 . S
C123 H129 0.960 . S
C124 N122 1.346 . S
C124 N125 1.307 1_565 S
C124 C126 1.486 . S
N125 N121 1.370 . S
N125 C124 1.307 1_545 S
C126 C124 1.486 . S
C126 H130 0.960 . S
C126 H131 0.960 . S
C126 H132 0.959 . S
H127 C123 0.960 . S
H128 C123 0.961 . S
H129 C123 0.960 . S
H130 C126 0.960 . S
H131 C126 0.960 . S
H132 C126 0.959 . S
C133 N134 1.317 . S
C133 N135 1.348 . S
C133 C136 1.485 . S
N134 C133 1.317 . S
N134 N138 1.370 . S
N135 C133 1.348 . S
N135 C137 1.346 . S
C136 C133 1.485 . S
C136 H140 0.960 . S
C136 H141 0.961 . S
C136 H142 0.960 . S
C137 N135 1.346 . S
C137 N138 1.307 . S
C137 C139 1.486 . S
N138 N134 1.370 . S
N138 C137 1.307 . S
C139 C137 1.486 . S
C139 H143 0.960 . S
C139 H144 0.960 . S
C139 H145 0.959 . S
H140 C136 0.960 . S
H141 C136 0.961 . S
H142 C136 0.960 . S
H143 C139 0.960 . S
H144 C139 0.960 . S
H145 C139 0.959 . S
C146 N147 1.317 1_655 S
C146 N148 1.348 . S
C146 C149 1.485 1_655 S
N147 C146 1.317 1_455 S
N147 N151 1.370 . S
N148 C146 1.348 . S
N148 C150 1.346 . S
C149 C146 1.485 1_455 S
C149 H153 0.960 . S
C149 H154 0.961 1_455 S
C149 H155 0.960 . S
C150 N148 1.346 . S
C150 N151 1.307 1_655 S
C150 C152 1.486 . S
N151 N147 1.370 . S
N151 C150 1.307 1_455 S
C152 C150 1.486 . S
C152 H156 0.960 . S
C152 H157 0.960 . S
C152 H158 0.959 . S
H153 C149 0.960 . S
H154 C149 0.961 1_655 S
H155 C149 0.960 . S
H156 C152 0.960 . S
H157 C152 0.960 . S
H158 C152 0.959 . S
C159 N160 1.317 . S
C159 N161 1.348 . S
C159 C162 1.485 . S
N160 C159 1.317 . S
N160 N164 1.370 . S
N161 C159 1.348 . S
N161 C163 1.346 . S
C162 C159 1.485 . S
C162 H166 0.960 . S
C162 H167 0.961 . S
C162 H168 0.960 . S
C163 N161 1.346 . S
C163 N164 1.307 . S
C163 C165 1.486 . S
N164 N160 1.370 . S
N164 C163 1.307 . S
C165 C163 1.486 . S
C165 H169 0.960 . S
C165 H170 0.960 . S
C165 H171 0.959 . S
H166 C162 0.960 . S
H167 C162 0.961 . S
H168 C162 0.960 . S
H169 C165 0.960 . S
H170 C165 0.960 . S
H171 C165 0.959 . S
C172 N173 1.317 1_545 S
C172 N174 1.348 . S
C172 C175 1.485 . S
N173 C172 1.317 1_565 S
N173 N177 1.370 1_565 S
N174 C172 1.348 . S
N174 C176 1.346 . S
C175 C172 1.485 . S
C175 H179 0.960 1_545 S
C175 H180 0.961 . S
C175 H181 0.960 1_545 S
C176 N174 1.346 . S
C176 N177 1.307 . S
C176 C178 1.486 . S
N177 N173 1.370 1_545 S
N177 C176 1.307 . S
C178 C176 1.486 . S
C178 H182 0.960 . S
C178 H183 0.960 . S
C178 H184 0.959 . S
H179 C175 0.960 1_565 S
H180 C175 0.961 . S
H181 C175 0.960 1_565 S
H182 C178 0.960 . S
H183 C178 0.960 . S
H184 C178 0.959 . S
C185 N186 1.317 . S
C185 N187 1.348 . S
C185 C188 1.485 . S
N186 C185 1.317 . S
N186 N190 1.370 . S
N187 C185 1.348 . S
N187 C189 1.346 . S
C188 C185 1.485 . S
C188 H192 0.960 . S
C188 H193 0.961 . S
C188 H194 0.960 . S
C189 N187 1.346 . S
C189 N190 1.307 . S
C189 C191 1.486 . S
N190 N186 1.370 . S
N190 C189 1.307 . S
C191 C189 1.486 . S
C191 H195 0.960 . S
C191 H196 0.960 . S
C191 H197 0.959 . S
H192 C188 0.960 . S
H193 C188 0.961 . S
H194 C188 0.960 . S
H195 C191 0.960 . S
H196 C191 0.960 . S
H197 C191 0.959 . S
C198 C199 1.363 . S
C198 C204 1.379 . S
C198 N206 1.356 . S
C199 C198 1.363 . S
C199 C205 1.363 . S
C200 C201 1.363 . S
C200 C205 1.379 . S
C200 N207 1.356 . S
C201 C200 1.363 . S
C201 C204 1.363 . S
N202 C204 1.356 . S
N202 H214 0.984 . S
N202 H215 0.985 . S
N203 C205 1.356 . S
N203 H208 0.984 . S
N203 H209 0.985 . S
C204 C198 1.379 . S
C204 C201 1.363 . S
C204 N202 1.356 . S
C205 C199 1.363 . S
C205 C200 1.379 . S
C205 N203 1.356 . S
N206 C198 1.356 . S
N206 H212 0.984 . S
N206 H213 0.984 . S
N207 C200 1.356 . S
N207 H210 0.984 . S
N207 H211 0.985 . S
H208 N203 0.984 . S
H209 N203 0.985 . S
H210 N207 0.984 . S
H211 N207 0.985 . S
H212 N206 0.984 . S
H213 N206 0.984 . S
H214 N202 0.984 . S
H215 N202 0.985 . S
C216 C217 1.363 . S
C216 C222 1.379 . S
C216 N224 1.356 . S
C217 C216 1.363 . S
C217 C223 1.363 . S
C218 C219 1.363 . S
C218 C223 1.379 . S
C218 N225 1.356 . S
C219 C218 1.363 . S
C219 C222 1.363 . S
N220 C222 1.356 . S
N220 H232 0.984 . S
N220 H233 0.985 1_655 S
N221 C223 1.356 . S
N221 H226 0.984 . S
N221 H227 0.985 . S
C222 C216 1.379 . S
C222 C219 1.363 . S
C222 N220 1.356 . S
C223 C217 1.363 . S
C223 C218 1.379 . S
C223 N221 1.356 . S
N224 C216 1.356 . S
N224 H230 0.984 . S
N224 H231 0.984 . S
N225 C218 1.356 . S
N225 H228 0.984 . S
N225 H229 0.985 . S
H226 N221 0.984 . S
H227 N221 0.985 . S
H228 N225 0.984 . S
H229 N225 0.985 . S
H230 N224 0.984 . S
H231 N224 0.984 . S
H232 N220 0.984 . S
H233 N220 0.985 1_455 S
C234 C235 1.363 . S
C234 C240 1.379 . S
C234 N242 1.356 . S
C235 C234 1.363 . S
C235 C241 1.363 . S
C236 C237 1.363 . S
C236 C241 1.379 . S
C236 N243 1.356 . S
C237 C236 1.363 . S
C237 C240 1.363 . S
N238 C240 1.356 . S
N238 H250 0.984 . S
N238 H251 0.985 . S
N239 C241 1.356 . S
N239 H244 0.984 . S
N239 H245 0.985 . S
C240 C234 1.379 . S
C240 C237 1.363 . S
C240 N238 1.356 . S
C241 C235 1.363 . S
C241 C236 1.379 . S
C241 N239 1.356 . S
N242 C234 1.356 . S
N242 H248 0.984 . S
N242 H249 0.984 . S
N243 C236 1.356 . S
N243 H246 0.984 . S
N243 H247 0.985 . S
H244 N239 0.984 . S
H245 N239 0.985 . S
H246 N243 0.984 . S
H247 N243 0.985 . S
H248 N242 0.984 . S
H249 N242 0.984 . S
H250 N238 0.984 . S
H251 N238 0.985 . S
C252 C253 1.363 . S
C252 C258 1.379 . S
C252 N260 1.356 . S
C253 C252 1.363 . S
C253 C259 1.363 . S
C254 C255 1.363 . S
C254 C259 1.379 . S
C254 N261 1.356 . S
C255 C254 1.363 . S
C255 C258 1.363 . S
N256 C258 1.356 . S
N256 H268 0.984 . S
N256 H269 0.985 . S
N257 C259 1.356 . S
N257 H262 0.984 . S
N257 H263 0.985 . S
C258 C252 1.379 . S
C258 C255 1.363 . S
C258 N256 1.356 . S
C259 C253 1.363 . S
C259 C254 1.379 . S
C259 N257 1.356 . S
N260 C252 1.356 . S
N260 H266 0.984 . S
N260 H267 0.984 . S
N261 C254 1.356 . S
N261 H264 0.984 . S
N261 H265 0.985 . S
H262 N257 0.984 . S
H263 N257 0.985 . S
H264 N261 0.984 . S
H265 N261 0.985 . S
H266 N260 0.984 . S
H267 N260 0.984 . S
H268 N256 0.984 . S
H269 N256 0.985 . S
C270 C271 1.363 . S
C270 C276 1.379 . S
C270 N278 1.356 . S
C271 C270 1.363 . S
C271 C277 1.363 . S
C272 C273 1.363 . S
C272 C277 1.379 . S
C272 N279 1.356 . S
C273 C272 1.363 . S
C273 C276 1.363 . S
N274 C276 1.356 . S
N274 H286 0.984 . S
N274 H287 0.985 . S
N275 C277 1.356 . S
N275 H280 0.984 . S
N275 H281 0.985 . S
C276 C270 1.379 . S
C276 C273 1.363 . S
C276 N274 1.356 . S
C277 C271 1.363 . S
C277 C272 1.379 . S
C277 N275 1.356 . S
N278 C270 1.356 . S
N278 H284 0.984 . S
N278 H285 0.984 . S
N279 C272 1.356 . S
N279 H282 0.984 . S
N279 H283 0.985 . S
H280 N275 0.984 . S
H281 N275 0.985 . S
H282 N279 0.984 . S
H283 N279 0.985 . S
H284 N278 0.984 . S
H285 N278 0.984 . S
H286 N274 0.984 . S
H287 N274 0.985 . S
C288 C289 1.363 . S
C288 C294 1.379 . S
C288 N296 1.356 . S
C289 C288 1.363 . S
C289 C295 1.363 . S
C290 C291 1.363 . S
C290 C295 1.379 . S
C290 N297 1.356 . S
C291 C290 1.363 . S
C291 C294 1.363 . S
N292 C294 1.356 . S
N292 H304 0.984 . S
N292 H305 0.985 . S
N293 C295 1.356 . S
N293 H298 0.984 . S
N293 H299 0.985 . S
C294 C288 1.379 . S
C294 C291 1.363 . S
C294 N292 1.356 . S
C295 C289 1.363 . S
C295 C290 1.379 . S
C295 N293 1.356 . S
N296 C288 1.356 . S
N296 H302 0.984 . S
N296 H303 0.984 . S
N297 C290 1.356 . S
N297 H300 0.984 . S
N297 H301 0.985 . S
H298 N293 0.984 . S
H299 N293 0.985 . S
H300 N297 0.984 . S
H301 N297 0.985 . S
H302 N296 0.984 . S
H303 N296 0.984 . S
H304 N292 0.984 . S
H305 N292 0.985 . S
C306 C307 1.363 . S
C306 C312 1.379 . S
C306 N314 1.356 . S
C307 C306 1.363 . S
C307 C313 1.363 . S
C308 C309 1.363 . S
C308 C313 1.379 . S
C308 N315 1.356 . S
C309 C308 1.363 . S
C309 C312 1.363 . S
N310 C312 1.356 . S
N310 H322 0.984 . S
N310 H323 0.985 . S
N311 C313 1.356 . S
N311 H316 0.984 . S
N311 H317 0.985 . S
C312 C306 1.379 . S
C312 C309 1.363 . S
C312 N310 1.356 . S
C313 C307 1.363 . S
C313 C308 1.379 . S
C313 N311 1.356 . S
N314 C306 1.356 . S
N314 H320 0.984 . S
N314 H321 0.984 . S
N315 C308 1.356 . S
N315 H318 0.984 . S
N315 H319 0.985 . S
H316 N311 0.984 . S
H317 N311 0.985 . S
H318 N315 0.984 . S
H319 N315 0.985 . S
H320 N314 0.984 . S
H321 N314 0.984 . S
H322 N310 0.984 . S
H323 N310 0.985 . S
C324 C325 1.363 . S
C324 C330 1.379 . S
C324 N332 1.356 . S
C325 C324 1.363 . S
C325 C331 1.363 . S
C326 C327 1.363 . S
C326 C331 1.379 . S
C326 N333 1.356 . S
C327 C326 1.363 . S
C327 C330 1.363 . S
N328 C330 1.356 1_455 S
N328 H340 0.984 . S
N328 H341 0.985 . S
N329 C331 1.356 . S
N329 H334 0.984 . S
N329 H335 0.985 . S
C330 C324 1.379 . S
C330 C327 1.363 . S
C330 N328 1.356 1_655 S
C331 C325 1.363 . S
C331 C326 1.379 . S
C331 N329 1.356 . S
N332 C324 1.356 . S
N332 H338 0.984 1_655 S
N332 H339 0.984 . S
N333 C326 1.356 . S
N333 H336 0.984 . S
N333 H337 0.985 . S
H334 N329 0.984 . S
H335 N329 0.985 . S
H336 N333 0.984 . S
H337 N333 0.985 . S
H338 N332 0.984 1_455 S
H339 N332 0.984 . S
H340 N328 0.984 . S
H341 N328 0.985 . S
C342 C343 1.363 . S
C342 C348 1.379 . S
C342 N350 1.356 . S
C343 C342 1.363 . S
C343 C349 1.363 . S
C344 C345 1.363 . S
C344 C349 1.379 . S
C344 N351 1.356 1_565 S
C345 C344 1.363 . S
C345 C348 1.363 . S
N346 C348 1.356 . S
N346 H358 0.984 . S
N346 H359 0.985 . S
N347 C349 1.356 . S
N347 H352 0.984 . S
N347 H353 0.985 . S
C348 C342 1.379 . S
C348 C345 1.363 . S
C348 N346 1.356 . S
C349 C343 1.363 . S
C349 C344 1.379 . S
C349 N347 1.356 . S
N350 C342 1.356 . S
N350 H356 0.984 . S
N350 H357 0.984 . S
N351 C344 1.356 1_545 S
N351 H354 0.984 . S
N351 H355 0.985 . S
H352 N347 0.984 . S
H353 N347 0.985 . S
H354 N351 0.984 . S
H355 N351 0.985 . S
H356 N350 0.984 . S
H357 N350 0.984 . S
H358 N346 0.984 . S
H359 N346 0.985 . S
C360 C361 1.363 . S
C360 C366 1.379 . S
C360 N368 1.356 . S
C361 C360 1.363 . S
C361 C367 1.363 . S
C362 C363 1.363 . S
C362 C367 1.379 . S
C362 N369 1.356 . S
C363 C362 1.363 . S
C363 C366 1.363 . S
N364 C366 1.356 . S
N364 H376 0.984 . S
N364 H377 0.985 . S
N365 C367 1.356 . S
N365 H370 0.984 . S
N365 H371 0.985 . S
C366 C360 1.379 . S
C366 C363 1.363 . S
C366 N364 1.356 . S
C367 C361 1.363 . S
C367 C362 1.379 . S
C367 N365 1.356 . S
N368 C360 1.356 . S
N368 H374 0.984 . S
N368 H375 0.984 . S
N369 C362 1.356 . S
N369 H372 0.984 . S
N369 H373 0.985 . S
H370 N365 0.984 . S
H371 N365 0.985 . S
H372 N369 0.984 . S
H373 N369 0.985 . S
H374 N368 0.984 . S
H375 N368 0.984 . S
H376 N364 0.984 . S
H377 N364 0.985 . S
C378 C379 1.363 . S
C378 C384 1.379 . S
C378 N386 1.356 . S
C379 C378 1.363 . S
C379 C385 1.363 . S
C380 C381 1.363 . S
C380 C385 1.379 . S
C380 N387 1.356 . S
C381 C380 1.363 . S
C381 C384 1.363 . S
N382 C384 1.356 . S
N382 H394 0.984 . S
N382 H395 0.985 . S
N383 C385 1.356 . S
N383 H388 0.984 . S
N383 H389 0.985 . S
C384 C378 1.379 . S
C384 C381 1.363 . S
C384 N382 1.356 . S
C385 C379 1.363 . S
C385 C380 1.379 . S
C385 N383 1.356 . S
N386 C378 1.356 . S
N386 H392 0.984 . S
N386 H393 0.984 . S
N387 C380 1.356 . S
N387 H390 0.984 . S
N387 H391 0.985 . S
H388 N383 0.984 . S
H389 N383 0.985 . S
H390 N387 0.984 . S
H391 N387 0.985 . S
H392 N386 0.984 . S
H393 N386 0.984 . S
H394 N382 0.984 . S
H395 N382 0.985 . S
C396 C397 1.363 . S
C396 C402 1.379 . S
C396 N404 1.356 . S
C397 C396 1.363 . S
C397 C403 1.363 . S
C398 C399 1.363 . S
C398 C403 1.379 . S
C398 N405 1.356 . S
C399 C398 1.363 . S
C399 C402 1.363 . S
N400 C402 1.356 . S
N400 H412 0.984 . S
N400 H413 0.985 . S
N401 C403 1.356 . S
N401 H406 0.984 . S
N401 H407 0.985 . S
C402 C396 1.379 . S
C402 C399 1.363 . S
C402 N400 1.356 . S
C403 C397 1.363 . S
C403 C398 1.379 . S
C403 N401 1.356 . S
N404 C396 1.356 . S
N404 H410 0.984 . S
N404 H411 0.984 . S
N405 C398 1.356 . S
N405 H408 0.984 . S
N405 H409 0.985 1_545 S
H406 N401 0.984 . S
H407 N401 0.985 . S
H408 N405 0.984 . S
H409 N405 0.985 1_565 S
H410 N404 0.984 . S
H411 N404 0.984 . S
H412 N400 0.984 . S
H413 N400 0.985 . S
C414 C415 1.363 . S
C414 C420 1.379 1_554 S
C414 N422 1.356 . S
C415 C414 1.363 . S
C415 C421 1.363 . S
C416 C417 1.363 . S
C416 C421 1.379 1_556 S
C416 N423 1.356 . S
C417 C416 1.363 . S
C417 C420 1.363 . S
N418 C420 1.356 . S
N418 H430 0.984 . S
N418 H431 0.985 . S
N419 C421 1.356 . S
N419 H424 0.984 . S
N419 H425 0.985 . S
C420 C414 1.379 1_556 S
C420 C417 1.363 . S
C420 N418 1.356 . S
C421 C415 1.363 . S
C421 C416 1.379 1_554 S
C421 N419 1.356 . S
N422 C414 1.356 . S
N422 H428 0.984 . S
N422 H429 0.984 . S
N423 C416 1.356 . S
N423 H426 0.984 . S
N423 H427 0.985 . S
H424 N419 0.984 . S
H425 N419 0.985 . S
H426 N423 0.984 . S
H427 N423 0.985 . S
H428 N422 0.984 . S
H429 N422 0.984 . S
H430 N418 0.984 . S
H431 N418 0.985 . S
C432 C433 1.363 . S
C432 C438 1.379 . S
C432 N440 1.356 . S
C433 C432 1.363 . S
C433 C439 1.378 . S
C434 C435 1.363 . S
C434 C439 1.383 . S
C434 N441 1.356 1_545 S
C435 C434 1.363 . S
C435 C438 1.363 . S
N436 C438 1.356 . S
N436 H448 0.984 . S
N436 H449 0.985 . S
N437 C439 1.340 1_565 S
N437 H442 0.984 . S
N437 H443 0.985 . S
C438 C432 1.379 . S
C438 C435 1.363 . S
C438 N436 1.356 . S
C439 C433 1.378 . S
C439 C434 1.383 . S
C439 N437 1.340 1_545 S
N440 C432 1.356 . S
N440 H446 0.984 . S
N440 H447 0.984 . S
N441 C434 1.356 1_565 S
N441 H444 0.984 . S
N441 H445 0.985 . S
H442 N437 0.984 . S
H443 N437 0.985 . S
H444 N441 0.984 . S
H445 N441 0.985 . S
H446 N440 0.984 . S
H447 N440 0.984 . S
H448 N436 0.984 . S
H449 N436 0.985 . S
C450 C451 1.363 . S
C450 C456 1.379 . S
C450 N458 1.356 . S
C451 C450 1.363 . S
C451 C457 1.363 . S
C452 C453 1.363 . S
C452 C457 1.379 . S
C452 N459 1.356 . S
C453 C452 1.363 . S
C453 C456 1.363 . S
N454 C456 1.356 . S
N454 H466 0.984 . S
N454 H467 0.985 . S
N455 C457 1.356 . S
N455 H460 0.984 . S
N455 H461 0.985 . S
C456 C450 1.379 . S
C456 C453 1.363 . S
C456 N454 1.356 . S
C457 C451 1.363 . S
C457 C452 1.379 . S
C457 N455 1.356 . S
N458 C450 1.356 . S
N458 H464 0.984 . S
N458 H465 0.984 . S
N459 C452 1.356 . S
N459 H462 0.984 . S
N459 H463 0.985 . S
H460 N455 0.984 . S
H461 N455 0.985 . S
H462 N459 0.984 . S
H463 N459 0.985 . S
H464 N458 0.984 . S
H465 N458 0.984 . S
H466 N454 0.984 . S
H467 N454 0.985 . S
C468 C469 1.363 1_565 S
C468 C474 1.379 . S
C468 N476 1.356 . S
C469 C468 1.363 1_545 S
C469 C475 1.363 . S
C470 C471 1.363 . S
C470 C475 1.379 . S
C470 N477 1.356 . S
C471 C470 1.363 . S
C471 C474 1.363 1_545 S
N472 C474 1.356 . S
N472 H484 0.984 . S
N472 H485 0.985 . S
N473 C475 1.356 . S
N473 H478 0.984 . S
N473 H479 0.985 . S
C474 C468 1.379 . S
C474 C471 1.363 1_565 S
C474 N472 1.356 . S
C475 C469 1.363 . S
C475 C470 1.379 . S
C475 N473 1.356 . S
N476 C468 1.356 . S
N476 H482 0.984 . S
N476 H483 0.984 . S
N477 C470 1.356 . S
N477 H480 0.984 . S
N477 H481 0.985 . S
H478 N473 0.984 . S
H479 N473 0.985 . S
H480 N477 0.984 . S
H481 N477 0.985 . S
H482 N476 0.984 . S
H483 N476 0.984 . S
H484 N472 0.984 . S
H485 N472 0.985 . S
C486 C487 1.363 . S
C486 C492 1.379 1_556 S
C486 N494 1.356 . S
C487 C486 1.363 . S
C487 C493 1.363 . S
C488 C489 1.363 . S
C488 C493 1.379 1_554 S
C488 N495 1.356 . S
C489 C488 1.363 . S
C489 C492 1.363 . S
N490 C492 1.356 . S
N490 H502 0.984 . S
N490 H503 0.985 . S
N491 C493 1.356 . S
N491 H496 0.984 . S
N491 H497 0.985 . S
C492 C486 1.379 1_554 S
C492 C489 1.363 . S
C492 N490 1.356 . S
C493 C487 1.363 . S
C493 C488 1.379 1_556 S
C493 N491 1.356 . S
N494 C486 1.356 . S
N494 H500 0.984 . S
N494 H501 0.984 . S
N495 C488 1.356 . S
N495 H498 0.984 . S
N495 H499 0.985 . S
H496 N491 0.984 . S
H497 N491 0.985 . S
H498 N495 0.984 . S
H499 N495 0.985 . S
H500 N494 0.984 . S
H501 N494 0.984 . S
H502 N490 0.984 . S
H503 N490 0.985 . S
C504 C505 1.363 1_655 S
C504 C510 1.379 1_655 S
C504 N512 1.356 . S
C505 C504 1.363 1_455 S
C505 C511 1.363 . S
C506 C507 1.363 . S
C506 C511 1.379 . S
C506 N513 1.356 . S
C507 C506 1.363 . S
C507 C510 1.363 . S
N508 C510 1.356 1_655 S
N508 H520 0.984 . S
N508 H521 0.985 . S
N509 C511 1.356 . S
N509 H514 0.984 . S
N509 H515 0.985 . S
C510 C504 1.379 1_455 S
C510 C507 1.363 . S
C510 N508 1.356 1_455 S
C511 C505 1.363 . S
C511 C506 1.379 . S
C511 N509 1.356 . S
N512 C504 1.356 . S
N512 H518 0.984 . S
N512 H519 0.984 . S
N513 C506 1.356 . S
N513 H516 0.984 . S
N513 H517 0.985 . S
H514 N509 0.984 . S
H515 N509 0.985 . S
H516 N513 0.984 . S
H517 N513 0.985 . S
H518 N512 0.984 . S
H519 N512 0.984 . S
H520 N508 0.984 . S
H521 N508 0.985 . S
C199 C19 2.853 . S
C201 N187 2.807 . S
C217 C49 3.021 . S
C219 N160 3.024 1_655 S
C235 C99 2.964 . S
C237 N173 2.986 . S
C253 C9 3.304 . S
C255 N186 3.314 . S
C273 N161 3.069 . S
C271 C59 3.066 . S
C291 N174 3.122 . S
C289 C89 3.150 . S
C307 C55 0.597 . S
C309 N134 0.588 . S
C325 C85 0.745 . S
C327 N148 0.739 . S
C343 C15 0.895 . S
C345 N122 0.927 . S
C363 N135 0.927 . S
C361 C45 0.847 . S
C381 N147 0.951 . S
C379 C95 0.934 . S
C397 C5 0.766 . S
C399 N121 0.770 . S
C417 N151 1.061 . S
C415 C18 1.070 . S
C433 C58 1.202 . S
C435 N125 1.184 . S
C451 C98 1.020 . S
C453 N138 1.049 . S
C471 N177 1.869 . S
C469 C48 1.724 . S
C489 N190 1.768 . S
C487 C88 1.724 . S
C505 C8 1.725 . S
C507 N164 1.769 . S
