# Generated by pormake.
# Topology nom, (4,4)-cn, num edge types: 1
# Building blocks:
#     Node 0, Type 0, BuildingBlock: MUDLON_clean_linker_0, # of connection points: 4
#     Node 1, Type 0, BuildingBlock: MUDLON_clean_linker_0, # of connection points: 4
#     Node 2, Type 0, BuildingBlock: MUDLON_clean_linker_0, # of connection points: 4
#     Node 3, Type 0, BuildingBlock: MUDLON_clean_linker_0, # of connection points: 4
#     Node 4, Type 0, BuildingBlock: MUDLON_clean_linker_0, # of connection points: 4
#     Node 5, Type 0, BuildingBlock: MUDLON_clean_linker_0, # of connection points: 4
#     Node 6, Type 1, BuildingBlock: GALJAG_clean_sbu_0, # of connection points: 4
#     Node 7, Type 1, BuildingBlock: GALJAG_clean_sbu_0, # of connection points: 4
#     Node 8, Type 1, BuildingBlock: GALJAG_clean_sbu_0, # of connection points: 4
#     Node 9, Type 1, BuildingBlock: GALJAG_clean_sbu_0, # of connection points: 4
#     Node 10, Type 1, BuildingBlock: GALJAG_clean_sbu_0, # of connection points: 4
#     Node 11, Type 1, BuildingBlock: GALJAG_clean_sbu_0, # of connection points: 4
#     Edge 12, Type (0, 1), BuildingBlock: CIFDUS_clean_linker_0, # of connection points: 2
#     Edge 13, Type (0, 1), BuildingBlock: CIFDUS_clean_linker_0, # of connection points: 2
#     Edge 14, Type (0, 1), BuildingBlock: CIFDUS_clean_linker_0, # of connection points: 2
#     Edge 15, Type (0, 1), BuildingBlock: CIFDUS_clean_linker_0, # of connection points: 2
#     Edge 16, Type (0, 1), BuildingBlock: CIFDUS_clean_linker_0, # of connection points: 2
#     Edge 17, Type (0, 1), BuildingBlock: CIFDUS_clean_linker_0, # of connection points: 2
#     Edge 18, Type (0, 1), BuildingBlock: CIFDUS_clean_linker_0, # of connection points: 2
#     Edge 19, Type (0, 1), BuildingBlock: CIFDUS_clean_linker_0, # of connection points: 2
#     Edge 20, Type (0, 1), BuildingBlock: CIFDUS_clean_linker_0, # of connection points: 2
#     Edge 21, Type (0, 1), BuildingBlock: CIFDUS_clean_linker_0, # of connection points: 2
#     Edge 22, Type (0, 1), BuildingBlock: CIFDUS_clean_linker_0, # of connection points: 2
#     Edge 23, Type (0, 1), BuildingBlock: CIFDUS_clean_linker_0, # of connection points: 2
#     Edge 24, Type (0, 1), BuildingBlock: CIFDUS_clean_linker_0, # of connection points: 2
#     Edge 25, Type (0, 1), BuildingBlock: CIFDUS_clean_linker_0, # of connection points: 2
#     Edge 26, Type (0, 1), BuildingBlock: CIFDUS_clean_linker_0, # of connection points: 2
#     Edge 27, Type (0, 1), BuildingBlock: CIFDUS_clean_linker_0, # of connection points: 2
#     Edge 28, Type (0, 1), BuildingBlock: CIFDUS_clean_linker_0, # of connection points: 2
#     Edge 29, Type (0, 1), BuildingBlock: CIFDUS_clean_linker_0, # of connection points: 2
#     Edge 30, Type (0, 1), BuildingBlock: CIFDUS_clean_linker_0, # of connection points: 2
#     Edge 31, Type (0, 1), BuildingBlock: CIFDUS_clean_linker_0, # of connection points: 2
#     Edge 32, Type (0, 1), BuildingBlock: CIFDUS_clean_linker_0, # of connection points: 2
#     Edge 33, Type (0, 1), BuildingBlock: CIFDUS_clean_linker_0, # of connection points: 2
#     Edge 34, Type (0, 1), BuildingBlock: CIFDUS_clean_linker_0, # of connection points: 2
#     Edge 35, Type (0, 1), BuildingBlock: CIFDUS_clean_linker_0, # of connection points: 2
# Relax obj value: 0.015
# Max RMSD: 0.120
# Mean RMSD: 0.084
data_MOF--net-nom--node1-GALJAG_clean_sbu_0--node2-MUDLON_clean_linker_0--edge1-CIFDUS_clean_linker_0
_symmetry_space_group_name_H-M    P1
_symmetry_Int_Tables_number       1
_symmetry_cell_setting            triclinic
loop_
_symmetry_equiv_pos_as_xyz
'x, y, z'
_cell_length_a     54.389995
_cell_length_b     55.336092
_cell_length_c     56.785926
_cell_angle_alpha  90.410969
_cell_angle_beta   89.899908
_cell_angle_gamma 120.63754
loop_
_atom_site_label
_atom_site_type_symbol
_atom_site_fract_x
_atom_site_fract_y
_atom_site_fract_z
_atom_type_partial_charge
H0 H 0.14021 0.56773 0.30781 0.0
N1 N 0.11342 0.57539 0.34385 0.0
H2 H 0.18489 0.6032 0.28924 0.0
H3 H 0.13961 0.63237 0.3502 0.0
H4 H 0.18396 0.66769 0.33182 0.0
H5 H 0.09732 0.59964 0.37827 0.0
H6 H 0.11444 0.60896 0.41889 0.0
H7 H 0.1441 0.55724 0.36542 0.0
H8 H 0.16258 0.56768 0.40558 0.0
H9 H 0.0679 0.52404 0.34385 0.0
H10 H 0.09381 0.61019 0.32934 0.0
H11 H 0.01894 0.50946 0.33252 0.0
H12 H 0.04574 0.59575 0.31655 0.0
H13 H 0.89404 0.46406 0.27554 0.0
H14 H 0.87816 0.44391 0.23642 0.0
H15 H 0.90233 0.52608 0.2097 0.0
H16 H 0.91965 0.54628 0.24886 0.0
H17 H 0.87871 0.53604 0.29518 0.0
H18 H 0.83506 0.51315 0.31877 0.0
H19 H 0.85695 0.45233 0.3423 0.0
H20 H 0.90028 0.47513 0.31829 0.0
H21 H 0.9429 0.48834 0.28581 0.0
H22 H 0.99041 0.50265 0.29987 0.0
H23 H 0.99873 0.57942 0.32778 0.0
N24 N 0.91596 0.51924 0.28838 0.0
H25 H 0.95149 0.56559 0.31211 0.0
C26 C 0.13664 0.59724 0.33046 0.0
C27 C 0.14933 0.58962 0.31267 0.0
C28 C 0.17479 0.60988 0.30209 0.0
C29 C 0.18805 0.63814 0.30931 0.0
C30 C 0.17442 0.646 0.32617 0.0
C31 C 0.14897 0.6258 0.33661 0.0
C32 C 0.1193 0.57748 0.36881 0.0
C33 C 0.11086 0.59187 0.3843 0.0
C34 C 0.12102 0.59753 0.40749 0.0
C35 C 0.14018 0.58936 0.41557 0.0
C36 C 0.14756 0.57396 0.40025 0.0
C37 C 0.13711 0.56802 0.37721 0.0
C38 C 0.08477 0.56803 0.33716 0.0
C39 C 0.06307 0.53976 0.33801 0.0
C40 C 0.03513 0.53147 0.33132 0.0
C41 C 0.02823 0.55133 0.3233 0.0
C42 C 0.04998 0.57981 0.32285 0.0
C43 C 0.07783 0.58813 0.32994 0.0
C44 C 0.90838 0.50689 0.2651 0.0
C45 C 0.8965 0.47788 0.26121 0.0
C46 C 0.88707 0.46628 0.23878 0.0
C47 C 0.88872 0.48326 0.2198 0.0
C48 C 0.90109 0.51235 0.22371 0.0
C49 C 0.91089 0.52397 0.24611 0.0
C50 C 0.89266 0.50733 0.30494 0.0
C51 C 0.87427 0.51807 0.30579 0.0
C52 C 0.84943 0.50502 0.31936 0.0
C53 C 0.84244 0.48083 0.33237 0.0
C54 C 0.86153 0.47072 0.33225 0.0
C55 C 0.88641 0.48382 0.31864 0.0
C56 C 0.94365 0.52622 0.29746 0.0
C57 C 0.95483 0.50836 0.29471 0.0
C58 C 0.98214 0.51649 0.30312 0.0
C59 C 0.99873 0.54234 0.31495 0.0
C60 C 0.98703 0.55969 0.3183 0.0
C61 C 0.95991 0.55174 0.30953 0.0
H62 H 0.43432 0.8834 0.47334 0.0
N63 N 0.41834 0.92108 0.46003 0.0
H64 H 0.40713 0.8427 0.49811 0.0
H65 H 0.37382 0.91019 0.48687 0.0
H66 H 0.34747 0.87056 0.51343 0.0
H67 H 0.38141 0.90063 0.42458 0.0
H68 H 0.38637 0.88113 0.38726 0.0
H69 H 0.46613 0.92085 0.44492 0.0
H70 H 0.47142 0.90162 0.40758 0.0
H71 H 0.46541 0.93636 0.48766 0.0
H72 H 0.41956 0.96819 0.44956 0.0
H73 H 0.50085 0.98418 0.50013 0.0
H74 H 0.45526 0.0161 0.46118 0.0
H75 H 0.61711 0.14817 0.52445 0.0
H76 H 0.63009 0.16686 0.56451 0.0
H77 H 0.54058 0.12394 0.58319 0.0
H78 H 0.52791 0.10668 0.54299 0.0
H79 H 0.53303 0.14324 0.51142 0.0
H80 H 0.53705 0.18216 0.48828 0.0
H81 H 0.60266 0.18158 0.44581 0.0
H82 H 0.59811 0.14211 0.46882 0.0
H83 H 0.57441 0.07657 0.49598 0.0
H84 H 0.53912 0.02795 0.48536 0.0
H85 H 0.4716 0.04665 0.49448 0.0
N86 N 0.56517 0.11821 0.50609 0.0
H87 H 0.50685 0.09503 0.50419 0.0
C88 C 0.40561 0.89951 0.47771 0.0
C89 C 0.41543 0.88083 0.48199 0.0
C90 C 0.39992 0.85759 0.49653 0.0
C91 C 0.37465 0.85285 0.50763 0.0
C92 C 0.36623 0.87288 0.50466 0.0
C93 C 0.38143 0.89577 0.48971 0.0
C94 C 0.42328 0.91217 0.43748 0.0
C95 C 0.40123 0.90123 0.42078 0.0
C96 C 0.40418 0.89022 0.39947 0.0
C97 C 0.42932 0.88984 0.39446 0.0
C98 C 0.45172 0.90141 0.41102 0.0
C99 C 0.44879 0.91256 0.43231 0.0
C100 C 0.43968 0.9488 0.46786 0.0
C101 C 0.46299 0.95366 0.48198 0.0
C102 C 0.48336 0.98106 0.48894 0.0
C103 C 0.48087 0.00407 0.48179 0.0
C104 C 0.4576 0.99895 0.46746 0.0
C105 C 0.43726 0.97163 0.46065 0.0
C106 C 0.57166 0.12589 0.53061 0.0
C107 C 0.60037 0.14257 0.53733 0.0
C108 C 0.60772 0.15311 0.56029 0.0
C109 C 0.58641 0.14703 0.57718 0.0
C110 C 0.55759 0.12951 0.57059 0.0
C111 C 0.55027 0.11928 0.54753 0.0
C112 C 0.56517 0.13956 0.49166 0.0
C113 C 0.54776 0.15094 0.49679 0.0
C114 C 0.5501 0.17325 0.48357 0.0
C115 C 0.57017 0.18488 0.46527 0.0
C116 C 0.5871 0.17309 0.45989 0.0
C117 C 0.58448 0.15055 0.47291 0.0
C118 C 0.54348 0.08955 0.50081 0.0
C119 C 0.55196 0.07005 0.4957 0.0
C120 C 0.53173 0.04225 0.48979 0.0
C121 C 0.50246 0.03333 0.48897 0.0
C122 C 0.49397 0.05285 0.49451 0.0
C123 C 0.51421 0.08065 0.50025 0.0
H124 H 0.46683 0.59527 0.63399 0.0
N125 N 0.45995 0.56041 0.66877 0.0
H126 H 0.43047 0.60385 0.61718 0.0
H127 H 0.4019 0.52789 0.67544 0.0
H128 H 0.36574 0.53585 0.65849 0.0
H129 H 0.42954 0.5276 0.70602 0.0
H130 H 0.42666 0.54457 0.74507 0.0
H131 H 0.49485 0.61111 0.68654 0.0
H132 H 0.49434 0.62801 0.72624 0.0
H133 H 0.51167 0.56702 0.66698 0.0
H134 H 0.42256 0.50414 0.65908 0.0
H135 H 0.52471 0.53166 0.65861 0.0
H136 H 0.43531 0.46929 0.64926 0.0
H137 H 0.56345 0.43964 0.61081 0.0
H138 H 0.57936 0.4352 0.57192 0.0
H139 H 0.49135 0.3857 0.54904 0.0
H140 H 0.47563 0.38882 0.58876 0.0
H141 H 0.48877 0.36007 0.63903 0.0
H142 H 0.5125 0.34233 0.66416 0.0
H143 H 0.58039 0.42744 0.67801 0.0
H144 H 0.55631 0.44499 0.65287 0.0
H145 H 0.54053 0.46948 0.61823 0.0
H146 H 0.52832 0.5048 0.62869 0.0
H147 H 0.45208 0.4412 0.66367 0.0
N148 N 0.508 0.41278 0.6266 0.0
H149 H 0.46364 0.4057 0.65162 0.0
C150 C 0.43733 0.56101 0.65595 0.0
C151 C 0.44467 0.5818 0.63892 0.0
C152 C 0.42386 0.58664 0.62933 0.0
C153 C 0.39527 0.57074 0.63673 0.0
C154 C 0.38767 0.54878 0.65273 0.0
C155 C 0.40844 0.54405 0.66232 0.0
C156 C 0.46183 0.56838 0.6932 0.0
C157 C 0.44363 0.54955 0.71033 0.0
C158 C 0.44234 0.5593 0.73285 0.0
C159 C 0.45984 0.58793 0.73886 0.0
C160 C 0.47976 0.60608 0.72214 0.0
C161 C 0.48044 0.59644 0.6995 0.0
C162 C 0.46626 0.53859 0.66346 0.0
C163 C 0.49494 0.54564 0.6632 0.0
C164 C 0.50233 0.52539 0.65821 0.0
C165 C 0.48113 0.49748 0.65303 0.0
C166 C 0.4523 0.49039 0.65348 0.0
C167 C 0.44491 0.51059 0.65889 0.0
C168 C 0.51818 0.41398 0.60288 0.0
C169 C 0.54751 0.42782 0.59751 0.0
C170 C 0.55664 0.42554 0.57502 0.0
C171 C 0.53669 0.40979 0.55726 0.0
C172 C 0.50737 0.3974 0.56238 0.0
C173 C 0.49828 0.39936 0.58499 0.0
C174 C 0.52075 0.40369 0.64403 0.0
C175 C 0.50846 0.37486 0.64791 0.0
C176 C 0.52202 0.36482 0.6623 0.0
C177 C 0.54837 0.38351 0.67301 0.0
C178 C 0.56022 0.41255 0.66982 0.0
C179 C 0.54644 0.4226 0.65557 0.0
C180 C 0.50262 0.43473 0.63377 0.0
C181 C 0.52109 0.46306 0.62798 0.0
C182 C 0.51418 0.48339 0.63426 0.0
C183 C 0.48901 0.47598 0.64693 0.0
C184 C 0.47121 0.44772 0.6534 0.0
C185 C 0.47789 0.42738 0.64675 0.0
H186 H 0.14254 0.5683 0.8108 0.0
N187 N 0.11021 0.51408 0.79465 0.0
H188 H 0.18427 0.58667 0.83638 0.0
H189 H 0.12936 0.48496 0.81707 0.0
H190 H 0.17178 0.5033 0.84223 0.0
H191 H 0.12642 0.49324 0.75982 0.0
H192 H 0.14294 0.51296 0.72057 0.0
H193 H 0.11287 0.56143 0.7774 0.0
H194 H 0.12961 0.58152 0.73818 0.0
H195 H 0.09357 0.54505 0.82125 0.0
H196 H 0.06268 0.46675 0.78388 0.0
H197 H 0.04488 0.53111 0.83238 0.0
H198 H 0.01362 0.45317 0.79373 0.0
H199 H 0.87249 0.47179 0.85596 0.0
H200 H 0.85245 0.46115 0.89553 0.0
H201 H 0.9087 0.43016 0.91335 0.0
H202 H 0.92705 0.43901 0.87357 0.0
H203 H 0.88024 0.40207 0.8428 0.0
H204 H 0.83851 0.36759 0.82039 0.0
H205 H 0.84645 0.43337 0.77488 0.0
H206 H 0.88826 0.46792 0.79755 0.0
H207 H 0.95229 0.51043 0.8281 0.0
H208 H 1.00151 0.52451 0.81793 0.0
H209 H 0.98027 0.43809 0.82412 0.0
N210 N 0.90908 0.45909 0.83684 0.0
H211 H 0.93104 0.42425 0.83296 0.0
C212 C 0.13272 0.52511 0.81204 0.0
C213 C 0.14832 0.55382 0.81795 0.0
C214 C 0.17243 0.56438 0.83246 0.0
C215 C 0.18161 0.54653 0.8412 0.0
C216 C 0.16521 0.51762 0.83605 0.0
C217 C 0.14102 0.50709 0.82161 0.0
C218 C 0.11859 0.52587 0.77147 0.0
C219 C 0.12689 0.5124 0.75508 0.0
C220 C 0.13617 0.52363 0.73269 0.0
C221 C 0.13752 0.54878 0.72629 0.0
C222 C 0.129 0.56224 0.7427 0.0
C223 C 0.11943 0.55079 0.76509 0.0
C224 C 0.08184 0.50665 0.80201 0.0
C225 C 0.07636 0.52482 0.81544 0.0
C226 C 0.0483 0.5169 0.82158 0.0
C227 C 0.0251 0.4909 0.81406 0.0
C228 C 0.03081 0.47303 0.80036 0.0
C229 C 0.05884 0.4808 0.79455 0.0
C230 C 0.90133 0.4564 0.86151 0.0
C231 C 0.88073 0.46305 0.86855 0.0
C232 C 0.86939 0.45703 0.89129 0.0
C233 C 0.87875 0.44457 0.90779 0.0
C234 C 0.90041 0.43913 0.90105 0.0
C235 C 0.91131 0.44461 0.87815 0.0
C236 C 0.88721 0.43771 0.82194 0.0
C237 C 0.87337 0.40905 0.82776 0.0
C238 C 0.84944 0.38937 0.81501 0.0
C239 C 0.83909 0.39786 0.79604 0.0
C240 C 0.85404 0.42621 0.78934 0.0
C241 C 0.87783 0.44595 0.80226 0.0
C242 C 0.93799 0.46642 0.83131 0.0
C243 C 0.95837 0.49461 0.82717 0.0
C244 C 0.98656 0.50261 0.82157 0.0
C245 C 0.99508 0.48249 0.82022 0.0
C246 C 0.97452 0.45417 0.82454 0.0
C247 C 0.94627 0.44618 0.82979 0.0
H248 H 0.55327 0.15357 0.99395 0.0
N249 N 0.55607 0.11351 0.97062 0.0
H250 H 0.59212 0.1942 0.01415 0.0
H251 H 0.60919 0.12157 0.97931 0.0
H252 H 0.64841 0.16217 0.99969 0.0
H253 H 0.59797 0.12534 0.93831 0.0
H254 H 0.60063 0.14304 0.89859 0.0
H255 H 0.51541 0.11698 0.94788 0.0
H256 H 0.51723 0.1336 0.90772 0.0
H257 H 0.51187 0.08408 0.99856 0.0
H258 H 0.5741 0.07779 0.95614 0.0
H259 H 0.48802 0.03387 0.00695 0.0
H260 H 0.54992 0.0272 0.96384 0.0
H261 H 0.39938 0.87247 0.01945 0.0
H262 H 0.38656 0.85492 0.05964 0.0
H263 H 0.47417 0.91002 0.08144 0.0
H264 H 0.48689 0.92652 0.04111 0.0
H265 H 0.48868 0.89016 0.01345 0.0
H266 H 0.48791 0.84897 0.99659 0.0
H267 H 0.42417 0.83951 0.94623 0.0
H268 H 0.4245 0.88039 0.9636 0.0
H269 H 0.43153 0.94113 0.99199 0.0
H270 H 0.45893 0.99154 0.98447 0.0
H271 H 0.53745 0.991 0.99421 0.0
N272 N 0.45109 0.90763 0.00276 0.0
H273 H 0.50966 0.94024 0.00116 0.0
C274 C 0.57837 0.13471 0.98514 0.0
C275 C 0.57386 0.15509 0.9956 0.0
C276 C 0.59608 0.17822 0.0072 0.0
C277 C 0.62343 0.18148 0.00852 0.0
C278 C 0.62767 0.1604 0.99877 0.0
C279 C 0.60527 0.13713 0.98721 0.0
C280 C 0.55657 0.12023 0.94613 0.0
C281 C 0.58015 0.12681 0.93169 0.0
C282 C 0.58153 0.13675 0.90886 0.0
C283 C 0.55927 0.14006 0.9 0.0
C284 C 0.53502 0.13188 0.91412 0.0
C285 C 0.53379 0.12218 0.93697 0.0
C286 C 0.54448 0.08452 0.97666 0.0
C287 C 0.52043 0.07178 0.99119 0.0
C288 C 0.50673 0.04307 0.99576 0.0
C289 C 0.51676 0.02639 0.98572 0.0
C290 C 0.54168 0.03944 0.97187 0.0
C291 C 0.55547 0.06833 0.96737 0.0
C292 C 0.44393 0.90084 0.02723 0.0
C293 C 0.41565 0.88103 0.03304 0.0
C294 C 0.40839 0.87113 0.05604 0.0
C295 C 0.42936 0.88097 0.07381 0.0
C296 C 0.45757 0.90166 0.06813 0.0
C297 C 0.46483 0.91139 0.04506 0.0
C298 C 0.45626 0.88809 0.98993 0.0
C299 C 0.47501 0.87967 0.99846 0.0
C300 C 0.47451 0.85609 0.98887 0.0
C301 C 0.45576 0.84094 0.97029 0.0
C302 C 0.43891 0.85088 0.96048 0.0
C303 C 0.43908 0.87418 0.97033 0.0
C304 C 0.46844 0.93698 0.99715 0.0
C305 C 0.45465 0.95191 0.99232 0.0
C306 C 0.47038 0.98074 0.98825 0.0
C307 C 0.50042 0.99541 0.98906 0.0
C308 C 0.51436 0.98031 0.99337 0.0
C309 C 0.4985 0.9513 0.99742 0.0
H310 H 0.55551 0.41987 0.15029 0.0
N311 N 0.56167 0.4661 0.17037 0.0
H312 H 0.59103 0.41521 0.12737 0.0
H313 H 0.61168 0.5098 0.15217 0.0
H314 H 0.64676 0.50533 0.12908 0.0
H315 H 0.6125 0.49466 0.19443 0.0
H316 H 0.6234 0.48094 0.23196 0.0
H317 H 0.52467 0.42791 0.20016 0.0
H318 H 0.53543 0.41454 0.23828 0.0
H319 H 0.51332 0.45682 0.15091 0.0
H320 H 0.59108 0.52202 0.18269 0.0
H321 H 0.49823 0.4907 0.14332 0.0
H322 H 0.57771 0.55654 0.17334 0.0
H323 H 0.45942 0.58823 0.11186 0.0
H324 H 0.44506 0.59274 0.07246 0.0
H325 H 0.53394 0.63984 0.05168 0.0
H326 H 0.54804 0.63712 0.09197 0.0
H327 H 0.53402 0.66721 0.1403 0.0
H328 H 0.51052 0.68655 0.16416 0.0
H329 H 0.44169 0.60239 0.1789 0.0
H330 H 0.46535 0.5833 0.15474 0.0
H331 H 0.49444 0.56177 0.10766 0.0
H332 H 0.50542 0.52643 0.11915 0.0
H333 H 0.55018 0.5759 0.18066 0.0
N334 N 0.51424 0.61375 0.12905 0.0
H335 H 0.54127 0.6126 0.16783 0.0
C336 C 0.58066 0.46502 0.15309 0.0
C337 C 0.57509 0.43864 0.14517 0.0
C338 C 0.5954 0.43604 0.13205 0.0
C339 C 0.62186 0.4599 0.1266 0.0
C340 C 0.62675 0.48651 0.1333 0.0
C341 C 0.60644 0.48908 0.14642 0.0
C342 C 0.56769 0.46201 0.19428 0.0
C343 C 0.59539 0.47742 0.20392 0.0
C344 C 0.60166 0.46952 0.22537 0.0
C345 C 0.58031 0.44651 0.23782 0.0
C346 C 0.55224 0.43238 0.22901 0.0
C347 C 0.54607 0.43999 0.20733 0.0
C348 C 0.55346 0.48685 0.16693 0.0
C349 C 0.52726 0.47857 0.15601 0.0
C350 C 0.51885 0.49812 0.15148 0.0
C351 C 0.53683 0.52671 0.15734 0.0
C352 C 0.56295 0.53481 0.16877 0.0
C353 C 0.57095 0.51505 0.17384 0.0
C354 C 0.50496 0.6131 0.10507 0.0
C355 C 0.47585 0.59975 0.09892 0.0
C356 C 0.46764 0.60199 0.07611 0.0
C357 C 0.48828 0.61698 0.0587 0.0
C358 C 0.51736 0.62885 0.06466 0.0
C359 C 0.52554 0.6271 0.08763 0.0
C360 C 0.50147 0.62396 0.1457 0.0
C361 C 0.51414 0.653 0.14906 0.0
C362 C 0.50071 0.66395 0.16278 0.0
C363 C 0.47418 0.646 0.1734 0.0
C364 C 0.46197 0.61677 0.17075 0.0
C365 C 0.47551 0.60582 0.15707 0.0
C366 C 0.51708 0.59035 0.13685 0.0
C367 C 0.50659 0.56529 0.12366 0.0
C368 C 0.5127 0.54465 0.13046 0.0
C369 C 0.52889 0.54806 0.15088 0.0
C370 C 0.5383 0.5726 0.16451 0.0
C371 C 0.53284 0.59354 0.15738 0.0
In372 In 0.63135 0.38796 0.40009 0.0
O373 O 0.67523 0.42871 0.40037 0.0
O374 O 0.67146 0.39251 0.38362 0.0
C375 C 0.61298 0.40137 0.43947 0.0
C376 C 0.60704 0.39585 0.36132 0.0
C377 C 0.62124 0.33697 0.41363 0.0
O378 O 0.63773 0.4172 0.43123 0.0
O379 O 0.5978 0.37907 0.42784 0.0
O380 O 0.60413 0.3397 0.40042 0.0
O381 O 0.64309 0.35973 0.41977 0.0
C382 C 0.68746 0.41801 0.38909 0.0
O383 O 0.62037 0.38278 0.36063 0.0
O384 O 0.60516 0.40416 0.38155 0.0
In385 In 0.2614 0.6456 0.57492 0.0
O386 O 0.2835 0.63064 0.59974 0.0
O387 O 0.29161 0.63032 0.56312 0.0
C388 C 0.2281 0.62393 0.53604 0.0
C389 C 0.22698 0.63084 0.61318 0.0
C390 C 0.29611 0.70125 0.5667 0.0
O391 O 0.2386 0.61133 0.54667 0.0
O392 O 0.23443 0.6473 0.54497 0.0
O393 O 0.2695 0.69005 0.56941 0.0
O394 O 0.30533 0.68458 0.56862 0.0
C395 C 0.29626 0.62529 0.5838 0.0
O396 O 0.24936 0.6546 0.61134 0.0
O397 O 0.22164 0.61497 0.59554 0.0
In398 In 0.62399 0.25605 0.74162 0.0
O399 O 0.67278 0.28358 0.73683 0.0
O400 O 0.65539 0.28044 0.77093 0.0
C401 C 0.60944 0.22593 0.70099 0.0
C402 C 0.6026 0.21676 0.77568 0.0
C403 C 0.60363 0.29083 0.73377 0.0
O404 O 0.63387 0.23579 0.7102 0.0
O405 O 0.59266 0.23098 0.71239 0.0
O406 O 0.59036 0.26869 0.74572 0.0
O407 O 0.62759 0.29585 0.72615 0.0
C408 C 0.67747 0.29051 0.75833 0.0
O409 O 0.5972 0.23634 0.77435 0.0
O410 O 0.61832 0.21651 0.75941 0.0
In411 In 0.39775 0.63988 0.90029 0.0
O412 O 0.34875 0.61089 0.90296 0.0
O413 O 0.36538 0.6424 0.87684 0.0
C414 C 0.41595 0.62481 0.9386 0.0
C415 C 0.41801 0.62247 0.86445 0.0
C416 C 0.41624 0.69365 0.91269 0.0
O417 O 0.38995 0.61225 0.93251 0.0
O418 O 0.43262 0.64455 0.9252 0.0
O419 O 0.42361 0.68714 0.8937 0.0
O420 O 0.39949 0.6731 0.92536 0.0
C421 C 0.34352 0.62234 0.88609 0.0
O422 O 0.42528 0.64783 0.86759 0.0
O423 O 0.40093 0.60588 0.87963 0.0
In424 In 0.7601 0.39009 0.06797 0.0
O425 O 0.77012 0.38094 0.10492 0.0
O426 O 0.80069 0.41906 0.08906 0.0
C427 C 0.72661 0.33368 0.06237 0.0
C428 C 0.72449 0.41056 0.07255 0.0
C429 C 0.79214 0.41136 0.02879 0.0
O430 O 0.74873 0.34831 0.05024 0.0
O431 O 0.72175 0.34737 0.07765 0.0
O432 O 0.77574 0.41956 0.03633 0.0
O433 O 0.79248 0.3926 0.04106 0.0
C434 C 0.79363 0.40363 0.10694 0.0
O435 O 0.72023 0.39171 0.05773 0.0
O436 O 0.74708 0.41961 0.08448 0.0
In437 In 0.39415 0.77316 0.23664 0.0
O438 O 0.42985 0.7632 0.24161 0.0
O439 O 0.39297 0.73393 0.22242 0.0
C440 C 0.40965 0.81191 0.27139 0.0
C441 C 0.40934 0.80387 0.1968 0.0
C442 C 0.33938 0.73654 0.24861 0.0
O443 O 0.41555 0.7926 0.27198 0.0
O444 O 0.39658 0.81197 0.25309 0.0
O445 O 0.35955 0.74735 0.26335 0.0
O446 O 0.34678 0.74389 0.22757 0.0
C447 C 0.41732 0.74041 0.23014 0.0
O448 O 0.38421 0.79193 0.20479 0.0
O449 O 0.42668 0.80044 0.20896 0.0
H450 H 0.20851 0.64754 0.26425 0.0
H451 H 0.23314 0.67486 0.33616 0.0
H452 H 0.28193 0.70764 0.32367 0.0
H453 H 0.3179 0.72781 0.29264 0.0
H454 H 0.29387 0.70198 0.22043 0.0
H455 H 0.24461 0.66927 0.23267 0.0
C456 C 0.22461 0.66072 0.27712 0.0
C457 C 0.21721 0.65885 0.30107 0.0
C458 C 0.25272 0.67967 0.26979 0.0
C459 C 0.2382 0.67618 0.31758 0.0
C460 C 0.26615 0.6948 0.31048 0.0
C461 C 0.30189 0.71499 0.27957 0.0
C462 C 0.3095 0.71711 0.25571 0.0
C463 C 0.27368 0.6966 0.28669 0.0
C464 C 0.28849 0.70066 0.23893 0.0
C465 C 0.26035 0.68195 0.24592 0.0
H466 H 0.62059 0.23254 0.45775 0.0
H467 H 0.53006 0.19464 0.44579 0.0
H468 H 0.53788 0.23791 0.4273 0.0
H469 H 0.57059 0.28733 0.41592 0.0
H470 H 0.66076 0.32546 0.43029 0.0
H471 H 0.65306 0.28129 0.44618 0.0
C472 C 0.60263 0.23366 0.4508 0.0
C473 C 0.57483 0.21044 0.45297 0.0
C474 C 0.60726 0.25869 0.44067 0.0
C475 C 0.55166 0.21232 0.44435 0.0
C476 C 0.55614 0.23701 0.43376 0.0
C477 C 0.58852 0.28581 0.42234 0.0
C478 C 0.6162 0.30956 0.42191 0.0
C479 C 0.58384 0.26044 0.43202 0.0
C480 C 0.63924 0.30747 0.43051 0.0
C481 C 0.63487 0.28222 0.4396 0.0
H482 H 0.38629 0.58563 0.59304 0.0
H483 H 0.35681 0.57428 0.66497 0.0
H484 H 0.32323 0.58931 0.65473 0.0
H485 H 0.30331 0.60721 0.6259 0.0
H486 H 0.33214 0.61891 0.55385 0.0
H487 H 0.365 0.60241 0.56359 0.0
C488 C 0.3725 0.58646 0.60643 0.0
C489 C 0.374 0.57868 0.62971 0.0
C490 C 0.35323 0.59533 0.60045 0.0
C491 C 0.3558 0.57967 0.64684 0.0
C492 C 0.33672 0.58848 0.64105 0.0
C493 C 0.31674 0.60611 0.61229 0.0
C494 C 0.31543 0.61442 0.58923 0.0
C495 C 0.3354 0.59655 0.61799 0.0
C496 C 0.3328 0.61266 0.57176 0.0
C497 C 0.3516 0.60326 0.57733 0.0
H498 H 0.78963 0.36254 0.81799 0.0
H499 H 0.82627 0.38887 0.74892 0.0
H500 H 0.77957 0.35728 0.73084 0.0
H501 H 0.72782 0.32286 0.73494 0.0
H502 H 0.69176 0.29865 0.80455 0.0
H503 H 0.7387 0.32853 0.82211 0.0
C504 C 0.78748 0.36106 0.79896 0.0
C505 C 0.81136 0.37777 0.78479 0.0
C506 C 0.7606 0.34332 0.7888 0.0
C507 C 0.80814 0.37617 0.76018 0.0
C508 C 0.78147 0.35812 0.74986 0.0
C509 C 0.73034 0.3241 0.75393 0.0
C510 C 0.70634 0.30858 0.76841 0.0
C511 C 0.75747 0.34172 0.76402 0.0
C512 C 0.70985 0.31047 0.793 0.0
C513 C 0.7367 0.32752 0.80309 0.0
H514 H 0.45565 0.82183 0.92587 0.0
H515 H 0.44464 0.79751 0.99884 0.0
H516 H 0.43158 0.74976 0.98752 0.0
H517 H 0.42093 0.71428 0.9568 0.0
H518 H 0.43428 0.73873 0.88386 0.0
H519 H 0.44872 0.787 0.89514 0.0
C520 C 0.45063 0.80607 0.93922 0.0
C521 C 0.45109 0.81311 0.96312 0.0
C522 C 0.44333 0.77867 0.93259 0.0
C523 C 0.44472 0.79263 0.98034 0.0
C524 C 0.43704 0.76528 0.97388 0.0
C525 C 0.42707 0.73023 0.94341 0.0
C526 C 0.42625 0.723 0.91956 0.0
C527 C 0.43588 0.75797 0.95006 0.0
C528 C 0.43469 0.74387 0.90236 0.0
C529 C 0.4429 0.77143 0.90879 0.0
H530 H 0.61836 0.42525 0.09054 0.0
H531 H 0.67785 0.48726 0.13976 0.0
H532 H 0.71549 0.47916 0.1259 0.0
H533 H 0.73055 0.45182 0.10222 0.0
H534 H 0.67121 0.38904 0.0535 0.0
H535 H 0.63456 0.40007 0.06471 0.0
C536 C 0.63961 0.43707 0.09813 0.0
C537 C 0.64521 0.45679 0.11619 0.0
C538 C 0.66116 0.43205 0.09028 0.0
C539 C 0.67298 0.47221 0.12564 0.0
C540 C 0.6945 0.46743 0.11786 0.0
C541 C 0.7097 0.44077 0.09386 0.0
C542 C 0.70354 0.41951 0.07719 0.0
C543 C 0.6887 0.44705 0.10052 0.0
C544 C 0.67647 0.40547 0.06642 0.0
C545 C 0.65547 0.4117 0.07289 0.0
H546 H 0.39102 0.82214 0.53429 0.0
H547 H 0.31609 0.82281 0.51001 0.0
H548 H 0.28552 0.77768 0.52844 0.0
H549 H 0.27967 0.73597 0.54851 0.0
H550 H 0.35423 0.73282 0.56917 0.0
H551 H 0.3852 0.7806 0.55473 0.0
C552 C 0.36803 0.81244 0.53285 0.0
C553 C 0.35612 0.8262 0.52066 0.0
C554 C 0.35038 0.78577 0.5427 0.0
C555 C 0.32614 0.81329 0.51958 0.0
C556 C 0.30849 0.78718 0.52992 0.0
C557 C 0.3027 0.74589 0.55011 0.0
C558 C 0.31467 0.73094 0.5599 0.0
C559 C 0.32035 0.77302 0.54115 0.0
C560 C 0.34453 0.74392 0.56165 0.0
C561 C 0.36223 0.77121 0.55337 0.0
H562 H 0.52743 0.34163 0.70532 0.0
H563 H 0.60484 0.40019 0.66917 0.0
H564 H 0.62963 0.37806 0.68632 0.0
H565 H 0.62803 0.33937 0.70875 0.0
H566 H 0.55032 0.28047 0.74445 0.0
H567 H 0.52698 0.30537 0.73034 0.0
C568 C 0.54979 0.34964 0.70135 0.0
C569 C 0.56421 0.37238 0.68588 0.0
C570 C 0.5638 0.33661 0.71104 0.0
C571 C 0.5933 0.38284 0.68116 0.0
C572 C 0.60743 0.37005 0.69081 0.0
C573 C 0.6061 0.33219 0.71365 0.0
C574 C 0.59086 0.30796 0.72744 0.0
C575 C 0.59272 0.34653 0.70536 0.0
C576 C 0.5625 0.299 0.73378 0.0
C577 C 0.54909 0.31319 0.72567 0.0
H578 H 0.23144 0.59429 0.83125 0.0
H579 H 0.1943 0.52486 0.87964 0.0
H580 H 0.2409 0.54254 0.89845 0.0
H581 H 0.29283 0.57698 0.90008 0.0
H582 H 0.32903 0.64619 0.85139 0.0
H583 H 0.2821 0.62961 0.83414 0.0
C584 C 0.23333 0.58327 0.84621 0.0
C585 C 0.20932 0.55828 0.854 0.0
C586 C 0.26012 0.5935 0.85689 0.0
C587 C 0.21245 0.54399 0.8731 0.0
C588 C 0.23909 0.55415 0.88393 0.0
C589 C 0.29035 0.58851 0.88582 0.0
C590 C 0.31444 0.61272 0.87698 0.0
C591 C 0.26318 0.57873 0.87579 0.0
C592 C 0.3109 0.62743 0.85848 0.0
C593 C 0.28405 0.61797 0.84857 0.0
H594 H 0.6238 0.21009 0.04794 0.0
H595 H 0.67754 0.21254 0.99091 0.0
H596 H 0.71536 0.25894 0.00387 0.0
H597 H 0.73135 0.30072 0.02906 0.0
H598 H 0.67683 0.29886 0.08518 0.0
H599 H 0.64115 0.25049 0.07485 0.0
C600 C 0.64384 0.22073 0.03841 0.0
C601 C 0.64769 0.2079 0.01837 0.0
C602 C 0.66529 0.24766 0.04566 0.0
C603 C 0.67403 0.22176 0.0065 0.0
C604 C 0.6956 0.24844 0.01377 0.0
C605 C 0.7118 0.28961 0.03919 0.0
C606 C 0.70665 0.30345 0.05773 0.0
C607 C 0.69121 0.26187 0.03299 0.0
C608 C 0.68127 0.28874 0.07076 0.0
C609 C 0.66082 0.26108 0.06484 0.0
H610 H 0.49546 0.69057 0.20387 0.0
H611 H 0.41747 0.62848 0.16977 0.0
H612 H 0.39243 0.65095 0.18594 0.0
H613 H 0.39361 0.69044 0.20695 0.0
H614 H 0.47174 0.75327 0.24034 0.0
H615 H 0.49578 0.72838 0.22722 0.0
C616 C 0.47295 0.6819 0.20006 0.0
C617 C 0.45843 0.65795 0.18552 0.0
C618 C 0.45875 0.69519 0.20914 0.0
C619 C 0.42914 0.64671 0.18108 0.0
C620 C 0.41483 0.65969 0.19017 0.0
C621 C 0.41582 0.69854 0.21156 0.0
C622 C 0.43093 0.72378 0.22443 0.0
C623 C 0.42955 0.68425 0.20382 0.0
C624 C 0.45965 0.73391 0.23039 0.0
C625 C 0.47343 0.71974 0.22284 0.0
H626 H 0.81488 0.50184 0.35818 0.0
H627 H 0.80637 0.42409 0.33308 0.0
H628 H 0.75844 0.39791 0.34956 0.0
H629 H 0.71784 0.39716 0.36884 0.0
H630 H 0.72525 0.47454 0.39346 0.0
H631 H 0.77462 0.50082 0.37927 0.0
C632 C 0.80253 0.47917 0.35635 0.0
C633 C 0.81428 0.465 0.34437 0.0
C634 C 0.77471 0.46419 0.36562 0.0
C635 C 0.79811 0.43555 0.34247 0.0
C636 C 0.77056 0.42054 0.35172 0.0
C637 C 0.73029 0.41978 0.37122 0.0
C638 C 0.71785 0.43392 0.38202 0.0
C639 C 0.75851 0.43467 0.36299 0.0
C640 C 0.73433 0.46318 0.38514 0.0
C641 C 0.76252 0.4782 0.377 0.0
H642 H 0.15463 0.56048 0.44616 0.0
H643 H 0.15797 0.63965 0.43791 0.0
H644 H 0.18395 0.65652 0.4749 0.0
H645 H 0.20816 0.65004 0.50852 0.0
H646 H 0.20764 0.57223 0.51575 0.0
H647 H 0.1787 0.55388 0.47998 0.0
C648 C 0.16114 0.58148 0.45234 0.0
C649 C 0.15419 0.59866 0.43911 0.0
C650 C 0.17689 0.59146 0.47337 0.0
C651 C 0.16243 0.62565 0.44778 0.0
C652 C 0.17762 0.6355 0.46887 0.0
C653 C 0.20163 0.62902 0.50231 0.0
C654 C 0.21009 0.61254 0.51472 0.0
C655 C 0.18528 0.61874 0.48164 0.0
C656 C 0.20149 0.58537 0.50645 0.0
C657 C 0.18491 0.57486 0.48603 0.0
H658 H 0.55827 0.16665 0.60352 0.0
H659 H 0.63225 0.15711 0.6048 0.0
H660 H 0.64623 0.18096 0.64299 0.0
H661 H 0.63769 0.20515 0.67599 0.0
H662 H 0.56223 0.21218 0.67504 0.0
H663 H 0.54835 0.18817 0.63703 0.0
C664 C 0.57717 0.16923 0.61227 0.0
C665 C 0.59414 0.16005 0.60114 0.0
C666 C 0.58487 0.18258 0.63437 0.0
C667 C 0.61894 0.16429 0.61269 0.0
C668 C 0.6269 0.17781 0.63464 0.0
C669 C 0.61819 0.20134 0.66745 0.0
C670 C 0.60108 0.21053 0.67829 0.0
C671 C 0.61012 0.18722 0.64559 0.0
C672 C 0.57578 0.20531 0.6671 0.0
C673 C 0.56782 0.19161 0.64533 0.0
H674 H 0.44464 0.56213 0.78206 0.0
H675 H 0.46534 0.63935 0.747 0.0
H676 H 0.45697 0.65753 0.7832 0.0
H677 H 0.44085 0.65078 0.82412 0.0
H678 H 0.41525 0.57214 0.85835 0.0
H679 H 0.42789 0.55512 0.82308 0.0
C680 C 0.44715 0.58286 0.78219 0.0
C681 C 0.45591 0.59928 0.76162 0.0
C682 C 0.44119 0.59294 0.80295 0.0
C683 C 0.45941 0.62632 0.76251 0.0
C684 C 0.45428 0.63673 0.78322 0.0
C685 C 0.43831 0.63002 0.82393 0.0
C686 C 0.42724 0.61277 0.84379 0.0
C687 C 0.44487 0.62013 0.80344 0.0
C688 C 0.42373 0.58579 0.84323 0.0
C689 C 0.43093 0.57606 0.82308 0.0
H690 H 0.85788 0.47083 0.93559 0.0
H691 H 0.86773 0.39812 0.9332 0.0
H692 H 0.84371 0.38272 0.97093 0.0
H693 H 0.8178 0.38843 0.00385 0.0
H694 H 0.8041 0.45863 0.00475 0.0
H695 H 0.83112 0.47606 0.96814 0.0
C696 C 0.85459 0.45147 0.94313 0.0
C697 C 0.86489 0.43586 0.93139 0.0
C698 C 0.83982 0.4421 0.96456 0.0
C699 C 0.86075 0.41106 0.94188 0.0
C700 C 0.84668 0.40199 0.96343 0.0
C701 C 0.82087 0.40763 0.99609 0.0
C702 C 0.80905 0.42226 0.00699 0.0
C703 C 0.83592 0.4172 0.97483 0.0
C704 C 0.81296 0.44696 0.99664 0.0
C705 C 0.82843 0.45695 0.97573 0.0
H706 H 0.46139 0.86784 0.1018 0.0
H707 H 0.38083 0.86541 0.09956 0.0
H708 H 0.36751 0.8414 0.13741 0.0
H709 H 0.37824 0.81992 0.1707 0.0
H710 H 0.45957 0.824 0.1733 0.0
H711 H 0.47327 0.84902 0.13595 0.0
C712 C 0.44114 0.86259 0.10975 0.0
C713 C 0.42214 0.86839 0.09773 0.0
C714 C 0.4337 0.84899 0.13159 0.0
C715 C 0.39573 0.86085 0.1082 0.0
C716 C 0.38812 0.84722 0.12991 0.0
C717 C 0.39899 0.82638 0.1631 0.0
C718 C 0.41779 0.81999 0.17467 0.0
C719 C 0.40682 0.84091 0.14165 0.0
C720 C 0.44469 0.82865 0.16473 0.0
C721 C 0.45254 0.84293 0.14336 0.0
H722 H 0.55588 0.43628 0.28129 0.0
H723 H 0.62154 0.433 0.24126 0.0
H724 H 0.63417 0.41496 0.27547 0.0
H725 H 0.62736 0.40118 0.31703 0.0
H726 H 0.5644 0.40786 0.35819 0.0
H727 H 0.54962 0.42318 0.32335 0.0
C728 C 0.57288 0.43152 0.28015 0.0
C729 C 0.58783 0.43599 0.25889 0.0
C730 C 0.58039 0.42165 0.30005 0.0
C731 C 0.60996 0.42997 0.25756 0.0
C732 C 0.61709 0.41953 0.27705 0.0
C733 C 0.61019 0.40568 0.31827 0.0
C734 C 0.59677 0.40315 0.34001 0.0
C735 C 0.60253 0.41539 0.29841 0.0
C736 C 0.57494 0.40957 0.34156 0.0
C737 C 0.56655 0.41839 0.32168 0.0
H738 H 0.4132 0.8944 0.35015 0.0
H739 H 0.44976 0.85406 0.38977 0.0
H740 H 0.44902 0.82792 0.35466 0.0
H741 H 0.43456 0.81385 0.31344 0.0
H742 H 0.39698 0.85351 0.27418 0.0
H743 H 0.40148 0.88248 0.30837 0.0
C744 C 0.42105 0.87992 0.35107 0.0
C745 C 0.43134 0.87606 0.37259 0.0
C746 C 0.42024 0.8647 0.3309 0.0
C747 C 0.44193 0.8576 0.3734 0.0
C748 C 0.44133 0.84249 0.35336 0.0
C749 C 0.42765 0.82905 0.31231 0.0
C750 C 0.41528 0.83138 0.29136 0.0
C751 C 0.43006 0.8455 0.33212 0.0
C752 C 0.40648 0.85122 0.29012 0.0
C753 C 0.40899 0.86777 0.30969 0.0
H754 H 0.5842 0.44623 0.5319 0.0
H755 H 0.51132 0.36177 0.53048 0.0
H756 H 0.52786 0.35244 0.49362 0.0
H757 H 0.56384 0.36728 0.46259 0.0
H758 H 0.63839 0.45043 0.46489 0.0
H759 H 0.62067 0.46098 0.50089 0.0
C760 C 0.57199 0.4257 0.52366 0.0
C761 C 0.5464 0.40484 0.53408 0.0
C762 C 0.58206 0.42011 0.5027 0.0
C763 C 0.53073 0.37852 0.52278 0.0
C764 C 0.54034 0.373 0.50176 0.0
C765 C 0.5762 0.38775 0.47092 0.0
C766 C 0.60239 0.40804 0.46111 0.0
C767 C 0.56606 0.39353 0.49168 0.0
C768 C 0.61819 0.43443 0.47215 0.0
C769 C 0.60805 0.44047 0.4927 0.0
H770 H 0.17628 0.60325 0.71595 0.0
H771 H 0.12372 0.52172 0.68382 0.0
H772 H 0.14524 0.54058 0.64554 0.0
H773 H 0.18131 0.57929 0.62181 0.0
H774 H 0.23498 0.66063 0.65391 0.0
H775 H 0.21039 0.64295 0.69148 0.0
C776 C 0.16921 0.58976 0.70048 0.0
C777 C 0.14858 0.56108 0.70275 0.0
C778 C 0.18195 0.60068 0.67855 0.0
C779 C 0.13984 0.54377 0.68259 0.0
C780 C 0.15208 0.55455 0.66069 0.0
C781 C 0.1874 0.59325 0.63695 0.0
C782 C 0.21002 0.62118 0.6351 0.0
C783 C 0.17353 0.58282 0.65855 0.0
C784 C 0.21766 0.63901 0.65488 0.0
C785 C 0.20367 0.62889 0.67639 0.0
H786 H 0.58215 0.13375 0.85903 0.0
H787 H 0.54369 0.17842 0.88938 0.0
H788 H 0.55145 0.20412 0.8529 0.0
H789 H 0.5721 0.21647 0.81347 0.0
H790 H 0.6127 0.17382 0.78335 0.0
H791 H 0.60131 0.14493 0.81866 0.0
C792 C 0.57548 0.14911 0.85767 0.0
C793 C 0.56231 0.15404 0.877 0.0
C794 C 0.58053 0.16432 0.83671 0.0
C795 C 0.55344 0.17377 0.87474 0.0
C796 C 0.55809 0.18871 0.85392 0.0
C797 C 0.57822 0.20066 0.81451 0.0
C798 C 0.59331 0.19736 0.79588 0.0
C799 C 0.57198 0.18446 0.83494 0.0
C800 C 0.60108 0.17679 0.79749 0.0
C801 C 0.59464 0.16032 0.8177 0.0
H802 H 0.44026 0.58113 0.03309 0.0
H803 H 0.51645 0.66338 0.03058 0.0
H804 H 0.50179 0.67184 0.99263 0.0
H805 H 0.46632 0.65727 0.96102 0.0
H806 H 0.38799 0.57723 0.96504 0.0
H807 H 0.40423 0.56687 0.00177 0.0
C808 C 0.45361 0.60105 0.02445 0.0
C809 C 0.47959 0.62145 0.03491 0.0
C810 C 0.44455 0.60632 0.0029 0.0
C811 C 0.4967 0.64689 0.02294 0.0
C812 C 0.48818 0.65195 0.00126 0.0
C813 C 0.45288 0.63746 0.96986 0.0
C814 C 0.42605 0.61799 0.96032 0.0
C815 C 0.46206 0.63196 0.99119 0.0
C816 C 0.40874 0.59256 0.97207 0.0
C817 C 0.41802 0.58664 0.99305 0.0
H818 H 0.84025 0.43301 0.21077 0.0
H819 H 0.90897 0.50493 0.1759 0.0
H820 H 0.88629 0.48601 0.13782 0.0
H821 H 0.84567 0.4502 0.11458 0.0
H822 H 0.77801 0.37764 0.14948 0.0
H823 H 0.80209 0.39531 0.18732 0.0
C824 C 0.8507 0.44435 0.19487 0.0
C825 C 0.87625 0.47056 0.19637 0.0
C826 C 0.83773 0.4332 0.17297 0.0
C827 C 0.88903 0.48502 0.17543 0.0
C828 C 0.87617 0.47413 0.15359 0.0
C829 C 0.83637 0.43811 0.13044 0.0
C830 C 0.81 0.41274 0.12924 0.0
C831 C 0.8503 0.44844 0.15218 0.0
C832 C 0.79828 0.39724 0.14991 0.0
C833 C 0.81198 0.40739 0.17158 0.0
loop_
_geom_bond_atom_site_label_1
_geom_bond_atom_site_label_2
_geom_bond_distance
_geom_bond_site_symmetry_2
_ccdc_geom_bond_type
H0 C27 0.929 . S
N1 C26 1.433 . S
N1 C32 1.435 . S
N1 C38 1.423 . S
H2 C28 0.930 . S
H3 C31 0.931 . S
H4 C30 0.929 . S
H5 C33 0.930 . S
H6 C34 0.932 . S
H7 C37 0.929 . S
H8 C36 0.931 . S
H9 C39 0.929 . S
H10 C43 0.932 . S
H11 C40 0.931 . S
H12 C42 0.929 . S
H13 C45 0.929 . S
H14 C46 0.930 . S
H15 C48 0.929 . S
H16 C49 0.931 . S
H17 C51 0.930 . S
H18 C52 0.932 . S
H19 C54 0.931 . S
H20 C55 0.929 . S
H21 C57 0.929 . S
H22 C58 0.931 . S
H23 C60 0.929 . S
N24 C44 1.433 . S
N24 C50 1.435 . S
N24 C56 1.423 . S
H25 C61 0.932 . S
C26 N1 1.433 . S
C26 C27 1.363 . S
C26 C31 1.370 . S
C27 H0 0.929 . S
C27 C26 1.363 . S
C27 C28 1.385 . S
C28 H2 0.930 . S
C28 C27 1.385 . S
C28 C29 1.357 . S
C29 C28 1.357 . S
C29 C30 1.406 . S
C30 H4 0.929 . S
C30 C29 1.406 . S
C30 C31 1.391 . S
C31 H3 0.931 . S
C31 C26 1.370 . S
C31 C30 1.391 . S
C32 N1 1.435 . S
C32 C33 1.358 . S
C32 C37 1.371 . S
C33 H5 0.930 . S
C33 C32 1.358 . S
C33 C34 1.405 . S
C34 H6 0.932 . S
C34 C33 1.405 . S
C34 C35 1.383 . S
C35 C34 1.383 . S
C35 C36 1.393 . S
C36 H8 0.931 . S
C36 C35 1.393 . S
C36 C37 1.382 . S
C37 H7 0.929 . S
C37 C32 1.371 . S
C37 C36 1.382 . S
C38 N1 1.423 . S
C38 C39 1.362 . S
C38 C43 1.388 . S
C39 H9 0.929 . S
C39 C38 1.362 . S
C39 C40 1.376 . S
C40 H11 0.931 . S
C40 C39 1.376 . S
C40 C41 1.396 . S
C41 C40 1.396 . S
C41 C42 1.348 . S
C41 C59 1.472 1_455 S
C42 H12 0.929 . S
C42 C41 1.348 . S
C42 C43 1.443 . S
C43 H10 0.932 . S
C43 C38 1.388 . S
C43 C42 1.443 . S
C44 N24 1.433 . S
C44 C45 1.363 . S
C44 C49 1.370 . S
C45 H13 0.929 . S
C45 C44 1.363 . S
C45 C46 1.385 . S
C46 H14 0.930 . S
C46 C45 1.385 . S
C46 C47 1.357 . S
C47 C46 1.357 . S
C47 C48 1.406 . S
C48 H15 0.929 . S
C48 C47 1.406 . S
C48 C49 1.391 . S
C49 H16 0.931 . S
C49 C44 1.370 . S
C49 C48 1.391 . S
C50 N24 1.435 . S
C50 C51 1.358 . S
C50 C55 1.371 . S
C51 H17 0.930 . S
C51 C50 1.358 . S
C51 C52 1.405 . S
C52 H18 0.932 . S
C52 C51 1.405 . S
C52 C53 1.383 . S
C53 C52 1.383 . S
C53 C54 1.393 . S
C54 H19 0.931 . S
C54 C53 1.393 . S
C54 C55 1.382 . S
C55 H20 0.929 . S
C55 C50 1.371 . S
C55 C54 1.382 . S
C56 N24 1.423 . S
C56 C57 1.362 . S
C56 C61 1.388 . S
C57 H21 0.929 . S
C57 C56 1.362 . S
C57 C58 1.376 . S
C58 H22 0.931 . S
C58 C57 1.376 . S
C58 C59 1.396 . S
C59 C41 1.472 1_655 S
C59 C58 1.396 . S
C59 C60 1.348 . S
C60 H23 0.929 . S
C60 C59 1.348 . S
C60 C61 1.443 . S
C61 H25 0.932 . S
C61 C56 1.388 . S
C61 C60 1.443 . S
H62 C89 0.929 . S
N63 C88 1.433 . S
N63 C94 1.435 . S
N63 C100 1.423 . S
H64 C90 0.930 . S
H65 C93 0.931 . S
H66 C92 0.929 . S
H67 C95 0.930 . S
H68 C96 0.932 . S
H69 C99 0.929 . S
H70 C98 0.931 . S
H71 C101 0.929 . S
H72 C105 0.932 . S
H73 C102 0.931 . S
H74 C104 0.929 1_545 S
H75 C107 0.929 . S
H76 C108 0.930 . S
H77 C110 0.929 . S
H78 C111 0.931 . S
H79 C113 0.930 . S
H80 C114 0.932 . S
H81 C116 0.931 . S
H82 C117 0.929 . S
H83 C119 0.929 . S
H84 C120 0.931 . S
H85 C122 0.929 . S
N86 C106 1.433 . S
N86 C112 1.435 . S
N86 C118 1.423 . S
H87 C123 0.932 . S
C88 N63 1.433 . S
C88 C89 1.363 . S
C88 C93 1.370 . S
C89 H62 0.929 . S
C89 C88 1.363 . S
C89 C90 1.385 . S
C90 H64 0.930 . S
C90 C89 1.385 . S
C90 C91 1.357 . S
C91 C90 1.357 . S
C91 C92 1.406 . S
C92 H66 0.929 . S
C92 C91 1.406 . S
C92 C93 1.391 . S
C93 H65 0.931 . S
C93 C88 1.370 . S
C93 C92 1.391 . S
C94 N63 1.435 . S
C94 C95 1.358 . S
C94 C99 1.371 . S
C95 H67 0.930 . S
C95 C94 1.358 . S
C95 C96 1.405 . S
C96 H68 0.932 . S
C96 C95 1.405 . S
C96 C97 1.383 . S
C97 C96 1.383 . S
C97 C98 1.393 . S
C98 H70 0.931 . S
C98 C97 1.393 . S
C98 C99 1.382 . S
C99 H69 0.929 . S
C99 C94 1.371 . S
C99 C98 1.382 . S
C100 N63 1.423 . S
C100 C101 1.362 . S
C100 C105 1.388 . S
C101 H71 0.929 . S
C101 C100 1.362 . S
C101 C102 1.376 . S
C102 H73 0.931 . S
C102 C101 1.376 . S
C102 C103 1.396 1_565 S
C103 C102 1.396 1_545 S
C103 C104 1.348 1_545 S
C103 C121 1.472 . S
C104 H74 0.929 1_565 S
C104 C103 1.348 1_565 S
C104 C105 1.443 . S
C105 H72 0.932 . S
C105 C100 1.388 . S
C105 C104 1.443 . S
C106 N86 1.433 . S
C106 C107 1.363 . S
C106 C111 1.370 . S
C107 H75 0.929 . S
C107 C106 1.363 . S
C107 C108 1.385 . S
C108 H76 0.930 . S
C108 C107 1.385 . S
C108 C109 1.357 . S
C109 C108 1.357 . S
C109 C110 1.406 . S
C110 H77 0.929 . S
C110 C109 1.406 . S
C110 C111 1.391 . S
C111 H78 0.931 . S
C111 C106 1.370 . S
C111 C110 1.391 . S
C112 N86 1.435 . S
C112 C113 1.358 . S
C112 C117 1.371 . S
C113 H79 0.930 . S
C113 C112 1.358 . S
C113 C114 1.405 . S
C114 H80 0.932 . S
C114 C113 1.405 . S
C114 C115 1.383 . S
C115 C114 1.383 . S
C115 C116 1.393 . S
C116 H81 0.931 . S
C116 C115 1.393 . S
C116 C117 1.382 . S
C117 H82 0.929 . S
C117 C112 1.371 . S
C117 C116 1.382 . S
C118 N86 1.423 . S
C118 C119 1.362 . S
C118 C123 1.388 . S
C119 H83 0.929 . S
C119 C118 1.362 . S
C119 C120 1.376 . S
C120 H84 0.931 . S
C120 C119 1.376 . S
C120 C121 1.396 . S
C121 C103 1.472 . S
C121 C120 1.396 . S
C121 C122 1.348 . S
C122 H85 0.929 . S
C122 C121 1.348 . S
C122 C123 1.443 . S
C123 H87 0.932 . S
C123 C118 1.388 . S
C123 C122 1.443 . S
H124 C151 0.929 . S
N125 C150 1.433 . S
N125 C156 1.435 . S
N125 C162 1.423 . S
H126 C152 0.930 . S
H127 C155 0.931 . S
H128 C154 0.929 . S
H129 C157 0.930 . S
H130 C158 0.932 . S
H131 C161 0.929 . S
H132 C160 0.931 . S
H133 C163 0.929 . S
H134 C167 0.932 . S
H135 C164 0.931 . S
H136 C166 0.929 . S
H137 C169 0.929 . S
H138 C170 0.930 . S
H139 C172 0.929 . S
H140 C173 0.931 . S
H141 C175 0.930 . S
H142 C176 0.932 . S
H143 C178 0.931 . S
H144 C179 0.929 . S
H145 C181 0.929 . S
H146 C182 0.931 . S
H147 C184 0.929 . S
N148 C168 1.433 . S
N148 C174 1.435 . S
N148 C180 1.423 . S
H149 C185 0.932 . S
C150 N125 1.433 . S
C150 C151 1.363 . S
C150 C155 1.370 . S
C151 H124 0.929 . S
C151 C150 1.363 . S
C151 C152 1.385 . S
C152 H126 0.930 . S
C152 C151 1.385 . S
C152 C153 1.357 . S
C153 C152 1.357 . S
C153 C154 1.406 . S
C154 H128 0.929 . S
C154 C153 1.406 . S
C154 C155 1.391 . S
C155 H127 0.931 . S
C155 C150 1.370 . S
C155 C154 1.391 . S
C156 N125 1.435 . S
C156 C157 1.358 . S
C156 C161 1.371 . S
C157 H129 0.930 . S
C157 C156 1.358 . S
C157 C158 1.405 . S
C158 H130 0.932 . S
C158 C157 1.405 . S
C158 C159 1.383 . S
C159 C158 1.383 . S
C159 C160 1.393 . S
C160 H132 0.931 . S
C160 C159 1.393 . S
C160 C161 1.382 . S
C161 H131 0.929 . S
C161 C156 1.371 . S
C161 C160 1.382 . S
C162 N125 1.423 . S
C162 C163 1.362 . S
C162 C167 1.388 . S
C163 H133 0.929 . S
C163 C162 1.362 . S
C163 C164 1.376 . S
C164 H135 0.931 . S
C164 C163 1.376 . S
C164 C165 1.396 . S
C165 C164 1.396 . S
C165 C166 1.348 . S
C165 C183 1.472 . S
C166 H136 0.929 . S
C166 C165 1.348 . S
C166 C167 1.443 . S
C167 H134 0.932 . S
C167 C162 1.388 . S
C167 C166 1.443 . S
C168 N148 1.433 . S
C168 C169 1.363 . S
C168 C173 1.370 . S
C169 H137 0.929 . S
C169 C168 1.363 . S
C169 C170 1.385 . S
C170 H138 0.930 . S
C170 C169 1.385 . S
C170 C171 1.357 . S
C171 C170 1.357 . S
C171 C172 1.406 . S
C172 H139 0.929 . S
C172 C171 1.406 . S
C172 C173 1.391 . S
C173 H140 0.931 . S
C173 C168 1.370 . S
C173 C172 1.391 . S
C174 N148 1.435 . S
C174 C175 1.358 . S
C174 C179 1.371 . S
C175 H141 0.930 . S
C175 C174 1.358 . S
C175 C176 1.405 . S
C176 H142 0.932 . S
C176 C175 1.405 . S
C176 C177 1.383 . S
C177 C176 1.383 . S
C177 C178 1.393 . S
C178 H143 0.931 . S
C178 C177 1.393 . S
C178 C179 1.382 . S
C179 H144 0.929 . S
C179 C174 1.371 . S
C179 C178 1.382 . S
C180 N148 1.423 . S
C180 C181 1.362 . S
C180 C185 1.388 . S
C181 H145 0.929 . S
C181 C180 1.362 . S
C181 C182 1.376 . S
C182 H146 0.931 . S
C182 C181 1.376 . S
C182 C183 1.396 . S
C183 C165 1.472 . S
C183 C182 1.396 . S
C183 C184 1.348 . S
C184 H147 0.929 . S
C184 C183 1.348 . S
C184 C185 1.443 . S
C185 H149 0.932 . S
C185 C180 1.388 . S
C185 C184 1.443 . S
H186 C213 0.929 . S
N187 C212 1.433 . S
N187 C218 1.435 . S
N187 C224 1.423 . S
H188 C214 0.930 . S
H189 C217 0.931 . S
H190 C216 0.929 . S
H191 C219 0.930 . S
H192 C220 0.932 . S
H193 C223 0.929 . S
H194 C222 0.931 . S
H195 C225 0.929 . S
H196 C229 0.932 . S
H197 C226 0.931 . S
H198 C228 0.929 . S
H199 C231 0.929 . S
H200 C232 0.930 . S
H201 C234 0.929 . S
H202 C235 0.931 . S
H203 C237 0.930 . S
H204 C238 0.932 . S
H205 C240 0.931 . S
H206 C241 0.929 . S
H207 C243 0.929 . S
H208 C244 0.931 . S
H209 C246 0.929 . S
N210 C230 1.433 . S
N210 C236 1.435 . S
N210 C242 1.423 . S
H211 C247 0.932 . S
C212 N187 1.433 . S
C212 C213 1.363 . S
C212 C217 1.370 . S
C213 H186 0.929 . S
C213 C212 1.363 . S
C213 C214 1.385 . S
C214 H188 0.930 . S
C214 C213 1.385 . S
C214 C215 1.357 . S
C215 C214 1.357 . S
C215 C216 1.406 . S
C216 H190 0.929 . S
C216 C215 1.406 . S
C216 C217 1.391 . S
C217 H189 0.931 . S
C217 C212 1.370 . S
C217 C216 1.391 . S
C218 N187 1.435 . S
C218 C219 1.358 . S
C218 C223 1.371 . S
C219 H191 0.930 . S
C219 C218 1.358 . S
C219 C220 1.405 . S
C220 H192 0.932 . S
C220 C219 1.405 . S
C220 C221 1.383 . S
C221 C220 1.383 . S
C221 C222 1.393 . S
C222 H194 0.931 . S
C222 C221 1.393 . S
C222 C223 1.382 . S
C223 H193 0.929 . S
C223 C218 1.371 . S
C223 C222 1.382 . S
C224 N187 1.423 . S
C224 C225 1.362 . S
C224 C229 1.388 . S
C225 H195 0.929 . S
C225 C224 1.362 . S
C225 C226 1.376 . S
C226 H197 0.931 . S
C226 C225 1.376 . S
C226 C227 1.396 . S
C227 C226 1.396 . S
C227 C228 1.348 . S
C227 C245 1.472 1_455 S
C228 H198 0.929 . S
C228 C227 1.348 . S
C228 C229 1.443 . S
C229 H196 0.932 . S
C229 C224 1.388 . S
C229 C228 1.443 . S
C230 N210 1.433 . S
C230 C231 1.363 . S
C230 C235 1.370 . S
C231 H199 0.929 . S
C231 C230 1.363 . S
C231 C232 1.385 . S
C232 H200 0.930 . S
C232 C231 1.385 . S
C232 C233 1.357 . S
C233 C232 1.357 . S
C233 C234 1.406 . S
C234 H201 0.929 . S
C234 C233 1.406 . S
C234 C235 1.391 . S
C235 H202 0.931 . S
C235 C230 1.370 . S
C235 C234 1.391 . S
C236 N210 1.435 . S
C236 C237 1.358 . S
C236 C241 1.371 . S
C237 H203 0.930 . S
C237 C236 1.358 . S
C237 C238 1.405 . S
C238 H204 0.932 . S
C238 C237 1.405 . S
C238 C239 1.383 . S
C239 C238 1.383 . S
C239 C240 1.393 . S
C240 H205 0.931 . S
C240 C239 1.393 . S
C240 C241 1.382 . S
C241 H206 0.929 . S
C241 C236 1.371 . S
C241 C240 1.382 . S
C242 N210 1.423 . S
C242 C243 1.362 . S
C242 C247 1.388 . S
C243 H207 0.929 . S
C243 C242 1.362 . S
C243 C244 1.376 . S
C244 H208 0.931 . S
C244 C243 1.376 . S
C244 C245 1.396 . S
C245 C227 1.472 1_655 S
C245 C244 1.396 . S
C245 C246 1.348 . S
C246 H209 0.929 . S
C246 C245 1.348 . S
C246 C247 1.443 . S
C247 H211 0.932 . S
C247 C242 1.388 . S
C247 C246 1.443 . S
H248 C275 0.929 . S
N249 C274 1.433 . S
N249 C280 1.435 . S
N249 C286 1.423 . S
H250 C276 0.930 . S
H251 C279 0.931 . S
H252 C278 0.929 . S
H253 C281 0.930 . S
H254 C282 0.932 . S
H255 C285 0.929 . S
H256 C284 0.931 . S
H257 C287 0.929 . S
H258 C291 0.932 . S
H259 C288 0.931 . S
H260 C290 0.929 . S
H261 C293 0.929 . S
H262 C294 0.930 . S
H263 C296 0.929 . S
H264 C297 0.931 . S
H265 C299 0.930 . S
H266 C300 0.932 . S
H267 C302 0.931 . S
H268 C303 0.929 . S
H269 C305 0.929 . S
H270 C306 0.931 . S
H271 C308 0.929 . S
N272 C292 1.433 . S
N272 C298 1.435 1_554 S
N272 C304 1.423 . S
H273 C309 0.932 . S
C274 N249 1.433 . S
C274 C275 1.363 . S
C274 C279 1.370 . S
C275 H248 0.929 . S
C275 C274 1.363 . S
C275 C276 1.385 . S
C276 H250 0.930 . S
C276 C275 1.385 . S
C276 C277 1.357 1_556 S
C277 C276 1.357 1_554 S
C277 C278 1.406 . S
C278 H252 0.929 . S
C278 C277 1.406 . S
C278 C279 1.391 1_554 S
C279 H251 0.931 . S
C279 C274 1.370 . S
C279 C278 1.391 1_556 S
C280 N249 1.435 . S
C280 C281 1.358 . S
C280 C285 1.371 . S
C281 H253 0.930 . S
C281 C280 1.358 . S
C281 C282 1.405 . S
C282 H254 0.932 . S
C282 C281 1.405 . S
C282 C283 1.383 . S
C283 C282 1.383 . S
C283 C284 1.393 . S
C284 H256 0.931 . S
C284 C283 1.393 . S
C284 C285 1.382 . S
C285 H255 0.929 . S
C285 C280 1.371 . S
C285 C284 1.382 . S
C286 N249 1.423 . S
C286 C287 1.362 . S
C286 C291 1.388 . S
C287 H257 0.929 . S
C287 C286 1.362 . S
C287 C288 1.376 . S
C288 H259 0.931 . S
C288 C287 1.376 . S
C288 C289 1.396 . S
C289 C288 1.396 . S
C289 C290 1.348 . S
C289 C307 1.472 1_545 S
C290 H260 0.929 . S
C290 C289 1.348 . S
C290 C291 1.443 . S
C291 H258 0.932 . S
C291 C286 1.388 . S
C291 C290 1.443 . S
C292 N272 1.433 . S
C292 C293 1.363 . S
C292 C297 1.370 . S
C293 H261 0.929 . S
C293 C292 1.363 . S
C293 C294 1.385 . S
C294 H262 0.930 . S
C294 C293 1.385 . S
C294 C295 1.357 . S
C295 C294 1.357 . S
C295 C296 1.406 . S
C296 H263 0.929 . S
C296 C295 1.406 . S
C296 C297 1.391 . S
C297 H264 0.931 . S
C297 C292 1.370 . S
C297 C296 1.391 . S
C298 N272 1.435 1_556 S
C298 C299 1.358 1_556 S
C298 C303 1.371 . S
C299 H265 0.930 . S
C299 C298 1.358 1_554 S
C299 C300 1.405 1_554 S
C300 H266 0.932 . S
C300 C299 1.405 1_556 S
C300 C301 1.383 . S
C301 C300 1.383 . S
C301 C302 1.393 . S
C302 H267 0.931 . S
C302 C301 1.393 . S
C302 C303 1.382 . S
C303 H268 0.929 . S
C303 C298 1.371 . S
C303 C302 1.382 . S
C304 N272 1.423 . S
C304 C305 1.362 . S
C304 C309 1.388 1_554 S
C305 H269 0.929 . S
C305 C304 1.362 . S
C305 C306 1.376 . S
C306 H270 0.931 . S
C306 C305 1.376 . S
C306 C307 1.396 1_554 S
C307 C289 1.472 1_565 S
C307 C306 1.396 1_556 S
C307 C308 1.348 . S
C308 H271 0.929 . S
C308 C307 1.348 . S
C308 C309 1.443 . S
C309 H273 0.932 . S
C309 C304 1.388 1_556 S
C309 C308 1.443 . S
H310 C337 0.929 . S
N311 C336 1.433 . S
N311 C342 1.435 . S
N311 C348 1.423 . S
H312 C338 0.930 . S
H313 C341 0.931 . S
H314 C340 0.929 . S
H315 C343 0.930 . S
H316 C344 0.932 . S
H317 C347 0.929 . S
H318 C346 0.931 . S
H319 C349 0.929 . S
H320 C353 0.932 . S
H321 C350 0.931 . S
H322 C352 0.929 . S
H323 C355 0.929 . S
H324 C356 0.930 . S
H325 C358 0.929 . S
H326 C359 0.931 . S
H327 C361 0.930 . S
H328 C362 0.932 . S
H329 C364 0.931 . S
H330 C365 0.929 . S
H331 C367 0.929 . S
H332 C368 0.931 . S
H333 C370 0.929 . S
N334 C354 1.433 . S
N334 C360 1.435 . S
N334 C366 1.423 . S
H335 C371 0.932 . S
C336 N311 1.433 . S
C336 C337 1.363 . S
C336 C341 1.370 . S
C337 H310 0.929 . S
C337 C336 1.363 . S
C337 C338 1.385 . S
C338 H312 0.930 . S
C338 C337 1.385 . S
C338 C339 1.357 . S
C339 C338 1.357 . S
C339 C340 1.406 . S
C340 H314 0.929 . S
C340 C339 1.406 . S
C340 C341 1.391 . S
C341 H313 0.931 . S
C341 C336 1.370 . S
C341 C340 1.391 . S
C342 N311 1.435 . S
C342 C343 1.358 . S
C342 C347 1.371 . S
C343 H315 0.930 . S
C343 C342 1.358 . S
C343 C344 1.405 . S
C344 H316 0.932 . S
C344 C343 1.405 . S
C344 C345 1.383 . S
C345 C344 1.383 . S
C345 C346 1.393 . S
C346 H318 0.931 . S
C346 C345 1.393 . S
C346 C347 1.382 . S
C347 H317 0.929 . S
C347 C342 1.371 . S
C347 C346 1.382 . S
C348 N311 1.423 . S
C348 C349 1.362 . S
C348 C353 1.388 . S
C349 H319 0.929 . S
C349 C348 1.362 . S
C349 C350 1.376 . S
C350 H321 0.931 . S
C350 C349 1.376 . S
C350 C351 1.396 . S
C351 C350 1.396 . S
C351 C352 1.348 . S
C351 C369 1.472 . S
C352 H322 0.929 . S
C352 C351 1.348 . S
C352 C353 1.443 . S
C353 H320 0.932 . S
C353 C348 1.388 . S
C353 C352 1.443 . S
C354 N334 1.433 . S
C354 C355 1.363 . S
C354 C359 1.370 . S
C355 H323 0.929 . S
C355 C354 1.363 . S
C355 C356 1.385 . S
C356 H324 0.930 . S
C356 C355 1.385 . S
C356 C357 1.357 . S
C357 C356 1.357 . S
C357 C358 1.406 . S
C358 H325 0.929 . S
C358 C357 1.406 . S
C358 C359 1.391 . S
C359 H326 0.931 . S
C359 C354 1.370 . S
C359 C358 1.391 . S
C360 N334 1.435 . S
C360 C361 1.358 . S
C360 C365 1.371 . S
C361 H327 0.930 . S
C361 C360 1.358 . S
C361 C362 1.405 . S
C362 H328 0.932 . S
C362 C361 1.405 . S
C362 C363 1.383 . S
C363 C362 1.383 . S
C363 C364 1.393 . S
C364 H329 0.931 . S
C364 C363 1.393 . S
C364 C365 1.382 . S
C365 H330 0.929 . S
C365 C360 1.371 . S
C365 C364 1.382 . S
C366 N334 1.423 . S
C366 C367 1.362 . S
C366 C371 1.388 . S
C367 H331 0.929 . S
C367 C366 1.362 . S
C367 C368 1.376 . S
C368 H332 0.931 . S
C368 C367 1.376 . S
C368 C369 1.396 . S
C369 C351 1.472 . S
C369 C368 1.396 . S
C369 C370 1.348 . S
C370 H333 0.929 . S
C370 C369 1.348 . S
C370 C371 1.443 . S
C371 H335 0.932 . S
C371 C366 1.388 . S
C371 C370 1.443 . S
In372 O373 2.294 . S
In372 O374 2.326 . S
In372 O378 2.266 . S
In372 O379 2.326 . S
In372 O380 2.266 . S
In372 O381 2.326 . S
In372 O383 2.294 . S
In372 O384 2.326 . S
O373 In372 2.294 . S
O373 C382 1.240 . S
O374 In372 2.326 . S
O374 C382 1.252 . S
C375 O378 1.252 . S
C375 O379 1.260 . S
C376 O383 1.240 . S
C376 O384 1.252 . S
C377 O380 1.252 . S
C377 O381 1.260 . S
O378 In372 2.266 . S
O378 C375 1.252 . S
O379 In372 2.326 . S
O379 C375 1.260 . S
O380 In372 2.266 . S
O380 C377 1.252 . S
O381 In372 2.326 . S
O381 C377 1.260 . S
C382 O373 1.240 . S
C382 O374 1.252 . S
O383 In372 2.294 . S
O383 C376 1.240 . S
O384 In372 2.326 . S
O384 C376 1.252 . S
In385 O386 2.294 . S
In385 O387 2.326 . S
In385 O391 2.266 . S
In385 O392 2.326 . S
In385 O393 2.266 . S
In385 O394 2.326 . S
In385 O396 2.294 . S
In385 O397 2.326 . S
O386 In385 2.294 . S
O386 C395 1.240 . S
O387 In385 2.326 . S
O387 C395 1.252 . S
C388 O391 1.252 . S
C388 O392 1.260 . S
C389 O396 1.240 . S
C389 O397 1.252 . S
C390 O393 1.252 . S
C390 O394 1.260 . S
O391 In385 2.266 . S
O391 C388 1.252 . S
O392 In385 2.326 . S
O392 C388 1.260 . S
O393 In385 2.266 . S
O393 C390 1.252 . S
O394 In385 2.326 . S
O394 C390 1.260 . S
C395 O386 1.240 . S
C395 O387 1.252 . S
O396 In385 2.294 . S
O396 C389 1.240 . S
O397 In385 2.326 . S
O397 C389 1.252 . S
In398 O399 2.294 . S
In398 O400 2.326 . S
In398 O404 2.266 . S
In398 O405 2.326 . S
In398 O406 2.266 . S
In398 O407 2.326 . S
In398 O409 2.294 . S
In398 O410 2.326 . S
O399 In398 2.294 . S
O399 C408 1.240 . S
O400 In398 2.326 . S
O400 C408 1.252 . S
C401 O404 1.252 . S
C401 O405 1.260 . S
C402 O409 1.240 . S
C402 O410 1.252 . S
C403 O406 1.252 . S
C403 O407 1.260 . S
O404 In398 2.266 . S
O404 C401 1.252 . S
O405 In398 2.326 . S
O405 C401 1.260 . S
O406 In398 2.266 . S
O406 C403 1.252 . S
O407 In398 2.326 . S
O407 C403 1.260 . S
C408 O399 1.240 . S
C408 O400 1.252 . S
O409 In398 2.294 . S
O409 C402 1.240 . S
O410 In398 2.326 . S
O410 C402 1.252 . S
In411 O412 2.294 . S
In411 O413 2.326 . S
In411 O417 2.266 . S
In411 O418 2.326 . S
In411 O419 2.266 . S
In411 O420 2.326 . S
In411 O422 2.294 . S
In411 O423 2.326 . S
O412 In411 2.294 . S
O412 C421 1.240 . S
O413 In411 2.326 . S
O413 C421 1.252 . S
C414 O417 1.252 . S
C414 O418 1.260 . S
C415 O422 1.240 . S
C415 O423 1.252 . S
C416 O419 1.252 . S
C416 O420 1.260 . S
O417 In411 2.266 . S
O417 C414 1.252 . S
O418 In411 2.326 . S
O418 C414 1.260 . S
O419 In411 2.266 . S
O419 C416 1.252 . S
O420 In411 2.326 . S
O420 C416 1.260 . S
C421 O412 1.240 . S
C421 O413 1.252 . S
O422 In411 2.294 . S
O422 C415 1.240 . S
O423 In411 2.326 . S
O423 C415 1.252 . S
In424 O425 2.294 . S
In424 O426 2.326 . S
In424 O430 2.266 . S
In424 O431 2.326 . S
In424 O432 2.266 . S
In424 O433 2.326 . S
In424 O435 2.294 . S
In424 O436 2.326 . S
O425 In424 2.294 . S
O425 C434 1.240 . S
O426 In424 2.326 . S
O426 C434 1.252 . S
C427 O430 1.252 . S
C427 O431 1.260 . S
C428 O435 1.240 . S
C428 O436 1.252 . S
C429 O432 1.252 . S
C429 O433 1.260 . S
O430 In424 2.266 . S
O430 C427 1.252 . S
O431 In424 2.326 . S
O431 C427 1.260 . S
O432 In424 2.266 . S
O432 C429 1.252 . S
O433 In424 2.326 . S
O433 C429 1.260 . S
C434 O425 1.240 . S
C434 O426 1.252 . S
O435 In424 2.294 . S
O435 C428 1.240 . S
O436 In424 2.326 . S
O436 C428 1.252 . S
In437 O438 2.294 . S
In437 O439 2.326 . S
In437 O443 2.266 . S
In437 O444 2.326 . S
In437 O445 2.266 . S
In437 O446 2.326 . S
In437 O448 2.294 . S
In437 O449 2.326 . S
O438 In437 2.294 . S
O438 C447 1.240 . S
O439 In437 2.326 . S
O439 C447 1.252 . S
C440 O443 1.252 . S
C440 O444 1.260 . S
C441 O448 1.240 . S
C441 O449 1.252 . S
C442 O445 1.252 . S
C442 O446 1.260 . S
O443 In437 2.266 . S
O443 C440 1.252 . S
O444 In437 2.326 . S
O444 C440 1.260 . S
O445 In437 2.266 . S
O445 C442 1.252 . S
O446 In437 2.326 . S
O446 C442 1.260 . S
C447 O438 1.240 . S
C447 O439 1.252 . S
O448 In437 2.294 . S
O448 C441 1.240 . S
O449 In437 2.326 . S
O449 C441 1.252 . S
H450 C456 0.930 . S
H451 C459 0.930 . S
H452 C460 0.930 . S
H453 C461 0.930 . S
H454 C464 0.930 . S
H455 C465 0.930 . S
C456 H450 0.930 . S
C456 C457 1.355 . S
C456 C458 1.415 . S
C457 C456 1.355 . S
C457 C459 1.419 . S
C458 C456 1.415 . S
C458 C463 1.425 . S
C458 C465 1.409 . S
C459 H451 0.930 . S
C459 C457 1.419 . S
C459 C460 1.362 . S
C460 H452 0.930 . S
C460 C459 1.362 . S
C460 C463 1.409 . S
C461 H453 0.930 . S
C461 C462 1.355 . S
C461 C463 1.415 . S
C462 C461 1.355 . S
C462 C464 1.419 . S
C463 C458 1.425 . S
C463 C460 1.409 . S
C463 C461 1.415 . S
C464 H454 0.930 . S
C464 C462 1.419 . S
C464 C465 1.362 . S
C465 H455 0.930 . S
C465 C458 1.409 . S
C465 C464 1.362 . S
H466 C472 0.930 . S
H467 C475 0.930 . S
H468 C476 0.930 . S
H469 C477 0.930 . S
H470 C480 0.930 . S
H471 C481 0.930 . S
C472 H466 0.930 . S
C472 C473 1.355 . S
C472 C474 1.415 . S
C473 C472 1.355 . S
C473 C475 1.419 . S
C474 C472 1.415 . S
C474 C479 1.425 . S
C474 C481 1.409 . S
C475 H467 0.930 . S
C475 C473 1.419 . S
C475 C476 1.362 . S
C476 H468 0.930 . S
C476 C475 1.362 . S
C476 C479 1.409 . S
C477 H469 0.930 . S
C477 C478 1.355 . S
C477 C479 1.415 . S
C478 C477 1.355 . S
C478 C480 1.419 . S
C479 C474 1.425 . S
C479 C476 1.409 . S
C479 C477 1.415 . S
C480 H470 0.930 . S
C480 C478 1.419 . S
C480 C481 1.362 . S
C481 H471 0.930 . S
C481 C474 1.409 . S
C481 C480 1.362 . S
H482 C488 0.930 . S
H483 C491 0.930 . S
H484 C492 0.930 . S
H485 C493 0.930 . S
H486 C496 0.930 . S
H487 C497 0.930 . S
C488 H482 0.930 . S
C488 C489 1.355 . S
C488 C490 1.415 . S
C489 C488 1.355 . S
C489 C491 1.419 . S
C490 C488 1.415 . S
C490 C495 1.425 . S
C490 C497 1.409 . S
C491 H483 0.930 . S
C491 C489 1.419 . S
C491 C492 1.362 . S
C492 H484 0.930 . S
C492 C491 1.362 . S
C492 C495 1.409 . S
C493 H485 0.930 . S
C493 C494 1.355 . S
C493 C495 1.415 . S
C494 C493 1.355 . S
C494 C496 1.419 . S
C495 C490 1.425 . S
C495 C492 1.409 . S
C495 C493 1.415 . S
C496 H486 0.930 . S
C496 C494 1.419 . S
C496 C497 1.362 . S
C497 H487 0.930 . S
C497 C490 1.409 . S
C497 C496 1.362 . S
H498 C504 0.930 . S
H499 C507 0.930 . S
H500 C508 0.930 . S
H501 C509 0.930 . S
H502 C512 0.930 . S
H503 C513 0.930 . S
C504 H498 0.930 . S
C504 C505 1.355 . S
C504 C506 1.415 . S
C505 C504 1.355 . S
C505 C507 1.419 . S
C506 C504 1.415 . S
C506 C511 1.425 . S
C506 C513 1.409 . S
C507 H499 0.930 . S
C507 C505 1.419 . S
C507 C508 1.362 . S
C508 H500 0.930 . S
C508 C507 1.362 . S
C508 C511 1.409 . S
C509 H501 0.930 . S
C509 C510 1.355 . S
C509 C511 1.415 . S
C510 C509 1.355 . S
C510 C512 1.419 . S
C511 C506 1.425 . S
C511 C508 1.409 . S
C511 C509 1.415 . S
C512 H502 0.930 . S
C512 C510 1.419 . S
C512 C513 1.362 . S
C513 H503 0.930 . S
C513 C506 1.409 . S
C513 C512 1.362 . S
H514 C520 0.930 . S
H515 C523 0.930 . S
H516 C524 0.930 . S
H517 C525 0.930 . S
H518 C528 0.930 . S
H519 C529 0.930 . S
C520 H514 0.930 . S
C520 C521 1.355 . S
C520 C522 1.415 . S
C521 C520 1.355 . S
C521 C523 1.419 . S
C522 C520 1.415 . S
C522 C527 1.425 . S
C522 C529 1.409 . S
C523 H515 0.930 . S
C523 C521 1.419 . S
C523 C524 1.362 . S
C524 H516 0.930 . S
C524 C523 1.362 . S
C524 C527 1.409 . S
C525 H517 0.930 . S
C525 C526 1.355 . S
C525 C527 1.415 . S
C526 C525 1.355 . S
C526 C528 1.419 . S
C527 C522 1.425 . S
C527 C524 1.409 . S
C527 C525 1.415 . S
C528 H518 0.930 . S
C528 C526 1.419 . S
C528 C529 1.362 . S
C529 H519 0.930 . S
C529 C522 1.409 . S
C529 C528 1.362 . S
H530 C536 0.930 . S
H531 C539 0.930 . S
H532 C540 0.930 . S
H533 C541 0.930 . S
H534 C544 0.930 . S
H535 C545 0.930 . S
C536 H530 0.930 . S
C536 C537 1.355 . S
C536 C538 1.415 . S
C537 C536 1.355 . S
C537 C539 1.419 . S
C538 C536 1.415 . S
C538 C543 1.425 . S
C538 C545 1.409 . S
C539 H531 0.930 . S
C539 C537 1.419 . S
C539 C540 1.362 . S
C540 H532 0.930 . S
C540 C539 1.362 . S
C540 C543 1.409 . S
C541 H533 0.930 . S
C541 C542 1.355 . S
C541 C543 1.415 . S
C542 C541 1.355 . S
C542 C544 1.419 . S
C543 C538 1.425 . S
C543 C540 1.409 . S
C543 C541 1.415 . S
C544 H534 0.930 . S
C544 C542 1.419 . S
C544 C545 1.362 . S
C545 H535 0.930 . S
C545 C538 1.409 . S
C545 C544 1.362 . S
H546 C552 0.930 . S
H547 C555 0.930 . S
H548 C556 0.930 . S
H549 C557 0.930 . S
H550 C560 0.930 . S
H551 C561 0.930 . S
C552 H546 0.930 . S
C552 C553 1.355 . S
C552 C554 1.415 . S
C553 C552 1.355 . S
C553 C555 1.419 . S
C554 C552 1.415 . S
C554 C559 1.425 . S
C554 C561 1.409 . S
C555 H547 0.930 . S
C555 C553 1.419 . S
C555 C556 1.362 . S
C556 H548 0.930 . S
C556 C555 1.362 . S
C556 C559 1.409 . S
C557 H549 0.930 . S
C557 C558 1.355 . S
C557 C559 1.415 . S
C558 C557 1.355 . S
C558 C560 1.419 . S
C559 C554 1.425 . S
C559 C556 1.409 . S
C559 C557 1.415 . S
C560 H550 0.930 . S
C560 C558 1.419 . S
C560 C561 1.362 . S
C561 H551 0.930 . S
C561 C554 1.409 . S
C561 C560 1.362 . S
H562 C568 0.930 . S
H563 C571 0.930 . S
H564 C572 0.930 . S
H565 C573 0.930 . S
H566 C576 0.930 . S
H567 C577 0.930 . S
C568 H562 0.930 . S
C568 C569 1.355 . S
C568 C570 1.415 . S
C569 C568 1.355 . S
C569 C571 1.419 . S
C570 C568 1.415 . S
C570 C575 1.425 . S
C570 C577 1.409 . S
C571 H563 0.930 . S
C571 C569 1.419 . S
C571 C572 1.362 . S
C572 H564 0.930 . S
C572 C571 1.362 . S
C572 C575 1.409 . S
C573 H565 0.930 . S
C573 C574 1.355 . S
C573 C575 1.415 . S
C574 C573 1.355 . S
C574 C576 1.419 . S
C575 C570 1.425 . S
C575 C572 1.409 . S
C575 C573 1.415 . S
C576 H566 0.930 . S
C576 C574 1.419 . S
C576 C577 1.362 . S
C577 H567 0.930 . S
C577 C570 1.409 . S
C577 C576 1.362 . S
H578 C584 0.930 . S
H579 C587 0.930 . S
H580 C588 0.930 . S
H581 C589 0.930 . S
H582 C592 0.930 . S
H583 C593 0.930 . S
C584 H578 0.930 . S
C584 C585 1.355 . S
C584 C586 1.415 . S
C585 C584 1.355 . S
C585 C587 1.419 . S
C586 C584 1.415 . S
C586 C591 1.425 . S
C586 C593 1.409 . S
C587 H579 0.930 . S
C587 C585 1.419 . S
C587 C588 1.362 . S
C588 H580 0.930 . S
C588 C587 1.362 . S
C588 C591 1.409 . S
C589 H581 0.930 . S
C589 C590 1.355 . S
C589 C591 1.415 . S
C590 C589 1.355 . S
C590 C592 1.419 . S
C591 C586 1.425 . S
C591 C588 1.409 . S
C591 C589 1.415 . S
C592 H582 0.930 . S
C592 C590 1.419 . S
C592 C593 1.362 . S
C593 H583 0.930 . S
C593 C586 1.409 . S
C593 C592 1.362 . S
H594 C600 0.930 . S
H595 C603 0.930 . S
H596 C604 0.930 . S
H597 C605 0.930 . S
H598 C608 0.930 . S
H599 C609 0.930 . S
C600 H594 0.930 . S
C600 C601 1.355 . S
C600 C602 1.415 . S
C601 C600 1.355 . S
C601 C603 1.419 . S
C602 C600 1.415 . S
C602 C607 1.425 . S
C602 C609 1.409 . S
C603 H595 0.930 . S
C603 C601 1.419 . S
C603 C604 1.362 . S
C604 H596 0.930 . S
C604 C603 1.362 . S
C604 C607 1.409 . S
C605 H597 0.930 . S
C605 C606 1.355 . S
C605 C607 1.415 . S
C606 C605 1.355 . S
C606 C608 1.419 . S
C607 C602 1.425 . S
C607 C604 1.409 . S
C607 C605 1.415 . S
C608 H598 0.930 . S
C608 C606 1.419 . S
C608 C609 1.362 . S
C609 H599 0.930 . S
C609 C602 1.409 . S
C609 C608 1.362 . S
H610 C616 0.930 . S
H611 C619 0.930 . S
H612 C620 0.930 . S
H613 C621 0.930 . S
H614 C624 0.930 . S
H615 C625 0.930 . S
C616 H610 0.930 . S
C616 C617 1.355 . S
C616 C618 1.415 . S
C617 C616 1.355 . S
C617 C619 1.419 . S
C618 C616 1.415 . S
C618 C623 1.425 . S
C618 C625 1.409 . S
C619 H611 0.930 . S
C619 C617 1.419 . S
C619 C620 1.362 . S
C620 H612 0.930 . S
C620 C619 1.362 . S
C620 C623 1.409 . S
C621 H613 0.930 . S
C621 C622 1.355 . S
C621 C623 1.415 . S
C622 C621 1.355 . S
C622 C624 1.419 . S
C623 C618 1.425 . S
C623 C620 1.409 . S
C623 C621 1.415 . S
C624 H614 0.930 . S
C624 C622 1.419 . S
C624 C625 1.362 . S
C625 H615 0.930 . S
C625 C618 1.409 . S
C625 C624 1.362 . S
H626 C632 0.930 . S
H627 C635 0.930 . S
H628 C636 0.930 . S
H629 C637 0.930 . S
H630 C640 0.930 . S
H631 C641 0.930 . S
C632 H626 0.930 . S
C632 C633 1.355 . S
C632 C634 1.415 . S
C633 C632 1.355 . S
C633 C635 1.419 . S
C634 C632 1.415 . S
C634 C639 1.425 . S
C634 C641 1.409 . S
C635 H627 0.930 . S
C635 C633 1.419 . S
C635 C636 1.362 . S
C636 H628 0.930 . S
C636 C635 1.362 . S
C636 C639 1.409 . S
C637 H629 0.930 . S
C637 C638 1.355 . S
C637 C639 1.415 . S
C638 C637 1.355 . S
C638 C640 1.419 . S
C639 C634 1.425 . S
C639 C636 1.409 . S
C639 C637 1.415 . S
C640 H630 0.930 . S
C640 C638 1.419 . S
C640 C641 1.362 . S
C641 H631 0.930 . S
C641 C634 1.409 . S
C641 C640 1.362 . S
H642 C648 0.930 . S
H643 C651 0.930 . S
H644 C652 0.930 . S
H645 C653 0.930 . S
H646 C656 0.930 . S
H647 C657 0.930 . S
C648 H642 0.930 . S
C648 C649 1.355 . S
C648 C650 1.415 . S
C649 C648 1.355 . S
C649 C651 1.419 . S
C650 C648 1.415 . S
C650 C655 1.425 . S
C650 C657 1.409 . S
C651 H643 0.930 . S
C651 C649 1.419 . S
C651 C652 1.362 . S
C652 H644 0.930 . S
C652 C651 1.362 . S
C652 C655 1.409 . S
C653 H645 0.930 . S
C653 C654 1.355 . S
C653 C655 1.415 . S
C654 C653 1.355 . S
C654 C656 1.419 . S
C655 C650 1.425 . S
C655 C652 1.409 . S
C655 C653 1.415 . S
C656 H646 0.930 . S
C656 C654 1.419 . S
C656 C657 1.362 . S
C657 H647 0.930 . S
C657 C650 1.409 . S
C657 C656 1.362 . S
H658 C664 0.930 . S
H659 C667 0.930 . S
H660 C668 0.930 . S
H661 C669 0.930 . S
H662 C672 0.930 . S
H663 C673 0.930 . S
C664 H658 0.930 . S
C664 C665 1.355 . S
C664 C666 1.415 . S
C665 C664 1.355 . S
C665 C667 1.419 . S
C666 C664 1.415 . S
C666 C671 1.425 . S
C666 C673 1.409 . S
C667 H659 0.930 . S
C667 C665 1.419 . S
C667 C668 1.362 . S
C668 H660 0.930 . S
C668 C667 1.362 . S
C668 C671 1.409 . S
C669 H661 0.930 . S
C669 C670 1.355 . S
C669 C671 1.415 . S
C670 C669 1.355 . S
C670 C672 1.419 . S
C671 C666 1.425 . S
C671 C668 1.409 . S
C671 C669 1.415 . S
C672 H662 0.930 . S
C672 C670 1.419 . S
C672 C673 1.362 . S
C673 H663 0.930 . S
C673 C666 1.409 . S
C673 C672 1.362 . S
H674 C680 0.930 . S
H675 C683 0.930 . S
H676 C684 0.930 . S
H677 C685 0.930 . S
H678 C688 0.930 . S
H679 C689 0.930 . S
C680 H674 0.930 . S
C680 C681 1.355 . S
C680 C682 1.415 . S
C681 C680 1.355 . S
C681 C683 1.419 . S
C682 C680 1.415 . S
C682 C687 1.425 . S
C682 C689 1.409 . S
C683 H675 0.930 . S
C683 C681 1.419 . S
C683 C684 1.362 . S
C684 H676 0.930 . S
C684 C683 1.362 . S
C684 C687 1.409 . S
C685 H677 0.930 . S
C685 C686 1.355 . S
C685 C687 1.415 . S
C686 C685 1.355 . S
C686 C688 1.419 . S
C687 C682 1.425 . S
C687 C684 1.409 . S
C687 C685 1.415 . S
C688 H678 0.930 . S
C688 C686 1.419 . S
C688 C689 1.362 . S
C689 H679 0.930 . S
C689 C682 1.409 . S
C689 C688 1.362 . S
H690 C696 0.930 . S
H691 C699 0.930 . S
H692 C700 0.930 . S
H693 C701 0.930 . S
H694 C704 0.930 . S
H695 C705 0.930 . S
C696 H690 0.930 . S
C696 C697 1.355 . S
C696 C698 1.415 . S
C697 C696 1.355 . S
C697 C699 1.419 . S
C698 C696 1.415 . S
C698 C703 1.425 . S
C698 C705 1.409 . S
C699 H691 0.930 . S
C699 C697 1.419 . S
C699 C700 1.362 . S
C700 H692 0.930 . S
C700 C699 1.362 . S
C700 C703 1.409 . S
C701 H693 0.930 . S
C701 C702 1.355 . S
C701 C703 1.415 1_554 S
C702 C701 1.355 . S
C702 C704 1.419 1_554 S
C703 C698 1.425 . S
C703 C700 1.409 . S
C703 C701 1.415 1_556 S
C704 H694 0.930 . S
C704 C702 1.419 1_556 S
C704 C705 1.362 . S
C705 H695 0.930 . S
C705 C698 1.409 . S
C705 C704 1.362 . S
H706 C712 0.930 . S
H707 C715 0.930 . S
H708 C716 0.930 . S
H709 C717 0.930 . S
H710 C720 0.930 . S
H711 C721 0.930 . S
C712 H706 0.930 . S
C712 C713 1.355 . S
C712 C714 1.415 . S
C713 C712 1.355 . S
C713 C715 1.419 . S
C714 C712 1.415 . S
C714 C719 1.425 . S
C714 C721 1.409 . S
C715 H707 0.930 . S
C715 C713 1.419 . S
C715 C716 1.362 . S
C716 H708 0.930 . S
C716 C715 1.362 . S
C716 C719 1.409 . S
C717 H709 0.930 . S
C717 C718 1.355 . S
C717 C719 1.415 . S
C718 C717 1.355 . S
C718 C720 1.419 . S
C719 C714 1.425 . S
C719 C716 1.409 . S
C719 C717 1.415 . S
C720 H710 0.930 . S
C720 C718 1.419 . S
C720 C721 1.362 . S
C721 H711 0.930 . S
C721 C714 1.409 . S
C721 C720 1.362 . S
H722 C728 0.930 . S
H723 C731 0.930 . S
H724 C732 0.930 . S
H725 C733 0.930 . S
H726 C736 0.930 . S
H727 C737 0.930 . S
C728 H722 0.930 . S
C728 C729 1.355 . S
C728 C730 1.415 . S
C729 C728 1.355 . S
C729 C731 1.419 . S
C730 C728 1.415 . S
C730 C735 1.425 . S
C730 C737 1.409 . S
C731 H723 0.930 . S
C731 C729 1.419 . S
C731 C732 1.362 . S
C732 H724 0.930 . S
C732 C731 1.362 . S
C732 C735 1.409 . S
C733 H725 0.930 . S
C733 C734 1.355 . S
C733 C735 1.415 . S
C734 C733 1.355 . S
C734 C736 1.419 . S
C735 C730 1.425 . S
C735 C732 1.409 . S
C735 C733 1.415 . S
C736 H726 0.930 . S
C736 C734 1.419 . S
C736 C737 1.362 . S
C737 H727 0.930 . S
C737 C730 1.409 . S
C737 C736 1.362 . S
H738 C744 0.930 . S
H739 C747 0.930 . S
H740 C748 0.930 . S
H741 C749 0.930 . S
H742 C752 0.930 . S
H743 C753 0.930 . S
C744 H738 0.930 . S
C744 C745 1.355 . S
C744 C746 1.415 . S
C745 C744 1.355 . S
C745 C747 1.419 . S
C746 C744 1.415 . S
C746 C751 1.425 . S
C746 C753 1.409 . S
C747 H739 0.930 . S
C747 C745 1.419 . S
C747 C748 1.362 . S
C748 H740 0.930 . S
C748 C747 1.362 . S
C748 C751 1.409 . S
C749 H741 0.930 . S
C749 C750 1.355 . S
C749 C751 1.415 . S
C750 C749 1.355 . S
C750 C752 1.419 . S
C751 C746 1.425 . S
C751 C748 1.409 . S
C751 C749 1.415 . S
C752 H742 0.930 . S
C752 C750 1.419 . S
C752 C753 1.362 . S
C753 H743 0.930 . S
C753 C746 1.409 . S
C753 C752 1.362 . S
H754 C760 0.930 . S
H755 C763 0.930 . S
H756 C764 0.930 . S
H757 C765 0.930 . S
H758 C768 0.930 . S
H759 C769 0.930 . S
C760 H754 0.930 . S
C760 C761 1.355 . S
C760 C762 1.415 . S
C761 C760 1.355 . S
C761 C763 1.419 . S
C762 C760 1.415 . S
C762 C767 1.425 . S
C762 C769 1.409 . S
C763 H755 0.930 . S
C763 C761 1.419 . S
C763 C764 1.362 . S
C764 H756 0.930 . S
C764 C763 1.362 . S
C764 C767 1.409 . S
C765 H757 0.930 . S
C765 C766 1.355 . S
C765 C767 1.415 . S
C766 C765 1.355 . S
C766 C768 1.419 . S
C767 C762 1.425 . S
C767 C764 1.409 . S
C767 C765 1.415 . S
C768 H758 0.930 . S
C768 C766 1.419 . S
C768 C769 1.362 . S
C769 H759 0.930 . S
C769 C762 1.409 . S
C769 C768 1.362 . S
H770 C776 0.930 . S
H771 C779 0.930 . S
H772 C780 0.930 . S
H773 C781 0.930 . S
H774 C784 0.930 . S
H775 C785 0.930 . S
C776 H770 0.930 . S
C776 C777 1.355 . S
C776 C778 1.415 . S
C777 C776 1.355 . S
C777 C779 1.419 . S
C778 C776 1.415 . S
C778 C783 1.425 . S
C778 C785 1.409 . S
C779 H771 0.930 . S
C779 C777 1.419 . S
C779 C780 1.362 . S
C780 H772 0.930 . S
C780 C779 1.362 . S
C780 C783 1.409 . S
C781 H773 0.930 . S
C781 C782 1.355 . S
C781 C783 1.415 . S
C782 C781 1.355 . S
C782 C784 1.419 . S
C783 C778 1.425 . S
C783 C780 1.409 . S
C783 C781 1.415 . S
C784 H774 0.930 . S
C784 C782 1.419 . S
C784 C785 1.362 . S
C785 H775 0.930 . S
C785 C778 1.409 . S
C785 C784 1.362 . S
H786 C792 0.930 . S
H787 C795 0.930 . S
H788 C796 0.930 . S
H789 C797 0.930 . S
H790 C800 0.930 . S
H791 C801 0.930 . S
C792 H786 0.930 . S
C792 C793 1.355 . S
C792 C794 1.415 . S
C793 C792 1.355 . S
C793 C795 1.419 . S
C794 C792 1.415 . S
C794 C799 1.425 . S
C794 C801 1.409 . S
C795 H787 0.930 . S
C795 C793 1.419 . S
C795 C796 1.362 . S
C796 H788 0.930 . S
C796 C795 1.362 . S
C796 C799 1.409 . S
C797 H789 0.930 . S
C797 C798 1.355 . S
C797 C799 1.415 . S
C798 C797 1.355 . S
C798 C800 1.419 . S
C799 C794 1.425 . S
C799 C796 1.409 . S
C799 C797 1.415 . S
C800 H790 0.930 . S
C800 C798 1.419 . S
C800 C801 1.362 . S
C801 H791 0.930 . S
C801 C794 1.409 . S
C801 C800 1.362 . S
H802 C808 0.930 . S
H803 C811 0.930 . S
H804 C812 0.930 . S
H805 C813 0.930 . S
H806 C816 0.930 . S
H807 C817 0.930 . S
C808 H802 0.930 . S
C808 C809 1.355 . S
C808 C810 1.415 . S
C809 C808 1.355 . S
C809 C811 1.419 . S
C810 C808 1.415 . S
C810 C815 1.425 1_554 S
C810 C817 1.409 . S
C811 H803 0.930 . S
C811 C809 1.419 . S
C811 C812 1.362 1_554 S
C812 H804 0.930 . S
C812 C811 1.362 1_556 S
C812 C815 1.409 . S
C813 H805 0.930 . S
C813 C814 1.355 . S
C813 C815 1.415 . S
C814 C813 1.355 . S
C814 C816 1.419 . S
C815 C810 1.425 1_556 S
C815 C812 1.409 . S
C815 C813 1.415 . S
C816 H806 0.930 . S
C816 C814 1.419 . S
C816 C817 1.362 1_556 S
C817 H807 0.930 . S
C817 C810 1.409 . S
C817 C816 1.362 1_554 S
H818 C824 0.930 . S
H819 C827 0.930 . S
H820 C828 0.930 . S
H821 C829 0.930 . S
H822 C832 0.930 . S
H823 C833 0.930 . S
C824 H818 0.930 . S
C824 C825 1.355 . S
C824 C826 1.415 . S
C825 C824 1.355 . S
C825 C827 1.419 . S
C826 C824 1.415 . S
C826 C831 1.425 . S
C826 C833 1.409 . S
C827 H819 0.930 . S
C827 C825 1.419 . S
C827 C828 1.362 . S
C828 H820 0.930 . S
C828 C827 1.362 . S
C828 C831 1.409 . S
C829 H821 0.930 . S
C829 C830 1.355 . S
C829 C831 1.415 . S
C830 C829 1.355 . S
C830 C832 1.419 . S
C831 C826 1.425 . S
C831 C828 1.409 . S
C831 C829 1.415 . S
C832 H822 0.930 . S
C832 C830 1.419 . S
C832 C833 1.362 . S
C833 H823 0.930 . S
C833 C826 1.409 . S
C833 C832 1.362 . S
C462 C442 1.627 . S
C457 C29 1.534 . S
C473 C115 1.529 . S
C478 C377 1.550 . S
C489 C153 1.530 . S
C494 C395 1.657 . S
C505 C239 1.540 . S
C510 C408 1.524 . S
C526 C416 1.589 . S
C521 C301 1.550 . S
C537 C339 1.723 . S
C542 C428 1.872 . S
C553 C91 1.575 . S
C558 C390 1.664 . S
C569 C177 1.532 . S
C574 C403 1.544 . S
C585 C215 1.565 . S
C590 C421 1.625 . S
C606 C427 1.879 . S
C601 C277 1.767 . S
C622 C447 1.570 . S
C617 C363 1.551 . S
C638 C382 1.535 . S
C633 C53 1.536 . S
C649 C35 1.690 . S
C654 C388 1.729 . S
C665 C109 1.457 . S
C670 C401 1.637 . S
C686 C415 1.585 . S
C681 C159 1.534 . S
C697 C233 1.740 . S
C702 C429 1.849 . S
C718 C441 1.673 . S
C713 C295 1.470 . S
C734 C376 1.595 . S
C729 C345 1.547 . S
C750 C440 1.592 . S
C745 C97 1.539 . S
C761 C171 1.507 . S
C766 C375 1.643 . S
C782 C389 1.721 . S
C777 C221 1.702 . S
C793 C283 1.554 . S
C798 C402 1.596 . S
C809 C357 1.576 . S
C814 C414 1.703 . S
C825 C47 1.691 . S
C830 C434 1.833 . S
