# Generated by pormake.
# Topology apo, (3,6)-cn, num edge types: 1
# Building blocks:
#     Node 0, Type 0, BuildingBlock: CUQRIR_clean_linker_1, # of connection points: 3
#     Node 1, Type 0, BuildingBlock: CUQRIR_clean_linker_1, # of connection points: 3
#     Node 2, Type 0, BuildingBlock: CUQRIR_clean_linker_1, # of connection points: 3
#     Node 3, Type 0, BuildingBlock: CUQRIR_clean_linker_1, # of connection points: 3
#     Node 4, Type 0, BuildingBlock: CUQRIR_clean_linker_1, # of connection points: 3
#     Node 5, Type 0, BuildingBlock: CUQRIR_clean_linker_1, # of connection points: 3
#     Node 6, Type 0, BuildingBlock: CUQRIR_clean_linker_1, # of connection points: 3
#     Node 7, Type 0, BuildingBlock: CUQRIR_clean_linker_1, # of connection points: 3
#     Node 8, Type 1, BuildingBlock: KUMBOL_clean_sbu_1, # of connection points: 6
#     Node 9, Type 1, BuildingBlock: KUMBOL_clean_sbu_1, # of connection points: 6
#     Node 10, Type 1, BuildingBlock: KUMBOL_clean_sbu_1, # of connection points: 6
#     Node 11, Type 1, BuildingBlock: KUMBOL_clean_sbu_1, # of connection points: 6
#     Edge 12, Type (0, 1), BuildingBlock: KIFKEQ_clean_linker_1, # of connection points: 2
#     Edge 13, Type (0, 1), BuildingBlock: KIFKEQ_clean_linker_1, # of connection points: 2
#     Edge 14, Type (0, 1), BuildingBlock: KIFKEQ_clean_linker_1, # of connection points: 2
#     Edge 15, Type (0, 1), BuildingBlock: KIFKEQ_clean_linker_1, # of connection points: 2
#     Edge 16, Type (0, 1), BuildingBlock: KIFKEQ_clean_linker_1, # of connection points: 2
#     Edge 17, Type (0, 1), BuildingBlock: KIFKEQ_clean_linker_1, # of connection points: 2
#     Edge 18, Type (0, 1), BuildingBlock: KIFKEQ_clean_linker_1, # of connection points: 2
#     Edge 19, Type (0, 1), BuildingBlock: KIFKEQ_clean_linker_1, # of connection points: 2
#     Edge 20, Type (0, 1), BuildingBlock: KIFKEQ_clean_linker_1, # of connection points: 2
#     Edge 21, Type (0, 1), BuildingBlock: KIFKEQ_clean_linker_1, # of connection points: 2
#     Edge 22, Type (0, 1), BuildingBlock: KIFKEQ_clean_linker_1, # of connection points: 2
#     Edge 23, Type (0, 1), BuildingBlock: KIFKEQ_clean_linker_1, # of connection points: 2
#     Edge 24, Type (0, 1), BuildingBlock: KIFKEQ_clean_linker_1, # of connection points: 2
#     Edge 25, Type (0, 1), BuildingBlock: KIFKEQ_clean_linker_1, # of connection points: 2
#     Edge 26, Type (0, 1), BuildingBlock: KIFKEQ_clean_linker_1, # of connection points: 2
#     Edge 27, Type (0, 1), BuildingBlock: KIFKEQ_clean_linker_1, # of connection points: 2
#     Edge 28, Type (0, 1), BuildingBlock: KIFKEQ_clean_linker_1, # of connection points: 2
#     Edge 29, Type (0, 1), BuildingBlock: KIFKEQ_clean_linker_1, # of connection points: 2
#     Edge 30, Type (0, 1), BuildingBlock: KIFKEQ_clean_linker_1, # of connection points: 2
#     Edge 31, Type (0, 1), BuildingBlock: KIFKEQ_clean_linker_1, # of connection points: 2
#     Edge 32, Type (0, 1), BuildingBlock: KIFKEQ_clean_linker_1, # of connection points: 2
#     Edge 33, Type (0, 1), BuildingBlock: KIFKEQ_clean_linker_1, # of connection points: 2
#     Edge 34, Type (0, 1), BuildingBlock: KIFKEQ_clean_linker_1, # of connection points: 2
#     Edge 35, Type (0, 1), BuildingBlock: KIFKEQ_clean_linker_1, # of connection points: 2
# Relax obj value: 0.045
# Max RMSD: 0.226
# Mean RMSD: 0.177
data_MOF--net-apo--node1-KUMBOL_clean_sbu_1--node2-CUQRIR_clean_linker_1--edge1-KIFKEQ_clean_linker_1
_symmetry_space_group_name_H-M    P1
_symmetry_Int_Tables_number       1
_symmetry_cell_setting            triclinic
loop_
_symmetry_equiv_pos_as_xyz
'x, y, z'
_cell_length_a     26.484903
_cell_length_b     40.172747
_cell_length_c     47.617689
_cell_angle_alpha  89.95735
_cell_angle_beta   90.162795
_cell_angle_gamma 90.640932
loop_
_atom_site_label
_atom_site_type_symbol
_atom_site_fract_x
_atom_site_fract_y
_atom_site_fract_z
_atom_type_partial_charge
C0 C 0.24754 0.34086 0.42712 0.0
N1 N 0.27812 0.36801 0.42992 0.0
N2 N 0.23339 0.33661 0.39995 0.0
C3 C 0.22869 0.31978 0.45109 0.0
C4 C 0.25644 0.36213 0.3863 0.0
N5 N 0.28323 0.38132 0.40448 0.0
C6 C 0.25406 0.36763 0.35501 0.0
H7 H 0.25576 0.2994 0.45497 0.0
H8 H 0.19131 0.30851 0.44606 0.0
H9 H 0.2256 0.33477 0.47056 0.0
H10 H 0.21943 0.38174 0.34996 0.0
H11 H 0.25219 0.34349 0.34373 0.0
H12 H 0.2869 0.3822 0.34721 0.0
C13 C 0.2378 0.16582 0.92906 0.0
N14 N 0.21259 0.13657 0.93254 0.0
N15 N 0.25369 0.16917 0.90217 0.0
C16 C 0.24985 0.19001 0.95228 0.0
C17 C 0.23749 0.14086 0.88949 0.0
N18 N 0.21307 0.12089 0.908 0.0
C19 C 0.24333 0.13343 0.8587 0.0
H20 H 0.21693 0.20643 0.95541 0.0
H21 H 0.28325 0.20571 0.94708 0.0
H22 H 0.25697 0.17664 0.97228 0.0
H23 H 0.27716 0.11778 0.85578 0.0
H24 H 0.24827 0.15665 0.84633 0.0
H25 H 0.21006 0.11939 0.85058 0.0
C26 C 0.76913 0.18331 0.62643 0.0
N27 N 0.79843 0.15599 0.62395 0.0
N28 N 0.75871 0.18936 0.65372 0.0
C29 C 0.75424 0.20579 0.60257 0.0
C30 C 0.78276 0.16501 0.66783 0.0
N31 N 0.80756 0.145 0.6498 0.0
C32 C 0.77856 0.15922 0.69901 0.0
H33 H 0.7471 0.23143 0.61011 0.0
H34 H 0.71906 0.19595 0.59279 0.0
H35 H 0.78415 0.2067 0.5863 0.0
H36 H 0.74327 0.1699 0.70746 0.0
H37 H 0.81114 0.17142 0.70967 0.0
H38 H 0.77923 0.13224 0.70396 0.0
C39 C 0.74414 0.33643 0.12463 0.0
N40 N 0.71393 0.3631 0.12083 0.0
N41 N 0.75342 0.33149 0.15233 0.0
C42 C 0.76107 0.31368 0.10149 0.0
C43 C 0.72768 0.35603 0.16519 0.0
N44 N 0.70298 0.37483 0.14613 0.0
C45 C 0.72988 0.36333 0.19622 0.0
H46 H 0.76689 0.28804 0.10943 0.0
H47 H 0.79735 0.32325 0.09292 0.0
H48 H 0.73304 0.3129 0.08413 0.0
H49 H 0.76535 0.35403 0.20568 0.0
H50 H 0.69741 0.35088 0.20669 0.0
H51 H 0.72734 0.39048 0.20017 0.0
C52 C 0.75163 0.66019 0.62341 0.0
N53 N 0.71828 0.63448 0.62145 0.0
N54 N 0.76141 0.66755 0.65068 0.0
C55 C 0.77354 0.6787 0.59874 0.0
C56 C 0.73251 0.6455 0.66522 0.0
N57 N 0.70589 0.62559 0.64743 0.0
C58 C 0.73157 0.64319 0.69681 0.0
H59 H 0.78111 0.66155 0.58108 0.0
H60 H 0.80912 0.69183 0.60455 0.0
H61 H 0.74579 0.6973 0.59138 0.0
H62 H 0.73341 0.66843 0.70622 0.0
H63 H 0.76523 0.62933 0.70397 0.0
H64 H 0.69773 0.62996 0.70481 0.0
C65 C 0.75245 0.84233 0.1151 0.0
N66 N 0.78069 0.87051 0.11261 0.0
N67 N 0.73952 0.83707 0.1423 0.0
C68 C 0.74063 0.81908 0.09121 0.0
C69 C 0.76097 0.86302 0.15615 0.0
N70 N 0.78588 0.88334 0.13815 0.0
C71 C 0.75766 0.86854 0.18733 0.0
H72 H 0.71191 0.80004 0.09697 0.0
H73 H 0.77572 0.80626 0.08493 0.0
H74 H 0.72729 0.83352 0.0728 0.0
H75 H 0.79018 0.85635 0.19768 0.0
H76 H 0.72229 0.85755 0.1959 0.0
H77 H 0.75933 0.8955 0.19235 0.0
C78 C 0.23339 0.8292 0.42342 0.0
N79 N 0.20122 0.85515 0.42544 0.0
N80 N 0.24445 0.82298 0.39623 0.0
C81 C 0.25362 0.80966 0.4479 0.0
C82 C 0.21753 0.84564 0.3817 0.0
N83 N 0.19063 0.86489 0.3994 0.0
C84 C 0.21789 0.84935 0.35021 0.0
H85 H 0.26679 0.78476 0.44139 0.0
H86 H 0.22431 0.80665 0.46434 0.0
H87 H 0.28621 0.82339 0.45714 0.0
H88 H 0.18146 0.83997 0.34163 0.0
H89 H 0.24868 0.8352 0.34026 0.0
H90 H 0.22163 0.87604 0.34443 0.0
C91 C 0.26353 0.67965 0.92253 0.0
N92 N 0.29089 0.65168 0.92658 0.0
N93 N 0.24965 0.68252 0.89523 0.0
C94 C 0.25459 0.70582 0.94451 0.0
C95 C 0.26969 0.65548 0.88279 0.0
N96 N 0.29514 0.63701 0.90172 0.0
C97 C 0.26226 0.64607 0.85243 0.0
H98 H 0.21917 0.69973 0.95588 0.0
H99 H 0.25066 0.73077 0.9348 0.0
H100 H 0.28606 0.70668 0.95994 0.0
H101 H 0.29386 0.65667 0.83993 0.0
H102 H 0.22622 0.65595 0.84414 0.0
H103 H 0.26232 0.61863 0.84976 0.0
C104 C 0.8386 0.07886 0.28267 0.0
C105 C 0.83316 0.01945 0.29191 0.0
C106 C 0.85984 0.04996 0.2931 0.0
C107 C 0.78549 0.01814 0.27895 0.0
C108 C 0.78971 0.07791 0.27084 0.0
C109 C 0.76384 0.0473 0.2684 0.0
N110 N 0.86433 0.10814 0.28575 0.0
C111 C 0.8409 0.13757 0.28032 0.0
C112 C 0.76752 0.1079 0.26279 0.0
C113 C 0.79286 0.13791 0.26808 0.0
Gd114 Gd 0.05339 0.10843 0.24346 0.0
Gd115 Gd 0.94642 0.10422 0.3047 0.0
N116 N 0.9065 0.05186 0.30495 0.0
C117 C 0.85485 0.99135 0.30428 0.0
C118 C 0.9266 0.02511 0.3185 0.0
C119 C 0.90142 0.99432 0.31802 0.0
H120 H 0.96244 0.02755 0.32922 0.0
H121 H 0.91794 0.97293 0.32819 0.0
H122 H 0.02011 0.17918 0.20948 0.0
H123 H 0.85852 0.1609 0.286 0.0
H124 H 0.05239 0.23634 0.20396 0.0
H125 H 0.8355 0.96745 0.30386 0.0
H126 H 0.76459 0.99486 0.27754 0.0
H127 H 0.14707 0.06493 0.27195 0.0
H128 H 0.73003 0.10825 0.25363 0.0
H129 H 0.77503 0.16134 0.26322 0.0
H130 H 0.21558 0.23457 0.2478 0.0
H131 H 0.72647 0.04606 0.25912 0.0
H132 H 0.27308 0.13077 0.28514 0.0
H133 H 0.23417 0.07465 0.28888 0.0
N134 N 0.13632 0.11523 0.25966 0.0
C135 C 0.15758 0.1459 0.25635 0.0
C136 C 0.1634 0.08961 0.2706 0.0
C137 C 0.23479 0.12666 0.27774 0.0
C138 C 0.21289 0.09497 0.27999 0.0
C139 C 0.20723 0.15258 0.26568 0.0
H140 H 0.26559 0.19049 0.27002 0.0
N141 N 0.08183 0.16319 0.23455 0.0
C142 C 0.12922 0.17074 0.24386 0.0
C143 C 0.12141 0.22698 0.22649 0.0
C144 C 0.15008 0.20293 0.24032 0.0
C145 C 0.05522 0.18595 0.21942 0.0
C146 C 0.07407 0.21829 0.21563 0.0
O147 O 0.95425 0.06265 0.27274 0.0
O148 O 0.97344 0.093 0.23413 0.0
O149 O 0.07582 0.1137 0.19983 0.0
O150 O 0.07927 0.06545 0.22011 0.0
O151 O 0.02334 0.08345 0.31357 0.0
O152 O 0.05309 0.0625 0.2716 0.0
O153 O 0.07096 0.1298 0.28657 0.0
O154 O 0.99518 0.15065 0.30165 0.0
O155 O 0.96432 0.0974 0.34889 0.0
O156 O 0.89431 0.12036 0.33694 0.0
O157 O 0.97936 0.13467 0.23495 0.0
O158 O 0.94645 0.15113 0.27787 0.0
C159 C 0.95325 0.06651 0.24545 0.0
C160 C 0.04778 0.06089 0.29919 0.0
C161 C 0.13342 0.07524 0.18082 0.0
C162 C 0.17436 0.07338 0.13487 0.0
C163 C 0.21664 0.05124 0.17617 0.0
C164 C 0.17557 0.0599 0.19292 0.0
C165 C 0.21596 0.05765 0.1473 0.0
C166 C 0.13332 0.08227 0.15186 0.0
C167 C 0.08783 0.08256 0.19727 0.0
C168 C 0.19911 0.20992 0.25018 0.0
C169 C 0.22765 0.1848 0.26277 0.0
H170 H 0.13606 0.25199 0.22335 0.0
C171 C 0.04478 0.15214 0.30027 0.0
C172 C 0.95162 0.15466 0.25043 0.0
C173 C 0.93136 0.13733 0.37964 0.0
C174 C 0.92709 0.15297 0.42922 0.0
C175 C 0.95403 0.19341 0.39389 0.0
C176 C 0.94774 0.1696 0.37284 0.0
C177 C 0.94351 0.18532 0.42183 0.0
C178 C 0.92158 0.12899 0.40776 0.0
C179 C 0.92391 0.11221 0.3576 0.0
H180 H 0.249 0.03929 0.18557 0.0
H181 H 0.17656 0.05427 0.21515 0.0
H182 H 0.24817 0.05069 0.13471 0.0
H183 H 0.10064 0.09391 0.1424 0.0
H184 H 0.96642 0.21837 0.38849 0.0
H185 H 0.95512 0.17636 0.35124 0.0
H186 H 0.94718 0.20472 0.43749 0.0
H187 H 0.90972 0.10379 0.4128 0.0
C188 C 0.62367 0.45836 0.79699 0.0
C189 C 0.59724 0.50875 0.82031 0.0
C190 C 0.58891 0.47507 0.81322 0.0
C191 C 0.63953 0.52577 0.80941 0.0
C192 C 0.66766 0.47469 0.78734 0.0
C193 C 0.67475 0.50874 0.793 0.0
N194 N 0.61539 0.42559 0.79166 0.0
C195 C 0.65138 0.40684 0.77896 0.0
C196 C 0.70374 0.45604 0.77296 0.0
C197 C 0.69592 0.42184 0.76916 0.0
Gd198 Gd 0.4307 0.39288 0.74779 0.0
Gd199 Gd 0.53955 0.40239 0.80811 0.0
N200 N 0.54917 0.45762 0.82391 0.0
C201 C 0.56406 0.52385 0.83912 0.0
C202 C 0.52002 0.47122 0.84438 0.0
C203 C 0.5259 0.50477 0.85168 0.0
H204 H 0.49261 0.45609 0.85538 0.0
H205 H 0.50158 0.51571 0.86731 0.0
H206 H 0.44877 0.3175 0.72167 0.0
H207 H 0.64515 0.38044 0.77598 0.0
H208 H 0.40793 0.26161 0.72321 0.0
H209 H 0.56903 0.54971 0.84509 0.0
H210 H 0.64626 0.55176 0.81436 0.0
H211 H 0.34124 0.44667 0.77068 0.0
H212 H 0.73815 0.46763 0.76526 0.0
H213 H 0.72401 0.40708 0.75858 0.0
H214 H 0.261 0.2776 0.7805 0.0
H215 H 0.70798 0.52188 0.78545 0.0
H216 H 0.22178 0.38924 0.8074 0.0
H217 H 0.26118 0.44385 0.79661 0.0
N218 N 0.3509 0.39403 0.76976 0.0
C219 C 0.32788 0.36393 0.77353 0.0
C220 C 0.32608 0.42259 0.77647 0.0
C221 C 0.25779 0.39027 0.79667 0.0
C222 C 0.27997 0.42114 0.79068 0.0
C223 C 0.28098 0.36119 0.78736 0.0
H224 H 0.22215 0.32712 0.80137 0.0
N225 N 0.39421 0.33957 0.74816 0.0
C226 C 0.34963 0.33597 0.76185 0.0
C227 C 0.347 0.27756 0.74978 0.0
C228 C 0.32528 0.30466 0.76355 0.0
C229 C 0.41435 0.31376 0.73348 0.0
C230 C 0.39135 0.28226 0.73433 0.0
O231 O 0.55284 0.42319 0.76409 0.0
O232 O 0.47456 0.44109 0.75059 0.0
O233 O 0.44706 0.39056 0.70306 0.0
O234 O 0.37304 0.40478 0.71699 0.0
O235 O 0.46013 0.41936 0.81754 0.0
O236 O 0.43015 0.4392 0.77531 0.0
O237 O 0.44988 0.35104 0.77791 0.0
O238 O 0.46447 0.37874 0.81885 0.0
O239 O 0.57211 0.40346 0.85053 0.0
O240 O 0.57554 0.35839 0.82486 0.0
O241 O 0.50708 0.37237 0.73634 0.0
O242 O 0.5487 0.35931 0.77814 0.0
C243 C 0.52397 0.44328 0.74942 0.0
C244 C 0.43327 0.44059 0.80294 0.0
C245 C 0.40033 0.4257 0.67316 0.0
C246 C 0.38756 0.43905 0.62338 0.0
C247 C 0.39985 0.48324 0.65802 0.0
C248 C 0.40409 0.45968 0.67942 0.0
C249 C 0.39123 0.47313 0.6303 0.0
C250 C 0.39283 0.41549 0.64521 0.0
C251 C 0.40249 0.40048 0.69554 0.0
C252 C 0.2799 0.30155 0.77854 0.0
C253 C 0.25786 0.32974 0.79049 0.0
H254 H 0.32943 0.2531 0.75056 0.0
C255 C 0.44605 0.35296 0.80529 0.0
C256 C 0.5416 0.35612 0.7508 0.0
C257 C 0.61325 0.35496 0.87137 0.0
C258 C 0.63565 0.34808 0.92089 0.0
C259 C 0.66006 0.30647 0.88662 0.0
C260 C 0.63713 0.32475 0.86531 0.0
C261 C 0.65905 0.31787 0.91425 0.0
C262 C 0.61334 0.36688 0.89925 0.0
C263 C 0.58623 0.37263 0.84871 0.0
H264 H 0.40242 0.50949 0.66299 0.0
H265 H 0.40961 0.46792 0.70087 0.0
H266 H 0.38635 0.49218 0.61447 0.0
H267 H 0.39103 0.38909 0.64065 0.0
H268 H 0.67829 0.28321 0.88174 0.0
H269 H 0.63779 0.31506 0.84409 0.0
H270 H 0.67684 0.30313 0.93049 0.0
H271 H 0.59467 0.38999 0.90428 0.0
C272 C 0.84182 0.84836 0.7877 0.0
C273 C 0.85882 0.79379 0.80698 0.0
C274 C 0.87319 0.8273 0.80261 0.0
C275 C 0.81363 0.78155 0.79513 0.0
C276 C 0.7955 0.83659 0.7767 0.0
C277 C 0.78198 0.80293 0.78009 0.0
N278 N 0.85658 0.88055 0.78408 0.0
C279 C 0.82553 0.90292 0.77141 0.0
C280 C 0.76415 0.85908 0.76272 0.0
C281 C 0.77903 0.89247 0.76031 0.0
Gd282 Gd 0.04604 0.9046 0.74455 0.0
Gd283 Gd 0.93493 0.89607 0.80303 0.0
N284 N 0.91642 0.84001 0.81401 0.0
C285 C 0.88951 0.77383 0.82384 0.0
C286 C 0.94405 0.82139 0.83234 0.0
C287 C 0.93181 0.78789 0.83698 0.0
H288 H 0.97489 0.83237 0.844 0.0
H289 H 0.95454 0.77309 0.85108 0.0
H290 H 0.02869 0.98231 0.7225 0.0
H291 H 0.83692 0.92874 0.76965 0.0
H292 H 0.06946 0.03784 0.72792 0.0
H293 H 0.87982 0.74796 0.8277 0.0
H294 H 0.80225 0.75579 0.79804 0.0
H295 H 0.13488 0.84889 0.7634 0.0
H296 H 0.72824 0.85102 0.75397 0.0
H297 H 0.75474 0.91013 0.74989 0.0
H298 H 0.2175 0.01617 0.78342 0.0
H299 H 0.74683 0.79329 0.77149 0.0
H300 H 0.2562 0.90217 0.80304 0.0
H301 H 0.21567 0.84881 0.78923 0.0
N302 N 0.1264 0.90138 0.76568 0.0
C303 C 0.14995 0.93095 0.77106 0.0
C304 C 0.15075 0.87219 0.77064 0.0
C305 C 0.22 0.90227 0.79238 0.0
C306 C 0.19719 0.87211 0.7847 0.0
C307 C 0.19709 0.93224 0.78488 0.0
H308 H 0.25647 0.96473 0.80081 0.0
N309 N 0.08335 0.9577 0.74746 0.0
C310 C 0.12828 0.95994 0.76117 0.0
C311 C 0.13073 0.01932 0.75321 0.0
C312 C 0.15272 0.99094 0.76495 0.0
C313 C 0.06316 0.98485 0.73453 0.0
C314 C 0.08616 0.01617 0.73756 0.0
O315 O 0.92271 0.87695 0.75866 0.0
O316 O -0.00014 0.85692 0.74547 0.0
O317 O 0.03138 0.9119 0.70004 0.0
O318 O 0.10198 0.89097 0.71346 0.0
O319 O 0.01108 0.87343 0.81313 0.0
O320 O 0.04525 0.85725 0.77058 0.0
O321 O 0.0309 0.94445 0.77724 0.0
O322 O 0.0118 0.91458 0.81639 0.0
O323 O 0.90059 0.89144 0.84438 0.0
O324 O 0.902 0.93903 0.82333 0.0
O325 O 0.96966 0.92454 0.73328 0.0
O326 O 0.93274 0.94195 0.77484 0.0
C327 C 0.95028 0.85484 0.7456 0.0
C328 C 0.04017 0.85397 0.798 0.0
C329 C 0.06859 0.87269 0.67019 0.0
C330 C 0.07459 0.85674 0.6207 0.0
C331 C 0.05075 0.81576 0.65628 0.0
C332 C 0.05468 0.83996 0.67716 0.0
C333 C 0.06092 0.82393 0.62833 0.0
C334 C 0.07804 0.88108 0.64202 0.0
C335 C 0.07325 0.89821 0.69218 0.0
C336 C 0.19844 0.99252 0.77994 0.0
C337 C 0.22055 0.96323 0.78991 0.0
H338 H 0.14834 0.04362 0.75564 0.0
C339 C 0.03462 0.93983 0.8044 0.0
C340 C 0.94095 0.94495 0.74753 0.0
C341 C 0.9133 0.93881 0.87286 0.0
C342 C 0.91527 0.94187 0.92426 0.0
C343 C 0.97273 0.97604 0.89639 0.0
C344 C 0.95232 0.96278 0.87174 0.0
C345 C 0.95454 0.96563 0.92248 0.0
C346 C 0.89465 0.92863 0.89923 0.0
C347 C 0.89348 0.92327 0.84682 0.0
H348 H 0.04034 0.79047 0.66181 0.0
H349 H 0.04727 0.8331 0.69876 0.0
H350 H 0.05903 0.80426 0.61282 0.0
H351 H 0.08783 0.90661 0.63682 0.0
H352 H 0.00286 0.99443 0.89528 0.0
H353 H 0.96727 0.97121 0.85181 0.0
H354 H 0.97082 0.97651 0.94129 0.0
H355 H 0.86491 0.90991 0.90024 0.0
C356 C 0.67404 0.63893 0.28377 0.0
C357 C 0.67352 0.69932 0.28638 0.0
C358 C 0.64886 0.6683 0.28982 0.0
C359 C 0.72357 0.70044 0.27672 0.0
C360 C 0.72429 0.64 0.27409 0.0
C361 C 0.74888 0.67088 0.27062 0.0
N362 N 0.64889 0.60941 0.28655 0.0
C363 C 0.67197 0.58004 0.28072 0.0
C364 C 0.74813 0.60997 0.26784 0.0
C365 C 0.72189 0.57987 0.27126 0.0
Gd366 Gd 0.45024 0.61097 0.24592 0.0
Gd367 Gd 0.56523 0.6125 0.30186 0.0
N368 N 0.59969 0.66652 0.29811 0.0
C369 C 0.64702 0.72833 0.29259 0.0
C370 C 0.57463 0.69462 0.30556 0.0
C371 C 0.59757 0.72593 0.30253 0.0
H372 H 0.53735 0.69313 0.31429 0.0
H373 H 0.57721 0.74818 0.30807 0.0
H374 H 0.47105 0.52956 0.23463 0.0
H375 H 0.6521 0.55668 0.28368 0.0
H376 H 0.42471 0.47632 0.239 0.0
H377 H 0.66461 0.75264 0.29017 0.0
H378 H 0.74301 0.72407 0.27383 0.0
H379 H 0.36819 0.67079 0.26232 0.0
H380 H 0.78673 0.60974 0.26037 0.0
H381 H 0.74012 0.55654 0.26662 0.0
H382 H 0.25957 0.50782 0.26979 0.0
H383 H 0.78743 0.67218 0.26311 0.0
H384 H 0.22766 0.62383 0.2839 0.0
H385 H 0.27985 0.67488 0.27839 0.0
N386 N 0.36658 0.61798 0.2602 0.0
C387 C 0.3383 0.58964 0.26245 0.0
C388 C 0.34611 0.64835 0.26542 0.0
C389 C 0.26654 0.62188 0.27714 0.0
C390 C 0.29592 0.65076 0.27414 0.0
C391 C 0.28752 0.59084 0.27115 0.0
H392 H 0.22037 0.56156 0.28044 0.0
N393 N 0.41014 0.55875 0.2491 0.0
C394 C 0.36048 0.55921 0.25643 0.0
C395 C 0.35603 0.49925 0.25291 0.0
C396 C 0.33232 0.52938 0.25896 0.0
C397 C 0.43281 0.52964 0.24208 0.0
C398 C 0.40635 0.49943 0.24422 0.0
O399 O 0.57752 0.63436 0.25829 0.0
O400 O 0.50103 0.65642 0.24597 0.0
O401 O 0.45845 0.59818 0.20182 0.0
O402 O 0.40093 0.63277 0.21464 0.0
O403 O 0.49022 0.63572 0.31347 0.0
O404 O 0.45931 0.65705 0.27203 0.0
O405 O 0.43825 0.58513 0.28803 0.0
O406 O 0.51608 0.56638 0.30257 0.0
O407 O 0.56309 0.62742 0.3457 0.0
O408 O 0.61435 0.58912 0.33265 0.0
O409 O 0.52313 0.58559 0.23462 0.0
O410 O 0.55979 0.56575 0.27552 0.0
C411 C 0.55045 0.6558 0.24407 0.0
C412 C 0.46129 0.65649 0.29957 0.0
C413 C 0.43668 0.64049 0.16984 0.0
C414 C 0.43405 0.65203 0.11938 0.0
C415 C 0.47207 0.69209 0.15186 0.0
C416 C 0.46096 0.67116 0.17441 0.0
C417 C 0.45843 0.68282 0.12459 0.0
C418 C 0.42386 0.63081 0.14237 0.0
C419 C 0.42359 0.6187 0.19361 0.0
C420 C 0.28173 0.53051 0.26764 0.0
C421 C 0.25941 0.56113 0.27372 0.0
H422 H 0.33571 0.47578 0.25466 0.0
C423 C 0.46653 0.56466 0.30267 0.0
C424 C 0.55239 0.56466 0.2481 0.0
C425 C 0.58149 0.58564 0.3787 0.0
C426 C 0.58421 0.57592 0.42949 0.0
C427 C 0.53373 0.53984 0.3991 0.0
C428 C 0.54865 0.55837 0.37574 0.0
C429 C 0.55137 0.54846 0.42578 0.0
C430 C 0.59927 0.59445 0.40562 0.0
C431 C 0.59584 0.60543 0.35381 0.0
H432 H 0.49054 0.71587 0.15557 0.0
H433 H 0.47063 0.67904 0.19545 0.0
H434 H 0.46591 0.70027 0.10774 0.0
H435 H 0.40578 0.6068 0.13908 0.0
H436 H 0.50845 0.5187 0.39651 0.0
H437 H 0.53469 0.55158 0.35529 0.0
H438 H 0.53974 0.53329 0.44348 0.0
H439 H 0.62403 0.61593 0.40795 0.0
H440 H 0.10836 0.86483 0.36636 0.0
H441 H 0.20959 0.92877 0.4129 0.0
H442 H 0.07257 0.91332 0.34264 0.0
H443 H 0.17385 0.97765 0.38947 0.0
H444 H 0.0661 0.05805 0.35546 0.0
H445 H 0.09568 0.01085 0.38278 0.0
H446 H 0.10795 0.95291 0.30682 0.0
H447 H 0.07786 1.00023 0.2793 0.0
C448 C 0.12199 0.88948 0.37189 0.0
C449 C 0.16164 0.89335 0.39123 0.0
C450 C 0.10203 0.91712 0.35817 0.0
C451 C 0.12114 0.94921 0.36377 0.0
C452 C 0.15838 0.95323 0.3847 0.0
C453 C 0.17856 0.92544 0.39828 0.0
C454 C 0.07528 0.0353 0.34449 0.0
C455 C 0.06956 0.03285 0.31515 0.0
C456 C 0.09236 0.0083 0.36021 0.0
C457 C 0.10373 0.97811 0.34701 0.0
C458 C 0.09873 0.97575 0.31762 0.0
C459 C 0.08204 1.00292 0.30182 0.0
H460 H 0.26348 0.57446 0.91179 0.0
H461 H 0.38336 0.63292 0.87524 0.0
H462 H 0.29542 0.52447 0.88845 0.0
H463 H 0.41664 0.58327 0.85238 0.0
H464 H 0.41678 0.50388 0.78499 0.0
H465 H 0.38576 0.55039 0.81283 0.0
H466 H 0.36404 0.48459 0.88373 0.0
H467 H 0.39378 0.43799 0.85554 0.0
C468 C 0.29796 0.5761 0.89968 0.0
C469 C 0.32159 0.60704 0.8954 0.0
C470 C 0.31605 0.54773 0.88613 0.0
C471 C 0.35797 0.55008 0.86808 0.0
C472 C 0.38356 0.58079 0.86558 0.0
C473 C 0.3653 0.60902 0.879 0.0
C474 C 0.40447 0.49934 0.80634 0.0
C475 C 0.40805 0.46755 0.81825 0.0
C476 C 0.38747 0.52599 0.82245 0.0
C477 C 0.37347 0.52129 0.8507 0.0
C478 C 0.37465 0.48906 0.86209 0.0
C479 C 0.39169 0.46243 0.84599 0.0
H480 H 0.61783 0.6303 0.67487 0.0
H481 H 0.71959 0.56039 0.63769 0.0
H482 H 0.57068 0.58477 0.69682 0.0
H483 H 0.67113 0.51408 0.65818 0.0
H484 H 0.62155 0.44659 0.73084 0.0
H485 H 0.66116 0.48985 0.70257 0.0
H486 H 0.51711 0.53865 0.69434 0.0
H487 H 0.4789 0.49688 0.72482 0.0
C488 C 0.62902 0.6049 0.67085 0.0
C489 C 0.67251 0.59861 0.65514 0.0
C490 C 0.60199 0.57871 0.68327 0.0
C491 C 0.6174 0.54551 0.67975 0.0
C492 C 0.65887 0.53927 0.66206 0.0
C493 C 0.68625 0.56562 0.64996 0.0
C494 C 0.59862 0.46688 0.72346 0.0
C495 C 0.54737 0.46859 0.73067 0.0
C496 C 0.62107 0.49143 0.70664 0.0
C497 C 0.59253 0.51803 0.69602 0.0
C498 C 0.5407 0.51901 0.70246 0.0
C499 C 0.51854 0.49477 0.71973 0.0
H500 H 0.76553 0.9484 0.13243 0.0
H501 H 0.87558 0.87959 0.16363 0.0
H502 H 0.8098 0.99437 0.1564 0.0
H503 H 0.92057 0.92514 0.18744 0.0
H504 H 0.93494 1.00143 0.25872 0.0
H505 H 0.89844 0.95822 0.22885 0.0
H506 H 0.88854 0.02842 0.16034 0.0
H507 H 0.92387 0.07202 0.19063 0.0
C508 C 0.80033 0.94352 0.1436 0.0
C509 C 0.8178 0.91087 0.1461 0.0
C510 C 0.82552 0.96963 0.15743 0.0
C511 C 0.86832 0.9633 0.17415 0.0
C512 C 0.88726 0.93075 0.17514 0.0
C513 C 0.86212 0.9048 0.16129 0.0
C514 C 0.92452 0.00774 0.23741 0.0
C515 C 0.93177 0.04018 0.22716 0.0
C516 C 0.90427 0.98286 0.22013 0.0
C517 C 0.89091 0.98983 0.19212 0.0
C518 C 0.89822 0.02232 0.18184 0.0
C519 C 0.91868 0.04721 0.19915 0.0
H520 H 0.78671 0.08197 0.63408 0.0
H521 H 0.88768 0.14231 0.68409 0.0
H522 H 0.81921 0.03156 0.65678 0.0
H523 H 0.92021 0.09235 0.70702 0.0
H524 H 0.90752 1.00429 0.7682 0.0
H525 H 0.8791 0.0524 0.74113 0.0
H526 H 0.89725 0.99704 0.66419 0.0
H527 H 0.92535 0.94901 0.6911 0.0
C528 C 0.81703 0.08419 0.64929 0.0
C529 C 0.83483 0.11567 0.65753 0.0
C530 C 0.83531 0.05554 0.66245 0.0
C531 C 0.87141 0.05817 0.68411 0.0
C532 C 0.89156 0.08965 0.69087 0.0
C533 C 0.87355 0.11811 0.67759 0.0
C534 C 0.9048 1.00229 0.74556 0.0
C535 C 0.91874 0.97294 0.7318 0.0
C536 C 0.88911 0.02989 0.73004 0.0
C537 C 0.88655 0.02852 0.70052 0.0
C538 C 0.89883 0.99879 0.68688 0.0
C539 C 0.91501 0.97135 0.70234 0.0
H540 H 0.7207 0.43891 0.13251 0.0
H541 H 0.61796 0.37339 0.17616 0.0
H542 H 0.68281 0.48711 0.15588 0.0
H543 H 0.58005 0.4211 0.19971 0.0
H544 H 0.5869 0.50429 0.2661 0.0
H545 H 0.6185 0.45888 0.23705 0.0
H546 H 0.60151 0.51968 0.16289 0.0
H547 H 0.57004 0.56504 0.1918 0.0
C548 C 0.68867 0.43512 0.14628 0.0
C549 C 0.67193 0.4028 0.15266 0.0
C550 C 0.66736 0.46249 0.15985 0.0
C551 C 0.62932 0.45768 0.18009 0.0
C552 C 0.61004 0.42544 0.18467 0.0
C553 C 0.63106 0.39828 0.17097 0.0
C554 C 0.59042 0.50805 0.24366 0.0
C555 C 0.57587 0.53814 0.23125 0.0
C556 C 0.60796 0.48199 0.227 0.0
C557 C 0.61182 0.48569 0.19767 0.0
C558 C 0.59885 0.51616 0.1854 0.0
C559 C 0.58075 0.54204 0.20199 0.0
H560 H 0.26038 0.44622 0.40623 0.0
H561 H 0.37576 0.37743 0.3826 0.0
H562 H 0.30813 0.49188 0.38514 0.0
H563 H 0.42129 0.42163 0.35826 0.0
H564 H 0.5088 0.50845 0.32463 0.0
H565 H 0.46953 0.46701 0.35453 0.0
H566 H 0.32574 0.51599 0.34408 0.0
H567 H 0.36709 0.5599 0.31778 0.0
C568 C 0.29684 0.44122 0.39703 0.0
C569 C 0.31549 0.40879 0.39675 0.0
C570 C 0.3237 0.46714 0.38409 0.0
C571 C 0.36866 0.46086 0.36924 0.0
C572 C 0.38769 0.42817 0.36975 0.0
C573 C 0.3617 0.40261 0.38368 0.0
C574 C 0.46902 0.51079 0.32936 0.0
C575 C 0.44142 0.53793 0.31922 0.0
C576 C 0.44601 0.4865 0.34617 0.0
C577 C 0.39398 0.48768 0.35221 0.0
C578 C 0.36607 0.51434 0.34102 0.0
C579 C 0.38964 0.53937 0.32523 0.0
H580 H 0.11274 0.11432 0.90352 0.0
H581 H 0.25228 0.06161 0.89469 0.0
H582 H 0.06708 0.06824 0.88035 0.0
H583 H 0.20689 0.015 0.87208 0.0
H584 H 0.08808 0.92906 0.85237 0.0
H585 H 0.13021 0.97085 0.88222 0.0
H586 H 0.07958 0.04858 0.82662 0.0
H587 H 0.03829 0.00689 0.79662 0.0
C588 C 0.13309 0.09222 0.8975 0.0
C589 C 0.18557 0.091 0.90102 0.0
C590 C 0.1073 0.06615 0.88404 0.0
C591 C 0.13363 0.03825 0.87434 0.0
C592 C 0.18575 0.03615 0.87954 0.0
C593 C 0.21161 0.06255 0.89252 0.0
C594 C 0.08609 0.95511 0.8466 0.0
C595 C 0.06033 0.96486 0.82216 0.0
C596 C 0.11015 0.9789 0.8636 0.0
C597 C 0.1077 0.01285 0.85679 0.0
C598 C 0.08151 0.02256 0.83248 0.0
C599 C 0.05836 0.99875 0.8152 0.0
H600 H 0.13939 0.15873 0.96659 0.0
H601 H 0.25294 0.0838 0.95817 0.0
H602 H 0.1229 0.14063 1.01482 0.0
H603 H 0.23949 0.06658 1.00676 0.0
H604 H 0.19159 0.03006 0.0919 0.0
H605 H 0.19213 0.0417 0.04161 0.0
H606 H 0.15894 0.14491 0.05885 0.0
H607 H 0.15563 0.13247 0.10887 0.0
C608 C 0.16023 0.13801 0.97516 0.0
C609 C 0.19707 0.1224 0.95892 0.0
C610 C 0.1515 0.12788 1.00288 0.0
C611 C 0.18036 0.10237 1.01517 0.0
C612 C 0.21587 0.08594 0.99822 0.0
C613 C 0.22379 0.09572 0.97035 0.0
C614 C 0.18416 0.05516 0.08478 0.0
C615 C 0.17373 0.08039 0.10424 0.0
C616 C 0.1847 0.06195 0.05593 0.0
C617 C 0.17583 0.09436 0.04582 0.0
C618 C 0.16492 0.11949 0.0655 0.0
C619 C 0.16341 0.1125 0.09429 0.0
H620 H 0.3364 0.3325 0.46514 0.0
H621 H 0.27119 0.42924 0.45322 0.0
H622 H 0.36703 0.34956 0.51171 0.0
H623 H 0.30429 0.44706 0.49894 0.0
H624 H 0.4169 0.46937 0.57378 0.0
H625 H 0.39458 0.45333 0.52585 0.0
H626 H 0.31389 0.36739 0.5573 0.0
H627 H 0.33297 0.3842 0.60528 0.0
C628 C 0.32951 0.35761 0.4723 0.0
C629 C 0.30183 0.37967 0.45549 0.0
C630 C 0.34699 0.36735 0.49884 0.0
C631 C 0.33804 0.39962 0.50886 0.0
C632 C 0.31223 0.42217 0.49156 0.0
C633 C 0.29378 0.41213 0.46526 0.0
C634 C 0.39378 0.44729 0.57069 0.0
C635 C 0.37672 0.42827 0.59379 0.0
C636 C 0.3814 0.43802 0.54314 0.0
C637 C 0.35273 0.40908 0.53792 0.0
C638 C 0.33662 0.38961 0.56075 0.0
C639 C 0.34797 0.39923 0.58831 0.0
H640 H 0.61716 0.35947 0.10379 0.0
H641 H 0.7664 0.3896 0.07816 0.0
H642 H 0.58753 0.36403 0.05499 0.0
H643 H 0.73755 0.39431 0.02945 0.0
H644 H 0.67025 0.4069 0.94322 0.0
H645 H 0.68089 0.42029 0.99326 0.0
H646 H 0.60992 0.32655 1.01523 0.0
H647 H 0.59965 0.31336 0.96556 0.0
C648 C 0.64297 0.36831 0.08777 0.0
C649 C 0.69383 0.37429 0.09443 0.0
C650 C 0.62633 0.37063 0.05988 0.0
C651 C 0.66032 0.37925 0.03829 0.0
C652 C 0.71027 0.38793 0.04553 0.0
C653 C 0.72689 0.38525 0.07333 0.0
C654 C 0.65591 0.38964 0.95885 0.0
C655 C 0.63446 0.35902 0.95063 0.0
C656 C 0.66219 0.39718 0.98743 0.0
C657 C 0.64632 0.37446 1.00823 0.0
C658 C 0.62202 0.34479 0.99983 0.0
C659 C 0.61646 0.33709 0.97138 0.0
H660 H 0.8969 0.14612 0.61254 0.0
H661 H 0.74735 0.13842 0.57742 0.0
H662 H 0.93327 0.13646 0.56605 0.0
H663 H 0.78262 0.13096 0.53079 0.0
H664 H 0.85162 0.11133 0.44862 0.0
H665 H 0.82596 0.10165 0.49683 0.0
H666 H 0.94396 0.16873 0.52557 0.0
H667 H 0.97238 0.17606 0.4776 0.0
C668 C 0.87194 0.1416 0.59487 0.0
C669 C 0.8195 0.14337 0.59828 0.0
C670 C 0.89259 0.13662 0.56816 0.0
C671 C 0.86105 0.13362 0.54435 0.0
C672 C 0.80839 0.13291 0.54841 0.0
C673 C 0.78797 0.13746 0.57509 0.0
C674 C 0.87313 0.1233 0.46521 0.0
C675 C 0.91383 0.14487 0.45896 0.0
C676 C 0.85785 0.1181 0.49298 0.0
C677 C 0.88223 0.13475 0.5153 0.0
C678 C 0.92432 0.15516 0.50914 0.0
C679 C 0.9401 0.15993 0.48141 0.0
H680 H 0.86077 0.84523 0.08597 0.0
H681 H 0.75066 0.92299 0.08219 0.0
H682 H 0.89449 0.86271 0.04022 0.0
H683 H 0.78404 0.94097 0.03644 0.0
H684 H 0.81705 0.93399 0.9412 0.0
H685 H 0.78616 0.91794 0.98771 0.0
H686 H 0.93982 0.90986 1.01727 0.0
H687 H 0.97063 0.92544 0.97073 0.0
C688 C 0.84448 0.86642 0.07536 0.0
C689 C 0.80365 0.88306 0.08736 0.0
C690 C 0.86361 0.87647 0.04929 0.0
C691 C 0.84178 0.90315 0.03461 0.0
C692 C 0.80132 0.92011 0.04704 0.0
C693 C 0.78256 0.91017 0.07325 0.0
C694 C 0.84418 0.92852 0.95758 0.0
C695 C 0.89627 0.93104 0.95227 0.0
C696 C 0.82652 0.91969 0.9843 0.0
C697 C 0.86054 0.9128 1.00625 0.0
C698 C 0.91262 0.91486 1.00081 0.0
C699 C 0.93026 0.92401 0.97419 0.0
H700 H 0.76363 0.59685 0.58258 0.0
H701 H 0.62384 0.64445 0.60297 0.0
H702 H 0.73013 0.58161 0.53623 0.0
H703 H 0.58994 0.63015 0.55647 0.0
H704 H 0.53087 0.5752 0.47878 0.0
H705 H 0.5619 0.58606 0.5261 0.0
H706 H 0.7098 0.60889 0.49272 0.0
H707 H 0.67928 0.59651 0.44546 0.0
C708 C 0.72541 0.60363 0.57704 0.0
C709 C 0.69609 0.6217 0.596 0.0
C710 C 0.70635 0.59533 0.5505 0.0
C711 C 0.6575 0.60503 0.54237 0.0
C712 C 0.62753 0.62204 0.56199 0.0
C713 C 0.6467 0.63024 0.58858 0.0
C714 C 0.57016 0.58225 0.48152 0.0
C715 C 0.60263 0.58474 0.45823 0.0
C716 C 0.58783 0.58883 0.5087 0.0
C717 C 0.63848 0.59818 0.51336 0.0
C718 C 0.67078 0.6012 0.49003 0.0
C719 C 0.65309 0.59457 0.46283 0.0
H720 H 0.38848 0.63668 0.9371 0.0
H721 H 0.24162 0.64252 0.97513 0.0
H722 H 0.42656 0.6275 0.9833 0.0
H723 H 0.27905 0.63603 1.02139 0.0
H724 H 0.34931 0.61645 0.10317 0.0
H725 H 0.31853 0.60609 0.056 0.0
H726 H 0.44724 0.65961 1.02219 0.0
H727 H 0.48056 0.66701 0.06919 0.0
C728 C 0.36434 0.63535 0.95538 0.0
C729 C 0.3123 0.64058 0.95276 0.0
C730 C 0.3861 0.63068 0.98194 0.0
C731 C 0.35622 0.63161 1.00641 0.0
C732 C 0.30359 0.63478 1.0033 0.0
C733 C 0.28197 0.63889 0.97679 0.0
C734 C 0.372 0.62516 0.08573 0.0
C735 C 0.41728 0.64306 0.09029 0.0
C736 C 0.35377 0.61967 0.05851 0.0
C737 C 0.37967 0.63252 0.03502 0.0
C738 C 0.42613 0.64906 0.03953 0.0
C739 C 0.44486 0.65394 0.06672 0.0
H740 H 0.25087 0.87724 0.47124 0.0
H741 H 0.10208 0.86054 0.4372 0.0
H742 H 0.21559 0.88407 0.51791 0.0
H743 H 0.06537 0.86978 0.48365 0.0
H744 H 0.03098 0.83124 0.57271 0.0
H745 H 0.0582 0.83877 0.52462 0.0
H746 H 0.17006 0.91101 0.55206 0.0
H747 H 0.14585 0.90114 0.6005 0.0
C748 C 0.21029 0.87599 0.47379 0.0
C749 C 0.1792 0.86763 0.45093 0.0
C750 C 0.1898 0.88024 0.50052 0.0
C751 C 0.13741 0.87686 0.50494 0.0
C752 C 0.10595 0.8716 0.48135 0.0
C753 C 0.12673 0.86685 0.45463 0.0
C754 C 0.06172 0.84853 0.56861 0.0
C755 C 0.0868 0.86497 0.59081 0.0
C756 C 0.07676 0.85342 0.54078 0.0
C757 C 0.11681 0.87536 0.53416 0.0
C758 C 0.13984 0.89334 0.55622 0.0
C759 C 0.12535 0.88803 0.58413 0.0
H760 H 0.2475 0.27066 0.40642 0.0
H761 H 0.15247 0.34262 0.36589 0.0
H762 H 0.20015 0.22549 0.38378 0.0
H763 H 0.10711 0.29798 0.34156 0.0
H764 H 0.00604 0.21041 0.31981 0.0
H765 H 0.04932 0.25398 0.34622 0.0
H766 H 0.18887 0.19962 0.33998 0.0
H767 H 0.1443 0.15474 0.31583 0.0
C768 C 0.21623 0.27669 0.39271 0.0
C769 C 0.20359 0.31001 0.38781 0.0
C770 C 0.18955 0.25091 0.37936 0.0
C771 C 0.14991 0.25793 0.36054 0.0
C772 C 0.13689 0.29142 0.35609 0.0
C773 C 0.1632 0.3171 0.36974 0.0
C774 C 0.0458 0.20753 0.32446 0.0
C775 C 0.07172 0.17908 0.31564 0.0
C776 C 0.07089 0.2328 0.33928 0.0
C777 C 0.12283 0.23057 0.34527 0.0
C778 C 0.14877 0.20212 0.33622 0.0
C779 C 0.1234 0.17658 0.32184 0.0
H780 H 0.34412 0.16441 0.87728 0.0
H781 H 0.22837 0.23384 0.89959 0.0
H782 H 0.39291 0.20922 0.85508 0.0
H783 H 0.27602 0.27894 0.87672 0.0
H784 H 0.39612 0.35743 0.85519 0.0
H785 H 0.3508 0.31306 0.88005 0.0
H786 H 0.39091 0.24375 0.81459 0.0
H787 H 0.43821 0.28768 0.79077 0.0
C788 C 0.32926 0.18941 0.87725 0.0
C789 C 0.28277 0.19591 0.88997 0.0
C790 C 0.35688 0.21504 0.86445 0.0
C791 C 0.33832 0.24775 0.86393 0.0
C792 C 0.29183 0.2542 0.87703 0.0
C793 C 0.26442 0.2285 0.89001 0.0
C794 C 0.39561 0.33258 0.84636 0.0
C795 C 0.42017 0.32601 0.82091 0.0
C796 C 0.36918 0.30724 0.8604 0.0
C797 C 0.36695 0.27477 0.84931 0.0
C798 C 0.39226 0.26827 0.82399 0.0
C799 C 0.41885 0.29354 0.8101 0.0
H800 H 0.66202 0.20305 0.64142 0.0
H801 H 0.78867 0.23405 0.6923 0.0
H802 H 0.60911 0.24484 0.6641 0.0
H803 H 0.73661 0.27621 0.71488 0.0
H804 H 0.6137 0.31531 0.77266 0.0
H805 H 0.66669 0.27635 0.74768 0.0
H806 H 0.5969 0.30472 0.66924 0.0
H807 H 0.54292 0.34337 0.69426 0.0
C808 C 0.67847 0.21929 0.6572 0.0
C809 C 0.72895 0.21554 0.66537 0.0
C810 C 0.64846 0.24316 0.67013 0.0
C811 C 0.66862 0.26366 0.69143 0.0
C812 C 0.71973 0.2604 0.69893 0.0
C813 C 0.74956 0.2365 0.68601 0.0
C814 C 0.60957 0.31336 0.75009 0.0
C815 C 0.57401 0.33255 0.7355 0.0
C816 C 0.64025 0.29114 0.73574 0.0
C817 C 0.63618 0.28759 0.70646 0.0
C818 C 0.6006 0.30669 0.69184 0.0
C819 C 0.56983 0.32895 0.7062 0.0
H820 H 0.72265 0.29188 0.19472 0.0
H821 H 0.84803 0.31231 0.13954 0.0
H822 H 0.77238 0.24972 0.21921 0.0
H823 H 0.89712 0.26886 0.16315 0.0
H824 H 0.92994 0.15887 0.19449 0.0
H825 H 0.88317 0.20231 0.17021 0.0
H826 H 0.86014 0.2529 0.24893 0.0
H827 H 0.90906 0.21028 0.27329 0.0
C828 C 0.7609 0.28728 0.18791 0.0
C829 C 0.78181 0.30538 0.16546 0.0
C830 C 0.78918 0.26323 0.20183 0.0
C831 C 0.83849 0.25633 0.19308 0.0
C832 C 0.85906 0.27379 0.17017 0.0
C833 C 0.83105 0.29838 0.15662 0.0
C834 C 0.91539 0.1794 0.20666 0.0
C835 C 0.92302 0.18103 0.23589 0.0
C836 C 0.88867 0.20419 0.19271 0.0
C837 C 0.86814 0.23074 0.20777 0.0
C838 C 0.87542 0.23244 0.23695 0.0
C839 C 0.90317 0.20801 0.25085 0.0
H840 H 0.83804 0.66253 0.68784 0.0
H841 H 0.75346 0.73284 0.63886 0.0
H842 H 0.88506 0.70818 0.70996 0.0
H843 H 0.80241 0.77869 0.65938 0.0
H844 H 0.85416 0.85376 0.72504 0.0
H845 H 0.81013 0.80814 0.70173 0.0
H846 H 0.94692 0.75037 0.70378 0.0
H847 H 0.98962 0.79529 0.72922 0.0
C848 C 0.82996 0.68786 0.68169 0.0
C849 C 0.79204 0.69431 0.66187 0.0
C850 C 0.85726 0.71404 0.69405 0.0
C851 C 0.84755 0.7473 0.6866 0.0
C852 C 0.8104 0.75353 0.66608 0.0
C853 C 0.78278 0.72733 0.654 0.0
C854 C 0.87452 0.83108 0.72098 0.0
C855 C 0.92495 0.82786 0.72957 0.0
C856 C 0.84956 0.80507 0.70708 0.0
C857 C 0.87481 0.77536 0.7008 0.0
C858 C 0.92589 0.77256 0.70868 0.0
C859 C 0.95061 0.79848 0.72299 0.0
H860 H 0.64304 0.81846 0.13255 0.0
H861 H 0.776 0.79394 0.18009 0.0
H862 H 0.59608 0.77324 0.15585 0.0
H863 H 0.72938 0.74948 0.20418 0.0
H864 H 0.64535 0.65267 0.22247 0.0
H865 H 0.69108 0.69544 0.1963 0.0
H866 H 0.56225 0.76012 0.2022 0.0
H867 H 0.51654 0.71722 0.2285 0.0
C868 C 0.6621 0.80306 0.14785 0.0
C869 C 0.71295 0.80922 0.15448 0.0
C870 C 0.6353 0.77751 0.16141 0.0
C871 C 0.65896 0.75774 0.18192 0.0
C872 C 0.71017 0.76386 0.18823 0.0
C873 C 0.73682 0.78934 0.17463 0.0
C874 C 0.62678 0.67602 0.21817 0.0
C875 C 0.57725 0.68152 0.22741 0.0
C876 C 0.65304 0.70059 0.20323 0.0
C877 C 0.63034 0.73123 0.19709 0.0
C878 C 0.58058 0.73661 0.20616 0.0
C879 C 0.55437 0.71204 0.22123 0.0
H880 H 0.33409 0.8354 0.37228 0.0
H881 H 0.23053 0.75668 0.39512 0.0
H882 H 0.38985 0.79473 0.35012 0.0
H883 H 0.28618 0.71562 0.37326 0.0
H884 H 0.42547 0.6511 0.35305 0.0
H885 H 0.37479 0.69163 0.37868 0.0
H886 H 0.38077 0.75784 0.30725 0.0
H887 H 0.43136 0.71752 0.28174 0.0
C888 C 0.32382 0.80924 0.37268 0.0
C889 C 0.27852 0.79883 0.38519 0.0
C890 C 0.35534 0.78607 0.36001 0.0
C891 C 0.34218 0.75208 0.35993 0.0
C892 C 0.29741 0.74163 0.37325 0.0
C893 C 0.26564 0.76492 0.38565 0.0
C894 C 0.41612 0.67441 0.34295 0.0
C895 C 0.43199 0.68115 0.3154 0.0
C896 C 0.38696 0.69745 0.35752 0.0
C897 C 0.37395 0.72782 0.34493 0.0
C898 C 0.39064 0.73475 0.31754 0.0
C899 C 0.41922 0.71159 0.30289 0.0
H900 H 0.27424 0.7177 0.84899 0.0
H901 H 0.15947 0.70527 0.91225 0.0
H902 H 0.22237 0.75928 0.82515 0.0
H903 H 0.10816 0.74777 0.88906 0.0
H904 H 0.0667 0.85284 0.85338 0.0
H905 H 0.11746 0.81133 0.87767 0.0
H906 H 0.13424 0.75713 0.80008 0.0
H907 H 0.08203 0.79801 0.77585 0.0
C908 C 0.23786 0.72396 0.85771 0.0
C909 C 0.22048 0.7083 0.88225 0.0
C910 C 0.20833 0.74766 0.84417 0.0
C911 C 0.16131 0.75651 0.85527 0.0
C912 C 0.14446 0.74145 0.88022 0.0
C913 C 0.1737 0.71734 0.8935 0.0
C914 C 0.08075 0.83188 0.84155 0.0
C915 C 0.07046 0.82867 0.81269 0.0
C916 C 0.1098 0.80821 0.85546 0.0
C917 C 0.12977 0.78122 0.84067 0.0
C918 C 0.11962 0.77797 0.81184 0.0
C919 C 0.08982 0.80133 0.79802 0.0
loop_
_geom_bond_atom_site_label_1
_geom_bond_atom_site_label_2
_geom_bond_distance
_geom_bond_site_symmetry_2
_ccdc_geom_bond_type
C0 N1 1.317 . S
C0 N2 1.348 . S
C0 C3 1.485 . S
N1 C0 1.317 . S
N1 N5 1.370 . S
N2 C0 1.348 . S
N2 C4 1.346 . S
C3 C0 1.485 . S
C3 H7 0.960 . S
C3 H8 0.961 . S
C3 H9 0.960 . S
C4 N2 1.346 . S
C4 N5 1.307 . S
C4 C6 1.486 . S
N5 N1 1.370 . S
N5 C4 1.307 . S
C6 C4 1.486 . S
C6 H10 0.960 . S
C6 H11 0.960 . S
C6 H12 0.959 . S
H7 C3 0.960 . S
H8 C3 0.961 . S
H9 C3 0.960 . S
H10 C6 0.960 . S
H11 C6 0.960 . S
H12 C6 0.959 . S
C13 N14 1.317 . S
C13 N15 1.348 . S
C13 C16 1.485 . S
N14 C13 1.317 . S
N14 N18 1.370 . S
N15 C13 1.348 . S
N15 C17 1.346 . S
C16 C13 1.485 . S
C16 H20 0.960 . S
C16 H21 0.961 . S
C16 H22 0.960 . S
C17 N15 1.346 . S
C17 N18 1.307 . S
C17 C19 1.486 . S
N18 N14 1.370 . S
N18 C17 1.307 . S
C19 C17 1.486 . S
C19 H23 0.960 . S
C19 H24 0.960 . S
C19 H25 0.959 . S
H20 C16 0.960 . S
H21 C16 0.961 . S
H22 C16 0.960 . S
H23 C19 0.960 . S
H24 C19 0.960 . S
H25 C19 0.959 . S
C26 N27 1.317 . S
C26 N28 1.348 . S
C26 C29 1.485 . S
N27 C26 1.317 . S
N27 N31 1.370 . S
N28 C26 1.348 . S
N28 C30 1.346 . S
C29 C26 1.485 . S
C29 H33 0.960 . S
C29 H34 0.961 . S
C29 H35 0.960 . S
C30 N28 1.346 . S
C30 N31 1.307 . S
C30 C32 1.486 . S
N31 N27 1.370 . S
N31 C30 1.307 . S
C32 C30 1.486 . S
C32 H36 0.960 . S
C32 H37 0.960 . S
C32 H38 0.959 . S
H33 C29 0.960 . S
H34 C29 0.961 . S
H35 C29 0.960 . S
H36 C32 0.960 . S
H37 C32 0.960 . S
H38 C32 0.959 . S
C39 N40 1.317 . S
C39 N41 1.348 . S
C39 C42 1.485 . S
N40 C39 1.317 . S
N40 N44 1.370 . S
N41 C39 1.348 . S
N41 C43 1.346 . S
C42 C39 1.485 . S
C42 H46 0.960 . S
C42 H47 0.961 . S
C42 H48 0.960 . S
C43 N41 1.346 . S
C43 N44 1.307 . S
C43 C45 1.486 . S
N44 N40 1.370 . S
N44 C43 1.307 . S
C45 C43 1.486 . S
C45 H49 0.960 . S
C45 H50 0.960 . S
C45 H51 0.959 . S
H46 C42 0.960 . S
H47 C42 0.961 . S
H48 C42 0.960 . S
H49 C45 0.960 . S
H50 C45 0.960 . S
H51 C45 0.959 . S
C52 N53 1.317 . S
C52 N54 1.348 . S
C52 C55 1.485 . S
N53 C52 1.317 . S
N53 N57 1.370 . S
N54 C52 1.348 . S
N54 C56 1.346 . S
C55 C52 1.485 . S
C55 H59 0.960 . S
C55 H60 0.961 . S
C55 H61 0.960 . S
C56 N54 1.346 . S
C56 N57 1.307 . S
C56 C58 1.486 . S
N57 N53 1.370 . S
N57 C56 1.307 . S
C58 C56 1.486 . S
C58 H62 0.960 . S
C58 H63 0.960 . S
C58 H64 0.959 . S
H59 C55 0.960 . S
H60 C55 0.961 . S
H61 C55 0.960 . S
H62 C58 0.960 . S
H63 C58 0.960 . S
H64 C58 0.959 . S
C65 N66 1.317 . S
C65 N67 1.348 . S
C65 C68 1.485 . S
N66 C65 1.317 . S
N66 N70 1.370 . S
N67 C65 1.348 . S
N67 C69 1.346 . S
C68 C65 1.485 . S
C68 H72 0.960 . S
C68 H73 0.961 . S
C68 H74 0.960 . S
C69 N67 1.346 . S
C69 N70 1.307 . S
C69 C71 1.486 . S
N70 N66 1.370 . S
N70 C69 1.307 . S
C71 C69 1.486 . S
C71 H75 0.960 . S
C71 H76 0.960 . S
C71 H77 0.959 . S
H72 C68 0.960 . S
H73 C68 0.961 . S
H74 C68 0.960 . S
H75 C71 0.960 . S
H76 C71 0.960 . S
H77 C71 0.959 . S
C78 N79 1.317 . S
C78 N80 1.348 . S
C78 C81 1.485 . S
N79 C78 1.317 . S
N79 N83 1.370 . S
N80 C78 1.348 . S
N80 C82 1.346 . S
C81 C78 1.485 . S
C81 H85 0.960 . S
C81 H86 0.961 . S
C81 H87 0.960 . S
C82 N80 1.346 . S
C82 N83 1.307 . S
C82 C84 1.486 . S
N83 N79 1.370 . S
N83 C82 1.307 . S
C84 C82 1.486 . S
C84 H88 0.960 . S
C84 H89 0.960 . S
C84 H90 0.959 . S
H85 C81 0.960 . S
H86 C81 0.961 . S
H87 C81 0.960 . S
H88 C84 0.960 . S
H89 C84 0.960 . S
H90 C84 0.959 . S
C91 N92 1.317 . S
C91 N93 1.348 . S
C91 C94 1.485 . S
N92 C91 1.317 . S
N92 N96 1.370 . S
N93 C91 1.348 . S
N93 C95 1.346 . S
C94 C91 1.485 . S
C94 H98 0.960 . S
C94 H99 0.961 . S
C94 H100 0.960 . S
C95 N93 1.346 . S
C95 N96 1.307 . S
C95 C97 1.486 . S
N96 N92 1.370 . S
N96 C95 1.307 . S
C97 C95 1.486 . S
C97 H101 0.960 . S
C97 H102 0.960 . S
C97 H103 0.959 . S
H98 C94 0.960 . S
H99 C94 0.961 . S
H100 C94 0.960 . S
H101 C97 0.960 . S
H102 C97 0.960 . S
H103 C97 0.959 . S
C104 C106 1.422 . S
C104 C108 1.415 . S
C104 N110 1.369 . S
C105 C106 1.421 . S
C105 C107 1.417 . S
C105 C117 1.422 1_545 S
C106 C104 1.422 . S
C106 C105 1.421 . S
C106 N116 1.359 . S
C107 C105 1.417 . S
C107 C109 1.329 . S
C107 H126 0.930 1_545 S
C108 C104 1.415 . S
C108 C109 1.437 . S
C108 C112 1.413 . S
C109 C107 1.329 . S
C109 C108 1.437 . S
C109 H131 0.929 . S
N110 C104 1.369 . S
N110 C111 1.338 . S
N110 Gd115 2.622 . S
C111 N110 1.338 . S
C111 C113 1.378 . S
C111 H123 0.929 . S
C112 C108 1.413 . S
C112 C113 1.348 . S
C112 H128 0.931 . S
C113 C111 1.378 . S
C113 C112 1.348 . S
C113 H129 0.930 . S
Gd114 N134 2.622 . S
Gd114 N141 2.570 . S
Gd114 O148 2.353 1_455 S
Gd114 O149 2.468 . S
Gd114 O150 2.427 . S
Gd114 O152 2.388 . S
Gd114 O153 2.386 . S
Gd114 O157 2.307 1_455 S
Gd114 C167 2.805 . S
Gd115 N110 2.622 . S
Gd115 N116 2.570 . S
Gd115 O147 2.386 . S
Gd115 O151 2.307 1_655 S
Gd115 O154 2.353 1_655 S
Gd115 O155 2.468 . S
Gd115 O156 2.427 . S
Gd115 O158 2.388 . S
Gd115 C179 2.805 . S
N116 C106 1.359 . S
N116 Gd115 2.570 . S
N116 C118 1.343 . S
C117 C105 1.422 1_565 S
C117 C119 1.321 . S
C117 H125 0.931 . S
C118 N116 1.343 . S
C118 C119 1.390 1_545 S
C118 H120 0.931 . S
C119 C117 1.321 . S
C119 C118 1.390 1_565 S
C119 H121 0.930 . S
H120 C118 0.931 . S
H121 C119 0.930 . S
H122 C145 0.931 . S
H123 C111 0.929 . S
H124 C146 0.930 . S
H125 C117 0.931 . S
H126 C107 0.930 1_565 S
H127 C136 0.929 . S
H128 C112 0.931 . S
H129 C113 0.930 . S
H130 C168 0.930 . S
H131 C109 0.929 . S
H132 C137 0.931 . S
H133 C138 0.930 . S
N134 Gd114 2.622 . S
N134 C135 1.369 . S
N134 C136 1.338 . S
C135 N134 1.369 . S
C135 C139 1.415 . S
C135 C142 1.422 . S
C136 H127 0.929 . S
C136 N134 1.338 . S
C136 C138 1.378 . S
C137 H132 0.931 . S
C137 C138 1.348 . S
C137 C139 1.413 . S
C138 H133 0.930 . S
C138 C136 1.378 . S
C138 C137 1.348 . S
C139 C135 1.415 . S
C139 C137 1.413 . S
C139 C169 1.437 . S
H140 C169 0.929 . S
N141 Gd114 2.570 . S
N141 C142 1.359 . S
N141 C145 1.343 . S
C142 C135 1.422 . S
C142 N141 1.359 . S
C142 C144 1.421 . S
C143 C144 1.422 . S
C143 C146 1.321 . S
C143 H170 0.931 . S
C144 C142 1.421 . S
C144 C143 1.422 . S
C144 C168 1.417 . S
C145 H122 0.931 . S
C145 N141 1.343 . S
C145 C146 1.390 . S
C146 H124 0.930 . S
C146 C143 1.321 . S
C146 C145 1.390 . S
O147 Gd115 2.386 . S
O147 C159 1.265 . S
O148 Gd114 2.353 1_655 S
O148 C159 1.242 . S
O149 Gd114 2.468 . S
O149 C167 1.263 . S
O150 Gd114 2.427 . S
O150 C167 1.252 . S
O151 Gd115 2.307 1_455 S
O151 C160 1.261 . S
O152 Gd114 2.388 . S
O152 C160 1.252 . S
O153 Gd114 2.386 . S
O153 C171 1.265 . S
O154 Gd115 2.353 1_455 S
O154 C171 1.242 . S
O155 Gd115 2.468 . S
O155 C179 1.263 . S
O156 Gd115 2.427 . S
O156 C179 1.252 . S
O157 Gd114 2.307 1_655 S
O157 C172 1.261 . S
O158 Gd115 2.388 . S
O158 C172 1.252 . S
C159 O147 1.265 . S
C159 O148 1.242 . S
C160 O151 1.261 . S
C160 O152 1.252 . S
C161 C164 1.394 . S
C161 C166 1.370 . S
C161 C167 1.500 . S
C162 C165 1.383 . S
C162 C166 1.395 . S
C163 C164 1.396 . S
C163 C165 1.365 . S
C163 H180 0.929 . S
C164 C161 1.394 . S
C164 C163 1.396 . S
C164 H181 0.930 . S
C165 C162 1.383 . S
C165 C163 1.365 . S
C165 H182 0.931 . S
C166 C161 1.370 . S
C166 C162 1.395 . S
C166 H183 0.930 . S
C167 Gd114 2.805 . S
C167 O149 1.263 . S
C167 O150 1.252 . S
C167 C161 1.500 . S
C168 H130 0.930 . S
C168 C144 1.417 . S
C168 C169 1.329 . S
C169 C139 1.437 . S
C169 H140 0.929 . S
C169 C168 1.329 . S
H170 C143 0.931 . S
C171 O153 1.265 . S
C171 O154 1.242 . S
C172 O157 1.261 . S
C172 O158 1.252 . S
C173 C176 1.394 . S
C173 C178 1.370 . S
C173 C179 1.500 . S
C174 C177 1.383 . S
C174 C178 1.395 . S
C175 C176 1.396 . S
C175 C177 1.365 . S
C175 H184 0.929 . S
C176 C173 1.394 . S
C176 C175 1.396 . S
C176 H185 0.930 . S
C177 C174 1.383 . S
C177 C175 1.365 . S
C177 H186 0.931 . S
C178 C173 1.370 . S
C178 C174 1.395 . S
C178 H187 0.930 . S
C179 Gd115 2.805 . S
C179 O155 1.263 . S
C179 O156 1.252 . S
C179 C173 1.500 . S
H180 C163 0.929 . S
H181 C164 0.930 . S
H182 C165 0.931 . S
H183 C166 0.930 . S
H184 C175 0.929 . S
H185 C176 0.930 . S
H186 C177 0.931 . S
H187 C178 0.930 . S
C188 C190 1.422 . S
C188 C192 1.415 . S
C188 N194 1.369 . S
C189 C190 1.421 . S
C189 C191 1.417 . S
C189 C201 1.422 . S
C190 C188 1.422 . S
C190 C189 1.421 . S
C190 N200 1.359 . S
C191 C189 1.417 . S
C191 C193 1.329 . S
C191 H210 0.930 . S
C192 C188 1.415 . S
C192 C193 1.437 . S
C192 C196 1.413 . S
C193 C191 1.329 . S
C193 C192 1.437 . S
C193 H215 0.929 . S
N194 C188 1.369 . S
N194 C195 1.338 . S
N194 Gd199 2.622 . S
C195 N194 1.338 . S
C195 C197 1.378 . S
C195 H207 0.929 . S
C196 C192 1.413 . S
C196 C197 1.348 . S
C196 H212 0.931 . S
C197 C195 1.378 . S
C197 C196 1.348 . S
C197 H213 0.930 . S
Gd198 N218 2.622 . S
Gd198 N225 2.570 . S
Gd198 O232 2.353 . S
Gd198 O233 2.468 . S
Gd198 O234 2.427 . S
Gd198 O236 2.388 . S
Gd198 O237 2.386 . S
Gd198 O241 2.307 . S
Gd198 C251 2.805 . S
Gd199 N194 2.622 . S
Gd199 N200 2.570 . S
Gd199 O231 2.386 . S
Gd199 O235 2.307 . S
Gd199 O238 2.353 . S
Gd199 O239 2.468 . S
Gd199 O240 2.427 . S
Gd199 O242 2.388 . S
Gd199 C263 2.805 . S
N200 C190 1.359 . S
N200 Gd199 2.570 . S
N200 C202 1.343 . S
C201 C189 1.422 . S
C201 C203 1.321 . S
C201 H209 0.931 . S
C202 N200 1.343 . S
C202 C203 1.390 . S
C202 H204 0.931 . S
C203 C201 1.321 . S
C203 C202 1.390 . S
C203 H205 0.930 . S
H204 C202 0.931 . S
H205 C203 0.930 . S
H206 C229 0.931 . S
H207 C195 0.929 . S
H208 C230 0.930 . S
H209 C201 0.931 . S
H210 C191 0.930 . S
H211 C220 0.929 . S
H212 C196 0.931 . S
H213 C197 0.930 . S
H214 C252 0.930 . S
H215 C193 0.929 . S
H216 C221 0.931 . S
H217 C222 0.930 . S
N218 Gd198 2.622 . S
N218 C219 1.369 . S
N218 C220 1.338 . S
C219 N218 1.369 . S
C219 C223 1.415 . S
C219 C226 1.422 . S
C220 H211 0.929 . S
C220 N218 1.338 . S
C220 C222 1.378 . S
C221 H216 0.931 . S
C221 C222 1.348 . S
C221 C223 1.413 . S
C222 H217 0.930 . S
C222 C220 1.378 . S
C222 C221 1.348 . S
C223 C219 1.415 . S
C223 C221 1.413 . S
C223 C253 1.437 . S
H224 C253 0.929 . S
N225 Gd198 2.570 . S
N225 C226 1.359 . S
N225 C229 1.343 . S
C226 C219 1.422 . S
C226 N225 1.359 . S
C226 C228 1.421 . S
C227 C228 1.422 . S
C227 C230 1.321 . S
C227 H254 0.931 . S
C228 C226 1.421 . S
C228 C227 1.422 . S
C228 C252 1.417 . S
C229 H206 0.931 . S
C229 N225 1.343 . S
C229 C230 1.390 . S
C230 H208 0.930 . S
C230 C227 1.321 . S
C230 C229 1.390 . S
O231 Gd199 2.386 . S
O231 C243 1.265 . S
O232 Gd198 2.353 . S
O232 C243 1.242 . S
O233 Gd198 2.468 . S
O233 C251 1.263 . S
O234 Gd198 2.427 . S
O234 C251 1.252 . S
O235 Gd199 2.307 . S
O235 C244 1.261 . S
O236 Gd198 2.388 . S
O236 C244 1.252 . S
O237 Gd198 2.386 . S
O237 C255 1.265 . S
O238 Gd199 2.353 . S
O238 C255 1.242 . S
O239 Gd199 2.468 . S
O239 C263 1.263 . S
O240 Gd199 2.427 . S
O240 C263 1.252 . S
O241 Gd198 2.307 . S
O241 C256 1.261 . S
O242 Gd199 2.388 . S
O242 C256 1.252 . S
C243 O231 1.265 . S
C243 O232 1.242 . S
C244 O235 1.261 . S
C244 O236 1.252 . S
C245 C248 1.394 . S
C245 C250 1.370 . S
C245 C251 1.500 . S
C246 C249 1.383 . S
C246 C250 1.395 . S
C247 C248 1.396 . S
C247 C249 1.365 . S
C247 H264 0.929 . S
C248 C245 1.394 . S
C248 C247 1.396 . S
C248 H265 0.930 . S
C249 C246 1.383 . S
C249 C247 1.365 . S
C249 H266 0.931 . S
C250 C245 1.370 . S
C250 C246 1.395 . S
C250 H267 0.930 . S
C251 Gd198 2.805 . S
C251 O233 1.263 . S
C251 O234 1.252 . S
C251 C245 1.500 . S
C252 H214 0.930 . S
C252 C228 1.417 . S
C252 C253 1.329 . S
C253 C223 1.437 . S
C253 H224 0.929 . S
C253 C252 1.329 . S
H254 C227 0.931 . S
C255 O237 1.265 . S
C255 O238 1.242 . S
C256 O241 1.261 . S
C256 O242 1.252 . S
C257 C260 1.394 . S
C257 C262 1.370 . S
C257 C263 1.500 . S
C258 C261 1.383 . S
C258 C262 1.395 . S
C259 C260 1.396 . S
C259 C261 1.365 . S
C259 H268 0.929 . S
C260 C257 1.394 . S
C260 C259 1.396 . S
C260 H269 0.930 . S
C261 C258 1.383 . S
C261 C259 1.365 . S
C261 H270 0.931 . S
C262 C257 1.370 . S
C262 C258 1.395 . S
C262 H271 0.930 . S
C263 Gd199 2.805 . S
C263 O239 1.263 . S
C263 O240 1.252 . S
C263 C257 1.500 . S
H264 C247 0.929 . S
H265 C248 0.930 . S
H266 C249 0.931 . S
H267 C250 0.930 . S
H268 C259 0.929 . S
H269 C260 0.930 . S
H270 C261 0.931 . S
H271 C262 0.930 . S
C272 C274 1.422 . S
C272 C276 1.415 . S
C272 N278 1.369 . S
C273 C274 1.421 . S
C273 C275 1.417 . S
C273 C285 1.422 . S
C274 C272 1.422 . S
C274 C273 1.421 . S
C274 N284 1.359 . S
C275 C273 1.417 . S
C275 C277 1.329 . S
C275 H294 0.930 . S
C276 C272 1.415 . S
C276 C277 1.437 . S
C276 C280 1.413 . S
C277 C275 1.329 . S
C277 C276 1.437 . S
C277 H299 0.929 . S
N278 C272 1.369 . S
N278 C279 1.338 . S
N278 Gd283 2.622 . S
C279 N278 1.338 . S
C279 C281 1.378 . S
C279 H291 0.929 . S
C280 C276 1.413 . S
C280 C281 1.348 . S
C280 H296 0.931 . S
C281 C279 1.378 . S
C281 C280 1.348 . S
C281 H297 0.930 . S
Gd282 N302 2.622 . S
Gd282 N309 2.570 . S
Gd282 O316 2.353 . S
Gd282 O317 2.468 . S
Gd282 O318 2.427 . S
Gd282 O320 2.388 . S
Gd282 O321 2.386 . S
Gd282 O325 2.320 . S
Gd282 C335 2.805 . S
Gd283 N278 2.622 . S
Gd283 N284 2.570 . S
Gd283 O315 2.386 . S
Gd283 O319 2.307 1_655 S
Gd283 O322 2.353 1_655 S
Gd283 O323 2.468 . S
Gd283 O324 2.427 . S
Gd283 O326 2.388 . S
Gd283 C347 2.805 . S
N284 C274 1.359 . S
N284 Gd283 2.570 . S
N284 C286 1.343 . S
C285 C273 1.422 . S
C285 C287 1.321 . S
C285 H293 0.931 . S
C286 N284 1.343 . S
C286 C287 1.390 . S
C286 H288 0.931 . S
C287 C285 1.321 . S
C287 C286 1.390 . S
C287 H289 0.930 . S
H288 C286 0.931 . S
H289 C287 0.930 . S
H290 C313 0.931 . S
H291 C279 0.929 . S
H292 C314 0.930 . S
H293 C285 0.931 . S
H294 C275 0.930 . S
H295 C304 0.929 . S
H296 C280 0.931 . S
H297 C281 0.930 . S
H298 C336 0.930 1_545 S
H299 C277 0.929 . S
H300 C305 0.931 . S
H301 C306 0.930 . S
N302 Gd282 2.622 . S
N302 C303 1.369 . S
N302 C304 1.338 . S
C303 N302 1.369 . S
C303 C307 1.415 . S
C303 C310 1.422 . S
C304 H295 0.929 . S
C304 N302 1.338 . S
C304 C306 1.378 . S
C305 H300 0.931 . S
C305 C306 1.348 . S
C305 C307 1.413 . S
C306 H301 0.930 . S
C306 C304 1.378 . S
C306 C305 1.348 . S
C307 C303 1.415 . S
C307 C305 1.413 . S
C307 C337 1.437 . S
H308 C337 0.929 . S
N309 Gd282 2.570 . S
N309 C310 1.359 . S
N309 C313 1.343 . S
C310 C303 1.422 . S
C310 N309 1.359 . S
C310 C312 1.421 . S
C311 C312 1.422 1_545 S
C311 C314 1.321 . S
C311 H338 0.931 . S
C312 C310 1.421 . S
C312 C311 1.422 1_565 S
C312 C336 1.417 . S
C313 H290 0.931 . S
C313 N309 1.343 . S
C313 C314 1.390 1_565 S
C314 H292 0.930 . S
C314 C311 1.321 . S
C314 C313 1.390 1_545 S
O315 Gd283 2.386 . S
O315 C327 1.265 . S
O316 Gd282 2.353 . S
O316 C327 1.242 1_455 S
O317 Gd282 2.468 . S
O317 C335 1.263 . S
O318 Gd282 2.427 . S
O318 C335 1.252 . S
O319 Gd283 2.307 1_455 S
O319 C328 1.261 . S
O320 Gd282 2.388 . S
O320 C328 1.252 . S
O321 Gd282 2.386 . S
O321 C339 1.265 . S
O322 Gd283 2.353 1_455 S
O322 C339 1.242 . S
O323 Gd283 2.468 . S
O323 C347 1.263 . S
O324 Gd283 2.427 . S
O324 C347 1.252 . S
O325 Gd282 2.320 . S
O325 C340 1.246 1_455 S
O326 Gd283 2.388 . S
O326 C340 1.252 . S
C327 O315 1.265 . S
C327 O316 1.242 1_655 S
C328 O319 1.261 . S
C328 O320 1.252 . S
C329 C332 1.394 . S
C329 C334 1.370 . S
C329 C335 1.500 . S
C330 C333 1.383 . S
C330 C334 1.395 . S
C331 C332 1.396 . S
C331 C333 1.365 . S
C331 H348 0.929 . S
C332 C329 1.394 . S
C332 C331 1.396 . S
C332 H349 0.930 . S
C333 C330 1.383 . S
C333 C331 1.365 . S
C333 H350 0.931 . S
C334 C329 1.370 . S
C334 C330 1.395 . S
C334 H351 0.930 . S
C335 Gd282 2.805 . S
C335 O317 1.263 . S
C335 O318 1.252 . S
C335 C329 1.500 . S
C336 H298 0.930 1_565 S
C336 C312 1.417 . S
C336 C337 1.329 . S
C337 C307 1.437 . S
C337 H308 0.929 . S
C337 C336 1.329 . S
H338 C311 0.931 . S
C339 O321 1.265 . S
C339 O322 1.242 . S
C340 O325 1.246 1_655 S
C340 O326 1.252 . S
C341 C344 1.394 . S
C341 C346 1.370 . S
C341 C347 1.500 . S
C342 C345 1.383 . S
C342 C346 1.395 . S
C343 C344 1.396 . S
C343 C345 1.365 . S
C343 H352 0.929 . S
C344 C341 1.394 . S
C344 C343 1.396 . S
C344 H353 0.930 . S
C345 C342 1.383 . S
C345 C343 1.365 . S
C345 H354 0.931 . S
C346 C341 1.370 . S
C346 C342 1.395 . S
C346 H355 0.930 . S
C347 Gd283 2.805 . S
C347 O323 1.263 . S
C347 O324 1.252 . S
C347 C341 1.500 . S
H348 C331 0.929 . S
H349 C332 0.930 . S
H350 C333 0.931 . S
H351 C334 0.930 . S
H352 C343 0.929 . S
H353 C344 0.930 . S
H354 C345 0.931 . S
H355 C346 0.930 . S
C356 C358 1.422 . S
C356 C360 1.415 . S
C356 N362 1.369 . S
C357 C358 1.421 . S
C357 C359 1.417 . S
C357 C369 1.422 . S
C358 C356 1.422 . S
C358 C357 1.421 . S
C358 N368 1.359 . S
C359 C357 1.417 . S
C359 C361 1.329 . S
C359 H378 0.930 . S
C360 C356 1.415 . S
C360 C361 1.437 . S
C360 C364 1.413 . S
C361 C359 1.329 . S
C361 C360 1.437 . S
C361 H383 0.929 . S
N362 C356 1.369 . S
N362 C363 1.338 . S
N362 Gd367 2.622 . S
C363 N362 1.338 . S
C363 C365 1.378 . S
C363 H375 0.929 . S
C364 C360 1.413 . S
C364 C365 1.348 . S
C364 H380 0.931 . S
C365 C363 1.378 . S
C365 C364 1.348 . S
C365 H381 0.930 . S
Gd366 N386 2.622 . S
Gd366 N393 2.570 . S
Gd366 O400 2.353 . S
Gd366 O401 2.468 . S
Gd366 O402 2.427 . S
Gd366 O404 2.388 . S
Gd366 O405 2.386 . S
Gd366 O409 2.307 . S
Gd366 C419 2.805 . S
Gd367 N362 2.622 . S
Gd367 N368 2.570 . S
Gd367 O399 2.386 . S
Gd367 O403 2.307 . S
Gd367 O406 2.353 . S
Gd367 O407 2.468 . S
Gd367 O408 2.427 . S
Gd367 O410 2.388 . S
Gd367 C431 2.805 . S
N368 C358 1.359 . S
N368 Gd367 2.570 . S
N368 C370 1.343 . S
C369 C357 1.422 . S
C369 C371 1.321 . S
C369 H377 0.931 . S
C370 N368 1.343 . S
C370 C371 1.390 . S
C370 H372 0.931 . S
C371 C369 1.321 . S
C371 C370 1.390 . S
C371 H373 0.930 . S
H372 C370 0.931 . S
H373 C371 0.930 . S
H374 C397 0.931 . S
H375 C363 0.929 . S
H376 C398 0.930 . S
H377 C369 0.931 . S
H378 C359 0.930 . S
H379 C388 0.929 . S
H380 C364 0.931 . S
H381 C365 0.930 . S
H382 C420 0.930 . S
H383 C361 0.929 . S
H384 C389 0.931 . S
H385 C390 0.930 . S
N386 Gd366 2.622 . S
N386 C387 1.369 . S
N386 C388 1.338 . S
C387 N386 1.369 . S
C387 C391 1.415 . S
C387 C394 1.422 . S
C388 H379 0.929 . S
C388 N386 1.338 . S
C388 C390 1.378 . S
C389 H384 0.931 . S
C389 C390 1.348 . S
C389 C391 1.413 . S
C390 H385 0.930 . S
C390 C388 1.378 . S
C390 C389 1.348 . S
C391 C387 1.415 . S
C391 C389 1.413 . S
C391 C421 1.437 . S
H392 C421 0.929 . S
N393 Gd366 2.570 . S
N393 C394 1.359 . S
N393 C397 1.343 . S
C394 C387 1.422 . S
C394 N393 1.359 . S
C394 C396 1.421 . S
C395 C396 1.422 . S
C395 C398 1.321 . S
C395 H422 0.931 . S
C396 C394 1.421 . S
C396 C395 1.422 . S
C396 C420 1.417 . S
C397 H374 0.931 . S
C397 N393 1.343 . S
C397 C398 1.390 . S
C398 H376 0.930 . S
C398 C395 1.321 . S
C398 C397 1.390 . S
O399 Gd367 2.386 . S
O399 C411 1.265 . S
O400 Gd366 2.353 . S
O400 C411 1.242 . S
O401 Gd366 2.468 . S
O401 C419 1.263 . S
O402 Gd366 2.427 . S
O402 C419 1.252 . S
O403 Gd367 2.307 . S
O403 C412 1.261 . S
O404 Gd366 2.388 . S
O404 C412 1.252 . S
O405 Gd366 2.386 . S
O405 C423 1.265 . S
O406 Gd367 2.353 . S
O406 C423 1.242 . S
O407 Gd367 2.468 . S
O407 C431 1.263 . S
O408 Gd367 2.427 . S
O408 C431 1.252 . S
O409 Gd366 2.307 . S
O409 C424 1.261 . S
O410 Gd367 2.388 . S
O410 C424 1.252 . S
C411 O399 1.265 . S
C411 O400 1.242 . S
C412 O403 1.261 . S
C412 O404 1.252 . S
C413 C416 1.394 . S
C413 C418 1.370 . S
C413 C419 1.500 . S
C414 C417 1.383 . S
C414 C418 1.395 . S
C415 C416 1.396 . S
C415 C417 1.365 . S
C415 H432 0.929 . S
C416 C413 1.394 . S
C416 C415 1.396 . S
C416 H433 0.930 . S
C417 C414 1.383 . S
C417 C415 1.365 . S
C417 H434 0.931 . S
C418 C413 1.370 . S
C418 C414 1.395 . S
C418 H435 0.930 . S
C419 Gd366 2.805 . S
C419 O401 1.263 . S
C419 O402 1.252 . S
C419 C413 1.500 . S
C420 H382 0.930 . S
C420 C396 1.417 . S
C420 C421 1.329 . S
C421 C391 1.437 . S
C421 H392 0.929 . S
C421 C420 1.329 . S
H422 C395 0.931 . S
C423 O405 1.265 . S
C423 O406 1.242 . S
C424 O409 1.261 . S
C424 O410 1.252 . S
C425 C428 1.394 . S
C425 C430 1.370 . S
C425 C431 1.500 . S
C426 C429 1.383 . S
C426 C430 1.395 . S
C427 C428 1.396 . S
C427 C429 1.365 . S
C427 H436 0.929 . S
C428 C425 1.394 . S
C428 C427 1.396 . S
C428 H437 0.930 . S
C429 C426 1.383 . S
C429 C427 1.365 . S
C429 H438 0.931 . S
C430 C425 1.370 . S
C430 C426 1.395 . S
C430 H439 0.930 . S
C431 Gd367 2.805 . S
C431 O407 1.263 . S
C431 O408 1.252 . S
C431 C425 1.500 . S
H432 C415 0.929 . S
H433 C416 0.930 . S
H434 C417 0.931 . S
H435 C418 0.930 . S
H436 C427 0.929 . S
H437 C428 0.930 . S
H438 C429 0.931 . S
H439 C430 0.930 . S
H440 C448 0.950 . S
H441 C453 0.950 . S
H442 C450 0.950 . S
H443 C452 0.950 . S
H444 C454 0.950 . S
H445 C456 0.954 . S
H446 C458 0.950 . S
H447 C459 0.950 . S
C448 H440 0.950 . S
C448 C449 1.386 . S
C448 C450 1.391 . S
C449 C448 1.386 . S
C449 C453 1.393 . S
C450 H442 0.950 . S
C450 C448 1.391 . S
C450 C451 1.400 . S
C451 C450 1.400 . S
C451 C452 1.398 . S
C451 C457 1.491 . S
C452 H443 0.950 . S
C452 C451 1.398 . S
C452 C453 1.391 . S
C453 H441 0.950 . S
C453 C449 1.393 . S
C453 C452 1.391 . S
C454 H444 0.950 . S
C454 C455 1.386 . S
C454 C456 1.367 1_545 S
C455 C454 1.386 . S
C455 C459 1.393 . S
C456 H445 0.954 . S
C456 C454 1.367 1_565 S
C456 C457 1.421 . S
C457 C451 1.491 . S
C457 C456 1.421 . S
C457 C458 1.398 . S
C458 H446 0.950 . S
C458 C457 1.398 . S
C458 C459 1.391 1_565 S
C459 H447 0.950 . S
C459 C455 1.393 . S
C459 C458 1.391 1_545 S
H460 C468 0.950 . S
H461 C473 0.950 . S
H462 C470 0.950 . S
H463 C472 0.950 . S
H464 C474 0.950 . S
H465 C476 0.950 . S
H466 C478 0.950 . S
H467 C479 0.950 . S
C468 H460 0.950 . S
C468 C469 1.386 . S
C468 C470 1.391 . S
C469 C468 1.386 . S
C469 C473 1.393 . S
C470 H462 0.950 . S
C470 C468 1.391 . S
C470 C471 1.400 . S
C471 C470 1.400 . S
C471 C472 1.398 . S
C471 C477 1.491 . S
C472 H463 0.950 . S
C472 C471 1.398 . S
C472 C473 1.391 . S
C473 H461 0.950 . S
C473 C469 1.393 . S
C473 C472 1.391 . S
C474 H464 0.950 . S
C474 C475 1.386 . S
C474 C476 1.391 . S
C475 C474 1.386 . S
C475 C479 1.393 . S
C476 H465 0.950 . S
C476 C474 1.391 . S
C476 C477 1.400 . S
C477 C471 1.491 . S
C477 C476 1.400 . S
C477 C478 1.398 . S
C478 H466 0.950 . S
C478 C477 1.398 . S
C478 C479 1.391 . S
C479 H467 0.950 . S
C479 C475 1.393 . S
C479 C478 1.391 . S
H480 C488 0.950 . S
H481 C493 0.950 . S
H482 C490 0.950 . S
H483 C492 0.950 . S
H484 C494 0.950 . S
H485 C496 0.950 . S
H486 C498 0.950 . S
H487 C499 0.950 . S
C488 H480 0.950 . S
C488 C489 1.386 . S
C488 C490 1.391 . S
C489 C488 1.386 . S
C489 C493 1.393 . S
C490 H482 0.950 . S
C490 C488 1.391 . S
C490 C491 1.400 . S
C491 C490 1.400 . S
C491 C492 1.398 . S
C491 C497 1.491 . S
C492 H483 0.950 . S
C492 C491 1.398 . S
C492 C493 1.391 . S
C493 H481 0.950 . S
C493 C489 1.393 . S
C493 C492 1.391 . S
C494 H484 0.950 . S
C494 C495 1.386 . S
C494 C496 1.391 . S
C495 C494 1.386 . S
C495 C499 1.393 . S
C496 H485 0.950 . S
C496 C494 1.391 . S
C496 C497 1.400 . S
C497 C491 1.491 . S
C497 C496 1.400 . S
C497 C498 1.398 . S
C498 H486 0.950 . S
C498 C497 1.398 . S
C498 C499 1.391 . S
C499 H487 0.950 . S
C499 C495 1.393 . S
C499 C498 1.391 . S
H500 C508 0.950 . S
H501 C513 0.950 . S
H502 C510 0.950 . S
H503 C512 0.950 . S
H504 C514 0.950 . S
H505 C516 0.950 . S
H506 C518 0.950 . S
H507 C519 0.950 . S
C508 H500 0.950 . S
C508 C509 1.386 . S
C508 C510 1.391 . S
C509 C508 1.386 . S
C509 C513 1.393 . S
C510 H502 0.950 . S
C510 C508 1.391 . S
C510 C511 1.400 . S
C511 C510 1.400 . S
C511 C512 1.398 . S
C511 C517 1.491 . S
C512 H503 0.950 . S
C512 C511 1.398 . S
C512 C513 1.391 . S
C513 H501 0.950 . S
C513 C509 1.393 . S
C513 C512 1.391 . S
C514 H504 0.950 . S
C514 C515 1.386 1_565 S
C514 C516 1.391 . S
C515 C514 1.386 1_545 S
C515 C519 1.393 . S
C516 H505 0.950 . S
C516 C514 1.391 . S
C516 C517 1.400 . S
C517 C511 1.491 . S
C517 C516 1.400 . S
C517 C518 1.398 1_565 S
C518 H506 0.950 . S
C518 C517 1.398 1_545 S
C518 C519 1.391 . S
C519 H507 0.950 . S
C519 C515 1.393 . S
C519 C518 1.391 . S
H520 C528 0.950 . S
H521 C533 0.950 . S
H522 C530 0.950 . S
H523 C532 0.950 . S
H524 C534 0.950 . S
H525 C536 0.950 . S
H526 C538 0.950 . S
H527 C539 0.950 . S
C528 H520 0.950 . S
C528 C529 1.386 . S
C528 C530 1.391 . S
C529 C528 1.386 . S
C529 C533 1.393 . S
C530 H522 0.950 . S
C530 C528 1.391 . S
C530 C531 1.400 . S
C531 C530 1.400 . S
C531 C532 1.398 . S
C531 C537 1.491 . S
C532 H523 0.950 . S
C532 C531 1.398 . S
C532 C533 1.391 . S
C533 H521 0.950 . S
C533 C529 1.393 . S
C533 C532 1.391 . S
C534 H524 0.950 . S
C534 C535 1.386 . S
C534 C536 1.391 1_565 S
C535 C534 1.386 . S
C535 C539 1.393 . S
C536 H525 0.950 . S
C536 C534 1.391 1_545 S
C536 C537 1.400 . S
C537 C531 1.491 . S
C537 C536 1.400 . S
C537 C538 1.398 1_545 S
C538 H526 0.950 . S
C538 C537 1.398 1_565 S
C538 C539 1.391 . S
C539 H527 0.950 . S
C539 C535 1.393 . S
C539 C538 1.391 . S
H540 C548 0.950 . S
H541 C553 0.950 . S
H542 C550 0.950 . S
H543 C552 0.950 . S
H544 C554 0.950 . S
H545 C556 0.950 . S
H546 C558 0.950 . S
H547 C559 0.950 . S
C548 H540 0.950 . S
C548 C549 1.386 . S
C548 C550 1.391 . S
C549 C548 1.386 . S
C549 C553 1.393 . S
C550 H542 0.950 . S
C550 C548 1.391 . S
C550 C551 1.400 . S
C551 C550 1.400 . S
C551 C552 1.398 . S
C551 C557 1.491 . S
C552 H543 0.950 . S
C552 C551 1.398 . S
C552 C553 1.391 . S
C553 H541 0.950 . S
C553 C549 1.393 . S
C553 C552 1.391 . S
C554 H544 0.950 . S
C554 C555 1.386 . S
C554 C556 1.391 . S
C555 C554 1.386 . S
C555 C559 1.393 . S
C556 H545 0.950 . S
C556 C554 1.391 . S
C556 C557 1.400 . S
C557 C551 1.491 . S
C557 C556 1.400 . S
C557 C558 1.398 . S
C558 H546 0.950 . S
C558 C557 1.398 . S
C558 C559 1.391 . S
C559 H547 0.950 . S
C559 C555 1.393 . S
C559 C558 1.391 . S
H560 C568 0.950 . S
H561 C573 0.950 . S
H562 C570 0.950 . S
H563 C572 0.950 . S
H564 C574 0.950 . S
H565 C576 0.950 . S
H566 C578 0.950 . S
H567 C579 0.950 . S
C568 H560 0.950 . S
C568 C569 1.386 . S
C568 C570 1.391 . S
C569 C568 1.386 . S
C569 C573 1.393 . S
C570 H562 0.950 . S
C570 C568 1.391 . S
C570 C571 1.400 . S
C571 C570 1.400 . S
C571 C572 1.398 . S
C571 C577 1.491 . S
C572 H563 0.950 . S
C572 C571 1.398 . S
C572 C573 1.391 . S
C573 H561 0.950 . S
C573 C569 1.393 . S
C573 C572 1.391 . S
C574 H564 0.950 . S
C574 C575 1.386 . S
C574 C576 1.391 . S
C575 C574 1.386 . S
C575 C579 1.393 . S
C576 H565 0.950 . S
C576 C574 1.391 . S
C576 C577 1.400 . S
C577 C571 1.491 . S
C577 C576 1.400 . S
C577 C578 1.398 . S
C578 H566 0.950 . S
C578 C577 1.398 . S
C578 C579 1.391 . S
C579 H567 0.950 . S
C579 C575 1.393 . S
C579 C578 1.391 . S
H580 C588 0.950 . S
H581 C593 0.950 . S
H582 C590 0.950 . S
H583 C592 0.950 . S
H584 C594 0.950 . S
H585 C596 0.950 . S
H586 C598 0.950 . S
H587 C599 0.950 . S
C588 H580 0.950 . S
C588 C589 1.386 . S
C588 C590 1.391 . S
C589 C588 1.386 . S
C589 C593 1.393 . S
C590 H582 0.950 . S
C590 C588 1.391 . S
C590 C591 1.400 . S
C591 C590 1.400 . S
C591 C592 1.398 . S
C591 C597 1.491 . S
C592 H583 0.950 . S
C592 C591 1.398 . S
C592 C593 1.391 . S
C593 H581 0.950 . S
C593 C589 1.393 . S
C593 C592 1.391 . S
C594 H584 0.950 . S
C594 C595 1.386 . S
C594 C596 1.391 . S
C595 C594 1.386 . S
C595 C599 1.393 1_565 S
C596 H585 0.950 . S
C596 C594 1.391 . S
C596 C597 1.400 1_565 S
C597 C591 1.491 . S
C597 C596 1.400 1_545 S
C597 C598 1.398 . S
C598 H586 0.950 . S
C598 C597 1.398 . S
C598 C599 1.391 . S
C599 H587 0.950 . S
C599 C595 1.393 1_545 S
C599 C598 1.391 . S
H600 C608 0.950 . S
H601 C613 0.950 . S
H602 C610 0.927 1_554 S
H603 C612 0.950 . S
H604 C614 0.950 . S
H605 C616 0.950 . S
H606 C618 0.950 . S
H607 C619 0.950 . S
C608 H600 0.950 . S
C608 C609 1.386 . S
C608 C610 1.391 . S
C609 C608 1.386 . S
C609 C613 1.393 . S
C610 H602 0.927 1_556 S
C610 C608 1.391 . S
C610 C611 1.400 . S
C611 C610 1.400 . S
C611 C612 1.398 . S
C611 C617 1.491 1_556 S
C612 H603 0.950 . S
C612 C611 1.398 . S
C612 C613 1.391 . S
C613 H601 0.950 . S
C613 C609 1.393 . S
C613 C612 1.391 . S
C614 H604 0.950 . S
C614 C615 1.386 . S
C614 C616 1.391 . S
C615 C614 1.386 . S
C615 C619 1.393 . S
C616 H605 0.950 . S
C616 C614 1.391 . S
C616 C617 1.400 . S
C617 C611 1.491 1_554 S
C617 C616 1.400 . S
C617 C618 1.398 . S
C618 H606 0.950 . S
C618 C617 1.398 . S
C618 C619 1.391 . S
C619 H607 0.950 . S
C619 C615 1.393 . S
C619 C618 1.391 . S
H620 C628 0.950 . S
H621 C633 0.950 . S
H622 C630 0.950 . S
H623 C632 0.950 . S
H624 C634 0.950 . S
H625 C636 0.950 . S
H626 C638 0.950 . S
H627 C639 0.950 . S
C628 H620 0.950 . S
C628 C629 1.386 . S
C628 C630 1.391 . S
C629 C628 1.386 . S
C629 C633 1.393 . S
C630 H622 0.950 . S
C630 C628 1.391 . S
C630 C631 1.400 . S
C631 C630 1.400 . S
C631 C632 1.398 . S
C631 C637 1.491 . S
C632 H623 0.950 . S
C632 C631 1.398 . S
C632 C633 1.391 . S
C633 H621 0.950 . S
C633 C629 1.393 . S
C633 C632 1.391 . S
C634 H624 0.950 . S
C634 C635 1.386 . S
C634 C636 1.391 . S
C635 C634 1.386 . S
C635 C639 1.393 . S
C636 H625 0.950 . S
C636 C634 1.391 . S
C636 C637 1.400 . S
C637 C631 1.491 . S
C637 C636 1.400 . S
C637 C638 1.398 . S
C638 H626 0.950 . S
C638 C637 1.398 . S
C638 C639 1.391 . S
C639 H627 0.950 . S
C639 C635 1.393 . S
C639 C638 1.391 . S
H640 C648 0.950 . S
H641 C653 0.950 . S
H642 C650 0.950 . S
H643 C652 0.950 . S
H644 C654 0.950 . S
H645 C656 0.950 . S
H646 C658 0.950 . S
H647 C659 0.950 . S
C648 H640 0.950 . S
C648 C649 1.386 . S
C648 C650 1.391 . S
C649 C648 1.386 . S
C649 C653 1.393 . S
C650 H642 0.950 . S
C650 C648 1.391 . S
C650 C651 1.400 . S
C651 C650 1.400 . S
C651 C652 1.398 . S
C651 C657 1.491 1_554 S
C652 H643 0.950 . S
C652 C651 1.398 . S
C652 C653 1.391 . S
C653 H641 0.950 . S
C653 C649 1.393 . S
C653 C652 1.391 . S
C654 H644 0.950 . S
C654 C655 1.386 . S
C654 C656 1.391 . S
C655 C654 1.386 . S
C655 C659 1.393 . S
C656 H645 0.950 . S
C656 C654 1.391 . S
C656 C657 1.400 . S
C657 C651 1.491 1_556 S
C657 C656 1.400 . S
C657 C658 1.398 . S
C658 H646 0.950 . S
C658 C657 1.398 . S
C658 C659 1.391 . S
C659 H647 0.950 . S
C659 C655 1.393 . S
C659 C658 1.391 . S
H660 C668 0.950 . S
H661 C673 0.950 . S
H662 C670 0.950 . S
H663 C672 0.950 . S
H664 C674 0.950 . S
H665 C676 0.950 . S
H666 C678 0.950 . S
H667 C679 0.950 . S
C668 H660 0.950 . S
C668 C669 1.386 . S
C668 C670 1.391 . S
C669 C668 1.386 . S
C669 C673 1.393 . S
C670 H662 0.950 . S
C670 C668 1.391 . S
C670 C671 1.400 . S
C671 C670 1.400 . S
C671 C672 1.398 . S
C671 C677 1.491 . S
C672 H663 0.950 . S
C672 C671 1.398 . S
C672 C673 1.391 . S
C673 H661 0.950 . S
C673 C669 1.393 . S
C673 C672 1.391 . S
C674 H664 0.950 . S
C674 C675 1.386 . S
C674 C676 1.391 . S
C675 C674 1.386 . S
C675 C679 1.393 . S
C676 H665 0.950 . S
C676 C674 1.391 . S
C676 C677 1.400 . S
C677 C671 1.491 . S
C677 C676 1.400 . S
C677 C678 1.398 . S
C678 H666 0.950 . S
C678 C677 1.398 . S
C678 C679 1.391 . S
C679 H667 0.950 . S
C679 C675 1.393 . S
C679 C678 1.391 . S
H680 C688 0.950 . S
H681 C693 0.950 . S
H682 C690 0.950 . S
H683 C692 0.952 . S
H684 C694 0.950 . S
H685 C696 0.950 . S
H686 C698 0.950 . S
H687 C699 0.950 . S
C688 H680 0.950 . S
C688 C689 1.386 . S
C688 C690 1.391 . S
C689 C688 1.386 . S
C689 C693 1.393 . S
C690 H682 0.950 . S
C690 C688 1.391 . S
C690 C691 1.400 . S
C691 C690 1.400 . S
C691 C692 1.398 . S
C691 C697 1.491 1_554 S
C692 H683 0.952 . S
C692 C691 1.398 . S
C692 C693 1.391 . S
C693 H681 0.950 . S
C693 C689 1.393 . S
C693 C692 1.391 . S
C694 H684 0.950 . S
C694 C695 1.386 . S
C694 C696 1.391 . S
C695 C694 1.386 . S
C695 C699 1.393 . S
C696 H685 0.950 . S
C696 C694 1.391 . S
C696 C697 1.400 . S
C697 C691 1.491 1_556 S
C697 C696 1.400 . S
C697 C698 1.398 . S
C698 H686 0.950 . S
C698 C697 1.398 . S
C698 C699 1.391 . S
C699 H687 0.950 . S
C699 C695 1.393 . S
C699 C698 1.391 . S
H700 C708 0.950 . S
H701 C713 0.950 . S
H702 C710 0.950 . S
H703 C712 0.950 . S
H704 C714 0.950 . S
H705 C716 0.950 . S
H706 C718 0.950 . S
H707 C719 0.950 . S
C708 H700 0.950 . S
C708 C709 1.386 . S
C708 C710 1.391 . S
C709 C708 1.386 . S
C709 C713 1.393 . S
C710 H702 0.950 . S
C710 C708 1.391 . S
C710 C711 1.400 . S
C711 C710 1.400 . S
C711 C712 1.398 . S
C711 C717 1.491 . S
C712 H703 0.950 . S
C712 C711 1.398 . S
C712 C713 1.391 . S
C713 H701 0.950 . S
C713 C709 1.393 . S
C713 C712 1.391 . S
C714 H704 0.950 . S
C714 C715 1.386 . S
C714 C716 1.391 . S
C715 C714 1.386 . S
C715 C719 1.393 . S
C716 H705 0.950 . S
C716 C714 1.391 . S
C716 C717 1.400 . S
C717 C711 1.491 . S
C717 C716 1.400 . S
C717 C718 1.398 . S
C718 H706 0.950 . S
C718 C717 1.398 . S
C718 C719 1.391 . S
C719 H707 0.950 . S
C719 C715 1.393 . S
C719 C718 1.391 . S
H720 C728 0.950 . S
H721 C733 0.950 . S
H722 C730 0.950 . S
H723 C732 0.950 . S
H724 C734 0.950 . S
H725 C736 0.950 . S
H726 C738 0.950 . S
H727 C739 0.950 . S
C728 H720 0.950 . S
C728 C729 1.386 . S
C728 C730 1.391 . S
C729 C728 1.386 . S
C729 C733 1.393 . S
C730 H722 0.950 . S
C730 C728 1.391 . S
C730 C731 1.400 . S
C731 C730 1.400 . S
C731 C732 1.398 . S
C731 C737 1.491 1_556 S
C732 H723 0.950 . S
C732 C731 1.398 . S
C732 C733 1.391 . S
C733 H721 0.950 . S
C733 C729 1.393 . S
C733 C732 1.391 . S
C734 H724 0.950 . S
C734 C735 1.386 . S
C734 C736 1.391 . S
C735 C734 1.386 . S
C735 C739 1.393 . S
C736 H725 0.950 . S
C736 C734 1.391 . S
C736 C737 1.400 . S
C737 C731 1.491 1_554 S
C737 C736 1.400 . S
C737 C738 1.398 . S
C738 H726 0.950 . S
C738 C737 1.398 . S
C738 C739 1.391 . S
C739 H727 0.950 . S
C739 C735 1.393 . S
C739 C738 1.391 . S
H740 C748 0.950 . S
H741 C753 0.950 . S
H742 C750 0.950 . S
H743 C752 0.950 . S
H744 C754 0.950 . S
H745 C756 0.950 . S
H746 C758 0.950 . S
H747 C759 0.950 . S
C748 H740 0.950 . S
C748 C749 1.386 . S
C748 C750 1.391 . S
C749 C748 1.386 . S
C749 C753 1.393 . S
C750 H742 0.950 . S
C750 C748 1.391 . S
C750 C751 1.400 . S
C751 C750 1.400 . S
C751 C752 1.398 . S
C751 C757 1.491 . S
C752 H743 0.950 . S
C752 C751 1.398 . S
C752 C753 1.391 . S
C753 H741 0.950 . S
C753 C749 1.393 . S
C753 C752 1.391 . S
C754 H744 0.950 . S
C754 C755 1.386 . S
C754 C756 1.391 . S
C755 C754 1.386 . S
C755 C759 1.393 . S
C756 H745 0.950 . S
C756 C754 1.391 . S
C756 C757 1.400 . S
C757 C751 1.491 . S
C757 C756 1.400 . S
C757 C758 1.398 . S
C758 H746 0.950 . S
C758 C757 1.398 . S
C758 C759 1.391 . S
C759 H747 0.950 . S
C759 C755 1.393 . S
C759 C758 1.391 . S
H760 C768 0.950 . S
H761 C773 0.950 . S
H762 C770 0.950 . S
H763 C772 0.950 . S
H764 C774 0.950 . S
H765 C776 0.950 . S
H766 C778 0.950 . S
H767 C779 0.950 . S
C768 H760 0.950 . S
C768 C769 1.386 . S
C768 C770 1.391 . S
C769 C768 1.386 . S
C769 C773 1.393 . S
C770 H762 0.950 . S
C770 C768 1.391 . S
C770 C771 1.400 . S
C771 C770 1.400 . S
C771 C772 1.398 . S
C771 C777 1.491 . S
C772 H763 0.950 . S
C772 C771 1.398 . S
C772 C773 1.391 . S
C773 H761 0.950 . S
C773 C769 1.393 . S
C773 C772 1.391 . S
C774 H764 0.950 . S
C774 C775 1.386 . S
C774 C776 1.391 . S
C775 C774 1.386 . S
C775 C779 1.393 . S
C776 H765 0.950 . S
C776 C774 1.391 . S
C776 C777 1.400 . S
C777 C771 1.491 . S
C777 C776 1.400 . S
C777 C778 1.398 . S
C778 H766 0.950 . S
C778 C777 1.398 . S
C778 C779 1.391 . S
C779 H767 0.950 . S
C779 C775 1.393 . S
C779 C778 1.391 . S
H780 C788 0.950 . S
H781 C793 0.950 . S
H782 C790 0.950 . S
H783 C792 0.950 . S
H784 C794 0.950 . S
H785 C796 0.950 . S
H786 C798 0.950 . S
H787 C799 0.950 . S
C788 H780 0.950 . S
C788 C789 1.386 . S
C788 C790 1.391 . S
C789 C788 1.386 . S
C789 C793 1.393 . S
C790 H782 0.950 . S
C790 C788 1.391 . S
C790 C791 1.400 . S
C791 C790 1.400 . S
C791 C792 1.398 . S
C791 C797 1.491 . S
C792 H783 0.950 . S
C792 C791 1.398 . S
C792 C793 1.391 . S
C793 H781 0.950 . S
C793 C789 1.393 . S
C793 C792 1.391 . S
C794 H784 0.950 . S
C794 C795 1.386 . S
C794 C796 1.391 . S
C795 C794 1.386 . S
C795 C799 1.393 . S
C796 H785 0.950 . S
C796 C794 1.391 . S
C796 C797 1.400 . S
C797 C791 1.491 . S
C797 C796 1.400 . S
C797 C798 1.398 . S
C798 H786 0.950 . S
C798 C797 1.398 . S
C798 C799 1.391 . S
C799 H787 0.950 . S
C799 C795 1.393 . S
C799 C798 1.391 . S
H800 C808 0.950 . S
H801 C813 0.950 . S
H802 C810 0.950 . S
H803 C812 0.950 . S
H804 C814 0.950 . S
H805 C816 0.950 . S
H806 C818 0.950 . S
H807 C819 0.950 . S
C808 H800 0.950 . S
C808 C809 1.386 . S
C808 C810 1.391 . S
C809 C808 1.386 . S
C809 C813 1.393 . S
C810 H802 0.950 . S
C810 C808 1.391 . S
C810 C811 1.400 . S
C811 C810 1.400 . S
C811 C812 1.398 . S
C811 C817 1.491 . S
C812 H803 0.950 . S
C812 C811 1.398 . S
C812 C813 1.391 . S
C813 H801 0.950 . S
C813 C809 1.393 . S
C813 C812 1.391 . S
C814 H804 0.950 . S
C814 C815 1.386 . S
C814 C816 1.391 . S
C815 C814 1.386 . S
C815 C819 1.393 . S
C816 H805 0.950 . S
C816 C814 1.391 . S
C816 C817 1.400 . S
C817 C811 1.491 . S
C817 C816 1.400 . S
C817 C818 1.398 . S
C818 H806 0.950 . S
C818 C817 1.398 . S
C818 C819 1.391 . S
C819 H807 0.950 . S
C819 C815 1.393 . S
C819 C818 1.391 . S
H820 C828 0.950 . S
H821 C833 0.950 . S
H822 C830 0.950 . S
H823 C832 0.950 . S
H824 C834 0.950 . S
H825 C836 0.950 . S
H826 C838 0.950 . S
H827 C839 0.950 . S
C828 H820 0.950 . S
C828 C829 1.386 . S
C828 C830 1.391 . S
C829 C828 1.386 . S
C829 C833 1.393 . S
C830 H822 0.950 . S
C830 C828 1.391 . S
C830 C831 1.400 . S
C831 C830 1.400 . S
C831 C832 1.398 . S
C831 C837 1.491 . S
C832 H823 0.950 . S
C832 C831 1.398 . S
C832 C833 1.391 . S
C833 H821 0.950 . S
C833 C829 1.393 . S
C833 C832 1.391 . S
C834 H824 0.950 . S
C834 C835 1.386 . S
C834 C836 1.391 . S
C835 C834 1.386 . S
C835 C839 1.393 . S
C836 H825 0.950 . S
C836 C834 1.391 . S
C836 C837 1.400 . S
C837 C831 1.491 . S
C837 C836 1.400 . S
C837 C838 1.398 . S
C838 H826 0.950 . S
C838 C837 1.398 . S
C838 C839 1.391 . S
C839 H827 0.950 . S
C839 C835 1.393 . S
C839 C838 1.391 . S
H840 C848 0.950 . S
H841 C853 0.950 . S
H842 C850 0.950 . S
H843 C852 0.950 . S
H844 C854 0.950 . S
H845 C856 0.950 . S
H846 C858 0.950 . S
H847 C859 0.950 . S
C848 H840 0.950 . S
C848 C849 1.386 . S
C848 C850 1.391 . S
C849 C848 1.386 . S
C849 C853 1.393 . S
C850 H842 0.950 . S
C850 C848 1.391 . S
C850 C851 1.400 . S
C851 C850 1.400 . S
C851 C852 1.398 . S
C851 C857 1.491 . S
C852 H843 0.950 . S
C852 C851 1.398 . S
C852 C853 1.391 . S
C853 H841 0.950 . S
C853 C849 1.393 . S
C853 C852 1.391 . S
C854 H844 0.950 . S
C854 C855 1.386 . S
C854 C856 1.391 . S
C855 C854 1.386 . S
C855 C859 1.393 . S
C856 H845 0.950 . S
C856 C854 1.391 . S
C856 C857 1.400 . S
C857 C851 1.491 . S
C857 C856 1.400 . S
C857 C858 1.398 . S
C858 H846 0.950 . S
C858 C857 1.398 . S
C858 C859 1.391 . S
C859 H847 0.950 . S
C859 C855 1.393 . S
C859 C858 1.391 . S
H860 C868 0.950 . S
H861 C873 0.950 . S
H862 C870 0.950 . S
H863 C872 0.950 . S
H864 C874 0.950 . S
H865 C876 0.950 . S
H866 C878 0.950 . S
H867 C879 0.950 . S
C868 H860 0.950 . S
C868 C869 1.386 . S
C868 C870 1.391 . S
C869 C868 1.386 . S
C869 C873 1.393 . S
C870 H862 0.950 . S
C870 C868 1.391 . S
C870 C871 1.400 . S
C871 C870 1.400 . S
C871 C872 1.398 . S
C871 C877 1.491 . S
C872 H863 0.950 . S
C872 C871 1.398 . S
C872 C873 1.391 . S
C873 H861 0.950 . S
C873 C869 1.393 . S
C873 C872 1.391 . S
C874 H864 0.950 . S
C874 C875 1.386 . S
C874 C876 1.391 . S
C875 C874 1.386 . S
C875 C879 1.393 . S
C876 H865 0.950 . S
C876 C874 1.391 . S
C876 C877 1.400 . S
C877 C871 1.491 . S
C877 C876 1.400 . S
C877 C878 1.398 . S
C878 H866 0.950 . S
C878 C877 1.398 . S
C878 C879 1.391 . S
C879 H867 0.950 . S
C879 C875 1.393 . S
C879 C878 1.391 . S
H880 C888 0.950 . S
H881 C893 0.950 . S
H882 C890 0.950 . S
H883 C892 0.950 . S
H884 C894 0.950 . S
H885 C896 0.950 . S
H886 C898 0.950 . S
H887 C899 0.950 . S
C888 H880 0.950 . S
C888 C889 1.386 . S
C888 C890 1.391 . S
C889 C888 1.386 . S
C889 C893 1.393 . S
C890 H882 0.950 . S
C890 C888 1.391 . S
C890 C891 1.400 . S
C891 C890 1.400 . S
C891 C892 1.398 . S
C891 C897 1.491 . S
C892 H883 0.950 . S
C892 C891 1.398 . S
C892 C893 1.391 . S
C893 H881 0.950 . S
C893 C889 1.393 . S
C893 C892 1.391 . S
C894 H884 0.950 . S
C894 C895 1.386 . S
C894 C896 1.391 . S
C895 C894 1.386 . S
C895 C899 1.393 . S
C896 H885 0.950 . S
C896 C894 1.391 . S
C896 C897 1.400 . S
C897 C891 1.491 . S
C897 C896 1.400 . S
C897 C898 1.398 . S
C898 H886 0.950 . S
C898 C897 1.398 . S
C898 C899 1.391 . S
C899 H887 0.950 . S
C899 C895 1.393 . S
C899 C898 1.391 . S
H900 C908 0.950 . S
H901 C913 0.950 . S
H902 C910 0.950 . S
H903 C912 0.950 . S
H904 C914 0.950 . S
H905 C916 0.950 . S
H906 C918 0.950 . S
H907 C919 0.950 . S
C908 H900 0.950 . S
C908 C909 1.386 . S
C908 C910 1.391 . S
C909 C908 1.386 . S
C909 C913 1.393 . S
C910 H902 0.950 . S
C910 C908 1.391 . S
C910 C911 1.400 . S
C911 C910 1.400 . S
C911 C912 1.398 . S
C911 C917 1.491 . S
C912 H903 0.950 . S
C912 C911 1.398 . S
C912 C913 1.391 . S
C913 H901 0.950 . S
C913 C909 1.393 . S
C913 C912 1.391 . S
C914 H904 0.950 . S
C914 C915 1.386 . S
C914 C916 1.391 . S
C915 C914 1.386 . S
C915 C919 1.393 . S
C916 H905 0.950 . S
C916 C914 1.391 . S
C916 C917 1.400 . S
C917 C911 1.491 . S
C917 C916 1.400 . S
C917 C918 1.398 . S
C918 H906 0.950 . S
C918 C917 1.398 . S
C918 C919 1.391 . S
C919 H907 0.950 . S
C919 C915 1.393 . S
C919 C918 1.391 . S
C449 N83 1.639 . S
C455 C160 1.641 . S
C475 C244 1.647 . S
C469 N96 1.635 . S
C495 C243 1.657 . S
C489 N57 1.639 . S
C509 N70 1.632 . S
C515 C159 1.656 . S
C535 C340 1.641 . S
C529 N31 1.641 . S
C555 C424 1.636 . S
C549 N44 1.645 . S
C569 N5 1.639 . S
C575 C423 1.652 . S
C589 N18 1.633 . S
C595 C339 1.656 . S
C615 C162 1.430 . S
C609 N14 1.617 . S
C635 C246 1.437 . S
C629 N1 1.619 . S
C655 C258 1.369 . S
C649 N40 1.620 . S
C675 C174 1.377 . S
C669 N27 1.619 . S
C695 C342 1.454 . S
C689 N66 1.605 . S
C709 N53 1.613 . S
C715 C426 1.460 . S
C735 C414 1.411 . S
C729 N92 1.606 . S
C749 N79 1.612 . S
C755 C330 1.365 . S
C775 C171 1.545 . S
C769 N2 1.548 . S
C795 C255 1.548 . S
C789 N15 1.544 . S
C809 N28 1.542 . S
C815 C256 1.519 . S
C835 C172 1.510 . S
C829 N41 1.543 . S
C855 C327 1.546 . S
C849 N54 1.545 . S
C869 N67 1.545 . S
C875 C411 1.545 . S
C889 N80 1.542 . S
C895 C412 1.510 . S
C909 N93 1.542 . S
C915 C328 1.513 . S
