# Generated by pormake.
# Topology ssa, (4,4)-cn, num edge types: 1
# Building blocks:
#     Node 0, Type 0, BuildingBlock: KOZSID_clean_sbu_0, # of connection points: 4
#     Node 1, Type 0, BuildingBlock: KOZSID_clean_sbu_0, # of connection points: 4
#     Node 2, Type 0, BuildingBlock: KOZSID_clean_sbu_0, # of connection points: 4
#     Node 3, Type 0, BuildingBlock: KOZSID_clean_sbu_0, # of connection points: 4
#     Node 4, Type 0, BuildingBlock: KOZSID_clean_sbu_0, # of connection points: 4
#     Node 5, Type 0, BuildingBlock: KOZSID_clean_sbu_0, # of connection points: 4
#     Node 6, Type 1, BuildingBlock: AZAVOO_clean_linker_0, # of connection points: 4
#     Node 7, Type 1, BuildingBlock: AZAVOO_clean_linker_0, # of connection points: 4
#     Node 8, Type 1, BuildingBlock: AZAVOO_clean_linker_0, # of connection points: 4
#     Node 9, Type 1, BuildingBlock: AZAVOO_clean_linker_0, # of connection points: 4
#     Node 10, Type 1, BuildingBlock: AZAVOO_clean_linker_0, # of connection points: 4
#     Node 11, Type 1, BuildingBlock: AZAVOO_clean_linker_0, # of connection points: 4
#     Edge 12, Type (0, 1), BuildingBlock: EZIPEK_clean_linker_0, # of connection points: 2
#     Edge 13, Type (0, 1), BuildingBlock: EZIPEK_clean_linker_0, # of connection points: 2
#     Edge 14, Type (0, 1), BuildingBlock: EZIPEK_clean_linker_0, # of connection points: 2
#     Edge 15, Type (0, 1), BuildingBlock: EZIPEK_clean_linker_0, # of connection points: 2
#     Edge 16, Type (0, 1), BuildingBlock: EZIPEK_clean_linker_0, # of connection points: 2
#     Edge 17, Type (0, 1), BuildingBlock: EZIPEK_clean_linker_0, # of connection points: 2
#     Edge 18, Type (0, 1), BuildingBlock: EZIPEK_clean_linker_0, # of connection points: 2
#     Edge 19, Type (0, 1), BuildingBlock: EZIPEK_clean_linker_0, # of connection points: 2
#     Edge 20, Type (0, 1), BuildingBlock: EZIPEK_clean_linker_0, # of connection points: 2
#     Edge 21, Type (0, 1), BuildingBlock: EZIPEK_clean_linker_0, # of connection points: 2
#     Edge 22, Type (0, 1), BuildingBlock: EZIPEK_clean_linker_0, # of connection points: 2
#     Edge 23, Type (0, 1), BuildingBlock: EZIPEK_clean_linker_0, # of connection points: 2
#     Edge 24, Type (0, 1), BuildingBlock: EZIPEK_clean_linker_0, # of connection points: 2
#     Edge 25, Type (0, 1), BuildingBlock: EZIPEK_clean_linker_0, # of connection points: 2
#     Edge 26, Type (0, 1), BuildingBlock: EZIPEK_clean_linker_0, # of connection points: 2
#     Edge 27, Type (0, 1), BuildingBlock: EZIPEK_clean_linker_0, # of connection points: 2
#     Edge 28, Type (0, 1), BuildingBlock: EZIPEK_clean_linker_0, # of connection points: 2
#     Edge 29, Type (0, 1), BuildingBlock: EZIPEK_clean_linker_0, # of connection points: 2
#     Edge 30, Type (0, 1), BuildingBlock: EZIPEK_clean_linker_0, # of connection points: 2
#     Edge 31, Type (0, 1), BuildingBlock: EZIPEK_clean_linker_0, # of connection points: 2
#     Edge 32, Type (0, 1), BuildingBlock: EZIPEK_clean_linker_0, # of connection points: 2
#     Edge 33, Type (0, 1), BuildingBlock: EZIPEK_clean_linker_0, # of connection points: 2
#     Edge 34, Type (0, 1), BuildingBlock: EZIPEK_clean_linker_0, # of connection points: 2
#     Edge 35, Type (0, 1), BuildingBlock: EZIPEK_clean_linker_0, # of connection points: 2
# Relax obj value: 0.081
# Max RMSD: 0.234
# Mean RMSD: 0.122
data_MOF--net-ssa--node1-KOZSID_clean_sbu_0--node2-AZAVOO_clean_linker_0--edge1-EZIPEK_clean_linker_0
_symmetry_space_group_name_H-M    P1
_symmetry_Int_Tables_number       1
_symmetry_cell_setting            triclinic
loop_
_symmetry_equiv_pos_as_xyz
'x, y, z'
_cell_length_a     42.571118
_cell_length_b     44.040224
_cell_length_c     41.032067
_cell_angle_alpha  86.737888
_cell_angle_beta   93.202255
_cell_angle_gamma 123.14092
loop_
_atom_site_label
_atom_site_type_symbol
_atom_site_fract_x
_atom_site_fract_y
_atom_site_fract_z
_atom_type_partial_charge
C0 C 0.059 0.54268 0.0316 0.0
C1 C 0.02647 0.52791 0.04905 0.0
C2 C 0.02833 0.50674 0.07366 0.0
C3 C 0.06179 0.50989 0.06991 0.0
N4 N 0.08151 0.53189 0.04443 0.0
Co5 Co 0.13232 0.54525 0.03113 0.0
N6 N 0.13347 0.51181 0.06568 0.0
C7 C 0.10528 0.48815 0.08544 0.0
C8 C 0.11396 0.46801 0.10609 0.0
C9 C 0.14999 0.47977 0.09935 0.0
C10 C 0.16129 0.50669 0.07502 0.0
N11 N 0.1843 0.56042 0.01955 0.0
C12 C 0.20848 0.55314 0.03532 0.0
C13 C 0.24339 0.57219 0.0213 0.0
C14 C 0.24133 0.59245 0.99581 0.0
C15 C 0.2055 0.58485 0.99594 0.0
N16 N 0.12999 0.57684 0.9952 0.0
C17 C 0.15603 0.59651 0.97238 0.0
C18 C 0.14561 0.61357 0.94949 0.0
C19 C 0.11059 0.60376 0.9579 0.0
C20 C 0.10172 0.58132 0.98562 0.0
N21 N 0.15509 0.58554 0.06174 0.0
C22 C 0.1867 0.64295 0.10473 0.0
C23 C 0.19367 0.64974 0.07154 0.0
C24 C 0.17814 0.62076 0.05065 0.0
C25 C 0.16368 0.60719 0.11624 0.0
C26 C 0.14795 0.57903 0.0944 0.0
N27 N 0.10935 0.50517 1.00007 0.0
C28 C 0.10796 0.48294 0.94712 0.0
C29 C 0.07186 0.45291 0.95219 0.0
C30 C 0.05557 0.44821 0.9821 0.0
C31 C 0.07485 0.47429 0.00571 0.0
C32 C 0.12611 0.50866 0.97126 0.0
H33 H 0.06089 0.46917 0.02802 0.0
H34 H 0.15332 0.53139 0.96569 0.0
H35 H 0.18524 0.62761 0.02567 0.0
H36 H 0.13017 0.55225 0.10448 0.0
C37 C 0.07335 0.48932 0.08732 0.0
C38 C 0.06588 0.56451 0.00165 0.0
C39 C 0.19975 0.52901 0.06402 0.0
C40 C 0.19075 0.59999 0.97428 0.0
H41 H 0.00329 0.53123 0.04391 0.0
H42 H 0.00717 0.48996 0.0914 0.0
H43 H 0.09682 0.44844 0.12491 0.0
H44 H 0.16665 0.4707 0.11187 0.0
H45 H 0.26784 0.57165 0.02891 0.0
H46 H 0.26348 0.61092 0.97945 0.0
H47 H 0.16164 0.63116 0.92919 0.0
H48 H 0.09343 0.61208 0.94511 0.0
H49 H 0.21141 0.67726 0.06188 0.0
H50 H 0.15768 0.60107 0.14197 0.0
H51 H 0.12167 0.48691 0.92436 0.0
H52 H 0.02781 0.42469 0.98703 0.0
C53 C 0.64048 0.01794 0.61991 0.0
C54 C 0.63397 0.00046 0.65039 0.0
C55 C 0.59603 0.97598 0.65195 0.0
C56 C 0.58153 0.97974 0.62242 0.0
N57 N 0.60795 0.0046 0.60207 0.0
Co58 Co 0.59869 0.01911 0.55745 0.0
N59 N 0.54613 0.97655 0.55595 0.0
C60 C 0.52605 0.95635 0.58184 0.0
C61 C 0.48952 0.93028 0.57367 0.0
C62 C 0.48635 0.93446 0.54057 0.0
C63 C 0.52137 0.96282 0.53042 0.0
N64 N 0.59011 0.03302 0.51241 0.0
C65 C 0.56347 0.01241 0.4897 0.0
C66 C 0.5697 0.03149 0.46008 0.0
C67 C 0.60056 0.06563 0.46484 0.0
C68 C 0.61178 0.06532 0.49678 0.0
N69 N 0.65108 0.06258 0.55928 0.0
C70 C 0.66568 0.09197 0.53885 0.0
C71 C 0.70266 0.11767 0.5458 0.0
C72 C 0.71198 0.10401 0.57259 0.0
C73 C 0.67993 0.07066 0.58055 0.0
N74 N 0.61586 0.99081 0.53884 0.0
C75 C 0.63258 0.94722 0.50669 0.0
C76 C 0.64991 0.98405 0.49802 0.0
C77 C 0.64111 0.00536 0.51434 0.0
C78 C 0.6082 0.93299 0.53277 0.0
C79 C 0.60048 0.95532 0.5487 0.0
N80 N 0.58026 0.04664 0.57603 0.0
C81 C 0.53595 0.0648 0.57473 0.0
C82 C 0.5489 0.07947 0.60557 0.0
C83 C 0.57792 0.07792 0.62119 0.0
C84 C 0.593 0.06132 0.60608 0.0
C85 C 0.55188 0.04834 0.56047 0.0
H86 H 0.61366 0.05894 0.61959 0.0
H87 H 0.54013 0.03585 0.53742 0.0
H88 H 0.65372 0.03323 0.50627 0.0
H89 H 0.58096 0.94341 0.56823 0.0
C90 C 0.54378 0.95918 0.61225 0.0
C91 C 0.67674 0.05065 0.61117 0.0
C92 C 0.52976 0.97658 0.49656 0.0
C93 C 0.64586 0.09215 0.51072 0.0
H94 H 0.65437 0.00592 0.66994 0.0
H95 H 0.58087 0.95779 0.67225 0.0
H96 H 0.46808 0.90994 0.58966 0.0
H97 H 0.46117 0.91842 0.52565 0.0
H98 H 0.55338 0.02201 0.43751 0.0
H99 H 0.61414 0.08753 0.44676 0.0
H100 H 0.72091 0.14295 0.53254 0.0
H101 H 0.73894 0.11755 0.58546 0.0
H102 H 0.6689 0.99586 0.47787 0.0
H103 H 0.5943 0.90457 0.54005 0.0
H104 H 0.51307 0.06517 0.56221 0.0
H105 H 0.58819 0.0886 0.64534 0.0
C106 C 0.66028 0.55819 0.02322 0.0
C107 C 0.66742 0.58416 0.99875 0.0
C108 C 0.63875 0.58949 0.9985 0.0
C109 C 0.61556 0.56641 0.02249 0.0
N110 N 0.6279 0.54687 0.03834 0.0
Co111 Co 0.60113 0.50822 0.07325 0.0
N112 N 0.55614 0.51187 0.0688 0.0
C113 C 0.55027 0.53205 0.04634 0.0
C114 C 0.51708 0.52959 0.04969 0.0
C115 C 0.50104 0.50689 0.0762 0.0
C116 C 0.52553 0.49684 0.08751 0.0
N117 N 0.57518 0.4711 0.10944 0.0
C118 C 0.54367 0.46136 0.12528 0.0
C119 C 0.53702 0.43702 0.15107 0.0
C120 C 0.5658 0.43169 0.15202 0.0
C121 C 0.58829 0.45311 0.12691 0.0
N122 N 0.64529 0.50323 0.07655 0.0
C123 C 0.64928 0.48002 0.0966 0.0
C124 C 0.68205 0.48187 0.09271 0.0
C125 C 0.69966 0.50713 0.06811 0.0
C126 C 0.67642 0.51917 0.05832 0.0
N127 N 0.62422 0.54617 0.10672 0.0
C128 C 0.64858 0.59436 0.15846 0.0
C129 C 0.65782 0.56847 0.15844 0.0
C130 C 0.64505 0.54452 0.13271 0.0
C131 C 0.629 0.59725 0.13127 0.0
C132 C 0.61768 0.57344 0.10564 0.0
N133 N 0.57792 0.46999 0.0398 0.0
C134 C 0.5558 0.40924 0.0233 0.0
C135 C 0.55039 0.41776 0.99104 0.0
C136 C 0.55779 0.45237 0.98379 0.0
C137 C 0.57077 0.4776 0.00839 0.0
C138 C 0.56995 0.43568 0.04701 0.0
H139 H 0.57516 0.50321 0.00117 0.0
H140 H 0.57461 0.42775 0.07087 0.0
H141 H 0.65179 0.52446 0.13477 0.0
H142 H 0.60285 0.57704 0.08557 0.0
C143 C 0.57909 0.55758 0.02635 0.0
C144 C 0.68369 0.54348 0.02987 0.0
C145 C 0.52027 0.47576 0.11772 0.0
C146 C 0.62232 0.45776 0.11955 0.0
H147 H 0.69006 0.59697 0.98178 0.0
H148 H 0.63408 0.60637 0.98139 0.0
H149 H 0.50689 0.54431 0.03581 0.0
H150 H 0.4751 0.49985 0.08685 0.0
H151 H 0.51415 0.42504 0.16785 0.0
H152 H 0.57031 0.41497 0.16947 0.0
H153 H 0.69181 0.46642 0.10594 0.0
H154 H 0.72612 0.5151 0.05791 0.0
H155 H 0.67383 0.56603 0.1787 0.0
H156 H 0.62211 0.61762 0.12999 0.0
H157 H 0.55008 0.38255 0.02997 0.0
H158 H 0.55358 0.45994 0.95912 0.0
C159 C 0.98025 0.38432 0.57802 0.0
C160 C 0.94277 0.35913 0.5703 0.0
C161 C 0.93478 0.37094 0.54147 0.0
C162 C 0.96758 0.40272 0.53345 0.0
N163 N 0.99634 0.41154 0.55497 0.0
Co164 Co 0.04707 0.45818 0.55552 0.0
N165 N 0.03367 0.47798 0.51582 0.0
C166 C 0.00189 0.46003 0.4971 0.0
C167 C 0.00133 0.47996 0.47044 0.0
C168 C 0.03499 0.51245 0.47199 0.0
C169 C 0.05413 0.51043 0.49966 0.0
N170 N 0.09682 0.50561 0.55774 0.0
C171 C 0.11052 0.53615 0.53868 0.0
C172 C 0.14612 0.56345 0.54934 0.0
C173 C 0.15529 0.54958 0.57604 0.0
C174 C 0.12487 0.51481 0.5802 0.0
N175 N 0.06114 0.4375 0.59403 0.0
C176 C 0.09521 0.45277 0.60927 0.0
C177 C 0.09633 0.43195 0.63489 0.0
C178 C 0.06069 0.40187 0.63642 0.0
C179 C 0.0398 0.40626 0.61166 0.0
N180 N 0.06735 0.43907 0.52591 0.0
C181 C 0.09991 0.4265 0.475 0.0
C182 C 0.12174 0.44676 0.50155 0.0
C183 C 0.10493 0.45213 0.52684 0.0
C184 C 0.06107 0.40947 0.47578 0.0
C185 C 0.04542 0.41604 0.50141 0.0
N186 N 0.02719 0.47787 0.58441 0.0
C187 C 0.02824 0.50215 0.63603 0.0
C188 C 0.99768 0.50431 0.62576 0.0
C189 C 0.98279 0.494 0.5942 0.0
C190 C 0.99733 0.48021 0.57432 0.0
C191 C 0.04303 0.48971 0.61481 0.0
H192 H 0.98372 0.47131 0.551 0.0
H193 H 0.06671 0.48909 0.62378 0.0
H194 H 0.12325 0.46809 0.54623 0.0
H195 H 0.01574 0.40319 0.50019 0.0
C196 C 0.97197 0.42566 0.50671 0.0
C197 C 0.99917 0.38194 0.60793 0.0
C198 C 0.09184 0.53985 0.5093 0.0
C199 C 0.12326 0.48903 0.60274 0.0
H200 H 0.92307 0.33508 0.58432 0.0
H201 H 0.90794 0.35844 0.52845 0.0
H202 H 0.97893 0.472 0.45229 0.0
H203 H 0.0444 0.53512 0.45474 0.0
H204 H 0.16399 0.59032 0.53848 0.0
H205 H 0.18147 0.56289 0.59013 0.0
H206 H 0.11962 0.43885 0.65174 0.0
H207 H 0.05069 0.38001 0.65462 0.0
H208 H 0.15189 0.45939 0.50226 0.0
H209 H 0.04316 0.39258 0.45599 0.0
H210 H 0.04057 0.50997 0.66036 0.0
H211 H 0.9592 0.4955 0.58532 0.0
C212 C 0.51249 0.032 0.15587 0.0
C213 C 0.51626 0.05008 0.18387 0.0
C214 C 0.549 0.08334 0.18138 0.0
C215 C 0.56318 0.08374 0.15205 0.0
N216 N 0.54128 0.05285 0.13552 0.0
Co217 Co 0.55087 0.04216 0.09167 0.0
N218 N 0.60228 0.08792 0.09086 0.0
C219 C 0.61891 0.11277 0.11442 0.0
C220 C 0.65525 0.13999 0.10815 0.0
C221 C 0.66235 0.13197 0.07889 0.0
C222 C 0.62966 0.10039 0.06882 0.0
N223 N 0.55963 0.03218 0.04716 0.0
C224 C 0.58973 0.05167 0.02792 0.0
C225 C 0.583 0.0365 0.99752 0.0
C226 C 0.54758 0.0061 0.99774 0.0
C227 C 0.53462 0.0046 0.02798 0.0
N228 N 0.50043 0.99526 0.09345 0.0
C229 C 0.48397 0.97007 0.07016 0.0
C230 C 0.45115 0.93907 0.07944 0.0
C231 C 0.44663 0.94444 0.11079 0.0
C232 C 0.47691 0.97874 0.11871 0.0
N233 N 0.52867 0.06822 0.07031 0.0
C234 C 0.51054 0.10858 0.02744 0.0
C235 C 0.49006 0.07092 0.02631 0.0
C236 C 0.49918 0.0513 0.04819 0.0
C237 C 0.53717 0.1255 0.05255 0.0
C238 C 0.54536 0.10478 0.07396 0.0
N239 N 0.57342 0.0166 0.11233 0.0
C240 C 0.58341 0.96764 0.11311 0.0
C241 C 0.60604 0.98076 0.14126 0.0
C242 C 0.61248 0.01213 0.15465 0.0
C243 C 0.59589 0.02951 0.13991 0.0
C244 C 0.56748 0.98595 0.09904 0.0
H245 H 0.60133 0.05316 0.15134 0.0
H246 H 0.55022 0.97474 0.07759 0.0
H247 H 0.48308 0.02272 0.04557 0.0
H248 H 0.56652 0.11931 0.09221 0.0
C249 C 0.5992 0.11019 0.14169 0.0
C250 C 0.4824 0.99427 0.15065 0.0
C251 C 0.62548 0.08407 0.03756 0.0
C252 C 0.50042 0.97621 0.03999 0.0
H253 H 0.49788 0.03978 0.20442 0.0
H254 H 0.56182 0.10406 0.19952 0.0
H255 H 0.67425 0.16298 0.12301 0.0
H256 H 0.6885 0.14784 0.0662 0.0
H257 H 0.60188 0.04616 0.97737 0.0
H258 H 0.53325 0.987 0.97838 0.0
H259 H 0.43308 0.91513 0.06533 0.0
H260 H 0.42382 0.92504 0.12614 0.0
H261 H 0.4686 0.05692 0.00742 0.0
H262 H 0.55306 0.15473 0.05445 0.0
H263 H 0.57761 0.94309 0.10238 0.0
H264 H 0.62963 0.0227 0.17674 0.0
C265 C 0.58282 0.61655 0.55521 0.0
C266 C 0.56738 0.63724 0.55596 0.0
C267 C 0.54586 0.62563 0.58314 0.0
C268 C 0.54909 0.59837 0.59725 0.0
N269 N 0.57128 0.59214 0.58063 0.0
Co270 Co 0.58133 0.55353 0.59072 0.0
N271 N 0.53795 0.52661 0.62031 0.0
C272 C 0.51961 0.54014 0.63282 0.0
C273 C 0.49197 0.51611 0.65365 0.0
C274 C 0.49343 0.48576 0.6549 0.0
C275 C 0.52197 0.49299 0.63465 0.0
N276 N 0.59169 0.51494 0.60052 0.0
C277 C 0.57057 0.48192 0.61566 0.0
C278 C 0.58877 0.46359 0.61727 0.0
C279 C 0.62295 0.48636 0.6036 0.0
C280 C 0.62361 0.51708 0.59418 0.0
N281 N 0.62485 0.58055 0.56157 0.0
C282 C 0.65404 0.57665 0.56097 0.0
C283 C 0.68026 0.59968 0.53863 0.0
C284 C 0.66672 0.61933 0.52429 0.0
C285 C 0.63288 0.60699 0.53875 0.0
N286 N 0.61431 0.58107 0.62777 0.0
C287 C 0.66883 0.61429 0.67764 0.0
C288 C 0.67048 0.63406 0.64901 0.0
C289 C 0.6429 0.61679 0.62419 0.0
C290 C 0.63735 0.57929 0.68217 0.0
C291 C 0.61026 0.56364 0.65727 0.0
N292 N 0.54856 0.52644 0.55348 0.0
C293 C 0.54168 0.50447 0.49937 0.0
C294 C 0.50688 0.50079 0.49483 0.0
C295 C 0.49173 0.50644 0.5215 0.0
C296 C 0.51332 0.52012 0.55018 0.0
C297 C 0.5617 0.51658 0.52916 0.0
H298 H 0.50209 0.52731 0.56894 0.0
H299 H 0.5888 0.52005 0.53171 0.0
H300 H 0.64555 0.63186 0.60172 0.0
H301 H 0.58666 0.53694 0.6616 0.0
C302 C 0.52655 0.57391 0.62187 0.0
C303 C 0.6098 0.62182 0.53118 0.0
C304 C 0.53644 0.46949 0.63351 0.0
C305 C 0.65223 0.54696 0.57698 0.0
H306 H 0.57116 0.65841 0.5387 0.0
H307 H 0.52844 0.63472 0.59071 0.0
H308 H 0.47288 0.52007 0.66629 0.0
H309 H 0.47629 0.46152 0.66984 0.0
H310 H 0.57904 0.43717 0.62853 0.0
H311 H 0.64468 0.48111 0.60081 0.0
H312 H 0.70531 0.6009 0.53243 0.0
H313 H 0.68007 0.6402 0.50531 0.0
H314 H 0.694 0.66169 0.64508 0.0
H315 H 0.6344 0.56351 0.70438 0.0
H316 H 0.55415 0.4998 0.47954 0.0
H317 H 0.46453 0.5031 0.51924 0.0
H318 H 0.33888 0.46693 0.50578 0.0
H319 H 0.11647 0.46392 0.18865 0.0
H320 H 0.41289 0.51715 0.30434 0.0
H321 H 0.46031 0.52483 0.34576 0.0
H322 H 0.38156 0.41814 0.38632 0.0
H323 H 0.33623 0.40857 0.34225 0.0
H324 H 0.3551 0.50935 0.36698 0.0
H325 H 0.35651 0.5022 0.42657 0.0
H326 H 0.266 0.38947 0.41953 0.0
H327 H 0.26511 0.39696 0.35999 0.0
H328 H 0.28098 0.50689 0.34944 0.0
H329 H 0.23217 0.49447 0.38729 0.0
H330 H 0.16026 0.38677 0.35026 0.0
H331 H 0.20921 0.39918 0.31243 0.0
H332 H 0.27607 0.52759 0.27635 0.0
H333 H 0.22699 0.53584 0.25274 0.0
H334 H 0.16697 0.42682 0.21699 0.0
H335 H 0.21554 0.41852 0.24181 0.0
H336 H 0.34658 0.54148 0.22805 0.0
H337 H 0.33153 0.56075 0.17554 0.0
H338 H 0.24956 0.44885 0.15393 0.0
H339 H 0.26788 0.42955 0.2047 0.0
H340 H 0.39314 0.52656 0.2339 0.0
H341 H 0.43586 0.52549 0.19704 0.0
H342 H 0.39017 0.4132 0.22445 0.0
H343 H 0.34557 0.4136 0.25971 0.0
O344 O 0.33778 0.46916 0.4822 0.0
O345 O 0.29011 0.41179 0.47736 0.0
O346 O 0.16629 0.51598 0.2198 0.0
O347 O 0.13555 0.46092 0.19922 0.0
C348 C 0.33829 0.46267 0.30392 0.0
C349 C 0.3092 0.45831 0.32308 0.0
C350 C 0.27947 0.45988 0.30821 0.0
C351 C 0.27956 0.46801 0.27462 0.0
C352 C 0.30878 0.4733 0.25522 0.0
C353 C 0.33764 0.46947 0.26966 0.0
C354 C 0.3704 0.46273 0.32086 0.0
C355 C 0.40653 0.4946 0.32092 0.0
C356 C 0.43347 0.49915 0.34486 0.0
C357 C 0.42385 0.47278 0.37015 0.0
C358 C 0.38938 0.43931 0.36767 0.0
C359 C 0.36343 0.4339 0.34253 0.0
C360 C 0.31026 0.45362 0.35923 0.0
C361 C 0.3358 0.4831 0.37839 0.0
C362 C 0.33647 0.47894 0.41239 0.0
C363 C 0.31148 0.44523 0.4278 0.0
C364 C 0.28571 0.41578 0.40845 0.0
C365 C 0.2851 0.41997 0.37446 0.0
C366 C 0.24854 0.45388 0.32834 0.0
C367 C 0.25452 0.48081 0.34923 0.0
C368 C 0.22684 0.47373 0.37074 0.0
C369 C 0.19291 0.43968 0.37155 0.0
C370 C 0.18639 0.41314 0.34991 0.0
C371 C 0.21411 0.42024 0.32836 0.0
C372 C 0.24966 0.47274 0.26018 0.0
C373 C 0.25222 0.50553 0.26348 0.0
C374 C 0.22412 0.51011 0.25006 0.0
C375 C 0.19326 0.48211 0.23263 0.0
C376 C 0.19052 0.44905 0.22994 0.0
C377 C 0.21829 0.44428 0.24393 0.0
C378 C 0.30863 0.48404 0.22017 0.0
C379 C 0.32718 0.52102 0.21107 0.0
C380 C 0.31815 0.53203 0.18131 0.0
C381 C 0.28856 0.50632 0.16126 0.0
C382 C 0.27216 0.46923 0.16913 0.0
C383 C 0.28269 0.45819 0.19806 0.0
C384 C 0.36536 0.46988 0.24881 0.0
C385 C 0.39156 0.50146 0.23137 0.0
C386 C 0.41623 0.50096 0.21064 0.0
C387 C 0.41587 0.46914 0.20772 0.0
C388 C 0.39061 0.43789 0.22609 0.0
C389 C 0.36534 0.43819 0.24625 0.0
C390 C 0.31235 0.44091 0.46391 0.0
C391 C 0.16427 0.48746 0.21696 0.0
H392 H 0.87534 0.32077 0.0175 0.0
H393 H 0.64986 0.97341 0.83641 0.0
H394 H 0.87566 0.3032 0.85074 0.0
H395 H 0.93095 0.35802 0.8729 0.0
H396 H 1.00026 0.31883 0.85011 0.0
H397 H 0.94429 0.26248 0.83051 0.0
H398 H 0.81315 0.24972 0.89282 0.0
H399 H 0.83024 0.28059 0.94472 0.0
H400 H 0.92411 0.26799 0.95719 0.0
H401 H 0.90668 0.23711 0.90525 0.0
H402 H 0.74434 0.17116 0.85954 0.0
H403 H 0.70013 0.14501 0.90412 0.0
H404 H 0.78409 0.14419 0.96739 0.0
H405 H 0.82738 0.16748 0.9218 0.0
H406 H 0.74367 0.14962 0.79393 0.0
H407 H 0.68696 0.08859 0.78987 0.0
H408 H 0.73822 0.04712 0.85651 0.0
H409 H 0.79475 0.10826 0.86034 0.0
H410 H 0.81213 0.20999 0.74547 0.0
H411 H 0.78468 0.1756 0.69638 0.0
H412 H 0.78958 0.08735 0.74158 0.0
H413 H 0.82337 0.12472 0.78907 0.0
H414 H 0.85536 0.27617 0.7736 0.0
H415 H 0.88724 0.31191 0.72441 0.0
H416 H 0.94935 0.26061 0.72435 0.0
H417 H 0.91517 0.2228 0.77248 0.0
O418 O 0.86879 0.30809 0.99725 0.0
O419 O 0.91705 0.30149 0.00216 0.0
O420 O 0.6471 0.02042 0.80299 0.0
O421 O 0.67194 0.9978 0.83757 0.0
C422 C 0.87162 0.24151 0.8362 0.0
C423 C 0.84875 0.22313 0.86342 0.0
C424 C 0.81603 0.1881 0.86008 0.0
C425 C 0.80762 0.17046 0.83011 0.0
C426 C 0.83083 0.1886 0.80288 0.0
C427 C 0.86212 0.22476 0.80574 0.0
C428 C 0.90583 0.27842 0.84005 0.0
C429 C 0.90284 0.30665 0.85006 0.0
C430 C 0.93434 0.33793 0.86252 0.0
C431 C 0.9694 0.34189 0.86388 0.0
C432 C 0.97324 0.31586 0.84969 0.0
C433 C 0.94143 0.2839 0.83837 0.0
C434 C 0.85865 0.24114 0.89533 0.0
C435 C 0.83727 0.2535 0.9069 0.0
C436 C 0.84717 0.27121 0.9365 0.0
C437 C 0.87865 0.2769 0.95504 0.0
C438 C 0.8998 0.26419 0.94345 0.0
C439 C 0.8899 0.24651 0.91383 0.0
C440 C 0.78908 0.17101 0.88722 0.0
C441 C 0.75297 0.16449 0.88273 0.0
C442 C 0.72788 0.14991 0.90822 0.0
C443 C 0.73884 0.14273 0.93908 0.0
C444 C 0.77505 0.14943 0.94374 0.0
C445 C 0.79973 0.16283 0.91783 0.0
C446 C 0.77343 0.13327 0.82717 0.0
C447 C 0.74268 0.12726 0.80743 0.0
C448 C 0.7103 0.09241 0.80524 0.0
C449 C 0.70813 0.06294 0.82275 0.0
C450 C 0.73899 0.06916 0.84263 0.0
C451 C 0.77131 0.10404 0.84486 0.0
C452 C 0.82036 0.17031 0.77101 0.0
C453 C 0.81015 0.18456 0.74413 0.0
C454 C 0.79385 0.16456 0.71616 0.0
C455 C 0.78463 0.12871 0.71548 0.0
C456 C 0.79662 0.115 0.7415 0.0
C457 C 0.81543 0.13617 0.7687 0.0
C458 C 0.88275 0.24672 0.77642 0.0
C459 C 0.87564 0.27243 0.76283 0.0
C460 C 0.89375 0.29273 0.73479 0.0
C461 C 0.92067 0.28894 0.72062 0.0
C462 C 0.92849 0.26378 0.73472 0.0
C463 C 0.90919 0.24236 0.76215 0.0
C464 C 0.88942 0.29618 0.98624 0.0
C465 C 0.67384 0.02585 0.82042 0.0
H466 H 0.67119 0.75524 0.10006 0.0
H467 H 0.69927 0.02121 0.34499 0.0
H468 H 0.61412 0.71534 0.28636 0.0
H469 H 0.61233 0.66782 0.25631 0.0
H470 H 0.7328 0.72412 0.26649 0.0
H471 H 0.73464 0.77259 0.29531 0.0
H472 H 0.62692 0.75676 0.23201 0.0
H473 H 0.63443 0.74811 0.1753 0.0
H474 H 0.75265 0.83189 0.18361 0.0
H475 H 0.74475 0.83999 0.24047 0.0
H476 H 0.61985 0.81201 0.23895 0.0
H477 H 0.60652 0.84815 0.20023 0.0
H478 H 0.71515 0.94349 0.22274 0.0
H479 H 0.72944 0.9067 0.26035 0.0
H480 H 0.61522 0.84726 0.30778 0.0
H481 H 0.61149 0.89986 0.31586 0.0
H482 H 0.73084 0.9643 0.33793 0.0
H483 H 0.73419 0.91159 0.32937 0.0
H484 H 0.60754 0.79048 0.36991 0.0
H485 H 0.59642 0.81567 0.4165 0.0
H486 H 0.7152 0.89568 0.42609 0.0
H487 H 0.72646 0.86916 0.38067 0.0
H488 H 0.60354 0.73151 0.35018 0.0
H489 H 0.58844 0.6913 0.39888 0.0
H490 H 0.70647 0.74476 0.42403 0.0
H491 H 0.72145 0.78569 0.37566 0.0
O492 O 0.66887 0.75904 0.12257 0.0
O493 O 0.72923 0.80308 0.12779 0.0
O494 O 0.63894 0.96604 0.3289 0.0
O495 O 0.7 6e-05 0.34147 0.0
C496 C 0.67628 0.78093 0.30043 0.0
C497 C 0.6806 0.80526 0.27435 0.0
C498 C 0.67977 0.83601 0.28022 0.0
C499 C 0.67715 0.84393 0.3124 0.0
C500 C 0.67336 0.82006 0.33865 0.0
C501 C 0.67187 0.788 0.33251 0.0
C502 C 0.6745 0.74744 0.29293 0.0
C503 C 0.64 0.71679 0.28317 0.0
C504 C 0.63903 0.68986 0.26582 0.0
C505 C 0.6725 0.69288 0.25857 0.0
C506 C 0.70671 0.72153 0.27154 0.0
C507 C 0.70775 0.74896 0.28821 0.0
C508 C 0.68542 0.79859 0.24047 0.0
C509 C 0.65452 0.77282 0.22169 0.0
C510 C 0.65883 0.76818 0.1892 0.0
C511 C 0.69413 0.78939 0.17487 0.0
C512 C 0.72507 0.81515 0.19387 0.0
C513 C 0.72069 0.81973 0.22636 0.0
C514 C 0.6756 0.85675 0.25245 0.0
C515 C 0.64147 0.84033 0.23452 0.0
C516 C 0.6338 0.86092 0.21258 0.0
C517 C 0.65981 0.89839 0.20887 0.0
C518 C 0.69489 0.91454 0.22528 0.0
C519 C 0.70291 0.89368 0.24676 0.0
C520 C 0.67491 0.87565 0.31821 0.0
C521 C 0.64047 0.87277 0.31442 0.0
C522 C 0.63848 0.90287 0.31892 0.0
C523 C 0.67089 0.93632 0.32751 0.0
C524 C 0.70534 0.93898 0.33137 0.0
C525 C 0.70733 0.90891 0.32663 0.0
C526 C 0.66783 0.82796 0.3719 0.0
C527 C 0.63134 0.81222 0.38309 0.0
C528 C 0.62498 0.82676 0.4095 0.0
C529 C 0.65494 0.8579 0.42438 0.0
C530 C 0.69171 0.87174 0.4149 0.0
C531 C 0.69813 0.8566 0.38905 0.0
C532 C 0.66355 0.76124 0.35946 0.0
C533 C 0.62612 0.73425 0.36603 0.0
C534 C 0.61754 0.71155 0.39377 0.0
C535 C 0.64636 0.7153 0.41503 0.0
C536 C 0.68392 0.74165 0.40791 0.0
C537 C 0.69246 0.76472 0.38035 0.0
C538 C 0.69861 0.78441 0.14035 0.0
C539 C 0.66883 0.96827 0.33262 0.0
H540 H 0.81265 0.61798 0.61551 0.0
H541 H 0.04838 0.53072 0.83874 0.0
H542 H 0.85364 0.65539 0.81862 0.0
H543 H 0.81432 0.67481 0.79079 0.0
H544 H 0.73257 0.5642 0.76522 0.0
H545 H 0.77116 0.5448 0.79341 0.0
H546 H 0.87967 0.6424 0.74749 0.0
H547 H 0.85882 0.64308 0.69079 0.0
H548 H 0.78497 0.52614 0.69603 0.0
H549 H 0.80739 0.52578 0.75226 0.0
H550 H 0.92801 0.61948 0.73992 0.0
H551 H 0.9524 0.60249 0.69633 0.0
H552 H 0.90481 0.49603 0.742 0.0
H553 H 0.87709 0.51172 0.78324 0.0
H554 H 0.97544 0.63119 0.81119 0.0
H555 H 0.02992 0.626 0.81295 0.0
H556 H 0.95894 0.51313 0.84336 0.0
H557 H 0.90509 0.5192 0.84305 0.0
H558 H 0.95406 0.6364 0.876 0.0
H559 H 0.99288 0.62919 0.91784 0.0
H560 H 0.89893 0.52184 0.94245 0.0
H561 H 0.86062 0.52821 0.89872 0.0
H562 H 0.88014 0.62262 0.90564 0.0
H563 H 0.84239 0.61126 0.95323 0.0
H564 H 0.7424 0.53462 0.89863 0.0
H565 H 0.78059 0.5405 0.85396 0.0
O566 O 0.82103 0.61699 0.63772 0.0
O567 O 0.78249 0.55699 0.64206 0.0
O568 O 0.06255 0.59161 0.8219 0.0
O569 O 0.02739 0.53362 0.83815 0.0
C570 C 0.84361 0.589 0.8148 0.0
C571 C 0.85906 0.58364 0.78768 0.0
C572 C 0.88773 0.57704 0.79244 0.0
C573 C 0.90321 0.57851 0.82392 0.0
C574 C 0.88732 0.58257 0.85149 0.0
C575 C 0.85591 0.58602 0.8472 0.0
C576 C 0.81532 0.59866 0.80805 0.0
C577 C 0.82644 0.63514 0.80834 0.0
C578 C 0.8042 0.64626 0.79231 0.0
C579 C 0.77091 0.62096 0.77556 0.0
C580 C 0.75825 0.58411 0.77789 0.0
C581 C 0.78017 0.57302 0.79411 0.0
C582 C 0.84477 0.58409 0.75394 0.0
C583 C 0.85893 0.617 0.73633 0.0
C584 C 0.847 0.61727 0.70396 0.0
C585 C 0.8199 0.5847 0.68899 0.0
C586 C 0.80568 0.55174 0.70688 0.0
C587 C 0.8183 0.55144 0.73899 0.0
C588 C 0.9008 0.56681 0.76474 0.0
C589 C 0.92193 0.59219 0.73992 0.0
C590 C 0.93615 0.58263 0.71535 0.0
C591 C 0.9308 0.54814 0.71619 0.0
C592 C 0.90937 0.52279 0.74093 0.0
C593 C 0.89376 0.53178 0.7645 0.0
C594 C 0.93652 0.57572 0.82747 0.0
C595 C 0.97192 0.60556 0.81881 0.0
C596 C 0.0029 0.60245 0.81964 0.0
C597 C 0.99883 0.56919 0.82859 0.0
C598 C 0.96315 0.53924 0.83678 0.0
C599 C 0.93236 0.54263 0.83673 0.0
C600 C 0.90462 0.58269 0.88402 0.0
C601 C 0.9414 0.61173 0.89107 0.0
C602 C 0.96363 0.60752 0.91479 0.0
C603 C 0.9491 0.5746 0.93261 0.0
C604 C 0.91081 0.54723 0.92854 0.0
C605 C 0.88885 0.55098 0.90389 0.0
C606 C 0.83348 0.58261 0.87568 0.0
C607 C 0.85027 0.60259 0.90412 0.0
C608 C 0.82857 0.59658 0.93119 0.0
C609 C 0.7893 0.57236 0.92958 0.0
C610 C 0.77253 0.55353 0.90069 0.0
C611 C 0.7944 0.55754 0.87473 0.0
C612 C 0.80661 0.58523 0.65487 0.0
C613 C 0.03158 0.56563 0.82929 0.0
H614 H 0.29937 0.81594 0.55527 0.0
H615 H 0.09456 0.56768 0.26998 0.0
H616 H 0.31695 0.86763 0.39272 0.0
H617 H 0.37286 0.90831 0.42591 0.0
H618 H 0.43854 0.884 0.36938 0.0
H619 H 0.38161 0.83927 0.33951 0.0
H620 H 0.24492 0.79718 0.41922 0.0
H621 H 0.25846 0.80515 0.47796 0.0
H622 H 0.356 0.80004 0.46754 0.0
H623 H 0.34181 0.7915 0.40892 0.0
H624 H 0.17836 0.72946 0.37404 0.0
H625 H 0.13687 0.67646 0.4094 0.0
H626 H 0.22979 0.66626 0.43818 0.0
H627 H 0.2707 0.718 0.40191 0.0
H628 H 0.18528 0.7454 0.29403 0.0
H629 H 0.1315 0.69026 0.27082 0.0
H630 H 0.17713 0.62886 0.31121 0.0
H631 H 0.23101 0.68428 0.33385 0.0
H632 H 0.25124 0.80727 0.25352 0.0
H633 H 0.23451 0.78321 0.19793 0.0
H634 H 0.26403 0.70595 0.22705 0.0
H635 H 0.28197 0.73072 0.2816 0.0
H636 H 0.31948 0.88128 0.30782 0.0
H637 H 0.36402 0.92852 0.26939 0.0
H638 H 0.39022 0.85413 0.23552 0.0
H639 H 0.34725 0.80763 0.27489 0.0
O640 O 0.29432 0.81237 0.53203 0.0
O641 O 0.34444 0.81005 0.52529 0.0
O642 O 0.09338 0.62274 0.25853 0.0
O643 O 0.11529 0.5898 0.27923 0.0
C644 C 0.30966 0.81742 0.35157 0.0
C645 C 0.28454 0.78989 0.37395 0.0
C646 C 0.25228 0.75778 0.36233 0.0
C647 C 0.24541 0.75282 0.32844 0.0
C648 C 0.27134 0.77947 0.3062 0.0
C649 C 0.30296 0.81226 0.31753 0.0
C650 C 0.34488 0.84972 0.36424 0.0
C651 C 0.34341 0.87119 0.38734 0.0
C652 C 0.37528 0.89445 0.40617 0.0
C653 C 0.40958 0.89836 0.40061 0.0
C654 C 0.41212 0.88073 0.37442 0.0
C655 C 0.37974 0.85564 0.35705 0.0
C656 C 0.29249 0.79398 0.40978 0.0
C657 C 0.26908 0.79759 0.42971 0.0
C658 C 0.27694 0.80224 0.46324 0.0
C659 C 0.3084 0.80337 0.47743 0.0
C660 C 0.3316 0.79938 0.45739 0.0
C661 C 0.32361 0.79456 0.4239 0.0
C662 C 0.22761 0.72773 0.38557 0.0
C663 C 0.18976 0.71587 0.3881 0.0
C664 C 0.1662 0.68582 0.40822 0.0
C665 C 0.18043 0.66769 0.42641 0.0
C666 C 0.21843 0.68007 0.42442 0.0
C667 C 0.24175 0.70964 0.40394 0.0
C668 C 0.21187 0.7188 0.31586 0.0
C669 C 0.18349 0.71998 0.29796 0.0
C670 C 0.15284 0.68845 0.28472 0.0
C671 C 0.15002 0.65513 0.28916 0.0
C672 C 0.1784 0.65404 0.30734 0.0
C673 C 0.20911 0.68561 0.32048 0.0
C674 C 0.26723 0.77027 0.2715 0.0
C675 C 0.25497 0.78583 0.2475 0.0
C676 C 0.24539 0.77212 0.21604 0.0
C677 C 0.24744 0.74243 0.20884 0.0
C678 C 0.26198 0.72863 0.23234 0.0
C679 C 0.27212 0.74267 0.26335 0.0
C680 C 0.32953 0.84071 0.29385 0.0
C681 C 0.33487 0.87519 0.29216 0.0
C682 C 0.36016 0.90205 0.27027 0.0
C683 C 0.38008 0.89465 0.24941 0.0
C684 C 0.37488 0.86026 0.25121 0.0
C685 C 0.35013 0.83366 0.27345 0.0
C686 C 0.31692 0.80877 0.51299 0.0
C687 C 0.1178 0.62168 0.27469 0.0
H688 H 0.51386 0.29362 0.57257 0.0
H689 H 0.45017 0.0092 0.83198 0.0
H690 H 0.54551 0.31462 0.74917 0.0
H691 H 0.5504 0.36531 0.71689 0.0
H692 H 0.43472 0.3244 0.73513 0.0
H693 H 0.42956 0.27261 0.76708 0.0
H694 H 0.5383 0.25872 0.70744 0.0
H695 H 0.5387 0.27584 0.6496 0.0
H696 H 0.42318 0.24379 0.65446 0.0
H697 H 0.42308 0.22646 0.71222 0.0
H698 H 0.54379 0.20136 0.75175 0.0
H699 H 0.55453 0.16961 0.71099 0.0
H700 H 0.44204 0.12475 0.67162 0.0
H701 H 0.43102 0.15629 0.71294 0.0
H702 H 0.53858 0.18961 0.82199 0.0
H703 H 0.53919 0.13548 0.8377 0.0
H704 H 0.42398 0.0678 0.80285 0.0
H705 H 0.42386 0.12218 0.78703 0.0
H706 H 0.54178 0.25203 0.85925 0.0
H707 H 0.54904 0.23135 0.91439 0.0
H708 H 0.4356 0.13784 0.90739 0.0
H709 H 0.42795 0.159 0.85265 0.0
H710 H 0.54452 0.31671 0.81461 0.0
H711 H 0.55754 0.35737 0.85898 0.0
H712 H 0.4512 0.27726 0.90075 0.0
H713 H 0.43714 0.23729 0.85519 0.0
O714 O 0.51289 0.28608 0.59531 0.0
O715 O 0.45362 0.26959 0.59921 0.0
O716 O 0.50964 0.06707 0.84421 0.0
O717 O 0.45072 0.03105 0.82591 0.0
C718 C 0.48277 0.25572 0.77268 0.0
C719 C 0.48086 0.23221 0.74937 0.0
C720 C 0.48126 0.20139 0.75968 0.0
C721 C 0.48103 0.19262 0.79328 0.0
C722 C 0.48219 0.21566 0.81673 0.0
C723 C 0.48393 0.24784 0.8065 0.0
C724 C 0.48729 0.29018 0.76062 0.0
C725 C 0.52145 0.31699 0.74691 0.0
C726 C 0.52407 0.34557 0.72821 0.0
C727 C 0.49269 0.34807 0.72315 0.0
C728 C 0.45901 0.3225 0.73846 0.0
C729 C 0.45625 0.29344 0.75701 0.0
C730 C 0.4806 0.2412 0.71392 0.0
C731 C 0.51301 0.25509 0.69585 0.0
C732 C 0.5132 0.265 0.66287 0.0
C733 C 0.48099 0.26127 0.64742 0.0
C734 C 0.44846 0.24701 0.6656 0.0
C735 C 0.4483 0.23709 0.69857 0.0
C736 C 0.48651 0.1808 0.73549 0.0
C737 C 0.52128 0.18436 0.73461 0.0
C738 C 0.52748 0.16649 0.71132 0.0
C739 C 0.49905 0.14493 0.68847 0.0
C740 C 0.4642 0.14129 0.6892 0.0
C741 C 0.45794 0.15914 0.71267 0.0
C742 C 0.48105 0.15976 0.80371 0.0
C743 C 0.51344 0.16306 0.81799 0.0
C744 C 0.51373 0.1321 0.82682 0.0
C745 C 0.48154 0.09729 0.82171 0.0
C746 C 0.44919 0.09417 0.80727 0.0
C747 C 0.44901 0.12516 0.79826 0.0
C748 C 0.48438 0.2069 0.85193 0.0
C749 C 0.51809 0.22775 0.87003 0.0
C750 C 0.52225 0.21599 0.90136 0.0
C751 C 0.49288 0.18304 0.91469 0.0
C752 C 0.45845 0.16337 0.89743 0.0
C753 C 0.45416 0.17534 0.86628 0.0
C754 C 0.4896 0.27411 0.83125 0.0
C755 C 0.52337 0.30834 0.8326 0.0
C756 C 0.53101 0.33138 0.85813 0.0
C757 C 0.5054 0.32031 0.88321 0.0
C758 C 0.47128 0.28638 0.88159 0.0
C759 C 0.46328 0.26364 0.85563 0.0
C760 C 0.48151 0.27249 0.61255 0.0
C761 C 0.48164 0.06434 0.83132 0.0
C762 C 0.24484 0.50933 0.07841 0.0
C763 C 0.23009 0.53027 0.08536 0.0
C764 C 0.25562 0.53776 0.14127 0.0
C765 C 0.27172 0.51781 0.13427 0.0
N766 N 0.28988 0.49314 0.09373 0.0
N767 N 0.231 0.57331 0.11958 0.0
C768 C 0.26898 0.50635 0.10196 0.0
C769 C 0.23902 0.54768 0.11549 0.0
N770 N 0.23453 0.49109 0.04996 0.0
N771 N 0.25344 0.54491 0.17274 0.0
H772 H 0.21901 0.58122 0.10091 0.0
H773 H 0.23986 0.5893 0.14006 0.0
H774 H 0.26338 0.53674 0.1928 0.0
H775 H 0.23827 0.55572 0.17925 0.0
H776 H 0.24086 0.47206 0.04517 0.0
H777 H 0.2176 0.49338 0.03193 0.0
H778 H 0.29158 0.48731 0.06989 0.0
H779 H 0.30843 0.49142 0.11026 0.0
C780 C 0.73661 0.06646 0.64274 0.0
C781 C 0.70562 0.0702 0.63771 0.0
C782 C 0.72191 0.10225 0.68833 0.0
C783 C 0.75635 0.10443 0.69068 0.0
N784 N 0.79886 0.09179 0.66763 0.0
N785 N 0.67919 0.10477 0.64975 0.0
C786 C 0.76441 0.08715 0.66732 0.0
C787 C 0.70096 0.09164 0.65886 0.0
N788 N 0.7396 0.04357 0.624 0.0
N789 N 0.7094 0.11083 0.714 0.0
H790 H 0.66967 0.10398 0.62577 0.0
H791 H 0.67664 0.12203 0.66416 0.0
H792 H 0.72361 0.11774 0.7366 0.0
H793 H 0.68296 0.10704 0.71372 0.0
H794 H 0.7597 0.03719 0.62858 0.0
H795 H 0.72026 0.02909 0.60522 0.0
H796 H 0.80745 0.08273 0.64928 0.0
H797 H 0.8199 0.10716 0.68497 0.0
C798 C 0.68414 0.65706 0.18042 0.0
C799 C 0.6598 0.61916 0.18627 0.0
C800 C 0.65285 0.6303 0.24268 0.0
C801 C 0.67155 0.66794 0.23479 0.0
N802 N 0.70153 0.71698 0.1944 0.0
N803 N 0.619 0.56917 0.22285 0.0
C804 C 0.68665 0.68138 0.20329 0.0
C805 C 0.64393 0.60554 0.21752 0.0
N806 N 0.70539 0.66981 0.15319 0.0
N807 N 0.64418 0.61834 0.27437 0.0
H808 H 0.61209 0.54992 0.20552 0.0
H809 H 0.603 0.5582 0.24366 0.0
H810 H 0.65069 0.63589 0.29333 0.0
H811 H 0.63391 0.59172 0.28234 0.0
H812 H 0.7264 0.69703 0.1492 0.0
H813 H 0.70478 0.65267 0.13626 0.0
H814 H 0.70896 0.72716 0.1706 0.0
H815 H 0.70355 0.73585 0.20999 0.0
C816 C 0.94189 0.49328 0.65527 0.0
C817 C 0.98056 0.5163 0.64824 0.0
C818 C 0.9875 0.55896 0.68811 0.0
C819 C 0.94798 0.53836 0.69165 0.0
N820 N 0.88686 0.4908 0.67145 0.0
N821 N 0.03792 0.57568 0.6521 0.0
C822 C 0.9249 0.50701 0.67298 0.0
C823 C 0.00276 0.55061 0.66286 0.0
N824 N 0.92171 0.45782 0.64654 0.0
N825 N 0.01069 0.58522 0.70969 0.0
H826 H 0.04954 0.57124 0.63264 0.0
H827 H 0.05374 0.60221 0.66017 0.0
H828 H 0.00094 0.59095 0.72971 0.0
H829 H 0.03982 0.5985 0.70971 0.0
H830 H 0.89429 0.43933 0.65382 0.0
H831 H 0.93357 0.44587 0.63534 0.0
H832 H 0.86927 0.46969 0.65586 0.0
H833 H 0.87342 0.50103 0.68296 0.0
C834 C 0.41926 0.96198 0.17675 0.0
C835 C 0.45695 0.9715 0.17786 0.0
C836 C 0.44573 0.9369 0.22965 0.0
C837 C 0.4068 0.92286 0.22575 0.0
N838 N 0.35551 0.91822 0.19295 0.0
N839 N 0.50565 0.96542 0.20363 0.0
C840 C 0.39326 0.93456 0.1987 0.0
C841 C 0.47017 0.95838 0.20394 0.0
N842 N 0.40843 0.97934 0.15482 0.0
N843 N 0.45946 0.93047 0.25829 0.0
H844 H 0.52448 0.98119 0.18534 0.0
H845 H 0.51545 0.9534 0.22017 0.0
H846 H 0.44245 0.91539 0.27786 0.0
H847 H 0.48801 0.94294 0.26387 0.0
H848 H 0.38231 0.97611 0.15498 0.0
H849 H 0.42683 0.99951 0.13836 0.0
H850 H 0.34404 0.92291 0.17168 0.0
H851 H 0.33542 0.89751 0.20802 0.0
C852 C 0.53917 0.44264 0.689 0.0
C853 C 0.5224 0.43773 0.65716 0.0
C854 C 0.48158 0.37243 0.66952 0.0
C855 C 0.49661 0.37837 0.70204 0.0
N856 N 0.53096 0.42019 0.74505 0.0
N857 N 0.47317 0.39885 0.61885 0.0
C858 C 0.52216 0.41397 0.71256 0.0
C859 C 0.49191 0.40288 0.64804 0.0
N860 N 0.57302 0.47333 0.69617 0.0
N861 N 0.45914 0.33789 0.65865 0.0
H862 H 0.48087 0.42041 0.60216 0.0
H863 H 0.44845 0.37476 0.61231 0.0
H864 H 0.45055 0.315 0.67376 0.0
H865 H 0.45104 0.332 0.63421 0.0
H866 H 0.58744 0.47695 0.71846 0.0
H867 H 0.58948 0.49236 0.67836 0.0
H868 H 0.54711 0.44619 0.75428 0.0
H869 H 0.51875 0.39942 0.76292 0.0
C870 C 0.65754 0.90764 0.49891 0.0
C871 C 0.63718 0.92296 0.48645 0.0
C872 C 0.62979 0.89678 0.43332 0.0
C873 C 0.64756 0.87905 0.44636 0.0
N874 N 0.67248 0.86233 0.49304 0.0
N875 N 0.59664 0.92531 0.44426 0.0
C876 C 0.65974 0.88294 0.47966 0.0
C877 C 0.6211 0.91545 0.45439 0.0
N878 N 0.67585 0.91768 0.52862 0.0
N879 N 0.62279 0.89735 0.40046 0.0
H880 H 0.58949 0.93913 0.45887 0.0
H881 H 0.58074 0.91682 0.42255 0.0
H882 H 0.62914 0.88451 0.38396 0.0
H883 H 0.61395 0.91335 0.3892 0.0
H884 H 0.69439 0.91049 0.53754 0.0
H885 H 0.67486 0.93568 0.54333 0.0
H886 H 0.67825 0.86119 0.51791 0.0
H887 H 0.67415 0.84385 0.47964 0.0
C888 C 0.70882 0.52221 0.9883 0.0
C889 C 0.71297 0.55087 0.00621 0.0
C890 C 0.7671 0.5945 0.97363 0.0
C891 C 0.76525 0.56551 0.95798 0.0
N892 N 0.74148 0.50144 0.95985 0.0
N893 N 0.7531 0.61303 0.02233 0.0
C894 C 0.73831 0.5292 0.96827 0.0
C895 C 0.74464 0.5866 0.00114 0.0
N896 N 0.67635 0.48861 0.9894 0.0
N897 N 0.78799 0.62919 0.96113 0.0
H898 H 0.73727 0.60801 0.04283 0.0
H899 H 0.7777 0.6388 0.02111 0.0
H900 H 0.80246 0.63601 0.93951 0.0
H901 H 0.78735 0.65046 0.97025 0.0
H902 H 0.67101 0.46795 0.97427 0.0
H903 H 0.65342 0.48252 0.00287 0.0
H904 H 0.7241 0.47494 0.96898 0.0
H905 H 0.76413 0.50574 0.94702 0.0
C906 C 0.11642 0.60524 0.49445 0.0
C907 C 0.11301 0.57246 0.48721 0.0
C908 C 0.14798 0.60072 0.43732 0.0
C909 C 0.15542 0.63466 0.44661 0.0
N910 N 0.15133 0.67061 0.48639 0.0
N911 N 0.13045 0.54015 0.45488 0.0
C912 C 0.14072 0.63733 0.47577 0.0
C913 C 0.13014 0.57048 0.45948 0.0
N914 N 0.09619 0.60557 0.51899 0.0
N915 N 0.15695 0.59713 0.4069 0.0
H916 H 0.11749 0.5173 0.47052 0.0
H917 H 0.14633 0.5389 0.43722 0.0
H918 H 0.16935 0.61854 0.38968 0.0
H919 H 0.14878 0.57221 0.39763 0.0
H920 H 0.09446 0.62769 0.52325 0.0
H921 H 0.07862 0.58263 0.53348 0.0
H922 H 0.14477 0.67455 0.50919 0.0
H923 H 0.16938 0.69479 0.47356 0.0
C924 C 0.48562 0.14485 0.00156 0.0
C925 C 0.50793 0.13017 0.9997 0.0
C926 C 0.52034 0.15023 0.94238 0.0
C927 C 0.49959 0.16657 0.94456 0.0
N928 N 0.46759 0.18488 0.97696 0.0
N929 N 0.55274 0.12504 0.97098 0.0
C930 C 0.48373 0.16552 0.97444 0.0
C931 C 0.52724 0.13481 0.9709 0.0
N932 N 0.46547 0.13809 0.02884 0.0
N933 N 0.53199 0.14795 0.91274 0.0
H934 H 0.55818 0.11297 0.99121 0.0
H935 H 0.57087 0.13166 0.95197 0.0
H936 H 0.52796 0.15926 0.8912 0.0
H937 H 0.54298 0.13238 0.90896 0.0
H938 H 0.44553 0.14462 0.03046 0.0
H939 H 0.46696 0.12372 0.04933 0.0
H940 H 0.45872 0.18818 0.99885 0.0
H941 H 0.46573 0.20016 0.95745 0.0
C942 C 0.47905 0.51954 0.44832 0.0
C943 C 0.48784 0.49448 0.46177 0.0
C944 C 0.46092 0.45907 0.41201 0.0
C945 C 0.44753 0.4813 0.4009 0.0
N946 N 0.44 0.53058 0.4132 0.0
N947 N 0.48031 0.43622 0.45864 0.0
C948 C 0.45544 0.51074 0.42017 0.0
C949 C 0.47709 0.46313 0.44415 0.0
N950 N 0.49272 0.55201 0.46252 0.0
N951 N 0.45924 0.43477 0.39156 0.0
H952 H 0.49048 0.43734 0.48255 0.0
H953 H 0.46935 0.41121 0.44814 0.0
H954 H 0.44865 0.43182 0.36759 0.0
H955 H 0.47184 0.42037 0.39724 0.0
H956 H 0.48665 0.57084 0.45311 0.0
H957 H 0.51189 0.56122 0.48221 0.0
H958 H 0.42027 0.52528 0.39445 0.0
H959 H 0.42027 0.52528 0.39445 0.0
C960 C 0.04211 0.39024 0.93225 0.0
C961 C 0.05078 0.42598 0.92657 0.0
C962 C 0.01443 0.40785 0.87498 0.0
C963 C 0.00056 0.37107 0.88362 0.0
N964 N 0.9966 0.32672 0.92393 0.0
N965 N 0.04157 0.46838 0.89446 0.0
C966 C 0.01342 0.36202 0.91302 0.0
C967 C 0.0363 0.43487 0.89827 0.0
N968 N 0.06136 0.38329 0.95603 0.0
N969 N 0.00692 0.4169 0.84446 0.0
H970 H 0.05719 0.48897 0.91103 0.0
H971 H 0.02776 0.4747 0.87631 0.0
H972 H 0.9914 0.39766 0.82671 0.0
H973 H 0.01911 0.44363 0.83582 0.0
H974 H 0.05862 0.3583 0.95911 0.0
H975 H 0.08285 0.40354 0.97044 0.0
H976 H 0.00219 0.31931 0.94702 0.0
H977 H 0.97447 0.30491 0.9115 0.0
C978 C 0.01174 0.54016 0.9611 0.0
C979 C 0.03432 0.56566 0.98522 0.0
C980 C 0.99499 0.5907 0.98005 0.0
C981 C 0.97536 0.56836 0.95304 0.0
N982 N 0.96767 0.52413 0.91552 0.0
N983 N 0.05023 0.61732 0.01618 0.0
C984 C 0.98416 0.54342 0.94312 0.0
C985 C 0.02667 0.5915 0.99437 0.0
N986 N 0.01632 0.51245 0.95567 0.0
N987 N 0.98262 0.61037 0.99249 0.0
H988 H 0.07322 0.61818 0.02761 0.0
H989 H 0.04867 0.63935 0.02123 0.0
H990 H 0.95902 0.60971 0.98292 0.0
H991 H 0.99342 0.62458 0.01399 0.0
H992 H 0.99784 0.49048 0.94129 0.0
H993 H 0.03703 0.50979 0.96758 0.0
H994 H 0.97667 0.50948 0.90465 0.0
H995 H 0.94655 0.52459 0.90201 0.0
C996 C 0.48058 0.97266 0.4564 0.0
C997 C 0.50027 0.95732 0.47057 0.0
C998 C 0.45819 0.90176 0.44125 0.0
C999 C 0.44189 0.91897 0.42371 0.0
N1000 N 0.44495 0.97448 0.40933 0.0
N1001 N 0.50934 0.9076 0.47456 0.0
C1002 C 0.45534 0.95559 0.42967 0.0
C1003 C 0.48994 0.92228 0.46193 0.0
N1004 N 0.48449 0.00249 0.46934 0.0
N1005 N 0.44328 0.86547 0.44009 0.0
H1006 H 0.53311 0.92166 0.48983 0.0
H1007 H 0.50228 0.88181 0.46862 0.0
H1008 H 0.41828 0.84718 0.42773 0.0
H1009 H 0.41828 0.84718 0.42773 0.0
H1010 H 0.46791 0.01244 0.46168 0.0
H1011 H 0.50145 0.01498 0.48988 0.0
H1012 H 0.4568 0.00225 0.41111 0.0
H1013 H 0.42765 0.96335 0.3886 0.0
C1014 C 0.50338 0.37935 0.94696 0.0
C1015 C 0.53756 0.39091 0.9647 0.0
C1016 C 0.54641 0.35081 0.93277 0.0
C1017 C 0.51542 0.34358 0.91198 0.0
N1018 N 0.46779 0.35583 0.89629 0.0
N1019 N 0.59526 0.39246 0.97022 0.0
C1020 C 0.49472 0.35911 0.91828 0.0
C1021 C 0.56007 0.37788 0.95652 0.0
N1022 N 0.4786 0.38669 0.95804 0.0
N1023 N 0.56216 0.33105 0.93054 0.0
H1024 H 0.60687 0.41295 0.98713 0.0
H1025 H 0.61428 0.38668 0.96243 0.0
H1026 H 0.55231 0.31026 0.91409 0.0
H1027 H 0.58237 0.33274 0.94725 0.0
H1028 H 0.4517 0.37589 0.94787 0.0
H1029 H 0.48343 0.40049 0.97946 0.0
H1030 H 0.45464 0.36983 0.89798 0.0
H1031 H 0.46105 0.3418 0.87472 0.0
C1032 C 0.13736 0.40629 0.44951 0.0
C1033 C 0.11842 0.42465 0.44621 0.0
C1034 C 0.14164 0.44541 0.39073 0.0
C1035 C 0.16487 0.43168 0.39608 0.0
N1036 N 0.18763 0.4015 0.43127 0.0
N1037 N 0.10452 0.46426 0.41477 0.0
C1038 C 0.16327 0.41246 0.42556 0.0
C1039 C 0.12068 0.44457 0.41694 0.0
N1040 N 0.13006 0.38255 0.47534 0.0
N1041 N 0.13944 0.45897 0.36048 0.0
H1042 H 0.08854 0.46418 0.43313 0.0
H1043 H 0.10911 0.48279 0.39574 0.0
H1044 H 0.15476 0.46026 0.34086 0.0
H1045 H 0.12013 0.46595 0.35401 0.0
H1046 H 0.1402 0.36569 0.47755 0.0
H1047 H 0.11089 0.37723 0.49309 0.0
H1048 H 0.1909 0.39124 0.45379 0.0
H1049 H 0.20666 0.40502 0.41414 0.0
C1050 C 0.67524 0.08273 0.00854 0.0
C1051 C 0.65729 0.10101 0.01459 0.0
C1052 C 0.69872 0.15005 0.97643 0.0
C1053 C 0.7124 0.12905 0.96653 0.0
N1054 N 0.70852 0.0721 0.96954 0.0
N1055 N 0.64766 0.14935 1.00036 0.0
C1056 C 0.69949 0.09453 0.98175 0.0
C1057 C 0.66784 0.13398 0.99746 0.0
N1058 N 0.66916 0.05415 0.02843 0.0
N1059 N 0.71594 0.18569 0.96656 0.0
H1060 H 0.62477 0.13841 0.0155 0.0
H1061 H 0.65168 0.17122 0.98565 0.0
H1062 H 0.73959 0.19885 0.95214 0.0
H1063 H 0.70923 0.20308 0.97551 0.0
H1064 H 0.68426 0.04201 0.02706 0.0
H1065 H 0.65152 0.04482 0.04829 0.0
H1066 H 0.69667 0.04526 0.97767 0.0
H1067 H 0.72498 0.07902 0.94915 0.0
C1068 C 0.63817 0.68424 0.50447 0.0
C1069 C 0.61802 0.64606 0.5015 0.0
C1070 C 0.62112 0.6539 0.44185 0.0
C1071 C 0.63702 0.69156 0.44486 0.0
N1072 N 0.65436 0.74174 0.4789 0.0
N1073 N 0.58629 0.59398 0.46746 0.0
C1074 C 0.64378 0.70655 0.47615 0.0
C1075 C 0.60827 0.63074 0.47015 0.0
N1076 N 0.65323 0.69933 0.53408 0.0
N1077 N 0.61965 0.64048 0.41216 0.0
H1078 H 0.57664 0.57642 0.48779 0.0
H1079 H 0.57487 0.58112 0.4454 0.0
H1080 H 0.62943 0.65671 0.39093 0.0
H1081 H 0.61201 0.61394 0.40906 0.0
H1082 H 0.67147 0.72717 0.53697 0.0
H1083 H 0.65027 0.68391 0.55532 0.0
H1084 H 0.65588 0.75288 0.50112 0.0
H1085 H 0.65823 0.75886 0.45874 0.0
C1086 C 0.50402 0.07278 0.64655 0.0
C1087 C 0.53107 0.09474 0.62279 0.0
C1088 C 0.52921 0.14701 0.63703 0.0
C1089 C 0.50647 0.12642 0.66381 0.0
N1090 N 0.47383 0.07051 0.69585 0.0
N1091 N 0.57113 0.15289 0.59583 0.0
C1092 C 0.49388 0.08934 0.66885 0.0
C1093 C 0.54387 0.13185 0.61787 0.0
N1094 N 0.48796 0.03607 0.6476 0.0
N1095 N 0.53641 0.18092 0.62984 0.0
H1096 H 0.58163 0.14241 0.58068 0.0
H1097 H 0.58495 0.181 0.59381 0.0
H1098 H 0.52608 0.19274 0.6435 0.0
H1099 H 0.54981 0.19609 0.60889 0.0
H1100 H 0.46537 0.01808 0.6621 0.0
H1101 H 0.4951 0.02316 0.6318 0.0
H1102 H 0.46768 0.04481 0.70305 0.0
H1103 H 0.46532 0.08152 0.71247 0.0
C1104 C 0.4545 0.44584 0.138 0.0
C1105 C 0.49345 0.47202 0.14216 0.0
C1106 C 0.48166 0.49174 0.19213 0.0
C1107 C 0.44244 0.46891 0.18571 0.0
N1108 N 0.3914 0.42849 0.14926 0.0
N1109 N 0.54377 0.52395 0.17016 0.0
C1110 C 0.42873 0.44688 0.15783 0.0
C1111 C 0.50695 0.49608 0.16842 0.0
N1112 N 0.44221 0.41996 0.11515 0.0
N1113 N 0.49486 0.50828 0.22144 0.0
H1114 H 0.56363 0.52718 0.15418 0.0
H1115 H 0.5537 0.54544 0.18576 0.0
H1116 H 0.47724 0.50494 0.23991 0.0
H1117 H 0.52314 0.52234 0.22864 0.0
H1118 H 0.41453 0.39792 0.11319 0.0
H1119 H 0.46038 0.41886 0.09993 0.0
H1120 H 0.38043 0.41511 0.12737 0.0
H1121 H 0.37173 0.42934 0.16254 0.0
C1122 C 0.97499 0.37245 0.66462 0.0
C1123 C 0.97727 0.35724 0.63602 0.0
C1124 C 0.93908 0.29649 0.66156 0.0
C1125 C 0.94115 0.31224 0.69157 0.0
N1126 N 0.96956 0.36629 0.72323 0.0
N1127 N 0.96736 0.30516 0.60934 0.0
C1128 C 0.96158 0.35059 0.69357 0.0
C1129 C 0.96111 0.31932 0.6351 0.0
N1130 N 0.9847 0.40758 0.66391 0.0
N1131 N 0.91485 0.26003 0.6577 0.0
H1132 H 0.98318 0.32107 0.58948 0.0
H1133 H 0.95943 0.27821 0.60901 0.0
H1134 H 0.89711 0.24253 0.67596 0.0
H1135 H 0.90967 0.24779 0.63532 0.0
H1136 H 0.98038 0.41911 0.68326 0.0
H1137 H 0.99307 0.42378 0.64264 0.0
H1138 H 0.98728 0.39419 0.72613 0.0
H1139 H 0.96192 0.35132 0.74527 0.0
C1140 C 0.65077 0.9601 0.14538 0.0
C1141 C 0.62053 0.96011 0.15827 0.0
C1142 C 0.62048 0.92456 0.20615 0.0
C1143 C 0.64781 0.92106 0.19169 0.0
N1144 N 0.68596 0.93146 0.14589 0.0
N1145 N 0.57159 0.93654 0.19747 0.0
C1146 C 0.66227 0.93781 0.16083 0.0
C1147 C 0.60398 0.94074 0.18773 0.0
N1148 N 0.66903 0.98204 0.11894 0.0
N1149 N 0.611 0.9133 0.23787 0.0
H1150 H 0.55809 0.94732 0.18419 0.0
H1151 H 0.55614 0.91945 0.21692 0.0
H1152 H 0.6226 0.9014 0.25229 0.0
H1153 H 0.59442 0.91888 0.25078 0.0
H1154 H 0.69368 0.98607 0.11046 0.0
H1155 H 0.66117 0.99854 0.10696 0.0
H1156 H 0.6943 0.93973 0.12191 0.0
H1157 H 0.69511 0.91548 0.15668 0.0
C1158 C 0.73473 0.63225 0.69389 0.0
C1159 C 0.70048 0.62792 0.70216 0.0
C1160 C 0.71765 0.62898 0.76043 0.0
C1161 C 0.75125 0.63244 0.75192 0.0
N1162 N 0.79787 0.65113 0.71154 0.0
N1163 N 0.66458 0.63289 0.74238 0.0
C1164 C 0.76192 0.63902 0.71894 0.0
C1165 C 0.69383 0.63009 0.73525 0.0
N1166 N 0.74018 0.62675 0.6628 0.0
N1167 N 0.70791 0.62319 0.7924 0.0
H1168 H 0.64717 0.63421 0.72419 0.0
H1169 H 0.65977 0.63727 0.76574 0.0
H1170 H 0.72577 0.62393 0.81129 0.0
H1171 H 0.68176 0.61622 0.79998 0.0
H1172 H 0.76273 0.62528 0.65667 0.0
H1173 H 0.72078 0.6204 0.64357 0.0
H1174 H 0.80808 0.65956 0.68804 0.0
H1175 H 0.81847 0.65659 0.72947 0.0
C1176 C 0.24231 0.69443 0.13412 0.0
C1177 C 0.203 0.67312 0.12761 0.0
C1178 C 0.19275 0.70109 0.17206 0.0
C1179 C 0.23218 0.72339 0.17776 0.0
N1180 N 0.29454 0.74841 0.15891 0.0
N1181 N 0.14221 0.66371 0.13376 0.0
C1182 C 0.25698 0.72252 0.15681 0.0
C1183 C 0.17867 0.67901 0.1444 0.0
N1184 N 0.26537 0.68643 0.12035 0.0
N1185 N 0.16865 0.69905 0.19407 0.0
H1186 H 0.13112 0.64776 0.11318 0.0
H1187 H 0.12422 0.66985 0.14331 0.0
H1188 H 0.17753 0.71442 0.21494 0.0
H1189 H 0.13984 0.67986 0.19298 0.0
H1190 H 0.29363 0.69867 0.12706 0.0
H1191 H 0.25569 0.66531 0.10434 0.0
H1192 H 0.31364 0.75105 0.14236 0.0
H1193 H 0.3059 0.76947 0.17531 0.0
loop_
_geom_bond_atom_site_label_1
_geom_bond_atom_site_label_2
_geom_bond_distance
_geom_bond_site_symmetry_2
_ccdc_geom_bond_type
C0 C1 1.443 . S
C0 N4 1.394 . S
C0 C38 1.389 . S
C1 C0 1.443 . S
C1 C2 1.340 1_556 S
C1 H41 0.951 . S
C2 C1 1.340 1_554 S
C2 C3 1.439 . S
C2 H42 0.950 . S
C3 C2 1.439 . S
C3 N4 1.358 1_554 S
C3 C37 1.395 . S
N4 C0 1.394 . S
N4 C3 1.358 1_556 S
N4 Co5 2.009 1_556 S
Co5 N4 2.009 1_554 S
Co5 N6 1.995 . S
Co5 N11 2.010 . S
Co5 N16 1.994 1_554 S
Co5 N21 2.283 . S
Co5 N27 2.282 1_554 S
N6 Co5 1.995 . S
N6 C7 1.376 . S
N6 C10 1.383 . S
C7 N6 1.376 . S
C7 C8 1.446 . S
C7 C37 1.391 . S
C8 C7 1.446 . S
C8 C9 1.339 . S
C8 H43 0.949 . S
C9 C8 1.339 . S
C9 C10 1.439 . S
C9 H44 0.950 . S
C10 N6 1.383 . S
C10 C9 1.439 . S
C10 C39 1.392 . S
N11 Co5 2.010 . S
N11 C12 1.400 . S
N11 C15 1.353 1_554 S
C12 N11 1.400 . S
C12 C13 1.443 . S
C12 C39 1.389 . S
C13 C12 1.443 . S
C13 C14 1.340 1_554 S
C13 H45 0.951 . S
C14 C13 1.340 1_556 S
C14 C15 1.439 . S
C14 H46 0.950 . S
C15 N11 1.353 1_556 S
C15 C14 1.439 . S
C15 C40 1.395 . S
N16 Co5 1.994 1_556 S
N16 C17 1.376 . S
N16 C20 1.383 . S
C17 N16 1.376 . S
C17 C18 1.446 . S
C17 C40 1.391 . S
C18 C17 1.446 . S
C18 C19 1.339 . S
C18 H47 0.949 . S
C19 C18 1.339 . S
C19 C20 1.439 . S
C19 H48 0.950 . S
C20 N16 1.383 . S
C20 C19 1.439 . S
C20 C38 1.392 . S
N21 Co5 2.283 . S
N21 C24 1.332 . S
N21 C26 1.332 . S
C22 C23 1.386 . S
C22 C25 1.388 . S
C23 C22 1.386 . S
C23 C24 1.382 . S
C23 H49 0.950 . S
C24 N21 1.332 . S
C24 C23 1.382 . S
C24 H35 0.952 . S
C25 C22 1.388 . S
C25 C26 1.382 . S
C25 H50 0.950 . S
C26 N21 1.332 . S
C26 C25 1.382 . S
C26 H36 0.948 . S
N27 Co5 2.282 1_556 S
N27 C31 1.332 . S
N27 C32 1.332 . S
C28 C29 1.388 . S
C28 C32 1.382 . S
C28 H51 0.950 . S
C29 C28 1.388 . S
C29 C30 1.386 . S
C30 C29 1.386 . S
C30 C31 1.382 . S
C30 H52 0.950 . S
C31 N27 1.332 . S
C31 C30 1.382 . S
C31 H33 0.952 . S
C32 N27 1.332 . S
C32 C28 1.382 . S
C32 H34 0.948 . S
H33 C31 0.952 . S
H34 C32 0.948 . S
H35 C24 0.952 . S
H36 C26 0.948 . S
C37 C3 1.395 . S
C37 C7 1.391 . S
C38 C0 1.389 . S
C38 C20 1.392 . S
C39 C10 1.392 . S
C39 C12 1.389 . S
C40 C15 1.395 . S
C40 C17 1.391 . S
H41 C1 0.951 . S
H42 C2 0.950 . S
H43 C8 0.949 . S
H44 C9 0.950 . S
H45 C13 0.951 . S
H46 C14 0.950 . S
H47 C18 0.949 . S
H48 C19 0.950 . S
H49 C23 0.950 . S
H50 C25 0.950 . S
H51 C28 0.950 . S
H52 C30 0.950 . S
C53 C54 1.443 . S
C53 N57 1.376 1_545 S
C53 C91 1.389 . S
C54 C53 1.443 . S
C54 C55 1.340 1_545 S
C54 H94 0.951 . S
C55 C54 1.340 1_565 S
C55 C56 1.439 . S
C55 H95 0.950 . S
C56 C55 1.439 . S
C56 N57 1.374 . S
C56 C90 1.395 . S
N57 C53 1.376 1_565 S
N57 C56 1.374 . S
N57 Co58 2.008 1_565 S
Co58 N57 2.008 1_545 S
Co58 N59 1.995 1_545 S
Co58 N64 2.008 . S
Co58 N69 1.995 . S
Co58 N74 2.282 1_545 S
Co58 N80 2.282 . S
N59 Co58 1.995 1_565 S
N59 C60 1.376 . S
N59 C63 1.383 . S
C60 N59 1.376 . S
C60 C61 1.446 . S
C60 C90 1.391 . S
C61 C60 1.446 . S
C61 C62 1.339 . S
C61 H96 0.949 . S
C62 C61 1.339 . S
C62 C63 1.439 . S
C62 H97 0.950 . S
C63 N59 1.383 . S
C63 C62 1.439 . S
C63 C92 1.392 . S
N64 Co58 2.008 . S
N64 C65 1.376 1_545 S
N64 C68 1.374 . S
C65 N64 1.376 1_565 S
C65 C66 1.443 1_565 S
C65 C92 1.389 . S
C66 C65 1.443 1_545 S
C66 C67 1.340 . S
C66 H98 0.951 . S
C67 C66 1.340 . S
C67 C68 1.439 . S
C67 H99 0.950 . S
C68 N64 1.374 . S
C68 C67 1.439 . S
C68 C93 1.395 . S
N69 Co58 1.995 . S
N69 C70 1.376 . S
N69 C73 1.383 . S
C70 N69 1.376 . S
C70 C71 1.446 . S
C70 C93 1.391 . S
C71 C70 1.446 . S
C71 C72 1.339 . S
C71 H100 0.949 . S
C72 C71 1.339 . S
C72 C73 1.439 . S
C72 H101 0.950 . S
C73 N69 1.383 . S
C73 C72 1.439 . S
C73 C91 1.392 . S
N74 Co58 2.282 1_565 S
N74 C77 1.332 . S
N74 C79 1.332 . S
C75 C76 1.386 . S
C75 C78 1.388 . S
C76 C75 1.386 . S
C76 C77 1.382 . S
C76 H102 0.950 . S
C77 N74 1.332 . S
C77 C76 1.382 . S
C77 H88 0.952 1_565 S
C78 C75 1.388 . S
C78 C79 1.382 . S
C78 H103 0.950 . S
C79 N74 1.332 . S
C79 C78 1.382 . S
C79 H89 0.948 . S
N80 Co58 2.282 . S
N80 C84 1.332 . S
N80 C85 1.332 . S
C81 C82 1.388 . S
C81 C85 1.382 . S
C81 H104 0.950 . S
C82 C81 1.388 . S
C82 C83 1.386 . S
C83 C82 1.386 . S
C83 C84 1.382 . S
C83 H105 0.950 . S
C84 N80 1.332 . S
C84 C83 1.382 . S
C84 H86 0.952 1_545 S
C85 N80 1.332 . S
C85 C81 1.382 . S
C85 H87 0.948 . S
H86 C84 0.952 1_565 S
H87 C85 0.948 . S
H88 C77 0.952 1_545 S
H89 C79 0.948 . S
C90 C56 1.395 . S
C90 C60 1.391 . S
C91 C53 1.389 . S
C91 C73 1.392 . S
C92 C63 1.392 . S
C92 C65 1.389 . S
C93 C68 1.395 . S
C93 C70 1.391 . S
H94 C54 0.951 . S
H95 C55 0.950 . S
H96 C61 0.949 . S
H97 C62 0.950 . S
H98 C66 0.951 . S
H99 C67 0.950 . S
H100 C71 0.949 . S
H101 C72 0.950 . S
H102 C76 0.950 . S
H103 C78 0.950 . S
H104 C81 0.950 . S
H105 C83 0.950 . S
C106 C107 1.443 . S
C106 N110 1.376 . S
C106 C144 1.389 . S
C107 C106 1.443 . S
C107 C108 1.340 . S
C107 H147 0.951 1_554 S
C108 C107 1.340 . S
C108 C109 1.439 . S
C108 H148 0.950 1_554 S
C109 C108 1.439 . S
C109 N110 1.374 . S
C109 C143 1.395 . S
N110 C106 1.376 . S
N110 C109 1.374 . S
N110 Co111 2.008 . S
Co111 N110 2.008 . S
Co111 N112 1.995 . S
Co111 N117 2.008 . S
Co111 N122 1.995 . S
Co111 N127 2.282 . S
Co111 N133 2.282 . S
N112 Co111 1.995 . S
N112 C113 1.376 . S
N112 C116 1.383 . S
C113 N112 1.376 . S
C113 C114 1.446 . S
C113 C143 1.391 . S
C114 C113 1.446 . S
C114 C115 1.339 . S
C114 H149 0.949 . S
C115 C114 1.339 . S
C115 C116 1.439 . S
C115 H150 0.950 . S
C116 N112 1.383 . S
C116 C115 1.439 . S
C116 C145 1.392 . S
N117 Co111 2.008 . S
N117 C118 1.376 . S
N117 C121 1.374 . S
C118 N117 1.376 . S
C118 C119 1.443 . S
C118 C145 1.389 . S
C119 C118 1.443 . S
C119 C120 1.340 . S
C119 H151 0.951 . S
C120 C119 1.340 . S
C120 C121 1.439 . S
C120 H152 0.950 . S
C121 N117 1.374 . S
C121 C120 1.439 . S
C121 C146 1.395 . S
N122 Co111 1.995 . S
N122 C123 1.376 . S
N122 C126 1.383 . S
C123 N122 1.376 . S
C123 C124 1.446 . S
C123 C146 1.391 . S
C124 C123 1.446 . S
C124 C125 1.339 . S
C124 H153 0.949 . S
C125 C124 1.339 . S
C125 C126 1.439 . S
C125 H154 0.950 . S
C126 N122 1.383 . S
C126 C125 1.439 . S
C126 C144 1.392 . S
N127 Co111 2.282 . S
N127 C130 1.332 . S
N127 C132 1.332 . S
C128 C129 1.386 . S
C128 C131 1.388 . S
C129 C128 1.386 . S
C129 C130 1.382 . S
C129 H155 0.950 . S
C130 N127 1.332 . S
C130 C129 1.382 . S
C130 H141 0.952 . S
C131 C128 1.388 . S
C131 C132 1.382 . S
C131 H156 0.950 . S
C132 N127 1.332 . S
C132 C131 1.382 . S
C132 H142 0.948 . S
N133 Co111 2.282 . S
N133 C137 1.332 . S
N133 C138 1.332 . S
C134 C135 1.388 . S
C134 C138 1.382 . S
C134 H157 0.950 . S
C135 C134 1.388 . S
C135 C136 1.386 . S
C136 C135 1.386 . S
C136 C137 1.382 . S
C136 H158 0.950 1_554 S
C137 N133 1.332 . S
C137 C136 1.382 . S
C137 H139 0.952 . S
C138 N133 1.332 . S
C138 C134 1.382 . S
C138 H140 0.948 . S
H139 C137 0.952 . S
H140 C138 0.948 . S
H141 C130 0.952 . S
H142 C132 0.948 . S
C143 C109 1.395 . S
C143 C113 1.391 . S
C144 C106 1.389 . S
C144 C126 1.392 . S
C145 C116 1.392 . S
C145 C118 1.389 . S
C146 C121 1.395 . S
C146 C123 1.391 . S
H147 C107 0.951 1_556 S
H148 C108 0.950 1_556 S
H149 C114 0.949 . S
H150 C115 0.950 . S
H151 C119 0.951 . S
H152 C120 0.950 . S
H153 C124 0.949 . S
H154 C125 0.950 . S
H155 C129 0.950 . S
H156 C131 0.950 . S
H157 C134 0.950 . S
H158 C136 0.950 1_556 S
C159 C160 1.443 . S
C159 N163 1.376 . S
C159 C197 1.389 . S
C160 C159 1.443 . S
C160 C161 1.340 . S
C160 H200 0.951 . S
C161 C160 1.340 . S
C161 C162 1.439 . S
C161 H201 0.950 . S
C162 C161 1.439 . S
C162 N163 1.374 . S
C162 C196 1.395 . S
N163 C159 1.376 . S
N163 C162 1.374 . S
N163 Co164 2.008 1_655 S
Co164 N163 2.008 1_455 S
Co164 N165 1.995 1_455 S
Co164 N170 2.008 . S
Co164 N175 1.995 . S
Co164 N180 2.282 . S
Co164 N186 2.282 1_455 S
N165 Co164 1.995 1_655 S
N165 C166 1.376 . S
N165 C169 1.383 1_655 S
C166 N165 1.376 . S
C166 C167 1.446 . S
C166 C196 1.391 . S
C167 C166 1.446 . S
C167 C168 1.339 . S
C167 H202 0.949 . S
C168 C167 1.339 . S
C168 C169 1.439 1_655 S
C168 H203 0.949 1_655 S
C169 N165 1.383 1_455 S
C169 C168 1.439 1_455 S
C169 C198 1.392 . S
N170 Co164 2.008 . S
N170 C171 1.376 . S
N170 C174 1.374 . S
C171 N170 1.376 . S
C171 C172 1.443 . S
C171 C198 1.389 . S
C172 C171 1.443 . S
C172 C173 1.340 . S
C172 H204 0.951 . S
C173 C172 1.340 . S
C173 C174 1.439 . S
C173 H205 0.950 . S
C174 N170 1.374 . S
C174 C173 1.439 . S
C174 C199 1.395 . S
N175 Co164 1.995 . S
N175 C176 1.376 . S
N175 C179 1.383 1_455 S
C176 N175 1.376 . S
C176 C177 1.446 . S
C176 C199 1.391 . S
C177 C176 1.446 . S
C177 C178 1.339 . S
C177 H206 0.949 . S
C178 C177 1.339 . S
C178 C179 1.439 1_455 S
C178 H207 0.950 . S
C179 N175 1.383 1_655 S
C179 C178 1.439 1_655 S
C179 C197 1.392 . S
N180 Co164 2.282 . S
N180 C183 1.332 . S
N180 C185 1.332 . S
C181 C182 1.386 . S
C181 C184 1.388 . S
C182 C181 1.386 . S
C182 C183 1.382 . S
C182 H208 0.950 . S
C183 N180 1.332 . S
C183 C182 1.382 . S
C183 H194 0.952 . S
C184 C181 1.388 . S
C184 C185 1.382 . S
C184 H209 0.950 . S
C185 N180 1.332 . S
C185 C184 1.382 . S
C185 H195 0.948 1_455 S
N186 Co164 2.282 1_655 S
N186 C190 1.332 . S
N186 C191 1.332 . S
C187 C188 1.388 . S
C187 C191 1.382 . S
C187 H210 0.950 . S
C188 C187 1.388 . S
C188 C189 1.386 . S
C189 C188 1.386 . S
C189 C190 1.382 . S
C189 H211 0.950 . S
C190 N186 1.332 . S
C190 C189 1.382 . S
C190 H192 0.952 . S
C191 N186 1.332 . S
C191 C187 1.382 . S
C191 H193 0.948 1_655 S
H192 C190 0.952 . S
H193 C191 0.948 1_455 S
H194 C183 0.952 . S
H195 C185 0.948 1_655 S
C196 C162 1.395 . S
C196 C166 1.391 . S
C197 C159 1.389 . S
C197 C179 1.392 . S
C198 C169 1.392 . S
C198 C171 1.389 . S
C199 C174 1.395 . S
C199 C176 1.391 . S
H200 C160 0.951 . S
H201 C161 0.950 . S
H202 C167 0.949 . S
H203 C168 0.949 1_455 S
H204 C172 0.951 . S
H205 C173 0.950 . S
H206 C177 0.949 . S
H207 C178 0.950 . S
H208 C182 0.950 . S
H209 C184 0.950 . S
H210 C187 0.950 . S
H211 C189 0.950 . S
C212 C213 1.443 . S
C212 N216 1.376 . S
C212 C250 1.389 . S
C213 C212 1.443 . S
C213 C214 1.340 . S
C213 H253 0.951 . S
C214 C213 1.340 . S
C214 C215 1.439 . S
C214 H254 0.950 . S
C215 C214 1.439 . S
C215 N216 1.374 . S
C215 C249 1.395 . S
N216 C212 1.376 . S
N216 C215 1.374 . S
N216 Co217 2.008 . S
Co217 N216 2.008 . S
Co217 N218 1.995 . S
Co217 N223 2.008 . S
Co217 N228 1.995 . S
Co217 N233 2.282 . S
Co217 N239 2.282 . S
N218 Co217 1.995 . S
N218 C219 1.376 . S
N218 C222 1.383 . S
C219 N218 1.376 . S
C219 C220 1.446 . S
C219 C249 1.391 . S
C220 C219 1.446 . S
C220 C221 1.339 . S
C220 H255 0.949 . S
C221 C220 1.339 . S
C221 C222 1.439 . S
C221 H256 0.950 . S
C222 N218 1.383 . S
C222 C221 1.439 . S
C222 C251 1.392 . S
N223 Co217 2.008 . S
N223 C224 1.376 . S
N223 C227 1.374 . S
C224 N223 1.376 . S
C224 C225 1.413 1_554 S
C224 C251 1.389 . S
C225 C224 1.413 1_556 S
C225 C226 1.338 1_556 S
C225 H257 0.979 . S
C226 C225 1.338 1_554 S
C226 C227 1.439 . S
C226 H258 0.950 1_544 S
C227 N223 1.374 . S
C227 C226 1.439 . S
C227 C252 1.395 1_545 S
N228 Co217 1.995 . S
N228 C229 1.376 1_545 S
N228 C232 1.383 1_545 S
C229 N228 1.376 1_565 S
C229 C230 1.446 . S
C229 C252 1.391 . S
C230 C229 1.446 . S
C230 C231 1.339 . S
C230 H259 0.949 . S
C231 C230 1.339 . S
C231 C232 1.439 . S
C231 H260 0.950 . S
C232 N228 1.383 1_565 S
C232 C231 1.439 . S
C232 C250 1.392 1_565 S
N233 Co217 2.282 . S
N233 C236 1.332 . S
N233 C238 1.332 . S
C234 C235 1.386 . S
C234 C237 1.388 . S
C235 C234 1.386 . S
C235 C236 1.382 . S
C235 H261 0.950 1_554 S
C236 N233 1.332 . S
C236 C235 1.382 . S
C236 H247 0.952 . S
C237 C234 1.388 . S
C237 C238 1.382 . S
C237 H262 0.950 . S
C238 N233 1.332 . S
C238 C237 1.382 . S
C238 H248 0.948 . S
N239 Co217 2.282 . S
N239 C243 1.332 . S
N239 C244 1.332 1_545 S
C240 C241 1.388 . S
C240 C244 1.382 . S
C240 H263 0.950 . S
C241 C240 1.388 . S
C241 C242 1.386 1_565 S
C242 C241 1.386 1_545 S
C242 C243 1.382 . S
C242 H264 0.950 . S
C243 N239 1.332 . S
C243 C242 1.382 . S
C243 H245 0.952 . S
C244 N239 1.332 1_565 S
C244 C240 1.382 . S
C244 H246 0.948 . S
H245 C243 0.952 . S
H246 C244 0.948 . S
H247 C236 0.952 . S
H248 C238 0.948 . S
C249 C215 1.395 . S
C249 C219 1.391 . S
C250 C212 1.389 . S
C250 C232 1.392 1_545 S
C251 C222 1.392 . S
C251 C224 1.389 . S
C252 C227 1.395 1_565 S
C252 C229 1.391 . S
H253 C213 0.951 . S
H254 C214 0.950 . S
H255 C220 0.949 . S
H256 C221 0.950 . S
H257 C225 0.979 . S
H258 C226 0.950 1_566 S
H259 C230 0.949 . S
H260 C231 0.950 . S
H261 C235 0.950 1_556 S
H262 C237 0.950 . S
H263 C240 0.950 . S
H264 C242 0.950 . S
C265 C266 1.443 . S
C265 N269 1.376 . S
C265 C303 1.389 . S
C266 C265 1.443 . S
C266 C267 1.340 . S
C266 H306 0.951 . S
C267 C266 1.340 . S
C267 C268 1.439 . S
C267 H307 0.950 . S
C268 C267 1.439 . S
C268 N269 1.374 . S
C268 C302 1.395 . S
N269 C265 1.376 . S
N269 C268 1.374 . S
N269 Co270 2.008 . S
Co270 N269 2.008 . S
Co270 N271 1.995 . S
Co270 N276 2.008 . S
Co270 N281 1.995 . S
Co270 N286 2.282 . S
Co270 N292 2.282 . S
N271 Co270 1.995 . S
N271 C272 1.376 . S
N271 C275 1.383 . S
C272 N271 1.376 . S
C272 C273 1.446 . S
C272 C302 1.391 . S
C273 C272 1.446 . S
C273 C274 1.339 . S
C273 H308 0.949 . S
C274 C273 1.339 . S
C274 C275 1.439 . S
C274 H309 0.950 . S
C275 N271 1.383 . S
C275 C274 1.439 . S
C275 C304 1.392 . S
N276 Co270 2.008 . S
N276 C277 1.376 . S
N276 C280 1.374 . S
C277 N276 1.376 . S
C277 C278 1.443 . S
C277 C304 1.389 . S
C278 C277 1.443 . S
C278 C279 1.340 . S
C278 H310 0.951 . S
C279 C278 1.340 . S
C279 C280 1.439 . S
C279 H311 0.950 . S
C280 N276 1.374 . S
C280 C279 1.439 . S
C280 C305 1.395 . S
N281 Co270 1.995 . S
N281 C282 1.376 . S
N281 C285 1.383 . S
C282 N281 1.376 . S
C282 C283 1.446 . S
C282 C305 1.391 . S
C283 C282 1.446 . S
C283 C284 1.339 . S
C283 H312 0.949 . S
C284 C283 1.339 . S
C284 C285 1.439 . S
C284 H313 0.950 . S
C285 N281 1.383 . S
C285 C284 1.439 . S
C285 C303 1.392 . S
N286 Co270 2.282 . S
N286 C289 1.332 . S
N286 C291 1.332 . S
C287 C288 1.386 . S
C287 C290 1.388 . S
C288 C287 1.386 . S
C288 C289 1.382 . S
C288 H314 0.950 . S
C289 N286 1.332 . S
C289 C288 1.382 . S
C289 H300 0.952 . S
C290 C287 1.388 . S
C290 C291 1.382 . S
C290 H315 0.950 . S
C291 N286 1.332 . S
C291 C290 1.382 . S
C291 H301 0.948 . S
N292 Co270 2.282 . S
N292 C296 1.332 . S
N292 C297 1.332 . S
C293 C294 1.388 . S
C293 C297 1.382 . S
C293 H316 0.950 . S
C294 C293 1.388 . S
C294 C295 1.386 . S
C295 C294 1.386 . S
C295 C296 1.382 . S
C295 H317 0.950 . S
C296 N292 1.332 . S
C296 C295 1.382 . S
C296 H298 0.952 . S
C297 N292 1.332 . S
C297 C293 1.382 . S
C297 H299 0.948 . S
H298 C296 0.952 . S
H299 C297 0.948 . S
H300 C289 0.952 . S
H301 C291 0.948 . S
C302 C268 1.395 . S
C302 C272 1.391 . S
C303 C265 1.389 . S
C303 C285 1.392 . S
C304 C275 1.392 . S
C304 C277 1.389 . S
C305 C280 1.395 . S
C305 C282 1.391 . S
H306 C266 0.951 . S
H307 C267 0.950 . S
H308 C273 0.949 . S
H309 C274 0.950 . S
H310 C278 0.951 . S
H311 C279 0.950 . S
H312 C283 0.949 . S
H313 C284 0.950 . S
H314 C288 0.950 . S
H315 C290 0.950 . S
H316 C293 0.950 . S
H317 C295 0.950 . S
H318 O344 0.856 . S
H319 O347 0.854 . S
H320 C355 0.930 . S
H321 C356 0.930 . S
H322 C358 0.930 . S
H323 C359 0.930 . S
H324 C361 0.931 . S
H325 C362 0.930 . S
H326 C364 0.930 . S
H327 C365 0.929 . S
H328 C367 0.930 . S
H329 C368 0.931 . S
H330 C370 0.930 . S
H331 C371 0.929 . S
H332 C373 0.931 . S
H333 C374 0.930 . S
H334 C376 0.930 . S
H335 C377 0.932 . S
H336 C379 0.930 . S
H337 C380 0.929 . S
H338 C382 0.931 . S
H339 C383 0.930 . S
H340 C385 0.929 . S
H341 C386 0.931 . S
H342 C388 0.930 . S
H343 C389 0.929 . S
O344 H318 0.856 . S
O344 C390 1.300 . S
O345 C390 1.209 . S
O346 C391 1.199 . S
O347 H319 0.854 . S
O347 C391 1.297 . S
C348 C349 1.404 . S
C348 C353 1.397 . S
C348 C354 1.492 . S
C349 C348 1.404 . S
C349 C350 1.396 . S
C349 C360 1.492 . S
C350 C349 1.396 . S
C350 C351 1.397 . S
C350 C366 1.509 . S
C351 C350 1.397 . S
C351 C352 1.412 . S
C351 C372 1.485 . S
C352 C351 1.412 . S
C352 C353 1.388 . S
C352 C378 1.490 . S
C353 C348 1.397 . S
C353 C352 1.388 . S
C353 C384 1.519 . S
C354 C348 1.492 . S
C354 C355 1.363 . S
C354 C359 1.390 . S
C355 H320 0.930 . S
C355 C354 1.363 . S
C355 C356 1.372 . S
C356 H321 0.930 . S
C356 C355 1.372 . S
C356 C357 1.383 . S
C357 C356 1.383 . S
C357 C358 1.395 . S
C358 H322 0.930 . S
C358 C357 1.395 . S
C358 C359 1.362 . S
C359 H323 0.930 . S
C359 C354 1.390 . S
C359 C358 1.362 . S
C360 C349 1.492 . S
C360 C361 1.377 . S
C360 C365 1.397 . S
C361 H324 0.931 . S
C361 C360 1.377 . S
C361 C362 1.376 . S
C362 H325 0.930 . S
C362 C361 1.376 . S
C362 C363 1.376 . S
C363 C362 1.376 . S
C363 C364 1.378 . S
C363 C390 1.486 . S
C364 H326 0.930 . S
C364 C363 1.378 . S
C364 C365 1.376 . S
C365 H327 0.929 . S
C365 C360 1.397 . S
C365 C364 1.376 . S
C366 C350 1.509 . S
C366 C367 1.391 . S
C366 C371 1.386 . S
C367 H328 0.930 . S
C367 C366 1.391 . S
C367 C368 1.375 . S
C368 H329 0.931 . S
C368 C367 1.375 . S
C368 C369 1.375 . S
C369 C368 1.375 . S
C369 C370 1.361 . S
C370 H330 0.930 . S
C370 C369 1.361 . S
C370 C371 1.399 . S
C371 H331 0.929 . S
C371 C366 1.386 . S
C371 C370 1.399 . S
C372 C351 1.485 . S
C372 C373 1.394 . S
C372 C377 1.360 . S
C373 H332 0.931 . S
C373 C372 1.394 . S
C373 C374 1.372 . S
C374 H333 0.930 . S
C374 C373 1.372 . S
C374 C375 1.397 . S
C375 C374 1.397 . S
C375 C376 1.390 . S
C375 C391 1.476 . S
C376 H334 0.930 . S
C376 C375 1.390 . S
C376 C377 1.366 . S
C377 H335 0.932 . S
C377 C372 1.360 . S
C377 C376 1.366 . S
C378 C352 1.490 . S
C378 C379 1.380 . S
C378 C383 1.386 . S
C379 H336 0.930 . S
C379 C378 1.380 . S
C379 C380 1.381 . S
C380 H337 0.929 . S
C380 C379 1.381 . S
C380 C381 1.371 . S
C381 C380 1.371 . S
C381 C382 1.380 . S
C382 H338 0.931 . S
C382 C381 1.380 . S
C382 C383 1.387 . S
C383 H339 0.930 . S
C383 C378 1.386 . S
C383 C382 1.387 . S
C384 C353 1.519 . S
C384 C385 1.377 . S
C384 C389 1.361 . S
C385 H340 0.929 . S
C385 C384 1.377 . S
C385 C386 1.386 . S
C386 H341 0.931 . S
C386 C385 1.386 . S
C386 C387 1.363 . S
C387 C386 1.363 . S
C387 C388 1.385 . S
C388 H342 0.930 . S
C388 C387 1.385 . S
C388 C389 1.396 . S
C389 H343 0.929 . S
C389 C384 1.361 . S
C389 C388 1.396 . S
C390 O344 1.300 . S
C390 O345 1.209 . S
C390 C363 1.486 . S
C391 O346 1.199 . S
C391 O347 1.297 . S
C391 C375 1.476 . S
H392 O418 0.856 . S
H393 O421 0.854 . S
H394 C429 0.930 . S
H395 C430 0.930 . S
H396 C432 0.930 1_455 S
H397 C433 0.930 . S
H398 C435 0.931 . S
H399 C436 0.930 . S
H400 C438 0.930 . S
H401 C439 0.929 . S
H402 C441 0.930 . S
H403 C442 0.931 . S
H404 C444 0.930 . S
H405 C445 0.929 . S
H406 C447 0.931 . S
H407 C448 0.930 . S
H408 C450 0.930 . S
H409 C451 0.932 . S
H410 C453 0.930 . S
H411 C454 0.929 . S
H412 C456 0.931 . S
H413 C457 0.930 . S
H414 C459 0.929 . S
H415 C460 0.931 . S
H416 C462 0.930 . S
H417 C463 0.929 . S
O418 H392 0.856 . S
O418 C464 1.300 1_554 S
O419 C464 1.209 . S
O420 C465 1.199 . S
O421 H393 0.854 . S
O421 C465 1.297 1_565 S
C422 C423 1.404 . S
C422 C427 1.397 . S
C422 C428 1.492 . S
C423 C422 1.404 . S
C423 C424 1.396 . S
C423 C434 1.492 . S
C424 C423 1.396 . S
C424 C425 1.397 . S
C424 C440 1.509 . S
C425 C424 1.397 . S
C425 C426 1.412 . S
C425 C446 1.485 . S
C426 C425 1.412 . S
C426 C427 1.388 . S
C426 C452 1.490 . S
C427 C422 1.397 . S
C427 C426 1.388 . S
C427 C458 1.519 . S
C428 C422 1.492 . S
C428 C429 1.363 . S
C428 C433 1.390 . S
C429 H394 0.930 . S
C429 C428 1.363 . S
C429 C430 1.372 . S
C430 H395 0.930 . S
C430 C429 1.372 . S
C430 C431 1.383 . S
C431 C430 1.383 . S
C431 C432 1.395 . S
C432 H396 0.930 1_655 S
C432 C431 1.395 . S
C432 C433 1.362 . S
C433 H397 0.930 . S
C433 C428 1.390 . S
C433 C432 1.362 . S
C434 C423 1.492 . S
C434 C435 1.377 . S
C434 C439 1.397 . S
C435 H398 0.931 . S
C435 C434 1.377 . S
C435 C436 1.376 . S
C436 H399 0.930 . S
C436 C435 1.376 . S
C436 C437 1.376 . S
C437 C436 1.376 . S
C437 C438 1.378 . S
C437 C464 1.486 . S
C438 H400 0.930 . S
C438 C437 1.378 . S
C438 C439 1.376 . S
C439 H401 0.929 . S
C439 C434 1.397 . S
C439 C438 1.376 . S
C440 C424 1.509 . S
C440 C441 1.391 . S
C440 C445 1.386 . S
C441 H402 0.930 . S
C441 C440 1.391 . S
C441 C442 1.375 . S
C442 H403 0.931 . S
C442 C441 1.375 . S
C442 C443 1.375 . S
C443 C442 1.375 . S
C443 C444 1.361 . S
C444 H404 0.930 . S
C444 C443 1.361 . S
C444 C445 1.399 . S
C445 H405 0.929 . S
C445 C440 1.386 . S
C445 C444 1.399 . S
C446 C425 1.485 . S
C446 C447 1.394 . S
C446 C451 1.360 . S
C447 H406 0.931 . S
C447 C446 1.394 . S
C447 C448 1.372 . S
C448 H407 0.930 . S
C448 C447 1.372 . S
C448 C449 1.397 . S
C449 C448 1.397 . S
C449 C450 1.390 . S
C449 C465 1.476 . S
C450 H408 0.930 . S
C450 C449 1.390 . S
C450 C451 1.366 . S
C451 H409 0.932 . S
C451 C446 1.360 . S
C451 C450 1.366 . S
C452 C426 1.490 . S
C452 C453 1.380 . S
C452 C457 1.386 . S
C453 H410 0.930 . S
C453 C452 1.380 . S
C453 C454 1.381 . S
C454 H411 0.929 . S
C454 C453 1.381 . S
C454 C455 1.371 . S
C455 C454 1.371 . S
C455 C456 1.380 . S
C456 H412 0.931 . S
C456 C455 1.380 . S
C456 C457 1.387 . S
C457 H413 0.930 . S
C457 C452 1.386 . S
C457 C456 1.387 . S
C458 C427 1.519 . S
C458 C459 1.377 . S
C458 C463 1.361 . S
C459 H414 0.929 . S
C459 C458 1.377 . S
C459 C460 1.386 . S
C460 H415 0.931 . S
C460 C459 1.386 . S
C460 C461 1.363 . S
C461 C460 1.363 . S
C461 C462 1.385 . S
C462 H416 0.930 . S
C462 C461 1.385 . S
C462 C463 1.396 . S
C463 H417 0.929 . S
C463 C458 1.361 . S
C463 C462 1.396 . S
C464 O418 1.300 1_556 S
C464 O419 1.209 . S
C464 C437 1.486 . S
C465 O420 1.199 . S
C465 O421 1.297 1_545 S
C465 C449 1.476 . S
H466 O492 0.856 . S
H467 O495 0.854 . S
H468 C503 0.930 . S
H469 C504 0.930 . S
H470 C506 0.930 . S
H471 C507 0.930 . S
H472 C509 0.931 . S
H473 C510 0.930 . S
H474 C512 0.930 . S
H475 C513 0.929 . S
H476 C515 0.930 . S
H477 C516 0.931 . S
H478 C518 0.930 . S
H479 C519 0.929 . S
H480 C521 0.931 . S
H481 C522 0.930 . S
H482 C524 0.930 . S
H483 C525 0.932 . S
H484 C527 0.930 . S
H485 C528 0.929 . S
H486 C530 0.931 . S
H487 C531 0.930 . S
H488 C533 0.929 . S
H489 C534 0.931 . S
H490 C536 0.930 . S
H491 C537 0.929 . S
O492 H466 0.856 . S
O492 C538 1.300 . S
O493 C538 1.209 . S
O494 C539 1.199 . S
O495 H467 0.854 . S
O495 C539 1.297 . S
C496 C497 1.404 . S
C496 C501 1.397 . S
C496 C502 1.492 . S
C497 C496 1.404 . S
C497 C498 1.396 . S
C497 C508 1.492 . S
C498 C497 1.396 . S
C498 C499 1.397 . S
C498 C514 1.509 . S
C499 C498 1.397 . S
C499 C500 1.412 . S
C499 C520 1.485 . S
C500 C499 1.412 . S
C500 C501 1.388 . S
C500 C526 1.490 . S
C501 C496 1.397 . S
C501 C500 1.388 . S
C501 C532 1.519 . S
C502 C496 1.492 . S
C502 C503 1.363 . S
C502 C507 1.390 . S
C503 H468 0.930 . S
C503 C502 1.363 . S
C503 C504 1.372 . S
C504 H469 0.930 . S
C504 C503 1.372 . S
C504 C505 1.383 . S
C505 C504 1.383 . S
C505 C506 1.395 . S
C506 H470 0.930 . S
C506 C505 1.395 . S
C506 C507 1.362 . S
C507 H471 0.930 . S
C507 C502 1.390 . S
C507 C506 1.362 . S
C508 C497 1.492 . S
C508 C509 1.377 . S
C508 C513 1.397 . S
C509 H472 0.931 . S
C509 C508 1.377 . S
C509 C510 1.376 . S
C510 H473 0.930 . S
C510 C509 1.376 . S
C510 C511 1.376 . S
C511 C510 1.376 . S
C511 C512 1.378 . S
C511 C538 1.486 . S
C512 H474 0.930 . S
C512 C511 1.378 . S
C512 C513 1.376 . S
C513 H475 0.929 . S
C513 C508 1.397 . S
C513 C512 1.376 . S
C514 C498 1.509 . S
C514 C515 1.391 . S
C514 C519 1.386 . S
C515 H476 0.930 . S
C515 C514 1.391 . S
C515 C516 1.375 . S
C516 H477 0.931 . S
C516 C515 1.375 . S
C516 C517 1.375 . S
C517 C516 1.375 . S
C517 C518 1.361 . S
C518 H478 0.930 . S
C518 C517 1.361 . S
C518 C519 1.399 . S
C519 H479 0.929 . S
C519 C514 1.386 . S
C519 C518 1.399 . S
C520 C499 1.485 . S
C520 C521 1.394 . S
C520 C525 1.360 . S
C521 H480 0.931 . S
C521 C520 1.394 . S
C521 C522 1.372 . S
C522 H481 0.930 . S
C522 C521 1.372 . S
C522 C523 1.397 . S
C523 C522 1.397 . S
C523 C524 1.390 . S
C523 C539 1.476 1_565 S
C524 H482 0.930 . S
C524 C523 1.390 . S
C524 C525 1.366 . S
C525 H483 0.932 . S
C525 C520 1.360 . S
C525 C524 1.366 . S
C526 C500 1.490 . S
C526 C527 1.380 . S
C526 C531 1.386 . S
C527 H484 0.930 . S
C527 C526 1.380 . S
C527 C528 1.381 . S
C528 H485 0.929 . S
C528 C527 1.381 . S
C528 C529 1.371 . S
C529 C528 1.371 . S
C529 C530 1.380 . S
C530 H486 0.931 . S
C530 C529 1.380 . S
C530 C531 1.387 . S
C531 H487 0.930 . S
C531 C526 1.386 . S
C531 C530 1.387 . S
C532 C501 1.519 . S
C532 C533 1.377 . S
C532 C537 1.361 . S
C533 H488 0.929 . S
C533 C532 1.377 . S
C533 C534 1.386 . S
C534 H489 0.931 . S
C534 C533 1.386 . S
C534 C535 1.363 . S
C535 C534 1.363 . S
C535 C536 1.385 . S
C536 H490 0.930 . S
C536 C535 1.385 . S
C536 C537 1.396 . S
C537 H491 0.929 . S
C537 C532 1.361 . S
C537 C536 1.396 . S
C538 O492 1.300 . S
C538 O493 1.209 . S
C538 C511 1.486 . S
C539 O494 1.199 . S
C539 O495 1.297 . S
C539 C523 1.476 1_545 S
H540 O566 0.856 . S
H541 O569 0.854 . S
H542 C577 0.930 . S
H543 C578 0.930 . S
H544 C580 0.930 . S
H545 C581 0.930 . S
H546 C583 0.931 . S
H547 C584 0.930 . S
H548 C586 0.930 . S
H549 C587 0.929 . S
H550 C589 0.930 . S
H551 C590 0.931 1_455 S
H552 C592 0.930 . S
H553 C593 0.929 . S
H554 C595 0.931 . S
H555 C596 0.930 . S
H556 C598 0.930 . S
H557 C599 0.932 . S
H558 C601 0.930 . S
H559 C602 0.929 . S
H560 C604 0.931 . S
H561 C605 0.930 . S
H562 C607 0.929 . S
H563 C608 0.931 . S
H564 C610 0.930 . S
H565 C611 0.929 . S
O566 H540 0.856 . S
O566 C612 1.300 . S
O567 C612 1.209 . S
O568 C613 1.199 . S
O569 H541 0.854 . S
O569 C613 1.297 . S
C570 C571 1.404 . S
C570 C575 1.397 . S
C570 C576 1.492 . S
C571 C570 1.404 . S
C571 C572 1.396 . S
C571 C582 1.492 . S
C572 C571 1.396 . S
C572 C573 1.397 . S
C572 C588 1.509 . S
C573 C572 1.397 . S
C573 C574 1.412 . S
C573 C594 1.485 . S
C574 C573 1.412 . S
C574 C575 1.388 . S
C574 C600 1.490 . S
C575 C570 1.397 . S
C575 C574 1.388 . S
C575 C606 1.519 . S
C576 C570 1.492 . S
C576 C577 1.363 . S
C576 C581 1.390 . S
C577 H542 0.930 . S
C577 C576 1.363 . S
C577 C578 1.372 . S
C578 H543 0.930 . S
C578 C577 1.372 . S
C578 C579 1.383 . S
C579 C578 1.383 . S
C579 C580 1.395 . S
C580 H544 0.930 . S
C580 C579 1.395 . S
C580 C581 1.362 . S
C581 H545 0.930 . S
C581 C576 1.390 . S
C581 C580 1.362 . S
C582 C571 1.492 . S
C582 C583 1.377 . S
C582 C587 1.397 . S
C583 H546 0.931 . S
C583 C582 1.377 . S
C583 C584 1.376 . S
C584 H547 0.930 . S
C584 C583 1.376 . S
C584 C585 1.376 . S
C585 C584 1.376 . S
C585 C586 1.378 . S
C585 C612 1.486 . S
C586 H548 0.930 . S
C586 C585 1.378 . S
C586 C587 1.376 . S
C587 H549 0.929 . S
C587 C582 1.397 . S
C587 C586 1.376 . S
C588 C572 1.509 . S
C588 C589 1.391 . S
C588 C593 1.386 . S
C589 H550 0.930 . S
C589 C588 1.391 . S
C589 C590 1.375 . S
C590 H551 0.931 1_655 S
C590 C589 1.375 . S
C590 C591 1.375 . S
C591 C590 1.375 . S
C591 C592 1.361 . S
C592 H552 0.930 . S
C592 C591 1.361 . S
C592 C593 1.399 . S
C593 H553 0.929 . S
C593 C588 1.386 . S
C593 C592 1.399 . S
C594 C573 1.485 . S
C594 C595 1.394 1_655 S
C594 C599 1.360 . S
C595 H554 0.931 . S
C595 C594 1.394 1_455 S
C595 C596 1.372 . S
C596 H555 0.930 . S
C596 C595 1.372 . S
C596 C597 1.397 . S
C597 C596 1.397 . S
C597 C598 1.390 1_455 S
C597 C613 1.476 . S
C598 H556 0.930 . S
C598 C597 1.390 1_655 S
C598 C599 1.366 . S
C599 H557 0.932 . S
C599 C594 1.360 . S
C599 C598 1.366 . S
C600 C574 1.490 . S
C600 C601 1.380 . S
C600 C605 1.386 . S
C601 H558 0.930 . S
C601 C600 1.380 . S
C601 C602 1.381 . S
C602 H559 0.929 . S
C602 C601 1.381 . S
C602 C603 1.371 . S
C603 C602 1.371 . S
C603 C604 1.380 . S
C604 H560 0.931 . S
C604 C603 1.380 . S
C604 C605 1.387 . S
C605 H561 0.930 . S
C605 C600 1.386 . S
C605 C604 1.387 . S
C606 C575 1.519 . S
C606 C607 1.377 . S
C606 C611 1.361 . S
C607 H562 0.929 . S
C607 C606 1.377 . S
C607 C608 1.386 . S
C608 H563 0.931 . S
C608 C607 1.386 . S
C608 C609 1.363 . S
C609 C608 1.363 . S
C609 C610 1.385 . S
C610 H564 0.930 . S
C610 C609 1.385 . S
C610 C611 1.396 . S
C611 H565 0.929 . S
C611 C606 1.361 . S
C611 C610 1.396 . S
C612 O566 1.300 . S
C612 O567 1.209 . S
C612 C585 1.486 . S
C613 O568 1.199 . S
C613 O569 1.297 . S
C613 C597 1.476 . S
H614 O640 0.856 . S
H615 O643 0.854 . S
H616 C651 0.930 . S
H617 C652 0.930 . S
H618 C654 0.930 . S
H619 C655 0.930 . S
H620 C657 0.931 . S
H621 C658 0.930 . S
H622 C660 0.930 . S
H623 C661 0.929 . S
H624 C663 0.930 . S
H625 C664 0.931 . S
H626 C666 0.930 . S
H627 C667 0.929 . S
H628 C669 0.931 . S
H629 C670 0.930 . S
H630 C672 0.930 . S
H631 C673 0.932 . S
H632 C675 0.930 . S
H633 C676 0.929 . S
H634 C678 0.931 . S
H635 C679 0.930 . S
H636 C681 0.929 . S
H637 C682 0.931 . S
H638 C684 0.930 . S
H639 C685 0.929 . S
O640 H614 0.856 . S
O640 C686 1.300 . S
O641 C686 1.209 . S
O642 C687 1.199 . S
O643 H615 0.854 . S
O643 C687 1.297 . S
C644 C645 1.404 . S
C644 C649 1.397 . S
C644 C650 1.492 . S
C645 C644 1.404 . S
C645 C646 1.396 . S
C645 C656 1.492 . S
C646 C645 1.396 . S
C646 C647 1.397 . S
C646 C662 1.509 . S
C647 C646 1.397 . S
C647 C648 1.412 . S
C647 C668 1.485 . S
C648 C647 1.412 . S
C648 C649 1.388 . S
C648 C674 1.490 . S
C649 C644 1.397 . S
C649 C648 1.388 . S
C649 C680 1.519 . S
C650 C644 1.492 . S
C650 C651 1.363 . S
C650 C655 1.390 . S
C651 H616 0.930 . S
C651 C650 1.363 . S
C651 C652 1.372 . S
C652 H617 0.930 . S
C652 C651 1.372 . S
C652 C653 1.383 . S
C653 C652 1.383 . S
C653 C654 1.395 . S
C654 H618 0.930 . S
C654 C653 1.395 . S
C654 C655 1.362 . S
C655 H619 0.930 . S
C655 C650 1.390 . S
C655 C654 1.362 . S
C656 C645 1.492 . S
C656 C657 1.377 . S
C656 C661 1.397 . S
C657 H620 0.931 . S
C657 C656 1.377 . S
C657 C658 1.376 . S
C658 H621 0.930 . S
C658 C657 1.376 . S
C658 C659 1.376 . S
C659 C658 1.376 . S
C659 C660 1.378 . S
C659 C686 1.486 . S
C660 H622 0.930 . S
C660 C659 1.378 . S
C660 C661 1.376 . S
C661 H623 0.929 . S
C661 C656 1.397 . S
C661 C660 1.376 . S
C662 C646 1.509 . S
C662 C663 1.391 . S
C662 C667 1.386 . S
C663 H624 0.930 . S
C663 C662 1.391 . S
C663 C664 1.375 . S
C664 H625 0.931 . S
C664 C663 1.375 . S
C664 C665 1.375 . S
C665 C664 1.375 . S
C665 C666 1.361 . S
C666 H626 0.930 . S
C666 C665 1.361 . S
C666 C667 1.399 . S
C667 H627 0.929 . S
C667 C662 1.386 . S
C667 C666 1.399 . S
C668 C647 1.485 . S
C668 C669 1.394 . S
C668 C673 1.360 . S
C669 H628 0.931 . S
C669 C668 1.394 . S
C669 C670 1.372 . S
C670 H629 0.930 . S
C670 C669 1.372 . S
C670 C671 1.397 . S
C671 C670 1.397 . S
C671 C672 1.390 . S
C671 C687 1.476 . S
C672 H630 0.930 . S
C672 C671 1.390 . S
C672 C673 1.366 . S
C673 H631 0.932 . S
C673 C668 1.360 . S
C673 C672 1.366 . S
C674 C648 1.490 . S
C674 C675 1.380 . S
C674 C679 1.386 . S
C675 H632 0.930 . S
C675 C674 1.380 . S
C675 C676 1.381 . S
C676 H633 0.929 . S
C676 C675 1.381 . S
C676 C677 1.371 . S
C677 C676 1.371 . S
C677 C678 1.380 . S
C678 H634 0.931 . S
C678 C677 1.380 . S
C678 C679 1.387 . S
C679 H635 0.930 . S
C679 C674 1.386 . S
C679 C678 1.387 . S
C680 C649 1.519 . S
C680 C681 1.377 . S
C680 C685 1.361 . S
C681 H636 0.929 . S
C681 C680 1.377 . S
C681 C682 1.386 . S
C682 H637 0.931 . S
C682 C681 1.386 . S
C682 C683 1.363 . S
C683 C682 1.363 . S
C683 C684 1.385 . S
C684 H638 0.930 . S
C684 C683 1.385 . S
C684 C685 1.396 . S
C685 H639 0.929 . S
C685 C680 1.361 . S
C685 C684 1.396 . S
C686 O640 1.300 . S
C686 O641 1.209 . S
C686 C659 1.486 . S
C687 O642 1.199 . S
C687 O643 1.297 . S
C687 C671 1.476 . S
H688 O714 0.856 . S
H689 O717 0.854 1_565 S
H690 C725 0.930 . S
H691 C726 0.930 . S
H692 C728 0.930 . S
H693 C729 0.930 . S
H694 C731 0.931 . S
H695 C732 0.930 . S
H696 C734 0.930 . S
H697 C735 0.929 . S
H698 C737 0.930 . S
H699 C738 0.931 . S
H700 C740 0.930 . S
H701 C741 0.929 . S
H702 C743 0.931 . S
H703 C744 0.930 . S
H704 C746 0.930 . S
H705 C747 0.932 . S
H706 C749 0.930 . S
H707 C750 0.929 . S
H708 C752 0.931 . S
H709 C753 0.930 . S
H710 C755 0.929 . S
H711 C756 0.931 . S
H712 C758 0.930 . S
H713 C759 0.929 . S
O714 H688 0.856 . S
O714 C760 1.300 . S
O715 C760 1.209 . S
O716 C761 1.199 . S
O717 H689 0.854 1_545 S
O717 C761 1.297 . S
C718 C719 1.404 . S
C718 C723 1.397 . S
C718 C724 1.492 . S
C719 C718 1.404 . S
C719 C720 1.396 . S
C719 C730 1.492 . S
C720 C719 1.396 . S
C720 C721 1.397 . S
C720 C736 1.509 . S
C721 C720 1.397 . S
C721 C722 1.412 . S
C721 C742 1.485 . S
C722 C721 1.412 . S
C722 C723 1.388 . S
C722 C748 1.490 . S
C723 C718 1.397 . S
C723 C722 1.388 . S
C723 C754 1.519 . S
C724 C718 1.492 . S
C724 C725 1.363 . S
C724 C729 1.390 . S
C725 H690 0.930 . S
C725 C724 1.363 . S
C725 C726 1.372 . S
C726 H691 0.930 . S
C726 C725 1.372 . S
C726 C727 1.383 . S
C727 C726 1.383 . S
C727 C728 1.395 . S
C728 H692 0.930 . S
C728 C727 1.395 . S
C728 C729 1.362 . S
C729 H693 0.930 . S
C729 C724 1.390 . S
C729 C728 1.362 . S
C730 C719 1.492 . S
C730 C731 1.377 . S
C730 C735 1.397 . S
C731 H694 0.931 . S
C731 C730 1.377 . S
C731 C732 1.376 . S
C732 H695 0.930 . S
C732 C731 1.376 . S
C732 C733 1.376 . S
C733 C732 1.376 . S
C733 C734 1.378 . S
C733 C760 1.486 . S
C734 H696 0.930 . S
C734 C733 1.378 . S
C734 C735 1.376 . S
C735 H697 0.929 . S
C735 C730 1.397 . S
C735 C734 1.376 . S
C736 C720 1.509 . S
C736 C737 1.391 . S
C736 C741 1.386 . S
C737 H698 0.930 . S
C737 C736 1.391 . S
C737 C738 1.375 . S
C738 H699 0.931 . S
C738 C737 1.375 . S
C738 C739 1.375 . S
C739 C738 1.375 . S
C739 C740 1.361 . S
C740 H700 0.930 . S
C740 C739 1.361 . S
C740 C741 1.399 . S
C741 H701 0.929 . S
C741 C736 1.386 . S
C741 C740 1.399 . S
C742 C721 1.485 . S
C742 C743 1.394 . S
C742 C747 1.360 . S
C743 H702 0.931 . S
C743 C742 1.394 . S
C743 C744 1.372 . S
C744 H703 0.930 . S
C744 C743 1.372 . S
C744 C745 1.397 . S
C745 C744 1.397 . S
C745 C746 1.390 . S
C745 C761 1.476 . S
C746 H704 0.930 . S
C746 C745 1.390 . S
C746 C747 1.366 . S
C747 H705 0.932 . S
C747 C742 1.360 . S
C747 C746 1.366 . S
C748 C722 1.490 . S
C748 C749 1.380 . S
C748 C753 1.386 . S
C749 H706 0.930 . S
C749 C748 1.380 . S
C749 C750 1.381 . S
C750 H707 0.929 . S
C750 C749 1.381 . S
C750 C751 1.371 . S
C751 C750 1.371 . S
C751 C752 1.380 . S
C752 H708 0.931 . S
C752 C751 1.380 . S
C752 C753 1.387 . S
C753 H709 0.930 . S
C753 C748 1.386 . S
C753 C752 1.387 . S
C754 C723 1.519 . S
C754 C755 1.377 . S
C754 C759 1.361 . S
C755 H710 0.929 . S
C755 C754 1.377 . S
C755 C756 1.386 . S
C756 H711 0.931 . S
C756 C755 1.386 . S
C756 C757 1.363 . S
C757 C756 1.363 . S
C757 C758 1.385 . S
C758 H712 0.930 . S
C758 C757 1.385 . S
C758 C759 1.396 . S
C759 H713 0.929 . S
C759 C754 1.361 . S
C759 C758 1.396 . S
C760 O714 1.300 . S
C760 O715 1.209 . S
C760 C733 1.486 . S
C761 O716 1.199 . S
C761 O717 1.297 . S
C761 C745 1.476 . S
C762 C763 1.363 . S
C762 C768 1.379 . S
C762 N770 1.356 . S
C763 C762 1.363 . S
C763 C769 1.363 . S
C764 C765 1.363 . S
C764 C769 1.379 . S
C764 N771 1.356 . S
C765 C764 1.363 . S
C765 C768 1.363 . S
N766 C768 1.356 . S
N766 H778 0.984 . S
N766 H779 0.985 . S
N767 C769 1.356 . S
N767 H772 0.984 . S
N767 H773 0.985 . S
C768 C762 1.379 . S
C768 C765 1.363 . S
C768 N766 1.356 . S
C769 C763 1.363 . S
C769 C764 1.379 . S
C769 N767 1.356 . S
N770 C762 1.356 . S
N770 H776 0.984 . S
N770 H777 0.984 . S
N771 C764 1.356 . S
N771 H774 0.984 . S
N771 H775 0.985 . S
H772 N767 0.984 . S
H773 N767 0.985 . S
H774 N771 0.984 . S
H775 N771 0.985 . S
H776 N770 0.984 . S
H777 N770 0.984 . S
H778 N766 0.984 . S
H779 N766 0.985 . S
C780 C781 1.363 . S
C780 C786 1.379 . S
C780 N788 1.356 . S
C781 C780 1.363 . S
C781 C787 1.363 . S
C782 C783 1.363 . S
C782 C787 1.379 . S
C782 N789 1.356 . S
C783 C782 1.363 . S
C783 C786 1.363 . S
N784 C786 1.356 . S
N784 H796 0.984 . S
N784 H797 0.985 . S
N785 C787 1.356 . S
N785 H790 0.984 . S
N785 H791 0.985 . S
C786 C780 1.379 . S
C786 C783 1.363 . S
C786 N784 1.356 . S
C787 C781 1.363 . S
C787 C782 1.379 . S
C787 N785 1.356 . S
N788 C780 1.356 . S
N788 H794 0.984 . S
N788 H795 0.984 . S
N789 C782 1.356 . S
N789 H792 0.984 . S
N789 H793 0.985 . S
H790 N785 0.984 . S
H791 N785 0.985 . S
H792 N789 0.984 . S
H793 N789 0.985 . S
H794 N788 0.984 . S
H795 N788 0.984 . S
H796 N784 0.984 . S
H797 N784 0.985 . S
C798 C799 1.363 . S
C798 C804 1.379 . S
C798 N806 1.356 . S
C799 C798 1.363 . S
C799 C805 1.363 . S
C800 C801 1.363 . S
C800 C805 1.379 . S
C800 N807 1.356 . S
C801 C800 1.363 . S
C801 C804 1.363 . S
N802 C804 1.356 . S
N802 H814 0.984 . S
N802 H815 0.985 . S
N803 C805 1.356 . S
N803 H808 0.984 . S
N803 H809 0.985 . S
C804 C798 1.379 . S
C804 C801 1.363 . S
C804 N802 1.356 . S
C805 C799 1.363 . S
C805 C800 1.379 . S
C805 N803 1.356 . S
N806 C798 1.356 . S
N806 H812 0.984 . S
N806 H813 0.984 . S
N807 C800 1.356 . S
N807 H810 0.984 . S
N807 H811 0.985 . S
H808 N803 0.984 . S
H809 N803 0.985 . S
H810 N807 0.984 . S
H811 N807 0.985 . S
H812 N806 0.984 . S
H813 N806 0.984 . S
H814 N802 0.984 . S
H815 N802 0.985 . S
C816 C817 1.363 . S
C816 C822 1.379 . S
C816 N824 1.356 . S
C817 C816 1.363 . S
C817 C823 1.363 . S
C818 C819 1.363 . S
C818 C823 1.379 . S
C818 N825 1.356 1_655 S
C819 C818 1.363 . S
C819 C822 1.363 . S
N820 C822 1.356 . S
N820 H832 0.984 . S
N820 H833 0.985 . S
N821 C823 1.356 . S
N821 H826 0.984 . S
N821 H827 0.985 1_655 S
C822 C816 1.379 . S
C822 C819 1.363 . S
C822 N820 1.356 . S
C823 C817 1.363 . S
C823 C818 1.379 . S
C823 N821 1.356 . S
N824 C816 1.356 . S
N824 H830 0.984 . S
N824 H831 0.984 . S
N825 C818 1.356 1_455 S
N825 H828 0.984 . S
N825 H829 0.985 . S
H826 N821 0.984 . S
H827 N821 0.985 1_455 S
H828 N825 0.984 . S
H829 N825 0.985 . S
H830 N824 0.984 . S
H831 N824 0.984 . S
H832 N820 0.984 . S
H833 N820 0.985 . S
C834 C835 1.363 . S
C834 C840 1.379 . S
C834 N842 1.356 . S
C835 C834 1.363 . S
C835 C841 1.363 . S
C836 C837 1.363 . S
C836 C841 1.379 . S
C836 N843 1.356 . S
C837 C836 1.363 . S
C837 C840 1.363 . S
N838 C840 1.356 . S
N838 H850 0.984 . S
N838 H851 0.985 . S
N839 C841 1.356 1_545 S
N839 H844 0.984 . S
N839 H845 0.985 . S
C840 C834 1.379 . S
C840 C837 1.363 . S
C840 N838 1.356 . S
C841 C835 1.363 . S
C841 C836 1.379 . S
C841 N839 1.356 1_565 S
N842 C834 1.356 . S
N842 H848 0.984 . S
N842 H849 0.984 . S
N843 C836 1.356 . S
N843 H846 0.984 . S
N843 H847 0.985 . S
H844 N839 0.984 . S
H845 N839 0.985 . S
H846 N843 0.984 . S
H847 N843 0.985 . S
H848 N842 0.984 . S
H849 N842 0.984 . S
H850 N838 0.984 . S
H851 N838 0.985 . S
C852 C853 1.363 . S
C852 C858 1.379 . S
C852 N860 1.356 . S
C853 C852 1.363 . S
C853 C859 1.363 . S
C854 C855 1.363 . S
C854 C859 1.379 . S
C854 N861 1.356 . S
C855 C854 1.363 . S
C855 C858 1.363 . S
N856 C858 1.356 . S
N856 H868 0.984 . S
N856 H869 0.985 . S
N857 C859 1.356 . S
N857 H862 0.984 . S
N857 H863 0.985 . S
C858 C852 1.379 . S
C858 C855 1.363 . S
C858 N856 1.356 . S
C859 C853 1.363 . S
C859 C854 1.379 . S
C859 N857 1.356 . S
N860 C852 1.356 . S
N860 H866 0.984 . S
N860 H867 0.984 . S
N861 C854 1.356 . S
N861 H864 0.984 . S
N861 H865 0.985 . S
H862 N857 0.984 . S
H863 N857 0.985 . S
H864 N861 0.984 . S
H865 N861 0.985 . S
H866 N860 0.984 . S
H867 N860 0.984 . S
H868 N856 0.984 . S
H869 N856 0.985 . S
C870 C871 1.363 . S
C870 C876 1.379 . S
C870 N878 1.356 . S
C871 C870 1.363 . S
C871 C877 1.363 . S
C872 C873 1.363 . S
C872 C877 1.379 . S
C872 N879 1.356 . S
C873 C872 1.363 . S
C873 C876 1.363 . S
N874 C876 1.356 . S
N874 H886 0.984 . S
N874 H887 0.985 . S
N875 C877 1.356 . S
N875 H880 0.984 . S
N875 H881 0.985 . S
C876 C870 1.379 . S
C876 C873 1.363 . S
C876 N874 1.356 . S
C877 C871 1.363 . S
C877 C872 1.379 . S
C877 N875 1.356 . S
N878 C870 1.356 . S
N878 H884 0.984 . S
N878 H885 0.984 . S
N879 C872 1.356 . S
N879 H882 0.984 . S
N879 H883 0.985 . S
H880 N875 0.984 . S
H881 N875 0.985 . S
H882 N879 0.984 . S
H883 N879 0.985 . S
H884 N878 0.984 . S
H885 N878 0.984 . S
H886 N874 0.984 . S
H887 N874 0.985 . S
C888 C889 1.363 . S
C888 C894 1.379 1_554 S
C888 N896 1.356 . S
C889 C888 1.363 . S
C889 C895 1.363 1_554 S
C890 C891 1.363 . S
C890 C895 1.379 . S
C890 N897 1.356 . S
C891 C890 1.363 . S
C891 C894 1.363 . S
N892 C894 1.356 . S
N892 H904 0.984 . S
N892 H905 0.985 . S
N893 C895 1.356 1_554 S
N893 H898 0.984 . S
N893 H899 0.985 1_554 S
C894 C888 1.379 1_556 S
C894 C891 1.363 . S
C894 N892 1.356 . S
C895 C889 1.363 1_556 S
C895 C890 1.379 . S
C895 N893 1.356 1_556 S
N896 C888 1.356 . S
N896 H902 0.984 . S
N896 H903 0.984 . S
N897 C890 1.356 . S
N897 H900 0.984 . S
N897 H901 0.985 . S
H898 N893 0.984 . S
H899 N893 0.985 1_556 S
H900 N897 0.984 . S
H901 N897 0.985 . S
H902 N896 0.984 . S
H903 N896 0.984 . S
H904 N892 0.984 . S
H905 N892 0.985 . S
C906 C907 1.363 . S
C906 C912 1.379 . S
C906 N914 1.356 . S
C907 C906 1.363 . S
C907 C913 1.363 . S
C908 C909 1.363 . S
C908 C913 1.379 . S
C908 N915 1.356 . S
C909 C908 1.363 . S
C909 C912 1.363 . S
N910 C912 1.356 . S
N910 H922 0.984 . S
N910 H923 0.985 . S
N911 C913 1.356 . S
N911 H916 0.984 . S
N911 H917 0.985 . S
C912 C906 1.379 . S
C912 C909 1.363 . S
C912 N910 1.356 . S
C913 C907 1.363 . S
C913 C908 1.379 . S
C913 N911 1.356 . S
N914 C906 1.356 . S
N914 H920 0.984 . S
N914 H921 0.984 . S
N915 C908 1.356 . S
N915 H918 0.984 . S
N915 H919 0.985 . S
H916 N911 0.984 . S
H917 N911 0.985 . S
H918 N915 0.984 . S
H919 N915 0.985 . S
H920 N914 0.984 . S
H921 N914 0.984 . S
H922 N910 0.984 . S
H923 N910 0.985 . S
C924 C925 1.366 . S
C924 C930 1.384 . S
C924 N932 1.348 1_556 S
C925 C924 1.366 . S
C925 C931 1.363 . S
C926 C927 1.363 . S
C926 C931 1.379 . S
C926 N933 1.356 . S
C927 C926 1.363 . S
C927 C930 1.363 . S
N928 C930 1.356 . S
N928 H940 0.984 . S
N928 H941 0.985 . S
N929 C931 1.356 . S
N929 H934 0.984 . S
N929 H935 0.985 . S
C930 C924 1.384 . S
C930 C927 1.363 . S
C930 N928 1.356 . S
C931 C925 1.363 . S
C931 C926 1.379 . S
C931 N929 1.356 . S
N932 C924 1.348 1_554 S
N932 H938 0.984 . S
N932 H939 0.984 . S
N933 C926 1.356 . S
N933 H936 0.984 . S
N933 H937 0.985 . S
H934 N929 0.984 . S
H935 N929 0.985 . S
H936 N933 0.984 . S
H937 N933 0.985 . S
H938 N932 0.984 . S
H939 N932 0.984 . S
H940 N928 0.984 . S
H941 N928 0.985 . S
C942 C943 1.363 . S
C942 C948 1.379 . S
C942 N950 1.356 . S
C943 C942 1.363 . S
C943 C949 1.363 . S
C944 C945 1.363 . S
C944 C949 1.379 . S
C944 N951 1.356 . S
C945 C944 1.363 . S
C945 C948 1.363 . S
N946 C948 1.356 . S
N946 H958 0.984 . S
N946 H959 0.985 . S
N947 C949 1.356 . S
N947 H952 0.984 . S
N947 H953 0.985 . S
C948 C942 1.379 . S
C948 C945 1.363 . S
C948 N946 1.356 . S
C949 C943 1.363 . S
C949 C944 1.379 . S
C949 N947 1.356 . S
N950 C942 1.356 . S
N950 H956 0.984 . S
N950 H957 0.984 . S
N951 C944 1.356 . S
N951 H954 0.984 . S
N951 H955 0.985 . S
H952 N947 0.984 . S
H953 N947 0.985 . S
H954 N951 0.984 . S
H955 N951 0.985 . S
H956 N950 0.984 . S
H957 N950 0.984 . S
H958 N946 0.984 . S
H959 N946 0.985 . S
C960 C961 1.363 . S
C960 C966 1.379 . S
C960 N968 1.356 . S
C961 C960 1.363 . S
C961 C967 1.363 . S
C962 C963 1.363 . S
C962 C967 1.379 . S
C962 N969 1.356 . S
C963 C962 1.363 . S
C963 C966 1.363 . S
N964 C966 1.356 . S
N964 H976 0.984 . S
N964 H977 0.985 1_455 S
N965 C967 1.356 . S
N965 H970 0.984 . S
N965 H971 0.985 . S
C966 C960 1.379 . S
C966 C963 1.363 . S
C966 N964 1.356 . S
C967 C961 1.363 . S
C967 C962 1.379 . S
C967 N965 1.356 . S
N968 C960 1.356 . S
N968 H974 0.984 . S
N968 H975 0.984 . S
N969 C962 1.356 . S
N969 H972 0.984 1_455 S
N969 H973 0.985 . S
H970 N965 0.984 . S
H971 N965 0.985 . S
H972 N969 0.984 1_655 S
H973 N969 0.985 . S
H974 N968 0.984 . S
H975 N968 0.984 . S
H976 N964 0.984 . S
H977 N964 0.985 1_655 S
C978 C979 1.363 . S
C978 C984 1.379 . S
C978 N986 1.356 . S
C979 C978 1.363 . S
C979 C985 1.363 . S
C980 C981 1.363 . S
C980 C985 1.379 . S
C980 N987 1.356 1_455 S
C981 C980 1.363 . S
C981 C984 1.363 . S
N982 C984 1.356 . S
N982 H994 0.984 . S
N982 H995 0.985 . S
N983 C985 1.356 . S
N983 H988 0.984 . S
N983 H989 0.985 . S
C984 C978 1.379 . S
C984 C981 1.363 . S
C984 N982 1.356 . S
C985 C979 1.363 . S
C985 C980 1.379 . S
C985 N983 1.356 . S
N986 C978 1.356 . S
N986 H992 0.984 . S
N986 H993 0.984 . S
N987 C980 1.356 1_655 S
N987 H990 0.984 . S
N987 H991 0.985 1_556 S
H988 N983 0.984 . S
H989 N983 0.985 . S
H990 N987 0.984 . S
H991 N987 0.985 1_554 S
H992 N986 0.984 . S
H993 N986 0.984 . S
H994 N982 0.984 . S
H995 N982 0.985 . S
C996 C997 1.363 . S
C996 C1002 1.379 . S
C996 N1004 1.356 . S
C997 C996 1.363 . S
C997 C1003 1.363 . S
C998 C999 1.363 . S
C998 C1003 1.379 . S
C998 N1005 1.356 . S
C999 C998 1.363 . S
C999 C1002 1.363 . S
N1000 C1002 1.356 . S
N1000 H1012 0.984 1_565 S
N1000 H1013 0.985 . S
N1001 C1003 1.356 . S
N1001 H1006 0.984 . S
N1001 H1007 0.985 . S
C1002 C996 1.379 . S
C1002 C999 1.363 . S
C1002 N1000 1.356 . S
C1003 C997 1.363 . S
C1003 C998 1.379 . S
C1003 N1001 1.356 . S
N1004 C996 1.356 . S
N1004 H1010 0.984 1_565 S
N1004 H1011 0.984 . S
N1005 C998 1.356 . S
N1005 H1008 0.984 . S
N1005 H1009 0.985 . S
H1006 N1001 0.984 . S
H1007 N1001 0.985 . S
H1008 N1005 0.984 . S
H1009 N1005 0.985 . S
H1010 N1004 0.984 1_545 S
H1011 N1004 0.984 . S
H1012 N1000 0.984 1_545 S
H1013 N1000 0.985 . S
C1014 C1015 1.363 . S
C1014 C1020 1.379 . S
C1014 N1022 1.356 . S
C1015 C1014 1.363 . S
C1015 C1021 1.363 . S
C1016 C1017 1.363 . S
C1016 C1021 1.379 . S
C1016 N1023 1.356 . S
C1017 C1016 1.363 . S
C1017 C1020 1.363 . S
N1018 C1020 1.356 . S
N1018 H1030 0.984 . S
N1018 H1031 0.985 . S
N1019 C1021 1.356 . S
N1019 H1024 0.984 . S
N1019 H1025 0.985 . S
C1020 C1014 1.379 . S
C1020 C1017 1.363 . S
C1020 N1018 1.356 . S
C1021 C1015 1.363 . S
C1021 C1016 1.379 . S
C1021 N1019 1.356 . S
N1022 C1014 1.356 . S
N1022 H1028 0.984 . S
N1022 H1029 0.984 . S
N1023 C1016 1.356 . S
N1023 H1026 0.984 . S
N1023 H1027 0.985 . S
H1024 N1019 0.984 . S
H1025 N1019 0.985 . S
H1026 N1023 0.984 . S
H1027 N1023 0.985 . S
H1028 N1022 0.984 . S
H1029 N1022 0.984 . S
H1030 N1018 0.984 . S
H1031 N1018 0.985 . S
C1032 C1033 1.363 . S
C1032 C1038 1.379 . S
C1032 N1040 1.356 . S
C1033 C1032 1.363 . S
C1033 C1039 1.363 . S
C1034 C1035 1.363 . S
C1034 C1039 1.379 . S
C1034 N1041 1.356 . S
C1035 C1034 1.363 . S
C1035 C1038 1.363 . S
N1036 C1038 1.356 . S
N1036 H1048 0.984 . S
N1036 H1049 0.985 . S
N1037 C1039 1.356 . S
N1037 H1042 0.984 . S
N1037 H1043 0.985 . S
C1038 C1032 1.379 . S
C1038 C1035 1.363 . S
C1038 N1036 1.356 . S
C1039 C1033 1.363 . S
C1039 C1034 1.379 . S
C1039 N1037 1.356 . S
N1040 C1032 1.356 . S
N1040 H1046 0.984 . S
N1040 H1047 0.984 . S
N1041 C1034 1.356 . S
N1041 H1044 0.984 . S
N1041 H1045 0.985 . S
H1042 N1037 0.984 . S
H1043 N1037 0.985 . S
H1044 N1041 0.984 . S
H1045 N1041 0.985 . S
H1046 N1040 0.984 . S
H1047 N1040 0.984 . S
H1048 N1036 0.984 . S
H1049 N1036 0.985 . S
C1050 C1051 1.363 . S
C1050 C1056 1.379 1_554 S
C1050 N1058 1.356 . S
C1051 C1050 1.363 . S
C1051 C1057 1.363 1_554 S
C1052 C1053 1.363 . S
C1052 C1057 1.379 . S
C1052 N1059 1.356 . S
C1053 C1052 1.363 . S
C1053 C1056 1.363 . S
N1054 C1056 1.356 . S
N1054 H1066 0.984 1_556 S
N1054 H1067 0.985 . S
N1055 C1057 1.356 . S
N1055 H1060 0.984 . S
N1055 H1061 0.985 . S
C1056 C1050 1.379 1_556 S
C1056 C1053 1.363 . S
C1056 N1054 1.356 . S
C1057 C1051 1.363 1_556 S
C1057 C1052 1.379 . S
C1057 N1055 1.356 . S
N1058 C1050 1.356 . S
N1058 H1064 0.984 . S
N1058 H1065 0.984 . S
N1059 C1052 1.356 . S
N1059 H1062 0.984 . S
N1059 H1063 0.985 . S
H1060 N1055 0.984 . S
H1061 N1055 0.985 . S
H1062 N1059 0.984 . S
H1063 N1059 0.985 . S
H1064 N1058 0.984 . S
H1065 N1058 0.984 . S
H1066 N1054 0.984 1_554 S
H1067 N1054 0.985 . S
C1068 C1069 1.363 . S
C1068 C1074 1.379 . S
C1068 N1076 1.356 . S
C1069 C1068 1.363 . S
C1069 C1075 1.363 . S
C1070 C1071 1.363 . S
C1070 C1075 1.379 . S
C1070 N1077 1.356 . S
C1071 C1070 1.363 . S
C1071 C1074 1.363 . S
N1072 C1074 1.356 . S
N1072 H1084 0.984 . S
N1072 H1085 0.985 . S
N1073 C1075 1.356 . S
N1073 H1078 0.984 . S
N1073 H1079 0.985 . S
C1074 C1068 1.379 . S
C1074 C1071 1.363 . S
C1074 N1072 1.356 . S
C1075 C1069 1.363 . S
C1075 C1070 1.379 . S
C1075 N1073 1.356 . S
N1076 C1068 1.356 . S
N1076 H1082 0.984 . S
N1076 H1083 0.984 . S
N1077 C1070 1.356 . S
N1077 H1080 0.984 . S
N1077 H1081 0.985 . S
H1078 N1073 0.984 . S
H1079 N1073 0.985 . S
H1080 N1077 0.984 . S
H1081 N1077 0.985 . S
H1082 N1076 0.984 . S
H1083 N1076 0.984 . S
H1084 N1072 0.984 . S
H1085 N1072 0.985 . S
C1086 C1087 1.363 . S
C1086 C1092 1.379 . S
C1086 N1094 1.356 . S
C1087 C1086 1.363 . S
C1087 C1093 1.363 . S
C1088 C1089 1.363 . S
C1088 C1093 1.379 . S
C1088 N1095 1.356 . S
C1089 C1088 1.363 . S
C1089 C1092 1.363 . S
N1090 C1092 1.356 . S
N1090 H1102 0.984 . S
N1090 H1103 0.985 . S
N1091 C1093 1.356 . S
N1091 H1096 0.984 . S
N1091 H1097 0.985 . S
C1092 C1086 1.379 . S
C1092 C1089 1.363 . S
C1092 N1090 1.356 . S
C1093 C1087 1.363 . S
C1093 C1088 1.379 . S
C1093 N1091 1.356 . S
N1094 C1086 1.356 . S
N1094 H1100 0.984 . S
N1094 H1101 0.984 . S
N1095 C1088 1.356 . S
N1095 H1098 0.984 . S
N1095 H1099 0.985 . S
H1096 N1091 0.984 . S
H1097 N1091 0.985 . S
H1098 N1095 0.984 . S
H1099 N1095 0.985 . S
H1100 N1094 0.984 . S
H1101 N1094 0.984 . S
H1102 N1090 0.984 . S
H1103 N1090 0.985 . S
C1104 C1105 1.363 . S
C1104 C1110 1.379 . S
C1104 N1112 1.356 . S
C1105 C1104 1.363 . S
C1105 C1111 1.363 . S
C1106 C1107 1.363 . S
C1106 C1111 1.379 . S
C1106 N1113 1.356 . S
C1107 C1106 1.363 . S
C1107 C1110 1.363 . S
N1108 C1110 1.356 . S
N1108 H1120 0.984 . S
N1108 H1121 0.985 . S
N1109 C1111 1.356 . S
N1109 H1114 0.984 . S
N1109 H1115 0.985 . S
C1110 C1104 1.379 . S
C1110 C1107 1.363 . S
C1110 N1108 1.356 . S
C1111 C1105 1.363 . S
C1111 C1106 1.379 . S
C1111 N1109 1.356 . S
N1112 C1104 1.356 . S
N1112 H1118 0.984 . S
N1112 H1119 0.984 . S
N1113 C1106 1.356 . S
N1113 H1116 0.984 . S
N1113 H1117 0.985 . S
H1114 N1109 0.984 . S
H1115 N1109 0.985 . S
H1116 N1113 0.984 . S
H1117 N1113 0.985 . S
H1118 N1112 0.984 . S
H1119 N1112 0.984 . S
H1120 N1108 0.984 . S
H1121 N1108 0.985 . S
C1122 C1123 1.363 . S
C1122 C1128 1.379 . S
C1122 N1130 1.356 . S
C1123 C1122 1.363 . S
C1123 C1129 1.363 . S
C1124 C1125 1.363 . S
C1124 C1129 1.379 . S
C1124 N1131 1.356 . S
C1125 C1124 1.363 . S
C1125 C1128 1.363 . S
N1126 C1128 1.356 . S
N1126 H1138 0.984 1_655 S
N1126 H1139 0.985 . S
N1127 C1129 1.356 . S
N1127 H1132 0.984 . S
N1127 H1133 0.985 . S
C1128 C1122 1.379 . S
C1128 C1125 1.363 . S
C1128 N1126 1.356 . S
C1129 C1123 1.363 . S
C1129 C1124 1.379 . S
C1129 N1127 1.356 . S
N1130 C1122 1.356 . S
N1130 H1136 0.984 1_655 S
N1130 H1137 0.984 . S
N1131 C1124 1.356 . S
N1131 H1134 0.984 . S
N1131 H1135 0.985 . S
H1132 N1127 0.984 . S
H1133 N1127 0.985 . S
H1134 N1131 0.984 . S
H1135 N1131 0.985 . S
H1136 N1130 0.984 1_455 S
H1137 N1130 0.984 . S
H1138 N1126 0.984 1_455 S
H1139 N1126 0.985 . S
C1140 C1141 1.363 . S
C1140 C1146 1.379 . S
C1140 N1148 1.356 . S
C1141 C1140 1.363 . S
C1141 C1147 1.363 . S
C1142 C1143 1.363 . S
C1142 C1147 1.379 . S
C1142 N1149 1.356 . S
C1143 C1142 1.363 . S
C1143 C1146 1.363 . S
N1144 C1146 1.356 . S
N1144 H1156 0.984 . S
N1144 H1157 0.985 . S
N1145 C1147 1.356 1_545 S
N1145 H1150 0.984 . S
N1145 H1151 0.985 . S
C1146 C1140 1.379 . S
C1146 C1143 1.363 . S
C1146 N1144 1.356 . S
C1147 C1141 1.363 . S
C1147 C1142 1.379 . S
C1147 N1145 1.356 1_565 S
N1148 C1140 1.356 . S
N1148 H1154 0.984 . S
N1148 H1155 0.984 . S
N1149 C1142 1.356 . S
N1149 H1152 0.984 . S
N1149 H1153 0.985 . S
H1150 N1145 0.984 . S
H1151 N1145 0.985 . S
H1152 N1149 0.984 . S
H1153 N1149 0.985 . S
H1154 N1148 0.984 . S
H1155 N1148 0.984 . S
H1156 N1144 0.984 . S
H1157 N1144 0.985 . S
C1158 C1159 1.363 . S
C1158 C1164 1.379 . S
C1158 N1166 1.356 . S
C1159 C1158 1.363 . S
C1159 C1165 1.363 . S
C1160 C1161 1.363 . S
C1160 C1165 1.379 . S
C1160 N1167 1.356 . S
C1161 C1160 1.363 . S
C1161 C1164 1.363 . S
N1162 C1164 1.356 . S
N1162 H1174 0.984 . S
N1162 H1175 0.985 . S
N1163 C1165 1.356 . S
N1163 H1168 0.984 . S
N1163 H1169 0.985 . S
C1164 C1158 1.379 . S
C1164 C1161 1.363 . S
C1164 N1162 1.356 . S
C1165 C1159 1.363 . S
C1165 C1160 1.379 . S
C1165 N1163 1.356 . S
N1166 C1158 1.356 . S
N1166 H1172 0.984 . S
N1166 H1173 0.984 . S
N1167 C1160 1.356 . S
N1167 H1170 0.984 . S
N1167 H1171 0.985 . S
H1168 N1163 0.984 . S
H1169 N1163 0.985 . S
H1170 N1167 0.984 . S
H1171 N1167 0.985 . S
H1172 N1166 0.984 . S
H1173 N1166 0.984 . S
H1174 N1162 0.984 . S
H1175 N1162 0.985 . S
C1176 C1177 1.363 . S
C1176 C1182 1.379 . S
C1176 N1184 1.356 . S
C1177 C1176 1.363 . S
C1177 C1183 1.363 . S
C1178 C1179 1.363 . S
C1178 C1183 1.379 . S
C1178 N1185 1.356 . S
C1179 C1178 1.363 . S
C1179 C1182 1.363 . S
N1180 C1182 1.356 . S
N1180 H1192 0.984 . S
N1180 H1193 0.985 . S
N1181 C1183 1.356 . S
N1181 H1186 0.984 . S
N1181 H1187 0.985 . S
C1182 C1176 1.379 . S
C1182 C1179 1.363 . S
C1182 N1180 1.356 . S
C1183 C1177 1.363 . S
C1183 C1178 1.379 . S
C1183 N1181 1.356 . S
N1184 C1176 1.356 . S
N1184 H1190 0.984 . S
N1184 H1191 0.984 . S
N1185 C1178 1.356 . S
N1185 H1188 0.984 . S
N1185 H1189 0.985 . S
H1186 N1181 0.984 . S
H1187 N1181 0.985 . S
H1188 N1185 0.984 . S
H1189 N1185 0.985 . S
H1190 N1184 0.984 . S
H1191 N1184 0.984 . S
H1192 N1180 0.984 . S
H1193 N1180 0.985 . S
C763 C39 2.311 . S
C765 C381 2.227 . S
C781 C91 1.480 . S
C783 C455 1.434 . S
C801 C505 1.687 . S
C799 C128 1.773 . S
C819 C591 1.304 . S
C817 C188 1.292 . S
C837 C683 1.875 . S
C835 C250 1.871 1_565 S
C855 C727 1.836 . S
C853 C304 1.900 . S
C871 C75 1.430 . S
C873 C529 1.287 . S
C889 C144 2.434 . S
C891 C609 2.401 . S
C909 C665 1.481 . S
C907 C198 1.469 . S
C927 C751 1.313 . S
C925 C234 1.354 1_556 S
C943 C294 2.194 . S
C945 C357 2.033 . S
C963 C431 1.799 1_455 S
C961 C29 1.814 . S
C981 C603 2.187 1_455 S
C979 C38 2.432 . S
C997 C92 2.256 . S
C999 C653 2.066 . S
C1017 C757 2.207 . S
C1015 C135 2.348 1_556 S
C1033 C181 1.363 . S
C1035 C369 1.325 . S
C1051 C251 2.052 . S
C1053 C443 1.959 . S
C1069 C303 2.445 . S
C1071 C535 2.297 . S
C1087 C82 1.975 . S
C1089 C739 1.839 . S
C1107 C387 2.182 . S
C1105 C145 2.209 . S
C1123 C197 2.342 . S
C1125 C461 2.215 . S
C1141 C241 1.868 . S
C1143 C517 1.711 . S
C1159 C287 1.701 . S
C1161 C579 1.490 . S
C1177 C22 2.014 . S
C1179 C677 1.899 . S
