# Generated by pormake.
# Topology zzz, (3,6)-cn, num edge types: 1
# Building blocks:
#     Node 0, Type 0, BuildingBlock: QEWDON_clean_linker_0, # of connection points: 3
#     Node 1, Type 0, BuildingBlock: QEWDON_clean_linker_0, # of connection points: 3
#     Node 2, Type 0, BuildingBlock: QEWDON_clean_linker_0, # of connection points: 3
#     Node 3, Type 0, BuildingBlock: QEWDON_clean_linker_0, # of connection points: 3
#     Node 4, Type 0, BuildingBlock: QEWDON_clean_linker_0, # of connection points: 3
#     Node 5, Type 0, BuildingBlock: QEWDON_clean_linker_0, # of connection points: 3
#     Node 6, Type 0, BuildingBlock: QEWDON_clean_linker_0, # of connection points: 3
#     Node 7, Type 0, BuildingBlock: QEWDON_clean_linker_0, # of connection points: 3
#     Node 8, Type 1, BuildingBlock: BETFAJ_clean_sbu_0, # of connection points: 6
#     Node 9, Type 1, BuildingBlock: BETFAJ_clean_sbu_0, # of connection points: 6
#     Node 10, Type 1, BuildingBlock: BETFAJ_clean_sbu_0, # of connection points: 6
#     Node 11, Type 1, BuildingBlock: BETFAJ_clean_sbu_0, # of connection points: 6
#     Edge 12, Type (0, 1), BuildingBlock: CIFDUS_clean_linker_0, # of connection points: 2
#     Edge 13, Type (0, 1), BuildingBlock: CIFDUS_clean_linker_0, # of connection points: 2
#     Edge 14, Type (0, 1), BuildingBlock: CIFDUS_clean_linker_0, # of connection points: 2
#     Edge 15, Type (0, 1), BuildingBlock: CIFDUS_clean_linker_0, # of connection points: 2
#     Edge 16, Type (0, 1), BuildingBlock: CIFDUS_clean_linker_0, # of connection points: 2
#     Edge 17, Type (0, 1), BuildingBlock: CIFDUS_clean_linker_0, # of connection points: 2
#     Edge 18, Type (0, 1), BuildingBlock: CIFDUS_clean_linker_0, # of connection points: 2
#     Edge 19, Type (0, 1), BuildingBlock: CIFDUS_clean_linker_0, # of connection points: 2
#     Edge 20, Type (0, 1), BuildingBlock: CIFDUS_clean_linker_0, # of connection points: 2
#     Edge 21, Type (0, 1), BuildingBlock: CIFDUS_clean_linker_0, # of connection points: 2
#     Edge 22, Type (0, 1), BuildingBlock: CIFDUS_clean_linker_0, # of connection points: 2
#     Edge 23, Type (0, 1), BuildingBlock: CIFDUS_clean_linker_0, # of connection points: 2
#     Edge 24, Type (0, 1), BuildingBlock: CIFDUS_clean_linker_0, # of connection points: 2
#     Edge 25, Type (0, 1), BuildingBlock: CIFDUS_clean_linker_0, # of connection points: 2
#     Edge 26, Type (0, 1), BuildingBlock: CIFDUS_clean_linker_0, # of connection points: 2
#     Edge 27, Type (0, 1), BuildingBlock: CIFDUS_clean_linker_0, # of connection points: 2
#     Edge 28, Type (0, 1), BuildingBlock: CIFDUS_clean_linker_0, # of connection points: 2
#     Edge 29, Type (0, 1), BuildingBlock: CIFDUS_clean_linker_0, # of connection points: 2
#     Edge 30, Type (0, 1), BuildingBlock: CIFDUS_clean_linker_0, # of connection points: 2
#     Edge 31, Type (0, 1), BuildingBlock: CIFDUS_clean_linker_0, # of connection points: 2
#     Edge 32, Type (0, 1), BuildingBlock: CIFDUS_clean_linker_0, # of connection points: 2
#     Edge 33, Type (0, 1), BuildingBlock: CIFDUS_clean_linker_0, # of connection points: 2
#     Edge 34, Type (0, 1), BuildingBlock: CIFDUS_clean_linker_0, # of connection points: 2
#     Edge 35, Type (0, 1), BuildingBlock: CIFDUS_clean_linker_0, # of connection points: 2
# Relax obj value: 0.200
# Max RMSD: 0.181
# Mean RMSD: 0.125
data_MOF--net-zzz--node1-BETFAJ_clean_sbu_0--node2-QEWDON_clean_linker_0--edge1-CIFDUS_clean_linker_0
_symmetry_space_group_name_H-M    P1
_symmetry_Int_Tables_number       1
_symmetry_cell_setting            triclinic
loop_
_symmetry_equiv_pos_as_xyz
'x, y, z'
_cell_length_a     49.613699
_cell_length_b     49.588308
_cell_length_c     11.359968
_cell_angle_alpha  90.099952
_cell_angle_beta   89.76044
_cell_angle_gamma 89.953087
loop_
_atom_site_label
_atom_site_type_symbol
_atom_site_fract_x
_atom_site_fract_y
_atom_site_fract_z
_atom_type_partial_charge
H0 H 0.75205 0.49064 0.2218 0.0
C1 C 0.76767 0.49922 0.27649 0.0
C2 C 0.79393 0.48917 0.26532 0.0
C3 C 0.76167 0.51965 0.35957 0.0
H4 H 0.83487 0.49179 0.32592 0.0
C5 C 0.81444 0.49929 0.33693 0.0
C6 C 0.80956 0.51987 0.41782 0.0
C7 C 0.78317 0.5303 0.4287 0.0
C8 C 0.73295 0.52886 0.37679 0.0
H9 H 0.77956 0.54662 0.49017 0.0
C10 C 0.71393 0.52877 0.28335 0.0
C11 C 0.68651 0.53568 0.303 0.0
C12 C 0.72393 0.53646 0.48966 0.0
H13 H 0.73739 0.53618 0.56436 0.0
C14 C 0.69713 0.54379 0.50911 0.0
H15 H 0.72031 0.52309 0.19558 0.0
C16 C 0.6786 0.54339 0.41718 0.0
H17 H 0.65804 0.54946 0.43566 0.0
H18 H 0.6906 0.54962 0.59658 0.0
H19 H 0.0484 0.74857 0.30483 0.0
C20 C 0.04485 0.76309 0.37411 0.0
C21 C 0.06165 0.78569 0.37668 0.0
C22 C 0.02287 0.76042 0.45257 0.0
H23 H 0.0687 0.82472 0.45351 0.0
C24 C 0.05649 0.80657 0.45678 0.0
C25 C 0.03414 0.80611 0.53137 0.0
C26 C 1.01751 0.78274 0.53104 0.0
C27 C 1.00511 0.73526 0.44507 0.0
H28 H 1.00079 0.78237 0.59202 0.0
C29 C 1.0131 0.71127 0.3824 0.0
C30 C 0.9958 0.68853 0.37296 0.0
C31 C 0.97934 0.73516 0.49793 0.0
H32 H 0.97143 0.75256 0.54354 0.0
C33 C 0.9626 0.71262 0.49114 0.0
H34 H 0.03277 0.70957 0.34218 0.0
C35 C 0.97065 0.68964 0.42961 0.0
H36 H 0.95678 0.67282 0.42409 0.0
H37 H 0.94292 0.71314 0.53261 0.0
H38 H 0.78566 0.0643 0.27925 0.0
C39 C 0.76974 0.05768 0.33775 0.0
C40 C 0.74547 0.07199 0.33696 0.0
C41 C 0.77328 0.03523 0.41237 0.0
H42 H 0.70537 0.07507 0.40798 0.0
C43 C 0.72447 0.0644 0.4123 0.0
C44 C 0.72651 0.04201 0.48572 0.0
C45 C 0.751 0.02715 0.48531 0.0
C46 C 0.80055 0.02147 0.41625 0.0
H47 H 0.75256 1.0096 0.54136 0.0
C48 C 0.81884 0.02162 0.31845 0.0
C49 C 0.84556 1.01152 0.3286 0.0
C50 C 0.80947 1.00989 0.52211 0.0
H51 H 0.79678 1.00976 0.59975 0.0
C52 C 0.8354 0.99918 0.53145 0.0
H53 H 0.81264 0.02995 0.23493 0.0
C54 C 0.85329 1.00013 0.43648 0.0
H55 H 0.87324 0.99165 0.44748 0.0
H56 H 0.84185 0.99043 0.61392 0.0
H57 H 0.51918 0.7828 0.15343 0.0
C58 C 0.5198 0.76786 0.22223 0.0
C59 C 0.51763 0.74109 0.18703 0.0
C60 C 0.52247 0.77487 0.3423 0.0
H61 H 0.51842 0.69979 0.23828 0.0
C62 C 0.51966 0.72044 0.26945 0.0
C63 C 0.52139 0.72578 0.39022 0.0
C64 C 0.52303 0.75325 0.42664 0.0
C65 C 0.52415 0.80455 0.37647 0.0
H66 H 0.52382 0.75751 0.5199 0.0
C67 C 0.51575 0.82555 0.29866 0.0
C68 C 0.51904 0.85333 0.32599 0.0
C69 C 0.53517 0.81242 0.48517 0.0
H70 H 0.54254 0.79771 0.54728 0.0
C71 C 0.5375 0.83968 0.51521 0.0
H72 H 0.50685 0.82056 0.21534 0.0
C73 C 0.52963 0.85989 0.43692 0.0
H74 H 0.53177 0.88069 0.46428 0.0
H75 H 0.54586 0.84522 0.59974 0.0
H76 H 0.28086 0.56424 0.24717 0.0
C77 C 0.26447 0.55524 0.19825 0.0
C78 C 0.23897 0.5673 0.20356 0.0
C79 C 0.26882 0.53221 0.12691 0.0
H80 H 0.19785 0.56562 0.14666 0.0
C81 C 0.21767 0.5564 0.13936 0.0
C82 C 0.22096 0.53364 0.06873 0.0
C83 C 0.24656 0.52121 0.06361 0.0
C84 C 0.29684 0.52106 0.11252 0.0
H85 H 0.24915 0.50341 0.0094 0.0
C86 C 0.31582 0.52122 0.206 0.0
C87 C 0.34279 0.51259 0.18781 0.0
C88 C 0.30536 0.51164 0.00154 0.0
H89 H 0.29183 0.51172 0.92703 0.0
C90 C 0.33175 0.50279 0.98363 0.0
H91 H 0.30976 0.52828 0.29237 0.0
C92 C 0.35032 0.50332 0.0754 0.0
H93 H 0.37057 0.49609 0.05851 0.0
H94 H 0.33794 0.49566 0.89752 0.0
H95 H 0.03666 0.28874 0.30574 0.0
C96 C 0.03716 0.27429 0.23447 0.0
C97 C 0.0457 0.24842 0.26177 0.0
C98 C 0.02817 0.28095 0.12053 0.0
H99 H 0.04833 0.20747 0.2049 0.0
C100 C 0.04392 0.22792 0.17747 0.0
C101 C 0.03469 0.23256 0.06297 0.0
C102 C 0.02675 0.25953 0.03435 0.0
C103 C 1.01877 0.30982 0.0995 0.0
H104 H 1.0197 0.26361 0.94624 0.0
C105 C 0.02682 0.3315 0.17507 0.0
C106 C 1.0145 0.35735 0.17101 0.0
C107 C 0.99989 0.31578 0.01135 0.0
H108 H 0.99274 0.30033 0.95194 0.0
C109 C 0.98895 0.3417 1.00127 0.0
H110 H 0.04262 0.32848 0.23878 0.0
C111 C 0.99574 0.36211 0.08103 0.0
H112 H 0.98554 0.38135 0.07414 0.0
H113 H 0.97422 0.34575 0.9335 0.0
H114 H 0.25301 0.98286 0.27027 0.0
C115 C 0.26834 0.99243 0.21672 0.0
C116 C 0.29479 0.98262 0.2227 0.0
C117 C 0.26171 1.01362 0.13879 0.0
H118 H 0.33549 0.98642 0.15892 0.0
C119 C 0.31496 0.99388 0.15196 0.0
C120 C 0.30966 1.01512 0.07568 0.0
C121 C 0.28301 0.02533 0.06995 0.0
C122 C 0.23249 0.02176 0.12314 0.0
H123 H 0.27902 0.0421 0.01174 0.0
C124 C 0.21262 1.01892 0.21409 0.0
C125 C 0.18487 0.0238 0.19144 0.0
C126 C 0.22375 0.03049 0.0117 0.0
H127 H 0.23766 0.03227 0.93858 0.0
C128 C 0.19664 0.03599 0.99042 0.0
H129 H 0.21844 1.01242 0.30124 0.0
C130 C 0.1774 0.0325 0.07867 0.0
H131 H 0.15646 0.03661 0.05856 0.0
H132 H 0.19041 0.04253 0.9038 0.0
H133 H 0.54938 0.25217 0.2482 0.0
C134 C 0.54244 0.26828 0.19164 0.0
C135 C 0.55103 0.29449 0.21542 0.0
C136 C 0.52585 0.26284 0.09383 0.0
H137 H 0.5497 0.33604 0.16391 0.0
C138 C 0.54296 0.31575 0.14317 0.0
C139 C 0.52629 0.3116 0.046 0.0
C140 C 0.51798 0.28486 0.02008 0.0
C141 C 0.51816 0.23401 0.06815 0.0
H142 H 0.50503 0.28141 0.9451 0.0
C143 C 0.5144 0.21481 0.15993 0.0
C144 C 0.51011 0.18709 0.13522 0.0
C145 C 0.51656 0.22492 0.95114 0.0
H146 H 0.51974 0.23863 0.87837 0.0
C147 C 0.51185 0.19774 0.92609 0.0
H148 H 0.51524 0.2213 0.25086 0.0
C149 C 0.50885 0.17898 0.01679 0.0
H150 H 0.50517 0.1581 0.99391 0.0
H151 H 0.51083 0.19109 0.8354 0.0
Sm152 Sm 0.03706 1.01382 0.8867 0.0
Sm153 Sm 1.0062 0.02613 0.68922 0.0
C154 C 0.05722 0.99158 0.07758 0.0
C155 C 0.0657 0.96341 0.09585 0.0
C156 C 0.0477 0.94539 0.14948 0.0
C157 C 0.05209 0.91776 0.14185 0.0
C158 C 0.07479 0.90765 0.08234 0.0
C159 C 0.09407 0.92552 0.03748 0.0
C160 C 0.08951 0.95331 0.04368 0.0
C161 C 0.07065 0.02742 0.70156 0.0
C162 C 1.01597 0.96232 0.71814 0.0
C163 C 0.99247 0.04967 0.49362 0.0
C164 C 1.008 0.07342 0.45716 0.0
C165 C 0.03613 0.07311 0.47398 0.0
C166 C 0.05029 0.09702 0.48977 0.0
C167 C 0.03677 0.12181 0.4858 0.0
C168 C 1.00912 0.12217 0.45711 0.0
C169 C 0.99481 0.09815 0.44391 0.0
C170 C 0.97271 1.01578 0.8798 0.0
C171 C 0.02835 0.07726 0.85211 0.0
O172 O 0.03134 0.9951 0.06197 0.0
O173 O 0.07177 1.00578 0.00443 0.0
O174 O 0.05013 1.01215 0.69322 0.0
O175 O 0.07313 0.03632 0.80826 0.0
O176 O 0.02867 0.96994 0.81501 0.0
O177 O 1.00517 0.98068 0.64936 0.0
O178 O 1.00575 0.0269 0.49324 0.0
O179 O 0.97874 0.05335 0.59075 0.0
O180 O 0.99425 0.02951 0.88274 0.0
O181 O 0.96805 1.0074 0.77344 0.0
O182 O 0.02131 0.06936 0.74538 0.0
O183 O 0.03278 0.05888 0.93343 0.0
H184 H 0.0294 0.95257 0.19156 0.0
H185 H 0.03738 0.90419 0.18029 0.0
H186 H 0.11198 0.91799 0.9935 0.0
H187 H 0.10396 0.96672 0.00262 0.0
H188 H 0.04693 0.05435 0.48575 0.0
H189 H 0.07155 0.09593 0.51045 0.0
H190 H 0.99829 0.141 0.44778 0.0
H191 H 0.97316 0.09891 0.43223 0.0
Sm192 Sm 0.51882 0.04241 0.8118 0.0
Sm193 Sm 0.50939 1.00006 0.63429 0.0
C194 C 0.53833 0.07462 0.97568 0.0
C195 C 0.56665 0.0793 0.00801 0.0
C196 C 0.58327 0.05741 0.0371 0.0
C197 C 0.61102 0.06076 0.04436 0.0
C198 C 0.62285 0.08597 0.02188 0.0
C199 C 0.60618 0.10825 0.99926 0.0
C200 C 0.57822 0.10491 0.99221 0.0
C201 C 0.50509 0.06331 0.59559 0.0
C202 C 0.57221 1.01677 0.66991 0.0
C203 C 0.49364 0.97418 0.44377 0.0
C204 C 0.47195 0.95442 0.42916 0.0
C205 C 0.46211 0.94847 0.31695 0.0
C206 C 0.43749 0.93509 0.30478 0.0
C207 C 0.42231 0.92769 0.40497 0.0
C208 C 0.43369 0.93134 0.5169 0.0
C209 C 0.45824 0.94475 0.52887 0.0
C210 C 0.51275 0.9721 0.84482 0.0
C211 C 0.45702 0.0225 0.78937 0.0
O212 O 0.52838 0.05079 0.9993 0.0
O213 O 0.53189 0.08302 0.87079 0.0
O214 O 0.52153 0.04404 0.61225 0.0
O215 O 0.49387 0.07043 0.69427 0.0
O216 O 0.56337 0.03166 0.75911 0.0
O217 O 0.5551 1.00344 0.60308 0.0
O218 O 0.48527 0.9985 0.47089 0.0
O219 O 0.5142 0.96632 0.50698 0.0
O220 O 0.51502 0.99749 0.83566 0.0
O221 O 0.50887 0.9612 0.74322 0.0
O222 O 0.46564 1.01076 0.69154 0.0
O223 O 0.47416 0.03466 0.8605 0.0
H224 H 0.57506 0.03739 0.04967 0.0
H225 H 0.62329 0.04339 0.06599 0.0
H226 H 0.61479 0.12796 0.98289 0.0
H227 H 0.56575 0.12204 0.96912 0.0
H228 H 0.47242 0.95587 0.23917 0.0
H229 H 0.42928 0.93286 0.21712 0.0
H230 H 0.42268 0.92565 0.59556 0.0
H231 H 0.4655 0.94927 0.61643 0.0
Sm232 Sm 0.49708 0.52799 0.82971 0.0
Sm233 Sm 0.53319 0.51276 0.65711 0.0
C234 C 0.46658 0.55343 0.98469 0.0
C235 C 0.45286 0.57911 0.96399 0.0
C236 C 0.44558 0.5957 0.05848 0.0
C237 C 0.44 0.62293 0.0387 0.0
C238 C 0.44225 0.63383 0.9246 0.0
C239 C 0.44693 0.61655 0.82898 0.0
C240 C 0.45193 0.58926 0.84854 0.0
C241 C 0.46989 0.51331 0.62647 0.0
C242 C 0.51845 0.57528 0.65335 0.0
C243 C 0.56272 0.4894 0.49139 0.0
C244 C 0.57961 0.46519 0.49265 0.0
C245 C 0.59005 0.45499 0.38725 0.0
C246 C 0.60215 0.4296 0.38488 0.0
C247 C 0.60375 0.41388 0.48795 0.0
C248 C 0.59502 0.42513 0.59522 0.0
C249 C 0.58303 0.45064 0.5975 0.0
C250 C 0.56044 0.52825 0.85864 0.0
C251 C 0.51088 0.46536 0.83659 0.0
O252 O 0.49287 0.55516 0.98435 0.0
O253 O 0.45786 0.53317 0.92238 0.0
O254 O 0.49066 0.52804 0.62961 0.0
O255 O 0.46415 0.50456 0.73069 0.0
O256 O 0.5122 0.57009 0.76373 0.0
O257 O 0.52321 0.55486 0.58197 0.0
O258 O 0.53692 0.48499 0.50467 0.0
O259 O 0.57129 0.50959 0.55463 0.0
O260 O 0.53984 0.51318 0.85702 0.0
O261 O 0.56621 0.53647 0.75356 0.0
O262 O 0.51966 0.47042 0.72886 0.0
O263 O 0.50413 0.48573 0.90516 0.0
H264 H 0.44637 0.5882 0.14794 0.0
H265 H 0.43689 0.63599 0.11413 0.0
H266 H 0.44908 0.62457 0.74075 0.0
H267 H 0.45748 0.57663 0.77433 0.0
H268 H 0.58743 0.46587 0.30555 0.0
H269 H 0.60815 0.42144 0.30023 0.0
H270 H 0.59599 0.41357 0.67591 0.0
H271 H 0.5751 0.45837 0.67995 0.0
Sm272 Sm 1.01089 0.50847 0.83787 0.0
Sm273 Sm 1.01774 0.54708 0.66587 0.0
C274 C 0.99245 0.47708 0.00846 0.0
C275 C 0.96855 0.45976 0.01691 0.0
C276 C 0.95778 0.45353 0.12742 0.0
C277 C 0.9328 0.44086 0.13643 0.0
C278 C 0.91783 0.43467 0.03483 0.0
C279 C 0.92942 0.43951 0.92375 0.0
C280 C 0.95466 0.45192 0.91489 0.0
C281 C 0.02279 0.48343 0.62463 0.0
C282 C 0.95691 0.52809 0.69027 0.0
C283 C 0.03627 0.57867 0.49583 0.0
C284 C 0.06127 0.59447 0.48803 0.0
C285 C 0.07456 0.59713 0.37964 0.0
C286 C 0.10141 0.60571 0.37584 0.0
C287 C 0.1153 0.61157 0.48063 0.0
C288 C 0.10101 0.61155 0.5876 0.0
C289 C 0.07422 0.60296 0.59138 0.0
C290 C 1.00608 0.57222 0.87958 0.0
C291 C 0.07157 0.52707 0.81479 0.0
O292 O 0.98753 0.50293 0.00345 0.0
O293 O 1.01093 0.46945 0.93354 0.0
O294 O 1.00655 0.50305 0.63716 0.0
O295 O 0.03358 0.47736 0.72457 0.0
O296 O 0.96628 0.51768 0.78874 0.0
O297 O 0.97378 0.5388 0.61411 0.0
O298 O 0.03971 0.55255 0.49658 0.0
O299 O 1.01866 0.58664 0.57405 0.0
O300 O 0.02256 0.55275 0.86613 0.0
O301 O 0.99418 0.577 0.7806 0.0
O302 O 0.06228 0.53779 0.71669 0.0
O303 O 0.05473 0.51633 0.89068 0.0
H304 H 0.96778 0.45993 0.20705 0.0
H305 H 0.92425 0.43804 0.22344 0.0
H306 H 0.91832 0.43512 0.84408 0.0
H307 H 0.96262 0.45675 0.8285 0.0
H308 H 0.06488 0.59063 0.29909 0.0
H309 H 0.11196 0.60528 0.29218 0.0
H310 H 0.11122 0.61607 0.66943 0.0
H311 H 0.06434 0.60102 0.6762 0.0
H312 H 0.17916 0.04636 0.41154 0.0
H313 H 0.14029 0.99211 0.16945 0.0
H314 H 0.10141 0.98841 0.30166 0.0
H315 H 0.07744 1.00156 0.48611 0.0
H316 H 0.11611 0.05718 0.72378 0.0
H317 H 0.15534 0.05946 0.59473 0.0
C318 C 0.16238 0.03339 0.38884 0.0
C319 C 0.16292 1.01931 0.28101 0.0
C320 C 0.13962 0.03183 0.46449 0.0
C321 C 0.14059 1.00305 0.25209 0.0
C322 C 0.1182 1.00102 0.32756 0.0
C323 C 0.09442 1.0142 0.5094 0.0
C324 C 0.09363 0.02907 0.61549 0.0
C325 C 0.11727 1.01554 0.43378 0.0
C326 C 0.11597 0.04539 0.6434 0.0
C327 C 0.1386 0.04671 0.56948 0.0
H328 H 0.5306 0.13548 0.1467 0.0
H329 H 0.48163 0.19217 0.34165 0.0
H330 H 0.47481 0.15873 0.49653 0.0
H331 H 0.48274 0.11343 0.57809 0.0
H332 H 0.53243 0.05684 0.38674 0.0
H333 H 0.53858 0.08996 0.22909 0.0
C334 C 0.51827 0.14053 0.22263 0.0
C335 C 0.50668 0.16657 0.23169 0.0
C336 C 0.51437 0.12106 0.31199 0.0
C337 C 0.49113 0.17262 0.33223 0.0
C338 C 0.48703 0.15335 0.42072 0.0
C339 C 0.49472 0.10817 0.50133 0.0
C340 C 0.50698 0.08248 0.4944 0.0
C341 C 0.49851 0.12751 0.41163 0.0
C342 C 0.52261 0.07629 0.39444 0.0
C343 C 0.52619 0.0953 0.30419 0.0
H344 H 0.39576 0.52826 0.17725 0.0
H345 H 0.33601 0.49668 0.41713 0.0
H346 H 0.37002 0.4935 0.57176 0.0
H347 H 0.41701 0.49859 0.63806 0.0
H348 H 0.47662 0.53116 0.40041 0.0
H349 H 0.44258 0.53453 0.24526 0.0
C350 C 0.39015 0.5206 0.26327 0.0
C351 C 0.36322 0.51261 0.28488 0.0
C352 C 0.40991 0.51872 0.35193 0.0
C353 C 0.35638 0.50322 0.39785 0.0
C354 C 0.37592 0.50117 0.48619 0.0
C355 C 0.42263 0.50629 0.5521 0.0
C356 C 0.44948 0.51436 0.53065 0.0
C357 C 0.4028 0.50864 0.46402 0.0
C358 C 0.45622 0.52463 0.41913 0.0
C359 C 0.4367 0.52664 0.3305 0.0
H360 H 1.01489 0.41353 0.1542 0.0
H361 H 0.02423 0.34898 0.406 0.0
H362 H 0.02884 0.38177 0.56391 0.0
H363 H 0.02819 0.42875 0.63503 0.0
H364 H 1.01628 0.49358 0.3887 0.0
H365 H 1.01584 0.46097 0.22572 0.0
C366 C 1.01791 0.40648 0.24342 0.0
C367 C 1.01932 0.37834 0.26607 0.0
C368 C 1.02005 0.42566 0.33598 0.0
C369 C 0.02358 0.37017 0.38342 0.0
C370 C 0.02594 0.38903 0.47491 0.0
C371 C 0.0253 0.43579 0.54563 0.0
C372 C 0.02211 0.4637 0.52456 0.0
C373 C 0.0239 0.4168 0.45273 0.0
C374 C 1.01842 0.4723 0.40797 0.0
C375 C 1.01801 0.45357 0.31467 0.0
H376 H 0.89925 0.02478 0.33833 0.0
H377 H 0.83765 1.00067 0.09303 0.0
H378 H 0.87119 0.99939 0.93411 0.0
H379 H 0.9186 1.00393 0.86488 0.0
H380 H 0.97966 0.02913 0.11068 0.0
H381 H 0.94602 0.03068 0.26869 0.0
C382 C 0.89308 1.01913 0.25023 0.0
C383 C 0.86574 1.01265 0.22878 0.0
C384 C 0.91256 1.0184 0.15899 0.0
C385 C 0.85831 1.00596 0.11288 0.0
C386 C 0.87761 1.00502 0.02182 0.0
C387 C 0.92457 1.00969 0.95311 0.0
C388 C 0.95183 1.01624 0.97558 0.0
C389 C 0.90488 1.01098 0.04384 0.0
C390 C 0.95898 0.02393 0.09048 0.0
C391 C 0.93968 0.02485 0.18108 0.0
H392 H 0.54212 0.90412 0.29769 0.0
H393 H 0.47952 0.85311 0.15462 0.0
H394 H 0.47198 0.88544 0.99819 0.0
H395 H 0.48486 0.92673 0.8925 0.0
H396 H 0.5435 0.98049 0.04336 0.0
H397 H 0.55005 0.94904 0.20822 0.0
C398 C 0.52639 0.90008 0.23428 0.0
C399 C 0.51218 0.87521 0.2378 0.0
C400 C 0.52134 0.91942 0.14532 0.0
C401 C 0.49189 0.87106 0.15304 0.0
C402 C 0.48722 0.88984 0.06352 0.0
C403 C 0.49886 0.93175 0.96231 0.0
C404 C 0.51393 0.95579 0.95488 0.0
C405 C 0.50222 0.91375 0.05714 0.0
C406 C 0.53166 0.96216 0.04686 0.0
C407 C 0.53552 0.94404 0.14067 0.0
H408 H 0.63349 0.51961 0.31403 0.0
H409 H 0.69304 0.55083 0.07184 0.0
H410 H 0.65943 0.55164 0.91544 0.0
H411 H 0.61293 0.54421 0.84717 0.0
H412 H 0.55326 0.51321 0.08855 0.0
H413 H 0.58679 0.51285 0.24648 0.0
C414 C 0.63917 0.52687 0.22745 0.0
C415 C 0.66602 0.53519 0.20575 0.0
C416 C 0.61957 0.52761 0.13775 0.0
C417 C 0.67283 0.54393 0.09162 0.0
C418 C 0.65349 0.54463 0.00205 0.0
C419 C 0.60721 0.53737 0.93439 0.0
C420 C 0.58051 0.52879 0.9559 0.0
C421 C 0.62678 0.53662 0.02411 0.0
C422 C 0.5736 0.51988 0.0694 0.0
C423 C 0.59284 0.51951 0.15958 0.0
H424 H 1.01351 0.685 0.14339 0.0
H425 H 0.99253 0.63569 0.44172 0.0
H426 H 0.99582 0.59506 0.31998 0.0
H427 H 1.00107 0.57332 0.12305 0.0
H428 H 1.01988 0.62333 0.82404 0.0
H429 H 0.02154 0.66316 0.95034 0.0
C430 C 1.01033 0.66532 0.1825 0.0
C431 C 1.00278 0.66364 0.3022 0.0
C432 C 1.01175 0.64185 0.11094 0.0
C433 C 0.99829 0.63779 0.35011 0.0
C434 C 1.00015 0.61443 0.28028 0.0
C435 C 1.00599 0.59287 0.08617 0.0
C436 C 1.01034 0.59518 0.96369 0.0
C437 C 1.00631 0.61614 0.15972 0.0
C438 C 1.01635 0.62085 0.91761 0.0
C439 C 1.01729 0.64375 0.99001 0.0
H440 H 0.09135 0.22455 0.33503 0.0
H441 H 1.01504 0.25415 0.46058 0.0
H442 H 1.0109 0.21572 0.59288 0.0
H443 H 1.01881 0.16699 0.59721 0.0
H444 H 0.08848 0.13418 0.41824 0.0
H445 H 0.10579 0.17926 0.38577 0.0
C446 C 0.07466 0.22321 0.3969 0.0
C447 C 0.0527 0.24074 0.38332 0.0
C448 C 0.07064 0.19921 0.45875 0.0
C449 C 0.0317 0.24008 0.46643 0.0
C450 C 0.02903 0.2177 0.54 0.0
C451 C 0.03806 0.16976 0.55327 0.0
C452 C 0.05151 0.14743 0.50414 0.0
C453 C 0.04663 0.1958 0.52479 0.0
C454 C 0.07723 0.15103 0.45409 0.0
C455 C 0.08713 0.17693 0.43474 0.0
H456 H 0.31179 0.93235 0.17322 0.0
H457 H 0.29931 0.98804 0.45899 0.0
H458 H 0.33737 0.96858 0.56466 0.0
H459 H 0.38165 0.94776 0.53929 0.0
H460 H 0.39701 0.89589 0.24092 0.0
H461 H 0.35043 0.90149 0.17667 0.0
C462 C 0.31647 0.93897 0.26194 0.0
C463 C 0.30339 0.9619 0.3075 0.0
C464 C 0.3397 0.92914 0.31714 0.0
C465 C 0.30928 0.97047 0.42226 0.0
C466 C 0.33146 0.95972 0.48137 0.0
C467 C 0.37457 0.93658 0.46336 0.0
C468 C 0.39303 0.92213 0.39266 0.0
C469 C 0.34813 0.94083 0.42441 0.0
C470 C 0.38337 0.90776 0.2948 0.0
C471 C 0.35674 0.911 0.25799 0.0
H472 H 0.60316 0.30903 0.21819 0.0
H473 H 0.53397 0.29714 0.44156 0.0
H474 H 0.55073 0.33104 0.579 0.0
H475 H 0.57563 0.37349 0.59144 0.0
H476 H 0.64252 0.3881 0.35633 0.0
H477 H 0.63669 0.34347 0.26933 0.0
C478 C 0.5927 0.31281 0.30071 0.0
C479 C 0.56723 0.30127 0.31942 0.0
C480 C 0.60161 0.33356 0.37479 0.0
C481 C 0.55361 0.30602 0.42582 0.0
C482 C 0.56297 0.32577 0.5032 0.0
C483 C 0.58985 0.36645 0.52547 0.0
C484 C 0.60873 0.38447 0.47664 0.0
C485 C 0.58559 0.34127 0.47248 0.0
C486 C 0.62722 0.37485 0.39238 0.0
C487 C 0.62381 0.34939 0.34223 0.0
H488 H 0.22939 0.56514 0.43524 0.0
H489 H 0.23074 0.61949 0.14101 0.0
H490 H 0.19206 0.64392 0.22118 0.0
H491 H 0.15014 0.63939 0.33792 0.0
H492 H 0.14711 0.58121 0.61835 0.0
H493 H 0.19389 0.5691 0.58382 0.0
C494 C 0.2223 0.58345 0.39318 0.0
C495 C 0.23225 0.59015 0.28135 0.0
C496 C 0.19884 0.59604 0.43554 0.0
C497 C 0.22316 0.61393 0.2272 0.0
C498 C 0.20056 0.62745 0.27155 0.0
C499 C 0.16014 0.62483 0.39398 0.0
C500 C 0.14519 0.61115 0.48064 0.0
C501 C 0.18688 0.61709 0.36979 0.0
C502 C 0.15833 0.59239 0.55312 0.0
C503 C 0.18504 0.58515 0.53203 0.0
H504 H 0.04685 0.79004 0.15289 0.0
H505 H 0.11587 0.79724 0.37814 0.0
H506 H 0.13169 0.83612 0.26599 0.0
H507 H 0.11544 0.87669 0.16334 0.0
H508 H 0.03984 0.87351 0.97898 0.0
H509 H 0.03684 0.82512 0.01228 0.0
C510 C 0.06621 0.79917 0.17253 0.0
C511 C 0.0795 0.79199 0.27643 0.0
C512 C 0.07315 0.82336 0.11733 0.0
C513 C 0.10497 0.80311 0.29978 0.0
C514 C 0.11361 0.82579 0.23747 0.0
C515 C 0.09902 0.86502 0.12641 0.0
C516 C 0.0778 0.87832 0.0697 0.0
C517 C 0.09627 0.83767 0.15521 0.0
C518 C 0.05635 0.8634 0.0229 0.0
C519 C 0.05457 0.8358 0.04262 0.0
H520 H 0.74161 0.05885 0.1112 0.0
H521 H 0.7316 0.12555 0.34937 0.0
H522 H 0.69212 0.14084 0.24042 0.0
H523 H 0.6527 0.1249 0.12894 0.0
H524 H 0.6594 0.05183 0.92456 0.0
H525 H 0.70725 0.04918 0.9665 0.0
C526 C 0.73171 0.07767 0.13443 0.0
C527 C 0.73851 0.09043 0.24025 0.0
C528 C 0.70733 0.08428 0.08017 0.0
C529 C 0.7262 0.11514 0.26894 0.0
C530 C 0.70315 0.12341 0.20853 0.0
C531 C 0.66492 0.10902 0.09021 0.0
C532 C 0.65255 0.08846 0.02455 0.0
C533 C 0.69212 0.10652 0.12206 0.0
C534 C 0.6685 0.06785 0.97546 0.0
C535 C 0.69588 0.06625 0.99991 0.0
H536 H 0.4668 0.74465 0.11727 0.0
H537 H 0.54555 0.71893 0.00371 0.0
H538 H 0.52533 0.68634 0.86917 0.0
H539 H 0.48714 0.65629 0.83924 0.0
H540 H 0.40993 0.67591 0.99185 0.0
H541 H 0.4269 0.72014 0.05157 0.0
C542 C 0.47934 0.73297 0.05743 0.0
C543 C 0.50745 0.73383 0.06993 0.0
C544 C 0.46758 0.71262 0.98932 0.0
C545 C 0.52383 0.71855 0.99432 0.0
C546 C 0.51222 0.69965 0.91881 0.0
C547 C 0.4737 0.67085 0.88032 0.0
C548 C 0.44751 0.66295 0.91298 0.0
C549 C 0.48433 0.69504 0.92344 0.0
C550 C 0.43021 0.68168 0.96684 0.0
C551 C 0.44004 0.70679 0.00199 0.0
H552 H 0.81091 0.438 0.2928 0.0
H553 H 0.79705 0.49913 0.03169 0.0
H554 H 0.83308 0.48051 0.90903 0.0
H555 H 0.87688 0.45774 0.91481 0.0
H556 H 0.89318 0.39946 0.18664 0.0
H557 H 0.8477 0.40543 0.26524 0.0
C558 C 0.81477 0.4461 0.20565 0.0
C559 C 0.80196 0.47012 0.17185 0.0
C560 C 0.83667 0.43634 0.13979 0.0
C561 C 0.80685 0.48066 0.05925 0.0
C562 C 0.82782 0.4703 0.99025 0.0
C563 C 0.87005 0.44529 0.98739 0.0
C564 C 0.88862 0.42892 0.0476 0.0
C565 C 0.8443 0.44973 0.035 0.0
C566 C 0.87942 0.41277 0.14104 0.0
C567 C 0.85345 0.41629 0.18633 0.0
H568 H 0.06982 0.18999 0.04344 0.0
H569 H 0.99439 0.21824 0.90263 0.0
H570 H 0.98679 0.17358 0.81343 0.0
H571 H 0.99909 0.12405 0.79721 0.0
H572 H 0.07135 0.09648 0.96936 0.0
H573 H 0.082 0.14258 0.02744 0.0
C574 C 0.05152 0.18662 0.99369 0.0
C575 C 0.03247 0.20786 0.983 0.0
C576 C 0.04637 0.16039 0.95019 0.0
C577 C 1.00955 0.20274 0.91344 0.0
C578 C 1.005 0.17689 0.86372 0.0
C579 C 1.01723 0.12822 0.84679 0.0
C580 C 0.03436 0.10646 0.8792 0.0
C581 C 0.02281 0.15516 0.88493 0.0
C582 C 0.05768 0.11248 0.9439 0.0
C583 C 0.06386 0.13898 0.97694 0.0
H584 H 0.33444 0.99216 0.88683 0.0
H585 H 0.33973 0.05994 0.12237 0.0
H586 H 0.38593 0.06884 0.05465 0.0
H587 H 0.4268 0.05421 0.94246 0.0
H588 H 0.42037 0.98657 0.70454 0.0
H589 H 0.37317 0.98084 0.75857 0.0
C590 C 0.34535 1.00954 0.9198 0.0
C591 C 0.33327 0.0258 0.0075 0.0
C592 C 0.37217 1.01414 0.88198 0.0
C593 C 0.34812 0.04764 0.05234 0.0
C594 C 0.37478 0.05241 0.01495 0.0
C595 C 0.41503 0.03834 0.90186 0.0
C596 C 0.42754 1.02071 0.82002 0.0
C597 C 0.38738 0.0353 0.93228 0.0
C598 C 0.41162 1.00047 0.76773 0.0
C599 C 0.38446 0.99712 0.79867 0.0
H600 H 0.50233 0.35684 0.12913 0.0
H601 H 0.5344 0.32245 0.8098 0.0
H602 H 0.53171 0.36684 0.71348 0.0
H603 H 0.5244 0.41677 0.72751 0.0
H604 H 0.49339 0.44982 0.05322 0.0
H605 H 0.49197 0.40502 0.13888 0.0
C606 C 0.50819 0.3589 0.03745 0.0
C607 C 0.5184 0.33618 0.97682 0.0
C608 C 0.50739 0.38456 0.98426 0.0
C609 C 0.52606 0.33936 0.85825 0.0
C610 C 0.5249 0.36489 0.80375 0.0
C611 C 0.51712 0.41415 0.81688 0.0
C612 C 0.50918 0.43706 0.88351 0.0
C613 C 0.5163 0.38788 0.86692 0.0
C614 C 0.4998 0.43295 0.99928 0.0
C615 C 0.49889 0.40717 0.04876 0.0
H616 H 0.19135 0.56259 0.91666 0.0
H617 H 0.195 0.48457 0.08114 0.0
H618 H 0.14879 0.47489 0.01523 0.0
H619 H 0.10538 0.49107 0.92721 0.0
H620 H 0.10303 0.57 0.76938 0.0
H621 H 0.14999 0.57752 0.82279 0.0
C622 C 0.18226 0.54316 0.93553 0.0
C623 C 0.1967 0.52424 0.0028 0.0
C624 C 0.15551 0.53827 0.90144 0.0
C625 C 0.18456 0.49927 0.02763 0.0
C626 C 0.15795 0.49396 0.99153 0.0
C627 C 0.11535 0.50971 0.903 0.0
C628 C 0.10069 0.52996 0.84348 0.0
C629 C 0.1429 0.51365 0.93114 0.0
C630 C 0.11388 0.55399 0.81309 0.0
C631 C 0.1408 0.55826 0.84309 0.0
H632 H 0.99564 0.84532 0.49583 0.0
H633 H 0.06382 0.82579 0.71244 0.0
H634 H 0.06495 0.87201 0.7872 0.0
H635 H 0.04692 0.91878 0.79198 0.0
H636 H 0.98049 0.93901 0.56482 0.0
H637 H 0.97744 0.89212 0.50016 0.0
C638 C 1.00984 0.8508 0.56409 0.0
C639 C 0.02892 0.83146 0.60179 0.0
C640 C 1.01049 0.87782 0.607 0.0
C641 C 0.04817 0.83968 0.6853 0.0
C642 C 0.04889 0.86629 0.72805 0.0
C643 C 0.03159 0.91295 0.72913 0.0
C644 C 1.01392 0.93285 0.68413 0.0
C645 C 0.03022 0.88568 0.68975 0.0
C646 C 0.99446 0.92451 0.60149 0.0
C647 C 0.99263 0.8975 0.56434 0.0
H648 H 0.69071 0.99995 0.46008 0.0
H649 H 0.7051 0.0721 0.6612 0.0
H650 H 0.65876 0.07142 0.7336 0.0
H651 H 0.61333 0.05088 0.73955 0.0
H652 H 0.59819 0.9798 0.53071 0.0
H653 H 0.64539 0.97855 0.46948 0.0
C654 C 0.68413 1.01463 0.52498 0.0
C655 C 0.70191 0.03554 0.55807 0.0
C656 C 0.65712 1.01409 0.5674 0.0
C657 C 0.69236 0.05522 0.63753 0.0
C658 C 0.6657 0.05489 0.67896 0.0
C659 C 0.62037 0.03491 0.68169 0.0
C660 C 0.60184 1.01547 0.64026 0.0
C661 C 0.64775 0.03452 0.64449 0.0
C662 C 0.61166 0.99515 0.56426 0.0
C663 C 0.63884 0.99436 0.52908 0.0
H664 H 0.4892 0.68132 0.37411 0.0
H665 H 0.55151 0.71547 0.59157 0.0
H666 H 0.55512 0.67251 0.69858 0.0
H667 H 0.54294 0.62338 0.71891 0.0
H668 H 0.48515 0.58942 0.47823 0.0
H669 H 0.47779 0.63375 0.39083 0.0
C670 C 0.50373 0.67955 0.44472 0.0
C671 C 0.52043 0.70181 0.47255 0.0
C672 C 0.50667 0.65445 0.50123 0.0
C673 C 0.53832 0.69898 0.56759 0.0
C674 C 0.54058 0.6742 0.62809 0.0
C675 C 0.52874 0.62582 0.64748 0.0
C676 C 0.51468 0.60299 0.60458 0.0
C677 C 0.5253 0.65152 0.59395 0.0
C678 C 0.49638 0.60649 0.51196 0.0
C679 C 0.49208 0.6319 0.4623 0.0
H680 H 0.83444 0.49739 0.60597 0.0
H681 H 0.83953 0.56412 0.36536 0.0
H682 H 0.88581 0.57324 0.42923 0.0
H683 H 0.92665 0.55897 0.53881 0.0
H684 H 0.92061 0.49283 0.78366 0.0
H685 H 0.87325 0.48675 0.73315 0.0
C686 C 0.84536 0.51457 0.57104 0.0
C687 C 0.83334 0.53046 0.48295 0.0
C688 C 0.87216 0.51936 0.60695 0.0
C689 C 0.84804 0.5521 0.43558 0.0
C690 C 0.87469 0.55702 0.47081 0.0
C691 C 0.91491 0.54337 0.58174 0.0
C692 C 0.92746 0.52615 0.66388 0.0
C693 C 0.88729 0.54026 0.55386 0.0
C694 C 0.91171 0.5063 0.71977 0.0
C695 C 0.88451 0.50279 0.69102 0.0
loop_
_geom_bond_atom_site_label_1
_geom_bond_atom_site_label_2
_geom_bond_distance
_geom_bond_site_symmetry_2
_ccdc_geom_bond_type
H0 C1 0.949 . S
C1 H0 0.949 . S
C1 C2 1.395 . S
C1 C3 1.391 . S
C2 C1 1.395 . S
C2 C5 1.390 . S
C3 C1 1.391 . S
C3 C7 1.387 . S
C3 C8 1.491 . S
H4 C5 0.950 . S
C5 C2 1.390 . S
C5 H4 0.950 . S
C5 C6 1.378 . S
C6 C5 1.378 . S
C6 C7 1.409 . S
C7 C3 1.387 . S
C7 C6 1.409 . S
C7 H9 0.951 . S
C8 C3 1.491 . S
C8 C10 1.382 . S
C8 C12 1.404 . S
H9 C7 0.951 . S
C10 C8 1.382 . S
C10 C11 1.390 . S
C10 H15 0.949 . S
C11 C10 1.390 . S
C11 C16 1.399 . S
C12 C8 1.404 . S
C12 H13 0.950 . S
C12 C14 1.375 . S
H13 C12 0.950 . S
C14 C12 1.375 . S
C14 C16 1.382 . S
C14 H18 0.950 . S
H15 C10 0.949 . S
C16 C11 1.399 . S
C16 C14 1.382 . S
C16 H17 0.952 . S
H17 C16 0.952 . S
H18 C14 0.950 . S
H19 C20 0.949 . S
C20 H19 0.949 . S
C20 C21 1.395 . S
C20 C22 1.391 . S
C21 C20 1.395 . S
C21 C24 1.390 1_655 S
C22 C20 1.391 . S
C22 C26 1.387 . S
C22 C27 1.491 . S
H23 C24 0.950 . S
C24 C21 1.390 1_455 S
C24 H23 0.950 . S
C24 C25 1.377 1_455 S
C25 C24 1.377 1_655 S
C25 C26 1.413 . S
C26 C22 1.387 . S
C26 C25 1.413 . S
C26 H28 0.951 . S
C27 C22 1.491 . S
C27 C29 1.382 . S
C27 C31 1.404 . S
H28 C26 0.951 . S
C29 C27 1.382 . S
C29 C30 1.390 . S
C29 H34 0.949 1_655 S
C30 C29 1.390 . S
C30 C35 1.399 . S
C31 C27 1.404 . S
C31 H32 0.950 . S
C31 C33 1.375 . S
H32 C31 0.950 . S
C33 C31 1.375 . S
C33 C35 1.382 . S
C33 H37 0.950 . S
H34 C29 0.949 1_455 S
C35 C30 1.399 . S
C35 C33 1.382 . S
C35 H36 0.952 . S
H36 C35 0.952 . S
H37 C33 0.950 . S
H38 C39 0.949 . S
C39 H38 0.949 . S
C39 C40 1.395 . S
C39 C41 1.391 . S
C40 C39 1.395 . S
C40 C43 1.390 1_565 S
C41 C39 1.391 . S
C41 C45 1.387 . S
C41 C46 1.491 . S
H42 C43 0.950 . S
C43 C40 1.390 1_545 S
C43 H42 0.950 . S
C43 C44 1.377 1_545 S
C44 C43 1.377 1_565 S
C44 C45 1.413 . S
C45 C41 1.387 . S
C45 C44 1.413 . S
C45 H47 0.951 . S
C46 C41 1.491 . S
C46 C48 1.382 . S
C46 C50 1.404 . S
H47 C45 0.951 . S
C48 C46 1.382 . S
C48 C49 1.390 . S
C48 H53 0.949 1_565 S
C49 C48 1.390 . S
C49 C54 1.399 . S
C50 C46 1.404 . S
C50 H51 0.950 . S
C50 C52 1.375 . S
H51 C50 0.950 . S
C52 C50 1.375 . S
C52 C54 1.382 . S
C52 H56 0.950 . S
H53 C48 0.949 1_545 S
C54 C49 1.399 . S
C54 C52 1.382 . S
C54 H55 0.952 . S
H55 C54 0.952 . S
H56 C52 0.950 . S
H57 C58 0.949 . S
C58 H57 0.949 . S
C58 C59 1.395 . S
C58 C60 1.391 . S
C59 C58 1.395 . S
C59 C62 1.390 . S
C60 C58 1.391 . S
C60 C64 1.387 . S
C60 C65 1.491 . S
H61 C62 0.950 . S
C62 C59 1.390 . S
C62 H61 0.950 . S
C62 C63 1.378 . S
C63 C62 1.378 . S
C63 C64 1.409 . S
C64 C60 1.387 . S
C64 C63 1.409 . S
C64 H66 0.951 . S
C65 C60 1.491 . S
C65 C67 1.382 . S
C65 C69 1.404 . S
H66 C64 0.951 . S
C67 C65 1.382 . S
C67 C68 1.390 . S
C67 H72 0.949 . S
C68 C67 1.390 . S
C68 C73 1.399 . S
C69 C65 1.404 . S
C69 H70 0.950 . S
C69 C71 1.375 . S
H70 C69 0.950 . S
C71 C69 1.375 . S
C71 C73 1.382 . S
C71 H75 0.950 . S
H72 C67 0.949 . S
C73 C68 1.399 . S
C73 C71 1.382 . S
C73 H74 0.952 . S
H74 C73 0.952 . S
H75 C71 0.950 . S
H76 C77 0.949 . S
C77 H76 0.949 . S
C77 C78 1.395 . S
C77 C79 1.391 1_554 S
C78 C77 1.395 . S
C78 C81 1.390 1_554 S
C79 C77 1.391 1_556 S
C79 C83 1.387 . S
C79 C84 1.491 . S
H80 C81 0.950 . S
C81 C78 1.390 1_556 S
C81 H80 0.950 . S
C81 C82 1.378 . S
C82 C81 1.378 . S
C82 C83 1.409 . S
C83 C79 1.387 . S
C83 C82 1.409 . S
C83 H85 0.951 . S
C84 C79 1.491 . S
C84 C86 1.382 1_556 S
C84 C88 1.404 . S
H85 C83 0.951 . S
C86 C84 1.382 1_554 S
C86 C87 1.390 . S
C86 H91 0.949 . S
C87 C86 1.390 . S
C87 C92 1.399 1_554 S
C88 C84 1.404 . S
C88 H89 0.950 . S
C88 C90 1.375 . S
H89 C88 0.950 . S
C90 C88 1.375 . S
C90 C92 1.382 . S
C90 H94 0.950 . S
H91 C86 0.949 . S
C92 C87 1.399 1_556 S
C92 C90 1.382 . S
C92 H93 0.952 . S
H93 C92 0.952 . S
H94 C90 0.950 . S
H95 C96 0.949 . S
C96 H95 0.949 . S
C96 C97 1.394 . S
C96 C98 1.391 1_554 S
C97 C96 1.394 . S
C97 C100 1.391 1_654 S
C98 C96 1.391 1_556 S
C98 C102 1.387 . S
C98 C103 1.491 . S
H99 C100 0.950 . S
C100 C97 1.391 1_456 S
C100 H99 0.950 . S
C100 C101 1.377 1_455 S
C101 C100 1.377 1_655 S
C101 C102 1.411 . S
C102 C98 1.387 . S
C102 C101 1.411 . S
C102 H104 0.951 . S
C103 C98 1.491 . S
C103 C105 1.382 1_556 S
C103 C107 1.404 . S
H104 C102 0.951 . S
C105 C103 1.382 1_554 S
C105 C106 1.390 . S
C105 H110 0.949 1_655 S
C106 C105 1.390 . S
C106 C111 1.399 1_554 S
C107 C103 1.404 . S
C107 H108 0.950 . S
C107 C109 1.375 . S
H108 C107 0.950 . S
C109 C107 1.375 . S
C109 C111 1.382 . S
C109 H113 0.950 . S
H110 C105 0.949 1_455 S
C111 C106 1.399 1_556 S
C111 C109 1.382 . S
C111 H112 0.952 . S
H112 C111 0.952 . S
H113 C109 0.950 . S
H114 C115 0.949 . S
C115 H114 0.949 . S
C115 C116 1.394 . S
C115 C117 1.391 1_554 S
C116 C115 1.394 . S
C116 C119 1.391 1_564 S
C117 C115 1.391 1_556 S
C117 C121 1.387 . S
C117 C122 1.491 . S
H118 C119 0.950 . S
C119 C116 1.391 1_546 S
C119 H118 0.950 . S
C119 C120 1.377 1_545 S
C120 C119 1.377 1_565 S
C120 C121 1.411 . S
C121 C117 1.387 . S
C121 C120 1.411 . S
C121 H123 0.951 . S
C122 C117 1.491 . S
C122 C124 1.382 1_556 S
C122 C126 1.404 . S
H123 C121 0.951 . S
C124 C122 1.382 1_554 S
C124 C125 1.390 . S
C124 H129 0.949 1_565 S
C125 C124 1.390 . S
C125 C130 1.399 1_554 S
C126 C122 1.404 . S
C126 H127 0.950 . S
C126 C128 1.375 . S
H127 C126 0.950 . S
C128 C126 1.375 . S
C128 C130 1.382 . S
C128 H132 0.950 . S
H129 C124 0.949 1_545 S
C130 C125 1.399 1_556 S
C130 C128 1.382 . S
C130 H131 0.952 . S
H131 C130 0.952 . S
H132 C128 0.950 . S
H133 C134 0.949 . S
C134 H133 0.949 . S
C134 C135 1.395 . S
C134 C136 1.391 1_554 S
C135 C134 1.395 . S
C135 C138 1.390 1_554 S
C136 C134 1.391 1_556 S
C136 C140 1.387 . S
C136 C141 1.491 . S
H137 C138 0.950 . S
C138 C135 1.390 1_556 S
C138 H137 0.950 . S
C138 C139 1.378 . S
C139 C138 1.378 . S
C139 C140 1.409 . S
C140 C136 1.387 . S
C140 C139 1.409 . S
C140 H142 0.951 . S
C141 C136 1.491 . S
C141 C143 1.382 1_556 S
C141 C145 1.404 . S
H142 C140 0.951 . S
C143 C141 1.382 1_554 S
C143 C144 1.390 . S
C143 H148 0.949 . S
C144 C143 1.390 . S
C144 C149 1.399 1_554 S
C145 C141 1.404 . S
C145 H146 0.950 . S
C145 C147 1.375 . S
H146 C145 0.950 . S
C147 C145 1.375 . S
C147 C149 1.382 . S
C147 H151 0.950 . S
H148 C143 0.949 . S
C149 C144 1.399 1_556 S
C149 C147 1.382 . S
C149 H150 0.952 . S
H150 C149 0.952 . S
H151 C147 0.950 . S
Sm152 C154 2.846 1_556 S
Sm152 O172 2.548 . S
Sm152 O173 2.450 . S
Sm152 O174 2.681 1_565 S
Sm152 O175 2.464 . S
Sm152 O176 2.396 . S
Sm152 O180 2.386 1_455 S
Sm152 O183 2.408 1_565 S
Sm153 C163 2.846 . S
Sm153 O174 2.386 1_655 S
Sm153 O177 2.408 1_545 S
Sm153 O178 2.545 . S
Sm153 O179 2.450 . S
Sm153 O180 2.681 1_545 S
Sm153 O181 2.464 . S
Sm153 O182 2.396 . S
C154 Sm152 2.846 1_554 S
C154 C155 1.506 . S
C154 O172 1.275 1_554 S
C154 O173 1.242 1_554 S
C155 C154 1.506 . S
C155 C156 1.358 . S
C155 C160 1.382 . S
C156 C155 1.358 . S
C156 C157 1.385 . S
C156 H184 0.930 1_455 S
C157 C156 1.385 . S
C157 C158 1.395 . S
C157 H185 0.929 1_455 S
C158 C157 1.395 . S
C158 C159 1.335 . S
C159 C158 1.335 . S
C159 C160 1.398 . S
C159 H186 0.930 . S
C160 C155 1.382 . S
C160 C159 1.398 . S
C160 H187 0.929 . S
C161 O174 1.271 1_565 S
C161 O175 1.251 . S
C162 O176 1.252 1_655 S
C162 O177 1.272 . S
C163 Sm153 2.846 . S
C163 C164 1.506 . S
C163 O178 1.266 . S
C163 O179 1.242 . S
C164 C163 1.506 . S
C164 C165 1.358 . S
C164 C169 1.382 . S
C165 C164 1.358 . S
C165 C166 1.385 . S
C165 H188 0.930 1_655 S
C166 C165 1.385 . S
C166 C167 1.395 . S
C166 H189 0.929 1_655 S
C167 C166 1.395 . S
C167 C168 1.335 . S
C168 C167 1.335 . S
C168 C169 1.398 . S
C168 H190 0.930 . S
C169 C164 1.382 . S
C169 C168 1.398 . S
C169 H191 0.929 . S
C170 O180 1.271 1_545 S
C170 O181 1.251 . S
C171 O182 1.252 1_455 S
C171 O183 1.272 . S
O172 Sm152 2.548 . S
O172 C154 1.275 1_556 S
O173 Sm152 2.450 . S
O173 C154 1.242 1_556 S
O174 Sm152 2.681 1_545 S
O174 Sm153 2.386 1_455 S
O174 C161 1.271 1_545 S
O175 Sm152 2.464 . S
O175 C161 1.251 . S
O176 Sm152 2.396 . S
O176 C162 1.252 1_455 S
O177 Sm153 2.408 1_565 S
O177 C162 1.272 . S
O178 Sm153 2.545 . S
O178 C163 1.266 . S
O179 Sm153 2.450 . S
O179 C163 1.242 . S
O180 Sm152 2.386 1_655 S
O180 Sm153 2.681 1_565 S
O180 C170 1.271 1_565 S
O181 Sm153 2.464 . S
O181 C170 1.251 . S
O182 Sm153 2.396 . S
O182 C171 1.252 1_655 S
O183 Sm152 2.408 1_545 S
O183 C171 1.272 . S
H184 C156 0.930 1_655 S
H185 C157 0.929 1_655 S
H186 C159 0.930 . S
H187 C160 0.929 . S
H188 C165 0.930 1_455 S
H189 C166 0.929 1_455 S
H190 C168 0.930 . S
H191 C169 0.929 . S
Sm192 C194 2.846 1_556 S
Sm192 O212 2.545 . S
Sm192 O213 2.450 . S
Sm192 O214 2.681 . S
Sm192 O215 2.464 . S
Sm192 O216 2.396 . S
Sm192 O220 2.386 1_545 S
Sm192 O223 2.408 . S
Sm193 C203 2.846 . S
Sm193 O214 2.386 1_565 S
Sm193 O217 2.408 . S
Sm193 O218 2.541 . S
Sm193 O219 2.450 . S
Sm193 O220 2.681 . S
Sm193 O221 2.464 . S
Sm193 O222 2.396 . S
C194 Sm192 2.846 1_554 S
C194 C195 1.506 . S
C194 O212 1.266 1_554 S
C194 O213 1.242 1_554 S
C195 C194 1.506 . S
C195 C196 1.358 . S
C195 C200 1.382 . S
C196 C195 1.358 . S
C196 C197 1.385 . S
C196 H224 0.930 1_545 S
C197 C196 1.385 . S
C197 C198 1.395 . S
C197 H225 0.929 1_545 S
C198 C197 1.395 . S
C198 C199 1.335 . S
C199 C198 1.335 . S
C199 C200 1.398 . S
C199 H226 0.930 . S
C200 C195 1.382 . S
C200 C199 1.398 . S
C200 H227 0.929 . S
C201 O214 1.271 . S
C201 O215 1.251 . S
C202 O216 1.252 1_565 S
C202 O217 1.272 . S
C203 Sm193 2.846 . S
C203 C204 1.506 . S
C203 O218 1.257 . S
C203 O219 1.242 . S
C204 C203 1.506 . S
C204 C205 1.358 . S
C204 C209 1.382 . S
C205 C204 1.358 . S
C205 C206 1.385 . S
C205 H228 0.930 1_565 S
C206 C205 1.385 . S
C206 C207 1.395 . S
C206 H229 0.929 1_565 S
C207 C206 1.395 . S
C207 C208 1.335 . S
C208 C207 1.335 . S
C208 C209 1.398 . S
C208 H230 0.930 . S
C209 C204 1.382 . S
C209 C208 1.398 . S
C209 H231 0.929 . S
C210 O220 1.271 . S
C210 O221 1.251 . S
C211 O222 1.252 1_545 S
C211 O223 1.272 . S
O212 Sm192 2.545 . S
O212 C194 1.266 1_556 S
O213 Sm192 2.450 . S
O213 C194 1.242 1_556 S
O214 Sm192 2.681 . S
O214 Sm193 2.386 1_545 S
O214 C201 1.271 . S
O215 Sm192 2.464 . S
O215 C201 1.251 . S
O216 Sm192 2.396 . S
O216 C202 1.252 1_545 S
O217 Sm193 2.408 . S
O217 C202 1.272 . S
O218 Sm193 2.541 . S
O218 C203 1.257 . S
O219 Sm193 2.450 . S
O219 C203 1.242 . S
O220 Sm192 2.386 1_565 S
O220 Sm193 2.681 . S
O220 C210 1.271 . S
O221 Sm193 2.464 . S
O221 C210 1.251 . S
O222 Sm193 2.396 . S
O222 C211 1.252 1_565 S
O223 Sm192 2.408 . S
O223 C211 1.272 . S
H224 C196 0.930 1_565 S
H225 C197 0.929 1_565 S
H226 C199 0.930 . S
H227 C200 0.929 . S
H228 C205 0.930 1_545 S
H229 C206 0.929 1_545 S
H230 C208 0.930 . S
H231 C209 0.929 . S
Sm232 C234 2.846 1_556 S
Sm232 O252 2.543 . S
Sm232 O253 2.450 . S
Sm232 O254 2.681 . S
Sm232 O255 2.464 . S
Sm232 O256 2.396 . S
Sm232 O260 2.386 . S
Sm232 O263 2.408 . S
Sm233 C243 2.846 . S
Sm233 O254 2.386 . S
Sm233 O257 2.408 . S
Sm233 O258 2.543 . S
Sm233 O259 2.450 . S
Sm233 O260 2.681 . S
Sm233 O261 2.464 . S
Sm233 O262 2.396 . S
C234 Sm232 2.846 1_554 S
C234 C235 1.506 . S
C234 O252 1.261 1_554 S
C234 O253 1.242 1_554 S
C235 C234 1.506 . S
C235 C236 1.358 . S
C235 C240 1.382 . S
C236 C235 1.358 . S
C236 C237 1.385 . S
C236 H264 0.930 . S
C237 C236 1.385 . S
C237 C238 1.395 . S
C237 H265 0.929 . S
C238 C237 1.395 . S
C238 C239 1.335 . S
C239 C238 1.335 . S
C239 C240 1.398 . S
C239 H266 0.930 . S
C240 C235 1.382 . S
C240 C239 1.398 . S
C240 H267 0.929 . S
C241 O254 1.271 . S
C241 O255 1.251 . S
C242 O256 1.252 . S
C242 O257 1.272 . S
C243 Sm233 2.846 . S
C243 C244 1.506 . S
C243 O258 1.261 . S
C243 O259 1.242 . S
C244 C243 1.506 . S
C244 C245 1.358 . S
C244 C249 1.382 . S
C245 C244 1.358 . S
C245 C246 1.385 . S
C245 H268 0.930 . S
C246 C245 1.385 . S
C246 C247 1.395 . S
C246 H269 0.929 . S
C247 C246 1.395 . S
C247 C248 1.335 . S
C248 C247 1.335 . S
C248 C249 1.398 . S
C248 H270 0.930 . S
C249 C244 1.382 . S
C249 C248 1.398 . S
C249 H271 0.929 . S
C250 O260 1.271 . S
C250 O261 1.251 . S
C251 O262 1.252 . S
C251 O263 1.272 . S
O252 Sm232 2.543 . S
O252 C234 1.261 1_556 S
O253 Sm232 2.450 . S
O253 C234 1.242 1_556 S
O254 Sm232 2.681 . S
O254 Sm233 2.386 . S
O254 C241 1.271 . S
O255 Sm232 2.464 . S
O255 C241 1.251 . S
O256 Sm232 2.396 . S
O256 C242 1.252 . S
O257 Sm233 2.408 . S
O257 C242 1.272 . S
O258 Sm233 2.543 . S
O258 C243 1.261 . S
O259 Sm233 2.450 . S
O259 C243 1.242 . S
O260 Sm232 2.386 . S
O260 Sm233 2.681 . S
O260 C250 1.271 . S
O261 Sm233 2.464 . S
O261 C250 1.251 . S
O262 Sm233 2.396 . S
O262 C251 1.252 . S
O263 Sm232 2.408 . S
O263 C251 1.272 . S
H264 C236 0.930 . S
H265 C237 0.929 . S
H266 C239 0.930 . S
H267 C240 0.929 . S
H268 C245 0.930 . S
H269 C246 0.929 . S
H270 C248 0.930 . S
H271 C249 0.929 . S
Sm272 C274 2.846 1_556 S
Sm272 O292 2.543 . S
Sm272 O293 2.450 . S
Sm272 O294 2.681 1_655 S
Sm272 O295 2.464 . S
Sm272 O296 2.396 . S
Sm272 O300 2.386 . S
Sm272 O303 2.408 1_655 S
Sm273 C283 2.846 . S
Sm273 O294 2.386 . S
Sm273 O297 2.408 1_455 S
Sm273 O298 2.543 . S
Sm273 O299 2.450 . S
Sm273 O300 2.681 1_455 S
Sm273 O301 2.464 . S
Sm273 O302 2.396 . S
C274 Sm272 2.846 1_554 S
C274 C275 1.506 . S
C274 O292 1.261 1_554 S
C274 O293 1.242 1_554 S
C275 C274 1.506 . S
C275 C276 1.358 . S
C275 C280 1.382 . S
C276 C275 1.358 . S
C276 C277 1.385 . S
C276 H304 0.930 . S
C277 C276 1.385 . S
C277 C278 1.395 . S
C277 H305 0.929 . S
C278 C277 1.395 . S
C278 C279 1.335 . S
C279 C278 1.335 . S
C279 C280 1.398 . S
C279 H306 0.930 . S
C280 C275 1.382 . S
C280 C279 1.398 . S
C280 H307 0.929 . S
C281 O294 1.260 1_655 S
C281 O295 1.270 . S
C282 O296 1.252 . S
C282 O297 1.272 . S
C283 Sm273 2.846 . S
C283 C284 1.506 . S
C283 O298 1.261 . S
C283 O299 1.242 . S
C284 C283 1.506 . S
C284 C285 1.358 . S
C284 C289 1.382 . S
C285 C284 1.358 . S
C285 C286 1.385 . S
C285 H308 0.930 . S
C286 C285 1.385 . S
C286 C287 1.395 . S
C286 H309 0.929 . S
C287 C286 1.395 . S
C287 C288 1.335 . S
C288 C287 1.335 . S
C288 C289 1.398 . S
C288 H310 0.930 . S
C289 C284 1.382 . S
C289 C288 1.398 . S
C289 H311 0.929 . S
C290 O300 1.271 1_455 S
C290 O301 1.251 . S
C291 O302 1.252 . S
C291 O303 1.272 . S
O292 Sm272 2.543 . S
O292 C274 1.261 1_556 S
O293 Sm272 2.450 . S
O293 C274 1.242 1_556 S
O294 Sm272 2.681 1_455 S
O294 Sm273 2.386 . S
O294 C281 1.260 1_455 S
O295 Sm272 2.464 . S
O295 C281 1.270 . S
O296 Sm272 2.396 . S
O296 C282 1.252 . S
O297 Sm273 2.408 1_655 S
O297 C282 1.272 . S
O298 Sm273 2.543 . S
O298 C283 1.261 . S
O299 Sm273 2.450 . S
O299 C283 1.242 . S
O300 Sm272 2.386 . S
O300 Sm273 2.681 1_655 S
O300 C290 1.271 1_655 S
O301 Sm273 2.464 . S
O301 C290 1.251 . S
O302 Sm273 2.396 . S
O302 C291 1.252 . S
O303 Sm272 2.408 1_455 S
O303 C291 1.272 . S
H304 C276 0.930 . S
H305 C277 0.929 . S
H306 C279 0.930 . S
H307 C280 0.929 . S
H308 C285 0.930 . S
H309 C286 0.929 . S
H310 C288 0.930 . S
H311 C289 0.929 . S
H312 C318 0.929 . S
H313 C321 0.930 . S
H314 C322 0.930 . S
H315 C323 0.929 . S
H316 C326 0.930 . S
H317 C327 0.930 . S
C318 H312 0.929 . S
C318 C319 1.353 1_545 S
C318 C320 1.416 . S
C319 C318 1.353 1_565 S
C319 C321 1.421 . S
C320 C318 1.416 . S
C320 C325 1.425 1_545 S
C320 C327 1.409 . S
C321 H313 0.930 . S
C321 C319 1.421 . S
C321 C322 1.362 . S
C322 H314 0.930 . S
C322 C321 1.362 . S
C322 C325 1.409 . S
C323 H315 0.929 . S
C323 C324 1.357 . S
C323 C325 1.414 1_545 S
C324 C323 1.357 . S
C324 C326 1.419 . S
C325 C320 1.425 1_565 S
C325 C322 1.409 . S
C325 C323 1.414 1_565 S
C326 H316 0.930 . S
C326 C324 1.419 . S
C326 C327 1.362 . S
C327 H317 0.930 . S
C327 C320 1.409 . S
C327 C326 1.362 . S
H328 C334 0.930 . S
H329 C337 0.930 . S
H330 C338 0.930 . S
H331 C339 0.930 . S
H332 C342 0.930 . S
H333 C343 0.930 . S
C334 H328 0.930 . S
C334 C335 1.355 . S
C334 C336 1.415 . S
C335 C334 1.355 . S
C335 C337 1.419 . S
C336 C334 1.415 . S
C336 C341 1.425 . S
C336 C343 1.409 . S
C337 H329 0.930 . S
C337 C335 1.419 . S
C337 C338 1.362 . S
C338 H330 0.930 . S
C338 C337 1.362 . S
C338 C341 1.409 . S
C339 H331 0.930 . S
C339 C340 1.355 . S
C339 C341 1.415 . S
C340 C339 1.355 . S
C340 C342 1.419 . S
C341 C336 1.425 . S
C341 C338 1.409 . S
C341 C339 1.415 . S
C342 H332 0.930 . S
C342 C340 1.419 . S
C342 C343 1.362 . S
C343 H333 0.930 . S
C343 C336 1.409 . S
C343 C342 1.362 . S
H344 C350 0.930 . S
H345 C353 0.930 . S
H346 C354 0.930 . S
H347 C355 0.930 . S
H348 C358 0.930 . S
H349 C359 0.930 . S
C350 H344 0.930 . S
C350 C351 1.355 . S
C350 C352 1.415 . S
C351 C350 1.355 . S
C351 C353 1.419 . S
C352 C350 1.415 . S
C352 C357 1.425 . S
C352 C359 1.409 . S
C353 H345 0.930 . S
C353 C351 1.419 . S
C353 C354 1.362 . S
C354 H346 0.930 . S
C354 C353 1.362 . S
C354 C357 1.409 . S
C355 H347 0.930 . S
C355 C356 1.355 . S
C355 C357 1.415 . S
C356 C355 1.355 . S
C356 C358 1.419 . S
C357 C352 1.425 . S
C357 C354 1.409 . S
C357 C355 1.415 . S
C358 H348 0.930 . S
C358 C356 1.419 . S
C358 C359 1.362 . S
C359 H349 0.930 . S
C359 C352 1.409 . S
C359 C358 1.362 . S
H360 C366 0.930 . S
H361 C369 0.930 . S
H362 C370 0.930 . S
H363 C371 0.930 . S
H364 C374 0.930 . S
H365 C375 0.930 . S
C366 H360 0.930 . S
C366 C367 1.355 1_655 S
C366 C368 1.415 . S
C367 C366 1.355 1_455 S
C367 C369 1.419 . S
C368 C366 1.415 . S
C368 C373 1.425 1_655 S
C368 C375 1.409 . S
C369 H361 0.930 . S
C369 C367 1.419 . S
C369 C370 1.362 . S
C370 H362 0.930 . S
C370 C369 1.362 . S
C370 C373 1.409 . S
C371 H363 0.930 . S
C371 C372 1.354 . S
C371 C373 1.415 . S
C372 C371 1.354 . S
C372 C374 1.419 1_455 S
C373 C368 1.425 1_455 S
C373 C370 1.409 . S
C373 C371 1.415 . S
C374 H364 0.930 . S
C374 C372 1.419 1_655 S
C374 C375 1.362 . S
C375 H365 0.930 . S
C375 C368 1.409 . S
C375 C374 1.362 . S
H376 C382 0.930 . S
H377 C385 0.930 . S
H378 C386 0.930 . S
H379 C387 0.930 . S
H380 C390 0.930 . S
H381 C391 0.930 . S
C382 H376 0.930 . S
C382 C383 1.355 1_545 S
C382 C384 1.415 . S
C383 C382 1.355 1_565 S
C383 C385 1.418 . S
C384 C382 1.415 . S
C384 C389 1.425 1_545 S
C384 C391 1.409 . S
C385 H377 0.930 . S
C385 C383 1.418 . S
C385 C386 1.362 . S
C386 H378 0.930 . S
C386 C385 1.362 . S
C386 C389 1.409 . S
C387 H379 0.930 . S
C387 C388 1.365 . S
C387 C389 1.415 1_556 S
C388 C387 1.365 . S
C388 C390 1.407 1_566 S
C389 C384 1.425 1_565 S
C389 C386 1.409 . S
C389 C387 1.415 1_554 S
C390 H380 0.930 . S
C390 C388 1.407 1_544 S
C390 C391 1.362 . S
C391 H381 0.930 . S
C391 C384 1.409 . S
C391 C390 1.362 . S
H392 C398 0.930 . S
H393 C401 0.930 . S
H394 C402 0.930 . S
H395 C403 0.930 . S
H396 C406 0.930 . S
H397 C407 0.930 . S
C398 H392 0.930 . S
C398 C399 1.355 . S
C398 C400 1.415 . S
C399 C398 1.355 . S
C399 C401 1.419 . S
C400 C398 1.415 . S
C400 C405 1.425 . S
C400 C407 1.409 . S
C401 H393 0.930 . S
C401 C399 1.419 . S
C401 C402 1.362 . S
C402 H394 0.930 . S
C402 C401 1.362 . S
C402 C405 1.409 . S
C403 H395 0.930 . S
C403 C404 1.355 1_554 S
C403 C405 1.415 . S
C404 C403 1.355 1_556 S
C404 C406 1.419 . S
C405 C400 1.425 . S
C405 C402 1.409 . S
C405 C403 1.415 . S
C406 H396 0.930 . S
C406 C404 1.419 . S
C406 C407 1.362 1_556 S
C407 H397 0.930 . S
C407 C400 1.409 . S
C407 C406 1.362 1_554 S
H408 C414 0.930 . S
H409 C417 0.930 . S
H410 C418 0.930 . S
H411 C419 0.930 1_556 S
H412 C422 0.930 1_556 S
H413 C423 0.930 . S
C414 H408 0.930 . S
C414 C415 1.355 . S
C414 C416 1.415 . S
C415 C414 1.355 . S
C415 C417 1.419 . S
C416 C414 1.415 . S
C416 C421 1.425 . S
C416 C423 1.409 . S
C417 H409 0.930 . S
C417 C415 1.419 . S
C417 C418 1.362 . S
C418 H410 0.930 . S
C418 C417 1.362 . S
C418 C421 1.409 . S
C419 H411 0.930 1_554 S
C419 C420 1.355 1_554 S
C419 C421 1.415 . S
C420 C419 1.355 1_556 S
C420 C422 1.419 1_556 S
C421 C416 1.425 . S
C421 C418 1.409 . S
C421 C419 1.415 . S
C422 H412 0.930 1_554 S
C422 C420 1.419 1_554 S
C422 C423 1.362 . S
C423 H413 0.930 . S
C423 C416 1.409 . S
C423 C422 1.362 . S
H424 C430 0.930 . S
H425 C433 0.930 . S
H426 C434 0.930 . S
H427 C435 0.930 . S
H428 C438 0.930 . S
H429 C439 0.930 . S
C430 H424 0.930 . S
C430 C431 1.354 1_455 S
C430 C432 1.415 . S
C431 C430 1.354 1_655 S
C431 C433 1.419 . S
C432 C430 1.415 . S
C432 C437 1.424 1_455 S
C432 C439 1.411 1_554 S
C433 H425 0.930 . S
C433 C431 1.419 . S
C433 C434 1.362 . S
C434 H426 0.930 . S
C434 C433 1.362 . S
C434 C437 1.409 . S
C435 H427 0.930 . S
C435 C436 1.355 1_554 S
C435 C437 1.415 . S
C436 C435 1.355 1_556 S
C436 C438 1.418 1_655 S
C437 C432 1.424 1_655 S
C437 C434 1.409 . S
C437 C435 1.415 . S
C438 H428 0.930 . S
C438 C436 1.418 1_455 S
C438 C439 1.362 . S
C439 H429 0.930 . S
C439 C432 1.411 1_556 S
C439 C438 1.362 . S
H440 C446 0.930 . S
H441 C449 0.930 . S
H442 C450 0.930 . S
H443 C451 0.930 . S
H444 C454 0.930 . S
H445 C455 0.930 1_455 S
C446 H440 0.930 . S
C446 C447 1.346 1_455 S
C446 C448 1.415 1_455 S
C447 C446 1.346 1_655 S
C447 C449 1.450 . S
C448 C446 1.415 1_655 S
C448 C453 1.425 . S
C448 C455 1.409 . S
C449 H441 0.930 . S
C449 C447 1.450 . S
C449 C450 1.362 . S
C450 H442 0.930 . S
C450 C449 1.362 . S
C450 C453 1.409 . S
C451 H443 0.930 . S
C451 C452 1.355 . S
C451 C453 1.415 . S
C452 C451 1.355 . S
C452 C454 1.419 . S
C453 C448 1.425 . S
C453 C450 1.409 . S
C453 C451 1.415 . S
C454 H444 0.930 . S
C454 C452 1.419 . S
C454 C455 1.362 . S
C455 H445 0.930 1_655 S
C455 C448 1.409 . S
C455 C454 1.362 . S
H456 C462 0.930 . S
H457 C465 0.930 . S
H458 C466 0.930 . S
H459 C467 0.959 . S
H460 C470 0.930 . S
H461 C471 0.930 . S
C462 H456 0.930 . S
C462 C463 1.355 1_565 S
C462 C464 1.415 . S
C463 C462 1.355 1_545 S
C463 C465 1.419 . S
C464 C462 1.415 . S
C464 C469 1.425 . S
C464 C471 1.409 . S
C465 H457 0.930 . S
C465 C463 1.419 . S
C465 C466 1.362 . S
C466 H458 0.930 . S
C466 C465 1.362 . S
C466 C469 1.409 1_545 S
C467 H459 0.959 . S
C467 C468 1.355 . S
C467 C469 1.415 . S
C468 C467 1.355 . S
C468 C470 1.419 . S
C469 C464 1.425 . S
C469 C466 1.409 1_565 S
C469 C467 1.415 . S
C470 H460 0.930 . S
C470 C468 1.419 . S
C470 C471 1.362 . S
C471 H461 0.930 . S
C471 C464 1.409 . S
C471 C470 1.362 . S
H472 C478 0.930 1_556 S
H473 C481 0.930 . S
H474 C482 0.930 . S
H475 C483 0.930 . S
H476 C486 0.930 . S
H477 C487 0.930 . S
C478 H472 0.930 1_554 S
C478 C479 1.355 . S
C478 C480 1.415 . S
C479 C478 1.355 . S
C479 C481 1.419 . S
C480 C478 1.415 . S
C480 C485 1.425 . S
C480 C487 1.409 . S
C481 H473 0.930 . S
C481 C479 1.419 . S
C481 C482 1.362 . S
C482 H474 0.930 . S
C482 C481 1.362 . S
C482 C485 1.409 . S
C483 H475 0.930 . S
C483 C484 1.355 . S
C483 C485 1.415 . S
C484 C483 1.355 . S
C484 C486 1.419 . S
C485 C480 1.425 . S
C485 C482 1.409 . S
C485 C483 1.415 . S
C486 H476 0.930 . S
C486 C484 1.419 . S
C486 C487 1.362 . S
C487 H477 0.930 . S
C487 C480 1.409 . S
C487 C486 1.362 . S
H488 C494 0.930 . S
H489 C497 0.930 1_556 S
H490 C498 0.930 . S
H491 C499 0.930 . S
H492 C502 0.930 . S
H493 C503 0.930 . S
C494 H488 0.930 . S
C494 C495 1.355 . S
C494 C496 1.415 . S
C495 C494 1.355 . S
C495 C497 1.419 . S
C496 C494 1.415 . S
C496 C501 1.425 . S
C496 C503 1.409 . S
C497 H489 0.930 1_554 S
C497 C495 1.419 . S
C497 C498 1.362 . S
C498 H490 0.930 . S
C498 C497 1.362 . S
C498 C501 1.409 . S
C499 H491 0.930 . S
C499 C500 1.355 . S
C499 C501 1.415 . S
C500 C499 1.355 . S
C500 C502 1.419 . S
C501 C496 1.425 . S
C501 C498 1.409 . S
C501 C499 1.415 . S
C502 H492 0.930 . S
C502 C500 1.419 . S
C502 C503 1.362 . S
C503 H493 0.930 . S
C503 C496 1.409 . S
C503 C502 1.362 . S
H504 C510 0.930 . S
H505 C513 0.930 . S
H506 C514 0.930 . S
H507 C515 0.930 . S
H508 C518 0.930 . S
H509 C519 0.930 1_655 S
C510 H504 0.930 . S
C510 C511 1.356 . S
C510 C512 1.415 1_655 S
C511 C510 1.356 . S
C511 C513 1.414 1_655 S
C512 C510 1.415 1_455 S
C512 C517 1.425 . S
C512 C519 1.409 . S
C513 H505 0.930 . S
C513 C511 1.414 1_455 S
C513 C514 1.362 . S
C514 H506 0.930 . S
C514 C513 1.362 . S
C514 C517 1.409 . S
C515 H507 0.930 . S
C515 C516 1.355 . S
C515 C517 1.415 . S
C516 C515 1.355 . S
C516 C518 1.419 . S
C517 C512 1.425 . S
C517 C514 1.409 . S
C517 C515 1.415 . S
C518 H508 0.930 . S
C518 C516 1.419 . S
C518 C519 1.362 . S
C519 H509 0.930 1_455 S
C519 C512 1.409 . S
C519 C518 1.362 . S
H520 C526 0.930 . S
H521 C529 0.930 . S
H522 C530 0.930 . S
H523 C531 0.930 . S
H524 C534 0.930 . S
H525 C535 0.930 . S
C526 H520 0.930 . S
C526 C527 1.341 1_565 S
C526 C528 1.415 1_565 S
C527 C526 1.341 1_545 S
C527 C529 1.452 . S
C528 C526 1.415 1_545 S
C528 C533 1.425 . S
C528 C535 1.409 1_545 S
C529 H521 0.930 . S
C529 C527 1.452 . S
C529 C530 1.362 . S
C530 H522 0.930 . S
C530 C529 1.362 . S
C530 C533 1.409 . S
C531 H523 0.930 . S
C531 C532 1.355 . S
C531 C533 1.415 . S
C532 C531 1.355 . S
C532 C534 1.419 . S
C533 C528 1.425 . S
C533 C530 1.409 . S
C533 C531 1.415 . S
C534 H524 0.930 . S
C534 C532 1.419 . S
C534 C535 1.362 1_545 S
C535 H525 0.930 . S
C535 C528 1.409 1_565 S
C535 C534 1.362 1_565 S
H536 C542 0.930 . S
H537 C545 0.930 . S
H538 C546 0.930 . S
H539 C547 0.930 . S
H540 C550 0.930 . S
H541 C551 0.930 . S
C542 H536 0.930 . S
C542 C543 1.355 . S
C542 C544 1.415 . S
C543 C542 1.355 . S
C543 C545 1.419 . S
C544 C542 1.415 . S
C544 C549 1.425 . S
C544 C551 1.409 . S
C545 H537 0.930 . S
C545 C543 1.419 . S
C545 C546 1.362 . S
C546 H538 0.930 . S
C546 C545 1.362 . S
C546 C549 1.409 . S
C547 H539 0.930 . S
C547 C548 1.355 . S
C547 C549 1.415 . S
C548 C547 1.355 . S
C548 C550 1.419 . S
C549 C544 1.425 . S
C549 C546 1.409 . S
C549 C547 1.415 . S
C550 H540 0.930 . S
C550 C548 1.419 . S
C550 C551 1.362 . S
C551 H541 0.930 . S
C551 C544 1.409 . S
C551 C550 1.362 . S
H552 C558 0.930 . S
H553 C561 0.930 . S
H554 C562 0.930 . S
H555 C563 0.930 . S
H556 C566 0.930 . S
H557 C567 0.930 . S
C558 H552 0.930 . S
C558 C559 1.355 . S
C558 C560 1.415 . S
C559 C558 1.355 . S
C559 C561 1.419 . S
C560 C558 1.415 . S
C560 C565 1.425 . S
C560 C567 1.409 . S
C561 H553 0.930 . S
C561 C559 1.419 . S
C561 C562 1.362 . S
C562 H554 0.930 . S
C562 C561 1.362 . S
C562 C565 1.409 . S
C563 H555 0.930 . S
C563 C564 1.355 . S
C563 C565 1.415 . S
C564 C563 1.355 . S
C564 C566 1.419 . S
C565 C560 1.425 . S
C565 C562 1.409 . S
C565 C563 1.415 . S
C566 H556 0.930 . S
C566 C564 1.419 . S
C566 C567 1.362 . S
C567 H557 0.930 . S
C567 C560 1.409 . S
C567 C566 1.362 . S
H568 C574 0.930 . S
H569 C577 0.930 . S
H570 C578 0.930 . S
H571 C579 0.930 . S
H572 C582 0.930 . S
H573 C583 0.930 . S
C574 H568 0.930 . S
C574 C575 1.355 . S
C574 C576 1.415 . S
C575 C574 1.355 . S
C575 C577 1.419 1_455 S
C576 C574 1.415 . S
C576 C581 1.425 1_455 S
C576 C583 1.409 . S
C577 H569 0.930 . S
C577 C575 1.419 1_655 S
C577 C578 1.362 . S
C578 H570 0.930 . S
C578 C577 1.362 . S
C578 C581 1.409 . S
C579 H571 0.930 . S
C579 C580 1.355 1_655 S
C579 C581 1.415 . S
C580 C579 1.355 1_455 S
C580 C582 1.419 . S
C581 C576 1.425 1_655 S
C581 C578 1.409 . S
C581 C579 1.415 . S
C582 H572 0.930 . S
C582 C580 1.419 . S
C582 C583 1.362 . S
C583 H573 0.930 . S
C583 C576 1.409 . S
C583 C582 1.362 . S
H584 C590 0.930 . S
H585 C593 0.930 . S
H586 C594 0.930 1_554 S
H587 C595 0.930 . S
H588 C598 0.930 . S
H589 C599 0.930 . S
C590 H584 0.930 . S
C590 C591 1.355 1_565 S
C590 C592 1.415 1_565 S
C591 C590 1.355 1_545 S
C591 C593 1.419 . S
C592 C590 1.415 1_545 S
C592 C597 1.424 . S
C592 C599 1.410 1_545 S
C593 H585 0.930 . S
C593 C591 1.419 . S
C593 C594 1.362 . S
C594 H586 0.930 1_556 S
C594 C593 1.362 . S
C594 C597 1.409 . S
C595 H587 0.930 . S
C595 C596 1.355 . S
C595 C597 1.415 . S
C596 C595 1.355 . S
C596 C598 1.419 1_545 S
C597 C592 1.424 . S
C597 C594 1.409 . S
C597 C595 1.415 . S
C598 H588 0.930 . S
C598 C596 1.419 1_565 S
C598 C599 1.362 . S
C599 H589 0.930 . S
C599 C592 1.410 1_565 S
C599 C598 1.362 . S
H600 C606 0.930 . S
H601 C609 0.930 . S
H602 C610 0.930 . S
H603 C611 0.930 . S
H604 C614 0.930 . S
H605 C615 0.930 1_554 S
C606 H600 0.930 . S
C606 C607 1.355 . S
C606 C608 1.415 . S
C607 C606 1.355 . S
C607 C609 1.419 . S
C608 C606 1.415 . S
C608 C613 1.425 . S
C608 C615 1.409 . S
C609 H601 0.930 . S
C609 C607 1.419 . S
C609 C610 1.362 . S
C610 H602 0.930 . S
C610 C609 1.362 . S
C610 C613 1.409 . S
C611 H603 0.930 . S
C611 C612 1.355 . S
C611 C613 1.415 . S
C612 C611 1.355 . S
C612 C614 1.419 . S
C613 C608 1.425 . S
C613 C610 1.409 . S
C613 C611 1.415 . S
C614 H604 0.930 . S
C614 C612 1.419 . S
C614 C615 1.362 . S
C615 H605 0.930 1_556 S
C615 C608 1.409 . S
C615 C614 1.362 . S
H616 C622 0.930 . S
H617 C625 0.930 . S
H618 C626 0.930 . S
H619 C627 0.930 . S
H620 C630 0.930 . S
H621 C631 0.930 1_554 S
C622 H616 0.930 . S
C622 C623 1.355 . S
C622 C624 1.415 . S
C623 C622 1.355 . S
C623 C625 1.419 . S
C624 C622 1.415 . S
C624 C629 1.425 . S
C624 C631 1.409 . S
C625 H617 0.930 . S
C625 C623 1.419 . S
C625 C626 1.362 . S
C626 H618 0.930 . S
C626 C625 1.362 . S
C626 C629 1.409 . S
C627 H619 0.930 . S
C627 C628 1.355 . S
C627 C629 1.415 . S
C628 C627 1.355 . S
C628 C630 1.419 . S
C629 C624 1.425 . S
C629 C626 1.409 . S
C629 C627 1.415 . S
C630 H620 0.930 . S
C630 C628 1.419 . S
C630 C631 1.362 . S
C631 H621 0.930 1_556 S
C631 C624 1.409 . S
C631 C630 1.362 . S
H632 C638 0.930 . S
H633 C641 0.930 . S
H634 C642 0.930 . S
H635 C643 0.930 . S
H636 C646 0.930 . S
H637 C647 0.930 . S
C638 H632 0.930 . S
C638 C639 1.357 1_655 S
C638 C640 1.415 . S
C639 C638 1.357 1_455 S
C639 C641 1.416 . S
C640 C638 1.415 . S
C640 C645 1.425 1_655 S
C640 C647 1.409 . S
C641 H633 0.930 . S
C641 C639 1.416 . S
C641 C642 1.362 . S
C642 H634 0.930 . S
C642 C641 1.362 . S
C642 C645 1.409 . S
C643 H635 0.930 . S
C643 C644 1.355 1_455 S
C643 C645 1.415 . S
C644 C643 1.355 1_655 S
C644 C646 1.419 . S
C645 C640 1.425 1_455 S
C645 C642 1.409 . S
C645 C643 1.415 . S
C646 H636 0.930 . S
C646 C644 1.419 . S
C646 C647 1.362 . S
C647 H637 0.930 . S
C647 C640 1.409 . S
C647 C646 1.362 . S
H648 C654 0.925 1_545 S
H649 C657 0.930 . S
H650 C658 0.930 . S
H651 C659 0.930 . S
H652 C662 0.930 . S
H653 C663 0.930 . S
C654 H648 0.925 1_565 S
C654 C655 1.356 . S
C654 C656 1.418 . S
C655 C654 1.356 . S
C655 C657 1.419 . S
C656 C654 1.418 . S
C656 C661 1.425 . S
C656 C663 1.409 . S
C657 H649 0.930 . S
C657 C655 1.419 . S
C657 C658 1.362 . S
C658 H650 0.930 . S
C658 C657 1.362 . S
C658 C661 1.409 . S
C659 H651 0.930 . S
C659 C660 1.355 . S
C659 C661 1.415 . S
C660 C659 1.355 . S
C660 C662 1.419 . S
C661 C656 1.425 . S
C661 C658 1.409 . S
C661 C659 1.415 . S
C662 H652 0.930 . S
C662 C660 1.419 . S
C662 C663 1.362 . S
C663 H653 0.930 . S
C663 C656 1.409 . S
C663 C662 1.362 . S
H664 C670 0.930 . S
H665 C673 0.930 . S
H666 C674 0.930 . S
H667 C675 0.930 . S
H668 C678 0.930 . S
H669 C679 0.930 . S
C670 H664 0.930 . S
C670 C671 1.355 . S
C670 C672 1.415 . S
C671 C670 1.355 . S
C671 C673 1.419 . S
C672 C670 1.415 . S
C672 C677 1.425 . S
C672 C679 1.409 . S
C673 H665 0.930 . S
C673 C671 1.419 . S
C673 C674 1.362 . S
C674 H666 0.930 . S
C674 C673 1.362 . S
C674 C677 1.409 . S
C675 H667 0.930 . S
C675 C676 1.355 . S
C675 C677 1.415 . S
C676 C675 1.355 . S
C676 C678 1.419 . S
C677 C672 1.425 . S
C677 C674 1.409 . S
C677 C675 1.415 . S
C678 H668 0.930 . S
C678 C676 1.419 . S
C678 C679 1.362 . S
C679 H669 0.930 . S
C679 C672 1.409 . S
C679 C678 1.362 . S
H680 C686 0.930 . S
H681 C689 0.930 . S
H682 C690 0.930 . S
H683 C691 0.930 . S
H684 C694 0.930 . S
H685 C695 0.930 . S
C686 H680 0.930 . S
C686 C687 1.355 . S
C686 C688 1.415 . S
C687 C686 1.355 . S
C687 C689 1.419 . S
C688 C686 1.415 . S
C688 C693 1.425 . S
C688 C695 1.409 . S
C689 H681 0.930 . S
C689 C687 1.419 . S
C689 C690 1.362 . S
C690 H682 0.930 . S
C690 C689 1.362 . S
C690 C693 1.409 . S
C691 H683 0.930 . S
C691 C692 1.355 . S
C691 C693 1.415 . S
C692 C691 1.355 . S
C692 C694 1.419 . S
C693 C688 1.425 . S
C693 C690 1.409 . S
C693 C691 1.415 . S
C694 H684 0.930 . S
C694 C692 1.419 . S
C694 C695 1.362 . S
C695 H685 0.930 . S
C695 C688 1.409 . S
C695 C694 1.362 . S
C319 C125 1.967 . S
C324 C161 2.011 1_545 S
C340 C201 2.020 . S
C335 C144 1.979 . S
C356 C241 2.032 . S
C351 C87 1.982 . S
C372 C281 2.015 1_455 S
C367 C106 1.987 1_455 S
C388 C170 2.015 1_565 S
C383 C49 1.970 . S
C399 C68 1.993 . S
C404 C210 2.032 . S
C415 C11 1.952 . S
C420 C250 2.019 . S
C431 C30 1.962 . S
C436 C290 2.012 1_655 S
C452 C167 0.579 . S
C447 C97 0.654 . S
C468 C207 0.721 . S
C463 C116 0.715 1_545 S
C484 C247 0.646 . S
C479 C135 0.730 . S
C495 C78 0.552 . S
C500 C287 0.572 . S
C511 C21 0.717 . S
C516 C158 0.631 . S
C532 C198 0.606 . S
C527 C40 0.690 1_545 S
C548 C238 0.652 . S
C543 C59 0.591 . S
C559 C2 0.707 . S
C564 C278 0.721 . S
C575 C101 2.178 1_455 S
C580 C171 2.395 . S
C591 C120 2.077 1_545 S
C596 C211 2.364 . S
C612 C251 2.371 . S
C607 C139 2.155 . S
C628 C291 2.373 . S
C623 C82 2.156 . S
C639 C25 2.144 1_455 S
C644 C162 2.414 . S
C660 C202 2.379 . S
C655 C44 2.160 . S
C676 C242 2.359 . S
C671 C63 2.147 . S
C687 C6 2.168 . S
C692 C282 2.386 . S
