# Generated by pormake.
# Topology dag, (6,3)-cn, num edge types: 1
# Building blocks:
#     Node 0, Type 0, BuildingBlock: OJICUG_clean_sbu_0, # of connection points: 6
#     Node 1, Type 0, BuildingBlock: OJICUG_clean_sbu_0, # of connection points: 6
#     Node 2, Type 0, BuildingBlock: OJICUG_clean_sbu_0, # of connection points: 6
#     Node 3, Type 0, BuildingBlock: OJICUG_clean_sbu_0, # of connection points: 6
#     Node 4, Type 1, BuildingBlock: PAMTOO_clean_linker_0, # of connection points: 3
#     Node 5, Type 1, BuildingBlock: PAMTOO_clean_linker_0, # of connection points: 3
#     Node 6, Type 1, BuildingBlock: PAMTOO_clean_linker_0, # of connection points: 3
#     Node 7, Type 1, BuildingBlock: PAMTOO_clean_linker_0, # of connection points: 3
#     Node 8, Type 1, BuildingBlock: PAMTOO_clean_linker_0, # of connection points: 3
#     Node 9, Type 1, BuildingBlock: PAMTOO_clean_linker_0, # of connection points: 3
#     Node 10, Type 1, BuildingBlock: PAMTOO_clean_linker_0, # of connection points: 3
#     Node 11, Type 1, BuildingBlock: PAMTOO_clean_linker_0, # of connection points: 3
#     Edge 12, Type (0, 1), BuildingBlock: KIFKEQ_clean_linker_1, # of connection points: 2
#     Edge 13, Type (0, 1), BuildingBlock: KIFKEQ_clean_linker_1, # of connection points: 2
#     Edge 14, Type (0, 1), BuildingBlock: KIFKEQ_clean_linker_1, # of connection points: 2
#     Edge 15, Type (0, 1), BuildingBlock: KIFKEQ_clean_linker_1, # of connection points: 2
#     Edge 16, Type (0, 1), BuildingBlock: KIFKEQ_clean_linker_1, # of connection points: 2
#     Edge 17, Type (0, 1), BuildingBlock: KIFKEQ_clean_linker_1, # of connection points: 2
#     Edge 18, Type (0, 1), BuildingBlock: KIFKEQ_clean_linker_1, # of connection points: 2
#     Edge 19, Type (0, 1), BuildingBlock: KIFKEQ_clean_linker_1, # of connection points: 2
#     Edge 20, Type (0, 1), BuildingBlock: KIFKEQ_clean_linker_1, # of connection points: 2
#     Edge 21, Type (0, 1), BuildingBlock: KIFKEQ_clean_linker_1, # of connection points: 2
#     Edge 22, Type (0, 1), BuildingBlock: KIFKEQ_clean_linker_1, # of connection points: 2
#     Edge 23, Type (0, 1), BuildingBlock: KIFKEQ_clean_linker_1, # of connection points: 2
#     Edge 24, Type (0, 1), BuildingBlock: KIFKEQ_clean_linker_1, # of connection points: 2
#     Edge 25, Type (0, 1), BuildingBlock: KIFKEQ_clean_linker_1, # of connection points: 2
#     Edge 26, Type (0, 1), BuildingBlock: KIFKEQ_clean_linker_1, # of connection points: 2
#     Edge 27, Type (0, 1), BuildingBlock: KIFKEQ_clean_linker_1, # of connection points: 2
#     Edge 28, Type (0, 1), BuildingBlock: KIFKEQ_clean_linker_1, # of connection points: 2
#     Edge 29, Type (0, 1), BuildingBlock: KIFKEQ_clean_linker_1, # of connection points: 2
#     Edge 30, Type (0, 1), BuildingBlock: KIFKEQ_clean_linker_1, # of connection points: 2
#     Edge 31, Type (0, 1), BuildingBlock: KIFKEQ_clean_linker_1, # of connection points: 2
#     Edge 32, Type (0, 1), BuildingBlock: KIFKEQ_clean_linker_1, # of connection points: 2
#     Edge 33, Type (0, 1), BuildingBlock: KIFKEQ_clean_linker_1, # of connection points: 2
#     Edge 34, Type (0, 1), BuildingBlock: KIFKEQ_clean_linker_1, # of connection points: 2
#     Edge 35, Type (0, 1), BuildingBlock: KIFKEQ_clean_linker_1, # of connection points: 2
# Relax obj value: 0.096
# Max RMSD: 0.116
# Mean RMSD: 0.093
data_MOF--net-dag--node1-OJICUG_clean_sbu_0--node2-PAMTOO_clean_linker_0--edge1-KIFKEQ_clean_linker_1
_symmetry_space_group_name_H-M    P1
_symmetry_Int_Tables_number       1
_symmetry_cell_setting            triclinic
loop_
_symmetry_equiv_pos_as_xyz
'x, y, z'
_cell_length_a     38.028021
_cell_length_b     39.106541
_cell_length_c     39.875221
_cell_angle_alpha  89.859999
_cell_angle_beta   94.678837
_cell_angle_gamma 89.989378
loop_
_atom_site_label
_atom_site_type_symbol
_atom_site_fract_x
_atom_site_fract_y
_atom_site_fract_z
_atom_type_partial_charge
Sc0 Sc 0.11012 0.88191 0.99674 0.0
Sc1 Sc 0.12965 0.79851 0.97201 0.0
Sc2 Sc 0.19861 0.85473 0.00206 0.0
O3 O 0.14622 0.84499 0.99027 0.0
C4 C 0.17221 0.92457 0.96688 0.0
C5 C 0.0794 0.84894 0.92717 0.0
C6 C 0.19982 0.81039 0.93483 0.0
C7 C 0.07066 0.81565 0.02164 0.0
C8 C 0.16354 0.89277 0.06184 0.0
C9 C 0.19036 0.77831 0.02913 0.0
O10 O 0.14009 0.91989 0.97236 0.0
O11 O 0.09479 0.8202 0.93166 0.0
O12 O 0.21385 0.83162 0.95608 0.0
O13 O 0.07643 0.84767 0.02181 0.0
O14 O 0.18997 0.87889 0.0497 0.0
O15 O 0.16272 0.77157 0.01008 0.0
O16 O 0.13366 0.89543 0.0454 0.0
O17 O 0.08721 0.79476 0.00435 0.0
O18 O 0.20599 0.80708 0.0289 0.0
O19 O 0.08243 0.87279 0.94872 0.0
O20 O 0.19665 0.90364 0.97646 0.0
O21 O 0.16987 0.79685 0.93764 0.0
Sc22 Sc 0.70074 0.65242 0.4985 0.0
Sc23 Sc 0.62842 0.70702 0.47402 0.0
Sc24 Sc 0.61367 0.62445 0.50455 0.0
O25 O 0.64767 0.66131 0.49231 0.0
C26 C 0.67178 0.58075 0.47015 0.0
C27 C 0.69335 0.69414 0.42947 0.0
C28 C 0.57511 0.6544 0.43622 0.0
C29 C 0.69362 0.72941 0.52467 0.0
C30 C 0.67469 0.61711 0.56422 0.0
C31 C 0.57555 0.69072 0.53006 0.0
O32 O 0.69671 0.60206 0.47634 0.0
O33 O 0.66516 0.70922 0.43603 0.0
O34 O 0.58019 0.63191 0.45917 0.0
O35 O 0.71037 0.70149 0.52197 0.0
O36 O 0.64335 0.61299 0.55128 0.0
O37 O 0.58879 0.71087 0.50949 0.0
O38 O 0.69873 0.63102 0.54846 0.0
O39 O 0.66352 0.73507 0.50925 0.0
O40 O 0.58306 0.6591 0.53203 0.0
O41 O 0.70891 0.67225 0.44911 0.0
O42 O 0.64057 0.58574 0.47829 0.0
O43 O 0.59116 0.68302 0.43721 0.0
Sc44 Sc 0.86343 0.20267 0.06516 0.0
Sc45 Sc 0.79426 0.14739 0.03353 0.0
Sc46 Sc 0.88176 0.11781 0.04468 0.0
O47 O 0.84641 0.15605 0.04772 0.0
C48 C 0.92541 0.18223 0.02075 0.0
C49 C 0.80457 0.22326 0.00634 0.0
C50 C 0.83262 0.10808 0.97652 0.0
C51 C 0.79194 0.19214 0.10039 0.0
C52 C 0.91042 0.15193 0.1137 0.0
C53 C 0.81599 0.07755 0.07048 0.0
O54 O 0.9062 0.20494 0.03288 0.0
O55 O 0.78926 0.19437 0.00553 0.0
O56 O 0.86171 0.10523 0.9944 0.0
O57 O 0.82268 0.2046 0.09914 0.0
O58 O 0.90532 0.12638 0.09439 0.0
O59 O 0.79261 0.09905 0.05987 0.0
O60 O 0.89818 0.18153 0.10616 0.0
O61 O 0.77773 0.17199 0.07817 0.0
O62 O 0.84851 0.08109 0.06638 0.0
O63 O 0.8311 0.23006 0.02678 0.0
O64 O 0.91985 0.15036 0.02375 0.0
O65 O 0.80545 0.12206 0.98726 0.0
Sc66 Sc 0.38377 0.37507 0.52834 0.0
Sc67 Sc 0.29641 0.34913 0.53644 0.0
Sc68 Sc 0.36805 0.29442 0.56285 0.0
O69 O 0.34936 0.33951 0.54261 0.0
C70 C 0.42145 0.30651 0.50682 0.0
C71 C 0.32329 0.38101 0.46887 0.0
C72 C 0.30168 0.27112 0.51343 0.0
C73 C 0.32574 0.42176 0.5603 0.0
C74 C 0.42257 0.34836 0.59761 0.0
C75 C 0.30371 0.30981 0.60712 0.0
O76 O 0.41565 0.33843 0.50469 0.0
O77 O 0.2987 0.37078 0.48631 0.0
O78 O 0.33089 0.26519 0.53045 0.0
O79 O 0.35591 0.41652 0.54968 0.0
O80 O 0.4074 0.31929 0.59697 0.0
O81 O 0.28709 0.32926 0.58567 0.0
O82 O 0.41607 0.37087 0.57487 0.0
O83 O 0.3015 0.39929 0.55886 0.0
O84 O 0.33296 0.29596 0.60204 0.0
O85 O 0.35532 0.38251 0.48048 0.0
O86 O 0.40627 0.28703 0.52663 0.0
O87 O 0.2863 0.30006 0.51323 0.0
H88 H 0.1039 0.04733 0.23314 0.0
H89 H 0.12968 0.12484 0.30748 0.0
H90 H 0.20535 0.04655 0.28949 0.0
H91 H 0.20981 0.06371 0.36104 0.0
C92 C 0.19349 0.08735 0.35911 0.0
O93 O 0.19216 0.09967 0.32657 0.0
H94 H 0.16657 0.08048 0.36607 0.0
C95 C 0.12215 0.05805 0.25268 0.0
C96 C 0.15556 0.04322 0.25941 0.0
C97 C 0.11277 0.08772 0.26947 0.0
C98 C 0.13667 0.10202 0.29418 0.0
C99 C 0.16972 0.08666 0.30187 0.0
C100 C 0.17948 0.0578 0.28394 0.0
H101 H 0.35464 0.66456 0.60897 0.0
H102 H 0.28655 0.66003 0.69001 0.0
H103 H 0.35971 0.743 0.68444 0.0
H104 H 0.35794 0.71714 0.74936 0.0
C105 C 0.33032 0.7077 0.74935 0.0
O106 O 0.31174 0.71577 0.71924 0.0
H107 H 0.33129 0.67944 0.75284 0.0
C108 C 0.34412 0.67616 0.63071 0.0
C109 C 0.35958 0.70628 0.64406 0.0
C110 C 0.31777 0.65906 0.64697 0.0
C111 C 0.30638 0.67301 0.67666 0.0
C112 C 0.32134 0.7034 0.68982 0.0
C113 C 0.34765 0.72009 0.67345 0.0
H114 H 0.85626 0.83569 0.10843 0.0
H115 H 0.78106 0.83016 0.18328 0.0
H116 H 0.85027 0.7454 0.16925 0.0
H117 H 0.78294 0.72138 0.18658 0.0
C118 C 0.77285 0.74455 0.19877 0.0
O119 O 0.79942 0.76842 0.20344 0.0
H120 H 0.75055 0.75523 0.18213 0.0
C121 C 0.84344 0.82128 0.12727 0.0
C122 C 0.85553 0.78836 0.13592 0.0
C123 C 0.81718 0.83699 0.14463 0.0
C124 C 0.80102 0.81832 0.16924 0.0
C125 C 0.81268 0.7851 0.17768 0.0
C126 C 0.84032 0.77041 0.16149 0.0
H127 H 0.63844 0.45342 0.71081 0.0
H128 H 0.64488 0.37323 0.78537 0.0
H129 H 0.72242 0.45361 0.78958 0.0
H130 H 0.66651 0.40789 0.85302 0.0
C131 C 0.69546 0.40629 0.85067 0.0
O132 O 0.70199 0.39732 0.81834 0.0
H133 H 0.70705 0.43187 0.8567 0.0
C134 C 0.65144 0.44158 0.73313 0.0
C135 C 0.68169 0.45697 0.74871 0.0
C136 C 0.63796 0.41118 0.74578 0.0
C137 C 0.6547 0.39676 0.7752 0.0
C138 C 0.68508 0.41214 0.79099 0.0
C139 C 0.69872 0.44211 0.77758 0.0
H140 H 0.64522 0.3377 0.43114 0.0
H141 H 0.6441 0.25128 0.36444 0.0
H142 H 0.70928 0.33798 0.34709 0.0
H143 H 0.66048 0.30772 0.28959 0.0
C144 C 0.66645 0.28032 0.29526 0.0
O145 O 0.68788 0.27793 0.32484 0.0
H146 H 0.64127 0.26651 0.29799 0.0
C147 C 0.65578 0.32434 0.41037 0.0
C148 C 0.68008 0.3411 0.39133 0.0
C149 C 0.6421 0.29219 0.40056 0.0
C150 C 0.6546 0.27593 0.3726 0.0
C151 C 0.67871 0.29248 0.35345 0.0
C152 C 0.69138 0.32501 0.36268 0.0
H153 H 0.14879 0.15967 0.92988 0.0
H154 H 0.13899 0.25143 0.87002 0.0
H155 H 0.21025 0.17195 0.84486 0.0
H156 H 0.23492 0.24749 0.84878 0.0
C157 C 0.21196 0.25732 0.83242 0.0
O158 O 0.1856 0.2331 0.82896 0.0
H159 H 0.20184 0.28056 0.84447 0.0
C160 C 0.15731 0.17547 0.90966 0.0
C161 C 0.18197 0.16231 0.88882 0.0
C162 C 0.14135 0.20742 0.90304 0.0
C163 C 0.15111 0.22677 0.87566 0.0
C164 C 0.17645 0.21426 0.85523 0.0
C165 C 0.1915 0.18186 0.86145 0.0
H166 H 0.37354 0.54293 0.31427 0.0
H167 H 0.35836 0.6251 0.2424 0.0
H168 H 0.27716 0.5496 0.25033 0.0
H169 H 0.28213 0.56978 0.18064 0.0
C170 C 0.29709 0.59405 0.18474 0.0
O171 O 0.29602 0.60418 0.21776 0.0
H172 H 0.32482 0.58915 0.17895 0.0
C173 C 0.35767 0.5556 0.29407 0.0
C174 C 0.32414 0.5427 0.28387 0.0
C175 C 0.3702 0.5855 0.27958 0.0
C176 C 0.34904 0.60208 0.254 0.0
C177 C 0.31582 0.58872 0.24305 0.0
C178 C 0.30311 0.55941 0.25841 0.0
H179 H 0.89593 0.96076 0.79963 0.0
H180 H 0.86775 0.88229 0.727 0.0
H181 H 0.79444 0.96313 0.74342 0.0
H182 H 0.7584 0.89754 0.72636 0.0
C183 C 0.78086 0.88424 0.71579 0.0
O184 O 0.8056 0.90823 0.70818 0.0
H185 H 0.7924 0.86577 0.73494 0.0
C186 C 0.8775 0.95036 0.78007 0.0
C187 C 0.84445 0.96593 0.77322 0.0
C188 C 0.88605 0.92007 0.76384 0.0
C189 C 0.86159 0.90578 0.73963 0.0
C190 C 0.82885 0.92172 0.73191 0.0
C191 C 0.82013 0.9515 0.74895 0.0
H192 H 0.22433 0.90866 0.10138 0.0
H193 H 0.11057 0.91059 0.10006 0.0
H194 H 0.22848 0.93847 0.15561 0.0
H195 H 0.11465 0.94069 0.15298 0.0
H196 H 0.20923 0.03909 0.21839 0.0
H197 H 0.21605 0.99608 0.17493 0.0
H198 H 0.13053 0.93776 0.21172 0.0
H199 H 0.12295 0.98159 0.254 0.0
C200 C 0.20029 0.91504 0.11278 0.0
C201 C 0.16713 0.90754 0.09618 0.0
C202 C 0.20266 0.93226 0.14373 0.0
C203 C 0.17192 0.94197 0.15874 0.0
C204 C 0.13894 0.93315 0.14263 0.0
C205 C 0.13659 0.91617 0.1119 0.0
C206 C 0.19263 0.01654 0.21763 0.0
C207 C 0.16534 0.01367 0.23913 0.0
C208 C 0.19655 0.99185 0.19283 0.0
C209 C 0.17336 0.96378 0.18939 0.0
C210 C 0.14823 0.9595 0.21309 0.0
C211 C 0.14401 0.98439 0.23746 0.0
H212 H 0.55725 0.66474 0.58956 0.0
H213 H 0.53233 0.74607 0.51795 0.0
H214 H 0.50692 0.68086 0.62007 0.0
H215 H 0.48156 0.76206 0.54856 0.0
H216 H 0.42282 0.72072 0.6778 0.0
H217 H 0.47919 0.72779 0.65325 0.0
H218 H 0.42506 0.72734 0.55375 0.0
H219 H 0.36871 0.72041 0.57832 0.0
C220 C 0.54136 0.68645 0.58069 0.0
C221 C 0.54846 0.70389 0.55117 0.0
C222 C 0.51275 0.6959 0.59835 0.0
C223 C 0.49037 0.7227 0.58662 0.0
C224 C 0.49843 0.74128 0.55806 0.0
C225 C 0.52747 0.73215 0.54064 0.0
C226 C 0.42287 0.72347 0.65076 0.0
C227 C 0.39155 0.71971 0.62987 0.0
C228 C 0.45511 0.72727 0.63674 0.0
C229 C 0.45645 0.7277 0.60165 0.0
C230 C 0.42477 0.72726 0.58089 0.0
C231 C 0.39257 0.72312 0.5949 0.0
H232 H 0.84468 0.05521 0.13046 0.0
H233 H 0.76536 0.03051 0.05071 0.0
H234 H 0.83775 0.99895 0.15539 0.0
H235 H 0.75955 0.9731 0.07463 0.0
H236 H 0.75403 0.87122 0.13199 0.0
H237 H 0.74613 0.93274 0.12012 0.0
H238 H 0.85916 0.94658 0.13448 0.0
H239 H 0.86662 0.88638 0.14697 0.0
C240 C 0.82527 0.03779 0.11866 0.0
C241 C 0.80581 0.0468 0.08859 0.0
C242 C 0.82141 0.00554 0.13276 0.0
C243 C 0.79879 0.98121 0.1165 0.0
C244 C 0.77716 0.99125 0.08781 0.0
C245 C 0.78052 0.024 0.07404 0.0
C246 C 0.77693 0.88776 0.13304 0.0
C247 C 0.81094 0.87412 0.13994 0.0
C248 C 0.77249 0.9228 0.12611 0.0
C249 C 0.80199 0.94463 0.12653 0.0
C250 C 0.83575 0.93081 0.13454 0.0
C251 C 0.84013 0.89614 0.14126 0.0
H252 H 0.44856 0.30717 0.65039 0.0
H253 H 0.46142 0.40677 0.60546 0.0
H254 H 0.50047 0.31817 0.68973 0.0
H255 H 0.5128 0.41712 0.64418 0.0
H256 H 0.62768 0.40077 0.67845 0.0
H257 H 0.57362 0.38317 0.64628 0.0
H258 H 0.52391 0.36622 0.73835 0.0
H259 H 0.57833 0.3847 0.77102 0.0
C260 C 0.46205 0.33147 0.64911 0.0
C261 C 0.451 0.35587 0.62438 0.0
C262 C 0.49166 0.33771 0.67165 0.0
C263 C 0.51078 0.36824 0.66952 0.0
C264 C 0.49876 0.39315 0.64596 0.0
C265 C 0.46921 0.38715 0.62381 0.0
C266 C 0.60534 0.39313 0.69194 0.0
C267 C 0.60696 0.39484 0.72723 0.0
C268 C 0.57447 0.38298 0.67352 0.0
C269 C 0.54455 0.37393 0.68989 0.0
C270 C 0.54671 0.37318 0.72524 0.0
C271 C 0.57777 0.38367 0.74384 0.0
H272 H 0.73329 0.54411 0.47526 0.0
H273 H 0.62683 0.54354 0.42829 0.0
H274 H 0.74289 0.48678 0.45272 0.0
H275 H 0.63672 0.48689 0.40531 0.0
H276 H 0.67349 0.39566 0.34892 0.0
H277 H 0.67767 0.45621 0.36423 0.0
H278 H 0.71077 0.42816 0.46672 0.0
H279 H 0.70613 0.36757 0.45151 0.0
C280 C 0.71225 0.53203 0.45959 0.0
C281 C 0.67925 0.5481 0.45365 0.0
C282 C 0.71771 0.4993 0.44684 0.0
C283 C 0.69057 0.48262 0.42724 0.0
C284 C 0.65818 0.49938 0.42006 0.0
C285 C 0.65246 0.53166 0.4334 0.0
C286 C 0.68263 0.40249 0.37447 0.0
C287 C 0.68944 0.37708 0.3991 0.0
C288 C 0.68482 0.43704 0.38323 0.0
C289 C 0.69442 0.4467 0.41662 0.0
C290 C 0.70358 0.42132 0.44075 0.0
C291 C 0.70079 0.38676 0.43212 0.0
H292 H 0.98434 0.14466 0.01471 0.0
H293 H 0.93844 0.24371 0.99032 0.0
H294 H 0.03754 0.16125 0.98917 0.0
H295 H 0.99229 0.26016 0.96395 0.0
H296 H 0.07663 0.23182 0.87949 0.0
H297 H 0.02384 0.23403 0.91067 0.0
H298 H 0.08674 0.20782 0.00209 0.0
H299 H 0.13953 0.20603 0.97116 0.0
C300 C 0.98554 0.16998 0.00376 0.0
C301 C 0.95713 0.19284 0.00439 0.0
C302 C 0.0162 0.17958 0.98948 0.0
C303 C 0.01907 0.21211 0.97507 0.0
C304 C 0.99064 0.23502 0.97519 0.0
C305 C 0.95998 0.2256 0.99018 0.0
C306 C 0.07939 0.22793 0.90648 0.0
C307 C 0.11199 0.2181 0.92286 0.0
C308 C 0.0492 0.22918 0.92427 0.0
C309 C 0.05133 0.22053 0.95855 0.0
C310 C 0.08448 0.21416 0.97553 0.0
C311 C 0.11458 0.21307 0.95785 0.0
H312 H 0.26013 0.40675 0.44097 0.0
H313 H 0.36763 0.38674 0.41918 0.0
H314 H 0.25078 0.43945 0.38852 0.0
H315 H 0.35878 0.41977 0.36789 0.0
H316 H 0.34163 0.47638 0.27479 0.0
H317 H 0.33221 0.42868 0.31282 0.0
H318 H 0.27141 0.4951 0.37262 0.0
H319 H 0.27976 0.54206 0.33358 0.0
C320 C 0.28147 0.40864 0.42465 0.0
C321 C 0.31478 0.39462 0.43447 0.0
C322 C 0.27622 0.42759 0.39475 0.0
C323 C 0.30411 0.43261 0.37407 0.0
C324 C 0.33651 0.41627 0.38281 0.0
C325 C 0.34174 0.39754 0.41255 0.0
C326 C 0.32517 0.48019 0.2954 0.0
C327 C 0.31131 0.51258 0.30143 0.0
C328 C 0.32001 0.45308 0.31736 0.0
C329 C 0.30158 0.45815 0.34619 0.0
C330 C 0.28544 0.49007 0.3506 0.0
C331 C 0.29028 0.51705 0.32835 0.0
H332 H 0.05742 0.91067 0.90232 0.0
H333 H 0.04953 0.80245 0.88125 0.0
H334 H 0.01564 0.92263 0.85489 0.0
H335 H 0.00756 0.81469 0.83263 0.0
H336 H 0.95262 0.94481 0.76288 0.0
H337 H 0.00534 0.92288 0.79486 0.0
H338 H 0.94618 0.83517 0.82488 0.0
H339 H 0.89388 0.85668 0.79167 0.0
C340 C 0.04707 0.88936 0.88727 0.0
C341 C 0.05655 0.85553 0.89589 0.0
C342 C 0.02334 0.89629 0.85967 0.0
C343 C 0.00831 0.86965 0.83973 0.0
C344 C 0.01857 0.83577 0.84758 0.0
C345 C 0.04268 0.82878 0.87532 0.0
C346 C 0.95138 0.92024 0.77536 0.0
C347 C 0.91933 0.90248 0.7751 0.0
C348 C 0.9814 0.90779 0.7939 0.0
C349 C 0.97975 0.87769 0.81312 0.0
C350 C 0.94844 0.85835 0.81032 0.0
C351 C 0.91846 0.87064 0.79133 0.0
H352 H 0.77383 0.09783 0.93247 0.0
H353 H 0.88725 0.08587 0.94224 0.0
H354 H 0.77157 0.07058 0.87707 0.0
H355 H 0.88487 0.05841 0.88788 0.0
H356 H 0.88072 0.02533 0.78386 0.0
H357 H 0.87348 0.0669 0.82831 0.0
H358 H 0.78103 0.01264 0.85576 0.0
H359 H 0.78784 0.97172 0.81049 0.0
C360 C 0.79825 0.0897 0.92275 0.0
C361 C 0.83068 0.09382 0.94198 0.0
C362 C 0.79693 0.074 0.89108 0.0
C363 C 0.82803 0.06245 0.87794 0.0
C364 C 0.86043 0.06755 0.89683 0.0
C365 C 0.86174 0.083 0.92833 0.0
C366 C 0.85829 0.02298 0.7988 0.0
C367 C 0.83503 0.99525 0.79407 0.0
C368 C 0.85424 0.04658 0.82439 0.0
C369 C 0.82716 0.04262 0.8461 0.0
C370 C 0.80211 0.01652 0.83946 0.0
C371 C 0.80597 0.99306 0.81355 0.0
H372 H 0.46677 0.25432 0.52495 0.0
H373 H 0.43993 0.32767 0.4458 0.0
H374 H 0.52016 0.23877 0.49794 0.0
H375 H 0.49268 0.31174 0.41867 0.0
H376 H 0.5811 0.26964 0.36779 0.0
H377 H 0.52456 0.26166 0.39156 0.0
H378 H 0.5747 0.27869 0.49117 0.0
H379 H 0.63145 0.2866 0.46741 0.0
C380 C 0.47174 0.26633 0.50129 0.0
C381 C 0.44946 0.29237 0.48752 0.0
C382 C 0.50227 0.25753 0.48598 0.0
C383 C 0.51042 0.27406 0.4563 0.0
C384 C 0.4868 0.29833 0.44135 0.0
C385 C 0.45676 0.30762 0.45697 0.0
C386 C 0.58034 0.27037 0.39488 0.0
C387 C 0.61058 0.279 0.4158 0.0
C388 C 0.54795 0.26601 0.40841 0.0
C389 C 0.54533 0.26985 0.44308 0.0
C390 C 0.5761 0.27538 0.46435 0.0
C391 C 0.60848 0.28013 0.45078 0.0
H392 H 0.23502 0.95937 0.97184 0.0
H393 H 0.1296 0.96176 0.9225 0.0
H394 H 0.24697 0.01549 0.94761 0.0
H395 H 0.14166 0.01729 0.89817 0.0
H396 H 0.17515 0.1095 0.84453 0.0
H397 H 0.18031 0.04851 0.85834 0.0
H398 H 0.21961 0.074 0.95984 0.0
H399 H 0.21418 0.13481 0.94603 0.0
C400 C 0.21469 0.97155 0.95533 0.0
C401 C 0.18125 0.95637 0.94934 0.0
C402 C 0.22151 0.00362 0.94154 0.0
C403 C 0.19529 0.02066 0.92095 0.0
C404 C 0.16254 0.00459 0.91359 0.0
C405 C 0.15552 0.97294 0.92781 0.0
C406 C 0.18612 0.10196 0.86938 0.0
C407 C 0.19419 0.12668 0.89428 0.0
C408 C 0.1888 0.06715 0.87736 0.0
C409 C 0.20005 0.05658 0.91023 0.0
C410 C 0.2111 0.08138 0.93426 0.0
C411 C 0.20793 0.11614 0.92641 0.0
H412 H 0.54661 0.69742 0.38606 0.0
H413 H 0.54416 0.59294 0.42153 0.0
H414 H 0.50095 0.68351 0.34116 0.0
H415 H 0.49867 0.57951 0.37775 0.0
H416 H 0.43336 0.5527 0.28659 0.0
H417 H 0.48722 0.57193 0.31836 0.0
H418 H 0.43778 0.66901 0.33616 0.0
H419 H 0.38422 0.64992 0.3033 0.0
C420 C 0.53658 0.67152 0.3842 0.0
C421 C 0.54897 0.64639 0.40758 0.0
C422 C 0.51034 0.6636 0.35857 0.0
C423 C 0.49626 0.63034 0.3557 0.0
C424 C 0.50931 0.60521 0.37869 0.0
C425 C 0.53525 0.61308 0.40416 0.0
C426 C 0.43438 0.57842 0.29667 0.0
C427 C 0.40463 0.59972 0.29287 0.0
C428 C 0.4651 0.5894 0.31503 0.0
C429 C 0.46657 0.62175 0.33046 0.0
C430 C 0.43762 0.64401 0.32454 0.0
C431 C 0.40693 0.6331 0.30578 0.0
H432 H 0.27604 0.44052 0.60326 0.0
H433 H 0.35877 0.48102 0.54644 0.0
H434 H 0.26498 0.49827 0.62432 0.0
H435 H 0.34739 0.53807 0.56695 0.0
H436 H 0.30024 0.63966 0.58205 0.0
H437 H 0.29547 0.58128 0.56071 0.0
H438 H 0.30396 0.54242 0.66242 0.0
H439 H 0.30946 0.60088 0.68393 0.0
C440 C 0.29167 0.46169 0.59515 0.0
C441 C 0.31839 0.45621 0.57333 0.0
C442 C 0.28535 0.4946 0.6072 0.0
C443 C 0.30507 0.52256 0.59692 0.0
C444 C 0.33144 0.51703 0.57487 0.0
C445 C 0.33817 0.48427 0.5634 0.0
C446 C 0.3004 0.61871 0.59989 0.0
C447 C 0.30588 0.62483 0.63464 0.0
C448 C 0.29763 0.58535 0.58767 0.0
C449 C 0.29991 0.55745 0.60996 0.0
C450 C 0.30203 0.56355 0.64475 0.0
C451 C 0.30509 0.59702 0.65703 0.0
H452 H 0.03055 0.75826 0.00998 0.0
H453 H 0.04758 0.84321 0.07848 0.0
H454 H 0.98019 0.73981 0.04016 0.0
H455 H 0.99784 0.82441 0.10879 0.0
H456 H 0.91917 0.77524 0.16891 0.0
H457 H 0.97564 0.77271 0.1435 0.0
H458 H 0.92025 0.77308 0.04459 0.0
H459 H 0.86394 0.7762 0.07004 0.0
C460 C 0.02396 0.77257 0.03184 0.0
C461 C 0.04271 0.80237 0.04172 0.0
C462 C 0.99523 0.76199 0.04903 0.0
C463 C 0.98538 0.78058 0.07684 0.0
C464 C 0.00522 0.80936 0.08769 0.0
C465 C 0.03342 0.82032 0.07014 0.0
C466 C 0.91914 0.77332 0.1418 0.0
C467 C 0.88746 0.77589 0.1213 0.0
C468 C 0.95134 0.77214 0.12731 0.0
C469 C 0.95216 0.77299 0.09216 0.0
C470 C 0.92028 0.77214 0.07175 0.0
C471 C 0.88813 0.77391 0.08623 0.0
H472 H 0.6293 0.60488 0.61203 0.0
H473 H 0.7395 0.59774 0.59381 0.0
H474 H 0.64074 0.57363 0.6643 0.0
H475 H 0.75117 0.56644 0.64688 0.0
H476 H 0.72829 0.4603 0.70116 0.0
H477 H 0.73442 0.5078 0.66223 0.0
H478 H 0.66903 0.57052 0.72107 0.0
H479 H 0.66244 0.52244 0.75947 0.0
C480 C 0.65617 0.59719 0.61954 0.0
C481 C 0.68339 0.60331 0.5985 0.0
C482 C 0.66284 0.57957 0.64981 0.0
C483 C 0.69689 0.56742 0.65979 0.0
C484 C 0.72461 0.57528 0.63975 0.0
C485 C 0.71796 0.59329 0.60945 0.0
C486 C 0.71663 0.48477 0.70648 0.0
C487 C 0.69509 0.48801 0.73319 0.0
C488 C 0.72007 0.51201 0.68423 0.0
C489 C 0.70176 0.54281 0.68827 0.0
C490 C 0.68304 0.54696 0.71703 0.0
C491 C 0.67954 0.51966 0.7392 0.0
H492 H 0.94402 0.20032 0.15517 0.0
H493 H 0.92939 0.0913 0.14332 0.0
H494 H 0.98836 0.18989 0.20217 0.0
H495 H 0.97388 0.08097 0.18885 0.0
H496 H 0.04708 0.06268 0.27559 0.0
H497 H 0.99208 0.08318 0.2465 0.0
H498 H 0.04803 0.16895 0.20754 0.0
H499 H 0.10248 0.14909 0.23823 0.0
C500 C 0.94982 0.17422 0.16287 0.0
C501 C 0.93346 0.14667 0.14517 0.0
C502 C 0.9754 0.16821 0.18965 0.0
C503 C 0.98493 0.13457 0.19932 0.0
C504 C 0.96703 0.10724 0.18267 0.0
C505 C 0.94166 0.11319 0.15611 0.0
C506 C 0.04716 0.08654 0.26173 0.0
C507 C 0.07878 0.10434 0.25897 0.0
C508 C 0.01582 0.09816 0.24477 0.0
C509 C 0.01569 0.12732 0.22396 0.0
C510 C 0.04696 0.14654 0.22343 0.0
C511 C 0.07822 0.13519 0.24092 0.0
H512 H 0.24545 0.78421 0.07744 0.0
H513 H 0.16912 0.71154 0.03405 0.0
H514 H 0.27036 0.74024 0.11551 0.0
H515 H 0.1947 0.66734 0.07169 0.0
H516 H 0.22717 0.60574 0.16717 0.0
H517 H 0.20065 0.65062 0.13041 0.0
H518 H 0.30474 0.68868 0.11447 0.0
H519 H 0.33088 0.64433 0.15192 0.0
C520 C 0.23403 0.75883 0.07587 0.0
C521 C 0.20527 0.75147 0.05255 0.0
C522 C 0.24848 0.73355 0.09763 0.0
C523 C 0.23465 0.70021 0.09659 0.0
C524 C 0.20574 0.69286 0.07345 0.0
C525 C 0.19119 0.7182 0.05172 0.0
C526 C 0.2442 0.62374 0.15564 0.0
C527 C 0.28098 0.62138 0.1618 0.0
C528 C 0.22912 0.6493 0.13451 0.0
C529 C 0.25057 0.67315 0.11932 0.0
C530 C 0.28742 0.67096 0.12598 0.0
C531 C 0.30244 0.64545 0.14717 0.0
H532 H 0.75367 0.72415 0.56708 0.0
H533 H 0.66779 0.79324 0.53756 0.0
H534 H 0.77514 0.76357 0.61094 0.0
H535 H 0.69003 0.83325 0.58103 0.0
H536 H 0.71297 0.87149 0.69014 0.0
H537 H 0.69338 0.83653 0.64151 0.0
H538 H 0.80211 0.81781 0.62278 0.0
H539 H 0.82146 0.85187 0.67218 0.0
C540 C 0.73965 0.74801 0.56951 0.0
C541 C 0.70882 0.75534 0.54881 0.0
C542 C 0.75213 0.77076 0.59465 0.0
C543 C 0.73425 0.80156 0.59966 0.0
C544 C 0.70411 0.80949 0.57822 0.0
C545 C 0.69151 0.78663 0.55312 0.0
C546 C 0.73258 0.86008 0.6754 0.0
C547 C 0.76868 0.86457 0.68461 0.0
C548 C 0.72141 0.84025 0.64742 0.0
C549 C 0.74616 0.82442 0.62812 0.0
C550 C 0.78233 0.82931 0.63725 0.0
C551 C 0.79346 0.84898 0.66534 0.0
H552 H 0.72031 0.19225 0.1041 0.0
H553 H 0.81899 0.21373 0.16188 0.0
H554 H 0.68809 0.21107 0.15157 0.0
H555 H 0.78684 0.23214 0.20904 0.0
H556 H 0.71694 0.22921 0.29713 0.0
H557 H 0.74547 0.20509 0.24988 0.0
H558 H 0.68194 0.26984 0.18117 0.0
H559 H 0.65367 0.29449 0.22861 0.0
C560 C 0.73507 0.20069 0.12698 0.0
C561 C 0.77213 0.20172 0.12925 0.0
C562 C 0.71667 0.21157 0.15398 0.0
C563 C 0.73508 0.22298 0.18383 0.0
C564 C 0.77208 0.22318 0.18636 0.0
C565 C 0.79042 0.21288 0.15928 0.0
C566 C 0.7093 0.23857 0.27201 0.0
C567 C 0.68402 0.26467 0.26655 0.0
C568 C 0.72549 0.22463 0.24501 0.0
C569 C 0.71604 0.23586 0.21204 0.0
C570 C 0.68961 0.26075 0.2064 0.0
C571 C 0.67373 0.27502 0.23346 0.0
H572 H 0.23918 0.32906 0.62756 0.0
H573 H 0.33491 0.27475 0.66074 0.0
H574 H 0.21532 0.3162 0.68129 0.0
H575 H 0.31149 0.26274 0.71418 0.0
H576 H 0.24669 0.21546 0.79206 0.0
H577 H 0.26674 0.22789 0.73665 0.0
H578 H 0.22424 0.33018 0.74119 0.0
H579 H 0.2034 0.31716 0.79628 0.0
C580 C 0.25517 0.31453 0.64626 0.0
C581 C 0.28888 0.30279 0.63968 0.0
C582 C 0.24157 0.3073 0.67709 0.0
C583 C 0.26142 0.28823 0.7019 0.0
C584 C 0.2952 0.27687 0.69538 0.0
C585 C 0.30871 0.28398 0.6647 0.0
C586 C 0.2417 0.24053 0.78105 0.0
C587 C 0.22397 0.26549 0.79839 0.0
C588 C 0.25323 0.24775 0.74948 0.0
C589 C 0.24735 0.28015 0.73464 0.0
C590 C 0.22894 0.30492 0.75181 0.0
C591 C 0.21729 0.29761 0.78341 0.0
H592 H 0.74014 0.65623 0.39615 0.0
H593 H 0.6783 0.74908 0.38868 0.0
H594 H 0.75919 0.66673 0.34004 0.0
H595 H 0.69813 0.7601 0.33335 0.0
H596 H 0.70715 0.75203 0.22167 0.0
H597 H 0.68901 0.73869 0.27752 0.0
H598 H 0.79457 0.70328 0.30802 0.0
H599 H 0.8121 0.71549 0.25156 0.0
C600 C 0.73102 0.6791 0.38275 0.0
C601 C 0.70753 0.70169 0.39679 0.0
C602 C 0.74197 0.68516 0.35061 0.0
C603 C 0.72987 0.71407 0.33199 0.0
C604 C 0.70726 0.73713 0.34657 0.0
C605 C 0.69609 0.73094 0.37846 0.0
C606 C 0.72629 0.74111 0.24029 0.0
C607 C 0.761 0.73482 0.23251 0.0
C608 C 0.71607 0.73375 0.27236 0.0
C609 C 0.74045 0.72024 0.29742 0.0
C610 C 0.77504 0.71335 0.2893 0.0
C611 C 0.78516 0.72048 0.25711 0.0
H612 H 0.75361 0.21653 0.95432 0.0
H613 H 0.82267 0.29124 0.00511 0.0
H614 H 0.72826 0.26082 0.91699 0.0
H615 H 0.79654 0.33582 0.96813 0.0
H616 H 0.76486 0.39997 0.87339 0.0
H617 H 0.79242 0.35582 0.91043 0.0
H618 H 0.6902 0.30957 0.91856 0.0
H619 H 0.66314 0.35316 0.88081 0.0
C620 C 0.76335 0.24243 0.95764 0.0
C621 C 0.79014 0.25027 0.98288 0.0
C622 C 0.74861 0.26791 0.93631 0.0
C623 C 0.76012 0.30197 0.93971 0.0
C624 C 0.78727 0.30979 0.9646 0.0
C625 C 0.80216 0.28423 0.98591 0.0
C626 C 0.74844 0.3804 0.88338 0.0
C627 C 0.71192 0.38012 0.87476 0.0
C628 C 0.76411 0.35523 0.90464 0.0
C629 C 0.74353 0.32915 0.91753 0.0
C630 C 0.70691 0.329 0.90877 0.0
C631 C 0.69132 0.35409 0.88744 0.0
H632 H 0.32379 0.20464 0.50814 0.0
H633 H 0.24234 0.27502 0.46985 0.0
H634 H 0.29739 0.15997 0.47176 0.0
H635 H 0.2166 0.23066 0.43304 0.0
H636 H 0.15913 0.13406 0.39564 0.0
H637 H 0.18485 0.17756 0.43412 0.0
H638 H 0.28936 0.14515 0.41262 0.0
H639 H 0.26333 0.10108 0.37483 0.0
C640 C 0.3003 0.21064 0.492 0.0
C641 C 0.28522 0.24349 0.49204 0.0
C642 C 0.28529 0.18506 0.47096 0.0
C643 C 0.25489 0.19172 0.44943 0.0
C644 C 0.2397 0.22448 0.44964 0.0
C645 C 0.25462 0.25001 0.4707 0.0
C646 C 0.18758 0.13619 0.39944 0.0
C647 C 0.20935 0.11397 0.38287 0.0
C648 C 0.20234 0.16121 0.42123 0.0
C649 C 0.2392 0.16477 0.42659 0.0
C650 C 0.26091 0.1427 0.40958 0.0
C651 C 0.2461 0.11762 0.38784 0.0
H652 H 0.17349 0.77682 0.87859 0.0
H653 H 0.27016 0.81926 0.9258 0.0
H654 H 0.20566 0.75396 0.83359 0.0
H655 H 0.30261 0.79565 0.88067 0.0
H656 H 0.3412 0.77175 0.77563 0.0
H657 H 0.30993 0.79945 0.81961 0.0
H658 H 0.24782 0.70787 0.8291 0.0
H659 H 0.27864 0.68074 0.78483 0.0
C660 C 0.20165 0.78133 0.87938 0.0
C661 C 0.21933 0.79954 0.90605 0.0
C662 C 0.22011 0.76804 0.85362 0.0
C663 C 0.25675 0.77249 0.85389 0.0
C664 C 0.27434 0.79188 0.87977 0.0
C665 C 0.25578 0.80534 0.90563 0.0
C666 C 0.32104 0.75763 0.78747 0.0
C667 C 0.31261 0.72401 0.77748 0.0
C668 C 0.30323 0.77337 0.81259 0.0
C669 C 0.27642 0.75585 0.82778 0.0
C670 C 0.26806 0.72219 0.8176 0.0
C671 C 0.28585 0.70652 0.79254 0.0
loop_
_geom_bond_atom_site_label_1
_geom_bond_atom_site_label_2
_geom_bond_distance
_geom_bond_site_symmetry_2
_ccdc_geom_bond_type
Sc0 O3 2.028 . S
Sc0 O10 2.105 1_554 S
Sc0 O13 2.105 . S
Sc0 O16 2.105 . S
Sc0 O19 2.105 1_554 S
Sc1 O3 2.022 1_556 S
Sc1 O11 2.105 . S
Sc1 O15 2.105 1_556 S
Sc1 O17 2.105 1_556 S
Sc1 O21 2.105 . S
Sc2 O3 2.027 . S
Sc2 O12 2.105 1_554 S
Sc2 O14 2.105 . S
Sc2 O18 2.105 . S
Sc2 O20 2.105 1_554 S
O3 Sc0 2.028 . S
O3 Sc1 2.022 1_554 S
O3 Sc2 2.027 . S
C4 O10 1.268 . S
C4 O20 1.268 . S
C5 O11 1.268 . S
C5 O19 1.268 . S
C6 O12 1.268 . S
C6 O21 1.268 . S
C7 O13 1.268 . S
C7 O17 1.268 . S
C8 O14 1.268 . S
C8 O16 1.268 . S
C9 O15 1.268 . S
C9 O18 1.268 . S
O10 Sc0 2.105 1_556 S
O10 C4 1.268 . S
O11 Sc1 2.105 . S
O11 C5 1.268 . S
O12 Sc2 2.105 1_556 S
O12 C6 1.268 . S
O13 Sc0 2.105 . S
O13 C7 1.268 . S
O14 Sc2 2.105 . S
O14 C8 1.268 . S
O15 Sc1 2.105 1_554 S
O15 C9 1.268 . S
O16 Sc0 2.105 . S
O16 C8 1.268 . S
O17 Sc1 2.105 1_554 S
O17 C7 1.268 . S
O18 Sc2 2.105 . S
O18 C9 1.268 . S
O19 Sc0 2.105 1_556 S
O19 C5 1.268 . S
O20 Sc2 2.105 1_556 S
O20 C4 1.268 . S
O21 Sc1 2.105 . S
O21 C6 1.268 . S
Sc22 O25 2.025 . S
Sc22 O32 2.105 . S
Sc22 O35 2.105 . S
Sc22 O38 2.105 . S
Sc22 O41 2.105 . S
Sc23 O25 2.025 . S
Sc23 O33 2.105 . S
Sc23 O37 2.105 . S
Sc23 O39 2.105 . S
Sc23 O43 2.105 . S
Sc24 O25 2.025 . S
Sc24 O34 2.105 . S
Sc24 O36 2.105 . S
Sc24 O40 2.105 . S
Sc24 O42 2.105 . S
O25 Sc22 2.025 . S
O25 Sc23 2.025 . S
O25 Sc24 2.025 . S
C26 O32 1.268 . S
C26 O42 1.268 . S
C27 O33 1.268 . S
C27 O41 1.268 . S
C28 O34 1.268 . S
C28 O43 1.268 . S
C29 O35 1.268 . S
C29 O39 1.268 . S
C30 O36 1.268 . S
C30 O38 1.268 . S
C31 O37 1.268 . S
C31 O40 1.268 . S
O32 Sc22 2.105 . S
O32 C26 1.268 . S
O33 Sc23 2.105 . S
O33 C27 1.268 . S
O34 Sc24 2.105 . S
O34 C28 1.268 . S
O35 Sc22 2.105 . S
O35 C29 1.268 . S
O36 Sc24 2.105 . S
O36 C30 1.268 . S
O37 Sc23 2.105 . S
O37 C31 1.268 . S
O38 Sc22 2.105 . S
O38 C30 1.268 . S
O39 Sc23 2.105 . S
O39 C29 1.268 . S
O40 Sc24 2.105 . S
O40 C31 1.268 . S
O41 Sc22 2.105 . S
O41 C27 1.268 . S
O42 Sc24 2.105 . S
O42 C26 1.268 . S
O43 Sc23 2.105 . S
O43 C28 1.268 . S
Sc44 O47 2.025 . S
Sc44 O54 2.105 . S
Sc44 O57 2.105 . S
Sc44 O60 2.105 . S
Sc44 O63 2.105 . S
Sc45 O47 2.025 . S
Sc45 O55 2.105 . S
Sc45 O59 2.105 . S
Sc45 O61 2.105 . S
Sc45 O65 2.105 1_554 S
Sc46 O47 2.025 . S
Sc46 O56 2.105 1_554 S
Sc46 O58 2.105 . S
Sc46 O62 2.105 . S
Sc46 O64 2.105 . S
O47 Sc44 2.025 . S
O47 Sc45 2.025 . S
O47 Sc46 2.025 . S
C48 O54 1.268 1_556 S
C48 O64 1.268 1_556 S
C49 O55 1.268 1_556 S
C49 O63 1.268 1_556 S
C50 O56 1.268 . S
C50 O65 1.268 . S
C51 O57 1.268 . S
C51 O61 1.268 . S
C52 O58 1.268 . S
C52 O60 1.268 . S
C53 O59 1.268 . S
C53 O62 1.268 . S
O54 Sc44 2.105 . S
O54 C48 1.268 1_554 S
O55 Sc45 2.105 . S
O55 C49 1.268 1_554 S
O56 Sc46 2.105 1_556 S
O56 C50 1.268 . S
O57 Sc44 2.105 . S
O57 C51 1.268 . S
O58 Sc46 2.105 . S
O58 C52 1.268 . S
O59 Sc45 2.105 . S
O59 C53 1.268 . S
O60 Sc44 2.105 . S
O60 C52 1.268 . S
O61 Sc45 2.105 . S
O61 C51 1.268 . S
O62 Sc46 2.105 . S
O62 C53 1.268 . S
O63 Sc44 2.105 . S
O63 C49 1.268 1_554 S
O64 Sc46 2.105 . S
O64 C48 1.268 1_554 S
O65 Sc45 2.105 1_556 S
O65 C50 1.268 . S
Sc66 O69 2.025 . S
Sc66 O76 2.105 . S
Sc66 O79 2.105 . S
Sc66 O82 2.105 . S
Sc66 O85 2.105 . S
Sc67 O69 2.025 . S
Sc67 O77 2.105 . S
Sc67 O81 2.105 . S
Sc67 O83 2.105 . S
Sc67 O87 2.105 . S
Sc68 O69 2.025 . S
Sc68 O78 2.105 . S
Sc68 O80 2.105 . S
Sc68 O84 2.105 . S
Sc68 O86 2.105 . S
O69 Sc66 2.025 . S
O69 Sc67 2.025 . S
O69 Sc68 2.025 . S
C70 O76 1.268 . S
C70 O86 1.268 . S
C71 O77 1.268 . S
C71 O85 1.268 . S
C72 O78 1.268 . S
C72 O87 1.268 . S
C73 O79 1.268 . S
C73 O83 1.268 . S
C74 O80 1.268 . S
C74 O82 1.268 . S
C75 O81 1.268 . S
C75 O84 1.268 . S
O76 Sc66 2.105 . S
O76 C70 1.268 . S
O77 Sc67 2.105 . S
O77 C71 1.268 . S
O78 Sc68 2.105 . S
O78 C72 1.268 . S
O79 Sc66 2.105 . S
O79 C73 1.268 . S
O80 Sc68 2.105 . S
O80 C74 1.268 . S
O81 Sc67 2.105 . S
O81 C75 1.268 . S
O82 Sc66 2.105 . S
O82 C74 1.268 . S
O83 Sc67 2.105 . S
O83 C73 1.268 . S
O84 Sc68 2.105 . S
O84 C75 1.268 . S
O85 Sc66 2.105 . S
O85 C71 1.268 . S
O86 Sc68 2.105 . S
O86 C70 1.268 . S
O87 Sc67 2.105 . S
O87 C72 1.268 . S
H88 C95 0.929 . S
H89 C98 0.930 . S
H90 C100 0.929 . S
H91 C92 0.969 . S
C92 H91 0.969 . S
C92 O93 1.550 . S
C92 H94 0.973 . S
O93 C92 1.550 . S
O93 C99 1.412 . S
H94 C92 0.973 . S
C95 H88 0.929 . S
C95 C96 1.400 . S
C95 C97 1.364 . S
C96 C95 1.400 . S
C96 C100 1.377 . S
C97 C95 1.364 . S
C97 C98 1.374 . S
C98 H89 0.930 . S
C98 C97 1.374 . S
C98 C99 1.383 . S
C99 O93 1.412 . S
C99 C98 1.383 . S
C99 C100 1.394 . S
C100 H90 0.929 . S
C100 C96 1.377 . S
C100 C99 1.394 . S
H101 C108 0.929 . S
H102 C111 0.930 . S
H103 C113 0.929 . S
H104 C105 0.969 . S
C105 H104 0.969 . S
C105 O106 1.550 . S
C105 H107 0.973 . S
O106 C105 1.550 . S
O106 C112 1.412 . S
H107 C105 0.973 . S
C108 H101 0.929 . S
C108 C109 1.400 . S
C108 C110 1.364 . S
C109 C108 1.400 . S
C109 C113 1.377 . S
C110 C108 1.364 . S
C110 C111 1.374 . S
C111 H102 0.930 . S
C111 C110 1.374 . S
C111 C112 1.383 . S
C112 O106 1.412 . S
C112 C111 1.383 . S
C112 C113 1.394 . S
C113 H103 0.929 . S
C113 C109 1.377 . S
C113 C112 1.394 . S
H114 C121 0.929 . S
H115 C124 0.930 . S
H116 C126 0.929 . S
H117 C118 0.969 . S
C118 H117 0.969 . S
C118 O119 1.550 . S
C118 H120 0.973 . S
O119 C118 1.550 . S
O119 C125 1.412 . S
H120 C118 0.973 . S
C121 H114 0.929 . S
C121 C122 1.400 . S
C121 C123 1.364 . S
C122 C121 1.400 . S
C122 C126 1.377 . S
C123 C121 1.364 . S
C123 C124 1.374 . S
C124 H115 0.930 . S
C124 C123 1.374 . S
C124 C125 1.383 . S
C125 O119 1.412 . S
C125 C124 1.383 . S
C125 C126 1.394 . S
C126 H116 0.929 . S
C126 C122 1.377 . S
C126 C125 1.394 . S
H127 C134 0.929 . S
H128 C137 0.930 . S
H129 C139 0.929 . S
H130 C131 0.969 . S
C131 H130 0.969 . S
C131 O132 1.550 . S
C131 H133 0.973 . S
O132 C131 1.550 . S
O132 C138 1.412 . S
H133 C131 0.973 . S
C134 H127 0.929 . S
C134 C135 1.400 . S
C134 C136 1.364 . S
C135 C134 1.400 . S
C135 C139 1.377 . S
C136 C134 1.364 . S
C136 C137 1.374 . S
C137 H128 0.930 . S
C137 C136 1.374 . S
C137 C138 1.383 . S
C138 O132 1.412 . S
C138 C137 1.383 . S
C138 C139 1.394 . S
C139 H129 0.929 . S
C139 C135 1.377 . S
C139 C138 1.394 . S
H140 C147 0.929 . S
H141 C150 0.930 . S
H142 C152 0.929 . S
H143 C144 0.969 . S
C144 H143 0.969 . S
C144 O145 1.550 . S
C144 H146 0.973 . S
O145 C144 1.550 . S
O145 C151 1.412 . S
H146 C144 0.973 . S
C147 H140 0.929 . S
C147 C148 1.400 . S
C147 C149 1.364 . S
C148 C147 1.400 . S
C148 C152 1.377 . S
C149 C147 1.364 . S
C149 C150 1.374 . S
C150 H141 0.930 . S
C150 C149 1.374 . S
C150 C151 1.383 . S
C151 O145 1.412 . S
C151 C150 1.383 . S
C151 C152 1.394 . S
C152 H142 0.929 . S
C152 C148 1.377 . S
C152 C151 1.394 . S
H153 C160 0.929 . S
H154 C163 0.930 . S
H155 C165 0.929 . S
H156 C157 0.969 . S
C157 H156 0.969 . S
C157 O158 1.550 . S
C157 H159 0.973 . S
O158 C157 1.550 . S
O158 C164 1.412 . S
H159 C157 0.973 . S
C160 H153 0.929 . S
C160 C161 1.400 . S
C160 C162 1.364 . S
C161 C160 1.400 . S
C161 C165 1.377 . S
C162 C160 1.364 . S
C162 C163 1.374 . S
C163 H154 0.930 . S
C163 C162 1.374 . S
C163 C164 1.383 . S
C164 O158 1.412 . S
C164 C163 1.383 . S
C164 C165 1.394 . S
C165 H155 0.929 . S
C165 C161 1.377 . S
C165 C164 1.394 . S
H166 C173 0.929 . S
H167 C176 0.930 . S
H168 C178 0.929 . S
H169 C170 0.969 . S
C170 H169 0.969 . S
C170 O171 1.550 . S
C170 H172 0.973 . S
O171 C170 1.550 . S
O171 C177 1.412 . S
H172 C170 0.973 . S
C173 H166 0.929 . S
C173 C174 1.400 . S
C173 C175 1.364 . S
C174 C173 1.400 . S
C174 C178 1.377 . S
C175 C173 1.364 . S
C175 C176 1.374 . S
C176 H167 0.930 . S
C176 C175 1.374 . S
C176 C177 1.383 . S
C177 O171 1.412 . S
C177 C176 1.383 . S
C177 C178 1.394 . S
C178 H168 0.929 . S
C178 C174 1.377 . S
C178 C177 1.394 . S
H179 C186 0.929 . S
H180 C189 0.930 . S
H181 C191 0.929 . S
H182 C183 0.969 . S
C183 H182 0.969 . S
C183 O184 1.550 . S
C183 H185 0.973 . S
O184 C183 1.550 . S
O184 C190 1.412 . S
H185 C183 0.973 . S
C186 H179 0.929 . S
C186 C187 1.400 . S
C186 C188 1.364 . S
C187 C186 1.400 . S
C187 C191 1.377 . S
C188 C186 1.364 . S
C188 C189 1.374 . S
C189 H180 0.930 . S
C189 C188 1.374 . S
C189 C190 1.383 . S
C190 O184 1.412 . S
C190 C189 1.383 . S
C190 C191 1.394 . S
C191 H181 0.929 . S
C191 C187 1.377 . S
C191 C190 1.394 . S
H192 C200 0.950 . S
H193 C205 0.950 . S
H194 C202 0.950 . S
H195 C204 0.950 . S
H196 C206 0.950 . S
H197 C208 0.950 . S
H198 C210 0.950 . S
H199 C211 0.950 . S
C200 H192 0.950 . S
C200 C201 1.386 . S
C200 C202 1.391 . S
C201 C200 1.386 . S
C201 C205 1.393 . S
C202 H194 0.950 . S
C202 C200 1.391 . S
C202 C203 1.400 . S
C203 C202 1.400 . S
C203 C204 1.398 . S
C203 C209 1.491 . S
C204 H195 0.950 . S
C204 C203 1.398 . S
C204 C205 1.391 . S
C205 H193 0.950 . S
C205 C201 1.393 . S
C205 C204 1.391 . S
C206 H196 0.950 . S
C206 C207 1.386 . S
C206 C208 1.391 . S
C207 C206 1.386 . S
C207 C211 1.393 1_545 S
C208 H197 0.950 . S
C208 C206 1.391 . S
C208 C209 1.400 1_545 S
C209 C203 1.491 . S
C209 C208 1.400 1_565 S
C209 C210 1.398 . S
C210 H198 0.950 . S
C210 C209 1.398 . S
C210 C211 1.391 . S
C211 H199 0.950 . S
C211 C207 1.393 1_565 S
C211 C210 1.391 . S
H212 C220 0.950 . S
H213 C225 0.950 . S
H214 C222 0.950 . S
H215 C224 0.950 . S
H216 C226 0.950 . S
H217 C228 0.950 . S
H218 C230 0.950 . S
H219 C231 0.950 . S
C220 H212 0.950 . S
C220 C221 1.386 . S
C220 C222 1.391 . S
C221 C220 1.386 . S
C221 C225 1.393 . S
C222 H214 0.950 . S
C222 C220 1.391 . S
C222 C223 1.400 . S
C223 C222 1.400 . S
C223 C224 1.398 . S
C223 C229 1.491 . S
C224 H215 0.950 . S
C224 C223 1.398 . S
C224 C225 1.391 . S
C225 H213 0.950 . S
C225 C221 1.393 . S
C225 C224 1.391 . S
C226 H216 0.950 . S
C226 C227 1.386 . S
C226 C228 1.391 . S
C227 C226 1.386 . S
C227 C231 1.393 . S
C228 H217 0.950 . S
C228 C226 1.391 . S
C228 C229 1.400 . S
C229 C223 1.491 . S
C229 C228 1.400 . S
C229 C230 1.398 . S
C230 H218 0.950 . S
C230 C229 1.398 . S
C230 C231 1.391 . S
C231 H219 0.950 . S
C231 C227 1.393 . S
C231 C230 1.391 . S
H232 C240 0.950 . S
H233 C245 0.950 . S
H234 C242 0.950 . S
H235 C244 0.955 . S
H236 C246 0.950 . S
H237 C248 0.950 . S
H238 C250 0.950 . S
H239 C251 0.950 . S
C240 H232 0.950 . S
C240 C241 1.386 . S
C240 C242 1.391 1_545 S
C241 C240 1.386 . S
C241 C245 1.393 . S
C242 H234 0.950 . S
C242 C240 1.391 1_565 S
C242 C243 1.400 . S
C243 C242 1.400 . S
C243 C244 1.418 . S
C243 C249 1.491 . S
C244 H235 0.955 . S
C244 C243 1.418 . S
C244 C245 1.367 1_565 S
C245 H233 0.950 . S
C245 C241 1.393 . S
C245 C244 1.367 1_545 S
C246 H236 0.950 . S
C246 C247 1.386 . S
C246 C248 1.391 . S
C247 C246 1.386 . S
C247 C251 1.393 . S
C248 H237 0.950 . S
C248 C246 1.391 . S
C248 C249 1.400 . S
C249 C243 1.491 . S
C249 C248 1.400 . S
C249 C250 1.398 . S
C250 H238 0.950 . S
C250 C249 1.398 . S
C250 C251 1.391 . S
C251 H239 0.950 . S
C251 C247 1.393 . S
C251 C250 1.391 . S
H252 C260 0.950 . S
H253 C265 0.950 . S
H254 C262 0.950 . S
H255 C264 0.950 . S
H256 C266 0.950 . S
H257 C268 0.950 . S
H258 C270 0.950 . S
H259 C271 0.950 . S
C260 H252 0.950 . S
C260 C261 1.386 . S
C260 C262 1.391 . S
C261 C260 1.386 . S
C261 C265 1.393 . S
C262 H254 0.950 . S
C262 C260 1.391 . S
C262 C263 1.400 . S
C263 C262 1.400 . S
C263 C264 1.398 . S
C263 C269 1.491 . S
C264 H255 0.950 . S
C264 C263 1.398 . S
C264 C265 1.391 . S
C265 H253 0.950 . S
C265 C261 1.393 . S
C265 C264 1.391 . S
C266 H256 0.950 . S
C266 C267 1.386 . S
C266 C268 1.391 . S
C267 C266 1.386 . S
C267 C271 1.393 . S
C268 H257 0.950 . S
C268 C266 1.391 . S
C268 C269 1.400 . S
C269 C263 1.491 . S
C269 C268 1.400 . S
C269 C270 1.398 . S
C270 H258 0.950 . S
C270 C269 1.398 . S
C270 C271 1.391 . S
C271 H259 0.950 . S
C271 C267 1.393 . S
C271 C270 1.391 . S
H272 C280 0.950 . S
H273 C285 0.950 . S
H274 C282 0.950 . S
H275 C284 0.950 . S
H276 C286 0.950 . S
H277 C288 0.950 . S
H278 C290 0.950 . S
H279 C291 0.950 . S
C280 H272 0.950 . S
C280 C281 1.386 . S
C280 C282 1.391 . S
C281 C280 1.386 . S
C281 C285 1.393 . S
C282 H274 0.950 . S
C282 C280 1.391 . S
C282 C283 1.400 . S
C283 C282 1.400 . S
C283 C284 1.398 . S
C283 C289 1.491 . S
C284 H275 0.950 . S
C284 C283 1.398 . S
C284 C285 1.391 . S
C285 H273 0.950 . S
C285 C281 1.393 . S
C285 C284 1.391 . S
C286 H276 0.950 . S
C286 C287 1.386 . S
C286 C288 1.391 . S
C287 C286 1.386 . S
C287 C291 1.393 . S
C288 H277 0.950 . S
C288 C286 1.391 . S
C288 C289 1.400 . S
C289 C283 1.491 . S
C289 C288 1.400 . S
C289 C290 1.398 . S
C290 H278 0.950 . S
C290 C289 1.398 . S
C290 C291 1.391 . S
C291 H279 0.950 . S
C291 C287 1.393 . S
C291 C290 1.391 . S
H292 C300 0.950 1_554 S
H293 C305 0.950 . S
H294 C302 0.950 . S
H295 C304 0.950 . S
H296 C306 0.950 . S
H297 C308 0.950 . S
H298 C310 0.950 . S
H299 C311 0.950 . S
C300 H292 0.950 1_556 S
C300 C301 1.386 . S
C300 C302 1.391 1_655 S
C301 C300 1.386 . S
C301 C305 1.393 . S
C302 H294 0.950 . S
C302 C300 1.391 1_455 S
C302 C303 1.400 . S
C303 C302 1.400 . S
C303 C304 1.398 1_455 S
C303 C309 1.491 . S
C304 H295 0.950 . S
C304 C303 1.398 1_655 S
C304 C305 1.391 . S
C305 H293 0.950 . S
C305 C301 1.393 . S
C305 C304 1.391 . S
C306 H296 0.950 . S
C306 C307 1.386 . S
C306 C308 1.391 . S
C307 C306 1.386 . S
C307 C311 1.393 . S
C308 H297 0.950 . S
C308 C306 1.391 . S
C308 C309 1.400 . S
C309 C303 1.491 . S
C309 C308 1.400 . S
C309 C310 1.398 . S
C310 H298 0.950 . S
C310 C309 1.398 . S
C310 C311 1.391 . S
C311 H299 0.950 . S
C311 C307 1.393 . S
C311 C310 1.391 . S
H312 C320 0.950 . S
H313 C325 0.950 . S
H314 C322 0.950 . S
H315 C324 0.950 . S
H316 C326 0.950 . S
H317 C328 0.950 . S
H318 C330 0.950 . S
H319 C331 0.950 . S
C320 H312 0.950 . S
C320 C321 1.386 . S
C320 C322 1.391 . S
C321 C320 1.386 . S
C321 C325 1.393 . S
C322 H314 0.950 . S
C322 C320 1.391 . S
C322 C323 1.400 . S
C323 C322 1.400 . S
C323 C324 1.398 . S
C323 C329 1.491 . S
C324 H315 0.950 . S
C324 C323 1.398 . S
C324 C325 1.391 . S
C325 H313 0.950 . S
C325 C321 1.393 . S
C325 C324 1.391 . S
C326 H316 0.950 . S
C326 C327 1.386 . S
C326 C328 1.391 . S
C327 C326 1.386 . S
C327 C331 1.393 . S
C328 H317 0.950 . S
C328 C326 1.391 . S
C328 C329 1.400 . S
C329 C323 1.491 . S
C329 C328 1.400 . S
C329 C330 1.398 . S
C330 H318 0.950 . S
C330 C329 1.398 . S
C330 C331 1.391 . S
C331 H319 0.950 . S
C331 C327 1.393 . S
C331 C330 1.391 . S
H332 C340 0.950 . S
H333 C345 0.950 . S
H334 C342 0.950 . S
H335 C344 0.950 . S
H336 C346 0.950 . S
H337 C348 0.950 . S
H338 C350 0.950 . S
H339 C351 0.950 . S
C340 H332 0.950 . S
C340 C341 1.386 . S
C340 C342 1.391 1_455 S
C341 C340 1.386 . S
C341 C345 1.393 . S
C342 H334 0.950 . S
C342 C340 1.391 1_655 S
C342 C343 1.400 . S
C343 C342 1.400 . S
C343 C344 1.398 1_655 S
C343 C349 1.491 . S
C344 H335 0.950 . S
C344 C343 1.398 1_455 S
C344 C345 1.391 . S
C345 H333 0.950 . S
C345 C341 1.393 . S
C345 C344 1.391 . S
C346 H336 0.950 . S
C346 C347 1.386 . S
C346 C348 1.391 . S
C347 C346 1.386 . S
C347 C351 1.393 . S
C348 H337 0.950 . S
C348 C346 1.391 . S
C348 C349 1.400 . S
C349 C343 1.491 . S
C349 C348 1.400 . S
C349 C350 1.398 . S
C350 H338 0.950 . S
C350 C349 1.398 . S
C350 C351 1.391 . S
C351 H339 0.950 . S
C351 C347 1.393 . S
C351 C350 1.391 . S
H352 C360 0.950 . S
H353 C365 0.950 . S
H354 C362 0.950 . S
H355 C364 0.950 . S
H356 C366 0.952 . S
H357 C368 0.950 . S
H358 C370 0.950 . S
H359 C371 0.950 . S
C360 H352 0.950 . S
C360 C361 1.386 . S
C360 C362 1.391 . S
C361 C360 1.386 . S
C361 C365 1.393 . S
C362 H354 0.950 . S
C362 C360 1.391 . S
C362 C363 1.400 . S
C363 C362 1.400 . S
C363 C364 1.398 . S
C363 C369 1.491 . S
C364 H355 0.950 . S
C364 C363 1.398 . S
C364 C365 1.391 . S
C365 H353 0.950 . S
C365 C361 1.393 . S
C365 C364 1.391 . S
C366 H356 0.952 . S
C366 C367 1.386 . S
C366 C368 1.391 1_565 S
C367 C366 1.386 . S
C367 C371 1.393 . S
C368 H357 0.950 . S
C368 C366 1.391 1_545 S
C368 C369 1.400 . S
C369 C363 1.491 . S
C369 C368 1.400 . S
C369 C370 1.398 1_545 S
C370 H358 0.950 . S
C370 C369 1.398 1_565 S
C370 C371 1.391 . S
C371 H359 0.950 . S
C371 C367 1.393 . S
C371 C370 1.391 . S
H372 C380 0.950 . S
H373 C385 0.950 . S
H374 C382 0.950 . S
H375 C384 0.950 . S
H376 C386 0.950 . S
H377 C388 0.950 . S
H378 C390 0.950 . S
H379 C391 0.950 . S
C380 H372 0.950 . S
C380 C381 1.386 . S
C380 C382 1.391 . S
C381 C380 1.386 . S
C381 C385 1.393 . S
C382 H374 0.950 . S
C382 C380 1.391 . S
C382 C383 1.400 . S
C383 C382 1.400 . S
C383 C384 1.398 . S
C383 C389 1.491 . S
C384 H375 0.950 . S
C384 C383 1.398 . S
C384 C385 1.391 . S
C385 H373 0.950 . S
C385 C381 1.393 . S
C385 C384 1.391 . S
C386 H376 0.950 . S
C386 C387 1.386 . S
C386 C388 1.391 . S
C387 C386 1.386 . S
C387 C391 1.393 . S
C388 H377 0.950 . S
C388 C386 1.391 . S
C388 C389 1.400 . S
C389 C383 1.491 . S
C389 C388 1.400 . S
C389 C390 1.398 . S
C390 H378 0.950 . S
C390 C389 1.398 . S
C390 C391 1.391 . S
C391 H379 0.950 . S
C391 C387 1.393 . S
C391 C390 1.391 . S
H392 C400 0.950 . S
H393 C405 0.950 . S
H394 C402 0.950 . S
H395 C404 0.950 . S
H396 C406 0.950 . S
H397 C408 0.950 . S
H398 C410 0.950 . S
H399 C411 0.950 . S
C400 H392 0.950 . S
C400 C401 1.386 . S
C400 C402 1.391 1_565 S
C401 C400 1.386 . S
C401 C405 1.393 . S
C402 H394 0.950 . S
C402 C400 1.391 1_545 S
C402 C403 1.400 . S
C403 C402 1.400 . S
C403 C404 1.398 . S
C403 C409 1.491 . S
C404 H395 0.950 . S
C404 C403 1.398 . S
C404 C405 1.391 1_545 S
C405 H393 0.950 . S
C405 C401 1.393 . S
C405 C404 1.391 1_565 S
C406 H396 0.950 . S
C406 C407 1.386 . S
C406 C408 1.391 . S
C407 C406 1.386 . S
C407 C411 1.393 . S
C408 H397 0.950 . S
C408 C406 1.391 . S
C408 C409 1.400 . S
C409 C403 1.491 . S
C409 C408 1.400 . S
C409 C410 1.398 . S
C410 H398 0.950 . S
C410 C409 1.398 . S
C410 C411 1.391 . S
C411 H399 0.950 . S
C411 C407 1.393 . S
C411 C410 1.391 . S
H412 C420 0.950 . S
H413 C425 0.950 . S
H414 C422 0.950 . S
H415 C424 0.950 . S
H416 C426 0.950 . S
H417 C428 0.950 . S
H418 C430 0.950 . S
H419 C431 0.950 . S
C420 H412 0.950 . S
C420 C421 1.386 . S
C420 C422 1.391 . S
C421 C420 1.386 . S
C421 C425 1.393 . S
C422 H414 0.950 . S
C422 C420 1.391 . S
C422 C423 1.400 . S
C423 C422 1.400 . S
C423 C424 1.398 . S
C423 C429 1.491 . S
C424 H415 0.950 . S
C424 C423 1.398 . S
C424 C425 1.391 . S
C425 H413 0.950 . S
C425 C421 1.393 . S
C425 C424 1.391 . S
C426 H416 0.950 . S
C426 C427 1.386 . S
C426 C428 1.391 . S
C427 C426 1.386 . S
C427 C431 1.393 . S
C428 H417 0.950 . S
C428 C426 1.391 . S
C428 C429 1.400 . S
C429 C423 1.491 . S
C429 C428 1.400 . S
C429 C430 1.398 . S
C430 H418 0.950 . S
C430 C429 1.398 . S
C430 C431 1.391 . S
C431 H419 0.950 . S
C431 C427 1.393 . S
C431 C430 1.391 . S
H432 C440 0.950 . S
H433 C445 0.950 . S
H434 C442 0.950 . S
H435 C444 0.950 . S
H436 C446 0.950 . S
H437 C448 0.950 . S
H438 C450 0.950 . S
H439 C451 0.950 . S
C440 H432 0.950 . S
C440 C441 1.386 . S
C440 C442 1.391 . S
C441 C440 1.386 . S
C441 C445 1.393 . S
C442 H434 0.950 . S
C442 C440 1.391 . S
C442 C443 1.400 . S
C443 C442 1.400 . S
C443 C444 1.398 . S
C443 C449 1.491 . S
C444 H435 0.950 . S
C444 C443 1.398 . S
C444 C445 1.391 . S
C445 H433 0.950 . S
C445 C441 1.393 . S
C445 C444 1.391 . S
C446 H436 0.950 . S
C446 C447 1.386 . S
C446 C448 1.391 . S
C447 C446 1.386 . S
C447 C451 1.393 . S
C448 H437 0.950 . S
C448 C446 1.391 . S
C448 C449 1.400 . S
C449 C443 1.491 . S
C449 C448 1.400 . S
C449 C450 1.398 . S
C450 H438 0.950 . S
C450 C449 1.398 . S
C450 C451 1.391 . S
C451 H439 0.950 . S
C451 C447 1.393 . S
C451 C450 1.391 . S
H452 C460 0.950 . S
H453 C465 0.950 . S
H454 C462 0.950 . S
H455 C464 0.950 . S
H456 C466 0.950 . S
H457 C468 0.950 . S
H458 C470 0.950 . S
H459 C471 0.950 . S
C460 H452 0.950 . S
C460 C461 1.386 . S
C460 C462 1.391 1_455 S
C461 C460 1.386 . S
C461 C465 1.393 . S
C462 H454 0.950 . S
C462 C460 1.391 1_655 S
C462 C463 1.400 . S
C463 C462 1.400 . S
C463 C464 1.398 1_655 S
C463 C469 1.491 . S
C464 H455 0.950 . S
C464 C463 1.398 1_455 S
C464 C465 1.391 . S
C465 H453 0.950 . S
C465 C461 1.393 . S
C465 C464 1.391 . S
C466 H456 0.950 . S
C466 C467 1.386 . S
C466 C468 1.391 . S
C467 C466 1.386 . S
C467 C471 1.393 . S
C468 H457 0.950 . S
C468 C466 1.391 . S
C468 C469 1.400 . S
C469 C463 1.491 . S
C469 C468 1.400 . S
C469 C470 1.398 . S
C470 H458 0.950 . S
C470 C469 1.398 . S
C470 C471 1.391 . S
C471 H459 0.950 . S
C471 C467 1.393 . S
C471 C470 1.391 . S
H472 C480 0.950 . S
H473 C485 0.950 . S
H474 C482 0.950 . S
H475 C484 0.950 . S
H476 C486 0.950 . S
H477 C488 0.950 . S
H478 C490 0.950 . S
H479 C491 0.950 . S
C480 H472 0.950 . S
C480 C481 1.386 . S
C480 C482 1.391 . S
C481 C480 1.386 . S
C481 C485 1.393 . S
C482 H474 0.950 . S
C482 C480 1.391 . S
C482 C483 1.400 . S
C483 C482 1.400 . S
C483 C484 1.398 . S
C483 C489 1.491 . S
C484 H475 0.950 . S
C484 C483 1.398 . S
C484 C485 1.391 . S
C485 H473 0.950 . S
C485 C481 1.393 . S
C485 C484 1.391 . S
C486 H476 0.950 . S
C486 C487 1.386 . S
C486 C488 1.391 . S
C487 C486 1.386 . S
C487 C491 1.393 . S
C488 H477 0.950 . S
C488 C486 1.391 . S
C488 C489 1.400 . S
C489 C483 1.491 . S
C489 C488 1.400 . S
C489 C490 1.398 . S
C490 H478 0.950 . S
C490 C489 1.398 . S
C490 C491 1.391 . S
C491 H479 0.950 . S
C491 C487 1.393 . S
C491 C490 1.391 . S
H492 C500 0.950 . S
H493 C505 0.950 . S
H494 C502 0.950 . S
H495 C504 0.950 . S
H496 C506 0.950 . S
H497 C508 0.950 . S
H498 C510 0.950 . S
H499 C511 0.950 . S
C500 H492 0.950 . S
C500 C501 1.386 . S
C500 C502 1.391 1_655 S
C501 C500 1.386 . S
C501 C505 1.393 . S
C502 H494 0.950 . S
C502 C500 1.391 1_455 S
C502 C503 1.400 . S
C503 C502 1.400 . S
C503 C504 1.398 1_455 S
C503 C509 1.491 . S
C504 H495 0.950 . S
C504 C503 1.398 1_655 S
C504 C505 1.391 . S
C505 H493 0.950 . S
C505 C501 1.393 . S
C505 C504 1.391 . S
C506 H496 0.950 . S
C506 C507 1.386 . S
C506 C508 1.391 . S
C507 C506 1.386 . S
C507 C511 1.393 . S
C508 H497 0.950 . S
C508 C506 1.391 . S
C508 C509 1.400 . S
C509 C503 1.491 . S
C509 C508 1.400 . S
C509 C510 1.398 . S
C510 H498 0.950 . S
C510 C509 1.398 . S
C510 C511 1.391 . S
C511 H499 0.950 . S
C511 C507 1.393 . S
C511 C510 1.391 . S
H512 C520 0.950 . S
H513 C525 0.950 . S
H514 C522 0.950 . S
H515 C524 0.950 . S
H516 C526 0.950 . S
H517 C528 0.950 . S
H518 C530 0.950 . S
H519 C531 0.950 . S
C520 H512 0.950 . S
C520 C521 1.386 . S
C520 C522 1.391 . S
C521 C520 1.386 . S
C521 C525 1.393 . S
C522 H514 0.950 . S
C522 C520 1.391 . S
C522 C523 1.400 . S
C523 C522 1.400 . S
C523 C524 1.398 . S
C523 C529 1.491 . S
C524 H515 0.950 . S
C524 C523 1.398 . S
C524 C525 1.391 . S
C525 H513 0.950 . S
C525 C521 1.393 . S
C525 C524 1.391 . S
C526 H516 0.950 . S
C526 C527 1.386 . S
C526 C528 1.391 . S
C527 C526 1.386 . S
C527 C531 1.393 . S
C528 H517 0.950 . S
C528 C526 1.391 . S
C528 C529 1.400 . S
C529 C523 1.491 . S
C529 C528 1.400 . S
C529 C530 1.398 . S
C530 H518 0.950 . S
C530 C529 1.398 . S
C530 C531 1.391 . S
C531 H519 0.950 . S
C531 C527 1.393 . S
C531 C530 1.391 . S
H532 C540 0.950 . S
H533 C545 0.950 . S
H534 C542 0.950 . S
H535 C544 0.950 . S
H536 C546 0.950 . S
H537 C548 0.950 . S
H538 C550 0.950 . S
H539 C551 0.950 . S
C540 H532 0.950 . S
C540 C541 1.386 . S
C540 C542 1.391 . S
C541 C540 1.386 . S
C541 C545 1.393 . S
C542 H534 0.950 . S
C542 C540 1.391 . S
C542 C543 1.400 . S
C543 C542 1.400 . S
C543 C544 1.398 . S
C543 C549 1.491 . S
C544 H535 0.950 . S
C544 C543 1.398 . S
C544 C545 1.391 . S
C545 H533 0.950 . S
C545 C541 1.393 . S
C545 C544 1.391 . S
C546 H536 0.950 . S
C546 C547 1.386 . S
C546 C548 1.391 . S
C547 C546 1.386 . S
C547 C551 1.393 . S
C548 H537 0.950 . S
C548 C546 1.391 . S
C548 C549 1.400 . S
C549 C543 1.491 . S
C549 C548 1.400 . S
C549 C550 1.398 . S
C550 H538 0.950 . S
C550 C549 1.398 . S
C550 C551 1.391 . S
C551 H539 0.950 . S
C551 C547 1.393 . S
C551 C550 1.391 . S
H552 C560 0.950 . S
H553 C565 0.950 . S
H554 C562 0.950 . S
H555 C564 0.950 . S
H556 C566 0.950 . S
H557 C568 0.950 . S
H558 C570 0.950 . S
H559 C571 0.950 . S
C560 H552 0.950 . S
C560 C561 1.386 . S
C560 C562 1.391 . S
C561 C560 1.386 . S
C561 C565 1.393 . S
C562 H554 0.950 . S
C562 C560 1.391 . S
C562 C563 1.400 . S
C563 C562 1.400 . S
C563 C564 1.398 . S
C563 C569 1.491 . S
C564 H555 0.950 . S
C564 C563 1.398 . S
C564 C565 1.391 . S
C565 H553 0.950 . S
C565 C561 1.393 . S
C565 C564 1.391 . S
C566 H556 0.950 . S
C566 C567 1.386 . S
C566 C568 1.391 . S
C567 C566 1.386 . S
C567 C571 1.393 . S
C568 H557 0.950 . S
C568 C566 1.391 . S
C568 C569 1.400 . S
C569 C563 1.491 . S
C569 C568 1.400 . S
C569 C570 1.398 . S
C570 H558 0.950 . S
C570 C569 1.398 . S
C570 C571 1.391 . S
C571 H559 0.950 . S
C571 C567 1.393 . S
C571 C570 1.391 . S
H572 C580 0.950 . S
H573 C585 0.950 . S
H574 C582 0.950 . S
H575 C584 0.950 . S
H576 C586 0.950 . S
H577 C588 0.950 . S
H578 C590 0.950 . S
H579 C591 0.950 . S
C580 H572 0.950 . S
C580 C581 1.386 . S
C580 C582 1.391 . S
C581 C580 1.386 . S
C581 C585 1.393 . S
C582 H574 0.950 . S
C582 C580 1.391 . S
C582 C583 1.400 . S
C583 C582 1.400 . S
C583 C584 1.398 . S
C583 C589 1.491 . S
C584 H575 0.950 . S
C584 C583 1.398 . S
C584 C585 1.391 . S
C585 H573 0.950 . S
C585 C581 1.393 . S
C585 C584 1.391 . S
C586 H576 0.950 . S
C586 C587 1.386 . S
C586 C588 1.391 . S
C587 C586 1.386 . S
C587 C591 1.393 . S
C588 H577 0.950 . S
C588 C586 1.391 . S
C588 C589 1.400 . S
C589 C583 1.491 . S
C589 C588 1.400 . S
C589 C590 1.398 . S
C590 H578 0.950 . S
C590 C589 1.398 . S
C590 C591 1.391 . S
C591 H579 0.950 . S
C591 C587 1.393 . S
C591 C590 1.391 . S
H592 C600 0.950 . S
H593 C605 0.950 . S
H594 C602 0.950 . S
H595 C604 0.950 . S
H596 C606 0.950 . S
H597 C608 0.950 . S
H598 C610 0.950 . S
H599 C611 0.950 . S
C600 H592 0.950 . S
C600 C601 1.386 . S
C600 C602 1.391 . S
C601 C600 1.386 . S
C601 C605 1.393 . S
C602 H594 0.950 . S
C602 C600 1.391 . S
C602 C603 1.400 . S
C603 C602 1.400 . S
C603 C604 1.398 . S
C603 C609 1.491 . S
C604 H595 0.950 . S
C604 C603 1.398 . S
C604 C605 1.391 . S
C605 H593 0.950 . S
C605 C601 1.393 . S
C605 C604 1.391 . S
C606 H596 0.950 . S
C606 C607 1.386 . S
C606 C608 1.391 . S
C607 C606 1.386 . S
C607 C611 1.393 . S
C608 H597 0.950 . S
C608 C606 1.391 . S
C608 C609 1.400 . S
C609 C603 1.491 . S
C609 C608 1.400 . S
C609 C610 1.398 . S
C610 H598 0.950 . S
C610 C609 1.398 . S
C610 C611 1.391 . S
C611 H599 0.950 . S
C611 C607 1.393 . S
C611 C610 1.391 . S
H612 C620 0.964 . S
H613 C625 0.950 . S
H614 C622 0.950 . S
H615 C624 0.950 . S
H616 C626 0.950 . S
H617 C628 0.950 . S
H618 C630 0.950 . S
H619 C631 0.950 . S
C620 H612 0.964 . S
C620 C621 1.386 . S
C620 C622 1.391 . S
C621 C620 1.386 . S
C621 C625 1.393 . S
C622 H614 0.950 . S
C622 C620 1.391 . S
C622 C623 1.400 . S
C623 C622 1.400 . S
C623 C624 1.398 . S
C623 C629 1.491 . S
C624 H615 0.950 . S
C624 C623 1.398 . S
C624 C625 1.391 . S
C625 H613 0.950 . S
C625 C621 1.393 . S
C625 C624 1.391 . S
C626 H616 0.950 . S
C626 C627 1.386 . S
C626 C628 1.391 . S
C627 C626 1.386 . S
C627 C631 1.393 . S
C628 H617 0.950 . S
C628 C626 1.391 . S
C628 C629 1.400 . S
C629 C623 1.491 . S
C629 C628 1.400 . S
C629 C630 1.398 . S
C630 H618 0.950 . S
C630 C629 1.398 . S
C630 C631 1.391 . S
C631 H619 0.950 . S
C631 C627 1.393 . S
C631 C630 1.391 . S
H632 C640 0.950 . S
H633 C645 0.950 . S
H634 C642 0.950 . S
H635 C644 0.950 . S
H636 C646 0.950 . S
H637 C648 0.950 . S
H638 C650 0.950 . S
H639 C651 0.950 . S
C640 H632 0.950 . S
C640 C641 1.386 . S
C640 C642 1.391 . S
C641 C640 1.386 . S
C641 C645 1.393 . S
C642 H634 0.950 . S
C642 C640 1.391 . S
C642 C643 1.400 . S
C643 C642 1.400 . S
C643 C644 1.398 . S
C643 C649 1.491 . S
C644 H635 0.950 . S
C644 C643 1.398 . S
C644 C645 1.391 . S
C645 H633 0.950 . S
C645 C641 1.393 . S
C645 C644 1.391 . S
C646 H636 0.950 . S
C646 C647 1.386 . S
C646 C648 1.391 . S
C647 C646 1.386 . S
C647 C651 1.393 . S
C648 H637 0.950 . S
C648 C646 1.391 . S
C648 C649 1.400 . S
C649 C643 1.491 . S
C649 C648 1.400 . S
C649 C650 1.398 . S
C650 H638 0.950 . S
C650 C649 1.398 . S
C650 C651 1.391 . S
C651 H639 0.950 . S
C651 C647 1.393 . S
C651 C650 1.391 . S
H652 C660 0.950 . S
H653 C665 0.950 . S
H654 C662 0.950 . S
H655 C664 0.950 . S
H656 C666 0.950 . S
H657 C668 0.950 . S
H658 C670 0.950 . S
H659 C671 0.950 . S
C660 H652 0.950 . S
C660 C661 1.386 . S
C660 C662 1.391 . S
C661 C660 1.386 . S
C661 C665 1.393 . S
C662 H654 0.950 . S
C662 C660 1.391 . S
C662 C663 1.400 . S
C663 C662 1.400 . S
C663 C664 1.398 . S
C663 C669 1.491 . S
C664 H655 0.950 . S
C664 C663 1.398 . S
C664 C665 1.391 . S
C665 H653 0.950 . S
C665 C661 1.393 . S
C665 C664 1.391 . S
C666 H656 0.950 . S
C666 C667 1.386 . S
C666 C668 1.391 . S
C667 C666 1.386 . S
C667 C671 1.393 . S
C668 H657 0.950 . S
C668 C666 1.391 . S
C668 C669 1.400 . S
C669 C663 1.491 . S
C669 C668 1.400 . S
C669 C670 1.398 . S
C670 H658 0.950 . S
C670 C669 1.398 . S
C670 C671 1.391 . S
C671 H659 0.950 . S
C671 C667 1.393 . S
C671 C670 1.391 . S
C201 C8 1.305 . S
C207 C96 1.285 . S
C221 C31 1.218 . S
C227 C109 1.204 . S
C241 C53 1.427 . S
C247 C123 1.400 . S
C267 C136 1.347 . S
C261 C74 1.361 . S
C287 C148 1.266 . S
C281 C26 1.245 . S
C301 C48 1.423 . S
C307 C162 1.373 . S
C321 C71 1.259 . S
C327 C174 1.243 . S
C341 C5 1.370 . S
C347 C188 1.344 . S
C361 C50 1.276 . S
C367 C187 1.214 . S
C387 C149 1.347 . S
C381 C70 1.427 . S
C407 C161 1.266 . S
C401 C4 1.270 . S
C421 C28 1.376 . S
C427 C175 1.338 . S
C447 C110 1.411 . S
C441 C73 1.413 . S
C461 C7 1.221 . S
C467 C122 1.188 . S
C487 C135 1.284 . S
C481 C30 1.304 . S
C507 C97 1.330 . S
C501 C52 1.376 . S
C527 C170 1.309 . S
C521 C9 1.359 . S
C547 C183 1.249 . S
C541 C29 1.347 . S
C561 C51 1.416 . S
C567 C144 1.356 . S
C587 C157 1.399 . S
C581 C75 1.408 . S
C607 C118 1.312 . S
C601 C27 1.357 . S
C621 C49 1.395 . S
C627 C131 1.293 . S
C647 C92 1.358 . S
C641 C72 1.390 . S
C667 C105 1.263 . S
C661 C6 1.354 . S
