# Generated by pormake.
# Topology apo, (3,6)-cn, num edge types: 1
# Building blocks:
#     Node 0, Type 0, BuildingBlock: KAKCAD_clean_linker_0, # of connection points: 3
#     Node 1, Type 0, BuildingBlock: KAKCAD_clean_linker_0, # of connection points: 3
#     Node 2, Type 0, BuildingBlock: KAKCAD_clean_linker_0, # of connection points: 3
#     Node 3, Type 0, BuildingBlock: KAKCAD_clean_linker_0, # of connection points: 3
#     Node 4, Type 0, BuildingBlock: KAKCAD_clean_linker_0, # of connection points: 3
#     Node 5, Type 0, BuildingBlock: KAKCAD_clean_linker_0, # of connection points: 3
#     Node 6, Type 0, BuildingBlock: KAKCAD_clean_linker_0, # of connection points: 3
#     Node 7, Type 0, BuildingBlock: KAKCAD_clean_linker_0, # of connection points: 3
#     Node 8, Type 1, BuildingBlock: KUMJIN_clean_sbu_1, # of connection points: 6
#     Node 9, Type 1, BuildingBlock: KUMJIN_clean_sbu_1, # of connection points: 6
#     Node 10, Type 1, BuildingBlock: KUMJIN_clean_sbu_1, # of connection points: 6
#     Node 11, Type 1, BuildingBlock: KUMJIN_clean_sbu_1, # of connection points: 6
#     Edge 12, Type (0, 1), None
#     Edge 13, Type (0, 1), None
#     Edge 14, Type (0, 1), None
#     Edge 15, Type (0, 1), None
#     Edge 16, Type (0, 1), None
#     Edge 17, Type (0, 1), None
#     Edge 18, Type (0, 1), None
#     Edge 19, Type (0, 1), None
#     Edge 20, Type (0, 1), None
#     Edge 21, Type (0, 1), None
#     Edge 22, Type (0, 1), None
#     Edge 23, Type (0, 1), None
#     Edge 24, Type (0, 1), None
#     Edge 25, Type (0, 1), None
#     Edge 26, Type (0, 1), None
#     Edge 27, Type (0, 1), None
#     Edge 28, Type (0, 1), None
#     Edge 29, Type (0, 1), None
#     Edge 30, Type (0, 1), None
#     Edge 31, Type (0, 1), None
#     Edge 32, Type (0, 1), None
#     Edge 33, Type (0, 1), None
#     Edge 34, Type (0, 1), None
#     Edge 35, Type (0, 1), None
# Relax obj value: 0.006
# Max RMSD: 0.141
# Mean RMSD: 0.105
data_MOF--net-apo--node1-KUMJIN_clean_sbu_1--node2-KAKCAD_clean_linker_0--edge1-none
_symmetry_space_group_name_H-M    P1
_symmetry_Int_Tables_number       1
_symmetry_cell_setting            triclinic
loop_
_symmetry_equiv_pos_as_xyz
'x, y, z'
_cell_length_a     16.398091
_cell_length_b     28.373479
_cell_length_c     38.448415
_cell_angle_alpha  90.047043
_cell_angle_beta   89.706274
_cell_angle_gamma 90.522805
loop_
_atom_site_label
_atom_site_type_symbol
_atom_site_fract_x
_atom_site_fract_y
_atom_site_fract_z
_atom_type_partial_charge
C0 C 0.32129 0.51853 0.32954 0.0
C1 C 0.40542 0.5212 0.32237 0.0
C2 C 0.28922 0.48207 0.35 0.0
C3 C 0.34088 0.44831 0.36445 0.0
C4 C 0.42507 0.45151 0.35835 0.0
C5 C 0.45711 0.48753 0.33736 0.0
C6 C 0.30605 0.40803 0.38385 0.0
C7 C 0.26795 0.37144 0.36548 0.0
C8 C 0.23277 0.33319 0.38318 0.0
C9 C 0.23458 0.33205 0.41971 0.0
C10 C 0.2702 0.36942 0.43872 0.0
C11 C 0.30745 0.40694 0.42036 0.0
C12 C 0.26139 0.37163 0.47737 0.0
C13 C 0.18635 0.35979 0.49312 0.0
C14 C 0.32497 0.38872 0.49859 0.0
C15 C 0.31255 0.39556 0.53441 0.0
C16 C 0.23603 0.38598 0.5496 0.0
C17 C 0.19094 0.29561 0.36328 0.0
C18 C 0.12389 0.3066 0.34233 0.0
C19 C 0.21893 0.24905 0.3643 0.0
C20 C 0.18066 0.21401 0.34442 0.0
C21 C 0.11281 0.22488 0.32384 0.0
C22 C 0.08467 0.27145 0.32301 0.0
C23 C 0.17382 0.367 0.52869 0.0
H24 H 0.27987 0.54434 0.31918 0.0
H25 H 0.22396 0.48002 0.35439 0.0
H26 H 0.46572 0.42549 0.36915 0.0
H27 H 0.52226 0.48864 0.33261 0.0
H28 H 0.26593 0.37268 0.33729 0.0
H29 H 0.33412 0.43642 0.43434 0.0
H30 H 0.20604 0.3027 0.43326 0.0
H31 H 0.13571 0.347 0.47768 0.0
H32 H 0.38378 0.39774 0.48737 0.0
H33 H 0.36151 0.41038 0.54987 0.0
H34 H 0.10158 0.34238 0.34112 0.0
H35 H 0.27111 0.24 0.38003 0.0
H36 H 0.11438 0.359 0.53973 0.0
H37 H 0.03294 0.2808 0.3071 0.0
H38 H 0.2036 0.17835 0.34538 0.0
C39 C 0.17778 0.98173 0.83174 0.0
C40 C 0.09313 0.97609 0.82739 0.0
C41 C 0.20912 0.01982 0.8506 0.0
C42 C 0.15632 0.05201 0.86647 0.0
C43 C 0.07189 0.04561 0.86348 0.0
C44 C 0.04049 0.00819 0.84389 0.0
C45 C 0.18956 0.09299 0.88532 0.0
C46 C 0.22874 0.12917 0.86683 0.0
C47 C 0.26221 0.16802 0.88438 0.0
C48 C 0.25765 0.17003 0.92086 0.0
C49 C 0.22072 0.13307 0.9399 0.0
C50 C 0.18508 0.0951 0.9217 0.0
C51 C 0.22748 0.13107 0.97848 0.0
C52 C 0.30232 0.14175 0.99446 0.0
C53 C 0.16269 0.11391 0.99923 0.0
C54 C 0.17405 0.10519 0.03475 0.0
C55 C 0.25062 0.113 0.05003 0.0
C56 C 0.30526 0.20521 0.86443 0.0
C57 C 0.36994 0.19325 0.84216 0.0
C58 C 0.28087 0.25241 0.86676 0.0
C59 C 0.31996 0.28705 0.84668 0.0
C60 C 0.38498 0.27505 0.82459 0.0
C61 C 0.40995 0.22793 0.82264 0.0
C62 C 0.31377 0.13269 0.02977 0.0
H63 H 0.22007 0.95698 0.8205 0.0
H64 H 0.2746 0.02411 0.85291 0.0
H65 H 0.03035 0.07019 0.87565 0.0
H66 H 0.97493 0.00474 0.84148 0.0
H67 H 0.23273 0.12721 0.83868 0.0
H68 H 0.15766 0.06587 0.9358 0.0
H69 H 0.2853 0.19959 0.93441 0.0
H70 H 0.35373 0.15459 0.9793 0.0
H71 H 0.10403 0.1058 0.98775 0.0
H72 H 0.12442 0.08993 0.04979 0.0
H73 H 0.38969 0.15702 0.83998 0.0
H74 H 0.2306 0.26225 0.88357 0.0
H75 H 0.37323 0.13937 0.041 0.0
H76 H 0.45951 0.21777 0.80554 0.0
H77 H 0.29962 0.3232 0.84848 0.0
C78 C 0.83612 0.00699 0.72194 0.0
C79 C 0.89799 0.97798 0.70896 0.0
C80 C 0.80626 0.04406 0.70202 0.0
C81 C 0.84084 0.05527 0.6693 0.0
C82 C 0.90252 0.02573 0.65628 0.0
C83 C 0.92903 0.987 0.67541 0.0
C84 C 0.81345 0.09784 0.6495 0.0
C85 C 0.7777 0.13594 0.66718 0.0
C86 C 0.7449 0.17449 0.64924 0.0
C87 C 0.75552 0.17705 0.61305 0.0
C88 C 0.79756 0.1416 0.59516 0.0
C89 C 0.82354 0.10145 0.61316 0.0
C90 C 0.81993 0.14839 0.55818 0.0
C91 C 0.7611 0.16085 0.5335 0.0
C92 C 0.90219 0.14585 0.54804 0.0
C93 C 0.92567 0.15716 0.5141 0.0
C94 C 0.86711 0.17029 0.48957 0.0
C95 C 0.69907 0.2113 0.66872 0.0
C96 C 0.65306 0.19859 0.69831 0.0
C97 C 0.70013 0.25894 0.65824 0.0
C98 C 0.65618 0.29274 0.67693 0.0
C99 C 0.61257 0.27967 0.70688 0.0
C100 C 0.61173 0.23244 0.71747 0.0
C101 C 0.78446 0.1712 0.49928 0.0
H102 H 0.81088 0.00155 0.74768 0.0
H103 H 0.75621 0.06397 0.7128 0.0
H104 H 0.93248 0.03275 0.63171 0.0
H105 H 0.97671 0.96534 0.66438 0.0
H106 H 0.77619 0.13624 0.69528 0.0
H107 H 0.85138 0.07335 0.5984 0.0
H108 H 0.73266 0.20694 0.5987 0.0
H109 H 0.69734 0.16304 0.54078 0.0
H110 H 0.94869 0.13673 0.56672 0.0
H111 H 0.98966 0.15597 0.50701 0.0
H112 H 0.64795 0.16225 0.70667 0.0
H113 H 0.73558 0.27036 0.63592 0.0
H114 H 0.7384 0.18127 0.48067 0.0
H115 H 0.57715 0.2214 0.74019 0.0
H116 H 0.65757 0.32914 0.66845 0.0
C117 C 0.66757 0.49016 0.21953 0.0
C118 C 0.61057 0.52108 0.20539 0.0
C119 C 0.69796 0.45277 0.19998 0.0
C120 C 0.66741 0.44255 0.16649 0.0
C121 C 0.61044 0.47398 0.15228 0.0
C122 C 0.58448 0.51332 0.17101 0.0
C123 C 0.69358 0.399 0.14724 0.0
C124 C 0.72768 0.36096 0.16541 0.0
C125 C 0.75972 0.32166 0.14802 0.0
C126 C 0.74843 0.3177 0.112 0.0
C127 C 0.70745 0.35292 0.09361 0.0
C128 C 0.68373 0.39423 0.11097 0.0
C129 C 0.68436 0.34501 0.05684 0.0
C130 C 0.74043 0.32651 0.03277 0.0
C131 C 0.60356 0.35276 0.04633 0.0
C132 C 0.57869 0.34095 1.01274 0.0
C133 C 0.6344 0.32173 0.98907 0.0
C134 C 0.80571 0.28562 0.16793 0.0
C135 C 0.85266 0.29954 0.19681 0.0
C136 C 0.80389 0.23758 0.15856 0.0
C137 C 0.84782 0.20451 0.1777 0.0
C138 C 0.89217 0.2188 0.20697 0.0
C139 C 0.894 0.26641 0.21646 0.0
C140 C 0.71567 0.31524 0.999 0.0
H141 H 0.68766 0.49371 0.24603 0.0
H142 H 0.74473 0.43173 0.21189 0.0
H143 H 0.5834 0.46814 0.12708 0.0
H144 H 0.54055 0.53636 0.15897 0.0
H145 H 0.72875 0.36113 0.19347 0.0
H146 H 0.65762 0.42221 0.09571 0.0
H147 H 0.77005 0.2869 0.09824 0.0
H148 H 0.80312 0.32045 0.04015 0.0
H149 H 0.55888 0.3665 0.06445 0.0
H150 H 0.51584 0.34642 1.0053 0.0
H151 H 0.8582 0.33622 0.20428 0.0
H152 H 0.76768 0.22526 0.13687 0.0
H153 H 0.75947 0.3007 0.98083 0.0
H154 H 0.9289 0.27817 0.23876 0.0
H155 H 0.84542 0.1677 0.17022 0.0
C156 C 0.53706 0.50537 0.68618 0.0
C157 C 0.58743 0.47709 0.70689 0.0
C158 C 0.56994 0.54336 0.66752 0.0
C159 C 0.65352 0.55403 0.66953 0.0
C160 C 0.70403 0.52559 0.68981 0.0
C161 C 0.67144 0.48721 0.70796 0.0
C162 C 0.68797 0.5952 0.65095 0.0
C163 C 0.7341 0.62894 0.66914 0.0
C164 C 0.76515 0.66878 0.65198 0.0
C165 C 0.75212 0.67407 0.61621 0.0
C166 C 0.70754 0.64012 0.59737 0.0
C167 C 0.67457 0.60101 0.61515 0.0
C168 C 0.69886 0.64491 0.55905 0.0
C169 C 0.68855 0.68957 0.54393 0.0
C170 C 0.70657 0.60543 0.53711 0.0
C171 C 0.70797 0.61088 0.50096 0.0
C172 C 0.70249 0.65592 0.4861 0.0
C173 C 0.80956 0.70569 0.67145 0.0
C174 C 0.78265 0.75244 0.67026 0.0
C175 C 0.87865 0.69463 0.69116 0.0
C176 C 0.92078 0.73006 0.70914 0.0
C177 C 0.89316 0.77674 0.70822 0.0
C178 C 0.8237 0.78759 0.68872 0.0
C179 C 0.6909 0.69504 0.50787 0.0
H180 H 0.47206 0.4986 0.68469 0.0
H181 H 0.52981 0.56503 0.65212 0.0
H182 H 0.76893 0.53278 0.69133 0.0
H183 H 0.71238 0.46526 0.7225 0.0
H184 H 0.74359 0.62498 0.69689 0.0
H185 H 0.63905 0.57482 0.60118 0.0
H186 H 0.77893 0.7042 0.60296 0.0
H187 H 0.68039 0.72056 0.55999 0.0
H188 H 0.71535 0.57057 0.54783 0.0
H189 H 0.71739 0.58018 0.48471 0.0
H190 H 0.72904 0.76161 0.65545 0.0
H191 H 0.90031 0.65872 0.69238 0.0
H192 H 0.68519 0.73006 0.49699 0.0
H193 H 0.80102 0.82332 0.68779 0.0
H194 H 0.97361 0.72079 0.72441 0.0
C195 C 0.68107 0.87147 1.00234 0.0
C196 C 0.74694 0.88925 0.98267 0.0
C197 C 0.6897 0.86219 0.0378 0.0
C198 C 0.76438 0.87074 0.05454 0.0
C199 C 0.83162 0.88605 0.03442 0.0
C200 C 0.82308 0.89499 0.99876 0.0
C201 C 0.76953 0.86774 0.09317 0.0
C202 C 0.73026 0.83091 0.11155 0.0
C203 C 0.72873 0.83039 0.14823 0.0
C204 C 0.76701 0.86758 0.16631 0.0
C205 C 0.80555 0.90456 0.14841 0.0
C206 C 0.80785 0.9042 0.11199 0.0
C207 C 0.84028 0.94469 0.168 0.0
C208 C 0.78874 0.97558 0.186 0.0
C209 C 0.92478 0.95201 0.16912 0.0
C210 C 0.95754 0.98904 0.18876 0.0
C211 C 0.90624 0.02 0.20722 0.0
C212 C 0.68557 0.79204 0.16784 0.0
C213 C 0.68496 0.74514 0.15568 0.0
C214 C 0.64501 0.8021 0.19932 0.0
C215 C 0.60704 0.76634 0.21849 0.0
C216 C 0.60718 0.7197 0.20644 0.0
C217 C 0.64551 0.70939 0.17468 0.0
C218 C 0.82134 0.01333 0.20494 0.0
H219 H 0.62179 0.86646 0.99051 0.0
H220 H 0.63652 0.85074 0.05245 0.0
H221 H 0.89025 0.89244 0.04648 0.0
H222 H 0.87476 0.9088 0.98422 0.0
H223 H 0.69944 0.80321 0.09719 0.0
H224 H 0.83611 0.93359 0.09837 0.0
H225 H 0.76764 0.86793 0.19449 0.0
H226 H 0.72316 0.97072 0.18511 0.0
H227 H 0.96545 0.92855 0.1553 0.0
H228 H 0.02323 0.99318 0.18954 0.0
H229 H 0.71612 0.73578 0.13181 0.0
H230 H 0.6418 0.83778 0.20921 0.0
H231 H 0.77987 0.03726 0.21762 0.0
H232 H 0.64647 0.67356 0.16493 0.0
H233 H 0.57661 0.77534 0.24264 0.0
C234 C 0.11217 0.97574 0.30702 0.0
C235 C 0.09927 0.02016 0.32167 0.0
C236 C 0.14192 0.93922 0.32733 0.0
C237 C 0.16208 0.94666 0.36256 0.0
C238 C 0.14876 0.99133 0.37723 0.0
C239 C 0.11688 0.02767 0.357 0.0
C240 C 0.19722 0.90747 0.38318 0.0
C241 C 0.24869 0.87536 0.36647 0.0
C242 C 0.27114 0.833 0.38233 0.0
C243 C 0.2495 0.82592 0.41741 0.0
C244 C 0.20488 0.86003 0.43599 0.0
C245 C 0.17717 0.90026 0.41841 0.0
C246 C 0.18995 0.85373 0.47394 0.0
C247 C 0.17079 0.80891 0.4874 0.0
C248 C 0.20407 0.89115 0.49731 0.0
C249 C 0.20616 0.88287 0.53324 0.0
C250 C 0.19434 0.8371 0.54623 0.0
C251 C 0.31359 0.79597 0.36142 0.0
C252 C 0.30151 0.79314 0.32517 0.0
C253 C 0.36525 0.76281 0.37702 0.0
C254 C 0.40159 0.72736 0.35712 0.0
C255 C 0.3894 0.72508 0.32095 0.0
C256 C 0.34092 0.75929 0.30519 0.0
C257 C 0.17344 0.80065 0.52314 0.0
H258 H 0.09749 0.96892 0.28002 0.0
H259 H 0.14855 0.90493 0.31533 0.0
H260 H 0.16403 0.99847 0.4041 0.0
H261 H 0.10739 0.06189 0.36881 0.0
H262 H 0.27026 0.88338 0.34049 0.0
H263 H 0.13854 0.92508 0.43197 0.0
H264 H 0.26764 0.794 0.4305 0.0
H265 H 0.15769 0.77961 0.47017 0.0
H266 H 0.21917 0.92607 0.48776 0.0
H267 H 0.22309 0.91141 0.55058 0.0
H268 H 0.2607 0.81667 0.31181 0.0
H269 H 0.37826 0.76407 0.40456 0.0
H270 H 0.16376 0.76508 0.53265 0.0
H271 H 0.3325 0.75995 0.27732 0.0
H272 H 0.43984 0.70201 0.37013 0.0
C273 C 0.27647 0.66533 0.03304 0.0
C274 C 0.35822 0.66015 0.04289 0.0
C275 C 0.25252 0.65586 0.99883 0.0
C276 C 0.30962 0.64024 0.97406 0.0
C277 C 0.39069 0.63325 0.98435 0.0
C278 C 0.41488 0.64348 0.01836 0.0
C279 C 0.28557 0.6333 0.93722 0.0
C280 C 0.24354 0.66899 0.9196 0.0
C281 C 0.22112 0.66357 0.88447 0.0
C282 C 0.2408 0.62097 0.86766 0.0
C283 C 0.2873 0.58624 0.884 0.0
C284 C 0.30838 0.5924 0.91912 0.0
C285 C 0.31966 0.54616 0.86306 0.0
C286 C 0.27381 0.52605 0.83581 0.0
C287 C 0.39994 0.53075 0.868 0.0
C288 C 0.43376 0.4968 0.84608 0.0
C289 C 0.38884 0.47779 0.81818 0.0
C290 C 0.18103 0.70258 0.86458 0.0
C291 C 0.13675 0.73855 0.88143 0.0
C292 C 0.18687 0.70425 0.82799 0.0
C293 C 0.14658 0.73843 0.80901 0.0
C294 C 0.10505 0.77498 0.82577 0.0
C295 C 0.10094 0.7749 0.86229 0.0
C296 C 0.30832 0.49281 0.81339 0.0
H297 H 0.23181 0.67842 0.05144 0.0
H298 H 0.18952 0.66124 0.9916 0.0
H299 H 0.43602 0.62148 0.96576 0.0
H300 H 0.47825 0.63908 0.02539 0.0
H301 H 0.23161 0.70159 0.93322 0.0
H302 H 0.34238 0.56535 0.93246 0.0
H303 H 0.22251 0.61508 0.84112 0.0
H304 H 0.21118 0.53621 0.83154 0.0
H305 H 0.43782 0.54584 0.88821 0.0
H306 H 0.49569 0.48587 0.851 0.0
H307 H 0.12854 0.73879 0.90933 0.0
H308 H 0.22281 0.67946 0.81327 0.0
H309 H 0.27145 0.47874 0.79252 0.0
H310 H 0.06836 0.80226 0.87607 0.0
H311 H 0.14874 0.73605 0.78092 0.0
Eu312 Eu 0.10549 0.12581 0.23435 0.0
C313 C 0.72147 0.11006 0.27641 0.0
N314 N 0.77474 0.14697 0.27815 0.0
C315 C 0.67012 0.2002 0.26062 0.0
C316 C 0.63978 0.11696 0.26646 0.0
C317 C 0.75038 0.1917 0.27085 0.0
C318 C 0.61454 0.16269 0.25841 0.0
C319 C 0.69489 0.02611 0.28301 0.0
C320 C 0.74865 0.06511 0.28462 0.0
C321 C 0.61346 0.03292 0.27317 0.0
C322 C 0.58598 0.07819 0.26493 0.0
Eu323 Eu 0.90697 0.12895 0.29732 0.0
N324 N 0.82837 0.05933 0.29315 0.0
C325 C 0.72487 0.98136 0.29105 0.0
C326 C 0.85734 0.01615 0.30215 0.0
C327 C 0.80635 0.97641 0.30078 0.0
H328 H 0.79244 0.22098 0.27359 0.0
H329 H 0.82976 0.94205 0.30742 0.0
H330 H 0.24494 0.06392 0.27737 0.0
H331 H 0.10309 0.31331 0.19953 0.0
H332 H 0.91973 0.01232 0.31028 0.0
H333 H 0.68559 0.95048 0.28998 0.0
H334 H 0.05627 0.23093 0.19748 0.0
H335 H 0.65095 0.23571 0.25478 0.0
H336 H 0.57127 0.00337 0.27176 0.0
H337 H 0.52298 0.08284 0.25739 0.0
H338 H 0.37802 0.0776 0.30598 0.0
H339 H 0.55226 0.16944 0.25069 0.0
H340 H 0.22854 0.3343 0.23162 0.0
N341 N 0.23065 0.13568 0.26321 0.0
C342 C 0.26295 0.18001 0.26325 0.0
C343 C 0.34605 0.1067 0.29424 0.0
C344 C 0.33805 0.18948 0.27965 0.0
C345 C 0.27077 0.09908 0.27816 0.0
C346 C 0.37978 0.15209 0.29506 0.0
N347 N 0.14642 0.20615 0.23233 0.0
C348 C 0.10731 0.23987 0.21365 0.0
C349 C 0.25041 0.26277 0.24842 0.0
C350 C 0.21913 0.21628 0.24787 0.0
C351 C 0.20656 0.29819 0.23177 0.0
C352 C 0.13542 0.28654 0.21384 0.0
H353 H 0.43794 0.1579 0.30769 0.0
H354 H 0.42616 0.2438 0.29305 0.0
H355 H 0.34946 0.30794 0.26581 0.0
O356 O 0.13061 0.13509 0.17825 0.0
O357 O 0.11507 0.15372 0.28987 0.0
O358 O 0.99388 0.19145 0.29622 0.0
O359 O 0.19985 0.08451 0.20884 0.0
O360 O 0.9874 0.15583 0.21283 0.0
O361 O 0.93501 0.18984 0.26197 0.0
O362 O 0.91253 0.11081 0.35229 0.0
O363 O 0.89252 0.08471 0.2478 0.0
O364 O 0.02162 0.06283 0.22897 0.0
O365 O 0.83152 0.16593 0.3354 0.0
O366 O 0.01698 0.08829 0.31573 0.0
O367 O 0.08672 0.06044 0.26723 0.0
C368 C 0.07175 0.1879 0.30316 0.0
C369 C 0.23716 0.09053 0.14781 0.0
C370 C 0.26814 0.09577 0.08562 0.0
C371 C 0.33568 0.06646 0.09071 0.0
C372 C 0.30491 0.06113 0.15206 0.0
C373 C 0.35361 0.04918 0.12367 0.0
C374 C 0.21841 0.10749 0.11432 0.0
C375 C 0.93605 0.18455 0.22817 0.0
C376 C 0.18838 0.10387 0.17866 0.0
C377 C 0.36866 0.23583 0.28048 0.0
C378 C 0.32485 0.27237 0.26504 0.0
C379 C 0.94171 0.05866 0.22862 0.0
C380 C 0.88819 0.17229 0.39155 0.0
C381 C 0.89269 0.18415 0.45416 0.0
C382 C 0.94865 0.2214 0.44931 0.0
C383 C 0.94266 0.21019 0.38698 0.0
C384 C 0.86243 0.15976 0.42513 0.0
C385 C 0.97294 0.23456 0.41579 0.0
C386 C 0.06567 0.05813 0.30032 0.0
C387 C 0.86194 0.14359 0.36186 0.0
H388 H 0.37422 0.05641 0.06901 0.0
H389 H 0.32082 0.04758 0.17745 0.0
H390 H 0.40564 0.02651 0.12723 0.0
H391 H 0.16637 0.1302 0.11064 0.0
H392 H 0.97282 0.24054 0.47143 0.0
H393 H 0.96207 0.22058 0.36123 0.0
H394 H 0.82061 0.13031 0.42874 0.0
H395 H 0.01563 0.26349 0.41214 0.0
Eu396 Eu 0.38971 0.364 0.73127 0.0
C397 C 0.77895 0.36999 0.77444 0.0
N398 N 0.71813 0.33786 0.77944 0.0
C399 C 0.80947 0.27498 0.76574 0.0
C400 C 0.8577 0.35576 0.76421 0.0
C401 C 0.73274 0.2908 0.7764 0.0
C402 C 0.87211 0.30762 0.75936 0.0
C403 C 0.82613 0.45119 0.778 0.0
C404 C 0.76345 0.41707 0.78121 0.0
C405 C 0.90407 0.43736 0.76689 0.0
C406 C 0.91982 0.38977 0.76 0.0
Eu407 Eu 0.59045 0.36778 0.79683 0.0
N408 N 0.68747 0.4294 0.79177 0.0
C409 C 0.80877 0.49809 0.78651 0.0
C410 C 0.67126 0.47455 0.80188 0.0
C411 C 0.73116 0.50972 0.79879 0.0
H412 H 0.68521 0.26542 0.78244 0.0
H413 H 0.71751 0.54571 0.80594 0.0
H414 H 0.22593 0.40445 0.77284 0.0
H415 H 0.44321 0.18534 0.68143 0.0
H416 H 0.61136 0.48352 0.81143 0.0
H417 H 0.85513 0.52538 0.78423 0.0
H418 H 0.45823 0.27166 0.68266 0.0
H419 H 0.8205 0.23763 0.76282 0.0
H420 H 0.9529 0.46309 0.76405 0.0
H421 H 0.98061 0.37952 0.75201 0.0
H422 H 0.10406 0.3732 0.80369 0.0
H423 H 0.93178 0.29525 0.75151 0.0
H424 H 0.34016 0.14615 0.71892 0.0
N425 N 0.27022 0.33681 0.75944 0.0
C426 C 0.25693 0.28954 0.75982 0.0
C427 C 0.14686 0.34928 0.79168 0.0
C428 C 0.18889 0.27005 0.7774 0.0
C429 C 0.21572 0.36689 0.77426 0.0
C430 C 0.13379 0.30061 0.79358 0.0
N431 N 0.37464 0.28097 0.72457 0.0
C432 C 0.41739 0.2549 0.70098 0.0
C433 C 0.29779 0.21156 0.74138 0.0
C434 C 0.31141 0.26074 0.74234 0.0
C435 C 0.34854 0.184 0.72044 0.0
C436 C 0.40707 0.20596 0.69939 0.0
H437 H 0.08058 0.28704 0.80721 0.0
H438 H 0.12658 0.20523 0.79186 0.0
H439 H 0.22157 0.15399 0.7601 0.0
O440 O 0.35 0.35266 0.67729 0.0
O441 O 0.38304 0.3446 0.78887 0.0
O442 O 0.50298 0.30605 0.79474 0.0
O443 O 0.29762 0.40968 0.70797 0.0
O444 O 0.51461 0.34161 0.71097 0.0
O445 O 0.56031 0.30824 0.76072 0.0
O446 O 0.55301 0.37992 0.85057 0.0
O447 O 0.59754 0.42025 0.75257 0.0
O448 O 0.47941 0.42222 0.71855 0.0
O449 O 0.66608 0.34382 0.83975 0.0
O450 O 0.4924 0.42134 0.80749 0.0
O451 O 0.38428 0.42679 0.76782 0.0
C452 C 0.42617 0.31123 0.8032 0.0
C453 C 0.2486 0.40137 0.6484 0.0
C454 C 0.21761 0.40009 0.58609 0.0
C455 C 0.1482 0.42744 0.59283 0.0
C456 C 0.17918 0.42891 0.65423 0.0
C457 C 0.12942 0.44178 0.6266 0.0
C458 C 0.26808 0.38724 0.6141 0.0
C459 C 0.56638 0.31438 0.72716 0.0
C460 C 0.29978 0.38778 0.67827 0.0
C461 C 0.17781 0.22093 0.77808 0.0
C462 C 0.23216 0.19174 0.76012 0.0
C463 C 0.5526 0.43746 0.72733 0.0
C464 C 0.59887 0.32586 0.89234 0.0
C465 C 0.6075 0.3084 0.95398 0.0
C466 C 0.56314 0.26651 0.94865 0.0
C467 C 0.55617 0.28346 0.887 0.0
C468 C 0.62517 0.33801 0.92577 0.0
C469 C 0.53795 0.25401 0.91516 0.0
C470 C 0.42459 0.44037 0.79594 0.0
C471 C 0.61568 0.35835 0.86362 0.0
H472 H 0.10886 0.4383 0.57181 0.0
H473 H 0.16294 0.44027 0.68025 0.0
H474 H 0.07599 0.463 0.63138 0.0
H475 H 0.32171 0.36613 0.60924 0.0
H476 H 0.54862 0.24345 0.9703 0.0
H477 H 0.53713 0.2733 0.86119 0.0
H478 H 0.65857 0.3707 0.92993 0.0
H479 H 0.50427 0.2215 0.91103 0.0
Eu480 Eu 0.0989 0.87317 0.7363 0.0
C481 C 0.74248 0.81399 0.76898 0.0
N482 N 0.77039 0.8592 0.77019 0.0
C483 C 0.65246 0.88547 0.73942 0.0
C484 C 0.66896 0.80262 0.75188 0.0
C485 C 0.72644 0.89491 0.75607 0.0
C486 C 0.62379 0.83908 0.73711 0.0
C487 C 0.7615 0.73162 0.78319 0.0
C488 C 0.78867 0.77896 0.78431 0.0
C489 C 0.68946 0.71996 0.7654 0.0
C490 C 0.64315 0.75539 0.74991 0.0
Eu491 Eu 0.89616 0.87259 0.7984 0.0
N492 N 0.85875 0.79127 0.80108 0.0
C493 C 0.80637 0.69753 0.80081 0.0
C494 C 0.897 0.75892 0.82136 0.0
C495 C 0.87332 0.71146 0.82066 0.0
H496 H 0.74819 0.93071 0.75802 0.0
H497 H 0.90554 0.68586 0.83614 0.0
H498 H 0.23335 0.79606 0.76773 0.0
H499 H 0.13248 0.0644 0.71755 0.0
H500 H 0.9435 0.76956 0.83927 0.0
H501 H 0.78765 0.6608 0.80056 0.0
H502 H 0.06254 0.98814 0.71557 0.0
H503 H 0.61767 0.91396 0.72834 0.0
H504 H 0.66825 0.68373 0.76401 0.0
H505 H 0.58721 0.74592 0.73664 0.0
H506 H 0.37395 0.79516 0.79017 0.0
H507 H 0.56669 0.83183 0.72401 0.0
H508 H 0.27407 0.06968 0.7389 0.0
N509 N 0.23208 0.86968 0.75944 0.0
C510 C 0.27577 0.9106 0.75963 0.0
C511 C 0.34685 0.82799 0.78207 0.0
C512 C 0.35695 0.91177 0.77172 0.0
C513 C 0.26658 0.82863 0.77007 0.0
C514 C 0.39226 0.86978 0.78299 0.0
N515 N 0.15994 0.94963 0.73731 0.0
C516 C 0.12272 0.98942 0.72578 0.0
C517 C 0.28217 0.99491 0.74924 0.0
C518 C 0.23881 0.95166 0.74827 0.0
C519 C 0.24299 0.03584 0.73839 0.0
C520 C 0.16302 0.03302 0.72649 0.0
H521 H 0.45459 0.8692 0.79221 0.0
H522 H 0.46265 0.95616 0.78144 0.0
H523 H 0.39695 0.02901 0.76204 0.0
O524 O 0.10749 0.88034 0.67855 0.0
O525 O 0.11048 0.90979 0.78883 0.0
O526 O 0.98039 0.93603 0.80054 0.0
O527 O 0.18324 0.83077 0.70706 0.0
O528 O 0.98816 0.91251 0.71614 0.0
O529 O 0.91039 0.93704 0.76375 0.0
O530 O 0.87393 0.86648 0.85508 0.0
O531 O 0.888 0.84643 0.74282 0.0
O532 O 0.01115 0.81084 0.73621 0.0
O533 O 0.80131 0.91395 0.82344 0.0
O534 O 0.01335 0.84088 0.81986 0.0
O535 O 0.07399 0.81041 0.77079 0.0
C536 C 0.05958 0.93772 0.80535 0.0
C537 C 0.20594 0.83166 0.64525 0.0
C538 C 0.21888 0.82522 0.5821 0.0
C539 C 0.28342 0.79359 0.58646 0.0
C540 C 0.27128 0.80017 0.64873 0.0
C541 C 0.30966 0.78143 0.61955 0.0
C542 C 0.1805 0.84478 0.61163 0.0
C543 C 0.9326 0.93985 0.73066 0.0
C544 C 0.1641 0.84828 0.67711 0.0
C545 C 0.40028 0.95465 0.77229 0.0
C546 C 0.36291 0.99611 0.7612 0.0
C547 C 0.93346 0.81381 0.72887 0.0
C548 C 0.7666 0.91156 0.88487 0.0
C549 C 0.73282 0.90709 0.94691 0.0
C550 C 0.66834 0.93848 0.9414 0.0
C551 C 0.70179 0.94302 0.88028 0.0
C552 C 0.78259 0.89398 0.9185 0.0
C553 C 0.6533 0.95639 0.90837 0.0
C554 C 0.06486 0.81183 0.80474 0.0
C555 C 0.81474 0.89674 0.85413 0.0
H556 H 0.3142 0.77857 0.56409 0.0
H557 H 0.2927 0.78956 0.67414 0.0
H558 H 0.35968 0.75718 0.62262 0.0
H559 H 0.1303 0.86895 0.60842 0.0
H560 H 0.62995 0.94964 0.96284 0.0
H561 H 0.68801 0.95717 0.85484 0.0
H562 H 0.83224 0.86965 0.92248 0.0
H563 H 0.60361 0.98066 0.9045 0.0
Eu564 Eu 0.40213 0.62191 0.2308 0.0
C565 C 0.76504 0.66637 0.26889 0.0
N566 N 0.72702 0.62417 0.27387 0.0
C567 C 0.84553 0.58398 0.25278 0.0
C568 C 0.84375 0.66906 0.25397 0.0
C569 C 0.76792 0.58328 0.26804 0.0
C570 C 0.88294 0.62711 0.24498 0.0
C571 C 0.7686 0.75062 0.27963 0.0
C572 C 0.72831 0.70661 0.28167 0.0
C573 C 0.84473 0.75391 0.26286 0.0
C574 C 0.88231 0.71318 0.25009 0.0
Eu575 Eu 0.59409 0.62606 0.29833 0.0
N576 N 0.65493 0.70216 0.29798 0.0
C577 C 0.7325 0.78963 0.29565 0.0
C578 C 0.62241 0.73924 0.31582 0.0
C579 C 0.65981 0.7837 0.31435 0.0
H580 H 0.74179 0.55026 0.2764 0.0
H581 H 0.63276 0.81331 0.32774 0.0
H582 H 0.26062 0.69688 0.25934 0.0
H583 H 0.37865 0.43075 0.20932 0.0
H584 H 0.56689 0.7345 0.3306 0.0
H585 H 0.76152 0.82407 0.29467 0.0
H586 H 0.44317 0.50872 0.20621 0.0
H587 H 0.87712 0.55132 0.24776 0.0
H588 H 0.87627 0.78751 0.26068 0.0
H589 H 0.94243 0.71596 0.2384 0.0
H590 H 0.12073 0.69481 0.28318 0.0
H591 H 0.94355 0.62762 0.23362 0.0
H592 H 0.23971 0.42204 0.2338 0.0
N593 N 0.26853 0.62283 0.25366 0.0
C594 C 0.22806 0.58088 0.25475 0.0
C595 C 0.15053 0.66241 0.27574 0.0
C596 C 0.14753 0.57795 0.2678 0.0
C597 C 0.23035 0.66347 0.26282 0.0
C598 C 0.10916 0.61938 0.2786 0.0
N599 N 0.3449 0.5446 0.2302 0.0
C600 C 0.38393 0.50585 0.21766 0.0
C601 C 0.22728 0.49646 0.24467 0.0
C602 C 0.26739 0.54066 0.24294 0.0
C603 C 0.26835 0.45656 0.2328 0.0
C604 C 0.34681 0.46134 0.21906 0.0
H605 H 0.04731 0.61862 0.28866 0.0
H606 H 0.04602 0.53111 0.27956 0.0
H607 H 0.11614 0.45968 0.25969 0.0
O608 O 0.35259 0.60957 0.17874 0.0
O609 O 0.38918 0.58846 0.28445 0.0
O610 O 0.51756 0.55996 0.29285 0.0
O611 O 0.34751 0.67919 0.20153 0.0
O612 O 0.51471 0.58335 0.21202 0.0
O613 O 0.59725 0.56466 0.25947 0.0
O614 O 0.57061 0.62862 0.35443 0.0
O615 O 0.56959 0.68611 0.26135 0.0
O616 O 0.52611 0.6488 0.21238 0.0
O617 O 0.68218 0.59855 0.33538 0.0
O618 O 0.47277 0.65623 0.31565 0.0
O619 O 0.41272 0.68602 0.26602 0.0
C620 C 0.43897 0.55844 0.29916 0.0
C621 C 0.37471 0.67424 0.14114 0.0
C622 C 0.38589 0.6756 0.07774 0.0
C623 C 0.45074 0.7081 0.08036 0.0
C624 C 0.43884 0.70739 0.14302 0.0
C625 C 0.47653 0.7241 0.11281 0.0
C626 C 0.3477 0.65886 0.1083 0.0
C627 C 0.57397 0.55927 0.22668 0.0
C628 C 0.33882 0.65414 0.17328 0.0
C629 C 0.10774 0.53401 0.26952 0.0
C630 C 0.14763 0.49337 0.25814 0.0
C631 C 0.56832 0.68228 0.22753 0.0
C632 C 0.6883 0.64068 0.38811 0.0
C633 C 0.71532 0.66269 0.44829 0.0
C634 C 0.77172 0.69682 0.43654 0.0
C635 C 0.74597 0.67438 0.37696 0.0
C636 C 0.67361 0.63463 0.42384 0.0
C637 C 0.78706 0.70242 0.40107 0.0
C638 C 0.4269 0.68734 0.29979 0.0
C639 C 0.64204 0.61264 0.36263 0.0
H640 H 0.48059 0.72173 0.05721 0.0
H641 H 0.4602 0.7203 0.16785 0.0
H642 H 0.52594 0.74954 0.11455 0.0
H643 H 0.29829 0.63333 0.10655 0.0
H644 H 0.80523 0.71851 0.45485 0.0
H645 H 0.75954 0.67899 0.34966 0.0
H646 H 0.62929 0.60856 0.43257 0.0
H647 H 0.83125 0.7284 0.39225 0.0
loop_
_geom_bond_atom_site_label_1
_geom_bond_atom_site_label_2
_geom_bond_distance
_geom_bond_site_symmetry_2
_ccdc_geom_bond_type
C0 C1 1.386 . S
C0 C2 1.397 . S
C0 H24 0.931 . S
C1 C0 1.386 . S
C1 C5 1.397 . S
C2 C0 1.397 . S
C2 C3 1.384 . S
C2 H25 0.930 . S
C3 C2 1.384 . S
C3 C4 1.377 . S
C3 C6 1.481 . S
C4 C3 1.377 . S
C4 C5 1.389 . S
C4 H26 0.929 . S
C5 C1 1.397 . S
C5 C4 1.389 . S
C5 H27 0.931 . S
C6 C3 1.481 . S
C6 C7 1.387 . S
C6 C11 1.390 . S
C7 C6 1.387 . S
C7 C8 1.401 . S
C7 H28 0.930 . S
C8 C7 1.401 . S
C8 C9 1.376 . S
C8 C17 1.511 . S
C9 C8 1.376 . S
C9 C10 1.392 . S
C9 H30 0.931 . S
C10 C9 1.392 . S
C10 C11 1.361 . S
C10 C12 1.500 . S
C11 C6 1.390 . S
C11 C10 1.361 . S
C11 H29 0.931 . S
C12 C10 1.500 . S
C12 C13 1.371 . S
C12 C14 1.365 . S
C13 C12 1.371 . S
C13 C23 1.386 . S
C13 H31 0.931 . S
C14 C12 1.365 . S
C14 C15 1.409 . S
C14 H32 0.929 . S
C15 C14 1.409 . S
C15 C16 1.380 . S
C15 H33 0.930 . S
C16 C15 1.380 . S
C16 C23 1.357 . S
C17 C8 1.511 . S
C17 C18 1.341 . S
C17 C19 1.371 . S
C18 C17 1.341 . S
C18 C22 1.394 . S
C18 H34 0.930 . S
C19 C17 1.371 . S
C19 C20 1.392 . S
C19 H35 0.931 . S
C20 C19 1.392 . S
C20 C21 1.331 . S
C20 H38 0.932 . S
C21 C20 1.331 . S
C21 C22 1.336 . S
C22 C18 1.394 . S
C22 C21 1.336 . S
C22 H37 0.929 . S
C23 C13 1.386 . S
C23 C16 1.357 . S
C23 H36 0.928 . S
H24 C0 0.931 . S
H25 C2 0.930 . S
H26 C4 0.929 . S
H27 C5 0.931 . S
H28 C7 0.930 . S
H29 C11 0.931 . S
H30 C9 0.931 . S
H31 C13 0.931 . S
H32 C14 0.929 . S
H33 C15 0.930 . S
H34 C18 0.930 . S
H35 C19 0.931 . S
H36 C23 0.928 . S
H37 C22 0.929 . S
H38 C20 0.932 . S
C39 C40 1.386 . S
C39 C41 1.397 1_565 S
C39 H63 0.931 . S
C40 C39 1.386 . S
C40 C44 1.397 . S
C41 C39 1.397 1_545 S
C41 C42 1.384 . S
C41 H64 0.930 . S
C42 C41 1.384 . S
C42 C43 1.377 . S
C42 C45 1.481 . S
C43 C42 1.377 . S
C43 C44 1.389 1_545 S
C43 H65 0.929 . S
C44 C40 1.397 . S
C44 C43 1.389 1_565 S
C44 H66 0.931 . S
C45 C42 1.481 . S
C45 C46 1.387 . S
C45 C50 1.390 . S
C46 C45 1.387 . S
C46 C47 1.401 . S
C46 H67 0.930 . S
C47 C46 1.401 . S
C47 C48 1.376 . S
C47 C56 1.511 . S
C48 C47 1.376 . S
C48 C49 1.392 . S
C48 H69 0.931 . S
C49 C48 1.392 . S
C49 C50 1.361 . S
C49 C51 1.500 . S
C50 C45 1.390 . S
C50 C49 1.361 . S
C50 H68 0.931 . S
C51 C49 1.500 . S
C51 C52 1.371 . S
C51 C53 1.365 . S
C52 C51 1.371 . S
C52 C62 1.386 1_556 S
C52 H70 0.931 . S
C53 C51 1.365 . S
C53 C54 1.409 1_556 S
C53 H71 0.929 . S
C54 C53 1.409 1_554 S
C54 C55 1.380 . S
C54 H72 0.930 . S
C55 C54 1.380 . S
C55 C62 1.357 . S
C56 C47 1.511 . S
C56 C57 1.341 . S
C56 C58 1.371 . S
C57 C56 1.341 . S
C57 C61 1.394 . S
C57 H73 0.930 . S
C58 C56 1.371 . S
C58 C59 1.392 . S
C58 H74 0.931 . S
C59 C58 1.392 . S
C59 C60 1.331 . S
C59 H77 0.932 . S
C60 C59 1.331 . S
C60 C61 1.336 . S
C61 C57 1.394 . S
C61 C60 1.336 . S
C61 H76 0.929 . S
C62 C52 1.386 1_554 S
C62 C55 1.357 . S
C62 H75 0.928 . S
H63 C39 0.931 . S
H64 C41 0.930 . S
H65 C43 0.929 . S
H66 C44 0.931 . S
H67 C46 0.930 . S
H68 C50 0.931 . S
H69 C48 0.931 . S
H70 C52 0.931 . S
H71 C53 0.929 . S
H72 C54 0.930 . S
H73 C57 0.930 . S
H74 C58 0.931 . S
H75 C62 0.928 . S
H76 C61 0.929 . S
H77 C59 0.932 . S
C78 C79 1.386 . S
C78 C80 1.397 1_565 S
C78 H102 0.931 . S
C79 C78 1.386 . S
C79 C83 1.397 . S
C80 C78 1.397 1_545 S
C80 C81 1.384 . S
C80 H103 0.930 . S
C81 C80 1.384 . S
C81 C82 1.377 . S
C81 C84 1.481 . S
C82 C81 1.377 . S
C82 C83 1.389 1_545 S
C82 H104 0.929 . S
C83 C79 1.397 . S
C83 C82 1.389 1_565 S
C83 H105 0.931 . S
C84 C81 1.481 . S
C84 C85 1.387 . S
C84 C89 1.390 . S
C85 C84 1.387 . S
C85 C86 1.401 . S
C85 H106 0.930 . S
C86 C85 1.401 . S
C86 C87 1.376 . S
C86 C95 1.511 . S
C87 C86 1.376 . S
C87 C88 1.392 . S
C87 H108 0.931 . S
C88 C87 1.392 . S
C88 C89 1.361 . S
C88 C90 1.500 . S
C89 C84 1.390 . S
C89 C88 1.361 . S
C89 H107 0.931 . S
C90 C88 1.500 . S
C90 C91 1.371 . S
C90 C92 1.365 . S
C91 C90 1.371 . S
C91 C101 1.386 . S
C91 H109 0.931 . S
C92 C90 1.365 . S
C92 C93 1.409 . S
C92 H110 0.929 . S
C93 C92 1.409 . S
C93 C94 1.380 . S
C93 H111 0.930 . S
C94 C93 1.380 . S
C94 C101 1.357 . S
C95 C86 1.511 . S
C95 C96 1.341 . S
C95 C97 1.371 . S
C96 C95 1.341 . S
C96 C100 1.394 . S
C96 H112 0.930 . S
C97 C95 1.371 . S
C97 C98 1.392 . S
C97 H113 0.931 . S
C98 C97 1.392 . S
C98 C99 1.331 . S
C98 H116 0.932 . S
C99 C98 1.331 . S
C99 C100 1.336 . S
C100 C96 1.394 . S
C100 C99 1.336 . S
C100 H115 0.929 . S
C101 C91 1.386 . S
C101 C94 1.357 . S
C101 H114 0.928 . S
H102 C78 0.931 . S
H103 C80 0.930 . S
H104 C82 0.929 . S
H105 C83 0.931 . S
H106 C85 0.930 . S
H107 C89 0.931 . S
H108 C87 0.931 . S
H109 C91 0.931 . S
H110 C92 0.929 . S
H111 C93 0.930 . S
H112 C96 0.930 . S
H113 C97 0.931 . S
H114 C101 0.928 . S
H115 C100 0.929 . S
H116 C98 0.932 . S
C117 C118 1.386 . S
C117 C119 1.397 . S
C117 H141 0.931 . S
C118 C117 1.386 . S
C118 C122 1.397 . S
C119 C117 1.397 . S
C119 C120 1.384 . S
C119 H142 0.930 . S
C120 C119 1.384 . S
C120 C121 1.377 . S
C120 C123 1.481 . S
C121 C120 1.377 . S
C121 C122 1.389 . S
C121 H143 0.929 . S
C122 C118 1.397 . S
C122 C121 1.389 . S
C122 H144 0.931 . S
C123 C120 1.481 . S
C123 C124 1.387 . S
C123 C128 1.390 . S
C124 C123 1.387 . S
C124 C125 1.401 . S
C124 H145 0.930 . S
C125 C124 1.401 . S
C125 C126 1.376 . S
C125 C134 1.511 . S
C126 C125 1.376 . S
C126 C127 1.392 . S
C126 H147 0.931 . S
C127 C126 1.392 . S
C127 C128 1.361 . S
C127 C129 1.500 . S
C128 C123 1.390 . S
C128 C127 1.361 . S
C128 H146 0.931 . S
C129 C127 1.500 . S
C129 C130 1.371 . S
C129 C131 1.365 . S
C130 C129 1.371 . S
C130 C140 1.386 1_554 S
C130 H148 0.931 . S
C131 C129 1.365 . S
C131 C132 1.409 1_554 S
C131 H149 0.929 . S
C132 C131 1.409 1_556 S
C132 C133 1.380 . S
C132 H150 0.930 . S
C133 C132 1.380 . S
C133 C140 1.357 . S
C134 C125 1.511 . S
C134 C135 1.341 . S
C134 C136 1.371 . S
C135 C134 1.341 . S
C135 C139 1.394 . S
C135 H151 0.930 . S
C136 C134 1.371 . S
C136 C137 1.392 . S
C136 H152 0.931 . S
C137 C136 1.392 . S
C137 C138 1.331 . S
C137 H155 0.932 . S
C138 C137 1.331 . S
C138 C139 1.336 . S
C139 C135 1.394 . S
C139 C138 1.336 . S
C139 H154 0.929 . S
C140 C130 1.386 1_556 S
C140 C133 1.357 . S
C140 H153 0.928 . S
H141 C117 0.931 . S
H142 C119 0.930 . S
H143 C121 0.929 . S
H144 C122 0.931 . S
H145 C124 0.930 . S
H146 C128 0.931 . S
H147 C126 0.931 . S
H148 C130 0.931 . S
H149 C131 0.929 . S
H150 C132 0.930 . S
H151 C135 0.930 . S
H152 C136 0.931 . S
H153 C140 0.928 . S
H154 C139 0.929 . S
H155 C137 0.932 . S
C156 C157 1.386 . S
C156 C158 1.397 . S
C156 H180 0.931 . S
C157 C156 1.386 . S
C157 C161 1.397 . S
C158 C156 1.397 . S
C158 C159 1.384 . S
C158 H181 0.930 . S
C159 C158 1.384 . S
C159 C160 1.377 . S
C159 C162 1.481 . S
C160 C159 1.377 . S
C160 C161 1.389 . S
C160 H182 0.929 . S
C161 C157 1.397 . S
C161 C160 1.389 . S
C161 H183 0.931 . S
C162 C159 1.481 . S
C162 C163 1.387 . S
C162 C167 1.390 . S
C163 C162 1.387 . S
C163 C164 1.401 . S
C163 H184 0.930 . S
C164 C163 1.401 . S
C164 C165 1.376 . S
C164 C173 1.511 . S
C165 C164 1.376 . S
C165 C166 1.392 . S
C165 H186 0.931 . S
C166 C165 1.392 . S
C166 C167 1.361 . S
C166 C168 1.500 . S
C167 C162 1.390 . S
C167 C166 1.361 . S
C167 H185 0.931 . S
C168 C166 1.500 . S
C168 C169 1.371 . S
C168 C170 1.365 . S
C169 C168 1.371 . S
C169 C179 1.386 . S
C169 H187 0.931 . S
C170 C168 1.365 . S
C170 C171 1.409 . S
C170 H188 0.929 . S
C171 C170 1.409 . S
C171 C172 1.380 . S
C171 H189 0.930 . S
C172 C171 1.380 . S
C172 C179 1.357 . S
C173 C164 1.511 . S
C173 C174 1.341 . S
C173 C175 1.371 . S
C174 C173 1.341 . S
C174 C178 1.394 . S
C174 H190 0.930 . S
C175 C173 1.371 . S
C175 C176 1.392 . S
C175 H191 0.931 . S
C176 C175 1.392 . S
C176 C177 1.331 . S
C176 H194 0.932 . S
C177 C176 1.331 . S
C177 C178 1.336 . S
C178 C174 1.394 . S
C178 C177 1.336 . S
C178 H193 0.929 . S
C179 C169 1.386 . S
C179 C172 1.357 . S
C179 H192 0.928 . S
H180 C156 0.931 . S
H181 C158 0.930 . S
H182 C160 0.929 . S
H183 C161 0.931 . S
H184 C163 0.930 . S
H185 C167 0.931 . S
H186 C165 0.931 . S
H187 C169 0.931 . S
H188 C170 0.929 . S
H189 C171 0.930 . S
H190 C174 0.930 . S
H191 C175 0.931 . S
H192 C179 0.928 . S
H193 C178 0.929 . S
H194 C176 0.932 . S
C195 C196 1.386 . S
C195 C197 1.397 1_556 S
C195 H219 0.931 . S
C196 C195 1.386 . S
C196 C200 1.397 . S
C197 C195 1.397 1_554 S
C197 C198 1.384 . S
C197 H220 0.930 . S
C198 C197 1.384 . S
C198 C199 1.377 . S
C198 C201 1.481 . S
C199 C198 1.377 . S
C199 C200 1.389 1_554 S
C199 H221 0.929 . S
C200 C196 1.397 . S
C200 C199 1.389 1_556 S
C200 H222 0.931 . S
C201 C198 1.481 . S
C201 C202 1.387 . S
C201 C206 1.390 . S
C202 C201 1.387 . S
C202 C203 1.401 . S
C202 H223 0.930 . S
C203 C202 1.401 . S
C203 C204 1.376 . S
C203 C212 1.511 . S
C204 C203 1.376 . S
C204 C205 1.392 . S
C204 H225 0.931 . S
C205 C204 1.392 . S
C205 C206 1.361 . S
C205 C207 1.500 . S
C206 C201 1.390 . S
C206 C205 1.361 . S
C206 H224 0.931 . S
C207 C205 1.500 . S
C207 C208 1.371 . S
C207 C209 1.365 . S
C208 C207 1.371 . S
C208 C218 1.386 1_565 S
C208 H226 0.931 . S
C209 C207 1.365 . S
C209 C210 1.409 1_565 S
C209 H227 0.929 . S
C210 C209 1.409 1_545 S
C210 C211 1.380 . S
C210 H228 0.930 . S
C211 C210 1.380 . S
C211 C218 1.357 . S
C212 C203 1.511 . S
C212 C213 1.341 . S
C212 C214 1.371 . S
C213 C212 1.341 . S
C213 C217 1.394 . S
C213 H229 0.930 . S
C214 C212 1.371 . S
C214 C215 1.392 . S
C214 H230 0.931 . S
C215 C214 1.392 . S
C215 C216 1.331 . S
C215 H233 0.932 . S
C216 C215 1.331 . S
C216 C217 1.336 . S
C217 C213 1.394 . S
C217 C216 1.336 . S
C217 H232 0.929 . S
C218 C208 1.386 1_545 S
C218 C211 1.357 . S
C218 H231 0.928 . S
H219 C195 0.931 . S
H220 C197 0.930 . S
H221 C199 0.929 . S
H222 C200 0.931 . S
H223 C202 0.930 . S
H224 C206 0.931 . S
H225 C204 0.931 . S
H226 C208 0.931 . S
H227 C209 0.929 . S
H228 C210 0.930 . S
H229 C213 0.930 . S
H230 C214 0.931 . S
H231 C218 0.928 . S
H232 C217 0.929 . S
H233 C215 0.932 . S
C234 C235 1.386 1_565 S
C234 C236 1.397 . S
C234 H258 0.931 . S
C235 C234 1.386 1_545 S
C235 C239 1.397 . S
C236 C234 1.397 . S
C236 C237 1.384 . S
C236 H259 0.930 . S
C237 C236 1.384 . S
C237 C238 1.377 1_565 S
C237 C240 1.481 . S
C238 C237 1.377 1_545 S
C238 C239 1.389 . S
C238 H260 0.929 . S
C239 C235 1.397 . S
C239 C238 1.389 . S
C239 H261 0.931 . S
C240 C237 1.481 . S
C240 C241 1.387 . S
C240 C245 1.390 . S
C241 C240 1.387 . S
C241 C242 1.401 . S
C241 H262 0.930 . S
C242 C241 1.401 . S
C242 C243 1.376 . S
C242 C251 1.511 . S
C243 C242 1.376 . S
C243 C244 1.392 . S
C243 H264 0.931 . S
C244 C243 1.392 . S
C244 C245 1.361 . S
C244 C246 1.500 . S
C245 C240 1.390 . S
C245 C244 1.361 . S
C245 H263 0.931 . S
C246 C244 1.500 . S
C246 C247 1.371 . S
C246 C248 1.365 . S
C247 C246 1.371 . S
C247 C257 1.386 . S
C247 H265 0.931 . S
C248 C246 1.365 . S
C248 C249 1.409 . S
C248 H266 0.929 . S
C249 C248 1.409 . S
C249 C250 1.380 . S
C249 H267 0.930 . S
C250 C249 1.380 . S
C250 C257 1.357 . S
C251 C242 1.511 . S
C251 C252 1.341 . S
C251 C253 1.371 . S
C252 C251 1.341 . S
C252 C256 1.394 . S
C252 H268 0.930 . S
C253 C251 1.371 . S
C253 C254 1.392 . S
C253 H269 0.931 . S
C254 C253 1.392 . S
C254 C255 1.331 . S
C254 H272 0.932 . S
C255 C254 1.331 . S
C255 C256 1.336 . S
C256 C252 1.394 . S
C256 C255 1.336 . S
C256 H271 0.929 . S
C257 C247 1.386 . S
C257 C250 1.357 . S
C257 H270 0.928 . S
H258 C234 0.931 . S
H259 C236 0.930 . S
H260 C238 0.929 . S
H261 C239 0.931 . S
H262 C241 0.930 . S
H263 C245 0.931 . S
H264 C243 0.931 . S
H265 C247 0.931 . S
H266 C248 0.929 . S
H267 C249 0.930 . S
H268 C252 0.930 . S
H269 C253 0.931 . S
H270 C257 0.928 . S
H271 C256 0.929 . S
H272 C254 0.932 . S
C273 C274 1.386 . S
C273 C275 1.397 1_554 S
C273 H297 0.931 . S
C274 C273 1.386 . S
C274 C278 1.401 . S
C275 C273 1.397 1_556 S
C275 C276 1.384 . S
C275 H298 0.930 . S
C276 C275 1.384 . S
C276 C277 1.377 . S
C276 C279 1.481 . S
C277 C276 1.377 . S
C277 C278 1.384 1_556 S
C277 H299 0.929 . S
C278 C274 1.401 . S
C278 C277 1.384 1_554 S
C278 H300 0.932 . S
C279 C276 1.481 . S
C279 C280 1.387 . S
C279 C284 1.390 . S
C280 C279 1.387 . S
C280 C281 1.401 . S
C280 H301 0.930 . S
C281 C280 1.401 . S
C281 C282 1.376 . S
C281 C290 1.511 . S
C282 C281 1.376 . S
C282 C283 1.392 . S
C282 H303 0.931 . S
C283 C282 1.392 . S
C283 C284 1.361 . S
C283 C285 1.500 . S
C284 C279 1.390 . S
C284 C283 1.361 . S
C284 H302 0.931 . S
C285 C283 1.500 . S
C285 C286 1.371 . S
C285 C287 1.365 . S
C286 C285 1.371 . S
C286 C296 1.386 . S
C286 H304 0.931 . S
C287 C285 1.365 . S
C287 C288 1.409 . S
C287 H305 0.929 . S
C288 C287 1.409 . S
C288 C289 1.380 . S
C288 H306 0.930 . S
C289 C288 1.380 . S
C289 C296 1.357 . S
C290 C281 1.511 . S
C290 C291 1.341 . S
C290 C292 1.371 . S
C291 C290 1.341 . S
C291 C295 1.394 . S
C291 H307 0.930 . S
C292 C290 1.371 . S
C292 C293 1.392 . S
C292 H308 0.931 . S
C293 C292 1.392 . S
C293 C294 1.331 . S
C293 H311 0.932 . S
C294 C293 1.331 . S
C294 C295 1.336 . S
C295 C291 1.394 . S
C295 C294 1.336 . S
C295 H310 0.929 . S
C296 C286 1.386 . S
C296 C289 1.357 . S
C296 H309 0.928 . S
H297 C273 0.931 . S
H298 C275 0.930 . S
H299 C277 0.929 . S
H300 C278 0.932 . S
H301 C280 0.930 . S
H302 C284 0.931 . S
H303 C282 0.931 . S
H304 C286 0.931 . S
H305 C287 0.929 . S
H306 C288 0.930 . S
H307 C291 0.930 . S
H308 C292 0.931 . S
H309 C296 0.928 . S
H310 C295 0.929 . S
H311 C293 0.932 . S
Eu312 N341 2.600 . S
Eu312 N347 2.562 . S
Eu312 O356 2.462 . S
Eu312 O357 2.373 . S
Eu312 O359 2.432 . S
Eu312 O360 2.291 1_455 S
Eu312 O364 2.335 1_455 S
Eu312 O367 2.372 . S
Eu312 C376 2.787 . S
C313 N314 1.365 . S
C313 C316 1.405 . S
C313 C320 1.448 . S
N314 C313 1.365 . S
N314 C317 1.319 . S
N314 Eu323 2.600 . S
C315 C317 1.397 . S
C315 C318 1.367 . S
C315 H335 0.931 . S
C316 C313 1.405 . S
C316 C318 1.403 . S
C316 C322 1.439 . S
C317 N314 1.319 . S
C317 C315 1.397 . S
C317 H328 0.930 . S
C318 C315 1.367 . S
C318 C316 1.403 . S
C318 H339 0.929 . S
C319 C320 1.430 . S
C319 C321 1.387 . S
C319 C325 1.404 1_545 S
C320 C313 1.448 . S
C320 C319 1.430 . S
C320 N324 1.351 . S
C321 C319 1.387 . S
C321 C322 1.374 . S
C321 H336 0.931 1_545 S
C322 C316 1.439 . S
C322 C321 1.374 . S
C322 H337 0.931 . S
Eu323 N314 2.600 . S
Eu323 N324 2.562 . S
Eu323 O358 2.335 1_655 S
Eu323 O361 2.372 . S
Eu323 O362 2.462 . S
Eu323 O363 2.373 . S
Eu323 O365 2.432 . S
Eu323 O366 2.291 1_655 S
Eu323 C387 2.787 . S
N324 C320 1.351 . S
N324 Eu323 2.562 . S
N324 C326 1.325 . S
C325 C319 1.404 1_565 S
C325 C327 1.366 . S
C325 H333 0.930 . S
C326 N324 1.325 . S
C326 C327 1.416 1_545 S
C326 H332 0.929 . S
C327 C325 1.366 . S
C327 C326 1.416 1_565 S
C327 H329 0.930 . S
H328 C317 0.930 . S
H329 C327 0.930 . S
H330 C345 0.930 . S
H331 C352 0.930 . S
H332 C326 0.929 . S
H333 C325 0.930 . S
H334 C348 0.929 . S
H335 C315 0.931 . S
H336 C321 0.931 1_565 S
H337 C322 0.931 . S
H338 C343 0.931 . S
H339 C318 0.929 . S
H340 C351 0.930 . S
N341 Eu312 2.600 . S
N341 C342 1.365 . S
N341 C345 1.319 . S
C342 N341 1.365 . S
C342 C344 1.405 . S
C342 C350 1.448 . S
C343 H338 0.931 . S
C343 C345 1.397 . S
C343 C346 1.367 . S
C344 C342 1.405 . S
C344 C346 1.403 . S
C344 C377 1.439 . S
C345 H330 0.930 . S
C345 N341 1.319 . S
C345 C343 1.397 . S
C346 C343 1.367 . S
C346 C344 1.403 . S
C346 H353 0.929 . S
N347 Eu312 2.562 . S
N347 C348 1.325 . S
N347 C350 1.351 . S
C348 H334 0.929 . S
C348 N347 1.325 . S
C348 C352 1.416 . S
C349 C350 1.430 . S
C349 C351 1.404 . S
C349 C378 1.387 . S
C350 C342 1.448 . S
C350 N347 1.351 . S
C350 C349 1.430 . S
C351 H340 0.930 . S
C351 C349 1.404 . S
C351 C352 1.366 . S
C352 H331 0.930 . S
C352 C348 1.416 . S
C352 C351 1.366 . S
H353 C346 0.929 . S
H354 C377 0.931 . S
H355 C378 0.931 . S
O356 Eu312 2.462 . S
O356 C376 1.252 . S
O357 Eu312 2.373 . S
O357 C368 1.249 . S
O358 Eu323 2.335 1_455 S
O358 C368 1.264 . S
O359 Eu312 2.432 . S
O359 C376 1.268 . S
O360 Eu312 2.291 1_655 S
O360 C375 1.255 . S
O361 Eu323 2.372 . S
O361 C375 1.257 . S
O362 Eu323 2.462 . S
O362 C387 1.252 . S
O363 Eu323 2.373 . S
O363 C379 1.249 . S
O364 Eu312 2.335 1_655 S
O364 C379 1.264 . S
O365 Eu323 2.432 . S
O365 C387 1.268 . S
O366 Eu323 2.291 1_455 S
O366 C386 1.255 . S
O367 Eu312 2.372 . S
O367 C386 1.257 . S
C368 O357 1.249 . S
C368 O358 1.264 . S
C369 C372 1.382 . S
C369 C374 1.390 . S
C369 C376 1.506 . S
C370 C371 1.398 . S
C370 C374 1.392 . S
C371 C370 1.398 . S
C371 C373 1.372 . S
C371 H388 0.931 . S
C372 C369 1.382 . S
C372 C373 1.390 . S
C372 H389 0.931 . S
C373 C371 1.372 . S
C373 C372 1.390 . S
C373 H390 0.929 . S
C374 C369 1.390 . S
C374 C370 1.392 . S
C374 H391 0.930 . S
C375 O360 1.255 . S
C375 O361 1.257 . S
C376 Eu312 2.787 . S
C376 O356 1.252 . S
C376 O359 1.268 . S
C376 C369 1.506 . S
C377 C344 1.439 . S
C377 H354 0.931 . S
C377 C378 1.374 . S
C378 C349 1.387 . S
C378 H355 0.931 . S
C378 C377 1.374 . S
C379 O363 1.249 . S
C379 O364 1.264 . S
C380 C383 1.382 . S
C380 C384 1.390 . S
C380 C387 1.506 . S
C381 C382 1.398 . S
C381 C384 1.392 . S
C382 C381 1.398 . S
C382 C385 1.372 . S
C382 H392 0.931 . S
C383 C380 1.382 . S
C383 C385 1.390 . S
C383 H393 0.931 . S
C384 C380 1.390 . S
C384 C381 1.392 . S
C384 H394 0.930 . S
C385 C382 1.372 . S
C385 C383 1.390 . S
C385 H395 0.929 . S
C386 O366 1.255 . S
C386 O367 1.257 . S
C387 Eu323 2.787 . S
C387 O362 1.252 . S
C387 O365 1.268 . S
C387 C380 1.506 . S
H388 C371 0.931 . S
H389 C372 0.931 . S
H390 C373 0.929 . S
H391 C374 0.930 . S
H392 C382 0.931 . S
H393 C383 0.931 . S
H394 C384 0.930 . S
H395 C385 0.929 . S
Eu396 N425 2.600 . S
Eu396 N431 2.562 . S
Eu396 O440 2.462 . S
Eu396 O441 2.373 . S
Eu396 O443 2.432 . S
Eu396 O444 2.291 . S
Eu396 O448 2.335 . S
Eu396 O451 2.372 . S
Eu396 C460 2.787 . S
C397 N398 1.365 . S
C397 C400 1.405 . S
C397 C404 1.448 . S
N398 C397 1.365 . S
N398 C401 1.319 . S
N398 Eu407 2.600 . S
C399 C401 1.397 . S
C399 C402 1.367 . S
C399 H419 0.931 . S
C400 C397 1.405 . S
C400 C402 1.403 . S
C400 C406 1.439 . S
C401 N398 1.319 . S
C401 C399 1.397 . S
C401 H412 0.930 . S
C402 C399 1.367 . S
C402 C400 1.403 . S
C402 H423 0.929 . S
C403 C404 1.430 . S
C403 C405 1.387 . S
C403 C409 1.404 . S
C404 C397 1.448 . S
C404 C403 1.430 . S
C404 N408 1.351 . S
C405 C403 1.387 . S
C405 C406 1.374 . S
C405 H420 0.931 . S
C406 C400 1.439 . S
C406 C405 1.374 . S
C406 H421 0.931 . S
Eu407 N398 2.600 . S
Eu407 N408 2.562 . S
Eu407 O442 2.335 . S
Eu407 O445 2.372 . S
Eu407 O446 2.462 . S
Eu407 O447 2.373 . S
Eu407 O449 2.432 . S
Eu407 O450 2.291 . S
Eu407 C471 2.787 . S
N408 C404 1.351 . S
N408 Eu407 2.562 . S
N408 C410 1.325 . S
C409 C403 1.404 . S
C409 C411 1.366 . S
C409 H417 0.930 . S
C410 N408 1.325 . S
C410 C411 1.416 . S
C410 H416 0.929 . S
C411 C409 1.366 . S
C411 C410 1.416 . S
C411 H413 0.930 . S
H412 C401 0.930 . S
H413 C411 0.930 . S
H414 C429 0.930 . S
H415 C436 0.930 . S
H416 C410 0.929 . S
H417 C409 0.930 . S
H418 C432 0.929 . S
H419 C399 0.931 . S
H420 C405 0.931 . S
H421 C406 0.931 . S
H422 C427 0.931 . S
H423 C402 0.929 . S
H424 C435 0.930 . S
N425 Eu396 2.600 . S
N425 C426 1.365 . S
N425 C429 1.319 . S
C426 N425 1.365 . S
C426 C428 1.405 . S
C426 C434 1.448 . S
C427 H422 0.931 . S
C427 C429 1.397 . S
C427 C430 1.367 . S
C428 C426 1.405 . S
C428 C430 1.403 . S
C428 C461 1.439 . S
C429 H414 0.930 . S
C429 N425 1.319 . S
C429 C427 1.397 . S
C430 C427 1.367 . S
C430 C428 1.403 . S
C430 H437 0.929 . S
N431 Eu396 2.562 . S
N431 C432 1.325 . S
N431 C434 1.351 . S
C432 H418 0.929 . S
C432 N431 1.325 . S
C432 C436 1.416 . S
C433 C434 1.430 . S
C433 C435 1.404 . S
C433 C462 1.387 . S
C434 C426 1.448 . S
C434 N431 1.351 . S
C434 C433 1.430 . S
C435 H424 0.930 . S
C435 C433 1.404 . S
C435 C436 1.366 . S
C436 H415 0.930 . S
C436 C432 1.416 . S
C436 C435 1.366 . S
H437 C430 0.929 . S
H438 C461 0.931 . S
H439 C462 0.931 . S
O440 Eu396 2.462 . S
O440 C460 1.252 . S
O441 Eu396 2.373 . S
O441 C452 1.249 . S
O442 Eu407 2.335 . S
O442 C452 1.264 . S
O443 Eu396 2.432 . S
O443 C460 1.268 . S
O444 Eu396 2.291 . S
O444 C459 1.255 . S
O445 Eu407 2.372 . S
O445 C459 1.257 . S
O446 Eu407 2.462 . S
O446 C471 1.252 . S
O447 Eu407 2.373 . S
O447 C463 1.249 . S
O448 Eu396 2.335 . S
O448 C463 1.264 . S
O449 Eu407 2.432 . S
O449 C471 1.268 . S
O450 Eu407 2.291 . S
O450 C470 1.255 . S
O451 Eu396 2.372 . S
O451 C470 1.257 . S
C452 O441 1.249 . S
C452 O442 1.264 . S
C453 C456 1.382 . S
C453 C458 1.390 . S
C453 C460 1.506 . S
C454 C455 1.398 . S
C454 C458 1.392 . S
C455 C454 1.398 . S
C455 C457 1.372 . S
C455 H472 0.931 . S
C456 C453 1.382 . S
C456 C457 1.390 . S
C456 H473 0.931 . S
C457 C455 1.372 . S
C457 C456 1.390 . S
C457 H474 0.929 . S
C458 C453 1.390 . S
C458 C454 1.392 . S
C458 H475 0.930 . S
C459 O444 1.255 . S
C459 O445 1.257 . S
C460 Eu396 2.787 . S
C460 O440 1.252 . S
C460 O443 1.268 . S
C460 C453 1.506 . S
C461 C428 1.439 . S
C461 H438 0.931 . S
C461 C462 1.374 . S
C462 C433 1.387 . S
C462 H439 0.931 . S
C462 C461 1.374 . S
C463 O447 1.249 . S
C463 O448 1.264 . S
C464 C467 1.382 . S
C464 C468 1.390 . S
C464 C471 1.506 . S
C465 C466 1.398 . S
C465 C468 1.392 . S
C466 C465 1.398 . S
C466 C469 1.372 . S
C466 H476 0.931 . S
C467 C464 1.382 . S
C467 C469 1.390 . S
C467 H477 0.931 . S
C468 C464 1.390 . S
C468 C465 1.392 . S
C468 H478 0.930 . S
C469 C466 1.372 . S
C469 C467 1.390 . S
C469 H479 0.929 . S
C470 O450 1.255 . S
C470 O451 1.257 . S
C471 Eu407 2.787 . S
C471 O446 1.252 . S
C471 O449 1.268 . S
C471 C464 1.506 . S
H472 C455 0.931 . S
H473 C456 0.931 . S
H474 C457 0.929 . S
H475 C458 0.930 . S
H476 C466 0.931 . S
H477 C467 0.931 . S
H478 C468 0.930 . S
H479 C469 0.929 . S
Eu480 N509 2.600 . S
Eu480 N515 2.562 . S
Eu480 O524 2.462 . S
Eu480 O525 2.373 . S
Eu480 O527 2.432 . S
Eu480 O528 2.298 . S
Eu480 O532 2.335 . S
Eu480 O535 2.372 . S
Eu480 C544 2.787 . S
C481 N482 1.365 . S
C481 C484 1.405 . S
C481 C488 1.448 . S
N482 C481 1.365 . S
N482 C485 1.319 . S
N482 Eu491 2.600 . S
C483 C485 1.397 . S
C483 C486 1.367 . S
C483 H503 0.931 . S
C484 C481 1.405 . S
C484 C486 1.403 . S
C484 C490 1.439 . S
C485 N482 1.319 . S
C485 C483 1.397 . S
C485 H496 0.930 . S
C486 C483 1.367 . S
C486 C484 1.403 . S
C486 H507 0.929 . S
C487 C488 1.430 . S
C487 C489 1.387 . S
C487 C493 1.404 . S
C488 C481 1.448 . S
C488 C487 1.430 . S
C488 N492 1.351 . S
C489 C487 1.387 . S
C489 C490 1.374 . S
C489 H504 0.931 . S
C490 C484 1.439 . S
C490 C489 1.374 . S
C490 H505 0.931 . S
Eu491 N482 2.600 . S
Eu491 N492 2.562 . S
Eu491 O526 2.335 1_655 S
Eu491 O529 2.372 . S
Eu491 O530 2.462 . S
Eu491 O531 2.373 . S
Eu491 O533 2.432 . S
Eu491 O534 2.291 1_655 S
Eu491 C555 2.787 . S
N492 C488 1.351 . S
N492 Eu491 2.562 . S
N492 C494 1.325 . S
C493 C487 1.404 . S
C493 C495 1.366 . S
C493 H501 0.930 . S
C494 N492 1.325 . S
C494 C495 1.416 . S
C494 H500 0.929 . S
C495 C493 1.366 . S
C495 C494 1.416 . S
C495 H497 0.930 . S
H496 C485 0.930 . S
H497 C495 0.930 . S
H498 C513 0.930 . S
H499 C520 0.930 . S
H500 C494 0.929 . S
H501 C493 0.930 . S
H502 C516 0.929 . S
H503 C483 0.931 . S
H504 C489 0.931 . S
H505 C490 0.931 . S
H506 C511 0.931 . S
H507 C486 0.929 . S
H508 C519 0.930 . S
N509 Eu480 2.600 . S
N509 C510 1.365 . S
N509 C513 1.319 . S
C510 N509 1.365 . S
C510 C512 1.405 . S
C510 C518 1.448 . S
C511 H506 0.931 . S
C511 C513 1.397 . S
C511 C514 1.367 . S
C512 C510 1.405 . S
C512 C514 1.403 . S
C512 C545 1.439 . S
C513 H498 0.930 . S
C513 N509 1.319 . S
C513 C511 1.397 . S
C514 C511 1.367 . S
C514 C512 1.403 . S
C514 H521 0.929 . S
N515 Eu480 2.562 . S
N515 C516 1.325 . S
N515 C518 1.351 . S
C516 H502 0.929 . S
C516 N515 1.325 . S
C516 C520 1.416 1_565 S
C517 C518 1.430 . S
C517 C519 1.404 1_565 S
C517 C546 1.387 . S
C518 C510 1.448 . S
C518 N515 1.351 . S
C518 C517 1.430 . S
C519 H508 0.930 . S
C519 C517 1.404 1_545 S
C519 C520 1.366 . S
C520 H499 0.930 . S
C520 C516 1.416 1_545 S
C520 C519 1.366 . S
H521 C514 0.929 . S
H522 C545 0.931 . S
H523 C546 0.931 1_545 S
O524 Eu480 2.462 . S
O524 C544 1.252 . S
O525 Eu480 2.373 . S
O525 C536 1.249 . S
O526 Eu491 2.335 1_455 S
O526 C536 1.264 . S
O527 Eu480 2.432 . S
O527 C544 1.268 . S
O528 Eu480 2.298 . S
O528 C543 1.248 1_455 S
O529 Eu491 2.372 . S
O529 C543 1.257 . S
O530 Eu491 2.462 . S
O530 C555 1.252 . S
O531 Eu491 2.373 . S
O531 C547 1.249 . S
O532 Eu480 2.335 . S
O532 C547 1.264 1_455 S
O533 Eu491 2.432 . S
O533 C555 1.268 . S
O534 Eu491 2.291 1_455 S
O534 C554 1.255 . S
O535 Eu480 2.372 . S
O535 C554 1.257 . S
C536 O525 1.249 . S
C536 O526 1.264 . S
C537 C540 1.382 . S
C537 C542 1.390 . S
C537 C544 1.506 . S
C538 C539 1.398 . S
C538 C542 1.392 . S
C539 C538 1.398 . S
C539 C541 1.372 . S
C539 H556 0.931 . S
C540 C537 1.382 . S
C540 C541 1.390 . S
C540 H557 0.931 . S
C541 C539 1.372 . S
C541 C540 1.390 . S
C541 H558 0.929 . S
C542 C537 1.390 . S
C542 C538 1.392 . S
C542 H559 0.930 . S
C543 O528 1.248 1_655 S
C543 O529 1.257 . S
C544 Eu480 2.787 . S
C544 O524 1.252 . S
C544 O527 1.268 . S
C544 C537 1.506 . S
C545 C512 1.439 . S
C545 H522 0.931 . S
C545 C546 1.374 . S
C546 C517 1.387 . S
C546 H523 0.931 1_565 S
C546 C545 1.374 . S
C547 O531 1.249 . S
C547 O532 1.264 1_655 S
C548 C551 1.382 . S
C548 C552 1.390 . S
C548 C555 1.506 . S
C549 C550 1.398 . S
C549 C552 1.392 . S
C550 C549 1.398 . S
C550 C553 1.372 . S
C550 H560 0.931 . S
C551 C548 1.382 . S
C551 C553 1.390 . S
C551 H561 0.931 . S
C552 C548 1.390 . S
C552 C549 1.392 . S
C552 H562 0.930 . S
C553 C550 1.372 . S
C553 C551 1.390 . S
C553 H563 0.929 . S
C554 O534 1.255 . S
C554 O535 1.257 . S
C555 Eu491 2.787 . S
C555 O530 1.252 . S
C555 O533 1.268 . S
C555 C548 1.506 . S
H556 C539 0.931 . S
H557 C540 0.931 . S
H558 C541 0.929 . S
H559 C542 0.930 . S
H560 C550 0.931 . S
H561 C551 0.931 . S
H562 C552 0.930 . S
H563 C553 0.929 . S
Eu564 N593 2.600 . S
Eu564 N599 2.562 . S
Eu564 O608 2.462 . S
Eu564 O609 2.373 . S
Eu564 O611 2.432 . S
Eu564 O612 2.291 . S
Eu564 O616 2.335 . S
Eu564 O619 2.372 . S
Eu564 C628 2.787 . S
C565 N566 1.365 . S
C565 C568 1.405 . S
C565 C572 1.448 . S
N566 C565 1.365 . S
N566 C569 1.319 . S
N566 Eu575 2.600 . S
C567 C569 1.397 . S
C567 C570 1.367 . S
C567 H587 0.931 . S
C568 C565 1.405 . S
C568 C570 1.403 . S
C568 C574 1.439 . S
C569 N566 1.319 . S
C569 C567 1.397 . S
C569 H580 0.930 . S
C570 C567 1.367 . S
C570 C568 1.403 . S
C570 H591 0.929 . S
C571 C572 1.430 . S
C571 C573 1.387 . S
C571 C577 1.404 . S
C572 C565 1.448 . S
C572 C571 1.430 . S
C572 N576 1.351 . S
C573 C571 1.387 . S
C573 C574 1.374 . S
C573 H588 0.931 . S
C574 C568 1.439 . S
C574 C573 1.374 . S
C574 H589 0.931 . S
Eu575 N566 2.600 . S
Eu575 N576 2.562 . S
Eu575 O610 2.335 . S
Eu575 O613 2.372 . S
Eu575 O614 2.462 . S
Eu575 O615 2.373 . S
Eu575 O617 2.432 . S
Eu575 O618 2.291 . S
Eu575 C639 2.787 . S
N576 C572 1.351 . S
N576 Eu575 2.562 . S
N576 C578 1.325 . S
C577 C571 1.404 . S
C577 C579 1.366 . S
C577 H585 0.930 . S
C578 N576 1.325 . S
C578 C579 1.416 . S
C578 H584 0.929 . S
C579 C577 1.366 . S
C579 C578 1.416 . S
C579 H581 0.930 . S
H580 C569 0.930 . S
H581 C579 0.930 . S
H582 C597 0.930 . S
H583 C604 0.930 . S
H584 C578 0.929 . S
H585 C577 0.930 . S
H586 C600 0.929 . S
H587 C567 0.931 . S
H588 C573 0.931 . S
H589 C574 0.931 . S
H590 C595 0.931 . S
H591 C570 0.929 . S
H592 C603 0.930 . S
N593 Eu564 2.600 . S
N593 C594 1.365 . S
N593 C597 1.319 . S
C594 N593 1.365 . S
C594 C596 1.405 . S
C594 C602 1.448 . S
C595 H590 0.931 . S
C595 C597 1.397 . S
C595 C598 1.367 . S
C596 C594 1.405 . S
C596 C598 1.403 . S
C596 C629 1.439 . S
C597 H582 0.930 . S
C597 N593 1.319 . S
C597 C595 1.397 . S
C598 C595 1.367 . S
C598 C596 1.403 . S
C598 H605 0.929 . S
N599 Eu564 2.562 . S
N599 C600 1.325 . S
N599 C602 1.351 . S
C600 H586 0.929 . S
C600 N599 1.325 . S
C600 C604 1.416 . S
C601 C602 1.430 . S
C601 C603 1.404 . S
C601 C630 1.387 . S
C602 C594 1.448 . S
C602 N599 1.351 . S
C602 C601 1.430 . S
C603 H592 0.930 . S
C603 C601 1.404 . S
C603 C604 1.366 . S
C604 H583 0.930 . S
C604 C600 1.416 . S
C604 C603 1.366 . S
H605 C598 0.929 . S
H606 C629 0.931 . S
H607 C630 0.931 . S
O608 Eu564 2.462 . S
O608 C628 1.252 . S
O609 Eu564 2.373 . S
O609 C620 1.249 . S
O610 Eu575 2.335 . S
O610 C620 1.264 . S
O611 Eu564 2.432 . S
O611 C628 1.268 . S
O612 Eu564 2.291 . S
O612 C627 1.255 . S
O613 Eu575 2.372 . S
O613 C627 1.257 . S
O614 Eu575 2.462 . S
O614 C639 1.252 . S
O615 Eu575 2.373 . S
O615 C631 1.249 . S
O616 Eu564 2.335 . S
O616 C631 1.264 . S
O617 Eu575 2.432 . S
O617 C639 1.268 . S
O618 Eu575 2.291 . S
O618 C638 1.255 . S
O619 Eu564 2.372 . S
O619 C638 1.257 . S
C620 O609 1.249 . S
C620 O610 1.264 . S
C621 C624 1.382 . S
C621 C626 1.390 . S
C621 C628 1.506 . S
C622 C623 1.398 . S
C622 C626 1.392 . S
C623 C622 1.398 . S
C623 C625 1.372 . S
C623 H640 0.931 . S
C624 C621 1.382 . S
C624 C625 1.390 . S
C624 H641 0.931 . S
C625 C623 1.372 . S
C625 C624 1.390 . S
C625 H642 0.929 . S
C626 C621 1.390 . S
C626 C622 1.392 . S
C626 H643 0.930 . S
C627 O612 1.255 . S
C627 O613 1.257 . S
C628 Eu564 2.787 . S
C628 O608 1.252 . S
C628 O611 1.268 . S
C628 C621 1.506 . S
C629 C596 1.439 . S
C629 H606 0.931 . S
C629 C630 1.374 . S
C630 C601 1.387 . S
C630 H607 0.931 . S
C630 C629 1.374 . S
C631 O615 1.249 . S
C631 O616 1.264 . S
C632 C635 1.382 . S
C632 C636 1.390 . S
C632 C639 1.506 . S
C633 C634 1.398 . S
C633 C636 1.392 . S
C634 C633 1.398 . S
C634 C637 1.372 . S
C634 H644 0.931 . S
C635 C632 1.382 . S
C635 C637 1.390 . S
C635 H645 0.931 . S
C636 C632 1.390 . S
C636 C633 1.392 . S
C636 H646 0.930 . S
C637 C634 1.372 . S
C637 C635 1.390 . S
C637 H647 0.929 . S
C638 O618 1.255 . S
C638 O619 1.257 . S
C639 Eu575 2.787 . S
C639 O614 1.252 . S
C639 O617 1.268 . S
C639 C632 1.506 . S
H640 C623 0.931 . S
H641 C624 0.931 . S
H642 C625 0.929 . S
H643 C626 0.930 . S
H644 C634 0.931 . S
H645 C635 0.931 . S
H646 C636 0.930 . S
H647 C637 0.929 . S
C235 C386 1.496 . S
C470 C289 1.501 . S
C463 C157 1.484 . S
C211 C379 1.484 . S
C543 C79 1.504 . S
C627 C118 1.509 . S
C1 C620 1.490 . S
C40 C536 1.497 . S
C370 C55 1.218 . S
C454 C16 1.220 . S
C465 C133 1.470 . S
C381 C94 1.468 . S
C549 C196 1.228 . S
C172 C633 1.226 . S
C622 C274 1.469 . S
C250 C538 1.473 . S
C368 C21 1.711 . S
C452 C60 1.716 . S
C99 C459 1.727 . S
C375 C138 1.731 . S
C547 C177 1.698 . S
C216 C631 1.715 . S
C255 C638 1.721 . S
C294 C554 1.725 . S
