# Generated by pormake.
# Topology anh, (6,3)-cn, num edge types: 1
# Building blocks:
#     Node 0, Type 0, BuildingBlock: INOVEN_clean_sbu_0, # of connection points: 6
#     Node 1, Type 0, BuildingBlock: INOVEN_clean_sbu_0, # of connection points: 6
#     Node 2, Type 0, BuildingBlock: INOVEN_clean_sbu_0, # of connection points: 6
#     Node 3, Type 1, BuildingBlock: BETDAH_clean_linker_0, # of connection points: 3
#     Node 4, Type 1, BuildingBlock: BETDAH_clean_linker_0, # of connection points: 3
#     Node 5, Type 1, BuildingBlock: BETDAH_clean_linker_0, # of connection points: 3
#     Node 6, Type 1, BuildingBlock: BETDAH_clean_linker_0, # of connection points: 3
#     Node 7, Type 1, BuildingBlock: BETDAH_clean_linker_0, # of connection points: 3
#     Node 8, Type 1, BuildingBlock: BETDAH_clean_linker_0, # of connection points: 3
#     Edge 9, Type (0, 1), BuildingBlock: CIFDUS_clean_linker_0, # of connection points: 2
#     Edge 10, Type (0, 1), BuildingBlock: CIFDUS_clean_linker_0, # of connection points: 2
#     Edge 11, Type (0, 1), BuildingBlock: CIFDUS_clean_linker_0, # of connection points: 2
#     Edge 12, Type (0, 1), BuildingBlock: CIFDUS_clean_linker_0, # of connection points: 2
#     Edge 13, Type (0, 1), BuildingBlock: CIFDUS_clean_linker_0, # of connection points: 2
#     Edge 14, Type (0, 1), BuildingBlock: CIFDUS_clean_linker_0, # of connection points: 2
#     Edge 15, Type (0, 1), BuildingBlock: CIFDUS_clean_linker_0, # of connection points: 2
#     Edge 16, Type (0, 1), BuildingBlock: CIFDUS_clean_linker_0, # of connection points: 2
#     Edge 17, Type (0, 1), BuildingBlock: CIFDUS_clean_linker_0, # of connection points: 2
#     Edge 18, Type (0, 1), BuildingBlock: CIFDUS_clean_linker_0, # of connection points: 2
#     Edge 19, Type (0, 1), BuildingBlock: CIFDUS_clean_linker_0, # of connection points: 2
#     Edge 20, Type (0, 1), BuildingBlock: CIFDUS_clean_linker_0, # of connection points: 2
#     Edge 21, Type (0, 1), BuildingBlock: CIFDUS_clean_linker_0, # of connection points: 2
#     Edge 22, Type (0, 1), BuildingBlock: CIFDUS_clean_linker_0, # of connection points: 2
#     Edge 23, Type (0, 1), BuildingBlock: CIFDUS_clean_linker_0, # of connection points: 2
#     Edge 24, Type (0, 1), BuildingBlock: CIFDUS_clean_linker_0, # of connection points: 2
#     Edge 25, Type (0, 1), BuildingBlock: CIFDUS_clean_linker_0, # of connection points: 2
#     Edge 26, Type (0, 1), BuildingBlock: CIFDUS_clean_linker_0, # of connection points: 2
# Relax obj value: 0.166
# Max RMSD: 0.198
# Mean RMSD: 0.113
data_MOF--net-anh--node1-INOVEN_clean_sbu_0--node2-BETDAH_clean_linker_0--edge1-CIFDUS_clean_linker_0
_symmetry_space_group_name_H-M    P1
_symmetry_Int_Tables_number       1
_symmetry_cell_setting            triclinic
loop_
_symmetry_equiv_pos_as_xyz
'x, y, z'
_cell_length_a     29.135655
_cell_length_b     34.425271
_cell_length_c     43.019738
_cell_angle_alpha  95.036853
_cell_angle_beta   91.231697
_cell_angle_gamma 131.12935
loop_
_atom_site_label
_atom_site_type_symbol
_atom_site_fract_x
_atom_site_fract_y
_atom_site_fract_z
_atom_type_partial_charge
Gd0 Gd 0.15967 0.56782 0.14781 0.0
Gd1 Gd 0.09078 0.59927 0.16838 0.0
C2 C 0.23152 0.69279 0.16139 0.0
C3 C 0.22537 0.5534 0.1191 0.0
C4 C 0.21996 0.50977 0.10583 0.0
C5 C 0.1755 0.45991 0.11442 0.0
C6 C 0.26153 0.5187 0.08516 0.0
C7 C 0.21754 0.42913 0.08349 0.0
C8 C 0.26036 0.47873 0.07404 0.0
C9 C 0.1744 0.41984 0.10338 0.0
C10 C 0.15096 0.57251 0.21003 0.0
C11 C 1.0193 0.47335 0.15484 0.0
C12 C 1.01984 0.60822 0.19626 0.0
C13 C 0.9529 0.57247 0.19655 0.0
C14 C 0.92222 0.59048 0.19201 0.0
C15 C 0.91867 0.51907 0.19712 0.0
C16 C 0.82461 0.50143 0.18411 0.0
C17 C 0.85503 0.48371 0.1906 0.0
C18 C 0.85838 0.5552 0.18603 0.0
C19 C 0.09539 0.59083 0.10554 0.0
O20 O 0.22872 0.65573 0.14656 0.0
O21 O 0.18461 0.68038 0.17581 0.0
O22 O 0.19065 0.5591 0.10456 0.0
O23 O 0.22774 0.56044 0.14965 0.0
O24 O 0.14742 0.53693 0.19374 0.0
O25 O 0.16252 0.60562 0.19311 0.0
O26 O 1.01951 0.50994 0.16804 0.0
O27 O 0.06776 0.48655 0.14183 0.0
O28 O 1.03929 0.62431 0.16923 0.0
O29 O 1.04805 0.5955 0.21 0.0
O30 O 0.09849 0.62654 0.12121 0.0
O31 O 0.0867 0.56002 0.1235 0.0
H32 H 0.14269 0.45236 0.13021 0.0
H33 H 0.29604 0.55702 0.0783 0.0
H34 H 0.29473 0.48734 0.05912 0.0
H35 H 0.14058 0.38191 0.11083 0.0
H36 H 0.94782 0.63153 0.19143 0.0
H37 H 0.94133 0.50448 0.20119 0.0
H38 H 0.82981 0.44242 0.18942 0.0
H39 H 0.83584 0.56969 0.18086 0.0
Gd40 Gd 0.66918 0.07057 0.4774 0.0
Gd41 Gd 0.59042 0.09498 0.46794 0.0
C42 C 0.52044 0.97526 0.46183 0.0
C43 C 0.71988 0.03618 0.49709 0.0
C44 C 0.70093 0.98829 0.50744 0.0
C45 C 0.74355 0.98187 0.50986 0.0
C46 C 0.64059 0.94827 0.51394 0.0
C47 C 0.66534 0.89497 0.52417 0.0
C48 C 0.62288 0.90193 0.52217 0.0
C49 C 0.72602 0.93573 0.51818 0.0
C50 C 0.65538 0.08285 0.41762 0.0
C51 C 0.74083 0.19141 0.477 0.0
C52 C 0.53809 0.12994 0.4528 0.0
C53 C 0.54793 0.17738 0.46203 0.0
C54 C 0.49723 0.17305 0.46621 0.0
C55 C 0.60716 0.22651 0.46835 0.0
C56 C 0.56471 0.26624 0.4837 0.0
C57 C 0.61549 0.27054 0.4791 0.0
C58 C 0.50545 0.21699 0.4769 0.0
C59 C 0.60159 0.07983 0.52705 0.0
O60 O 0.57129 0.99109 0.47729 0.0
O61 O 0.52079 0.00961 0.45003 0.0
O62 O 0.7054 0.03295 0.46744 0.0
O63 O 0.71121 0.06268 0.51557 0.0
O64 O 0.7061 0.09843 0.43129 0.0
O65 O 0.6136 0.05874 0.43551 0.0
O66 O 0.68561 0.1755 0.47071 0.0
O67 O 0.74745 0.15807 0.48268 0.0
O68 O 0.52078 0.09988 0.47457 0.0
O69 O 0.5789 0.13477 0.43672 0.0
O70 O 0.55094 0.06291 0.51263 0.0
O71 O 0.64498 0.10592 0.51019 0.0
H72 H 0.79026 0.0123 0.5048 0.0
H73 H 0.60709 0.95264 0.51236 0.0
H74 H 0.57594 0.8715 0.52688 0.0
H75 H 0.75962 0.9314 0.519 0.0
H76 H 0.45116 0.13542 0.46169 0.0
H77 H 0.64696 0.2308 0.46524 0.0
H78 H 0.6617 0.30795 0.48373 0.0
H79 H 0.46537 0.21214 0.48058 0.0
Gd80 Gd 0.62893 0.60586 0.8593 0.0
Gd81 Gd 0.54389 0.49356 0.84696 0.0
C82 C 0.47513 0.54319 0.85519 0.0
C83 C 0.69137 0.70292 0.85319 0.0
C84 C 0.68168 0.73813 0.84483 0.0
C85 C 0.66488 0.75836 0.86686 0.0
C86 C 0.69259 0.75408 0.81484 0.0
C87 C 0.67101 0.81029 0.82919 0.0
C88 C 0.68703 0.78953 0.80706 0.0
C89 C 0.65952 0.79394 0.8591 0.0
C90 C 0.60202 0.56008 0.91148 0.0
C91 C 0.69841 0.55672 0.85575 0.0
C92 C 0.48774 0.39613 0.84649 0.0
C93 C 0.50462 0.36487 0.8374 0.0
C94 C 0.46256 0.31692 0.81816 0.0
C95 C 0.5637 0.38385 0.84604 0.0
C96 C 0.53914 0.30843 0.8152 0.0
C97 C 0.58084 0.35604 0.83494 0.0
C98 C 0.47954 0.28884 0.80724 0.0
C99 C 0.56827 0.53884 0.79481 0.0
O100 O 0.5335 0.58833 0.85474 0.0
O101 O 0.46844 0.50035 0.85496 0.0
O102 O 0.67534 0.6849 0.88014 0.0
O103 O 0.67856 0.66813 0.83059 0.0
O104 O 0.65666 0.60258 0.90769 0.0
O105 O 0.5644 0.5455 0.88834 0.0
O106 O 0.63952 0.5114 0.85038 0.0
O107 O 0.70591 0.59998 0.8598 0.0
O108 O 0.47928 0.41397 0.82354 0.0
O109 O 0.51856 0.43062 0.87158 0.0
O110 O 0.51406 0.49784 0.80001 0.0
O111 O 0.60756 0.55335 0.81713 0.0
H112 H 0.65644 0.74718 0.89022 0.0
H113 H 0.70639 0.73973 0.79746 0.0
H114 H 0.69687 0.80171 0.78395 0.0
H115 H 0.64632 0.80868 0.87658 0.0
H116 H 0.41689 0.30165 0.81109 0.0
H117 H 0.59705 0.42046 0.86108 0.0
H118 H 0.62678 0.37179 0.84186 0.0
H119 H 0.44652 0.25246 0.79188 0.0
H120 H 0.51206 0.99028 0.23688 0.0
H121 H 0.67803 0.14112 0.22045 0.0
H122 H 0.54569 0.02768 0.14289 0.0
C123 C 0.54186 0.01758 0.22091 0.0
C124 C 0.52267 1.00228 0.18871 0.0
C125 C 0.59808 0.06706 0.23276 0.0
C126 C 0.63464 0.10304 0.21169 0.0
C127 C 0.61604 0.08964 0.17922 0.0
C128 C 0.56023 0.03862 0.16784 0.0
N129 N 0.65226 0.12607 0.15752 0.0
C130 C 0.70561 0.17906 0.16485 0.0
H131 H 0.65198 0.51088 0.621 0.0
H132 H 0.63948 0.62684 0.61022 0.0
H133 H 0.62668 0.53728 0.52872 0.0
C134 C 0.64833 0.53253 0.60589 0.0
C135 C 0.63981 0.51937 0.57317 0.0
C136 C 0.64807 0.57108 0.61942 0.0
C137 C 0.6405 0.5976 0.59987 0.0
C138 C 0.63318 0.58545 0.56703 0.0
C139 C 0.63261 0.54639 0.55403 0.0
N140 N 0.62433 0.61018 0.54609 0.0
C141 C 0.63301 0.65476 0.55418 0.0
H142 H 0.99409 0.57818 0.91921 0.0
H143 H 0.13619 0.5715 0.91292 0.0
H144 H 1.02103 0.53335 0.82893 0.0
C145 C 1.01831 0.57157 0.90415 0.0
C146 C 0.99809 0.55611 0.87187 0.0
C147 C 0.06614 0.57601 0.91856 0.0
C148 C 0.09959 0.56703 0.90093 0.0
C149 C 0.08685 0.55237 0.86837 0.0
C150 C 1.0338 0.54579 0.85392 0.0
N151 N 0.12485 0.54358 0.85094 0.0
C152 C 0.17954 0.54899 0.85851 0.0
H153 H 0.23793 0.67798 0.39423 0.0
H154 H 0.09091 0.51898 0.40876 0.0
H155 H 0.20611 0.638 0.4878 0.0
C156 C 0.21209 0.64893 0.4099 0.0
C157 C 0.22908 0.66484 0.44232 0.0
C158 C 0.16335 0.59661 0.39728 0.0
C159 C 0.12854 0.55934 0.41802 0.0
C160 C 0.14305 0.57396 0.45078 0.0
C161 C 0.19423 0.62668 0.46266 0.0
N162 N 0.10779 0.5372 0.47246 0.0
C163 C 1.05572 0.48375 0.46554 0.0
H164 H 0.61833 0.14889 0.71054 0.0
H165 H 0.6228 0.02726 0.71756 0.0
H166 H 0.56443 0.07153 0.79281 0.0
C167 C 0.61313 0.12125 0.72404 0.0
C168 C 0.5905 0.11443 0.75339 0.0
C169 C 0.62449 0.08974 0.71085 0.0
C170 C 0.61519 0.05226 0.72785 0.0
C171 C 0.59422 0.04635 0.75774 0.0
C172 C 0.58156 0.07705 0.77002 0.0
N173 N 0.58207 1.00846 0.77582 0.0
C174 C 0.6024 0.98166 0.7715 0.0
H175 H 0.57329 0.39083 0.04261 0.0
H176 H 0.38098 0.31121 0.03002 0.0
H177 H 0.44908 0.27448 0.10039 0.0
C178 C 0.52688 0.36207 0.0486 0.0
C179 C 0.51663 0.33403 0.07328 0.0
C180 C 0.47851 0.35487 0.03277 0.0
C181 C 0.4189 0.31702 0.04139 0.0
C182 C 0.40799 0.28704 0.06522 0.0
C183 C 0.45702 0.29578 0.08106 0.0
N184 N 0.34862 0.25008 0.07484 0.0
C185 C 0.3094 0.25977 0.07643 0.0
H186 H 0.21117 0.36735 0.12155 0.0
H187 H 0.23562 0.40233 0.02628 0.0
H188 H 0.26001 0.34724 0.01452 0.0
H189 H 0.2854 0.29707 0.03314 0.0
H190 H 0.26421 0.26474 0.12874 0.0
H191 H 0.22599 0.30984 0.13853 0.0
C192 C 0.2202 0.36182 0.09798 0.0
C193 C 0.22209 0.38919 0.07489 0.0
C194 C 0.23499 0.33075 0.09156 0.0
C195 C 0.23477 0.38221 0.04457 0.0
C196 C 0.24862 0.35071 0.03783 0.0
C197 C 0.27109 0.2991 0.05585 0.0
C198 C 0.27708 0.27786 0.08024 0.0
C199 C 0.25059 0.32603 0.06139 0.0
C200 C 0.25925 0.28074 0.10969 0.0
C201 C 0.23784 0.30671 0.11529 0.0
H202 H 0.85874 0.23812 0.46349 0.0
H203 H 0.74713 0.27377 0.49042 0.0
H204 H 0.83244 0.36592 0.488 0.0
H205 H 0.94007 0.43799 0.47852 0.0
H206 H 1.05223 0.40351 0.4509 0.0
H207 H 0.96657 0.31054 0.45309 0.0
C208 C 0.85323 0.26609 0.46906 0.0
C209 C 0.79586 0.24834 0.47714 0.0
C210 C 0.90295 0.31975 0.46722 0.0
C211 C 0.78999 0.28561 0.48385 0.0
C212 C 0.83908 0.33867 0.48253 0.0
C213 C 0.94548 0.40999 0.47264 0.0
C214 C 1.00246 0.42774 0.4642 0.0
C215 C 0.89579 0.35636 0.4741 0.0
C216 C 1.00881 0.39095 0.4571 0.0
C217 C 0.95978 0.33769 0.45854 0.0
H218 H 0.62088 0.81078 0.77486 0.0
H219 H 0.71434 0.89897 0.86618 0.0
H220 H 0.70573 0.96231 0.855 0.0
H221 H 0.66675 0.99029 0.82055 0.0
H222 H 0.57168 0.90229 0.72974 0.0
H223 H 0.58689 0.84178 0.739 0.0
C224 C 0.64001 0.8442 0.79215 0.0
C225 C 0.66762 0.84973 0.82147 0.0
C226 C 0.63486 0.88061 0.78556 0.0
C227 C 0.69173 0.89311 0.8437 0.0
C228 C 0.68724 0.9296 0.83725 0.0
C229 C 0.65049 0.95835 0.80261 0.0
C230 C 0.61888 0.95067 0.77443 0.0
C231 C 0.65827 0.92341 0.80846 0.0
C232 C 0.59688 0.90897 0.75145 0.0
C233 C 0.60519 0.87431 0.75686 0.0
H234 H 0.7737 0.42785 0.13395 0.0
H235 H 0.73131 0.49372 0.20474 0.0
H236 H 0.62718 0.44039 0.1785 0.0
H237 H 0.553 0.38297 0.13218 0.0
H238 H 0.59983 0.32492 0.05857 0.0
H239 H 0.69737 0.36649 0.08923 0.0
C240 C 0.74105 0.4295 0.14395 0.0
C241 C 0.75955 0.46422 0.17122 0.0
C242 C 0.68243 0.40035 0.1281 0.0
C243 C 0.71765 0.46709 0.18374 0.0
C244 C 0.65838 0.43676 0.16873 0.0
C245 C 0.58412 0.37849 0.12336 0.0
C246 C 0.56962 0.35067 0.09355 0.0
C247 C 0.64089 0.40436 0.14046 0.0
C248 C 0.61034 0.34585 0.0817 0.0
C249 C 0.666 0.36981 0.09911 0.0
H250 H 0.48982 0.89067 0.4888 0.0
H251 H 0.4178 0.93183 0.42348 0.0
H252 H 0.32181 0.84225 0.41408 0.0
H253 H 0.25771 0.75129 0.42268 0.0
H254 H 0.3261 0.70637 0.48687 0.0
H255 H 0.42222 0.79753 0.49891 0.0
C256 C 0.4532 0.88004 0.47247 0.0
C257 C 0.46211 0.91882 0.4568 0.0
C258 C 0.39665 0.82741 0.46711 0.0
C259 C 0.41327 0.90366 0.43597 0.0
C260 C 0.35782 0.85206 0.43053 0.0
C261 C 0.29346 0.76123 0.43941 0.0
C262 C 0.28422 0.72135 0.45361 0.0
C263 C 0.34896 0.81355 0.44578 0.0
C264 C 0.33118 0.73582 0.47567 0.0
C265 C 0.38663 0.78809 0.48232 0.0
H266 H 0.4752 0.20466 0.81162 0.0
H267 H 0.64587 0.34804 0.79054 0.0
H268 H 0.67694 0.30098 0.76938 0.0
H269 H 0.6553 0.21865 0.75664 0.0
H270 H 0.48468 0.0757 0.7782 0.0
H271 H 0.45385 0.12286 0.79921 0.0
C272 C 0.51899 0.22553 0.80218 0.0
C273 C 0.55805 0.27972 0.8026 0.0
C274 C 0.53663 0.19827 0.79014 0.0
C275 C 0.61515 0.30636 0.79076 0.0
C276 C 0.63283 0.27945 0.77851 0.0
C277 C 0.61129 0.19791 0.76581 0.0
C278 C 0.57245 0.14382 0.76596 0.0
C279 C 0.59391 0.22536 0.77804 0.0
C280 C 0.51575 0.11745 0.77818 0.0
C281 C 0.49794 0.14433 0.79007 0.0
H282 H 0.72723 0.87961 0.562 0.0
H283 H 0.56013 0.79686 0.50083 0.0
H284 H 0.53242 0.71423 0.50743 0.0
H285 H 0.55999 0.66595 0.52679 0.0
H286 H 0.7283 0.74829 0.58629 0.0
H287 H 0.75152 0.83067 0.5842 0.0
C288 C 0.68469 0.84348 0.55018 0.0
C289 C 0.64606 0.84457 0.53078 0.0
C290 C 0.66943 0.79607 0.55372 0.0
C291 C 0.59052 0.79725 0.51609 0.0
C292 C 0.57481 0.74994 0.51967 0.0
C293 C 0.60112 0.70195 0.53972 0.0
C294 C 0.64238 0.70163 0.5568 0.0
C295 C 0.61441 0.74896 0.53794 0.0
C296 C 0.69589 0.74807 0.57323 0.0
C297 C 0.70922 0.79502 0.57187 0.0
H298 H 0.72521 0.48852 0.83151 0.0
H299 H 0.81406 0.63561 0.88806 0.0
H300 H 0.90666 0.64856 0.89661 0.0
H301 H 0.96799 0.62032 0.89009 0.0
H302 H 0.88591 0.47717 0.83094 0.0
H303 H 0.7914 0.46266 0.82185 0.0
C304 C 0.76439 0.52385 0.84579 0.0
C305 C 0.7579 0.56078 0.85913 0.0
C306 C 0.82183 0.53256 0.85029 0.0
C307 C 0.81311 0.60555 0.87704 0.0
C308 C 0.86787 0.61327 0.8821 0.0
C309 C 0.93032 0.58572 0.8747 0.0
C310 C 0.93908 0.55054 0.86127 0.0
C311 C 0.87386 0.57745 0.86907 0.0
C312 C 0.88563 0.50662 0.84172 0.0
C313 C 0.82963 0.49786 0.83665 0.0
H314 H 0.25157 0.78298 0.17826 0.0
H315 H 0.34383 0.72988 0.14654 0.0
H316 H 0.43979 0.81971 0.14904 0.0
H317 H 0.50048 0.91466 0.16298 0.0
H318 H 0.40896 0.96813 0.19454 0.0
H319 H 0.31095 0.87817 0.18888 0.0
C320 C 0.29256 0.79096 0.17178 0.0
C321 C 0.2897 0.7489 0.16238 0.0
C322 C 0.34832 0.84341 0.17296 0.0
C323 C 0.34381 0.76078 0.15388 0.0
C324 C 0.39915 0.81249 0.15529 0.0
C325 C 0.45873 0.90662 0.16774 0.0
C326 C 0.46208 0.94846 0.1785 0.0
C327 C 0.4023 0.8543 0.16497 0.0
C328 C 0.40764 0.93697 0.18555 0.0
C329 C 0.35155 0.88533 0.18264 0.0
H330 H 0.64865 0.34375 0.53071 0.0
H331 H 0.49951 0.29278 0.46452 0.0
H332 H 0.50995 0.36649 0.48616 0.0
H333 H 0.55953 0.44407 0.52464 0.0
H334 H 0.71025 0.49658 0.59016 0.0
H335 H 0.701 0.42357 0.56801 0.0
C336 C 0.61896 0.34914 0.52074 0.0
C337 C 0.57322 0.3126 0.49606 0.0
C338 C 0.62526 0.39173 0.53327 0.0
C339 C 0.53453 0.31983 0.48378 0.0
C340 C 0.54064 0.36213 0.49605 0.0
C341 C 0.591 0.44006 0.53381 0.0
C342 C 0.63559 0.4759 0.55903 0.0
C343 C 0.58558 0.39813 0.52091 0.0
C344 C 0.67508 0.46931 0.57099 0.0
C345 C 0.67002 0.4277 0.55824 0.0
H346 H 0.45719 0.62039 0.85997 0.0
H347 H 0.34998 0.45483 0.85216 0.0
H348 H 0.25638 0.44118 0.85271 0.0
H349 H 0.19787 0.47368 0.855 0.0
H350 H 0.30403 0.63899 0.86354 0.0
H351 H 0.39836 0.65315 0.86313 0.0
C352 C 0.41383 0.58084 0.85837 0.0
C353 C 0.41535 0.53884 0.85592 0.0
C354 C 0.35658 0.57246 0.8589 0.0
C355 C 0.35499 0.48904 0.85406 0.0
C356 C 0.29954 0.48088 0.85438 0.0
C357 C 0.2412 0.51332 0.85703 0.0
C358 C 0.2394 0.55507 0.85963 0.0
C359 C 0.29847 0.52188 0.85679 0.0
C360 C 0.29955 0.60505 0.86178 0.0
C361 C 0.35526 0.61341 0.86145 0.0
H362 H 0.91457 0.42571 0.18602 0.0
H363 H 0.99837 0.39042 0.12208 0.0
H364 H 0.91103 0.29769 0.12021 0.0
H365 H 0.80916 0.22505 0.136 0.0
H366 H 0.72447 0.25905 0.19982 0.0
H367 H 0.81272 0.35277 0.2024 0.0
C368 C 0.91377 0.39799 0.17151 0.0
C369 C 0.96381 0.41614 0.15407 0.0
C370 C 0.86277 0.34381 0.17059 0.0
C371 C 0.96126 0.37855 0.1358 0.0
C372 C 0.91098 0.32507 0.13468 0.0
C373 C 0.81032 0.25301 0.15069 0.0
C374 C 0.76035 0.23492 0.16792 0.0
C375 C 0.86137 0.30706 0.15194 0.0
C376 C 0.76241 0.27178 0.18655 0.0
C377 C 0.81293 0.3255 0.18792 0.0
H378 H 0.10482 0.65029 0.06399 0.0
H379 H 0.08021 0.51318 0.0693 0.0
H380 H 0.07376 0.49865 0.01207 0.0
H381 H 0.0703 0.52273 0.96013 0.0
H382 H 0.09077 0.65785 0.955 0.0
H383 H 0.10379 0.67546 0.01232 0.0
C384 C 0.09826 0.61734 0.05261 0.0
C385 C 0.09306 0.5829 0.07089 0.0
C386 C 0.09376 0.60885 0.01963 0.0
C387 C 0.08454 0.54037 0.05579 0.0
C388 C 0.08075 0.53199 0.02303 0.0
C389 C 0.0785 0.55641 0.97163 0.0
C390 C 0.0797 0.58902 0.95336 0.0
C391 C 0.0848 0.56573 0.00467 0.0
C392 C 0.08947 0.63212 0.96856 0.0
C393 C 0.09685 0.64216 0.00132 0.0
H394 H 0.68685 0.15225 0.37803 0.0
H395 H 0.59479 0.99111 0.38111 0.0
H396 H 0.57289 0.97289 0.3239 0.0
H397 H 0.57959 1.00257 0.2735 0.0
H398 H 0.66145 0.16161 0.27006 0.0
H399 H 0.68959 0.18138 0.32674 0.0
C400 C 0.66208 0.11329 0.36596 0.0
C401 C 0.64247 0.07296 0.38335 0.0
C402 C 0.64839 0.10293 0.33312 0.0
C403 C 0.6101 0.02251 0.3679 0.0
C404 C 0.59773 0.01219 0.3353 0.0
C405 C 0.60262 0.04145 0.28502 0.0
C406 C 0.61776 0.08031 0.26724 0.0
C407 C 0.6164 0.05203 0.31771 0.0
C408 C 0.64968 0.13088 0.28284 0.0
C409 C 0.66532 0.14217 0.31538 0.0
H410 H 0.67053 0.57677 0.76607 0.0
H411 H 0.49555 0.53577 0.7529 0.0
H412 H 0.50909 0.54968 0.69791 0.0
H413 H 0.56476 0.56318 0.65216 0.0
H414 H 0.73471 0.59553 0.66377 0.0
H415 H 0.72968 0.59579 0.72059 0.0
C416 C 0.63613 0.572 0.75124 0.0
C417 C 0.58214 0.5553 0.76335 0.0
C418 C 0.64313 0.57801 0.71925 0.0
C419 C 0.53739 0.54849 0.74392 0.0
C420 C 0.54503 0.5563 0.71249 0.0
C421 C 0.60133 0.5715 0.6673 0.0
C422 C 0.65013 0.57956 0.65398 0.0
C423 C 0.59684 0.56958 0.69967 0.0
C424 C 0.69674 0.58929 0.67365 0.0
C425 C 0.69375 0.58926 0.70606 0.0
H426 H 0.69244 0.14797 0.57457 0.0
H427 H 0.51947 0.99123 0.55164 0.0
H428 H 0.51648 0.97751 0.60659 0.0
H429 H 0.55621 0.01358 0.66192 0.0
H430 H 0.72268 0.17328 0.68605 0.0
H431 H 0.7358 0.18256 0.63027 0.0
C432 C 0.65494 0.1106 0.58168 0.0
C433 C 0.60622 0.07062 0.55931 0.0
C434 C 0.6522 0.10378 0.61363 0.0
C435 C 0.55727 0.02255 0.56864 0.0
C436 C 0.5555 0.01472 0.60002 0.0
C437 C 0.59615 0.0499 0.65486 0.0
C438 C 0.63877 0.09253 0.67786 0.0
C439 C 0.60172 0.05552 0.62285 0.0
C440 C 0.68962 0.13989 0.6686 0.0
C441 C 0.69688 0.14523 0.63676 0.0
H442 H 0.49359 0.46541 0.91817 0.0
H443 H 0.67554 0.58888 0.96478 0.0
H444 H 0.65175 0.5376 0.00751 0.0
H445 H 0.58062 0.45692 0.03046 0.0
H446 H 0.40405 0.3284 0.97958 0.0
H447 H 0.4243 0.38269 0.93979 0.0
C448 C 0.52822 0.48089 0.93754 0.0
C449 C 0.58649 0.53054 0.93817 0.0
C450 C 0.51514 0.45031 0.96124 0.0
C451 C 0.63046 0.55061 0.96373 0.0
C452 C 0.61692 0.52126 0.98809 0.0
C453 C 0.54678 0.44007 0.01044 0.0
C454 C 0.49082 0.38813 0.00827 0.0
C455 C 0.55971 0.47074 0.98683 0.0
C456 C 0.44711 0.36827 0.98244 0.0
C457 C 0.45883 0.39921 0.95942 0.0
H458 H 0.06727 0.52206 0.2518 0.0
H459 H 0.25992 0.64492 0.24474 0.0
H460 H 0.28113 0.6599 0.30195 0.0
H461 H 0.24522 0.63774 0.3534 0.0
H462 H 1.05118 0.52227 0.36181 0.0
H463 H 1.03032 0.50307 0.30463 0.0
C464 C 0.11371 0.55218 0.263 0.0
C465 C 0.16216 0.58252 0.24444 0.0
C466 C 0.12529 0.5613 0.29598 0.0
C467 C 0.22217 0.62148 0.25882 0.0
C468 C 0.23422 0.62982 0.29142 0.0
C469 C 0.19805 0.60907 0.343 0.0
C470 C 0.14992 0.5821 0.36232 0.0
C471 C 0.18614 0.60004 0.3102 0.0
C472 C 0.08946 0.54348 0.34785 0.0
C473 C 0.07735 0.53282 0.31505 0.0
loop_
_geom_bond_atom_site_label_1
_geom_bond_atom_site_label_2
_geom_bond_distance
_geom_bond_site_symmetry_2
_ccdc_geom_bond_type
Gd0 C3 2.818 . S
Gd0 O20 2.377 . S
Gd0 O22 2.448 . S
Gd0 O23 2.506 . S
Gd0 O24 2.435 . S
Gd0 O25 2.717 . S
Gd0 O27 2.395 1_455 S
Gd0 O31 2.327 . S
Gd1 C12 2.818 1_455 S
Gd1 O21 2.395 . S
Gd1 O25 2.327 . S
Gd1 O26 2.377 1_455 S
Gd1 O28 2.448 1_455 S
Gd1 O29 2.506 1_455 S
Gd1 O30 2.435 . S
Gd1 O31 2.717 . S
C2 O20 1.240 . S
C2 O21 1.240 . S
C3 Gd0 2.818 . S
C3 C4 1.510 . S
C3 O22 1.249 . S
C3 O23 1.252 . S
C4 C3 1.510 . S
C4 C5 1.404 . S
C4 C6 1.352 . S
C5 C4 1.404 . S
C5 C9 1.389 . S
C5 H32 0.930 . S
C6 C4 1.352 . S
C6 C8 1.374 . S
C6 H33 0.931 . S
C7 C8 1.359 . S
C7 C9 1.364 . S
C8 C6 1.374 . S
C8 C7 1.359 . S
C8 H34 0.931 . S
C9 C5 1.389 . S
C9 C7 1.364 . S
C9 H35 0.931 . S
C10 O24 1.256 . S
C10 O25 1.257 . S
C11 O26 1.240 . S
C11 O27 1.240 . S
C12 Gd1 2.818 1_655 S
C12 C13 1.510 . S
C12 O28 1.249 . S
C12 O29 1.252 . S
C13 C12 1.510 . S
C13 C14 1.404 . S
C13 C15 1.352 . S
C14 C13 1.404 . S
C14 C18 1.389 . S
C14 H36 0.930 . S
C15 C13 1.352 . S
C15 C17 1.374 . S
C15 H37 0.931 . S
C16 C17 1.359 . S
C16 C18 1.364 . S
C17 C15 1.374 . S
C17 C16 1.359 . S
C17 H38 0.931 . S
C18 C14 1.389 . S
C18 C16 1.364 . S
C18 H39 0.931 . S
C19 O30 1.256 . S
C19 O31 1.257 . S
O20 Gd0 2.377 . S
O20 C2 1.240 . S
O21 Gd1 2.395 . S
O21 C2 1.240 . S
O22 Gd0 2.448 . S
O22 C3 1.249 . S
O23 Gd0 2.506 . S
O23 C3 1.252 . S
O24 Gd0 2.435 . S
O24 C10 1.256 . S
O25 Gd0 2.717 . S
O25 Gd1 2.327 . S
O25 C10 1.257 . S
O26 Gd1 2.377 1_655 S
O26 C11 1.240 . S
O27 Gd0 2.395 1_655 S
O27 C11 1.240 . S
O28 Gd1 2.448 1_655 S
O28 C12 1.249 . S
O29 Gd1 2.506 1_655 S
O29 C12 1.252 . S
O30 Gd1 2.435 . S
O30 C19 1.256 . S
O31 Gd0 2.327 . S
O31 Gd1 2.717 . S
O31 C19 1.257 . S
H32 C5 0.930 . S
H33 C6 0.931 . S
H34 C8 0.931 . S
H35 C9 0.931 . S
H36 C14 0.930 . S
H37 C15 0.931 . S
H38 C17 0.931 . S
H39 C18 0.931 . S
Gd40 C43 2.818 1_545 S
Gd40 O60 2.377 1_545 S
Gd40 O62 2.448 1_545 S
Gd40 O63 2.506 1_545 S
Gd40 O64 2.435 . S
Gd40 O65 2.717 . S
Gd40 O67 2.395 . S
Gd40 O71 2.327 . S
Gd41 C52 2.818 . S
Gd41 O61 2.395 1_545 S
Gd41 O65 2.327 . S
Gd41 O66 2.377 . S
Gd41 O68 2.448 . S
Gd41 O69 2.506 . S
Gd41 O70 2.435 . S
Gd41 O71 2.717 . S
C42 O60 1.240 . S
C42 O61 1.240 . S
C43 Gd40 2.818 1_565 S
C43 C44 1.510 . S
C43 O62 1.249 . S
C43 O63 1.252 . S
C44 C43 1.510 . S
C44 C45 1.404 . S
C44 C46 1.352 . S
C45 C44 1.404 . S
C45 C49 1.389 . S
C45 H72 0.930 . S
C46 C44 1.352 . S
C46 C48 1.374 . S
C46 H73 0.931 . S
C47 C48 1.359 . S
C47 C49 1.364 . S
C48 C46 1.374 . S
C48 C47 1.359 . S
C48 H74 0.931 . S
C49 C45 1.389 . S
C49 C47 1.364 . S
C49 H75 0.931 . S
C50 O64 1.256 . S
C50 O65 1.257 . S
C51 O66 1.240 . S
C51 O67 1.240 . S
C52 Gd41 2.818 . S
C52 C53 1.510 . S
C52 O68 1.249 . S
C52 O69 1.252 . S
C53 C52 1.510 . S
C53 C54 1.404 . S
C53 C55 1.352 . S
C54 C53 1.404 . S
C54 C58 1.389 . S
C54 H76 0.930 . S
C55 C53 1.352 . S
C55 C57 1.374 . S
C55 H77 0.931 . S
C56 C57 1.359 . S
C56 C58 1.364 . S
C57 C55 1.374 . S
C57 C56 1.359 . S
C57 H78 0.931 . S
C58 C54 1.389 . S
C58 C56 1.364 . S
C58 H79 0.931 . S
C59 O70 1.256 . S
C59 O71 1.257 . S
O60 Gd40 2.377 1_565 S
O60 C42 1.240 . S
O61 Gd41 2.395 1_565 S
O61 C42 1.240 . S
O62 Gd40 2.448 1_565 S
O62 C43 1.249 . S
O63 Gd40 2.506 1_565 S
O63 C43 1.252 . S
O64 Gd40 2.435 . S
O64 C50 1.256 . S
O65 Gd40 2.717 . S
O65 Gd41 2.327 . S
O65 C50 1.257 . S
O66 Gd41 2.377 . S
O66 C51 1.240 . S
O67 Gd40 2.395 . S
O67 C51 1.240 . S
O68 Gd41 2.448 . S
O68 C52 1.249 . S
O69 Gd41 2.506 . S
O69 C52 1.252 . S
O70 Gd41 2.435 . S
O70 C59 1.256 . S
O71 Gd40 2.327 . S
O71 Gd41 2.717 . S
O71 C59 1.257 . S
H72 C45 0.930 . S
H73 C46 0.931 . S
H74 C48 0.931 . S
H75 C49 0.931 . S
H76 C54 0.930 . S
H77 C55 0.931 . S
H78 C57 0.931 . S
H79 C58 0.931 . S
Gd80 C83 2.818 . S
Gd80 O100 2.377 . S
Gd80 O102 2.448 . S
Gd80 O103 2.506 . S
Gd80 O104 2.435 . S
Gd80 O105 2.717 . S
Gd80 O107 2.395 . S
Gd80 O111 2.327 . S
Gd81 C92 2.818 . S
Gd81 O101 2.395 . S
Gd81 O105 2.327 . S
Gd81 O106 2.377 . S
Gd81 O108 2.448 . S
Gd81 O109 2.506 . S
Gd81 O110 2.435 . S
Gd81 O111 2.717 . S
C82 O100 1.240 . S
C82 O101 1.240 . S
C83 Gd80 2.818 . S
C83 C84 1.510 . S
C83 O102 1.249 . S
C83 O103 1.252 . S
C84 C83 1.510 . S
C84 C85 1.404 . S
C84 C86 1.352 . S
C85 C84 1.404 . S
C85 C89 1.389 . S
C85 H112 0.930 . S
C86 C84 1.352 . S
C86 C88 1.374 . S
C86 H113 0.931 . S
C87 C88 1.359 . S
C87 C89 1.364 . S
C88 C86 1.374 . S
C88 C87 1.359 . S
C88 H114 0.931 . S
C89 C85 1.389 . S
C89 C87 1.364 . S
C89 H115 0.931 . S
C90 O104 1.256 . S
C90 O105 1.257 . S
C91 O106 1.240 . S
C91 O107 1.240 . S
C92 Gd81 2.818 . S
C92 C93 1.510 . S
C92 O108 1.249 . S
C92 O109 1.252 . S
C93 C92 1.510 . S
C93 C94 1.404 . S
C93 C95 1.352 . S
C94 C93 1.404 . S
C94 C98 1.389 . S
C94 H116 0.930 . S
C95 C93 1.352 . S
C95 C97 1.374 . S
C95 H117 0.931 . S
C96 C97 1.359 . S
C96 C98 1.364 . S
C97 C95 1.374 . S
C97 C96 1.359 . S
C97 H118 0.931 . S
C98 C94 1.389 . S
C98 C96 1.364 . S
C98 H119 0.931 . S
C99 O110 1.256 . S
C99 O111 1.257 . S
O100 Gd80 2.377 . S
O100 C82 1.240 . S
O101 Gd81 2.395 . S
O101 C82 1.240 . S
O102 Gd80 2.448 . S
O102 C83 1.249 . S
O103 Gd80 2.506 . S
O103 C83 1.252 . S
O104 Gd80 2.435 . S
O104 C90 1.256 . S
O105 Gd80 2.717 . S
O105 Gd81 2.327 . S
O105 C90 1.257 . S
O106 Gd81 2.377 . S
O106 C91 1.240 . S
O107 Gd80 2.395 . S
O107 C91 1.240 . S
O108 Gd81 2.448 . S
O108 C92 1.249 . S
O109 Gd81 2.506 . S
O109 C92 1.252 . S
O110 Gd81 2.435 . S
O110 C99 1.256 . S
O111 Gd80 2.327 . S
O111 Gd81 2.717 . S
O111 C99 1.257 . S
H112 C85 0.930 . S
H113 C86 0.931 . S
H114 C88 0.931 . S
H115 C89 0.931 . S
H116 C94 0.930 . S
H117 C95 0.931 . S
H118 C97 0.931 . S
H119 C98 0.931 . S
H120 C123 0.929 . S
H121 C126 0.929 . S
H122 C128 0.930 . S
C123 H120 0.929 . S
C123 C124 1.398 . S
C123 C125 1.396 1_565 S
C124 C123 1.398 . S
C124 C128 1.407 1_565 S
C125 C123 1.396 1_545 S
C125 C126 1.394 . S
C126 H121 0.929 . S
C126 C125 1.394 . S
C126 C127 1.382 . S
C127 C126 1.382 . S
C127 C128 1.392 . S
C127 N129 1.420 . S
C128 H122 0.930 . S
C128 C124 1.407 1_545 S
C128 C127 1.392 . S
N129 C127 1.420 . S
N129 C130 1.244 . S
C130 N129 1.244 . S
H131 C134 0.929 . S
H132 C137 0.929 . S
H133 C139 0.930 . S
C134 H131 0.929 . S
C134 C135 1.398 . S
C134 C136 1.396 . S
C135 C134 1.398 . S
C135 C139 1.407 . S
C136 C134 1.396 . S
C136 C137 1.394 . S
C137 H132 0.929 . S
C137 C136 1.394 . S
C137 C138 1.382 . S
C138 C137 1.382 . S
C138 C139 1.392 . S
C138 N140 1.420 . S
C139 H133 0.930 . S
C139 C135 1.407 . S
C139 C138 1.392 . S
N140 C138 1.420 . S
N140 C141 1.244 . S
C141 N140 1.244 . S
H142 C145 0.929 . S
H143 C148 0.929 . S
H144 C150 0.930 . S
C145 H142 0.929 . S
C145 C146 1.398 . S
C145 C147 1.396 . S
C146 C145 1.398 . S
C146 C150 1.407 . S
C147 C145 1.396 . S
C147 C148 1.394 . S
C148 H143 0.929 . S
C148 C147 1.394 . S
C148 C149 1.382 . S
C149 C148 1.382 . S
C149 C150 1.392 . S
C149 N151 1.420 . S
C150 H144 0.930 . S
C150 C146 1.407 . S
C150 C149 1.392 . S
N151 C149 1.420 . S
N151 C152 1.244 . S
C152 N151 1.244 . S
H153 C156 0.929 . S
H154 C159 0.929 . S
H155 C161 0.930 . S
C156 H153 0.929 . S
C156 C157 1.398 . S
C156 C158 1.396 . S
C157 C156 1.398 . S
C157 C161 1.407 . S
C158 C156 1.396 . S
C158 C159 1.394 1_455 S
C159 H154 0.929 . S
C159 C158 1.394 1_655 S
C159 C160 1.382 . S
C160 C159 1.382 . S
C160 C161 1.392 1_655 S
C160 N162 1.420 . S
C161 H155 0.930 . S
C161 C157 1.407 . S
C161 C160 1.392 1_455 S
N162 C160 1.420 . S
N162 C163 1.244 . S
C163 N162 1.244 . S
H164 C167 0.929 . S
H165 C170 0.929 1_565 S
H166 C172 0.930 . S
C167 H164 0.929 . S
C167 C168 1.398 . S
C167 C169 1.396 . S
C168 C167 1.398 . S
C168 C172 1.407 . S
C169 C167 1.396 . S
C169 C170 1.394 . S
C170 H165 0.929 1_545 S
C170 C169 1.394 . S
C170 C171 1.382 . S
C171 C170 1.382 . S
C171 C172 1.392 . S
C171 N173 1.445 . S
C172 H166 0.930 . S
C172 C168 1.407 . S
C172 C171 1.392 . S
N173 C171 1.445 . S
N173 C174 1.220 1_545 S
C174 N173 1.220 1_565 S
H175 C178 0.929 . S
H176 C181 0.929 . S
H177 C183 0.930 . S
C178 H175 0.929 . S
C178 C179 1.398 . S
C178 C180 1.396 . S
C179 C178 1.398 . S
C179 C183 1.407 . S
C180 C178 1.396 . S
C180 C181 1.394 . S
C181 H176 0.929 . S
C181 C180 1.394 . S
C181 C182 1.382 . S
C182 C181 1.382 . S
C182 C183 1.392 . S
C182 N184 1.420 . S
C183 H177 0.930 . S
C183 C179 1.407 . S
C183 C182 1.392 . S
N184 C182 1.420 . S
N184 C185 1.244 . S
C185 N184 1.244 . S
H186 C192 0.930 . S
H187 C195 0.930 . S
H188 C196 0.930 . S
H189 C197 0.930 . S
H190 C200 0.930 . S
H191 C201 0.930 . S
C192 H186 0.930 . S
C192 C193 1.355 . S
C192 C194 1.415 . S
C193 C192 1.355 . S
C193 C195 1.419 . S
C194 C192 1.415 . S
C194 C199 1.425 . S
C194 C201 1.409 . S
C195 H187 0.930 . S
C195 C193 1.419 . S
C195 C196 1.362 . S
C196 H188 0.930 . S
C196 C195 1.362 . S
C196 C199 1.409 . S
C197 H189 0.930 . S
C197 C198 1.355 . S
C197 C199 1.415 . S
C198 C197 1.355 . S
C198 C200 1.419 . S
C199 C194 1.425 . S
C199 C196 1.409 . S
C199 C197 1.415 . S
C200 H190 0.930 . S
C200 C198 1.419 . S
C200 C201 1.362 . S
C201 H191 0.930 . S
C201 C194 1.409 . S
C201 C200 1.362 . S
H202 C208 0.930 . S
H203 C211 0.930 . S
H204 C212 0.930 . S
H205 C213 0.930 . S
H206 C216 0.930 . S
H207 C217 0.930 . S
C208 H202 0.930 . S
C208 C209 1.355 . S
C208 C210 1.415 . S
C209 C208 1.355 . S
C209 C211 1.419 . S
C210 C208 1.415 . S
C210 C215 1.425 . S
C210 C217 1.409 . S
C211 H203 0.930 . S
C211 C209 1.419 . S
C211 C212 1.362 . S
C212 H204 0.930 . S
C212 C211 1.362 . S
C212 C215 1.409 . S
C213 H205 0.930 . S
C213 C214 1.355 . S
C213 C215 1.415 . S
C214 C213 1.355 . S
C214 C216 1.419 . S
C215 C210 1.425 . S
C215 C212 1.409 . S
C215 C213 1.415 . S
C216 H206 0.930 . S
C216 C214 1.419 . S
C216 C217 1.362 . S
C217 H207 0.930 . S
C217 C210 1.409 . S
C217 C216 1.362 . S
H218 C224 0.930 . S
H219 C227 0.930 . S
H220 C228 0.930 . S
H221 C229 0.930 . S
H222 C232 0.930 . S
H223 C233 0.930 . S
C224 H218 0.930 . S
C224 C225 1.355 . S
C224 C226 1.415 . S
C225 C224 1.355 . S
C225 C227 1.419 . S
C226 C224 1.415 . S
C226 C231 1.425 . S
C226 C233 1.409 . S
C227 H219 0.930 . S
C227 C225 1.419 . S
C227 C228 1.362 . S
C228 H220 0.930 . S
C228 C227 1.362 . S
C228 C231 1.409 . S
C229 H221 0.930 . S
C229 C230 1.355 . S
C229 C231 1.415 . S
C230 C229 1.355 . S
C230 C232 1.419 . S
C231 C226 1.425 . S
C231 C228 1.409 . S
C231 C229 1.415 . S
C232 H222 0.930 . S
C232 C230 1.419 . S
C232 C233 1.362 . S
C233 H223 0.930 . S
C233 C226 1.409 . S
C233 C232 1.362 . S
H234 C240 0.930 . S
H235 C243 0.930 . S
H236 C244 0.930 . S
H237 C245 0.930 . S
H238 C248 0.930 . S
H239 C249 0.930 . S
C240 H234 0.930 . S
C240 C241 1.355 . S
C240 C242 1.415 . S
C241 C240 1.355 . S
C241 C243 1.419 . S
C242 C240 1.415 . S
C242 C247 1.425 . S
C242 C249 1.409 . S
C243 H235 0.930 . S
C243 C241 1.419 . S
C243 C244 1.362 . S
C244 H236 0.930 . S
C244 C243 1.362 . S
C244 C247 1.409 . S
C245 H237 0.930 . S
C245 C246 1.355 . S
C245 C247 1.415 . S
C246 C245 1.355 . S
C246 C248 1.419 . S
C247 C242 1.425 . S
C247 C244 1.409 . S
C247 C245 1.415 . S
C248 H238 0.930 . S
C248 C246 1.419 . S
C248 C249 1.362 . S
C249 H239 0.930 . S
C249 C242 1.409 . S
C249 C248 1.362 . S
H250 C256 0.930 . S
H251 C259 0.930 . S
H252 C260 0.930 . S
H253 C261 0.930 . S
H254 C264 0.930 . S
H255 C265 0.930 . S
C256 H250 0.930 . S
C256 C257 1.355 . S
C256 C258 1.415 . S
C257 C256 1.355 . S
C257 C259 1.419 . S
C258 C256 1.415 . S
C258 C263 1.425 . S
C258 C265 1.409 . S
C259 H251 0.930 . S
C259 C257 1.419 . S
C259 C260 1.362 . S
C260 H252 0.930 . S
C260 C259 1.362 . S
C260 C263 1.409 . S
C261 H253 0.930 . S
C261 C262 1.355 . S
C261 C263 1.415 . S
C262 C261 1.355 . S
C262 C264 1.419 . S
C263 C258 1.425 . S
C263 C260 1.409 . S
C263 C261 1.415 . S
C264 H254 0.930 . S
C264 C262 1.419 . S
C264 C265 1.362 . S
C265 H255 0.930 . S
C265 C258 1.409 . S
C265 C264 1.362 . S
H266 C272 0.930 . S
H267 C275 0.930 . S
H268 C276 0.930 . S
H269 C277 0.930 . S
H270 C280 0.930 . S
H271 C281 0.930 . S
C272 H266 0.930 . S
C272 C273 1.355 . S
C272 C274 1.415 . S
C273 C272 1.355 . S
C273 C275 1.419 . S
C274 C272 1.415 . S
C274 C279 1.425 . S
C274 C281 1.409 . S
C275 H267 0.930 . S
C275 C273 1.419 . S
C275 C276 1.362 . S
C276 H268 0.930 . S
C276 C275 1.362 . S
C276 C279 1.409 . S
C277 H269 0.930 . S
C277 C278 1.355 . S
C277 C279 1.415 . S
C278 C277 1.355 . S
C278 C280 1.419 . S
C279 C274 1.425 . S
C279 C276 1.409 . S
C279 C277 1.415 . S
C280 H270 0.930 . S
C280 C278 1.419 . S
C280 C281 1.362 . S
C281 H271 0.930 . S
C281 C274 1.409 . S
C281 C280 1.362 . S
H282 C288 0.930 . S
H283 C291 0.930 . S
H284 C292 0.930 . S
H285 C293 0.930 . S
H286 C296 0.930 . S
H287 C297 0.930 . S
C288 H282 0.930 . S
C288 C289 1.355 . S
C288 C290 1.415 . S
C289 C288 1.355 . S
C289 C291 1.419 . S
C290 C288 1.415 . S
C290 C295 1.425 . S
C290 C297 1.409 . S
C291 H283 0.930 . S
C291 C289 1.419 . S
C291 C292 1.362 . S
C292 H284 0.930 . S
C292 C291 1.362 . S
C292 C295 1.409 . S
C293 H285 0.930 . S
C293 C294 1.355 . S
C293 C295 1.415 . S
C294 C293 1.355 . S
C294 C296 1.419 . S
C295 C290 1.425 . S
C295 C292 1.409 . S
C295 C293 1.415 . S
C296 H286 0.930 . S
C296 C294 1.419 . S
C296 C297 1.362 . S
C297 H287 0.930 . S
C297 C290 1.409 . S
C297 C296 1.362 . S
H298 C304 0.930 . S
H299 C307 0.930 . S
H300 C308 0.930 . S
H301 C309 0.930 . S
H302 C312 0.930 . S
H303 C313 0.930 . S
C304 H298 0.930 . S
C304 C305 1.355 . S
C304 C306 1.415 . S
C305 C304 1.355 . S
C305 C307 1.419 . S
C306 C304 1.415 . S
C306 C311 1.425 . S
C306 C313 1.409 . S
C307 H299 0.930 . S
C307 C305 1.419 . S
C307 C308 1.362 . S
C308 H300 0.930 . S
C308 C307 1.362 . S
C308 C311 1.409 . S
C309 H301 0.930 . S
C309 C310 1.355 . S
C309 C311 1.415 . S
C310 C309 1.355 . S
C310 C312 1.419 . S
C311 C306 1.425 . S
C311 C308 1.409 . S
C311 C309 1.415 . S
C312 H302 0.930 . S
C312 C310 1.419 . S
C312 C313 1.362 . S
C313 H303 0.930 . S
C313 C306 1.409 . S
C313 C312 1.362 . S
H314 C320 0.930 . S
H315 C323 0.930 . S
H316 C324 0.930 . S
H317 C325 0.930 . S
H318 C328 0.930 . S
H319 C329 0.930 . S
C320 H314 0.930 . S
C320 C321 1.355 . S
C320 C322 1.415 . S
C321 C320 1.355 . S
C321 C323 1.419 . S
C322 C320 1.415 . S
C322 C327 1.425 . S
C322 C329 1.409 . S
C323 H315 0.930 . S
C323 C321 1.419 . S
C323 C324 1.362 . S
C324 H316 0.930 . S
C324 C323 1.362 . S
C324 C327 1.409 . S
C325 H317 0.930 . S
C325 C326 1.355 . S
C325 C327 1.415 . S
C326 C325 1.355 . S
C326 C328 1.419 . S
C327 C322 1.425 . S
C327 C324 1.409 . S
C327 C325 1.415 . S
C328 H318 0.930 . S
C328 C326 1.419 . S
C328 C329 1.362 . S
C329 H319 0.930 . S
C329 C322 1.409 . S
C329 C328 1.362 . S
H330 C336 0.930 . S
H331 C339 0.930 . S
H332 C340 0.930 . S
H333 C341 0.930 . S
H334 C344 0.930 . S
H335 C345 0.930 . S
C336 H330 0.930 . S
C336 C337 1.355 . S
C336 C338 1.415 . S
C337 C336 1.355 . S
C337 C339 1.419 . S
C338 C336 1.415 . S
C338 C343 1.425 . S
C338 C345 1.409 . S
C339 H331 0.930 . S
C339 C337 1.419 . S
C339 C340 1.362 . S
C340 H332 0.930 . S
C340 C339 1.362 . S
C340 C343 1.409 . S
C341 H333 0.930 . S
C341 C342 1.355 . S
C341 C343 1.415 . S
C342 C341 1.355 . S
C342 C344 1.419 . S
C343 C338 1.425 . S
C343 C340 1.409 . S
C343 C341 1.415 . S
C344 H334 0.930 . S
C344 C342 1.419 . S
C344 C345 1.362 . S
C345 H335 0.930 . S
C345 C338 1.409 . S
C345 C344 1.362 . S
H346 C352 0.930 . S
H347 C355 0.930 . S
H348 C356 0.930 . S
H349 C357 0.930 . S
H350 C360 0.930 . S
H351 C361 0.930 . S
C352 H346 0.930 . S
C352 C353 1.355 . S
C352 C354 1.415 . S
C353 C352 1.355 . S
C353 C355 1.419 . S
C354 C352 1.415 . S
C354 C359 1.425 . S
C354 C361 1.409 . S
C355 H347 0.930 . S
C355 C353 1.419 . S
C355 C356 1.362 . S
C356 H348 0.930 . S
C356 C355 1.362 . S
C356 C359 1.409 . S
C357 H349 0.930 . S
C357 C358 1.355 . S
C357 C359 1.415 . S
C358 C357 1.355 . S
C358 C360 1.419 . S
C359 C354 1.425 . S
C359 C356 1.409 . S
C359 C357 1.415 . S
C360 H350 0.930 . S
C360 C358 1.419 . S
C360 C361 1.362 . S
C361 H351 0.930 . S
C361 C354 1.409 . S
C361 C360 1.362 . S
H362 C368 0.930 . S
H363 C371 0.930 . S
H364 C372 0.930 . S
H365 C373 0.930 . S
H366 C376 0.930 . S
H367 C377 0.930 . S
C368 H362 0.930 . S
C368 C369 1.355 . S
C368 C370 1.415 . S
C369 C368 1.355 . S
C369 C371 1.419 . S
C370 C368 1.415 . S
C370 C375 1.425 . S
C370 C377 1.409 . S
C371 H363 0.930 . S
C371 C369 1.419 . S
C371 C372 1.362 . S
C372 H364 0.930 . S
C372 C371 1.362 . S
C372 C375 1.409 . S
C373 H365 0.930 . S
C373 C374 1.355 . S
C373 C375 1.415 . S
C374 C373 1.355 . S
C374 C376 1.419 . S
C375 C370 1.425 . S
C375 C372 1.409 . S
C375 C373 1.415 . S
C376 H366 0.930 . S
C376 C374 1.419 . S
C376 C377 1.362 . S
C377 H367 0.930 . S
C377 C370 1.409 . S
C377 C376 1.362 . S
H378 C384 0.930 . S
H379 C387 0.930 . S
H380 C388 0.930 . S
H381 C389 0.930 1_655 S
H382 C392 0.930 . S
H383 C393 0.930 . S
C384 H378 0.930 . S
C384 C385 1.355 . S
C384 C386 1.415 . S
C385 C384 1.355 . S
C385 C387 1.419 1_455 S
C386 C384 1.415 . S
C386 C391 1.425 . S
C386 C393 1.409 . S
C387 H379 0.930 . S
C387 C385 1.419 1_655 S
C387 C388 1.362 . S
C388 H380 0.930 . S
C388 C387 1.362 . S
C388 C391 1.409 1_655 S
C389 H381 0.930 1_455 S
C389 C390 1.355 . S
C389 C391 1.415 1_556 S
C390 C389 1.355 . S
C390 C392 1.419 . S
C391 C386 1.425 . S
C391 C388 1.409 1_455 S
C391 C389 1.415 1_554 S
C392 H382 0.930 . S
C392 C390 1.419 . S
C392 C393 1.362 1_556 S
C393 H383 0.930 . S
C393 C386 1.409 . S
C393 C392 1.362 1_554 S
H394 C400 0.930 . S
H395 C403 0.930 . S
H396 C404 0.930 . S
H397 C405 0.930 1_565 S
H398 C408 0.930 . S
H399 C409 0.930 . S
C400 H394 0.930 . S
C400 C401 1.355 . S
C400 C402 1.415 . S
C401 C400 1.355 . S
C401 C403 1.419 1_545 S
C402 C400 1.415 . S
C402 C407 1.425 . S
C402 C409 1.409 . S
C403 H395 0.930 . S
C403 C401 1.419 1_565 S
C403 C404 1.362 . S
C404 H396 0.930 . S
C404 C403 1.362 . S
C404 C407 1.409 1_565 S
C405 H397 0.930 1_545 S
C405 C406 1.355 . S
C405 C407 1.415 . S
C406 C405 1.355 . S
C406 C408 1.419 . S
C407 C402 1.425 . S
C407 C404 1.409 1_545 S
C407 C405 1.415 . S
C408 H398 0.930 . S
C408 C406 1.419 . S
C408 C409 1.362 . S
C409 H399 0.930 . S
C409 C402 1.409 . S
C409 C408 1.362 . S
H410 C416 0.930 . S
H411 C419 0.930 . S
H412 C420 0.930 . S
H413 C421 0.930 . S
H414 C424 0.930 . S
H415 C425 0.930 . S
C416 H410 0.930 . S
C416 C417 1.355 . S
C416 C418 1.415 . S
C417 C416 1.355 . S
C417 C419 1.419 . S
C418 C416 1.415 . S
C418 C423 1.425 . S
C418 C425 1.409 . S
C419 H411 0.930 . S
C419 C417 1.419 . S
C419 C420 1.362 . S
C420 H412 0.930 . S
C420 C419 1.362 . S
C420 C423 1.409 . S
C421 H413 0.930 . S
C421 C422 1.355 . S
C421 C423 1.415 . S
C422 C421 1.355 . S
C422 C424 1.419 . S
C423 C418 1.425 . S
C423 C420 1.409 . S
C423 C421 1.415 . S
C424 H414 0.930 . S
C424 C422 1.419 . S
C424 C425 1.362 . S
C425 H415 0.930 . S
C425 C418 1.409 . S
C425 C424 1.362 . S
H426 C432 0.930 . S
H427 C435 0.930 . S
H428 C436 0.930 . S
H429 C437 0.943 . S
H430 C440 0.930 . S
H431 C441 0.930 . S
C432 H426 0.930 . S
C432 C433 1.355 . S
C432 C434 1.415 . S
C433 C432 1.355 . S
C433 C435 1.419 1_545 S
C434 C432 1.415 . S
C434 C439 1.425 . S
C434 C441 1.409 . S
C435 H427 0.930 . S
C435 C433 1.419 1_565 S
C435 C436 1.362 . S
C436 H428 0.930 . S
C436 C435 1.362 . S
C436 C439 1.409 1_565 S
C437 H429 0.943 . S
C437 C438 1.347 1_565 S
C437 C439 1.409 1_565 S
C438 C437 1.347 1_545 S
C438 C440 1.419 . S
C439 C434 1.425 . S
C439 C436 1.409 1_545 S
C439 C437 1.409 1_545 S
C440 H430 0.930 . S
C440 C438 1.419 . S
C440 C441 1.362 . S
C441 H431 0.930 . S
C441 C434 1.409 . S
C441 C440 1.362 . S
H442 C448 0.930 . S
H443 C451 0.930 . S
H444 C452 0.930 . S
H445 C453 0.930 . S
H446 C456 0.930 . S
H447 C457 0.930 . S
C448 H442 0.930 . S
C448 C449 1.355 . S
C448 C450 1.415 . S
C449 C448 1.355 . S
C449 C451 1.419 . S
C450 C448 1.415 . S
C450 C455 1.425 . S
C450 C457 1.409 . S
C451 H443 0.930 . S
C451 C449 1.419 . S
C451 C452 1.362 . S
C452 H444 0.930 . S
C452 C451 1.362 . S
C452 C455 1.409 . S
C453 H445 0.930 . S
C453 C454 1.355 . S
C453 C455 1.415 1_554 S
C454 C453 1.355 . S
C454 C456 1.419 . S
C455 C450 1.425 . S
C455 C452 1.409 . S
C455 C453 1.415 1_556 S
C456 H446 0.930 . S
C456 C454 1.419 . S
C456 C457 1.362 1_554 S
C457 H447 0.930 . S
C457 C450 1.409 . S
C457 C456 1.362 1_556 S
H458 C464 0.930 1_655 S
H459 C467 0.930 . S
H460 C468 0.930 . S
H461 C469 0.930 . S
H462 C472 0.930 . S
H463 C473 0.930 . S
C464 H458 0.930 1_455 S
C464 C465 1.355 . S
C464 C466 1.415 . S
C465 C464 1.355 . S
C465 C467 1.419 . S
C466 C464 1.415 . S
C466 C471 1.425 . S
C466 C473 1.409 1_455 S
C467 H459 0.930 . S
C467 C465 1.419 . S
C467 C468 1.362 . S
C468 H460 0.930 . S
C468 C467 1.362 . S
C468 C471 1.409 . S
C469 H461 0.930 . S
C469 C470 1.355 . S
C469 C471 1.415 . S
C470 C469 1.355 . S
C470 C472 1.419 1_455 S
C471 C466 1.425 . S
C471 C468 1.409 . S
C471 C469 1.415 . S
C472 H462 0.930 . S
C472 C470 1.419 1_655 S
C472 C473 1.362 . S
C473 H463 0.930 . S
C473 C466 1.409 1_655 S
C473 C472 1.362 . S
C193 C7 0.829 . S
C198 C185 0.914 . S
C209 C51 1.941 . S
C214 C163 1.862 . S
C225 C87 1.322 . S
C230 C174 1.349 . S
C241 C16 0.575 . S
C246 C179 0.377 . S
C262 C157 1.848 . S
C257 C42 1.892 . S
C278 C168 1.201 . S
C273 C96 1.211 . S
C289 C47 1.346 . S
C294 C141 1.328 . S
C305 C91 3.051 . S
C310 C146 3.001 1_655 S
C321 C2 1.944 . S
C326 C124 1.886 . S
C342 C135 1.216 . S
C337 C56 1.195 . S
C358 C152 3.005 . S
C353 C82 3.035 . S
C369 C11 1.938 . S
C374 C130 1.918 . S
C390 C147 1.739 . S
C385 C19 1.685 . S
C401 C50 1.406 . S
C406 C125 1.472 . S
C417 C99 1.515 . S
C422 C136 1.517 . S
C438 C169 1.483 . S
C433 C59 1.515 . S
C454 C180 1.244 . S
C449 C90 1.201 . S
C465 C10 1.349 . S
C470 C158 1.426 . S
