# Generated by pormake.
# Topology anh, (6,3)-cn, num edge types: 1
# Building blocks:
#     Node 0, Type 0, BuildingBlock: HISSIN_clean_sbu_0, # of connection points: 6
#     Node 1, Type 0, BuildingBlock: HISSIN_clean_sbu_0, # of connection points: 6
#     Node 2, Type 0, BuildingBlock: HISSIN_clean_sbu_0, # of connection points: 6
#     Node 3, Type 1, BuildingBlock: ESEHIV_clean_linker_0, # of connection points: 3
#     Node 4, Type 1, BuildingBlock: ESEHIV_clean_linker_0, # of connection points: 3
#     Node 5, Type 1, BuildingBlock: ESEHIV_clean_linker_0, # of connection points: 3
#     Node 6, Type 1, BuildingBlock: ESEHIV_clean_linker_0, # of connection points: 3
#     Node 7, Type 1, BuildingBlock: ESEHIV_clean_linker_0, # of connection points: 3
#     Node 8, Type 1, BuildingBlock: ESEHIV_clean_linker_0, # of connection points: 3
#     Edge 9, Type (0, 1), BuildingBlock: MIFKUJ_clean_linker_0, # of connection points: 2
#     Edge 10, Type (0, 1), BuildingBlock: MIFKUJ_clean_linker_0, # of connection points: 2
#     Edge 11, Type (0, 1), BuildingBlock: MIFKUJ_clean_linker_0, # of connection points: 2
#     Edge 12, Type (0, 1), BuildingBlock: MIFKUJ_clean_linker_0, # of connection points: 2
#     Edge 13, Type (0, 1), BuildingBlock: MIFKUJ_clean_linker_0, # of connection points: 2
#     Edge 14, Type (0, 1), BuildingBlock: MIFKUJ_clean_linker_0, # of connection points: 2
#     Edge 15, Type (0, 1), BuildingBlock: MIFKUJ_clean_linker_0, # of connection points: 2
#     Edge 16, Type (0, 1), BuildingBlock: MIFKUJ_clean_linker_0, # of connection points: 2
#     Edge 17, Type (0, 1), BuildingBlock: MIFKUJ_clean_linker_0, # of connection points: 2
#     Edge 18, Type (0, 1), BuildingBlock: MIFKUJ_clean_linker_0, # of connection points: 2
#     Edge 19, Type (0, 1), BuildingBlock: MIFKUJ_clean_linker_0, # of connection points: 2
#     Edge 20, Type (0, 1), BuildingBlock: MIFKUJ_clean_linker_0, # of connection points: 2
#     Edge 21, Type (0, 1), BuildingBlock: MIFKUJ_clean_linker_0, # of connection points: 2
#     Edge 22, Type (0, 1), BuildingBlock: MIFKUJ_clean_linker_0, # of connection points: 2
#     Edge 23, Type (0, 1), BuildingBlock: MIFKUJ_clean_linker_0, # of connection points: 2
#     Edge 24, Type (0, 1), BuildingBlock: MIFKUJ_clean_linker_0, # of connection points: 2
#     Edge 25, Type (0, 1), BuildingBlock: MIFKUJ_clean_linker_0, # of connection points: 2
#     Edge 26, Type (0, 1), BuildingBlock: MIFKUJ_clean_linker_0, # of connection points: 2
# Relax obj value: 0.234
# Max RMSD: 0.187
# Mean RMSD: 0.154
data_MOF--net-anh--node1-HISSIN_clean_sbu_0--node2-ESEHIV_clean_linker_0--edge1-MIFKUJ_clean_linker_0
_symmetry_space_group_name_H-M    P1
_symmetry_Int_Tables_number       1
_symmetry_cell_setting            triclinic
loop_
_symmetry_equiv_pos_as_xyz
'x, y, z'
_cell_length_a     36.603456
_cell_length_b     37.087697
_cell_length_c     67.740051
_cell_angle_alpha  91.50419
_cell_angle_beta   91.276216
_cell_angle_gamma 119.97991
loop_
_atom_site_label
_atom_site_type_symbol
_atom_site_fract_x
_atom_site_fract_y
_atom_site_fract_z
_atom_type_partial_charge
Eu0 Eu 1.08007 0.50483 0.17393 0.0
Eu1 Eu 0.13487 0.60555 0.17714 0.0
C2 C 0.10823 0.55333 0.21652 0.0
C3 C 0.99062 0.4013 0.15767 0.0
C4 C 0.96874 0.42209 0.15273 0.0
C5 C 0.93086 0.33626 0.14504 0.0
C6 C 0.9276 0.39994 0.14472 0.0
C7 C 0.97202 0.35851 0.15329 0.0
C8 C 0.90767 0.35652 0.14128 0.0
C9 C 1.03241 0.42467 0.16768 0.0
O10 O 0.18588 0.5877 0.17877 0.0
O11 O 0.14748 0.51835 0.16913 0.0
C12 C 0.1841 0.5526 0.17307 0.0
O13 O 1.07316 0.52925 0.14483 0.0
O14 O 0.1851 0.66553 0.18929 0.0
O15 O 0.14472 0.66311 0.16474 0.0
O16 O 0.1394 0.58428 0.14658 0.0
C17 C 0.10558 0.5583 0.1361 0.0
O18 O 1.03029 0.5238 0.17895 0.0
O19 O 1.06793 0.59201 0.17062 0.0
O20 O 0.11316 0.58685 0.20801 0.0
O21 O 1.06297 0.44811 0.15633 0.0
O22 O 1.03383 0.44413 0.18428 0.0
O23 O 0.10319 0.52071 0.20597 0.0
C24 C 0.21662 0.70864 0.16284 0.0
C25 C 0.23122 0.75038 0.15897 0.0
C26 C 0.27159 0.7094 0.14317 0.0
C27 C 0.26657 0.77189 0.1476 0.0
C28 C 0.23607 0.68787 0.15436 0.0
C29 C 0.28769 0.75183 0.14006 0.0
C30 C 0.18002 0.68571 0.17493 0.0
C31 C 1.03179 0.55878 0.17424 0.0
H32 H 0.98293 0.45532 0.15574 0.0
H33 H 0.91665 0.30295 0.14231 0.0
H34 H 0.9107 0.4166 0.14235 0.0
H35 H 0.98883 0.34217 0.15672 0.0
H36 H 0.21599 0.76653 0.16512 0.0
H37 H 0.28749 0.69341 0.13763 0.0
H38 H 0.27889 0.80486 0.14572 0.0
H39 H 0.2244 0.65524 0.15679 0.0
Eu40 Eu 0.6396 1.04261 0.50887 0.0
Eu41 Eu 0.58595 0.09073 0.50826 0.0
C42 C 0.61245 0.06818 0.5498 0.0
C43 C 0.67122 0.96302 0.49606 0.0
C44 C 0.62972 0.92936 0.49458 0.0
C45 C 0.69503 0.9214 0.47834 0.0
C46 C 0.62118 0.89149 0.48569 0.0
C47 C 0.70362 0.95922 0.48744 0.0
C48 C 0.65392 0.88673 0.4779 0.0
C49 C 0.68074 1.00235 0.50619 0.0
O50 O 0.65387 0.14493 0.51118 0.0
O51 O 0.69147 0.11075 0.5078 0.0
C52 C 0.69002 0.14555 0.50932 0.0
O53 O 0.61668 1.04044 0.47739 0.0
O54 O 0.56892 0.13651 0.51856 0.0
O55 O 0.53751 0.09739 0.49223 0.0
O56 O 0.62162 0.10338 0.4806 0.0
C57 C 0.62204 0.07446 0.46951 0.0
O58 O 0.57173 0.98917 0.51026 0.0
O59 O 0.53672 1.0228 0.50031 0.0
O60 O 0.58363 0.07251 0.53993 0.0
O61 O 0.68656 1.03216 0.49464 0.0
O62 O 0.65744 0.99957 0.52104 0.0
O63 O 0.64145 0.06374 0.5407 0.0
C64 C 0.56344 0.16944 0.49052 0.0
C65 C 0.58512 0.17206 0.47318 0.0
C66 C 0.59179 0.24406 0.49075 0.0
C67 C 0.61172 0.21064 0.46537 0.0
C68 C 0.56556 0.20549 0.49872 0.0
C69 C 0.61657 0.24712 0.47458 0.0
C70 C 0.54712 0.13186 0.50217 0.0
C71 C 0.5367 0.98813 0.50424 0.0
H72 H 0.60405 0.93192 0.50079 0.0
H73 H 0.72082 0.9189 0.47226 0.0
H74 H 0.58927 0.8654 0.48593 0.0
H75 H 0.73568 0.98525 0.48809 0.0
H76 H 0.58401 0.14472 0.46645 0.0
H77 H 0.59535 0.27183 0.4983 0.0
H78 H 0.63031 0.21218 0.45285 0.0
H79 H 0.54954 0.20428 0.51216 0.0
Eu80 Eu 0.55664 0.53899 0.83466 0.0
Eu81 Eu 0.65873 0.59088 0.83775 0.0
C82 C 0.60654 0.57069 0.87811 0.0
C83 C 0.45315 0.53153 0.83412 0.0
C84 C 0.46984 0.56412 0.84861 0.0
C85 C 0.4061 0.55518 0.82197 0.0
C86 C 0.45546 0.59243 0.84953 0.0
C87 C 0.42061 0.5267 0.82104 0.0
C88 C 0.42437 0.58901 0.83586 0.0
C89 C 0.47573 0.50888 0.83022 0.0
O90 O 0.64122 0.52234 0.83258 0.0
O91 O 0.5699 0.48548 0.83735 0.0
C92 C 0.60595 0.48649 0.83445 0.0
O93 O 0.57913 0.52722 0.80579 0.0
O94 O 0.71972 0.60182 0.84925 0.0
O95 O 0.71693 0.63588 0.8244 0.0
O96 O 0.63679 0.5914 0.80666 0.0
C97 C 0.60941 0.55771 0.7967 0.0
O98 O 0.57578 0.60773 0.83089 0.0
O99 O 0.64486 0.64368 0.84234 0.0
O100 O 0.64337 0.58712 0.8699 0.0
O101 O 0.5014 0.52339 0.81575 0.0
O102 O 0.49316 0.50191 0.84561 0.0
O103 O 0.57069 0.5524 0.8676 0.0
C104 C 0.76282 0.60939 0.82299 0.0
C105 C 0.74019 0.57303 0.81086 0.0
C106 C 0.82772 0.61068 0.81566 0.0
C107 C 0.76107 0.55466 0.80177 0.0
C108 C 0.80672 0.6287 0.82495 0.0
C109 C 0.805 0.57285 0.80442 0.0
C110 C 0.73995 0.62484 0.83466 0.0
C111 C 0.61021 0.64324 0.83622 0.0
H112 H 0.49559 0.56905 0.85862 0.0
H113 H 0.38207 0.55189 0.81127 0.0
H114 H 0.46952 0.61774 0.86062 0.0
H115 H 0.40803 0.50228 0.8095 0.0
H116 H 0.70617 0.55797 0.80903 0.0
H117 H 0.86151 0.62504 0.81836 0.0
H118 H 0.74276 0.52556 0.79326 0.0
H119 H 0.82454 0.6567 0.83429 0.0
H120 H 0.55588 1.05005 0.25678 0.0
H121 H 0.61484 0.1847 0.26088 0.0
H122 H 0.56892 0.11783 0.20498 0.0
C123 C 0.56642 0.07979 0.25021 0.0
C124 C 0.56169 0.08038 0.22973 0.0
C125 C 0.58598 0.1173 0.2619 0.0
C126 C 0.59829 0.1552 0.25256 0.0
C127 C 0.59061 0.15526 0.23213 0.0
C128 C 0.57271 0.11777 0.22092 0.0
H129 H 0.6335 0.58592 0.58907 0.0
H130 H 0.71983 0.5388 0.5859 0.0
H131 H 0.67472 0.56795 0.5329 0.0
C132 C 0.65249 0.57687 0.58047 0.0
C133 C 0.65032 0.57723 0.55986 0.0
C134 C 0.67799 0.56359 0.59001 0.0
C135 C 0.70116 0.55025 0.57865 0.0
C136 C 0.6995 0.55105 0.55792 0.0
C137 C 0.67486 0.56562 0.54882 0.0
H138 H 1.06794 0.59599 0.91888 0.0
H139 H 0.19401 0.69194 0.93727 0.0
H140 H 0.15856 0.66371 0.87563 0.0
C141 C 0.09946 0.6199 0.91541 0.0
C142 C 0.10985 0.62705 0.89554 0.0
C143 C 0.12941 0.64322 0.93072 0.0
C144 C 0.16985 0.67478 0.92578 0.0
C145 C 0.18014 0.68298 0.90595 0.0
C146 C 0.14992 0.65911 0.89095 0.0
H147 H 1.04742 0.50207 0.4326 0.0
H148 H 0.16556 0.61699 0.43325 0.0
H149 H 0.10949 0.56456 0.48828 0.0
C150 C 1.07378 0.52765 0.44084 0.0
C151 C 1.07393 0.52884 0.46165 0.0
C152 C 0.10659 0.55908 0.43047 0.0
C153 C 0.1401 0.59276 0.44119 0.0
C154 C 0.14198 0.59559 0.46198 0.0
C155 C 0.10887 0.56284 0.47228 0.0
H156 H 0.60483 0.11845 0.76663 0.0
H157 H 0.61116 1.00576 0.7658 0.0
H158 H 0.60784 0.06325 0.82147 0.0
C159 C 0.60573 0.09378 0.77449 0.0
C160 C 0.60597 0.09518 0.79525 0.0
C161 C 0.60779 0.06195 0.76372 0.0
C162 C 0.61009 1.03066 0.77404 0.0
C163 C 0.60984 1.03013 0.79482 0.0
C164 C 0.60777 0.06283 0.80548 0.0
H165 H 0.54614 0.55938 0.0958 0.0
H166 H 0.66288 0.55871 0.09332 0.0
H167 H 0.60776 0.55351 0.14962 0.0
C168 C 0.57235 0.55879 0.10325 0.0
C169 C 0.57311 0.55704 0.12397 0.0
C170 C 0.60425 0.55886 0.09204 0.0
C171 C 0.6376 0.55727 0.10192 0.0
C172 C 0.63962 0.5549 0.12264 0.0
C173 C 0.60709 0.5553 0.1337 0.0
H174 H 0.19631 0.4856 0.16548 0.0
H175 H 0.26257 0.48637 0.15956 0.0
H176 H 0.33123 0.62014 0.16753 0.0
H177 H 0.26527 0.6196 0.17348 0.0
H178 H 0.35987 0.5978 0.1363 0.0
H179 H 0.33475 0.55594 0.20304 0.0
H180 H 0.29451 0.51341 0.23052 0.0
H181 H 0.28646 0.40479 0.20196 0.0
H182 H 0.32616 0.44659 0.17415 0.0
H183 H 0.56591 0.62337 0.13761 0.0
H184 H 0.50197 0.62298 0.14821 0.0
H185 H 0.4329 0.48879 0.14254 0.0
H186 H 0.49722 0.48938 0.13231 0.0
H187 H 0.40476 0.51181 0.17319 0.0
H188 H 0.42911 0.5538 0.10616 0.0
H189 H 0.4698 0.59667 0.07885 0.0
H190 H 0.47918 0.70538 0.10801 0.0
H191 H 0.43908 0.66324 0.13567 0.0
C192 C 0.22547 0.51524 0.16611 0.0
C193 C 0.22491 0.55249 0.17013 0.0
C194 C 0.26364 0.51564 0.16276 0.0
C195 C 0.30262 0.55332 0.1632 0.0
C196 C 0.30203 0.59053 0.16708 0.0
C197 C 0.26399 0.59013 0.1706 0.0
C198 C 0.34372 0.55411 0.15936 0.0
C199 C 0.36982 0.57937 0.14461 0.0
C200 C 0.357 0.52957 0.16975 0.0
C201 C 0.33303 0.50431 0.1864 0.0
C202 C 0.32407 0.52291 0.20253 0.0
C203 C 0.30142 0.49895 0.21818 0.0
C204 C 0.28783 0.4564 0.21796 0.0
C205 C 0.29694 0.43774 0.2021 0.0
C206 C 0.31954 0.46155 0.18639 0.0
C207 C 0.5374 0.59375 0.13922 0.0
C208 C 0.53707 0.55638 0.13456 0.0
C209 C 0.50046 0.5935 0.145 0.0
C210 C 0.46172 0.55585 0.14592 0.0
C211 C 0.46192 0.51839 0.14202 0.0
C212 C 0.49891 0.51868 0.13629 0.0
C213 C 0.42093 0.5555 0.15013 0.0
C214 C 0.39485 0.53028 0.1649 0.0
C215 C 0.40762 0.58008 0.13975 0.0
C216 C 0.43147 0.60543 0.12308 0.0
C217 C 0.4401 0.5869 0.10682 0.0
C218 C 0.46303 0.61106 0.09127 0.0
C219 C 0.47715 0.65374 0.09172 0.0
C220 C 0.46828 0.67233 0.1077 0.0
C221 C 0.44544 0.64831 0.12331 0.0
H222 H 0.49489 0.67239 0.07966 0.0
H223 H 0.27032 0.43791 0.2301 0.0
H224 H 0.69859 0.22056 0.49848 0.0
H225 H 0.76349 0.28566 0.49228 0.0
H226 H 0.83777 0.23005 0.5089 0.0
H227 H 0.77293 0.16435 0.51468 0.0
H228 H 0.87281 0.31229 0.5247 0.0
H229 H 0.81784 0.2393 0.46199 0.0
H230 H 0.76251 0.20383 0.43564 0.0
H231 H 0.76225 0.3176 0.42588 0.0
H232 H 0.81708 0.35364 0.4524 0.0
H233 H 1.06987 0.46918 0.4868 0.0
H234 H 1.00641 0.40587 0.4966 0.0
H235 H 0.92809 0.44617 0.46721 0.0
H236 H 0.99135 0.50827 0.45688 0.0
H237 H 0.89463 0.37031 0.45812 0.0
H238 H 0.94029 0.4418 0.5213 0.0
H239 H 0.98943 0.479 0.54977 0.0
H240 H 1.00308 0.37232 0.55953 0.0
H241 H 0.95439 0.33465 0.53096 0.0
C242 C 0.72867 0.22207 0.50098 0.0
C243 C 0.73008 0.18672 0.50714 0.0
C244 C 0.76595 0.25949 0.49727 0.0
C245 C 0.80604 0.26329 0.49995 0.0
C246 C 0.80759 0.22844 0.5067 0.0
C247 C 0.77026 0.19065 0.50999 0.0
C248 C 0.846 0.30296 0.49518 0.0
C249 C 0.87774 0.32464 0.51005 0.0
C250 C 0.8525 0.32025 0.47622 0.0
C251 C 0.821 0.29901 0.45955 0.0
C252 C 0.80575 0.25672 0.45437 0.0
C253 C 0.7745 0.2365 0.43936 0.0
C254 C 0.75868 0.25837 0.42918 0.0
C255 C 0.77442 0.30063 0.43383 0.0
C256 C 0.80563 0.32098 0.44884 0.0
C257 C 1.03911 0.46502 0.48288 0.0
C258 C 1.03602 0.49443 0.47127 0.0
C259 C 1.00249 0.42851 0.48846 0.0
C260 C 0.96148 0.42046 0.48288 0.0
C261 C 0.9587 0.45069 0.47177 0.0
C262 C 0.99514 0.48673 0.46601 0.0
C263 C 0.92167 0.38025 0.48774 0.0
C264 C 0.88988 0.35823 0.47282 0.0
C265 C 0.9147 0.36306 0.50675 0.0
C266 C 0.94411 0.38561 0.52386 0.0
C267 C 0.95405 0.42641 0.52942 0.0
C268 C 0.98176 0.44755 0.5456 0.0
C269 C 0.99947 0.42809 0.55641 0.0
C270 C 0.98941 0.38739 0.55111 0.0
C271 C 0.96173 0.36612 0.53494 0.0
H272 H 1.02091 0.4445 0.56893 0.0
H273 H 0.73435 0.24261 0.41762 0.0
H274 H 0.54284 0.65739 0.83663 0.0
H275 H 0.54302 0.72303 0.83284 0.0
H276 H 0.67732 0.78726 0.82609 0.0
H277 H 0.6778 0.72232 0.83135 0.0
H278 H 0.66405 0.83865 0.84396 0.0
H279 H 0.59085 0.75357 0.78576 0.0
H280 H 0.53643 0.69047 0.76731 0.0
H281 H 0.43904 0.7056 0.79358 0.0
H282 H 0.49286 0.76871 0.8123 0.0
H283 H 0.67543 1.01446 0.79562 0.0
H284 H 0.67517 0.95087 0.80493 0.0
H285 H 0.54696 0.89885 0.82291 0.0
H286 H 0.54749 0.96302 0.81371 0.0
H287 H 0.55532 0.84162 0.80019 0.0
H288 H 0.62994 0.92888 0.85714 0.0
H289 H 0.68511 0.99191 0.87532 0.0
H290 H 0.78109 0.97306 0.84998 0.0
H291 H 0.72649 0.91019 0.83143 0.0
C292 C 0.57253 0.68546 0.83442 0.0
C293 C 0.6103 0.68398 0.83427 0.0
C294 C 0.57249 0.7232 0.83198 0.0
C295 C 0.60982 0.76076 0.82845 0.0
C296 C 0.64771 0.75935 0.82863 0.0
C297 C 0.64798 0.72183 0.83163 0.0
C298 C 0.6094 0.80114 0.82472 0.0
C299 C 0.6405 0.839 0.8341 0.0
C300 C 0.57831 0.80279 0.81229 0.0
C301 C 0.5459 0.76557 0.80062 0.0
C302 C 0.55782 0.74337 0.78765 0.0
C303 C 0.52708 0.70763 0.77714 0.0
C304 C 0.4843 0.69399 0.77932 0.0
C305 C 0.47218 0.71624 0.79192 0.0
C306 C 0.50279 0.75201 0.80247 0.0
C307 C 0.64757 0.99001 0.80212 0.0
C308 C 0.61189 0.99466 0.80438 0.0
C309 C 0.64732 0.95328 0.80737 0.0
C310 C 0.61112 0.91937 0.81483 0.0
C311 C 0.5755 0.92414 0.81729 0.0
C312 C 0.57596 0.96124 0.81227 0.0
C313 C 0.61015 0.87879 0.81925 0.0
C314 C 0.57881 0.84102 0.81 0.0
C315 C 0.64122 0.87728 0.83161 0.0
C316 C 0.67412 0.91504 0.84275 0.0
C317 C 0.66282 0.93836 0.85532 0.0
C318 C 0.69399 0.97402 0.86571 0.0
C319 C 0.73658 0.98654 0.86377 0.0
C320 C 0.74808 0.96335 0.85146 0.0
C321 C 0.71704 0.92768 0.84101 0.0
H322 H 0.76066 1.01415 0.87184 0.0
H323 H 0.46054 0.66624 0.77122 0.0
H324 H 1.02067 0.61968 0.15752 0.0
H325 H 0.95541 0.62143 0.15201 0.0
H326 H 0.88629 0.50507 0.18072 0.0
H327 H 0.95144 0.50255 0.18582 0.0
H328 H 0.85098 0.54748 0.18943 0.0
H329 H 0.89588 0.63118 0.11556 0.0
H330 H 0.94272 0.64143 0.08803 0.0
H331 H 0.9393 0.52674 0.10012 0.0
H332 H 0.8921 0.51553 0.1275 0.0
H333 H 0.69015 0.59582 0.15645 0.0
H334 H 0.75529 0.59721 0.16781 0.0
H335 H 0.73783 0.50919 0.12062 0.0
H336 H 0.67314 0.50736 0.10945 0.0
H337 H 0.81628 0.5692 0.12122 0.0
H338 H 0.72508 0.48159 0.1697 0.0
H339 H 0.67375 0.46084 0.19606 0.0
H340 H 0.76249 0.56673 0.23246 0.0
H341 H 0.81418 0.58838 0.2062 0.0
C342 C 0.99162 0.59427 0.16266 0.0
C343 C 0.99168 0.56063 0.17192 0.0
C344 C 0.95397 0.59522 0.15938 0.0
C345 C 0.9149 0.56257 0.16521 0.0
C346 C 0.91532 0.5301 0.17543 0.0
C347 C 0.95289 0.52875 0.17844 0.0
C348 C 0.87374 0.56138 0.15997 0.0
C349 C 0.8438 0.55273 0.17453 0.0
C350 C 0.86289 0.56681 0.14041 0.0
C351 C 0.89075 0.57278 0.12374 0.0
C352 C 0.90499 0.60807 0.11229 0.0
C353 C 0.93163 0.61406 0.09671 0.0
C354 C 0.94409 0.58483 0.09237 0.0
C355 C 0.92974 0.54943 0.10353 0.0
C356 C 0.90302 0.54325 0.11909 0.0
C357 C 0.69972 0.57615 0.14872 0.0
C358 C 0.67618 0.55187 0.13182 0.0
C359 C 0.73728 0.57707 0.1552 0.0
C360 C 0.75233 0.55361 0.14503 0.0
C361 C 0.72784 0.52819 0.12866 0.0
C362 C 0.69051 0.52716 0.12227 0.0
C363 C 0.79395 0.55624 0.15076 0.0
C364 C 0.82382 0.56476 0.13621 0.0
C365 C 0.8042 0.54958 0.17016 0.0
C366 C 0.77325 0.53688 0.18591 0.0
C367 C 0.73347 0.50066 0.18326 0.0
C368 C 0.70437 0.48868 0.19819 0.0
C369 C 0.7148 0.51253 0.21589 0.0
C370 C 0.75442 0.54834 0.21872 0.0
C371 C 0.78365 0.56046 0.20383 0.0
H372 H 0.69223 0.50321 0.22744 0.0
H373 H 0.9648 0.58957 0.08034 0.0
H374 H 0.4593 0.9721 0.48873 0.0
H375 H 0.39364 0.90554 0.48418 0.0
H376 H 0.45455 0.84254 0.50934 0.0
H377 H 0.52093 0.90916 0.51333 0.0
H378 H 0.40544 0.7945 0.48103 0.0
H379 H 0.37944 0.86304 0.53472 0.0
H380 H 0.37571 0.91978 0.55264 0.0
H381 H 0.28572 0.91343 0.5089 0.0
H382 H 0.28933 0.857 0.49056 0.0
H383 H 0.20686 0.60301 0.48695 0.0
H384 H 0.27317 0.66725 0.49689 0.0
H385 H 0.22789 0.74012 0.46769 0.0
H386 H 0.16207 0.67634 0.45793 0.0
H387 H 0.26968 0.78104 0.50074 0.0
H388 H 0.29935 0.71327 0.44661 0.0
H389 H 0.30338 0.65564 0.42978 0.0
H390 H 0.38664 0.65923 0.47645 0.0
H391 H 0.38257 0.71652 0.4937 0.0
C392 C 0.45894 0.94421 0.49339 0.0
C393 C 0.49596 0.94669 0.50158 0.0
C394 C 0.42089 0.90579 0.49088 0.0
C395 C 0.41797 0.86822 0.49677 0.0
C396 C 0.45514 0.87054 0.50469 0.0
C397 C 0.49338 0.909 0.50706 0.0
C398 C 0.37656 0.82688 0.49445 0.0
C399 C 0.37599 0.79165 0.48569 0.0
C400 C 0.33728 0.82217 0.50019 0.0
C401 C 0.33496 0.85605 0.51117 0.0
C402 C 0.35908 0.87394 0.52885 0.0
C403 C 0.35695 0.90602 0.53909 0.0
C404 C 0.33058 0.92027 0.53189 0.0
C405 C 0.30618 0.9024 0.51445 0.0
C406 C 0.30822 0.87034 0.50413 0.0
C407 C 0.21063 0.63282 0.48313 0.0
C408 C 0.17861 0.63428 0.47184 0.0
C409 C 0.24897 0.66972 0.48857 0.0
C410 C 0.25651 0.70922 0.48286 0.0
C411 C 0.22359 0.71059 0.47237 0.0
C412 C 0.18561 0.67388 0.46685 0.0
C413 C 0.29857 0.74899 0.48711 0.0
C414 C 0.29924 0.78392 0.49622 0.0
C415 C 0.33793 0.75327 0.48188 0.0
C416 C 0.34032 0.71886 0.47153 0.0
C417 C 0.31826 0.70155 0.45335 0.0
C418 C 0.32058 0.66898 0.44373 0.0
C419 C 0.34517 0.65372 0.45207 0.0
C420 C 0.36756 0.67105 0.47003 0.0
C421 C 0.36527 0.70357 0.47973 0.0
H422 H 0.34695 0.62852 0.44459 0.0
H423 H 0.32897 0.94511 0.53984 0.0
H424 H 0.67479 0.47435 0.83428 0.0
H425 H 0.67588 0.40912 0.83036 0.0
H426 H 0.53996 0.34081 0.82449 0.0
H427 H 0.53877 0.40582 0.82941 0.0
H428 H 0.55882 0.29546 0.84367 0.0
H429 H 0.61808 0.3692 0.78496 0.0
H430 H 0.66798 0.42577 0.76454 0.0
H431 H 0.76925 0.40901 0.78635 0.0
H432 H 0.72062 0.35397 0.80768 0.0
H433 H 0.53833 0.10731 0.79852 0.0
H434 H 0.53884 0.17221 0.80728 0.0
H435 H 0.67265 0.23296 0.82079 0.0
H436 H 0.67192 0.16776 0.812 0.0
H437 H 0.65613 0.28172 0.79848 0.0
H438 H 0.59758 0.20976 0.85747 0.0
H439 H 0.54775 0.15156 0.8771 0.0
H440 H 0.44456 0.16256 0.85283 0.0
H441 H 0.49372 0.2205 0.83283 0.0
C442 C 0.64501 0.44549 0.83222 0.0
C443 C 0.60667 0.44598 0.8322 0.0
C444 C 0.64565 0.4078 0.82976 0.0
C445 C 0.60803 0.36905 0.82662 0.0
C446 C 0.56972 0.3696 0.82681 0.0
C447 C 0.56903 0.40719 0.82961 0.0
C448 C 0.60825 0.32816 0.82336 0.0
C449 C 0.57988 0.2927 0.83353 0.0
C450 C 0.63619 0.32354 0.81054 0.0
C451 C 0.6657 0.35775 0.79816 0.0
C452 C 0.65114 0.37807 0.78569 0.0
C453 C 0.67926 0.40998 0.77398 0.0
C454 C 0.72184 0.42122 0.77431 0.0
C455 C 0.7364 0.40067 0.78633 0.0
C456 C 0.70862 0.36927 0.7983 0.0
C457 C 0.5676 0.13407 0.80405 0.0
C458 C 0.60481 0.1316 0.80518 0.0
C459 C 0.56799 0.17155 0.80896 0.0
C460 C 0.60575 0.20824 0.81495 0.0
C461 C 0.64289 0.20556 0.81634 0.0
C462 C 0.64241 0.16792 0.81159 0.0
C463 C 0.60683 0.2495 0.81874 0.0
C464 C 0.63528 0.28482 0.80863 0.0
C465 C 0.57892 0.254 0.8315 0.0
C466 C 0.5493 0.21921 0.84351 0.0
C467 C 0.56422 0.19955 0.85619 0.0
C468 C 0.5361 0.16665 0.86741 0.0
C469 C 0.493 0.1533 0.86618 0.0
C470 C 0.47795 0.1729 0.85375 0.0
C471 C 0.50593 0.2058 0.84248 0.0
H472 H 0.47128 0.12783 0.87488 0.0
H473 H 0.7436 0.44565 0.76518 0.0
H474 H 0.58469 0.8221 0.45798 0.0
H475 H 0.56287 0.74823 0.45987 0.0
H476 H 0.68348 0.78202 0.48777 0.0
H477 H 0.70511 0.855 0.48624 0.0
H478 H 0.64938 0.70637 0.46837 0.0
H479 H 0.606 0.78182 0.51601 0.0
H480 H 0.56892 0.82094 0.52243 0.0
H481 H 0.45451 0.71965 0.49603 0.0
H482 H 0.49114 0.68018 0.48927 0.0
H483 H 0.64534 0.64698 0.56796 0.0
H484 H 0.6187 0.67935 0.5452 0.0
H485 H 0.57043 0.57172 0.50509 0.0
H486 H 0.59664 0.53898 0.52792 0.0
H487 H 0.54602 0.66459 0.52145 0.0
H488 H 0.61678 0.61036 0.4629 0.0
H489 H 0.66144 0.57787 0.46062 0.0
H490 H 0.73082 0.64561 0.51372 0.0
H491 H 0.68703 0.67886 0.51609 0.0
C492 C 0.60702 0.81371 0.46392 0.0
C493 C 0.64613 0.84438 0.47252 0.0
C494 C 0.59461 0.77153 0.46483 0.0
C495 C 0.62118 0.75976 0.47441 0.0
C496 C 0.6624 0.79041 0.48036 0.0
C497 C 0.67477 0.83239 0.47948 0.0
C498 C 0.60417 0.71817 0.48268 0.0
C499 C 0.62555 0.69614 0.47941 0.0
C500 C 0.57362 0.70528 0.49738 0.0
C501 C 0.55126 0.72825 0.50205 0.0
C502 C 0.57291 0.76794 0.51162 0.0
C503 C 0.55202 0.79018 0.51527 0.0
C504 C 0.50937 0.77281 0.50961 0.0
C505 C 0.48752 0.73308 0.50037 0.0
C506 C 0.50831 0.71076 0.49662 0.0
C507 C 0.62741 0.62948 0.55473 0.0
C508 C 0.62395 0.59107 0.5494 0.0
C509 C 0.61204 0.64788 0.54176 0.0
C510 C 0.59325 0.62808 0.52338 0.0
C511 C 0.58509 0.58749 0.51917 0.0
C512 C 0.60039 0.56906 0.53213 0.0
C513 C 0.59186 0.65356 0.50735 0.0
C514 C 0.56747 0.67275 0.50941 0.0
C515 C 0.62028 0.66444 0.4918 0.0
C516 C 0.64846 0.64672 0.48974 0.0
C517 C 0.64182 0.61853 0.47396 0.0
C518 C 0.66693 0.59996 0.47268 0.0
C519 C 0.69881 0.60954 0.48707 0.0
C520 C 0.70608 0.63816 0.5026 0.0
C521 C 0.68119 0.6569 0.50391 0.0
H522 H 0.71783 0.59476 0.48621 0.0
H523 H 0.49326 0.79011 0.51239 0.0
H524 H 0.88156 0.60366 0.78768 0.0
H525 H 0.92745 0.57448 0.7911 0.0
H526 H 0.82331 0.46006 0.81066 0.0
H527 H 0.77771 0.49018 0.80818 0.0
H528 H 0.87496 0.49205 0.83872 0.0
H529 H 0.89563 0.46011 0.77509 0.0
H530 H 0.90373 0.46361 0.73908 0.0
H531 H 1.02105 0.57875 0.74726 0.0
H532 H 1.01345 0.57648 0.78329 0.0
H533 H 1.06056 0.54207 0.8939 0.0
H534 H 1.00667 0.49836 0.8684 0.0
H535 H 1.03769 0.6075 0.83554 0.0
H536 H 1.0913 0.65115 0.86086 0.0
H537 H 1.01446 0.53672 0.81072 0.0
H538 H 0.9642 0.57736 0.87068 0.0
H539 H 0.95451 0.57623 0.90665 0.0
H540 H 0.89011 0.44247 0.90354 0.0
H541 H 0.89992 0.44295 0.86755 0.0
C542 C 0.86805 0.57167 0.79195 0.0
C543 C 0.82662 0.54984 0.7984 0.0
C544 C 0.89422 0.55454 0.7936 0.0
C545 C 0.87912 0.51507 0.80149 0.0
C546 C 0.83578 0.49063 0.80467 0.0
C547 C 0.80968 0.50797 0.80325 0.0
C548 C 0.90977 0.50626 0.81191 0.0
C549 C 0.90477 0.49989 0.83227 0.0
C550 C 0.94881 0.51612 0.80376 0.0
C551 C 0.954 0.51795 0.78202 0.0
C552 C 0.92311 0.48631 0.76925 0.0
C553 C 0.92762 0.48808 0.7488 0.0
C554 C 0.96292 0.52134 0.74089 0.0
C555 C 0.99379 0.55291 0.75342 0.0
C556 C 0.98946 0.55132 0.77388 0.0
C557 C 1.05601 0.55661 0.88114 0.0
C558 C 1.07949 0.60009 0.87951 0.0
C559 C 1.02572 0.53156 0.86648 0.0
C560 C 1.01821 0.54974 0.85012 0.0
C561 C 1.04335 0.59279 0.84793 0.0
C562 C 1.0737 0.61777 0.8625 0.0
C563 C 0.9798 0.52625 0.8372 0.0
C564 C 0.98364 0.52635 0.81663 0.0
C565 C 0.93944 0.51048 0.84503 0.0
C566 C 0.93322 0.51019 0.86656 0.0
C567 C 0.94816 0.54776 0.87772 0.0
C568 C 0.94265 0.54723 0.89808 0.0
C569 C 0.92183 0.5093 0.90738 0.0
C570 C 0.90635 0.47182 0.89632 0.0
C571 C 0.91189 0.47219 0.87595 0.0
H572 H 0.91758 0.50895 0.92315 0.0
H573 H 0.96633 0.52267 0.72505 0.0
H574 H 0.31411 0.80969 0.11148 0.0
H575 H 0.38554 0.8695 0.11079 0.0
H576 H 0.42776 0.81251 0.15367 0.0
H577 H 0.358 0.75245 0.15326 0.0
H578 H 0.40111 0.91086 0.14155 0.0
H579 H 0.52428 0.86097 0.16817 0.0
H580 H 0.55243 0.81758 0.15505 0.0
H581 H 0.51446 0.82819 0.09608 0.0
H582 H 0.48667 0.87226 0.10875 0.0
H583 H 0.48704 1.00745 0.23053 0.0
H584 H 0.45754 0.95181 0.20459 0.0
H585 H 0.57412 1.01402 0.174 0.0
H586 H 0.60382 0.06916 0.20016 0.0
H587 H 0.5387 0.93267 0.16753 0.0
H588 H 0.49532 1.03269 0.161 0.0
H589 H 0.46858 0.07878 0.17198 0.0
H590 H 0.35019 0.97204 0.18505 0.0
H591 H 0.37673 0.92545 0.17449 0.0
C592 C 0.33944 0.80908 0.11977 0.0
C593 C 0.33058 0.7773 0.13287 0.0
C594 C 0.38028 0.8432 0.11938 0.0
C595 C 0.41195 0.84641 0.13268 0.0
C596 C 0.4044 0.81127 0.14317 0.0
C597 C 0.364 0.77673 0.1431 0.0
C598 C 0.44509 0.88798 0.14074 0.0
C599 C 0.43159 0.91585 0.14674 0.0
C600 C 0.4856 0.89582 0.14718 0.0
C601 C 0.50336 0.87011 0.13945 0.0
C602 C 0.52235 0.85455 0.15237 0.0
C603 C 0.53812 0.82965 0.14502 0.0
C604 C 0.53522 0.82011 0.12475 0.0
C605 C 0.51663 0.83554 0.11179 0.0
C606 C 0.5008 0.86044 0.11905 0.0
C607 C 0.50659 1.00848 0.21854 0.0
C608 C 0.54714 1.04269 0.21694 0.0
C609 C 0.48976 0.97704 0.20368 0.0
C610 C 0.5132 0.97986 0.18702 0.0
C611 C 0.55527 1.01182 0.1865 0.0
C612 C 0.57208 1.04322 0.20135 0.0
C613 C 0.49226 0.95192 0.16943 0.0
C614 C 0.50865 0.9277 0.16167 0.0
C615 C 0.45474 0.94786 0.1609 0.0
C616 C 0.43823 0.97565 0.16703 0.0
C617 C 0.46377 1.01913 0.16633 0.0
C618 C 0.44861 1.04532 0.17248 0.0
C619 C 0.4077 1.02835 0.17923 0.0
C620 C 0.38188 0.98515 0.17982 0.0
C621 C 0.39698 0.95884 0.17373 0.0
H622 H 0.39598 1.04865 0.18399 0.0
H623 H 0.54735 0.80075 0.1191 0.0
H624 H 0.69907 0.26925 0.47091 0.0
H625 H 0.75912 0.34035 0.47511 0.0
H626 H 0.67385 0.38864 0.47211 0.0
H627 H 0.61398 0.31805 0.46835 0.0
H628 H 0.75342 0.44525 0.45896 0.0
H629 H 0.69148 0.34612 0.5151 0.0
H630 H 0.68279 0.28563 0.53325 0.0
H631 H 0.81709 0.33614 0.53549 0.0
H632 H 0.82638 0.39621 0.51675 0.0
H633 H 0.66692 0.50273 0.52441 0.0
H634 H 0.70006 0.47649 0.50251 0.0
H635 H 0.81232 0.53214 0.54074 0.0
H636 H 0.77921 0.5605 0.56288 0.0
H637 H 0.78081 0.44828 0.53118 0.0
H638 H 0.83028 0.56468 0.49377 0.0
H639 H 0.83327 0.62595 0.47886 0.0
H640 H 0.72181 0.54621 0.44297 0.0
H641 H 0.71767 0.48447 0.4578 0.0
C642 C 0.69339 0.29519 0.47027 0.0
C643 C 0.65192 0.28836 0.46982 0.0
C644 C 0.72778 0.33572 0.47255 0.0
C645 C 0.72098 0.36963 0.47414 0.0
C646 C 0.67993 0.36292 0.47092 0.0
C647 C 0.64561 0.32256 0.46891 0.0
C648 C 0.75302 0.40991 0.48368 0.0
C649 C 0.76074 0.44654 0.47465 0.0
C650 C 0.76533 0.41212 0.50386 0.0
C651 C 0.75955 0.37524 0.51435 0.0
C652 C 0.71907 0.34403 0.5193 0.0
C653 C 0.71405 0.30985 0.52967 0.0
C654 C 0.74939 0.30709 0.53555 0.0
C655 C 0.78978 0.33832 0.53091 0.0
C656 C 0.79491 0.37226 0.52028 0.0
C657 C 0.69912 0.51061 0.52801 0.0
C658 C 0.72069 0.53442 0.54523 0.0
C659 C 0.71822 0.49572 0.51535 0.0
C660 C 0.75932 0.50369 0.51957 0.0
C661 C 0.78099 0.52665 0.53697 0.0
C662 C 0.76186 0.54226 0.54969 0.0
C663 C 0.77521 0.48181 0.50694 0.0
C664 C 0.77714 0.44861 0.51525 0.0
C665 C 0.77181 0.48288 0.48614 0.0
C666 C 0.77408 0.51976 0.47676 0.0
C667 C 0.80641 0.56014 0.48267 0.0
C668 C 0.80829 0.59499 0.47423 0.0
C669 C 0.77795 0.58995 0.45986 0.0
C670 C 0.74555 0.55004 0.45396 0.0
C671 C 0.74353 0.51506 0.46233 0.0
H672 H 0.77936 0.61698 0.4534 0.0
H673 H 0.74547 0.28067 0.54362 0.0
H674 H 0.34492 0.57814 0.83367 0.0
H675 H 0.32519 0.63138 0.83845 0.0
H676 H 0.45684 0.72665 0.84298 0.0
H677 H 0.47634 0.67284 0.8387 0.0
H678 H 0.42311 0.73943 0.8714 0.0
H679 H 0.38868 0.72892 0.80516 0.0
H680 H 0.36357 0.69792 0.77152 0.0
H681 H 0.23653 0.62923 0.79084 0.0
H682 H 0.26092 0.65908 0.82469 0.0
H683 H 0.20854 0.74367 0.87879 0.0
H684 H 0.27607 0.77247 0.86262 0.0
H685 H 0.31616 0.71062 0.90371 0.0
H686 H 0.25019 0.68372 0.9201 0.0
H687 H 0.29133 0.72643 0.84249 0.0
H688 H 0.41061 0.73433 0.90598 0.0
H689 H 0.44146 0.77401 0.93745 0.0
H690 H 0.40959 0.86576 0.92017 0.0
H691 H 0.37914 0.8271 0.88838 0.0
C692 C 0.36958 0.61052 0.83518 0.0
C693 C 0.41218 0.62148 0.83601 0.0
C694 C 0.35837 0.64113 0.83774 0.0
C695 C 0.38956 0.68336 0.84077 0.0
C696 C 0.43219 0.69445 0.8406 0.0
C697 C 0.44334 0.66375 0.83824 0.0
C698 C 0.37704 0.71414 0.8471 0.0
C699 C 0.39471 0.73729 0.86495 0.0
C700 C 0.34216 0.71441 0.8379 0.0
C701 C 0.32674 0.69637 0.81752 0.0
C702 C 0.35542 0.70702 0.80227 0.0
C703 C 0.34129 0.68964 0.78315 0.0
C704 C 0.29847 0.66166 0.77904 0.0
C705 C 0.26968 0.65101 0.79404 0.0
C706 C 0.28365 0.66825 0.8132 0.0
C707 C 0.23278 0.73801 0.88484 0.0
C708 C 0.22411 0.71108 0.90049 0.0
C709 C 0.27132 0.75444 0.87561 0.0
C710 C 0.30139 0.74362 0.88175 0.0
C711 C 0.29429 0.72047 0.8988 0.0
C712 C 0.25616 0.70467 0.90818 0.0
C713 C 0.334 0.74653 0.86816 0.0
C714 C 0.32065 0.73024 0.84869 0.0
C715 C 0.37387 0.75427 0.87551 0.0
C716 C 0.39267 0.77779 0.89465 0.0
C717 C 0.41059 0.76323 0.90871 0.0
C718 C 0.42789 0.78548 0.92668 0.0
C719 C 0.42752 0.8224 0.9308 0.0
C720 C 0.40983 0.83714 0.91696 0.0
C721 C 0.39248 0.81501 0.89897 0.0
H722 H 0.44091 0.83956 0.94473 0.0
H723 H 0.28759 0.64821 0.76423 0.0
H724 H 0.85876 0.37566 0.11687 0.0
H725 H 0.78219 0.3463 0.11824 0.0
H726 H 0.7759 0.25413 0.15775 0.0
H727 H 0.85127 0.28304 0.15664 0.0
H728 H 0.70342 0.22409 0.1353 0.0
H729 H 0.80572 0.35964 0.17238 0.0
H730 H 0.85816 0.43365 0.16876 0.0
H731 H 0.76537 0.45134 0.13738 0.0
H732 H 0.71285 0.37675 0.14008 0.0
H733 H 0.67083 0.22026 0.23324 0.0
H734 H 0.70292 0.26582 0.20588 0.0
H735 H 0.5799 0.2215 0.17808 0.0
H736 H 0.54753 0.17553 0.20548 0.0
H737 H 0.69053 0.32562 0.17953 0.0
H738 H 0.58321 0.18774 0.14587 0.0
H739 H 0.53752 0.11116 0.14465 0.0
H740 H 0.64054 0.09843 0.16772 0.0
H741 H 0.6864 0.17492 0.16954 0.0
C742 C 0.84076 0.34838 0.1254 0.0
C743 C 0.86134 0.3323 0.13701 0.0
C744 C 0.797 0.33152 0.12605 0.0
C745 C 0.77349 0.29862 0.13843 0.0
C746 C 0.79334 0.27958 0.14809 0.0
C747 C 0.83675 0.29623 0.14742 0.0
C748 C 0.73108 0.28849 0.14482 0.0
C749 C 0.69961 0.24651 0.14434 0.0
C750 C 0.72542 0.31774 0.15626 0.0
C751 C 0.75573 0.36281 0.15621 0.0
C752 C 0.79654 0.37941 0.16479 0.0
C753 C 0.82628 0.42134 0.16279 0.0
C754 C 0.81503 0.44704 0.15277 0.0
C755 C 0.77396 0.43118 0.14499 0.0
C756 C 0.74431 0.38907 0.14665 0.0
C757 C 0.65045 0.22194 0.2219 0.0
C758 C 0.60687 0.19399 0.22126 0.0
C759 C 0.6688 0.24782 0.20619 0.0
C760 C 0.64374 0.24607 0.18977 0.0
C761 C 0.59973 0.22268 0.19047 0.0
C762 C 0.58133 0.19674 0.20619 0.0
C763 C 0.66453 0.26086 0.1709 0.0
C764 C 0.6922 0.30359 0.16927 0.0
C765 C 0.66639 0.23229 0.15729 0.0
C766 C 0.63793 0.18683 0.15803 0.0
C767 C 0.59577 0.16855 0.15104 0.0
C768 C 0.56992 0.12522 0.1502 0.0
C769 C 0.58619 0.10002 0.15608 0.0
C770 C 0.62799 0.11803 0.16323 0.0
C771 C 0.65384 0.16132 0.16425 0.0
H772 H 0.56665 0.06654 0.15482 0.0
H773 H 0.83814 0.47914 0.15088 0.0
H774 H 1.04828 0.50327 0.10815 0.0
H775 H 1.04453 0.51431 0.07275 0.0
H776 H 0.15269 0.63778 0.08085 0.0
H777 H 0.15719 0.62691 0.11601 0.0
H778 H 1.08028 0.63088 0.05798 0.0
H779 H 0.17089 0.56972 0.06299 0.0
H780 H 0.18638 0.51488 0.07254 0.0
H781 H 1.08027 0.42446 0.03644 0.0
H782 H 1.0638 0.47872 0.02691 0.0
H783 H 0.15637 0.69659 0.96355 0.0
H784 H 0.14494 0.67855 -0.00198 0.0
H785 H 1.06597 0.54878 0.98007 0.0
H786 H 1.08038 0.56602 0.94569 0.0
H787 H 0.11453 0.55314 0.00805 0.0
H788 H 1.02624 0.6123 -0.0001 0.0
H789 H 1.00651 0.66428 0.9905 0.0
H790 H 0.10006 0.75402 0.03211 0.0
H791 H 0.12078 0.70277 0.04158 0.0
C792 C 1.07127 0.5327 0.10235 0.0
C793 C 0.10319 0.56412 0.11478 0.0
C794 C 1.06904 0.53895 0.0822 0.0
C795 C 0.09831 0.57686 0.07433 0.0
C796 C 0.12978 0.6084 0.08675 0.0
C797 C 0.13245 0.60198 0.10677 0.0
C798 C 0.09712 0.5836 0.05303 0.0
C799 C 1.08794 0.61414 0.04698 0.0
C800 C 0.10573 0.56064 0.0388 0.0
C801 C 0.11582 0.52814 0.04443 0.0
C802 C 0.15064 0.53807 0.05724 0.0
C803 C 0.15964 0.50711 0.06261 0.0
C804 C 0.13425 0.46618 0.05515 0.0
C805 C 0.09986 0.45615 0.04224 0.0
C806 C 1.09069 0.48699 0.03684 0.0
C807 C 0.13683 0.66414 0.96689 0.0
C808 C 0.11941 0.63284 0.95172 0.0
C809 C 0.12968 0.65392 0.98666 0.0
C810 C 0.10395 0.61233 0.9917 0.0
C811 C 1.08578 0.58112 0.97659 0.0
C812 C 1.09365 0.59118 0.95685 0.0
C813 C 0.09818 0.6011 0.01273 0.0
C814 C 0.10615 0.56965 0.01883 0.0
C815 C 1.08769 0.6228 0.02696 0.0
C816 C 1.07528 0.65375 0.02134 0.0
C817 C 1.04282 0.64321 0.00695 0.0
C818 C 1.03142 0.67253 0.00163 0.0
C819 C 1.05207 0.71245 0.01067 0.0
C820 C 1.0841 0.7231 0.0251 0.0
C821 C 1.09565 0.6939 0.03047 0.0
H822 H 1.0432 0.73511 0.00653 0.0
H823 H 0.14127 0.44225 0.05933 0.0
H824 H 0.65287 0.14804 0.45158 0.0
H825 H 0.65598 0.15939 0.41628 0.0
H826 H 0.60947 1.02862 0.4038 0.0
H827 H 0.60632 1.0168 0.43942 0.0
H828 H 0.67741 0.08881 0.37847 0.0
H829 H 0.53936 1.05662 0.40353 0.0
H830 H 0.4991 0.07071 0.42828 0.0
H831 H 0.55728 0.19803 0.41165 0.0
H832 H 0.59819 0.18475 0.38692 0.0
H833 H 0.60261 0.06197 0.28098 0.0
H834 H 0.61313 1.05805 0.31591 0.0
H835 H 0.60794 0.17049 0.32712 0.0
H836 H 0.59113 0.17134 0.29222 0.0
H837 H 0.5715 0.12535 0.35421 0.0
H838 H 0.70468 0.16336 0.32853 0.0
H839 H 0.75621 0.16066 0.3066 0.0
H840 H 0.72212 1.03895 0.32611 0.0
H841 H 0.66997 1.04067 0.34797 0.0
C842 C 0.64358 0.12163 0.44138 0.0
C843 C 0.62847 0.08128 0.44823 0.0
C844 C 0.64564 0.1283 0.42122 0.0
C845 C 0.6324 0.09475 0.40753 0.0
C846 C 0.61975 1.05483 0.41424 0.0
C847 C 0.6178 1.0481 0.43453 0.0
C848 C 0.62784 0.10079 0.38636 0.0
C849 C 0.654 0.09629 0.373 0.0
C850 C 0.5987 0.11262 0.37959 0.0
C851 C 0.57184 0.11971 0.39342 0.0
C852 C 0.54344 0.08757 0.40511 0.0
C853 C 0.52058 0.09544 0.41916 0.0
C854 C 0.52565 0.13525 0.42154 0.0
C855 C 0.55333 0.16719 0.40976 0.0
C856 C 0.57627 0.15949 0.39569 0.0
C857 C 0.60242 0.0854 0.29074 0.0
C858 C 0.59529 0.11672 0.28346 0.0
C859 C 0.60975 0.08373 0.31087 0.0
C860 C 0.61262 0.11461 0.32428 0.0
C861 C 0.60616 0.14632 0.31713 0.0
C862 C 0.59712 0.14711 0.29702 0.0
C863 C 0.62073 0.11267 0.34577 0.0
C864 C 0.59521 0.11804 0.35938 0.0
C865 C 0.65167 0.10316 0.35284 0.0
C866 C 0.68317 0.10204 0.33979 0.0
C867 C 0.70799 0.13591 0.32806 0.0
C868 C 0.73733 0.13457 0.31565 0.0
C869 C 0.74237 0.09962 0.31493 0.0
C870 C 0.71816 0.06599 0.32667 0.0
C871 C 0.68875 0.06716 0.3391 0.0
H872 H 0.76509 0.09863 0.30531 0.0
H873 H 0.50815 0.14135 0.43251 0.0
H874 H 0.58908 0.4878 0.77394 0.0
H875 H 0.60246 0.48451 0.73866 0.0
H876 H 0.65292 0.6171 0.73631 0.0
H877 H 0.64092 0.62081 0.7715 0.0
H878 H 0.58862 0.56237 0.70502 0.0
H879 H 0.72087 0.59507 0.73754 0.0
H880 H 0.76785 0.58499 0.7605 0.0
H881 H 0.72925 0.46577 0.73207 0.0
H882 H 0.68148 0.47489 0.70914 0.0
H883 H 0.68971 0.62507 0.61649 0.0
H884 H 0.67966 0.61967 0.65206 0.0
H885 H 0.65615 0.49347 0.64827 0.0
H886 H 0.66662 0.4989 0.61254 0.0
H887 H 0.70251 0.53729 0.68249 0.0
H888 H 0.57456 0.50839 0.6478 0.0
H889 H 0.53153 0.522 0.62391 0.0
H890 H 0.56297 0.63557 0.6563 0.0
H891 H 0.6068 0.62299 0.68021 0.0
C892 C 0.60267 0.51609 0.76579 0.0
C893 C 0.61389 0.55454 0.77531 0.0
C894 C 0.61051 0.51421 0.74577 0.0
C895 C 0.62878 0.55062 0.73504 0.0
C896 C 0.63887 0.58876 0.74442 0.0
C897 C 0.63201 0.59081 0.76447 0.0
C898 C 0.63746 0.54933 0.71397 0.0
C899 C 0.61358 0.55703 0.70006 0.0
C900 C 0.66951 0.54156 0.70763 0.0
C901 C 0.69708 0.53536 0.72183 0.0
C902 C 0.72184 0.56638 0.73641 0.0
C903 C 0.74874 0.56092 0.74938 0.0
C904 C 0.75138 0.52466 0.74784 0.0
C905 C 0.72706 0.49377 0.73333 0.0
C906 C 0.70005 0.49906 0.72034 0.0
C907 C 0.68294 0.59637 0.6233 0.0
C908 C 0.6784 0.56221 0.6118 0.0
C909 C 0.67718 0.59331 0.64357 0.0
C910 C 0.66626 0.55586 0.65267 0.0
C911 C 0.66435 0.52254 0.64147 0.0
C912 C 0.6704 0.52569 0.62112 0.0
C913 C 0.65403 0.55092 0.67352 0.0
C914 C 0.67711 0.54199 0.68739 0.0
C915 C 0.62119 0.55759 0.67987 0.0
C916 C 0.5942 0.56487 0.66572 0.0
C917 C 0.5725 0.53638 0.64977 0.0
C918 C 0.54796 0.54391 0.63622 0.0
C919 C 0.54458 0.57966 0.63857 0.0
C920 C 0.56564 0.6079 0.6545 0.0
C921 C 0.5903 0.60056 0.66806 0.0
H922 H 0.52558 0.58545 0.62806 0.0
H923 H 0.77248 0.52067 0.75781 0.0
H924 H 0.66241 1.05342 0.57533 0.0
H925 H 0.66115 1.05209 0.61137 0.0
H926 H 0.5607 0.08091 0.61043 0.0
H927 H 0.56188 0.08258 0.57435 0.0
H928 H 0.62005 0.12677 0.63925 0.0
H929 H 0.54021 0.98254 0.6181 0.0
H930 H 0.52696 0.91837 0.59993 0.0
H931 H 0.63265 0.92266 0.63105 0.0
H932 H 0.64691 0.98724 0.64921 0.0
H933 H 0.55919 0.07859 0.73824 0.0
H934 H 0.56007 0.07955 0.70219 0.0
H935 H 0.65671 1.04539 0.70288 0.0
H936 H 0.65596 1.04432 0.739 0.0
H937 H 0.59932 1.00229 0.6741 0.0
H938 H 0.67952 0.14643 0.69519 0.0
H939 H 0.69322 0.21076 0.71336 0.0
H940 H 0.58775 0.20709 0.68233 0.0
H941 H 0.57305 0.14237 0.66417 0.0
C942 C 0.64003 0.05955 0.58273 0.0
C943 C 0.61215 0.06799 0.57182 0.0
C944 C 0.63924 1.05859 0.6034 0.0
C945 C 0.61052 0.06596 0.61369 0.0
C946 C 0.5831 0.07505 0.60288 0.0
C947 C 0.58375 0.07585 0.5822 0.0
C948 C 0.60912 0.06425 0.63569 0.0
C949 C 0.61494 0.09933 0.64684 0.0
C950 C 0.60346 1.02886 0.64572 0.0
C951 C 0.59488 0.98996 0.63487 0.0
C952 C 0.56084 0.96999 0.62095 0.0
C953 C 0.55311 0.93351 0.61068 0.0
C954 C 0.57902 0.91651 0.61429 0.0
C955 C 0.61265 0.9359 0.62824 0.0
C956 C 0.62055 0.97243 0.63854 0.0
C957 C 0.5809 0.07159 0.73076 0.0
C958 C 0.6077 0.06162 0.74161 0.0
C959 C 0.58135 0.07213 0.71009 0.0
C960 C 0.6089 0.06314 0.69972 0.0
C961 C 0.63516 1.05246 0.71048 0.0
C962 C 0.63462 1.05177 0.73116 0.0
C963 C 0.61029 0.06485 0.67769 0.0
C964 C 0.60446 1.02976 0.66652 0.0
C965 C 0.61604 0.10028 0.66765 0.0
C966 C 0.62494 0.13933 0.67846 0.0
C967 C 0.65906 0.15917 0.69235 0.0
C968 C 0.66703 0.19573 0.70263 0.0
C969 C 0.6413 0.21294 0.69904 0.0
C970 C 0.60762 0.19368 0.68512 0.0
C971 C 0.59947 0.15708 0.67481 0.0
H972 H 0.64753 0.24124 0.70701 0.0
H973 H 0.57297 0.88826 0.60632 0.0
H974 H 0.67346 0.60636 0.90521 0.0
H975 H 0.67162 0.60508 0.94123 0.0
H976 H 0.53556 0.53687 0.93724 0.0
H977 H 0.53705 0.53757 0.90117 0.0
H978 H 0.64126 0.63468 0.96873 0.0
H979 H 0.49912 0.46833 0.97455 0.0
H980 H 0.46388 0.40118 0.95542 0.0
H981 H 0.58006 0.43273 0.92785 0.0
H982 H 0.61609 0.49977 0.947 0.0
H983 H 0.58052 0.60451 0.069 0.0
H984 H 0.57897 0.60686 0.03293 0.0
H985 H 0.6241 0.5196 0.02887 0.0
H986 H 0.6242 0.51587 0.06481 0.0
H987 H 0.56472 0.49976 0.00135 0.0
H988 H 0.6901 0.62579 0.02345 0.0
H989 H 0.7314 0.69238 0.04262 0.0
H990 H 0.6595 0.7406 0.0144 0.0
H991 H 0.61739 0.67406 0.99524 0.0
C992 C 0.64306 0.59116 0.91193 0.0
C993 C 0.6054 0.57184 0.90014 0.0
C994 C 0.64208 0.59059 0.9326 0.0
C995 C 0.60348 0.5705 0.94205 0.0
C996 C 0.5658 0.55206 0.93036 0.0
C997 C 0.56673 0.55263 0.90967 0.0
C998 C 0.6028 0.56815 0.96406 0.0
C999 C 0.62434 0.60517 0.97584 0.0
C1000 C 0.58138 0.52968 0.97348 0.0
C1001 C 0.56014 0.48925 0.96205 0.0
C1002 C 0.51715 0.46086 0.96445 0.0
C1003 C 0.49704 0.42283 0.9536 0.0
C1004 C 0.51968 0.41276 0.94038 0.0
C1005 C 0.56252 0.44063 0.93803 0.0
C1006 C 0.58278 0.47867 0.94887 0.0
C1007 C 0.5897 0.58546 0.06045 0.0
C1008 C 0.60275 0.56019 0.06994 0.0
C1009 C 0.58919 0.58715 0.03977 0.0
C1010 C 0.60195 0.56383 0.02807 0.0
C1011 C 0.61424 0.53804 0.03749 0.0
C1012 C 0.61469 0.53627 0.05812 0.0
C1013 C 0.6028 0.56634 0.00605 0.0
C1014 C 0.58131 0.52933 0.99426 0.0
C1015 C 0.62495 0.60476 0.99663 0.0
C1016 C 0.65033 0.64482 0.00806 0.0
C1017 C 0.6829 0.6505 0.02144 0.0
C1018 C 0.70649 0.68824 0.03229 0.0
C1019 C 0.69801 0.72066 0.02977 0.0
C1020 C 0.66599 0.71544 0.01635 0.0
C1021 C 0.64228 0.67773 0.00549 0.0
H1022 H 0.71631 0.74986 0.03817 0.0
H1023 H 0.50404 0.38333 0.93198 0.0
H1024 H 0.12471 0.61707 0.24316 0.0
H1025 H 0.12441 0.61583 0.27917 0.0
H1026 H 1.0915 0.48674 0.27604 0.0
H1027 H 1.0915 0.4876 0.23987 0.0
H1028 H 1.04449 0.50069 0.30273 0.0
H1029 H 0.19101 0.56145 0.28931 0.0
H1030 H 0.25792 0.61082 0.27452 0.0
H1031 H 0.25669 0.71319 0.30498 0.0
H1032 H 0.18942 0.66445 0.31975 0.0
H1033 H 1.0852 0.49117 0.40556 0.0
H1034 H 1.08512 0.48833 0.36942 0.0
H1035 H 0.12608 0.61941 0.36913 0.0
H1036 H 0.12639 0.62246 0.40524 0.0
H1037 H 0.16966 0.60217 0.34398 0.0
H1038 H 1.02242 0.54213 0.35666 0.0
H1039 H 0.95519 0.49319 0.37135 0.0
H1040 H 0.9573 0.39002 0.34226 0.0
H1041 H 1.02489 0.43834 0.32761 0.0
C1042 C 0.11744 0.58834 0.25006 0.0
C1043 C 0.10827 0.55246 0.23851 0.0
C1044 C 0.11743 0.58775 0.27072 0.0
C1045 C 0.10835 0.55131 0.2804 0.0
C1046 C 0.09869 0.51527 0.26894 0.0
C1047 C 0.09887 0.51587 0.24824 0.0
C1048 C 0.10879 0.55095 0.30245 0.0
C1049 C 1.07208 0.52246 0.31176 0.0
C1050 C 0.14443 0.57992 0.31429 0.0
C1051 C 0.18496 0.60931 0.30549 0.0
C1052 C 0.20483 0.59451 0.29273 0.0
C1053 C 0.24285 0.62238 0.28438 0.0
C1054 C 0.26149 0.66512 0.28877 0.0
C1055 C 0.24219 0.68007 0.30157 0.0
C1056 C 0.20413 0.65234 0.30996 0.0
C1057 C 1.09379 0.51932 0.3978 0.0
C1058 C 0.10576 0.55704 0.40837 0.0
C1059 C 1.09375 0.51766 0.37709 0.0
C1060 C 0.10519 0.55357 0.36642 0.0
C1061 C 0.11724 0.59127 0.37695 0.0
C1062 C 0.11747 0.59298 0.39764 0.0
C1063 C 0.10521 0.55214 0.34433 0.0
C1064 C 0.14206 0.5803 0.335 0.0
C1065 C 1.06965 0.52293 0.33248 0.0
C1066 C 1.02894 0.49383 0.34121 0.0
C1067 C 1.00872 0.50899 0.35352 0.0
C1068 C 0.97052 0.48136 0.36182 0.0
C1069 C 0.95205 0.43851 0.35779 0.0
C1070 C 0.97168 0.42321 0.3454 0.0
C1071 C 1.00992 0.45071 0.33708 0.0
H1072 H 0.92247 0.41717 0.36422 0.0
H1073 H 0.29094 0.68665 0.28228 0.0
loop_
_geom_bond_atom_site_label_1
_geom_bond_atom_site_label_2
_geom_bond_distance
_geom_bond_site_symmetry_2
_ccdc_geom_bond_type
Eu0 C9 2.828 . S
Eu0 O11 2.392 1_655 S
Eu0 O13 2.418 . S
Eu0 O18 2.373 . S
Eu0 O21 2.488 . S
Eu0 O22 2.471 . S
Eu0 O23 2.349 . S
Eu1 O10 2.373 . S
Eu1 O14 2.488 . S
Eu1 O15 2.471 . S
Eu1 O16 2.349 . S
Eu1 O19 2.392 1_455 S
Eu1 O20 2.418 . S
Eu1 C30 2.828 . S
C2 O20 1.244 . S
C2 O23 1.265 1_455 S
C3 C4 1.379 . S
C3 C7 1.373 . S
C3 C9 1.505 . S
C4 C3 1.379 . S
C4 C6 1.369 . S
C4 H32 0.930 . S
C5 C7 1.383 . S
C5 C8 1.382 . S
C5 H33 0.930 . S
C6 C4 1.369 . S
C6 C8 1.392 . S
C6 H34 0.930 . S
C7 C3 1.373 . S
C7 C5 1.383 . S
C7 H35 0.931 . S
C8 C5 1.382 . S
C8 C6 1.392 . S
C9 Eu0 2.828 . S
C9 C3 1.505 . S
C9 O21 1.249 . S
C9 O22 1.244 . S
O10 Eu1 2.373 . S
O10 C12 1.258 . S
O11 Eu0 2.392 1_455 S
O11 C12 1.242 . S
C12 O10 1.258 . S
C12 O11 1.242 . S
O13 Eu0 2.418 . S
O13 C17 1.241 1_655 S
O14 Eu1 2.488 . S
O14 C30 1.249 . S
O15 Eu1 2.471 . S
O15 C30 1.244 . S
O16 Eu1 2.349 . S
O16 C17 1.268 . S
C17 O13 1.241 1_455 S
C17 O16 1.268 . S
O18 Eu0 2.373 . S
O18 C31 1.258 . S
O19 Eu1 2.392 1_655 S
O19 C31 1.242 . S
O20 Eu1 2.418 . S
O20 C2 1.244 . S
O21 Eu0 2.488 . S
O21 C9 1.249 . S
O22 Eu0 2.471 . S
O22 C9 1.244 . S
O23 Eu0 2.349 . S
O23 C2 1.265 1_655 S
C24 C25 1.379 . S
C24 C28 1.373 . S
C24 C30 1.505 . S
C25 C24 1.379 . S
C25 C27 1.369 . S
C25 H36 0.930 . S
C26 C28 1.383 . S
C26 C29 1.382 . S
C26 H37 0.930 . S
C27 C25 1.369 . S
C27 C29 1.392 . S
C27 H38 0.930 . S
C28 C24 1.373 . S
C28 C26 1.383 . S
C28 H39 0.931 . S
C29 C26 1.382 . S
C29 C27 1.392 . S
C30 Eu1 2.828 . S
C30 O14 1.249 . S
C30 O15 1.244 . S
C30 C24 1.505 . S
C31 O18 1.258 . S
C31 O19 1.242 . S
H32 C4 0.930 . S
H33 C5 0.930 . S
H34 C6 0.930 . S
H35 C7 0.931 . S
H36 C25 0.930 . S
H37 C26 0.930 . S
H38 C27 0.930 . S
H39 C28 0.931 . S
Eu40 C49 2.828 . S
Eu40 O51 2.392 1_565 S
Eu40 O53 2.418 . S
Eu40 O58 2.373 . S
Eu40 O61 2.488 . S
Eu40 O62 2.471 . S
Eu40 O63 2.355 . S
Eu41 O50 2.373 . S
Eu41 O54 2.488 . S
Eu41 O55 2.471 . S
Eu41 O56 2.349 . S
Eu41 O59 2.392 1_545 S
Eu41 O60 2.418 . S
Eu41 C70 2.828 . S
C42 O60 1.244 . S
C42 O63 1.259 1_545 S
C43 C44 1.379 . S
C43 C47 1.373 . S
C43 C49 1.505 . S
C44 C43 1.379 . S
C44 C46 1.369 . S
C44 H72 0.930 . S
C45 C47 1.383 . S
C45 C48 1.382 . S
C45 H73 0.930 . S
C46 C44 1.369 . S
C46 C48 1.392 . S
C46 H74 0.930 . S
C47 C43 1.373 . S
C47 C45 1.383 . S
C47 H75 0.931 . S
C48 C45 1.382 . S
C48 C46 1.392 . S
C49 Eu40 2.828 . S
C49 C43 1.505 . S
C49 O61 1.249 . S
C49 O62 1.244 . S
O50 Eu41 2.373 . S
O50 C52 1.258 . S
O51 Eu40 2.392 1_545 S
O51 C52 1.242 . S
C52 O50 1.258 . S
C52 O51 1.242 . S
O53 Eu40 2.418 . S
O53 C57 1.244 1_565 S
O54 Eu41 2.488 . S
O54 C70 1.249 . S
O55 Eu41 2.471 . S
O55 C70 1.244 . S
O56 Eu41 2.349 . S
O56 C57 1.265 . S
C57 O53 1.244 1_545 S
C57 O56 1.265 . S
O58 Eu40 2.373 . S
O58 C71 1.258 . S
O59 Eu41 2.392 1_565 S
O59 C71 1.242 . S
O60 Eu41 2.418 . S
O60 C42 1.244 . S
O61 Eu40 2.488 . S
O61 C49 1.249 . S
O62 Eu40 2.471 . S
O62 C49 1.244 . S
O63 Eu40 2.355 . S
O63 C42 1.259 1_565 S
C64 C65 1.379 . S
C64 C68 1.373 . S
C64 C70 1.505 . S
C65 C64 1.379 . S
C65 C67 1.369 . S
C65 H76 0.930 . S
C66 C68 1.383 . S
C66 C69 1.382 . S
C66 H77 0.930 . S
C67 C65 1.369 . S
C67 C69 1.392 . S
C67 H78 0.930 . S
C68 C64 1.373 . S
C68 C66 1.383 . S
C68 H79 0.931 . S
C69 C66 1.382 . S
C69 C67 1.392 . S
C70 Eu41 2.828 . S
C70 O54 1.249 . S
C70 O55 1.244 . S
C70 C64 1.505 . S
C71 O58 1.258 . S
C71 O59 1.242 . S
H72 C44 0.930 . S
H73 C45 0.930 . S
H74 C46 0.930 . S
H75 C47 0.931 . S
H76 C65 0.930 . S
H77 C66 0.930 . S
H78 C67 0.930 . S
H79 C68 0.931 . S
Eu80 C89 2.828 . S
Eu80 O91 2.392 . S
Eu80 O93 2.418 . S
Eu80 O98 2.373 . S
Eu80 O101 2.488 . S
Eu80 O102 2.471 . S
Eu80 O103 2.349 . S
Eu81 O90 2.373 . S
Eu81 O94 2.488 . S
Eu81 O95 2.471 . S
Eu81 O96 2.349 . S
Eu81 O99 2.392 . S
Eu81 O100 2.418 . S
Eu81 C110 2.828 . S
C82 O100 1.244 . S
C82 O103 1.265 . S
C83 C84 1.379 . S
C83 C87 1.373 . S
C83 C89 1.505 . S
C84 C83 1.379 . S
C84 C86 1.369 . S
C84 H112 0.930 . S
C85 C87 1.383 . S
C85 C88 1.382 . S
C85 H113 0.930 . S
C86 C84 1.369 . S
C86 C88 1.392 . S
C86 H114 0.930 . S
C87 C83 1.373 . S
C87 C85 1.383 . S
C87 H115 0.931 . S
C88 C85 1.382 . S
C88 C86 1.392 . S
C89 Eu80 2.828 . S
C89 C83 1.505 . S
C89 O101 1.249 . S
C89 O102 1.244 . S
O90 Eu81 2.373 . S
O90 C92 1.258 . S
O91 Eu80 2.392 . S
O91 C92 1.242 . S
C92 O90 1.258 . S
C92 O91 1.242 . S
O93 Eu80 2.418 . S
O93 C97 1.244 . S
O94 Eu81 2.488 . S
O94 C110 1.249 . S
O95 Eu81 2.471 . S
O95 C110 1.244 . S
O96 Eu81 2.349 . S
O96 C97 1.265 . S
C97 O93 1.244 . S
C97 O96 1.265 . S
O98 Eu80 2.373 . S
O98 C111 1.258 . S
O99 Eu81 2.392 . S
O99 C111 1.242 . S
O100 Eu81 2.418 . S
O100 C82 1.244 . S
O101 Eu80 2.488 . S
O101 C89 1.249 . S
O102 Eu80 2.471 . S
O102 C89 1.244 . S
O103 Eu80 2.349 . S
O103 C82 1.265 . S
C104 C105 1.379 . S
C104 C108 1.373 . S
C104 C110 1.505 . S
C105 C104 1.379 . S
C105 C107 1.369 . S
C105 H116 0.930 . S
C106 C108 1.383 . S
C106 C109 1.382 . S
C106 H117 0.930 . S
C107 C105 1.369 . S
C107 C109 1.392 . S
C107 H118 0.930 . S
C108 C104 1.373 . S
C108 C106 1.383 . S
C108 H119 0.931 . S
C109 C106 1.382 . S
C109 C107 1.392 . S
C110 Eu81 2.828 . S
C110 O94 1.249 . S
C110 O95 1.244 . S
C110 C104 1.505 . S
C111 O98 1.258 . S
C111 O99 1.242 . S
H112 C84 0.930 . S
H113 C85 0.930 . S
H114 C86 0.930 . S
H115 C87 0.931 . S
H116 C105 0.930 . S
H117 C106 0.930 . S
H118 C107 0.930 . S
H119 C108 0.931 . S
H120 C123 0.931 . S
H121 C126 0.928 . S
H122 C128 0.930 . S
C123 H120 0.931 . S
C123 C124 1.413 . S
C123 C125 1.360 1_565 S
C124 C123 1.413 . S
C124 C128 1.429 1_565 S
C125 C123 1.360 1_545 S
C125 C126 1.372 . S
C126 H121 0.928 . S
C126 C125 1.372 . S
C126 C127 1.404 . S
C127 C126 1.404 . S
C127 C128 1.391 . S
C128 H122 0.930 . S
C128 C124 1.429 1_545 S
C128 C127 1.391 . S
H129 C132 0.931 . S
H130 C135 0.928 . S
H131 C137 0.930 . S
C132 H129 0.931 . S
C132 C133 1.413 . S
C132 C134 1.360 . S
C133 C132 1.413 . S
C133 C137 1.429 . S
C134 C132 1.360 . S
C134 C135 1.372 . S
C135 H130 0.928 . S
C135 C134 1.372 . S
C135 C136 1.404 . S
C136 C135 1.404 . S
C136 C137 1.391 . S
C137 H131 0.930 . S
C137 C133 1.429 . S
C137 C136 1.391 . S
H138 C141 0.931 1_655 S
H139 C144 0.928 . S
H140 C146 0.930 . S
C141 H138 0.931 1_455 S
C141 C142 1.413 . S
C141 C143 1.360 . S
C142 C141 1.413 . S
C142 C146 1.429 . S
C143 C141 1.360 . S
C143 C144 1.372 . S
C144 H139 0.928 . S
C144 C143 1.372 . S
C144 C145 1.404 . S
C145 C144 1.404 . S
C145 C146 1.391 . S
C146 H140 0.930 . S
C146 C142 1.429 . S
C146 C145 1.391 . S
H147 C150 0.931 . S
H148 C153 0.928 . S
H149 C155 0.930 . S
C150 H147 0.931 . S
C150 C151 1.413 . S
C150 C152 1.360 1_655 S
C151 C150 1.413 . S
C151 C155 1.429 1_655 S
C152 C150 1.360 1_455 S
C152 C153 1.372 . S
C153 H148 0.928 . S
C153 C152 1.372 . S
C153 C154 1.404 . S
C154 C153 1.404 . S
C154 C155 1.391 . S
C155 H149 0.930 . S
C155 C151 1.429 1_455 S
C155 C154 1.391 . S
H156 C159 0.931 . S
H157 C162 0.928 . S
H158 C164 0.930 . S
C159 H156 0.931 . S
C159 C160 1.413 . S
C159 C161 1.360 . S
C160 C159 1.413 . S
C160 C164 1.429 . S
C161 C159 1.360 . S
C161 C162 1.372 1_545 S
C162 H157 0.928 . S
C162 C161 1.372 1_565 S
C162 C163 1.404 . S
C163 C162 1.404 . S
C163 C164 1.391 1_565 S
C164 H158 0.930 . S
C164 C160 1.429 . S
C164 C163 1.391 1_545 S
H165 C168 0.931 . S
H166 C171 0.928 . S
H167 C173 0.930 . S
C168 H165 0.931 . S
C168 C169 1.413 . S
C168 C170 1.360 . S
C169 C168 1.413 . S
C169 C173 1.429 . S
C170 C168 1.360 . S
C170 C171 1.372 . S
C171 H166 0.928 . S
C171 C170 1.372 . S
C171 C172 1.404 . S
C172 C171 1.404 . S
C172 C173 1.391 . S
C173 H167 0.930 . S
C173 C169 1.429 . S
C173 C172 1.391 . S
H174 C192 0.951 . S
H175 C194 0.951 . S
H176 C196 0.950 . S
H177 C197 0.950 . S
H178 C199 0.950 . S
H179 C202 0.950 . S
H180 C203 0.950 . S
H181 C205 0.950 . S
H182 C206 0.950 . S
H183 C207 0.951 . S
H184 C209 0.951 . S
H185 C211 0.950 . S
H186 C212 0.950 . S
H187 C214 0.950 . S
H188 C217 0.950 . S
H189 C218 0.950 . S
H190 C220 0.950 . S
H191 C221 0.950 . S
C192 H174 0.951 . S
C192 C193 1.366 . S
C192 C194 1.388 . S
C193 C192 1.366 . S
C193 C197 1.385 . S
C194 H175 0.951 . S
C194 C192 1.388 . S
C194 C195 1.366 . S
C195 C194 1.366 . S
C195 C196 1.414 . S
C195 C198 1.499 . S
C196 H176 0.950 . S
C196 C195 1.414 . S
C196 C197 1.374 . S
C197 H177 0.950 . S
C197 C193 1.385 . S
C197 C196 1.374 . S
C198 C195 1.499 . S
C198 C199 1.373 . S
C198 C200 1.389 . S
C199 H178 0.950 . S
C199 C198 1.373 . S
C199 C215 1.377 . S
C200 C198 1.389 . S
C200 C201 1.524 . S
C200 C214 1.377 . S
C201 C200 1.524 . S
C201 C202 1.397 . S
C201 C206 1.363 . S
C202 H179 0.950 . S
C202 C201 1.397 . S
C202 C203 1.334 . S
C203 H180 0.950 . S
C203 C202 1.334 . S
C203 C204 1.287 . S
C204 C203 1.287 . S
C204 C205 1.524 . S
C204 H223 0.913 . S
C205 H181 0.950 . S
C205 C204 1.524 . S
C205 C206 1.415 . S
C206 H182 0.950 . S
C206 C201 1.363 . S
C206 C205 1.415 . S
C207 H183 0.951 . S
C207 C208 1.366 . S
C207 C209 1.388 . S
C208 C207 1.366 . S
C208 C212 1.385 . S
C209 H184 0.951 . S
C209 C207 1.388 . S
C209 C210 1.366 . S
C210 C209 1.366 . S
C210 C211 1.414 . S
C210 C213 1.499 . S
C211 H185 0.950 . S
C211 C210 1.414 . S
C211 C212 1.374 . S
C212 H186 0.950 . S
C212 C208 1.385 . S
C212 C211 1.374 . S
C213 C210 1.499 . S
C213 C214 1.373 . S
C213 C215 1.389 . S
C214 H187 0.950 . S
C214 C200 1.377 . S
C214 C213 1.373 . S
C215 C199 1.377 . S
C215 C213 1.389 . S
C215 C216 1.524 . S
C216 C215 1.524 . S
C216 C217 1.397 . S
C216 C221 1.363 . S
C217 H188 0.950 . S
C217 C216 1.397 . S
C217 C218 1.334 . S
C218 H189 0.950 . S
C218 C217 1.334 . S
C218 C219 1.287 . S
C219 C218 1.287 . S
C219 C220 1.524 . S
C219 H222 0.999 . S
C220 H190 0.950 . S
C220 C219 1.524 . S
C220 C221 1.415 . S
C221 H191 0.950 . S
C221 C216 1.363 . S
C221 C220 1.415 . S
H222 C219 0.999 . S
H223 C204 0.913 . S
H224 C242 0.951 . S
H225 C244 0.951 . S
H226 C246 0.950 . S
H227 C247 0.950 . S
H228 C249 0.950 . S
H229 C252 0.950 . S
H230 C253 0.950 . S
H231 C255 0.950 . S
H232 C256 0.950 . S
H233 C257 0.951 . S
H234 C259 0.951 . S
H235 C261 0.950 . S
H236 C262 0.950 . S
H237 C264 0.950 . S
H238 C267 0.950 . S
H239 C268 0.950 . S
H240 C270 0.950 . S
H241 C271 0.950 . S
C242 H224 0.951 . S
C242 C243 1.366 . S
C242 C244 1.388 . S
C243 C242 1.366 . S
C243 C247 1.385 . S
C244 H225 0.951 . S
C244 C242 1.388 . S
C244 C245 1.366 . S
C245 C244 1.366 . S
C245 C246 1.414 . S
C245 C248 1.499 . S
C246 H226 0.950 . S
C246 C245 1.414 . S
C246 C247 1.374 . S
C247 H227 0.950 . S
C247 C243 1.385 . S
C247 C246 1.374 . S
C248 C245 1.499 . S
C248 C249 1.373 . S
C248 C250 1.389 . S
C249 H228 0.950 . S
C249 C248 1.373 . S
C249 C265 1.377 . S
C250 C248 1.389 . S
C250 C251 1.524 . S
C250 C264 1.377 . S
C251 C250 1.524 . S
C251 C252 1.397 . S
C251 C256 1.363 . S
C252 H229 0.950 . S
C252 C251 1.397 . S
C252 C253 1.334 . S
C253 H230 0.950 . S
C253 C252 1.334 . S
C253 C254 1.287 . S
C254 C253 1.287 . S
C254 C255 1.524 . S
C254 H273 0.913 . S
C255 H231 0.950 . S
C255 C254 1.524 . S
C255 C256 1.415 . S
C256 H232 0.950 . S
C256 C251 1.363 . S
C256 C255 1.415 . S
C257 H233 0.951 . S
C257 C258 1.366 . S
C257 C259 1.388 . S
C258 C257 1.366 . S
C258 C262 1.385 . S
C259 H234 0.951 . S
C259 C257 1.388 . S
C259 C260 1.366 . S
C260 C259 1.366 . S
C260 C261 1.414 . S
C260 C263 1.499 . S
C261 H235 0.950 . S
C261 C260 1.414 . S
C261 C262 1.374 . S
C262 H236 0.950 . S
C262 C258 1.385 . S
C262 C261 1.374 . S
C263 C260 1.499 . S
C263 C264 1.373 . S
C263 C265 1.389 . S
C264 H237 0.950 . S
C264 C250 1.377 . S
C264 C263 1.373 . S
C265 C249 1.377 . S
C265 C263 1.389 . S
C265 C266 1.524 . S
C266 C265 1.524 . S
C266 C267 1.397 . S
C266 C271 1.363 . S
C267 H238 0.950 . S
C267 C266 1.397 . S
C267 C268 1.334 . S
C268 H239 0.950 . S
C268 C267 1.334 . S
C268 C269 1.287 . S
C269 C268 1.287 . S
C269 C270 1.524 . S
C269 H272 0.999 . S
C270 H240 0.950 . S
C270 C269 1.524 . S
C270 C271 1.415 . S
C271 H241 0.950 . S
C271 C266 1.363 . S
C271 C270 1.415 . S
H272 C269 0.999 . S
H273 C254 0.913 . S
H274 C292 0.951 . S
H275 C294 0.951 . S
H276 C296 0.950 . S
H277 C297 0.950 . S
H278 C299 0.950 . S
H279 C302 0.950 . S
H280 C303 0.950 . S
H281 C305 0.950 . S
H282 C306 0.950 . S
H283 C307 0.951 . S
H284 C309 0.951 . S
H285 C311 0.950 . S
H286 C312 0.950 . S
H287 C314 0.950 . S
H288 C317 0.950 . S
H289 C318 0.950 . S
H290 C320 0.950 . S
H291 C321 0.950 . S
C292 H274 0.951 . S
C292 C293 1.366 . S
C292 C294 1.388 . S
C293 C292 1.366 . S
C293 C297 1.385 . S
C294 H275 0.951 . S
C294 C292 1.388 . S
C294 C295 1.366 . S
C295 C294 1.366 . S
C295 C296 1.414 . S
C295 C298 1.499 . S
C296 H276 0.950 . S
C296 C295 1.414 . S
C296 C297 1.374 . S
C297 H277 0.950 . S
C297 C293 1.385 . S
C297 C296 1.374 . S
C298 C295 1.499 . S
C298 C299 1.373 . S
C298 C300 1.389 . S
C299 H278 0.950 . S
C299 C298 1.373 . S
C299 C315 1.377 . S
C300 C298 1.389 . S
C300 C301 1.524 . S
C300 C314 1.377 . S
C301 C300 1.524 . S
C301 C302 1.397 . S
C301 C306 1.363 . S
C302 H279 0.950 . S
C302 C301 1.397 . S
C302 C303 1.334 . S
C303 H280 0.950 . S
C303 C302 1.334 . S
C303 C304 1.287 . S
C304 C303 1.287 . S
C304 C305 1.524 . S
C304 H323 0.913 . S
C305 H281 0.950 . S
C305 C304 1.524 . S
C305 C306 1.415 . S
C306 H282 0.950 . S
C306 C301 1.363 . S
C306 C305 1.415 . S
C307 H283 0.951 . S
C307 C308 1.366 . S
C307 C309 1.388 . S
C308 C307 1.366 . S
C308 C312 1.385 . S
C309 H284 0.951 . S
C309 C307 1.388 . S
C309 C310 1.366 . S
C310 C309 1.366 . S
C310 C311 1.414 . S
C310 C313 1.499 . S
C311 H285 0.950 . S
C311 C310 1.414 . S
C311 C312 1.374 . S
C312 H286 0.950 . S
C312 C308 1.385 . S
C312 C311 1.374 . S
C313 C310 1.499 . S
C313 C314 1.373 . S
C313 C315 1.389 . S
C314 H287 0.950 . S
C314 C300 1.377 . S
C314 C313 1.373 . S
C315 C299 1.377 . S
C315 C313 1.389 . S
C315 C316 1.524 . S
C316 C315 1.524 . S
C316 C317 1.397 . S
C316 C321 1.363 . S
C317 H288 0.950 . S
C317 C316 1.397 . S
C317 C318 1.334 . S
C318 H289 0.950 . S
C318 C317 1.334 . S
C318 C319 1.287 . S
C319 C318 1.287 . S
C319 C320 1.524 . S
C319 H322 0.999 . S
C320 H290 0.950 . S
C320 C319 1.524 . S
C320 C321 1.415 . S
C321 H291 0.950 . S
C321 C316 1.363 . S
C321 C320 1.415 . S
H322 C319 0.999 . S
H323 C304 0.913 . S
H324 C342 0.951 . S
H325 C344 0.951 . S
H326 C346 0.950 . S
H327 C347 0.950 . S
H328 C349 0.950 . S
H329 C352 0.950 . S
H330 C353 0.950 . S
H331 C355 0.950 . S
H332 C356 0.950 . S
H333 C357 0.951 . S
H334 C359 0.951 . S
H335 C361 0.950 . S
H336 C362 0.950 . S
H337 C364 0.950 . S
H338 C367 0.950 . S
H339 C368 0.950 . S
H340 C370 0.950 . S
H341 C371 0.950 . S
C342 H324 0.951 . S
C342 C343 1.366 . S
C342 C344 1.388 . S
C343 C342 1.366 . S
C343 C347 1.385 . S
C344 H325 0.951 . S
C344 C342 1.388 . S
C344 C345 1.366 . S
C345 C344 1.366 . S
C345 C346 1.414 . S
C345 C348 1.499 . S
C346 H326 0.950 . S
C346 C345 1.414 . S
C346 C347 1.374 . S
C347 H327 0.950 . S
C347 C343 1.385 . S
C347 C346 1.374 . S
C348 C345 1.499 . S
C348 C349 1.373 . S
C348 C350 1.389 . S
C349 H328 0.950 . S
C349 C348 1.373 . S
C349 C365 1.377 . S
C350 C348 1.389 . S
C350 C351 1.524 . S
C350 C364 1.377 . S
C351 C350 1.524 . S
C351 C352 1.397 . S
C351 C356 1.363 . S
C352 H329 0.950 . S
C352 C351 1.397 . S
C352 C353 1.334 . S
C353 H330 0.950 . S
C353 C352 1.334 . S
C353 C354 1.287 . S
C354 C353 1.287 . S
C354 C355 1.524 . S
C354 H373 0.913 . S
C355 H331 0.950 . S
C355 C354 1.524 . S
C355 C356 1.415 . S
C356 H332 0.950 . S
C356 C351 1.363 . S
C356 C355 1.415 . S
C357 H333 0.951 . S
C357 C358 1.366 . S
C357 C359 1.388 . S
C358 C357 1.366 . S
C358 C362 1.385 . S
C359 H334 0.951 . S
C359 C357 1.388 . S
C359 C360 1.366 . S
C360 C359 1.366 . S
C360 C361 1.414 . S
C360 C363 1.499 . S
C361 H335 0.950 . S
C361 C360 1.414 . S
C361 C362 1.374 . S
C362 H336 0.950 . S
C362 C358 1.385 . S
C362 C361 1.374 . S
C363 C360 1.499 . S
C363 C364 1.373 . S
C363 C365 1.389 . S
C364 H337 0.950 . S
C364 C350 1.377 . S
C364 C363 1.373 . S
C365 C349 1.377 . S
C365 C363 1.389 . S
C365 C366 1.524 . S
C366 C365 1.524 . S
C366 C367 1.397 . S
C366 C371 1.363 . S
C367 H338 0.950 . S
C367 C366 1.397 . S
C367 C368 1.334 . S
C368 H339 0.950 . S
C368 C367 1.334 . S
C368 C369 1.287 . S
C369 C368 1.287 . S
C369 C370 1.524 . S
C369 H372 0.999 . S
C370 H340 0.950 . S
C370 C369 1.524 . S
C370 C371 1.415 . S
C371 H341 0.950 . S
C371 C366 1.363 . S
C371 C370 1.415 . S
H372 C369 0.999 . S
H373 C354 0.913 . S
H374 C392 0.951 . S
H375 C394 0.951 . S
H376 C396 0.950 . S
H377 C397 0.950 . S
H378 C399 0.950 . S
H379 C402 0.950 . S
H380 C403 0.950 . S
H381 C405 0.950 . S
H382 C406 0.950 . S
H383 C407 0.951 . S
H384 C409 0.951 . S
H385 C411 0.950 . S
H386 C412 0.950 . S
H387 C414 0.950 . S
H388 C417 0.950 . S
H389 C418 0.950 . S
H390 C420 0.950 . S
H391 C421 0.950 . S
C392 H374 0.951 . S
C392 C393 1.366 . S
C392 C394 1.388 . S
C393 C392 1.366 . S
C393 C397 1.385 . S
C394 H375 0.951 . S
C394 C392 1.388 . S
C394 C395 1.366 . S
C395 C394 1.366 . S
C395 C396 1.414 . S
C395 C398 1.499 . S
C396 H376 0.950 . S
C396 C395 1.414 . S
C396 C397 1.374 . S
C397 H377 0.950 . S
C397 C393 1.385 . S
C397 C396 1.374 . S
C398 C395 1.499 . S
C398 C399 1.373 . S
C398 C400 1.389 . S
C399 H378 0.950 . S
C399 C398 1.373 . S
C399 C415 1.377 . S
C400 C398 1.389 . S
C400 C401 1.524 . S
C400 C414 1.377 . S
C401 C400 1.524 . S
C401 C402 1.397 . S
C401 C406 1.363 . S
C402 H379 0.950 . S
C402 C401 1.397 . S
C402 C403 1.334 . S
C403 H380 0.950 . S
C403 C402 1.334 . S
C403 C404 1.287 . S
C404 C403 1.287 . S
C404 C405 1.524 . S
C404 H423 0.913 . S
C405 H381 0.950 . S
C405 C404 1.524 . S
C405 C406 1.415 . S
C406 H382 0.950 . S
C406 C401 1.363 . S
C406 C405 1.415 . S
C407 H383 0.951 . S
C407 C408 1.366 . S
C407 C409 1.388 . S
C408 C407 1.366 . S
C408 C412 1.385 . S
C409 H384 0.951 . S
C409 C407 1.388 . S
C409 C410 1.366 . S
C410 C409 1.366 . S
C410 C411 1.414 . S
C410 C413 1.499 . S
C411 H385 0.950 . S
C411 C410 1.414 . S
C411 C412 1.374 . S
C412 H386 0.950 . S
C412 C408 1.385 . S
C412 C411 1.374 . S
C413 C410 1.499 . S
C413 C414 1.373 . S
C413 C415 1.389 . S
C414 H387 0.950 . S
C414 C400 1.377 . S
C414 C413 1.373 . S
C415 C399 1.377 . S
C415 C413 1.389 . S
C415 C416 1.524 . S
C416 C415 1.524 . S
C416 C417 1.397 . S
C416 C421 1.363 . S
C417 H388 0.950 . S
C417 C416 1.397 . S
C417 C418 1.334 . S
C418 H389 0.950 . S
C418 C417 1.334 . S
C418 C419 1.287 . S
C419 C418 1.287 . S
C419 C420 1.524 . S
C419 H422 0.999 . S
C420 H390 0.950 . S
C420 C419 1.524 . S
C420 C421 1.415 . S
C421 H391 0.950 . S
C421 C416 1.363 . S
C421 C420 1.415 . S
H422 C419 0.999 . S
H423 C404 0.913 . S
H424 C442 0.951 . S
H425 C444 0.951 . S
H426 C446 0.950 . S
H427 C447 0.950 . S
H428 C449 0.950 . S
H429 C452 0.950 . S
H430 C453 0.950 . S
H431 C455 0.950 . S
H432 C456 0.950 . S
H433 C457 0.951 . S
H434 C459 0.951 . S
H435 C461 0.950 . S
H436 C462 0.950 . S
H437 C464 0.950 . S
H438 C467 0.950 . S
H439 C468 0.950 . S
H440 C470 0.950 . S
H441 C471 0.950 . S
C442 H424 0.951 . S
C442 C443 1.366 . S
C442 C444 1.388 . S
C443 C442 1.366 . S
C443 C447 1.385 . S
C444 H425 0.951 . S
C444 C442 1.388 . S
C444 C445 1.366 . S
C445 C444 1.366 . S
C445 C446 1.414 . S
C445 C448 1.499 . S
C446 H426 0.950 . S
C446 C445 1.414 . S
C446 C447 1.374 . S
C447 H427 0.950 . S
C447 C443 1.385 . S
C447 C446 1.374 . S
C448 C445 1.499 . S
C448 C449 1.373 . S
C448 C450 1.389 . S
C449 H428 0.950 . S
C449 C448 1.373 . S
C449 C465 1.377 . S
C450 C448 1.389 . S
C450 C451 1.524 . S
C450 C464 1.377 . S
C451 C450 1.524 . S
C451 C452 1.397 . S
C451 C456 1.363 . S
C452 H429 0.950 . S
C452 C451 1.397 . S
C452 C453 1.334 . S
C453 H430 0.950 . S
C453 C452 1.334 . S
C453 C454 1.287 . S
C454 C453 1.287 . S
C454 C455 1.524 . S
C454 H473 0.913 . S
C455 H431 0.950 . S
C455 C454 1.524 . S
C455 C456 1.415 . S
C456 H432 0.950 . S
C456 C451 1.363 . S
C456 C455 1.415 . S
C457 H433 0.951 . S
C457 C458 1.366 . S
C457 C459 1.388 . S
C458 C457 1.366 . S
C458 C462 1.385 . S
C459 H434 0.951 . S
C459 C457 1.388 . S
C459 C460 1.366 . S
C460 C459 1.366 . S
C460 C461 1.414 . S
C460 C463 1.499 . S
C461 H435 0.950 . S
C461 C460 1.414 . S
C461 C462 1.374 . S
C462 H436 0.950 . S
C462 C458 1.385 . S
C462 C461 1.374 . S
C463 C460 1.499 . S
C463 C464 1.373 . S
C463 C465 1.389 . S
C464 H437 0.950 . S
C464 C450 1.377 . S
C464 C463 1.373 . S
C465 C449 1.377 . S
C465 C463 1.389 . S
C465 C466 1.524 . S
C466 C465 1.524 . S
C466 C467 1.397 . S
C466 C471 1.363 . S
C467 H438 0.950 . S
C467 C466 1.397 . S
C467 C468 1.334 . S
C468 H439 0.950 . S
C468 C467 1.334 . S
C468 C469 1.287 . S
C469 C468 1.287 . S
C469 C470 1.524 . S
C469 H472 0.999 . S
C470 H440 0.950 . S
C470 C469 1.524 . S
C470 C471 1.415 . S
C471 H441 0.950 . S
C471 C466 1.363 . S
C471 C470 1.415 . S
H472 C469 0.999 . S
H473 C454 0.913 . S
H474 C492 0.951 . S
H475 C494 0.951 . S
H476 C496 0.950 . S
H477 C497 0.950 . S
H478 C499 0.950 . S
H479 C502 0.950 . S
H480 C503 0.950 . S
H481 C505 0.950 . S
H482 C506 0.950 . S
H483 C507 0.951 . S
H484 C509 0.951 . S
H485 C511 0.950 . S
H486 C512 0.950 . S
H487 C514 0.950 . S
H488 C517 0.950 . S
H489 C518 0.950 . S
H490 C520 0.950 . S
H491 C521 0.950 . S
C492 H474 0.951 . S
C492 C493 1.366 . S
C492 C494 1.388 . S
C493 C492 1.366 . S
C493 C497 1.385 . S
C494 H475 0.951 . S
C494 C492 1.388 . S
C494 C495 1.366 . S
C495 C494 1.366 . S
C495 C496 1.414 . S
C495 C498 1.499 . S
C496 H476 0.950 . S
C496 C495 1.414 . S
C496 C497 1.374 . S
C497 H477 0.950 . S
C497 C493 1.385 . S
C497 C496 1.374 . S
C498 C495 1.499 . S
C498 C499 1.373 . S
C498 C500 1.389 . S
C499 H478 0.950 . S
C499 C498 1.373 . S
C499 C515 1.377 . S
C500 C498 1.389 . S
C500 C501 1.524 . S
C500 C514 1.377 . S
C501 C500 1.524 . S
C501 C502 1.397 . S
C501 C506 1.363 . S
C502 H479 0.950 . S
C502 C501 1.397 . S
C502 C503 1.334 . S
C503 H480 0.950 . S
C503 C502 1.334 . S
C503 C504 1.287 . S
C504 C503 1.287 . S
C504 C505 1.524 . S
C504 H523 0.913 . S
C505 H481 0.950 . S
C505 C504 1.524 . S
C505 C506 1.415 . S
C506 H482 0.950 . S
C506 C501 1.363 . S
C506 C505 1.415 . S
C507 H483 0.951 . S
C507 C508 1.366 . S
C507 C509 1.388 . S
C508 C507 1.366 . S
C508 C512 1.385 . S
C509 H484 0.951 . S
C509 C507 1.388 . S
C509 C510 1.366 . S
C510 C509 1.366 . S
C510 C511 1.414 . S
C510 C513 1.499 . S
C511 H485 0.950 . S
C511 C510 1.414 . S
C511 C512 1.374 . S
C512 H486 0.950 . S
C512 C508 1.385 . S
C512 C511 1.374 . S
C513 C510 1.499 . S
C513 C514 1.373 . S
C513 C515 1.389 . S
C514 H487 0.950 . S
C514 C500 1.377 . S
C514 C513 1.373 . S
C515 C499 1.377 . S
C515 C513 1.389 . S
C515 C516 1.524 . S
C516 C515 1.524 . S
C516 C517 1.397 . S
C516 C521 1.363 . S
C517 H488 0.950 . S
C517 C516 1.397 . S
C517 C518 1.334 . S
C518 H489 0.950 . S
C518 C517 1.334 . S
C518 C519 1.287 . S
C519 C518 1.287 . S
C519 C520 1.524 . S
C519 H522 0.999 . S
C520 H490 0.950 . S
C520 C519 1.524 . S
C520 C521 1.415 . S
C521 H491 0.950 . S
C521 C516 1.363 . S
C521 C520 1.415 . S
H522 C519 0.999 . S
H523 C504 0.913 . S
H524 C542 0.951 . S
H525 C544 0.951 . S
H526 C546 0.950 . S
H527 C547 0.950 . S
H528 C549 0.950 . S
H529 C552 0.950 . S
H530 C553 0.950 . S
H531 C555 0.950 . S
H532 C556 0.950 . S
H533 C557 0.951 . S
H534 C559 0.951 . S
H535 C561 0.950 . S
H536 C562 0.950 1_455 S
H537 C564 0.950 . S
H538 C567 0.950 . S
H539 C568 0.950 . S
H540 C570 0.950 . S
H541 C571 0.950 . S
C542 H524 0.951 . S
C542 C543 1.366 . S
C542 C544 1.388 . S
C543 C542 1.366 . S
C543 C547 1.385 . S
C544 H525 0.951 . S
C544 C542 1.388 . S
C544 C545 1.366 . S
C545 C544 1.366 . S
C545 C546 1.414 . S
C545 C548 1.499 . S
C546 H526 0.950 . S
C546 C545 1.414 . S
C546 C547 1.374 . S
C547 H527 0.950 . S
C547 C543 1.385 . S
C547 C546 1.374 . S
C548 C545 1.499 . S
C548 C549 1.373 . S
C548 C550 1.389 . S
C549 H528 0.950 . S
C549 C548 1.373 . S
C549 C565 1.377 . S
C550 C548 1.389 . S
C550 C551 1.524 . S
C550 C564 1.377 . S
C551 C550 1.524 . S
C551 C552 1.397 . S
C551 C556 1.363 . S
C552 H529 0.950 . S
C552 C551 1.397 . S
C552 C553 1.334 . S
C553 H530 0.950 . S
C553 C552 1.334 . S
C553 C554 1.287 . S
C554 C553 1.287 . S
C554 C555 1.524 . S
C554 H573 0.913 . S
C555 H531 0.950 . S
C555 C554 1.524 . S
C555 C556 1.415 . S
C556 H532 0.950 . S
C556 C551 1.363 . S
C556 C555 1.415 . S
C557 H533 0.951 . S
C557 C558 1.366 1_655 S
C557 C559 1.388 . S
C558 C557 1.366 1_455 S
C558 C562 1.385 1_455 S
C559 H534 0.951 . S
C559 C557 1.388 . S
C559 C560 1.366 . S
C560 C559 1.366 . S
C560 C561 1.414 . S
C560 C563 1.499 . S
C561 H535 0.950 . S
C561 C560 1.414 . S
C561 C562 1.374 . S
C562 H536 0.950 1_655 S
C562 C558 1.385 1_655 S
C562 C561 1.374 . S
C563 C560 1.499 . S
C563 C564 1.373 . S
C563 C565 1.389 . S
C564 H537 0.950 . S
C564 C550 1.377 . S
C564 C563 1.373 . S
C565 C549 1.377 . S
C565 C563 1.389 . S
C565 C566 1.524 . S
C566 C565 1.524 . S
C566 C567 1.397 . S
C566 C571 1.363 . S
C567 H538 0.950 . S
C567 C566 1.397 . S
C567 C568 1.334 . S
C568 H539 0.950 . S
C568 C567 1.334 . S
C568 C569 1.287 . S
C569 C568 1.287 . S
C569 C570 1.524 . S
C569 H572 0.999 . S
C570 H540 0.950 . S
C570 C569 1.524 . S
C570 C571 1.415 . S
C571 H541 0.950 . S
C571 C566 1.363 . S
C571 C570 1.415 . S
H572 C569 0.999 . S
H573 C554 0.913 . S
H574 C592 0.951 . S
H575 C594 0.951 . S
H576 C596 0.950 . S
H577 C597 0.950 . S
H578 C599 0.950 . S
H579 C602 0.950 . S
H580 C603 0.950 . S
H581 C605 0.950 . S
H582 C606 0.950 . S
H583 C607 0.951 . S
H584 C609 0.951 . S
H585 C611 0.950 . S
H586 C612 0.950 . S
H587 C614 0.950 . S
H588 C617 0.950 . S
H589 C618 0.950 . S
H590 C620 0.950 . S
H591 C621 0.950 . S
C592 H574 0.951 . S
C592 C593 1.366 . S
C592 C594 1.388 . S
C593 C592 1.366 . S
C593 C597 1.385 . S
C594 H575 0.951 . S
C594 C592 1.388 . S
C594 C595 1.366 . S
C595 C594 1.366 . S
C595 C596 1.414 . S
C595 C598 1.499 . S
C596 H576 0.950 . S
C596 C595 1.414 . S
C596 C597 1.374 . S
C597 H577 0.950 . S
C597 C593 1.385 . S
C597 C596 1.374 . S
C598 C595 1.499 . S
C598 C599 1.373 . S
C598 C600 1.389 . S
C599 H578 0.950 . S
C599 C598 1.373 . S
C599 C615 1.377 . S
C600 C598 1.389 . S
C600 C601 1.524 . S
C600 C614 1.377 . S
C601 C600 1.524 . S
C601 C602 1.397 . S
C601 C606 1.363 . S
C602 H579 0.950 . S
C602 C601 1.397 . S
C602 C603 1.334 . S
C603 H580 0.950 . S
C603 C602 1.334 . S
C603 C604 1.287 . S
C604 C603 1.287 . S
C604 C605 1.524 . S
C604 H623 0.913 . S
C605 H581 0.950 . S
C605 C604 1.524 . S
C605 C606 1.415 . S
C606 H582 0.950 . S
C606 C601 1.363 . S
C606 C605 1.415 . S
C607 H583 0.951 . S
C607 C608 1.366 . S
C607 C609 1.388 . S
C608 C607 1.366 . S
C608 C612 1.385 . S
C609 H584 0.951 . S
C609 C607 1.388 . S
C609 C610 1.366 . S
C610 C609 1.366 . S
C610 C611 1.414 . S
C610 C613 1.499 . S
C611 H585 0.950 . S
C611 C610 1.414 . S
C611 C612 1.374 . S
C612 H586 0.950 . S
C612 C608 1.385 . S
C612 C611 1.374 . S
C613 C610 1.499 . S
C613 C614 1.373 . S
C613 C615 1.389 . S
C614 H587 0.950 . S
C614 C600 1.377 . S
C614 C613 1.373 . S
C615 C599 1.377 . S
C615 C613 1.389 . S
C615 C616 1.524 . S
C616 C615 1.524 . S
C616 C617 1.397 . S
C616 C621 1.363 . S
C617 H588 0.950 . S
C617 C616 1.397 . S
C617 C618 1.334 . S
C618 H589 0.950 . S
C618 C617 1.334 . S
C618 C619 1.287 . S
C619 C618 1.287 . S
C619 C620 1.524 . S
C619 H622 0.999 . S
C620 H590 0.950 . S
C620 C619 1.524 . S
C620 C621 1.415 . S
C621 H591 0.950 . S
C621 C616 1.363 . S
C621 C620 1.415 . S
H622 C619 0.999 . S
H623 C604 0.913 . S
H624 C642 0.951 . S
H625 C644 0.951 . S
H626 C646 0.950 . S
H627 C647 0.950 . S
H628 C649 0.950 . S
H629 C652 0.950 . S
H630 C653 0.950 . S
H631 C655 0.950 . S
H632 C656 0.950 . S
H633 C657 0.951 . S
H634 C659 0.951 . S
H635 C661 0.950 . S
H636 C662 0.950 . S
H637 C664 0.950 . S
H638 C667 0.950 . S
H639 C668 0.950 . S
H640 C670 0.950 . S
H641 C671 0.950 . S
C642 H624 0.951 . S
C642 C643 1.366 . S
C642 C644 1.388 . S
C643 C642 1.366 . S
C643 C647 1.385 . S
C644 H625 0.951 . S
C644 C642 1.388 . S
C644 C645 1.366 . S
C645 C644 1.366 . S
C645 C646 1.414 . S
C645 C648 1.499 . S
C646 H626 0.950 . S
C646 C645 1.414 . S
C646 C647 1.374 . S
C647 H627 0.950 . S
C647 C643 1.385 . S
C647 C646 1.374 . S
C648 C645 1.499 . S
C648 C649 1.373 . S
C648 C650 1.389 . S
C649 H628 0.950 . S
C649 C648 1.373 . S
C649 C665 1.377 . S
C650 C648 1.389 . S
C650 C651 1.524 . S
C650 C664 1.377 . S
C651 C650 1.524 . S
C651 C652 1.397 . S
C651 C656 1.363 . S
C652 H629 0.950 . S
C652 C651 1.397 . S
C652 C653 1.334 . S
C653 H630 0.950 . S
C653 C652 1.334 . S
C653 C654 1.287 . S
C654 C653 1.287 . S
C654 C655 1.524 . S
C654 H673 0.913 . S
C655 H631 0.950 . S
C655 C654 1.524 . S
C655 C656 1.415 . S
C656 H632 0.950 . S
C656 C651 1.363 . S
C656 C655 1.415 . S
C657 H633 0.951 . S
C657 C658 1.366 . S
C657 C659 1.388 . S
C658 C657 1.366 . S
C658 C662 1.385 . S
C659 H634 0.951 . S
C659 C657 1.388 . S
C659 C660 1.366 . S
C660 C659 1.366 . S
C660 C661 1.414 . S
C660 C663 1.499 . S
C661 H635 0.950 . S
C661 C660 1.414 . S
C661 C662 1.374 . S
C662 H636 0.950 . S
C662 C658 1.385 . S
C662 C661 1.374 . S
C663 C660 1.499 . S
C663 C664 1.373 . S
C663 C665 1.389 . S
C664 H637 0.950 . S
C664 C650 1.377 . S
C664 C663 1.373 . S
C665 C649 1.377 . S
C665 C663 1.389 . S
C665 C666 1.524 . S
C666 C665 1.524 . S
C666 C667 1.397 . S
C666 C671 1.363 . S
C667 H638 0.950 . S
C667 C666 1.397 . S
C667 C668 1.334 . S
C668 H639 0.950 . S
C668 C667 1.334 . S
C668 C669 1.287 . S
C669 C668 1.287 . S
C669 C670 1.524 . S
C669 H672 0.999 . S
C670 H640 0.950 . S
C670 C669 1.524 . S
C670 C671 1.415 . S
C671 H641 0.950 . S
C671 C666 1.363 . S
C671 C670 1.415 . S
H672 C669 0.999 . S
H673 C654 0.913 . S
H674 C692 0.951 . S
H675 C694 0.951 . S
H676 C696 0.950 . S
H677 C697 0.950 . S
H678 C699 0.950 . S
H679 C702 0.950 . S
H680 C703 0.950 . S
H681 C705 0.950 . S
H682 C706 0.950 . S
H683 C707 0.951 . S
H684 C709 0.951 . S
H685 C711 0.950 . S
H686 C712 0.950 . S
H687 C714 0.950 . S
H688 C717 0.950 . S
H689 C718 0.950 . S
H690 C720 0.950 . S
H691 C721 0.950 . S
C692 H674 0.951 . S
C692 C693 1.366 . S
C692 C694 1.388 . S
C693 C692 1.366 . S
C693 C697 1.385 . S
C694 H675 0.951 . S
C694 C692 1.388 . S
C694 C695 1.366 . S
C695 C694 1.366 . S
C695 C696 1.414 . S
C695 C698 1.499 . S
C696 H676 0.950 . S
C696 C695 1.414 . S
C696 C697 1.374 . S
C697 H677 0.950 . S
C697 C693 1.385 . S
C697 C696 1.374 . S
C698 C695 1.499 . S
C698 C699 1.373 . S
C698 C700 1.389 . S
C699 H678 0.950 . S
C699 C698 1.373 . S
C699 C715 1.377 . S
C700 C698 1.389 . S
C700 C701 1.524 . S
C700 C714 1.377 . S
C701 C700 1.524 . S
C701 C702 1.397 . S
C701 C706 1.363 . S
C702 H679 0.950 . S
C702 C701 1.397 . S
C702 C703 1.334 . S
C703 H680 0.950 . S
C703 C702 1.334 . S
C703 C704 1.287 . S
C704 C703 1.287 . S
C704 C705 1.524 . S
C704 H723 0.913 . S
C705 H681 0.950 . S
C705 C704 1.524 . S
C705 C706 1.415 . S
C706 H682 0.950 . S
C706 C701 1.363 . S
C706 C705 1.415 . S
C707 H683 0.951 . S
C707 C708 1.366 . S
C707 C709 1.388 . S
C708 C707 1.366 . S
C708 C712 1.385 . S
C709 H684 0.951 . S
C709 C707 1.388 . S
C709 C710 1.366 . S
C710 C709 1.366 . S
C710 C711 1.414 . S
C710 C713 1.499 . S
C711 H685 0.950 . S
C711 C710 1.414 . S
C711 C712 1.374 . S
C712 H686 0.950 . S
C712 C708 1.385 . S
C712 C711 1.374 . S
C713 C710 1.499 . S
C713 C714 1.373 . S
C713 C715 1.389 . S
C714 H687 0.950 . S
C714 C700 1.377 . S
C714 C713 1.373 . S
C715 C699 1.377 . S
C715 C713 1.389 . S
C715 C716 1.524 . S
C716 C715 1.524 . S
C716 C717 1.397 . S
C716 C721 1.363 . S
C717 H688 0.950 . S
C717 C716 1.397 . S
C717 C718 1.334 . S
C718 H689 0.950 . S
C718 C717 1.334 . S
C718 C719 1.287 . S
C719 C718 1.287 . S
C719 C720 1.524 . S
C719 H722 0.999 . S
C720 H690 0.950 . S
C720 C719 1.524 . S
C720 C721 1.415 . S
C721 H691 0.950 . S
C721 C716 1.363 . S
C721 C720 1.415 . S
H722 C719 0.999 . S
H723 C704 0.913 . S
H724 C742 0.951 . S
H725 C744 0.951 . S
H726 C746 0.950 . S
H727 C747 0.950 . S
H728 C749 0.950 . S
H729 C752 0.950 . S
H730 C753 0.950 . S
H731 C755 0.950 . S
H732 C756 0.950 . S
H733 C757 0.951 . S
H734 C759 0.951 . S
H735 C761 0.950 . S
H736 C762 0.950 . S
H737 C764 0.950 . S
H738 C767 0.950 . S
H739 C768 0.950 . S
H740 C770 0.950 . S
H741 C771 0.950 . S
C742 H724 0.951 . S
C742 C743 1.366 . S
C742 C744 1.388 . S
C743 C742 1.366 . S
C743 C747 1.385 . S
C744 H725 0.951 . S
C744 C742 1.388 . S
C744 C745 1.366 . S
C745 C744 1.366 . S
C745 C746 1.414 . S
C745 C748 1.499 . S
C746 H726 0.950 . S
C746 C745 1.414 . S
C746 C747 1.374 . S
C747 H727 0.950 . S
C747 C743 1.385 . S
C747 C746 1.374 . S
C748 C745 1.499 . S
C748 C749 1.373 . S
C748 C750 1.389 . S
C749 H728 0.950 . S
C749 C748 1.373 . S
C749 C765 1.377 . S
C750 C748 1.389 . S
C750 C751 1.524 . S
C750 C764 1.377 . S
C751 C750 1.524 . S
C751 C752 1.397 . S
C751 C756 1.363 . S
C752 H729 0.950 . S
C752 C751 1.397 . S
C752 C753 1.334 . S
C753 H730 0.950 . S
C753 C752 1.334 . S
C753 C754 1.287 . S
C754 C753 1.287 . S
C754 C755 1.524 . S
C754 H773 0.913 . S
C755 H731 0.950 . S
C755 C754 1.524 . S
C755 C756 1.415 . S
C756 H732 0.950 . S
C756 C751 1.363 . S
C756 C755 1.415 . S
C757 H733 0.951 . S
C757 C758 1.366 . S
C757 C759 1.388 . S
C758 C757 1.366 . S
C758 C762 1.385 . S
C759 H734 0.951 . S
C759 C757 1.388 . S
C759 C760 1.366 . S
C760 C759 1.366 . S
C760 C761 1.414 . S
C760 C763 1.499 . S
C761 H735 0.950 . S
C761 C760 1.414 . S
C761 C762 1.374 . S
C762 H736 0.950 . S
C762 C758 1.385 . S
C762 C761 1.374 . S
C763 C760 1.499 . S
C763 C764 1.373 . S
C763 C765 1.389 . S
C764 H737 0.950 . S
C764 C750 1.377 . S
C764 C763 1.373 . S
C765 C749 1.377 . S
C765 C763 1.389 . S
C765 C766 1.524 . S
C766 C765 1.524 . S
C766 C767 1.397 . S
C766 C771 1.363 . S
C767 H738 0.950 . S
C767 C766 1.397 . S
C767 C768 1.334 . S
C768 H739 0.950 . S
C768 C767 1.334 . S
C768 C769 1.287 . S
C769 C768 1.287 . S
C769 C770 1.524 . S
C769 H772 0.999 . S
C770 H740 0.950 . S
C770 C769 1.524 . S
C770 C771 1.415 . S
C771 H741 0.950 . S
C771 C766 1.363 . S
C771 C770 1.415 . S
H772 C769 0.999 . S
H773 C754 0.913 . S
H774 C792 0.951 . S
H775 C794 0.951 . S
H776 C796 0.950 . S
H777 C797 0.950 . S
H778 C799 0.950 . S
H779 C802 0.950 1_455 S
H780 C803 0.950 . S
H781 C805 0.950 . S
H782 C806 0.950 . S
H783 C807 0.951 . S
H784 C809 0.951 . S
H785 C811 0.950 . S
H786 C812 0.950 1_655 S
H787 C814 0.950 . S
H788 C817 0.953 . S
H789 C818 0.978 . S
H790 C820 0.950 . S
H791 C821 0.950 . S
C792 H774 0.951 . S
C792 C793 1.366 1_655 S
C792 C794 1.388 . S
C793 C792 1.366 1_455 S
C793 C797 1.385 . S
C794 H775 0.951 . S
C794 C792 1.388 . S
C794 C795 1.366 1_655 S
C795 C794 1.366 1_455 S
C795 C796 1.414 . S
C795 C798 1.499 . S
C796 H776 0.950 . S
C796 C795 1.414 . S
C796 C797 1.374 . S
C797 H777 0.950 . S
C797 C793 1.385 . S
C797 C796 1.374 . S
C798 C795 1.499 . S
C798 C799 1.373 . S
C798 C800 1.389 1_455 S
C799 H778 0.950 . S
C799 C798 1.373 . S
C799 C815 1.377 . S
C800 C798 1.389 1_655 S
C800 C801 1.524 . S
C800 C814 1.377 . S
C801 C800 1.524 . S
C801 C802 1.397 . S
C801 C806 1.363 . S
C802 H779 0.950 1_655 S
C802 C801 1.397 . S
C802 C803 1.334 . S
C803 H780 0.950 . S
C803 C802 1.334 . S
C803 C804 1.287 . S
C804 C803 1.287 . S
C804 C805 1.524 . S
C804 H823 0.913 . S
C805 H781 0.950 . S
C805 C804 1.524 . S
C805 C806 1.415 . S
C806 H782 0.950 . S
C806 C801 1.363 . S
C806 C805 1.415 . S
C807 H783 0.951 . S
C807 C808 1.366 . S
C807 C809 1.388 . S
C808 C807 1.366 . S
C808 C812 1.385 . S
C809 H784 0.951 . S
C809 C807 1.388 . S
C809 C810 1.366 . S
C810 C809 1.366 . S
C810 C811 1.414 1_455 S
C810 C813 1.499 1_556 S
C811 H785 0.950 . S
C811 C810 1.414 1_655 S
C811 C812 1.374 1_655 S
C812 H786 0.950 1_455 S
C812 C808 1.385 . S
C812 C811 1.374 1_455 S
C813 C810 1.499 1_554 S
C813 C814 1.373 1_455 S
C813 C815 1.389 . S
C814 H787 0.950 . S
C814 C800 1.377 . S
C814 C813 1.373 1_655 S
C815 C799 1.377 . S
C815 C813 1.389 . S
C815 C816 1.524 . S
C816 C815 1.524 . S
C816 C817 1.397 . S
C816 C821 1.363 . S
C817 H788 0.953 . S
C817 C816 1.397 . S
C817 C818 1.321 1_554 S
C818 H789 0.978 . S
C818 C817 1.321 1_556 S
C818 C819 1.273 1_556 S
C819 C818 1.273 1_554 S
C819 C820 1.524 . S
C819 H822 0.999 . S
C820 H790 0.950 . S
C820 C819 1.524 . S
C820 C821 1.415 . S
C821 H791 0.950 . S
C821 C816 1.363 . S
C821 C820 1.415 . S
H822 C819 0.999 . S
H823 C804 0.913 . S
H824 C842 0.951 . S
H825 C844 0.951 . S
H826 C846 0.950 . S
H827 C847 0.950 . S
H828 C849 0.933 1_565 S
H829 C852 0.950 1_565 S
H830 C853 0.950 . S
H831 C855 0.950 . S
H832 C856 0.950 . S
H833 C857 0.951 . S
H834 C859 0.951 . S
H835 C861 0.950 . S
H836 C862 0.950 . S
H837 C864 0.950 . S
H838 C867 0.950 . S
H839 C868 0.950 . S
H840 C870 0.950 . S
H841 C871 0.950 . S
C842 H824 0.951 . S
C842 C843 1.366 . S
C842 C844 1.388 . S
C843 C842 1.366 . S
C843 C847 1.385 1_545 S
C844 H825 0.951 . S
C844 C842 1.388 . S
C844 C845 1.366 . S
C845 C844 1.366 . S
C845 C846 1.414 1_545 S
C845 C848 1.499 . S
C846 H826 0.950 . S
C846 C845 1.414 1_565 S
C846 C847 1.374 . S
C847 H827 0.950 . S
C847 C843 1.385 1_565 S
C847 C846 1.374 . S
C848 C845 1.499 . S
C848 C849 1.386 . S
C848 C850 1.389 . S
C849 H828 0.933 1_545 S
C849 C848 1.386 . S
C849 C865 1.380 . S
C850 C848 1.389 . S
C850 C851 1.524 . S
C850 C864 1.377 . S
C851 C850 1.524 . S
C851 C852 1.397 . S
C851 C856 1.363 . S
C852 H829 0.950 1_545 S
C852 C851 1.397 . S
C852 C853 1.334 . S
C853 H830 0.950 . S
C853 C852 1.334 . S
C853 C854 1.287 . S
C854 C853 1.287 . S
C854 C855 1.524 . S
C854 H873 0.913 . S
C855 H831 0.950 . S
C855 C854 1.524 . S
C855 C856 1.415 . S
C856 H832 0.950 . S
C856 C851 1.363 . S
C856 C855 1.415 . S
C857 H833 0.951 . S
C857 C858 1.366 1_565 S
C857 C859 1.388 . S
C858 C857 1.366 1_545 S
C858 C862 1.385 . S
C859 H834 0.951 . S
C859 C857 1.388 . S
C859 C860 1.366 1_565 S
C860 C859 1.366 1_545 S
C860 C861 1.414 . S
C860 C863 1.499 . S
C861 H835 0.950 . S
C861 C860 1.414 . S
C861 C862 1.374 . S
C862 H836 0.950 . S
C862 C858 1.385 . S
C862 C861 1.374 . S
C863 C860 1.499 . S
C863 C864 1.373 . S
C863 C865 1.389 . S
C864 H837 0.950 . S
C864 C850 1.377 . S
C864 C863 1.373 . S
C865 C849 1.380 . S
C865 C863 1.389 . S
C865 C866 1.524 1_545 S
C866 C865 1.524 1_565 S
C866 C867 1.397 1_565 S
C866 C871 1.363 . S
C867 H838 0.950 . S
C867 C866 1.397 1_545 S
C867 C868 1.334 . S
C868 H839 0.950 . S
C868 C867 1.334 . S
C868 C869 1.287 1_545 S
C869 C868 1.287 1_565 S
C869 C870 1.524 . S
C869 H872 0.999 . S
C870 H840 0.950 . S
C870 C869 1.524 . S
C870 C871 1.415 . S
C871 H841 0.950 . S
C871 C866 1.363 . S
C871 C870 1.415 . S
H872 C869 0.999 . S
H873 C854 0.913 . S
H874 C892 0.951 . S
H875 C894 0.951 . S
H876 C896 0.950 . S
H877 C897 0.950 . S
H878 C899 0.950 . S
H879 C902 0.950 . S
H880 C903 0.950 . S
H881 C905 0.950 . S
H882 C906 0.950 . S
H883 C907 0.951 . S
H884 C909 0.951 . S
H885 C911 0.950 . S
H886 C912 0.950 . S
H887 C914 0.950 . S
H888 C917 0.950 . S
H889 C918 0.950 . S
H890 C920 0.950 . S
H891 C921 0.950 . S
C892 H874 0.951 . S
C892 C893 1.366 . S
C892 C894 1.388 . S
C893 C892 1.366 . S
C893 C897 1.385 . S
C894 H875 0.951 . S
C894 C892 1.388 . S
C894 C895 1.366 . S
C895 C894 1.366 . S
C895 C896 1.414 . S
C895 C898 1.499 . S
C896 H876 0.950 . S
C896 C895 1.414 . S
C896 C897 1.374 . S
C897 H877 0.950 . S
C897 C893 1.385 . S
C897 C896 1.374 . S
C898 C895 1.499 . S
C898 C899 1.373 . S
C898 C900 1.389 . S
C899 H878 0.950 . S
C899 C898 1.373 . S
C899 C915 1.377 . S
C900 C898 1.389 . S
C900 C901 1.524 . S
C900 C914 1.377 . S
C901 C900 1.524 . S
C901 C902 1.397 . S
C901 C906 1.363 . S
C902 H879 0.950 . S
C902 C901 1.397 . S
C902 C903 1.334 . S
C903 H880 0.950 . S
C903 C902 1.334 . S
C903 C904 1.287 . S
C904 C903 1.287 . S
C904 C905 1.524 . S
C904 H923 0.913 . S
C905 H881 0.950 . S
C905 C904 1.524 . S
C905 C906 1.415 . S
C906 H882 0.950 . S
C906 C901 1.363 . S
C906 C905 1.415 . S
C907 H883 0.951 . S
C907 C908 1.366 . S
C907 C909 1.388 . S
C908 C907 1.366 . S
C908 C912 1.385 . S
C909 H884 0.951 . S
C909 C907 1.388 . S
C909 C910 1.366 . S
C910 C909 1.366 . S
C910 C911 1.414 . S
C910 C913 1.499 . S
C911 H885 0.950 . S
C911 C910 1.414 . S
C911 C912 1.374 . S
C912 H886 0.950 . S
C912 C908 1.385 . S
C912 C911 1.374 . S
C913 C910 1.499 . S
C913 C914 1.373 . S
C913 C915 1.389 . S
C914 H887 0.950 . S
C914 C900 1.377 . S
C914 C913 1.373 . S
C915 C899 1.377 . S
C915 C913 1.389 . S
C915 C916 1.524 . S
C916 C915 1.524 . S
C916 C917 1.397 . S
C916 C921 1.363 . S
C917 H888 0.950 . S
C917 C916 1.397 . S
C917 C918 1.334 . S
C918 H889 0.950 . S
C918 C917 1.334 . S
C918 C919 1.287 . S
C919 C918 1.287 . S
C919 C920 1.524 . S
C919 H922 0.999 . S
C920 H890 0.950 . S
C920 C919 1.524 . S
C920 C921 1.415 . S
C921 H891 0.950 . S
C921 C916 1.363 . S
C921 C920 1.415 . S
H922 C919 0.999 . S
H923 C904 0.913 . S
H924 C942 0.951 . S
H925 C944 0.951 . S
H926 C946 0.950 . S
H927 C947 0.950 . S
H928 C949 0.950 . S
H929 C952 0.950 . S
H930 C953 0.950 . S
H931 C955 0.950 . S
H932 C956 0.950 . S
H933 C957 0.951 . S
H934 C959 0.951 . S
H935 C961 0.950 . S
H936 C962 0.950 . S
H937 C964 0.950 . S
H938 C967 0.950 . S
H939 C968 0.950 . S
H940 C970 0.950 . S
H941 C971 0.950 . S
C942 H924 0.951 . S
C942 C943 1.366 1_565 S
C942 C944 1.388 . S
C943 C942 1.366 1_545 S
C943 C947 1.385 . S
C944 H925 0.951 . S
C944 C942 1.388 . S
C944 C945 1.366 1_565 S
C945 C944 1.366 1_545 S
C945 C946 1.414 . S
C945 C948 1.499 . S
C946 H926 0.950 . S
C946 C945 1.414 . S
C946 C947 1.374 . S
C947 H927 0.950 . S
C947 C943 1.385 . S
C947 C946 1.374 . S
C948 C945 1.499 . S
C948 C949 1.373 . S
C948 C950 1.389 1_545 S
C949 H928 0.950 . S
C949 C948 1.373 . S
C949 C965 1.377 . S
C950 C948 1.389 1_565 S
C950 C951 1.524 . S
C950 C964 1.377 . S
C951 C950 1.524 . S
C951 C952 1.397 . S
C951 C956 1.363 . S
C952 H929 0.950 . S
C952 C951 1.397 . S
C952 C953 1.334 . S
C953 H930 0.950 . S
C953 C952 1.334 . S
C953 C954 1.287 . S
C954 C953 1.287 . S
C954 C955 1.524 . S
C954 H973 0.913 . S
C955 H931 0.950 . S
C955 C954 1.524 . S
C955 C956 1.415 . S
C956 H932 0.950 . S
C956 C951 1.363 . S
C956 C955 1.415 . S
C957 H933 0.951 . S
C957 C958 1.366 . S
C957 C959 1.388 . S
C958 C957 1.366 . S
C958 C962 1.385 1_545 S
C959 H934 0.951 . S
C959 C957 1.388 . S
C959 C960 1.366 . S
C960 C959 1.366 . S
C960 C961 1.414 1_545 S
C960 C963 1.499 . S
C961 H935 0.950 . S
C961 C960 1.414 1_565 S
C961 C962 1.374 . S
C962 H936 0.950 . S
C962 C958 1.385 1_565 S
C962 C961 1.374 . S
C963 C960 1.499 . S
C963 C964 1.373 1_545 S
C963 C965 1.389 . S
C964 H937 0.950 . S
C964 C950 1.377 . S
C964 C963 1.373 1_565 S
C965 C949 1.377 . S
C965 C963 1.389 . S
C965 C966 1.524 . S
C966 C965 1.524 . S
C966 C967 1.397 . S
C966 C971 1.363 . S
C967 H938 0.950 . S
C967 C966 1.397 . S
C967 C968 1.334 . S
C968 H939 0.950 . S
C968 C967 1.334 . S
C968 C969 1.287 . S
C969 C968 1.287 . S
C969 C970 1.524 . S
C969 H972 0.999 . S
C970 H940 0.950 . S
C970 C969 1.524 . S
C970 C971 1.415 . S
C971 H941 0.950 . S
C971 C966 1.363 . S
C971 C970 1.415 . S
H972 C969 0.999 . S
H973 C954 0.913 . S
H974 C992 0.951 . S
H975 C994 0.951 . S
H976 C996 0.950 . S
H977 C997 0.950 . S
H978 C999 0.950 . S
H979 C1002 0.950 . S
H980 C1003 0.950 . S
H981 C1005 0.950 . S
H982 C1006 0.950 . S
H983 C1007 0.951 . S
H984 C1009 0.951 . S
H985 C1011 0.950 . S
H986 C1012 0.950 . S
H987 C1014 0.950 . S
H988 C1017 0.950 . S
H989 C1018 0.950 . S
H990 C1020 0.950 . S
H991 C1021 0.950 . S
C992 H974 0.951 . S
C992 C993 1.366 . S
C992 C994 1.388 . S
C993 C992 1.366 . S
C993 C997 1.385 . S
C994 H975 0.951 . S
C994 C992 1.388 . S
C994 C995 1.366 . S
C995 C994 1.366 . S
C995 C996 1.414 . S
C995 C998 1.499 . S
C996 H976 0.950 . S
C996 C995 1.414 . S
C996 C997 1.374 . S
C997 H977 0.950 . S
C997 C993 1.385 . S
C997 C996 1.374 . S
C998 C995 1.499 . S
C998 C999 1.373 . S
C998 C1000 1.389 . S
C999 H978 0.950 . S
C999 C998 1.373 . S
C999 C1015 1.377 . S
C1000 C998 1.389 . S
C1000 C1001 1.524 . S
C1000 C1014 1.377 . S
C1001 C1000 1.524 . S
C1001 C1002 1.397 . S
C1001 C1006 1.363 . S
C1002 H979 0.950 . S
C1002 C1001 1.397 . S
C1002 C1003 1.334 . S
C1003 H980 0.950 . S
C1003 C1002 1.334 . S
C1003 C1004 1.287 . S
C1004 C1003 1.287 . S
C1004 C1005 1.524 . S
C1004 H1023 0.913 . S
C1005 H981 0.950 . S
C1005 C1004 1.524 . S
C1005 C1006 1.415 . S
C1006 H982 0.950 . S
C1006 C1001 1.363 . S
C1006 C1005 1.415 . S
C1007 H983 0.951 . S
C1007 C1008 1.366 . S
C1007 C1009 1.388 . S
C1008 C1007 1.366 . S
C1008 C1012 1.385 . S
C1009 H984 0.951 . S
C1009 C1007 1.388 . S
C1009 C1010 1.366 . S
C1010 C1009 1.366 . S
C1010 C1011 1.414 . S
C1010 C1013 1.499 1_554 S
C1011 H985 0.950 . S
C1011 C1010 1.414 . S
C1011 C1012 1.374 . S
C1012 H986 0.950 . S
C1012 C1008 1.385 . S
C1012 C1011 1.374 . S
C1013 C1010 1.499 1_556 S
C1013 C1014 1.373 . S
C1013 C1015 1.389 . S
C1014 H987 0.950 . S
C1014 C1000 1.377 . S
C1014 C1013 1.373 . S
C1015 C999 1.377 . S
C1015 C1013 1.389 . S
C1015 C1016 1.529 . S
C1016 C1015 1.529 . S
C1016 C1017 1.390 1_556 S
C1016 C1021 1.365 . S
C1017 H988 0.950 . S
C1017 C1016 1.390 1_554 S
C1017 C1018 1.334 . S
C1018 H989 0.950 . S
C1018 C1017 1.334 . S
C1018 C1019 1.287 . S
C1019 C1018 1.287 . S
C1019 C1020 1.524 . S
C1019 H1022 0.999 . S
C1020 H990 0.950 . S
C1020 C1019 1.524 . S
C1020 C1021 1.415 1_554 S
C1021 H991 0.950 . S
C1021 C1016 1.365 . S
C1021 C1020 1.415 1_556 S
H1022 C1019 0.999 . S
H1023 C1004 0.913 . S
H1024 C1042 0.951 . S
H1025 C1044 0.951 . S
H1026 C1046 0.950 . S
H1027 C1047 0.950 . S
H1028 C1049 0.950 . S
H1029 C1052 0.950 . S
H1030 C1053 0.950 . S
H1031 C1055 0.950 . S
H1032 C1056 0.950 . S
H1033 C1057 0.951 . S
H1034 C1059 0.951 . S
H1035 C1061 0.950 . S
H1036 C1062 0.950 . S
H1037 C1064 0.950 . S
H1038 C1067 0.950 . S
H1039 C1068 0.950 . S
H1040 C1070 0.950 . S
H1041 C1071 0.950 . S
C1042 H1024 0.951 . S
C1042 C1043 1.366 . S
C1042 C1044 1.388 . S
C1043 C1042 1.366 . S
C1043 C1047 1.385 1_455 S
C1044 H1025 0.951 . S
C1044 C1042 1.388 . S
C1044 C1045 1.366 . S
C1045 C1044 1.366 . S
C1045 C1046 1.414 1_455 S
C1045 C1048 1.499 . S
C1046 H1026 0.950 . S
C1046 C1045 1.414 1_655 S
C1046 C1047 1.374 . S
C1047 H1027 0.950 . S
C1047 C1043 1.385 1_655 S
C1047 C1046 1.374 . S
C1048 C1045 1.499 . S
C1048 C1049 1.373 1_455 S
C1048 C1050 1.389 . S
C1049 H1028 0.950 . S
C1049 C1048 1.373 1_655 S
C1049 C1065 1.377 . S
C1050 C1048 1.389 . S
C1050 C1051 1.524 . S
C1050 C1064 1.377 . S
C1051 C1050 1.524 . S
C1051 C1052 1.397 . S
C1051 C1056 1.363 . S
C1052 H1029 0.950 . S
C1052 C1051 1.397 . S
C1052 C1053 1.334 . S
C1053 H1030 0.950 . S
C1053 C1052 1.334 . S
C1053 C1054 1.287 . S
C1054 C1053 1.287 . S
C1054 C1055 1.524 . S
C1054 H1073 0.913 . S
C1055 H1031 0.950 . S
C1055 C1054 1.524 . S
C1055 C1056 1.415 . S
C1056 H1032 0.950 . S
C1056 C1051 1.363 . S
C1056 C1055 1.415 . S
C1057 H1033 0.951 . S
C1057 C1058 1.366 1_655 S
C1057 C1059 1.388 . S
C1058 C1057 1.366 1_455 S
C1058 C1062 1.385 . S
C1059 H1034 0.951 . S
C1059 C1057 1.388 . S
C1059 C1060 1.366 1_655 S
C1060 C1059 1.366 1_455 S
C1060 C1061 1.414 . S
C1060 C1063 1.499 . S
C1061 H1035 0.950 . S
C1061 C1060 1.414 . S
C1061 C1062 1.374 . S
C1062 H1036 0.950 . S
C1062 C1058 1.385 . S
C1062 C1061 1.374 . S
C1063 C1060 1.499 . S
C1063 C1064 1.373 . S
C1063 C1065 1.389 1_455 S
C1064 H1037 0.950 . S
C1064 C1050 1.377 . S
C1064 C1063 1.373 . S
C1065 C1049 1.377 . S
C1065 C1063 1.389 1_655 S
C1065 C1066 1.524 . S
C1066 C1065 1.524 . S
C1066 C1067 1.397 . S
C1066 C1071 1.363 . S
C1067 H1038 0.950 . S
C1067 C1066 1.397 . S
C1067 C1068 1.334 . S
C1068 H1039 0.950 . S
C1068 C1067 1.334 . S
C1068 C1069 1.287 . S
C1069 C1068 1.287 . S
C1069 C1070 1.524 . S
C1069 H1072 0.999 . S
C1070 H1040 0.950 . S
C1070 C1069 1.524 . S
C1070 C1071 1.415 . S
C1071 H1041 0.950 . S
C1071 C1066 1.363 . S
C1071 C1070 1.415 . S
H1072 C1069 0.999 . S
H1073 C1054 0.913 . S
C193 C12 2.791 . S
C208 C169 2.777 . S
C243 C52 2.792 . S
C258 C151 2.783 . S
C293 C111 2.816 . S
C308 C163 2.791 . S
C343 C31 2.935 . S
C358 C172 2.901 . S
C408 C154 2.896 . S
C393 C71 2.933 . S
C458 C160 2.879 . S
C443 C92 2.902 . S
C493 C48 0.427 . S
C508 C133 0.358 . S
C543 C109 0.499 . S
C558 C142 0.379 . S
C593 C29 0.478 . S
C608 C124 0.350 . S
C658 C136 0.284 . S
C643 C69 0.434 . S
C708 C145 0.251 . S
C693 C88 0.306 . S
C743 C8 0.317 . S
C758 C127 0.242 . S
C808 C143 1.072 . S
C793 C17 1.056 . S
C843 C57 1.054 . S
C858 C125 1.070 . S
C893 C97 1.058 . S
C908 C134 1.077 . S
C958 C161 1.788 . S
C943 C42 1.723 . S
C1008 C170 1.783 . S
C993 C82 1.731 . S
C1043 C2 1.736 . S
C1058 C152 1.788 . S
