# Generated by pormake.
# Topology pth, (4,4)-cn, num edge types: 1
# Building blocks:
#     Node 0, Type 0, BuildingBlock: QUQFOY_clean_sbu_3, # of connection points: 4
#     Node 1, Type 0, BuildingBlock: QUQFOY_clean_sbu_3, # of connection points: 4
#     Node 2, Type 0, BuildingBlock: QUQFOY_clean_sbu_3, # of connection points: 4
#     Node 3, Type 1, BuildingBlock: MUDLON_clean_linker_0, # of connection points: 4
#     Node 4, Type 1, BuildingBlock: MUDLON_clean_linker_0, # of connection points: 4
#     Node 5, Type 1, BuildingBlock: MUDLON_clean_linker_0, # of connection points: 4
#     Edge 6, Type (0, 1), BuildingBlock: MIFKUJ_clean_linker_0, # of connection points: 2
#     Edge 7, Type (0, 1), BuildingBlock: MIFKUJ_clean_linker_0, # of connection points: 2
#     Edge 8, Type (0, 1), BuildingBlock: MIFKUJ_clean_linker_0, # of connection points: 2
#     Edge 9, Type (0, 1), BuildingBlock: MIFKUJ_clean_linker_0, # of connection points: 2
#     Edge 10, Type (0, 1), BuildingBlock: MIFKUJ_clean_linker_0, # of connection points: 2
#     Edge 11, Type (0, 1), BuildingBlock: MIFKUJ_clean_linker_0, # of connection points: 2
#     Edge 12, Type (0, 1), BuildingBlock: MIFKUJ_clean_linker_0, # of connection points: 2
#     Edge 13, Type (0, 1), BuildingBlock: MIFKUJ_clean_linker_0, # of connection points: 2
#     Edge 14, Type (0, 1), BuildingBlock: MIFKUJ_clean_linker_0, # of connection points: 2
#     Edge 15, Type (0, 1), BuildingBlock: MIFKUJ_clean_linker_0, # of connection points: 2
#     Edge 16, Type (0, 1), BuildingBlock: MIFKUJ_clean_linker_0, # of connection points: 2
#     Edge 17, Type (0, 1), BuildingBlock: MIFKUJ_clean_linker_0, # of connection points: 2
# Relax obj value: 0.036
# Max RMSD: 0.098
# Mean RMSD: 0.090
data_MOF--net-pth--node1-QUQFOY_clean_sbu_3--node2-MUDLON_clean_linker_0--edge1-MIFKUJ_clean_linker_0
_symmetry_space_group_name_H-M    P1
_symmetry_Int_Tables_number       1
_symmetry_cell_setting            triclinic
loop_
_symmetry_equiv_pos_as_xyz
'x, y, z'
_cell_length_a     41.268849
_cell_length_b     41.027055
_cell_length_c     85.632016
_cell_angle_alpha  89.933473
_cell_angle_beta   90.685179
_cell_angle_gamma 120.59583
loop_
_atom_site_label
_atom_site_type_symbol
_atom_site_fract_x
_atom_site_fract_y
_atom_site_fract_z
_atom_type_partial_charge
C0 C 0.99513 0.08132 0.05553 0.0
O1 O 0.97199 0.07572 0.0445 0.0
Cd2 Cd 0.9642 0.03774 0.02208 0.0
O3 O 0.01395 0.06447 0.05556 0.0
Cd4 Cd 0.02013 0.01717 0.03962 0.0
C5 C 0.05749 0.08213 0.01107 0.0
O6 O 0.9542 0.97836 0.03134 0.0
O7 O 0.99401 0.96841 0.01934 0.0
O8 O 0.02128 0.98898 0.06449 0.0
C9 C 0.95999 0.95882 0.02153 0.0
O10 O 0.02397 0.07504 0.0087 0.0
C11 C 0.04758 0.983 0.06093 0.0
O12 O 0.06501 0.06598 0.02206 0.0
O13 O 0.06217 0.99411 0.04757 0.0
C14 C 0.09719 0.03031 0.38393 0.0
O15 O 0.11505 0.05158 0.37256 0.0
Cd16 Cd 0.08596 0.0653 0.35122 0.0
O17 O 0.06165 0.0159 0.38492 0.0
Cd18 Cd 0.00973 0.017 0.37024 0.0
C19 C 0.02331 0.97398 0.33931 0.0
O20 O 0.04534 0.08386 0.36284 0.0
O21 O 0.99012 0.05046 0.35239 0.0
O22 O 0.98314 0.01678 0.39563 0.0
C23 C 0.01944 0.08264 0.3543 0.0
O24 O 0.05268 0.00578 0.33657 0.0
C25 C 0.94956 0.99216 0.39181 0.0
O26 O 0.00331 0.96971 0.3512 0.0
O27 O 0.94423 0.97829 0.37813 0.0
C28 C 0.96861 0.06203 0.68411 0.0
O29 O 0.97453 0.08219 0.69624 0.0
Cd30 Cd 0.01216 0.08457 0.7181 0.0
O31 O 0.98437 0.04235 0.68259 0.0
Cd32 Cd 0.03019 0.03095 0.69736 0.0
C33 C 0.96899 0.98967 0.72703 0.0
O34 O 0.06956 0.09496 0.70736 0.0
O35 O 0.08107 0.05347 0.71717 0.0
O36 O 0.06446 0.037 0.6736 0.0
C37 C 0.0899 0.08786 0.71624 0.0
O38 O 0.97674 0.023 0.73065 0.0
C39 C 0.06224 0.00507 0.67463 0.0
O40 O 0.98314 0.98386 0.71496 0.0
O41 O 0.04372 0.98421 0.686 0.0
H42 H 0.93524 0.62799 0.20574 0.0
N43 N 0.995 0.62261 0.199 0.0
H44 H 0.92878 0.66302 0.22748 0.0
H45 H 0.04203 0.65074 0.22487 0.0
H46 H 0.03558 0.68522 0.24644 0.0
H47 H 0.05813 0.69361 0.20087 0.0
H48 H 0.0798 0.74262 0.18101 0.0
H49 H 0.96917 0.61552 0.16985 0.0
H50 H 0.99138 0.66471 0.1497 0.0
H51 H 0.95426 0.54764 0.19822 0.0
H52 H 0.06861 0.64051 0.20227 0.0
H53 H 0.97643 0.50271 0.19995 0.0
H54 H 0.09087 0.59622 0.20507 0.0
H55 H 0.02765 0.37299 0.21564 0.0
H56 H 0.01848 0.33565 0.23881 0.0
H57 H 0.12392 0.42513 0.25804 0.0
H58 H 0.13384 0.46189 0.23414 0.0
H59 H 0.14157 0.42997 0.19598 0.0
H60 H 0.13317 0.38769 0.17417 0.0
H61 H 0.01746 0.3597 0.16895 0.0
H62 H 0.02649 0.40273 0.19034 0.0
H63 H 0.02242 0.43156 0.21926 0.0
H64 H 0.00067 0.47621 0.21708 0.0
H65 H 0.10134 0.55299 0.19188 0.0
N66 N 0.08992 0.44164 0.2087 0.0
H67 H 0.12416 0.5089 0.1951 0.0
C68 C 0.98904 0.63672 0.2135 0.0
C69 C 0.95672 0.63955 0.21483 0.0
C70 C 0.95307 0.65951 0.22725 0.0
C71 C 0.98192 0.6772 0.23853 0.0
C72 C 0.01315 0.67228 0.23778 0.0
C73 C 0.01671 0.65223 0.22541 0.0
C74 C 0.01145 0.65083 0.18693 0.0
C75 C 0.04344 0.68673 0.18975 0.0
C76 C 0.05588 0.71484 0.17838 0.0
C77 C 0.03707 0.70748 0.1639 0.0
C78 C 0.00647 0.67103 0.16076 0.0
C79 C 0.99371 0.64302 0.17223 0.0
C80 C 0.00951 0.59731 0.20025 0.0
C81 C 0.98411 0.55826 0.19966 0.0
C82 C 0.99689 0.53267 0.20079 0.0
C83 C 0.03553 0.54568 0.20277 0.0
C84 C 0.061 0.585 0.20332 0.0
C85 C 0.04822 0.61053 0.2019 0.0
C86 C 0.08193 0.42023 0.223 0.0
C87 C 0.04895 0.38475 0.22475 0.0
C88 C 0.04345 0.36349 0.2382 0.0
C89 C 0.07047 0.37727 0.25036 0.0
C90 C 0.1028 0.41336 0.24882 0.0
C91 C 0.10843 0.43453 0.23525 0.0
C92 C 0.08486 0.41959 0.1948 0.0
C93 C 0.11464 0.41514 0.18992 0.0
C94 C 0.10965 0.39072 0.17757 0.0
C95 C 0.07453 0.37003 0.16989 0.0
C96 C 0.04499 0.37549 0.17447 0.0
C97 C 0.05009 0.40006 0.18677 0.0
C98 C 0.07556 0.46718 0.20759 0.0
C99 C 0.04022 0.45813 0.21346 0.0
C100 C 0.02745 0.48366 0.21201 0.0
C101 C 0.04918 0.51844 0.20432 0.0
C102 C 0.08413 0.52698 0.19819 0.0
C103 C 0.09717 0.50172 0.19991 0.0
H104 H 0.69065 0.08053 0.53832 0.0
N105 N 0.62832 0.01707 0.53002 0.0
H106 H 0.73245 0.09012 0.56064 0.0
H107 H 0.61297 0.96759 0.55438 0.0
H108 H 0.65443 0.97694 0.57649 0.0
H109 H 0.63618 0.95441 0.53019 0.0
H110 H 0.66668 0.93741 0.51023 0.0
H111 H 0.64901 0.04707 0.50178 0.0
H112 H 0.67895 0.02942 0.48149 0.0
H113 H 0.59386 0.05661 0.52973 0.0
H114 H 0.57246 0.94245 0.53237 0.0
H115 H 0.5264 0.03293 0.53126 0.0
H116 H 0.50539 0.91857 0.53492 0.0
H117 H 0.34745 0.98251 0.54236 0.0
H118 H 0.31361 0.9903 0.56351 0.0
H119 H 0.28784 0.88174 0.58215 0.0
H120 H 0.32021 0.87318 0.56012 0.0
H121 H 0.28642 0.87071 0.52164 0.0
H122 H 0.2564 0.88327 0.49951 0.0
H123 H 0.3541 0.99534 0.49534 0.0
H124 H 0.38327 0.98299 0.5177 0.0
H125 H 0.40875 0.98498 0.54893 0.0
H126 H 0.47542 0.0069 0.54814 0.0
H127 H 0.45141 0.90775 0.52121 0.0
N128 N 0.35107 0.91896 0.53579 0.0
H129 H 0.38413 0.88477 0.52292 0.0
C130 C 0.64875 0.02348 0.54457 0.0
C131 C 0.68223 0.05817 0.54683 0.0
C132 C 0.706 0.06358 0.55956 0.0
C133 C 0.69678 0.03411 0.57019 0.0
C134 C 0.6624 -4e-05 0.56835 0.0
C135 C 0.63851 0.9947 0.55571 0.0
C136 C 0.6408 0.00257 0.51757 0.0
C137 C 0.64496 0.9708 0.51958 0.0
C138 C 0.66244 0.96104 0.50817 0.0
C139 C 0.67539 0.98231 0.49442 0.0
C140 C 0.66906 0.01249 0.49197 0.0
C141 C 0.65207 0.02261 0.50352 0.0
C142 C 0.58829 0.00154 0.53105 0.0
C143 C 0.57454 0.02645 0.53082 0.0
C144 C 0.53598 0.0128 0.53185 0.0
C145 C 0.51023 0.97375 0.53336 0.0
C146 C 0.52418 0.94875 0.53358 0.0
C147 C 0.56275 0.96244 0.53229 0.0
C148 C 0.33589 0.92679 0.54948 0.0
C149 C 0.33468 0.96033 0.55097 0.0
C150 C 0.31556 0.96497 0.56328 0.0
C151 C 0.29767 0.93657 0.57459 0.0
C152 C 0.30059 0.9039 0.57351 0.0
C153 C 0.31938 0.89907 0.56103 0.0
C154 C 0.33701 0.92564 0.52133 0.0
C155 C 0.30155 0.89769 0.51574 0.0
C156 C 0.28454 0.90493 0.50308 0.0
C157 C 0.30278 0.94042 0.49571 0.0
C158 C 0.33906 0.96791 0.5009 0.0
C159 C 0.35598 0.9607 0.5136 0.0
C160 C 0.39103 0.93265 0.53615 0.0
C161 C 0.41749 0.96747 0.54308 0.0
C162 C 0.45597 0.98035 0.54243 0.0
C163 C 0.46908 0.95925 0.53456 0.0
C164 C 0.44252 0.92451 0.52763 0.0
C165 C 0.40402 0.91137 0.52851 0.0
H166 H 0.62031 0.73165 0.8848 0.0
N167 N 0.6149 0.67594 0.8672 0.0
H168 H 0.65927 0.75918 0.90829 0.0
H169 H 0.6561 0.64982 0.88219 0.0
H170 H 0.69355 0.67573 0.90594 0.0
H171 H 0.6593 0.65139 0.85462 0.0
H172 H 0.70424 0.68219 0.83349 0.0
H173 H 0.61992 0.72973 0.84857 0.0
H174 H 0.66351 0.7598 0.82702 0.0
H175 H 0.54757 0.66779 0.86324 0.0
H176 H 0.60365 0.60439 0.86988 0.0
H177 H 0.48664 0.60922 0.86355 0.0
H178 H 0.54303 0.54589 0.87149 0.0
H179 H 0.29442 0.41437 0.88013 0.0
H180 H 0.26549 0.37298 0.90242 0.0
H181 H 0.36998 0.37588 0.91231 0.0
H182 H 0.39806 0.41605 0.88946 0.0
H183 H 0.36461 0.37429 0.86395 0.0
H184 H 0.34032 0.33308 0.84119 0.0
H185 H 0.31566 0.41278 0.81879 0.0
H186 H 0.33759 0.45251 0.84225 0.0
H187 H 0.38245 0.50689 0.88035 0.0
H188 H 0.44482 0.56366 0.88052 0.0
H189 H 0.48957 0.5007 0.85805 0.0
N190 N 0.36241 0.43919 0.86888 0.0
H191 H 0.4277 0.4436 0.85908 0.0
C192 C 0.63508 0.68867 0.8818 0.0
C193 C 0.63595 0.71915 0.88952 0.0
C194 C 0.65804 0.73462 0.90298 0.0
C195 C 0.67961 0.71968 0.90902 0.0
C196 C 0.67771 0.68827 0.9015 0.0
C197 C 0.65588 0.67307 0.88795 0.0
C198 C 0.63679 0.68883 0.85326 0.0
C199 C 0.65986 0.67477 0.84854 0.0
C200 C 0.68535 0.69226 0.83638 0.0
C201 C 0.68792 0.72389 0.82875 0.0
C202 C 0.6629 0.7361 0.83289 0.0
C203 C 0.63775 0.71881 0.84508 0.0
C204 C 0.57995 0.64053 0.8668 0.0
C205 C 0.54658 0.64112 0.86491 0.0
C206 C 0.51181 0.6076 0.8653 0.0
C207 C 0.50965 0.57264 0.86788 0.0
C208 C 0.54341 0.57211 0.86942 0.0
C209 C 0.57827 0.60572 0.8687 0.0
C210 C 0.34827 0.41847 0.88321 0.0
C211 C 0.31115 0.40646 0.88727 0.0
C212 C 0.29481 0.38297 0.90009 0.0
C213 C 0.31543 0.37114 0.90927 0.0
C214 C 0.35315 0.3841 0.90542 0.0
C215 C 0.3694 0.40742 0.89246 0.0
C216 C 0.35192 0.41608 0.85495 0.0
C217 C 0.35378 0.38282 0.8542 0.0
C218 C 0.3403 0.35945 0.84101 0.0
C219 C 0.32552 0.36924 0.82813 0.0
C220 C 0.32579 0.40369 0.82862 0.0
C221 C 0.3386 0.42665 0.84194 0.0
C222 C 0.4002 0.4713 0.86947 0.0
C223 C 0.40591 0.50541 0.87562 0.0
C224 C 0.44154 0.53791 0.87552 0.0
C225 C 0.4723 0.53717 0.86897 0.0
C226 C 0.46674 0.50248 0.86326 0.0
C227 C 0.43115 0.46974 0.86368 0.0
H228 H 0.03988 0.09856 0.08172 0.0
H229 H 0.05303 0.14707 0.10141 0.0
H230 H 0.97845 0.17544 0.07723 0.0
H231 H 0.96523 0.12723 0.05748 0.0
H232 H 0.04623 0.23812 0.08472 0.0
H233 H 0.95116 0.12649 0.1105 0.0
H234 H 0.92233 0.06158 0.12079 0.0
H235 H 0.01805 0.09565 0.15111 0.0
H236 H 0.0477 0.16069 0.14083 0.0
H237 H 0.03364 0.35447 0.1426 0.0
H238 H 0.02034 0.30499 0.12344 0.0
H239 H 0.08839 0.27224 0.15018 0.0
H240 H 0.10038 0.32044 0.16975 0.0
H241 H 0.02473 0.21166 0.14137 0.0
H242 H 0.12009 0.32285 0.11599 0.0
H243 H 0.15017 0.38779 0.10564 0.0
H244 H 0.05602 0.3549 0.07453 0.0
H245 H 0.02512 0.28985 0.08485 0.0
C246 C 0.02606 0.11492 0.08064 0.0
C247 C 0.00151 0.109 0.06801 0.0
C248 C 0.03354 0.14257 0.09192 0.0
C249 C 0.01659 0.16472 0.09079 0.0
C250 C 0.99185 0.15866 0.07829 0.0
C251 C 0.98423 0.13096 0.06705 0.0
C252 C 0.0254 0.19497 0.10239 0.0
C253 C 0.04109 0.23232 0.09709 0.0
C254 C 0.01964 0.18743 0.11855 0.0
C255 C 0.00182 0.14837 0.12478 0.0
C256 C 0.96621 0.12007 0.11926 0.0
C257 C 0.94969 0.08327 0.12512 0.0
C258 C 0.96839 0.07447 0.13657 0.0
C259 C 0.00362 0.10249 0.14222 0.0
C260 C 0.02028 0.13934 0.1364 0.0
C261 C 0.04564 0.33664 0.14445 0.0
C262 C 0.06817 0.34152 0.15771 0.0
C263 C 0.03833 0.3086 0.1334 0.0
C264 C 0.05372 0.28517 0.13528 0.0
C265 C 0.07632 0.29007 0.14846 0.0
C266 C 0.08348 0.31794 0.15955 0.0
C267 C 0.04552 0.25493 0.12372 0.0
C268 C 0.02995 0.21755 0.12901 0.0
C269 C 0.0516 0.26247 0.10755 0.0
C270 C 0.07013 0.30156 0.10131 0.0
C271 C 0.10566 0.32954 0.10703 0.0
C272 C 0.12288 0.36635 0.10115 0.0
C273 C 0.10497 0.37549 0.08946 0.0
C274 C 0.06983 0.34779 0.0836 0.0
C275 C 0.05247 0.31094 0.08945 0.0
H276 H 0.11836 0.40401 0.08492 0.0
H277 H 0.95555 0.04596 0.14108 0.0
H278 H 0.87501 0.95815 0.38409 0.0
H279 H 0.82336 0.94822 0.40103 0.0
H280 H 0.90054 0.99338 0.44021 0.0
H281 H 0.95258 0.00423 0.42329 0.0
H282 H 0.82515 0.92314 0.44563 0.0
H283 H 0.88444 0.05125 0.42475 0.0
H284 H 0.90709 0.09726 0.40319 0.0
H285 H 0.79567 0.04284 0.38317 0.0
H286 H 0.77249 0.99612 0.40451 0.0
H287 H 0.73681 0.97688 0.50117 0.0
H288 H 0.77809 0.97024 0.48295 0.0
H289 H 0.70677 0.96444 0.44443 0.0
H290 H 0.66628 0.97289 0.46273 0.0
H291 H 0.77454 0.0086 0.43685 0.0
H292 H 0.71197 0.88478 0.45811 0.0
H293 H 0.68678 0.83574 0.47848 0.0
H294 H 0.79867 0.87587 0.49621 0.0
H295 H 0.82452 0.92552 0.47607 0.0
C296 C 0.8809 0.96547 0.39636 0.0
C297 C 0.91784 0.98214 0.40237 0.0
C298 C 0.8514 0.95982 0.40599 0.0
C299 C 0.8583 0.97019 0.42181 0.0
C300 C 0.89477 0.98514 0.42802 0.0
C301 C 0.92442 0.99144 0.41834 0.0
C302 C 0.82808 0.96805 0.43162 0.0
C303 C 0.81413 0.9419 0.44385 0.0
C304 C 0.81298 0.99169 0.42885 0.0
C305 C 0.82685 0.01995 0.41611 0.0
C306 C 0.86486 0.04889 0.41567 0.0
C307 C 0.87778 0.07513 0.40351 0.0
C308 C 0.85286 0.0729 0.39179 0.0
C309 C 0.81495 0.04449 0.39224 0.0
C310 C 0.80191 0.01813 0.40436 0.0
C311 C 0.72968 0.97362 0.48883 0.0
C312 C 0.69829 0.97512 0.48333 0.0
C313 C 0.75318 0.96963 0.47841 0.0
C314 C 0.74524 0.96606 0.46229 0.0
C315 C 0.71348 0.96702 0.45681 0.0
C316 C 0.69033 0.97177 0.46723 0.0
C317 C 0.77148 0.96382 0.45118 0.0
C318 C 0.78489 0.98928 0.43864 0.0
C319 C 0.78553 0.93899 0.45352 0.0
C320 C 0.77015 0.90907 0.46564 0.0
C321 C 0.73119 0.88332 0.46641 0.0
C322 C 0.7168 0.85538 0.47791 0.0
C323 C 0.7411 0.85273 0.48865 0.0
C324 C 0.77987 0.87797 0.48789 0.0
C325 C 0.79442 0.90599 0.47642 0.0
H326 H 0.7299 0.83109 0.49754 0.0
H327 H 0.86291 0.09325 0.38238 0.0
H328 H 0.93374 0.99262 0.75326 0.0
H329 H 0.89015 0.94038 0.76956 0.0
H330 H 0.90096 0.8615 0.73998 0.0
H331 H 0.9446 0.91395 0.7233 0.0
H332 H 0.82769 0.83599 0.74727 0.0
H333 H 0.943 0.88273 0.77539 0.0
H334 H 0.003 0.93097 0.78751 0.0
H335 H 0.94323 0.96288 0.81881 0.0
H336 H 0.88288 0.91522 0.80673 0.0
H337 H 0.71468 0.69765 0.80553 0.0
H338 H 0.7663 0.73556 0.78753 0.0
H339 H 0.78107 0.83792 0.80848 0.0
H340 H 0.73084 0.80059 0.82669 0.0
H341 H 0.84734 0.84212 0.80471 0.0
H342 H 0.73387 0.80295 0.77337 0.0
H343 H 0.67384 0.75574 0.7609 0.0
H344 H 0.7308 0.70958 0.73567 0.0
H345 H 0.79112 0.75627 0.74815 0.0
C346 C 0.92708 0.96425 0.75018 0.0
C347 C 0.94286 0.95755 0.73698 0.0
C348 C 0.90222 0.93437 0.75959 0.0
C349 C 0.89277 0.89711 0.75613 0.0
C350 C 0.90807 0.8901 0.74289 0.0
C351 C 0.93305 0.92011 0.73341 0.0
C352 C 0.86618 0.86579 0.76631 0.0
C353 C 0.83231 0.83679 0.7598 0.0
C354 C 0.87215 0.86698 0.78266 0.0
C355 C 0.90839 0.89546 0.79009 0.0
C356 C 0.94265 0.90017 0.7848 0.0
C357 C 0.97673 0.92741 0.79167 0.0
C358 C 0.97693 0.95 0.80391 0.0
C359 C 0.94303 0.94534 0.80933 0.0
C360 C 0.90887 0.91817 0.80249 0.0
C361 C 0.7291 0.72824 0.80632 0.0
C362 C 0.71838 0.74609 0.81744 0.0
C363 C 0.7584 0.74983 0.79598 0.0
C364 C 0.77736 0.78958 0.79661 0.0
C365 C 0.76684 0.80731 0.80778 0.0
C366 C 0.73776 0.78588 0.81807 0.0
C367 C 0.80823 0.81333 0.78575 0.0
C368 C 0.84303 0.84084 0.79215 0.0
C369 C 0.80309 0.8107 0.76933 0.0
C370 C 0.76687 0.78275 0.76183 0.0
C371 C 0.73352 0.78252 0.76526 0.0
C372 C 0.69947 0.75591 0.75817 0.0
C373 C 0.69849 0.72959 0.74754 0.0
C374 C 0.73159 0.72992 0.74393 0.0
C375 C 0.76571 0.75645 0.751 0.0
H376 H 0.6721 0.70901 0.74206 0.0
H377 H 0.00335 0.97109 0.8092 0.0
H378 H 0.08205 0.94367 0.05303 0.0
H379 H 0.09125 0.90022 0.06965 0.0
H380 H 0.04659 0.92986 0.10886 0.0
H381 H 0.03643 0.97259 0.09226 0.0
H382 H 0.11469 0.9227 0.11488 0.0
H383 H 0.98807 0.85742 0.09163 0.0
H384 H 0.94395 0.83655 0.06916 0.0
H385 H 0.9964 0.77856 0.04976 0.0
H386 H 0.04122 0.79962 0.07203 0.0
H387 H 0.04639 0.77669 0.1698 0.0
H388 H 0.059 0.82664 0.15118 0.0
H389 H 0.06428 0.75867 0.11395 0.0
H390 H 0.05003 0.70777 0.1326 0.0
H391 H 0.0249 0.78641 0.10445 0.0
H392 H 0.14503 0.8417 0.12887 0.0
H393 H 0.19159 0.86272 0.15044 0.0
H394 H 0.15725 0.93965 0.16635 0.0
H395 H 0.11009 0.91872 0.14501 0.0
C396 C 0.07486 0.94144 0.06526 0.0
C397 C 0.05834 0.96131 0.07136 0.0
C398 C 0.08008 0.91662 0.0747 0.0
C399 C 0.06947 0.91188 0.09042 0.0
C400 C 0.05502 0.93331 0.09675 0.0
C401 C 0.04911 0.95754 0.08725 0.0
C402 C 0.07012 0.88216 0.09994 0.0
C403 C 0.09508 0.89286 0.1127 0.0
C404 C 0.04537 0.84335 0.09667 0.0
C405 C 0.01827 0.8305 0.08337 0.0
C406 C 0.99042 0.84054 0.08249 0.0
C407 C 0.96524 0.82861 0.06981 0.0
C408 C 0.96746 0.80636 0.05801 0.0
C409 C 0.99478 0.79588 0.05889 0.0
C410 C 0.02006 0.80779 0.07154 0.0
C411 C 0.05081 0.77266 0.15768 0.0
C412 C 0.04749 0.73854 0.15263 0.0
C413 C 0.05823 0.80132 0.14704 0.0
C414 C 0.06341 0.79687 0.13116 0.0
C415 C 0.06056 0.76288 0.12613 0.0
C416 C 0.05245 0.73386 0.13676 0.0
C417 C 0.06912 0.82667 0.11977 0.0
C418 C 0.04522 0.81609 0.1066 0.0
C419 C 0.09537 0.86558 0.12254 0.0
C420 C 0.12383 0.87844 0.13538 0.0
C421 C 0.14723 0.86292 0.13703 0.0
C422 C 0.17375 0.87485 0.14921 0.0
C423 C 0.17734 0.90246 0.15977 0.0
C424 C 0.15444 0.91826 0.15816 0.0
C425 C 0.12784 0.90641 0.14601 0.0
H426 H 0.19789 0.91164 0.16919 0.0
H427 H 0.94793 0.79714 0.04821 0.0
H428 H 0.17317 0.05934 0.38643 0.0
H429 H 0.2069 0.0426 0.40535 0.0
H430 H 0.10192 0.96377 0.42709 0.0
H431 H 0.0679 0.98086 0.40836 0.0
H432 H 0.15446 0.0026 0.44863 0.0
H433 H 0.14516 0.93265 0.40249 0.0
H434 H 0.15168 0.92351 0.37449 0.0
H435 H 0.27141 0.99762 0.37835 0.0
H436 H 0.26555 0.00761 0.40634 0.0
H437 H 0.25796 0.89485 0.47173 0.0
H438 H 0.22161 0.90846 0.45278 0.0
H439 H 0.26734 0.02031 0.47253 0.0
H440 H 0.30251 0.00645 0.49187 0.0
H441 H 0.24032 0.95963 0.43026 0.0
H442 H 0.20064 0.04516 0.47171 0.0
H443 H 0.18978 0.04873 0.49977 0.0
H444 H 0.15951 0.93261 0.5054 0.0
H445 H 0.16966 0.9282 0.47735 0.0
C446 C 0.15719 0.03852 0.39526 0.0
C447 C 0.11777 0.02129 0.39582 0.0
C448 C 0.17654 0.02886 0.40603 0.0
C449 C 0.15687 0.0015 0.41748 0.0
C450 C 0.11764 0.98487 0.41831 0.0
C451 C 0.09824 0.99464 0.40758 0.0
C452 C 0.17727 0.99016 0.42853 0.0
C453 C 0.17322 0.9932 0.44462 0.0
C454 C 0.20121 0.97721 0.42329 0.0
C455 C 0.20487 0.97112 0.40648 0.0
C456 C 0.17285 0.94721 0.39734 0.0
C457 C 0.17643 0.94184 0.38148 0.0
C458 C 0.21192 0.96004 0.37464 0.0
C459 C 0.24393 0.98357 0.38366 0.0
C460 C 0.2405 0.98906 0.39953 0.0
C461 C 0.26014 0.92228 0.47208 0.0
C462 C 0.28302 0.94948 0.48336 0.0
C463 C 0.23958 0.93011 0.46117 0.0
C464 C 0.24139 0.9652 0.46138 0.0
C465 C 0.26509 0.99283 0.47231 0.0
C466 C 0.28554 0.985 0.48324 0.0
C467 C 0.21805 0.97277 0.45035 0.0
C468 C 0.22156 0.96903 0.43427 0.0
C469 C 0.193 0.98431 0.4556 0.0
C470 C 0.18627 0.98649 0.47245 0.0
C471 C 0.19151 0.02035 0.47892 0.0
C472 C 0.1855 0.02253 0.49483 0.0
C473 C 0.17408 0.99095 0.50437 0.0
C474 C 0.16849 0.95709 0.49801 0.0
C475 C 0.17441 0.95475 0.48212 0.0
H476 H 0.16948 0.99271 0.51668 0.0
H477 H 0.21463 0.95586 0.36235 0.0
H478 H 0.14594 0.085 0.73239 0.0
H479 H 0.19387 0.13388 0.74957 0.0
H480 H 0.14753 0.20563 0.74028 0.0
H481 H 0.10079 0.15768 0.72265 0.0
H482 H 0.21963 0.247 0.7408 0.0
H483 H 0.12839 0.15054 0.7744 0.0
H484 H 0.08976 0.08593 0.78477 0.0
H485 H 0.18986 0.08384 0.79707 0.0
H486 H 0.2291 0.1483 0.78657 0.0
H487 H 0.26382 0.35592 0.81064 0.0
H488 H 0.23295 0.31009 0.78958 0.0
H489 H 0.3141 0.27415 0.79461 0.0
H490 H 0.34681 0.32157 0.81518 0.0
H491 H 0.23272 0.21465 0.79547 0.0
H492 H 0.32288 0.31779 0.76427 0.0
H493 H 0.35741 0.3839 0.7552 0.0
H494 H 0.25362 0.37463 0.73981 0.0
H495 H 0.21838 0.30861 0.74901 0.0
C496 C 0.14618 0.11131 0.73398 0.0
C497 C 0.11956 0.1175 0.72626 0.0
C498 C 0.17346 0.13915 0.74383 0.0
C499 C 0.17398 0.17324 0.74642 0.0
C500 C 0.14779 0.17963 0.73847 0.0
C501 C 0.12098 0.15213 0.72843 0.0
C502 C 0.20105 0.20205 0.75766 0.0
C503 C 0.2223 0.23988 0.75277 0.0
C504 C 0.20517 0.19276 0.77322 0.0
C505 C 0.18165 0.15403 0.77953 0.0
C506 C 0.14215 0.13618 0.7792 0.0
C507 C 0.12015 0.09961 0.78512 0.0
C508 C 0.13734 0.08074 0.79153 0.0
C509 C 0.17658 0.09846 0.79207 0.0
C510 C 0.19872 0.13501 0.78614 0.0
C511 C 0.27592 0.33914 0.80706 0.0
C512 C 0.308 0.34267 0.81467 0.0
C513 C 0.25796 0.3127 0.79508 0.0
C514 C 0.27135 0.2889 0.79059 0.0
C515 C 0.30339 0.29232 0.79799 0.0
C516 C 0.32184 0.31927 0.80981 0.0
C517 C 0.25052 0.25935 0.77863 0.0
C518 C 0.23043 0.22149 0.78341 0.0
C519 C 0.24683 0.26869 0.76309 0.0
C520 C 0.26796 0.30832 0.75744 0.0
C521 C 0.30738 0.32993 0.75907 0.0
C522 C 0.32709 0.36738 0.75388 0.0
C523 C 0.30772 0.38348 0.74696 0.0
C524 C 0.26859 0.36213 0.74518 0.0
C525 C 0.24874 0.32467 0.75036 0.0
H526 H 0.32303 0.41247 0.74295 0.0
H527 H 0.12026 0.05244 0.79611 0.0
H528 H 0.94218 0.11054 0.68045 0.0
H529 H 0.89727 0.10756 0.6609 0.0
H530 H 0.89006 0.00767 0.64075 0.0
H531 H 0.93604 0.01121 0.66001 0.0
H532 H 0.89177 0.05216 0.61847 0.0
H533 H 0.82096 0.00312 0.6653 0.0
H534 H 0.80626 0.00317 0.69313 0.0
H535 H 0.79871 0.10278 0.68617 0.0
H536 H 0.81386 0.10361 0.65833 0.0
H537 H 0.7187 0.98352 0.57737 0.0
H538 H 0.76602 0.99053 0.59667 0.0
H539 H 0.78459 0.1003 0.60976 0.0
H540 H 0.73707 0.09342 0.5904 0.0
H541 H 0.77734 0.05247 0.63542 0.0
H542 H 0.84642 0.09868 0.58779 0.0
H543 H 0.85884 0.09537 0.55992 0.0
H544 H 0.86686 0.99657 0.56853 0.0
H545 H 0.85392 -0.00104 0.59644 0.0
C546 C 0.93113 0.08797 0.67184 0.0
C547 C 0.94248 0.06094 0.67185 0.0
C548 C 0.9053 0.08621 0.66071 0.0
C549 C 0.88968 0.05695 0.64955 0.0
C550 C 0.90162 0.03043 0.64929 0.0
C551 C 0.92786 0.03245 0.66032 0.0
C552 C 0.86076 0.05392 0.6382 0.0
C553 C 0.86654 0.05175 0.62221 0.0
C554 C 0.82813 0.05412 0.64304 0.0
C555 C 0.81892 0.05364 0.65977 0.0
C556 C 0.81644 0.0252 0.66973 0.0
C557 C 0.80798 0.02504 0.6855 0.0
C558 C 0.80165 0.05302 0.69142 0.0
C559 C 0.80367 0.08116 0.68157 0.0
C560 C 0.81216 0.08147 0.66579 0.0
C561 C 0.73255 0.00896 0.58448 0.0
C562 C 0.72416 0.0379 0.58244 0.0
C563 C 0.75975 0.01304 0.5954 0.0
C564 C 0.77893 0.04604 0.60452 0.0
C565 C 0.77009 0.07467 0.60278 0.0
C566 C 0.74313 0.07079 0.59171 0.0
C567 C 0.80841 0.05058 0.61579 0.0
C568 C 0.80267 0.053 0.63174 0.0
C569 C 0.84082 0.05016 0.61094 0.0
C570 C 0.84884 0.0488 0.59418 0.0
C571 C 0.85051 0.07606 0.58372 0.0
C572 C 0.85771 0.07438 0.56792 0.0
C573 C 0.86354 0.04572 0.56245 0.0
C574 C 0.86229 0.01873 0.57278 0.0
C575 C 0.85506 0.02025 0.58859 0.0
H576 H 0.86911 0.04447 0.55021 0.0
H577 H 0.7951 0.05285 0.70363 0.0
H578 H 0.88535 0.93706 0.02158 0.0
H579 H 0.8356 0.89127 0.00411 0.0
H580 H 0.91538 0.86813 0.98214 0.0
H581 H 0.96528 0.91411 -0.0006 0.0
H582 H 0.87592 0.88236 0.96099 0.0
H583 H 0.84806 0.80376 0.00627 0.0
H584 H 0.83391 0.78701 0.03401 0.0
H585 H 0.73374 0.79373 0.02949 0.0
H586 H 0.74757 0.81105 0.00176 0.0
H587 H 0.75061 0.73133 0.91312 0.0
H588 H 0.79553 0.76628 0.93407 0.0
H589 H 0.71424 0.78742 0.95587 0.0
H590 H 0.66823 0.75069 0.93532 0.0
H591 H 0.75369 0.77341 0.97749 0.0
H592 H 0.78214 0.85386 0.93277 0.0
H593 H 0.79595 0.87129 0.90505 0.0
H594 H 0.89503 0.8624 0.90873 0.0
H595 H 0.88151 0.84439 0.93642 0.0
C596 C 0.8922 0.92195 0.01313 0.0
C597 C 0.92925 0.92931 0.01181 0.0
C598 C 0.86371 0.89567 0.0032 0.0
C599 C 0.87178 0.87616 0.99189 0.0
C600 C 0.90859 0.88292 0.99078 0.0
C601 C 0.93705 0.90918 0.00067 0.0
C602 C 0.84247 0.85039 0.98056 0.0
C603 C 0.84944 0.85818 0.9646 0.0
C604 C 0.80748 0.81956 0.9853 0.0
C605 C 0.79906 0.80907 0.00197 0.0
C606 C 0.82318 0.80198 0.01122 0.0
C607 C 0.81519 0.79232 0.02694 0.0
C608 C 0.783 0.7894 0.03352 0.0
C609 C 0.75869 0.79604 0.02438 0.0
C610 C 0.76658 0.80575 0.00866 0.0
C611 C 0.74184 0.74257 0.92254 0.0
C612 C 0.70581 0.73837 0.92246 0.0
C613 C 0.76776 0.76294 0.93443 0.0
C614 C 0.75847 0.78007 0.94635 0.0
C615 C 0.72206 0.77463 0.94671 0.0
C616 C 0.69595 0.75397 0.93487 0.0
C617 C 0.78738 0.80522 0.95795 0.0
C618 C 0.78027 0.79749 0.97391 0.0
C619 C 0.82226 0.83629 0.95324 0.0
C620 C 0.83062 0.84743 0.93662 0.0
C621 C 0.80673 0.85537 0.92763 0.0
C622 C 0.81453 0.86539 0.91194 0.0
C623 C 0.8463 0.86787 0.90512 0.0
C624 C 0.87041 0.86043 0.91401 0.0
C625 C 0.86271 0.85034 0.92971 0.0
H626 H 0.85228 0.87562 0.89297 0.0
H627 H 0.77685 0.78191 0.04569 0.0
H628 H 0.06491 0.97029 0.3156 0.0
H629 H 0.04969 0.91639 0.29883 0.0
H630 H 0.94362 0.85003 0.32212 0.0
H631 H 0.95915 0.90382 0.33934 0.0
H632 H 0.97593 0.80929 0.31819 0.0
H633 H 0.94736 0.88422 0.28498 0.0
H634 H 0.9573 0.942 0.27179 0.0
H635 H 0.05287 0.95159 0.2481 0.0
H636 H 0.04386 0.89417 0.26132 0.0
H637 H 0.9236 0.66757 0.25694 0.0
H638 H 0.92298 0.71453 0.27457 0.0
H639 H 0.03841 0.79436 0.26312 0.0
H640 H 0.03921 0.74795 0.24558 0.0
H641 H 0.98996 0.82375 0.26072 0.0
H642 H 0.02061 0.75152 0.29679 0.0
H643 H 0.00877 0.69306 0.30998 0.0
H644 H 0.90491 0.67714 0.32783 0.0
H645 H 0.91591 0.73528 0.31455 0.0
C646 C 0.0382 0.94436 0.31713 0.0
C647 C 0.01317 0.94146 0.32878 0.0
C648 C 0.02945 0.91355 0.30746 0.0
C649 C 0.9952 0.87933 0.30902 0.0
C650 C 0.97013 0.87622 0.32066 0.0
C651 C 0.97902 0.90702 0.33046 0.0
C652 C 0.98645 0.84668 0.29873 0.0
C653 C 0.97821 0.81222 0.30559 0.0
C654 C 0.9896 0.85049 0.2823 0.0
C655 C 0.99505 0.88498 0.27423 0.0
C656 C 0.97065 0.89878 0.27704 0.0
C657 C 0.9761 0.93146 0.26954 0.0
C658 C 0.00573 0.95049 0.25913 0.0
C659 C 0.02993 0.93683 0.25617 0.0
C660 C 0.02463 0.90418 0.26365 0.0
C661 C 0.94884 0.6951 0.25828 0.0
C662 C 0.98154 0.70404 0.24999 0.0
C663 C 0.94848 0.72177 0.26836 0.0
C664 C 0.98068 0.75783 0.27012 0.0
C665 C 0.0133 0.76667 0.2619 0.0
C666 C 0.01381 0.74001 0.25201 0.0
C667 C 0.98063 0.78702 0.28023 0.0
C668 C 0.98708 0.82075 0.2733 0.0
C669 C 0.9754 0.78235 0.29654 0.0
C670 C 0.96884 0.74746 0.30452 0.0
C671 C 0.99507 0.73535 0.3034 0.0
C672 C 0.98855 0.70232 0.31092 0.0
C673 C 0.95604 0.68133 0.3197 0.0
C674 C 0.93004 0.69339 0.32101 0.0
C675 C 0.9364 0.72638 0.31349 0.0
H676 H 0.95106 0.65577 0.32552 0.0
H677 H 0.00991 0.97579 0.25335 0.0
H678 H 0.11668 0.05041 0.65424 0.0
H679 H 0.15369 0.03394 0.6376 0.0
H680 H 0.09028 0.91814 0.65329 0.0
H681 H 0.05412 0.93502 0.67059 0.0
H682 H 0.16026 0.93831 0.65287 0.0
H683 H 0.07848 0.9462 0.61562 0.0
H684 H 0.04492 0.97344 0.60192 0.0
H685 H 0.15033 0.06837 0.58774 0.0
H686 H 0.18458 0.04196 0.60154 0.0
H687 H 0.23123 0.88055 0.58694 0.0
H688 H 0.18988 0.88795 0.60496 0.0
H689 H 0.26783 0.00822 0.60711 0.0
H690 H 0.31054 0.00108 0.58987 0.0
H691 H 0.18618 0.97957 0.59766 0.0
H692 H 0.26629 0.96924 0.63702 0.0
H693 H 0.29645 0.93742 0.64986 0.0
H694 H 0.18789 0.84002 0.65852 0.0
H695 H 0.1571 0.87108 0.64551 0.0
C696 C 0.11031 0.02133 0.65404 0.0
C697 C 0.08235 0.99395 0.66366 0.0
C698 C 0.13141 0.01188 0.64445 0.0
C699 C 0.1244 0.9746 0.64394 0.0
C700 C 0.09618 0.94706 0.65344 0.0
C701 C 0.07543 0.95668 0.66326 0.0
C702 C 0.14762 0.96502 0.63393 0.0
C703 C 0.16532 0.94677 0.64072 0.0
C704 C 0.15457 0.9762 0.61808 0.0
C705 C 0.13411 0.99221 0.60973 0.0
C706 C 0.09452 0.97302 0.60968 0.0
C707 C 0.07537 0.98829 0.60188 0.0
C708 C 0.09548 0.02265 0.59399 0.0
C709 C 0.13479 0.04177 0.59386 0.0
C710 C 0.15409 0.02663 0.60166 0.0
C711 C 0.24024 0.90848 0.59156 0.0
C712 C 0.27425 0.94027 0.58679 0.0
C713 C 0.21634 0.91263 0.60176 0.0
C714 C 0.2258 0.94863 0.60722 0.0
C715 C 0.26002 0.98024 0.60288 0.0
C716 C 0.28424 0.97608 0.59294 0.0
C717 C 0.19908 0.95374 0.61673 0.0
C718 C 0.1807 0.97096 0.60979 0.0
C719 C 0.19092 0.94092 0.63229 0.0
C720 C 0.20942 0.92229 0.64012 0.0
C721 C 0.24887 0.94088 0.6415 0.0
C722 C 0.26607 0.92302 0.64885 0.0
C723 C 0.24411 0.88667 0.65495 0.0
C724 C 0.20488 0.86814 0.65376 0.0
C725 C 0.18753 0.88587 0.64641 0.0
H726 H 0.25748 0.8729 0.66064 0.0
H727 H 0.0806 0.03443 0.58796 0.0
H728 H 0.05593 0.13631 0.99336 0.0
H729 H 0.10546 0.18352 0.97707 0.0
H730 H 0.17736 0.13938 0.98963 0.0
H731 H 0.12801 0.09265 0.00661 0.0
H732 H 0.21753 0.21313 0.98916 0.0
H733 H 0.13247 0.12065 0.95325 0.0
H734 H 0.0714 0.07598 0.94084 0.0
H735 H 0.05537 0.16827 0.92839 0.0
H736 H 0.11611 0.21348 0.94092 0.0
H737 H 0.32454 0.31169 0.91796 0.0
H738 H 0.28762 0.26215 0.93695 0.0
H739 H 0.22537 0.31718 0.94799 0.0
H740 H 0.26325 0.36787 0.92972 0.0
H741 H 0.18525 0.23261 0.93528 0.0
H742 H 0.27146 0.32337 0.97445 0.0
H743 H 0.33472 0.36493 0.98581 0.0
H744 H 0.35118 0.27002 0.99009 0.0
H745 H 0.28817 0.228 0.97852 0.0
C746 C 0.0822 0.13646 0.99264 0.0
C747 C 0.08791 0.11048 0.00115 0.0
C748 C 0.1105 0.16343 0.98325 0.0
C749 C 0.14486 0.16447 0.9818 0.0
C750 C 0.15098 0.13896 0.99048 0.0
C751 C 0.12276 0.11224 0.00014 0.0
C752 C 0.17415 0.19257 0.97129 0.0
C753 C 0.21059 0.21691 0.97729 0.0
C754 C 0.16533 0.19751 0.95574 0.0
C755 C 0.12878 0.17045 0.94812 0.0
C756 C 0.11582 0.13141 0.94795 0.0
C757 C 0.08127 0.10599 0.94088 0.0
C758 C 0.05949 0.11927 0.93385 0.0
C759 C 0.07227 0.15802 0.93384 0.0
C760 C 0.10678 0.18357 0.94091 0.0
C761 C 0.30382 0.31398 0.92475 0.0
C762 C 0.29663 0.34365 0.92215 0.0
C763 C 0.28264 0.28549 0.93553 0.0
C764 C 0.25383 0.28612 0.94375 0.0
C765 C 0.24751 0.31631 0.94167 0.0
C766 C 0.26899 0.34505 0.93112 0.0
C767 C 0.22774 0.25363 0.95339 0.0
C768 C 0.19207 0.22838 0.94711 0.0
C769 C 0.23756 0.2474 0.96848 0.0
C770 C 0.27536 0.27267 0.97542 0.0
C771 C 0.28875 0.31146 0.97764 0.0
C772 C 0.32451 0.33507 0.98416 0.0
C773 C 0.34702 0.32016 0.98861 0.0
C774 C 0.33376 0.28156 0.9866 0.0
C775 C 0.29802 0.25783 0.98007 0.0
H776 H 0.37469 0.33848 0.99367 0.0
H777 H 0.03275 0.09954 0.92839 0.0
H778 H 0.96512 0.09168 0.34017 0.0
H779 H 0.97351 0.14577 0.32495 0.0
H780 H 0.09338 0.20292 0.33364 0.0
H781 H 0.08491 0.14938 0.34941 0.0
H782 H 0.07115 0.2523 0.33477 0.0
H783 H 0.05311 0.15521 0.29882 0.0
H784 H 0.02145 0.09119 0.28718 0.0
H785 H 0.92349 0.09902 0.27702 0.0
H786 H 0.9544 0.16292 0.2888 0.0
H787 H 0.12473 0.37003 0.26615 0.0
H788 H 0.11549 0.3247 0.28664 0.0
H789 H 0.99615 0.28259 0.28558 0.0
H790 H 0.00516 0.3289 0.26559 0.0
H791 H 0.01781 0.2269 0.28093 0.0
H792 H 0.04084 0.32799 0.31615 0.0
H793 H 0.07656 0.39294 0.32678 0.0
H794 H 0.17069 0.37855 0.33685 0.0
H795 H 0.13572 0.31365 0.32606 0.0
C796 C 0.99323 0.11588 0.33891 0.0
C797 C 0.02441 0.1162 0.34584 0.0
C798 C -0.00198 0.14673 0.33017 0.0
C799 C 0.03418 0.17809 0.32787 0.0
C800 C 0.06524 0.17899 0.33521 0.0
C801 C 0.06038 0.14835 0.34417 0.0
C802 C 0.03966 0.20928 0.31737 0.0
C803 C 0.05982 0.24676 0.32295 0.0
C804 C 0.02458 0.20209 0.30197 0.0
C805 C 0.00593 0.16369 0.29484 0.0
C806 C 0.02471 0.14317 0.29421 0.0
C807 C 0.00692 0.10692 0.28757 0.0
C808 C 0.97044 0.09101 0.2814 0.0
C809 C 0.95172 0.11136 0.28183 0.0
C810 C 0.96937 0.1476 0.28847 0.0
C811 C 0.09663 0.35195 0.27056 0.0
C812 C 0.06564 0.35296 0.26408 0.0
C813 C 0.09142 0.32591 0.28222 0.0
C814 C 0.05515 0.30031 0.28754 0.0
C815 C 0.02434 0.30206 0.28154 0.0
C816 C 0.02956 0.32838 0.27004 0.0
C817 C 0.04899 0.26968 0.29839 0.0
C818 C 0.02889 0.23232 0.29281 0.0
C819 C 0.06473 0.2771 0.31362 0.0
C820 C 0.08578 0.31608 0.32015 0.0
C821 C 0.06928 0.33879 0.32049 0.0
C822 C 0.08937 0.37557 0.32658 0.0
C823 C 0.12591 0.3899 0.33245 0.0
C824 C 0.1424 0.36743 0.33228 0.0
C825 C 0.12244 0.33063 0.32619 0.0
H826 H 0.14141 0.41838 0.33716 0.0
H827 H 0.95672 0.06294 0.27627 0.0
loop_
_geom_bond_atom_site_label_1
_geom_bond_atom_site_label_2
_geom_bond_distance
_geom_bond_site_symmetry_2
_ccdc_geom_bond_type
C0 O1 1.306 1_455 S
C0 O3 1.160 . S
O1 C0 1.306 1_655 S
O1 Cd2 2.228 . S
Cd2 O1 2.228 . S
Cd2 O6 2.273 1_545 S
Cd2 O10 2.277 1_655 S
O3 C0 1.160 . S
O3 Cd4 2.203 . S
Cd4 O3 2.203 . S
Cd4 O6 2.411 1_445 S
Cd4 O7 2.333 1_545 S
Cd4 O8 2.352 1_545 S
Cd4 O12 2.277 . S
Cd4 O13 2.356 1_545 S
C5 O10 1.209 . S
C5 O12 1.226 . S
O6 Cd2 2.273 1_565 S
O6 Cd4 2.411 1_665 S
O6 C9 1.320 . S
O7 Cd4 2.333 1_565 S
O7 C9 1.214 1_455 S
O8 Cd4 2.352 1_565 S
O8 C11 1.258 . S
C9 O6 1.320 . S
C9 O7 1.214 1_655 S
O10 Cd2 2.277 1_455 S
O10 C5 1.209 . S
C11 O8 1.258 . S
C11 O13 1.282 . S
O12 Cd4 2.277 . S
O12 C5 1.226 . S
O13 Cd4 2.356 1_565 S
O13 C11 1.282 . S
C14 O15 1.306 . S
C14 O17 1.160 1_545 S
O15 C14 1.306 . S
O15 Cd16 2.228 . S
Cd16 O15 2.228 . S
Cd16 O20 2.273 . S
Cd16 O24 2.277 1_545 S
O17 C14 1.160 1_565 S
O17 Cd18 2.203 1_565 S
Cd18 O17 2.203 1_545 S
Cd18 O20 2.411 . S
Cd18 O21 2.333 1_455 S
Cd18 O22 2.352 1_455 S
Cd18 O26 2.277 1_445 S
Cd18 O27 2.356 1_445 S
C19 O24 1.209 . S
C19 O26 1.226 1_455 S
O20 Cd16 2.273 . S
O20 Cd18 2.411 . S
O20 C23 1.320 . S
O21 Cd18 2.333 1_655 S
O21 C23 1.214 1_655 S
O22 Cd18 2.352 1_655 S
O22 C25 1.258 . S
C23 O20 1.320 . S
C23 O21 1.214 1_455 S
O24 Cd16 2.277 1_565 S
O24 C19 1.209 . S
C25 O22 1.258 . S
C25 O27 1.282 1_545 S
O26 Cd18 2.277 1_665 S
O26 C19 1.226 1_655 S
O27 Cd18 2.356 1_665 S
O27 C25 1.282 1_565 S
C28 O29 1.306 . S
C28 O31 1.160 . S
O29 C28 1.306 . S
O29 Cd30 2.228 . S
Cd30 O29 2.228 . S
Cd30 O34 2.273 1_655 S
Cd30 O38 2.277 1_545 S
O31 C28 1.160 . S
O31 Cd32 2.203 1_655 S
Cd32 O31 2.203 1_455 S
Cd32 O34 2.411 . S
Cd32 O35 2.333 . S
Cd32 O36 2.352 . S
Cd32 O40 2.277 1_445 S
Cd32 O41 2.356 1_545 S
C33 O38 1.209 . S
C33 O40 1.226 . S
O34 Cd30 2.273 1_455 S
O34 Cd32 2.411 . S
O34 C37 1.320 . S
O35 Cd32 2.333 . S
O35 C37 1.214 . S
O36 Cd32 2.352 . S
O36 C39 1.258 . S
C37 O34 1.320 . S
C37 O35 1.214 . S
O38 Cd30 2.277 1_565 S
O38 C33 1.209 . S
C39 O36 1.258 . S
C39 O41 1.282 1_545 S
O40 Cd32 2.277 1_665 S
O40 C33 1.226 . S
O41 Cd32 2.356 1_565 S
O41 C39 1.282 1_565 S
H42 C69 0.929 1_655 S
N43 C68 1.433 . S
N43 C74 1.435 . S
N43 C80 1.423 . S
H44 C70 0.930 . S
H45 C73 0.931 . S
H46 C72 0.929 . S
H47 C75 0.930 . S
H48 C76 0.932 . S
H49 C79 0.929 1_655 S
H50 C78 0.931 1_655 S
H51 C81 0.929 . S
H52 C85 0.932 . S
H53 C82 0.931 . S
H54 C84 0.929 . S
H55 C87 0.929 1_655 S
H56 C88 0.930 . S
H57 C90 0.929 . S
H58 C91 0.931 . S
H59 C93 0.930 . S
H60 C94 0.932 . S
H61 C96 0.931 1_655 S
H62 C97 0.929 1_655 S
H63 C99 0.929 . S
H64 C100 0.931 . S
H65 C102 0.929 . S
N66 C86 1.433 . S
N66 C92 1.435 . S
N66 C98 1.423 . S
H67 C103 0.932 . S
C68 N43 1.433 . S
C68 C69 1.363 . S
C68 C73 1.370 . S
C69 H42 0.929 1_455 S
C69 C68 1.363 . S
C69 C70 1.385 . S
C70 H44 0.930 . S
C70 C69 1.385 . S
C70 C71 1.357 . S
C71 C70 1.357 . S
C71 C72 1.406 . S
C72 H46 0.929 . S
C72 C71 1.406 . S
C72 C73 1.391 . S
C73 H45 0.931 . S
C73 C68 1.370 . S
C73 C72 1.391 . S
C74 N43 1.435 . S
C74 C75 1.358 . S
C74 C79 1.371 . S
C75 H47 0.930 . S
C75 C74 1.358 . S
C75 C76 1.405 . S
C76 H48 0.932 . S
C76 C75 1.405 . S
C76 C77 1.383 . S
C77 C76 1.383 . S
C77 C78 1.393 . S
C78 H50 0.931 1_455 S
C78 C77 1.393 . S
C78 C79 1.382 . S
C79 H49 0.929 1_455 S
C79 C74 1.371 . S
C79 C78 1.382 . S
C80 N43 1.423 . S
C80 C81 1.362 1_455 S
C80 C85 1.388 . S
C81 H51 0.929 . S
C81 C80 1.362 1_655 S
C81 C82 1.376 . S
C82 H53 0.931 . S
C82 C81 1.376 . S
C82 C83 1.396 1_655 S
C83 C82 1.396 1_455 S
C83 C84 1.348 . S
C83 C101 1.472 . S
C84 H54 0.929 . S
C84 C83 1.348 . S
C84 C85 1.443 . S
C85 H52 0.932 . S
C85 C80 1.388 . S
C85 C84 1.443 . S
C86 N66 1.433 . S
C86 C87 1.363 . S
C86 C91 1.370 . S
C87 H55 0.929 1_455 S
C87 C86 1.363 . S
C87 C88 1.385 . S
C88 H56 0.930 . S
C88 C87 1.385 . S
C88 C89 1.357 . S
C89 C88 1.357 . S
C89 C90 1.406 . S
C90 H57 0.929 . S
C90 C89 1.406 . S
C90 C91 1.391 . S
C91 H58 0.931 . S
C91 C86 1.370 . S
C91 C90 1.391 . S
C92 N66 1.435 . S
C92 C93 1.358 . S
C92 C97 1.371 . S
C93 H59 0.930 . S
C93 C92 1.358 . S
C93 C94 1.405 . S
C94 H60 0.932 . S
C94 C93 1.405 . S
C94 C95 1.383 . S
C95 C94 1.383 . S
C95 C96 1.393 . S
C96 H61 0.931 1_455 S
C96 C95 1.393 . S
C96 C97 1.382 . S
C97 H62 0.929 1_455 S
C97 C92 1.371 . S
C97 C96 1.382 . S
C98 N66 1.423 . S
C98 C99 1.362 1_455 S
C98 C103 1.388 . S
C99 H63 0.929 . S
C99 C98 1.362 1_655 S
C99 C100 1.376 . S
C100 H64 0.931 . S
C100 C99 1.376 . S
C100 C101 1.396 1_655 S
C101 C83 1.472 . S
C101 C100 1.396 1_455 S
C101 C102 1.348 . S
C102 H65 0.929 . S
C102 C101 1.348 . S
C102 C103 1.443 . S
C103 H67 0.932 . S
C103 C98 1.388 . S
C103 C102 1.443 . S
H104 C131 0.929 . S
N105 C130 1.433 . S
N105 C136 1.435 . S
N105 C142 1.423 . S
H106 C132 0.930 . S
H107 C135 0.931 1_565 S
H108 C134 0.931 . S
H109 C137 0.930 . S
H110 C138 0.932 . S
H111 C141 0.929 . S
H112 C140 0.931 . S
H113 C143 0.929 . S
H114 C147 0.932 1_565 S
H115 C144 0.931 . S
H116 C146 0.929 . S
H117 C149 0.929 . S
H118 C150 0.930 . S
H119 C152 0.935 . S
H120 C153 0.931 1_565 S
H121 C155 0.930 . S
H122 C156 0.932 . S
H123 C158 0.931 . S
H124 C159 0.929 . S
H125 C161 0.929 . S
H126 C162 0.931 . S
H127 C164 0.929 . S
N128 C148 1.433 . S
N128 C154 1.435 . S
N128 C160 1.423 . S
H129 C165 0.932 1_565 S
C130 N105 1.433 . S
C130 C131 1.363 . S
C130 C135 1.370 . S
C131 H104 0.929 . S
C131 C130 1.363 . S
C131 C132 1.385 . S
C132 H106 0.930 . S
C132 C131 1.385 . S
C132 C133 1.357 . S
C133 C132 1.357 . S
C133 C134 1.407 1_545 S
C134 H108 0.931 . S
C134 C133 1.407 1_565 S
C134 C135 1.389 1_565 S
C135 H107 0.931 1_545 S
C135 C130 1.370 . S
C135 C134 1.389 1_545 S
C136 N105 1.435 . S
C136 C137 1.358 1_545 S
C136 C141 1.371 . S
C137 H109 0.930 . S
C137 C136 1.358 1_565 S
C137 C138 1.405 . S
C138 H110 0.932 . S
C138 C137 1.405 . S
C138 C139 1.383 1_565 S
C139 C138 1.383 1_545 S
C139 C140 1.393 . S
C140 H112 0.931 . S
C140 C139 1.393 . S
C140 C141 1.382 . S
C141 H111 0.929 . S
C141 C136 1.371 . S
C141 C140 1.382 . S
C142 N105 1.423 . S
C142 C143 1.362 . S
C142 C147 1.388 . S
C143 H113 0.929 . S
C143 C142 1.362 . S
C143 C144 1.376 . S
C144 H115 0.931 . S
C144 C143 1.376 . S
C144 C145 1.396 . S
C145 C144 1.396 . S
C145 C146 1.348 . S
C145 C163 1.472 . S
C146 H116 0.929 . S
C146 C145 1.348 . S
C146 C147 1.443 . S
C147 H114 0.932 1_545 S
C147 C142 1.388 . S
C147 C146 1.443 . S
C148 N128 1.433 . S
C148 C149 1.363 . S
C148 C153 1.370 . S
C149 H117 0.929 . S
C149 C148 1.363 . S
C149 C150 1.385 . S
C150 H118 0.930 . S
C150 C149 1.385 . S
C150 C151 1.357 . S
C151 C150 1.357 . S
C151 C152 1.400 1_545 S
C152 H119 0.935 . S
C152 C151 1.400 1_565 S
C152 C153 1.392 1_565 S
C153 H120 0.931 1_545 S
C153 C148 1.370 . S
C153 C152 1.392 1_545 S
C154 N128 1.435 . S
C154 C155 1.358 1_545 S
C154 C159 1.371 . S
C155 H121 0.930 . S
C155 C154 1.358 1_565 S
C155 C156 1.405 . S
C156 H122 0.932 . S
C156 C155 1.405 . S
C156 C157 1.383 1_565 S
C157 C156 1.383 1_545 S
C157 C158 1.393 . S
C158 H123 0.931 . S
C158 C157 1.393 . S
C158 C159 1.382 . S
C159 H124 0.929 . S
C159 C154 1.371 . S
C159 C158 1.382 . S
C160 N128 1.423 . S
C160 C161 1.362 . S
C160 C165 1.388 . S
C161 H125 0.929 . S
C161 C160 1.362 . S
C161 C162 1.376 . S
C162 H126 0.931 . S
C162 C161 1.376 . S
C162 C163 1.396 . S
C163 C145 1.472 . S
C163 C162 1.396 . S
C163 C164 1.348 . S
C164 H127 0.929 . S
C164 C163 1.348 . S
C164 C165 1.443 . S
C165 H129 0.932 1_545 S
C165 C160 1.388 . S
C165 C164 1.443 . S
H166 C193 0.929 . S
N167 C192 1.433 . S
N167 C198 1.435 . S
N167 C204 1.423 . S
H168 C194 0.930 . S
H169 C197 0.931 . S
H170 C196 0.929 . S
H171 C199 0.930 . S
H172 C200 0.932 . S
H173 C203 0.929 . S
H174 C202 0.931 . S
H175 C205 0.929 . S
H176 C209 0.932 . S
H177 C206 0.931 . S
H178 C208 0.929 . S
H179 C211 0.929 . S
H180 C212 0.930 . S
H181 C214 0.929 . S
H182 C215 0.931 . S
H183 C217 0.930 . S
H184 C218 0.932 . S
H185 C220 0.931 . S
H186 C221 0.929 . S
H187 C223 0.929 . S
H188 C224 0.931 . S
H189 C226 0.929 . S
N190 C210 1.433 . S
N190 C216 1.435 . S
N190 C222 1.423 . S
H191 C227 0.932 . S
C192 N167 1.433 . S
C192 C193 1.363 . S
C192 C197 1.370 . S
C193 H166 0.929 . S
C193 C192 1.363 . S
C193 C194 1.385 . S
C194 H168 0.930 . S
C194 C193 1.385 . S
C194 C195 1.357 . S
C195 C194 1.357 . S
C195 C196 1.406 . S
C196 H170 0.929 . S
C196 C195 1.406 . S
C196 C197 1.391 . S
C197 H169 0.931 . S
C197 C192 1.370 . S
C197 C196 1.391 . S
C198 N167 1.435 . S
C198 C199 1.358 . S
C198 C203 1.371 . S
C199 H171 0.930 . S
C199 C198 1.358 . S
C199 C200 1.405 . S
C200 H172 0.932 . S
C200 C199 1.405 . S
C200 C201 1.383 . S
C201 C200 1.383 . S
C201 C202 1.393 . S
C202 H174 0.931 . S
C202 C201 1.393 . S
C202 C203 1.382 . S
C203 H173 0.929 . S
C203 C198 1.371 . S
C203 C202 1.382 . S
C204 N167 1.423 . S
C204 C205 1.362 . S
C204 C209 1.388 . S
C205 H175 0.929 . S
C205 C204 1.362 . S
C205 C206 1.376 . S
C206 H177 0.931 . S
C206 C205 1.376 . S
C206 C207 1.396 . S
C207 C206 1.396 . S
C207 C208 1.348 . S
C207 C225 1.472 . S
C208 H178 0.929 . S
C208 C207 1.348 . S
C208 C209 1.443 . S
C209 H176 0.932 . S
C209 C204 1.388 . S
C209 C208 1.443 . S
C210 N190 1.433 . S
C210 C211 1.363 . S
C210 C215 1.370 . S
C211 H179 0.929 . S
C211 C210 1.363 . S
C211 C212 1.385 . S
C212 H180 0.930 . S
C212 C211 1.385 . S
C212 C213 1.357 . S
C213 C212 1.357 . S
C213 C214 1.406 . S
C214 H181 0.929 . S
C214 C213 1.406 . S
C214 C215 1.391 . S
C215 H182 0.931 . S
C215 C210 1.370 . S
C215 C214 1.391 . S
C216 N190 1.435 . S
C216 C217 1.358 . S
C216 C221 1.371 . S
C217 H183 0.930 . S
C217 C216 1.358 . S
C217 C218 1.405 . S
C218 H184 0.932 . S
C218 C217 1.405 . S
C218 C219 1.383 . S
C219 C218 1.383 . S
C219 C220 1.393 . S
C220 H185 0.931 . S
C220 C219 1.393 . S
C220 C221 1.382 . S
C221 H186 0.929 . S
C221 C216 1.371 . S
C221 C220 1.382 . S
C222 N190 1.423 . S
C222 C223 1.362 . S
C222 C227 1.388 . S
C223 H187 0.929 . S
C223 C222 1.362 . S
C223 C224 1.376 . S
C224 H188 0.931 . S
C224 C223 1.376 . S
C224 C225 1.396 . S
C225 C207 1.472 . S
C225 C224 1.396 . S
C225 C226 1.348 . S
C226 H189 0.929 . S
C226 C225 1.348 . S
C226 C227 1.443 . S
C227 H191 0.932 . S
C227 C222 1.388 . S
C227 C226 1.443 . S
H228 C246 0.951 . S
H229 C248 0.951 . S
H230 C250 0.950 . S
H231 C251 0.950 . S
H232 C253 0.950 . S
H233 C256 0.950 . S
H234 C257 0.950 . S
H235 C259 0.950 . S
H236 C260 0.950 1_455 S
H237 C261 0.951 . S
H238 C263 0.951 . S
H239 C265 0.950 . S
H240 C266 0.950 . S
H241 C268 0.950 . S
H242 C271 0.950 . S
H243 C272 0.950 . S
H244 C274 0.950 . S
H245 C275 0.950 . S
C246 H228 0.951 . S
C246 C247 1.366 . S
C246 C248 1.388 . S
C247 C246 1.366 . S
C247 C251 1.385 . S
C248 H229 0.951 . S
C248 C246 1.388 . S
C248 C249 1.366 . S
C249 C248 1.366 . S
C249 C250 1.414 . S
C249 C252 1.499 . S
C250 H230 0.950 . S
C250 C249 1.414 . S
C250 C251 1.374 . S
C251 H231 0.950 . S
C251 C247 1.385 . S
C251 C250 1.374 . S
C252 C249 1.499 . S
C252 C253 1.373 . S
C252 C254 1.389 . S
C253 H232 0.950 . S
C253 C252 1.373 . S
C253 C269 1.377 . S
C254 C252 1.389 . S
C254 C255 1.524 1_455 S
C254 C268 1.377 . S
C255 C254 1.524 1_655 S
C255 C256 1.397 . S
C255 C260 1.363 . S
C256 H233 0.950 . S
C256 C255 1.397 . S
C256 C257 1.334 . S
C257 H234 0.950 . S
C257 C256 1.334 . S
C257 C258 1.287 . S
C258 C257 1.287 . S
C258 C259 1.524 . S
C258 H277 0.913 . S
C259 H235 0.950 . S
C259 C258 1.524 . S
C259 C260 1.415 . S
C260 H236 0.950 1_655 S
C260 C255 1.363 . S
C260 C259 1.415 . S
C261 H237 0.951 . S
C261 C262 1.366 . S
C261 C263 1.388 . S
C262 C261 1.366 . S
C262 C266 1.385 . S
C263 H238 0.951 . S
C263 C261 1.388 . S
C263 C264 1.366 . S
C264 C263 1.366 . S
C264 C265 1.414 . S
C264 C267 1.499 . S
C265 H239 0.950 . S
C265 C264 1.414 . S
C265 C266 1.374 . S
C266 H240 0.950 . S
C266 C262 1.385 . S
C266 C265 1.374 . S
C267 C264 1.499 . S
C267 C268 1.373 . S
C267 C269 1.389 . S
C268 H241 0.950 . S
C268 C254 1.377 . S
C268 C267 1.373 . S
C269 C253 1.377 . S
C269 C267 1.389 . S
C269 C270 1.524 . S
C270 C269 1.524 . S
C270 C271 1.397 . S
C270 C275 1.363 . S
C271 H242 0.950 . S
C271 C270 1.397 . S
C271 C272 1.334 . S
C272 H243 0.950 . S
C272 C271 1.334 . S
C272 C273 1.287 . S
C273 C272 1.287 . S
C273 C274 1.524 . S
C273 H276 0.999 . S
C274 H244 0.950 . S
C274 C273 1.524 . S
C274 C275 1.415 . S
C275 H245 0.950 . S
C275 C270 1.363 . S
C275 C274 1.415 . S
H276 C273 0.999 . S
H277 C258 0.913 . S
H278 C296 0.951 . S
H279 C298 0.951 . S
H280 C300 0.950 . S
H281 C301 0.950 . S
H282 C303 0.950 . S
H283 C306 0.950 . S
H284 C307 0.950 . S
H285 C309 0.950 . S
H286 C310 0.950 . S
H287 C311 0.951 . S
H288 C313 0.951 . S
H289 C315 0.950 . S
H290 C316 0.950 . S
H291 C318 0.950 . S
H292 C321 0.950 . S
H293 C322 0.950 . S
H294 C324 0.950 . S
H295 C325 0.950 . S
C296 H278 0.951 . S
C296 C297 1.366 . S
C296 C298 1.388 . S
C297 C296 1.366 . S
C297 C301 1.385 . S
C298 H279 0.951 . S
C298 C296 1.388 . S
C298 C299 1.366 . S
C299 C298 1.366 . S
C299 C300 1.414 . S
C299 C302 1.499 . S
C300 H280 0.950 . S
C300 C299 1.414 . S
C300 C301 1.374 . S
C301 H281 0.950 . S
C301 C297 1.385 . S
C301 C300 1.374 . S
C302 C299 1.499 . S
C302 C303 1.373 1_545 S
C302 C304 1.389 . S
C303 H282 0.950 . S
C303 C302 1.373 1_565 S
C303 C319 1.377 . S
C304 C302 1.389 . S
C304 C305 1.524 . S
C304 C318 1.377 . S
C305 C304 1.524 . S
C305 C306 1.397 . S
C305 C310 1.363 . S
C306 H283 0.950 . S
C306 C305 1.397 . S
C306 C307 1.334 . S
C307 H284 0.950 . S
C307 C306 1.334 . S
C307 C308 1.287 . S
C308 C307 1.287 . S
C308 C309 1.524 . S
C308 H327 0.913 . S
C309 H285 0.950 . S
C309 C308 1.524 . S
C309 C310 1.415 . S
C310 H286 0.950 . S
C310 C305 1.363 . S
C310 C309 1.415 . S
C311 H287 0.951 . S
C311 C312 1.366 . S
C311 C313 1.388 . S
C312 C311 1.366 . S
C312 C316 1.385 . S
C313 H288 0.951 . S
C313 C311 1.388 . S
C313 C314 1.366 . S
C314 C313 1.366 . S
C314 C315 1.414 . S
C314 C317 1.499 . S
C315 H289 0.950 . S
C315 C314 1.414 . S
C315 C316 1.374 . S
C316 H290 0.950 . S
C316 C312 1.385 . S
C316 C315 1.374 . S
C317 C314 1.499 . S
C317 C318 1.373 . S
C317 C319 1.389 1_545 S
C318 H291 0.950 . S
C318 C304 1.377 . S
C318 C317 1.373 . S
C319 C303 1.377 . S
C319 C317 1.389 1_565 S
C319 C320 1.524 . S
C320 C319 1.524 . S
C320 C321 1.397 . S
C320 C325 1.363 . S
C321 H292 0.950 . S
C321 C320 1.397 . S
C321 C322 1.334 . S
C322 H293 0.950 . S
C322 C321 1.334 . S
C322 C323 1.287 . S
C323 C322 1.287 . S
C323 C324 1.524 . S
C323 H326 0.999 . S
C324 H294 0.950 . S
C324 C323 1.524 . S
C324 C325 1.415 . S
C325 H295 0.950 . S
C325 C320 1.363 . S
C325 C324 1.415 . S
H326 C323 0.999 . S
H327 C308 0.913 . S
H328 C346 0.951 . S
H329 C348 0.951 . S
H330 C350 0.950 . S
H331 C351 0.950 . S
H332 C353 0.950 . S
H333 C356 0.950 . S
H334 C357 0.950 1_545 S
H335 C359 0.950 . S
H336 C360 0.950 . S
H337 C361 0.951 . S
H338 C363 0.951 . S
H339 C365 0.950 . S
H340 C366 0.950 . S
H341 C368 0.950 . S
H342 C371 0.950 . S
H343 C372 0.950 . S
H344 C374 0.950 . S
H345 C375 0.950 . S
C346 H328 0.951 . S
C346 C347 1.366 . S
C346 C348 1.388 . S
C347 C346 1.366 . S
C347 C351 1.385 . S
C348 H329 0.951 . S
C348 C346 1.388 . S
C348 C349 1.366 . S
C349 C348 1.366 . S
C349 C350 1.414 . S
C349 C352 1.499 . S
C350 H330 0.950 . S
C350 C349 1.414 . S
C350 C351 1.374 . S
C351 H331 0.950 . S
C351 C347 1.385 . S
C351 C350 1.374 . S
C352 C349 1.499 . S
C352 C353 1.373 . S
C352 C354 1.389 . S
C353 H332 0.950 . S
C353 C352 1.373 . S
C353 C369 1.377 . S
C354 C352 1.389 . S
C354 C355 1.524 . S
C354 C368 1.377 . S
C355 C354 1.524 . S
C355 C356 1.397 . S
C355 C360 1.363 . S
C356 H333 0.950 . S
C356 C355 1.397 . S
C356 C357 1.334 . S
C357 H334 0.950 1_565 S
C357 C356 1.334 . S
C357 C358 1.287 . S
C358 C357 1.287 . S
C358 C359 1.524 . S
C358 H377 0.913 1_565 S
C359 H335 0.950 . S
C359 C358 1.524 . S
C359 C360 1.415 . S
C360 H336 0.950 . S
C360 C355 1.363 . S
C360 C359 1.415 . S
C361 H337 0.951 . S
C361 C362 1.366 . S
C361 C363 1.388 . S
C362 C361 1.366 . S
C362 C366 1.385 . S
C363 H338 0.951 . S
C363 C361 1.388 . S
C363 C364 1.366 . S
C364 C363 1.366 . S
C364 C365 1.414 . S
C364 C367 1.499 . S
C365 H339 0.950 . S
C365 C364 1.414 . S
C365 C366 1.374 . S
C366 H340 0.950 . S
C366 C362 1.385 . S
C366 C365 1.374 . S
C367 C364 1.499 . S
C367 C368 1.373 . S
C367 C369 1.389 . S
C368 H341 0.950 . S
C368 C354 1.377 . S
C368 C367 1.373 . S
C369 C353 1.377 . S
C369 C367 1.389 . S
C369 C370 1.524 . S
C370 C369 1.524 . S
C370 C371 1.397 . S
C370 C375 1.363 . S
C371 H342 0.950 . S
C371 C370 1.397 . S
C371 C372 1.334 . S
C372 H343 0.950 . S
C372 C371 1.334 . S
C372 C373 1.287 . S
C373 C372 1.287 . S
C373 C374 1.524 . S
C373 H376 0.999 . S
C374 H344 0.950 . S
C374 C373 1.524 . S
C374 C375 1.415 . S
C375 H345 0.950 . S
C375 C370 1.363 . S
C375 C374 1.415 . S
H376 C373 0.999 . S
H377 C358 0.913 1_545 S
H378 C396 0.951 . S
H379 C398 0.951 . S
H380 C400 0.950 . S
H381 C401 0.950 . S
H382 C403 0.950 . S
H383 C406 0.950 . S
H384 C407 0.950 . S
H385 C409 0.950 . S
H386 C410 0.950 . S
H387 C411 0.951 . S
H388 C413 0.951 . S
H389 C415 0.950 . S
H390 C416 0.950 . S
H391 C418 0.950 1_655 S
H392 C421 0.950 . S
H393 C422 0.950 . S
H394 C424 0.950 . S
H395 C425 0.950 . S
C396 H378 0.951 . S
C396 C397 1.366 . S
C396 C398 1.388 . S
C397 C396 1.366 . S
C397 C401 1.385 . S
C398 H379 0.951 . S
C398 C396 1.388 . S
C398 C399 1.366 . S
C399 C398 1.366 . S
C399 C400 1.414 . S
C399 C402 1.499 . S
C400 H380 0.950 . S
C400 C399 1.414 . S
C400 C401 1.374 . S
C401 H381 0.950 . S
C401 C397 1.385 . S
C401 C400 1.374 . S
C402 C399 1.499 . S
C402 C403 1.373 . S
C402 C404 1.389 . S
C403 H382 0.950 . S
C403 C402 1.373 . S
C403 C419 1.377 . S
C404 C402 1.389 . S
C404 C405 1.524 1_455 S
C404 C418 1.377 . S
C405 C404 1.524 1_655 S
C405 C406 1.397 . S
C405 C410 1.363 . S
C406 H383 0.950 . S
C406 C405 1.397 . S
C406 C407 1.334 . S
C407 H384 0.950 . S
C407 C406 1.334 . S
C407 C408 1.287 . S
C408 C407 1.287 . S
C408 C409 1.524 . S
C408 H427 0.913 . S
C409 H385 0.950 . S
C409 C408 1.524 . S
C409 C410 1.415 . S
C410 H386 0.950 . S
C410 C405 1.363 . S
C410 C409 1.415 . S
C411 H387 0.951 . S
C411 C412 1.366 . S
C411 C413 1.388 . S
C412 C411 1.366 . S
C412 C416 1.385 . S
C413 H388 0.951 . S
C413 C411 1.388 . S
C413 C414 1.366 . S
C414 C413 1.366 . S
C414 C415 1.414 . S
C414 C417 1.499 . S
C415 H389 0.950 . S
C415 C414 1.414 . S
C415 C416 1.374 . S
C416 H390 0.950 . S
C416 C412 1.385 . S
C416 C415 1.374 . S
C417 C414 1.499 . S
C417 C418 1.373 . S
C417 C419 1.389 . S
C418 H391 0.950 1_455 S
C418 C404 1.377 . S
C418 C417 1.373 . S
C419 C403 1.377 . S
C419 C417 1.389 . S
C419 C420 1.524 . S
C420 C419 1.524 . S
C420 C421 1.397 . S
C420 C425 1.363 . S
C421 H392 0.950 . S
C421 C420 1.397 . S
C421 C422 1.334 . S
C422 H393 0.950 . S
C422 C421 1.334 . S
C422 C423 1.287 . S
C423 C422 1.287 . S
C423 C424 1.524 . S
C423 H426 0.999 . S
C424 H394 0.950 . S
C424 C423 1.524 . S
C424 C425 1.415 . S
C425 H395 0.950 . S
C425 C420 1.363 . S
C425 C424 1.415 . S
H426 C423 0.999 . S
H427 C408 0.913 . S
H428 C446 0.951 . S
H429 C448 0.951 . S
H430 C450 0.950 . S
H431 C451 0.950 . S
H432 C453 0.950 1_565 S
H433 C456 0.950 1_565 S
H434 C457 0.950 1_565 S
H435 C459 0.950 . S
H436 C460 0.950 . S
H437 C461 0.951 . S
H438 C463 0.951 . S
H439 C465 0.950 . S
H440 C466 0.950 . S
H441 C468 0.950 . S
H442 C471 0.950 . S
H443 C472 0.950 . S
H444 C474 0.950 . S
H445 C475 0.950 . S
C446 H428 0.951 . S
C446 C447 1.366 . S
C446 C448 1.388 . S
C447 C446 1.366 . S
C447 C451 1.385 1_545 S
C448 H429 0.951 . S
C448 C446 1.388 . S
C448 C449 1.366 . S
C449 C448 1.366 . S
C449 C450 1.414 1_545 S
C449 C452 1.499 . S
C450 H430 0.950 . S
C450 C449 1.414 1_565 S
C450 C451 1.374 . S
C451 H431 0.950 . S
C451 C447 1.385 1_565 S
C451 C450 1.374 . S
C452 C449 1.499 . S
C452 C453 1.373 . S
C452 C454 1.389 . S
C453 H432 0.950 1_545 S
C453 C452 1.373 . S
C453 C469 1.377 . S
C454 C452 1.389 . S
C454 C455 1.524 . S
C454 C468 1.377 . S
C455 C454 1.524 . S
C455 C456 1.397 . S
C455 C460 1.363 . S
C456 H433 0.950 1_545 S
C456 C455 1.397 . S
C456 C457 1.334 . S
C457 H434 0.950 1_545 S
C457 C456 1.334 . S
C457 C458 1.287 . S
C458 C457 1.287 . S
C458 C459 1.524 . S
C458 H477 0.913 . S
C459 H435 0.950 . S
C459 C458 1.524 . S
C459 C460 1.415 . S
C460 H436 0.950 . S
C460 C455 1.363 . S
C460 C459 1.415 . S
C461 H437 0.951 . S
C461 C462 1.366 1_565 S
C461 C463 1.388 . S
C462 C461 1.366 1_545 S
C462 C466 1.385 . S
C463 H438 0.951 . S
C463 C461 1.388 . S
C463 C464 1.366 1_565 S
C464 C463 1.366 1_545 S
C464 C465 1.414 . S
C464 C467 1.499 . S
C465 H439 0.950 . S
C465 C464 1.414 . S
C465 C466 1.374 . S
C466 H440 0.950 . S
C466 C462 1.385 . S
C466 C465 1.374 . S
C467 C464 1.499 . S
C467 C468 1.373 . S
C467 C469 1.389 . S
C468 H441 0.950 . S
C468 C454 1.377 . S
C468 C467 1.373 . S
C469 C453 1.377 . S
C469 C467 1.389 . S
C469 C470 1.524 1_545 S
C470 C469 1.524 1_565 S
C470 C471 1.397 1_565 S
C470 C475 1.363 . S
C471 H442 0.950 . S
C471 C470 1.397 1_545 S
C471 C472 1.334 . S
C472 H443 0.950 . S
C472 C471 1.334 . S
C472 C473 1.287 1_545 S
C473 C472 1.287 1_565 S
C473 C474 1.524 . S
C473 H476 0.999 . S
C474 H444 0.950 . S
C474 C473 1.524 . S
C474 C475 1.415 . S
C475 H445 0.950 . S
C475 C470 1.363 . S
C475 C474 1.415 . S
H476 C473 0.999 . S
H477 C458 0.913 . S
H478 C496 0.951 . S
H479 C498 0.951 . S
H480 C500 0.950 . S
H481 C501 0.950 . S
H482 C503 0.950 . S
H483 C506 0.950 . S
H484 C507 0.950 . S
H485 C509 0.950 . S
H486 C510 0.950 . S
H487 C511 0.951 . S
H488 C513 0.951 . S
H489 C515 0.950 . S
H490 C516 0.950 . S
H491 C518 0.950 . S
H492 C521 0.950 . S
H493 C522 0.950 . S
H494 C524 0.950 . S
H495 C525 0.950 . S
C496 H478 0.951 . S
C496 C497 1.366 . S
C496 C498 1.388 . S
C497 C496 1.366 . S
C497 C501 1.385 . S
C498 H479 0.951 . S
C498 C496 1.388 . S
C498 C499 1.366 . S
C499 C498 1.366 . S
C499 C500 1.414 . S
C499 C502 1.499 . S
C500 H480 0.950 . S
C500 C499 1.414 . S
C500 C501 1.374 . S
C501 H481 0.950 . S
C501 C497 1.385 . S
C501 C500 1.374 . S
C502 C499 1.499 . S
C502 C503 1.373 . S
C502 C504 1.389 . S
C503 H482 0.950 . S
C503 C502 1.373 . S
C503 C519 1.377 . S
C504 C502 1.389 . S
C504 C505 1.524 . S
C504 C518 1.377 . S
C505 C504 1.524 . S
C505 C506 1.397 . S
C505 C510 1.363 . S
C506 H483 0.950 . S
C506 C505 1.397 . S
C506 C507 1.334 . S
C507 H484 0.950 . S
C507 C506 1.334 . S
C507 C508 1.287 . S
C508 C507 1.287 . S
C508 C509 1.524 . S
C508 H527 0.913 . S
C509 H485 0.950 . S
C509 C508 1.524 . S
C509 C510 1.415 . S
C510 H486 0.950 . S
C510 C505 1.363 . S
C510 C509 1.415 . S
C511 H487 0.951 . S
C511 C512 1.366 . S
C511 C513 1.388 . S
C512 C511 1.366 . S
C512 C516 1.385 . S
C513 H488 0.951 . S
C513 C511 1.388 . S
C513 C514 1.366 . S
C514 C513 1.366 . S
C514 C515 1.414 . S
C514 C517 1.499 . S
C515 H489 0.950 . S
C515 C514 1.414 . S
C515 C516 1.374 . S
C516 H490 0.950 . S
C516 C512 1.385 . S
C516 C515 1.374 . S
C517 C514 1.499 . S
C517 C518 1.373 . S
C517 C519 1.389 . S
C518 H491 0.950 . S
C518 C504 1.377 . S
C518 C517 1.373 . S
C519 C503 1.377 . S
C519 C517 1.389 . S
C519 C520 1.524 . S
C520 C519 1.524 . S
C520 C521 1.397 . S
C520 C525 1.363 . S
C521 H492 0.950 . S
C521 C520 1.397 . S
C521 C522 1.334 . S
C522 H493 0.950 . S
C522 C521 1.334 . S
C522 C523 1.287 . S
C523 C522 1.287 . S
C523 C524 1.524 . S
C523 H526 0.999 . S
C524 H494 0.950 . S
C524 C523 1.524 . S
C524 C525 1.415 . S
C525 H495 0.950 . S
C525 C520 1.363 . S
C525 C524 1.415 . S
H526 C523 0.999 . S
H527 C508 0.913 . S
H528 C546 0.951 . S
H529 C548 0.951 . S
H530 C550 0.950 . S
H531 C551 0.950 . S
H532 C553 0.950 . S
H533 C556 0.950 . S
H534 C557 0.950 . S
H535 C559 0.950 . S
H536 C560 0.950 . S
H537 C561 0.951 . S
H538 C563 0.951 . S
H539 C565 0.950 . S
H540 C566 0.950 . S
H541 C568 0.950 . S
H542 C571 0.950 . S
H543 C572 0.950 . S
H544 C574 0.950 . S
H545 C575 0.950 . S
C546 H528 0.951 . S
C546 C547 1.366 . S
C546 C548 1.388 . S
C547 C546 1.366 . S
C547 C551 1.385 1_545 S
C548 H529 0.951 . S
C548 C546 1.388 . S
C548 C549 1.366 . S
C549 C548 1.366 . S
C549 C550 1.414 1_545 S
C549 C552 1.499 . S
C550 H530 0.950 . S
C550 C549 1.414 1_565 S
C550 C551 1.374 . S
C551 H531 0.950 . S
C551 C547 1.385 1_565 S
C551 C550 1.374 . S
C552 C549 1.499 . S
C552 C553 1.373 . S
C552 C554 1.389 . S
C553 H532 0.950 . S
C553 C552 1.373 . S
C553 C569 1.377 . S
C554 C552 1.389 . S
C554 C555 1.524 . S
C554 C568 1.377 . S
C555 C554 1.524 . S
C555 C556 1.397 1_545 S
C555 C560 1.363 . S
C556 H533 0.950 . S
C556 C555 1.397 1_565 S
C556 C557 1.334 . S
C557 H534 0.950 . S
C557 C556 1.334 . S
C557 C558 1.287 1_565 S
C558 C557 1.287 1_545 S
C558 C559 1.524 . S
C558 H577 0.913 . S
C559 H535 0.950 . S
C559 C558 1.524 . S
C559 C560 1.415 . S
C560 H536 0.950 . S
C560 C555 1.363 . S
C560 C559 1.415 . S
C561 H537 0.951 . S
C561 C562 1.366 1_565 S
C561 C563 1.388 . S
C562 C561 1.366 1_545 S
C562 C566 1.385 . S
C563 H538 0.951 . S
C563 C561 1.388 . S
C563 C564 1.366 1_565 S
C564 C563 1.366 1_545 S
C564 C565 1.414 . S
C564 C567 1.499 . S
C565 H539 0.950 . S
C565 C564 1.414 . S
C565 C566 1.374 . S
C566 H540 0.950 . S
C566 C562 1.385 . S
C566 C565 1.374 . S
C567 C564 1.499 . S
C567 C568 1.373 . S
C567 C569 1.389 . S
C568 H541 0.950 . S
C568 C554 1.377 . S
C568 C567 1.373 . S
C569 C553 1.377 . S
C569 C567 1.389 . S
C569 C570 1.524 . S
C570 C569 1.524 . S
C570 C571 1.397 . S
C570 C575 1.363 1_545 S
C571 H542 0.950 . S
C571 C570 1.397 . S
C571 C572 1.334 . S
C572 H543 0.950 . S
C572 C571 1.334 . S
C572 C573 1.287 . S
C573 C572 1.287 . S
C573 C574 1.524 1_545 S
C573 H576 0.999 . S
C574 H544 0.950 . S
C574 C573 1.524 1_565 S
C574 C575 1.415 . S
C575 H545 0.950 . S
C575 C570 1.363 1_565 S
C575 C574 1.415 . S
H576 C573 0.999 . S
H577 C558 0.913 . S
H578 C596 0.951 . S
H579 C598 0.957 . S
H580 C600 0.950 . S
H581 C601 0.950 . S
H582 C603 0.950 . S
H583 C606 0.950 . S
H584 C607 0.950 . S
H585 C609 0.950 . S
H586 C610 0.950 . S
H587 C611 0.951 . S
H588 C613 0.951 . S
H589 C615 0.950 . S
H590 C616 0.950 . S
H591 C618 0.950 . S
H592 C621 0.950 . S
H593 C622 0.950 . S
H594 C624 0.950 . S
H595 C625 0.950 . S
C596 H578 0.951 . S
C596 C597 1.366 . S
C596 C598 1.403 . S
C597 C596 1.366 . S
C597 C601 1.385 1_554 S
C598 H579 0.957 . S
C598 C596 1.403 . S
C598 C599 1.344 1_554 S
C599 C598 1.344 1_556 S
C599 C600 1.414 . S
C599 C602 1.499 . S
C600 H580 0.950 . S
C600 C599 1.414 . S
C600 C601 1.374 . S
C601 H581 0.950 . S
C601 C597 1.385 1_556 S
C601 C600 1.374 . S
C602 C599 1.499 . S
C602 C603 1.373 . S
C602 C604 1.389 . S
C603 H582 0.950 . S
C603 C602 1.373 . S
C603 C619 1.377 . S
C604 C602 1.389 . S
C604 C605 1.524 1_556 S
C604 C618 1.377 . S
C605 C604 1.524 1_554 S
C605 C606 1.397 . S
C605 C610 1.363 . S
C606 H583 0.950 . S
C606 C605 1.397 . S
C606 C607 1.334 . S
C607 H584 0.950 . S
C607 C606 1.334 . S
C607 C608 1.287 . S
C608 C607 1.287 . S
C608 C609 1.524 . S
C608 H627 0.913 . S
C609 H585 0.950 . S
C609 C608 1.524 . S
C609 C610 1.415 . S
C610 H586 0.950 . S
C610 C605 1.363 . S
C610 C609 1.415 . S
C611 H587 0.951 . S
C611 C612 1.366 . S
C611 C613 1.388 . S
C612 C611 1.366 . S
C612 C616 1.385 . S
C613 H588 0.951 . S
C613 C611 1.388 . S
C613 C614 1.366 . S
C614 C613 1.366 . S
C614 C615 1.414 . S
C614 C617 1.499 . S
C615 H589 0.950 . S
C615 C614 1.414 . S
C615 C616 1.374 . S
C616 H590 0.950 . S
C616 C612 1.385 . S
C616 C615 1.374 . S
C617 C614 1.499 . S
C617 C618 1.373 . S
C617 C619 1.389 . S
C618 H591 0.950 . S
C618 C604 1.377 . S
C618 C617 1.373 . S
C619 C603 1.377 . S
C619 C617 1.389 . S
C619 C620 1.524 . S
C620 C619 1.524 . S
C620 C621 1.397 . S
C620 C625 1.363 . S
C621 H592 0.950 . S
C621 C620 1.397 . S
C621 C622 1.334 . S
C622 H593 0.950 . S
C622 C621 1.334 . S
C622 C623 1.287 . S
C623 C622 1.287 . S
C623 C624 1.524 . S
C623 H626 0.999 . S
C624 H594 0.950 . S
C624 C623 1.524 . S
C624 C625 1.415 . S
C625 H595 0.950 . S
C625 C620 1.363 . S
C625 C624 1.415 . S
H626 C623 0.999 . S
H627 C608 0.913 . S
H628 C646 0.951 . S
H629 C648 0.951 . S
H630 C650 0.950 . S
H631 C651 0.950 . S
H632 C653 0.950 1_655 S
H633 C656 0.950 . S
H634 C657 0.950 . S
H635 C659 0.950 . S
H636 C660 0.950 . S
H637 C661 0.952 1_655 S
H638 C663 0.951 . S
H639 C665 0.950 . S
H640 C666 0.950 . S
H641 C668 0.950 . S
H642 C671 0.950 . S
H643 C672 0.950 . S
H644 C674 0.950 . S
H645 C675 0.950 . S
C646 H628 0.951 . S
C646 C647 1.366 . S
C646 C648 1.388 . S
C647 C646 1.366 . S
C647 C651 1.385 1_455 S
C648 H629 0.951 . S
C648 C646 1.388 . S
C648 C649 1.366 . S
C649 C648 1.366 . S
C649 C650 1.414 1_455 S
C649 C652 1.499 . S
C650 H630 0.950 . S
C650 C649 1.414 1_655 S
C650 C651 1.374 . S
C651 H631 0.950 . S
C651 C647 1.385 1_655 S
C651 C650 1.374 . S
C652 C649 1.499 . S
C652 C653 1.373 . S
C652 C654 1.389 . S
C653 H632 0.950 1_455 S
C653 C652 1.373 . S
C653 C669 1.377 . S
C654 C652 1.389 . S
C654 C655 1.524 . S
C654 C668 1.377 . S
C655 C654 1.524 . S
C655 C656 1.397 . S
C655 C660 1.363 . S
C656 H633 0.950 . S
C656 C655 1.397 . S
C656 C657 1.334 . S
C657 H634 0.950 . S
C657 C656 1.334 . S
C657 C658 1.287 . S
C658 C657 1.287 . S
C658 C659 1.524 . S
C658 H677 0.913 . S
C659 H635 0.950 . S
C659 C658 1.524 . S
C659 C660 1.415 . S
C660 H636 0.950 . S
C660 C655 1.363 . S
C660 C659 1.415 . S
C661 H637 0.952 1_455 S
C661 C662 1.363 . S
C661 C663 1.389 1_455 S
C662 C661 1.363 . S
C662 C666 1.385 . S
C663 H638 0.951 . S
C663 C661 1.389 1_655 S
C663 C664 1.366 1_655 S
C664 C663 1.366 1_455 S
C664 C665 1.414 . S
C664 C667 1.499 . S
C665 H639 0.950 . S
C665 C664 1.414 . S
C665 C666 1.374 . S
C666 H640 0.950 . S
C666 C662 1.385 . S
C666 C665 1.374 . S
C667 C664 1.499 . S
C667 C668 1.373 . S
C667 C669 1.389 . S
C668 H641 0.950 . S
C668 C654 1.377 . S
C668 C667 1.373 . S
C669 C653 1.377 . S
C669 C667 1.389 . S
C669 C670 1.524 1_455 S
C670 C669 1.524 1_655 S
C670 C671 1.397 1_655 S
C670 C675 1.363 . S
C671 H642 0.950 . S
C671 C670 1.397 1_455 S
C671 C672 1.334 . S
C672 H643 0.950 . S
C672 C671 1.334 . S
C672 C673 1.287 1_455 S
C673 C672 1.287 1_655 S
C673 C674 1.524 . S
C673 H676 0.999 . S
C674 H644 0.950 . S
C674 C673 1.524 . S
C674 C675 1.415 . S
C675 H645 0.950 . S
C675 C670 1.363 . S
C675 C674 1.415 . S
H676 C673 0.999 . S
H677 C658 0.913 . S
H678 C696 0.951 . S
H679 C698 0.951 . S
H680 C700 0.950 . S
H681 C701 0.950 . S
H682 C703 0.950 1_565 S
H683 C706 0.950 . S
H684 C707 0.954 . S
H685 C709 0.950 . S
H686 C710 0.950 . S
H687 C711 0.951 . S
H688 C713 0.951 . S
H689 C715 0.950 . S
H690 C716 0.950 . S
H691 C718 0.950 . S
H692 C721 0.950 . S
H693 C722 0.950 . S
H694 C724 0.950 . S
H695 C725 0.950 . S
C696 H678 0.951 . S
C696 C697 1.366 . S
C696 C698 1.388 . S
C697 C696 1.366 . S
C697 C701 1.385 1_545 S
C698 H679 0.951 . S
C698 C696 1.388 . S
C698 C699 1.366 . S
C699 C698 1.366 . S
C699 C700 1.414 1_545 S
C699 C702 1.499 . S
C700 H680 0.950 . S
C700 C699 1.414 1_565 S
C700 C701 1.374 . S
C701 H681 0.950 . S
C701 C697 1.385 1_565 S
C701 C700 1.374 . S
C702 C699 1.499 . S
C702 C703 1.373 . S
C702 C704 1.389 . S
C703 H682 0.950 1_545 S
C703 C702 1.373 . S
C703 C719 1.377 . S
C704 C702 1.389 . S
C704 C705 1.524 . S
C704 C718 1.377 . S
C705 C704 1.524 . S
C705 C706 1.397 1_545 S
C705 C710 1.363 . S
C706 H683 0.950 . S
C706 C705 1.397 1_565 S
C706 C707 1.340 . S
C707 H684 0.954 . S
C707 C706 1.340 . S
C707 C708 1.277 1_565 S
C708 C707 1.277 1_545 S
C708 C709 1.524 . S
C708 H727 0.913 . S
C709 H685 0.950 . S
C709 C708 1.524 . S
C709 C710 1.415 . S
C710 H686 0.950 . S
C710 C705 1.363 . S
C710 C709 1.415 . S
C711 H687 0.951 . S
C711 C712 1.366 1_565 S
C711 C713 1.388 . S
C712 C711 1.366 1_545 S
C712 C716 1.385 . S
C713 H688 0.951 . S
C713 C711 1.388 . S
C713 C714 1.366 1_565 S
C714 C713 1.366 1_545 S
C714 C715 1.414 . S
C714 C717 1.499 . S
C715 H689 0.950 . S
C715 C714 1.414 . S
C715 C716 1.374 . S
C716 H690 0.950 . S
C716 C712 1.385 . S
C716 C715 1.374 . S
C717 C714 1.499 . S
C717 C718 1.373 . S
C717 C719 1.389 . S
C718 H691 0.950 . S
C718 C704 1.377 . S
C718 C717 1.373 . S
C719 C703 1.377 . S
C719 C717 1.389 . S
C719 C720 1.524 1_545 S
C720 C719 1.524 1_565 S
C720 C721 1.397 1_565 S
C720 C725 1.363 . S
C721 H692 0.950 . S
C721 C720 1.397 1_545 S
C721 C722 1.334 . S
C722 H693 0.950 . S
C722 C721 1.334 . S
C722 C723 1.287 1_545 S
C723 C722 1.287 1_565 S
C723 C724 1.524 . S
C723 H726 0.999 . S
C724 H694 0.950 . S
C724 C723 1.524 . S
C724 C725 1.415 . S
C725 H695 0.950 . S
C725 C720 1.363 . S
C725 C724 1.415 . S
H726 C723 0.999 . S
H727 C708 0.913 . S
H728 C746 0.951 . S
H729 C748 0.951 . S
H730 C750 0.950 . S
H731 C751 0.950 . S
H732 C753 0.950 . S
H733 C756 0.950 . S
H734 C757 0.950 . S
H735 C759 0.950 . S
H736 C760 0.950 . S
H737 C761 0.951 . S
H738 C763 0.951 . S
H739 C765 0.950 . S
H740 C766 0.950 . S
H741 C768 0.950 . S
H742 C771 0.950 . S
H743 C772 0.950 . S
H744 C774 0.950 . S
H745 C775 0.950 . S
C746 H728 0.951 . S
C746 C747 1.366 . S
C746 C748 1.388 1_554 S
C747 C746 1.366 . S
C747 C751 1.385 1_554 S
C748 H729 0.951 . S
C748 C746 1.388 1_556 S
C748 C749 1.366 . S
C749 C748 1.366 . S
C749 C750 1.414 . S
C749 C752 1.499 . S
C750 H730 0.950 . S
C750 C749 1.414 . S
C750 C751 1.374 . S
C751 H731 0.950 . S
C751 C747 1.385 1_556 S
C751 C750 1.374 . S
C752 C749 1.499 . S
C752 C753 1.373 . S
C752 C754 1.389 . S
C753 H732 0.950 . S
C753 C752 1.373 . S
C753 C769 1.377 . S
C754 C752 1.389 . S
C754 C755 1.524 . S
C754 C768 1.377 . S
C755 C754 1.524 . S
C755 C756 1.397 . S
C755 C760 1.363 . S
C756 H733 0.950 . S
C756 C755 1.397 . S
C756 C757 1.334 . S
C757 H734 0.950 . S
C757 C756 1.334 . S
C757 C758 1.287 . S
C758 C757 1.287 . S
C758 C759 1.524 . S
C758 H777 0.913 . S
C759 H735 0.950 . S
C759 C758 1.524 . S
C759 C760 1.415 . S
C760 H736 0.950 . S
C760 C755 1.363 . S
C760 C759 1.415 . S
C761 H737 0.951 . S
C761 C762 1.366 . S
C761 C763 1.388 . S
C762 C761 1.366 . S
C762 C766 1.385 . S
C763 H738 0.951 . S
C763 C761 1.388 . S
C763 C764 1.366 . S
C764 C763 1.366 . S
C764 C765 1.414 . S
C764 C767 1.499 . S
C765 H739 0.950 . S
C765 C764 1.414 . S
C765 C766 1.374 . S
C766 H740 0.950 . S
C766 C762 1.385 . S
C766 C765 1.374 . S
C767 C764 1.499 . S
C767 C768 1.373 . S
C767 C769 1.389 . S
C768 H741 0.950 . S
C768 C754 1.377 . S
C768 C767 1.373 . S
C769 C753 1.377 . S
C769 C767 1.389 . S
C769 C770 1.524 . S
C770 C769 1.524 . S
C770 C771 1.397 . S
C770 C775 1.363 . S
C771 H742 0.950 . S
C771 C770 1.397 . S
C771 C772 1.334 . S
C772 H743 0.950 . S
C772 C771 1.334 . S
C772 C773 1.287 . S
C773 C772 1.287 . S
C773 C774 1.524 . S
C773 H776 0.999 . S
C774 H744 0.950 . S
C774 C773 1.524 . S
C774 C775 1.415 . S
C775 H745 0.950 . S
C775 C770 1.363 . S
C775 C774 1.415 . S
H776 C773 0.999 . S
H777 C758 0.913 . S
H778 C796 0.951 . S
H779 C798 0.951 . S
H780 C800 0.950 . S
H781 C801 0.950 . S
H782 C803 0.950 . S
H783 C806 0.950 . S
H784 C807 0.950 . S
H785 C809 0.950 . S
H786 C810 0.950 . S
H787 C811 0.951 . S
H788 C813 0.951 . S
H789 C815 0.950 1_655 S
H790 C816 0.950 1_655 S
H791 C818 0.950 . S
H792 C821 0.950 1_655 S
H793 C822 0.950 1_655 S
H794 C824 0.950 . S
H795 C825 0.950 . S
C796 H778 0.951 . S
C796 C797 1.366 1_655 S
C796 C798 1.388 . S
C797 C796 1.366 1_455 S
C797 C801 1.385 . S
C798 H779 0.951 . S
C798 C796 1.388 . S
C798 C799 1.366 1_655 S
C799 C798 1.366 1_455 S
C799 C800 1.414 . S
C799 C802 1.499 . S
C800 H780 0.950 . S
C800 C799 1.414 . S
C800 C801 1.374 . S
C801 H781 0.950 . S
C801 C797 1.385 . S
C801 C800 1.374 . S
C802 C799 1.499 . S
C802 C803 1.373 . S
C802 C804 1.389 . S
C803 H782 0.950 . S
C803 C802 1.373 . S
C803 C819 1.377 . S
C804 C802 1.389 . S
C804 C805 1.524 . S
C804 C818 1.377 . S
C805 C804 1.524 . S
C805 C806 1.397 . S
C805 C810 1.363 1_455 S
C806 H783 0.950 . S
C806 C805 1.397 . S
C806 C807 1.334 . S
C807 H784 0.950 . S
C807 C806 1.334 . S
C807 C808 1.287 . S
C808 C807 1.287 . S
C808 C809 1.524 1_455 S
C808 H827 0.913 . S
C809 H785 0.950 . S
C809 C808 1.524 1_655 S
C809 C810 1.415 . S
C810 H786 0.950 . S
C810 C805 1.363 1_655 S
C810 C809 1.415 . S
C811 H787 0.951 . S
C811 C812 1.366 . S
C811 C813 1.388 . S
C812 C811 1.366 . S
C812 C816 1.385 . S
C813 H788 0.951 . S
C813 C811 1.388 . S
C813 C814 1.366 . S
C814 C813 1.366 . S
C814 C815 1.414 . S
C814 C817 1.499 . S
C815 H789 0.950 1_455 S
C815 C814 1.414 . S
C815 C816 1.374 . S
C816 H790 0.950 1_455 S
C816 C812 1.385 . S
C816 C815 1.374 . S
C817 C814 1.499 . S
C817 C818 1.373 . S
C817 C819 1.389 . S
C818 H791 0.950 . S
C818 C804 1.377 . S
C818 C817 1.373 . S
C819 C803 1.377 . S
C819 C817 1.389 . S
C819 C820 1.524 . S
C820 C819 1.524 . S
C820 C821 1.397 . S
C820 C825 1.363 . S
C821 H792 0.950 1_455 S
C821 C820 1.397 . S
C821 C822 1.334 . S
C822 H793 0.950 1_455 S
C822 C821 1.334 . S
C822 C823 1.287 . S
C823 C822 1.287 . S
C823 C824 1.524 . S
C823 H826 0.999 . S
C824 H794 0.950 . S
C824 C823 1.524 . S
C824 C825 1.415 . S
C825 H795 0.950 . S
C825 C820 1.363 . S
C825 C824 1.415 . S
H826 C823 0.999 . S
H827 C808 0.913 . S
C262 C95 1.314 . S
C247 C0 1.323 . S
C297 C25 1.385 . S
C312 C139 1.373 . S
C347 C33 1.417 . S
C362 C201 1.408 . S
C397 C11 1.341 . S
C412 C77 1.328 . S
C462 C157 1.355 . S
C447 C14 1.364 . S
C497 C37 1.424 . S
C512 C219 1.418 . S
C562 C133 1.618 . S
C547 C28 1.706 . S
C597 C9 1.759 . S
C612 C195 1.672 . S
C662 C71 1.691 . S
C647 C19 1.798 . S
C712 C151 1.634 . S
C697 C39 1.732 . S
C762 C213 1.658 . S
C747 C5 1.751 . S
C797 C23 1.800 . S
C812 C89 1.706 . S
