# Generated by pormake.
# Topology csq, (4,8)-cn, num edge types: 1
# Building blocks:
#     Node 0, Type 0, BuildingBlock: AZAVOO_clean_linker_0, # of connection points: 4
#     Node 1, Type 0, BuildingBlock: AZAVOO_clean_linker_0, # of connection points: 4
#     Node 2, Type 0, BuildingBlock: AZAVOO_clean_linker_0, # of connection points: 4
#     Node 3, Type 0, BuildingBlock: AZAVOO_clean_linker_0, # of connection points: 4
#     Node 4, Type 0, BuildingBlock: AZAVOO_clean_linker_0, # of connection points: 4
#     Node 5, Type 0, BuildingBlock: AZAVOO_clean_linker_0, # of connection points: 4
#     Node 6, Type 1, BuildingBlock: TAGTUT_clean_sbu_1, # of connection points: 8
#     Node 7, Type 1, BuildingBlock: TAGTUT_clean_sbu_1, # of connection points: 8
#     Node 8, Type 1, BuildingBlock: TAGTUT_clean_sbu_1, # of connection points: 8
#     Edge 9, Type (0, 1), BuildingBlock: AJUNOK_clean_linker_0, # of connection points: 2
#     Edge 10, Type (0, 1), BuildingBlock: AJUNOK_clean_linker_0, # of connection points: 2
#     Edge 11, Type (0, 1), BuildingBlock: AJUNOK_clean_linker_0, # of connection points: 2
#     Edge 12, Type (0, 1), BuildingBlock: AJUNOK_clean_linker_0, # of connection points: 2
#     Edge 13, Type (0, 1), BuildingBlock: AJUNOK_clean_linker_0, # of connection points: 2
#     Edge 14, Type (0, 1), BuildingBlock: AJUNOK_clean_linker_0, # of connection points: 2
#     Edge 15, Type (0, 1), BuildingBlock: AJUNOK_clean_linker_0, # of connection points: 2
#     Edge 16, Type (0, 1), BuildingBlock: AJUNOK_clean_linker_0, # of connection points: 2
#     Edge 17, Type (0, 1), BuildingBlock: AJUNOK_clean_linker_0, # of connection points: 2
#     Edge 18, Type (0, 1), BuildingBlock: AJUNOK_clean_linker_0, # of connection points: 2
#     Edge 19, Type (0, 1), BuildingBlock: AJUNOK_clean_linker_0, # of connection points: 2
#     Edge 20, Type (0, 1), BuildingBlock: AJUNOK_clean_linker_0, # of connection points: 2
#     Edge 21, Type (0, 1), BuildingBlock: AJUNOK_clean_linker_0, # of connection points: 2
#     Edge 22, Type (0, 1), BuildingBlock: AJUNOK_clean_linker_0, # of connection points: 2
#     Edge 23, Type (0, 1), BuildingBlock: AJUNOK_clean_linker_0, # of connection points: 2
#     Edge 24, Type (0, 1), BuildingBlock: AJUNOK_clean_linker_0, # of connection points: 2
#     Edge 25, Type (0, 1), BuildingBlock: AJUNOK_clean_linker_0, # of connection points: 2
#     Edge 26, Type (0, 1), BuildingBlock: AJUNOK_clean_linker_0, # of connection points: 2
#     Edge 27, Type (0, 1), BuildingBlock: AJUNOK_clean_linker_0, # of connection points: 2
#     Edge 28, Type (0, 1), BuildingBlock: AJUNOK_clean_linker_0, # of connection points: 2
#     Edge 29, Type (0, 1), BuildingBlock: AJUNOK_clean_linker_0, # of connection points: 2
#     Edge 30, Type (0, 1), BuildingBlock: AJUNOK_clean_linker_0, # of connection points: 2
#     Edge 31, Type (0, 1), BuildingBlock: AJUNOK_clean_linker_0, # of connection points: 2
#     Edge 32, Type (0, 1), BuildingBlock: AJUNOK_clean_linker_0, # of connection points: 2
# Relax obj value: 0.145
# Max RMSD: 0.237
# Mean RMSD: 0.200
data_MOF--net-csq--node1-TAGTUT_clean_sbu_1--node2-AZAVOO_clean_linker_0--edge1-AJUNOK_clean_linker_0
_symmetry_space_group_name_H-M    P1
_symmetry_Int_Tables_number       1
_symmetry_cell_setting            triclinic
loop_
_symmetry_equiv_pos_as_xyz
'x, y, z'
_cell_length_a     45.2012
_cell_length_b     44.606968
_cell_length_c     18.703809
_cell_angle_alpha  92.65032
_cell_angle_beta   92.158569
_cell_angle_gamma 119.88158
loop_
_atom_site_label
_atom_site_type_symbol
_atom_site_fract_x
_atom_site_fract_y
_atom_site_fract_z
_atom_type_partial_charge
H0 H 0.14208 0.44762 0.58473 0.0
H1 H 0.43155 0.43827 0.23581 0.0
H2 H 0.15501 0.43083 0.18975 0.0
H3 H 0.11795 0.44294 0.26305 0.0
H4 H 0.19655 0.55094 0.28963 0.0
H5 H 0.23207 0.53892 0.21277 0.0
H6 H 0.18587 0.41686 0.31394 0.0
H7 H 0.16111 0.41915 0.42693 0.0
H8 H 0.2338 0.52898 0.45965 0.0
H9 H 0.25832 0.52623 0.34666 0.0
H10 H 0.24622 0.40506 0.31681 0.0
H11 H 0.27517 0.39825 0.42335 0.0
H12 H 0.34645 0.50869 0.44051 0.0
H13 H 0.31591 0.51531 0.33798 0.0
H14 H 0.27424 0.40384 0.13024 0.0
H15 H 0.31757 0.38618 0.13541 0.0
H16 H 0.38937 0.48482 0.24698 0.0
H17 H 0.34669 0.50308 0.23734 0.0
H18 H 0.24441 0.42739 0.99582 0.0
H19 H 0.27838 0.42878 0.89551 0.0
H20 H 0.366 0.52004 0.99953 0.0
H21 H 0.33143 0.51967 0.09667 0.0
H22 H 0.17559 0.42651 0.06226 0.0
H23 H 0.14732 0.42728 0.94912 0.0
H24 H 0.23496 0.52596 0.91209 0.0
H25 H 0.26289 0.5254 0.02704 0.0
O26 O 0.15277 0.44708 0.54115 0.0
O27 O 0.19122 0.5033 0.55627 0.0
O28 O 0.37667 0.39478 0.17194 0.0
O29 O 0.41417 0.44486 0.23118 0.0
C30 C 0.22365 0.47511 0.18777 0.0
C31 C 0.2377 0.47021 0.25191 0.0
C32 C 0.26539 0.46446 0.25039 0.0
C33 C 0.27991 0.46399 0.18518 0.0
C34 C 0.26697 0.47012 0.12068 0.0
C35 C 0.23788 0.47453 0.12155 0.0
C36 C 0.19624 0.48403 0.19509 0.0
C37 C 0.16316 0.45749 0.20706 0.0
C38 C 0.14244 0.46432 0.251 0.0
C39 C 0.15442 0.49781 0.28368 0.0
C40 C 0.18602 0.52494 0.26482 0.0
C41 C 0.20637 0.51819 0.21979 0.0
C42 C 0.22358 0.47144 0.32195 0.0
C43 C 0.19645 0.44133 0.34582 0.0
C44 C 0.18237 0.44273 0.4103 0.0
C45 C 0.19538 0.47429 0.4522 0.0
C46 C 0.22311 0.50428 0.42864 0.0
C47 C 0.23718 0.50281 0.36421 0.0
C48 C 0.28011 0.46046 0.31851 0.0
C49 C 0.26768 0.42773 0.34483 0.0
C50 C 0.28409 0.42397 0.40561 0.0
C51 C 0.3137 0.45278 0.43892 0.0
C52 C 0.32376 0.48595 0.41623 0.0
C53 C 0.30682 0.48975 0.35681 0.0
C54 C 0.30717 0.45458 0.18414 0.0
C55 C 0.29954 0.42181 0.15476 0.0
C56 C 0.32427 0.41173 0.15812 0.0
C57 C 0.357 0.43417 0.19167 0.0
C58 C 0.3646 0.46712 0.22025 0.0
C59 C 0.3401 0.47744 0.21553 0.0
C60 C 0.28541 0.47326 0.05417 0.0
C61 C 0.27071 0.44814 0.99602 0.0
C62 C 0.29041 0.44868 0.93925 0.0
C63 C 0.32544 0.4739 0.94026 0.0
C64 C 0.33933 0.50011 0.99669 0.0
C65 C 0.31956 0.49986 0.05263 0.0
C66 C 0.2211 0.47606 0.05331 0.0
C67 C 0.18868 0.44835 0.02987 0.0
C68 C 0.17288 0.4485 0.96447 0.0
C69 C 0.18927 0.47631 0.92083 0.0
C70 C 0.2219 0.50403 0.94426 0.0
C71 C 0.23775 0.50385 0.00993 0.0
C72 C 0.17982 0.47588 0.51977 0.0
C73 C 0.38311 0.4233 0.19745 0.0
H74 H 0.86831 0.37503 0.57678 0.0
H75 H 0.60875 0.02822 0.15293 0.0
H76 H 0.81405 0.33995 0.21664 0.0
H77 H 0.86499 0.38866 0.27626 0.0
H78 H 0.92689 0.35086 0.17992 0.0
H79 H 0.8749 0.29918 0.12965 0.0
H80 H 0.77465 0.29334 0.32901 0.0
H81 H 0.80558 0.3282 0.43999 0.0
H82 H 0.88911 0.31006 0.39964 0.0
H83 H 0.85824 0.27582 0.2882 0.0
H84 H 0.70666 0.2126 0.28289 0.0
H85 H 0.6845 0.18128 0.3895 0.0
H86 H 0.78027 0.18356 0.43366 0.0
H87 H 0.80064 0.21139 0.32239 0.0
H88 H 0.68543 0.19919 0.12693 0.0
H89 H 0.63316 0.14251 0.11955 0.0
H90 H 0.69294 0.0948 0.17681 0.0
H91 H 0.74506 0.15172 0.18416 0.0
H92 H 0.72504 0.24686 0.01278 0.0
H93 H 0.67994 0.20869 0.92084 0.0
H94 H 0.71354 0.13377 0.932 0.0
H95 H 0.7586 0.17203 0.02403 0.0
H96 H 0.80291 0.32064 0.03826 0.0
H97 H 0.84827 0.35527 0.96006 0.0
H98 H 0.87238 0.27322 0.93692 0.0
H99 H 0.82697 0.23869 0.01499 0.0
O100 O 0.85597 0.36014 0.53412 0.0
O101 O 0.89798 0.34957 0.51126 0.0
O102 O 0.5996 0.07672 0.1249 0.0
O103 O 0.62899 0.05096 0.15601 0.0
C104 C 0.80989 0.28003 0.16572 0.0
C105 C 0.79689 0.26395 0.22968 0.0
C106 C 0.76761 0.23073 0.22644 0.0
C107 C 0.75071 0.21391 0.15912 0.0
C108 C 0.76415 0.22965 0.09486 0.0
C109 C 0.79424 0.26241 0.09819 0.0
C110 C 0.84062 0.31527 0.17175 0.0
C111 C 0.8387 0.34261 0.20697 0.0
C112 C 0.8681 0.37072 0.24073 0.0
C113 C 0.90001 0.37257 0.23679 0.0
C114 C 0.90244 0.34886 0.18841 0.0
C115 C 0.87277 0.31968 0.15794 0.0
C116 C 0.81427 0.28221 0.30048 0.0
C117 C 0.79951 0.29669 0.34461 0.0
C118 C 0.81731 0.31672 0.40776 0.0
C119 C 0.85005 0.3223 0.42816 0.0
C120 C 0.86419 0.30669 0.38495 0.0
C121 C 0.84653 0.28696 0.32153 0.0
C122 C 0.75495 0.21363 0.29391 0.0
C123 C 0.72264 0.20589 0.31505 0.0
C124 C 0.71033 0.18859 0.37688 0.0
C125 C 0.73048 0.1795 0.41995 0.0
C126 C 0.76368 0.18919 0.40076 0.0
C127 C 0.77551 0.20545 0.33758 0.0
C128 C 0.719 0.17949 0.15573 0.0
C129 C 0.68718 0.17644 0.13763 0.0
C130 C 0.65738 0.14405 0.13345 0.0
C131 C 0.65889 0.11407 0.14713 0.0
C132 C 0.69086 0.11732 0.16576 0.0
C133 C 0.72066 0.14977 0.17009 0.0
C134 C 0.74503 0.21218 0.02515 0.0
C135 C 0.72358 0.22287 0.99327 0.0
C136 C 0.69765 0.20094 0.94142 0.0
C137 C 0.69306 0.16815 0.92037 0.0
C138 C 0.71663 0.15895 0.94733 0.0
C139 C 0.74241 0.18079 0.99958 0.0
C140 C 0.81184 0.27728 0.03272 0.0
C141 C 0.81706 0.30959 0.014 0.0
C142 C 0.84328 0.32951 0.97037 0.0
C143 C 0.86442 0.31725 0.94457 0.0
C144 C 0.85664 0.28334 0.9568 0.0
C145 C 0.83048 0.26347 0.0007 0.0
C146 C 0.8695 0.34471 0.49369 0.0
C147 C 0.62732 0.07955 0.14197 0.0
H148 H 0.53275 0.87699 0.66198 0.0
H149 H 0.42724 0.5245 0.04129 0.0
H150 H 0.57283 0.8391 0.01224 0.0
H151 H 0.5821 0.89205 0.96223 0.0
H152 H 0.48312 0.87174 0.02615 0.0
H153 H 0.47243 0.81615 0.06744 0.0
H154 H 0.55546 0.80285 0.88752 0.0
H155 H 0.55523 0.83485 0.78523 0.0
H156 H 0.44837 0.80048 0.8077 0.0
H157 H 0.44902 0.76869 0.91058 0.0
H158 H 0.55867 0.75275 0.92175 0.0
H159 H 0.57364 0.7173 0.8456 0.0
H160 H 0.46645 0.64227 0.80127 0.0
H161 H 0.45145 0.67833 0.87765 0.0
H162 H 0.5404 0.69299 0.03413 0.0
H163 H 0.52811 0.6333 0.04227 0.0
H164 H 0.41983 0.59801 0.03303 0.0
H165 H 0.43257 0.65802 0.02698 0.0
H166 H 0.56223 0.74164 0.15595 0.0
H167 H 0.56713 0.69931 0.22476 0.0
H168 H 0.45877 0.64808 0.2545 0.0
H169 H 0.45394 0.69008 0.18197 0.0
H170 H 0.5791 0.80403 0.15447 0.0
H171 H 0.60654 0.85334 0.24513 0.0
H172 H 0.50769 0.84042 0.28619 0.0
H173 H 0.48029 0.79069 0.19671 0.0
O174 O 0.53193 0.86307 0.70084 0.0
O175 O 0.47539 0.83798 0.70263 0.0
O176 O 0.48855 0.56881 0.05891 0.0
O177 O 0.43278 0.54829 0.03731 0.0
C178 C 0.5111 0.78606 0.04002 0.0
C179 C 0.50311 0.76683 0.973 0.0
C180 C 0.4973 0.7328 0.96998 0.0
C181 C 0.49497 0.71635 0.03382 0.0
C182 C 0.50354 0.73564 0.10091 0.0
C183 C 0.51288 0.77095 0.10358 0.0
C184 C 0.52151 0.82329 0.04071 0.0
C185 C 0.55352 0.84657 0.01712 0.0
C186 C 0.55878 0.87706 0.98874 0.0
C187 C 0.5325 0.88534 0.9862 0.0
C188 C 0.50297 0.86501 0.02263 0.0
C189 C 0.49709 0.8336 0.04794 0.0
C190 C 0.50211 0.783 0.90587 0.0
C191 C 0.53183 0.8016 0.86942 0.0
C192 C 0.53172 0.8202 0.81141 0.0
C193 C 0.50179 0.82025 0.78832 0.0
C194 C 0.47183 0.80089 0.82398 0.0
C195 C 0.47207 0.78256 0.88246 0.0
C196 C 0.50397 0.71818 0.90454 0.0
C197 C 0.53831 0.72972 0.89225 0.0
C198 C 0.54688 0.70927 0.84951 0.0
C199 C 0.52118 0.6769 0.81932 0.0
C200 C 0.48663 0.66703 0.82531 0.0
C201 C 0.47802 0.68768 0.8679 0.0
C202 C 0.48737 0.67977 0.03052 0.0
C203 C 0.51405 0.6723 0.0336 0.0
C204 C 0.50697 0.63824 0.03857 0.0
C205 C 0.47298 0.61095 0.03893 0.0
C206 C 0.44627 0.61844 0.03314 0.0
C207 C 0.45344 0.65263 0.02932 0.0
C208 C 0.50786 0.71936 0.16479 0.0
C209 C 0.53982 0.72234 0.1801 0.0
C210 C 0.54241 0.69761 0.21853 0.0
C211 C 0.51315 0.66964 0.24359 0.0
C212 C 0.48159 0.66853 0.23379 0.0
C213 C 0.47895 0.69313 0.19431 0.0
C214 C 0.5277 0.79352 0.17026 0.0
C215 C 0.56327 0.81083 0.18554 0.0
C216 C 0.57891 0.83906 0.23658 0.0
C217 C 0.55908 0.85044 0.27176 0.0
C218 C 0.52332 0.83186 0.25937 0.0
C219 C 0.50768 0.80341 0.20902 0.0
C220 C 0.50208 0.84085 0.72798 0.0
C221 C 0.46538 0.57481 0.04567 0.0
H222 H 0.67021 0.45245 0.49411 0.0
H223 H 0.98658 0.54876 0.08717 0.0
H224 H 0.67606 0.46191 0.07895 0.0
H225 H 0.63317 0.46378 0.15136 0.0
H226 H 0.70107 0.57404 0.19884 0.0
H227 H 0.74068 0.57229 0.11863 0.0
H228 H 0.72139 0.45003 0.2121 0.0
H229 H 0.69482 0.44025 0.32691 0.0
H230 H 0.73162 0.55007 0.36148 0.0
H231 H 0.75853 0.55954 0.24765 0.0
H232 H 0.80778 0.46662 0.20463 0.0
H233 H 0.83597 0.47131 0.32131 0.0
H234 H 0.83587 0.56675 0.3765 0.0
H235 H 0.8149 0.56537 0.2546 0.0
H236 H 0.81593 0.45974 0.05001 0.0
H237 H 0.87066 0.46132 0.04335 0.0
H238 H 0.92389 0.57017 0.11577 0.0
H239 H 0.86892 0.56819 0.12216 0.0
H240 H 0.77427 0.45908 0.92791 0.0
H241 H 0.81173 0.45605 0.84063 0.0
H242 H 0.88163 0.56585 0.8835 0.0
H243 H 0.84279 0.56904 0.96731 0.0
H244 H 0.72594 0.46683 0.91064 0.0
H245 H 0.69301 0.46937 0.80708 0.0
H246 H 0.71722 0.57232 0.88572 0.0
H247 H 0.7529 0.5708 0.98495 0.0
O248 O 0.68076 0.45683 0.4488 0.0
O249 O 0.69572 0.51256 0.45861 0.0
O250 O 0.93594 0.49142 0.05233 0.0
O251 O 0.96457 0.54727 0.09058 0.0
C252 C 0.7432 0.51394 0.0883 0.0
C253 C 0.75888 0.51111 0.15243 0.0
C254 C 0.79071 0.51264 0.15192 0.0
C255 C 0.80539 0.51326 0.08652 0.0
C256 C 0.78895 0.51406 0.02119 0.0
C257 C 0.75827 0.5155 0.02226 0.0
C258 C 0.712 0.51686 0.09484 0.0
C259 C 0.68053 0.48675 0.10142 0.0
C260 C 0.65667 0.48772 0.14594 0.0
C261 C 0.66474 0.51847 0.18736 0.0
C262 C 0.69365 0.54946 0.17015 0.0
C263 C 0.71658 0.54867 0.12302 0.0
C264 C 0.74152 0.5054 0.22097 0.0
C265 C 0.72355 0.4719 0.24446 0.0
C266 C 0.70851 0.46642 0.31014 0.0
C267 C 0.71118 0.49441 0.35346 0.0
C268 C 0.72906 0.52794 0.3295 0.0
C269 C 0.74428 0.53337 0.26418 0.0
C270 C 0.80905 0.51552 0.22138 0.0
C271 C 0.8147 0.4889 0.24157 0.0
C272 C 0.82963 0.49105 0.30969 0.0
C273 C 0.83722 0.51884 0.36035 0.0
C274 C 0.83072 0.54502 0.33959 0.0
C275 C 0.81828 0.54411 0.27 0.0
C276 C 0.83855 0.51387 0.08634 0.0
C277 C 0.83946 0.48386 0.06458 0.0
C278 C 0.87074 0.48485 0.06073 0.0
C279 C 0.90168 0.51594 0.07859 0.0
C280 C 0.90057 0.54584 0.10145 0.0
C281 C 0.86924 0.54478 0.10537 0.0
C282 C 0.80536 0.51439 0.95332 0.0
C283 C 0.79663 0.48285 0.91548 0.0
C284 C 0.81856 0.48103 0.86685 0.0
C285 C 0.85019 0.51052 0.85666 0.0
C286 C 0.8575 0.54264 0.89002 0.0
C287 C 0.83521 0.54455 0.93773 0.0
C288 C 0.74189 0.51865 0.95528 0.0
C289 C 0.72548 0.49054 0.90366 0.0
C290 C 0.7064 0.49194 0.84481 0.0
C291 C 0.70243 0.52105 0.83786 0.0
C292 C 0.72035 0.54985 0.888 0.0
C293 C 0.74023 0.54877 0.94571 0.0
C294 C 0.69548 0.48863 0.42346 0.0
C295 C 0.935 0.51732 0.07303 0.0
H296 H 0.32675 0.88271 0.55418 0.0
H297 H 0.05757 0.57369 0.04719 0.0
H298 H 0.30653 0.86985 0.15942 0.0
H299 H 0.35238 0.90908 0.24764 0.0
H300 H 0.3919 0.83864 0.24689 0.0
H301 H 0.34488 0.79875 0.16048 0.0
H302 H 0.2571 0.83585 0.26666 0.0
H303 H 0.2812 0.86111 0.38857 0.0
H304 H 0.32502 0.79448 0.40099 0.0
H305 H 0.30071 0.76947 0.27926 0.0
H306 H 0.18449 0.77848 0.20328 0.0
H307 H 0.13237 0.74327 0.26472 0.0
H308 H 0.17058 0.67538 0.32139 0.0
H309 H 0.22242 0.7105 0.25946 0.0
H310 H 0.163 0.74485 0.05743 0.0
H311 H 0.10538 0.6946 0.03478 0.0
H312 H 0.14429 0.62704 0.09072 0.0
H313 H 0.20171 0.67755 0.11343 0.0
H314 H 0.20708 0.76755 0.93867 0.0
H315 H 0.16584 0.72058 0.85468 0.0
H316 H 0.20758 0.65666 0.91946 0.0
H317 H 0.25043 0.70479 0.99957 0.0
H318 H 0.25809 0.82215 0.96725 0.0
H319 H 0.28382 0.84675 0.85715 0.0
H320 H 0.36493 0.8246 0.90603 0.0
H321 H 0.33684 0.79686 0.01352 0.0
O322 O 0.31658 0.87174 0.50691 0.0
O323 O 0.33821 0.83662 0.51063 0.0
O324 O 0.06146 0.6298 0.02656 0.0
O325 O 0.08003 0.59398 0.05609 0.0
C326 C 0.28768 0.80242 0.13223 0.0
C327 C 0.26541 0.7879 0.1882 0.0
C328 C 0.23188 0.76069 0.17198 0.0
C329 C 0.2213 0.7454 0.1017 0.0
C330 C 0.2436 0.75893 0.04616 0.0
C331 C 0.2762 0.78884 0.06009 0.0
C332 C 0.32251 0.83159 0.15286 0.0
C333 C 0.32616 0.86378 0.17512 0.0
C334 C 0.35214 0.88594 0.22653 0.0
C335 C 0.37547 0.87667 0.25501 0.0
C336 C 0.3739 0.84612 0.22682 0.0
C337 C 0.34766 0.82379 0.17587 0.0
C338 C 0.27738 0.80104 0.26421 0.0
C339 C 0.27161 0.82654 0.2962 0.0
C340 C 0.28554 0.841 0.36566 0.0
C341 C 0.30526 0.82999 0.40438 0.0
C342 C 0.31008 0.80365 0.37264 0.0
C343 C 0.29616 0.78925 0.30325 0.0
C344 C 0.20715 0.74705 0.22768 0.0
C345 C 0.18215 0.75684 0.23163 0.0
C346 C 0.15237 0.73662 0.26597 0.0
C347 C 0.14748 0.7065 0.29659 0.0
C348 C 0.17376 0.69833 0.29722 0.0
C349 C 0.20352 0.71858 0.26311 0.0
C350 C 0.18645 0.71473 0.08651 0.0
C351 C 0.15898 0.71914 0.06452 0.0
C352 C 0.12613 0.69043 0.05184 0.0
C353 C 0.12024 0.65677 0.06082 0.0
C354 C 0.14792 0.65255 0.08313 0.0
C355 C 0.18073 0.68131 0.09601 0.0
C356 C 0.232 0.73974 0.97482 0.0
C357 C 0.20914 0.74449 0.93073 0.0
C358 C 0.18492 0.71719 0.88421 0.0
C359 C 0.18291 0.68468 0.88216 0.0
C360 C 0.20857 0.68142 0.91957 0.0
C361 C 0.23333 0.70907 0.96494 0.0
C362 C 0.29533 0.80738 0.99836 0.0
C363 C 0.28115 0.82209 0.95373 0.0
C364 C 0.29604 0.83634 0.89077 0.0
C365 C 0.32626 0.83729 0.87157 0.0
C366 C 0.34104 0.8233 0.91751 0.0
C367 C 0.3255 0.80815 0.97999 0.0
C368 C 0.32101 0.84618 0.47719 0.0
C369 C 0.08544 0.62616 0.04677 0.0
H370 H 0.45961 0.33051 0.7726 0.0
H371 H 0.4523 0.01554 0.12746 0.0
H372 H 0.55676 0.32662 0.11538 0.0
H373 H 0.55584 0.37619 0.06812 0.0
H374 H 0.45361 0.33783 0.13613 0.0
H375 H 0.45446 0.28762 0.18145 0.0
H376 H 0.52444 0.2855 0.98552 0.0
H377 H 0.50652 0.30845 0.88699 0.0
H378 H 0.40289 0.25487 0.95254 0.0
H379 H 0.42132 0.23246 0.05147 0.0
H380 H 0.49517 0.20884 0.94982 0.0
H381 H 0.46754 0.15754 0.86516 0.0
H382 H 0.38986 0.10399 0.01272 0.0
H383 H 0.41658 0.15613 0.09586 0.0
H384 H 0.52943 0.18264 0.06238 0.0
H385 H 0.52428 0.12555 0.04414 0.0
H386 H 0.44487 0.08527 0.19333 0.0
H387 H 0.44976 0.14235 0.20992 0.0
H388 H 0.56336 0.21658 0.22357 0.0
H389 H 0.56836 0.17438 0.29462 0.0
H390 H 0.47801 0.15562 0.40027 0.0
H391 H 0.47194 0.19582 0.32627 0.0
H392 H 0.56392 0.31678 0.2715 0.0
H393 H 0.55938 0.35703 0.35872 0.0
H394 H 0.4556 0.27857 0.38985 0.0
H395 H 0.4598 0.2393 0.30191 0.0
O396 O 0.46595 0.32037 0.81064 0.0
O397 O 0.41267 0.29056 0.84361 0.0
O398 O 0.49915 0.06154 0.06587 0.0
O399 O 0.45559 0.03862 0.13581 0.0
C400 C 0.5011 0.26818 0.15067 0.0
C401 C 0.48572 0.2457 0.08829 0.0
C402 C 0.47948 0.21163 0.08773 0.0
C403 C 0.49243 0.20117 0.14526 0.0
C404 C 0.50692 0.22315 0.20881 0.0
C405 C 0.50939 0.25608 0.21266 0.0
C406 C 0.50554 0.30343 0.15089 0.0
C407 C 0.53488 0.32987 0.12345 0.0
C408 C 0.53431 0.35827 0.09659 0.0
C409 C 0.50443 0.36062 0.09758 0.0
C410 C 0.47682 0.33643 0.13407 0.0
C411 C 0.47733 0.3079 0.16044 0.0
C412 C 0.47416 0.25735 0.02542 0.0
C413 C 0.49785 0.2786 0.97816 0.0
C414 C 0.48754 0.2917 0.92202 0.0
C415 C 0.45327 0.28351 0.91188 0.0
C416 C 0.42947 0.26164 0.95876 0.0
C417 C 0.43987 0.2487 0.0151 0.0
C418 C 0.45803 0.18581 0.02893 0.0
C419 C 0.47118 0.18678 0.96209 0.0
C420 C 0.45537 0.15755 0.91399 0.0
C421 C 0.42676 0.12715 0.9332 0.0
C422 C 0.41173 0.12737 0.99707 0.0
C423 C 0.42703 0.15693 0.04432 0.0
C424 C 0.4903 0.16675 0.13815 0.0
C425 C 0.51112 0.16151 0.09147 0.0
C426 C 0.50814 0.12889 0.08119 0.0
C427 C 0.48423 0.10086 0.11744 0.0
C428 C 0.46358 0.1063 0.16468 0.0
C429 C 0.46651 0.13894 0.17472 0.0
C430 C 0.51758 0.20992 0.27028 0.0
C431 C 0.5456 0.2046 0.26453 0.0
C432 C 0.5483 0.18026 0.30481 0.0
C433 C 0.52331 0.16136 0.35234 0.0
C434 C 0.4974 0.16948 0.36332 0.0
C435 C 0.4944 0.19329 0.3223 0.0
C436 C 0.51253 0.27474 0.28201 0.0
C437 C 0.54087 0.30781 0.29989 0.0
C438 C 0.53804 0.33089 0.34845 0.0
C439 C 0.50698 0.32083 0.37976 0.0
C440 C 0.47984 0.28675 0.36661 0.0
C441 C 0.48248 0.26401 0.31753 0.0
C442 C 0.44259 0.29819 0.8533 0.0
C443 C 0.48029 0.06592 0.10485 0.0
C444 C 0.98254 0.4121 0.79636 0.0
C445 C 0.0874 0.47307 0.72715 0.0
C446 C 0.06132 0.57758 0.72717 0.0
Mg447 Mg 0.01496 0.43298 0.64988 0.0
O448 O 0.00906 0.4706 0.6761 0.0
Mg449 Mg 0.03025 0.49746 0.77069 0.0
Mg450 Mg 0.01839 0.5088 0.61389 0.0
O451 O 0.02748 0.54758 0.55452 0.0
Mg452 Mg 0.01873 0.58192 0.59308 0.0
Mg453 Mg -0.00062 0.51941 0.46629 0.0
C454 C 0.98203 0.44164 0.50055 0.0
C455 C 0.06669 0.51228 0.48343 0.0
O456 O -0.00021 0.44418 0.82029 0.0
O457 O 0.98409 0.40207 0.73188 0.0
O458 O 0.0765 0.49065 0.76122 0.0
O459 O 0.06855 0.44943 0.67804 0.0
O460 O 0.99282 0.42519 0.53872 0.0
O461 O 0.98346 0.46977 0.52528 0.0
C462 C 0.96538 0.50729 0.73349 0.0
O463 O 0.97283 0.51061 0.66774 0.0
O464 O 0.98389 0.50313 0.78034 0.0
O465 O 0.02141 0.57275 0.41645 0.0
O466 O 0.03807 0.61427 0.50656 0.0
O467 O 0.95249 0.52165 0.49881 0.0
C468 C 0.03583 0.60486 0.43995 0.0
O469 O 0.96484 0.56161 0.58869 0.0
O470 O 0.04954 0.59441 0.69389 0.0
C471 C 0.94341 0.53712 0.54441 0.0
O472 O 0.05418 0.5469 0.70512 0.0
O473 O 0.0626 0.50734 0.5509 0.0
O474 O 0.04602 0.51701 0.44353 0.0
C475 C 0.44062 0.02495 0.77319 0.0
C476 C 0.41811 0.92826 0.68073 0.0
C477 C 0.54711 0.96513 0.7426 0.0
Mg478 Mg 0.4526 0.00012 0.62516 0.0
O479 O 0.49465 0.01536 0.67788 0.0
Mg480 Mg 0.49243 0.99111 0.76658 0.0
Mg481 Mg 0.52599 0.00515 0.62471 0.0
O482 O 0.55637 0.99385 0.57133 0.0
Mg483 Mg 0.59634 0.99694 0.61453 0.0
Mg484 Mg 0.5607 0.02054 0.48587 0.0
C485 C 0.50574 0.04611 0.51163 0.0
C486 C 0.48218 0.95917 0.47763 0.0
O487 O 0.4602 0.01564 0.8053 0.0
O488 O 0.43484 0.02147 0.70495 0.0
O489 O 0.44202 0.94261 0.7303 0.0
O490 O 0.41762 0.94449 0.62661 0.0
O491 O 0.47501 0.03011 0.53225 0.0
O492 O 0.53012 0.04319 0.54223 0.0
C493 C 0.56974 0.05711 0.76545 0.0
O494 O 0.57003 0.04863 0.69907 0.0
O495 O 0.54341 0.03989 0.80086 0.0
O496 O 0.5859 0.9905 0.43766 0.0
O497 O 0.60219 0.96831 0.52643 0.0
O498 O 0.61276 0.065 0.52943 0.0
C499 C 0.59715 0.97083 0.4596 0.0
O500 O 0.63727 0.04997 0.61562 0.0
O501 O 0.57573 0.97383 0.71512 0.0
C502 C 0.6375 0.07228 0.57507 0.0
O503 O 0.5239 0.96961 0.71135 0.0
O504 O 0.48108 0.96247 0.5461 0.0
O505 O 0.50943 0.97743 0.44628 0.0
C506 C 0.53041 0.56693 0.39412 0.0
C507 C 0.59194 0.52181 0.43636 0.0
C508 C 0.48245 0.41723 0.54884 0.0
Mg509 Mg 0.56787 0.56158 0.53157 0.0
O510 O 0.52368 0.52374 0.53423 0.0
Mg511 Mg 0.50663 0.48752 0.45337 0.0
Mg512 Mg 0.51392 0.49664 0.6194 0.0
O513 O 0.50396 0.46938 0.70551 0.0
Mg514 Mg 0.46136 0.42905 0.70713 0.0
Mg515 Mg 0.51547 0.50784 0.78002 0.0
C516 C 0.55012 0.57609 0.68782 0.0
C517 C 0.58431 0.51747 0.70986 0.0
O518 O 0.51178 0.53351 0.3835 0.0
O519 O 0.55266 0.58155 0.44719 0.0
O520 O 0.56018 0.50022 0.42343 0.0
O521 O 0.60251 0.54756 0.48281 0.0
O522 O 0.57079 0.58622 0.6372 0.0
O523 O 0.52552 0.54455 0.68837 0.0
C524 C 0.44018 0.47213 0.53872 0.0
O525 O 0.45744 0.48097 0.59916 0.0
O526 O 0.45388 0.47376 0.47968 0.0
O527 O 0.50658 0.46779 0.8639 0.0
O528 O 0.47251 0.4146 0.80905 0.0
O529 O 0.45837 0.49408 0.78789 0.0
C530 C 0.49055 0.43457 0.86417 0.0
O531 O 0.42306 0.44334 0.72725 0.0
O532 O 0.46487 0.40544 0.60397 0.0
C533 C 0.42811 0.46999 0.76619 0.0
O534 O 0.50281 0.44985 0.54413 0.0
O535 O 0.56976 0.51084 0.64629 0.0
O536 O 0.56916 0.51806 0.766 0.0
C537 C 0.12026 0.48004 0.39355 0.0
C538 C 0.13513 0.50388 0.3405 0.0
C539 C 0.10069 0.48443 0.4456 0.0
C540 C 0.09533 0.51285 0.44639 0.0
H541 H 0.12309 0.45734 0.39392 0.0
H542 H 0.08799 0.46441 0.48231 0.0
S543 S 0.1299 0.58373 0.32296 0.0
N544 N 0.14368 0.55758 0.29457 0.0
N545 N 0.10812 0.56631 0.39309 0.0
C546 C 0.11153 0.53776 0.39629 0.0
C547 C 0.13106 0.53317 0.34316 0.0
C548 C 0.6926 0.16174 0.52268 0.0
C549 C 0.71507 0.15689 0.47973 0.0
C550 C 0.66997 0.13544 0.56387 0.0
C551 C 0.6697 0.10388 0.56475 0.0
H552 H 0.69049 0.18481 0.51984 0.0
H553 H 0.65052 0.13852 0.58982 0.0
S554 S 0.72703 0.08022 0.47268 0.0
N555 N 0.73817 0.11933 0.44814 0.0
N556 N 0.69667 0.07089 0.52843 0.0
C557 C 0.69492 0.10048 0.53002 0.0
C558 C 0.71741 0.12678 0.48659 0.0
C559 C 0.54446 0.65168 0.32777 0.0
C560 C 0.51623 0.64203 0.27931 0.0
C561 C 0.54924 0.62695 0.36098 0.0
C562 C 0.52567 0.59107 0.34879 0.0
H563 H 0.56302 0.67878 0.34119 0.0
H564 H 0.57157 0.63649 0.39807 0.0
S565 S 0.44795 0.55181 0.22386 0.0
N566 N 0.46496 0.59394 0.21744 0.0
N567 N 0.47331 0.54714 0.28259 0.0
C568 C 0.49744 0.58081 0.29951 0.0
C569 C 0.49276 0.6063 0.26462 0.0
C570 C 0.88288 0.55693 0.45525 0.0
C571 C 0.85665 0.52339 0.42991 0.0
C572 C 0.9086 0.5616 0.50565 0.0
C573 C 0.90961 0.53292 0.5301 0.0
H574 H 0.88614 0.57979 0.43076 0.0
H575 H 0.93033 0.58751 0.51695 0.0
S576 S 0.84158 0.44099 0.50141 0.0
N577 N 0.82802 0.4619 0.45129 0.0
N578 N 0.87885 0.47086 0.54057 0.0
C579 C 0.88124 0.49982 0.51425 0.0
C580 C 0.85416 0.49501 0.46509 0.0
C581 C 0.40497 0.8828 0.37657 0.0
C582 C 0.4006 0.89819 0.31561 0.0
C583 C 0.42981 0.90276 0.43281 0.0
C584 C 0.45104 0.93863 0.42933 0.0
H585 H 0.38945 0.85508 0.38025 0.0
H586 H 0.4335 0.88991 0.47715 0.0
S587 S 0.44863 0.99166 0.28435 0.0
N588 N 0.41887 0.95166 0.25743 0.0
N589 N 0.46472 0.98899 0.36282 0.0
C590 C 0.44578 0.95437 0.37037 0.0
C591 C 0.4208 0.93423 0.31353 0.0
C592 C 0.48863 0.33867 0.48935 0.0
C593 C 0.50132 0.34616 0.42133 0.0
C594 C 0.48105 0.36114 0.52828 0.0
C595 C 0.48589 0.39205 0.50071 0.0
H596 H 0.48482 0.31536 0.51292 0.0
H597 H 0.47238 0.35463 0.58155 0.0
S598 S 0.51431 0.42088 0.32032 0.0
N599 N 0.51554 0.38462 0.32458 0.0
N600 N 0.50142 0.42724 0.39817 0.0
C601 C 0.49756 0.39925 0.43153 0.0
C602 C 0.50529 0.37623 0.39176 0.0
C603 C 0.56528 0.93977 0.92242 0.0
C604 C 0.53374 0.91054 0.93473 0.0
C605 C 0.56901 0.95845 0.86191 0.0
C606 C 0.54118 0.94919 0.81214 0.0
H607 H 0.58777 0.94724 0.95778 0.0
H608 H 0.59419 0.97958 0.85274 0.0
S609 S 0.45211 0.87834 0.82431 0.0
N610 N 0.47336 0.87544 0.89458 0.0
N611 N 0.48039 0.91146 0.7828 0.0
C612 C 0.50894 0.92212 0.8269 0.0
C613 C 0.50518 0.90264 0.88781 0.0
C614 C 0.6424 0.48844 0.78522 0.0
C615 C 0.67478 0.51863 0.78803 0.0
C616 C 0.61362 0.48755 0.75302 0.0
C617 C 0.61604 0.51669 0.7223 0.0
H618 H 0.63856 0.46613 0.81299 0.0
H619 H 0.58882 0.46466 0.75675 0.0
S620 S 0.69506 0.60007 0.70455 0.0
N621 N 0.70812 0.5769 0.74825 0.0
N622 N 0.65319 0.5752 0.6892 0.0
C623 C 0.64832 0.5461 0.71936 0.0
C624 C 0.67792 0.54706 0.75195 0.0
C625 C 0.11942 0.64939 0.86297 0.0
C626 C 0.15169 0.65369 0.84924 0.0
C627 C 0.08943 0.62228 0.82819 0.0
C628 C 0.09057 0.59815 0.77931 0.0
H629 H 0.11736 0.66786 0.89902 0.0
H630 H 0.06537 0.62126 0.83668 0.0
S631 S 0.16819 0.59658 0.72721 0.0
N632 N 0.1828 0.6306 0.78565 0.0
N633 N 0.12616 0.57903 0.72109 0.0
C634 C 0.12235 0.60068 0.76853 0.0
C635 C 0.15303 0.62864 0.80331 0.0
C636 C 0.42833 0.07279 0.92995 0.0
C637 C 0.41874 0.09425 0.89541 0.0
C638 C 0.43278 0.04818 0.89039 0.0
C639 C 0.4275 0.0442 0.81514 0.0
H640 H 0.43541 0.0772 0.98704 0.0
H641 H 0.44262 0.03395 0.9186 0.0
S642 S 0.39485 0.08965 0.70254 0.0
N643 N 0.39916 0.10699 0.78486 0.0
N644 N 0.40621 0.05994 0.70937 0.0
C645 C 0.41394 0.06288 0.78125 0.0
C646 C 0.40995 0.08823 0.82175 0.0
C647 C 0.37465 0.50216 0.86008 0.0
C648 C 0.34833 0.47178 0.88648 0.0
C649 C 0.39931 0.50129 0.81758 0.0
C650 C 0.39848 0.46996 0.79871 0.0
H651 H 0.37681 0.52705 0.87396 0.0
H652 H 0.4197 0.52547 0.80086 0.0
S653 S 0.33536 0.38307 0.85371 0.0
N654 N 0.32351 0.40941 0.89052 0.0
N655 N 0.36883 0.40769 0.80891 0.0
C656 C 0.37155 0.43923 0.8221 0.0
C657 C 0.34678 0.44015 0.86632 0.0
C658 C 0.90293 0.33062 0.84355 0.0
C659 C 0.89607 0.34073 0.91017 0.0
C660 C 0.93209 0.35317 0.80913 0.0
C661 C 0.95565 0.38671 0.84017 0.0
H662 H 0.88508 0.3055 0.8168 0.0
H663 H 0.93538 0.34456 0.75647 0.0
S664 S 0.95152 0.4232 0.0199 0.0
N665 N 0.91671 0.3846 0.01 0.0
N666 N 0.97144 0.4272 0.94569 0.0
C667 C 0.94992 0.39625 0.90899 0.0
C668 C 0.92014 0.37326 0.94377 0.0
C669 C 0.89695 0.53138 0.77004 0.0
C670 C 0.87715 0.50726 0.81895 0.0
C671 C 0.92467 0.53061 0.73984 0.0
C672 C 0.93366 0.50573 0.75738 0.0
H673 H 0.89146 0.55151 0.75626 0.0
H674 H 0.94015 0.55076 0.70583 0.0
S675 S 0.89039 0.43684 0.88276 0.0
N676 N 0.86901 0.45792 0.8838 0.0
N677 N 0.92024 0.45604 0.82597 0.0
C678 C 0.91369 0.48111 0.80513 0.0
C679 C 0.88564 0.4819 0.83596 0.0
C680 C 0.34546 0.88761 0.79494 0.0
C681 C 0.34375 0.85591 0.80783 0.0
C682 C 0.36598 0.90866 0.74331 0.0
C683 C 0.38619 0.89933 0.70321 0.0
H684 H 0.3329 0.89766 0.82854 0.0
H685 H 0.36891 0.93423 0.74043 0.0
S686 S 0.3848 0.81565 0.70265 0.0
N687 N 0.35893 0.81321 0.76514 0.0
N688 N 0.39915 0.85411 0.67075 0.0
C689 C 0.38237 0.86645 0.71023 0.0
C690 C 0.36086 0.84449 0.76206 0.0
C691 C 0.47048 0.36689 0.99781 0.0
C692 C 0.4993 0.38259 0.04713 0.0
C693 C 0.46757 0.38433 0.9402 0.0
C694 C 0.49319 0.41837 0.92978 0.0
H695 H 0.45074 0.34019 0.00143 0.0
H696 H 0.44533 0.37063 0.90258 0.0
S697 S 0.57227 0.47237 0.04817 0.0
N698 N 0.55279 0.43498 0.08526 0.0
N699 N 0.54738 0.46812 0.97687 0.0
C700 C 0.52135 0.43515 0.98096 0.0
C701 C 0.52442 0.41715 0.03953 0.0
C702 C 0.16725 0.50764 0.84893 0.0
C703 C 0.17028 0.47806 0.856 0.0
C704 C 0.14265 0.50699 0.80022 0.0
C705 C 0.12012 0.47678 0.75655 0.0
H706 H 0.18189 0.5305 0.88547 0.0
H707 H 0.13935 0.52943 0.80138 0.0
S708 S 0.12329 0.39522 0.74288 0.0
N709 N 0.15323 0.41993 0.80639 0.0
N710 N 0.10652 0.41853 0.71513 0.0
C711 C 0.12563 0.44843 0.7571 0.0
C712 C 0.15074 0.44907 0.80703 0.0
C713 C 0.6631 0.125 0.81443 0.0
C714 C 0.66143 0.14188 0.87817 0.0
C715 C 0.63326 0.09833 0.77713 0.0
C716 C 0.60075 0.08704 0.80301 0.0
H717 H 0.68766 0.1323 0.79361 0.0
H718 H 0.63584 0.08582 0.72886 0.0
S719 S 0.58294 0.12318 0.96818 0.0
N720 N 0.62489 0.14585 0.96548 0.0
N721 N 0.56895 0.09563 0.89632 0.0
C722 C 0.59887 0.10407 0.86657 0.0
C723 C 0.62915 0.13148 0.90385 0.0
C724 C 0.55441 0.66103 0.73784 0.0
C725 C 0.53067 0.65187 0.7904 0.0
C726 C 0.56313 0.63716 0.70936 0.0
C727 C 0.54844 0.60332 0.73271 0.0
H728 H 0.56538 0.68637 0.71689 0.0
H729 H 0.57999 0.64481 0.66583 0.0
S730 S 0.49081 0.56991 0.88075 0.0
N731 N 0.49655 0.60907 0.87241 0.0
N732 N 0.5135 0.56442 0.81999 0.0
C733 C 0.527 0.59516 0.78971 0.0
C734 C 0.51784 0.61931 0.81807 0.0
C735 C 0.49 0.09956 0.38111 0.0
C736 C 0.52152 0.13073 0.38481 0.0
C737 C 0.48595 0.07131 0.41786 0.0
C738 C 0.51331 0.07277 0.45947 0.0
H739 H 0.46788 0.09731 0.35127 0.0
H740 H 0.46062 0.04867 0.41621 0.0
S741 S 0.60237 0.147 0.479 0.0
N742 N 0.58145 0.16047 0.4277 0.0
N743 N 0.57409 0.10705 0.49627 0.0
C744 C 0.54572 0.10286 0.45908 0.0
C745 C 0.54976 0.13189 0.42186 0.0
C746 C 0.35772 0.47264 0.54219 0.0
C747 C 0.33862 0.44828 0.48408 0.0
C748 C 0.38977 0.47792 0.56702 0.0
C749 C 0.40325 0.45887 0.5342 0.0
H750 H 0.34939 0.48997 0.56371 0.0
H751 H 0.40535 0.49921 0.60655 0.0
S752 S 0.36043 0.3868 0.39271 0.0
N753 N 0.33344 0.40114 0.40337 0.0
N754 N 0.39295 0.41048 0.4518 0.0
C755 C 0.38243 0.43131 0.48357 0.0
C756 C 0.35013 0.42605 0.45802 0.0
C757 C 0.93236 0.42599 0.32109 0.0
C758 C 0.92774 0.39389 0.29369 0.0
C759 C 0.95111 0.44202 0.38646 0.0
C760 C 0.96671 0.42704 0.42659 0.0
H761 H 0.91982 0.43797 0.29377 0.0
H762 H 0.95187 0.46547 0.40699 0.0
S763 S 0.96704 0.34588 0.37355 0.0
N764 N 0.94315 0.34927 0.30929 0.0
N765 N 0.9799 0.3804 0.42944 0.0
C766 C 0.96488 0.39654 0.39672 0.0
C767 C 0.94521 0.37983 0.33086 0.0
C768 C 0.57048 0.91054 0.29267 0.0
C769 C 0.57543 0.88373 0.31524 0.0
C770 C 0.58113 0.94063 0.33716 0.0
C771 C 0.59652 0.94468 0.4066 0.0
H772 H 0.55695 0.90756 0.24137 0.0
H773 H 0.57492 0.95962 0.31861 0.0
S774 S 0.62015 0.88374 0.48497 0.0
N775 N 0.60055 0.86446 0.40606 0.0
N776 N 0.62046 0.92096 0.49115 0.0
C777 C 0.6043 0.91916 0.42697 0.0
C778 C 0.59366 0.8886 0.38099 0.0
C779 C 0.64497 0.54835 0.27606 0.0
C780 C 0.64597 0.5183 0.25261 0.0
C781 C 0.63019 0.55019 0.33955 0.0
C782 C 0.61471 0.52177 0.38174 0.0
H783 H 0.65498 0.57066 0.2445 0.0
H784 H 0.62912 0.57348 0.35346 0.0
S785 S 0.60925 0.43674 0.3473 0.0
N786 N 0.6306 0.45948 0.2811 0.0
N787 N 0.60036 0.46254 0.3965 0.0
C788 C 0.61495 0.49147 0.35954 0.0
C789 C 0.63102 0.48979 0.29604 0.0
C790 C 0.09775 0.64704 0.29903 0.0
C791 C 0.11441 0.68217 0.32414 0.0
C792 C 0.06949 0.62224 0.33208 0.0
C793 C 0.05718 0.63175 0.39195 0.0
H794 H 0.10766 0.63846 0.25563 0.0
H795 H 0.0591 0.59522 0.31402 0.0
S796 S 0.08812 0.72151 0.46892 0.0
N797 N 0.11398 0.72608 0.40501 0.0
N798 N 0.06054 0.67953 0.46739 0.0
C799 C 0.07158 0.66732 0.41274 0.0
C800 C 0.10035 0.69256 0.37883 0.0
loop_
_geom_bond_atom_site_label_1
_geom_bond_atom_site_label_2
_geom_bond_distance
_geom_bond_site_symmetry_2
_ccdc_geom_bond_type
H0 O26 0.856 . S
H1 O29 0.854 . S
H2 C37 0.930 . S
H3 C38 0.930 . S
H4 C40 0.930 . S
H5 C41 0.930 . S
H6 C43 0.931 . S
H7 C44 0.930 . S
H8 C46 0.930 . S
H9 C47 0.929 . S
H10 C49 0.930 . S
H11 C50 0.931 . S
H12 C52 0.930 . S
H13 C53 0.929 . S
H14 C55 0.931 . S
H15 C56 0.930 . S
H16 C58 0.930 . S
H17 C59 0.932 . S
H18 C61 0.930 . S
H19 C62 0.929 . S
H20 C64 0.931 . S
H21 C65 0.930 . S
H22 C67 0.929 . S
H23 C68 0.931 . S
H24 C70 0.930 . S
H25 C71 0.929 . S
O26 H0 0.856 . S
O26 C72 1.300 . S
O27 C72 1.209 . S
O28 C73 1.199 . S
O29 H1 0.854 . S
O29 C73 1.297 . S
C30 C31 1.404 . S
C30 C35 1.397 . S
C30 C36 1.492 . S
C31 C30 1.404 . S
C31 C32 1.396 . S
C31 C42 1.492 . S
C32 C31 1.396 . S
C32 C33 1.397 . S
C32 C48 1.509 . S
C33 C32 1.397 . S
C33 C34 1.412 . S
C33 C54 1.485 . S
C34 C33 1.412 . S
C34 C35 1.388 . S
C34 C60 1.490 . S
C35 C30 1.397 . S
C35 C34 1.388 . S
C35 C66 1.519 . S
C36 C30 1.492 . S
C36 C37 1.363 . S
C36 C41 1.390 . S
C37 H2 0.930 . S
C37 C36 1.363 . S
C37 C38 1.372 . S
C38 H3 0.930 . S
C38 C37 1.372 . S
C38 C39 1.383 . S
C39 C38 1.383 . S
C39 C40 1.395 . S
C40 H4 0.930 . S
C40 C39 1.395 . S
C40 C41 1.362 . S
C41 H5 0.930 . S
C41 C36 1.390 . S
C41 C40 1.362 . S
C42 C31 1.492 . S
C42 C43 1.377 . S
C42 C47 1.397 . S
C43 H6 0.931 . S
C43 C42 1.377 . S
C43 C44 1.376 . S
C44 H7 0.930 . S
C44 C43 1.376 . S
C44 C45 1.376 . S
C45 C44 1.376 . S
C45 C46 1.378 . S
C45 C72 1.486 . S
C46 H8 0.930 . S
C46 C45 1.378 . S
C46 C47 1.376 . S
C47 H9 0.929 . S
C47 C42 1.397 . S
C47 C46 1.376 . S
C48 C32 1.509 . S
C48 C49 1.391 . S
C48 C53 1.386 . S
C49 H10 0.930 . S
C49 C48 1.391 . S
C49 C50 1.375 . S
C50 H11 0.931 . S
C50 C49 1.375 . S
C50 C51 1.375 . S
C51 C50 1.375 . S
C51 C52 1.361 . S
C52 H12 0.930 . S
C52 C51 1.361 . S
C52 C53 1.399 . S
C53 H13 0.929 . S
C53 C48 1.386 . S
C53 C52 1.399 . S
C54 C33 1.485 . S
C54 C55 1.394 . S
C54 C59 1.360 . S
C55 H14 0.931 . S
C55 C54 1.394 . S
C55 C56 1.372 . S
C56 H15 0.930 . S
C56 C55 1.372 . S
C56 C57 1.397 . S
C57 C56 1.397 . S
C57 C58 1.390 . S
C57 C73 1.476 . S
C58 H16 0.930 . S
C58 C57 1.390 . S
C58 C59 1.366 . S
C59 H17 0.932 . S
C59 C54 1.360 . S
C59 C58 1.366 . S
C60 C34 1.490 . S
C60 C61 1.380 . S
C60 C65 1.386 . S
C61 H18 0.930 . S
C61 C60 1.380 . S
C61 C62 1.381 1_554 S
C62 H19 0.929 . S
C62 C61 1.381 1_556 S
C62 C63 1.371 . S
C63 C62 1.371 . S
C63 C64 1.380 . S
C64 H20 0.931 . S
C64 C63 1.380 . S
C64 C65 1.387 1_556 S
C65 H21 0.930 . S
C65 C60 1.386 . S
C65 C64 1.387 1_554 S
C66 C35 1.519 . S
C66 C67 1.377 . S
C66 C71 1.361 . S
C67 H22 0.929 . S
C67 C66 1.377 . S
C67 C68 1.386 . S
C68 H23 0.931 . S
C68 C67 1.386 . S
C68 C69 1.363 . S
C69 C68 1.363 . S
C69 C70 1.385 . S
C70 H24 0.930 . S
C70 C69 1.385 . S
C70 C71 1.396 . S
C71 H25 0.929 . S
C71 C66 1.361 . S
C71 C70 1.396 . S
C72 O26 1.300 . S
C72 O27 1.209 . S
C72 C45 1.486 . S
C73 O28 1.199 . S
C73 O29 1.297 . S
C73 C57 1.476 . S
H74 O100 0.856 . S
H75 O103 0.854 1_565 S
H76 C111 0.930 . S
H77 C112 0.930 . S
H78 C114 0.930 . S
H79 C115 0.930 . S
H80 C117 0.931 . S
H81 C118 0.930 . S
H82 C120 0.930 . S
H83 C121 0.929 . S
H84 C123 0.930 . S
H85 C124 0.931 . S
H86 C126 0.930 . S
H87 C127 0.929 . S
H88 C129 0.931 . S
H89 C130 0.930 . S
H90 C132 0.930 . S
H91 C133 0.932 . S
H92 C135 0.930 1_554 S
H93 C136 0.929 . S
H94 C138 0.931 . S
H95 C139 0.930 1_554 S
H96 C141 0.929 . S
H97 C142 0.931 . S
H98 C144 0.930 . S
H99 C145 0.929 . S
O100 H74 0.856 . S
O100 C146 1.300 . S
O101 C146 1.209 . S
O102 C147 1.199 . S
O103 H75 0.854 1_545 S
O103 C147 1.297 . S
C104 C105 1.404 . S
C104 C109 1.397 . S
C104 C110 1.492 . S
C105 C104 1.404 . S
C105 C106 1.396 . S
C105 C116 1.492 . S
C106 C105 1.396 . S
C106 C107 1.397 . S
C106 C122 1.509 . S
C107 C106 1.397 . S
C107 C108 1.412 . S
C107 C128 1.485 . S
C108 C107 1.412 . S
C108 C109 1.388 . S
C108 C134 1.490 . S
C109 C104 1.397 . S
C109 C108 1.388 . S
C109 C140 1.519 . S
C110 C104 1.492 . S
C110 C111 1.363 . S
C110 C115 1.390 . S
C111 H76 0.930 . S
C111 C110 1.363 . S
C111 C112 1.372 . S
C112 H77 0.930 . S
C112 C111 1.372 . S
C112 C113 1.383 . S
C113 C112 1.383 . S
C113 C114 1.395 . S
C114 H78 0.930 . S
C114 C113 1.395 . S
C114 C115 1.362 . S
C115 H79 0.930 . S
C115 C110 1.390 . S
C115 C114 1.362 . S
C116 C105 1.492 . S
C116 C117 1.377 . S
C116 C121 1.397 . S
C117 H80 0.931 . S
C117 C116 1.377 . S
C117 C118 1.376 . S
C118 H81 0.930 . S
C118 C117 1.376 . S
C118 C119 1.376 . S
C119 C118 1.376 . S
C119 C120 1.378 . S
C119 C146 1.486 . S
C120 H82 0.930 . S
C120 C119 1.378 . S
C120 C121 1.376 . S
C121 H83 0.929 . S
C121 C116 1.397 . S
C121 C120 1.376 . S
C122 C106 1.509 . S
C122 C123 1.391 . S
C122 C127 1.386 . S
C123 H84 0.930 . S
C123 C122 1.391 . S
C123 C124 1.375 . S
C124 H85 0.931 . S
C124 C123 1.375 . S
C124 C125 1.375 . S
C125 C124 1.375 . S
C125 C126 1.361 . S
C126 H86 0.930 . S
C126 C125 1.361 . S
C126 C127 1.399 . S
C127 H87 0.929 . S
C127 C122 1.386 . S
C127 C126 1.399 . S
C128 C107 1.485 . S
C128 C129 1.394 . S
C128 C133 1.360 . S
C129 H88 0.931 . S
C129 C128 1.394 . S
C129 C130 1.372 . S
C130 H89 0.930 . S
C130 C129 1.372 . S
C130 C131 1.397 . S
C131 C130 1.397 . S
C131 C132 1.390 . S
C131 C147 1.476 . S
C132 H90 0.930 . S
C132 C131 1.390 . S
C132 C133 1.366 . S
C133 H91 0.932 . S
C133 C128 1.360 . S
C133 C132 1.366 . S
C134 C108 1.490 . S
C134 C135 1.380 1_554 S
C134 C139 1.386 1_554 S
C135 H92 0.930 1_556 S
C135 C134 1.380 1_556 S
C135 C136 1.381 . S
C136 H93 0.929 . S
C136 C135 1.381 . S
C136 C137 1.371 . S
C137 C136 1.371 . S
C137 C138 1.380 . S
C138 H94 0.931 . S
C138 C137 1.380 . S
C138 C139 1.387 . S
C139 H95 0.930 1_556 S
C139 C134 1.386 1_556 S
C139 C138 1.387 . S
C140 C109 1.519 . S
C140 C141 1.377 . S
C140 C145 1.361 . S
C141 H96 0.929 . S
C141 C140 1.377 . S
C141 C142 1.386 . S
C142 H97 0.931 . S
C142 C141 1.386 . S
C142 C143 1.363 1_554 S
C143 C142 1.363 1_556 S
C143 C144 1.385 . S
C144 H98 0.930 . S
C144 C143 1.385 . S
C144 C145 1.396 1_556 S
C145 H99 0.929 . S
C145 C140 1.361 . S
C145 C144 1.396 1_554 S
C146 O100 1.300 . S
C146 O101 1.209 . S
C146 C119 1.486 . S
C147 O102 1.199 . S
C147 O103 1.297 . S
C147 C131 1.476 . S
H148 O174 0.856 . S
H149 O177 0.854 . S
H150 C185 0.930 . S
H151 C186 0.930 . S
H152 C188 0.930 . S
H153 C189 0.930 . S
H154 C191 0.931 . S
H155 C192 0.930 . S
H156 C194 0.930 . S
H157 C195 0.929 . S
H158 C197 0.930 . S
H159 C198 0.931 . S
H160 C200 0.930 . S
H161 C201 0.929 . S
H162 C203 0.931 . S
H163 C204 0.930 . S
H164 C206 0.930 1_556 S
H165 C207 0.932 . S
H166 C209 0.930 . S
H167 C210 0.929 . S
H168 C212 0.931 . S
H169 C213 0.930 . S
H170 C215 0.929 . S
H171 C216 0.931 . S
H172 C218 0.930 . S
H173 C219 0.929 . S
O174 H148 0.856 . S
O174 C220 1.300 . S
O175 C220 1.209 . S
O176 C221 1.199 . S
O177 H149 0.854 . S
O177 C221 1.297 . S
C178 C179 1.404 . S
C178 C183 1.397 1_556 S
C178 C184 1.492 . S
C179 C178 1.404 . S
C179 C180 1.396 . S
C179 C190 1.492 . S
C180 C179 1.396 . S
C180 C181 1.397 . S
C180 C196 1.509 . S
C181 C180 1.397 . S
C181 C182 1.412 1_556 S
C181 C202 1.485 1_556 S
C182 C181 1.412 1_554 S
C182 C183 1.388 . S
C182 C208 1.490 . S
C183 C178 1.397 1_554 S
C183 C182 1.388 . S
C183 C214 1.519 . S
C184 C178 1.492 . S
C184 C185 1.363 . S
C184 C189 1.390 . S
C185 H150 0.930 . S
C185 C184 1.363 . S
C185 C186 1.372 . S
C186 H151 0.930 . S
C186 C185 1.372 . S
C186 C187 1.383 . S
C187 C186 1.383 . S
C187 C188 1.395 . S
C188 H152 0.930 . S
C188 C187 1.395 . S
C188 C189 1.362 . S
C189 H153 0.930 . S
C189 C184 1.390 . S
C189 C188 1.362 . S
C190 C179 1.492 . S
C190 C191 1.377 . S
C190 C195 1.397 . S
C191 H154 0.931 . S
C191 C190 1.377 . S
C191 C192 1.376 . S
C192 H155 0.930 . S
C192 C191 1.376 . S
C192 C193 1.376 . S
C193 C192 1.376 . S
C193 C194 1.378 . S
C193 C220 1.486 . S
C194 H156 0.930 . S
C194 C193 1.378 . S
C194 C195 1.376 . S
C195 H157 0.929 . S
C195 C190 1.397 . S
C195 C194 1.376 . S
C196 C180 1.509 . S
C196 C197 1.391 . S
C196 C201 1.386 . S
C197 H158 0.930 . S
C197 C196 1.391 . S
C197 C198 1.375 . S
C198 H159 0.931 . S
C198 C197 1.375 . S
C198 C199 1.375 . S
C199 C198 1.375 . S
C199 C200 1.361 . S
C200 H160 0.930 . S
C200 C199 1.361 . S
C200 C201 1.399 . S
C201 H161 0.929 . S
C201 C196 1.386 . S
C201 C200 1.399 . S
C202 C181 1.485 1_554 S
C202 C203 1.394 . S
C202 C207 1.360 1_554 S
C203 H162 0.931 . S
C203 C202 1.394 . S
C203 C204 1.372 . S
C204 H163 0.930 . S
C204 C203 1.372 . S
C204 C205 1.397 . S
C205 C204 1.397 . S
C205 C206 1.390 . S
C205 C221 1.476 . S
C206 H164 0.930 1_554 S
C206 C205 1.390 . S
C206 C207 1.366 1_554 S
C207 H165 0.932 . S
C207 C202 1.360 1_556 S
C207 C206 1.366 1_556 S
C208 C182 1.490 . S
C208 C209 1.380 . S
C208 C213 1.386 . S
C209 H166 0.930 . S
C209 C208 1.380 . S
C209 C210 1.381 . S
C210 H167 0.929 . S
C210 C209 1.381 . S
C210 C211 1.371 . S
C211 C210 1.371 . S
C211 C212 1.380 . S
C212 H168 0.931 . S
C212 C211 1.380 . S
C212 C213 1.387 . S
C213 H169 0.930 . S
C213 C208 1.386 . S
C213 C212 1.387 . S
C214 C183 1.519 . S
C214 C215 1.377 . S
C214 C219 1.361 . S
C215 H170 0.929 . S
C215 C214 1.377 . S
C215 C216 1.386 . S
C216 H171 0.931 . S
C216 C215 1.386 . S
C216 C217 1.363 . S
C217 C216 1.363 . S
C217 C218 1.385 . S
C218 H172 0.930 . S
C218 C217 1.385 . S
C218 C219 1.396 . S
C219 H173 0.929 . S
C219 C214 1.361 . S
C219 C218 1.396 . S
C220 O174 1.300 . S
C220 O175 1.209 . S
C220 C193 1.486 . S
C221 O176 1.199 . S
C221 O177 1.297 . S
C221 C205 1.476 . S
H222 O248 0.856 . S
H223 O251 0.854 1_455 S
H224 C259 0.930 . S
H225 C260 0.930 . S
H226 C262 0.930 . S
H227 C263 0.930 . S
H228 C265 0.931 . S
H229 C266 0.930 . S
H230 C268 0.930 . S
H231 C269 0.929 . S
H232 C271 0.930 . S
H233 C272 0.931 . S
H234 C274 0.930 . S
H235 C275 0.929 . S
H236 C277 0.931 . S
H237 C278 0.930 1_556 S
H238 C280 0.930 . S
H239 C281 0.932 . S
H240 C283 0.930 . S
H241 C284 0.929 . S
H242 C286 0.931 . S
H243 C287 0.930 . S
H244 C289 0.926 1_554 S
H245 C290 0.931 . S
H246 C292 0.930 . S
H247 C293 0.929 . S
O248 H222 0.856 . S
O248 C294 1.300 . S
O249 C294 1.209 . S
O250 C295 1.199 1_556 S
O251 H223 0.854 1_655 S
O251 C295 1.297 . S
C252 C253 1.404 . S
C252 C257 1.397 . S
C252 C258 1.492 . S
C253 C252 1.404 . S
C253 C254 1.396 . S
C253 C264 1.492 . S
C254 C253 1.396 . S
C254 C255 1.397 . S
C254 C270 1.509 . S
C255 C254 1.397 . S
C255 C256 1.412 . S
C255 C276 1.485 . S
C256 C255 1.412 . S
C256 C257 1.388 . S
C256 C282 1.490 1_554 S
C257 C252 1.397 . S
C257 C256 1.388 . S
C257 C288 1.519 1_554 S
C258 C252 1.492 . S
C258 C259 1.363 . S
C258 C263 1.390 . S
C259 H224 0.930 . S
C259 C258 1.363 . S
C259 C260 1.372 . S
C260 H225 0.930 . S
C260 C259 1.372 . S
C260 C261 1.383 . S
C261 C260 1.383 . S
C261 C262 1.395 . S
C262 H226 0.930 . S
C262 C261 1.395 . S
C262 C263 1.362 . S
C263 H227 0.930 . S
C263 C258 1.390 . S
C263 C262 1.362 . S
C264 C253 1.492 . S
C264 C265 1.377 . S
C264 C269 1.397 . S
C265 H228 0.931 . S
C265 C264 1.377 . S
C265 C266 1.376 . S
C266 H229 0.930 . S
C266 C265 1.376 . S
C266 C267 1.376 . S
C267 C266 1.376 . S
C267 C268 1.378 . S
C267 C294 1.486 . S
C268 H230 0.930 . S
C268 C267 1.378 . S
C268 C269 1.376 . S
C269 H231 0.929 . S
C269 C264 1.397 . S
C269 C268 1.376 . S
C270 C254 1.509 . S
C270 C271 1.391 . S
C270 C275 1.386 . S
C271 H232 0.930 . S
C271 C270 1.391 . S
C271 C272 1.375 . S
C272 H233 0.931 . S
C272 C271 1.375 . S
C272 C273 1.375 . S
C273 C272 1.375 . S
C273 C274 1.361 . S
C274 H234 0.930 . S
C274 C273 1.361 . S
C274 C275 1.399 . S
C275 H235 0.929 . S
C275 C270 1.386 . S
C275 C274 1.399 . S
C276 C255 1.485 . S
C276 C277 1.394 . S
C276 C281 1.360 . S
C277 H236 0.931 . S
C277 C276 1.394 . S
C277 C278 1.372 . S
C278 H237 0.930 1_554 S
C278 C277 1.372 . S
C278 C279 1.397 . S
C279 C278 1.397 . S
C279 C280 1.390 . S
C279 C295 1.476 . S
C280 H238 0.930 . S
C280 C279 1.390 . S
C280 C281 1.366 . S
C281 H239 0.932 . S
C281 C276 1.360 . S
C281 C280 1.366 . S
C282 C256 1.490 1_556 S
C282 C283 1.380 . S
C282 C287 1.386 . S
C283 H240 0.930 . S
C283 C282 1.380 . S
C283 C284 1.381 . S
C284 H241 0.929 . S
C284 C283 1.381 . S
C284 C285 1.371 . S
C285 C284 1.371 . S
C285 C286 1.380 . S
C286 H242 0.931 . S
C286 C285 1.380 . S
C286 C287 1.387 . S
C287 H243 0.930 . S
C287 C282 1.386 . S
C287 C286 1.387 . S
C288 C257 1.519 1_556 S
C288 C289 1.377 . S
C288 C293 1.361 . S
C289 H244 0.926 1_556 S
C289 C288 1.377 . S
C289 C290 1.386 . S
C290 H245 0.931 . S
C290 C289 1.386 . S
C290 C291 1.363 . S
C291 C290 1.363 . S
C291 C292 1.385 . S
C292 H246 0.930 . S
C292 C291 1.385 . S
C292 C293 1.396 . S
C293 H247 0.929 . S
C293 C288 1.361 . S
C293 C292 1.396 . S
C294 O248 1.300 . S
C294 O249 1.209 . S
C294 C267 1.486 . S
C295 O250 1.199 1_554 S
C295 O251 1.297 . S
C295 C279 1.476 . S
H296 O322 0.856 . S
H297 O325 0.854 . S
H298 C333 0.930 . S
H299 C334 0.930 . S
H300 C336 0.930 . S
H301 C337 0.930 . S
H302 C339 0.931 . S
H303 C340 0.930 . S
H304 C342 0.930 . S
H305 C343 0.929 . S
H306 C345 0.930 . S
H307 C346 0.931 . S
H308 C348 0.930 . S
H309 C349 0.929 . S
H310 C351 0.931 . S
H311 C352 0.930 1_556 S
H312 C354 0.930 . S
H313 C355 0.932 . S
H314 C357 0.930 . S
H315 C358 0.929 . S
H316 C360 0.931 . S
H317 C361 0.930 . S
H318 C363 0.929 . S
H319 C364 0.931 . S
H320 C366 0.930 . S
H321 C367 0.929 . S
O322 H296 0.856 . S
O322 C368 1.300 . S
O323 C368 1.209 . S
O324 C369 1.199 1_556 S
O325 H297 0.854 . S
O325 C369 1.297 . S
C326 C327 1.404 . S
C326 C331 1.397 . S
C326 C332 1.492 . S
C327 C326 1.404 . S
C327 C328 1.396 . S
C327 C338 1.492 . S
C328 C327 1.396 . S
C328 C329 1.397 . S
C328 C344 1.509 . S
C329 C328 1.397 . S
C329 C330 1.412 . S
C329 C350 1.485 . S
C330 C329 1.412 . S
C330 C331 1.388 . S
C330 C356 1.490 1_554 S
C331 C326 1.397 . S
C331 C330 1.388 . S
C331 C362 1.519 . S
C332 C326 1.492 . S
C332 C333 1.363 . S
C332 C337 1.390 . S
C333 H298 0.930 . S
C333 C332 1.363 . S
C333 C334 1.372 . S
C334 H299 0.930 . S
C334 C333 1.372 . S
C334 C335 1.383 . S
C335 C334 1.383 . S
C335 C336 1.395 . S
C336 H300 0.930 . S
C336 C335 1.395 . S
C336 C337 1.362 . S
C337 H301 0.930 . S
C337 C332 1.390 . S
C337 C336 1.362 . S
C338 C327 1.492 . S
C338 C339 1.377 . S
C338 C343 1.397 . S
C339 H302 0.931 . S
C339 C338 1.377 . S
C339 C340 1.376 . S
C340 H303 0.930 . S
C340 C339 1.376 . S
C340 C341 1.376 . S
C341 C340 1.376 . S
C341 C342 1.378 . S
C341 C368 1.486 . S
C342 H304 0.930 . S
C342 C341 1.378 . S
C342 C343 1.376 . S
C343 H305 0.929 . S
C343 C338 1.397 . S
C343 C342 1.376 . S
C344 C328 1.509 . S
C344 C345 1.391 . S
C344 C349 1.386 . S
C345 H306 0.930 . S
C345 C344 1.391 . S
C345 C346 1.375 . S
C346 H307 0.931 . S
C346 C345 1.375 . S
C346 C347 1.375 . S
C347 C346 1.375 . S
C347 C348 1.361 . S
C348 H308 0.930 . S
C348 C347 1.361 . S
C348 C349 1.399 . S
C349 H309 0.929 . S
C349 C344 1.386 . S
C349 C348 1.399 . S
C350 C329 1.485 . S
C350 C351 1.394 . S
C350 C355 1.360 . S
C351 H310 0.931 . S
C351 C350 1.394 . S
C351 C352 1.372 . S
C352 H311 0.930 1_554 S
C352 C351 1.372 . S
C352 C353 1.397 . S
C353 C352 1.397 . S
C353 C354 1.390 . S
C353 C369 1.476 . S
C354 H312 0.930 . S
C354 C353 1.390 . S
C354 C355 1.366 . S
C355 H313 0.932 . S
C355 C350 1.360 . S
C355 C354 1.366 . S
C356 C330 1.490 1_556 S
C356 C357 1.380 . S
C356 C361 1.386 . S
C357 H314 0.930 . S
C357 C356 1.380 . S
C357 C358 1.381 . S
C358 H315 0.929 . S
C358 C357 1.381 . S
C358 C359 1.371 . S
C359 C358 1.371 . S
C359 C360 1.380 . S
C360 H316 0.931 . S
C360 C359 1.380 . S
C360 C361 1.387 . S
C361 H317 0.930 . S
C361 C356 1.386 . S
C361 C360 1.387 . S
C362 C331 1.519 . S
C362 C363 1.377 . S
C362 C367 1.361 1_554 S
C363 H318 0.929 . S
C363 C362 1.377 . S
C363 C364 1.386 1_554 S
C364 H319 0.931 . S
C364 C363 1.386 1_556 S
C364 C365 1.363 . S
C365 C364 1.363 . S
C365 C366 1.385 . S
C366 H320 0.930 . S
C366 C365 1.385 . S
C366 C367 1.396 . S
C367 H321 0.929 . S
C367 C362 1.361 1_556 S
C367 C366 1.396 . S
C368 O322 1.300 . S
C368 O323 1.209 . S
C368 C341 1.486 . S
C369 O324 1.199 1_554 S
C369 O325 1.297 . S
C369 C353 1.476 . S
H370 O396 0.856 . S
H371 O399 0.854 . S
H372 C407 0.930 . S
H373 C408 0.930 . S
H374 C410 0.930 . S
H375 C411 0.930 . S
H376 C413 0.931 . S
H377 C414 0.930 . S
H378 C416 0.930 . S
H379 C417 0.929 1_554 S
H380 C419 0.930 . S
H381 C420 0.931 . S
H382 C422 0.930 . S
H383 C423 0.929 . S
H384 C425 0.931 . S
H385 C426 0.930 . S
H386 C428 0.930 . S
H387 C429 0.932 . S
H388 C431 0.930 . S
H389 C432 0.929 . S
H390 C434 0.931 . S
H391 C435 0.930 . S
H392 C437 0.929 . S
H393 C438 0.931 . S
H394 C440 0.930 . S
H395 C441 0.929 . S
O396 H370 0.856 . S
O396 C442 1.300 . S
O397 C442 1.209 . S
O398 C443 1.199 . S
O399 H371 0.854 . S
O399 C443 1.297 . S
C400 C401 1.404 . S
C400 C405 1.397 . S
C400 C406 1.492 . S
C401 C400 1.404 . S
C401 C402 1.396 . S
C401 C412 1.492 . S
C402 C401 1.396 . S
C402 C403 1.397 . S
C402 C418 1.509 . S
C403 C402 1.397 . S
C403 C404 1.412 . S
C403 C424 1.485 . S
C404 C403 1.412 . S
C404 C405 1.388 . S
C404 C430 1.490 . S
C405 C400 1.397 . S
C405 C404 1.388 . S
C405 C436 1.519 . S
C406 C400 1.492 . S
C406 C407 1.363 . S
C406 C411 1.390 . S
C407 H372 0.930 . S
C407 C406 1.363 . S
C407 C408 1.372 . S
C408 H373 0.930 . S
C408 C407 1.372 . S
C408 C409 1.383 . S
C409 C408 1.383 . S
C409 C410 1.395 . S
C410 H374 0.930 . S
C410 C409 1.395 . S
C410 C411 1.362 . S
C411 H375 0.930 . S
C411 C406 1.390 . S
C411 C410 1.362 . S
C412 C401 1.492 . S
C412 C413 1.377 1_554 S
C412 C417 1.397 1_554 S
C413 H376 0.931 . S
C413 C412 1.377 1_556 S
C413 C414 1.376 . S
C414 H377 0.930 . S
C414 C413 1.376 . S
C414 C415 1.376 . S
C415 C414 1.376 . S
C415 C416 1.378 . S
C415 C442 1.486 . S
C416 H378 0.930 . S
C416 C415 1.378 . S
C416 C417 1.376 . S
C417 H379 0.929 1_556 S
C417 C412 1.397 1_556 S
C417 C416 1.376 . S
C418 C402 1.509 . S
C418 C419 1.391 . S
C418 C423 1.386 . S
C419 H380 0.930 . S
C419 C418 1.391 . S
C419 C420 1.375 1_554 S
C420 H381 0.931 . S
C420 C419 1.375 1_556 S
C420 C421 1.375 . S
C421 C420 1.375 . S
C421 C422 1.361 . S
C422 H382 0.930 . S
C422 C421 1.361 . S
C422 C423 1.399 1_556 S
C423 H383 0.929 . S
C423 C418 1.386 . S
C423 C422 1.399 1_554 S
C424 C403 1.485 . S
C424 C425 1.394 . S
C424 C429 1.360 . S
C425 H384 0.931 . S
C425 C424 1.394 . S
C425 C426 1.372 . S
C426 H385 0.930 . S
C426 C425 1.372 . S
C426 C427 1.397 . S
C427 C426 1.397 . S
C427 C428 1.390 . S
C427 C443 1.476 . S
C428 H386 0.930 . S
C428 C427 1.390 . S
C428 C429 1.366 . S
C429 H387 0.932 . S
C429 C424 1.360 . S
C429 C428 1.366 . S
C430 C404 1.490 . S
C430 C431 1.380 . S
C430 C435 1.386 . S
C431 H388 0.930 . S
C431 C430 1.380 . S
C431 C432 1.381 . S
C432 H389 0.929 . S
C432 C431 1.381 . S
C432 C433 1.371 . S
C433 C432 1.371 . S
C433 C434 1.380 . S
C434 H390 0.931 . S
C434 C433 1.380 . S
C434 C435 1.387 . S
C435 H391 0.930 . S
C435 C430 1.386 . S
C435 C434 1.387 . S
C436 C405 1.519 . S
C436 C437 1.377 . S
C436 C441 1.361 . S
C437 H392 0.929 . S
C437 C436 1.377 . S
C437 C438 1.386 . S
C438 H393 0.931 . S
C438 C437 1.386 . S
C438 C439 1.363 . S
C439 C438 1.363 . S
C439 C440 1.385 . S
C440 H394 0.930 . S
C440 C439 1.385 . S
C440 C441 1.396 . S
C441 H395 0.929 . S
C441 C436 1.361 . S
C441 C440 1.396 . S
C442 O396 1.300 . S
C442 O397 1.209 . S
C442 C415 1.486 . S
C443 O398 1.199 . S
C443 O399 1.297 . S
C443 C427 1.476 . S
C444 O456 1.241 . S
C444 O457 1.280 . S
C445 O458 1.277 . S
C445 O459 1.245 . S
C446 O470 1.247 . S
C446 O472 1.289 . S
Mg447 O448 1.920 . S
Mg447 O457 1.978 1_455 S
Mg447 O459 1.998 . S
Mg447 O460 2.056 1_455 S
O448 Mg447 1.920 . S
O448 Mg449 1.986 . S
O448 Mg450 1.917 . S
Mg449 O448 1.986 . S
Mg449 O456 2.042 1_455 S
Mg449 O458 2.041 . S
Mg449 O464 2.038 1_455 S
Mg449 O472 2.238 . S
Mg450 O448 1.917 . S
Mg450 O451 1.917 . S
Mg450 O461 2.106 1_455 S
Mg450 O463 2.079 1_455 S
Mg450 O472 2.106 . S
Mg450 O473 2.079 . S
O451 Mg450 1.917 . S
O451 Mg452 1.926 . S
O451 Mg453 1.986 . S
Mg452 O451 1.926 . S
Mg452 O466 1.984 . S
Mg452 O469 1.988 1_455 S
Mg452 O470 2.061 . S
Mg453 O451 1.986 . S
Mg453 O461 2.238 1_455 S
Mg453 O465 2.042 . S
Mg453 O467 2.041 1_455 S
Mg453 O474 2.038 . S
C454 O460 1.247 . S
C454 O461 1.289 . S
C455 O473 1.245 . S
C455 O474 1.274 . S
O456 C444 1.241 . S
O456 Mg449 2.042 1_655 S
O457 C444 1.280 . S
O457 Mg447 1.978 1_655 S
O458 C445 1.277 . S
O458 Mg449 2.041 . S
O459 C445 1.245 . S
O459 Mg447 1.998 . S
O460 Mg447 2.056 1_655 S
O460 C454 1.247 . S
O461 Mg450 2.106 1_655 S
O461 Mg453 2.238 1_655 S
O461 C454 1.289 . S
C462 O463 1.245 . S
C462 O464 1.274 . S
O463 Mg450 2.079 1_655 S
O463 C462 1.245 . S
O464 Mg449 2.038 1_655 S
O464 C462 1.274 . S
O465 Mg453 2.042 . S
O465 C468 1.241 . S
O466 Mg452 1.984 . S
O466 C468 1.280 . S
O467 Mg453 2.041 1_655 S
O467 C471 1.277 . S
C468 O465 1.241 . S
C468 O466 1.280 . S
O469 Mg452 1.988 1_655 S
O469 C471 1.245 . S
O470 C446 1.247 . S
O470 Mg452 2.061 . S
C471 O467 1.277 . S
C471 O469 1.245 . S
O472 C446 1.289 . S
O472 Mg449 2.238 . S
O472 Mg450 2.106 . S
O473 Mg450 2.079 . S
O473 C455 1.245 . S
O474 Mg453 2.038 . S
O474 C455 1.274 . S
C475 O487 1.241 . S
C475 O488 1.280 . S
C476 O489 1.277 . S
C476 O490 1.245 . S
C477 O501 1.247 . S
C477 O503 1.289 . S
Mg478 O479 1.926 . S
Mg478 O488 1.984 . S
Mg478 O490 1.988 1_545 S
Mg478 O491 2.061 . S
O479 Mg478 1.926 . S
O479 Mg480 1.986 . S
O479 Mg481 1.917 . S
Mg480 O479 1.986 . S
Mg480 O487 2.042 . S
Mg480 O489 2.041 1_545 S
Mg480 O495 2.038 . S
Mg480 O503 2.238 1_545 S
Mg481 O479 1.917 . S
Mg481 O482 1.917 1_545 S
Mg481 O492 2.106 . S
Mg481 O494 2.079 . S
Mg481 O503 2.106 1_545 S
Mg481 O504 2.079 1_545 S
O482 Mg481 1.917 1_565 S
O482 Mg483 1.926 . S
O482 Mg484 1.986 1_565 S
Mg483 O482 1.926 . S
Mg483 O497 1.984 . S
Mg483 O500 1.988 1_565 S
Mg483 O501 2.061 . S
Mg484 O482 1.986 1_545 S
Mg484 O492 2.238 . S
Mg484 O496 2.042 1_545 S
Mg484 O498 2.041 . S
Mg484 O505 2.038 1_545 S
C485 O491 1.247 . S
C485 O492 1.289 . S
C486 O504 1.245 . S
C486 O505 1.274 . S
O487 C475 1.241 . S
O487 Mg480 2.042 . S
O488 C475 1.280 . S
O488 Mg478 1.984 . S
O489 C476 1.277 . S
O489 Mg480 2.041 1_565 S
O490 C476 1.245 . S
O490 Mg478 1.988 1_565 S
O491 Mg478 2.061 . S
O491 C485 1.247 . S
O492 Mg481 2.106 . S
O492 Mg484 2.238 . S
O492 C485 1.289 . S
C493 O494 1.245 . S
C493 O495 1.274 . S
O494 Mg481 2.079 . S
O494 C493 1.245 . S
O495 Mg480 2.038 . S
O495 C493 1.274 . S
O496 Mg484 2.042 1_565 S
O496 C499 1.241 . S
O497 Mg483 1.984 . S
O497 C499 1.280 . S
O498 Mg484 2.041 . S
O498 C502 1.277 . S
C499 O496 1.241 . S
C499 O497 1.280 . S
O500 Mg483 1.988 1_545 S
O500 C502 1.245 . S
O501 C477 1.247 . S
O501 Mg483 2.061 . S
C502 O498 1.277 . S
C502 O500 1.245 . S
O503 C477 1.289 . S
O503 Mg480 2.238 1_565 S
O503 Mg481 2.106 1_565 S
O504 Mg481 2.079 1_565 S
O504 C486 1.245 . S
O505 Mg484 2.038 1_565 S
O505 C486 1.274 . S
C506 O518 1.241 . S
C506 O519 1.280 . S
C507 O520 1.277 . S
C507 O521 1.245 . S
C508 O532 1.247 . S
C508 O534 1.289 . S
Mg509 O510 1.926 . S
Mg509 O519 1.984 . S
Mg509 O521 1.988 . S
Mg509 O522 2.061 . S
O510 Mg509 1.926 . S
O510 Mg511 1.986 . S
O510 Mg512 1.917 . S
Mg511 O510 1.986 . S
Mg511 O518 2.042 . S
Mg511 O520 2.041 . S
Mg511 O526 2.038 . S
Mg511 O534 2.238 . S
Mg512 O510 1.917 . S
Mg512 O513 1.917 . S
Mg512 O523 2.106 . S
Mg512 O525 2.079 . S
Mg512 O534 2.106 . S
Mg512 O535 2.079 . S
O513 Mg512 1.917 . S
O513 Mg514 1.926 . S
O513 Mg515 1.986 . S
Mg514 O513 1.926 . S
Mg514 O528 1.984 . S
Mg514 O531 1.988 . S
Mg514 O532 2.061 . S
Mg515 O513 1.986 . S
Mg515 O523 2.238 . S
Mg515 O527 2.042 . S
Mg515 O529 2.041 . S
Mg515 O536 2.038 . S
C516 O522 1.247 . S
C516 O523 1.289 . S
C517 O535 1.245 . S
C517 O536 1.274 . S
O518 C506 1.241 . S
O518 Mg511 2.042 . S
O519 C506 1.280 . S
O519 Mg509 1.984 . S
O520 C507 1.277 . S
O520 Mg511 2.041 . S
O521 C507 1.245 . S
O521 Mg509 1.988 . S
O522 Mg509 2.061 . S
O522 C516 1.247 . S
O523 Mg512 2.106 . S
O523 Mg515 2.238 . S
O523 C516 1.289 . S
C524 O525 1.245 . S
C524 O526 1.274 . S
O525 Mg512 2.079 . S
O525 C524 1.245 . S
O526 Mg511 2.038 . S
O526 C524 1.274 . S
O527 Mg515 2.042 . S
O527 C530 1.241 . S
O528 Mg514 1.984 . S
O528 C530 1.280 . S
O529 Mg515 2.041 . S
O529 C533 1.277 . S
C530 O527 1.241 . S
C530 O528 1.280 . S
O531 Mg514 1.988 . S
O531 C533 1.245 . S
O532 C508 1.247 . S
O532 Mg514 2.061 . S
C533 O529 1.277 . S
C533 O531 1.245 . S
O534 C508 1.289 . S
O534 Mg511 2.238 . S
O534 Mg512 2.106 . S
O535 Mg512 2.079 . S
O535 C517 1.245 . S
O536 Mg515 2.038 . S
O536 C517 1.274 . S
C537 C538 1.369 . S
C537 C539 1.419 . S
C537 H541 0.930 . S
C538 C537 1.369 . S
C538 C547 1.429 . S
C539 C537 1.419 . S
C539 C540 1.363 . S
C539 H542 0.929 . S
C540 C539 1.363 . S
C540 C546 1.428 . S
H541 C537 0.930 . S
H542 C539 0.929 . S
S543 N544 1.613 . S
S543 N545 1.610 . S
N544 S543 1.613 . S
N544 C547 1.350 . S
N545 S543 1.610 . S
N545 C546 1.351 . S
C546 C540 1.428 . S
C546 N545 1.351 . S
C546 C547 1.434 . S
C547 C538 1.429 . S
C547 N544 1.350 . S
C547 C546 1.434 . S
C548 C549 1.369 . S
C548 C550 1.419 . S
C548 H552 0.930 . S
C549 C548 1.369 . S
C549 C558 1.429 . S
C550 C548 1.419 . S
C550 C551 1.363 . S
C550 H553 0.929 . S
C551 C550 1.363 . S
C551 C557 1.428 . S
H552 C548 0.930 . S
H553 C550 0.929 . S
S554 N555 1.613 . S
S554 N556 1.610 . S
N555 S554 1.613 . S
N555 C558 1.350 . S
N556 S554 1.610 . S
N556 C557 1.351 . S
C557 C551 1.428 . S
C557 N556 1.351 . S
C557 C558 1.434 . S
C558 C549 1.429 . S
C558 N555 1.350 . S
C558 C557 1.434 . S
C559 C560 1.369 . S
C559 C561 1.419 . S
C559 H563 0.930 . S
C560 C559 1.369 . S
C560 C569 1.429 . S
C561 C559 1.419 . S
C561 C562 1.363 . S
C561 H564 0.929 . S
C562 C561 1.363 . S
C562 C568 1.428 . S
H563 C559 0.930 . S
H564 C561 0.929 . S
S565 N566 1.613 . S
S565 N567 1.610 . S
N566 S565 1.613 . S
N566 C569 1.350 . S
N567 S565 1.610 . S
N567 C568 1.351 . S
C568 C562 1.428 . S
C568 N567 1.351 . S
C568 C569 1.434 . S
C569 C560 1.429 . S
C569 N566 1.350 . S
C569 C568 1.434 . S
C570 C571 1.369 . S
C570 C572 1.419 . S
C570 H574 0.930 . S
C571 C570 1.369 . S
C571 C580 1.429 . S
C572 C570 1.419 . S
C572 C573 1.363 . S
C572 H575 0.929 . S
C573 C572 1.363 . S
C573 C579 1.428 . S
H574 C570 0.930 . S
H575 C572 0.929 . S
S576 N577 1.613 . S
S576 N578 1.610 . S
N577 S576 1.613 . S
N577 C580 1.350 . S
N578 S576 1.610 . S
N578 C579 1.351 . S
C579 C573 1.428 . S
C579 N578 1.351 . S
C579 C580 1.434 . S
C580 C571 1.429 . S
C580 N577 1.350 . S
C580 C579 1.434 . S
C581 C582 1.369 . S
C581 C583 1.419 . S
C581 H585 0.930 . S
C582 C581 1.369 . S
C582 C591 1.429 . S
C583 C581 1.419 . S
C583 C584 1.363 . S
C583 H586 0.929 . S
C584 C583 1.363 . S
C584 C590 1.428 . S
H585 C581 0.930 . S
H586 C583 0.929 . S
S587 N588 1.613 . S
S587 N589 1.610 . S
N588 S587 1.613 . S
N588 C591 1.350 . S
N589 S587 1.610 . S
N589 C590 1.351 . S
C590 C584 1.428 . S
C590 N589 1.351 . S
C590 C591 1.434 . S
C591 C582 1.429 . S
C591 N588 1.350 . S
C591 C590 1.434 . S
C592 C593 1.369 . S
C592 C594 1.419 . S
C592 H596 0.930 . S
C593 C592 1.369 . S
C593 C602 1.429 . S
C594 C592 1.419 . S
C594 C595 1.363 . S
C594 H597 0.929 . S
C595 C594 1.363 . S
C595 C601 1.428 . S
H596 C592 0.930 . S
H597 C594 0.929 . S
S598 N599 1.613 . S
S598 N600 1.610 . S
N599 S598 1.613 . S
N599 C602 1.350 . S
N600 S598 1.610 . S
N600 C601 1.351 . S
C601 C595 1.428 . S
C601 N600 1.351 . S
C601 C602 1.434 . S
C602 C593 1.429 . S
C602 N599 1.350 . S
C602 C601 1.434 . S
C603 C604 1.369 . S
C603 C605 1.419 . S
C603 H607 0.930 . S
C604 C603 1.369 . S
C604 C613 1.429 . S
C605 C603 1.419 . S
C605 C606 1.363 . S
C605 H608 0.929 . S
C606 C605 1.363 . S
C606 C612 1.428 . S
H607 C603 0.930 . S
H608 C605 0.929 . S
S609 N610 1.613 . S
S609 N611 1.610 . S
N610 S609 1.613 . S
N610 C613 1.350 . S
N611 S609 1.610 . S
N611 C612 1.351 . S
C612 C606 1.428 . S
C612 N611 1.351 . S
C612 C613 1.434 . S
C613 C604 1.429 . S
C613 N610 1.350 . S
C613 C612 1.434 . S
C614 C615 1.369 . S
C614 C616 1.419 . S
C614 H618 0.930 . S
C615 C614 1.369 . S
C615 C624 1.429 . S
C616 C614 1.419 . S
C616 C617 1.363 . S
C616 H619 0.929 . S
C617 C616 1.363 . S
C617 C623 1.428 . S
H618 C614 0.930 . S
H619 C616 0.929 . S
S620 N621 1.613 . S
S620 N622 1.610 . S
N621 S620 1.613 . S
N621 C624 1.350 . S
N622 S620 1.610 . S
N622 C623 1.351 . S
C623 C617 1.428 . S
C623 N622 1.351 . S
C623 C624 1.434 . S
C624 C615 1.429 . S
C624 N621 1.350 . S
C624 C623 1.434 . S
C625 C626 1.369 . S
C625 C627 1.419 . S
C625 H629 0.930 . S
C626 C625 1.369 . S
C626 C635 1.429 . S
C627 C625 1.419 . S
C627 C628 1.363 . S
C627 H630 0.929 . S
C628 C627 1.363 . S
C628 C634 1.428 . S
H629 C625 0.930 . S
H630 C627 0.929 . S
S631 N632 1.613 . S
S631 N633 1.610 . S
N632 S631 1.613 . S
N632 C635 1.350 . S
N633 S631 1.610 . S
N633 C634 1.351 . S
C634 C628 1.428 . S
C634 N633 1.351 . S
C634 C635 1.434 . S
C635 C626 1.429 . S
C635 N632 1.350 . S
C635 C634 1.434 . S
C636 C637 1.369 . S
C636 C638 1.419 . S
C636 H640 0.930 . S
C637 C636 1.369 . S
C637 C646 1.429 . S
C638 C636 1.419 . S
C638 C639 1.363 . S
C638 H641 0.929 . S
C639 C638 1.363 . S
C639 C645 1.428 . S
H640 C636 0.930 . S
H641 C638 0.929 . S
S642 N643 1.613 . S
S642 N644 1.610 . S
N643 S642 1.613 . S
N643 C646 1.350 . S
N644 S642 1.610 . S
N644 C645 1.351 . S
C645 C639 1.428 . S
C645 N644 1.351 . S
C645 C646 1.434 . S
C646 C637 1.429 . S
C646 N643 1.350 . S
C646 C645 1.434 . S
C647 C648 1.369 . S
C647 C649 1.419 . S
C647 H651 0.930 . S
C648 C647 1.369 . S
C648 C657 1.429 . S
C649 C647 1.419 . S
C649 C650 1.363 . S
C649 H652 0.929 . S
C650 C649 1.363 . S
C650 C656 1.428 . S
H651 C647 0.930 . S
H652 C649 0.929 . S
S653 N654 1.613 . S
S653 N655 1.610 . S
N654 S653 1.613 . S
N654 C657 1.350 . S
N655 S653 1.610 . S
N655 C656 1.351 . S
C656 C650 1.428 . S
C656 N655 1.351 . S
C656 C657 1.434 . S
C657 C648 1.429 . S
C657 N654 1.350 . S
C657 C656 1.434 . S
C658 C659 1.369 . S
C658 C660 1.419 . S
C658 H662 0.930 . S
C659 C658 1.369 . S
C659 C668 1.429 . S
C660 C658 1.419 . S
C660 C661 1.363 . S
C660 H663 0.929 . S
C661 C660 1.363 . S
C661 C667 1.428 . S
H662 C658 0.930 . S
H663 C660 0.929 . S
S664 N665 1.613 . S
S664 N666 1.610 1_554 S
N665 S664 1.613 . S
N665 C668 1.350 1_554 S
N666 S664 1.610 1_556 S
N666 C667 1.351 . S
C667 C661 1.428 . S
C667 N666 1.351 . S
C667 C668 1.434 . S
C668 C659 1.429 . S
C668 N665 1.350 1_556 S
C668 C667 1.434 . S
C669 C670 1.369 . S
C669 C671 1.419 . S
C669 H673 0.930 . S
C670 C669 1.369 . S
C670 C679 1.429 . S
C671 C669 1.419 . S
C671 C672 1.363 . S
C671 H674 0.929 . S
C672 C671 1.363 . S
C672 C678 1.428 . S
H673 C669 0.930 . S
H674 C671 0.929 . S
S675 N676 1.613 . S
S675 N677 1.610 . S
N676 S675 1.613 . S
N676 C679 1.350 . S
N677 S675 1.610 . S
N677 C678 1.351 . S
C678 C672 1.428 . S
C678 N677 1.351 . S
C678 C679 1.434 . S
C679 C670 1.429 . S
C679 N676 1.350 . S
C679 C678 1.434 . S
C680 C681 1.369 . S
C680 C682 1.419 . S
C680 H684 0.930 . S
C681 C680 1.369 . S
C681 C690 1.429 . S
C682 C680 1.419 . S
C682 C683 1.363 . S
C682 H685 0.929 . S
C683 C682 1.363 . S
C683 C689 1.428 . S
H684 C680 0.930 . S
H685 C682 0.929 . S
S686 N687 1.613 . S
S686 N688 1.610 . S
N687 S686 1.613 . S
N687 C690 1.350 . S
N688 S686 1.610 . S
N688 C689 1.351 . S
C689 C683 1.428 . S
C689 N688 1.351 . S
C689 C690 1.434 . S
C690 C681 1.429 . S
C690 N687 1.350 . S
C690 C689 1.434 . S
C691 C692 1.369 1_556 S
C691 C693 1.419 . S
C691 H695 0.930 1_556 S
C692 C691 1.369 1_554 S
C692 C701 1.429 . S
C693 C691 1.419 . S
C693 C694 1.363 . S
C693 H696 0.929 . S
C694 C693 1.363 . S
C694 C700 1.428 . S
H695 C691 0.930 1_554 S
H696 C693 0.929 . S
S697 N698 1.613 1_556 S
S697 N699 1.610 . S
N698 S697 1.613 1_554 S
N698 C701 1.350 . S
N699 S697 1.610 . S
N699 C700 1.351 . S
C700 C694 1.428 . S
C700 N699 1.351 . S
C700 C701 1.434 1_556 S
C701 C692 1.429 . S
C701 N698 1.350 . S
C701 C700 1.434 1_554 S
C702 C703 1.369 . S
C702 C704 1.419 . S
C702 H706 0.930 . S
C703 C702 1.369 . S
C703 C712 1.429 . S
C704 C702 1.419 . S
C704 C705 1.363 . S
C704 H707 0.929 . S
C705 C704 1.363 . S
C705 C711 1.428 . S
H706 C702 0.930 . S
H707 C704 0.929 . S
S708 N709 1.613 . S
S708 N710 1.610 . S
N709 S708 1.613 . S
N709 C712 1.350 . S
N710 S708 1.610 . S
N710 C711 1.351 . S
C711 C705 1.428 . S
C711 N710 1.351 . S
C711 C712 1.434 . S
C712 C703 1.429 . S
C712 N709 1.350 . S
C712 C711 1.434 . S
C713 C714 1.369 . S
C713 C715 1.419 . S
C713 H717 0.930 . S
C714 C713 1.369 . S
C714 C723 1.429 . S
C715 C713 1.419 . S
C715 C716 1.363 . S
C715 H718 0.929 . S
C716 C715 1.363 . S
C716 C722 1.428 . S
H717 C713 0.930 . S
H718 C715 0.929 . S
S719 N720 1.613 . S
S719 N721 1.610 . S
N720 S719 1.613 . S
N720 C723 1.350 . S
N721 S719 1.610 . S
N721 C722 1.351 . S
C722 C716 1.428 . S
C722 N721 1.351 . S
C722 C723 1.434 . S
C723 C714 1.429 . S
C723 N720 1.350 . S
C723 C722 1.434 . S
C724 C725 1.369 . S
C724 C726 1.419 . S
C724 H728 0.930 . S
C725 C724 1.369 . S
C725 C734 1.429 . S
C726 C724 1.419 . S
C726 C727 1.363 . S
C726 H729 0.929 . S
C727 C726 1.363 . S
C727 C733 1.428 . S
H728 C724 0.930 . S
H729 C726 0.929 . S
S730 N731 1.613 . S
S730 N732 1.610 . S
N731 S730 1.613 . S
N731 C734 1.350 . S
N732 S730 1.610 . S
N732 C733 1.351 . S
C733 C727 1.428 . S
C733 N732 1.351 . S
C733 C734 1.434 . S
C734 C725 1.429 . S
C734 N731 1.350 . S
C734 C733 1.434 . S
C735 C736 1.369 . S
C735 C737 1.419 . S
C735 H739 0.930 . S
C736 C735 1.369 . S
C736 C745 1.429 . S
C737 C735 1.419 . S
C737 C738 1.363 . S
C737 H740 0.929 . S
C738 C737 1.363 . S
C738 C744 1.428 . S
H739 C735 0.930 . S
H740 C737 0.929 . S
S741 N742 1.613 . S
S741 N743 1.610 . S
N742 S741 1.613 . S
N742 C745 1.350 . S
N743 S741 1.610 . S
N743 C744 1.351 . S
C744 C738 1.428 . S
C744 N743 1.351 . S
C744 C745 1.434 . S
C745 C736 1.429 . S
C745 N742 1.350 . S
C745 C744 1.434 . S
C746 C747 1.369 . S
C746 C748 1.419 . S
C746 H750 0.930 . S
C747 C746 1.369 . S
C747 C756 1.429 . S
C748 C746 1.419 . S
C748 C749 1.363 . S
C748 H751 0.929 . S
C749 C748 1.363 . S
C749 C755 1.428 . S
H750 C746 0.930 . S
H751 C748 0.929 . S
S752 N753 1.613 . S
S752 N754 1.610 . S
N753 S752 1.613 . S
N753 C756 1.350 . S
N754 S752 1.610 . S
N754 C755 1.351 . S
C755 C749 1.428 . S
C755 N754 1.351 . S
C755 C756 1.434 . S
C756 C747 1.429 . S
C756 N753 1.350 . S
C756 C755 1.434 . S
C757 C758 1.369 . S
C757 C759 1.419 . S
C757 H761 0.930 . S
C758 C757 1.369 . S
C758 C767 1.429 . S
C759 C757 1.419 . S
C759 C760 1.363 . S
C759 H762 0.929 . S
C760 C759 1.363 . S
C760 C766 1.428 . S
H761 C757 0.930 . S
H762 C759 0.929 . S
S763 N764 1.613 . S
S763 N765 1.610 . S
N764 S763 1.613 . S
N764 C767 1.350 . S
N765 S763 1.610 . S
N765 C766 1.351 . S
C766 C760 1.428 . S
C766 N765 1.351 . S
C766 C767 1.434 . S
C767 C758 1.429 . S
C767 N764 1.350 . S
C767 C766 1.434 . S
C768 C769 1.369 . S
C768 C770 1.419 . S
C768 H772 0.930 . S
C769 C768 1.369 . S
C769 C778 1.429 . S
C770 C768 1.419 . S
C770 C771 1.363 . S
C770 H773 0.929 . S
C771 C770 1.363 . S
C771 C777 1.428 . S
H772 C768 0.930 . S
H773 C770 0.929 . S
S774 N775 1.613 . S
S774 N776 1.610 . S
N775 S774 1.613 . S
N775 C778 1.350 . S
N776 S774 1.610 . S
N776 C777 1.351 . S
C777 C771 1.428 . S
C777 N776 1.351 . S
C777 C778 1.434 . S
C778 C769 1.429 . S
C778 N775 1.350 . S
C778 C777 1.434 . S
C779 C780 1.369 . S
C779 C781 1.419 . S
C779 H783 0.930 . S
C780 C779 1.369 . S
C780 C789 1.429 . S
C781 C779 1.419 . S
C781 C782 1.363 . S
C781 H784 0.929 . S
C782 C781 1.363 . S
C782 C788 1.428 . S
H783 C779 0.930 . S
H784 C781 0.929 . S
S785 N786 1.613 . S
S785 N787 1.610 . S
N786 S785 1.613 . S
N786 C789 1.350 . S
N787 S785 1.610 . S
N787 C788 1.351 . S
C788 C782 1.428 . S
C788 N787 1.351 . S
C788 C789 1.434 . S
C789 C780 1.429 . S
C789 N786 1.350 . S
C789 C788 1.434 . S
C790 C791 1.369 . S
C790 C792 1.419 . S
C790 H794 0.930 . S
C791 C790 1.369 . S
C791 C800 1.429 . S
C792 C790 1.419 . S
C792 C793 1.363 . S
C792 H795 0.929 . S
C793 C792 1.363 . S
C793 C799 1.428 . S
H794 C790 0.930 . S
H795 C792 0.929 . S
S796 N797 1.613 . S
S796 N798 1.610 . S
N797 S796 1.613 . S
N797 C800 1.350 . S
N798 S796 1.610 . S
N798 C799 1.351 . S
C799 C793 1.428 . S
C799 N798 1.351 . S
C799 C800 1.434 . S
C800 C791 1.429 . S
C800 N797 1.350 . S
C800 C799 1.434 . S
C538 C39 2.000 . S
C540 C455 1.952 . S
C549 C125 1.003 . S
C551 C502 1.027 . S
C562 C506 2.148 . S
C560 C211 2.018 . S
C573 C471 0.918 . S
C571 C273 0.939 . S
C582 C335 2.101 . S
C584 C486 2.084 . S
C595 C508 1.466 . S
C593 C439 1.504 . S
C606 C477 1.592 . S
C604 C187 1.593 . S
C615 C291 1.877 . S
C617 C517 1.854 . S
C628 C446 1.976 . S
C626 C359 1.838 . S
C637 C421 0.857 . S
C639 C475 0.828 . S
C648 C63 2.099 . S
C650 C533 2.276 . S
C661 C444 1.845 . S
C659 C143 1.885 . S
C672 C462 2.409 . S
C670 C285 2.181 . S
C683 C476 1.880 . S
C681 C365 1.918 . S
C694 C530 1.983 . S
C692 C409 1.938 . S
C705 C445 1.781 . S
C703 C69 1.837 1_556 S
C716 C493 2.180 . S
C714 C137 2.029 . S
C725 C199 0.586 . S
C727 C516 0.616 . S
C738 C485 2.070 . S
C736 C433 1.875 . S
C749 C524 0.683 . S
C747 C51 0.697 . S
C760 C454 1.631 . S
C758 C113 1.623 . S
C771 C499 1.700 . S
C769 C217 1.752 . S
C780 C261 2.059 . S
C782 C507 2.068 . S
C791 C347 0.784 . S
C793 C468 0.772 . S
